# Generated by pormake.
# Topology smd, (6)-cn, num edge types: 1
# Building blocks:
#     Node 0, Type 0, BuildingBlock: BETGAK_clean_sbu_0, # of connection points: 6
#     Node 1, Type 0, BuildingBlock: BETGAK_clean_sbu_0, # of connection points: 6
#     Node 2, Type 0, BuildingBlock: BETGAK_clean_sbu_0, # of connection points: 6
#     Node 3, Type 0, BuildingBlock: BETGAK_clean_sbu_0, # of connection points: 6
#     Node 4, Type 0, BuildingBlock: BETGAK_clean_sbu_0, # of connection points: 6
#     Node 5, Type 0, BuildingBlock: BETGAK_clean_sbu_0, # of connection points: 6
#     Node 6, Type 0, BuildingBlock: BETGAK_clean_sbu_0, # of connection points: 6
#     Node 7, Type 0, BuildingBlock: BETGAK_clean_sbu_0, # of connection points: 6
#     Node 8, Type 0, BuildingBlock: BETGAK_clean_sbu_0, # of connection points: 6
#     Node 9, Type 0, BuildingBlock: BETGAK_clean_sbu_0, # of connection points: 6
#     Node 10, Type 0, BuildingBlock: BETGAK_clean_sbu_0, # of connection points: 6
#     Node 11, Type 0, BuildingBlock: BETGAK_clean_sbu_0, # of connection points: 6
#     Node 12, Type 0, BuildingBlock: BETGAK_clean_sbu_0, # of connection points: 6
#     Node 13, Type 0, BuildingBlock: BETGAK_clean_sbu_0, # of connection points: 6
#     Node 14, Type 0, BuildingBlock: BETGAK_clean_sbu_0, # of connection points: 6
#     Node 15, Type 0, BuildingBlock: BETGAK_clean_sbu_0, # of connection points: 6
#     Node 16, Type 0, BuildingBlock: BETGAK_clean_sbu_0, # of connection points: 6
#     Node 17, Type 0, BuildingBlock: BETGAK_clean_sbu_0, # of connection points: 6
#     Edge 18, Type (0, 0), BuildingBlock: OJICUG_clean_linker_0, # of connection points: 2
#     Edge 19, Type (0, 0), BuildingBlock: OJICUG_clean_linker_0, # of connection points: 2
#     Edge 20, Type (0, 0), BuildingBlock: OJICUG_clean_linker_0, # of connection points: 2
#     Edge 21, Type (0, 0), BuildingBlock: OJICUG_clean_linker_0, # of connection points: 2
#     Edge 22, Type (0, 0), BuildingBlock: OJICUG_clean_linker_0, # of connection points: 2
#     Edge 23, Type (0, 0), BuildingBlock: OJICUG_clean_linker_0, # of connection points: 2
#     Edge 24, Type (0, 0), BuildingBlock: OJICUG_clean_linker_0, # of connection points: 2
#     Edge 25, Type (0, 0), BuildingBlock: OJICUG_clean_linker_0, # of connection points: 2
#     Edge 26, Type (0, 0), BuildingBlock: OJICUG_clean_linker_0, # of connection points: 2
#     Edge 27, Type (0, 0), BuildingBlock: OJICUG_clean_linker_0, # of connection points: 2
#     Edge 28, Type (0, 0), BuildingBlock: OJICUG_clean_linker_0, # of connection points: 2
#     Edge 29, Type (0, 0), BuildingBlock: OJICUG_clean_linker_0, # of connection points: 2
#     Edge 30, Type (0, 0), BuildingBlock: OJICUG_clean_linker_0, # of connection points: 2
#     Edge 31, Type (0, 0), BuildingBlock: OJICUG_clean_linker_0, # of connection points: 2
#     Edge 32, Type (0, 0), BuildingBlock: OJICUG_clean_linker_0, # of connection points: 2
#     Edge 33, Type (0, 0), BuildingBlock: OJICUG_clean_linker_0, # of connection points: 2
#     Edge 34, Type (0, 0), BuildingBlock: OJICUG_clean_linker_0, # of connection points: 2
#     Edge 35, Type (0, 0), BuildingBlock: OJICUG_clean_linker_0, # of connection points: 2
#     Edge 36, Type (0, 0), BuildingBlock: OJICUG_clean_linker_0, # of connection points: 2
#     Edge 37, Type (0, 0), BuildingBlock: OJICUG_clean_linker_0, # of connection points: 2
#     Edge 38, Type (0, 0), BuildingBlock: OJICUG_clean_linker_0, # of connection points: 2
#     Edge 39, Type (0, 0), BuildingBlock: OJICUG_clean_linker_0, # of connection points: 2
#     Edge 40, Type (0, 0), BuildingBlock: OJICUG_clean_linker_0, # of connection points: 2
#     Edge 41, Type (0, 0), BuildingBlock: OJICUG_clean_linker_0, # of connection points: 2
#     Edge 42, Type (0, 0), BuildingBlock: OJICUG_clean_linker_0, # of connection points: 2
#     Edge 43, Type (0, 0), BuildingBlock: OJICUG_clean_linker_0, # of connection points: 2
#     Edge 44, Type (0, 0), BuildingBlock: OJICUG_clean_linker_0, # of connection points: 2
#     Edge 45, Type (0, 0), BuildingBlock: OJICUG_clean_linker_0, # of connection points: 2
#     Edge 46, Type (0, 0), BuildingBlock: OJICUG_clean_linker_0, # of connection points: 2
#     Edge 47, Type (0, 0), BuildingBlock: OJICUG_clean_linker_0, # of connection points: 2
#     Edge 48, Type (0, 0), BuildingBlock: OJICUG_clean_linker_0, # of connection points: 2
#     Edge 49, Type (0, 0), BuildingBlock: OJICUG_clean_linker_0, # of connection points: 2
#     Edge 50, Type (0, 0), BuildingBlock: OJICUG_clean_linker_0, # of connection points: 2
#     Edge 51, Type (0, 0), BuildingBlock: OJICUG_clean_linker_0, # of connection points: 2
#     Edge 52, Type (0, 0), BuildingBlock: OJICUG_clean_linker_0, # of connection points: 2
#     Edge 53, Type (0, 0), BuildingBlock: OJICUG_clean_linker_0, # of connection points: 2
#     Edge 54, Type (0, 0), BuildingBlock: OJICUG_clean_linker_0, # of connection points: 2
#     Edge 55, Type (0, 0), BuildingBlock: OJICUG_clean_linker_0, # of connection points: 2
#     Edge 56, Type (0, 0), BuildingBlock: OJICUG_clean_linker_0, # of connection points: 2
#     Edge 57, Type (0, 0), BuildingBlock: OJICUG_clean_linker_0, # of connection points: 2
#     Edge 58, Type (0, 0), BuildingBlock: OJICUG_clean_linker_0, # of connection points: 2
#     Edge 59, Type (0, 0), BuildingBlock: OJICUG_clean_linker_0, # of connection points: 2
#     Edge 60, Type (0, 0), BuildingBlock: OJICUG_clean_linker_0, # of connection points: 2
#     Edge 61, Type (0, 0), BuildingBlock: OJICUG_clean_linker_0, # of connection points: 2
#     Edge 62, Type (0, 0), BuildingBlock: OJICUG_clean_linker_0, # of connection points: 2
#     Edge 63, Type (0, 0), BuildingBlock: OJICUG_clean_linker_0, # of connection points: 2
#     Edge 64, Type (0, 0), BuildingBlock: OJICUG_clean_linker_0, # of connection points: 2
#     Edge 65, Type (0, 0), BuildingBlock: OJICUG_clean_linker_0, # of connection points: 2
#     Edge 66, Type (0, 0), BuildingBlock: OJICUG_clean_linker_0, # of connection points: 2
#     Edge 67, Type (0, 0), BuildingBlock: OJICUG_clean_linker_0, # of connection points: 2
#     Edge 68, Type (0, 0), BuildingBlock: OJICUG_clean_linker_0, # of connection points: 2
#     Edge 69, Type (0, 0), BuildingBlock: OJICUG_clean_linker_0, # of connection points: 2
#     Edge 70, Type (0, 0), BuildingBlock: OJICUG_clean_linker_0, # of connection points: 2
#     Edge 71, Type (0, 0), BuildingBlock: OJICUG_clean_linker_0, # of connection points: 2
# Relax obj value: 0.306
# Max RMSD: 0.383
# Mean RMSD: 0.352
data_MOF--net-smd--node1-BETGAK_clean_sbu_0--edge1-OJICUG_clean_linker_0
_symmetry_space_group_name_H-M    P1
_symmetry_Int_Tables_number       1
_symmetry_cell_setting            triclinic
loop_
_symmetry_equiv_pos_as_xyz
'x, y, z'
_cell_length_a     45.433002
_cell_length_b     45.657124
_cell_length_c     20.65104
_cell_angle_alpha  93.039648
_cell_angle_beta   92.878461
_cell_angle_gamma 119.86282
loop_
_atom_site_label
_atom_site_type_symbol
_atom_site_fract_x
_atom_site_fract_y
_atom_site_fract_z
_atom_type_partial_charge
La0 La 0.07992 0.28389 0.59695 0.0
La1 La 1.03588 0.25553 0.48443 0.0
C2 C 0.104 0.30487 0.71434 0.0
C3 C 0.09223 0.29826 0.78071 0.0
C4 C 0.10013 0.27801 0.81855 0.0
C5 C 0.09057 0.2727 0.88212 0.0
C6 C 0.07279 0.2875 0.90979 0.0
C7 C 0.06499 0.30791 0.87195 0.0
C8 C 0.07479 0.31339 0.80839 0.0
C9 C 0.10956 0.26327 0.51364 0.0
C10 C 1.01603 0.20549 0.58343 0.0
C11 C 1.00636 0.2425 0.37085 0.0
C12 C 1.01746 0.2503 0.30452 0.0
C13 C 1.00607 0.2682 0.26728 0.0
C14 C 1.01586 0.27556 0.20424 0.0
C15 C 1.03705 0.26491 0.17679 0.0
C16 C 1.04888 0.24746 0.21452 0.0
C17 C 1.03932 0.24034 0.27775 0.0
C18 C 1.01333 0.28067 0.58028 0.0
C19 C 0.10053 0.3241 0.47123 0.0
O20 O 0.10576 0.28068 0.68129 0.0
O21 O 0.09191 0.31946 0.67731 0.0
O22 O 0.1245 0.29049 0.55306 0.0
O23 O 0.07756 0.24718 0.52186 0.0
O24 O 1.03535 0.23402 0.62255 0.0
O25 O 1.01681 0.20691 0.5205 0.0
O26 O 1.01206 0.26841 0.41033 0.0
O27 O 1.01314 0.22157 0.40027 0.0
O28 O 0.99516 0.25195 0.54587 0.0
O29 O 1.04248 0.29397 0.55995 0.0
O30 O 0.07961 0.29402 0.44225 0.0
O31 O 0.10277 0.32829 0.53616 0.0
H32 H 0.11416 0.26655 0.7993 0.0
H33 H 0.09776 0.25746 0.90999 0.0
H34 H 1.05113 0.31954 0.89119 0.0
H35 H 0.06893 0.32974 0.78125 0.0
H36 H 0.98928 0.27623 0.28679 0.0
H37 H 1.00608 0.28875 0.17631 0.0
H38 H 0.06565 0.23935 0.19513 0.0
H39 H 1.04895 0.22692 0.30542 0.0
La40 La 0.83504 0.79728 0.49331 0.0
La41 La 0.8215 0.82428 0.60742 0.0
C42 C 0.83126 0.76529 0.38593 0.0
C43 C 0.82927 0.77134 0.31649 0.0
C44 C 0.84847 0.76472 0.27304 0.0
C45 C 0.84649 0.76996 0.20705 0.0
C46 C 0.82494 0.78158 0.18306 0.0
C47 C 0.80568 0.78812 0.22673 0.0
C48 C 0.80802 0.78332 0.29273 0.0
C49 C 0.89227 0.83385 0.57012 0.0
C50 C 0.84917 0.87317 0.50213 0.0
C51 C 0.81625 0.84291 0.72154 0.0
C52 C 0.81665 0.83123 0.78686 0.0
C53 C 0.79442 0.83178 0.83099 0.0
C54 C 0.79479 0.82153 0.89358 0.0
C55 C 0.81752 0.81054 0.91354 0.0
C56 C 0.83927 0.80929 0.86855 0.0
C57 C 0.83875 0.8194 0.8058 0.0
C58 C 0.77323 0.80411 0.50657 0.0
C59 C 0.81042 0.75153 0.61564 0.0
O60 O 0.85981 0.78551 0.42084 0.0
O61 O 0.80519 0.7599 0.41754 0.0
O62 O 0.88829 0.83639 0.50859 0.0
O63 O 0.86285 0.81361 0.58847 0.0
O64 O 0.83678 0.84481 0.46226 0.0
O65 O 0.85275 0.87132 0.56503 0.0
O66 O 0.79016 0.82243 0.68059 0.0
O67 O 0.84488 0.85611 0.69369 0.0
O68 O 0.7842 0.83151 0.5451 0.0
O69 O 0.78889 0.78964 0.52636 0.0
O70 O 0.80535 0.77525 0.64151 0.0
O71 O 0.8242 0.7552 0.5586 0.0
H72 H 0.86498 0.75543 0.29015 0.0
H73 H 0.86149 0.76449 0.1746 0.0
H74 H 0.78921 0.79754 0.21007 0.0
H75 H 0.79322 0.78909 0.32514 0.0
H76 H 0.77695 0.84052 0.81723 0.0
H77 H 0.77784 0.82306 0.92688 0.0
H78 H 0.85665 0.80039 0.88175 0.0
H79 H 0.85576 0.81814 0.77226 0.0
La80 La 0.28702 1.02158 0.58773 0.0
La81 La 0.30133 0.06243 0.48863 0.0
C82 C 0.28159 0.99777 0.69745 0.0
C83 C 0.28546 1.00926 0.76716 0.0
C84 C 0.26021 0.98917 0.80713 0.0
C85 C 0.26385 0.99859 0.87386 0.0
C86 C 0.29304 1.02818 0.90206 0.0
C87 C 0.31811 0.04856 0.86178 0.0
C88 C 0.31419 1.03931 0.7949 0.0
C89 C 0.23596 0.98843 0.49571 0.0
C90 C 0.26873 0.08249 0.58799 0.0
C91 C 0.31799 0.09194 0.38529 0.0
C92 C 0.31459 0.08142 0.3154 0.0
C93 C 0.34123 0.10067 0.2773 0.0
C94 C 0.33845 0.0914 0.21067 0.0
C95 C 0.30886 0.06271 0.1809 0.0
C96 C 0.28255 0.043 0.2197 0.0
C97 C 0.28544 0.05218 0.28638 0.0
C98 C 0.34889 0.08962 0.59296 0.0
C99 C 0.31007 1.00083 0.45947 0.0
O100 O 0.25631 0.99656 0.66229 0.0
O101 O 0.30914 1.00987 0.66666 0.0
O102 O 0.25152 0.97595 0.52792 0.0
O103 O 0.25115 1.02051 0.51275 0.0
O104 O 0.27986 0.06576 0.62399 0.0
O105 O 0.26874 0.07919 0.52499 0.0
O106 O 0.33793 0.08547 0.42183 0.0
O107 O 0.29004 0.08489 0.41223 0.0
O108 O 0.33677 0.10549 0.56143 0.0
O109 O 0.33472 0.05999 0.56545 0.0
O110 O 0.29895 1.01947 0.43432 0.0
O111 O 0.31183 1.00008 0.524 0.0
H112 H 0.23778 0.96591 0.7868 0.0
H113 H 0.24417 0.98229 0.90366 0.0
H114 H 0.34063 0.07177 0.8819 0.0
H115 H 0.33366 0.05558 0.76509 0.0
H116 H 0.36411 0.12308 0.29903 0.0
H117 H 0.35912 0.1072 0.18222 0.0
H118 H 0.25973 1.02038 0.19853 0.0
H119 H 0.26484 1.03654 0.31513 0.0
La120 La 0.083 0.82816 0.61956 0.0
La121 La 1.03975 0.79669 0.50377 0.0
C122 C 0.11152 0.84626 0.73442 0.0
C123 C 0.10104 0.83616 0.79989 0.0
C124 C 0.12517 0.83896 0.84863 0.0
C125 C 0.11587 0.83027 0.91147 0.0
C126 C 0.08216 0.8186 0.92679 0.0
C127 C 1.05784 0.81488 0.87707 0.0
C128 C 0.06716 0.82353 0.81429 0.0
C129 C 0.10898 0.80614 0.52568 0.0
C130 C 1.02385 0.75385 0.62593 0.0
C131 C 1.01492 0.7752 0.38697 0.0
C132 C 1.02588 0.78159 0.3206 0.0
C133 C 1.00144 0.7744 0.26885 0.0
C134 C 1.01089 0.78007 0.20531 0.0
C135 C 1.04503 0.79287 0.19206 0.0
C136 C 0.06953 0.79983 0.24405 0.0
C137 C 1.06007 0.7945 0.30788 0.0
C138 C 1.0075 0.81375 0.58837 0.0
C139 C 0.10193 0.87607 0.5154 0.0
O140 O 0.11271 0.82351 0.69541 0.0
O141 O 0.0975 0.8614 0.70445 0.0
O142 O 0.12597 0.8346 0.56152 0.0
O143 O 0.07958 0.79138 0.54454 0.0
O144 O 1.04252 0.78372 0.65808 0.0
O145 O 1.02135 0.75125 0.56098 0.0
O146 O 1.01325 0.79949 0.41982 0.0
O147 O 1.02832 0.76152 0.42323 0.0
O148 O 0.99459 0.78592 0.551 0.0
O149 O 1.03909 0.83182 0.57839 0.0
O150 O 0.08356 0.84694 0.47735 0.0
O151 O 0.10015 0.87554 0.57839 0.0
H152 H 0.15138 0.8483 0.8383 0.0
H153 H 0.13531 0.83362 0.94846 0.0
H154 H 1.03152 0.80531 0.88666 0.0
H155 H 1.04794 0.82062 0.77719 0.0
H156 H 0.97493 0.76438 0.27761 0.0
H157 H 0.99136 0.77411 0.16636 0.0
H158 H 0.09608 0.81003 0.23558 0.0
H159 H 0.07944 0.80062 0.3472 0.0
La160 La 0.2971 0.25552 0.48898 0.0
La161 La 0.28397 0.285 0.59622 0.0
C162 C 0.31165 0.24117 0.37958 0.0
C163 C 0.30933 0.24986 0.31214 0.0
C164 C 0.33896 0.26561 0.27915 0.0
C165 C 0.33749 0.27394 0.21527 0.0
C166 C 0.30627 0.26656 0.18274 0.0
C167 C 0.2767 0.25123 0.21634 0.0
C168 C 0.27822 0.24306 0.28033 0.0
C169 C 0.34697 0.28179 0.58897 0.0
C170 C 0.30291 0.32444 0.46928 0.0
C171 C 0.28193 0.30696 0.7103 0.0
C172 C 0.28647 0.30027 0.77856 0.0
C173 C 0.25799 0.2844 0.8146 0.0
C174 C 0.26183 0.2793 0.87996 0.0
C175 C 0.2943 0.29007 0.91103 0.0
C176 C 0.32282 0.30577 0.87485 0.0
C177 C 0.31895 0.31096 0.8095 0.0
C178 C 0.23192 0.26368 0.50748 0.0
C179 C 0.26876 0.20653 0.58925 0.0
O180 O 0.33327 0.2663 0.42098 0.0
O181 O 0.28322 0.2216 0.40506 0.0
O182 O 0.33541 0.25259 0.55674 0.0
O183 O 0.3307 0.29477 0.56485 0.0
O184 O 0.29207 0.29402 0.44176 0.0
O185 O 0.30608 0.32898 0.53426 0.0
O186 O 0.25534 0.28323 0.67444 0.0
O187 O 0.30881 0.32049 0.67758 0.0
O188 O 0.24626 0.29199 0.54365 0.0
O189 O 0.24772 0.24755 0.52067 0.0
O190 O 0.27859 0.23525 0.62702 0.0
O191 O 0.26852 0.20744 0.52618 0.0
H192 H 0.36334 0.27148 0.30285 0.0
H193 H 0.36086 0.28627 0.19149 0.0
H194 H 0.25216 0.24484 0.19276 0.0
H195 H 0.25497 0.23123 0.30462 0.0
H196 H 0.23266 0.27615 0.79235 0.0
H197 H 0.23928 0.26674 0.90609 0.0
H198 H 0.34824 0.31475 0.89743 0.0
H199 H 0.34148 0.32379 0.78363 0.0
La200 La 0.81672 1.01991 0.60143 0.0
La201 La 0.83378 0.06101 0.50173 0.0
C202 C 0.79842 0.99038 0.70417 0.0
C203 C 0.80221 1.00081 0.77442 0.0
C204 C 0.77405 0.99784 0.80515 0.0
C205 C 0.77711 1.00702 0.87181 0.0
C206 C 0.80831 1.0191 0.90912 0.0
C207 C 0.83648 1.02221 0.87823 0.0
C208 C 0.83349 1.01317 0.81162 0.0
C209 C 0.77036 0.99463 0.4957 0.0
C210 C 0.81018 0.08318 0.62691 0.0
C211 C 0.83974 0.08427 0.39177 0.0
C212 C 0.83357 0.07135 0.32239 0.0
C213 C 0.85997 0.07172 0.28917 0.0
C214 C 0.85495 0.06185 0.22258 0.0
C215 C 0.82348 0.05155 0.18771 0.0
C216 C 0.79682 0.05046 0.2211 0.0
C217 C 0.80189 0.0605 0.2877 0.0
C218 C 0.88332 0.09307 0.59671 0.0
C219 C 0.8496 0.99855 0.50465 0.0
O220 O 0.77954 0.99816 0.66749 0.0
O221 O 0.82581 0.99563 0.67699 0.0
O222 O 0.78102 0.97763 0.52747 0.0
O223 O 0.78543 1.02413 0.52338 0.0
O224 O 0.81938 0.06345 0.65398 0.0
O225 O 0.8098 0.08413 0.56259 0.0
O226 O 0.8645 0.08397 0.42617 0.0
O227 O 0.813 0.07478 0.42421 0.0
O228 O 0.86953 0.1063 0.56169 0.0
O229 O 0.86776 0.06102 0.5795 0.0
O230 O 0.83962 1.01573 0.46726 0.0
O231 O 0.84899 1.00222 0.56741 0.0
H232 H 0.74962 0.98836 0.77764 0.0
H233 H 0.75513 1.00486 0.8941 0.0
H234 H 0.86076 1.03101 0.90578 0.0
H235 H 0.85565 1.01564 0.78954 0.0
H236 H 0.88475 0.08018 0.31435 0.0
H237 H 0.87582 0.06254 0.1982 0.0
H238 H 0.7724 0.04296 0.19535 0.0
H239 H 0.7812 0.06045 0.31163 0.0
La240 La 0.71042 0.59282 0.79848 0.0
La241 La 0.75755 0.61574 0.91666 0.0
C242 C 0.6872 0.59202 0.68363 0.0
C243 C 0.69938 0.60382 0.61978 0.0
C244 C 0.67556 0.59345 0.56554 0.0
C245 C 0.68622 0.60126 0.50316 0.0
C246 C 0.72114 0.62016 0.49332 0.0
C247 C 0.74496 0.63127 0.54857 0.0
C248 C 0.73419 0.62271 0.61085 0.0
C249 C 0.68204 0.5404 0.86907 0.0
C250 C 0.77384 0.57904 0.81318 0.0
C251 C 0.78813 0.63851 1.02948 0.0
C252 C 0.77846 0.63699 0.09718 0.0
C253 C 0.80169 0.6609 0.14658 0.0
C254 C 0.7929 0.66001 0.21091 0.0
C255 C 0.76044 0.63555 0.22687 0.0
C256 C 0.73699 0.612 0.17705 0.0
C257 C 0.74604 0.61251 0.11297 0.0
C258 C 0.77695 0.65684 0.81791 0.0
C259 C 0.68862 0.61407 0.92878 0.0
O260 O 0.69321 0.56875 0.70392 0.0
O261 O 0.69252 0.6148 0.73093 0.0
O262 O 0.67049 0.54246 0.81241 0.0
O263 O 0.70996 0.56821 0.88696 0.0
O264 O 0.75584 0.58793 0.77398 0.0
O265 O 0.77258 0.58161 0.87636 0.0
O266 O 0.77877 0.65518 0.99206 0.0
O267 O 0.78307 0.61023 0.99896 0.0
O268 O 0.79697 0.65028 0.85301 0.0
O269 O 0.7483 0.64097 0.83954 0.0
O270 O 0.71252 0.61 0.95744 0.0
O271 O 0.68427 0.61178 0.86378 0.0
H272 H 0.64855 0.5783 0.57113 0.0
H273 H 0.66689 0.59137 0.46251 0.0
H274 H 0.77203 0.64632 0.54394 0.0
H275 H 0.75305 0.63022 0.65173 0.0
H276 H 0.82673 0.68022 0.13544 0.0
H277 H 0.81138 0.67864 0.24814 0.0
H278 H 0.71189 0.5927 0.18795 0.0
H279 H 0.72781 0.59367 0.07582 0.0
La280 La 0.50454 0.13965 0.81631 0.0
La281 La 0.49342 0.16881 0.93197 0.0
C282 C 0.49823 0.10676 0.70851 0.0
C283 C 0.50458 0.11477 0.64053 0.0
C284 C 0.49155 0.08827 0.59065 0.0
C285 C 0.49188 0.09508 0.52521 0.0
C286 C 0.5052 0.12859 0.5083 0.0
C287 C 0.51931 0.15517 0.55861 0.0
C288 C 0.51889 0.14831 0.62404 0.0
C289 C 0.56379 0.18039 0.88488 0.0
C290 C 0.51856 0.21606 0.82522 0.0
C291 C 0.48374 0.18487 0.04462 0.0
C292 C 0.48755 0.17586 0.11147 0.0
C293 C 0.50472 0.20154 0.16247 0.0
C294 C 0.50799 0.19352 0.22608 0.0
C295 C 0.49422 0.15952 0.24035 0.0
C296 C 0.47703 0.13381 0.189 0.0
C297 C 0.47361 0.14186 0.12552 0.0
C298 C 0.44169 0.14187 0.8352 0.0
C299 C 0.49118 0.10034 0.94749 0.0
O300 O 0.52444 0.11772 0.75154 0.0
O301 O 0.47486 0.11208 0.73079 0.0
O302 O 0.55748 0.17979 0.82284 0.0
O303 O 0.53561 0.16051 0.90768 0.0
O304 O 0.50572 0.18719 0.7865 0.0
O305 O 0.52316 0.21541 0.88828 0.0
O306 O 0.45996 0.16064 1.00411 0.0
O307 O 0.51177 0.20312 1.01656 0.0
O308 O 0.45299 0.17081 0.86841 0.0
O309 O 0.45951 0.12999 0.85674 0.0
O310 O 0.49528 0.12832 0.97692 0.0
O311 O 0.49185 0.09761 0.88264 0.0
H312 H 0.47996 0.06216 0.60234 0.0
H313 H 0.48118 0.07401 0.48789 0.0
H314 H 0.52939 0.18121 0.54761 0.0
H315 H 0.52846 0.16907 0.66184 0.0
H316 H 0.51539 0.22791 0.1532 0.0
H317 H 0.52085 0.21405 0.26428 0.0
H318 H 0.46641 0.10738 0.19761 0.0
H319 H 0.45999 0.12135 0.08751 0.0
La320 La 0.97647 0.39642 0.81703 0.0
La321 La 0.95419 0.35533 0.91422 0.0
C322 C 0.99237 0.41855 0.70683 0.0
C323 C 0.98524 0.40495 0.63762 0.0
C324 C 0.95894 0.40474 0.59843 0.0
C325 C 0.95394 0.39451 0.53191 0.0
C326 C 0.97522 0.3844 0.50302 0.0
C327 C 1.001 0.38381 0.54247 0.0
C328 C 1.00611 0.3942 0.60896 0.0
C329 C 0.96092 0.4291 0.9055 0.0
C330 C 0.89722 0.33596 0.81625 0.0
C331 C 0.94651 0.32553 1.01697 0.0
C332 C 0.95145 0.33537 0.08776 0.0
C333 C 0.97681 0.33354 0.12615 0.0
C334 C 0.98151 0.34213 0.19336 0.0
C335 C 0.96087 0.35267 0.2236 0.0
C336 C 0.93575 0.35484 0.18495 0.0
C337 C 0.93109 0.3463 0.11778 0.0
C338 C 0.97309 0.33015 0.81182 0.0
C339 C 1.02246 0.41961 0.9503 0.0
O340 O 0.96726 0.41783 0.73621 0.0
O341 O 1.01047 0.41021 0.74434 0.0
O342 O 0.98683 0.44227 0.87159 0.0
O343 O 0.94385 0.3968 0.89038 0.0
O344 O 0.92357 0.35217 0.78026 0.0
O345 O 0.90337 0.33942 0.87918 0.0
O346 O 0.97418 0.33782 0.98661 0.0
O347 O 0.92184 0.3264 0.98333 0.0
O348 O 0.9456 0.31346 0.84039 0.0
O349 O 0.98858 0.35949 0.84051 0.0
O350 O 0.99343 0.39931 0.97228 0.0
O351 O 1.02401 0.42053 0.88613 0.0
H352 H 0.94257 0.41309 0.61886 0.0
H353 H 0.93357 0.39482 0.50292 0.0
H354 H 1.01804 0.37649 0.52158 0.0
H355 H 1.02696 0.39457 0.6375 0.0
H356 H 0.993 0.32541 0.10409 0.0
H357 H 1.00146 0.34074 0.22159 0.0
H358 H 0.9192 0.36253 0.20678 0.0
H359 H 0.91136 0.34807 0.08961 0.0
La360 La 0.75243 0.17203 0.93247 0.0
La361 La 0.7075 0.13774 0.81861 0.0
C362 C 0.78026 0.18959 0.04779 0.0
C363 C 0.76888 0.17926 0.11347 0.0
C364 C 0.76983 0.15168 0.13903 0.0
C365 C 0.76029 0.1429 0.20184 0.0
C366 C 0.74984 0.16165 0.24095 0.0
C367 C 0.74836 0.18881 0.21484 0.0
C368 C 0.75784 0.19755 0.15216 0.0
C369 C 0.7752 0.14474 0.84222 0.0
C370 C 0.69188 0.10039 0.94739 0.0
C371 C 0.68327 0.1136 0.70238 0.0
C372 C 0.69485 0.12091 0.63592 0.0
C373 C 0.69501 0.14779 0.60538 0.0
C374 C 0.70471 0.15384 0.54203 0.0
C375 C 0.71451 0.1332 0.50716 0.0
C376 C 0.71423 0.10618 0.53761 0.0
C377 C 0.70447 0.10009 0.60117 0.0
C378 C 0.67776 0.15942 0.89978 0.0
C379 C 0.77042 0.21659 0.82309 0.0
O380 O 0.78179 0.16714 1.0084 0.0
O381 O 0.76766 0.20583 1.01709 0.0
O382 O 0.79356 0.17441 0.87354 0.0
O383 O 0.74627 0.132 0.8629 0.0
O384 O 0.71033 0.1314 0.97445 0.0
O385 O 0.68928 0.0949 0.88264 0.0
O386 O 0.67828 0.13593 0.73467 0.0
O387 O 0.69824 0.10195 0.74007 0.0
O388 O 0.66329 0.13058 0.8651 0.0
O389 O 0.70929 0.17602 0.88848 0.0
O390 O 0.75101 0.18681 0.78757 0.0
O391 O 0.77053 0.218 0.88658 0.0
H392 H 0.77834 0.13705 0.11085 0.0
H393 H 0.76201 0.122 0.22036 0.0
H394 H 0.73986 0.20346 0.24298 0.0
H395 H 0.75679 0.2189 0.13422 0.0
H396 H 0.68733 0.16409 0.6301 0.0
H397 H 0.70391 0.17444 0.51993 0.0
H398 H 0.72183 0.08988 0.51259 0.0
H399 H 0.7043 0.07896 0.62303 0.0
La400 La 0.95307 0.61629 0.92455 0.0
La401 La 0.97719 0.59668 0.81828 0.0
C402 C 0.94284 0.63683 1.0331 0.0
C403 C 0.94963 0.63412 0.10253 0.0
C404 C 0.94533 0.65431 0.1504 0.0
C405 C 0.95141 0.65192 0.21657 0.0
C406 C 0.96216 0.62942 0.23612 0.0
C407 C 0.96701 0.60965 0.18779 0.0
C408 C 0.96071 0.6119 0.12167 0.0
C409 C 0.9734 0.65953 0.82896 0.0
C410 C 1.02278 0.62233 0.95208 0.0
C411 C 0.99399 0.58945 0.70581 0.0
C412 C 0.98767 0.59538 0.63828 0.0
C413 C 0.99559 0.57988 0.58705 0.0
C414 C 0.99146 0.58624 0.52269 0.0
C415 C 0.97951 0.60849 0.50802 0.0
C416 C 0.97105 0.62361 0.55969 0.0
C417 C 0.97495 0.61697 0.62417 0.0
C418 C 0.96093 0.5503 0.90226 0.0
C419 C 0.89852 0.5799 0.81758 0.0
O420 O 0.96965 0.65438 1.0019 0.0
O421 O 0.92045 0.60889 0.99858 0.0
O422 O 0.94616 0.65037 0.85862 0.0
O423 O 0.9879 0.645 0.85368 0.0
O424 O 0.9937 0.61333 0.9756 0.0
O425 O 1.02445 0.62213 0.88778 0.0
O426 O 0.96823 0.56557 0.73192 0.0
O427 O 1.01152 0.61635 0.74663 0.0
O428 O 0.98634 0.56115 0.86694 0.0
O429 O 0.94407 0.56536 0.88913 0.0
O430 O 0.92542 0.58933 0.78278 0.0
O431 O 0.90312 0.58257 0.88089 0.0
H432 H 0.93715 0.67189 0.1366 0.0
H433 H 0.9479 0.66785 0.25244 0.0
H434 H 0.97497 0.59184 0.20108 0.0
H435 H 0.96417 0.59605 0.0856 0.0
H436 H 1.00521 0.56295 0.59688 0.0
H437 H 0.99747 0.57348 0.48434 0.0
H438 H 0.96199 0.64104 0.55054 0.0
H439 H 0.96835 0.62893 0.66299 0.0
La440 La 0.48911 0.3612 0.93205 0.0
La441 La 0.50251 0.40234 0.83276 0.0
C442 C 0.47347 0.33172 1.0355 0.0
C443 C 0.47613 0.34192 0.10566 0.0
C444 C 0.44633 0.33277 0.13687 0.0
C445 C 0.44822 0.34177 0.20335 0.0
C446 C 0.47997 0.35994 0.24014 0.0
C447 C 0.50976 0.36919 0.20866 0.0
C448 C 0.50788 0.36035 0.14217 0.0
C449 C 0.44064 0.33435 0.8296 0.0
C450 C 0.4817 0.42369 0.96301 0.0
C451 C 0.50583 0.4255 0.72301 0.0
C452 C 0.50075 0.41303 0.6534 0.0
C453 C 0.52897 0.41906 0.61933 0.0
C454 C 0.5248 0.40934 0.55274 0.0
C455 C 0.49234 0.39349 0.51857 0.0
C456 C 0.464 0.38691 0.55275 0.0
C457 C 0.46819 0.39681 0.61939 0.0
C458 C 0.55502 0.43431 0.92212 0.0
C459 C 0.52009 0.34092 0.82958 0.0
O460 O 0.4527 0.33688 0.99837 0.0
O461 O 0.50167 0.33971 1.00861 0.0
O462 O 0.45283 0.31827 0.86021 0.0
O463 O 0.45528 0.36405 0.85696 0.0
O464 O 0.49237 0.40444 0.9871 0.0
O465 O 0.4794 0.42466 0.89865 0.0
O466 O 0.53187 0.4276 0.75717 0.0
O467 O 0.47894 0.41367 0.75567 0.0
O468 O 0.53936 0.44744 0.89234 0.0
O469 O 0.5389 0.40227 0.90468 0.0
O470 O 0.50891 0.35797 0.79467 0.0
O471 O 0.52074 0.34404 0.89276 0.0
H472 H 0.42151 0.31861 0.10979 0.0
H473 H 0.42482 0.33467 0.22582 0.0
H474 H 0.53461 0.38277 0.23564 0.0
H475 H 0.53132 0.36777 0.11964 0.0
H476 H 0.55442 0.43176 0.64393 0.0
H477 H 0.54708 0.41438 0.52789 0.0
H478 H 0.43871 0.37505 0.52761 0.0
H479 H 0.44599 0.39233 0.64388 0.0
La480 La 0.41761 0.95454 0.25832 0.0
La481 La 0.37295 0.92412 0.13961 0.0
C482 C 0.44498 0.98606 0.36942 0.0
C483 C 0.43534 0.97836 0.43703 0.0
C484 C 0.46022 0.98509 0.48779 0.0
C485 C 0.45127 0.97802 0.5517 0.0
C486 C 0.41713 0.96426 0.56676 0.0
C487 C 0.39238 0.95788 0.51553 0.0
C488 C 0.40128 0.96449 0.45171 0.0
C489 C 0.43544 0.916 0.18866 0.0
C490 C 0.3565 0.8781 0.24876 0.0
C491 C 0.34576 0.90447 1.0239 0.0
C492 C 0.35702 0.91375 0.95785 0.0
C493 C 0.33453 0.9145 0.90967 0.0
C494 C 0.34456 0.92326 0.84707 0.0
C495 C 0.37753 0.93182 0.83113 0.0
C496 C 0.40019 0.93143 0.87977 0.0
C497 C 0.38998 0.92225 0.9422 0.0
C498 C 0.34879 0.94709 0.23563 0.0
C499 C 0.43756 0.99536 0.1287 0.0
O500 O 0.45435 0.96694 0.33799 0.0
O501 O 0.42468 0.9916 0.33186 0.0
O502 O 0.43268 0.91629 0.25073 0.0
O503 O 0.4253 0.93537 0.16648 0.0
O504 O 0.37265 0.90711 0.28709 0.0
O505 O 0.36002 0.8786 0.18605 0.0
O506 O 0.34363 0.92738 0.06091 0.0
O507 O 0.35931 0.88963 0.05675 0.0
O508 O 0.33064 0.91899 0.19893 0.0
O509 O 0.37809 0.96051 0.21637 0.0
O510 O 0.40902 0.96998 0.10083 0.0
O511 O 0.44724 0.99545 0.19141 0.0
H512 H 0.48665 0.99568 0.47796 0.0
H513 H 0.47115 0.98289 0.58902 0.0
H514 H 0.36595 0.948 0.52454 0.0
H515 H 0.38136 0.95872 0.41382 0.0
H516 H 0.30906 0.90825 0.92045 0.0
H517 H 0.32655 0.92366 0.81122 0.0
H518 H 0.42567 0.93764 0.86925 0.0
H519 H 0.40798 0.92206 0.97838 0.0
La520 La 0.17728 0.47259 0.16597 0.0
La521 La 0.16778 0.50415 0.28137 0.0
C522 C 0.17094 0.44044 0.05745 0.0
C523 C 0.17207 0.44964 0.98925 0.0
C524 C 0.19125 0.44299 0.94576 0.0
C525 C 0.19167 0.45107 0.88094 0.0
C526 C 0.17277 0.4659 0.8581 0.0
C527 C 0.15349 0.47235 0.90196 0.0
C528 C 0.15331 0.46456 0.96655 0.0
C529 C 0.23635 0.51308 0.2349 0.0
C530 C 0.19249 0.54901 0.17037 0.0
C531 C 0.16248 0.52502 0.39357 0.0
C532 C 0.16524 0.51639 0.46087 0.0
C533 C 0.14454 0.51898 0.50627 0.0
C534 C 0.14619 0.51047 0.56998 0.0
C535 C 0.16852 0.49897 0.58977 0.0
C536 C 0.18897 0.49596 0.54382 0.0
C537 C 0.18745 0.50472 0.48009 0.0
C538 C 0.11651 0.47847 0.18465 0.0
C539 C 0.15935 0.43254 0.29629 0.0
O540 O 0.19932 0.45582 0.09535 0.0
O541 O 0.14567 0.43852 0.08767 0.0
O542 O 0.23021 0.51213 0.17281 0.0
O543 O 0.20832 0.49319 0.25793 0.0
O544 O 0.1784 0.51957 0.13325 0.0
O545 O 0.19806 0.54922 0.23345 0.0
O546 O 0.13667 0.50166 0.35532 0.0
O547 O 0.19052 0.53932 0.36378 0.0
O548 O 0.12817 0.50761 0.21745 0.0
O549 O 0.13351 0.46603 0.20699 0.0
O550 O 0.1615 0.4599 0.3249 0.0
O551 O 0.1643 0.43095 0.23297 0.0
H552 H 0.20594 0.43154 0.96192 0.0
H553 H 0.20713 0.44605 0.849 0.0
H554 H 0.13806 0.48307 0.88629 0.0
H555 H 0.13818 0.47007 0.99858 0.0
H556 H 0.12696 0.52756 0.49238 0.0
H557 H 0.12967 0.51257 0.60365 0.0
H558 H 0.20657 0.48737 0.55741 0.0
H559 H 0.20358 0.50232 0.44583 0.0
La560 La 0.62196 0.69572 0.25572 0.0
La561 La 0.63658 0.73842 0.1577 0.0
C562 C 0.61914 0.67253 0.36541 0.0
C563 C 0.62489 0.68518 0.43519 0.0
C564 C 0.60007 0.68914 0.46618 0.0
C565 C 0.6046 0.69873 0.53296 0.0
C566 C 0.63399 0.7045 0.57054 0.0
C567 C 0.6592 0.70131 0.53932 0.0
C568 C 0.6546 0.69157 0.47245 0.0
C569 C 0.57111 0.66433 0.16394 0.0
C570 C 0.60391 0.75694 0.25938 0.0
C571 C 0.65386 0.76803 0.05462 0.0
C572 C 0.65091 0.75736 0.9843 0.0
C573 C 0.67774 0.75556 0.95665 0.0
C574 C 0.67536 0.74614 0.89014 0.0
C575 C 0.64617 0.73848 0.84957 0.0
C576 C 0.61941 0.74034 0.87731 0.0
C577 C 0.62177 0.74971 0.94376 0.0
C578 C 0.68412 0.76266 0.26151 0.0
C579 C 0.64138 0.67486 0.12309 0.0
O580 O 0.59295 0.67038 0.33164 0.0
O581 O 0.64582 0.68421 0.33221 0.0
O582 O 0.5853 0.65071 0.19681 0.0
O583 O 0.58658 0.69633 0.18195 0.0
O584 O 0.6144 0.73927 0.294 0.0
O585 O 0.60479 0.75543 0.19641 0.0
O586 O 0.6738 0.76212 0.0926 0.0
O587 O 0.62585 0.76132 0.08116 0.0
O588 O 0.67252 0.77981 0.23296 0.0
O589 O 0.66926 0.73359 0.23171 0.0
O590 O 0.6315 0.69507 0.10106 0.0
O591 O 0.64384 0.67309 0.1873 0.0
H592 H 0.57683 0.68439 0.43913 0.0
H593 H 0.58495 0.7015 0.55526 0.0
H594 H 0.68201 0.7053 0.56689 0.0
H595 H 0.67404 0.68842 0.45011 0.0
H596 H 0.70066 0.76148 0.9864 0.0
H597 H 0.69631 0.74465 0.87064 0.0
H598 H 0.59679 0.73517 0.84741 0.0
H599 H 0.60081 0.75121 0.9632 0.0
La600 La 0.42239 0.5034 0.28315 0.0
La601 La 0.37837 0.47366 0.16411 0.0
C602 C 0.44979 0.52211 0.39862 0.0
C603 C 0.43827 0.51279 0.46429 0.0
C604 C 0.46064 0.51215 0.51281 0.0
C605 C 0.4504 0.50353 0.57527 0.0
C606 C 0.4174 0.49513 0.5907 0.0
C607 C 0.3948 0.4952 0.54153 0.0
C608 C 0.40516 0.50408 0.47913 0.0
C609 C 0.44623 0.47977 0.18785 0.0
C610 C 0.35745 0.43205 0.29205 0.0
C611 C 0.35135 0.44263 0.05268 0.0
C612 C 0.36072 0.45081 0.98518 0.0
C613 C 0.33592 0.44582 0.93562 0.0
C614 C 0.34459 0.45285 0.87158 0.0
C615 C 0.37829 0.46484 0.85538 0.0
C616 C 0.40298 0.46965 0.90538 0.0
C617 C 0.39439 0.46303 0.96927 0.0
C618 C 0.36146 0.51295 0.23339 0.0
C619 C 0.44008 0.55027 0.17526 0.0
O620 O 0.45099 0.49877 0.36123 0.0
O621 O 0.43705 0.53783 0.36632 0.0
O622 O 0.46453 0.50807 0.22379 0.0
O623 O 0.41697 0.46674 0.2069 0.0
O624 O 0.38496 0.45801 0.32186 0.0
O625 O 0.34881 0.4319 0.22884 0.0
O626 O 0.34124 0.46091 0.08492 0.0
O627 O 0.37224 0.43758 0.0895 0.0
O628 O 0.36428 0.51252 0.17138 0.0
O629 O 0.37031 0.49273 0.25581 0.0
O630 O 0.4238 0.52125 0.13672 0.0
O631 O 0.43621 0.54952 0.23784 0.0
H632 H 0.48617 0.51843 0.50244 0.0
H633 H 0.46833 0.50322 0.61146 0.0
H634 H 0.36928 0.48907 0.55164 0.0
H635 H 0.38727 0.50413 0.4425 0.0
H636 H 0.3098 0.43652 0.94644 0.0
H637 H 0.32488 0.44925 0.83502 0.0
H638 H 0.42904 0.47818 0.89525 0.0
H639 H 0.41425 0.46737 1.00616 0.0
La640 La 0.63111 0.92418 0.15245 0.0
La641 La 0.62251 0.95853 0.2608 0.0
C642 C 0.6408 0.90637 1.04121 0.0
C643 C 0.63999 0.91674 0.97431 0.0
C644 C 0.66988 0.94196 0.95033 0.0
C645 C 0.66943 0.95087 0.88653 0.0
C646 C 0.63919 0.93455 0.84489 0.0
C647 C 0.60923 0.90979 0.86929 0.0
C648 C 0.60963 0.90094 0.93305 0.0
C649 C 0.68191 0.94886 0.24968 0.0
C650 C 0.64293 0.99579 0.13233 0.0
C651 C 0.62353 0.983 0.37458 0.0
C652 C 0.62736 0.97556 0.44271 0.0
C653 C 0.59933 0.95054 0.47138 0.0
C654 C 0.60256 0.94435 0.53616 0.0
C655 C 0.63389 0.96301 0.57431 0.0
C656 C 0.66194 0.98825 0.5458 0.0
C657 C 0.65867 0.9945 0.48081 0.0
C658 C 0.56976 0.93746 0.17347 0.0
C659 C 0.60277 0.87881 0.25872 0.0
O660 O 0.6651 0.92883 0.08318 0.0
O661 O 0.61185 0.89035 0.06749 0.0
O662 O 0.66879 0.91932 0.21782 0.0
O663 O 0.66688 0.96321 0.22598 0.0
O664 O 0.63 0.9648 0.10592 0.0
O665 O 0.64657 1.00132 0.19711 0.0
O666 O 0.59576 0.96113 0.3389 0.0
O667 O 0.65018 0.9939 0.34139 0.0
O668 O 0.58572 0.96664 0.20692 0.0
O669 O 0.58444 0.92058 0.18843 0.0
O670 O 0.61476 0.90854 0.29439 0.0
O671 O 0.60124 0.87799 0.19521 0.0
H672 H 0.6938 0.95458 0.98057 0.0
H673 H 0.69298 0.96983 0.86919 0.0
H674 H 0.58535 0.89709 0.83893 0.0
H675 H 0.58615 0.88145 0.94975 0.0
H676 H 0.57466 0.93583 0.44403 0.0
H677 H 0.5802 0.92525 0.55668 0.0
H678 H 0.68652 1.003 0.57348 0.0
H679 H 0.68065 1.0143 0.46047 0.0
La680 La 0.1648 0.69372 0.2863 0.0
La681 La 0.17413 0.73232 0.17568 0.0
C682 C 0.16021 0.66965 0.39503 0.0
C683 C 0.16304 0.68205 0.46391 0.0
C684 C 0.17786 0.67159 0.5118 0.0
C685 C 0.181 0.68309 0.57734 0.0
C686 C 0.16948 0.70547 0.59641 0.0
C687 C 0.15454 0.71586 0.54815 0.0
C688 C 0.15123 0.70418 0.4827 0.0
C689 C 0.11436 0.66526 0.18842 0.0
C690 C 0.15216 0.75456 0.30787 0.0
C691 C 0.16779 0.75823 0.07413 0.0
C692 C 0.17588 0.75771 1.00615 0.0
C693 C 0.16569 0.77362 0.96127 0.0
C694 C 0.16738 0.76825 0.89454 0.0
C695 C 0.17928 0.7468 0.87151 0.0
C696 C 0.19087 0.73209 0.91708 0.0
C697 C 0.18909 0.73742 0.98379 0.0
C698 C 0.23306 0.75267 0.24327 0.0
C699 C 0.19165 0.67247 0.17267 0.0
O700 O 0.1341 0.66587 0.35804 0.0
O701 O 0.18833 0.68358 0.36558 0.0
O702 O 0.12661 0.64907 0.21887 0.0
O703 O 0.13038 0.69526 0.21337 0.0
O704 O 0.15534 0.73074 0.33404 0.0
O705 O 0.15789 0.76019 0.24561 0.0
O706 O 0.19312 0.77438 0.11924 0.0
O707 O 0.14513 0.72879 0.09095 0.0
O708 O 0.22709 0.74621 0.18073 0.0
O709 O 0.20496 0.74486 0.26736 0.0
O710 O 0.17771 0.68692 0.13723 0.0
O711 O 0.19637 0.67904 0.23611 0.0
H712 H 0.18691 0.65435 0.4985 0.0
H713 H 0.19205 0.67402 0.61316 0.0
H714 H 0.14566 0.73329 0.5608 0.0
H715 H 0.13935 0.71245 0.44707 0.0
H716 H 0.15519 0.78916 0.97762 0.0
H717 H 0.15869 0.78034 0.86088 0.0
H718 H 0.19982 0.71514 0.90109 0.0
H719 H 0.19661 0.72451 1.01769 0.0
C720 C 0.15568 0.41138 0.4081 0.0
C721 C 0.14981 0.40394 0.33944 0.0
H722 H 0.14532 0.39306 0.50323 0.0
C723 C 0.13037 0.36971 0.31557 0.0
H724 H 0.17074 0.43739 0.42888 0.0
C725 C 0.11579 0.34415 0.35878 0.0
C726 C 0.12007 0.35184 0.42747 0.0
H727 H 0.12484 0.36275 0.2636 0.0
H728 H 0.09998 0.31823 0.33775 0.0
C729 C 0.14108 0.38589 0.45131 0.0
C730 C 0.73731 0.7613 0.41111 0.0
C731 C 0.74961 0.79345 0.44488 0.0
H732 H 0.70904 0.72724 0.32648 0.0
C733 C 0.73967 0.81528 0.41792 0.0
H734 H 0.74349 0.74332 0.43075 0.0
C735 C 0.71865 0.80547 0.35871 0.0
C736 C 0.70697 0.77354 0.32432 0.0
H737 H 0.74832 0.84013 0.44242 0.0
H738 H 0.71158 0.82299 0.33976 0.0
C739 C 0.71691 0.75178 0.35148 0.0
C740 C 0.30211 0.95038 0.38553 0.0
C741 C 0.32279 0.98427 0.41234 0.0
H742 H 0.29344 0.9121 0.30879 0.0
C743 C 0.35156 1.00533 0.37994 0.0
H744 H 0.27877 0.93383 0.40683 0.0
C745 C 0.35956 0.99317 0.32324 0.0
C746 C 0.33919 0.95934 0.29634 0.0
H747 H 0.36718 1.03195 0.39691 0.0
H748 H 0.3814 1.01076 0.29927 0.0
C749 C 0.31023 0.93807 0.32848 0.0
C750 C 0.38409 0.13587 0.68489 0.0
C751 C 0.37285 0.1031 0.65473 0.0
H752 H 0.41418 0.17369 0.76426 0.0
C753 C 0.38426 0.08321 0.68529 0.0
H754 H 0.37598 0.15207 0.66325 0.0
C755 C 0.40547 0.09533 0.74437 0.0
C756 C 0.41726 0.12831 0.77397 0.0
H757 H 0.37636 0.05792 0.66406 0.0
H758 H 0.41285 0.07876 0.7668 0.0
C759 C 0.40595 0.14827 0.7433 0.0
C760 C 1.01445 0.33833 0.72559 0.0
C761 C 0.98349 0.31757 0.75251 0.0
H762 H 1.04791 0.34354 0.65097 0.0
C763 C 0.96236 0.28464 0.72141 0.0
H764 H 1.0316 0.36375 0.74783 0.0
C765 C 0.97185 0.27292 0.66575 0.0
C766 C 1.0029 0.29362 0.63904 0.0
H767 H 0.93829 0.2678 0.74012 0.0
H768 H 0.95485 0.24739 0.64381 0.0
C769 C 1.02394 0.32662 0.6699 0.0
C770 C 0.82357 0.71184 0.67912 0.0
C771 C 0.80039 0.7218 0.65595 0.0
H772 H 0.8348 0.68397 0.74842 0.0
C773 C 0.76938 0.70895 0.68515 0.0
H774 H 0.84818 0.722 0.65978 0.0
C775 C 0.76203 0.68789 0.73641 0.0
C776 C 0.78533 0.67856 0.76107 0.0
H777 H 0.75114 0.71653 0.6701 0.0
H778 H 0.73829 0.67976 0.75822 0.0
C779 C 0.81612 0.69051 0.73097 0.0
C780 C 0.97581 0.71479 0.69147 0.0
C781 C 1.00737 0.72417 0.66649 0.0
H782 H 0.94025 0.6872 0.76115 0.0
C783 C 1.02713 0.71148 0.69486 0.0
H784 H 0.96052 0.72517 0.67302 0.0
C785 C 1.01597 0.69043 0.74655 0.0
C786 C 0.98459 0.68125 0.77211 0.0
H787 H 1.05216 0.71921 0.67906 0.0
H788 H 1.03255 0.68214 0.76783 0.0
C789 C 0.96446 0.69344 0.74297 0.0
C790 C 0.38264 0.27551 0.68069 0.0
C791 C 0.37145 0.29552 0.64993 0.0
H792 H 0.41263 0.27168 0.76052 0.0
C793 C 0.38351 0.32864 0.67897 0.0
H794 H 0.37408 0.24993 0.66018 0.0
C795 C 0.40557 0.34112 0.73703 0.0
C796 C 0.41663 0.32105 0.76797 0.0
H797 H 0.37581 0.34504 0.65687 0.0
H798 H 0.41374 0.36651 0.75795 0.0
C799 C 0.40478 0.28802 0.73862 0.0
C800 C 0.81317 0.15002 0.75086 0.0
C801 C 0.7837 0.13053 0.78311 0.0
H802 H 0.84436 0.15082 0.67447 0.0
C803 C 0.76181 0.09663 0.75807 0.0
H804 H 0.83086 0.17608 0.769 0.0
C805 C 0.76917 0.08251 0.70341 0.0
C806 C 0.79868 0.10169 0.6715 0.0
H807 H 0.7393 0.08051 0.78205 0.0
H808 H 0.75241 0.05586 0.68777 0.0
C809 C 0.82063 0.13575 0.69588 0.0
C810 C 0.71801 0.9937 0.3425 0.0
C811 C 0.70529 0.96083 0.3118 0.0
H812 H 0.74717 1.02964 0.4245 0.0
C813 C 0.71463 0.93931 0.3421 0.0
H814 H 0.71216 1.01137 0.3203 0.0
C815 C 0.73547 0.95012 0.40153 0.0
C816 C 0.7477 0.98282 0.43271 0.0
H817 H 0.70569 0.91395 0.31996 0.0
H818 H 0.74205 0.93278 0.42307 0.0
C819 C 0.73852 1.00437 0.4022 0.0
C820 C 0.15042 0.8164 0.43811 0.0
C821 C 0.11957 0.79515 0.46514 0.0
H822 H 0.18486 0.82094 0.36544 0.0
C823 C 0.09836 0.76254 0.43347 0.0
H824 H 0.16757 0.84163 0.46119 0.0
C825 C 0.10775 0.75121 0.37782 0.0
C826 C 0.13887 0.77185 0.35155 0.0
H827 H 0.07478 0.74512 0.45303 0.0
H828 H 0.09135 0.72526 0.35729 0.0
C829 C 0.16005 0.80482 0.38226 0.0
C830 C 0.31879 0.36971 0.31165 0.0
C831 C 0.33734 0.40409 0.33489 0.0
H832 H 0.29344 0.31809 0.33528 0.0
C833 C 0.34119 0.41199 0.40335 0.0
H834 H 0.3154 0.36238 0.25988 0.0
C835 C 0.32892 0.38665 0.44718 0.0
C836 C 0.31216 0.35227 0.42424 0.0
H837 H 0.35499 0.43813 0.42363 0.0
H838 H 0.33379 0.39409 0.49902 0.0
C839 C 0.30645 0.34427 0.35557 0.0
C840 C 1.05943 0.4173 1.04003 0.0
C841 C 1.05211 0.43753 1.00076 0.0
H842 H 0.08379 0.41382 0.1285 0.0
C843 C 0.06583 0.47196 1.02313 0.0
H844 H 1.04806 0.39038 1.02616 0.0
C845 C 0.08652 0.48559 0.08294 0.0
C846 C 0.09377 0.46507 0.1219 0.0
H847 H 1.05923 0.48788 0.9961 0.0
H848 H 0.09628 0.51196 0.09921 0.0
C849 C 0.07961 0.43071 0.09944 0.0
C850 C 0.65712 0.64524 0.95763 0.0
C851 C 0.66949 0.62379 0.97441 0.0
H852 H 0.63874 0.67782 0.99072 0.0
C853 C 0.66933 0.61652 1.04043 0.0
H854 H 0.65713 0.65183 0.90801 0.0
C855 C 0.65951 0.63202 0.08887 0.0
C856 C 0.64902 0.65503 0.07272 0.0
H857 H 0.67821 0.59969 0.05542 0.0
H858 H 0.66109 0.62672 0.13903 0.0
C859 C 0.64698 0.66051 1.00591 0.0
C860 C 0.49416 0.08083 0.05934 0.0
C861 C 0.48427 0.07255 0.99138 0.0
H862 H 0.4879 0.06387 0.15621 0.0
C863 C 0.46312 1.03827 0.9699 0.0
H864 H 0.51085 0.107 0.07812 0.0
C865 C 0.45023 1.01363 1.015 0.0
C866 C 0.45781 1.02209 0.08341 0.0
H867 H 0.45469 1.03065 0.91869 0.0
H868 H 0.4328 0.98777 0.99585 0.0
C869 C 0.48115 0.05607 0.10466 0.0
C870 C 0.65944 1.03845 0.9722 0.0
C871 C 0.67611 0.07305 0.99334 0.0
H872 H 0.63588 0.98751 0.99867 0.0
C873 C 0.68014 0.0821 0.06147 0.0
H874 H 0.65591 1.03031 0.92078 0.0
C875 C 0.66892 0.05753 0.10687 0.0
C876 C 0.65304 1.02296 0.08581 0.0
H877 H 0.6928 0.10849 0.08038 0.0
H878 H 0.67332 0.06571 0.15839 0.0
C879 C 0.64805 1.01388 1.01758 0.0
C880 C 0.07879 0.67374 0.10247 0.0
C881 C 0.09246 0.65405 0.12483 0.0
H882 H 1.04843 0.68035 1.02831 0.0
C883 C 0.08551 0.62483 0.08505 0.0
H884 H 0.08274 0.69589 0.13218 0.0
C885 C 0.06556 0.61582 1.02457 0.0
C886 C 1.05248 0.63608 1.00212 0.0
H887 H 0.09482 0.60854 0.10129 0.0
H888 H 1.05893 0.59217 0.99707 0.0
C889 C 1.05954 0.66514 1.04214 0.0
C890 C 0.4351 0.43271 0.10302 0.0
C891 C 0.45526 0.467 0.12725 0.0
H892 H 0.42691 0.39295 1.03136 0.0
C893 C 0.48301 0.4881 0.09221 0.0
H894 H 0.41397 0.41541 0.12893 0.0
C895 C 0.49028 0.47507 1.03497 0.0
C896 C 0.4699 0.44064 1.01114 0.0
H897 H 0.49937 0.51455 0.10948 0.0
H898 H 0.51269 0.49155 1.01109 0.0
C899 C 0.44229 0.41983 0.04633 0.0
C900 C 0.13919 0.22978 0.53348 0.0
C901 C 0.1313 0.24899 0.49201 0.0
H902 H 0.17719 0.21801 0.56938 0.0
C903 C 0.15402 0.26544 0.4449 0.0
H904 H 0.12318 0.21797 0.57221 0.0
C905 C 0.18502 0.26545 0.44326 0.0
C906 C 0.19455 0.24906 0.48871 0.0
H907 H 0.14962 0.28153 0.41382 0.0
H908 H 0.2033 0.28158 0.41099 0.0
C909 C 0.17036 0.22978 0.5318 0.0
C910 C 0.88195 0.96776 0.5137 0.0
C911 C 0.85537 0.97014 0.48093 0.0
H912 H 0.90114 0.93584 0.54459 0.0
C913 C 0.82967 0.9407 0.44366 0.0
H914 H 0.90175 0.98944 0.54414 0.0
C915 C 0.82936 0.90937 0.44377 0.0
C916 C 0.85455 0.90666 0.48168 0.0
H917 H 0.80813 0.94105 0.41955 0.0
H918 H 0.80779 0.88676 0.41916 0.0
C919 C 0.88151 0.93676 0.51422 0.0
C920 C 0.1426 0.9396 0.52786 0.0
C921 C 0.13125 0.90775 0.493 0.0
H922 H 0.18383 0.99063 0.55406 0.0
C923 C 0.15285 0.90585 0.44846 0.0
H924 H 0.12706 0.94213 0.56337 0.0
C925 C 0.18584 0.93382 0.44383 0.0
C926 C 0.19805 0.96493 0.48212 0.0
H927 H 0.14561 0.88187 0.42165 0.0
H928 H 0.20289 0.93023 0.41385 0.0
C929 C 0.17526 0.96773 0.52219 0.0
C930 C 0.28971 0.17172 0.648 0.0
C931 C 0.26322 0.17376 0.61354 0.0
H932 H 0.312 0.14065 0.66907 0.0
C933 C 0.23542 0.14323 0.58433 0.0
H934 H 0.3121 0.19473 0.66922 0.0
C935 C 0.23531 0.11237 0.58441 0.0
C936 C 0.26304 0.11063 0.61357 0.0
H937 H 0.21497 0.14374 0.55597 0.0
H938 H 0.21481 0.09031 0.55597 0.0
C939 C 0.28963 0.14053 0.64799 0.0
C940 C 0.94426 0.11355 0.57451 0.0
C941 C 0.92094 0.11577 0.61386 0.0
H942 H 0.99275 0.14007 0.5348 0.0
C943 C 0.93252 0.14642 0.65327 0.0
H944 H 0.9361 0.09101 0.54179 0.0
C945 C 0.96536 0.17473 0.64979 0.0
C946 C 0.98738 0.17349 0.60559 0.0
H947 H 0.91498 0.14953 0.68258 0.0
H948 H 0.97204 0.19853 0.67677 0.0
C949 C 0.9768 0.14199 0.57012 0.0
C950 C 0.95288 0.80403 0.63139 0.0
C951 C 0.98331 0.82614 0.60399 0.0
H952 H 0.90072 0.78944 0.64446 0.0
C953 C 0.98491 0.85424 0.57588 0.0
H954 H 0.95036 0.78165 0.65207 0.0
C955 C 0.95606 0.85841 0.5706 0.0
C956 C 0.92481 0.83486 0.59376 0.0
H957 H 1.00734 0.87125 0.55263 0.0
H958 H 0.95749 0.87885 0.54404 0.0
C959 C 0.92422 0.80845 0.62692 0.0
C960 C 0.8594 0.59637 0.75838 0.0
C961 C 0.86393 0.57236 0.79111 0.0
H962 H 0.82655 0.617 0.7381 0.0
C963 C 0.83554 0.54663 0.81791 0.0
H964 H 0.88096 0.6172 0.73912 0.0
C965 C 0.80473 0.54674 0.81803 0.0
C966 C 0.80099 0.57239 0.79076 0.0
H967 H 0.83822 0.52819 0.84473 0.0
H968 H 0.78468 0.5283 0.84458 0.0
C969 C 0.82816 0.59632 0.75805 0.0
C970 C 0.55285 0.31053 0.83092 0.0
C971 C 0.52514 0.31263 0.80287 0.0
H972 H 0.57273 0.27867 0.85842 0.0
C973 C 0.49794 0.28285 0.76933 0.0
H974 H 0.57382 0.33254 0.85857 0.0
C975 C 0.4973 0.25141 0.76922 0.0
C976 C 0.52375 0.24905 0.80298 0.0
H977 H 0.47562 0.28308 0.74907 0.0
H978 H 0.47463 0.22855 0.7484 0.0
C979 C 0.55213 0.27941 0.83114 0.0
C980 C 0.80305 0.27968 0.8219 0.0
C981 C 0.79757 0.24795 0.79654 0.0
H982 H 0.83848 0.33268 0.84488 0.0
C983 C 0.82364 0.24759 0.76265 0.0
H984 H 0.78399 0.28103 0.84937 0.0
C985 C 0.85546 0.27769 0.76025 0.0
C986 C 0.8618 0.30888 0.79112 0.0
H987 H 0.82078 0.22363 0.74392 0.0
H988 H 0.87614 0.27582 0.74036 0.0
C989 C 0.83445 0.30951 0.81905 0.0
C990 C 0.96719 0.51018 0.97078 0.0
C991 C 0.94754 0.51505 0.92225 0.0
H992 H 0.98555 0.47813 1.0053 0.0
C993 C 0.92512 0.48674 0.87866 0.0
H994 H 0.98567 0.53158 1.00363 0.0
C995 C 0.92502 0.45566 0.87967 0.0
C996 C 0.94737 0.45207 0.92424 0.0
H997 H 0.91066 0.48978 0.83893 0.0
H998 H 0.91053 0.43596 0.84059 0.0
C999 C 0.96709 0.47928 0.97179 0.0
C1000 C 0.60697 0.48976 0.96408 0.0
C1001 C 0.59322 0.45696 0.93162 0.0
H1002 H 0.64716 0.54202 0.97282 0.0
C1003 C 0.61449 0.45121 0.89205 0.0
H1004 H 0.59114 0.49552 0.9936 0.0
C1005 C 0.64675 0.47819 0.8798 0.0
C1006 C 0.65915 0.5117 0.90737 0.0
H1007 H 0.6047 0.42682 0.86458 0.0
H1008 H 0.66046 0.47348 0.84305 0.0
C1009 C 0.63944 0.51662 0.95246 0.0
C1010 C 0.62654 0.15425 0.94986 0.0
C1011 C 0.65523 0.17364 0.9156 0.0
H1012 H 0.57567 0.14173 0.96925 0.0
C1013 C 0.65562 0.19959 0.88125 0.0
H1014 H 0.62498 0.13349 0.97551 0.0
C1015 C 0.62691 0.20395 0.87666 0.0
C1016 C 0.5971 0.1827 0.90669 0.0
H1017 H 0.6767 0.21435 0.85275 0.0
H1018 H 0.62707 0.22233 0.84538 0.0
C1019 C 0.59806 0.1589 0.94606 0.0
C1020 C 0.50805 0.89678 0.18977 0.0
C1021 C 0.53234 0.92349 0.15723 0.0
H1022 H 0.45811 0.87326 0.22442 0.0
C1023 C 0.52167 0.94341 0.12436 0.0
H1024 H 0.51546 0.8815 0.21702 0.0
C1025 C 0.48866 0.93861 0.12816 0.0
C1026 C 0.46545 0.91406 0.16606 0.0
H1027 H 0.53988 0.96468 0.09999 0.0
H1028 H 0.4825 0.95618 0.10634 0.0
C1029 C 0.47515 0.89226 0.19435 0.0
C1030 C 0.17132 0.61477 0.11141 0.0
C1031 C 0.19737 0.6444 0.14734 0.0
H1032 H 0.14957 0.56085 0.08831 0.0
C1033 C 0.2252 0.6429 0.17656 0.0
H1034 H 0.14932 0.61476 0.08882 0.0
C1035 C 0.22525 0.61221 0.17662 0.0
C1036 C 0.19754 0.58173 0.14718 0.0
H1037 H 0.24563 0.66499 0.20505 0.0
H1038 H 0.24577 0.61181 0.20494 0.0
C1039 C 0.17143 0.58372 0.11124 0.0
C1040 C 0.51022 0.6429 0.18615 0.0
C1041 C 0.53372 0.64158 0.14616 0.0
H1042 H 0.46199 0.61511 0.22602 0.0
C1043 C 0.52276 0.61142 0.10561 0.0
H1044 H 0.51796 0.66514 0.21947 0.0
C1045 C 0.49042 0.58252 0.10905 0.0
C1046 C 0.46843 0.58275 0.15435 0.0
H1047 H 0.54051 0.60914 0.07553 0.0
H1048 H 0.48414 0.55915 0.0809 0.0
C1049 C 0.47815 0.61388 0.19042 0.0
C1050 C 0.56912 0.78515 0.25993 0.0
C1051 C 0.59757 0.78411 0.28723 0.0
H1052 H 0.54808 0.81592 0.23148 0.0
C1053 C 0.62444 0.81432 0.32002 0.0
H1054 H 0.54838 0.76275 0.23279 0.0
C1055 C 0.62422 0.84527 0.31944 0.0
C1056 C 0.59724 0.84671 0.28569 0.0
H1057 H 0.64729 0.81487 0.33964 0.0
H1058 H 0.64678 0.86853 0.33906 0.0
C1059 C 0.56898 0.81585 0.25904 0.0
C1060 C 0.30207 0.84288 0.30294 0.0
C1061 C 0.32956 0.84519 0.27017 0.0
H1062 H 0.24935 0.81131 0.32127 0.0
C1063 C 0.32655 0.81497 0.24212 0.0
H1064 H 0.30331 0.86566 0.32429 0.0
C1065 C 0.29604 0.78397 0.2411 0.0
C1066 C 0.26728 0.78207 0.26757 0.0
H1067 H 0.347 0.81574 0.216 0.0
H1068 H 0.29399 0.7619 0.21416 0.0
C1069 C 0.27111 0.81162 0.30138 0.0
C1070 C 0.33039 0.5451 0.23454 0.0
C1071 C 0.33331 0.51789 0.25614 0.0
H1072 H 0.29763 0.56524 0.21304 0.0
C1073 C 0.30528 0.49214 0.28409 0.0
H1074 H 0.35123 0.56509 0.21201 0.0
C1075 C 0.27415 0.49222 0.28466 0.0
C1076 C 0.27053 0.51807 0.25738 0.0
H1077 H 0.30634 0.47043 0.29995 0.0
H1078 H 0.25216 0.47053 0.30082 0.0
C1079 C 0.29957 0.5452 0.23519 0.0
C1080 C 1.05553 0.30242 0.08413 0.0
C1081 C 1.04588 0.27093 0.10836 0.0
H1082 H 0.07224 0.33265 1.00335 0.0
C1083 C 1.04435 0.24485 0.06644 0.0
H1084 H 1.05714 0.3231 0.11531 0.0
C1085 C 1.05254 0.25012 1.00213 0.0
C1086 C 0.06283 0.28175 0.97793 0.0
H1087 H 1.03633 0.22009 0.08314 0.0
H1088 H 1.05048 0.22917 0.97118 0.0
C1089 C 0.06404 0.30782 1.01978 0.0
C1090 C 0.79124 0.77698 0.07859 0.0
C1091 C 0.82289 0.78748 0.11307 0.0
H1092 H 0.76461 0.77517 0.9885 0.0
C1093 C 0.85262 0.80447 0.08069 0.0
H1094 H 0.76781 0.76337 0.10183 0.0
C1095 C 0.85083 0.81146 1.01584 0.0
C1096 C 0.81922 0.80148 0.98157 0.0
H1097 H 0.87742 0.81325 0.10607 0.0
H1098 H 0.87435 0.82555 0.99316 0.0
C1099 C 0.78942 0.7838 1.01364 0.0
C1100 C 0.27378 0.04332 0.07322 0.0
C1101 C 0.305 0.05388 0.10943 0.0
H1102 H 0.24571 1.02743 0.97945 0.0
C1103 C 0.33246 0.05634 0.07667 0.0
H1104 H 0.25234 0.0418 0.09671 0.0
C1105 C 0.32869 0.04829 1.00932 0.0
C1106 C 0.29736 1.03751 0.97332 0.0
H1107 H 0.35673 0.06403 0.10322 0.0
H1108 H 0.35011 0.04992 0.98558 0.0
C1109 C 0.27 1.03518 1.00601 0.0
C1110 C 1.05056 0.82132 1.02132 0.0
C1111 C 0.07264 0.81159 0.99474 0.0
H1112 H 1.02499 0.82348 0.10415 0.0
C1113 C 0.08585 0.79577 1.03399 0.0
H1114 H 1.04044 0.83419 0.99315 0.0
C1115 C 0.07716 0.78987 0.09813 0.0
C1116 C 1.0549 0.79947 0.12434 0.0
H1117 H 0.10255 0.78753 1.01491 0.0
H1118 H 0.08741 0.77728 0.12683 0.0
C1119 C 1.04176 0.81528 0.08513 0.0
C1120 C 0.32385 0.26888 0.06836 0.0
C1121 C 0.30433 0.27401 0.11364 0.0
H1122 H 0.33576 0.26951 0.96917 0.0
C1123 C 0.28227 0.28544 0.09188 0.0
H1124 H 0.34079 0.25968 0.08302 0.0
C1125 C 0.27926 0.29088 1.02645 0.0
C1126 C 0.29832 0.28518 0.98103 0.0
H1127 H 0.26738 0.29038 0.12551 0.0
H1128 H 0.26213 0.29982 1.01152 0.0
C1129 C 0.32093 0.27445 1.00293 0.0
C1130 C 0.78931 1.01502 0.0863 0.0
C1131 C 0.81906 0.04337 0.11627 0.0
H1132 H 0.76277 0.98483 0.99734 0.0
C1133 C 0.84468 0.0642 0.0775 0.0
H1134 H 0.76923 0.99841 0.11508 0.0
C1135 C 0.84091 0.05661 1.01025 0.0
C1136 C 0.81148 1.02793 0.98026 0.0
H1137 H 0.86757 0.08663 0.09911 0.0
H1138 H 0.86102 0.07335 0.98168 0.0
C1139 C 0.78558 1.00733 1.01892 0.0
C1140 C 0.77268 0.63259 0.34573 0.0
C1141 C 0.75138 0.63382 0.29554 0.0
H1142 H 0.77966 0.62624 0.446 0.0
C1143 C 0.72096 0.63234 0.31116 0.0
H1144 H 0.79619 0.63344 0.33508 0.0
C1145 C 0.71182 0.62923 0.37538 0.0
C1146 C 0.73242 0.62662 0.42564 0.0
H1147 H 0.70426 0.63371 0.27362 0.0
H1148 H 0.68843 0.62877 0.38529 0.0
C1149 C 0.7632 0.6287 0.40968 0.0
C1150 C 0.52989 0.16407 0.41445 0.0
C1151 C 0.50297 0.13575 0.43889 0.0
H1152 H 0.54866 0.19334 0.33307 0.0
C1153 C 0.4734 0.11488 0.397 0.0
H1154 H 0.55323 0.18044 0.44491 0.0
C1155 C 0.47064 0.12241 0.33281 0.0
C1156 C 0.49744 0.15097 0.30848 0.0
H1157 H 0.4519 0.09316 0.41431 0.0
H1158 H 0.44709 0.10622 0.3028 0.0
C1159 C 0.5272 0.17153 0.35018 0.0
C1160 C 0.97082 0.34095 0.33786 0.0
C1161 C 0.96516 0.36103 0.29523 0.0
H1162 H 0.97791 0.33221 0.43689 0.0
C1163 C 0.96299 0.38884 0.32158 0.0
H1164 H 0.97213 0.31906 0.31915 0.0
C1165 C 0.9661 0.39624 0.38889 0.0
C1166 C 0.97153 0.37605 0.43152 0.0
H1167 H 0.95926 0.40518 0.29013 0.0
H1168 H 0.96478 0.41814 0.40754 0.0
C1169 C 0.97402 0.3484 0.40528 0.0
C1170 C 0.72318 0.1202 0.32616 0.0
C1171 C 0.74157 0.15384 0.3094 0.0
H1172 H 0.69988 0.0872 0.40111 0.0
C1173 C 0.75208 0.18035 0.35881 0.0
H1174 H 0.71448 0.09911 0.28938 0.0
C1175 C 0.74383 0.17356 0.4227 0.0
C1176 C 0.72473 0.14001 0.43936 0.0
H1177 H 0.76702 0.20655 0.34826 0.0
H1178 H 0.75264 0.19475 0.45925 0.0
C1179 C 0.71485 0.11337 0.39034 0.0
C1180 C 0.94419 0.62429 0.35042 0.0
C1181 C 0.96755 0.62592 0.30651 0.0
H1182 H 0.92915 0.61695 0.44762 0.0
C1183 C 0.99558 0.62317 0.33003 0.0
H1184 H 0.92213 0.62599 0.33381 0.0
C1185 C 0.99976 0.61823 0.39542 0.0
C1186 C 0.9759 0.61564 0.43909 0.0
H1187 H 1.0144 0.62495 0.29786 0.0
H1188 H 1.02183 0.61651 0.41173 0.0
C1189 C 0.94825 0.61915 0.41581 0.0
C1190 C 0.50829 0.40042 0.34021 0.0
C1191 C 0.48218 0.36887 0.31122 0.0
H1192 H 0.53173 0.43294 0.42801 0.0
C1193 C 0.45878 0.34569 0.35093 0.0
H1194 H 0.52629 0.41915 0.31096 0.0
C1195 C 0.46182 0.35371 0.41817 0.0
C1196 C 0.4884 0.385 0.44712 0.0
H1197 H 0.43857 0.32102 0.33034 0.0
H1198 H 0.44382 0.33513 0.44768 0.0
C1199 C 0.51141 0.40834 0.40731 0.0
C1200 C 0.37514 0.92857 0.64567 0.0
C1201 C 0.4072 0.95614 0.63494 0.0
H1202 H 0.34084 0.89942 0.71481 0.0
C1203 C 0.42946 0.97567 0.69006 0.0
H1204 H 0.3574 0.91228 0.60518 0.0
C1205 C 0.42003 0.96778 0.75343 0.0
C1206 C 0.38788 0.9404 0.76374 0.0
H1207 H 0.45409 0.99746 0.6845 0.0
H1208 H 0.43773 0.98354 0.79448 0.0
C1209 C 0.36558 0.92101 0.70889 0.0
C1210 C 0.17355 0.45389 0.73702 0.0
C1211 C 0.17298 0.47476 0.78917 0.0
H1212 H 0.17232 0.44488 0.6335 0.0
C1213 C 0.17188 0.50403 0.77481 0.0
H1214 H 0.17397 0.43093 0.74584 0.0
C1215 C 0.17061 0.51181 0.71047 0.0
C1216 C 0.17069 0.49075 0.65835 0.0
H1217 H 0.17223 0.52122 0.81342 0.0
H1218 H 0.16991 0.53463 0.70159 0.0
C1219 C 0.17252 0.46184 0.67247 0.0
C1220 C 0.61255 0.70368 0.74608 0.0
C1221 C 0.64364 0.72902 0.77845 0.0
H1222 H 0.58528 0.67588 0.65579 0.0
C1223 C 0.67195 0.74572 0.74201 0.0
H1224 H 0.59042 0.68979 0.77273 0.0
C1225 C 0.66901 0.73765 0.67472 0.0
C1226 C 0.63767 0.71277 0.64229 0.0
H1227 H 0.69621 0.76562 0.76518 0.0
H1228 H 0.69107 0.75143 0.64786 0.0
C1229 C 0.60959 0.69571 0.67895 0.0
C1230 C 0.36521 0.45319 0.73251 0.0
C1231 C 0.38792 0.4726 0.78715 0.0
H1232 H 0.35661 0.44477 0.62823 0.0
C1233 C 0.42025 0.49952 0.776 0.0
H1234 H 0.34031 0.43193 0.73865 0.0
C1235 C 0.42969 0.50656 0.71264 0.0
C1236 C 0.40705 0.48718 0.65818 0.0
H1237 H 0.43829 0.51563 0.81629 0.0
H1238 H 0.45467 0.5277 0.70635 0.0
C1239 C 0.37459 0.46048 0.66897 0.0
C1240 C 0.65716 0.97572 0.75791 0.0
C1241 C 0.63898 0.94224 0.77557 0.0
H1242 H 0.66956 1.00867 0.68097 0.0
C1243 C 0.62047 0.9158 0.72623 0.0
H1244 H 0.67157 0.99673 0.79469 0.0
C1245 C 0.61947 0.92257 0.66123 0.0
C1246 C 0.63684 0.95604 0.64351 0.0
H1247 H 0.6069 0.88966 0.73775 0.0
H1248 H 0.60511 0.90143 0.62471 0.0
C1249 C 0.65606 0.98255 0.69263 0.0
C1250 C 0.20171 0.72521 0.70753 0.0
C1251 C 0.17267 0.71752 0.66636 0.0
H1252 H 0.22686 0.74098 0.80397 0.0
C1253 C 0.14646 0.72087 0.6929 0.0
H1254 H 0.22269 0.72356 0.68861 0.0
C1255 C 0.14897 0.73107 0.759 0.0
C1256 C 0.17772 0.73811 0.80037 0.0
H1257 H 0.1235 0.71471 0.66301 0.0
H1258 H 0.12785 0.73241 0.77808 0.0
C1259 C 0.20417 0.7353 0.77369 0.0
loop_
_geom_bond_atom_site_label_1
_geom_bond_atom_site_label_2
_geom_bond_distance
_geom_bond_site_symmetry_2
_ccdc_geom_bond_type
La0 C2 2.928 . S
La0 O20 2.521 . S
La0 O21 2.613 1_455 S
La0 O22 2.554 . S
La0 O23 2.757 . S
La0 O24 2.470 1_455 S
La0 O29 2.482 1_455 S
La0 O31 2.503 . S
La1 C11 2.928 . S
La1 O23 2.482 1_655 S
La1 O25 2.503 . S
La1 O26 2.521 . S
La1 O27 2.628 1_655 S
La1 O28 2.554 . S
La1 O29 2.757 . S
La1 O30 2.470 1_655 S
C2 La0 2.928 . S
C2 C3 1.503 . S
C2 O20 1.261 . S
C2 O21 1.219 1_455 S
C3 C2 1.503 . S
C3 C4 1.394 . S
C3 C8 1.373 1_455 S
C4 C3 1.394 . S
C4 C5 1.380 . S
C4 H32 0.930 . S
C5 C4 1.380 . S
C5 C6 1.376 . S
C5 H33 0.930 . S
C6 C5 1.376 . S
C6 C7 1.370 1_455 S
C7 C6 1.370 1_655 S
C7 C8 1.396 . S
C7 H34 0.929 . S
C8 C3 1.373 1_655 S
C8 C7 1.396 . S
C8 H35 0.929 . S
C9 O22 1.240 . S
C9 O23 1.289 . S
C10 O24 1.258 . S
C10 O25 1.256 . S
C11 La1 2.928 . S
C11 C12 1.503 . S
C11 O26 1.261 . S
C11 O27 1.243 1_655 S
C12 C11 1.503 . S
C12 C13 1.394 . S
C12 C17 1.373 1_655 S
C13 C12 1.394 . S
C13 C14 1.380 . S
C13 H36 0.930 . S
C14 C13 1.380 . S
C14 C15 1.369 1_655 S
C14 H37 0.930 . S
C15 C14 1.369 1_455 S
C15 C16 1.377 . S
C16 C15 1.377 . S
C16 C17 1.396 . S
C16 H38 0.929 . S
C17 C12 1.373 1_455 S
C17 C16 1.396 . S
C17 H39 0.929 . S
C18 O28 1.240 . S
C18 O29 1.289 . S
C19 O30 1.258 . S
C19 O31 1.256 . S
O20 La0 2.521 . S
O20 C2 1.261 . S
O21 La0 2.613 1_655 S
O21 C2 1.219 1_655 S
O22 La0 2.554 . S
O22 C9 1.240 . S
O23 La0 2.757 . S
O23 La1 2.482 1_455 S
O23 C9 1.289 . S
O24 La0 2.470 1_655 S
O24 C10 1.258 . S
O25 La1 2.503 . S
O25 C10 1.256 . S
O26 La1 2.521 . S
O26 C11 1.261 . S
O27 La1 2.628 1_455 S
O27 C11 1.243 1_455 S
O28 La1 2.554 . S
O28 C18 1.240 . S
O29 La0 2.482 1_655 S
O29 La1 2.757 . S
O29 C18 1.289 . S
O30 La1 2.470 1_455 S
O30 C19 1.258 . S
O31 La0 2.503 . S
O31 C19 1.256 . S
H32 C4 0.930 . S
H33 C5 0.930 . S
H34 C7 0.929 . S
H35 C8 0.929 . S
H36 C13 0.930 . S
H37 C14 0.930 . S
H38 C16 0.929 . S
H39 C17 0.929 . S
La40 C42 2.928 . S
La40 O60 2.521 . S
La40 O61 2.628 . S
La40 O62 2.554 . S
La40 O63 2.757 . S
La40 O64 2.470 . S
La40 O69 2.482 . S
La40 O71 2.503 . S
La41 C51 2.928 . S
La41 O63 2.482 . S
La41 O65 2.503 . S
La41 O66 2.521 . S
La41 O67 2.628 . S
La41 O68 2.554 . S
La41 O69 2.757 . S
La41 O70 2.470 . S
C42 La40 2.928 . S
C42 C43 1.503 . S
C42 O60 1.261 . S
C42 O61 1.243 . S
C43 C42 1.503 . S
C43 C44 1.394 . S
C43 C48 1.373 . S
C44 C43 1.394 . S
C44 C45 1.380 . S
C44 H72 0.930 . S
C45 C44 1.380 . S
C45 C46 1.376 . S
C45 H73 0.930 . S
C46 C45 1.376 . S
C46 C47 1.370 . S
C47 C46 1.370 . S
C47 C48 1.396 . S
C47 H74 0.929 . S
C48 C43 1.373 . S
C48 C47 1.396 . S
C48 H75 0.929 . S
C49 O62 1.240 . S
C49 O63 1.289 . S
C50 O64 1.258 . S
C50 O65 1.256 . S
C51 La41 2.928 . S
C51 C52 1.503 . S
C51 O66 1.261 . S
C51 O67 1.243 . S
C52 C51 1.503 . S
C52 C53 1.394 . S
C52 C57 1.373 . S
C53 C52 1.394 . S
C53 C54 1.380 . S
C53 H76 0.930 . S
C54 C53 1.380 . S
C54 C55 1.376 . S
C54 H77 0.930 . S
C55 C54 1.376 . S
C55 C56 1.370 . S
C56 C55 1.370 . S
C56 C57 1.396 . S
C56 H78 0.929 . S
C57 C52 1.373 . S
C57 C56 1.396 . S
C57 H79 0.929 . S
C58 O68 1.240 . S
C58 O69 1.289 . S
C59 O70 1.258 . S
C59 O71 1.256 . S
O60 La40 2.521 . S
O60 C42 1.261 . S
O61 La40 2.628 . S
O61 C42 1.243 . S
O62 La40 2.554 . S
O62 C49 1.240 . S
O63 La40 2.757 . S
O63 La41 2.482 . S
O63 C49 1.289 . S
O64 La40 2.470 . S
O64 C50 1.258 . S
O65 La41 2.503 . S
O65 C50 1.256 . S
O66 La41 2.521 . S
O66 C51 1.261 . S
O67 La41 2.628 . S
O67 C51 1.243 . S
O68 La41 2.554 . S
O68 C58 1.240 . S
O69 La40 2.482 . S
O69 La41 2.757 . S
O69 C58 1.289 . S
O70 La41 2.470 . S
O70 C59 1.258 . S
O71 La40 2.503 . S
O71 C59 1.256 . S
H72 C44 0.930 . S
H73 C45 0.930 . S
H74 C47 0.929 . S
H75 C48 0.929 . S
H76 C53 0.930 . S
H77 C54 0.930 . S
H78 C56 0.929 . S
H79 C57 0.929 . S
La80 C82 2.928 . S
La80 O100 2.521 . S
La80 O101 2.628 1_565 S
La80 O102 2.554 . S
La80 O103 2.757 . S
La80 O104 2.470 1_565 S
La80 O109 2.482 1_565 S
La80 O111 2.503 . S
La81 C91 2.928 . S
La81 O103 2.482 1_545 S
La81 O105 2.503 . S
La81 O106 2.521 . S
La81 O107 2.628 1_545 S
La81 O108 2.554 . S
La81 O109 2.757 . S
La81 O110 2.470 1_545 S
C82 La80 2.928 . S
C82 C83 1.503 1_565 S
C82 O100 1.261 . S
C82 O101 1.243 1_565 S
C83 C82 1.503 1_545 S
C83 C84 1.394 1_545 S
C83 C88 1.373 . S
C84 C83 1.394 1_565 S
C84 C85 1.380 . S
C84 H112 0.930 . S
C85 C84 1.380 . S
C85 C86 1.376 1_565 S
C85 H113 0.930 . S
C86 C85 1.376 1_545 S
C86 C87 1.370 . S
C87 C86 1.370 . S
C87 C88 1.396 . S
C87 H114 0.929 . S
C88 C83 1.373 . S
C88 C87 1.396 . S
C88 H115 0.929 . S
C89 O102 1.240 . S
C89 O103 1.289 . S
C90 O104 1.258 . S
C90 O105 1.256 . S
C91 La81 2.928 . S
C91 C92 1.503 . S
C91 O106 1.261 . S
C91 O107 1.243 1_545 S
C92 C91 1.503 . S
C92 C93 1.394 . S
C92 C97 1.373 1_545 S
C93 C92 1.394 . S
C93 C94 1.380 . S
C93 H116 0.930 . S
C94 C93 1.380 . S
C94 C95 1.376 1_545 S
C94 H117 0.930 . S
C95 C94 1.376 1_565 S
C95 C96 1.370 . S
C96 C95 1.370 . S
C96 C97 1.396 . S
C96 H118 0.929 . S
C97 C92 1.373 1_565 S
C97 C96 1.396 . S
C97 H119 0.929 . S
C98 O108 1.240 . S
C98 O109 1.289 . S
C99 O110 1.258 . S
C99 O111 1.256 . S
O100 La80 2.521 . S
O100 C82 1.261 . S
O101 La80 2.628 1_545 S
O101 C82 1.243 1_545 S
O102 La80 2.554 . S
O102 C89 1.240 . S
O103 La80 2.757 . S
O103 La81 2.482 1_565 S
O103 C89 1.289 . S
O104 La80 2.470 1_545 S
O104 C90 1.258 . S
O105 La81 2.503 . S
O105 C90 1.256 . S
O106 La81 2.521 . S
O106 C91 1.261 . S
O107 La81 2.628 1_565 S
O107 C91 1.243 1_565 S
O108 La81 2.554 . S
O108 C98 1.240 . S
O109 La80 2.482 1_545 S
O109 La81 2.757 . S
O109 C98 1.289 . S
O110 La81 2.470 1_565 S
O110 C99 1.258 . S
O111 La80 2.503 . S
O111 C99 1.256 . S
H112 C84 0.930 . S
H113 C85 0.930 . S
H114 C87 0.929 . S
H115 C88 0.929 . S
H116 C93 0.930 . S
H117 C94 0.930 . S
H118 C96 0.929 . S
H119 C97 0.929 . S
La120 C122 2.928 . S
La120 O140 2.521 . S
La120 O141 2.628 1_455 S
La120 O142 2.554 . S
La120 O143 2.757 . S
La120 O144 2.470 1_455 S
La120 O149 2.482 1_455 S
La120 O151 2.503 . S
La121 C131 2.928 . S
La121 O143 2.482 1_655 S
La121 O145 2.503 . S
La121 O146 2.521 . S
La121 O147 2.628 1_655 S
La121 O148 2.554 . S
La121 O149 2.757 . S
La121 O150 2.470 1_655 S
C122 La120 2.928 . S
C122 C123 1.503 . S
C122 O140 1.261 . S
C122 O141 1.243 1_455 S
C123 C122 1.503 . S
C123 C124 1.394 . S
C123 C128 1.373 1_455 S
C124 C123 1.394 . S
C124 C125 1.380 . S
C124 H152 0.930 . S
C125 C124 1.380 . S
C125 C126 1.376 . S
C125 H153 0.930 . S
C126 C125 1.376 . S
C126 C127 1.370 1_455 S
C127 C126 1.370 1_655 S
C127 C128 1.396 . S
C127 H154 0.929 . S
C128 C123 1.373 1_655 S
C128 C127 1.396 . S
C128 H155 0.929 . S
C129 O142 1.240 . S
C129 O143 1.289 . S
C130 O144 1.258 . S
C130 O145 1.256 . S
C131 La121 2.928 . S
C131 C132 1.503 . S
C131 O146 1.261 . S
C131 O147 1.243 1_655 S
C132 C131 1.503 . S
C132 C133 1.394 . S
C132 C137 1.373 1_655 S
C133 C132 1.394 . S
C133 C134 1.380 . S
C133 H156 0.930 . S
C134 C133 1.380 . S
C134 C135 1.376 . S
C134 H157 0.930 . S
C135 C134 1.376 . S
C135 C136 1.370 1_655 S
C136 C135 1.370 1_455 S
C136 C137 1.396 . S
C136 H158 0.929 . S
C137 C132 1.373 1_455 S
C137 C136 1.396 . S
C137 H159 0.929 . S
C138 O148 1.240 . S
C138 O149 1.289 . S
C139 O150 1.258 . S
C139 O151 1.256 . S
O140 La120 2.521 . S
O140 C122 1.261 . S
O141 La120 2.628 1_655 S
O141 C122 1.243 1_655 S
O142 La120 2.554 . S
O142 C129 1.240 . S
O143 La120 2.757 . S
O143 La121 2.482 1_455 S
O143 C129 1.289 . S
O144 La120 2.470 1_655 S
O144 C130 1.258 . S
O145 La121 2.503 . S
O145 C130 1.256 . S
O146 La121 2.521 . S
O146 C131 1.261 . S
O147 La121 2.628 1_455 S
O147 C131 1.243 1_455 S
O148 La121 2.554 . S
O148 C138 1.240 . S
O149 La120 2.482 1_655 S
O149 La121 2.757 . S
O149 C138 1.289 . S
O150 La121 2.470 1_455 S
O150 C139 1.258 . S
O151 La120 2.503 . S
O151 C139 1.256 . S
H152 C124 0.930 . S
H153 C125 0.930 . S
H154 C127 0.929 . S
H155 C128 0.929 . S
H156 C133 0.930 . S
H157 C134 0.930 . S
H158 C136 0.929 . S
H159 C137 0.929 . S
La160 C162 2.928 . S
La160 O180 2.521 . S
La160 O181 2.628 . S
La160 O182 2.554 . S
La160 O183 2.757 . S
La160 O184 2.470 . S
La160 O189 2.482 . S
La160 O191 2.503 . S
La161 C171 2.928 . S
La161 O183 2.482 . S
La161 O185 2.503 . S
La161 O186 2.521 . S
La161 O187 2.628 . S
La161 O188 2.554 . S
La161 O189 2.757 . S
La161 O190 2.470 . S
C162 La160 2.928 . S
C162 C163 1.503 . S
C162 O180 1.261 . S
C162 O181 1.243 . S
C163 C162 1.503 . S
C163 C164 1.394 . S
C163 C168 1.373 . S
C164 C163 1.394 . S
C164 C165 1.380 . S
C164 H192 0.930 . S
C165 C164 1.380 . S
C165 C166 1.376 . S
C165 H193 0.930 . S
C166 C165 1.376 . S
C166 C167 1.370 . S
C167 C166 1.370 . S
C167 C168 1.396 . S
C167 H194 0.929 . S
C168 C163 1.373 . S
C168 C167 1.396 . S
C168 H195 0.929 . S
C169 O182 1.240 . S
C169 O183 1.289 . S
C170 O184 1.258 . S
C170 O185 1.256 . S
C171 La161 2.928 . S
C171 C172 1.503 . S
C171 O186 1.261 . S
C171 O187 1.243 . S
C172 C171 1.503 . S
C172 C173 1.394 . S
C172 C177 1.373 . S
C173 C172 1.394 . S
C173 C174 1.380 . S
C173 H196 0.930 . S
C174 C173 1.380 . S
C174 C175 1.376 . S
C174 H197 0.930 . S
C175 C174 1.376 . S
C175 C176 1.370 . S
C176 C175 1.370 . S
C176 C177 1.396 . S
C176 H198 0.929 . S
C177 C172 1.373 . S
C177 C176 1.396 . S
C177 H199 0.929 . S
C178 O188 1.240 . S
C178 O189 1.289 . S
C179 O190 1.258 . S
C179 O191 1.256 . S
O180 La160 2.521 . S
O180 C162 1.261 . S
O181 La160 2.628 . S
O181 C162 1.243 . S
O182 La160 2.554 . S
O182 C169 1.240 . S
O183 La160 2.757 . S
O183 La161 2.482 . S
O183 C169 1.289 . S
O184 La160 2.470 . S
O184 C170 1.258 . S
O185 La161 2.503 . S
O185 C170 1.256 . S
O186 La161 2.521 . S
O186 C171 1.261 . S
O187 La161 2.628 . S
O187 C171 1.243 . S
O188 La161 2.554 . S
O188 C178 1.240 . S
O189 La160 2.482 . S
O189 La161 2.757 . S
O189 C178 1.289 . S
O190 La161 2.470 . S
O190 C179 1.258 . S
O191 La160 2.503 . S
O191 C179 1.256 . S
H192 C164 0.930 . S
H193 C165 0.930 . S
H194 C167 0.929 . S
H195 C168 0.929 . S
H196 C173 0.930 . S
H197 C174 0.930 . S
H198 C176 0.929 . S
H199 C177 0.929 . S
La200 C202 2.928 . S
La200 O220 2.521 . S
La200 O221 2.628 1_565 S
La200 O222 2.554 . S
La200 O223 2.757 . S
La200 O224 2.470 1_565 S
La200 O229 2.482 1_565 S
La200 O231 2.503 . S
La201 C211 2.928 . S
La201 O223 2.482 1_545 S
La201 O225 2.503 . S
La201 O226 2.521 . S
La201 O227 2.628 1_545 S
La201 O228 2.554 . S
La201 O229 2.757 . S
La201 O230 2.470 1_545 S
C202 La200 2.928 . S
C202 C203 1.503 1_565 S
C202 O220 1.261 . S
C202 O221 1.243 1_565 S
C203 C202 1.503 1_545 S
C203 C204 1.394 1_545 S
C203 C208 1.373 . S
C204 C203 1.394 1_565 S
C204 C205 1.380 . S
C204 H232 0.930 . S
C205 C204 1.380 . S
C205 C206 1.376 1_565 S
C205 H233 0.930 . S
C206 C205 1.376 1_545 S
C206 C207 1.370 . S
C207 C206 1.370 . S
C207 C208 1.396 . S
C207 H234 0.929 . S
C208 C203 1.373 . S
C208 C207 1.396 . S
C208 H235 0.929 . S
C209 O222 1.240 . S
C209 O223 1.289 . S
C210 O224 1.258 . S
C210 O225 1.256 . S
C211 La201 2.928 . S
C211 C212 1.503 . S
C211 O226 1.261 . S
C211 O227 1.243 1_545 S
C212 C211 1.503 . S
C212 C213 1.394 . S
C212 C217 1.373 1_545 S
C213 C212 1.394 . S
C213 C214 1.380 . S
C213 H236 0.930 . S
C214 C213 1.380 . S
C214 C215 1.376 1_545 S
C214 H237 0.930 . S
C215 C214 1.376 1_565 S
C215 C216 1.370 . S
C216 C215 1.370 . S
C216 C217 1.396 . S
C216 H238 0.929 . S
C217 C212 1.373 1_565 S
C217 C216 1.396 . S
C217 H239 0.929 . S
C218 O228 1.240 . S
C218 O229 1.289 . S
C219 O230 1.258 . S
C219 O231 1.256 . S
O220 La200 2.521 . S
O220 C202 1.261 . S
O221 La200 2.628 1_545 S
O221 C202 1.243 1_545 S
O222 La200 2.554 . S
O222 C209 1.240 . S
O223 La200 2.757 . S
O223 La201 2.482 1_565 S
O223 C209 1.289 . S
O224 La200 2.470 1_545 S
O224 C210 1.258 . S
O225 La201 2.503 . S
O225 C210 1.256 . S
O226 La201 2.521 . S
O226 C211 1.261 . S
O227 La201 2.628 1_565 S
O227 C211 1.243 1_565 S
O228 La201 2.554 . S
O228 C218 1.240 . S
O229 La200 2.482 1_545 S
O229 La201 2.757 . S
O229 C218 1.289 . S
O230 La201 2.470 1_565 S
O230 C219 1.258 . S
O231 La200 2.503 . S
O231 C219 1.256 . S
H232 C204 0.930 . S
H233 C205 0.930 . S
H234 C207 0.929 . S
H235 C208 0.929 . S
H236 C213 0.930 . S
H237 C214 0.930 . S
H238 C216 0.929 . S
H239 C217 0.929 . S
La240 C242 2.928 . S
La240 O260 2.521 . S
La240 O261 2.628 . S
La240 O262 2.554 . S
La240 O263 2.757 . S
La240 O264 2.470 . S
La240 O269 2.482 . S
La240 O271 2.503 . S
La241 C251 2.924 1_556 S
La241 O263 2.482 . S
La241 O265 2.503 . S
La241 O266 2.521 . S
La241 O267 2.628 . S
La241 O268 2.554 . S
La241 O269 2.757 . S
La241 O270 2.470 . S
C242 La240 2.928 . S
C242 C243 1.503 . S
C242 O260 1.261 . S
C242 O261 1.243 . S
C243 C242 1.503 . S
C243 C244 1.394 . S
C243 C248 1.373 . S
C244 C243 1.394 . S
C244 C245 1.380 . S
C244 H272 0.930 . S
C245 C244 1.380 . S
C245 C246 1.376 . S
C245 H273 0.930 . S
C246 C245 1.376 . S
C246 C247 1.370 . S
C247 C246 1.370 . S
C247 C248 1.396 . S
C247 H274 0.929 . S
C248 C243 1.373 . S
C248 C247 1.396 . S
C248 H275 0.929 . S
C249 O262 1.240 . S
C249 O263 1.289 . S
C250 O264 1.258 . S
C250 O265 1.256 . S
C251 La241 2.924 1_554 S
C251 C252 1.507 . S
C251 O266 1.259 1_554 S
C251 O267 1.241 1_554 S
C252 C251 1.507 . S
C252 C253 1.394 . S
C252 C257 1.373 . S
C253 C252 1.394 . S
C253 C254 1.380 . S
C253 H276 0.930 . S
C254 C253 1.380 . S
C254 C255 1.376 . S
C254 H277 0.930 . S
C255 C254 1.376 . S
C255 C256 1.370 . S
C256 C255 1.370 . S
C256 C257 1.396 . S
C256 H278 0.929 . S
C257 C252 1.373 . S
C257 C256 1.396 . S
C257 H279 0.929 . S
C258 O268 1.240 . S
C258 O269 1.289 . S
C259 O270 1.258 . S
C259 O271 1.256 . S
O260 La240 2.521 . S
O260 C242 1.261 . S
O261 La240 2.628 . S
O261 C242 1.243 . S
O262 La240 2.554 . S
O262 C249 1.240 . S
O263 La240 2.757 . S
O263 La241 2.482 . S
O263 C249 1.289 . S
O264 La240 2.470 . S
O264 C250 1.258 . S
O265 La241 2.503 . S
O265 C250 1.256 . S
O266 La241 2.521 . S
O266 C251 1.259 1_556 S
O267 La241 2.628 . S
O267 C251 1.241 1_556 S
O268 La241 2.554 . S
O268 C258 1.240 . S
O269 La240 2.482 . S
O269 La241 2.757 . S
O269 C258 1.289 . S
O270 La241 2.470 . S
O270 C259 1.258 . S
O271 La240 2.503 . S
O271 C259 1.256 . S
H272 C244 0.930 . S
H273 C245 0.930 . S
H274 C247 0.929 . S
H275 C248 0.929 . S
H276 C253 0.930 . S
H277 C254 0.930 . S
H278 C256 0.929 . S
H279 C257 0.929 . S
La280 C282 2.928 . S
La280 O300 2.521 . S
La280 O301 2.628 . S
La280 O302 2.554 . S
La280 O303 2.757 . S
La280 O304 2.470 . S
La280 O309 2.482 . S
La280 O311 2.503 . S
La281 C291 2.928 . S
La281 O303 2.482 . S
La281 O305 2.503 . S
La281 O306 2.521 . S
La281 O307 2.628 . S
La281 O308 2.554 . S
La281 O309 2.757 . S
La281 O310 2.470 . S
C282 La280 2.928 . S
C282 C283 1.503 . S
C282 O300 1.261 . S
C282 O301 1.243 . S
C283 C282 1.503 . S
C283 C284 1.394 . S
C283 C288 1.373 . S
C284 C283 1.394 . S
C284 C285 1.380 . S
C284 H312 0.930 . S
C285 C284 1.380 . S
C285 C286 1.376 . S
C285 H313 0.930 . S
C286 C285 1.376 . S
C286 C287 1.370 . S
C287 C286 1.370 . S
C287 C288 1.396 . S
C287 H314 0.929 . S
C288 C283 1.373 . S
C288 C287 1.396 . S
C288 H315 0.929 . S
C289 O302 1.240 . S
C289 O303 1.289 . S
C290 O304 1.258 . S
C290 O305 1.256 . S
C291 La281 2.928 . S
C291 C292 1.503 1_556 S
C291 O306 1.261 . S
C291 O307 1.243 . S
C292 C291 1.503 1_554 S
C292 C293 1.394 . S
C292 C297 1.373 . S
C293 C292 1.394 . S
C293 C294 1.380 . S
C293 H316 0.930 . S
C294 C293 1.380 . S
C294 C295 1.376 . S
C294 H317 0.930 . S
C295 C294 1.376 . S
C295 C296 1.370 . S
C296 C295 1.370 . S
C296 C297 1.396 . S
C296 H318 0.929 . S
C297 C292 1.373 . S
C297 C296 1.396 . S
C297 H319 0.929 . S
C298 O308 1.240 . S
C298 O309 1.289 . S
C299 O310 1.258 . S
C299 O311 1.256 . S
O300 La280 2.521 . S
O300 C282 1.261 . S
O301 La280 2.628 . S
O301 C282 1.243 . S
O302 La280 2.554 . S
O302 C289 1.240 . S
O303 La280 2.757 . S
O303 La281 2.482 . S
O303 C289 1.289 . S
O304 La280 2.470 . S
O304 C290 1.258 . S
O305 La281 2.503 . S
O305 C290 1.256 . S
O306 La281 2.521 . S
O306 C291 1.261 . S
O307 La281 2.628 . S
O307 C291 1.243 . S
O308 La281 2.554 . S
O308 C298 1.240 . S
O309 La280 2.482 . S
O309 La281 2.757 . S
O309 C298 1.289 . S
O310 La281 2.470 . S
O310 C299 1.258 . S
O311 La280 2.503 . S
O311 C299 1.256 . S
H312 C284 0.930 . S
H313 C285 0.930 . S
H314 C287 0.929 . S
H315 C288 0.929 . S
H316 C293 0.930 . S
H317 C294 0.930 . S
H318 C296 0.929 . S
H319 C297 0.929 . S
La320 C322 2.928 . S
La320 O340 2.521 . S
La320 O341 2.628 . S
La320 O342 2.554 . S
La320 O343 2.757 . S
La320 O344 2.470 . S
La320 O349 2.482 . S
La320 O351 2.503 . S
La321 C331 2.928 . S
La321 O343 2.482 . S
La321 O345 2.503 . S
La321 O346 2.521 . S
La321 O347 2.628 . S
La321 O348 2.554 . S
La321 O349 2.757 . S
La321 O350 2.470 . S
C322 La320 2.928 . S
C322 C323 1.503 . S
C322 O340 1.261 . S
C322 O341 1.243 . S
C323 C322 1.503 . S
C323 C324 1.394 . S
C323 C328 1.373 . S
C324 C323 1.394 . S
C324 C325 1.380 . S
C324 H352 0.930 . S
C325 C324 1.380 . S
C325 C326 1.376 . S
C325 H353 0.930 . S
C326 C325 1.376 . S
C326 C327 1.370 . S
C327 C326 1.370 . S
C327 C328 1.396 . S
C327 H354 0.929 . S
C328 C323 1.373 . S
C328 C327 1.396 . S
C328 H355 0.929 . S
C329 O342 1.240 . S
C329 O343 1.289 . S
C330 O344 1.258 . S
C330 O345 1.256 . S
C331 La321 2.928 . S
C331 C332 1.503 1_556 S
C331 O346 1.261 . S
C331 O347 1.243 . S
C332 C331 1.503 1_554 S
C332 C333 1.394 . S
C332 C337 1.373 . S
C333 C332 1.394 . S
C333 C334 1.380 . S
C333 H356 0.930 . S
C334 C333 1.380 . S
C334 C335 1.376 . S
C334 H357 0.930 . S
C335 C334 1.376 . S
C335 C336 1.370 . S
C336 C335 1.370 . S
C336 C337 1.396 . S
C336 H358 0.929 . S
C337 C332 1.373 . S
C337 C336 1.396 . S
C337 H359 0.929 . S
C338 O348 1.240 . S
C338 O349 1.289 . S
C339 O350 1.258 . S
C339 O351 1.256 . S
O340 La320 2.521 . S
O340 C322 1.261 . S
O341 La320 2.628 . S
O341 C322 1.243 . S
O342 La320 2.554 . S
O342 C329 1.240 . S
O343 La320 2.757 . S
O343 La321 2.482 . S
O343 C329 1.289 . S
O344 La320 2.470 . S
O344 C330 1.258 . S
O345 La321 2.503 . S
O345 C330 1.256 . S
O346 La321 2.521 . S
O346 C331 1.261 . S
O347 La321 2.628 . S
O347 C331 1.243 . S
O348 La321 2.554 . S
O348 C338 1.240 . S
O349 La320 2.482 . S
O349 La321 2.757 . S
O349 C338 1.289 . S
O350 La321 2.470 . S
O350 C339 1.258 . S
O351 La320 2.503 . S
O351 C339 1.256 . S
H352 C324 0.930 . S
H353 C325 0.930 . S
H354 C327 0.929 . S
H355 C328 0.929 . S
H356 C333 0.930 . S
H357 C334 0.930 . S
H358 C336 0.929 . S
H359 C337 0.929 . S
La360 C362 2.928 1_556 S
La360 O380 2.521 . S
La360 O381 2.628 . S
La360 O382 2.554 . S
La360 O383 2.757 . S
La360 O384 2.470 . S
La360 O389 2.482 . S
La360 O391 2.503 . S
La361 C371 2.928 . S
La361 O383 2.482 . S
La361 O385 2.503 . S
La361 O386 2.521 . S
La361 O387 2.628 . S
La361 O388 2.554 . S
La361 O389 2.757 . S
La361 O390 2.470 . S
C362 La360 2.928 1_554 S
C362 C363 1.503 . S
C362 O380 1.261 1_554 S
C362 O381 1.243 1_554 S
C363 C362 1.503 . S
C363 C364 1.394 . S
C363 C368 1.373 . S
C364 C363 1.394 . S
C364 C365 1.380 . S
C364 H392 0.930 . S
C365 C364 1.380 . S
C365 C366 1.376 . S
C365 H393 0.930 . S
C366 C365 1.376 . S
C366 C367 1.370 . S
C367 C366 1.370 . S
C367 C368 1.396 . S
C367 H394 0.929 . S
C368 C363 1.373 . S
C368 C367 1.396 . S
C368 H395 0.929 . S
C369 O382 1.240 . S
C369 O383 1.289 . S
C370 O384 1.258 . S
C370 O385 1.256 . S
C371 La361 2.928 . S
C371 C372 1.503 . S
C371 O386 1.261 . S
C371 O387 1.243 . S
C372 C371 1.503 . S
C372 C373 1.394 . S
C372 C377 1.373 . S
C373 C372 1.394 . S
C373 C374 1.380 . S
C373 H396 0.930 . S
C374 C373 1.380 . S
C374 C375 1.376 . S
C374 H397 0.930 . S
C375 C374 1.376 . S
C375 C376 1.370 . S
C376 C375 1.370 . S
C376 C377 1.396 . S
C376 H398 0.929 . S
C377 C372 1.373 . S
C377 C376 1.396 . S
C377 H399 0.929 . S
C378 O388 1.240 . S
C378 O389 1.289 . S
C379 O390 1.258 . S
C379 O391 1.256 . S
O380 La360 2.521 . S
O380 C362 1.261 1_556 S
O381 La360 2.628 . S
O381 C362 1.243 1_556 S
O382 La360 2.554 . S
O382 C369 1.240 . S
O383 La360 2.757 . S
O383 La361 2.482 . S
O383 C369 1.289 . S
O384 La360 2.470 . S
O384 C370 1.258 . S
O385 La361 2.503 . S
O385 C370 1.256 . S
O386 La361 2.521 . S
O386 C371 1.261 . S
O387 La361 2.628 . S
O387 C371 1.243 . S
O388 La361 2.554 . S
O388 C378 1.240 . S
O389 La360 2.482 . S
O389 La361 2.757 . S
O389 C378 1.289 . S
O390 La361 2.470 . S
O390 C379 1.258 . S
O391 La360 2.503 . S
O391 C379 1.256 . S
H392 C364 0.930 . S
H393 C365 0.930 . S
H394 C367 0.929 . S
H395 C368 0.929 . S
H396 C373 0.930 . S
H397 C374 0.930 . S
H398 C376 0.929 . S
H399 C377 0.929 . S
La400 C402 2.928 1_556 S
La400 O420 2.521 1_556 S
La400 O421 2.614 1_556 S
La400 O422 2.554 . S
La400 O423 2.757 . S
La400 O424 2.470 . S
La400 O429 2.482 . S
La400 O431 2.503 . S
La401 C411 2.928 . S
La401 O423 2.482 . S
La401 O425 2.503 . S
La401 O426 2.521 . S
La401 O427 2.628 . S
La401 O428 2.554 . S
La401 O429 2.757 . S
La401 O430 2.470 . S
C402 La400 2.928 1_554 S
C402 C403 1.503 . S
C402 O420 1.261 . S
C402 O421 1.251 . S
C403 C402 1.503 . S
C403 C404 1.394 . S
C403 C408 1.373 . S
C404 C403 1.394 . S
C404 C405 1.380 . S
C404 H432 0.930 . S
C405 C404 1.380 . S
C405 C406 1.376 . S
C405 H433 0.930 . S
C406 C405 1.376 . S
C406 C407 1.370 . S
C407 C406 1.370 . S
C407 C408 1.396 . S
C407 H434 0.929 . S
C408 C403 1.373 . S
C408 C407 1.396 . S
C408 H435 0.929 . S
C409 O422 1.240 . S
C409 O423 1.289 . S
C410 O424 1.258 . S
C410 O425 1.256 . S
C411 La401 2.928 . S
C411 C412 1.503 . S
C411 O426 1.261 . S
C411 O427 1.243 . S
C412 C411 1.503 . S
C412 C413 1.394 . S
C412 C417 1.373 . S
C413 C412 1.394 . S
C413 C414 1.380 . S
C413 H436 0.930 . S
C414 C413 1.380 . S
C414 C415 1.376 . S
C414 H437 0.930 . S
C415 C414 1.376 . S
C415 C416 1.370 . S
C416 C415 1.370 . S
C416 C417 1.396 . S
C416 H438 0.929 . S
C417 C412 1.373 . S
C417 C416 1.396 . S
C417 H439 0.929 . S
C418 O428 1.240 . S
C418 O429 1.289 . S
C419 O430 1.258 . S
C419 O431 1.256 . S
O420 La400 2.521 1_554 S
O420 C402 1.261 . S
O421 La400 2.614 1_554 S
O421 C402 1.251 . S
O422 La400 2.554 . S
O422 C409 1.240 . S
O423 La400 2.757 . S
O423 La401 2.482 . S
O423 C409 1.289 . S
O424 La400 2.470 . S
O424 C410 1.258 . S
O425 La401 2.503 . S
O425 C410 1.256 . S
O426 La401 2.521 . S
O426 C411 1.261 . S
O427 La401 2.628 . S
O427 C411 1.243 . S
O428 La401 2.554 . S
O428 C418 1.240 . S
O429 La400 2.482 . S
O429 La401 2.757 . S
O429 C418 1.289 . S
O430 La401 2.470 . S
O430 C419 1.258 . S
O431 La400 2.503 . S
O431 C419 1.256 . S
H432 C404 0.930 . S
H433 C405 0.930 . S
H434 C407 0.929 . S
H435 C408 0.929 . S
H436 C413 0.930 . S
H437 C414 0.930 . S
H438 C416 0.929 . S
H439 C417 0.929 . S
La440 C442 2.928 1_556 S
La440 O460 2.521 . S
La440 O461 2.628 . S
La440 O462 2.554 . S
La440 O463 2.757 . S
La440 O464 2.470 . S
La440 O469 2.482 . S
La440 O471 2.503 . S
La441 C451 2.928 . S
La441 O463 2.482 . S
La441 O465 2.503 . S
La441 O466 2.521 . S
La441 O467 2.628 . S
La441 O468 2.554 . S
La441 O469 2.757 . S
La441 O470 2.470 . S
C442 La440 2.928 1_554 S
C442 C443 1.503 . S
C442 O460 1.261 1_554 S
C442 O461 1.243 1_554 S
C443 C442 1.503 . S
C443 C444 1.394 . S
C443 C448 1.373 . S
C444 C443 1.394 . S
C444 C445 1.380 . S
C444 H472 0.930 . S
C445 C444 1.380 . S
C445 C446 1.376 . S
C445 H473 0.930 . S
C446 C445 1.376 . S
C446 C447 1.370 . S
C447 C446 1.370 . S
C447 C448 1.396 . S
C447 H474 0.929 . S
C448 C443 1.373 . S
C448 C447 1.396 . S
C448 H475 0.929 . S
C449 O462 1.240 . S
C449 O463 1.289 . S
C450 O464 1.258 . S
C450 O465 1.256 . S
C451 La441 2.928 . S
C451 C452 1.503 . S
C451 O466 1.261 . S
C451 O467 1.243 . S
C452 C451 1.503 . S
C452 C453 1.394 . S
C452 C457 1.373 . S
C453 C452 1.394 . S
C453 C454 1.380 . S
C453 H476 0.930 . S
C454 C453 1.380 . S
C454 C455 1.376 . S
C454 H477 0.930 . S
C455 C454 1.376 . S
C455 C456 1.370 . S
C456 C455 1.370 . S
C456 C457 1.396 . S
C456 H478 0.929 . S
C457 C452 1.373 . S
C457 C456 1.396 . S
C457 H479 0.929 . S
C458 O468 1.240 . S
C458 O469 1.289 . S
C459 O470 1.258 . S
C459 O471 1.256 . S
O460 La440 2.521 . S
O460 C442 1.261 1_556 S
O461 La440 2.628 . S
O461 C442 1.243 1_556 S
O462 La440 2.554 . S
O462 C449 1.240 . S
O463 La440 2.757 . S
O463 La441 2.482 . S
O463 C449 1.289 . S
O464 La440 2.470 . S
O464 C450 1.258 . S
O465 La441 2.503 . S
O465 C450 1.256 . S
O466 La441 2.521 . S
O466 C451 1.261 . S
O467 La441 2.628 . S
O467 C451 1.243 . S
O468 La441 2.554 . S
O468 C458 1.240 . S
O469 La440 2.482 . S
O469 La441 2.757 . S
O469 C458 1.289 . S
O470 La441 2.470 . S
O470 C459 1.258 . S
O471 La440 2.503 . S
O471 C459 1.256 . S
H472 C444 0.930 . S
H473 C445 0.930 . S
H474 C447 0.929 . S
H475 C448 0.929 . S
H476 C453 0.930 . S
H477 C454 0.930 . S
H478 C456 0.929 . S
H479 C457 0.929 . S
La480 C482 2.928 . S
La480 O500 2.521 . S
La480 O501 2.628 . S
La480 O502 2.554 . S
La480 O503 2.757 . S
La480 O504 2.470 . S
La480 O509 2.482 . S
La480 O511 2.503 . S
La481 C491 2.928 1_554 S
La481 O503 2.482 . S
La481 O505 2.503 . S
La481 O506 2.521 1_554 S
La481 O507 2.628 1_554 S
La481 O508 2.554 . S
La481 O509 2.757 . S
La481 O510 2.470 . S
C482 La480 2.928 . S
C482 C483 1.503 . S
C482 O500 1.261 . S
C482 O501 1.243 . S
C483 C482 1.503 . S
C483 C484 1.394 . S
C483 C488 1.373 . S
C484 C483 1.394 . S
C484 C485 1.380 . S
C484 H512 0.930 . S
C485 C484 1.380 . S
C485 C486 1.376 . S
C485 H513 0.930 . S
C486 C485 1.376 . S
C486 C487 1.370 . S
C487 C486 1.370 . S
C487 C488 1.396 . S
C487 H514 0.929 . S
C488 C483 1.373 . S
C488 C487 1.396 . S
C488 H515 0.929 . S
C489 O502 1.240 . S
C489 O503 1.289 . S
C490 O504 1.258 . S
C490 O505 1.256 . S
C491 La481 2.928 1_556 S
C491 C492 1.503 . S
C491 O506 1.261 . S
C491 O507 1.243 . S
C492 C491 1.503 . S
C492 C493 1.394 . S
C492 C497 1.373 . S
C493 C492 1.394 . S
C493 C494 1.380 . S
C493 H516 0.930 . S
C494 C493 1.380 . S
C494 C495 1.376 . S
C494 H517 0.930 . S
C495 C494 1.376 . S
C495 C496 1.370 . S
C496 C495 1.370 . S
C496 C497 1.396 . S
C496 H518 0.929 . S
C497 C492 1.373 . S
C497 C496 1.396 . S
C497 H519 0.929 . S
C498 O508 1.240 . S
C498 O509 1.289 . S
C499 O510 1.258 . S
C499 O511 1.256 . S
O500 La480 2.521 . S
O500 C482 1.261 . S
O501 La480 2.628 . S
O501 C482 1.243 . S
O502 La480 2.554 . S
O502 C489 1.240 . S
O503 La480 2.757 . S
O503 La481 2.482 . S
O503 C489 1.289 . S
O504 La480 2.470 . S
O504 C490 1.258 . S
O505 La481 2.503 . S
O505 C490 1.256 . S
O506 La481 2.521 1_556 S
O506 C491 1.261 . S
O507 La481 2.628 1_556 S
O507 C491 1.243 . S
O508 La481 2.554 . S
O508 C498 1.240 . S
O509 La480 2.482 . S
O509 La481 2.757 . S
O509 C498 1.289 . S
O510 La481 2.470 . S
O510 C499 1.258 . S
O511 La480 2.503 . S
O511 C499 1.256 . S
H512 C484 0.930 . S
H513 C485 0.930 . S
H514 C487 0.929 . S
H515 C488 0.929 . S
H516 C493 0.930 . S
H517 C494 0.930 . S
H518 C496 0.929 . S
H519 C497 0.929 . S
La520 C522 2.928 1_554 S
La520 O540 2.521 1_554 S
La520 O541 2.628 1_554 S
La520 O542 2.554 . S
La520 O543 2.757 . S
La520 O544 2.470 . S
La520 O549 2.482 . S
La520 O551 2.503 . S
La521 C531 2.928 . S
La521 O543 2.482 . S
La521 O545 2.503 . S
La521 O546 2.521 . S
La521 O547 2.628 . S
La521 O548 2.554 . S
La521 O549 2.757 . S
La521 O550 2.470 . S
C522 La520 2.928 1_556 S
C522 C523 1.503 . S
C522 O540 1.261 . S
C522 O541 1.243 . S
C523 C522 1.503 . S
C523 C524 1.394 . S
C523 C528 1.373 . S
C524 C523 1.394 . S
C524 C525 1.380 . S
C524 H552 0.930 . S
C525 C524 1.380 . S
C525 C526 1.376 . S
C525 H553 0.930 . S
C526 C525 1.376 . S
C526 C527 1.370 . S
C527 C526 1.370 . S
C527 C528 1.396 . S
C527 H554 0.929 . S
C528 C523 1.373 . S
C528 C527 1.396 . S
C528 H555 0.929 . S
C529 O542 1.240 . S
C529 O543 1.289 . S
C530 O544 1.258 . S
C530 O545 1.256 . S
C531 La521 2.928 . S
C531 C532 1.503 . S
C531 O546 1.261 . S
C531 O547 1.243 . S
C532 C531 1.503 . S
C532 C533 1.394 . S
C532 C537 1.373 . S
C533 C532 1.394 . S
C533 C534 1.380 . S
C533 H556 0.930 . S
C534 C533 1.380 . S
C534 C535 1.376 . S
C534 H557 0.930 . S
C535 C534 1.376 . S
C535 C536 1.370 . S
C536 C535 1.370 . S
C536 C537 1.396 . S
C536 H558 0.929 . S
C537 C532 1.373 . S
C537 C536 1.396 . S
C537 H559 0.929 . S
C538 O548 1.240 . S
C538 O549 1.289 . S
C539 O550 1.258 . S
C539 O551 1.256 . S
O540 La520 2.521 1_556 S
O540 C522 1.261 . S
O541 La520 2.628 1_556 S
O541 C522 1.243 . S
O542 La520 2.554 . S
O542 C529 1.240 . S
O543 La520 2.757 . S
O543 La521 2.482 . S
O543 C529 1.289 . S
O544 La520 2.470 . S
O544 C530 1.258 . S
O545 La521 2.503 . S
O545 C530 1.256 . S
O546 La521 2.521 . S
O546 C531 1.261 . S
O547 La521 2.628 . S
O547 C531 1.243 . S
O548 La521 2.554 . S
O548 C538 1.240 . S
O549 La520 2.482 . S
O549 La521 2.757 . S
O549 C538 1.289 . S
O550 La521 2.470 . S
O550 C539 1.258 . S
O551 La520 2.503 . S
O551 C539 1.256 . S
H552 C524 0.930 . S
H553 C525 0.930 . S
H554 C527 0.929 . S
H555 C528 0.929 . S
H556 C533 0.930 . S
H557 C534 0.930 . S
H558 C536 0.929 . S
H559 C537 0.929 . S
La560 C562 2.928 . S
La560 O580 2.521 . S
La560 O581 2.628 . S
La560 O582 2.554 . S
La560 O583 2.757 . S
La560 O584 2.470 . S
La560 O589 2.482 . S
La560 O591 2.503 . S
La561 C571 2.928 1_554 S
La561 O583 2.482 . S
La561 O585 2.503 . S
La561 O586 2.521 . S
La561 O587 2.628 . S
La561 O588 2.554 . S
La561 O589 2.757 . S
La561 O590 2.470 . S
C562 La560 2.928 . S
C562 C563 1.503 . S
C562 O580 1.261 . S
C562 O581 1.243 . S
C563 C562 1.503 . S
C563 C564 1.394 . S
C563 C568 1.373 . S
C564 C563 1.394 . S
C564 C565 1.380 . S
C564 H592 0.930 . S
C565 C564 1.380 . S
C565 C566 1.376 . S
C565 H593 0.930 . S
C566 C565 1.376 . S
C566 C567 1.370 . S
C567 C566 1.370 . S
C567 C568 1.396 . S
C567 H594 0.929 . S
C568 C563 1.373 . S
C568 C567 1.396 . S
C568 H595 0.929 . S
C569 O582 1.240 . S
C569 O583 1.289 . S
C570 O584 1.258 . S
C570 O585 1.256 . S
C571 La561 2.928 1_556 S
C571 C572 1.503 . S
C571 O586 1.261 1_556 S
C571 O587 1.243 1_556 S
C572 C571 1.503 . S
C572 C573 1.394 . S
C572 C577 1.373 . S
C573 C572 1.394 . S
C573 C574 1.380 . S
C573 H596 0.930 . S
C574 C573 1.380 . S
C574 C575 1.376 . S
C574 H597 0.930 . S
C575 C574 1.376 . S
C575 C576 1.370 . S
C576 C575 1.370 . S
C576 C577 1.396 . S
C576 H598 0.929 . S
C577 C572 1.373 . S
C577 C576 1.396 . S
C577 H599 0.929 . S
C578 O588 1.240 . S
C578 O589 1.289 . S
C579 O590 1.258 . S
C579 O591 1.256 . S
O580 La560 2.521 . S
O580 C562 1.261 . S
O581 La560 2.628 . S
O581 C562 1.243 . S
O582 La560 2.554 . S
O582 C569 1.240 . S
O583 La560 2.757 . S
O583 La561 2.482 . S
O583 C569 1.289 . S
O584 La560 2.470 . S
O584 C570 1.258 . S
O585 La561 2.503 . S
O585 C570 1.256 . S
O586 La561 2.521 . S
O586 C571 1.261 1_554 S
O587 La561 2.628 . S
O587 C571 1.243 1_554 S
O588 La561 2.554 . S
O588 C578 1.240 . S
O589 La560 2.482 . S
O589 La561 2.757 . S
O589 C578 1.289 . S
O590 La561 2.470 . S
O590 C579 1.258 . S
O591 La560 2.503 . S
O591 C579 1.256 . S
H592 C564 0.930 . S
H593 C565 0.930 . S
H594 C567 0.929 . S
H595 C568 0.929 . S
H596 C573 0.930 . S
H597 C574 0.930 . S
H598 C576 0.929 . S
H599 C577 0.929 . S
La600 C602 2.928 . S
La600 O620 2.521 . S
La600 O621 2.628 . S
La600 O622 2.554 . S
La600 O623 2.757 . S
La600 O624 2.470 . S
La600 O629 2.482 . S
La600 O631 2.503 . S
La601 C611 2.928 1_554 S
La601 O623 2.482 . S
La601 O625 2.503 . S
La601 O626 2.521 1_554 S
La601 O627 2.621 1_554 S
La601 O628 2.554 . S
La601 O629 2.757 . S
La601 O630 2.470 . S
C602 La600 2.928 . S
C602 C603 1.503 . S
C602 O620 1.261 . S
C602 O621 1.243 . S
C603 C602 1.503 . S
C603 C604 1.394 . S
C603 C608 1.373 . S
C604 C603 1.394 . S
C604 C605 1.380 . S
C604 H632 0.930 . S
C605 C604 1.380 . S
C605 C606 1.376 . S
C605 H633 0.930 . S
C606 C605 1.376 . S
C606 C607 1.370 . S
C607 C606 1.370 . S
C607 C608 1.396 . S
C607 H634 0.929 . S
C608 C603 1.373 . S
C608 C607 1.396 . S
C608 H635 0.929 . S
C609 O622 1.240 . S
C609 O623 1.289 . S
C610 O624 1.258 . S
C610 O625 1.256 . S
C611 La601 2.928 1_556 S
C611 C612 1.503 . S
C611 O626 1.261 . S
C611 O627 1.246 . S
C612 C611 1.503 . S
C612 C613 1.394 . S
C612 C617 1.373 . S
C613 C612 1.394 . S
C613 C614 1.380 . S
C613 H636 0.930 . S
C614 C613 1.380 . S
C614 C615 1.376 . S
C614 H637 0.930 . S
C615 C614 1.376 . S
C615 C616 1.370 . S
C616 C615 1.370 . S
C616 C617 1.396 . S
C616 H638 0.929 . S
C617 C612 1.373 . S
C617 C616 1.396 . S
C617 H639 0.929 . S
C618 O628 1.240 . S
C618 O629 1.289 . S
C619 O630 1.258 . S
C619 O631 1.256 . S
O620 La600 2.521 . S
O620 C602 1.261 . S
O621 La600 2.628 . S
O621 C602 1.243 . S
O622 La600 2.554 . S
O622 C609 1.240 . S
O623 La600 2.757 . S
O623 La601 2.482 . S
O623 C609 1.289 . S
O624 La600 2.470 . S
O624 C610 1.258 . S
O625 La601 2.503 . S
O625 C610 1.256 . S
O626 La601 2.521 1_556 S
O626 C611 1.261 . S
O627 La601 2.621 1_556 S
O627 C611 1.246 . S
O628 La601 2.554 . S
O628 C618 1.240 . S
O629 La600 2.482 . S
O629 La601 2.757 . S
O629 C618 1.289 . S
O630 La601 2.470 . S
O630 C619 1.258 . S
O631 La600 2.503 . S
O631 C619 1.256 . S
H632 C604 0.930 . S
H633 C605 0.930 . S
H634 C607 0.929 . S
H635 C608 0.929 . S
H636 C613 0.930 . S
H637 C614 0.930 . S
H638 C616 0.929 . S
H639 C617 0.929 . S
La640 C642 2.928 . S
La640 O660 2.521 . S
La640 O661 2.628 . S
La640 O662 2.554 . S
La640 O663 2.757 . S
La640 O664 2.470 . S
La640 O669 2.482 . S
La640 O671 2.503 . S
La641 C651 2.928 . S
La641 O663 2.482 . S
La641 O665 2.503 . S
La641 O666 2.521 . S
La641 O667 2.628 . S
La641 O668 2.554 . S
La641 O669 2.757 . S
La641 O670 2.470 . S
C642 La640 2.928 . S
C642 C643 1.503 1_554 S
C642 O660 1.261 . S
C642 O661 1.243 . S
C643 C642 1.503 1_556 S
C643 C644 1.394 . S
C643 C648 1.373 . S
C644 C643 1.394 . S
C644 C645 1.380 . S
C644 H672 0.930 . S
C645 C644 1.380 . S
C645 C646 1.376 . S
C645 H673 0.930 . S
C646 C645 1.376 . S
C646 C647 1.370 . S
C647 C646 1.370 . S
C647 C648 1.396 . S
C647 H674 0.929 . S
C648 C643 1.373 . S
C648 C647 1.396 . S
C648 H675 0.929 . S
C649 O662 1.240 . S
C649 O663 1.289 . S
C650 O664 1.258 . S
C650 O665 1.256 . S
C651 La641 2.928 . S
C651 C652 1.503 . S
C651 O666 1.261 . S
C651 O667 1.243 . S
C652 C651 1.503 . S
C652 C653 1.394 . S
C652 C657 1.373 . S
C653 C652 1.394 . S
C653 C654 1.380 . S
C653 H676 0.930 . S
C654 C653 1.380 . S
C654 C655 1.376 . S
C654 H677 0.930 . S
C655 C654 1.376 . S
C655 C656 1.370 . S
C656 C655 1.370 . S
C656 C657 1.396 . S
C656 H678 0.929 . S
C657 C652 1.373 . S
C657 C656 1.396 . S
C657 H679 0.929 . S
C658 O668 1.240 . S
C658 O669 1.289 . S
C659 O670 1.258 . S
C659 O671 1.256 . S
O660 La640 2.521 . S
O660 C642 1.261 . S
O661 La640 2.628 . S
O661 C642 1.243 . S
O662 La640 2.554 . S
O662 C649 1.240 . S
O663 La640 2.757 . S
O663 La641 2.482 . S
O663 C649 1.289 . S
O664 La640 2.470 . S
O664 C650 1.258 . S
O665 La641 2.503 . S
O665 C650 1.256 . S
O666 La641 2.521 . S
O666 C651 1.261 . S
O667 La641 2.628 . S
O667 C651 1.243 . S
O668 La641 2.554 . S
O668 C658 1.240 . S
O669 La640 2.482 . S
O669 La641 2.757 . S
O669 C658 1.289 . S
O670 La641 2.470 . S
O670 C659 1.258 . S
O671 La640 2.503 . S
O671 C659 1.256 . S
H672 C644 0.930 . S
H673 C645 0.930 . S
H674 C647 0.929 . S
H675 C648 0.929 . S
H676 C653 0.930 . S
H677 C654 0.930 . S
H678 C656 0.929 . S
H679 C657 0.929 . S
La680 C682 2.928 . S
La680 O700 2.521 . S
La680 O701 2.628 . S
La680 O702 2.554 . S
La680 O703 2.757 . S
La680 O704 2.470 . S
La680 O709 2.482 . S
La680 O711 2.503 . S
La681 C691 2.928 . S
La681 O703 2.482 . S
La681 O705 2.503 . S
La681 O706 2.521 . S
La681 O707 2.628 . S
La681 O708 2.554 . S
La681 O709 2.757 . S
La681 O710 2.470 . S
C682 La680 2.928 . S
C682 C683 1.503 . S
C682 O700 1.261 . S
C682 O701 1.243 . S
C683 C682 1.503 . S
C683 C684 1.394 . S
C683 C688 1.373 . S
C684 C683 1.394 . S
C684 C685 1.380 . S
C684 H712 0.930 . S
C685 C684 1.380 . S
C685 C686 1.376 . S
C685 H713 0.930 . S
C686 C685 1.376 . S
C686 C687 1.370 . S
C687 C686 1.370 . S
C687 C688 1.396 . S
C687 H714 0.929 . S
C688 C683 1.373 . S
C688 C687 1.396 . S
C688 H715 0.929 . S
C689 O702 1.240 . S
C689 O703 1.289 . S
C690 O704 1.258 . S
C690 O705 1.256 . S
C691 La681 2.928 . S
C691 C692 1.503 1_554 S
C691 O706 1.261 . S
C691 O707 1.243 . S
C692 C691 1.503 1_556 S
C692 C693 1.394 . S
C692 C697 1.373 . S
C693 C692 1.394 . S
C693 C694 1.380 . S
C693 H716 0.930 . S
C694 C693 1.380 . S
C694 C695 1.376 . S
C694 H717 0.930 . S
C695 C694 1.376 . S
C695 C696 1.370 . S
C696 C695 1.370 . S
C696 C697 1.396 . S
C696 H718 0.929 . S
C697 C692 1.373 . S
C697 C696 1.396 . S
C697 H719 0.929 . S
C698 O708 1.240 . S
C698 O709 1.289 . S
C699 O710 1.258 . S
C699 O711 1.256 . S
O700 La680 2.521 . S
O700 C682 1.261 . S
O701 La680 2.628 . S
O701 C682 1.243 . S
O702 La680 2.554 . S
O702 C689 1.240 . S
O703 La680 2.757 . S
O703 La681 2.482 . S
O703 C689 1.289 . S
O704 La680 2.470 . S
O704 C690 1.258 . S
O705 La681 2.503 . S
O705 C690 1.256 . S
O706 La681 2.521 . S
O706 C691 1.261 . S
O707 La681 2.628 . S
O707 C691 1.243 . S
O708 La681 2.554 . S
O708 C698 1.240 . S
O709 La680 2.482 . S
O709 La681 2.757 . S
O709 C698 1.289 . S
O710 La681 2.470 . S
O710 C699 1.258 . S
O711 La680 2.503 . S
O711 C699 1.256 . S
H712 C684 0.930 . S
H713 C685 0.930 . S
H714 C687 0.929 . S
H715 C688 0.929 . S
H716 C693 0.930 . S
H717 C694 0.930 . S
H718 C696 0.929 . S
H719 C697 0.929 . S
C720 C721 1.387 . S
C720 H724 0.950 . S
C720 C729 1.390 . S
C721 C720 1.387 . S
C721 C723 1.387 . S
H722 C729 0.950 . S
C723 C721 1.387 . S
C723 C725 1.390 . S
C723 H727 0.950 . S
H724 C720 0.950 . S
C725 C723 1.390 . S
C725 C726 1.387 . S
C725 H728 0.950 . S
C726 C725 1.387 . S
C726 C729 1.387 . S
H727 C723 0.950 . S
H728 C725 0.950 . S
C729 C720 1.390 . S
C729 H722 0.950 . S
C729 C726 1.387 . S
C730 C731 1.387 . S
C730 H734 0.950 . S
C730 C739 1.390 . S
C731 C730 1.387 . S
C731 C733 1.387 . S
H732 C739 0.950 . S
C733 C731 1.387 . S
C733 C735 1.390 . S
C733 H737 0.950 . S
H734 C730 0.950 . S
C735 C733 1.390 . S
C735 C736 1.387 . S
C735 H738 0.950 . S
C736 C735 1.387 . S
C736 C739 1.387 . S
H737 C733 0.950 . S
H738 C735 0.950 . S
C739 C730 1.390 . S
C739 H732 0.950 . S
C739 C736 1.387 . S
C740 C741 1.387 . S
C740 H744 0.950 . S
C740 C749 1.390 . S
C741 C740 1.387 . S
C741 C743 1.387 . S
H742 C749 0.950 . S
C743 C741 1.387 . S
C743 C745 1.390 . S
C743 H747 0.950 . S
H744 C740 0.950 . S
C745 C743 1.390 . S
C745 C746 1.387 . S
C745 H748 0.950 . S
C746 C745 1.387 . S
C746 C749 1.387 . S
H747 C743 0.950 . S
H748 C745 0.950 . S
C749 C740 1.390 . S
C749 H742 0.950 . S
C749 C746 1.387 . S
C750 C751 1.387 . S
C750 H754 0.950 . S
C750 C759 1.390 . S
C751 C750 1.387 . S
C751 C753 1.387 . S
H752 C759 0.950 . S
C753 C751 1.387 . S
C753 C755 1.390 . S
C753 H757 0.950 . S
H754 C750 0.950 . S
C755 C753 1.390 . S
C755 C756 1.387 . S
C755 H758 0.950 . S
C756 C755 1.387 . S
C756 C759 1.387 . S
H757 C753 0.950 . S
H758 C755 0.950 . S
C759 C750 1.390 . S
C759 H752 0.950 . S
C759 C756 1.387 . S
C760 C761 1.387 . S
C760 H764 0.950 . S
C760 C769 1.390 . S
C761 C760 1.387 . S
C761 C763 1.387 . S
H762 C769 0.950 . S
C763 C761 1.387 . S
C763 C765 1.390 . S
C763 H767 0.950 . S
H764 C760 0.950 . S
C765 C763 1.390 . S
C765 C766 1.387 . S
C765 H768 0.950 . S
C766 C765 1.387 . S
C766 C769 1.387 . S
H767 C763 0.950 . S
H768 C765 0.950 . S
C769 C760 1.390 . S
C769 H762 0.950 . S
C769 C766 1.387 . S
C770 C771 1.387 . S
C770 H774 0.950 . S
C770 C779 1.390 . S
C771 C770 1.387 . S
C771 C773 1.387 . S
H772 C779 0.950 . S
C773 C771 1.387 . S
C773 C775 1.390 . S
C773 H777 0.950 . S
H774 C770 0.950 . S
C775 C773 1.390 . S
C775 C776 1.387 . S
C775 H778 0.950 . S
C776 C775 1.387 . S
C776 C779 1.387 . S
H777 C773 0.950 . S
H778 C775 0.950 . S
C779 C770 1.390 . S
C779 H772 0.950 . S
C779 C776 1.387 . S
C780 C781 1.387 . S
C780 H784 0.950 . S
C780 C789 1.390 . S
C781 C780 1.387 . S
C781 C783 1.387 . S
H782 C789 0.950 . S
C783 C781 1.387 . S
C783 C785 1.390 . S
C783 H787 0.950 . S
H784 C780 0.950 . S
C785 C783 1.390 . S
C785 C786 1.387 . S
C785 H788 0.950 . S
C786 C785 1.387 . S
C786 C789 1.387 . S
H787 C783 0.950 . S
H788 C785 0.950 . S
C789 C780 1.390 . S
C789 H782 0.950 . S
C789 C786 1.387 . S
C790 C791 1.387 . S
C790 H794 0.950 . S
C790 C799 1.390 . S
C791 C790 1.387 . S
C791 C793 1.387 . S
H792 C799 0.950 . S
C793 C791 1.387 . S
C793 C795 1.390 . S
C793 H797 0.950 . S
H794 C790 0.950 . S
C795 C793 1.390 . S
C795 C796 1.387 . S
C795 H798 0.950 . S
C796 C795 1.387 . S
C796 C799 1.387 . S
H797 C793 0.950 . S
H798 C795 0.950 . S
C799 C790 1.390 . S
C799 H792 0.950 . S
C799 C796 1.387 . S
C800 C801 1.387 . S
C800 H804 0.950 . S
C800 C809 1.390 . S
C801 C800 1.387 . S
C801 C803 1.387 . S
H802 C809 0.950 . S
C803 C801 1.387 . S
C803 C805 1.390 . S
C803 H807 0.950 . S
H804 C800 0.950 . S
C805 C803 1.390 . S
C805 C806 1.387 . S
C805 H808 0.950 . S
C806 C805 1.387 . S
C806 C809 1.387 . S
H807 C803 0.950 . S
H808 C805 0.950 . S
C809 C800 1.390 . S
C809 H802 0.950 . S
C809 C806 1.387 . S
C810 C811 1.387 . S
C810 H814 0.950 . S
C810 C819 1.390 . S
C811 C810 1.387 . S
C811 C813 1.387 . S
H812 C819 0.950 . S
C813 C811 1.387 . S
C813 C815 1.390 . S
C813 H817 0.950 . S
H814 C810 0.950 . S
C815 C813 1.390 . S
C815 C816 1.387 . S
C815 H818 0.950 . S
C816 C815 1.387 . S
C816 C819 1.387 . S
H817 C813 0.950 . S
H818 C815 0.950 . S
C819 C810 1.390 . S
C819 H812 0.950 . S
C819 C816 1.387 . S
C820 C821 1.387 . S
C820 H824 0.950 . S
C820 C829 1.390 . S
C821 C820 1.387 . S
C821 C823 1.387 . S
H822 C829 0.950 . S
C823 C821 1.387 . S
C823 C825 1.390 . S
C823 H827 0.950 . S
H824 C820 0.950 . S
C825 C823 1.390 . S
C825 C826 1.387 . S
C825 H828 0.950 . S
C826 C825 1.387 . S
C826 C829 1.387 . S
H827 C823 0.950 . S
H828 C825 0.950 . S
C829 C820 1.390 . S
C829 H822 0.950 . S
C829 C826 1.387 . S
C830 C831 1.387 . S
C830 H834 0.950 . S
C830 C839 1.390 . S
C831 C830 1.387 . S
C831 C833 1.387 . S
H832 C839 0.950 . S
C833 C831 1.387 . S
C833 C835 1.390 . S
C833 H837 0.950 . S
H834 C830 0.950 . S
C835 C833 1.390 . S
C835 C836 1.387 . S
C835 H838 0.950 . S
C836 C835 1.387 . S
C836 C839 1.387 . S
H837 C833 0.950 . S
H838 C835 0.950 . S
C839 C830 1.390 . S
C839 H832 0.950 . S
C839 C836 1.387 . S
C840 C841 1.387 . S
C840 H844 0.950 . S
C840 C849 1.390 1_656 S
C841 C840 1.387 . S
C841 C843 1.387 . S
H842 C849 0.950 . S
C843 C841 1.387 . S
C843 C845 1.390 1_656 S
C843 H847 0.950 . S
H844 C840 0.950 . S
C845 C843 1.390 1_454 S
C845 C846 1.387 . S
C845 H848 0.950 . S
C846 C845 1.387 . S
C846 C849 1.387 . S
H847 C843 0.950 . S
H848 C845 0.950 . S
C849 C840 1.390 1_454 S
C849 H842 0.950 . S
C849 C846 1.387 . S
C850 C851 1.387 . S
C850 H854 0.950 . S
C850 C859 1.390 1_556 S
C851 C850 1.387 . S
C851 C853 1.387 . S
H852 C859 0.950 . S
C853 C851 1.387 . S
C853 C855 1.390 1_556 S
C853 H857 0.950 . S
H854 C850 0.950 . S
C855 C853 1.390 1_554 S
C855 C856 1.387 . S
C855 H858 0.950 . S
C856 C855 1.387 . S
C856 C859 1.387 . S
H857 C853 0.950 . S
H858 C855 0.950 . S
C859 C850 1.390 1_554 S
C859 H852 0.950 . S
C859 C856 1.387 . S
C860 C861 1.387 . S
C860 H864 0.950 . S
C860 C869 1.390 1_556 S
C861 C860 1.387 . S
C861 C863 1.387 1_545 S
H862 C869 0.950 . S
C863 C861 1.387 1_565 S
C863 C865 1.390 . S
C863 H867 0.950 . S
H864 C860 0.950 . S
C865 C863 1.390 . S
C865 C866 1.387 1_556 S
C865 H868 0.950 . S
C866 C865 1.387 1_554 S
C866 C869 1.387 1_565 S
H867 C863 0.950 . S
H868 C865 0.950 . S
C869 C860 1.390 1_554 S
C869 H862 0.950 . S
C869 C866 1.387 1_545 S
C870 C871 1.387 1_565 S
C870 H874 0.950 . S
C870 C879 1.390 1_556 S
C871 C870 1.387 1_545 S
C871 C873 1.387 1_556 S
H872 C879 0.950 . S
C873 C871 1.387 1_554 S
C873 C875 1.390 . S
C873 H877 0.950 1_554 S
H874 C870 0.950 . S
C875 C873 1.390 . S
C875 C876 1.387 1_545 S
C875 H878 0.950 . S
C876 C875 1.387 1_565 S
C876 C879 1.387 . S
H877 C873 0.950 1_556 S
H878 C875 0.950 . S
C879 C870 1.390 1_554 S
C879 H872 0.950 . S
C879 C876 1.387 . S
C880 C881 1.387 1_655 S
C880 H884 0.950 . S
C880 C889 1.390 . S
C881 C880 1.387 1_455 S
C881 C883 1.387 . S
H882 C889 0.950 . S
C883 C881 1.387 . S
C883 C885 1.390 1_554 S
C883 H887 0.950 . S
H884 C880 0.950 . S
C885 C883 1.390 1_556 S
C885 C886 1.387 1_455 S
C885 H888 0.950 . S
C886 C885 1.387 1_655 S
C886 C889 1.387 1_556 S
H887 C883 0.950 . S
H888 C885 0.950 . S
C889 C880 1.390 . S
C889 H882 0.950 . S
C889 C886 1.387 1_554 S
C890 C891 1.387 . S
C890 H894 0.950 . S
C890 C899 1.390 1_554 S
C891 C890 1.387 . S
C891 C893 1.387 . S
H892 C899 0.950 . S
C893 C891 1.387 . S
C893 C895 1.390 1_554 S
C893 H897 0.950 . S
H894 C890 0.950 . S
C895 C893 1.390 1_556 S
C895 C896 1.387 . S
C895 H898 0.950 . S
C896 C895 1.387 . S
C896 C899 1.387 . S
H897 C893 0.950 . S
H898 C895 0.950 . S
C899 C890 1.390 1_556 S
C899 H892 0.950 . S
C899 C896 1.387 . S
C900 C901 1.387 . S
C900 H904 0.950 . S
C900 C909 1.390 . S
C901 C900 1.387 . S
C901 C903 1.387 . S
H902 C909 0.950 . S
C903 C901 1.387 . S
C903 C905 1.390 . S
C903 H907 0.950 . S
H904 C900 0.950 . S
C905 C903 1.390 . S
C905 C906 1.387 . S
C905 H908 0.950 . S
C906 C905 1.387 . S
C906 C909 1.387 . S
H907 C903 0.950 . S
H908 C905 0.950 . S
C909 C900 1.390 . S
C909 H902 0.950 . S
C909 C906 1.387 . S
C910 C911 1.387 . S
C910 H914 0.950 . S
C910 C919 1.390 . S
C911 C910 1.387 . S
C911 C913 1.387 . S
H912 C919 0.950 . S
C913 C911 1.387 . S
C913 C915 1.390 . S
C913 H917 0.950 . S
H914 C910 0.950 . S
C915 C913 1.390 . S
C915 C916 1.387 . S
C915 H918 0.950 . S
C916 C915 1.387 . S
C916 C919 1.387 . S
H917 C913 0.950 . S
H918 C915 0.950 . S
C919 C910 1.390 . S
C919 H912 0.950 . S
C919 C916 1.387 . S
C920 C921 1.387 . S
C920 H924 0.950 . S
C920 C929 1.390 . S
C921 C920 1.387 . S
C921 C923 1.387 . S
H922 C929 0.950 . S
C923 C921 1.387 . S
C923 C925 1.390 . S
C923 H927 0.950 . S
H924 C920 0.950 . S
C925 C923 1.390 . S
C925 C926 1.387 . S
C925 H928 0.950 . S
C926 C925 1.387 . S
C926 C929 1.387 . S
H927 C923 0.950 . S
H928 C925 0.950 . S
C929 C920 1.390 . S
C929 H922 0.950 . S
C929 C926 1.387 . S
C930 C931 1.387 . S
C930 H934 0.950 . S
C930 C939 1.390 . S
C931 C930 1.387 . S
C931 C933 1.387 . S
H932 C939 0.950 . S
C933 C931 1.387 . S
C933 C935 1.390 . S
C933 H937 0.950 . S
H934 C930 0.950 . S
C935 C933 1.390 . S
C935 C936 1.387 . S
C935 H938 0.950 . S
C936 C935 1.387 . S
C936 C939 1.387 . S
H937 C933 0.950 . S
H938 C935 0.950 . S
C939 C930 1.390 . S
C939 H932 0.950 . S
C939 C936 1.387 . S
C940 C941 1.387 . S
C940 H944 0.950 . S
C940 C949 1.390 . S
C941 C940 1.387 . S
C941 C943 1.387 . S
H942 C949 0.950 . S
C943 C941 1.387 . S
C943 C945 1.390 . S
C943 H947 0.950 . S
H944 C940 0.950 . S
C945 C943 1.390 . S
C945 C946 1.387 . S
C945 H948 0.950 . S
C946 C945 1.387 . S
C946 C949 1.387 . S
H947 C943 0.950 . S
H948 C945 0.950 . S
C949 C940 1.390 . S
C949 H942 0.950 . S
C949 C946 1.387 . S
C950 C951 1.387 . S
C950 H954 0.950 . S
C950 C959 1.390 . S
C951 C950 1.387 . S
C951 C953 1.387 . S
H952 C959 0.950 . S
C953 C951 1.387 . S
C953 C955 1.390 . S
C953 H957 0.950 . S
H954 C950 0.950 . S
C955 C953 1.390 . S
C955 C956 1.387 . S
C955 H958 0.950 . S
C956 C955 1.387 . S
C956 C959 1.387 . S
H957 C953 0.950 . S
H958 C955 0.950 . S
C959 C950 1.390 . S
C959 H952 0.950 . S
C959 C956 1.387 . S
C960 C961 1.387 . S
C960 H964 0.950 . S
C960 C969 1.390 . S
C961 C960 1.387 . S
C961 C963 1.387 . S
H962 C969 0.950 . S
C963 C961 1.387 . S
C963 C965 1.390 . S
C963 H967 0.950 . S
H964 C960 0.950 . S
C965 C963 1.390 . S
C965 C966 1.387 . S
C965 H968 0.950 . S
C966 C965 1.387 . S
C966 C969 1.387 . S
H967 C963 0.950 . S
H968 C965 0.950 . S
C969 C960 1.390 . S
C969 H962 0.950 . S
C969 C966 1.387 . S
C970 C971 1.387 . S
C970 H974 0.950 . S
C970 C979 1.390 . S
C971 C970 1.387 . S
C971 C973 1.387 . S
H972 C979 0.950 . S
C973 C971 1.387 . S
C973 C975 1.390 . S
C973 H977 0.950 . S
H974 C970 0.950 . S
C975 C973 1.390 . S
C975 C976 1.387 . S
C975 H978 0.950 . S
C976 C975 1.387 . S
C976 C979 1.387 . S
H977 C973 0.950 . S
H978 C975 0.950 . S
C979 C970 1.390 . S
C979 H972 0.950 . S
C979 C976 1.387 . S
C980 C981 1.387 . S
C980 H984 0.950 . S
C980 C989 1.390 . S
C981 C980 1.387 . S
C981 C983 1.387 . S
H982 C989 0.950 . S
C983 C981 1.387 . S
C983 C985 1.390 . S
C983 H987 0.950 . S
H984 C980 0.950 . S
C985 C983 1.390 . S
C985 C986 1.387 . S
C985 H988 0.950 . S
C986 C985 1.387 . S
C986 C989 1.387 . S
H987 C983 0.950 . S
H988 C985 0.950 . S
C989 C980 1.390 . S
C989 H982 0.950 . S
C989 C986 1.387 . S
C990 C991 1.387 . S
C990 H994 0.950 . S
C990 C999 1.390 . S
C991 C990 1.387 . S
C991 C993 1.387 . S
H992 C999 0.950 . S
C993 C991 1.387 . S
C993 C995 1.390 . S
C993 H997 0.950 . S
H994 C990 0.950 . S
C995 C993 1.390 . S
C995 C996 1.387 . S
C995 H998 0.950 . S
C996 C995 1.387 . S
C996 C999 1.387 . S
H997 C993 0.950 . S
H998 C995 0.950 . S
C999 C990 1.390 . S
C999 H992 0.950 . S
C999 C996 1.387 . S
C1000 C1001 1.387 . S
C1000 H1004 0.950 . S
C1000 C1009 1.390 . S
C1001 C1000 1.387 . S
C1001 C1003 1.387 . S
H1002 C1009 0.950 . S
C1003 C1001 1.387 . S
C1003 C1005 1.390 . S
C1003 H1007 0.950 . S
H1004 C1000 0.950 . S
C1005 C1003 1.390 . S
C1005 C1006 1.387 . S
C1005 H1008 0.950 . S
C1006 C1005 1.387 . S
C1006 C1009 1.387 . S
H1007 C1003 0.950 . S
H1008 C1005 0.950 . S
C1009 C1000 1.390 . S
C1009 H1002 0.950 . S
C1009 C1006 1.387 . S
C1010 C1011 1.387 . S
C1010 H1014 0.950 . S
C1010 C1019 1.390 . S
C1011 C1010 1.387 . S
C1011 C1013 1.387 . S
H1012 C1019 0.950 . S
C1013 C1011 1.387 . S
C1013 C1015 1.390 . S
C1013 H1017 0.950 . S
H1014 C1010 0.950 . S
C1015 C1013 1.390 . S
C1015 C1016 1.387 . S
C1015 H1018 0.950 . S
C1016 C1015 1.387 . S
C1016 C1019 1.387 . S
H1017 C1013 0.950 . S
H1018 C1015 0.950 . S
C1019 C1010 1.390 . S
C1019 H1012 0.950 . S
C1019 C1016 1.387 . S
C1020 C1021 1.387 . S
C1020 H1024 0.950 . S
C1020 C1029 1.390 . S
C1021 C1020 1.387 . S
C1021 C1023 1.387 . S
H1022 C1029 0.950 . S
C1023 C1021 1.387 . S
C1023 C1025 1.390 . S
C1023 H1027 0.950 . S
H1024 C1020 0.950 . S
C1025 C1023 1.390 . S
C1025 C1026 1.387 . S
C1025 H1028 0.950 . S
C1026 C1025 1.387 . S
C1026 C1029 1.387 . S
H1027 C1023 0.950 . S
H1028 C1025 0.950 . S
C1029 C1020 1.390 . S
C1029 H1022 0.950 . S
C1029 C1026 1.387 . S
C1030 C1031 1.387 . S
C1030 H1034 0.950 . S
C1030 C1039 1.390 . S
C1031 C1030 1.387 . S
C1031 C1033 1.387 . S
H1032 C1039 0.950 . S
C1033 C1031 1.387 . S
C1033 C1035 1.390 . S
C1033 H1037 0.950 . S
H1034 C1030 0.950 . S
C1035 C1033 1.390 . S
C1035 C1036 1.387 . S
C1035 H1038 0.950 . S
C1036 C1035 1.387 . S
C1036 C1039 1.387 . S
H1037 C1033 0.950 . S
H1038 C1035 0.950 . S
C1039 C1030 1.390 . S
C1039 H1032 0.950 . S
C1039 C1036 1.387 . S
C1040 C1041 1.387 . S
C1040 H1044 0.950 . S
C1040 C1049 1.390 . S
C1041 C1040 1.387 . S
C1041 C1043 1.387 . S
H1042 C1049 0.950 . S
C1043 C1041 1.387 . S
C1043 C1045 1.390 . S
C1043 H1047 0.950 . S
H1044 C1040 0.950 . S
C1045 C1043 1.390 . S
C1045 C1046 1.387 . S
C1045 H1048 0.950 . S
C1046 C1045 1.387 . S
C1046 C1049 1.387 . S
H1047 C1043 0.950 . S
H1048 C1045 0.950 . S
C1049 C1040 1.390 . S
C1049 H1042 0.950 . S
C1049 C1046 1.387 . S
C1050 C1051 1.387 . S
C1050 H1054 0.950 . S
C1050 C1059 1.390 . S
C1051 C1050 1.387 . S
C1051 C1053 1.387 . S
H1052 C1059 0.950 . S
C1053 C1051 1.387 . S
C1053 C1055 1.390 . S
C1053 H1057 0.950 . S
H1054 C1050 0.950 . S
C1055 C1053 1.390 . S
C1055 C1056 1.387 . S
C1055 H1058 0.950 . S
C1056 C1055 1.387 . S
C1056 C1059 1.387 . S
H1057 C1053 0.950 . S
H1058 C1055 0.950 . S
C1059 C1050 1.390 . S
C1059 H1052 0.950 . S
C1059 C1056 1.387 . S
C1060 C1061 1.387 . S
C1060 H1064 0.950 . S
C1060 C1069 1.390 . S
C1061 C1060 1.387 . S
C1061 C1063 1.387 . S
H1062 C1069 0.950 . S
C1063 C1061 1.387 . S
C1063 C1065 1.390 . S
C1063 H1067 0.950 . S
H1064 C1060 0.950 . S
C1065 C1063 1.390 . S
C1065 C1066 1.387 . S
C1065 H1068 0.950 . S
C1066 C1065 1.387 . S
C1066 C1069 1.387 . S
H1067 C1063 0.950 . S
H1068 C1065 0.950 . S
C1069 C1060 1.390 . S
C1069 H1062 0.950 . S
C1069 C1066 1.387 . S
C1070 C1071 1.387 . S
C1070 H1074 0.950 . S
C1070 C1079 1.390 . S
C1071 C1070 1.387 . S
C1071 C1073 1.387 . S
H1072 C1079 0.950 . S
C1073 C1071 1.387 . S
C1073 C1075 1.390 . S
C1073 H1077 0.950 . S
H1074 C1070 0.950 . S
C1075 C1073 1.390 . S
C1075 C1076 1.387 . S
C1075 H1078 0.950 . S
C1076 C1075 1.387 . S
C1076 C1079 1.387 . S
H1077 C1073 0.950 . S
H1078 C1075 0.950 . S
C1079 C1070 1.390 . S
C1079 H1072 0.950 . S
C1079 C1076 1.387 . S
C1080 C1081 1.387 . S
C1080 H1084 0.950 . S
C1080 C1089 1.390 1_554 S
C1081 C1080 1.387 . S
C1081 C1083 1.387 1_455 S
H1082 C1089 0.950 . S
C1083 C1081 1.387 1_655 S
C1083 C1085 1.390 1_655 S
C1083 H1087 0.950 . S
H1084 C1080 0.950 . S
C1085 C1083 1.390 1_455 S
C1085 C1086 1.387 1_554 S
C1085 H1088 0.954 1_455 S
C1086 C1085 1.387 1_556 S
C1086 C1089 1.387 . S
H1087 C1083 0.950 . S
H1088 C1085 0.954 1_655 S
C1089 C1080 1.390 1_556 S
C1089 H1082 0.950 . S
C1089 C1086 1.387 . S
C1090 C1091 1.387 . S
C1090 H1094 0.950 . S
C1090 C1099 1.390 1_554 S
C1091 C1090 1.387 . S
C1091 C1093 1.387 1_554 S
H1092 C1099 0.950 . S
C1093 C1091 1.387 1_556 S
C1093 C1095 1.390 . S
C1093 H1097 0.950 . S
H1094 C1090 0.950 . S
C1095 C1093 1.390 . S
C1095 C1096 1.387 . S
C1095 H1098 0.950 . S
C1096 C1095 1.387 . S
C1096 C1099 1.387 . S
H1097 C1093 0.950 . S
H1098 C1095 0.950 . S
C1099 C1090 1.390 1_556 S
C1099 H1092 0.950 . S
C1099 C1096 1.387 . S
C1100 C1101 1.387 . S
C1100 H1104 0.950 . S
C1100 C1109 1.390 1_554 S
C1101 C1100 1.387 . S
C1101 C1103 1.387 1_565 S
H1102 C1109 0.950 . S
C1103 C1101 1.387 1_545 S
C1103 C1105 1.390 1_554 S
C1103 H1107 0.950 . S
H1104 C1100 0.950 . S
C1105 C1103 1.390 1_556 S
C1105 C1106 1.387 . S
C1105 H1108 0.950 . S
C1106 C1105 1.387 . S
C1106 C1109 1.387 1_545 S
H1107 C1103 0.950 . S
H1108 C1105 0.950 . S
C1109 C1100 1.390 1_556 S
C1109 H1102 0.950 . S
C1109 C1106 1.387 1_565 S
C1110 C1111 1.387 1_655 S
C1110 H1114 0.950 . S
C1110 C1119 1.390 1_556 S
C1111 C1110 1.387 1_455 S
C1111 C1113 1.387 1_556 S
H1112 C1119 0.950 . S
C1113 C1111 1.387 1_554 S
C1113 C1115 1.390 . S
C1113 H1117 0.950 . S
H1114 C1110 0.950 . S
C1115 C1113 1.390 . S
C1115 C1116 1.398 . S
C1115 H1118 0.950 . S
C1116 C1115 1.398 . S
C1116 C1119 1.382 1_455 S
H1117 C1113 0.950 . S
H1118 C1115 0.950 . S
C1119 C1110 1.390 1_554 S
C1119 H1112 0.950 . S
C1119 C1116 1.382 1_655 S
C1120 C1121 1.387 . S
C1120 H1124 0.950 . S
C1120 C1129 1.390 . S
C1121 C1120 1.387 . S
C1121 C1123 1.387 . S
H1122 C1129 0.950 . S
C1123 C1121 1.387 . S
C1123 C1125 1.390 1_554 S
C1123 H1127 0.950 . S
H1124 C1120 0.950 . S
C1125 C1123 1.390 1_556 S
C1125 C1126 1.387 . S
C1125 H1128 0.950 . S
C1126 C1125 1.387 . S
C1126 C1129 1.387 1_556 S
H1127 C1123 0.950 . S
H1128 C1125 0.950 . S
C1129 C1120 1.390 . S
C1129 H1122 0.950 . S
C1129 C1126 1.387 1_554 S
C1130 C1131 1.396 . S
C1130 H1134 0.950 . S
C1130 C1139 1.390 1_554 S
C1131 C1130 1.396 . S
C1131 C1133 1.370 1_565 S
H1132 C1139 0.950 . S
C1133 C1131 1.370 1_545 S
C1133 C1135 1.390 . S
C1133 H1137 0.950 . S
H1134 C1130 0.950 . S
C1135 C1133 1.390 . S
C1135 C1136 1.387 1_554 S
C1135 H1138 0.950 . S
C1136 C1135 1.387 1_556 S
C1136 C1139 1.387 1_545 S
H1137 C1133 0.950 . S
H1138 C1135 0.950 . S
C1139 C1130 1.390 1_556 S
C1139 H1132 0.950 . S
C1139 C1136 1.387 1_565 S
C1140 C1141 1.387 . S
C1140 H1144 0.950 . S
C1140 C1149 1.390 . S
C1141 C1140 1.387 . S
C1141 C1143 1.387 . S
H1142 C1149 0.950 . S
C1143 C1141 1.387 . S
C1143 C1145 1.390 . S
C1143 H1147 0.950 . S
H1144 C1140 0.950 . S
C1145 C1143 1.390 . S
C1145 C1146 1.387 . S
C1145 H1148 0.950 . S
C1146 C1145 1.387 . S
C1146 C1149 1.387 . S
H1147 C1143 0.950 . S
H1148 C1145 0.950 . S
C1149 C1140 1.390 . S
C1149 H1142 0.950 . S
C1149 C1146 1.387 . S
C1150 C1151 1.387 . S
C1150 H1154 0.950 . S
C1150 C1159 1.390 . S
C1151 C1150 1.387 . S
C1151 C1153 1.387 . S
H1152 C1159 0.950 . S
C1153 C1151 1.387 . S
C1153 C1155 1.390 . S
C1153 H1157 0.950 . S
H1154 C1150 0.950 . S
C1155 C1153 1.390 . S
C1155 C1156 1.387 . S
C1155 H1158 0.950 . S
C1156 C1155 1.387 . S
C1156 C1159 1.387 . S
H1157 C1153 0.950 . S
H1158 C1155 0.950 . S
C1159 C1150 1.390 . S
C1159 H1152 0.950 . S
C1159 C1156 1.387 . S
C1160 C1161 1.387 . S
C1160 H1164 0.950 . S
C1160 C1169 1.390 . S
C1161 C1160 1.387 . S
C1161 C1163 1.387 . S
H1162 C1169 0.950 . S
C1163 C1161 1.387 . S
C1163 C1165 1.390 . S
C1163 H1167 0.950 . S
H1164 C1160 0.950 . S
C1165 C1163 1.390 . S
C1165 C1166 1.387 . S
C1165 H1168 0.950 . S
C1166 C1165 1.387 . S
C1166 C1169 1.387 . S
H1167 C1163 0.950 . S
H1168 C1165 0.950 . S
C1169 C1160 1.390 . S
C1169 H1162 0.950 . S
C1169 C1166 1.387 . S
C1170 C1171 1.387 . S
C1170 H1174 0.950 . S
C1170 C1179 1.390 . S
C1171 C1170 1.387 . S
C1171 C1173 1.387 . S
H1172 C1179 0.950 . S
C1173 C1171 1.387 . S
C1173 C1175 1.390 . S
C1173 H1177 0.950 . S
H1174 C1170 0.950 . S
C1175 C1173 1.390 . S
C1175 C1176 1.387 . S
C1175 H1178 0.950 . S
C1176 C1175 1.387 . S
C1176 C1179 1.387 . S
H1177 C1173 0.950 . S
H1178 C1175 0.950 . S
C1179 C1170 1.390 . S
C1179 H1172 0.950 . S
C1179 C1176 1.387 . S
C1180 C1181 1.387 . S
C1180 H1184 0.950 . S
C1180 C1189 1.390 . S
C1181 C1180 1.387 . S
C1181 C1183 1.387 . S
H1182 C1189 0.950 . S
C1183 C1181 1.387 . S
C1183 C1185 1.390 . S
C1183 H1187 0.950 . S
H1184 C1180 0.950 . S
C1185 C1183 1.390 . S
C1185 C1186 1.387 . S
C1185 H1188 0.950 . S
C1186 C1185 1.387 . S
C1186 C1189 1.387 . S
H1187 C1183 0.950 . S
H1188 C1185 0.950 . S
C1189 C1180 1.390 . S
C1189 H1182 0.950 . S
C1189 C1186 1.387 . S
C1190 C1191 1.387 . S
C1190 H1194 0.950 . S
C1190 C1199 1.390 . S
C1191 C1190 1.387 . S
C1191 C1193 1.387 . S
H1192 C1199 0.950 . S
C1193 C1191 1.387 . S
C1193 C1195 1.390 . S
C1193 H1197 0.950 . S
H1194 C1190 0.950 . S
C1195 C1193 1.390 . S
C1195 C1196 1.387 . S
C1195 H1198 0.950 . S
C1196 C1195 1.387 . S
C1196 C1199 1.387 . S
H1197 C1193 0.950 . S
H1198 C1195 0.950 . S
C1199 C1190 1.390 . S
C1199 H1192 0.950 . S
C1199 C1196 1.387 . S
C1200 C1201 1.387 . S
C1200 H1204 0.950 . S
C1200 C1209 1.390 . S
C1201 C1200 1.387 . S
C1201 C1203 1.387 . S
H1202 C1209 0.950 . S
C1203 C1201 1.387 . S
C1203 C1205 1.390 . S
C1203 H1207 0.950 . S
H1204 C1200 0.950 . S
C1205 C1203 1.390 . S
C1205 C1206 1.387 . S
C1205 H1208 0.950 . S
C1206 C1205 1.387 . S
C1206 C1209 1.387 . S
H1207 C1203 0.950 . S
H1208 C1205 0.950 . S
C1209 C1200 1.390 . S
C1209 H1202 0.950 . S
C1209 C1206 1.387 . S
C1210 C1211 1.387 . S
C1210 H1214 0.950 . S
C1210 C1219 1.390 . S
C1211 C1210 1.387 . S
C1211 C1213 1.387 . S
H1212 C1219 0.950 . S
C1213 C1211 1.387 . S
C1213 C1215 1.390 . S
C1213 H1217 0.950 . S
H1214 C1210 0.950 . S
C1215 C1213 1.390 . S
C1215 C1216 1.387 . S
C1215 H1218 0.950 . S
C1216 C1215 1.387 . S
C1216 C1219 1.387 . S
H1217 C1213 0.950 . S
H1218 C1215 0.950 . S
C1219 C1210 1.390 . S
C1219 H1212 0.950 . S
C1219 C1216 1.387 . S
C1220 C1221 1.387 . S
C1220 H1224 0.950 . S
C1220 C1229 1.390 . S
C1221 C1220 1.387 . S
C1221 C1223 1.387 . S
H1222 C1229 0.950 . S
C1223 C1221 1.387 . S
C1223 C1225 1.390 . S
C1223 H1227 0.950 . S
H1224 C1220 0.950 . S
C1225 C1223 1.390 . S
C1225 C1226 1.387 . S
C1225 H1228 0.950 . S
C1226 C1225 1.387 . S
C1226 C1229 1.387 . S
H1227 C1223 0.950 . S
H1228 C1225 0.950 . S
C1229 C1220 1.390 . S
C1229 H1222 0.950 . S
C1229 C1226 1.387 . S
C1230 C1231 1.387 . S
C1230 H1234 0.950 . S
C1230 C1239 1.390 . S
C1231 C1230 1.387 . S
C1231 C1233 1.387 . S
H1232 C1239 0.950 . S
C1233 C1231 1.387 . S
C1233 C1235 1.390 . S
C1233 H1237 0.950 . S
H1234 C1230 0.950 . S
C1235 C1233 1.390 . S
C1235 C1236 1.387 . S
C1235 H1238 0.950 . S
C1236 C1235 1.387 . S
C1236 C1239 1.387 . S
H1237 C1233 0.950 . S
H1238 C1235 0.950 . S
C1239 C1230 1.390 . S
C1239 H1232 0.950 . S
C1239 C1236 1.387 . S
C1240 C1241 1.387 . S
C1240 H1244 0.950 . S
C1240 C1249 1.390 . S
C1241 C1240 1.387 . S
C1241 C1243 1.387 . S
H1242 C1249 0.950 . S
C1243 C1241 1.387 . S
C1243 C1245 1.390 . S
C1243 H1247 0.950 . S
H1244 C1240 0.950 . S
C1245 C1243 1.390 . S
C1245 C1246 1.387 . S
C1245 H1248 0.950 . S
C1246 C1245 1.387 . S
C1246 C1249 1.387 . S
H1247 C1243 0.950 . S
H1248 C1245 0.950 . S
C1249 C1240 1.390 . S
C1249 H1242 0.950 . S
C1249 C1246 1.387 . S
C1250 C1251 1.387 . S
C1250 H1254 0.950 . S
C1250 C1259 1.390 . S
C1251 C1250 1.387 . S
C1251 C1253 1.387 . S
H1252 C1259 0.950 . S
C1253 C1251 1.387 . S
C1253 C1255 1.390 . S
C1253 H1257 0.950 . S
H1254 C1250 0.950 . S
C1255 C1253 1.390 . S
C1255 C1256 1.387 . S
C1255 H1258 0.950 . S
C1256 C1255 1.387 . S
C1256 C1259 1.387 . S
H1257 C1253 0.950 . S
H1258 C1255 0.950 . S
C1259 C1250 1.390 . S
C1259 H1252 0.950 . S
C1259 C1256 1.387 . S
C721 C539 2.522 . S
C726 C19 2.533 . S
C731 C58 2.070 . S
C736 C578 2.064 . S
C741 C99 2.298 . S
C746 C498 2.345 . S
C751 C98 1.915 . S
C756 C298 1.916 . S
C761 C338 2.220 . S
C766 C18 2.211 . S
C771 C59 2.377 . S
C776 C258 2.425 . S
C781 C130 2.294 . S
C786 C409 2.317 . S
C791 C169 1.778 . S
C796 C449 1.776 . S
C801 C369 2.036 . S
C806 C210 1.985 . S
C811 C649 2.080 . S
C816 C209 2.086 . S
C821 C129 2.338 . S
C826 C690 2.305 . S
C831 C610 2.553 . S
C836 C170 2.516 . S
C841 C339 2.184 . S
C846 C538 2.236 . S
C851 C259 2.425 . S
C856 C579 2.409 . S
C861 C299 2.675 . S
C866 C499 2.704 . S
C871 C370 2.814 . S
C876 C650 2.800 . S
C881 C689 2.370 . S
C886 C410 2.346 . S
C891 C609 2.652 . S
C896 C450 2.604 . S
C901 C9 1.450 . S
C906 C178 1.451 . S
C911 C219 1.881 . S
C916 C50 1.883 . S
C921 C139 1.680 . S
C926 C89 1.524 . S
C931 C179 1.907 . S
C936 C90 1.962 . S
C941 C218 1.688 . S
C946 C10 1.727 . S
C951 C138 1.526 . S
C956 C49 1.589 . S
C961 C419 1.984 . S
C966 C250 1.973 . S
C971 C459 2.048 . S
C976 C290 2.034 . S
C981 C379 2.076 . S
C986 C330 1.963 . S
C991 C418 1.511 . S
C996 C329 1.516 . S
C1001 C458 1.439 . S
C1006 C249 1.584 . S
C1011 C378 1.468 . S
C1016 C289 1.484 . S
C1021 C658 1.594 . S
C1026 C489 1.532 . S
C1031 C699 1.966 . S
C1036 C530 1.913 . S
C1041 C569 1.692 . S
C1046 C619 1.732 . S
C1051 C570 2.076 . S
C1056 C659 2.079 . S
C1061 C490 1.842 . S
C1066 C698 1.687 . S
C1071 C618 1.574 . S
C1076 C529 1.567 . S
C1081 C15 1.382 . S
C1086 C6 1.381 . S
C1091 C46 1.515 . S
C1096 C55 1.515 . S
C1101 C95 1.379 . S
C1106 C86 1.379 . S
C1111 C126 1.488 . S
C1116 C135 1.486 1_455 S
C1121 C166 1.355 . S
C1126 C175 1.355 . S
C1131 C215 1.584 . S
C1136 C206 1.579 . S
C1141 C255 1.769 . S
C1146 C246 1.769 . S
C1151 C286 1.327 . S
C1156 C295 1.327 . S
C1161 C335 1.763 . S
C1166 C326 1.763 . S
C1171 C366 1.334 . S
C1176 C375 1.334 . S
C1181 C406 1.708 . S
C1186 C415 1.708 . S
C1191 C446 1.341 . S
C1196 C455 1.341 . S
C1201 C486 1.362 . S
C1206 C495 1.362 . S
C1211 C526 1.488 . S
C1216 C535 1.488 . S
C1221 C575 1.385 . S
C1226 C566 1.385 . S
C1231 C615 1.548 . S
C1236 C606 1.548 . S
C1241 C646 1.351 . S
C1246 C655 1.351 . S
C1251 C686 1.479 . S
C1256 C695 1.479 . S
