# Generated by pormake.
# Topology uoz, (4)-cn, num edge types: 1
# Building blocks:
#     Node 0, Type 0, BuildingBlock: UXUYUI_clean_sbu_0, # of connection points: 4
#     Node 1, Type 0, BuildingBlock: UXUYUI_clean_sbu_0, # of connection points: 4
#     Node 2, Type 0, BuildingBlock: UXUYUI_clean_sbu_0, # of connection points: 4
#     Node 3, Type 0, BuildingBlock: UXUYUI_clean_sbu_0, # of connection points: 4
#     Node 4, Type 0, BuildingBlock: UXUYUI_clean_sbu_0, # of connection points: 4
#     Node 5, Type 0, BuildingBlock: UXUYUI_clean_sbu_0, # of connection points: 4
#     Node 6, Type 0, BuildingBlock: UXUYUI_clean_sbu_0, # of connection points: 4
#     Node 7, Type 0, BuildingBlock: UXUYUI_clean_sbu_0, # of connection points: 4
#     Node 8, Type 0, BuildingBlock: UXUYUI_clean_sbu_0, # of connection points: 4
#     Node 9, Type 0, BuildingBlock: UXUYUI_clean_sbu_0, # of connection points: 4
#     Node 10, Type 0, BuildingBlock: UXUYUI_clean_sbu_0, # of connection points: 4
#     Node 11, Type 0, BuildingBlock: UXUYUI_clean_sbu_0, # of connection points: 4
#     Node 12, Type 0, BuildingBlock: UXUYUI_clean_sbu_0, # of connection points: 4
#     Node 13, Type 0, BuildingBlock: UXUYUI_clean_sbu_0, # of connection points: 4
#     Node 14, Type 0, BuildingBlock: UXUYUI_clean_sbu_0, # of connection points: 4
#     Node 15, Type 0, BuildingBlock: UXUYUI_clean_sbu_0, # of connection points: 4
#     Edge 16, Type (0, 0), BuildingBlock: TEMPAE_clean_linker_10, # of connection points: 2
#     Edge 17, Type (0, 0), BuildingBlock: TEMPAE_clean_linker_10, # of connection points: 2
#     Edge 18, Type (0, 0), BuildingBlock: TEMPAE_clean_linker_10, # of connection points: 2
#     Edge 19, Type (0, 0), BuildingBlock: TEMPAE_clean_linker_10, # of connection points: 2
#     Edge 20, Type (0, 0), BuildingBlock: TEMPAE_clean_linker_10, # of connection points: 2
#     Edge 21, Type (0, 0), BuildingBlock: TEMPAE_clean_linker_10, # of connection points: 2
#     Edge 22, Type (0, 0), BuildingBlock: TEMPAE_clean_linker_10, # of connection points: 2
#     Edge 23, Type (0, 0), BuildingBlock: TEMPAE_clean_linker_10, # of connection points: 2
#     Edge 24, Type (0, 0), BuildingBlock: TEMPAE_clean_linker_10, # of connection points: 2
#     Edge 25, Type (0, 0), BuildingBlock: TEMPAE_clean_linker_10, # of connection points: 2
#     Edge 26, Type (0, 0), BuildingBlock: TEMPAE_clean_linker_10, # of connection points: 2
#     Edge 27, Type (0, 0), BuildingBlock: TEMPAE_clean_linker_10, # of connection points: 2
#     Edge 28, Type (0, 0), BuildingBlock: TEMPAE_clean_linker_10, # of connection points: 2
#     Edge 29, Type (0, 0), BuildingBlock: TEMPAE_clean_linker_10, # of connection points: 2
#     Edge 30, Type (0, 0), BuildingBlock: TEMPAE_clean_linker_10, # of connection points: 2
#     Edge 31, Type (0, 0), BuildingBlock: TEMPAE_clean_linker_10, # of connection points: 2
#     Edge 32, Type (0, 0), BuildingBlock: TEMPAE_clean_linker_10, # of connection points: 2
#     Edge 33, Type (0, 0), BuildingBlock: TEMPAE_clean_linker_10, # of connection points: 2
#     Edge 34, Type (0, 0), BuildingBlock: TEMPAE_clean_linker_10, # of connection points: 2
#     Edge 35, Type (0, 0), BuildingBlock: TEMPAE_clean_linker_10, # of connection points: 2
#     Edge 36, Type (0, 0), BuildingBlock: TEMPAE_clean_linker_10, # of connection points: 2
#     Edge 37, Type (0, 0), BuildingBlock: TEMPAE_clean_linker_10, # of connection points: 2
#     Edge 38, Type (0, 0), BuildingBlock: TEMPAE_clean_linker_10, # of connection points: 2
#     Edge 39, Type (0, 0), BuildingBlock: TEMPAE_clean_linker_10, # of connection points: 2
#     Edge 40, Type (0, 0), BuildingBlock: TEMPAE_clean_linker_10, # of connection points: 2
#     Edge 41, Type (0, 0), BuildingBlock: TEMPAE_clean_linker_10, # of connection points: 2
#     Edge 42, Type (0, 0), BuildingBlock: TEMPAE_clean_linker_10, # of connection points: 2
#     Edge 43, Type (0, 0), BuildingBlock: TEMPAE_clean_linker_10, # of connection points: 2
#     Edge 44, Type (0, 0), BuildingBlock: TEMPAE_clean_linker_10, # of connection points: 2
#     Edge 45, Type (0, 0), BuildingBlock: TEMPAE_clean_linker_10, # of connection points: 2
#     Edge 46, Type (0, 0), BuildingBlock: TEMPAE_clean_linker_10, # of connection points: 2
#     Edge 47, Type (0, 0), BuildingBlock: TEMPAE_clean_linker_10, # of connection points: 2
# Relax obj value: 0.206
# Max RMSD: 0.135
# Mean RMSD: 0.135
data_MOF--net-uoz--node1-UXUYUI_clean_sbu_0--edge1-TEMPAE_clean_linker_10
_symmetry_space_group_name_H-M    P1
_symmetry_Int_Tables_number       1
_symmetry_cell_setting            triclinic
loop_
_symmetry_equiv_pos_as_xyz
'x, y, z'
_cell_length_a     87.337434
_cell_length_b     87.156864
_cell_length_c     33.468064
_cell_angle_alpha  89.997772
_cell_angle_beta   90.003124
_cell_angle_gamma 90.012988
loop_
_atom_site_label
_atom_site_type_symbol
_atom_site_fract_x
_atom_site_fract_y
_atom_site_fract_z
_atom_type_partial_charge
Li0 Li 0.98715 0.5949 0.30861 0.0
Li1 Li 0.01512 0.59453 0.31614 0.0
Li2 Li 0.00181 0.57358 0.28135 0.0
Li3 Li 1.00019 0.57612 0.35316 0.0
C4 C 0.00519 0.59463 0.22674 0.0
N5 N 0.0102 0.59178 0.14557 0.0
C6 C 0.01993 0.59643 0.21117 0.0
C7 C 0.99298 0.59145 0.20101 0.0
C8 C 0.02222 0.59495 0.17004 0.0
C9 C 0.99576 0.59002 0.16008 0.0
C10 C 0.00536 0.61159 0.37562 0.0
C11 C 0.02459 0.62355 0.41686 0.0
N12 N 0.01849 0.63753 0.40832 0.0
C13 C 0.9992 0.62605 0.36747 0.0
C14 C 0.01807 0.61028 0.40072 0.0
C15 C 0.00604 0.63904 0.38422 0.0
C16 C 0.95706 0.60925 0.31736 0.0
N17 N 0.97049 0.60858 0.2968 0.0
C18 C 0.96162 0.62755 0.2507 0.0
C19 C 0.97302 0.61777 0.26467 0.0
C20 C 0.94743 0.62817 0.2703 0.0
C21 C 0.94525 0.61894 0.30435 0.0
H22 H 0.95542 0.60217 0.3435 0.0
H23 H 0.98389 0.61745 0.24942 0.0
C24 C 0.04686 0.60311 0.31031 0.0
N25 N 0.03207 0.60801 0.3099 0.0
C26 C 0.0585 0.61256 0.2953 0.0
C27 C 0.03949 0.63201 0.28151 0.0
C28 C 0.02828 0.62223 0.29657 0.0
C29 C 0.05475 0.62703 0.27941 0.0
H30 H 0.04948 0.59155 0.31985 0.0
H31 H 0.01638 0.6256 0.29522 0.0
C32 C 0.96777 0.57165 0.31849 0.0
N33 N 0.93632 0.57064 0.32717 0.0
C34 C 0.96127 0.56986 0.35638 0.0
C35 C 0.95827 0.57297 0.28504 0.0
C36 C 0.94534 0.56933 0.36012 0.0
C37 C 0.9424 0.57244 0.29005 0.0
C38 C 0.02628 0.56125 0.3405 0.0
C39 C 0.02454 0.54589 0.3294 0.0
C40 C 0.03527 0.56501 0.37362 0.0
C41 C 0.03166 0.53449 0.3521 0.0
C42 C 0.04219 0.55327 0.39557 0.0
N43 N 0.04024 0.53838 0.38447 0.0
C44 C 0.01675 0.55743 0.21989 0.0
C45 C 0.9904 0.55159 0.2278 0.0
C46 C 0.01779 0.54747 0.18738 0.0
N47 N 0.00315 0.55941 0.2389 0.0
C48 C 0.99091 0.54153 0.19552 0.0
C49 C 0.00471 0.53947 0.17468 0.0
H50 H 0.02673 0.56374 0.22974 0.0
H51 H 0.97983 0.55318 0.24398 0.0
C52 C 0.00211 0.56683 0.43696 0.0
N53 N 0.99874 0.56286 0.39866 0.0
C54 C 0.00153 0.55577 0.46738 0.0
C55 C 0.99412 0.53688 0.41821 0.0
C56 C 0.99466 0.54828 0.38905 0.0
C57 C 0.99756 0.54048 0.45815 0.0
H58 H 0.00538 0.57851 0.44381 0.0
H59 H 0.99215 0.54542 0.35828 0.0
O60 O 0.00273 0.59569 0.26704 0.0
O61 O 0.99897 0.59877 0.35904 0.0
O62 O 0.98334 0.57214 0.31413 0.0
O63 O 0.01908 0.57255 0.3193 0.0
H64 H 0.02954 0.59876 0.23061 0.0
H65 H 0.98152 0.58993 0.21262 0.0
H66 H 0.03358 0.59625 0.15759 0.0
H67 H 0.98643 0.58746 0.13986 0.0
H68 H 0.03449 0.62273 0.43616 0.0
H69 H 0.98934 0.62724 0.34815 0.0
H70 H 0.02291 0.59916 0.40745 0.0
H71 H 0.00146 0.65032 0.378 0.0
H72 H 0.96384 0.63431 0.22418 0.0
H73 H 0.93458 0.61924 0.32081 0.0
H74 H 0.07011 0.60824 0.29389 0.0
H75 H 0.03612 0.64313 0.27004 0.0
H76 H 0.96841 0.56898 0.38267 0.0
H77 H 0.96309 0.5746 0.25556 0.0
H78 H 0.94016 0.56796 0.38925 0.0
H79 H 0.93492 0.57352 0.26445 0.0
H80 H 0.01759 0.5428 0.30388 0.0
H81 H 0.03678 0.57685 0.38246 0.0
H82 H 0.03031 0.52254 0.34407 0.0
H83 H 0.04909 0.55599 0.42146 0.0
H84 H 0.02863 0.54624 0.17198 0.0
H85 H 0.98065 0.53533 0.18716 0.0
H86 H 0.00411 0.55917 0.49775 0.0
H87 H 0.99136 0.52528 0.40919 0.0
Li88 Li 0.67199 0.75054 0.61406 0.0
Li89 Li 0.65152 0.76555 0.57828 0.0
Li90 Li 0.65285 0.73711 0.57337 0.0
Li91 Li 0.67236 0.75312 0.54277 0.0
C92 C 0.64597 0.74035 0.65424 0.0
N93 N 0.64011 0.72131 0.71845 0.0
C94 C 0.63527 0.74464 0.68319 0.0
C95 C 0.65369 0.72636 0.65792 0.0
C96 C 0.63247 0.73486 0.71544 0.0
C97 C 0.65056 0.7169 0.6906 0.0
C98 C 0.68472 0.77887 0.56605 0.0
C99 C 0.69264 0.79698 0.51563 0.0
N100 N 0.7073 0.79595 0.52911 0.0
C101 C 0.69983 0.77808 0.5796 0.0
C102 C 0.68105 0.78847 0.53399 0.0
C103 C 0.71109 0.78678 0.56048 0.0
C104 C 0.69939 0.74288 0.65064 0.0
N105 N 0.68563 0.74947 0.6586 0.0
C106 C 0.6938 0.75574 0.7249 0.0
C107 C 0.68257 0.75574 0.69495 0.0
C108 C 0.70831 0.74935 0.71712 0.0
C109 C 0.71091 0.74267 0.67952 0.0
H110 H 0.70158 0.73814 0.62134 0.0
H111 H 0.67156 0.76104 0.70036 0.0
C112 C 0.62306 0.77831 0.56335 0.0
N113 N 0.63748 0.7821 0.57489 0.0
C114 C 0.61317 0.78953 0.54868 0.0
C115 C 0.63269 0.80858 0.56144 0.0
C116 C 0.6423 0.79693 0.57544 0.0
C117 C 0.6181 0.80487 0.54625 0.0
H118 H 0.61971 0.76636 0.5624 0.0
H119 H 0.6539 0.79958 0.58437 0.0
C120 C 0.67969 0.72171 0.55178 0.0
N121 N 0.68807 0.69653 0.50663 0.0
C122 C 0.67485 0.72042 0.51213 0.0
C123 C 0.68884 0.71022 0.56844 0.0
C124 C 0.67919 0.7076 0.4898 0.0
C125 C 0.69294 0.69757 0.54514 0.0
C126 C 0.64386 0.75469 0.49471 0.0
C127 C 0.63918 0.74214 0.47168 0.0
C128 C 0.64144 0.76957 0.48032 0.0
C129 C 0.63212 0.74469 0.43483 0.0
C130 C 0.63433 0.77163 0.44333 0.0
N131 N 0.62985 0.75925 0.42154 0.0
C132 C 0.62495 0.7247 0.55412 0.0
C133 C 0.64392 0.70539 0.55987 0.0
C134 C 0.61479 0.71433 0.5367 0.0
N135 N 0.6394 0.72025 0.56372 0.0
C136 C 0.63407 0.69458 0.54264 0.0
C137 C 0.61951 0.6992 0.52936 0.0
H138 H 0.62168 0.7366 0.55747 0.0
H139 H 0.65541 0.70206 0.56807 0.0
C140 C 0.70106 0.75124 0.5065 0.0
N141 N 0.68622 0.75492 0.49896 0.0
C142 C 0.71202 0.75231 0.47635 0.0
C143 C 0.69218 0.76074 0.43104 0.0
C144 C 0.68165 0.75965 0.46216 0.0
C145 C 0.70761 0.75708 0.43793 0.0
H146 H 0.70437 0.74754 0.53613 0.0
H147 H 0.66989 0.76257 0.45668 0.0
O148 O 0.64886 0.74988 0.62266 0.0
O149 O 0.67362 0.7701 0.58364 0.0
O150 O 0.6756 0.73413 0.57437 0.0
O151 O 0.65049 0.75242 0.53138 0.0
H152 H 0.62922 0.75544 0.68076 0.0
H153 H 0.66201 0.72282 0.63589 0.0
H154 H 0.62422 0.73804 0.73809 0.0
H155 H 0.65645 0.70606 0.69384 0.0
H156 H 0.69 0.80434 0.49055 0.0
H157 H 0.70287 0.77072 0.6044 0.0
H158 H 0.66943 0.78916 0.523 0.0
H159 H 0.72286 0.78621 0.57049 0.0
H160 H 0.69133 0.76111 0.75335 0.0
H161 H 0.7218 0.73741 0.67233 0.0
H162 H 0.60218 0.786 0.53686 0.0
H163 H 0.63689 0.82027 0.56093 0.0
H164 H 0.66784 0.72921 0.4987 0.0
H165 H 0.69267 0.71103 0.59913 0.0
H166 H 0.6755 0.70646 0.45908 0.0
H167 H 0.69999 0.68857 0.55768 0.0
H168 H 0.64097 0.73053 0.48204 0.0
H169 H 0.64516 0.77944 0.49724 0.0
H170 H 0.62842 0.73507 0.4168 0.0
H171 H 0.63241 0.78308 0.43191 0.0
H172 H 0.60356 0.71829 0.52756 0.0
H173 H 0.63814 0.683 0.5376 0.0
H174 H 0.72382 0.74957 0.48318 0.0
H175 H 0.6882 0.76422 0.40177 0.0
Li176 Li 0.50135 0.42662 0.79465 0.0
Li177 Li 0.49988 0.42072 0.86491 0.0
Li178 Li 0.51344 0.40325 0.8184 0.0
Li179 Li 0.48549 0.40457 0.81735 0.0
C180 C 0.53002 0.43459 0.82087 0.0
N181 N 0.5524 0.45481 0.79531 0.0
C182 C 0.53398 0.44729 0.84431 0.0
C183 C 0.53747 0.43224 0.78443 0.0
C184 C 0.54532 0.45735 0.83088 0.0
C185 C 0.54873 0.44257 0.77201 0.0
C186 C 0.47776 0.44155 0.83458 0.0
C187 C 0.45741 0.46023 0.83603 0.0
N188 N 0.46771 0.47129 0.84602 0.0
C189 C 0.48815 0.4531 0.84485 0.0
C190 C 0.46226 0.44512 0.83013 0.0
C191 C 0.48285 0.46806 0.85052 0.0
C192 C 0.49324 0.43911 0.72163 0.0
N193 N 0.50141 0.4423 0.75519 0.0
C194 C 0.5086 0.46677 0.72919 0.0
C195 C 0.5087 0.45598 0.75989 0.0
C196 C 0.50055 0.4636 0.69395 0.0
C197 C 0.4926 0.44969 0.69044 0.0
H198 H 0.48728 0.42828 0.71906 0.0
H199 H 0.51455 0.45862 0.78736 0.0
C200 C 0.51337 0.43409 0.93327 0.0
N201 N 0.49969 0.43056 0.91624 0.0
C202 C 0.5141 0.44467 0.96462 0.0
C203 C 0.48652 0.44665 0.96287 0.0
C204 C 0.48633 0.43611 0.93137 0.0
C205 C 0.50058 0.45151 0.97887 0.0
H206 H 0.52381 0.4294 0.92092 0.0
H207 H 0.47558 0.43317 0.91732 0.0
C208 C 0.5048 0.39783 0.74006 0.0
N209 N 0.51558 0.38101 0.67589 0.0
C210 C 0.50003 0.38267 0.73443 0.0
C211 C 0.51475 0.40454 0.71241 0.0
C212 C 0.50569 0.37433 0.70201 0.0
C213 C 0.52015 0.39583 0.68033 0.0
C214 C 0.48989 0.39254 0.8935 0.0
C215 C 0.49529 0.38118 0.91937 0.0
C216 C 0.47535 0.39884 0.89957 0.0
C217 C 0.48605 0.37633 0.95103 0.0
C218 C 0.46647 0.39369 0.93158 0.0
N219 N 0.47196 0.38263 0.95643 0.0
C220 C 0.54426 0.39313 0.80202 0.0
C221 C 0.5249 0.37412 0.80139 0.0
C222 C 0.55473 0.38288 0.78507 0.0
N223 N 0.52948 0.3888 0.80803 0.0
C224 C 0.53494 0.36351 0.78435 0.0
C225 C 0.54992 0.36802 0.77459 0.0
H226 H 0.54783 0.40468 0.80875 0.0
H227 H 0.51315 0.37089 0.80721 0.0
C228 C 0.45659 0.40033 0.78265 0.0
N229 N 0.46782 0.39305 0.80332 0.0
C230 C 0.44493 0.39191 0.76434 0.0
C231 C 0.45641 0.36867 0.7899 0.0
C232 C 0.46774 0.37757 0.80816 0.0
C233 C 0.445 0.37578 0.76667 0.0
H234 H 0.4571 0.41264 0.77874 0.0
H235 H 0.47703 0.37207 0.82403 0.0
O236 O 0.51882 0.42465 0.83333 0.0
O237 O 0.48268 0.42681 0.82893 0.0
O238 O 0.49957 0.40611 0.77208 0.0
O239 O 0.49887 0.39739 0.86247 0.0
H240 H 0.52824 0.44953 0.87227 0.0
H241 H 0.53459 0.42253 0.76593 0.0
H242 H 0.54844 0.46724 0.84867 0.0
H243 H 0.55456 0.44085 0.74384 0.0
H244 H 0.44544 0.46316 0.83271 0.0
H245 H 0.50015 0.45051 0.84865 0.0
H246 H 0.45406 0.43631 0.82231 0.0
H247 H 0.49077 0.47709 0.85856 0.0
H248 H 0.51463 0.47754 0.73304 0.0
H249 H 0.48625 0.44693 0.66359 0.0
H250 H 0.52516 0.44787 0.97663 0.0
H251 H 0.47583 0.45164 0.97287 0.0
H252 H 0.49223 0.37731 0.75522 0.0
H253 H 0.5182 0.41639 0.7154 0.0
H254 H 0.50225 0.36252 0.69766 0.0
H255 H 0.52793 0.40087 0.65888 0.0
H256 H 0.50651 0.37618 0.91502 0.0
H257 H 0.47093 0.4076 0.87984 0.0
H258 H 0.49009 0.36755 0.9713 0.0
H259 H 0.45521 0.39847 0.93665 0.0
H260 H 0.5662 0.38682 0.77835 0.0
H261 H 0.53086 0.35206 0.77773 0.0
H262 H 0.43624 0.39795 0.74746 0.0
H263 H 0.45714 0.3563 0.79217 0.0
Li264 Li 0.82638 0.24925 0.10647 0.0
Li265 Li 0.84551 0.23366 0.06736 0.0
Li266 Li 0.84616 0.26228 0.06675 0.0
Li267 Li 0.82547 0.2484 0.03475 0.0
C268 C 0.85346 0.25669 0.14646 0.0
N269 N 0.86141 0.27373 0.21289 0.0
C270 C 0.86442 0.25114 0.17323 0.0
C271 C 0.84655 0.27091 0.15344 0.0
C272 C 0.86828 0.25993 0.20666 0.0
C273 C 0.85073 0.27935 0.1872 0.0
C274 C 0.81112 0.22345 0.05434 0.0
C275 C 0.80121 0.20764 0.00111 0.0
N276 N 0.78679 0.20975 0.01542 0.0
C277 C 0.79621 0.22539 0.06862 0.0
C278 C 0.81366 0.21444 0.02041 0.0
C279 C 0.78406 0.21839 0.04851 0.0
C280 C 0.79977 0.25747 0.14668 0.0
N281 N 0.81335 0.25019 0.1523 0.0
C282 C 0.80603 0.24319 0.21879 0.0
C283 C 0.81674 0.24323 0.18759 0.0
C284 C 0.79169 0.25025 0.21334 0.0
C285 C 0.78873 0.25763 0.17683 0.0
H286 H 0.79733 0.2628 0.1182 0.0
H287 H 0.8276 0.23741 0.19117 0.0
C288 C 0.87353 0.21898 0.05613 0.0
N289 N 0.85836 0.21621 0.06171 0.0
C290 C 0.88312 0.20741 0.04178 0.0
C291 C 0.86142 0.19018 0.0408 0.0
C292 C 0.85228 0.20203 0.05574 0.0
C293 C 0.87695 0.19295 0.0326 0.0
H294 H 0.87795 0.23047 0.06033 0.0
H295 H 0.84017 0.20017 0.06025 0.0
C296 C 0.82018 0.28006 0.05017 0.0
N297 N 0.81305 0.30712 0.0114 0.0
C298 C 0.82467 0.28232 0.01055 0.0
C299 C 0.81201 0.29153 0.07007 0.0
C300 C 0.82097 0.29608 0.99146 0.0
C301 C 0.80853 0.30514 0.04996 0.0
C302 C 0.85329 0.24594 0.98492 0.0
C303 C 0.85794 0.25874 0.96281 0.0
C304 C 0.8552 0.23126 0.96881 0.0
C305 C 0.86436 0.25664 0.92498 0.0
C306 C 0.86166 0.22963 0.93088 0.0
N307 N 0.86608 0.24225 0.90993 0.0
C308 C 0.87432 0.2739 0.04543 0.0
C309 C 0.85668 0.29376 0.06025 0.0
C310 C 0.88459 0.28444 0.02918 0.0
N311 N 0.86043 0.27861 0.05898 0.0
C312 C 0.86667 0.30474 0.04433 0.0
C313 C 0.88057 0.30002 0.02709 0.0
H314 H 0.87699 0.26178 0.04482 0.0
H315 H 0.84565 0.29728 0.07157 0.0
C316 C 0.79733 0.25475 0.99832 0.0
N317 N 0.81139 0.24868 0.99105 0.0
C318 C 0.78634 0.25528 0.96811 0.0
C319 C 0.80444 0.24312 0.92359 0.0
C320 C 0.81507 0.24287 0.95462 0.0
C321 C 0.78987 0.2494 0.93015 0.0
H322 H 0.79463 0.2591 0.02776 0.0
H323 H 0.82615 0.23785 0.94959 0.0
O324 O 0.84954 0.24815 0.11372 0.0
O325 O 0.82311 0.23059 0.07295 0.0
O326 O 0.8237 0.26671 0.06963 0.0
O327 O 0.84733 0.24775 0.02253 0.0
H328 H 0.86986 0.24015 0.16822 0.0
H329 H 0.83804 0.2754 0.13313 0.0
H330 H 0.87674 0.25578 0.22765 0.0
H331 H 0.84547 0.29036 0.19298 0.0
H332 H 0.803 0.20077 0.97461 0.0
H333 H 0.79402 0.23231 0.09482 0.0
H334 H 0.82509 0.213 0.00855 0.0
H335 H 0.77245 0.21985 0.05914 0.0
H336 H 0.80874 0.23728 0.24636 0.0
H337 H 0.77793 0.26338 0.17149 0.0
H338 H 0.895 0.21002 0.03549 0.0
H339 H 0.85629 0.17913 0.03433 0.0
H340 H 0.83088 0.27354 0.99465 0.0
H341 H 0.80847 0.28996 0.10079 0.0
H342 H 0.82438 0.29798 0.96079 0.0
H343 H 0.80224 0.31414 0.06502 0.0
H344 H 0.85668 0.27021 0.97466 0.0
H345 H 0.85152 0.22121 0.98505 0.0
H346 H 0.86801 0.26645 0.90762 0.0
H347 H 0.86314 0.21833 0.91806 0.0
H348 H 0.89532 0.28035 0.01692 0.0
H349 H 0.86315 0.31665 0.0434 0.0
H350 H 0.77515 0.26002 0.97454 0.0
H351 H 0.80764 0.23856 0.89468 0.0
Li352 Li 0.99852 0.42307 0.77411 0.0
Li353 Li 0.99846 0.42772 0.84469 0.0
Li354 Li 0.01273 0.40532 0.821 0.0
Li355 Li 0.98465 0.4059 0.8214 0.0
C356 C 0.02393 0.44084 0.8152 0.0
N357 N 0.03868 0.46828 0.83045 0.0
C358 C 0.01862 0.45444 0.79796 0.0
C359 C 0.03679 0.44118 0.84002 0.0
C360 C 0.02623 0.4682 0.80604 0.0
C361 C 0.04407 0.45518 0.84744 0.0
C362 C 0.97215 0.43995 0.82216 0.0
C363 C 0.95681 0.4518 0.8736 0.0
N364 N 0.95572 0.46472 0.85098 0.0
C365 C 0.97089 0.45337 0.79947 0.0
C366 C 0.96504 0.43917 0.85953 0.0
C367 C 0.96252 0.46575 0.81454 0.0
C368 C 0.98492 0.43715 0.70681 0.0
N369 N 0.99859 0.4331 0.7231 0.0
C370 C 0.01202 0.44829 0.67493 0.0
C371 C 0.01204 0.43804 0.70708 0.0
C372 C 0.99803 0.4536 0.65953 0.0
C373 C 0.98436 0.44757 0.67508 0.0
H374 H 0.9744 0.43305 0.72012 0.0
H375 H 0.02276 0.43479 0.72082 0.0
C376 C 0.00404 0.43805 0.92224 0.0
N377 N 0.99988 0.44305 0.88534 0.0
C378 C 0.00554 0.44839 0.95375 0.0
C379 C 0.99886 0.46895 0.90854 0.0
C380 C 0.99747 0.4582 0.87793 0.0
C381 C 0.00287 0.46405 0.94709 0.0
H382 H 0.00632 0.42602 0.92718 0.0
H383 H 0.9945 0.46201 0.84829 0.0
C384 C 0.0063 0.39409 0.74383 0.0
N385 N 0.02209 0.38308 0.6783 0.0
C386 C 0.99986 0.38265 0.71988 0.0
C387 C 0.02077 0.39993 0.73448 0.0
C388 C 0.00803 0.37723 0.68688 0.0
C389 C 0.02857 0.39422 0.70121 0.0
C390 C 0.99355 0.39681 0.89417 0.0
C391 C 0.99873 0.38163 0.89386 0.0
C392 C 0.98255 0.4013 0.92217 0.0
C393 C 0.99264 0.37115 0.92118 0.0
C394 C 0.97671 0.39047 0.94891 0.0
N395 N 0.98183 0.37574 0.94785 0.0
C396 C 0.03654 0.39746 0.86968 0.0
C397 C 0.03407 0.37965 0.81653 0.0
C398 C 0.04762 0.38837 0.88797 0.0
N399 N 0.02994 0.39297 0.83483 0.0
C400 C 0.04521 0.37018 0.83384 0.0
C401 C 0.05188 0.37436 0.87052 0.0
H402 H 0.03261 0.4078 0.88431 0.0
H403 H 0.02826 0.376 0.78967 0.0
C404 C 0.95416 0.39795 0.84558 0.0
N405 N 0.96776 0.39248 0.83179 0.0
C406 C 0.94351 0.38798 0.86283 0.0
C407 C 0.96057 0.36684 0.84872 0.0
C408 C 0.97083 0.3772 0.83149 0.0
C409 C 0.94694 0.37227 0.86592 0.0
H410 H 0.95189 0.41011 0.84511 0.0
H411 H 0.98173 0.37317 0.82032 0.0
O412 O 0.01656 0.42726 0.80785 0.0
O413 O 0.98025 0.42765 0.80785 0.0
O414 O 0.99834 0.39955 0.77604 0.0
O415 O 0.99907 0.40717 0.86695 0.0
H416 H 0.00853 0.45447 0.77926 0.0
H417 H 0.04115 0.43078 0.85338 0.0
H418 H 0.02216 0.47882 0.79314 0.0
H419 H 0.05401 0.45561 0.86669 0.0
H420 H 0.95133 0.45136 0.90256 0.0
H421 H 0.97649 0.45437 0.77084 0.0
H422 H 0.96606 0.42902 0.87779 0.0
H423 H 0.96152 0.47621 0.79734 0.0
H424 H 0.0228 0.45273 0.66386 0.0
H425 H 0.97335 0.45126 0.6637 0.0
H426 H 0.00893 0.44419 0.98291 0.0
H427 H 0.99663 0.48093 0.90222 0.0
H428 H 0.98866 0.37802 0.72675 0.0
H429 H 0.02601 0.40868 0.7528 0.0
H430 H 0.00318 0.36838 0.66807 0.0
H431 H 0.03978 0.39862 0.69366 0.0
H432 H 0.00712 0.37786 0.87226 0.0
H433 H 0.97852 0.41302 0.92321 0.0
H434 H 0.99644 0.35934 0.92099 0.0
H435 H 0.96812 0.39378 0.97052 0.0
H436 H 0.05253 0.39209 0.91607 0.0
H437 H 0.04801 0.35936 0.81971 0.0
H438 H 0.93312 0.39264 0.87568 0.0
H439 H 0.96353 0.35478 0.84989 0.0
Li440 Li 0.83998 0.73683 0.08568 0.0
Li441 Li 0.81958 0.75403 0.10912 0.0
Li442 Li 0.82433 0.75031 0.03777 0.0
Li443 Li 0.84246 0.76493 0.07941 0.0
C444 C 0.81489 0.71999 0.08549 0.0
N445 N 0.81053 0.68933 0.10316 0.0
C446 C 0.8072 0.71572 0.12039 0.0
C447 C 0.82024 0.70867 0.0594 0.0
C448 C 0.80513 0.70016 0.12883 0.0
C449 C 0.81796 0.69323 0.06893 0.0
C450 C 0.85115 0.75801 0.1543 0.0
C451 C 0.8595 0.77744 0.20083 0.0
N452 N 0.87322 0.77019 0.20432 0.0
C453 C 0.86534 0.75073 0.15843 0.0
C454 C 0.84818 0.77143 0.17582 0.0
C455 C 0.87633 0.75707 0.18387 0.0
C456 C 0.8634 0.71375 0.08209 0.0
N457 N 0.85094 0.71903 0.10213 0.0
C458 C 0.85559 0.70165 0.15598 0.0
C459 C 0.84687 0.71317 0.13822 0.0
C460 C 0.86893 0.69635 0.137 0.0
C461 C 0.87262 0.70234 0.09909 0.0
H462 H 0.86658 0.71889 0.05386 0.0
H463 H 0.83717 0.7179 0.15401 0.0
C464 C 0.7895 0.7573 0.13987 0.0
N465 N 0.80457 0.75616 0.14947 0.0
C466 C 0.7785 0.75861 0.16992 0.0
C467 C 0.79873 0.75681 0.21905 0.0
C468 C 0.80931 0.75572 0.18808 0.0
C469 C 0.78309 0.75835 0.21019 0.0
H470 H 0.78601 0.75712 0.1089 0.0
H471 H 0.8213 0.75421 0.19489 0.0
C472 C 0.85009 0.74934 0.99916 0.0
N473 N 0.85441 0.7509 0.91755 0.0
C474 C 0.85391 0.7633 0.9812 0.0
C475 C 0.84856 0.73616 0.97576 0.0
C476 C 0.85604 0.76385 0.93985 0.0
C477 C 0.85075 0.73719 0.9345 0.0
C478 C 0.80878 0.77925 0.07517 0.0
C479 C 0.79573 0.7789 0.05099 0.0
C480 C 0.80906 0.78875 0.10883 0.0
C481 C 0.78317 0.78806 0.06093 0.0
C482 C 0.79625 0.79771 0.11781 0.0
N483 N 0.78368 0.79719 0.09387 0.0
C484 C 0.80411 0.73698 0.98209 0.0
C485 C 0.81374 0.76114 0.96167 0.0
C486 C 0.79401 0.73665 0.94975 0.0
N487 N 0.81355 0.74918 0.9878 0.0
C488 C 0.80377 0.76131 0.92887 0.0
C489 C 0.7935 0.74907 0.92301 0.0
H490 H 0.80389 0.72777 0.00366 0.0
H491 H 0.82111 0.77088 0.96731 0.0
C492 C 0.87189 0.77715 0.08908 0.0
N493 N 0.85692 0.7812 0.0858 0.0
C494 C 0.8825 0.78742 0.10515 0.0
C495 C 0.86238 0.80635 0.1105 0.0
C496 C 0.85212 0.79565 0.0946 0.0
C497 C 0.87765 0.80205 0.11747 0.0
H498 H 0.87536 0.76554 0.08204 0.0
H499 H 0.84017 0.79858 0.09167 0.0
O500 O 0.8172 0.73516 0.07693 0.0
O501 O 0.84033 0.75217 0.12887 0.0
O502 O 0.84767 0.74864 0.03943 0.0
O503 O 0.82118 0.7703 0.06604 0.0
H504 H 0.80296 0.72432 0.14091 0.0
H505 H 0.82623 0.71179 0.03229 0.0
H506 H 0.79927 0.69669 0.15582 0.0
H507 H 0.82213 0.68436 0.04914 0.0
H508 H 0.85739 0.78789 0.21737 0.0
H509 H 0.86793 0.74043 0.14182 0.0
H510 H 0.83731 0.77726 0.17288 0.0
H511 H 0.88738 0.75161 0.18718 0.0
H512 H 0.85212 0.69726 0.18485 0.0
H513 H 0.8829 0.6988 0.08355 0.0
H514 H 0.76658 0.75982 0.16168 0.0
H515 H 0.80275 0.75611 0.24961 0.0
H516 H 0.8551 0.77361 0.99898 0.0
H517 H 0.84561 0.72528 0.98932 0.0
H518 H 0.85893 0.77458 0.92546 0.0
H519 H 0.84953 0.7271 0.91595 0.0
H520 H 0.79521 0.77155 0.02504 0.0
H521 H 0.81895 0.78902 0.12822 0.0
H522 H 0.77298 0.78787 0.04254 0.0
H523 H 0.79629 0.80503 0.14391 0.0
H524 H 0.78617 0.72709 0.94689 0.0
H525 H 0.80388 0.77107 0.90886 0.0
H526 H 0.89423 0.78374 0.10951 0.0
H527 H 0.85817 0.8175 0.11963 0.0
Li528 Li 0.4876 0.59275 0.3293 0.0
Li529 Li 0.51568 0.59386 0.32508 0.0
Li530 Li 0.50194 0.57426 0.28407 0.0
Li531 Li 0.50379 0.57166 0.35564 0.0
C532 C 0.49123 0.60189 0.24958 0.0
N533 N 0.47244 0.61025 0.18681 0.0
C534 C 0.49463 0.61488 0.22677 0.0
C535 C 0.47825 0.59316 0.24051 0.0
C536 C 0.48499 0.61892 0.19516 0.0
C537 C 0.46891 0.59757 0.20863 0.0
C538 C 0.50757 0.60331 0.40031 0.0
C539 C 0.52335 0.60989 0.45693 0.0
N540 N 0.5183 0.62463 0.45469 0.0
C541 C 0.50237 0.61848 0.39892 0.0
C542 C 0.51799 0.59893 0.42986 0.0
C543 C 0.50799 0.62909 0.42655 0.0
C544 C 0.46653 0.6031 0.38339 0.0
N545 N 0.47027 0.60492 0.34425 0.0
C546 C 0.45152 0.62478 0.33745 0.0
C547 C 0.46304 0.61551 0.32109 0.0
C548 C 0.44755 0.62321 0.37803 0.0
C549 C 0.4552 0.6121 0.4009 0.0
H550 H 0.47264 0.59478 0.40132 0.0
H551 H 0.4664 0.61706 0.2903 0.0
C552 C 0.54642 0.60361 0.34096 0.0
N553 N 0.53206 0.60832 0.33123 0.0
C554 C 0.55699 0.61402 0.35671 0.0
C555 C 0.53826 0.63417 0.34878 0.0
C556 C 0.52811 0.6234 0.33284 0.0
C557 C 0.5527 0.62938 0.36242 0.0
H558 H 0.54947 0.59168 0.33859 0.0
H559 H 0.51666 0.62687 0.32449 0.0
C560 C 0.47504 0.56015 0.34072 0.0
N561 N 0.45539 0.54008 0.3792 0.0
C562 C 0.47908 0.54474 0.34574 0.0
C563 C 0.46073 0.56517 0.35415 0.0
C564 C 0.46909 0.53483 0.36564 0.0
C565 C 0.45102 0.5549 0.37377 0.0
C566 C 0.53263 0.56275 0.32766 0.0
C567 C 0.53788 0.5512 0.30213 0.0
C568 C 0.53953 0.56469 0.36501 0.0
C569 C 0.54985 0.54169 0.31458 0.0
C570 C 0.55147 0.55496 0.37637 0.0
N571 N 0.55632 0.54374 0.35115 0.0
C572 C 0.50163 0.56587 0.19859 0.0
C573 C 0.50245 0.54627 0.2475 0.0
C574 C 0.50186 0.55485 0.16794 0.0
N575 N 0.50187 0.56136 0.23754 0.0
C576 C 0.50268 0.53497 0.21814 0.0
C577 C 0.50247 0.53913 0.17764 0.0
H578 H 0.50141 0.57794 0.19121 0.0
H579 H 0.50306 0.54302 0.27851 0.0
C580 C 0.4968 0.56183 0.43219 0.0
N581 N 0.50458 0.5576 0.39885 0.0
C582 C 0.49593 0.55196 0.46486 0.0
C583 C 0.51128 0.53361 0.4284 0.0
C584 C 0.51163 0.54373 0.39621 0.0
C585 C 0.50327 0.53763 0.46329 0.0
H586 H 0.491 0.57279 0.43304 0.0
H587 H 0.51725 0.54035 0.36886 0.0
O588 O 0.50059 0.59788 0.28064 0.0
O589 O 0.50243 0.5928 0.37299 0.0
O590 O 0.4847 0.57016 0.32158 0.0
O591 O 0.5208 0.57204 0.31607 0.0
H592 H 0.50462 0.62177 0.23348 0.0
H593 H 0.47538 0.58308 0.25775 0.0
H594 H 0.48749 0.62895 0.17725 0.0
H595 H 0.45884 0.59091 0.20126 0.0
H596 H 0.5315 0.60667 0.47978 0.0
H597 H 0.49433 0.62211 0.37623 0.0
H598 H 0.52187 0.58719 0.43204 0.0
H599 H 0.50421 0.64091 0.4255 0.0
H600 H 0.44589 0.63317 0.31864 0.0
H601 H 0.45284 0.61066 0.43244 0.0
H602 H 0.56804 0.60986 0.36664 0.0
H603 H 0.53461 0.64598 0.35199 0.0
H604 H 0.48992 0.54048 0.33512 0.0
H605 H 0.45699 0.57678 0.34883 0.0
H606 H 0.47224 0.52296 0.37029 0.0
H607 H 0.43996 0.5587 0.38446 0.0
H608 H 0.53286 0.54964 0.27289 0.0
H609 H 0.53565 0.57358 0.38506 0.0
H610 H 0.554 0.53269 0.29513 0.0
H611 H 0.55685 0.55632 0.40527 0.0
H612 H 0.50184 0.55861 0.1371 0.0
H613 H 0.50295 0.52305 0.22722 0.0
H614 H 0.48932 0.55542 0.4907 0.0
H615 H 0.51723 0.52276 0.42588 0.0
Li616 Li 0.6541 0.26139 0.5738 0.0
Li617 Li 0.67602 0.24904 0.60444 0.0
Li618 Li 0.67404 0.24761 0.53302 0.0
Li619 Li 0.65607 0.23275 0.57576 0.0
C620 C 0.68758 0.27502 0.58212 0.0
N621 N 0.71126 0.29107 0.61746 0.0
C622 C 0.68473 0.28446 0.61506 0.0
C623 C 0.70244 0.27382 0.56699 0.0
C624 C 0.69686 0.29246 0.63256 0.0
C625 C 0.71427 0.28201 0.58531 0.0
C626 C 0.64836 0.24909 0.65679 0.0
C627 C 0.63763 0.23791 0.71657 0.0
N628 N 0.63507 0.25222 0.73138 0.0
C629 C 0.64565 0.26368 0.67274 0.0
C630 C 0.64431 0.23609 0.67895 0.0
C631 C 0.63892 0.26502 0.71043 0.0
C632 C 0.62499 0.27246 0.59022 0.0
N633 N 0.63939 0.27726 0.58128 0.0
C634 C 0.63326 0.30289 0.60097 0.0
C635 C 0.64355 0.29222 0.58501 0.0
C636 C 0.61863 0.29803 0.61318 0.0
C637 C 0.61437 0.28271 0.60621 0.0
H638 H 0.6221 0.26045 0.58736 0.0
H639 H 0.65513 0.29568 0.57795 0.0
C640 C 0.70505 0.24536 0.6391 0.0
N641 N 0.69064 0.25048 0.64672 0.0
C642 C 0.71618 0.24565 0.66899 0.0
C643 C 0.69752 0.2568 0.71375 0.0
C644 C 0.68678 0.2563 0.68301 0.0
C645 C 0.7124 0.2513 0.70703 0.0
H646 H 0.70785 0.24092 0.60981 0.0
H647 H 0.67543 0.26065 0.68818 0.0
C648 C 0.64578 0.253 0.49459 0.0
N649 N 0.63517 0.26709 0.426 0.0
C650 C 0.63802 0.24447 0.46563 0.0
C651 C 0.64811 0.26872 0.48874 0.0
C652 C 0.63277 0.25179 0.4311 0.0
C653 C 0.64265 0.27562 0.45386 0.0
C654 C 0.68364 0.21791 0.59133 0.0
C655 C 0.69262 0.20678 0.57249 0.0
C656 C 0.67967 0.21606 0.63151 0.0
C657 C 0.69745 0.19397 0.59418 0.0
C658 C 0.68473 0.2031 0.65217 0.0
N659 N 0.69344 0.1924 0.63323 0.0
C660 C 0.70049 0.23966 0.4918 0.0
C661 C 0.68395 0.25456 0.45137 0.0
C662 C 0.71154 0.23935 0.46165 0.0
N663 N 0.687 0.24718 0.48633 0.0
C664 C 0.69475 0.25461 0.4204 0.0
C665 C 0.70882 0.24699 0.42541 0.0
H666 H 0.70287 0.23425 0.52017 0.0
H667 H 0.67332 0.26064 0.44752 0.0
C668 C 0.62875 0.21907 0.5966 0.0
N669 N 0.64328 0.21535 0.5857 0.0
C670 C 0.6191 0.20801 0.61318 0.0
C671 C 0.63919 0.18923 0.60478 0.0
C672 C 0.64844 0.20065 0.58803 0.0
C673 C 0.62446 0.19297 0.61866 0.0
H674 H 0.62501 0.23087 0.59474 0.0
H675 H 0.65992 0.19786 0.57864 0.0
O676 O 0.67595 0.26672 0.56534 0.0
O677 O 0.65451 0.24752 0.61932 0.0
O678 O 0.65066 0.24603 0.52891 0.0
O679 O 0.67886 0.23054 0.57041 0.0
H680 H 0.67334 0.28535 0.6275 0.0
H681 H 0.70485 0.26655 0.54158 0.0
H682 H 0.69485 0.29969 0.65828 0.0
H683 H 0.72584 0.28114 0.57404 0.0
H684 H 0.63444 0.22795 0.73395 0.0
H685 H 0.64891 0.27388 0.65651 0.0
H686 H 0.64629 0.22469 0.66732 0.0
H687 H 0.63678 0.27624 0.72305 0.0
H688 H 0.63705 0.31456 0.60596 0.0
H689 H 0.60313 0.27853 0.61455 0.0
H690 H 0.72751 0.24123 0.66265 0.0
H691 H 0.69424 0.26152 0.74243 0.0
H692 H 0.63605 0.23231 0.46986 0.0
H693 H 0.65424 0.27549 0.51055 0.0
H694 H 0.62677 0.24532 0.40841 0.0
H695 H 0.64442 0.28776 0.44888 0.0
H696 H 0.69576 0.20798 0.54137 0.0
H697 H 0.67282 0.22456 0.64665 0.0
H698 H 0.70438 0.18525 0.57994 0.0
H699 H 0.68173 0.20154 0.68327 0.0
H700 H 0.72231 0.23357 0.46717 0.0
H701 H 0.69212 0.26057 0.39284 0.0
H702 H 0.60789 0.21143 0.62375 0.0
H703 H 0.64366 0.1777 0.60789 0.0
Li704 Li 0.32494 0.25137 0.59828 0.0
Li705 Li 0.34581 0.23643 0.57034 0.0
Li706 Li 0.34601 0.26499 0.56675 0.0
Li707 Li 0.32701 0.24928 0.52741 0.0
C708 C 0.35178 0.25411 0.65127 0.0
N709 N 0.36328 0.25927 0.72709 0.0
C710 C 0.35636 0.24178 0.6752 0.0
C711 C 0.35314 0.26907 0.66595 0.0
C712 C 0.36212 0.24462 0.71343 0.0
C713 C 0.35895 0.27144 0.70433 0.0
C714 C 0.31961 0.21951 0.58699 0.0
C715 C 0.30809 0.19439 0.59045 0.0
N716 N 0.31214 0.1934 0.62961 0.0
C717 C 0.32364 0.21825 0.62727 0.0
C718 C 0.31176 0.2075 0.5684 0.0
C719 C 0.31976 0.20496 0.64831 0.0
C720 C 0.29649 0.24512 0.63356 0.0
N721 N 0.31007 0.25234 0.64009 0.0
C722 C 0.30178 0.26045 0.7047 0.0
C723 C 0.3128 0.26008 0.6746 0.0
C724 C 0.28783 0.25276 0.69916 0.0
C725 C 0.28519 0.24509 0.66296 0.0
H726 H 0.29445 0.23936 0.60543 0.0
H727 H 0.32343 0.2661 0.67877 0.0
C728 C 0.37361 0.22478 0.59423 0.0
N729 N 0.3597 0.22002 0.58093 0.0
C730 C 0.38383 0.21434 0.61107 0.0
C731 C 0.36572 0.19402 0.59765 0.0
C732 C 0.35582 0.2049 0.58093 0.0
C733 C 0.37972 0.19881 0.61426 0.0
H734 H 0.3764 0.23687 0.59376 0.0
H735 H 0.34479 0.20132 0.56972 0.0
C736 C 0.31183 0.27643 0.57451 0.0
N737 N 0.28743 0.29157 0.60924 0.0
C738 C 0.29688 0.27338 0.56188 0.0
C739 C 0.31438 0.28725 0.60462 0.0
C740 C 0.2847 0.28114 0.57986 0.0
C741 C 0.30189 0.29476 0.62185 0.0
C742 C 0.35442 0.2406 0.49091 0.0
C743 C 0.36594 0.24543 0.46484 0.0
C744 C 0.34722 0.22648 0.48458 0.0
C745 C 0.37007 0.23605 0.43275 0.0
C746 C 0.35167 0.21743 0.45216 0.0
N747 N 0.36291 0.22236 0.42713 0.0
C748 C 0.37377 0.27831 0.58562 0.0
C749 C 0.35464 0.29674 0.57085 0.0
C750 C 0.38345 0.2897 0.60043 0.0
N751 N 0.35952 0.28194 0.57246 0.0
C752 C 0.36402 0.30855 0.58513 0.0
C753 C 0.37847 0.30503 0.60145 0.0
H754 H 0.3772 0.2664 0.58725 0.0
H755 H 0.34319 0.29928 0.5605 0.0
C756 C 0.30142 0.23973 0.48492 0.0
N757 N 0.31455 0.24792 0.48065 0.0
C758 C 0.2907 0.23912 0.45404 0.0
C759 C 0.30729 0.25527 0.41439 0.0
C760 C 0.31774 0.25555 0.44619 0.0
C761 C 0.29346 0.24708 0.41825 0.0
H762 H 0.29902 0.23405 0.51295 0.0
H763 H 0.32822 0.26209 0.44371 0.0
O764 O 0.34655 0.25157 0.61321 0.0
O765 O 0.32334 0.23236 0.5656 0.0
O766 O 0.32385 0.26861 0.55813 0.0
O767 O 0.35026 0.24971 0.52236 0.0
H768 H 0.35555 0.23011 0.66441 0.0
H769 H 0.34955 0.27877 0.64816 0.0
H770 H 0.36569 0.23517 0.73221 0.0
H771 H 0.36 0.28296 0.71605 0.0
H772 H 0.30205 0.18499 0.57641 0.0
H773 H 0.3296 0.22744 0.6422 0.0
H774 H 0.30862 0.20825 0.53717 0.0
H775 H 0.3228 0.20385 0.67951 0.0
H776 H 0.30425 0.26648 0.73225 0.0
H777 H 0.27446 0.23924 0.65734 0.0
H778 H 0.39465 0.21849 0.62266 0.0
H779 H 0.3621 0.18216 0.59939 0.0
H780 H 0.2947 0.26501 0.53873 0.0
H781 H 0.32585 0.28962 0.61508 0.0
H782 H 0.27306 0.27883 0.57054 0.0
H783 H 0.30369 0.30307 0.64539 0.0
H784 H 0.37163 0.25634 0.46936 0.0
H785 H 0.33828 0.22251 0.50438 0.0
H786 H 0.37897 0.23966 0.41231 0.0
H787 H 0.34619 0.20648 0.4469 0.0
H788 H 0.39434 0.28633 0.61318 0.0
H789 H 0.35979 0.32022 0.58466 0.0
H790 H 0.28012 0.2329 0.45874 0.0
H791 H 0.30995 0.26147 0.38723 0.0
Li792 Li 0.15805 0.76424 0.07401 0.0
Li793 Li 0.17916 0.75325 0.10812 0.0
Li794 Li 0.17688 0.74968 0.03763 0.0
Li795 Li 0.15842 0.7367 0.08383 0.0
C796 C 0.18162 0.78085 0.03971 0.0
N797 N 0.18517 0.80407 0.98428 0.0
C798 C 0.19322 0.79174 0.04445 0.0
C799 C 0.17184 0.78174 0.00671 0.0
C800 C 0.19482 0.8034 0.01613 0.0
C801 C 0.17381 0.79358 0.97905 0.0
C802 C 0.15107 0.76216 0.15213 0.0
C803 C 0.12942 0.76917 0.19298 0.0
N804 N 0.13686 0.78217 0.20438 0.0
C805 C 0.15854 0.77555 0.16444 0.0
C806 C 0.13643 0.7589 0.16667 0.0
C807 C 0.15115 0.78552 0.19084 0.0
C808 C 0.1289 0.77706 0.0792 0.0
N809 N 0.14394 0.78096 0.07713 0.0
C810 C 0.13843 0.8063 0.10034 0.0
C811 C 0.14881 0.79538 0.08618 0.0
C812 C 0.123 0.80223 0.10571 0.0
C813 C 0.11817 0.78757 0.0936 0.0
H814 H 0.12544 0.76541 0.07273 0.0
H815 H 0.16089 0.79804 0.08568 0.0
C816 C 0.20835 0.75883 0.13995 0.0
N817 N 0.1936 0.75566 0.14978 0.0
C818 C 0.21952 0.75971 0.16969 0.0
C819 C 0.19994 0.75451 0.21904 0.0
C820 C 0.18922 0.75346 0.18833 0.0
C821 C 0.21529 0.75754 0.20974 0.0
H822 H 0.21147 0.76037 0.10892 0.0
H823 H 0.17747 0.75059 0.19516 0.0
C824 C 0.14985 0.73807 0.00363 0.0
N825 N 0.14208 0.71762 0.9439 0.0
C826 C 0.15636 0.72342 0.00286 0.0
C827 C 0.13937 0.7423 0.97407 0.0
C828 C 0.15228 0.71325 0.97241 0.0
C829 C 0.1356 0.73181 0.9441 0.0
C830 C 0.1915 0.72604 0.10063 0.0
C831 C 0.20651 0.72429 0.08689 0.0
C832 C 0.18753 0.72061 0.13855 0.0
C833 C 0.21736 0.71727 0.11154 0.0
C834 C 0.19871 0.71366 0.1623 0.0
N835 N 0.21327 0.71216 0.14844 0.0
C836 C 0.20463 0.75209 0.99965 0.0
C837 C 0.18529 0.74527 0.95333 0.0
C838 C 0.21566 0.75217 0.96952 0.0
N839 N 0.1898 0.74859 0.99128 0.0
C840 C 0.196 0.7452 0.92211 0.0
C841 C 0.21144 0.74873 0.93003 0.0
H842 H 0.20787 0.75489 0.02998 0.0
H843 H 0.17341 0.74282 0.94705 0.0
C844 C 0.13069 0.72276 0.10233 0.0
N845 N 0.14578 0.71963 0.09701 0.0
C846 C 0.121 0.71182 0.11926 0.0
C847 C 0.14236 0.69424 0.12264 0.0
C848 C 0.15166 0.70556 0.1056 0.0
C849 C 0.1269 0.69748 0.13082 0.0
H850 H 0.12633 0.73402 0.09492 0.0
H851 H 0.16369 0.70333 0.10079 0.0
O852 O 0.18012 0.76928 0.06708 0.0
O853 O 0.15791 0.75253 0.12517 0.0
O854 O 0.1536 0.74832 0.03302 0.0
O855 O 0.18082 0.73331 0.07747 0.0
H856 H 0.20092 0.79115 0.06975 0.0
H857 H 0.16282 0.77343 0.00236 0.0
H858 H 0.20375 0.81191 0.01943 0.0
H859 H 0.16633 0.79441 0.95338 0.0
H860 H 0.11804 0.76684 0.20423 0.0
H861 H 0.16979 0.77837 0.15308 0.0
H862 H 0.13047 0.7486 0.15753 0.0
H863 H 0.15674 0.79598 0.20031 0.0
H864 H 0.14263 0.81741 0.1098 0.0
H865 H 0.10635 0.78404 0.09705 0.0
H866 H 0.23129 0.76207 0.16156 0.0
H867 H 0.19635 0.75255 0.24961 0.0
H868 H 0.1645 0.71988 0.02534 0.0
H869 H 0.13424 0.75361 0.97428 0.0
H870 H 0.15724 0.70188 0.97142 0.0
H871 H 0.12752 0.73494 0.921 0.0
H872 H 0.20977 0.72832 0.05755 0.0
H873 H 0.17601 0.72206 0.14986 0.0
H874 H 0.22903 0.71589 0.10135 0.0
H875 H 0.19582 0.70955 0.19185 0.0
H876 H 0.22741 0.75478 0.97724 0.0
H877 H 0.19219 0.74268 0.89203 0.0
H878 H 0.10908 0.71469 0.12417 0.0
H879 H 0.1474 0.68336 0.13107 0.0
Li880 Li 0.17392 0.25131 0.10318 0.0
Li881 Li 0.15652 0.2649 0.06212 0.0
Li882 Li 0.15542 0.23671 0.0642 0.0
Li883 Li 0.17798 0.25112 0.03218 0.0
C884 C 0.14629 0.24647 0.14461 0.0
N885 N 0.13677 0.2363 0.21878 0.0
C886 C 0.14186 0.257 0.17392 0.0
C887 C 0.14565 0.23077 0.15285 0.0
C888 C 0.13716 0.25164 0.2113 0.0
C889 C 0.14086 0.22585 0.19056 0.0
C890 C 0.1807 0.28256 0.08771 0.0
C891 C 0.19263 0.30741 0.09364 0.0
N892 N 0.18479 0.30988 0.12816 0.0
C893 C 0.17276 0.28534 0.1232 0.0
C894 C 0.19072 0.29366 0.07275 0.0
C895 C 0.17499 0.29922 0.14324 0.0
C896 C 0.20094 0.25789 0.14342 0.0
N897 N 0.18694 0.25155 0.15021 0.0
C898 C 0.19465 0.24437 0.21638 0.0
C899 C 0.1836 0.24492 0.186 0.0
C900 C 0.2093 0.25059 0.20973 0.0
C901 C 0.21226 0.25759 0.17277 0.0
H902 H 0.20356 0.26274 0.11451 0.0
H903 H 0.17261 0.23961 0.19074 0.0
C904 C 0.12854 0.28112 0.06023 0.0
N905 N 0.14374 0.28218 0.052 0.0
C906 C 0.11833 0.29192 0.04465 0.0
C907 C 0.13972 0.30508 0.01419 0.0
C908 C 0.14951 0.29404 0.03035 0.0
C909 C 0.12385 0.30386 0.0203 0.0
H910 H 0.12426 0.27139 0.0769 0.0
H911 H 0.16158 0.29435 0.02327 0.0
C912 C 0.18901 0.22546 0.08905 0.0
N913 N 0.21154 0.21106 0.13323 0.0
C914 C 0.20443 0.229 0.08257 0.0
C915 C 0.18507 0.21442 0.11751 0.0
C916 C 0.21564 0.22164 0.10534 0.0
C917 C 0.19663 0.20731 0.13966 0.0
C918 C 0.14839 0.25793 0.98732 0.0
C919 C 0.13254 0.25614 0.98395 0.0
C920 C 0.15605 0.26799 0.96163 0.0
C921 C 0.12457 0.26458 0.95517 0.0
C922 C 0.14768 0.27618 0.93316 0.0
N923 N 0.13224 0.27435 0.9306 0.0
C924 C 0.12704 0.22174 0.05425 0.0
C925 C 0.14882 0.20641 0.04062 0.0
C926 C 0.11737 0.21053 0.03828 0.0
N927 N 0.14245 0.21965 0.05409 0.0
C928 C 0.13958 0.19482 0.02476 0.0
C929 C 0.12364 0.197 0.02217 0.0
H930 H 0.12233 0.23249 0.06471 0.0
H931 H 0.16115 0.20515 0.04046 0.0
C932 C 0.20534 0.2588 0.9934 0.0
N933 N 0.19213 0.25069 0.99009 0.0
C934 C 0.21583 0.25891 0.962 0.0
C935 C 0.1988 0.2424 0.92448 0.0
C936 C 0.1887 0.24251 0.95674 0.0
C937 C 0.21255 0.2507 0.92692 0.0
H938 H 0.20768 0.2652 0.02042 0.0
H939 H 0.17805 0.23619 0.95516 0.0
O940 O 0.15079 0.25155 0.10775 0.0
O941 O 0.17869 0.26907 0.06744 0.0
O942 O 0.17786 0.23294 0.06797 0.0
O943 O 0.15632 0.2502 0.01628 0.0
H944 H 0.14197 0.2692 0.16785 0.0
H945 H 0.14887 0.22244 0.13052 0.0
H946 H 0.13376 0.25966 0.23431 0.0
H947 H 0.1404 0.21373 0.19739 0.0
H948 H 0.20034 0.31611 0.08239 0.0
H949 H 0.16503 0.27686 0.13521 0.0
H950 H 0.19692 0.29168 0.04523 0.0
H951 H 0.16893 0.30151 0.17079 0.0
H952 H 0.19191 0.23869 0.24426 0.0
H953 H 0.2233 0.26268 0.16637 0.0
H954 H 0.10621 0.29065 0.05052 0.0
H955 H 0.14447 0.31393 0.99516 0.0
H956 H 0.20768 0.23752 0.06067 0.0
H957 H 0.17323 0.21141 0.1226 0.0
H958 H 0.2276 0.22439 0.10097 0.0
H959 H 0.19373 0.19882 0.162 0.0
H960 H 0.1264 0.2485 0.00372 0.0
H961 H 0.16828 0.26969 0.96414 0.0
H962 H 0.11228 0.26342 0.9525 0.0
H963 H 0.15344 0.28409 0.91331 0.0
H964 H 0.10521 0.21284 0.0366 0.0
H965 H 0.14492 0.18449 0.01347 0.0
H966 H 0.22626 0.26556 0.96482 0.0
H967 H 0.19595 0.23581 0.89805 0.0
Li968 Li 0.34761 0.73634 0.5689 0.0
Li969 Li 0.32852 0.75083 0.60997 0.0
Li970 Li 0.32749 0.75126 0.53798 0.0
Li971 Li 0.34797 0.76482 0.57219 0.0
C972 C 0.31247 0.72616 0.55823 0.0
N973 N 0.28652 0.71304 0.52548 0.0
C974 C 0.29821 0.72825 0.57643 0.0
C975 C 0.31353 0.71729 0.52355 0.0
C976 C 0.28523 0.72153 0.55939 0.0
C977 C 0.30028 0.71079 0.50739 0.0
C978 C 0.35539 0.75771 0.65088 0.0
C979 C 0.35286 0.77979 0.69383 0.0
N980 N 0.36312 0.77347 0.71961 0.0
C981 C 0.36591 0.75145 0.67775 0.0
C982 C 0.34881 0.77201 0.65891 0.0
C983 C 0.36967 0.75959 0.71235 0.0
C984 C 0.3756 0.72181 0.55507 0.0
N985 N 0.36047 0.71901 0.56122 0.0
C986 C 0.36334 0.69315 0.53873 0.0
C987 C 0.35431 0.70491 0.5546 0.0
C988 C 0.37883 0.69595 0.53004 0.0
C989 C 0.38507 0.71035 0.53962 0.0
H990 H 0.38007 0.73325 0.55976 0.0
H991 H 0.3422 0.70307 0.5593 0.0
C992 C 0.30869 0.76373 0.6674 0.0
N993 N 0.31605 0.75059 0.657 0.0
C994 C 0.29783 0.76367 0.69803 0.0
C995 C 0.3027 0.73665 0.70786 0.0
C996 C 0.31349 0.73723 0.67692 0.0
C997 C 0.29447 0.74994 0.71824 0.0
H998 H 0.31099 0.7742 0.65122 0.0
H999 H 0.31937 0.7269 0.66771 0.0
C1000 C 0.35585 0.748 0.48941 0.0
N1001 N 0.36917 0.74132 0.41648 0.0
C1002 C 0.36359 0.75941 0.46807 0.0
C1003 C 0.35474 0.73323 0.47331 0.0
C1004 C 0.37027 0.7558 0.43132 0.0
C1005 C 0.3616 0.73006 0.43654 0.0
C1006 C 0.32194 0.78194 0.55341 0.0
C1007 C 0.32902 0.7847 0.51662 0.0
C1008 C 0.31107 0.79234 0.56777 0.0
C1009 C 0.32525 0.79789 0.49507 0.0
C1010 C 0.3076 0.8054 0.54533 0.0
N1011 N 0.31471 0.80789 0.50976 0.0
C1012 C 0.29857 0.75501 0.50347 0.0
C1013 C 0.31821 0.75164 0.45541 0.0
C1014 C 0.28756 0.75603 0.4734 0.0
N1015 N 0.31352 0.75255 0.49409 0.0
C1016 C 0.30764 0.75287 0.42439 0.0
C1017 C 0.29211 0.75496 0.43334 0.0
H1018 H 0.29521 0.7562 0.5344 0.0
H1019 H 0.33011 0.75009 0.4483 0.0
C1020 C 0.37607 0.77794 0.55447 0.0
N1021 N 0.36187 0.78167 0.56787 0.0
C1022 C 0.3861 0.78936 0.54145 0.0
C1023 C 0.36717 0.80838 0.55938 0.0
C1024 C 0.35751 0.79656 0.57216 0.0
C1025 C 0.38147 0.8048 0.54246 0.0
H1026 H 0.37921 0.76599 0.55137 0.0
H1027 H 0.34626 0.79928 0.58356 0.0
O1028 O 0.32527 0.73287 0.57411 0.0
O1029 O 0.35159 0.74983 0.61695 0.0
O1030 O 0.34942 0.75132 0.52576 0.0
O1031 O 0.3253 0.76899 0.57496 0.0
H1032 H 0.2971 0.73518 0.60306 0.0
H1033 H 0.32443 0.71555 0.509 0.0
H1034 H 0.27411 0.72315 0.57303 0.0
H1035 H 0.30094 0.70399 0.48041 0.0
H1036 H 0.34786 0.79085 0.70043 0.0
H1037 H 0.3711 0.74039 0.67192 0.0
H1038 H 0.34067 0.77707 0.63849 0.0
H1039 H 0.37779 0.75487 0.73343 0.0
H1040 H 0.35815 0.68216 0.53205 0.0
H1041 H 0.39691 0.71302 0.53298 0.0
H1042 H 0.29198 0.77424 0.70548 0.0
H1043 H 0.30042 0.72579 0.7224 0.0
H1044 H 0.36435 0.77098 0.47952 0.0
H1045 H 0.34854 0.72434 0.48877 0.0
H1046 H 0.3763 0.76452 0.41456 0.0
H1047 H 0.36086 0.71866 0.42388 0.0
H1048 H 0.33736 0.7768 0.50474 0.0
H1049 H 0.30532 0.79035 0.59591 0.0
H1050 H 0.33069 0.80017 0.46665 0.0
H1051 H 0.29923 0.81355 0.55616 0.0
H1052 H 0.27567 0.75786 0.4813 0.0
H1053 H 0.31153 0.75201 0.39373 0.0
H1054 H 0.39695 0.78604 0.52842 0.0
H1055 H 0.36328 0.82015 0.56144 0.0
Li1056 Li 0.51534 0.0947 0.82432 0.0
Li1057 Li 0.48691 0.09512 0.81888 0.0
Li1058 Li 0.50089 0.07565 0.85878 0.0
Li1059 Li 0.50174 0.07469 0.7879 0.0
C1060 C 0.50745 0.10917 0.88965 0.0
N1061 N 0.52343 0.13137 0.93129 0.0
C1062 C 0.50175 0.12412 0.89207 0.0
C1063 C 0.52115 0.10545 0.9089 0.0
C1064 C 0.51003 0.1352 0.91314 0.0
C1065 C 0.5291 0.11685 0.92965 0.0
C1066 C 0.5028 0.09779 0.73667 0.0
C1067 C 0.4902 0.09703 0.67263 0.0
N1068 N 0.50402 0.09849 0.65425 0.0
C1069 C 0.51688 0.09934 0.71721 0.0
C1070 C 0.48934 0.09667 0.7143 0.0
C1071 C 0.51725 0.09966 0.67549 0.0
C1072 C 0.54661 0.10129 0.81182 0.0
N1073 N 0.53262 0.10768 0.81808 0.0
C1074 C 0.54166 0.13211 0.79586 0.0
C1075 C 0.53002 0.12283 0.81117 0.0
C1076 C 0.556 0.12565 0.78692 0.0
C1077 C 0.55855 0.11013 0.79623 0.0
H1078 H 0.5482 0.08911 0.81643 0.0
H1079 H 0.51863 0.12745 0.81495 0.0
C1080 C 0.4561 0.103 0.79681 0.0
N1081 N 0.4702 0.10843 0.80684 0.0
C1082 C 0.44527 0.11273 0.77938 0.0
C1083 C 0.46355 0.13348 0.78355 0.0
C1084 C 0.47401 0.12337 0.80086 0.0
C1085 C 0.44908 0.12812 0.77161 0.0
H1086 H 0.45352 0.09095 0.80001 0.0
H1087 H 0.4855 0.12722 0.80748 0.0
C1088 C 0.52606 0.05997 0.84056 0.0
N1089 N 0.53921 0.03437 0.8751 0.0
C1090 C 0.52241 0.04531 0.82652 0.0
C1091 C 0.53656 0.06162 0.87177 0.0
C1092 C 0.52914 0.03251 0.84447 0.0
C1093 C 0.54303 0.04853 0.88896 0.0
C1094 C 0.47018 0.06931 0.84165 0.0
C1095 C 0.46603 0.07834 0.87445 0.0
C1096 C 0.46099 0.05688 0.83066 0.0
C1097 C 0.45268 0.07482 0.89553 0.0
C1098 C 0.44774 0.05373 0.85253 0.0
N1099 N 0.44389 0.06269 0.88423 0.0
C1100 C 0.50357 0.06536 0.9414 0.0
C1101 C 0.49519 0.04734 0.89318 0.0
C1102 C 0.50308 0.05409 0.9713 0.0
N1103 N 0.49973 0.06175 0.90316 0.0
C1104 C 0.49469 0.03576 0.9218 0.0
C1105 C 0.49866 0.03898 0.96161 0.0
H1106 H 0.50711 0.07692 0.94865 0.0
H1107 H 0.49227 0.04475 0.86252 0.0
C1108 C 0.51622 0.06004 0.7238 0.0
N1109 N 0.50253 0.06229 0.74212 0.0
C1110 C 0.5171 0.0509 0.68971 0.0
C1111 C 0.48976 0.04662 0.69427 0.0
C1112 C 0.48941 0.05593 0.7281 0.0
C1113 C 0.50375 0.04399 0.67478 0.0
H1114 H 0.52644 0.06532 0.73583 0.0
H1115 H 0.47868 0.05812 0.74322 0.0
O1116 O 0.49964 0.09821 0.86868 0.0
O1117 O 0.50224 0.09706 0.77743 0.0
O1118 O 0.51936 0.07263 0.8239 0.0
O1119 O 0.48333 0.07232 0.82079 0.0
H1120 H 0.49103 0.12714 0.87795 0.0
H1121 H 0.52563 0.09391 0.90755 0.0
H1122 H 0.50579 0.14684 0.91512 0.0
H1123 H 0.53978 0.11415 0.94444 0.0
H1124 H 0.47989 0.09609 0.6549 0.0
H1125 H 0.52741 0.10014 0.73413 0.0
H1126 H 0.47837 0.09536 0.72895 0.0
H1127 H 0.52806 0.10078 0.66 0.0
H1128 H 0.53913 0.14394 0.78855 0.0
H1129 H 0.56945 0.10473 0.78992 0.0
H1130 H 0.43436 0.10804 0.77001 0.0
H1131 H 0.46695 0.14527 0.77838 0.0
H1132 H 0.51427 0.0438 0.80249 0.0
H1133 H 0.53967 0.07287 0.88266 0.0
H1134 H 0.52631 0.02109 0.83416 0.0
H1135 H 0.5511 0.04963 0.91331 0.0
H1136 H 0.47297 0.08798 0.88357 0.0
H1137 H 0.46411 0.04969 0.80558 0.0
H1138 H 0.44931 0.08173 0.92091 0.0
H1139 H 0.44052 0.04414 0.84434 0.0
H1140 H 0.50606 0.0572 0.00163 0.0
H1141 H 0.49153 0.02429 0.91248 0.0
H1142 H 0.52811 0.04902 0.67564 0.0
H1143 H 0.47921 0.04162 0.68331 0.0
Li1144 Li 0.00068 0.92475 0.28335 0.0
Li1145 Li 0.00089 0.92247 0.35486 0.0
Li1146 Li 0.01508 0.90374 0.31423 0.0
Li1147 Li 0.98738 0.90325 0.31772 0.0
C1148 C 0.03187 0.9289 0.34012 0.0
N1149 N 0.05824 0.93394 0.38397 0.0
C1150 C 0.03443 0.92083 0.37564 0.0
C1151 C 0.04275 0.93954 0.327 0.0
C1152 C 0.04782 0.92355 0.39736 0.0
C1153 C 0.056 0.94191 0.34955 0.0
C1154 C 0.97481 0.93723 0.33598 0.0
C1155 C 0.95637 0.9468 0.38348 0.0
N1156 N 0.9592 0.96135 0.3708 0.0
C1157 C 0.97739 0.95226 0.32303 0.0
C1158 C 0.96408 0.93444 0.3661 0.0
C1159 C 0.96944 0.96431 0.34115 0.0
C1160 C 0.98816 0.93679 0.21273 0.0
N1161 N 0.99978 0.93816 0.23948 0.0
C1162 C 0.01052 0.95907 0.20315 0.0
C1163 C 0.01081 0.94903 0.23551 0.0
C1164 C 0.99869 0.95794 0.17492 0.0
C1165 C 0.98735 0.94668 0.18001 0.0
H1166 H 0.97957 0.92799 0.21688 0.0
H1167 H 0.01979 0.9499 0.25754 0.0
C1168 C 0.99881 0.93204 0.4386 0.0
N1169 N 0.00143 0.93609 0.39997 0.0
C1170 C 0.99929 0.94318 0.46887 0.0
C1171 C 0.00506 0.9623 0.41888 0.0
C1172 C 0.00474 0.95082 0.38992 0.0
C1173 C 0.00238 0.95863 0.45919 0.0
H1174 H 0.9964 0.9202 0.44597 0.0
H1175 H 0.00696 0.95371 0.35903 0.0
C1176 C 0.00763 0.89881 0.23521 0.0
N1177 N 0.02295 0.88992 0.16682 0.0
C1178 C 0.00269 0.88599 0.21369 0.0
C1179 C 0.02035 0.90711 0.22196 0.0
C1180 C 0.01059 0.88168 0.17917 0.0
C1181 C 0.02794 0.90243 0.18731 0.0
C1182 C 0.99453 0.88878 0.38353 0.0
C1183 C 0.99973 0.87362 0.38383 0.0
C1184 C 0.98128 0.89266 0.40458 0.0
C1185 C 0.99138 0.86251 0.40459 0.0
C1186 C 0.97324 0.88123 0.42497 0.0
N1187 N 0.97841 0.86651 0.42451 0.0
C1188 C 0.04641 0.89546 0.29587 0.0
C1189 C 0.02772 0.87577 0.29356 0.0
C1190 C 0.05719 0.88582 0.27783 0.0
N1191 N 0.03192 0.89036 0.3028 0.0
C1192 C 0.03805 0.86582 0.27519 0.0
C1193 C 0.05289 0.87094 0.26618 0.0
H1194 H 0.04939 0.90725 0.30191 0.0
H1195 H 0.01599 0.87219 0.29795 0.0
C1196 C 0.95622 0.8943 0.30537 0.0
N1197 N 0.9709 0.88935 0.3096 0.0
C1198 C 0.94507 0.88449 0.28949 0.0
C1199 C 0.96427 0.86461 0.28428 0.0
C1200 C 0.97499 0.87475 0.30025 0.0
C1201 C 0.9492 0.86959 0.27744 0.0
H1202 H 0.95339 0.90611 0.31195 0.0
H1203 H 0.98683 0.87128 0.30289 0.0
O1204 O 0.0188 0.92655 0.31827 0.0
O1205 O 0.98264 0.92531 0.319 0.0
O1206 O 0.00041 0.90279 0.26996 0.0
O1207 O 0.00241 0.89979 0.36292 0.0
H1208 H 0.02621 0.91259 0.38656 0.0
H1209 H 0.04103 0.94588 0.2996 0.0
H1210 H 0.04992 0.91739 0.42488 0.0
H1211 H 0.06451 0.9501 0.33966 0.0
H1212 H 0.9481 0.94482 0.40699 0.0
H1213 H 0.98559 0.95463 0.29964 0.0
H1214 H 0.96169 0.92287 0.37589 0.0
H1215 H 0.97144 0.97601 0.33171 0.0
H1216 H 0.01934 0.96776 0.20049 0.0
H1217 H 0.97811 0.94542 0.15868 0.0
H1218 H 0.9974 0.93967 0.4995 0.0
H1219 H 0.00717 0.97399 0.40945 0.0
H1220 H 0.99294 0.87937 0.22372 0.0
H1221 H 0.02449 0.91691 0.23865 0.0
H1222 H 0.00694 0.87175 0.16228 0.0
H1223 H 0.03784 0.9087 0.17684 0.0
H1224 H 0.01011 0.87046 0.36827 0.0
H1225 H 0.97724 0.90437 0.40508 0.0
H1226 H 0.99523 0.85071 0.4049 0.0
H1227 H 0.96291 0.88406 0.4412 0.0
H1228 H 0.06847 0.89025 0.27091 0.0
H1229 H 0.0343 0.85442 0.26685 0.0
H1230 H 0.93362 0.88882 0.28436 0.0
H1231 H 0.96789 0.85318 0.27581 0.0
Li1232 Li 0.49996 0.92373 0.2799 0.0
Li1233 Li 0.50079 0.93114 0.34915 0.0
Li1234 Li 0.51372 0.9071 0.32857 0.0
Li1235 Li 0.4859 0.909 0.33134 0.0
C1236 C 0.52579 0.94213 0.30495 0.0
N1237 N 0.5407 0.96952 0.29008 0.0
C1238 C 0.5177 0.95469 0.28991 0.0
C1239 C 0.54149 0.94347 0.31225 0.0
C1240 C 0.52543 0.96844 0.28261 0.0
C1241 C 0.54881 0.95742 0.30461 0.0
C1242 C 0.47424 0.94307 0.32608 0.0
C1243 C 0.46004 0.95653 0.37713 0.0
N1244 N 0.45814 0.96858 0.35181 0.0
C1245 C 0.47213 0.95563 0.30059 0.0
C1246 C 0.46812 0.94356 0.36465 0.0
C1247 C 0.46396 0.96839 0.31414 0.0
C1248 C 0.486 0.93642 0.21178 0.0
N1249 N 0.49978 0.93204 0.2268 0.0
C1250 C 0.51291 0.94572 0.17515 0.0
C1251 C 0.51309 0.9359 0.20821 0.0
C1252 C 0.4989 0.95161 0.16138 0.0
C1253 C 0.48529 0.94638 0.17913 0.0
H1254 H 0.47559 0.93308 0.22696 0.0
H1255 H 0.52392 0.9323 0.22076 0.0
C1256 C 0.50782 0.94384 0.42324 0.0
N1257 N 0.50317 0.94773 0.38585 0.0
C1258 C 0.50928 0.95503 0.45273 0.0
C1259 C 0.50184 0.97418 0.40426 0.0
C1260 C 0.50046 0.96261 0.37576 0.0
C1261 C 0.50612 0.97042 0.44348 0.0
H1262 H 0.51023 0.93199 0.43033 0.0
H1263 H 0.49702 0.96555 0.3458 0.0
C1264 C 0.50633 0.89392 0.25523 0.0
N1265 N 0.52153 0.88044 0.19191 0.0
C1266 C 0.4992 0.88245 0.23276 0.0
C1267 C 0.52121 0.89851 0.24557 0.0
C1268 C 0.50707 0.87578 0.20085 0.0
C1269 C 0.5287 0.89157 0.21343 0.0
C1270 C 0.49478 0.90229 0.40556 0.0
C1271 C 0.49802 0.8866 0.40746 0.0
C1272 C 0.48514 0.90886 0.43419 0.0
C1273 C 0.49133 0.8777 0.43745 0.0
C1274 C 0.47864 0.89957 0.46368 0.0
N1275 N 0.48183 0.8843 0.46466 0.0
C1276 C 0.54177 0.90105 0.36425 0.0
C1277 C 0.53027 0.87891 0.33618 0.0
C1278 C 0.55297 0.89212 0.38274 0.0
N1279 N 0.53059 0.89434 0.34215 0.0
C1280 C 0.54111 0.86949 0.35475 0.0
C1281 C 0.55244 0.87604 0.37939 0.0
H1282 H 0.54152 0.9133 0.36924 0.0
H1283 H 0.52101 0.87384 0.31925 0.0
C1284 C 0.45574 0.90277 0.36123 0.0
N1285 N 0.46864 0.89654 0.34529 0.0
C1286 C 0.44489 0.89341 0.37983 0.0
C1287 C 0.4602 0.8713 0.36257 0.0
C1288 C 0.47077 0.88109 0.34436 0.0
C1289 C 0.44729 0.87748 0.38176 0.0
H1290 H 0.45413 0.91502 0.36105 0.0
H1291 H 0.48119 0.87645 0.33173 0.0
O1292 O 0.51847 0.9285 0.31205 0.0
O1293 O 0.48225 0.93043 0.31344 0.0
O1294 O 0.4987 0.90051 0.28652 0.0
O1295 O 0.50088 0.91112 0.37562 0.0
H1296 H 0.50558 0.95384 0.28388 0.0
H1297 H 0.54798 0.93383 0.32351 0.0
H1298 H 0.51928 0.97825 0.271 0.0
H1299 H 0.56095 0.95862 0.31016 0.0
H1300 H 0.45535 0.95705 0.40701 0.0
H1301 H 0.47689 0.95568 0.27085 0.0
H1302 H 0.46982 0.93413 0.38503 0.0
H1303 H 0.46231 0.97818 0.29474 0.0
H1304 H 0.52365 0.94949 0.1623 0.0
H1305 H 0.47425 0.95049 0.16896 0.0
H1306 H 0.5125 0.95159 0.48267 0.0
H1307 H 0.49955 0.98594 0.39569 0.0
H1308 H 0.48768 0.87875 0.23994 0.0
H1309 H 0.52698 0.9073 0.26267 0.0
H1310 H 0.50168 0.8669 0.18318 0.0
H1311 H 0.54022 0.89502 0.2056 0.0
H1312 H 0.50534 0.88127 0.38553 0.0
H1313 H 0.48268 0.921 0.43376 0.0
H1314 H 0.49361 0.86551 0.43894 0.0
H1315 H 0.47108 0.9045 0.48582 0.0
H1316 H 0.56163 0.89775 0.40062 0.0
H1317 H 0.54004 0.85717 0.35162 0.0
H1318 H 0.43492 0.89862 0.3935 0.0
H1319 H 0.46257 0.85911 0.36354 0.0
Li1320 Li 0.01497 0.09362 0.82265 0.0
Li1321 Li 0.98681 0.09281 0.82528 0.0
Li1322 Li 0.0025 0.07106 0.84714 0.0
Li1323 Li 0.00112 0.0757 0.77664 0.0
C1324 C 0.0067 0.10116 0.89842 0.0
N1325 N 0.01796 0.12082 0.95619 0.0
C1326 C 0.00091 0.11607 0.90177 0.0
C1327 C 0.01804 0.09619 0.92487 0.0
C1328 C 0.00679 0.12584 0.93109 0.0
C1329 C 0.02364 0.10632 0.95373 0.0
C1330 C 0.9917 0.10452 0.74743 0.0
C1331 C 0.9694 0.10294 0.70509 0.0
N1332 N 0.97468 0.11506 0.68349 0.0
C1333 C 0.9969 0.11694 0.72481 0.0
C1334 C 0.97784 0.09745 0.73753 0.0
C1335 C 0.98813 0.12211 0.69261 0.0
C1336 C 0.04602 0.10226 0.83797 0.0
N1337 N 0.03158 0.10754 0.83174 0.0
C1338 C 0.03878 0.13259 0.854 0.0
C1339 C 0.028 0.12255 0.83768 0.0
C1340 C 0.05351 0.12721 0.86359 0.0
C1341 C 0.05723 0.11195 0.8539 0.0
H1342 H 0.04873 0.0904 0.83209 0.0
H1343 H 0.01645 0.12648 0.83211 0.0
C1344 C 0.96441 0.10076 0.87855 0.0
N1345 N 0.96925 0.10439 0.84115 0.0
C1346 C 0.95304 0.10939 0.89722 0.0
C1347 C 0.9514 0.12518 0.83807 0.0
C1348 C 0.963 0.11633 0.82067 0.0
C1349 C 0.94641 0.12191 0.8772 0.0
H1350 H 0.96991 0.09153 0.89466 0.0
H1351 H 0.96729 0.11934 0.79145 0.0
C1352 C 0.02953 0.0605 0.82067 0.0
N1353 N 0.0489 0.03721 0.84505 0.0
C1354 C 0.0312 0.04727 0.79737 0.0
C1355 C 0.03775 0.06184 0.85634 0.0
C1356 C 0.04105 0.03564 0.8102 0.0
C1357 C 0.04746 0.04995 0.86818 0.0
C1358 C 0.97727 0.0571 0.82339 0.0
C1359 C 0.98254 0.04331 0.80707 0.0
C1360 C 0.96553 0.05688 0.85173 0.0
C1361 C 0.976 0.0295 0.81959 0.0
C1362 C 0.95931 0.04282 0.86355 0.0
N1363 N 0.96463 0.02954 0.84738 0.0
C1364 C 0.99659 0.06009 0.92373 0.0
C1365 C 0.00674 0.04094 0.88111 0.0
C1366 C 0.99532 0.04957 0.95493 0.0
N1367 N 0.00236 0.05568 0.88783 0.0
C1368 C 0.00587 0.03008 0.91158 0.0
C1369 C 1.00008 0.03433 0.94915 0.0
H1370 H 0.99269 0.07174 0.92795 0.0
H1371 H 0.01066 0.03746 0.85196 0.0
C1372 C 0.01423 0.06257 0.7071 0.0
N1373 N 0.00074 0.06548 0.72587 0.0
C1374 C 0.0148 0.05223 0.67519 0.0
C1375 C 0.98738 0.04914 0.68015 0.0
C1376 C 0.98737 0.05934 0.7124 0.0
C1377 C 0.0013 0.04508 0.66203 0.0
H1378 H 0.0247 0.06756 0.71851 0.0
H1379 H 0.9768 0.06166 0.72811 0.0
O1380 O 0.00128 0.09149 0.86943 0.0
O1381 O 0.00029 0.09926 0.77874 0.0
O1382 O 0.02003 0.07208 0.80845 0.0
O1383 O 0.98377 0.07072 0.81214 0.0
H1384 H 0.99218 0.12016 0.88149 0.0
H1385 H 0.02245 0.08463 0.92324 0.0
H1386 H 0.00252 0.13744 0.93376 0.0
H1387 H 0.03249 0.10265 0.97422 0.0
H1388 H 0.95864 0.0976 0.69716 0.0
H1389 H 0.00763 0.12252 0.73208 0.0
H1390 H 0.97353 0.08793 0.75491 0.0
H1391 H 0.99201 0.13173 0.67485 0.0
H1392 H 0.03531 0.14421 0.86101 0.0
H1393 H 0.06855 0.10739 0.85961 0.0
H1394 H 0.94995 0.1066 0.9277 0.0
H1395 H 0.94657 0.13463 0.82126 0.0
H1396 H 0.0248 0.04584 0.77004 0.0
H1397 H 0.03659 0.07193 0.87481 0.0
H1398 H 0.04239 0.02533 0.79254 0.0
H1399 H 0.05384 0.05085 0.89579 0.0
H1400 H 0.9918 0.04324 0.78563 0.0
H1401 H 0.9613 0.06743 0.86461 0.0
H1402 H 0.98004 0.01873 0.80744 0.0
H1403 H 0.95026 0.04247 0.8856 0.0
H1404 H 0.99043 0.05329 0.98303 0.0
H1405 H 0.00974 0.0185 0.90573 0.0
H1406 H 0.02574 0.04948 0.66173 0.0
H1407 H 0.97674 0.0438 0.67103 0.0
C1408 C 0.11773 0.67063 0.14492 0.0
C1409 C 0.11718 0.6864 0.15325 0.0
C1410 C 0.10846 0.66019 0.16593 0.0
C1411 C 0.09843 0.66565 0.196 0.0
C1412 C 0.09804 0.68151 0.20502 0.0
C1413 C 0.10742 0.69167 0.1836 0.0
C1414 C 0.10915 0.64337 0.15539 0.0
C1415 C 0.08754 0.68781 0.23691 0.0
C1416 C 0.06239 0.64337 0.22131 0.0
C1417 C 0.0663 0.63643 0.25776 0.0
C1418 C 0.07285 0.65262 0.20058 0.0
C1419 C 0.08766 0.65499 0.21655 0.0
C1420 C 0.09185 0.64774 0.25286 0.0
C1421 C 0.08112 0.63851 0.27302 0.0
C1422 C 0.06794 0.66005 0.16188 0.0
C1423 C 0.10754 0.65001 0.27081 0.0
H1424 H 0.12519 0.66648 0.12142 0.0
H1425 H 0.10717 0.70379 0.19085 0.0
H1426 H 0.11144 0.63644 0.18254 0.0
H1427 H 0.09793 0.6396 0.1433 0.0
H1428 H 0.11815 0.64085 0.13286 0.0
H1429 H 0.08907 0.70034 0.24142 0.0
H1430 H 0.07544 0.68561 0.22858 0.0
H1431 H 0.08966 0.68188 0.26573 0.0
H1432 H 0.05109 0.64152 0.20881 0.0
H1433 H 0.0842 0.63319 0.30116 0.0
H1434 H 0.07601 0.65697 0.13759 0.0
H1435 H 0.06822 0.67272 0.16507 0.0
H1436 H 0.0562 0.65659 0.15276 0.0
H1437 H 0.1165 0.647 0.24868 0.0
H1438 H 0.10928 0.64297 0.2981 0.0
H1439 H 0.10917 0.66227 0.27869 0.0
C1440 C 0.56831 0.85214 0.38897 0.0
C1441 C 0.56286 0.86619 0.40378 0.0
C1442 C 0.57742 0.84245 0.41267 0.0
C1443 C 0.58141 0.847 0.45195 0.0
C1444 C 0.57622 0.86127 0.46683 0.0
C1445 C 0.5669 0.87059 0.4428 0.0
C1446 C 0.58262 0.82724 0.39586 0.0
C1447 C 0.58037 0.86663 0.50837 0.0
C1448 C 0.59262 0.81609 0.5266 0.0
C1449 C 0.60868 0.8165 0.52466 0.0
C1450 C 0.58362 0.82596 0.50319 0.0
C1451 C 0.59081 0.83673 0.4777 0.0
C1452 C 0.60699 0.83758 0.47652 0.0
C1453 C 0.61571 0.82738 0.49969 0.0
C1454 C 0.56639 0.82464 0.50512 0.0
C1455 C 0.61509 0.84907 0.45017 0.0
H1456 H 0.56546 0.84868 0.35878 0.0
H1457 H 0.56251 0.88121 0.45508 0.0
H1458 H 0.59531 0.82663 0.39593 0.0
H1459 H 0.57838 0.81775 0.41498 0.0
H1460 H 0.57849 0.82535 0.36485 0.0
H1461 H 0.57603 0.87835 0.51478 0.0
H1462 H 0.57556 0.85862 0.53087 0.0
H1463 H 0.59299 0.86659 0.51217 0.0
H1464 H 0.58704 0.80792 0.54619 0.0
H1465 H 0.62808 0.82766 0.49724 0.0
H1466 H 0.5618 0.82181 0.4751 0.0
H1467 H 0.56131 0.83578 0.51413 0.0
H1468 H 0.56257 0.81568 0.52653 0.0
H1469 H 0.61249 0.84665 0.41835 0.0
H1470 H 0.62771 0.84882 0.45428 0.0
H1471 H 0.61092 0.86083 0.45669 0.0
C1472 C 0.42828 0.35248 0.7574 0.0
C1473 C 0.43402 0.36643 0.74266 0.0
C1474 C 0.41888 0.34305 0.7338 0.0
C1475 C 0.4149 0.34775 0.69464 0.0
C1476 C 0.42026 0.36199 0.67995 0.0
C1477 C 0.42984 0.37108 0.70395 0.0
C1478 C 0.41345 0.3279 0.75048 0.0
C1479 C 0.41615 0.36749 0.63852 0.0
C1480 C 0.40385 0.31658 0.62055 0.0
C1481 C 0.38779 0.31692 0.6224 0.0
C1482 C 0.41279 0.32665 0.64354 0.0
C1483 C 0.40553 0.33752 0.66863 0.0
C1484 C 0.38935 0.33833 0.66957 0.0
C1485 C 0.38068 0.32797 0.6467 0.0
C1486 C 0.43002 0.32539 0.64177 0.0
C1487 C 0.38117 0.34989 0.69553 0.0
H1488 H 0.43122 0.34886 0.78741 0.0
H1489 H 0.4344 0.38166 0.6918 0.0
H1490 H 0.40077 0.32735 0.74981 0.0
H1491 H 0.41778 0.31836 0.73163 0.0
H1492 H 0.41736 0.32601 0.78168 0.0
H1493 H 0.42044 0.37926 0.63249 0.0
H1494 H 0.42107 0.3596 0.61589 0.0
H1495 H 0.40354 0.36738 0.63451 0.0
H1496 H 0.40947 0.30829 0.60142 0.0
H1497 H 0.36831 0.32821 0.64895 0.0
H1498 H 0.43457 0.32247 0.67179 0.0
H1499 H 0.43509 0.33656 0.63304 0.0
H1500 H 0.4339 0.3165 0.62023 0.0
H1501 H 0.38358 0.34747 0.72746 0.0
H1502 H 0.36858 0.34971 0.69094 0.0
H1503 H 0.38546 0.36162 0.68916 0.0
C1504 C 0.88086 0.17483 0.97568 0.0
C1505 C 0.88633 0.18141 0.01116 0.0
C1506 C 0.89004 0.16486 0.95303 0.0
C1507 C 0.90496 0.1612 0.96653 0.0
C1508 C 0.91039 0.16751 0.0029 0.0
C1509 C 0.90106 0.17767 0.02457 0.0
C1510 C 0.88392 0.1586 0.91411 0.0
C1511 C 0.92613 0.16368 0.01866 0.0
C1512 C 0.92454 0.12558 0.92531 0.0
C1513 C 0.93504 0.1319 0.89808 0.0
C1514 C 0.91466 0.13496 0.94768 0.0
C1515 C 0.91503 0.15105 0.94219 0.0
C1516 C 0.92522 0.15749 0.91387 0.0
C1517 C 0.93518 0.14787 0.89245 0.0
C1518 C 0.90404 0.12766 0.9778 0.0
C1519 C 0.92581 0.17459 0.9067 0.0
H1520 H 0.86956 0.17791 0.96491 0.0
H1521 H 0.90528 0.18272 0.05205 0.0
H1522 H 0.89124 0.16255 0.88903 0.0
H1523 H 0.88431 0.14589 0.9143 0.0
H1524 H 0.87195 0.1623 0.90826 0.0
H1525 H 0.92836 0.16897 0.04829 0.0
H1526 H 0.92744 0.15105 0.02137 0.0
H1527 H 0.93498 0.16774 0.99738 0.0
H1528 H 0.92407 0.11326 0.92941 0.0
H1529 H 0.94337 0.15296 0.87207 0.0
H1530 H 0.89199 0.13067 0.97088 0.0
H1531 H 0.90658 0.13217 0.0081 0.0
H1532 H 0.90511 0.11496 0.97841 0.0
H1533 H 0.91421 0.17896 0.89933 0.0
H1534 H 0.93374 0.1777 0.88205 0.0
H1535 H 0.9296 0.18053 0.93429 0.0
C1536 C 0.06078 0.36145 0.93315 0.0
C1537 C 0.0625 0.36386 0.89192 0.0
C1538 C 0.07069 0.3517 0.95419 0.0
C1539 C 0.08265 0.34415 0.93356 0.0
C1540 C 0.08442 0.34644 0.89189 0.0
C1541 C 0.07428 0.35624 0.87152 0.0
C1542 C 0.06832 0.34945 0.99851 0.0
C1543 C 0.09708 0.33863 0.8689 0.0
C1544 C 0.11646 0.32999 0.99501 0.0
C1545 C 0.11311 0.31432 0.99908 0.0
C1546 C 0.10672 0.3398 0.97349 0.0
C1547 C 0.09327 0.33382 0.95572 0.0
C1548 C 0.08979 0.31804 0.95982 0.0
C1549 C 0.09976 0.30848 0.98133 0.0
C1550 C 0.11082 0.35657 0.96983 0.0
C1551 C 0.07554 0.31123 0.94137 0.0
H1552 H 0.05152 0.36708 0.94898 0.0
H1553 H 0.07571 0.35812 0.83973 0.0
H1554 H 0.06631 0.33714 0.00504 0.0
H1555 H 0.07877 0.35294 0.01504 0.0
H1556 H 0.05847 0.35618 0.01011 0.0
H1557 H 0.09687 0.34157 0.83661 0.0
H1558 H 0.10836 0.34199 0.88139 0.0
H1559 H 0.09607 0.326 0.87205 0.0
H1560 H 0.12668 0.33461 0.00887 0.0
H1561 H 0.09723 0.29633 0.98358 0.0
H1562 H 0.10167 0.36372 0.98335 0.0
H1563 H 0.11164 0.35983 0.93786 0.0
H1564 H 0.12184 0.35936 0.9847 0.0
H1565 H 0.06523 0.3171 0.95325 0.0
H1566 H 0.07447 0.29874 0.94737 0.0
H1567 H 0.07566 0.31305 0.90857 0.0
C1568 C 0.94335 0.85211 0.22015 0.0
C1569 C 0.93834 0.85976 0.25466 0.0
C1570 C 0.93334 0.84298 0.19759 0.0
C1571 C 0.91791 0.84139 0.20983 0.0
C1572 C 0.91275 0.84911 0.24458 0.0
C1573 C 0.92301 0.85827 0.26649 0.0
C1574 C 0.93928 0.83506 0.16056 0.0
C1575 C 0.89641 0.84758 0.25876 0.0
C1576 C 0.88898 0.82794 0.13223 0.0
C1577 C 0.88808 0.8122 0.14053 0.0
C1578 C 0.89857 0.83762 0.15469 0.0
C1579 C 0.90731 0.83142 0.1865 0.0
C1580 C 0.90631 0.81556 0.19525 0.0
C1581 C 0.89676 0.80615 0.17208 0.0
C1582 C 0.89946 0.85444 0.14417 0.0
C1583 C 0.91532 0.80852 0.22912 0.0
H1584 H 0.95511 0.85346 0.21036 0.0
H1585 H 0.9191 0.86412 0.29319 0.0
H1586 H 0.93799 0.82245 0.16367 0.0
H1587 H 0.93247 0.83862 0.13416 0.0
H1588 H 0.95153 0.83768 0.15475 0.0
H1589 H 0.89417 0.85439 0.2862 0.0
H1590 H 0.88843 0.85142 0.235 0.0
H1591 H 0.89379 0.83535 0.26503 0.0
H1592 H 0.88231 0.83266 0.10782 0.0
H1593 H 0.89589 0.79404 0.17912 0.0
H1594 H 0.91137 0.85748 0.13587 0.0
H1595 H 0.89633 0.86152 0.17047 0.0
H1596 H 0.89177 0.8575 0.11896 0.0
H1597 H 0.92776 0.81 0.22366 0.0
H1598 H 0.9129 0.79609 0.2328 0.0
H1599 H 0.9126 0.81447 0.25755 0.0
C1600 C 0.38225 0.67729 0.4739 0.0
C1601 C 0.38815 0.68443 0.50819 0.0
C1602 C 0.39123 0.66714 0.45126 0.0
C1603 C 0.40642 0.66394 0.46339 0.0
C1604 C 0.41235 0.67092 0.49836 0.0
C1605 C 0.40317 0.68116 0.5202 0.0
C1606 C 0.38455 0.66007 0.41393 0.0
C1607 C 0.42843 0.66765 0.51258 0.0
C1608 C 0.42606 0.62769 0.42657 0.0
C1609 C 0.43606 0.63346 0.39732 0.0
C1610 C 0.41621 0.63743 0.44788 0.0
C1611 C 0.41618 0.65334 0.43947 0.0
C1612 C 0.42582 0.65919 0.40901 0.0
C1613 C 0.43568 0.6492 0.38842 0.0
C1614 C 0.40612 0.63075 0.48012 0.0
C1615 C 0.426 0.67607 0.39889 0.0
H1616 H 0.37073 0.67999 0.46413 0.0
H1617 H 0.40774 0.6866 0.54678 0.0
H1618 H 0.39144 0.66352 0.38756 0.0
H1619 H 0.38503 0.64738 0.41587 0.0
H1620 H 0.37247 0.66358 0.40889 0.0
H1621 H 0.4312 0.67374 0.54083 0.0
H1622 H 0.42993 0.65514 0.5174 0.0
H1623 H 0.4368 0.67119 0.4894 0.0
H1624 H 0.42605 0.61552 0.43317 0.0
H1625 H 0.44346 0.65382 0.36626 0.0
H1626 H 0.39396 0.63365 0.47425 0.0
H1627 H 0.40918 0.63583 0.50945 0.0
H1628 H 0.4072 0.61807 0.48228 0.0
H1629 H 0.41423 0.68012 0.39224 0.0
H1630 H 0.43345 0.67865 0.37282 0.0
H1631 H 0.4302 0.68273 0.42493 0.0
C1632 C 0.59938 0.18036 0.63472 0.0
C1633 C 0.61517 0.18169 0.6415 0.0
C1634 C 0.59027 0.17068 0.6584 0.0
C1635 C 0.5971 0.16221 0.68985 0.0
C1636 C 0.61308 0.16329 0.69636 0.0
C1637 C 0.62193 0.17298 0.67204 0.0
C1638 C 0.5733 0.16971 0.6502 0.0
C1639 C 0.62076 0.15452 0.72971 0.0
C1640 C 0.57058 0.15 0.7742 0.0
C1641 C 0.56757 0.13466 0.76431 0.0
C1642 C 0.58047 0.15899 0.75078 0.0
C1643 C 0.58741 0.15252 0.71644 0.0
C1644 C 0.58468 0.13694 0.70679 0.0
C1645 C 0.57483 0.1282 0.73088 0.0
C1646 C 0.58322 0.17551 0.7623 0.0
C1647 C 0.59178 0.12965 0.67029 0.0
H1648 H 0.59413 0.18697 0.61097 0.0
H1649 H 0.63408 0.17414 0.67783 0.0
H1650 H 0.5699 0.15759 0.64522 0.0
H1651 H 0.56681 0.17391 0.67651 0.0
H1652 H 0.56987 0.17657 0.62369 0.0
H1653 H 0.63337 0.15619 0.72994 0.0
H1654 H 0.6161 0.15832 0.75892 0.0
H1655 H 0.6183 0.14209 0.72686 0.0
H1656 H 0.56508 0.15501 0.80014 0.0
H1657 H 0.57236 0.11642 0.72266 0.0
H1658 H 0.57882 0.1832 0.73852 0.0
H1659 H 0.59568 0.17772 0.76517 0.0
H1660 H 0.57756 0.17858 0.79092 0.0
H1661 H 0.58756 0.1355 0.64298 0.0
H1662 H 0.58906 0.11723 0.66795 0.0
H1663 H 0.6044 0.13104 0.67097 0.0
C1664 C 0.92097 0.36231 0.88531 0.0
C1665 C 0.93694 0.36183 0.88942 0.0
C1666 C 0.91149 0.35264 0.90808 0.0
C1667 C 0.91815 0.34234 0.93586 0.0
C1668 C 0.93426 0.34194 0.94042 0.0
C1669 C 0.94345 0.35164 0.9171 0.0
C1670 C 0.89437 0.35332 0.90212 0.0
C1671 C 0.9418 0.33122 0.96991 0.0
C1672 C 0.89343 0.32567 0.01903 0.0
C1673 C 0.89027 0.31096 0.00423 0.0
C1674 C 0.90246 0.33605 0.99709 0.0
C1675 C 0.90833 0.33164 0.95932 0.0
C1676 C 0.90504 0.31685 0.9441 0.0
C1677 C 0.89608 0.30671 0.96674 0.0
C1678 C 0.90582 0.35168 0.01443 0.0
C1679 C 0.91096 0.31175 0.90384 0.0
H1680 H 0.9159 0.37013 0.86388 0.0
H1681 H 0.95577 0.35144 0.92099 0.0
H1682 H 0.8901 0.34199 0.89191 0.0
H1683 H 0.88862 0.35591 0.93088 0.0
H1684 H 0.89098 0.36214 0.87985 0.0
H1685 H 0.95445 0.3326 0.97061 0.0
H1686 H 0.93724 0.33331 0.00037 0.0
H1687 H 0.93911 0.31915 0.96208 0.0
H1688 H 0.88901 0.329 0.04803 0.0
H1689 H 0.89342 0.29546 0.95474 0.0
H1690 H 0.90176 0.36076 0.99376 0.0
H1691 H 0.91837 0.3532 0.01788 0.0
H1692 H 0.9003 0.3534 0.04399 0.0
H1693 H 0.90696 0.31975 0.88026 0.0
H1694 H 0.90715 0.29996 0.89601 0.0
H1695 H 0.92366 0.31203 0.90366 0.0
C1696 C 0.4227 0.13808 0.7561 0.0
C1697 C 0.43851 0.13821 0.74865 0.0
C1698 C 0.41268 0.14744 0.73406 0.0
C1699 C 0.4186 0.15714 0.70382 0.0
C1700 C 0.43452 0.15723 0.69596 0.0
C1701 C 0.44426 0.14776 0.71839 0.0
C1702 C 0.39577 0.14707 0.74339 0.0
C1703 C 0.44129 0.16738 0.66392 0.0
C1704 C 0.39215 0.17297 0.62328 0.0
C1705 C 0.38957 0.18796 0.63703 0.0
C1706 C 0.40143 0.16274 0.64492 0.0
C1707 C 0.40826 0.16759 0.68119 0.0
C1708 C 0.40555 0.18264 0.69541 0.0
C1709 C 0.39624 0.19261 0.67324 0.0
C1710 C 0.40408 0.14678 0.62878 0.0
C1711 C 0.41257 0.18826 0.73398 0.0
H1712 H 0.41818 0.13079 0.77956 0.0
H1713 H 0.45641 0.14769 0.71182 0.0
H1714 H 0.39193 0.15857 0.75341 0.0
H1715 H 0.38917 0.14419 0.71608 0.0
H1716 H 0.39293 0.13858 0.76703 0.0
H1717 H 0.45387 0.16589 0.66102 0.0
H1718 H 0.4359 0.16481 0.63466 0.0
H1719 H 0.43888 0.17959 0.67083 0.0
H1720 H 0.3871 0.16932 0.59527 0.0
H1721 H 0.39404 0.20405 0.68455 0.0
H1722 H 0.40063 0.13811 0.65131 0.0
H1723 H 0.41645 0.14506 0.62274 0.0
H1724 H 0.3976 0.14463 0.60076 0.0
H1725 H 0.40913 0.18066 0.75902 0.0
H1726 H 0.40911 0.2002 0.74127 0.0
H1727 H 0.42524 0.18781 0.73189 0.0
C1728 C 0.55635 0.64893 0.41628 0.0
C1729 C 0.56265 0.63997 0.38559 0.0
C1730 C 0.56562 0.65837 0.44013 0.0
C1731 C 0.58159 0.65896 0.43299 0.0
C1732 C 0.58802 0.65002 0.40187 0.0
C1733 C 0.57848 0.64056 0.37866 0.0
C1734 C 0.55833 0.66762 0.47319 0.0
C1735 C 0.60496 0.65045 0.39307 0.0
C1736 C 0.60289 0.6942 0.46995 0.0
C1737 C 0.60976 0.68877 0.50512 0.0
C1738 C 0.59383 0.68458 0.44607 0.0
C1739 C 0.59149 0.66915 0.45768 0.0
C1740 C 0.59843 0.66356 0.4931 0.0
C1741 C 0.60756 0.67342 0.5163 0.0
C1742 C 0.58677 0.69095 0.40834 0.0
C1743 C 0.5961 0.6472 0.50662 0.0
H1744 H 0.54417 0.64828 0.42229 0.0
H1745 H 0.58338 0.63369 0.3549 0.0
H1746 H 0.56359 0.66456 0.50231 0.0
H1747 H 0.56046 0.68003 0.46825 0.0
H1748 H 0.54578 0.66573 0.47518 0.0
H1749 H 0.60816 0.64283 0.3678 0.0
H1750 H 0.60851 0.66235 0.38572 0.0
H1751 H 0.61152 0.6469 0.41991 0.0
H1752 H 0.60481 0.70597 0.46072 0.0
H1753 H 0.61281 0.6692 0.54351 0.0
H1754 H 0.57412 0.6901 0.41 0.0
H1755 H 0.59051 0.68409 0.38219 0.0
H1756 H 0.58993 0.70314 0.40317 0.0
H1757 H 0.58373 0.64498 0.51142 0.0
H1758 H 0.60235 0.64461 0.53474 0.0
H1759 H 0.60006 0.63916 0.48309 0.0
C1760 C 0.11173 0.82828 0.11868 0.0
C1761 C 0.11242 0.81258 0.12761 0.0
C1762 C 0.10218 0.83818 0.14054 0.0
C1763 C 0.09328 0.83226 0.17241 0.0
C1764 C 0.09399 0.81642 0.18162 0.0
C1765 C 0.1035 0.80678 0.15903 0.0
C1766 C 0.10159 0.85497 0.12953 0.0
C1767 C 0.08482 0.80968 0.21562 0.0
C1768 C 0.07878 0.85942 0.25309 0.0
C1769 C 0.06338 0.86118 0.24219 0.0
C1770 C 0.08868 0.85012 0.23052 0.0
C1771 C 0.08308 0.84256 0.19598 0.0
C1772 C 0.06761 0.84451 0.18451 0.0
C1773 C 0.05794 0.85375 0.20781 0.0
C1774 C 0.10507 0.8482 0.24392 0.0
C1775 C 0.06123 0.8368 0.14769 0.0
H1776 H 0.1186 0.83279 0.09438 0.0
H1777 H 0.10422 0.7947 0.16657 0.0
H1778 H 0.08968 0.85828 0.12194 0.0
H1779 H 0.10515 0.86207 0.15541 0.0
H1780 H 0.10911 0.85773 0.10375 0.0
H1781 H 0.08682 0.79717 0.21923 0.0
H1782 H 0.08785 0.81551 0.24401 0.0
H1783 H 0.07242 0.8116 0.21044 0.0
H1784 H 0.083 0.86512 0.27969 0.0
H1785 H 0.04611 0.85532 0.19883 0.0
H1786 H 0.11299 0.85175 0.21969 0.0
H1787 H 0.10741 0.83594 0.25036 0.0
H1788 H 0.1077 0.85504 0.27109 0.0
H1789 H 0.06808 0.84006 0.12109 0.0
H1790 H 0.04907 0.83988 0.14218 0.0
H1791 H 0.06206 0.82415 0.15089 0.0
C1792 C 0.93861 0.65274 0.2388 0.0
C1793 C 0.93505 0.63821 0.25439 0.0
C1794 C 0.92741 0.66183 0.22037 0.0
C1795 C 0.91216 0.6564 0.21791 0.0
C1796 C 0.90835 0.64197 0.23467 0.0
C1797 C 0.91985 0.63302 0.2526 0.0
C1798 C 0.93195 0.67715 0.20294 0.0
C1799 C 0.89218 0.63588 0.23304 0.0
C1800 C 0.88189 0.68682 0.19924 0.0
C1801 C 0.8794 0.68546 0.1579 0.0
C1802 C 0.89212 0.6771 0.21934 0.0
C1803 C 0.9003 0.66587 0.19757 0.0
C1804 C 0.89775 0.66428 0.15597 0.0
C1805 C 0.88729 0.67404 0.13667 0.0
C1806 C 0.89445 0.67912 0.26375 0.0
C1807 C 0.90634 0.6525 0.13167 0.0
H1808 H 0.95025 0.65699 0.24074 0.0
H1809 H 0.91702 0.62176 0.26419 0.0
H1810 H 0.92947 0.67732 0.17042 0.0
H1811 H 0.92512 0.68646 0.21685 0.0
H1812 H 0.94429 0.67972 0.2074 0.0
H1813 H 0.89096 0.62475 0.2489 0.0
H1814 H 0.88417 0.64429 0.24659 0.0
H1815 H 0.88865 0.6343 0.20147 0.0
H1816 H 0.87613 0.69578 0.21591 0.0
H1817 H 0.88532 0.67275 0.10488 0.0
H1818 H 0.90632 0.68304 0.26967 0.0
H1819 H 0.89292 0.668 0.27938 0.0
H1820 H 0.88639 0.68761 0.27681 0.0
H1821 H 0.9188 0.65496 0.13284 0.0
H1822 H 0.90267 0.65236 0.09989 0.0
H1823 H 0.90461 0.64089 0.14449 0.0
C1824 C 0.07369 0.13088 0.91628 0.0
C1825 C 0.06454 0.13712 0.88579 0.0
C1826 C 0.08361 0.14014 0.93883 0.0
C1827 C 0.08432 0.15609 0.93116 0.0
C1828 C 0.07519 0.16248 0.90038 0.0
C1829 C 0.06549 0.15292 0.87796 0.0
C1830 C 0.09324 0.13286 0.97117 0.0
C1831 C 0.07557 0.17945 0.89138 0.0
C1832 C 0.09883 0.18265 0.01314 0.0
C1833 C 0.11379 0.18583 0.0002 0.0
C1834 C 0.08914 0.17294 0.99109 0.0
C1835 C 0.09457 0.16611 0.95539 0.0
C1836 C 0.10973 0.16902 0.94257 0.0
C1837 C 0.1191 0.17889 0.96493 0.0
C1838 C 0.07302 0.17017 0.00569 0.0
C1839 C 0.11599 0.16187 0.90484 0.0
H1840 H 0.07285 0.11877 0.92321 0.0
H1841 H 0.05864 0.15785 0.85421 0.0
H1842 H 0.10553 0.13539 0.96594 0.0
H1843 H 0.09018 0.13781 0.00064 0.0
H1844 H 0.09171 0.12022 0.97259 0.0
H1845 H 0.06772 0.18264 0.86663 0.0
H1846 H 0.0723 0.18605 0.91842 0.0
H1847 H 0.08736 0.18299 0.8832 0.0
H1848 H 0.09465 0.18777 0.04055 0.0
H1849 H 0.13051 0.18148 0.95412 0.0
H1850 H 0.07109 0.15771 0.01027 0.0
H1851 H 0.06469 0.17407 0.98282 0.0
H1852 H 0.07058 0.17625 0.03416 0.0
H1853 H 0.11486 0.1492 0.90624 0.0
H1854 H 0.12822 0.16479 0.89981 0.0
H1855 H 0.10926 0.16584 0.8787 0.0
C1856 C 0.60063 0.30301 0.66993 0.0
C1857 C 0.60835 0.30846 0.63598 0.0
C1858 C 0.59121 0.31269 0.69269 0.0
C1859 C 0.58949 0.32824 0.68139 0.0
C1860 C 0.59727 0.33384 0.64721 0.0
C1861 C 0.60663 0.32389 0.62494 0.0
C1862 C 0.58317 0.30628 0.72899 0.0
C1863 C 0.59568 0.35034 0.63416 0.0
C1864 C 0.55422 0.3493 0.71892 0.0
C1865 C 0.56011 0.35764 0.75135 0.0
C1866 C 0.56367 0.33978 0.69579 0.0
C1867 C 0.57942 0.33857 0.70521 0.0
C1868 C 0.58546 0.34697 0.73783 0.0
C1869 C 0.57574 0.35643 0.76049 0.0
C1870 C 0.55679 0.33104 0.66121 0.0
C1871 C 0.60219 0.34593 0.74889 0.0
H1872 H 0.60216 0.2912 0.6792 0.0
H1873 H 0.6125 0.32815 0.59866 0.0
H1874 H 0.58667 0.31273 0.75605 0.0
H1875 H 0.5706 0.30768 0.72575 0.0
H1876 H 0.58572 0.29393 0.73375 0.0
H1877 H 0.60254 0.35293 0.60704 0.0
H1878 H 0.58349 0.35297 0.62781 0.0
H1879 H 0.5994 0.35811 0.65858 0.0
H1880 H 0.54222 0.35042 0.71114 0.0
H1881 H 0.58034 0.36276 0.78563 0.0
H1882 H 0.55843 0.31853 0.6657 0.0
H1883 H 0.56272 0.33417 0.63305 0.0
H1884 H 0.54436 0.33335 0.6576 0.0
H1885 H 0.60517 0.3339 0.75645 0.0
H1886 H 0.60514 0.35337 0.77473 0.0
H1887 H 0.60939 0.34932 0.72305 0.0
C1888 C 0.40694 0.81669 0.52612 0.0
C1889 C 0.39093 0.81681 0.52267 0.0
C1890 C 0.41603 0.82702 0.50434 0.0
C1891 C 0.40895 0.83773 0.47842 0.0
C1892 C 0.39279 0.83819 0.47563 0.0
C1893 C 0.38398 0.82774 0.49776 0.0
C1894 C 0.43323 0.82624 0.50835 0.0
C1895 C 0.38481 0.84943 0.44832 0.0
C1896 C 0.43203 0.87225 0.4437 0.0
C1897 C 0.43696 0.86752 0.40573 0.0
C1898 C 0.42284 0.86273 0.46759 0.0
C1899 C 0.41848 0.8481 0.45321 0.0
C1900 C 0.4233 0.8433 0.41478 0.0
C1901 C 0.4325 0.85305 0.39154 0.0
C1902 C 0.41798 0.86824 0.50844 0.0
C1903 C 0.41883 0.8278 0.39831 0.0
H1904 H 0.41238 0.80838 0.5456 0.0
H1905 H 0.37163 0.82776 0.49439 0.0
H1906 H 0.4384 0.82309 0.47919 0.0
H1907 H 0.43786 0.83765 0.51675 0.0
H1908 H 0.43692 0.81771 0.53107 0.0
H1909 H 0.37214 0.84883 0.45103 0.0
H1910 H 0.38855 0.86131 0.45513 0.0
H1911 H 0.38799 0.84704 0.41684 0.0
H1912 H 0.43565 0.8833 0.45518 0.0
H1913 H 0.43617 0.84937 0.36212 0.0
H1914 H 0.42249 0.86038 0.53171 0.0
H1915 H 0.40531 0.8681 0.51084 0.0
H1916 H 0.42211 0.88004 0.51492 0.0
H1917 H 0.42319 0.81859 0.41817 0.0
H1918 H 0.42337 0.82586 0.36772 0.0
H1919 H 0.40617 0.82674 0.39746 0.0
C1920 C 0.99357 0.52899 0.11161 0.0
C1921 C 0.00538 0.52896 0.13997 0.0
C1922 C 0.99366 0.5187 0.07949 0.0
C1923 C 0.00589 0.50815 0.07566 0.0
C1924 C 0.01801 0.50826 0.1037 0.0
C1925 C 0.01761 0.51869 0.13559 0.0
C1926 C 0.98056 0.51895 0.05002 0.0
C1927 C 0.03122 0.49716 0.10049 0.0
C1928 C 0.9977 0.47176 0.01766 0.0
C1929 C 0.00408 0.4752 0.9803 0.0
C1930 C 0.9984 0.48233 0.04915 0.0
C1931 C 0.00566 0.49665 0.04304 0.0
C1932 C 0.01229 0.50013 0.00554 0.0
C1933 C 0.0114 0.48935 0.97455 0.0
C1934 C 0.99115 0.47826 0.08873 0.0
C1935 C 0.02017 0.51528 0.99809 0.0
H1936 H 0.98422 0.5371 0.11456 0.0
H1937 H 0.02669 0.51854 0.15767 0.0
H1938 H 0.98499 0.52063 0.01927 0.0
H1939 H 0.9745 0.50776 0.05052 0.0
H1940 H 0.97216 0.52817 0.05665 0.0
H1941 H 0.04009 0.49922 0.12367 0.0
H1942 H 0.02696 0.48523 0.10366 0.0
H1943 H 0.03664 0.49807 0.07061 0.0
H1944 H 0.99186 0.46091 0.02205 0.0
H1945 H 0.01652 0.49195 0.94583 0.0
H1946 H 0.98179 0.48646 0.09557 0.0
H1947 H 0.99972 0.47921 0.11307 0.0
H1948 H 0.98636 0.46645 0.08892 0.0
H1949 H 0.01192 0.52483 0.00217 0.0
H1950 H 0.02507 0.51604 0.96751 0.0
H1951 H 0.02952 0.51698 0.0201 0.0
C1952 C 0.75765 0.7514 0.23973 0.0
C1953 C 0.77165 0.75921 0.2429 0.0
C1954 C 0.74704 0.75158 0.27112 0.0
C1955 C 0.7506 0.75959 0.3067 0.0
C1956 C 0.7646 0.76764 0.30997 0.0
C1957 C 0.77491 0.76745 0.2779 0.0
C1958 C 0.73213 0.74298 0.26649 0.0
C1959 C 0.76881 0.77623 0.3476 0.0
C1960 C 0.71821 0.76997 0.377 0.0
C1961 C 0.71894 0.758 0.40498 0.0
C1962 C 0.72846 0.77065 0.34482 0.0
C1963 C 0.73983 0.7592 0.3409 0.0
C1964 C 0.74083 0.74725 0.3694 0.0
C1965 C 0.7303 0.74674 0.40096 0.0
C1966 C 0.72701 0.7835 0.3148 0.0
C1967 C 0.75292 0.73491 0.36631 0.0
H1968 H 0.75513 0.74482 0.21305 0.0
H1969 H 0.78558 0.77374 0.2803 0.0
H1970 H 0.73152 0.73357 0.28876 0.0
H1971 H 0.72233 0.75077 0.27232 0.0
H1972 H 0.73078 0.73797 0.23617 0.0
H1973 H 0.78007 0.78209 0.34511 0.0
H1974 H 0.75994 0.78494 0.35454 0.0
H1975 H 0.76925 0.76816 0.37322 0.0
H1976 H 0.70964 0.77887 0.38028 0.0
H1977 H 0.73081 0.73733 0.42209 0.0
H1978 H 0.72496 0.77869 0.28457 0.0
H1979 H 0.73784 0.79013 0.31341 0.0
H1980 H 0.71751 0.7915 0.32216 0.0
H1981 H 0.75141 0.7284 0.33811 0.0
H1982 H 0.75247 0.72673 0.39173 0.0
H1983 H 0.76447 0.7402 0.3654 0.0
C1984 C 0.5012 0.51099 0.49103 0.0
C1985 C 0.50242 0.52685 0.49759 0.0
C1986 C 0.50075 0.50066 0.52307 0.0
C1987 C 0.50116 0.50635 0.56262 0.0
C1988 C 0.50206 0.52233 0.56957 0.0
C1989 C 0.50285 0.53238 0.53696 0.0
C1990 C 0.49998 0.48365 0.51458 0.0
C1991 C 0.5023 0.5288 0.61144 0.0
C1992 C 0.48684 0.47993 0.64445 0.0
C1993 C 0.50063 0.47468 0.66074 0.0
C1994 C 0.48683 0.49047 0.61282 0.0
C1995 C 0.50095 0.49553 0.59676 0.0
C1996 C 0.51491 0.49014 0.61302 0.0
C1997 C 0.51457 0.47987 0.64518 0.0
C1998 C 0.47174 0.49624 0.5967 0.0
C1999 C 0.53017 0.49506 0.5961 0.0
H2000 H 0.50053 0.50661 0.46078 0.0
H2001 H 0.50402 0.54458 0.54239 0.0
H2002 H 0.50991 0.47777 0.52846 0.0
H2003 H 0.48948 0.4787 0.52803 0.0
H2004 H 0.49996 0.48111 0.48205 0.0
H2005 H 0.50226 0.54154 0.61168 0.0
H2006 H 0.49221 0.52464 0.62843 0.0
H2007 H 0.51267 0.52474 0.62742 0.0
H2008 H 0.47608 0.47594 0.65685 0.0
H2009 H 0.52522 0.47564 0.65773 0.0
H2010 H 0.47058 0.49308 0.56474 0.0
H2011 H 0.47133 0.50894 0.59848 0.0
H2012 H 0.46179 0.49148 0.6133 0.0
H2013 H 0.53083 0.49194 0.564 0.0
H2014 H 0.53996 0.48967 0.61198 0.0
H2015 H 0.53138 0.5077 0.59809 0.0
C2016 C 0.77634 0.23693 0.87288 0.0
C2017 C 0.77841 0.24977 0.89754 0.0
C2018 C 0.76566 0.23716 0.84163 0.0
C2019 C 0.75686 0.25054 0.83495 0.0
C2020 C 0.75888 0.26354 0.85977 0.0
C2021 C 0.76963 0.26299 0.89083 0.0
C2022 C 0.76376 0.22306 0.81587 0.0
C2023 C 0.7497 0.27802 0.85343 0.0
C2024 C 0.73893 0.25588 0.73268 0.0
C2025 C 0.7238 0.25123 0.73977 0.0
C2026 C 0.74982 0.25579 0.76348 0.0
C2027 C 0.74545 0.25089 0.80216 0.0
C2028 C 0.73019 0.2462 0.8095 0.0
C2029 C 0.71955 0.24643 0.77819 0.0
C2030 C 0.76598 0.26091 0.75464 0.0
C2031 C 0.72515 0.24085 0.85036 0.0
H2032 H 0.78297 0.22663 0.87833 0.0
H2033 H 0.77134 0.27299 0.90955 0.0
H2034 H 0.75179 0.21886 0.81771 0.0
H2035 H 0.76602 0.22596 0.78414 0.0
H2036 H 0.77157 0.21361 0.82489 0.0
H2037 H 0.7517 0.28251 0.82286 0.0
H2038 H 0.73729 0.27548 0.85601 0.0
H2039 H 0.75267 0.28712 0.87533 0.0
H2040 H 0.7422 0.25977 0.70312 0.0
H2041 H 0.70792 0.24262 0.78364 0.0
H2042 H 0.77412 0.25146 0.76121 0.0
H2043 H 0.7691 0.27069 0.77423 0.0
H2044 H 0.7675 0.26446 0.72301 0.0
H2045 H 0.73197 0.23072 0.85956 0.0
H2046 H 0.71282 0.23773 0.85116 0.0
H2047 H 0.72724 0.25 0.87276 0.0
C2048 C 0.218 0.2533 0.85395 0.0
C2049 C 0.22337 0.25089 0.89292 0.0
C2050 C 0.22813 0.2537 0.8215 0.0
C2051 C 0.24398 0.25153 0.82828 0.0
C2052 C 0.24946 0.249 0.86753 0.0
C2053 C 0.23907 0.24877 0.89945 0.0
C2054 C 0.22192 0.25654 0.78005 0.0
C2055 C 0.26628 0.24652 0.87579 0.0
C2056 C 0.26903 0.23877 0.74199 0.0
C2057 C 0.27621 0.25256 0.7313 0.0
C2058 C 0.25842 0.23829 0.77337 0.0
C2059 C 0.25487 0.25194 0.7943 0.0
C2060 C 0.26191 0.26593 0.78325 0.0
C2061 C 0.27255 0.26607 0.75191 0.0
C2062 C 0.25119 0.22314 0.78454 0.0
C2063 C 0.25829 0.28073 0.80473 0.0
H2064 H 0.20587 0.25512 0.84894 0.0
H2065 H 0.24321 0.24674 0.92952 0.0
H2066 H 0.22723 0.267 0.76722 0.0
H2067 H 0.22492 0.24682 0.76014 0.0
H2068 H 0.20928 0.25799 0.7799 0.0
H2069 H 0.26864 0.24457 0.90802 0.0
H2070 H 0.27048 0.23647 0.85866 0.0
H2071 H 0.27295 0.25664 0.86572 0.0
H2072 H 0.27198 0.22829 0.72636 0.0
H2073 H 0.27796 0.27677 0.74334 0.0
H2074 H 0.23854 0.22402 0.78287 0.0
H2075 H 0.25416 0.22018 0.81584 0.0
H2076 H 0.25499 0.21363 0.76478 0.0
H2077 H 0.24581 0.28305 0.80338 0.0
H2078 H 0.26448 0.2907 0.79178 0.0
H2079 H 0.26143 0.27972 0.83674 0.0
C2080 C 0.26782 0.74645 0.40121 0.0
C2081 C 0.28072 0.75598 0.40089 0.0
C2082 C 0.2572 0.7469 0.36984 0.0
C2083 C 0.25945 0.75732 0.33792 0.0
C2084 C 0.27234 0.76716 0.33787 0.0
C2085 C 0.28293 0.76627 0.36926 0.0
C2086 C 0.24371 0.73606 0.37054 0.0
C2087 C 0.27495 0.77861 0.30469 0.0
C2088 C 0.24004 0.74886 0.23903 0.0
C2089 C 0.22689 0.75799 0.24175 0.0
C2090 C 0.25077 0.74855 0.27015 0.0
C2091 C 0.24837 0.7578 0.30437 0.0
C2092 C 0.23525 0.76729 0.30683 0.0
C2093 C 0.22457 0.76716 0.27557 0.0
C2094 C 0.26451 0.73811 0.2668 0.0
C2095 C 0.23247 0.7775 0.34255 0.0
H2096 H 0.26624 0.73841 0.42559 0.0
H2097 H 0.29288 0.77371 0.36932 0.0
H2098 H 0.23285 0.74265 0.36985 0.0
H2099 H 0.24389 0.72866 0.34355 0.0
H2100 H 0.24369 0.72859 0.39745 0.0
H2101 H 0.2853 0.78575 0.3098 0.0
H2102 H 0.27625 0.77252 0.27579 0.0
H2103 H 0.26487 0.78629 0.30189 0.0
H2104 H 0.24171 0.74166 0.21297 0.0
H2105 H 0.21442 0.77428 0.27742 0.0
H2106 H 0.26447 0.72973 0.29176 0.0
H2107 H 0.27522 0.74489 0.26931 0.0
H2108 H 0.26471 0.7317 0.23811 0.0
H2109 H 0.23122 0.77041 0.36987 0.0
H2110 H 0.22202 0.78464 0.33906 0.0
H2111 H 0.24243 0.7852 0.34725 0.0
C2112 C 0.49529 0.99358 0.4773 0.0
C2113 C 0.50675 0.98235 0.47497 0.0
C2114 C 0.49517 0.00435 0.50837 0.0
C2115 C 0.50673 0.00377 0.53795 0.0
C2116 C 0.51854 0.99272 0.53527 0.0
C2117 C 0.51844 0.98216 0.5037 0.0
C2118 C 0.48242 0.01603 0.51023 0.0
C2119 C 0.53105 0.99178 0.56635 0.0
C2120 C 0.51268 0.03821 0.60543 0.0
C2121 C 0.50446 0.03381 0.63952 0.0
C2122 C 0.51348 0.02858 0.57195 0.0
C2123 C 0.50598 0.01419 0.57288 0.0
C2124 C 0.4977 0.00968 0.60729 0.0
C2125 C 0.49701 0.01958 0.64018 0.0
C2126 C 0.52228 0.03379 0.53557 0.0
C2127 C 0.48966 0.99435 0.60946 0.0
H2128 H 0.48611 0.99367 0.45549 0.0
H2129 H 0.52747 0.97367 0.50167 0.0
H2130 H 0.47526 0.01391 0.53705 0.0
H2131 H 0.48723 0.02777 0.51308 0.0
H2132 H 0.47495 0.01564 0.48339 0.0
H2133 H 0.53976 0.98294 0.55896 0.0
H2134 H 0.53686 0.00304 0.56936 0.0
H2135 H 0.52599 0.98897 0.59587 0.0
H2136 H 0.51833 0.04929 0.60479 0.0
H2137 H 0.49082 0.01608 0.66675 0.0
H2138 H 0.51458 0.03413 0.50922 0.0
H2139 H 0.53155 0.0255 0.52873 0.0
H2140 H 0.52744 0.04534 0.53966 0.0
H2141 H 0.48108 0.99344 0.58513 0.0
H2142 H 0.48376 0.99258 0.6385 0.0
H2143 H 0.49806 0.98494 0.60511 0.0
C2144 C 0.9948 0.00771 0.97406 0.0
C2145 C 0.999 0.02295 0.98204 0.0
C2146 C 0.99423 0.99675 0.00467 0.0
C2147 C 0.99771 0.00119 0.04429 0.0
C2148 C 0.00163 0.0166 0.05274 0.0
C2149 C 0.00235 0.02727 0.02147 0.0
C2150 C 0.99011 0.98037 0.99456 0.0
C2151 C 0.00529 0.02178 0.09475 0.0
C2152 C 0.9846 0.9761 0.13033 0.0
C2153 C 0.99822 0.96855 0.14047 0.0
C2154 C 0.98421 0.98669 0.09879 0.0
C2155 C 0.99774 0.98964 0.07679 0.0
C2156 C 0.01144 0.9818 0.08642 0.0
C2157 C 0.01153 0.97139 0.11829 0.0
C2158 C 0.96944 0.99496 0.08958 0.0
C2159 C 0.02604 0.98452 0.06329 0.0
H2160 H 0.9919 0.00433 0.94383 0.0
H2161 H 0.00582 0.03895 0.02787 0.0
H2162 H 0.99969 0.97264 0.00283 0.0
H2163 H 0.97996 0.97671 0.01207 0.0
H2164 H 0.98758 0.97882 0.96228 0.0
H2165 H 0.00735 0.03434 0.09658 0.0
H2166 H 0.99573 0.01879 0.11515 0.0
H2167 H 0.01563 0.01573 0.10574 0.0
H2168 H 0.97434 0.974 0.14772 0.0
H2169 H 0.02202 0.9654 0.12584 0.0
H2170 H 0.9662 0.99314 0.05788 0.0
H2171 H 0.97101 0.00749 0.09387 0.0
H2172 H 0.95984 0.99106 0.10886 0.0
H2173 H 0.0241 0.98231 0.03104 0.0
H2174 H 0.03558 0.97711 0.07376 0.0
H2175 H 0.02959 0.99669 0.06628 0.0
C2176 C 0.00687 0.46573 0.59546 0.0
C2177 C 0.99769 0.46626 0.62977 0.0
C2178 C 0.00685 0.47787 0.56777 0.0
C2179 C 0.99767 0.49099 0.57501 0.0
C2180 C 0.98849 0.49162 0.60986 0.0
C2181 C 0.98852 0.4792 0.63661 0.0
C2182 C 0.01657 0.47662 0.53061 0.0
C2183 C 0.97875 0.50549 0.6191 0.0
C2184 C 0.00804 0.52796 0.52042 0.0
C2185 C 0.99721 0.52822 0.4894 0.0
C2186 C 0.0082 0.51604 0.54879 0.0
C2187 C 0.99744 0.50393 0.5458 0.0
C2188 C 0.98641 0.50417 0.51484 0.0
C2189 C 0.98632 0.51636 0.48739 0.0
C2190 C 0.01999 0.51633 0.58176 0.0
C2191 C 0.97479 0.49145 0.51039 0.0
H2192 H 0.01394 0.45572 0.59007 0.0
H2193 H 0.9816 0.47976 0.66346 0.0
H2194 H 0.00923 0.47757 0.50366 0.0
H2195 H 0.02492 0.4862 0.52953 0.0
H2196 H 0.02295 0.4656 0.5292 0.0
H2197 H 0.97254 0.50433 0.64791 0.0
H2198 H 0.98604 0.51591 0.62042 0.0
H2199 H 0.97025 0.5073 0.59494 0.0
H2200 H 0.01664 0.5369 0.52211 0.0
H2201 H 0.97766 0.51656 0.46422 0.0
H2202 H 0.02762 0.5062 0.57919 0.0
H2203 H 0.01426 0.51564 0.6113 0.0
H2204 H 0.02715 0.52687 0.58096 0.0
H2205 H 0.98073 0.48028 0.50696 0.0
H2206 H 0.96715 0.49319 0.48422 0.0
H2207 H 0.96762 0.49068 0.53767 0.0
C2208 C 0.77361 0.76321 0.88303 0.0
C2209 C 0.78166 0.74959 0.89088 0.0
C2210 C 0.76172 0.76363 0.85471 0.0
C2211 C 0.75773 0.7501 0.83368 0.0
C2212 C 0.76595 0.73638 0.84102 0.0
C2213 C 0.77779 0.73629 0.86945 0.0
C2214 C 0.75327 0.7785 0.84775 0.0
C2215 C 0.76212 0.72173 0.81909 0.0
C2216 C 0.7179 0.74682 0.7878 0.0
C2217 C 0.72084 0.74991 0.74738 0.0
C2218 C 0.72976 0.74693 0.81624 0.0
C2219 C 0.74495 0.75028 0.80404 0.0
C2220 C 0.74795 0.75361 0.7634 0.0
C2221 C 0.73589 0.75339 0.73563 0.0
C2222 C 0.72609 0.74328 0.85928 0.0
C2223 C 0.76393 0.75734 0.74917 0.0
H2224 H 0.77632 0.77348 0.89983 0.0
H2225 H 0.78405 0.72576 0.87494 0.0
H2226 H 0.75383 0.78169 0.8157 0.0
H2227 H 0.741 0.77704 0.85547 0.0
H2228 H 0.75801 0.78809 0.86577 0.0
H2229 H 0.76966 0.71205 0.82802 0.0
H2230 H 0.75006 0.71846 0.82504 0.0
H2231 H 0.76324 0.72351 0.7864 0.0
H2232 H 0.70635 0.74399 0.79709 0.0
H2233 H 0.73824 0.75608 0.70461 0.0
H2234 H 0.72978 0.75288 0.87883 0.0
H2235 H 0.7325 0.73293 0.86882 0.0
H2236 H 0.71367 0.74122 0.86409 0.0
H2237 H 0.76843 0.76743 0.76561 0.0
H2238 H 0.76433 0.75983 0.71663 0.0
H2239 H 0.7717 0.74757 0.75553 0.0
C2240 C 0.49372 0.52794 0.11204 0.0
C2241 C 0.50296 0.52698 0.14625 0.0
C2242 C 0.49339 0.51598 0.0838 0.0
C2243 C 0.50248 0.50271 0.08997 0.0
C2244 C 0.51207 0.50183 0.12396 0.0
C2245 C 0.51226 0.51398 0.15147 0.0
C2246 C 0.48311 0.5174 0.04774 0.0
C2247 C 0.52197 0.48794 0.13164 0.0
C2248 C 0.49088 0.4652 0.03997 0.0
C2249 C 0.50122 0.46441 0.00798 0.0
C2250 C 0.49112 0.47762 0.06677 0.0
C2251 C 0.50186 0.48963 0.06123 0.0
C2252 C 0.51226 0.48893 0.02885 0.0
C2253 C 0.51185 0.47632 0.00274 0.0
C2254 C 0.47995 0.47785 0.10119 0.0
C2255 C 0.52379 0.50155 0.02166 0.0
H2256 H 0.48641 0.53786 0.10786 0.0
H2257 H 0.5197 0.51326 0.17733 0.0
H2258 H 0.48986 0.51582 0.01996 0.0
H2259 H 0.47429 0.50825 0.0484 0.0
H2260 H 0.47726 0.52871 0.04638 0.0
H2261 H 0.52889 0.48909 0.15934 0.0
H2262 H 0.51469 0.47755 0.13429 0.0
H2263 H 0.52985 0.48605 0.10611 0.0
H2264 H 0.48269 0.456 0.04428 0.0
H2265 H 0.51969 0.47593 0.97763 0.0
H2266 H 0.47285 0.48839 0.09987 0.0
H2267 H 0.48628 0.4781 0.12992 0.0
H2268 H 0.47223 0.46771 0.10113 0.0
H2269 H 0.51781 0.51269 0.01794 0.0
H2270 H 0.53092 0.49941 0.99474 0.0
H2271 H 0.53147 0.50268 0.04791 0.0
C2272 C 0.78324 0.2522 0.28509 0.0
C2273 C 0.77963 0.24955 0.24483 0.0
C2274 C 0.77184 0.25182 0.31479 0.0
C2275 C 0.75648 0.24858 0.30404 0.0
C2276 C 0.75281 0.24574 0.2635 0.0
C2277 C 0.7644 0.2463 0.23445 0.0
C2278 C 0.77621 0.255 0.35763 0.0
C2279 C 0.73662 0.24209 0.2508 0.0
C2280 C 0.72916 0.23405 0.38432 0.0
C2281 C 0.72079 0.24732 0.39365 0.0
C2282 C 0.74078 0.23429 0.35528 0.0
C2283 C 0.74421 0.24816 0.33513 0.0
C2284 C 0.73579 0.2616 0.34434 0.0
C2285 C 0.72416 0.261 0.37336 0.0
C2286 C 0.74937 0.21968 0.34608 0.0
C2287 C 0.73914 0.27664 0.32371 0.0
H2288 H 0.79496 0.25484 0.29329 0.0
H2289 H 0.76155 0.244 0.2035 0.0
H2290 H 0.76973 0.26505 0.36892 0.0
H2291 H 0.77312 0.24506 0.3767 0.0
H2292 H 0.78865 0.25732 0.3611 0.0
H2293 H 0.73568 0.24004 0.21813 0.0
H2294 H 0.73247 0.23174 0.26678 0.0
H2295 H 0.7289 0.2517 0.25896 0.0
H2296 H 0.72652 0.22339 0.39954 0.0
H2297 H 0.7179 0.27136 0.38077 0.0
H2298 H 0.76179 0.22135 0.35162 0.0
H2299 H 0.74802 0.21672 0.31403 0.0
H2300 H 0.74533 0.20985 0.36438 0.0
H2301 H 0.75124 0.27995 0.32883 0.0
H2302 H 0.73163 0.28606 0.33444 0.0
H2303 H 0.73756 0.27537 0.29099 0.0
C2304 C 0.27814 0.26089 0.36573 0.0
C2305 C 0.28165 0.24725 0.38603 0.0
C2306 C 0.26642 0.26139 0.33694 0.0
C2307 C 0.25797 0.24793 0.32816 0.0
C2308 C 0.26158 0.23407 0.34815 0.0
C2309 C 0.27336 0.2339 0.37675 0.0
C2310 C 0.26294 0.27639 0.31627 0.0
C2311 C 0.25293 0.21944 0.33951 0.0
C2312 C 0.21848 0.25226 0.28093 0.0
C2313 C 0.22162 0.24951 0.24045 0.0
C2314 C 0.23017 0.25172 0.30982 0.0
C2315 C 0.24538 0.24832 0.29799 0.0
C2316 C 0.24858 0.24535 0.25727 0.0
C2317 C 0.23669 0.24595 0.22907 0.0
C2318 C 0.22628 0.25495 0.35295 0.0
C2319 C 0.26461 0.24159 0.24341 0.0
H2320 H 0.28431 0.27131 0.37305 0.0
H2321 H 0.27612 0.22325 0.39187 0.0
H2322 H 0.26402 0.275 0.28344 0.0
H2323 H 0.25095 0.27985 0.3225 0.0
H2324 H 0.27069 0.28578 0.32603 0.0
H2325 H 0.2572 0.20961 0.35744 0.0
H2326 H 0.24058 0.22108 0.34603 0.0
H2327 H 0.25392 0.21651 0.30736 0.0
H2328 H 0.20691 0.25513 0.28995 0.0
H2329 H 0.23918 0.24352 0.19798 0.0
H2330 H 0.23283 0.26507 0.3636 0.0
H2331 H 0.22966 0.24507 0.37189 0.0
H2332 H 0.21388 0.2572 0.35738 0.0
H2333 H 0.27246 0.25118 0.25087 0.0
H2334 H 0.26518 0.23948 0.21071 0.0
H2335 H 0.26888 0.23126 0.2592 0.0
C2336 C 0.28402 0.74122 0.78459 0.0
C2337 C 0.28208 0.74942 0.74886 0.0
C2338 C 0.2724 0.74079 0.81367 0.0
C2339 C 0.25845 0.74867 0.80683 0.0
C2340 C 0.25636 0.75681 0.77064 0.0
C2341 C 0.26818 0.7571 0.74217 0.0
C2342 C 0.27512 0.73205 0.85196 0.0
C2343 C 0.24164 0.76529 0.76203 0.0
C2344 C 0.22334 0.73748 0.86802 0.0
C2345 C 0.22316 0.74891 0.89759 0.0
C2346 C 0.23471 0.73727 0.83824 0.0
C2347 C 0.2462 0.74876 0.83797 0.0
C2348 C 0.24599 0.7604 0.86745 0.0
C2349 C 0.23448 0.76035 0.89677 0.0
C2350 C 0.23453 0.72468 0.80729 0.0
C2351 C 0.25796 0.77291 0.86814 0.0
H2352 H 0.29475 0.73536 0.79014 0.0
H2353 H 0.26646 0.76323 0.71435 0.0
H2354 H 0.27452 0.74001 0.87779 0.0
H2355 H 0.26603 0.7233 0.8562 0.0
H2356 H 0.28643 0.72622 0.85232 0.0
H2357 H 0.2417 0.77083 0.73213 0.0
H2358 H 0.2318 0.75726 0.76359 0.0
H2359 H 0.23975 0.77427 0.78501 0.0
H2360 H 0.21476 0.72851 0.86862 0.0
H2361 H 0.2343 0.76938 0.91903 0.0
H2362 H 0.24528 0.71794 0.80907 0.0
H2363 H 0.23397 0.72972 0.77688 0.0
H2364 H 0.22468 0.71675 0.81119 0.0
H2365 H 0.26953 0.76777 0.871 0.0
H2366 H 0.25622 0.7811 0.89315 0.0
H2367 H 0.25772 0.77939 0.83961 0.0
C2368 C 0.49 0.9775 0.1392 0.0
C2369 C 0.49855 0.9642 0.13146 0.0
C2370 C 0.49004 0.98991 0.11245 0.0
C2371 C 0.49867 0.98894 0.07674 0.0
C2372 C 0.50723 0.97548 0.06857 0.0
C2373 C 0.50719 0.96332 0.09623 0.0
C2374 C 0.48097 0.00413 0.12263 0.0
C2375 C 0.51637 0.97389 0.03052 0.0
C2376 C 0.48709 0.01503 0.99081 0.0
C2377 C 0.49837 0.02652 0.99227 0.0
C2378 C 0.48714 0.0027 0.01783 0.0
C2379 C 0.49857 0.00194 0.04773 0.0
C2380 C 0.50979 0.01365 0.05007 0.0
C2381 C 0.50962 0.02572 0.02219 0.0
C2382 C 0.47502 0.99043 0.01416 0.0
C2383 C 0.52204 0.01336 0.08189 0.0
H2384 H 0.48353 0.97834 0.16677 0.0
H2385 H 0.51379 0.95305 0.09017 0.0
H2386 H 0.48867 0.01425 0.12351 0.0
H2387 H 0.47227 0.00634 0.09919 0.0
H2388 H 0.47505 0.00315 0.15191 0.0
H2389 H 0.52228 0.96263 0.02843 0.0
H2390 H 0.50872 0.97519 0.00428 0.0
H2391 H 0.52508 0.98313 0.02875 0.0
H2392 H 0.47814 0.01564 0.96846 0.0
H2393 H 0.51851 0.03438 0.02339 0.0
H2394 H 0.46816 0.98986 0.04202 0.0
H2395 H 0.4805 0.97905 0.01008 0.0
H2396 H 0.46714 0.99251 0.98867 0.0
H2397 H 0.51669 0.01288 0.11194 0.0
H2398 H 0.52964 0.02357 0.08047 0.0
H2399 H 0.52916 0.0029 0.07856 0.0
C2400 C 0.01213 0.02036 0.63655 0.0
C2401 C 0.00185 0.03259 0.63181 0.0
C2402 C 0.01232 0.00802 0.60954 0.0
C2403 C 0.00218 0.00803 0.57652 0.0
C2404 C 0.9919 0.02046 0.57131 0.0
C2405 C 0.99174 0.03251 0.59927 0.0
C2406 C 0.02325 0.99488 0.61664 0.0
C2407 C 0.98112 0.02107 0.53607 0.0
C2408 C 0.01277 0.98347 0.48669 0.0
C2409 C 0.00272 0.97093 0.49041 0.0
C2410 C 0.01261 0.99563 0.51421 0.0
C2411 C 0.00247 0.99514 0.54714 0.0
C2412 C 0.99261 0.98235 0.5519 0.0
C2413 C 0.99274 0.97051 0.52332 0.0
C2414 C 0.0232 0.00911 0.50776 0.0
C2415 C 0.98183 0.98125 0.58703 0.0
H2416 H 0.01979 0.02028 0.66204 0.0
H2417 H 0.98381 0.04197 0.5955 0.0
H2418 H 0.01677 0.98397 0.61926 0.0
H2419 H 0.03113 0.99366 0.59086 0.0
H2420 H 0.03018 0.99648 0.64416 0.0
H2421 H 0.97403 0.03164 0.53595 0.0
H2422 H 0.98775 0.02057 0.50781 0.0
H2423 H 0.9734 0.01097 0.53648 0.0
H2424 H 0.02084 0.98383 0.46213 0.0
H2425 H 0.98478 0.96105 0.52645 0.0
H2426 H 0.03108 0.01032 0.53355 0.0
H2427 H 0.01644 0.01987 0.50579 0.0
H2428 H 0.03014 0.00793 0.48012 0.0
H2429 H 0.98832 0.98235 0.6154 0.0
H2430 H 0.97543 0.97023 0.58749 0.0
H2431 H 0.97347 0.99081 0.58604 0.0
loop_
_geom_bond_atom_site_label_1
_geom_bond_atom_site_label_2
_geom_bond_distance
_geom_bond_site_symmetry_2
_ccdc_geom_bond_type
Li0 N17 1.990 . S
Li0 O60 1.919 1_655 S
Li0 O61 1.994 . S
Li0 O62 1.961 . S
Li1 N25 1.990 . S
Li1 O60 2.005 . S
Li1 O61 1.931 1_455 S
Li1 O63 1.961 . S
Li2 N47 1.993 . S
Li2 O60 1.958 1_655 S
Li2 O62 1.986 . S
Li2 O63 1.939 1_655 S
Li3 N53 1.994 . S
Li3 O61 1.958 1_455 S
Li3 O62 1.926 1_455 S
Li3 O63 1.998 . S
C4 C6 1.348 . S
C4 C7 1.356 1_455 S
C4 O60 1.324 . S
N5 C8 1.314 1_655 S
N5 C9 1.279 . S
C6 C4 1.348 . S
C6 C8 1.353 . S
C6 H64 0.929 . S
C7 C4 1.356 1_655 S
C7 C9 1.358 . S
C7 H65 0.930 . S
C8 N5 1.314 1_455 S
C8 C6 1.353 . S
C8 H66 0.930 . S
C9 N5 1.279 . S
C9 C7 1.358 . S
C9 H67 0.930 . S
C10 C13 1.348 1_455 S
C10 C14 1.356 . S
C10 O61 1.324 1_455 S
C11 N12 1.279 . S
C11 C14 1.358 . S
C11 H68 0.930 . S
N12 C11 1.279 . S
N12 C15 1.314 1_455 S
C13 C10 1.348 1_655 S
C13 C15 1.353 . S
C13 H69 0.929 . S
C14 C10 1.356 . S
C14 C11 1.358 . S
C14 H70 0.930 . S
C15 N12 1.314 1_655 S
C15 C13 1.353 . S
C15 H71 0.930 . S
C16 N17 1.314 . S
C16 C21 1.353 . S
C16 H22 0.930 . S
N17 Li0 1.990 . S
N17 C16 1.314 . S
N17 C19 1.279 . S
C18 C19 1.358 . S
C18 C20 1.356 . S
C18 H72 0.930 . S
C19 N17 1.279 . S
C19 C18 1.358 . S
C19 H23 0.930 . S
C20 C18 1.356 . S
C20 C21 1.348 . S
C21 C16 1.353 . S
C21 C20 1.348 . S
C21 H73 0.929 . S
H22 C16 0.930 . S
H23 C19 0.930 . S
C24 N25 1.314 . S
C24 C26 1.353 . S
C24 H30 0.930 . S
N25 Li1 1.990 . S
N25 C24 1.314 . S
N25 C28 1.279 . S
C26 C24 1.353 . S
C26 C29 1.348 . S
C26 H74 0.929 . S
C27 C28 1.358 . S
C27 C29 1.356 . S
C27 H75 0.930 . S
C28 N25 1.279 . S
C28 C27 1.358 . S
C28 H31 0.930 . S
C29 C26 1.348 . S
C29 C27 1.356 . S
H30 C24 0.930 . S
H31 C28 0.930 . S
C32 C34 1.348 . S
C32 C35 1.356 . S
C32 O62 1.325 . S
N33 C36 1.314 . S
N33 C37 1.279 . S
C34 C32 1.348 . S
C34 C36 1.353 . S
C34 H76 0.929 . S
C35 C32 1.356 . S
C35 C37 1.358 . S
C35 H77 0.930 . S
C36 N33 1.314 . S
C36 C34 1.353 . S
C36 H78 0.930 . S
C37 N33 1.279 . S
C37 C35 1.358 . S
C37 H79 0.930 . S
C38 C39 1.348 . S
C38 C40 1.356 . S
C38 O63 1.325 . S
C39 C38 1.348 . S
C39 C41 1.353 . S
C39 H80 0.929 . S
C40 C38 1.356 . S
C40 C42 1.358 . S
C40 H81 0.930 . S
C41 C39 1.353 . S
C41 N43 1.314 . S
C41 H82 0.930 . S
C42 C40 1.358 . S
C42 N43 1.279 . S
C42 H83 0.930 . S
N43 C41 1.314 . S
N43 C42 1.279 . S
C44 C46 1.353 . S
C44 N47 1.314 1_455 S
C44 H50 0.930 . S
C45 N47 1.279 . S
C45 C48 1.358 . S
C45 H51 0.930 . S
C46 C44 1.353 . S
C46 C49 1.348 . S
C46 H84 0.929 . S
N47 Li2 1.993 . S
N47 C44 1.314 1_655 S
N47 C45 1.279 . S
C48 C45 1.358 . S
C48 C49 1.356 1_655 S
C48 H85 0.930 . S
C49 C46 1.348 . S
C49 C48 1.356 1_455 S
H50 C44 0.930 . S
H51 C45 0.930 . S
C52 N53 1.314 1_655 S
C52 C54 1.353 . S
C52 H58 0.930 . S
N53 Li3 1.994 . S
N53 C52 1.314 1_455 S
N53 C56 1.279 . S
C54 C52 1.353 . S
C54 C57 1.348 1_655 S
C54 H86 0.929 . S
C55 C56 1.358 . S
C55 C57 1.356 . S
C55 H87 0.930 . S
C56 N53 1.279 . S
C56 C55 1.358 . S
C56 H59 0.930 . S
C57 C54 1.348 1_455 S
C57 C55 1.356 . S
H58 C52 0.930 . S
H59 C56 0.930 . S
O60 Li0 1.919 1_455 S
O60 Li1 2.005 . S
O60 Li2 1.958 1_455 S
O60 C4 1.324 . S
O61 Li0 1.994 . S
O61 Li1 1.931 1_655 S
O61 Li3 1.958 1_655 S
O61 C10 1.324 1_655 S
O62 Li0 1.961 . S
O62 Li2 1.986 . S
O62 Li3 1.926 1_655 S
O62 C32 1.325 . S
O63 Li1 1.961 . S
O63 Li2 1.939 1_455 S
O63 Li3 1.998 . S
O63 C38 1.325 . S
H64 C6 0.929 . S
H65 C7 0.930 . S
H66 C8 0.930 . S
H67 C9 0.930 . S
H68 C11 0.930 . S
H69 C13 0.929 . S
H70 C14 0.930 . S
H71 C15 0.930 . S
H72 C18 0.930 . S
H73 C21 0.929 . S
H74 C26 0.929 . S
H75 C27 0.930 . S
H76 C34 0.929 . S
H77 C35 0.930 . S
H78 C36 0.930 . S
H79 C37 0.930 . S
H80 C39 0.929 . S
H81 C40 0.930 . S
H82 C41 0.930 . S
H83 C42 0.930 . S
H84 C46 0.929 . S
H85 C48 0.930 . S
H86 C54 0.929 . S
H87 C55 0.930 . S
Li88 N105 1.990 . S
Li88 O148 1.956 . S
Li88 O149 1.970 . S
Li88 O150 1.961 . S
Li89 N113 1.990 . S
Li89 O148 1.970 . S
Li89 O149 1.956 . S
Li89 O151 1.961 . S
Li90 N135 1.990 . S
Li90 O148 1.961 . S
Li90 O150 1.956 . S
Li90 O151 1.970 . S
Li91 N141 1.990 . S
Li91 O149 1.961 . S
Li91 O150 1.970 . S
Li91 O151 1.956 . S
C92 C94 1.348 . S
C92 C95 1.356 . S
C92 O148 1.325 . S
N93 C96 1.314 . S
N93 C97 1.279 . S
C94 C92 1.348 . S
C94 C96 1.353 . S
C94 H152 0.929 . S
C95 C92 1.356 . S
C95 C97 1.358 . S
C95 H153 0.930 . S
C96 N93 1.314 . S
C96 C94 1.353 . S
C96 H154 0.930 . S
C97 N93 1.279 . S
C97 C95 1.358 . S
C97 H155 0.930 . S
C98 C101 1.348 . S
C98 C102 1.356 . S
C98 O149 1.325 . S
C99 N100 1.279 . S
C99 C102 1.358 . S
C99 H156 0.930 . S
N100 C99 1.279 . S
N100 C103 1.314 . S
C101 C98 1.348 . S
C101 C103 1.353 . S
C101 H157 0.929 . S
C102 C98 1.356 . S
C102 C99 1.358 . S
C102 H158 0.930 . S
C103 N100 1.314 . S
C103 C101 1.353 . S
C103 H159 0.930 . S
C104 N105 1.314 . S
C104 C109 1.353 . S
C104 H110 0.930 . S
N105 Li88 1.990 . S
N105 C104 1.314 . S
N105 C107 1.279 . S
C106 C107 1.358 . S
C106 C108 1.356 . S
C106 H160 0.930 . S
C107 N105 1.279 . S
C107 C106 1.358 . S
C107 H111 0.930 . S
C108 C106 1.356 . S
C108 C109 1.348 . S
C109 C104 1.353 . S
C109 C108 1.348 . S
C109 H161 0.929 . S
H110 C104 0.930 . S
H111 C107 0.930 . S
C112 N113 1.314 . S
C112 C114 1.353 . S
C112 H118 0.930 . S
N113 Li89 1.990 . S
N113 C112 1.314 . S
N113 C116 1.279 . S
C114 C112 1.353 . S
C114 C117 1.348 . S
C114 H162 0.929 . S
C115 C116 1.358 . S
C115 C117 1.356 . S
C115 H163 0.930 . S
C116 N113 1.279 . S
C116 C115 1.358 . S
C116 H119 0.930 . S
C117 C114 1.348 . S
C117 C115 1.356 . S
H118 C112 0.930 . S
H119 C116 0.930 . S
C120 C122 1.348 . S
C120 C123 1.356 . S
C120 O150 1.325 . S
N121 C124 1.314 . S
N121 C125 1.279 . S
C122 C120 1.348 . S
C122 C124 1.353 . S
C122 H164 0.929 . S
C123 C120 1.356 . S
C123 C125 1.358 . S
C123 H165 0.930 . S
C124 N121 1.314 . S
C124 C122 1.353 . S
C124 H166 0.930 . S
C125 N121 1.279 . S
C125 C123 1.358 . S
C125 H167 0.930 . S
C126 C127 1.348 . S
C126 C128 1.356 . S
C126 O151 1.325 . S
C127 C126 1.348 . S
C127 C129 1.353 . S
C127 H168 0.929 . S
C128 C126 1.356 . S
C128 C130 1.358 . S
C128 H169 0.930 . S
C129 C127 1.353 . S
C129 N131 1.314 . S
C129 H170 0.930 . S
C130 C128 1.358 . S
C130 N131 1.279 . S
C130 H171 0.930 . S
N131 C129 1.314 . S
N131 C130 1.279 . S
C132 C134 1.353 . S
C132 N135 1.314 . S
C132 H138 0.930 . S
C133 N135 1.279 . S
C133 C136 1.358 . S
C133 H139 0.930 . S
C134 C132 1.353 . S
C134 C137 1.348 . S
C134 H172 0.929 . S
N135 Li90 1.990 . S
N135 C132 1.314 . S
N135 C133 1.279 . S
C136 C133 1.358 . S
C136 C137 1.356 . S
C136 H173 0.930 . S
C137 C134 1.348 . S
C137 C136 1.356 . S
H138 C132 0.930 . S
H139 C133 0.930 . S
C140 N141 1.314 . S
C140 C142 1.353 . S
C140 H146 0.930 . S
N141 Li91 1.990 . S
N141 C140 1.314 . S
N141 C144 1.279 . S
C142 C140 1.353 . S
C142 C145 1.348 . S
C142 H174 0.929 . S
C143 C144 1.358 . S
C143 C145 1.356 . S
C143 H175 0.930 . S
C144 N141 1.279 . S
C144 C143 1.358 . S
C144 H147 0.930 . S
C145 C142 1.348 . S
C145 C143 1.356 . S
H146 C140 0.930 . S
H147 C144 0.930 . S
O148 Li88 1.956 . S
O148 Li89 1.970 . S
O148 Li90 1.961 . S
O148 C92 1.325 . S
O149 Li88 1.970 . S
O149 Li89 1.956 . S
O149 Li91 1.961 . S
O149 C98 1.325 . S
O150 Li88 1.961 . S
O150 Li90 1.956 . S
O150 Li91 1.970 . S
O150 C120 1.325 . S
O151 Li89 1.961 . S
O151 Li90 1.970 . S
O151 Li91 1.956 . S
O151 C126 1.325 . S
H152 C94 0.929 . S
H153 C95 0.930 . S
H154 C96 0.930 . S
H155 C97 0.930 . S
H156 C99 0.930 . S
H157 C101 0.929 . S
H158 C102 0.930 . S
H159 C103 0.930 . S
H160 C106 0.930 . S
H161 C109 0.929 . S
H162 C114 0.929 . S
H163 C115 0.930 . S
H164 C122 0.929 . S
H165 C123 0.930 . S
H166 C124 0.930 . S
H167 C125 0.930 . S
H168 C127 0.929 . S
H169 C128 0.930 . S
H170 C129 0.930 . S
H171 C130 0.930 . S
H172 C134 0.929 . S
H173 C136 0.930 . S
H174 C142 0.929 . S
H175 C143 0.930 . S
Li176 N193 1.990 . S
Li176 O236 1.956 . S
Li176 O237 1.970 . S
Li176 O238 1.961 . S
Li177 N201 1.990 . S
Li177 O236 1.970 . S
Li177 O237 1.956 . S
Li177 O239 1.961 . S
Li178 N223 1.990 . S
Li178 O236 1.961 . S
Li178 O238 1.956 . S
Li178 O239 1.970 . S
Li179 N229 1.990 . S
Li179 O237 1.961 . S
Li179 O238 1.970 . S
Li179 O239 1.956 . S
C180 C182 1.348 . S
C180 C183 1.356 . S
C180 O236 1.325 . S
N181 C184 1.314 . S
N181 C185 1.279 . S
C182 C180 1.348 . S
C182 C184 1.353 . S
C182 H240 0.929 . S
C183 C180 1.356 . S
C183 C185 1.358 . S
C183 H241 0.930 . S
C184 N181 1.314 . S
C184 C182 1.353 . S
C184 H242 0.930 . S
C185 N181 1.279 . S
C185 C183 1.358 . S
C185 H243 0.930 . S
C186 C189 1.348 . S
C186 C190 1.356 . S
C186 O237 1.325 . S
C187 N188 1.279 . S
C187 C190 1.358 . S
C187 H244 0.930 . S
N188 C187 1.279 . S
N188 C191 1.314 . S
C189 C186 1.348 . S
C189 C191 1.353 . S
C189 H245 0.929 . S
C190 C186 1.356 . S
C190 C187 1.358 . S
C190 H246 0.930 . S
C191 N188 1.314 . S
C191 C189 1.353 . S
C191 H247 0.930 . S
C192 N193 1.314 . S
C192 C197 1.353 . S
C192 H198 0.930 . S
N193 Li176 1.990 . S
N193 C192 1.314 . S
N193 C195 1.279 . S
C194 C195 1.358 . S
C194 C196 1.356 . S
C194 H248 0.930 . S
C195 N193 1.279 . S
C195 C194 1.358 . S
C195 H199 0.930 . S
C196 C194 1.356 . S
C196 C197 1.348 . S
C197 C192 1.353 . S
C197 C196 1.348 . S
C197 H249 0.929 . S
H198 C192 0.930 . S
H199 C195 0.930 . S
C200 N201 1.314 . S
C200 C202 1.353 . S
C200 H206 0.930 . S
N201 Li177 1.990 . S
N201 C200 1.314 . S
N201 C204 1.279 . S
C202 C200 1.353 . S
C202 C205 1.348 . S
C202 H250 0.929 . S
C203 C204 1.358 . S
C203 C205 1.356 . S
C203 H251 0.930 . S
C204 N201 1.279 . S
C204 C203 1.358 . S
C204 H207 0.930 . S
C205 C202 1.348 . S
C205 C203 1.356 . S
H206 C200 0.930 . S
H207 C204 0.930 . S
C208 C210 1.348 . S
C208 C211 1.356 . S
C208 O238 1.325 . S
N209 C212 1.314 . S
N209 C213 1.279 . S
C210 C208 1.348 . S
C210 C212 1.353 . S
C210 H252 0.929 . S
C211 C208 1.356 . S
C211 C213 1.358 . S
C211 H253 0.930 . S
C212 N209 1.314 . S
C212 C210 1.353 . S
C212 H254 0.930 . S
C213 N209 1.279 . S
C213 C211 1.358 . S
C213 H255 0.930 . S
C214 C215 1.348 . S
C214 C216 1.356 . S
C214 O239 1.325 . S
C215 C214 1.348 . S
C215 C217 1.353 . S
C215 H256 0.929 . S
C216 C214 1.356 . S
C216 C218 1.358 . S
C216 H257 0.930 . S
C217 C215 1.353 . S
C217 N219 1.314 . S
C217 H258 0.930 . S
C218 C216 1.358 . S
C218 N219 1.279 . S
C218 H259 0.930 . S
N219 C217 1.314 . S
N219 C218 1.279 . S
C220 C222 1.353 . S
C220 N223 1.314 . S
C220 H226 0.930 . S
C221 N223 1.279 . S
C221 C224 1.358 . S
C221 H227 0.930 . S
C222 C220 1.353 . S
C222 C225 1.348 . S
C222 H260 0.929 . S
N223 Li178 1.990 . S
N223 C220 1.314 . S
N223 C221 1.279 . S
C224 C221 1.358 . S
C224 C225 1.356 . S
C224 H261 0.930 . S
C225 C222 1.348 . S
C225 C224 1.356 . S
H226 C220 0.930 . S
H227 C221 0.930 . S
C228 N229 1.314 . S
C228 C230 1.353 . S
C228 H234 0.930 . S
N229 Li179 1.990 . S
N229 C228 1.314 . S
N229 C232 1.279 . S
C230 C228 1.353 . S
C230 C233 1.348 . S
C230 H262 0.929 . S
C231 C232 1.358 . S
C231 C233 1.356 . S
C231 H263 0.930 . S
C232 N229 1.279 . S
C232 C231 1.358 . S
C232 H235 0.930 . S
C233 C230 1.348 . S
C233 C231 1.356 . S
H234 C228 0.930 . S
H235 C232 0.930 . S
O236 Li176 1.956 . S
O236 Li177 1.970 . S
O236 Li178 1.961 . S
O236 C180 1.325 . S
O237 Li176 1.970 . S
O237 Li177 1.956 . S
O237 Li179 1.961 . S
O237 C186 1.325 . S
O238 Li176 1.961 . S
O238 Li178 1.956 . S
O238 Li179 1.970 . S
O238 C208 1.325 . S
O239 Li177 1.961 . S
O239 Li178 1.970 . S
O239 Li179 1.956 . S
O239 C214 1.325 . S
H240 C182 0.929 . S
H241 C183 0.930 . S
H242 C184 0.930 . S
H243 C185 0.930 . S
H244 C187 0.930 . S
H245 C189 0.929 . S
H246 C190 0.930 . S
H247 C191 0.930 . S
H248 C194 0.930 . S
H249 C197 0.929 . S
H250 C202 0.929 . S
H251 C203 0.930 . S
H252 C210 0.929 . S
H253 C211 0.930 . S
H254 C212 0.930 . S
H255 C213 0.930 . S
H256 C215 0.929 . S
H257 C216 0.930 . S
H258 C217 0.930 . S
H259 C218 0.930 . S
H260 C222 0.929 . S
H261 C224 0.930 . S
H262 C230 0.929 . S
H263 C231 0.930 . S
Li264 N281 1.990 . S
Li264 O324 1.956 . S
Li264 O325 1.970 . S
Li264 O326 1.961 . S
Li265 N289 1.990 . S
Li265 O324 1.970 . S
Li265 O325 1.956 . S
Li265 O327 1.961 1_554 S
Li266 N311 1.990 . S
Li266 O324 1.961 . S
Li266 O326 1.956 . S
Li266 O327 1.970 1_554 S
Li267 N317 1.990 . S
Li267 O325 1.961 1_556 S
Li267 O326 1.970 1_556 S
Li267 O327 1.956 . S
C268 C270 1.348 . S
C268 C271 1.356 . S
C268 O324 1.325 . S
N269 C272 1.314 . S
N269 C273 1.279 . S
C270 C268 1.348 . S
C270 C272 1.353 . S
C270 H328 0.929 . S
C271 C268 1.356 . S
C271 C273 1.358 . S
C271 H329 0.930 . S
C272 N269 1.314 . S
C272 C270 1.353 . S
C272 H330 0.930 . S
C273 N269 1.279 . S
C273 C271 1.358 . S
C273 H331 0.930 . S
C274 C277 1.348 . S
C274 C278 1.356 1_554 S
C274 O325 1.325 . S
C275 N276 1.279 . S
C275 C278 1.358 1_554 S
C275 H332 0.930 1_554 S
N276 C275 1.279 . S
N276 C279 1.314 . S
C277 C274 1.348 . S
C277 C279 1.353 . S
C277 H333 0.929 . S
C278 C274 1.356 1_556 S
C278 C275 1.358 1_556 S
C278 H334 0.930 . S
C279 N276 1.314 . S
C279 C277 1.353 . S
C279 H335 0.930 . S
C280 N281 1.314 . S
C280 C285 1.353 . S
C280 H286 0.930 . S
N281 Li264 1.990 . S
N281 C280 1.314 . S
N281 C283 1.279 . S
C282 C283 1.358 . S
C282 C284 1.356 . S
C282 H336 0.930 . S
C283 N281 1.279 . S
C283 C282 1.358 . S
C283 H287 0.930 . S
C284 C282 1.356 . S
C284 C285 1.348 . S
C285 C280 1.353 . S
C285 C284 1.348 . S
C285 H337 0.929 . S
H286 C280 0.930 . S
H287 C283 0.930 . S
C288 N289 1.314 1_556 S
C288 C290 1.353 . S
C288 H294 0.930 . S
N289 Li265 1.990 . S
N289 C288 1.314 1_554 S
N289 C292 1.279 . S
C290 C288 1.353 . S
C290 C293 1.348 1_556 S
C290 H338 0.929 . S
C291 C292 1.358 . S
C291 C293 1.356 . S
C291 H339 0.930 . S
C292 N289 1.279 . S
C292 C291 1.358 . S
C292 H295 0.930 . S
C293 C290 1.348 1_554 S
C293 C291 1.356 . S
H294 C288 0.930 . S
H295 C292 0.930 . S
C296 C298 1.358 . S
C296 C299 1.356 . S
C296 O326 1.325 . S
N297 C300 1.314 . S
N297 C301 1.279 . S
C298 C296 1.358 . S
C298 C300 1.355 . S
C298 H340 0.917 1_554 S
C299 C296 1.356 . S
C299 C301 1.358 . S
C299 H341 0.930 . S
C300 N297 1.314 . S
C300 C298 1.355 . S
C300 H342 0.930 1_554 S
C301 N297 1.279 . S
C301 C299 1.358 . S
C301 H343 0.930 . S
C302 C303 1.348 . S
C302 C304 1.356 . S
C302 O327 1.325 . S
C303 C302 1.348 . S
C303 C305 1.353 . S
C303 H344 0.929 . S
C304 C302 1.356 . S
C304 C306 1.358 . S
C304 H345 0.930 . S
C305 C303 1.353 . S
C305 N307 1.314 . S
C305 H346 0.930 . S
C306 C304 1.358 . S
C306 N307 1.279 . S
C306 H347 0.930 . S
N307 C305 1.314 . S
N307 C306 1.279 . S
C308 C310 1.353 . S
C308 N311 1.314 . S
C308 H314 0.930 . S
C309 N311 1.279 . S
C309 C312 1.358 . S
C309 H315 0.930 . S
C310 C308 1.353 . S
C310 C313 1.348 . S
C310 H348 0.929 . S
N311 Li266 1.990 . S
N311 C308 1.314 . S
N311 C309 1.279 . S
C312 C309 1.358 . S
C312 C313 1.356 . S
C312 H349 0.930 1_554 S
C313 C310 1.348 . S
C313 C312 1.356 . S
H314 C308 0.930 . S
H315 C309 0.930 . S
C316 N317 1.314 . S
C316 C318 1.353 . S
C316 H322 0.930 . S
N317 Li267 1.990 . S
N317 C316 1.314 . S
N317 C320 1.279 . S
C318 C316 1.353 . S
C318 C321 1.348 . S
C318 H350 0.929 . S
C319 C320 1.358 . S
C319 C321 1.356 . S
C319 H351 0.930 . S
C320 N317 1.279 . S
C320 C319 1.358 . S
C320 H323 0.930 . S
C321 C318 1.348 . S
C321 C319 1.356 . S
H322 C316 0.930 . S
H323 C320 0.930 . S
O324 Li264 1.956 . S
O324 Li265 1.970 . S
O324 Li266 1.961 . S
O324 C268 1.325 . S
O325 Li264 1.970 . S
O325 Li265 1.956 . S
O325 Li267 1.961 1_554 S
O325 C274 1.325 . S
O326 Li264 1.961 . S
O326 Li266 1.956 . S
O326 Li267 1.970 1_554 S
O326 C296 1.325 . S
O327 Li265 1.961 1_556 S
O327 Li266 1.970 1_556 S
O327 Li267 1.956 . S
O327 C302 1.325 . S
H328 C270 0.929 . S
H329 C271 0.930 . S
H330 C272 0.930 . S
H331 C273 0.930 . S
H332 C275 0.930 1_556 S
H333 C277 0.929 . S
H334 C278 0.930 . S
H335 C279 0.930 . S
H336 C282 0.930 . S
H337 C285 0.929 . S
H338 C290 0.929 . S
H339 C291 0.930 . S
H340 C298 0.917 1_556 S
H341 C299 0.930 . S
H342 C300 0.930 1_556 S
H343 C301 0.930 . S
H344 C303 0.929 . S
H345 C304 0.930 . S
H346 C305 0.930 . S
H347 C306 0.930 . S
H348 C310 0.929 . S
H349 C312 0.930 1_556 S
H350 C318 0.929 . S
H351 C319 0.930 . S
Li352 N369 1.994 . S
Li352 O412 1.998 . S
Li352 O413 1.926 1_455 S
Li352 O414 1.958 1_455 S
Li353 N377 1.993 . S
Li353 O412 1.939 1_655 S
Li353 O413 1.986 . S
Li353 O415 1.958 1_655 S
Li354 N399 1.990 . S
Li354 O412 1.961 . S
Li354 O414 1.931 1_455 S
Li354 O415 2.005 . S
Li355 N405 1.990 . S
Li355 O413 1.961 . S
Li355 O414 1.994 . S
Li355 O415 1.919 1_655 S
C356 C358 1.348 . S
C356 C359 1.356 . S
C356 O412 1.325 . S
N357 C360 1.314 . S
N357 C361 1.279 . S
C358 C356 1.348 . S
C358 C360 1.353 . S
C358 H416 0.929 . S
C359 C356 1.356 . S
C359 C361 1.358 . S
C359 H417 0.930 . S
C360 N357 1.314 . S
C360 C358 1.353 . S
C360 H418 0.930 . S
C361 N357 1.279 . S
C361 C359 1.358 . S
C361 H419 0.930 . S
C362 C365 1.348 . S
C362 C366 1.356 . S
C362 O413 1.325 . S
C363 N364 1.279 . S
C363 C366 1.358 . S
C363 H420 0.930 . S
N364 C363 1.279 . S
N364 C367 1.314 . S
C365 C362 1.348 . S
C365 C367 1.353 . S
C365 H421 0.929 . S
C366 C362 1.356 . S
C366 C363 1.358 . S
C366 H422 0.930 . S
C367 N364 1.314 . S
C367 C365 1.353 . S
C367 H423 0.930 . S
C368 N369 1.314 1_655 S
C368 C373 1.353 . S
C368 H374 0.930 . S
N369 Li352 1.994 . S
N369 C368 1.314 1_455 S
N369 C371 1.279 . S
C370 C371 1.358 . S
C370 C372 1.356 . S
C370 H424 0.930 . S
C371 N369 1.279 . S
C371 C370 1.358 . S
C371 H375 0.930 . S
C372 C370 1.356 . S
C372 C373 1.348 1_455 S
C373 C368 1.353 . S
C373 C372 1.348 1_655 S
C373 H425 0.929 . S
H374 C368 0.930 . S
H375 C371 0.930 . S
C376 N377 1.314 1_455 S
C376 C378 1.353 1_556 S
C376 H382 0.930 . S
N377 Li353 1.993 . S
N377 C376 1.314 1_655 S
N377 C380 1.279 . S
C378 C376 1.353 1_554 S
C378 C381 1.348 . S
C378 H426 0.929 . S
C379 C380 1.358 . S
C379 C381 1.356 1_656 S
C379 H427 0.930 . S
C380 N377 1.279 . S
C380 C379 1.358 . S
C380 H383 0.930 . S
C381 C378 1.348 . S
C381 C379 1.356 1_454 S
H382 C376 0.930 . S
H383 C380 0.930 . S
C384 C386 1.348 1_455 S
C384 C387 1.356 . S
C384 O414 1.324 1_455 S
N385 C388 1.314 1_455 S
N385 C389 1.279 . S
C386 C384 1.348 1_655 S
C386 C388 1.353 . S
C386 H428 0.929 . S
C387 C384 1.356 . S
C387 C389 1.358 . S
C387 H429 0.930 . S
C388 N385 1.314 1_655 S
C388 C386 1.353 . S
C388 H430 0.930 . S
C389 N385 1.279 . S
C389 C387 1.358 . S
C389 H431 0.930 . S
C390 C391 1.348 . S
C390 C392 1.356 1_455 S
C390 O415 1.324 . S
C391 C390 1.348 . S
C391 C393 1.353 1_556 S
C391 H432 0.929 . S
C392 C390 1.356 1_655 S
C392 C394 1.358 1_556 S
C392 H433 0.930 . S
C393 C391 1.353 1_554 S
C393 N395 1.314 1_455 S
C393 H434 0.930 . S
C394 C392 1.358 1_554 S
C394 N395 1.279 . S
C394 H435 0.930 . S
N395 C393 1.314 1_655 S
N395 C394 1.279 . S
C396 C398 1.353 . S
C396 N399 1.314 . S
C396 H402 0.930 . S
C397 N399 1.279 . S
C397 C400 1.358 . S
C397 H403 0.930 . S
C398 C396 1.353 . S
C398 C401 1.348 . S
C398 H436 0.929 . S
N399 Li354 1.990 . S
N399 C396 1.314 . S
N399 C397 1.279 . S
C400 C397 1.358 . S
C400 C401 1.356 . S
C400 H437 0.930 . S
C401 C398 1.348 . S
C401 C400 1.356 . S
H402 C396 0.930 . S
H403 C397 0.930 . S
C404 N405 1.314 . S
C404 C406 1.353 . S
C404 H410 0.930 . S
N405 Li355 1.990 . S
N405 C404 1.314 . S
N405 C408 1.279 . S
C406 C404 1.353 . S
C406 C409 1.348 . S
C406 H438 0.929 . S
C407 C408 1.358 . S
C407 C409 1.356 . S
C407 H439 0.930 . S
C408 N405 1.279 . S
C408 C407 1.358 . S
C408 H411 0.930 . S
C409 C406 1.348 . S
C409 C407 1.356 . S
H410 C404 0.930 . S
H411 C408 0.930 . S
O412 Li352 1.998 . S
O412 Li353 1.939 1_455 S
O412 Li354 1.961 . S
O412 C356 1.325 . S
O413 Li352 1.926 1_655 S
O413 Li353 1.986 . S
O413 Li355 1.961 . S
O413 C362 1.325 . S
O414 Li352 1.958 1_655 S
O414 Li354 1.931 1_655 S
O414 Li355 1.994 . S
O414 C384 1.324 1_655 S
O415 Li353 1.958 1_455 S
O415 Li354 2.005 . S
O415 Li355 1.919 1_455 S
O415 C390 1.324 . S
H416 C358 0.929 . S
H417 C359 0.930 . S
H418 C360 0.930 . S
H419 C361 0.930 . S
H420 C363 0.930 . S
H421 C365 0.929 . S
H422 C366 0.930 . S
H423 C367 0.930 . S
H424 C370 0.930 . S
H425 C373 0.929 . S
H426 C378 0.929 . S
H427 C379 0.930 . S
H428 C386 0.929 . S
H429 C387 0.930 . S
H430 C388 0.930 . S
H431 C389 0.930 . S
H432 C391 0.929 . S
H433 C392 0.930 . S
H434 C393 0.930 . S
H435 C394 0.930 . S
H436 C398 0.929 . S
H437 C400 0.930 . S
H438 C406 0.929 . S
H439 C407 0.930 . S
Li440 N457 1.990 . S
Li440 O500 1.956 . S
Li440 O501 1.970 . S
Li440 O502 1.961 . S
Li441 N465 1.990 . S
Li441 O500 1.970 . S
Li441 O501 1.956 . S
Li441 O503 1.961 . S
Li442 N487 1.990 . S
Li442 O500 1.961 . S
Li442 O502 1.956 . S
Li442 O503 1.970 . S
Li443 N493 1.990 . S
Li443 O501 1.961 . S
Li443 O502 1.970 . S
Li443 O503 1.956 . S
C444 C446 1.348 . S
C444 C447 1.356 . S
C444 O500 1.325 . S
N445 C448 1.314 . S
N445 C449 1.279 . S
C446 C444 1.348 . S
C446 C448 1.353 . S
C446 H504 0.929 . S
C447 C444 1.356 . S
C447 C449 1.358 . S
C447 H505 0.930 . S
C448 N445 1.314 . S
C448 C446 1.353 . S
C448 H506 0.930 . S
C449 N445 1.279 . S
C449 C447 1.358 . S
C449 H507 0.930 . S
C450 C453 1.348 . S
C450 C454 1.356 . S
C450 O501 1.325 . S
C451 N452 1.279 . S
C451 C454 1.358 . S
C451 H508 0.930 . S
N452 C451 1.279 . S
N452 C455 1.314 . S
C453 C450 1.348 . S
C453 C455 1.353 . S
C453 H509 0.929 . S
C454 C450 1.356 . S
C454 C451 1.358 . S
C454 H510 0.930 . S
C455 N452 1.314 . S
C455 C453 1.353 . S
C455 H511 0.930 . S
C456 N457 1.314 . S
C456 C461 1.353 . S
C456 H462 0.930 . S
N457 Li440 1.990 . S
N457 C456 1.314 . S
N457 C459 1.279 . S
C458 C459 1.358 . S
C458 C460 1.356 . S
C458 H512 0.930 . S
C459 N457 1.279 . S
C459 C458 1.358 . S
C459 H463 0.930 . S
C460 C458 1.356 . S
C460 C461 1.348 . S
C461 C456 1.353 . S
C461 C460 1.348 . S
C461 H513 0.929 . S
H462 C456 0.930 . S
H463 C459 0.930 . S
C464 N465 1.314 . S
C464 C466 1.353 . S
C464 H470 0.930 . S
N465 Li441 1.990 . S
N465 C464 1.314 . S
N465 C468 1.279 . S
C466 C464 1.353 . S
C466 C469 1.348 . S
C466 H514 0.929 . S
C467 C468 1.358 . S
C467 C469 1.356 . S
C467 H515 0.930 . S
C468 N465 1.279 . S
C468 C467 1.358 . S
C468 H471 0.930 . S
C469 C466 1.348 . S
C469 C467 1.356 . S
H470 C464 0.930 . S
H471 C468 0.930 . S
C472 C474 1.348 . S
C472 C475 1.356 . S
C472 O502 1.325 . S
N473 C476 1.314 1_556 S
N473 C477 1.279 1_556 S
C474 C472 1.348 . S
C474 C476 1.353 . S
C474 H516 0.929 . S
C475 C472 1.356 . S
C475 C477 1.358 . S
C475 H517 0.930 . S
C476 N473 1.314 1_554 S
C476 C474 1.353 . S
C476 H518 0.930 . S
C477 N473 1.279 1_554 S
C477 C475 1.358 . S
C477 H519 0.930 1_554 S
C478 C479 1.348 . S
C478 C480 1.356 . S
C478 O503 1.325 . S
C479 C478 1.348 . S
C479 C481 1.353 . S
C479 H520 0.929 . S
C480 C478 1.356 . S
C480 C482 1.358 . S
C480 H521 0.930 . S
C481 C479 1.353 . S
C481 N483 1.314 . S
C481 H522 0.930 . S
C482 C480 1.358 . S
C482 N483 1.279 . S
C482 H523 0.930 . S
N483 C481 1.314 . S
N483 C482 1.279 . S
C484 C486 1.353 1_554 S
C484 N487 1.314 . S
C484 H490 0.930 . S
C485 N487 1.279 1_556 S
C485 C488 1.358 . S
C485 H491 0.930 . S
C486 C484 1.353 1_556 S
C486 C489 1.348 . S
C486 H524 0.929 . S
N487 Li442 1.990 . S
N487 C484 1.314 . S
N487 C485 1.279 1_554 S
C488 C485 1.358 . S
C488 C489 1.356 . S
C488 H525 0.930 . S
C489 C486 1.348 . S
C489 C488 1.356 . S
H490 C484 0.930 . S
H491 C485 0.930 . S
C492 N493 1.314 . S
C492 C494 1.353 . S
C492 H498 0.930 . S
N493 Li443 1.990 . S
N493 C492 1.314 . S
N493 C496 1.279 . S
C494 C492 1.353 . S
C494 C497 1.348 . S
C494 H526 0.929 . S
C495 C496 1.358 . S
C495 C497 1.356 . S
C495 H527 0.930 . S
C496 N493 1.279 . S
C496 C495 1.358 . S
C496 H499 0.930 . S
C497 C494 1.348 . S
C497 C495 1.356 . S
H498 C492 0.930 . S
H499 C496 0.930 . S
O500 Li440 1.956 . S
O500 Li441 1.970 . S
O500 Li442 1.961 . S
O500 C444 1.325 . S
O501 Li440 1.970 . S
O501 Li441 1.956 . S
O501 Li443 1.961 . S
O501 C450 1.325 . S
O502 Li440 1.961 . S
O502 Li442 1.956 . S
O502 Li443 1.970 . S
O502 C472 1.325 . S
O503 Li441 1.961 . S
O503 Li442 1.970 . S
O503 Li443 1.956 . S
O503 C478 1.325 . S
H504 C446 0.929 . S
H505 C447 0.930 . S
H506 C448 0.930 . S
H507 C449 0.930 . S
H508 C451 0.930 . S
H509 C453 0.929 . S
H510 C454 0.930 . S
H511 C455 0.930 . S
H512 C458 0.930 . S
H513 C461 0.929 . S
H514 C466 0.929 . S
H515 C467 0.930 . S
H516 C474 0.929 . S
H517 C475 0.930 . S
H518 C476 0.930 . S
H519 C477 0.930 1_556 S
H520 C479 0.929 . S
H521 C480 0.930 . S
H522 C481 0.930 . S
H523 C482 0.930 . S
H524 C486 0.929 . S
H525 C488 0.930 . S
H526 C494 0.929 . S
H527 C495 0.930 . S
Li528 N545 1.990 . S
Li528 O588 1.956 . S
Li528 O589 1.970 . S
Li528 O590 1.961 . S
Li529 N553 1.990 . S
Li529 O588 1.970 . S
Li529 O589 1.956 . S
Li529 O591 1.961 . S
Li530 N575 1.990 . S
Li530 O588 1.961 . S
Li530 O590 1.956 . S
Li530 O591 1.970 . S
Li531 N581 1.990 . S
Li531 O589 1.961 . S
Li531 O590 1.970 . S
Li531 O591 1.956 . S
C532 C534 1.348 . S
C532 C535 1.356 . S
C532 O588 1.325 . S
N533 C536 1.314 . S
N533 C537 1.279 . S
C534 C532 1.348 . S
C534 C536 1.353 . S
C534 H592 0.929 . S
C535 C532 1.356 . S
C535 C537 1.358 . S
C535 H593 0.930 . S
C536 N533 1.314 . S
C536 C534 1.353 . S
C536 H594 0.930 . S
C537 N533 1.279 . S
C537 C535 1.358 . S
C537 H595 0.930 . S
C538 C541 1.348 . S
C538 C542 1.356 . S
C538 O589 1.325 . S
C539 N540 1.279 . S
C539 C542 1.358 . S
C539 H596 0.930 . S
N540 C539 1.279 . S
N540 C543 1.314 . S
C541 C538 1.348 . S
C541 C543 1.353 . S
C541 H597 0.929 . S
C542 C538 1.356 . S
C542 C539 1.358 . S
C542 H598 0.930 . S
C543 N540 1.314 . S
C543 C541 1.353 . S
C543 H599 0.930 . S
C544 N545 1.314 . S
C544 C549 1.353 . S
C544 H550 0.930 . S
N545 Li528 1.990 . S
N545 C544 1.314 . S
N545 C547 1.279 . S
C546 C547 1.358 . S
C546 C548 1.356 . S
C546 H600 0.930 . S
C547 N545 1.279 . S
C547 C546 1.358 . S
C547 H551 0.930 . S
C548 C546 1.356 . S
C548 C549 1.348 . S
C549 C544 1.353 . S
C549 C548 1.348 . S
C549 H601 0.929 . S
H550 C544 0.930 . S
H551 C547 0.930 . S
C552 N553 1.314 . S
C552 C554 1.353 . S
C552 H558 0.930 . S
N553 Li529 1.990 . S
N553 C552 1.314 . S
N553 C556 1.279 . S
C554 C552 1.353 . S
C554 C557 1.348 . S
C554 H602 0.929 . S
C555 C556 1.358 . S
C555 C557 1.356 . S
C555 H603 0.930 . S
C556 N553 1.279 . S
C556 C555 1.358 . S
C556 H559 0.930 . S
C557 C554 1.348 . S
C557 C555 1.356 . S
H558 C552 0.930 . S
H559 C556 0.930 . S
C560 C562 1.348 . S
C560 C563 1.356 . S
C560 O590 1.325 . S
N561 C564 1.314 . S
N561 C565 1.279 . S
C562 C560 1.348 . S
C562 C564 1.353 . S
C562 H604 0.929 . S
C563 C560 1.356 . S
C563 C565 1.358 . S
C563 H605 0.930 . S
C564 N561 1.314 . S
C564 C562 1.353 . S
C564 H606 0.930 . S
C565 N561 1.279 . S
C565 C563 1.358 . S
C565 H607 0.930 . S
C566 C567 1.348 . S
C566 C568 1.356 . S
C566 O591 1.325 . S
C567 C566 1.348 . S
C567 C569 1.353 . S
C567 H608 0.929 . S
C568 C566 1.356 . S
C568 C570 1.358 . S
C568 H609 0.930 . S
C569 C567 1.353 . S
C569 N571 1.314 . S
C569 H610 0.930 . S
C570 C568 1.358 . S
C570 N571 1.279 . S
C570 H611 0.930 . S
N571 C569 1.314 . S
N571 C570 1.279 . S
C572 C574 1.353 . S
C572 N575 1.314 . S
C572 H578 0.930 . S
C573 N575 1.279 . S
C573 C576 1.358 . S
C573 H579 0.930 . S
C574 C572 1.353 . S
C574 C577 1.348 . S
C574 H612 0.929 . S
N575 Li530 1.990 . S
N575 C572 1.314 . S
N575 C573 1.279 . S
C576 C573 1.358 . S
C576 C577 1.356 . S
C576 H613 0.930 . S
C577 C574 1.348 . S
C577 C576 1.356 . S
H578 C572 0.930 . S
H579 C573 0.930 . S
C580 N581 1.314 . S
C580 C582 1.353 . S
C580 H586 0.930 . S
N581 Li531 1.990 . S
N581 C580 1.314 . S
N581 C584 1.279 . S
C582 C580 1.353 . S
C582 C585 1.348 . S
C582 H614 0.929 . S
C583 C584 1.358 . S
C583 C585 1.356 . S
C583 H615 0.930 . S
C584 N581 1.279 . S
C584 C583 1.358 . S
C584 H587 0.930 . S
C585 C582 1.348 . S
C585 C583 1.356 . S
H586 C580 0.930 . S
H587 C584 0.930 . S
O588 Li528 1.956 . S
O588 Li529 1.970 . S
O588 Li530 1.961 . S
O588 C532 1.325 . S
O589 Li528 1.970 . S
O589 Li529 1.956 . S
O589 Li531 1.961 . S
O589 C538 1.325 . S
O590 Li528 1.961 . S
O590 Li530 1.956 . S
O590 Li531 1.970 . S
O590 C560 1.325 . S
O591 Li529 1.961 . S
O591 Li530 1.970 . S
O591 Li531 1.956 . S
O591 C566 1.325 . S
H592 C534 0.929 . S
H593 C535 0.930 . S
H594 C536 0.930 . S
H595 C537 0.930 . S
H596 C539 0.930 . S
H597 C541 0.929 . S
H598 C542 0.930 . S
H599 C543 0.930 . S
H600 C546 0.930 . S
H601 C549 0.929 . S
H602 C554 0.929 . S
H603 C555 0.930 . S
H604 C562 0.929 . S
H605 C563 0.930 . S
H606 C564 0.930 . S
H607 C565 0.930 . S
H608 C567 0.929 . S
H609 C568 0.930 . S
H610 C569 0.930 . S
H611 C570 0.930 . S
H612 C574 0.929 . S
H613 C576 0.930 . S
H614 C582 0.929 . S
H615 C583 0.930 . S
Li616 N633 1.990 . S
Li616 O676 1.956 . S
Li616 O677 1.970 . S
Li616 O678 1.961 . S
Li617 N641 1.990 . S
Li617 O676 1.970 . S
Li617 O677 1.956 . S
Li617 O679 1.961 . S
Li618 N663 1.990 . S
Li618 O676 1.961 . S
Li618 O678 1.956 . S
Li618 O679 1.970 . S
Li619 N669 1.990 . S
Li619 O677 1.961 . S
Li619 O678 1.970 . S
Li619 O679 1.956 . S
C620 C622 1.348 . S
C620 C623 1.356 . S
C620 O676 1.325 . S
N621 C624 1.314 . S
N621 C625 1.279 . S
C622 C620 1.348 . S
C622 C624 1.353 . S
C622 H680 0.929 . S
C623 C620 1.356 . S
C623 C625 1.358 . S
C623 H681 0.930 . S
C624 N621 1.314 . S
C624 C622 1.353 . S
C624 H682 0.930 . S
C625 N621 1.279 . S
C625 C623 1.358 . S
C625 H683 0.930 . S
C626 C629 1.348 . S
C626 C630 1.356 . S
C626 O677 1.325 . S
C627 N628 1.279 . S
C627 C630 1.358 . S
C627 H684 0.930 . S
N628 C627 1.279 . S
N628 C631 1.314 . S
C629 C626 1.348 . S
C629 C631 1.353 . S
C629 H685 0.929 . S
C630 C626 1.356 . S
C630 C627 1.358 . S
C630 H686 0.930 . S
C631 N628 1.314 . S
C631 C629 1.353 . S
C631 H687 0.930 . S
C632 N633 1.314 . S
C632 C637 1.353 . S
C632 H638 0.930 . S
N633 Li616 1.990 . S
N633 C632 1.314 . S
N633 C635 1.279 . S
C634 C635 1.358 . S
C634 C636 1.356 . S
C634 H688 0.930 . S
C635 N633 1.279 . S
C635 C634 1.358 . S
C635 H639 0.930 . S
C636 C634 1.356 . S
C636 C637 1.348 . S
C637 C632 1.353 . S
C637 C636 1.348 . S
C637 H689 0.929 . S
H638 C632 0.930 . S
H639 C635 0.930 . S
C640 N641 1.314 . S
C640 C642 1.353 . S
C640 H646 0.930 . S
N641 Li617 1.990 . S
N641 C640 1.314 . S
N641 C644 1.279 . S
C642 C640 1.353 . S
C642 C645 1.348 . S
C642 H690 0.929 . S
C643 C644 1.358 . S
C643 C645 1.356 . S
C643 H691 0.930 . S
C644 N641 1.279 . S
C644 C643 1.358 . S
C644 H647 0.930 . S
C645 C642 1.348 . S
C645 C643 1.356 . S
H646 C640 0.930 . S
H647 C644 0.930 . S
C648 C650 1.348 . S
C648 C651 1.356 . S
C648 O678 1.325 . S
N649 C652 1.314 . S
N649 C653 1.279 . S
C650 C648 1.348 . S
C650 C652 1.353 . S
C650 H692 0.929 . S
C651 C648 1.356 . S
C651 C653 1.358 . S
C651 H693 0.930 . S
C652 N649 1.314 . S
C652 C650 1.353 . S
C652 H694 0.930 . S
C653 N649 1.279 . S
C653 C651 1.358 . S
C653 H695 0.930 . S
C654 C655 1.348 . S
C654 C656 1.356 . S
C654 O679 1.325 . S
C655 C654 1.348 . S
C655 C657 1.353 . S
C655 H696 0.929 . S
C656 C654 1.356 . S
C656 C658 1.358 . S
C656 H697 0.930 . S
C657 C655 1.353 . S
C657 N659 1.314 . S
C657 H698 0.930 . S
C658 C656 1.358 . S
C658 N659 1.279 . S
C658 H699 0.930 . S
N659 C657 1.314 . S
N659 C658 1.279 . S
C660 C662 1.353 . S
C660 N663 1.314 . S
C660 H666 0.930 . S
C661 N663 1.279 . S
C661 C664 1.358 . S
C661 H667 0.930 . S
C662 C660 1.353 . S
C662 C665 1.348 . S
C662 H700 0.929 . S
N663 Li618 1.990 . S
N663 C660 1.314 . S
N663 C661 1.279 . S
C664 C661 1.358 . S
C664 C665 1.356 . S
C664 H701 0.930 . S
C665 C662 1.348 . S
C665 C664 1.356 . S
H666 C660 0.930 . S
H667 C661 0.930 . S
C668 N669 1.314 . S
C668 C670 1.353 . S
C668 H674 0.930 . S
N669 Li619 1.990 . S
N669 C668 1.314 . S
N669 C672 1.279 . S
C670 C668 1.353 . S
C670 C673 1.348 . S
C670 H702 0.929 . S
C671 C672 1.358 . S
C671 C673 1.356 . S
C671 H703 0.930 . S
C672 N669 1.279 . S
C672 C671 1.358 . S
C672 H675 0.930 . S
C673 C670 1.348 . S
C673 C671 1.356 . S
H674 C668 0.930 . S
H675 C672 0.930 . S
O676 Li616 1.956 . S
O676 Li617 1.970 . S
O676 Li618 1.961 . S
O676 C620 1.325 . S
O677 Li616 1.970 . S
O677 Li617 1.956 . S
O677 Li619 1.961 . S
O677 C626 1.325 . S
O678 Li616 1.961 . S
O678 Li618 1.956 . S
O678 Li619 1.970 . S
O678 C648 1.325 . S
O679 Li617 1.961 . S
O679 Li618 1.970 . S
O679 Li619 1.956 . S
O679 C654 1.325 . S
H680 C622 0.929 . S
H681 C623 0.930 . S
H682 C624 0.930 . S
H683 C625 0.930 . S
H684 C627 0.930 . S
H685 C629 0.929 . S
H686 C630 0.930 . S
H687 C631 0.930 . S
H688 C634 0.930 . S
H689 C637 0.929 . S
H690 C642 0.929 . S
H691 C643 0.930 . S
H692 C650 0.929 . S
H693 C651 0.930 . S
H694 C652 0.930 . S
H695 C653 0.930 . S
H696 C655 0.929 . S
H697 C656 0.930 . S
H698 C657 0.930 . S
H699 C658 0.930 . S
H700 C662 0.929 . S
H701 C664 0.930 . S
H702 C670 0.929 . S
H703 C671 0.930 . S
Li704 N721 1.990 . S
Li704 O764 1.956 . S
Li704 O765 1.970 . S
Li704 O766 1.961 . S
Li705 N729 1.990 . S
Li705 O764 1.970 . S
Li705 O765 1.956 . S
Li705 O767 1.961 . S
Li706 N751 1.990 . S
Li706 O764 1.961 . S
Li706 O766 1.956 . S
Li706 O767 1.970 . S
Li707 N757 1.990 . S
Li707 O765 1.961 . S
Li707 O766 1.970 . S
Li707 O767 1.956 . S
C708 C710 1.348 . S
C708 C711 1.356 . S
C708 O764 1.325 . S
N709 C712 1.314 . S
N709 C713 1.279 . S
C710 C708 1.348 . S
C710 C712 1.353 . S
C710 H768 0.929 . S
C711 C708 1.356 . S
C711 C713 1.358 . S
C711 H769 0.930 . S
C712 N709 1.314 . S
C712 C710 1.353 . S
C712 H770 0.930 . S
C713 N709 1.279 . S
C713 C711 1.358 . S
C713 H771 0.930 . S
C714 C717 1.348 . S
C714 C718 1.356 . S
C714 O765 1.325 . S
C715 N716 1.279 . S
C715 C718 1.358 . S
C715 H772 0.930 . S
N716 C715 1.279 . S
N716 C719 1.314 . S
C717 C714 1.348 . S
C717 C719 1.353 . S
C717 H773 0.929 . S
C718 C714 1.356 . S
C718 C715 1.358 . S
C718 H774 0.930 . S
C719 N716 1.314 . S
C719 C717 1.353 . S
C719 H775 0.930 . S
C720 N721 1.314 . S
C720 C725 1.353 . S
C720 H726 0.930 . S
N721 Li704 1.990 . S
N721 C720 1.314 . S
N721 C723 1.279 . S
C722 C723 1.358 . S
C722 C724 1.356 . S
C722 H776 0.930 . S
C723 N721 1.279 . S
C723 C722 1.358 . S
C723 H727 0.930 . S
C724 C722 1.356 . S
C724 C725 1.348 . S
C725 C720 1.353 . S
C725 C724 1.348 . S
C725 H777 0.929 . S
H726 C720 0.930 . S
H727 C723 0.930 . S
C728 N729 1.314 . S
C728 C730 1.353 . S
C728 H734 0.930 . S
N729 Li705 1.990 . S
N729 C728 1.314 . S
N729 C732 1.279 . S
C730 C728 1.353 . S
C730 C733 1.348 . S
C730 H778 0.929 . S
C731 C732 1.358 . S
C731 C733 1.356 . S
C731 H779 0.930 . S
C732 N729 1.279 . S
C732 C731 1.358 . S
C732 H735 0.930 . S
C733 C730 1.348 . S
C733 C731 1.356 . S
H734 C728 0.930 . S
H735 C732 0.930 . S
C736 C738 1.348 . S
C736 C739 1.356 . S
C736 O766 1.325 . S
N737 C740 1.314 . S
N737 C741 1.279 . S
C738 C736 1.348 . S
C738 C740 1.353 . S
C738 H780 0.929 . S
C739 C736 1.356 . S
C739 C741 1.358 . S
C739 H781 0.930 . S
C740 N737 1.314 . S
C740 C738 1.353 . S
C740 H782 0.930 . S
C741 N737 1.279 . S
C741 C739 1.358 . S
C741 H783 0.930 . S
C742 C743 1.348 . S
C742 C744 1.356 . S
C742 O767 1.325 . S
C743 C742 1.348 . S
C743 C745 1.353 . S
C743 H784 0.929 . S
C744 C742 1.356 . S
C744 C746 1.358 . S
C744 H785 0.930 . S
C745 C743 1.353 . S
C745 N747 1.314 . S
C745 H786 0.930 . S
C746 C744 1.358 . S
C746 N747 1.279 . S
C746 H787 0.930 . S
N747 C745 1.314 . S
N747 C746 1.279 . S
C748 C750 1.353 . S
C748 N751 1.314 . S
C748 H754 0.930 . S
C749 N751 1.279 . S
C749 C752 1.358 . S
C749 H755 0.930 . S
C750 C748 1.353 . S
C750 C753 1.348 . S
C750 H788 0.929 . S
N751 Li706 1.990 . S
N751 C748 1.314 . S
N751 C749 1.279 . S
C752 C749 1.358 . S
C752 C753 1.356 . S
C752 H789 0.930 . S
C753 C750 1.348 . S
C753 C752 1.356 . S
H754 C748 0.930 . S
H755 C749 0.930 . S
C756 N757 1.314 . S
C756 C758 1.353 . S
C756 H762 0.930 . S
N757 Li707 1.990 . S
N757 C756 1.314 . S
N757 C760 1.279 . S
C758 C756 1.353 . S
C758 C761 1.348 . S
C758 H790 0.929 . S
C759 C760 1.358 . S
C759 C761 1.356 . S
C759 H791 0.930 . S
C760 N757 1.279 . S
C760 C759 1.358 . S
C760 H763 0.930 . S
C761 C758 1.348 . S
C761 C759 1.356 . S
H762 C756 0.930 . S
H763 C760 0.930 . S
O764 Li704 1.956 . S
O764 Li705 1.970 . S
O764 Li706 1.961 . S
O764 C708 1.325 . S
O765 Li704 1.970 . S
O765 Li705 1.956 . S
O765 Li707 1.961 . S
O765 C714 1.325 . S
O766 Li704 1.961 . S
O766 Li706 1.956 . S
O766 Li707 1.970 . S
O766 C736 1.325 . S
O767 Li705 1.961 . S
O767 Li706 1.970 . S
O767 Li707 1.956 . S
O767 C742 1.325 . S
H768 C710 0.929 . S
H769 C711 0.930 . S
H770 C712 0.930 . S
H771 C713 0.930 . S
H772 C715 0.930 . S
H773 C717 0.929 . S
H774 C718 0.930 . S
H775 C719 0.930 . S
H776 C722 0.930 . S
H777 C725 0.929 . S
H778 C730 0.929 . S
H779 C731 0.930 . S
H780 C738 0.929 . S
H781 C739 0.930 . S
H782 C740 0.930 . S
H783 C741 0.930 . S
H784 C743 0.929 . S
H785 C744 0.930 . S
H786 C745 0.930 . S
H787 C746 0.930 . S
H788 C750 0.929 . S
H789 C752 0.930 . S
H790 C758 0.929 . S
H791 C759 0.930 . S
Li792 N809 1.990 . S
Li792 O852 1.956 . S
Li792 O853 1.970 . S
Li792 O854 1.961 . S
Li793 N817 1.990 . S
Li793 O852 1.970 . S
Li793 O853 1.956 . S
Li793 O855 1.961 . S
Li794 N839 1.990 . S
Li794 O852 1.961 . S
Li794 O854 1.956 . S
Li794 O855 1.970 . S
Li795 N845 1.990 . S
Li795 O853 1.961 . S
Li795 O854 1.970 . S
Li795 O855 1.956 . S
C796 C798 1.348 . S
C796 C799 1.356 . S
C796 O852 1.325 . S
N797 C800 1.314 . S
N797 C801 1.279 . S
C798 C796 1.348 . S
C798 C800 1.353 . S
C798 H856 0.929 . S
C799 C796 1.356 . S
C799 C801 1.358 . S
C799 H857 0.930 . S
C800 N797 1.314 . S
C800 C798 1.353 . S
C800 H858 0.930 . S
C801 N797 1.279 . S
C801 C799 1.358 . S
C801 H859 0.930 . S
C802 C805 1.348 . S
C802 C806 1.356 . S
C802 O853 1.325 . S
C803 N804 1.279 . S
C803 C806 1.358 . S
C803 H860 0.930 . S
N804 C803 1.279 . S
N804 C807 1.314 . S
C805 C802 1.348 . S
C805 C807 1.353 . S
C805 H861 0.929 . S
C806 C802 1.356 . S
C806 C803 1.358 . S
C806 H862 0.930 . S
C807 N804 1.314 . S
C807 C805 1.353 . S
C807 H863 0.930 . S
C808 N809 1.314 . S
C808 C813 1.353 . S
C808 H814 0.930 . S
N809 Li792 1.990 . S
N809 C808 1.314 . S
N809 C811 1.279 . S
C810 C811 1.358 . S
C810 C812 1.356 . S
C810 H864 0.930 . S
C811 N809 1.279 . S
C811 C810 1.358 . S
C811 H815 0.930 . S
C812 C810 1.356 . S
C812 C813 1.348 . S
C813 C808 1.353 . S
C813 C812 1.348 . S
C813 H865 0.929 . S
H814 C808 0.930 . S
H815 C811 0.930 . S
C816 N817 1.314 . S
C816 C818 1.353 . S
C816 H822 0.930 . S
N817 Li793 1.990 . S
N817 C816 1.314 . S
N817 C820 1.279 . S
C818 C816 1.353 . S
C818 C821 1.348 . S
C818 H866 0.929 . S
C819 C820 1.358 . S
C819 C821 1.356 . S
C819 H867 0.930 . S
C820 N817 1.279 . S
C820 C819 1.358 . S
C820 H823 0.930 . S
C821 C818 1.348 . S
C821 C819 1.356 . S
H822 C816 0.930 . S
H823 C820 0.930 . S
C824 C826 1.348 . S
C824 C827 1.356 . S
C824 O854 1.325 . S
N825 C828 1.314 1_556 S
N825 C829 1.279 1_556 S
C826 C824 1.348 . S
C826 C828 1.353 . S
C826 H868 0.929 . S
C827 C824 1.356 . S
C827 C829 1.358 . S
C827 H869 0.930 . S
C828 N825 1.314 1_554 S
C828 C826 1.353 . S
C828 H870 0.930 . S
C829 N825 1.279 1_554 S
C829 C827 1.358 . S
C829 H871 0.930 1_554 S
C830 C831 1.348 . S
C830 C832 1.356 . S
C830 O855 1.325 . S
C831 C830 1.348 . S
C831 C833 1.353 . S
C831 H872 0.929 . S
C832 C830 1.356 . S
C832 C834 1.358 . S
C832 H873 0.930 . S
C833 C831 1.353 . S
C833 N835 1.314 . S
C833 H874 0.930 . S
C834 C832 1.358 . S
C834 N835 1.279 . S
C834 H875 0.930 . S
N835 C833 1.314 . S
N835 C834 1.279 . S
C836 C838 1.353 1_554 S
C836 N839 1.314 . S
C836 H842 0.930 . S
C837 N839 1.279 1_556 S
C837 C840 1.358 . S
C837 H843 0.930 . S
C838 C836 1.353 1_556 S
C838 C841 1.348 . S
C838 H876 0.929 . S
N839 Li794 1.990 . S
N839 C836 1.314 . S
N839 C837 1.279 1_554 S
C840 C837 1.358 . S
C840 C841 1.356 . S
C840 H877 0.930 . S
C841 C838 1.348 . S
C841 C840 1.356 . S
H842 C836 0.930 . S
H843 C837 0.930 . S
C844 N845 1.314 . S
C844 C846 1.353 . S
C844 H850 0.930 . S
N845 Li795 1.990 . S
N845 C844 1.314 . S
N845 C848 1.279 . S
C846 C844 1.353 . S
C846 C849 1.348 . S
C846 H878 0.929 . S
C847 C848 1.358 . S
C847 C849 1.356 . S
C847 H879 0.930 . S
C848 N845 1.279 . S
C848 C847 1.358 . S
C848 H851 0.930 . S
C849 C846 1.348 . S
C849 C847 1.356 . S
H850 C844 0.930 . S
H851 C848 0.930 . S
O852 Li792 1.956 . S
O852 Li793 1.970 . S
O852 Li794 1.961 . S
O852 C796 1.325 . S
O853 Li792 1.970 . S
O853 Li793 1.956 . S
O853 Li795 1.961 . S
O853 C802 1.325 . S
O854 Li792 1.961 . S
O854 Li794 1.956 . S
O854 Li795 1.970 . S
O854 C824 1.325 . S
O855 Li793 1.961 . S
O855 Li794 1.970 . S
O855 Li795 1.956 . S
O855 C830 1.325 . S
H856 C798 0.929 . S
H857 C799 0.930 . S
H858 C800 0.930 . S
H859 C801 0.930 . S
H860 C803 0.930 . S
H861 C805 0.929 . S
H862 C806 0.930 . S
H863 C807 0.930 . S
H864 C810 0.930 . S
H865 C813 0.929 . S
H866 C818 0.929 . S
H867 C819 0.930 . S
H868 C826 0.929 . S
H869 C827 0.930 . S
H870 C828 0.930 . S
H871 C829 0.930 1_556 S
H872 C831 0.929 . S
H873 C832 0.930 . S
H874 C833 0.930 . S
H875 C834 0.930 . S
H876 C838 0.929 . S
H877 C840 0.930 . S
H878 C846 0.929 . S
H879 C847 0.930 . S
Li880 N897 1.990 . S
Li880 O940 1.956 . S
Li880 O941 1.970 . S
Li880 O942 1.961 . S
Li881 N905 1.990 . S
Li881 O940 1.970 . S
Li881 O941 1.956 . S
Li881 O943 1.961 1_554 S
Li882 N927 1.990 . S
Li882 O940 1.961 . S
Li882 O942 1.956 . S
Li882 O943 1.970 1_554 S
Li883 N933 1.990 . S
Li883 O941 1.961 1_556 S
Li883 O942 1.970 1_556 S
Li883 O943 1.956 . S
C884 C886 1.348 . S
C884 C887 1.356 . S
C884 O940 1.325 . S
N885 C888 1.314 . S
N885 C889 1.279 . S
C886 C884 1.348 . S
C886 C888 1.353 . S
C886 H944 0.929 . S
C887 C884 1.356 . S
C887 C889 1.358 . S
C887 H945 0.930 . S
C888 N885 1.314 . S
C888 C886 1.353 . S
C888 H946 0.930 . S
C889 N885 1.279 . S
C889 C887 1.358 . S
C889 H947 0.930 . S
C890 C893 1.348 . S
C890 C894 1.356 1_554 S
C890 O941 1.325 . S
C891 N892 1.279 . S
C891 C894 1.358 1_554 S
C891 H948 0.930 1_554 S
N892 C891 1.279 . S
N892 C895 1.314 . S
C893 C890 1.348 . S
C893 C895 1.353 . S
C893 H949 0.929 . S
C894 C890 1.356 1_556 S
C894 C891 1.358 1_556 S
C894 H950 0.930 . S
C895 N892 1.314 . S
C895 C893 1.353 . S
C895 H951 0.930 . S
C896 N897 1.314 . S
C896 C901 1.353 . S
C896 H902 0.930 . S
N897 Li880 1.990 . S
N897 C896 1.314 . S
N897 C899 1.279 . S
C898 C899 1.358 . S
C898 C900 1.356 . S
C898 H952 0.930 . S
C899 N897 1.279 . S
C899 C898 1.358 . S
C899 H903 0.930 . S
C900 C898 1.356 . S
C900 C901 1.348 . S
C901 C896 1.353 . S
C901 C900 1.348 . S
C901 H953 0.929 . S
H902 C896 0.930 . S
H903 C899 0.930 . S
C904 N905 1.314 1_556 S
C904 C906 1.353 . S
C904 H910 0.930 . S
N905 Li881 1.990 . S
N905 C904 1.314 1_554 S
N905 C908 1.279 . S
C906 C904 1.353 . S
C906 C909 1.348 1_556 S
C906 H954 0.929 . S
C907 C908 1.358 . S
C907 C909 1.356 . S
C907 H955 0.930 . S
C908 N905 1.279 . S
C908 C907 1.358 . S
C908 H911 0.930 . S
C909 C906 1.348 1_554 S
C909 C907 1.356 . S
H910 C904 0.930 . S
H911 C908 0.930 . S
C912 C914 1.358 . S
C912 C915 1.356 . S
C912 O942 1.325 . S
N913 C916 1.314 . S
N913 C917 1.279 . S
C914 C912 1.358 . S
C914 C916 1.355 . S
C914 H956 0.917 1_554 S
C915 C912 1.356 . S
C915 C917 1.358 . S
C915 H957 0.930 . S
C916 N913 1.314 . S
C916 C914 1.355 . S
C916 H958 0.930 1_554 S
C917 N913 1.279 . S
C917 C915 1.358 . S
C917 H959 0.930 . S
C918 C919 1.348 . S
C918 C920 1.356 . S
C918 O943 1.325 . S
C919 C918 1.348 . S
C919 C921 1.353 . S
C919 H960 0.929 . S
C920 C918 1.356 . S
C920 C922 1.358 . S
C920 H961 0.930 . S
C921 C919 1.353 . S
C921 N923 1.314 . S
C921 H962 0.930 . S
C922 C920 1.358 . S
C922 N923 1.279 . S
C922 H963 0.930 . S
N923 C921 1.314 . S
N923 C922 1.279 . S
C924 C926 1.353 . S
C924 N927 1.314 . S
C924 H930 0.930 . S
C925 N927 1.279 . S
C925 C928 1.358 . S
C925 H931 0.930 . S
C926 C924 1.353 . S
C926 C929 1.348 . S
C926 H964 0.929 . S
N927 Li882 1.990 . S
N927 C924 1.314 . S
N927 C925 1.279 . S
C928 C925 1.358 . S
C928 C929 1.356 . S
C928 H965 0.930 1_554 S
C929 C926 1.348 . S
C929 C928 1.356 . S
H930 C924 0.930 . S
H931 C925 0.930 . S
C932 N933 1.314 . S
C932 C934 1.353 . S
C932 H938 0.930 . S
N933 Li883 1.990 . S
N933 C932 1.314 . S
N933 C936 1.279 . S
C934 C932 1.353 . S
C934 C937 1.348 . S
C934 H966 0.929 . S
C935 C936 1.358 . S
C935 C937 1.356 . S
C935 H967 0.930 . S
C936 N933 1.279 . S
C936 C935 1.358 . S
C936 H939 0.930 . S
C937 C934 1.348 . S
C937 C935 1.356 . S
H938 C932 0.930 . S
H939 C936 0.930 . S
O940 Li880 1.956 . S
O940 Li881 1.970 . S
O940 Li882 1.961 . S
O940 C884 1.325 . S
O941 Li880 1.970 . S
O941 Li881 1.956 . S
O941 Li883 1.961 1_554 S
O941 C890 1.325 . S
O942 Li880 1.961 . S
O942 Li882 1.956 . S
O942 Li883 1.970 1_554 S
O942 C912 1.325 . S
O943 Li881 1.961 1_556 S
O943 Li882 1.970 1_556 S
O943 Li883 1.956 . S
O943 C918 1.325 . S
H944 C886 0.929 . S
H945 C887 0.930 . S
H946 C888 0.930 . S
H947 C889 0.930 . S
H948 C891 0.930 1_556 S
H949 C893 0.929 . S
H950 C894 0.930 . S
H951 C895 0.930 . S
H952 C898 0.930 . S
H953 C901 0.929 . S
H954 C906 0.929 . S
H955 C907 0.930 . S
H956 C914 0.917 1_556 S
H957 C915 0.930 . S
H958 C916 0.930 1_556 S
H959 C917 0.930 . S
H960 C919 0.929 . S
H961 C920 0.930 . S
H962 C921 0.930 . S
H963 C922 0.930 . S
H964 C926 0.929 . S
H965 C928 0.930 1_556 S
H966 C934 0.929 . S
H967 C935 0.930 . S
Li968 N985 1.990 . S
Li968 O1028 1.956 . S
Li968 O1029 1.970 . S
Li968 O1030 1.961 . S
Li969 N993 1.990 . S
Li969 O1028 1.970 . S
Li969 O1029 1.956 . S
Li969 O1031 1.961 . S
Li970 N1015 1.990 . S
Li970 O1028 1.961 . S
Li970 O1030 1.956 . S
Li970 O1031 1.970 . S
Li971 N1021 1.990 . S
Li971 O1029 1.961 . S
Li971 O1030 1.970 . S
Li971 O1031 1.956 . S
C972 C974 1.348 . S
C972 C975 1.356 . S
C972 O1028 1.325 . S
N973 C976 1.314 . S
N973 C977 1.279 . S
C974 C972 1.348 . S
C974 C976 1.353 . S
C974 H1032 0.929 . S
C975 C972 1.356 . S
C975 C977 1.358 . S
C975 H1033 0.930 . S
C976 N973 1.314 . S
C976 C974 1.353 . S
C976 H1034 0.930 . S
C977 N973 1.279 . S
C977 C975 1.358 . S
C977 H1035 0.930 . S
C978 C981 1.348 . S
C978 C982 1.356 . S
C978 O1029 1.325 . S
C979 N980 1.279 . S
C979 C982 1.358 . S
C979 H1036 0.930 . S
N980 C979 1.279 . S
N980 C983 1.314 . S
C981 C978 1.348 . S
C981 C983 1.353 . S
C981 H1037 0.929 . S
C982 C978 1.356 . S
C982 C979 1.358 . S
C982 H1038 0.930 . S
C983 N980 1.314 . S
C983 C981 1.353 . S
C983 H1039 0.930 . S
C984 N985 1.314 . S
C984 C989 1.353 . S
C984 H990 0.930 . S
N985 Li968 1.990 . S
N985 C984 1.314 . S
N985 C987 1.279 . S
C986 C987 1.358 . S
C986 C988 1.356 . S
C986 H1040 0.930 . S
C987 N985 1.279 . S
C987 C986 1.358 . S
C987 H991 0.930 . S
C988 C986 1.356 . S
C988 C989 1.348 . S
C989 C984 1.353 . S
C989 C988 1.348 . S
C989 H1041 0.929 . S
H990 C984 0.930 . S
H991 C987 0.930 . S
C992 N993 1.314 . S
C992 C994 1.353 . S
C992 H998 0.930 . S
N993 Li969 1.990 . S
N993 C992 1.314 . S
N993 C996 1.279 . S
C994 C992 1.353 . S
C994 C997 1.348 . S
C994 H1042 0.929 . S
C995 C996 1.358 . S
C995 C997 1.356 . S
C995 H1043 0.930 . S
C996 N993 1.279 . S
C996 C995 1.358 . S
C996 H999 0.930 . S
C997 C994 1.348 . S
C997 C995 1.356 . S
H998 C992 0.930 . S
H999 C996 0.930 . S
C1000 C1002 1.348 . S
C1000 C1003 1.356 . S
C1000 O1030 1.325 . S
N1001 C1004 1.314 . S
N1001 C1005 1.279 . S
C1002 C1000 1.348 . S
C1002 C1004 1.353 . S
C1002 H1044 0.929 . S
C1003 C1000 1.356 . S
C1003 C1005 1.358 . S
C1003 H1045 0.930 . S
C1004 N1001 1.314 . S
C1004 C1002 1.353 . S
C1004 H1046 0.930 . S
C1005 N1001 1.279 . S
C1005 C1003 1.358 . S
C1005 H1047 0.930 . S
C1006 C1007 1.348 . S
C1006 C1008 1.356 . S
C1006 O1031 1.325 . S
C1007 C1006 1.348 . S
C1007 C1009 1.353 . S
C1007 H1048 0.929 . S
C1008 C1006 1.356 . S
C1008 C1010 1.358 . S
C1008 H1049 0.930 . S
C1009 C1007 1.353 . S
C1009 N1011 1.314 . S
C1009 H1050 0.930 . S
C1010 C1008 1.358 . S
C1010 N1011 1.279 . S
C1010 H1051 0.930 . S
N1011 C1009 1.314 . S
N1011 C1010 1.279 . S
C1012 C1014 1.353 . S
C1012 N1015 1.314 . S
C1012 H1018 0.930 . S
C1013 N1015 1.279 . S
C1013 C1016 1.358 . S
C1013 H1019 0.930 . S
C1014 C1012 1.353 . S
C1014 C1017 1.348 . S
C1014 H1052 0.929 . S
N1015 Li970 1.990 . S
N1015 C1012 1.314 . S
N1015 C1013 1.279 . S
C1016 C1013 1.358 . S
C1016 C1017 1.356 . S
C1016 H1053 0.930 . S
C1017 C1014 1.348 . S
C1017 C1016 1.356 . S
H1018 C1012 0.930 . S
H1019 C1013 0.930 . S
C1020 N1021 1.314 . S
C1020 C1022 1.353 . S
C1020 H1026 0.930 . S
N1021 Li971 1.990 . S
N1021 C1020 1.314 . S
N1021 C1024 1.279 . S
C1022 C1020 1.353 . S
C1022 C1025 1.348 . S
C1022 H1054 0.929 . S
C1023 C1024 1.358 . S
C1023 C1025 1.356 . S
C1023 H1055 0.930 . S
C1024 N1021 1.279 . S
C1024 C1023 1.358 . S
C1024 H1027 0.930 . S
C1025 C1022 1.348 . S
C1025 C1023 1.356 . S
H1026 C1020 0.930 . S
H1027 C1024 0.930 . S
O1028 Li968 1.956 . S
O1028 Li969 1.970 . S
O1028 Li970 1.961 . S
O1028 C972 1.325 . S
O1029 Li968 1.970 . S
O1029 Li969 1.956 . S
O1029 Li971 1.961 . S
O1029 C978 1.325 . S
O1030 Li968 1.961 . S
O1030 Li970 1.956 . S
O1030 Li971 1.970 . S
O1030 C1000 1.325 . S
O1031 Li969 1.961 . S
O1031 Li970 1.970 . S
O1031 Li971 1.956 . S
O1031 C1006 1.325 . S
H1032 C974 0.929 . S
H1033 C975 0.930 . S
H1034 C976 0.930 . S
H1035 C977 0.930 . S
H1036 C979 0.930 . S
H1037 C981 0.929 . S
H1038 C982 0.930 . S
H1039 C983 0.930 . S
H1040 C986 0.930 . S
H1041 C989 0.929 . S
H1042 C994 0.929 . S
H1043 C995 0.930 . S
H1044 C1002 0.929 . S
H1045 C1003 0.930 . S
H1046 C1004 0.930 . S
H1047 C1005 0.930 . S
H1048 C1007 0.929 . S
H1049 C1008 0.930 . S
H1050 C1009 0.930 . S
H1051 C1010 0.930 . S
H1052 C1014 0.929 . S
H1053 C1016 0.930 . S
H1054 C1022 0.929 . S
H1055 C1023 0.930 . S
Li1056 N1073 1.990 . S
Li1056 O1116 1.956 . S
Li1056 O1117 1.970 . S
Li1056 O1118 1.961 . S
Li1057 N1081 1.990 . S
Li1057 O1116 1.970 . S
Li1057 O1117 1.956 . S
Li1057 O1119 1.961 . S
Li1058 N1103 1.990 . S
Li1058 O1116 1.961 . S
Li1058 O1118 1.956 . S
Li1058 O1119 1.970 . S
Li1059 N1109 1.990 . S
Li1059 O1117 1.961 . S
Li1059 O1118 1.970 . S
Li1059 O1119 1.956 . S
C1060 C1062 1.348 . S
C1060 C1063 1.356 . S
C1060 O1116 1.325 . S
N1061 C1064 1.314 . S
N1061 C1065 1.279 . S
C1062 C1060 1.348 . S
C1062 C1064 1.353 . S
C1062 H1120 0.929 . S
C1063 C1060 1.356 . S
C1063 C1065 1.358 . S
C1063 H1121 0.930 . S
C1064 N1061 1.314 . S
C1064 C1062 1.353 . S
C1064 H1122 0.930 . S
C1065 N1061 1.279 . S
C1065 C1063 1.358 . S
C1065 H1123 0.930 . S
C1066 C1069 1.348 . S
C1066 C1070 1.356 . S
C1066 O1117 1.325 . S
C1067 N1068 1.279 . S
C1067 C1070 1.358 . S
C1067 H1124 0.930 . S
N1068 C1067 1.279 . S
N1068 C1071 1.314 . S
C1069 C1066 1.348 . S
C1069 C1071 1.353 . S
C1069 H1125 0.929 . S
C1070 C1066 1.356 . S
C1070 C1067 1.358 . S
C1070 H1126 0.930 . S
C1071 N1068 1.314 . S
C1071 C1069 1.353 . S
C1071 H1127 0.930 . S
C1072 N1073 1.314 . S
C1072 C1077 1.353 . S
C1072 H1078 0.930 . S
N1073 Li1056 1.990 . S
N1073 C1072 1.314 . S
N1073 C1075 1.279 . S
C1074 C1075 1.358 . S
C1074 C1076 1.356 . S
C1074 H1128 0.930 . S
C1075 N1073 1.279 . S
C1075 C1074 1.358 . S
C1075 H1079 0.930 . S
C1076 C1074 1.356 . S
C1076 C1077 1.348 . S
C1077 C1072 1.353 . S
C1077 C1076 1.348 . S
C1077 H1129 0.929 . S
H1078 C1072 0.930 . S
H1079 C1075 0.930 . S
C1080 N1081 1.314 . S
C1080 C1082 1.353 . S
C1080 H1086 0.930 . S
N1081 Li1057 1.990 . S
N1081 C1080 1.314 . S
N1081 C1084 1.279 . S
C1082 C1080 1.353 . S
C1082 C1085 1.348 . S
C1082 H1130 0.929 . S
C1083 C1084 1.358 . S
C1083 C1085 1.356 . S
C1083 H1131 0.930 . S
C1084 N1081 1.279 . S
C1084 C1083 1.358 . S
C1084 H1087 0.930 . S
C1085 C1082 1.348 . S
C1085 C1083 1.356 . S
H1086 C1080 0.930 . S
H1087 C1084 0.930 . S
C1088 C1090 1.348 . S
C1088 C1091 1.356 . S
C1088 O1118 1.325 . S
N1089 C1092 1.314 . S
N1089 C1093 1.279 . S
C1090 C1088 1.348 . S
C1090 C1092 1.353 . S
C1090 H1132 0.929 . S
C1091 C1088 1.356 . S
C1091 C1093 1.358 . S
C1091 H1133 0.930 . S
C1092 N1089 1.314 . S
C1092 C1090 1.353 . S
C1092 H1134 0.930 . S
C1093 N1089 1.279 . S
C1093 C1091 1.358 . S
C1093 H1135 0.930 . S
C1094 C1095 1.348 . S
C1094 C1096 1.356 . S
C1094 O1119 1.325 . S
C1095 C1094 1.348 . S
C1095 C1097 1.353 . S
C1095 H1136 0.929 . S
C1096 C1094 1.356 . S
C1096 C1098 1.358 . S
C1096 H1137 0.930 . S
C1097 C1095 1.353 . S
C1097 N1099 1.314 . S
C1097 H1138 0.930 . S
C1098 C1096 1.358 . S
C1098 N1099 1.279 . S
C1098 H1139 0.930 . S
N1099 C1097 1.314 . S
N1099 C1098 1.279 . S
C1100 C1102 1.353 . S
C1100 N1103 1.314 . S
C1100 H1106 0.930 . S
C1101 N1103 1.279 . S
C1101 C1104 1.358 . S
C1101 H1107 0.930 . S
C1102 C1100 1.353 . S
C1102 C1105 1.348 . S
C1102 H1140 0.929 . S
N1103 Li1058 1.990 . S
N1103 C1100 1.314 . S
N1103 C1101 1.279 . S
C1104 C1101 1.358 . S
C1104 C1105 1.356 . S
C1104 H1141 0.930 . S
C1105 C1102 1.348 . S
C1105 C1104 1.356 . S
H1106 C1100 0.930 . S
H1107 C1101 0.930 . S
C1108 N1109 1.314 . S
C1108 C1110 1.353 . S
C1108 H1114 0.930 . S
N1109 Li1059 1.990 . S
N1109 C1108 1.314 . S
N1109 C1112 1.279 . S
C1110 C1108 1.353 . S
C1110 C1113 1.348 . S
C1110 H1142 0.929 . S
C1111 C1112 1.358 . S
C1111 C1113 1.356 . S
C1111 H1143 0.930 . S
C1112 N1109 1.279 . S
C1112 C1111 1.358 . S
C1112 H1115 0.930 . S
C1113 C1110 1.348 . S
C1113 C1111 1.356 . S
H1114 C1108 0.930 . S
H1115 C1112 0.930 . S
O1116 Li1056 1.956 . S
O1116 Li1057 1.970 . S
O1116 Li1058 1.961 . S
O1116 C1060 1.325 . S
O1117 Li1056 1.970 . S
O1117 Li1057 1.956 . S
O1117 Li1059 1.961 . S
O1117 C1066 1.325 . S
O1118 Li1056 1.961 . S
O1118 Li1058 1.956 . S
O1118 Li1059 1.970 . S
O1118 C1088 1.325 . S
O1119 Li1057 1.961 . S
O1119 Li1058 1.970 . S
O1119 Li1059 1.956 . S
O1119 C1094 1.325 . S
H1120 C1062 0.929 . S
H1121 C1063 0.930 . S
H1122 C1064 0.930 . S
H1123 C1065 0.930 . S
H1124 C1067 0.930 . S
H1125 C1069 0.929 . S
H1126 C1070 0.930 . S
H1127 C1071 0.930 . S
H1128 C1074 0.930 . S
H1129 C1077 0.929 . S
H1130 C1082 0.929 . S
H1131 C1083 0.930 . S
H1132 C1090 0.929 . S
H1133 C1091 0.930 . S
H1134 C1092 0.930 . S
H1135 C1093 0.930 . S
H1136 C1095 0.929 . S
H1137 C1096 0.930 . S
H1138 C1097 0.930 . S
H1139 C1098 0.930 . S
H1140 C1102 0.929 . S
H1141 C1104 0.930 . S
H1142 C1110 0.929 . S
H1143 C1111 0.930 . S
Li1144 N1161 1.994 . S
Li1144 O1204 1.998 . S
Li1144 O1205 1.926 1_455 S
Li1144 O1206 1.958 1_455 S
Li1145 N1169 1.993 . S
Li1145 O1204 1.939 1_655 S
Li1145 O1205 1.986 . S
Li1145 O1207 1.958 1_655 S
Li1146 N1191 1.990 . S
Li1146 O1204 1.961 . S
Li1146 O1206 1.931 1_455 S
Li1146 O1207 2.005 . S
Li1147 N1197 1.990 . S
Li1147 O1205 1.961 . S
Li1147 O1206 1.994 . S
Li1147 O1207 1.919 1_655 S
C1148 C1150 1.348 . S
C1148 C1151 1.356 . S
C1148 O1204 1.325 . S
N1149 C1152 1.314 . S
N1149 C1153 1.279 . S
C1150 C1148 1.348 . S
C1150 C1152 1.353 . S
C1150 H1208 0.929 . S
C1151 C1148 1.356 . S
C1151 C1153 1.358 . S
C1151 H1209 0.930 . S
C1152 N1149 1.314 . S
C1152 C1150 1.353 . S
C1152 H1210 0.930 . S
C1153 N1149 1.279 . S
C1153 C1151 1.358 . S
C1153 H1211 0.930 . S
C1154 C1157 1.348 . S
C1154 C1158 1.356 . S
C1154 O1205 1.325 . S
C1155 N1156 1.279 . S
C1155 C1158 1.358 . S
C1155 H1212 0.930 . S
N1156 C1155 1.279 . S
N1156 C1159 1.314 . S
C1157 C1154 1.348 . S
C1157 C1159 1.353 . S
C1157 H1213 0.929 . S
C1158 C1154 1.356 . S
C1158 C1155 1.358 . S
C1158 H1214 0.930 . S
C1159 N1156 1.314 . S
C1159 C1157 1.353 . S
C1159 H1215 0.930 . S
C1160 N1161 1.314 1_655 S
C1160 C1165 1.353 . S
C1160 H1166 0.930 . S
N1161 Li1144 1.994 . S
N1161 C1160 1.314 1_455 S
N1161 C1163 1.279 . S
C1162 C1163 1.358 . S
C1162 C1164 1.356 . S
C1162 H1216 0.930 . S
C1163 N1161 1.279 . S
C1163 C1162 1.358 . S
C1163 H1167 0.930 . S
C1164 C1162 1.356 . S
C1164 C1165 1.348 1_455 S
C1165 C1160 1.353 . S
C1165 C1164 1.348 1_655 S
C1165 H1217 0.929 . S
H1166 C1160 0.930 . S
H1167 C1163 0.930 . S
C1168 N1169 1.314 1_455 S
C1168 C1170 1.353 . S
C1168 H1174 0.930 . S
N1169 Li1145 1.993 . S
N1169 C1168 1.314 1_655 S
N1169 C1172 1.279 . S
C1170 C1168 1.353 . S
C1170 C1173 1.348 . S
C1170 H1218 0.929 . S
C1171 C1172 1.358 . S
C1171 C1173 1.356 1_655 S
C1171 H1219 0.930 . S
C1172 N1169 1.279 . S
C1172 C1171 1.358 . S
C1172 H1175 0.930 . S
C1173 C1170 1.348 . S
C1173 C1171 1.356 1_455 S
H1174 C1168 0.930 . S
H1175 C1172 0.930 . S
C1176 C1178 1.348 1_455 S
C1176 C1179 1.356 . S
C1176 O1206 1.324 1_455 S
N1177 C1180 1.314 1_455 S
N1177 C1181 1.279 . S
C1178 C1176 1.348 1_655 S
C1178 C1180 1.353 . S
C1178 H1220 0.929 . S
C1179 C1176 1.356 . S
C1179 C1181 1.358 . S
C1179 H1221 0.930 . S
C1180 N1177 1.314 1_655 S
C1180 C1178 1.353 . S
C1180 H1222 0.930 . S
C1181 N1177 1.279 . S
C1181 C1179 1.358 . S
C1181 H1223 0.930 . S
C1182 C1183 1.348 . S
C1182 C1184 1.356 1_455 S
C1182 O1207 1.324 . S
C1183 C1182 1.348 . S
C1183 C1185 1.353 . S
C1183 H1224 0.929 . S
C1184 C1182 1.356 1_655 S
C1184 C1186 1.358 . S
C1184 H1225 0.930 . S
C1185 C1183 1.353 . S
C1185 N1187 1.314 1_455 S
C1185 H1226 0.930 . S
C1186 C1184 1.358 . S
C1186 N1187 1.279 . S
C1186 H1227 0.930 . S
N1187 C1185 1.314 1_655 S
N1187 C1186 1.279 . S
C1188 C1190 1.353 . S
C1188 N1191 1.314 . S
C1188 H1194 0.930 . S
C1189 N1191 1.279 . S
C1189 C1192 1.358 . S
C1189 H1195 0.930 . S
C1190 C1188 1.353 . S
C1190 C1193 1.348 . S
C1190 H1228 0.929 . S
N1191 Li1146 1.990 . S
N1191 C1188 1.314 . S
N1191 C1189 1.279 . S
C1192 C1189 1.358 . S
C1192 C1193 1.356 . S
C1192 H1229 0.930 . S
C1193 C1190 1.348 . S
C1193 C1192 1.356 . S
H1194 C1188 0.930 . S
H1195 C1189 0.930 . S
C1196 N1197 1.314 . S
C1196 C1198 1.353 . S
C1196 H1202 0.930 . S
N1197 Li1147 1.990 . S
N1197 C1196 1.314 . S
N1197 C1200 1.279 . S
C1198 C1196 1.353 . S
C1198 C1201 1.348 . S
C1198 H1230 0.929 . S
C1199 C1200 1.358 . S
C1199 C1201 1.356 . S
C1199 H1231 0.930 . S
C1200 N1197 1.279 . S
C1200 C1199 1.358 . S
C1200 H1203 0.930 . S
C1201 C1198 1.348 . S
C1201 C1199 1.356 . S
H1202 C1196 0.930 . S
H1203 C1200 0.930 . S
O1204 Li1144 1.998 . S
O1204 Li1145 1.939 1_455 S
O1204 Li1146 1.961 . S
O1204 C1148 1.325 . S
O1205 Li1144 1.926 1_655 S
O1205 Li1145 1.986 . S
O1205 Li1147 1.961 . S
O1205 C1154 1.325 . S
O1206 Li1144 1.958 1_655 S
O1206 Li1146 1.931 1_655 S
O1206 Li1147 1.994 . S
O1206 C1176 1.324 1_655 S
O1207 Li1145 1.958 1_455 S
O1207 Li1146 2.005 . S
O1207 Li1147 1.919 1_455 S
O1207 C1182 1.324 . S
H1208 C1150 0.929 . S
H1209 C1151 0.930 . S
H1210 C1152 0.930 . S
H1211 C1153 0.930 . S
H1212 C1155 0.930 . S
H1213 C1157 0.929 . S
H1214 C1158 0.930 . S
H1215 C1159 0.930 . S
H1216 C1162 0.930 . S
H1217 C1165 0.929 . S
H1218 C1170 0.929 . S
H1219 C1171 0.930 . S
H1220 C1178 0.929 . S
H1221 C1179 0.930 . S
H1222 C1180 0.930 . S
H1223 C1181 0.930 . S
H1224 C1183 0.929 . S
H1225 C1184 0.930 . S
H1226 C1185 0.930 . S
H1227 C1186 0.930 . S
H1228 C1190 0.929 . S
H1229 C1192 0.930 . S
H1230 C1198 0.929 . S
H1231 C1199 0.930 . S
Li1232 N1249 1.990 . S
Li1232 O1292 1.956 . S
Li1232 O1293 1.970 . S
Li1232 O1294 1.961 . S
Li1233 N1257 1.990 . S
Li1233 O1292 1.970 . S
Li1233 O1293 1.956 . S
Li1233 O1295 1.961 . S
Li1234 N1279 1.990 . S
Li1234 O1292 1.961 . S
Li1234 O1294 1.956 . S
Li1234 O1295 1.970 . S
Li1235 N1285 1.990 . S
Li1235 O1293 1.961 . S
Li1235 O1294 1.970 . S
Li1235 O1295 1.956 . S
C1236 C1238 1.348 . S
C1236 C1239 1.356 . S
C1236 O1292 1.325 . S
N1237 C1240 1.314 . S
N1237 C1241 1.279 . S
C1238 C1236 1.348 . S
C1238 C1240 1.353 . S
C1238 H1296 0.929 . S
C1239 C1236 1.356 . S
C1239 C1241 1.358 . S
C1239 H1297 0.930 . S
C1240 N1237 1.314 . S
C1240 C1238 1.353 . S
C1240 H1298 0.930 . S
C1241 N1237 1.279 . S
C1241 C1239 1.358 . S
C1241 H1299 0.930 . S
C1242 C1245 1.348 . S
C1242 C1246 1.356 . S
C1242 O1293 1.325 . S
C1243 N1244 1.279 . S
C1243 C1246 1.358 . S
C1243 H1300 0.930 . S
N1244 C1243 1.279 . S
N1244 C1247 1.314 . S
C1245 C1242 1.348 . S
C1245 C1247 1.353 . S
C1245 H1301 0.929 . S
C1246 C1242 1.356 . S
C1246 C1243 1.358 . S
C1246 H1302 0.930 . S
C1247 N1244 1.314 . S
C1247 C1245 1.353 . S
C1247 H1303 0.930 . S
C1248 N1249 1.314 . S
C1248 C1253 1.353 . S
C1248 H1254 0.930 . S
N1249 Li1232 1.990 . S
N1249 C1248 1.314 . S
N1249 C1251 1.279 . S
C1250 C1251 1.358 . S
C1250 C1252 1.356 . S
C1250 H1304 0.930 . S
C1251 N1249 1.279 . S
C1251 C1250 1.358 . S
C1251 H1255 0.930 . S
C1252 C1250 1.356 . S
C1252 C1253 1.348 . S
C1253 C1248 1.353 . S
C1253 C1252 1.348 . S
C1253 H1305 0.929 . S
H1254 C1248 0.930 . S
H1255 C1251 0.930 . S
C1256 N1257 1.314 . S
C1256 C1258 1.353 . S
C1256 H1262 0.930 . S
N1257 Li1233 1.990 . S
N1257 C1256 1.314 . S
N1257 C1260 1.279 . S
C1258 C1256 1.353 . S
C1258 C1261 1.348 . S
C1258 H1306 0.929 . S
C1259 C1260 1.358 . S
C1259 C1261 1.356 . S
C1259 H1307 0.930 . S
C1260 N1257 1.279 . S
C1260 C1259 1.358 . S
C1260 H1263 0.930 . S
C1261 C1258 1.348 . S
C1261 C1259 1.356 . S
H1262 C1256 0.930 . S
H1263 C1260 0.930 . S
C1264 C1266 1.348 . S
C1264 C1267 1.356 . S
C1264 O1294 1.325 . S
N1265 C1268 1.314 . S
N1265 C1269 1.279 . S
C1266 C1264 1.348 . S
C1266 C1268 1.353 . S
C1266 H1308 0.929 . S
C1267 C1264 1.356 . S
C1267 C1269 1.358 . S
C1267 H1309 0.930 . S
C1268 N1265 1.314 . S
C1268 C1266 1.353 . S
C1268 H1310 0.930 . S
C1269 N1265 1.279 . S
C1269 C1267 1.358 . S
C1269 H1311 0.930 . S
C1270 C1271 1.348 . S
C1270 C1272 1.356 . S
C1270 O1295 1.325 . S
C1271 C1270 1.348 . S
C1271 C1273 1.353 . S
C1271 H1312 0.929 . S
C1272 C1270 1.356 . S
C1272 C1274 1.358 . S
C1272 H1313 0.930 . S
C1273 C1271 1.353 . S
C1273 N1275 1.314 . S
C1273 H1314 0.930 . S
C1274 C1272 1.358 . S
C1274 N1275 1.279 . S
C1274 H1315 0.930 . S
N1275 C1273 1.314 . S
N1275 C1274 1.279 . S
C1276 C1278 1.353 . S
C1276 N1279 1.314 . S
C1276 H1282 0.930 . S
C1277 N1279 1.279 . S
C1277 C1280 1.358 . S
C1277 H1283 0.930 . S
C1278 C1276 1.353 . S
C1278 C1281 1.348 . S
C1278 H1316 0.929 . S
N1279 Li1234 1.990 . S
N1279 C1276 1.314 . S
N1279 C1277 1.279 . S
C1280 C1277 1.358 . S
C1280 C1281 1.356 . S
C1280 H1317 0.930 . S
C1281 C1278 1.348 . S
C1281 C1280 1.356 . S
H1282 C1276 0.930 . S
H1283 C1277 0.930 . S
C1284 N1285 1.314 . S
C1284 C1286 1.353 . S
C1284 H1290 0.930 . S
N1285 Li1235 1.990 . S
N1285 C1284 1.314 . S
N1285 C1288 1.279 . S
C1286 C1284 1.353 . S
C1286 C1289 1.348 . S
C1286 H1318 0.929 . S
C1287 C1288 1.358 . S
C1287 C1289 1.356 . S
C1287 H1319 0.930 . S
C1288 N1285 1.279 . S
C1288 C1287 1.358 . S
C1288 H1291 0.930 . S
C1289 C1286 1.348 . S
C1289 C1287 1.356 . S
H1290 C1284 0.930 . S
H1291 C1288 0.930 . S
O1292 Li1232 1.956 . S
O1292 Li1233 1.970 . S
O1292 Li1234 1.961 . S
O1292 C1236 1.325 . S
O1293 Li1232 1.970 . S
O1293 Li1233 1.956 . S
O1293 Li1235 1.961 . S
O1293 C1242 1.325 . S
O1294 Li1232 1.961 . S
O1294 Li1234 1.956 . S
O1294 Li1235 1.970 . S
O1294 C1264 1.325 . S
O1295 Li1233 1.961 . S
O1295 Li1234 1.970 . S
O1295 Li1235 1.956 . S
O1295 C1270 1.325 . S
H1296 C1238 0.929 . S
H1297 C1239 0.930 . S
H1298 C1240 0.930 . S
H1299 C1241 0.930 . S
H1300 C1243 0.930 . S
H1301 C1245 0.929 . S
H1302 C1246 0.930 . S
H1303 C1247 0.930 . S
H1304 C1250 0.930 . S
H1305 C1253 0.929 . S
H1306 C1258 0.929 . S
H1307 C1259 0.930 . S
H1308 C1266 0.929 . S
H1309 C1267 0.930 . S
H1310 C1268 0.930 . S
H1311 C1269 0.930 . S
H1312 C1271 0.929 . S
H1313 C1272 0.930 . S
H1314 C1273 0.930 . S
H1315 C1274 0.930 . S
H1316 C1278 0.929 . S
H1317 C1280 0.930 . S
H1318 C1286 0.929 . S
H1319 C1287 0.930 . S
Li1320 N1337 1.990 . S
Li1320 O1380 1.931 1_455 S
Li1320 O1381 2.005 . S
Li1320 O1382 1.961 . S
Li1321 N1345 1.990 . S
Li1321 O1380 1.994 . S
Li1321 O1381 1.919 1_655 S
Li1321 O1383 1.961 . S
Li1322 N1367 1.994 . S
Li1322 O1380 1.958 1_455 S
Li1322 O1382 1.998 . S
Li1322 O1383 1.926 1_455 S
Li1323 N1373 1.993 . S
Li1323 O1381 1.958 1_655 S
Li1323 O1382 1.939 1_655 S
Li1323 O1383 1.986 . S
C1324 C1326 1.348 1_455 S
C1324 C1327 1.356 . S
C1324 O1380 1.324 1_455 S
N1325 C1328 1.314 1_455 S
N1325 C1329 1.279 . S
C1326 C1324 1.348 1_655 S
C1326 C1328 1.353 1_556 S
C1326 H1384 0.929 . S
C1327 C1324 1.356 . S
C1327 C1329 1.358 1_556 S
C1327 H1385 0.930 . S
C1328 N1325 1.314 1_655 S
C1328 C1326 1.353 1_554 S
C1328 H1386 0.930 . S
C1329 N1325 1.279 . S
C1329 C1327 1.358 1_554 S
C1329 H1387 0.930 . S
C1330 C1333 1.348 . S
C1330 C1334 1.356 1_455 S
C1330 O1381 1.324 . S
C1331 N1332 1.279 . S
C1331 C1334 1.358 . S
C1331 H1388 0.930 . S
N1332 C1331 1.279 . S
N1332 C1335 1.314 1_655 S
C1333 C1330 1.348 . S
C1333 C1335 1.353 . S
C1333 H1389 0.929 . S
C1334 C1330 1.356 1_655 S
C1334 C1331 1.358 . S
C1334 H1390 0.930 . S
C1335 N1332 1.314 1_455 S
C1335 C1333 1.353 . S
C1335 H1391 0.930 . S
C1336 N1337 1.314 . S
C1336 C1341 1.353 . S
C1336 H1342 0.930 . S
N1337 Li1320 1.990 . S
N1337 C1336 1.314 . S
N1337 C1339 1.279 . S
C1338 C1339 1.358 . S
C1338 C1340 1.356 . S
C1338 H1392 0.930 . S
C1339 N1337 1.279 . S
C1339 C1338 1.358 . S
C1339 H1343 0.930 . S
C1340 C1338 1.356 . S
C1340 C1341 1.348 . S
C1341 C1336 1.353 . S
C1341 C1340 1.348 . S
C1341 H1393 0.929 . S
H1342 C1336 0.930 . S
H1343 C1339 0.930 . S
C1344 N1345 1.314 . S
C1344 C1346 1.353 . S
C1344 H1350 0.930 . S
N1345 Li1321 1.990 . S
N1345 C1344 1.314 . S
N1345 C1348 1.279 . S
C1346 C1344 1.353 . S
C1346 C1349 1.348 . S
C1346 H1394 0.929 . S
C1347 C1348 1.358 . S
C1347 C1349 1.356 . S
C1347 H1395 0.930 . S
C1348 N1345 1.279 . S
C1348 C1347 1.358 . S
C1348 H1351 0.930 . S
C1349 C1346 1.348 . S
C1349 C1347 1.356 . S
H1350 C1344 0.930 . S
H1351 C1348 0.930 . S
C1352 C1354 1.348 . S
C1352 C1355 1.356 . S
C1352 O1382 1.325 . S
N1353 C1356 1.314 . S
N1353 C1357 1.279 . S
C1354 C1352 1.348 . S
C1354 C1356 1.353 . S
C1354 H1396 0.929 . S
C1355 C1352 1.356 . S
C1355 C1357 1.358 . S
C1355 H1397 0.930 . S
C1356 N1353 1.314 . S
C1356 C1354 1.353 . S
C1356 H1398 0.930 . S
C1357 N1353 1.279 . S
C1357 C1355 1.358 . S
C1357 H1399 0.930 . S
C1358 C1359 1.348 . S
C1358 C1360 1.356 . S
C1358 O1383 1.325 . S
C1359 C1358 1.348 . S
C1359 C1361 1.353 . S
C1359 H1400 0.929 . S
C1360 C1358 1.356 . S
C1360 C1362 1.358 . S
C1360 H1401 0.930 . S
C1361 C1359 1.353 . S
C1361 N1363 1.314 . S
C1361 H1402 0.930 . S
C1362 C1360 1.358 . S
C1362 N1363 1.279 . S
C1362 H1403 0.930 . S
N1363 C1361 1.314 . S
N1363 C1362 1.279 . S
C1364 C1366 1.353 1_556 S
C1364 N1367 1.314 1_655 S
C1364 H1370 0.930 . S
C1365 N1367 1.279 . S
C1365 C1368 1.358 . S
C1365 H1371 0.930 . S
C1366 C1364 1.353 1_554 S
C1366 C1369 1.348 1_655 S
C1366 H1404 0.929 . S
N1367 Li1322 1.994 . S
N1367 C1364 1.314 1_455 S
N1367 C1365 1.279 . S
C1368 C1365 1.358 . S
C1368 C1369 1.356 1_556 S
C1368 H1405 0.930 . S
C1369 C1366 1.348 1_455 S
C1369 C1368 1.356 1_554 S
H1370 C1364 0.930 . S
H1371 C1365 0.930 . S
C1372 N1373 1.314 1_455 S
C1372 C1374 1.353 . S
C1372 H1378 0.930 . S
N1373 Li1323 1.993 . S
N1373 C1372 1.314 1_655 S
N1373 C1376 1.279 . S
C1374 C1372 1.353 . S
C1374 C1377 1.348 . S
C1374 H1406 0.929 . S
C1375 C1376 1.358 . S
C1375 C1377 1.356 1_655 S
C1375 H1407 0.930 . S
C1376 N1373 1.279 . S
C1376 C1375 1.358 . S
C1376 H1379 0.930 . S
C1377 C1374 1.348 . S
C1377 C1375 1.356 1_455 S
H1378 C1372 0.930 . S
H1379 C1376 0.930 . S
O1380 Li1320 1.931 1_655 S
O1380 Li1321 1.994 . S
O1380 Li1322 1.958 1_655 S
O1380 C1324 1.324 1_655 S
O1381 Li1320 2.005 . S
O1381 Li1321 1.919 1_455 S
O1381 Li1323 1.958 1_455 S
O1381 C1330 1.324 . S
O1382 Li1320 1.961 . S
O1382 Li1322 1.998 . S
O1382 Li1323 1.939 1_455 S
O1382 C1352 1.325 . S
O1383 Li1321 1.961 . S
O1383 Li1322 1.926 1_655 S
O1383 Li1323 1.986 . S
O1383 C1358 1.325 . S
H1384 C1326 0.929 . S
H1385 C1327 0.930 . S
H1386 C1328 0.930 . S
H1387 C1329 0.930 . S
H1388 C1331 0.930 . S
H1389 C1333 0.929 . S
H1390 C1334 0.930 . S
H1391 C1335 0.930 . S
H1392 C1338 0.930 . S
H1393 C1341 0.929 . S
H1394 C1346 0.929 . S
H1395 C1347 0.930 . S
H1396 C1354 0.929 . S
H1397 C1355 0.930 . S
H1398 C1356 0.930 . S
H1399 C1357 0.930 . S
H1400 C1359 0.929 . S
H1401 C1360 0.930 . S
H1402 C1361 0.930 . S
H1403 C1362 0.930 . S
H1404 C1366 0.929 . S
H1405 C1368 0.930 . S
H1406 C1374 0.929 . S
H1407 C1375 0.930 . S
C1408 C1409 1.391 . S
C1408 C1410 1.394 . S
C1408 H1424 0.931 . S
C1409 C1408 1.391 . S
C1409 C1413 1.376 . S
C1410 C1408 1.394 . S
C1410 C1411 1.369 . S
C1410 C1414 1.531 . S
C1411 C1410 1.369 . S
C1411 C1412 1.410 . S
C1411 C1419 1.503 . S
C1412 C1411 1.410 . S
C1412 C1413 1.392 . S
C1412 C1415 1.511 . S
C1413 C1409 1.376 . S
C1413 C1412 1.392 . S
C1413 H1425 0.929 . S
C1414 C1410 1.531 . S
C1414 H1426 0.960 . S
C1414 H1427 0.962 . S
C1414 H1428 0.960 . S
C1415 C1412 1.511 . S
C1415 H1429 0.961 . S
C1415 H1430 0.961 . S
C1415 H1431 0.961 . S
C1416 C1417 1.370 . S
C1416 C1418 1.363 . S
C1416 H1432 0.931 . S
C1417 C1416 1.370 . S
C1417 C1421 1.408 . S
C1418 C1416 1.363 . S
C1418 C1419 1.370 . S
C1418 C1422 1.524 . S
C1419 C1411 1.503 . S
C1419 C1418 1.370 . S
C1419 C1420 1.403 . S
C1420 C1419 1.403 . S
C1420 C1421 1.404 . S
C1420 C1423 1.539 . S
C1421 C1417 1.408 . S
C1421 C1420 1.404 . S
C1421 H1433 0.930 . S
C1422 C1418 1.524 . S
C1422 H1434 0.956 . S
C1422 H1435 0.961 . S
C1422 H1436 0.961 . S
C1423 C1420 1.539 . S
C1423 H1437 0.958 . S
C1423 H1438 0.961 . S
C1423 H1439 0.960 . S
H1424 C1408 0.931 . S
H1425 C1413 0.929 . S
H1426 C1414 0.960 . S
H1427 C1414 0.962 . S
H1428 C1414 0.960 . S
H1429 C1415 0.961 . S
H1430 C1415 0.961 . S
H1431 C1415 0.961 . S
H1432 C1416 0.931 . S
H1433 C1421 0.930 . S
H1434 C1422 0.956 . S
H1435 C1422 0.961 . S
H1436 C1422 0.961 . S
H1437 C1423 0.958 . S
H1438 C1423 0.961 . S
H1439 C1423 0.960 . S
C1440 C1441 1.391 . S
C1440 C1442 1.394 . S
C1440 H1456 0.931 . S
C1441 C1440 1.391 . S
C1441 C1445 1.376 . S
C1442 C1440 1.394 . S
C1442 C1443 1.369 . S
C1442 C1446 1.531 . S
C1443 C1442 1.369 . S
C1443 C1444 1.410 . S
C1443 C1451 1.503 . S
C1444 C1443 1.410 . S
C1444 C1445 1.392 . S
C1444 C1447 1.511 . S
C1445 C1441 1.376 . S
C1445 C1444 1.392 . S
C1445 H1457 0.929 . S
C1446 C1442 1.531 . S
C1446 H1458 0.960 . S
C1446 H1459 0.962 . S
C1446 H1460 0.960 . S
C1447 C1444 1.511 . S
C1447 H1461 0.961 . S
C1447 H1462 0.961 . S
C1447 H1463 0.961 . S
C1448 C1449 1.370 . S
C1448 C1450 1.363 . S
C1448 H1464 0.931 . S
C1449 C1448 1.370 . S
C1449 C1453 1.408 . S
C1450 C1448 1.363 . S
C1450 C1451 1.370 . S
C1450 C1454 1.524 . S
C1451 C1443 1.503 . S
C1451 C1450 1.370 . S
C1451 C1452 1.403 . S
C1452 C1451 1.403 . S
C1452 C1453 1.404 . S
C1452 C1455 1.539 . S
C1453 C1449 1.408 . S
C1453 C1452 1.404 . S
C1453 H1465 0.930 . S
C1454 C1450 1.524 . S
C1454 H1466 0.956 . S
C1454 H1467 0.961 . S
C1454 H1468 0.961 . S
C1455 C1452 1.539 . S
C1455 H1469 0.958 . S
C1455 H1470 0.961 . S
C1455 H1471 0.960 . S
H1456 C1440 0.931 . S
H1457 C1445 0.929 . S
H1458 C1446 0.960 . S
H1459 C1446 0.962 . S
H1460 C1446 0.960 . S
H1461 C1447 0.961 . S
H1462 C1447 0.961 . S
H1463 C1447 0.961 . S
H1464 C1448 0.931 . S
H1465 C1453 0.930 . S
H1466 C1454 0.956 . S
H1467 C1454 0.961 . S
H1468 C1454 0.961 . S
H1469 C1455 0.958 . S
H1470 C1455 0.961 . S
H1471 C1455 0.960 . S
C1472 C1473 1.391 . S
C1472 C1474 1.394 . S
C1472 H1488 0.931 . S
C1473 C1472 1.391 . S
C1473 C1477 1.376 . S
C1474 C1472 1.394 . S
C1474 C1475 1.369 . S
C1474 C1478 1.531 . S
C1475 C1474 1.369 . S
C1475 C1476 1.410 . S
C1475 C1483 1.503 . S
C1476 C1475 1.410 . S
C1476 C1477 1.392 . S
C1476 C1479 1.511 . S
C1477 C1473 1.376 . S
C1477 C1476 1.392 . S
C1477 H1489 0.929 . S
C1478 C1474 1.531 . S
C1478 H1490 0.960 . S
C1478 H1491 0.962 . S
C1478 H1492 0.960 . S
C1479 C1476 1.511 . S
C1479 H1493 0.961 . S
C1479 H1494 0.961 . S
C1479 H1495 0.961 . S
C1480 C1481 1.370 . S
C1480 C1482 1.363 . S
C1480 H1496 0.931 . S
C1481 C1480 1.370 . S
C1481 C1485 1.408 . S
C1482 C1480 1.363 . S
C1482 C1483 1.370 . S
C1482 C1486 1.524 . S
C1483 C1475 1.503 . S
C1483 C1482 1.370 . S
C1483 C1484 1.403 . S
C1484 C1483 1.403 . S
C1484 C1485 1.404 . S
C1484 C1487 1.539 . S
C1485 C1481 1.408 . S
C1485 C1484 1.404 . S
C1485 H1497 0.930 . S
C1486 C1482 1.524 . S
C1486 H1498 0.956 . S
C1486 H1499 0.961 . S
C1486 H1500 0.961 . S
C1487 C1484 1.539 . S
C1487 H1501 0.958 . S
C1487 H1502 0.961 . S
C1487 H1503 0.960 . S
H1488 C1472 0.931 . S
H1489 C1477 0.929 . S
H1490 C1478 0.960 . S
H1491 C1478 0.962 . S
H1492 C1478 0.960 . S
H1493 C1479 0.961 . S
H1494 C1479 0.961 . S
H1495 C1479 0.961 . S
H1496 C1480 0.931 . S
H1497 C1485 0.930 . S
H1498 C1486 0.956 . S
H1499 C1486 0.961 . S
H1500 C1486 0.961 . S
H1501 C1487 0.958 . S
H1502 C1487 0.961 . S
H1503 C1487 0.960 . S
C1504 C1505 1.391 . S
C1504 C1506 1.394 . S
C1504 H1520 0.931 . S
C1505 C1504 1.391 . S
C1505 C1509 1.376 1_556 S
C1506 C1504 1.394 . S
C1506 C1507 1.369 . S
C1506 C1510 1.531 . S
C1507 C1506 1.369 . S
C1507 C1508 1.410 . S
C1507 C1515 1.503 . S
C1508 C1507 1.410 . S
C1508 C1509 1.392 1_556 S
C1508 C1511 1.511 1_556 S
C1509 C1505 1.376 1_554 S
C1509 C1508 1.392 1_554 S
C1509 H1521 0.929 . S
C1510 C1506 1.531 . S
C1510 H1522 0.960 . S
C1510 H1523 0.962 . S
C1510 H1524 0.960 . S
C1511 C1508 1.511 1_554 S
C1511 H1525 0.961 . S
C1511 H1526 0.961 . S
C1511 H1527 0.961 1_554 S
C1512 C1513 1.370 . S
C1512 C1514 1.363 . S
C1512 H1528 0.931 . S
C1513 C1512 1.370 . S
C1513 C1517 1.408 . S
C1514 C1512 1.363 . S
C1514 C1515 1.370 . S
C1514 C1518 1.524 . S
C1515 C1507 1.503 . S
C1515 C1514 1.370 . S
C1515 C1516 1.403 . S
C1516 C1515 1.403 . S
C1516 C1517 1.404 . S
C1516 C1519 1.539 . S
C1517 C1513 1.408 . S
C1517 C1516 1.404 . S
C1517 H1529 0.930 . S
C1518 C1514 1.524 . S
C1518 H1530 0.956 . S
C1518 H1531 0.961 1_556 S
C1518 H1532 0.961 . S
C1519 C1516 1.539 . S
C1519 H1533 0.958 . S
C1519 H1534 0.961 . S
C1519 H1535 0.960 . S
H1520 C1504 0.931 . S
H1521 C1509 0.929 . S
H1522 C1510 0.960 . S
H1523 C1510 0.962 . S
H1524 C1510 0.960 . S
H1525 C1511 0.961 . S
H1526 C1511 0.961 . S
H1527 C1511 0.961 1_556 S
H1528 C1512 0.931 . S
H1529 C1517 0.930 . S
H1530 C1518 0.956 . S
H1531 C1518 0.961 1_554 S
H1532 C1518 0.961 . S
H1533 C1519 0.958 . S
H1534 C1519 0.961 . S
H1535 C1519 0.960 . S
C1536 C1537 1.391 . S
C1536 C1538 1.394 . S
C1536 H1552 0.931 . S
C1537 C1536 1.391 . S
C1537 C1541 1.376 . S
C1538 C1536 1.394 . S
C1538 C1539 1.369 . S
C1538 C1542 1.531 . S
C1539 C1538 1.369 . S
C1539 C1540 1.410 . S
C1539 C1547 1.503 . S
C1540 C1539 1.410 . S
C1540 C1541 1.392 . S
C1540 C1543 1.511 . S
C1541 C1537 1.376 . S
C1541 C1540 1.392 . S
C1541 H1553 0.929 . S
C1542 C1538 1.531 . S
C1542 H1554 0.960 . S
C1542 H1555 0.962 1_556 S
C1542 H1556 0.960 . S
C1543 C1540 1.511 . S
C1543 H1557 0.961 . S
C1543 H1558 0.961 . S
C1543 H1559 0.961 . S
C1544 C1545 1.370 . S
C1544 C1546 1.363 . S
C1544 H1560 0.931 1_556 S
C1545 C1544 1.370 . S
C1545 C1549 1.408 . S
C1546 C1544 1.363 . S
C1546 C1547 1.370 . S
C1546 C1550 1.524 . S
C1547 C1539 1.503 . S
C1547 C1546 1.370 . S
C1547 C1548 1.403 . S
C1548 C1547 1.403 . S
C1548 C1549 1.404 . S
C1548 C1551 1.539 . S
C1549 C1545 1.408 . S
C1549 C1548 1.404 . S
C1549 H1561 0.930 . S
C1550 C1546 1.524 . S
C1550 H1562 0.969 . S
C1550 H1563 0.961 . S
C1550 H1564 0.971 . S
C1551 C1548 1.539 . S
C1551 H1565 0.958 . S
C1551 H1566 0.961 . S
C1551 H1567 0.960 . S
H1552 C1536 0.931 . S
H1553 C1541 0.929 . S
H1554 C1542 0.960 . S
H1555 C1542 0.962 1_554 S
H1556 C1542 0.960 . S
H1557 C1543 0.961 . S
H1558 C1543 0.961 . S
H1559 C1543 0.961 . S
H1560 C1544 0.931 1_554 S
H1561 C1549 0.930 . S
H1562 C1550 0.969 . S
H1563 C1550 0.961 . S
H1564 C1550 0.971 . S
H1565 C1551 0.958 . S
H1566 C1551 0.961 . S
H1567 C1551 0.960 . S
C1568 C1569 1.391 . S
C1568 C1570 1.394 . S
C1568 H1584 0.931 . S
C1569 C1568 1.391 . S
C1569 C1573 1.376 . S
C1570 C1568 1.394 . S
C1570 C1571 1.369 . S
C1570 C1574 1.531 . S
C1571 C1570 1.369 . S
C1571 C1572 1.410 . S
C1571 C1579 1.503 . S
C1572 C1571 1.410 . S
C1572 C1573 1.392 . S
C1572 C1575 1.511 . S
C1573 C1569 1.376 . S
C1573 C1572 1.392 . S
C1573 H1585 0.929 . S
C1574 C1570 1.531 . S
C1574 H1586 0.960 . S
C1574 H1587 0.962 . S
C1574 H1588 0.960 . S
C1575 C1572 1.511 . S
C1575 H1589 0.961 . S
C1575 H1590 0.961 . S
C1575 H1591 0.961 . S
C1576 C1577 1.370 . S
C1576 C1578 1.363 . S
C1576 H1592 0.931 . S
C1577 C1576 1.370 . S
C1577 C1581 1.408 . S
C1578 C1576 1.363 . S
C1578 C1579 1.370 . S
C1578 C1582 1.524 . S
C1579 C1571 1.503 . S
C1579 C1578 1.370 . S
C1579 C1580 1.403 . S
C1580 C1579 1.403 . S
C1580 C1581 1.404 . S
C1580 C1583 1.539 . S
C1581 C1577 1.408 . S
C1581 C1580 1.404 . S
C1581 H1593 0.930 . S
C1582 C1578 1.524 . S
C1582 H1594 0.956 . S
C1582 H1595 0.961 . S
C1582 H1596 0.961 . S
C1583 C1580 1.539 . S
C1583 H1597 0.958 . S
C1583 H1598 0.961 . S
C1583 H1599 0.960 . S
H1584 C1568 0.931 . S
H1585 C1573 0.929 . S
H1586 C1574 0.960 . S
H1587 C1574 0.962 . S
H1588 C1574 0.960 . S
H1589 C1575 0.961 . S
H1590 C1575 0.961 . S
H1591 C1575 0.961 . S
H1592 C1576 0.931 . S
H1593 C1581 0.930 . S
H1594 C1582 0.956 . S
H1595 C1582 0.961 . S
H1596 C1582 0.961 . S
H1597 C1583 0.958 . S
H1598 C1583 0.961 . S
H1599 C1583 0.960 . S
C1600 C1601 1.391 . S
C1600 C1602 1.394 . S
C1600 H1616 0.931 . S
C1601 C1600 1.391 . S
C1601 C1605 1.376 . S
C1602 C1600 1.394 . S
C1602 C1603 1.369 . S
C1602 C1606 1.531 . S
C1603 C1602 1.369 . S
C1603 C1604 1.410 . S
C1603 C1611 1.503 . S
C1604 C1603 1.410 . S
C1604 C1605 1.392 . S
C1604 C1607 1.511 . S
C1605 C1601 1.376 . S
C1605 C1604 1.392 . S
C1605 H1617 0.929 . S
C1606 C1602 1.531 . S
C1606 H1618 0.960 . S
C1606 H1619 0.962 . S
C1606 H1620 0.960 . S
C1607 C1604 1.511 . S
C1607 H1621 0.961 . S
C1607 H1622 0.961 . S
C1607 H1623 0.961 . S
C1608 C1609 1.370 . S
C1608 C1610 1.363 . S
C1608 H1624 0.931 . S
C1609 C1608 1.370 . S
C1609 C1613 1.408 . S
C1610 C1608 1.363 . S
C1610 C1611 1.370 . S
C1610 C1614 1.524 . S
C1611 C1603 1.503 . S
C1611 C1610 1.370 . S
C1611 C1612 1.403 . S
C1612 C1611 1.403 . S
C1612 C1613 1.404 . S
C1612 C1615 1.539 . S
C1613 C1609 1.408 . S
C1613 C1612 1.404 . S
C1613 H1625 0.930 . S
C1614 C1610 1.524 . S
C1614 H1626 0.956 . S
C1614 H1627 0.961 . S
C1614 H1628 0.961 . S
C1615 C1612 1.539 . S
C1615 H1629 0.958 . S
C1615 H1630 0.961 . S
C1615 H1631 0.960 . S
H1616 C1600 0.931 . S
H1617 C1605 0.929 . S
H1618 C1606 0.960 . S
H1619 C1606 0.962 . S
H1620 C1606 0.960 . S
H1621 C1607 0.961 . S
H1622 C1607 0.961 . S
H1623 C1607 0.961 . S
H1624 C1608 0.931 . S
H1625 C1613 0.930 . S
H1626 C1614 0.956 . S
H1627 C1614 0.961 . S
H1628 C1614 0.961 . S
H1629 C1615 0.958 . S
H1630 C1615 0.961 . S
H1631 C1615 0.960 . S
C1632 C1633 1.391 . S
C1632 C1634 1.394 . S
C1632 H1648 0.931 . S
C1633 C1632 1.391 . S
C1633 C1637 1.376 . S
C1634 C1632 1.394 . S
C1634 C1635 1.369 . S
C1634 C1638 1.531 . S
C1635 C1634 1.369 . S
C1635 C1636 1.410 . S
C1635 C1643 1.503 . S
C1636 C1635 1.410 . S
C1636 C1637 1.392 . S
C1636 C1639 1.511 . S
C1637 C1633 1.376 . S
C1637 C1636 1.392 . S
C1637 H1649 0.929 . S
C1638 C1634 1.531 . S
C1638 H1650 0.960 . S
C1638 H1651 0.962 . S
C1638 H1652 0.960 . S
C1639 C1636 1.511 . S
C1639 H1653 0.961 . S
C1639 H1654 0.961 . S
C1639 H1655 0.961 . S
C1640 C1641 1.370 . S
C1640 C1642 1.363 . S
C1640 H1656 0.931 . S
C1641 C1640 1.370 . S
C1641 C1645 1.408 . S
C1642 C1640 1.363 . S
C1642 C1643 1.370 . S
C1642 C1646 1.524 . S
C1643 C1635 1.503 . S
C1643 C1642 1.370 . S
C1643 C1644 1.403 . S
C1644 C1643 1.403 . S
C1644 C1645 1.404 . S
C1644 C1647 1.539 . S
C1645 C1641 1.408 . S
C1645 C1644 1.404 . S
C1645 H1657 0.930 . S
C1646 C1642 1.524 . S
C1646 H1658 0.956 . S
C1646 H1659 0.961 . S
C1646 H1660 0.961 . S
C1647 C1644 1.539 . S
C1647 H1661 0.958 . S
C1647 H1662 0.961 . S
C1647 H1663 0.960 . S
H1648 C1632 0.931 . S
H1649 C1637 0.929 . S
H1650 C1638 0.960 . S
H1651 C1638 0.962 . S
H1652 C1638 0.960 . S
H1653 C1639 0.961 . S
H1654 C1639 0.961 . S
H1655 C1639 0.961 . S
H1656 C1640 0.931 . S
H1657 C1645 0.930 . S
H1658 C1646 0.956 . S
H1659 C1646 0.961 . S
H1660 C1646 0.961 . S
H1661 C1647 0.958 . S
H1662 C1647 0.961 . S
H1663 C1647 0.960 . S
C1664 C1665 1.391 . S
C1664 C1666 1.394 . S
C1664 H1680 0.931 . S
C1665 C1664 1.391 . S
C1665 C1669 1.376 . S
C1666 C1664 1.394 . S
C1666 C1667 1.369 . S
C1666 C1670 1.531 . S
C1667 C1666 1.369 . S
C1667 C1668 1.410 . S
C1667 C1675 1.503 . S
C1668 C1667 1.410 . S
C1668 C1669 1.392 . S
C1668 C1671 1.511 1_556 S
C1669 C1665 1.376 . S
C1669 C1668 1.392 . S
C1669 H1681 0.929 . S
C1670 C1666 1.531 . S
C1670 H1682 0.960 . S
C1670 H1683 0.962 . S
C1670 H1684 0.960 . S
C1671 C1668 1.511 1_554 S
C1671 H1685 0.961 . S
C1671 H1686 0.961 . S
C1671 H1687 0.961 . S
C1672 C1673 1.370 . S
C1672 C1674 1.363 . S
C1672 H1688 0.931 . S
C1673 C1672 1.370 . S
C1673 C1677 1.408 . S
C1674 C1672 1.363 . S
C1674 C1675 1.370 . S
C1674 C1678 1.524 . S
C1675 C1667 1.503 . S
C1675 C1674 1.370 . S
C1675 C1676 1.403 . S
C1676 C1675 1.403 . S
C1676 C1677 1.404 . S
C1676 C1679 1.539 . S
C1677 C1673 1.408 . S
C1677 C1676 1.404 . S
C1677 H1689 0.930 . S
C1678 C1674 1.524 . S
C1678 H1690 0.956 . S
C1678 H1691 0.961 . S
C1678 H1692 0.961 . S
C1679 C1676 1.539 . S
C1679 H1693 0.958 . S
C1679 H1694 0.961 . S
C1679 H1695 0.960 . S
H1680 C1664 0.931 . S
H1681 C1669 0.929 . S
H1682 C1670 0.960 . S
H1683 C1670 0.962 . S
H1684 C1670 0.960 . S
H1685 C1671 0.961 . S
H1686 C1671 0.961 . S
H1687 C1671 0.961 . S
H1688 C1672 0.931 . S
H1689 C1677 0.930 . S
H1690 C1678 0.956 . S
H1691 C1678 0.961 . S
H1692 C1678 0.961 . S
H1693 C1679 0.958 . S
H1694 C1679 0.961 . S
H1695 C1679 0.960 . S
C1696 C1697 1.391 . S
C1696 C1698 1.394 . S
C1696 H1712 0.931 . S
C1697 C1696 1.391 . S
C1697 C1701 1.376 . S
C1698 C1696 1.394 . S
C1698 C1699 1.369 . S
C1698 C1702 1.531 . S
C1699 C1698 1.369 . S
C1699 C1700 1.410 . S
C1699 C1707 1.503 . S
C1700 C1699 1.410 . S
C1700 C1701 1.392 . S
C1700 C1703 1.511 . S
C1701 C1697 1.376 . S
C1701 C1700 1.392 . S
C1701 H1713 0.929 . S
C1702 C1698 1.531 . S
C1702 H1714 0.960 . S
C1702 H1715 0.962 . S
C1702 H1716 0.960 . S
C1703 C1700 1.511 . S
C1703 H1717 0.961 . S
C1703 H1718 0.961 . S
C1703 H1719 0.961 . S
C1704 C1705 1.370 . S
C1704 C1706 1.363 . S
C1704 H1720 0.931 . S
C1705 C1704 1.370 . S
C1705 C1709 1.408 . S
C1706 C1704 1.363 . S
C1706 C1707 1.370 . S
C1706 C1710 1.524 . S
C1707 C1699 1.503 . S
C1707 C1706 1.370 . S
C1707 C1708 1.403 . S
C1708 C1707 1.403 . S
C1708 C1709 1.404 . S
C1708 C1711 1.539 . S
C1709 C1705 1.408 . S
C1709 C1708 1.404 . S
C1709 H1721 0.930 . S
C1710 C1706 1.524 . S
C1710 H1722 0.956 . S
C1710 H1723 0.961 . S
C1710 H1724 0.961 . S
C1711 C1708 1.539 . S
C1711 H1725 0.958 . S
C1711 H1726 0.961 . S
C1711 H1727 0.960 . S
H1712 C1696 0.931 . S
H1713 C1701 0.929 . S
H1714 C1702 0.960 . S
H1715 C1702 0.962 . S
H1716 C1702 0.960 . S
H1717 C1703 0.961 . S
H1718 C1703 0.961 . S
H1719 C1703 0.961 . S
H1720 C1704 0.931 . S
H1721 C1709 0.930 . S
H1722 C1710 0.956 . S
H1723 C1710 0.961 . S
H1724 C1710 0.961 . S
H1725 C1711 0.958 . S
H1726 C1711 0.961 . S
H1727 C1711 0.960 . S
C1728 C1729 1.391 . S
C1728 C1730 1.394 . S
C1728 H1744 0.931 . S
C1729 C1728 1.391 . S
C1729 C1733 1.376 . S
C1730 C1728 1.394 . S
C1730 C1731 1.369 . S
C1730 C1734 1.531 . S
C1731 C1730 1.369 . S
C1731 C1732 1.410 . S
C1731 C1739 1.503 . S
C1732 C1731 1.410 . S
C1732 C1733 1.392 . S
C1732 C1735 1.511 . S
C1733 C1729 1.376 . S
C1733 C1732 1.392 . S
C1733 H1745 0.929 . S
C1734 C1730 1.531 . S
C1734 H1746 0.960 . S
C1734 H1747 0.962 . S
C1734 H1748 0.960 . S
C1735 C1732 1.511 . S
C1735 H1749 0.961 . S
C1735 H1750 0.961 . S
C1735 H1751 0.961 . S
C1736 C1737 1.370 . S
C1736 C1738 1.363 . S
C1736 H1752 0.931 . S
C1737 C1736 1.370 . S
C1737 C1741 1.408 . S
C1738 C1736 1.363 . S
C1738 C1739 1.370 . S
C1738 C1742 1.524 . S
C1739 C1731 1.503 . S
C1739 C1738 1.370 . S
C1739 C1740 1.403 . S
C1740 C1739 1.403 . S
C1740 C1741 1.404 . S
C1740 C1743 1.539 . S
C1741 C1737 1.408 . S
C1741 C1740 1.404 . S
C1741 H1753 0.930 . S
C1742 C1738 1.524 . S
C1742 H1754 0.956 . S
C1742 H1755 0.961 . S
C1742 H1756 0.961 . S
C1743 C1740 1.539 . S
C1743 H1757 0.958 . S
C1743 H1758 0.961 . S
C1743 H1759 0.960 . S
H1744 C1728 0.931 . S
H1745 C1733 0.929 . S
H1746 C1734 0.960 . S
H1747 C1734 0.962 . S
H1748 C1734 0.960 . S
H1749 C1735 0.961 . S
H1750 C1735 0.961 . S
H1751 C1735 0.961 . S
H1752 C1736 0.931 . S
H1753 C1741 0.930 . S
H1754 C1742 0.956 . S
H1755 C1742 0.961 . S
H1756 C1742 0.961 . S
H1757 C1743 0.958 . S
H1758 C1743 0.961 . S
H1759 C1743 0.960 . S
C1760 C1761 1.391 . S
C1760 C1762 1.394 . S
C1760 H1776 0.931 . S
C1761 C1760 1.391 . S
C1761 C1765 1.376 . S
C1762 C1760 1.394 . S
C1762 C1763 1.369 . S
C1762 C1766 1.531 . S
C1763 C1762 1.369 . S
C1763 C1764 1.410 . S
C1763 C1771 1.503 . S
C1764 C1763 1.410 . S
C1764 C1765 1.392 . S
C1764 C1767 1.511 . S
C1765 C1761 1.376 . S
C1765 C1764 1.392 . S
C1765 H1777 0.929 . S
C1766 C1762 1.531 . S
C1766 H1778 0.960 . S
C1766 H1779 0.962 . S
C1766 H1780 0.960 . S
C1767 C1764 1.511 . S
C1767 H1781 0.961 . S
C1767 H1782 0.961 . S
C1767 H1783 0.961 . S
C1768 C1769 1.370 . S
C1768 C1770 1.363 . S
C1768 H1784 0.931 . S
C1769 C1768 1.370 . S
C1769 C1773 1.408 . S
C1770 C1768 1.363 . S
C1770 C1771 1.370 . S
C1770 C1774 1.524 . S
C1771 C1763 1.503 . S
C1771 C1770 1.370 . S
C1771 C1772 1.403 . S
C1772 C1771 1.403 . S
C1772 C1773 1.404 . S
C1772 C1775 1.539 . S
C1773 C1769 1.408 . S
C1773 C1772 1.404 . S
C1773 H1785 0.930 . S
C1774 C1770 1.524 . S
C1774 H1786 0.956 . S
C1774 H1787 0.961 . S
C1774 H1788 0.961 . S
C1775 C1772 1.539 . S
C1775 H1789 0.958 . S
C1775 H1790 0.961 . S
C1775 H1791 0.960 . S
H1776 C1760 0.931 . S
H1777 C1765 0.929 . S
H1778 C1766 0.960 . S
H1779 C1766 0.962 . S
H1780 C1766 0.960 . S
H1781 C1767 0.961 . S
H1782 C1767 0.961 . S
H1783 C1767 0.961 . S
H1784 C1768 0.931 . S
H1785 C1773 0.930 . S
H1786 C1774 0.956 . S
H1787 C1774 0.961 . S
H1788 C1774 0.961 . S
H1789 C1775 0.958 . S
H1790 C1775 0.961 . S
H1791 C1775 0.960 . S
C1792 C1793 1.391 . S
C1792 C1794 1.394 . S
C1792 H1808 0.931 . S
C1793 C1792 1.391 . S
C1793 C1797 1.376 . S
C1794 C1792 1.394 . S
C1794 C1795 1.369 . S
C1794 C1798 1.531 . S
C1795 C1794 1.369 . S
C1795 C1796 1.410 . S
C1795 C1803 1.503 . S
C1796 C1795 1.410 . S
C1796 C1797 1.392 . S
C1796 C1799 1.511 . S
C1797 C1793 1.376 . S
C1797 C1796 1.392 . S
C1797 H1809 0.929 . S
C1798 C1794 1.531 . S
C1798 H1810 0.960 . S
C1798 H1811 0.962 . S
C1798 H1812 0.960 . S
C1799 C1796 1.511 . S
C1799 H1813 0.961 . S
C1799 H1814 0.961 . S
C1799 H1815 0.961 . S
C1800 C1801 1.370 . S
C1800 C1802 1.363 . S
C1800 H1816 0.931 . S
C1801 C1800 1.370 . S
C1801 C1805 1.408 . S
C1802 C1800 1.363 . S
C1802 C1803 1.370 . S
C1802 C1806 1.524 . S
C1803 C1795 1.503 . S
C1803 C1802 1.370 . S
C1803 C1804 1.403 . S
C1804 C1803 1.403 . S
C1804 C1805 1.404 . S
C1804 C1807 1.539 . S
C1805 C1801 1.408 . S
C1805 C1804 1.404 . S
C1805 H1817 0.930 . S
C1806 C1802 1.524 . S
C1806 H1818 0.956 . S
C1806 H1819 0.961 . S
C1806 H1820 0.961 . S
C1807 C1804 1.539 . S
C1807 H1821 0.958 . S
C1807 H1822 0.961 . S
C1807 H1823 0.960 . S
H1808 C1792 0.931 . S
H1809 C1797 0.929 . S
H1810 C1798 0.960 . S
H1811 C1798 0.962 . S
H1812 C1798 0.960 . S
H1813 C1799 0.961 . S
H1814 C1799 0.961 . S
H1815 C1799 0.961 . S
H1816 C1800 0.931 . S
H1817 C1805 0.930 . S
H1818 C1806 0.956 . S
H1819 C1806 0.961 . S
H1820 C1806 0.961 . S
H1821 C1807 0.958 . S
H1822 C1807 0.961 . S
H1823 C1807 0.960 . S
C1824 C1825 1.391 . S
C1824 C1826 1.394 . S
C1824 H1840 0.931 . S
C1825 C1824 1.391 . S
C1825 C1829 1.376 . S
C1826 C1824 1.394 . S
C1826 C1827 1.369 . S
C1826 C1830 1.531 . S
C1827 C1826 1.369 . S
C1827 C1828 1.410 . S
C1827 C1835 1.503 . S
C1828 C1827 1.410 . S
C1828 C1829 1.392 . S
C1828 C1831 1.511 . S
C1829 C1825 1.376 . S
C1829 C1828 1.392 . S
C1829 H1841 0.929 . S
C1830 C1826 1.531 . S
C1830 H1842 0.960 . S
C1830 H1843 0.962 . S
C1830 H1844 0.960 . S
C1831 C1828 1.511 . S
C1831 H1845 0.961 . S
C1831 H1846 0.961 . S
C1831 H1847 0.961 . S
C1832 C1833 1.370 1_554 S
C1832 C1834 1.363 1_554 S
C1832 H1848 0.931 . S
C1833 C1832 1.370 1_556 S
C1833 C1837 1.408 . S
C1834 C1832 1.363 1_556 S
C1834 C1835 1.370 . S
C1834 C1838 1.524 1_556 S
C1835 C1827 1.503 . S
C1835 C1834 1.370 . S
C1835 C1836 1.403 . S
C1836 C1835 1.403 . S
C1836 C1837 1.404 . S
C1836 C1839 1.539 . S
C1837 C1833 1.408 . S
C1837 C1836 1.404 . S
C1837 H1849 0.930 . S
C1838 C1834 1.524 1_554 S
C1838 H1850 0.956 . S
C1838 H1851 0.961 . S
C1838 H1852 0.961 . S
C1839 C1836 1.539 . S
C1839 H1853 0.958 . S
C1839 H1854 0.961 . S
C1839 H1855 0.960 . S
H1840 C1824 0.931 . S
H1841 C1829 0.929 . S
H1842 C1830 0.960 . S
H1843 C1830 0.962 . S
H1844 C1830 0.960 . S
H1845 C1831 0.961 . S
H1846 C1831 0.961 . S
H1847 C1831 0.961 . S
H1848 C1832 0.931 . S
H1849 C1837 0.930 . S
H1850 C1838 0.956 . S
H1851 C1838 0.961 . S
H1852 C1838 0.961 . S
H1853 C1839 0.958 . S
H1854 C1839 0.961 . S
H1855 C1839 0.960 . S
C1856 C1857 1.391 . S
C1856 C1858 1.394 . S
C1856 H1872 0.931 . S
C1857 C1856 1.391 . S
C1857 C1861 1.376 . S
C1858 C1856 1.394 . S
C1858 C1859 1.369 . S
C1858 C1862 1.531 . S
C1859 C1858 1.369 . S
C1859 C1860 1.410 . S
C1859 C1867 1.503 . S
C1860 C1859 1.410 . S
C1860 C1861 1.392 . S
C1860 C1863 1.511 . S
C1861 C1857 1.376 . S
C1861 C1860 1.392 . S
C1861 H1873 0.929 . S
C1862 C1858 1.531 . S
C1862 H1874 0.960 . S
C1862 H1875 0.962 . S
C1862 H1876 0.960 . S
C1863 C1860 1.511 . S
C1863 H1877 0.961 . S
C1863 H1878 0.961 . S
C1863 H1879 0.961 . S
C1864 C1865 1.370 . S
C1864 C1866 1.363 . S
C1864 H1880 0.931 . S
C1865 C1864 1.370 . S
C1865 C1869 1.408 . S
C1866 C1864 1.363 . S
C1866 C1867 1.370 . S
C1866 C1870 1.524 . S
C1867 C1859 1.503 . S
C1867 C1866 1.370 . S
C1867 C1868 1.403 . S
C1868 C1867 1.403 . S
C1868 C1869 1.404 . S
C1868 C1871 1.539 . S
C1869 C1865 1.408 . S
C1869 C1868 1.404 . S
C1869 H1881 0.930 . S
C1870 C1866 1.524 . S
C1870 H1882 0.956 . S
C1870 H1883 0.961 . S
C1870 H1884 0.961 . S
C1871 C1868 1.539 . S
C1871 H1885 0.958 . S
C1871 H1886 0.961 . S
C1871 H1887 0.960 . S
H1872 C1856 0.931 . S
H1873 C1861 0.929 . S
H1874 C1862 0.960 . S
H1875 C1862 0.962 . S
H1876 C1862 0.960 . S
H1877 C1863 0.961 . S
H1878 C1863 0.961 . S
H1879 C1863 0.961 . S
H1880 C1864 0.931 . S
H1881 C1869 0.930 . S
H1882 C1870 0.956 . S
H1883 C1870 0.961 . S
H1884 C1870 0.961 . S
H1885 C1871 0.958 . S
H1886 C1871 0.961 . S
H1887 C1871 0.960 . S
C1888 C1889 1.391 . S
C1888 C1890 1.394 . S
C1888 H1904 0.931 . S
C1889 C1888 1.391 . S
C1889 C1893 1.376 . S
C1890 C1888 1.394 . S
C1890 C1891 1.369 . S
C1890 C1894 1.531 . S
C1891 C1890 1.369 . S
C1891 C1892 1.410 . S
C1891 C1899 1.503 . S
C1892 C1891 1.410 . S
C1892 C1893 1.392 . S
C1892 C1895 1.511 . S
C1893 C1889 1.376 . S
C1893 C1892 1.392 . S
C1893 H1905 0.929 . S
C1894 C1890 1.531 . S
C1894 H1906 0.960 . S
C1894 H1907 0.962 . S
C1894 H1908 0.960 . S
C1895 C1892 1.511 . S
C1895 H1909 0.961 . S
C1895 H1910 0.961 . S
C1895 H1911 0.961 . S
C1896 C1897 1.370 . S
C1896 C1898 1.363 . S
C1896 H1912 0.931 . S
C1897 C1896 1.370 . S
C1897 C1901 1.408 . S
C1898 C1896 1.363 . S
C1898 C1899 1.370 . S
C1898 C1902 1.524 . S
C1899 C1891 1.503 . S
C1899 C1898 1.370 . S
C1899 C1900 1.403 . S
C1900 C1899 1.403 . S
C1900 C1901 1.404 . S
C1900 C1903 1.539 . S
C1901 C1897 1.408 . S
C1901 C1900 1.404 . S
C1901 H1913 0.930 . S
C1902 C1898 1.524 . S
C1902 H1914 0.956 . S
C1902 H1915 0.961 . S
C1902 H1916 0.961 . S
C1903 C1900 1.539 . S
C1903 H1917 0.958 . S
C1903 H1918 0.961 . S
C1903 H1919 0.960 . S
H1904 C1888 0.931 . S
H1905 C1893 0.929 . S
H1906 C1894 0.960 . S
H1907 C1894 0.962 . S
H1908 C1894 0.960 . S
H1909 C1895 0.961 . S
H1910 C1895 0.961 . S
H1911 C1895 0.961 . S
H1912 C1896 0.931 . S
H1913 C1901 0.930 . S
H1914 C1902 0.956 . S
H1915 C1902 0.961 . S
H1916 C1902 0.961 . S
H1917 C1903 0.958 . S
H1918 C1903 0.961 . S
H1919 C1903 0.960 . S
C1920 C1921 1.391 1_655 S
C1920 C1922 1.394 . S
C1920 H1936 0.931 . S
C1921 C1920 1.391 1_455 S
C1921 C1925 1.376 . S
C1922 C1920 1.394 . S
C1922 C1923 1.369 1_655 S
C1922 C1926 1.531 . S
C1923 C1922 1.369 1_455 S
C1923 C1924 1.410 . S
C1923 C1931 1.503 . S
C1924 C1923 1.410 . S
C1924 C1925 1.392 . S
C1924 C1927 1.511 . S
C1925 C1921 1.376 . S
C1925 C1924 1.392 . S
C1925 H1937 0.929 . S
C1926 C1922 1.531 . S
C1926 H1938 0.960 . S
C1926 H1939 0.962 . S
C1926 H1940 0.960 . S
C1927 C1924 1.511 . S
C1927 H1941 0.961 . S
C1927 H1942 0.961 . S
C1927 H1943 0.961 . S
C1928 C1929 1.334 1_654 S
C1928 C1930 1.363 . S
C1928 H1944 0.931 . S
C1929 C1928 1.334 1_456 S
C1929 C1933 1.449 . S
C1930 C1928 1.363 . S
C1930 C1931 1.370 1_655 S
C1930 C1934 1.524 . S
C1931 C1923 1.503 . S
C1931 C1930 1.370 1_455 S
C1931 C1932 1.403 . S
C1932 C1931 1.403 . S
C1932 C1933 1.404 1_554 S
C1932 C1935 1.539 . S
C1933 C1929 1.449 . S
C1933 C1932 1.404 1_556 S
C1933 H1945 0.930 . S
C1934 C1930 1.524 . S
C1934 H1946 0.956 . S
C1934 H1947 0.961 . S
C1934 H1948 0.961 . S
C1935 C1932 1.539 . S
C1935 H1949 0.958 . S
C1935 H1950 0.961 1_554 S
C1935 H1951 0.960 . S
H1936 C1920 0.931 . S
H1937 C1925 0.929 . S
H1938 C1926 0.960 . S
H1939 C1926 0.962 . S
H1940 C1926 0.960 . S
H1941 C1927 0.961 . S
H1942 C1927 0.961 . S
H1943 C1927 0.961 . S
H1944 C1928 0.931 . S
H1945 C1933 0.930 . S
H1946 C1934 0.956 . S
H1947 C1934 0.961 . S
H1948 C1934 0.961 . S
H1949 C1935 0.958 . S
H1950 C1935 0.961 1_556 S
H1951 C1935 0.960 . S
C1952 C1953 1.391 . S
C1952 C1954 1.394 . S
C1952 H1968 0.931 . S
C1953 C1952 1.391 . S
C1953 C1957 1.376 . S
C1954 C1952 1.394 . S
C1954 C1955 1.369 . S
C1954 C1958 1.531 . S
C1955 C1954 1.369 . S
C1955 C1956 1.410 . S
C1955 C1963 1.503 . S
C1956 C1955 1.410 . S
C1956 C1957 1.392 . S
C1956 C1959 1.511 . S
C1957 C1953 1.376 . S
C1957 C1956 1.392 . S
C1957 H1969 0.929 . S
C1958 C1954 1.531 . S
C1958 H1970 0.960 . S
C1958 H1971 0.962 . S
C1958 H1972 0.960 . S
C1959 C1956 1.511 . S
C1959 H1973 0.961 . S
C1959 H1974 0.961 . S
C1959 H1975 0.961 . S
C1960 C1961 1.370 . S
C1960 C1962 1.363 . S
C1960 H1976 0.931 . S
C1961 C1960 1.370 . S
C1961 C1965 1.408 . S
C1962 C1960 1.363 . S
C1962 C1963 1.370 . S
C1962 C1966 1.524 . S
C1963 C1955 1.503 . S
C1963 C1962 1.370 . S
C1963 C1964 1.403 . S
C1964 C1963 1.403 . S
C1964 C1965 1.404 . S
C1964 C1967 1.539 . S
C1965 C1961 1.408 . S
C1965 C1964 1.404 . S
C1965 H1977 0.930 . S
C1966 C1962 1.524 . S
C1966 H1978 0.956 . S
C1966 H1979 0.961 . S
C1966 H1980 0.961 . S
C1967 C1964 1.539 . S
C1967 H1981 0.958 . S
C1967 H1982 0.961 . S
C1967 H1983 0.960 . S
H1968 C1952 0.931 . S
H1969 C1957 0.929 . S
H1970 C1958 0.960 . S
H1971 C1958 0.962 . S
H1972 C1958 0.960 . S
H1973 C1959 0.961 . S
H1974 C1959 0.961 . S
H1975 C1959 0.961 . S
H1976 C1960 0.931 . S
H1977 C1965 0.930 . S
H1978 C1966 0.956 . S
H1979 C1966 0.961 . S
H1980 C1966 0.961 . S
H1981 C1967 0.958 . S
H1982 C1967 0.961 . S
H1983 C1967 0.960 . S
C1984 C1985 1.391 . S
C1984 C1986 1.394 . S
C1984 H2000 0.931 . S
C1985 C1984 1.391 . S
C1985 C1989 1.376 . S
C1986 C1984 1.394 . S
C1986 C1987 1.369 . S
C1986 C1990 1.531 . S
C1987 C1986 1.369 . S
C1987 C1988 1.410 . S
C1987 C1995 1.503 . S
C1988 C1987 1.410 . S
C1988 C1989 1.392 . S
C1988 C1991 1.511 . S
C1989 C1985 1.376 . S
C1989 C1988 1.392 . S
C1989 H2001 0.929 . S
C1990 C1986 1.531 . S
C1990 H2002 0.960 . S
C1990 H2003 0.962 . S
C1990 H2004 0.960 . S
C1991 C1988 1.511 . S
C1991 H2005 0.961 . S
C1991 H2006 0.961 . S
C1991 H2007 0.961 . S
C1992 C1993 1.370 . S
C1992 C1994 1.363 . S
C1992 H2008 0.931 . S
C1993 C1992 1.370 . S
C1993 C1997 1.408 . S
C1994 C1992 1.363 . S
C1994 C1995 1.370 . S
C1994 C1998 1.524 . S
C1995 C1987 1.503 . S
C1995 C1994 1.370 . S
C1995 C1996 1.403 . S
C1996 C1995 1.403 . S
C1996 C1997 1.404 . S
C1996 C1999 1.539 . S
C1997 C1993 1.408 . S
C1997 C1996 1.404 . S
C1997 H2009 0.930 . S
C1998 C1994 1.524 . S
C1998 H2010 0.956 . S
C1998 H2011 0.961 . S
C1998 H2012 0.961 . S
C1999 C1996 1.539 . S
C1999 H2013 0.958 . S
C1999 H2014 0.961 . S
C1999 H2015 0.960 . S
H2000 C1984 0.931 . S
H2001 C1989 0.929 . S
H2002 C1990 0.960 . S
H2003 C1990 0.962 . S
H2004 C1990 0.960 . S
H2005 C1991 0.961 . S
H2006 C1991 0.961 . S
H2007 C1991 0.961 . S
H2008 C1992 0.931 . S
H2009 C1997 0.930 . S
H2010 C1998 0.956 . S
H2011 C1998 0.961 . S
H2012 C1998 0.961 . S
H2013 C1999 0.958 . S
H2014 C1999 0.961 . S
H2015 C1999 0.960 . S
C2016 C2017 1.391 . S
C2016 C2018 1.394 . S
C2016 H2032 0.931 . S
C2017 C2016 1.391 . S
C2017 C2021 1.376 . S
C2018 C2016 1.394 . S
C2018 C2019 1.369 . S
C2018 C2022 1.531 . S
C2019 C2018 1.369 . S
C2019 C2020 1.410 . S
C2019 C2027 1.503 . S
C2020 C2019 1.410 . S
C2020 C2021 1.392 . S
C2020 C2023 1.511 . S
C2021 C2017 1.376 . S
C2021 C2020 1.392 . S
C2021 H2033 0.929 . S
C2022 C2018 1.531 . S
C2022 H2034 0.960 . S
C2022 H2035 0.962 . S
C2022 H2036 0.960 . S
C2023 C2020 1.511 . S
C2023 H2037 0.961 . S
C2023 H2038 0.961 . S
C2023 H2039 0.961 . S
C2024 C2025 1.370 . S
C2024 C2026 1.363 . S
C2024 H2040 0.931 . S
C2025 C2024 1.370 . S
C2025 C2029 1.408 . S
C2026 C2024 1.363 . S
C2026 C2027 1.370 . S
C2026 C2030 1.524 . S
C2027 C2019 1.503 . S
C2027 C2026 1.370 . S
C2027 C2028 1.403 . S
C2028 C2027 1.403 . S
C2028 C2029 1.404 . S
C2028 C2031 1.539 . S
C2029 C2025 1.408 . S
C2029 C2028 1.404 . S
C2029 H2041 0.930 . S
C2030 C2026 1.524 . S
C2030 H2042 0.956 . S
C2030 H2043 0.961 . S
C2030 H2044 0.961 . S
C2031 C2028 1.539 . S
C2031 H2045 0.958 . S
C2031 H2046 0.961 . S
C2031 H2047 0.960 . S
H2032 C2016 0.931 . S
H2033 C2021 0.929 . S
H2034 C2022 0.960 . S
H2035 C2022 0.962 . S
H2036 C2022 0.960 . S
H2037 C2023 0.961 . S
H2038 C2023 0.961 . S
H2039 C2023 0.961 . S
H2040 C2024 0.931 . S
H2041 C2029 0.930 . S
H2042 C2030 0.956 . S
H2043 C2030 0.961 . S
H2044 C2030 0.961 . S
H2045 C2031 0.958 . S
H2046 C2031 0.961 . S
H2047 C2031 0.960 . S
C2048 C2049 1.391 . S
C2048 C2050 1.394 . S
C2048 H2064 0.931 . S
C2049 C2048 1.391 . S
C2049 C2053 1.376 . S
C2050 C2048 1.394 . S
C2050 C2051 1.369 . S
C2050 C2054 1.531 . S
C2051 C2050 1.369 . S
C2051 C2052 1.410 . S
C2051 C2059 1.503 . S
C2052 C2051 1.410 . S
C2052 C2053 1.392 . S
C2052 C2055 1.511 . S
C2053 C2049 1.376 . S
C2053 C2052 1.392 . S
C2053 H2065 0.929 . S
C2054 C2050 1.531 . S
C2054 H2066 0.960 . S
C2054 H2067 0.962 . S
C2054 H2068 0.960 . S
C2055 C2052 1.511 . S
C2055 H2069 0.961 . S
C2055 H2070 0.961 . S
C2055 H2071 0.961 . S
C2056 C2057 1.370 . S
C2056 C2058 1.363 . S
C2056 H2072 0.931 . S
C2057 C2056 1.370 . S
C2057 C2061 1.408 . S
C2058 C2056 1.363 . S
C2058 C2059 1.370 . S
C2058 C2062 1.524 . S
C2059 C2051 1.503 . S
C2059 C2058 1.370 . S
C2059 C2060 1.403 . S
C2060 C2059 1.403 . S
C2060 C2061 1.404 . S
C2060 C2063 1.539 . S
C2061 C2057 1.408 . S
C2061 C2060 1.404 . S
C2061 H2073 0.930 . S
C2062 C2058 1.524 . S
C2062 H2074 0.956 . S
C2062 H2075 0.961 . S
C2062 H2076 0.961 . S
C2063 C2060 1.539 . S
C2063 H2077 0.958 . S
C2063 H2078 0.961 . S
C2063 H2079 0.960 . S
H2064 C2048 0.931 . S
H2065 C2053 0.929 . S
H2066 C2054 0.960 . S
H2067 C2054 0.962 . S
H2068 C2054 0.960 . S
H2069 C2055 0.961 . S
H2070 C2055 0.961 . S
H2071 C2055 0.961 . S
H2072 C2056 0.931 . S
H2073 C2061 0.930 . S
H2074 C2062 0.956 . S
H2075 C2062 0.961 . S
H2076 C2062 0.961 . S
H2077 C2063 0.958 . S
H2078 C2063 0.961 . S
H2079 C2063 0.960 . S
C2080 C2081 1.391 . S
C2080 C2082 1.394 . S
C2080 H2096 0.931 . S
C2081 C2080 1.391 . S
C2081 C2085 1.376 . S
C2082 C2080 1.394 . S
C2082 C2083 1.369 . S
C2082 C2086 1.531 . S
C2083 C2082 1.369 . S
C2083 C2084 1.410 . S
C2083 C2091 1.503 . S
C2084 C2083 1.410 . S
C2084 C2085 1.392 . S
C2084 C2087 1.511 . S
C2085 C2081 1.376 . S
C2085 C2084 1.392 . S
C2085 H2097 0.929 . S
C2086 C2082 1.531 . S
C2086 H2098 0.960 . S
C2086 H2099 0.962 . S
C2086 H2100 0.960 . S
C2087 C2084 1.511 . S
C2087 H2101 0.961 . S
C2087 H2102 0.961 . S
C2087 H2103 0.961 . S
C2088 C2089 1.370 . S
C2088 C2090 1.363 . S
C2088 H2104 0.931 . S
C2089 C2088 1.370 . S
C2089 C2093 1.408 . S
C2090 C2088 1.363 . S
C2090 C2091 1.370 . S
C2090 C2094 1.524 . S
C2091 C2083 1.503 . S
C2091 C2090 1.370 . S
C2091 C2092 1.403 . S
C2092 C2091 1.403 . S
C2092 C2093 1.404 . S
C2092 C2095 1.539 . S
C2093 C2089 1.408 . S
C2093 C2092 1.404 . S
C2093 H2105 0.930 . S
C2094 C2090 1.524 . S
C2094 H2106 0.956 . S
C2094 H2107 0.961 . S
C2094 H2108 0.961 . S
C2095 C2092 1.539 . S
C2095 H2109 0.958 . S
C2095 H2110 0.961 . S
C2095 H2111 0.960 . S
H2096 C2080 0.931 . S
H2097 C2085 0.929 . S
H2098 C2086 0.960 . S
H2099 C2086 0.962 . S
H2100 C2086 0.960 . S
H2101 C2087 0.961 . S
H2102 C2087 0.961 . S
H2103 C2087 0.961 . S
H2104 C2088 0.931 . S
H2105 C2093 0.930 . S
H2106 C2094 0.956 . S
H2107 C2094 0.961 . S
H2108 C2094 0.961 . S
H2109 C2095 0.958 . S
H2110 C2095 0.961 . S
H2111 C2095 0.960 . S
C2112 C2113 1.391 . S
C2112 C2114 1.394 . S
C2112 H2128 0.931 . S
C2113 C2112 1.391 . S
C2113 C2117 1.376 . S
C2114 C2112 1.394 . S
C2114 C2115 1.369 . S
C2114 C2118 1.531 1_565 S
C2115 C2114 1.369 . S
C2115 C2116 1.410 . S
C2115 C2123 1.503 1_565 S
C2116 C2115 1.410 . S
C2116 C2117 1.392 . S
C2116 C2119 1.511 . S
C2117 C2113 1.376 . S
C2117 C2116 1.392 . S
C2117 H2129 0.929 . S
C2118 C2114 1.531 1_545 S
C2118 H2130 0.960 . S
C2118 H2131 0.962 . S
C2118 H2132 0.954 1_545 S
C2119 C2116 1.511 . S
C2119 H2133 0.961 . S
C2119 H2134 0.961 . S
C2119 H2135 0.961 . S
C2120 C2121 1.370 . S
C2120 C2122 1.363 . S
C2120 H2136 0.931 . S
C2121 C2120 1.370 . S
C2121 C2125 1.408 . S
C2122 C2120 1.363 . S
C2122 C2123 1.370 . S
C2122 C2126 1.524 . S
C2123 C2115 1.503 1_545 S
C2123 C2122 1.370 . S
C2123 C2124 1.403 1_545 S
C2124 C2123 1.403 1_565 S
C2124 C2125 1.404 1_565 S
C2124 C2127 1.539 . S
C2125 C2121 1.408 . S
C2125 C2124 1.404 1_545 S
C2125 H2137 0.930 . S
C2126 C2122 1.524 . S
C2126 H2138 0.956 . S
C2126 H2139 0.961 . S
C2126 H2140 0.961 . S
C2127 C2124 1.539 . S
C2127 H2141 0.958 . S
C2127 H2142 0.961 . S
C2127 H2143 0.960 . S
H2128 C2112 0.931 . S
H2129 C2117 0.929 . S
H2130 C2118 0.960 . S
H2131 C2118 0.962 . S
H2132 C2118 0.954 1_565 S
H2133 C2119 0.961 . S
H2134 C2119 0.961 . S
H2135 C2119 0.961 . S
H2136 C2120 0.931 . S
H2137 C2125 0.930 . S
H2138 C2126 0.956 . S
H2139 C2126 0.961 . S
H2140 C2126 0.961 . S
H2141 C2127 0.958 . S
H2142 C2127 0.961 . S
H2143 C2127 0.960 . S
C2144 C2145 1.361 1_655 S
C2144 C2146 1.354 1_546 S
C2144 H2160 0.931 . S
C2145 C2144 1.361 1_455 S
C2145 C2149 1.413 1_556 S
C2146 C2144 1.354 1_564 S
C2146 C2147 1.353 1_665 S
C2146 C2150 1.590 . S
C2147 C2146 1.353 1_445 S
C2147 C2148 1.410 . S
C2147 C2155 1.503 1_545 S
C2148 C2147 1.410 . S
C2148 C2149 1.392 . S
C2148 C2151 1.511 . S
C2149 C2145 1.413 1_554 S
C2149 C2148 1.392 . S
C2149 H2161 0.929 . S
C2150 C2146 1.590 . S
C2150 H2162 0.960 . S
C2150 H2163 0.962 . S
C2150 H2164 0.960 1_554 S
C2151 C2148 1.511 . S
C2151 H2165 0.961 . S
C2151 H2166 0.961 . S
C2151 H2167 0.961 . S
C2152 C2153 1.361 1_655 S
C2152 C2154 1.363 . S
C2152 H2168 0.931 . S
C2153 C2152 1.361 1_455 S
C2153 C2157 1.418 . S
C2154 C2152 1.363 . S
C2154 C2155 1.370 1_655 S
C2154 C2158 1.524 1_565 S
C2155 C2147 1.503 1_565 S
C2155 C2154 1.370 1_455 S
C2155 C2156 1.403 . S
C2156 C2155 1.403 . S
C2156 C2157 1.404 . S
C2156 C2159 1.539 . S
C2157 C2153 1.418 . S
C2157 C2156 1.404 . S
C2157 H2169 0.930 . S
C2158 C2154 1.524 1_545 S
C2158 H2170 0.956 . S
C2158 H2171 0.961 . S
C2158 H2172 0.961 . S
C2159 C2156 1.539 . S
C2159 H2173 0.958 . S
C2159 H2174 0.961 . S
C2159 H2175 0.960 . S
H2160 C2144 0.931 . S
H2161 C2149 0.929 . S
H2162 C2150 0.960 . S
H2163 C2150 0.962 . S
H2164 C2150 0.960 1_556 S
H2165 C2151 0.961 . S
H2166 C2151 0.961 . S
H2167 C2151 0.961 . S
H2168 C2152 0.931 . S
H2169 C2157 0.930 . S
H2170 C2158 0.956 . S
H2171 C2158 0.961 . S
H2172 C2158 0.961 . S
H2173 C2159 0.958 . S
H2174 C2159 0.961 . S
H2175 C2159 0.960 . S
C2176 C2177 1.339 1_455 S
C2176 C2178 1.394 . S
C2176 H2192 0.931 . S
C2177 C2176 1.339 1_655 S
C2177 C2181 1.433 . S
C2178 C2176 1.394 . S
C2178 C2179 1.369 1_455 S
C2178 C2182 1.531 . S
C2179 C2178 1.369 1_655 S
C2179 C2180 1.410 . S
C2179 C2187 1.503 . S
C2180 C2179 1.410 . S
C2180 C2181 1.392 . S
C2180 C2183 1.511 . S
C2181 C2177 1.433 . S
C2181 C2180 1.392 . S
C2181 H2193 0.929 . S
C2182 C2178 1.531 . S
C2182 H2194 0.960 . S
C2182 H2195 0.962 . S
C2182 H2196 0.960 . S
C2183 C2180 1.511 . S
C2183 H2197 0.961 . S
C2183 H2198 0.961 . S
C2183 H2199 0.961 . S
C2184 C2185 1.351 1_455 S
C2184 C2186 1.363 . S
C2184 H2200 0.931 . S
C2185 C2184 1.351 1_655 S
C2185 C2189 1.429 . S
C2186 C2184 1.363 . S
C2186 C2187 1.370 1_455 S
C2186 C2190 1.524 . S
C2187 C2179 1.503 . S
C2187 C2186 1.370 1_655 S
C2187 C2188 1.403 . S
C2188 C2187 1.403 . S
C2188 C2189 1.404 . S
C2188 C2191 1.539 . S
C2189 C2185 1.429 . S
C2189 C2188 1.404 . S
C2189 H2201 0.930 . S
C2190 C2186 1.524 . S
C2190 H2202 0.956 . S
C2190 H2203 0.961 . S
C2190 H2204 0.961 . S
C2191 C2188 1.539 . S
C2191 H2205 0.958 . S
C2191 H2206 0.961 . S
C2191 H2207 0.960 . S
H2192 C2176 0.931 . S
H2193 C2181 0.929 . S
H2194 C2182 0.960 . S
H2195 C2182 0.962 . S
H2196 C2182 0.960 . S
H2197 C2183 0.961 . S
H2198 C2183 0.961 . S
H2199 C2183 0.961 . S
H2200 C2184 0.931 . S
H2201 C2189 0.930 . S
H2202 C2190 0.956 . S
H2203 C2190 0.961 . S
H2204 C2190 0.961 . S
H2205 C2191 0.958 . S
H2206 C2191 0.961 . S
H2207 C2191 0.960 . S
C2208 C2209 1.391 . S
C2208 C2210 1.394 . S
C2208 H2224 0.931 . S
C2209 C2208 1.391 . S
C2209 C2213 1.376 . S
C2210 C2208 1.394 . S
C2210 C2211 1.369 . S
C2210 C2214 1.531 . S
C2211 C2210 1.369 . S
C2211 C2212 1.410 . S
C2211 C2219 1.503 . S
C2212 C2211 1.410 . S
C2212 C2213 1.392 . S
C2212 C2215 1.511 . S
C2213 C2209 1.376 . S
C2213 C2212 1.392 . S
C2213 H2225 0.929 . S
C2214 C2210 1.531 . S
C2214 H2226 0.960 . S
C2214 H2227 0.962 . S
C2214 H2228 0.960 . S
C2215 C2212 1.511 . S
C2215 H2229 0.961 . S
C2215 H2230 0.961 . S
C2215 H2231 0.961 . S
C2216 C2217 1.370 . S
C2216 C2218 1.363 . S
C2216 H2232 0.931 . S
C2217 C2216 1.370 . S
C2217 C2221 1.408 . S
C2218 C2216 1.363 . S
C2218 C2219 1.370 . S
C2218 C2222 1.524 . S
C2219 C2211 1.503 . S
C2219 C2218 1.370 . S
C2219 C2220 1.403 . S
C2220 C2219 1.403 . S
C2220 C2221 1.404 . S
C2220 C2223 1.539 . S
C2221 C2217 1.408 . S
C2221 C2220 1.404 . S
C2221 H2233 0.930 . S
C2222 C2218 1.524 . S
C2222 H2234 0.956 . S
C2222 H2235 0.961 . S
C2222 H2236 0.961 . S
C2223 C2220 1.539 . S
C2223 H2237 0.958 . S
C2223 H2238 0.961 . S
C2223 H2239 0.960 . S
H2224 C2208 0.931 . S
H2225 C2213 0.929 . S
H2226 C2214 0.960 . S
H2227 C2214 0.962 . S
H2228 C2214 0.960 . S
H2229 C2215 0.961 . S
H2230 C2215 0.961 . S
H2231 C2215 0.961 . S
H2232 C2216 0.931 . S
H2233 C2221 0.930 . S
H2234 C2222 0.956 . S
H2235 C2222 0.961 . S
H2236 C2222 0.961 . S
H2237 C2223 0.958 . S
H2238 C2223 0.961 . S
H2239 C2223 0.960 . S
C2240 C2241 1.391 . S
C2240 C2242 1.394 . S
C2240 H2256 0.931 . S
C2241 C2240 1.391 . S
C2241 C2245 1.376 . S
C2242 C2240 1.394 . S
C2242 C2243 1.369 . S
C2242 C2246 1.531 . S
C2243 C2242 1.369 . S
C2243 C2244 1.410 . S
C2243 C2251 1.503 . S
C2244 C2243 1.410 . S
C2244 C2245 1.392 . S
C2244 C2247 1.511 . S
C2245 C2241 1.376 . S
C2245 C2244 1.392 . S
C2245 H2257 0.929 . S
C2246 C2242 1.531 . S
C2246 H2258 0.960 . S
C2246 H2259 0.962 . S
C2246 H2260 0.960 . S
C2247 C2244 1.511 . S
C2247 H2261 0.961 . S
C2247 H2262 0.961 . S
C2247 H2263 0.961 . S
C2248 C2249 1.370 1_554 S
C2248 C2250 1.363 . S
C2248 H2264 0.931 . S
C2249 C2248 1.370 1_556 S
C2249 C2253 1.408 . S
C2250 C2248 1.363 . S
C2250 C2251 1.370 . S
C2250 C2254 1.524 . S
C2251 C2243 1.503 . S
C2251 C2250 1.370 . S
C2251 C2252 1.403 . S
C2252 C2251 1.403 . S
C2252 C2253 1.404 1_554 S
C2252 C2255 1.539 . S
C2253 C2249 1.408 . S
C2253 C2252 1.404 1_556 S
C2253 H2265 0.930 . S
C2254 C2250 1.524 . S
C2254 H2266 0.956 . S
C2254 H2267 0.961 . S
C2254 H2268 0.961 . S
C2255 C2252 1.539 . S
C2255 H2269 0.958 . S
C2255 H2270 0.961 . S
C2255 H2271 0.960 . S
H2256 C2240 0.931 . S
H2257 C2245 0.929 . S
H2258 C2246 0.960 . S
H2259 C2246 0.962 . S
H2260 C2246 0.960 . S
H2261 C2247 0.961 . S
H2262 C2247 0.961 . S
H2263 C2247 0.961 . S
H2264 C2248 0.931 . S
H2265 C2253 0.930 . S
H2266 C2254 0.956 . S
H2267 C2254 0.961 . S
H2268 C2254 0.961 . S
H2269 C2255 0.958 . S
H2270 C2255 0.961 . S
H2271 C2255 0.960 . S
C2272 C2273 1.391 . S
C2272 C2274 1.394 . S
C2272 H2288 0.931 . S
C2273 C2272 1.391 . S
C2273 C2277 1.376 . S
C2274 C2272 1.394 . S
C2274 C2275 1.369 . S
C2274 C2278 1.531 . S
C2275 C2274 1.369 . S
C2275 C2276 1.410 . S
C2275 C2283 1.503 . S
C2276 C2275 1.410 . S
C2276 C2277 1.392 . S
C2276 C2279 1.511 . S
C2277 C2273 1.376 . S
C2277 C2276 1.392 . S
C2277 H2289 0.929 . S
C2278 C2274 1.531 . S
C2278 H2290 0.960 . S
C2278 H2291 0.962 . S
C2278 H2292 0.960 . S
C2279 C2276 1.511 . S
C2279 H2293 0.961 . S
C2279 H2294 0.961 . S
C2279 H2295 0.961 . S
C2280 C2281 1.370 . S
C2280 C2282 1.363 . S
C2280 H2296 0.931 . S
C2281 C2280 1.370 . S
C2281 C2285 1.408 . S
C2282 C2280 1.363 . S
C2282 C2283 1.370 . S
C2282 C2286 1.524 . S
C2283 C2275 1.503 . S
C2283 C2282 1.370 . S
C2283 C2284 1.403 . S
C2284 C2283 1.403 . S
C2284 C2285 1.404 . S
C2284 C2287 1.539 . S
C2285 C2281 1.408 . S
C2285 C2284 1.404 . S
C2285 H2297 0.930 . S
C2286 C2282 1.524 . S
C2286 H2298 0.956 . S
C2286 H2299 0.961 . S
C2286 H2300 0.961 . S
C2287 C2284 1.539 . S
C2287 H2301 0.958 . S
C2287 H2302 0.961 . S
C2287 H2303 0.960 . S
H2288 C2272 0.931 . S
H2289 C2277 0.929 . S
H2290 C2278 0.960 . S
H2291 C2278 0.962 . S
H2292 C2278 0.960 . S
H2293 C2279 0.961 . S
H2294 C2279 0.961 . S
H2295 C2279 0.961 . S
H2296 C2280 0.931 . S
H2297 C2285 0.930 . S
H2298 C2286 0.956 . S
H2299 C2286 0.961 . S
H2300 C2286 0.961 . S
H2301 C2287 0.958 . S
H2302 C2287 0.961 . S
H2303 C2287 0.960 . S
C2304 C2305 1.391 . S
C2304 C2306 1.394 . S
C2304 H2320 0.931 . S
C2305 C2304 1.391 . S
C2305 C2309 1.376 . S
C2306 C2304 1.394 . S
C2306 C2307 1.369 . S
C2306 C2310 1.531 . S
C2307 C2306 1.369 . S
C2307 C2308 1.410 . S
C2307 C2315 1.503 . S
C2308 C2307 1.410 . S
C2308 C2309 1.392 . S
C2308 C2311 1.511 . S
C2309 C2305 1.376 . S
C2309 C2308 1.392 . S
C2309 H2321 0.929 . S
C2310 C2306 1.531 . S
C2310 H2322 0.960 . S
C2310 H2323 0.962 . S
C2310 H2324 0.960 . S
C2311 C2308 1.511 . S
C2311 H2325 0.961 . S
C2311 H2326 0.961 . S
C2311 H2327 0.961 . S
C2312 C2313 1.370 . S
C2312 C2314 1.363 . S
C2312 H2328 0.931 . S
C2313 C2312 1.370 . S
C2313 C2317 1.408 . S
C2314 C2312 1.363 . S
C2314 C2315 1.370 . S
C2314 C2318 1.524 . S
C2315 C2307 1.503 . S
C2315 C2314 1.370 . S
C2315 C2316 1.403 . S
C2316 C2315 1.403 . S
C2316 C2317 1.404 . S
C2316 C2319 1.539 . S
C2317 C2313 1.408 . S
C2317 C2316 1.404 . S
C2317 H2329 0.930 . S
C2318 C2314 1.524 . S
C2318 H2330 0.956 . S
C2318 H2331 0.961 . S
C2318 H2332 0.961 . S
C2319 C2316 1.539 . S
C2319 H2333 0.958 . S
C2319 H2334 0.961 . S
C2319 H2335 0.960 . S
H2320 C2304 0.931 . S
H2321 C2309 0.929 . S
H2322 C2310 0.960 . S
H2323 C2310 0.962 . S
H2324 C2310 0.960 . S
H2325 C2311 0.961 . S
H2326 C2311 0.961 . S
H2327 C2311 0.961 . S
H2328 C2312 0.931 . S
H2329 C2317 0.930 . S
H2330 C2318 0.956 . S
H2331 C2318 0.961 . S
H2332 C2318 0.961 . S
H2333 C2319 0.958 . S
H2334 C2319 0.961 . S
H2335 C2319 0.960 . S
C2336 C2337 1.391 . S
C2336 C2338 1.394 . S
C2336 H2352 0.931 . S
C2337 C2336 1.391 . S
C2337 C2341 1.376 . S
C2338 C2336 1.394 . S
C2338 C2339 1.369 . S
C2338 C2342 1.531 . S
C2339 C2338 1.369 . S
C2339 C2340 1.410 . S
C2339 C2347 1.503 . S
C2340 C2339 1.410 . S
C2340 C2341 1.392 . S
C2340 C2343 1.511 . S
C2341 C2337 1.376 . S
C2341 C2340 1.392 . S
C2341 H2353 0.929 . S
C2342 C2338 1.531 . S
C2342 H2354 0.960 . S
C2342 H2355 0.962 . S
C2342 H2356 0.960 . S
C2343 C2340 1.511 . S
C2343 H2357 0.961 . S
C2343 H2358 0.961 . S
C2343 H2359 0.961 . S
C2344 C2345 1.370 . S
C2344 C2346 1.363 . S
C2344 H2360 0.931 . S
C2345 C2344 1.370 . S
C2345 C2349 1.408 . S
C2346 C2344 1.363 . S
C2346 C2347 1.370 . S
C2346 C2350 1.524 . S
C2347 C2339 1.503 . S
C2347 C2346 1.370 . S
C2347 C2348 1.403 . S
C2348 C2347 1.403 . S
C2348 C2349 1.404 . S
C2348 C2351 1.539 . S
C2349 C2345 1.408 . S
C2349 C2348 1.404 . S
C2349 H2361 0.930 . S
C2350 C2346 1.524 . S
C2350 H2362 0.956 . S
C2350 H2363 0.961 . S
C2350 H2364 0.961 . S
C2351 C2348 1.539 . S
C2351 H2365 0.958 . S
C2351 H2366 0.961 . S
C2351 H2367 0.960 . S
H2352 C2336 0.931 . S
H2353 C2341 0.929 . S
H2354 C2342 0.960 . S
H2355 C2342 0.962 . S
H2356 C2342 0.960 . S
H2357 C2343 0.961 . S
H2358 C2343 0.961 . S
H2359 C2343 0.961 . S
H2360 C2344 0.931 . S
H2361 C2349 0.930 . S
H2362 C2350 0.956 . S
H2363 C2350 0.961 . S
H2364 C2350 0.961 . S
H2365 C2351 0.958 . S
H2366 C2351 0.961 . S
H2367 C2351 0.960 . S
C2368 C2369 1.391 . S
C2368 C2370 1.394 . S
C2368 H2384 0.931 . S
C2369 C2368 1.391 . S
C2369 C2373 1.376 . S
C2370 C2368 1.394 . S
C2370 C2371 1.369 . S
C2370 C2374 1.531 1_565 S
C2371 C2370 1.369 . S
C2371 C2372 1.410 . S
C2371 C2379 1.503 1_565 S
C2372 C2371 1.410 . S
C2372 C2373 1.392 . S
C2372 C2375 1.511 . S
C2373 C2369 1.376 . S
C2373 C2372 1.392 . S
C2373 H2385 0.929 . S
C2374 C2370 1.531 1_545 S
C2374 H2386 0.960 . S
C2374 H2387 0.962 . S
C2374 H2388 0.960 . S
C2375 C2372 1.511 . S
C2375 H2389 0.961 . S
C2375 H2390 0.961 . S
C2375 H2391 0.961 . S
C2376 C2377 1.370 . S
C2376 C2378 1.363 1_556 S
C2376 H2392 0.931 . S
C2377 C2376 1.370 . S
C2377 C2381 1.408 1_556 S
C2378 C2376 1.363 1_554 S
C2378 C2379 1.370 . S
C2378 C2382 1.524 1_545 S
C2379 C2371 1.503 1_545 S
C2379 C2378 1.370 . S
C2379 C2380 1.403 . S
C2380 C2379 1.403 . S
C2380 C2381 1.404 . S
C2380 C2383 1.539 . S
C2381 C2377 1.408 1_554 S
C2381 C2380 1.404 . S
C2381 H2393 0.930 . S
C2382 C2378 1.524 1_565 S
C2382 H2394 0.956 . S
C2382 H2395 0.961 . S
C2382 H2396 0.961 1_554 S
C2383 C2380 1.539 . S
C2383 H2397 0.958 . S
C2383 H2398 0.961 . S
C2383 H2399 0.960 . S
H2384 C2368 0.931 . S
H2385 C2373 0.929 . S
H2386 C2374 0.960 . S
H2387 C2374 0.962 . S
H2388 C2374 0.960 . S
H2389 C2375 0.961 . S
H2390 C2375 0.961 . S
H2391 C2375 0.961 . S
H2392 C2376 0.931 . S
H2393 C2381 0.930 . S
H2394 C2382 0.956 . S
H2395 C2382 0.961 . S
H2396 C2382 0.961 1_556 S
H2397 C2383 0.958 . S
H2398 C2383 0.961 . S
H2399 C2383 0.960 . S
C2400 C2401 1.380 1_455 S
C2400 C2402 1.394 . S
C2400 H2416 0.931 . S
C2401 C2400 1.380 1_655 S
C2401 C2405 1.387 . S
C2402 C2400 1.394 . S
C2402 C2403 1.369 1_455 S
C2402 C2406 1.531 1_545 S
C2403 C2402 1.369 1_655 S
C2403 C2404 1.410 . S
C2403 C2411 1.506 1_545 S
C2404 C2403 1.410 . S
C2404 C2405 1.392 . S
C2404 C2407 1.511 . S
C2405 C2401 1.387 . S
C2405 C2404 1.392 . S
C2405 H2417 0.929 . S
C2406 C2402 1.531 1_565 S
C2406 H2418 0.960 . S
C2406 H2419 0.962 . S
C2406 H2420 0.960 . S
C2407 C2404 1.511 . S
C2407 H2421 0.961 . S
C2407 H2422 0.961 . S
C2407 H2423 0.961 . S
C2408 C2409 1.369 . S
C2408 C2410 1.363 . S
C2408 H2424 0.931 . S
C2409 C2408 1.369 . S
C2409 C2413 1.410 1_455 S
C2410 C2408 1.363 . S
C2410 C2411 1.343 1_455 S
C2410 C2414 1.524 1_565 S
C2411 C2403 1.506 1_565 S
C2411 C2410 1.343 1_655 S
C2411 C2412 1.430 . S
C2412 C2411 1.430 . S
C2412 C2413 1.404 . S
C2412 C2415 1.539 . S
C2413 C2409 1.410 1_655 S
C2413 C2412 1.404 . S
C2413 H2425 0.930 . S
C2414 C2410 1.524 1_545 S
C2414 H2426 0.956 . S
C2414 H2427 0.961 . S
C2414 H2428 0.961 . S
C2415 C2412 1.539 . S
C2415 H2429 0.958 . S
C2415 H2430 0.961 . S
C2415 H2431 0.960 . S
H2416 C2400 0.931 . S
H2417 C2405 0.929 . S
H2418 C2406 0.960 . S
H2419 C2406 0.962 . S
H2420 C2406 0.960 . S
H2421 C2407 0.961 . S
H2422 C2407 0.961 . S
H2423 C2407 0.961 . S
H2424 C2408 0.931 . S
H2425 C2413 0.930 . S
H2426 C2414 0.956 . S
H2427 C2414 0.961 . S
H2428 C2414 0.961 . S
H2429 C2415 0.958 . S
H2430 C2415 0.961 . S
H2431 C2415 0.960 . S
C1409 C849 1.553 . S
C1417 C29 1.564 . S
C1441 C1281 1.577 . S
C1449 C117 1.555 . S
C1473 C233 1.576 . S
C1481 C753 1.557 . S
C1505 C293 1.535 1_556 S
C1513 C1349 1.567 . S
C1537 C401 1.558 . S
C1545 C909 1.545 1_556 S
C1569 C1201 1.575 . S
C1577 C497 1.555 . S
C1601 C988 1.537 . S
C1609 C548 1.561 . S
C1633 C673 1.572 . S
C1641 C1076 1.562 . S
C1665 C409 1.539 . S
C1673 C313 1.568 1_556 S
C1697 C1085 1.546 . S
C1705 C733 1.561 . S
C1729 C557 1.550 . S
C1737 C137 1.571 . S
C1761 C812 1.575 . S
C1769 C1193 1.541 . S
C1793 C20 1.529 . S
C1801 C460 1.575 . S
C1825 C1340 1.572 . S
C1833 C929 1.554 1_556 S
C1857 C636 1.547 . S
C1865 C225 1.565 . S
C1889 C1025 1.543 . S
C1897 C1289 1.560 . S
C1921 C49 0.808 . S
C1929 C381 0.808 1_556 S
C1953 C469 0.806 . S
C1961 C145 0.808 . S
C1985 C585 0.828 . S
C1993 C196 0.799 . S
C2017 C321 0.834 . S
C2025 C645 0.792 . S
C2049 C937 0.808 . S
C2057 C724 0.800 . S
C2081 C1017 0.835 . S
C2089 C821 0.795 . S
C2113 C1261 0.801 . S
C2121 C1113 0.811 . S
C2145 C1369 0.824 1_556 S
C2153 C1164 0.800 . S
C2177 C372 2.007 1_655 S
C2185 C57 1.999 1_655 S
C2209 C489 2.018 . S
C2217 C108 2.007 . S
C2241 C577 2.006 . S
C2249 C205 2.001 . S
C2273 C284 1.999 . S
C2281 C665 2.014 . S
C2305 C761 2.014 . S
C2313 C900 2.008 . S
C2337 C997 2.005 . S
C2345 C841 2.012 . S
C2369 C1252 1.986 . S
C2377 C1105 2.006 . S
C2401 C1377 1.986 1_655 S
C2409 C1173 2.006 . S
