# Generated by pormake.
# Topology uop, (4)-cn, num edge types: 1
# Building blocks:
#     Node 0, Type 0, BuildingBlock: ICAMEG_clean_sbu_1, # of connection points: 4
#     Node 1, Type 0, BuildingBlock: ICAMEG_clean_sbu_1, # of connection points: 4
#     Node 2, Type 0, BuildingBlock: ICAMEG_clean_sbu_1, # of connection points: 4
#     Node 3, Type 0, BuildingBlock: ICAMEG_clean_sbu_1, # of connection points: 4
#     Node 4, Type 0, BuildingBlock: ICAMEG_clean_sbu_1, # of connection points: 4
#     Node 5, Type 0, BuildingBlock: ICAMEG_clean_sbu_1, # of connection points: 4
#     Node 6, Type 0, BuildingBlock: ICAMEG_clean_sbu_1, # of connection points: 4
#     Node 7, Type 0, BuildingBlock: ICAMEG_clean_sbu_1, # of connection points: 4
#     Node 8, Type 0, BuildingBlock: ICAMEG_clean_sbu_1, # of connection points: 4
#     Node 9, Type 0, BuildingBlock: ICAMEG_clean_sbu_1, # of connection points: 4
#     Node 10, Type 0, BuildingBlock: ICAMEG_clean_sbu_1, # of connection points: 4
#     Node 11, Type 0, BuildingBlock: ICAMEG_clean_sbu_1, # of connection points: 4
#     Edge 12, Type (0, 0), BuildingBlock: KIFKEQ_clean_linker_1, # of connection points: 2
#     Edge 13, Type (0, 0), BuildingBlock: KIFKEQ_clean_linker_1, # of connection points: 2
#     Edge 14, Type (0, 0), BuildingBlock: KIFKEQ_clean_linker_1, # of connection points: 2
#     Edge 15, Type (0, 0), BuildingBlock: KIFKEQ_clean_linker_1, # of connection points: 2
#     Edge 16, Type (0, 0), BuildingBlock: KIFKEQ_clean_linker_1, # of connection points: 2
#     Edge 17, Type (0, 0), BuildingBlock: KIFKEQ_clean_linker_1, # of connection points: 2
#     Edge 18, Type (0, 0), BuildingBlock: KIFKEQ_clean_linker_1, # of connection points: 2
#     Edge 19, Type (0, 0), BuildingBlock: KIFKEQ_clean_linker_1, # of connection points: 2
#     Edge 20, Type (0, 0), BuildingBlock: KIFKEQ_clean_linker_1, # of connection points: 2
#     Edge 21, Type (0, 0), BuildingBlock: KIFKEQ_clean_linker_1, # of connection points: 2
#     Edge 22, Type (0, 0), BuildingBlock: KIFKEQ_clean_linker_1, # of connection points: 2
#     Edge 23, Type (0, 0), BuildingBlock: KIFKEQ_clean_linker_1, # of connection points: 2
#     Edge 24, Type (0, 0), BuildingBlock: KIFKEQ_clean_linker_1, # of connection points: 2
#     Edge 25, Type (0, 0), BuildingBlock: KIFKEQ_clean_linker_1, # of connection points: 2
#     Edge 26, Type (0, 0), BuildingBlock: KIFKEQ_clean_linker_1, # of connection points: 2
#     Edge 27, Type (0, 0), BuildingBlock: KIFKEQ_clean_linker_1, # of connection points: 2
#     Edge 28, Type (0, 0), BuildingBlock: KIFKEQ_clean_linker_1, # of connection points: 2
#     Edge 29, Type (0, 0), BuildingBlock: KIFKEQ_clean_linker_1, # of connection points: 2
#     Edge 30, Type (0, 0), BuildingBlock: KIFKEQ_clean_linker_1, # of connection points: 2
#     Edge 31, Type (0, 0), BuildingBlock: KIFKEQ_clean_linker_1, # of connection points: 2
#     Edge 32, Type (0, 0), BuildingBlock: KIFKEQ_clean_linker_1, # of connection points: 2
#     Edge 33, Type (0, 0), BuildingBlock: KIFKEQ_clean_linker_1, # of connection points: 2
#     Edge 34, Type (0, 0), BuildingBlock: KIFKEQ_clean_linker_1, # of connection points: 2
#     Edge 35, Type (0, 0), BuildingBlock: KIFKEQ_clean_linker_1, # of connection points: 2
# Relax obj value: 0.105
# Max RMSD: 0.102
# Mean RMSD: 0.102
data_MOF--net-uop--node1-ICAMEG_clean_sbu_1--edge1-KIFKEQ_clean_linker_1
_symmetry_space_group_name_H-M    P1
_symmetry_Int_Tables_number       1
_symmetry_cell_setting            triclinic
loop_
_symmetry_equiv_pos_as_xyz
'x, y, z'
_cell_length_a     36.025062
_cell_length_b     36.013665
_cell_length_c     44.503615
_cell_angle_alpha  89.997568
_cell_angle_beta   89.993637
_cell_angle_gamma 120.02354
loop_
_atom_site_label
_atom_site_type_symbol
_atom_site_fract_x
_atom_site_fract_y
_atom_site_fract_z
_atom_type_partial_charge
Co0 Co 0.26451 0.43818 0.23691 0.0
Co1 Co 0.24529 0.36316 0.18161 0.0
O2 O 0.23643 0.40733 0.20021 0.0
C3 C 0.28559 0.50586 0.19221 0.0
O4 O 0.29218 0.48235 0.17279 0.0
C5 C 0.15231 0.32096 0.19329 0.0
O6 O 0.16287 0.33643 0.22062 0.0
O7 O 0.23803 0.33341 0.22071 0.0
O8 O 0.25615 0.38452 0.25581 0.0
H9 H 0.30858 0.26711 0.17178 0.0
H10 H 0.19215 0.44476 0.21132 0.0
O11 O 0.27366 0.4927 0.21889 0.0
H12 H 0.14578 0.38658 0.3134 0.0
H13 H 0.29812 0.54722 0.31864 0.0
H14 H 0.32804 0.43713 0.27867 0.0
H15 H 0.21749 0.40493 0.29484 0.0
H16 H 0.26172 0.50669 0.27286 0.0
O17 O 0.18162 0.32782 0.17429 0.0
H18 H 0.29827 0.32338 0.19522 0.0
H19 H 0.20835 0.30772 0.12763 0.0
H20 H 0.36485 0.47662 0.32469 0.0
H21 H 0.12026 0.42718 0.22902 0.0
H22 H 0.35 0.53217 0.34493 0.0
H23 H 0.0966 0.39768 0.28036 0.0
O24 O 0.32147 0.45114 0.22127 0.0
H25 H 0.20627 0.43508 0.1008 0.0
H26 H 0.31019 0.39162 0.13252 0.0
H27 H 0.32106 0.42991 0.08448 0.0
H28 H 0.26884 0.45187 0.06834 0.0
H29 H 0.19682 0.39706 0.14877 0.0
H30 H 0.21744 0.25105 0.10355 0.0
H31 H 0.26798 0.23053 0.1256 0.0
O32 O 0.30898 0.39797 0.18888 0.0
C33 C 0.24503 0.34634 0.24789 0.0
C34 C 0.28657 0.27586 0.1619 0.0
C35 C 0.23536 0.2668 0.12364 0.0
N36 N 0.25299 0.31901 0.16267 0.0
C37 C 0.2807 0.30778 0.17502 0.0
C38 C 0.23028 0.29884 0.13739 0.0
C39 C 0.26374 0.25532 0.13601 0.0
C40 C 0.1822 0.43229 0.23378 0.0
N41 N 0.20897 0.42585 0.25203 0.0
C42 C 0.14142 0.42225 0.24364 0.0
C43 C 0.12814 0.40564 0.27243 0.0
C44 C 0.1557 0.39936 0.29097 0.0
C45 C 0.19622 0.40967 0.28032 0.0
C46 C 0.30479 0.52304 0.31008 0.0
C47 C 0.32116 0.46102 0.28749 0.0
C48 C 0.28435 0.50005 0.28413 0.0
N49 N 0.29251 0.46934 0.27326 0.0
C50 C 0.34221 0.48337 0.31349 0.0
C51 C 0.33389 0.51456 0.32482 0.0
C52 C 0.33418 0.43187 0.20363 0.0
C53 C 0.22916 0.42555 0.10754 0.0
C54 C 0.28738 0.40115 0.12568 0.0
C55 C 0.29365 0.42274 0.09842 0.0
C56 C 0.26432 0.43502 0.08937 0.0
N57 N 0.25279 0.39194 0.14337 0.0
C58 C 0.22387 0.40384 0.13462 0.0
Co59 Co 0.82905 0.27598 0.57536 0.0
Co60 Co 0.88538 0.25463 0.52176 0.0
O61 O 0.83214 0.24694 0.53922 0.0
C62 C 0.78453 0.29753 0.52931 0.0
O63 O 0.81506 0.30353 0.51046 0.0
C64 C 0.83269 0.16143 0.53298 0.0
O65 O 0.82654 0.17174 0.56008 0.0
O66 O 0.90563 0.24649 0.56148 0.0
O67 O 0.87331 0.26706 0.59543 0.0
H68 H 0.04455 0.31432 0.51559 0.0
H69 H 0.75 0.20396 0.54953 0.0
O70 O 0.78472 0.28568 0.55618 0.0
H71 H 0.75851 0.15881 0.65269 0.0
H72 H 0.75301 0.31345 0.65431 0.0
H73 H 0.89318 0.33982 0.61723 0.0
H74 H 0.8133 0.22977 0.63384 0.0
H75 H 0.75748 0.27507 0.60977 0.0
O76 O 0.8562 0.19089 0.51437 0.0
H77 H 0.97765 0.30562 0.53732 0.0
H78 H 0.90491 0.2171 0.46856 0.0
H79 H 0.89015 0.37862 0.66202 0.0
H80 H 0.69429 0.13282 0.56752 0.0
H81 H 0.81968 0.36565 0.68075 0.0
H82 H 0.69846 0.10978 0.61941 0.0
O83 O 0.874 0.33239 0.55958 0.0
H84 H 0.77809 0.218 0.43867 0.0
H85 H 0.92499 0.31948 0.47283 0.0
H86 H 0.9001 0.33119 0.424 0.0
H87 H 0.82617 0.2802 0.40662 0.0
H88 H 0.80416 0.2077 0.48746 0.0
H89 H 0.971 0.2246 0.44619 0.0
H90 H 0.04147 0.27363 0.46969 0.0
O91 O 0.91535 0.31847 0.52894 0.0
C92 C 0.89945 0.25438 0.58836 0.0
C93 C 0.01406 0.29298 0.50508 0.0
C94 C 0.97277 0.24258 0.46615 0.0
N95 N 0.9375 0.26117 0.50407 0.0
C96 C 0.97609 0.28803 0.51723 0.0
C97 C 0.93546 0.2384 0.47895 0.0
C98 C 0.0123 0.2701 0.47935 0.0
C99 C 0.75181 0.19429 0.57222 0.0
N100 N 0.78485 0.22099 0.59062 0.0
C101 C 0.72027 0.15392 0.58225 0.0
C102 C 0.72265 0.14099 0.61135 0.0
C103 C 0.75637 0.16847 0.63003 0.0
C104 C 0.78738 0.20857 0.61921 0.0
C105 C 0.7839 0.31933 0.64639 0.0
C106 C 0.86237 0.33369 0.62544 0.0
C107 C 0.78664 0.29774 0.62116 0.0
N108 N 0.82555 0.30498 0.61106 0.0
C109 C 0.86087 0.35587 0.65074 0.0
C110 C 0.82132 0.3486 0.66123 0.0
C111 C 0.90664 0.34434 0.54272 0.0
C112 C 0.81042 0.24036 0.44595 0.0
C113 C 0.89274 0.29721 0.46546 0.0
C114 C 0.87886 0.30395 0.43775 0.0
C115 C 0.83739 0.27531 0.428 0.0
N116 N 0.86611 0.26284 0.48292 0.0
C117 C 0.82542 0.23459 0.4735 0.0
Co118 Co 0.56338 0.8281 0.90456 0.0
Co119 Co 0.63548 0.88265 0.84745 0.0
O120 O 0.59281 0.83008 0.86735 0.0
C121 C 0.49392 0.77976 0.86144 0.0
O122 O 0.51635 0.80953 0.84151 0.0
C123 C 0.6816 0.83555 0.85915 0.0
O124 O 0.67009 0.83375 0.88733 0.0
O125 O 0.66685 0.9071 0.88582 0.0
O126 O 0.61763 0.87426 0.92216 0.0
H127 H 0.72929 0.04187 0.83422 0.0
H128 H 0.55719 0.74912 0.87932 0.0
O129 O 0.50833 0.7818 0.88782 0.0
H130 H 0.61831 0.76363 0.98067 0.0
H131 H 0.45798 0.7544 0.98862 0.0
H132 H 0.56566 0.89363 0.94597 0.0
H133 H 0.59863 0.81602 0.96212 0.0
H134 H 0.49672 0.75753 0.9421 0.0
O135 O 0.67094 0.85458 0.83971 0.0
H136 H 0.67477 0.97589 0.85937 0.0
H137 H 0.68849 0.8997 0.79231 0.0
H138 H 0.52798 0.89197 0.9927 0.0
H139 H 0.57605 0.69573 0.89702 0.0
H140 H 0.47365 0.82197 0.01429 0.0
H141 H 0.607 0.70291 0.948 0.0
O142 O 0.54921 0.87131 0.88896 0.0
H143 H 0.56101 0.76833 0.76907 0.0
H144 H 0.60401 0.91649 0.79857 0.0
H145 H 0.56369 0.88687 0.75151 0.0
H146 H 0.54196 0.81229 0.73648 0.0
H147 H 0.60102 0.79907 0.81606 0.0
H148 H 0.74339 0.96486 0.76653 0.0
H149 H 0.76399 0.03658 0.78744 0.0
O150 O 0.60043 0.9111 0.85508 0.0
C151 C 0.6552 0.90165 0.9133 0.0
C152 C 0.72048 0.01081 0.82483 0.0
C153 C 0.72844 0.96758 0.78686 0.0
N154 N 0.67825 0.93403 0.82719 0.0
C155 C 0.68955 0.97335 0.83892 0.0
C156 C 0.69741 0.93081 0.80159 0.0
C157 C 0.73998 0.00781 0.7986 0.0
C158 C 0.57039 0.75229 0.90161 0.0
N159 N 0.57689 0.7857 0.91966 0.0
C160 C 0.58111 0.72203 0.91147 0.0
C161 C 0.59852 0.7261 0.94007 0.0
C162 C 0.60491 0.76019 0.9584 0.0
C163 C 0.59388 0.78987 0.94774 0.0
C164 C 0.48164 0.7851 0.97946 0.0
C165 C 0.54231 0.86304 0.95538 0.0
C166 C 0.50361 0.78707 0.9531 0.0
N167 N 0.53366 0.82572 0.94149 0.0
C168 C 0.52097 0.86231 0.98178 0.0
C169 C 0.49046 0.82302 0.99386 0.0
C170 C 0.56729 0.90267 0.87066 0.0
C171 C 0.57042 0.80092 0.77533 0.0
C172 C 0.59458 0.88398 0.79221 0.0
C173 C 0.57183 0.86741 0.76551 0.0
C174 C 0.55968 0.82558 0.75708 0.0
N175 N 0.60503 0.8596 0.80998 0.0
C176 C 0.59326 0.81857 0.80185 0.0
Co177 Co 0.72485 0.55459 0.24125 0.0
Co178 Co 0.74597 0.62942 0.18549 0.0
O179 O 0.75413 0.58525 0.20476 0.0
C180 C 0.70433 0.48663 0.19699 0.0
O181 O 0.69775 0.51002 0.17744 0.0
C182 C 0.83924 0.6737 0.19764 0.0
O183 O 0.82931 0.66186 0.22575 0.0
O184 O 0.75333 0.65971 0.22436 0.0
O185 O 0.73303 0.60849 0.25966 0.0
H186 H 0.68516 0.72743 0.17426 0.0
H187 H 0.79795 0.54803 0.21711 0.0
O188 O 0.71605 0.49995 0.22367 0.0
H189 H 0.84086 0.60525 0.31975 0.0
H190 H 0.68731 0.4447 0.32299 0.0
H191 H 0.66026 0.55607 0.2817 0.0
H192 H 0.76996 0.58743 0.29984 0.0
H193 H 0.72604 0.48584 0.27796 0.0
O194 O 0.80969 0.66378 0.17819 0.0
H195 H 0.69424 0.67078 0.19834 0.0
H196 H 0.78364 0.68379 0.13109 0.0
H197 H 0.62112 0.51598 0.32695 0.0
H198 H 0.86907 0.56508 0.23616 0.0
H199 H 0.63442 0.4597 0.3478 0.0
H200 H 0.89097 0.59404 0.28781 0.0
O201 O 0.66842 0.54177 0.22464 0.0
H202 H 0.78408 0.55518 0.10587 0.0
H203 H 0.6815 0.60112 0.13611 0.0
H204 H 0.67047 0.56207 0.08841 0.0
H205 H 0.72202 0.53887 0.073 0.0
H206 H 0.79369 0.59395 0.15351 0.0
H207 H 0.77575 0.7408 0.10637 0.0
H208 H 0.7261 0.76284 0.12792 0.0
O209 O 0.68219 0.59553 0.1925 0.0
C210 C 0.74534 0.64689 0.25155 0.0
C211 C 0.70678 0.718 0.16459 0.0
C212 C 0.75767 0.72554 0.12651 0.0
N213 N 0.73915 0.67377 0.16598 0.0
C214 C 0.71195 0.68586 0.17808 0.0
C215 C 0.76207 0.69331 0.14063 0.0
C216 C 0.72979 0.73789 0.13861 0.0
C217 C 0.80716 0.56036 0.23967 0.0
N218 N 0.77985 0.56675 0.25735 0.0
C219 C 0.84751 0.57006 0.25031 0.0
C220 C 0.8598 0.58636 0.27927 0.0
C221 C 0.83171 0.59269 0.2972 0.0
C222 C 0.79166 0.58269 0.28578 0.0
C223 C 0.68128 0.46918 0.31415 0.0
C224 C 0.66654 0.53193 0.29084 0.0
C225 C 0.70306 0.49253 0.28863 0.0
N226 N 0.69563 0.52353 0.27736 0.0
C227 C 0.64417 0.50923 0.31639 0.0
C228 C 0.65162 0.47763 0.32807 0.0
C229 C 0.65641 0.56151 0.20689 0.0
C230 C 0.76148 0.56524 0.11229 0.0
C231 C 0.70401 0.59103 0.1296 0.0
C232 C 0.69765 0.56901 0.10253 0.0
C233 C 0.72661 0.55604 0.09389 0.0
N234 N 0.73831 0.59997 0.14752 0.0
C235 C 0.76686 0.58738 0.13918 0.0
Co236 Co 0.17907 0.73603 0.5735 0.0
Co237 Co 0.12317 0.7558 0.5186 0.0
O238 O 0.17623 0.76397 0.53671 0.0
C239 C 0.22363 0.71278 0.52859 0.0
O240 O 0.19333 0.70644 0.50942 0.0
C241 C 0.17559 0.8491 0.52924 0.0
O242 O 0.18127 0.83906 0.55653 0.0
O243 O 0.10203 0.76435 0.55788 0.0
O244 O 0.13485 0.7457 0.59273 0.0
H245 H 0.96397 0.69504 0.51064 0.0
H246 H 0.25828 0.80706 0.54707 0.0
O247 O 0.22334 0.72553 0.55517 0.0
H248 H 0.2496 0.85565 0.64908 0.0
H249 H 0.25448 0.70143 0.65465 0.0
H250 H 0.11461 0.67374 0.61596 0.0
H251 H 0.19479 0.78412 0.63115 0.0
H252 H 0.25033 0.73784 0.60887 0.0
O253 O 0.15229 0.81943 0.51068 0.0
H254 H 0.03062 0.70449 0.53337 0.0
H255 H 0.10434 0.79244 0.46458 0.0
H256 H 0.11731 0.63695 0.66198 0.0
H257 H 0.31403 0.87875 0.56414 0.0
H258 H 0.18763 0.65065 0.68156 0.0
H259 H 0.30978 0.90352 0.61544 0.0
O260 O 0.13404 0.67915 0.55839 0.0
H261 H 0.23194 0.79144 0.43668 0.0
H262 H 0.08458 0.69015 0.47011 0.0
H263 H 0.11039 0.67774 0.42189 0.0
H264 H 0.18456 0.72863 0.40489 0.0
H265 H 0.20495 0.80244 0.48485 0.0
H266 H 0.03851 0.78418 0.44121 0.0
H267 H 0.96768 0.73506 0.46422 0.0
O268 O 0.09337 0.69212 0.52636 0.0
C269 C 0.10829 0.75755 0.58502 0.0
C270 C 0.99463 0.71642 0.50035 0.0
C271 C 0.03647 0.7665 0.4614 0.0
N272 N 0.07126 0.74872 0.50018 0.0
C273 C 0.03245 0.7218 0.51307 0.0
C274 C 0.07363 0.77112 0.47477 0.0
C275 C 0.99674 0.73893 0.47432 0.0
C276 C 0.25643 0.81749 0.56951 0.0
N277 N 0.22332 0.79145 0.5881 0.0
C278 C 0.288 0.85816 0.57902 0.0
C279 C 0.28556 0.87207 0.60779 0.0
C280 C 0.25179 0.84524 0.62666 0.0
C281 C 0.22075 0.80482 0.61636 0.0
C282 C 0.22366 0.69525 0.64637 0.0
C283 C 0.14535 0.68014 0.6245 0.0
C284 C 0.2211 0.71571 0.62043 0.0
N285 N 0.18228 0.70817 0.60991 0.0
C286 C 0.14667 0.6591 0.65051 0.0
C287 C 0.18614 0.66678 0.66147 0.0
C288 C 0.10179 0.66669 0.54105 0.0
C289 C 0.19951 0.76912 0.4438 0.0
C290 C 0.11692 0.71239 0.46289 0.0
C291 C 0.13133 0.70524 0.43554 0.0
C292 C 0.17294 0.73383 0.426 0.0
N293 N 0.14317 0.7471 0.48021 0.0
C294 C 0.18399 0.77529 0.47099 0.0
Co295 Co 0.44767 0.17287 0.90748 0.0
Co296 Co 0.3702 0.11755 0.85354 0.0
O297 O 0.41567 0.17049 0.87144 0.0
C298 C 0.51395 0.2189 0.86175 0.0
O299 O 0.48966 0.18877 0.84256 0.0
C300 C 0.32962 0.1698 0.86558 0.0
O301 O 0.34608 0.17546 0.89264 0.0
O302 O 0.3416 0.09652 0.89311 0.0
O303 O 0.39443 0.12801 0.92719 0.0
H304 H 0.27076 0.95843 0.84591 0.0
H305 H 0.45452 0.25238 0.88271 0.0
O306 O 0.50172 0.21783 0.88868 0.0
H307 H 0.40028 0.24117 0.98599 0.0
H308 H 0.56078 0.24735 0.98694 0.0
H309 H 0.44739 0.10786 0.94845 0.0
H310 H 0.41685 0.18708 0.96632 0.0
H311 H 0.51804 0.24377 0.94257 0.0
O312 O 0.33567 0.14676 0.84661 0.0
H313 H 0.3288 0.02495 0.86823 0.0
H314 H 0.31346 0.099 0.80028 0.0
H315 H 0.48908 0.10998 0.99307 0.0
H316 H 0.43868 0.30742 0.90152 0.0
H317 H 0.5464 0.1801 0.01249 0.0
H318 H 0.41118 0.30189 0.95347 0.0
O319 O 0.45935 0.12841 0.89103 0.0
H320 H 0.44129 0.22652 0.77143 0.0
H321 H 0.39579 0.07897 0.80412 0.0
H322 H 0.43272 0.10489 0.75548 0.0
H323 H 0.4557 0.17915 0.73884 0.0
H324 H 0.4046 0.19942 0.82001 0.0
H325 H 0.25504 0.0333 0.77732 0.0
H326 H 0.23346 0.96237 0.80011 0.0
O327 O 0.40398 0.0875 0.86029 0.0
C328 C 0.35559 0.10209 0.92 0.0
C329 C 0.27997 0.98913 0.83571 0.0
C330 C 0.27111 0.03116 0.79723 0.0
N331 N 0.32471 0.06574 0.83542 0.0
C332 C 0.3129 0.02688 0.84819 0.0
C333 C 0.30414 0.06825 0.81036 0.0
C334 C 0.25903 0.99137 0.81003 0.0
C335 C 0.44292 0.24998 0.90543 0.0
N336 N 0.43663 0.21656 0.9234 0.0
C337 C 0.43386 0.28115 0.91592 0.0
C338 C 0.41837 0.278 0.94505 0.0
C339 C 0.41221 0.24391 0.9633 0.0
C340 C 0.42153 0.2133 0.95202 0.0
C341 C 0.53586 0.2166 0.97871 0.0
C342 C 0.47197 0.13851 0.95698 0.0
C343 C 0.5116 0.21437 0.95357 0.0
N344 N 0.48004 0.17565 0.94308 0.0
C345 C 0.49558 0.13951 0.98217 0.0
C346 C 0.52775 0.17886 0.99305 0.0
C347 C 0.43858 0.09603 0.87396 0.0
C348 C 0.4313 0.19405 0.77839 0.0
C349 C 0.40578 0.11136 0.79707 0.0
C350 C 0.42659 0.12583 0.76948 0.0
C351 C 0.43945 0.16748 0.76014 0.0
N352 N 0.39789 0.13761 0.81483 0.0
C353 C 0.41034 0.17847 0.80581 0.0
Co354 Co 0.55967 0.73634 0.42602 0.0
Co355 Co 0.63594 0.75573 0.48036 0.0
O356 O 0.59084 0.76401 0.46274 0.0
C357 C 0.49228 0.71283 0.47136 0.0
O358 O 0.51645 0.70654 0.49037 0.0
C359 C 0.6768 0.84904 0.46989 0.0
O360 O 0.66067 0.83904 0.44269 0.0
O361 O 0.66515 0.76446 0.44086 0.0
O362 O 0.61334 0.74618 0.40636 0.0
H363 H 0.73436 0.69485 0.48692 0.0
H364 H 0.55168 0.80712 0.45309 0.0
O365 O 0.50507 0.72567 0.44476 0.0
H366 H 0.6081 0.8566 0.35102 0.0
H367 H 0.44893 0.70251 0.34555 0.0
H368 H 0.56136 0.67438 0.38304 0.0
H369 H 0.59157 0.78494 0.3685 0.0
H370 H 0.48988 0.73845 0.3913 0.0
O371 O 0.67062 0.81934 0.48835 0.0
H372 H 0.67693 0.70447 0.46481 0.0
H373 H 0.69208 0.79208 0.53409 0.0
H374 H 0.52148 0.63805 0.33702 0.0
H375 H 0.56745 0.87893 0.43647 0.0
H376 H 0.46475 0.652 0.31803 0.0
H377 H 0.59605 0.90415 0.38514 0.0
O378 O 0.54797 0.67937 0.44078 0.0
H379 H 0.56402 0.79116 0.56325 0.0
H380 H 0.60939 0.68985 0.52865 0.0
H381 H 0.57183 0.6773 0.57717 0.0
H382 H 0.54891 0.7282 0.59477 0.0
H383 H 0.60135 0.80231 0.51478 0.0
H384 H 0.7499 0.78365 0.55685 0.0
H385 H 0.77126 0.73462 0.53329 0.0
O386 O 0.60187 0.69208 0.47249 0.0
C387 C 0.65181 0.75792 0.41379 0.0
C388 C 0.72524 0.71619 0.49746 0.0
C389 C 0.73401 0.76609 0.53668 0.0
N390 N 0.68097 0.74853 0.49829 0.0
C391 C 0.69266 0.72167 0.4851 0.0
C392 C 0.70132 0.7708 0.52367 0.0
C393 C 0.74596 0.73856 0.52345 0.0
C394 C 0.56377 0.81774 0.43063 0.0
N395 N 0.57069 0.79187 0.41178 0.0
C396 C 0.57278 0.85848 0.42138 0.0
C397 C 0.58888 0.87264 0.39259 0.0
C398 C 0.59569 0.84599 0.37345 0.0
C399 C 0.5864 0.80549 0.38349 0.0
C400 C 0.47363 0.69624 0.35357 0.0
C401 C 0.53696 0.68086 0.37476 0.0
C402 C 0.49686 0.71643 0.37949 0.0
N403 N 0.52821 0.70877 0.38967 0.0
C404 C 0.51439 0.6601 0.34876 0.0
C405 C 0.48254 0.66791 0.33813 0.0
C406 C 0.56787 0.66675 0.45788 0.0
C407 C 0.57397 0.76883 0.55587 0.0
C408 C 0.59943 0.71209 0.53613 0.0
C409 C 0.57826 0.70487 0.56365 0.0
C410 C 0.56544 0.73346 0.57352 0.0
N411 N 0.60772 0.74689 0.51897 0.0
C412 C 0.59529 0.77509 0.52851 0.0
Co413 Co 0.83008 0.55532 0.75813 0.0
Co414 Co 0.88396 0.63143 0.8131 0.0
O415 O 0.83155 0.58696 0.7941 0.0
C416 C 0.78222 0.48857 0.80312 0.0
O417 O 0.81209 0.51238 0.8226 0.0
C418 C 0.83541 0.6758 0.79982 0.0
O419 O 0.83338 0.66326 0.77188 0.0
O420 O 0.90703 0.66072 0.77395 0.0
O421 O 0.87603 0.60867 0.73923 0.0
H422 H 0.04289 0.72922 0.8241 0.0
H423 H 0.75047 0.54965 0.78157 0.0
O424 O 0.78403 0.50122 0.77621 0.0
H425 H 0.76536 0.60444 0.67812 0.0
H426 H 0.75749 0.44346 0.67762 0.0
H427 H 0.89607 0.55544 0.71831 0.0
H428 H 0.81824 0.58695 0.69889 0.0
H429 H 0.76002 0.48584 0.72193 0.0
O430 O 0.8549 0.6662 0.81957 0.0
H431 H 0.97706 0.67217 0.80037 0.0
H432 H 0.90085 0.68714 0.86676 0.0
H433 H 0.89501 0.51411 0.67377 0.0
H434 H 0.6966 0.5664 0.76165 0.0
H435 H 0.82534 0.4575 0.65323 0.0
H436 H 0.70395 0.59413 0.70959 0.0
O437 O 0.87346 0.54267 0.77537 0.0
H438 H 0.7714 0.55964 0.89296 0.0
H439 H 0.9198 0.60406 0.86327 0.0
H440 H 0.89157 0.56629 0.91138 0.0
H441 H 0.81688 0.54386 0.92651 0.0
H442 H 0.80077 0.59713 0.84493 0.0
H443 H 0.96585 0.74456 0.89111 0.0
H444 H 0.03751 0.76582 0.86982 0.0
O445 O 0.91361 0.59717 0.80692 0.0
C446 C 0.90222 0.64723 0.74694 0.0
C447 C 0.01186 0.72013 0.83366 0.0
C448 C 0.96861 0.72878 0.87124 0.0
N449 N 0.93522 0.67611 0.83233 0.0
C450 C 0.97449 0.68776 0.82037 0.0
C451 C 0.93193 0.69631 0.85733 0.0
C452 C 0.00882 0.74069 0.85929 0.0
C453 C 0.75371 0.56144 0.75883 0.0
N454 N 0.78746 0.56732 0.7414 0.0
C455 C 0.72318 0.57098 0.7477 0.0
C456 C 0.72736 0.58659 0.7185 0.0
C457 C 0.76182 0.59241 0.70084 0.0
C458 C 0.79176 0.5826 0.71275 0.0
C459 C 0.78804 0.46807 0.68633 0.0
C460 C 0.86562 0.53118 0.7093 0.0
C461 C 0.78968 0.49213 0.71144 0.0
N462 N 0.82815 0.5233 0.72254 0.0
C463 C 0.86522 0.50776 0.68415 0.0
C464 C 0.82612 0.47599 0.67265 0.0
C465 C 0.90522 0.56275 0.79305 0.0
C466 C 0.80404 0.56937 0.88666 0.0
C467 C 0.88722 0.59429 0.86965 0.0
C468 C 0.87145 0.57301 0.89696 0.0
C469 C 0.82955 0.56046 0.90545 0.0
N470 N 0.86201 0.60295 0.85136 0.0
C471 C 0.82091 0.59079 0.85955 0.0
Co472 Co 0.26454 0.82279 0.09222 0.0
Co473 Co 0.24555 0.87799 0.14802 0.0
O474 O 0.23629 0.82517 0.12893 0.0
C475 C 0.28513 0.77544 0.13654 0.0
O476 O 0.29205 0.80555 0.15605 0.0
C477 C 0.15222 0.82997 0.13621 0.0
O478 O 0.16192 0.82767 0.10811 0.0
O479 O 0.2385 0.90117 0.10914 0.0
O480 O 0.25664 0.86858 0.07372 0.0
H481 H 0.30918 0.03731 0.15893 0.0
H482 H 0.19154 0.74384 0.11737 0.0
O483 O 0.27318 0.77691 0.10991 0.0
H484 H 0.14656 0.75697 0.01514 0.0
H485 H 0.29817 0.74805 0.01001 0.0
H486 H 0.3285 0.88779 0.05085 0.0
H487 H 0.21811 0.80997 0.03416 0.0
H488 H 0.26155 0.75177 0.0558 0.0
O489 O 0.18193 0.84955 0.15557 0.0
H490 H 0.29864 0.97097 0.13494 0.0
H491 H 0.20895 0.89589 0.20246 0.0
H492 H 0.36555 0.88554 0.00484 0.0
H493 H 0.11978 0.68986 0.0992 0.0
H494 H 0.3505 0.81528 0.98416 0.0
H495 H 0.09684 0.69633 0.04777 0.0
O496 O 0.32157 0.86637 0.1081 0.0
H497 H 0.20626 0.76585 0.22802 0.0
H498 H 0.31055 0.91362 0.19707 0.0
H499 H 0.32133 0.88548 0.2448 0.0
H500 H 0.26892 0.8111 0.26056 0.0
H501 H 0.19691 0.79512 0.18035 0.0
H502 H 0.21828 0.96141 0.2271 0.0
H503 H 0.26882 0.03276 0.20536 0.0
O504 O 0.30919 0.9069 0.14066 0.0
C505 C 0.24561 0.89561 0.08189 0.0
C506 C 0.28718 0.00642 0.16868 0.0
C507 C 0.23611 0.96381 0.20691 0.0
N508 N 0.25348 0.92966 0.16743 0.0
C509 C 0.28118 0.96876 0.15524 0.0
C510 C 0.2309 0.92683 0.19284 0.0
C511 C 0.26449 0.00384 0.19471 0.0
C512 C 0.18187 0.7467 0.09489 0.0
N513 N 0.20897 0.78003 0.07683 0.0
C514 C 0.14117 0.71611 0.08476 0.0
C515 C 0.1283 0.71979 0.05591 0.0
C516 C 0.15616 0.75382 0.0376 0.0
C517 C 0.19659 0.78384 0.04852 0.0
C518 C 0.30494 0.77885 0.01877 0.0
C519 C 0.32154 0.85709 0.04184 0.0
C520 C 0.28436 0.78116 0.04472 0.0
N521 N 0.29265 0.81996 0.05583 0.0
C522 C 0.34271 0.85602 0.01584 0.0
C523 C 0.33428 0.81659 0.00427 0.0
C524 C 0.33436 0.89827 0.12584 0.0
C525 C 0.22924 0.79835 0.22144 0.0
C526 C 0.28766 0.88118 0.20374 0.0
C527 C 0.29389 0.86546 0.23082 0.0
C528 C 0.26445 0.82374 0.23967 0.0
N529 N 0.25303 0.8561 0.186 0.0
C530 C 0.22401 0.81518 0.19454 0.0
Co531 Co 0.45063 0.27643 0.42235 0.0
Co532 Co 0.3735 0.25458 0.47651 0.0
O533 O 0.41907 0.24726 0.45866 0.0
C534 C 0.51734 0.29833 0.46792 0.0
O535 O 0.49298 0.30439 0.4869 0.0
C536 C 0.33337 0.16132 0.46558 0.0
O537 O 0.34948 0.1715 0.43838 0.0
O538 O 0.34447 0.24591 0.43702 0.0
O539 O 0.39703 0.26717 0.40272 0.0
H540 H 0.27298 0.31294 0.48342 0.0
H541 H 0.4585 0.20467 0.44775 0.0
O542 O 0.50501 0.28639 0.4411 0.0
H543 H 0.40353 0.15943 0.34486 0.0
H544 H 0.56323 0.31461 0.34258 0.0
H545 H 0.44936 0.34007 0.38078 0.0
H546 H 0.41951 0.23021 0.36394 0.0
H547 H 0.52106 0.27602 0.38731 0.0
O548 O 0.33945 0.19088 0.48414 0.0
H549 H 0.33126 0.30475 0.46126 0.0
H550 H 0.31738 0.2171 0.53016 0.0
H551 H 0.49049 0.37906 0.33581 0.0
H552 H 0.44327 0.13371 0.42953 0.0
H553 H 0.54803 0.36656 0.31652 0.0
H554 H 0.41542 0.11063 0.37777 0.0
O555 O 0.46201 0.33273 0.43828 0.0
H556 H 0.4462 0.21939 0.55896 0.0
H557 H 0.399 0.31967 0.5253 0.0
H558 H 0.43648 0.33202 0.57382 0.0
H559 H 0.46032 0.28163 0.59095 0.0
H560 H 0.40894 0.20845 0.51048 0.0
H561 H 0.25874 0.2241 0.55297 0.0
H562 H 0.2363 0.27243 0.52961 0.0
O563 O 0.40682 0.31841 0.46913 0.0
C564 C 0.35818 0.25397 0.41005 0.0
C565 C 0.28258 0.29191 0.49387 0.0
C566 C 0.27454 0.24199 0.53288 0.0
N567 N 0.32792 0.26077 0.49456 0.0
C568 C 0.31564 0.28725 0.48148 0.0
C569 C 0.3077 0.2381 0.51984 0.0
C570 C 0.26198 0.26913 0.51977 0.0
C571 C 0.44673 0.19498 0.42512 0.0
N572 N 0.43992 0.22156 0.40692 0.0
C573 C 0.43802 0.15471 0.41496 0.0
C574 C 0.42234 0.14176 0.38593 0.0
C575 C 0.41562 0.16911 0.36747 0.0
C576 C 0.4246 0.20911 0.37841 0.0
C577 C 0.53821 0.32029 0.35074 0.0
C578 C 0.47405 0.33414 0.37232 0.0
C579 C 0.51426 0.29858 0.37608 0.0
N580 N 0.48257 0.30556 0.38649 0.0
C581 C 0.49734 0.35642 0.34692 0.0
C582 C 0.52964 0.34941 0.33612 0.0
C583 C 0.44126 0.34446 0.45525 0.0
C584 C 0.43584 0.24149 0.55179 0.0
C585 C 0.40937 0.29766 0.53256 0.0
C586 C 0.43049 0.30477 0.56009 0.0
C587 C 0.44382 0.27646 0.5697 0.0
N588 N 0.40163 0.26327 0.51513 0.0
C589 C 0.41456 0.23535 0.52442 0.0
Co590 Co 0.17542 0.44259 0.76406 0.0
Co591 Co 0.11967 0.36614 0.81857 0.0
O592 O 0.17273 0.41098 0.80036 0.0
C593 C 0.22229 0.5096 0.80927 0.0
O594 O 0.1926 0.48572 0.82885 0.0
C595 C 0.17091 0.32459 0.80637 0.0
O596 O 0.17615 0.3407 0.77922 0.0
O597 O 0.09767 0.33718 0.77918 0.0
O598 O 0.13023 0.38928 0.7447 0.0
H599 H 0.96035 0.26887 0.82747 0.0
H600 H 0.25445 0.44883 0.78918 0.0
O601 O 0.22071 0.49681 0.78245 0.0
H602 H 0.24299 0.39333 0.68627 0.0
H603 H 0.25053 0.55378 0.68348 0.0
H604 H 0.11069 0.44229 0.72284 0.0
H605 H 0.18941 0.4109 0.70551 0.0
H606 H 0.2466 0.51203 0.72853 0.0
O607 O 0.14823 0.33098 0.82546 0.0
H608 H 0.02696 0.32602 0.80461 0.0
H609 H 0.10104 0.30963 0.87198 0.0
H610 H 0.11316 0.483 0.67755 0.0
H611 H 0.309 0.43202 0.77079 0.0
H612 H 0.18346 0.53928 0.65764 0.0
H613 H 0.30333 0.40387 0.71903 0.0
O614 O 0.13134 0.45502 0.78022 0.0
H615 H 0.22974 0.43666 0.90008 0.0
H616 H 0.08246 0.39314 0.86803 0.0
H617 H 0.10924 0.43028 0.91651 0.0
H618 H 0.18336 0.45226 0.93283 0.0
H619 H 0.2018 0.39978 0.85167 0.0
H620 H 0.03525 0.25207 0.89546 0.0
H621 H 0.96426 0.23147 0.87323 0.0
O622 O 0.09043 0.40068 0.81175 0.0
C623 C 0.10349 0.3508 0.75219 0.0
C624 C 0.99108 0.27765 0.83742 0.0
C625 C 0.03312 0.26818 0.87555 0.0
N626 N 0.06778 0.32134 0.83709 0.0
C627 C 0.02889 0.31007 0.82463 0.0
C628 C 0.07026 0.30073 0.86213 0.0
C629 C 0.9933 0.25665 0.86308 0.0
C630 C 0.25199 0.43693 0.76654 0.0
N631 N 0.21876 0.43081 0.74844 0.0
C632 C 0.28288 0.42733 0.75629 0.0
C633 C 0.27965 0.41149 0.72726 0.0
C634 C 0.24578 0.40552 0.70888 0.0
C635 C 0.21543 0.41538 0.71992 0.0
C636 C 0.2197 0.52928 0.69191 0.0
C637 C 0.14141 0.46647 0.71414 0.0
C638 C 0.21728 0.50559 0.71744 0.0
N639 N 0.17846 0.47452 0.72814 0.0
C640 C 0.14261 0.48952 0.68855 0.0
C641 C 0.18206 0.52112 0.67741 0.0
C642 C 0.09916 0.43501 0.79759 0.0
C643 C 0.19734 0.42712 0.89326 0.0
C644 C 0.11479 0.4027 0.87494 0.0
C645 C 0.12974 0.42364 0.90245 0.0
C646 C 0.17132 0.43593 0.9116 0.0
N647 N 0.14048 0.39414 0.8571 0.0
C648 C 0.18127 0.40606 0.86593 0.0
Co649 Co 0.72363 0.17293 0.09159 0.0
Co650 Co 0.74636 0.11608 0.14387 0.0
O651 O 0.75331 0.16955 0.1273 0.0
C652 C 0.70275 0.21713 0.13845 0.0
O653 O 0.69746 0.18683 0.15728 0.0
C654 C 0.83935 0.16968 0.13259 0.0
O655 O 0.82882 0.17652 0.10577 0.0
O656 O 0.75489 0.09728 0.10373 0.0
O657 O 0.73255 0.12916 0.07076 0.0
H658 H 0.68868 0.95703 0.14754 0.0
H659 H 0.79576 0.25192 0.11738 0.0
O660 O 0.71397 0.21686 0.11142 0.0
H661 H 0.83945 0.2448 0.0135 0.0
H662 H 0.68426 0.24942 0.0142 0.0
H663 H 0.6592 0.10905 0.04989 0.0
H664 H 0.76895 0.18951 0.03267 0.0
H665 H 0.72364 0.2447 0.05804 0.0
O666 O 0.81007 0.14565 0.15114 0.0
H667 H 0.69645 0.0242 0.12701 0.0
H668 H 0.7844 0.09571 0.19637 0.0
H669 H 0.61941 0.11232 0.00579 0.0
H670 H 0.86646 0.30812 0.09908 0.0
H671 H 0.6317 0.18289 0.98778 0.0
H672 H 0.88876 0.30466 0.04682 0.0
O673 O 0.66763 0.12761 0.10762 0.0
H674 H 0.78202 0.22076 0.22864 0.0
H675 H 0.68168 0.07449 0.19269 0.0
H676 H 0.6697 0.09767 0.24213 0.0
H677 H 0.72013 0.17127 0.26041 0.0
H678 H 0.79258 0.19639 0.17924 0.0
H679 H 0.77781 0.02935 0.21756 0.0
H680 H 0.72955 0.95937 0.19315 0.0
O681 O 0.68253 0.08559 0.1368 0.0
C682 C 0.74629 0.10365 0.0771 0.0
C683 C 0.70968 0.98731 0.15845 0.0
C684 C 0.75976 0.02791 0.19772 0.0
N685 N 0.74054 0.06374 0.16064 0.0
C686 C 0.71411 0.02542 0.14698 0.0
C687 C 0.76342 0.06537 0.1856 0.0
C688 C 0.73266 0.98865 0.18401 0.0
C689 C 0.80511 0.25042 0.09453 0.0
N690 N 0.77825 0.2175 0.0761 0.0
C691 C 0.84523 0.28224 0.08433 0.0
C692 C 0.85775 0.28025 0.05502 0.0
C693 C 0.83011 0.24665 0.03632 0.0
C694 C 0.79027 0.21536 0.04732 0.0
C695 C 0.67867 0.21849 0.02182 0.0
C696 C 0.66505 0.13991 0.04198 0.0
C697 C 0.70083 0.21561 0.04664 0.0
N698 N 0.69394 0.17665 0.05636 0.0
C699 C 0.64231 0.14155 0.01707 0.0
C700 C 0.6492 0.18115 0.00698 0.0
C701 C 0.65624 0.09446 0.12383 0.0
C702 C 0.7599 0.18857 0.22096 0.0
C703 C 0.70369 0.10661 0.20045 0.0
C704 C 0.6968 0.11952 0.22849 0.0
C705 C 0.72513 0.16081 0.23875 0.0
N706 N 0.73789 0.13402 0.18315 0.0
C707 C 0.76583 0.17453 0.19307 0.0
H708 H 0.30991 0.73088 0.10085 0.0
H709 H 0.27176 0.73809 0.19162 0.0
H710 H 0.31569 0.66848 0.11416 0.0
H711 H 0.27444 0.6738 0.20468 0.0
H712 H 0.27161 0.52932 0.13712 0.0
H713 H 0.27399 0.59613 0.12395 0.0
H714 H 0.31663 0.64366 0.2141 0.0
H715 H 0.31116 0.57567 0.22754 0.0
C716 C 0.30252 0.71879 0.12366 0.0
C717 C 0.29035 0.73904 0.14526 0.0
C718 C 0.30545 0.68281 0.13126 0.0
C719 C 0.29516 0.66562 0.16045 0.0
C720 C 0.28343 0.68643 0.18213 0.0
C721 C 0.28158 0.72313 0.17468 0.0
C722 C 0.2817 0.5543 0.15395 0.0
C723 C 0.29091 0.54747 0.18332 0.0
C724 C 0.28336 0.59274 0.14643 0.0
C725 C 0.29534 0.62548 0.16799 0.0
C726 C 0.30617 0.61893 0.1971 0.0
C727 C 0.30343 0.58013 0.20477 0.0
H728 H 0.73998 0.32409 0.56337 0.0
H729 H 0.74904 0.28406 0.47356 0.0
H730 H 0.67841 0.33039 0.54856 0.0
H731 H 0.68555 0.28735 0.459 0.0
H732 H 0.58804 0.32379 0.43354 0.0
H733 H 0.65579 0.32967 0.44823 0.0
H734 H 0.60624 0.28821 0.53812 0.0
H735 H 0.53965 0.28533 0.52368 0.0
C736 C 0.72851 0.31645 0.54044 0.0
C737 C 0.74897 0.3035 0.51956 0.0
C738 C 0.693 0.31969 0.53198 0.0
C739 C 0.6765 0.30894 0.50264 0.0
C740 C 0.69765 0.29663 0.48164 0.0
C741 C 0.73388 0.29446 0.48995 0.0
C742 C 0.592 0.31641 0.45652 0.0
C743 C 0.55883 0.30405 0.47753 0.0
C744 C 0.63067 0.31941 0.46491 0.0
C745 C 0.63658 0.30902 0.49431 0.0
C746 C 0.60334 0.29724 0.51542 0.0
C747 C 0.56502 0.2953 0.50718 0.0
H748 H 0.46744 0.74226 0.8066 0.0
H749 H 0.42638 0.73475 0.89862 0.0
H750 H 0.39999 0.67785 0.79463 0.0
H751 H 0.35773 0.67215 0.88648 0.0
H752 H 0.26174 0.53276 0.86378 0.0
H753 H 0.32656 0.59971 0.8763 0.0
H754 H 0.32723 0.64799 0.78707 0.0
H755 H 0.26437 0.57997 0.77421 0.0
C756 C 0.44351 0.7272 0.82408 0.0
C757 C 0.452 0.74311 0.8535 0.0
C758 C 0.40468 0.69043 0.81726 0.0
C759 C 0.37319 0.66951 0.83961 0.0
C760 C 0.38146 0.6866 0.86884 0.0
C761 C 0.42065 0.7227 0.87578 0.0
C762 C 0.27578 0.55795 0.84704 0.0
C763 C 0.25851 0.55133 0.81804 0.0
C764 C 0.31278 0.59645 0.85418 0.0
C765 C 0.33252 0.6294 0.83263 0.0
C766 C 0.3138 0.62309 0.80399 0.0
C767 C 0.27754 0.58426 0.79667 0.0
H768 H 0.6817 0.41786 0.233 0.0
H769 H 0.71532 0.4619 0.14151 0.0
H770 H 0.67543 0.34953 0.21942 0.0
H771 H 0.71195 0.39474 0.12811 0.0
H772 H 0.71904 0.25445 0.19374 0.0
H773 H 0.71674 0.31866 0.20794 0.0
H774 H 0.66835 0.32216 0.11954 0.0
H775 H 0.67361 0.2599 0.10503 0.0
C776 C 0.68798 0.41286 0.20997 0.0
C777 C 0.69901 0.44496 0.18825 0.0
C778 C 0.68473 0.37384 0.20221 0.0
C779 C 0.69344 0.36649 0.1727 0.0
C780 C 0.70414 0.39874 0.15093 0.0
C781 C 0.70638 0.4374 0.15857 0.0
C782 C 0.70764 0.26894 0.17756 0.0
C783 C 0.69684 0.25269 0.14831 0.0
C784 C 0.70606 0.30561 0.18566 0.0
C785 C 0.69267 0.326 0.16481 0.0
C786 C 0.67999 0.30821 0.13594 0.0
C787 C 0.6826 0.27229 0.12767 0.0
H788 H 0.46862 0.7255 0.52677 0.0
H789 H 0.42186 0.68546 0.4365 0.0
H790 H 0.40131 0.72175 0.54032 0.0
H791 H 0.35342 0.67866 0.45031 0.0
H792 H 0.25981 0.72479 0.4732 0.0
H793 H 0.32339 0.72102 0.45979 0.0
H794 H 0.32894 0.67966 0.55023 0.0
H795 H 0.26725 0.68647 0.56387 0.0
C796 C 0.44344 0.71494 0.51007 0.0
C797 C 0.4503 0.70612 0.48061 0.0
C798 C 0.40471 0.7125 0.5178 0.0
C799 C 0.37178 0.70014 0.49635 0.0
C800 C 0.3783 0.68942 0.46721 0.0
C801 C 0.41736 0.69294 0.45933 0.0
C802 C 0.27461 0.71462 0.49002 0.0
C803 C 0.25908 0.70625 0.51954 0.0
C804 C 0.3109 0.71216 0.48238 0.0
C805 C 0.33165 0.70022 0.50397 0.0
C806 C 0.31465 0.69006 0.5332 0.0
C807 C 0.27909 0.69359 0.54099 0.0
H808 H 0.58461 0.26369 0.89619 0.0
H809 H 0.53601 0.25564 0.80634 0.0
H810 H 0.6521 0.32626 0.88195 0.0
H811 H 0.60241 0.32008 0.79237 0.0
H812 H 0.73697 0.41869 0.76794 0.0
H813 H 0.67475 0.35071 0.78187 0.0
H814 H 0.68139 0.3986 0.87212 0.0
H815 H 0.74543 0.46545 0.85843 0.0
C816 C 0.58846 0.27559 0.87337 0.0
C817 C 0.5553 0.2551 0.85231 0.0
C818 C 0.62698 0.31168 0.86525 0.0
C819 C 0.63276 0.32872 0.83608 0.0
C820 C 0.59956 0.30759 0.81489 0.0
C821 C 0.56137 0.27079 0.82286 0.0
C822 C 0.7252 0.41436 0.79082 0.0
C823 C 0.74577 0.44712 0.81216 0.0
C824 C 0.68933 0.37554 0.79878 0.0
C825 C 0.67262 0.36905 0.82809 0.0
C826 C 0.69368 0.40195 0.84949 0.0
C827 C 0.73024 0.44042 0.84167 0.0
H828 H 0.59773 0.48035 0.19073 0.0
H829 H 0.61059 0.60212 0.21456 0.0
H830 H 0.52054 0.44926 0.18585 0.0
H831 H 0.53309 0.57069 0.21278 0.0
H832 H 0.39373 0.51449 0.19155 0.0
H833 H 0.47109 0.54593 0.18831 0.0
H834 H 0.45716 0.42192 0.20883 0.0
H835 H 0.37964 0.39045 0.20899 0.0
C836 C 0.58369 0.5003 0.19515 0.0
C837 C 0.60987 0.54356 0.20288 0.0
C838 C 0.53922 0.48241 0.19276 0.0
C839 C 0.5195 0.50693 0.19918 0.0
C840 C 0.54632 0.55054 0.2069 0.0
C841 C 0.59096 0.56874 0.20821 0.0
C842 C 0.4075 0.49408 0.19492 0.0
C843 C 0.38091 0.45012 0.20039 0.0
C844 C 0.45207 0.51213 0.19347 0.0
C845 C 0.47145 0.48698 0.19863 0.0
C846 C 0.44424 0.44267 0.20401 0.0
C847 C 0.39956 0.42441 0.20437 0.0
H848 H 0.01496 0.62166 0.54738 0.0
H849 H 0.12391 0.60673 0.52809 0.0
H850 H 0.96836 0.54416 0.54699 0.0
H851 H 0.0774 0.52944 0.5246 0.0
H852 H 0.99338 0.38948 0.54966 0.0
H853 H 0.04003 0.46695 0.54848 0.0
H854 H 0.93143 0.48116 0.52371 0.0
H855 H 0.88483 0.40399 0.52798 0.0
C856 C 0.02864 0.60157 0.54233 0.0
C857 C 0.07289 0.61997 0.53788 0.0
C858 C 0.0019 0.5569 0.54182 0.0
C859 C 0.01854 0.52946 0.5358 0.0
C860 C 0.06297 0.54861 0.53024 0.0
C861 C 0.08981 0.59315 0.53183 0.0
C862 C 0.97981 0.40945 0.54392 0.0
C863 C 0.93564 0.39096 0.53903 0.0
C864 C 0.00658 0.4541 0.54295 0.0
C865 C 0.99007 0.4814 0.53604 0.0
C866 C 0.94575 0.46213 0.53003 0.0
C867 C 0.91886 0.41765 0.53207 0.0
H868 H 0.51809 0.11693 0.85479 0.0
H869 H 0.3984 0.01024 0.88464 0.0
H870 H 0.54852 0.07024 0.85002 0.0
H871 H 0.42943 0.9638 0.88295 0.0
H872 H 0.4837 0.87878 0.86182 0.0
H873 H 0.45208 0.92456 0.85863 0.0
H874 H 0.57752 0.03589 0.87319 0.0
H875 H 0.60892 0.98981 0.87331 0.0
C876 C 0.49847 0.0833 0.86054 0.0
C877 C 0.45597 0.06699 0.86993 0.0
C878 C 0.51601 0.05642 0.85823 0.0
C879 C 0.49199 0.01273 0.86639 0.0
C880 C 0.44912 0.99669 0.87573 0.0
C881 C 0.43117 0.02336 0.87699 0.0
C882 C 0.50435 0.91318 0.86392 0.0
C883 C 0.54868 0.93088 0.86768 0.0
C884 C 0.48622 0.93963 0.86248 0.0
C885 C 0.51178 0.9845 0.86593 0.0
C886 C 0.55642 0.00191 0.86968 0.0
C887 C 0.57466 0.97548 0.87003 0.0
H888 H 0.48532 0.60644 0.46933 0.0
H889 H 0.61006 0.62191 0.45266 0.0
H890 H 0.45456 0.52915 0.47253 0.0
H891 H 0.57928 0.54444 0.45278 0.0
H892 H 0.5221 0.40404 0.47136 0.0
H893 H 0.5524 0.48117 0.47582 0.0
H894 H 0.43048 0.46695 0.44847 0.0
H895 H 0.3998 0.38949 0.44711 0.0
C896 C 0.50604 0.59299 0.46609 0.0
C897 C 0.55001 0.61998 0.46086 0.0
C898 C 0.48837 0.54845 0.46752 0.0
C899 C 0.51392 0.52945 0.46262 0.0
C900 C 0.55822 0.55704 0.45742 0.0
C901 C 0.57609 0.60171 0.45707 0.0
C902 C 0.50185 0.41769 0.46675 0.0
C903 C 0.45866 0.39101 0.45903 0.0
C904 C 0.5193 0.46215 0.46889 0.0
C905 C 0.49443 0.4814 0.46223 0.0
C906 C 0.4509 0.4541 0.45452 0.0
C907 C 0.43312 0.40947 0.45346 0.0
H908 H 0.88213 0.48056 0.80667 0.0
H909 H 0.99226 0.60445 0.78903 0.0
H910 H 0.92825 0.44964 0.81215 0.0
H911 H 0.0386 0.5734 0.79142 0.0
H912 H 0.12072 0.51622 0.81306 0.0
H913 H 0.07411 0.54691 0.81624 0.0
H914 H 0.96643 0.42467 0.7892 0.0
H915 H 0.0129 0.39369 0.78911 0.0
C916 C 0.91641 0.50104 0.80373 0.0
C917 C 0.93376 0.54481 0.79752 0.0
C918 C 0.94304 0.48328 0.80647 0.0
C919 C 0.98771 0.50851 0.80193 0.0
C920 C 0.0048 0.55263 0.79582 0.0
C921 C 0.97822 0.57064 0.79415 0.0
C922 C 0.08686 0.49599 0.80829 0.0
C923 C 0.07023 0.45265 0.801 0.0
C924 C 0.06 0.51365 0.80969 0.0
C925 C 0.01598 0.48879 0.80267 0.0
C926 C 0.99962 0.44508 0.7955 0.0
C927 C 0.02629 0.42713 0.79517 0.0
H928 H 0.39464 0.87527 0.1352 0.0
H929 H 0.37922 0.98546 0.12315 0.0
H930 H 0.47194 0.92167 0.13868 0.0
H931 H 0.45661 0.03215 0.12357 0.0
H932 H 0.59676 0.11443 0.1425 0.0
H933 H 0.51972 0.0671 0.14697 0.0
H934 H 0.53404 0.96139 0.11469 0.0
H935 H 0.61144 0.0085 0.1133 0.0
C936 C 0.40809 0.90962 0.13304 0.0
C937 C 0.38112 0.92688 0.12903 0.0
C938 C 0.45262 0.93643 0.13465 0.0
C939 C 0.47158 0.98125 0.13114 0.0
C940 C 0.44401 0.99823 0.12714 0.0
C941 C 0.39939 0.97144 0.12662 0.0
C942 C 0.58315 0.08083 0.13681 0.0
C943 C 0.60982 0.06495 0.12768 0.0
C944 C 0.53876 0.05357 0.13896 0.0
C945 C 0.51957 0.00989 0.13088 0.0
C946 C 0.54686 0.99427 0.12182 0.0
C947 C 0.59145 0.02132 0.12073 0.0
H948 H 0.24796 0.27216 0.24114 0.0
H949 H 0.23942 0.35429 0.30833 0.0
H950 H 0.26147 0.23336 0.28072 0.0
H951 H 0.25311 0.31602 0.34743 0.0
H952 H 0.2777 0.24369 0.41573 0.0
H953 H 0.23458 0.25008 0.3759 0.0
H954 H 0.32856 0.26275 0.31023 0.0
H955 H 0.37123 0.25612 0.34956 0.0
C956 C 0.24777 0.2812 0.26433 0.0
C957 C 0.24354 0.3169 0.27155 0.0
C958 C 0.25557 0.25903 0.28696 0.0
C959 C 0.25882 0.27198 0.31711 0.0
C960 C 0.25048 0.305 0.32447 0.0
C961 C 0.24306 0.32729 0.30193 0.0
C962 C 0.28861 0.24679 0.39271 0.0
C963 C 0.32833 0.25021 0.38591 0.0
C964 C 0.2639 0.25042 0.36993 0.0
C965 C 0.27834 0.25719 0.34 0.0
C966 C 0.31627 0.25707 0.333 0.0
C967 C 0.34104 0.25375 0.35569 0.0
H968 H 0.9715 0.24718 0.58326 0.0
H969 H 0.88698 0.25506 0.64875 0.0
H970 H 0.02115 0.25531 0.62349 0.0
H971 H 0.93641 0.26338 0.6885 0.0
H972 H 0.11706 0.36077 0.69179 0.0
H973 H 0.066 0.32192 0.65233 0.0
H974 H 0.97592 0.23596 0.71825 0.0
H975 H 0.02736 0.27528 0.7582 0.0
C976 C 0.96297 0.2496 0.60622 0.0
C977 C 0.92565 0.25129 0.61272 0.0
C978 C 0.99141 0.25425 0.62922 0.0
C979 C 0.98279 0.26029 0.65908 0.0
C980 C 0.94379 0.25834 0.66579 0.0
C981 C 0.91561 0.25403 0.64287 0.0
C982 C 0.08686 0.33298 0.69794 0.0
C983 C 0.07599 0.32166 0.72822 0.0
C984 C 0.05767 0.31037 0.6752 0.0
C985 C 0.01682 0.27611 0.68222 0.0
C986 C 0.00712 0.26253 0.71227 0.0
C987 C 0.03659 0.28501 0.7351 0.0
H988 H 0.65236 0.88702 0.97343 0.0
H989 H 0.72626 0.98098 0.90542 0.0
H990 H 0.69091 0.93912 0.01234 0.0
H991 H 0.76555 0.03354 0.94482 0.0
H992 H 0.74024 0.11483 0.01706 0.0
H993 H 0.73492 0.06756 0.97664 0.0
H994 H 0.75657 0.9889 0.03949 0.0
H995 H 0.7615 0.03629 0.08046 0.0
C996 C 0.67768 0.9185 0.96677 0.0
C997 C 0.68554 0.93017 0.93633 0.0
C998 C 0.7002 0.94833 0.98918 0.0
C999 C 0.73092 0.9906 0.98163 0.0
C1000 C 0.74163 0.00125 0.95122 0.0
C1001 C 0.71922 0.97115 0.9287 0.0
C1002 C 0.74482 0.08805 0.02233 0.0
C1003 C 0.75042 0.07889 0.05214 0.0
C1004 C 0.74229 0.06116 0.99898 0.0
C1005 C 0.74508 0.02436 0.00491 0.0
C1006 C 0.75394 0.0169 0.03435 0.0
C1007 C 0.7567 0.04401 0.05779 0.0
H1008 H 0.64121 0.76174 0.35346 0.0
H1009 H 0.72854 0.75969 0.41922 0.0
H1010 H 0.67973 0.74959 0.31375 0.0
H1011 H 0.76765 0.74788 0.37901 0.0
H1012 H 0.7465 0.637 0.31215 0.0
H1013 H 0.73958 0.6801 0.35091 0.0
H1014 H 0.7446 0.76913 0.28375 0.0
H1015 H 0.75136 0.72546 0.24442 0.0
C1016 C 0.66938 0.75992 0.3594 0.0
C1017 C 0.68116 0.76064 0.38961 0.0
C1018 C 0.69182 0.75339 0.3365 0.0
C1019 C 0.7264 0.74724 0.34331 0.0
C1020 C 0.74073 0.75202 0.37321 0.0
C1021 C 0.71837 0.75882 0.3962 0.0
C1022 C 0.74714 0.66623 0.30554 0.0
C1023 C 0.74869 0.67732 0.2751 0.0
C1024 C 0.74367 0.6913 0.3279 0.0
C1025 C 0.74135 0.72792 0.32038 0.0
C1026 C 0.74603 0.74085 0.29013 0.0
C1027 C 0.74987 0.71584 0.26766 0.0
H1028 H 0.12224 0.76216 0.64542 0.0
H1029 H 0.03272 0.75793 0.5789 0.0
H1030 H 0.071 0.74969 0.68481 0.0
H1031 H 0.9812 0.74572 0.61876 0.0
H1032 H 0.89188 0.6356 0.68638 0.0
H1033 H 0.94204 0.67812 0.64746 0.0
H1034 H 0.02492 0.76928 0.71403 0.0
H1035 H 0.97437 0.72625 0.7535 0.0
C1036 C 0.09207 0.75977 0.63924 0.0
C1037 C 0.0812 0.76004 0.60893 0.0
C1038 C 0.06279 0.75306 0.66194 0.0
C1039 C 0.02188 0.74622 0.65483 0.0
C1040 C 0.0124 0.75042 0.6248 0.0
C1041 C 0.04192 0.75746 0.60201 0.0
C1042 C 0.92024 0.66515 0.69281 0.0
C1043 C 0.92944 0.67708 0.72315 0.0
C1044 C 0.94886 0.68987 0.67035 0.0
C1045 C 0.98751 0.72697 0.6777 0.0
C1046 C 0.99542 0.74064 0.70779 0.0
C1047 C 0.96651 0.71599 0.73035 0.0
H1048 H 0.24008 0.88257 0.02141 0.0
H1049 H 0.24793 0.9724 0.08906 0.0
H1050 H 0.25283 0.93452 0.98252 0.0
H1051 H 0.26049 0.02473 0.04967 0.0
H1052 H 0.36908 0.11298 0.98044 0.0
H1053 H 0.32716 0.06333 0.01983 0.0
H1054 H 0.23313 0.98127 0.95444 0.0
H1055 H 0.2755 0.03117 0.91453 0.0
C1056 C 0.24339 0.91301 0.02796 0.0
C1057 C 0.24392 0.92367 0.0584 0.0
C1058 C 0.25025 0.94272 0.00554 0.0
C1059 C 0.25808 0.98386 0.01306 0.0
C1060 C 0.25495 0.99332 0.0433 0.0
C1061 C 0.24771 0.96336 0.06582 0.0
C1062 C 0.33902 0.08492 0.97439 0.0
C1063 C 0.3261 0.07567 0.94421 0.0
C1064 C 0.31467 0.05661 0.99712 0.0
C1065 C 0.27698 0.01827 0.9902 0.0
C1066 C 0.26228 0.01049 0.96034 0.0
C1067 C 0.28657 0.03906 0.93752 0.0
H1068 H 0.87328 0.16174 0.18572 0.0
H1069 H 0.90939 0.22495 0.09938 0.0
H1070 H 0.94867 0.19648 0.20011 0.0
H1071 H 0.98462 0.26021 0.11398 0.0
H1072 H 0.11803 0.284 0.13882 0.0
H1073 H 0.04258 0.24602 0.1242 0.0
H1074 H 0.00749 0.26695 0.21279 0.0
H1075 H 0.08264 0.30416 0.22756 0.0
C1076 C 0.89726 0.18308 0.16981 0.0
C1077 C 0.88521 0.19048 0.14137 0.0
C1078 C 0.94052 0.20319 0.17813 0.0
C1079 C 0.97282 0.23121 0.15822 0.0
C1080 C 0.96071 0.2384 0.12973 0.0
C1081 C 0.91748 0.21832 0.12142 0.0
C1082 C 0.0942 0.28034 0.15521 0.0
C1083 C 0.10645 0.29706 0.18439 0.0
C1084 C 0.05093 0.25877 0.14678 0.0
C1085 C 0.01886 0.25338 0.1673 0.0
C1086 C 0.03119 0.26992 0.19652 0.0
C1087 C 0.07439 0.29148 0.20495 0.0
H1088 H 0.83844 0.12786 0.47902 0.0
H1089 H 0.77827 0.0911 0.56632 0.0
H1090 H 0.80244 0.0526 0.46405 0.0
H1091 H 0.74176 0.01602 0.55117 0.0
H1092 H 0.69297 0.91951 0.43674 0.0
H1093 H 0.7313 0.99445 0.45208 0.0
H1094 H 0.75444 0.95751 0.53936 0.0
H1095 H 0.71537 0.88227 0.52417 0.0
C1096 C 0.81753 0.10376 0.49502 0.0
C1097 C 0.81135 0.11561 0.5239 0.0
C1098 C 0.79667 0.06058 0.48638 0.0
C1099 C 0.76911 0.02813 0.50637 0.0
C1100 C 0.76318 0.04002 0.53531 0.0
C1101 C 0.78399 0.08318 0.54395 0.0
C1102 C 0.70634 0.92729 0.45919 0.0
C1103 C 0.70109 0.89477 0.4792 0.0
C1104 C 0.72856 0.97039 0.46794 0.0
C1105 C 0.7461 0.98216 0.49695 0.0
C1106 C 0.74095 0.94962 0.51695 0.0
C1107 C 0.71874 0.90646 0.50819 0.0
H1108 H 0.81754 0.72632 0.764 0.0
H1109 H 0.80525 0.68058 0.85509 0.0
H1110 H 0.78306 0.76711 0.77804 0.0
H1111 H 0.76799 0.71873 0.86892 0.0
H1112 H 0.73409 0.8192 0.89378 0.0
H1113 H 0.77322 0.78324 0.8793 0.0
H1114 H 0.72001 0.76461 0.7897 0.0
H1115 H 0.68346 0.80342 0.80391 0.0
C1116 C 0.80701 0.72467 0.78701 0.0
C1117 C 0.81424 0.70041 0.80846 0.0
C1118 C 0.78682 0.74781 0.79509 0.0
C1119 C 0.77234 0.74645 0.82472 0.0
C1120 C 0.77939 0.72168 0.84607 0.0
C1121 C 0.80053 0.69941 0.83812 0.0
C1122 C 0.73106 0.80762 0.87093 0.0
C1123 C 0.70582 0.81421 0.84996 0.0
C1124 C 0.75321 0.78654 0.86262 0.0
C1125 C 0.74983 0.77042 0.83327 0.0
C1126 C 0.72436 0.77712 0.81233 0.0
C1127 C 0.70306 0.79918 0.82048 0.0
H1128 H 0.9084 0.72512 0.23251 0.0
H1129 H 0.87304 0.67652 0.1422 0.0
H1130 H 0.98343 0.76489 0.21778 0.0
H1131 H 0.94826 0.71363 0.12771 0.0
H1132 H 0.08306 0.81237 0.10145 0.0
H1133 H 0.00807 0.77718 0.11624 0.0
H1134 H 0.04334 0.76134 0.20633 0.0
H1135 H 0.11854 0.79938 0.19177 0.0
C1136 C 0.91682 0.72263 0.20952 0.0
C1137 C 0.88485 0.69784 0.18849 0.0
C1138 C 0.96002 0.74517 0.20105 0.0
C1139 C 0.97257 0.74265 0.17146 0.0
C1140 C 0.94027 0.71743 0.15052 0.0
C1141 C 0.89697 0.69576 0.15884 0.0
C1142 C 0.07467 0.80154 0.12446 0.0
C1143 C 0.10666 0.80875 0.14547 0.0
C1144 C 0.03149 0.78091 0.13296 0.0
C1145 C 0.01897 0.76589 0.16257 0.0
C1146 C 0.05131 0.77307 0.18351 0.0
C1147 C 0.09459 0.79467 0.17515 0.0
H1148 H 0.17084 0.88236 0.47482 0.0
H1149 H 0.23 0.91953 0.5624 0.0
H1150 H 0.20748 0.95755 0.45953 0.0
H1151 H 0.26711 0.99444 0.54695 0.0
H1152 H 0.31744 0.09082 0.43246 0.0
H1153 H 0.27872 0.01581 0.44777 0.0
H1154 H 0.25475 0.05284 0.53476 0.0
H1155 H 0.29418 0.12803 0.51963 0.0
C1156 C 0.19166 0.90653 0.49082 0.0
C1157 C 0.19734 0.89483 0.51988 0.0
C1158 C 0.21289 0.94966 0.48199 0.0
C1159 C 0.2403 0.98219 0.50199 0.0
C1160 C 0.24579 0.97041 0.53108 0.0
C1161 C 0.22462 0.92732 0.5399 0.0
C1162 C 0.30382 0.08302 0.45484 0.0
C1163 C 0.30896 0.11555 0.4748 0.0
C1164 C 0.28137 0.0399 0.46357 0.0
C1165 C 0.26351 0.02814 0.49251 0.0
C1166 C 0.26852 0.0607 0.51243 0.0
C1167 C 0.29095 0.10385 0.50369 0.0
H1168 H 0.16661 0.2855 0.86018 0.0
H1169 H 0.22463 0.30896 0.77212 0.0
H1170 H 0.20332 0.24665 0.87436 0.0
H1171 H 0.26186 0.27087 0.78647 0.0
H1172 H 0.28947 0.16418 0.81204 0.0
H1173 H 0.2496 0.19985 0.79792 0.0
H1174 H 0.27492 0.26002 0.88526 0.0
H1175 H 0.31405 0.22382 0.89958 0.0
C1176 C 0.18718 0.2824 0.84385 0.0
C1177 C 0.19255 0.30029 0.81499 0.0
C1178 C 0.20845 0.26032 0.85203 0.0
C1179 C 0.23561 0.25559 0.83157 0.0
C1180 C 0.24074 0.27331 0.80266 0.0
C1181 C 0.21951 0.29538 0.79448 0.0
C1182 C 0.28642 0.18492 0.82827 0.0
C1183 C 0.30493 0.19104 0.85697 0.0
C1184 C 0.26375 0.20557 0.82011 0.0
C1185 C 0.25901 0.23287 0.84043 0.0
C1186 C 0.27736 0.23878 0.86918 0.0
C1187 C 0.30004 0.21816 0.87734 0.0
loop_
_geom_bond_atom_site_label_1
_geom_bond_atom_site_label_2
_geom_bond_distance
_geom_bond_site_symmetry_2
_ccdc_geom_bond_type
Co0 O2 2.143 . S
Co0 O8 2.074 . S
Co0 O11 2.093 . S
Co0 O24 2.097 . S
Co0 N41 2.151 . S
Co0 N49 2.214 . S
Co1 O2 2.160 . S
Co1 O7 2.058 . S
Co1 O17 2.057 . S
Co1 O32 2.037 . S
Co1 N36 2.145 . S
Co1 N57 2.257 . S
O2 Co0 2.143 . S
O2 Co1 2.160 . S
C3 O4 1.278 . S
C3 O11 1.224 . S
O4 C3 1.278 . S
C5 O6 1.245 . S
C5 O17 1.232 . S
O6 C5 1.245 . S
O7 Co1 2.058 . S
O7 C33 1.269 . S
O8 Co0 2.074 . S
O8 C33 1.257 . S
H9 C34 0.930 . S
H10 C40 0.930 . S
O11 Co0 2.093 . S
O11 C3 1.224 . S
H12 C44 0.929 . S
H13 C46 0.930 . S
H14 C47 0.930 . S
H15 C45 0.929 . S
H16 C48 0.928 . S
O17 Co1 2.057 . S
O17 C5 1.232 . S
H18 C37 0.929 . S
H19 C38 0.929 . S
H20 C50 0.931 . S
H21 C42 0.929 . S
H22 C51 0.930 . S
H23 C43 0.931 . S
O24 Co0 2.097 . S
O24 C52 1.214 . S
H25 C53 0.929 . S
H26 C54 0.929 . S
H27 C55 0.930 . S
H28 C56 0.929 . S
H29 C58 0.930 . S
H30 C35 0.930 . S
H31 C39 0.930 . S
O32 Co1 2.037 . S
O32 C52 1.234 . S
C33 O7 1.269 . S
C33 O8 1.257 . S
C34 H9 0.930 . S
C34 C37 1.388 . S
C34 C39 1.418 . S
C35 H30 0.930 . S
C35 C38 1.404 . S
C35 C39 1.353 . S
N36 Co1 2.145 . S
N36 C37 1.397 . S
N36 C38 1.334 . S
C37 H18 0.929 . S
C37 C34 1.388 . S
C37 N36 1.397 . S
C38 H19 0.929 . S
C38 C35 1.404 . S
C38 N36 1.334 . S
C39 H31 0.930 . S
C39 C34 1.418 . S
C39 C35 1.353 . S
C40 H10 0.930 . S
C40 N41 1.330 . S
C40 C42 1.446 . S
N41 Co0 2.151 . S
N41 C40 1.330 . S
N41 C45 1.418 . S
C42 H21 0.929 . S
C42 C40 1.446 . S
C42 C43 1.332 . S
C43 H23 0.931 . S
C43 C42 1.332 . S
C43 C44 1.267 . S
C44 H12 0.929 . S
C44 C43 1.267 . S
C44 C45 1.251 . S
C45 H15 0.929 . S
C45 N41 1.418 . S
C45 C44 1.251 . S
C46 H13 0.930 . S
C46 C48 1.406 . S
C46 C51 1.261 . S
C47 H14 0.930 . S
C47 N49 1.325 . S
C47 C50 1.357 . S
C48 H16 0.928 . S
C48 C46 1.406 . S
C48 N49 1.261 . S
N49 Co0 2.214 . S
N49 C47 1.325 . S
N49 C48 1.261 . S
C50 H20 0.931 . S
C50 C47 1.357 . S
C50 C51 1.312 . S
C51 H22 0.930 . S
C51 C46 1.261 . S
C51 C50 1.312 . S
C52 O24 1.214 . S
C52 O32 1.234 . S
C53 H25 0.929 . S
C53 C56 1.391 . S
C53 C58 1.391 . S
C54 H26 0.929 . S
C54 C55 1.390 . S
C54 N57 1.391 . S
C55 H27 0.930 . S
C55 C54 1.390 . S
C55 C56 1.392 . S
C56 H28 0.929 . S
C56 C53 1.391 . S
C56 C55 1.392 . S
N57 Co1 2.257 . S
N57 C54 1.391 . S
N57 C58 1.388 . S
C58 H29 0.930 . S
C58 C53 1.391 . S
C58 N57 1.388 . S
Co59 O61 2.143 . S
Co59 O67 2.074 . S
Co59 O70 2.093 . S
Co59 O83 2.097 . S
Co59 N100 2.151 . S
Co59 N108 2.214 . S
Co60 O61 2.160 . S
Co60 O66 2.058 . S
Co60 O76 2.057 . S
Co60 O91 2.037 . S
Co60 N95 2.145 . S
Co60 N116 2.257 . S
O61 Co59 2.143 . S
O61 Co60 2.160 . S
C62 O63 1.278 . S
C62 O70 1.224 . S
O63 C62 1.278 . S
C64 O65 1.245 . S
C64 O76 1.232 . S
O65 C64 1.245 . S
O66 Co60 2.058 . S
O66 C92 1.269 . S
O67 Co59 2.074 . S
O67 C92 1.257 . S
H68 C93 0.930 . S
H69 C99 0.930 . S
O70 Co59 2.093 . S
O70 C62 1.224 . S
H71 C103 0.929 . S
H72 C105 0.930 . S
H73 C106 0.930 . S
H74 C104 0.929 . S
H75 C107 0.928 . S
O76 Co60 2.057 . S
O76 C64 1.232 . S
H77 C96 0.929 . S
H78 C97 0.929 . S
H79 C109 0.931 . S
H80 C101 0.929 . S
H81 C110 0.930 . S
H82 C102 0.931 . S
O83 Co59 2.097 . S
O83 C111 1.214 . S
H84 C112 0.929 . S
H85 C113 0.929 . S
H86 C114 0.930 . S
H87 C115 0.929 . S
H88 C117 0.930 . S
H89 C94 0.923 . S
H90 C98 0.930 . S
O91 Co60 2.037 . S
O91 C111 1.234 . S
C92 O66 1.269 . S
C92 O67 1.257 . S
C93 H68 0.930 . S
C93 C96 1.388 . S
C93 C98 1.418 . S
C94 H89 0.923 . S
C94 C97 1.404 1_455 S
C94 C98 1.353 . S
N95 Co60 2.145 . S
N95 C96 1.397 1_655 S
N95 C97 1.334 . S
C96 H77 0.929 . S
C96 C93 1.388 . S
C96 N95 1.397 1_455 S
C97 H78 0.929 . S
C97 C94 1.404 1_655 S
C97 N95 1.334 . S
C98 H90 0.930 . S
C98 C93 1.418 . S
C98 C94 1.353 . S
C99 H69 0.930 . S
C99 N100 1.330 . S
C99 C101 1.446 . S
N100 Co59 2.151 . S
N100 C99 1.330 . S
N100 C104 1.418 . S
C101 H80 0.929 . S
C101 C99 1.446 . S
C101 C102 1.332 . S
C102 H82 0.931 . S
C102 C101 1.332 . S
C102 C103 1.267 . S
C103 H71 0.929 . S
C103 C102 1.267 . S
C103 C104 1.251 . S
C104 H74 0.929 . S
C104 N100 1.418 . S
C104 C103 1.251 . S
C105 H72 0.930 . S
C105 C107 1.406 . S
C105 C110 1.261 . S
C106 H73 0.930 . S
C106 N108 1.325 . S
C106 C109 1.357 . S
C107 H75 0.928 . S
C107 C105 1.406 . S
C107 N108 1.261 . S
N108 Co59 2.214 . S
N108 C106 1.325 . S
N108 C107 1.261 . S
C109 H79 0.931 . S
C109 C106 1.357 . S
C109 C110 1.312 . S
C110 H81 0.930 . S
C110 C105 1.261 . S
C110 C109 1.312 . S
C111 O83 1.214 . S
C111 O91 1.234 . S
C112 H84 0.929 . S
C112 C115 1.391 . S
C112 C117 1.391 . S
C113 H85 0.929 . S
C113 C114 1.390 . S
C113 N116 1.391 . S
C114 H86 0.930 . S
C114 C113 1.390 . S
C114 C115 1.392 . S
C115 H87 0.929 . S
C115 C112 1.391 . S
C115 C114 1.392 . S
N116 Co60 2.257 . S
N116 C113 1.391 . S
N116 C117 1.388 . S
C117 H88 0.930 . S
C117 C112 1.391 . S
C117 N116 1.388 . S
Co118 O120 2.143 . S
Co118 O126 2.074 . S
Co118 O129 2.093 . S
Co118 O142 2.097 . S
Co118 N159 2.151 . S
Co118 N167 2.214 . S
Co119 O120 2.160 . S
Co119 O125 2.058 . S
Co119 O135 2.057 . S
Co119 O150 2.037 . S
Co119 N154 2.145 . S
Co119 N175 2.257 . S
O120 Co118 2.143 . S
O120 Co119 2.160 . S
C121 O122 1.278 . S
C121 O129 1.224 . S
O122 C121 1.278 . S
C123 O124 1.245 . S
C123 O135 1.232 . S
O124 C123 1.245 . S
O125 Co119 2.058 . S
O125 C151 1.269 . S
O126 Co118 2.074 . S
O126 C151 1.257 . S
H127 C152 0.930 . S
H128 C158 0.930 . S
O129 Co118 2.093 . S
O129 C121 1.224 . S
H130 C162 0.929 . S
H131 C164 0.930 . S
H132 C165 0.930 . S
H133 C163 0.929 . S
H134 C166 0.928 . S
O135 Co119 2.057 . S
O135 C123 1.232 . S
H136 C155 0.929 . S
H137 C156 0.929 . S
H138 C168 0.931 . S
H139 C160 0.929 . S
H140 C169 0.930 . S
H141 C161 0.931 . S
O142 Co118 2.097 . S
O142 C170 1.214 . S
H143 C171 0.929 . S
H144 C172 0.929 . S
H145 C173 0.930 . S
H146 C174 0.929 . S
H147 C176 0.930 . S
H148 C153 0.938 . S
H149 C157 0.930 . S
O150 Co119 2.037 . S
O150 C170 1.234 . S
C151 O125 1.269 . S
C151 O126 1.257 . S
C152 H127 0.930 . S
C152 C155 1.388 . S
C152 C157 1.418 . S
C153 H148 0.938 . S
C153 C156 1.404 1_545 S
C153 C157 1.353 . S
N154 Co119 2.145 . S
N154 C155 1.397 1_565 S
N154 C156 1.334 . S
C155 H136 0.929 . S
C155 C152 1.388 . S
C155 N154 1.397 1_545 S
C156 H137 0.929 . S
C156 C153 1.404 1_565 S
C156 N154 1.334 . S
C157 H149 0.930 . S
C157 C152 1.418 . S
C157 C153 1.353 . S
C158 H128 0.930 . S
C158 N159 1.330 . S
C158 C160 1.446 . S
N159 Co118 2.151 . S
N159 C158 1.330 . S
N159 C163 1.418 . S
C160 H139 0.929 . S
C160 C158 1.446 . S
C160 C161 1.332 . S
C161 H141 0.931 . S
C161 C160 1.332 . S
C161 C162 1.267 . S
C162 H130 0.929 . S
C162 C161 1.267 . S
C162 C163 1.251 . S
C163 H133 0.929 . S
C163 N159 1.418 . S
C163 C162 1.251 . S
C164 H131 0.930 . S
C164 C166 1.406 . S
C164 C169 1.261 . S
C165 H132 0.930 . S
C165 N167 1.325 . S
C165 C168 1.357 . S
C166 H134 0.928 . S
C166 C164 1.406 . S
C166 N167 1.261 . S
N167 Co118 2.214 . S
N167 C165 1.325 . S
N167 C166 1.261 . S
C168 H138 0.931 . S
C168 C165 1.357 . S
C168 C169 1.312 . S
C169 H140 0.930 . S
C169 C164 1.261 . S
C169 C168 1.312 . S
C170 O142 1.214 . S
C170 O150 1.234 . S
C171 H143 0.929 . S
C171 C174 1.391 . S
C171 C176 1.391 . S
C172 H144 0.929 . S
C172 C173 1.390 . S
C172 N175 1.391 . S
C173 H145 0.930 . S
C173 C172 1.390 . S
C173 C174 1.392 . S
C174 H146 0.929 . S
C174 C171 1.391 . S
C174 C173 1.392 . S
N175 Co119 2.257 . S
N175 C172 1.391 . S
N175 C176 1.388 . S
C176 H147 0.930 . S
C176 C171 1.391 . S
C176 N175 1.388 . S
Co177 O179 2.143 . S
Co177 O185 2.074 . S
Co177 O188 2.093 . S
Co177 O201 2.097 . S
Co177 N218 2.151 . S
Co177 N226 2.214 . S
Co178 O179 2.160 . S
Co178 O184 2.058 . S
Co178 O194 2.057 . S
Co178 O209 2.037 . S
Co178 N213 2.145 . S
Co178 N234 2.257 . S
O179 Co177 2.143 . S
O179 Co178 2.160 . S
C180 O181 1.278 . S
C180 O188 1.224 . S
O181 C180 1.278 . S
C182 O183 1.245 . S
C182 O194 1.232 . S
O183 C182 1.245 . S
O184 Co178 2.058 . S
O184 C210 1.269 . S
O185 Co177 2.074 . S
O185 C210 1.257 . S
H186 C211 0.930 . S
H187 C217 0.930 . S
O188 Co177 2.093 . S
O188 C180 1.224 . S
H189 C221 0.929 . S
H190 C223 0.930 . S
H191 C224 0.930 . S
H192 C222 0.929 . S
H193 C225 0.928 . S
O194 Co178 2.057 . S
O194 C182 1.232 . S
H195 C214 0.929 . S
H196 C215 0.929 . S
H197 C227 0.931 . S
H198 C219 0.929 . S
H199 C228 0.930 . S
H200 C220 0.931 . S
O201 Co177 2.097 . S
O201 C229 1.214 . S
H202 C230 0.929 . S
H203 C231 0.929 . S
H204 C232 0.930 . S
H205 C233 0.929 . S
H206 C235 0.930 . S
H207 C212 0.930 . S
H208 C216 0.930 . S
O209 Co178 2.037 . S
O209 C229 1.234 . S
C210 O184 1.269 . S
C210 O185 1.257 . S
C211 H186 0.930 . S
C211 C214 1.388 . S
C211 C216 1.418 . S
C212 H207 0.930 . S
C212 C215 1.404 . S
C212 C216 1.353 . S
N213 Co178 2.145 . S
N213 C214 1.397 . S
N213 C215 1.334 . S
C214 H195 0.929 . S
C214 C211 1.388 . S
C214 N213 1.397 . S
C215 H196 0.929 . S
C215 C212 1.404 . S
C215 N213 1.334 . S
C216 H208 0.930 . S
C216 C211 1.418 . S
C216 C212 1.353 . S
C217 H187 0.930 . S
C217 N218 1.330 . S
C217 C219 1.446 . S
N218 Co177 2.151 . S
N218 C217 1.330 . S
N218 C222 1.418 . S
C219 H198 0.929 . S
C219 C217 1.446 . S
C219 C220 1.332 . S
C220 H200 0.931 . S
C220 C219 1.332 . S
C220 C221 1.267 . S
C221 H189 0.929 . S
C221 C220 1.267 . S
C221 C222 1.251 . S
C222 H192 0.929 . S
C222 N218 1.418 . S
C222 C221 1.251 . S
C223 H190 0.930 . S
C223 C225 1.406 . S
C223 C228 1.261 . S
C224 H191 0.930 . S
C224 N226 1.325 . S
C224 C227 1.357 . S
C225 H193 0.928 . S
C225 C223 1.406 . S
C225 N226 1.261 . S
N226 Co177 2.214 . S
N226 C224 1.325 . S
N226 C225 1.261 . S
C227 H197 0.931 . S
C227 C224 1.357 . S
C227 C228 1.312 . S
C228 H199 0.930 . S
C228 C223 1.261 . S
C228 C227 1.312 . S
C229 O201 1.214 . S
C229 O209 1.234 . S
C230 H202 0.929 . S
C230 C233 1.391 . S
C230 C235 1.391 . S
C231 H203 0.929 . S
C231 C232 1.390 . S
C231 N234 1.391 . S
C232 H204 0.930 . S
C232 C231 1.390 . S
C232 C233 1.392 . S
C233 H205 0.929 . S
C233 C230 1.391 . S
C233 C232 1.392 . S
N234 Co178 2.257 . S
N234 C231 1.391 . S
N234 C235 1.388 . S
C235 H206 0.930 . S
C235 C230 1.391 . S
C235 N234 1.388 . S
Co236 O238 2.143 . S
Co236 O244 2.074 . S
Co236 O247 2.093 . S
Co236 O260 2.097 . S
Co236 N277 2.151 . S
Co236 N285 2.214 . S
Co237 O238 2.160 . S
Co237 O243 2.058 . S
Co237 O253 2.057 . S
Co237 O268 2.037 . S
Co237 N272 2.145 . S
Co237 N293 2.257 . S
O238 Co236 2.143 . S
O238 Co237 2.160 . S
C239 O240 1.278 . S
C239 O247 1.224 . S
O240 C239 1.278 . S
C241 O242 1.245 . S
C241 O253 1.232 . S
O242 C241 1.245 . S
O243 Co237 2.058 . S
O243 C269 1.269 . S
O244 Co236 2.074 . S
O244 C269 1.257 . S
H245 C270 0.930 . S
H246 C276 0.930 . S
O247 Co236 2.093 . S
O247 C239 1.224 . S
H248 C280 0.929 . S
H249 C282 0.930 . S
H250 C283 0.930 . S
H251 C281 0.929 . S
H252 C284 0.928 . S
O253 Co237 2.057 . S
O253 C241 1.232 . S
H254 C273 0.929 . S
H255 C274 0.929 . S
H256 C286 0.931 . S
H257 C278 0.929 . S
H258 C287 0.930 . S
H259 C279 0.931 . S
O260 Co236 2.097 . S
O260 C288 1.214 . S
H261 C289 0.929 . S
H262 C290 0.929 . S
H263 C291 0.930 . S
H264 C292 0.929 . S
H265 C294 0.930 . S
H266 C271 0.923 . S
H267 C275 0.930 . S
O268 Co237 2.037 . S
O268 C288 1.234 . S
C269 O243 1.269 . S
C269 O244 1.257 . S
C270 H245 0.930 . S
C270 C273 1.388 . S
C270 C275 1.418 . S
C271 H266 0.923 . S
C271 C274 1.404 1_655 S
C271 C275 1.353 . S
N272 Co237 2.145 . S
N272 C273 1.397 1_455 S
N272 C274 1.334 . S
C273 H254 0.929 . S
C273 C270 1.388 . S
C273 N272 1.397 1_655 S
C274 H255 0.929 . S
C274 C271 1.404 1_455 S
C274 N272 1.334 . S
C275 H267 0.930 . S
C275 C270 1.418 . S
C275 C271 1.353 . S
C276 H246 0.930 . S
C276 N277 1.330 . S
C276 C278 1.446 . S
N277 Co236 2.151 . S
N277 C276 1.330 . S
N277 C281 1.418 . S
C278 H257 0.929 . S
C278 C276 1.446 . S
C278 C279 1.332 . S
C279 H259 0.931 . S
C279 C278 1.332 . S
C279 C280 1.267 . S
C280 H248 0.929 . S
C280 C279 1.267 . S
C280 C281 1.251 . S
C281 H251 0.929 . S
C281 N277 1.418 . S
C281 C280 1.251 . S
C282 H249 0.930 . S
C282 C284 1.406 . S
C282 C287 1.261 . S
C283 H250 0.930 . S
C283 N285 1.325 . S
C283 C286 1.357 . S
C284 H252 0.928 . S
C284 C282 1.406 . S
C284 N285 1.261 . S
N285 Co236 2.214 . S
N285 C283 1.325 . S
N285 C284 1.261 . S
C286 H256 0.931 . S
C286 C283 1.357 . S
C286 C287 1.312 . S
C287 H258 0.930 . S
C287 C282 1.261 . S
C287 C286 1.312 . S
C288 O260 1.214 . S
C288 O268 1.234 . S
C289 H261 0.929 . S
C289 C292 1.391 . S
C289 C294 1.391 . S
C290 H262 0.929 . S
C290 C291 1.390 . S
C290 N293 1.391 . S
C291 H263 0.930 . S
C291 C290 1.390 . S
C291 C292 1.392 . S
C292 H264 0.929 . S
C292 C289 1.391 . S
C292 C291 1.392 . S
N293 Co237 2.257 . S
N293 C290 1.391 . S
N293 C294 1.388 . S
C294 H265 0.930 . S
C294 C289 1.391 . S
C294 N293 1.388 . S
Co295 O297 2.143 . S
Co295 O303 2.074 . S
Co295 O306 2.093 . S
Co295 O319 2.097 . S
Co295 N336 2.151 . S
Co295 N344 2.214 . S
Co296 O297 2.160 . S
Co296 O302 2.058 . S
Co296 O312 2.057 . S
Co296 O327 2.037 . S
Co296 N331 2.145 . S
Co296 N352 2.257 . S
O297 Co295 2.143 . S
O297 Co296 2.160 . S
C298 O299 1.278 . S
C298 O306 1.224 . S
O299 C298 1.278 . S
C300 O301 1.245 . S
C300 O312 1.232 . S
O301 C300 1.245 . S
O302 Co296 2.058 . S
O302 C328 1.269 . S
O303 Co295 2.074 . S
O303 C328 1.257 . S
H304 C329 0.930 . S
H305 C335 0.930 . S
O306 Co295 2.093 . S
O306 C298 1.224 . S
H307 C339 0.929 . S
H308 C341 0.930 . S
H309 C342 0.930 . S
H310 C340 0.929 . S
H311 C343 0.928 . S
O312 Co296 2.057 . S
O312 C300 1.232 . S
H313 C332 0.929 . S
H314 C333 0.929 . S
H315 C345 0.931 . S
H316 C337 0.929 . S
H317 C346 0.930 . S
H318 C338 0.931 . S
O319 Co295 2.097 . S
O319 C347 1.214 . S
H320 C348 0.929 . S
H321 C349 0.929 . S
H322 C350 0.930 . S
H323 C351 0.929 . S
H324 C353 0.930 . S
H325 C330 0.938 . S
H326 C334 0.930 . S
O327 Co296 2.037 . S
O327 C347 1.234 . S
C328 O302 1.269 . S
C328 O303 1.257 . S
C329 H304 0.930 . S
C329 C332 1.388 . S
C329 C334 1.418 . S
C330 H325 0.938 . S
C330 C333 1.404 1_565 S
C330 C334 1.353 . S
N331 Co296 2.145 . S
N331 C332 1.397 1_545 S
N331 C333 1.334 . S
C332 H313 0.929 . S
C332 C329 1.388 . S
C332 N331 1.397 1_565 S
C333 H314 0.929 . S
C333 C330 1.404 1_545 S
C333 N331 1.334 . S
C334 H326 0.930 . S
C334 C329 1.418 . S
C334 C330 1.353 . S
C335 H305 0.930 . S
C335 N336 1.330 . S
C335 C337 1.446 . S
N336 Co295 2.151 . S
N336 C335 1.330 . S
N336 C340 1.418 . S
C337 H316 0.929 . S
C337 C335 1.446 . S
C337 C338 1.332 . S
C338 H318 0.931 . S
C338 C337 1.332 . S
C338 C339 1.267 . S
C339 H307 0.929 . S
C339 C338 1.267 . S
C339 C340 1.251 . S
C340 H310 0.929 . S
C340 N336 1.418 . S
C340 C339 1.251 . S
C341 H308 0.930 . S
C341 C343 1.406 . S
C341 C346 1.261 . S
C342 H309 0.930 . S
C342 N344 1.325 . S
C342 C345 1.357 . S
C343 H311 0.928 . S
C343 C341 1.406 . S
C343 N344 1.261 . S
N344 Co295 2.214 . S
N344 C342 1.325 . S
N344 C343 1.261 . S
C345 H315 0.931 . S
C345 C342 1.357 . S
C345 C346 1.312 . S
C346 H317 0.930 . S
C346 C341 1.261 . S
C346 C345 1.312 . S
C347 O319 1.214 . S
C347 O327 1.234 . S
C348 H320 0.929 . S
C348 C351 1.391 . S
C348 C353 1.391 . S
C349 H321 0.929 . S
C349 C350 1.390 . S
C349 N352 1.391 . S
C350 H322 0.930 . S
C350 C349 1.390 . S
C350 C351 1.392 . S
C351 H323 0.929 . S
C351 C348 1.391 . S
C351 C350 1.392 . S
N352 Co296 2.257 . S
N352 C349 1.391 . S
N352 C353 1.388 . S
C353 H324 0.930 . S
C353 C348 1.391 . S
C353 N352 1.388 . S
Co354 O356 2.143 . S
Co354 O362 2.074 . S
Co354 O365 2.093 . S
Co354 O378 2.097 . S
Co354 N395 2.151 . S
Co354 N403 2.214 . S
Co355 O356 2.160 . S
Co355 O361 2.058 . S
Co355 O371 2.057 . S
Co355 O386 2.037 . S
Co355 N390 2.145 . S
Co355 N411 2.257 . S
O356 Co354 2.143 . S
O356 Co355 2.160 . S
C357 O358 1.278 . S
C357 O365 1.224 . S
O358 C357 1.278 . S
C359 O360 1.245 . S
C359 O371 1.232 . S
O360 C359 1.245 . S
O361 Co355 2.058 . S
O361 C387 1.269 . S
O362 Co354 2.074 . S
O362 C387 1.257 . S
H363 C388 0.930 . S
H364 C394 0.930 . S
O365 Co354 2.093 . S
O365 C357 1.224 . S
H366 C398 0.929 . S
H367 C400 0.930 . S
H368 C401 0.930 . S
H369 C399 0.929 . S
H370 C402 0.928 . S
O371 Co355 2.057 . S
O371 C359 1.232 . S
H372 C391 0.929 . S
H373 C392 0.929 . S
H374 C404 0.931 . S
H375 C396 0.929 . S
H376 C405 0.930 . S
H377 C397 0.931 . S
O378 Co354 2.097 . S
O378 C406 1.214 . S
H379 C407 0.929 . S
H380 C408 0.929 . S
H381 C409 0.930 . S
H382 C410 0.929 . S
H383 C412 0.930 . S
H384 C389 0.930 . S
H385 C393 0.930 . S
O386 Co355 2.037 . S
O386 C406 1.234 . S
C387 O361 1.269 . S
C387 O362 1.257 . S
C388 H363 0.930 . S
C388 C391 1.388 . S
C388 C393 1.418 . S
C389 H384 0.930 . S
C389 C392 1.404 . S
C389 C393 1.353 . S
N390 Co355 2.145 . S
N390 C391 1.397 . S
N390 C392 1.334 . S
C391 H372 0.929 . S
C391 C388 1.388 . S
C391 N390 1.397 . S
C392 H373 0.929 . S
C392 C389 1.404 . S
C392 N390 1.334 . S
C393 H385 0.930 . S
C393 C388 1.418 . S
C393 C389 1.353 . S
C394 H364 0.930 . S
C394 N395 1.330 . S
C394 C396 1.446 . S
N395 Co354 2.151 . S
N395 C394 1.330 . S
N395 C399 1.418 . S
C396 H375 0.929 . S
C396 C394 1.446 . S
C396 C397 1.332 . S
C397 H377 0.931 . S
C397 C396 1.332 . S
C397 C398 1.267 . S
C398 H366 0.929 . S
C398 C397 1.267 . S
C398 C399 1.251 . S
C399 H369 0.929 . S
C399 N395 1.418 . S
C399 C398 1.251 . S
C400 H367 0.930 . S
C400 C402 1.406 . S
C400 C405 1.261 . S
C401 H368 0.930 . S
C401 N403 1.325 . S
C401 C404 1.357 . S
C402 H370 0.928 . S
C402 C400 1.406 . S
C402 N403 1.261 . S
N403 Co354 2.214 . S
N403 C401 1.325 . S
N403 C402 1.261 . S
C404 H374 0.931 . S
C404 C401 1.357 . S
C404 C405 1.312 . S
C405 H376 0.930 . S
C405 C400 1.261 . S
C405 C404 1.312 . S
C406 O378 1.214 . S
C406 O386 1.234 . S
C407 H379 0.929 . S
C407 C410 1.391 . S
C407 C412 1.391 . S
C408 H380 0.929 . S
C408 C409 1.390 . S
C408 N411 1.391 . S
C409 H381 0.930 . S
C409 C408 1.390 . S
C409 C410 1.392 . S
C410 H382 0.929 . S
C410 C407 1.391 . S
C410 C409 1.392 . S
N411 Co355 2.257 . S
N411 C408 1.391 . S
N411 C412 1.388 . S
C412 H383 0.930 . S
C412 C407 1.391 . S
C412 N411 1.388 . S
Co413 O415 2.143 . S
Co413 O421 2.074 . S
Co413 O424 2.093 . S
Co413 O437 2.097 . S
Co413 N454 2.151 . S
Co413 N462 2.214 . S
Co414 O415 2.160 . S
Co414 O420 2.058 . S
Co414 O430 2.057 . S
Co414 O445 2.037 . S
Co414 N449 2.145 . S
Co414 N470 2.257 . S
O415 Co413 2.143 . S
O415 Co414 2.160 . S
C416 O417 1.278 . S
C416 O424 1.224 . S
O417 C416 1.278 . S
C418 O419 1.245 . S
C418 O430 1.232 . S
O419 C418 1.245 . S
O420 Co414 2.058 . S
O420 C446 1.269 . S
O421 Co413 2.074 . S
O421 C446 1.257 . S
H422 C447 0.930 . S
H423 C453 0.930 . S
O424 Co413 2.093 . S
O424 C416 1.224 . S
H425 C457 0.929 . S
H426 C459 0.930 . S
H427 C460 0.930 . S
H428 C458 0.929 . S
H429 C461 0.928 . S
O430 Co414 2.057 . S
O430 C418 1.232 . S
H431 C450 0.929 . S
H432 C451 0.929 . S
H433 C463 0.931 . S
H434 C455 0.929 . S
H435 C464 0.930 . S
H436 C456 0.931 . S
O437 Co413 2.097 . S
O437 C465 1.214 . S
H438 C466 0.929 . S
H439 C467 0.929 . S
H440 C468 0.930 . S
H441 C469 0.929 . S
H442 C471 0.930 . S
H443 C448 0.938 . S
H444 C452 0.930 . S
O445 Co414 2.037 . S
O445 C465 1.234 . S
C446 O420 1.269 . S
C446 O421 1.257 . S
C447 H422 0.930 . S
C447 C450 1.388 . S
C447 C452 1.418 . S
C448 H443 0.938 . S
C448 C451 1.404 1_455 S
C448 C452 1.353 . S
N449 Co414 2.145 . S
N449 C450 1.397 1_655 S
N449 C451 1.334 . S
C450 H431 0.929 . S
C450 C447 1.388 . S
C450 N449 1.397 1_455 S
C451 H432 0.929 . S
C451 C448 1.404 1_655 S
C451 N449 1.334 . S
C452 H444 0.930 . S
C452 C447 1.418 . S
C452 C448 1.353 . S
C453 H423 0.930 . S
C453 N454 1.330 . S
C453 C455 1.446 . S
N454 Co413 2.151 . S
N454 C453 1.330 . S
N454 C458 1.418 . S
C455 H434 0.929 . S
C455 C453 1.446 . S
C455 C456 1.332 . S
C456 H436 0.931 . S
C456 C455 1.332 . S
C456 C457 1.267 . S
C457 H425 0.929 . S
C457 C456 1.267 . S
C457 C458 1.251 . S
C458 H428 0.929 . S
C458 N454 1.418 . S
C458 C457 1.251 . S
C459 H426 0.930 . S
C459 C461 1.406 . S
C459 C464 1.261 . S
C460 H427 0.930 . S
C460 N462 1.325 . S
C460 C463 1.357 . S
C461 H429 0.928 . S
C461 C459 1.406 . S
C461 N462 1.261 . S
N462 Co413 2.214 . S
N462 C460 1.325 . S
N462 C461 1.261 . S
C463 H433 0.931 . S
C463 C460 1.357 . S
C463 C464 1.312 . S
C464 H435 0.930 . S
C464 C459 1.261 . S
C464 C463 1.312 . S
C465 O437 1.214 . S
C465 O445 1.234 . S
C466 H438 0.929 . S
C466 C469 1.391 . S
C466 C471 1.391 . S
C467 H439 0.929 . S
C467 C468 1.390 . S
C467 N470 1.391 . S
C468 H440 0.930 . S
C468 C467 1.390 . S
C468 C469 1.392 . S
C469 H441 0.929 . S
C469 C466 1.391 . S
C469 C468 1.392 . S
N470 Co414 2.257 . S
N470 C467 1.391 . S
N470 C471 1.388 . S
C471 H442 0.930 . S
C471 C466 1.391 . S
C471 N470 1.388 . S
Co472 O474 2.143 . S
Co472 O480 2.074 . S
Co472 O483 2.093 . S
Co472 O496 2.097 . S
Co472 N513 2.151 . S
Co472 N521 2.214 . S
Co473 O474 2.160 . S
Co473 O479 2.058 . S
Co473 O489 2.057 . S
Co473 O504 2.037 . S
Co473 N508 2.145 . S
Co473 N529 2.257 . S
O474 Co472 2.143 . S
O474 Co473 2.160 . S
C475 O476 1.278 . S
C475 O483 1.224 . S
O476 C475 1.278 . S
C477 O478 1.245 . S
C477 O489 1.232 . S
O478 C477 1.245 . S
O479 Co473 2.058 . S
O479 C505 1.269 . S
O480 Co472 2.074 . S
O480 C505 1.257 . S
H481 C506 0.930 . S
H482 C512 0.930 . S
O483 Co472 2.093 . S
O483 C475 1.224 . S
H484 C516 0.929 . S
H485 C518 0.930 . S
H486 C519 0.930 . S
H487 C517 0.929 . S
H488 C520 0.928 . S
O489 Co473 2.057 . S
O489 C477 1.232 . S
H490 C509 0.929 . S
H491 C510 0.929 . S
H492 C522 0.931 . S
H493 C514 0.929 . S
H494 C523 0.930 . S
H495 C515 0.931 . S
O496 Co472 2.097 . S
O496 C524 1.214 . S
H497 C525 0.929 . S
H498 C526 0.929 . S
H499 C527 0.930 . S
H500 C528 0.929 . S
H501 C530 0.930 . S
H502 C507 0.923 . S
H503 C511 0.930 . S
O504 Co473 2.037 . S
O504 C524 1.234 . S
C505 O479 1.269 . S
C505 O480 1.257 . S
C506 H481 0.930 . S
C506 C509 1.388 . S
C506 C511 1.418 . S
C507 H502 0.923 . S
C507 C510 1.404 1_545 S
C507 C511 1.353 . S
N508 Co473 2.145 . S
N508 C509 1.397 1_565 S
N508 C510 1.334 . S
C509 H490 0.929 . S
C509 C506 1.388 . S
C509 N508 1.397 1_545 S
C510 H491 0.929 . S
C510 C507 1.404 1_565 S
C510 N508 1.334 . S
C511 H503 0.930 . S
C511 C506 1.418 . S
C511 C507 1.353 . S
C512 H482 0.930 . S
C512 N513 1.330 . S
C512 C514 1.446 . S
N513 Co472 2.151 . S
N513 C512 1.330 . S
N513 C517 1.418 . S
C514 H493 0.929 . S
C514 C512 1.446 . S
C514 C515 1.332 . S
C515 H495 0.931 . S
C515 C514 1.332 . S
C515 C516 1.267 . S
C516 H484 0.929 . S
C516 C515 1.267 . S
C516 C517 1.251 . S
C517 H487 0.929 . S
C517 N513 1.418 . S
C517 C516 1.251 . S
C518 H485 0.930 . S
C518 C520 1.406 . S
C518 C523 1.261 . S
C519 H486 0.930 . S
C519 N521 1.325 . S
C519 C522 1.357 . S
C520 H488 0.928 . S
C520 C518 1.406 . S
C520 N521 1.261 . S
N521 Co472 2.214 . S
N521 C519 1.325 . S
N521 C520 1.261 . S
C522 H492 0.931 . S
C522 C519 1.357 . S
C522 C523 1.312 . S
C523 H494 0.930 . S
C523 C518 1.261 . S
C523 C522 1.312 . S
C524 O496 1.214 . S
C524 O504 1.234 . S
C525 H497 0.929 . S
C525 C528 1.391 . S
C525 C530 1.391 . S
C526 H498 0.929 . S
C526 C527 1.390 . S
C526 N529 1.391 . S
C527 H499 0.930 . S
C527 C526 1.390 . S
C527 C528 1.392 . S
C528 H500 0.929 . S
C528 C525 1.391 . S
C528 C527 1.392 . S
N529 Co473 2.257 . S
N529 C526 1.391 . S
N529 C530 1.388 . S
C530 H501 0.930 . S
C530 C525 1.391 . S
C530 N529 1.388 . S
Co531 O533 2.143 . S
Co531 O539 2.074 . S
Co531 O542 2.093 . S
Co531 O555 2.097 . S
Co531 N572 2.151 . S
Co531 N580 2.214 . S
Co532 O533 2.160 . S
Co532 O538 2.058 . S
Co532 O548 2.057 . S
Co532 O563 2.037 . S
Co532 N567 2.145 . S
Co532 N588 2.257 . S
O533 Co531 2.143 . S
O533 Co532 2.160 . S
C534 O535 1.278 . S
C534 O542 1.224 . S
O535 C534 1.278 . S
C536 O537 1.245 . S
C536 O548 1.232 . S
O537 C536 1.245 . S
O538 Co532 2.058 . S
O538 C564 1.269 . S
O539 Co531 2.074 . S
O539 C564 1.257 . S
H540 C565 0.930 . S
H541 C571 0.930 . S
O542 Co531 2.093 . S
O542 C534 1.224 . S
H543 C575 0.929 . S
H544 C577 0.930 . S
H545 C578 0.930 . S
H546 C576 0.929 . S
H547 C579 0.928 . S
O548 Co532 2.057 . S
O548 C536 1.232 . S
H549 C568 0.929 . S
H550 C569 0.929 . S
H551 C581 0.931 . S
H552 C573 0.929 . S
H553 C582 0.930 . S
H554 C574 0.931 . S
O555 Co531 2.097 . S
O555 C583 1.214 . S
H556 C584 0.929 . S
H557 C585 0.929 . S
H558 C586 0.930 . S
H559 C587 0.929 . S
H560 C589 0.930 . S
H561 C566 0.930 . S
H562 C570 0.930 . S
O563 Co532 2.037 . S
O563 C583 1.234 . S
C564 O538 1.269 . S
C564 O539 1.257 . S
C565 H540 0.930 . S
C565 C568 1.388 . S
C565 C570 1.418 . S
C566 H561 0.930 . S
C566 C569 1.404 . S
C566 C570 1.353 . S
N567 Co532 2.145 . S
N567 C568 1.397 . S
N567 C569 1.334 . S
C568 H549 0.929 . S
C568 C565 1.388 . S
C568 N567 1.397 . S
C569 H550 0.929 . S
C569 C566 1.404 . S
C569 N567 1.334 . S
C570 H562 0.930 . S
C570 C565 1.418 . S
C570 C566 1.353 . S
C571 H541 0.930 . S
C571 N572 1.330 . S
C571 C573 1.446 . S
N572 Co531 2.151 . S
N572 C571 1.330 . S
N572 C576 1.418 . S
C573 H552 0.929 . S
C573 C571 1.446 . S
C573 C574 1.332 . S
C574 H554 0.931 . S
C574 C573 1.332 . S
C574 C575 1.267 . S
C575 H543 0.929 . S
C575 C574 1.267 . S
C575 C576 1.251 . S
C576 H546 0.929 . S
C576 N572 1.418 . S
C576 C575 1.251 . S
C577 H544 0.930 . S
C577 C579 1.406 . S
C577 C582 1.261 . S
C578 H545 0.930 . S
C578 N580 1.325 . S
C578 C581 1.357 . S
C579 H547 0.928 . S
C579 C577 1.406 . S
C579 N580 1.261 . S
N580 Co531 2.214 . S
N580 C578 1.325 . S
N580 C579 1.261 . S
C581 H551 0.931 . S
C581 C578 1.357 . S
C581 C582 1.312 . S
C582 H553 0.930 . S
C582 C577 1.261 . S
C582 C581 1.312 . S
C583 O555 1.214 . S
C583 O563 1.234 . S
C584 H556 0.929 . S
C584 C587 1.391 . S
C584 C589 1.391 . S
C585 H557 0.929 . S
C585 C586 1.390 . S
C585 N588 1.391 . S
C586 H558 0.930 . S
C586 C585 1.390 . S
C586 C587 1.392 . S
C587 H559 0.929 . S
C587 C584 1.391 . S
C587 C586 1.392 . S
N588 Co532 2.257 . S
N588 C585 1.391 . S
N588 C589 1.388 . S
C589 H560 0.930 . S
C589 C584 1.391 . S
C589 N588 1.388 . S
Co590 O592 2.143 . S
Co590 O598 2.074 . S
Co590 O601 2.093 . S
Co590 O614 2.097 . S
Co590 N631 2.151 . S
Co590 N639 2.214 . S
Co591 O592 2.160 . S
Co591 O597 2.058 . S
Co591 O607 2.057 . S
Co591 O622 2.037 . S
Co591 N626 2.145 . S
Co591 N647 2.257 . S
O592 Co590 2.143 . S
O592 Co591 2.160 . S
C593 O594 1.278 . S
C593 O601 1.224 . S
O594 C593 1.278 . S
C595 O596 1.245 . S
C595 O607 1.232 . S
O596 C595 1.245 . S
O597 Co591 2.058 . S
O597 C623 1.269 . S
O598 Co590 2.074 . S
O598 C623 1.257 . S
H599 C624 0.930 . S
H600 C630 0.930 . S
O601 Co590 2.093 . S
O601 C593 1.224 . S
H602 C634 0.929 . S
H603 C636 0.930 . S
H604 C637 0.930 . S
H605 C635 0.929 . S
H606 C638 0.928 . S
O607 Co591 2.057 . S
O607 C595 1.232 . S
H608 C627 0.929 . S
H609 C628 0.929 . S
H610 C640 0.931 . S
H611 C632 0.929 . S
H612 C641 0.930 . S
H613 C633 0.931 . S
O614 Co590 2.097 . S
O614 C642 1.214 . S
H615 C643 0.929 . S
H616 C644 0.929 . S
H617 C645 0.930 . S
H618 C646 0.929 . S
H619 C648 0.930 . S
H620 C625 0.938 . S
H621 C629 0.930 . S
O622 Co591 2.037 . S
O622 C642 1.234 . S
C623 O597 1.269 . S
C623 O598 1.257 . S
C624 H599 0.930 . S
C624 C627 1.388 . S
C624 C629 1.418 . S
C625 H620 0.938 . S
C625 C628 1.404 1_655 S
C625 C629 1.353 . S
N626 Co591 2.145 . S
N626 C627 1.397 1_455 S
N626 C628 1.334 . S
C627 H608 0.929 . S
C627 C624 1.388 . S
C627 N626 1.397 1_655 S
C628 H609 0.929 . S
C628 C625 1.404 1_455 S
C628 N626 1.334 . S
C629 H621 0.930 . S
C629 C624 1.418 . S
C629 C625 1.353 . S
C630 H600 0.930 . S
C630 N631 1.330 . S
C630 C632 1.446 . S
N631 Co590 2.151 . S
N631 C630 1.330 . S
N631 C635 1.418 . S
C632 H611 0.929 . S
C632 C630 1.446 . S
C632 C633 1.332 . S
C633 H613 0.931 . S
C633 C632 1.332 . S
C633 C634 1.267 . S
C634 H602 0.929 . S
C634 C633 1.267 . S
C634 C635 1.251 . S
C635 H605 0.929 . S
C635 N631 1.418 . S
C635 C634 1.251 . S
C636 H603 0.930 . S
C636 C638 1.406 . S
C636 C641 1.261 . S
C637 H604 0.930 . S
C637 N639 1.325 . S
C637 C640 1.357 . S
C638 H606 0.928 . S
C638 C636 1.406 . S
C638 N639 1.261 . S
N639 Co590 2.214 . S
N639 C637 1.325 . S
N639 C638 1.261 . S
C640 H610 0.931 . S
C640 C637 1.357 . S
C640 C641 1.312 . S
C641 H612 0.930 . S
C641 C636 1.261 . S
C641 C640 1.312 . S
C642 O614 1.214 . S
C642 O622 1.234 . S
C643 H615 0.929 . S
C643 C646 1.391 . S
C643 C648 1.391 . S
C644 H616 0.929 . S
C644 C645 1.390 . S
C644 N647 1.391 . S
C645 H617 0.930 . S
C645 C644 1.390 . S
C645 C646 1.392 . S
C646 H618 0.929 . S
C646 C643 1.391 . S
C646 C645 1.392 . S
N647 Co591 2.257 . S
N647 C644 1.391 . S
N647 C648 1.388 . S
C648 H619 0.930 . S
C648 C643 1.391 . S
C648 N647 1.388 . S
Co649 O651 2.143 . S
Co649 O657 2.074 . S
Co649 O660 2.093 . S
Co649 O673 2.097 . S
Co649 N690 2.151 . S
Co649 N698 2.214 . S
Co650 O651 2.160 . S
Co650 O656 2.058 . S
Co650 O666 2.057 . S
Co650 O681 2.037 . S
Co650 N685 2.145 . S
Co650 N706 2.257 . S
O651 Co649 2.143 . S
O651 Co650 2.160 . S
C652 O653 1.278 . S
C652 O660 1.224 . S
O653 C652 1.278 . S
C654 O655 1.245 . S
C654 O666 1.232 . S
O655 C654 1.245 . S
O656 Co650 2.058 . S
O656 C682 1.269 . S
O657 Co649 2.074 . S
O657 C682 1.257 . S
H658 C683 0.930 . S
H659 C689 0.930 . S
O660 Co649 2.093 . S
O660 C652 1.224 . S
H661 C693 0.929 . S
H662 C695 0.930 . S
H663 C696 0.930 . S
H664 C694 0.929 . S
H665 C697 0.928 . S
O666 Co650 2.057 . S
O666 C654 1.232 . S
H667 C686 0.929 . S
H668 C687 0.929 . S
H669 C699 0.931 . S
H670 C691 0.929 . S
H671 C700 0.930 . S
H672 C692 0.931 . S
O673 Co649 2.097 . S
O673 C701 1.214 . S
H674 C702 0.929 . S
H675 C703 0.929 . S
H676 C704 0.930 . S
H677 C705 0.929 . S
H678 C707 0.930 . S
H679 C684 0.923 . S
H680 C688 0.930 . S
O681 Co650 2.037 . S
O681 C701 1.234 . S
C682 O656 1.269 . S
C682 O657 1.257 . S
C683 H658 0.930 . S
C683 C686 1.388 . S
C683 C688 1.418 . S
C684 H679 0.923 . S
C684 C687 1.404 1_565 S
C684 C688 1.353 . S
N685 Co650 2.145 . S
N685 C686 1.397 1_545 S
N685 C687 1.334 . S
C686 H667 0.929 . S
C686 C683 1.388 . S
C686 N685 1.397 1_565 S
C687 H668 0.929 . S
C687 C684 1.404 1_545 S
C687 N685 1.334 . S
C688 H680 0.930 . S
C688 C683 1.418 . S
C688 C684 1.353 . S
C689 H659 0.930 . S
C689 N690 1.330 . S
C689 C691 1.446 . S
N690 Co649 2.151 . S
N690 C689 1.330 . S
N690 C694 1.418 . S
C691 H670 0.929 . S
C691 C689 1.446 . S
C691 C692 1.332 . S
C692 H672 0.931 . S
C692 C691 1.332 . S
C692 C693 1.267 . S
C693 H661 0.929 . S
C693 C692 1.267 . S
C693 C694 1.251 . S
C694 H664 0.929 . S
C694 N690 1.418 . S
C694 C693 1.251 . S
C695 H662 0.930 . S
C695 C697 1.406 . S
C695 C700 1.261 . S
C696 H663 0.930 . S
C696 N698 1.325 . S
C696 C699 1.357 . S
C697 H665 0.928 . S
C697 C695 1.406 . S
C697 N698 1.261 . S
N698 Co649 2.214 . S
N698 C696 1.325 . S
N698 C697 1.261 . S
C699 H669 0.931 . S
C699 C696 1.357 . S
C699 C700 1.312 . S
C700 H671 0.930 . S
C700 C695 1.261 . S
C700 C699 1.312 . S
C701 O673 1.214 . S
C701 O681 1.234 . S
C702 H674 0.929 . S
C702 C705 1.391 . S
C702 C707 1.391 . S
C703 H675 0.929 . S
C703 C704 1.390 . S
C703 N706 1.391 . S
C704 H676 0.930 . S
C704 C703 1.390 . S
C704 C705 1.392 . S
C705 H677 0.929 . S
C705 C702 1.391 . S
C705 C704 1.392 . S
N706 Co650 2.257 . S
N706 C703 1.391 . S
N706 C707 1.388 . S
C707 H678 0.930 . S
C707 C702 1.391 . S
C707 N706 1.388 . S
H708 C716 0.950 . S
H709 C721 0.950 . S
H710 C718 0.950 . S
H711 C720 0.950 . S
H712 C722 0.950 . S
H713 C724 0.950 . S
H714 C726 0.950 . S
H715 C727 0.950 . S
C716 H708 0.950 . S
C716 C717 1.386 . S
C716 C718 1.391 . S
C717 C716 1.386 . S
C717 C721 1.393 . S
C718 H710 0.950 . S
C718 C716 1.391 . S
C718 C719 1.400 . S
C719 C718 1.400 . S
C719 C720 1.398 . S
C719 C725 1.491 . S
C720 H711 0.950 . S
C720 C719 1.398 . S
C720 C721 1.391 . S
C721 H709 0.950 . S
C721 C717 1.393 . S
C721 C720 1.391 . S
C722 H712 0.950 . S
C722 C723 1.386 . S
C722 C724 1.391 . S
C723 C722 1.386 . S
C723 C727 1.393 . S
C724 H713 0.950 . S
C724 C722 1.391 . S
C724 C725 1.400 . S
C725 C719 1.491 . S
C725 C724 1.400 . S
C725 C726 1.398 . S
C726 H714 0.950 . S
C726 C725 1.398 . S
C726 C727 1.391 . S
C727 H715 0.950 . S
C727 C723 1.393 . S
C727 C726 1.391 . S
H728 C736 0.950 . S
H729 C741 0.950 . S
H730 C738 0.950 . S
H731 C740 0.950 . S
H732 C742 0.950 . S
H733 C744 0.950 . S
H734 C746 0.950 . S
H735 C747 0.950 . S
C736 H728 0.950 . S
C736 C737 1.386 . S
C736 C738 1.391 . S
C737 C736 1.386 . S
C737 C741 1.393 . S
C738 H730 0.950 . S
C738 C736 1.391 . S
C738 C739 1.400 . S
C739 C738 1.400 . S
C739 C740 1.398 . S
C739 C745 1.491 . S
C740 H731 0.950 . S
C740 C739 1.398 . S
C740 C741 1.391 . S
C741 H729 0.950 . S
C741 C737 1.393 . S
C741 C740 1.391 . S
C742 H732 0.950 . S
C742 C743 1.386 . S
C742 C744 1.391 . S
C743 C742 1.386 . S
C743 C747 1.393 . S
C744 H733 0.950 . S
C744 C742 1.391 . S
C744 C745 1.400 . S
C745 C739 1.491 . S
C745 C744 1.400 . S
C745 C746 1.398 . S
C746 H734 0.950 . S
C746 C745 1.398 . S
C746 C747 1.391 . S
C747 H735 0.950 . S
C747 C743 1.393 . S
C747 C746 1.391 . S
H748 C756 0.950 . S
H749 C761 0.950 . S
H750 C758 0.950 . S
H751 C760 0.950 . S
H752 C762 0.950 . S
H753 C764 0.950 . S
H754 C766 0.950 . S
H755 C767 0.950 . S
C756 H748 0.950 . S
C756 C757 1.386 . S
C756 C758 1.391 . S
C757 C756 1.386 . S
C757 C761 1.393 . S
C758 H750 0.950 . S
C758 C756 1.391 . S
C758 C759 1.400 . S
C759 C758 1.400 . S
C759 C760 1.398 . S
C759 C765 1.491 . S
C760 H751 0.950 . S
C760 C759 1.398 . S
C760 C761 1.391 . S
C761 H749 0.950 . S
C761 C757 1.393 . S
C761 C760 1.391 . S
C762 H752 0.950 . S
C762 C763 1.386 . S
C762 C764 1.391 . S
C763 C762 1.386 . S
C763 C767 1.393 . S
C764 H753 0.950 . S
C764 C762 1.391 . S
C764 C765 1.400 . S
C765 C759 1.491 . S
C765 C764 1.400 . S
C765 C766 1.398 . S
C766 H754 0.950 . S
C766 C765 1.398 . S
C766 C767 1.391 . S
C767 H755 0.950 . S
C767 C763 1.393 . S
C767 C766 1.391 . S
H768 C776 0.950 . S
H769 C781 0.950 . S
H770 C778 0.950 . S
H771 C780 0.950 . S
H772 C782 0.950 . S
H773 C784 0.950 . S
H774 C786 0.950 . S
H775 C787 0.950 . S
C776 H768 0.950 . S
C776 C777 1.386 . S
C776 C778 1.391 . S
C777 C776 1.386 . S
C777 C781 1.393 . S
C778 H770 0.950 . S
C778 C776 1.391 . S
C778 C779 1.400 . S
C779 C778 1.400 . S
C779 C780 1.398 . S
C779 C785 1.491 . S
C780 H771 0.950 . S
C780 C779 1.398 . S
C780 C781 1.391 . S
C781 H769 0.950 . S
C781 C777 1.393 . S
C781 C780 1.391 . S
C782 H772 0.950 . S
C782 C783 1.386 . S
C782 C784 1.391 . S
C783 C782 1.386 . S
C783 C787 1.393 . S
C784 H773 0.950 . S
C784 C782 1.391 . S
C784 C785 1.400 . S
C785 C779 1.491 . S
C785 C784 1.400 . S
C785 C786 1.398 . S
C786 H774 0.950 . S
C786 C785 1.398 . S
C786 C787 1.391 . S
C787 H775 0.950 . S
C787 C783 1.393 . S
C787 C786 1.391 . S
H788 C796 0.950 . S
H789 C801 0.950 . S
H790 C798 0.950 . S
H791 C800 0.950 . S
H792 C802 0.950 . S
H793 C804 0.950 . S
H794 C806 0.950 . S
H795 C807 0.950 . S
C796 H788 0.950 . S
C796 C797 1.386 . S
C796 C798 1.391 . S
C797 C796 1.386 . S
C797 C801 1.393 . S
C798 H790 0.950 . S
C798 C796 1.391 . S
C798 C799 1.400 . S
C799 C798 1.400 . S
C799 C800 1.398 . S
C799 C805 1.491 . S
C800 H791 0.950 . S
C800 C799 1.398 . S
C800 C801 1.391 . S
C801 H789 0.950 . S
C801 C797 1.393 . S
C801 C800 1.391 . S
C802 H792 0.950 . S
C802 C803 1.386 . S
C802 C804 1.391 . S
C803 C802 1.386 . S
C803 C807 1.393 . S
C804 H793 0.950 . S
C804 C802 1.391 . S
C804 C805 1.400 . S
C805 C799 1.491 . S
C805 C804 1.400 . S
C805 C806 1.398 . S
C806 H794 0.950 . S
C806 C805 1.398 . S
C806 C807 1.391 . S
C807 H795 0.950 . S
C807 C803 1.393 . S
C807 C806 1.391 . S
H808 C816 0.950 . S
H809 C821 0.950 . S
H810 C818 0.950 . S
H811 C820 0.950 . S
H812 C822 0.950 . S
H813 C824 0.950 . S
H814 C826 0.950 . S
H815 C827 0.950 . S
C816 H808 0.950 . S
C816 C817 1.386 . S
C816 C818 1.391 . S
C817 C816 1.386 . S
C817 C821 1.393 . S
C818 H810 0.950 . S
C818 C816 1.391 . S
C818 C819 1.400 . S
C819 C818 1.400 . S
C819 C820 1.398 . S
C819 C825 1.491 . S
C820 H811 0.950 . S
C820 C819 1.398 . S
C820 C821 1.391 . S
C821 H809 0.950 . S
C821 C817 1.393 . S
C821 C820 1.391 . S
C822 H812 0.950 . S
C822 C823 1.386 . S
C822 C824 1.391 . S
C823 C822 1.386 . S
C823 C827 1.393 . S
C824 H813 0.950 . S
C824 C822 1.391 . S
C824 C825 1.400 . S
C825 C819 1.491 . S
C825 C824 1.400 . S
C825 C826 1.398 . S
C826 H814 0.950 . S
C826 C825 1.398 . S
C826 C827 1.391 . S
C827 H815 0.950 . S
C827 C823 1.393 . S
C827 C826 1.391 . S
H828 C836 0.950 . S
H829 C841 0.950 . S
H830 C838 0.950 . S
H831 C840 0.950 . S
H832 C842 0.950 . S
H833 C844 0.950 . S
H834 C846 0.950 . S
H835 C847 0.950 . S
C836 H828 0.950 . S
C836 C837 1.386 . S
C836 C838 1.391 . S
C837 C836 1.386 . S
C837 C841 1.393 . S
C838 H830 0.950 . S
C838 C836 1.391 . S
C838 C839 1.400 . S
C839 C838 1.400 . S
C839 C840 1.398 . S
C839 C845 1.491 . S
C840 H831 0.950 . S
C840 C839 1.398 . S
C840 C841 1.391 . S
C841 H829 0.950 . S
C841 C837 1.393 . S
C841 C840 1.391 . S
C842 H832 0.950 . S
C842 C843 1.386 . S
C842 C844 1.391 . S
C843 C842 1.386 . S
C843 C847 1.393 . S
C844 H833 0.950 . S
C844 C842 1.391 . S
C844 C845 1.400 . S
C845 C839 1.491 . S
C845 C844 1.400 . S
C845 C846 1.398 . S
C846 H834 0.950 . S
C846 C845 1.398 . S
C846 C847 1.391 . S
C847 H835 0.950 . S
C847 C843 1.393 . S
C847 C846 1.391 . S
H848 C856 0.950 1_655 S
H849 C861 0.950 . S
H850 C858 0.950 . S
H851 C860 0.950 . S
H852 C862 0.950 1_455 S
H853 C864 0.950 . S
H854 C866 0.950 . S
H855 C867 0.950 . S
C856 H848 0.950 1_455 S
C856 C857 1.386 . S
C856 C858 1.391 1_455 S
C857 C856 1.386 . S
C857 C861 1.393 . S
C858 H850 0.950 . S
C858 C856 1.391 1_655 S
C858 C859 1.400 1_655 S
C859 C858 1.400 1_455 S
C859 C860 1.398 . S
C859 C865 1.491 1_455 S
C860 H851 0.950 . S
C860 C859 1.398 . S
C860 C861 1.391 . S
C861 H849 0.950 . S
C861 C857 1.393 . S
C861 C860 1.391 . S
C862 H852 0.950 1_655 S
C862 C863 1.386 . S
C862 C864 1.391 1_655 S
C863 C862 1.386 . S
C863 C867 1.393 . S
C864 H853 0.950 . S
C864 C862 1.391 1_455 S
C864 C865 1.400 1_455 S
C865 C859 1.491 1_655 S
C865 C864 1.400 1_655 S
C865 C866 1.398 . S
C866 H854 0.950 . S
C866 C865 1.398 . S
C866 C867 1.391 . S
C867 H855 0.950 . S
C867 C863 1.393 . S
C867 C866 1.391 . S
H868 C876 0.950 . S
H869 C881 0.950 1_565 S
H870 C878 0.950 . S
H871 C880 0.950 . S
H872 C882 0.950 . S
H873 C884 0.950 . S
H874 C886 0.950 . S
H875 C887 0.950 1_545 S
C876 H868 0.950 . S
C876 C877 1.386 . S
C876 C878 1.391 . S
C877 C876 1.386 . S
C877 C881 1.393 . S
C878 H870 0.950 . S
C878 C876 1.391 . S
C878 C879 1.400 . S
C879 C878 1.400 . S
C879 C880 1.398 1_545 S
C879 C885 1.491 1_545 S
C880 H871 0.950 . S
C880 C879 1.398 1_565 S
C880 C881 1.391 1_565 S
C881 H869 0.950 1_545 S
C881 C877 1.393 . S
C881 C880 1.391 1_545 S
C882 H872 0.950 . S
C882 C883 1.386 . S
C882 C884 1.391 . S
C883 C882 1.386 . S
C883 C887 1.393 . S
C884 H873 0.950 . S
C884 C882 1.391 . S
C884 C885 1.400 . S
C885 C879 1.491 1_565 S
C885 C884 1.400 . S
C885 C886 1.398 1_565 S
C886 H874 0.950 . S
C886 C885 1.398 1_545 S
C886 C887 1.391 1_545 S
C887 H875 0.950 1_565 S
C887 C883 1.393 . S
C887 C886 1.391 1_565 S
H888 C896 0.950 . S
H889 C901 0.950 . S
H890 C898 0.950 . S
H891 C900 0.950 . S
H892 C902 0.950 . S
H893 C904 0.950 . S
H894 C906 0.950 . S
H895 C907 0.950 . S
C896 H888 0.950 . S
C896 C897 1.386 . S
C896 C898 1.391 . S
C897 C896 1.386 . S
C897 C901 1.393 . S
C898 H890 0.950 . S
C898 C896 1.391 . S
C898 C899 1.400 . S
C899 C898 1.400 . S
C899 C900 1.398 . S
C899 C905 1.491 . S
C900 H891 0.950 . S
C900 C899 1.398 . S
C900 C901 1.391 . S
C901 H889 0.950 . S
C901 C897 1.393 . S
C901 C900 1.391 . S
C902 H892 0.950 . S
C902 C903 1.386 . S
C902 C904 1.391 . S
C903 C902 1.386 . S
C903 C907 1.393 . S
C904 H893 0.950 . S
C904 C902 1.391 . S
C904 C905 1.400 . S
C905 C899 1.491 . S
C905 C904 1.400 . S
C905 C906 1.398 . S
C906 H894 0.950 . S
C906 C905 1.398 . S
C906 C907 1.391 . S
C907 H895 0.950 . S
C907 C903 1.393 . S
C907 C906 1.391 . S
H908 C916 0.950 . S
H909 C921 0.950 1_455 S
H910 C918 0.950 . S
H911 C920 0.950 . S
H912 C922 0.950 . S
H913 C924 0.950 . S
H914 C926 0.950 . S
H915 C927 0.950 1_655 S
C916 H908 0.950 . S
C916 C917 1.386 . S
C916 C918 1.391 . S
C917 C916 1.386 . S
C917 C921 1.393 . S
C918 H910 0.950 . S
C918 C916 1.391 . S
C918 C919 1.400 . S
C919 C918 1.400 . S
C919 C920 1.398 1_655 S
C919 C925 1.491 1_655 S
C920 H911 0.950 . S
C920 C919 1.398 1_455 S
C920 C921 1.391 1_455 S
C921 H909 0.950 1_655 S
C921 C917 1.393 . S
C921 C920 1.391 1_655 S
C922 H912 0.950 . S
C922 C923 1.386 . S
C922 C924 1.391 . S
C923 C922 1.386 . S
C923 C927 1.393 . S
C924 H913 0.950 . S
C924 C922 1.391 . S
C924 C925 1.400 . S
C925 C919 1.491 1_455 S
C925 C924 1.400 . S
C925 C926 1.398 1_455 S
C926 H914 0.950 . S
C926 C925 1.398 1_655 S
C926 C927 1.391 1_655 S
C927 H915 0.950 1_455 S
C927 C923 1.393 . S
C927 C926 1.391 1_455 S
H928 C936 0.950 . S
H929 C941 0.950 1_545 S
H930 C938 0.950 . S
H931 C940 0.950 . S
H932 C942 0.950 . S
H933 C944 0.950 . S
H934 C946 0.950 . S
H935 C947 0.950 1_565 S
C936 H928 0.950 . S
C936 C937 1.386 . S
C936 C938 1.391 . S
C937 C936 1.386 . S
C937 C941 1.393 . S
C938 H930 0.950 . S
C938 C936 1.391 . S
C938 C939 1.400 . S
C939 C938 1.400 . S
C939 C940 1.398 1_565 S
C939 C945 1.491 1_565 S
C940 H931 0.950 . S
C940 C939 1.398 1_545 S
C940 C941 1.391 1_545 S
C941 H929 0.950 1_565 S
C941 C937 1.393 . S
C941 C940 1.391 1_565 S
C942 H932 0.950 . S
C942 C943 1.386 . S
C942 C944 1.391 . S
C943 C942 1.386 . S
C943 C947 1.393 . S
C944 H933 0.950 . S
C944 C942 1.391 . S
C944 C945 1.400 . S
C945 C939 1.491 1_545 S
C945 C944 1.400 . S
C945 C946 1.398 1_545 S
C946 H934 0.950 . S
C946 C945 1.398 1_565 S
C946 C947 1.391 1_565 S
C947 H935 0.950 1_545 S
C947 C943 1.393 . S
C947 C946 1.391 1_545 S
H948 C956 0.950 . S
H949 C961 0.950 . S
H950 C958 0.950 . S
H951 C960 0.950 . S
H952 C962 0.950 . S
H953 C964 0.950 . S
H954 C966 0.950 . S
H955 C967 0.950 . S
C956 H948 0.950 . S
C956 C957 1.386 . S
C956 C958 1.391 . S
C957 C956 1.386 . S
C957 C961 1.393 . S
C958 H950 0.950 . S
C958 C956 1.391 . S
C958 C959 1.400 . S
C959 C958 1.400 . S
C959 C960 1.398 . S
C959 C965 1.491 . S
C960 H951 0.950 . S
C960 C959 1.398 . S
C960 C961 1.391 . S
C961 H949 0.950 . S
C961 C957 1.393 . S
C961 C960 1.391 . S
C962 H952 0.950 . S
C962 C963 1.386 . S
C962 C964 1.391 . S
C963 C962 1.386 . S
C963 C967 1.393 . S
C964 H953 0.950 . S
C964 C962 1.391 . S
C964 C965 1.400 . S
C965 C959 1.491 . S
C965 C964 1.400 . S
C965 C966 1.398 . S
C966 H954 0.950 . S
C966 C965 1.398 . S
C966 C967 1.391 . S
C967 H955 0.950 . S
C967 C963 1.393 . S
C967 C966 1.391 . S
H968 C976 0.950 1_455 S
H969 C981 0.950 . S
H970 C978 0.950 . S
H971 C980 0.950 . S
H972 C982 0.950 1_655 S
H973 C984 0.950 . S
H974 C986 0.950 . S
H975 C987 0.950 . S
C976 H968 0.950 1_655 S
C976 C977 1.386 . S
C976 C978 1.391 1_655 S
C977 C976 1.386 . S
C977 C981 1.393 . S
C978 H970 0.950 . S
C978 C976 1.391 1_455 S
C978 C979 1.400 1_455 S
C979 C978 1.400 1_655 S
C979 C980 1.398 . S
C979 C985 1.491 1_655 S
C980 H971 0.950 . S
C980 C979 1.398 . S
C980 C981 1.391 . S
C981 H969 0.950 . S
C981 C977 1.393 . S
C981 C980 1.391 . S
C982 H972 0.950 1_455 S
C982 C983 1.386 . S
C982 C984 1.391 1_455 S
C983 C982 1.386 . S
C983 C987 1.393 . S
C984 H973 0.950 . S
C984 C982 1.391 1_655 S
C984 C985 1.400 1_655 S
C985 C979 1.491 1_455 S
C985 C984 1.400 1_455 S
C985 C986 1.398 . S
C986 H974 0.950 . S
C986 C985 1.398 . S
C986 C987 1.391 . S
C987 H975 0.950 . S
C987 C983 1.393 . S
C987 C986 1.391 . S
H988 C996 0.950 . S
H989 C1001 0.948 . S
H990 C998 0.950 . S
H991 C1000 0.950 . S
H992 C1002 0.950 . S
H993 C1004 0.950 . S
H994 C1006 0.950 . S
H995 C1007 0.948 . S
C996 H988 0.950 . S
C996 C997 1.386 . S
C996 C998 1.391 . S
C997 C996 1.386 . S
C997 C1001 1.393 . S
C998 H990 0.950 . S
C998 C996 1.391 . S
C998 C999 1.400 . S
C999 C998 1.400 . S
C999 C1000 1.398 1_565 S
C999 C1005 1.491 1_566 S
C1000 H991 0.950 . S
C1000 C999 1.398 1_545 S
C1000 C1001 1.391 1_545 S
C1001 H989 0.948 . S
C1001 C997 1.393 . S
C1001 C1000 1.391 1_565 S
C1002 H992 0.950 . S
C1002 C1003 1.386 . S
C1002 C1004 1.391 . S
C1003 C1002 1.386 . S
C1003 C1007 1.393 . S
C1004 H993 0.950 . S
C1004 C1002 1.391 . S
C1004 C1005 1.400 . S
C1005 C999 1.491 1_544 S
C1005 C1004 1.400 . S
C1005 C1006 1.398 1_545 S
C1006 H994 0.950 . S
C1006 C1005 1.398 1_565 S
C1006 C1007 1.391 1_565 S
C1007 H995 0.948 . S
C1007 C1003 1.393 . S
C1007 C1006 1.391 1_545 S
H1008 C1016 0.950 . S
H1009 C1021 0.950 . S
H1010 C1018 0.950 . S
H1011 C1020 0.950 . S
H1012 C1022 0.950 . S
H1013 C1024 0.950 . S
H1014 C1026 0.950 . S
H1015 C1027 0.950 . S
C1016 H1008 0.950 . S
C1016 C1017 1.386 . S
C1016 C1018 1.391 . S
C1017 C1016 1.386 . S
C1017 C1021 1.393 . S
C1018 H1010 0.950 . S
C1018 C1016 1.391 . S
C1018 C1019 1.400 . S
C1019 C1018 1.400 . S
C1019 C1020 1.398 . S
C1019 C1025 1.491 . S
C1020 H1011 0.950 . S
C1020 C1019 1.398 . S
C1020 C1021 1.391 . S
C1021 H1009 0.950 . S
C1021 C1017 1.393 . S
C1021 C1020 1.391 . S
C1022 H1012 0.950 . S
C1022 C1023 1.386 . S
C1022 C1024 1.391 . S
C1023 C1022 1.386 . S
C1023 C1027 1.393 . S
C1024 H1013 0.950 . S
C1024 C1022 1.391 . S
C1024 C1025 1.400 . S
C1025 C1019 1.491 . S
C1025 C1024 1.400 . S
C1025 C1026 1.398 . S
C1026 H1014 0.950 . S
C1026 C1025 1.398 . S
C1026 C1027 1.391 . S
C1027 H1015 0.950 . S
C1027 C1023 1.393 . S
C1027 C1026 1.391 . S
H1028 C1036 0.950 . S
H1029 C1041 0.950 . S
H1030 C1038 0.950 . S
H1031 C1040 0.950 1_655 S
H1032 C1042 0.950 . S
H1033 C1044 0.950 . S
H1034 C1046 0.950 1_455 S
H1035 C1047 0.950 . S
C1036 H1028 0.950 . S
C1036 C1037 1.386 . S
C1036 C1038 1.391 . S
C1037 C1036 1.386 . S
C1037 C1041 1.393 . S
C1038 H1030 0.950 . S
C1038 C1036 1.391 . S
C1038 C1039 1.400 . S
C1039 C1038 1.400 . S
C1039 C1040 1.398 . S
C1039 C1045 1.491 1_455 S
C1040 H1031 0.950 1_455 S
C1040 C1039 1.398 . S
C1040 C1041 1.391 . S
C1041 H1029 0.950 . S
C1041 C1037 1.393 . S
C1041 C1040 1.391 . S
C1042 H1032 0.950 . S
C1042 C1043 1.386 . S
C1042 C1044 1.391 . S
C1043 C1042 1.386 . S
C1043 C1047 1.393 . S
C1044 H1033 0.950 . S
C1044 C1042 1.391 . S
C1044 C1045 1.400 . S
C1045 C1039 1.491 1_655 S
C1045 C1044 1.400 . S
C1045 C1046 1.398 . S
C1046 H1034 0.950 1_655 S
C1046 C1045 1.398 . S
C1046 C1047 1.391 . S
C1047 H1035 0.950 . S
C1047 C1043 1.393 . S
C1047 C1046 1.391 . S
H1048 C1056 0.950 . S
H1049 C1061 0.950 . S
H1050 C1058 0.950 . S
H1051 C1060 0.950 . S
H1052 C1062 0.950 . S
H1053 C1064 0.950 . S
H1054 C1066 0.950 . S
H1055 C1067 0.950 . S
C1056 H1048 0.950 . S
C1056 C1057 1.386 . S
C1056 C1058 1.391 . S
C1057 C1056 1.386 . S
C1057 C1061 1.393 . S
C1058 H1050 0.950 . S
C1058 C1056 1.391 . S
C1058 C1059 1.400 . S
C1059 C1058 1.400 . S
C1059 C1060 1.398 1_565 S
C1059 C1065 1.491 1_564 S
C1060 H1051 0.950 . S
C1060 C1059 1.398 1_545 S
C1060 C1061 1.391 1_545 S
C1061 H1049 0.950 . S
C1061 C1057 1.393 . S
C1061 C1060 1.391 1_565 S
C1062 H1052 0.950 . S
C1062 C1063 1.386 . S
C1062 C1064 1.391 . S
C1063 C1062 1.386 . S
C1063 C1067 1.393 . S
C1064 H1053 0.950 . S
C1064 C1062 1.391 . S
C1064 C1065 1.400 . S
C1065 C1059 1.491 1_546 S
C1065 C1064 1.400 . S
C1065 C1066 1.398 1_545 S
C1066 H1054 0.950 . S
C1066 C1065 1.398 1_565 S
C1066 C1067 1.391 1_565 S
C1067 H1055 0.950 . S
C1067 C1063 1.393 . S
C1067 C1066 1.391 1_545 S
H1068 C1076 0.950 . S
H1069 C1081 0.950 . S
H1070 C1078 0.950 . S
H1071 C1080 0.950 . S
H1072 C1082 0.950 . S
H1073 C1084 0.950 . S
H1074 C1086 0.950 . S
H1075 C1087 0.950 . S
C1076 H1068 0.950 . S
C1076 C1077 1.386 . S
C1076 C1078 1.391 . S
C1077 C1076 1.386 . S
C1077 C1081 1.393 . S
C1078 H1070 0.950 . S
C1078 C1076 1.391 . S
C1078 C1079 1.400 . S
C1079 C1078 1.400 . S
C1079 C1080 1.398 . S
C1079 C1085 1.491 1_655 S
C1080 H1071 0.950 . S
C1080 C1079 1.398 . S
C1080 C1081 1.391 . S
C1081 H1069 0.950 . S
C1081 C1077 1.393 . S
C1081 C1080 1.391 . S
C1082 H1072 0.950 . S
C1082 C1083 1.386 . S
C1082 C1084 1.391 . S
C1083 C1082 1.386 . S
C1083 C1087 1.393 . S
C1084 H1073 0.950 . S
C1084 C1082 1.391 . S
C1084 C1085 1.400 . S
C1085 C1079 1.491 1_455 S
C1085 C1084 1.400 . S
C1085 C1086 1.398 . S
C1086 H1074 0.950 . S
C1086 C1085 1.398 . S
C1086 C1087 1.391 . S
C1087 H1075 0.950 . S
C1087 C1083 1.393 . S
C1087 C1086 1.391 . S
H1088 C1096 0.950 . S
H1089 C1101 0.950 . S
H1090 C1098 0.950 . S
H1091 C1100 0.950 . S
H1092 C1102 0.950 . S
H1093 C1104 0.950 . S
H1094 C1106 0.950 . S
H1095 C1107 0.950 . S
C1096 H1088 0.950 . S
C1096 C1097 1.386 . S
C1096 C1098 1.391 . S
C1097 C1096 1.386 . S
C1097 C1101 1.393 . S
C1098 H1090 0.950 . S
C1098 C1096 1.391 . S
C1098 C1099 1.400 . S
C1099 C1098 1.400 . S
C1099 C1100 1.398 . S
C1099 C1105 1.491 1_545 S
C1100 H1091 0.950 . S
C1100 C1099 1.398 . S
C1100 C1101 1.391 . S
C1101 H1089 0.950 . S
C1101 C1097 1.393 . S
C1101 C1100 1.391 . S
C1102 H1092 0.950 . S
C1102 C1103 1.386 . S
C1102 C1104 1.391 . S
C1103 C1102 1.386 . S
C1103 C1107 1.393 . S
C1104 H1093 0.950 . S
C1104 C1102 1.391 . S
C1104 C1105 1.400 . S
C1105 C1099 1.491 1_565 S
C1105 C1104 1.400 . S
C1105 C1106 1.398 . S
C1106 H1094 0.950 . S
C1106 C1105 1.398 . S
C1106 C1107 1.391 . S
C1107 H1095 0.950 . S
C1107 C1103 1.393 . S
C1107 C1106 1.391 . S
H1108 C1116 0.950 . S
H1109 C1121 0.950 . S
H1110 C1118 0.950 . S
H1111 C1120 0.950 . S
H1112 C1122 0.950 . S
H1113 C1124 0.950 . S
H1114 C1126 0.950 . S
H1115 C1127 0.950 . S
C1116 H1108 0.950 . S
C1116 C1117 1.386 . S
C1116 C1118 1.391 . S
C1117 C1116 1.386 . S
C1117 C1121 1.393 . S
C1118 H1110 0.950 . S
C1118 C1116 1.391 . S
C1118 C1119 1.400 . S
C1119 C1118 1.400 . S
C1119 C1120 1.398 . S
C1119 C1125 1.491 . S
C1120 H1111 0.950 . S
C1120 C1119 1.398 . S
C1120 C1121 1.391 . S
C1121 H1109 0.950 . S
C1121 C1117 1.393 . S
C1121 C1120 1.391 . S
C1122 H1112 0.950 . S
C1122 C1123 1.386 . S
C1122 C1124 1.391 . S
C1123 C1122 1.386 . S
C1123 C1127 1.393 . S
C1124 H1113 0.950 . S
C1124 C1122 1.391 . S
C1124 C1125 1.400 . S
C1125 C1119 1.491 . S
C1125 C1124 1.400 . S
C1125 C1126 1.398 . S
C1126 H1114 0.950 . S
C1126 C1125 1.398 . S
C1126 C1127 1.391 . S
C1127 H1115 0.950 . S
C1127 C1123 1.393 . S
C1127 C1126 1.391 . S
H1128 C1136 0.950 . S
H1129 C1141 0.950 . S
H1130 C1138 0.950 . S
H1131 C1140 0.950 . S
H1132 C1142 0.950 . S
H1133 C1144 0.950 . S
H1134 C1146 0.950 . S
H1135 C1147 0.950 . S
C1136 H1128 0.950 . S
C1136 C1137 1.386 . S
C1136 C1138 1.391 . S
C1137 C1136 1.386 . S
C1137 C1141 1.393 . S
C1138 H1130 0.950 . S
C1138 C1136 1.391 . S
C1138 C1139 1.400 . S
C1139 C1138 1.400 . S
C1139 C1140 1.398 . S
C1139 C1145 1.491 1_655 S
C1140 H1131 0.950 . S
C1140 C1139 1.398 . S
C1140 C1141 1.391 . S
C1141 H1129 0.950 . S
C1141 C1137 1.393 . S
C1141 C1140 1.391 . S
C1142 H1132 0.950 . S
C1142 C1143 1.386 . S
C1142 C1144 1.391 . S
C1143 C1142 1.386 . S
C1143 C1147 1.393 . S
C1144 H1133 0.950 . S
C1144 C1142 1.391 . S
C1144 C1145 1.400 . S
C1145 C1139 1.491 1_455 S
C1145 C1144 1.400 . S
C1145 C1146 1.398 . S
C1146 H1134 0.950 . S
C1146 C1145 1.398 . S
C1146 C1147 1.391 . S
C1147 H1135 0.950 . S
C1147 C1143 1.393 . S
C1147 C1146 1.391 . S
H1148 C1156 0.950 . S
H1149 C1161 0.950 . S
H1150 C1158 0.950 . S
H1151 C1160 0.950 . S
H1152 C1162 0.950 . S
H1153 C1164 0.950 . S
H1154 C1166 0.950 . S
H1155 C1167 0.950 . S
C1156 H1148 0.950 . S
C1156 C1157 1.386 . S
C1156 C1158 1.391 . S
C1157 C1156 1.386 . S
C1157 C1161 1.393 . S
C1158 H1150 0.950 . S
C1158 C1156 1.391 . S
C1158 C1159 1.400 . S
C1159 C1158 1.400 . S
C1159 C1160 1.398 . S
C1159 C1165 1.491 1_565 S
C1160 H1151 0.950 . S
C1160 C1159 1.398 . S
C1160 C1161 1.391 . S
C1161 H1149 0.950 . S
C1161 C1157 1.393 . S
C1161 C1160 1.391 . S
C1162 H1152 0.950 . S
C1162 C1163 1.386 . S
C1162 C1164 1.391 . S
C1163 C1162 1.386 . S
C1163 C1167 1.393 . S
C1164 H1153 0.950 . S
C1164 C1162 1.391 . S
C1164 C1165 1.400 . S
C1165 C1159 1.491 1_545 S
C1165 C1164 1.400 . S
C1165 C1166 1.398 . S
C1166 H1154 0.950 . S
C1166 C1165 1.398 . S
C1166 C1167 1.391 . S
C1167 H1155 0.950 . S
C1167 C1163 1.393 . S
C1167 C1166 1.391 . S
H1168 C1176 0.950 . S
H1169 C1181 0.950 . S
H1170 C1178 0.950 . S
H1171 C1180 0.950 . S
H1172 C1182 0.950 . S
H1173 C1184 0.950 . S
H1174 C1186 0.950 . S
H1175 C1187 0.950 . S
C1176 H1168 0.950 . S
C1176 C1177 1.386 . S
C1176 C1178 1.391 . S
C1177 C1176 1.386 . S
C1177 C1181 1.393 . S
C1178 H1170 0.950 . S
C1178 C1176 1.391 . S
C1178 C1179 1.400 . S
C1179 C1178 1.400 . S
C1179 C1180 1.398 . S
C1179 C1185 1.491 . S
C1180 H1171 0.950 . S
C1180 C1179 1.398 . S
C1180 C1181 1.391 . S
C1181 H1169 0.950 . S
C1181 C1177 1.393 . S
C1181 C1180 1.391 . S
C1182 H1172 0.950 . S
C1182 C1183 1.386 . S
C1182 C1184 1.391 . S
C1183 C1182 1.386 . S
C1183 C1187 1.393 . S
C1184 H1173 0.950 . S
C1184 C1182 1.391 . S
C1184 C1185 1.400 . S
C1185 C1179 1.491 . S
C1185 C1184 1.400 . S
C1185 C1186 1.398 . S
C1186 H1174 0.950 . S
C1186 C1185 1.398 . S
C1186 C1187 1.391 . S
C1187 H1175 0.950 . S
C1187 C1183 1.393 . S
C1187 C1186 1.391 . S
C717 C475 1.665 . S
C723 C3 1.664 . S
C737 C62 1.662 . S
C743 C534 1.667 . S
C757 C121 1.664 . S
C763 C593 1.655 . S
C777 C180 1.666 . S
C783 C652 1.663 . S
C797 C357 1.662 . S
C803 C239 1.654 . S
C817 C298 1.654 . S
C823 C416 1.662 . S
C837 C229 1.317 . S
C843 C52 1.330 . S
C857 C288 1.325 . S
C863 C111 1.312 . S
C877 C347 1.316 . S
C883 C170 1.329 . S
C897 C406 1.317 . S
C903 C583 1.329 . S
C917 C465 1.321 . S
C923 C642 1.332 . S
C937 C524 1.322 . S
C943 C701 1.332 . S
C957 C33 1.597 . S
C963 C564 1.603 . S
C977 C92 1.599 . S
C983 C623 1.607 . S
C997 C151 1.608 . S
C1003 C682 1.601 . S
C1017 C387 1.608 . S
C1023 C210 1.603 . S
C1037 C269 1.606 . S
C1043 C446 1.605 . S
C1057 C505 1.604 . S
C1063 C328 1.597 . S
C1077 C654 1.398 . S
C1083 C5 1.390 . S
C1097 C64 1.377 . S
C1103 C359 1.383 . S
C1117 C418 1.378 . S
C1123 C123 1.388 . S
C1137 C182 1.378 . S
C1143 C477 1.389 . S
C1157 C241 1.377 . S
C1163 C536 1.381 . S
C1177 C595 1.389 . S
C1183 C300 1.379 . S
