# Generated by pormake.
# Topology vbv, (6)-cn, num edge types: 1
# Building blocks:
#     Node 0, Type 0, BuildingBlock: OJICUG_clean_sbu_0, # of connection points: 6
#     Node 1, Type 0, BuildingBlock: OJICUG_clean_sbu_0, # of connection points: 6
#     Node 2, Type 0, BuildingBlock: OJICUG_clean_sbu_0, # of connection points: 6
#     Node 3, Type 0, BuildingBlock: OJICUG_clean_sbu_0, # of connection points: 6
#     Node 4, Type 0, BuildingBlock: OJICUG_clean_sbu_0, # of connection points: 6
#     Node 5, Type 0, BuildingBlock: OJICUG_clean_sbu_0, # of connection points: 6
#     Node 6, Type 0, BuildingBlock: OJICUG_clean_sbu_0, # of connection points: 6
#     Node 7, Type 0, BuildingBlock: OJICUG_clean_sbu_0, # of connection points: 6
#     Node 8, Type 0, BuildingBlock: OJICUG_clean_sbu_0, # of connection points: 6
#     Node 9, Type 0, BuildingBlock: OJICUG_clean_sbu_0, # of connection points: 6
#     Node 10, Type 0, BuildingBlock: OJICUG_clean_sbu_0, # of connection points: 6
#     Node 11, Type 0, BuildingBlock: OJICUG_clean_sbu_0, # of connection points: 6
#     Node 12, Type 0, BuildingBlock: OJICUG_clean_sbu_0, # of connection points: 6
#     Node 13, Type 0, BuildingBlock: OJICUG_clean_sbu_0, # of connection points: 6
#     Node 14, Type 0, BuildingBlock: OJICUG_clean_sbu_0, # of connection points: 6
#     Node 15, Type 0, BuildingBlock: OJICUG_clean_sbu_0, # of connection points: 6
#     Edge 16, Type (0, 0), BuildingBlock: CIFDUS_clean_linker_0, # of connection points: 2
#     Edge 17, Type (0, 0), BuildingBlock: CIFDUS_clean_linker_0, # of connection points: 2
#     Edge 18, Type (0, 0), BuildingBlock: CIFDUS_clean_linker_0, # of connection points: 2
#     Edge 19, Type (0, 0), BuildingBlock: CIFDUS_clean_linker_0, # of connection points: 2
#     Edge 20, Type (0, 0), BuildingBlock: CIFDUS_clean_linker_0, # of connection points: 2
#     Edge 21, Type (0, 0), BuildingBlock: CIFDUS_clean_linker_0, # of connection points: 2
#     Edge 22, Type (0, 0), BuildingBlock: CIFDUS_clean_linker_0, # of connection points: 2
#     Edge 23, Type (0, 0), BuildingBlock: CIFDUS_clean_linker_0, # of connection points: 2
#     Edge 24, Type (0, 0), BuildingBlock: CIFDUS_clean_linker_0, # of connection points: 2
#     Edge 25, Type (0, 0), BuildingBlock: CIFDUS_clean_linker_0, # of connection points: 2
#     Edge 26, Type (0, 0), BuildingBlock: CIFDUS_clean_linker_0, # of connection points: 2
#     Edge 27, Type (0, 0), BuildingBlock: CIFDUS_clean_linker_0, # of connection points: 2
#     Edge 28, Type (0, 0), BuildingBlock: CIFDUS_clean_linker_0, # of connection points: 2
#     Edge 29, Type (0, 0), BuildingBlock: CIFDUS_clean_linker_0, # of connection points: 2
#     Edge 30, Type (0, 0), BuildingBlock: CIFDUS_clean_linker_0, # of connection points: 2
#     Edge 31, Type (0, 0), BuildingBlock: CIFDUS_clean_linker_0, # of connection points: 2
#     Edge 32, Type (0, 0), BuildingBlock: CIFDUS_clean_linker_0, # of connection points: 2
#     Edge 33, Type (0, 0), BuildingBlock: CIFDUS_clean_linker_0, # of connection points: 2
#     Edge 34, Type (0, 0), BuildingBlock: CIFDUS_clean_linker_0, # of connection points: 2
#     Edge 35, Type (0, 0), BuildingBlock: CIFDUS_clean_linker_0, # of connection points: 2
#     Edge 36, Type (0, 0), BuildingBlock: CIFDUS_clean_linker_0, # of connection points: 2
#     Edge 37, Type (0, 0), BuildingBlock: CIFDUS_clean_linker_0, # of connection points: 2
#     Edge 38, Type (0, 0), BuildingBlock: CIFDUS_clean_linker_0, # of connection points: 2
#     Edge 39, Type (0, 0), BuildingBlock: CIFDUS_clean_linker_0, # of connection points: 2
#     Edge 40, Type (0, 0), BuildingBlock: CIFDUS_clean_linker_0, # of connection points: 2
#     Edge 41, Type (0, 0), BuildingBlock: CIFDUS_clean_linker_0, # of connection points: 2
#     Edge 42, Type (0, 0), BuildingBlock: CIFDUS_clean_linker_0, # of connection points: 2
#     Edge 43, Type (0, 0), BuildingBlock: CIFDUS_clean_linker_0, # of connection points: 2
#     Edge 44, Type (0, 0), BuildingBlock: CIFDUS_clean_linker_0, # of connection points: 2
#     Edge 45, Type (0, 0), BuildingBlock: CIFDUS_clean_linker_0, # of connection points: 2
#     Edge 46, Type (0, 0), BuildingBlock: CIFDUS_clean_linker_0, # of connection points: 2
#     Edge 47, Type (0, 0), BuildingBlock: CIFDUS_clean_linker_0, # of connection points: 2
#     Edge 48, Type (0, 0), BuildingBlock: CIFDUS_clean_linker_0, # of connection points: 2
#     Edge 49, Type (0, 0), BuildingBlock: CIFDUS_clean_linker_0, # of connection points: 2
#     Edge 50, Type (0, 0), BuildingBlock: CIFDUS_clean_linker_0, # of connection points: 2
#     Edge 51, Type (0, 0), BuildingBlock: CIFDUS_clean_linker_0, # of connection points: 2
#     Edge 52, Type (0, 0), BuildingBlock: CIFDUS_clean_linker_0, # of connection points: 2
#     Edge 53, Type (0, 0), BuildingBlock: CIFDUS_clean_linker_0, # of connection points: 2
#     Edge 54, Type (0, 0), BuildingBlock: CIFDUS_clean_linker_0, # of connection points: 2
#     Edge 55, Type (0, 0), BuildingBlock: CIFDUS_clean_linker_0, # of connection points: 2
#     Edge 56, Type (0, 0), BuildingBlock: CIFDUS_clean_linker_0, # of connection points: 2
#     Edge 57, Type (0, 0), BuildingBlock: CIFDUS_clean_linker_0, # of connection points: 2
#     Edge 58, Type (0, 0), BuildingBlock: CIFDUS_clean_linker_0, # of connection points: 2
#     Edge 59, Type (0, 0), BuildingBlock: CIFDUS_clean_linker_0, # of connection points: 2
#     Edge 60, Type (0, 0), BuildingBlock: CIFDUS_clean_linker_0, # of connection points: 2
#     Edge 61, Type (0, 0), BuildingBlock: CIFDUS_clean_linker_0, # of connection points: 2
#     Edge 62, Type (0, 0), BuildingBlock: CIFDUS_clean_linker_0, # of connection points: 2
#     Edge 63, Type (0, 0), BuildingBlock: CIFDUS_clean_linker_0, # of connection points: 2
# Relax obj value: 0.217
# Max RMSD: 0.236
# Mean RMSD: 0.236
data_MOF--net-vbv--node1-OJICUG_clean_sbu_0--edge1-CIFDUS_clean_linker_0
_symmetry_space_group_name_H-M    P1
_symmetry_Int_Tables_number       1
_symmetry_cell_setting            triclinic
loop_
_symmetry_equiv_pos_as_xyz
'x, y, z'
_cell_length_a     48.282618
_cell_length_b     25.169469
_cell_length_c     42.437972
_cell_angle_alpha  90.257495
_cell_angle_beta   90.00603
_cell_angle_gamma 89.769908
loop_
_atom_site_label
_atom_site_type_symbol
_atom_site_fract_x
_atom_site_fract_y
_atom_site_fract_z
_atom_type_partial_charge
Sc0 Sc 0.12045 0.40528 0.10594 0.0
Sc1 Sc 0.1687 0.30439 0.0975 0.0
Sc2 Sc 0.12606 0.33914 0.03466 0.0
O3 O 0.13854 0.34924 0.07934 0.0
C4 C 0.07052 0.35023 0.07309 0.0
C5 C 0.13217 0.31493 0.15706 0.0
C6 C 0.13517 0.221 0.05298 0.0
C7 C 0.18373 0.42332 0.12005 0.0
C8 C 0.12219 0.46095 0.03829 0.0
C9 C 0.19105 0.31876 0.02993 0.0
O10 O 0.08153 0.36401 0.09919 0.0
O11 O 0.14422 0.2836 0.1379 0.0
O12 O 0.11919 0.25615 0.04143 0.0
O13 O 0.16027 0.44347 0.11252 0.0
O14 O 0.13288 0.42108 0.02448 0.0
O15 O 0.19512 0.32223 0.05932 0.0
O16 O 0.11257 0.45816 0.06623 0.0
O17 O 0.18769 0.37296 0.12126 0.0
O18 O 0.16706 0.32067 0.01764 0.0
O19 O 0.12577 0.36236 0.1497 0.0
O20 O 0.08321 0.35429 0.04688 0.0
O21 O 0.15442 0.23238 0.07269 0.0
Sc22 Sc 0.39136 0.66633 0.0374 0.0
Sc23 Sc 0.34198 0.69754 0.09351 0.0
Sc24 Sc 0.39192 0.60337 0.11036 0.0
O25 O 0.3753 0.65597 0.08055 0.0
C26 C 0.39605 0.54365 0.04332 0.0
C27 C 0.32639 0.67556 0.02549 0.0
C28 C 0.32827 0.58224 0.12061 0.0
C29 C 0.37604 0.78232 0.05127 0.0
C30 C 0.44371 0.66113 0.08188 0.0
C31 C 0.37622 0.70232 0.15502 0.0
O32 O 0.388 0.58354 0.02753 0.0
O33 O 0.32061 0.66676 0.05405 0.0
O34 O 0.35235 0.56307 0.11521 0.0
O35 O 0.39528 0.74985 0.04431 0.0
O36 O 0.43111 0.64421 0.10622 0.0
O37 O 0.36305 0.72771 0.13394 0.0
O38 O 0.43337 0.6577 0.05432 0.0
O39 O 0.35465 0.76831 0.06693 0.0
O40 O 0.38396 0.65405 0.15136 0.0
O41 O 0.35124 0.68025 0.01589 0.0
O42 O 0.40197 0.54672 0.07265 0.0
O43 O 0.32357 0.63218 0.11986 0.0
Sc44 Sc 0.6285 0.59607 0.38342 0.0
Sc45 Sc 0.66737 0.71031 0.3865 0.0
Sc46 Sc 0.62575 0.67751 0.44917 0.0
O47 O 0.64096 0.66091 0.40651 0.0
C48 C 0.57424 0.64541 0.41047 0.0
C49 C 0.6331 0.681 0.3281 0.0
C50 C 0.62633 0.79006 0.42437 0.0
C51 C 0.69218 0.59474 0.3699 0.0
C52 C 0.63362 0.55741 0.45507 0.0
C53 C 0.68825 0.71716 0.45373 0.0
O54 O 0.58672 0.62802 0.38602 0.0
O55 O 0.64122 0.71824 0.34612 0.0
O56 O 0.61079 0.75276 0.43362 0.0
O57 O 0.67126 0.5685 0.37983 0.0
O58 O 0.64041 0.60266 0.46581 0.0
O59 O 0.69393 0.70348 0.42572 0.0
O60 O 0.62398 0.55079 0.42725 0.0
O61 O 0.69098 0.64494 0.36517 0.0
O62 O 0.66386 0.71457 0.46507 0.0
O63 O 0.63176 0.63285 0.3372 0.0
O64 O 0.58583 0.64417 0.43738 0.0
O65 O 0.64844 0.78088 0.4086 0.0
Sc66 Sc 0.8926 0.39979 0.37297 0.0
Sc67 Sc 0.84799 0.29721 0.38821 0.0
Sc68 Sc 0.89234 0.34051 0.44702 0.0
O69 O 0.87782 0.34565 0.40301 0.0
C70 C 0.94556 0.34615 0.40307 0.0
C71 C 0.8835 0.29825 0.32898 0.0
C72 C 0.8819 0.22069 0.43491 0.0
C73 C 0.82877 0.40859 0.36207 0.0
C74 C 0.8949 0.46293 0.43832 0.0
C75 C 0.82689 0.32924 0.45461 0.0
O76 O 0.93316 0.36296 0.37836 0.0
O77 O 0.87347 0.26982 0.35068 0.0
O78 O 0.89802 0.25671 0.44466 0.0
O79 O 0.85094 0.43383 0.36884 0.0
O80 O 0.88763 0.42329 0.45445 0.0
O81 O 0.82233 0.32361 0.42536 0.0
O82 O 0.90119 0.45913 0.40924 0.0
O83 O 0.82888 0.35813 0.35911 0.0
O84 O 0.85118 0.33061 0.46645 0.0
O85 O 0.8864 0.34841 0.33198 0.0
O86 O 0.93454 0.34803 0.43042 0.0
O87 O 0.8619 0.23009 0.41616 0.0
Sc88 Sc 0.89361 0.59836 0.8727 0.0
Sc89 Sc 0.84918 0.70199 0.88739 0.0
Sc90 Sc 0.89449 0.66225 0.94585 0.0
O91 O 0.87926 0.65419 0.9022 0.0
C92 C 0.89536 0.5388 0.93953 0.0
C93 C 0.82963 0.59042 0.86124 0.0
C94 C 0.82935 0.67975 0.95433 0.0
C95 C 0.88478 0.6989 0.82803 0.0
C96 C 0.94702 0.65215 0.90164 0.0
C97 C 0.88415 0.78073 0.93198 0.0
O98 O 0.90158 0.5409 0.9103 0.0
O99 O 0.82964 0.64087 0.85874 0.0
O100 O 0.85386 0.67916 0.96562 0.0
O101 O 0.88786 0.64873 0.8312 0.0
O102 O 0.93653 0.65006 0.92924 0.0
O103 O 0.86322 0.76991 0.91486 0.0
O104 O 0.93434 0.63454 0.87731 0.0
O105 O 0.87421 0.72783 0.84942 0.0
O106 O 0.90131 0.7455 0.94068 0.0
O107 O 0.85176 0.56504 0.86841 0.0
O108 O 0.88853 0.57976 0.95526 0.0
O109 O 0.82436 0.67614 0.9251 0.0
Sc110 Sc 0.62941 0.39389 0.87169 0.0
Sc111 Sc 0.67512 0.29259 0.88681 0.0
Sc112 Sc 0.62872 0.33081 0.94464 0.0
O113 O 0.64415 0.33908 0.90118 0.0
C114 C 0.62653 0.45415 0.93898 0.0
C115 C 0.69339 0.40366 0.86027 0.0
C116 C 0.69404 0.3175 0.95366 0.0
C117 C 0.63955 0.2918 0.82731 0.0
C118 C 0.57606 0.33984 0.9006 0.0
C119 C 0.64089 0.21296 0.93097 0.0
O120 O 0.62115 0.45186 0.90947 0.0
O121 O 0.69363 0.35327 0.85752 0.0
O122 O 0.66939 0.31578 0.96444 0.0
O123 O 0.6354 0.34188 0.8304 0.0
O124 O 0.5867 0.34155 0.92811 0.0
O125 O 0.66216 0.22472 0.91471 0.0
O126 O 0.58873 0.35725 0.87629 0.0
O127 O 0.6507 0.26416 0.84882 0.0
O128 O 0.62287 0.24734 0.93874 0.0
O129 O 0.67107 0.42849 0.86743 0.0
O130 O 0.63349 0.41344 0.95464 0.0
O131 O 0.6993 0.32164 0.92452 0.0
Sc132 Sc 0.39749 0.33549 0.53492 0.0
Sc133 Sc 0.35173 0.29105 0.59113 0.0
Sc134 Sc 0.39377 0.39701 0.60826 0.0
O135 O 0.38094 0.34137 0.57803 0.0
C136 C 0.44834 0.34888 0.57964 0.0
C137 C 0.39181 0.21717 0.54859 0.0
C138 C 0.38505 0.29567 0.65264 0.0
C139 C 0.33352 0.31274 0.52334 0.0
C140 C 0.3933 0.45729 0.54161 0.0
C141 C 0.32941 0.40182 0.61791 0.0
O142 O 0.43831 0.35586 0.55218 0.0
O143 O 0.36926 0.22536 0.56364 0.0
O144 O 0.38821 0.34579 0.64944 0.0
O145 O 0.35841 0.31258 0.51327 0.0
O146 O 0.40078 0.45507 0.57053 0.0
O147 O 0.32937 0.35105 0.61844 0.0
O148 O 0.38727 0.41618 0.52573 0.0
O149 O 0.32757 0.31499 0.55236 0.0
O150 O 0.35152 0.42793 0.61219 0.0
O151 O 0.40831 0.25441 0.5419 0.0
O152 O 0.43502 0.36262 0.60436 0.0
O153 O 0.37556 0.26658 0.63071 0.0
Sc154 Sc 0.12989 0.59902 0.60665 0.0
Sc155 Sc 0.17333 0.70261 0.58884 0.0
Sc156 Sc 0.12578 0.6608 0.53369 0.0
O157 O 0.14297 0.65382 0.57633 0.0
C158 C 0.12755 0.53817 0.5394 0.0
C159 C 0.19415 0.59191 0.61628 0.0
C160 C 0.19017 0.67553 0.52126 0.0
C161 C 0.14014 0.70176 0.6505 0.0
C162 C 0.07511 0.64987 0.57956 0.0
C163 C 0.13438 0.77886 0.54698 0.0
O164 O 0.12184 0.54034 0.56889 0.0
O165 O 0.19454 0.64261 0.61686 0.0
O166 O 0.16525 0.67975 0.51162 0.0
O167 O 0.1363 0.65163 0.64757 0.0
O168 O 0.08464 0.64514 0.55167 0.0
O169 O 0.15729 0.76939 0.56098 0.0
O170 O 0.08877 0.63436 0.6036 0.0
O171 O 0.15004 0.72976 0.6284 0.0
O172 O 0.11703 0.74256 0.54129 0.0
O173 O 0.17189 0.56642 0.61022 0.0
O174 O 0.13339 0.57921 0.52358 0.0
O175 O 0.19671 0.67454 0.55012 0.0
Sc176 Sc 0.62784 0.89743 0.10601 0.0
Sc177 Sc 0.66903 0.78553 0.09784 0.0
Sc178 Sc 0.63115 0.8331 0.03351 0.0
O179 O 0.64276 0.83826 0.07887 0.0
C180 C 0.57548 0.84966 0.07278 0.0
C181 C 0.63301 0.80492 0.15674 0.0
C182 C 0.63407 0.71094 0.05051 0.0
C183 C 0.69162 0.90005 0.12013 0.0
C184 C 0.63021 0.95583 0.03943 0.0
C185 C 0.69523 0.80388 0.03098 0.0
O186 O 0.58692 0.86437 0.09855 0.0
O187 O 0.64261 0.77094 0.13747 0.0
O188 O 0.6232 0.74974 0.03597 0.0
O189 O 0.6699 0.92646 0.11253 0.0
O190 O 0.63886 0.91522 0.02477 0.0
O191 O 0.69722 0.79489 0.06023 0.0
O192 O 0.62199 0.95354 0.06783 0.0
O193 O 0.6917 0.84919 0.12181 0.0
O194 O 0.67259 0.81646 0.0175 0.0
O195 O 0.63055 0.85363 0.14958 0.0
O196 O 0.58834 0.84754 0.04648 0.0
O197 O 0.65086 0.71727 0.0735 0.0
Sc198 Sc 0.89072 0.16173 0.03421 0.0
Sc199 Sc 0.84459 0.20279 0.09147 0.0
Sc200 Sc 0.88903 0.09987 0.10754 0.0
O201 O 0.87496 0.15484 0.07761 0.0
C202 C 0.89158 0.0391 0.04097 0.0
C203 C 0.82591 0.17957 0.0243 0.0
C204 C 0.82526 0.09134 0.11857 0.0
C205 C 0.88066 0.28056 0.04732 0.0
C206 C 0.94252 0.15139 0.07902 0.0
C207 C 0.87922 0.20134 0.15165 0.0
O208 O 0.8842 0.07936 0.02514 0.0
O209 O 0.82048 0.17535 0.05336 0.0
O210 O 0.84753 0.06622 0.11167 0.0
O211 O 0.89804 0.24497 0.03946 0.0
O212 O 0.92951 0.13583 0.10345 0.0
O213 O 0.86881 0.22975 0.13004 0.0
O214 O 0.93234 0.14774 0.05135 0.0
O215 O 0.85929 0.27022 0.06387 0.0
O216 O 0.88262 0.1512 0.1486 0.0
O217 O 0.85062 0.17973 0.01368 0.0
O218 O 0.89771 0.04202 0.0702 0.0
O219 O 0.82462 0.14201 0.11981 0.0
Sc220 Sc 0.12598 0.09531 0.3808 0.0
Sc221 Sc 0.17286 0.19902 0.38424 0.0
Sc222 Sc 0.13182 0.17032 0.44835 0.0
O223 O 0.14386 0.15487 0.40428 0.0
C224 C 0.07633 0.1504 0.41369 0.0
C225 C 0.13466 0.18141 0.32644 0.0
C226 C 0.13679 0.28404 0.42555 0.0
C227 C 0.18887 0.07868 0.36425 0.0
C228 C 0.13474 0.04933 0.45016 0.0
C229 C 0.196 0.19819 0.45085 0.0
O230 O 0.08662 0.13571 0.38744 0.0
O231 O 0.14702 0.21447 0.34419 0.0
O232 O 0.12028 0.24898 0.43582 0.0
O233 O 0.16596 0.0585 0.37329 0.0
O234 O 0.14409 0.09237 0.46144 0.0
O235 O 0.20024 0.18563 0.42238 0.0
O236 O 0.12182 0.04715 0.42383 0.0
O237 O 0.19242 0.12904 0.36206 0.0
O238 O 0.17188 0.19953 0.46283 0.0
O239 O 0.12889 0.13439 0.33526 0.0
O240 O 0.08976 0.14476 0.43925 0.0
O241 O 0.15746 0.27222 0.40774 0.0
Sc242 Sc 0.39416 0.89443 0.38172 0.0
Sc243 Sc 0.34365 0.79849 0.38795 0.0
Sc244 Sc 0.38455 0.82765 0.45158 0.0
O245 O 0.37419 0.84015 0.40686 0.0
C246 C 0.44196 0.83813 0.41782 0.0
C247 C 0.38437 0.79973 0.33225 0.0
C248 C 0.37513 0.71337 0.43271 0.0
C249 C 0.33234 0.91617 0.36288 0.0
C250 C 0.38629 0.9489 0.44935 0.0
C251 C 0.31912 0.81675 0.45261 0.0
O252 O 0.43233 0.85174 0.39108 0.0
O253 O 0.37028 0.77172 0.35113 0.0
O254 O 0.39303 0.74689 0.4416 0.0
O255 O 0.35542 0.93497 0.37237 0.0
O256 O 0.37572 0.90814 0.46185 0.0
O257 O 0.3166 0.82619 0.42359 0.0
O258 O 0.39906 0.94747 0.4229 0.0
O259 O 0.32816 0.8661 0.36062 0.0
O260 O 0.34247 0.80718 0.46539 0.0
O261 O 0.39076 0.84807 0.33803 0.0
O262 O 0.42803 0.84445 0.44308 0.0
O263 O 0.35445 0.72659 0.4154 0.0
Sc264 Sc 0.39085 0.10286 0.87681 0.0
Sc265 Sc 0.34779 0.20952 0.89009 0.0
Sc266 Sc 0.38954 0.16334 0.95064 0.0
O267 O 0.37602 0.15866 0.90604 0.0
C268 C 0.38846 0.04113 0.94302 0.0
C269 C 0.32698 0.09799 0.86334 0.0
C270 C 0.32498 0.18847 0.95664 0.0
C271 C 0.38419 0.20273 0.83103 0.0
C272 C 0.44375 0.1496 0.90967 0.0
C273 C 0.38423 0.28367 0.93623 0.0
O274 O 0.39696 0.04445 0.91456 0.0
O275 O 0.32691 0.14872 0.8622 0.0
O276 O 0.34898 0.18394 0.96886 0.0
O277 O 0.38703 0.15271 0.83481 0.0
O278 O 0.43175 0.14561 0.93635 0.0
O279 O 0.36406 0.27596 0.91734 0.0
O280 O 0.43167 0.13753 0.88382 0.0
O281 O 0.37388 0.23241 0.85219 0.0
O282 O 0.39901 0.24597 0.94685 0.0
O283 O 0.34891 0.07181 0.87039 0.0
O284 O 0.38041 0.08153 0.95847 0.0
O285 O 0.32091 0.18888 0.92717 0.0
Sc286 Sc 0.12822 0.90084 0.87505 0.0
Sc287 Sc 0.17303 0.797 0.88761 0.0
Sc288 Sc 0.13028 0.83978 0.94813 0.0
O289 O 0.14392 0.84594 0.90377 0.0
C290 C 0.12956 0.96181 0.94228 0.0
C291 C 0.19191 0.9094 0.86147 0.0
C292 C 0.19514 0.81699 0.95411 0.0
C293 C 0.13661 0.80131 0.82859 0.0
C294 C 0.07609 0.85125 0.90768 0.0
C295 C 0.13735 0.72043 0.93255 0.0
O296 O 0.1212 0.95825 0.9137 0.0
O297 O 0.19246 0.85875 0.85955 0.0
O298 O 0.17091 0.81907 0.96597 0.0
O299 O 0.13301 0.85124 0.83257 0.0
O300 O 0.08803 0.85741 0.93424 0.0
O301 O 0.15809 0.72967 0.91479 0.0
O302 O 0.08794 0.86328 0.88175 0.0
O303 O 0.14718 0.77223 0.84975 0.0
O304 O 0.1214 0.75711 0.94246 0.0
O305 O 0.16973 0.9345 0.86903 0.0
O306 O 0.13863 0.9218 0.9572 0.0
O307 O 0.19956 0.8202 0.92477 0.0
Sc308 Sc 0.89024 0.8418 0.53346 0.0
Sc309 Sc 0.84752 0.79751 0.59342 0.0
Sc310 Sc 0.89308 0.89937 0.60798 0.0
O311 O 0.87706 0.84602 0.57806 0.0
C312 C 0.94521 0.84818 0.57466 0.0
C313 C 0.88101 0.72172 0.54561 0.0
C314 C 0.88473 0.79774 0.65163 0.0
C315 C 0.82468 0.82919 0.52783 0.0
C316 C 0.89313 0.96361 0.54307 0.0
C317 C 0.82928 0.90931 0.62099 0.0
O318 O 0.93301 0.85088 0.54801 0.0
O319 O 0.86129 0.73057 0.56489 0.0
O320 O 0.88807 0.84779 0.64889 0.0
O321 O 0.84869 0.83105 0.51536 0.0
O322 O 0.90078 0.9591 0.5717 0.0
O323 O 0.82892 0.85874 0.6231 0.0
O324 O 0.88465 0.92445 0.52709 0.0
O325 O 0.8208 0.82328 0.55715 0.0
O326 O 0.85159 0.93401 0.61407 0.0
O327 O 0.89651 0.75822 0.53533 0.0
O328 O 0.93346 0.86183 0.60051 0.0
O329 O 0.87368 0.76994 0.63015 0.0
Sc330 Sc 0.62966 0.10143 0.60012 0.0
Sc331 Sc 0.67073 0.21146 0.59086 0.0
Sc332 Sc 0.62913 0.17079 0.53011 0.0
O333 O 0.64345 0.16086 0.57375 0.0
C334 C 0.63647 0.05053 0.53073 0.0
C335 C 0.69356 0.09853 0.61437 0.0
C336 C 0.69183 0.20732 0.52448 0.0
C337 C 0.63416 0.19745 0.6495 0.0
C338 C 0.57656 0.14641 0.56838 0.0
C339 C 0.62969 0.28644 0.55034 0.0
O340 O 0.62588 0.04851 0.55844 0.0
O341 O 0.69321 0.14931 0.61621 0.0
O342 O 0.6674 0.20589 0.5132 0.0
O343 O 0.632 0.14759 0.6441 0.0
O344 O 0.58899 0.13887 0.54232 0.0
O345 O 0.65228 0.27886 0.5655 0.0
O346 O 0.58836 0.13515 0.59439 0.0
O347 O 0.64459 0.2292 0.62973 0.0
O348 O 0.61433 0.24817 0.5418 0.0
O349 O 0.67204 0.07209 0.60635 0.0
O350 O 0.644 0.09372 0.51808 0.0
O351 O 0.69702 0.19421 0.55256 0.0
H352 H 0.1096 0.19208 -0.0015 0.0
H353 H 0.15897 0.12808 0.07431 0.0
H354 H 0.16127 0.04231 0.04684 0.0
H355 H 0.15092 0.98687 0.00023 0.0
H356 H 0.10352 0.0534 0.9235 0.0
H357 H 0.09914 0.13711 0.9524 0.0
C358 C 0.12055 0.15928 0.00942 0.0
C359 C 0.13388 0.16671 0.03876 0.0
C360 C 0.1225 0.1107 -0.00694 0.0
C361 C 0.14835 0.12365 0.05198 0.0
C362 C 0.1498 0.07464 0.03615 0.0
C363 C 0.13958 0.0196 0.98975 0.0
C364 C 0.12758 0.01351 0.95954 0.0
C365 C 0.13728 0.06795 0.00646 0.0
C366 C 0.1131 0.05671 0.9465 0.0
C367 C 0.11048 0.10463 0.96312 0.0
H368 H 0.36169 0.01479 -0.0027 0.0
H369 H 0.41635 0.95034 0.92611 0.0
H370 H 0.41866 0.8663 0.95464 0.0
H371 H 0.40493 0.81102 -0.0007 0.0
H372 H 0.34823 0.87311 0.06908 0.0
H373 H 0.34724 0.95863 0.0417 0.0
C374 C 0.37415 0.98241 0.98797 0.0
C375 C 0.38891 0.98911 0.95954 0.0
C376 C 0.37518 0.93398 0.00437 0.0
C377 C 0.4047 0.9464 0.94777 0.0
C378 C 0.40613 0.89837 0.96418 0.0
C379 C 0.3926 0.84341 0.00886 0.0
C380 C 0.37694 0.83577 0.03654 0.0
C381 C 0.39151 0.89179 -0.00749 0.0
C382 C 0.36063 0.87795 0.04802 0.0
C383 C 0.35998 0.92677 0.03228 0.0
H384 H 0.59603 0.97986 0.5157 0.0
H385 H 0.68214 0.01564 0.50033 0.0
H386 H 0.68603 0.9416 0.46303 0.0
H387 H 0.66519 0.86574 0.43557 0.0
H388 H 0.57865 0.83072 0.44967 0.0
H389 H 0.57443 0.90626 0.48573 0.0
C390 C 0.61567 0.97075 0.50446 0.0
C391 C 0.63894 0.00215 0.51117 0.0
C392 C 0.6175 0.92914 0.48221 0.0
C393 C 0.6641 0.99128 0.4958 0.0
C394 C 0.66626 0.94932 0.47429 0.0
C395 C 0.64521 0.87539 0.44583 0.0
C396 C 0.62226 0.84264 0.43971 0.0
C397 C 0.64306 0.91814 0.46716 0.0
C398 C 0.59665 0.85537 0.4538 0.0
C399 C 0.59427 0.89825 0.47473 0.0
H400 H 0.87215 0.98753 0.48568 0.0
H401 H 0.91706 0.05648 0.56375 0.0
H402 H 0.91947 0.1411 0.53565 0.0
H403 H 0.90763 0.19554 0.4897 0.0
H404 H 0.86106 0.12677 0.41288 0.0
H405 H 0.86097 0.04109 0.43974 0.0
C406 C 0.88259 0.02088 0.49667 0.0
C407 C 0.89443 0.01556 0.52688 0.0
C408 C 0.88376 0.06915 0.48052 0.0
C409 C 0.90768 0.05948 0.54065 0.0
C410 C 0.90915 0.10777 0.52453 0.0
C411 C 0.8978 0.16165 0.47856 0.0
C412 C 0.88447 0.16745 0.4492 0.0
C413 C 0.89719 0.113 0.49451 0.0
C414 C 0.87148 0.12332 0.43539 0.0
C415 C 0.87133 0.07445 0.4508 0.0
H416 H 0.8717 0.0149 0.98277 0.0
H417 H 0.91617 0.94702 0.06132 0.0
H418 H 0.92003 0.86257 0.03297 0.0
H419 H 0.90942 0.80741 0.98678 0.0
H420 H 0.86273 0.87393 0.90958 0.0
H421 H 0.86155 0.96014 0.93641 0.0
C422 C 0.88235 0.98176 -0.00626 0.0
C423 C 0.89362 0.98741 0.02421 0.0
C424 C 0.88427 0.93328 0.97746 0.0
C425 C 0.90716 0.9438 0.03802 0.0
C426 C 0.90948 0.89555 0.02176 0.0
C427 C 0.89938 0.84098 0.97554 0.0
C428 C 0.88635 0.83439 0.94608 0.0
C429 C 0.89802 0.88983 -0.00847 0.0
C430 C 0.87298 0.87804 0.93217 0.0
C431 C 0.8722 0.92722 0.94756 0.0
H432 H 0.61273 0.18537 0.98355 0.0
H433 H 0.66587 0.12099 0.91091 0.0
H434 H 0.66678 0.03528 0.93789 0.0
H435 H 0.65412 0.98017 0.98323 0.0
H436 H 0.60302 0.04668 0.05719 0.0
H437 H 0.59993 0.13038 0.02859 0.0
C438 C 0.62419 0.15239 0.9733 0.0
C439 C 0.63904 0.15945 0.94509 0.0
C440 C 0.6253 0.1039 0.9894 0.0
C441 C 0.65418 0.11654 0.93252 0.0
C442 C 0.6548 0.06763 0.94801 0.0
C443 C 0.64224 0.0129 -0.00689 0.0
C444 C 0.62884 0.00705 0.02239 0.0
C445 C 0.64075 0.06112 0.97669 0.0
C446 C 0.61369 0.05008 0.03484 0.0
C447 C 0.6118 0.09792 0.01843 0.0
H448 H 0.42588 0.02306 0.46204 0.0
H449 H 0.34002 0.98462 0.47751 0.0
H450 H 0.3347 0.06157 0.51212 0.0
H451 H 0.35414 0.13982 0.53768 0.0
H452 H 0.44016 0.17908 0.52332 0.0
H453 H 0.44593 0.10114 0.48938 0.0
C454 C 0.406 0.03221 0.47271 0.0
C455 C 0.38329 0.9989 0.46707 0.0
C456 C 0.40324 0.07591 0.4933 0.0
C457 C 0.35772 0.01015 0.48147 0.0
C458 C 0.3547 0.05385 0.5014 0.0
C459 C 0.37431 0.13086 0.52766 0.0
C460 C 0.39664 0.1652 0.53311 0.0
C461 C 0.37735 0.08674 0.50768 0.0
C462 C 0.42257 0.15322 0.51953 0.0
C463 C 0.42586 0.1089 0.49991 0.0
H464 H 0.17121 0.85916 0.53709 0.0
H465 H 0.08565 0.81573 0.52282 0.0
H466 H 0.07843 0.89399 0.49031 0.0
H467 H 0.0969 0.97304 0.46357 0.0
H468 H 0.18157 0.01903 0.47997 0.0
H469 H 0.18875 0.94139 0.51347 0.0
C470 C 0.15086 0.86732 0.52739 0.0
C471 C 0.12913 0.8313 0.5323 0.0
C472 C 0.14679 0.91242 0.50848 0.0
C473 C 0.10288 0.84252 0.51932 0.0
C474 C 0.09871 0.88719 0.50053 0.0
C475 C 0.11691 0.96566 0.47436 0.0
C476 C 0.13878 1.00099 0.46907 0.0
C477 C 0.12064 0.92184 0.49439 0.0
C478 C 0.16449 0.99194 0.48366 0.0
C479 C 0.16858 0.94776 0.5029 0.0
H480 H 0.64103 0.47477 3e-05 0.0
H481 H 0.60699 0.54978 0.91715 0.0
H482 H 0.60365 0.63402 0.94574 0.0
H483 H 0.61226 0.68704 -0.00689 0.0
H484 H 0.64851 0.61368 0.07527 0.0
H485 H 0.64851 0.52763 0.04813 0.0
C486 C 0.63277 0.50941 0.98812 0.0
C487 C 0.62436 0.50567 0.95627 0.0
C488 C 0.6311 0.55791 0.00465 0.0
C489 C 0.61377 0.55127 0.94147 0.0
C490 C 0.61176 0.5995 0.95787 0.0
C491 C 0.61978 0.65222 0.00545 0.0
C492 C 0.63029 0.65711 0.03642 0.0
C493 C 0.62055 0.60332 0.98936 0.0
C494 C 0.64021 0.6113 0.05159 0.0
C495 C 0.64038 0.56211 0.03597 0.0
H496 H 0.90838 0.30638 -0.00612 0.0
H497 H 0.8583 0.37453 0.0681 0.0
H498 H 0.85915 0.46064 0.04158 0.0
H499 H 0.8724 0.51531 -0.00367 0.0
H500 H 0.92018 0.44575 0.92055 0.0
H501 H 0.92174 0.36117 0.94865 0.0
C502 C 0.89798 0.34024 0.00455 0.0
C503 C 0.88349 0.33407 0.03315 0.0
C504 C 0.89786 0.38915 0.98869 0.0
C505 C 0.86969 0.37819 0.04623 0.0
C506 C 0.87009 0.42737 0.03101 0.0
C507 C 0.88329 0.48178 0.98594 0.0
C508 C 0.89621 0.48707 0.9563 0.0
C509 C 0.88381 0.43311 0.00204 0.0
C510 C 0.90996 0.44288 0.9432 0.0
C511 C 0.91094 0.39453 0.95932 0.0
H512 H 0.14959 0.51586 0.4817 0.0
H513 H 0.10326 0.44471 0.55755 0.0
H514 H 0.10008 0.36185 0.52743 0.0
H515 H 0.11102 0.30958 0.48034 0.0
H516 H 0.15978 0.3782 0.4057 0.0
H517 H 0.16095 0.46287 0.4345 0.0
C518 C 0.13872 0.48231 0.49172 0.0
C519 C 0.12658 0.48674 0.52196 0.0
C520 C 0.13718 0.43466 0.47436 0.0
C521 C 0.11288 0.44252 0.53453 0.0
C522 C 0.11094 0.39521 0.5172 0.0
C523 C 0.12157 0.34318 0.46996 0.0
C524 C 0.13498 0.33756 0.44051 0.0
C525 C 0.12297 0.39092 0.48713 0.0
C526 C 0.14906 0.38143 0.42804 0.0
C527 C 0.14987 0.42972 0.44463 0.0
H528 H 0.36537 0.48096 0.48773 0.0
H529 H 0.41913 0.54983 0.55814 0.0
H530 H 0.41924 0.63364 0.52932 0.0
H531 H 0.40421 0.68679 0.48473 0.0
H532 H 0.34835 0.62105 0.41542 0.0
H533 H 0.34919 0.53575 0.44326 0.0
C534 C 0.37716 0.51428 0.49679 0.0
C535 C 0.39238 0.509 0.52504 0.0
C536 C 0.3769 0.56251 0.48024 0.0
C537 C 0.40721 0.55279 0.5366 0.0
C538 C 0.40737 0.60062 0.52003 0.0
C539 C 0.39238 0.65378 0.47532 0.0
C540 C 0.37651 0.6602 0.44764 0.0
C541 C 0.39239 0.60576 0.49183 0.0
C542 C 0.36091 0.61711 0.43644 0.0
C543 C 0.36133 0.56847 0.45243 0.0
H544 H 0.40907 0.30906 -0.00834 0.0
H545 H 0.36749 0.3789 0.91175 0.0
H546 H 0.36876 0.46594 0.93749 0.0
H547 H 0.37886 0.52056 0.98383 0.0
H548 H 0.4182 0.44999 0.06503 0.0
H549 H 0.42049 0.36454 0.03752 0.0
C550 C 0.40071 0.34345 0.97958 0.0
C551 C 0.38828 0.33747 0.94971 0.0
C552 C 0.40076 0.39301 -0.00509 0.0
C553 C 0.37717 0.38238 0.93469 0.0
C554 C 0.3778 0.4321 0.94946 0.0
C555 C 0.38812 0.48668 -0.00443 0.0
C556 C 0.39828 0.49186 0.02659 0.0
C557 C 0.38906 0.43761 0.9798 0.0
C558 C 0.41009 0.44725 0.04129 0.0
C559 C 0.41147 0.39836 0.02553 0.0
H560 H 0.1457 0.48503 0.98176 0.0
H561 H 0.09484 0.55189 0.05584 0.0
H562 H 0.09289 0.63633 0.0279 0.0
H563 H 0.10745 0.69237 0.98402 0.0
H564 H 0.1601 0.62712 0.91114 0.0
H565 H 0.15909 0.54048 0.9369 0.0
C566 C 0.13405 0.51792 -0.00821 0.0
C567 C 0.12053 0.512 0.021 0.0
C568 C 0.13323 0.5666 0.97576 0.0
C569 C 0.1056 0.55526 0.03355 0.0
C570 C 0.1044 0.60359 0.01753 0.0
C571 C 0.11837 0.65907 0.97341 0.0
C572 C 0.1338 0.66633 0.94559 0.0
C573 C 0.11834 0.60983 0.98879 0.0
C574 C 0.14806 0.62272 0.9325 0.0
C575 C 0.14759 0.57321 0.9473 0.0
H576 H 0.90643 0.69654 0.49064 0.0
H577 H 0.86179 0.62731 0.56842 0.0
H578 H 0.86298 0.54077 0.54206 0.0
H579 H 0.87466 0.48652 0.4962 0.0
H580 H 0.91741 0.55629 0.41718 0.0
H581 H 0.91877 0.64167 0.44492 0.0
C582 C 0.89728 0.66241 0.5021 0.0
C583 C 0.88413 0.66828 0.53156 0.0
C584 C 0.89741 0.61329 0.48647 0.0
C585 C 0.87204 0.6238 0.5458 0.0
C586 C 0.87265 0.57443 0.5307 0.0
C587 C 0.88444 0.52023 0.48497 0.0
C588 C 0.89595 0.51496 0.45459 0.0
C589 C 0.88492 0.569 0.50087 0.0
C590 C 0.90831 0.55928 0.44045 0.0
C591 C 0.90917 0.608 0.45634 0.0
H592 H 0.5971 0.47699 0.46234 0.0
H593 H 0.67531 0.53641 0.49609 0.0
H594 H 0.67992 0.46022 0.53137 0.0
H595 H 0.66288 0.37413 0.55024 0.0
H596 H 0.58336 0.31722 0.51817 0.0
H597 H 0.57779 0.39564 0.4854 0.0
C598 C 0.61514 0.47302 0.47741 0.0
C599 C 0.63607 0.51147 0.47632 0.0
C600 C 0.61728 0.42994 0.49821 0.0
C601 C 0.65905 0.50687 0.49644 0.0
C602 C 0.66165 0.46346 0.51665 0.0
C603 C 0.64406 0.37932 0.53662 0.0
C604 C 0.62379 0.33928 0.53643 0.0
C605 C 0.64099 0.42448 0.51754 0.0
C606 C 0.59949 0.34701 0.51862 0.0
C607 C 0.59631 0.39176 0.49965 0.0
H608 H 0.12692 0.28093 0.30378 0.0
H609 H 0.13076 0.11651 0.27488 0.0
H610 H 0.12871 0.14302 0.21957 0.0
H611 H 0.12995 0.2135 0.17943 0.0
H612 H 0.12475 0.3777 0.20884 0.0
H613 H 0.12301 0.3506 0.26384 0.0
C614 C 0.12701 0.25088 0.28537 0.0
C615 C 0.12932 0.19692 0.2934 0.0
C616 C 0.12577 0.26636 0.25368 0.0
C617 C 0.12898 0.15836 0.26933 0.0
C618 C 0.12798 0.17349 0.23768 0.0
C619 C 0.12819 0.2433 0.19787 0.0
C620 C 0.12784 0.29756 0.18999 0.0
C621 C 0.12703 0.22746 0.22957 0.0
C622 C 0.12512 0.33566 0.21417 0.0
C623 C 0.12423 0.32024 0.24569 0.0
H624 H 0.39134 0.65778 0.21087 0.0
H625 H 0.37323 0.80872 0.16734 0.0
H626 H 0.37822 0.85358 0.21802 0.0
H627 H 0.38314 0.84889 0.2756 0.0
H628 H 0.39796 0.69726 0.31947 0.0
H629 H 0.39944 0.65398 0.26784 0.0
C630 C 0.3888 0.70055 0.21238 0.0
C631 C 0.38159 0.72964 0.18538 0.0
C632 C 0.39115 0.72608 0.24174 0.0
C633 C 0.3784 0.78514 0.18782 0.0
C634 C 0.38133 0.81094 0.2168 0.0
C635 C 0.38736 0.80663 0.27371 0.0
C636 C 0.39044 0.77624 0.30114 0.0
C637 C 0.38709 0.78169 0.24404 0.0
C638 C 0.39546 0.72135 0.29855 0.0
C639 C 0.39618 0.69657 0.26909 0.0
H640 H 0.63232 0.7044 0.18068 0.0
H641 H 0.62042 0.86908 0.20677 0.0
H642 H 0.61674 0.8443 0.26194 0.0
H643 H 0.62152 0.77745 0.30319 0.0
H644 H 0.6335 0.61274 0.27773 0.0
H645 H 0.63212 0.63602 0.22191 0.0
C646 C 0.62864 0.73484 0.19838 0.0
C647 C 0.62713 0.78861 0.18954 0.0
C648 C 0.62668 0.72042 0.23023 0.0
C649 C 0.62192 0.8274 0.21281 0.0
C650 C 0.61987 0.81334 0.24445 0.0
C651 C 0.62355 0.74654 0.28544 0.0
C652 C 0.62803 0.69361 0.2946 0.0
C653 C 0.62296 0.7602 0.25348 0.0
C654 C 0.63012 0.65387 0.27132 0.0
C655 C 0.62948 0.66717 0.23938 0.0
H656 H 0.88811 0.15387 0.20822 0.0
H657 H 0.8838 0.30745 0.16345 0.0
H658 H 0.8881 0.35129 0.21448 0.0
H659 H 0.88815 0.34608 0.27202 0.0
H660 H 0.89033 0.19256 0.31697 0.0
H661 H 0.89218 0.1488 0.26565 0.0
C662 C 0.8885 0.1969 0.20958 0.0
C663 C 0.88521 0.22726 0.18215 0.0
C664 C 0.89043 0.22197 0.23905 0.0
C665 C 0.88586 0.28306 0.1843 0.0
C666 C 0.88836 0.30824 0.21346 0.0
C667 C 0.8895 0.3031 0.2706 0.0
C668 C 0.88873 0.27265 0.29821 0.0
C669 C 0.88989 0.2781 0.24104 0.0
C670 C 0.89051 0.21694 0.296 0.0
C671 C 0.89155 0.19183 0.26668 0.0
H672 H 0.8931 0.84432 0.70877 0.0
H673 H 0.89 0.69147 0.66233 0.0
H674 H 0.89307 0.64682 0.71304 0.0
H675 H 0.89115 0.65126 0.77074 0.0
H676 H 0.89227 0.80432 0.81708 0.0
H677 H 0.89578 0.84853 0.76632 0.0
C678 C 0.89357 0.80126 0.7097 0.0
C679 C 0.89087 0.77137 0.68188 0.0
C680 C 0.89473 0.77574 0.73898 0.0
C681 C 0.89161 0.71552 0.68348 0.0
C682 C 0.89337 0.68987 0.71247 0.0
C683 C 0.89263 0.69421 0.76975 0.0
C684 C 0.89099 0.7244 0.79758 0.0
C685 C 0.89406 0.71958 0.74042 0.0
C686 C 0.89302 0.7801 0.79592 0.0
C687 C 0.89505 0.80551 0.76691 0.0
H688 H 0.62398 0.33694 0.77161 0.0
H689 H 0.64163 0.1854 0.81472 0.0
H690 H 0.63774 0.1413 0.76382 0.0
H691 H 0.63473 0.14694 0.70613 0.0
H692 H 0.61863 0.29878 0.66292 0.0
H693 H 0.616 0.34104 0.71462 0.0
C694 C 0.62661 0.2942 0.76997 0.0
C695 C 0.63361 0.26489 0.79693 0.0
C696 C 0.62472 0.26893 0.74047 0.0
C697 C 0.63669 0.20933 0.79431 0.0
C698 C 0.63443 0.18387 0.76517 0.0
C699 C 0.63002 0.189 0.70811 0.0
C700 C 0.62725 0.21975 0.68079 0.0
C701 C 0.62924 0.21344 0.73794 0.0
C702 C 0.62123 0.27433 0.68367 0.0
C703 C 0.61978 0.29862 0.71322 0.0
H704 H 0.39246 0.34418 0.70965 0.0
H705 H 0.38913 0.18971 0.66514 0.0
H706 H 0.39166 0.14692 0.71641 0.0
H707 H 0.39003 0.15326 0.7741 0.0
H708 H 0.39174 0.30778 0.81861 0.0
H709 H 0.39498 0.35026 0.76728 0.0
C710 C 0.39269 0.30117 0.71111 0.0
C711 C 0.39021 0.27037 0.68357 0.0
C712 C 0.39368 0.27663 0.74077 0.0
C713 C 0.39063 0.21457 0.68597 0.0
C714 C 0.39209 0.18993 0.71531 0.0
C715 C 0.39159 0.19615 0.7726 0.0
C716 C 0.39028 0.22721 0.80015 0.0
C717 C 0.39288 0.22055 0.74292 0.0
C718 C 0.39232 0.28284 0.79774 0.0
C719 C 0.39416 0.30728 0.76838 0.0
H720 H 0.13379 0.84906 0.77104 0.0
H721 H 0.12777 0.69649 0.81646 0.0
H722 H 0.12588 0.65224 0.76531 0.0
H723 H 0.13049 0.65592 0.70774 0.0
H724 H 0.13813 0.80839 0.66238 0.0
H725 H 0.13465 0.8532 0.71318 0.0
C726 C 0.13155 0.80625 0.76972 0.0
C727 C 0.1312 0.77621 0.79755 0.0
C728 C 0.13109 0.78076 0.74015 0.0
C729 C 0.12841 0.72063 0.7954 0.0
C730 C 0.12735 0.69518 0.76613 0.0
C731 C 0.13104 0.69895 0.7089 0.0
C732 C 0.13494 0.72849 0.68122 0.0
C733 C 0.12943 0.72469 0.73834 0.0
C734 C 0.13553 0.78438 0.68328 0.0
C735 C 0.1335 0.81021 0.71237 0.0
H736 H 0.23898 0.39731 0.12557 0.0
H737 H 0.18336 0.53205 0.12531 0.0
H738 H 0.22276 0.59232 0.12771 0.0
H739 H 0.27308 0.60754 0.1263 0.0
H740 H 0.32892 0.47316 0.12507 0.0
H741 H 0.28952 0.41264 0.12709 0.0
C742 C 0.23536 0.43983 0.12651 0.0
C743 C 0.20792 0.4597 0.12526 0.0
C744 C 0.2583 0.47467 0.12744 0.0
C745 C 0.20401 0.51518 0.12622 0.0
C746 C 0.22664 0.54988 0.12753 0.0
C747 C 0.27679 0.56504 0.1269 0.0
C748 C 0.30425 0.54536 0.12553 0.0
C749 C 0.2539 0.53018 0.12762 0.0
C750 C 0.30824 0.48989 0.12614 0.0
C751 C 0.28561 0.45507 0.1272 0.0
H752 H 0.70349 0.48742 0.36519 0.0
H753 H 0.7432 0.6407 0.36465 0.0
H754 H 0.7885 0.59806 0.36112 0.0
H755 H 0.81763 0.51673 0.36054 0.0
H756 H 0.77748 0.36375 0.35915 0.0
H757 H 0.73233 0.40658 0.36087 0.0
C758 C 0.72201 0.51158 0.36406 0.0
C759 C 0.7196 0.56742 0.36525 0.0
C760 C 0.7483 0.48674 0.36171 0.0
C761 C 0.74408 0.59772 0.36362 0.0
C762 C 0.77019 0.57331 0.36172 0.0
C763 C 0.79903 0.49274 0.36022 0.0
C764 C 0.80137 0.43681 0.35964 0.0
C765 C 0.77267 0.51776 0.36103 0.0
C766 C 0.77673 0.40676 0.35934 0.0
C767 C 0.75067 0.43126 0.3605 0.0
H768 H 0.81868 0.48239 0.85756 0.0
H769 H 0.77822 0.63561 0.85725 0.0
H770 H 0.73312 0.59309 0.85611 0.0
H771 H 0.70421 0.51199 0.85764 0.0
H772 H 0.74482 0.35887 0.85594 0.0
H773 H 0.78984 0.40146 0.85527 0.0
C774 C 0.80005 0.50654 0.85691 0.0
C775 C 0.8023 0.56242 0.85748 0.0
C776 C 0.77372 0.48172 0.85601 0.0
C777 C 0.77758 0.59262 0.85665 0.0
C778 C 0.75151 0.56828 0.85613 0.0
C779 C 0.72286 0.4879 0.85677 0.0
C780 C 0.72064 0.43199 0.85682 0.0
C781 C 0.7492 0.51278 0.85614 0.0
C782 C 0.7454 0.40188 0.85574 0.0
C783 C 0.77143 0.42625 0.85549 0.0
H784 H 0.20444 0.48364 0.61961 0.0
H785 H 0.24562 0.63554 0.62271 0.0
H786 H 0.29044 0.59142 0.62476 0.0
H787 H 0.31883 0.50963 0.62275 0.0
H788 H 0.27778 0.3576 0.62104 0.0
H789 H 0.23283 0.40161 0.62161 0.0
C790 C 0.22315 0.50717 0.62111 0.0
C791 C 0.22122 0.56316 0.62092 0.0
C792 C 0.24931 0.4814 0.62242 0.0
C793 C 0.24603 0.59252 0.62286 0.0
C794 C 0.27192 0.56726 0.62394 0.0
C795 C 0.3001 0.48602 0.62289 0.0
C796 C 0.30211 0.43008 0.62183 0.0
C797 C 0.27392 0.51169 0.62331 0.0
C798 C 0.27729 0.4006 0.62199 0.0
C799 C 0.25134 0.4258 0.62218 0.0
H800 H 0.81593 0.98301 0.12252 0.0
H801 H 0.77353 0.13438 0.12486 0.0
H802 H 0.72908 0.08969 0.12704 0.0
H803 H 0.7014 0.00766 0.12508 0.0
H804 H 0.74348 0.85603 0.12422 0.0
H805 H 0.78816 0.90057 0.12497 0.0
C806 C 0.79702 0.00628 0.12388 0.0
C807 C 0.79848 0.06229 0.12341 0.0
C808 C 0.77108 0.98019 0.12529 0.0
C809 C 0.77346 0.09136 0.12524 0.0
C810 C 0.74779 0.06578 0.12638 0.0
C811 C 0.7203 0.98425 0.12544 0.0
C812 C 0.7187 0.9283 0.12453 0.0
C813 C 0.74625 0.0102 0.12596 0.0
C814 C 0.7437 0.89904 0.12506 0.0
C815 C 0.76946 0.92455 0.12532 0.0
H816 H 0.2441 0.10358 0.35862 0.0
H817 H 0.18801 0.97044 0.35729 0.0
H818 H 0.22712 0.9091 0.35387 0.0
H819 H 0.27734 0.89233 0.35541 0.0
H820 H 0.33363 0.02502 0.35872 0.0
H821 H 0.29454 0.08681 0.35686 0.0
C822 C 0.24034 0.06121 0.35707 0.0
C823 C 0.21288 0.04204 0.35827 0.0
C824 C 0.2631 0.02572 0.35562 0.0
C825 C 0.20872 0.98673 0.35652 0.0
C826 C 0.23117 0.95142 0.3546 0.0
C827 C 0.28119 0.93474 0.35515 0.0
C828 C 0.30865 0.95362 0.35717 0.0
C829 C 0.25848 0.97033 0.35472 0.0
C830 C 0.3129 0.00897 0.35716 0.0
C831 C 0.29046 0.04451 0.35621 0.0
H832 H 0.20207 0.0178 0.85983 0.0
H833 H 0.24337 0.86561 0.85383 0.0
H834 H 0.28814 0.90917 0.85269 0.0
H835 H 0.31654 0.99043 0.85655 0.0
H836 H 0.27537 0.14285 0.86065 0.0
H837 H 0.23045 0.09953 0.85916 0.0
C838 C 0.2208 0.99413 0.85786 0.0
C839 C 0.21889 0.93818 0.85701 0.0
C840 C 0.24696 0.01958 0.85703 0.0
C841 C 0.24374 0.90862 0.85446 0.0
C842 C 0.26961 0.93355 0.85393 0.0
C843 C 0.29779 0.01427 0.85673 0.0
C844 C 0.29976 0.0701 0.85875 0.0
C845 C 0.27161 0.98901 0.85566 0.0
C846 C 0.27491 0.09991 0.85894 0.0
C847 C 0.24898 0.0751 0.85823 0.0
H848 H 0.81874 0.0179 0.62223 0.0
H849 H 0.77774 0.86595 0.62639 0.0
H850 H 0.73283 0.90972 0.62567 0.0
H851 H 0.70431 0.99102 0.62096 0.0
H852 H 0.745 0.14332 0.61869 0.0
H853 H 0.79004 0.09983 0.62178 0.0
C854 C 0.80003 0.99433 0.62342 0.0
C855 C 0.80209 0.93836 0.62438 0.0
C856 C 0.77377 0.01993 0.62317 0.0
C857 C 0.77726 0.90895 0.62581 0.0
C858 C 0.75131 0.93401 0.62524 0.0
C859 C 0.72297 0.01482 0.62148 0.0
C860 C 0.72084 0.07067 0.61953 0.0
C861 C 0.74919 0.98947 0.6235 0.0
C862 C 0.74558 0.10039 0.62029 0.0
C863 C 0.77158 0.07548 0.62194 0.0
H864 H 0.27259 0.20618 0.93724 0.0
H865 H 0.32475 0.20919 0.02011 0.0
H866 H 0.28825 0.25537 0.0493 0.0
H867 H 0.24307 0.29824 0.05014 0.0
H868 H 0.19146 0.29661 0.96679 0.0
H869 H 0.22762 0.24903 0.93803 0.0
C870 C 0.27604 0.2164 0.9618 0.0
C871 C 0.30147 0.20468 0.97643 0.0
C872 C 0.25565 0.24478 0.97786 0.0
C873 C 0.30534 0.21766 0.00833 0.0
C874 C 0.28468 0.24472 0.02486 0.0
C875 C 0.23973 0.28814 0.02556 0.0
C876 C 0.21454 0.30082 0.01064 0.0
C877 C 0.2601 0.2595 0.00956 0.0
C878 C 0.2107 0.28753 0.97878 0.0
C879 C 0.23117 0.25971 0.96247 0.0
H880 H 0.27348 0.69172 0.04352 0.0
H881 H 0.32849 0.70607 0.96359 0.0
H882 H 0.29326 0.75769 0.93576 0.0
H883 H 0.24808 0.80102 0.93534 0.0
H884 H 0.19384 0.78791 0.01606 0.0
H885 H 0.22899 0.7361 0.04354 0.0
C886 C 0.27782 0.70543 0.01984 0.0
C887 C 0.30364 0.69513 0.00565 0.0
C888 C 0.25821 0.73694 0.00475 0.0
C889 C 0.30872 0.71322 0.97495 0.0
C890 C 0.2888 0.74338 0.95926 0.0
C891 C 0.24397 0.78747 0.95911 0.0
C892 C 0.21825 0.7979 0.97354 0.0
C893 C 0.26377 0.75632 0.97428 0.0
C894 C 0.21347 0.78051 0.00444 0.0
C895 C 0.23335 0.75023 0.01996 0.0
H896 H 0.73813 0.74727 0.43183 0.0
H897 H 0.68715 0.74851 0.51562 0.0
H898 H 0.72383 0.79444 0.54446 0.0
H899 H 0.77127 0.82637 0.54669 0.0
H900 H 0.82301 0.81948 0.46358 0.0
H901 H 0.78405 0.78592 0.43293 0.0
C902 C 0.73495 0.75724 0.45647 0.0
C903 C 0.71023 0.74334 0.47184 0.0
C904 C 0.75591 0.78347 0.47271 0.0
C905 C 0.70624 0.75789 0.50348 0.0
C906 C 0.72706 0.78447 0.51986 0.0
C907 C 0.77402 0.81822 0.52175 0.0
C908 C 0.80018 0.82392 0.50758 0.0
C909 C 0.7521 0.79648 0.50478 0.0
C910 C 0.80316 0.81476 0.47511 0.0
C911 C 0.78102 0.79501 0.45769 0.0
H912 H 0.77311 0.33246 0.43747 0.0
H913 H 0.82666 0.30996 0.51803 0.0
H914 H 0.78843 0.27027 0.54704 0.0
H915 H 0.74279 0.23058 0.54635 0.0
H916 H 0.68997 0.24745 0.46463 0.0
H917 H 0.726 0.29876 0.43832 0.0
C918 C 0.77638 0.31962 0.46158 0.0
C919 C 0.80285 0.32262 0.47532 0.0
C920 C 0.75497 0.29401 0.47727 0.0
C921 C 0.80654 0.30752 0.50683 0.0
C922 C 0.78485 0.28408 0.52322 0.0
C923 C 0.73904 0.24515 0.5227 0.0
C924 C 0.71392 0.23435 0.50717 0.0
C925 C 0.75952 0.27482 0.50802 0.0
C926 C 0.70934 0.2544 0.4768 0.0
C927 C 0.72975 0.2842 0.46195 0.0
H928 H 0.77881 0.7096 0.93437 0.0
H929 H 0.82818 0.69121 0.01871 0.0
H930 H 0.79161 0.73447 0.04958 0.0
H931 H 0.74644 0.77807 0.05189 0.0
H932 H 0.69809 0.79733 0.96681 0.0
H933 H 0.73495 0.75548 0.93627 0.0
C934 C 0.78166 0.71432 0.95958 0.0
C935 C 0.80615 0.69687 0.97431 0.0
C936 C 0.76132 0.74081 0.9767 0.0
C937 C 0.80941 0.70389 0.00692 0.0
C938 C 0.78871 0.72915 0.02444 0.0
C939 C 0.74399 0.77365 0.0266 0.0
C940 C 0.7194 0.79015 0.01165 0.0
C941 C 0.7648 0.74827 0.0094 0.0
C942 C 0.71679 0.78493 0.97886 0.0
C943 C 0.73766 0.7604 0.96147 0.0
H944 H 0.74793 0.31013 0.93707 0.0
H945 H 0.69163 0.28302 0.01461 0.0
H946 H 0.727 0.23046 0.04124 0.0
H947 H 0.77218 0.18835 0.04079 0.0
H948 H 0.82881 0.2159 0.96364 0.0
H949 H 0.79351 0.2689 0.93699 0.0
C950 C 0.7434 0.29336 0.96001 0.0
C951 C 0.71704 0.29989 0.97367 0.0
C952 C 0.76322 0.26136 0.97441 0.0
C953 C 0.71174 0.27862 0.00359 0.0
C954 C 0.73175 0.24779 0.01854 0.0
C955 C 0.77685 0.20541 0.01797 0.0
C956 C 0.80318 0.19856 0.00432 0.0
C957 C 0.75717 0.23777 0.00368 0.0
C958 C 0.80866 0.22036 0.97458 0.0
C959 C 0.78871 0.25144 0.95964 0.0
H960 H 0.27931 0.32143 0.5365 0.0
H961 H 0.33614 0.27372 0.46288 0.0
H962 H 0.29798 0.23229 0.43399 0.0
H963 H 0.24971 0.20303 0.43249 0.0
H964 H 0.1942 0.24609 0.50853 0.0
H965 H 0.23147 0.29382 0.5347 0.0
C966 C 0.28342 0.30239 0.51397 0.0
C967 C 0.31054 0.2999 0.50202 0.0
C968 C 0.26195 0.27634 0.49859 0.0
C969 C 0.3154 0.27616 0.47254 0.0
C970 C 0.29372 0.25181 0.45629 0.0
C971 C 0.24576 0.2225 0.45491 0.0
C972 C 0.21926 0.22071 0.46865 0.0
C973 C 0.26715 0.25021 0.46968 0.0
C974 C 0.21449 0.2463 0.49764 0.0
C975 C 0.23566 0.27414 0.51242 0.0
H976 H 0.30896 0.72116 0.47609 0.0
H977 H 0.27239 0.87502 0.45982 0.0
H978 H 0.22662 0.84063 0.47396 0.0
H979 H 0.19762 0.76677 0.49158 0.0
H980 H 0.23442 0.61334 0.50845 0.0
H981 H 0.27961 0.64644 0.49143 0.0
C982 C 0.291 0.74728 0.47658 0.0
C983 C 0.29378 0.80072 0.46824 0.0
C984 C 0.26487 0.72665 0.4832 0.0
C985 C 0.27048 0.8341 0.46733 0.0
C986 C 0.24441 0.81423 0.47474 0.0
C987 C 0.21538 0.74023 0.49017 0.0
C988 C 0.21295 0.6876 0.50026 0.0
C989 C 0.24135 0.76041 0.48229 0.0
C990 C 0.23602 0.65364 0.49977 0.0
C991 C 0.26184 0.67287 0.49081 0.0
H992 H 0.0488 0.28411 0.11748 0.0
H993 H 0.03228 0.35289 0.02639 0.0
H994 H 0.99232 0.29507 0.01972 0.0
H995 H 0.9635 0.2227 0.03825 0.0
H996 H 0.97849 0.15325 0.12949 0.0
H997 H 0.01801 0.21287 0.13734 0.0
C998 C 0.03603 0.28724 0.09655 0.0
C999 C 0.0434 0.32305 0.07254 0.0
C1000 C 0.01333 0.25277 0.09249 0.0
C1001 C 0.02699 0.32588 0.04525 0.0
C1002 C 1.00428 0.29249 0.04128 0.0
C1003 C 0.9756 0.21982 0.05972 0.0
C1004 C 0.96834 0.18262 0.08296 0.0
C1005 C 0.99766 0.25504 0.06439 0.0
C1006 C 0.98386 0.18087 0.11099 0.0
C1007 C 1.00631 0.21529 0.11559 0.0
H1008 H 0.4648 0.73232 0.041 0.0
H1009 H 0.47991 0.66245 0.13211 0.0
H1010 H 0.5204 0.71984 0.13919 0.0
H1011 H 0.55247 0.78797 0.11832 0.0
H1012 H 0.53643 0.85638 0.02706 0.0
H1013 H 0.4948 0.80247 0.02165 0.0
C1014 C 0.47708 0.72898 0.06232 0.0
C1015 C 0.46961 0.69218 0.08571 0.0
C1016 C 0.49984 0.76275 0.06647 0.0
C1017 C 0.4854 0.68979 0.11351 0.0
C1018 C 0.50843 0.7229 0.11767 0.0
C1019 C 0.53941 0.79206 0.09768 0.0
C1020 C 0.54737 0.82651 0.07323 0.0
C1021 C 0.51585 0.7596 0.09428 0.0
C1022 C 0.53062 0.83047 0.04626 0.0
C1023 C 0.50698 0.79926 0.04302 0.0
H1024 H 0.46659 0.77595 0.37287 0.0
H1025 H 0.47697 0.83348 0.46806 0.0
H1026 H 0.51768 0.77678 0.47457 0.0
H1027 H 0.54958 0.7095 0.45399 0.0
H1028 H 0.53978 0.65086 0.35891 0.0
H1029 H 0.49927 0.70845 0.35189 0.0
C1030 C 0.47806 0.77674 0.39484 0.0
C1031 C 0.46884 0.80941 0.41985 0.0
C1032 C 0.50117 0.7429 0.39872 0.0
C1033 C 0.48364 0.80903 0.44839 0.0
C1034 C 0.50683 0.7763 0.45221 0.0
C1035 C 0.53843 0.70856 0.43181 0.0
C1036 C 0.54764 0.67512 0.40716 0.0
C1037 C 0.51553 0.74252 0.42773 0.0
C1038 C 0.53307 0.6756 0.37844 0.0
C1039 C 0.51 0.7089 0.37432 0.0
H1040 H 0.05223 0.2101 0.36726 0.0
H1041 H 0.04125 0.15935 0.46347 0.0
H1042 H 1.00134 0.21818 0.46901 0.0
H1043 H 0.97032 0.28498 0.44744 0.0
H1044 H 0.97978 0.33647 0.35114 0.0
H1045 H 0.0199 0.27726 0.34502 0.0
C1046 C 0.04075 0.21121 0.38922 0.0
C1047 C 0.04963 0.17988 0.41485 0.0
C1048 C 0.01797 0.24616 0.3925 0.0
C1049 C 0.03485 0.1827 0.44334 0.0
C1050 C 0.01211 0.21667 0.44661 0.0
C1051 C 0.98126 0.28408 0.42512 0.0
C1052 C 0.97208 0.31597 0.39991 0.0
C1053 C 1.00376 0.24909 0.42154 0.0
C1054 C 0.98647 0.31302 0.3711 0.0
C1055 C 1.00929 0.27876 0.36751 0.0
H1056 H 0.96763 0.72628 0.9416 0.0
H1057 H 0.98392 0.65153 0.8518 0.0
H1058 H 0.02386 0.71013 0.84405 0.0
H1059 H 0.05483 0.78215 0.86365 0.0
H1060 H 0.03677 0.85636 0.95322 0.0
H1061 H 0.99651 0.79939 0.95973 0.0
C1062 C 0.98007 0.72204 0.92046 0.0
C1063 C 0.973 0.68348 0.89764 0.0
C1064 C 1.00245 0.75673 0.91581 0.0
C1065 C 0.98905 0.68011 0.87001 0.0
C1066 C 0.01179 0.71398 0.86547 0.0
C1067 C 0.04167 0.78667 0.8842 0.0
C1068 C 0.04878 0.82395 0.90782 0.0
C1069 C 0.01866 0.75269 0.88818 0.0
C1070 C 0.03179 0.82835 0.93462 0.0
C1071 C 1.00886 0.79541 0.93851 0.0
H1072 H 0.55449 0.26874 0.94136 0.0
H1073 H 0.53922 0.33972 0.85062 0.0
H1074 H 0.49829 0.28318 0.84379 0.0
H1075 H 0.46612 0.21448 0.86458 0.0
H1076 H 0.48308 0.14433 0.9552 0.0
H1077 H 0.52445 0.19874 0.96065 0.0
C1078 C 0.5421 0.27261 0.92017 0.0
C1079 C 0.54974 0.30952 0.89683 0.0
C1080 C 0.51913 0.23919 0.91611 0.0
C1081 C 0.53369 0.3124 0.8692 0.0
C1082 C 0.51037 0.27973 0.8652 0.0
C1083 C 0.47926 0.21024 0.88515 0.0
C1084 C 0.47154 0.17493 0.90938 0.0
C1085 C 0.5029 0.24279 0.8885 0.0
C1086 C 0.48853 0.17086 0.93617 0.0
C1087 C 0.5121 0.20233 0.93943 0.0
H1088 H 0.55429 0.21034 0.61446 0.0
H1089 H 0.53938 0.15137 0.52034 0.0
H1090 H 0.49971 0.21091 0.51513 0.0
H1091 H 0.47024 0.28163 0.53616 0.0
H1092 H 0.48364 0.3407 0.6305 0.0
H1093 H 0.52319 0.28007 0.63649 0.0
C1094 C 0.54201 0.20976 0.59307 0.0
C1095 C 0.54978 0.17596 0.5679 0.0
C1096 C 0.51937 0.24512 0.58993 0.0
C1097 C 0.53389 0.17663 0.54013 0.0
C1098 C 0.51129 0.21104 0.53701 0.0
C1099 C 0.482 0.282 0.55794 0.0
C1100 C 0.4742 0.31667 0.58263 0.0
C1101 C 0.50416 0.2461 0.5615 0.0
C1102 C 0.48935 0.31514 0.61093 0.0
C1103 C 0.51185 0.28012 0.61445 0.0
H1104 H 0.05465 0.72491 0.54047 0.0
H1105 H 0.03858 0.64968 0.62967 0.0
H1106 H 0.99848 0.70848 0.63793 0.0
H1107 H 0.96702 0.78012 0.61864 0.0
H1108 H 0.98488 0.85501 0.52971 0.0
H1109 H 0.02565 0.79864 0.52302 0.0
C1110 C 0.04221 0.7207 0.5616 0.0
C1111 C 0.0493 0.68183 0.58405 0.0
C1112 C 0.01978 0.75554 0.56654 0.0
C1113 C 0.03337 0.67849 0.61172 0.0
C1114 C 0.01055 0.71245 0.61655 0.0
C1115 C 0.98027 0.78498 0.59823 0.0
C1116 C 0.97294 0.82215 0.57479 0.0
C1117 C 1.00354 0.75127 0.59411 0.0
C1118 C 0.99005 0.82704 0.54815 0.0
C1119 C 0.01326 0.79442 0.54415 0.0
loop_
_geom_bond_atom_site_label_1
_geom_bond_atom_site_label_2
_geom_bond_distance
_geom_bond_site_symmetry_2
_ccdc_geom_bond_type
Sc0 O3 2.025 . S
Sc0 O10 2.105 . S
Sc0 O13 2.105 . S
Sc0 O16 2.105 . S
Sc0 O19 2.105 . S
Sc1 O3 2.025 . S
Sc1 O11 2.105 . S
Sc1 O15 2.105 . S
Sc1 O17 2.105 . S
Sc1 O21 2.105 . S
Sc2 O3 2.025 . S
Sc2 O12 2.105 . S
Sc2 O14 2.105 . S
Sc2 O18 2.105 . S
Sc2 O20 2.105 . S
O3 Sc0 2.025 . S
O3 Sc1 2.025 . S
O3 Sc2 2.025 . S
C4 O10 1.268 . S
C4 O20 1.268 . S
C5 O11 1.268 . S
C5 O19 1.268 . S
C6 O12 1.268 . S
C6 O21 1.268 . S
C7 O13 1.268 . S
C7 O17 1.268 . S
C8 O14 1.268 . S
C8 O16 1.268 . S
C9 O15 1.268 . S
C9 O18 1.268 . S
O10 Sc0 2.105 . S
O10 C4 1.268 . S
O11 Sc1 2.105 . S
O11 C5 1.268 . S
O12 Sc2 2.105 . S
O12 C6 1.268 . S
O13 Sc0 2.105 . S
O13 C7 1.268 . S
O14 Sc2 2.105 . S
O14 C8 1.268 . S
O15 Sc1 2.105 . S
O15 C9 1.268 . S
O16 Sc0 2.105 . S
O16 C8 1.268 . S
O17 Sc1 2.105 . S
O17 C7 1.268 . S
O18 Sc2 2.105 . S
O18 C9 1.268 . S
O19 Sc0 2.105 . S
O19 C5 1.268 . S
O20 Sc2 2.105 . S
O20 C4 1.268 . S
O21 Sc1 2.105 . S
O21 C6 1.268 . S
Sc22 O25 2.025 . S
Sc22 O32 2.105 . S
Sc22 O35 2.105 . S
Sc22 O38 2.105 . S
Sc22 O41 2.105 . S
Sc23 O25 2.025 . S
Sc23 O33 2.105 . S
Sc23 O37 2.105 . S
Sc23 O39 2.105 . S
Sc23 O43 2.105 . S
Sc24 O25 2.025 . S
Sc24 O34 2.105 . S
Sc24 O36 2.105 . S
Sc24 O40 2.105 . S
Sc24 O42 2.105 . S
O25 Sc22 2.025 . S
O25 Sc23 2.025 . S
O25 Sc24 2.025 . S
C26 O32 1.268 . S
C26 O42 1.268 . S
C27 O33 1.268 . S
C27 O41 1.268 . S
C28 O34 1.268 . S
C28 O43 1.268 . S
C29 O35 1.268 . S
C29 O39 1.268 . S
C30 O36 1.268 . S
C30 O38 1.268 . S
C31 O37 1.268 . S
C31 O40 1.268 . S
O32 Sc22 2.105 . S
O32 C26 1.268 . S
O33 Sc23 2.105 . S
O33 C27 1.268 . S
O34 Sc24 2.105 . S
O34 C28 1.268 . S
O35 Sc22 2.105 . S
O35 C29 1.268 . S
O36 Sc24 2.105 . S
O36 C30 1.268 . S
O37 Sc23 2.105 . S
O37 C31 1.268 . S
O38 Sc22 2.105 . S
O38 C30 1.268 . S
O39 Sc23 2.105 . S
O39 C29 1.268 . S
O40 Sc24 2.105 . S
O40 C31 1.268 . S
O41 Sc22 2.105 . S
O41 C27 1.268 . S
O42 Sc24 2.105 . S
O42 C26 1.268 . S
O43 Sc23 2.105 . S
O43 C28 1.268 . S
Sc44 O47 2.025 . S
Sc44 O54 2.105 . S
Sc44 O57 2.105 . S
Sc44 O60 2.105 . S
Sc44 O63 2.105 . S
Sc45 O47 2.025 . S
Sc45 O55 2.105 . S
Sc45 O59 2.105 . S
Sc45 O61 2.105 . S
Sc45 O65 2.105 . S
Sc46 O47 2.025 . S
Sc46 O56 2.105 . S
Sc46 O58 2.105 . S
Sc46 O62 2.105 . S
Sc46 O64 2.105 . S
O47 Sc44 2.025 . S
O47 Sc45 2.025 . S
O47 Sc46 2.025 . S
C48 O54 1.268 . S
C48 O64 1.268 . S
C49 O55 1.268 . S
C49 O63 1.268 . S
C50 O56 1.268 . S
C50 O65 1.268 . S
C51 O57 1.268 . S
C51 O61 1.268 . S
C52 O58 1.268 . S
C52 O60 1.268 . S
C53 O59 1.268 . S
C53 O62 1.268 . S
O54 Sc44 2.105 . S
O54 C48 1.268 . S
O55 Sc45 2.105 . S
O55 C49 1.268 . S
O56 Sc46 2.105 . S
O56 C50 1.268 . S
O57 Sc44 2.105 . S
O57 C51 1.268 . S
O58 Sc46 2.105 . S
O58 C52 1.268 . S
O59 Sc45 2.105 . S
O59 C53 1.268 . S
O60 Sc44 2.105 . S
O60 C52 1.268 . S
O61 Sc45 2.105 . S
O61 C51 1.268 . S
O62 Sc46 2.105 . S
O62 C53 1.268 . S
O63 Sc44 2.105 . S
O63 C49 1.268 . S
O64 Sc46 2.105 . S
O64 C48 1.268 . S
O65 Sc45 2.105 . S
O65 C50 1.268 . S
Sc66 O69 2.025 . S
Sc66 O76 2.105 . S
Sc66 O79 2.105 . S
Sc66 O82 2.105 . S
Sc66 O85 2.105 . S
Sc67 O69 2.025 . S
Sc67 O77 2.105 . S
Sc67 O81 2.105 . S
Sc67 O83 2.105 . S
Sc67 O87 2.105 . S
Sc68 O69 2.025 . S
Sc68 O78 2.105 . S
Sc68 O80 2.105 . S
Sc68 O84 2.105 . S
Sc68 O86 2.105 . S
O69 Sc66 2.025 . S
O69 Sc67 2.025 . S
O69 Sc68 2.025 . S
C70 O76 1.268 . S
C70 O86 1.268 . S
C71 O77 1.268 . S
C71 O85 1.268 . S
C72 O78 1.268 . S
C72 O87 1.268 . S
C73 O79 1.268 . S
C73 O83 1.268 . S
C74 O80 1.268 . S
C74 O82 1.268 . S
C75 O81 1.268 . S
C75 O84 1.268 . S
O76 Sc66 2.105 . S
O76 C70 1.268 . S
O77 Sc67 2.105 . S
O77 C71 1.268 . S
O78 Sc68 2.105 . S
O78 C72 1.268 . S
O79 Sc66 2.105 . S
O79 C73 1.268 . S
O80 Sc68 2.105 . S
O80 C74 1.268 . S
O81 Sc67 2.105 . S
O81 C75 1.268 . S
O82 Sc66 2.105 . S
O82 C74 1.268 . S
O83 Sc67 2.105 . S
O83 C73 1.268 . S
O84 Sc68 2.105 . S
O84 C75 1.268 . S
O85 Sc66 2.105 . S
O85 C71 1.268 . S
O86 Sc68 2.105 . S
O86 C70 1.268 . S
O87 Sc67 2.105 . S
O87 C72 1.268 . S
Sc88 O91 2.025 . S
Sc88 O98 2.105 . S
Sc88 O101 2.105 . S
Sc88 O104 2.105 . S
Sc88 O107 2.105 . S
Sc89 O91 2.025 . S
Sc89 O99 2.105 . S
Sc89 O103 2.105 . S
Sc89 O105 2.105 . S
Sc89 O109 2.105 . S
Sc90 O91 2.025 . S
Sc90 O100 2.105 . S
Sc90 O102 2.105 . S
Sc90 O106 2.105 . S
Sc90 O108 2.105 . S
O91 Sc88 2.025 . S
O91 Sc89 2.025 . S
O91 Sc90 2.025 . S
C92 O98 1.268 . S
C92 O108 1.268 . S
C93 O99 1.268 . S
C93 O107 1.268 . S
C94 O100 1.268 . S
C94 O109 1.268 . S
C95 O101 1.268 . S
C95 O105 1.268 . S
C96 O102 1.268 . S
C96 O104 1.268 . S
C97 O103 1.268 . S
C97 O106 1.268 . S
O98 Sc88 2.105 . S
O98 C92 1.268 . S
O99 Sc89 2.105 . S
O99 C93 1.268 . S
O100 Sc90 2.105 . S
O100 C94 1.268 . S
O101 Sc88 2.105 . S
O101 C95 1.268 . S
O102 Sc90 2.105 . S
O102 C96 1.268 . S
O103 Sc89 2.105 . S
O103 C97 1.268 . S
O104 Sc88 2.105 . S
O104 C96 1.268 . S
O105 Sc89 2.105 . S
O105 C95 1.268 . S
O106 Sc90 2.105 . S
O106 C97 1.268 . S
O107 Sc88 2.105 . S
O107 C93 1.268 . S
O108 Sc90 2.105 . S
O108 C92 1.268 . S
O109 Sc89 2.105 . S
O109 C94 1.268 . S
Sc110 O113 2.025 . S
Sc110 O120 2.105 . S
Sc110 O123 2.105 . S
Sc110 O126 2.105 . S
Sc110 O129 2.105 . S
Sc111 O113 2.025 . S
Sc111 O121 2.105 . S
Sc111 O125 2.105 . S
Sc111 O127 2.105 . S
Sc111 O131 2.105 . S
Sc112 O113 2.025 . S
Sc112 O122 2.105 . S
Sc112 O124 2.105 . S
Sc112 O128 2.105 . S
Sc112 O130 2.105 . S
O113 Sc110 2.025 . S
O113 Sc111 2.025 . S
O113 Sc112 2.025 . S
C114 O120 1.268 . S
C114 O130 1.268 . S
C115 O121 1.268 . S
C115 O129 1.268 . S
C116 O122 1.268 . S
C116 O131 1.268 . S
C117 O123 1.268 . S
C117 O127 1.268 . S
C118 O124 1.268 . S
C118 O126 1.268 . S
C119 O125 1.268 . S
C119 O128 1.268 . S
O120 Sc110 2.105 . S
O120 C114 1.268 . S
O121 Sc111 2.105 . S
O121 C115 1.268 . S
O122 Sc112 2.105 . S
O122 C116 1.268 . S
O123 Sc110 2.105 . S
O123 C117 1.268 . S
O124 Sc112 2.105 . S
O124 C118 1.268 . S
O125 Sc111 2.105 . S
O125 C119 1.268 . S
O126 Sc110 2.105 . S
O126 C118 1.268 . S
O127 Sc111 2.105 . S
O127 C117 1.268 . S
O128 Sc112 2.105 . S
O128 C119 1.268 . S
O129 Sc110 2.105 . S
O129 C115 1.268 . S
O130 Sc112 2.105 . S
O130 C114 1.268 . S
O131 Sc111 2.105 . S
O131 C116 1.268 . S
Sc132 O135 2.025 . S
Sc132 O142 2.105 . S
Sc132 O145 2.105 . S
Sc132 O148 2.105 . S
Sc132 O151 2.105 . S
Sc133 O135 2.025 . S
Sc133 O143 2.105 . S
Sc133 O147 2.105 . S
Sc133 O149 2.105 . S
Sc133 O153 2.105 . S
Sc134 O135 2.025 . S
Sc134 O144 2.105 . S
Sc134 O146 2.105 . S
Sc134 O150 2.105 . S
Sc134 O152 2.105 . S
O135 Sc132 2.025 . S
O135 Sc133 2.025 . S
O135 Sc134 2.025 . S
C136 O142 1.268 . S
C136 O152 1.268 . S
C137 O143 1.268 . S
C137 O151 1.268 . S
C138 O144 1.268 . S
C138 O153 1.268 . S
C139 O145 1.268 . S
C139 O149 1.268 . S
C140 O146 1.268 . S
C140 O148 1.268 . S
C141 O147 1.268 . S
C141 O150 1.268 . S
O142 Sc132 2.105 . S
O142 C136 1.268 . S
O143 Sc133 2.105 . S
O143 C137 1.268 . S
O144 Sc134 2.105 . S
O144 C138 1.268 . S
O145 Sc132 2.105 . S
O145 C139 1.268 . S
O146 Sc134 2.105 . S
O146 C140 1.268 . S
O147 Sc133 2.105 . S
O147 C141 1.268 . S
O148 Sc132 2.105 . S
O148 C140 1.268 . S
O149 Sc133 2.105 . S
O149 C139 1.268 . S
O150 Sc134 2.105 . S
O150 C141 1.268 . S
O151 Sc132 2.105 . S
O151 C137 1.268 . S
O152 Sc134 2.105 . S
O152 C136 1.268 . S
O153 Sc133 2.105 . S
O153 C138 1.268 . S
Sc154 O157 2.025 . S
Sc154 O164 2.105 . S
Sc154 O167 2.105 . S
Sc154 O170 2.105 . S
Sc154 O173 2.105 . S
Sc155 O157 2.025 . S
Sc155 O165 2.105 . S
Sc155 O169 2.105 . S
Sc155 O171 2.105 . S
Sc155 O175 2.105 . S
Sc156 O157 2.025 . S
Sc156 O166 2.105 . S
Sc156 O168 2.105 . S
Sc156 O172 2.105 . S
Sc156 O174 2.105 . S
O157 Sc154 2.025 . S
O157 Sc155 2.025 . S
O157 Sc156 2.025 . S
C158 O164 1.268 . S
C158 O174 1.268 . S
C159 O165 1.268 . S
C159 O173 1.268 . S
C160 O166 1.268 . S
C160 O175 1.268 . S
C161 O167 1.268 . S
C161 O171 1.268 . S
C162 O168 1.268 . S
C162 O170 1.268 . S
C163 O169 1.268 . S
C163 O172 1.268 . S
O164 Sc154 2.105 . S
O164 C158 1.268 . S
O165 Sc155 2.105 . S
O165 C159 1.268 . S
O166 Sc156 2.105 . S
O166 C160 1.268 . S
O167 Sc154 2.105 . S
O167 C161 1.268 . S
O168 Sc156 2.105 . S
O168 C162 1.268 . S
O169 Sc155 2.105 . S
O169 C163 1.268 . S
O170 Sc154 2.105 . S
O170 C162 1.268 . S
O171 Sc155 2.105 . S
O171 C161 1.268 . S
O172 Sc156 2.105 . S
O172 C163 1.268 . S
O173 Sc154 2.105 . S
O173 C159 1.268 . S
O174 Sc156 2.105 . S
O174 C158 1.268 . S
O175 Sc155 2.105 . S
O175 C160 1.268 . S
Sc176 O179 2.025 . S
Sc176 O186 2.105 . S
Sc176 O189 2.105 . S
Sc176 O192 2.105 . S
Sc176 O195 2.105 . S
Sc177 O179 2.025 . S
Sc177 O187 2.105 . S
Sc177 O191 2.105 . S
Sc177 O193 2.105 . S
Sc177 O197 2.105 . S
Sc178 O179 2.025 . S
Sc178 O188 2.105 . S
Sc178 O190 2.105 . S
Sc178 O194 2.105 . S
Sc178 O196 2.105 . S
O179 Sc176 2.025 . S
O179 Sc177 2.025 . S
O179 Sc178 2.025 . S
C180 O186 1.268 . S
C180 O196 1.268 . S
C181 O187 1.268 . S
C181 O195 1.268 . S
C182 O188 1.268 . S
C182 O197 1.268 . S
C183 O189 1.268 . S
C183 O193 1.268 . S
C184 O190 1.268 . S
C184 O192 1.268 . S
C185 O191 1.268 . S
C185 O194 1.268 . S
O186 Sc176 2.105 . S
O186 C180 1.268 . S
O187 Sc177 2.105 . S
O187 C181 1.268 . S
O188 Sc178 2.105 . S
O188 C182 1.268 . S
O189 Sc176 2.105 . S
O189 C183 1.268 . S
O190 Sc178 2.105 . S
O190 C184 1.268 . S
O191 Sc177 2.105 . S
O191 C185 1.268 . S
O192 Sc176 2.105 . S
O192 C184 1.268 . S
O193 Sc177 2.105 . S
O193 C183 1.268 . S
O194 Sc178 2.105 . S
O194 C185 1.268 . S
O195 Sc176 2.105 . S
O195 C181 1.268 . S
O196 Sc178 2.105 . S
O196 C180 1.268 . S
O197 Sc177 2.105 . S
O197 C182 1.268 . S
Sc198 O201 2.025 . S
Sc198 O208 2.105 . S
Sc198 O211 2.105 . S
Sc198 O214 2.105 . S
Sc198 O217 2.105 . S
Sc199 O201 2.025 . S
Sc199 O209 2.105 . S
Sc199 O213 2.105 . S
Sc199 O215 2.105 . S
Sc199 O219 2.105 . S
Sc200 O201 2.025 . S
Sc200 O210 2.105 . S
Sc200 O212 2.105 . S
Sc200 O216 2.105 . S
Sc200 O218 2.105 . S
O201 Sc198 2.025 . S
O201 Sc199 2.025 . S
O201 Sc200 2.025 . S
C202 O208 1.268 . S
C202 O218 1.268 . S
C203 O209 1.268 . S
C203 O217 1.268 . S
C204 O210 1.268 . S
C204 O219 1.268 . S
C205 O211 1.268 . S
C205 O215 1.268 . S
C206 O212 1.268 . S
C206 O214 1.268 . S
C207 O213 1.268 . S
C207 O216 1.268 . S
O208 Sc198 2.105 . S
O208 C202 1.268 . S
O209 Sc199 2.105 . S
O209 C203 1.268 . S
O210 Sc200 2.105 . S
O210 C204 1.268 . S
O211 Sc198 2.105 . S
O211 C205 1.268 . S
O212 Sc200 2.105 . S
O212 C206 1.268 . S
O213 Sc199 2.105 . S
O213 C207 1.268 . S
O214 Sc198 2.105 . S
O214 C206 1.268 . S
O215 Sc199 2.105 . S
O215 C205 1.268 . S
O216 Sc200 2.105 . S
O216 C207 1.268 . S
O217 Sc198 2.105 . S
O217 C203 1.268 . S
O218 Sc200 2.105 . S
O218 C202 1.268 . S
O219 Sc199 2.105 . S
O219 C204 1.268 . S
Sc220 O223 2.025 . S
Sc220 O230 2.105 . S
Sc220 O233 2.105 . S
Sc220 O236 2.105 . S
Sc220 O239 2.105 . S
Sc221 O223 2.025 . S
Sc221 O231 2.105 . S
Sc221 O235 2.105 . S
Sc221 O237 2.105 . S
Sc221 O241 2.105 . S
Sc222 O223 2.025 . S
Sc222 O232 2.105 . S
Sc222 O234 2.105 . S
Sc222 O238 2.105 . S
Sc222 O240 2.105 . S
O223 Sc220 2.025 . S
O223 Sc221 2.025 . S
O223 Sc222 2.025 . S
C224 O230 1.268 . S
C224 O240 1.268 . S
C225 O231 1.268 . S
C225 O239 1.268 . S
C226 O232 1.268 . S
C226 O241 1.268 . S
C227 O233 1.268 . S
C227 O237 1.268 . S
C228 O234 1.268 . S
C228 O236 1.268 . S
C229 O235 1.268 . S
C229 O238 1.268 . S
O230 Sc220 2.105 . S
O230 C224 1.268 . S
O231 Sc221 2.105 . S
O231 C225 1.268 . S
O232 Sc222 2.105 . S
O232 C226 1.268 . S
O233 Sc220 2.105 . S
O233 C227 1.268 . S
O234 Sc222 2.105 . S
O234 C228 1.268 . S
O235 Sc221 2.105 . S
O235 C229 1.268 . S
O236 Sc220 2.105 . S
O236 C228 1.268 . S
O237 Sc221 2.105 . S
O237 C227 1.268 . S
O238 Sc222 2.105 . S
O238 C229 1.268 . S
O239 Sc220 2.105 . S
O239 C225 1.268 . S
O240 Sc222 2.105 . S
O240 C224 1.268 . S
O241 Sc221 2.105 . S
O241 C226 1.268 . S
Sc242 O245 2.025 . S
Sc242 O252 2.105 . S
Sc242 O255 2.105 . S
Sc242 O258 2.105 . S
Sc242 O261 2.105 . S
Sc243 O245 2.025 . S
Sc243 O253 2.105 . S
Sc243 O257 2.105 . S
Sc243 O259 2.105 . S
Sc243 O263 2.105 . S
Sc244 O245 2.025 . S
Sc244 O254 2.105 . S
Sc244 O256 2.105 . S
Sc244 O260 2.105 . S
Sc244 O262 2.105 . S
O245 Sc242 2.025 . S
O245 Sc243 2.025 . S
O245 Sc244 2.025 . S
C246 O252 1.268 . S
C246 O262 1.268 . S
C247 O253 1.268 . S
C247 O261 1.268 . S
C248 O254 1.268 . S
C248 O263 1.268 . S
C249 O255 1.268 . S
C249 O259 1.268 . S
C250 O256 1.268 . S
C250 O258 1.268 . S
C251 O257 1.268 . S
C251 O260 1.268 . S
O252 Sc242 2.105 . S
O252 C246 1.268 . S
O253 Sc243 2.105 . S
O253 C247 1.268 . S
O254 Sc244 2.105 . S
O254 C248 1.268 . S
O255 Sc242 2.105 . S
O255 C249 1.268 . S
O256 Sc244 2.105 . S
O256 C250 1.268 . S
O257 Sc243 2.105 . S
O257 C251 1.268 . S
O258 Sc242 2.105 . S
O258 C250 1.268 . S
O259 Sc243 2.105 . S
O259 C249 1.268 . S
O260 Sc244 2.105 . S
O260 C251 1.268 . S
O261 Sc242 2.105 . S
O261 C247 1.268 . S
O262 Sc244 2.105 . S
O262 C246 1.268 . S
O263 Sc243 2.105 . S
O263 C248 1.268 . S
Sc264 O267 2.025 . S
Sc264 O274 2.105 . S
Sc264 O277 2.105 . S
Sc264 O280 2.105 . S
Sc264 O283 2.105 . S
Sc265 O267 2.025 . S
Sc265 O275 2.105 . S
Sc265 O279 2.105 . S
Sc265 O281 2.105 . S
Sc265 O285 2.105 . S
Sc266 O267 2.025 . S
Sc266 O276 2.105 . S
Sc266 O278 2.105 . S
Sc266 O282 2.105 . S
Sc266 O284 2.105 . S
O267 Sc264 2.025 . S
O267 Sc265 2.025 . S
O267 Sc266 2.025 . S
C268 O274 1.268 . S
C268 O284 1.268 . S
C269 O275 1.268 . S
C269 O283 1.268 . S
C270 O276 1.268 . S
C270 O285 1.268 . S
C271 O277 1.268 . S
C271 O281 1.268 . S
C272 O278 1.268 . S
C272 O280 1.268 . S
C273 O279 1.268 . S
C273 O282 1.268 . S
O274 Sc264 2.105 . S
O274 C268 1.268 . S
O275 Sc265 2.105 . S
O275 C269 1.268 . S
O276 Sc266 2.105 . S
O276 C270 1.268 . S
O277 Sc264 2.105 . S
O277 C271 1.268 . S
O278 Sc266 2.105 . S
O278 C272 1.268 . S
O279 Sc265 2.105 . S
O279 C273 1.268 . S
O280 Sc264 2.105 . S
O280 C272 1.268 . S
O281 Sc265 2.105 . S
O281 C271 1.268 . S
O282 Sc266 2.105 . S
O282 C273 1.268 . S
O283 Sc264 2.105 . S
O283 C269 1.268 . S
O284 Sc266 2.105 . S
O284 C268 1.268 . S
O285 Sc265 2.105 . S
O285 C270 1.268 . S
Sc286 O289 2.025 . S
Sc286 O296 2.105 . S
Sc286 O299 2.105 . S
Sc286 O302 2.105 . S
Sc286 O305 2.105 . S
Sc287 O289 2.025 . S
Sc287 O297 2.105 . S
Sc287 O301 2.105 . S
Sc287 O303 2.105 . S
Sc287 O307 2.105 . S
Sc288 O289 2.025 . S
Sc288 O298 2.105 . S
Sc288 O300 2.105 . S
Sc288 O304 2.105 . S
Sc288 O306 2.105 . S
O289 Sc286 2.025 . S
O289 Sc287 2.025 . S
O289 Sc288 2.025 . S
C290 O296 1.268 . S
C290 O306 1.268 . S
C291 O297 1.268 . S
C291 O305 1.268 . S
C292 O298 1.268 . S
C292 O307 1.268 . S
C293 O299 1.268 . S
C293 O303 1.268 . S
C294 O300 1.268 . S
C294 O302 1.268 . S
C295 O301 1.268 . S
C295 O304 1.268 . S
O296 Sc286 2.105 . S
O296 C290 1.268 . S
O297 Sc287 2.105 . S
O297 C291 1.268 . S
O298 Sc288 2.105 . S
O298 C292 1.268 . S
O299 Sc286 2.105 . S
O299 C293 1.268 . S
O300 Sc288 2.105 . S
O300 C294 1.268 . S
O301 Sc287 2.105 . S
O301 C295 1.268 . S
O302 Sc286 2.105 . S
O302 C294 1.268 . S
O303 Sc287 2.105 . S
O303 C293 1.268 . S
O304 Sc288 2.105 . S
O304 C295 1.268 . S
O305 Sc286 2.105 . S
O305 C291 1.268 . S
O306 Sc288 2.105 . S
O306 C290 1.268 . S
O307 Sc287 2.105 . S
O307 C292 1.268 . S
Sc308 O311 2.025 . S
Sc308 O318 2.105 . S
Sc308 O321 2.105 . S
Sc308 O324 2.105 . S
Sc308 O327 2.105 . S
Sc309 O311 2.025 . S
Sc309 O319 2.105 . S
Sc309 O323 2.105 . S
Sc309 O325 2.105 . S
Sc309 O329 2.105 . S
Sc310 O311 2.025 . S
Sc310 O320 2.105 . S
Sc310 O322 2.105 . S
Sc310 O326 2.105 . S
Sc310 O328 2.105 . S
O311 Sc308 2.025 . S
O311 Sc309 2.025 . S
O311 Sc310 2.025 . S
C312 O318 1.268 . S
C312 O328 1.268 . S
C313 O319 1.268 . S
C313 O327 1.268 . S
C314 O320 1.268 . S
C314 O329 1.268 . S
C315 O321 1.268 . S
C315 O325 1.268 . S
C316 O322 1.268 . S
C316 O324 1.268 . S
C317 O323 1.268 . S
C317 O326 1.268 . S
O318 Sc308 2.105 . S
O318 C312 1.268 . S
O319 Sc309 2.105 . S
O319 C313 1.268 . S
O320 Sc310 2.105 . S
O320 C314 1.268 . S
O321 Sc308 2.105 . S
O321 C315 1.268 . S
O322 Sc310 2.105 . S
O322 C316 1.268 . S
O323 Sc309 2.105 . S
O323 C317 1.268 . S
O324 Sc308 2.105 . S
O324 C316 1.268 . S
O325 Sc309 2.105 . S
O325 C315 1.268 . S
O326 Sc310 2.105 . S
O326 C317 1.268 . S
O327 Sc308 2.105 . S
O327 C313 1.268 . S
O328 Sc310 2.105 . S
O328 C312 1.268 . S
O329 Sc309 2.105 . S
O329 C314 1.268 . S
Sc330 O333 2.025 . S
Sc330 O340 2.105 . S
Sc330 O343 2.105 . S
Sc330 O346 2.105 . S
Sc330 O349 2.105 . S
Sc331 O333 2.025 . S
Sc331 O341 2.105 . S
Sc331 O345 2.105 . S
Sc331 O347 2.105 . S
Sc331 O351 2.105 . S
Sc332 O333 2.025 . S
Sc332 O342 2.105 . S
Sc332 O344 2.105 . S
Sc332 O348 2.105 . S
Sc332 O350 2.105 . S
O333 Sc330 2.025 . S
O333 Sc331 2.025 . S
O333 Sc332 2.025 . S
C334 O340 1.268 . S
C334 O350 1.268 . S
C335 O341 1.268 . S
C335 O349 1.268 . S
C336 O342 1.268 . S
C336 O351 1.268 . S
C337 O343 1.268 . S
C337 O347 1.268 . S
C338 O344 1.268 . S
C338 O346 1.268 . S
C339 O345 1.268 . S
C339 O348 1.268 . S
O340 Sc330 2.105 . S
O340 C334 1.268 . S
O341 Sc331 2.105 . S
O341 C335 1.268 . S
O342 Sc332 2.105 . S
O342 C336 1.268 . S
O343 Sc330 2.105 . S
O343 C337 1.268 . S
O344 Sc332 2.105 . S
O344 C338 1.268 . S
O345 Sc331 2.105 . S
O345 C339 1.268 . S
O346 Sc330 2.105 . S
O346 C338 1.268 . S
O347 Sc331 2.105 . S
O347 C337 1.268 . S
O348 Sc332 2.105 . S
O348 C339 1.268 . S
O349 Sc330 2.105 . S
O349 C335 1.268 . S
O350 Sc332 2.105 . S
O350 C334 1.268 . S
O351 Sc331 2.105 . S
O351 C336 1.268 . S
H352 C358 0.930 . S
H353 C361 0.930 . S
H354 C362 0.930 . S
H355 C363 0.930 . S
H356 C366 0.930 . S
H357 C367 0.930 . S
C358 H352 0.930 . S
C358 C359 1.355 . S
C358 C360 1.415 . S
C359 C358 1.355 . S
C359 C361 1.419 . S
C360 C358 1.415 . S
C360 C365 1.425 . S
C360 C367 1.409 . S
C361 H353 0.930 . S
C361 C359 1.419 . S
C361 C362 1.362 . S
C362 H354 0.930 . S
C362 C361 1.362 . S
C362 C365 1.409 . S
C363 H355 0.930 . S
C363 C364 1.355 . S
C363 C365 1.415 1_566 S
C364 C363 1.355 . S
C364 C366 1.419 . S
C365 C360 1.425 . S
C365 C362 1.409 . S
C365 C363 1.415 1_544 S
C366 H356 0.930 . S
C366 C364 1.419 . S
C366 C367 1.362 1_566 S
C367 H357 0.930 . S
C367 C360 1.409 . S
C367 C366 1.362 1_544 S
H368 C374 0.930 . S
H369 C377 0.930 . S
H370 C378 0.930 . S
H371 C379 0.930 . S
H372 C382 0.930 . S
H373 C383 0.930 . S
C374 H368 0.930 . S
C374 C375 1.355 1_565 S
C374 C376 1.415 1_556 S
C375 C374 1.355 1_545 S
C375 C377 1.419 1_556 S
C376 C374 1.415 1_554 S
C376 C381 1.425 . S
C376 C383 1.409 1_554 S
C377 H369 0.930 . S
C377 C375 1.419 1_554 S
C377 C378 1.362 . S
C378 H370 0.930 . S
C378 C377 1.362 . S
C378 C381 1.409 1_545 S
C379 H371 0.930 . S
C379 C380 1.355 . S
C379 C381 1.415 . S
C380 C379 1.355 . S
C380 C382 1.419 . S
C381 C376 1.425 . S
C381 C378 1.409 1_565 S
C381 C379 1.415 . S
C382 H372 0.930 . S
C382 C380 1.419 . S
C382 C383 1.362 1_554 S
C383 H373 0.930 . S
C383 C376 1.409 1_556 S
C383 C382 1.362 1_556 S
H384 C390 0.930 . S
H385 C393 0.930 . S
H386 C394 0.930 . S
H387 C395 0.930 . S
H388 C398 0.930 . S
H389 C399 0.930 . S
C390 H384 0.930 . S
C390 C391 1.355 1_565 S
C390 C392 1.415 . S
C391 C390 1.355 1_545 S
C391 C393 1.419 . S
C392 C390 1.415 . S
C392 C397 1.425 . S
C392 C399 1.409 . S
C393 H385 0.930 . S
C393 C391 1.419 . S
C393 C394 1.362 1_545 S
C394 H386 0.930 . S
C394 C393 1.362 1_565 S
C394 C397 1.409 . S
C395 H387 0.930 . S
C395 C396 1.355 . S
C395 C397 1.415 . S
C396 C395 1.355 . S
C396 C398 1.419 . S
C397 C392 1.425 . S
C397 C394 1.409 . S
C397 C395 1.415 . S
C398 H388 0.930 . S
C398 C396 1.419 . S
C398 C399 1.362 . S
C399 H389 0.930 . S
C399 C392 1.409 . S
C399 C398 1.362 . S
H400 C406 0.930 . S
H401 C409 0.930 . S
H402 C410 0.930 . S
H403 C411 0.930 . S
H404 C414 0.930 . S
H405 C415 0.930 . S
C406 H400 0.930 . S
C406 C407 1.355 . S
C406 C408 1.415 1_565 S
C407 C406 1.355 . S
C407 C409 1.419 . S
C408 C406 1.415 1_545 S
C408 C413 1.425 . S
C408 C415 1.409 . S
C409 H401 0.930 . S
C409 C407 1.419 . S
C409 C410 1.362 1_565 S
C410 H402 0.930 . S
C410 C409 1.362 1_545 S
C410 C413 1.409 . S
C411 H403 0.930 . S
C411 C412 1.355 . S
C411 C413 1.415 . S
C412 C411 1.355 . S
C412 C414 1.419 . S
C413 C408 1.425 . S
C413 C410 1.409 . S
C413 C411 1.415 . S
C414 H404 0.930 . S
C414 C412 1.419 . S
C414 C415 1.362 . S
C415 H405 0.930 . S
C415 C408 1.409 . S
C415 C414 1.362 . S
H416 C422 0.930 . S
H417 C425 0.930 . S
H418 C426 0.930 . S
H419 C427 0.930 . S
H420 C430 0.930 . S
H421 C431 0.930 . S
C422 H416 0.930 . S
C422 C423 1.355 1_556 S
C422 C424 1.415 1_545 S
C423 C422 1.355 1_554 S
C423 C425 1.419 . S
C424 C422 1.415 1_565 S
C424 C429 1.425 . S
C424 C431 1.409 . S
C425 H417 0.930 . S
C425 C423 1.419 . S
C425 C426 1.362 1_545 S
C426 H418 0.930 . S
C426 C425 1.362 1_565 S
C426 C429 1.409 1_554 S
C427 H419 0.930 . S
C427 C428 1.355 . S
C427 C429 1.415 . S
C428 C427 1.355 . S
C428 C430 1.419 . S
C429 C424 1.425 . S
C429 C426 1.409 1_556 S
C429 C427 1.415 . S
C430 H420 0.930 . S
C430 C428 1.419 . S
C430 C431 1.362 . S
C431 H421 0.930 . S
C431 C424 1.409 . S
C431 C430 1.362 . S
H432 C438 0.930 . S
H433 C441 0.930 . S
H434 C442 0.930 1_565 S
H435 C443 0.930 . S
H436 C446 0.930 . S
H437 C447 0.930 . S
C438 H432 0.930 . S
C438 C439 1.355 . S
C438 C440 1.415 . S
C439 C438 1.355 . S
C439 C441 1.419 . S
C440 C438 1.415 . S
C440 C445 1.425 . S
C440 C447 1.409 1_556 S
C441 H433 0.930 . S
C441 C439 1.419 . S
C441 C442 1.362 . S
C442 H434 0.930 1_545 S
C442 C441 1.362 . S
C442 C445 1.409 . S
C443 H435 0.930 . S
C443 C444 1.355 1_556 S
C443 C445 1.415 1_565 S
C444 C443 1.355 1_554 S
C444 C446 1.419 1_565 S
C445 C440 1.425 . S
C445 C442 1.409 . S
C445 C443 1.415 1_545 S
C446 H436 0.930 . S
C446 C444 1.419 1_545 S
C446 C447 1.362 . S
C447 H437 0.930 . S
C447 C440 1.409 1_554 S
C447 C446 1.362 . S
H448 C454 0.930 . S
H449 C457 0.930 . S
H450 C458 0.930 . S
H451 C459 0.930 . S
H452 C462 0.930 . S
H453 C463 0.930 . S
C454 H448 0.930 . S
C454 C455 1.355 . S
C454 C456 1.415 1_565 S
C455 C454 1.355 . S
C455 C457 1.419 . S
C456 C454 1.415 1_545 S
C456 C461 1.425 . S
C456 C463 1.409 . S
C457 H449 0.930 . S
C457 C455 1.419 . S
C457 C458 1.362 1_565 S
C458 H450 0.930 . S
C458 C457 1.362 1_545 S
C458 C461 1.409 . S
C459 H451 0.930 . S
C459 C460 1.355 . S
C459 C461 1.415 . S
C460 C459 1.355 . S
C460 C462 1.419 . S
C461 C456 1.425 . S
C461 C458 1.409 . S
C461 C459 1.415 . S
C462 H452 0.930 . S
C462 C460 1.419 . S
C462 C463 1.362 . S
C463 H453 0.930 . S
C463 C456 1.409 . S
C463 C462 1.362 . S
H464 C470 0.930 . S
H465 C473 0.930 . S
H466 C474 0.930 . S
H467 C475 0.930 1_545 S
H468 C478 0.930 . S
H469 C479 0.930 . S
C470 H464 0.930 . S
C470 C471 1.355 . S
C470 C472 1.415 . S
C471 C470 1.355 . S
C471 C473 1.419 . S
C472 C470 1.415 . S
C472 C477 1.425 . S
C472 C479 1.409 . S
C473 H465 0.930 . S
C473 C471 1.419 . S
C473 C474 1.362 . S
C474 H466 0.930 . S
C474 C473 1.362 . S
C474 C477 1.409 . S
C475 H467 0.930 1_565 S
C475 C476 1.355 1_565 S
C475 C477 1.415 . S
C476 C475 1.355 1_545 S
C476 C478 1.419 . S
C477 C472 1.425 . S
C477 C474 1.409 . S
C477 C475 1.415 . S
C478 H468 0.930 . S
C478 C476 1.419 . S
C478 C479 1.362 1_545 S
C479 H469 0.930 . S
C479 C472 1.409 . S
C479 C478 1.362 1_565 S
H480 C486 0.930 . S
H481 C489 0.930 . S
H482 C490 0.930 . S
H483 C491 0.930 . S
H484 C494 0.930 . S
H485 C495 0.930 . S
C486 H480 0.930 . S
C486 C487 1.355 1_554 S
C486 C488 1.415 . S
C487 C486 1.355 1_556 S
C487 C489 1.419 . S
C488 C486 1.415 . S
C488 C493 1.425 . S
C488 C495 1.409 . S
C489 H481 0.930 . S
C489 C487 1.419 . S
C489 C490 1.362 . S
C490 H482 0.930 . S
C490 C489 1.362 . S
C490 C493 1.409 1_556 S
C491 H483 0.930 . S
C491 C492 1.355 . S
C491 C493 1.415 . S
C492 C491 1.355 . S
C492 C494 1.419 . S
C493 C488 1.425 . S
C493 C490 1.409 1_554 S
C493 C491 1.415 . S
C494 H484 0.930 . S
C494 C492 1.419 . S
C494 C495 1.362 . S
C495 H485 0.930 . S
C495 C488 1.409 . S
C495 C494 1.362 . S
H496 C502 0.930 . S
H497 C505 0.930 . S
H498 C506 0.930 . S
H499 C507 0.930 . S
H500 C510 0.930 . S
H501 C511 0.930 . S
C502 H496 0.930 . S
C502 C503 1.355 . S
C502 C504 1.415 . S
C503 C502 1.355 . S
C503 C505 1.419 . S
C504 C502 1.415 . S
C504 C509 1.425 . S
C504 C511 1.409 1_554 S
C505 H497 0.930 . S
C505 C503 1.419 . S
C505 C506 1.362 . S
C506 H498 0.930 . S
C506 C505 1.362 . S
C506 C509 1.409 . S
C507 H499 0.930 . S
C507 C508 1.355 1_554 S
C507 C509 1.415 . S
C508 C507 1.355 1_556 S
C508 C510 1.419 . S
C509 C504 1.425 . S
C509 C506 1.409 . S
C509 C507 1.415 . S
C510 H500 0.930 . S
C510 C508 1.419 . S
C510 C511 1.362 . S
C511 H501 0.930 . S
C511 C504 1.409 1_556 S
C511 C510 1.362 . S
H512 C518 0.930 . S
H513 C521 0.930 . S
H514 C522 0.930 . S
H515 C523 0.930 . S
H516 C526 0.930 . S
H517 C527 0.930 . S
C518 H512 0.930 . S
C518 C519 1.355 . S
C518 C520 1.415 . S
C519 C518 1.355 . S
C519 C521 1.419 . S
C520 C518 1.415 . S
C520 C525 1.425 . S
C520 C527 1.409 . S
C521 H513 0.930 . S
C521 C519 1.419 . S
C521 C522 1.362 . S
C522 H514 0.930 . S
C522 C521 1.362 . S
C522 C525 1.409 . S
C523 H515 0.930 . S
C523 C524 1.355 . S
C523 C525 1.415 . S
C524 C523 1.355 . S
C524 C526 1.419 . S
C525 C520 1.425 . S
C525 C522 1.409 . S
C525 C523 1.415 . S
C526 H516 0.930 . S
C526 C524 1.419 . S
C526 C527 1.362 . S
C527 H517 0.930 . S
C527 C520 1.409 . S
C527 C526 1.362 . S
H528 C534 0.930 . S
H529 C537 0.930 . S
H530 C538 0.930 . S
H531 C539 0.930 . S
H532 C542 0.930 . S
H533 C543 0.930 . S
C534 H528 0.930 . S
C534 C535 1.355 . S
C534 C536 1.415 . S
C535 C534 1.355 . S
C535 C537 1.419 . S
C536 C534 1.415 . S
C536 C541 1.425 . S
C536 C543 1.409 . S
C537 H529 0.930 . S
C537 C535 1.419 . S
C537 C538 1.362 . S
C538 H530 0.930 . S
C538 C537 1.362 . S
C538 C541 1.409 . S
C539 H531 0.930 . S
C539 C540 1.355 . S
C539 C541 1.415 . S
C540 C539 1.355 . S
C540 C542 1.419 . S
C541 C536 1.425 . S
C541 C538 1.409 . S
C541 C539 1.415 . S
C542 H532 0.930 . S
C542 C540 1.419 . S
C542 C543 1.362 . S
C543 H533 0.930 . S
C543 C536 1.409 . S
C543 C542 1.362 . S
H544 C550 0.930 . S
H545 C553 0.930 . S
H546 C554 0.930 . S
H547 C555 0.930 . S
H548 C558 0.930 . S
H549 C559 0.930 . S
C550 H544 0.930 . S
C550 C551 1.355 . S
C550 C552 1.415 . S
C551 C550 1.355 . S
C551 C553 1.419 . S
C552 C550 1.415 . S
C552 C557 1.425 . S
C552 C559 1.409 1_556 S
C553 H545 0.930 . S
C553 C551 1.419 . S
C553 C554 1.362 . S
C554 H546 0.930 . S
C554 C553 1.362 . S
C554 C557 1.409 . S
C555 H547 0.930 . S
C555 C556 1.355 1_556 S
C555 C557 1.415 . S
C556 C555 1.355 1_554 S
C556 C558 1.419 . S
C557 C552 1.425 . S
C557 C554 1.409 . S
C557 C555 1.415 . S
C558 H548 0.930 . S
C558 C556 1.419 . S
C558 C559 1.362 . S
C559 H549 0.930 . S
C559 C552 1.409 1_554 S
C559 C558 1.362 . S
H560 C566 0.930 . S
H561 C569 0.930 . S
H562 C570 0.930 . S
H563 C571 0.930 . S
H564 C574 0.930 . S
H565 C575 0.930 1_554 S
C566 H560 0.930 . S
C566 C567 1.355 . S
C566 C568 1.415 1_554 S
C567 C566 1.355 . S
C567 C569 1.419 1_554 S
C568 C566 1.415 1_556 S
C568 C573 1.425 . S
C568 C575 1.409 . S
C569 H561 0.930 . S
C569 C567 1.419 1_556 S
C569 C570 1.362 . S
C570 H562 0.930 . S
C570 C569 1.362 . S
C570 C573 1.409 . S
C571 H563 0.930 . S
C571 C572 1.355 . S
C571 C573 1.415 . S
C572 C571 1.355 . S
C572 C574 1.419 . S
C573 C568 1.425 . S
C573 C570 1.409 . S
C573 C571 1.415 . S
C574 H564 0.930 . S
C574 C572 1.419 . S
C574 C575 1.362 . S
C575 H565 0.930 1_556 S
C575 C568 1.409 . S
C575 C574 1.362 . S
H576 C582 0.930 . S
H577 C585 0.930 . S
H578 C586 0.930 . S
H579 C587 0.930 . S
H580 C590 0.930 . S
H581 C591 0.930 . S
C582 H576 0.930 . S
C582 C583 1.355 . S
C582 C584 1.415 . S
C583 C582 1.355 . S
C583 C585 1.419 . S
C584 C582 1.415 . S
C584 C589 1.425 . S
C584 C591 1.409 . S
C585 H577 0.930 . S
C585 C583 1.419 . S
C585 C586 1.362 . S
C586 H578 0.930 . S
C586 C585 1.362 . S
C586 C589 1.409 . S
C587 H579 0.930 . S
C587 C588 1.355 . S
C587 C589 1.415 . S
C588 C587 1.355 . S
C588 C590 1.419 . S
C589 C584 1.425 . S
C589 C586 1.409 . S
C589 C587 1.415 . S
C590 H580 0.930 . S
C590 C588 1.419 . S
C590 C591 1.362 . S
C591 H581 0.930 . S
C591 C584 1.409 . S
C591 C590 1.362 . S
H592 C598 0.930 . S
H593 C601 0.930 . S
H594 C602 0.930 . S
H595 C603 0.930 . S
H596 C606 0.930 . S
H597 C607 0.930 . S
C598 H592 0.930 . S
C598 C599 1.355 . S
C598 C600 1.415 . S
C599 C598 1.355 . S
C599 C601 1.419 . S
C600 C598 1.415 . S
C600 C605 1.425 . S
C600 C607 1.409 . S
C601 H593 0.930 . S
C601 C599 1.419 . S
C601 C602 1.362 . S
C602 H594 0.930 . S
C602 C601 1.362 . S
C602 C605 1.409 . S
C603 H595 0.930 . S
C603 C604 1.355 . S
C603 C605 1.415 . S
C604 C603 1.355 . S
C604 C606 1.419 . S
C605 C600 1.425 . S
C605 C602 1.409 . S
C605 C603 1.415 . S
C606 H596 0.930 . S
C606 C604 1.419 . S
C606 C607 1.362 . S
C607 H597 0.930 . S
C607 C600 1.409 . S
C607 C606 1.362 . S
H608 C614 0.930 . S
H609 C617 0.930 . S
H610 C618 0.930 . S
H611 C619 0.930 . S
H612 C622 0.930 . S
H613 C623 0.930 . S
C614 H608 0.930 . S
C614 C615 1.355 . S
C614 C616 1.415 . S
C615 C614 1.355 . S
C615 C617 1.419 . S
C616 C614 1.415 . S
C616 C621 1.425 . S
C616 C623 1.409 . S
C617 H609 0.930 . S
C617 C615 1.419 . S
C617 C618 1.362 . S
C618 H610 0.930 . S
C618 C617 1.362 . S
C618 C621 1.409 . S
C619 H611 0.930 . S
C619 C620 1.355 . S
C619 C621 1.415 . S
C620 C619 1.355 . S
C620 C622 1.419 . S
C621 C616 1.425 . S
C621 C618 1.409 . S
C621 C619 1.415 . S
C622 H612 0.930 . S
C622 C620 1.419 . S
C622 C623 1.362 . S
C623 H613 0.930 . S
C623 C616 1.409 . S
C623 C622 1.362 . S
H624 C630 0.930 . S
H625 C633 0.930 . S
H626 C634 0.930 . S
H627 C635 0.930 . S
H628 C638 0.930 . S
H629 C639 0.930 . S
C630 H624 0.930 . S
C630 C631 1.355 . S
C630 C632 1.415 . S
C631 C630 1.355 . S
C631 C633 1.419 . S
C632 C630 1.415 . S
C632 C637 1.425 . S
C632 C639 1.409 . S
C633 H625 0.930 . S
C633 C631 1.419 . S
C633 C634 1.362 . S
C634 H626 0.930 . S
C634 C633 1.362 . S
C634 C637 1.409 . S
C635 H627 0.930 . S
C635 C636 1.355 . S
C635 C637 1.415 . S
C636 C635 1.355 . S
C636 C638 1.419 . S
C637 C632 1.425 . S
C637 C634 1.409 . S
C637 C635 1.415 . S
C638 H628 0.930 . S
C638 C636 1.419 . S
C638 C639 1.362 . S
C639 H629 0.930 . S
C639 C632 1.409 . S
C639 C638 1.362 . S
H640 C646 0.930 . S
H641 C649 0.930 . S
H642 C650 0.930 . S
H643 C651 0.930 . S
H644 C654 0.930 . S
H645 C655 0.930 . S
C646 H640 0.930 . S
C646 C647 1.355 . S
C646 C648 1.415 . S
C647 C646 1.355 . S
C647 C649 1.419 . S
C648 C646 1.415 . S
C648 C653 1.425 . S
C648 C655 1.409 . S
C649 H641 0.930 . S
C649 C647 1.419 . S
C649 C650 1.362 . S
C650 H642 0.930 . S
C650 C649 1.362 . S
C650 C653 1.409 . S
C651 H643 0.930 . S
C651 C652 1.355 . S
C651 C653 1.415 . S
C652 C651 1.355 . S
C652 C654 1.419 . S
C653 C648 1.425 . S
C653 C650 1.409 . S
C653 C651 1.415 . S
C654 H644 0.930 . S
C654 C652 1.419 . S
C654 C655 1.362 . S
C655 H645 0.930 . S
C655 C648 1.409 . S
C655 C654 1.362 . S
H656 C662 0.930 . S
H657 C665 0.930 . S
H658 C666 0.930 . S
H659 C667 0.930 . S
H660 C670 0.930 . S
H661 C671 0.930 . S
C662 H656 0.930 . S
C662 C663 1.355 . S
C662 C664 1.415 . S
C663 C662 1.355 . S
C663 C665 1.419 . S
C664 C662 1.415 . S
C664 C669 1.425 . S
C664 C671 1.409 . S
C665 H657 0.930 . S
C665 C663 1.419 . S
C665 C666 1.362 . S
C666 H658 0.930 . S
C666 C665 1.362 . S
C666 C669 1.409 . S
C667 H659 0.930 . S
C667 C668 1.355 . S
C667 C669 1.415 . S
C668 C667 1.355 . S
C668 C670 1.419 . S
C669 C664 1.425 . S
C669 C666 1.409 . S
C669 C667 1.415 . S
C670 H660 0.930 . S
C670 C668 1.419 . S
C670 C671 1.362 . S
C671 H661 0.930 . S
C671 C664 1.409 . S
C671 C670 1.362 . S
H672 C678 0.930 . S
H673 C681 0.930 . S
H674 C682 0.930 . S
H675 C683 0.930 . S
H676 C686 0.930 . S
H677 C687 0.930 . S
C678 H672 0.930 . S
C678 C679 1.355 . S
C678 C680 1.415 . S
C679 C678 1.355 . S
C679 C681 1.419 . S
C680 C678 1.415 . S
C680 C685 1.425 . S
C680 C687 1.409 . S
C681 H673 0.930 . S
C681 C679 1.419 . S
C681 C682 1.362 . S
C682 H674 0.930 . S
C682 C681 1.362 . S
C682 C685 1.409 . S
C683 H675 0.930 . S
C683 C684 1.355 . S
C683 C685 1.415 . S
C684 C683 1.355 . S
C684 C686 1.419 . S
C685 C680 1.425 . S
C685 C682 1.409 . S
C685 C683 1.415 . S
C686 H676 0.930 . S
C686 C684 1.419 . S
C686 C687 1.362 . S
C687 H677 0.930 . S
C687 C680 1.409 . S
C687 C686 1.362 . S
H688 C694 0.930 . S
H689 C697 0.930 . S
H690 C698 0.930 . S
H691 C699 0.930 . S
H692 C702 0.930 . S
H693 C703 0.930 . S
C694 H688 0.930 . S
C694 C695 1.355 . S
C694 C696 1.415 . S
C695 C694 1.355 . S
C695 C697 1.419 . S
C696 C694 1.415 . S
C696 C701 1.425 . S
C696 C703 1.409 . S
C697 H689 0.930 . S
C697 C695 1.419 . S
C697 C698 1.362 . S
C698 H690 0.930 . S
C698 C697 1.362 . S
C698 C701 1.409 . S
C699 H691 0.930 . S
C699 C700 1.355 . S
C699 C701 1.415 . S
C700 C699 1.355 . S
C700 C702 1.419 . S
C701 C696 1.425 . S
C701 C698 1.409 . S
C701 C699 1.415 . S
C702 H692 0.930 . S
C702 C700 1.419 . S
C702 C703 1.362 . S
C703 H693 0.930 . S
C703 C696 1.409 . S
C703 C702 1.362 . S
H704 C710 0.930 . S
H705 C713 0.930 . S
H706 C714 0.930 . S
H707 C715 0.930 . S
H708 C718 0.930 . S
H709 C719 0.930 . S
C710 H704 0.930 . S
C710 C711 1.355 . S
C710 C712 1.415 . S
C711 C710 1.355 . S
C711 C713 1.419 . S
C712 C710 1.415 . S
C712 C717 1.425 . S
C712 C719 1.409 . S
C713 H705 0.930 . S
C713 C711 1.419 . S
C713 C714 1.362 . S
C714 H706 0.930 . S
C714 C713 1.362 . S
C714 C717 1.409 . S
C715 H707 0.930 . S
C715 C716 1.355 . S
C715 C717 1.415 . S
C716 C715 1.355 . S
C716 C718 1.419 . S
C717 C712 1.425 . S
C717 C714 1.409 . S
C717 C715 1.415 . S
C718 H708 0.930 . S
C718 C716 1.419 . S
C718 C719 1.362 . S
C719 H709 0.930 . S
C719 C712 1.409 . S
C719 C718 1.362 . S
H720 C726 0.930 . S
H721 C729 0.930 . S
H722 C730 0.930 . S
H723 C731 0.930 . S
H724 C734 0.930 . S
H725 C735 0.930 . S
C726 H720 0.930 . S
C726 C727 1.355 . S
C726 C728 1.415 . S
C727 C726 1.355 . S
C727 C729 1.419 . S
C728 C726 1.415 . S
C728 C733 1.425 . S
C728 C735 1.409 . S
C729 H721 0.930 . S
C729 C727 1.419 . S
C729 C730 1.362 . S
C730 H722 0.930 . S
C730 C729 1.362 . S
C730 C733 1.409 . S
C731 H723 0.930 . S
C731 C732 1.355 . S
C731 C733 1.415 . S
C732 C731 1.355 . S
C732 C734 1.419 . S
C733 C728 1.425 . S
C733 C730 1.409 . S
C733 C731 1.415 . S
C734 H724 0.930 . S
C734 C732 1.419 . S
C734 C735 1.362 . S
C735 H725 0.930 . S
C735 C728 1.409 . S
C735 C734 1.362 . S
H736 C742 0.930 . S
H737 C745 0.930 . S
H738 C746 0.930 . S
H739 C747 0.930 . S
H740 C750 0.930 . S
H741 C751 0.930 . S
C742 H736 0.930 . S
C742 C743 1.355 . S
C742 C744 1.415 . S
C743 C742 1.355 . S
C743 C745 1.419 . S
C744 C742 1.415 . S
C744 C749 1.425 . S
C744 C751 1.409 . S
C745 H737 0.930 . S
C745 C743 1.419 . S
C745 C746 1.362 . S
C746 H738 0.930 . S
C746 C745 1.362 . S
C746 C749 1.409 . S
C747 H739 0.930 . S
C747 C748 1.355 . S
C747 C749 1.415 . S
C748 C747 1.355 . S
C748 C750 1.419 . S
C749 C744 1.425 . S
C749 C746 1.409 . S
C749 C747 1.415 . S
C750 H740 0.930 . S
C750 C748 1.419 . S
C750 C751 1.362 . S
C751 H741 0.930 . S
C751 C744 1.409 . S
C751 C750 1.362 . S
H752 C758 0.930 . S
H753 C761 0.930 . S
H754 C762 0.930 . S
H755 C763 0.930 . S
H756 C766 0.930 . S
H757 C767 0.930 . S
C758 H752 0.930 . S
C758 C759 1.355 . S
C758 C760 1.415 . S
C759 C758 1.355 . S
C759 C761 1.419 . S
C760 C758 1.415 . S
C760 C765 1.425 . S
C760 C767 1.409 . S
C761 H753 0.930 . S
C761 C759 1.419 . S
C761 C762 1.362 . S
C762 H754 0.930 . S
C762 C761 1.362 . S
C762 C765 1.409 . S
C763 H755 0.930 . S
C763 C764 1.355 . S
C763 C765 1.415 . S
C764 C763 1.355 . S
C764 C766 1.419 . S
C765 C760 1.425 . S
C765 C762 1.409 . S
C765 C763 1.415 . S
C766 H756 0.930 . S
C766 C764 1.419 . S
C766 C767 1.362 . S
C767 H757 0.930 . S
C767 C760 1.409 . S
C767 C766 1.362 . S
H768 C774 0.930 . S
H769 C777 0.930 . S
H770 C778 0.930 . S
H771 C779 0.930 . S
H772 C782 0.930 . S
H773 C783 0.930 . S
C774 H768 0.930 . S
C774 C775 1.355 . S
C774 C776 1.415 . S
C775 C774 1.355 . S
C775 C777 1.419 . S
C776 C774 1.415 . S
C776 C781 1.425 . S
C776 C783 1.409 . S
C777 H769 0.930 . S
C777 C775 1.419 . S
C777 C778 1.362 . S
C778 H770 0.930 . S
C778 C777 1.362 . S
C778 C781 1.409 . S
C779 H771 0.930 . S
C779 C780 1.355 . S
C779 C781 1.415 . S
C780 C779 1.355 . S
C780 C782 1.419 . S
C781 C776 1.425 . S
C781 C778 1.409 . S
C781 C779 1.415 . S
C782 H772 0.930 . S
C782 C780 1.419 . S
C782 C783 1.362 . S
C783 H773 0.930 . S
C783 C776 1.409 . S
C783 C782 1.362 . S
H784 C790 0.930 . S
H785 C793 0.930 . S
H786 C794 0.930 . S
H787 C795 0.930 . S
H788 C798 0.930 . S
H789 C799 0.930 . S
C790 H784 0.930 . S
C790 C791 1.355 . S
C790 C792 1.415 . S
C791 C790 1.355 . S
C791 C793 1.419 . S
C792 C790 1.415 . S
C792 C797 1.425 . S
C792 C799 1.409 . S
C793 H785 0.930 . S
C793 C791 1.419 . S
C793 C794 1.362 . S
C794 H786 0.930 . S
C794 C793 1.362 . S
C794 C797 1.409 . S
C795 H787 0.930 . S
C795 C796 1.355 . S
C795 C797 1.415 . S
C796 C795 1.355 . S
C796 C798 1.419 . S
C797 C792 1.425 . S
C797 C794 1.409 . S
C797 C795 1.415 . S
C798 H788 0.930 . S
C798 C796 1.419 . S
C798 C799 1.362 . S
C799 H789 0.930 . S
C799 C792 1.409 . S
C799 C798 1.362 . S
H800 C806 0.930 . S
H801 C809 0.930 . S
H802 C810 0.930 . S
H803 C811 0.930 . S
H804 C814 0.930 . S
H805 C815 0.930 . S
C806 H800 0.930 . S
C806 C807 1.355 . S
C806 C808 1.415 1_545 S
C807 C806 1.355 . S
C807 C809 1.419 . S
C808 C806 1.415 1_565 S
C808 C813 1.425 1_565 S
C808 C815 1.409 . S
C809 H801 0.930 . S
C809 C807 1.419 . S
C809 C810 1.362 . S
C810 H802 0.930 . S
C810 C809 1.362 . S
C810 C813 1.409 . S
C811 H803 0.930 . S
C811 C812 1.355 . S
C811 C813 1.415 1_565 S
C812 C811 1.355 . S
C812 C814 1.419 . S
C813 C808 1.425 1_545 S
C813 C810 1.409 . S
C813 C811 1.415 1_545 S
C814 H804 0.930 . S
C814 C812 1.419 . S
C814 C815 1.362 . S
C815 H805 0.930 . S
C815 C808 1.409 . S
C815 C814 1.362 . S
H816 C822 0.930 . S
H817 C825 0.930 . S
H818 C826 0.930 . S
H819 C827 0.930 . S
H820 C830 0.930 . S
H821 C831 0.930 . S
C822 H816 0.930 . S
C822 C823 1.355 . S
C822 C824 1.415 . S
C823 C822 1.355 . S
C823 C825 1.419 . S
C824 C822 1.415 . S
C824 C829 1.425 1_545 S
C824 C831 1.409 . S
C825 H817 0.930 . S
C825 C823 1.419 . S
C825 C826 1.362 1_545 S
C826 H818 0.930 . S
C826 C825 1.362 1_565 S
C826 C829 1.409 . S
C827 H819 0.930 . S
C827 C828 1.355 . S
C827 C829 1.415 . S
C828 C827 1.355 . S
C828 C830 1.419 . S
C829 C824 1.425 1_565 S
C829 C826 1.409 . S
C829 C827 1.415 . S
C830 H820 0.930 . S
C830 C828 1.419 . S
C830 C831 1.362 1_565 S
C831 H821 0.930 . S
C831 C824 1.409 . S
C831 C830 1.362 1_545 S
H832 C838 0.930 . S
H833 C841 0.930 . S
H834 C842 0.930 . S
H835 C843 0.930 . S
H836 C846 0.930 . S
H837 C847 0.930 . S
C838 H832 0.930 . S
C838 C839 1.355 . S
C838 C840 1.415 1_565 S
C839 C838 1.355 . S
C839 C841 1.419 . S
C840 C838 1.415 1_545 S
C840 C845 1.425 1_545 S
C840 C847 1.409 . S
C841 H833 0.930 . S
C841 C839 1.419 . S
C841 C842 1.362 . S
C842 H834 0.930 . S
C842 C841 1.362 . S
C842 C845 1.409 . S
C843 H835 0.930 . S
C843 C844 1.355 . S
C843 C845 1.415 1_545 S
C844 C843 1.355 . S
C844 C846 1.419 . S
C845 C840 1.425 1_565 S
C845 C842 1.409 . S
C845 C843 1.415 1_565 S
C846 H836 0.930 . S
C846 C844 1.419 . S
C846 C847 1.362 . S
C847 H837 0.930 . S
C847 C840 1.409 . S
C847 C846 1.362 . S
H848 C854 0.930 . S
H849 C857 0.930 . S
H850 C858 0.930 . S
H851 C859 0.930 . S
H852 C862 0.930 . S
H853 C863 0.930 . S
C854 H848 0.930 . S
C854 C855 1.355 . S
C854 C856 1.415 1_565 S
C855 C854 1.355 . S
C855 C857 1.419 . S
C856 C854 1.415 1_545 S
C856 C861 1.425 1_545 S
C856 C863 1.409 . S
C857 H849 0.930 . S
C857 C855 1.419 . S
C857 C858 1.362 . S
C858 H850 0.930 . S
C858 C857 1.362 . S
C858 C861 1.409 . S
C859 H851 0.930 . S
C859 C860 1.355 . S
C859 C861 1.415 1_545 S
C860 C859 1.355 . S
C860 C862 1.419 . S
C861 C856 1.425 1_565 S
C861 C858 1.409 . S
C861 C859 1.415 1_565 S
C862 H852 0.930 . S
C862 C860 1.419 . S
C862 C863 1.362 . S
C863 H853 0.930 . S
C863 C856 1.409 . S
C863 C862 1.362 . S
H864 C870 0.930 . S
H865 C873 0.930 . S
H866 C874 0.930 . S
H867 C875 0.930 . S
H868 C878 0.930 . S
H869 C879 0.930 . S
C870 H864 0.930 . S
C870 C871 1.355 . S
C870 C872 1.415 . S
C871 C870 1.355 . S
C871 C873 1.419 1_556 S
C872 C870 1.415 . S
C872 C877 1.425 1_556 S
C872 C879 1.409 . S
C873 H865 0.930 . S
C873 C871 1.419 1_554 S
C873 C874 1.362 . S
C874 H866 0.930 . S
C874 C873 1.362 . S
C874 C877 1.409 . S
C875 H867 0.930 . S
C875 C876 1.355 . S
C875 C877 1.415 . S
C876 C875 1.355 . S
C876 C878 1.419 1_554 S
C877 C872 1.425 1_554 S
C877 C874 1.409 . S
C877 C875 1.415 . S
C878 H868 0.930 . S
C878 C876 1.419 1_556 S
C878 C879 1.362 . S
C879 H869 0.930 . S
C879 C872 1.409 . S
C879 C878 1.362 . S
H880 C886 0.930 . S
H881 C889 0.930 . S
H882 C890 0.930 . S
H883 C891 0.930 . S
H884 C894 0.930 . S
H885 C895 0.930 . S
C886 H880 0.930 . S
C886 C887 1.355 . S
C886 C888 1.415 . S
C887 C886 1.355 . S
C887 C889 1.419 1_554 S
C888 C886 1.415 . S
C888 C893 1.425 1_554 S
C888 C895 1.409 . S
C889 H881 0.930 . S
C889 C887 1.419 1_556 S
C889 C890 1.362 . S
C890 H882 0.930 . S
C890 C889 1.362 . S
C890 C893 1.409 . S
C891 H883 0.930 . S
C891 C892 1.355 . S
C891 C893 1.415 . S
C892 C891 1.355 . S
C892 C894 1.419 1_556 S
C893 C888 1.425 1_556 S
C893 C890 1.409 . S
C893 C891 1.415 . S
C894 H884 0.930 . S
C894 C892 1.419 1_554 S
C894 C895 1.362 . S
C895 H885 0.930 . S
C895 C888 1.409 . S
C895 C894 1.362 . S
H896 C902 0.930 . S
H897 C905 0.930 . S
H898 C906 0.930 . S
H899 C907 0.930 . S
H900 C910 0.930 . S
H901 C911 0.930 . S
C902 H896 0.930 . S
C902 C903 1.355 . S
C902 C904 1.415 . S
C903 C902 1.355 . S
C903 C905 1.419 . S
C904 C902 1.415 . S
C904 C909 1.425 . S
C904 C911 1.409 . S
C905 H897 0.930 . S
C905 C903 1.419 . S
C905 C906 1.362 . S
C906 H898 0.930 . S
C906 C905 1.362 . S
C906 C909 1.409 . S
C907 H899 0.930 . S
C907 C908 1.355 . S
C907 C909 1.415 . S
C908 C907 1.355 . S
C908 C910 1.419 . S
C909 C904 1.425 . S
C909 C906 1.409 . S
C909 C907 1.415 . S
C910 H900 0.930 . S
C910 C908 1.419 . S
C910 C911 1.362 . S
C911 H901 0.930 . S
C911 C904 1.409 . S
C911 C910 1.362 . S
H912 C918 0.930 . S
H913 C921 0.930 . S
H914 C922 0.930 . S
H915 C923 0.930 . S
H916 C926 0.930 . S
H917 C927 0.930 . S
C918 H912 0.930 . S
C918 C919 1.355 . S
C918 C920 1.415 . S
C919 C918 1.355 . S
C919 C921 1.419 . S
C920 C918 1.415 . S
C920 C925 1.425 . S
C920 C927 1.409 . S
C921 H913 0.930 . S
C921 C919 1.419 . S
C921 C922 1.362 . S
C922 H914 0.930 . S
C922 C921 1.362 . S
C922 C925 1.409 . S
C923 H915 0.930 . S
C923 C924 1.355 . S
C923 C925 1.415 . S
C924 C923 1.355 . S
C924 C926 1.419 . S
C925 C920 1.425 . S
C925 C922 1.409 . S
C925 C923 1.415 . S
C926 H916 0.930 . S
C926 C924 1.419 . S
C926 C927 1.362 . S
C927 H917 0.930 . S
C927 C920 1.409 . S
C927 C926 1.362 . S
H928 C934 0.930 . S
H929 C937 0.930 . S
H930 C938 0.930 . S
H931 C939 0.930 . S
H932 C942 0.930 . S
H933 C943 0.930 . S
C934 H928 0.930 . S
C934 C935 1.355 . S
C934 C936 1.415 . S
C935 C934 1.355 . S
C935 C937 1.419 1_556 S
C936 C934 1.415 . S
C936 C941 1.425 1_556 S
C936 C943 1.409 . S
C937 H929 0.930 . S
C937 C935 1.419 1_554 S
C937 C938 1.362 . S
C938 H930 0.930 . S
C938 C937 1.362 . S
C938 C941 1.409 . S
C939 H931 0.930 . S
C939 C940 1.355 . S
C939 C941 1.415 . S
C940 C939 1.355 . S
C940 C942 1.419 1_554 S
C941 C936 1.425 1_554 S
C941 C938 1.409 . S
C941 C939 1.415 . S
C942 H932 0.930 . S
C942 C940 1.419 1_556 S
C942 C943 1.362 . S
C943 H933 0.930 . S
C943 C936 1.409 . S
C943 C942 1.362 . S
H944 C950 0.930 . S
H945 C953 0.929 1_554 S
H946 C954 0.930 . S
H947 C955 0.930 . S
H948 C958 0.929 1_556 S
H949 C959 0.930 . S
C950 H944 0.930 . S
C950 C951 1.355 . S
C950 C952 1.415 . S
C951 C950 1.355 . S
C951 C953 1.423 . S
C952 C950 1.415 . S
C952 C957 1.425 1_556 S
C952 C959 1.409 . S
C953 H945 0.929 1_556 S
C953 C951 1.423 . S
C953 C954 1.359 1_556 S
C954 H946 0.930 . S
C954 C953 1.359 1_554 S
C954 C957 1.409 . S
C955 H947 0.930 . S
C955 C956 1.355 . S
C955 C957 1.415 . S
C956 C955 1.355 . S
C956 C958 1.423 . S
C957 C952 1.425 1_554 S
C957 C954 1.409 . S
C957 C955 1.415 . S
C958 H948 0.929 1_554 S
C958 C956 1.423 . S
C958 C959 1.359 1_554 S
C959 H949 0.930 . S
C959 C952 1.409 . S
C959 C958 1.359 1_556 S
H960 C966 0.930 . S
H961 C969 0.930 . S
H962 C970 0.930 . S
H963 C971 0.930 . S
H964 C974 0.930 . S
H965 C975 0.930 . S
C966 H960 0.930 . S
C966 C967 1.355 . S
C966 C968 1.415 . S
C967 C966 1.355 . S
C967 C969 1.419 . S
C968 C966 1.415 . S
C968 C973 1.425 . S
C968 C975 1.409 . S
C969 H961 0.930 . S
C969 C967 1.419 . S
C969 C970 1.362 . S
C970 H962 0.930 . S
C970 C969 1.362 . S
C970 C973 1.409 . S
C971 H963 0.930 . S
C971 C972 1.355 . S
C971 C973 1.415 . S
C972 C971 1.355 . S
C972 C974 1.419 . S
C973 C968 1.425 . S
C973 C970 1.409 . S
C973 C971 1.415 . S
C974 H964 0.930 . S
C974 C972 1.419 . S
C974 C975 1.362 . S
C975 H965 0.930 . S
C975 C968 1.409 . S
C975 C974 1.362 . S
H976 C982 0.930 . S
H977 C985 0.930 . S
H978 C986 0.930 . S
H979 C987 0.930 . S
H980 C990 0.930 . S
H981 C991 0.930 . S
C982 H976 0.930 . S
C982 C983 1.355 . S
C982 C984 1.415 . S
C983 C982 1.355 . S
C983 C985 1.419 . S
C984 C982 1.415 . S
C984 C989 1.425 . S
C984 C991 1.409 . S
C985 H977 0.930 . S
C985 C983 1.419 . S
C985 C986 1.362 . S
C986 H978 0.930 . S
C986 C985 1.362 . S
C986 C989 1.409 . S
C987 H979 0.930 . S
C987 C988 1.355 . S
C987 C989 1.415 . S
C988 C987 1.355 . S
C988 C990 1.419 . S
C989 C984 1.425 . S
C989 C986 1.409 . S
C989 C987 1.415 . S
C990 H980 0.930 . S
C990 C988 1.419 . S
C990 C991 1.362 . S
C991 H981 0.930 . S
C991 C984 1.409 . S
C991 C990 1.362 . S
H992 C998 0.930 . S
H993 C1001 0.930 . S
H994 C1002 0.930 . S
H995 C1003 0.930 . S
H996 C1006 0.930 . S
H997 C1007 0.930 . S
C998 H992 0.930 . S
C998 C999 1.355 . S
C998 C1000 1.399 1_455 S
C999 C998 1.355 . S
C999 C1001 1.419 . S
C1000 C998 1.399 1_655 S
C1000 C1005 1.425 1_655 S
C1000 C1007 1.425 . S
C1001 H993 0.930 . S
C1001 C999 1.419 . S
C1001 C1002 1.362 . S
C1002 H994 0.930 . S
C1002 C1001 1.362 . S
C1002 C1005 1.425 . S
C1003 H995 0.930 . S
C1003 C1004 1.355 . S
C1003 C1005 1.399 1_655 S
C1004 C1003 1.355 . S
C1004 C1006 1.419 . S
C1005 C1000 1.425 1_455 S
C1005 C1002 1.425 . S
C1005 C1003 1.399 1_455 S
C1006 H996 0.930 . S
C1006 C1004 1.419 . S
C1006 C1007 1.362 . S
C1007 H997 0.930 . S
C1007 C1000 1.425 . S
C1007 C1006 1.362 . S
H1008 C1014 0.930 . S
H1009 C1017 0.930 . S
H1010 C1018 0.930 . S
H1011 C1019 0.930 . S
H1012 C1022 0.930 . S
H1013 C1023 0.930 . S
C1014 H1008 0.930 . S
C1014 C1015 1.355 . S
C1014 C1016 1.415 . S
C1015 C1014 1.355 . S
C1015 C1017 1.419 . S
C1016 C1014 1.415 . S
C1016 C1021 1.425 . S
C1016 C1023 1.409 . S
C1017 H1009 0.930 . S
C1017 C1015 1.419 . S
C1017 C1018 1.362 . S
C1018 H1010 0.930 . S
C1018 C1017 1.362 . S
C1018 C1021 1.409 . S
C1019 H1011 0.930 . S
C1019 C1020 1.355 . S
C1019 C1021 1.415 . S
C1020 C1019 1.355 . S
C1020 C1022 1.419 . S
C1021 C1016 1.425 . S
C1021 C1018 1.409 . S
C1021 C1019 1.415 . S
C1022 H1012 0.930 . S
C1022 C1020 1.419 . S
C1022 C1023 1.362 . S
C1023 H1013 0.930 . S
C1023 C1016 1.409 . S
C1023 C1022 1.362 . S
H1024 C1030 0.930 . S
H1025 C1033 0.930 . S
H1026 C1034 0.930 . S
H1027 C1035 0.930 . S
H1028 C1038 0.930 . S
H1029 C1039 0.930 . S
C1030 H1024 0.930 . S
C1030 C1031 1.355 . S
C1030 C1032 1.415 . S
C1031 C1030 1.355 . S
C1031 C1033 1.419 . S
C1032 C1030 1.415 . S
C1032 C1037 1.425 . S
C1032 C1039 1.409 . S
C1033 H1025 0.930 . S
C1033 C1031 1.419 . S
C1033 C1034 1.362 . S
C1034 H1026 0.930 . S
C1034 C1033 1.362 . S
C1034 C1037 1.409 . S
C1035 H1027 0.930 . S
C1035 C1036 1.355 . S
C1035 C1037 1.415 . S
C1036 C1035 1.355 . S
C1036 C1038 1.419 . S
C1037 C1032 1.425 . S
C1037 C1034 1.409 . S
C1037 C1035 1.415 . S
C1038 H1028 0.930 . S
C1038 C1036 1.419 . S
C1038 C1039 1.362 . S
C1039 H1029 0.930 . S
C1039 C1032 1.409 . S
C1039 C1038 1.362 . S
H1040 C1046 0.930 . S
H1041 C1049 0.930 . S
H1042 C1050 0.930 . S
H1043 C1051 0.930 . S
H1044 C1054 0.930 . S
H1045 C1055 0.930 . S
C1046 H1040 0.930 . S
C1046 C1047 1.355 . S
C1046 C1048 1.402 1_455 S
C1047 C1046 1.355 . S
C1047 C1049 1.419 . S
C1048 C1046 1.402 1_655 S
C1048 C1053 1.425 1_655 S
C1048 C1055 1.423 . S
C1049 H1041 0.930 . S
C1049 C1047 1.419 . S
C1049 C1050 1.362 . S
C1050 H1042 0.930 . S
C1050 C1049 1.362 . S
C1050 C1053 1.423 . S
C1051 H1043 0.930 . S
C1051 C1052 1.355 . S
C1051 C1053 1.402 1_655 S
C1052 C1051 1.355 . S
C1052 C1054 1.419 . S
C1053 C1048 1.425 1_455 S
C1053 C1050 1.423 . S
C1053 C1051 1.402 1_455 S
C1054 H1044 0.930 . S
C1054 C1052 1.419 . S
C1054 C1055 1.362 . S
C1055 H1045 0.930 . S
C1055 C1048 1.423 . S
C1055 C1054 1.362 . S
H1056 C1062 0.930 . S
H1057 C1065 0.930 . S
H1058 C1066 0.930 1_455 S
H1059 C1067 0.930 . S
H1060 C1070 0.930 . S
H1061 C1071 0.930 1_655 S
C1062 H1056 0.930 . S
C1062 C1063 1.355 . S
C1062 C1064 1.415 . S
C1063 C1062 1.355 . S
C1063 C1065 1.419 . S
C1064 C1062 1.415 . S
C1064 C1069 1.425 1_655 S
C1064 C1071 1.409 1_655 S
C1065 H1057 0.930 . S
C1065 C1063 1.419 . S
C1065 C1066 1.362 . S
C1066 H1058 0.930 1_655 S
C1066 C1065 1.362 . S
C1066 C1069 1.409 1_655 S
C1067 H1059 0.930 . S
C1067 C1068 1.355 . S
C1067 C1069 1.415 . S
C1068 C1067 1.355 . S
C1068 C1070 1.419 . S
C1069 C1064 1.425 1_455 S
C1069 C1066 1.409 1_455 S
C1069 C1067 1.415 . S
C1070 H1060 0.930 . S
C1070 C1068 1.419 . S
C1070 C1071 1.362 . S
C1071 H1061 0.930 1_455 S
C1071 C1064 1.409 1_455 S
C1071 C1070 1.362 . S
H1072 C1078 0.930 . S
H1073 C1081 0.930 . S
H1074 C1082 0.930 . S
H1075 C1083 0.930 . S
H1076 C1086 0.930 . S
H1077 C1087 0.930 . S
C1078 H1072 0.930 . S
C1078 C1079 1.355 . S
C1078 C1080 1.415 . S
C1079 C1078 1.355 . S
C1079 C1081 1.419 . S
C1080 C1078 1.415 . S
C1080 C1085 1.425 . S
C1080 C1087 1.409 . S
C1081 H1073 0.930 . S
C1081 C1079 1.419 . S
C1081 C1082 1.362 . S
C1082 H1074 0.930 . S
C1082 C1081 1.362 . S
C1082 C1085 1.409 . S
C1083 H1075 0.930 . S
C1083 C1084 1.355 . S
C1083 C1085 1.415 . S
C1084 C1083 1.355 . S
C1084 C1086 1.419 . S
C1085 C1080 1.425 . S
C1085 C1082 1.409 . S
C1085 C1083 1.415 . S
C1086 H1076 0.930 . S
C1086 C1084 1.419 . S
C1086 C1087 1.362 . S
C1087 H1077 0.930 . S
C1087 C1080 1.409 . S
C1087 C1086 1.362 . S
H1088 C1094 0.930 . S
H1089 C1097 0.930 . S
H1090 C1098 0.930 . S
H1091 C1099 0.930 . S
H1092 C1102 0.930 . S
H1093 C1103 0.930 . S
C1094 H1088 0.930 . S
C1094 C1095 1.355 . S
C1094 C1096 1.415 . S
C1095 C1094 1.355 . S
C1095 C1097 1.419 . S
C1096 C1094 1.415 . S
C1096 C1101 1.425 . S
C1096 C1103 1.409 . S
C1097 H1089 0.930 . S
C1097 C1095 1.419 . S
C1097 C1098 1.362 . S
C1098 H1090 0.930 . S
C1098 C1097 1.362 . S
C1098 C1101 1.409 . S
C1099 H1091 0.930 . S
C1099 C1100 1.355 . S
C1099 C1101 1.415 . S
C1100 C1099 1.355 . S
C1100 C1102 1.419 . S
C1101 C1096 1.425 . S
C1101 C1098 1.409 . S
C1101 C1099 1.415 . S
C1102 H1092 0.930 . S
C1102 C1100 1.419 . S
C1102 C1103 1.362 . S
C1103 H1093 0.930 . S
C1103 C1096 1.409 . S
C1103 C1102 1.362 . S
H1104 C1110 0.930 . S
H1105 C1113 0.930 . S
H1106 C1114 0.930 . S
H1107 C1115 0.930 . S
H1108 C1118 0.930 . S
H1109 C1119 0.930 . S
C1110 H1104 0.930 . S
C1110 C1111 1.355 . S
C1110 C1112 1.412 1_455 S
C1111 C1110 1.355 . S
C1111 C1113 1.419 . S
C1112 C1110 1.412 1_655 S
C1112 C1117 1.425 1_655 S
C1112 C1119 1.411 . S
C1113 H1105 0.930 . S
C1113 C1111 1.419 . S
C1113 C1114 1.362 . S
C1114 H1106 0.930 . S
C1114 C1113 1.362 . S
C1114 C1117 1.411 . S
C1115 H1107 0.930 . S
C1115 C1116 1.355 . S
C1115 C1117 1.412 1_655 S
C1116 C1115 1.355 . S
C1116 C1118 1.419 . S
C1117 C1112 1.425 1_455 S
C1117 C1114 1.411 . S
C1117 C1115 1.412 1_455 S
C1118 H1108 0.930 . S
C1118 C1116 1.419 . S
C1118 C1119 1.362 . S
C1119 H1109 0.930 . S
C1119 C1112 1.411 . S
C1119 C1118 1.362 . S
C359 C6 1.454 . S
C364 C290 1.559 . S
C375 C268 1.560 . S
C380 C29 1.410 . S
C391 C334 1.567 . S
C396 C50 1.468 . S
C407 C316 1.557 . S
C412 C72 1.428 . S
C423 C202 1.568 . S
C428 C97 1.480 . S
C439 C119 1.487 . S
C444 C184 1.564 . S
C455 C250 1.565 . S
C460 C137 1.442 . S
C471 C163 1.469 . S
C476 C228 1.567 . S
C487 C114 1.558 . S
C492 C182 1.445 . S
C503 C205 1.484 . S
C508 C92 1.568 . S
C519 C158 1.563 . S
C524 C226 1.479 . S
C535 C140 1.559 . S
C540 C248 1.450 . S
C551 C273 1.437 . S
C556 C26 1.558 . S
C567 C8 1.557 . S
C572 C295 1.415 . S
C583 C313 1.410 . S
C588 C74 1.560 . S
C599 C52 1.560 . S
C604 C339 1.410 . S
C615 C225 1.464 . S
C620 C5 1.449 . S
C631 C31 1.476 . S
C636 C247 1.514 . S
C647 C181 1.480 . S
C652 C49 1.447 . S
C663 C207 1.460 . S
C668 C71 1.506 . S
C679 C314 1.514 . S
C684 C95 1.475 . S
C695 C117 1.511 . S
C700 C337 1.502 . S
C711 C138 1.512 . S
C716 C271 1.499 . S
C727 C293 1.511 . S
C732 C161 1.468 . S
C743 C7 1.676 . S
C748 C28 1.683 . S
C759 C51 1.682 . S
C764 C73 1.679 . S
C775 C93 1.683 . S
C780 C115 1.677 . S
C791 C159 1.677 . S
C796 C141 1.683 . S
C807 C204 1.683 . S
C812 C183 1.678 . S
C823 C227 1.681 . S
C828 C249 1.678 . S
C839 C291 1.681 . S
C844 C269 1.680 . S
C855 C317 1.681 . S
C860 C335 1.680 . S
C871 C270 0.812 . S
C876 C9 0.812 . S
C887 C27 0.921 . S
C892 C292 0.921 . S
C903 C53 0.939 . S
C908 C315 0.939 . S
C919 C75 0.853 . S
C924 C336 0.853 . S
C935 C94 0.949 . S
C940 C185 0.949 . S
C951 C116 0.806 . S
C956 C203 0.806 . S
C967 C139 0.782 . S
C972 C229 0.782 . S
C983 C251 0.861 . S
C988 C160 0.861 . S
C999 C4 1.501 . S
C1004 C206 1.491 . S
C1015 C30 1.512 . S
C1020 C180 1.484 . S
C1031 C246 1.492 . S
C1036 C48 1.500 . S
C1047 C224 1.499 . S
C1052 C70 1.493 . S
C1063 C96 1.512 . S
C1068 C294 1.485 . S
C1079 C118 1.505 . S
C1084 C272 1.494 . S
C1095 C338 1.487 . S
C1100 C136 1.507 . S
C1111 C162 1.496 . S
C1116 C312 1.496 . S
