# Generated by pormake.
# Topology wkj, (6)-cn, num edge types: 1
# Building blocks:
#     Node 0, Type 0, BuildingBlock: BETDEL_clean_sbu_0, # of connection points: 6
#     Node 1, Type 0, BuildingBlock: BETDEL_clean_sbu_0, # of connection points: 6
#     Node 2, Type 0, BuildingBlock: BETDEL_clean_sbu_0, # of connection points: 6
#     Node 3, Type 0, BuildingBlock: BETDEL_clean_sbu_0, # of connection points: 6
#     Node 4, Type 0, BuildingBlock: BETDEL_clean_sbu_0, # of connection points: 6
#     Node 5, Type 0, BuildingBlock: BETDEL_clean_sbu_0, # of connection points: 6
#     Node 6, Type 0, BuildingBlock: BETDEL_clean_sbu_0, # of connection points: 6
#     Node 7, Type 0, BuildingBlock: BETDEL_clean_sbu_0, # of connection points: 6
#     Node 8, Type 0, BuildingBlock: BETDEL_clean_sbu_0, # of connection points: 6
#     Node 9, Type 0, BuildingBlock: BETDEL_clean_sbu_0, # of connection points: 6
#     Node 10, Type 0, BuildingBlock: BETDEL_clean_sbu_0, # of connection points: 6
#     Node 11, Type 0, BuildingBlock: BETDEL_clean_sbu_0, # of connection points: 6
#     Edge 12, Type (0, 0), BuildingBlock: TEMPAE_clean_linker_10, # of connection points: 2
#     Edge 13, Type (0, 0), BuildingBlock: TEMPAE_clean_linker_10, # of connection points: 2
#     Edge 14, Type (0, 0), BuildingBlock: TEMPAE_clean_linker_10, # of connection points: 2
#     Edge 15, Type (0, 0), BuildingBlock: TEMPAE_clean_linker_10, # of connection points: 2
#     Edge 16, Type (0, 0), BuildingBlock: TEMPAE_clean_linker_10, # of connection points: 2
#     Edge 17, Type (0, 0), BuildingBlock: TEMPAE_clean_linker_10, # of connection points: 2
#     Edge 18, Type (0, 0), BuildingBlock: TEMPAE_clean_linker_10, # of connection points: 2
#     Edge 19, Type (0, 0), BuildingBlock: TEMPAE_clean_linker_10, # of connection points: 2
#     Edge 20, Type (0, 0), BuildingBlock: TEMPAE_clean_linker_10, # of connection points: 2
#     Edge 21, Type (0, 0), BuildingBlock: TEMPAE_clean_linker_10, # of connection points: 2
#     Edge 22, Type (0, 0), BuildingBlock: TEMPAE_clean_linker_10, # of connection points: 2
#     Edge 23, Type (0, 0), BuildingBlock: TEMPAE_clean_linker_10, # of connection points: 2
#     Edge 24, Type (0, 0), BuildingBlock: TEMPAE_clean_linker_10, # of connection points: 2
#     Edge 25, Type (0, 0), BuildingBlock: TEMPAE_clean_linker_10, # of connection points: 2
#     Edge 26, Type (0, 0), BuildingBlock: TEMPAE_clean_linker_10, # of connection points: 2
#     Edge 27, Type (0, 0), BuildingBlock: TEMPAE_clean_linker_10, # of connection points: 2
#     Edge 28, Type (0, 0), BuildingBlock: TEMPAE_clean_linker_10, # of connection points: 2
#     Edge 29, Type (0, 0), BuildingBlock: TEMPAE_clean_linker_10, # of connection points: 2
#     Edge 30, Type (0, 0), BuildingBlock: TEMPAE_clean_linker_10, # of connection points: 2
#     Edge 31, Type (0, 0), BuildingBlock: TEMPAE_clean_linker_10, # of connection points: 2
#     Edge 32, Type (0, 0), BuildingBlock: TEMPAE_clean_linker_10, # of connection points: 2
#     Edge 33, Type (0, 0), BuildingBlock: TEMPAE_clean_linker_10, # of connection points: 2
#     Edge 34, Type (0, 0), BuildingBlock: TEMPAE_clean_linker_10, # of connection points: 2
#     Edge 35, Type (0, 0), BuildingBlock: TEMPAE_clean_linker_10, # of connection points: 2
#     Edge 36, Type (0, 0), BuildingBlock: TEMPAE_clean_linker_10, # of connection points: 2
#     Edge 37, Type (0, 0), BuildingBlock: TEMPAE_clean_linker_10, # of connection points: 2
#     Edge 38, Type (0, 0), BuildingBlock: TEMPAE_clean_linker_10, # of connection points: 2
#     Edge 39, Type (0, 0), BuildingBlock: TEMPAE_clean_linker_10, # of connection points: 2
#     Edge 40, Type (0, 0), BuildingBlock: TEMPAE_clean_linker_10, # of connection points: 2
#     Edge 41, Type (0, 0), BuildingBlock: TEMPAE_clean_linker_10, # of connection points: 2
#     Edge 42, Type (0, 0), BuildingBlock: TEMPAE_clean_linker_10, # of connection points: 2
#     Edge 43, Type (0, 0), BuildingBlock: TEMPAE_clean_linker_10, # of connection points: 2
#     Edge 44, Type (0, 0), BuildingBlock: TEMPAE_clean_linker_10, # of connection points: 2
#     Edge 45, Type (0, 0), BuildingBlock: TEMPAE_clean_linker_10, # of connection points: 2
#     Edge 46, Type (0, 0), BuildingBlock: TEMPAE_clean_linker_10, # of connection points: 2
#     Edge 47, Type (0, 0), BuildingBlock: TEMPAE_clean_linker_10, # of connection points: 2
# Relax obj value: 0.370
# Max RMSD: 0.192
# Mean RMSD: 0.192
data_MOF--net-wkj--node1-BETDEL_clean_sbu_0--edge1-TEMPAE_clean_linker_10
_symmetry_space_group_name_H-M    P1
_symmetry_Int_Tables_number       1
_symmetry_cell_setting            triclinic
loop_
_symmetry_equiv_pos_as_xyz
'x, y, z'
_cell_length_a     48.150871
_cell_length_b     48.386563
_cell_length_c     27.391296
_cell_angle_alpha  89.998216
_cell_angle_beta   89.950022
_cell_angle_gamma 120.01232
loop_
_atom_site_label
_atom_site_type_symbol
_atom_site_fract_x
_atom_site_fract_y
_atom_site_fract_z
_atom_type_partial_charge
Dy0 Dy 0.49318 0.08964 0.3159 0.0
C1 C 0.57623 0.20066 0.20564 0.0
C2 C 0.45316 0.04278 0.37888 0.0
Dy3 Dy 0.54612 0.15011 0.26837 0.0
O4 O 0.44619 0.06142 0.35454 0.0
O5 O 0.48188 0.0488 0.36728 0.0
O6 O 0.45843 0.09961 0.2766 0.0
O7 O 0.50147 0.13774 0.30388 0.0
C8 C 0.47617 0.13029 0.28072 0.0
C9 C 0.56827 0.11638 0.30742 0.0
O10 O 0.55616 0.1666 0.34833 0.0
O11 O 0.5194 0.11747 0.38171 0.0
O12 O 0.58925 0.18614 0.22738 0.0
O13 O 0.54668 0.18834 0.22037 0.0
O14 O 0.58645 0.14684 0.30034 0.0
O15 O 0.54112 0.10466 0.28622 0.0
O16 O 0.48849 0.06666 0.24357 0.0
O17 O 0.52198 0.1145 0.2037 0.0
C18 C 0.54341 0.14702 0.38675 0.0
C19 C 0.50084 0.08297 0.20273 0.0
Dy20 Dy 0.32615 0.41747 0.62731 0.0
C21 C 0.36801 0.5382 0.52321 0.0
C22 C 0.32105 0.36983 0.68692 0.0
Dy23 Dy 0.35641 0.48496 0.57355 0.0
O24 O 0.34654 0.38944 0.66236 0.0
O25 O 0.29775 0.3751 0.67639 0.0
O26 O 0.27687 0.41006 0.62186 0.0
O27 O 0.3118 0.43896 0.56968 0.0
C28 C 0.28406 0.43025 0.58611 0.0
C29 C 0.39486 0.47158 0.62435 0.0
O30 O 0.34619 0.499 0.64857 0.0
O31 O 0.33401 0.45213 0.6901 0.0
O32 O 0.38867 0.5289 0.53115 0.0
O33 O 0.34082 0.51857 0.54398 0.0
O34 O 0.40626 0.4919 0.58851 0.0
O35 O 0.3666 0.46339 0.63166 0.0
O36 O 0.34361 0.40681 0.5551 0.0
O37 O 0.35674 0.45362 0.51206 0.0
C38 C 0.33997 0.48236 0.69022 0.0
C39 C 0.3536 0.42459 0.51424 0.0
Dy40 Dy 0.8917 0.37846 0.99341 0.0
C41 C 0.79454 0.38401 0.88223 0.0
C42 C 0.93056 0.37148 0.05911 0.0
Dy43 Dy 0.84119 0.39113 0.94567 0.0
O44 O 0.9028 0.34898 0.04438 0.0
O45 O 0.93775 0.3979 1.03646 0.0
O46 O 0.87454 0.33569 0.94551 0.0
O47 O 0.84184 0.34916 0.97185 0.0
C48 C 0.84511 0.32984 0.945 0.0
C49 C 0.88286 0.43865 0.99869 0.0
O50 O 0.82075 0.38302 1.02237 0.0
O51 O 0.86339 0.38066 0.0576 0.0
O52 O 0.81653 0.41088 0.90062 0.0
O53 O 0.79745 0.36068 0.9001 0.0
O54 O 0.85503 0.43545 0.98808 0.0
O55 O 0.88893 0.42037 0.97326 0.0
O56 O 0.91831 0.3978 0.92226 0.0
O57 O 0.87679 0.40034 0.88282 0.0
C58 C 0.83724 0.38316 0.06159 0.0
C59 C 0.90584 0.40293 0.88216 0.0
Dy60 Dy 0.54104 0.88916 0.32399 0.0
C61 C 0.42245 0.80547 0.22248 0.0
C62 C 0.58892 0.919 0.39177 0.0
Dy63 Dy 0.47273 0.85217 0.27246 0.0
O64 O 0.57124 0.88835 0.38586 0.0
O65 O 0.58072 0.93328 0.3593 0.0
O66 O 0.55774 0.86275 0.27568 0.0
O67 O 0.50944 0.84168 0.29638 0.0
C68 C 0.52898 0.83866 0.26987 0.0
C69 C 0.49127 0.91018 0.30571 0.0
O70 O 0.45622 0.83533 0.3499 0.0
O71 O 0.50584 0.86703 0.38797 0.0
O72 O 0.42145 0.82775 0.24789 0.0
O73 O 0.45085 0.80864 0.22541 0.0
O74 O 0.47156 0.89851 0.26884 0.0
O75 O 0.49723 0.88987 0.3223 0.0
O76 O 0.55041 0.91875 0.25408 0.0
O77 O 0.50594 0.88129 0.20991 0.0
C78 C 0.47421 0.84627 0.39015 0.0
C79 C 0.53392 0.90871 0.21214 0.0
Dy80 Dy 0.59274 0.51185 0.62396 0.0
C81 C 0.57698 0.40243 0.52003 0.0
C82 C 0.60355 0.56023 0.68652 0.0
Dy83 Dy 0.57475 0.44706 0.57773 0.0
O84 O 0.62251 0.54878 0.67981 0.0
O85 O 0.57887 0.54574 0.65781 0.0
O86 O 0.63698 0.53411 0.57772 0.0
O87 O 0.61888 0.4875 0.60435 0.0
C88 C 0.64015 0.50898 0.57801 0.0
C89 C 0.52839 0.44747 0.62795 0.0
O90 O 0.58288 0.43572 0.65497 0.0
O91 O 0.58306 0.47958 0.69003 0.0
O92 O 0.55107 0.40057 0.53778 0.0
O93 O 0.60193 0.42878 0.53434 0.0
O94 O 0.52962 0.42145 0.62116 0.0
O95 O 0.54893 0.46991 0.60187 0.0
O96 O 0.57429 0.51976 0.55229 0.0
O97 O 0.56821 0.47417 0.51359 0.0
C98 C 0.58155 0.45137 0.69421 0.0
C99 C 0.56741 0.50148 0.51261 0.0
Dy100 Dy 0.08563 0.64169 0.99316 0.0
C101 C 0.18447 0.6318 0.88336 0.0
C102 C 0.04568 0.6441 0.06199 0.0
Dy103 Dy 0.13345 0.62443 0.93663 0.0
O104 O 0.07319 0.66816 0.04892 0.0
O105 O 0.03967 0.61906 1.0363 0.0
O106 O 0.10789 0.68809 0.95114 0.0
O107 O 0.13479 0.66618 0.96803 0.0
C108 C 0.13508 0.68879 0.94534 0.0
C109 C 0.07928 0.576 0.96879 0.0
O110 O 0.15041 0.62495 1.01446 0.0
O111 O 0.11406 0.63601 0.05526 0.0
O112 O 0.16619 0.60711 0.91046 0.0
O113 O 0.17537 0.65292 0.88719 0.0
O114 O 0.09437 0.57233 0.93198 0.0
O115 O 0.09513 0.60336 0.98566 0.0
O116 O 0.05852 0.62201 0.92163 0.0
O117 O 0.10037 0.62363 0.87595 0.0
C118 C 0.13766 0.62893 0.0556 0.0
C119 C 0.07077 0.6195 0.87904 0.0
Dy120 Dy 0.91218 0.55919 0.45284 0.0
C121 C 0.83607 0.44073 0.55603 0.0
C122 C 0.94315 0.60735 0.38557 0.0
Dy123 Dy 0.87666 0.49087 0.49924 0.0
O124 O 0.91246 0.59152 0.39332 0.0
O125 O 0.95713 0.59779 0.41641 0.0
O126 O 0.88306 0.57335 0.50018 0.0
O127 O 0.86403 0.52606 0.47665 0.0
C128 C 0.85907 0.54423 0.50338 0.0
C129 C 0.92697 0.50469 0.44325 0.0
O130 O 0.85249 0.47767 0.42621 0.0
O131 O 0.88878 0.52512 0.38776 0.0
O132 O 0.86511 0.44773 0.54443 0.0
O133 O 0.82931 0.4611 0.53642 0.0
O134 O 0.90305 0.47557 0.44767 0.0
O135 O 0.92365 0.52291 0.47225 0.0
O136 O 0.94017 0.5708 0.52441 0.0
O137 O 0.90667 0.52224 0.56316 0.0
C138 C 0.86444 0.49497 0.38592 0.0
C139 C 0.93174 0.55203 0.56403 0.0
Dy140 Dy 0.38671 0.92512 0.78212 0.0
C141 C 0.40122 0.83405 0.89521 0.0
C142 C 0.37591 0.95793 0.71044 0.0
Dy143 Dy 0.40506 0.87918 0.8323 0.0
O144 O 0.35698 0.92832 0.722 0.0
O145 O 0.40017 0.97031 0.74032 0.0
O146 O 0.34382 0.90696 0.8312 0.0
O147 O 0.36081 0.87654 0.80869 0.0
C148 C 0.34076 0.87878 0.83537 0.0
C149 C 0.44972 0.92307 0.77508 0.0
O150 O 0.39238 0.85477 0.75906 0.0
O151 O 0.39174 0.89685 0.71918 0.0
O152 O 0.42777 0.85912 0.88147 0.0
O153 O 0.37685 0.83345 0.87387 0.0
O154 O 0.44791 0.8956 0.78297 0.0
O155 O 0.43051 0.92624 0.8025 0.0
O156 O 0.4085 0.95472 0.85039 0.0
O157 O 0.41298 0.91533 0.89284 0.0
C158 C 0.39151 0.86915 0.71815 0.0
C159 C 0.4154 0.94415 0.89111 0.0
Dy160 Dy 0.41266 0.32895 0.0857 0.0
C161 C 0.52912 0.3632 0.19274 0.0
C162 C 0.36689 0.31948 1.01775 0.0
Dy163 Dy 0.48058 0.35623 0.13421 0.0
O164 O 0.37654 0.29939 1.02776 0.0
O165 O 0.38094 0.34378 0.04699 0.0
O166 O 0.39491 0.28399 0.12929 0.0
O167 O 0.44341 0.31047 0.10691 0.0
C168 C 0.42342 0.28723 0.13206 0.0
C169 C 0.46922 0.39634 0.08485 0.0
O170 O 0.49501 0.34954 0.05939 0.0
O171 O 0.44804 0.34117 1.02157 0.0
O172 O 0.52519 0.38638 0.17701 0.0
O173 O 0.50651 0.33604 0.17603 0.0
O174 O 0.49804 0.40036 0.08757 0.0
O175 O 0.45026 0.37391 0.1117 0.0
O176 O 0.40139 0.34375 0.15905 0.0
O177 O 0.44922 0.35545 0.19813 0.0
C178 C 0.47835 0.34711 1.01936 0.0
C179 C 0.41985 0.35215 0.19913 0.0
Dy180 Dy 0.05269 0.4615 0.44659 0.0
C181 C 0.14304 0.56916 0.56009 0.0
C182 C 0.0072 0.40937 0.39607 0.0
Dy183 Dy 0.10013 0.52448 0.49774 0.0
O184 O 0.03371 0.41263 0.41333 0.0
O185 O 0.00477 0.43374 0.40941 0.0
O186 O 0.09303 0.45297 0.43109 0.0
O187 O 0.094 0.47679 0.49569 0.0
C188 C 0.10953 0.46784 0.4692 0.0
C189 C 0.06078 0.53095 0.43692 0.0
O190 O 0.12348 0.53152 0.42238 0.0
O191 O 0.07792 0.49313 0.38222 0.0
O192 O 0.11356 0.56243 0.554 0.0
O193 O 0.1495 0.5518 0.53107 0.0
O194 O 0.08832 0.55468 0.45018 0.0
O195 O 0.05412 0.50649 0.4625 0.0
O196 O 0.02959 0.4498 0.52208 0.0
O197 O 0.06449 0.49826 0.55937 0.0
C198 C 0.10728 0.51849 0.38111 0.0
C199 C 0.03863 0.4691 0.5609 0.0
Dy200 Dy 0.62951 0.0647 0.78318 0.0
C201 C 0.59121 0.14412 0.88897 0.0
C202 C 0.64186 0.03167 0.71321 0.0
Dy203 Dy 0.60057 0.10359 0.83176 0.0
O204 O 0.65626 0.06244 0.71753 0.0
O205 O 0.62153 0.0186 0.74892 0.0
O206 O 0.6741 0.09123 0.82921 0.0
O207 O 0.64733 0.11269 0.80865 0.0
C208 C 0.67017 0.11584 0.83453 0.0
C209 C 0.56213 0.05617 0.77311 0.0
O210 O 0.61302 0.12852 0.75868 0.0
O211 O 0.62162 0.09083 0.71922 0.0
O212 O 0.56969 0.11464 0.87984 0.0
O213 O 0.61794 0.15147 0.86685 0.0
O214 O 0.55865 0.08089 0.78036 0.0
O215 O 0.58262 0.05671 0.80202 0.0
O216 O 0.61242 0.03693 0.8548 0.0
O217 O 0.60134 0.07282 0.89522 0.0
C218 C 0.61768 0.11631 0.71796 0.0
C219 C 0.60403 0.04655 0.89529 0.0
Dy220 Dy 0.50457 0.58942 0.08428 0.0
C221 C 0.39906 0.58105 0.19444 0.0
C222 C 0.54952 0.59629 1.01707 0.0
Dy223 Dy 0.44029 0.57496 0.13325 0.0
O224 O 0.54408 0.61877 1.03098 0.0
O225 O 0.53145 0.57046 0.04179 0.0
O226 O 0.52917 0.63406 0.12865 0.0
O227 O 0.48175 0.61682 0.10392 0.0
C228 C 0.5042 0.6377 0.12931 0.0
C229 C 0.43896 0.52709 0.08603 0.0
O230 O 0.42823 0.58218 0.05589 0.0
O231 O 0.47134 0.58073 1.02 0.0
O232 O 0.39515 0.55425 0.17737 0.0
O233 O 0.42538 0.60472 0.17707 0.0
O234 O 0.41317 0.5292 0.0916 0.0
O235 O 0.46184 0.54795 0.11091 0.0
O236 O 0.51306 0.57187 0.15613 0.0
O237 O 0.46891 0.56904 0.1964 0.0
C238 C 0.4434 0.58006 1.01644 0.0
C239 C 0.49579 0.56706 0.19669 0.0
C240 C 0.44636 0.14459 0.22199 0.0
C241 C 0.468 0.15335 0.26076 0.0
C242 C 0.43881 0.16658 0.2018 0.0
C243 C 0.45261 0.19759 0.22199 0.0
C244 C 0.47402 0.20631 0.26187 0.0
C245 C 0.48187 0.18412 0.28038 0.0
C246 C 0.41661 0.15685 0.15831 0.0
C247 C 0.48863 0.23901 0.28485 0.0
C248 C 0.45825 0.26359 0.14172 0.0
C249 C 0.43093 0.26472 0.15602 0.0
C250 C 0.46565 0.24183 0.16307 0.0
C251 C 0.44547 0.22125 0.20017 0.0
C252 C 0.41818 0.22277 0.21549 0.0
C253 C 0.41098 0.24436 0.19269 0.0
C254 C 0.49471 0.24054 0.14536 0.0
C255 C 0.39665 0.20162 0.25583 0.0
H256 H 0.43591 0.12077 0.20674 0.0
H257 H 0.49852 0.19068 0.31062 0.0
H258 H 0.39554 0.1595 0.16684 0.0
H259 H 0.42923 0.17277 0.12694 0.0
H260 H 0.40796 0.13179 0.14704 0.0
H261 H 0.50325 0.24122 0.31752 0.0
H262 H 0.50412 0.25748 0.25797 0.0
H263 H 0.46949 0.24419 0.29573 0.0
H264 H 0.47357 0.27933 0.11309 0.0
H265 H 0.38999 0.24554 0.20383 0.0
H266 H 0.48734 0.21626 0.13157 0.0
H267 H 0.51159 0.24546 0.176 0.0
H268 H 0.50766 0.25804 0.11577 0.0
H269 H 0.38553 0.17621 0.24488 0.0
H270 H 0.37726 0.20686 0.26493 0.0
H271 H 0.41098 0.20474 0.28921 0.0
C272 C 0.23092 0.42634 0.58755 0.0
C273 C 0.26144 0.43949 0.56654 0.0
C274 C 0.20849 0.4342 0.57016 0.0
C275 C 0.21725 0.45673 0.53195 0.0
C276 C 0.24826 0.47055 0.51096 0.0
C277 C 0.2698 0.4611 0.52782 0.0
C278 C 0.1751 0.41761 0.59178 0.0
C279 C 0.2588 0.49544 0.47123 0.0
C280 C 0.14719 0.44764 0.45805 0.0
C281 C 0.13884 0.46759 0.4834 0.0
C282 C 0.17347 0.44478 0.4724 0.0
C283 C 0.1927 0.46342 0.51176 0.0
C284 C 0.18558 0.48513 0.53559 0.0
C285 C 0.15806 0.48625 0.52201 0.0
C286 C 0.17946 0.42041 0.4473 0.0
C287 C 0.20641 0.50638 0.57632 0.0
H288 H 0.22426 0.40934 0.61723 0.0
H289 H 0.29303 0.47047 0.51062 0.0
H290 H 0.16979 0.43535 0.60836 0.0
H291 H 0.15712 0.40509 0.56259 0.0
H292 H 0.17197 0.3999 0.62022 0.0
H293 H 0.26073 0.51756 0.48663 0.0
H294 H 0.28238 0.50132 0.45538 0.0
H295 H 0.24086 0.48738 0.44142 0.0
H296 H 0.13231 0.43311 0.42815 0.0
H297 H 0.15144 0.50139 0.54191 0.0
H298 H 0.17643 0.4018 0.47393 0.0
H299 H 0.20442 0.4318 0.43344 0.0
H300 H 0.16283 0.40858 0.41626 0.0
H301 H 0.2028 0.49193 0.60963 0.0
H302 H 0.20076 0.52543 0.58532 0.0
H303 H 0.23212 0.51766 0.56612 0.0
C304 C 0.82306 0.2827 0.89067 0.0
C305 C 0.81825 0.29954 0.92801 0.0
C306 C 0.79825 0.2527 0.87612 0.0
C307 C 0.76839 0.23906 0.90069 0.0
C308 C 0.76341 0.25609 0.93841 0.0
C309 C 0.78836 0.28648 0.95114 0.0
C310 C 0.80396 0.23566 0.8345 0.0
C311 C 0.73201 0.24196 0.96592 0.0
C312 C 0.69582 0.17465 0.83551 0.0
C313 C 0.69439 0.14692 0.85388 0.0
C314 C 0.71977 0.20484 0.85062 0.0
C315 C 0.74217 0.20721 0.88603 0.0
C316 C 0.74017 0.17925 0.90602 0.0
C317 C 0.71647 0.14926 0.88904 0.0
C318 C 0.72167 0.23413 0.82755 0.0
C319 C 0.76321 0.18107 0.94493 0.0
H320 H 0.84624 0.29305 0.87277 0.0
H321 H 0.78483 0.29955 0.98034 0.0
H322 H 0.80137 0.21279 0.84755 0.0
H323 H 0.78573 0.22985 0.80557 0.0
H324 H 0.82818 0.25015 0.81812 0.0
H325 H 0.73239 0.25802 0.99521 0.0
H326 H 0.71212 0.23694 0.9405 0.0
H327 H 0.72658 0.21888 0.98259 0.0
H328 H 0.67878 0.17281 0.80802 0.0
H329 H 0.71509 0.12771 0.90333 0.0
H330 H 0.74512 0.24832 0.80885 0.0
H331 H 0.72017 0.24964 0.856 0.0
H332 H 0.70224 0.22802 0.80054 0.0
H333 H 0.78792 0.1927 0.92994 0.0
H334 H 0.75701 0.15712 0.95904 0.0
H335 H 0.76331 0.19592 0.97587 0.0
C336 C 0.48413 0.67596 0.13103 0.0
C337 C 0.50392 0.66525 0.15065 0.0
C338 C 0.48564 0.70386 0.14856 0.0
C339 C 0.50676 0.72061 0.1874 0.0
C340 C 0.52569 0.70897 0.20872 0.0
C341 C 0.52441 0.6816 0.18946 0.0
C342 C 0.46564 0.71605 0.12439 0.0
C343 C 0.54768 0.7257 0.25131 0.0
C344 C 0.5409 0.80894 0.20752 0.0
C345 C 0.52151 0.80883 0.24555 0.0
C346 C 0.53516 0.78025 0.18627 0.0
C347 C 0.51014 0.751 0.20483 0.0
C348 C 0.48999 0.75088 0.24251 0.0
C349 C 0.49569 0.77997 0.26203 0.0
C350 C 0.55644 0.78117 0.14502 0.0
C351 C 0.46354 0.72009 0.26388 0.0
H352 H 0.46836 0.66319 0.1008 0.0
H353 H 0.53941 0.67293 0.20476 0.0
H354 H 0.45107 0.71999 0.15192 0.0
H355 H 0.48163 0.73945 0.10688 0.0
H356 H 0.44931 0.69936 0.09616 0.0
H357 H 0.55884 0.71213 0.26596 0.0
H358 H 0.56706 0.74965 0.2398 0.0
H359 H 0.53418 0.72926 0.28115 0.0
H360 H 0.56063 0.83143 0.19465 0.0
H361 H 0.48077 0.78005 0.29165 0.0
H362 H 0.54165 0.76623 0.11415 0.0
H363 H 0.5715 0.77116 0.15758 0.0
H364 H 0.57249 0.80583 0.13152 0.0
H365 H 0.4475 0.70437 0.23466 0.0
H366 H 0.44886 0.72424 0.29103 0.0
H367 H 0.47413 0.70702 0.28208 0.0
C368 C 0.6904 0.5314 0.52968 0.0
C369 C 0.67052 0.51039 0.5658 0.0
C370 C 0.72072 0.53511 0.5205 0.0
C371 C 0.73163 0.51813 0.54931 0.0
C372 C 0.71144 0.49659 0.58556 0.0
C373 C 0.68082 0.49259 0.59286 0.0
C374 C 0.74118 0.55744 0.48035 0.0
C375 C 0.72256 0.47862 0.61766 0.0
C376 C 0.80001 0.50955 0.49864 0.0
C377 C 0.82668 0.536 0.51937 0.0
C378 C 0.76884 0.50312 0.5087 0.0
C379 C 0.76428 0.52311 0.5414 0.0
C380 C 0.79107 0.54888 0.56445 0.0
C381 C 0.82211 0.55534 0.55252 0.0
C382 C 0.74096 0.47589 0.48253 0.0
C383 C 0.78695 0.57004 0.60074 0.0
H384 H 0.68225 0.54502 0.50874 0.0
H385 H 0.66546 0.47652 0.62115 0.0
H386 H 0.76324 0.57758 0.49614 0.0
H387 H 0.74879 0.54474 0.45466 0.0
H388 H 0.72836 0.56733 0.45944 0.0
H389 H 0.70377 0.46254 0.64388 0.0
H390 H 0.72965 0.46414 0.59503 0.0
H391 H 0.74409 0.49581 0.63854 0.0
H392 H 0.80352 0.4946 0.47278 0.0
H393 H 0.84279 0.57564 0.56873 0.0
H394 H 0.72905 0.48543 0.45875 0.0
H395 H 0.7228 0.45954 0.50916 0.0
H396 H 0.74855 0.46189 0.45962 0.0
H397 H 0.77746 0.5839 0.58193 0.0
H398 H 0.80989 0.58705 0.61883 0.0
H399 H 0.76926 0.55531 0.62917 0.0
C400 C 0.30045 0.82114 0.83062 0.0
C401 C 0.31133 0.85084 0.85298 0.0
C402 C 0.27114 0.79468 0.84407 0.0
C403 C 0.25296 0.7979 0.88195 0.0
C404 C 0.26433 0.82768 0.90559 0.0
C405 C 0.29324 0.85404 0.89016 0.0
C406 C 0.25942 0.76346 0.81733 0.0
C407 C 0.2461 0.83159 0.94737 0.0
C408 C 0.16424 0.73754 0.89372 0.0
C409 C 0.16486 0.71641 0.92788 0.0
C410 C 0.19291 0.76404 0.87768 0.0
C411 C 0.22248 0.76983 0.8977 0.0
C412 C 0.22307 0.74863 0.93264 0.0
C413 C 0.19424 0.72186 0.94671 0.0
C414 C 0.19162 0.78564 0.83908 0.0
C415 C 0.25406 0.75443 0.95568 0.0
H416 H 0.31441 0.81879 0.80149 0.0
H417 H 0.30186 0.87708 0.90741 0.0
H418 H 0.25747 0.74483 0.84295 0.0
H419 H 0.2351 0.75513 0.80227 0.0
H420 H 0.27562 0.7655 0.78692 0.0
H421 H 0.25872 0.85613 0.96272 0.0
H422 H 0.22197 0.82614 0.93492 0.0
H423 H 0.24258 0.81444 0.97692 0.0
H424 H 0.14144 0.73308 0.87909 0.0
H425 H 0.19465 0.70554 0.97345 0.0
H426 H 0.20668 0.78709 0.80739 0.0
H427 H 0.20156 0.81016 0.85371 0.0
H428 H 0.1668 0.77718 0.82609 0.0
H429 H 0.27036 0.75411 0.92735 0.0
H430 H 0.25012 0.73627 0.9838 0.0
H431 H 0.26655 0.77838 0.97297 0.0
C432 C 0.60877 0.19716 0.92749 0.0
C433 C 0.58771 0.16414 0.92608 0.0
C434 C 0.60872 0.2154 0.96739 0.0
C435 C 0.58825 0.19982 1.00763 0.0
C436 C 0.56545 0.16671 1.0045 0.0
C437 C 0.56511 0.14948 0.96325 0.0
C438 C 0.63167 0.25091 0.96668 0.0
C439 C 0.54325 0.14866 0.04642 0.0
C440 C 0.61456 0.21629 0.13746 0.0
C441 C 0.58774 0.21608 0.15773 0.0
C442 C 0.61764 0.21515 0.08681 0.0
C443 C 0.59416 0.21557 0.05616 0.0
C444 C 0.57144 0.22274 0.07653 0.0
C445 C 0.56784 0.22202 0.12752 0.0
C446 C 0.64337 0.20907 0.06684 0.0
C447 C 0.5486 0.2276 0.04501 0.0
H448 H 0.62586 0.20866 0.89808 0.0
H449 H 0.54868 0.12395 0.96186 0.0
H450 H 0.6275 0.26364 0.99697 0.0
H451 H 0.65669 0.25559 0.9686 0.0
H452 H 0.62938 0.26102 0.9315 0.0
H453 H 0.52828 0.15929 0.05609 0.0
H454 H 0.52685 0.12315 1.03756 0.0
H455 H 0.55751 0.15005 0.07911 0.0
H456 H 0.63078 0.21299 0.16097 0.0
H457 H 0.54769 0.22306 0.14315 0.0
H458 H 0.65822 0.2277 0.0398 0.0
H459 H 0.63223 0.18563 0.04799 0.0
H460 H 0.65949 0.20909 0.09587 0.0
H461 H 0.55695 0.23311 1.00658 0.0
H462 H 0.54581 0.24746 0.05976 0.0
H463 H 0.52455 0.20583 0.04582 0.0
C464 C 0.3924 0.61252 0.26101 0.0
C465 C 0.38245 0.58308 0.23825 0.0
C466 C 0.38475 0.61376 0.31017 0.0
C467 C 0.36802 0.58497 0.33698 0.0
C468 C 0.35417 0.55535 0.312 0.0
C469 C 0.36121 0.55486 0.26257 0.0
C470 C 0.39746 0.64588 0.33421 0.0
C471 C 0.33563 0.52391 0.33869 0.0
C472 C 0.39957 0.57288 0.45487 0.0
C473 C 0.37201 0.56066 0.48392 0.0
C474 C 0.39992 0.58441 0.40797 0.0
C475 C 0.37236 0.58479 0.39063 0.0
C476 C 0.34663 0.57746 0.42303 0.0
C477 C 0.34647 0.56485 0.46933 0.0
C478 C 0.4282 0.5922 0.37513 0.0
C479 C 0.31799 0.5801 0.40766 0.0
H480 H 0.40816 0.63451 0.2418 0.0
H481 H 0.35284 0.5321 0.24454 0.0
H482 H 0.38402 0.64433 0.36802 0.0
H483 H 0.42311 0.6557 0.34361 0.0
H484 H 0.39605 0.66296 0.30864 0.0
H485 H 0.32521 0.50318 0.31341 0.0
H486 H 0.35174 0.52102 0.36459 0.0
H487 H 0.31586 0.52336 0.36016 0.0
H488 H 0.41969 0.57038 0.46669 0.0
H489 H 0.32548 0.55626 0.49246 0.0
H490 H 0.43777 0.61629 0.35907 0.0
H491 H 0.42046 0.57479 0.34463 0.0
H492 H 0.44799 0.59152 0.39488 0.0
H493 H 0.32383 0.59719 0.37706 0.0
H494 H 0.30883 0.58786 0.43893 0.0
H495 H 0.29837 0.55635 0.39599 0.0
C496 C 0.76471 0.35418 0.80801 0.0
C497 C 0.77877 0.3824 0.83551 0.0
C498 C 0.76178 0.35533 0.75713 0.0
C499 C 0.77429 0.38538 0.73398 0.0
C500 C 0.78366 0.41306 0.7626 0.0
C501 C 0.78522 0.41105 0.81333 0.0
C502 C 0.74877 0.32494 0.72796 0.0
C503 C 0.79633 0.44559 0.73961 0.0
C504 C 0.83175 0.40861 0.62888 0.0
C505 C 0.81675 0.41825 0.59473 0.0
C506 C 0.81664 0.39473 0.67312 0.0
C507 C 0.78541 0.38964 0.68255 0.0
C508 C 0.76863 0.39546 0.6453 0.0
C509 C 0.7848 0.41038 0.602 0.0
C510 C 0.83571 0.38911 0.71173 0.0
C511 C 0.73465 0.3885 0.65217 0.0
H512 H 0.75883 0.33174 0.82533 0.0
H513 H 0.79521 0.43274 0.83488 0.0
H514 H 0.73655 0.32622 0.69439 0.0
H515 H 0.76877 0.32116 0.71682 0.0
H516 H 0.73164 0.30397 0.74997 0.0
H517 H 0.80086 0.46429 0.76706 0.0
H518 H 0.81918 0.45253 0.72026 0.0
H519 H 0.77906 0.44502 0.71239 0.0
H520 H 0.8564 0.41453 0.62304 0.0
H521 H 0.77296 0.41732 0.57503 0.0
H522 H 0.82134 0.36512 0.7282 0.0
H523 H 0.84224 0.40697 0.74136 0.0
H524 H 0.85809 0.3911 0.69681 0.0
H525 H 0.721 0.37958 0.61757 0.0
H526 H 0.73484 0.41088 0.66171 0.0
H527 H 0.72191 0.37064 0.68137 0.0
C528 C 0.42415 0.82559 0.97042 0.0
C529 C 0.39846 0.81446 0.93788 0.0
C530 C 0.41988 0.81256 1.01722 0.0
C531 C 0.38935 0.78688 1.03099 0.0
C532 C 0.36433 0.77324 0.99616 0.0
C533 C 0.369 0.78765 0.9501 0.0
C534 C 0.44734 0.82832 0.05314 0.0
C535 C 0.33198 0.74485 1.00791 0.0
C536 C 0.40503 0.76638 0.15472 0.0
C537 C 0.40059 0.7884 0.18193 0.0
C538 C 0.39577 0.76073 0.10556 0.0
C539 C 0.3832 0.77856 0.08351 0.0
C540 C 0.37354 0.79626 0.11319 0.0
C541 C 0.382 0.80058 0.16264 0.0
C542 C 0.40353 0.73918 0.07598 0.0
C543 C 0.35898 0.81479 0.09147 0.0
H544 H 0.44696 0.84624 0.96081 0.0
H545 H 0.34917 0.77879 0.92457 0.0
H546 H 0.44028 0.83799 0.08453 0.0
H547 H 0.45342 0.81062 0.06761 0.0
H548 H 0.46931 0.84823 1.03646 0.0
H549 H 0.32248 0.72874 0.9758 0.0
H550 H 0.33288 0.73101 0.03957 0.0
H551 H 0.31476 0.75314 1.0161 0.0
H552 H 0.41861 0.75613 0.17016 0.0
H553 H 0.37787 0.817 0.18413 0.0
H554 H 0.42843 0.75307 0.06193 0.0
H555 H 0.38706 0.72884 0.04438 0.0
H556 H 0.40194 0.71949 0.09891 0.0
H557 H 0.35006 0.82477 0.11998 0.0
H558 H 0.33877 0.79932 0.06705 0.0
H559 H 0.3773 0.83486 0.06924 0.0
C560 C 0.56352 0.3945 0.26134 0.0
C561 C 0.55012 0.36644 0.23381 0.0
C562 C 0.57499 0.39529 0.30842 0.0
C563 C 0.5742 0.36762 0.32738 0.0
C564 C 0.56529 0.34094 0.29675 0.0
C565 C 0.55249 0.34029 0.25041 0.0
C566 C 0.58431 0.42445 0.33959 0.0
C567 C 0.56706 0.31232 0.31431 0.0
C568 C 0.60551 0.39066 0.45442 0.0
C569 C 0.57685 0.38332 0.47824 0.0
C570 C 0.60502 0.38089 0.40602 0.0
C571 C 0.57535 0.36466 0.3811 0.0
C572 C 0.5463 0.35329 0.40753 0.0
C573 C 0.54751 0.36236 0.45627 0.0
C574 C 0.63642 0.39127 0.3803 0.0
C575 C 0.51394 0.33589 0.38272 0.0
H576 H 0.56217 0.41492 0.24809 0.0
H577 H 0.54278 0.31879 0.22846 0.0
H578 H 0.56713 0.41814 0.37035 0.0
H579 H 0.60849 0.43337 0.35536 0.0
H580 H 0.58447 0.44419 0.31863 0.0
H581 H 0.56542 0.29659 0.28357 0.0
H582 H 0.58981 0.32005 0.33435 0.0
H583 H 0.54712 0.29817 0.34002 0.0
H584 H 0.62831 0.4062 0.47194 0.0
H585 H 0.52532 0.35604 0.4752 0.0
H586 H 0.64665 0.41628 0.36764 0.0
H587 H 0.6334 0.37602 0.34821 0.0
H588 H 0.65402 0.39059 0.40577 0.0
H589 H 0.51122 0.35259 0.35805 0.0
H590 H 0.49384 0.32616 0.40937 0.0
H591 H 0.51181 0.31591 0.36022 0.0
C592 C 0.19503 0.59996 0.82355 0.0
C593 C 0.20183 0.63006 0.84028 0.0
C594 C 0.19739 0.59486 0.77374 0.0
C595 C 0.20775 0.62076 0.74083 0.0
C596 C 0.2212 0.65216 0.75937 0.0
C597 C 0.21745 0.65648 0.80913 0.0
C598 C 0.18403 0.56106 0.75577 0.0
C599 C 0.23541 0.68068 0.72583 0.0
C600 C 0.19389 0.59279 0.60884 0.0
C601 C 0.16308 0.58824 0.60129 0.0
C602 C 0.2104 0.60611 0.6527 0.0
C603 C 0.19514 0.61392 0.69009 0.0
C604 C 0.16477 0.61107 0.6811 0.0
C605 C 0.14945 0.59874 0.63654 0.0
C606 C 0.24331 0.61011 0.65926 0.0
C607 C 0.1471 0.61862 0.71983 0.0
H608 H 0.18378 0.5796 0.84793 0.0
H609 H 0.2237 0.68002 0.82236 0.0
H610 H 0.20046 0.55981 0.72867 0.0
H611 H 0.18022 0.54422 0.78602 0.0
H612 H 0.16066 0.55309 0.73746 0.0
H613 H 0.25262 0.70272 0.74561 0.0
H614 H 0.24784 0.67693 0.69454 0.0
H615 H 0.216 0.68429 0.71109 0.0
H616 H 0.20463 0.58494 0.58132 0.0
H617 H 0.1257 0.59542 0.63064 0.0
H618 H 0.24093 0.58652 0.66702 0.0
H619 H 0.25691 0.62674 0.68938 0.0
H620 H 0.25737 0.6191 0.62497 0.0
H621 H 0.1422 0.60283 0.75193 0.0
H622 H 0.12391 0.61545 0.70644 0.0
H623 H 0.16191 0.64362 0.73239 0.0
C624 C 0.43847 0.95654 0.97752 0.0
C625 C 0.4274 0.96549 0.93614 0.0
C626 C 0.45027 0.97624 1.01959 0.0
C627 C 0.45157 0.00625 1.02132 0.0
C628 C 0.43988 0.01521 0.98005 0.0
C629 C 0.42835 -0.00492 0.93824 0.0
C630 C 0.46176 0.96489 0.06219 0.0
C631 C 0.43893 0.0459 0.98033 0.0
C632 C 0.45653 0.04047 0.15083 0.0
C633 C 0.48876 0.06498 0.15485 0.0
C634 C 0.44403 0.02237 0.1075 0.0
C635 C 0.4643 0.02756 0.06666 0.0
C636 C 0.4969 0.05245 0.07024 0.0
C637 C 0.50857 0.07103 0.1137 0.0
C638 C 0.40885 -0.00241 0.1055 0.0
C639 C 0.51963 0.05919 1.02814 0.0
H640 H 0.43815 0.93399 0.97709 0.0
H641 H 0.41981 0.00255 0.90715 0.0
H642 H 0.4881 0.98012 0.06541 0.0
H643 H 0.45123 0.96711 0.09692 0.0
H644 H 0.45565 0.93966 0.058 0.0
H645 H 0.42661 0.04827 0.94768 0.0
H646 H 0.42638 0.04715 1.01355 0.0
H647 H 0.46365 0.06659 0.98139 0.0
H648 H 0.44069 0.03563 0.18177 0.0
H649 H 0.53347 0.0897 0.11592 0.0
H650 H 0.40588 0.97339 0.103 0.0
H651 H 0.39774 0.00117 0.0724 0.0
H652 H 0.39558 -0.00157 0.13813 0.0
H653 H 0.52002 0.03717 1.01809 0.0
H654 H 0.54439 0.07845 1.03662 0.0
H655 H 0.51119 0.06646 0.9956 0.0
C656 C 0.42889 0.37234 0.28741 0.0
C657 C 0.4085 0.36022 0.24641 0.0
C658 C 0.41952 0.38147 0.33104 0.0
C659 C 0.38868 0.37849 0.3351 0.0
C660 C 0.36776 0.36578 0.2942 0.0
C661 C 0.37784 0.35703 0.2508 0.0
C662 C 0.44298 0.39475 0.37285 0.0
C663 C 0.33461 0.36168 0.29608 0.0
C664 C 0.35611 0.38056 0.46468 0.0
C665 C 0.36191 0.41209 0.46844 0.0
C666 C 0.3642 0.36927 0.42188 0.0
C667 C 0.37895 0.38981 0.38111 0.0
C668 C 0.38487 0.42162 0.38478 0.0
C669 C 0.37633 0.43218 0.42769 0.0
C670 C 0.35685 0.33511 0.42029 0.0
C671 C 0.4007 0.44485 0.3433 0.0
H672 H 0.45266 0.37519 0.28534 0.0
H673 H 0.36159 0.34781 0.22003 0.0
H674 H 0.44808 0.41923 0.38168 0.0
H675 H 0.43237 0.37997 0.40598 0.0
H676 H 0.46594 0.39552 0.36456 0.0
H677 H 0.32049 0.35009 0.26267 0.0
H678 H 0.3214 0.34707 0.32828 0.0
H679 H 0.33635 0.3853 0.30036 0.0
H680 H 0.34507 0.3645 0.49526 0.0
H681 H 0.38135 0.45663 0.42934 0.0
H682 H 0.37938 0.33441 0.41569 0.0
H683 H 0.34142 0.32277 0.38835 0.0
H684 H 0.34454 0.32172 0.45391 0.0
H685 H 0.42527 0.4489 0.33745 0.0
H686 H 0.40224 0.46819 0.35029 0.0
H687 H 0.38718 0.43484 0.30893 0.0
C688 C 0.02773 0.4784 0.64918 0.0
C689 C 0.01909 0.45815 0.6081 0.0
C690 C 0.00973 0.46896 0.69331 0.0
C691 C 0.98172 0.4384 0.69754 0.0
C692 C 0.97309 0.41763 0.65651 0.0
C693 C -0.00843 0.42767 0.61273 0.0
C694 C 0.02062 0.49211 0.73543 0.0
C695 C 0.94431 0.38446 0.65894 0.0
C696 C 0.95148 0.40711 0.82876 0.0
C697 C 0.92501 0.41179 0.83464 0.0
C698 C 0.96938 0.41479 0.78455 0.0
C699 C 0.96161 0.42846 0.74455 0.0
C700 C 0.93494 0.43328 0.75024 0.0
C701 C 0.91696 0.42467 0.79449 0.0
C702 C -0.00337 0.40796 0.78055 0.0
C703 C 0.92538 0.44771 0.70936 0.0
H704 H 0.04872 0.502 0.64697 0.0
H705 H 0.98435 0.41147 0.58196 0.0
H706 H 0.00319 0.50043 0.74098 0.0
H707 H 0.02135 0.48037 0.76976 0.0
H708 H 0.04475 0.51311 0.72908 0.0
H709 H 0.94177 0.37034 0.62558 0.0
H710 H 0.94624 0.37157 0.6911 0.0
H711 H 0.92216 0.38584 0.66362 0.0
H712 H 0.95807 0.39693 0.85873 0.0
H713 H 0.8967 0.4285 0.79778 0.0
H714 H 0.01961 0.43054 0.77516 0.0
H715 H -0.00694 0.39271 0.74822 0.0
H716 H -0.00122 0.39579 0.81352 0.0
H717 H 0.94633 0.47058 0.69747 0.0
H718 H 0.9056 0.45199 0.72009 0.0
H719 H 0.91743 0.43156 0.67733 0.0
C720 C 0.57804 0.95481 0.16158 0.0
C721 C 0.54639 0.92899 0.16572 0.0
C722 C 0.58949 0.9736 0.11819 0.0
C723 C 0.56878 0.96762 0.07747 0.0
C724 C 0.53694 0.94135 0.08133 0.0
C725 C 0.52639 0.92252 0.12459 0.0
C726 C 0.62424 -0.00059 0.11544 0.0
C727 C 0.51386 0.93253 0.03922 0.0
C728 C 0.58682 0.03603 0.98547 0.0
C729 C 0.59652 0.02697 0.94252 0.0
C730 C 0.57886 0.01773 1.02932 0.0
C731 C 0.57998 0.98889 1.03148 0.0
C732 C 0.59068 0.98011 0.98874 0.0
C733 C 0.59844 -0.00116 0.94529 0.0
C734 C 0.56856 0.02916 0.07332 0.0
C735 C 0.59394 0.95069 0.98832 0.0
H736 H 0.5942 0.96014 0.19217 0.0
H737 H 0.502 0.90268 0.12623 0.0
H738 H 0.6357 -0.00462 0.08312 0.0
H739 H 0.62619 0.02307 0.11068 0.0
H740 H 0.63785 0.00017 0.14863 0.0
H741 H 0.48884 0.91518 0.05014 0.0
H742 H 0.51468 0.95407 1.02353 0.0
H743 H 0.52087 0.9214 1.00995 0.0
H744 H 0.58513 0.05753 0.98489 0.0
H745 H 0.60597 -0.0088 0.91321 0.0
H746 H 0.58037 0.02751 0.10699 0.0
H747 H 0.54241 0.01367 0.07878 0.0
H748 H 0.57414 0.05423 0.0692 0.0
H749 H 0.60152 0.94643 1.02446 0.0
H750 H 0.61155 0.95256 0.9604 0.0
H751 H 0.57045 0.92962 0.97915 0.0
C752 C 0.54251 0.48979 0.42703 0.0
C753 C 0.55733 0.51133 0.46596 0.0
C754 C 0.53219 0.4985 0.38396 0.0
C755 C 0.53696 0.52984 0.37836 0.0
C756 C 0.55226 0.55179 0.41726 0.0
C757 C 0.56186 0.5423 0.46025 0.0
C758 C 0.51579 0.47389 0.34442 0.0
C759 C 0.55885 0.58564 0.41335 0.0
C760 C 0.53668 0.56035 0.24732 0.0
C761 C 0.50637 0.55804 0.24368 0.0
C762 C 0.54689 0.55169 0.29049 0.0
C763 C 0.52635 0.53972 0.33188 0.0
C764 C 0.4957 0.53731 0.3285 0.0
C765 C 0.48626 0.54658 0.28506 0.0
C766 C 0.58 0.5556 0.29183 0.0
C767 C 0.47264 0.52468 0.37091 0.0
H768 H 0.5385 0.46575 0.43041 0.0
H769 H 0.57329 0.55944 0.48943 0.0
H770 H 0.49119 0.46976 0.33859 0.0
H771 H 0.5289 0.48271 0.30941 0.0
H772 H 0.51429 0.45081 0.35345 0.0
H773 H 0.57158 0.60018 0.44587 0.0
H774 H 0.5736 0.59722 0.38044 0.0
H775 H 0.53599 0.58573 0.409 0.0
H776 H 0.55277 0.56921 0.21626 0.0
H777 H 0.46278 0.54444 0.28341 0.0
H778 H 0.57824 0.53211 0.29788 0.0
H779 H 0.5938 0.57122 0.32281 0.0
H780 H 0.59358 0.56606 0.25754 0.0
H781 H 0.46768 0.50037 0.38068 0.0
H782 H 0.44959 0.52376 0.36278 0.0
H783 H 0.48351 0.54001 0.40343 0.0
C784 C 0.05761 0.59858 0.79124 0.0
C785 C 0.05051 0.61127 0.83268 0.0
C786 C 0.03855 0.58997 0.74815 0.0
C787 C 0.01171 0.59471 0.74479 0.0
C788 C 0.00495 0.60834 0.78602 0.0
C789 C 0.02387 0.61587 0.82921 0.0
C790 C 0.04723 0.57566 0.70601 0.0
C791 C 0.97776 0.61535 0.78439 0.0
C792 C 0.979 0.59451 0.6145 0.0
C793 C 0.95162 0.56386 0.61088 0.0
C794 C -0.00185 0.60505 0.6576 0.0
C795 C -0.00959 0.58461 0.69896 0.0
C796 C 0.96241 0.55395 0.69586 0.0
C797 C 0.94372 0.54403 0.65243 0.0
C798 C 0.0268 0.63831 0.6588 0.0
C799 C 0.95236 0.53115 0.73841 0.0
H800 H 0.07794 0.59476 0.79267 0.0
H801 H 0.01798 0.62589 0.86023 0.0
H802 H 0.0258 0.55347 0.69326 0.0
H803 H 0.05593 0.59261 0.67493 0.0
H804 H 0.06631 0.57015 0.71581 0.0
H805 H 0.97666 0.62779 0.81779 0.0
H806 H 0.9805 0.63042 0.75215 0.0
H807 H 0.95457 0.59284 0.78033 0.0
H808 H 0.98571 0.6104 0.58337 0.0
H809 H 0.92285 0.52033 0.65106 0.0
H810 H 0.04916 0.63705 0.65973 0.0
H811 H 0.02632 0.65091 0.69237 0.0
H812 H 0.02772 0.65263 0.62651 0.0
H813 H 0.97028 0.52346 0.7438 0.0
H814 H 0.9284 0.50977 0.73277 0.0
H815 H 0.95162 0.54302 0.77259 0.0
C816 C 0.59651 0.08626 0.3101 0.0
C817 C 0.57887 0.09775 0.33432 0.0
C818 C 0.59316 0.05714 0.32466 0.0
C819 C 0.57015 0.03966 0.36096 0.0
C820 C 0.56002 0.05546 0.39349 0.0
C821 C 0.56479 0.08512 0.37946 0.0
C822 C 0.60814 0.04205 0.29434 0.0
C823 C 0.53996 0.03932 0.43817 0.0
C824 C 0.50608 0.96653 0.29756 0.0
C825 C 0.50779 0.94278 0.32333 0.0
C826 C 0.52528 -0.00169 0.31118 0.0
C827 C 0.54752 0.0061 0.35033 0.0
C828 C 0.54791 0.98191 0.37812 0.0
C829 C 0.52739 0.95029 0.36482 0.0
C830 C 0.52197 0.02321 0.28253 0.0
C831 C 0.57043 0.98884 0.42062 0.0
H832 H 0.60905 0.0974 0.27648 0.0
H833 H 0.55405 0.09606 0.40066 0.0
H834 H 0.59264 0.02992 0.26234 0.0
H835 H 0.63202 0.06047 0.2805 0.0
H836 H 0.61074 0.02403 0.31592 0.0
H837 H 0.52054 0.01475 0.42975 0.0
H838 H 0.55538 0.03751 0.46655 0.0
H839 H 0.52911 0.0529 0.45401 0.0
H840 H 0.49037 0.96036 0.26615 0.0
H841 H 0.52764 0.93151 0.386 0.0
H842 H 0.54263 0.03584 0.25735 0.0
H843 H 0.52137 0.0409 0.30739 0.0
H844 H 0.49976 0.01252 0.26016 0.0
H845 H 0.58366 0.01419 0.43185 0.0
H846 H 0.58861 0.98224 0.41048 0.0
H847 H 0.55678 0.9742 0.45252 0.0
C848 C 0.41933 0.43979 0.64451 0.0
C849 C 0.41177 0.46279 0.65854 0.0
C850 C 0.43011 0.42644 0.67936 0.0
C851 C 0.43878 0.44083 0.72638 0.0
C852 C 0.42351 0.45727 0.74309 0.0
C853 C 0.41079 0.46915 0.70847 0.0
C854 C 0.43254 0.39771 0.66481 0.0
C855 C 0.42278 0.46374 0.79665 0.0
C856 C 0.50281 0.43056 0.70998 0.0
C857 C 0.51413 0.45273 0.67144 0.0
C858 C 0.48346 0.43282 0.74617 0.0
C859 C 0.47313 0.45493 0.73928 0.0
C860 C 0.49372 0.48294 0.71256 0.0
C861 C 0.51211 0.48041 0.67535 0.0
C862 C 0.46859 0.40781 0.78491 0.0
C863 C 0.4914 0.51276 0.71533 0.0
H864 H 0.41497 0.43087 0.6073 0.0
H865 H 0.40074 0.4837 0.72021 0.0
H866 H 0.45367 0.40508 0.64087 0.0
H867 H 0.43373 0.38443 0.69682 0.0
H868 H 0.4112 0.3811 0.64297 0.0
H869 H 0.44608 0.4841 0.80835 0.0
H870 H 0.40356 0.46935 0.80513 0.0
H871 H 0.41875 0.44261 0.81823 0.0
H872 H 0.50684 0.41044 0.71 0.0
H873 H 0.5229 0.49894 0.64791 0.0
H874 H 0.45905 0.38382 0.76855 0.0
H875 H 0.44923 0.40922 0.80468 0.0
H876 H 0.48734 0.41134 0.81152 0.0
H877 H 0.47486 0.51224 0.68675 0.0
H878 H 0.51509 0.53395 0.70784 0.0
H879 H 0.4831 0.51563 0.75168 0.0
C880 C 0.9165 0.4939 1.02538 0.0
C881 C 0.90475 0.46153 1.034 0.0
C882 C 0.94707 0.51587 0.04222 0.0
C883 C 0.96484 0.50413 0.06698 0.0
C884 C 0.9486 0.47402 0.08915 0.0
C885 C 0.91877 0.45205 0.07027 0.0
C886 C 0.96274 0.54957 1.02337 0.0
C887 C 0.96485 0.46379 0.12604 0.0
C888 C 0.02889 0.52479 0.97418 0.0
C889 C 0.05371 0.55098 0.99714 0.0
C890 C 0.00045 0.50585 0.99955 0.0
C891 C -0.00286 0.51466 0.04805 0.0
C892 C 0.02416 0.53774 0.07349 0.0
C893 C 0.05246 0.55569 0.0475 0.0
C894 C 0.9735 0.47829 0.97257 0.0
C895 C 0.02322 0.54423 0.12718 0.0
H896 H 0.90453 0.50142 0.99951 0.0
H897 H 0.90869 0.42747 0.08048 0.0
H898 H 0.98397 0.56564 0.04552 0.0
H899 H 0.97059 0.55014 0.98507 0.0
H900 H 0.94546 0.55845 1.02364 0.0
H901 H -0.01268 0.46633 0.11065 0.0
H902 H 0.97152 0.47962 0.15843 0.0
H903 H 0.94903 0.43881 0.13837 0.0
H904 H 0.03074 0.5206 0.93571 0.0
H905 H 0.07294 0.57473 0.06604 0.0
H906 H 0.95647 0.48551 0.95852 0.0
H907 H 0.96052 0.4574 0.9969 0.0
H908 H 0.98246 0.47078 0.94074 0.0
H909 H -0.00042 0.54069 0.13844 0.0
H910 H 0.0422 0.56875 0.1373 0.0
H911 H 0.02742 0.52713 0.14832 0.0
C912 C 0.06251 0.55587 0.35544 0.0
C913 C 0.04671 0.53043 0.38898 0.0
C914 C 0.04626 0.55636 0.31281 0.0
C915 C 0.0139 0.53266 0.30772 0.0
C916 C 0.00642 0.5028 0.32767 0.0
C917 C 0.01914 0.50301 0.37343 0.0
C918 C 0.0609 0.58415 0.2783 0.0
C919 C 0.9831 0.47166 0.30424 0.0
C920 C 0.97585 0.54655 0.40498 0.0
C921 C 0.9476 0.51735 0.40027 0.0
C922 C -0.00418 0.56054 0.36485 0.0
C923 C -0.01034 0.54231 0.32125 0.0
C924 C 0.95739 0.51883 0.31294 0.0
C925 C 0.93728 0.5044 0.35349 0.0
C926 C 0.02347 0.59402 0.37074 0.0
C927 C 0.94577 0.50698 0.2622 0.0
H928 H 0.08611 0.5758 0.36349 0.0
H929 H 0.00789 0.48222 0.39618 0.0
H930 H 0.07733 0.60656 0.2979 0.0
H931 H 0.07488 0.57974 0.25047 0.0
H932 H 0.0423 0.58694 0.2586 0.0
H933 H -0.00737 0.45509 0.30697 0.0
H934 H 0.95981 0.46057 0.32388 0.0
H935 H 0.97951 0.47472 0.26506 0.0
H936 H 0.98221 0.55874 0.43993 0.0
H937 H 0.91385 0.48357 0.34845 0.0
H938 H 0.03073 0.60649 0.33522 0.0
H939 H 0.04407 0.59402 0.3885 0.0
H940 H 0.01691 0.60773 0.39595 0.0
H941 H 0.93297 0.51913 0.24888 0.0
H942 H 0.92869 0.48091 0.26199 0.0
H943 H 0.96586 0.51302 0.23646 0.0
C944 C 0.46505 0.97174 0.7278 0.0
C945 C 0.4619 0.94149 0.72993 0.0
C946 C 0.47708 -0.00979 0.68578 0.0
C947 C 0.49157 0.98033 0.64977 0.0
C948 C 0.47847 0.94727 0.64491 0.0
C949 C 0.46607 0.9281 0.68687 0.0
C950 C 0.47623 0.02085 0.68273 0.0
C951 C 0.48133 0.93392 0.59708 0.0
C952 C 0.5508 0.05162 0.6832 0.0
C953 C 0.55445 0.03862 0.72709 0.0
C954 C 0.53996 0.03234 0.64124 0.0
C955 C 0.52745 -0.00056 0.64744 0.0
C956 C 0.54302 -0.00915 0.68346 0.0
C957 C 0.55372 0.00944 0.7256 0.0
C958 C 0.53642 0.04512 0.5932 0.0
C959 C 0.54416 0.96036 0.68195 0.0
H960 H 0.45831 0.98108 0.75878 0.0
H961 H 0.46022 0.9034 0.68608 0.0
H962 H 0.49319 0.03847 0.70927 0.0
H963 H 0.48108 0.03101 0.64545 0.0
H964 H 0.45242 0.01644 0.69442 0.0
H965 H 0.46553 0.93641 0.5703 0.0
H966 H 0.50591 0.94795 0.58215 0.0
H967 H 0.47426 0.90851 0.60033 0.0
H968 H 0.55453 0.07559 0.68223 0.0
H969 H 0.56036 0.00069 0.75739 0.0
H970 H 0.51166 0.03093 0.57912 0.0
H971 H 0.55214 0.04265 0.56605 0.0
H972 H 0.54307 0.0705 0.59601 0.0
H973 H 0.52831 0.94376 0.71065 0.0
H974 H 0.56882 0.96553 0.69048 0.0
H975 H 0.53726 0.94861 0.64598 0.0
C976 C 0.47128 0.50769 0.04643 0.0
C977 C 0.44435 0.51118 0.04508 0.0
C978 C 0.47628 0.49049 1.01041 0.0
C979 C 0.45082 0.47236 0.97716 0.0
C980 C 0.4287 0.48273 0.96802 0.0
C981 C 0.42458 0.50125 1.00363 0.0
C982 C 0.50605 0.48775 1.01492 0.0
C983 C 0.40592 0.46968 0.9257 0.0
C984 C 0.46921 0.41293 0.99799 0.0
C985 C 0.45705 0.40766 0.04584 0.0
C986 C 0.45752 0.42598 0.96332 0.0
C987 C 0.4374 0.43735 0.97961 0.0
C988 C 0.41843 0.42281 1.02168 0.0
C989 C 0.43006 0.41015 0.05611 0.0
C990 C 0.4696 0.43181 0.9117 0.0
C991 C 0.38928 0.42507 1.03511 0.0
H992 H 0.48782 0.51717 0.07691 0.0
H993 H 0.40508 0.50622 1.00035 0.0
H994 H 0.50242 0.46989 0.04314 0.0
H995 H 0.513 0.48167 0.97979 0.0
H996 H 0.52653 0.51046 1.02831 0.0
H997 H 0.4109 0.48941 0.9003 0.0
H998 H 0.40834 0.45117 0.90533 0.0
H999 H 0.38089 0.45961 0.93863 0.0
H1000 H 0.48838 0.40846 0.98837 0.0
H1001 H 0.41854 0.40309 0.09161 0.0
H1002 H 0.47582 0.41358 0.90021 0.0
H1003 H 0.49118 0.45576 0.90845 0.0
H1004 H 0.45111 0.43116 0.88675 0.0
H1005 H 0.39632 0.44593 0.05923 0.0
H1006 H 0.37197 0.40363 0.0561 0.0
H1007 H 0.37685 0.42687 1.00243 0.0
C1008 C 0.36276 0.94876 0.62239 0.0
C1009 C 0.37687 0.97041 0.66102 0.0
C1010 C 0.37072 0.9587 0.57379 0.0
C1011 C 0.39311 -0.00895 0.56381 0.0
C1012 C 0.40526 0.01347 0.60253 0.0
C1013 C 0.3966 0.00286 0.65081 0.0
C1014 C 0.35679 0.93423 0.53342 0.0
C1015 C 0.42933 0.04818 0.59331 0.0
C1016 C 0.44781 0.01127 0.45378 0.0
C1017 C 0.43491 0.02455 0.42205 0.0
C1018 C 0.43393 -0.0004 0.49968 0.0
C1019 C 0.40625 0.00088 0.5137 0.0
C1020 C 0.39207 0.01259 0.48059 0.0
C1021 C 0.40664 0.02436 0.4351 0.0
C1022 C 0.44948 0.9869 0.53386 0.0
C1023 C 0.36248 0.01415 0.49409 0.0
H1024 H 0.3473 0.92359 0.63014 0.0
H1025 H 0.40677 0.01965 0.68073 0.0
H1026 H 0.34453 0.94146 0.50631 0.0
H1027 H 0.37628 0.9329 0.51388 0.0
H1028 H 0.33939 0.91005 0.54733 0.0
H1029 H 0.43452 0.06293 0.62678 0.0
H1030 H 0.45213 0.05039 0.57995 0.0
H1031 H 0.42047 0.05798 0.56455 0.0
H1032 H 0.46948 0.01122 0.4436 0.0
H1033 H 0.39659 0.03466 0.41057 0.0
H1034 H 0.45551 0.00015 0.56883 0.0
H1035 H 0.47156 0.98855 0.51822 0.0
H1036 H 0.4323 0.96165 0.5426 0.0
H1037 H 0.3436 -0.00915 0.50861 0.0
H1038 H 0.35258 0.02082 0.46251 0.0
H1039 H 0.36847 0.03211 0.52337 0.0
C1040 C 0.351 0.34739 0.95712 0.0
C1041 C 0.35069 0.3195 0.97179 0.0
C1042 C 0.34203 0.35064 0.90967 0.0
C1043 C 0.33182 0.32506 0.87618 0.0
C1044 C 0.32931 0.29598 0.89185 0.0
C1045 C 0.33911 0.29365 0.93938 0.0
C1046 C 0.34562 0.38229 0.89452 0.0
C1047 C 0.31799 0.26795 0.85763 0.0
C1048 C 0.2947 0.33685 0.76119 0.0
C1049 C 0.32151 0.35183 0.73034 0.0
C1050 C 0.29701 0.32589 0.80778 0.0
C1051 C 0.32687 0.3302 0.82387 0.0
C1052 C 0.35331 0.34315 0.79136 0.0
C1053 C 0.35032 0.35383 0.74504 0.0
C1054 C 0.26809 0.31171 0.84094 0.0
C1055 C 0.3855 0.34794 0.80672 0.0
H1056 H 0.35998 0.36742 0.98188 0.0
H1057 H 0.33887 0.27203 0.95049 0.0
H1058 H 0.36624 0.39454 0.86911 0.0
H1059 H 0.32393 0.37876 0.87495 0.0
H1060 H 0.3498 0.39818 0.92624 0.0
H1061 H 0.3127 0.24574 0.87724 0.0
H1062 H 0.29613 0.26378 0.83781 0.0
H1063 H 0.33681 0.27316 0.82993 0.0
H1064 H 0.27233 0.33523 0.75003 0.0
H1065 H 0.37113 0.36541 0.72143 0.0
H1066 H 0.27149 0.32919 0.86987 0.0
H1067 H 0.26524 0.28999 0.85927 0.0
H1068 H 0.24569 0.30546 0.8208 0.0
H1069 H 0.39669 0.36799 0.83311 0.0
H1070 H 0.4018 0.3534 0.77505 0.0
H1071 H 0.38288 0.32641 0.82529 0.0
C1072 C 0.97352 0.39624 0.12212 0.0
C1073 C 0.94627 0.36929 0.10408 0.0
C1074 C 0.98349 0.3972 0.17058 0.0
C1075 C 0.96635 0.37006 0.20098 0.0
C1076 C 0.94099 0.34163 0.18109 0.0
C1077 C 0.93107 0.34165 0.13291 0.0
C1078 C 0.01054 0.42817 0.19028 0.0
C1079 C 0.92267 0.31194 0.21175 0.0
C1080 C 0.00556 0.37699 0.32414 0.0
C1081 C -0.00915 0.39025 0.35245 0.0
C1082 C -0.00359 0.36814 0.27532 0.0
C1083 C 0.97224 0.37297 0.25462 0.0
C1084 C 0.95542 0.38355 0.2846 0.0
C1085 C 0.96465 0.39163 0.33339 0.0
C1086 C 0.01433 0.35611 0.24499 0.0
C1087 C 0.92964 0.38919 0.26406 0.0
H1088 H 0.98579 0.41727 0.09933 0.0
H1089 H 0.91019 0.32055 0.11887 0.0
H1090 H 0.0006 0.43906 0.21541 0.0
H1091 H 0.02763 0.42387 0.21147 0.0
H1092 H 0.02388 0.44561 0.16077 0.0
H1093 H 0.9079 0.29051 0.18894 0.0
H1094 H 0.93929 0.30764 0.23426 0.0
H1095 H 0.90647 0.31511 0.23705 0.0
H1096 H 0.02584 0.37579 0.33881 0.0
H1097 H 0.95316 0.40172 0.35536 0.0
H1098 H 0.03139 0.37547 0.22051 0.0
H1099 H -0.00243 0.33586 0.22162 0.0
H1100 H 0.02813 0.34832 0.26809 0.0
H1101 H 0.94036 0.40868 0.23665 0.0
H1102 H 0.91786 0.39596 0.2928 0.0
H1103 H 0.9111 0.3675 0.24518 0.0
C1104 C 0.63446 0.98358 0.66705 0.0
C1105 C 0.64135 0.01532 0.66732 0.0
C1106 C 0.63035 0.96721 0.62269 0.0
C1107 C 0.63189 0.98259 0.57782 0.0
C1108 C 0.6394 0.01489 0.57816 0.0
C1109 C 0.64464 0.03098 0.62281 0.0
C1110 C 0.62303 0.93305 0.62402 0.0
C1111 C 0.63928 0.03172 0.53177 0.0
C1112 C 0.63367 0.94947 0.45173 0.0
C1113 C 0.60099 0.933 0.44019 0.0
C1114 C 0.64416 0.96448 0.49759 0.0
C1115 C 0.62149 0.96399 0.53129 0.0
C1116 C 0.5885 0.94712 0.51924 0.0
C1117 C 0.57865 0.93101 0.4746 0.0
C1118 C 0.67942 0.98127 0.50969 0.0
C1119 C 0.56345 0.94677 0.55262 0.0
H1120 H 0.63176 0.97142 0.70147 0.0
H1121 H 0.64933 0.05536 0.62296 0.0
H1122 H 0.59714 0.91686 0.61688 0.0
H1123 H 0.63667 0.92876 0.59522 0.0
H1124 H 0.62887 0.92669 0.66005 0.0
H1125 H 0.64863 0.05762 0.53759 0.0
H1126 H 0.65383 0.02881 0.50302 0.0
H1127 H 0.61434 0.02088 0.51787 0.0
H1128 H 0.65088 0.95074 0.42501 0.0
H1129 H 0.55334 0.91814 0.46539 0.0
H1130 H 0.6831 0.97332 0.54592 0.0
H1131 H 0.68893 0.00737 0.51195 0.0
H1132 H 0.69349 0.97672 0.48193 0.0
H1133 H 0.56008 0.93121 0.58438 0.0
H1134 H 0.54006 0.93757 0.5338 0.0
H1135 H 0.57102 0.97107 0.5665 0.0
C1136 C 0.58545 0.62623 0.94717 0.0
C1137 C 0.56601 0.59722 0.97123 0.0
C1138 C 0.59682 0.62676 0.89968 0.0
C1139 C 0.58802 0.59757 0.87578 0.0
C1140 C 0.56921 0.56831 0.90064 0.0
C1141 C 0.5586 0.56859 0.94809 0.0
C1142 C 0.61711 0.65838 0.87445 0.0
C1143 C 0.55893 0.53654 0.87638 0.0
C1144 C 0.57997 0.58507 0.73932 0.0
C1145 C 0.60487 0.57885 0.72991 0.0
C1146 C 0.5754 0.59361 0.78633 0.0
C1147 C 0.59697 0.59695 0.82408 0.0
C1148 C 0.62437 0.5945 0.81309 0.0
C1149 C 0.62792 0.58528 0.76603 0.0
C1150 C 0.54576 0.59586 0.79651 0.0
C1151 C 0.64824 0.59849 0.85206 0.0
H1152 H 0.59096 0.64843 0.96488 0.0
H1153 H 0.54296 0.54621 0.96593 0.0
H1154 H 0.63873 0.65948 0.8581 0.0
H1155 H 0.60323 0.66095 0.84425 0.0
H1156 H 0.6248 0.67885 0.8998 0.0
H1157 H 0.5452 0.51607 0.90146 0.0
H1158 H 0.54366 0.53359 0.84424 0.0
H1159 H 0.58021 0.53562 0.86303 0.0
H1160 H 0.56281 0.58114 0.71084 0.0
H1161 H 0.64752 0.58091 0.75865 0.0
H1162 H 0.55165 0.61696 0.81949 0.0
H1163 H 0.52816 0.57435 0.81697 0.0
H1164 H 0.53414 0.59736 0.76237 0.0
H1165 H 0.65393 0.61929 0.87568 0.0
H1166 H 0.67088 0.60166 0.83613 0.0
H1167 H 0.6377 0.57695 0.87565 0.0
C1168 C 0.00881 0.61504 0.13101 0.0
C1169 C 0.02722 0.64365 0.10559 0.0
C1170 C -0.00558 0.61439 0.1759 0.0
C1171 C -0.00224 0.64303 0.19543 0.0
C1172 C 0.01476 0.67177 0.16841 0.0
C1173 C 0.02994 0.67187 0.12432 0.0
C1174 C 0.97712 0.58328 0.20368 0.0
C1175 C 0.01782 0.70268 0.18621 0.0
C1176 C 0.93878 0.62223 0.29966 0.0
C1177 C 0.95808 0.62499 0.33982 0.0
C1178 C 0.95204 0.63141 0.25263 0.0
C1179 C 0.98512 0.64254 0.24548 0.0
C1180 C 0.00511 0.64847 0.28666 0.0
C1181 C -0.00864 0.6403 0.3335 0.0
C1182 C 0.93026 0.62697 0.21017 0.0
C1183 C 0.04065 0.66114 0.28094 0.0
H1184 H 0.00702 0.59334 0.11706 0.0
H1185 H 0.04409 0.69408 0.10469 0.0
H1186 H 0.97424 0.56274 0.18183 0.0
H1187 H -0.00931 0.58502 0.23736 0.0
H1188 H 0.95293 0.57821 0.21505 0.0
H1189 H 0.01963 0.71816 0.15499 0.0
H1190 H -0.00278 0.69863 0.20942 0.0
H1191 H 0.0401 0.71584 0.20798 0.0
H1192 H 0.91303 0.61112 0.30435 0.0
H1193 H 0.0065 0.64433 0.3649 0.0
H1194 H 0.92476 0.60492 0.19002 0.0
H1195 H 0.94217 0.64731 0.18433 0.0
H1196 H 0.90725 0.6248 0.22247 0.0
H1197 H 0.05306 0.66545 0.31665 0.0
H1198 H 0.05181 0.68383 0.26016 0.0
H1199 H 0.04465 0.64383 0.25985 0.0
C1200 C 0.53799 0.13826 0.47719 0.0
C1201 C 0.55783 0.15473 0.43724 0.0
C1202 C 0.55043 0.13634 0.52285 0.0
C1203 C 0.58416 0.1516 0.53011 0.0
C1204 C 0.60443 0.17059 0.49113 0.0
C1205 C 0.59113 0.17157 0.44519 0.0
C1206 C 0.52646 0.11617 0.56159 0.0
C1207 C 0.64038 0.1891 0.4968 0.0
C1208 C 0.60709 0.15374 0.66571 0.0
C1209 C 0.61409 0.1288 0.66889 0.0
C1210 C 0.59933 0.16269 0.62064 0.0
C1211 C 0.59771 0.14604 0.57702 0.0
C1212 C 0.60638 0.12197 0.57953 0.0
C1213 C 0.61459 0.11386 0.62496 0.0
C1214 C 0.59159 0.18927 0.62004 0.0
C1215 C 0.60574 0.10373 0.53443 0.0
H1216 H 0.5122 0.12505 0.47202 0.0
H1217 H 0.60695 0.18405 0.41484 0.0
H1218 H 0.51357 0.09089 0.54941 0.0
H1219 H 0.53714 0.11751 0.59788 0.0
H1220 H 0.5081 0.12352 0.56562 0.0
H1221 H 0.65112 0.21088 0.47365 0.0
H1222 H 0.64763 0.19625 0.53527 0.0
H1223 H 0.6505 0.17411 0.48459 0.0
H1224 H 0.60677 0.16585 0.6988 0.0
H1225 H 0.62006 0.0947 0.62622 0.0
H1226 H 0.5654 0.17905 0.61484 0.0
H1227 H 0.60395 0.20571 0.58904 0.0
H1228 H 0.59868 0.20318 0.65455 0.0
H1229 H 0.58262 0.0947 0.51484 0.0
H1230 H 0.60926 0.08326 0.54307 0.0
H1231 H 0.62508 0.11986 0.50916 0.0
C1232 C 0.36761 0.53309 0.74122 0.0
C1233 C 0.34838 0.49966 0.73853 0.0
C1234 C 0.38082 0.54883 0.78609 0.0
C1235 C 0.3752 0.53097 0.82987 0.0
C1236 C 0.35392 0.4974 0.82767 0.0
C1237 C 0.34107 0.48238 0.78244 0.0
C1238 C 0.4017 0.58467 0.78616 0.0
C1239 C 0.34453 0.47629 0.87218 0.0
C1240 C 0.44189 0.56601 0.92709 0.0
C1241 C 0.42703 0.57171 0.96713 0.0
C1242 C 0.42574 0.55347 0.88247 0.0
C1243 C 0.39366 0.54683 0.87631 0.0
C1244 C 0.3791 0.55425 0.91556 0.0
C1245 C 0.39565 0.56609 0.96042 0.0
C1246 C 0.44355 0.54705 0.84265 0.0
C1247 C 0.3456 0.54894 0.91061 0.0
H1248 H 0.3736 0.547 0.7079 0.0
H1249 H 0.32597 0.45662 0.78149 0.0
H1250 H 0.39715 0.59513 0.81918 0.0
H1251 H 0.42726 0.5911 0.78655 0.0
H1252 H 0.39761 0.59557 0.75323 0.0
H1253 H 0.3183 0.46534 0.87813 0.0
H1254 H 0.34923 0.45635 0.86556 0.0
H1255 H 0.35693 0.48897 0.90598 0.0
H1256 H 0.46612 0.57025 0.93096 0.0
H1257 H 0.38366 0.57029 0.99059 0.0
H1258 H 0.45898 0.56956 0.82258 0.0
H1259 H 0.42735 0.52884 0.81609 0.0
H1260 H 0.45961 0.53904 0.85846 0.0
H1261 H 0.3427 0.55808 0.87491 0.0
H1262 H 0.33968 0.56078 0.94031 0.0
H1263 H 0.3281 0.52298 0.91195 0.0
C1264 C 0.85169 0.39579 0.1502 0.0
C1265 C 0.83177 0.39354 0.11097 0.0
C1266 C 0.85323 0.41199 0.1937 0.0
C1267 C 0.83351 0.4258 0.20005 0.0
C1268 C 0.81152 0.42164 0.16214 0.0
C1269 C 0.81134 0.40619 0.11788 0.0
C1270 C 0.87706 0.41452 0.23169 0.0
C1271 C 0.78862 0.43417 0.16752 0.0
C1272 C 0.82982 0.44586 0.33463 0.0
C1273 C 0.85272 0.47862 0.33707 0.0
C1274 C 0.82168 0.42894 0.28996 0.0
C1275 C 0.83672 0.44479 0.24589 0.0
C1276 C 0.8584 0.47822 0.24755 0.0
C1277 C 0.86613 0.49465 0.29282 0.0
C1278 C 0.7982 0.39355 0.29036 0.0
C1279 C 0.87467 0.49636 0.20162 0.0
H1280 H 0.86762 0.38613 0.14636 0.0
H1281 H 0.79587 0.40493 0.08822 0.0
H1282 H 0.87082 0.3901 0.24326 0.0
H1283 H 0.90134 0.42584 0.21505 0.0
H1284 H 0.87818 0.42827 0.26465 0.0
H1285 H 0.76772 0.4216 0.14269 0.0
H1286 H 0.77977 0.43156 0.20562 0.0
H1287 H 0.80116 0.4599 0.15807 0.0
H1288 H 0.81894 0.43294 0.36804 0.0
H1289 H 0.88368 0.5199 0.29366 0.0
H1290 H 0.81141 0.38044 0.28495 0.0
H1291 H 0.78081 0.387 0.25992 0.0
H1292 H 0.78477 0.38557 0.32534 0.0
H1293 H 0.89011 0.48738 0.18658 0.0
H1294 H 0.88959 0.52245 0.20811 0.0
H1295 H 0.85656 0.49234 0.17341 0.0
C1296 C 0.47649 0.85021 0.4823 0.0
C1297 C 0.45812 0.8396 0.43941 0.0
C1298 C 0.46245 0.84867 0.52826 0.0
C1299 C 0.42881 0.83673 0.53212 0.0
C1300 C 0.40981 0.82321 0.48954 0.0
C1301 C 0.42461 0.8251 0.44399 0.0
C1302 C 0.48468 0.86015 0.57172 0.0
C1303 C 0.37367 0.80662 0.49089 0.0
C1304 C 0.40128 0.83117 0.66604 0.0
C1305 C 0.39558 0.85695 0.66945 0.0
C1306 C 0.40995 0.82286 0.6212 0.0
C1307 C 0.41434 0.84142 0.57859 0.0
C1308 C 0.40622 0.86587 0.58117 0.0
C1309 C 0.397 0.87323 0.62614 0.0
C1310 C 0.41522 0.79466 0.62014 0.0
C1311 C 0.40767 0.88488 0.53658 0.0
H1312 H 0.5023 0.86054 0.48005 0.0
H1313 H 0.40976 0.81596 0.41169 0.0
H1314 H 0.50501 0.88442 0.56443 0.0
H1315 H 0.47314 0.86056 0.60641 0.0
H1316 H 0.49511 0.84441 0.57664 0.0
H1317 H 0.36352 0.78286 0.47318 0.0
H1318 H 0.36374 0.80316 0.52837 0.0
H1319 H 0.3654 0.82051 0.46918 0.0
H1320 H 0.39983 0.81787 0.6987 0.0
H1321 H 0.39204 0.89274 0.62756 0.0
H1322 H 0.44088 0.80292 0.6272 0.0
H1323 H 0.40876 0.78255 0.5841 0.0
H1324 H 0.4009 0.77702 0.64889 0.0
H1325 H 0.42978 0.892 0.51505 0.0
H1326 H 0.40664 0.90657 0.54639 0.0
H1327 H 0.38678 0.87009 0.51287 0.0
C1328 C 0.56671 0.44985 0.78327 0.0
C1329 C 0.5724 0.43493 0.74351 0.0
C1330 C 0.55313 0.43363 0.82753 0.0
C1331 C 0.54504 0.40119 0.83359 0.0
C1332 C 0.55293 0.38669 0.7948 0.0
C1333 C 0.56579 0.40336 0.75025 0.0
C1334 C 0.54716 0.45206 0.86658 0.0
C1335 C 0.54737 0.35325 0.79971 0.0
C1336 C 0.52936 0.37618 0.96909 0.0
C1337 C 0.4958 0.35643 0.97102 0.0
C1338 C 0.54572 0.38925 0.92456 0.0
C1339 C 0.5284 0.38282 0.88001 0.0
C1340 C 0.49479 0.36053 0.88146 0.0
C1341 C 0.47902 0.34836 0.92665 0.0
C1342 C 0.58165 0.4107 0.92567 0.0
C1343 C 0.47456 0.34845 0.83611 0.0
H1344 H 0.57171 0.47422 0.77944 0.0
H1345 H 0.5701 0.39131 0.72036 0.0
H1346 H 0.53371 0.43752 0.89853 0.0
H1347 H 0.57052 0.47192 0.87944 0.0
H1348 H 0.53383 0.46314 0.85068 0.0
H1349 H 0.56286 0.34905 0.77427 0.0
H1350 H 0.55206 0.34845 0.83756 0.0
H1351 H 0.52204 0.33588 0.79072 0.0
H1352 H 0.54293 0.38265 1.00281 0.0
H1353 H 0.45324 0.33257 0.9271 0.0
H1354 H 0.58752 0.43598 0.92568 0.0
H1355 H 0.59299 0.40685 0.89303 0.0
H1356 H 0.59232 0.40666 0.95896 0.0
H1357 H 0.48748 0.36057 0.80231 0.0
H1358 H 0.45284 0.35073 0.84016 0.0
H1359 H 0.466 0.32257 0.83213 0.0
C1360 C 0.09855 0.52463 0.29183 0.0
C1361 C 0.11916 0.53522 0.33255 0.0
C1362 C 0.10631 0.54202 0.24775 0.0
C1363 C 0.13638 0.57054 0.24241 0.0
C1364 C 0.1583 0.58025 0.28223 0.0
C1365 C 0.1492 0.56302 0.32693 0.0
C1366 C 0.08139 0.52952 0.20767 0.0
C1367 C 0.19124 0.60929 0.27827 0.0
C1368 C 0.1515 0.59382 0.10662 0.0
C1369 C 0.14482 0.61893 0.10378 0.0
C1370 C 0.15129 0.5795 0.15184 0.0
C1371 C 0.14399 0.59019 0.19585 0.0
C1372 C 0.1404 0.61765 0.19342 0.0
C1373 C 0.14029 0.63114 0.14768 0.0
C1374 C 0.15788 0.55214 0.15189 0.0
C1375 C 0.13669 0.63354 0.23834 0.0
H1376 H 0.07527 0.50321 0.29485 0.0
H1377 H 0.16558 0.57159 0.3576 0.0
H1378 H 0.08396 0.54845 0.18218 0.0
H1379 H 0.08351 0.51111 0.18653 0.0
H1380 H 0.05678 0.5178 0.22329 0.0
H1381 H 0.20812 0.60833 0.30492 0.0
H1382 H 0.20123 0.6117 0.24095 0.0
H1383 H 0.18969 0.63095 0.28622 0.0
H1384 H 0.15516 0.58407 0.07319 0.0
H1385 H 0.13585 0.651 0.14631 0.0
H1386 H 0.1349 0.52933 0.14869 0.0
H1387 H 0.16987 0.55153 0.18615 0.0
H1388 H 0.17318 0.55373 0.12041 0.0
H1389 H 0.11764 0.63977 0.23256 0.0
H1390 H 0.15939 0.65632 0.24436 0.0
H1391 H 0.1313 0.61897 0.27188 0.0
loop_
_geom_bond_atom_site_label_1
_geom_bond_atom_site_label_2
_geom_bond_distance
_geom_bond_site_symmetry_2
_ccdc_geom_bond_type
Dy0 O4 2.398 . S
Dy0 O5 2.491 . S
Dy0 O6 2.403 . S
Dy0 O7 2.664 . S
Dy0 O11 2.326 . S
Dy0 O15 2.310 . S
Dy0 O16 2.351 . S
C1 O12 1.185 . S
C1 O13 1.355 . S
C2 O4 1.185 . S
C2 O5 1.355 . S
Dy3 O7 2.310 . S
Dy3 O10 2.351 . S
Dy3 O12 2.398 . S
Dy3 O13 2.491 . S
Dy3 O14 2.403 . S
Dy3 O15 2.664 . S
Dy3 O17 2.326 . S
O4 Dy0 2.398 . S
O4 C2 1.185 . S
O5 Dy0 2.491 . S
O5 C2 1.355 . S
O6 Dy0 2.403 . S
O6 C8 1.254 . S
O7 Dy0 2.664 . S
O7 Dy3 2.310 . S
O7 C8 1.268 . S
C8 O6 1.254 . S
C8 O7 1.268 . S
C9 O14 1.254 . S
C9 O15 1.268 . S
O10 Dy3 2.351 . S
O10 C18 1.249 . S
O11 Dy0 2.326 . S
O11 C18 1.267 . S
O12 C1 1.185 . S
O12 Dy3 2.398 . S
O13 C1 1.355 . S
O13 Dy3 2.491 . S
O14 Dy3 2.403 . S
O14 C9 1.254 . S
O15 Dy0 2.310 . S
O15 Dy3 2.664 . S
O15 C9 1.268 . S
O16 Dy0 2.351 . S
O16 C19 1.249 . S
O17 Dy3 2.326 . S
O17 C19 1.267 . S
C18 O10 1.249 . S
C18 O11 1.267 . S
C19 O16 1.249 . S
C19 O17 1.267 . S
Dy20 O24 2.398 . S
Dy20 O25 2.491 . S
Dy20 O26 2.403 . S
Dy20 O27 2.664 . S
Dy20 O31 2.326 . S
Dy20 O35 2.310 . S
Dy20 O36 2.351 . S
C21 O32 1.185 . S
C21 O33 1.355 . S
C22 O24 1.185 . S
C22 O25 1.355 . S
Dy23 O27 2.310 . S
Dy23 O30 2.351 . S
Dy23 O32 2.398 . S
Dy23 O33 2.491 . S
Dy23 O34 2.403 . S
Dy23 O35 2.664 . S
Dy23 O37 2.326 . S
O24 Dy20 2.398 . S
O24 C22 1.185 . S
O25 Dy20 2.491 . S
O25 C22 1.355 . S
O26 Dy20 2.403 . S
O26 C28 1.254 . S
O27 Dy20 2.664 . S
O27 Dy23 2.310 . S
O27 C28 1.268 . S
C28 O26 1.254 . S
C28 O27 1.268 . S
C29 O34 1.254 . S
C29 O35 1.268 . S
O30 Dy23 2.351 . S
O30 C38 1.249 . S
O31 Dy20 2.326 . S
O31 C38 1.267 . S
O32 C21 1.185 . S
O32 Dy23 2.398 . S
O33 C21 1.355 . S
O33 Dy23 2.491 . S
O34 Dy23 2.403 . S
O34 C29 1.254 . S
O35 Dy20 2.310 . S
O35 Dy23 2.664 . S
O35 C29 1.268 . S
O36 Dy20 2.351 . S
O36 C39 1.249 . S
O37 Dy23 2.326 . S
O37 C39 1.267 . S
C38 O30 1.249 . S
C38 O31 1.267 . S
C39 O36 1.249 . S
C39 O37 1.267 . S
Dy40 O44 2.398 1_556 S
Dy40 O45 2.491 1_556 S
Dy40 O46 2.403 . S
Dy40 O47 2.664 . S
Dy40 O51 2.326 . S
Dy40 O55 2.310 . S
Dy40 O56 2.351 . S
C41 O52 1.185 . S
C41 O53 1.355 . S
C42 O44 1.185 . S
C42 O45 1.355 . S
Dy43 O47 2.310 . S
Dy43 O50 2.351 . S
Dy43 O52 2.398 . S
Dy43 O53 2.491 . S
Dy43 O54 2.403 . S
Dy43 O55 2.664 . S
Dy43 O57 2.326 . S
O44 Dy40 2.398 1_554 S
O44 C42 1.185 . S
O45 Dy40 2.491 1_554 S
O45 C42 1.355 . S
O46 Dy40 2.403 . S
O46 C48 1.254 . S
O47 Dy40 2.664 . S
O47 Dy43 2.310 . S
O47 C48 1.268 . S
C48 O46 1.254 . S
C48 O47 1.268 . S
C49 O54 1.254 . S
C49 O55 1.268 . S
O50 Dy43 2.351 . S
O50 C58 1.249 . S
O51 Dy40 2.326 . S
O51 C58 1.267 . S
O52 C41 1.185 . S
O52 Dy43 2.398 . S
O53 C41 1.355 . S
O53 Dy43 2.491 . S
O54 Dy43 2.403 . S
O54 C49 1.254 . S
O55 Dy40 2.310 . S
O55 Dy43 2.664 . S
O55 C49 1.268 . S
O56 Dy40 2.351 . S
O56 C59 1.249 . S
O57 Dy43 2.326 . S
O57 C59 1.267 . S
C58 O50 1.249 . S
C58 O51 1.267 . S
C59 O56 1.249 . S
C59 O57 1.267 . S
Dy60 O64 2.398 . S
Dy60 O65 2.491 . S
Dy60 O66 2.403 . S
Dy60 O67 2.664 . S
Dy60 O71 2.326 . S
Dy60 O75 2.310 . S
Dy60 O76 2.351 . S
C61 O72 1.185 . S
C61 O73 1.355 . S
C62 O64 1.185 . S
C62 O65 1.355 . S
Dy63 O67 2.310 . S
Dy63 O70 2.351 . S
Dy63 O72 2.398 . S
Dy63 O73 2.491 . S
Dy63 O74 2.403 . S
Dy63 O75 2.664 . S
Dy63 O77 2.326 . S
O64 Dy60 2.398 . S
O64 C62 1.185 . S
O65 Dy60 2.491 . S
O65 C62 1.355 . S
O66 Dy60 2.403 . S
O66 C68 1.254 . S
O67 Dy60 2.664 . S
O67 Dy63 2.310 . S
O67 C68 1.268 . S
C68 O66 1.254 . S
C68 O67 1.268 . S
C69 O74 1.254 . S
C69 O75 1.268 . S
O70 Dy63 2.351 . S
O70 C78 1.249 . S
O71 Dy60 2.326 . S
O71 C78 1.267 . S
O72 C61 1.185 . S
O72 Dy63 2.398 . S
O73 C61 1.355 . S
O73 Dy63 2.491 . S
O74 Dy63 2.403 . S
O74 C69 1.254 . S
O75 Dy60 2.310 . S
O75 Dy63 2.664 . S
O75 C69 1.268 . S
O76 Dy60 2.351 . S
O76 C79 1.249 . S
O77 Dy63 2.326 . S
O77 C79 1.267 . S
C78 O70 1.249 . S
C78 O71 1.267 . S
C79 O76 1.249 . S
C79 O77 1.267 . S
Dy80 O84 2.398 . S
Dy80 O85 2.491 . S
Dy80 O86 2.403 . S
Dy80 O87 2.664 . S
Dy80 O91 2.326 . S
Dy80 O95 2.310 . S
Dy80 O96 2.351 . S
C81 O92 1.185 . S
C81 O93 1.355 . S
C82 O84 1.185 . S
C82 O85 1.355 . S
Dy83 O87 2.310 . S
Dy83 O90 2.351 . S
Dy83 O92 2.398 . S
Dy83 O93 2.491 . S
Dy83 O94 2.403 . S
Dy83 O95 2.664 . S
Dy83 O97 2.326 . S
O84 Dy80 2.398 . S
O84 C82 1.185 . S
O85 Dy80 2.491 . S
O85 C82 1.355 . S
O86 Dy80 2.403 . S
O86 C88 1.254 . S
O87 Dy80 2.664 . S
O87 Dy83 2.310 . S
O87 C88 1.268 . S
C88 O86 1.254 . S
C88 O87 1.268 . S
C89 O94 1.254 . S
C89 O95 1.268 . S
O90 Dy83 2.351 . S
O90 C98 1.249 . S
O91 Dy80 2.326 . S
O91 C98 1.267 . S
O92 C81 1.185 . S
O92 Dy83 2.398 . S
O93 C81 1.355 . S
O93 Dy83 2.491 . S
O94 Dy83 2.403 . S
O94 C89 1.254 . S
O95 Dy80 2.310 . S
O95 Dy83 2.664 . S
O95 C89 1.268 . S
O96 Dy80 2.351 . S
O96 C99 1.249 . S
O97 Dy83 2.326 . S
O97 C99 1.267 . S
C98 O90 1.249 . S
C98 O91 1.267 . S
C99 O96 1.249 . S
C99 O97 1.267 . S
Dy100 O104 2.398 1_556 S
Dy100 O105 2.491 1_556 S
Dy100 O106 2.403 . S
Dy100 O107 2.664 . S
Dy100 O111 2.326 . S
Dy100 O115 2.310 . S
Dy100 O116 2.351 . S
C101 O112 1.185 . S
C101 O113 1.355 . S
C102 O104 1.185 . S
C102 O105 1.355 . S
Dy103 O107 2.310 . S
Dy103 O110 2.351 . S
Dy103 O112 2.398 . S
Dy103 O113 2.491 . S
Dy103 O114 2.403 . S
Dy103 O115 2.664 . S
Dy103 O117 2.326 . S
O104 Dy100 2.398 1_554 S
O104 C102 1.185 . S
O105 Dy100 2.491 1_554 S
O105 C102 1.355 . S
O106 Dy100 2.403 . S
O106 C108 1.254 . S
O107 Dy100 2.664 . S
O107 Dy103 2.310 . S
O107 C108 1.268 . S
C108 O106 1.254 . S
C108 O107 1.268 . S
C109 O114 1.254 . S
C109 O115 1.268 . S
O110 Dy103 2.351 . S
O110 C118 1.249 . S
O111 Dy100 2.326 . S
O111 C118 1.267 . S
O112 C101 1.185 . S
O112 Dy103 2.398 . S
O113 C101 1.355 . S
O113 Dy103 2.491 . S
O114 Dy103 2.403 . S
O114 C109 1.254 . S
O115 Dy100 2.310 . S
O115 Dy103 2.664 . S
O115 C109 1.268 . S
O116 Dy100 2.351 . S
O116 C119 1.249 . S
O117 Dy103 2.326 . S
O117 C119 1.267 . S
C118 O110 1.249 . S
C118 O111 1.267 . S
C119 O116 1.249 . S
C119 O117 1.267 . S
Dy120 O124 2.398 . S
Dy120 O125 2.491 . S
Dy120 O126 2.403 . S
Dy120 O127 2.664 . S
Dy120 O131 2.326 . S
Dy120 O135 2.310 . S
Dy120 O136 2.351 . S
C121 O132 1.185 . S
C121 O133 1.355 . S
C122 O124 1.185 . S
C122 O125 1.355 . S
Dy123 O127 2.310 . S
Dy123 O130 2.351 . S
Dy123 O132 2.398 . S
Dy123 O133 2.491 . S
Dy123 O134 2.403 . S
Dy123 O135 2.664 . S
Dy123 O137 2.326 . S
O124 Dy120 2.398 . S
O124 C122 1.185 . S
O125 Dy120 2.491 . S
O125 C122 1.355 . S
O126 Dy120 2.403 . S
O126 C128 1.254 . S
O127 Dy120 2.664 . S
O127 Dy123 2.310 . S
O127 C128 1.268 . S
C128 O126 1.254 . S
C128 O127 1.268 . S
C129 O134 1.254 . S
C129 O135 1.268 . S
O130 Dy123 2.351 . S
O130 C138 1.249 . S
O131 Dy120 2.326 . S
O131 C138 1.267 . S
O132 C121 1.185 . S
O132 Dy123 2.398 . S
O133 C121 1.355 . S
O133 Dy123 2.491 . S
O134 Dy123 2.403 . S
O134 C129 1.254 . S
O135 Dy120 2.310 . S
O135 Dy123 2.664 . S
O135 C129 1.268 . S
O136 Dy120 2.351 . S
O136 C139 1.249 . S
O137 Dy123 2.326 . S
O137 C139 1.267 . S
C138 O130 1.249 . S
C138 O131 1.267 . S
C139 O136 1.249 . S
C139 O137 1.267 . S
Dy140 O144 2.398 . S
Dy140 O145 2.491 . S
Dy140 O146 2.403 . S
Dy140 O147 2.664 . S
Dy140 O151 2.326 . S
Dy140 O155 2.310 . S
Dy140 O156 2.351 . S
C141 O152 1.185 . S
C141 O153 1.355 . S
C142 O144 1.185 . S
C142 O145 1.355 . S
Dy143 O147 2.310 . S
Dy143 O150 2.351 . S
Dy143 O152 2.398 . S
Dy143 O153 2.491 . S
Dy143 O154 2.403 . S
Dy143 O155 2.664 . S
Dy143 O157 2.326 . S
O144 Dy140 2.398 . S
O144 C142 1.185 . S
O145 Dy140 2.491 . S
O145 C142 1.355 . S
O146 Dy140 2.403 . S
O146 C148 1.254 . S
O147 Dy140 2.664 . S
O147 Dy143 2.310 . S
O147 C148 1.268 . S
C148 O146 1.254 . S
C148 O147 1.268 . S
C149 O154 1.254 . S
C149 O155 1.268 . S
O150 Dy143 2.351 . S
O150 C158 1.249 . S
O151 Dy140 2.326 . S
O151 C158 1.267 . S
O152 C141 1.185 . S
O152 Dy143 2.398 . S
O153 C141 1.355 . S
O153 Dy143 2.491 . S
O154 Dy143 2.403 . S
O154 C149 1.254 . S
O155 Dy140 2.310 . S
O155 Dy143 2.664 . S
O155 C149 1.268 . S
O156 Dy140 2.351 . S
O156 C159 1.249 . S
O157 Dy143 2.326 . S
O157 C159 1.267 . S
C158 O150 1.249 . S
C158 O151 1.267 . S
C159 O156 1.249 . S
C159 O157 1.267 . S
Dy160 O164 2.398 1_554 S
Dy160 O165 2.491 1_554 S
Dy160 O166 2.403 . S
Dy160 O167 2.664 . S
Dy160 O171 2.326 . S
Dy160 O175 2.310 . S
Dy160 O176 2.351 . S
C161 O172 1.185 . S
C161 O173 1.355 . S
C162 O164 1.185 . S
C162 O165 1.355 . S
Dy163 O167 2.310 . S
Dy163 O170 2.351 . S
Dy163 O172 2.398 . S
Dy163 O173 2.491 . S
Dy163 O174 2.403 . S
Dy163 O175 2.664 . S
Dy163 O177 2.326 . S
O164 Dy160 2.398 1_556 S
O164 C162 1.185 . S
O165 Dy160 2.491 1_556 S
O165 C162 1.355 . S
O166 Dy160 2.403 . S
O166 C168 1.254 . S
O167 Dy160 2.664 . S
O167 Dy163 2.310 . S
O167 C168 1.268 . S
C168 O166 1.254 . S
C168 O167 1.268 . S
C169 O174 1.254 . S
C169 O175 1.268 . S
O170 Dy163 2.351 . S
O170 C178 1.249 . S
O171 Dy160 2.326 . S
O171 C178 1.267 . S
O172 C161 1.185 . S
O172 Dy163 2.398 . S
O173 C161 1.355 . S
O173 Dy163 2.491 . S
O174 Dy163 2.403 . S
O174 C169 1.254 . S
O175 Dy160 2.310 . S
O175 Dy163 2.664 . S
O175 C169 1.268 . S
O176 Dy160 2.351 . S
O176 C179 1.249 . S
O177 Dy163 2.326 . S
O177 C179 1.267 . S
C178 O170 1.249 . S
C178 O171 1.267 . S
C179 O176 1.249 . S
C179 O177 1.267 . S
Dy180 O184 2.398 . S
Dy180 O185 2.491 . S
Dy180 O186 2.403 . S
Dy180 O187 2.664 . S
Dy180 O191 2.326 . S
Dy180 O195 2.310 . S
Dy180 O196 2.351 . S
C181 O192 1.185 . S
C181 O193 1.355 . S
C182 O184 1.185 . S
C182 O185 1.355 . S
Dy183 O187 2.310 . S
Dy183 O190 2.351 . S
Dy183 O192 2.398 . S
Dy183 O193 2.491 . S
Dy183 O194 2.403 . S
Dy183 O195 2.664 . S
Dy183 O197 2.326 . S
O184 Dy180 2.398 . S
O184 C182 1.185 . S
O185 Dy180 2.491 . S
O185 C182 1.355 . S
O186 Dy180 2.403 . S
O186 C188 1.254 . S
O187 Dy180 2.664 . S
O187 Dy183 2.310 . S
O187 C188 1.268 . S
C188 O186 1.254 . S
C188 O187 1.268 . S
C189 O194 1.254 . S
C189 O195 1.268 . S
O190 Dy183 2.351 . S
O190 C198 1.249 . S
O191 Dy180 2.326 . S
O191 C198 1.267 . S
O192 C181 1.185 . S
O192 Dy183 2.398 . S
O193 C181 1.355 . S
O193 Dy183 2.491 . S
O194 Dy183 2.403 . S
O194 C189 1.254 . S
O195 Dy180 2.310 . S
O195 Dy183 2.664 . S
O195 C189 1.268 . S
O196 Dy180 2.351 . S
O196 C199 1.249 . S
O197 Dy183 2.326 . S
O197 C199 1.267 . S
C198 O190 1.249 . S
C198 O191 1.267 . S
C199 O196 1.249 . S
C199 O197 1.267 . S
Dy200 O204 2.398 . S
Dy200 O205 2.491 . S
Dy200 O206 2.403 . S
Dy200 O207 2.664 . S
Dy200 O211 2.326 . S
Dy200 O215 2.310 . S
Dy200 O216 2.351 . S
C201 O212 1.185 . S
C201 O213 1.355 . S
C202 O204 1.185 . S
C202 O205 1.355 . S
Dy203 O207 2.310 . S
Dy203 O210 2.351 . S
Dy203 O212 2.398 . S
Dy203 O213 2.491 . S
Dy203 O214 2.403 . S
Dy203 O215 2.664 . S
Dy203 O217 2.326 . S
O204 Dy200 2.398 . S
O204 C202 1.185 . S
O205 Dy200 2.491 . S
O205 C202 1.355 . S
O206 Dy200 2.403 . S
O206 C208 1.254 . S
O207 Dy200 2.664 . S
O207 Dy203 2.310 . S
O207 C208 1.268 . S
C208 O206 1.254 . S
C208 O207 1.268 . S
C209 O214 1.254 . S
C209 O215 1.268 . S
O210 Dy203 2.351 . S
O210 C218 1.249 . S
O211 Dy200 2.326 . S
O211 C218 1.267 . S
O212 C201 1.185 . S
O212 Dy203 2.398 . S
O213 C201 1.355 . S
O213 Dy203 2.491 . S
O214 Dy203 2.403 . S
O214 C209 1.254 . S
O215 Dy200 2.310 . S
O215 Dy203 2.664 . S
O215 C209 1.268 . S
O216 Dy200 2.351 . S
O216 C219 1.249 . S
O217 Dy203 2.326 . S
O217 C219 1.267 . S
C218 O210 1.249 . S
C218 O211 1.267 . S
C219 O216 1.249 . S
C219 O217 1.267 . S
Dy220 O224 2.398 1_554 S
Dy220 O225 2.491 1_554 S
Dy220 O226 2.403 . S
Dy220 O227 2.664 . S
Dy220 O231 2.326 . S
Dy220 O235 2.310 . S
Dy220 O236 2.351 . S
C221 O232 1.185 . S
C221 O233 1.355 . S
C222 O224 1.185 . S
C222 O225 1.355 . S
Dy223 O227 2.310 . S
Dy223 O230 2.351 . S
Dy223 O232 2.398 . S
Dy223 O233 2.491 . S
Dy223 O234 2.403 . S
Dy223 O235 2.664 . S
Dy223 O237 2.326 . S
O224 Dy220 2.398 1_556 S
O224 C222 1.185 . S
O225 Dy220 2.491 1_556 S
O225 C222 1.355 . S
O226 Dy220 2.403 . S
O226 C228 1.254 . S
O227 Dy220 2.664 . S
O227 Dy223 2.310 . S
O227 C228 1.268 . S
C228 O226 1.254 . S
C228 O227 1.268 . S
C229 O234 1.254 . S
C229 O235 1.268 . S
O230 Dy223 2.351 . S
O230 C238 1.249 . S
O231 Dy220 2.326 . S
O231 C238 1.267 . S
O232 C221 1.185 . S
O232 Dy223 2.398 . S
O233 C221 1.355 . S
O233 Dy223 2.491 . S
O234 Dy223 2.403 . S
O234 C229 1.254 . S
O235 Dy220 2.310 . S
O235 Dy223 2.664 . S
O235 C229 1.268 . S
O236 Dy220 2.351 . S
O236 C239 1.249 . S
O237 Dy223 2.326 . S
O237 C239 1.267 . S
C238 O230 1.249 . S
C238 O231 1.267 . S
C239 O236 1.249 . S
C239 O237 1.267 . S
C240 C241 1.391 . S
C240 C242 1.394 . S
C240 H256 0.931 . S
C241 C240 1.391 . S
C241 C245 1.376 . S
C242 C240 1.394 . S
C242 C243 1.369 . S
C242 C246 1.531 . S
C243 C242 1.369 . S
C243 C244 1.410 . S
C243 C251 1.503 . S
C244 C243 1.410 . S
C244 C245 1.392 . S
C244 C247 1.511 . S
C245 C241 1.376 . S
C245 C244 1.392 . S
C245 H257 0.929 . S
C246 C242 1.531 . S
C246 H258 0.960 . S
C246 H259 0.962 . S
C246 H260 0.960 . S
C247 C244 1.511 . S
C247 H261 0.961 . S
C247 H262 0.961 . S
C247 H263 0.961 . S
C248 C249 1.370 . S
C248 C250 1.363 . S
C248 H264 0.931 . S
C249 C248 1.370 . S
C249 C253 1.408 . S
C250 C248 1.363 . S
C250 C251 1.370 . S
C250 C254 1.524 . S
C251 C243 1.503 . S
C251 C250 1.370 . S
C251 C252 1.403 . S
C252 C251 1.403 . S
C252 C253 1.404 . S
C252 C255 1.539 . S
C253 C249 1.408 . S
C253 C252 1.404 . S
C253 H265 0.930 . S
C254 C250 1.524 . S
C254 H266 0.956 . S
C254 H267 0.961 . S
C254 H268 0.961 . S
C255 C252 1.539 . S
C255 H269 0.958 . S
C255 H270 0.961 . S
C255 H271 0.960 . S
H256 C240 0.931 . S
H257 C245 0.929 . S
H258 C246 0.960 . S
H259 C246 0.962 . S
H260 C246 0.960 . S
H261 C247 0.961 . S
H262 C247 0.961 . S
H263 C247 0.961 . S
H264 C248 0.931 . S
H265 C253 0.930 . S
H266 C254 0.956 . S
H267 C254 0.961 . S
H268 C254 0.961 . S
H269 C255 0.958 . S
H270 C255 0.961 . S
H271 C255 0.960 . S
C272 C273 1.391 . S
C272 C274 1.394 . S
C272 H288 0.931 . S
C273 C272 1.391 . S
C273 C277 1.376 . S
C274 C272 1.394 . S
C274 C275 1.369 . S
C274 C278 1.531 . S
C275 C274 1.369 . S
C275 C276 1.410 . S
C275 C283 1.503 . S
C276 C275 1.410 . S
C276 C277 1.392 . S
C276 C279 1.511 . S
C277 C273 1.376 . S
C277 C276 1.392 . S
C277 H289 0.929 . S
C278 C274 1.531 . S
C278 H290 0.960 . S
C278 H291 0.962 . S
C278 H292 0.960 . S
C279 C276 1.511 . S
C279 H293 0.961 . S
C279 H294 0.961 . S
C279 H295 0.961 . S
C280 C281 1.370 . S
C280 C282 1.363 . S
C280 H296 0.931 . S
C281 C280 1.370 . S
C281 C285 1.408 . S
C282 C280 1.363 . S
C282 C283 1.370 . S
C282 C286 1.524 . S
C283 C275 1.503 . S
C283 C282 1.370 . S
C283 C284 1.403 . S
C284 C283 1.403 . S
C284 C285 1.404 . S
C284 C287 1.539 . S
C285 C281 1.408 . S
C285 C284 1.404 . S
C285 H297 0.930 . S
C286 C282 1.524 . S
C286 H298 0.956 . S
C286 H299 0.961 . S
C286 H300 0.961 . S
C287 C284 1.539 . S
C287 H301 0.958 . S
C287 H302 0.961 . S
C287 H303 0.960 . S
H288 C272 0.931 . S
H289 C277 0.929 . S
H290 C278 0.960 . S
H291 C278 0.962 . S
H292 C278 0.960 . S
H293 C279 0.961 . S
H294 C279 0.961 . S
H295 C279 0.961 . S
H296 C280 0.931 . S
H297 C285 0.930 . S
H298 C286 0.956 . S
H299 C286 0.961 . S
H300 C286 0.961 . S
H301 C287 0.958 . S
H302 C287 0.961 . S
H303 C287 0.960 . S
C304 C305 1.391 . S
C304 C306 1.394 . S
C304 H320 0.931 . S
C305 C304 1.391 . S
C305 C309 1.376 . S
C306 C304 1.394 . S
C306 C307 1.369 . S
C306 C310 1.531 . S
C307 C306 1.369 . S
C307 C308 1.410 . S
C307 C315 1.503 . S
C308 C307 1.410 . S
C308 C309 1.392 . S
C308 C311 1.511 . S
C309 C305 1.376 . S
C309 C308 1.392 . S
C309 H321 0.929 . S
C310 C306 1.531 . S
C310 H322 0.960 . S
C310 H323 0.962 . S
C310 H324 0.960 . S
C311 C308 1.511 . S
C311 H325 0.961 . S
C311 H326 0.961 . S
C311 H327 0.961 . S
C312 C313 1.370 . S
C312 C314 1.363 . S
C312 H328 0.931 . S
C313 C312 1.370 . S
C313 C317 1.408 . S
C314 C312 1.363 . S
C314 C315 1.370 . S
C314 C318 1.524 . S
C315 C307 1.503 . S
C315 C314 1.370 . S
C315 C316 1.403 . S
C316 C315 1.403 . S
C316 C317 1.404 . S
C316 C319 1.539 . S
C317 C313 1.408 . S
C317 C316 1.404 . S
C317 H329 0.930 . S
C318 C314 1.524 . S
C318 H330 0.956 . S
C318 H331 0.961 . S
C318 H332 0.961 . S
C319 C316 1.539 . S
C319 H333 0.958 . S
C319 H334 0.961 . S
C319 H335 0.960 . S
H320 C304 0.931 . S
H321 C309 0.929 . S
H322 C310 0.960 . S
H323 C310 0.962 . S
H324 C310 0.960 . S
H325 C311 0.961 . S
H326 C311 0.961 . S
H327 C311 0.961 . S
H328 C312 0.931 . S
H329 C317 0.930 . S
H330 C318 0.956 . S
H331 C318 0.961 . S
H332 C318 0.961 . S
H333 C319 0.958 . S
H334 C319 0.961 . S
H335 C319 0.960 . S
C336 C337 1.391 . S
C336 C338 1.394 . S
C336 H352 0.931 . S
C337 C336 1.391 . S
C337 C341 1.376 . S
C338 C336 1.394 . S
C338 C339 1.369 . S
C338 C342 1.531 . S
C339 C338 1.369 . S
C339 C340 1.410 . S
C339 C347 1.503 . S
C340 C339 1.410 . S
C340 C341 1.392 . S
C340 C343 1.511 . S
C341 C337 1.376 . S
C341 C340 1.392 . S
C341 H353 0.929 . S
C342 C338 1.531 . S
C342 H354 0.960 . S
C342 H355 0.962 . S
C342 H356 0.960 . S
C343 C340 1.511 . S
C343 H357 0.961 . S
C343 H358 0.961 . S
C343 H359 0.961 . S
C344 C345 1.370 . S
C344 C346 1.363 . S
C344 H360 0.931 . S
C345 C344 1.370 . S
C345 C349 1.408 . S
C346 C344 1.363 . S
C346 C347 1.370 . S
C346 C350 1.524 . S
C347 C339 1.503 . S
C347 C346 1.370 . S
C347 C348 1.403 . S
C348 C347 1.403 . S
C348 C349 1.404 . S
C348 C351 1.539 . S
C349 C345 1.408 . S
C349 C348 1.404 . S
C349 H361 0.930 . S
C350 C346 1.524 . S
C350 H362 0.956 . S
C350 H363 0.961 . S
C350 H364 0.961 . S
C351 C348 1.539 . S
C351 H365 0.958 . S
C351 H366 0.961 . S
C351 H367 0.960 . S
H352 C336 0.931 . S
H353 C341 0.929 . S
H354 C342 0.960 . S
H355 C342 0.962 . S
H356 C342 0.960 . S
H357 C343 0.961 . S
H358 C343 0.961 . S
H359 C343 0.961 . S
H360 C344 0.931 . S
H361 C349 0.930 . S
H362 C350 0.956 . S
H363 C350 0.961 . S
H364 C350 0.961 . S
H365 C351 0.958 . S
H366 C351 0.961 . S
H367 C351 0.960 . S
C368 C369 1.391 . S
C368 C370 1.394 . S
C368 H384 0.931 . S
C369 C368 1.391 . S
C369 C373 1.376 . S
C370 C368 1.394 . S
C370 C371 1.369 . S
C370 C374 1.531 . S
C371 C370 1.369 . S
C371 C372 1.410 . S
C371 C379 1.503 . S
C372 C371 1.410 . S
C372 C373 1.392 . S
C372 C375 1.511 . S
C373 C369 1.376 . S
C373 C372 1.392 . S
C373 H385 0.929 . S
C374 C370 1.531 . S
C374 H386 0.960 . S
C374 H387 0.962 . S
C374 H388 0.960 . S
C375 C372 1.511 . S
C375 H389 0.961 . S
C375 H390 0.961 . S
C375 H391 0.961 . S
C376 C377 1.370 . S
C376 C378 1.363 . S
C376 H392 0.931 . S
C377 C376 1.370 . S
C377 C381 1.408 . S
C378 C376 1.363 . S
C378 C379 1.370 . S
C378 C382 1.524 . S
C379 C371 1.503 . S
C379 C378 1.370 . S
C379 C380 1.403 . S
C380 C379 1.403 . S
C380 C381 1.404 . S
C380 C383 1.539 . S
C381 C377 1.408 . S
C381 C380 1.404 . S
C381 H393 0.930 . S
C382 C378 1.524 . S
C382 H394 0.956 . S
C382 H395 0.961 . S
C382 H396 0.961 . S
C383 C380 1.539 . S
C383 H397 0.958 . S
C383 H398 0.961 . S
C383 H399 0.960 . S
H384 C368 0.931 . S
H385 C373 0.929 . S
H386 C374 0.960 . S
H387 C374 0.962 . S
H388 C374 0.960 . S
H389 C375 0.961 . S
H390 C375 0.961 . S
H391 C375 0.961 . S
H392 C376 0.931 . S
H393 C381 0.930 . S
H394 C382 0.956 . S
H395 C382 0.961 . S
H396 C382 0.961 . S
H397 C383 0.958 . S
H398 C383 0.961 . S
H399 C383 0.960 . S
C400 C401 1.391 . S
C400 C402 1.394 . S
C400 H416 0.931 . S
C401 C400 1.391 . S
C401 C405 1.376 . S
C402 C400 1.394 . S
C402 C403 1.369 . S
C402 C406 1.531 . S
C403 C402 1.369 . S
C403 C404 1.410 . S
C403 C411 1.503 . S
C404 C403 1.410 . S
C404 C405 1.392 . S
C404 C407 1.511 . S
C405 C401 1.376 . S
C405 C404 1.392 . S
C405 H417 0.929 . S
C406 C402 1.531 . S
C406 H418 0.960 . S
C406 H419 0.962 . S
C406 H420 0.960 . S
C407 C404 1.511 . S
C407 H421 0.961 . S
C407 H422 0.961 . S
C407 H423 0.961 . S
C408 C409 1.370 . S
C408 C410 1.363 . S
C408 H424 0.931 . S
C409 C408 1.370 . S
C409 C413 1.408 . S
C410 C408 1.363 . S
C410 C411 1.370 . S
C410 C414 1.524 . S
C411 C403 1.503 . S
C411 C410 1.370 . S
C411 C412 1.403 . S
C412 C411 1.403 . S
C412 C413 1.404 . S
C412 C415 1.539 . S
C413 C409 1.408 . S
C413 C412 1.404 . S
C413 H425 0.930 . S
C414 C410 1.524 . S
C414 H426 0.956 . S
C414 H427 0.961 . S
C414 H428 0.961 . S
C415 C412 1.539 . S
C415 H429 0.958 . S
C415 H430 0.961 . S
C415 H431 0.960 . S
H416 C400 0.931 . S
H417 C405 0.929 . S
H418 C406 0.960 . S
H419 C406 0.962 . S
H420 C406 0.960 . S
H421 C407 0.961 . S
H422 C407 0.961 . S
H423 C407 0.961 . S
H424 C408 0.931 . S
H425 C413 0.930 . S
H426 C414 0.956 . S
H427 C414 0.961 . S
H428 C414 0.961 . S
H429 C415 0.958 . S
H430 C415 0.961 . S
H431 C415 0.960 . S
C432 C433 1.391 . S
C432 C434 1.394 . S
C432 H448 0.931 . S
C433 C432 1.391 . S
C433 C437 1.376 . S
C434 C432 1.394 . S
C434 C435 1.369 . S
C434 C438 1.531 1_556 S
C435 C434 1.369 . S
C435 C436 1.410 . S
C435 C443 1.503 1_556 S
C436 C435 1.410 . S
C436 C437 1.392 . S
C436 C439 1.511 . S
C437 C433 1.376 . S
C437 C436 1.392 . S
C437 H449 0.929 . S
C438 C434 1.531 1_554 S
C438 H450 0.960 . S
C438 H451 0.962 . S
C438 H452 0.960 . S
C439 C436 1.511 . S
C439 H453 0.961 . S
C439 H454 0.961 . S
C439 H455 0.961 . S
C440 C441 1.370 . S
C440 C442 1.363 . S
C440 H456 0.931 . S
C441 C440 1.370 . S
C441 C445 1.408 . S
C442 C440 1.363 . S
C442 C443 1.370 . S
C442 C446 1.524 1_554 S
C443 C435 1.503 1_554 S
C443 C442 1.370 . S
C443 C444 1.403 . S
C444 C443 1.403 . S
C444 C445 1.404 . S
C444 C447 1.539 . S
C445 C441 1.408 . S
C445 C444 1.404 . S
C445 H457 0.930 . S
C446 C442 1.524 1_556 S
C446 H458 0.956 . S
C446 H459 0.961 . S
C446 H460 0.961 1_556 S
C447 C444 1.539 . S
C447 H461 0.958 . S
C447 H462 0.961 . S
C447 H463 0.960 . S
H448 C432 0.931 . S
H449 C437 0.929 . S
H450 C438 0.960 . S
H451 C438 0.962 . S
H452 C438 0.960 . S
H453 C439 0.961 . S
H454 C439 0.961 . S
H455 C439 0.961 . S
H456 C440 0.931 . S
H457 C445 0.930 . S
H458 C446 0.956 . S
H459 C446 0.961 . S
H460 C446 0.961 1_554 S
H461 C447 0.958 . S
H462 C447 0.961 . S
H463 C447 0.960 . S
C464 C465 1.391 . S
C464 C466 1.394 . S
C464 H480 0.931 . S
C465 C464 1.391 . S
C465 C469 1.376 . S
C466 C464 1.394 . S
C466 C467 1.369 . S
C466 C470 1.531 . S
C467 C466 1.369 . S
C467 C468 1.410 . S
C467 C475 1.503 . S
C468 C467 1.410 . S
C468 C469 1.392 . S
C468 C471 1.511 . S
C469 C465 1.376 . S
C469 C468 1.392 . S
C469 H481 0.929 . S
C470 C466 1.531 . S
C470 H482 0.960 . S
C470 H483 0.962 . S
C470 H484 0.960 . S
C471 C468 1.511 . S
C471 H485 0.961 . S
C471 H486 0.961 . S
C471 H487 0.961 . S
C472 C473 1.370 . S
C472 C474 1.363 . S
C472 H488 0.931 . S
C473 C472 1.370 . S
C473 C477 1.408 . S
C474 C472 1.363 . S
C474 C475 1.370 . S
C474 C478 1.524 . S
C475 C467 1.503 . S
C475 C474 1.370 . S
C475 C476 1.403 . S
C476 C475 1.403 . S
C476 C477 1.404 . S
C476 C479 1.539 . S
C477 C473 1.408 . S
C477 C476 1.404 . S
C477 H489 0.930 . S
C478 C474 1.524 . S
C478 H490 0.956 . S
C478 H491 0.961 . S
C478 H492 0.961 . S
C479 C476 1.539 . S
C479 H493 0.958 . S
C479 H494 0.961 . S
C479 H495 0.960 . S
H480 C464 0.931 . S
H481 C469 0.929 . S
H482 C470 0.960 . S
H483 C470 0.962 . S
H484 C470 0.960 . S
H485 C471 0.961 . S
H486 C471 0.961 . S
H487 C471 0.961 . S
H488 C472 0.931 . S
H489 C477 0.930 . S
H490 C478 0.956 . S
H491 C478 0.961 . S
H492 C478 0.961 . S
H493 C479 0.958 . S
H494 C479 0.961 . S
H495 C479 0.960 . S
C496 C497 1.391 . S
C496 C498 1.394 . S
C496 H512 0.931 . S
C497 C496 1.391 . S
C497 C501 1.376 . S
C498 C496 1.394 . S
C498 C499 1.369 . S
C498 C502 1.531 . S
C499 C498 1.369 . S
C499 C500 1.410 . S
C499 C507 1.503 . S
C500 C499 1.410 . S
C500 C501 1.392 . S
C500 C503 1.511 . S
C501 C497 1.376 . S
C501 C500 1.392 . S
C501 H513 0.929 . S
C502 C498 1.531 . S
C502 H514 0.960 . S
C502 H515 0.962 . S
C502 H516 0.960 . S
C503 C500 1.511 . S
C503 H517 0.961 . S
C503 H518 0.961 . S
C503 H519 0.961 . S
C504 C505 1.370 . S
C504 C506 1.363 . S
C504 H520 0.931 . S
C505 C504 1.370 . S
C505 C509 1.408 . S
C506 C504 1.363 . S
C506 C507 1.370 . S
C506 C510 1.524 . S
C507 C499 1.503 . S
C507 C506 1.370 . S
C507 C508 1.403 . S
C508 C507 1.403 . S
C508 C509 1.404 . S
C508 C511 1.539 . S
C509 C505 1.408 . S
C509 C508 1.404 . S
C509 H521 0.930 . S
C510 C506 1.524 . S
C510 H522 0.956 . S
C510 H523 0.961 . S
C510 H524 0.961 . S
C511 C508 1.539 . S
C511 H525 0.958 . S
C511 H526 0.961 . S
C511 H527 0.960 . S
H512 C496 0.931 . S
H513 C501 0.929 . S
H514 C502 0.960 . S
H515 C502 0.962 . S
H516 C502 0.960 . S
H517 C503 0.961 . S
H518 C503 0.961 . S
H519 C503 0.961 . S
H520 C504 0.931 . S
H521 C509 0.930 . S
H522 C510 0.956 . S
H523 C510 0.961 . S
H524 C510 0.961 . S
H525 C511 0.958 . S
H526 C511 0.961 . S
H527 C511 0.960 . S
C528 C529 1.391 . S
C528 C530 1.394 . S
C528 H544 0.931 . S
C529 C528 1.391 . S
C529 C533 1.376 . S
C530 C528 1.394 . S
C530 C531 1.369 . S
C530 C534 1.531 . S
C531 C530 1.369 . S
C531 C532 1.410 . S
C531 C539 1.503 1_556 S
C532 C531 1.410 . S
C532 C533 1.392 . S
C532 C535 1.511 . S
C533 C529 1.376 . S
C533 C532 1.392 . S
C533 H545 0.929 . S
C534 C530 1.531 . S
C534 H546 0.960 1_556 S
C534 H547 0.962 . S
C534 H548 0.960 . S
C535 C532 1.511 . S
C535 H549 0.961 . S
C535 H550 0.961 1_556 S
C535 H551 0.961 1_556 S
C536 C537 1.370 . S
C536 C538 1.363 . S
C536 H552 0.931 . S
C537 C536 1.370 . S
C537 C541 1.408 . S
C538 C536 1.363 . S
C538 C539 1.370 . S
C538 C542 1.524 1_554 S
C539 C531 1.503 1_554 S
C539 C538 1.370 . S
C539 C540 1.403 . S
C540 C539 1.403 . S
C540 C541 1.404 . S
C540 C543 1.539 . S
C541 C537 1.408 . S
C541 C540 1.404 . S
C541 H553 0.930 . S
C542 C538 1.524 1_556 S
C542 H554 0.956 . S
C542 H555 0.961 . S
C542 H556 0.961 . S
C543 C540 1.539 . S
C543 H557 0.958 . S
C543 H558 0.961 . S
C543 H559 0.960 . S
H544 C528 0.931 . S
H545 C533 0.929 . S
H546 C534 0.960 1_554 S
H547 C534 0.962 . S
H548 C534 0.960 . S
H549 C535 0.961 . S
H550 C535 0.961 1_554 S
H551 C535 0.961 1_554 S
H552 C536 0.931 . S
H553 C541 0.930 . S
H554 C542 0.956 . S
H555 C542 0.961 . S
H556 C542 0.961 . S
H557 C543 0.958 . S
H558 C543 0.961 . S
H559 C543 0.960 . S
C560 C561 1.391 . S
C560 C562 1.394 . S
C560 H576 0.931 . S
C561 C560 1.391 . S
C561 C565 1.376 . S
C562 C560 1.394 . S
C562 C563 1.369 . S
C562 C566 1.531 . S
C563 C562 1.369 . S
C563 C564 1.410 . S
C563 C571 1.503 . S
C564 C563 1.410 . S
C564 C565 1.392 . S
C564 C567 1.511 . S
C565 C561 1.376 . S
C565 C564 1.392 . S
C565 H577 0.929 . S
C566 C562 1.531 . S
C566 H578 0.960 . S
C566 H579 0.962 . S
C566 H580 0.960 . S
C567 C564 1.511 . S
C567 H581 0.961 . S
C567 H582 0.961 . S
C567 H583 0.961 . S
C568 C569 1.370 . S
C568 C570 1.363 . S
C568 H584 0.931 . S
C569 C568 1.370 . S
C569 C573 1.408 . S
C570 C568 1.363 . S
C570 C571 1.370 . S
C570 C574 1.524 . S
C571 C563 1.503 . S
C571 C570 1.370 . S
C571 C572 1.403 . S
C572 C571 1.403 . S
C572 C573 1.404 . S
C572 C575 1.539 . S
C573 C569 1.408 . S
C573 C572 1.404 . S
C573 H585 0.930 . S
C574 C570 1.524 . S
C574 H586 0.956 . S
C574 H587 0.961 . S
C574 H588 0.961 . S
C575 C572 1.539 . S
C575 H589 0.958 . S
C575 H590 0.961 . S
C575 H591 0.960 . S
H576 C560 0.931 . S
H577 C565 0.929 . S
H578 C566 0.960 . S
H579 C566 0.962 . S
H580 C566 0.960 . S
H581 C567 0.961 . S
H582 C567 0.961 . S
H583 C567 0.961 . S
H584 C568 0.931 . S
H585 C573 0.930 . S
H586 C574 0.956 . S
H587 C574 0.961 . S
H588 C574 0.961 . S
H589 C575 0.958 . S
H590 C575 0.961 . S
H591 C575 0.960 . S
C592 C593 1.391 . S
C592 C594 1.394 . S
C592 H608 0.931 . S
C593 C592 1.391 . S
C593 C597 1.376 . S
C594 C592 1.394 . S
C594 C595 1.369 . S
C594 C598 1.531 . S
C595 C594 1.369 . S
C595 C596 1.410 . S
C595 C603 1.503 . S
C596 C595 1.410 . S
C596 C597 1.392 . S
C596 C599 1.511 . S
C597 C593 1.376 . S
C597 C596 1.392 . S
C597 H609 0.929 . S
C598 C594 1.531 . S
C598 H610 0.960 . S
C598 H611 0.962 . S
C598 H612 0.960 . S
C599 C596 1.511 . S
C599 H613 0.961 . S
C599 H614 0.961 . S
C599 H615 0.961 . S
C600 C601 1.370 . S
C600 C602 1.363 . S
C600 H616 0.931 . S
C601 C600 1.370 . S
C601 C605 1.408 . S
C602 C600 1.363 . S
C602 C603 1.370 . S
C602 C606 1.524 . S
C603 C595 1.503 . S
C603 C602 1.370 . S
C603 C604 1.403 . S
C604 C603 1.403 . S
C604 C605 1.404 . S
C604 C607 1.539 . S
C605 C601 1.408 . S
C605 C604 1.404 . S
C605 H617 0.930 . S
C606 C602 1.524 . S
C606 H618 0.956 . S
C606 H619 0.961 . S
C606 H620 0.961 . S
C607 C604 1.539 . S
C607 H621 0.958 . S
C607 H622 0.961 . S
C607 H623 0.960 . S
H608 C592 0.931 . S
H609 C597 0.929 . S
H610 C598 0.960 . S
H611 C598 0.962 . S
H612 C598 0.960 . S
H613 C599 0.961 . S
H614 C599 0.961 . S
H615 C599 0.961 . S
H616 C600 0.931 . S
H617 C605 0.930 . S
H618 C606 0.956 . S
H619 C606 0.961 . S
H620 C606 0.961 . S
H621 C607 0.958 . S
H622 C607 0.961 . S
H623 C607 0.960 . S
C624 C625 1.391 . S
C624 C626 1.394 . S
C624 H640 0.931 . S
C625 C624 1.391 . S
C625 C629 1.376 . S
C626 C624 1.394 . S
C626 C627 1.369 . S
C626 C630 1.531 1_556 S
C627 C626 1.369 . S
C627 C628 1.410 1_565 S
C627 C635 1.503 1_566 S
C628 C627 1.410 1_545 S
C628 C629 1.392 1_545 S
C628 C631 1.511 . S
C629 C625 1.376 . S
C629 C628 1.392 1_565 S
C629 H641 0.929 . S
C630 C626 1.531 1_554 S
C630 H642 0.960 . S
C630 H643 0.962 . S
C630 H644 0.954 1_554 S
C631 C628 1.511 . S
C631 H645 0.961 . S
C631 H646 0.961 . S
C631 H647 0.961 . S
C632 C633 1.370 . S
C632 C634 1.363 . S
C632 H648 0.931 . S
C633 C632 1.370 . S
C633 C637 1.408 . S
C634 C632 1.363 . S
C634 C635 1.370 . S
C634 C638 1.524 1_545 S
C635 C627 1.503 1_544 S
C635 C634 1.370 . S
C635 C636 1.403 . S
C636 C635 1.403 . S
C636 C637 1.404 . S
C636 C639 1.539 1_554 S
C637 C633 1.408 . S
C637 C636 1.404 . S
C637 H649 0.930 . S
C638 C634 1.524 1_565 S
C638 H650 0.956 . S
C638 H651 0.961 . S
C638 H652 0.961 . S
C639 C636 1.539 1_556 S
C639 H653 0.959 . S
C639 H654 0.961 . S
C639 H655 0.960 . S
H640 C624 0.931 . S
H641 C629 0.929 . S
H642 C630 0.960 . S
H643 C630 0.962 . S
H644 C630 0.954 1_556 S
H645 C631 0.961 . S
H646 C631 0.961 . S
H647 C631 0.961 . S
H648 C632 0.931 . S
H649 C637 0.930 . S
H650 C638 0.956 . S
H651 C638 0.961 . S
H652 C638 0.961 . S
H653 C639 0.959 . S
H654 C639 0.961 . S
H655 C639 0.960 . S
C656 C657 1.391 . S
C656 C658 1.394 . S
C656 H672 0.931 . S
C657 C656 1.391 . S
C657 C661 1.376 . S
C658 C656 1.394 . S
C658 C659 1.369 . S
C658 C662 1.531 . S
C659 C658 1.369 . S
C659 C660 1.410 . S
C659 C667 1.503 . S
C660 C659 1.410 . S
C660 C661 1.392 . S
C660 C663 1.511 . S
C661 C657 1.376 . S
C661 C660 1.392 . S
C661 H673 0.929 . S
C662 C658 1.531 . S
C662 H674 0.960 . S
C662 H675 0.962 . S
C662 H676 0.960 . S
C663 C660 1.511 . S
C663 H677 0.961 . S
C663 H678 0.961 . S
C663 H679 0.961 . S
C664 C665 1.370 . S
C664 C666 1.363 . S
C664 H680 0.931 . S
C665 C664 1.370 . S
C665 C669 1.408 . S
C666 C664 1.363 . S
C666 C667 1.370 . S
C666 C670 1.524 . S
C667 C659 1.503 . S
C667 C666 1.370 . S
C667 C668 1.403 . S
C668 C667 1.403 . S
C668 C669 1.404 . S
C668 C671 1.539 . S
C669 C665 1.408 . S
C669 C668 1.404 . S
C669 H681 0.930 . S
C670 C666 1.524 . S
C670 H682 0.956 . S
C670 H683 0.961 . S
C670 H684 0.961 . S
C671 C668 1.539 . S
C671 H685 0.958 . S
C671 H686 0.961 . S
C671 H687 0.960 . S
H672 C656 0.931 . S
H673 C661 0.929 . S
H674 C662 0.960 . S
H675 C662 0.962 . S
H676 C662 0.960 . S
H677 C663 0.961 . S
H678 C663 0.961 . S
H679 C663 0.961 . S
H680 C664 0.931 . S
H681 C669 0.930 . S
H682 C670 0.956 . S
H683 C670 0.961 . S
H684 C670 0.961 . S
H685 C671 0.958 . S
H686 C671 0.961 . S
H687 C671 0.960 . S
C688 C689 1.391 . S
C688 C690 1.394 . S
C688 H704 0.931 . S
C689 C688 1.391 . S
C689 C693 1.376 . S
C690 C688 1.394 . S
C690 C691 1.369 . S
C690 C694 1.531 . S
C691 C690 1.369 . S
C691 C692 1.410 1_455 S
C691 C699 1.503 1_455 S
C692 C691 1.410 1_655 S
C692 C693 1.392 1_655 S
C692 C695 1.511 . S
C693 C689 1.376 . S
C693 C692 1.392 1_455 S
C693 H705 0.929 . S
C694 C690 1.531 . S
C694 H706 0.960 . S
C694 H707 0.962 . S
C694 H708 0.960 . S
C695 C692 1.511 . S
C695 H709 0.961 . S
C695 H710 0.961 . S
C695 H711 0.961 . S
C696 C697 1.370 . S
C696 C698 1.363 . S
C696 H712 0.931 . S
C697 C696 1.370 . S
C697 C701 1.408 . S
C698 C696 1.363 . S
C698 C699 1.370 . S
C698 C702 1.524 . S
C699 C691 1.503 1_655 S
C699 C698 1.370 . S
C699 C700 1.403 . S
C700 C699 1.403 . S
C700 C701 1.404 . S
C700 C703 1.539 1_655 S
C701 C697 1.408 . S
C701 C700 1.404 . S
C701 H713 0.930 . S
C702 C698 1.524 . S
C702 H714 0.956 . S
C702 H715 0.961 . S
C702 H716 0.961 . S
C703 C700 1.539 1_455 S
C703 H717 0.958 . S
C703 H718 0.957 1_455 S
C703 H719 0.960 . S
H704 C688 0.931 . S
H705 C693 0.929 . S
H706 C694 0.960 . S
H707 C694 0.962 . S
H708 C694 0.960 . S
H709 C695 0.961 . S
H710 C695 0.961 . S
H711 C695 0.961 . S
H712 C696 0.931 . S
H713 C701 0.930 . S
H714 C702 0.956 . S
H715 C702 0.961 . S
H716 C702 0.961 . S
H717 C703 0.958 . S
H718 C703 0.957 1_655 S
H719 C703 0.960 . S
C720 C721 1.391 . S
C720 C722 1.394 . S
C720 H736 0.931 . S
C721 C720 1.391 . S
C721 C725 1.376 . S
C722 C720 1.394 . S
C722 C723 1.369 . S
C722 C726 1.531 . S
C723 C722 1.369 . S
C723 C724 1.410 . S
C723 C731 1.503 1_564 S
C724 C723 1.410 . S
C724 C725 1.392 . S
C724 C727 1.508 . S
C725 C721 1.376 . S
C725 C724 1.392 . S
C725 H737 0.929 . S
C726 C722 1.531 . S
C726 H738 0.960 1_554 S
C726 H739 0.962 . S
C726 H740 0.960 . S
C727 C724 1.508 . S
C727 H741 0.963 1_565 S
C727 H742 0.964 1_565 S
C727 H743 0.959 . S
C728 C729 1.370 . S
C728 C730 1.363 . S
C728 H744 0.931 . S
C729 C728 1.370 . S
C729 C733 1.408 . S
C730 C728 1.363 . S
C730 C731 1.370 . S
C730 C734 1.524 1_556 S
C731 C723 1.503 1_546 S
C731 C730 1.370 . S
C731 C732 1.403 1_545 S
C732 C731 1.403 1_565 S
C732 C733 1.404 1_565 S
C732 C735 1.539 . S
C733 C729 1.408 . S
C733 C732 1.404 1_545 S
C733 H745 0.930 . S
C734 C730 1.524 1_554 S
C734 H746 0.956 . S
C734 H747 0.961 . S
C734 H748 0.961 . S
C735 C732 1.539 . S
C735 H749 0.958 . S
C735 H750 0.961 . S
C735 H751 0.960 . S
H736 C720 0.931 . S
H737 C725 0.929 . S
H738 C726 0.960 1_556 S
H739 C726 0.962 . S
H740 C726 0.960 . S
H741 C727 0.963 1_545 S
H742 C727 0.964 1_545 S
H743 C727 0.959 . S
H744 C728 0.931 . S
H745 C733 0.930 . S
H746 C734 0.956 . S
H747 C734 0.961 . S
H748 C734 0.961 . S
H749 C735 0.958 . S
H750 C735 0.961 . S
H751 C735 0.960 . S
C752 C753 1.391 . S
C752 C754 1.394 . S
C752 H768 0.931 . S
C753 C752 1.391 . S
C753 C757 1.376 . S
C754 C752 1.394 . S
C754 C755 1.369 . S
C754 C758 1.531 . S
C755 C754 1.369 . S
C755 C756 1.410 . S
C755 C763 1.503 . S
C756 C755 1.410 . S
C756 C757 1.392 . S
C756 C759 1.511 . S
C757 C753 1.376 . S
C757 C756 1.392 . S
C757 H769 0.929 . S
C758 C754 1.531 . S
C758 H770 0.960 . S
C758 H771 0.962 . S
C758 H772 0.960 . S
C759 C756 1.511 . S
C759 H773 0.961 . S
C759 H774 0.961 . S
C759 H775 0.961 . S
C760 C761 1.370 . S
C760 C762 1.363 . S
C760 H776 0.931 . S
C761 C760 1.370 . S
C761 C765 1.408 . S
C762 C760 1.363 . S
C762 C763 1.370 . S
C762 C766 1.524 . S
C763 C755 1.503 . S
C763 C762 1.370 . S
C763 C764 1.403 . S
C764 C763 1.403 . S
C764 C765 1.404 . S
C764 C767 1.539 . S
C765 C761 1.408 . S
C765 C764 1.404 . S
C765 H777 0.930 . S
C766 C762 1.524 . S
C766 H778 0.956 . S
C766 H779 0.961 . S
C766 H780 0.961 . S
C767 C764 1.539 . S
C767 H781 0.958 . S
C767 H782 0.961 . S
C767 H783 0.960 . S
H768 C752 0.931 . S
H769 C757 0.929 . S
H770 C758 0.960 . S
H771 C758 0.962 . S
H772 C758 0.960 . S
H773 C759 0.961 . S
H774 C759 0.961 . S
H775 C759 0.961 . S
H776 C760 0.931 . S
H777 C765 0.930 . S
H778 C766 0.956 . S
H779 C766 0.961 . S
H780 C766 0.961 . S
H781 C767 0.958 . S
H782 C767 0.961 . S
H783 C767 0.960 . S
C784 C785 1.391 . S
C784 C786 1.394 . S
C784 H800 0.931 . S
C785 C784 1.391 . S
C785 C789 1.376 . S
C786 C784 1.394 . S
C786 C787 1.369 . S
C786 C790 1.531 . S
C787 C786 1.369 . S
C787 C788 1.410 1_455 S
C787 C795 1.503 1_455 S
C788 C787 1.410 1_655 S
C788 C789 1.392 1_655 S
C788 C791 1.511 . S
C789 C785 1.376 . S
C789 C788 1.392 1_455 S
C789 H801 0.929 . S
C790 C786 1.531 . S
C790 H802 0.960 . S
C790 H803 0.962 . S
C790 H804 0.960 . S
C791 C788 1.511 . S
C791 H805 0.961 . S
C791 H806 0.961 . S
C791 H807 0.961 . S
C792 C793 1.370 . S
C792 C794 1.378 . S
C792 H808 0.931 . S
C793 C792 1.370 . S
C793 C797 1.408 . S
C794 C792 1.378 . S
C794 C795 1.372 . S
C794 C798 1.509 1_655 S
C795 C787 1.503 1_655 S
C795 C794 1.372 . S
C795 C796 1.403 . S
C796 C795 1.403 . S
C796 C797 1.404 . S
C796 C799 1.539 . S
C797 C793 1.408 . S
C797 C796 1.404 . S
C797 H809 0.930 . S
C798 C794 1.509 1_455 S
C798 H810 0.956 . S
C798 H811 0.961 . S
C798 H812 0.961 . S
C799 C796 1.539 . S
C799 H813 0.958 . S
C799 H814 0.961 . S
C799 H815 0.960 . S
H800 C784 0.931 . S
H801 C789 0.929 . S
H802 C790 0.960 . S
H803 C790 0.962 . S
H804 C790 0.960 . S
H805 C791 0.961 . S
H806 C791 0.961 . S
H807 C791 0.961 . S
H808 C792 0.931 . S
H809 C797 0.930 . S
H810 C798 0.956 . S
H811 C798 0.961 . S
H812 C798 0.961 . S
H813 C799 0.958 . S
H814 C799 0.961 . S
H815 C799 0.960 . S
C816 C817 1.391 . S
C816 C818 1.394 . S
C816 H832 0.931 . S
C817 C816 1.391 . S
C817 C821 1.376 . S
C818 C816 1.394 . S
C818 C819 1.369 . S
C818 C822 1.531 . S
C819 C818 1.369 . S
C819 C820 1.410 1_545 S
C819 C827 1.503 1_545 S
C820 C819 1.410 1_565 S
C820 C821 1.392 1_565 S
C820 C823 1.511 . S
C821 C817 1.376 . S
C821 C820 1.392 1_545 S
C821 H833 0.929 . S
C822 C818 1.531 . S
C822 H834 0.960 . S
C822 H835 0.962 . S
C822 H836 0.960 . S
C823 C820 1.511 . S
C823 H837 0.961 . S
C823 H838 0.961 . S
C823 H839 0.961 . S
C824 C825 1.370 . S
C824 C826 1.363 . S
C824 H840 0.931 . S
C825 C824 1.370 . S
C825 C829 1.408 . S
C826 C824 1.363 . S
C826 C827 1.370 . S
C826 C830 1.524 . S
C827 C819 1.503 1_565 S
C827 C826 1.370 . S
C827 C828 1.403 . S
C828 C827 1.403 . S
C828 C829 1.404 . S
C828 C831 1.539 . S
C829 C825 1.408 . S
C829 C828 1.404 . S
C829 H841 0.930 . S
C830 C826 1.524 . S
C830 H842 0.956 1_565 S
C830 H843 0.961 . S
C830 H844 0.961 . S
C831 C828 1.539 . S
C831 H845 0.958 . S
C831 H846 0.961 . S
C831 H847 0.960 . S
H832 C816 0.931 . S
H833 C821 0.929 . S
H834 C822 0.960 . S
H835 C822 0.962 . S
H836 C822 0.960 . S
H837 C823 0.961 . S
H838 C823 0.961 . S
H839 C823 0.961 . S
H840 C824 0.931 . S
H841 C829 0.930 . S
H842 C830 0.956 1_545 S
H843 C830 0.961 . S
H844 C830 0.961 . S
H845 C831 0.958 . S
H846 C831 0.961 . S
H847 C831 0.960 . S
C848 C849 1.391 . S
C848 C850 1.394 . S
C848 H864 0.931 . S
C849 C848 1.391 . S
C849 C853 1.376 . S
C850 C848 1.394 . S
C850 C851 1.369 . S
C850 C854 1.531 . S
C851 C850 1.369 . S
C851 C852 1.410 . S
C851 C859 1.503 . S
C852 C851 1.410 . S
C852 C853 1.392 . S
C852 C855 1.511 . S
C853 C849 1.376 . S
C853 C852 1.392 . S
C853 H865 0.929 . S
C854 C850 1.531 . S
C854 H866 0.960 . S
C854 H867 0.962 . S
C854 H868 0.960 . S
C855 C852 1.511 . S
C855 H869 0.961 . S
C855 H870 0.961 . S
C855 H871 0.961 . S
C856 C857 1.370 . S
C856 C858 1.363 . S
C856 H872 0.931 . S
C857 C856 1.370 . S
C857 C861 1.408 . S
C858 C856 1.363 . S
C858 C859 1.370 . S
C858 C862 1.524 . S
C859 C851 1.503 . S
C859 C858 1.370 . S
C859 C860 1.403 . S
C860 C859 1.403 . S
C860 C861 1.404 . S
C860 C863 1.539 . S
C861 C857 1.408 . S
C861 C860 1.404 . S
C861 H873 0.930 . S
C862 C858 1.524 . S
C862 H874 0.956 . S
C862 H875 0.961 . S
C862 H876 0.961 . S
C863 C860 1.539 . S
C863 H877 0.958 . S
C863 H878 0.961 . S
C863 H879 0.960 . S
H864 C848 0.931 . S
H865 C853 0.929 . S
H866 C854 0.960 . S
H867 C854 0.962 . S
H868 C854 0.960 . S
H869 C855 0.961 . S
H870 C855 0.961 . S
H871 C855 0.961 . S
H872 C856 0.931 . S
H873 C861 0.930 . S
H874 C862 0.956 . S
H875 C862 0.961 . S
H876 C862 0.961 . S
H877 C863 0.958 . S
H878 C863 0.961 . S
H879 C863 0.960 . S
C880 C881 1.391 . S
C880 C882 1.394 . S
C880 H896 0.931 . S
C881 C880 1.391 . S
C881 C885 1.376 . S
C882 C880 1.394 . S
C882 C883 1.369 . S
C882 C886 1.531 . S
C883 C882 1.369 . S
C883 C884 1.410 1_655 S
C883 C891 1.503 1_655 S
C884 C883 1.410 1_455 S
C884 C885 1.392 1_455 S
C884 C887 1.511 . S
C885 C881 1.376 . S
C885 C884 1.392 1_655 S
C885 H897 0.929 . S
C886 C882 1.531 . S
C886 H898 0.960 . S
C886 H899 0.962 . S
C886 H900 0.960 . S
C887 C884 1.511 . S
C887 H901 0.961 . S
C887 H902 0.961 . S
C887 H903 0.961 . S
C888 C889 1.370 . S
C888 C890 1.363 . S
C888 H904 0.931 . S
C889 C888 1.370 . S
C889 C893 1.408 . S
C890 C888 1.363 . S
C890 C891 1.370 . S
C890 C894 1.524 . S
C891 C883 1.503 1_455 S
C891 C890 1.370 . S
C891 C892 1.403 . S
C892 C891 1.403 . S
C892 C893 1.404 . S
C892 C895 1.539 1_556 S
C893 C889 1.408 . S
C893 C892 1.404 . S
C893 H905 0.930 . S
C894 C890 1.524 . S
C894 H906 0.956 1_455 S
C894 H907 0.961 . S
C894 H908 0.961 . S
C895 C892 1.539 1_554 S
C895 H909 0.958 1_455 S
C895 H910 0.961 . S
C895 H911 0.960 . S
H896 C880 0.931 . S
H897 C885 0.929 . S
H898 C886 0.960 . S
H899 C886 0.962 . S
H900 C886 0.960 . S
H901 C887 0.961 . S
H902 C887 0.961 . S
H903 C887 0.961 . S
H904 C888 0.931 . S
H905 C893 0.930 . S
H906 C894 0.956 1_655 S
H907 C894 0.961 . S
H908 C894 0.961 . S
H909 C895 0.958 1_655 S
H910 C895 0.961 . S
H911 C895 0.960 . S
C912 C913 1.391 . S
C912 C914 1.394 . S
C912 H928 0.931 . S
C913 C912 1.391 . S
C913 C917 1.376 . S
C914 C912 1.394 . S
C914 C915 1.369 . S
C914 C918 1.531 1_455 S
C915 C914 1.369 . S
C915 C916 1.410 . S
C915 C923 1.503 1_455 S
C916 C915 1.410 . S
C916 C917 1.392 . S
C916 C919 1.511 . S
C917 C913 1.376 . S
C917 C916 1.392 . S
C917 H929 0.929 . S
C918 C914 1.531 1_655 S
C918 H930 0.960 . S
C918 H931 0.962 1_655 S
C918 H932 0.960 . S
C919 C916 1.511 . S
C919 H933 0.961 . S
C919 H934 0.961 . S
C919 H935 0.961 1_455 S
C920 C921 1.370 . S
C920 C922 1.363 1_655 S
C920 H936 0.931 . S
C921 C920 1.370 . S
C921 C925 1.408 . S
C922 C920 1.363 1_455 S
C922 C923 1.370 1_455 S
C922 C926 1.524 . S
C923 C915 1.503 1_655 S
C923 C922 1.370 1_655 S
C923 C924 1.403 . S
C924 C923 1.403 . S
C924 C925 1.404 . S
C924 C927 1.539 . S
C925 C921 1.408 . S
C925 C924 1.404 . S
C925 H937 0.930 . S
C926 C922 1.524 . S
C926 H938 0.956 . S
C926 H939 0.961 . S
C926 H940 0.961 . S
C927 C924 1.539 . S
C927 H941 0.958 . S
C927 H942 0.961 . S
C927 H943 0.960 . S
H928 C912 0.931 . S
H929 C917 0.929 . S
H930 C918 0.960 . S
H931 C918 0.962 1_455 S
H932 C918 0.960 . S
H933 C919 0.961 . S
H934 C919 0.961 . S
H935 C919 0.961 1_655 S
H936 C920 0.931 . S
H937 C925 0.930 . S
H938 C926 0.956 . S
H939 C926 0.961 . S
H940 C926 0.961 . S
H941 C927 0.958 . S
H942 C927 0.961 . S
H943 C927 0.960 . S
C944 C945 1.391 . S
C944 C946 1.394 . S
C944 H960 0.931 . S
C945 C944 1.391 . S
C945 C949 1.376 . S
C946 C944 1.394 . S
C946 C947 1.369 . S
C946 C950 1.531 1_565 S
C947 C946 1.369 . S
C947 C948 1.410 . S
C947 C955 1.503 1_565 S
C948 C947 1.410 . S
C948 C949 1.392 . S
C948 C951 1.511 . S
C949 C945 1.376 . S
C949 C948 1.392 . S
C949 H961 0.929 . S
C950 C946 1.531 1_545 S
C950 H962 0.960 . S
C950 H963 0.962 . S
C950 H964 0.960 . S
C951 C948 1.511 . S
C951 H965 0.961 . S
C951 H966 0.961 . S
C951 H967 0.961 . S
C952 C953 1.370 . S
C952 C954 1.363 . S
C952 H968 0.931 . S
C953 C952 1.370 . S
C953 C957 1.408 . S
C954 C952 1.363 . S
C954 C955 1.370 . S
C954 C958 1.524 . S
C955 C947 1.503 1_545 S
C955 C954 1.370 . S
C955 C956 1.403 1_545 S
C956 C955 1.403 1_565 S
C956 C957 1.404 1_565 S
C956 C959 1.539 . S
C957 C953 1.408 . S
C957 C956 1.404 1_545 S
C957 H969 0.930 . S
C958 C954 1.524 . S
C958 H970 0.956 . S
C958 H971 0.961 . S
C958 H972 0.961 . S
C959 C956 1.539 . S
C959 H973 0.958 . S
C959 H974 0.961 . S
C959 H975 0.960 . S
H960 C944 0.931 . S
H961 C949 0.929 . S
H962 C950 0.960 . S
H963 C950 0.962 . S
H964 C950 0.960 . S
H965 C951 0.961 . S
H966 C951 0.961 . S
H967 C951 0.961 . S
H968 C952 0.931 . S
H969 C957 0.930 . S
H970 C958 0.956 . S
H971 C958 0.961 . S
H972 C958 0.961 . S
H973 C959 0.958 . S
H974 C959 0.961 . S
H975 C959 0.960 . S
C976 C977 1.391 . S
C976 C978 1.394 . S
C976 H992 0.931 . S
C977 C976 1.391 . S
C977 C981 1.376 . S
C978 C976 1.394 . S
C978 C979 1.369 . S
C978 C982 1.531 . S
C979 C978 1.369 . S
C979 C980 1.410 . S
C979 C987 1.503 . S
C980 C979 1.410 . S
C980 C981 1.392 . S
C980 C983 1.511 . S
C981 C977 1.376 . S
C981 C980 1.392 . S
C981 H993 0.929 . S
C982 C978 1.531 . S
C982 H994 0.960 . S
C982 H995 0.962 . S
C982 H996 0.960 . S
C983 C980 1.511 . S
C983 H997 0.961 . S
C983 H998 0.961 . S
C983 H999 0.961 . S
C984 C985 1.370 . S
C984 C986 1.363 . S
C984 H1000 0.931 . S
C985 C984 1.370 . S
C985 C989 1.408 . S
C986 C984 1.363 . S
C986 C987 1.370 . S
C986 C990 1.524 . S
C987 C979 1.503 . S
C987 C986 1.370 . S
C987 C988 1.403 . S
C988 C987 1.403 . S
C988 C989 1.404 . S
C988 C991 1.539 . S
C989 C985 1.408 . S
C989 C988 1.404 . S
C989 H1001 0.930 . S
C990 C986 1.524 . S
C990 H1002 0.956 . S
C990 H1003 0.961 1_554 S
C990 H1004 0.961 1_554 S
C991 C988 1.539 . S
C991 H1005 0.958 . S
C991 H1006 0.961 . S
C991 H1007 0.960 . S
H992 C976 0.931 . S
H993 C981 0.929 . S
H994 C982 0.960 . S
H995 C982 0.962 . S
H996 C982 0.960 . S
H997 C983 0.961 . S
H998 C983 0.961 . S
H999 C983 0.961 . S
H1000 C984 0.931 . S
H1001 C989 0.930 . S
H1002 C990 0.956 . S
H1003 C990 0.961 1_556 S
H1004 C990 0.961 1_556 S
H1005 C991 0.958 . S
H1006 C991 0.961 . S
H1007 C991 0.960 . S
C1008 C1009 1.391 . S
C1008 C1010 1.394 . S
C1008 H1024 0.931 . S
C1009 C1008 1.391 . S
C1009 C1013 1.376 . S
C1010 C1008 1.394 . S
C1010 C1011 1.369 . S
C1010 C1014 1.531 . S
C1011 C1010 1.369 . S
C1011 C1012 1.410 . S
C1011 C1019 1.503 1_565 S
C1012 C1011 1.410 . S
C1012 C1013 1.392 . S
C1012 C1015 1.511 1_565 S
C1013 C1009 1.376 . S
C1013 C1012 1.392 . S
C1013 H1025 0.929 . S
C1014 C1010 1.531 . S
C1014 H1026 0.960 . S
C1014 H1027 0.962 . S
C1014 H1028 0.960 . S
C1015 C1012 1.511 1_545 S
C1015 H1029 0.961 . S
C1015 H1030 0.961 . S
C1015 H1031 0.961 . S
C1016 C1017 1.370 . S
C1016 C1018 1.363 . S
C1016 H1032 0.931 . S
C1017 C1016 1.370 . S
C1017 C1021 1.408 . S
C1018 C1016 1.363 . S
C1018 C1019 1.370 . S
C1018 C1022 1.524 . S
C1019 C1011 1.503 1_545 S
C1019 C1018 1.370 . S
C1019 C1020 1.403 . S
C1020 C1019 1.403 . S
C1020 C1021 1.404 . S
C1020 C1023 1.539 1_545 S
C1021 C1017 1.408 . S
C1021 C1020 1.404 . S
C1021 H1033 0.930 . S
C1022 C1018 1.524 . S
C1022 H1034 0.956 . S
C1022 H1035 0.961 . S
C1022 H1036 0.961 . S
C1023 C1020 1.539 1_565 S
C1023 H1037 0.958 . S
C1023 H1038 0.961 . S
C1023 H1039 0.960 . S
H1024 C1008 0.931 . S
H1025 C1013 0.929 . S
H1026 C1014 0.960 . S
H1027 C1014 0.962 . S
H1028 C1014 0.960 . S
H1029 C1015 0.961 . S
H1030 C1015 0.961 . S
H1031 C1015 0.961 . S
H1032 C1016 0.931 . S
H1033 C1021 0.930 . S
H1034 C1022 0.956 . S
H1035 C1022 0.961 . S
H1036 C1022 0.961 . S
H1037 C1023 0.958 . S
H1038 C1023 0.961 . S
H1039 C1023 0.960 . S
C1040 C1041 1.391 . S
C1040 C1042 1.394 . S
C1040 H1056 0.931 . S
C1041 C1040 1.391 . S
C1041 C1045 1.376 . S
C1042 C1040 1.394 . S
C1042 C1043 1.369 . S
C1042 C1046 1.531 . S
C1043 C1042 1.369 . S
C1043 C1044 1.410 . S
C1043 C1051 1.503 . S
C1044 C1043 1.410 . S
C1044 C1045 1.392 . S
C1044 C1047 1.511 . S
C1045 C1041 1.376 . S
C1045 C1044 1.392 . S
C1045 H1057 0.929 . S
C1046 C1042 1.531 . S
C1046 H1058 0.960 . S
C1046 H1059 0.962 . S
C1046 H1060 0.960 . S
C1047 C1044 1.511 . S
C1047 H1061 0.961 . S
C1047 H1062 0.961 . S
C1047 H1063 0.961 . S
C1048 C1049 1.370 . S
C1048 C1050 1.363 . S
C1048 H1064 0.931 . S
C1049 C1048 1.370 . S
C1049 C1053 1.408 . S
C1050 C1048 1.363 . S
C1050 C1051 1.370 . S
C1050 C1054 1.524 . S
C1051 C1043 1.503 . S
C1051 C1050 1.370 . S
C1051 C1052 1.403 . S
C1052 C1051 1.403 . S
C1052 C1053 1.404 . S
C1052 C1055 1.539 . S
C1053 C1049 1.408 . S
C1053 C1052 1.404 . S
C1053 H1065 0.930 . S
C1054 C1050 1.524 . S
C1054 H1066 0.956 . S
C1054 H1067 0.961 . S
C1054 H1068 0.961 . S
C1055 C1052 1.539 . S
C1055 H1069 0.958 . S
C1055 H1070 0.961 . S
C1055 H1071 0.960 . S
H1056 C1040 0.931 . S
H1057 C1045 0.929 . S
H1058 C1046 0.960 . S
H1059 C1046 0.962 . S
H1060 C1046 0.960 . S
H1061 C1047 0.961 . S
H1062 C1047 0.961 . S
H1063 C1047 0.961 . S
H1064 C1048 0.931 . S
H1065 C1053 0.930 . S
H1066 C1054 0.956 . S
H1067 C1054 0.961 . S
H1068 C1054 0.961 . S
H1069 C1055 0.958 . S
H1070 C1055 0.961 . S
H1071 C1055 0.960 . S
C1072 C1073 1.391 . S
C1072 C1074 1.394 . S
C1072 H1088 0.931 . S
C1073 C1072 1.391 . S
C1073 C1077 1.376 . S
C1074 C1072 1.394 . S
C1074 C1075 1.369 . S
C1074 C1078 1.531 1_655 S
C1075 C1074 1.369 . S
C1075 C1076 1.410 . S
C1075 C1083 1.503 1_655 S
C1076 C1075 1.410 . S
C1076 C1077 1.392 . S
C1076 C1079 1.511 . S
C1077 C1073 1.376 . S
C1077 C1076 1.392 . S
C1077 H1089 0.929 . S
C1078 C1074 1.531 1_455 S
C1078 H1090 0.960 . S
C1078 H1091 0.962 . S
C1078 H1092 0.960 . S
C1079 C1076 1.511 . S
C1079 H1093 0.961 . S
C1079 H1094 0.961 . S
C1079 H1095 0.961 . S
C1080 C1081 1.370 . S
C1080 C1082 1.363 . S
C1080 H1096 0.931 . S
C1081 C1080 1.370 . S
C1081 C1085 1.408 . S
C1082 C1080 1.363 . S
C1082 C1083 1.370 . S
C1082 C1086 1.524 . S
C1083 C1075 1.503 1_455 S
C1083 C1082 1.370 . S
C1083 C1084 1.403 . S
C1084 C1083 1.403 . S
C1084 C1085 1.404 . S
C1084 C1087 1.539 1_455 S
C1085 C1081 1.408 . S
C1085 C1084 1.404 . S
C1085 H1097 0.930 . S
C1086 C1082 1.524 . S
C1086 H1098 0.956 . S
C1086 H1099 0.961 . S
C1086 H1100 0.961 . S
C1087 C1084 1.539 1_655 S
C1087 H1101 0.958 . S
C1087 H1102 0.961 . S
C1087 H1103 0.960 . S
H1088 C1072 0.931 . S
H1089 C1077 0.929 . S
H1090 C1078 0.960 . S
H1091 C1078 0.962 . S
H1092 C1078 0.960 . S
H1093 C1079 0.961 . S
H1094 C1079 0.961 . S
H1095 C1079 0.961 . S
H1096 C1080 0.931 . S
H1097 C1085 0.930 . S
H1098 C1086 0.956 . S
H1099 C1086 0.961 . S
H1100 C1086 0.961 . S
H1101 C1087 0.958 . S
H1102 C1087 0.961 . S
H1103 C1087 0.960 . S
C1104 C1105 1.391 . S
C1104 C1106 1.394 1_545 S
C1104 H1120 0.931 . S
C1105 C1104 1.391 . S
C1105 C1109 1.376 . S
C1106 C1104 1.394 1_565 S
C1106 C1107 1.369 1_565 S
C1106 C1110 1.531 . S
C1107 C1106 1.369 1_545 S
C1107 C1108 1.410 . S
C1107 C1115 1.503 1_545 S
C1108 C1107 1.410 . S
C1108 C1109 1.392 . S
C1108 C1111 1.511 . S
C1109 C1105 1.376 . S
C1109 C1108 1.392 . S
C1109 H1121 0.929 . S
C1110 C1106 1.531 . S
C1110 H1122 0.960 . S
C1110 H1123 0.962 . S
C1110 H1124 0.960 . S
C1111 C1108 1.511 . S
C1111 H1125 0.961 . S
C1111 H1126 0.961 . S
C1111 H1127 0.961 . S
C1112 C1113 1.370 . S
C1112 C1114 1.363 . S
C1112 H1128 0.931 . S
C1113 C1112 1.370 . S
C1113 C1117 1.408 . S
C1114 C1112 1.363 . S
C1114 C1115 1.370 . S
C1114 C1118 1.524 1_565 S
C1115 C1107 1.503 1_565 S
C1115 C1114 1.370 . S
C1115 C1116 1.403 . S
C1116 C1115 1.403 . S
C1116 C1117 1.404 . S
C1116 C1119 1.539 . S
C1117 C1113 1.408 . S
C1117 C1116 1.404 . S
C1117 H1129 0.930 . S
C1118 C1114 1.524 1_545 S
C1118 H1130 0.956 . S
C1118 H1131 0.961 . S
C1118 H1132 0.961 . S
C1119 C1116 1.539 . S
C1119 H1133 0.958 . S
C1119 H1134 0.961 . S
C1119 H1135 0.960 . S
H1120 C1104 0.931 . S
H1121 C1109 0.929 . S
H1122 C1110 0.960 . S
H1123 C1110 0.962 . S
H1124 C1110 0.960 . S
H1125 C1111 0.961 . S
H1126 C1111 0.961 . S
H1127 C1111 0.961 . S
H1128 C1112 0.931 . S
H1129 C1117 0.930 . S
H1130 C1118 0.956 . S
H1131 C1118 0.961 . S
H1132 C1118 0.961 . S
H1133 C1119 0.958 . S
H1134 C1119 0.961 . S
H1135 C1119 0.960 . S
C1136 C1137 1.391 . S
C1136 C1138 1.394 . S
C1136 H1152 0.931 . S
C1137 C1136 1.391 . S
C1137 C1141 1.376 . S
C1138 C1136 1.394 . S
C1138 C1139 1.369 . S
C1138 C1142 1.531 . S
C1139 C1138 1.369 . S
C1139 C1140 1.410 . S
C1139 C1147 1.503 . S
C1140 C1139 1.410 . S
C1140 C1141 1.392 . S
C1140 C1143 1.511 . S
C1141 C1137 1.376 . S
C1141 C1140 1.392 . S
C1141 H1153 0.929 . S
C1142 C1138 1.531 . S
C1142 H1154 0.960 . S
C1142 H1155 0.962 . S
C1142 H1156 0.960 . S
C1143 C1140 1.511 . S
C1143 H1157 0.961 . S
C1143 H1158 0.961 . S
C1143 H1159 0.961 . S
C1144 C1145 1.370 . S
C1144 C1146 1.363 . S
C1144 H1160 0.931 . S
C1145 C1144 1.370 . S
C1145 C1149 1.408 . S
C1146 C1144 1.363 . S
C1146 C1147 1.370 . S
C1146 C1150 1.524 . S
C1147 C1139 1.503 . S
C1147 C1146 1.370 . S
C1147 C1148 1.403 . S
C1148 C1147 1.403 . S
C1148 C1149 1.404 . S
C1148 C1151 1.539 . S
C1149 C1145 1.408 . S
C1149 C1148 1.404 . S
C1149 H1161 0.930 . S
C1150 C1146 1.524 . S
C1150 H1162 0.956 . S
C1150 H1163 0.961 . S
C1150 H1164 0.961 . S
C1151 C1148 1.539 . S
C1151 H1165 0.958 . S
C1151 H1166 0.961 . S
C1151 H1167 0.960 . S
H1152 C1136 0.931 . S
H1153 C1141 0.929 . S
H1154 C1142 0.960 . S
H1155 C1142 0.962 . S
H1156 C1142 0.960 . S
H1157 C1143 0.961 . S
H1158 C1143 0.961 . S
H1159 C1143 0.961 . S
H1160 C1144 0.931 . S
H1161 C1149 0.930 . S
H1162 C1150 0.956 . S
H1163 C1150 0.961 . S
H1164 C1150 0.961 . S
H1165 C1151 0.958 . S
H1166 C1151 0.961 . S
H1167 C1151 0.960 . S
C1168 C1169 1.391 . S
C1168 C1170 1.394 1_455 S
C1168 H1184 0.931 . S
C1169 C1168 1.391 . S
C1169 C1173 1.376 . S
C1170 C1168 1.394 1_655 S
C1170 C1171 1.369 1_655 S
C1170 C1174 1.531 . S
C1171 C1170 1.369 1_455 S
C1171 C1172 1.410 . S
C1171 C1179 1.503 1_455 S
C1172 C1171 1.410 . S
C1172 C1173 1.392 . S
C1172 C1175 1.511 . S
C1173 C1169 1.376 . S
C1173 C1172 1.392 . S
C1173 H1185 0.929 . S
C1174 C1170 1.531 . S
C1174 H1186 0.960 . S
C1174 H1187 0.962 . S
C1174 H1188 0.960 . S
C1175 C1172 1.511 . S
C1175 H1189 0.961 . S
C1175 H1190 0.961 . S
C1175 H1191 0.961 . S
C1176 C1177 1.370 . S
C1176 C1178 1.363 . S
C1176 H1192 0.931 . S
C1177 C1176 1.370 . S
C1177 C1181 1.408 . S
C1178 C1176 1.363 . S
C1178 C1179 1.370 . S
C1178 C1182 1.524 1_655 S
C1179 C1171 1.503 1_655 S
C1179 C1178 1.370 . S
C1179 C1180 1.403 . S
C1180 C1179 1.403 . S
C1180 C1181 1.404 . S
C1180 C1183 1.539 . S
C1181 C1177 1.408 . S
C1181 C1180 1.404 . S
C1181 H1193 0.930 . S
C1182 C1178 1.524 1_455 S
C1182 H1194 0.956 1_455 S
C1182 H1195 0.961 . S
C1182 H1196 0.961 1_455 S
C1183 C1180 1.539 . S
C1183 H1197 0.958 . S
C1183 H1198 0.961 . S
C1183 H1199 0.960 . S
H1184 C1168 0.931 . S
H1185 C1173 0.929 . S
H1186 C1174 0.960 . S
H1187 C1174 0.962 . S
H1188 C1174 0.960 . S
H1189 C1175 0.961 . S
H1190 C1175 0.961 . S
H1191 C1175 0.961 . S
H1192 C1176 0.931 . S
H1193 C1181 0.930 . S
H1194 C1182 0.956 1_655 S
H1195 C1182 0.961 . S
H1196 C1182 0.961 1_655 S
H1197 C1183 0.958 . S
H1198 C1183 0.961 . S
H1199 C1183 0.960 . S
C1200 C1201 1.391 . S
C1200 C1202 1.394 . S
C1200 H1216 0.931 . S
C1201 C1200 1.391 . S
C1201 C1205 1.376 . S
C1202 C1200 1.394 . S
C1202 C1203 1.369 . S
C1202 C1206 1.531 . S
C1203 C1202 1.369 . S
C1203 C1204 1.410 . S
C1203 C1211 1.503 . S
C1204 C1203 1.410 . S
C1204 C1205 1.392 . S
C1204 C1207 1.511 . S
C1205 C1201 1.376 . S
C1205 C1204 1.392 . S
C1205 H1217 0.929 . S
C1206 C1202 1.531 . S
C1206 H1218 0.960 . S
C1206 H1219 0.962 . S
C1206 H1220 0.960 . S
C1207 C1204 1.511 . S
C1207 H1221 0.961 . S
C1207 H1222 0.961 . S
C1207 H1223 0.961 . S
C1208 C1209 1.370 . S
C1208 C1210 1.363 . S
C1208 H1224 0.931 . S
C1209 C1208 1.370 . S
C1209 C1213 1.408 . S
C1210 C1208 1.363 . S
C1210 C1211 1.370 . S
C1210 C1214 1.524 . S
C1211 C1203 1.503 . S
C1211 C1210 1.370 . S
C1211 C1212 1.403 . S
C1212 C1211 1.403 . S
C1212 C1213 1.404 . S
C1212 C1215 1.539 . S
C1213 C1209 1.408 . S
C1213 C1212 1.404 . S
C1213 H1225 0.930 . S
C1214 C1210 1.524 . S
C1214 H1226 0.956 . S
C1214 H1227 0.961 . S
C1214 H1228 0.961 . S
C1215 C1212 1.539 . S
C1215 H1229 0.958 . S
C1215 H1230 0.961 . S
C1215 H1231 0.960 . S
H1216 C1200 0.931 . S
H1217 C1205 0.929 . S
H1218 C1206 0.960 . S
H1219 C1206 0.962 . S
H1220 C1206 0.960 . S
H1221 C1207 0.961 . S
H1222 C1207 0.961 . S
H1223 C1207 0.961 . S
H1224 C1208 0.931 . S
H1225 C1213 0.930 . S
H1226 C1214 0.956 . S
H1227 C1214 0.961 . S
H1228 C1214 0.961 . S
H1229 C1215 0.958 . S
H1230 C1215 0.961 . S
H1231 C1215 0.960 . S
C1232 C1233 1.391 . S
C1232 C1234 1.394 . S
C1232 H1248 0.931 . S
C1233 C1232 1.391 . S
C1233 C1237 1.376 . S
C1234 C1232 1.394 . S
C1234 C1235 1.369 . S
C1234 C1238 1.531 . S
C1235 C1234 1.369 . S
C1235 C1236 1.410 . S
C1235 C1243 1.503 . S
C1236 C1235 1.410 . S
C1236 C1237 1.392 . S
C1236 C1239 1.511 . S
C1237 C1233 1.376 . S
C1237 C1236 1.392 . S
C1237 H1249 0.929 . S
C1238 C1234 1.531 . S
C1238 H1250 0.960 . S
C1238 H1251 0.962 . S
C1238 H1252 0.960 . S
C1239 C1236 1.511 . S
C1239 H1253 0.961 . S
C1239 H1254 0.961 . S
C1239 H1255 0.961 . S
C1240 C1241 1.370 . S
C1240 C1242 1.363 . S
C1240 H1256 0.931 . S
C1241 C1240 1.370 . S
C1241 C1245 1.408 . S
C1242 C1240 1.363 . S
C1242 C1243 1.370 . S
C1242 C1246 1.524 . S
C1243 C1235 1.503 . S
C1243 C1242 1.370 . S
C1243 C1244 1.403 . S
C1244 C1243 1.403 . S
C1244 C1245 1.404 . S
C1244 C1247 1.539 . S
C1245 C1241 1.408 . S
C1245 C1244 1.404 . S
C1245 H1257 0.930 . S
C1246 C1242 1.524 . S
C1246 H1258 0.956 . S
C1246 H1259 0.961 . S
C1246 H1260 0.961 . S
C1247 C1244 1.539 . S
C1247 H1261 0.958 . S
C1247 H1262 0.961 . S
C1247 H1263 0.960 . S
H1248 C1232 0.931 . S
H1249 C1237 0.929 . S
H1250 C1238 0.960 . S
H1251 C1238 0.962 . S
H1252 C1238 0.960 . S
H1253 C1239 0.961 . S
H1254 C1239 0.961 . S
H1255 C1239 0.961 . S
H1256 C1240 0.931 . S
H1257 C1245 0.930 . S
H1258 C1246 0.956 . S
H1259 C1246 0.961 . S
H1260 C1246 0.961 . S
H1261 C1247 0.958 . S
H1262 C1247 0.961 . S
H1263 C1247 0.960 . S
C1264 C1265 1.391 . S
C1264 C1266 1.394 . S
C1264 H1280 0.931 . S
C1265 C1264 1.391 . S
C1265 C1269 1.376 . S
C1266 C1264 1.394 . S
C1266 C1267 1.369 . S
C1266 C1270 1.531 . S
C1267 C1266 1.369 . S
C1267 C1268 1.410 . S
C1267 C1275 1.503 . S
C1268 C1267 1.410 . S
C1268 C1269 1.392 . S
C1268 C1271 1.511 . S
C1269 C1265 1.376 . S
C1269 C1268 1.392 . S
C1269 H1281 0.929 . S
C1270 C1266 1.531 . S
C1270 H1282 0.960 . S
C1270 H1283 0.962 . S
C1270 H1284 0.960 . S
C1271 C1268 1.511 . S
C1271 H1285 0.961 . S
C1271 H1286 0.961 . S
C1271 H1287 0.961 . S
C1272 C1273 1.370 . S
C1272 C1274 1.363 . S
C1272 H1288 0.931 . S
C1273 C1272 1.370 . S
C1273 C1277 1.408 . S
C1274 C1272 1.363 . S
C1274 C1275 1.370 . S
C1274 C1278 1.524 . S
C1275 C1267 1.503 . S
C1275 C1274 1.370 . S
C1275 C1276 1.403 . S
C1276 C1275 1.403 . S
C1276 C1277 1.404 . S
C1276 C1279 1.539 . S
C1277 C1273 1.408 . S
C1277 C1276 1.404 . S
C1277 H1289 0.930 . S
C1278 C1274 1.524 . S
C1278 H1290 0.956 . S
C1278 H1291 0.961 . S
C1278 H1292 0.961 . S
C1279 C1276 1.539 . S
C1279 H1293 0.958 . S
C1279 H1294 0.961 . S
C1279 H1295 0.960 . S
H1280 C1264 0.931 . S
H1281 C1269 0.929 . S
H1282 C1270 0.960 . S
H1283 C1270 0.962 . S
H1284 C1270 0.960 . S
H1285 C1271 0.961 . S
H1286 C1271 0.961 . S
H1287 C1271 0.961 . S
H1288 C1272 0.931 . S
H1289 C1277 0.930 . S
H1290 C1278 0.956 . S
H1291 C1278 0.961 . S
H1292 C1278 0.961 . S
H1293 C1279 0.958 . S
H1294 C1279 0.961 . S
H1295 C1279 0.960 . S
C1296 C1297 1.391 . S
C1296 C1298 1.394 . S
C1296 H1312 0.931 . S
C1297 C1296 1.391 . S
C1297 C1301 1.376 . S
C1298 C1296 1.394 . S
C1298 C1299 1.369 . S
C1298 C1302 1.531 . S
C1299 C1298 1.369 . S
C1299 C1300 1.410 . S
C1299 C1307 1.503 . S
C1300 C1299 1.410 . S
C1300 C1301 1.392 . S
C1300 C1303 1.511 . S
C1301 C1297 1.376 . S
C1301 C1300 1.392 . S
C1301 H1313 0.929 . S
C1302 C1298 1.531 . S
C1302 H1314 0.960 . S
C1302 H1315 0.962 . S
C1302 H1316 0.960 . S
C1303 C1300 1.511 . S
C1303 H1317 0.961 . S
C1303 H1318 0.961 . S
C1303 H1319 0.961 . S
C1304 C1305 1.370 . S
C1304 C1306 1.363 . S
C1304 H1320 0.931 . S
C1305 C1304 1.370 . S
C1305 C1309 1.408 . S
C1306 C1304 1.363 . S
C1306 C1307 1.370 . S
C1306 C1310 1.524 . S
C1307 C1299 1.503 . S
C1307 C1306 1.370 . S
C1307 C1308 1.403 . S
C1308 C1307 1.403 . S
C1308 C1309 1.404 . S
C1308 C1311 1.539 . S
C1309 C1305 1.408 . S
C1309 C1308 1.404 . S
C1309 H1321 0.930 . S
C1310 C1306 1.524 . S
C1310 H1322 0.956 . S
C1310 H1323 0.961 . S
C1310 H1324 0.961 . S
C1311 C1308 1.539 . S
C1311 H1325 0.958 . S
C1311 H1326 0.961 . S
C1311 H1327 0.960 . S
H1312 C1296 0.931 . S
H1313 C1301 0.929 . S
H1314 C1302 0.960 . S
H1315 C1302 0.962 . S
H1316 C1302 0.960 . S
H1317 C1303 0.961 . S
H1318 C1303 0.961 . S
H1319 C1303 0.961 . S
H1320 C1304 0.931 . S
H1321 C1309 0.930 . S
H1322 C1310 0.956 . S
H1323 C1310 0.961 . S
H1324 C1310 0.961 . S
H1325 C1311 0.958 . S
H1326 C1311 0.961 . S
H1327 C1311 0.960 . S
C1328 C1329 1.391 . S
C1328 C1330 1.394 . S
C1328 H1344 0.931 . S
C1329 C1328 1.391 . S
C1329 C1333 1.376 . S
C1330 C1328 1.394 . S
C1330 C1331 1.369 . S
C1330 C1334 1.531 . S
C1331 C1330 1.369 . S
C1331 C1332 1.410 . S
C1331 C1339 1.503 . S
C1332 C1331 1.410 . S
C1332 C1333 1.392 . S
C1332 C1335 1.511 . S
C1333 C1329 1.376 . S
C1333 C1332 1.392 . S
C1333 H1345 0.929 . S
C1334 C1330 1.531 . S
C1334 H1346 0.960 . S
C1334 H1347 0.962 . S
C1334 H1348 0.960 . S
C1335 C1332 1.511 . S
C1335 H1349 0.961 . S
C1335 H1350 0.961 . S
C1335 H1351 0.961 . S
C1336 C1337 1.370 . S
C1336 C1338 1.363 . S
C1336 H1352 0.931 . S
C1337 C1336 1.370 . S
C1337 C1341 1.408 . S
C1338 C1336 1.363 . S
C1338 C1339 1.370 . S
C1338 C1342 1.524 . S
C1339 C1331 1.503 . S
C1339 C1338 1.370 . S
C1339 C1340 1.403 . S
C1340 C1339 1.403 . S
C1340 C1341 1.404 . S
C1340 C1343 1.539 . S
C1341 C1337 1.408 . S
C1341 C1340 1.404 . S
C1341 H1353 0.930 . S
C1342 C1338 1.524 . S
C1342 H1354 0.956 . S
C1342 H1355 0.961 . S
C1342 H1356 0.961 . S
C1343 C1340 1.539 . S
C1343 H1357 0.958 . S
C1343 H1358 0.961 . S
C1343 H1359 0.960 . S
H1344 C1328 0.931 . S
H1345 C1333 0.929 . S
H1346 C1334 0.960 . S
H1347 C1334 0.962 . S
H1348 C1334 0.960 . S
H1349 C1335 0.961 . S
H1350 C1335 0.961 . S
H1351 C1335 0.961 . S
H1352 C1336 0.931 . S
H1353 C1341 0.930 . S
H1354 C1342 0.956 . S
H1355 C1342 0.961 . S
H1356 C1342 0.961 . S
H1357 C1343 0.958 . S
H1358 C1343 0.961 . S
H1359 C1343 0.960 . S
C1360 C1361 1.391 . S
C1360 C1362 1.394 . S
C1360 H1376 0.931 . S
C1361 C1360 1.391 . S
C1361 C1365 1.376 . S
C1362 C1360 1.394 . S
C1362 C1363 1.369 . S
C1362 C1366 1.531 . S
C1363 C1362 1.369 . S
C1363 C1364 1.410 . S
C1363 C1371 1.503 . S
C1364 C1363 1.410 . S
C1364 C1365 1.392 . S
C1364 C1367 1.511 . S
C1365 C1361 1.376 . S
C1365 C1364 1.392 . S
C1365 H1377 0.929 . S
C1366 C1362 1.531 . S
C1366 H1378 0.960 . S
C1366 H1379 0.962 . S
C1366 H1380 0.960 . S
C1367 C1364 1.511 . S
C1367 H1381 0.961 . S
C1367 H1382 0.961 . S
C1367 H1383 0.961 . S
C1368 C1369 1.370 . S
C1368 C1370 1.363 . S
C1368 H1384 0.931 . S
C1369 C1368 1.370 . S
C1369 C1373 1.408 . S
C1370 C1368 1.363 . S
C1370 C1371 1.370 . S
C1370 C1374 1.524 . S
C1371 C1363 1.503 . S
C1371 C1370 1.370 . S
C1371 C1372 1.403 . S
C1372 C1371 1.403 . S
C1372 C1373 1.404 . S
C1372 C1375 1.539 . S
C1373 C1369 1.408 . S
C1373 C1372 1.404 . S
C1373 H1385 0.930 . S
C1374 C1370 1.524 . S
C1374 H1386 0.956 . S
C1374 H1387 0.961 . S
C1374 H1388 0.961 . S
C1375 C1372 1.539 . S
C1375 H1389 0.958 . S
C1375 H1390 0.961 . S
C1375 H1391 0.960 . S
H1376 C1360 0.931 . S
H1377 C1365 0.929 . S
H1378 C1366 0.960 . S
H1379 C1366 0.962 . S
H1380 C1366 0.960 . S
H1381 C1367 0.961 . S
H1382 C1367 0.961 . S
H1383 C1367 0.961 . S
H1384 C1368 0.931 . S
H1385 C1373 0.930 . S
H1386 C1374 0.956 . S
H1387 C1374 0.961 . S
H1388 C1374 0.961 . S
H1389 C1375 0.958 . S
H1390 C1375 0.961 . S
H1391 C1375 0.960 . S
C241 C8 1.222 . S
C249 C168 1.228 . S
C273 C28 1.245 . S
C281 C188 1.232 . S
C305 C48 1.213 . S
C313 C208 1.231 . S
C337 C228 1.249 . S
C345 C68 1.247 . S
C369 C88 1.217 . S
C377 C128 1.229 . S
C401 C148 1.257 . S
C409 C108 1.245 . S
C433 C201 0.636 . S
C441 C1 0.590 . S
C465 C221 0.550 . S
C473 C21 0.614 . S
C497 C41 0.514 . S
C505 C121 0.596 . S
C529 C141 0.651 . S
C537 C61 0.559 . S
C561 C161 0.654 . S
C569 C81 0.573 . S
C593 C101 0.656 . S
C601 C181 0.568 . S
C625 C159 2.114 . S
C633 C19 2.141 . S
C657 C179 2.134 . S
C665 C39 2.151 . S
C689 C199 2.126 . S
C697 C59 2.133 . S
C721 C79 2.144 . S
C729 C219 2.133 . S
C753 C99 2.131 . S
C761 C239 2.133 . S
C785 C119 2.115 . S
C793 C139 2.143 . S
C817 C9 0.906 . S
C825 C69 0.857 . S
C849 C29 0.828 . S
C857 C89 0.882 . S
C881 C49 0.894 . S
C889 C109 0.863 . S
C913 C189 0.927 . S
C921 C129 0.823 . S
C945 C149 0.791 . S
C953 C209 0.874 . S
C977 C229 0.807 . S
C985 C169 0.860 . S
C1009 C142 0.977 . S
C1017 C2 0.940 . S
C1041 C162 0.980 . S
C1049 C22 0.927 . S
C1073 C42 0.952 . S
C1081 C182 0.928 . S
C1105 C202 0.913 . S
C1113 C62 0.942 . S
C1137 C222 0.917 . S
C1145 C82 0.961 . S
C1169 C102 0.921 . S
C1177 C122 0.938 . S
C1201 C18 2.538 . S
C1209 C218 2.546 . S
C1233 C38 2.545 . S
C1241 C238 2.551 1_556 S
C1265 C58 2.541 1_554 S
C1273 C138 2.551 . S
C1297 C78 2.537 . S
C1305 C158 2.548 . S
C1329 C98 2.538 . S
C1337 C178 2.549 1_556 S
C1361 C198 2.538 . S
C1369 C118 2.546 1_554 S
