# Generated by pormake.
# Topology lvt, (4)-cn, num edge types: 1
# Building blocks:
#     Node 0, Type 0, BuildingBlock: NAWXER_clean_sbu_0, # of connection points: 4
#     Node 1, Type 0, BuildingBlock: NAWXER_clean_sbu_0, # of connection points: 4
#     Node 2, Type 0, BuildingBlock: NAWXER_clean_sbu_0, # of connection points: 4
#     Node 3, Type 0, BuildingBlock: NAWXER_clean_sbu_0, # of connection points: 4
#     Node 4, Type 0, BuildingBlock: NAWXER_clean_sbu_0, # of connection points: 4
#     Node 5, Type 0, BuildingBlock: NAWXER_clean_sbu_0, # of connection points: 4
#     Node 6, Type 0, BuildingBlock: NAWXER_clean_sbu_0, # of connection points: 4
#     Node 7, Type 0, BuildingBlock: NAWXER_clean_sbu_0, # of connection points: 4
#     Edge 8, Type (0, 0), BuildingBlock: EZIPEK_clean_linker_0, # of connection points: 2
#     Edge 9, Type (0, 0), BuildingBlock: EZIPEK_clean_linker_0, # of connection points: 2
#     Edge 10, Type (0, 0), BuildingBlock: EZIPEK_clean_linker_0, # of connection points: 2
#     Edge 11, Type (0, 0), BuildingBlock: EZIPEK_clean_linker_0, # of connection points: 2
#     Edge 12, Type (0, 0), BuildingBlock: EZIPEK_clean_linker_0, # of connection points: 2
#     Edge 13, Type (0, 0), BuildingBlock: EZIPEK_clean_linker_0, # of connection points: 2
#     Edge 14, Type (0, 0), BuildingBlock: EZIPEK_clean_linker_0, # of connection points: 2
#     Edge 15, Type (0, 0), BuildingBlock: EZIPEK_clean_linker_0, # of connection points: 2
#     Edge 16, Type (0, 0), BuildingBlock: EZIPEK_clean_linker_0, # of connection points: 2
#     Edge 17, Type (0, 0), BuildingBlock: EZIPEK_clean_linker_0, # of connection points: 2
#     Edge 18, Type (0, 0), BuildingBlock: EZIPEK_clean_linker_0, # of connection points: 2
#     Edge 19, Type (0, 0), BuildingBlock: EZIPEK_clean_linker_0, # of connection points: 2
#     Edge 20, Type (0, 0), BuildingBlock: EZIPEK_clean_linker_0, # of connection points: 2
#     Edge 21, Type (0, 0), BuildingBlock: EZIPEK_clean_linker_0, # of connection points: 2
#     Edge 22, Type (0, 0), BuildingBlock: EZIPEK_clean_linker_0, # of connection points: 2
#     Edge 23, Type (0, 0), BuildingBlock: EZIPEK_clean_linker_0, # of connection points: 2
# Relax obj value: 0.000
# Max RMSD: 0.000
# Mean RMSD: 0.000
data_MOF--net-lvt--node1-NAWXER_clean_sbu_0--edge1-EZIPEK_clean_linker_0
_symmetry_space_group_name_H-M    P1
_symmetry_Int_Tables_number       1
_symmetry_cell_setting            triclinic
loop_
_symmetry_equiv_pos_as_xyz
'x, y, z'
_cell_length_a     28.02991
_cell_length_b     27.354554
_cell_length_c     15.910715
_cell_angle_alpha  89.800719
_cell_angle_beta   90.133727
_cell_angle_gamma 90.266896
loop_
_atom_site_label
_atom_site_type_symbol
_atom_site_fract_x
_atom_site_fract_y
_atom_site_fract_z
_atom_type_partial_charge
C0 C 0.93786 0.94755 0.46927 0.0
C1 C 0.06409 0.06091 0.36523 0.0
O2 O 0.95415 0.94761 0.39439 0.0
Zn3 Zn 0.99868 1.00274 0.40619 0.0
O4 O 0.95324 0.97946 0.52186 0.0
Zn5 Zn 1.00123 0.04031 0.52741 0.0
O6 O 0.95975 0.09874 0.53663 0.0
O7 O 0.9496 0.06067 0.41692 0.0
O8 O 0.04932 0.06667 0.43998 0.0
O9 O 0.04395 0.0288 0.3189 0.0
O10 O 0.04903 0.97399 0.4929 0.0
O11 O 0.05115 1.01939 0.60659 0.0
C12 C 0.93842 0.09567 0.46591 0.0
C13 C 0.06827 0.98422 0.56368 0.0
C14 C 0.22306 0.85648 0.66328 0.0
C15 C 0.31834 0.72095 0.79375 0.0
O16 O 0.25704 0.83609 0.62303 0.0
Zn17 Zn 0.2765 0.78869 0.71226 0.0
O18 O 0.21405 0.84254 0.73802 0.0
Zn19 Zn 0.23501 0.79587 0.83331 0.0
O20 O 0.26621 0.84334 0.91308 0.0
O21 O 0.30556 0.83816 0.7939 0.0
O22 O 0.28411 0.7395 0.83486 0.0
O23 O 0.32759 0.73795 0.72044 0.0
O24 O 0.21493 0.7458 0.72044 0.0
O25 O 0.17585 0.75617 0.8401 0.0
C26 C 0.30106 0.8567 0.86643 0.0
C27 C 0.17962 0.73587 0.76803 0.0
C28 C 0.46072 0.98915 0.90523 0.0
C29 C 0.58602 0.11386 0.96252 0.0
O30 O 0.4771 1.01791 0.8486 0.0
Zn31 Zn 0.52628 0.0513 0.91906 0.0
O32 O 0.47942 0.98895 0.97808 0.0
Zn33 Zn 0.53183 1.02308 0.04952 0.0
O34 O 0.48677 0.05153 0.13166 0.0
O35 O 0.47946 0.08286 0.00381 0.0
O36 O 0.57646 0.0841 0.02248 0.0
O37 O 0.56566 0.10887 0.89114 0.0
O38 O 0.57803 0.9968 0.93507 0.0
O39 O 0.57638 0.96695 0.06309 0.0
C40 C 0.46598 0.08042 0.07998 0.0
C41 C 0.59333 0.96575 0.98871 0.0
C42 C 0.30781 0.20316 0.13738 0.0
C43 C 0.20947 0.32413 0.29261 0.0
O44 O 0.27602 0.22816 0.09881 0.0
Zn45 Zn 0.25422 0.2653 0.19879 0.0
O46 O 0.31471 0.20885 0.2157 0.0
Zn47 Zn 0.29299 0.24728 0.31988 0.0
O48 O 0.26488 0.19196 0.38421 0.0
O49 O 0.22388 0.20892 0.26856 0.0
O50 O 0.23878 0.29822 0.33452 0.0
O51 O 0.20719 0.3185 0.2129 0.0
O52 O 0.31533 0.30521 0.21698 0.0
O53 O 0.35241 0.28832 0.33566 0.0
C54 C 0.22974 0.18336 0.3348 0.0
C55 C 0.35025 0.31223 0.26646 0.0
C56 C 0.68672 0.36772 0.27073 0.0
C57 C 0.7965 0.23453 0.33665 0.0
O58 O 0.71564 0.35931 0.21006 0.0
Zn59 Zn 0.77215 0.30811 0.18235 0.0
O60 O 0.68714 0.34027 0.3353 0.0
Zn61 Zn 0.73757 0.29751 0.29804 0.0
O62 O 0.79717 0.3491 0.29675 0.0
O63 O 0.82448 0.35311 0.16637 0.0
O64 O 0.7593 0.24724 0.37613 0.0
O65 O 0.80487 0.25392 0.2644 0.0
O66 O 0.75018 0.27299 0.08386 0.0
O67 O 0.70561 0.25714 0.19461 0.0
C68 C 0.82614 0.36721 0.24233 0.0
C69 C 0.7147 0.25115 0.11623 0.0
C70 C 0.83605 0.69038 0.75989 0.0
C71 C 0.72924 0.82251 0.85479 0.0
O72 O 0.80233 0.70178 0.70913 0.0
Zn73 Zn 0.74684 0.75428 0.69367 0.0
O74 O 0.84232 0.71619 0.82556 0.0
Zn75 Zn 0.78774 0.75994 0.80599 0.0
O76 O 0.7291 0.7065 0.80624 0.0
O77 O 0.69454 0.70948 0.68062 0.0
O78 O 0.76796 0.80902 0.88947 0.0
O79 O 0.71795 0.80381 0.78368 0.0
O80 O 0.76679 0.79404 0.597 0.0
O81 O 0.81517 0.80399 0.70464 0.0
C82 C 0.69753 0.69086 0.75389 0.0
C83 C 0.80394 0.81356 0.62824 0.0
C84 C 0.44007 0.58012 0.966 0.0
C85 C 0.56747 0.5135 0.14689 0.0
O86 O 0.45623 0.59753 0.03466 0.0
Zn87 Zn 0.50516 0.55008 0.06098 0.0
O88 O 0.45775 0.5402 0.9388 0.0
Zn89 Zn 0.51464 0.49171 0.97129 0.0
O90 O 0.48186 0.42904 0.99199 0.0
O91 O 0.46742 0.4846 0.08917 0.0
O92 O 0.55976 0.48997 0.07889 0.0
O93 O 0.54474 0.55271 0.16234 0.0
O94 O 0.55445 0.56631 0.9655 0.0
O95 O 0.5604 0.5036 0.87933 0.0
C96 C 0.4626 0.441 0.06153 0.0
C97 C 0.57247 0.54689 0.9001 0.0
C98 C 0.96216 0.49544 0.40498 0.0
C99 C 0.07381 0.59912 0.56766 0.0
O100 O 0.97961 0.53581 0.37836 0.0
Zn101 Zn 0.02165 0.5497 0.47534 0.0
O102 O 0.97488 0.47935 0.47689 0.0
Zn103 Zn 0.02321 0.49384 0.57471 0.0
O104 O 0.97719 0.49827 0.66889 0.0
O105 O 0.97234 0.55725 0.57392 0.0
O106 O 0.06439 0.55737 0.60032 0.0
O107 O 0.0582 0.60973 0.49443 0.0
O108 O 0.0737 0.49685 0.45334 0.0
O109 O 0.06922 0.44101 0.55286 0.0
C110 C 0.95811 0.53787 0.64275 0.0
C111 C 0.08689 0.45586 0.48341 0.0
C112 C 0.14943 0.07186 0.31253 0.0
C113 C 0.10556 0.09237 0.34011 0.0
C114 C 0.14788 0.16719 0.38341 0.0
C115 C 0.19122 0.14779 0.35354 0.0
N116 N 0.23391 0.08438 0.28232 0.0
N117 N 0.06176 0.16455 0.37827 0.0
C118 C 0.19216 0.10075 0.31606 0.0
C119 C 0.10461 0.14166 0.36828 0.0
N120 N 0.15055 1.02476 0.28451 0.0
N121 N 0.14827 0.21025 0.42686 0.0
H122 H 0.02942 0.14731 0.36508 0.0
H123 H 0.05839 0.20172 0.39071 0.0
H124 H 0.17966 0.22961 0.43939 0.0
H125 H 0.11851 0.22423 0.4574 0.0
H126 H 0.1818 1.00546 0.27355 0.0
H127 H 0.11993 1.00395 0.27443 0.0
H128 H 0.23676 0.05288 0.24632 0.0
H129 H 0.26598 0.10362 0.28841 0.0
C130 C 0.14174 0.93533 0.52424 0.0
C131 C 0.11313 0.95739 0.58812 0.0
C132 C 0.17333 0.93047 0.68905 0.0
C133 C 0.19241 0.89686 0.62986 0.0
N134 N 0.1882 0.86452 0.48825 0.0
N135 N 0.10066 0.96695 0.73829 0.0
C136 C 0.17498 0.8984 0.54635 0.0
C137 C 0.12869 0.95289 0.67273 0.0
N138 N 0.1399 0.95158 0.44323 0.0
N139 N 0.19804 0.94138 0.76059 0.0
H140 H 0.06572 0.97891 0.73127 0.0
H141 H 0.1103 0.96061 0.80074 0.0
H142 H 0.2325 0.9284 0.77109 0.0
H143 H 0.1868 0.96797 0.80292 0.0
H144 H 0.16232 0.93825 0.39645 0.0
H145 H 0.12194 0.98333 0.42646 0.0
H146 H 0.1722 0.86255 0.42907 0.0
H147 H 0.21166 0.83608 0.50074 0.0
C148 C 0.37221 0.97407 0.89176 0.0
C149 C 0.41957 0.95552 0.89217 0.0
C150 C 0.3881 0.87183 0.89044 0.0
C151 C 0.34053 0.8899 0.89332 0.0
N152 N 0.28756 0.95768 0.91344 0.0
N153 N 0.47155 0.88653 0.91702 0.0
C154 C 0.33268 0.94097 0.89949 0.0
C155 C 0.42714 0.9044 0.89931 0.0
N156 N 0.36507 1.02329 0.88435 0.0
N157 N 0.39643 0.8234 0.87603 0.0
H158 H 0.50177 0.90841 0.92265 0.0
H159 H 0.47774 0.85025 0.93386 0.0
H160 H 0.36951 0.79735 0.87281 0.0
H161 H 0.42992 0.80957 0.86099 0.0
H162 H 0.3317 0.03908 0.87575 0.0
H163 H 0.39304 0.04851 0.88154 0.0
H164 H 0.27952 0.99406 0.92575 0.0
H165 H 0.25843 0.93419 0.92034 0.0
C166 C 0.33696 0.1207 0.09861 0.0
C167 C 0.34335 0.17205 0.09556 0.0
C168 C 0.43011 0.16199 0.09872 0.0
C169 C 0.42411 0.11055 0.10136 0.0
N170 N 0.37263 0.04005 0.08889 0.0
N171 N 0.39431 0.24132 0.07195 0.0
C172 C 0.37765 0.08955 0.09691 0.0
C173 C 0.38961 0.19244 0.08808 0.0
N174 N 0.29185 0.10212 0.10569 0.0
N175 N 0.47472 0.18154 0.10852 0.0
H176 H 0.36471 0.26391 0.06382 0.0
H177 H 0.42669 0.25848 0.05898 0.0
H178 H 0.50481 0.16002 0.11929 0.0
H179 H 0.48162 0.21881 0.1124 0.0
H180 H 0.28425 0.06537 0.11642 0.0
H181 H 0.26175 0.12444 0.10281 0.0
H182 H 0.34034 1.02271 0.07582 0.0
H183 H 0.40152 1.01618 0.09128 0.0
C184 C 0.90126 0.86194 0.48164 0.0
C185 C 0.89933 0.91307 0.4975 0.0
C186 C 0.83448 0.89878 0.59834 0.0
C187 C 0.83398 0.8483 0.57825 0.0
N188 N 0.85853 0.78462 0.48332 0.0
N189 N 0.85225 0.98044 0.54871 0.0
C190 C 0.86445 0.83084 0.51378 0.0
C191 C 0.86222 0.93157 0.54901 0.0
N192 N 0.93948 0.84232 0.44096 0.0
N193 N 0.8093 0.91564 0.66553 0.0
H194 H 0.86956 1.00526 0.50911 0.0
H195 H 0.82299 0.99522 0.57977 0.0
H196 H 0.78882 0.89291 0.70376 0.0
H197 H 0.81242 0.95132 0.68771 0.0
H198 H 0.94489 0.80478 0.43603 0.0
H199 H 0.96818 0.86307 0.41933 0.0
H200 H 0.87707 0.77152 0.43144 0.0
H201 H 0.83154 0.7613 0.5042 0.0
C202 C 0.8721 0.15858 0.49214 0.0
C203 C 0.90218 0.13258 0.43581 0.0
C204 C 0.85445 0.16519 0.31877 0.0
C205 C 0.83077 0.19796 0.37307 0.0
N206 N 0.82798 0.23332 0.51257 0.0
N207 N 0.92943 0.12697 0.29061 0.0
C208 C 0.84262 0.19692 0.46027 0.0
C209 C 0.89565 0.14048 0.34766 0.0
N210 N 0.8694 0.14573 0.57496 0.0
N211 N 0.83695 0.15596 0.24027 0.0
H212 H 0.96281 0.1136 0.30717 0.0
H213 H 0.92667 0.13565 0.22688 0.0
H214 H 0.80436 0.16968 0.21952 0.0
H215 H 0.85154 0.12949 0.20103 0.0
H216 H 0.84498 0.16153 0.61597 0.0
H217 H 0.88664 0.11542 0.60021 0.0
H218 H 0.83937 0.23573 0.57488 0.0
H219 H 0.80956 0.26404 0.49173 0.0
C220 C 0.70072 0.17285 0.0364 0.0
C221 C 0.68366 0.21905 0.06347 0.0
C222 C 0.6048 0.20089 0.00196 0.0
C223 C 0.62112 0.15359 0.97994 0.0
N224 N 0.68587 0.09808 0.95759 0.0
N225 N 0.62336 0.28141 0.05915 0.0
C226 C 0.66966 0.14083 0.99126 0.0
C227 C 0.6368 0.23447 0.04195 0.0
N228 N 0.74602 0.15882 0.05709 0.0
N229 N 0.55827 0.21287 0.98678 0.0
H230 H 0.64598 0.30661 0.08827 0.0
H231 H 0.59113 0.29678 0.0407 0.0
H232 H 0.53484 0.18969 0.95484 0.0
H233 H 0.54221 0.24497 0.00666 0.0
H234 H 0.75917 0.12369 0.04873 0.0
H235 H 0.7704 0.18207 0.08637 0.0
H236 H 0.7215 0.08768 0.9569 0.0
H237 H 0.66378 0.07445 0.92365 0.0
C238 C 0.66248 0.90514 0.01288 0.0
C239 C 0.62814 0.9275 0.95892 0.0
C240 C 0.66874 0.89001 0.83905 0.0
C241 C 0.69696 0.86039 0.89302 0.0
N242 N 0.71007 0.83279 0.03642 0.0
N243 N 0.59097 0.92377 0.82006 0.0
C244 C 0.69096 0.86586 0.98161 0.0
C245 C 0.62885 0.91472 0.87199 0.0
N246 N 0.66989 0.92213 0.09241 0.0
N247 N 0.68026 0.89639 0.75636 0.0
H248 H 0.55854 0.9376 0.84019 0.0
H249 H 0.58967 0.91109 0.75831 0.0
H250 H 0.7111 0.88255 0.7295 0.0
H251 H 0.66223 0.921 0.71752 0.0
H252 H 0.69734 0.90921 0.13071 0.0
H253 H 0.65293 0.95283 0.1163 0.0
H254 H 0.70296 0.83351 0.10071 0.0
H255 H 0.72789 0.80145 0.01736 0.0
C256 C 0.58426 0.62328 0.81671 0.0
C257 C 0.60337 0.57839 0.8466 0.0
C258 C 0.68272 0.60383 0.79802 0.0
C259 C 0.66454 0.65115 0.77979 0.0
N260 N 0.59899 0.70793 0.77961 0.0
N261 N 0.67135 0.52676 0.87174 0.0
C262 C 0.61545 0.66129 0.79021 0.0
C263 C 0.65272 0.56852 0.83791 0.0
N264 N 0.53597 0.62935 0.81325 0.0
N265 N 0.72841 0.59245 0.77576 0.0
H266 H 0.65032 0.49981 0.89997 0.0
H267 H 0.70781 0.52018 0.8766 0.0
H268 H 0.7511 0.61731 0.7459 0.0
H269 H 0.74242 0.55734 0.7799 0.0
H270 H 0.51945 0.65893 0.78406 0.0
H271 H 0.51228 0.60229 0.83286 0.0
H272 H 0.56477 0.71884 0.79634 0.0
H273 H 0.62063 0.73699 0.76041 0.0
C274 C 0.67596 0.45714 0.24443 0.0
C275 C 0.65522 0.41125 0.26559 0.0
C276 C 0.57594 0.44784 0.25232 0.0
C277 C 0.59685 0.48849 0.21081 0.0
N278 N 0.66641 0.53417 0.1703 0.0
N279 N 0.58455 0.36302 0.29447 0.0
C280 C 0.64685 0.49435 0.20932 0.0
C281 C 0.60486 0.40686 0.27318 0.0
N282 N 0.72327 0.46526 0.25956 0.0
N283 N 0.52811 0.44814 0.26851 0.0
H284 H 0.6042 0.33169 0.30739 0.0
H285 H 0.54794 0.35665 0.29508 0.0
H286 H 0.50677 0.47807 0.25318 0.0
H287 H 0.51059 0.42141 0.30363 0.0
H288 H 0.73947 0.49936 0.25236 0.0
H289 H 0.74493 0.43913 0.28829 0.0
H290 H 0.70274 0.53766 0.15781 0.0
H291 H 0.64552 0.5628 0.14735 0.0
C292 C 0.90183 0.38024 0.32115 0.0
C293 C 0.86478 0.40004 0.27154 0.0
C294 C 0.89148 0.48316 0.30604 0.0
C295 C 0.93032 0.46353 0.35285 0.0
N296 N 0.97857 0.39195 0.38533 0.0
N297 N 0.83141 0.46911 0.1985 0.0
C298 C 0.9373 0.41169 0.3546 0.0
C299 C 0.86213 0.45114 0.25758 0.0
N300 N 0.90297 0.33111 0.33756 0.0
N301 N 0.88009 0.53151 0.31262 0.0
H302 H 0.80908 0.4466 0.16292 0.0
H303 H 0.83119 0.50565 0.17977 0.0
H304 H 0.89856 0.55589 0.35103 0.0
H305 H 0.84919 0.5464 0.28682 0.0
H306 H 0.92446 0.31558 0.38393 0.0
H307 H 0.88051 0.30595 0.30816 0.0
H308 H 0.98785 0.35544 0.37726 0.0
H309 H 1.00609 0.41215 0.41168 0.0
C310 C 0.88922 0.61673 0.79899 0.0
C311 C 0.86671 0.64744 0.73791 0.0
C312 C 0.88572 0.5869 0.63142 0.0
C313 C 0.91852 0.56383 0.68577 0.0
N314 N 0.95393 0.55982 0.82436 0.0
N315 N 0.8616 0.6669 0.58916 0.0
C316 C 0.92088 0.5792 0.77098 0.0
C317 C 0.86959 0.63383 0.65199 0.0
N318 N 0.87942 0.62151 0.8825 0.0
N319 N 0.873 0.56568 0.55711 0.0
H320 H 0.85836 0.70417 0.60088 0.0
H321 H 0.86605 0.65836 0.52579 0.0
H322 H 0.88435 0.53062 0.54097 0.0
H323 H 0.84759 0.58104 0.51702 0.0
H324 H 0.89243 0.59728 0.92769 0.0
H325 H 0.85409 0.64564 0.90562 0.0
H326 H 0.96038 0.57399 0.88409 0.0
H327 H 0.97655 0.53147 0.80733 0.0
C328 C 0.458 0.36412 0.15145 0.0
C329 C 0.43545 0.40581 0.11494 0.0
C330 C 0.36731 0.39427 0.20883 0.0
C331 C 0.38601 0.34896 0.23678 0.0
N332 N 0.4501 0.29103 0.23928 0.0
N333 N 0.36533 0.4557 0.09936 0.0
C334 C 0.43197 0.33409 0.20987 0.0
C335 C 0.38929 0.41964 0.14148 0.0
N336 N 0.50426 0.35385 0.13114 0.0
N337 N 0.328 0.41295 0.24736 0.0
H338 H 0.37945 0.47395 0.04728 0.0
H339 H 0.32965 0.46402 0.11023 0.0
H340 H 0.31184 0.39517 0.29773 0.0
H341 H 0.31489 0.4479 0.23577 0.0
H342 H 0.52386 0.32531 0.15682 0.0
H343 H 0.52443 0.37544 0.09037 0.0
H344 H 0.48238 0.2762 0.22052 0.0
H345 H 0.43233 0.26952 0.2835 0.0
C346 C 0.36638 0.64202 0.78844 0.0
C347 C 0.34677 0.68108 0.83571 0.0
C348 C 0.37141 0.63769 0.96425 0.0
C349 C 0.40211 0.60734 0.91777 0.0
N350 N 0.42659 0.57973 0.77849 0.0
N351 N 0.33869 0.71783 0.97547 0.0
C352 C 0.39894 0.60888 0.82778 0.0
C353 C 0.35125 0.67939 0.92552 0.0
N354 N 0.35166 0.6342 0.70762 0.0
N355 N 0.3602 0.62598 0.04541 0.0
H356 H 0.3258 0.7511 0.95418 0.0
H357 H 0.34636 0.71855 0.03965 0.0
H358 H 0.3715 0.59355 0.07378 0.0
H359 H 0.33464 0.64494 0.07977 0.0
H360 H 0.36121 0.6034 0.67327 0.0
H361 H 0.32506 0.65471 0.67856 0.0
H362 H 0.43052 0.58573 0.71413 0.0
H363 H 0.44719 0.55097 0.80029 0.0
C364 C 0.10243 0.71298 0.69784 0.0
C365 C 0.14593 0.69849 0.73585 0.0
C366 C 0.1443 0.62189 0.65618 0.0
C367 C 0.09973 0.63524 0.62057 0.0
N368 N 0.03071 0.68794 0.6239 0.0
N369 N 0.20255 0.63524 0.76694 0.0
C370 C 0.07705 0.67923 0.64607 0.0
C371 C 0.16474 0.65141 0.72027 0.0
N372 N 0.08641 0.75965 0.70824 0.0
N373 N 0.16815 0.58215 0.626 0.0
H374 H 0.21775 0.65617 0.81489 0.0
H375 H 0.21565 0.59972 0.76404 0.0
H376 H 0.15502 0.56051 0.5772 0.0
H377 H 0.20289 0.57333 0.64349 0.0
H378 H 0.05827 0.77436 0.6737 0.0
H379 H 0.10312 0.78454 0.74836 0.0
H380 H 1.01091 0.71676 0.64811 0.0
H381 H 1.01057 0.66406 0.58705 0.0
C382 C 0.19589 0.3822 0.41577 0.0
C383 C 0.17902 0.35994 0.33964 0.0
C384 C 0.10722 0.4101 0.34951 0.0
C385 C 0.11976 0.42476 0.4328 0.0
N386 N 0.17575 0.4207 0.54791 0.0
N387 N 0.11007 0.34307 0.25216 0.0
C388 C 0.1637 0.40897 0.46713 0.0
C389 C 0.13236 0.37121 0.31133 0.0
N390 N 0.2431 0.38081 0.43739 0.0
N391 N 0.07194 0.43294 0.30517 0.0
H392 H 0.1245 0.31093 0.22852 0.0
H393 H 0.07438 0.34799 0.23558 0.0
H394 H 0.05215 0.46209 0.32759 0.0
H395 H 0.06545 0.42557 0.24187 0.0
H396 H 0.25743 0.40096 0.48692 0.0
H397 H 0.26935 0.36463 0.40125 0.0
H398 H 0.20437 0.40471 0.57946 0.0
H399 H 0.15568 0.44416 0.58515 0.0
loop_
_geom_bond_atom_site_label_1
_geom_bond_atom_site_label_2
_geom_bond_distance
_geom_bond_site_symmetry_2
_ccdc_geom_bond_type
C0 O2 1.247 . S
C0 O4 1.258 . S
C1 O8 1.247 . S
C1 O9 1.258 . S
O2 C0 1.247 . S
O2 Zn3 2.026 . S
Zn3 O2 2.026 . S
Zn3 O7 2.034 1_565 S
Zn3 O9 2.037 1_665 S
Zn3 O10 2.030 1_655 S
O4 C0 1.258 . S
O4 Zn5 2.033 1_665 S
Zn5 O4 2.033 1_445 S
Zn5 O6 2.026 1_455 S
Zn5 O8 2.030 . S
Zn5 O11 2.038 1_545 S
O6 Zn5 2.026 1_655 S
O6 C12 1.247 . S
O7 Zn3 2.034 1_545 S
O7 C12 1.258 . S
O8 C1 1.247 . S
O8 Zn5 2.030 . S
O9 C1 1.258 . S
O9 Zn3 2.037 1_445 S
O10 Zn3 2.030 1_455 S
O10 C13 1.247 . S
O11 Zn5 2.038 1_565 S
O11 C13 1.258 . S
C12 O6 1.247 . S
C12 O7 1.258 . S
C13 O10 1.247 . S
C13 O11 1.258 . S
C14 O16 1.247 . S
C14 O18 1.258 . S
C15 O22 1.247 . S
C15 O23 1.258 . S
O16 C14 1.247 . S
O16 Zn17 2.028 . S
Zn17 O16 2.028 . S
Zn17 O21 2.035 . S
Zn17 O23 2.035 . S
Zn17 O24 2.028 . S
O18 C14 1.258 . S
O18 Zn19 2.035 . S
Zn19 O18 2.035 . S
Zn19 O20 2.028 . S
Zn19 O22 2.028 . S
Zn19 O25 2.035 . S
O20 Zn19 2.028 . S
O20 C26 1.247 . S
O21 Zn17 2.035 . S
O21 C26 1.258 . S
O22 C15 1.247 . S
O22 Zn19 2.028 . S
O23 C15 1.258 . S
O23 Zn17 2.035 . S
O24 Zn17 2.028 . S
O24 C27 1.247 . S
O25 Zn19 2.035 . S
O25 C27 1.258 . S
C26 O20 1.247 . S
C26 O21 1.258 . S
C27 O24 1.247 . S
C27 O25 1.258 . S
C28 O30 1.247 . S
C28 O32 1.258 1_556 S
C29 O36 1.247 . S
C29 O37 1.258 1_554 S
O30 C28 1.247 . S
O30 Zn31 2.028 1_565 S
Zn31 O30 2.028 1_545 S
Zn31 O35 2.035 . S
Zn31 O37 2.035 . S
Zn31 O38 2.028 1_545 S
O32 C28 1.258 1_554 S
O32 Zn33 2.035 . S
Zn33 O32 2.035 . S
Zn33 O34 2.028 1_565 S
Zn33 O36 2.028 1_565 S
Zn33 O39 2.035 . S
O34 Zn33 2.028 1_545 S
O34 C40 1.247 . S
O35 Zn31 2.035 . S
O35 C40 1.258 1_556 S
O36 C29 1.247 . S
O36 Zn33 2.028 1_545 S
O37 C29 1.258 1_556 S
O37 Zn31 2.035 . S
O38 Zn31 2.028 1_565 S
O38 C41 1.247 . S
O39 Zn33 2.035 . S
O39 C41 1.258 1_554 S
C40 O34 1.247 . S
C40 O35 1.258 1_554 S
C41 O38 1.247 . S
C41 O39 1.258 1_556 S
C42 O44 1.247 . S
C42 O46 1.258 . S
C43 O50 1.247 . S
C43 O51 1.258 . S
O44 C42 1.247 . S
O44 Zn45 2.028 . S
Zn45 O44 2.028 . S
Zn45 O49 2.035 . S
Zn45 O51 2.035 . S
Zn45 O52 2.028 . S
O46 C42 1.258 . S
O46 Zn47 2.035 . S
Zn47 O46 2.035 . S
Zn47 O48 2.028 . S
Zn47 O50 2.028 . S
Zn47 O53 2.035 . S
O48 Zn47 2.028 . S
O48 C54 1.247 . S
O49 Zn45 2.035 . S
O49 C54 1.258 . S
O50 C43 1.247 . S
O50 Zn47 2.028 . S
O51 C43 1.258 . S
O51 Zn45 2.035 . S
O52 Zn45 2.028 . S
O52 C55 1.247 . S
O53 Zn47 2.035 . S
O53 C55 1.258 . S
C54 O48 1.247 . S
C54 O49 1.258 . S
C55 O52 1.247 . S
C55 O53 1.258 . S
C56 O58 1.247 . S
C56 O60 1.258 . S
C57 O64 1.247 . S
C57 O65 1.258 . S
O58 C56 1.247 . S
O58 Zn59 2.028 . S
Zn59 O58 2.028 . S
Zn59 O63 2.035 . S
Zn59 O65 2.035 . S
Zn59 O66 2.028 . S
O60 C56 1.258 . S
O60 Zn61 2.035 . S
Zn61 O60 2.035 . S
Zn61 O62 2.028 . S
Zn61 O64 2.028 . S
Zn61 O67 2.035 . S
O62 Zn61 2.028 . S
O62 C68 1.247 . S
O63 Zn59 2.035 . S
O63 C68 1.258 . S
O64 C57 1.247 . S
O64 Zn61 2.028 . S
O65 C57 1.258 . S
O65 Zn59 2.035 . S
O66 Zn59 2.028 . S
O66 C69 1.247 . S
O67 Zn61 2.035 . S
O67 C69 1.258 . S
C68 O62 1.247 . S
C68 O63 1.258 . S
C69 O66 1.247 . S
C69 O67 1.258 . S
C70 O72 1.247 . S
C70 O74 1.258 . S
C71 O78 1.247 . S
C71 O79 1.258 . S
O72 C70 1.247 . S
O72 Zn73 2.028 . S
Zn73 O72 2.028 . S
Zn73 O77 2.035 . S
Zn73 O79 2.035 . S
Zn73 O80 2.028 . S
O74 C70 1.258 . S
O74 Zn75 2.035 . S
Zn75 O74 2.035 . S
Zn75 O76 2.028 . S
Zn75 O78 2.028 . S
Zn75 O81 2.035 . S
O76 Zn75 2.028 . S
O76 C82 1.247 . S
O77 Zn73 2.035 . S
O77 C82 1.258 . S
O78 C71 1.247 . S
O78 Zn75 2.028 . S
O79 C71 1.258 . S
O79 Zn73 2.035 . S
O80 Zn73 2.028 . S
O80 C83 1.247 . S
O81 Zn75 2.035 . S
O81 C83 1.258 . S
C82 O76 1.247 . S
C82 O77 1.258 . S
C83 O80 1.247 . S
C83 O81 1.258 . S
C84 O86 1.247 1_556 S
C84 O88 1.258 . S
C85 O92 1.247 1_554 S
C85 O93 1.258 . S
O86 C84 1.247 1_554 S
O86 Zn87 2.028 . S
Zn87 O86 2.028 . S
Zn87 O91 2.035 . S
Zn87 O93 2.035 . S
Zn87 O94 2.028 . S
O88 C84 1.258 . S
O88 Zn89 2.035 . S
Zn89 O88 2.035 . S
Zn89 O90 2.028 . S
Zn89 O92 2.028 . S
Zn89 O95 2.035 . S
O90 Zn89 2.028 . S
O90 C96 1.247 1_556 S
O91 Zn87 2.035 . S
O91 C96 1.258 . S
O92 C85 1.247 1_556 S
O92 Zn89 2.028 . S
O93 C85 1.258 . S
O93 Zn87 2.035 . S
O94 Zn87 2.028 . S
O94 C97 1.247 1_554 S
O95 Zn89 2.035 . S
O95 C97 1.258 . S
C96 O90 1.247 1_554 S
C96 O91 1.258 . S
C97 O94 1.247 1_556 S
C97 O95 1.258 . S
C98 O100 1.247 . S
C98 O102 1.258 . S
C99 O106 1.247 . S
C99 O107 1.258 . S
O100 C98 1.247 . S
O100 Zn101 2.026 . S
Zn101 O100 2.026 . S
Zn101 O105 2.034 . S
Zn101 O107 2.037 1_655 S
Zn101 O108 2.030 1_655 S
O102 C98 1.258 . S
O102 Zn103 2.033 1_655 S
Zn103 O102 2.033 1_455 S
Zn103 O104 2.026 1_455 S
Zn103 O106 2.030 . S
Zn103 O109 2.038 . S
O104 Zn103 2.026 1_655 S
O104 C110 1.247 . S
O105 Zn101 2.034 . S
O105 C110 1.258 . S
O106 C99 1.247 . S
O106 Zn103 2.030 . S
O107 C99 1.258 . S
O107 Zn101 2.037 1_455 S
O108 Zn101 2.030 1_455 S
O108 C111 1.247 . S
O109 Zn103 2.038 . S
O109 C111 1.258 . S
C110 O104 1.247 . S
C110 O105 1.258 . S
C111 O108 1.247 . S
C111 O109 1.258 . S
C112 C113 1.363 . S
C112 C118 1.379 . S
C112 N120 1.356 . S
C113 C112 1.363 . S
C113 C119 1.363 . S
C114 C115 1.363 . S
C114 C119 1.379 . S
C114 N121 1.356 . S
C115 C114 1.363 . S
C115 C118 1.363 . S
N116 C118 1.356 . S
N116 H128 0.984 . S
N116 H129 0.985 . S
N117 C119 1.356 . S
N117 H122 0.984 . S
N117 H123 0.985 . S
C118 C112 1.379 . S
C118 C115 1.363 . S
C118 N116 1.356 . S
C119 C113 1.363 . S
C119 C114 1.379 . S
C119 N117 1.356 . S
N120 C112 1.356 . S
N120 H126 0.984 . S
N120 H127 0.984 . S
N121 C114 1.356 . S
N121 H124 0.984 . S
N121 H125 0.985 . S
H122 N117 0.984 . S
H123 N117 0.985 . S
H124 N121 0.984 . S
H125 N121 0.985 . S
H126 N120 0.984 . S
H127 N120 0.984 . S
H128 N116 0.984 . S
H129 N116 0.985 . S
C130 C131 1.363 . S
C130 C136 1.379 . S
C130 N138 1.356 . S
C131 C130 1.363 . S
C131 C137 1.363 . S
C132 C133 1.363 . S
C132 C137 1.379 . S
C132 N139 1.356 . S
C133 C132 1.363 . S
C133 C136 1.363 . S
N134 C136 1.356 . S
N134 H146 0.984 . S
N134 H147 0.985 . S
N135 C137 1.356 . S
N135 H140 0.984 . S
N135 H141 0.985 . S
C136 C130 1.379 . S
C136 C133 1.363 . S
C136 N134 1.356 . S
C137 C131 1.363 . S
C137 C132 1.379 . S
C137 N135 1.356 . S
N138 C130 1.356 . S
N138 H144 0.984 . S
N138 H145 0.984 . S
N139 C132 1.356 . S
N139 H142 0.984 . S
N139 H143 0.985 . S
H140 N135 0.984 . S
H141 N135 0.985 . S
H142 N139 0.984 . S
H143 N139 0.985 . S
H144 N138 0.984 . S
H145 N138 0.984 . S
H146 N134 0.984 . S
H147 N134 0.985 . S
C148 C149 1.363 . S
C148 C154 1.379 . S
C148 N156 1.356 . S
C149 C148 1.363 . S
C149 C155 1.363 . S
C150 C151 1.363 . S
C150 C155 1.379 . S
C150 N157 1.356 . S
C151 C150 1.363 . S
C151 C154 1.363 . S
N152 C154 1.356 . S
N152 H164 0.984 . S
N152 H165 0.985 . S
N153 C155 1.356 . S
N153 H158 0.984 . S
N153 H159 0.985 1_556 S
C154 C148 1.379 . S
C154 C151 1.363 . S
C154 N152 1.356 . S
C155 C149 1.363 . S
C155 C150 1.379 . S
C155 N153 1.356 . S
N156 C148 1.356 . S
N156 H162 0.984 . S
N156 H163 0.984 . S
N157 C150 1.356 . S
N157 H160 0.984 . S
N157 H161 0.985 . S
H158 N153 0.984 . S
H159 N153 0.985 1_554 S
H160 N157 0.984 . S
H161 N157 0.985 . S
H162 N156 0.984 . S
H163 N156 0.984 . S
H164 N152 0.984 . S
H165 N152 0.985 . S
C166 C167 1.363 . S
C166 C172 1.379 . S
C166 N174 1.356 . S
C167 C166 1.363 . S
C167 C173 1.363 . S
C168 C169 1.363 . S
C168 C173 1.379 . S
C168 N175 1.356 . S
C169 C168 1.363 . S
C169 C172 1.363 . S
N170 C172 1.356 1_556 S
N170 H182 0.984 . S
N170 H183 0.985 . S
N171 C173 1.356 . S
N171 H176 0.984 . S
N171 H177 0.985 . S
C172 C166 1.379 . S
C172 C169 1.363 . S
C172 N170 1.356 1_554 S
C173 C167 1.363 . S
C173 C168 1.379 . S
C173 N171 1.356 . S
N174 C166 1.356 . S
N174 H180 0.984 . S
N174 H181 0.984 . S
N175 C168 1.356 . S
N175 H178 0.984 . S
N175 H179 0.985 . S
H176 N171 0.984 . S
H177 N171 0.985 . S
H178 N175 0.984 . S
H179 N175 0.985 . S
H180 N174 0.984 . S
H181 N174 0.984 . S
H182 N170 0.984 . S
H183 N170 0.985 . S
C184 C185 1.363 . S
C184 C190 1.379 . S
C184 N192 1.356 . S
C185 C184 1.363 . S
C185 C191 1.363 . S
C186 C187 1.363 . S
C186 C191 1.379 . S
C186 N193 1.356 . S
C187 C186 1.363 . S
C187 C190 1.363 . S
N188 C190 1.356 . S
N188 H200 0.984 . S
N188 H201 0.985 . S
N189 C191 1.356 . S
N189 H194 0.984 . S
N189 H195 0.985 . S
C190 C184 1.379 . S
C190 C187 1.363 . S
C190 N188 1.356 . S
C191 C185 1.363 . S
C191 C186 1.379 . S
C191 N189 1.356 . S
N192 C184 1.356 . S
N192 H198 0.984 . S
N192 H199 0.984 . S
N193 C186 1.356 . S
N193 H196 0.984 . S
N193 H197 0.985 . S
H194 N189 0.984 . S
H195 N189 0.985 . S
H196 N193 0.984 . S
H197 N193 0.985 . S
H198 N192 0.984 . S
H199 N192 0.984 . S
H200 N188 0.984 . S
H201 N188 0.985 . S
C202 C203 1.363 . S
C202 C208 1.379 . S
C202 N210 1.356 . S
C203 C202 1.363 . S
C203 C209 1.363 . S
C204 C205 1.363 . S
C204 C209 1.379 . S
C204 N211 1.356 . S
C205 C204 1.363 . S
C205 C208 1.363 . S
N206 C208 1.356 . S
N206 H218 0.984 . S
N206 H219 0.985 . S
N207 C209 1.356 . S
N207 H212 0.984 . S
N207 H213 0.985 . S
C208 C202 1.379 . S
C208 C205 1.363 . S
C208 N206 1.356 . S
C209 C203 1.363 . S
C209 C204 1.379 . S
C209 N207 1.356 . S
N210 C202 1.356 . S
N210 H216 0.984 . S
N210 H217 0.984 . S
N211 C204 1.356 . S
N211 H214 0.984 . S
N211 H215 0.985 . S
H212 N207 0.984 . S
H213 N207 0.985 . S
H214 N211 0.984 . S
H215 N211 0.985 . S
H216 N210 0.984 . S
H217 N210 0.984 . S
H218 N206 0.984 . S
H219 N206 0.985 . S
C220 C221 1.363 . S
C220 C226 1.379 . S
C220 N228 1.356 . S
C221 C220 1.363 . S
C221 C227 1.363 . S
C222 C223 1.363 . S
C222 C227 1.379 . S
C222 N229 1.356 . S
C223 C222 1.363 . S
C223 C226 1.363 . S
N224 C226 1.356 . S
N224 H236 0.984 . S
N224 H237 0.985 . S
N225 C227 1.356 . S
N225 H230 0.984 . S
N225 H231 0.985 . S
C226 C220 1.379 . S
C226 C223 1.363 . S
C226 N224 1.356 . S
C227 C221 1.363 . S
C227 C222 1.379 . S
C227 N225 1.356 . S
N228 C220 1.356 . S
N228 H234 0.984 . S
N228 H235 0.984 . S
N229 C222 1.356 . S
N229 H232 0.984 . S
N229 H233 0.985 . S
H230 N225 0.984 . S
H231 N225 0.985 . S
H232 N229 0.984 . S
H233 N229 0.985 . S
H234 N228 0.984 . S
H235 N228 0.984 . S
H236 N224 0.984 . S
H237 N224 0.985 . S
C238 C239 1.363 . S
C238 C244 1.379 . S
C238 N246 1.356 1_556 S
C239 C238 1.363 . S
C239 C245 1.363 . S
C240 C241 1.363 . S
C240 C245 1.379 . S
C240 N247 1.356 . S
C241 C240 1.363 . S
C241 C244 1.363 . S
N242 C244 1.356 . S
N242 H254 0.984 1_556 S
N242 H255 0.985 . S
N243 C245 1.356 . S
N243 H248 0.984 . S
N243 H249 0.985 . S
C244 C238 1.379 . S
C244 C241 1.363 . S
C244 N242 1.356 . S
C245 C239 1.363 . S
C245 C240 1.379 . S
C245 N243 1.356 . S
N246 C238 1.356 1_554 S
N246 H252 0.984 . S
N246 H253 0.984 . S
N247 C240 1.356 . S
N247 H250 0.984 . S
N247 H251 0.985 . S
H248 N243 0.984 . S
H249 N243 0.985 . S
H250 N247 0.984 . S
H251 N247 0.985 . S
H252 N246 0.984 . S
H253 N246 0.984 . S
H254 N242 0.984 1_554 S
H255 N242 0.985 . S
C256 C257 1.363 . S
C256 C262 1.379 . S
C256 N264 1.356 . S
C257 C256 1.363 . S
C257 C263 1.363 . S
C258 C259 1.363 . S
C258 C263 1.379 . S
C258 N265 1.356 . S
C259 C258 1.363 . S
C259 C262 1.363 . S
N260 C262 1.356 . S
N260 H272 0.984 . S
N260 H273 0.985 . S
N261 C263 1.356 . S
N261 H266 0.984 . S
N261 H267 0.985 . S
C262 C256 1.379 . S
C262 C259 1.363 . S
C262 N260 1.356 . S
C263 C257 1.363 . S
C263 C258 1.379 . S
C263 N261 1.356 . S
N264 C256 1.356 . S
N264 H270 0.984 . S
N264 H271 0.984 . S
N265 C258 1.356 . S
N265 H268 0.984 . S
N265 H269 0.985 . S
H266 N261 0.984 . S
H267 N261 0.985 . S
H268 N265 0.984 . S
H269 N265 0.985 . S
H270 N264 0.984 . S
H271 N264 0.984 . S
H272 N260 0.984 . S
H273 N260 0.985 . S
C274 C275 1.363 . S
C274 C280 1.379 . S
C274 N282 1.356 . S
C275 C274 1.363 . S
C275 C281 1.363 . S
C276 C277 1.363 . S
C276 C281 1.379 . S
C276 N283 1.356 . S
C277 C276 1.363 . S
C277 C280 1.363 . S
N278 C280 1.356 1_556 S
N278 H290 0.984 . S
N278 H291 0.985 . S
N279 C281 1.356 . S
N279 H284 0.984 . S
N279 H285 0.985 . S
C280 C274 1.379 . S
C280 C277 1.363 . S
C280 N278 1.356 1_554 S
C281 C275 1.363 . S
C281 C276 1.379 . S
C281 N279 1.356 . S
N282 C274 1.356 . S
N282 H288 0.984 . S
N282 H289 0.984 . S
N283 C276 1.356 . S
N283 H286 0.984 . S
N283 H287 0.985 . S
H284 N279 0.984 . S
H285 N279 0.985 . S
H286 N283 0.984 . S
H287 N283 0.985 . S
H288 N282 0.984 . S
H289 N282 0.984 . S
H290 N278 0.984 . S
H291 N278 0.985 . S
C292 C293 1.363 . S
C292 C298 1.379 . S
C292 N300 1.356 . S
C293 C292 1.363 . S
C293 C299 1.363 . S
C294 C295 1.363 . S
C294 C299 1.379 . S
C294 N301 1.356 . S
C295 C294 1.363 . S
C295 C298 1.363 . S
N296 C298 1.356 . S
N296 H308 0.984 . S
N296 H309 0.985 . S
N297 C299 1.356 . S
N297 H302 0.984 . S
N297 H303 0.985 . S
C298 C292 1.379 . S
C298 C295 1.363 . S
C298 N296 1.356 . S
C299 C293 1.363 . S
C299 C294 1.379 . S
C299 N297 1.356 . S
N300 C292 1.356 . S
N300 H306 0.984 . S
N300 H307 0.984 . S
N301 C294 1.356 . S
N301 H304 0.984 . S
N301 H305 0.985 . S
H302 N297 0.984 . S
H303 N297 0.985 . S
H304 N301 0.984 . S
H305 N301 0.985 . S
H306 N300 0.984 . S
H307 N300 0.984 . S
H308 N296 0.984 . S
H309 N296 0.985 . S
C310 C311 1.363 . S
C310 C316 1.379 . S
C310 N318 1.356 . S
C311 C310 1.363 . S
C311 C317 1.363 . S
C312 C313 1.363 . S
C312 C317 1.379 . S
C312 N319 1.356 . S
C313 C312 1.363 . S
C313 C316 1.363 . S
N314 C316 1.356 . S
N314 H326 0.984 . S
N314 H327 0.985 . S
N315 C317 1.356 . S
N315 H320 0.984 . S
N315 H321 0.985 . S
C316 C310 1.379 . S
C316 C313 1.363 . S
C316 N314 1.356 . S
C317 C311 1.363 . S
C317 C312 1.379 . S
C317 N315 1.356 . S
N318 C310 1.356 . S
N318 H324 0.984 . S
N318 H325 0.984 . S
N319 C312 1.356 . S
N319 H322 0.984 . S
N319 H323 0.985 . S
H320 N315 0.984 . S
H321 N315 0.985 . S
H322 N319 0.984 . S
H323 N319 0.985 . S
H324 N318 0.984 . S
H325 N318 0.984 . S
H326 N314 0.984 . S
H327 N314 0.985 . S
C328 C329 1.363 . S
C328 C334 1.379 . S
C328 N336 1.356 . S
C329 C328 1.363 . S
C329 C335 1.363 . S
C330 C331 1.363 . S
C330 C335 1.379 . S
C330 N337 1.356 . S
C331 C330 1.363 . S
C331 C334 1.363 . S
N332 C334 1.356 . S
N332 H344 0.984 . S
N332 H345 0.985 . S
N333 C335 1.356 . S
N333 H338 0.984 . S
N333 H339 0.985 . S
C334 C328 1.379 . S
C334 C331 1.363 . S
C334 N332 1.356 . S
C335 C329 1.363 . S
C335 C330 1.379 . S
C335 N333 1.356 . S
N336 C328 1.356 . S
N336 H342 0.984 . S
N336 H343 0.984 . S
N337 C330 1.356 . S
N337 H340 0.984 . S
N337 H341 0.985 . S
H338 N333 0.984 . S
H339 N333 0.985 . S
H340 N337 0.984 . S
H341 N337 0.985 . S
H342 N336 0.984 . S
H343 N336 0.984 . S
H344 N332 0.984 . S
H345 N332 0.985 . S
C346 C347 1.363 . S
C346 C352 1.379 . S
C346 N354 1.356 . S
C347 C346 1.363 . S
C347 C353 1.363 . S
C348 C349 1.363 . S
C348 C353 1.379 . S
C348 N355 1.356 1_556 S
C349 C348 1.363 . S
C349 C352 1.363 . S
N350 C352 1.356 . S
N350 H362 0.984 . S
N350 H363 0.985 . S
N351 C353 1.356 . S
N351 H356 0.984 . S
N351 H357 0.985 1_556 S
C352 C346 1.379 . S
C352 C349 1.363 . S
C352 N350 1.356 . S
C353 C347 1.363 . S
C353 C348 1.379 . S
C353 N351 1.356 . S
N354 C346 1.356 . S
N354 H360 0.984 . S
N354 H361 0.984 . S
N355 C348 1.356 1_554 S
N355 H358 0.984 . S
N355 H359 0.985 . S
H356 N351 0.984 . S
H357 N351 0.985 1_554 S
H358 N355 0.984 . S
H359 N355 0.985 . S
H360 N354 0.984 . S
H361 N354 0.984 . S
H362 N350 0.984 . S
H363 N350 0.985 . S
C364 C365 1.363 . S
C364 C370 1.379 . S
C364 N372 1.356 . S
C365 C364 1.363 . S
C365 C371 1.363 . S
C366 C367 1.363 . S
C366 C371 1.379 . S
C366 N373 1.356 . S
C367 C366 1.363 . S
C367 C370 1.363 . S
N368 C370 1.356 . S
N368 H380 0.984 . S
N368 H381 0.985 . S
N369 C371 1.356 . S
N369 H374 0.984 . S
N369 H375 0.985 . S
C370 C364 1.379 . S
C370 C367 1.363 . S
C370 N368 1.356 . S
C371 C365 1.363 . S
C371 C366 1.379 . S
C371 N369 1.356 . S
N372 C364 1.356 . S
N372 H378 0.984 . S
N372 H379 0.984 . S
N373 C366 1.356 . S
N373 H376 0.984 . S
N373 H377 0.985 . S
H374 N369 0.984 . S
H375 N369 0.985 . S
H376 N373 0.984 . S
H377 N373 0.985 . S
H378 N372 0.984 . S
H379 N372 0.984 . S
H380 N368 0.984 . S
H381 N368 0.985 . S
C382 C383 1.363 . S
C382 C388 1.379 . S
C382 N390 1.356 . S
C383 C382 1.363 . S
C383 C389 1.363 . S
C384 C385 1.363 . S
C384 C389 1.379 . S
C384 N391 1.356 . S
C385 C384 1.363 . S
C385 C388 1.363 . S
N386 C388 1.356 . S
N386 H398 0.984 . S
N386 H399 0.985 . S
N387 C389 1.356 . S
N387 H392 0.984 . S
N387 H393 0.985 . S
C388 C382 1.379 . S
C388 C385 1.363 . S
C388 N386 1.356 . S
C389 C383 1.363 . S
C389 C384 1.379 . S
C389 N387 1.356 . S
N390 C382 1.356 . S
N390 H396 0.984 . S
N390 H397 0.984 . S
N391 C384 1.356 . S
N391 H394 0.984 . S
N391 H395 0.985 . S
H392 N387 0.984 . S
H393 N387 0.985 . S
H394 N391 0.984 . S
H395 N391 0.985 . S
H396 N390 0.984 . S
H397 N390 0.984 . S
H398 N386 0.984 . S
H399 N386 0.985 . S
C113 C1 1.498 . S
C115 C54 1.495 . S
C131 C13 1.498 . S
C133 C14 1.498 . S
C149 C28 1.499 . S
C151 C26 1.501 . S
C167 C42 1.499 . S
C169 C40 1.496 . S
C185 C0 1.498 . S
C187 C83 1.502 . S
C203 C12 1.499 . S
C205 C57 1.499 . S
C221 C69 1.498 . S
C223 C29 1.496 . S
C239 C41 1.498 . S
C241 C71 1.501 . S
C257 C97 1.498 . S
C259 C82 1.499 . S
C275 C56 1.498 . S
C277 C85 1.498 . S
C293 C68 1.498 . S
C295 C98 1.500 . S
C311 C70 1.499 . S
C313 C110 1.500 . S
C329 C96 1.498 . S
C331 C55 1.498 . S
C347 C15 1.499 . S
C349 C84 1.499 . S
C365 C27 1.498 . S
C367 C99 1.497 . S
C383 C43 1.498 . S
C385 C111 1.497 . S
