# Generated by pormake.
# Topology pcl, (4)-cn, num edge types: 1
# Building blocks:
#     Node 0, Type 0, BuildingBlock: QUQFOY_clean_sbu_1, # of connection points: 4
#     Node 1, Type 0, BuildingBlock: QUQFOY_clean_sbu_1, # of connection points: 4
#     Node 2, Type 0, BuildingBlock: QUQFOY_clean_sbu_1, # of connection points: 4
#     Node 3, Type 0, BuildingBlock: QUQFOY_clean_sbu_1, # of connection points: 4
#     Node 4, Type 0, BuildingBlock: QUQFOY_clean_sbu_1, # of connection points: 4
#     Node 5, Type 0, BuildingBlock: QUQFOY_clean_sbu_1, # of connection points: 4
#     Node 6, Type 0, BuildingBlock: QUQFOY_clean_sbu_1, # of connection points: 4
#     Node 7, Type 0, BuildingBlock: QUQFOY_clean_sbu_1, # of connection points: 4
#     Node 8, Type 0, BuildingBlock: QUQFOY_clean_sbu_1, # of connection points: 4
#     Node 9, Type 0, BuildingBlock: QUQFOY_clean_sbu_1, # of connection points: 4
#     Node 10, Type 0, BuildingBlock: QUQFOY_clean_sbu_1, # of connection points: 4
#     Node 11, Type 0, BuildingBlock: QUQFOY_clean_sbu_1, # of connection points: 4
#     Node 12, Type 0, BuildingBlock: QUQFOY_clean_sbu_1, # of connection points: 4
#     Node 13, Type 0, BuildingBlock: QUQFOY_clean_sbu_1, # of connection points: 4
#     Node 14, Type 0, BuildingBlock: QUQFOY_clean_sbu_1, # of connection points: 4
#     Node 15, Type 0, BuildingBlock: QUQFOY_clean_sbu_1, # of connection points: 4
#     Edge 16, Type (0, 0), BuildingBlock: CIFDUS_clean_linker_0, # of connection points: 2
#     Edge 17, Type (0, 0), BuildingBlock: CIFDUS_clean_linker_0, # of connection points: 2
#     Edge 18, Type (0, 0), BuildingBlock: CIFDUS_clean_linker_0, # of connection points: 2
#     Edge 19, Type (0, 0), BuildingBlock: CIFDUS_clean_linker_0, # of connection points: 2
#     Edge 20, Type (0, 0), BuildingBlock: CIFDUS_clean_linker_0, # of connection points: 2
#     Edge 21, Type (0, 0), BuildingBlock: CIFDUS_clean_linker_0, # of connection points: 2
#     Edge 22, Type (0, 0), BuildingBlock: CIFDUS_clean_linker_0, # of connection points: 2
#     Edge 23, Type (0, 0), BuildingBlock: CIFDUS_clean_linker_0, # of connection points: 2
#     Edge 24, Type (0, 0), BuildingBlock: CIFDUS_clean_linker_0, # of connection points: 2
#     Edge 25, Type (0, 0), BuildingBlock: CIFDUS_clean_linker_0, # of connection points: 2
#     Edge 26, Type (0, 0), BuildingBlock: CIFDUS_clean_linker_0, # of connection points: 2
#     Edge 27, Type (0, 0), BuildingBlock: CIFDUS_clean_linker_0, # of connection points: 2
#     Edge 28, Type (0, 0), BuildingBlock: CIFDUS_clean_linker_0, # of connection points: 2
#     Edge 29, Type (0, 0), BuildingBlock: CIFDUS_clean_linker_0, # of connection points: 2
#     Edge 30, Type (0, 0), BuildingBlock: CIFDUS_clean_linker_0, # of connection points: 2
#     Edge 31, Type (0, 0), BuildingBlock: CIFDUS_clean_linker_0, # of connection points: 2
#     Edge 32, Type (0, 0), BuildingBlock: CIFDUS_clean_linker_0, # of connection points: 2
#     Edge 33, Type (0, 0), BuildingBlock: CIFDUS_clean_linker_0, # of connection points: 2
#     Edge 34, Type (0, 0), BuildingBlock: CIFDUS_clean_linker_0, # of connection points: 2
#     Edge 35, Type (0, 0), BuildingBlock: CIFDUS_clean_linker_0, # of connection points: 2
#     Edge 36, Type (0, 0), BuildingBlock: CIFDUS_clean_linker_0, # of connection points: 2
#     Edge 37, Type (0, 0), BuildingBlock: CIFDUS_clean_linker_0, # of connection points: 2
#     Edge 38, Type (0, 0), BuildingBlock: CIFDUS_clean_linker_0, # of connection points: 2
#     Edge 39, Type (0, 0), BuildingBlock: CIFDUS_clean_linker_0, # of connection points: 2
#     Edge 40, Type (0, 0), BuildingBlock: CIFDUS_clean_linker_0, # of connection points: 2
#     Edge 41, Type (0, 0), BuildingBlock: CIFDUS_clean_linker_0, # of connection points: 2
#     Edge 42, Type (0, 0), BuildingBlock: CIFDUS_clean_linker_0, # of connection points: 2
#     Edge 43, Type (0, 0), BuildingBlock: CIFDUS_clean_linker_0, # of connection points: 2
#     Edge 44, Type (0, 0), BuildingBlock: CIFDUS_clean_linker_0, # of connection points: 2
#     Edge 45, Type (0, 0), BuildingBlock: CIFDUS_clean_linker_0, # of connection points: 2
#     Edge 46, Type (0, 0), BuildingBlock: CIFDUS_clean_linker_0, # of connection points: 2
#     Edge 47, Type (0, 0), BuildingBlock: CIFDUS_clean_linker_0, # of connection points: 2
# Relax obj value: 0.094
# Max RMSD: 0.135
# Mean RMSD: 0.118
data_MOF--net-pcl--node1-QUQFOY_clean_sbu_1--edge1-CIFDUS_clean_linker_0
_symmetry_space_group_name_H-M    P1
_symmetry_Int_Tables_number       1
_symmetry_cell_setting            triclinic
loop_
_symmetry_equiv_pos_as_xyz
'x, y, z'
_cell_length_a     46.104561
_cell_length_b     39.49711
_cell_length_c     40.67977
_cell_angle_alpha  90.481386
_cell_angle_beta   89.997548
_cell_angle_gamma 89.995386
loop_
_atom_site_label
_atom_site_type_symbol
_atom_site_fract_x
_atom_site_fract_y
_atom_site_fract_z
_atom_type_partial_charge
O0 O 0.16012 0.32766 0.15088 0.0
Cd1 Cd 0.15612 0.31931 0.10082 0.0
Cd2 Cd 0.14709 0.38699 0.0953 0.0
O3 O 0.15389 0.38272 0.14546 0.0
O4 O 0.18095 0.2813 0.08428 0.0
O5 O 0.1892 0.3354 0.07312 0.0
C6 C 0.19673 0.304 0.07019 0.0
C7 C 0.16546 0.43516 0.0693 0.0
C8 C 0.1582 0.3571 0.1636 0.0
C9 C 0.09857 0.34018 0.07382 0.0
O10 O 0.10795 0.37033 0.0765 0.0
O11 O 0.11425 0.3153 0.08243 0.0
O12 O 0.14474 0.43717 0.09039 0.0
O13 O 0.17645 0.40573 0.06322 0.0
O14 O 0.86477 0.68313 0.6537 0.0
Cd15 Cd 0.87203 0.70267 0.60781 0.0
Cd16 Cd 0.89172 0.63703 0.5938 0.0
O17 O 0.88126 0.6318 0.64305 0.0
O18 O 0.84575 0.74231 0.60472 0.0
O19 O 0.84207 0.69729 0.57208 0.0
C20 C 0.8323 0.72653 0.58138 0.0
C21 C 0.889 0.58699 0.56262 0.0
C22 C 0.87049 0.6533 0.66306 0.0
C23 C 0.93285 0.69751 0.58545 0.0
O24 O 0.92712 0.66635 0.58103 0.0
O25 O 0.91401 0.71752 0.5975 0.0
O26 O 0.90923 0.59214 0.58377 0.0
O27 O 0.86941 0.61004 0.55932 0.0
O28 O 0.17089 0.6894 0.85773 0.0
Cd29 Cd 0.16507 0.69645 0.90803 0.0
Cd30 Cd 0.15931 0.62889 0.91029 0.0
O31 O 0.17317 0.63389 0.86246 0.0
O32 O 0.18849 0.73485 0.92637 0.0
O33 O 0.19797 0.68074 0.93619 0.0
C34 C 0.20465 0.71229 0.94014 0.0
C35 C 0.17485 0.58152 0.93985 0.0
C36 C 0.17462 0.66026 0.8448 0.0
C37 C 0.10645 0.67171 0.92619 0.0
O38 O 0.11703 0.64265 0.91986 0.0
O39 O 0.12256 0.69782 0.92518 0.0
O40 O 0.15831 0.57856 0.91454 0.0
O41 O 0.1834 0.61147 0.9482 0.0
O42 O 0.85886 0.3181 0.36922 0.0
Cd43 Cd 0.86605 0.29952 0.41546 0.0
Cd44 Cd 0.88257 0.36516 0.4298 0.0
O45 O 0.87431 0.36978 0.38004 0.0
O46 O 0.84163 0.25828 0.41789 0.0
O47 O 0.83514 0.30304 0.45032 0.0
C48 C 0.82691 0.27327 0.44073 0.0
C49 C 0.87462 0.41481 0.46059 0.0
C50 C 0.86453 0.3479 0.35979 0.0
C51 C 0.92652 0.30827 0.43878 0.0
O52 O 0.91938 0.33897 0.44365 0.0
O53 O 0.90858 0.28735 0.42638 0.0
O54 O 0.89604 0.41171 0.4406 0.0
O55 O 0.857 0.3896 0.46315 0.0
O56 O 0.87007 0.61429 0.98733 0.0
Cd57 Cd 0.87768 0.66247 0.96955 0.0
Cd58 Cd 0.87541 0.6311 0.91246 0.0
O59 O 0.85448 0.59491 0.93959 0.0
O60 O 0.85787 0.69695 0.99792 0.0
O61 O 0.84306 0.68281 0.94769 0.0
C62 C 0.83881 0.69951 0.97475 0.0
C63 C 0.86167 0.63968 0.85773 0.0
C64 C 0.85815 0.59098 0.97028 0.0
C65 C 0.9338 0.65519 0.93775 0.0
O66 O 0.91948 0.63493 0.91956 0.0
O67 O 0.92061 0.67406 0.95836 0.0
O68 O 0.8739 0.61209 0.867 0.0
O69 O 0.85602 0.66225 0.87995 0.0
O70 O 0.16052 0.39309 0.48655 0.0
Cd71 Cd 0.15524 0.34175 0.48149 0.0
Cd72 Cd 0.14105 0.36043 0.41572 0.0
O73 O 0.152 0.4076 0.43525 0.0
O74 O 0.17407 0.32509 0.52218 0.0
O75 O 0.18991 0.31172 0.4724 0.0
C76 C 0.19311 0.31025 0.50391 0.0
C77 C 0.15227 0.3528 0.35973 0.0
C78 C 0.15857 0.41565 0.46466 0.0
C79 C 0.09528 0.32543 0.45824 0.0
O80 O 0.10258 0.33801 0.43076 0.0
O81 O 0.11308 0.32433 0.48207 0.0
O82 O 0.13223 0.37318 0.36946 0.0
O83 O 0.16629 0.33625 0.38187 0.0
O84 O 0.86148 0.39078 0.03953 0.0
Cd85 Cd 0.86926 0.33997 0.04582 0.0
Cd86 Cd 0.88031 0.36051 0.11004 0.0
O87 O 0.87053 0.40718 0.09037 0.0
O88 O 0.84821 0.31807 0.00863 0.0
O89 O 0.8369 0.3094 0.06084 0.0
C90 C 0.83141 0.30426 0.03004 0.0
C91 C 0.86635 0.35393 0.16488 0.0
C92 C 0.8634 0.41412 0.06105 0.0
C93 C 0.92867 0.32607 0.07111 0.0
O94 O 0.91951 0.3383 0.09817 0.0
O95 O 0.91233 0.32468 0.04594 0.0
O96 O 0.88689 0.37411 0.15651 0.0
O97 O 0.85334 0.33707 0.1419 0.0
O98 O 0.16359 0.62323 0.52317 0.0
Cd99 Cd 0.15956 0.67459 0.52948 0.0
Cd100 Cd 0.14939 0.65607 0.59501 0.0
O101 O 0.15955 0.6088 0.57515 0.0
O102 O 0.17776 0.69198 0.48871 0.0
O103 O 0.19511 0.70318 0.53836 0.0
C104 C 0.19763 0.70549 0.50683 0.0
C105 C 0.16386 0.66498 0.64979 0.0
C106 C 0.1635 0.60067 0.54516 0.0
C107 C 0.1009 0.69053 0.55633 0.0
O108 O 0.10965 0.67725 0.58295 0.0
O109 O 0.11761 0.6927 0.53157 0.0
O110 O 0.14397 0.64357 0.64196 0.0
O111 O 0.17596 0.68178 0.62643 0.0
O112 O 0.66863 0.80076 0.13725 0.0
Cd113 Cd 0.66163 0.80192 0.08685 0.0
Cd114 Cd 0.65496 0.8681 0.09662 0.0
O115 O 0.67419 0.85608 0.14054 0.0
O116 O 0.68448 0.76574 0.06399 0.0
O117 O 0.69492 0.8205 0.06098 0.0
C118 C 0.70137 0.78949 0.05365 0.0
C119 C 0.66785 0.91883 0.07105 0.0
C120 C 0.67526 0.8271 0.15384 0.0
C121 C 0.60189 0.82726 0.07834 0.0
O122 O 0.61211 0.85433 0.09087 0.0
O123 O 0.61875 0.8029 0.07086 0.0
O124 O 0.65354 0.91866 0.09821 0.0
O125 O 0.67559 0.89005 0.05859 0.0
O126 O 0.36085 0.18679 0.64877 0.0
Cd127 Cd 0.37005 0.18955 0.59904 0.0
Cd128 Cd 0.37613 0.12283 0.60502 0.0
O129 O 0.35855 0.1312 0.65089 0.0
O130 O 0.35032 0.23133 0.58393 0.0
O131 O 0.33851 0.1799 0.56615 0.0
C132 C 0.33368 0.21213 0.56634 0.0
C133 C 0.36083 0.07632 0.57367 0.0
C134 C 0.35585 0.15994 0.66481 0.0
C135 C 0.4297 0.16422 0.58946 0.0
O136 O 0.41902 0.13618 0.59871 0.0
O137 O 0.41335 0.18977 0.58532 0.0
O138 O 0.37587 0.07256 0.60006 0.0
O139 O 0.35362 0.10667 0.56539 0.0
O140 O 0.66882 0.18117 0.86621 0.0
Cd141 Cd 0.65746 0.19234 0.91434 0.0
Cd142 Cd 0.65616 0.12324 0.91947 0.0
O143 O 0.67758 0.12732 0.87539 0.0
O144 O 0.67409 0.23787 0.92332 0.0
O145 O 0.68885 0.19154 0.94877 0.0
C146 C 0.69178 0.22362 0.94356 0.0
C147 C 0.66794 0.07464 0.94954 0.0
C148 C 0.67813 0.15258 0.85631 0.0
C149 C 0.59936 0.16342 0.92401 0.0
O150 O 0.61254 0.13537 0.9201 0.0
O151 O 0.61358 0.19097 0.92572 0.0
O152 O 0.65457 0.0729 0.92189 0.0
O153 O 0.6749 0.10425 0.9606 0.0
O154 O 0.36177 0.82566 0.35789 0.0
Cd155 Cd 0.37338 0.82339 0.40697 0.0
Cd156 Cd 0.37501 0.89016 0.40134 0.0
O157 O 0.35467 0.88073 0.35714 0.0
O158 O 0.3552 0.78138 0.42395 0.0
O159 O 0.34308 0.8329 0.44128 0.0
C160 C 0.3388 0.80057 0.44186 0.0
C161 C 0.3598 0.93578 0.43407 0.0
C162 C 0.35359 0.85205 0.34282 0.0
C163 C 0.43181 0.8527 0.41176 0.0
O164 O 0.41886 0.87974 0.40339 0.0
O165 O 0.41732 0.82603 0.41769 0.0
O166 O 0.3727 0.94038 0.40639 0.0
O167 O 0.35472 0.90504 0.44296 0.0
O168 O 0.36508 0.13079 0.99148 0.0
Cd169 Cd 0.36965 0.17884 0.97243 0.0
Cd170 Cd 0.37237 0.14424 0.91404 0.0
O171 O 0.35675 0.10635 0.94349 0.0
O172 O 0.35046 0.21146 1.00321 0.0
O173 O 0.3331 0.19842 0.95382 0.0
C174 C 0.33006 0.21415 0.98163 0.0
C175 C 0.35861 0.14098 0.85852 0.0
C176 C 0.358 0.10482 0.97463 0.0
C177 C 0.42688 0.17916 0.94004 0.0
O178 O 0.41517 0.15771 0.92071 0.0
O179 O 0.41163 0.19442 0.96162 0.0
O180 O 0.37487 0.11855 0.87184 0.0
O181 O 0.34954 0.16563 0.87681 0.0
O182 O 0.66993 0.88512 0.47592 0.0
Cd183 Cd 0.66141 0.83535 0.46338 0.0
Cd184 Cd 0.65937 0.86244 0.40123 0.0
O185 O 0.67655 0.90366 0.42562 0.0
O186 O 0.67665 0.80985 0.50153 0.0
O187 O 0.69506 0.80515 0.45138 0.0
C188 C 0.69633 0.79766 0.48223 0.0
C189 C 0.67346 0.85743 0.34602 0.0
C190 C 0.677 0.90869 0.45645 0.0
C191 C 0.6037 0.83478 0.43188 0.0
O192 O 0.61615 0.85195 0.40965 0.0
O193 O 0.61836 0.82248 0.45543 0.0
O194 O 0.65777 0.88212 0.3565 0.0
O195 O 0.68145 0.83487 0.3669 0.0
O196 O 0.36966 0.88858 0.01901 0.0
Cd197 Cd 0.37477 0.84108 0.03895 0.0
Cd198 Cd 0.37082 0.87491 0.09682 0.0
O199 O 0.3561 0.91212 0.06587 0.0
O200 O 0.35687 0.80671 0.009 0.0
O201 O 0.33815 0.82167 0.05729 0.0
C202 C 0.33595 0.80472 0.03004 0.0
C203 C 0.35272 0.87608 0.15072 0.0
C204 C 0.35993 0.91394 0.03501 0.0
C205 C 0.42894 0.84364 0.07704 0.0
O206 O 0.4145 0.86393 0.09511 0.0
O207 O 0.4165 0.828 0.05349 0.0
O208 O 0.36845 0.90009 0.1393 0.0
O209 O 0.34639 0.8512 0.13127 0.0
O210 O 0.66792 0.10481 0.53737 0.0
Cd211 Cd 0.65794 0.15385 0.55132 0.0
Cd212 Cd 0.66216 0.12774 0.61062 0.0
O213 O 0.68124 0.08762 0.58638 0.0
O214 O 0.67203 0.18219 0.51458 0.0
O215 O 0.69066 0.18452 0.56485 0.0
C216 C 0.69148 0.19391 0.53449 0.0
C217 C 0.67929 0.14229 0.66294 0.0
C218 C 0.67867 0.08217 0.55572 0.0
C219 C 0.60262 0.1486 0.586 0.0
O220 O 0.61775 0.13166 0.60616 0.0
O221 O 0.61483 0.16376 0.56226 0.0
O222 O 0.66674 0.1138 0.65708 0.0
O223 O 0.68304 0.16269 0.63869 0.0
H224 H 0.05973 0.29596 0.09905 0.0
H225 H 0.06934 0.3736 0.02605 0.0
H226 H 0.01731 0.37136 0.01437 0.0
H227 H 0.9683 0.35279 0.03019 0.0
H228 H 0.95813 0.28129 0.10865 0.0
H229 H 1.01089 0.27506 0.11272 0.0
C230 C 0.05045 0.31176 0.08006 0.0
C231 C 0.06824 0.33479 0.0633 0.0
C232 C 0.02031 0.31152 0.07467 0.0
C233 C 0.05598 0.35568 0.03923 0.0
C234 C 0.02625 0.35446 0.03261 0.0
C235 C 0.97775 0.33514 0.04745 0.0
C236 C 0.95959 0.31709 0.06875 0.0
C237 C 1.00807 0.33324 0.05088 0.0
C238 C 0.97187 0.29507 0.09179 0.0
C239 C 1.00198 0.29172 0.09425 0.0
H240 H 0.96697 0.68561 0.53255 0.0
H241 H 0.96643 0.73278 0.62841 0.0
H242 H 0.01936 0.73792 0.62691 0.0
H243 H 0.066 0.72112 0.60149 0.0
H244 H 0.06621 0.67754 0.50398 0.0
H245 H 1.01322 0.6793 0.5026 0.0
C246 C 0.97846 0.69791 0.55263 0.0
C247 C 0.96304 0.70862 0.58062 0.0
C248 C 1.0088 0.70102 0.55142 0.0
C249 C 0.97795 0.72459 0.60653 0.0
C250 C 1.00821 0.72721 0.60581 0.0
C251 C 0.05438 0.7128 0.57968 0.0
C252 C 0.06984 0.69886 0.55303 0.0
C253 C 0.02391 0.71435 0.57889 0.0
C254 C 0.05471 0.68843 0.52474 0.0
C255 C 0.02441 0.68921 0.52404 0.0
H256 H 0.97354 0.70528 0.9529 0.0
H257 H 0.96618 0.60175 0.91888 0.0
H258 H 0.0185 0.59755 0.91421 0.0
H259 H 0.0661 0.62298 0.91782 0.0
H260 H 0.07549 0.72719 0.94858 0.0
H261 H 0.02281 0.73137 0.95653 0.0
C262 C 0.9835 0.68186 0.94461 0.0
C263 C 0.96589 0.65395 0.93609 0.0
C264 C 1.01396 0.67968 0.94131 0.0
C265 C 0.9791 0.62377 0.92525 0.0
C266 C 1.00909 0.62123 0.92265 0.0
C267 C 0.0568 0.64664 0.92651 0.0
C268 C 0.07482 0.67467 0.93268 0.0
C269 C 0.02668 0.64903 0.93032 0.0
C270 C 0.06215 0.70516 0.94363 0.0
C271 C 0.03201 0.70757 0.94815 0.0
H272 H 0.05972 0.29065 0.41679 0.0
H273 H 0.0622 0.3406 0.51136 0.0
H274 H 1.00943 0.33629 0.5158 0.0
H275 H 0.9623 0.32543 0.48902 0.0
H276 H 0.95978 0.27189 0.39633 0.0
H277 H 1.01283 0.26975 0.39513 0.0
C278 C 0.04867 0.29985 0.43865 0.0
C279 C 0.06462 0.31627 0.46353 0.0
C280 C 0.01837 0.29677 0.44127 0.0
C281 C 0.05028 0.32783 0.49193 0.0
C282 C 0.02012 0.32556 0.49439 0.0
C283 C 0.97343 0.31245 0.46908 0.0
C284 C 0.95732 0.29906 0.4427 0.0
C285 C 1.00388 0.31109 0.46871 0.0
C286 C 0.97181 0.28217 0.41701 0.0
C287 C 1.00213 0.28126 0.41615 0.0
H288 H 0.46906 0.80457 0.04347 0.0
H289 H 0.46065 0.87687 0.1233 0.0
H290 H 0.51281 0.87776 0.13036 0.0
H291 H 0.56097 0.86039 0.113 0.0
H292 H 0.57129 0.78662 0.03519 0.0
H293 H 0.51838 0.7839 0.02831 0.0
C294 C 0.47865 0.82027 0.06257 0.0
C295 C 0.46074 0.84082 0.08258 0.0
C296 C 0.50906 0.82065 0.06677 0.0
C297 C 0.47366 0.86087 0.10735 0.0
C298 C 0.50362 0.86152 0.11144 0.0
C299 C 0.55171 0.84372 0.09444 0.0
C300 C 0.57003 0.82411 0.07432 0.0
C301 C 0.52151 0.84195 0.09104 0.0
C302 C 0.55762 0.80211 0.0509 0.0
C303 C 0.52738 0.80059 0.04696 0.0
H304 H 0.56256 0.19192 0.559 0.0
H305 H 0.57071 0.10422 0.62111 0.0
H306 H 0.51839 0.10126 0.62685 0.0
H307 H 0.47037 0.12283 0.6145 0.0
H308 H 0.46053 0.21192 0.55495 0.0
H309 H 0.51335 0.2151 0.54802 0.0
C310 C 0.55282 0.17223 0.57379 0.0
C311 C 0.57063 0.14834 0.58956 0.0
C312 C 0.52242 0.17085 0.57745 0.0
C313 C 0.55766 0.12309 0.60882 0.0
C314 C 0.52766 0.12125 0.61208 0.0
C315 C 0.47969 0.14292 0.59985 0.0
C316 C 0.46152 0.16691 0.58502 0.0
C317 C 0.50987 0.14489 0.59649 0.0
C318 C 0.47406 0.19308 0.56659 0.0
C319 C 0.50425 0.19487 0.56261 0.0
H320 H 0.56181 0.21055 0.95076 0.0
H321 H 0.56455 0.11586 0.89694 0.0
H322 H 0.51196 0.11382 0.89571 0.0
H323 H 0.46532 0.13751 0.91059 0.0
H324 H 0.46047 0.23001 0.96744 0.0
H325 H 0.51363 0.23438 0.96672 0.0
C326 C 0.55081 0.18958 0.93875 0.0
C327 C 0.56719 0.16335 0.92406 0.0
C328 C 0.52019 0.18813 0.93863 0.0
C329 C 0.5526 0.13622 0.90873 0.0
C330 C 0.52246 0.13505 0.90787 0.0
C331 C 0.47575 0.15889 0.92263 0.0
C332 C 0.45886 0.18354 0.93881 0.0
C333 C 0.50607 0.16071 0.92283 0.0
C334 C 0.47293 0.21071 0.9547 0.0
C335 C 0.50333 0.21317 0.95433 0.0
H336 H 0.4682 0.80901 0.44422 0.0
H337 H 0.46771 0.89608 0.38067 0.0
H338 H 0.52038 0.89693 0.38034 0.0
H339 H 0.56648 0.87402 0.39827 0.0
H340 H 0.56881 0.78927 0.46438 0.0
H341 H 0.51561 0.7864 0.4635 0.0
C342 C 0.47969 0.82808 0.43031 0.0
C343 C 0.46395 0.85246 0.41253 0.0
C344 C 0.51029 0.82886 0.43063 0.0
C345 C 0.47917 0.87717 0.39478 0.0
C346 C 0.50935 0.87764 0.39445 0.0
C347 C 0.55546 0.85468 0.41234 0.0
C348 C 0.57164 0.8317 0.43113 0.0
C349 C 0.52509 0.85372 0.41229 0.0
C350 C 0.55687 0.80722 0.44963 0.0
C351 C 0.52646 0.8056 0.44914 0.0
H352 H 0.17501 0.31197 0.2111 0.0
H353 H 0.14195 0.41331 0.19779 0.0
H354 H 0.13819 0.42092 0.25693 0.0
H355 H 0.14175 0.39832 0.31234 0.0
H356 H 0.17648 0.29834 0.32746 0.0
H357 H 0.18233 0.29079 0.26784 0.0
C358 C 0.16719 0.33577 0.22118 0.0
C359 C 0.15858 0.36189 0.19986 0.0
C360 C 0.16527 0.34023 0.25556 0.0
C361 C 0.14874 0.3927 0.21343 0.0
C362 C 0.14647 0.39712 0.24734 0.0
C363 C 0.15072 0.3749 0.30262 0.0
C364 C 0.15837 0.34879 0.32419 0.0
C365 C 0.15427 0.37095 0.26858 0.0
C366 C 0.17041 0.31881 0.3113 0.0
C367 C 0.17364 0.31446 0.27723 0.0
H368 H 0.85039 0.69348 0.71297 0.0
H369 H 0.88104 0.59225 0.69178 0.0
H370 H 0.87839 0.5784 0.74997 0.0
H371 H 0.87108 0.59617 0.80705 0.0
H372 H 0.84164 0.69763 0.82892 0.0
H373 H 0.83976 0.71005 0.77014 0.0
C374 C 0.85624 0.66828 0.721 0.0
C375 C 0.86618 0.64407 0.69797 0.0
C376 C 0.85496 0.66052 0.75461 0.0
C377 C 0.8735 0.61149 0.70889 0.0
C378 C 0.87202 0.60351 0.74221 0.0
C379 C 0.86392 0.62091 0.79902 0.0
C380 C 0.85673 0.64602 0.82237 0.0
C381 C 0.86333 0.62802 0.76531 0.0
C382 C 0.84736 0.67786 0.81147 0.0
C383 C 0.84639 0.68503 0.77786 0.0
H384 H 0.18331 0.70905 0.79774 0.0
H385 H 0.17159 0.60133 0.81018 0.0
H386 H 0.16894 0.59342 0.75111 0.0
H387 H 0.16565 0.61709 0.69608 0.0
H388 H 0.17956 0.72374 0.68152 0.0
H389 H 0.18592 0.73203 0.74104 0.0
C390 C 0.18056 0.68383 0.78748 0.0
C391 C 0.17729 0.65595 0.8086 0.0
C392 C 0.17925 0.67923 0.75307 0.0
C393 C 0.17405 0.62337 0.79476 0.0
C394 C 0.17241 0.61873 0.76085 0.0
C395 C 0.17039 0.6421 0.70594 0.0
C396 C 0.1718 0.66983 0.68467 0.0
C397 C 0.1743 0.6465 0.73986 0.0
C398 C 0.1784 0.70202 0.69755 0.0
C399 C 0.18187 0.70676 0.73155 0.0
H400 H 0.87878 0.39736 0.21433 0.0
H401 H 0.83777 0.30128 0.19403 0.0
H402 H 0.83144 0.29198 0.2531 0.0
H403 H 0.84155 0.30919 0.31037 0.0
H404 H 0.88249 0.40571 0.32977 0.0
H405 H 0.88458 0.4169 0.27105 0.0
C406 C 0.86824 0.37448 0.2228 0.0
C407 C 0.85911 0.34981 0.19996 0.0
C408 C 0.86477 0.36934 0.25659 0.0
C409 C 0.84506 0.32058 0.21121 0.0
C410 C 0.84155 0.31521 0.24495 0.0
C411 C 0.85064 0.33283 0.30179 0.0
C412 C 0.86219 0.35636 0.3245 0.0
C413 C 0.85193 0.33911 0.26787 0.0
C414 C 0.87359 0.38704 0.31291 0.0
C415 C 0.87489 0.39346 0.2793 0.0
H416 H 0.67758 0.8011 0.30682 0.0
H417 H 0.68566 0.9099 0.3066 0.0
H418 H 0.69099 0.90934 0.24701 0.0
H419 H 0.68775 0.87913 0.19502 0.0
H420 H 0.67556 0.77078 0.19338 0.0
H421 H 0.67789 0.76984 0.25354 0.0
C422 C 0.68112 0.8245 0.29365 0.0
C423 C 0.68115 0.85552 0.3109 0.0
C424 C 0.68313 0.82411 0.25908 0.0
C425 C 0.68539 0.88577 0.29371 0.0
C426 C 0.6884 0.88548 0.25966 0.0
C427 C 0.68596 0.85515 0.20766 0.0
C428 C 0.68115 0.82513 0.18964 0.0
C429 C 0.6864 0.85495 0.24206 0.0
C430 C 0.67912 0.79433 0.20661 0.0
C431 C 0.68034 0.79379 0.24104 0.0
H432 H 0.34623 0.1926 0.8166 0.0
H433 H 0.35748 0.08428 0.82077 0.0
H434 H 0.35415 0.08028 0.76108 0.0
H435 H 0.35323 0.10785 0.70772 0.0
H436 H 0.34526 0.21656 0.70248 0.0
H437 H 0.3418 0.22007 0.7624 0.0
C438 C 0.34738 0.16812 0.80439 0.0
C439 C 0.35223 0.13881 0.82299 0.0
C440 C 0.34633 0.16609 0.76984 0.0
C441 C 0.35397 0.10724 0.80693 0.0
C442 C 0.3521 0.10492 0.77279 0.0
C443 C 0.35031 0.13232 0.71956 0.0
C444 C 0.34975 0.1619 0.70057 0.0
C445 C 0.3491 0.13424 0.75397 0.0
C446 C 0.34595 0.19336 0.71648 0.0
C447 C 0.34403 0.19541 0.75077 0.0
H448 H 0.68076 0.19948 0.80711 0.0
H449 H 0.69418 0.0933 0.82695 0.0
H450 H 0.69937 0.08166 0.76852 0.0
H451 H 0.69364 0.1 0.71174 0.0
H452 H 0.68057 0.20565 0.69064 0.0
H453 H 0.68223 0.21922 0.74955 0.0
C454 C 0.68532 0.17391 0.79869 0.0
C455 C 0.68647 0.14725 0.82145 0.0
C456 C 0.68816 0.16722 0.7648 0.0
C457 C 0.69279 0.11432 0.81008 0.0
C458 C 0.69572 0.10754 0.77659 0.0
C459 C 0.69171 0.12609 0.72004 0.0
C460 C 0.68659 0.15174 0.69709 0.0
C461 C 0.69244 0.13355 0.75374 0.0
C462 C 0.68453 0.18549 0.70796 0.0
C463 C 0.68524 0.19319 0.74163 0.0
H464 H 0.3447 0.82204 0.19086 0.0
H465 H 0.34365 0.9312 0.18927 0.0
H466 H 0.33961 0.93315 0.24904 0.0
H467 H 0.34296 0.90433 0.30167 0.0
H468 H 0.34776 0.79523 0.30413 0.0
H469 H 0.34337 0.79274 0.24428 0.0
C470 C 0.34285 0.84616 0.20363 0.0
C471 C 0.34459 0.87643 0.1858 0.0
C472 C 0.34161 0.84713 0.2382 0.0
C473 C 0.34253 0.90758 0.20256 0.0
C474 C 0.34031 0.90872 0.23673 0.0
C475 C 0.34256 0.87993 0.28925 0.0
C476 C 0.34605 0.85006 0.30741 0.0
C477 C 0.34088 0.87871 0.25484 0.0
C478 C 0.34536 0.81868 0.29078 0.0
C479 C 0.34292 0.81722 0.25651 0.0
H480 H 0.32286 0.26996 0.02038 0.0
H481 H 0.27566 0.19601 0.9631 0.0
H482 H 0.22977 0.21757 0.98504 0.0
H483 H 0.20337 0.2545 0.02424 0.0
H484 H 0.25001 0.332 0.07737 0.0
H485 H 0.29581 0.31224 0.05338 0.0
C486 C 0.30246 0.25902 0.01231 0.0
C487 C 0.30259 0.23133 0.99036 0.0
C488 C 0.27613 0.27197 0.02457 0.0
C489 C 0.27607 0.21749 0.97984 0.0
C490 C 0.24984 0.22962 0.99258 0.0
C491 C 0.22358 0.2672 0.0302 0.0
C492 C 0.22355 0.29431 0.05276 0.0
C493 C 0.24965 0.25634 0.01553 0.0
C494 C 0.24966 0.31102 0.06004 0.0
C495 C 0.27581 0.29967 0.04642 0.0
H496 H 0.80917 0.71525 0.52024 0.0
H497 H 0.79563 0.7707 0.61082 0.0
H498 H 0.75128 0.79522 0.58887 0.0
H499 H 0.71706 0.80233 0.54384 0.0
H500 H 0.73189 0.75172 0.45106 0.0
H501 H 0.77486 0.72369 0.47391 0.0
C502 C 0.79641 0.73264 0.53509 0.0
C503 C 0.80565 0.74115 0.5671 0.0
C504 C 0.77115 0.74742 0.52197 0.0
C505 C 0.7891 0.76393 0.58604 0.0
C506 C 0.76366 0.77788 0.57357 0.0
C507 C 0.72947 0.78483 0.5287 0.0
C508 C 0.72114 0.77873 0.49597 0.0
C509 C 0.75456 0.76993 0.54158 0.0
C510 C 0.73782 0.75663 0.47642 0.0
C511 C 0.7624 0.7407 0.48946 0.0
H512 H 0.32972 0.74798 0.99228 0.0
H513 H 0.28116 0.82267 0.04716 0.0
H514 H 0.23578 0.80032 0.0247 0.0
H515 H 0.21023 0.76253 0.98557 0.0
H516 H 0.25816 0.68442 0.93479 0.0
H517 H 0.30342 0.70487 0.9595 0.0
C518 C 0.30913 0.75891 0.99972 0.0
C519 C 0.30875 0.78705 0.02113 0.0
C520 C 0.28306 0.74552 0.98717 0.0
C521 C 0.28198 0.80087 0.03084 0.0
C522 C 0.25603 0.78828 0.0178 0.0
C523 C 0.2306 0.74984 0.98029 0.0
C524 C 0.23108 0.72236 0.95816 0.0
C525 C 0.25636 0.76112 0.99535 0.0
C526 C 0.2574 0.70568 0.95178 0.0
C527 C 0.28325 0.71743 0.9658 0.0
H528 H 0.71327 0.19198 0.47328 0.0
H529 H 0.72485 0.24055 0.56764 0.0
H530 H 0.76731 0.27103 0.54659 0.0
H531 H 0.80222 0.2821 0.50141 0.0
H532 H 0.79227 0.22838 0.40928 0.0
H533 H 0.74819 0.2016 0.42938 0.0
C534 C 0.72485 0.20958 0.48914 0.0
C535 C 0.71577 0.21441 0.52179 0.0
C536 C 0.74973 0.22582 0.4773 0.0
C537 C 0.73138 0.23663 0.54232 0.0
C538 C 0.75567 0.25395 0.53031 0.0
C539 C 0.7903 0.26458 0.48582 0.0
C540 C 0.80046 0.25721 0.45393 0.0
C541 C 0.76524 0.24847 0.49789 0.0
C542 C 0.78501 0.23426 0.43402 0.0
C543 C 0.75972 0.21904 0.44542 0.0
H544 H 0.71024 0.74115 0.00685 0.0
H545 H 0.75396 0.8186 0.06324 0.0
H546 H 0.8009 0.79902 0.04232 0.0
H547 H 0.82972 0.75614 0.01204 0.0
H548 H 0.78566 0.682 0.9518 0.0
H549 H 0.7387 0.70422 0.96965 0.0
C550 C 0.73006 0.75402 0.01406 0.0
C551 C 0.72879 0.78099 0.03675 0.0
C552 C 0.75688 0.74312 1.00133 0.0
C553 C 0.75448 0.7978 0.04572 0.0
C554 C 0.78132 0.78649 0.03391 0.0
C555 C 0.8098 0.74533 1.00239 0.0
C556 C 0.8111 0.71732 0.98089 0.0
C557 C 0.78283 0.75866 0.0123 0.0
C558 C 0.7852 0.70368 0.96828 0.0
C559 C 0.75833 0.71621 0.97867 0.0
H560 H 0.30185 0.26534 0.5862 0.0
H561 H 0.30854 0.1907 0.50872 0.0
H562 H 0.26586 0.21502 0.48149 0.0
H563 H 0.22623 0.25773 0.48036 0.0
H564 H 0.21793 0.32817 0.56149 0.0
H565 H 0.26151 0.30526 0.58673 0.0
C566 C 0.29408 0.25456 0.5632 0.0
C567 C 0.30845 0.22667 0.54917 0.0
C568 C 0.26911 0.26783 0.5485 0.0
C569 C 0.29782 0.21236 0.51982 0.0
C570 C 0.27345 0.22623 0.50432 0.0
C571 C 0.23403 0.26792 0.50357 0.0
C572 C 0.21893 0.29463 0.51902 0.0
C573 C 0.25884 0.25397 0.51851 0.0
C574 C 0.22904 0.30747 0.54924 0.0
C575 C 0.25405 0.2945 0.56363 0.0
H576 H 0.79835 0.31738 0.97733 0.0
H577 H 0.80603 0.24923 0.059 0.0
H578 H 0.76317 0.21784 0.03971 0.0
H579 H 0.72393 0.20946 0.99851 0.0
H580 H 0.71487 0.28151 0.91995 0.0
H581 H 0.75763 0.31184 0.93926 0.0
C582 C 0.79069 0.29555 0.99083 0.0
C583 C 0.8055 0.28521 0.01918 0.0
C584 C 0.76567 0.27848 0.98022 0.0
C585 C 0.795 0.25745 0.03695 0.0
C586 C 0.77054 0.23956 0.02593 0.0
C587 C 0.73126 0.23193 0.98583 0.0
C588 C 0.71627 0.24311 0.95776 0.0
C589 C 0.75572 0.24979 0.99747 0.0
C590 C 0.72587 0.27243 0.9417 0.0
C591 C 0.75044 0.28973 0.9526 0.0
H592 H 0.23229 0.75671 0.53018 0.0
H593 H 0.22134 0.68711 0.4488 0.0
H594 H 0.26515 0.70875 0.42299 0.0
H595 H 0.30625 0.74765 0.42288 0.0
H596 H 0.31534 0.82184 0.50043 0.0
H597 H 0.2728 0.79828 0.52855 0.0
C598 C 0.23957 0.74642 0.50679 0.0
C599 C 0.22364 0.72035 0.49141 0.0
C600 C 0.2645 0.7597 0.49151 0.0
C601 C 0.23309 0.70736 0.46098 0.0
C602 C 0.25824 0.7196 0.44627 0.0
C603 C 0.29907 0.75844 0.44613 0.0
C604 C 0.31406 0.78601 0.45991 0.0
C605 C 0.27408 0.74571 0.46127 0.0
C606 C 0.30417 0.80039 0.48955 0.0
C607 C 0.27985 0.78697 0.50554 0.0
H608 H 0.17845 0.57876 0.00611 0.0
H609 H 0.18433 0.51722 0.91839 0.0
H610 H 0.18681 0.46597 0.95165 0.0
H611 H 0.18091 0.43841 1.00525 0.0
H612 H 0.16844 0.49981 0.09218 0.0
H613 H 0.17525 0.55127 0.06003 0.0
C614 C 0.18098 0.55415 0.99443 0.0
C615 C 0.18135 0.55162 0.95998 0.0
C616 C 0.1809 0.52474 0.01364 0.0
C617 C 0.18403 0.51964 0.94495 0.0
C618 C 0.18534 0.49037 0.96393 0.0
C619 C 0.18038 0.46307 0.01717 0.0
C620 C 0.17432 0.46547 0.05094 0.0
C621 C 0.18287 0.49254 0.99825 0.0
C622 C 0.17309 0.49749 0.06614 0.0
C623 C 0.17689 0.52687 0.04777 0.0
H624 H 0.84374 0.54642 0.54372 0.0
H625 H 0.93642 0.55881 0.53572 0.0
H626 H 0.93984 0.50714 0.50278 0.0
H627 H 0.91702 0.45812 0.47724 0.0
H628 H 0.82512 0.44156 0.48819 0.0
H629 H 0.82076 0.49495 0.51928 0.0
C630 C 0.86455 0.53777 0.53448 0.0
C631 C 0.88979 0.55635 0.54182 0.0
C632 C 0.86651 0.50726 0.51639 0.0
C633 C 0.91675 0.5448 0.53032 0.0
C634 C 0.91873 0.5153 0.51152 0.0
C635 C 0.89598 0.46621 0.48633 0.0
C636 C 0.87139 0.44616 0.48027 0.0
C637 C 0.89383 0.49628 0.50459 0.0
C638 C 0.84437 0.45664 0.49264 0.0
C639 C 0.84188 0.48718 0.51028 0.0
H640 H 0.84108 0.43734 1.00371 0.0
H641 H 0.87648 0.47124 0.09655 0.0
H642 H 0.87513 0.5298 0.07785 0.0
H643 H 0.86842 0.5706 0.03316 0.0
H644 H 0.83342 0.53613 0.94023 0.0
H645 H 0.82978 0.47875 0.96119 0.0
C646 C 0.84825 0.45754 0.02 0.0
C647 C 0.85925 0.44982 0.05129 0.0
C648 C 0.84761 0.49112 0.00905 0.0
C649 C 0.86806 0.47641 0.07225 0.0
C650 C 0.86737 0.50993 0.06155 0.0
C651 C 0.85957 0.55066 0.01765 0.0
C652 C 0.8516 0.55767 0.98501 0.0
C653 C 0.85785 0.51749 0.0297 0.0
C654 C 0.84 0.5315 0.96536 0.0
C655 C 0.83797 0.49857 0.97727 0.0
H656 H 0.16559 0.44191 0.52625 0.0
H657 H 0.16002 0.47076 0.42427 0.0
H658 H 0.16298 0.53041 0.4402 0.0
H659 H 0.16444 0.57435 0.48311 0.0
H660 H 0.16827 0.54553 0.5852 0.0
H661 H 0.16889 0.48584 0.56905 0.0
C662 C 0.16526 0.46118 0.50741 0.0
C663 C 0.16246 0.45176 0.47407 0.0
C664 C 0.16656 0.49546 0.51676 0.0
C665 C 0.16203 0.4772 0.4501 0.0
C666 C 0.16371 0.51135 0.4592 0.0
C667 C 0.16567 0.55508 0.50189 0.0
C668 C 0.1662 0.56452 0.53537 0.0
C669 C 0.16557 0.52078 0.49247 0.0
C670 C 0.16774 0.53908 0.55927 0.0
C671 C 0.16806 0.5049 0.55006 0.0
H672 H 0.67185 0.06739 0.01587 0.0
H673 H 0.67647 0.01172 0.92437 0.0
H674 H 0.68045 0.95855 0.95419 0.0
H675 H 0.67792 0.92742 0.006 0.0
H676 H 0.66885 0.98246 0.09743 0.0
H677 H 0.67156 0.03616 0.06813 0.0
C678 C 0.67423 0.04363 1.00257 0.0
C679 C 0.67384 0.0434 0.96805 0.0
C680 C 0.67548 0.01298 0.01989 0.0
C681 C 0.67657 0.01246 0.95101 0.0
C682 C 0.67882 0.98205 0.96802 0.0
C683 C 0.67705 0.95118 0.01954 0.0
C684 C 0.67317 0.951 0.05377 0.0
C685 C 0.67761 0.98192 1.00243 0.0
C686 C 0.67172 0.98197 0.071 0.0
C687 C 0.67322 0.01268 0.05426 0.0
H688 H 0.3539 0.93574 0.50045 0.0
H689 H 0.352 1.0014 0.41631 0.0
H690 H 0.34815 0.05093 0.45244 0.0
H691 H 0.35075 0.07587 0.50793 0.0
H692 H 0.3572 0.01035 0.59189 0.0
H693 H 0.35351 0.96058 0.55605 0.0
C694 C 0.35207 0.96085 0.49007 0.0
C695 C 0.35329 0.96495 0.45582 0.0
C696 C 0.35093 0.9893 0.51102 0.0
C697 C 0.35125 0.99765 0.44265 0.0
C698 C 0.3491 0.02598 0.46329 0.0
C699 C 0.35077 0.0507 0.51839 0.0
C700 C 0.35429 0.04675 0.55245 0.0
C701 C 0.34972 0.02218 0.49752 0.0
C702 C 0.35464 0.014 0.56568 0.0
C703 C 0.35259 0.98553 0.54521 0.0
H704 H 0.35175 0.97547 0.06377 0.0
H705 H 0.35822 0.92612 0.96892 0.0
H706 H 0.35547 0.98101 0.94185 0.0
H707 H 0.35505 0.04293 0.94534 0.0
H708 H 0.35146 0.09242 0.04032 0.0
H709 H 0.34903 0.03735 0.06714 0.0
C710 C 0.3522 0.97662 0.03714 0.0
C711 C 0.35531 0.9467 0.0184 0.0
C712 C 0.35129 0.00827 0.0218 0.0
C713 C 0.35599 0.94874 0.98394 0.0
C714 C 0.35444 0.98013 0.96845 0.0
C715 C 0.35337 0.04176 0.97191 0.0
C716 C 0.35355 0.07179 0.99081 0.0
C717 C 0.35267 0.01006 0.98717 0.0
C718 C 0.3515 0.06972 0.0252 0.0
C719 C 0.35014 0.03824 0.04054 0.0
H720 H 0.68255 0.06389 0.49128 0.0
H721 H 0.68891 0.02384 0.58944 0.0
H722 H 0.69157 0.96641 0.56712 0.0
H723 H 0.68678 0.92731 0.52013 0.0
H724 H 0.68061 0.96753 0.42199 0.0
H725 H 0.68348 0.02503 0.44395 0.0
C726 C 0.68491 0.04264 0.50778 0.0
C727 C 0.68509 0.04817 0.54198 0.0
C728 C 0.68623 0.00963 0.49482 0.0
C729 C 0.68857 0.02036 0.563 0.0
C730 C 0.68995 0.98744 0.55027 0.0
C731 C 0.68642 0.94864 0.5035 0.0
C732 C 0.68304 0.94308 0.46952 0.0
C733 C 0.68796 0.98173 0.51629 0.0
C734 C 0.68303 0.97101 0.44829 0.0
C735 C 0.68456 0.00397 0.46082 0.0
loop_
_geom_bond_atom_site_label_1
_geom_bond_atom_site_label_2
_geom_bond_distance
_geom_bond_site_symmetry_2
_ccdc_geom_bond_type
O0 Cd1 2.223 . S
O0 C8 1.315 . S
Cd1 O0 2.223 . S
Cd1 O4 2.297 . S
Cd1 O5 2.439 . S
Cd1 O11 2.240 . S
Cd2 O3 2.240 . S
Cd2 O10 2.223 . S
Cd2 O12 2.297 . S
Cd2 O13 2.439 . S
O3 Cd2 2.240 . S
O3 C8 1.279 . S
O4 Cd1 2.297 . S
O4 C6 1.247 . S
O5 Cd1 2.439 . S
O5 C6 1.208 . S
C6 O4 1.247 . S
C6 O5 1.208 . S
C7 O12 1.247 . S
C7 O13 1.208 . S
C8 O0 1.315 . S
C8 O3 1.279 . S
C9 O10 1.315 . S
C9 O11 1.279 . S
O10 Cd2 2.223 . S
O10 C9 1.315 . S
O11 Cd1 2.240 . S
O11 C9 1.279 . S
O12 Cd2 2.297 . S
O12 C7 1.247 . S
O13 Cd2 2.439 . S
O13 C7 1.208 . S
O14 Cd15 2.223 . S
O14 C22 1.315 . S
Cd15 O14 2.223 . S
Cd15 O18 2.297 . S
Cd15 O19 2.439 . S
Cd15 O25 2.240 . S
Cd16 O17 2.240 . S
Cd16 O24 2.223 . S
Cd16 O26 2.297 . S
Cd16 O27 2.439 . S
O17 Cd16 2.240 . S
O17 C22 1.279 . S
O18 Cd15 2.297 . S
O18 C20 1.247 . S
O19 Cd15 2.439 . S
O19 C20 1.208 . S
C20 O18 1.247 . S
C20 O19 1.208 . S
C21 O26 1.247 . S
C21 O27 1.208 . S
C22 O14 1.315 . S
C22 O17 1.279 . S
C23 O24 1.315 . S
C23 O25 1.279 . S
O24 Cd16 2.223 . S
O24 C23 1.315 . S
O25 Cd15 2.240 . S
O25 C23 1.279 . S
O26 Cd16 2.297 . S
O26 C21 1.247 . S
O27 Cd16 2.439 . S
O27 C21 1.208 . S
O28 Cd29 2.223 . S
O28 C36 1.315 . S
Cd29 O28 2.223 . S
Cd29 O32 2.297 . S
Cd29 O33 2.439 . S
Cd29 O39 2.240 . S
Cd30 O31 2.240 . S
Cd30 O38 2.223 . S
Cd30 O40 2.297 . S
Cd30 O41 2.439 . S
O31 Cd30 2.240 . S
O31 C36 1.279 . S
O32 Cd29 2.297 . S
O32 C34 1.247 . S
O33 Cd29 2.439 . S
O33 C34 1.208 . S
C34 O32 1.247 . S
C34 O33 1.208 . S
C35 O40 1.247 . S
C35 O41 1.208 . S
C36 O28 1.315 . S
C36 O31 1.279 . S
C37 O38 1.315 . S
C37 O39 1.279 . S
O38 Cd30 2.223 . S
O38 C37 1.315 . S
O39 Cd29 2.240 . S
O39 C37 1.279 . S
O40 Cd30 2.297 . S
O40 C35 1.247 . S
O41 Cd30 2.439 . S
O41 C35 1.208 . S
O42 Cd43 2.223 . S
O42 C50 1.315 . S
Cd43 O42 2.223 . S
Cd43 O46 2.297 . S
Cd43 O47 2.439 . S
Cd43 O53 2.240 . S
Cd44 O45 2.240 . S
Cd44 O52 2.223 . S
Cd44 O54 2.297 . S
Cd44 O55 2.439 . S
O45 Cd44 2.240 . S
O45 C50 1.279 . S
O46 Cd43 2.297 . S
O46 C48 1.247 . S
O47 Cd43 2.439 . S
O47 C48 1.208 . S
C48 O46 1.247 . S
C48 O47 1.208 . S
C49 O54 1.247 . S
C49 O55 1.208 . S
C50 O42 1.315 . S
C50 O45 1.279 . S
C51 O52 1.315 . S
C51 O53 1.279 . S
O52 Cd44 2.223 . S
O52 C51 1.315 . S
O53 Cd43 2.240 . S
O53 C51 1.279 . S
O54 Cd44 2.297 . S
O54 C49 1.247 . S
O55 Cd44 2.439 . S
O55 C49 1.208 . S
O56 Cd57 2.223 . S
O56 C64 1.315 . S
Cd57 O56 2.223 . S
Cd57 O60 2.297 . S
Cd57 O61 2.439 . S
Cd57 O67 2.240 . S
Cd58 O59 2.240 . S
Cd58 O66 2.223 . S
Cd58 O68 2.297 . S
Cd58 O69 2.439 . S
O59 Cd58 2.240 . S
O59 C64 1.279 . S
O60 Cd57 2.297 . S
O60 C62 1.247 . S
O61 Cd57 2.439 . S
O61 C62 1.208 . S
C62 O60 1.247 . S
C62 O61 1.208 . S
C63 O68 1.247 . S
C63 O69 1.208 . S
C64 O56 1.315 . S
C64 O59 1.279 . S
C65 O66 1.315 . S
C65 O67 1.279 . S
O66 Cd58 2.223 . S
O66 C65 1.315 . S
O67 Cd57 2.240 . S
O67 C65 1.279 . S
O68 Cd58 2.297 . S
O68 C63 1.247 . S
O69 Cd58 2.439 . S
O69 C63 1.208 . S
O70 Cd71 2.223 . S
O70 C78 1.315 . S
Cd71 O70 2.223 . S
Cd71 O74 2.297 . S
Cd71 O75 2.439 . S
Cd71 O81 2.240 . S
Cd72 O73 2.240 . S
Cd72 O80 2.223 . S
Cd72 O82 2.297 . S
Cd72 O83 2.439 . S
O73 Cd72 2.240 . S
O73 C78 1.279 . S
O74 Cd71 2.297 . S
O74 C76 1.247 . S
O75 Cd71 2.439 . S
O75 C76 1.208 . S
C76 O74 1.247 . S
C76 O75 1.208 . S
C77 O82 1.247 . S
C77 O83 1.208 . S
C78 O70 1.315 . S
C78 O73 1.279 . S
C79 O80 1.315 . S
C79 O81 1.279 . S
O80 Cd72 2.223 . S
O80 C79 1.315 . S
O81 Cd71 2.240 . S
O81 C79 1.279 . S
O82 Cd72 2.297 . S
O82 C77 1.247 . S
O83 Cd72 2.439 . S
O83 C77 1.208 . S
O84 Cd85 2.223 . S
O84 C92 1.315 . S
Cd85 O84 2.223 . S
Cd85 O88 2.297 . S
Cd85 O89 2.439 . S
Cd85 O95 2.240 . S
Cd86 O87 2.240 . S
Cd86 O94 2.223 . S
Cd86 O96 2.297 . S
Cd86 O97 2.439 . S
O87 Cd86 2.240 . S
O87 C92 1.279 . S
O88 Cd85 2.297 . S
O88 C90 1.247 . S
O89 Cd85 2.439 . S
O89 C90 1.208 . S
C90 O88 1.247 . S
C90 O89 1.208 . S
C91 O96 1.247 . S
C91 O97 1.208 . S
C92 O84 1.315 . S
C92 O87 1.279 . S
C93 O94 1.315 . S
C93 O95 1.279 . S
O94 Cd86 2.223 . S
O94 C93 1.315 . S
O95 Cd85 2.240 . S
O95 C93 1.279 . S
O96 Cd86 2.297 . S
O96 C91 1.247 . S
O97 Cd86 2.439 . S
O97 C91 1.208 . S
O98 Cd99 2.223 . S
O98 C106 1.315 . S
Cd99 O98 2.223 . S
Cd99 O102 2.297 . S
Cd99 O103 2.439 . S
Cd99 O109 2.240 . S
Cd100 O101 2.240 . S
Cd100 O108 2.223 . S
Cd100 O110 2.297 . S
Cd100 O111 2.439 . S
O101 Cd100 2.240 . S
O101 C106 1.279 . S
O102 Cd99 2.297 . S
O102 C104 1.247 . S
O103 Cd99 2.439 . S
O103 C104 1.208 . S
C104 O102 1.247 . S
C104 O103 1.208 . S
C105 O110 1.247 . S
C105 O111 1.208 . S
C106 O98 1.315 . S
C106 O101 1.279 . S
C107 O108 1.315 . S
C107 O109 1.279 . S
O108 Cd100 2.223 . S
O108 C107 1.315 . S
O109 Cd99 2.240 . S
O109 C107 1.279 . S
O110 Cd100 2.297 . S
O110 C105 1.247 . S
O111 Cd100 2.439 . S
O111 C105 1.208 . S
O112 Cd113 2.223 . S
O112 C120 1.315 . S
Cd113 O112 2.223 . S
Cd113 O116 2.297 . S
Cd113 O117 2.439 . S
Cd113 O123 2.240 . S
Cd114 O115 2.240 . S
Cd114 O122 2.223 . S
Cd114 O124 2.297 . S
Cd114 O125 2.439 . S
O115 Cd114 2.240 . S
O115 C120 1.279 . S
O116 Cd113 2.297 . S
O116 C118 1.247 . S
O117 Cd113 2.439 . S
O117 C118 1.208 . S
C118 O116 1.247 . S
C118 O117 1.208 . S
C119 O124 1.247 . S
C119 O125 1.208 . S
C120 O112 1.315 . S
C120 O115 1.279 . S
C121 O122 1.315 . S
C121 O123 1.279 . S
O122 Cd114 2.223 . S
O122 C121 1.315 . S
O123 Cd113 2.240 . S
O123 C121 1.279 . S
O124 Cd114 2.297 . S
O124 C119 1.247 . S
O125 Cd114 2.439 . S
O125 C119 1.208 . S
O126 Cd127 2.223 . S
O126 C134 1.315 . S
Cd127 O126 2.223 . S
Cd127 O130 2.297 . S
Cd127 O131 2.439 . S
Cd127 O137 2.240 . S
Cd128 O129 2.240 . S
Cd128 O136 2.223 . S
Cd128 O138 2.297 . S
Cd128 O139 2.439 . S
O129 Cd128 2.240 . S
O129 C134 1.279 . S
O130 Cd127 2.297 . S
O130 C132 1.247 . S
O131 Cd127 2.439 . S
O131 C132 1.208 . S
C132 O130 1.247 . S
C132 O131 1.208 . S
C133 O138 1.247 . S
C133 O139 1.208 . S
C134 O126 1.315 . S
C134 O129 1.279 . S
C135 O136 1.315 . S
C135 O137 1.279 . S
O136 Cd128 2.223 . S
O136 C135 1.315 . S
O137 Cd127 2.240 . S
O137 C135 1.279 . S
O138 Cd128 2.297 . S
O138 C133 1.247 . S
O139 Cd128 2.439 . S
O139 C133 1.208 . S
O140 Cd141 2.223 . S
O140 C148 1.315 . S
Cd141 O140 2.223 . S
Cd141 O144 2.297 . S
Cd141 O145 2.439 . S
Cd141 O151 2.240 . S
Cd142 O143 2.240 . S
Cd142 O150 2.223 . S
Cd142 O152 2.297 . S
Cd142 O153 2.439 . S
O143 Cd142 2.240 . S
O143 C148 1.279 . S
O144 Cd141 2.297 . S
O144 C146 1.247 . S
O145 Cd141 2.439 . S
O145 C146 1.208 . S
C146 O144 1.247 . S
C146 O145 1.208 . S
C147 O152 1.247 . S
C147 O153 1.208 . S
C148 O140 1.315 . S
C148 O143 1.279 . S
C149 O150 1.315 . S
C149 O151 1.279 . S
O150 Cd142 2.223 . S
O150 C149 1.315 . S
O151 Cd141 2.240 . S
O151 C149 1.279 . S
O152 Cd142 2.297 . S
O152 C147 1.247 . S
O153 Cd142 2.439 . S
O153 C147 1.208 . S
O154 Cd155 2.223 . S
O154 C162 1.315 . S
Cd155 O154 2.223 . S
Cd155 O158 2.297 . S
Cd155 O159 2.439 . S
Cd155 O165 2.240 . S
Cd156 O157 2.240 . S
Cd156 O164 2.223 . S
Cd156 O166 2.297 . S
Cd156 O167 2.439 . S
O157 Cd156 2.240 . S
O157 C162 1.279 . S
O158 Cd155 2.297 . S
O158 C160 1.247 . S
O159 Cd155 2.439 . S
O159 C160 1.208 . S
C160 O158 1.247 . S
C160 O159 1.208 . S
C161 O166 1.247 . S
C161 O167 1.208 . S
C162 O154 1.315 . S
C162 O157 1.279 . S
C163 O164 1.315 . S
C163 O165 1.279 . S
O164 Cd156 2.223 . S
O164 C163 1.315 . S
O165 Cd155 2.240 . S
O165 C163 1.279 . S
O166 Cd156 2.297 . S
O166 C161 1.247 . S
O167 Cd156 2.439 . S
O167 C161 1.208 . S
O168 Cd169 2.223 . S
O168 C176 1.315 . S
Cd169 O168 2.223 . S
Cd169 O172 2.297 . S
Cd169 O173 2.439 . S
Cd169 O179 2.240 . S
Cd170 O171 2.240 . S
Cd170 O178 2.223 . S
Cd170 O180 2.297 . S
Cd170 O181 2.439 . S
O171 Cd170 2.240 . S
O171 C176 1.279 . S
O172 Cd169 2.297 . S
O172 C174 1.247 . S
O173 Cd169 2.439 . S
O173 C174 1.208 . S
C174 O172 1.247 . S
C174 O173 1.208 . S
C175 O180 1.247 . S
C175 O181 1.208 . S
C176 O168 1.315 . S
C176 O171 1.279 . S
C177 O178 1.315 . S
C177 O179 1.279 . S
O178 Cd170 2.223 . S
O178 C177 1.315 . S
O179 Cd169 2.240 . S
O179 C177 1.279 . S
O180 Cd170 2.297 . S
O180 C175 1.247 . S
O181 Cd170 2.439 . S
O181 C175 1.208 . S
O182 Cd183 2.223 . S
O182 C190 1.315 . S
Cd183 O182 2.223 . S
Cd183 O186 2.297 . S
Cd183 O187 2.439 . S
Cd183 O193 2.240 . S
Cd184 O185 2.240 . S
Cd184 O192 2.223 . S
Cd184 O194 2.297 . S
Cd184 O195 2.439 . S
O185 Cd184 2.240 . S
O185 C190 1.279 . S
O186 Cd183 2.297 . S
O186 C188 1.247 . S
O187 Cd183 2.439 . S
O187 C188 1.208 . S
C188 O186 1.247 . S
C188 O187 1.208 . S
C189 O194 1.247 . S
C189 O195 1.208 . S
C190 O182 1.315 . S
C190 O185 1.279 . S
C191 O192 1.315 . S
C191 O193 1.279 . S
O192 Cd184 2.223 . S
O192 C191 1.315 . S
O193 Cd183 2.240 . S
O193 C191 1.279 . S
O194 Cd184 2.297 . S
O194 C189 1.247 . S
O195 Cd184 2.439 . S
O195 C189 1.208 . S
O196 Cd197 2.223 . S
O196 C204 1.315 . S
Cd197 O196 2.223 . S
Cd197 O200 2.297 . S
Cd197 O201 2.439 . S
Cd197 O207 2.240 . S
Cd198 O199 2.240 . S
Cd198 O206 2.223 . S
Cd198 O208 2.297 . S
Cd198 O209 2.439 . S
O199 Cd198 2.240 . S
O199 C204 1.279 . S
O200 Cd197 2.297 . S
O200 C202 1.247 . S
O201 Cd197 2.439 . S
O201 C202 1.208 . S
C202 O200 1.247 . S
C202 O201 1.208 . S
C203 O208 1.247 . S
C203 O209 1.208 . S
C204 O196 1.315 . S
C204 O199 1.279 . S
C205 O206 1.315 . S
C205 O207 1.279 . S
O206 Cd198 2.223 . S
O206 C205 1.315 . S
O207 Cd197 2.240 . S
O207 C205 1.279 . S
O208 Cd198 2.297 . S
O208 C203 1.247 . S
O209 Cd198 2.439 . S
O209 C203 1.208 . S
O210 Cd211 2.223 . S
O210 C218 1.315 . S
Cd211 O210 2.223 . S
Cd211 O214 2.297 . S
Cd211 O215 2.439 . S
Cd211 O221 2.240 . S
Cd212 O213 2.240 . S
Cd212 O220 2.223 . S
Cd212 O222 2.297 . S
Cd212 O223 2.439 . S
O213 Cd212 2.240 . S
O213 C218 1.279 . S
O214 Cd211 2.297 . S
O214 C216 1.247 . S
O215 Cd211 2.439 . S
O215 C216 1.208 . S
C216 O214 1.247 . S
C216 O215 1.208 . S
C217 O222 1.247 . S
C217 O223 1.208 . S
C218 O210 1.315 . S
C218 O213 1.279 . S
C219 O220 1.315 . S
C219 O221 1.279 . S
O220 Cd212 2.223 . S
O220 C219 1.315 . S
O221 Cd211 2.240 . S
O221 C219 1.279 . S
O222 Cd212 2.297 . S
O222 C217 1.247 . S
O223 Cd212 2.439 . S
O223 C217 1.208 . S
H224 C230 0.930 . S
H225 C233 0.930 . S
H226 C234 0.930 . S
H227 C235 0.930 . S
H228 C238 0.930 . S
H229 C239 0.930 . S
C230 H224 0.930 . S
C230 C231 1.355 . S
C230 C232 1.415 1_455 S
C231 C230 1.355 . S
C231 C233 1.419 . S
C232 C230 1.415 1_655 S
C232 C237 1.425 . S
C232 C239 1.409 . S
C233 H225 0.930 . S
C233 C231 1.419 . S
C233 C234 1.362 . S
C234 H226 0.930 . S
C234 C233 1.362 . S
C234 C237 1.409 1_455 S
C235 H227 0.930 . S
C235 C236 1.355 . S
C235 C237 1.415 . S
C236 C235 1.355 . S
C236 C238 1.419 . S
C237 C232 1.425 . S
C237 C234 1.409 1_655 S
C237 C235 1.415 . S
C238 H228 0.930 . S
C238 C236 1.419 . S
C238 C239 1.362 . S
C239 H229 0.930 . S
C239 C232 1.409 . S
C239 C238 1.362 . S
H240 C246 0.930 . S
H241 C249 0.930 . S
H242 C250 0.918 1_455 S
H243 C251 0.930 . S
H244 C254 0.930 . S
H245 C255 0.930 . S
C246 H240 0.930 . S
C246 C247 1.355 . S
C246 C248 1.415 1_655 S
C247 C246 1.355 . S
C247 C249 1.419 . S
C248 C246 1.415 1_455 S
C248 C253 1.425 . S
C248 C255 1.409 . S
C249 H241 0.930 . S
C249 C247 1.419 . S
C249 C250 1.392 . S
C250 H242 0.918 1_655 S
C250 C249 1.392 . S
C250 C253 1.392 1_655 S
C251 H243 0.930 . S
C251 C252 1.355 . S
C251 C253 1.415 . S
C252 C251 1.355 . S
C252 C254 1.419 . S
C253 C248 1.425 . S
C253 C250 1.392 1_455 S
C253 C251 1.415 . S
C254 H244 0.930 . S
C254 C252 1.419 . S
C254 C255 1.362 . S
C255 H245 0.930 . S
C255 C248 1.409 . S
C255 C254 1.362 . S
H256 C262 0.930 . S
H257 C265 0.930 . S
H258 C266 0.930 . S
H259 C267 0.930 . S
H260 C270 0.930 . S
H261 C271 0.915 1_655 S
C262 H256 0.930 . S
C262 C263 1.355 . S
C262 C264 1.415 . S
C263 C262 1.355 . S
C263 C265 1.419 . S
C264 C262 1.415 . S
C264 C269 1.425 . S
C264 C271 1.387 1_655 S
C265 H257 0.930 . S
C265 C263 1.419 . S
C265 C266 1.362 . S
C266 H258 0.930 . S
C266 C265 1.362 . S
C266 C269 1.409 . S
C267 H259 0.930 . S
C267 C268 1.355 . S
C267 C269 1.415 1_455 S
C268 C267 1.355 . S
C268 C270 1.419 . S
C269 C264 1.425 . S
C269 C266 1.409 . S
C269 C267 1.415 1_655 S
C270 H260 0.930 . S
C270 C268 1.419 . S
C270 C271 1.400 . S
C271 H261 0.915 1_455 S
C271 C264 1.387 1_455 S
C271 C270 1.400 . S
H272 C278 0.930 . S
H273 C281 0.930 . S
H274 C282 0.930 . S
H275 C283 0.930 . S
H276 C286 0.930 . S
H277 C287 0.918 1_455 S
C278 H272 0.930 . S
C278 C279 1.355 . S
C278 C280 1.415 . S
C279 C278 1.355 . S
C279 C281 1.419 . S
C280 C278 1.415 . S
C280 C285 1.425 . S
C280 C287 1.393 1_455 S
C281 H273 0.930 . S
C281 C279 1.419 . S
C281 C282 1.362 . S
C282 H274 0.930 . S
C282 C281 1.362 . S
C282 C285 1.409 . S
C283 H275 0.930 . S
C283 C284 1.355 . S
C283 C285 1.415 1_655 S
C284 C283 1.355 . S
C284 C286 1.419 . S
C285 C280 1.425 . S
C285 C282 1.409 . S
C285 C283 1.415 1_455 S
C286 H276 0.930 . S
C286 C284 1.419 . S
C286 C287 1.391 . S
C287 H277 0.918 1_655 S
C287 C280 1.393 1_655 S
C287 C286 1.391 . S
H288 C294 0.930 . S
H289 C297 0.930 . S
H290 C298 0.930 . S
H291 C299 0.930 . S
H292 C302 0.930 . S
H293 C303 0.930 . S
C294 H288 0.930 . S
C294 C295 1.355 . S
C294 C296 1.415 . S
C295 C294 1.355 . S
C295 C297 1.419 . S
C296 C294 1.415 . S
C296 C301 1.425 . S
C296 C303 1.409 . S
C297 H289 0.930 . S
C297 C295 1.419 . S
C297 C298 1.362 . S
C298 H290 0.930 . S
C298 C297 1.362 . S
C298 C301 1.409 . S
C299 H291 0.930 . S
C299 C300 1.355 . S
C299 C301 1.415 . S
C300 C299 1.355 . S
C300 C302 1.419 . S
C301 C296 1.425 . S
C301 C298 1.409 . S
C301 C299 1.415 . S
C302 H292 0.930 . S
C302 C300 1.419 . S
C302 C303 1.362 . S
C303 H293 0.930 . S
C303 C296 1.409 . S
C303 C302 1.362 . S
H304 C310 0.930 . S
H305 C313 0.930 . S
H306 C314 0.930 . S
H307 C315 0.930 . S
H308 C318 0.930 . S
H309 C319 0.930 . S
C310 H304 0.930 . S
C310 C311 1.355 . S
C310 C312 1.415 . S
C311 C310 1.355 . S
C311 C313 1.419 . S
C312 C310 1.415 . S
C312 C317 1.425 . S
C312 C319 1.409 . S
C313 H305 0.930 . S
C313 C311 1.419 . S
C313 C314 1.362 . S
C314 H306 0.930 . S
C314 C313 1.362 . S
C314 C317 1.409 . S
C315 H307 0.930 . S
C315 C316 1.355 . S
C315 C317 1.415 . S
C316 C315 1.355 . S
C316 C318 1.419 . S
C317 C312 1.425 . S
C317 C314 1.409 . S
C317 C315 1.415 . S
C318 H308 0.930 . S
C318 C316 1.419 . S
C318 C319 1.362 . S
C319 H309 0.930 . S
C319 C312 1.409 . S
C319 C318 1.362 . S
H320 C326 0.930 . S
H321 C329 0.930 . S
H322 C330 0.930 . S
H323 C331 0.930 . S
H324 C334 0.930 . S
H325 C335 0.930 . S
C326 H320 0.930 . S
C326 C327 1.355 . S
C326 C328 1.415 . S
C327 C326 1.355 . S
C327 C329 1.419 . S
C328 C326 1.415 . S
C328 C333 1.425 . S
C328 C335 1.409 . S
C329 H321 0.930 . S
C329 C327 1.419 . S
C329 C330 1.362 . S
C330 H322 0.930 . S
C330 C329 1.362 . S
C330 C333 1.409 . S
C331 H323 0.930 . S
C331 C332 1.355 . S
C331 C333 1.415 . S
C332 C331 1.355 . S
C332 C334 1.419 . S
C333 C328 1.425 . S
C333 C330 1.409 . S
C333 C331 1.415 . S
C334 H324 0.930 . S
C334 C332 1.419 . S
C334 C335 1.362 . S
C335 H325 0.930 . S
C335 C328 1.409 . S
C335 C334 1.362 . S
H336 C342 0.930 . S
H337 C345 0.930 . S
H338 C346 0.930 . S
H339 C347 0.930 . S
H340 C350 0.930 . S
H341 C351 0.930 . S
C342 H336 0.930 . S
C342 C343 1.355 . S
C342 C344 1.415 . S
C343 C342 1.355 . S
C343 C345 1.419 . S
C344 C342 1.415 . S
C344 C349 1.425 . S
C344 C351 1.409 . S
C345 H337 0.930 . S
C345 C343 1.419 . S
C345 C346 1.362 . S
C346 H338 0.930 . S
C346 C345 1.362 . S
C346 C349 1.409 . S
C347 H339 0.930 . S
C347 C348 1.355 . S
C347 C349 1.415 . S
C348 C347 1.355 . S
C348 C350 1.419 . S
C349 C344 1.425 . S
C349 C346 1.409 . S
C349 C347 1.415 . S
C350 H340 0.930 . S
C350 C348 1.419 . S
C350 C351 1.362 . S
C351 H341 0.930 . S
C351 C344 1.409 . S
C351 C350 1.362 . S
H352 C358 0.930 . S
H353 C361 0.930 . S
H354 C362 0.930 . S
H355 C363 0.930 . S
H356 C366 0.930 . S
H357 C367 0.930 . S
C358 H352 0.930 . S
C358 C359 1.355 . S
C358 C360 1.415 . S
C359 C358 1.355 . S
C359 C361 1.419 . S
C360 C358 1.415 . S
C360 C365 1.425 . S
C360 C367 1.409 . S
C361 H353 0.930 . S
C361 C359 1.419 . S
C361 C362 1.362 . S
C362 H354 0.930 . S
C362 C361 1.362 . S
C362 C365 1.409 . S
C363 H355 0.930 . S
C363 C364 1.355 . S
C363 C365 1.415 . S
C364 C363 1.355 . S
C364 C366 1.419 . S
C365 C360 1.425 . S
C365 C362 1.409 . S
C365 C363 1.415 . S
C366 H356 0.930 . S
C366 C364 1.419 . S
C366 C367 1.362 . S
C367 H357 0.930 . S
C367 C360 1.409 . S
C367 C366 1.362 . S
H368 C374 0.930 . S
H369 C377 0.930 . S
H370 C378 0.930 . S
H371 C379 0.930 . S
H372 C382 0.930 . S
H373 C383 0.930 . S
C374 H368 0.930 . S
C374 C375 1.355 . S
C374 C376 1.415 . S
C375 C374 1.355 . S
C375 C377 1.419 . S
C376 C374 1.415 . S
C376 C381 1.425 . S
C376 C383 1.409 . S
C377 H369 0.930 . S
C377 C375 1.419 . S
C377 C378 1.362 . S
C378 H370 0.930 . S
C378 C377 1.362 . S
C378 C381 1.409 . S
C379 H371 0.930 . S
C379 C380 1.355 . S
C379 C381 1.415 . S
C380 C379 1.355 . S
C380 C382 1.419 . S
C381 C376 1.425 . S
C381 C378 1.409 . S
C381 C379 1.415 . S
C382 H372 0.930 . S
C382 C380 1.419 . S
C382 C383 1.362 . S
C383 H373 0.930 . S
C383 C376 1.409 . S
C383 C382 1.362 . S
H384 C390 0.930 . S
H385 C393 0.930 . S
H386 C394 0.930 . S
H387 C395 0.930 . S
H388 C398 0.930 . S
H389 C399 0.930 . S
C390 H384 0.930 . S
C390 C391 1.355 . S
C390 C392 1.415 . S
C391 C390 1.355 . S
C391 C393 1.419 . S
C392 C390 1.415 . S
C392 C397 1.425 . S
C392 C399 1.409 . S
C393 H385 0.930 . S
C393 C391 1.419 . S
C393 C394 1.362 . S
C394 H386 0.930 . S
C394 C393 1.362 . S
C394 C397 1.409 . S
C395 H387 0.930 . S
C395 C396 1.355 . S
C395 C397 1.415 . S
C396 C395 1.355 . S
C396 C398 1.419 . S
C397 C392 1.425 . S
C397 C394 1.409 . S
C397 C395 1.415 . S
C398 H388 0.930 . S
C398 C396 1.419 . S
C398 C399 1.362 . S
C399 H389 0.930 . S
C399 C392 1.409 . S
C399 C398 1.362 . S
H400 C406 0.930 . S
H401 C409 0.930 . S
H402 C410 0.930 . S
H403 C411 0.930 . S
H404 C414 0.930 . S
H405 C415 0.930 . S
C406 H400 0.930 . S
C406 C407 1.355 . S
C406 C408 1.415 . S
C407 C406 1.355 . S
C407 C409 1.419 . S
C408 C406 1.415 . S
C408 C413 1.425 . S
C408 C415 1.409 . S
C409 H401 0.930 . S
C409 C407 1.419 . S
C409 C410 1.362 . S
C410 H402 0.930 . S
C410 C409 1.362 . S
C410 C413 1.409 . S
C411 H403 0.930 . S
C411 C412 1.355 . S
C411 C413 1.415 . S
C412 C411 1.355 . S
C412 C414 1.419 . S
C413 C408 1.425 . S
C413 C410 1.409 . S
C413 C411 1.415 . S
C414 H404 0.930 . S
C414 C412 1.419 . S
C414 C415 1.362 . S
C415 H405 0.930 . S
C415 C408 1.409 . S
C415 C414 1.362 . S
H416 C422 0.930 . S
H417 C425 0.930 . S
H418 C426 0.930 . S
H419 C427 0.930 . S
H420 C430 0.930 . S
H421 C431 0.930 . S
C422 H416 0.930 . S
C422 C423 1.355 . S
C422 C424 1.415 . S
C423 C422 1.355 . S
C423 C425 1.419 . S
C424 C422 1.415 . S
C424 C429 1.425 . S
C424 C431 1.409 . S
C425 H417 0.930 . S
C425 C423 1.419 . S
C425 C426 1.362 . S
C426 H418 0.930 . S
C426 C425 1.362 . S
C426 C429 1.409 . S
C427 H419 0.930 . S
C427 C428 1.355 . S
C427 C429 1.415 . S
C428 C427 1.355 . S
C428 C430 1.419 . S
C429 C424 1.425 . S
C429 C426 1.409 . S
C429 C427 1.415 . S
C430 H420 0.930 . S
C430 C428 1.419 . S
C430 C431 1.362 . S
C431 H421 0.930 . S
C431 C424 1.409 . S
C431 C430 1.362 . S
H432 C438 0.930 . S
H433 C441 0.930 . S
H434 C442 0.930 . S
H435 C443 0.930 . S
H436 C446 0.930 . S
H437 C447 0.930 . S
C438 H432 0.930 . S
C438 C439 1.355 . S
C438 C440 1.415 . S
C439 C438 1.355 . S
C439 C441 1.419 . S
C440 C438 1.415 . S
C440 C445 1.425 . S
C440 C447 1.409 . S
C441 H433 0.930 . S
C441 C439 1.419 . S
C441 C442 1.362 . S
C442 H434 0.930 . S
C442 C441 1.362 . S
C442 C445 1.409 . S
C443 H435 0.930 . S
C443 C444 1.355 . S
C443 C445 1.415 . S
C444 C443 1.355 . S
C444 C446 1.419 . S
C445 C440 1.425 . S
C445 C442 1.409 . S
C445 C443 1.415 . S
C446 H436 0.930 . S
C446 C444 1.419 . S
C446 C447 1.362 . S
C447 H437 0.930 . S
C447 C440 1.409 . S
C447 C446 1.362 . S
H448 C454 0.930 . S
H449 C457 0.930 . S
H450 C458 0.930 . S
H451 C459 0.930 . S
H452 C462 0.930 . S
H453 C463 0.930 . S
C454 H448 0.930 . S
C454 C455 1.355 . S
C454 C456 1.415 . S
C455 C454 1.355 . S
C455 C457 1.419 . S
C456 C454 1.415 . S
C456 C461 1.425 . S
C456 C463 1.409 . S
C457 H449 0.930 . S
C457 C455 1.419 . S
C457 C458 1.362 . S
C458 H450 0.930 . S
C458 C457 1.362 . S
C458 C461 1.409 . S
C459 H451 0.930 . S
C459 C460 1.355 . S
C459 C461 1.415 . S
C460 C459 1.355 . S
C460 C462 1.419 . S
C461 C456 1.425 . S
C461 C458 1.409 . S
C461 C459 1.415 . S
C462 H452 0.930 . S
C462 C460 1.419 . S
C462 C463 1.362 . S
C463 H453 0.930 . S
C463 C456 1.409 . S
C463 C462 1.362 . S
H464 C470 0.930 . S
H465 C473 0.930 . S
H466 C474 0.930 . S
H467 C475 0.930 . S
H468 C478 0.930 . S
H469 C479 0.930 . S
C470 H464 0.930 . S
C470 C471 1.355 . S
C470 C472 1.415 . S
C471 C470 1.355 . S
C471 C473 1.419 . S
C472 C470 1.415 . S
C472 C477 1.425 . S
C472 C479 1.409 . S
C473 H465 0.930 . S
C473 C471 1.419 . S
C473 C474 1.362 . S
C474 H466 0.930 . S
C474 C473 1.362 . S
C474 C477 1.409 . S
C475 H467 0.930 . S
C475 C476 1.355 . S
C475 C477 1.415 . S
C476 C475 1.355 . S
C476 C478 1.419 . S
C477 C472 1.425 . S
C477 C474 1.409 . S
C477 C475 1.415 . S
C478 H468 0.930 . S
C478 C476 1.419 . S
C478 C479 1.362 . S
C479 H469 0.930 . S
C479 C472 1.409 . S
C479 C478 1.362 . S
H480 C486 0.930 . S
H481 C489 0.930 . S
H482 C490 0.930 . S
H483 C491 0.930 . S
H484 C494 0.930 . S
H485 C495 0.930 . S
C486 H480 0.930 . S
C486 C487 1.355 . S
C486 C488 1.415 1_556 S
C487 C486 1.355 . S
C487 C489 1.419 . S
C488 C486 1.415 1_554 S
C488 C493 1.425 . S
C488 C495 1.409 . S
C489 H481 0.930 . S
C489 C487 1.419 . S
C489 C490 1.362 . S
C490 H482 0.930 . S
C490 C489 1.362 . S
C490 C493 1.409 1_556 S
C491 H483 0.930 . S
C491 C492 1.355 . S
C491 C493 1.415 . S
C492 C491 1.355 . S
C492 C494 1.419 . S
C493 C488 1.425 . S
C493 C490 1.409 1_554 S
C493 C491 1.415 . S
C494 H484 0.930 . S
C494 C492 1.419 . S
C494 C495 1.362 . S
C495 H485 0.930 . S
C495 C488 1.409 . S
C495 C494 1.362 . S
H496 C502 0.930 . S
H497 C505 0.930 . S
H498 C506 0.930 . S
H499 C507 0.930 . S
H500 C510 0.930 . S
H501 C511 0.930 . S
C502 H496 0.930 . S
C502 C503 1.355 . S
C502 C504 1.415 . S
C503 C502 1.355 . S
C503 C505 1.419 . S
C504 C502 1.415 . S
C504 C509 1.425 . S
C504 C511 1.409 . S
C505 H497 0.930 . S
C505 C503 1.419 . S
C505 C506 1.362 . S
C506 H498 0.930 . S
C506 C505 1.362 . S
C506 C509 1.409 . S
C507 H499 0.930 . S
C507 C508 1.355 . S
C507 C509 1.415 . S
C508 C507 1.355 . S
C508 C510 1.419 . S
C509 C504 1.425 . S
C509 C506 1.409 . S
C509 C507 1.415 . S
C510 H500 0.930 . S
C510 C508 1.419 . S
C510 C511 1.362 . S
C511 H501 0.930 . S
C511 C504 1.409 . S
C511 C510 1.362 . S
H512 C518 0.930 . S
H513 C521 0.930 . S
H514 C522 0.930 . S
H515 C523 0.930 . S
H516 C526 0.930 . S
H517 C527 0.930 . S
C518 H512 0.930 . S
C518 C519 1.355 . S
C518 C520 1.415 1_554 S
C519 C518 1.355 . S
C519 C521 1.419 . S
C520 C518 1.415 1_556 S
C520 C525 1.425 . S
C520 C527 1.409 . S
C521 H513 0.930 . S
C521 C519 1.419 . S
C521 C522 1.362 . S
C522 H514 0.930 . S
C522 C521 1.362 . S
C522 C525 1.409 1_554 S
C523 H515 0.930 . S
C523 C524 1.355 . S
C523 C525 1.415 . S
C524 C523 1.355 . S
C524 C526 1.419 . S
C525 C520 1.425 . S
C525 C522 1.409 1_556 S
C525 C523 1.415 . S
C526 H516 0.930 . S
C526 C524 1.419 . S
C526 C527 1.362 . S
C527 H517 0.930 . S
C527 C520 1.409 . S
C527 C526 1.362 . S
H528 C534 0.930 . S
H529 C537 0.930 . S
H530 C538 0.930 . S
H531 C539 0.930 . S
H532 C542 0.930 . S
H533 C543 0.930 . S
C534 H528 0.930 . S
C534 C535 1.355 . S
C534 C536 1.415 . S
C535 C534 1.355 . S
C535 C537 1.419 . S
C536 C534 1.415 . S
C536 C541 1.425 . S
C536 C543 1.409 . S
C537 H529 0.930 . S
C537 C535 1.419 . S
C537 C538 1.362 . S
C538 H530 0.930 . S
C538 C537 1.362 . S
C538 C541 1.409 . S
C539 H531 0.930 . S
C539 C540 1.355 . S
C539 C541 1.415 . S
C540 C539 1.355 . S
C540 C542 1.419 . S
C541 C536 1.425 . S
C541 C538 1.409 . S
C541 C539 1.415 . S
C542 H532 0.930 . S
C542 C540 1.419 . S
C542 C543 1.362 . S
C543 H533 0.930 . S
C543 C536 1.409 . S
C543 C542 1.362 . S
H544 C550 0.930 . S
H545 C553 0.930 . S
H546 C554 0.930 . S
H547 C555 0.930 . S
H548 C558 0.930 . S
H549 C559 0.930 . S
C550 H544 0.930 . S
C550 C551 1.355 . S
C550 C552 1.415 . S
C551 C550 1.355 . S
C551 C553 1.419 . S
C552 C550 1.415 . S
C552 C557 1.425 . S
C552 C559 1.409 1_554 S
C553 H545 0.930 . S
C553 C551 1.419 . S
C553 C554 1.362 . S
C554 H546 0.930 . S
C554 C553 1.362 . S
C554 C557 1.409 . S
C555 H547 0.930 . S
C555 C556 1.355 . S
C555 C557 1.415 1_556 S
C556 C555 1.355 . S
C556 C558 1.419 . S
C557 C552 1.425 . S
C557 C554 1.409 . S
C557 C555 1.415 1_554 S
C558 H548 0.930 . S
C558 C556 1.419 . S
C558 C559 1.362 . S
C559 H549 0.930 . S
C559 C552 1.409 1_556 S
C559 C558 1.362 . S
H560 C566 0.930 . S
H561 C569 0.930 . S
H562 C570 0.930 . S
H563 C571 0.930 . S
H564 C574 0.930 . S
H565 C575 0.930 . S
C566 H560 0.930 . S
C566 C567 1.355 . S
C566 C568 1.415 . S
C567 C566 1.355 . S
C567 C569 1.419 . S
C568 C566 1.415 . S
C568 C573 1.425 . S
C568 C575 1.409 . S
C569 H561 0.930 . S
C569 C567 1.419 . S
C569 C570 1.362 . S
C570 H562 0.930 . S
C570 C569 1.362 . S
C570 C573 1.409 . S
C571 H563 0.930 . S
C571 C572 1.355 . S
C571 C573 1.415 . S
C572 C571 1.355 . S
C572 C574 1.419 . S
C573 C568 1.425 . S
C573 C570 1.409 . S
C573 C571 1.415 . S
C574 H564 0.930 . S
C574 C572 1.419 . S
C574 C575 1.362 . S
C575 H565 0.930 . S
C575 C568 1.409 . S
C575 C574 1.362 . S
H576 C582 0.930 . S
H577 C585 0.930 . S
H578 C586 0.930 . S
H579 C587 0.930 1_554 S
H580 C590 0.930 . S
H581 C591 0.930 . S
C582 H576 0.930 . S
C582 C583 1.355 1_556 S
C582 C584 1.415 . S
C583 C582 1.355 1_554 S
C583 C585 1.419 . S
C584 C582 1.415 . S
C584 C589 1.425 1_556 S
C584 C591 1.409 . S
C585 H577 0.930 . S
C585 C583 1.419 . S
C585 C586 1.362 . S
C586 H578 0.930 . S
C586 C585 1.362 . S
C586 C589 1.409 . S
C587 H579 0.930 1_556 S
C587 C588 1.355 . S
C587 C589 1.415 1_556 S
C588 C587 1.355 . S
C588 C590 1.419 . S
C589 C584 1.425 1_554 S
C589 C586 1.409 . S
C589 C587 1.415 1_554 S
C590 H580 0.930 . S
C590 C588 1.419 . S
C590 C591 1.362 . S
C591 H581 0.930 . S
C591 C584 1.409 . S
C591 C590 1.362 . S
H592 C598 0.930 . S
H593 C601 0.930 . S
H594 C602 0.930 . S
H595 C603 0.930 . S
H596 C606 0.930 . S
H597 C607 0.930 . S
C598 H592 0.930 . S
C598 C599 1.355 . S
C598 C600 1.415 . S
C599 C598 1.355 . S
C599 C601 1.419 . S
C600 C598 1.415 . S
C600 C605 1.425 . S
C600 C607 1.409 . S
C601 H593 0.930 . S
C601 C599 1.419 . S
C601 C602 1.362 . S
C602 H594 0.930 . S
C602 C601 1.362 . S
C602 C605 1.409 . S
C603 H595 0.930 . S
C603 C604 1.355 . S
C603 C605 1.415 . S
C604 C603 1.355 . S
C604 C606 1.419 . S
C605 C600 1.425 . S
C605 C602 1.409 . S
C605 C603 1.415 . S
C606 H596 0.930 . S
C606 C604 1.419 . S
C606 C607 1.362 . S
C607 H597 0.930 . S
C607 C600 1.409 . S
C607 C606 1.362 . S
H608 C614 0.930 . S
H609 C617 0.930 . S
H610 C618 0.930 . S
H611 C619 0.930 . S
H612 C622 0.930 . S
H613 C623 0.930 . S
C614 H608 0.930 . S
C614 C615 1.355 1_554 S
C614 C616 1.415 . S
C615 C614 1.355 1_556 S
C615 C617 1.419 . S
C616 C614 1.415 . S
C616 C621 1.425 1_554 S
C616 C623 1.409 . S
C617 H609 0.930 . S
C617 C615 1.419 . S
C617 C618 1.362 . S
C618 H610 0.930 . S
C618 C617 1.362 . S
C618 C621 1.409 . S
C619 H611 0.930 . S
C619 C620 1.355 1_556 S
C619 C621 1.415 . S
C620 C619 1.355 1_554 S
C620 C622 1.419 . S
C621 C616 1.425 1_556 S
C621 C618 1.409 . S
C621 C619 1.415 . S
C622 H612 0.930 . S
C622 C620 1.419 . S
C622 C623 1.362 . S
C623 H613 0.930 . S
C623 C616 1.409 . S
C623 C622 1.362 . S
H624 C630 0.930 . S
H625 C633 0.930 . S
H626 C634 0.930 . S
H627 C635 0.930 . S
H628 C638 0.930 . S
H629 C639 0.930 . S
C630 H624 0.930 . S
C630 C631 1.355 . S
C630 C632 1.415 . S
C631 C630 1.355 . S
C631 C633 1.419 . S
C632 C630 1.415 . S
C632 C637 1.425 . S
C632 C639 1.409 . S
C633 H625 0.930 . S
C633 C631 1.419 . S
C633 C634 1.362 . S
C634 H626 0.930 . S
C634 C633 1.362 . S
C634 C637 1.409 . S
C635 H627 0.930 . S
C635 C636 1.355 . S
C635 C637 1.415 . S
C636 C635 1.355 . S
C636 C638 1.419 . S
C637 C632 1.425 . S
C637 C634 1.409 . S
C637 C635 1.415 . S
C638 H628 0.930 . S
C638 C636 1.419 . S
C638 C639 1.362 . S
C639 H629 0.930 . S
C639 C632 1.409 . S
C639 C638 1.362 . S
H640 C646 0.930 . S
H641 C649 0.930 . S
H642 C650 0.930 . S
H643 C651 0.930 . S
H644 C654 0.930 . S
H645 C655 0.930 . S
C646 H640 0.930 . S
C646 C647 1.355 . S
C646 C648 1.425 . S
C647 C646 1.355 . S
C647 C649 1.419 . S
C648 C646 1.425 . S
C648 C653 1.424 1_554 S
C648 C655 1.400 1_554 S
C649 H641 0.930 . S
C649 C647 1.419 . S
C649 C650 1.362 . S
C650 H642 0.930 . S
C650 C649 1.362 . S
C650 C653 1.400 1_554 S
C651 H643 0.930 . S
C651 C652 1.355 . S
C651 C653 1.425 . S
C652 C651 1.355 . S
C652 C654 1.419 . S
C653 C648 1.424 1_556 S
C653 C650 1.400 1_556 S
C653 C651 1.425 . S
C654 H644 0.930 . S
C654 C652 1.419 . S
C654 C655 1.362 . S
C655 H645 0.930 . S
C655 C648 1.400 1_556 S
C655 C654 1.362 . S
H656 C662 0.930 . S
H657 C665 0.930 . S
H658 C666 0.930 . S
H659 C667 0.930 . S
H660 C670 0.930 . S
H661 C671 0.930 . S
C662 H656 0.930 . S
C662 C663 1.355 . S
C662 C664 1.415 . S
C663 C662 1.355 . S
C663 C665 1.419 . S
C664 C662 1.415 . S
C664 C669 1.425 . S
C664 C671 1.409 . S
C665 H657 0.930 . S
C665 C663 1.419 . S
C665 C666 1.362 . S
C666 H658 0.930 . S
C666 C665 1.362 . S
C666 C669 1.409 . S
C667 H659 0.930 . S
C667 C668 1.355 . S
C667 C669 1.415 . S
C668 C667 1.355 . S
C668 C670 1.419 . S
C669 C664 1.425 . S
C669 C666 1.409 . S
C669 C667 1.415 . S
C670 H660 0.930 . S
C670 C668 1.419 . S
C670 C671 1.362 . S
C671 H661 0.930 . S
C671 C664 1.409 . S
C671 C670 1.362 . S
H672 C678 0.930 . S
H673 C681 0.930 . S
H674 C682 0.930 1_565 S
H675 C683 0.930 . S
H676 C686 0.930 . S
H677 C687 0.930 1_545 S
C678 H672 0.930 . S
C678 C679 1.355 1_554 S
C678 C680 1.415 . S
C679 C678 1.355 1_556 S
C679 C681 1.419 . S
C680 C678 1.415 . S
C680 C685 1.425 1_544 S
C680 C687 1.409 1_545 S
C681 H673 0.930 . S
C681 C679 1.419 . S
C681 C682 1.362 . S
C682 H674 0.930 1_545 S
C682 C681 1.362 . S
C682 C685 1.409 1_545 S
C683 H675 0.930 . S
C683 C684 1.355 1_556 S
C683 C685 1.415 . S
C684 C683 1.355 1_554 S
C684 C686 1.419 . S
C685 C680 1.425 1_566 S
C685 C682 1.409 1_565 S
C685 C683 1.415 . S
C686 H676 0.930 . S
C686 C684 1.419 . S
C686 C687 1.362 . S
C687 H677 0.930 1_565 S
C687 C680 1.409 1_565 S
C687 C686 1.362 . S
H688 C694 0.930 . S
H689 C697 0.930 . S
H690 C698 0.930 1_545 S
H691 C699 0.930 . S
H692 C702 0.930 . S
H693 C703 0.930 1_565 S
C694 H688 0.930 . S
C694 C695 1.355 . S
C694 C696 1.415 . S
C695 C694 1.355 . S
C695 C697 1.419 . S
C696 C694 1.415 . S
C696 C701 1.425 1_565 S
C696 C703 1.409 1_565 S
C697 H689 0.930 . S
C697 C695 1.419 . S
C697 C698 1.362 . S
C698 H690 0.930 1_565 S
C698 C697 1.362 . S
C698 C701 1.409 1_565 S
C699 H691 0.930 . S
C699 C700 1.355 . S
C699 C701 1.415 . S
C700 C699 1.355 . S
C700 C702 1.419 . S
C701 C696 1.425 1_545 S
C701 C698 1.409 1_545 S
C701 C699 1.415 . S
C702 H692 0.930 . S
C702 C700 1.419 . S
C702 C703 1.362 . S
C703 H693 0.930 1_545 S
C703 C696 1.409 1_545 S
C703 C702 1.362 . S
H704 C710 0.930 . S
H705 C713 0.930 . S
H706 C714 0.930 . S
H707 C715 0.930 . S
H708 C718 0.930 . S
H709 C719 0.930 . S
C710 H704 0.930 . S
C710 C711 1.355 . S
C710 C712 1.415 . S
C711 C710 1.355 . S
C711 C713 1.419 . S
C712 C710 1.415 . S
C712 C717 1.425 1_564 S
C712 C719 1.409 1_565 S
C713 H705 0.930 . S
C713 C711 1.419 . S
C713 C714 1.362 1_554 S
C714 H706 0.930 . S
C714 C713 1.362 1_556 S
C714 C717 1.409 1_565 S
C715 H707 0.930 . S
C715 C716 1.355 . S
C715 C717 1.415 . S
C716 C715 1.355 . S
C716 C718 1.419 . S
C717 C712 1.425 1_546 S
C717 C714 1.409 1_545 S
C717 C715 1.415 . S
C718 H708 0.930 . S
C718 C716 1.419 . S
C718 C719 1.362 1_556 S
C719 H709 0.930 . S
C719 C712 1.409 1_545 S
C719 C718 1.362 1_554 S
H720 C726 0.930 . S
H721 C729 0.930 . S
H722 C730 0.930 . S
H723 C731 0.930 . S
H724 C734 0.930 . S
H725 C735 0.930 . S
C726 H720 0.930 . S
C726 C727 1.355 . S
C726 C728 1.415 . S
C727 C726 1.355 . S
C727 C729 1.419 . S
C728 C726 1.415 . S
C728 C733 1.425 1_545 S
C728 C735 1.409 . S
C729 H721 0.930 . S
C729 C727 1.419 . S
C729 C730 1.362 1_545 S
C730 H722 0.930 . S
C730 C729 1.362 1_565 S
C730 C733 1.409 . S
C731 H723 0.930 . S
C731 C732 1.355 . S
C731 C733 1.415 . S
C732 C731 1.355 . S
C732 C734 1.419 . S
C733 C728 1.425 1_565 S
C733 C730 1.409 . S
C733 C731 1.415 . S
C734 H724 0.930 . S
C734 C732 1.419 . S
C734 C735 1.362 1_565 S
C735 H725 0.930 . S
C735 C728 1.409 . S
C735 C734 1.362 1_545 S
C231 C9 1.449 . S
C236 C93 1.453 . S
C247 C23 1.494 . S
C252 C107 1.488 . S
C263 C65 1.465 . S
C268 C37 1.494 . S
C279 C79 1.479 . S
C284 C51 1.497 . S
C295 C205 1.473 . S
C300 C121 1.497 . S
C311 C219 1.463 . S
C316 C135 1.493 . S
C327 C149 1.445 . S
C332 C177 1.505 . S
C343 C163 1.427 . S
C348 C191 1.479 . S
C359 C8 1.593 . S
C364 C77 1.568 . S
C375 C22 1.593 . S
C380 C63 1.569 . S
C391 C36 1.590 . S
C396 C105 1.567 . S
C407 C91 1.575 . S
C412 C50 1.592 . S
C423 C189 1.516 . S
C428 C120 1.584 . S
C439 C175 1.518 . S
C444 C134 1.584 . S
C455 C148 1.593 . S
C460 C217 1.572 . S
C471 C203 1.537 . S
C476 C162 1.590 . S
C487 C174 1.536 . S
C492 C6 1.564 . S
C503 C20 1.572 . S
C508 C188 1.559 . S
C519 C202 1.534 . S
C524 C34 1.563 . S
C535 C216 1.516 . S
C540 C48 1.534 . S
C551 C118 1.573 . S
C556 C62 1.558 . S
C567 C132 1.566 . S
C572 C76 1.538 . S
C583 C90 1.558 . S
C588 C146 1.569 . S
C599 C104 1.513 . S
C604 C160 1.548 . S
C615 C35 1.120 . S
C620 C7 1.114 . S
C631 C21 1.125 . S
C636 C49 1.134 . S
C647 C92 1.940 . S
C652 C64 1.943 . S
C663 C78 1.941 . S
C668 C106 1.937 . S
C679 C147 1.109 . S
C684 C119 1.109 . S
C695 C161 1.133 . S
C700 C133 1.124 . S
C711 C204 1.937 . S
C716 C176 1.934 . S
C727 C218 1.945 . S
C732 C190 1.944 . S
