# Generated by pormake.
# Topology unl, (4)-cn, num edge types: 1
# Building blocks:
#     Node 0, Type 0, BuildingBlock: QUQFOY_clean_sbu_1, # of connection points: 4
#     Node 1, Type 0, BuildingBlock: QUQFOY_clean_sbu_1, # of connection points: 4
#     Node 2, Type 0, BuildingBlock: QUQFOY_clean_sbu_1, # of connection points: 4
#     Node 3, Type 0, BuildingBlock: QUQFOY_clean_sbu_1, # of connection points: 4
#     Node 4, Type 0, BuildingBlock: QUQFOY_clean_sbu_1, # of connection points: 4
#     Node 5, Type 0, BuildingBlock: QUQFOY_clean_sbu_1, # of connection points: 4
#     Node 6, Type 0, BuildingBlock: QUQFOY_clean_sbu_1, # of connection points: 4
#     Node 7, Type 0, BuildingBlock: QUQFOY_clean_sbu_1, # of connection points: 4
#     Node 8, Type 0, BuildingBlock: QUQFOY_clean_sbu_1, # of connection points: 4
#     Node 9, Type 0, BuildingBlock: QUQFOY_clean_sbu_1, # of connection points: 4
#     Node 10, Type 0, BuildingBlock: QUQFOY_clean_sbu_1, # of connection points: 4
#     Node 11, Type 0, BuildingBlock: QUQFOY_clean_sbu_1, # of connection points: 4
#     Node 12, Type 0, BuildingBlock: QUQFOY_clean_sbu_1, # of connection points: 4
#     Node 13, Type 0, BuildingBlock: QUQFOY_clean_sbu_1, # of connection points: 4
#     Node 14, Type 0, BuildingBlock: QUQFOY_clean_sbu_1, # of connection points: 4
#     Node 15, Type 0, BuildingBlock: QUQFOY_clean_sbu_1, # of connection points: 4
#     Node 16, Type 0, BuildingBlock: QUQFOY_clean_sbu_1, # of connection points: 4
#     Node 17, Type 0, BuildingBlock: QUQFOY_clean_sbu_1, # of connection points: 4
#     Node 18, Type 0, BuildingBlock: QUQFOY_clean_sbu_1, # of connection points: 4
#     Node 19, Type 0, BuildingBlock: QUQFOY_clean_sbu_1, # of connection points: 4
#     Node 20, Type 0, BuildingBlock: QUQFOY_clean_sbu_1, # of connection points: 4
#     Node 21, Type 0, BuildingBlock: QUQFOY_clean_sbu_1, # of connection points: 4
#     Node 22, Type 0, BuildingBlock: QUQFOY_clean_sbu_1, # of connection points: 4
#     Node 23, Type 0, BuildingBlock: QUQFOY_clean_sbu_1, # of connection points: 4
#     Node 24, Type 0, BuildingBlock: QUQFOY_clean_sbu_1, # of connection points: 4
#     Node 25, Type 0, BuildingBlock: QUQFOY_clean_sbu_1, # of connection points: 4
#     Node 26, Type 0, BuildingBlock: QUQFOY_clean_sbu_1, # of connection points: 4
#     Node 27, Type 0, BuildingBlock: QUQFOY_clean_sbu_1, # of connection points: 4
#     Node 28, Type 0, BuildingBlock: QUQFOY_clean_sbu_1, # of connection points: 4
#     Node 29, Type 0, BuildingBlock: QUQFOY_clean_sbu_1, # of connection points: 4
#     Node 30, Type 0, BuildingBlock: QUQFOY_clean_sbu_1, # of connection points: 4
#     Node 31, Type 0, BuildingBlock: QUQFOY_clean_sbu_1, # of connection points: 4
#     Node 32, Type 0, BuildingBlock: QUQFOY_clean_sbu_1, # of connection points: 4
#     Node 33, Type 0, BuildingBlock: QUQFOY_clean_sbu_1, # of connection points: 4
#     Node 34, Type 0, BuildingBlock: QUQFOY_clean_sbu_1, # of connection points: 4
#     Node 35, Type 0, BuildingBlock: QUQFOY_clean_sbu_1, # of connection points: 4
#     Edge 36, Type (0, 0), BuildingBlock: EZIPEK_clean_linker_0, # of connection points: 2
#     Edge 37, Type (0, 0), BuildingBlock: EZIPEK_clean_linker_0, # of connection points: 2
#     Edge 38, Type (0, 0), BuildingBlock: EZIPEK_clean_linker_0, # of connection points: 2
#     Edge 39, Type (0, 0), BuildingBlock: EZIPEK_clean_linker_0, # of connection points: 2
#     Edge 40, Type (0, 0), BuildingBlock: EZIPEK_clean_linker_0, # of connection points: 2
#     Edge 41, Type (0, 0), BuildingBlock: EZIPEK_clean_linker_0, # of connection points: 2
#     Edge 42, Type (0, 0), BuildingBlock: EZIPEK_clean_linker_0, # of connection points: 2
#     Edge 43, Type (0, 0), BuildingBlock: EZIPEK_clean_linker_0, # of connection points: 2
#     Edge 44, Type (0, 0), BuildingBlock: EZIPEK_clean_linker_0, # of connection points: 2
#     Edge 45, Type (0, 0), BuildingBlock: EZIPEK_clean_linker_0, # of connection points: 2
#     Edge 46, Type (0, 0), BuildingBlock: EZIPEK_clean_linker_0, # of connection points: 2
#     Edge 47, Type (0, 0), BuildingBlock: EZIPEK_clean_linker_0, # of connection points: 2
#     Edge 48, Type (0, 0), BuildingBlock: EZIPEK_clean_linker_0, # of connection points: 2
#     Edge 49, Type (0, 0), BuildingBlock: EZIPEK_clean_linker_0, # of connection points: 2
#     Edge 50, Type (0, 0), BuildingBlock: EZIPEK_clean_linker_0, # of connection points: 2
#     Edge 51, Type (0, 0), BuildingBlock: EZIPEK_clean_linker_0, # of connection points: 2
#     Edge 52, Type (0, 0), BuildingBlock: EZIPEK_clean_linker_0, # of connection points: 2
#     Edge 53, Type (0, 0), BuildingBlock: EZIPEK_clean_linker_0, # of connection points: 2
#     Edge 54, Type (0, 0), BuildingBlock: EZIPEK_clean_linker_0, # of connection points: 2
#     Edge 55, Type (0, 0), BuildingBlock: EZIPEK_clean_linker_0, # of connection points: 2
#     Edge 56, Type (0, 0), BuildingBlock: EZIPEK_clean_linker_0, # of connection points: 2
#     Edge 57, Type (0, 0), BuildingBlock: EZIPEK_clean_linker_0, # of connection points: 2
#     Edge 58, Type (0, 0), BuildingBlock: EZIPEK_clean_linker_0, # of connection points: 2
#     Edge 59, Type (0, 0), BuildingBlock: EZIPEK_clean_linker_0, # of connection points: 2
#     Edge 60, Type (0, 0), BuildingBlock: EZIPEK_clean_linker_0, # of connection points: 2
#     Edge 61, Type (0, 0), BuildingBlock: EZIPEK_clean_linker_0, # of connection points: 2
#     Edge 62, Type (0, 0), BuildingBlock: EZIPEK_clean_linker_0, # of connection points: 2
#     Edge 63, Type (0, 0), BuildingBlock: EZIPEK_clean_linker_0, # of connection points: 2
#     Edge 64, Type (0, 0), BuildingBlock: EZIPEK_clean_linker_0, # of connection points: 2
#     Edge 65, Type (0, 0), BuildingBlock: EZIPEK_clean_linker_0, # of connection points: 2
#     Edge 66, Type (0, 0), BuildingBlock: EZIPEK_clean_linker_0, # of connection points: 2
#     Edge 67, Type (0, 0), BuildingBlock: EZIPEK_clean_linker_0, # of connection points: 2
#     Edge 68, Type (0, 0), BuildingBlock: EZIPEK_clean_linker_0, # of connection points: 2
#     Edge 69, Type (0, 0), BuildingBlock: EZIPEK_clean_linker_0, # of connection points: 2
#     Edge 70, Type (0, 0), BuildingBlock: EZIPEK_clean_linker_0, # of connection points: 2
#     Edge 71, Type (0, 0), BuildingBlock: EZIPEK_clean_linker_0, # of connection points: 2
#     Edge 72, Type (0, 0), BuildingBlock: EZIPEK_clean_linker_0, # of connection points: 2
#     Edge 73, Type (0, 0), BuildingBlock: EZIPEK_clean_linker_0, # of connection points: 2
#     Edge 74, Type (0, 0), BuildingBlock: EZIPEK_clean_linker_0, # of connection points: 2
#     Edge 75, Type (0, 0), BuildingBlock: EZIPEK_clean_linker_0, # of connection points: 2
#     Edge 76, Type (0, 0), BuildingBlock: EZIPEK_clean_linker_0, # of connection points: 2
#     Edge 77, Type (0, 0), BuildingBlock: EZIPEK_clean_linker_0, # of connection points: 2
#     Edge 78, Type (0, 0), BuildingBlock: EZIPEK_clean_linker_0, # of connection points: 2
#     Edge 79, Type (0, 0), BuildingBlock: EZIPEK_clean_linker_0, # of connection points: 2
#     Edge 80, Type (0, 0), BuildingBlock: EZIPEK_clean_linker_0, # of connection points: 2
#     Edge 81, Type (0, 0), BuildingBlock: EZIPEK_clean_linker_0, # of connection points: 2
#     Edge 82, Type (0, 0), BuildingBlock: EZIPEK_clean_linker_0, # of connection points: 2
#     Edge 83, Type (0, 0), BuildingBlock: EZIPEK_clean_linker_0, # of connection points: 2
#     Edge 84, Type (0, 0), BuildingBlock: EZIPEK_clean_linker_0, # of connection points: 2
#     Edge 85, Type (0, 0), BuildingBlock: EZIPEK_clean_linker_0, # of connection points: 2
#     Edge 86, Type (0, 0), BuildingBlock: EZIPEK_clean_linker_0, # of connection points: 2
#     Edge 87, Type (0, 0), BuildingBlock: EZIPEK_clean_linker_0, # of connection points: 2
#     Edge 88, Type (0, 0), BuildingBlock: EZIPEK_clean_linker_0, # of connection points: 2
#     Edge 89, Type (0, 0), BuildingBlock: EZIPEK_clean_linker_0, # of connection points: 2
#     Edge 90, Type (0, 0), BuildingBlock: EZIPEK_clean_linker_0, # of connection points: 2
#     Edge 91, Type (0, 0), BuildingBlock: EZIPEK_clean_linker_0, # of connection points: 2
#     Edge 92, Type (0, 0), BuildingBlock: EZIPEK_clean_linker_0, # of connection points: 2
#     Edge 93, Type (0, 0), BuildingBlock: EZIPEK_clean_linker_0, # of connection points: 2
#     Edge 94, Type (0, 0), BuildingBlock: EZIPEK_clean_linker_0, # of connection points: 2
#     Edge 95, Type (0, 0), BuildingBlock: EZIPEK_clean_linker_0, # of connection points: 2
#     Edge 96, Type (0, 0), BuildingBlock: EZIPEK_clean_linker_0, # of connection points: 2
#     Edge 97, Type (0, 0), BuildingBlock: EZIPEK_clean_linker_0, # of connection points: 2
#     Edge 98, Type (0, 0), BuildingBlock: EZIPEK_clean_linker_0, # of connection points: 2
#     Edge 99, Type (0, 0), BuildingBlock: EZIPEK_clean_linker_0, # of connection points: 2
#     Edge 100, Type (0, 0), BuildingBlock: EZIPEK_clean_linker_0, # of connection points: 2
#     Edge 101, Type (0, 0), BuildingBlock: EZIPEK_clean_linker_0, # of connection points: 2
#     Edge 102, Type (0, 0), BuildingBlock: EZIPEK_clean_linker_0, # of connection points: 2
#     Edge 103, Type (0, 0), BuildingBlock: EZIPEK_clean_linker_0, # of connection points: 2
#     Edge 104, Type (0, 0), BuildingBlock: EZIPEK_clean_linker_0, # of connection points: 2
#     Edge 105, Type (0, 0), BuildingBlock: EZIPEK_clean_linker_0, # of connection points: 2
#     Edge 106, Type (0, 0), BuildingBlock: EZIPEK_clean_linker_0, # of connection points: 2
#     Edge 107, Type (0, 0), BuildingBlock: EZIPEK_clean_linker_0, # of connection points: 2
# Relax obj value: 0.019
# Max RMSD: 0.070
# Mean RMSD: 0.070
data_MOF--net-unl--node1-QUQFOY_clean_sbu_1--edge1-EZIPEK_clean_linker_0
_symmetry_space_group_name_H-M    P1
_symmetry_Int_Tables_number       1
_symmetry_cell_setting            triclinic
loop_
_symmetry_equiv_pos_as_xyz
'x, y, z'
_cell_length_a     50.688981
_cell_length_b     50.935627
_cell_length_c     30.12391
_cell_angle_alpha  90.006747
_cell_angle_beta   90.071575
_cell_angle_gamma 120.1162
loop_
_atom_site_label
_atom_site_type_symbol
_atom_site_fract_x
_atom_site_fract_y
_atom_site_fract_z
_atom_type_partial_charge
O0 O 0.24351 0.1864 0.16985 0.0
Cd1 Cd 0.2642 0.18085 0.11501 0.0
Cd2 Cd 0.21348 0.12666 0.11347 0.0
O3 O 0.20451 0.13957 0.17452 0.0
O4 O 0.30902 0.2085 0.12456 0.0
O5 O 0.28677 0.15827 0.1242 0.0
C6 C 0.31093 0.18439 0.13038 0.0
C7 C 0.20964 0.08048 0.09451 0.0
C8 C 0.21935 0.1667 0.18914 0.0
C9 C 0.22149 0.17121 0.04104 0.0
O10 O 0.20424 0.14616 0.06034 0.0
O11 O 0.24859 0.18862 0.05497 0.0
O12 O 0.1857 0.08231 0.10306 0.0
O13 O 0.23602 0.10427 0.10089 0.0
O14 O 0.85971 0.06166 0.14883 0.0
Cd15 Cd 0.86669 0.0905 0.09666 0.0
Cd16 Cd 0.91981 0.09307 0.09532 0.0
O17 O 0.90831 0.07651 0.15917 0.0
O18 O 0.83991 0.10836 0.10732 0.0
O19 O 0.89049 0.13531 0.10921 0.0
C20 C 0.8645 0.13391 0.11478 0.0
C21 C 0.96904 0.13084 0.07409 0.0
C22 C 0.88063 0.06108 0.17127 0.0
C23 C 0.87432 0.05622 0.02461 0.0
O24 O 0.89757 0.06073 0.04681 0.0
O25 O 0.85987 0.06986 0.03485 0.0
O26 O 0.9639 0.10549 0.09097 0.0
O27 O 0.94641 0.13575 0.07256 0.0
O28 O 0.98558 0.80614 0.15334 0.0
Cd29 Cd 0.95325 0.78034 0.10668 0.0
Cd30 Cd 0.94885 0.8287 0.10624 0.0
O31 O 0.96627 0.83506 0.17018 0.0
O32 O 0.93698 0.7366 0.12213 0.0
O33 O 0.90946 0.75937 0.12537 0.0
C34 C 0.9116 0.73545 0.13187 0.0
C35 C 0.90639 0.83115 0.08295 0.0
C36 C 0.98487 0.8258 0.1785 0.0
C37 C 0.98319 0.81869 0.0322 0.0
O38 O 0.98017 0.83766 0.05592 0.0
O39 O 0.96904 0.79067 0.0423 0.0
O40 O 0.93159 0.85552 0.09265 0.0
O41 O 0.90439 0.80527 0.09057 0.0
O42 O 0.20096 0.23537 0.35304 0.0
Cd43 Cd 0.19854 0.26145 0.40366 0.0
Cd44 Cd 0.14493 0.21055 0.41436 0.0
O45 O 0.15288 0.19823 0.35297 0.0
O46 O 0.22652 0.30495 0.38627 0.0
O47 O 0.17643 0.28444 0.39207 0.0
C48 C 0.20258 0.30752 0.38188 0.0
C49 C 0.099 0.20704 0.4346 0.0
C50 C 0.17953 0.21098 0.33647 0.0
C51 C 0.19441 0.22532 0.48241 0.0
O52 O 0.1692 0.20569 0.46536 0.0
O53 O 0.20926 0.25195 0.46614 0.0
O54 O 0.10136 0.1831 0.43051 0.0
O55 O 0.12228 0.23299 0.42444 0.0
O56 O 0.8205 0.97551 0.33984 0.0
Cd57 Cd 0.79963 0.94612 0.3916 0.0
Cd58 Cd 0.84926 0.94342 0.39037 0.0
O59 O 0.85258 0.95921 0.32602 0.0
O60 O 0.75467 0.92602 0.38137 0.0
O61 O 0.78081 0.90176 0.37819 0.0
C62 C 0.75534 0.90148 0.37292 0.0
C63 C 0.85805 0.90402 0.41203 0.0
C64 C 0.8407 0.97518 0.31545 0.0
C65 C 0.8426 0.98022 0.46231 0.0
O66 O 0.86107 0.97634 0.43853 0.0
O67 O 0.81418 0.96617 0.45343 0.0
O68 O 0.8789 0.92837 0.39334 0.0
O69 O 0.83128 0.90104 0.41508 0.0
O70 O 0.07282 0.85069 0.34843 0.0
Cd71 Cd 0.10514 0.85877 0.39617 0.0
Cd72 Cd 0.10967 0.91066 0.39123 0.0
O73 O 0.09518 0.89801 0.32626 0.0
O74 O 0.12255 0.83179 0.385 0.0
O75 O 0.14916 0.88202 0.37855 0.0
C76 C 0.14775 0.85606 0.3748 0.0
C77 C 0.14823 0.95778 0.41581 0.0
C78 C 0.07508 0.8703 0.32034 0.0
C79 C 0.07374 0.86879 0.46608 0.0
O80 O 0.07606 0.88902 0.43905 0.0
O81 O 0.08893 0.85547 0.45975 0.0
O82 O 0.12348 0.95462 0.39859 0.0
O83 O 0.15248 0.93482 0.415 0.0
O84 O 0.81498 0.84996 0.83736 0.0
Cd85 Cd 0.79388 0.85425 0.89285 0.0
Cd86 Cd 0.84617 0.90781 0.89848 0.0
O87 O 0.85632 0.89542 0.8378 0.0
O88 O 0.7493 0.82598 0.88218 0.0
O89 O 0.77043 0.87605 0.88507 0.0
C90 C 0.74671 0.84979 0.87778 0.0
C91 C 0.84849 0.95324 0.91761 0.0
C92 C 0.84045 0.86913 0.82055 0.0
C93 C 0.83466 0.86142 0.96913 0.0
O94 O 0.85299 0.88684 0.95169 0.0
O95 O 0.80818 0.84463 0.95268 0.0
O96 O 0.87307 0.95206 0.91138 0.0
O97 O 0.82265 0.92938 0.90851 0.0
O98 O 0.18904 0.97489 0.84664 0.0
Cd99 Cd 0.18733 0.94879 0.89972 0.0
Cd100 Cd 0.13126 0.94155 0.90902 0.0
O101 O 0.14141 0.96547 0.84946 0.0
O102 O 0.21565 0.93308 0.88539 0.0
O103 O 0.1655 0.90357 0.89062 0.0
C104 C 0.19173 0.90651 0.88134 0.0
C105 C 0.08583 0.89741 0.9265 0.0
C106 C 0.16774 0.97863 0.83155 0.0
C107 C 0.17862 0.97895 0.97848 0.0
O108 O 0.15174 0.96843 0.96355 0.0
O109 O 0.19706 0.97222 0.95991 0.0
O110 O 0.0869 0.92316 0.92304 0.0
O111 O 0.10982 0.89615 0.91574 0.0
O112 O 0.07225 0.22511 0.85304 0.0
Cd113 Cd 0.10502 0.25054 0.90009 0.0
Cd114 Cd 0.11131 0.20471 0.89225 0.0
O115 O 0.09664 0.20284 0.82758 0.0
O116 O 0.12076 0.29492 0.8896 0.0
O117 O 0.14832 0.27271 0.87895 0.0
C118 C 0.14596 0.29677 0.87671 0.0
C119 C 0.15284 0.20178 0.91915 0.0
C120 C 0.07542 0.20913 0.8234 0.0
C121 C 0.07511 0.20775 0.9686 0.0
O122 O 0.07698 0.19106 0.93883 0.0
O123 O 0.09142 0.2364 0.96492 0.0
O124 O 0.12907 0.17798 0.90383 0.0
O125 O 0.15443 0.22775 0.91471 0.0
O126 O 0.86519 0.8094 0.64776 0.0
Cd127 Cd 0.87214 0.78597 0.59692 0.0
Cd128 Cd 0.92499 0.83636 0.59935 0.0
O129 O 0.91352 0.84259 0.66215 0.0
O130 O 0.84394 0.74136 0.60764 0.0
O131 O 0.89422 0.76363 0.61296 0.0
C132 C 0.86779 0.7395 0.61724 0.0
C133 C 0.97062 0.84045 0.5763 0.0
C134 C 0.88539 0.83056 0.67172 0.0
C135 C 0.88255 0.82756 0.52386 0.0
O136 O 0.90338 0.84596 0.54988 0.0
O137 O 0.86879 0.79927 0.53242 0.0
O138 O 0.96917 0.86428 0.58667 0.0
O139 O 0.9469 0.81413 0.58323 0.0
O140 O 0.23197 0.06077 0.66569 0.0
Cd141 Cd 0.25762 0.08631 0.61331 0.0
Cd142 Cd 0.21266 0.09963 0.6055 0.0
O143 O 0.19808 0.0761 0.6657 0.0
O144 O 0.30137 0.10022 0.6278 0.0
O145 O 0.28253 0.13116 0.62348 0.0
C146 C 0.30512 0.1271 0.63271 0.0
C147 C 0.21495 0.14556 0.5882 0.0
C148 C 0.20873 0.06026 0.68231 0.0
C149 C 0.2175 0.05932 0.53514 0.0
O150 O 0.20356 0.07223 0.55059 0.0
O151 O 0.24229 0.06386 0.55287 0.0
O152 O 0.18916 0.12076 0.59221 0.0
O153 O 0.23938 0.14493 0.59829 0.0
O154 O 0.98801 0.1854 0.65486 0.0
Cd155 Cd 0.95742 0.17963 0.60566 0.0
Cd156 Cd 0.9555 0.12795 0.60205 0.0
O157 O 0.97025 0.13688 0.66746 0.0
O158 O 0.94014 0.20627 0.62072 0.0
O159 O 0.91283 0.15593 0.62013 0.0
C160 C 0.91452 0.1817 0.62772 0.0
C161 C 0.91524 0.08281 0.57476 0.0
C162 C 0.98749 0.1645 0.67852 0.0
C163 C 0.99166 0.17568 0.53311 0.0
O164 O 0.98847 0.153 0.55518 0.0
O165 O 0.97623 0.18828 0.54303 0.0
O166 O 0.94067 0.08463 0.58613 0.0
O167 O 0.91179 0.10588 0.58226 0.0
O168 O 0.8971 0.50598 0.49198 0.0
Cd169 Cd 0.9253 0.50461 0.44365 0.0
Cd170 Cd 0.87447 0.45241 0.42731 0.0
O171 O 0.85972 0.45824 0.48846 0.0
O172 O 0.96821 0.53236 0.46424 0.0
O173 O 0.94826 0.48267 0.45656 0.0
C174 C 0.97101 0.50864 0.46816 0.0
C175 C 0.87166 0.4081 0.4011 0.0
C176 C 0.87202 0.48435 0.50648 0.0
C177 C 0.89243 0.50396 0.36297 0.0
O178 O 0.87157 0.4788 0.37815 0.0
O179 O 0.91872 0.51743 0.38095 0.0
O180 O 0.84741 0.41002 0.40599 0.0
O181 O 0.89737 0.43048 0.41459 0.0
O182 O 0.53194 0.3957 0.50258 0.0
Cd183 Cd 0.5344 0.42424 0.4523 0.0
Cd184 Cd 0.58872 0.42933 0.44498 0.0
O185 O 0.58104 0.41102 0.50787 0.0
O186 O 0.50558 0.43894 0.46847 0.0
O187 O 0.55568 0.46922 0.46416 0.0
C188 C 0.52916 0.46562 0.47343 0.0
C189 C 0.63457 0.47013 0.4204 0.0
C190 C 0.55383 0.39478 0.52167 0.0
C191 C 0.54056 0.39206 0.37647 0.0
O192 O 0.56521 0.39791 0.39576 0.0
O193 O 0.52501 0.40378 0.39026 0.0
O194 O 0.63229 0.44444 0.43024 0.0
O195 O 0.61136 0.47353 0.42762 0.0
O196 O 0.65386 0.14272 0.48614 0.0
Cd197 Cd 0.62281 0.11796 0.43655 0.0
Cd198 Cd 0.61769 0.16641 0.43782 0.0
O199 O 0.63624 0.17369 0.50058 0.0
O200 O 0.6064 0.07358 0.44838 0.0
O201 O 0.57874 0.09602 0.45451 0.0
C202 C 0.58091 0.07196 0.45881 0.0
C203 C 0.57434 0.16784 0.41549 0.0
C204 C 0.65364 0.16319 0.5101 0.0
C205 C 0.65185 0.159 0.36204 0.0
O206 O 0.64901 0.17716 0.38783 0.0
O207 O 0.6381 0.13082 0.37135 0.0
O208 O 0.5992 0.19244 0.42564 0.0
O209 O 0.57322 0.14225 0.42193 0.0
O210 O 0.84843 0.55295 0.65879 0.0
Cd211 Cd 0.84909 0.58044 0.70971 0.0
Cd212 Cd 0.79601 0.52975 0.72695 0.0
O213 O 0.80067 0.51553 0.6647 0.0
O214 O 0.87745 0.62321 0.68971 0.0
O215 O 0.82807 0.60481 0.7009 0.0
C216 C 0.85413 0.62699 0.68823 0.0
C217 C 0.7519 0.52766 0.75415 0.0
C218 C 0.82632 0.52797 0.64501 0.0
C219 C 0.84922 0.54599 0.78843 0.0
O220 O 0.82307 0.52597 0.77459 0.0
O221 O 0.86313 0.57216 0.77053 0.0
O222 O 0.75338 0.50332 0.74875 0.0
O223 O 0.77471 0.55314 0.74112 0.0
O224 O 0.48225 0.2967 0.67567 0.0
Cd225 Cd 0.46039 0.27015 0.72962 0.0
Cd226 Cd 0.51282 0.27001 0.73794 0.0
O227 O 0.52461 0.29439 0.67874 0.0
O228 O 0.41594 0.25288 0.71633 0.0
O229 O 0.4381 0.2249 0.7203 0.0
C230 C 0.4142 0.22687 0.7115 0.0
C231 C 0.51743 0.22856 0.75881 0.0
C232 C 0.50869 0.30463 0.66106 0.0
C233 C 0.4996 0.30447 0.8069 0.0
O234 O 0.51801 0.29686 0.79129 0.0
O235 O 0.47338 0.29464 0.7893 0.0
O236 O 0.54126 0.25487 0.75271 0.0
O237 O 0.49115 0.22492 0.74772 0.0
O238 O 0.74169 0.18846 0.67726 0.0
Cd239 Cd 0.77297 0.19531 0.72669 0.0
Cd240 Cd 0.77761 0.24855 0.72432 0.0
O241 O 0.75922 0.23681 0.66146 0.0
O242 O 0.78919 0.16721 0.71523 0.0
O243 O 0.81686 0.21728 0.70848 0.0
C244 C 0.81465 0.19101 0.70456 0.0
C245 C 0.82073 0.29328 0.74715 0.0
C246 C 0.74185 0.20881 0.6526 0.0
C247 C 0.74398 0.20739 0.80059 0.0
O248 O 0.74625 0.22788 0.77419 0.0
O249 O 0.75821 0.19336 0.79185 0.0
O250 O 0.79592 0.29303 0.73653 0.0
O251 O 0.82197 0.26887 0.74072 0.0
O252 O 0.49282 0.19282 0.17865 0.0
Cd253 Cd 0.46553 0.19447 0.22786 0.0
Cd254 Cd 0.51609 0.24737 0.24204 0.0
O255 O 0.53027 0.24064 0.18081 0.0
O256 O 0.42221 0.16723 0.2085 0.0
O257 O 0.44325 0.21707 0.2158 0.0
C258 C 0.42003 0.19132 0.20468 0.0
C259 C 0.51669 0.29116 0.26656 0.0
C260 C 0.51766 0.21431 0.16334 0.0
C261 C 0.49999 0.19633 0.30716 0.0
O262 O 0.52003 0.22178 0.29165 0.0
O263 O 0.47348 0.18203 0.28993 0.0
O264 O 0.54157 0.29019 0.26331 0.0
O265 O 0.49176 0.26817 0.25222 0.0
O266 O 0.85576 0.30578 0.15955 0.0
Cd267 Cd 0.8507 0.27616 0.2097 0.0
Cd268 Cd 0.79745 0.27255 0.21591 0.0
O269 O 0.80675 0.29002 0.15203 0.0
O270 O 0.87827 0.25967 0.19574 0.0
O271 O 0.82777 0.23147 0.19601 0.0
C272 C 0.85401 0.23375 0.18886 0.0
C273 C 0.74988 0.23345 0.24173 0.0
C274 C 0.83415 0.30626 0.13893 0.0
C275 C 0.84428 0.30905 0.28475 0.0
O276 O 0.8206 0.30485 0.26408 0.0
O277 O 0.8585 0.29557 0.27248 0.0
O278 O 0.753 0.25789 0.22422 0.0
O279 O 0.77343 0.22998 0.24065 0.0
O280 O 0.74296 0.55911 0.17478 0.0
Cd281 Cd 0.76888 0.58171 0.22904 0.0
Cd282 Cd 0.7746 0.53234 0.23509 0.0
O283 O 0.75065 0.52004 0.17537 0.0
O284 O 0.7856 0.62598 0.21685 0.0
O285 O 0.8141 0.60426 0.22041 0.0
C286 C 0.81186 0.62793 0.21215 0.0
C287 C 0.81882 0.53137 0.25341 0.0
C288 C 0.73806 0.53404 0.15857 0.0
C289 C 0.73702 0.54102 0.30518 0.0
O290 O 0.74684 0.52459 0.28877 0.0
O291 O 0.74497 0.567 0.2887 0.0
O292 O 0.7932 0.50653 0.24801 0.0
O293 O 0.82003 0.55665 0.24382 0.0
O294 O 0.54001 0.14698 0.00438 0.0
Cd295 Cd 0.54481 0.1228 0.95315 0.0
Cd296 Cd 0.59708 0.17325 0.94433 0.0
O297 O 0.58877 0.18172 0.00837 0.0
O298 O 0.5187 0.07871 0.96793 0.0
O299 O 0.56922 0.10227 0.96505 0.0
C300 C 0.54358 0.07793 0.97335 0.0
C301 C 0.64498 0.18282 0.91874 0.0
C302 C 0.56182 0.16972 0.02357 0.0
C303 C 0.54878 0.16063 0.87684 0.0
O304 O 0.57271 0.18085 0.8962 0.0
O305 O 0.5353 0.13328 0.89056 0.0
O306 O 0.64106 0.2039 0.93525 0.0
O307 O 0.62198 0.15552 0.92029 0.0
O308 O 0.90398 0.39945 0.98621 0.0
Cd309 Cd 0.93121 0.42769 0.93625 0.0
Cd310 Cd 0.88107 0.43145 0.92287 0.0
O311 O 0.86744 0.41115 0.98454 0.0
O312 O 0.97436 0.44216 0.95513 0.0
O313 O 0.9553 0.4727 0.94756 0.0
C314 C 0.97781 0.46895 0.95884 0.0
C315 C 0.87922 0.47403 0.89857 0.0
C316 C 0.87957 0.39694 1.00187 0.0
C317 C 0.89537 0.39531 0.85744 0.0
O318 O 0.87584 0.40137 0.87333 0.0
O319 O 0.92197 0.40694 0.87428 0.0
O320 O 0.85463 0.44825 0.90404 0.0
O321 O 0.90486 0.47633 0.91011 0.0
O322 O 0.64852 0.50889 0.99676 0.0
Cd323 Cd 0.61965 0.50595 0.9463 0.0
Cd324 Cd 0.61634 0.45261 0.93757 0.0
O325 O 0.63617 0.46067 0.99955 0.0
O326 O 0.60386 0.53371 0.96318 0.0
O327 O 0.57451 0.48376 0.95816 0.0
C328 C 0.5774 0.50976 0.96799 0.0
C329 C 0.57281 0.408 0.91598 0.0
C330 C 0.65093 0.48759 0.01466 0.0
C331 C 0.65192 0.50114 0.8689 0.0
O332 O 0.64647 0.47636 0.88695 0.0
O333 O 0.63976 0.51595 0.88394 0.0
O334 O 0.59851 0.40894 0.92147 0.0
O335 O 0.57124 0.43188 0.92559 0.0
O336 O 0.56784 0.8438 0.84042 0.0
Cd337 Cd 0.59058 0.83857 0.78802 0.0
Cd338 Cd 0.53937 0.78659 0.7809 0.0
O339 O 0.53252 0.79546 0.84562 0.0
O340 O 0.63493 0.86472 0.80125 0.0
O341 O 0.61134 0.81437 0.7984 0.0
C342 C 0.6358 0.84 0.8063 0.0
C343 C 0.5283 0.73882 0.75391 0.0
C344 C 0.54541 0.82242 0.86062 0.0
C345 C 0.5514 0.83505 0.71424 0.0
O346 O 0.53145 0.81125 0.73393 0.0
O347 O 0.5791 0.84864 0.72696 0.0
O348 O 0.50764 0.74313 0.7715 0.0
O349 O 0.55603 0.76119 0.75541 0.0
O350 O 0.20221 0.73531 0.83265 0.0
Cd351 Cd 0.20299 0.7633 0.78267 0.0
Cd352 Cd 0.25656 0.7672 0.76835 0.0
O353 O 0.25047 0.74685 0.8297 0.0
O354 O 0.17525 0.77885 0.80167 0.0
O355 O 0.22519 0.80838 0.79392 0.0
C356 C 0.19925 0.80538 0.80523 0.0
C357 C 0.30037 0.8108 0.74423 0.0
C358 C 0.22423 0.73269 0.8476 0.0
C359 C 0.20539 0.72978 0.70439 0.0
O360 O 0.23144 0.73654 0.71949 0.0
O361 O 0.19065 0.7416 0.7211 0.0
O362 O 0.30005 0.78548 0.7492 0.0
O363 O 0.27648 0.81198 0.75588 0.0
O364 O 0.32028 0.47713 0.81961 0.0
Cd365 Cd 0.28637 0.45187 0.77375 0.0
Cd366 Cd 0.28156 0.49924 0.77983 0.0
O367 O 0.29867 0.50262 0.8434 0.0
O368 O 0.26972 0.40741 0.78506 0.0
O369 O 0.2434 0.43082 0.7965 0.0
C370 C 0.24502 0.40635 0.79864 0.0
C371 C 0.23919 0.50232 0.75702 0.0
C372 C 0.31876 0.49479 0.84806 0.0
C373 C 0.31415 0.49299 0.70136 0.0
O374 O 0.31343 0.51095 0.73002 0.0
O375 O 0.29847 0.46453 0.70797 0.0
O376 O 0.2639 0.52625 0.76972 0.0
O377 O 0.23749 0.4763 0.7616 0.0
O378 O 0.53037 0.89523 0.0189 0.0
Cd379 Cd 0.52992 0.92221 0.06971 0.0
Cd380 Cd 0.47577 0.87293 0.08302 0.0
O381 O 0.48197 0.85892 0.0218 0.0
O382 O 0.55839 0.96547 0.0518 0.0
O383 O 0.50846 0.94581 0.05886 0.0
C384 C 0.5347 0.96855 0.0482 0.0
C385 C 0.43151 0.87242 0.10499 0.0
C386 C 0.5081 0.87089 0.00366 0.0
C387 C 0.52595 0.8859 0.14846 0.0
O388 O 0.49997 0.86689 0.13284 0.0
O389 O 0.54125 0.91232 0.1316 0.0
O390 O 0.43211 0.84754 0.10059 0.0
O391 O 0.45554 0.89761 0.0942 0.0
O392 O 0.15834 0.64038 0.00361 0.0
Cd393 Cd 0.13433 0.61132 0.05466 0.0
Cd394 Cd 0.18534 0.61016 0.06196 0.0
O395 O 0.19293 0.62637 0.99759 0.0
O396 O 0.08997 0.59381 0.0409 0.0
O397 O 0.11304 0.56653 0.04189 0.0
C398 C 0.08877 0.56818 0.03436 0.0
C399 C 0.19656 0.57393 0.09066 0.0
C400 C 0.18083 0.64142 0.98346 0.0
C401 C 0.17354 0.64646 0.12869 0.0
O402 O 0.1935 0.64296 0.10837 0.0
O403 O 0.14567 0.6318 0.11677 0.0
O404 O 0.21711 0.59853 0.07217 0.0
O405 O 0.16878 0.56844 0.08866 0.0
O406 O 0.40617 0.52109 0.0193 0.0
Cd407 Cd 0.43855 0.52868 0.06726 0.0
Cd408 Cd 0.44451 0.58138 0.06025 0.0
O409 O 0.42848 0.56842 0.99628 0.0
O410 O 0.45398 0.49965 0.0573 0.0
O411 O 0.48185 0.54925 0.04597 0.0
C412 C 0.47919 0.52272 0.04395 0.0
C413 C 0.48769 0.62551 0.08403 0.0
C414 C 0.40849 0.54061 0.99085 0.0
C415 C 0.41014 0.54313 0.1383 0.0
O416 O 0.41167 0.56194 0.10921 0.0
O417 O 0.42534 0.52972 0.13249 0.0
O418 O 0.46376 0.6261 0.0708 0.0
O419 O 0.48826 0.60061 0.07934 0.0
O420 O 0.15476 0.52435 0.51923 0.0
Cd421 Cd 0.12827 0.52672 0.56913 0.0
Cd422 Cd 0.17807 0.58099 0.57953 0.0
O423 O 0.1904 0.57288 0.51757 0.0
O424 O 0.08472 0.49799 0.55219 0.0
O425 O 0.10458 0.54786 0.5564 0.0
C426 C 0.08165 0.52148 0.54692 0.0
C427 C 0.17892 0.62548 0.6016 0.0
C428 C 0.17851 0.5461 0.50186 0.0
C429 C 0.16549 0.53214 0.64711 0.0
O430 O 0.18465 0.55736 0.62983 0.0
O431 O 0.13856 0.51683 0.63148 0.0
O432 O 0.20386 0.62492 0.59593 0.0
O433 O 0.15347 0.60136 0.59178 0.0
O434 O 0.52173 0.63777 0.51473 0.0
Cd435 Cd 0.51172 0.60654 0.56528 0.0
Cd436 Cd 0.46069 0.60509 0.55872 0.0
O437 O 0.47386 0.62024 0.49498 0.0
O438 O 0.53894 0.58875 0.55808 0.0
O439 O 0.48891 0.56258 0.54718 0.0
C440 C 0.51503 0.56386 0.54578 0.0
C441 C 0.41278 0.56652 0.58234 0.0
C442 C 0.50218 0.63738 0.48787 0.0
C443 C 0.50029 0.63932 0.63452 0.0
O444 O 0.48167 0.63859 0.60556 0.0
O445 O 0.51213 0.6226 0.62934 0.0
O446 O 0.41602 0.59028 0.56218 0.0
O447 O 0.43644 0.56328 0.5849 0.0
O448 O 0.40926 0.88938 0.50624 0.0
Cd449 Cd 0.43652 0.91765 0.5564 0.0
Cd450 Cd 0.43839 0.86765 0.5757 0.0
O451 O 0.41851 0.8516 0.51472 0.0
O452 O 0.45242 0.96017 0.5345 0.0
O453 O 0.48206 0.94059 0.54772 0.0
C454 C 0.47919 0.96299 0.53361 0.0
C455 C 0.48029 0.86553 0.60257 0.0
C456 C 0.4059 0.86404 0.49375 0.0
C457 C 0.40216 0.88509 0.63614 0.0
O458 O 0.40828 0.86498 0.62345 0.0
O459 O 0.41427 0.91083 0.61698 0.0
O460 O 0.45385 0.8414 0.59944 0.0
O461 O 0.48354 0.89069 0.58733 0.0
O462 O 0.20685 0.48576 0.33604 0.0
Cd463 Cd 0.21586 0.46327 0.2862 0.0
Cd464 Cd 0.267 0.51256 0.28972 0.0
O465 O 0.2551 0.51532 0.35438 0.0
O466 O 0.18915 0.41844 0.29561 0.0
O467 O 0.23937 0.4429 0.30465 0.0
C468 C 0.21344 0.41797 0.30738 0.0
C469 C 0.31394 0.52076 0.26258 0.0
C470 C 0.22694 0.50487 0.36236 0.0
C471 C 0.22601 0.50592 0.21533 0.0
O472 O 0.24487 0.52435 0.24357 0.0
O473 O 0.21447 0.4775 0.22154 0.0
O474 O 0.31173 0.54182 0.28303 0.0
O475 O 0.29 0.49401 0.26193 0.0
O476 O 0.57782 0.73179 0.33069 0.0
Cd477 Cd 0.60046 0.75815 0.27693 0.0
Cd478 Cd 0.54968 0.76215 0.2696 0.0
O479 O 0.53726 0.73731 0.32851 0.0
O480 O 0.6448 0.77414 0.28971 0.0
O481 O 0.62365 0.8031 0.28693 0.0
C482 C 0.64718 0.80039 0.29513 0.0
C483 C 0.54932 0.80674 0.25294 0.0
C484 C 0.55201 0.72566 0.3459 0.0
C485 C 0.56065 0.72711 0.19851 0.0
O486 O 0.54311 0.73561 0.21491 0.0
O487 O 0.58646 0.73514 0.21631 0.0
O488 O 0.52417 0.78128 0.25729 0.0
O489 O 0.57453 0.80747 0.26247 0.0
O490 O 0.31802 0.84212 0.33686 0.0
Cd491 Cd 0.29187 0.8431 0.28519 0.0
Cd492 Cd 0.28933 0.79073 0.26784 0.0
O493 O 0.30758 0.7946 0.33025 0.0
O494 O 0.27688 0.87083 0.30482 0.0
O495 O 0.24639 0.82161 0.2926 0.0
C496 C 0.24984 0.84733 0.30554 0.0
C497 C 0.24712 0.74715 0.24052 0.0
C498 C 0.32037 0.81983 0.35072 0.0
C499 C 0.32717 0.84386 0.20754 0.0
O500 O 0.32079 0.81771 0.22103 0.0
O501 O 0.31471 0.85763 0.2252 0.0
O502 O 0.27299 0.74843 0.24585 0.0
O503 O 0.24459 0.76999 0.25338 0.0
C504 C 0.20516 0.05897 0.01938 0.0
C505 C 0.20661 0.0555 0.06578 0.0
C506 C 0.19591 1.00321 0.05438 0.0
C507 C 0.19034 1.00555 0.00875 0.0
N508 N 0.18517 0.03454 0.94904 0.0
N509 N 0.20264 0.02471 0.12868 0.0
C510 C 0.19392 0.03318 0.99156 0.0
C511 C 0.20199 0.02775 0.08371 0.0
N512 N 0.21463 0.08708 1.00167 0.0
N513 N 0.1951 0.97754 0.06951 0.0
H514 H 0.20805 0.04267 0.15045 0.0
H515 H 0.19649 1.00427 0.1445 0.0
H516 H 0.18995 0.95912 0.04886 0.0
H517 H 0.20141 0.97523 0.10151 0.0
H518 H 0.21754 0.09154 0.96774 0.0
H519 H 0.22243 0.10666 0.02079 0.0
H520 H 0.18348 0.05276 0.93677 0.0
H521 H 0.17699 1.0165 0.92683 0.0
C522 C 1.00973 0.18421 0.05247 0.0
C523 C 0.99936 0.15258 0.05406 0.0
C524 C 0.04707 0.1633 0.01851 0.0
C525 C 0.05291 0.19249 0.00567 0.0
N526 N 0.03629 0.22977 0.00852 0.0
N527 N 1.00687 0.11178 0.02647 0.0
C528 C 0.03356 0.20302 0.02248 0.0
C529 C 1.01779 0.14193 0.03434 0.0
N530 N 0.99755 0.19658 0.08013 0.0
N531 N 0.06921 0.15565 0.01461 0.0
H532 H 0.98417 0.09507 0.03057 0.0
H533 H 1.01948 0.10397 0.00935 0.0
H534 H 0.09138 0.17128 0.00472 0.0
H535 H 0.06633 0.1351 0.02632 0.0
H536 H 1.00609 0.21991 0.08233 0.0
H537 H 0.98178 0.18406 0.10479 0.0
H538 H 1.02032 0.23619 0.01659 0.0
H539 H 0.05267 0.24442 0.98619 0.0
C540 C 0.86558 0.83653 0.98175 0.0
C541 C 0.84792 0.84843 1.0 0.0
C542 C 0.86582 0.84576 0.07474 0.0
C543 C 0.88288 0.83321 0.05629 0.0
N544 N 0.89368 0.8104 0.99356 0.0
N545 N 0.82711 0.86017 0.06352 0.0
C546 C 0.8807 0.82625 0.01034 0.0
C547 C 0.84659 0.85154 0.04656 0.0
N548 N 0.86973 0.83705 0.93683 0.0
N549 N 0.86861 0.85269 0.11894 0.0
H550 H 0.81322 0.86485 0.04332 0.0
H551 H 0.82306 0.86064 0.09728 0.0
H552 H 0.88128 0.84727 0.14056 0.0
H553 H 0.85951 0.8648 0.13391 0.0
H554 H 0.88546 0.83246 0.92174 0.0
H555 H 0.85949 0.84485 0.9146 0.0
H556 H 0.88942 0.80139 0.96159 0.0
H557 H 0.90683 0.80401 0.01222 0.0
C558 C 0.04518 0.21455 0.51503 0.0
C559 C 1.017 0.18971 0.50081 0.0
C560 C 0.04214 0.1837 0.43529 0.0
C561 C 0.07092 0.20454 0.45397 0.0
N562 N 0.10006 0.23765 0.5147 0.0
N563 N 0.98784 0.15046 0.44758 0.0
C564 C 0.07258 0.21996 0.49416 0.0
C565 C 1.01519 0.17443 0.46064 0.0
N566 N 0.04587 0.23244 0.54937 0.0
N567 N 0.04067 0.17316 0.39312 0.0
H568 H 0.96752 0.14435 0.46423 0.0
H569 H 0.98549 0.13594 0.42161 0.0
H570 H 0.06005 0.18009 0.37358 0.0
H571 H 1.02031 0.1599 0.37608 0.0
H572 H 0.06531 0.25271 0.55814 0.0
H573 H 1.0264 0.22865 0.56642 0.0
H574 H 0.10216 0.24625 0.54668 0.0
H575 H 0.12081 0.24167 0.50184 0.0
C576 C 0.84133 0.85062 0.43872 0.0
C577 C 0.86503 0.88125 0.43237 0.0
C578 C 0.90028 0.86733 0.46586 0.0
C579 C 0.87563 0.84075 0.48417 0.0
N580 N 0.82073 0.80757 0.48831 0.0
N581 N 0.91738 0.91961 0.45133 0.0
C582 C 0.8455 0.83214 0.47032 0.0
C583 C 0.89483 0.8899 0.4483 0.0
N584 N 0.81528 0.8388 0.41394 0.0
N585 N 0.92908 0.87156 0.46688 0.0
H586 H 0.91403 0.93791 0.44636 0.0
H587 H 0.93853 0.9261 0.46567 0.0
H588 H 0.93353 0.85485 0.47859 0.0
H589 H 0.94749 0.88993 0.45139 0.0
H590 H 0.7984 0.81598 0.41539 0.0
H591 H 0.81249 0.85066 0.38787 0.0
H592 H 0.79849 0.80288 0.48252 0.0
H593 H 0.82215 0.79304 0.51115 0.0
C594 C 0.19719 1.00629 0.43437 0.0
C595 C 0.16685 0.98397 0.44545 0.0
C596 C 0.1712 1.00958 0.51622 0.0
C597 C 0.20061 0.03357 0.50364 0.0
N598 N 0.24054 0.05655 0.44914 0.0
N599 N 0.12377 0.96522 0.49528 0.0
C600 C 0.21346 0.03232 0.46235 0.0
C601 C 0.15353 0.98599 0.48577 0.0
N602 N 0.21038 1.00248 0.39726 0.0
N603 N 0.16066 1.00823 0.55846 0.0
H604 H 0.11066 0.94546 0.47704 0.0
H605 H 0.11132 0.96831 0.52015 0.0
H606 H 0.17202 0.02499 0.5822 0.0
H607 H 0.14177 0.98918 0.57161 0.0
H608 H 0.23335 1.01614 0.38944 0.0
H609 H 0.19863 0.9843 0.37547 0.0
H610 H 0.24987 0.05856 0.41772 0.0
H611 H 0.25276 0.07589 0.46871 0.0
C612 C 0.87742 0.03537 0.95039 0.0
C613 C 0.86199 0.03146 0.99122 0.0
C614 C 0.835 0.97626 0.98144 0.0
C615 C 0.85007 0.98002 0.94009 0.0
N616 N 0.87994 1.01297 0.88042 0.0
N617 N 0.82057 0.99921 0.03998 0.0
C618 C 0.8695 1.0096 0.92302 0.0
C619 C 0.83867 1.00224 0.00449 0.0
N620 N 0.90025 0.0636 0.93852 0.0
N621 N 0.81942 0.94826 1.00092 0.0
H622 H 0.82319 1.0176 0.05864 0.0
H623 H 0.80117 0.97881 0.04834 0.0
H624 H 0.81705 0.92854 0.98678 0.0
H625 H 0.81129 0.94489 0.03336 0.0
H626 H 0.91492 0.0676 0.91197 0.0
H627 H 0.90538 0.08303 0.95677 0.0
H628 H 0.89203 0.03387 0.86456 0.0
H629 H 0.87404 0.99449 0.85948 0.0
C630 C 0.0362 0.83473 0.00844 0.0
C631 C 1.00721 0.83074 0.99758 0.0
C632 C 1.02916 0.8625 0.93145 0.0
C633 C 0.05885 0.87116 0.94721 0.0
N634 N 0.09072 0.86809 0.00473 0.0
N635 N 0.97531 0.84015 0.94877 0.0
C636 C 0.06248 0.85749 0.98623 0.0
C637 C 1.0034 0.8442 0.95874 0.0
N638 N 0.03882 0.81749 0.041 0.0
N639 N 1.02568 0.87148 0.89018 0.0
H640 H 0.95583 0.82544 0.96674 0.0
H641 H 0.97154 0.85221 0.92408 0.0
H642 H 0.04415 0.88431 0.86922 0.0
H643 H 1.00457 0.86391 0.87513 0.0
H644 H 0.05891 0.81717 0.04706 0.0
H645 H 1.02027 0.80124 0.05906 0.0
H646 H 0.09409 0.86148 0.03596 0.0
H647 H 0.11076 0.88565 0.99142 0.0
C648 C 0.17148 0.20109 0.99553 0.0
C649 C 0.1742 0.19832 0.94911 0.0
C650 C 0.21277 0.18331 0.96274 0.0
C651 C 0.20715 0.18255 0.009 0.0
N652 N 0.17762 0.1863 0.06915 0.0
N653 N 0.19612 0.18573 0.88769 0.0
C654 C 0.18571 0.19044 0.0253 0.0
C655 C 0.19461 0.18923 0.93242 0.0
N656 N 0.15504 0.21367 0.01153 0.0
N657 N 0.23525 0.17816 0.94796 0.0
H658 H 0.1842 0.19127 0.86482 0.0
H659 H 0.20795 0.17613 0.87329 0.0
H660 H 0.24815 0.17291 0.96936 0.0
H661 H 0.2425 0.18096 0.91512 0.0
H662 H 0.15578 0.22004 0.04457 0.0
H663 H 0.14236 0.22001 0.99166 0.0
H664 H 0.15924 0.18767 0.08182 0.0
H665 H 0.18745 0.17884 0.09257 0.0
C666 C 1.02739 0.86281 0.56886 0.0
C667 C 0.99753 0.8436 0.55191 0.0
C668 C 1.01941 0.83414 0.4854 0.0
C669 C 0.04882 0.857 0.49908 0.0
N670 N 0.08142 0.89433 0.55259 0.0
N671 N 0.96527 0.81505 0.48992 0.0
C672 C 0.05305 0.87158 0.54067 0.0
C673 C 0.99349 0.8299 0.50938 0.0
N674 N 0.03115 0.8721 0.61211 0.0
N675 N 1.0162 0.8168 0.4489 0.0
H676 H 0.94558 0.81253 0.50468 0.0
H677 H 0.96178 0.80786 0.45697 0.0
H678 H 0.03466 0.81971 0.42989 0.0
H679 H 0.99563 0.7977 0.44008 0.0
H680 H 0.05234 0.88395 0.62761 0.0
H681 H 1.01282 0.86548 0.63374 0.0
H682 H 0.08551 0.90838 0.57994 0.0
H683 H 0.10079 0.90018 0.53354 0.0
C684 C 0.19059 0.20251 0.5575 0.0
C685 C 0.2074 0.21485 0.51788 0.0
C686 C 0.23355 0.18591 0.5287 0.0
C687 C 0.21621 0.17285 0.56795 0.0
N688 N 0.18489 0.17509 0.62615 0.0
N689 N 0.25174 0.22623 0.47422 0.0
C690 C 0.19691 0.18333 0.5845 0.0
C691 C 0.23147 0.20952 0.50676 0.0
N692 N 0.1679 0.20838 0.56837 0.0
N693 N 0.24978 0.17401 0.50973 0.0
H694 H 0.25075 0.24339 0.45689 0.0
H695 H 0.27146 0.22532 0.4678 0.0
H696 H 0.25123 0.15589 0.52291 0.0
H697 H 0.25957 0.18019 0.47832 0.0
H698 H 0.15221 0.19723 0.59366 0.0
H699 H 0.16417 0.22384 0.55063 0.0
H700 H 0.17263 0.18385 0.64171 0.0
H701 H 0.18972 0.16159 0.64683 0.0
C702 C 0.88059 0.02642 0.56643 0.0
C703 C 0.89218 0.05616 0.54917 0.0
C704 C 0.86313 0.03472 0.48045 0.0
C705 C 0.85541 1.00527 0.49508 0.0
N706 N 0.85748 0.97249 0.55073 0.0
N707 N 0.89826 0.08861 0.48665 0.0
C708 C 0.86415 1.0009 0.5379 0.0
C709 C 0.8841 0.06039 0.5056 0.0
N710 N 0.88477 0.02264 0.61028 0.0
N711 N 0.85081 0.03818 0.44202 0.0
H712 H 0.91465 0.10812 0.50278 0.0
H713 H 0.89598 0.09239 0.45326 0.0
H714 H 0.83603 0.01997 0.42198 0.0
H715 H 0.853 0.05878 0.43211 0.0
H716 H 0.87461 1.0016 0.62596 0.0
H717 H 0.89624 0.04089 0.63206 0.0
H718 H 0.86623 0.96817 0.57932 0.0
H719 H 0.84431 0.95326 0.53132 0.0
C720 C 0.88057 0.36221 0.30836 0.0
C721 C 0.85688 0.33269 0.31976 0.0
C722 C 0.85 0.3521 0.39081 0.0
C723 C 0.87001 0.38217 0.3761 0.0
N724 N 0.90205 0.41628 0.31837 0.0
N725 N 0.81855 0.29885 0.37114 0.0
C726 C 0.88522 0.38739 0.33461 0.0
C727 C 0.84164 0.32738 0.36106 0.0
N728 N 0.89815 0.3663 0.27175 0.0
N729 N 0.83939 0.34728 0.43343 0.0
H730 H 0.81308 0.28007 0.35108 0.0
H731 H 0.804 0.29398 0.39811 0.0
H732 H 0.84554 0.36499 0.45598 0.0
H733 H 0.82684 0.32585 0.44764 0.0
H734 H 0.91781 0.38672 0.26438 0.0
H735 H 0.89473 0.3486 0.25073 0.0
H736 H 0.9103 0.42115 0.286 0.0
H737 H 0.90576 0.43554 0.33567 0.0
C738 C 0.65834 0.48244 0.34577 0.0
C739 C 0.65954 0.49119 0.39075 0.0
C740 C 0.7111 0.53477 0.37956 0.0
C741 C 0.70996 0.52575 0.33468 0.0
N742 N 0.68072 0.49448 0.27261 0.0
N743 N 0.68398 0.5275 0.44942 0.0
C744 C 0.68302 0.5006 0.31714 0.0
C745 C 0.68497 0.51808 0.4073 0.0
N746 N 0.63379 0.4561 0.33067 0.0
N747 N 0.73757 0.55835 0.39595 0.0
H748 H 0.66531 0.51533 0.47033 0.0
H749 H 0.70051 0.54811 0.46275 0.0
H750 H 0.75676 0.57103 0.3762 0.0
H751 H 0.74121 0.5645 0.42928 0.0
H752 H 0.6334 0.44583 0.30062 0.0
H753 H 0.61397 0.44338 0.34913 0.0
H754 H 0.66045 0.47945 0.25664 0.0
H755 H 0.69868 0.50592 0.25051 0.0
C756 C 0.53678 0.18634 0.41066 0.0
C757 C 0.54933 0.16941 0.39201 0.0
C758 C 0.51819 0.16039 0.32508 0.0
C759 C 0.51017 0.18178 0.34038 0.0
N760 N 0.51139 0.21537 0.39742 0.0
N761 N 0.55509 0.14366 0.32831 0.0
C762 C 0.51908 0.19458 0.38338 0.0
C763 C 0.54042 0.15674 0.34873 0.0
N764 N 0.5415 0.19414 0.45455 0.0
N765 N 0.50538 0.14425 0.2871 0.0
H766 H 0.57245 0.14144 0.34306 0.0
H767 H 0.55221 0.13762 0.29488 0.0
H768 H 0.48971 0.14688 0.26801 0.0
H769 H 0.50799 0.12615 0.27687 0.0
H770 H 0.5309 0.20425 0.47122 0.0
H771 H 0.55396 0.18796 0.47534 0.0
H772 H 0.52016 0.22839 0.42605 0.0
H773 H 0.49702 0.22046 0.3791 0.0
C774 C 0.67056 0.49882 0.79257 0.0
C775 C 0.67573 0.51402 0.83389 0.0
C776 C 0.73086 0.54164 0.81997 0.0
C777 C 0.72577 0.5263 0.77865 0.0
N778 N 0.69093 0.49609 0.72079 0.0
N779 N 0.7096 0.55534 0.88176 0.0
C780 C 0.69558 0.50672 0.76341 0.0
C781 C 0.70546 0.5375 0.84554 0.0
N782 N 0.64179 0.47626 0.78189 0.0
N783 N 0.75978 0.5581 0.8368 0.0
H784 H 0.69186 0.55238 0.90242 0.0
H785 H 0.7302 0.57487 0.88904 0.0
H786 H 0.77916 0.56134 0.8201 0.0
H787 H 0.76449 0.56644 0.86914 0.0
H788 H 0.63687 0.46164 0.75504 0.0
H789 H 0.62282 0.47143 0.80124 0.0
H790 H 0.66948 0.48383 0.70617 0.0
H791 H 0.70884 0.50192 0.69862 0.0
C792 C 0.54129 0.1961 0.76984 0.0
C793 C 0.52016 0.20491 0.784 0.0
C794 C 0.51042 0.17454 0.85178 0.0
C795 C 0.53531 0.17037 0.84121 0.0
N796 N 0.57483 0.17688 0.79058 0.0
N797 N 0.48743 0.20574 0.84194 0.0
C798 C 0.55069 0.18083 0.80008 0.0
C799 C 0.50493 0.19448 0.82547 0.0
N800 N 0.55201 0.20206 0.72728 0.0
N801 N 0.49254 0.1602 0.88777 0.0
H802 H 0.48346 0.22133 0.82527 0.0
H803 H 0.47907 0.20189 0.87428 0.0
H804 H 0.4965 0.14638 0.90898 0.0
H805 H 0.47212 0.15973 0.89422 0.0
H806 H 0.56545 0.19403 0.71351 0.0
H807 H 0.54506 0.21276 0.70437 0.0
H808 H 0.5894 0.18708 0.76379 0.0
H809 H 0.58108 0.1643 0.81092 0.0
C810 C 0.87592 0.37495 0.78108 0.0
C811 C 0.88451 0.37059 0.82408 0.0
C812 C 0.85379 0.31545 0.81483 0.0
C813 C 0.84541 0.31964 0.77142 0.0
N814 N 0.85391 0.35279 0.70942 0.0
N815 N 0.88828 0.33717 0.87721 0.0
C816 C 0.85826 0.34928 0.7533 0.0
C817 C 0.87597 0.34099 0.83904 0.0
N818 N 0.88392 0.40358 0.76747 0.0
N819 N 0.83866 0.28758 0.83481 0.0
H820 H 0.9038 0.3552 0.89682 0.0
H821 H 0.88536 0.31629 0.88716 0.0
H822 H 0.82127 0.26823 0.81965 0.0
H823 H 0.84116 0.28412 0.86826 0.0
H824 H 0.87538 0.40814 0.73886 0.0
H825 H 0.89826 0.42284 0.78613 0.0
H826 H 0.86477 0.37361 0.69313 0.0
H827 H 0.84148 0.33437 0.68826 0.0
C828 C 0.50693 0.33729 0.35769 0.0
C829 C 0.52783 0.3672 0.34325 0.0
C830 C 0.53653 0.34727 0.27397 0.0
C831 C 0.51688 0.31721 0.28943 0.0
N832 N 0.47866 0.28342 0.34182 0.0
N833 N 0.55794 0.40165 0.28553 0.0
C834 C 0.50026 0.3122 0.32964 0.0
C835 C 0.5411 0.37245 0.30048 0.0
N836 N 0.49529 0.33276 0.39979 0.0
N837 N 0.5511 0.35153 0.23418 0.0
H838 H 0.56108 0.4202 0.3044 0.0
H839 H 0.56704 0.40762 0.25378 0.0
H840 H 0.54637 0.33368 0.21258 0.0
H841 H 0.56818 0.37244 0.22262 0.0
H842 H 0.48363 0.31165 0.41514 0.0
H843 H 0.49865 0.35045 0.42081 0.0
H844 H 0.463 0.27873 0.3672 0.0
H845 H 0.47483 0.26392 0.32522 0.0
C846 C 0.70115 0.22071 0.28388 0.0
C847 C 0.72109 0.21135 0.26557 0.0
C848 C 0.69249 0.16323 0.30648 0.0
C849 C 0.67162 0.17222 0.32184 0.0
N850 N 0.64922 0.20329 0.3059 0.0
N851 N 0.72639 0.168 0.24657 0.0
C852 C 0.67348 0.19868 0.30347 0.0
C853 C 0.71383 0.18077 0.27267 0.0
N854 N 0.70924 0.2506 0.28711 0.0
N855 N 0.69344 0.13926 0.32497 0.0
H856 H 0.73975 0.17898 0.21891 0.0
H857 H 0.72004 0.14514 0.24879 0.0
H858 H 0.67891 0.12575 0.35003 0.0
H859 H 0.71061 0.13437 0.31755 0.0
H860 H 0.69543 0.25753 0.30285 0.0
H861 H 0.73109 0.26856 0.28115 0.0
H862 H 0.64924 0.22166 0.29052 0.0
H863 H 0.62812 0.18687 0.31849 0.0
C864 C 0.87829 0.54231 0.34032 0.0
C865 C 0.88375 0.51864 0.32784 0.0
C866 C 0.8553 0.51168 0.25862 0.0
C867 C 0.84473 0.53074 0.27557 0.0
N868 N 0.84373 0.56184 0.33577 0.0
N869 N 0.87895 0.48135 0.27456 0.0
C870 C 0.8561 0.54606 0.31678 0.0
C871 C 0.87302 0.50377 0.28642 0.0
N872 N 0.89347 0.56056 0.37564 0.0
N873 N 0.84851 0.50139 0.21591 0.0
H874 H 0.89339 0.47649 0.29311 0.0
H875 H 0.86881 0.46697 0.24755 0.0
H876 H 0.83597 0.50729 0.19481 0.0
H877 H 0.85751 0.48942 0.2002 0.0
H878 H 0.89263 0.58004 0.38348 0.0
H879 H 0.90941 0.55815 0.39435 0.0
H880 H 0.84842 0.57004 0.3682 0.0
H881 H 0.82656 0.56446 0.32121 0.0
C882 C 0.69362 0.21922 0.87696 0.0
C883 C 0.67413 0.19 0.89571 0.0
C884 C 0.70394 0.17109 0.85672 0.0
C885 C 0.72423 0.2009 0.84069 0.0
N886 N 0.74542 0.25436 0.85526 0.0
N887 N 0.67021 0.14226 0.9169 0.0
C888 C 0.72161 0.22529 0.85809 0.0
C889 C 0.68225 0.16717 0.89 0.0
N890 N 0.68481 0.24044 0.87259 0.0
N891 N 0.70385 0.14629 0.83937 0.0
H892 H 0.65663 0.13993 0.94427 0.0
H893 H 0.67719 0.12619 0.91565 0.0
H894 H 0.71876 0.14736 0.81489 0.0
H895 H 0.68705 0.12418 0.84724 0.0
H896 H 0.69836 0.2611 0.85654 0.0
H897 H 0.66273 0.23608 0.87793 0.0
H898 H 0.74483 0.27262 0.86994 0.0
H899 H 0.76673 0.25936 0.84307 0.0
C900 C 0.85889 0.50983 0.8927 0.0
C901 C 0.87784 0.49915 0.87551 0.0
C902 C 0.88743 0.53068 0.80908 0.0
C903 C 0.86412 0.53664 0.82253 0.0
N904 N 0.82811 0.53314 0.87747 0.0
N905 N 0.90828 0.49725 0.81515 0.0
C906 C 0.85025 0.52687 0.86478 0.0
C907 C 0.89222 0.50953 0.83356 0.0
N908 N 0.84948 0.50389 0.93588 0.0
N909 N 0.90444 0.54451 0.77218 0.0
H910 H 0.91204 0.48128 0.83108 0.0
H911 H 0.91579 0.50092 0.78237 0.0
H912 H 0.9011 0.55939 0.75249 0.0
H913 H 0.92382 0.54355 0.76347 0.0
H914 H 0.83774 0.51307 0.95181 0.0
H915 H 0.85588 0.49182 0.95707 0.0
H916 H 0.81432 0.52362 0.90521 0.0
H917 H 0.82278 0.54719 0.85895 0.0
C918 C 0.52899 0.35408 0.91025 0.0
C919 C 0.54831 0.38272 0.89033 0.0
C920 C 0.53305 0.36031 0.81658 0.0
C921 C 0.51296 0.33162 0.83602 0.0
N922 N 0.48786 0.30181 0.90059 0.0
N923 N 0.56235 0.41477 0.82549 0.0
C924 C 0.50945 0.32876 0.88276 0.0
C925 C 0.54791 0.38638 0.84384 0.0
N926 N 0.53007 0.35104 0.95515 0.0
N927 N 0.53981 0.36244 0.77233 0.0
H928 H 0.57435 0.43458 0.84412 0.0
H929 H 0.55997 0.41885 0.79224 0.0
H930 H 0.53041 0.34386 0.75102 0.0
H931 H 0.55704 0.38203 0.75749 0.0
H932 H 0.51905 0.33028 0.97159 0.0
H933 H 0.54322 0.36951 0.97591 0.0
H934 H 0.48238 0.2987 0.93419 0.0
H935 H 0.47378 0.283 0.88094 0.0
C936 C 0.53692 0.67829 0.69134 0.0
C937 C 0.50705 0.65984 0.67365 0.0
C938 C 0.49107 0.69279 0.70853 0.0
C939 C 0.52007 0.71001 0.72952 0.0
N940 N 0.56609 0.71053 0.75271 0.0
N941 N 0.45355 0.64275 0.68351 0.0
C942 C 0.54163 0.70005 0.72479 0.0
C943 C 0.48339 0.66468 0.68878 0.0
N944 N 0.5612 0.67667 0.67512 0.0
N945 N 0.47174 0.70395 0.70319 0.0
H946 H 0.44716 0.62123 0.67105 0.0
H947 H 0.43566 0.64488 0.69656 0.0
H948 H 0.47771 0.72629 0.70992 0.0
H949 H 0.45138 0.69228 0.6854 0.0
H950 H 0.58362 0.69206 0.6843 0.0
H951 H 0.55957 0.66202 0.64987 0.0
H952 H 0.58109 0.70213 0.75232 0.0
H953 H 0.56901 0.72445 0.77985 0.0
C954 C 0.38219 0.86664 0.71257 0.0
C955 C 0.37794 0.87606 0.67015 0.0
C956 C 0.32247 0.84712 0.68006 0.0
C957 C 0.32664 0.83679 0.72193 0.0
N958 N 0.35973 0.84263 0.78308 0.0
N959 N 0.34501 0.88276 0.61929 0.0
C960 C 0.35636 0.84858 0.73987 0.0
C961 C 0.3484 0.8691 0.65617 0.0
N962 N 0.41091 0.87413 0.72587 0.0
N963 N 0.29409 0.83409 0.6612 0.0
H964 H 0.36334 0.89843 0.60033 0.0
H965 H 0.32434 0.8809 0.60999 0.0
H966 H 0.27439 0.81757 0.6768 0.0
H967 H 0.29025 0.83778 0.62843 0.0
H968 H 0.41549 0.86502 0.75378 0.0
H969 H 0.4303 0.88888 0.70769 0.0
H970 H 0.38061 0.85248 0.79951 0.0
H971 H 0.34111 0.82977 0.80379 0.0
C972 C 0.18541 0.53078 0.72314 0.0
C973 C 0.17714 0.51855 0.67972 0.0
C974 C 0.20762 0.49374 0.68823 0.0
C975 C 0.21532 0.50522 0.7323 0.0
N976 N 0.20629 0.52898 0.79502 0.0
N977 N 0.17414 0.48253 0.62496 0.0
C978 C 0.20252 0.52199 0.75082 0.0
C979 C 0.18589 0.49779 0.66393 0.0
N980 N 0.17757 0.55143 0.73736 0.0
N981 N 0.22299 0.48137 0.66784 0.0
H982 H 0.15911 0.48566 0.60508 0.0
H983 H 0.1771 0.46471 0.61435 0.0
H984 H 0.24013 0.479 0.68302 0.0
H985 H 0.22102 0.47624 0.6341 0.0
H986 H 0.18589 0.564 0.76646 0.0
H987 H 0.16371 0.55701 0.7187 0.0
H988 H 0.19536 0.53882 0.8115 0.0
H989 H 0.21824 0.52237 0.81614 0.0
C990 C 0.37539 0.8535 0.10647 0.0
C991 C 0.40465 0.87183 0.12559 0.0
C992 C 0.38118 0.88197 0.18959 0.0
C993 C 0.3521 0.85898 0.17464 0.0
N994 N 0.32064 0.82366 0.11824 0.0
N995 N 0.43567 0.90194 0.18731 0.0
C996 C 0.34893 0.84529 0.1325 0.0
C997 C 0.40773 0.88629 0.16719 0.0
N998 N 0.37306 0.84423 0.06335 0.0
N999 N 0.38355 0.89908 0.22595 0.0
H1000 H 0.45582 0.90538 0.17288 0.0
H1001 H 0.43868 0.90945 0.22007 0.0
H1002 H 0.36479 0.89618 0.24402 0.0
H1003 H 0.40387 0.91817 0.23561 0.0
H1004 H 0.35252 0.83288 0.04608 0.0
H1005 H 0.39216 0.85035 0.04353 0.0
H1006 H 0.31689 0.81 0.09053 0.0
H1007 H 0.30078 0.81867 0.13542 0.0
C1008 C 0.18367 0.52278 0.12337 0.0
C1009 C 0.20502 0.55417 0.11687 0.0
C1010 C 0.24215 0.547 0.15915 0.0
C1011 C 0.21876 0.51883 0.1756 0.0
N1012 N 0.1647 0.48131 0.17566 0.0
N1013 N 0.25314 0.59733 0.14185 0.0
C1014 C 0.18875 0.50678 0.15811 0.0
C1015 C 0.23409 0.56671 0.13791 0.0
N1016 N 0.15904 0.50792 0.09594 0.0
N1017 N 0.2721 0.55528 0.1644 0.0
H1018 H 0.24684 0.61333 0.13406 0.0
H1019 H 0.27357 0.6066 0.15958 0.0
H1020 H 0.27877 0.54057 0.17772 0.0
H1021 H 0.28977 0.57505 0.15046 0.0
H1022 H 0.14418 0.48455 0.09768 0.0
H1023 H 0.15583 0.51808 0.068 0.0
H1024 H 0.14219 0.47387 0.16647 0.0
H1025 H 0.16663 0.46919 0.20199 0.0
C1026 C 0.5498 0.70456 0.12138 0.0
C1027 C 0.54649 0.70066 0.16802 0.0
C1028 C 0.51082 0.64617 0.15811 0.0
C1029 C 0.51091 0.6507 0.1116 0.0
N1030 N 0.52964 0.68381 0.04818 0.0
N1031 N 0.52041 0.66877 0.23101 0.0
C1032 C 0.53034 0.67982 0.09293 0.0
C1033 C 0.52636 0.67167 0.18642 0.0
N1034 N 0.57139 0.73191 0.10458 0.0
N1035 N 0.49542 0.61754 0.17565 0.0
H1036 H 0.53101 0.68679 0.25322 0.0
H1037 H 0.50299 0.64921 0.24563 0.0
H1038 H 0.48174 0.59808 0.15717 0.0
H1039 H 0.49802 0.6127 0.20843 0.0
H1040 H 0.57688 0.73582 0.07105 0.0
H1041 H 0.58546 0.7503 0.12492 0.0
H1042 H 0.54068 0.70489 0.03267 0.0
H1043 H 0.51679 0.66582 0.02651 0.0
C1044 C 0.16554 0.64904 0.66486 0.0
C1045 C 0.1797 0.65225 0.62292 0.0
C1046 C 0.20506 0.70778 0.6297 0.0
C1047 C 0.19116 0.70448 0.67175 0.0
N1048 N 0.15195 0.67243 0.72379 0.0
N1049 N 0.20671 0.68394 0.56062 0.0
C1050 C 0.16903 0.67525 0.68712 0.0
C1051 C 0.19746 0.68147 0.60377 0.0
N1052 N 0.15096 0.62136 0.68543 0.0
N1053 N 0.22627 0.73608 0.61534 0.0
H1054 H 0.20109 0.66501 0.54083 0.0
H1055 H 0.2175 0.70435 0.54329 0.0
H1056 H 0.23082 0.75577 0.6324 0.0
H1057 H 0.24011 0.74001 0.58774 0.0
H1058 H 0.14376 0.61838 0.71834 0.0
H1059 H 0.14833 0.60153 0.67128 0.0
H1060 H 0.13334 0.6519 0.73381 0.0
H1061 H 0.15437 0.69092 0.74191 0.0
C1062 C 0.33713 0.53412 0.64508 0.0
C1063 C 0.3339 0.5066 0.66142 0.0
C1064 C 0.37525 0.51406 0.61126 0.0
C1065 C 0.38362 0.54501 0.60542 0.0
N1066 N 0.37432 0.58564 0.62828 0.0
N1067 N 0.3532 0.47149 0.66164 0.0
C1068 C 0.36488 0.55543 0.62482 0.0
C1069 C 0.35356 0.4965 0.64459 0.0
N1070 N 0.31402 0.54031 0.64988 0.0
N1071 N 0.3874 0.50115 0.5846 0.0
H1072 H 0.33846 0.45799 0.68654 0.0
H1073 H 0.36955 0.46563 0.65335 0.0
H1074 H 0.40165 0.51263 0.5579 0.0
H1075 H 0.3802 0.47806 0.58554 0.0
H1076 H 0.31479 0.55939 0.63578 0.0
H1077 H 0.2929 0.52458 0.66323 0.0
H1078 H 0.36174 0.59351 0.64531 0.0
H1079 H 0.39616 0.60295 0.62042 0.0
C1080 C 0.53398 0.83746 0.63748 0.0
C1081 C 0.54081 0.8492 0.68119 0.0
C1082 C 0.5162 0.87939 0.6672 0.0
C1083 C 0.50536 0.86413 0.6259 0.0
N1084 N 0.50543 0.83075 0.56935 0.0
N1085 N 0.5393 0.88128 0.73869 0.0
C1086 C 0.51503 0.84401 0.61013 0.0
C1087 C 0.53279 0.87072 0.69597 0.0
N1088 N 0.54575 0.82013 0.62246 0.0
N1089 N 0.51003 0.90162 0.6795 0.0
H1090 H 0.55254 0.87651 0.76009 0.0
H1091 H 0.53046 0.89351 0.75398 0.0
H1092 H 0.4962 0.90734 0.66129 0.0
H1093 H 0.52024 0.916 0.70647 0.0
H1094 H 0.5436 0.81229 0.59004 0.0
H1095 H 0.55978 0.81531 0.64209 0.0
H1096 H 0.50863 0.81341 0.55736 0.0
H1097 H 0.49345 0.83683 0.54739 0.0
C1098 C 0.35002 0.50473 0.23054 0.0
C1099 C 0.34211 0.52761 0.23706 0.0
C1100 C 0.38738 0.56226 0.1941 0.0
C1101 C 0.3902 0.53763 0.178 0.0
N1102 N 0.37002 0.4831 0.17843 0.0
N1103 N 0.35085 0.57711 0.21319 0.0
C1104 C 0.37064 0.50816 0.19581 0.0
C1105 C 0.36028 0.5563 0.21611 0.0
N1106 N 0.33851 0.48005 0.25786 0.0
N1107 N 0.41038 0.59144 0.188 0.0
H1108 H 0.32939 0.57291 0.2228 0.0
H1109 H 0.36283 0.59716 0.19506 0.0
H1110 H 0.43121 0.59664 0.17379 0.0
H1111 H 0.40997 0.60997 0.20199 0.0
H1112 H 0.34551 0.464 0.25635 0.0
H1113 H 0.32514 0.47778 0.28549 0.0
H1114 H 0.35377 0.46111 0.18777 0.0
H1115 H 0.38348 0.48377 0.15197 0.0
C1116 C 0.53096 0.84437 0.24979 0.0
C1117 C 0.54923 0.83312 0.23178 0.0
C1118 C 0.56206 0.86791 0.16853 0.0
C1119 C 0.53936 0.87468 0.18223 0.0
N1120 N 0.50256 0.87042 0.2363 0.0
N1121 N 0.57938 0.83155 0.1706 0.0
C1122 C 0.52418 0.86348 0.22335 0.0
C1123 C 0.56461 0.84464 0.19071 0.0
N1124 N 0.52043 0.83698 0.2923 0.0
N1125 N 0.58057 0.88293 0.13339 0.0
H1126 H 0.58111 0.8137 0.18424 0.0
H1127 H 0.58751 0.83639 0.13816 0.0
H1128 H 0.57901 0.89952 0.11535 0.0
H1129 H 0.59953 0.88115 0.12493 0.0
H1130 H 0.50912 0.84637 0.3089 0.0
H1131 H 0.52544 0.82336 0.31242 0.0
H1132 H 0.4879 0.86016 0.26299 0.0
H1133 H 0.49859 0.88585 0.21895 0.0
C1134 C 0.21119 0.72532 0.17561 0.0
C1135 C 0.22196 0.7209 0.21697 0.0
C1136 C 0.19463 0.66585 0.20452 0.0
C1137 C 0.18422 0.67038 0.16311 0.0
N1138 N 0.17575 0.70286 0.1142 0.0
N1139 N 0.21795 0.68716 0.27587 0.0
C1140 C 0.18996 0.69961 0.15065 0.0
C1141 C 0.21167 0.69113 0.23308 0.0
N1142 N 0.22309 0.75387 0.15826 0.0
N1143 N 0.18908 0.63752 0.2157 0.0
H1144 H 0.22997 0.70531 0.29764 0.0
H1145 H 0.20897 0.66601 0.29101 0.0
H1146 H 0.17527 0.61837 0.1965 0.0
H1147 H 0.19913 0.63319 0.24274 0.0
H1148 H 0.21902 0.75812 0.1259 0.0
H1149 H 0.23913 0.77346 0.17463 0.0
H1150 H 0.17659 0.72312 0.10595 0.0
H1151 H 0.16077 0.68461 0.0944 0.0
C1152 C 0.18804 0.17075 0.3028 0.0
C1153 C 0.18627 0.19755 0.29765 0.0
C1154 C 0.20239 0.20168 0.22017 0.0
C1155 C 0.20719 0.17663 0.22645 0.0
N1156 N 0.2087 0.13994 0.2754 0.0
N1157 N 0.19362 0.24001 0.25318 0.0
C1158 C 0.20077 0.16159 0.26808 0.0
C1159 C 0.19395 0.21339 0.2568 0.0
N1160 N 0.17793 0.15426 0.34112 0.0
N1161 N 0.20474 0.21365 0.17876 0.0
H1162 H 0.18516 0.24809 0.27794 0.0
H1163 H 0.20322 0.25499 0.2267 0.0
H1164 H 0.21183 0.20678 0.15101 0.0
H1165 H 0.19747 0.22893 0.17096 0.0
H1166 H 0.17528 0.13275 0.34498 0.0
H1167 H 0.17006 0.16105 0.36826 0.0
H1168 H 0.2078 0.13049 0.30637 0.0
H1169 H 0.21882 0.13319 0.25128 0.0
C1170 C 0.87373 0.02773 0.28669 0.0
C1171 C 0.85301 0.99659 0.27787 0.0
C1172 C 0.85419 1.00752 0.19858 0.0
C1173 C 0.87209 0.03907 0.20806 0.0
N1174 N 0.89662 0.07981 0.26105 0.0
N1175 N 0.82102 0.95675 0.2269 0.0
C1176 C 0.88148 0.04938 0.25208 0.0
C1177 C 0.8426 0.98642 0.23418 0.0
N1178 N 0.88636 0.03648 0.32805 0.0
N1179 N 0.84928 0.99766 0.15549 0.0
H1180 H 0.813 0.94046 0.25198 0.0
H1181 H 0.80963 0.94868 0.19682 0.0
H1182 H 0.85793 1.01231 0.12839 0.0
H1183 H 0.83902 0.97489 0.14647 0.0
H1184 H 0.90396 0.05826 0.33552 0.0
H1185 H 0.88097 0.02128 0.35433 0.0
H1186 H 0.90118 0.08877 0.29304 0.0
H1187 H 0.90268 0.09629 0.23648 0.0
C1188 C 1.01445 0.81811 0.23872 0.0
C1189 C 1.00653 0.8378 0.21664 0.0
C1190 C 0.04095 0.87866 0.26681 0.0
C1191 C 0.05295 0.86038 0.28263 0.0
N1192 N 0.05606 0.81488 0.27119 0.0
N1193 N 1.01952 0.88994 0.20309 0.0
C1194 C 0.04121 0.83073 0.26486 0.0
C1195 C 1.02181 0.86904 0.22866 0.0
N1196 N 0.99605 0.78733 0.23615 0.0
N1197 N 0.0461 0.9042 0.289 0.0
H1198 H 1.00774 0.88469 0.17308 0.0
H1199 H 0.03252 0.9132 0.20919 0.0
H1200 H 0.05742 0.9109 0.31933 0.0
H1201 H 0.03556 0.9165 0.28 0.0
H1202 H 1.00021 0.77241 0.25449 0.0
H1203 H 0.97479 0.77701 0.22056 0.0
H1204 H 0.0491 0.79401 0.25596 0.0
H1205 H 0.07733 0.82427 0.28649 0.0
C1206 C 0.86233 0.82168 0.74738 0.0
C1207 C 0.8756 0.84127 0.71064 0.0
C1208 C 0.86346 0.87802 0.74385 0.0
C1209 C 0.85248 0.85961 0.78243 0.0
N1210 N 0.84635 0.81598 0.82375 0.0
N1211 N 0.89235 0.88965 0.67537 0.0
C1212 C 0.85313 0.83194 0.78491 0.0
C1213 C 0.87748 0.87005 0.70952 0.0
N1214 N 0.85817 0.79299 0.74635 0.0
N1215 N 0.8587 0.90201 0.73865 0.0
H1216 H 0.90133 0.88404 0.64825 0.0
H1217 H 0.89766 0.91222 0.67534 0.0
H1218 H 0.84737 0.90782 0.76206 0.0
H1219 H 0.86321 0.91436 0.70934 0.0
H1220 H 0.84471 0.77616 0.76911 0.0
H1221 H 0.8665 0.78522 0.72102 0.0
H1222 H 0.8507 0.79832 0.82927 0.0
H1223 H 0.83861 0.8216 0.85203 0.0
C1224 C 0.17599 1.00795 0.71379 0.0
C1225 C 0.19376 0.03985 0.72056 0.0
C1226 C 0.19461 0.0316 0.80028 0.0
C1227 C 0.17467 0.99988 0.79392 0.0
N1228 N 0.14192 0.95849 0.74544 0.0
N1229 N 0.21487 0.08242 0.77069 0.0
C1230 C 0.1636 0.98832 0.75096 0.0
C1231 C 0.2011 0.05179 0.76405 0.0
N1232 N 0.17251 0.99619 0.67207 0.0
N1233 N 0.20875 0.04238 0.84021 0.0
H1234 H 0.22066 0.09786 0.74466 0.0
H1235 H 0.218 0.09222 0.80202 0.0
H1236 H 0.20583 0.02833 0.86699 0.0
H1237 H 0.22577 0.06481 0.84542 0.0
H1238 H 0.16258 0.97307 0.66549 0.0
H1239 H 0.18229 1.00976 0.64433 0.0
H1240 H 0.13073 0.94962 0.71541 0.0
H1241 H 0.13335 0.94307 0.77165 0.0
C1242 C 1.01373 0.19952 0.74237 0.0
C1243 C 1.00796 0.17333 0.71801 0.0
C1244 C 0.04297 0.1675 0.76781 0.0
C1245 C 0.05318 0.19695 0.78576 0.0
N1246 N 0.0529 0.24426 0.77847 0.0
N1247 N 1.02407 0.13675 0.70182 0.0
C1248 C 0.03992 0.21397 0.7697 0.0
C1249 C 1.02449 0.15841 0.72899 0.0
N1250 N 0.99393 0.21031 0.74053 0.0
N1251 N 0.0493 0.14744 0.78854 0.0
H1252 H 1.01281 0.13064 0.6714 0.0
H1253 H 0.03803 0.12745 0.70725 0.0
H1254 H 0.06015 0.15165 0.81923 0.0
H1255 H 0.04008 0.12503 0.77795 0.0
H1256 H 0.99643 0.22817 0.76044 0.0
H1257 H 0.97317 0.19904 0.72363 0.0
H1258 H 0.0449 0.25768 0.76444 0.0
H1259 H 0.07379 0.25666 0.79458 0.0
C1260 C 0.8384 0.4888 0.61752 0.0
C1261 C 0.83196 0.51235 0.60792 0.0
C1262 C 0.84482 0.51152 0.52976 0.0
C1263 C 0.85537 0.49121 0.54067 0.0
N1264 N 0.86358 0.4611 0.59448 0.0
N1265 N 0.82961 0.54705 0.55599 0.0
C1266 C 0.85208 0.47958 0.5843 0.0
C1267 C 0.83511 0.52382 0.56422 0.0
N1268 N 0.8318 0.47559 0.65858 0.0
N1269 N 0.84346 0.51846 0.48624 0.0
H1270 H 0.82082 0.55539 0.57993 0.0
H1271 H 0.83513 0.55909 0.52629 0.0
H1272 H 0.85003 0.50956 0.46009 0.0
H1273 H 0.83337 0.53081 0.47557 0.0
H1274 H 0.83304 0.45635 0.66647 0.0
H1275 H 0.82281 0.48247 0.6842 0.0
H1276 H 0.86525 0.45463 0.62664 0.0
H1277 H 0.87332 0.4536 0.5708 0.0
C1278 C 0.52237 0.35648 0.6324 0.0
C1279 C 0.52195 0.32846 0.62606 0.0
C1280 C 0.54887 0.34735 0.55511 0.0
C1281 C 0.5467 0.37396 0.5598 0.0
N1282 N 0.53042 0.40378 0.60106 0.0
N1283 N 0.53068 0.29545 0.57863 0.0
C1284 C 0.5333 0.37851 0.59804 0.0
C1285 C 0.53447 0.32356 0.58691 0.0
N1286 N 0.51327 0.36268 0.67185 0.0
N1287 N 0.56426 0.34455 0.51985 0.0
H1288 H 0.51935 0.27717 0.60028 0.0
H1289 H 0.5362 0.28928 0.54863 0.0
H1290 H 0.57358 0.36053 0.49446 0.0
H1291 H 0.56978 0.32749 0.51722 0.0
H1292 H 0.51764 0.38421 0.68097 0.0
H1293 H 0.50287 0.34698 0.69714 0.0
H1294 H 0.51667 0.40634 0.62427 0.0
H1295 H 0.54073 0.42186 0.57883 0.0
C1296 C 0.70756 0.19442 0.53642 0.0
C1297 C 0.67602 0.17677 0.5467 0.0
C1298 C 0.68788 0.18491 0.62609 0.0
C1299 C 0.71948 0.19946 0.61588 0.0
N1300 N 0.75976 0.21553 0.56199 0.0
N1301 N 0.6359 0.15227 0.60073 0.0
C1302 C 0.72947 0.20372 0.57119 0.0
C1303 C 0.66605 0.17134 0.59141 0.0
N1304 N 0.7165 0.20303 0.4935 0.0
N1305 N 0.67879 0.18485 0.66885 0.0
H1306 H 0.61924 0.14221 0.57615 0.0
H1307 H 0.62768 0.14459 0.63257 0.0
H1308 H 0.69412 0.19477 0.6951 0.0
H1309 H 0.65629 0.17744 0.67776 0.0
H1310 H 0.73885 0.2185 0.48444 0.0
H1311 H 0.70112 0.19677 0.46715 0.0
H1312 H 0.76811 0.21591 0.53029 0.0
H1313 H 0.77649 0.22299 0.58659 0.0
C1314 C 0.55317 0.17395 0.1045 0.0
C1315 C 0.55489 0.18442 0.06048 0.0
C1316 C 0.53503 0.21732 0.08443 0.0
C1317 C 0.53352 0.20699 0.12851 0.0
N1318 N 0.54723 0.18105 0.18277 0.0
N1319 N 0.55311 0.21981 0.00907 0.0
C1320 C 0.5445 0.18699 0.13922 0.0
C1321 C 0.54773 0.20744 0.05068 0.0
N1322 N 0.55898 0.15093 0.11281 0.0
N1323 N 0.52291 0.2353 0.07449 0.0
H1324 H 0.56166 0.21259 0.98324 0.0
H1325 H 0.55134 0.23871 1.00084 0.0
H1326 H 0.51401 0.24341 0.09858 0.0
H1327 H 0.51992 0.24074 0.04228 0.0
H1328 H 0.55464 0.1397 0.14311 0.0
H1329 H 0.56663 0.14181 0.08839 0.0
H1330 H 0.55766 0.16896 0.19314 0.0
H1331 H 0.54144 0.19054 0.20905 0.0
C1332 C 0.87082 0.38314 0.08247 0.0
C1333 C 0.8637 0.37444 0.03746 0.0
C1334 C 0.83486 0.32067 0.05885 0.0
C1335 C 0.84181 0.3294 0.10393 0.0
N1336 N 0.86015 0.36859 0.15992 0.0
N1337 N 0.83467 0.33616 0.98261 0.0
C1338 C 0.85789 0.36059 0.11612 0.0
C1339 C 0.8442 0.34353 0.02564 0.0
N1340 N 0.89075 0.41281 0.09287 0.0
N1341 N 0.8207 0.2906 0.04768 0.0
H1342 H 0.84149 0.35232 0.95739 0.0
H1343 H 0.81821 0.31452 0.97237 0.0
H1344 H 0.81321 0.27332 0.07126 0.0
H1345 H 0.81804 0.28272 0.01518 0.0
H1346 H 0.89988 0.42015 0.12444 0.0
H1347 H 0.89961 0.43005 0.06913 0.0
H1348 H 0.86898 0.39084 0.17084 0.0
H1349 H 0.85069 0.3527 0.18547 0.0
C1350 C 0.66409 0.50501 0.09302 0.0
C1351 C 0.67133 0.49495 0.05352 0.0
C1352 C 0.72255 0.51068 0.08227 0.0
C1353 C 0.71501 0.51988 0.12253 0.0
N1354 N 0.67666 0.52108 0.16921 0.0
N1355 N 0.70513 0.48352 0.01237 0.0
C1356 C 0.68524 0.51574 0.12872 0.0
C1357 C 0.69975 0.49605 0.04893 0.0
N1358 N 0.63709 0.50489 0.09604 0.0
N1359 N 0.75201 0.51781 0.07463 0.0
H1360 H 0.68967 0.47397 0.98623 0.0
H1361 H 0.72389 0.4805 0.00931 0.0
H1362 H 0.76954 0.52932 0.09757 0.0
H1363 H 0.75981 0.5148 0.04418 0.0
H1364 H 0.63229 0.51613 0.12081 0.0
H1365 H 0.61981 0.49473 0.07234 0.0
H1366 H 0.6542 0.51429 0.17754 0.0
H1367 H 0.6914 0.53048 0.19596 0.0
C1368 C 0.53192 0.84102 0.97721 0.0
C1369 C 0.51393 0.85463 0.96782 0.0
C1370 C 0.51321 0.84313 0.88875 0.0
C1371 C 0.53178 0.83019 0.89802 0.0
N1372 N 0.55461 0.81175 0.9502 0.0
N1373 N 0.48298 0.86431 0.91722 0.0
C1374 C 0.53975 0.82747 0.94212 0.0
C1375 C 0.50302 0.85416 0.92434 0.0
N1376 N 0.54193 0.84161 0.01964 0.0
N1377 N 0.50623 0.84571 0.84565 0.0
H1378 H 0.47602 0.87362 0.94228 0.0
H1379 H 0.47167 0.86187 0.88734 0.0
H1380 H 0.51177 0.83632 0.81898 0.0
H1381 H 0.49608 0.85816 0.83576 0.0
H1382 H 0.55795 0.83542 0.02822 0.0
H1383 H 0.53496 0.84941 0.04671 0.0
H1384 H 0.55893 0.80649 0.98175 0.0
H1385 H 0.56096 0.80203 0.92494 0.0
C1386 C 0.20017 0.67812 0.86954 0.0
C1387 C 0.21755 0.70929 0.88173 0.0
C1388 C 0.2139 0.69543 0.96021 0.0
C1389 C 0.19593 0.66431 0.94812 0.0
N1390 N 0.17634 0.62524 0.89235 0.0
N1391 N 0.24592 0.74777 0.93636 0.0
C1392 C 0.19055 0.65541 0.90299 0.0
C1393 C 0.22611 0.71798 0.92642 0.0
N1394 N 0.1923 0.67041 0.82601 0.0
N1395 N 0.21849 0.70337 0.00415 0.0
H1396 H 0.2546 0.76483 0.91238 0.0
H1397 H 0.25552 0.75546 0.96758 0.0
H1398 H 0.21145 0.6875 0.02978 0.0
H1399 H 0.22807 0.72557 0.01563 0.0
H1400 H 0.17671 0.64861 0.81522 0.0
H1401 H 0.20057 0.68623 0.80026 0.0
H1402 H 0.17405 0.617 0.86014 0.0
H1403 H 0.16848 0.60816 0.91629 0.0
C1404 C 0.37303 0.54724 0.93822 0.0
C1405 C 0.38697 0.53043 0.95249 0.0
C1406 C 0.35214 0.48856 0.90441 0.0
C1407 C 0.34147 0.50701 0.88512 0.0
N1408 N 0.35011 0.55809 0.87594 0.0
N1409 N 0.39542 0.48853 0.93765 0.0
C1410 C 0.35428 0.53761 0.89969 0.0
C1411 C 0.37829 0.50214 0.93205 0.0
N1412 N 0.37619 0.57143 0.96217 0.0
N1413 N 0.3367 0.45786 0.89829 0.0
H1414 H 0.41603 0.49872 0.95498 0.0
H1415 H 0.39105 0.469 0.92038 0.0
H1416 H 0.31597 0.44649 0.88156 0.0
H1417 H 0.34253 0.44347 0.91478 0.0
H1418 H 0.3641 0.58245 0.95459 0.0
H1419 H 0.38776 0.57819 0.99234 0.0
H1420 H 0.36126 0.58113 0.88386 0.0
H1421 H 0.33895 0.55311 0.84543 0.0
C1422 C 0.19157 0.54565 0.42156 0.0
C1423 C 0.19415 0.53895 0.46643 0.0
C1424 C 0.21937 0.51063 0.44351 0.0
C1425 C 0.21744 0.51795 0.39869 0.0
N1426 N 0.20779 0.54748 0.34533 0.0
N1427 N 0.21536 0.52035 0.52143 0.0
C1428 C 0.20534 0.537 0.3878 0.0
C1429 C 0.20959 0.52305 0.47779 0.0
N1430 N 0.17494 0.5592 0.41112 0.0
N1431 N 0.2294 0.49086 0.45312 0.0
H1432 H 0.20854 0.52919 0.54737 0.0
H1433 H 0.22904 0.51166 0.53192 0.0
H1434 H 0.2373 0.48186 0.42889 0.0
H1435 H 0.22806 0.48176 0.48453 0.0
H1436 H 0.16905 0.56144 0.37879 0.0
H1437 H 0.16522 0.56651 0.43512 0.0
H1438 H 0.2023 0.56387 0.33615 0.0
H1439 H 0.21786 0.54177 0.31975 0.0
C1440 C 0.51963 0.68965 0.45883 0.0
C1441 C 0.51259 0.65932 0.45083 0.0
C1442 C 0.53275 0.67276 0.37548 0.0
C1443 C 0.53826 0.70288 0.3822 0.0
N1444 N 0.53467 0.73948 0.4289 0.0
N1445 N 0.50643 0.6203 0.39995 0.0
C1446 C 0.53077 0.71109 0.42341 0.0
C1447 C 0.51728 0.65038 0.40863 0.0
N1448 N 0.51645 0.69809 0.50072 0.0
N1449 N 0.54297 0.6655 0.33806 0.0
H1450 H 0.49537 0.60337 0.42375 0.0
H1451 H 0.50582 0.61176 0.36832 0.0
H1452 H 0.55387 0.68044 0.31207 0.0
H1453 H 0.54298 0.64519 0.33415 0.0
H1454 H 0.52451 0.72046 0.51036 0.0
H1455 H 0.50713 0.68275 0.52695 0.0
H1456 H 0.52621 0.74574 0.45586 0.0
H1457 H 0.54522 0.75668 0.40538 0.0
C1458 C 0.3939 0.84641 0.41488 0.0
C1459 C 0.3836 0.84728 0.45822 0.0
C1460 C 0.33056 0.82192 0.43202 0.0
C1461 C 0.34134 0.82499 0.38796 0.0
N1462 N 0.38259 0.84003 0.33595 0.0
N1463 N 0.34267 0.83551 0.50967 0.0
C1464 C 0.37281 0.83678 0.37898 0.0
C1465 C 0.35199 0.83461 0.46735 0.0
N1466 N 0.42384 0.85498 0.4082 0.0
N1467 N 0.29984 0.80671 0.43979 0.0
H1468 H 0.35747 0.84288 0.53684 0.0
H1469 H 0.32059 0.8301 0.51794 0.0
H1470 H 0.28377 0.79737 0.41429 0.0
H1471 H 0.29015 0.80125 0.47127 0.0
H1472 H 0.4324 0.85225 0.37826 0.0
H1473 H 0.43992 0.86288 0.43376 0.0
H1474 H 0.40542 0.85177 0.32661 0.0
H1475 H 0.36768 0.83212 0.30893 0.0
C1476 C 0.34714 0.19565 0.19388 0.0
C1477 C 0.33917 0.18658 0.14888 0.0
C1478 C 0.38417 0.18068 0.14064 0.0
C1479 C 0.39207 0.18958 0.18571 0.0
N1480 N 0.38338 0.20825 0.25441 0.0
N1481 N 0.34729 0.16699 0.08074 0.0
C1482 C 0.37422 0.19791 0.21206 0.0
C1483 C 0.35689 0.17807 0.12265 0.0
N1484 N 0.3277 0.20021 0.22 0.0
N1485 N 0.40381 0.1766 0.11428 0.0
H1486 H 0.32844 0.16636 0.06568 0.0
H1487 H 0.35678 0.15684 0.06159 0.0
H1488 H 0.42421 0.17878 0.12587 0.0
H1489 H 0.40133 0.17332 0.08011 0.0
H1490 H 0.33011 0.20367 0.25412 0.0
H1491 H 0.30754 0.19851 0.20822 0.0
H1492 H 0.37394 0.21836 0.27376 0.0
H1493 H 0.40166 0.20806 0.27 0.0
C1494 C 0.84694 0.19851 0.12562 0.0
C1495 C 0.85629 0.20787 0.17019 0.0
C1496 C 0.87201 0.16952 0.17764 0.0
C1497 C 0.86274 0.16018 0.13304 0.0
N1498 N 0.83917 0.16343 0.06542 0.0
N1499 N 0.88074 0.2052 0.23726 0.0
C1500 C 0.84954 0.17403 0.1073 0.0
C1501 C 0.86976 0.19422 0.19574 0.0
N1502 N 0.83729 0.21431 0.10003 0.0
N1503 N 0.88109 0.15342 0.20363 0.0
H1504 H 0.87758 0.2217 0.25285 0.0
H1505 H 0.89436 0.19927 0.25561 0.0
H1506 H 0.88284 0.13507 0.19198 0.0
H1507 H 0.88486 0.15657 0.23765 0.0
H1508 H 0.83305 0.21104 0.06613 0.0
H1509 H 0.83526 0.23243 0.11201 0.0
H1510 H 0.82598 0.16961 0.0465 0.0
H1511 H 0.84268 0.14716 0.04982 0.0
C1512 C 0.84628 0.6541 0.14758 0.0
C1513 C 0.83783 0.65541 0.19221 0.0
C1514 C 0.87774 0.70908 0.1971 0.0
C1515 C 0.88605 0.70787 0.15236 0.0
N1516 N 0.88072 0.67939 0.08581 0.0
N1517 N 0.84247 0.68413 0.25812 0.0
C1518 C 0.87104 0.68036 0.12787 0.0
C1519 C 0.8527 0.68294 0.21658 0.0
N1520 N 0.82934 0.62819 0.12325 0.0
N1521 N 0.89501 0.73473 0.22175 0.0
H1522 H 0.82536 0.66506 0.27427 0.0
H1523 H 0.84959 0.7041 0.27586 0.0
H1524 H 0.91371 0.7542 0.20897 0.0
H1525 H 0.89247 0.73627 0.25573 0.0
H1526 H 0.83195 0.62634 0.08937 0.0
H1527 H 0.81094 0.60856 0.13621 0.0
H1528 H 0.87362 0.65955 0.06777 0.0
H1529 H 0.89716 0.69859 0.06912 0.0
C1530 C 0.1989 0.36302 0.30009 0.0
C1531 C 0.21125 0.38985 0.32612 0.0
C1532 C 0.21953 0.36316 0.38799 0.0
C1533 C 0.20501 0.33575 0.36319 0.0
N1534 N 0.17791 0.30848 0.29734 0.0
N1535 N 0.22845 0.4143 0.39739 0.0
C1536 C 0.19368 0.33535 0.31981 0.0
C1537 C 0.22045 0.38968 0.3707 0.0
N1538 N 0.19355 0.36435 0.25586 0.0
N1539 N 0.23245 0.36388 0.42817 0.0
H1540 H 0.22892 0.43394 0.38642 0.0
H1541 H 0.23205 0.41441 0.43144 0.0
H1542 H 0.23056 0.34459 0.4433 0.0
H1543 H 0.24665 0.38386 0.44531 0.0
H1544 H 0.18774 0.34655 0.23377 0.0
H1545 H 0.1975 0.38426 0.24018 0.0
H1546 H 0.16588 0.30597 0.26812 0.0
H1547 H 0.17513 0.28804 0.30927 0.0
C1548 C 0.70286 0.83989 0.29102 0.0
C1549 C 0.67511 0.82593 0.31511 0.0
C1550 C 0.70055 0.85979 0.37877 0.0
C1551 C 0.72809 0.87444 0.35407 0.0
N1552 N 0.75483 0.88174 0.28479 0.0
N1553 N 0.6479 0.8187 0.38381 0.0
C1554 C 0.7292 0.86512 0.30986 0.0
C1555 C 0.67398 0.83501 0.35944 0.0
N1556 N 0.70407 0.82872 0.25023 0.0
N1557 N 0.69986 0.86987 0.42063 0.0
H1558 H 0.62816 0.8002 0.37116 0.0
H1559 H 0.64598 0.82194 0.41745 0.0
H1560 H 0.71935 0.88618 0.43712 0.0
H1561 H 0.68007 0.86306 0.43887 0.0
H1562 H 0.72422 0.83504 0.23319 0.0
H1563 H 0.68488 0.81159 0.2342 0.0
H1564 H 0.7561 0.87859 0.25091 0.0
H1565 H 0.77452 0.90047 0.29695 0.0
C1566 C 0.19822 0.84229 0.29543 0.0
C1567 C 0.22368 0.84961 0.32307 0.0
C1568 C 0.20046 0.86362 0.38343 0.0
C1569 C 0.17398 0.854 0.35704 0.0
N1570 N 0.14593 0.83131 0.28963 0.0
N1571 N 0.24686 0.86194 0.39579 0.0
C1572 C 0.17231 0.84234 0.3136 0.0
C1573 C 0.22431 0.85902 0.36769 0.0
N1574 N 0.19942 0.83673 0.25126 0.0
N1575 N 0.20285 0.87719 0.42356 0.0
H1576 H 0.26435 0.85807 0.38598 0.0
H1577 H 0.24681 0.86546 0.42982 0.0
H1578 H 0.18525 0.87951 0.43731 0.0
H1579 H 0.22298 0.88801 0.44191 0.0
H1580 H 0.18313 0.83454 0.22821 0.0
H1581 H 0.21811 0.83681 0.23668 0.0
H1582 H 0.14185 0.8191 0.26024 0.0
H1583 H 0.12718 0.83274 0.30047 0.0
C1584 C 0.71807 0.85716 0.8157 0.0
C1585 C 0.7182 0.84721 0.8598 0.0
C1586 C 0.66381 0.83086 0.86769 0.0
C1587 C 0.66379 0.84114 0.82377 0.0
N1588 N 0.69066 0.86623 0.75696 0.0
N1589 N 0.69122 0.82149 0.92617 0.0
C1590 C 0.69089 0.8549 0.79807 0.0
C1591 C 0.69102 0.83309 0.8853 0.0
N1592 N 0.74351 0.86705 0.78978 0.0
N1593 N 0.63832 0.82076 0.89352 0.0
H1594 H 0.71107 0.82439 0.94119 0.0
H1595 H 0.67171 0.80768 0.94452 0.0
H1596 H 0.61802 0.81888 0.88207 0.0
H1597 H 0.63753 0.81604 0.92723 0.0
H1598 H 0.74423 0.87155 0.756 0.0
H1599 H 0.76378 0.86883 0.80116 0.0
H1600 H 0.71015 0.88 0.73857 0.0
H1601 H 0.67078 0.863 0.74165 0.0
C1602 C 0.20499 0.85737 0.79841 0.0
C1603 C 0.19727 0.83131 0.82458 0.0
C1604 C 0.18628 0.85465 0.88842 0.0
C1605 C 0.19405 0.88072 0.86228 0.0
N1606 N 0.20606 0.90541 0.79085 0.0
N1607 N 0.18539 0.80669 0.89606 0.0
C1608 C 0.20246 0.88182 0.81694 0.0
C1609 C 0.18891 0.83023 0.86994 0.0
N1610 N 0.21507 0.85882 0.75587 0.0
N1611 N 0.17595 0.85311 0.93083 0.0
H1612 H 0.18759 0.78867 0.88411 0.0
H1613 H 0.18256 0.80584 0.93031 0.0
H1614 H 0.17558 0.87122 0.94636 0.0
H1615 H 0.16623 0.83352 0.95008 0.0
H1616 H 0.22484 0.8784 0.73661 0.0
H1617 H 0.21512 0.84062 0.7401 0.0
H1618 H 0.20888 0.90629 0.7566 0.0
H1619 H 0.204 0.92351 0.80281 0.0
C1620 C 0.22433 0.36716 0.8594 0.0
C1621 C 0.21968 0.37812 0.81837 0.0
C1622 C 0.16643 0.33634 0.81651 0.0
C1623 C 0.17107 0.32538 0.85754 0.0
N1624 N 0.20444 0.32831 0.91673 0.0
N1625 N 0.18602 0.37563 0.7599 0.0
C1626 C 0.20007 0.34023 0.87856 0.0
C1627 C 0.19059 0.36344 0.7976 0.0
N1628 N 0.25144 0.38368 0.88139 0.0
N1629 N 0.13952 0.31964 0.79412 0.0
H1630 H 0.20359 0.39393 0.74307 0.0
H1631 H 0.16467 0.36875 0.74621 0.0
H1632 H 0.12144 0.29962 0.80653 0.0
H1633 H 0.1356 0.32414 0.76187 0.0
H1634 H 0.25563 0.37918 0.91348 0.0
H1635 H 0.26958 0.40352 0.86864 0.0
H1636 H 0.22565 0.33532 0.93097 0.0
H1637 H 0.18673 0.3102 0.93369 0.0
C1638 C 0.87598 0.71037 0.67823 0.0
C1639 C 0.86475 0.71076 0.63507 0.0
C1640 C 0.84402 0.65564 0.62873 0.0
C1641 C 0.85714 0.6557 0.67053 0.0
N1642 N 0.88863 0.68343 0.73297 0.0
N1643 N 0.84242 0.685 0.56627 0.0
C1644 C 0.87414 0.68321 0.69452 0.0
C1645 C 0.84976 0.68366 0.60961 0.0
N1646 N 0.88694 0.73552 0.70473 0.0
N1647 N 0.82616 0.62877 0.60712 0.0
H1648 H 0.84678 0.70514 0.55092 0.0
H1649 H 0.8345 0.66684 0.54427 0.0
H1650 H 0.82305 0.60803 0.6183 0.0
H1651 H 0.81289 0.62663 0.57947 0.0
H1652 H 0.89204 0.73566 0.73824 0.0
H1653 H 0.88863 0.75582 0.69438 0.0
H1654 H 0.90457 0.70323 0.74898 0.0
H1655 H 0.88616 0.66378 0.74767 0.0
C1656 C 0.34099 0.15023 0.69738 0.0
C1657 C 0.33376 0.15213 0.65221 0.0
C1658 C 0.37952 0.2027 0.64608 0.0
C1659 C 0.38656 0.20092 0.69136 0.0
N1660 N 0.37698 0.17204 0.75862 0.0
N1661 N 0.34395 0.18065 0.58443 0.0
C1662 C 0.36818 0.17433 0.71652 0.0
C1663 C 0.35244 0.17854 0.62682 0.0
N1664 N 0.32074 0.12628 0.72281 0.0
N1665 N 0.39979 0.22673 0.62077 0.0
H1666 H 0.32557 0.16268 0.5682 0.0
H1667 H 0.35402 0.2005 0.56577 0.0
H1668 H 0.42006 0.24462 0.6333 0.0
H1669 H 0.39799 0.22818 0.58658 0.0
H1670 H 0.32266 0.12494 0.757 0.0
H1671 H 0.30043 0.10839 0.71043 0.0
H1672 H 0.367 0.15209 0.77705 0.0
H1673 H 0.39566 0.18984 0.77458 0.0
C1674 C 0.87994 0.17442 0.6919 0.0
C1675 C 0.88825 0.18307 0.64689 0.0
C1676 C 0.84791 0.19614 0.63974 0.0
C1677 C 0.84002 0.18818 0.68501 0.0
N1678 N 0.84602 0.16746 0.7536 0.0
N1679 N 0.88288 0.20489 0.57897 0.0
C1680 C 0.8553 0.17657 0.7109 0.0
C1681 C 0.873 0.19473 0.62112 0.0
N1682 N 0.89684 0.16581 0.71707 0.0
N1683 N 0.83018 0.2033 0.61384 0.0
H1684 H 0.89983 0.20243 0.56322 0.0
H1685 H 0.87559 0.21722 0.56023 0.0
H1686 H 0.81136 0.20416 0.62593 0.0
H1687 H 0.83241 0.20612 0.5796 0.0
H1688 H 0.89426 0.16191 0.75106 0.0
H1689 H 0.91501 0.164 0.70443 0.0
H1690 H 0.85359 0.15577 0.77322 0.0
H1691 H 0.82951 0.17057 0.76943 0.0
C1692 C 0.05429 0.52986 0.48376 0.0
C1693 C 0.05328 0.51839 0.52716 0.0
C1694 C 0.99804 0.49928 0.53095 0.0
C1695 C 0.99916 0.51112 0.48776 0.0
N1696 N 1.0281 0.54009 0.42447 0.0
N1697 N 1.02454 0.48992 0.59088 0.0
C1698 C 1.02726 0.52713 0.46462 0.0
C1699 C 1.02519 0.50238 0.55037 0.0
N1700 N 0.08074 0.54166 0.45975 0.0
N1701 N 0.9713 0.4867 0.55437 0.0
H1702 H 0.04417 0.49353 0.60742 0.0
H1703 H 1.00468 0.47495 0.60764 0.0
H1704 H 0.95105 0.48414 0.54147 0.0
H1705 H 0.9692 0.48033 0.58754 0.0
H1706 H 0.08244 0.54736 0.42631 0.0
H1707 H 0.10093 0.54381 0.47222 0.0
H1708 H 0.04812 0.55538 0.40828 0.0
H1709 H 1.00857 0.53677 0.40793 0.0
C1710 C 0.53028 0.52401 0.55444 0.0
C1711 C 0.51794 0.53817 0.52765 0.0
C1712 C 0.51132 0.50357 0.46602 0.0
C1713 C 0.52586 0.49105 0.49162 0.0
N1714 N 0.55209 0.49116 0.55864 0.0
N1715 N 0.50162 0.54519 0.45552 0.0
C1716 C 0.53634 0.50194 0.53531 0.0
C1717 C 0.50958 0.52883 0.48284 0.0
N1718 N 0.53484 0.53063 0.59876 0.0
N1719 N 0.49917 0.49134 0.42551 0.0
H1720 H 0.50054 0.5641 0.46615 0.0
H1721 H 0.49866 0.54178 0.42138 0.0
H1722 H 0.5017 0.47422 0.41073 0.0
H1723 H 0.48496 0.49681 0.40771 0.0
H1724 H 0.54061 0.51883 0.62129 0.0
H1725 H 0.53025 0.5463 0.61399 0.0
H1726 H 0.56353 0.5007 0.58824 0.0
H1727 H 0.55546 0.47377 0.5471 0.0
C1728 C 0.52832 0.0263 0.45209 0.0
C1729 C 0.5552 0.04363 0.47751 0.0
C1730 C 0.53163 1.0091 0.54089 0.0
C1731 C 0.50559 0.99063 0.51441 0.0
N1732 N 0.48142 0.97829 0.44238 0.0
N1733 N 0.58419 0.05024 0.54438 0.0
C1734 C 0.50448 0.99838 0.46937 0.0
C1735 C 0.55743 0.03451 0.52133 0.0
N1736 N 0.52549 0.03658 0.41143 0.0
N1737 N 0.53109 1.00325 0.5853 0.0
H1738 H 0.60292 0.07008 0.53256 0.0
H1739 H 0.5886 0.04272 0.57409 0.0
H1740 H 0.51255 0.98508 0.60085 0.0
H1741 H 0.54784 1.01768 0.60757 0.0
H1742 H 0.50511 0.02706 0.39369 0.0
H1743 H 0.54305 0.05596 0.39652 0.0
H1744 H 0.48104 0.98105 0.40819 0.0
H1745 H 0.46392 0.95731 0.45333 0.0
C1746 C 0.55428 0.05109 0.03482 0.0
C1747 C 0.54263 0.05024 0.9915 0.0
C1748 C 0.52563 0.99577 0.98566 0.0
C1749 C 0.53726 0.99668 0.029 0.0
N1750 N 0.56598 0.02527 0.0928 0.0
N1751 N 0.51579 0.02219 0.92627 0.0
C1752 C 0.55263 0.02441 0.05291 0.0
C1753 C 0.52789 0.02264 0.9671 0.0
N1754 N 0.56509 0.07692 0.05985 0.0
N1755 N 0.51396 0.96953 0.96138 0.0
H1756 H 0.51903 0.04176 0.91029 0.0
H1757 H 0.50165 1.00256 0.90848 0.0
H1758 H 0.51218 0.94955 0.97359 0.0
H1759 H 0.5076 0.9676 0.92821 0.0
H1760 H 0.57061 0.07824 0.09335 0.0
H1761 H 0.56654 0.09686 0.04815 0.0
H1762 H 0.58084 0.0452 0.10947 0.0
H1763 H 0.5636 1.00592 0.10841 0.0
C1764 C 1.00557 0.5059 0.02078 0.0
C1765 C 1.00632 0.49433 0.97809 0.0
C1766 C 0.06107 0.53155 0.9721 0.0
C1767 C 0.06068 0.54192 0.01579 0.0
N1768 N 0.03411 0.53638 0.08439 0.0
N1769 N 0.03511 0.49327 0.91515 0.0
C1770 C 0.03329 0.52847 0.04079 0.0
C1771 C 0.03423 0.50621 0.9545 0.0
N1772 N 0.97833 0.49524 0.0423 0.0
N1773 N 0.08663 0.54699 0.94649 0.0
H1774 H 1.01567 0.47611 0.89964 0.0
H1775 H 0.05526 0.49822 0.89908 0.0
H1776 H 0.10669 0.56572 0.95789 0.0
H1777 H 0.08737 0.5429 0.91279 0.0
H1778 H 0.97554 0.50522 0.07071 0.0
H1779 H 0.95787 0.47724 0.03053 0.0
H1780 H 1.01582 0.5253 0.10611 0.0
H1781 H 0.05403 0.55261 0.10012 0.0
C1782 C 0.53812 0.52605 0.96179 0.0
C1783 C 0.55145 0.51201 0.98672 0.0
C1784 C 0.51854 0.50649 0.05027 0.0
C1785 C 0.5039 0.51873 0.02433 0.0
N1786 N 0.49561 0.53487 0.95293 0.0
N1787 N 0.55207 0.48537 0.05267 0.0
C1788 C 0.51264 0.52719 0.97943 0.0
C1789 C 0.54081 0.50101 0.03027 0.0
N1790 N 0.54986 0.53835 0.92119 0.0
N1791 N 0.51231 0.50159 0.09465 0.0
H1792 H 0.5696 0.48235 0.04049 0.0
H1793 H 0.54274 0.47362 0.08207 0.0
H1794 H 0.49641 0.50562 0.11054 0.0
H1795 H 0.52459 0.496 0.11659 0.0
H1796 H 0.54378 0.5522 0.90384 0.0
H1797 H 0.56714 0.53625 0.90585 0.0
H1798 H 0.49867 0.53802 0.91879 0.0
H1799 H 0.47647 0.53545 0.96424 0.0
loop_
_geom_bond_atom_site_label_1
_geom_bond_atom_site_label_2
_geom_bond_distance
_geom_bond_site_symmetry_2
_ccdc_geom_bond_type
O0 Cd1 2.223 . S
O0 C8 1.315 . S
Cd1 O0 2.223 . S
Cd1 O4 2.297 . S
Cd1 O5 2.439 . S
Cd1 O11 2.240 . S
Cd2 O3 2.240 . S
Cd2 O10 2.223 . S
Cd2 O12 2.297 . S
Cd2 O13 2.439 . S
O3 Cd2 2.240 . S
O3 C8 1.279 . S
O4 Cd1 2.297 . S
O4 C6 1.247 . S
O5 Cd1 2.439 . S
O5 C6 1.208 . S
C6 O4 1.247 . S
C6 O5 1.208 . S
C7 O12 1.247 . S
C7 O13 1.208 . S
C8 O0 1.315 . S
C8 O3 1.279 . S
C9 O10 1.315 . S
C9 O11 1.279 . S
O10 Cd2 2.223 . S
O10 C9 1.315 . S
O11 Cd1 2.240 . S
O11 C9 1.279 . S
O12 Cd2 2.297 . S
O12 C7 1.247 . S
O13 Cd2 2.439 . S
O13 C7 1.208 . S
O14 Cd15 2.223 . S
O14 C22 1.315 . S
Cd15 O14 2.223 . S
Cd15 O18 2.297 . S
Cd15 O19 2.439 . S
Cd15 O25 2.240 . S
Cd16 O17 2.240 . S
Cd16 O24 2.223 . S
Cd16 O26 2.297 . S
Cd16 O27 2.439 . S
O17 Cd16 2.240 . S
O17 C22 1.279 . S
O18 Cd15 2.297 . S
O18 C20 1.247 . S
O19 Cd15 2.439 . S
O19 C20 1.208 . S
C20 O18 1.247 . S
C20 O19 1.208 . S
C21 O26 1.247 . S
C21 O27 1.208 . S
C22 O14 1.315 . S
C22 O17 1.279 . S
C23 O24 1.315 . S
C23 O25 1.279 . S
O24 Cd16 2.223 . S
O24 C23 1.315 . S
O25 Cd15 2.240 . S
O25 C23 1.279 . S
O26 Cd16 2.297 . S
O26 C21 1.247 . S
O27 Cd16 2.439 . S
O27 C21 1.208 . S
O28 Cd29 2.223 . S
O28 C36 1.315 . S
Cd29 O28 2.223 . S
Cd29 O32 2.297 . S
Cd29 O33 2.439 . S
Cd29 O39 2.240 . S
Cd30 O31 2.240 . S
Cd30 O38 2.223 . S
Cd30 O40 2.297 . S
Cd30 O41 2.439 . S
O31 Cd30 2.240 . S
O31 C36 1.279 . S
O32 Cd29 2.297 . S
O32 C34 1.247 . S
O33 Cd29 2.439 . S
O33 C34 1.208 . S
C34 O32 1.247 . S
C34 O33 1.208 . S
C35 O40 1.247 . S
C35 O41 1.208 . S
C36 O28 1.315 . S
C36 O31 1.279 . S
C37 O38 1.315 . S
C37 O39 1.279 . S
O38 Cd30 2.223 . S
O38 C37 1.315 . S
O39 Cd29 2.240 . S
O39 C37 1.279 . S
O40 Cd30 2.297 . S
O40 C35 1.247 . S
O41 Cd30 2.439 . S
O41 C35 1.208 . S
O42 Cd43 2.223 . S
O42 C50 1.315 . S
Cd43 O42 2.223 . S
Cd43 O46 2.297 . S
Cd43 O47 2.439 . S
Cd43 O53 2.240 . S
Cd44 O45 2.240 . S
Cd44 O52 2.223 . S
Cd44 O54 2.297 . S
Cd44 O55 2.439 . S
O45 Cd44 2.240 . S
O45 C50 1.279 . S
O46 Cd43 2.297 . S
O46 C48 1.247 . S
O47 Cd43 2.439 . S
O47 C48 1.208 . S
C48 O46 1.247 . S
C48 O47 1.208 . S
C49 O54 1.247 . S
C49 O55 1.208 . S
C50 O42 1.315 . S
C50 O45 1.279 . S
C51 O52 1.315 . S
C51 O53 1.279 . S
O52 Cd44 2.223 . S
O52 C51 1.315 . S
O53 Cd43 2.240 . S
O53 C51 1.279 . S
O54 Cd44 2.297 . S
O54 C49 1.247 . S
O55 Cd44 2.439 . S
O55 C49 1.208 . S
O56 Cd57 2.223 . S
O56 C64 1.315 . S
Cd57 O56 2.223 . S
Cd57 O60 2.297 . S
Cd57 O61 2.439 . S
Cd57 O67 2.240 . S
Cd58 O59 2.240 . S
Cd58 O66 2.223 . S
Cd58 O68 2.297 . S
Cd58 O69 2.439 . S
O59 Cd58 2.240 . S
O59 C64 1.279 . S
O60 Cd57 2.297 . S
O60 C62 1.247 . S
O61 Cd57 2.439 . S
O61 C62 1.208 . S
C62 O60 1.247 . S
C62 O61 1.208 . S
C63 O68 1.247 . S
C63 O69 1.208 . S
C64 O56 1.315 . S
C64 O59 1.279 . S
C65 O66 1.315 . S
C65 O67 1.279 . S
O66 Cd58 2.223 . S
O66 C65 1.315 . S
O67 Cd57 2.240 . S
O67 C65 1.279 . S
O68 Cd58 2.297 . S
O68 C63 1.247 . S
O69 Cd58 2.439 . S
O69 C63 1.208 . S
O70 Cd71 2.223 . S
O70 C78 1.315 . S
Cd71 O70 2.223 . S
Cd71 O74 2.297 . S
Cd71 O75 2.439 . S
Cd71 O81 2.240 . S
Cd72 O73 2.240 . S
Cd72 O80 2.223 . S
Cd72 O82 2.297 . S
Cd72 O83 2.439 . S
O73 Cd72 2.240 . S
O73 C78 1.279 . S
O74 Cd71 2.297 . S
O74 C76 1.247 . S
O75 Cd71 2.439 . S
O75 C76 1.208 . S
C76 O74 1.247 . S
C76 O75 1.208 . S
C77 O82 1.247 . S
C77 O83 1.208 . S
C78 O70 1.315 . S
C78 O73 1.279 . S
C79 O80 1.315 . S
C79 O81 1.279 . S
O80 Cd72 2.223 . S
O80 C79 1.315 . S
O81 Cd71 2.240 . S
O81 C79 1.279 . S
O82 Cd72 2.297 . S
O82 C77 1.247 . S
O83 Cd72 2.439 . S
O83 C77 1.208 . S
O84 Cd85 2.223 . S
O84 C92 1.315 . S
Cd85 O84 2.223 . S
Cd85 O88 2.297 . S
Cd85 O89 2.439 . S
Cd85 O95 2.240 . S
Cd86 O87 2.240 . S
Cd86 O94 2.223 . S
Cd86 O96 2.297 . S
Cd86 O97 2.439 . S
O87 Cd86 2.240 . S
O87 C92 1.279 . S
O88 Cd85 2.297 . S
O88 C90 1.247 . S
O89 Cd85 2.439 . S
O89 C90 1.208 . S
C90 O88 1.247 . S
C90 O89 1.208 . S
C91 O96 1.247 . S
C91 O97 1.208 . S
C92 O84 1.315 . S
C92 O87 1.279 . S
C93 O94 1.315 . S
C93 O95 1.279 . S
O94 Cd86 2.223 . S
O94 C93 1.315 . S
O95 Cd85 2.240 . S
O95 C93 1.279 . S
O96 Cd86 2.297 . S
O96 C91 1.247 . S
O97 Cd86 2.439 . S
O97 C91 1.208 . S
O98 Cd99 2.223 . S
O98 C106 1.315 . S
Cd99 O98 2.223 . S
Cd99 O102 2.297 . S
Cd99 O103 2.439 . S
Cd99 O109 2.240 . S
Cd100 O101 2.240 . S
Cd100 O108 2.223 . S
Cd100 O110 2.297 . S
Cd100 O111 2.439 . S
O101 Cd100 2.240 . S
O101 C106 1.279 . S
O102 Cd99 2.297 . S
O102 C104 1.247 . S
O103 Cd99 2.439 . S
O103 C104 1.208 . S
C104 O102 1.247 . S
C104 O103 1.208 . S
C105 O110 1.247 . S
C105 O111 1.208 . S
C106 O98 1.315 . S
C106 O101 1.279 . S
C107 O108 1.315 . S
C107 O109 1.279 . S
O108 Cd100 2.223 . S
O108 C107 1.315 . S
O109 Cd99 2.240 . S
O109 C107 1.279 . S
O110 Cd100 2.297 . S
O110 C105 1.247 . S
O111 Cd100 2.439 . S
O111 C105 1.208 . S
O112 Cd113 2.223 . S
O112 C120 1.315 . S
Cd113 O112 2.223 . S
Cd113 O116 2.297 . S
Cd113 O117 2.439 . S
Cd113 O123 2.240 . S
Cd114 O115 2.240 . S
Cd114 O122 2.223 . S
Cd114 O124 2.297 . S
Cd114 O125 2.439 . S
O115 Cd114 2.240 . S
O115 C120 1.279 . S
O116 Cd113 2.297 . S
O116 C118 1.247 . S
O117 Cd113 2.439 . S
O117 C118 1.208 . S
C118 O116 1.247 . S
C118 O117 1.208 . S
C119 O124 1.247 . S
C119 O125 1.208 . S
C120 O112 1.315 . S
C120 O115 1.279 . S
C121 O122 1.315 . S
C121 O123 1.279 . S
O122 Cd114 2.223 . S
O122 C121 1.315 . S
O123 Cd113 2.240 . S
O123 C121 1.279 . S
O124 Cd114 2.297 . S
O124 C119 1.247 . S
O125 Cd114 2.439 . S
O125 C119 1.208 . S
O126 Cd127 2.223 . S
O126 C134 1.315 . S
Cd127 O126 2.223 . S
Cd127 O130 2.297 . S
Cd127 O131 2.439 . S
Cd127 O137 2.240 . S
Cd128 O129 2.240 . S
Cd128 O136 2.223 . S
Cd128 O138 2.297 . S
Cd128 O139 2.439 . S
O129 Cd128 2.240 . S
O129 C134 1.279 . S
O130 Cd127 2.297 . S
O130 C132 1.247 . S
O131 Cd127 2.439 . S
O131 C132 1.208 . S
C132 O130 1.247 . S
C132 O131 1.208 . S
C133 O138 1.247 . S
C133 O139 1.208 . S
C134 O126 1.315 . S
C134 O129 1.279 . S
C135 O136 1.315 . S
C135 O137 1.279 . S
O136 Cd128 2.223 . S
O136 C135 1.315 . S
O137 Cd127 2.240 . S
O137 C135 1.279 . S
O138 Cd128 2.297 . S
O138 C133 1.247 . S
O139 Cd128 2.439 . S
O139 C133 1.208 . S
O140 Cd141 2.223 . S
O140 C148 1.315 . S
Cd141 O140 2.223 . S
Cd141 O144 2.297 . S
Cd141 O145 2.439 . S
Cd141 O151 2.240 . S
Cd142 O143 2.240 . S
Cd142 O150 2.223 . S
Cd142 O152 2.297 . S
Cd142 O153 2.439 . S
O143 Cd142 2.240 . S
O143 C148 1.279 . S
O144 Cd141 2.297 . S
O144 C146 1.247 . S
O145 Cd141 2.439 . S
O145 C146 1.208 . S
C146 O144 1.247 . S
C146 O145 1.208 . S
C147 O152 1.247 . S
C147 O153 1.208 . S
C148 O140 1.315 . S
C148 O143 1.279 . S
C149 O150 1.315 . S
C149 O151 1.279 . S
O150 Cd142 2.223 . S
O150 C149 1.315 . S
O151 Cd141 2.240 . S
O151 C149 1.279 . S
O152 Cd142 2.297 . S
O152 C147 1.247 . S
O153 Cd142 2.439 . S
O153 C147 1.208 . S
O154 Cd155 2.223 . S
O154 C162 1.315 . S
Cd155 O154 2.223 . S
Cd155 O158 2.297 . S
Cd155 O159 2.439 . S
Cd155 O165 2.240 . S
Cd156 O157 2.240 . S
Cd156 O164 2.223 . S
Cd156 O166 2.297 . S
Cd156 O167 2.439 . S
O157 Cd156 2.240 . S
O157 C162 1.279 . S
O158 Cd155 2.297 . S
O158 C160 1.247 . S
O159 Cd155 2.439 . S
O159 C160 1.208 . S
C160 O158 1.247 . S
C160 O159 1.208 . S
C161 O166 1.247 . S
C161 O167 1.208 . S
C162 O154 1.315 . S
C162 O157 1.279 . S
C163 O164 1.315 . S
C163 O165 1.279 . S
O164 Cd156 2.223 . S
O164 C163 1.315 . S
O165 Cd155 2.240 . S
O165 C163 1.279 . S
O166 Cd156 2.297 . S
O166 C161 1.247 . S
O167 Cd156 2.439 . S
O167 C161 1.208 . S
O168 Cd169 2.223 . S
O168 C176 1.315 . S
Cd169 O168 2.223 . S
Cd169 O172 2.297 . S
Cd169 O173 2.439 . S
Cd169 O179 2.240 . S
Cd170 O171 2.240 . S
Cd170 O178 2.223 . S
Cd170 O180 2.297 . S
Cd170 O181 2.439 . S
O171 Cd170 2.240 . S
O171 C176 1.279 . S
O172 Cd169 2.297 . S
O172 C174 1.247 . S
O173 Cd169 2.439 . S
O173 C174 1.208 . S
C174 O172 1.247 . S
C174 O173 1.208 . S
C175 O180 1.247 . S
C175 O181 1.208 . S
C176 O168 1.315 . S
C176 O171 1.279 . S
C177 O178 1.315 . S
C177 O179 1.279 . S
O178 Cd170 2.223 . S
O178 C177 1.315 . S
O179 Cd169 2.240 . S
O179 C177 1.279 . S
O180 Cd170 2.297 . S
O180 C175 1.247 . S
O181 Cd170 2.439 . S
O181 C175 1.208 . S
O182 Cd183 2.223 . S
O182 C190 1.315 . S
Cd183 O182 2.223 . S
Cd183 O186 2.297 . S
Cd183 O187 2.439 . S
Cd183 O193 2.240 . S
Cd184 O185 2.240 . S
Cd184 O192 2.223 . S
Cd184 O194 2.297 . S
Cd184 O195 2.439 . S
O185 Cd184 2.240 . S
O185 C190 1.279 . S
O186 Cd183 2.297 . S
O186 C188 1.247 . S
O187 Cd183 2.439 . S
O187 C188 1.208 . S
C188 O186 1.247 . S
C188 O187 1.208 . S
C189 O194 1.247 . S
C189 O195 1.208 . S
C190 O182 1.315 . S
C190 O185 1.279 . S
C191 O192 1.315 . S
C191 O193 1.279 . S
O192 Cd184 2.223 . S
O192 C191 1.315 . S
O193 Cd183 2.240 . S
O193 C191 1.279 . S
O194 Cd184 2.297 . S
O194 C189 1.247 . S
O195 Cd184 2.439 . S
O195 C189 1.208 . S
O196 Cd197 2.223 . S
O196 C204 1.315 . S
Cd197 O196 2.223 . S
Cd197 O200 2.297 . S
Cd197 O201 2.439 . S
Cd197 O207 2.240 . S
Cd198 O199 2.240 . S
Cd198 O206 2.223 . S
Cd198 O208 2.297 . S
Cd198 O209 2.439 . S
O199 Cd198 2.240 . S
O199 C204 1.279 . S
O200 Cd197 2.297 . S
O200 C202 1.247 . S
O201 Cd197 2.439 . S
O201 C202 1.208 . S
C202 O200 1.247 . S
C202 O201 1.208 . S
C203 O208 1.247 . S
C203 O209 1.208 . S
C204 O196 1.315 . S
C204 O199 1.279 . S
C205 O206 1.315 . S
C205 O207 1.279 . S
O206 Cd198 2.223 . S
O206 C205 1.315 . S
O207 Cd197 2.240 . S
O207 C205 1.279 . S
O208 Cd198 2.297 . S
O208 C203 1.247 . S
O209 Cd198 2.439 . S
O209 C203 1.208 . S
O210 Cd211 2.223 . S
O210 C218 1.315 . S
Cd211 O210 2.223 . S
Cd211 O214 2.297 . S
Cd211 O215 2.439 . S
Cd211 O221 2.240 . S
Cd212 O213 2.240 . S
Cd212 O220 2.223 . S
Cd212 O222 2.297 . S
Cd212 O223 2.439 . S
O213 Cd212 2.240 . S
O213 C218 1.279 . S
O214 Cd211 2.297 . S
O214 C216 1.247 . S
O215 Cd211 2.439 . S
O215 C216 1.208 . S
C216 O214 1.247 . S
C216 O215 1.208 . S
C217 O222 1.247 . S
C217 O223 1.208 . S
C218 O210 1.315 . S
C218 O213 1.279 . S
C219 O220 1.315 . S
C219 O221 1.279 . S
O220 Cd212 2.223 . S
O220 C219 1.315 . S
O221 Cd211 2.240 . S
O221 C219 1.279 . S
O222 Cd212 2.297 . S
O222 C217 1.247 . S
O223 Cd212 2.439 . S
O223 C217 1.208 . S
O224 Cd225 2.223 . S
O224 C232 1.315 . S
Cd225 O224 2.223 . S
Cd225 O228 2.297 . S
Cd225 O229 2.439 . S
Cd225 O235 2.240 . S
Cd226 O227 2.240 . S
Cd226 O234 2.223 . S
Cd226 O236 2.297 . S
Cd226 O237 2.439 . S
O227 Cd226 2.240 . S
O227 C232 1.279 . S
O228 Cd225 2.297 . S
O228 C230 1.247 . S
O229 Cd225 2.439 . S
O229 C230 1.208 . S
C230 O228 1.247 . S
C230 O229 1.208 . S
C231 O236 1.247 . S
C231 O237 1.208 . S
C232 O224 1.315 . S
C232 O227 1.279 . S
C233 O234 1.315 . S
C233 O235 1.279 . S
O234 Cd226 2.223 . S
O234 C233 1.315 . S
O235 Cd225 2.240 . S
O235 C233 1.279 . S
O236 Cd226 2.297 . S
O236 C231 1.247 . S
O237 Cd226 2.439 . S
O237 C231 1.208 . S
O238 Cd239 2.223 . S
O238 C246 1.315 . S
Cd239 O238 2.223 . S
Cd239 O242 2.297 . S
Cd239 O243 2.439 . S
Cd239 O249 2.240 . S
Cd240 O241 2.240 . S
Cd240 O248 2.223 . S
Cd240 O250 2.297 . S
Cd240 O251 2.439 . S
O241 Cd240 2.240 . S
O241 C246 1.279 . S
O242 Cd239 2.297 . S
O242 C244 1.247 . S
O243 Cd239 2.439 . S
O243 C244 1.208 . S
C244 O242 1.247 . S
C244 O243 1.208 . S
C245 O250 1.247 . S
C245 O251 1.208 . S
C246 O238 1.315 . S
C246 O241 1.279 . S
C247 O248 1.315 . S
C247 O249 1.279 . S
O248 Cd240 2.223 . S
O248 C247 1.315 . S
O249 Cd239 2.240 . S
O249 C247 1.279 . S
O250 Cd240 2.297 . S
O250 C245 1.247 . S
O251 Cd240 2.439 . S
O251 C245 1.208 . S
O252 Cd253 2.223 . S
O252 C260 1.315 . S
Cd253 O252 2.223 . S
Cd253 O256 2.297 . S
Cd253 O257 2.439 . S
Cd253 O263 2.240 . S
Cd254 O255 2.240 . S
Cd254 O262 2.223 . S
Cd254 O264 2.297 . S
Cd254 O265 2.439 . S
O255 Cd254 2.240 . S
O255 C260 1.279 . S
O256 Cd253 2.297 . S
O256 C258 1.247 . S
O257 Cd253 2.439 . S
O257 C258 1.208 . S
C258 O256 1.247 . S
C258 O257 1.208 . S
C259 O264 1.247 . S
C259 O265 1.208 . S
C260 O252 1.315 . S
C260 O255 1.279 . S
C261 O262 1.315 . S
C261 O263 1.279 . S
O262 Cd254 2.223 . S
O262 C261 1.315 . S
O263 Cd253 2.240 . S
O263 C261 1.279 . S
O264 Cd254 2.297 . S
O264 C259 1.247 . S
O265 Cd254 2.439 . S
O265 C259 1.208 . S
O266 Cd267 2.223 . S
O266 C274 1.315 . S
Cd267 O266 2.223 . S
Cd267 O270 2.297 . S
Cd267 O271 2.439 . S
Cd267 O277 2.240 . S
Cd268 O269 2.240 . S
Cd268 O276 2.223 . S
Cd268 O278 2.297 . S
Cd268 O279 2.439 . S
O269 Cd268 2.240 . S
O269 C274 1.279 . S
O270 Cd267 2.297 . S
O270 C272 1.247 . S
O271 Cd267 2.439 . S
O271 C272 1.208 . S
C272 O270 1.247 . S
C272 O271 1.208 . S
C273 O278 1.247 . S
C273 O279 1.208 . S
C274 O266 1.315 . S
C274 O269 1.279 . S
C275 O276 1.315 . S
C275 O277 1.279 . S
O276 Cd268 2.223 . S
O276 C275 1.315 . S
O277 Cd267 2.240 . S
O277 C275 1.279 . S
O278 Cd268 2.297 . S
O278 C273 1.247 . S
O279 Cd268 2.439 . S
O279 C273 1.208 . S
O280 Cd281 2.223 . S
O280 C288 1.315 . S
Cd281 O280 2.223 . S
Cd281 O284 2.297 . S
Cd281 O285 2.439 . S
Cd281 O291 2.240 . S
Cd282 O283 2.240 . S
Cd282 O290 2.223 . S
Cd282 O292 2.297 . S
Cd282 O293 2.439 . S
O283 Cd282 2.240 . S
O283 C288 1.279 . S
O284 Cd281 2.297 . S
O284 C286 1.247 . S
O285 Cd281 2.439 . S
O285 C286 1.208 . S
C286 O284 1.247 . S
C286 O285 1.208 . S
C287 O292 1.247 . S
C287 O293 1.208 . S
C288 O280 1.315 . S
C288 O283 1.279 . S
C289 O290 1.315 . S
C289 O291 1.279 . S
O290 Cd282 2.223 . S
O290 C289 1.315 . S
O291 Cd281 2.240 . S
O291 C289 1.279 . S
O292 Cd282 2.297 . S
O292 C287 1.247 . S
O293 Cd282 2.439 . S
O293 C287 1.208 . S
O294 Cd295 2.223 . S
O294 C302 1.315 1_556 S
Cd295 O294 2.223 . S
Cd295 O298 2.297 . S
Cd295 O299 2.439 . S
Cd295 O305 2.240 . S
Cd296 O297 2.240 . S
Cd296 O304 2.223 . S
Cd296 O306 2.297 . S
Cd296 O307 2.439 . S
O297 Cd296 2.240 . S
O297 C302 1.279 1_556 S
O298 Cd295 2.297 . S
O298 C300 1.247 . S
O299 Cd295 2.439 . S
O299 C300 1.208 . S
C300 O298 1.247 . S
C300 O299 1.208 . S
C301 O306 1.247 . S
C301 O307 1.208 . S
C302 O294 1.315 1_554 S
C302 O297 1.279 1_554 S
C303 O304 1.315 . S
C303 O305 1.279 . S
O304 Cd296 2.223 . S
O304 C303 1.315 . S
O305 Cd295 2.240 . S
O305 C303 1.279 . S
O306 Cd296 2.297 . S
O306 C301 1.247 . S
O307 Cd296 2.439 . S
O307 C301 1.208 . S
O308 Cd309 2.223 . S
O308 C316 1.315 1_556 S
Cd309 O308 2.223 . S
Cd309 O312 2.297 . S
Cd309 O313 2.439 . S
Cd309 O319 2.240 . S
Cd310 O311 2.240 . S
Cd310 O318 2.223 . S
Cd310 O320 2.297 . S
Cd310 O321 2.439 . S
O311 Cd310 2.240 . S
O311 C316 1.279 1_556 S
O312 Cd309 2.297 . S
O312 C314 1.247 . S
O313 Cd309 2.439 . S
O313 C314 1.208 . S
C314 O312 1.247 . S
C314 O313 1.208 . S
C315 O320 1.247 . S
C315 O321 1.208 . S
C316 O308 1.315 1_554 S
C316 O311 1.279 1_554 S
C317 O318 1.315 . S
C317 O319 1.279 . S
O318 Cd310 2.223 . S
O318 C317 1.315 . S
O319 Cd309 2.240 . S
O319 C317 1.279 . S
O320 Cd310 2.297 . S
O320 C315 1.247 . S
O321 Cd310 2.439 . S
O321 C315 1.208 . S
O322 Cd323 2.223 . S
O322 C330 1.315 1_556 S
Cd323 O322 2.223 . S
Cd323 O326 2.297 . S
Cd323 O327 2.439 . S
Cd323 O333 2.240 . S
Cd324 O325 2.240 . S
Cd324 O332 2.223 . S
Cd324 O334 2.297 . S
Cd324 O335 2.439 . S
O325 Cd324 2.240 . S
O325 C330 1.279 1_556 S
O326 Cd323 2.297 . S
O326 C328 1.247 . S
O327 Cd323 2.439 . S
O327 C328 1.208 . S
C328 O326 1.247 . S
C328 O327 1.208 . S
C329 O334 1.247 . S
C329 O335 1.208 . S
C330 O322 1.315 1_554 S
C330 O325 1.279 1_554 S
C331 O332 1.315 . S
C331 O333 1.279 . S
O332 Cd324 2.223 . S
O332 C331 1.315 . S
O333 Cd323 2.240 . S
O333 C331 1.279 . S
O334 Cd324 2.297 . S
O334 C329 1.247 . S
O335 Cd324 2.439 . S
O335 C329 1.208 . S
O336 Cd337 2.223 . S
O336 C344 1.315 . S
Cd337 O336 2.223 . S
Cd337 O340 2.297 . S
Cd337 O341 2.439 . S
Cd337 O347 2.240 . S
Cd338 O339 2.240 . S
Cd338 O346 2.223 . S
Cd338 O348 2.297 . S
Cd338 O349 2.439 . S
O339 Cd338 2.240 . S
O339 C344 1.279 . S
O340 Cd337 2.297 . S
O340 C342 1.247 . S
O341 Cd337 2.439 . S
O341 C342 1.208 . S
C342 O340 1.247 . S
C342 O341 1.208 . S
C343 O348 1.247 . S
C343 O349 1.208 . S
C344 O336 1.315 . S
C344 O339 1.279 . S
C345 O346 1.315 . S
C345 O347 1.279 . S
O346 Cd338 2.223 . S
O346 C345 1.315 . S
O347 Cd337 2.240 . S
O347 C345 1.279 . S
O348 Cd338 2.297 . S
O348 C343 1.247 . S
O349 Cd338 2.439 . S
O349 C343 1.208 . S
O350 Cd351 2.223 . S
O350 C358 1.315 . S
Cd351 O350 2.223 . S
Cd351 O354 2.297 . S
Cd351 O355 2.439 . S
Cd351 O361 2.240 . S
Cd352 O353 2.240 . S
Cd352 O360 2.223 . S
Cd352 O362 2.297 . S
Cd352 O363 2.439 . S
O353 Cd352 2.240 . S
O353 C358 1.279 . S
O354 Cd351 2.297 . S
O354 C356 1.247 . S
O355 Cd351 2.439 . S
O355 C356 1.208 . S
C356 O354 1.247 . S
C356 O355 1.208 . S
C357 O362 1.247 . S
C357 O363 1.208 . S
C358 O350 1.315 . S
C358 O353 1.279 . S
C359 O360 1.315 . S
C359 O361 1.279 . S
O360 Cd352 2.223 . S
O360 C359 1.315 . S
O361 Cd351 2.240 . S
O361 C359 1.279 . S
O362 Cd352 2.297 . S
O362 C357 1.247 . S
O363 Cd352 2.439 . S
O363 C357 1.208 . S
O364 Cd365 2.223 . S
O364 C372 1.315 . S
Cd365 O364 2.223 . S
Cd365 O368 2.297 . S
Cd365 O369 2.439 . S
Cd365 O375 2.240 . S
Cd366 O367 2.240 . S
Cd366 O374 2.223 . S
Cd366 O376 2.297 . S
Cd366 O377 2.439 . S
O367 Cd366 2.240 . S
O367 C372 1.279 . S
O368 Cd365 2.297 . S
O368 C370 1.247 . S
O369 Cd365 2.439 . S
O369 C370 1.208 . S
C370 O368 1.247 . S
C370 O369 1.208 . S
C371 O376 1.247 . S
C371 O377 1.208 . S
C372 O364 1.315 . S
C372 O367 1.279 . S
C373 O374 1.315 . S
C373 O375 1.279 . S
O374 Cd366 2.223 . S
O374 C373 1.315 . S
O375 Cd365 2.240 . S
O375 C373 1.279 . S
O376 Cd366 2.297 . S
O376 C371 1.247 . S
O377 Cd366 2.439 . S
O377 C371 1.208 . S
O378 Cd379 2.223 . S
O378 C386 1.315 1_554 S
Cd379 O378 2.223 . S
Cd379 O382 2.297 . S
Cd379 O383 2.439 . S
Cd379 O389 2.240 . S
Cd380 O381 2.240 . S
Cd380 O388 2.223 . S
Cd380 O390 2.297 . S
Cd380 O391 2.439 . S
O381 Cd380 2.240 . S
O381 C386 1.279 1_554 S
O382 Cd379 2.297 . S
O382 C384 1.247 . S
O383 Cd379 2.439 . S
O383 C384 1.208 . S
C384 O382 1.247 . S
C384 O383 1.208 . S
C385 O390 1.247 . S
C385 O391 1.208 . S
C386 O378 1.315 1_556 S
C386 O381 1.279 1_556 S
C387 O388 1.315 . S
C387 O389 1.279 . S
O388 Cd380 2.223 . S
O388 C387 1.315 . S
O389 Cd379 2.240 . S
O389 C387 1.279 . S
O390 Cd380 2.297 . S
O390 C385 1.247 . S
O391 Cd380 2.439 . S
O391 C385 1.208 . S
O392 Cd393 2.223 . S
O392 C400 1.315 1_554 S
Cd393 O392 2.223 . S
Cd393 O396 2.297 . S
Cd393 O397 2.439 . S
Cd393 O403 2.240 . S
Cd394 O395 2.240 . S
Cd394 O402 2.223 . S
Cd394 O404 2.297 . S
Cd394 O405 2.439 . S
O395 Cd394 2.240 . S
O395 C400 1.279 1_554 S
O396 Cd393 2.297 . S
O396 C398 1.247 . S
O397 Cd393 2.439 . S
O397 C398 1.208 . S
C398 O396 1.247 . S
C398 O397 1.208 . S
C399 O404 1.247 . S
C399 O405 1.208 . S
C400 O392 1.315 1_556 S
C400 O395 1.279 1_556 S
C401 O402 1.315 . S
C401 O403 1.279 . S
O402 Cd394 2.223 . S
O402 C401 1.315 . S
O403 Cd393 2.240 . S
O403 C401 1.279 . S
O404 Cd394 2.297 . S
O404 C399 1.247 . S
O405 Cd394 2.439 . S
O405 C399 1.208 . S
O406 Cd407 2.223 . S
O406 C414 1.315 1_554 S
Cd407 O406 2.223 . S
Cd407 O410 2.297 . S
Cd407 O411 2.439 . S
Cd407 O417 2.240 . S
Cd408 O409 2.240 . S
Cd408 O416 2.223 . S
Cd408 O418 2.297 . S
Cd408 O419 2.439 . S
O409 Cd408 2.240 . S
O409 C414 1.279 1_554 S
O410 Cd407 2.297 . S
O410 C412 1.247 . S
O411 Cd407 2.439 . S
O411 C412 1.208 . S
C412 O410 1.247 . S
C412 O411 1.208 . S
C413 O418 1.247 . S
C413 O419 1.208 . S
C414 O406 1.315 1_556 S
C414 O409 1.279 1_556 S
C415 O416 1.315 . S
C415 O417 1.279 . S
O416 Cd408 2.223 . S
O416 C415 1.315 . S
O417 Cd407 2.240 . S
O417 C415 1.279 . S
O418 Cd408 2.297 . S
O418 C413 1.247 . S
O419 Cd408 2.439 . S
O419 C413 1.208 . S
O420 Cd421 2.223 . S
O420 C428 1.315 . S
Cd421 O420 2.223 . S
Cd421 O424 2.297 . S
Cd421 O425 2.439 . S
Cd421 O431 2.240 . S
Cd422 O423 2.240 . S
Cd422 O430 2.223 . S
Cd422 O432 2.297 . S
Cd422 O433 2.439 . S
O423 Cd422 2.240 . S
O423 C428 1.279 . S
O424 Cd421 2.297 . S
O424 C426 1.247 . S
O425 Cd421 2.439 . S
O425 C426 1.208 . S
C426 O424 1.247 . S
C426 O425 1.208 . S
C427 O432 1.247 . S
C427 O433 1.208 . S
C428 O420 1.315 . S
C428 O423 1.279 . S
C429 O430 1.315 . S
C429 O431 1.279 . S
O430 Cd422 2.223 . S
O430 C429 1.315 . S
O431 Cd421 2.240 . S
O431 C429 1.279 . S
O432 Cd422 2.297 . S
O432 C427 1.247 . S
O433 Cd422 2.439 . S
O433 C427 1.208 . S
O434 Cd435 2.223 . S
O434 C442 1.315 . S
Cd435 O434 2.223 . S
Cd435 O438 2.297 . S
Cd435 O439 2.439 . S
Cd435 O445 2.240 . S
Cd436 O437 2.240 . S
Cd436 O444 2.223 . S
Cd436 O446 2.297 . S
Cd436 O447 2.439 . S
O437 Cd436 2.240 . S
O437 C442 1.279 . S
O438 Cd435 2.297 . S
O438 C440 1.247 . S
O439 Cd435 2.439 . S
O439 C440 1.208 . S
C440 O438 1.247 . S
C440 O439 1.208 . S
C441 O446 1.247 . S
C441 O447 1.208 . S
C442 O434 1.315 . S
C442 O437 1.279 . S
C443 O444 1.315 . S
C443 O445 1.279 . S
O444 Cd436 2.223 . S
O444 C443 1.315 . S
O445 Cd435 2.240 . S
O445 C443 1.279 . S
O446 Cd436 2.297 . S
O446 C441 1.247 . S
O447 Cd436 2.439 . S
O447 C441 1.208 . S
O448 Cd449 2.223 . S
O448 C456 1.315 . S
Cd449 O448 2.223 . S
Cd449 O452 2.297 . S
Cd449 O453 2.439 . S
Cd449 O459 2.240 . S
Cd450 O451 2.240 . S
Cd450 O458 2.223 . S
Cd450 O460 2.297 . S
Cd450 O461 2.439 . S
O451 Cd450 2.240 . S
O451 C456 1.279 . S
O452 Cd449 2.297 . S
O452 C454 1.247 . S
O453 Cd449 2.439 . S
O453 C454 1.208 . S
C454 O452 1.247 . S
C454 O453 1.208 . S
C455 O460 1.247 . S
C455 O461 1.208 . S
C456 O448 1.315 . S
C456 O451 1.279 . S
C457 O458 1.315 . S
C457 O459 1.279 . S
O458 Cd450 2.223 . S
O458 C457 1.315 . S
O459 Cd449 2.240 . S
O459 C457 1.279 . S
O460 Cd450 2.297 . S
O460 C455 1.247 . S
O461 Cd450 2.439 . S
O461 C455 1.208 . S
O462 Cd463 2.223 . S
O462 C470 1.315 . S
Cd463 O462 2.223 . S
Cd463 O466 2.297 . S
Cd463 O467 2.439 . S
Cd463 O473 2.240 . S
Cd464 O465 2.240 . S
Cd464 O472 2.223 . S
Cd464 O474 2.297 . S
Cd464 O475 2.439 . S
O465 Cd464 2.240 . S
O465 C470 1.279 . S
O466 Cd463 2.297 . S
O466 C468 1.247 . S
O467 Cd463 2.439 . S
O467 C468 1.208 . S
C468 O466 1.247 . S
C468 O467 1.208 . S
C469 O474 1.247 . S
C469 O475 1.208 . S
C470 O462 1.315 . S
C470 O465 1.279 . S
C471 O472 1.315 . S
C471 O473 1.279 . S
O472 Cd464 2.223 . S
O472 C471 1.315 . S
O473 Cd463 2.240 . S
O473 C471 1.279 . S
O474 Cd464 2.297 . S
O474 C469 1.247 . S
O475 Cd464 2.439 . S
O475 C469 1.208 . S
O476 Cd477 2.223 . S
O476 C484 1.315 . S
Cd477 O476 2.223 . S
Cd477 O480 2.297 . S
Cd477 O481 2.439 . S
Cd477 O487 2.240 . S
Cd478 O479 2.240 . S
Cd478 O486 2.223 . S
Cd478 O488 2.297 . S
Cd478 O489 2.439 . S
O479 Cd478 2.240 . S
O479 C484 1.279 . S
O480 Cd477 2.297 . S
O480 C482 1.247 . S
O481 Cd477 2.439 . S
O481 C482 1.208 . S
C482 O480 1.247 . S
C482 O481 1.208 . S
C483 O488 1.247 . S
C483 O489 1.208 . S
C484 O476 1.315 . S
C484 O479 1.279 . S
C485 O486 1.315 . S
C485 O487 1.279 . S
O486 Cd478 2.223 . S
O486 C485 1.315 . S
O487 Cd477 2.240 . S
O487 C485 1.279 . S
O488 Cd478 2.297 . S
O488 C483 1.247 . S
O489 Cd478 2.439 . S
O489 C483 1.208 . S
O490 Cd491 2.223 . S
O490 C498 1.315 . S
Cd491 O490 2.223 . S
Cd491 O494 2.297 . S
Cd491 O495 2.439 . S
Cd491 O501 2.240 . S
Cd492 O493 2.240 . S
Cd492 O500 2.223 . S
Cd492 O502 2.297 . S
Cd492 O503 2.439 . S
O493 Cd492 2.240 . S
O493 C498 1.279 . S
O494 Cd491 2.297 . S
O494 C496 1.247 . S
O495 Cd491 2.439 . S
O495 C496 1.208 . S
C496 O494 1.247 . S
C496 O495 1.208 . S
C497 O502 1.247 . S
C497 O503 1.208 . S
C498 O490 1.315 . S
C498 O493 1.279 . S
C499 O500 1.315 . S
C499 O501 1.279 . S
O500 Cd492 2.223 . S
O500 C499 1.315 . S
O501 Cd491 2.240 . S
O501 C499 1.279 . S
O502 Cd492 2.297 . S
O502 C497 1.247 . S
O503 Cd492 2.439 . S
O503 C497 1.208 . S
C504 C505 1.363 1_556 S
C504 C510 1.379 . S
C504 N512 1.356 . S
C505 C504 1.363 1_554 S
C505 C511 1.363 . S
C506 C507 1.363 1_554 S
C506 C511 1.379 1_565 S
C506 N513 1.356 . S
C507 C506 1.363 1_556 S
C507 C510 1.363 1_565 S
N508 C510 1.356 . S
N508 H520 0.984 . S
N508 H521 0.985 1_545 S
N509 C511 1.356 . S
N509 H514 0.984 . S
N509 H515 0.985 . S
C510 C504 1.379 . S
C510 C507 1.363 1_545 S
C510 N508 1.356 . S
C511 C505 1.363 . S
C511 C506 1.379 1_545 S
C511 N509 1.356 . S
N512 C504 1.356 . S
N512 H518 0.984 . S
N512 H519 0.984 1_556 S
N513 C506 1.356 . S
N513 H516 0.984 1_554 S
N513 H517 0.985 . S
H514 N509 0.984 . S
H515 N509 0.985 . S
H516 N513 0.984 1_556 S
H517 N513 0.985 . S
H518 N512 0.984 . S
H519 N512 0.984 1_554 S
H520 N508 0.984 . S
H521 N508 0.985 1_565 S
C522 C523 1.363 . S
C522 C528 1.379 1_554 S
C522 N530 1.356 . S
C523 C522 1.363 . S
C523 C529 1.351 1_554 S
C524 C525 1.363 1_655 S
C524 C529 1.394 . S
C524 N531 1.356 1_655 S
C525 C524 1.363 1_455 S
C525 C528 1.363 1_455 S
N526 C528 1.356 1_455 S
N526 H538 0.984 . S
N526 H539 0.985 . S
N527 C529 1.348 1_554 S
N527 H532 0.984 . S
N527 H533 0.985 . S
C528 C522 1.379 1_556 S
C528 C525 1.363 1_655 S
C528 N526 1.356 1_655 S
C529 C523 1.351 1_556 S
C529 C524 1.394 . S
C529 N527 1.348 1_556 S
N530 C522 1.356 . S
N530 H536 0.984 . S
N530 H537 0.984 . S
N531 C524 1.356 1_455 S
N531 H534 0.984 . S
N531 H535 0.985 . S
H532 N527 0.984 . S
H533 N527 0.985 . S
H534 N531 0.984 . S
H535 N531 0.985 . S
H536 N530 0.984 . S
H537 N530 0.984 . S
H538 N526 0.984 . S
H539 N526 0.985 . S
C540 C541 1.363 . S
C540 C546 1.379 . S
C540 N548 1.356 . S
C541 C540 1.363 . S
C541 C547 1.363 1_556 S
C542 C543 1.363 . S
C542 C547 1.379 . S
C542 N549 1.356 . S
C543 C542 1.363 . S
C543 C546 1.363 1_554 S
N544 C546 1.356 . S
N544 H556 0.984 . S
N544 H557 0.985 1_556 S
N545 C547 1.356 . S
N545 H550 0.984 1_554 S
N545 H551 0.985 . S
C546 C540 1.379 . S
C546 C543 1.363 1_556 S
C546 N544 1.356 . S
C547 C541 1.363 1_554 S
C547 C542 1.379 . S
C547 N545 1.356 . S
N548 C540 1.356 . S
N548 H554 0.984 . S
N548 H555 0.984 . S
N549 C542 1.356 . S
N549 H552 0.984 . S
N549 H553 0.985 . S
H550 N545 0.984 1_556 S
H551 N545 0.985 . S
H552 N549 0.984 . S
H553 N549 0.985 . S
H554 N548 0.984 . S
H555 N548 0.984 . S
H556 N544 0.984 . S
H557 N544 0.985 1_554 S
C558 C559 1.363 1_455 S
C558 C564 1.379 . S
C558 N566 1.356 . S
C559 C558 1.363 1_655 S
C559 C565 1.363 . S
C560 C561 1.363 . S
C560 C565 1.379 1_455 S
C560 N567 1.356 . S
C561 C560 1.363 . S
C561 C564 1.363 . S
N562 C564 1.356 . S
N562 H574 0.984 . S
N562 H575 0.985 . S
N563 C565 1.356 . S
N563 H568 0.984 . S
N563 H569 0.985 . S
C564 C558 1.379 . S
C564 C561 1.363 . S
C564 N562 1.356 . S
C565 C559 1.363 . S
C565 C560 1.379 1_655 S
C565 N563 1.356 . S
N566 C558 1.356 . S
N566 H572 0.984 . S
N566 H573 0.984 1_455 S
N567 C560 1.356 . S
N567 H570 0.984 . S
N567 H571 0.985 . S
H568 N563 0.984 . S
H569 N563 0.985 . S
H570 N567 0.984 . S
H571 N567 0.985 . S
H572 N566 0.984 . S
H573 N566 0.984 1_655 S
H574 N562 0.984 . S
H575 N562 0.985 . S
C576 C577 1.363 . S
C576 C582 1.379 . S
C576 N584 1.356 . S
C577 C576 1.363 . S
C577 C583 1.363 . S
C578 C579 1.363 . S
C578 C583 1.379 . S
C578 N585 1.356 . S
C579 C578 1.363 . S
C579 C582 1.363 . S
N580 C582 1.356 . S
N580 H592 0.984 . S
N580 H593 0.985 . S
N581 C583 1.356 . S
N581 H586 0.984 . S
N581 H587 0.985 . S
C582 C576 1.379 . S
C582 C579 1.363 . S
C582 N580 1.356 . S
C583 C577 1.363 . S
C583 C578 1.379 . S
C583 N581 1.356 . S
N584 C576 1.356 . S
N584 H590 0.984 . S
N584 H591 0.984 . S
N585 C578 1.356 . S
N585 H588 0.984 . S
N585 H589 0.985 . S
H586 N581 0.984 . S
H587 N581 0.985 . S
H588 N585 0.984 . S
H589 N585 0.985 . S
H590 N584 0.984 . S
H591 N584 0.984 . S
H592 N580 0.984 . S
H593 N580 0.985 . S
C594 C595 1.363 . S
C594 C600 1.379 1_565 S
C594 N602 1.356 . S
C595 C594 1.363 . S
C595 C601 1.363 . S
C596 C597 1.363 1_565 S
C596 C601 1.379 . S
C596 N603 1.356 . S
C597 C596 1.363 1_545 S
C597 C600 1.363 . S
N598 C600 1.356 . S
N598 H610 0.984 . S
N598 H611 0.985 . S
N599 C601 1.356 . S
N599 H604 0.984 . S
N599 H605 0.985 . S
C600 C594 1.379 1_545 S
C600 C597 1.363 . S
C600 N598 1.356 . S
C601 C595 1.363 . S
C601 C596 1.379 . S
C601 N599 1.356 . S
N602 C594 1.356 . S
N602 H608 0.984 . S
N602 H609 0.984 . S
N603 C596 1.356 . S
N603 H606 0.984 1_565 S
N603 H607 0.985 . S
H604 N599 0.984 . S
H605 N599 0.985 . S
H606 N603 0.984 1_545 S
H607 N603 0.985 . S
H608 N602 0.984 . S
H609 N602 0.984 . S
H610 N598 0.984 . S
H611 N598 0.985 . S
C612 C613 1.363 1_556 S
C612 C618 1.379 1_545 S
C612 N620 1.356 . S
C613 C612 1.363 1_554 S
C613 C619 1.363 1_545 S
C614 C615 1.363 1_554 S
C614 C619 1.379 . S
C614 N621 1.356 . S
C615 C614 1.363 1_556 S
C615 C618 1.363 . S
N616 C618 1.356 . S
N616 H628 0.984 . S
N616 H629 0.985 . S
N617 C619 1.356 . S
N617 H622 0.984 1_565 S
N617 H623 0.985 . S
C618 C612 1.379 1_565 S
C618 C615 1.363 . S
C618 N616 1.356 . S
C619 C613 1.363 1_565 S
C619 C614 1.379 . S
C619 N617 1.356 . S
N620 C612 1.356 . S
N620 H626 0.984 . S
N620 H627 0.984 1_556 S
N621 C614 1.356 . S
N621 H624 0.984 1_554 S
N621 H625 0.985 . S
H622 N617 0.984 1_545 S
H623 N617 0.985 . S
H624 N621 0.984 1_556 S
H625 N621 0.985 . S
H626 N620 0.984 . S
H627 N620 0.984 1_554 S
H628 N616 0.984 . S
H629 N616 0.985 . S
C630 C631 1.363 1_455 S
C630 C636 1.379 . S
C630 N638 1.356 . S
C631 C630 1.363 1_655 S
C631 C637 1.363 . S
C632 C633 1.363 . S
C632 C637 1.379 1_456 S
C632 N639 1.356 . S
C633 C632 1.363 . S
C633 C636 1.363 1_556 S
N634 C636 1.356 . S
N634 H646 0.984 . S
N634 H647 0.985 1_554 S
N635 C637 1.356 . S
N635 H640 0.984 . S
N635 H641 0.985 1_554 S
C636 C630 1.379 . S
C636 C633 1.363 1_554 S
C636 N634 1.356 . S
C637 C631 1.363 . S
C637 C632 1.379 1_654 S
C637 N635 1.356 . S
N638 C630 1.356 . S
N638 H644 0.984 . S
N638 H645 0.984 1_455 S
N639 C632 1.356 . S
N639 H642 0.984 . S
N639 H643 0.985 . S
H640 N635 0.984 . S
H641 N635 0.985 1_556 S
H642 N639 0.984 . S
H643 N639 0.985 . S
H644 N638 0.984 . S
H645 N638 0.984 1_655 S
H646 N634 0.984 . S
H647 N634 0.985 1_556 S
C648 C649 1.363 1_554 S
C648 C654 1.379 . S
C648 N656 1.356 . S
C649 C648 1.363 1_556 S
C649 C655 1.363 . S
C650 C651 1.363 1_556 S
C650 C655 1.379 . S
C650 N657 1.356 . S
C651 C650 1.363 1_554 S
C651 C654 1.363 . S
N652 C654 1.356 . S
N652 H664 0.984 . S
N652 H665 0.985 . S
N653 C655 1.356 . S
N653 H658 0.984 . S
N653 H659 0.985 . S
C654 C648 1.379 . S
C654 C651 1.363 . S
C654 N652 1.356 . S
C655 C649 1.363 . S
C655 C650 1.379 . S
C655 N653 1.356 . S
N656 C648 1.356 . S
N656 H662 0.984 . S
N656 H663 0.984 1_554 S
N657 C650 1.356 . S
N657 H660 0.984 1_556 S
N657 H661 0.985 . S
H658 N653 0.984 . S
H659 N653 0.985 . S
H660 N657 0.984 1_554 S
H661 N657 0.985 . S
H662 N656 0.984 . S
H663 N656 0.984 1_556 S
H664 N652 0.984 . S
H665 N652 0.985 . S
C666 C667 1.363 . S
C666 C672 1.379 1_655 S
C666 N674 1.356 . S
C667 C666 1.363 . S
C667 C673 1.363 . S
C668 C669 1.363 1_655 S
C668 C673 1.379 . S
C668 N675 1.356 . S
C669 C668 1.363 1_455 S
C669 C672 1.363 . S
N670 C672 1.356 . S
N670 H682 0.984 . S
N670 H683 0.985 . S
N671 C673 1.356 . S
N671 H676 0.984 . S
N671 H677 0.985 . S
C672 C666 1.379 1_455 S
C672 C669 1.363 . S
C672 N670 1.356 . S
C673 C667 1.363 . S
C673 C668 1.379 . S
C673 N671 1.356 . S
N674 C666 1.356 . S
N674 H680 0.984 . S
N674 H681 0.984 . S
N675 C668 1.356 . S
N675 H678 0.984 1_655 S
N675 H679 0.985 . S
H676 N671 0.984 . S
H677 N671 0.985 . S
H678 N675 0.984 1_455 S
H679 N675 0.985 . S
H680 N674 0.984 . S
H681 N674 0.984 . S
H682 N670 0.984 . S
H683 N670 0.985 . S
C684 C685 1.363 . S
C684 C690 1.379 . S
C684 N692 1.356 . S
C685 C684 1.363 . S
C685 C691 1.363 . S
C686 C687 1.363 . S
C686 C691 1.379 . S
C686 N693 1.356 . S
C687 C686 1.363 . S
C687 C690 1.363 . S
N688 C690 1.356 . S
N688 H700 0.984 . S
N688 H701 0.985 . S
N689 C691 1.356 . S
N689 H694 0.984 . S
N689 H695 0.985 . S
C690 C684 1.379 . S
C690 C687 1.363 . S
C690 N688 1.356 . S
C691 C685 1.363 . S
C691 C686 1.379 . S
C691 N689 1.356 . S
N692 C684 1.356 . S
N692 H698 0.984 . S
N692 H699 0.984 . S
N693 C686 1.356 . S
N693 H696 0.984 . S
N693 H697 0.985 . S
H694 N689 0.984 . S
H695 N689 0.985 . S
H696 N693 0.984 . S
H697 N693 0.985 . S
H698 N692 0.984 . S
H699 N692 0.984 . S
H700 N688 0.984 . S
H701 N688 0.985 . S
C702 C703 1.363 . S
C702 C708 1.379 1_545 S
C702 N710 1.356 . S
C703 C702 1.363 . S
C703 C709 1.363 . S
C704 C705 1.363 1_545 S
C704 C709 1.379 . S
C704 N711 1.356 . S
C705 C704 1.363 1_565 S
C705 C708 1.363 . S
N706 C708 1.356 . S
N706 H718 0.984 . S
N706 H719 0.985 . S
N707 C709 1.356 . S
N707 H712 0.984 . S
N707 H713 0.985 . S
C708 C702 1.379 1_565 S
C708 C705 1.363 . S
C708 N706 1.356 . S
C709 C703 1.363 . S
C709 C704 1.379 . S
C709 N707 1.356 . S
N710 C702 1.356 . S
N710 H716 0.984 1_545 S
N710 H717 0.984 . S
N711 C704 1.356 . S
N711 H714 0.984 1_545 S
N711 H715 0.985 . S
H712 N707 0.984 . S
H713 N707 0.985 . S
H714 N711 0.984 1_565 S
H715 N711 0.985 . S
H716 N710 0.984 1_565 S
H717 N710 0.984 . S
H718 N706 0.984 . S
H719 N706 0.985 . S
C720 C721 1.363 . S
C720 C726 1.379 . S
C720 N728 1.356 . S
C721 C720 1.363 . S
C721 C727 1.363 . S
C722 C723 1.363 . S
C722 C727 1.379 . S
C722 N729 1.356 . S
C723 C722 1.363 . S
C723 C726 1.363 . S
N724 C726 1.356 . S
N724 H736 0.984 . S
N724 H737 0.985 . S
N725 C727 1.356 . S
N725 H730 0.984 . S
N725 H731 0.985 . S
C726 C720 1.379 . S
C726 C723 1.363 . S
C726 N724 1.356 . S
C727 C721 1.363 . S
C727 C722 1.379 . S
C727 N725 1.356 . S
N728 C720 1.356 . S
N728 H734 0.984 . S
N728 H735 0.984 . S
N729 C722 1.356 . S
N729 H732 0.984 . S
N729 H733 0.985 . S
H730 N725 0.984 . S
H731 N725 0.985 . S
H732 N729 0.984 . S
H733 N729 0.985 . S
H734 N728 0.984 . S
H735 N728 0.984 . S
H736 N724 0.984 . S
H737 N724 0.985 . S
C738 C739 1.363 . S
C738 C744 1.379 . S
C738 N746 1.356 . S
C739 C738 1.363 . S
C739 C745 1.363 . S
C740 C741 1.363 . S
C740 C745 1.379 . S
C740 N747 1.356 . S
C741 C740 1.363 . S
C741 C744 1.363 . S
N742 C744 1.356 . S
N742 H754 0.984 . S
N742 H755 0.985 . S
N743 C745 1.356 . S
N743 H748 0.984 . S
N743 H749 0.985 . S
C744 C738 1.379 . S
C744 C741 1.363 . S
C744 N742 1.356 . S
C745 C739 1.363 . S
C745 C740 1.379 . S
C745 N743 1.356 . S
N746 C738 1.356 . S
N746 H752 0.984 . S
N746 H753 0.984 . S
N747 C740 1.356 . S
N747 H750 0.984 . S
N747 H751 0.985 . S
H748 N743 0.984 . S
H749 N743 0.985 . S
H750 N747 0.984 . S
H751 N747 0.985 . S
H752 N746 0.984 . S
H753 N746 0.984 . S
H754 N742 0.984 . S
H755 N742 0.985 . S
C756 C757 1.363 . S
C756 C762 1.379 . S
C756 N764 1.356 . S
C757 C756 1.363 . S
C757 C763 1.363 . S
C758 C759 1.363 . S
C758 C763 1.379 . S
C758 N765 1.356 . S
C759 C758 1.363 . S
C759 C762 1.363 . S
N760 C762 1.356 . S
N760 H772 0.984 . S
N760 H773 0.985 . S
N761 C763 1.356 . S
N761 H766 0.984 . S
N761 H767 0.985 . S
C762 C756 1.379 . S
C762 C759 1.363 . S
C762 N760 1.356 . S
C763 C757 1.363 . S
C763 C758 1.379 . S
C763 N761 1.356 . S
N764 C756 1.356 . S
N764 H770 0.984 . S
N764 H771 0.984 . S
N765 C758 1.356 . S
N765 H768 0.984 . S
N765 H769 0.985 . S
H766 N761 0.984 . S
H767 N761 0.985 . S
H768 N765 0.984 . S
H769 N765 0.985 . S
H770 N764 0.984 . S
H771 N764 0.984 . S
H772 N760 0.984 . S
H773 N760 0.985 . S
C774 C775 1.363 . S
C774 C780 1.379 . S
C774 N782 1.356 . S
C775 C774 1.363 . S
C775 C781 1.363 . S
C776 C777 1.363 . S
C776 C781 1.379 . S
C776 N783 1.356 . S
C777 C776 1.363 . S
C777 C780 1.363 . S
N778 C780 1.356 . S
N778 H790 0.984 . S
N778 H791 0.985 . S
N779 C781 1.356 . S
N779 H784 0.984 . S
N779 H785 0.985 . S
C780 C774 1.379 . S
C780 C777 1.363 . S
C780 N778 1.356 . S
C781 C775 1.363 . S
C781 C776 1.379 . S
C781 N779 1.356 . S
N782 C774 1.356 . S
N782 H788 0.984 . S
N782 H789 0.984 . S
N783 C776 1.356 . S
N783 H786 0.984 . S
N783 H787 0.985 . S
H784 N779 0.984 . S
H785 N779 0.985 . S
H786 N783 0.984 . S
H787 N783 0.985 . S
H788 N782 0.984 . S
H789 N782 0.984 . S
H790 N778 0.984 . S
H791 N778 0.985 . S
C792 C793 1.363 . S
C792 C798 1.379 . S
C792 N800 1.356 . S
C793 C792 1.363 . S
C793 C799 1.363 . S
C794 C795 1.363 . S
C794 C799 1.379 . S
C794 N801 1.356 . S
C795 C794 1.363 . S
C795 C798 1.363 . S
N796 C798 1.356 . S
N796 H808 0.984 . S
N796 H809 0.985 . S
N797 C799 1.356 . S
N797 H802 0.984 . S
N797 H803 0.985 . S
C798 C792 1.379 . S
C798 C795 1.363 . S
C798 N796 1.356 . S
C799 C793 1.363 . S
C799 C794 1.379 . S
C799 N797 1.356 . S
N800 C792 1.356 . S
N800 H806 0.984 . S
N800 H807 0.984 . S
N801 C794 1.356 . S
N801 H804 0.984 . S
N801 H805 0.985 . S
H802 N797 0.984 . S
H803 N797 0.985 . S
H804 N801 0.984 . S
H805 N801 0.985 . S
H806 N800 0.984 . S
H807 N800 0.984 . S
H808 N796 0.984 . S
H809 N796 0.985 . S
C810 C811 1.363 . S
C810 C816 1.379 . S
C810 N818 1.356 . S
C811 C810 1.363 . S
C811 C817 1.363 . S
C812 C813 1.363 . S
C812 C817 1.379 . S
C812 N819 1.356 . S
C813 C812 1.363 . S
C813 C816 1.363 . S
N814 C816 1.356 . S
N814 H826 0.984 . S
N814 H827 0.985 . S
N815 C817 1.356 . S
N815 H820 0.984 . S
N815 H821 0.985 . S
C816 C810 1.379 . S
C816 C813 1.363 . S
C816 N814 1.356 . S
C817 C811 1.363 . S
C817 C812 1.379 . S
C817 N815 1.356 . S
N818 C810 1.356 . S
N818 H824 0.984 . S
N818 H825 0.984 . S
N819 C812 1.356 . S
N819 H822 0.984 . S
N819 H823 0.985 . S
H820 N815 0.984 . S
H821 N815 0.985 . S
H822 N819 0.984 . S
H823 N819 0.985 . S
H824 N818 0.984 . S
H825 N818 0.984 . S
H826 N814 0.984 . S
H827 N814 0.985 . S
C828 C829 1.363 . S
C828 C834 1.379 . S
C828 N836 1.356 . S
C829 C828 1.363 . S
C829 C835 1.363 . S
C830 C831 1.363 . S
C830 C835 1.379 . S
C830 N837 1.356 . S
C831 C830 1.363 . S
C831 C834 1.363 . S
N832 C834 1.356 . S
N832 H844 0.984 . S
N832 H845 0.985 . S
N833 C835 1.356 . S
N833 H838 0.984 . S
N833 H839 0.985 . S
C834 C828 1.379 . S
C834 C831 1.363 . S
C834 N832 1.356 . S
C835 C829 1.363 . S
C835 C830 1.379 . S
C835 N833 1.356 . S
N836 C828 1.356 . S
N836 H842 0.984 . S
N836 H843 0.984 . S
N837 C830 1.356 . S
N837 H840 0.984 . S
N837 H841 0.985 . S
H838 N833 0.984 . S
H839 N833 0.985 . S
H840 N837 0.984 . S
H841 N837 0.985 . S
H842 N836 0.984 . S
H843 N836 0.984 . S
H844 N832 0.984 . S
H845 N832 0.985 . S
C846 C847 1.363 . S
C846 C852 1.379 . S
C846 N854 1.356 . S
C847 C846 1.363 . S
C847 C853 1.363 . S
C848 C849 1.363 . S
C848 C853 1.379 . S
C848 N855 1.356 . S
C849 C848 1.363 . S
C849 C852 1.363 . S
N850 C852 1.356 . S
N850 H862 0.984 . S
N850 H863 0.985 . S
N851 C853 1.356 . S
N851 H856 0.984 . S
N851 H857 0.985 . S
C852 C846 1.379 . S
C852 C849 1.363 . S
C852 N850 1.356 . S
C853 C847 1.363 . S
C853 C848 1.379 . S
C853 N851 1.356 . S
N854 C846 1.356 . S
N854 H860 0.984 . S
N854 H861 0.984 . S
N855 C848 1.356 . S
N855 H858 0.984 . S
N855 H859 0.985 . S
H856 N851 0.984 . S
H857 N851 0.985 . S
H858 N855 0.984 . S
H859 N855 0.985 . S
H860 N854 0.984 . S
H861 N854 0.984 . S
H862 N850 0.984 . S
H863 N850 0.985 . S
C864 C865 1.363 . S
C864 C870 1.379 . S
C864 N872 1.356 . S
C865 C864 1.363 . S
C865 C871 1.363 . S
C866 C867 1.363 . S
C866 C871 1.379 . S
C866 N873 1.356 . S
C867 C866 1.363 . S
C867 C870 1.363 . S
N868 C870 1.356 . S
N868 H880 0.984 . S
N868 H881 0.985 . S
N869 C871 1.356 . S
N869 H874 0.984 . S
N869 H875 0.985 . S
C870 C864 1.379 . S
C870 C867 1.363 . S
C870 N868 1.356 . S
C871 C865 1.363 . S
C871 C866 1.379 . S
C871 N869 1.356 . S
N872 C864 1.356 . S
N872 H878 0.984 . S
N872 H879 0.984 . S
N873 C866 1.356 . S
N873 H876 0.984 . S
N873 H877 0.985 . S
H874 N869 0.984 . S
H875 N869 0.985 . S
H876 N873 0.984 . S
H877 N873 0.985 . S
H878 N872 0.984 . S
H879 N872 0.984 . S
H880 N868 0.984 . S
H881 N868 0.985 . S
C882 C883 1.363 . S
C882 C888 1.379 . S
C882 N890 1.356 . S
C883 C882 1.363 . S
C883 C889 1.363 . S
C884 C885 1.363 . S
C884 C889 1.379 . S
C884 N891 1.356 . S
C885 C884 1.363 . S
C885 C888 1.363 . S
N886 C888 1.356 . S
N886 H898 0.984 . S
N886 H899 0.985 . S
N887 C889 1.356 . S
N887 H892 0.984 . S
N887 H893 0.985 . S
C888 C882 1.379 . S
C888 C885 1.363 . S
C888 N886 1.356 . S
C889 C883 1.363 . S
C889 C884 1.379 . S
C889 N887 1.356 . S
N890 C882 1.356 . S
N890 H896 0.984 . S
N890 H897 0.984 . S
N891 C884 1.356 . S
N891 H894 0.984 . S
N891 H895 0.985 . S
H892 N887 0.984 . S
H893 N887 0.985 . S
H894 N891 0.984 . S
H895 N891 0.985 . S
H896 N890 0.984 . S
H897 N890 0.984 . S
H898 N886 0.984 . S
H899 N886 0.985 . S
C900 C901 1.363 . S
C900 C906 1.379 . S
C900 N908 1.356 . S
C901 C900 1.363 . S
C901 C907 1.363 . S
C902 C903 1.363 . S
C902 C907 1.379 . S
C902 N909 1.356 . S
C903 C902 1.363 . S
C903 C906 1.363 . S
N904 C906 1.356 . S
N904 H916 0.984 . S
N904 H917 0.985 . S
N905 C907 1.356 . S
N905 H910 0.984 . S
N905 H911 0.985 . S
C906 C900 1.379 . S
C906 C903 1.363 . S
C906 N904 1.356 . S
C907 C901 1.363 . S
C907 C902 1.379 . S
C907 N905 1.356 . S
N908 C900 1.356 . S
N908 H914 0.984 . S
N908 H915 0.984 . S
N909 C902 1.356 . S
N909 H912 0.984 . S
N909 H913 0.985 . S
H910 N905 0.984 . S
H911 N905 0.985 . S
H912 N909 0.984 . S
H913 N909 0.985 . S
H914 N908 0.984 . S
H915 N908 0.984 . S
H916 N904 0.984 . S
H917 N904 0.985 . S
C918 C919 1.363 . S
C918 C924 1.379 . S
C918 N926 1.356 . S
C919 C918 1.363 . S
C919 C925 1.363 . S
C920 C921 1.363 . S
C920 C925 1.379 . S
C920 N927 1.356 . S
C921 C920 1.363 . S
C921 C924 1.363 . S
N922 C924 1.356 . S
N922 H934 0.984 . S
N922 H935 0.985 . S
N923 C925 1.356 . S
N923 H928 0.984 . S
N923 H929 0.985 . S
C924 C918 1.379 . S
C924 C921 1.363 . S
C924 N922 1.356 . S
C925 C919 1.363 . S
C925 C920 1.379 . S
C925 N923 1.356 . S
N926 C918 1.356 . S
N926 H932 0.984 . S
N926 H933 0.984 . S
N927 C920 1.356 . S
N927 H930 0.984 . S
N927 H931 0.985 . S
H928 N923 0.984 . S
H929 N923 0.985 . S
H930 N927 0.984 . S
H931 N927 0.985 . S
H932 N926 0.984 . S
H933 N926 0.984 . S
H934 N922 0.984 . S
H935 N922 0.985 . S
C936 C937 1.363 . S
C936 C942 1.379 . S
C936 N944 1.356 . S
C937 C936 1.363 . S
C937 C943 1.363 . S
C938 C939 1.363 . S
C938 C943 1.379 . S
C938 N945 1.356 . S
C939 C938 1.363 . S
C939 C942 1.363 . S
N940 C942 1.356 . S
N940 H952 0.984 . S
N940 H953 0.985 . S
N941 C943 1.356 . S
N941 H946 0.984 . S
N941 H947 0.985 . S
C942 C936 1.379 . S
C942 C939 1.363 . S
C942 N940 1.356 . S
C943 C937 1.363 . S
C943 C938 1.379 . S
C943 N941 1.356 . S
N944 C936 1.356 . S
N944 H950 0.984 . S
N944 H951 0.984 . S
N945 C938 1.356 . S
N945 H948 0.984 . S
N945 H949 0.985 . S
H946 N941 0.984 . S
H947 N941 0.985 . S
H948 N945 0.984 . S
H949 N945 0.985 . S
H950 N944 0.984 . S
H951 N944 0.984 . S
H952 N940 0.984 . S
H953 N940 0.985 . S
C954 C955 1.363 . S
C954 C960 1.379 . S
C954 N962 1.356 . S
C955 C954 1.363 . S
C955 C961 1.363 . S
C956 C957 1.363 . S
C956 C961 1.379 . S
C956 N963 1.356 . S
C957 C956 1.363 . S
C957 C960 1.363 . S
N958 C960 1.356 . S
N958 H970 0.984 . S
N958 H971 0.985 . S
N959 C961 1.356 . S
N959 H964 0.984 . S
N959 H965 0.985 . S
C960 C954 1.379 . S
C960 C957 1.363 . S
C960 N958 1.356 . S
C961 C955 1.363 . S
C961 C956 1.379 . S
C961 N959 1.356 . S
N962 C954 1.356 . S
N962 H968 0.984 . S
N962 H969 0.984 . S
N963 C956 1.356 . S
N963 H966 0.984 . S
N963 H967 0.985 . S
H964 N959 0.984 . S
H965 N959 0.985 . S
H966 N963 0.984 . S
H967 N963 0.985 . S
H968 N962 0.984 . S
H969 N962 0.984 . S
H970 N958 0.984 . S
H971 N958 0.985 . S
C972 C973 1.363 . S
C972 C978 1.379 . S
C972 N980 1.356 . S
C973 C972 1.363 . S
C973 C979 1.363 . S
C974 C975 1.363 . S
C974 C979 1.379 . S
C974 N981 1.356 . S
C975 C974 1.363 . S
C975 C978 1.363 . S
N976 C978 1.356 . S
N976 H988 0.984 . S
N976 H989 0.985 . S
N977 C979 1.356 . S
N977 H982 0.984 . S
N977 H983 0.985 . S
C978 C972 1.379 . S
C978 C975 1.363 . S
C978 N976 1.356 . S
C979 C973 1.363 . S
C979 C974 1.379 . S
C979 N977 1.356 . S
N980 C972 1.356 . S
N980 H986 0.984 . S
N980 H987 0.984 . S
N981 C974 1.356 . S
N981 H984 0.984 . S
N981 H985 0.985 . S
H982 N977 0.984 . S
H983 N977 0.985 . S
H984 N981 0.984 . S
H985 N981 0.985 . S
H986 N980 0.984 . S
H987 N980 0.984 . S
H988 N976 0.984 . S
H989 N976 0.985 . S
C990 C991 1.363 . S
C990 C996 1.379 . S
C990 N998 1.356 . S
C991 C990 1.363 . S
C991 C997 1.363 . S
C992 C993 1.363 . S
C992 C997 1.379 . S
C992 N999 1.356 . S
C993 C992 1.363 . S
C993 C996 1.363 . S
N994 C996 1.356 . S
N994 H1006 0.984 . S
N994 H1007 0.985 . S
N995 C997 1.356 . S
N995 H1000 0.984 . S
N995 H1001 0.985 . S
C996 C990 1.379 . S
C996 C993 1.363 . S
C996 N994 1.356 . S
C997 C991 1.363 . S
C997 C992 1.379 . S
C997 N995 1.356 . S
N998 C990 1.356 . S
N998 H1004 0.984 . S
N998 H1005 0.984 . S
N999 C992 1.356 . S
N999 H1002 0.984 . S
N999 H1003 0.985 . S
H1000 N995 0.984 . S
H1001 N995 0.985 . S
H1002 N999 0.984 . S
H1003 N999 0.985 . S
H1004 N998 0.984 . S
H1005 N998 0.984 . S
H1006 N994 0.984 . S
H1007 N994 0.985 . S
C1008 C1009 1.363 . S
C1008 C1014 1.379 . S
C1008 N1016 1.356 . S
C1009 C1008 1.363 . S
C1009 C1015 1.363 . S
C1010 C1011 1.363 . S
C1010 C1015 1.379 . S
C1010 N1017 1.356 . S
C1011 C1010 1.363 . S
C1011 C1014 1.363 . S
N1012 C1014 1.356 . S
N1012 H1024 0.984 . S
N1012 H1025 0.985 . S
N1013 C1015 1.356 . S
N1013 H1018 0.984 . S
N1013 H1019 0.985 . S
C1014 C1008 1.379 . S
C1014 C1011 1.363 . S
C1014 N1012 1.356 . S
C1015 C1009 1.363 . S
C1015 C1010 1.379 . S
C1015 N1013 1.356 . S
N1016 C1008 1.356 . S
N1016 H1022 0.984 . S
N1016 H1023 0.984 . S
N1017 C1010 1.356 . S
N1017 H1020 0.984 . S
N1017 H1021 0.985 . S
H1018 N1013 0.984 . S
H1019 N1013 0.985 . S
H1020 N1017 0.984 . S
H1021 N1017 0.985 . S
H1022 N1016 0.984 . S
H1023 N1016 0.984 . S
H1024 N1012 0.984 . S
H1025 N1012 0.985 . S
C1026 C1027 1.363 . S
C1026 C1032 1.379 . S
C1026 N1034 1.356 . S
C1027 C1026 1.363 . S
C1027 C1033 1.363 . S
C1028 C1029 1.363 . S
C1028 C1033 1.379 . S
C1028 N1035 1.356 . S
C1029 C1028 1.363 . S
C1029 C1032 1.363 . S
N1030 C1032 1.356 . S
N1030 H1042 0.984 . S
N1030 H1043 0.985 . S
N1031 C1033 1.356 . S
N1031 H1036 0.984 . S
N1031 H1037 0.985 . S
C1032 C1026 1.379 . S
C1032 C1029 1.363 . S
C1032 N1030 1.356 . S
C1033 C1027 1.363 . S
C1033 C1028 1.379 . S
C1033 N1031 1.356 . S
N1034 C1026 1.356 . S
N1034 H1040 0.984 . S
N1034 H1041 0.984 . S
N1035 C1028 1.356 . S
N1035 H1038 0.984 . S
N1035 H1039 0.985 . S
H1036 N1031 0.984 . S
H1037 N1031 0.985 . S
H1038 N1035 0.984 . S
H1039 N1035 0.985 . S
H1040 N1034 0.984 . S
H1041 N1034 0.984 . S
H1042 N1030 0.984 . S
H1043 N1030 0.985 . S
C1044 C1045 1.363 . S
C1044 C1050 1.379 . S
C1044 N1052 1.356 . S
C1045 C1044 1.363 . S
C1045 C1051 1.363 . S
C1046 C1047 1.363 . S
C1046 C1051 1.379 . S
C1046 N1053 1.356 . S
C1047 C1046 1.363 . S
C1047 C1050 1.363 . S
N1048 C1050 1.356 . S
N1048 H1060 0.984 . S
N1048 H1061 0.985 . S
N1049 C1051 1.356 . S
N1049 H1054 0.984 . S
N1049 H1055 0.985 . S
C1050 C1044 1.379 . S
C1050 C1047 1.363 . S
C1050 N1048 1.356 . S
C1051 C1045 1.363 . S
C1051 C1046 1.379 . S
C1051 N1049 1.356 . S
N1052 C1044 1.356 . S
N1052 H1058 0.984 . S
N1052 H1059 0.984 . S
N1053 C1046 1.356 . S
N1053 H1056 0.984 . S
N1053 H1057 0.985 . S
H1054 N1049 0.984 . S
H1055 N1049 0.985 . S
H1056 N1053 0.984 . S
H1057 N1053 0.985 . S
H1058 N1052 0.984 . S
H1059 N1052 0.984 . S
H1060 N1048 0.984 . S
H1061 N1048 0.985 . S
C1062 C1063 1.363 . S
C1062 C1068 1.379 . S
C1062 N1070 1.356 . S
C1063 C1062 1.363 . S
C1063 C1069 1.363 . S
C1064 C1065 1.363 . S
C1064 C1069 1.379 . S
C1064 N1071 1.356 . S
C1065 C1064 1.363 . S
C1065 C1068 1.363 . S
N1066 C1068 1.356 . S
N1066 H1078 0.984 . S
N1066 H1079 0.985 . S
N1067 C1069 1.356 . S
N1067 H1072 0.984 . S
N1067 H1073 0.985 . S
C1068 C1062 1.379 . S
C1068 C1065 1.363 . S
C1068 N1066 1.356 . S
C1069 C1063 1.363 . S
C1069 C1064 1.379 . S
C1069 N1067 1.356 . S
N1070 C1062 1.356 . S
N1070 H1076 0.984 . S
N1070 H1077 0.984 . S
N1071 C1064 1.356 . S
N1071 H1074 0.984 . S
N1071 H1075 0.985 . S
H1072 N1067 0.984 . S
H1073 N1067 0.985 . S
H1074 N1071 0.984 . S
H1075 N1071 0.985 . S
H1076 N1070 0.984 . S
H1077 N1070 0.984 . S
H1078 N1066 0.984 . S
H1079 N1066 0.985 . S
C1080 C1081 1.363 . S
C1080 C1086 1.379 . S
C1080 N1088 1.356 . S
C1081 C1080 1.363 . S
C1081 C1087 1.363 . S
C1082 C1083 1.363 . S
C1082 C1087 1.379 . S
C1082 N1089 1.356 . S
C1083 C1082 1.363 . S
C1083 C1086 1.363 . S
N1084 C1086 1.356 . S
N1084 H1096 0.984 . S
N1084 H1097 0.985 . S
N1085 C1087 1.356 . S
N1085 H1090 0.984 . S
N1085 H1091 0.985 . S
C1086 C1080 1.379 . S
C1086 C1083 1.363 . S
C1086 N1084 1.356 . S
C1087 C1081 1.363 . S
C1087 C1082 1.379 . S
C1087 N1085 1.356 . S
N1088 C1080 1.356 . S
N1088 H1094 0.984 . S
N1088 H1095 0.984 . S
N1089 C1082 1.356 . S
N1089 H1092 0.984 . S
N1089 H1093 0.985 . S
H1090 N1085 0.984 . S
H1091 N1085 0.985 . S
H1092 N1089 0.984 . S
H1093 N1089 0.985 . S
H1094 N1088 0.984 . S
H1095 N1088 0.984 . S
H1096 N1084 0.984 . S
H1097 N1084 0.985 . S
C1098 C1099 1.363 . S
C1098 C1104 1.379 . S
C1098 N1106 1.356 . S
C1099 C1098 1.363 . S
C1099 C1105 1.363 . S
C1100 C1101 1.363 . S
C1100 C1105 1.379 . S
C1100 N1107 1.356 . S
C1101 C1100 1.363 . S
C1101 C1104 1.363 . S
N1102 C1104 1.356 . S
N1102 H1114 0.984 . S
N1102 H1115 0.985 . S
N1103 C1105 1.356 . S
N1103 H1108 0.984 . S
N1103 H1109 0.985 . S
C1104 C1098 1.379 . S
C1104 C1101 1.363 . S
C1104 N1102 1.356 . S
C1105 C1099 1.363 . S
C1105 C1100 1.379 . S
C1105 N1103 1.356 . S
N1106 C1098 1.356 . S
N1106 H1112 0.984 . S
N1106 H1113 0.984 . S
N1107 C1100 1.356 . S
N1107 H1110 0.984 . S
N1107 H1111 0.985 . S
H1108 N1103 0.984 . S
H1109 N1103 0.985 . S
H1110 N1107 0.984 . S
H1111 N1107 0.985 . S
H1112 N1106 0.984 . S
H1113 N1106 0.984 . S
H1114 N1102 0.984 . S
H1115 N1102 0.985 . S
C1116 C1117 1.363 . S
C1116 C1122 1.379 . S
C1116 N1124 1.356 . S
C1117 C1116 1.363 . S
C1117 C1123 1.363 . S
C1118 C1119 1.363 . S
C1118 C1123 1.379 . S
C1118 N1125 1.356 . S
C1119 C1118 1.363 . S
C1119 C1122 1.363 . S
N1120 C1122 1.356 . S
N1120 H1132 0.984 . S
N1120 H1133 0.985 . S
N1121 C1123 1.356 . S
N1121 H1126 0.984 . S
N1121 H1127 0.985 . S
C1122 C1116 1.379 . S
C1122 C1119 1.363 . S
C1122 N1120 1.356 . S
C1123 C1117 1.363 . S
C1123 C1118 1.379 . S
C1123 N1121 1.356 . S
N1124 C1116 1.356 . S
N1124 H1130 0.984 . S
N1124 H1131 0.984 . S
N1125 C1118 1.356 . S
N1125 H1128 0.984 . S
N1125 H1129 0.985 . S
H1126 N1121 0.984 . S
H1127 N1121 0.985 . S
H1128 N1125 0.984 . S
H1129 N1125 0.985 . S
H1130 N1124 0.984 . S
H1131 N1124 0.984 . S
H1132 N1120 0.984 . S
H1133 N1120 0.985 . S
C1134 C1135 1.363 . S
C1134 C1140 1.379 . S
C1134 N1142 1.356 . S
C1135 C1134 1.363 . S
C1135 C1141 1.363 . S
C1136 C1137 1.363 . S
C1136 C1141 1.379 . S
C1136 N1143 1.356 . S
C1137 C1136 1.363 . S
C1137 C1140 1.363 . S
N1138 C1140 1.356 . S
N1138 H1150 0.984 . S
N1138 H1151 0.985 . S
N1139 C1141 1.356 . S
N1139 H1144 0.984 . S
N1139 H1145 0.985 . S
C1140 C1134 1.379 . S
C1140 C1137 1.363 . S
C1140 N1138 1.356 . S
C1141 C1135 1.363 . S
C1141 C1136 1.379 . S
C1141 N1139 1.356 . S
N1142 C1134 1.356 . S
N1142 H1148 0.984 . S
N1142 H1149 0.984 . S
N1143 C1136 1.356 . S
N1143 H1146 0.984 . S
N1143 H1147 0.985 . S
H1144 N1139 0.984 . S
H1145 N1139 0.985 . S
H1146 N1143 0.984 . S
H1147 N1143 0.985 . S
H1148 N1142 0.984 . S
H1149 N1142 0.984 . S
H1150 N1138 0.984 . S
H1151 N1138 0.985 . S
C1152 C1153 1.363 . S
C1152 C1158 1.379 . S
C1152 N1160 1.356 . S
C1153 C1152 1.363 . S
C1153 C1159 1.363 . S
C1154 C1155 1.363 . S
C1154 C1159 1.379 . S
C1154 N1161 1.356 . S
C1155 C1154 1.363 . S
C1155 C1158 1.363 . S
N1156 C1158 1.356 . S
N1156 H1168 0.984 . S
N1156 H1169 0.985 . S
N1157 C1159 1.356 . S
N1157 H1162 0.984 . S
N1157 H1163 0.985 . S
C1158 C1152 1.379 . S
C1158 C1155 1.363 . S
C1158 N1156 1.356 . S
C1159 C1153 1.363 . S
C1159 C1154 1.379 . S
C1159 N1157 1.356 . S
N1160 C1152 1.356 . S
N1160 H1166 0.984 . S
N1160 H1167 0.984 . S
N1161 C1154 1.356 . S
N1161 H1164 0.984 . S
N1161 H1165 0.985 . S
H1162 N1157 0.984 . S
H1163 N1157 0.985 . S
H1164 N1161 0.984 . S
H1165 N1161 0.985 . S
H1166 N1160 0.984 . S
H1167 N1160 0.984 . S
H1168 N1156 0.984 . S
H1169 N1156 0.985 . S
C1170 C1171 1.363 1_545 S
C1170 C1176 1.379 . S
C1170 N1178 1.356 . S
C1171 C1170 1.363 1_565 S
C1171 C1177 1.363 . S
C1172 C1173 1.363 1_565 S
C1172 C1177 1.379 . S
C1172 N1179 1.356 . S
C1173 C1172 1.363 1_545 S
C1173 C1176 1.363 . S
N1174 C1176 1.356 . S
N1174 H1186 0.984 . S
N1174 H1187 0.985 . S
N1175 C1177 1.356 . S
N1175 H1180 0.984 . S
N1175 H1181 0.985 . S
C1176 C1170 1.379 . S
C1176 C1173 1.363 . S
C1176 N1174 1.356 . S
C1177 C1171 1.363 . S
C1177 C1172 1.379 . S
C1177 N1175 1.356 . S
N1178 C1170 1.356 . S
N1178 H1184 0.984 . S
N1178 H1185 0.984 1_545 S
N1179 C1172 1.356 . S
N1179 H1182 0.984 1_565 S
N1179 H1183 0.985 . S
H1180 N1175 0.984 . S
H1181 N1175 0.985 . S
H1182 N1179 0.984 1_545 S
H1183 N1179 0.985 . S
H1184 N1178 0.984 . S
H1185 N1178 0.984 1_565 S
H1186 N1174 0.984 . S
H1187 N1174 0.985 . S
C1188 C1189 1.363 . S
C1188 C1194 1.379 1_655 S
C1188 N1196 1.356 . S
C1189 C1188 1.363 . S
C1189 C1195 1.363 . S
C1190 C1191 1.363 . S
C1190 C1195 1.379 1_455 S
C1190 N1197 1.356 . S
C1191 C1190 1.363 . S
C1191 C1194 1.363 . S
N1192 C1194 1.356 . S
N1192 H1204 0.984 . S
N1192 H1205 0.985 . S
N1193 C1195 1.356 . S
N1193 H1198 0.984 . S
N1193 H1199 0.985 . S
C1194 C1188 1.379 1_455 S
C1194 C1191 1.363 . S
C1194 N1192 1.356 . S
C1195 C1189 1.363 . S
C1195 C1190 1.379 1_655 S
C1195 N1193 1.356 . S
N1196 C1188 1.356 . S
N1196 H1202 0.984 . S
N1196 H1203 0.984 . S
N1197 C1190 1.356 . S
N1197 H1200 0.984 . S
N1197 H1201 0.985 . S
H1198 N1193 0.984 . S
H1199 N1193 0.985 . S
H1200 N1197 0.984 . S
H1201 N1197 0.985 . S
H1202 N1196 0.984 . S
H1203 N1196 0.984 . S
H1204 N1192 0.984 . S
H1205 N1192 0.985 . S
C1206 C1207 1.363 . S
C1206 C1212 1.379 . S
C1206 N1214 1.356 . S
C1207 C1206 1.363 . S
C1207 C1213 1.363 . S
C1208 C1209 1.363 . S
C1208 C1213 1.379 . S
C1208 N1215 1.356 . S
C1209 C1208 1.363 . S
C1209 C1212 1.363 . S
N1210 C1212 1.356 . S
N1210 H1222 0.984 . S
N1210 H1223 0.985 . S
N1211 C1213 1.356 . S
N1211 H1216 0.984 . S
N1211 H1217 0.985 . S
C1212 C1206 1.379 . S
C1212 C1209 1.363 . S
C1212 N1210 1.356 . S
C1213 C1207 1.363 . S
C1213 C1208 1.379 . S
C1213 N1211 1.356 . S
N1214 C1206 1.356 . S
N1214 H1220 0.984 . S
N1214 H1221 0.984 . S
N1215 C1208 1.356 . S
N1215 H1218 0.984 . S
N1215 H1219 0.985 . S
H1216 N1211 0.984 . S
H1217 N1211 0.985 . S
H1218 N1215 0.984 . S
H1219 N1215 0.985 . S
H1220 N1214 0.984 . S
H1221 N1214 0.984 . S
H1222 N1210 0.984 . S
H1223 N1210 0.985 . S
C1224 C1225 1.363 1_565 S
C1224 C1230 1.379 . S
C1224 N1232 1.356 . S
C1225 C1224 1.363 1_545 S
C1225 C1231 1.363 . S
C1226 C1227 1.363 1_545 S
C1226 C1231 1.379 . S
C1226 N1233 1.356 . S
C1227 C1226 1.363 1_565 S
C1227 C1230 1.363 . S
N1228 C1230 1.356 . S
N1228 H1240 0.984 . S
N1228 H1241 0.985 . S
N1229 C1231 1.356 . S
N1229 H1234 0.984 . S
N1229 H1235 0.985 . S
C1230 C1224 1.379 . S
C1230 C1227 1.363 . S
C1230 N1228 1.356 . S
C1231 C1225 1.363 . S
C1231 C1226 1.379 . S
C1231 N1229 1.356 . S
N1232 C1224 1.356 . S
N1232 H1238 0.984 . S
N1232 H1239 0.984 1_565 S
N1233 C1226 1.356 . S
N1233 H1236 0.984 1_545 S
N1233 H1237 0.985 . S
H1234 N1229 0.984 . S
H1235 N1229 0.985 . S
H1236 N1233 0.984 1_565 S
H1237 N1233 0.985 . S
H1238 N1232 0.984 . S
H1239 N1232 0.984 1_545 S
H1240 N1228 0.984 . S
H1241 N1228 0.985 . S
C1242 C1243 1.363 . S
C1242 C1248 1.379 1_655 S
C1242 N1250 1.356 . S
C1243 C1242 1.363 . S
C1243 C1249 1.363 . S
C1244 C1245 1.363 . S
C1244 C1249 1.379 1_455 S
C1244 N1251 1.356 . S
C1245 C1244 1.363 . S
C1245 C1248 1.363 . S
N1246 C1248 1.356 . S
N1246 H1258 0.984 . S
N1246 H1259 0.985 . S
N1247 C1249 1.356 . S
N1247 H1252 0.984 . S
N1247 H1253 0.985 . S
C1248 C1242 1.379 1_455 S
C1248 C1245 1.363 . S
C1248 N1246 1.356 . S
C1249 C1243 1.363 . S
C1249 C1244 1.379 1_655 S
C1249 N1247 1.356 . S
N1250 C1242 1.356 . S
N1250 H1256 0.984 . S
N1250 H1257 0.984 . S
N1251 C1244 1.356 . S
N1251 H1254 0.984 . S
N1251 H1255 0.985 . S
H1252 N1247 0.984 . S
H1253 N1247 0.985 . S
H1254 N1251 0.984 . S
H1255 N1251 0.985 . S
H1256 N1250 0.984 . S
H1257 N1250 0.984 . S
H1258 N1246 0.984 . S
H1259 N1246 0.985 . S
C1260 C1261 1.363 . S
C1260 C1266 1.379 . S
C1260 N1268 1.356 . S
C1261 C1260 1.363 . S
C1261 C1267 1.363 . S
C1262 C1263 1.363 . S
C1262 C1267 1.379 . S
C1262 N1269 1.356 . S
C1263 C1262 1.363 . S
C1263 C1266 1.363 . S
N1264 C1266 1.356 . S
N1264 H1276 0.984 . S
N1264 H1277 0.985 . S
N1265 C1267 1.356 . S
N1265 H1270 0.984 . S
N1265 H1271 0.985 . S
C1266 C1260 1.379 . S
C1266 C1263 1.363 . S
C1266 N1264 1.356 . S
C1267 C1261 1.363 . S
C1267 C1262 1.379 . S
C1267 N1265 1.356 . S
N1268 C1260 1.356 . S
N1268 H1274 0.984 . S
N1268 H1275 0.984 . S
N1269 C1262 1.356 . S
N1269 H1272 0.984 . S
N1269 H1273 0.985 . S
H1270 N1265 0.984 . S
H1271 N1265 0.985 . S
H1272 N1269 0.984 . S
H1273 N1269 0.985 . S
H1274 N1268 0.984 . S
H1275 N1268 0.984 . S
H1276 N1264 0.984 . S
H1277 N1264 0.985 . S
C1278 C1279 1.363 . S
C1278 C1284 1.379 . S
C1278 N1286 1.356 . S
C1279 C1278 1.363 . S
C1279 C1285 1.363 . S
C1280 C1281 1.363 . S
C1280 C1285 1.379 . S
C1280 N1287 1.356 . S
C1281 C1280 1.363 . S
C1281 C1284 1.363 . S
N1282 C1284 1.356 . S
N1282 H1294 0.984 . S
N1282 H1295 0.985 . S
N1283 C1285 1.356 . S
N1283 H1288 0.984 . S
N1283 H1289 0.985 . S
C1284 C1278 1.379 . S
C1284 C1281 1.363 . S
C1284 N1282 1.356 . S
C1285 C1279 1.363 . S
C1285 C1280 1.379 . S
C1285 N1283 1.356 . S
N1286 C1278 1.356 . S
N1286 H1292 0.984 . S
N1286 H1293 0.984 . S
N1287 C1280 1.356 . S
N1287 H1290 0.984 . S
N1287 H1291 0.985 . S
H1288 N1283 0.984 . S
H1289 N1283 0.985 . S
H1290 N1287 0.984 . S
H1291 N1287 0.985 . S
H1292 N1286 0.984 . S
H1293 N1286 0.984 . S
H1294 N1282 0.984 . S
H1295 N1282 0.985 . S
C1296 C1297 1.363 . S
C1296 C1302 1.379 . S
C1296 N1304 1.356 . S
C1297 C1296 1.363 . S
C1297 C1303 1.363 . S
C1298 C1299 1.363 . S
C1298 C1303 1.379 . S
C1298 N1305 1.356 . S
C1299 C1298 1.363 . S
C1299 C1302 1.363 . S
N1300 C1302 1.356 . S
N1300 H1312 0.984 . S
N1300 H1313 0.985 . S
N1301 C1303 1.356 . S
N1301 H1306 0.984 . S
N1301 H1307 0.985 . S
C1302 C1296 1.379 . S
C1302 C1299 1.363 . S
C1302 N1300 1.356 . S
C1303 C1297 1.363 . S
C1303 C1298 1.379 . S
C1303 N1301 1.356 . S
N1304 C1296 1.356 . S
N1304 H1310 0.984 . S
N1304 H1311 0.984 . S
N1305 C1298 1.356 . S
N1305 H1308 0.984 . S
N1305 H1309 0.985 . S
H1306 N1301 0.984 . S
H1307 N1301 0.985 . S
H1308 N1305 0.984 . S
H1309 N1305 0.985 . S
H1310 N1304 0.984 . S
H1311 N1304 0.984 . S
H1312 N1300 0.984 . S
H1313 N1300 0.985 . S
C1314 C1315 1.363 . S
C1314 C1320 1.379 . S
C1314 N1322 1.356 . S
C1315 C1314 1.363 . S
C1315 C1321 1.363 . S
C1316 C1317 1.363 . S
C1316 C1321 1.379 . S
C1316 N1323 1.356 . S
C1317 C1316 1.363 . S
C1317 C1320 1.363 . S
N1318 C1320 1.356 . S
N1318 H1330 0.984 . S
N1318 H1331 0.985 . S
N1319 C1321 1.356 . S
N1319 H1324 0.996 . S
N1319 H1325 0.985 . S
C1320 C1314 1.379 . S
C1320 C1317 1.363 . S
C1320 N1318 1.356 . S
C1321 C1315 1.363 . S
C1321 C1316 1.379 . S
C1321 N1319 1.356 . S
N1322 C1314 1.356 . S
N1322 H1328 0.984 . S
N1322 H1329 0.984 . S
N1323 C1316 1.356 . S
N1323 H1326 0.984 . S
N1323 H1327 0.985 . S
H1324 N1319 0.996 . S
H1325 N1319 0.985 . S
H1326 N1323 0.984 . S
H1327 N1323 0.985 . S
H1328 N1322 0.984 . S
H1329 N1322 0.984 . S
H1330 N1318 0.984 . S
H1331 N1318 0.985 . S
C1332 C1333 1.363 . S
C1332 C1338 1.379 . S
C1332 N1340 1.356 . S
C1333 C1332 1.363 . S
C1333 C1339 1.363 . S
C1334 C1335 1.363 . S
C1334 C1339 1.379 . S
C1334 N1341 1.356 . S
C1335 C1334 1.363 . S
C1335 C1338 1.363 . S
N1336 C1338 1.356 . S
N1336 H1348 0.984 . S
N1336 H1349 0.985 . S
N1337 C1339 1.356 . S
N1337 H1342 0.984 1_554 S
N1337 H1343 0.985 1_554 S
C1338 C1332 1.379 . S
C1338 C1335 1.363 . S
C1338 N1336 1.356 . S
C1339 C1333 1.363 . S
C1339 C1334 1.379 . S
C1339 N1337 1.356 . S
N1340 C1332 1.356 . S
N1340 H1346 0.984 . S
N1340 H1347 0.984 . S
N1341 C1334 1.356 . S
N1341 H1344 0.984 . S
N1341 H1345 0.985 . S
H1342 N1337 0.984 1_556 S
H1343 N1337 0.985 1_556 S
H1344 N1341 0.984 . S
H1345 N1341 0.985 . S
H1346 N1340 0.984 . S
H1347 N1340 0.984 . S
H1348 N1336 0.984 . S
H1349 N1336 0.985 . S
C1350 C1351 1.363 . S
C1350 C1356 1.379 . S
C1350 N1358 1.356 . S
C1351 C1350 1.363 . S
C1351 C1357 1.363 . S
C1352 C1353 1.363 . S
C1352 C1357 1.379 . S
C1352 N1359 1.356 . S
C1353 C1352 1.363 . S
C1353 C1356 1.363 . S
N1354 C1356 1.356 . S
N1354 H1366 0.984 . S
N1354 H1367 0.985 . S
N1355 C1357 1.356 1_556 S
N1355 H1360 0.984 . S
N1355 H1361 0.985 . S
C1356 C1350 1.379 . S
C1356 C1353 1.363 . S
C1356 N1354 1.356 . S
C1357 C1351 1.363 . S
C1357 C1352 1.379 . S
C1357 N1355 1.356 1_554 S
N1358 C1350 1.356 . S
N1358 H1364 0.984 . S
N1358 H1365 0.984 . S
N1359 C1352 1.356 . S
N1359 H1362 0.984 . S
N1359 H1363 0.985 . S
H1360 N1355 0.984 . S
H1361 N1355 0.985 . S
H1362 N1359 0.984 . S
H1363 N1359 0.985 . S
H1364 N1358 0.984 . S
H1365 N1358 0.984 . S
H1366 N1354 0.984 . S
H1367 N1354 0.985 . S
C1368 C1369 1.363 . S
C1368 C1374 1.379 . S
C1368 N1376 1.356 1_556 S
C1369 C1368 1.363 . S
C1369 C1375 1.363 . S
C1370 C1371 1.363 . S
C1370 C1375 1.379 . S
C1370 N1377 1.356 . S
C1371 C1370 1.363 . S
C1371 C1374 1.363 . S
N1372 C1374 1.356 . S
N1372 H1384 0.984 . S
N1372 H1385 0.985 . S
N1373 C1375 1.356 . S
N1373 H1378 0.984 . S
N1373 H1379 0.985 . S
C1374 C1368 1.379 . S
C1374 C1371 1.363 . S
C1374 N1372 1.356 . S
C1375 C1369 1.363 . S
C1375 C1370 1.379 . S
C1375 N1373 1.356 . S
N1376 C1368 1.356 1_554 S
N1376 H1382 0.984 . S
N1376 H1383 0.984 . S
N1377 C1370 1.356 . S
N1377 H1380 0.984 . S
N1377 H1381 0.985 . S
H1378 N1373 0.984 . S
H1379 N1373 0.985 . S
H1380 N1377 0.984 . S
H1381 N1377 0.985 . S
H1382 N1376 0.984 . S
H1383 N1376 0.984 . S
H1384 N1372 0.984 . S
H1385 N1372 0.985 . S
C1386 C1387 1.363 . S
C1386 C1392 1.379 . S
C1386 N1394 1.356 . S
C1387 C1386 1.363 . S
C1387 C1393 1.363 . S
C1388 C1389 1.363 . S
C1388 C1393 1.379 . S
C1388 N1395 1.349 1_556 S
C1389 C1388 1.363 . S
C1389 C1392 1.363 . S
N1390 C1392 1.356 . S
N1390 H1402 0.984 . S
N1390 H1403 0.985 . S
N1391 C1393 1.356 . S
N1391 H1396 0.984 . S
N1391 H1397 0.985 . S
C1392 C1386 1.379 . S
C1392 C1389 1.363 . S
C1392 N1390 1.356 . S
C1393 C1387 1.363 . S
C1393 C1388 1.379 . S
C1393 N1391 1.356 . S
N1394 C1386 1.356 . S
N1394 H1400 0.984 . S
N1394 H1401 0.984 . S
N1395 C1388 1.349 1_554 S
N1395 H1398 0.988 . S
N1395 H1399 0.988 . S
H1396 N1391 0.984 . S
H1397 N1391 0.985 . S
H1398 N1395 0.988 . S
H1399 N1395 0.988 . S
H1400 N1394 0.984 . S
H1401 N1394 0.984 . S
H1402 N1390 0.984 . S
H1403 N1390 0.985 . S
C1404 C1405 1.363 . S
C1404 C1410 1.379 . S
C1404 N1412 1.356 . S
C1405 C1404 1.363 . S
C1405 C1411 1.363 . S
C1406 C1407 1.363 . S
C1406 C1411 1.379 . S
C1406 N1413 1.356 . S
C1407 C1406 1.363 . S
C1407 C1410 1.363 . S
N1408 C1410 1.356 . S
N1408 H1420 0.984 . S
N1408 H1421 0.985 . S
N1409 C1411 1.356 . S
N1409 H1414 0.984 . S
N1409 H1415 0.985 . S
C1410 C1404 1.379 . S
C1410 C1407 1.363 . S
C1410 N1408 1.356 . S
C1411 C1405 1.363 . S
C1411 C1406 1.379 . S
C1411 N1409 1.356 . S
N1412 C1404 1.356 . S
N1412 H1418 0.984 . S
N1412 H1419 0.984 . S
N1413 C1406 1.356 . S
N1413 H1416 0.984 . S
N1413 H1417 0.985 . S
H1414 N1409 0.984 . S
H1415 N1409 0.985 . S
H1416 N1413 0.984 . S
H1417 N1413 0.985 . S
H1418 N1412 0.984 . S
H1419 N1412 0.984 . S
H1420 N1408 0.984 . S
H1421 N1408 0.985 . S
C1422 C1423 1.363 . S
C1422 C1428 1.379 . S
C1422 N1430 1.356 . S
C1423 C1422 1.363 . S
C1423 C1429 1.363 . S
C1424 C1425 1.363 . S
C1424 C1429 1.379 . S
C1424 N1431 1.356 . S
C1425 C1424 1.363 . S
C1425 C1428 1.363 . S
N1426 C1428 1.356 . S
N1426 H1438 0.984 . S
N1426 H1439 0.985 . S
N1427 C1429 1.356 . S
N1427 H1432 0.984 . S
N1427 H1433 0.985 . S
C1428 C1422 1.379 . S
C1428 C1425 1.363 . S
C1428 N1426 1.356 . S
C1429 C1423 1.363 . S
C1429 C1424 1.379 . S
C1429 N1427 1.356 . S
N1430 C1422 1.356 . S
N1430 H1436 0.984 . S
N1430 H1437 0.984 . S
N1431 C1424 1.356 . S
N1431 H1434 0.984 . S
N1431 H1435 0.985 . S
H1432 N1427 0.984 . S
H1433 N1427 0.985 . S
H1434 N1431 0.984 . S
H1435 N1431 0.985 . S
H1436 N1430 0.984 . S
H1437 N1430 0.984 . S
H1438 N1426 0.984 . S
H1439 N1426 0.985 . S
C1440 C1441 1.363 . S
C1440 C1446 1.379 . S
C1440 N1448 1.356 . S
C1441 C1440 1.363 . S
C1441 C1447 1.363 . S
C1442 C1443 1.363 . S
C1442 C1447 1.379 . S
C1442 N1449 1.356 . S
C1443 C1442 1.363 . S
C1443 C1446 1.363 . S
N1444 C1446 1.356 . S
N1444 H1456 0.984 . S
N1444 H1457 0.985 . S
N1445 C1447 1.356 . S
N1445 H1450 0.984 . S
N1445 H1451 0.985 . S
C1446 C1440 1.379 . S
C1446 C1443 1.363 . S
C1446 N1444 1.356 . S
C1447 C1441 1.363 . S
C1447 C1442 1.379 . S
C1447 N1445 1.356 . S
N1448 C1440 1.356 . S
N1448 H1454 0.984 . S
N1448 H1455 0.984 . S
N1449 C1442 1.356 . S
N1449 H1452 0.984 . S
N1449 H1453 0.985 . S
H1450 N1445 0.984 . S
H1451 N1445 0.985 . S
H1452 N1449 0.984 . S
H1453 N1449 0.985 . S
H1454 N1448 0.984 . S
H1455 N1448 0.984 . S
H1456 N1444 0.984 . S
H1457 N1444 0.985 . S
C1458 C1459 1.363 . S
C1458 C1464 1.379 . S
C1458 N1466 1.356 . S
C1459 C1458 1.363 . S
C1459 C1465 1.363 . S
C1460 C1461 1.363 . S
C1460 C1465 1.379 . S
C1460 N1467 1.356 . S
C1461 C1460 1.363 . S
C1461 C1464 1.363 . S
N1462 C1464 1.356 . S
N1462 H1474 0.984 . S
N1462 H1475 0.985 . S
N1463 C1465 1.356 . S
N1463 H1468 0.984 . S
N1463 H1469 0.985 . S
C1464 C1458 1.379 . S
C1464 C1461 1.363 . S
C1464 N1462 1.356 . S
C1465 C1459 1.363 . S
C1465 C1460 1.379 . S
C1465 N1463 1.356 . S
N1466 C1458 1.356 . S
N1466 H1472 0.984 . S
N1466 H1473 0.984 . S
N1467 C1460 1.356 . S
N1467 H1470 0.984 . S
N1467 H1471 0.985 . S
H1468 N1463 0.984 . S
H1469 N1463 0.985 . S
H1470 N1467 0.984 . S
H1471 N1467 0.985 . S
H1472 N1466 0.984 . S
H1473 N1466 0.984 . S
H1474 N1462 0.984 . S
H1475 N1462 0.985 . S
C1476 C1477 1.363 . S
C1476 C1482 1.379 . S
C1476 N1484 1.356 . S
C1477 C1476 1.363 . S
C1477 C1483 1.363 . S
C1478 C1479 1.363 . S
C1478 C1483 1.379 . S
C1478 N1485 1.356 . S
C1479 C1478 1.363 . S
C1479 C1482 1.363 . S
N1480 C1482 1.356 . S
N1480 H1492 0.984 . S
N1480 H1493 0.985 . S
N1481 C1483 1.356 . S
N1481 H1486 0.984 . S
N1481 H1487 0.985 . S
C1482 C1476 1.379 . S
C1482 C1479 1.363 . S
C1482 N1480 1.356 . S
C1483 C1477 1.363 . S
C1483 C1478 1.379 . S
C1483 N1481 1.356 . S
N1484 C1476 1.356 . S
N1484 H1490 0.984 . S
N1484 H1491 0.984 . S
N1485 C1478 1.356 . S
N1485 H1488 0.984 . S
N1485 H1489 0.985 . S
H1486 N1481 0.984 . S
H1487 N1481 0.985 . S
H1488 N1485 0.984 . S
H1489 N1485 0.985 . S
H1490 N1484 0.984 . S
H1491 N1484 0.984 . S
H1492 N1480 0.984 . S
H1493 N1480 0.985 . S
C1494 C1495 1.363 . S
C1494 C1500 1.379 . S
C1494 N1502 1.356 . S
C1495 C1494 1.363 . S
C1495 C1501 1.363 . S
C1496 C1497 1.363 . S
C1496 C1501 1.379 . S
C1496 N1503 1.356 . S
C1497 C1496 1.363 . S
C1497 C1500 1.363 . S
N1498 C1500 1.356 . S
N1498 H1510 0.984 . S
N1498 H1511 0.985 . S
N1499 C1501 1.356 . S
N1499 H1504 0.984 . S
N1499 H1505 0.985 . S
C1500 C1494 1.379 . S
C1500 C1497 1.363 . S
C1500 N1498 1.356 . S
C1501 C1495 1.363 . S
C1501 C1496 1.379 . S
C1501 N1499 1.356 . S
N1502 C1494 1.356 . S
N1502 H1508 0.984 . S
N1502 H1509 0.984 . S
N1503 C1496 1.356 . S
N1503 H1506 0.984 . S
N1503 H1507 0.985 . S
H1504 N1499 0.984 . S
H1505 N1499 0.985 . S
H1506 N1503 0.984 . S
H1507 N1503 0.985 . S
H1508 N1502 0.984 . S
H1509 N1502 0.984 . S
H1510 N1498 0.984 . S
H1511 N1498 0.985 . S
C1512 C1513 1.363 . S
C1512 C1518 1.379 . S
C1512 N1520 1.356 . S
C1513 C1512 1.363 . S
C1513 C1519 1.363 . S
C1514 C1515 1.363 . S
C1514 C1519 1.379 . S
C1514 N1521 1.356 . S
C1515 C1514 1.363 . S
C1515 C1518 1.363 . S
N1516 C1518 1.356 . S
N1516 H1528 0.984 . S
N1516 H1529 0.985 . S
N1517 C1519 1.356 . S
N1517 H1522 0.984 . S
N1517 H1523 0.985 . S
C1518 C1512 1.379 . S
C1518 C1515 1.363 . S
C1518 N1516 1.356 . S
C1519 C1513 1.363 . S
C1519 C1514 1.379 . S
C1519 N1517 1.356 . S
N1520 C1512 1.356 . S
N1520 H1526 0.984 . S
N1520 H1527 0.984 . S
N1521 C1514 1.356 . S
N1521 H1524 0.984 . S
N1521 H1525 0.985 . S
H1522 N1517 0.984 . S
H1523 N1517 0.985 . S
H1524 N1521 0.984 . S
H1525 N1521 0.985 . S
H1526 N1520 0.984 . S
H1527 N1520 0.984 . S
H1528 N1516 0.984 . S
H1529 N1516 0.985 . S
C1530 C1531 1.363 . S
C1530 C1536 1.379 . S
C1530 N1538 1.356 . S
C1531 C1530 1.363 . S
C1531 C1537 1.363 . S
C1532 C1533 1.363 . S
C1532 C1537 1.379 . S
C1532 N1539 1.356 . S
C1533 C1532 1.363 . S
C1533 C1536 1.363 . S
N1534 C1536 1.356 . S
N1534 H1546 0.984 . S
N1534 H1547 0.985 . S
N1535 C1537 1.356 . S
N1535 H1540 0.984 . S
N1535 H1541 0.985 . S
C1536 C1530 1.379 . S
C1536 C1533 1.363 . S
C1536 N1534 1.356 . S
C1537 C1531 1.363 . S
C1537 C1532 1.379 . S
C1537 N1535 1.356 . S
N1538 C1530 1.356 . S
N1538 H1544 0.984 . S
N1538 H1545 0.984 . S
N1539 C1532 1.356 . S
N1539 H1542 0.984 . S
N1539 H1543 0.985 . S
H1540 N1535 0.984 . S
H1541 N1535 0.985 . S
H1542 N1539 0.984 . S
H1543 N1539 0.985 . S
H1544 N1538 0.984 . S
H1545 N1538 0.984 . S
H1546 N1534 0.984 . S
H1547 N1534 0.985 . S
C1548 C1549 1.363 . S
C1548 C1554 1.379 . S
C1548 N1556 1.356 . S
C1549 C1548 1.363 . S
C1549 C1555 1.363 . S
C1550 C1551 1.363 . S
C1550 C1555 1.379 . S
C1550 N1557 1.356 . S
C1551 C1550 1.363 . S
C1551 C1554 1.363 . S
N1552 C1554 1.356 . S
N1552 H1564 0.984 . S
N1552 H1565 0.985 . S
N1553 C1555 1.356 . S
N1553 H1558 0.984 . S
N1553 H1559 0.985 . S
C1554 C1548 1.379 . S
C1554 C1551 1.363 . S
C1554 N1552 1.356 . S
C1555 C1549 1.363 . S
C1555 C1550 1.379 . S
C1555 N1553 1.356 . S
N1556 C1548 1.356 . S
N1556 H1562 0.984 . S
N1556 H1563 0.984 . S
N1557 C1550 1.356 . S
N1557 H1560 0.984 . S
N1557 H1561 0.985 . S
H1558 N1553 0.984 . S
H1559 N1553 0.985 . S
H1560 N1557 0.984 . S
H1561 N1557 0.985 . S
H1562 N1556 0.984 . S
H1563 N1556 0.984 . S
H1564 N1552 0.984 . S
H1565 N1552 0.985 . S
C1566 C1567 1.363 . S
C1566 C1572 1.379 . S
C1566 N1574 1.356 . S
C1567 C1566 1.363 . S
C1567 C1573 1.363 . S
C1568 C1569 1.363 . S
C1568 C1573 1.379 . S
C1568 N1575 1.356 . S
C1569 C1568 1.363 . S
C1569 C1572 1.363 . S
N1570 C1572 1.356 . S
N1570 H1582 0.984 . S
N1570 H1583 0.985 . S
N1571 C1573 1.356 . S
N1571 H1576 0.984 . S
N1571 H1577 0.985 . S
C1572 C1566 1.379 . S
C1572 C1569 1.363 . S
C1572 N1570 1.356 . S
C1573 C1567 1.363 . S
C1573 C1568 1.379 . S
C1573 N1571 1.356 . S
N1574 C1566 1.356 . S
N1574 H1580 0.984 . S
N1574 H1581 0.984 . S
N1575 C1568 1.356 . S
N1575 H1578 0.984 . S
N1575 H1579 0.985 . S
H1576 N1571 0.984 . S
H1577 N1571 0.985 . S
H1578 N1575 0.984 . S
H1579 N1575 0.985 . S
H1580 N1574 0.984 . S
H1581 N1574 0.984 . S
H1582 N1570 0.984 . S
H1583 N1570 0.985 . S
C1584 C1585 1.363 . S
C1584 C1590 1.379 . S
C1584 N1592 1.356 . S
C1585 C1584 1.363 . S
C1585 C1591 1.363 . S
C1586 C1587 1.363 . S
C1586 C1591 1.379 . S
C1586 N1593 1.356 . S
C1587 C1586 1.363 . S
C1587 C1590 1.363 . S
N1588 C1590 1.356 . S
N1588 H1600 0.984 . S
N1588 H1601 0.985 . S
N1589 C1591 1.356 . S
N1589 H1594 0.984 . S
N1589 H1595 0.985 . S
C1590 C1584 1.379 . S
C1590 C1587 1.363 . S
C1590 N1588 1.356 . S
C1591 C1585 1.363 . S
C1591 C1586 1.379 . S
C1591 N1589 1.356 . S
N1592 C1584 1.356 . S
N1592 H1598 0.984 . S
N1592 H1599 0.984 . S
N1593 C1586 1.356 . S
N1593 H1596 0.984 . S
N1593 H1597 0.985 . S
H1594 N1589 0.984 . S
H1595 N1589 0.985 . S
H1596 N1593 0.984 . S
H1597 N1593 0.985 . S
H1598 N1592 0.984 . S
H1599 N1592 0.984 . S
H1600 N1588 0.984 . S
H1601 N1588 0.985 . S
C1602 C1603 1.363 . S
C1602 C1608 1.379 . S
C1602 N1610 1.356 . S
C1603 C1602 1.363 . S
C1603 C1609 1.363 . S
C1604 C1605 1.363 . S
C1604 C1609 1.379 . S
C1604 N1611 1.356 . S
C1605 C1604 1.363 . S
C1605 C1608 1.363 . S
N1606 C1608 1.356 . S
N1606 H1618 0.984 . S
N1606 H1619 0.985 . S
N1607 C1609 1.356 . S
N1607 H1612 0.984 . S
N1607 H1613 0.985 . S
C1608 C1602 1.379 . S
C1608 C1605 1.363 . S
C1608 N1606 1.356 . S
C1609 C1603 1.363 . S
C1609 C1604 1.379 . S
C1609 N1607 1.356 . S
N1610 C1602 1.356 . S
N1610 H1616 0.984 . S
N1610 H1617 0.984 . S
N1611 C1604 1.356 . S
N1611 H1614 0.984 . S
N1611 H1615 0.985 . S
H1612 N1607 0.984 . S
H1613 N1607 0.985 . S
H1614 N1611 0.984 . S
H1615 N1611 0.985 . S
H1616 N1610 0.984 . S
H1617 N1610 0.984 . S
H1618 N1606 0.984 . S
H1619 N1606 0.985 . S
C1620 C1621 1.363 . S
C1620 C1626 1.379 . S
C1620 N1628 1.356 . S
C1621 C1620 1.363 . S
C1621 C1627 1.363 . S
C1622 C1623 1.363 . S
C1622 C1627 1.379 . S
C1622 N1629 1.356 . S
C1623 C1622 1.363 . S
C1623 C1626 1.363 . S
N1624 C1626 1.356 . S
N1624 H1636 0.984 . S
N1624 H1637 0.985 . S
N1625 C1627 1.356 . S
N1625 H1630 0.984 . S
N1625 H1631 0.985 . S
C1626 C1620 1.379 . S
C1626 C1623 1.363 . S
C1626 N1624 1.356 . S
C1627 C1621 1.363 . S
C1627 C1622 1.379 . S
C1627 N1625 1.356 . S
N1628 C1620 1.356 . S
N1628 H1634 0.984 . S
N1628 H1635 0.984 . S
N1629 C1622 1.356 . S
N1629 H1632 0.984 . S
N1629 H1633 0.985 . S
H1630 N1625 0.984 . S
H1631 N1625 0.985 . S
H1632 N1629 0.984 . S
H1633 N1629 0.985 . S
H1634 N1628 0.984 . S
H1635 N1628 0.984 . S
H1636 N1624 0.984 . S
H1637 N1624 0.985 . S
C1638 C1639 1.363 . S
C1638 C1644 1.379 . S
C1638 N1646 1.356 . S
C1639 C1638 1.363 . S
C1639 C1645 1.363 . S
C1640 C1641 1.363 . S
C1640 C1645 1.379 . S
C1640 N1647 1.356 . S
C1641 C1640 1.363 . S
C1641 C1644 1.363 . S
N1642 C1644 1.356 . S
N1642 H1654 0.984 . S
N1642 H1655 0.985 . S
N1643 C1645 1.356 . S
N1643 H1648 0.984 . S
N1643 H1649 0.985 . S
C1644 C1638 1.379 . S
C1644 C1641 1.363 . S
C1644 N1642 1.356 . S
C1645 C1639 1.363 . S
C1645 C1640 1.379 . S
C1645 N1643 1.356 . S
N1646 C1638 1.356 . S
N1646 H1652 0.984 . S
N1646 H1653 0.984 . S
N1647 C1640 1.356 . S
N1647 H1650 0.984 . S
N1647 H1651 0.985 . S
H1648 N1643 0.984 . S
H1649 N1643 0.985 . S
H1650 N1647 0.984 . S
H1651 N1647 0.985 . S
H1652 N1646 0.984 . S
H1653 N1646 0.984 . S
H1654 N1642 0.984 . S
H1655 N1642 0.985 . S
C1656 C1657 1.363 . S
C1656 C1662 1.379 . S
C1656 N1664 1.356 . S
C1657 C1656 1.363 . S
C1657 C1663 1.363 . S
C1658 C1659 1.363 . S
C1658 C1663 1.379 . S
C1658 N1665 1.356 . S
C1659 C1658 1.363 . S
C1659 C1662 1.363 . S
N1660 C1662 1.356 . S
N1660 H1672 0.984 . S
N1660 H1673 0.985 . S
N1661 C1663 1.356 . S
N1661 H1666 0.984 . S
N1661 H1667 0.985 . S
C1662 C1656 1.379 . S
C1662 C1659 1.363 . S
C1662 N1660 1.356 . S
C1663 C1657 1.363 . S
C1663 C1658 1.379 . S
C1663 N1661 1.356 . S
N1664 C1656 1.356 . S
N1664 H1670 0.984 . S
N1664 H1671 0.984 . S
N1665 C1658 1.356 . S
N1665 H1668 0.984 . S
N1665 H1669 0.985 . S
H1666 N1661 0.984 . S
H1667 N1661 0.985 . S
H1668 N1665 0.984 . S
H1669 N1665 0.985 . S
H1670 N1664 0.984 . S
H1671 N1664 0.984 . S
H1672 N1660 0.984 . S
H1673 N1660 0.985 . S
C1674 C1675 1.363 . S
C1674 C1680 1.379 . S
C1674 N1682 1.356 . S
C1675 C1674 1.363 . S
C1675 C1681 1.363 . S
C1676 C1677 1.363 . S
C1676 C1681 1.379 . S
C1676 N1683 1.356 . S
C1677 C1676 1.363 . S
C1677 C1680 1.363 . S
N1678 C1680 1.356 . S
N1678 H1690 0.984 . S
N1678 H1691 0.985 . S
N1679 C1681 1.356 . S
N1679 H1684 0.984 . S
N1679 H1685 0.985 . S
C1680 C1674 1.379 . S
C1680 C1677 1.363 . S
C1680 N1678 1.356 . S
C1681 C1675 1.363 . S
C1681 C1676 1.379 . S
C1681 N1679 1.356 . S
N1682 C1674 1.356 . S
N1682 H1688 0.984 . S
N1682 H1689 0.984 . S
N1683 C1676 1.356 . S
N1683 H1686 0.984 . S
N1683 H1687 0.985 . S
H1684 N1679 0.984 . S
H1685 N1679 0.985 . S
H1686 N1683 0.984 . S
H1687 N1683 0.985 . S
H1688 N1682 0.984 . S
H1689 N1682 0.984 . S
H1690 N1678 0.984 . S
H1691 N1678 0.985 . S
C1692 C1693 1.363 . S
C1692 C1698 1.379 1_455 S
C1692 N1700 1.356 . S
C1693 C1692 1.363 . S
C1693 C1699 1.363 . S
C1694 C1695 1.363 . S
C1694 C1699 1.379 1_655 S
C1694 N1701 1.356 . S
C1695 C1694 1.363 . S
C1695 C1698 1.363 . S
N1696 C1698 1.356 . S
N1696 H1708 0.984 . S
N1696 H1709 0.985 . S
N1697 C1699 1.356 . S
N1697 H1702 0.984 . S
N1697 H1703 0.985 . S
C1698 C1692 1.379 1_655 S
C1698 C1695 1.363 . S
C1698 N1696 1.356 . S
C1699 C1693 1.363 . S
C1699 C1694 1.379 1_455 S
C1699 N1697 1.356 . S
N1700 C1692 1.356 . S
N1700 H1706 0.984 . S
N1700 H1707 0.984 . S
N1701 C1694 1.356 . S
N1701 H1704 0.984 . S
N1701 H1705 0.985 . S
H1702 N1697 0.984 . S
H1703 N1697 0.985 . S
H1704 N1701 0.984 . S
H1705 N1701 0.985 . S
H1706 N1700 0.984 . S
H1707 N1700 0.984 . S
H1708 N1696 0.984 . S
H1709 N1696 0.985 . S
C1710 C1711 1.363 . S
C1710 C1716 1.379 . S
C1710 N1718 1.356 . S
C1711 C1710 1.363 . S
C1711 C1717 1.363 . S
C1712 C1713 1.363 . S
C1712 C1717 1.379 . S
C1712 N1719 1.356 . S
C1713 C1712 1.363 . S
C1713 C1716 1.363 . S
N1714 C1716 1.356 . S
N1714 H1726 0.984 . S
N1714 H1727 0.985 . S
N1715 C1717 1.356 . S
N1715 H1720 0.984 . S
N1715 H1721 0.985 . S
C1716 C1710 1.379 . S
C1716 C1713 1.363 . S
C1716 N1714 1.356 . S
C1717 C1711 1.363 . S
C1717 C1712 1.379 . S
C1717 N1715 1.356 . S
N1718 C1710 1.356 . S
N1718 H1724 0.984 . S
N1718 H1725 0.984 . S
N1719 C1712 1.356 . S
N1719 H1722 0.984 . S
N1719 H1723 0.985 . S
H1720 N1715 0.984 . S
H1721 N1715 0.985 . S
H1722 N1719 0.984 . S
H1723 N1719 0.985 . S
H1724 N1718 0.984 . S
H1725 N1718 0.984 . S
H1726 N1714 0.984 . S
H1727 N1714 0.985 . S
C1728 C1729 1.363 . S
C1728 C1734 1.379 1_545 S
C1728 N1736 1.356 . S
C1729 C1728 1.363 . S
C1729 C1735 1.363 . S
C1730 C1731 1.363 . S
C1730 C1735 1.379 1_565 S
C1730 N1737 1.356 . S
C1731 C1730 1.363 . S
C1731 C1734 1.363 . S
N1732 C1734 1.356 . S
N1732 H1744 0.984 . S
N1732 H1745 0.985 . S
N1733 C1735 1.356 . S
N1733 H1738 0.984 . S
N1733 H1739 0.985 . S
C1734 C1728 1.379 1_565 S
C1734 C1731 1.363 . S
C1734 N1732 1.356 . S
C1735 C1729 1.363 . S
C1735 C1730 1.379 1_545 S
C1735 N1733 1.356 . S
N1736 C1728 1.356 . S
N1736 H1742 0.984 . S
N1736 H1743 0.984 . S
N1737 C1730 1.356 . S
N1737 H1740 0.984 . S
N1737 H1741 0.985 . S
H1738 N1733 0.984 . S
H1739 N1733 0.985 . S
H1740 N1737 0.984 . S
H1741 N1737 0.985 . S
H1742 N1736 0.984 . S
H1743 N1736 0.984 . S
H1744 N1732 0.984 . S
H1745 N1732 0.985 . S
C1746 C1747 1.363 1_554 S
C1746 C1752 1.379 1_545 S
C1746 N1754 1.356 . S
C1747 C1746 1.363 1_556 S
C1747 C1753 1.363 . S
C1748 C1749 1.363 1_556 S
C1748 C1753 1.379 1_565 S
C1748 N1755 1.356 . S
C1749 C1748 1.363 1_554 S
C1749 C1752 1.363 . S
N1750 C1752 1.356 . S
N1750 H1762 0.984 . S
N1750 H1763 0.985 . S
N1751 C1753 1.356 . S
N1751 H1756 0.984 . S
N1751 H1757 0.985 . S
C1752 C1746 1.379 1_565 S
C1752 C1749 1.363 . S
C1752 N1750 1.356 . S
C1753 C1747 1.363 . S
C1753 C1748 1.379 1_545 S
C1753 N1751 1.356 . S
N1754 C1746 1.356 . S
N1754 H1760 0.984 . S
N1754 H1761 0.984 . S
N1755 C1748 1.356 . S
N1755 H1758 0.984 . S
N1755 H1759 0.985 . S
H1756 N1751 0.984 . S
H1757 N1751 0.985 . S
H1758 N1755 0.984 . S
H1759 N1755 0.985 . S
H1760 N1754 0.984 . S
H1761 N1754 0.984 . S
H1762 N1750 0.984 . S
H1763 N1750 0.985 . S
C1764 C1765 1.363 1_554 S
C1764 C1770 1.379 1_655 S
C1764 N1772 1.356 . S
C1765 C1764 1.363 1_556 S
C1765 C1771 1.363 . S
C1766 C1767 1.363 1_556 S
C1766 C1771 1.379 1_455 S
C1766 N1773 1.356 . S
C1767 C1766 1.363 1_554 S
C1767 C1770 1.363 . S
N1768 C1770 1.356 . S
N1768 H1780 0.984 . S
N1768 H1781 0.985 . S
N1769 C1771 1.356 . S
N1769 H1774 0.984 . S
N1769 H1775 0.985 . S
C1770 C1764 1.379 1_455 S
C1770 C1767 1.363 . S
C1770 N1768 1.356 . S
C1771 C1765 1.363 . S
C1771 C1766 1.379 1_655 S
C1771 N1769 1.356 . S
N1772 C1764 1.356 . S
N1772 H1778 0.984 . S
N1772 H1779 0.984 . S
N1773 C1766 1.356 . S
N1773 H1776 0.984 . S
N1773 H1777 0.985 . S
H1774 N1769 0.984 . S
H1775 N1769 0.985 . S
H1776 N1773 0.984 . S
H1777 N1773 0.985 . S
H1778 N1772 0.984 . S
H1779 N1772 0.984 . S
H1780 N1768 0.984 . S
H1781 N1768 0.985 . S
C1782 C1783 1.363 . S
C1782 C1788 1.379 . S
C1782 N1790 1.356 . S
C1783 C1782 1.363 . S
C1783 C1789 1.363 1_556 S
C1784 C1785 1.363 . S
C1784 C1789 1.379 . S
C1784 N1791 1.356 . S
C1785 C1784 1.363 . S
C1785 C1788 1.363 1_554 S
N1786 C1788 1.356 . S
N1786 H1798 0.984 . S
N1786 H1799 0.985 . S
N1787 C1789 1.356 . S
N1787 H1792 0.984 . S
N1787 H1793 0.985 . S
C1788 C1782 1.379 . S
C1788 C1785 1.363 1_556 S
C1788 N1786 1.356 . S
C1789 C1783 1.363 1_554 S
C1789 C1784 1.379 . S
C1789 N1787 1.356 . S
N1790 C1782 1.356 . S
N1790 H1796 0.984 . S
N1790 H1797 0.984 . S
N1791 C1784 1.356 . S
N1791 H1794 0.984 . S
N1791 H1795 0.985 . S
H1792 N1787 0.984 . S
H1793 N1787 0.985 . S
H1794 N1791 0.984 . S
H1795 N1791 0.985 . S
H1796 N1790 0.984 . S
H1797 N1790 0.984 . S
H1798 N1786 0.984 . S
H1799 N1786 0.985 . S
C505 C7 1.351 . S
C507 C107 1.332 . S
C523 C21 1.351 . S
C525 C121 1.332 . S
C541 C93 1.332 . S
C543 C35 1.351 . S
C559 C163 1.332 . S
C561 C49 1.351 . S
C577 C63 1.351 . S
C579 C135 1.332 . S
C595 C77 1.351 . S
C597 C149 1.332 . S
C613 C23 1.332 . S
C615 C91 1.351 . S
C631 C37 1.332 . S
C633 C105 1.351 . S
C649 C119 1.351 . S
C651 C9 1.332 . S
C667 C133 1.351 . S
C669 C79 1.332 . S
C685 C51 1.332 . S
C687 C147 1.351 . S
C703 C161 1.351 . S
C705 C65 1.332 . S
C721 C275 1.332 . S
C723 C175 1.351 . S
C739 C189 1.351 . S
C741 C289 1.332 . S
C757 C203 1.351 . S
C759 C261 1.332 . S
C775 C331 1.332 . S
C777 C217 1.351 . S
C793 C231 1.351 . S
C795 C303 1.332 . S
C811 C317 1.332 . S
C813 C245 1.351 . S
C829 C191 1.332 . S
C831 C259 1.351 . S
C847 C273 1.351 . S
C849 C205 1.332 . S
C865 C177 1.332 . S
C867 C287 1.351 . S
C883 C301 1.351 . S
C885 C247 1.332 . S
C901 C315 1.351 . S
C903 C219 1.332 . S
C919 C329 1.351 . S
C921 C233 1.332 . S
C937 C443 1.332 . S
C939 C343 1.351 . S
C955 C457 1.332 . S
C957 C357 1.351 . S
C973 C429 1.332 . S
C975 C371 1.351 . S
C991 C385 1.351 . S
C993 C499 1.332 . S
C1009 C399 1.351 . S
C1011 C471 1.332 . S
C1027 C485 1.332 . S
C1029 C413 1.351 . S
C1045 C427 1.351 . S
C1047 C359 1.332 . S
C1063 C373 1.332 . S
C1065 C441 1.351 . S
C1081 C345 1.332 . S
C1083 C455 1.351 . S
C1099 C469 1.351 . S
C1101 C415 1.332 . S
C1117 C483 1.351 . S
C1119 C387 1.332 . S
C1135 C497 1.351 . S
C1137 C401 1.332 . S
C1153 C50 1.720 . S
C1155 C8 1.720 . S
C1171 C64 1.720 . S
C1173 C22 1.720 . S
C1189 C36 1.720 . S
C1191 C78 1.720 . S
C1207 C134 1.720 . S
C1209 C92 1.720 . S
C1225 C148 1.720 . S
C1227 C106 1.720 . S
C1243 C162 1.720 . S
C1245 C120 1.720 . S
C1261 C218 1.720 . S
C1263 C176 1.720 . S
C1279 C232 1.720 . S
C1281 C190 1.720 . S
C1297 C204 1.720 . S
C1299 C246 1.720 . S
C1315 C302 1.720 . S
C1317 C260 1.720 . S
C1333 C316 1.720 . S
C1335 C274 1.720 . S
C1351 C330 1.720 . S
C1353 C288 1.720 . S
C1369 C386 1.720 . S
C1371 C344 1.720 . S
C1387 C358 1.720 . S
C1389 C400 1.720 . S
C1405 C414 1.720 . S
C1407 C372 1.720 . S
C1423 C428 1.720 . S
C1425 C470 1.720 . S
C1441 C442 1.720 . S
C1443 C484 1.720 . S
C1459 C456 1.720 . S
C1461 C498 1.720 . S
C1477 C6 1.504 . S
C1479 C258 1.504 . S
C1495 C272 1.504 . S
C1497 C20 1.504 . S
C1513 C286 1.504 . S
C1515 C34 1.504 . S
C1531 C468 1.504 . S
C1533 C48 1.504 . S
C1549 C482 1.504 . S
C1551 C62 1.504 . S
C1567 C496 1.504 . S
C1569 C76 1.504 . S
C1585 C90 1.504 . S
C1587 C342 1.504 . S
C1603 C356 1.504 . S
C1605 C104 1.504 . S
C1621 C370 1.504 . S
C1623 C118 1.504 . S
C1639 C132 1.504 . S
C1641 C216 1.504 . S
C1657 C146 1.504 . S
C1659 C230 1.504 . S
C1675 C160 1.504 . S
C1677 C244 1.504 . S
C1693 C426 1.504 . S
C1695 C174 1.504 . S
C1711 C440 1.504 . S
C1713 C188 1.504 . S
C1729 C202 1.504 . S
C1731 C454 1.504 . S
C1747 C300 1.504 . S
C1749 C384 1.504 . S
C1765 C314 1.504 . S
C1767 C398 1.504 . S
C1783 C328 1.504 . S
C1785 C412 1.504 . S
