# Generated by pormake.
# Topology sme, (6)-cn, num edge types: 1
# Building blocks:
#     Node 0, Type 0, BuildingBlock: OJICUG_clean_sbu_0, # of connection points: 6
#     Node 1, Type 0, BuildingBlock: OJICUG_clean_sbu_0, # of connection points: 6
#     Node 2, Type 0, BuildingBlock: OJICUG_clean_sbu_0, # of connection points: 6
#     Node 3, Type 0, BuildingBlock: OJICUG_clean_sbu_0, # of connection points: 6
#     Node 4, Type 0, BuildingBlock: OJICUG_clean_sbu_0, # of connection points: 6
#     Node 5, Type 0, BuildingBlock: OJICUG_clean_sbu_0, # of connection points: 6
#     Node 6, Type 0, BuildingBlock: OJICUG_clean_sbu_0, # of connection points: 6
#     Node 7, Type 0, BuildingBlock: OJICUG_clean_sbu_0, # of connection points: 6
#     Node 8, Type 0, BuildingBlock: OJICUG_clean_sbu_0, # of connection points: 6
#     Node 9, Type 0, BuildingBlock: OJICUG_clean_sbu_0, # of connection points: 6
#     Node 10, Type 0, BuildingBlock: OJICUG_clean_sbu_0, # of connection points: 6
#     Node 11, Type 0, BuildingBlock: OJICUG_clean_sbu_0, # of connection points: 6
#     Node 12, Type 0, BuildingBlock: OJICUG_clean_sbu_0, # of connection points: 6
#     Node 13, Type 0, BuildingBlock: OJICUG_clean_sbu_0, # of connection points: 6
#     Node 14, Type 0, BuildingBlock: OJICUG_clean_sbu_0, # of connection points: 6
#     Node 15, Type 0, BuildingBlock: OJICUG_clean_sbu_0, # of connection points: 6
#     Node 16, Type 0, BuildingBlock: OJICUG_clean_sbu_0, # of connection points: 6
#     Node 17, Type 0, BuildingBlock: OJICUG_clean_sbu_0, # of connection points: 6
#     Edge 18, Type (0, 0), None
#     Edge 19, Type (0, 0), None
#     Edge 20, Type (0, 0), None
#     Edge 21, Type (0, 0), None
#     Edge 22, Type (0, 0), None
#     Edge 23, Type (0, 0), None
#     Edge 24, Type (0, 0), None
#     Edge 25, Type (0, 0), None
#     Edge 26, Type (0, 0), None
#     Edge 27, Type (0, 0), None
#     Edge 28, Type (0, 0), None
#     Edge 29, Type (0, 0), None
#     Edge 30, Type (0, 0), None
#     Edge 31, Type (0, 0), None
#     Edge 32, Type (0, 0), None
#     Edge 33, Type (0, 0), None
#     Edge 34, Type (0, 0), None
#     Edge 35, Type (0, 0), None
#     Edge 36, Type (0, 0), None
#     Edge 37, Type (0, 0), None
#     Edge 38, Type (0, 0), None
#     Edge 39, Type (0, 0), None
#     Edge 40, Type (0, 0), None
#     Edge 41, Type (0, 0), None
#     Edge 42, Type (0, 0), None
#     Edge 43, Type (0, 0), None
#     Edge 44, Type (0, 0), None
#     Edge 45, Type (0, 0), None
#     Edge 46, Type (0, 0), None
#     Edge 47, Type (0, 0), None
#     Edge 48, Type (0, 0), None
#     Edge 49, Type (0, 0), None
#     Edge 50, Type (0, 0), None
#     Edge 51, Type (0, 0), None
#     Edge 52, Type (0, 0), None
#     Edge 53, Type (0, 0), None
#     Edge 54, Type (0, 0), None
#     Edge 55, Type (0, 0), None
#     Edge 56, Type (0, 0), None
#     Edge 57, Type (0, 0), None
#     Edge 58, Type (0, 0), None
#     Edge 59, Type (0, 0), None
#     Edge 60, Type (0, 0), None
#     Edge 61, Type (0, 0), None
#     Edge 62, Type (0, 0), None
#     Edge 63, Type (0, 0), None
#     Edge 64, Type (0, 0), None
#     Edge 65, Type (0, 0), None
#     Edge 66, Type (0, 0), None
#     Edge 67, Type (0, 0), None
#     Edge 68, Type (0, 0), None
#     Edge 69, Type (0, 0), None
#     Edge 70, Type (0, 0), None
#     Edge 71, Type (0, 0), None
# Relax obj value: 0.180
# Max RMSD: 0.201
# Mean RMSD: 0.201
data_MOF--net-sme--node1-OJICUG_clean_sbu_0--edge1-none
_symmetry_space_group_name_H-M    P1
_symmetry_Int_Tables_number       1
_symmetry_cell_setting            triclinic
loop_
_symmetry_equiv_pos_as_xyz
'x, y, z'
_cell_length_a     22.603115
_cell_length_b     22.603338
_cell_length_c     20.585716
_cell_angle_alpha  89.999081
_cell_angle_beta   90.000396
_cell_angle_gamma 120.0012
loop_
_atom_site_label
_atom_site_type_symbol
_atom_site_fract_x
_atom_site_fract_y
_atom_site_fract_z
_atom_type_partial_charge
Sc0 Sc 0.04978 0.35434 0.7259 0.0
Sc1 Sc 0.04942 0.22491 0.64075 0.0
Sc2 Sc 0.05013 0.22526 0.81104 0.0
O3 O 0.04977 0.26693 0.7259 0.0
C4 C 0.17911 0.37451 0.8023 0.0
C5 C 0.11746 0.3729 0.58931 0.0
C6 C 0.14869 0.1955 0.72516 0.0
C7 C 0.92044 0.24518 0.6495 0.0
C8 C 0.9821 0.30522 0.86248 0.0
C9 C 0.95085 0.09659 0.72663 0.0
O10 O 0.15583 0.39758 0.75765 0.0
O11 O 0.12264 0.31992 0.594 0.0
O12 O 0.12022 0.19578 0.77789 0.0
O13 O 0.94372 0.29153 0.69415 0.0
O14 O 0.97692 0.24706 0.85779 0.0
O15 O 0.97933 0.12534 0.6739 0.0
O16 O 0.02024 0.35301 0.82474 0.0
O17 O 0.95942 0.23194 0.61433 0.0
O18 O 0.96626 0.12684 0.78174 0.0
O19 O 0.07931 0.38255 0.62705 0.0
O20 O 0.14013 0.32229 0.83746 0.0
O21 O 0.13328 0.21035 0.67005 0.0
Sc22 Sc 0.88433 0.89366 0.64075 0.0
Sc23 Sc 0.88396 0.89401 0.81105 0.0
Sc24 Sc 0.75489 0.76458 0.7259 0.0
O25 O 0.84231 0.852 0.7259 0.0
C26 C 0.73633 0.81371 0.58931 0.0
C27 C 0.91367 0.02232 0.72517 0.0
C28 C 0.73472 0.87375 0.8023 0.0
C29 C 0.01265 0.92343 0.72663 0.0
C30 C 0.86406 0.74441 0.6495 0.0
C31 C 0.80402 0.74603 0.86248 0.0
O32 O 0.78932 0.87187 0.594 0.0
O33 O 0.91343 0.99358 0.7779 0.0
O34 O 0.71166 0.8274 0.75764 0.0
O35 O 0.9839 0.92315 0.6739 0.0
O36 O 0.81771 0.72134 0.69415 0.0
O37 O 0.86218 0.799 0.85778 0.0
O38 O 0.8773 0.79663 0.61433 0.0
O39 O 0.98239 0.90858 0.78174 0.0
O40 O 0.75622 0.73638 0.82474 0.0
O41 O 0.89889 0.99209 0.67005 0.0
O42 O 0.72669 0.76591 0.62705 0.0
O43 O 0.78693 0.88698 0.83747 0.0
Sc44 Sc 0.34466 0.05946 0.7259 0.0
Sc45 Sc 0.21558 0.05982 0.64074 0.0
Sc46 Sc 0.21523 0.05911 0.81105 0.0
O47 O 0.25724 0.05946 0.72589 0.0
C48 C 0.23549 0.93013 0.8023 0.0
C49 C 0.29553 0.99178 0.58931 0.0
C50 C 0.08692 0.96052 0.72517 0.0
C51 C 0.36483 0.1888 0.64949 0.0
C52 C 0.36321 0.12714 0.86248 0.0
C53 C 0.18587 0.15841 0.72662 0.0
O54 O 0.28183 0.95341 0.75764 0.0
O55 O 0.23737 0.98659 0.59401 0.0
O56 O 0.11566 0.98901 0.77791 0.0
O57 O 0.38789 0.16552 0.69415 0.0
O58 O 0.31024 0.13233 0.85778 0.0
O59 O 0.18611 0.12992 0.67388 0.0
O60 O 0.37285 0.08898 0.82474 0.0
O61 O 0.31262 0.14981 0.61432 0.0
O62 O 0.20065 0.14296 0.78174 0.0
O63 O 0.34333 0.02994 0.62705 0.0
O64 O 0.22226 0.96911 0.83747 0.0
O65 O 0.11715 0.97596 0.67005 0.0
Sc66 Sc 0.04978 0.76458 0.2259 0.0
Sc67 Sc 0.05013 0.89401 0.31104 0.0
Sc68 Sc 0.04942 0.89365 0.14075 0.0
O69 O 0.04978 0.852 0.22589 0.0
C70 C 0.11747 0.81371 0.08931 0.0
C71 C 0.17911 0.87375 0.30229 0.0
C72 C 0.14869 0.02234 0.22516 0.0
C73 C 0.98209 0.74603 0.36248 0.0
C74 C 0.92044 0.74441 0.1495 0.0
C75 C 0.95087 0.92344 0.22662 0.0
O76 O 0.07929 0.76591 0.12704 0.0
O77 O 0.14013 0.88698 0.33746 0.0
O78 O 0.13328 0.99209 0.17005 0.0
O79 O 0.02026 0.7364 0.32476 0.0
O80 O 0.95942 0.79662 0.11433 0.0
O81 O 0.96628 0.90859 0.28173 0.0
O82 O 0.94372 0.72134 0.19416 0.0
O83 O 0.97691 0.79901 0.35777 0.0
O84 O 0.97932 0.92313 0.17388 0.0
O85 O 0.15583 0.8274 0.25763 0.0
O86 O 0.12265 0.87188 0.09401 0.0
O87 O 0.12024 0.99359 0.2779 0.0
Sc88 Sc 0.21522 0.22527 0.31104 0.0
Sc89 Sc 0.21559 0.22492 0.14074 0.0
Sc90 Sc 0.34466 0.35435 0.2259 0.0
O91 O 0.25724 0.26693 0.22589 0.0
C92 C 0.23549 0.37451 0.30229 0.0
C93 C 0.0869 0.19549 0.22516 0.0
C94 C 0.29553 0.37291 0.08932 0.0
C95 C 0.18587 0.09661 0.22661 0.0
C96 C 0.3632 0.30521 0.36248 0.0
C97 C 0.36483 0.24519 0.1495 0.0
O98 O 0.22226 0.3223 0.33746 0.0
O99 O 0.11715 0.21033 0.17005 0.0
O100 O 0.34333 0.38253 0.12704 0.0
O101 O 0.20065 0.12684 0.28173 0.0
O102 O 0.37284 0.35302 0.32476 0.0
O103 O 0.31263 0.23197 0.11432 0.0
O104 O 0.31023 0.24705 0.35778 0.0
O105 O 0.18613 0.12535 0.17387 0.0
O106 O 0.3879 0.29153 0.19416 0.0
O107 O 0.11565 0.19579 0.2779 0.0
O108 O 0.28184 0.39758 0.25763 0.0
O109 O 0.23736 0.31993 0.09402 0.0
Sc110 Sc 0.88396 0.0591 0.31105 0.0
Sc111 Sc 0.88431 0.05982 0.14074 0.0
Sc112 Sc 0.75489 0.05946 0.2259 0.0
O113 O 0.8423 0.05946 0.2259 0.0
C114 C 0.73472 0.93012 0.30229 0.0
C115 C 0.91369 0.96053 0.22517 0.0
C116 C 0.73633 0.99177 0.08932 0.0
C117 C 0.01263 0.1584 0.22661 0.0
C118 C 0.80402 0.12715 0.36248 0.0
C119 C 0.86405 0.1888 0.1495 0.0
O120 O 0.78692 0.96912 0.33747 0.0
O121 O 0.89891 0.97598 0.17005 0.0
O122 O 0.72671 0.02995 0.12704 0.0
O123 O 0.9824 0.14295 0.28173 0.0
O124 O 0.75622 0.08897 0.32476 0.0
O125 O 0.87726 0.14981 0.11432 0.0
O126 O 0.86219 0.13234 0.35777 0.0
O127 O 0.98389 0.12993 0.17387 0.0
O128 O 0.81771 0.16552 0.19416 0.0
O129 O 0.91342 0.98899 0.27791 0.0
O130 O 0.71165 0.9534 0.25763 0.0
O131 O 0.7893 0.98658 0.09403 0.0
Sc132 Sc 0.71644 0.68768 0.05924 0.0
Sc133 Sc 0.71608 0.55825 0.97407 0.0
Sc134 Sc 0.71679 0.55859 0.14437 0.0
O135 O 0.71644 0.60026 0.05922 0.0
C136 C 0.84578 0.70784 0.13563 0.0
C137 C 0.78414 0.70626 0.92267 0.0
C138 C 0.81535 0.52883 0.05848 0.0
C139 C 0.5871 0.57851 -0.01717 0.0
C140 C 0.64875 0.63854 0.19582 0.0
C141 C 0.61752 0.42992 0.05995 0.0
O142 O 0.82249 0.73091 0.09099 0.0
O143 O 0.78929 0.65325 0.92732 0.0
O144 O 0.78688 0.52911 0.11122 0.0
O145 O 0.61039 0.62486 0.02748 0.0
O146 O 0.64358 0.58038 0.19112 0.0
O147 O 0.646 0.45867 0.00722 0.0
O148 O 0.6869 0.68634 0.15808 0.0
O149 O 0.62608 0.56527 0.94766 0.0
O150 O 0.63292 0.46017 0.11506 0.0
O151 O 0.74598 0.71589 0.9604 0.0
O152 O 0.8068 0.65562 0.17079 0.0
O153 O 0.79995 0.54369 0.00337 0.0
Sc154 Sc 0.42156 0.09791 0.05923 0.0
Sc155 Sc 0.55099 0.22699 0.97407 0.0
Sc156 Sc 0.55063 0.22735 0.14437 0.0
O157 O 0.50897 0.18533 0.05922 0.0
C158 C 0.40139 0.20709 0.13563 0.0
C159 C 0.40298 0.14704 0.92267 0.0
C160 C 0.58034 0.35565 0.05849 0.0
C161 C 0.53073 0.07775 -0.01717 0.0
C162 C 0.47069 0.07936 0.19581 0.0
C163 C 0.67932 0.25676 0.05995 0.0
O164 O 0.37832 0.16073 0.09098 0.0
O165 O 0.45598 0.20519 0.92731 0.0
O166 O 0.5801 0.32691 0.11122 0.0
O167 O 0.48437 0.05468 0.02748 0.0
O168 O 0.52885 0.13234 0.19111 0.0
O169 O 0.65057 0.25648 0.00722 0.0
O170 O 0.42289 0.06972 0.15808 0.0
O171 O 0.54397 0.12997 0.94766 0.0
O172 O 0.64906 0.24191 0.11506 0.0
O173 O 0.39335 0.09924 0.9604 0.0
O174 O 0.45361 0.22031 0.1708 0.0
O175 O 0.56555 0.32542 0.00337 0.0
Sc176 Sc 0.01133 0.3928 0.05923 0.0
Sc177 Sc 0.88225 0.39315 0.97407 0.0
Sc178 Sc 0.88189 0.39244 0.14437 0.0
O179 O 0.92391 0.39279 0.05922 0.0
C180 C 0.90215 0.26346 0.13563 0.0
C181 C 0.9622 0.32509 0.92267 0.0
C182 C 0.75359 0.29385 0.05849 0.0
C183 C 0.0315 0.52213 -0.01717 0.0
C184 C 0.02988 0.46048 0.19581 0.0
C185 C 0.85253 0.49174 0.05994 0.0
O186 O 0.94851 0.28674 0.09098 0.0
O187 O 0.90404 0.31994 0.92732 0.0
O188 O 0.78232 0.32234 0.11123 0.0
O189 O 0.05456 0.49885 0.02748 0.0
O190 O 0.9769 0.46567 0.19111 0.0
O191 O 0.85278 0.46325 0.00721 0.0
O192 O 0.03952 0.42233 0.15808 0.0
O193 O 0.97929 0.48315 0.94765 0.0
O194 O 0.86732 0.4763 0.11506 0.0
O195 O 0.01001 0.36327 0.9604 0.0
O196 O 0.88893 0.30245 0.1708 0.0
O197 O 0.78382 0.30929 0.00337 0.0
Sc198 Sc 0.7168 0.22735 0.64437 0.0
Sc199 Sc 0.71608 0.22699 0.47407 0.0
Sc200 Sc 0.71644 0.09791 0.55923 0.0
O201 O 0.71644 0.18533 0.55922 0.0
C202 C 0.84578 0.20709 0.63562 0.0
C203 C 0.81535 0.35567 0.55848 0.0
C204 C 0.78415 0.14704 0.42267 0.0
C205 C 0.61754 0.25677 0.55994 0.0
C206 C 0.64875 0.07936 0.69582 0.0
C207 C 0.5871 0.07774 0.48284 0.0
O208 O 0.80679 0.22031 0.67079 0.0
O209 O 0.79994 0.32542 0.50337 0.0
O210 O 0.74596 0.09923 0.46038 0.0
O211 O 0.63294 0.24192 0.61506 0.0
O212 O 0.68692 0.06973 0.65809 0.0
O213 O 0.62609 0.12995 0.44766 0.0
O214 O 0.64357 0.13234 0.69111 0.0
O215 O 0.64599 0.25647 0.50721 0.0
O216 O 0.61039 0.05468 0.52749 0.0
O217 O 0.7869 0.32692 0.61122 0.0
O218 O 0.8225 0.16073 0.59097 0.0
O219 O 0.7893 0.2052 0.42733 0.0
Sc220 Sc 0.88189 0.5586 0.64437 0.0
Sc221 Sc 0.88226 0.55826 0.47407 0.0
Sc222 Sc 0.01133 0.68768 0.55924 0.0
O223 O 0.92391 0.60027 0.55922 0.0
C224 C 0.90215 0.70784 0.63562 0.0
C225 C 0.75357 0.52882 0.55848 0.0
C226 C 0.9622 0.70626 0.42268 0.0
C227 C 0.85253 0.42994 0.55993 0.0
C228 C 0.02987 0.63854 0.69582 0.0
C229 C 0.0315 0.57852 0.48284 0.0
O230 O 0.88892 0.65563 0.67079 0.0
O231 O 0.78382 0.54366 0.50337 0.0
O232 O 0.01001 0.71588 0.46038 0.0
O233 O 0.86732 0.46017 0.61506 0.0
O234 O 0.03951 0.68634 0.65809 0.0
O235 O 0.9793 0.56531 0.44765 0.0
O236 O 0.97689 0.58038 0.69111 0.0
O237 O 0.8528 0.45868 0.5072 0.0
O238 O 0.05456 0.62486 0.5275 0.0
O239 O 0.78232 0.52913 0.61122 0.0
O240 O 0.94851 0.73092 0.59097 0.0
O241 O 0.90404 0.65326 0.42734 0.0
Sc242 Sc 0.55063 0.39244 0.64437 0.0
Sc243 Sc 0.55098 0.39316 0.47407 0.0
Sc244 Sc 0.42155 0.3928 0.55924 0.0
O245 O 0.50897 0.39279 0.55922 0.0
C246 C 0.40139 0.26346 0.63562 0.0
C247 C 0.58036 0.29386 0.55849 0.0
C248 C 0.40298 0.32509 0.42268 0.0
C249 C 0.67929 0.49173 0.55993 0.0
C250 C 0.4707 0.46049 0.69581 0.0
C251 C 0.53072 0.52213 0.48284 0.0
O252 O 0.45359 0.30245 0.6708 0.0
O253 O 0.56557 0.30931 0.50337 0.0
O254 O 0.39336 0.36329 0.46038 0.0
O255 O 0.64907 0.47629 0.61506 0.0
O256 O 0.42289 0.42231 0.65809 0.0
O257 O 0.54393 0.48314 0.44766 0.0
O258 O 0.52886 0.46568 0.6911 0.0
O259 O 0.65055 0.46326 0.5072 0.0
O260 O 0.48438 0.49885 0.5275 0.0
O261 O 0.58009 0.32233 0.61123 0.0
O262 O 0.37832 0.28674 0.59097 0.0
O263 O 0.45597 0.31992 0.42734 0.0
Sc264 Sc 0.38311 0.02101 0.39256 0.0
Sc265 Sc 0.38275 0.89158 0.30741 0.0
Sc266 Sc 0.38346 0.89193 0.47771 0.0
O267 O 0.38311 0.9336 0.39256 0.0
C268 C 0.51245 0.04117 0.46896 0.0
C269 C 0.45082 0.03959 0.256 0.0
C270 C 0.48202 0.86217 0.39182 0.0
C271 C 0.25377 0.91184 0.31616 0.0
C272 C 0.31541 0.97188 0.52912 0.0
C273 C 0.28419 0.76325 0.3933 0.0
O274 O 0.48916 0.06425 0.42432 0.0
O275 O 0.45596 0.98659 0.26065 0.0
O276 O 0.45354 0.86244 0.44456 0.0
O277 O 0.27706 0.9582 0.36081 0.0
O278 O 0.31026 0.91373 0.52448 0.0
O279 O 0.31267 0.792 0.34056 0.0
O280 O 0.35357 0.01968 0.4914 0.0
O281 O 0.29275 0.8986 0.281 0.0
O282 O 0.29959 0.79351 0.44841 0.0
O283 O 0.41265 0.04923 0.29373 0.0
O284 O 0.47347 0.98895 0.50413 0.0
O285 O 0.46662 0.87702 0.33672 0.0
Sc286 Sc 0.21766 0.56033 0.30741 0.0
Sc287 Sc 0.2173 0.56068 0.47772 0.0
Sc288 Sc 0.08822 0.43125 0.39256 0.0
O289 O 0.17564 0.51866 0.39256 0.0
C290 C 0.06965 0.48038 0.256 0.0
C291 C 0.24701 0.68898 0.39184 0.0
C292 C 0.06806 0.54042 0.46896 0.0
C293 C 0.34598 0.59009 0.3933 0.0
C294 C 0.1974 0.41108 0.31616 0.0
C295 C 0.13735 0.41267 0.52912 0.0
O296 O 0.12265 0.53853 0.26065 0.0
O297 O 0.24677 0.66025 0.44457 0.0
O298 O 0.04499 0.49407 0.42432 0.0
O299 O 0.31723 0.58982 0.34056 0.0
O300 O 0.15104 0.38801 0.36081 0.0
O301 O 0.19551 0.46567 0.52447 0.0
O302 O 0.21064 0.4633 0.281 0.0
O303 O 0.31573 0.57524 0.44841 0.0
O304 O 0.08955 0.40304 0.4914 0.0
O305 O 0.23221 0.65875 0.33671 0.0
O306 O 0.06001 0.43258 0.29373 0.0
O307 O 0.12027 0.55365 0.50414 0.0
Sc308 Sc 0.54892 0.72648 0.30741 0.0
Sc309 Sc 0.54856 0.72577 0.47772 0.0
Sc310 Sc 0.67799 0.72613 0.39256 0.0
O311 O 0.59058 0.72613 0.39256 0.0
C312 C 0.62886 0.65842 0.25601 0.0
C313 C 0.42026 0.62718 0.39184 0.0
C314 C 0.56882 0.59679 0.46896 0.0
C315 C 0.5192 0.82507 0.39329 0.0
C316 C 0.69816 0.85546 0.31616 0.0
C317 C 0.69657 0.79383 0.52912 0.0
O318 O 0.57071 0.65327 0.26066 0.0
O319 O 0.44899 0.65568 0.44457 0.0
O320 O 0.61517 0.62007 0.42431 0.0
O321 O 0.51944 0.79658 0.34055 0.0
O322 O 0.72123 0.83218 0.36081 0.0
O323 O 0.64357 0.79899 0.52447 0.0
O324 O 0.64595 0.81648 0.28099 0.0
O325 O 0.53399 0.80964 0.44841 0.0
O326 O 0.7062 0.75566 0.4914 0.0
O327 O 0.45048 0.64262 0.33671 0.0
O328 O 0.67667 0.6966 0.29373 0.0
O329 O 0.55559 0.63578 0.50413 0.0
Sc330 Sc 0.38311 0.43125 0.89256 0.0
Sc331 Sc 0.38347 0.56068 -0.02229 0.0
Sc332 Sc 0.38275 0.56032 0.80741 0.0
O333 O 0.38311 0.51866 0.89256 0.0
C334 C 0.45082 0.48039 0.75601 0.0
C335 C 0.51245 0.54042 0.96895 0.0
C336 C 0.48202 0.68901 0.89183 0.0
C337 C 0.3154 0.41268 0.02912 0.0
C338 C 0.25377 0.41108 0.81617 0.0
C339 C 0.2842 0.5901 0.89329 0.0
O340 O 0.41263 0.43257 0.79372 0.0
O341 O 0.47346 0.55365 0.00413 0.0
O342 O 0.46662 0.65875 0.83672 0.0
O343 O 0.35359 0.40305 -0.00859 0.0
O344 O 0.29276 0.46329 0.781 0.0
O345 O 0.29961 0.57525 0.9484 0.0
O346 O 0.27706 0.38801 0.86082 0.0
O347 O 0.31025 0.46568 0.02446 0.0
O348 O 0.31266 0.58981 0.84055 0.0
O349 O 0.48916 0.49407 0.92431 0.0
O350 O 0.45597 0.53854 0.76066 0.0
O351 O 0.45356 0.66025 0.94456 0.0
Sc352 Sc 0.54856 0.89194 -0.02229 0.0
Sc353 Sc 0.54892 0.89159 0.80741 0.0
Sc354 Sc 0.678 0.02102 0.89256 0.0
O355 O 0.59058 0.9336 0.89256 0.0
C356 C 0.56882 0.04118 0.96895 0.0
C357 C 0.42023 0.86216 0.89183 0.0
C358 C 0.62886 0.03959 0.75601 0.0
C359 C 0.5192 0.76328 0.89328 0.0
C360 C 0.69656 0.97188 0.02912 0.0
C361 C 0.69816 0.91185 0.81617 0.0
O362 O 0.55559 0.98897 0.00413 0.0
O363 O 0.45049 0.877 0.83671 0.0
O364 O 0.67667 0.04921 0.79371 0.0
O365 O 0.53399 0.79351 0.9484 0.0
O366 O 0.70618 0.01969 -0.00858 0.0
O367 O 0.64596 0.89864 0.78099 0.0
O368 O 0.64356 0.91372 0.02446 0.0
O369 O 0.51946 0.79202 0.84054 0.0
O370 O 0.72123 0.9582 0.86082 0.0
O371 O 0.44899 0.86246 0.94456 0.0
O372 O 0.61517 0.06425 0.92431 0.0
O373 O 0.5707 0.9866 0.76067 0.0
Sc374 Sc 0.2173 0.72577 -0.02229 0.0
Sc375 Sc 0.21765 0.72649 0.80741 0.0
Sc376 Sc 0.08822 0.72613 0.89256 0.0
O377 O 0.17564 0.72613 0.89256 0.0
C378 C 0.06806 0.59679 0.96896 0.0
C379 C 0.24702 0.62719 0.89184 0.0
C380 C 0.06964 0.65841 0.75601 0.0
C381 C 0.34596 0.82507 0.89328 0.0
C382 C 0.13736 0.79384 0.02912 0.0
C383 C 0.19739 0.85546 0.81617 0.0
O384 O 0.12026 0.63578 0.00414 0.0
O385 O 0.23224 0.64264 0.83672 0.0
O386 O 0.06003 0.69661 0.79371 0.0
O387 O 0.31573 0.80963 0.9484 0.0
O388 O 0.08955 0.75564 -0.00858 0.0
O389 O 0.2106 0.81648 0.78099 0.0
O390 O 0.19552 0.799 0.02446 0.0
O391 O 0.31722 0.79659 0.84054 0.0
O392 O 0.15104 0.83219 0.86083 0.0
O393 O 0.24676 0.65567 0.94458 0.0
O394 O 0.04499 0.62007 0.9243 0.0
O395 O 0.12264 0.65325 0.76068 0.0
loop_
_geom_bond_atom_site_label_1
_geom_bond_atom_site_label_2
_geom_bond_distance
_geom_bond_site_symmetry_2
_ccdc_geom_bond_type
Sc0 O3 2.025 . S
Sc0 O10 2.105 . S
Sc0 O13 2.105 1_455 S
Sc0 O16 2.105 . S
Sc0 O19 2.105 . S
Sc1 O3 2.025 . S
Sc1 O11 2.105 . S
Sc1 O15 2.105 1_455 S
Sc1 O17 2.105 1_455 S
Sc1 O21 2.105 . S
Sc2 O3 2.025 . S
Sc2 O12 2.105 . S
Sc2 O14 2.105 . S
Sc2 O18 2.105 1_455 S
Sc2 O20 2.105 . S
O3 Sc0 2.025 . S
O3 Sc1 2.025 . S
O3 Sc2 2.025 . S
C4 O10 1.268 . S
C4 O20 1.268 . S
C5 O11 1.268 . S
C5 O19 1.268 . S
C6 O12 1.268 . S
C6 O21 1.268 . S
C7 O13 1.268 . S
C7 O17 1.268 . S
C8 O14 1.268 1_655 S
C8 O16 1.268 1_655 S
C9 O15 1.268 . S
C9 O18 1.268 . S
O10 Sc0 2.105 . S
O10 C4 1.268 . S
O11 Sc1 2.105 . S
O11 C5 1.268 . S
O12 Sc2 2.105 . S
O12 C6 1.268 . S
O13 Sc0 2.105 1_655 S
O13 C7 1.268 . S
O14 Sc2 2.105 . S
O14 C8 1.268 1_455 S
O15 Sc1 2.105 1_655 S
O15 C9 1.268 . S
O16 Sc0 2.105 . S
O16 C8 1.268 1_455 S
O17 Sc1 2.105 1_655 S
O17 C7 1.268 . S
O18 Sc2 2.105 1_655 S
O18 C9 1.268 . S
O19 Sc0 2.105 . S
O19 C5 1.268 . S
O20 Sc2 2.105 . S
O20 C4 1.268 . S
O21 Sc1 2.105 . S
O21 C6 1.268 . S
Sc22 O25 2.025 . S
Sc22 O32 2.105 . S
Sc22 O35 2.105 1_655 S
Sc22 O38 2.105 . S
Sc22 O41 2.105 . S
Sc23 O25 2.025 . S
Sc23 O33 2.105 1_565 S
Sc23 O37 2.105 . S
Sc23 O39 2.105 . S
Sc23 O43 2.105 . S
Sc24 O25 2.025 . S
Sc24 O34 2.105 . S
Sc24 O36 2.105 . S
Sc24 O40 2.105 . S
Sc24 O42 2.105 . S
O25 Sc22 2.025 . S
O25 Sc23 2.025 . S
O25 Sc24 2.025 . S
C26 O32 1.268 . S
C26 O42 1.268 . S
C27 O33 1.268 . S
C27 O41 1.268 1_545 S
C28 O34 1.268 . S
C28 O43 1.268 . S
C29 O35 1.268 . S
C29 O39 1.268 1_455 S
C30 O36 1.268 . S
C30 O38 1.268 . S
C31 O37 1.268 . S
C31 O40 1.268 . S
O32 Sc22 2.105 . S
O32 C26 1.268 . S
O33 Sc23 2.105 1_545 S
O33 C27 1.268 . S
O34 Sc24 2.105 . S
O34 C28 1.268 . S
O35 Sc22 2.105 1_455 S
O35 C29 1.268 . S
O36 Sc24 2.105 . S
O36 C30 1.268 . S
O37 Sc23 2.105 . S
O37 C31 1.268 . S
O38 Sc22 2.105 . S
O38 C30 1.268 . S
O39 Sc23 2.105 . S
O39 C29 1.268 1_655 S
O40 Sc24 2.105 . S
O40 C31 1.268 . S
O41 Sc22 2.105 . S
O41 C27 1.268 1_565 S
O42 Sc24 2.105 . S
O42 C26 1.268 . S
O43 Sc23 2.105 . S
O43 C28 1.268 . S
Sc44 O47 2.025 . S
Sc44 O54 2.105 1_545 S
Sc44 O57 2.105 . S
Sc44 O60 2.105 . S
Sc44 O63 2.105 . S
Sc45 O47 2.025 . S
Sc45 O55 2.105 . S
Sc45 O59 2.105 . S
Sc45 O61 2.105 . S
Sc45 O65 2.105 . S
Sc46 O47 2.025 . S
Sc46 O56 2.105 1_545 S
Sc46 O58 2.105 . S
Sc46 O62 2.105 . S
Sc46 O64 2.105 1_545 S
O47 Sc44 2.025 . S
O47 Sc45 2.025 . S
O47 Sc46 2.025 . S
C48 O54 1.268 . S
C48 O64 1.268 . S
C49 O55 1.268 1_565 S
C49 O63 1.268 1_565 S
C50 O56 1.268 . S
C50 O65 1.268 1_565 S
C51 O57 1.268 . S
C51 O61 1.268 . S
C52 O58 1.268 . S
C52 O60 1.268 . S
C53 O59 1.268 . S
C53 O62 1.268 . S
O54 Sc44 2.105 1_565 S
O54 C48 1.268 . S
O55 Sc45 2.105 . S
O55 C49 1.268 1_545 S
O56 Sc46 2.105 1_565 S
O56 C50 1.268 . S
O57 Sc44 2.105 . S
O57 C51 1.268 . S
O58 Sc46 2.105 . S
O58 C52 1.268 . S
O59 Sc45 2.105 . S
O59 C53 1.268 . S
O60 Sc44 2.105 . S
O60 C52 1.268 . S
O61 Sc45 2.105 . S
O61 C51 1.268 . S
O62 Sc46 2.105 . S
O62 C53 1.268 . S
O63 Sc44 2.105 . S
O63 C49 1.268 1_545 S
O64 Sc46 2.105 1_565 S
O64 C48 1.268 . S
O65 Sc45 2.105 . S
O65 C50 1.268 1_545 S
Sc66 O69 2.025 . S
Sc66 O76 2.105 . S
Sc66 O79 2.105 . S
Sc66 O82 2.105 1_455 S
Sc66 O85 2.105 . S
Sc67 O69 2.025 . S
Sc67 O77 2.105 . S
Sc67 O81 2.105 1_455 S
Sc67 O83 2.105 . S
Sc67 O87 2.105 1_565 S
Sc68 O69 2.025 . S
Sc68 O78 2.105 . S
Sc68 O80 2.105 1_455 S
Sc68 O84 2.105 1_455 S
Sc68 O86 2.105 . S
O69 Sc66 2.025 . S
O69 Sc67 2.025 . S
O69 Sc68 2.025 . S
C70 O76 1.268 . S
C70 O86 1.268 . S
C71 O77 1.268 . S
C71 O85 1.268 . S
C72 O78 1.268 1_545 S
C72 O87 1.268 . S
C73 O79 1.268 1_655 S
C73 O83 1.268 1_655 S
C74 O80 1.268 . S
C74 O82 1.268 . S
C75 O81 1.268 . S
C75 O84 1.268 . S
O76 Sc66 2.105 . S
O76 C70 1.268 . S
O77 Sc67 2.105 . S
O77 C71 1.268 . S
O78 Sc68 2.105 . S
O78 C72 1.268 1_565 S
O79 Sc66 2.105 . S
O79 C73 1.268 1_455 S
O80 Sc68 2.105 1_655 S
O80 C74 1.268 . S
O81 Sc67 2.105 1_655 S
O81 C75 1.268 . S
O82 Sc66 2.105 1_655 S
O82 C74 1.268 . S
O83 Sc67 2.105 . S
O83 C73 1.268 1_455 S
O84 Sc68 2.105 1_655 S
O84 C75 1.268 . S
O85 Sc66 2.105 . S
O85 C71 1.268 . S
O86 Sc68 2.105 . S
O86 C70 1.268 . S
O87 Sc67 2.105 1_545 S
O87 C72 1.268 . S
Sc88 O91 2.025 . S
Sc88 O98 2.105 . S
Sc88 O101 2.105 . S
Sc88 O104 2.105 . S
Sc88 O107 2.105 . S
Sc89 O91 2.025 . S
Sc89 O99 2.105 . S
Sc89 O103 2.105 . S
Sc89 O105 2.105 . S
Sc89 O109 2.105 . S
Sc90 O91 2.025 . S
Sc90 O100 2.105 . S
Sc90 O102 2.105 . S
Sc90 O106 2.105 . S
Sc90 O108 2.105 . S
O91 Sc88 2.025 . S
O91 Sc89 2.025 . S
O91 Sc90 2.025 . S
C92 O98 1.268 . S
C92 O108 1.268 . S
C93 O99 1.268 . S
C93 O107 1.268 . S
C94 O100 1.268 . S
C94 O109 1.268 . S
C95 O101 1.268 . S
C95 O105 1.268 . S
C96 O102 1.268 . S
C96 O104 1.268 . S
C97 O103 1.268 . S
C97 O106 1.268 . S
O98 Sc88 2.105 . S
O98 C92 1.268 . S
O99 Sc89 2.105 . S
O99 C93 1.268 . S
O100 Sc90 2.105 . S
O100 C94 1.268 . S
O101 Sc88 2.105 . S
O101 C95 1.268 . S
O102 Sc90 2.105 . S
O102 C96 1.268 . S
O103 Sc89 2.105 . S
O103 C97 1.268 . S
O104 Sc88 2.105 . S
O104 C96 1.268 . S
O105 Sc89 2.105 . S
O105 C95 1.268 . S
O106 Sc90 2.105 . S
O106 C97 1.268 . S
O107 Sc88 2.105 . S
O107 C93 1.268 . S
O108 Sc90 2.105 . S
O108 C92 1.268 . S
O109 Sc89 2.105 . S
O109 C94 1.268 . S
Sc110 O113 2.025 . S
Sc110 O120 2.105 1_545 S
Sc110 O123 2.105 . S
Sc110 O126 2.105 . S
Sc110 O129 2.105 1_545 S
Sc111 O113 2.025 . S
Sc111 O121 2.105 . S
Sc111 O125 2.105 . S
Sc111 O127 2.105 1_655 S
Sc111 O131 2.105 . S
Sc112 O113 2.025 . S
Sc112 O122 2.105 . S
Sc112 O124 2.105 . S
Sc112 O128 2.105 . S
Sc112 O130 2.105 1_545 S
O113 Sc110 2.025 . S
O113 Sc111 2.025 . S
O113 Sc112 2.025 . S
C114 O120 1.268 . S
C114 O130 1.268 . S
C115 O121 1.268 1_565 S
C115 O129 1.268 . S
C116 O122 1.268 1_565 S
C116 O131 1.268 1_565 S
C117 O123 1.268 1_455 S
C117 O127 1.268 . S
C118 O124 1.268 . S
C118 O126 1.268 . S
C119 O125 1.268 . S
C119 O128 1.268 . S
O120 Sc110 2.105 1_565 S
O120 C114 1.268 . S
O121 Sc111 2.105 . S
O121 C115 1.268 1_545 S
O122 Sc112 2.105 . S
O122 C116 1.268 1_545 S
O123 Sc110 2.105 . S
O123 C117 1.268 1_655 S
O124 Sc112 2.105 . S
O124 C118 1.268 . S
O125 Sc111 2.105 . S
O125 C119 1.268 . S
O126 Sc110 2.105 . S
O126 C118 1.268 . S
O127 Sc111 2.105 1_455 S
O127 C117 1.268 . S
O128 Sc112 2.105 . S
O128 C119 1.268 . S
O129 Sc110 2.105 1_565 S
O129 C115 1.268 . S
O130 Sc112 2.105 1_565 S
O130 C114 1.268 . S
O131 Sc111 2.105 . S
O131 C116 1.268 1_545 S
Sc132 O135 2.025 . S
Sc132 O142 2.105 . S
Sc132 O145 2.105 . S
Sc132 O148 2.105 . S
Sc132 O151 2.105 1_554 S
Sc133 O135 2.025 1_556 S
Sc133 O143 2.105 . S
Sc133 O147 2.105 1_556 S
Sc133 O149 2.105 . S
Sc133 O153 2.105 1_556 S
Sc134 O135 2.025 . S
Sc134 O144 2.105 . S
Sc134 O146 2.105 . S
Sc134 O150 2.105 . S
Sc134 O152 2.105 . S
O135 Sc132 2.025 . S
O135 Sc133 2.025 1_554 S
O135 Sc134 2.025 . S
C136 O142 1.268 . S
C136 O152 1.268 . S
C137 O143 1.268 . S
C137 O151 1.268 . S
C138 O144 1.268 . S
C138 O153 1.268 . S
C139 O145 1.268 . S
C139 O149 1.268 1_554 S
C140 O146 1.268 . S
C140 O148 1.268 . S
C141 O147 1.268 . S
C141 O150 1.268 . S
O142 Sc132 2.105 . S
O142 C136 1.268 . S
O143 Sc133 2.105 . S
O143 C137 1.268 . S
O144 Sc134 2.105 . S
O144 C138 1.268 . S
O145 Sc132 2.105 . S
O145 C139 1.268 . S
O146 Sc134 2.105 . S
O146 C140 1.268 . S
O147 Sc133 2.105 1_554 S
O147 C141 1.268 . S
O148 Sc132 2.105 . S
O148 C140 1.268 . S
O149 Sc133 2.105 . S
O149 C139 1.268 1_556 S
O150 Sc134 2.105 . S
O150 C141 1.268 . S
O151 Sc132 2.105 1_556 S
O151 C137 1.268 . S
O152 Sc134 2.105 . S
O152 C136 1.268 . S
O153 Sc133 2.105 1_554 S
O153 C138 1.268 . S
Sc154 O157 2.025 . S
Sc154 O164 2.105 . S
Sc154 O167 2.105 . S
Sc154 O170 2.105 . S
Sc154 O173 2.105 1_554 S
Sc155 O157 2.025 1_556 S
Sc155 O165 2.105 . S
Sc155 O169 2.105 1_556 S
Sc155 O171 2.105 . S
Sc155 O175 2.105 1_556 S
Sc156 O157 2.025 . S
Sc156 O166 2.105 . S
Sc156 O168 2.105 . S
Sc156 O172 2.105 . S
Sc156 O174 2.105 . S
O157 Sc154 2.025 . S
O157 Sc155 2.025 1_554 S
O157 Sc156 2.025 . S
C158 O164 1.268 . S
C158 O174 1.268 . S
C159 O165 1.268 . S
C159 O173 1.268 . S
C160 O166 1.268 . S
C160 O175 1.268 . S
C161 O167 1.268 . S
C161 O171 1.268 1_554 S
C162 O168 1.268 . S
C162 O170 1.268 . S
C163 O169 1.268 . S
C163 O172 1.268 . S
O164 Sc154 2.105 . S
O164 C158 1.268 . S
O165 Sc155 2.105 . S
O165 C159 1.268 . S
O166 Sc156 2.105 . S
O166 C160 1.268 . S
O167 Sc154 2.105 . S
O167 C161 1.268 . S
O168 Sc156 2.105 . S
O168 C162 1.268 . S
O169 Sc155 2.105 1_554 S
O169 C163 1.268 . S
O170 Sc154 2.105 . S
O170 C162 1.268 . S
O171 Sc155 2.105 . S
O171 C161 1.268 1_556 S
O172 Sc156 2.105 . S
O172 C163 1.268 . S
O173 Sc154 2.105 1_556 S
O173 C159 1.268 . S
O174 Sc156 2.105 . S
O174 C158 1.268 . S
O175 Sc155 2.105 1_554 S
O175 C160 1.268 . S
Sc176 O179 2.025 1_455 S
Sc176 O186 2.105 1_455 S
Sc176 O189 2.105 . S
Sc176 O192 2.105 . S
Sc176 O195 2.105 1_454 S
Sc177 O179 2.025 1_556 S
Sc177 O187 2.105 . S
Sc177 O191 2.105 1_556 S
Sc177 O193 2.105 . S
Sc177 O197 2.105 1_556 S
Sc178 O179 2.025 . S
Sc178 O188 2.105 . S
Sc178 O190 2.105 . S
Sc178 O194 2.105 . S
Sc178 O196 2.105 . S
O179 Sc176 2.025 1_655 S
O179 Sc177 2.025 1_554 S
O179 Sc178 2.025 . S
C180 O186 1.268 . S
C180 O196 1.268 . S
C181 O187 1.268 . S
C181 O195 1.268 . S
C182 O188 1.268 . S
C182 O197 1.268 . S
C183 O189 1.268 . S
C183 O193 1.268 1_454 S
C184 O190 1.268 1_455 S
C184 O192 1.268 . S
C185 O191 1.268 . S
C185 O194 1.268 . S
O186 Sc176 2.105 1_655 S
O186 C180 1.268 . S
O187 Sc177 2.105 . S
O187 C181 1.268 . S
O188 Sc178 2.105 . S
O188 C182 1.268 . S
O189 Sc176 2.105 . S
O189 C183 1.268 . S
O190 Sc178 2.105 . S
O190 C184 1.268 1_655 S
O191 Sc177 2.105 1_554 S
O191 C185 1.268 . S
O192 Sc176 2.105 . S
O192 C184 1.268 . S
O193 Sc177 2.105 . S
O193 C183 1.268 1_656 S
O194 Sc178 2.105 . S
O194 C185 1.268 . S
O195 Sc176 2.105 1_656 S
O195 C181 1.268 . S
O196 Sc178 2.105 . S
O196 C180 1.268 . S
O197 Sc177 2.105 1_554 S
O197 C182 1.268 . S
Sc198 O201 2.025 . S
Sc198 O208 2.105 . S
Sc198 O211 2.105 . S
Sc198 O214 2.105 . S
Sc198 O217 2.105 . S
Sc199 O201 2.025 . S
Sc199 O209 2.105 . S
Sc199 O213 2.105 . S
Sc199 O215 2.105 . S
Sc199 O219 2.105 . S
Sc200 O201 2.025 . S
Sc200 O210 2.105 . S
Sc200 O212 2.105 . S
Sc200 O216 2.105 . S
Sc200 O218 2.105 . S
O201 Sc198 2.025 . S
O201 Sc199 2.025 . S
O201 Sc200 2.025 . S
C202 O208 1.268 . S
C202 O218 1.268 . S
C203 O209 1.268 . S
C203 O217 1.268 . S
C204 O210 1.268 . S
C204 O219 1.268 . S
C205 O211 1.268 . S
C205 O215 1.268 . S
C206 O212 1.268 . S
C206 O214 1.268 . S
C207 O213 1.268 . S
C207 O216 1.268 . S
O208 Sc198 2.105 . S
O208 C202 1.268 . S
O209 Sc199 2.105 . S
O209 C203 1.268 . S
O210 Sc200 2.105 . S
O210 C204 1.268 . S
O211 Sc198 2.105 . S
O211 C205 1.268 . S
O212 Sc200 2.105 . S
O212 C206 1.268 . S
O213 Sc199 2.105 . S
O213 C207 1.268 . S
O214 Sc198 2.105 . S
O214 C206 1.268 . S
O215 Sc199 2.105 . S
O215 C205 1.268 . S
O216 Sc200 2.105 . S
O216 C207 1.268 . S
O217 Sc198 2.105 . S
O217 C203 1.268 . S
O218 Sc200 2.105 . S
O218 C202 1.268 . S
O219 Sc199 2.105 . S
O219 C204 1.268 . S
Sc220 O223 2.025 . S
Sc220 O230 2.105 . S
Sc220 O233 2.105 . S
Sc220 O236 2.105 . S
Sc220 O239 2.105 . S
Sc221 O223 2.025 . S
Sc221 O231 2.105 . S
Sc221 O235 2.105 . S
Sc221 O237 2.105 . S
Sc221 O241 2.105 . S
Sc222 O223 2.025 1_455 S
Sc222 O232 2.105 1_455 S
Sc222 O234 2.105 . S
Sc222 O238 2.105 . S
Sc222 O240 2.105 1_455 S
O223 Sc220 2.025 . S
O223 Sc221 2.025 . S
O223 Sc222 2.025 1_655 S
C224 O230 1.268 . S
C224 O240 1.268 . S
C225 O231 1.268 . S
C225 O239 1.268 . S
C226 O232 1.268 . S
C226 O241 1.268 . S
C227 O233 1.268 . S
C227 O237 1.268 . S
C228 O234 1.268 . S
C228 O236 1.268 1_455 S
C229 O235 1.268 1_455 S
C229 O238 1.268 . S
O230 Sc220 2.105 . S
O230 C224 1.268 . S
O231 Sc221 2.105 . S
O231 C225 1.268 . S
O232 Sc222 2.105 1_655 S
O232 C226 1.268 . S
O233 Sc220 2.105 . S
O233 C227 1.268 . S
O234 Sc222 2.105 . S
O234 C228 1.268 . S
O235 Sc221 2.105 . S
O235 C229 1.268 1_655 S
O236 Sc220 2.105 . S
O236 C228 1.268 1_655 S
O237 Sc221 2.105 . S
O237 C227 1.268 . S
O238 Sc222 2.105 . S
O238 C229 1.268 . S
O239 Sc220 2.105 . S
O239 C225 1.268 . S
O240 Sc222 2.105 1_655 S
O240 C224 1.268 . S
O241 Sc221 2.105 . S
O241 C226 1.268 . S
Sc242 O245 2.025 . S
Sc242 O252 2.105 . S
Sc242 O255 2.105 . S
Sc242 O258 2.105 . S
Sc242 O261 2.105 . S
Sc243 O245 2.025 . S
Sc243 O253 2.105 . S
Sc243 O257 2.105 . S
Sc243 O259 2.105 . S
Sc243 O263 2.105 . S
Sc244 O245 2.025 . S
Sc244 O254 2.105 . S
Sc244 O256 2.105 . S
Sc244 O260 2.105 . S
Sc244 O262 2.105 . S
O245 Sc242 2.025 . S
O245 Sc243 2.025 . S
O245 Sc244 2.025 . S
C246 O252 1.268 . S
C246 O262 1.268 . S
C247 O253 1.268 . S
C247 O261 1.268 . S
C248 O254 1.268 . S
C248 O263 1.268 . S
C249 O255 1.268 . S
C249 O259 1.268 . S
C250 O256 1.268 . S
C250 O258 1.268 . S
C251 O257 1.268 . S
C251 O260 1.268 . S
O252 Sc242 2.105 . S
O252 C246 1.268 . S
O253 Sc243 2.105 . S
O253 C247 1.268 . S
O254 Sc244 2.105 . S
O254 C248 1.268 . S
O255 Sc242 2.105 . S
O255 C249 1.268 . S
O256 Sc244 2.105 . S
O256 C250 1.268 . S
O257 Sc243 2.105 . S
O257 C251 1.268 . S
O258 Sc242 2.105 . S
O258 C250 1.268 . S
O259 Sc243 2.105 . S
O259 C249 1.268 . S
O260 Sc244 2.105 . S
O260 C251 1.268 . S
O261 Sc242 2.105 . S
O261 C247 1.268 . S
O262 Sc244 2.105 . S
O262 C246 1.268 . S
O263 Sc243 2.105 . S
O263 C248 1.268 . S
Sc264 O267 2.025 1_545 S
Sc264 O274 2.105 . S
Sc264 O277 2.105 1_545 S
Sc264 O280 2.106 1_545 S
Sc264 O283 2.105 . S
Sc265 O267 2.025 . S
Sc265 O275 2.105 . S
Sc265 O279 2.105 . S
Sc265 O281 2.105 . S
Sc265 O285 2.105 . S
Sc266 O267 2.025 . S
Sc266 O276 2.105 . S
Sc266 O278 2.105 . S
Sc266 O282 2.105 . S
Sc266 O284 2.105 . S
O267 Sc264 2.025 1_565 S
O267 Sc265 2.025 . S
O267 Sc266 2.025 . S
C268 O274 1.268 . S
C268 O284 1.268 1_545 S
C269 O275 1.268 1_545 S
C269 O283 1.268 . S
C270 O276 1.268 . S
C270 O285 1.268 . S
C271 O277 1.268 . S
C271 O281 1.268 . S
C272 O278 1.268 . S
C272 O280 1.281 . S
C273 O279 1.268 . S
C273 O282 1.268 . S
O274 Sc264 2.105 . S
O274 C268 1.268 . S
O275 Sc265 2.105 . S
O275 C269 1.268 1_565 S
O276 Sc266 2.105 . S
O276 C270 1.268 . S
O277 Sc264 2.105 1_565 S
O277 C271 1.268 . S
O278 Sc266 2.105 . S
O278 C272 1.268 . S
O279 Sc265 2.105 . S
O279 C273 1.268 . S
O280 Sc264 2.106 1_565 S
O280 C272 1.281 . S
O281 Sc265 2.105 . S
O281 C271 1.268 . S
O282 Sc266 2.105 . S
O282 C273 1.268 . S
O283 Sc264 2.105 . S
O283 C269 1.268 . S
O284 Sc266 2.105 . S
O284 C268 1.268 1_565 S
O285 Sc265 2.105 . S
O285 C270 1.268 . S
Sc286 O289 2.025 . S
Sc286 O296 2.105 . S
Sc286 O299 2.105 . S
Sc286 O302 2.105 . S
Sc286 O305 2.105 . S
Sc287 O289 2.025 . S
Sc287 O297 2.105 . S
Sc287 O301 2.105 . S
Sc287 O303 2.105 . S
Sc287 O307 2.105 . S
Sc288 O289 2.025 . S
Sc288 O298 2.105 . S
Sc288 O300 2.105 . S
Sc288 O304 2.105 . S
Sc288 O306 2.105 . S
O289 Sc286 2.025 . S
O289 Sc287 2.025 . S
O289 Sc288 2.025 . S
C290 O296 1.268 . S
C290 O306 1.268 . S
C291 O297 1.268 . S
C291 O305 1.268 . S
C292 O298 1.268 . S
C292 O307 1.268 . S
C293 O299 1.268 . S
C293 O303 1.268 . S
C294 O300 1.268 . S
C294 O302 1.268 . S
C295 O301 1.268 . S
C295 O304 1.268 . S
O296 Sc286 2.105 . S
O296 C290 1.268 . S
O297 Sc287 2.105 . S
O297 C291 1.268 . S
O298 Sc288 2.105 . S
O298 C292 1.268 . S
O299 Sc286 2.105 . S
O299 C293 1.268 . S
O300 Sc288 2.105 . S
O300 C294 1.268 . S
O301 Sc287 2.105 . S
O301 C295 1.268 . S
O302 Sc286 2.105 . S
O302 C294 1.268 . S
O303 Sc287 2.105 . S
O303 C293 1.268 . S
O304 Sc288 2.105 . S
O304 C295 1.268 . S
O305 Sc286 2.105 . S
O305 C291 1.268 . S
O306 Sc288 2.105 . S
O306 C290 1.268 . S
O307 Sc287 2.105 . S
O307 C292 1.268 . S
Sc308 O311 2.025 . S
Sc308 O318 2.105 . S
Sc308 O321 2.105 . S
Sc308 O324 2.105 . S
Sc308 O327 2.105 . S
Sc309 O311 2.025 . S
Sc309 O319 2.105 . S
Sc309 O323 2.105 . S
Sc309 O325 2.105 . S
Sc309 O329 2.105 . S
Sc310 O311 2.025 . S
Sc310 O320 2.105 . S
Sc310 O322 2.105 . S
Sc310 O326 2.105 . S
Sc310 O328 2.105 . S
O311 Sc308 2.025 . S
O311 Sc309 2.025 . S
O311 Sc310 2.025 . S
C312 O318 1.268 . S
C312 O328 1.268 . S
C313 O319 1.268 . S
C313 O327 1.268 . S
C314 O320 1.268 . S
C314 O329 1.268 . S
C315 O321 1.268 . S
C315 O325 1.268 . S
C316 O322 1.268 . S
C316 O324 1.268 . S
C317 O323 1.268 . S
C317 O326 1.268 . S
O318 Sc308 2.105 . S
O318 C312 1.268 . S
O319 Sc309 2.105 . S
O319 C313 1.268 . S
O320 Sc310 2.105 . S
O320 C314 1.268 . S
O321 Sc308 2.105 . S
O321 C315 1.268 . S
O322 Sc310 2.105 . S
O322 C316 1.268 . S
O323 Sc309 2.105 . S
O323 C317 1.268 . S
O324 Sc308 2.105 . S
O324 C316 1.268 . S
O325 Sc309 2.105 . S
O325 C315 1.268 . S
O326 Sc310 2.105 . S
O326 C317 1.268 . S
O327 Sc308 2.105 . S
O327 C313 1.268 . S
O328 Sc310 2.105 . S
O328 C312 1.268 . S
O329 Sc309 2.105 . S
O329 C314 1.268 . S
Sc330 O333 2.025 . S
Sc330 O340 2.105 . S
Sc330 O343 2.105 1_556 S
Sc330 O346 2.105 . S
Sc330 O349 2.105 . S
Sc331 O333 2.025 1_554 S
Sc331 O341 2.105 . S
Sc331 O345 2.105 1_554 S
Sc331 O347 2.105 . S
Sc331 O351 2.105 1_554 S
Sc332 O333 2.025 . S
Sc332 O342 2.105 . S
Sc332 O344 2.105 . S
Sc332 O348 2.105 . S
Sc332 O350 2.105 . S
O333 Sc330 2.025 . S
O333 Sc331 2.025 1_556 S
O333 Sc332 2.025 . S
C334 O340 1.268 . S
C334 O350 1.268 . S
C335 O341 1.268 1_556 S
C335 O349 1.268 . S
C336 O342 1.268 . S
C336 O351 1.268 . S
C337 O343 1.268 . S
C337 O347 1.268 . S
C338 O344 1.268 . S
C338 O346 1.268 . S
C339 O345 1.268 . S
C339 O348 1.268 . S
O340 Sc330 2.105 . S
O340 C334 1.268 . S
O341 Sc331 2.105 . S
O341 C335 1.268 1_554 S
O342 Sc332 2.105 . S
O342 C336 1.268 . S
O343 Sc330 2.105 1_554 S
O343 C337 1.268 . S
O344 Sc332 2.105 . S
O344 C338 1.268 . S
O345 Sc331 2.105 1_556 S
O345 C339 1.268 . S
O346 Sc330 2.105 . S
O346 C338 1.268 . S
O347 Sc331 2.105 . S
O347 C337 1.268 . S
O348 Sc332 2.105 . S
O348 C339 1.268 . S
O349 Sc330 2.105 . S
O349 C335 1.268 . S
O350 Sc332 2.105 . S
O350 C334 1.268 . S
O351 Sc331 2.105 1_556 S
O351 C336 1.268 . S
Sc352 O355 2.025 1_554 S
Sc352 O362 2.105 . S
Sc352 O365 2.105 1_554 S
Sc352 O368 2.105 . S
Sc352 O371 2.105 1_554 S
Sc353 O355 2.025 . S
Sc353 O363 2.105 . S
Sc353 O367 2.105 . S
Sc353 O369 2.105 . S
Sc353 O373 2.105 . S
Sc354 O355 2.025 1_545 S
Sc354 O364 2.105 . S
Sc354 O366 2.097 1_546 S
Sc354 O370 2.105 1_545 S
Sc354 O372 2.105 . S
O355 Sc352 2.025 1_556 S
O355 Sc353 2.025 . S
O355 Sc354 2.025 1_565 S
C356 O362 1.268 1_546 S
C356 O372 1.268 . S
C357 O363 1.268 . S
C357 O371 1.268 . S
C358 O364 1.268 . S
C358 O373 1.268 1_545 S
C359 O365 1.268 . S
C359 O369 1.268 . S
C360 O366 1.278 . S
C360 O368 1.268 . S
C361 O367 1.268 . S
C361 O370 1.268 . S
O362 Sc352 2.105 . S
O362 C356 1.268 1_564 S
O363 Sc353 2.105 . S
O363 C357 1.268 . S
O364 Sc354 2.105 . S
O364 C358 1.268 . S
O365 Sc352 2.105 1_556 S
O365 C359 1.268 . S
O366 Sc354 2.097 1_564 S
O366 C360 1.278 . S
O367 Sc353 2.105 . S
O367 C361 1.268 . S
O368 Sc352 2.105 . S
O368 C360 1.268 . S
O369 Sc353 2.105 . S
O369 C359 1.268 . S
O370 Sc354 2.105 1_565 S
O370 C361 1.268 . S
O371 Sc352 2.105 1_556 S
O371 C357 1.268 . S
O372 Sc354 2.105 . S
O372 C356 1.268 . S
O373 Sc353 2.105 . S
O373 C358 1.268 1_565 S
Sc374 O377 2.025 1_554 S
Sc374 O384 2.105 . S
Sc374 O387 2.105 1_554 S
Sc374 O390 2.105 . S
Sc374 O393 2.105 1_554 S
Sc375 O377 2.025 . S
Sc375 O385 2.105 . S
Sc375 O389 2.105 . S
Sc375 O391 2.105 . S
Sc375 O395 2.105 . S
Sc376 O377 2.025 . S
Sc376 O386 2.105 . S
Sc376 O388 2.105 1_556 S
Sc376 O392 2.105 . S
Sc376 O394 2.105 . S
O377 Sc374 2.025 1_556 S
O377 Sc375 2.025 . S
O377 Sc376 2.025 . S
C378 O384 1.268 1_556 S
C378 O394 1.268 . S
C379 O385 1.268 . S
C379 O393 1.268 . S
C380 O386 1.268 . S
C380 O395 1.268 . S
C381 O387 1.268 . S
C381 O391 1.268 . S
C382 O388 1.268 . S
C382 O390 1.268 . S
C383 O389 1.268 . S
C383 O392 1.268 . S
O384 Sc374 2.105 . S
O384 C378 1.268 1_554 S
O385 Sc375 2.105 . S
O385 C379 1.268 . S
O386 Sc376 2.105 . S
O386 C380 1.268 . S
O387 Sc374 2.105 1_556 S
O387 C381 1.268 . S
O388 Sc376 2.105 1_554 S
O388 C382 1.268 . S
O389 Sc375 2.105 . S
O389 C383 1.268 . S
O390 Sc374 2.105 . S
O390 C382 1.268 . S
O391 Sc375 2.105 . S
O391 C381 1.268 . S
O392 Sc376 2.105 . S
O392 C383 1.268 . S
O393 Sc374 2.105 1_556 S
O393 C379 1.268 . S
O394 Sc376 2.105 . S
O394 C378 1.268 . S
O395 Sc375 2.105 . S
O395 C380 1.268 . S
C53 C6 1.782 . S
C9 C27 1.782 . S
C29 C50 1.782 . S
C75 C115 1.782 . S
C72 C95 1.782 . S
C93 C117 1.782 . S
C185 C138 1.782 . S
C160 C141 1.782 . S
C163 C182 1.782 . S
C205 C247 1.782 . S
C203 C227 1.782 . S
C249 C225 1.782 . S
C315 C270 1.782 . S
C273 C291 1.782 . S
C293 C313 1.782 . S
C379 C339 1.782 . S
C359 C336 1.782 . S
C381 C357 1.782 . S
C5 C295 1.895 . S
C317 C26 1.895 . S
C49 C272 1.895 . S
C159 C52 1.895 . S
C8 C181 1.895 . S
C137 C31 1.895 . S
C226 C73 1.895 . S
C96 C248 1.895 . S
C204 C118 1.895 . S
C116 C360 1.895 . S
C382 C70 1.895 . S
C337 C94 1.895 . S
C290 C184 1.895 . S
C312 C140 1.895 . S
C162 C269 1.895 . S
C206 C358 1.895 . S
C380 C228 1.895 . S
C250 C334 1.895 . S
C4 C338 1.361 . S
C28 C361 1.361 . S
C383 C48 1.361 . S
C246 C51 1.361 . S
C202 C7 1.361 . S
C30 C224 1.361 . S
C74 C136 1.361 . S
C97 C158 1.361 . S
C119 C180 1.361 . S
C114 C316 1.361 . S
C71 C271 1.361 . S
C294 C92 1.361 . S
C183 C378 1.361 1_554 S
C335 C139 1.361 1_556 S
C161 C356 1.361 1_554 S
C207 C268 1.361 . S
C229 C292 1.361 . S
C314 C251 1.361 . S
