# Generated by pormake.
# Topology bcu-k, (6)-cn, num edge types: 1
# Building blocks:
#     Node 0, Type 0, BuildingBlock: OJICUG_clean_sbu_0, # of connection points: 6
#     Node 1, Type 0, BuildingBlock: OJICUG_clean_sbu_0, # of connection points: 6
#     Node 2, Type 0, BuildingBlock: OJICUG_clean_sbu_0, # of connection points: 6
#     Node 3, Type 0, BuildingBlock: OJICUG_clean_sbu_0, # of connection points: 6
#     Node 4, Type 0, BuildingBlock: OJICUG_clean_sbu_0, # of connection points: 6
#     Node 5, Type 0, BuildingBlock: OJICUG_clean_sbu_0, # of connection points: 6
#     Node 6, Type 0, BuildingBlock: OJICUG_clean_sbu_0, # of connection points: 6
#     Node 7, Type 0, BuildingBlock: OJICUG_clean_sbu_0, # of connection points: 6
#     Node 8, Type 0, BuildingBlock: OJICUG_clean_sbu_0, # of connection points: 6
#     Node 9, Type 0, BuildingBlock: OJICUG_clean_sbu_0, # of connection points: 6
#     Node 10, Type 0, BuildingBlock: OJICUG_clean_sbu_0, # of connection points: 6
#     Node 11, Type 0, BuildingBlock: OJICUG_clean_sbu_0, # of connection points: 6
#     Node 12, Type 0, BuildingBlock: OJICUG_clean_sbu_0, # of connection points: 6
#     Node 13, Type 0, BuildingBlock: OJICUG_clean_sbu_0, # of connection points: 6
#     Node 14, Type 0, BuildingBlock: OJICUG_clean_sbu_0, # of connection points: 6
#     Node 15, Type 0, BuildingBlock: OJICUG_clean_sbu_0, # of connection points: 6
#     Node 16, Type 0, BuildingBlock: OJICUG_clean_sbu_0, # of connection points: 6
#     Node 17, Type 0, BuildingBlock: OJICUG_clean_sbu_0, # of connection points: 6
#     Node 18, Type 0, BuildingBlock: OJICUG_clean_sbu_0, # of connection points: 6
#     Node 19, Type 0, BuildingBlock: OJICUG_clean_sbu_0, # of connection points: 6
#     Node 20, Type 0, BuildingBlock: OJICUG_clean_sbu_0, # of connection points: 6
#     Node 21, Type 0, BuildingBlock: OJICUG_clean_sbu_0, # of connection points: 6
#     Node 22, Type 0, BuildingBlock: OJICUG_clean_sbu_0, # of connection points: 6
#     Node 23, Type 0, BuildingBlock: OJICUG_clean_sbu_0, # of connection points: 6
#     Node 24, Type 0, BuildingBlock: OJICUG_clean_sbu_0, # of connection points: 6
#     Node 25, Type 0, BuildingBlock: OJICUG_clean_sbu_0, # of connection points: 6
#     Node 26, Type 0, BuildingBlock: OJICUG_clean_sbu_0, # of connection points: 6
#     Node 27, Type 0, BuildingBlock: OJICUG_clean_sbu_0, # of connection points: 6
#     Node 28, Type 0, BuildingBlock: OJICUG_clean_sbu_0, # of connection points: 6
#     Node 29, Type 0, BuildingBlock: OJICUG_clean_sbu_0, # of connection points: 6
#     Node 30, Type 0, BuildingBlock: OJICUG_clean_sbu_0, # of connection points: 6
#     Node 31, Type 0, BuildingBlock: OJICUG_clean_sbu_0, # of connection points: 6
#     Node 32, Type 0, BuildingBlock: OJICUG_clean_sbu_0, # of connection points: 6
#     Node 33, Type 0, BuildingBlock: OJICUG_clean_sbu_0, # of connection points: 6
#     Node 34, Type 0, BuildingBlock: OJICUG_clean_sbu_0, # of connection points: 6
#     Node 35, Type 0, BuildingBlock: OJICUG_clean_sbu_0, # of connection points: 6
#     Node 36, Type 0, BuildingBlock: OJICUG_clean_sbu_0, # of connection points: 6
#     Node 37, Type 0, BuildingBlock: OJICUG_clean_sbu_0, # of connection points: 6
#     Node 38, Type 0, BuildingBlock: OJICUG_clean_sbu_0, # of connection points: 6
#     Node 39, Type 0, BuildingBlock: OJICUG_clean_sbu_0, # of connection points: 6
#     Node 40, Type 0, BuildingBlock: OJICUG_clean_sbu_0, # of connection points: 6
#     Node 41, Type 0, BuildingBlock: OJICUG_clean_sbu_0, # of connection points: 6
#     Node 42, Type 0, BuildingBlock: OJICUG_clean_sbu_0, # of connection points: 6
#     Node 43, Type 0, BuildingBlock: OJICUG_clean_sbu_0, # of connection points: 6
#     Node 44, Type 0, BuildingBlock: OJICUG_clean_sbu_0, # of connection points: 6
#     Node 45, Type 0, BuildingBlock: OJICUG_clean_sbu_0, # of connection points: 6
#     Node 46, Type 0, BuildingBlock: OJICUG_clean_sbu_0, # of connection points: 6
#     Node 47, Type 0, BuildingBlock: OJICUG_clean_sbu_0, # of connection points: 6
#     Edge 48, Type (0, 0), BuildingBlock: KIFKEQ_clean_linker_1, # of connection points: 2
#     Edge 49, Type (0, 0), BuildingBlock: KIFKEQ_clean_linker_1, # of connection points: 2
#     Edge 50, Type (0, 0), BuildingBlock: KIFKEQ_clean_linker_1, # of connection points: 2
#     Edge 51, Type (0, 0), BuildingBlock: KIFKEQ_clean_linker_1, # of connection points: 2
#     Edge 52, Type (0, 0), BuildingBlock: KIFKEQ_clean_linker_1, # of connection points: 2
#     Edge 53, Type (0, 0), BuildingBlock: KIFKEQ_clean_linker_1, # of connection points: 2
#     Edge 54, Type (0, 0), BuildingBlock: KIFKEQ_clean_linker_1, # of connection points: 2
#     Edge 55, Type (0, 0), BuildingBlock: KIFKEQ_clean_linker_1, # of connection points: 2
#     Edge 56, Type (0, 0), BuildingBlock: KIFKEQ_clean_linker_1, # of connection points: 2
#     Edge 57, Type (0, 0), BuildingBlock: KIFKEQ_clean_linker_1, # of connection points: 2
#     Edge 58, Type (0, 0), BuildingBlock: KIFKEQ_clean_linker_1, # of connection points: 2
#     Edge 59, Type (0, 0), BuildingBlock: KIFKEQ_clean_linker_1, # of connection points: 2
#     Edge 60, Type (0, 0), BuildingBlock: KIFKEQ_clean_linker_1, # of connection points: 2
#     Edge 61, Type (0, 0), BuildingBlock: KIFKEQ_clean_linker_1, # of connection points: 2
#     Edge 62, Type (0, 0), BuildingBlock: KIFKEQ_clean_linker_1, # of connection points: 2
#     Edge 63, Type (0, 0), BuildingBlock: KIFKEQ_clean_linker_1, # of connection points: 2
#     Edge 64, Type (0, 0), BuildingBlock: KIFKEQ_clean_linker_1, # of connection points: 2
#     Edge 65, Type (0, 0), BuildingBlock: KIFKEQ_clean_linker_1, # of connection points: 2
#     Edge 66, Type (0, 0), BuildingBlock: KIFKEQ_clean_linker_1, # of connection points: 2
#     Edge 67, Type (0, 0), BuildingBlock: KIFKEQ_clean_linker_1, # of connection points: 2
#     Edge 68, Type (0, 0), BuildingBlock: KIFKEQ_clean_linker_1, # of connection points: 2
#     Edge 69, Type (0, 0), BuildingBlock: KIFKEQ_clean_linker_1, # of connection points: 2
#     Edge 70, Type (0, 0), BuildingBlock: KIFKEQ_clean_linker_1, # of connection points: 2
#     Edge 71, Type (0, 0), BuildingBlock: KIFKEQ_clean_linker_1, # of connection points: 2
#     Edge 72, Type (0, 0), BuildingBlock: KIFKEQ_clean_linker_1, # of connection points: 2
#     Edge 73, Type (0, 0), BuildingBlock: KIFKEQ_clean_linker_1, # of connection points: 2
#     Edge 74, Type (0, 0), BuildingBlock: KIFKEQ_clean_linker_1, # of connection points: 2
#     Edge 75, Type (0, 0), BuildingBlock: KIFKEQ_clean_linker_1, # of connection points: 2
#     Edge 76, Type (0, 0), BuildingBlock: KIFKEQ_clean_linker_1, # of connection points: 2
#     Edge 77, Type (0, 0), BuildingBlock: KIFKEQ_clean_linker_1, # of connection points: 2
#     Edge 78, Type (0, 0), BuildingBlock: KIFKEQ_clean_linker_1, # of connection points: 2
#     Edge 79, Type (0, 0), BuildingBlock: KIFKEQ_clean_linker_1, # of connection points: 2
#     Edge 80, Type (0, 0), BuildingBlock: KIFKEQ_clean_linker_1, # of connection points: 2
#     Edge 81, Type (0, 0), BuildingBlock: KIFKEQ_clean_linker_1, # of connection points: 2
#     Edge 82, Type (0, 0), BuildingBlock: KIFKEQ_clean_linker_1, # of connection points: 2
#     Edge 83, Type (0, 0), BuildingBlock: KIFKEQ_clean_linker_1, # of connection points: 2
#     Edge 84, Type (0, 0), BuildingBlock: KIFKEQ_clean_linker_1, # of connection points: 2
#     Edge 85, Type (0, 0), BuildingBlock: KIFKEQ_clean_linker_1, # of connection points: 2
#     Edge 86, Type (0, 0), BuildingBlock: KIFKEQ_clean_linker_1, # of connection points: 2
#     Edge 87, Type (0, 0), BuildingBlock: KIFKEQ_clean_linker_1, # of connection points: 2
#     Edge 88, Type (0, 0), BuildingBlock: KIFKEQ_clean_linker_1, # of connection points: 2
#     Edge 89, Type (0, 0), BuildingBlock: KIFKEQ_clean_linker_1, # of connection points: 2
#     Edge 90, Type (0, 0), BuildingBlock: KIFKEQ_clean_linker_1, # of connection points: 2
#     Edge 91, Type (0, 0), BuildingBlock: KIFKEQ_clean_linker_1, # of connection points: 2
#     Edge 92, Type (0, 0), BuildingBlock: KIFKEQ_clean_linker_1, # of connection points: 2
#     Edge 93, Type (0, 0), BuildingBlock: KIFKEQ_clean_linker_1, # of connection points: 2
#     Edge 94, Type (0, 0), BuildingBlock: KIFKEQ_clean_linker_1, # of connection points: 2
#     Edge 95, Type (0, 0), BuildingBlock: KIFKEQ_clean_linker_1, # of connection points: 2
#     Edge 96, Type (0, 0), BuildingBlock: KIFKEQ_clean_linker_1, # of connection points: 2
#     Edge 97, Type (0, 0), BuildingBlock: KIFKEQ_clean_linker_1, # of connection points: 2
#     Edge 98, Type (0, 0), BuildingBlock: KIFKEQ_clean_linker_1, # of connection points: 2
#     Edge 99, Type (0, 0), BuildingBlock: KIFKEQ_clean_linker_1, # of connection points: 2
#     Edge 100, Type (0, 0), BuildingBlock: KIFKEQ_clean_linker_1, # of connection points: 2
#     Edge 101, Type (0, 0), BuildingBlock: KIFKEQ_clean_linker_1, # of connection points: 2
#     Edge 102, Type (0, 0), BuildingBlock: KIFKEQ_clean_linker_1, # of connection points: 2
#     Edge 103, Type (0, 0), BuildingBlock: KIFKEQ_clean_linker_1, # of connection points: 2
#     Edge 104, Type (0, 0), BuildingBlock: KIFKEQ_clean_linker_1, # of connection points: 2
#     Edge 105, Type (0, 0), BuildingBlock: KIFKEQ_clean_linker_1, # of connection points: 2
#     Edge 106, Type (0, 0), BuildingBlock: KIFKEQ_clean_linker_1, # of connection points: 2
#     Edge 107, Type (0, 0), BuildingBlock: KIFKEQ_clean_linker_1, # of connection points: 2
#     Edge 108, Type (0, 0), BuildingBlock: KIFKEQ_clean_linker_1, # of connection points: 2
#     Edge 109, Type (0, 0), BuildingBlock: KIFKEQ_clean_linker_1, # of connection points: 2
#     Edge 110, Type (0, 0), BuildingBlock: KIFKEQ_clean_linker_1, # of connection points: 2
#     Edge 111, Type (0, 0), BuildingBlock: KIFKEQ_clean_linker_1, # of connection points: 2
#     Edge 112, Type (0, 0), BuildingBlock: KIFKEQ_clean_linker_1, # of connection points: 2
#     Edge 113, Type (0, 0), BuildingBlock: KIFKEQ_clean_linker_1, # of connection points: 2
#     Edge 114, Type (0, 0), BuildingBlock: KIFKEQ_clean_linker_1, # of connection points: 2
#     Edge 115, Type (0, 0), BuildingBlock: KIFKEQ_clean_linker_1, # of connection points: 2
#     Edge 116, Type (0, 0), BuildingBlock: KIFKEQ_clean_linker_1, # of connection points: 2
#     Edge 117, Type (0, 0), BuildingBlock: KIFKEQ_clean_linker_1, # of connection points: 2
#     Edge 118, Type (0, 0), BuildingBlock: KIFKEQ_clean_linker_1, # of connection points: 2
#     Edge 119, Type (0, 0), BuildingBlock: KIFKEQ_clean_linker_1, # of connection points: 2
#     Edge 120, Type (0, 0), BuildingBlock: KIFKEQ_clean_linker_1, # of connection points: 2
#     Edge 121, Type (0, 0), BuildingBlock: KIFKEQ_clean_linker_1, # of connection points: 2
#     Edge 122, Type (0, 0), BuildingBlock: KIFKEQ_clean_linker_1, # of connection points: 2
#     Edge 123, Type (0, 0), BuildingBlock: KIFKEQ_clean_linker_1, # of connection points: 2
#     Edge 124, Type (0, 0), BuildingBlock: KIFKEQ_clean_linker_1, # of connection points: 2
#     Edge 125, Type (0, 0), BuildingBlock: KIFKEQ_clean_linker_1, # of connection points: 2
#     Edge 126, Type (0, 0), BuildingBlock: KIFKEQ_clean_linker_1, # of connection points: 2
#     Edge 127, Type (0, 0), BuildingBlock: KIFKEQ_clean_linker_1, # of connection points: 2
#     Edge 128, Type (0, 0), BuildingBlock: KIFKEQ_clean_linker_1, # of connection points: 2
#     Edge 129, Type (0, 0), BuildingBlock: KIFKEQ_clean_linker_1, # of connection points: 2
#     Edge 130, Type (0, 0), BuildingBlock: KIFKEQ_clean_linker_1, # of connection points: 2
#     Edge 131, Type (0, 0), BuildingBlock: KIFKEQ_clean_linker_1, # of connection points: 2
#     Edge 132, Type (0, 0), BuildingBlock: KIFKEQ_clean_linker_1, # of connection points: 2
#     Edge 133, Type (0, 0), BuildingBlock: KIFKEQ_clean_linker_1, # of connection points: 2
#     Edge 134, Type (0, 0), BuildingBlock: KIFKEQ_clean_linker_1, # of connection points: 2
#     Edge 135, Type (0, 0), BuildingBlock: KIFKEQ_clean_linker_1, # of connection points: 2
#     Edge 136, Type (0, 0), BuildingBlock: KIFKEQ_clean_linker_1, # of connection points: 2
#     Edge 137, Type (0, 0), BuildingBlock: KIFKEQ_clean_linker_1, # of connection points: 2
#     Edge 138, Type (0, 0), BuildingBlock: KIFKEQ_clean_linker_1, # of connection points: 2
#     Edge 139, Type (0, 0), BuildingBlock: KIFKEQ_clean_linker_1, # of connection points: 2
#     Edge 140, Type (0, 0), BuildingBlock: KIFKEQ_clean_linker_1, # of connection points: 2
#     Edge 141, Type (0, 0), BuildingBlock: KIFKEQ_clean_linker_1, # of connection points: 2
#     Edge 142, Type (0, 0), BuildingBlock: KIFKEQ_clean_linker_1, # of connection points: 2
#     Edge 143, Type (0, 0), BuildingBlock: KIFKEQ_clean_linker_1, # of connection points: 2
#     Edge 144, Type (0, 0), BuildingBlock: KIFKEQ_clean_linker_1, # of connection points: 2
#     Edge 145, Type (0, 0), BuildingBlock: KIFKEQ_clean_linker_1, # of connection points: 2
#     Edge 146, Type (0, 0), BuildingBlock: KIFKEQ_clean_linker_1, # of connection points: 2
#     Edge 147, Type (0, 0), BuildingBlock: KIFKEQ_clean_linker_1, # of connection points: 2
#     Edge 148, Type (0, 0), BuildingBlock: KIFKEQ_clean_linker_1, # of connection points: 2
#     Edge 149, Type (0, 0), BuildingBlock: KIFKEQ_clean_linker_1, # of connection points: 2
#     Edge 150, Type (0, 0), BuildingBlock: KIFKEQ_clean_linker_1, # of connection points: 2
#     Edge 151, Type (0, 0), BuildingBlock: KIFKEQ_clean_linker_1, # of connection points: 2
#     Edge 152, Type (0, 0), BuildingBlock: KIFKEQ_clean_linker_1, # of connection points: 2
#     Edge 153, Type (0, 0), BuildingBlock: KIFKEQ_clean_linker_1, # of connection points: 2
#     Edge 154, Type (0, 0), BuildingBlock: KIFKEQ_clean_linker_1, # of connection points: 2
#     Edge 155, Type (0, 0), BuildingBlock: KIFKEQ_clean_linker_1, # of connection points: 2
#     Edge 156, Type (0, 0), BuildingBlock: KIFKEQ_clean_linker_1, # of connection points: 2
#     Edge 157, Type (0, 0), BuildingBlock: KIFKEQ_clean_linker_1, # of connection points: 2
#     Edge 158, Type (0, 0), BuildingBlock: KIFKEQ_clean_linker_1, # of connection points: 2
#     Edge 159, Type (0, 0), BuildingBlock: KIFKEQ_clean_linker_1, # of connection points: 2
#     Edge 160, Type (0, 0), BuildingBlock: KIFKEQ_clean_linker_1, # of connection points: 2
#     Edge 161, Type (0, 0), BuildingBlock: KIFKEQ_clean_linker_1, # of connection points: 2
#     Edge 162, Type (0, 0), BuildingBlock: KIFKEQ_clean_linker_1, # of connection points: 2
#     Edge 163, Type (0, 0), BuildingBlock: KIFKEQ_clean_linker_1, # of connection points: 2
#     Edge 164, Type (0, 0), BuildingBlock: KIFKEQ_clean_linker_1, # of connection points: 2
#     Edge 165, Type (0, 0), BuildingBlock: KIFKEQ_clean_linker_1, # of connection points: 2
#     Edge 166, Type (0, 0), BuildingBlock: KIFKEQ_clean_linker_1, # of connection points: 2
#     Edge 167, Type (0, 0), BuildingBlock: KIFKEQ_clean_linker_1, # of connection points: 2
#     Edge 168, Type (0, 0), BuildingBlock: KIFKEQ_clean_linker_1, # of connection points: 2
#     Edge 169, Type (0, 0), BuildingBlock: KIFKEQ_clean_linker_1, # of connection points: 2
#     Edge 170, Type (0, 0), BuildingBlock: KIFKEQ_clean_linker_1, # of connection points: 2
#     Edge 171, Type (0, 0), BuildingBlock: KIFKEQ_clean_linker_1, # of connection points: 2
#     Edge 172, Type (0, 0), BuildingBlock: KIFKEQ_clean_linker_1, # of connection points: 2
#     Edge 173, Type (0, 0), BuildingBlock: KIFKEQ_clean_linker_1, # of connection points: 2
#     Edge 174, Type (0, 0), BuildingBlock: KIFKEQ_clean_linker_1, # of connection points: 2
#     Edge 175, Type (0, 0), BuildingBlock: KIFKEQ_clean_linker_1, # of connection points: 2
#     Edge 176, Type (0, 0), BuildingBlock: KIFKEQ_clean_linker_1, # of connection points: 2
#     Edge 177, Type (0, 0), BuildingBlock: KIFKEQ_clean_linker_1, # of connection points: 2
#     Edge 178, Type (0, 0), BuildingBlock: KIFKEQ_clean_linker_1, # of connection points: 2
#     Edge 179, Type (0, 0), BuildingBlock: KIFKEQ_clean_linker_1, # of connection points: 2
#     Edge 180, Type (0, 0), BuildingBlock: KIFKEQ_clean_linker_1, # of connection points: 2
#     Edge 181, Type (0, 0), BuildingBlock: KIFKEQ_clean_linker_1, # of connection points: 2
#     Edge 182, Type (0, 0), BuildingBlock: KIFKEQ_clean_linker_1, # of connection points: 2
#     Edge 183, Type (0, 0), BuildingBlock: KIFKEQ_clean_linker_1, # of connection points: 2
#     Edge 184, Type (0, 0), BuildingBlock: KIFKEQ_clean_linker_1, # of connection points: 2
#     Edge 185, Type (0, 0), BuildingBlock: KIFKEQ_clean_linker_1, # of connection points: 2
#     Edge 186, Type (0, 0), BuildingBlock: KIFKEQ_clean_linker_1, # of connection points: 2
#     Edge 187, Type (0, 0), BuildingBlock: KIFKEQ_clean_linker_1, # of connection points: 2
#     Edge 188, Type (0, 0), BuildingBlock: KIFKEQ_clean_linker_1, # of connection points: 2
#     Edge 189, Type (0, 0), BuildingBlock: KIFKEQ_clean_linker_1, # of connection points: 2
#     Edge 190, Type (0, 0), BuildingBlock: KIFKEQ_clean_linker_1, # of connection points: 2
#     Edge 191, Type (0, 0), BuildingBlock: KIFKEQ_clean_linker_1, # of connection points: 2
# Relax obj value: 0.432
# Max RMSD: 0.178
# Mean RMSD: 0.178
data_MOF--net-bcu-k--node1-OJICUG_clean_sbu_0--edge1-KIFKEQ_clean_linker_1
_symmetry_space_group_name_H-M    P1
_symmetry_Int_Tables_number       1
_symmetry_cell_setting            triclinic
loop_
_symmetry_equiv_pos_as_xyz
'x, y, z'
_cell_length_a     60.528011
_cell_length_b     60.533641
_cell_length_c     60.540501
_cell_angle_alpha  89.983143
_cell_angle_beta   90.003892
_cell_angle_gamma 89.996579
loop_
_atom_site_label
_atom_site_type_symbol
_atom_site_fract_x
_atom_site_fract_y
_atom_site_fract_z
_atom_type_partial_charge
Sc0 Sc 0.16159 0.15951 0.33528 0.0
Sc1 Sc 0.12388 0.12329 0.36045 0.0
Sc2 Sc 0.12603 0.12774 0.30218 0.0
O3 O 0.13706 0.1369 0.3326 0.0
C4 C 0.13325 0.18003 0.29619 0.0
C5 C 0.12974 0.17296 0.37534 0.0
C6 C 0.08137 0.12971 0.32971 0.0
C7 C 0.17518 0.12414 0.37153 0.0
C8 C 0.17755 0.13177 0.29324 0.0
C9 C 0.12701 0.08184 0.32838 0.0
O10 O 0.14564 0.18236 0.31302 0.0
O11 O 0.11902 0.15495 0.37593 0.0
O12 O 0.09196 0.13157 0.31167 0.0
O13 O 0.17981 0.13834 0.35683 0.0
O14 O 0.15887 0.12308 0.28916 0.0
O15 O 0.1272 0.09057 0.34746 0.0
O16 O 0.18055 0.14556 0.30875 0.0
O17 O 0.15562 0.1181 0.37608 0.0
O18 O 0.12562 0.09302 0.31063 0.0
O19 O 0.14592 0.17628 0.36239 0.0
O20 O 0.12556 0.16138 0.29019 0.0
O21 O 0.09074 0.12607 0.34813 0.0
Sc22 Sc 0.87004 0.12518 0.30299 0.0
Sc23 Sc 0.87322 0.12274 0.36118 0.0
Sc24 Sc 0.83432 0.15758 0.33541 0.0
O25 O 0.85919 0.13514 0.33319 0.0
C26 C 0.86272 0.17656 0.2949 0.0
C27 C 0.91514 0.12867 0.33025 0.0
C28 C 0.86681 0.17355 0.3735 0.0
C29 C 0.87009 0.08012 0.32998 0.0
C30 C 0.81775 0.12855 0.29501 0.0
C31 C 0.82262 0.12425 0.37464 0.0
O32 O 0.87301 0.15862 0.29111 0.0
O33 O 0.90603 0.12825 0.34913 0.0
O34 O 0.85201 0.17701 0.35905 0.0
O35 O 0.86798 0.09079 0.312 0.0
O36 O 0.81387 0.14039 0.31192 0.0
O37 O 0.84165 0.11557 0.37616 0.0
O38 O 0.83713 0.12254 0.28955 0.0
O39 O 0.87286 0.08948 0.34858 0.0
O40 O 0.81799 0.1397 0.36123 0.0
O41 O 0.90438 0.12676 0.31232 0.0
O42 O 0.8479 0.17827 0.30972 0.0
O43 O 0.8758 0.15484 0.37662 0.0
Sc44 Sc 0.86685 0.86776 0.30537 0.0
Sc45 Sc 0.87141 0.87187 0.36343 0.0
Sc46 Sc 0.83353 0.83453 0.33976 0.0
O47 O 0.85726 0.85806 0.33616 0.0
C48 C 0.81461 0.86222 0.29901 0.0
C49 C 0.86638 0.91354 0.33143 0.0
C50 C 0.8211 0.86874 0.37794 0.0
C51 C 0.91276 0.86619 0.33129 0.0
C52 C 0.86086 0.81563 0.29877 0.0
C53 C 0.8675 0.82151 0.37788 0.0
O54 O 0.83322 0.87039 0.2936 0.0
O55 O 0.8685 0.90471 0.35035 0.0
O56 O 0.81655 0.85316 0.36464 0.0
O57 O 0.90154 0.86614 0.31353 0.0
O58 O 0.84781 0.81323 0.31506 0.0
O59 O 0.87637 0.84044 0.37949 0.0
O60 O 0.86923 0.83419 0.2935 0.0
O61 O 0.90409 0.86804 0.3503 0.0
O62 O 0.85206 0.81711 0.36438 0.0
O63 O 0.86557 0.90241 0.31364 0.0
O64 O 0.81221 0.84923 0.31535 0.0
O65 O 0.84007 0.87757 0.37933 0.0
Sc66 Sc 0.15759 0.83529 0.3341 0.0
Sc67 Sc 0.12209 0.87335 0.36025 0.0
Sc68 Sc 0.12387 0.87008 0.30197 0.0
O69 O 0.13448 0.85957 0.33211 0.0
C70 C 0.17527 0.86397 0.29328 0.0
C71 C 0.17339 0.86888 0.37141 0.0
C72 C 0.12555 0.91543 0.32889 0.0
C73 C 0.12576 0.82282 0.37417 0.0
C74 C 0.12849 0.81787 0.29405 0.0
C75 C 0.07918 0.86848 0.32982 0.0
O76 O 0.1776 0.84947 0.30831 0.0
O77 O 0.15464 0.87786 0.37447 0.0
O78 O 0.12504 0.90452 0.31098 0.0
O79 O 0.14054 0.81833 0.36002 0.0
O80 O 0.12166 0.83702 0.28873 0.0
O81 O 0.08867 0.87089 0.34843 0.0
O82 O 0.1408 0.81441 0.3107 0.0
O83 O 0.11702 0.84178 0.37611 0.0
O84 O 0.08968 0.8675 0.31163 0.0
O85 O 0.17674 0.85351 0.35755 0.0
O86 O 0.157 0.8736 0.28946 0.0
O87 O 0.12496 0.90634 0.34777 0.0
Sc88 Sc 0.1262 0.86857 0.6924 0.0
Sc89 Sc 0.12171 0.87267 0.63437 0.0
Sc90 Sc 0.16004 0.83583 0.6582 0.0
O91 O 0.13596 0.85901 0.66168 0.0
C92 C 0.17843 0.86379 0.69884 0.0
C93 C 0.12587 0.91433 0.66653 0.0
C94 C 0.17224 0.87047 0.62033 0.0
C95 C 0.08038 0.86661 0.66628 0.0
C96 C 0.13266 0.81658 0.69906 0.0
C97 C 0.12664 0.82235 0.61987 0.0
O98 O 0.1596 0.87124 0.70441 0.0
O99 O 0.12318 0.90549 0.6477 0.0
O100 O 0.17671 0.85453 0.63322 0.0
O101 O 0.09163 0.86717 0.68401 0.0
O102 O 0.14611 0.8145 0.68306 0.0
O103 O 0.11783 0.84127 0.61792 0.0
O104 O 0.12372 0.83494 0.70411 0.0
O105 O 0.089 0.86787 0.64718 0.0
O106 O 0.14172 0.818 0.63377 0.0
O107 O 0.12779 0.90318 0.68422 0.0
O108 O 0.18122 0.85106 0.68237 0.0
O109 O 0.15328 0.87939 0.61909 0.0
Sc110 Sc 0.12694 0.12594 0.69636 0.0
Sc111 Sc 0.12457 0.12323 0.63795 0.0
Sc112 Sc 0.16322 0.15789 0.66409 0.0
O113 O 0.13816 0.13572 0.66617 0.0
C114 C 0.13431 0.17783 0.70346 0.0
C115 C 0.08218 0.12886 0.66875 0.0
C116 C 0.13153 0.17342 0.62471 0.0
C117 C 0.12754 0.08078 0.66921 0.0
C118 C 0.17876 0.12928 0.70547 0.0
C119 C 0.17587 0.12341 0.62652 0.0
O120 O 0.12517 0.15951 0.70835 0.0
O121 O 0.09142 0.12727 0.64999 0.0
O122 O 0.14729 0.17629 0.63826 0.0
O123 O 0.12772 0.09146 0.68731 0.0
O124 O 0.18243 0.14225 0.68942 0.0
O125 O 0.15627 0.11706 0.62256 0.0
O126 O 0.15961 0.122 0.71005 0.0
O127 O 0.12638 0.09007 0.65039 0.0
O128 O 0.1807 0.13769 0.64106 0.0
O129 O 0.09285 0.12856 0.68681 0.0
O130 O 0.14823 0.17985 0.68781 0.0
O131 O 0.12105 0.15534 0.62294 0.0
Sc132 Sc 0.83892 0.16223 0.66217 0.0
Sc133 Sc 0.87389 0.12341 0.63656 0.0
Sc134 Sc 0.87037 0.12596 0.69489 0.0
O135 O 0.86103 0.13714 0.66457 0.0
C136 C 0.86743 0.17766 0.70379 0.0
C137 C 0.87489 0.17477 0.6258 0.0
C138 C 0.91587 0.12484 0.66848 0.0
C139 C 0.8241 0.13126 0.62212 0.0
C140 C 0.81843 0.13385 0.70154 0.0
C141 C 0.86584 0.08138 0.66709 0.0
O142 O 0.85433 0.18132 0.68783 0.0
O143 O 0.88168 0.15524 0.62222 0.0
O144 O 0.90493 0.12622 0.68634 0.0
O145 O 0.82073 0.14649 0.63613 0.0
O146 O 0.83678 0.12502 0.70683 0.0
O147 O 0.86782 0.09053 0.6483 0.0
O148 O 0.81643 0.14726 0.68545 0.0
O149 O 0.84236 0.12116 0.62035 0.0
O150 O 0.86693 0.09194 0.68521 0.0
O151 O 0.85968 0.17949 0.63944 0.0
O152 O 0.87482 0.15856 0.70832 0.0
O153 O 0.90682 0.12332 0.64961 0.0
Sc154 Sc 0.83814 0.83394 0.66196 0.0
Sc155 Sc 0.87232 0.87333 0.63607 0.0
Sc156 Sc 0.86856 0.87126 0.69441 0.0
O157 O 0.85964 0.85958 0.66418 0.0
C158 C 0.81685 0.86256 0.70088 0.0
C159 C 0.82251 0.86482 0.62203 0.0
C160 C 0.86451 0.91566 0.66618 0.0
C161 C 0.87394 0.82207 0.62523 0.0
C162 C 0.86648 0.81941 0.70389 0.0
C163 C 0.91421 0.87208 0.66811 0.0
O164 O 0.81541 0.84834 0.68543 0.0
O165 O 0.84051 0.87544 0.62025 0.0
O166 O 0.86496 0.90521 0.68438 0.0
O167 O 0.85919 0.81699 0.63922 0.0
O168 O 0.87306 0.8388 0.70851 0.0
O169 O 0.90523 0.87328 0.64917 0.0
O170 O 0.854 0.81526 0.68757 0.0
O171 O 0.88007 0.84175 0.62142 0.0
O172 O 0.90321 0.87104 0.686 0.0
O173 O 0.81962 0.84934 0.6359 0.0
O174 O 0.83481 0.87233 0.70578 0.0
O175 O 0.86678 0.90629 0.64757 0.0
Sc176 Sc 0.33895 0.16249 0.16231 0.0
Sc177 Sc 0.36288 0.12393 0.12581 0.0
Sc178 Sc 0.30492 0.12998 0.12807 0.0
O179 O 0.33557 0.13882 0.13873 0.0
C180 C 0.29724 0.13528 0.17992 0.0
C181 C 0.37621 0.12811 0.17645 0.0
C182 C 0.32986 0.08347 0.13046 0.0
C183 C 0.37802 0.17402 0.12871 0.0
C184 C 0.29917 0.18227 0.13398 0.0
C185 C 0.33209 0.12966 0.08327 0.0
O186 O 0.31333 0.14851 0.18279 0.0
O187 O 0.37839 0.11935 0.15755 0.0
O188 O 0.31243 0.09511 0.12899 0.0
O189 O 0.36475 0.17881 0.14426 0.0
O190 O 0.29349 0.16372 0.1259 0.0
O191 O 0.35051 0.12601 0.09263 0.0
O192 O 0.31547 0.18444 0.14702 0.0
O193 O 0.37909 0.15505 0.11984 0.0
O194 O 0.31417 0.13218 0.09389 0.0
O195 O 0.36261 0.14352 0.18052 0.0
O196 O 0.29248 0.12695 0.16123 0.0
O197 O 0.34917 0.09166 0.13016 0.0
Sc198 Sc 0.8378 0.33115 0.15853 0.0
Sc199 Sc 0.87392 0.35909 0.12272 0.0
Sc200 Sc 0.87482 0.30067 0.12594 0.0
O201 O 0.86231 0.33028 0.1358 0.0
C202 C 0.86818 0.29324 0.1781 0.0
C203 C 0.86739 0.3728 0.17252 0.0
C204 C 0.91798 0.33041 0.12873 0.0
C205 C 0.82193 0.36702 0.12379 0.0
C206 C 0.82403 0.28894 0.12977 0.0
C207 C 0.87209 0.3278 0.08072 0.0
O208 O 0.85511 0.30949 0.18083 0.0
O209 O 0.87796 0.37427 0.1545 0.0
O210 O 0.90818 0.3119 0.13007 0.0
O211 O 0.81832 0.3519 0.13782 0.0
O212 O 0.84283 0.28609 0.12092 0.0
O213 O 0.87115 0.34661 0.08992 0.0
O214 O 0.82027 0.30384 0.14405 0.0
O215 O 0.84117 0.37294 0.11783 0.0
O216 O 0.87457 0.30987 0.09141 0.0
O217 O 0.852 0.35887 0.17574 0.0
O218 O 0.87595 0.28789 0.15928 0.0
O219 O 0.90785 0.34851 0.12534 0.0
Sc220 Sc 0.69138 0.86691 0.12879 0.0
Sc221 Sc 0.6333 0.86995 0.12444 0.0
Sc222 Sc 0.65791 0.83418 0.16326 0.0
O223 O 0.66087 0.85701 0.13883 0.0
C224 C 0.69882 0.8153 0.13533 0.0
C225 C 0.66503 0.86497 0.08299 0.0
C226 C 0.62003 0.81936 0.1299 0.0
C227 C 0.66477 0.91216 0.12904 0.0
C228 C 0.69854 0.8622 0.18113 0.0
C229 C 0.61886 0.86778 0.1748 0.0
O230 O 0.70298 0.83336 0.12538 0.0
O231 O 0.64595 0.86505 0.09171 0.0
O232 O 0.63418 0.81542 0.14488 0.0
O233 O 0.68264 0.90135 0.13147 0.0
O234 O 0.68138 0.85056 0.1845 0.0
O235 O 0.61777 0.87669 0.15585 0.0
O236 O 0.7043 0.8686 0.16197 0.0
O237 O 0.6462 0.90297 0.12562 0.0
O238 O 0.63206 0.85215 0.17948 0.0
O239 O 0.68272 0.86642 0.09421 0.0
O240 O 0.68362 0.81347 0.14975 0.0
O241 O 0.61747 0.83821 0.12106 0.0
Sc242 Sc 0.12663 0.69243 0.12619 0.0
Sc243 Sc 0.12362 0.63419 0.12314 0.0
Sc244 Sc 0.16059 0.65972 0.16027 0.0
O245 O 0.13694 0.66212 0.13652 0.0
C246 C 0.17849 0.70034 0.13175 0.0
C247 C 0.12795 0.6654 0.0809 0.0
C248 C 0.17448 0.62132 0.12701 0.0
C249 C 0.08139 0.66538 0.12781 0.0
C250 C 0.13198 0.7002 0.17822 0.0
C251 C 0.12759 0.62097 0.17388 0.0
O252 O 0.15983 0.70499 0.1233 0.0
O253 O 0.12626 0.6466 0.09006 0.0
O254 O 0.17849 0.63514 0.14226 0.0
O255 O 0.09227 0.68335 0.1281 0.0
O256 O 0.14532 0.68422 0.18102 0.0
O257 O 0.11875 0.61878 0.15498 0.0
O258 O 0.1238 0.70505 0.15947 0.0
O259 O 0.09049 0.64654 0.12606 0.0
O260 O 0.14275 0.63486 0.178 0.0
O261 O 0.12841 0.68339 0.09174 0.0
O262 O 0.18124 0.6845 0.14527 0.0
O263 O 0.1556 0.61902 0.11813 0.0
Sc264 Sc 0.33555 0.83871 0.83232 0.0
Sc265 Sc 0.36009 0.87321 0.87216 0.0
Sc266 Sc 0.30185 0.86943 0.8684 0.0
O267 O 0.33246 0.86042 0.85769 0.0
C268 C 0.29377 0.86651 0.81636 0.0
C269 C 0.37267 0.87433 0.82128 0.0
C270 C 0.32806 0.91504 0.86905 0.0
C271 C 0.37456 0.8235 0.86463 0.0
C272 C 0.29608 0.81751 0.86025 0.0
C273 C 0.32858 0.86603 0.91364 0.0
O274 O 0.3103 0.85414 0.81272 0.0
O275 O 0.37586 0.88054 0.84104 0.0
O276 O 0.31012 0.90412 0.86805 0.0
O277 O 0.36131 0.8205 0.84864 0.0
O278 O 0.29075 0.83555 0.86966 0.0
O279 O 0.34752 0.86791 0.90483 0.0
O280 O 0.31186 0.81604 0.8464 0.0
O281 O 0.37583 0.84152 0.87526 0.0
O282 O 0.31072 0.86665 0.90266 0.0
O283 O 0.3587 0.85969 0.81581 0.0
O284 O 0.28869 0.87331 0.83555 0.0
O285 O 0.34694 0.90604 0.87086 0.0
Sc286 Sc 0.16073 0.33442 0.83866 0.0
Sc287 Sc 0.1237 0.36093 0.87484 0.0
Sc288 Sc 0.12582 0.30256 0.87271 0.0
O289 O 0.13673 0.33261 0.86206 0.0
C290 C 0.13176 0.29402 0.82092 0.0
C291 C 0.12846 0.3734 0.82399 0.0
C292 C 0.08108 0.33024 0.87017 0.0
C293 C 0.17473 0.37312 0.87149 0.0
C294 C 0.17761 0.29392 0.86802 0.0
C295 C 0.12744 0.33021 0.91756 0.0
O296 O 0.14525 0.30987 0.81805 0.0
O297 O 0.1194 0.37597 0.84274 0.0
O298 O 0.09165 0.3121 0.87054 0.0
O299 O 0.17877 0.35903 0.8565 0.0
O300 O 0.1587 0.28941 0.87596 0.0
O301 O 0.12618 0.34891 0.90812 0.0
O302 O 0.18087 0.30973 0.85457 0.0
O303 O 0.15576 0.37579 0.88004 0.0
O304 O 0.12732 0.31204 0.90703 0.0
O305 O 0.14349 0.35926 0.82027 0.0
O306 O 0.12335 0.28945 0.83963 0.0
O307 O 0.09044 0.34899 0.87152 0.0
Sc308 Sc 0.69288 0.12851 0.86804 0.0
Sc309 Sc 0.63482 0.12487 0.87201 0.0
Sc310 Sc 0.65926 0.16413 0.83668 0.0
O311 O 0.66233 0.13918 0.85893 0.0
C312 C 0.70036 0.18094 0.86461 0.0
C313 C 0.66725 0.12741 0.91377 0.0
C314 C 0.62103 0.17534 0.87136 0.0
C315 C 0.66576 0.08322 0.86487 0.0
C316 C 0.69963 0.13636 0.81653 0.0
C317 C 0.6208 0.13164 0.8217 0.0
O318 O 0.70613 0.16158 0.87045 0.0
O319 O 0.64846 0.12461 0.90479 0.0
O320 O 0.63374 0.18009 0.85536 0.0
O321 O 0.68367 0.09407 0.86656 0.0
O322 O 0.68461 0.15102 0.81526 0.0
O323 O 0.61821 0.12273 0.84052 0.0
O324 O 0.70387 0.1259 0.83427 0.0
O325 O 0.64683 0.09222 0.86562 0.0
O326 O 0.63526 0.14632 0.81776 0.0
O327 O 0.68491 0.13012 0.90272 0.0
O328 O 0.68306 0.1847 0.85331 0.0
O329 O 0.62008 0.15631 0.88012 0.0
Sc330 Sc 0.83581 0.66295 0.83819 0.0
Sc331 Sc 0.873 0.63615 0.87374 0.0
Sc332 Sc 0.87127 0.69453 0.87138 0.0
O333 O 0.86014 0.66458 0.86108 0.0
C334 C 0.8652 0.70182 0.81915 0.0
C335 C 0.86725 0.62301 0.82358 0.0
C336 C 0.91578 0.66682 0.86898 0.0
C337 C 0.82145 0.62596 0.87229 0.0
C338 C 0.82005 0.70456 0.86669 0.0
C339 C 0.86968 0.66675 0.91631 0.0
O340 O 0.8526 0.68525 0.81616 0.0
O341 O 0.87825 0.62204 0.84142 0.0
O342 O 0.90527 0.68494 0.86757 0.0
O343 O 0.81704 0.64145 0.85888 0.0
O344 O 0.83845 0.70769 0.87633 0.0
O345 O 0.8694 0.64793 0.90698 0.0
O346 O 0.81733 0.68975 0.85212 0.0
O347 O 0.84098 0.62056 0.87779 0.0
O348 O 0.87123 0.68482 0.90567 0.0
O349 O 0.85086 0.63583 0.82092 0.0
O350 O 0.87243 0.70743 0.83811 0.0
O351 O 0.90632 0.64831 0.87194 0.0
Sc352 Sc 0.12973 0.30639 0.12969 0.0
Sc353 Sc 0.12586 0.36447 0.12627 0.0
Sc354 Sc 0.16488 0.33978 0.16177 0.0
O355 O 0.14017 0.33687 0.13922 0.0
C356 C 0.13707 0.29903 0.18119 0.0
C357 C 0.08424 0.33322 0.13231 0.0
C358 C 0.13171 0.37765 0.1769 0.0
C359 C 0.12943 0.33263 0.08418 0.0
C360 C 0.18217 0.29907 0.13356 0.0
C361 C 0.17619 0.37875 0.12793 0.0
O362 O 0.12679 0.29497 0.16331 0.0
O363 O 0.09317 0.35217 0.13168 0.0
O364 O 0.14665 0.36343 0.18074 0.0
O365 O 0.13175 0.31484 0.09514 0.0
O366 O 0.18579 0.31627 0.14507 0.0
O367 O 0.1572 0.37977 0.1191 0.0
O368 O 0.16288 0.29332 0.1275 0.0
O369 O 0.12652 0.35135 0.09326 0.0
O370 O 0.18094 0.36566 0.14363 0.0
O371 O 0.09522 0.31536 0.13089 0.0
O372 O 0.15167 0.31408 0.18276 0.0
O373 O 0.12288 0.38037 0.15806 0.0
Sc374 Sc 0.1276 0.69304 0.86906 0.0
Sc375 Sc 0.12398 0.63482 0.87229 0.0
Sc376 Sc 0.16103 0.65969 0.83493 0.0
O377 O 0.13754 0.66254 0.85877 0.0
C378 C 0.13284 0.7006 0.81703 0.0
C379 C 0.08212 0.66648 0.86759 0.0
C380 C 0.12748 0.62126 0.82168 0.0
C381 C 0.12918 0.66617 0.91438 0.0
C382 C 0.17957 0.70034 0.86309 0.0
C383 C 0.17446 0.62105 0.86819 0.0
O384 O 0.12497 0.70563 0.83585 0.0
O385 O 0.09109 0.64758 0.86928 0.0
O386 O 0.14278 0.63495 0.81739 0.0
O387 O 0.12929 0.68415 0.90351 0.0
O388 O 0.18214 0.68423 0.84984 0.0
O389 O 0.15558 0.61911 0.8771 0.0
O390 O 0.16096 0.70531 0.8715 0.0
O391 O 0.1274 0.64733 0.9053 0.0
O392 O 0.1787 0.63484 0.85295 0.0
O393 O 0.09307 0.6844 0.8675 0.0
O394 O 0.1458 0.68431 0.81408 0.0
O395 O 0.11869 0.61932 0.84062 0.0
Sc396 Sc 0.3362 0.16077 0.83866 0.0
Sc397 Sc 0.36195 0.12341 0.87479 0.0
Sc398 Sc 0.30369 0.12649 0.87222 0.0
O399 O 0.3339 0.13678 0.86186 0.0
C400 C 0.29475 0.17781 0.86665 0.0
C401 C 0.37339 0.17465 0.87266 0.0
C402 C 0.33141 0.12835 0.91713 0.0
C403 C 0.3753 0.12801 0.82468 0.0
C404 C 0.2969 0.13184 0.81987 0.0
C405 C 0.33023 0.08132 0.87084 0.0
O406 O 0.30966 0.18008 0.85208 0.0
O407 O 0.37836 0.15505 0.8783 0.0
O408 O 0.3133 0.12695 0.90653 0.0
O409 O 0.36311 0.14484 0.8218 0.0
O410 O 0.29102 0.12504 0.8389 0.0
O411 O 0.34895 0.09038 0.87368 0.0
O412 O 0.31369 0.14412 0.81675 0.0
O413 O 0.37581 0.11715 0.84261 0.0
O414 O 0.3124 0.09224 0.86908 0.0
O415 O 0.35797 0.17931 0.85925 0.0
O416 O 0.29129 0.15963 0.87655 0.0
O417 O 0.35024 0.128 0.90785 0.0
Sc418 Sc 0.86926 0.30453 0.8698 0.0
Sc419 Sc 0.87253 0.36282 0.87285 0.0
Sc420 Sc 0.83693 0.33734 0.8345 0.0
O421 O 0.85953 0.33488 0.85915 0.0
C422 C 0.86501 0.29572 0.81824 0.0
C423 C 0.91467 0.33138 0.86991 0.0
C424 C 0.87218 0.37405 0.8215 0.0
C425 C 0.86662 0.33157 0.91485 0.0
C426 C 0.81699 0.29803 0.86309 0.0
C427 C 0.82265 0.37717 0.86619 0.0
O428 O 0.87364 0.29169 0.83693 0.0
O429 O 0.90557 0.35025 0.87106 0.0
O430 O 0.85771 0.35965 0.81672 0.0
O431 O 0.8662 0.31364 0.90396 0.0
O432 O 0.81459 0.31441 0.8501 0.0
O433 O 0.84069 0.37826 0.87679 0.0
O434 O 0.83564 0.29243 0.87111 0.0
O435 O 0.8688 0.3504 0.90584 0.0
O436 O 0.81948 0.36388 0.85029 0.0
O437 O 0.90379 0.31341 0.86938 0.0
O438 O 0.8512 0.31121 0.81524 0.0
O439 O 0.87854 0.37813 0.84108 0.0
Sc440 Sc 0.69395 0.87259 0.87132 0.0
Sc441 Sc 0.63558 0.87415 0.87432 0.0
Sc442 Sc 0.66211 0.83633 0.83886 0.0
O443 O 0.6639 0.86105 0.8615 0.0
C444 C 0.70193 0.86518 0.81964 0.0
C445 C 0.66567 0.91699 0.86812 0.0
C446 C 0.62276 0.86794 0.82371 0.0
C447 C 0.66687 0.8719 0.91665 0.0
C448 C 0.70318 0.82081 0.86816 0.0
C449 C 0.62386 0.82291 0.87241 0.0
O450 O 0.70657 0.87435 0.83798 0.0
O451 O 0.64707 0.90749 0.87026 0.0
O452 O 0.63695 0.85289 0.82025 0.0
O453 O 0.68489 0.87168 0.90583 0.0
O454 O 0.68715 0.8169 0.85515 0.0
O455 O 0.62104 0.84206 0.88051 0.0
O456 O 0.70764 0.84003 0.87531 0.0
O457 O 0.64802 0.87287 0.90746 0.0
O458 O 0.63787 0.81863 0.85744 0.0
O459 O 0.6839 0.90657 0.86815 0.0
O460 O 0.68628 0.85133 0.8175 0.0
O461 O 0.62029 0.87745 0.84224 0.0
Sc462 Sc 0.8357 0.65922 0.16153 0.0
Sc463 Sc 0.87376 0.63485 0.12489 0.0
Sc464 Sc 0.8694 0.693 0.12812 0.0
O465 O 0.85961 0.66239 0.13817 0.0
C466 C 0.81721 0.69979 0.1333 0.0
C467 C 0.82335 0.62072 0.12759 0.0
C468 C 0.86955 0.66639 0.08277 0.0
C469 C 0.86907 0.62095 0.17532 0.0
C470 C 0.86326 0.70038 0.18002 0.0
C471 C 0.91515 0.6667 0.13063 0.0
O472 O 0.81445 0.68332 0.14605 0.0
O473 O 0.84226 0.61938 0.11861 0.0
O474 O 0.86773 0.68427 0.09363 0.0
O475 O 0.85403 0.63493 0.17959 0.0
O476 O 0.87181 0.70531 0.16146 0.0
O477 O 0.90639 0.64767 0.12953 0.0
O478 O 0.85004 0.68422 0.18255 0.0
O479 O 0.87778 0.6188 0.15639 0.0
O480 O 0.90405 0.68453 0.12969 0.0
O481 O 0.81888 0.63395 0.14325 0.0
O482 O 0.83602 0.7052 0.12563 0.0
O483 O 0.87217 0.6477 0.09193 0.0
Sc484 Sc 0.33129 0.8388 0.15891 0.0
Sc485 Sc 0.35801 0.87494 0.12197 0.0
Sc486 Sc 0.29945 0.87252 0.1241 0.0
O487 O 0.32955 0.86213 0.13497 0.0
C488 C 0.29123 0.82069 0.12995 0.0
C489 C 0.36981 0.82405 0.12598 0.0
C490 C 0.32726 0.87017 0.07946 0.0
C491 C 0.36956 0.87216 0.17305 0.0
C492 C 0.29074 0.86792 0.17585 0.0
C493 C 0.32712 0.91744 0.12564 0.0
O494 O 0.30715 0.81789 0.14334 0.0
O495 O 0.37288 0.84287 0.11727 0.0
O496 O 0.3091 0.86986 0.08999 0.0
O497 O 0.35512 0.85753 0.17711 0.0
O498 O 0.28626 0.87602 0.15699 0.0
O499 O 0.3459 0.90812 0.12457 0.0
O500 O 0.30647 0.85437 0.17899 0.0
O501 O 0.37325 0.8798 0.15388 0.0
O502 O 0.309 0.90681 0.1255 0.0
O503 O 0.35585 0.82047 0.14119 0.0
O504 O 0.28637 0.83943 0.12176 0.0
O505 O 0.34593 0.87217 0.08883 0.0
Sc506 Sc 0.69529 0.12252 0.1258 0.0
Sc507 Sc 0.63686 0.12196 0.12239 0.0
Sc508 Sc 0.66374 0.15884 0.15821 0.0
O509 O 0.66533 0.13431 0.1355 0.0
C510 C 0.70151 0.12859 0.17825 0.0
C511 C 0.66642 0.0786 0.12843 0.0
C512 C 0.62244 0.12888 0.17208 0.0
C513 C 0.66855 0.12419 0.08033 0.0
C514 C 0.70639 0.17348 0.13068 0.0
C515 C 0.62818 0.17388 0.12279 0.0
O516 O 0.70726 0.12085 0.15952 0.0
O517 O 0.64797 0.08834 0.12595 0.0
O518 O 0.63607 0.14451 0.17517 0.0
O519 O 0.68651 0.12313 0.09121 0.0
O520 O 0.69112 0.17672 0.14465 0.0
O521 O 0.62272 0.15448 0.11683 0.0
O522 O 0.70948 0.15491 0.12142 0.0
O523 O 0.64963 0.1241 0.08943 0.0
O524 O 0.64299 0.17788 0.13707 0.0
O525 O 0.68478 0.08877 0.1289 0.0
O526 O 0.68532 0.14179 0.18069 0.0
O527 O 0.62131 0.11808 0.15417 0.0
Sc528 Sc 0.66165 0.65694 0.83268 0.0
Sc529 Sc 0.62224 0.62301 0.85862 0.0
Sc530 Sc 0.62447 0.62625 0.80021 0.0
O531 O 0.63604 0.63544 0.83047 0.0
C532 C 0.63307 0.67801 0.79362 0.0
C533 C 0.63069 0.67285 0.87244 0.0
C534 C 0.57992 0.63029 0.82814 0.0
C535 C 0.67351 0.62158 0.86978 0.0
C536 C 0.67636 0.62851 0.79093 0.0
C537 C 0.62403 0.58081 0.82685 0.0
O538 O 0.6472 0.67948 0.80914 0.0
O539 O 0.61987 0.65497 0.87419 0.0
O540 O 0.59044 0.6295 0.81 0.0
O541 O 0.67864 0.63608 0.85554 0.0
O542 O 0.65701 0.62184 0.78624 0.0
O543 O 0.62287 0.58997 0.84572 0.0
O544 O 0.68039 0.64105 0.80722 0.0
O545 O 0.6538 0.61557 0.87365 0.0
O546 O 0.62466 0.59164 0.80884 0.0
O547 O 0.64629 0.67555 0.85868 0.0
O548 O 0.62333 0.66002 0.78868 0.0
O549 O 0.58924 0.62845 0.84684 0.0
Sc550 Sc 0.36844 0.62794 0.80366 0.0
Sc551 Sc 0.37155 0.62409 0.86184 0.0
Sc552 Sc 0.3339 0.66089 0.83693 0.0
O553 O 0.35796 0.63762 0.83413 0.0
C554 C 0.36235 0.67974 0.79654 0.0
C555 C 0.4137 0.62874 0.83054 0.0
C556 C 0.36782 0.67479 0.87488 0.0
C557 C 0.36622 0.5824 0.83019 0.0
C558 C 0.31628 0.63287 0.79597 0.0
C559 C 0.3211 0.62787 0.87588 0.0
O560 O 0.37137 0.66136 0.79184 0.0
O561 O 0.4046 0.62653 0.8493 0.0
O562 O 0.35219 0.67876 0.86145 0.0
O563 O 0.3666 0.59338 0.81226 0.0
O564 O 0.31306 0.64532 0.81259 0.0
O565 O 0.34011 0.61929 0.87783 0.0
O566 O 0.33528 0.62556 0.79074 0.0
O567 O 0.36779 0.59127 0.84915 0.0
O568 O 0.31657 0.64283 0.86191 0.0
O569 O 0.40281 0.62963 0.81263 0.0
O570 O 0.34841 0.68193 0.8121 0.0
O571 O 0.3769 0.65596 0.87689 0.0
Sc572 Sc 0.36999 0.37148 0.8036 0.0
Sc573 Sc 0.37412 0.37407 0.86187 0.0
Sc574 Sc 0.33894 0.33517 0.83661 0.0
O575 O 0.36098 0.36032 0.834 0.0
C576 C 0.318 0.36394 0.79764 0.0
C577 C 0.36731 0.41631 0.83124 0.0
C578 C 0.32427 0.36676 0.87633 0.0
C579 C 0.4158 0.37139 0.82967 0.0
C580 C 0.36661 0.31964 0.79461 0.0
C581 C 0.3746 0.3228 0.87324 0.0
O582 O 0.33619 0.37311 0.79239 0.0
O583 O 0.36954 0.40709 0.84995 0.0
O584 O 0.32109 0.35106 0.86279 0.0
O585 O 0.40466 0.37063 0.81186 0.0
O586 O 0.354 0.31596 0.81094 0.0
O587 O 0.38104 0.34241 0.87693 0.0
O588 O 0.37378 0.3388 0.7899 0.0
O589 O 0.40698 0.37287 0.84866 0.0
O590 O 0.35982 0.31788 0.85922 0.0
O591 O 0.3672 0.40562 0.81319 0.0
O592 O 0.31631 0.35001 0.81333 0.0
O593 O 0.34237 0.37726 0.87773 0.0
Sc594 Sc 0.66209 0.33623 0.8362 0.0
Sc595 Sc 0.62344 0.37241 0.86043 0.0
Sc596 Sc 0.62742 0.36851 0.80234 0.0
O597 O 0.63764 0.35905 0.83297 0.0
C598 C 0.67959 0.36423 0.79516 0.0
C599 C 0.67416 0.37123 0.87381 0.0
C600 C 0.62624 0.41421 0.82819 0.0
C601 C 0.62966 0.32229 0.87518 0.0
C602 C 0.63445 0.31656 0.79572 0.0
C603 C 0.58192 0.36556 0.82902 0.0
O604 O 0.68269 0.35159 0.81164 0.0
O605 O 0.65507 0.37985 0.87524 0.0
O606 O 0.62854 0.40317 0.81048 0.0
O607 O 0.64451 0.31815 0.86099 0.0
O608 O 0.6253 0.33483 0.79071 0.0
O609 O 0.59073 0.36674 0.84804 0.0
O610 O 0.64807 0.31462 0.81161 0.0
O611 O 0.62054 0.34106 0.87717 0.0
O612 O 0.59295 0.36661 0.81117 0.0
O613 O 0.67875 0.35532 0.86092 0.0
O614 O 0.66065 0.3716 0.78986 0.0
O615 O 0.62381 0.40523 0.847 0.0
Sc616 Sc 0.62433 0.37037 0.19376 0.0
Sc617 Sc 0.62075 0.37464 0.13549 0.0
Sc618 Sc 0.658 0.33721 0.16003 0.0
O619 O 0.63433 0.36076 0.16312 0.0
C620 C 0.67651 0.36518 0.2006 0.0
C621 C 0.62551 0.41614 0.16759 0.0
C622 C 0.67134 0.37145 0.12215 0.0
C623 C 0.57888 0.3692 0.16703 0.0
C624 C 0.63027 0.31836 0.20068 0.0
C625 C 0.62392 0.324 0.12205 0.0
O626 O 0.65781 0.37319 0.20593 0.0
O627 O 0.62368 0.4074 0.1486 0.0
O628 O 0.6755 0.35594 0.13562 0.0
O629 O 0.58981 0.36847 0.18496 0.0
O630 O 0.64353 0.31603 0.18458 0.0
O631 O 0.61566 0.34311 0.11953 0.0
O632 O 0.62178 0.33688 0.20583 0.0
O633 O 0.5879 0.37145 0.14822 0.0
O634 O 0.63912 0.31965 0.13581 0.0
O635 O 0.62594 0.40494 0.18535 0.0
O636 O 0.67908 0.35209 0.18439 0.0
O637 O 0.65237 0.38006 0.1199 0.0
Sc638 Sc 0.62906 0.62835 0.1932 0.0
Sc639 Sc 0.62601 0.62251 0.1352 0.0
Sc640 Sc 0.66274 0.66105 0.15873 0.0
O641 O 0.63925 0.63731 0.1624 0.0
C642 C 0.63448 0.68048 0.19897 0.0
C643 C 0.58374 0.627 0.16654 0.0
C644 C 0.62836 0.67283 0.12047 0.0
C645 C 0.63201 0.58199 0.16816 0.0
C646 C 0.68122 0.63433 0.20021 0.0
C647 C 0.67626 0.62726 0.12069 0.0
O648 O 0.62581 0.66208 0.20423 0.0
O649 O 0.59294 0.62432 0.14788 0.0
O650 O 0.64386 0.67769 0.13379 0.0
O651 O 0.6312 0.59352 0.18572 0.0
O652 O 0.68406 0.64657 0.18335 0.0
O653 O 0.65751 0.61805 0.11917 0.0
O654 O 0.6624 0.62676 0.20576 0.0
O655 O 0.63063 0.59024 0.14891 0.0
O656 O 0.68039 0.64278 0.13415 0.0
O657 O 0.59459 0.62913 0.18438 0.0
O658 O 0.64809 0.6825 0.1831 0.0
O659 O 0.61979 0.65372 0.11911 0.0
Sc660 Sc 0.3388 0.65794 0.16547 0.0
Sc661 Sc 0.37437 0.62128 0.13801 0.0
Sc662 Sc 0.37236 0.62227 0.19644 0.0
O663 O 0.36181 0.6337 0.16666 0.0
C664 C 0.36811 0.67322 0.20677 0.0
C665 C 0.37315 0.67311 0.12895 0.0
C666 C 0.41716 0.62344 0.16847 0.0
C667 C 0.3243 0.62756 0.12472 0.0
C668 C 0.3201 0.62859 0.20437 0.0
C669 C 0.36873 0.57821 0.16822 0.0
O670 O 0.353 0.67602 0.19249 0.0
O671 O 0.37909 0.65373 0.1234 0.0
O672 O 0.40665 0.6219 0.18659 0.0
O673 O 0.32138 0.64336 0.13819 0.0
O674 O 0.33919 0.62168 0.21 0.0
O675 O 0.3715 0.58779 0.14972 0.0
O676 O 0.31689 0.64068 0.18748 0.0
O677 O 0.34225 0.61685 0.12338 0.0
O678 O 0.3681 0.5885 0.18651 0.0
O679 O 0.3593 0.67708 0.14417 0.0
O680 O 0.37791 0.65487 0.20944 0.0
O681 O 0.40765 0.62397 0.14977 0.0
Sc682 Sc 0.33212 0.33463 0.15781 0.0
Sc683 Sc 0.3716 0.37017 0.13386 0.0
Sc684 Sc 0.36701 0.36637 0.1918 0.0
O685 O 0.35689 0.35707 0.16116 0.0
C686 C 0.31461 0.36232 0.19885 0.0
C687 C 0.32131 0.36908 0.11924 0.0
C688 C 0.36759 0.41196 0.16592 0.0
C689 C 0.36545 0.31991 0.11983 0.0
C690 C 0.35983 0.31474 0.19836 0.0
C691 C 0.4128 0.36384 0.16561 0.0
O692 O 0.31104 0.35092 0.18156 0.0
O693 O 0.34042 0.37769 0.11837 0.0
O694 O 0.36487 0.40095 0.18362 0.0
O695 O 0.35035 0.31595 0.13385 0.0
O696 O 0.36994 0.33264 0.20277 0.0
O697 O 0.40414 0.36437 0.14652 0.0
O698 O 0.34531 0.31327 0.18321 0.0
O699 O 0.37449 0.33869 0.11757 0.0
O700 O 0.40158 0.36541 0.18328 0.0
O701 O 0.31629 0.35333 0.13218 0.0
O702 O 0.33387 0.36839 0.20462 0.0
O703 O 0.37098 0.40298 0.14725 0.0
Sc704 Sc 0.8342 0.6611 0.6582 0.0
Sc705 Sc 0.85979 0.62377 0.62193 0.0
Sc706 Sc 0.80153 0.62733 0.62425 0.0
O707 O 0.8318 0.6373 0.63482 0.0
C708 C 0.79448 0.63235 0.67656 0.0
C709 C 0.87298 0.62796 0.67221 0.0
C710 C 0.82773 0.58195 0.62551 0.0
C711 C 0.87181 0.6748 0.6245 0.0
C712 C 0.79314 0.67875 0.63005 0.0
C713 C 0.82936 0.62919 0.57944 0.0
O714 O 0.8113 0.64455 0.67986 0.0
O715 O 0.87359 0.61727 0.65418 0.0
O716 O 0.80994 0.59296 0.62714 0.0
O717 O 0.8564 0.67954 0.6379 0.0
O718 O 0.78945 0.66063 0.62011 0.0
O719 O 0.84818 0.62861 0.58877 0.0
O720 O 0.80804 0.68079 0.64465 0.0
O721 O 0.87648 0.65521 0.61863 0.0
O722 O 0.81124 0.62794 0.59 0.0
O723 O 0.86077 0.64476 0.67516 0.0
O724 O 0.78872 0.62569 0.65746 0.0
O725 O 0.84652 0.59093 0.62291 0.0
Sc726 Sc 0.33642 0.83665 0.6629 0.0
Sc727 Sc 0.37092 0.8621 0.62355 0.0
Sc728 Sc 0.36848 0.80378 0.62735 0.0
O729 O 0.35859 0.83415 0.63789 0.0
C730 C 0.36513 0.79544 0.67918 0.0
C731 C 0.3718 0.87388 0.67463 0.0
C732 C 0.4135 0.83095 0.62593 0.0
C733 C 0.32097 0.87601 0.63124 0.0
C734 C 0.31657 0.79668 0.63491 0.0
C735 C 0.36377 0.83064 0.58217 0.0
O736 O 0.35178 0.81128 0.68243 0.0
O737 O 0.37817 0.87737 0.65496 0.0
O738 O 0.40285 0.81294 0.62761 0.0
O739 O 0.31801 0.86242 0.64693 0.0
O740 O 0.3351 0.79143 0.62645 0.0
O741 O 0.36532 0.8496 0.59098 0.0
O742 O 0.31417 0.81299 0.648 0.0
O743 O 0.33905 0.87764 0.62079 0.0
O744 O 0.36512 0.81273 0.59306 0.0
O745 O 0.35713 0.8598 0.67983 0.0
O746 O 0.37292 0.79088 0.66024 0.0
O747 O 0.40415 0.84964 0.62397 0.0
Sc748 Sc 0.19469 0.37249 0.62777 0.0
Sc749 Sc 0.1364 0.37458 0.62433 0.0
Sc750 Sc 0.16225 0.33796 0.66152 0.0
O751 O 0.16446 0.3617 0.63786 0.0
C752 C 0.20325 0.32083 0.63282 0.0
C753 C 0.16785 0.37117 0.58227 0.0
C754 C 0.12439 0.32345 0.62802 0.0
C755 C 0.16706 0.41728 0.62942 0.0
C756 C 0.20228 0.3667 0.67988 0.0
C757 C 0.12279 0.37024 0.67488 0.0
O758 O 0.20737 0.33946 0.62402 0.0
O759 O 0.14892 0.3718 0.5913 0.0
O760 O 0.13847 0.31951 0.64303 0.0
O761 O 0.1852 0.40673 0.6305 0.0
O762 O 0.18588 0.35391 0.68275 0.0
O763 O 0.12092 0.37948 0.65613 0.0
O764 O 0.20755 0.37438 0.66102 0.0
O765 O 0.14845 0.40785 0.62694 0.0
O766 O 0.13661 0.355 0.67891 0.0
O767 O 0.18575 0.37157 0.59326 0.0
O768 O 0.18781 0.31801 0.64679 0.0
O769 O 0.12151 0.34242 0.6195 0.0
Sc770 Sc 0.62946 0.19155 0.62656 0.0
Sc771 Sc 0.62524 0.13343 0.6236 0.0
Sc772 Sc 0.66201 0.15827 0.6614 0.0
O773 O 0.63889 0.16109 0.63718 0.0
C774 C 0.68123 0.19833 0.63265 0.0
C775 C 0.63034 0.16429 0.58135 0.0
C776 C 0.67586 0.11992 0.62808 0.0
C777 C 0.58369 0.16557 0.62819 0.0
C778 C 0.63443 0.19953 0.67872 0.0
C779 C 0.62816 0.11996 0.67426 0.0
O780 O 0.66303 0.20281 0.62316 0.0
O781 O 0.62883 0.14549 0.59051 0.0
O782 O 0.68 0.13382 0.64324 0.0
O783 O 0.59487 0.18335 0.62907 0.0
O784 O 0.64635 0.18258 0.68219 0.0
O785 O 0.61933 0.11828 0.65533 0.0
O786 O 0.62759 0.20489 0.65958 0.0
O787 O 0.59244 0.14662 0.62587 0.0
O788 O 0.64374 0.13331 0.67858 0.0
O789 O 0.6305 0.18227 0.59217 0.0
O790 O 0.68314 0.18314 0.64706 0.0
O791 O 0.65695 0.11765 0.61928 0.0
Sc792 Sc 0.83573 0.33885 0.33174 0.0
Sc793 Sc 0.8612 0.37388 0.37059 0.0
Sc794 Sc 0.80296 0.37093 0.36756 0.0
O795 O 0.83328 0.36124 0.35663 0.0
C796 C 0.79487 0.36757 0.31537 0.0
C797 C 0.87474 0.37226 0.31999 0.0
C798 C 0.82981 0.41621 0.36686 0.0
C799 C 0.87387 0.32321 0.36458 0.0
C800 C 0.79542 0.3194 0.35999 0.0
C801 C 0.83011 0.36812 0.41259 0.0
O802 O 0.81165 0.35554 0.31148 0.0
O803 O 0.87667 0.3804 0.33919 0.0
O804 O 0.81175 0.40547 0.3661 0.0
O805 O 0.85996 0.31984 0.34924 0.0
O806 O 0.79117 0.33737 0.37005 0.0
O807 O 0.84897 0.36933 0.40352 0.0
O808 O 0.81057 0.31775 0.34552 0.0
O809 O 0.8764 0.34178 0.37403 0.0
O810 O 0.81215 0.369 0.4018 0.0
O811 O 0.86096 0.35723 0.31513 0.0
O812 O 0.78965 0.37389 0.3347 0.0
O813 O 0.84859 0.407 0.36886 0.0
Sc814 Sc 0.66151 0.83783 0.33386 0.0
Sc815 Sc 0.62465 0.86187 0.37193 0.0
Sc816 Sc 0.62982 0.80378 0.36892 0.0
O817 O 0.63865 0.83447 0.35825 0.0
C818 C 0.63403 0.79643 0.3166 0.0
C819 C 0.627 0.87577 0.32143 0.0
C820 C 0.58357 0.82896 0.36827 0.0
C821 C 0.67492 0.87646 0.36701 0.0
C822 C 0.68167 0.7976 0.36176 0.0
C823 C 0.63112 0.83095 0.41409 0.0
O824 O 0.64585 0.81346 0.31315 0.0
O825 O 0.61808 0.87705 0.34036 0.0
O826 O 0.59499 0.81133 0.3676 0.0
O827 O 0.67934 0.86248 0.35198 0.0
O828 O 0.66366 0.79278 0.37146 0.0
O829 O 0.62915 0.84974 0.40494 0.0
O830 O 0.68318 0.81311 0.34766 0.0
O831 O 0.65598 0.87841 0.37581 0.0
O832 O 0.63129 0.81294 0.4033 0.0
O833 O 0.64283 0.86275 0.31702 0.0
O834 O 0.62743 0.79082 0.33577 0.0
O835 O 0.59207 0.84808 0.36995 0.0
Sc836 Sc 0.19277 0.62694 0.37068 0.0
Sc837 Sc 0.13454 0.62423 0.37318 0.0
Sc838 Sc 0.16055 0.66191 0.3372 0.0
O839 O 0.16263 0.6377 0.36036 0.0
C840 C 0.20116 0.67905 0.36572 0.0
C841 C 0.16576 0.62803 0.41573 0.0
C842 C 0.12152 0.67491 0.37031 0.0
C843 C 0.16515 0.58192 0.36826 0.0
C844 C 0.20109 0.63296 0.31911 0.0
C845 C 0.12199 0.62946 0.32229 0.0
O846 O 0.20636 0.65987 0.37257 0.0
O847 O 0.14713 0.62529 0.4064 0.0
O848 O 0.13493 0.67901 0.35471 0.0
O849 O 0.18318 0.5926 0.36981 0.0
O850 O 0.1861 0.64754 0.31687 0.0
O851 O 0.11891 0.62097 0.34123 0.0
O852 O 0.20487 0.62325 0.33737 0.0
O853 O 0.14634 0.59119 0.36853 0.0
O854 O 0.1366 0.64398 0.31836 0.0
O855 O 0.18377 0.62973 0.40503 0.0
O856 O 0.18437 0.68261 0.35361 0.0
O857 O 0.11986 0.65612 0.37949 0.0
Sc858 Sc 0.33608 0.16051 0.3375 0.0
Sc859 Sc 0.37434 0.13622 0.37378 0.0
Sc860 Sc 0.37063 0.19441 0.3695 0.0
O861 O 0.36045 0.16375 0.36023 0.0
C862 C 0.36376 0.19991 0.31705 0.0
C863 C 0.36832 0.1207 0.32438 0.0
C864 C 0.41599 0.16796 0.36684 0.0
C865 C 0.32314 0.12447 0.37337 0.0
C866 C 0.31908 0.20251 0.36484 0.0
C867 C 0.37102 0.16827 0.41528 0.0
O868 O 0.35199 0.18265 0.31459 0.0
O869 O 0.37909 0.12047 0.34233 0.0
O870 O 0.40499 0.18583 0.36588 0.0
O871 O 0.31821 0.13889 0.35895 0.0
O872 O 0.33742 0.20645 0.37427 0.0
O873 O 0.37154 0.14922 0.40652 0.0
O874 O 0.31671 0.18719 0.35071 0.0
O875 O 0.3428 0.12035 0.37948 0.0
O876 O 0.37132 0.18606 0.40412 0.0
O877 O 0.35197 0.1334 0.32098 0.0
O878 O 0.37083 0.20631 0.33582 0.0
O879 O 0.40715 0.14918 0.37001 0.0
Sc880 Sc 0.62494 0.80379 0.62535 0.0
Sc881 Sc 0.6222 0.86209 0.62315 0.0
Sc882 Sc 0.65991 0.83586 0.65898 0.0
O883 O 0.63565 0.8339 0.63585 0.0
C884 C 0.63117 0.79527 0.677 0.0
C885 C 0.57992 0.83126 0.62798 0.0
C886 C 0.62753 0.87449 0.67402 0.0
C887 C 0.62594 0.83124 0.58047 0.0
C888 C 0.67687 0.79548 0.62977 0.0
C889 C 0.67314 0.8746 0.62577 0.0
O890 O 0.62211 0.79101 0.65851 0.0
O891 O 0.5891 0.85012 0.6273 0.0
O892 O 0.6424 0.86018 0.67771 0.0
O893 O 0.62709 0.81317 0.59111 0.0
O894 O 0.68033 0.81169 0.64266 0.0
O895 O 0.65417 0.87681 0.61708 0.0
O896 O 0.6578 0.79057 0.62253 0.0
O897 O 0.62363 0.84989 0.58982 0.0
O898 O 0.67732 0.86093 0.64111 0.0
O899 O 0.59066 0.81324 0.62695 0.0
O900 O 0.64508 0.81082 0.67956 0.0
O901 O 0.61861 0.87733 0.65524 0.0
Sc902 Sc 0.62747 0.194 0.37006 0.0
Sc903 Sc 0.62448 0.13575 0.37257 0.0
Sc904 Sc 0.66068 0.16156 0.33499 0.0
O905 O 0.63756 0.16379 0.35923 0.0
C906 C 0.63195 0.20238 0.3181 0.0
C907 C 0.58224 0.16729 0.36944 0.0
C908 C 0.62674 0.12342 0.32163 0.0
C909 C 0.63033 0.16624 0.41495 0.0
C910 C 0.67917 0.20192 0.36374 0.0
C911 C 0.67505 0.1223 0.36688 0.0
O912 O 0.62474 0.20735 0.33719 0.0
O913 O 0.59139 0.14854 0.37174 0.0
O914 O 0.64248 0.13669 0.31757 0.0
O915 O 0.62913 0.18435 0.40434 0.0
O916 O 0.68159 0.18636 0.34982 0.0
O917 O 0.65617 0.11965 0.37561 0.0
O918 O 0.66074 0.20633 0.37281 0.0
O919 O 0.62943 0.14744 0.40566 0.0
O920 O 0.67913 0.1369 0.35239 0.0
O921 O 0.59309 0.1852 0.36803 0.0
O922 O 0.64463 0.186 0.31463 0.0
O923 O 0.61783 0.12146 0.34053 0.0
Sc924 Sc 0.84027 0.66284 0.33514 0.0
Sc925 Sc 0.86417 0.62459 0.37205 0.0
Sc926 Sc 0.80612 0.62832 0.3672 0.0
O927 O 0.83684 0.63857 0.35813 0.0
C928 C 0.79887 0.68061 0.36234 0.0
C929 C 0.87836 0.67506 0.36949 0.0
C930 C 0.83164 0.62907 0.41326 0.0
C931 C 0.87862 0.62925 0.32178 0.0
C932 C 0.79993 0.63491 0.31533 0.0
C933 C 0.83278 0.58273 0.36643 0.0
O934 O 0.81592 0.68387 0.35049 0.0
O935 O 0.87969 0.65607 0.37828 0.0
O936 O 0.81395 0.63028 0.40196 0.0
O937 O 0.86488 0.64452 0.31745 0.0
O938 O 0.79505 0.62546 0.33346 0.0
O939 O 0.85168 0.59167 0.3682 0.0
O940 O 0.81551 0.64892 0.31361 0.0
O941 O 0.88043 0.6203 0.34066 0.0
O942 O 0.81493 0.59378 0.36599 0.0
O943 O 0.8652 0.67963 0.35381 0.0
O944 O 0.7933 0.66154 0.36921 0.0
O945 O 0.85062 0.62676 0.40462 0.0
Sc946 Sc 0.37178 0.80075 0.37321 0.0
Sc947 Sc 0.37501 0.8592 0.37359 0.0
Sc948 Sc 0.34197 0.83179 0.3343 0.0
O949 O 0.36291 0.83057 0.36043 0.0
C950 C 0.37133 0.78993 0.32177 0.0
C951 C 0.41723 0.82758 0.37411 0.0
C952 C 0.37724 0.86875 0.32196 0.0
C953 C 0.36655 0.83006 0.41661 0.0
C954 C 0.32033 0.79354 0.36346 0.0
C955 C 0.32508 0.87216 0.36389 0.0
O956 O 0.37748 0.78591 0.34141 0.0
O957 O 0.40816 0.84653 0.3742 0.0
O958 O 0.36299 0.85421 0.31707 0.0
O959 O 0.367 0.81164 0.4066 0.0
O960 O 0.31914 0.80867 0.34891 0.0
O961 O 0.34278 0.87439 0.37495 0.0
O962 O 0.33813 0.78889 0.37366 0.0
O963 O 0.3693 0.84844 0.40689 0.0
O964 O 0.32284 0.85807 0.34851 0.0
O965 O 0.40631 0.80961 0.37378 0.0
O966 O 0.3586 0.80584 0.31685 0.0
O967 O 0.38282 0.87338 0.34165 0.0
Sc968 Sc 0.19332 0.37099 0.36946 0.0
Sc969 Sc 0.13518 0.3725 0.37497 0.0
Sc970 Sc 0.16003 0.33494 0.33814 0.0
O971 O 0.16287 0.35949 0.36086 0.0
C972 C 0.19948 0.36352 0.31759 0.0
C973 C 0.16525 0.41546 0.36867 0.0
C974 C 0.12099 0.36777 0.32463 0.0
C975 C 0.16807 0.36903 0.41587 0.0
C976 C 0.20191 0.31894 0.36579 0.0
C977 C 0.12229 0.32163 0.37228 0.0
O978 O 0.20444 0.3732 0.33558 0.0
O979 O 0.14684 0.40589 0.37177 0.0
O980 O 0.13472 0.35241 0.32051 0.0
O981 O 0.18568 0.36995 0.4044 0.0
O982 O 0.18516 0.31505 0.3537 0.0
O983 O 0.12009 0.34067 0.38073 0.0
O984 O 0.20693 0.33822 0.37247 0.0
O985 O 0.14885 0.36958 0.40746 0.0
O986 O 0.13592 0.31735 0.35698 0.0
O987 O 0.1834 0.40503 0.36715 0.0
O988 O 0.18403 0.34937 0.31622 0.0
O989 O 0.11919 0.37697 0.34341 0.0
Sc990 Sc 0.33606 0.16404 0.65774 0.0
Sc991 Sc 0.37548 0.13795 0.62384 0.0
Sc992 Sc 0.37295 0.19631 0.62657 0.0
O993 O 0.36154 0.16612 0.63606 0.0
C994 C 0.32108 0.20566 0.62926 0.0
C995 C 0.32416 0.12679 0.62249 0.0
C996 C 0.37387 0.16953 0.58147 0.0
C997 C 0.36703 0.12445 0.67384 0.0
C998 C 0.36503 0.20314 0.67823 0.0
C999 C 0.41762 0.16846 0.63086 0.0
O1000 O 0.31705 0.18925 0.64166 0.0
O1001 O 0.34382 0.12322 0.61607 0.0
O1002 O 0.37208 0.18751 0.59217 0.0
O1003 O 0.35166 0.13844 0.67664 0.0
O1004 O 0.37472 0.20784 0.66017 0.0
O1005 O 0.40837 0.14967 0.62981 0.0
O1006 O 0.35063 0.18788 0.67989 0.0
O1007 O 0.37747 0.12233 0.65579 0.0
O1008 O 0.40705 0.18653 0.62927 0.0
O1009 O 0.31913 0.14078 0.63727 0.0
O1010 O 0.34042 0.21041 0.62265 0.0
O1011 O 0.37576 0.15077 0.59074 0.0
Sc1012 Sc 0.83411 0.33737 0.658 0.0
Sc1013 Sc 0.85934 0.37472 0.62131 0.0
Sc1014 Sc 0.80099 0.37009 0.6233 0.0
O1015 O 0.83144 0.36072 0.63415 0.0
C1016 C 0.79456 0.31794 0.62927 0.0
C1017 C 0.87313 0.32442 0.62477 0.0
C1018 C 0.82868 0.3693 0.57867 0.0
C1019 C 0.87117 0.3719 0.67228 0.0
C1020 C 0.79262 0.36521 0.67507 0.0
C1021 C 0.82708 0.41593 0.62559 0.0
O1022 O 0.81083 0.31554 0.64233 0.0
O1023 O 0.87503 0.34326 0.61581 0.0
O1024 O 0.81058 0.36754 0.58918 0.0
O1025 O 0.85701 0.35702 0.67637 0.0
O1026 O 0.78797 0.3734 0.65629 0.0
O1027 O 0.84618 0.40726 0.62515 0.0
O1028 O 0.80859 0.35189 0.67807 0.0
O1029 O 0.87477 0.37947 0.65309 0.0
O1030 O 0.80933 0.40476 0.62427 0.0
O1031 O 0.85964 0.32024 0.64029 0.0
O1032 O 0.78899 0.33658 0.62133 0.0
O1033 O 0.84715 0.37244 0.58812 0.0
Sc1034 Sc 0.19129 0.62964 0.62802 0.0
Sc1035 Sc 0.13319 0.62509 0.62412 0.0
Sc1036 Sc 0.15702 0.66244 0.66186 0.0
O1037 O 0.16053 0.63906 0.63799 0.0
C1038 C 0.19809 0.6349 0.68024 0.0
C1039 C 0.16545 0.58371 0.62929 0.0
C1040 C 0.11889 0.62837 0.67456 0.0
C1041 C 0.16497 0.63065 0.58236 0.0
C1042 C 0.19764 0.68174 0.63427 0.0
C1043 C 0.11874 0.67541 0.62797 0.0
O1044 O 0.20342 0.627 0.6615 0.0
O1045 O 0.14642 0.59239 0.62746 0.0
O1046 O 0.13235 0.6438 0.67904 0.0
O1047 O 0.18282 0.63119 0.59342 0.0
O1048 O 0.18149 0.68387 0.64752 0.0
O1049 O 0.1172 0.65652 0.61899 0.0
O1050 O 0.20294 0.66332 0.62561 0.0
O1051 O 0.14608 0.62852 0.59125 0.0
O1052 O 0.13218 0.67976 0.64349 0.0
O1053 O 0.18321 0.59494 0.62946 0.0
O1054 O 0.18166 0.64772 0.68293 0.0
O1055 O 0.11728 0.61961 0.65558 0.0
H1056 H 0.11422 0.0549 0.29429 0.0
H1057 H 0.14332 0.05385 0.35947 0.0
H1058 H 0.11452 0.01454 0.2936 0.0
H1059 H 0.14438 0.0138 0.35848 0.0
H1060 H 0.11755 0.94447 0.36229 0.0
H1061 H 0.11861 0.98445 0.36098 0.0
H1062 H 0.13735 0.98191 0.29212 0.0
H1063 H 0.13554 0.94161 0.29323 0.0
C1064 C 0.12092 0.04606 0.30833 0.0
C1065 C 0.12845 0.05752 0.32705 0.0
C1066 C 0.1212 0.02295 0.3079 0.0
C1067 C 0.12923 0.01092 0.3261 0.0
C1068 C 0.13754 0.0225 0.34442 0.0
C1069 C 0.13701 0.04549 0.34495 0.0
C1070 C 0.12197 0.95237 0.34686 0.0
C1071 C 0.12653 0.93982 0.32788 0.0
C1072 C 0.1227 0.97535 0.34614 0.0
C1073 C 0.12827 0.98642 0.3265 0.0
C1074 C 0.13279 0.9739 0.30746 0.0
C1075 C 0.13186 0.95082 0.30813 0.0
H1076 H 0.05477 0.14321 0.29555 0.0
H1077 H 0.05274 0.11983 0.36304 0.0
H1078 H 0.01451 0.14519 0.29513 0.0
H1079 H 0.01274 0.12115 0.36235 0.0
H1080 H 0.94249 0.14389 0.3626 0.0
H1081 H 0.98255 0.14639 0.36177 0.0
H1082 H 0.98281 0.12108 0.29501 0.0
H1083 H 0.94259 0.11926 0.29557 0.0
C1084 C 0.04577 0.13844 0.31026 0.0
C1085 C 0.05699 0.13137 0.32933 0.0
C1086 C 0.0227 0.13949 0.30998 0.0
C1087 C 0.01041 0.13338 0.32872 0.0
C1088 C 0.02168 0.1264 0.34777 0.0
C1089 C 0.04467 0.1255 0.34811 0.0
C1090 C 0.95108 0.13893 0.3477 0.0
C1091 C 0.93939 0.13116 0.32923 0.0
C1092 C 0.97406 0.14029 0.34726 0.0
C1093 C 0.98591 0.1337 0.32842 0.0
C1094 C 0.97418 0.12649 0.30971 0.0
C1095 C 0.95113 0.12533 0.31007 0.0
H1096 H 0.85519 0.05352 0.29647 0.0
H1097 H 0.883 0.05141 0.36221 0.0
H1098 H 0.85285 0.01329 0.29624 0.0
H1099 H 0.88139 0.01137 0.36168 0.0
H1100 H 0.85566 0.94205 0.36454 0.0
H1101 H 0.85543 0.98215 0.36343 0.0
H1102 H 0.87491 0.98043 0.29474 0.0
H1103 H 0.87435 0.94013 0.29567 0.0
C1104 C 0.86097 0.04448 0.31079 0.0
C1105 C 0.86918 0.05569 0.3294 0.0
C1106 C 0.85971 0.02141 0.31062 0.0
C1107 C 0.8668 0.00907 0.32899 0.0
C1108 C 0.8753 0.02033 0.34744 0.0
C1109 C 0.87636 0.04334 0.34769 0.0
C1110 C 0.85983 0.95021 0.34917 0.0
C1111 C 0.86521 0.93791 0.33024 0.0
C1112 C 0.85982 0.97323 0.34856 0.0
C1113 C 0.86544 0.98456 0.32908 0.0
C1114 C 0.87031 0.97225 0.30997 0.0
C1115 C 0.87009 0.94915 0.31052 0.0
H1116 H 0.93953 0.87536 0.29598 0.0
H1117 H 0.94089 0.85278 0.36369 0.0
H1118 H 0.97984 0.875 0.29511 0.0
H1119 H 0.98098 0.85161 0.36259 0.0
H1120 H 0.05054 0.87893 0.36297 0.0
H1121 H 0.01052 0.87724 0.3624 0.0
H1122 H 0.01237 0.85239 0.29549 0.0
H1123 H 0.0526 0.85482 0.29578 0.0
C1124 C 0.94843 0.87003 0.31056 0.0
C1125 C 0.93706 0.86438 0.32999 0.0
C1126 C 0.97153 0.86971 0.31004 0.0
C1127 C 0.98367 0.8635 0.32886 0.0
C1128 C 0.97219 0.85703 0.34798 0.0
C1129 C 0.94918 0.8576 0.34858 0.0
C1130 C 0.04246 0.87304 0.34813 0.0
C1131 C 0.05479 0.86701 0.32942 0.0
C1132 C 0.01947 0.87194 0.34785 0.0
C1133 C 0.00819 0.86453 0.32895 0.0
C1134 C 0.02051 0.85841 0.31023 0.0
C1135 C 0.04357 0.85972 0.31043 0.0
H1136 H 0.13983 0.9402 0.70103 0.0
H1137 H 0.11337 0.94367 0.63478 0.0
H1138 H 0.14149 0.98047 0.70238 0.0
H1139 H 0.11434 0.98367 0.63641 0.0
H1140 H 0.13946 0.05318 0.6358 0.0
H1141 H 0.14024 0.0131 0.63605 0.0
H1142 H 0.11848 0.01297 0.70406 0.0
H1143 H 0.11845 0.0533 0.70404 0.0
C1144 C 0.13424 0.94953 0.68683 0.0
C1145 C 0.12659 0.93872 0.66776 0.0
C1146 C 0.1351 0.97261 0.68764 0.0
C1147 C 0.12819 0.9853 0.66945 0.0
C1148 C 0.12027 0.97442 0.65053 0.0
C1149 C 0.1196 0.95144 0.64965 0.0
C1150 C 0.13486 0.04463 0.65084 0.0
C1151 C 0.12869 0.05641 0.66984 0.0
C1152 C 0.13522 0.02162 0.65095 0.0
C1153 C 0.12914 0.0098 0.66998 0.0
C1154 C 0.12343 0.02157 0.68918 0.0
C1155 C 0.1233 0.04467 0.68914 0.0
H1156 H 0.05524 0.12058 0.70403 0.0
H1157 H 0.05408 0.14019 0.63537 0.0
H1158 H 0.01503 0.11991 0.70453 0.0
H1159 H 0.01391 0.14031 0.63609 0.0
H1160 H 0.94201 0.13923 0.70248 0.0
H1161 H 0.98222 0.14192 0.70302 0.0
H1162 H 0.98486 0.11395 0.63736 0.0
H1163 H 0.94483 0.11201 0.63653 0.0
C1164 C 0.0464 0.12507 0.68913 0.0
C1165 C 0.05783 0.13023 0.6696 0.0
C1166 C 0.02333 0.12477 0.68945 0.0
C1167 C 0.01123 0.12985 0.67029 0.0
C1168 C 0.02271 0.13579 0.65099 0.0
C1169 C 0.04575 0.13585 0.65061 0.0
C1170 C 0.95122 0.13361 0.68821 0.0
C1171 C 0.94024 0.1255 0.66944 0.0
C1172 C 0.97426 0.13509 0.68853 0.0
C1173 C 0.98677 0.12831 0.67017 0.0
C1174 C 0.97574 0.11982 0.65159 0.0
C1175 C 0.95276 0.11855 0.65118 0.0
H1176 H 0.84949 0.05496 0.63455 0.0
H1177 H 0.87462 0.05341 0.70136 0.0
H1178 H 0.84595 0.01494 0.63493 0.0
H1179 H 0.87195 0.01328 0.70146 0.0
H1180 H 0.85094 0.94168 0.70063 0.0
H1181 H 0.8481 0.98186 0.70131 0.0
H1182 H 0.87039 0.98445 0.63349 0.0
H1183 H 0.87241 0.9445 0.63256 0.0
C1184 C 0.85433 0.04604 0.64929 0.0
C1185 C 0.86256 0.05727 0.66784 0.0
C1186 C 0.85237 0.0231 0.6495 0.0
C1187 C 0.8589 0.01087 0.66813 0.0
C1188 C 0.86652 0.02219 0.68692 0.0
C1189 C 0.86819 0.04518 0.68683 0.0
C1190 C 0.85508 0.95086 0.68585 0.0
C1191 C 0.86195 0.93991 0.66657 0.0
C1192 C 0.85354 0.97388 0.68626 0.0
C1193 C 0.85903 0.98639 0.66747 0.0
C1194 C 0.86561 0.97535 0.64814 0.0
C1195 C 0.86693 0.9524 0.64766 0.0
H1196 H 0.94042 0.85838 0.70244 0.0
H1197 H 0.94312 0.88424 0.63592 0.0
H1198 H 0.98065 0.85538 0.70281 0.0
H1199 H 0.98311 0.88193 0.63656 0.0
H1200 H 0.05149 0.85426 0.63405 0.0
H1201 H 0.01137 0.85458 0.63559 0.0
H1202 H 0.01406 0.87708 0.7033 0.0
H1203 H 0.05431 0.87603 0.70199 0.0
C1204 C 0.9496 0.86365 0.68801 0.0
C1205 C 0.93858 0.87141 0.6691 0.0
C1206 C 0.97264 0.86197 0.68824 0.0
C1207 C 0.98508 0.86819 0.66962 0.0
C1208 C 0.97402 0.87646 0.65097 0.0
C1209 C 0.95107 0.87794 0.65066 0.0
C1210 C 0.04353 0.85916 0.64931 0.0
C1211 C 0.05607 0.86531 0.66783 0.0
C1212 C 0.02053 0.85946 0.65016 0.0
C1213 C 0.00951 0.86618 0.66946 0.0
C1214 C 0.02203 0.87167 0.68823 0.0
C1215 C 0.0451 0.87115 0.68745 0.0
H1216 H 0.29817 0.14366 0.05674 0.0
H1217 H 0.3648 0.11789 0.05464 0.0
H1218 H 0.29752 0.14504 0.01648 0.0
H1219 H 0.36386 0.11865 0.01461 0.0
H1220 H 0.29676 0.11918 0.9447 0.0
H1221 H 0.29653 0.12055 0.98495 0.0
H1222 H 0.36393 0.14418 0.98448 0.0
H1223 H 0.36441 0.14216 0.94442 0.0
C1224 C 0.31263 0.13821 0.04771 0.0
C1225 C 0.33155 0.1307 0.0589 0.0
C1226 C 0.31221 0.13891 0.02466 0.0
C1227 C 0.33066 0.13201 0.01236 0.0
C1228 C 0.34953 0.12449 0.02359 0.0
C1229 C 0.35001 0.12393 0.04657 0.0
C1230 C 0.31148 0.12476 0.95321 0.0
C1231 C 0.33068 0.13031 0.94141 0.0
C1232 C 0.31131 0.12565 0.97626 0.0
C1233 C 0.33027 0.1323 0.98791 0.0
C1234 C 0.34921 0.13852 0.97602 0.0
C1235 C 0.34945 0.13743 0.95305 0.0
H1236 H 0.87416 0.36492 0.94413 0.0
H1237 H 0.85688 0.29566 0.9407 0.0
H1238 H 0.87457 0.36286 0.98409 0.0
H1239 H 0.85663 0.29381 0.98096 0.0
H1240 H 0.88481 0.29489 0.05229 0.0
H1241 H 0.88211 0.29514 0.01199 0.0
H1242 H 0.85002 0.35889 0.01463 0.0
H1243 H 0.85336 0.35898 0.05453 0.0
C1244 C 0.87016 0.34931 0.95189 0.0
C1245 C 0.8655 0.33046 0.9392 0.0
C1246 C 0.87029 0.34815 0.97485 0.0
C1247 C 0.86555 0.32818 0.9857 0.0
C1248 C 0.86062 0.30936 0.97306 0.0
C1249 C 0.86063 0.31047 0.95001 0.0
C1250 C 0.87714 0.30889 0.0442 0.0
C1251 C 0.86963 0.32705 0.05651 0.0
C1252 C 0.87547 0.30899 0.02116 0.0
C1253 C 0.86606 0.32716 0.01013 0.0
C1254 C 0.85785 0.3449 0.02259 0.0
C1255 C 0.85973 0.34491 0.04548 0.0
H1256 H 0.6337 0.88142 0.94555 0.0
H1257 H 0.70169 0.85967 0.94299 0.0
H1258 H 0.63429 0.87877 0.9855 0.0
H1259 H 0.70204 0.85629 0.98317 0.0
H1260 H 0.70014 0.87636 0.05685 0.0
H1261 H 0.70132 0.87762 0.01661 0.0
H1262 H 0.6348 0.85177 0.01395 0.0
H1263 H 0.63335 0.85125 0.05406 0.0
C1264 C 0.64876 0.87591 0.95351 0.0
C1265 C 0.66764 0.8707 0.94105 0.0
C1266 C 0.64904 0.87424 0.97646 0.0
C1267 C 0.66813 0.86707 0.98757 0.0
C1268 C 0.68712 0.86205 0.97515 0.0
C1269 C 0.6869 0.86392 0.95212 0.0
C1270 C 0.68583 0.8708 0.04765 0.0
C1271 C 0.66656 0.86394 0.05864 0.0
C1272 C 0.68654 0.87144 0.02457 0.0
C1273 C 0.66807 0.86504 0.01203 0.0
C1274 C 0.64913 0.85736 0.02308 0.0
C1275 C 0.64834 0.85694 0.0461 0.0
H1276 H 0.11998 0.70104 0.94166 0.0
H1277 H 0.14245 0.63329 0.94207 0.0
H1278 H 0.12051 0.70142 0.98195 0.0
H1279 H 0.14384 0.63391 0.98217 0.0
H1280 H 0.1174 0.63264 0.05193 0.0
H1281 H 0.11869 0.6337 0.01194 0.0
H1282 H 0.14309 0.70079 0.01437 0.0
H1283 H 0.141 0.69999 0.05463 0.0
C1284 C 0.12531 0.68634 0.95035 0.0
C1285 C 0.13091 0.66706 0.93871 0.0
C1286 C 0.12573 0.68658 0.97345 0.0
C1287 C 0.13201 0.66762 0.98534 0.0
C1288 C 0.13837 0.64863 0.97358 0.0
C1289 C 0.13768 0.6483 0.95057 0.0
C1290 C 0.12311 0.64762 0.04399 0.0
C1291 C 0.12912 0.66622 0.0565 0.0
C1292 C 0.12398 0.64819 0.021 0.0
C1293 C 0.13117 0.66727 0.00988 0.0
C1294 C 0.13724 0.6859 0.02238 0.0
C1295 C 0.13613 0.68541 0.04546 0.0
H1296 H 0.361 0.85203 0.94154 0.0
H1297 H 0.29338 0.87499 0.94039 0.0
H1298 H 0.35992 0.85082 0.98168 0.0
H1299 H 0.29256 0.87459 0.9806 0.0
H1300 H 0.29323 0.85575 0.05337 0.0
H1301 H 0.29299 0.85215 0.01324 0.0
H1302 H 0.35983 0.87722 0.01072 0.0
H1303 H 0.36035 0.88007 0.05065 0.0
C1304 C 0.34591 0.85686 0.94988 0.0
C1305 C 0.32734 0.86382 0.93785 0.0
C1306 C 0.34532 0.85626 0.97288 0.0
C1307 C 0.32625 0.86289 0.98435 0.0
C1308 C 0.30744 0.86917 0.97228 0.0
C1309 C 0.30794 0.86951 0.94923 0.0
C1310 C 0.30786 0.86046 0.04421 0.0
C1311 C 0.32682 0.86816 0.05518 0.0
C1312 C 0.3077 0.85845 0.02122 0.0
C1313 C 0.32642 0.8643 0.00878 0.0
C1314 C 0.3453 0.8721 0.01981 0.0
C1315 C 0.34554 0.87389 0.04273 0.0
H1316 H 0.13964 0.36387 0.94482 0.0
H1317 H 0.11917 0.29547 0.94541 0.0
H1318 H 0.14142 0.36374 0.98489 0.0
H1319 H 0.12019 0.29556 0.9857 0.0
H1320 H 0.14304 0.29838 0.05778 0.0
H1321 H 0.14387 0.29727 0.01749 0.0
H1322 H 0.11671 0.36328 0.01523 0.0
H1323 H 0.11659 0.36468 0.05525 0.0
C1324 C 0.13537 0.34883 0.95352 0.0
C1325 C 0.12908 0.32973 0.94193 0.0
C1326 C 0.1363 0.34878 0.97653 0.0
C1327 C 0.13071 0.32971 0.98856 0.0
C1328 C 0.12481 0.31046 0.97696 0.0
C1329 C 0.12411 0.31045 0.95387 0.0
C1330 C 0.13729 0.31265 0.04866 0.0
C1331 C 0.12985 0.33165 0.05976 0.0
C1332 C 0.13766 0.31198 0.02556 0.0
C1333 C 0.13046 0.33023 0.0131 0.0
C1334 C 0.12284 0.3491 0.02426 0.0
C1335 C 0.12265 0.34985 0.04727 0.0
H1336 H 0.70181 0.14004 0.94035 0.0
H1337 H 0.63527 0.11414 0.94252 0.0
H1338 H 0.70295 0.14019 0.98069 0.0
H1339 H 0.63668 0.11366 0.98251 0.0
H1340 H 0.63567 0.13724 0.05257 0.0
H1341 H 0.63638 0.13898 0.01256 0.0
H1342 H 0.70398 0.11596 0.01262 0.0
H1343 H 0.70351 0.11489 0.05296 0.0
C1344 C 0.6875 0.13427 0.94939 0.0
C1345 C 0.66839 0.12724 0.93819 0.0
C1346 C 0.68819 0.13425 0.9725 0.0
C1347 C 0.66984 0.1271 0.98483 0.0
C1348 C 0.65093 0.11976 0.97356 0.0
C1349 C 0.65017 0.11993 0.95057 0.0
C1350 C 0.65072 0.13254 0.0441 0.0
C1351 C 0.66947 0.12571 0.05596 0.0
C1352 C 0.65109 0.13345 0.02112 0.0
C1353 C 0.67015 0.12734 0.00935 0.0
C1354 C 0.68909 0.12094 0.02119 0.0
C1355 C 0.68879 0.12022 0.04429 0.0
H1356 H 0.87974 0.70139 0.94361 0.0
H1357 H 0.85623 0.63395 0.94409 0.0
H1358 H 0.87904 0.70187 0.98387 0.0
H1359 H 0.85483 0.63469 0.98418 0.0
H1360 H 0.85665 0.70081 0.05618 0.0
H1361 H 0.85529 0.70146 0.01588 0.0
H1362 H 0.88033 0.63461 0.01408 0.0
H1363 H 0.88102 0.63368 0.05408 0.0
C1364 C 0.87421 0.68675 0.95229 0.0
C1365 C 0.86827 0.66755 0.94066 0.0
C1366 C 0.87368 0.68707 0.97537 0.0
C1367 C 0.86704 0.66826 0.98726 0.0
C1368 C 0.8605 0.6493 0.97556 0.0
C1369 C 0.86123 0.64891 0.95255 0.0
C1370 C 0.86183 0.68625 0.04715 0.0
C1371 C 0.86885 0.66716 0.05836 0.0
C1372 C 0.86114 0.68666 0.02406 0.0
C1373 C 0.86759 0.66804 0.01176 0.0
C1374 C 0.87479 0.64907 0.02303 0.0
C1375 C 0.87531 0.6486 0.04602 0.0
H1376 H 0.94607 0.36438 0.11891 0.0
H1377 H 0.94496 0.29733 0.14356 0.0
H1378 H 0.98616 0.36452 0.1212 0.0
H1379 H 0.98505 0.29775 0.14653 0.0
H1380 H 0.0573 0.29815 0.12293 0.0
H1381 H 0.01707 0.29744 0.12328 0.0
H1382 H 0.01607 0.36483 0.14688 0.0
H1383 H 0.05621 0.36578 0.14584 0.0
C1384 C 0.95436 0.34975 0.12504 0.0
C1385 C 0.9423 0.33081 0.13095 0.0
C1386 C 0.97736 0.34987 0.12649 0.0
C1387 C 0.98884 0.33114 0.13407 0.0
C1388 C 0.97675 0.31233 0.1403 0.0
C1389 C 0.95375 0.31213 0.13868 0.0
C1390 C 0.04849 0.31275 0.12833 0.0
C1391 C 0.05993 0.33208 0.13414 0.0
C1392 C 0.02542 0.31232 0.12863 0.0
C1393 C 0.01334 0.33114 0.13495 0.0
C1394 C 0.02485 0.35021 0.14146 0.0
C1395 C 0.04787 0.35071 0.14097 0.0
H1396 H 0.05496 0.70155 0.87641 0.0
H1397 H 0.05439 0.63356 0.85463 0.0
H1398 H 0.01466 0.70205 0.87574 0.0
H1399 H 0.0143 0.63429 0.85318 0.0
H1400 H 0.94447 0.63391 0.88006 0.0
H1401 H 0.9845 0.63464 0.87863 0.0
H1402 H 0.9825 0.7011 0.85253 0.0
H1403 H 0.94226 0.70066 0.85468 0.0
C1404 C 0.04623 0.68682 0.87121 0.0
C1405 C 0.05782 0.66744 0.86584 0.0
C1406 C 0.02315 0.68713 0.87072 0.0
C1407 C 0.01124 0.66814 0.8646 0.0
C1408 C 0.02292 0.64904 0.85848 0.0
C1409 C 0.04593 0.64865 0.85923 0.0
C1410 C 0.95252 0.64868 0.87394 0.0
C1411 C 0.94015 0.66723 0.8675 0.0
C1412 C 0.97551 0.64905 0.87299 0.0
C1413 C 0.98673 0.66789 0.86535 0.0
C1414 C 0.97438 0.68643 0.85876 0.0
C1415 C 0.95132 0.68613 0.8599 0.0
H1416 H 0.29591 0.05543 0.85663 0.0
H1417 H 0.36219 0.05208 0.88308 0.0
H1418 H 0.29462 0.01517 0.85496 0.0
H1419 H 0.36061 0.01207 0.88211 0.0
H1420 H 0.36125 0.94268 0.85694 0.0
H1421 H 0.36091 0.98273 0.85611 0.0
H1422 H 0.29296 0.98271 0.87811 0.0
H1423 H 0.29307 0.94234 0.87818 0.0
C1424 C 0.31014 0.04612 0.8622 0.0
C1425 C 0.3292 0.05696 0.86988 0.0
C1426 C 0.30935 0.02306 0.86135 0.0
C1427 C 0.32755 0.01041 0.86829 0.0
C1428 C 0.34647 0.02131 0.87618 0.0
C1429 C 0.34734 0.04428 0.87684 0.0
C1430 C 0.34621 0.95119 0.8616 0.0
C1431 C 0.32725 0.93937 0.86787 0.0
C1432 C 0.34605 0.97417 0.8612 0.0
C1433 C 0.32701 0.98594 0.86734 0.0
C1434 C 0.30784 0.97413 0.87312 0.0
C1435 C 0.30793 0.95103 0.87327 0.0
H1436 H 0.94104 0.29686 0.85708 0.0
H1437 H 0.94345 0.36396 0.8814 0.0
H1438 H 0.98133 0.29608 0.85548 0.0
H1439 H 0.98348 0.36292 0.88058 0.0
H1440 H 0.05362 0.29556 0.87933 0.0
H1441 H 0.01337 0.29532 0.87863 0.0
H1442 H 0.01347 0.3629 0.85548 0.0
H1443 H 0.05359 0.36339 0.857 0.0
C1444 C 0.95016 0.31137 0.86224 0.0
C1445 C 0.93906 0.3305 0.86928 0.0
C1446 C 0.97324 0.3109 0.8614 0.0
C1447 C 0.98565 0.32948 0.86779 0.0
C1448 C 0.97447 0.34848 0.87505 0.0
C1449 C 0.95148 0.34903 0.87567 0.0
C1450 C 0.04502 0.31032 0.874 0.0
C1451 C 0.05676 0.32957 0.86845 0.0
C1452 C 0.02195 0.31015 0.87348 0.0
C1453 C 0.01017 0.32915 0.86717 0.0
C1454 C 0.02199 0.34815 0.86093 0.0
C1455 C 0.04501 0.3484 0.86171 0.0
H1456 H 0.63195 0.9459 0.87585 0.0
H1457 H 0.70029 0.94315 0.85522 0.0
H1458 H 0.63278 0.9859 0.87336 0.0
H1459 H 0.70088 0.98328 0.85198 0.0
H1460 H 0.70017 0.05585 0.87536 0.0
H1461 H 0.7005 0.01561 0.87466 0.0
H1462 H 0.6343 0.01559 0.84783 0.0
H1463 H 0.63369 0.05573 0.8493 0.0
C1464 C 0.6471 0.95381 0.87053 0.0
C1465 C 0.66608 0.94131 0.86581 0.0
C1466 C 0.64753 0.97679 0.86895 0.0
C1467 C 0.66688 0.98784 0.86239 0.0
C1468 C 0.6858 0.97532 0.85738 0.0
C1469 C 0.68543 0.95231 0.85915 0.0
C1470 C 0.68577 0.04724 0.86916 0.0
C1471 C 0.66681 0.05894 0.86264 0.0
C1472 C 0.68599 0.02416 0.86865 0.0
C1473 C 0.66734 0.01234 0.86138 0.0
C1474 C 0.64874 0.02414 0.85402 0.0
C1475 C 0.64843 0.04716 0.85477 0.0
H1476 H 0.05204 0.63233 0.11916 0.0
H1477 H 0.05559 0.70058 0.13993 0.0
H1478 H 0.01206 0.63375 0.12117 0.0
H1479 H 0.01539 0.70177 0.14266 0.0
H1480 H 0.94278 0.63488 0.14621 0.0
H1481 H 0.98288 0.63549 0.14731 0.0
H1482 H 0.98267 0.70153 0.12008 0.0
H1483 H 0.94234 0.70118 0.11972 0.0
C1484 C 0.0443 0.6476 0.12438 0.0
C1485 C 0.05703 0.66634 0.12939 0.0
C1486 C 0.02134 0.64837 0.12567 0.0
C1487 C 0.0105 0.66783 0.13225 0.0
C1488 C 0.02321 0.6866 0.13731 0.0
C1489 C 0.04625 0.68588 0.13583 0.0
C1490 C 0.95128 0.64958 0.14055 0.0
C1491 C 0.93942 0.6679 0.13265 0.0
C1492 C 0.97428 0.6499 0.14109 0.0
C1493 C 0.98602 0.66842 0.13347 0.0
C1494 C 0.97414 0.68705 0.12622 0.0
C1495 C 0.95104 0.68683 0.12593 0.0
H1496 H 0.29204 0.94384 0.13689 0.0
H1497 H 0.3608 0.94618 0.1176 0.0
H1498 H 0.29164 0.98406 0.13998 0.0
H1499 H 0.36018 0.98613 0.12 0.0
H1500 H 0.29492 0.05754 0.11808 0.0
H1501 H 0.29338 0.01723 0.11776 0.0
H1502 H 0.35848 0.01463 0.14705 0.0
H1503 H 0.3603 0.0547 0.14666 0.0
C1504 C 0.30701 0.95292 0.13317 0.0
C1505 C 0.32648 0.9418 0.1271 0.0
C1506 C 0.30675 0.97595 0.13487 0.0
C1507 C 0.32592 0.98829 0.1304 0.0
C1508 C 0.34526 0.97712 0.12406 0.0
C1509 C 0.34557 0.95418 0.12254 0.0
C1510 C 0.3088 0.04831 0.1246 0.0
C1511 C 0.32785 0.05924 0.13209 0.0
C1512 C 0.30789 0.02523 0.1245 0.0
C1513 C 0.32593 0.01272 0.1321 0.0
C1514 C 0.34453 0.02376 0.14053 0.0
C1515 C 0.34554 0.04673 0.1404 0.0
H1516 H 0.63186 0.05149 0.13877 0.0
H1517 H 0.70142 0.05069 0.12262 0.0
H1518 H 0.63187 0.01135 0.14075 0.0
H1519 H 0.70125 0.01052 0.12377 0.0
H1520 H 0.69781 0.93858 0.14524 0.0
H1521 H 0.69831 0.97884 0.14707 0.0
H1522 H 0.63393 0.98095 0.11619 0.0
H1523 H 0.63309 0.94093 0.1151 0.0
C1524 C 0.64713 0.04274 0.13554 0.0
C1525 C 0.6666 0.05427 0.1304 0.0
C1526 C 0.64713 0.01971 0.13658 0.0
C1527 C 0.66652 0.00767 0.13223 0.0
C1528 C 0.68609 0.01925 0.12749 0.0
C1529 C 0.68615 0.0423 0.1267 0.0
C1530 C 0.68377 0.94768 0.13888 0.0
C1531 C 0.6654 0.93655 0.13007 0.0
C1532 C 0.68408 0.97075 0.13985 0.0
C1533 C 0.66612 0.98315 0.13184 0.0
C1534 C 0.64784 0.97195 0.12295 0.0
C1535 C 0.64743 0.94896 0.12219 0.0
H1536 H 0.61139 0.44281 0.85952 0.0
H1537 H 0.64026 0.44084 0.79423 0.0
H1538 H 0.6108 0.48281 0.85815 0.0
H1539 H 0.64038 0.48119 0.79317 0.0
H1540 H 0.63448 0.55287 0.86048 0.0
H1541 H 0.63579 0.51285 0.85983 0.0
H1542 H 0.6167 0.51322 0.79102 0.0
H1543 H 0.61615 0.55357 0.79147 0.0
C1544 C 0.61782 0.45092 0.84493 0.0
C1545 C 0.626 0.43861 0.82704 0.0
C1546 C 0.61758 0.47392 0.84418 0.0
C1547 C 0.62577 0.48525 0.82565 0.0
C1548 C 0.63377 0.47297 0.80762 0.0
C1549 C 0.6338 0.44986 0.80827 0.0
C1550 C 0.63053 0.54446 0.84519 0.0
C1551 C 0.62501 0.55642 0.82607 0.0
C1552 C 0.63119 0.52147 0.84484 0.0
C1553 C 0.62608 0.50978 0.82545 0.0
C1554 C 0.6209 0.52172 0.80619 0.0
C1555 C 0.62046 0.54483 0.80647 0.0
H1556 H 0.44303 0.61833 0.8631 0.0
H1557 H 0.43947 0.64266 0.79604 0.0
H1558 H 0.48302 0.62034 0.86177 0.0
H1559 H 0.47965 0.64543 0.79498 0.0
H1560 H 0.55212 0.62182 0.79358 0.0
H1561 H 0.51189 0.62268 0.79376 0.0
H1562 H 0.51275 0.64584 0.86131 0.0
H1563 H 0.5529 0.64417 0.86138 0.0
C1564 C 0.45078 0.62433 0.84812 0.0
C1565 C 0.43805 0.63029 0.82965 0.0
C1566 C 0.47375 0.62564 0.84742 0.0
C1567 C 0.48458 0.63319 0.82831 0.0
C1568 C 0.47185 0.63929 0.80986 0.0
C1569 C 0.44882 0.63777 0.81049 0.0
C1570 C 0.5437 0.62726 0.80841 0.0
C1571 C 0.55566 0.63268 0.82755 0.0
C1572 C 0.52064 0.62785 0.80848 0.0
C1573 C 0.50907 0.63412 0.82762 0.0
C1574 C 0.52112 0.64041 0.84646 0.0
C1575 C 0.54414 0.63956 0.84647 0.0
H1576 H 0.3508 0.55514 0.86237 0.0
H1577 H 0.37637 0.55498 0.79572 0.0
H1578 H 0.34881 0.51507 0.8618 0.0
H1579 H 0.37518 0.51468 0.79542 0.0
H1580 H 0.35444 0.44227 0.79642 0.0
H1581 H 0.35195 0.48249 0.79543 0.0
H1582 H 0.37425 0.48536 0.86322 0.0
H1583 H 0.37598 0.4454 0.86445 0.0
C1584 C 0.35611 0.54651 0.84761 0.0
C1585 C 0.36399 0.55817 0.82917 0.0
C1586 C 0.35504 0.52353 0.84731 0.0
C1587 C 0.36213 0.51164 0.82868 0.0
C1588 C 0.36941 0.52334 0.80996 0.0
C1589 C 0.37021 0.54641 0.81016 0.0
C1590 C 0.35871 0.45152 0.81113 0.0
C1591 C 0.36536 0.44062 0.83053 0.0
C1592 C 0.35738 0.47456 0.81052 0.0
C1593 C 0.36284 0.48715 0.82926 0.0
C1594 C 0.36947 0.47619 0.84862 0.0
C1595 C 0.3706 0.45323 0.84929 0.0
H1596 H 0.55521 0.37556 0.79395 0.0
H1597 H 0.5537 0.3517 0.86123 0.0
H1598 H 0.51494 0.37624 0.7933 0.0
H1599 H 0.51356 0.35164 0.86034 0.0
H1600 H 0.44531 0.38176 0.86199 0.0
H1601 H 0.48524 0.37893 0.86074 0.0
H1602 H 0.48157 0.35457 0.79372 0.0
H1603 H 0.4414 0.35809 0.79473 0.0
C1604 C 0.54628 0.37011 0.80847 0.0
C1605 C 0.55762 0.36384 0.82774 0.0
C1606 C 0.5232 0.37042 0.80807 0.0
C1607 C 0.51103 0.36427 0.82687 0.0
C1608 C 0.52243 0.35703 0.84577 0.0
C1609 C 0.54545 0.35695 0.84625 0.0
C1610 C 0.45297 0.3758 0.84696 0.0
C1611 C 0.44015 0.37011 0.82847 0.0
C1612 C 0.4759 0.37401 0.8463 0.0
C1613 C 0.48661 0.36627 0.82722 0.0
C1614 C 0.47383 0.36076 0.80862 0.0
C1615 C 0.45082 0.36273 0.80921 0.0
H1616 H 0.63797 0.4414 0.20311 0.0
H1617 H 0.61706 0.44592 0.13495 0.0
H1618 H 0.6418 0.48155 0.20448 0.0
H1619 H 0.62025 0.48578 0.13654 0.0
H1620 H 0.64792 0.55371 0.13718 0.0
H1621 H 0.64811 0.5136 0.13834 0.0
H1622 H 0.62006 0.51525 0.20399 0.0
H1623 H 0.62058 0.55561 0.2031 0.0
C1624 C 0.63406 0.45094 0.18849 0.0
C1625 C 0.62732 0.44045 0.16889 0.0
C1626 C 0.63619 0.47393 0.1893 0.0
C1627 C 0.63154 0.48684 0.17057 0.0
C1628 C 0.62449 0.47631 0.15112 0.0
C1629 C 0.62252 0.45342 0.15025 0.0
C1630 C 0.64193 0.54552 0.15193 0.0
C1631 C 0.63396 0.55777 0.16994 0.0
C1632 C 0.64194 0.52254 0.15256 0.0
C1633 C 0.63371 0.51123 0.17109 0.0
C1634 C 0.62661 0.52347 0.18951 0.0
C1635 C 0.62683 0.54657 0.18898 0.0
H1636 H 0.5551 0.61481 0.134 0.0
H1637 H 0.55705 0.6393 0.20106 0.0
H1638 H 0.51508 0.61424 0.1353 0.0
H1639 H 0.51674 0.6394 0.20209 0.0
H1640 H 0.44501 0.61356 0.20282 0.0
H1641 H 0.48531 0.61487 0.20286 0.0
H1642 H 0.4845 0.63884 0.1356 0.0
H1643 H 0.44447 0.63684 0.1353 0.0
C1644 C 0.547 0.6203 0.14897 0.0
C1645 C 0.55932 0.62716 0.16741 0.0
C1646 C 0.52399 0.62008 0.14967 0.0
C1647 C 0.51267 0.62692 0.16875 0.0
C1648 C 0.52496 0.63379 0.18723 0.0
C1649 C 0.54805 0.63385 0.18659 0.0
C1650 C 0.45347 0.61912 0.18806 0.0
C1651 C 0.44154 0.62486 0.16898 0.0
C1652 C 0.47656 0.62 0.18813 0.0
C1653 C 0.48815 0.62681 0.16918 0.0
C1654 C 0.47614 0.63304 0.15032 0.0
C1655 C 0.45314 0.63197 0.15018 0.0
H1656 H 0.3582 0.55116 0.13376 0.0
H1657 H 0.37437 0.55037 0.20331 0.0
H1658 H 0.3562 0.51104 0.13378 0.0
H1659 H 0.37316 0.51016 0.20315 0.0
H1660 H 0.35138 0.43813 0.19913 0.0
H1661 H 0.34972 0.47841 0.19995 0.0
H1662 H 0.38125 0.48091 0.13591 0.0
H1663 H 0.3822 0.4409 0.13476 0.0
C1664 C 0.36142 0.54241 0.14903 0.0
C1665 C 0.36661 0.55392 0.16849 0.0
C1666 C 0.36037 0.5194 0.14903 0.0
C1667 C 0.36475 0.50737 0.16841 0.0
C1668 C 0.36946 0.51892 0.18799 0.0
C1669 C 0.37027 0.54196 0.18805 0.0
C1670 C 0.35793 0.44732 0.18525 0.0
C1671 C 0.36686 0.43632 0.16686 0.0
C1672 C 0.35705 0.47039 0.18574 0.0
C1673 C 0.36524 0.48288 0.16794 0.0
C1674 C 0.37433 0.47182 0.14968 0.0
C1675 C 0.37502 0.44884 0.1491 0.0
H1676 H 0.54974 0.37847 0.13405 0.0
H1677 H 0.55289 0.35591 0.20176 0.0
H1678 H 0.50985 0.37556 0.13484 0.0
H1679 H 0.51269 0.35234 0.20231 0.0
H1680 H 0.44124 0.34903 0.13404 0.0
H1681 H 0.48136 0.34842 0.13547 0.0
H1682 H 0.47948 0.37451 0.20191 0.0
H1683 H 0.4392 0.37441 0.20075 0.0
C1684 C 0.54194 0.37269 0.14908 0.0
C1685 C 0.55454 0.36739 0.16784 0.0
C1686 C 0.51902 0.37087 0.14947 0.0
C1687 C 0.50808 0.36349 0.16856 0.0
C1688 C 0.52062 0.35824 0.1874 0.0
C1689 C 0.54364 0.36023 0.18707 0.0
C1690 C 0.44937 0.35452 0.14901 0.0
C1691 C 0.43707 0.36201 0.16719 0.0
C1692 C 0.47238 0.35426 0.1498 0.0
C1693 C 0.48363 0.36173 0.16869 0.0
C1694 C 0.47132 0.36849 0.18717 0.0
C1695 C 0.44824 0.36853 0.18647 0.0
H1696 H 0.79661 0.64209 0.43902 0.0
H1697 H 0.86387 0.61823 0.44264 0.0
H1698 H 0.79531 0.64408 0.47932 0.0
H1699 H 0.86231 0.61955 0.48256 0.0
H1700 H 0.86209 0.64363 0.55214 0.0
H1701 H 0.86161 0.64548 0.51205 0.0
H1702 H 0.79466 0.62059 0.51161 0.0
H1703 H 0.79487 0.61948 0.55187 0.0
C1704 C 0.81104 0.63717 0.44838 0.0
C1705 C 0.83037 0.63011 0.43761 0.0
C1706 C 0.81028 0.63823 0.47145 0.0
C1707 C 0.82877 0.63213 0.48414 0.0
C1708 C 0.84795 0.62488 0.4733 0.0
C1709 C 0.84878 0.62398 0.45036 0.0
C1710 C 0.84724 0.63861 0.5435 0.0
C1711 C 0.82861 0.63118 0.55515 0.0
C1712 C 0.84698 0.6396 0.52051 0.0
C1713 C 0.82819 0.63291 0.50861 0.0
C1714 C 0.80933 0.62604 0.52028 0.0
C1715 C 0.8095 0.62528 0.54335 0.0
H1716 H 0.34751 0.86271 0.55515 0.0
H1717 H 0.3733 0.79612 0.55473 0.0
H1718 H 0.34505 0.86207 0.51506 0.0
H1719 H 0.37163 0.79576 0.51454 0.0
H1720 H 0.35206 0.79602 0.44258 0.0
H1721 H 0.34822 0.79568 0.48264 0.0
H1722 H 0.3706 0.86346 0.48523 0.0
H1723 H 0.37371 0.86406 0.44528 0.0
C1724 C 0.35268 0.84793 0.54647 0.0
C1725 C 0.36082 0.82954 0.55804 0.0
C1726 C 0.35135 0.8476 0.5235 0.0
C1727 C 0.35839 0.82898 0.51159 0.0
C1728 C 0.36585 0.81029 0.52322 0.0
C1729 C 0.36692 0.81052 0.54624 0.0
C1730 C 0.35603 0.81089 0.45172 0.0
C1731 C 0.36329 0.83005 0.44077 0.0
C1732 C 0.35391 0.81066 0.47467 0.0
C1733 C 0.35915 0.82952 0.48713 0.0
C1734 C 0.36605 0.84876 0.47612 0.0
C1735 C 0.36798 0.84906 0.45319 0.0
H1736 H 0.13726 0.35257 0.44402 0.0
H1737 H 0.20251 0.3815 0.44258 0.0
H1738 H 0.13841 0.35167 0.48407 0.0
H1739 H 0.20337 0.38136 0.48296 0.0
H1740 H 0.20359 0.36108 0.55622 0.0
H1741 H 0.20478 0.35896 0.51594 0.0
H1742 H 0.13594 0.37777 0.5131 0.0
H1743 H 0.13455 0.37914 0.55307 0.0
C1744 C 0.15184 0.35885 0.45229 0.0
C1745 C 0.16969 0.36736 0.44016 0.0
C1746 C 0.15246 0.35843 0.47528 0.0
C1747 C 0.17082 0.3668 0.48677 0.0
C1748 C 0.18902 0.37467 0.47463 0.0
C1749 C 0.18851 0.37484 0.45151 0.0
C1750 C 0.18872 0.36472 0.54695 0.0
C1751 C 0.16894 0.37015 0.55788 0.0
C1752 C 0.18944 0.36361 0.52388 0.0
C1753 C 0.17042 0.36802 0.51128 0.0
C1754 C 0.15077 0.37374 0.52226 0.0
C1755 C 0.15001 0.37466 0.54524 0.0
H1756 H 0.64542 0.13364 0.44208 0.0
H1757 H 0.62017 0.20042 0.44272 0.0
H1758 H 0.64733 0.13392 0.48218 0.0
H1759 H 0.62127 0.20042 0.48297 0.0
H1760 H 0.62118 0.13117 0.55226 0.0
H1761 H 0.62242 0.13247 0.51226 0.0
H1762 H 0.6444 0.20037 0.515 0.0
H1763 H 0.64238 0.19931 0.55524 0.0
C1764 C 0.64018 0.14836 0.45081 0.0
C1765 C 0.63246 0.16694 0.43925 0.0
C1766 C 0.64117 0.14849 0.47382 0.0
C1767 C 0.6342 0.1671 0.48584 0.0
C1768 C 0.62699 0.1859 0.47424 0.0
C1769 C 0.62624 0.18586 0.45117 0.0
C1770 C 0.62635 0.14638 0.54438 0.0
C1771 C 0.63166 0.16515 0.55697 0.0
C1772 C 0.62721 0.14709 0.52139 0.0
C1773 C 0.63364 0.16649 0.51037 0.0
C1774 C 0.63911 0.18524 0.52295 0.0
C1775 C 0.63804 0.18461 0.54601 0.0
H1776 H 0.86295 0.35481 0.44038 0.0
H1777 H 0.79494 0.37664 0.4396 0.0
H1778 H 0.86197 0.3531 0.48049 0.0
H1779 H 0.79419 0.37567 0.47982 0.0
H1780 H 0.79511 0.35461 0.55207 0.0
H1781 H 0.79503 0.35216 0.51185 0.0
H1782 H 0.86124 0.3789 0.51019 0.0
H1783 H 0.86162 0.38067 0.55019 0.0
C1784 C 0.84781 0.35932 0.44878 0.0
C1785 C 0.82909 0.36606 0.43685 0.0
C1786 C 0.84727 0.35843 0.47178 0.0
C1787 C 0.82808 0.36449 0.48336 0.0
C1788 C 0.80917 0.37067 0.47139 0.0
C1789 C 0.80963 0.37135 0.44835 0.0
C1790 C 0.80965 0.35992 0.54309 0.0
C1791 C 0.82838 0.3678 0.55433 0.0
C1792 C 0.80958 0.35859 0.52005 0.0
C1793 C 0.82816 0.36526 0.50782 0.0
C1794 C 0.84682 0.37319 0.51911 0.0
C1795 C 0.84697 0.37434 0.54208 0.0
H1796 H 0.64292 0.86425 0.44201 0.0
H1797 H 0.62254 0.79583 0.4412 0.0
H1798 H 0.64318 0.86373 0.48216 0.0
H1799 H 0.62198 0.79552 0.48144 0.0
H1800 H 0.64064 0.79734 0.55436 0.0
H1801 H 0.64382 0.79684 0.51423 0.0
H1802 H 0.61719 0.86307 0.5114 0.0
H1803 H 0.61479 0.86385 0.55142 0.0
C1804 C 0.63842 0.8491 0.45043 0.0
C1805 C 0.63255 0.83012 0.43844 0.0
C1806 C 0.63845 0.84883 0.47346 0.0
C1807 C 0.63234 0.82966 0.48507 0.0
C1808 C 0.627 0.8105 0.47306 0.0
C1809 C 0.62722 0.8107 0.44998 0.0
C1810 C 0.63547 0.81178 0.54515 0.0
C1811 C 0.6275 0.83065 0.5561 0.0
C1812 C 0.63722 0.81147 0.52213 0.0
C1813 C 0.63084 0.82994 0.50956 0.0
C1814 C 0.62271 0.84871 0.52056 0.0
C1815 C 0.62118 0.84911 0.54353 0.0
H1816 H 0.13187 0.64223 0.55415 0.0
H1817 H 0.2005 0.62261 0.55549 0.0
H1818 H 0.13281 0.64305 0.51405 0.0
H1819 H 0.20124 0.6226 0.51519 0.0
H1820 H 0.19955 0.64255 0.44225 0.0
H1821 H 0.19993 0.64484 0.4825 0.0
H1822 H 0.13398 0.61751 0.48454 0.0
H1823 H 0.13329 0.61598 0.44453 0.0
C1824 C 0.14716 0.63798 0.54586 0.0
C1825 C 0.16606 0.63216 0.558 0.0
C1826 C 0.14767 0.63834 0.52284 0.0
C1827 C 0.16702 0.6326 0.51134 0.0
C1828 C 0.18611 0.6273 0.52349 0.0
C1829 C 0.18567 0.6272 0.54659 0.0
C1830 C 0.18513 0.63706 0.45133 0.0
C1831 C 0.16636 0.62917 0.44015 0.0
C1832 C 0.18539 0.63828 0.4744 0.0
C1833 C 0.16694 0.63148 0.4868 0.0
C1834 C 0.14829 0.62338 0.47556 0.0
C1835 C 0.14796 0.62235 0.45256 0.0
H1836 H 0.35895 0.1358 0.44391 0.0
H1837 H 0.38117 0.20365 0.44161 0.0
H1838 H 0.359 0.13707 0.48397 0.0
H1839 H 0.38191 0.20468 0.48191 0.0
H1840 H 0.36053 0.20364 0.55486 0.0
H1841 H 0.35891 0.20409 0.51459 0.0
H1842 H 0.38574 0.13792 0.51291 0.0
H1843 H 0.38669 0.13718 0.55296 0.0
C1844 C 0.36397 0.15097 0.45198 0.0
C1845 C 0.37025 0.16957 0.4396 0.0
C1846 C 0.3641 0.15166 0.47496 0.0
C1847 C 0.37074 0.17088 0.48613 0.0
C1848 C 0.37655 0.18968 0.47378 0.0
C1849 C 0.37622 0.18906 0.45071 0.0
C1850 C 0.36612 0.18921 0.54586 0.0
C1851 C 0.3736 0.17032 0.5571 0.0
C1852 C 0.36527 0.18952 0.5228 0.0
C1853 C 0.37203 0.17098 0.51057 0.0
C1854 C 0.37993 0.15229 0.52185 0.0
C1855 C 0.38059 0.15191 0.54483 0.0
H1856 H 0.44212 0.86366 0.61406 0.0
H1857 H 0.4401 0.79683 0.63922 0.0
H1858 H 0.48219 0.86299 0.61539 0.0
H1859 H 0.48033 0.79644 0.64125 0.0
H1860 H 0.5529 0.79632 0.61847 0.0
H1861 H 0.51265 0.79579 0.61835 0.0
H1862 H 0.51175 0.8634 0.64134 0.0
H1863 H 0.5519 0.86417 0.64073 0.0
C1864 C 0.45022 0.84886 0.62003 0.0
C1865 C 0.4379 0.8303 0.62654 0.0
C1866 C 0.47323 0.84854 0.62094 0.0
C1867 C 0.48448 0.82973 0.6286 0.0
C1868 C 0.47218 0.81111 0.63504 0.0
C1869 C 0.44912 0.81136 0.63394 0.0
C1870 C 0.54409 0.81102 0.62362 0.0
C1871 C 0.55558 0.83035 0.62941 0.0
C1872 C 0.52102 0.81069 0.62364 0.0
C1873 C 0.50897 0.82961 0.62965 0.0
C1874 C 0.52051 0.84869 0.63612 0.0
C1875 C 0.54354 0.8491 0.63589 0.0
H1876 H 0.44306 0.20338 0.37425 0.0
H1877 H 0.44373 0.13468 0.35483 0.0
H1878 H 0.48335 0.20378 0.3741 0.0
H1879 H 0.48386 0.13529 0.35385 0.0
H1880 H 0.55312 0.13524 0.3817 0.0
H1881 H 0.51311 0.1363 0.37981 0.0
H1882 H 0.51604 0.202 0.35191 0.0
H1883 H 0.55625 0.20124 0.35457 0.0
C1884 C 0.45181 0.18848 0.36961 0.0
C1885 C 0.44026 0.16893 0.36482 0.0
C1886 C 0.4749 0.18872 0.36944 0.0
C1887 C 0.48685 0.16949 0.36422 0.0
C1888 C 0.4752 0.15023 0.35851 0.0
C1889 C 0.45218 0.14991 0.35896 0.0
C1890 C 0.54527 0.14992 0.37514 0.0
C1891 C 0.55788 0.16815 0.36828 0.0
C1892 C 0.52229 0.15047 0.3739 0.0
C1893 C 0.51134 0.16916 0.36551 0.0
C1894 C 0.52394 0.18744 0.35867 0.0
C1895 C 0.54698 0.18697 0.36013 0.0
H1896 H 0.79786 0.5568 0.35362 0.0
H1897 H 0.86518 0.55344 0.37722 0.0
H1898 H 0.79644 0.51651 0.35219 0.0
H1899 H 0.8635 0.51347 0.37661 0.0
H1900 H 0.86301 0.4434 0.35362 0.0
H1901 H 0.86288 0.48345 0.35186 0.0
H1902 H 0.79537 0.48432 0.37519 0.0
H1903 H 0.79525 0.44399 0.37607 0.0
C1904 C 0.8123 0.54748 0.3586 0.0
C1905 C 0.83167 0.55834 0.36542 0.0
C1906 C 0.81145 0.5244 0.35789 0.0
C1907 C 0.82989 0.51171 0.36417 0.0
C1908 C 0.84915 0.52266 0.37116 0.0
C1909 C 0.85008 0.54564 0.37163 0.0
C1910 C 0.84811 0.45212 0.35835 0.0
C1911 C 0.82921 0.44055 0.36521 0.0
C1912 C 0.84806 0.47512 0.35744 0.0
C1913 C 0.82922 0.48717 0.36368 0.0
C1914 C 0.81011 0.47558 0.37008 0.0
C1915 C 0.81006 0.45247 0.37071 0.0
H1916 H 0.44354 0.79286 0.36179 0.0
H1917 H 0.44607 0.86002 0.38589 0.0
H1918 H 0.48379 0.79229 0.3593 0.0
H1919 H 0.48612 0.85919 0.38418 0.0
H1920 H 0.55762 0.79336 0.37872 0.0
H1921 H 0.51733 0.79215 0.38047 0.0
H1922 H 0.51445 0.85964 0.35723 0.0
H1923 H 0.55452 0.86107 0.35628 0.0
C1924 C 0.4527 0.8074 0.36681 0.0
C1925 C 0.44162 0.82655 0.37388 0.0
C1926 C 0.47576 0.80705 0.36545 0.0
C1927 C 0.48819 0.82578 0.37131 0.0
C1928 C 0.47707 0.84467 0.37898 0.0
C1929 C 0.45408 0.8451 0.3801 0.0
C1930 C 0.54833 0.80786 0.37387 0.0
C1931 C 0.55923 0.82738 0.36761 0.0
C1932 C 0.52525 0.80716 0.3748 0.0
C1933 C 0.51265 0.8259 0.36928 0.0
C1934 C 0.52363 0.8451 0.3622 0.0
C1935 C 0.54662 0.84588 0.36152 0.0
H1936 H 0.13187 0.44403 0.37881 0.0
H1937 H 0.19927 0.44214 0.35521 0.0
H1938 H 0.13252 0.48409 0.37755 0.0
H1939 H 0.19966 0.48237 0.35326 0.0
H1940 H 0.19972 0.5544 0.37795 0.0
H1941 H 0.20002 0.51415 0.37694 0.0
H1942 H 0.13291 0.51433 0.35247 0.0
H1943 H 0.13236 0.55443 0.35419 0.0
C1944 C 0.14677 0.45215 0.37311 0.0
C1945 C 0.16554 0.43985 0.36716 0.0
C1946 C 0.14709 0.47516 0.37226 0.0
C1947 C 0.16612 0.48647 0.36523 0.0
C1948 C 0.18484 0.47418 0.35904 0.0
C1949 C 0.18458 0.45112 0.36006 0.0
C1950 C 0.18508 0.54583 0.37226 0.0
C1951 C 0.16594 0.55759 0.36639 0.0
C1952 C 0.18528 0.52275 0.37156 0.0
C1953 C 0.16643 0.51099 0.36478 0.0
C1954 C 0.14755 0.52284 0.35825 0.0
C1955 C 0.14727 0.54585 0.35915 0.0
H1956 H 0.4453 0.20287 0.62134 0.0
H1957 H 0.44475 0.13577 0.6458 0.0
H1958 H 0.48554 0.20279 0.62206 0.0
H1959 H 0.4849 0.13596 0.64727 0.0
H1960 H 0.55832 0.20063 0.64165 0.0
H1961 H 0.51814 0.20203 0.64478 0.0
H1962 H 0.51408 0.13482 0.62097 0.0
H1963 H 0.554 0.13317 0.61855 0.0
C1964 C 0.45376 0.18824 0.62721 0.0
C1965 C 0.44188 0.16923 0.63324 0.0
C1966 C 0.47683 0.18823 0.62772 0.0
C1967 C 0.48844 0.16928 0.63449 0.0
C1968 C 0.47647 0.15064 0.64145 0.0
C1969 C 0.45346 0.15056 0.6407 0.0
C1970 C 0.54882 0.18616 0.63712 0.0
C1971 C 0.55937 0.16678 0.6299 0.0
C1972 C 0.5258 0.18699 0.63885 0.0
C1973 C 0.5129 0.1685 0.63325 0.0
C1974 C 0.52351 0.1492 0.62591 0.0
C1975 C 0.54644 0.14832 0.62436 0.0
H1976 H 0.86037 0.55283 0.61504 0.0
H1977 H 0.79271 0.55595 0.63784 0.0
H1978 H 0.85893 0.51285 0.61612 0.0
H1979 H 0.79152 0.51566 0.63952 0.0
H1980 H 0.79237 0.44291 0.61474 0.0
H1981 H 0.79166 0.48326 0.61563 0.0
H1982 H 0.85772 0.48369 0.64276 0.0
H1983 H 0.8587 0.44365 0.64123 0.0
C1984 C 0.84522 0.545 0.62048 0.0
C1985 C 0.82667 0.5576 0.62642 0.0
C1986 C 0.84445 0.52204 0.62122 0.0
C1987 C 0.82518 0.51109 0.62811 0.0
C1988 C 0.80655 0.52364 0.63397 0.0
C1989 C 0.80727 0.5467 0.63309 0.0
C1990 C 0.80666 0.45167 0.62101 0.0
C1991 C 0.82571 0.44016 0.62759 0.0
C1992 C 0.80622 0.47475 0.62161 0.0
C1993 C 0.82475 0.48665 0.629 0.0
C1994 C 0.8434 0.47503 0.63645 0.0
C1995 C 0.84392 0.45207 0.63564 0.0
H1996 H 0.13305 0.5557 0.64288 0.0
H1997 H 0.20078 0.55688 0.62033 0.0
H1998 H 0.13427 0.51565 0.6447 0.0
H1999 H 0.20176 0.51657 0.62133 0.0
H2000 H 0.20113 0.44406 0.64278 0.0
H2001 H 0.20143 0.48435 0.64451 0.0
H2002 H 0.13452 0.48577 0.61954 0.0
H2003 H 0.13394 0.44577 0.61856 0.0
C2004 C 0.14818 0.54737 0.63818 0.0
C2005 C 0.16675 0.55943 0.63124 0.0
C2006 C 0.14886 0.52438 0.63913 0.0
C2007 C 0.16801 0.51285 0.63287 0.0
C2008 C 0.1868 0.52493 0.62646 0.0
C2009 C 0.18622 0.54802 0.62577 0.0
C2010 C 0.18648 0.45301 0.63774 0.0
C2011 C 0.16748 0.44168 0.63062 0.0
C2012 C 0.18669 0.4761 0.63863 0.0
C2013 C 0.16797 0.48832 0.63227 0.0
C2014 C 0.14907 0.47692 0.62504 0.0
C2015 C 0.14878 0.45392 0.62435 0.0
H2016 H 0.11553 0.18039 0.25467 0.0
H2017 H 0.1421 0.22372 0.3048 0.0
H2018 H 0.11375 0.21105 0.22901 0.0
H2019 H 0.13948 0.25476 0.27927 0.0
H2020 H 0.16263 0.29434 0.21816 0.0
H2021 H 0.15846 0.26745 0.24764 0.0
H2022 H 0.09754 0.2446 0.21818 0.0
H2023 H 0.10225 0.27094 0.18814 0.0
C2024 C 0.12054 0.19658 0.26042 0.0
C2025 C 0.12919 0.19948 0.28178 0.0
C2026 C 0.11938 0.21428 0.24567 0.0
C2027 C 0.12661 0.23547 0.25193 0.0
C2028 C 0.1342 0.23862 0.27369 0.0
C2029 C 0.13556 0.22082 0.28841 0.0
C2030 C 0.14819 0.28377 0.21809 0.0
C2031 C 0.13293 0.28463 0.2006 0.0
C2032 C 0.14571 0.26838 0.23513 0.0
C2033 C 0.12775 0.25362 0.23528 0.0
C2034 C 0.11185 0.25532 0.21838 0.0
C2035 C 0.11448 0.27053 0.20119 0.0
H2036 H 0.70192 0.14999 0.21797 0.0
H2037 H 0.73289 0.09619 0.18272 0.0
H2038 H 0.7284 0.14587 0.24769 0.0
H2039 H 0.75892 0.09136 0.21305 0.0
H2040 H 0.82008 0.11417 0.25235 0.0
H2041 H 0.79008 0.11033 0.22613 0.0
H2042 H 0.74302 0.12593 0.27756 0.0
H2043 H 0.77331 0.13075 0.30366 0.0
C2044 C 0.71406 0.1369 0.21679 0.0
C2045 C 0.71546 0.12363 0.19777 0.0
C2046 C 0.72923 0.13442 0.23398 0.0
C2047 C 0.74604 0.11841 0.23277 0.0
C2048 C 0.74655 0.10422 0.21435 0.0
C2049 C 0.73153 0.10689 0.19699 0.0
C2050 C 0.80333 0.11648 0.25819 0.0
C2051 C 0.79915 0.12306 0.28005 0.0
C2052 C 0.78602 0.11412 0.24313 0.0
C2053 C 0.76403 0.11799 0.2496 0.0
C2054 C 0.75976 0.1233 0.27183 0.0
C2055 C 0.77713 0.12595 0.28685 0.0
H2056 H 0.83688 0.77751 0.29578 0.0
H2057 H 0.89426 0.8102 0.26872 0.0
H2058 H 0.84067 0.74824 0.26867 0.0
H2059 H 0.89876 0.7803 0.24217 0.0
H2060 H 0.87937 0.7425 0.17927 0.0
H2061 H 0.88165 0.76843 0.2097 0.0
H2062 H 0.85964 0.71755 0.25478 0.0
H2063 H 0.85637 0.69183 0.22398 0.0
C2064 C 0.85064 0.77819 0.28435 0.0
C2065 C 0.86511 0.79635 0.28426 0.0
C2066 C 0.85291 0.76127 0.26882 0.0
C2067 C 0.86992 0.76189 0.25298 0.0
C2068 C 0.88513 0.77948 0.25372 0.0
C2069 C 0.88265 0.79659 0.26905 0.0
C2070 C 0.87528 0.73672 0.19571 0.0
C2071 C 0.86747 0.71513 0.19912 0.0
C2072 C 0.87672 0.75162 0.21328 0.0
C2073 C 0.8707 0.74523 0.23481 0.0
C2074 C 0.86395 0.72325 0.23838 0.0
C2075 C 0.86221 0.70843 0.22073 0.0
H2076 H 0.17996 0.89796 0.26367 0.0
H2077 H 0.21379 0.84074 0.28981 0.0
H2078 H 0.2099 0.90357 0.23734 0.0
H2079 H 0.24312 0.84579 0.26306 0.0
H2080 H 0.29942 0.86321 0.21992 0.0
H2081 H 0.27345 0.86669 0.25044 0.0
H2082 H 0.22234 0.88636 0.20455 0.0
H2083 H 0.24853 0.88377 0.17427 0.0
C2084 C 0.19381 0.88663 0.26387 0.0
C2085 C 0.19435 0.86878 0.27872 0.0
C2086 C 0.21094 0.88979 0.2487 0.0
C2087 C 0.22889 0.87504 0.24789 0.0
C2088 C 0.22979 0.8577 0.26335 0.0
C2089 C 0.21281 0.85469 0.27864 0.0
C2090 C 0.28272 0.86862 0.21642 0.0
C2091 C 0.27596 0.87296 0.19464 0.0
C2092 C 0.26778 0.8705 0.23391 0.0
C2093 C 0.24566 0.87647 0.22997 0.0
C2094 C 0.23926 0.88194 0.20831 0.0
C2095 C 0.25428 0.88034 0.19087 0.0
H2096 H 0.09961 0.81078 0.7295 0.0
H2097 H 0.15679 0.77852 0.70149 0.0
H2098 H 0.09559 0.78065 0.7559 0.0
H2099 H 0.15345 0.74903 0.7284 0.0
H2100 H 0.11654 0.74264 0.81831 0.0
H2101 H 0.11344 0.7687 0.78806 0.0
H2102 H 0.13466 0.71814 0.74228 0.0
H2103 H 0.13873 0.69228 0.77287 0.0
C2104 C 0.11126 0.79722 0.72891 0.0
C2105 C 0.12863 0.79719 0.71349 0.0
C2106 C 0.10906 0.77998 0.74415 0.0
C2107 C 0.12435 0.76245 0.74456 0.0
C2108 C 0.14115 0.76202 0.7285 0.0
C2109 C 0.14317 0.77908 0.71308 0.0
C2110 C 0.12028 0.73696 0.80176 0.0
C2111 C 0.12812 0.71541 0.79808 0.0
C2112 C 0.11836 0.75192 0.7843 0.0
C2113 C 0.12394 0.74567 0.76262 0.0
C2114 C 0.13068 0.72374 0.75879 0.0
C2115 C 0.13289 0.70883 0.77633 0.0
H2116 H 0.29548 0.15266 0.77987 0.0
H2117 H 0.26559 0.09937 0.81681 0.0
H2118 H 0.26829 0.14784 0.75083 0.0
H2119 H 0.23886 0.09387 0.78724 0.0
H2120 H 0.17678 0.1158 0.74846 0.0
H2121 H 0.20725 0.11258 0.77438 0.0
H2122 H 0.25352 0.12669 0.7218 0.0
H2123 H 0.22286 0.13086 0.69608 0.0
C2124 C 0.28342 0.13954 0.78155 0.0
C2125 C 0.28251 0.12661 0.8008 0.0
C2126 C 0.26785 0.13666 0.76479 0.0
C2127 C 0.25117 0.12058 0.76672 0.0
C2128 C 0.25113 0.10675 0.78541 0.0
C2129 C 0.26654 0.10983 0.80232 0.0
C2130 C 0.19348 0.11786 0.74236 0.0
C2131 C 0.19739 0.12389 0.72031 0.0
C2132 C 0.21102 0.1159 0.75722 0.0
C2133 C 0.23291 0.11961 0.75028 0.0
C2134 C 0.23687 0.12426 0.72786 0.0
C2135 C 0.2193 0.12653 0.71308 0.0
H2136 H 0.8813 0.17543 0.74662 0.0
H2137 H 0.86576 0.22181 0.69463 0.0
H2138 H 0.88466 0.20573 0.77271 0.0
H2139 H 0.87008 0.2523 0.72052 0.0
H2140 H 0.89761 0.26435 0.81532 0.0
H2141 H 0.90319 0.23757 0.78576 0.0
H2142 H 0.84858 0.26626 0.74972 0.0
H2143 H 0.84363 0.29339 0.77865 0.0
C2144 C 0.87915 0.19216 0.74064 0.0
C2145 C 0.87291 0.19621 0.71866 0.0
C2146 C 0.88121 0.2096 0.75559 0.0
C2147 C 0.87737 0.2315 0.74882 0.0
C2148 C 0.8726 0.23561 0.72644 0.0
C2149 C 0.87022 0.21815 0.71157 0.0
C2150 C 0.88701 0.2651 0.80092 0.0
C2151 C 0.87004 0.28089 0.79947 0.0
C2152 C 0.89014 0.24968 0.78402 0.0
C2153 C 0.87623 0.24959 0.7654 0.0
C2154 C 0.85986 0.26598 0.7636 0.0
C2155 C 0.85689 0.28149 0.78034 0.0
H2156 H 0.69343 0.85635 0.77608 0.0
H2157 H 0.7433 0.8833 0.81947 0.0
H2158 H 0.71883 0.85936 0.74502 0.0
H2159 H 0.76894 0.88546 0.78872 0.0
H2160 H 0.77994 0.83686 0.70521 0.0
H2161 H 0.75049 0.84072 0.73219 0.0
H2162 H 0.77949 0.90184 0.75512 0.0
H2163 H 0.8095 0.89743 0.72869 0.0
C2164 C 0.70978 0.86303 0.77898 0.0
C2165 C 0.71638 0.86942 0.80032 0.0
C2166 C 0.72441 0.86463 0.76117 0.0
C2167 C 0.74609 0.87242 0.76431 0.0
C2168 C 0.75233 0.87965 0.78551 0.0
C2169 C 0.73762 0.8783 0.80325 0.0
C2170 C 0.77987 0.8513 0.71579 0.0
C2171 C 0.79724 0.86668 0.71497 0.0
C2172 C 0.76287 0.85359 0.73124 0.0
C2173 C 0.76265 0.8715 0.74608 0.0
C2174 C 0.77937 0.88756 0.74435 0.0
C2175 C 0.79653 0.88511 0.72909 0.0
H2176 H 0.29388 0.15796 0.21877 0.0
H2177 H 0.26683 0.10202 0.18364 0.0
H2178 H 0.26629 0.15332 0.24747 0.0
H2179 H 0.23967 0.09678 0.21287 0.0
H2180 H 0.17633 0.1171 0.25058 0.0
H2181 H 0.20707 0.11461 0.22483 0.0
H2182 H 0.25237 0.13236 0.27714 0.0
H2183 H 0.22144 0.13575 0.30263 0.0
C2184 C 0.28235 0.14435 0.21741 0.0
C2185 C 0.2824 0.13054 0.19877 0.0
C2186 C 0.26655 0.14158 0.23398 0.0
C2187 C 0.25058 0.12475 0.23246 0.0
C2188 C 0.2514 0.11021 0.21437 0.0
C2189 C 0.26705 0.11314 0.19766 0.0
C2190 C 0.19289 0.12013 0.25665 0.0
C2191 C 0.19643 0.12691 0.27854 0.0
C2192 C 0.21058 0.11861 0.2419 0.0
C2193 C 0.23224 0.12353 0.2488 0.0
C2194 C 0.23587 0.12898 0.27109 0.0
C2195 C 0.21816 0.13081 0.28574 0.0
H2196 H 0.86046 0.30137 0.22201 0.0
H2197 H 0.88578 0.25167 0.17746 0.0
H2198 H 0.863 0.27524 0.25253 0.0
H2199 H 0.88747 0.22539 0.20762 0.0
H2200 H 0.89771 0.18296 0.26686 0.0
H2201 H 0.90328 0.21334 0.24105 0.0
H2202 H 0.84299 0.24388 0.26417 0.0
H2203 H 0.83794 0.21406 0.29048 0.0
C2204 C 0.86674 0.28494 0.21875 0.0
C2205 C 0.87271 0.27858 0.19721 0.0
C2206 C 0.86806 0.26988 0.23623 0.0
C2207 C 0.87514 0.24804 0.23256 0.0
C2208 C 0.88217 0.24208 0.21122 0.0
C2209 C 0.88109 0.25719 0.19382 0.0
C2210 C 0.88579 0.1963 0.2666 0.0
C2211 C 0.86727 0.19594 0.28061 0.0
C2212 C 0.88893 0.21369 0.25172 0.0
C2213 C 0.87349 0.23103 0.2503 0.0
C2214 C 0.85542 0.23104 0.26493 0.0
C2215 C 0.85242 0.21379 0.27997 0.0
H2216 H 0.7411 0.87707 0.17952 0.0
H2217 H 0.68994 0.85793 0.22548 0.0
H2218 H 0.76717 0.88027 0.2097 0.0
H2219 H 0.71589 0.8621 0.256 0.0
H2220 H 0.7757 0.83936 0.29752 0.0
H2221 H 0.74622 0.84285 0.27061 0.0
H2222 H 0.7796 0.89878 0.24127 0.0
H2223 H 0.80968 0.89459 0.26769 0.0
C2224 C 0.73525 0.87402 0.19615 0.0
C2225 C 0.71344 0.86701 0.2 0.0
C2226 C 0.75023 0.87601 0.21358 0.0
C2227 C 0.74378 0.87132 0.23541 0.0
C2228 C 0.72163 0.86539 0.23939 0.0
C2229 C 0.70668 0.86313 0.22188 0.0
C2230 C 0.77665 0.8526 0.28552 0.0
C2231 C 0.79523 0.86651 0.28461 0.0
C2232 C 0.7596 0.85471 0.2701 0.0
C2233 C 0.76053 0.87097 0.25351 0.0
C2234 C 0.77853 0.88571 0.25343 0.0
C2235 C 0.79575 0.88341 0.26868 0.0
H2236 H 0.09917 0.73125 0.18204 0.0
H2237 H 0.1539 0.70231 0.21761 0.0
H2238 H 0.09378 0.75768 0.21192 0.0
H2239 H 0.14919 0.72919 0.24689 0.0
H2240 H 0.11405 0.8197 0.25134 0.0
H2241 H 0.11148 0.78956 0.22508 0.0
H2242 H 0.12861 0.74313 0.27662 0.0
H2243 H 0.13215 0.77356 0.30272 0.0
C2244 C 0.11 0.73045 0.19627 0.0
C2245 C 0.12709 0.71477 0.19731 0.0
C2246 C 0.10699 0.7457 0.21337 0.0
C2247 C 0.12119 0.74582 0.2318 0.0
C2248 C 0.1377 0.72951 0.23319 0.0
C2249 C 0.14052 0.71411 0.21625 0.0
C2250 C 0.11695 0.80303 0.25719 0.0
C2251 C 0.12358 0.7991 0.27909 0.0
C2252 C 0.11535 0.78565 0.2421 0.0
C2253 C 0.12005 0.76382 0.24859 0.0
C2254 C 0.12539 0.75976 0.27086 0.0
C2255 C 0.12728 0.7772 0.28589 0.0
H2256 H 0.21807 0.84228 0.70039 0.0
H2257 H 0.18216 0.8965 0.72982 0.0
H2258 H 0.24739 0.84701 0.72731 0.0
H2259 H 0.21201 0.90189 0.75627 0.0
H2260 H 0.30281 0.86402 0.77215 0.0
H2261 H 0.2769 0.86794 0.74161 0.0
H2262 H 0.22481 0.88338 0.788 0.0
H2263 H 0.25089 0.88039 0.81831 0.0
C2264 C 0.21666 0.85557 0.7123 0.0
C2265 C 0.19762 0.86881 0.71315 0.0
C2266 C 0.2336 0.85839 0.72771 0.0
C2267 C 0.23203 0.87472 0.74417 0.0
C2268 C 0.21355 0.88882 0.74417 0.0
C2269 C 0.19648 0.88581 0.72892 0.0
C2270 C 0.28589 0.86859 0.77577 0.0
C2271 C 0.27886 0.87167 0.79768 0.0
C2272 C 0.27099 0.87072 0.75826 0.0
C2273 C 0.24865 0.87569 0.76229 0.0
C2274 C 0.24191 0.8798 0.78416 0.0
C2275 C 0.25687 0.87796 0.80162 0.0
H2276 H 0.11531 0.252 0.82215 0.0
H2277 H 0.13803 0.30229 0.77687 0.0
H2278 H 0.11279 0.22582 0.7919 0.0
H2279 H 0.13459 0.27634 0.74632 0.0
H2280 H 0.15825 0.216 0.7064 0.0
H2281 H 0.15409 0.24552 0.73315 0.0
H2282 H 0.09569 0.21371 0.75926 0.0
H2283 H 0.10047 0.18359 0.73301 0.0
C2284 C 0.11926 0.25764 0.80563 0.0
C2285 C 0.12713 0.27918 0.80199 0.0
C2286 C 0.1177 0.24261 0.78818 0.0
C2287 C 0.12368 0.24882 0.76658 0.0
C2288 C 0.13034 0.27078 0.76278 0.0
C2289 C 0.13219 0.28573 0.78029 0.0
C2290 C 0.14433 0.21541 0.71764 0.0
C2291 C 0.12986 0.19725 0.71771 0.0
C2292 C 0.14185 0.23248 0.73297 0.0
C2293 C 0.12464 0.232 0.7486 0.0
C2294 C 0.10944 0.21442 0.74784 0.0
C2295 C 0.1121 0.19719 0.73268 0.0
H2296 H 0.72716 0.1013 0.80872 0.0
H2297 H 0.70447 0.16265 0.78013 0.0
H2298 H 0.75341 0.09696 0.77854 0.0
H2299 H 0.73128 0.15885 0.75055 0.0
H2300 H 0.77492 0.14358 0.69315 0.0
H2301 H 0.7438 0.1406 0.71853 0.0
H2302 H 0.78714 0.11301 0.76816 0.0
H2303 H 0.81786 0.11513 0.7426 0.0
C2304 C 0.72771 0.11382 0.79595 0.0
C2305 C 0.71385 0.13243 0.79698 0.0
C2306 C 0.74286 0.1114 0.77868 0.0
C2307 C 0.74475 0.12768 0.76218 0.0
C2308 C 0.73019 0.14581 0.76274 0.0
C2309 C 0.71485 0.14807 0.77985 0.0
C2310 C 0.77771 0.13658 0.70938 0.0
C2311 C 0.79896 0.12976 0.71587 0.0
C2312 C 0.75988 0.13499 0.724 0.0
C2313 C 0.76291 0.12677 0.74555 0.0
C2314 C 0.784 0.11913 0.75166 0.0
C2315 C 0.80174 0.12048 0.73698 0.0
H2316 H 0.89704 0.73384 0.8162 0.0
H2317 H 0.8446 0.70279 0.779 0.0
H2318 H 0.90219 0.7606 0.78658 0.0
H2319 H 0.84911 0.72996 0.7499 0.0
H2320 H 0.87938 0.82201 0.74706 0.0
H2321 H 0.8829 0.79181 0.77329 0.0
H2322 H 0.8704 0.74485 0.72094 0.0
H2323 H 0.86597 0.7752 0.6949 0.0
C2324 C 0.8867 0.73263 0.80164 0.0
C2325 C 0.87026 0.7163 0.80008 0.0
C2326 C 0.88957 0.74806 0.7847 0.0
C2327 C 0.8759 0.74767 0.76591 0.0
C2328 C 0.86016 0.73067 0.76394 0.0
C2329 C 0.85746 0.71511 0.78075 0.0
C2330 C 0.87773 0.80523 0.74108 0.0
C2331 C 0.87209 0.80102 0.71898 0.0
C2332 C 0.87986 0.78784 0.75612 0.0
C2333 C 0.87669 0.76582 0.74933 0.0
C2334 C 0.87242 0.7616 0.72689 0.0
C2335 C 0.87 0.779 0.71192 0.0
H2336 H 0.29804 0.22135 0.15659 0.0
H2337 H 0.2681 0.18739 0.10142 0.0
H2338 H 0.27137 0.25105 0.15286 0.0
H2339 H 0.24193 0.21765 0.09702 0.0
H2340 H 0.22659 0.30752 0.13745 0.0
H2341 H 0.25698 0.2814 0.13333 0.0
H2342 H 0.21038 0.23026 0.11557 0.0
H2343 H 0.1803 0.25648 0.11875 0.0
C2344 C 0.28609 0.22046 0.14331 0.0
C2345 C 0.28505 0.20181 0.12949 0.0
C2346 C 0.2708 0.23762 0.14107 0.0
C2347 C 0.25424 0.23674 0.12477 0.0
C2348 C 0.25407 0.21868 0.11011 0.0
C2349 C 0.26919 0.20137 0.11254 0.0
C2350 C 0.22289 0.29077 0.13234 0.0
C2351 C 0.20095 0.28409 0.1286 0.0
C2352 C 0.24032 0.27573 0.13011 0.0
C2353 C 0.23622 0.25358 0.12433 0.0
C2354 C 0.21434 0.2472 0.11973 0.0
C2355 C 0.19697 0.26227 0.1217 0.0
H2356 H 0.22344 0.69245 0.8548 0.0
H2357 H 0.17892 0.74182 0.88081 0.0
H2358 H 0.25403 0.71847 0.85786 0.0
H2359 H 0.20912 0.76801 0.88297 0.0
H2360 H 0.26792 0.81011 0.89484 0.0
H2361 H 0.24221 0.77952 0.89947 0.0
H2362 H 0.2665 0.75016 0.83906 0.0
H2363 H 0.29279 0.78019 0.83502 0.0
C2364 C 0.22019 0.7088 0.8613 0.0
C2365 C 0.19867 0.71508 0.8674 0.0
C2366 C 0.23772 0.72379 0.86292 0.0
C2367 C 0.2341 0.74549 0.87044 0.0
C2368 C 0.21272 0.75141 0.8774 0.0
C2369 C 0.19528 0.73636 0.87603 0.0
C2370 C 0.26796 0.79695 0.88271 0.0
C2371 C 0.28226 0.79772 0.86444 0.0
C2372 C 0.25312 0.77945 0.88529 0.0
C2373 C 0.25198 0.76244 0.86949 0.0
C2374 C 0.267 0.76275 0.85174 0.0
C2375 C 0.28205 0.7801 0.84933 0.0
H2376 H 0.29172 0.21618 0.84322 0.0
H2377 H 0.26429 0.18259 0.89996 0.0
H2378 H 0.26501 0.24558 0.84756 0.0
H2379 H 0.23795 0.2127 0.90491 0.0
H2380 H 0.1756 0.25181 0.88402 0.0
H2381 H 0.20563 0.22545 0.88725 0.0
H2382 H 0.25216 0.27606 0.86777 0.0
H2383 H 0.22184 0.3022 0.86357 0.0
C2384 C 0.28026 0.21527 0.85693 0.0
C2385 C 0.28001 0.19685 0.87109 0.0
C2386 C 0.26499 0.23231 0.85954 0.0
C2387 C 0.24919 0.23156 0.87655 0.0
C2388 C 0.2496 0.21364 0.89138 0.0
C2389 C 0.26478 0.19641 0.88861 0.0
C2390 C 0.19227 0.25742 0.88073 0.0
C2391 C 0.19629 0.27902 0.87322 0.0
C2392 C 0.20958 0.2423 0.88273 0.0
C2393 C 0.23137 0.24849 0.87753 0.0
C2394 C 0.23553 0.27053 0.87138 0.0
C2395 C 0.21817 0.28558 0.86908 0.0
H2396 H 0.74318 0.17893 0.8788 0.0
H2397 H 0.69183 0.22535 0.86125 0.0
H2398 H 0.76946 0.20901 0.88172 0.0
H2399 H 0.71802 0.2557 0.86507 0.0
H2400 H 0.77769 0.29674 0.84081 0.0
H2401 H 0.7481 0.26999 0.84488 0.0
H2402 H 0.78225 0.24059 0.90031 0.0
H2403 H 0.81236 0.26687 0.8956 0.0
C2404 C 0.73734 0.19563 0.87605 0.0
C2405 C 0.71542 0.19965 0.86954 0.0
C2406 C 0.75245 0.21298 0.87787 0.0
C2407 C 0.74599 0.23488 0.87348 0.0
C2408 C 0.72373 0.23902 0.86812 0.0
C2409 C 0.70866 0.22161 0.86606 0.0
C2410 C 0.77878 0.28478 0.85407 0.0
C2411 C 0.79757 0.28379 0.86769 0.0
C2412 C 0.76168 0.26945 0.85651 0.0
C2413 C 0.7628 0.25289 0.8728 0.0
C2414 C 0.78103 0.25275 0.88724 0.0
C2415 C 0.79826 0.26791 0.88463 0.0
H2416 H 0.78061 0.70658 0.84504 0.0
H2417 H 0.8167 0.73639 0.89898 0.0
H2418 H 0.75128 0.7332 0.84973 0.0
H2419 H 0.78662 0.76273 0.90434 0.0
H2420 H 0.7458 0.82389 0.88252 0.0
H2421 H 0.77258 0.79425 0.8861 0.0
H2422 H 0.72168 0.74649 0.87082 0.0
H2423 H 0.69511 0.77637 0.86621 0.0
C2424 C 0.78213 0.71857 0.85823 0.0
C2425 C 0.8012 0.71946 0.87147 0.0
C2426 C 0.76511 0.7338 0.86107 0.0
C2427 C 0.7665 0.75023 0.87741 0.0
C2428 C 0.78514 0.75054 0.89134 0.0
C2429 C 0.80235 0.73538 0.88835 0.0
C2430 C 0.74023 0.80704 0.88024 0.0
C2431 C 0.71841 0.80251 0.87373 0.0
C2432 C 0.7556 0.78997 0.88244 0.0
C2433 C 0.74943 0.76792 0.87847 0.0
C2434 C 0.72719 0.76331 0.87344 0.0
C2435 C 0.7119 0.78042 0.8709 0.0
H2436 H 0.81789 0.74163 0.11636 0.0
H2437 H 0.77321 0.6913 0.14021 0.0
H2438 H 0.78746 0.76756 0.11386 0.0
H2439 H 0.74245 0.71706 0.13681 0.0
H2440 H 0.70247 0.77765 0.16001 0.0
H2441 H 0.72935 0.74821 0.15605 0.0
H2442 H 0.75456 0.77914 0.0968 0.0
H2443 H 0.72816 0.80919 0.10134 0.0
C2444 C 0.80146 0.73591 0.1206 0.0
C2445 C 0.79808 0.71443 0.12874 0.0
C2446 C 0.78391 0.75081 0.11903 0.0
C2447 C 0.76241 0.74455 0.1253 0.0
C2448 C 0.75883 0.72265 0.1323 0.0
C2449 C 0.77646 0.70781 0.13412 0.0
C2450 C 0.71355 0.77808 0.14596 0.0
C2451 C 0.71331 0.79597 0.13114 0.0
C2452 C 0.72894 0.76104 0.14359 0.0
C2453 C 0.74434 0.76129 0.12619 0.0
C2454 C 0.74331 0.77861 0.1107 0.0
C2455 C 0.72807 0.79581 0.11322 0.0
H2456 H 0.2488 0.82137 0.11464 0.0
H2457 H 0.30096 0.77679 0.13433 0.0
H2458 H 0.22343 0.79044 0.11162 0.0
H2459 H 0.27583 0.74561 0.13037 0.0
H2460 H 0.21725 0.70351 0.15463 0.0
H2461 H 0.24594 0.73112 0.15041 0.0
H2462 H 0.21188 0.75797 0.09364 0.0
H2463 H 0.18257 0.73081 0.0985 0.0
C2464 C 0.255 0.80488 0.11781 0.0
C2465 C 0.27681 0.80158 0.12501 0.0
C2466 C 0.24046 0.78706 0.11595 0.0
C2467 C 0.24746 0.76546 0.12095 0.0
C2468 C 0.26968 0.76205 0.1269 0.0
C2469 C 0.28414 0.77992 0.12905 0.0
C2470 C 0.21599 0.7151 0.14104 0.0
C2471 C 0.19744 0.71511 0.12708 0.0
C2472 C 0.23259 0.73091 0.13851 0.0
C2473 C 0.23121 0.74698 0.12177 0.0
C2474 C 0.21326 0.74619 0.10702 0.0
C2475 C 0.1965 0.73052 0.10973 0.0
H2476 H 0.70897 0.21286 0.15227 0.0
H2477 H 0.73902 0.17579 0.09912 0.0
H2478 H 0.73635 0.24153 0.14792 0.0
H2479 H 0.76615 0.20523 0.09411 0.0
H2480 H 0.82746 0.24607 0.11628 0.0
H2481 H 0.79769 0.21924 0.11271 0.0
H2482 H 0.74992 0.27061 0.12635 0.0
H2483 H 0.77982 0.29709 0.131 0.0
C2484 C 0.72119 0.21099 0.13933 0.0
C2485 C 0.72188 0.19187 0.12617 0.0
C2486 C 0.73685 0.22763 0.13669 0.0
C2487 C 0.75352 0.22578 0.12063 0.0
C2488 C 0.75375 0.20705 0.10687 0.0
C2489 C 0.73813 0.19022 0.10966 0.0
C2490 C 0.81056 0.25165 0.11819 0.0
C2491 C 0.80595 0.27355 0.12429 0.0
C2492 C 0.79345 0.2363 0.11602 0.0
C2493 C 0.77137 0.24265 0.11956 0.0
C2494 C 0.76675 0.26497 0.12413 0.0
C2495 C 0.78387 0.28019 0.12669 0.0
H2496 H 0.63933 0.80287 0.72087 0.0
H2497 H 0.61332 0.75383 0.67601 0.0
H2498 H 0.63603 0.77674 0.75132 0.0
H2499 H 0.61093 0.72747 0.70611 0.0
H2500 H 0.65844 0.7152 0.79019 0.0
H2501 H 0.65469 0.74507 0.76372 0.0
H2502 H 0.59436 0.71577 0.73914 0.0
H2503 H 0.5987 0.68529 0.76506 0.0
C2504 C 0.6328 0.78655 0.71752 0.0
C2505 C 0.62675 0.7804 0.69596 0.0
C2506 C 0.63104 0.77149 0.73497 0.0
C2507 C 0.62345 0.74983 0.73123 0.0
C2508 C 0.61655 0.74404 0.70979 0.0
C2509 C 0.61804 0.75917 0.69242 0.0
C2510 C 0.6442 0.71525 0.77935 0.0
C2511 C 0.62901 0.69769 0.77959 0.0
C2512 C 0.64196 0.73252 0.76419 0.0
C2513 C 0.6243 0.73284 0.74906 0.0
C2514 C 0.60845 0.71585 0.75015 0.0
C2515 C 0.61086 0.69842 0.76512 0.0
H2516 H 0.31787 0.61823 0.75334 0.0
H2517 H 0.27201 0.63729 0.80459 0.0
H2518 H 0.28766 0.61556 0.72719 0.0
H2519 H 0.24147 0.63362 0.7786 0.0
H2520 H 0.20005 0.65741 0.71931 0.0
H2521 H 0.2271 0.65339 0.74859 0.0
H2522 H 0.25588 0.59764 0.71443 0.0
H2523 H 0.22932 0.60237 0.68455 0.0
C2524 C 0.30125 0.62135 0.75918 0.0
C2525 C 0.29742 0.62822 0.78102 0.0
C2526 C 0.28381 0.61968 0.74415 0.0
C2527 C 0.26201 0.62454 0.75063 0.0
C2528 C 0.25806 0.63024 0.77283 0.0
C2529 C 0.27557 0.63221 0.7878 0.0
C2530 C 0.21196 0.6441 0.71815 0.0
C2531 C 0.21266 0.63038 0.69942 0.0
C2532 C 0.22746 0.64169 0.73508 0.0
C2533 C 0.24391 0.6253 0.7339 0.0
C2534 C 0.24382 0.6108 0.71571 0.0
C2535 C 0.22849 0.61341 0.69861 0.0
H2536 H 0.36256 0.27546 0.80308 0.0
H2537 H 0.38202 0.32164 0.75221 0.0
H2538 H 0.36642 0.24508 0.77701 0.0
H2539 H 0.38512 0.29143 0.72597 0.0
H2540 H 0.39882 0.23267 0.68396 0.0
H2541 H 0.4036 0.25886 0.71411 0.0
H2542 H 0.34571 0.23216 0.74631 0.0
H2543 H 0.3414 0.20556 0.71665 0.0
C2544 C 0.3678 0.27912 0.78636 0.0
C2545 C 0.37174 0.30101 0.77964 0.0
C2546 C 0.36992 0.2617 0.77138 0.0
C2547 C 0.3758 0.26579 0.74929 0.0
C2548 C 0.38079 0.28758 0.7429 0.0
C2549 C 0.3789 0.30497 0.75793 0.0
C2550 C 0.38729 0.23219 0.69764 0.0
C2551 C 0.36957 0.21717 0.69775 0.0
C2552 C 0.38998 0.24729 0.71488 0.0
C2553 C 0.37491 0.24784 0.73254 0.0
C2554 C 0.35781 0.2321 0.73314 0.0
C2555 C 0.35524 0.21688 0.71601 0.0
H2556 H 0.8023 0.36201 0.71906 0.0
H2557 H 0.74985 0.37942 0.6739 0.0
H2558 H 0.77705 0.36635 0.75009 0.0
H2559 H 0.72435 0.38274 0.70468 0.0
H2560 H 0.68293 0.39657 0.76365 0.0
H2561 H 0.71223 0.4013 0.73645 0.0
H2562 H 0.74768 0.3464 0.76537 0.0
H2563 H 0.71901 0.34241 0.79303 0.0
C2564 C 0.78538 0.36684 0.71578 0.0
C2565 C 0.77801 0.37017 0.69402 0.0
C2566 C 0.77085 0.36922 0.73356 0.0
C2567 C 0.74852 0.37463 0.72997 0.0
C2568 C 0.74145 0.37885 0.70822 0.0
C2569 C 0.75606 0.37681 0.69048 0.0
C2570 C 0.69717 0.38576 0.76438 0.0
C2571 C 0.69852 0.36899 0.78039 0.0
C2572 C 0.71392 0.38837 0.74869 0.0
C2573 C 0.73226 0.37406 0.74845 0.0
C2574 C 0.73402 0.35795 0.76512 0.0
C2575 C 0.71745 0.35555 0.78098 0.0
H2576 H 0.63552 0.19383 0.27379 0.0
H2577 H 0.61665 0.24474 0.32011 0.0
H2578 H 0.63062 0.21975 0.24337 0.0
H2579 H 0.61274 0.27084 0.28998 0.0
H2580 H 0.59793 0.31338 0.23204 0.0
H2581 H 0.59388 0.28324 0.25845 0.0
H2582 H 0.64991 0.25012 0.229 0.0
H2583 H 0.65327 0.27959 0.20215 0.0
C2584 C 0.63024 0.21053 0.27747 0.0
C2585 C 0.62668 0.21726 0.2994 0.0
C2586 C 0.62754 0.22544 0.26004 0.0
C2587 C 0.62153 0.24753 0.26415 0.0
C2588 C 0.61708 0.25394 0.28604 0.0
C2589 C 0.61947 0.23896 0.30341 0.0
C2590 C 0.60915 0.29948 0.23102 0.0
C2591 C 0.62605 0.29902 0.2151 0.0
C2592 C 0.60693 0.28224 0.24625 0.0
C2593 C 0.62173 0.26429 0.24611 0.0
C2594 C 0.63799 0.26344 0.22953 0.0
C2595 C 0.64003 0.2805 0.21415 0.0
H2596 H 0.68057 0.6181 0.24232 0.0
H2597 H 0.72523 0.64093 0.1915 0.0
H2598 H 0.71116 0.61524 0.268 0.0
H2599 H 0.75614 0.6372 0.21704 0.0
H2600 H 0.79702 0.65952 0.27756 0.0
H2601 H 0.76999 0.6561 0.24815 0.0
H2602 H 0.7438 0.59725 0.27902 0.0
H2603 H 0.77033 0.60124 0.30901 0.0
C2604 C 0.69701 0.62207 0.23646 0.0
C2605 C 0.70036 0.62998 0.21488 0.0
C2606 C 0.71466 0.62028 0.2512 0.0
C2607 C 0.73621 0.6261 0.24471 0.0
C2608 C 0.73973 0.633 0.22278 0.0
C2609 C 0.722 0.63502 0.20808 0.0
C2610 C 0.78571 0.64566 0.27795 0.0
C2611 C 0.78567 0.63083 0.29583 0.0
C2612 C 0.77022 0.64361 0.26095 0.0
C2613 C 0.75446 0.62652 0.26125 0.0
C2614 C 0.75531 0.61093 0.27849 0.0
C2615 C 0.77063 0.61314 0.29564 0.0
H2616 H 0.38382 0.74679 0.32589 0.0
H2617 H 0.37299 0.79815 0.27752 0.0
H2618 H 0.38764 0.71977 0.29639 0.0
H2619 H 0.37771 0.77132 0.24794 0.0
H2620 H 0.34832 0.71366 0.20827 0.0
H2621 H 0.35427 0.74289 0.23481 0.0
H2622 H 0.40675 0.70505 0.26507 0.0
H2623 H 0.40027 0.67521 0.23876 0.0
C2624 C 0.38287 0.75241 0.30893 0.0
C2625 C 0.37768 0.77448 0.30401 0.0
C2626 C 0.38518 0.73693 0.29198 0.0
C2627 C 0.38262 0.74331 0.26978 0.0
C2628 C 0.37919 0.76576 0.26488 0.0
C2629 C 0.37657 0.78115 0.28182 0.0
C2630 C 0.36131 0.71157 0.2204 0.0
C2631 C 0.37361 0.69192 0.22154 0.0
C2632 C 0.36488 0.72851 0.23555 0.0
C2633 C 0.38099 0.72635 0.25214 0.0
C2634 C 0.394 0.70711 0.25269 0.0
C2635 C 0.39033 0.69004 0.23757 0.0
H2636 H 0.20081 0.3393 0.27951 0.0
H2637 H 0.22972 0.39663 0.31072 0.0
H2638 H 0.22683 0.34255 0.24925 0.0
H2639 H 0.25525 0.4005 0.27982 0.0
H2640 H 0.31672 0.37875 0.2408 0.0
H2641 H 0.28705 0.38223 0.26737 0.0
H2642 H 0.24007 0.36124 0.21783 0.0
H2643 H 0.27012 0.35683 0.19135 0.0
C2644 C 0.21241 0.35293 0.2797 0.0
C2645 C 0.21334 0.36753 0.29775 0.0
C2646 C 0.2273 0.35489 0.26218 0.0
C2647 C 0.24338 0.37167 0.26208 0.0
C2648 C 0.24346 0.38704 0.27955 0.0
C2649 C 0.22872 0.38491 0.29723 0.0
C2650 C 0.30005 0.37512 0.23541 0.0
C2651 C 0.29591 0.36725 0.21395 0.0
C2652 C 0.28291 0.37728 0.25069 0.0
C2653 C 0.26106 0.3719 0.24489 0.0
C2654 C 0.25674 0.36511 0.22306 0.0
C2655 C 0.27396 0.36271 0.2078 0.0
H2656 H 0.72047 0.62891 0.80031 0.0
H2657 H 0.67408 0.61607 0.74762 0.0
H2658 H 0.75102 0.62509 0.77443 0.0
H2659 H 0.70449 0.61314 0.72156 0.0
H2660 H 0.76283 0.60017 0.67888 0.0
H2661 H 0.73598 0.59428 0.70826 0.0
H2662 H 0.76584 0.64713 0.7459 0.0
H2663 H 0.79312 0.65239 0.71699 0.0
C2664 C 0.71681 0.62511 0.78321 0.0
C2665 C 0.69485 0.62303 0.77595 0.0
C2666 C 0.73432 0.62304 0.76834 0.0
C2667 C 0.73027 0.61914 0.7458 0.0
C2668 C 0.70832 0.61591 0.7388 0.0
C2669 C 0.69081 0.61769 0.75374 0.0
C2670 C 0.76384 0.61031 0.69359 0.0
C2671 C 0.77998 0.62692 0.69549 0.0
C2672 C 0.74837 0.60701 0.71039 0.0
C2673 C 0.74852 0.62039 0.72937 0.0
C2674 C 0.76532 0.63629 0.73168 0.0
C2675 C 0.78095 0.63943 0.715 0.0
H2676 H 0.39608 0.68472 0.76676 0.0
H2677 H 0.3392 0.71839 0.79377 0.0
H2678 H 0.4013 0.71472 0.74043 0.0
H2679 H 0.34385 0.74783 0.76699 0.0
H2680 H 0.36067 0.80412 0.72328 0.0
H2681 H 0.36435 0.77819 0.75383 0.0
H2682 H 0.3837 0.72703 0.70789 0.0
H2683 H 0.3809 0.75318 0.67758 0.0
C2684 C 0.38475 0.69857 0.76716 0.0
C2685 C 0.36709 0.69903 0.78224 0.0
C2686 C 0.38768 0.71573 0.75198 0.0
C2687 C 0.37287 0.73364 0.75136 0.0
C2688 C 0.35579 0.73451 0.7671 0.0
C2689 C 0.35302 0.7175 0.78242 0.0
C2690 C 0.36605 0.78741 0.71977 0.0
C2691 C 0.37026 0.78064 0.69797 0.0
C2692 C 0.36804 0.7725 0.73728 0.0
C2693 C 0.37401 0.75038 0.73336 0.0
C2694 C 0.3793 0.74396 0.71165 0.0
C2695 C 0.37759 0.75895 0.69418 0.0
H2696 H 0.28008 0.33957 0.79453 0.0
H2697 H 0.31157 0.39829 0.76892 0.0
H2698 H 0.25045 0.34376 0.7678 0.0
H2699 H 0.28142 0.40304 0.74271 0.0
H2700 H 0.19363 0.36003 0.72383 0.0
H2701 H 0.21933 0.36327 0.75464 0.0
H2702 H 0.27009 0.38581 0.70973 0.0
H2703 H 0.24423 0.38341 0.67921 0.0
C2704 C 0.28042 0.35368 0.78354 0.0
C2705 C 0.29837 0.36842 0.78368 0.0
C2706 C 0.26331 0.35618 0.76822 0.0
C2707 C 0.26358 0.37363 0.75285 0.0
C2708 C 0.2809 0.3891 0.75391 0.0
C2709 C 0.29814 0.38645 0.76905 0.0
C2710 C 0.21019 0.366 0.7206 0.0
C2711 C 0.21691 0.37128 0.69899 0.0
C2712 C 0.22499 0.36773 0.73827 0.0
C2713 C 0.24692 0.37457 0.73472 0.0
C2714 C 0.2533 0.38076 0.71324 0.0
C2715 C 0.23845 0.37927 0.69563 0.0
H2716 H 0.60163 0.31078 0.76502 0.0
H2717 H 0.65836 0.2783 0.79372 0.0
H2718 H 0.59763 0.28054 0.73878 0.0
H2719 H 0.65498 0.24863 0.767 0.0
H2720 H 0.63958 0.19152 0.72305 0.0
H2721 H 0.63567 0.21776 0.75333 0.0
H2722 H 0.61594 0.26827 0.70682 0.0
H2723 H 0.61896 0.24189 0.67684 0.0
C2724 C 0.61319 0.29715 0.76581 0.0
C2725 C 0.63043 0.2971 0.78137 0.0
C2726 C 0.61099 0.27984 0.75066 0.0
C2727 C 0.62613 0.26219 0.75051 0.0
C2728 C 0.64281 0.26173 0.76671 0.0
C2729 C 0.64484 0.27889 0.78201 0.0
C2730 C 0.63411 0.20815 0.71935 0.0
C2731 C 0.62975 0.21462 0.69746 0.0
C2732 C 0.63199 0.22326 0.73671 0.0
C2733 C 0.6257 0.24528 0.73259 0.0
C2734 C 0.62052 0.25144 0.71078 0.0
C2735 C 0.62239 0.23628 0.69348 0.0
H2736 H 0.71593 0.3433 0.20161 0.0
H2737 H 0.68104 0.39786 0.23166 0.0
H2738 H 0.74593 0.34798 0.22766 0.0
H2739 H 0.71167 0.40325 0.25725 0.0
H2740 H 0.80273 0.36445 0.27084 0.0
H2741 H 0.77601 0.36849 0.24098 0.0
H2742 H 0.7255 0.38523 0.28865 0.0
H2743 H 0.75232 0.38218 0.31818 0.0
C2744 C 0.71486 0.35664 0.21349 0.0
C2745 C 0.69591 0.37002 0.21472 0.0
C2746 C 0.73223 0.35945 0.22839 0.0
C2747 C 0.73125 0.37592 0.24475 0.0
C2748 C 0.7128 0.39008 0.2452 0.0
C2749 C 0.69527 0.38707 0.23046 0.0
C2750 C 0.786 0.36935 0.27487 0.0
C2751 C 0.77963 0.37277 0.29693 0.0
C2752 C 0.77062 0.37154 0.25776 0.0
C2753 C 0.74845 0.37691 0.26235 0.0
C2754 C 0.74242 0.38136 0.28434 0.0
C2755 C 0.75784 0.37946 0.30138 0.0
H2756 H 0.60152 0.68579 0.22957 0.0
H2757 H 0.65755 0.71927 0.20066 0.0
H2758 H 0.59718 0.71587 0.25593 0.0
H2759 H 0.65384 0.74879 0.22749 0.0
H2760 H 0.63835 0.80511 0.27232 0.0
H2761 H 0.63426 0.77926 0.24175 0.0
H2762 H 0.61576 0.72792 0.28784 0.0
H2763 H 0.61897 0.7539 0.31814 0.0
C2764 C 0.61283 0.69962 0.22874 0.0
C2765 C 0.63002 0.69997 0.21313 0.0
C2766 C 0.61044 0.71683 0.24396 0.0
C2767 C 0.62534 0.73469 0.24412 0.0
C2768 C 0.64186 0.73551 0.2278 0.0
C2769 C 0.64409 0.71844 0.21242 0.0
C2770 C 0.63311 0.78838 0.27587 0.0
C2771 C 0.62917 0.78156 0.29773 0.0
C2772 C 0.63087 0.7735 0.25834 0.0
C2773 C 0.62489 0.75137 0.26225 0.0
C2774 C 0.62009 0.74485 0.28405 0.0
C2775 C 0.62208 0.75977 0.30153 0.0
H2776 H 0.27599 0.63377 0.19545 0.0
H2777 H 0.3211 0.61343 0.24693 0.0
H2778 H 0.24525 0.63086 0.22125 0.0
H2779 H 0.29059 0.61135 0.27287 0.0
H2780 H 0.231 0.5992 0.31453 0.0
H2781 H 0.25777 0.59397 0.28494 0.0
H2782 H 0.23191 0.65155 0.25151 0.0
H2783 H 0.20471 0.65625 0.28056 0.0
C2784 C 0.27935 0.62853 0.21223 0.0
C2785 C 0.30107 0.62403 0.21915 0.0
C2786 C 0.26172 0.627 0.22708 0.0
C2787 C 0.26539 0.62115 0.24928 0.0
C2788 C 0.287 0.61565 0.25589 0.0
C2789 C 0.30459 0.61696 0.24099 0.0
C2790 C 0.23084 0.61057 0.30071 0.0
C2791 C 0.2158 0.62827 0.30006 0.0
C2792 C 0.2463 0.60764 0.28378 0.0
C2793 C 0.24723 0.62245 0.26588 0.0
C2794 C 0.23158 0.63961 0.26483 0.0
C2795 C 0.216 0.6424 0.28163 0.0
H2796 H 0.38123 0.24152 0.31661 0.0
H2797 H 0.35525 0.19098 0.27337 0.0
H2798 H 0.38312 0.26699 0.28582 0.0
H2799 H 0.35794 0.21637 0.24221 0.0
H2800 H 0.33435 0.27768 0.20279 0.0
H2801 H 0.33868 0.24805 0.22953 0.0
H2802 H 0.39971 0.27741 0.25221 0.0
H2803 H 0.39488 0.30757 0.22602 0.0
C2804 C 0.37637 0.23564 0.30042 0.0
C2805 C 0.36785 0.21423 0.29757 0.0
C2806 C 0.37759 0.25028 0.28265 0.0
C2807 C 0.37056 0.24385 0.26146 0.0
C2808 C 0.3631 0.22204 0.25836 0.0
C2809 C 0.36169 0.20743 0.27622 0.0
C2810 C 0.34885 0.27768 0.21328 0.0
C2811 C 0.3641 0.29519 0.21248 0.0
C2812 C 0.35143 0.26056 0.22857 0.0
C2813 C 0.36944 0.2604 0.24326 0.0
C2814 C 0.38536 0.27726 0.24153 0.0
C2815 C 0.38265 0.29451 0.22643 0.0
H2816 H 0.67472 0.75346 0.61362 0.0
H2817 H 0.7212 0.80371 0.6339 0.0
H2818 H 0.70467 0.72713 0.60993 0.0
H2819 H 0.75145 0.77754 0.62925 0.0
H2820 H 0.76277 0.68401 0.59672 0.0
H2821 H 0.73678 0.71444 0.59189 0.0
H2822 H 0.76435 0.74687 0.64924 0.0
H2823 H 0.79072 0.71715 0.65346 0.0
C2824 C 0.69142 0.75906 0.61678 0.0
C2825 C 0.69552 0.78061 0.62439 0.0
C2826 C 0.70868 0.74394 0.61451 0.0
C2827 C 0.73052 0.75008 0.61951 0.0
C2828 C 0.73478 0.77207 0.62577 0.0
C2829 C 0.71745 0.78713 0.62833 0.0
C2830 C 0.76345 0.6978 0.60809 0.0
C2831 C 0.7787 0.698 0.6256 0.0
C2832 C 0.74848 0.71521 0.60539 0.0
C2833 C 0.74829 0.73308 0.62028 0.0
C2834 C 0.76416 0.73363 0.63723 0.0
C2835 C 0.77923 0.7164 0.63977 0.0
H2836 H 0.72301 0.19442 0.35517 0.0
H2837 H 0.67826 0.24325 0.38178 0.0
H2838 H 0.75338 0.22069 0.35811 0.0
H2839 H 0.70824 0.26974 0.38379 0.0
H2840 H 0.76717 0.31241 0.39472 0.0
H2841 H 0.74145 0.28183 0.39966 0.0
H2842 H 0.76512 0.25233 0.33907 0.0
H2843 H 0.79138 0.28226 0.33472 0.0
C2844 C 0.71968 0.21072 0.36177 0.0
C2845 C 0.69816 0.21678 0.36806 0.0
C2846 C 0.73707 0.22585 0.36332 0.0
C2847 C 0.7333 0.24751 0.37092 0.0
C2848 C 0.71194 0.25319 0.37813 0.0
C2849 C 0.69464 0.23798 0.37685 0.0
C2850 C 0.76705 0.29923 0.38261 0.0
C2851 C 0.78122 0.2999 0.36423 0.0
C2852 C 0.75221 0.28173 0.38538 0.0
C2853 C 0.75097 0.26463 0.36966 0.0
C2854 C 0.76574 0.26495 0.35172 0.0
C2855 C 0.78076 0.28227 0.34912 0.0
H2856 H 0.75678 0.67921 0.37863 0.0
H2857 H 0.80679 0.72484 0.35593 0.0
H2858 H 0.73049 0.70927 0.38139 0.0
H2859 H 0.78062 0.75523 0.35954 0.0
H2860 H 0.71949 0.79512 0.33713 0.0
H2861 H 0.7493 0.76852 0.34055 0.0
H2862 H 0.71865 0.74167 0.39921 0.0
H2863 H 0.68828 0.76777 0.39522 0.0
C2864 C 0.76234 0.69575 0.37467 0.0
C2865 C 0.78388 0.69951 0.36683 0.0
C2866 C 0.74723 0.71311 0.3764 0.0
C2867 C 0.7533 0.73478 0.37056 0.0
C2868 C 0.77519 0.73872 0.36375 0.0
C2869 C 0.79026 0.72128 0.36181 0.0
C2870 C 0.71921 0.78375 0.35094 0.0
C2871 C 0.7013 0.78343 0.36574 0.0
C2872 C 0.73645 0.76851 0.353 0.0
C2873 C 0.73637 0.75271 0.37005 0.0
C2874 C 0.71905 0.75322 0.38556 0.0
C2875 C 0.70167 0.7683 0.38336 0.0
H2876 H 0.28266 0.79095 0.33864 0.0
H2877 H 0.31315 0.76469 0.39762 0.0
H2878 H 0.25232 0.76506 0.34275 0.0
H2879 H 0.28229 0.73928 0.40224 0.0
H2880 H 0.24305 0.67698 0.38247 0.0
H2881 H 0.26991 0.7066 0.38493 0.0
H2882 H 0.22069 0.75324 0.36247 0.0
H2883 H 0.19395 0.72333 0.3592 0.0
C2884 C 0.28268 0.77996 0.35276 0.0
C2885 C 0.30052 0.77973 0.36764 0.0
C2886 C 0.26514 0.76515 0.35522 0.0
C2887 C 0.26487 0.74988 0.37274 0.0
C2888 C 0.28216 0.75046 0.38827 0.0
C2889 C 0.29983 0.76512 0.38569 0.0
C2890 C 0.23781 0.69359 0.37835 0.0
C2891 C 0.21638 0.69769 0.37038 0.0
C2892 C 0.25324 0.71067 0.37989 0.0
C2893 C 0.24759 0.73236 0.37372 0.0
C2894 C 0.22578 0.73667 0.36691 0.0
C2895 C 0.21038 0.71953 0.36517 0.0
H2896 H 0.19393 0.27448 0.36279 0.0
H2897 H 0.24463 0.32169 0.38004 0.0
H2898 H 0.22047 0.24451 0.367 0.0
H2899 H 0.27131 0.29196 0.38331 0.0
H2900 H 0.31482 0.23408 0.39716 0.0
H2901 H 0.28467 0.26038 0.40189 0.0
H2902 H 0.25054 0.23102 0.34644 0.0
H2903 H 0.28004 0.20434 0.34234 0.0
C2904 C 0.21071 0.27846 0.36759 0.0
C2905 C 0.2172 0.30051 0.37085 0.0
C2906 C 0.22597 0.26128 0.36989 0.0
C2907 C 0.24817 0.26577 0.37522 0.0
C2908 C 0.25435 0.28776 0.37947 0.0
C2909 C 0.23903 0.30489 0.37744 0.0
C2910 C 0.30073 0.23307 0.38619 0.0
C2911 C 0.29998 0.2172 0.36926 0.0
C2912 C 0.28347 0.24824 0.38882 0.0
C2913 C 0.26519 0.24801 0.37444 0.0
C2914 C 0.26412 0.23157 0.35807 0.0
C2915 C 0.28121 0.21631 0.35559 0.0
H2916 H 0.27685 0.19681 0.63068 0.0
H2917 H 0.32354 0.24877 0.61604 0.0
H2918 H 0.24652 0.22297 0.62699 0.0
H2919 H 0.29334 0.27512 0.61319 0.0
H2920 H 0.23463 0.3179 0.60026 0.0
H2921 H 0.26144 0.2884 0.59463 0.0
H2922 H 0.23267 0.25208 0.64899 0.0
H2923 H 0.2055 0.28106 0.65407 0.0
C2924 C 0.28062 0.2138 0.62652 0.0
C2925 C 0.30262 0.22078 0.62392 0.0
C2926 C 0.26324 0.22883 0.62452 0.0
C2927 C 0.26745 0.25126 0.62014 0.0
C2928 C 0.2894 0.25796 0.61637 0.0
C2929 C 0.30677 0.24286 0.6181 0.0
C2930 C 0.23385 0.30347 0.61081 0.0
C2931 C 0.21802 0.30197 0.62776 0.0
C2932 C 0.2493 0.2866 0.60765 0.0
C2933 C 0.24939 0.26791 0.62146 0.0
C2934 C 0.23297 0.26604 0.63781 0.0
C2935 C 0.21742 0.28279 0.64083 0.0
H2936 H 0.75281 0.31764 0.61215 0.0
H2937 H 0.80417 0.27423 0.63615 0.0
H2938 H 0.72764 0.28658 0.60966 0.0
H2939 H 0.77917 0.24285 0.63282 0.0
H2940 H 0.71903 0.2024 0.657 0.0
H2941 H 0.74825 0.22947 0.65243 0.0
H2942 H 0.717 0.2532 0.59273 0.0
H2943 H 0.68721 0.22664 0.59786 0.0
C2944 C 0.75891 0.30137 0.6164 0.0
C2945 C 0.78044 0.2985 0.62462 0.0
C2946 C 0.74447 0.28345 0.61485 0.0
C2947 C 0.75125 0.26214 0.62122 0.0
C2948 C 0.77321 0.25908 0.62823 0.0
C2949 C 0.7876 0.27706 0.63002 0.0
C2950 C 0.71853 0.21317 0.64271 0.0
C2951 C 0.7006 0.21255 0.62797 0.0
C2952 C 0.73541 0.22866 0.64 0.0
C2953 C 0.73493 0.24375 0.62231 0.0
C2954 C 0.71766 0.24221 0.60683 0.0
C2955 C 0.70063 0.22689 0.6097 0.0
H2956 H 0.27259 0.80534 0.64198 0.0
H2957 H 0.31708 0.75488 0.61811 0.0
H2958 H 0.24161 0.77991 0.63781 0.0
H2959 H 0.28653 0.72927 0.61495 0.0
H2960 H 0.22775 0.68794 0.601 0.0
H2961 H 0.25424 0.71802 0.59723 0.0
H2962 H 0.22733 0.74884 0.65579 0.0
H2963 H 0.20029 0.71945 0.65884 0.0
C2964 C 0.27575 0.78886 0.63578 0.0
C2965 C 0.29735 0.78213 0.63052 0.0
C2966 C 0.258 0.7742 0.6335 0.0
C2967 C 0.26148 0.75238 0.6262 0.0
C2968 C 0.28302 0.74598 0.62026 0.0
C2969 C 0.30066 0.7607 0.62223 0.0
C2970 C 0.2273 0.70134 0.61285 0.0
C2971 C 0.21203 0.70117 0.63032 0.0
C2972 C 0.24259 0.71854 0.6108 0.0
C2973 C 0.24323 0.7358 0.62638 0.0
C2974 C 0.22727 0.73607 0.64328 0.0
C2975 C 0.21178 0.71906 0.64512 0.0
H2976 H 0.15421 0.20325 0.39734 0.0
H2977 H 0.0871 0.1863 0.38029 0.0
H2978 H 0.14251 0.24051 0.40676 0.0
H2979 H 0.07535 0.22397 0.38925 0.0
H2980 H 0.09616 0.29242 0.35106 0.0
H2981 H 0.08949 0.25459 0.36287 0.0
H2982 H 0.11797 0.26941 0.42657 0.0
H2983 H 0.1241 0.30765 0.41477 0.0
C2984 C 0.13678 0.20729 0.39654 0.0
C2985 C 0.12159 0.19212 0.38784 0.0
C2986 C 0.13001 0.22858 0.40209 0.0
C2987 C 0.10803 0.23518 0.39851 0.0
C2988 C 0.09237 0.21926 0.39215 0.0
C2989 C 0.09909 0.19774 0.38705 0.0
C2990 C 0.0998 0.28788 0.36799 0.0
C2991 C 0.11071 0.30272 0.382 0.0
C2992 C 0.09592 0.26625 0.37483 0.0
C2993 C 0.10346 0.25902 0.39557 0.0
C2994 C 0.11201 0.2746 0.41052 0.0
C2995 C 0.11545 0.29645 0.4038 0.0
H2996 H 0.70547 0.10037 0.34274 0.0
H2997 H 0.68756 0.11701 0.40966 0.0
H2998 H 0.7424 0.09032 0.35497 0.0
H2999 H 0.72498 0.10751 0.42199 0.0
H3000 H 0.79383 0.14553 0.40121 0.0
H3001 H 0.75606 0.13376 0.40823 0.0
H3002 H 0.77066 0.06992 0.37995 0.0
H3003 H 0.80884 0.08168 0.37347 0.0
C3004 C 0.70923 0.10092 0.36024 0.0
C3005 C 0.69393 0.10961 0.37526 0.0
C3006 C 0.73032 0.09501 0.36732 0.0
C3007 C 0.73659 0.09831 0.38943 0.0
C3008 C 0.7205 0.10477 0.40488 0.0
C3009 C 0.69915 0.1102 0.39784 0.0
C3010 C 0.78928 0.12857 0.39771 0.0
C3011 C 0.804 0.11454 0.38667 0.0
C3012 C 0.76767 0.12174 0.40181 0.0
C3013 C 0.76038 0.10101 0.39433 0.0
C3014 C 0.77592 0.08598 0.38584 0.0
C3015 C 0.79773 0.09268 0.38218 0.0
H3016 H 0.90284 0.70578 0.34829 0.0
H3017 H 0.87912 0.68683 0.41273 0.0
H3018 H 0.90982 0.743 0.36164 0.0
H3019 H 0.88555 0.72446 0.42612 0.0
H3020 H 0.84542 0.79023 0.40085 0.0
H3021 H 0.85904 0.75334 0.409 0.0
H3022 H 0.92453 0.77289 0.38847 0.0
H3023 H 0.91083 0.81022 0.38086 0.0
C3024 C 0.90018 0.70937 0.36562 0.0
C3025 C 0.89023 0.69369 0.37944 0.0
C3026 C 0.90429 0.73065 0.37336 0.0
C3027 C 0.89792 0.73668 0.39486 0.0
C3028 C 0.89058 0.7202 0.40948 0.0
C3029 C 0.88692 0.6987 0.40183 0.0
C3030 C 0.86295 0.78693 0.3992 0.0
C3031 C 0.87705 0.80281 0.39001 0.0
C3032 C 0.87083 0.76586 0.40401 0.0
C3033 C 0.89282 0.7602 0.39911 0.0
C3034 C 0.90753 0.77688 0.3924 0.0
C3035 C 0.8997 0.79819 0.38805 0.0
H3036 H 0.18865 0.91076 0.36787 0.0
H3037 H 0.20307 0.84729 0.39681 0.0
H3038 H 0.22738 0.92166 0.37253 0.0
H3039 H 0.24144 0.85831 0.40214 0.0
H3040 H 0.31033 0.87815 0.40586 0.0
H3041 H 0.27204 0.88606 0.41639 0.0
H3042 H 0.2563 0.89984 0.34821 0.0
H3043 H 0.29422 0.89132 0.33769 0.0
C3044 C 0.19983 0.89968 0.37641 0.0
C3045 C 0.19307 0.87822 0.382 0.0
C3046 C 0.22195 0.90587 0.37899 0.0
C3047 C 0.23737 0.89078 0.38759 0.0
C3048 C 0.22988 0.87036 0.3957 0.0
C3049 C 0.20794 0.864 0.39263 0.0
C3050 C 0.29889 0.88384 0.39333 0.0
C3051 C 0.30504 0.88396 0.37095 0.0
C3052 C 0.27702 0.88831 0.39935 0.0
C3053 C 0.26125 0.89347 0.38311 0.0
C3054 C 0.26815 0.89614 0.36111 0.0
C3055 C 0.28981 0.89115 0.35504 0.0
H3056 H 0.11699 0.68746 0.58484 0.0
H3057 H 0.09482 0.70603 0.64994 0.0
H3058 H 0.10975 0.72505 0.57168 0.0
H3059 H 0.08699 0.74318 0.63681 0.0
H3060 H 0.14913 0.79176 0.5964 0.0
H3061 H 0.13624 0.75456 0.58842 0.0
H3062 H 0.07064 0.77258 0.60996 0.0
H3063 H 0.08357 0.81022 0.61734 0.0
C3064 C 0.10938 0.69923 0.59597 0.0
C3065 C 0.10669 0.69414 0.61843 0.0
C3066 C 0.10525 0.7207 0.58845 0.0
C3067 C 0.09803 0.73704 0.60327 0.0
C3068 C 0.09239 0.73092 0.62495 0.0
C3069 C 0.09699 0.70969 0.63255 0.0
C3070 C 0.1317 0.78807 0.59826 0.0
C3071 C 0.11736 0.8036 0.60766 0.0
C3072 C 0.12424 0.76681 0.59357 0.0
C3073 C 0.10247 0.76064 0.59883 0.0
C3074 C 0.08748 0.77697 0.60574 0.0
C3075 C 0.09486 0.79846 0.60995 0.0
H3076 H 0.29747 0.14728 0.59403 0.0
H3077 H 0.30872 0.08445 0.62552 0.0
H3078 H 0.26 0.13658 0.58526 0.0
H3079 H 0.27106 0.07298 0.61603 0.0
H3080 H 0.19117 0.12707 0.58416 0.0
H3081 H 0.22874 0.11762 0.57228 0.0
H3082 H 0.24023 0.08618 0.63548 0.0
H3083 H 0.2029 0.09497 0.64659 0.0
C3084 C 0.29213 0.13066 0.59804 0.0
C3085 C 0.30565 0.11675 0.61062 0.0
C3086 C 0.27062 0.12437 0.59288 0.0
C3087 C 0.26217 0.10407 0.60044 0.0
C3088 C 0.27686 0.08895 0.61044 0.0
C3089 C 0.29845 0.09538 0.61573 0.0
C3090 C 0.20153 0.1172 0.59491 0.0
C3091 C 0.1945 0.11189 0.6163 0.0
C3092 C 0.22306 0.11191 0.58826 0.0
C3093 C 0.23782 0.10166 0.60312 0.0
C3094 C 0.22955 0.09398 0.62345 0.0
C3095 C 0.20812 0.09916 0.62998 0.0
H3096 H 0.85486 0.29837 0.59434 0.0
H3097 H 0.91417 0.30729 0.63264 0.0
H3098 H 0.8655 0.2608 0.58598 0.0
H3099 H 0.92589 0.2697 0.6233 0.0
H3100 H 0.90247 0.20046 0.64843 0.0
H3101 H 0.91193 0.23815 0.63957 0.0
H3102 H 0.8843 0.22963 0.57413 0.0
H3103 H 0.87384 0.19174 0.58387 0.0
C3104 C 0.87079 0.29247 0.60003 0.0
C3105 C 0.88362 0.30537 0.61428 0.0
C3106 C 0.87707 0.2709 0.59511 0.0
C3107 C 0.89637 0.26182 0.60442 0.0
C3108 C 0.91061 0.2759 0.61637 0.0
C3109 C 0.90407 0.29747 0.6216 0.0
C3110 C 0.89926 0.20643 0.63184 0.0
C3111 C 0.88724 0.19353 0.6169 0.0
C3112 C 0.90482 0.22811 0.62661 0.0
C3113 C 0.89835 0.23733 0.60626 0.0
C3114 C 0.88896 0.22328 0.59019 0.0
C3115 C 0.88316 0.20153 0.59559 0.0
H3116 H 0.80947 0.90728 0.61538 0.0
H3117 H 0.79105 0.83963 0.60254 0.0
H3118 H 0.77174 0.91916 0.60678 0.0
H3119 H 0.75372 0.85147 0.59336 0.0
H3120 H 0.68705 0.87174 0.58341 0.0
H3121 H 0.72548 0.87649 0.57164 0.0
H3122 H 0.74092 0.90604 0.63468 0.0
H3123 H 0.70286 0.90062 0.64656 0.0
C3124 C 0.79767 0.89513 0.60961 0.0
C3125 C 0.80295 0.87253 0.60986 0.0
C3126 C 0.77612 0.90193 0.60471 0.0
C3127 C 0.75984 0.88623 0.59951 0.0
C3128 C 0.76598 0.86397 0.59708 0.0
C3129 C 0.78729 0.85713 0.60249 0.0
C3130 C 0.69843 0.88035 0.59422 0.0
C3131 C 0.69223 0.88575 0.61589 0.0
C3132 C 0.72039 0.88299 0.58752 0.0
C3133 C 0.73615 0.89145 0.60232 0.0
C3134 C 0.72909 0.89966 0.62285 0.0
C3135 C 0.70733 0.89653 0.62971 0.0
H3136 H 0.40029 0.14974 0.20716 0.0
H3137 H 0.37649 0.08511 0.18895 0.0
H3138 H 0.40744 0.1367 0.2445 0.0
H3139 H 0.38299 0.07208 0.22673 0.0
H3140 H 0.34463 0.09837 0.29366 0.0
H3141 H 0.3569 0.09013 0.25629 0.0
H3142 H 0.42341 0.10904 0.27382 0.0
H3143 H 0.41115 0.11672 0.31157 0.0
C3144 C 0.3976 0.13244 0.21096 0.0
C3145 C 0.38772 0.11843 0.19543 0.0
C3146 C 0.40181 0.12489 0.23229 0.0
C3147 C 0.39556 0.10342 0.23853 0.0
C3148 C 0.38799 0.08868 0.22227 0.0
C3149 C 0.38429 0.09611 0.20071 0.0
C3150 C 0.36207 0.09966 0.28981 0.0
C3151 C 0.3769 0.10846 0.30526 0.0
C3152 C 0.36917 0.09479 0.26846 0.0
C3153 C 0.39107 0.09921 0.26214 0.0
C3154 C 0.40646 0.10549 0.27834 0.0
C3155 C 0.39944 0.10988 0.2999 0.0
H3156 H 0.87206 0.41464 0.3062 0.0
H3157 H 0.90234 0.35187 0.29153 0.0
H3158 H 0.87798 0.42644 0.26796 0.0
H3159 H 0.90892 0.36377 0.2537 0.0
H3160 H 0.90974 0.38082 0.18515 0.0
H3161 H 0.92152 0.39122 0.22244 0.0
H3162 H 0.85356 0.40377 0.24015 0.0
H3163 H 0.84184 0.3928 0.20332 0.0
C3164 C 0.88124 0.40396 0.29515 0.0
C3165 C 0.88661 0.38233 0.30151 0.0
C3166 C 0.8846 0.41069 0.27331 0.0
C3167 C 0.89367 0.39592 0.25787 0.0
C3168 C 0.90204 0.37556 0.26527 0.0
C3169 C 0.89822 0.36867 0.28689 0.0
C3170 C 0.89748 0.38676 0.19677 0.0
C3171 C 0.87487 0.3857 0.19165 0.0
C3172 C 0.90424 0.39274 0.21804 0.0
C3173 C 0.88846 0.39818 0.23415 0.0
C3174 C 0.86612 0.39987 0.22801 0.0
C3175 C 0.85935 0.39339 0.207 0.0
H3176 H 0.64865 0.90009 0.29094 0.0
H3177 H 0.58377 0.87712 0.30938 0.0
H3178 H 0.63547 0.908 0.25386 0.0
H3179 H 0.57051 0.88457 0.27186 0.0
H3180 H 0.59431 0.84588 0.20495 0.0
H3181 H 0.58631 0.85882 0.24209 0.0
H3182 H 0.60945 0.92398 0.22442 0.0
H3183 H 0.617 0.91095 0.18686 0.0
C3184 C 0.63128 0.89774 0.28727 0.0
C3185 C 0.61726 0.88778 0.30276 0.0
C3186 C 0.62364 0.90241 0.26607 0.0
C3187 C 0.60201 0.89662 0.25989 0.0
C3188 C 0.58725 0.88915 0.27622 0.0
C3189 C 0.59483 0.88491 0.29765 0.0
C3190 C 0.59654 0.86325 0.2087 0.0
C3191 C 0.6065 0.87739 0.1933 0.0
C3192 C 0.59183 0.87075 0.22994 0.0
C3193 C 0.59757 0.89236 0.23623 0.0
C3194 C 0.60492 0.90725 0.21997 0.0
C3195 C 0.60922 0.89981 0.19851 0.0
H3196 H 0.09966 0.65278 0.29149 0.0
H3197 H 0.11882 0.58659 0.3096 0.0
H3198 H 0.09132 0.64031 0.2542 0.0
H3199 H 0.1111 0.57407 0.27186 0.0
H3200 H 0.14985 0.59658 0.20391 0.0
H3201 H 0.13774 0.5896 0.2416 0.0
H3202 H 0.07275 0.61414 0.22532 0.0
H3203 H 0.08485 0.62051 0.18722 0.0
C3204 C 0.1011 0.63534 0.28768 0.0
C3205 C 0.10999 0.62064 0.30319 0.0
C3206 C 0.0962 0.62813 0.26638 0.0
C3207 C 0.10074 0.60623 0.26011 0.0
C3208 C 0.1074 0.591 0.27633 0.0
C3209 C 0.11179 0.59814 0.29787 0.0
C3210 C 0.13265 0.59928 0.2081 0.0
C3211 C 0.11829 0.60918 0.19288 0.0
C3212 C 0.12564 0.59521 0.22965 0.0
C3213 C 0.10436 0.60157 0.23641 0.0
C3214 C 0.08922 0.60907 0.22047 0.0
C3215 C 0.09612 0.61267 0.19871 0.0
H3216 H 0.4147 0.87088 0.80516 0.0
H3217 H 0.35269 0.90468 0.79641 0.0
H3218 H 0.42593 0.88185 0.76785 0.0
H3219 H 0.36303 0.91481 0.75923 0.0
H3220 H 0.36951 0.91614 0.69049 0.0
H3221 H 0.38104 0.92754 0.7276 0.0
H3222 H 0.41175 0.86362 0.73705 0.0
H3223 H 0.40099 0.85304 0.70014 0.0
C3224 C 0.40392 0.88143 0.79552 0.0
C3225 C 0.38279 0.88674 0.80322 0.0
C3226 C 0.41021 0.88761 0.77414 0.0
C3227 C 0.3951 0.89855 0.76014 0.0
C3228 C 0.3752 0.90639 0.76927 0.0
C3229 C 0.36909 0.90043 0.7906 0.0
C3230 C 0.37964 0.90511 0.70029 0.0
C3231 C 0.38416 0.88368 0.6929 0.0
C3232 C 0.38615 0.9115 0.72155 0.0
C3233 C 0.39674 0.89628 0.7357 0.0
C3234 C 0.40368 0.87592 0.72689 0.0
C3235 C 0.39733 0.86967 0.70572 0.0
H3236 H 0.08583 0.37586 0.81024 0.0
H3237 H 0.15205 0.39655 0.79403 0.0
H3238 H 0.07406 0.38393 0.77232 0.0
H3239 H 0.14032 0.4052 0.75656 0.0
H3240 H 0.12187 0.41267 0.68922 0.0
H3241 H 0.11475 0.42383 0.72747 0.0
H3242 H 0.09034 0.35835 0.74181 0.0
H3243 H 0.09802 0.34718 0.70396 0.0
C3244 C 0.09753 0.38327 0.79889 0.0
C3245 C 0.11985 0.38544 0.80479 0.0
C3246 C 0.09082 0.38785 0.77724 0.0
C3247 C 0.1063 0.39506 0.7615 0.0
C3248 C 0.12796 0.39989 0.76836 0.0
C3249 C 0.13475 0.39482 0.78977 0.0
C3250 C 0.1139 0.40109 0.7003 0.0
C3251 C 0.11063 0.37905 0.69389 0.0
C3252 C 0.10988 0.40745 0.72216 0.0
C3253 C 0.1022 0.3919 0.73761 0.0
C3254 C 0.09609 0.37075 0.73025 0.0
C3255 C 0.10056 0.36429 0.70861 0.0
H3256 H 0.61588 0.0886 0.81017 0.0
H3257 H 0.59983 0.15502 0.78992 0.0
H3258 H 0.60808 0.07534 0.77273 0.0
H3259 H 0.59139 0.14181 0.75291 0.0
H3260 H 0.58514 0.12064 0.68657 0.0
H3261 H 0.5721 0.1153 0.72449 0.0
H3262 H 0.63603 0.0893 0.74257 0.0
H3263 H 0.64912 0.09529 0.70504 0.0
C3264 C 0.6095 0.10012 0.79803 0.0
C3265 C 0.60867 0.12283 0.80266 0.0
C3266 C 0.60505 0.09253 0.77666 0.0
C3267 C 0.59926 0.10756 0.75994 0.0
C3268 C 0.59559 0.12981 0.7655 0.0
C3269 C 0.60056 0.13743 0.78664 0.0
C3270 C 0.59595 0.11268 0.69841 0.0
C3271 C 0.61816 0.10856 0.69314 0.0
C3272 C 0.58851 0.10967 0.72008 0.0
C3273 C 0.60312 0.1021 0.73646 0.0
C3274 C 0.62434 0.095 0.73027 0.0
C3275 C 0.63191 0.09851 0.70881 0.0
H3276 H 0.8722 0.58569 0.68728 0.0
H3277 H 0.89728 0.65072 0.70204 0.0
H3278 H 0.87839 0.57461 0.72572 0.0
H3279 H 0.90399 0.63961 0.74011 0.0
H3280 H 0.84283 0.6007 0.79349 0.0
H3281 H 0.85358 0.59311 0.75549 0.0
H3282 H 0.9203 0.61363 0.77019 0.0
H3283 H 0.90954 0.62073 0.80857 0.0
C3284 C 0.88016 0.5972 0.69844 0.0
C3285 C 0.88412 0.61909 0.69189 0.0
C3286 C 0.88361 0.59089 0.72042 0.0
C3287 C 0.8915 0.60629 0.73591 0.0
C3288 C 0.89808 0.6273 0.72854 0.0
C3289 C 0.89417 0.63373 0.70676 0.0
C3290 C 0.86002 0.60253 0.78885 0.0
C3291 C 0.87532 0.61144 0.8038 0.0
C3292 C 0.86624 0.59808 0.76712 0.0
C3293 C 0.88775 0.60298 0.75986 0.0
C3294 C 0.90363 0.60971 0.77541 0.0
C3295 C 0.8975 0.6137 0.79735 0.0
H3296 H 0.20685 0.40293 0.14951 0.0
H3297 H 0.18741 0.38111 0.08455 0.0
H3298 H 0.24372 0.41105 0.13591 0.0
H3299 H 0.22471 0.38875 0.07086 0.0
H3300 H 0.29068 0.34812 0.09448 0.0
H3301 H 0.25398 0.36213 0.08629 0.0
H3302 H 0.2733 0.42669 0.10978 0.0
H3303 H 0.31044 0.41258 0.11749 0.0
C3304 C 0.21025 0.40091 0.13205 0.0
C3305 C 0.19458 0.39111 0.11812 0.0
C3306 C 0.23132 0.40571 0.12416 0.0
C3307 C 0.23718 0.40019 0.10237 0.0
C3308 C 0.2206 0.3931 0.08772 0.0
C3309 C 0.1993 0.38872 0.09555 0.0
C3310 C 0.2874 0.36558 0.09675 0.0
C3311 C 0.3031 0.37923 0.10688 0.0
C3312 C 0.26642 0.3737 0.09192 0.0
C3313 C 0.2607 0.39545 0.09773 0.0
C3314 C 0.27732 0.40986 0.10519 0.0
C3315 C 0.29853 0.4018 0.1096 0.0
H3316 H 0.20512 0.59778 0.84561 0.0
H3317 H 0.18647 0.61817 0.91128 0.0
H3318 H 0.24216 0.58929 0.85863 0.0
H3319 H 0.22398 0.6103 0.92433 0.0
H3320 H 0.29085 0.65006 0.90002 0.0
H3321 H 0.25367 0.63715 0.90807 0.0
H3322 H 0.27133 0.57188 0.88532 0.0
H3323 H 0.30896 0.58481 0.87789 0.0
C3324 C 0.20874 0.59944 0.86307 0.0
C3325 C 0.19322 0.60883 0.87742 0.0
C3326 C 0.2299 0.59443 0.87061 0.0
C3327 C 0.23598 0.59937 0.89247 0.0
C3328 C 0.21964 0.60631 0.90744 0.0
C3329 C 0.19825 0.61083 0.89997 0.0
C3330 C 0.28709 0.63268 0.89793 0.0
C3331 C 0.30249 0.61845 0.88816 0.0
C3332 C 0.26585 0.6252 0.90267 0.0
C3333 C 0.25958 0.60356 0.89706 0.0
C3334 C 0.27581 0.58861 0.88981 0.0
C3335 C 0.29728 0.596 0.88557 0.0
H3336 H 0.41549 0.19086 0.86904 0.0
H3337 H 0.35306 0.20064 0.90178 0.0
H3338 H 0.42689 0.22827 0.87966 0.0
H3339 H 0.36367 0.23778 0.91175 0.0
H3340 H 0.37194 0.30615 0.91516 0.0
H3341 H 0.38251 0.2685 0.92569 0.0
H3342 H 0.41346 0.25991 0.8618 0.0
H3343 H 0.40368 0.29738 0.85208 0.0
C3344 C 0.40462 0.20076 0.87924 0.0
C3345 C 0.38335 0.19328 0.88438 0.0
C3346 C 0.41101 0.22218 0.88523 0.0
C3347 C 0.39598 0.23638 0.89603 0.0
C3348 C 0.37582 0.22756 0.90352 0.0
C3349 C 0.36956 0.20626 0.89763 0.0
C3350 C 0.38197 0.29643 0.90397 0.0
C3351 C 0.38683 0.30428 0.88278 0.0
C3352 C 0.3879 0.27485 0.90986 0.0
C3353 C 0.39823 0.26083 0.89435 0.0
C3354 C 0.40557 0.26999 0.87428 0.0
C3355 C 0.39981 0.2915 0.86855 0.0
H3356 H 0.79195 0.39837 0.84151 0.0
H3357 H 0.80931 0.38247 0.90878 0.0
H3358 H 0.75454 0.40724 0.85314 0.0
H3359 H 0.77149 0.39087 0.92048 0.0
H3360 H 0.70384 0.35102 0.90029 0.0
H3361 H 0.7414 0.36374 0.90679 0.0
H3362 H 0.72522 0.4267 0.87738 0.0
H3363 H 0.68725 0.41399 0.87141 0.0
C3364 C 0.78796 0.39772 0.85895 0.0
C3365 C 0.8033 0.38948 0.87422 0.0
C3366 C 0.76657 0.40295 0.86568 0.0
C3367 C 0.76005 0.39951 0.8877 0.0
C3368 C 0.77613 0.39366 0.90342 0.0
C3369 C 0.79773 0.38887 0.89673 0.0
C3370 C 0.70801 0.36799 0.89638 0.0
C3371 C 0.69288 0.38151 0.88525 0.0
C3372 C 0.7295 0.37536 0.90018 0.0
C3373 C 0.73628 0.39613 0.89232 0.0
C3374 C 0.72037 0.41062 0.88357 0.0
C3375 C 0.69867 0.40339 0.88022 0.0
H3376 H 0.62796 0.80753 0.91417 0.0
H3377 H 0.59624 0.7947 0.85173 0.0
H3378 H 0.62259 0.76885 0.92484 0.0
H3379 H 0.59034 0.75638 0.86245 0.0
H3380 H 0.65663 0.70327 0.89246 0.0
H3381 H 0.64584 0.74065 0.90254 0.0
H3382 H 0.57766 0.72482 0.88872 0.0
H3383 H 0.58852 0.68701 0.87911 0.0
C3384 C 0.61863 0.79675 0.90334 0.0
C3385 C 0.61252 0.80387 0.88215 0.0
C3386 C 0.61565 0.77464 0.90939 0.0
C3387 C 0.60626 0.7596 0.89439 0.0
C3388 C 0.59745 0.7676 0.87444 0.0
C3389 C 0.60084 0.78953 0.86824 0.0
C3390 C 0.63924 0.70751 0.89255 0.0
C3391 C 0.62343 0.69245 0.88483 0.0
C3392 C 0.633 0.72886 0.89848 0.0
C3393 C 0.6109 0.73566 0.89627 0.0
C3394 C 0.59477 0.71994 0.89061 0.0
C3395 C 0.60099 0.69835 0.88515 0.0
H3396 H 0.70646 0.65001 0.09701 0.0
H3397 H 0.68888 0.58429 0.11818 0.0
H3398 H 0.7437 0.63751 0.08864 0.0
H3399 H 0.72656 0.57173 0.11034 0.0
H3400 H 0.79333 0.59606 0.14952 0.0
H3401 H 0.75615 0.5879 0.13669 0.0
H3402 H 0.77331 0.61172 0.07165 0.0
H3403 H 0.81092 0.61935 0.08453 0.0
C3404 C 0.71036 0.63264 0.09886 0.0
C3405 C 0.69507 0.61814 0.10844 0.0
C3406 C 0.73164 0.62539 0.09393 0.0
C3407 C 0.73808 0.60368 0.0991 0.0
C3408 C 0.72197 0.58852 0.1062 0.0
C3409 C 0.70046 0.5957 0.11068 0.0
C3410 C 0.78946 0.59841 0.13219 0.0
C3411 C 0.80472 0.60853 0.11804 0.0
C3412 C 0.76822 0.59361 0.12476 0.0
C3413 C 0.76179 0.59945 0.10322 0.0
C3414 C 0.77789 0.60707 0.08832 0.0
C3415 C 0.79936 0.61142 0.09567 0.0
H3416 H 0.34948 0.79671 0.09808 0.0
H3417 H 0.41135 0.80714 0.13168 0.0
H3418 H 0.35981 0.75893 0.09006 0.0
H3419 H 0.42249 0.76918 0.12293 0.0
H3420 H 0.40039 0.70002 0.15072 0.0
H3421 H 0.40873 0.73788 0.14117 0.0
H3422 H 0.3793 0.72804 0.07675 0.0
H3423 H 0.3703 0.68988 0.08703 0.0
C3424 C 0.36581 0.79106 0.10282 0.0
C3425 C 0.37958 0.80452 0.11562 0.0
C3426 C 0.37189 0.7694 0.09808 0.0
C3427 C 0.39187 0.76072 0.10621 0.0
C3428 C 0.40678 0.77518 0.11682 0.0
C3429 C 0.40055 0.79692 0.12173 0.0
C3430 C 0.39654 0.70575 0.13419 0.0
C3431 C 0.3845 0.69235 0.11968 0.0
C3432 C 0.40146 0.72749 0.12857 0.0
C3433 C 0.39424 0.73631 0.10832 0.0
C3434 C 0.38465 0.72191 0.09268 0.0
C3435 C 0.37964 0.70004 0.09842 0.0
H3436 H 0.65173 0.20111 0.09748 0.0
H3437 H 0.58582 0.19008 0.12202 0.0
H3438 H 0.6421 0.23842 0.08724 0.0
H3439 H 0.57551 0.22776 0.11108 0.0
H3440 H 0.59278 0.29825 0.13978 0.0
H3441 H 0.58567 0.26014 0.12991 0.0
H3442 H 0.62468 0.2684 0.07056 0.0
H3443 H 0.63268 0.30652 0.08145 0.0
C3444 C 0.6348 0.20653 0.09977 0.0
C3445 C 0.61958 0.19305 0.11077 0.0
C3446 C 0.62913 0.22795 0.0937 0.0
C3447 C 0.60807 0.23644 0.0987 0.0
C3448 C 0.59202 0.22192 0.10741 0.0
C3449 C 0.59779 0.20033 0.11353 0.0
C3450 C 0.59901 0.29211 0.12415 0.0
C3451 C 0.6134 0.30501 0.11144 0.0
C3452 C 0.59485 0.27022 0.11835 0.0
C3453 C 0.60512 0.26086 0.0997 0.0
C3454 C 0.61703 0.27488 0.08537 0.0
C3455 C 0.62147 0.29675 0.09142 0.0
H3456 H 0.87263 0.80629 0.58292 0.0
H3457 H 0.90232 0.79622 0.64681 0.0
H3458 H 0.88348 0.76883 0.57202 0.0
H3459 H 0.91246 0.75898 0.63665 0.0
H3460 H 0.91408 0.69028 0.62879 0.0
H3461 H 0.92626 0.72753 0.61843 0.0
H3462 H 0.86371 0.7382 0.58542 0.0
H3463 H 0.85228 0.70123 0.5952 0.0
C3464 C 0.88229 0.79633 0.59422 0.0
C3465 C 0.88641 0.80371 0.61574 0.0
C3466 C 0.88842 0.77488 0.58811 0.0
C3467 C 0.89823 0.76055 0.60368 0.0
C3468 C 0.90496 0.76931 0.62412 0.0
C3469 C 0.89898 0.79067 0.63011 0.0
C3470 C 0.90353 0.7004 0.61846 0.0
C3471 C 0.88218 0.69335 0.61304 0.0
C3472 C 0.91038 0.72171 0.61259 0.0
C3473 C 0.89575 0.73618 0.60163 0.0
C3474 C 0.87555 0.72774 0.5938 0.0
C3475 C 0.86881 0.70656 0.5996 0.0
H3476 H 0.28916 0.8957 0.65581 0.0
H3477 H 0.30838 0.88207 0.58854 0.0
H3478 H 0.25194 0.90457 0.64347 0.0
H3479 H 0.27076 0.89041 0.57615 0.0
H3480 H 0.20219 0.85028 0.59409 0.0
H3481 H 0.24005 0.86271 0.58874 0.0
H3482 H 0.22367 0.92548 0.61838 0.0
H3483 H 0.18543 0.91313 0.62313 0.0
C3484 C 0.2856 0.8955 0.63827 0.0
C3485 C 0.30145 0.88799 0.62315 0.0
C3486 C 0.26434 0.90075 0.63114 0.0
C3487 C 0.25845 0.89802 0.60884 0.0
C3488 C 0.27494 0.8927 0.59339 0.0
C3489 C 0.29642 0.88794 0.60049 0.0
C3490 C 0.2064 0.86718 0.59823 0.0
C3491 C 0.1911 0.88073 0.60911 0.0
C3492 C 0.22806 0.87437 0.59513 0.0
C3493 C 0.23482 0.89497 0.60342 0.0
C3494 C 0.21883 0.90954 0.61185 0.0
C3495 C 0.19697 0.90251 0.61449 0.0
H3496 H 0.15634 0.20401 0.60355 0.0
H3497 H 0.08908 0.18743 0.62031 0.0
H3498 H 0.145 0.24156 0.59473 0.0
H3499 H 0.0777 0.22541 0.61203 0.0
H3500 H 0.09891 0.29413 0.64992 0.0
H3501 H 0.09245 0.25608 0.63862 0.0
H3502 H 0.12017 0.27042 0.57447 0.0
H3503 H 0.12604 0.30887 0.58575 0.0
C3504 C 0.13896 0.20822 0.60444 0.0
C3505 C 0.12361 0.19303 0.61278 0.0
C3506 C 0.1324 0.22968 0.59924 0.0
C3507 C 0.11048 0.23642 0.60286 0.0
C3508 C 0.09468 0.22057 0.60906 0.0
C3509 C 0.10118 0.19889 0.61376 0.0
C3510 C 0.10243 0.28942 0.63301 0.0
C3511 C 0.11299 0.30423 0.61869 0.0
C3512 C 0.09868 0.26766 0.62647 0.0
C3513 C 0.10603 0.26028 0.60573 0.0
C3514 C 0.11434 0.27576 0.59053 0.0
C3515 C 0.11762 0.29772 0.59694 0.0
H3516 H 0.79217 0.15544 0.6021 0.0
H3517 H 0.81214 0.08846 0.61615 0.0
H3518 H 0.75504 0.14262 0.59342 0.0
H3519 H 0.7746 0.07563 0.60816 0.0
H3520 H 0.70654 0.09546 0.64944 0.0
H3521 H 0.74431 0.0898 0.63681 0.0
H3522 H 0.72686 0.11587 0.57276 0.0
H3523 H 0.68869 0.12079 0.58529 0.0
C3524 C 0.7888 0.13786 0.60238 0.0
C3525 C 0.8048 0.12295 0.60998 0.0
C3526 C 0.76761 0.13046 0.59727 0.0
C3527 C 0.76197 0.10814 0.60028 0.0
C3528 C 0.77862 0.09288 0.60562 0.0
C3529 C 0.80004 0.10024 0.61019 0.0
C3530 C 0.71051 0.09872 0.63229 0.0
C3531 C 0.69493 0.10863 0.61834 0.0
C3532 C 0.73209 0.09542 0.62499 0.0
C3533 C 0.73848 0.10262 0.60386 0.0
C3534 C 0.72225 0.11013 0.58907 0.0
C3535 C 0.70046 0.1129 0.59623 0.0
H3536 H 0.8436 0.20434 0.396 0.0
H3537 H 0.90944 0.18714 0.37491 0.0
H3538 H 0.85553 0.24218 0.40272 0.0
H3539 H 0.92134 0.22538 0.38094 0.0
H3540 H 0.89593 0.29205 0.3414 0.0
H3541 H 0.90325 0.25447 0.35376 0.0
H3542 H 0.88258 0.27204 0.41971 0.0
H3543 H 0.87594 0.31004 0.40737 0.0
C3544 C 0.86088 0.20849 0.39383 0.0
C3545 C 0.87561 0.19304 0.38488 0.0
C3546 C 0.86778 0.2301 0.39776 0.0
C3547 C 0.88933 0.2367 0.39217 0.0
C3548 C 0.90468 0.22063 0.38545 0.0
C3549 C 0.89789 0.1988 0.38205 0.0
C3550 C 0.89408 0.28813 0.35877 0.0
C3551 C 0.88528 0.30373 0.37343 0.0
C3552 C 0.89838 0.26667 0.36591 0.0
C3553 C 0.89333 0.26036 0.38767 0.0
C3554 C 0.88669 0.27657 0.4029 0.0
C3555 C 0.88292 0.29826 0.39584 0.0
H3556 H 0.68597 0.88054 0.41026 0.0
H3557 H 0.70634 0.89882 0.34447 0.0
H3558 H 0.72322 0.8885 0.42397 0.0
H3559 H 0.74314 0.9074 0.35812 0.0
H3560 H 0.80941 0.91196 0.37866 0.0
H3561 H 0.77177 0.9254 0.38497 0.0
H3562 H 0.75312 0.86099 0.40933 0.0
H3563 H 0.79034 0.84754 0.40239 0.0
C3564 C 0.69807 0.88745 0.39901 0.0
C3565 C 0.69359 0.8888 0.3763 0.0
C3566 C 0.71932 0.89201 0.40685 0.0
C3567 C 0.73607 0.89838 0.39208 0.0
C3568 C 0.73054 0.90271 0.36994 0.0
C3569 C 0.70953 0.89764 0.36204 0.0
C3570 C 0.79751 0.90109 0.38646 0.0
C3571 C 0.80247 0.87868 0.38979 0.0
C3572 C 0.77602 0.90877 0.39006 0.0
C3573 C 0.75952 0.89417 0.39739 0.0
C3574 C 0.76551 0.87267 0.40381 0.0
C3575 C 0.78678 0.86488 0.39972 0.0
H3576 H 0.14903 0.79379 0.39875 0.0
H3577 H 0.08308 0.8093 0.37671 0.0
H3578 H 0.13742 0.75638 0.40765 0.0
H3579 H 0.07142 0.77145 0.3851 0.0
H3580 H 0.09678 0.70431 0.34766 0.0
H3581 H 0.08831 0.74172 0.35955 0.0
H3582 H 0.11238 0.72644 0.42496 0.0
H3583 H 0.12035 0.68857 0.41302 0.0
C3584 C 0.13176 0.78943 0.39686 0.0
C3585 C 0.11697 0.80418 0.38691 0.0
C3586 C 0.12503 0.76804 0.40206 0.0
C3587 C 0.10356 0.76094 0.3968 0.0
C3588 C 0.08805 0.77654 0.3893 0.0
C3589 C 0.09471 0.79816 0.38454 0.0
C3590 C 0.09915 0.70864 0.36487 0.0
C3591 C 0.10936 0.6938 0.3794 0.0
C3592 C 0.09417 0.73003 0.37177 0.0
C3593 C 0.09992 0.73705 0.39314 0.0
C3594 C 0.10779 0.7214 0.40841 0.0
C3595 C 0.11232 0.69978 0.4016 0.0
H3596 H 0.20166 0.09616 0.35021 0.0
H3597 H 0.19099 0.12616 0.41385 0.0
H3598 H 0.23879 0.08604 0.36079 0.0
H3599 H 0.22842 0.11545 0.42513 0.0
H3600 H 0.29733 0.14478 0.40274 0.0
H3601 H 0.25991 0.1344 0.41214 0.0
H3602 H 0.26938 0.07133 0.37981 0.0
H3603 H 0.307 0.08247 0.36976 0.0
C3604 C 0.20708 0.09965 0.36692 0.0
C3605 C 0.19385 0.11219 0.38113 0.0
C3606 C 0.22837 0.09367 0.37315 0.0
C3607 C 0.23692 0.10038 0.3937 0.0
C3608 C 0.2225 0.11045 0.40901 0.0
C3609 C 0.20108 0.1165 0.40267 0.0
C3610 C 0.29165 0.12833 0.3985 0.0
C3611 C 0.30466 0.11452 0.3853 0.0
C3612 C 0.27019 0.12221 0.40404 0.0
C3613 C 0.26131 0.10221 0.39621 0.0
C3614 C 0.27555 0.08709 0.38563 0.0
C3615 C 0.29709 0.09333 0.37997 0.0
H3616 H 0.61978 0.91049 0.80991 0.0
H3617 H 0.6005 0.84393 0.79334 0.0
H3618 H 0.61231 0.92211 0.77184 0.0
H3619 H 0.59239 0.85555 0.75569 0.0
H3620 H 0.58506 0.87518 0.68813 0.0
H3621 H 0.57355 0.88166 0.72641 0.0
H3622 H 0.63903 0.90538 0.74183 0.0
H3623 H 0.65058 0.89824 0.70396 0.0
C3624 C 0.61277 0.89867 0.79844 0.0
C3625 C 0.61085 0.87631 0.80432 0.0
C3626 C 0.60854 0.9053 0.77671 0.0
C3627 C 0.60189 0.88971 0.76085 0.0
C3628 C 0.59727 0.86798 0.76761 0.0
C3629 C 0.60201 0.86127 0.78911 0.0
C3630 C 0.59658 0.88284 0.69948 0.0
C3631 C 0.6187 0.88612 0.69334 0.0
C3632 C 0.59002 0.8865 0.72134 0.0
C3633 C 0.60544 0.89389 0.73705 0.0
C3634 C 0.62674 0.8999 0.73003 0.0
C3635 C 0.63341 0.89574 0.70839 0.0
H3636 H 0.0943 0.65015 0.70473 0.0
H3637 H 0.11787 0.58531 0.68699 0.0
H3638 H 0.08679 0.63736 0.74205 0.0
H3639 H 0.11088 0.57247 0.72474 0.0
H3640 H 0.14989 0.59783 0.79104 0.0
H3641 H 0.13693 0.58958 0.75394 0.0
H3642 H 0.07132 0.61109 0.77198 0.0
H3643 H 0.08435 0.61881 0.80952 0.0
C3644 C 0.09682 0.63285 0.7086 0.0
C3645 C 0.10683 0.61874 0.69324 0.0
C3646 C 0.09241 0.62544 0.72994 0.0
C3647 C 0.09854 0.60397 0.73636 0.0
C3648 C 0.10603 0.58909 0.72018 0.0
C3649 C 0.10999 0.59641 0.69862 0.0
C3650 C 0.13246 0.59967 0.78737 0.0
C3651 C 0.11814 0.60914 0.80289 0.0
C3652 C 0.12495 0.59482 0.76617 0.0
C3653 C 0.10315 0.59994 0.76002 0.0
C3654 C 0.08819 0.60699 0.77634 0.0
C3655 C 0.09563 0.61139 0.79777 0.0
H3656 H 0.40942 0.1198 0.68779 0.0
H3657 H 0.34203 0.10395 0.70478 0.0
H3658 H 0.42081 0.11204 0.72586 0.0
H3659 H 0.35343 0.09553 0.74245 0.0
H3660 H 0.37392 0.0858 0.80972 0.0
H3661 H 0.37916 0.07479 0.77114 0.0
H3662 H 0.40553 0.1394 0.75644 0.0
H3663 H 0.39964 0.15054 0.79465 0.0
C3664 C 0.39729 0.11353 0.69936 0.0
C3665 C 0.37484 0.11263 0.69356 0.0
C3666 C 0.40381 0.10912 0.7211 0.0
C3667 C 0.388 0.10327 0.73705 0.0
C3668 C 0.36602 0.09977 0.73044 0.0
C3669 C 0.35944 0.1047 0.70893 0.0
C3670 C 0.38187 0.09722 0.79845 0.0
C3671 C 0.38622 0.11906 0.80495 0.0
C3672 C 0.3848 0.09093 0.77641 0.0
C3673 C 0.39259 0.10629 0.76084 0.0
C3674 C 0.39968 0.12716 0.76812 0.0
C3675 C 0.39625 0.13359 0.78997 0.0
H3676 H 0.90216 0.35351 0.79664 0.0
H3677 H 0.86787 0.41544 0.80395 0.0
H3678 H 0.91127 0.36262 0.75885 0.0
H3679 H 0.87782 0.42542 0.766 0.0
H3680 H 0.84953 0.39982 0.69845 0.0
H3681 H 0.8595 0.41013 0.73569 0.0
H3682 H 0.92381 0.3801 0.72674 0.0
H3683 H 0.91304 0.36903 0.68926 0.0
C3684 C 0.8976 0.36966 0.79036 0.0
C3685 C 0.88412 0.38369 0.80285 0.0
C3686 C 0.90295 0.37504 0.76865 0.0
C3687 C 0.89473 0.39454 0.75902 0.0
C3688 C 0.88388 0.40998 0.77271 0.0
C3689 C 0.87833 0.40444 0.79447 0.0
C3690 C 0.86608 0.39616 0.70425 0.0
C3691 C 0.88044 0.38342 0.69137 0.0
C3692 C 0.87197 0.40226 0.72559 0.0
C3693 C 0.89236 0.39556 0.73456 0.0
C3694 C 0.90778 0.38509 0.72054 0.0
C3695 C 0.90175 0.37884 0.69909 0.0
H3696 H 0.6172 0.08662 0.18633 0.0
H3697 H 0.60096 0.15421 0.20204 0.0
H3698 H 0.60885 0.07579 0.22442 0.0
H3699 H 0.5921 0.14341 0.23973 0.0
H3700 H 0.58428 0.12551 0.30756 0.0
H3701 H 0.57232 0.11929 0.26937 0.0
H3702 H 0.63595 0.09073 0.25437 0.0
H3703 H 0.64795 0.09753 0.29214 0.0
C3704 C 0.6107 0.09891 0.1976 0.0
C3705 C 0.60996 0.12128 0.19148 0.0
C3706 C 0.60597 0.09272 0.21937 0.0
C3707 C 0.60001 0.10878 0.23504 0.0
C3708 C 0.59646 0.13063 0.228 0.0
C3709 C 0.60166 0.13687 0.20645 0.0
C3710 C 0.59522 0.11687 0.29633 0.0
C3711 C 0.61704 0.11209 0.30255 0.0
C3712 C 0.58841 0.11337 0.27452 0.0
C3713 C 0.60326 0.10469 0.25891 0.0
C3714 C 0.62406 0.09724 0.26606 0.0
C3715 C 0.63101 0.1012 0.28765 0.0
H3716 H 0.84683 0.59816 0.20661 0.0
H3717 H 0.9123 0.61806 0.18673 0.0
H3718 H 0.86038 0.59009 0.24356 0.0
H3719 H 0.92588 0.61067 0.22414 0.0
H3720 H 0.88094 0.5861 0.31005 0.0
H3721 H 0.8879 0.57283 0.27247 0.0
H3722 H 0.90963 0.63814 0.25368 0.0
H3723 H 0.902 0.65141 0.29084 0.0
C3724 C 0.86434 0.5998 0.20995 0.0
C3725 C 0.87851 0.60892 0.1941 0.0
C3726 C 0.87219 0.59503 0.23105 0.0
C3727 C 0.89415 0.59999 0.23673 0.0
C3728 C 0.90891 0.60666 0.2201 0.0
C3729 C 0.90114 0.6109 0.19876 0.0
C3730 C 0.88828 0.59726 0.29813 0.0
C3731 C 0.89068 0.6198 0.30303 0.0
C3732 C 0.89227 0.58967 0.27669 0.0
C3733 C 0.89909 0.6045 0.26018 0.0
C3734 C 0.90454 0.62628 0.2661 0.0
C3735 C 0.90005 0.63396 0.28731 0.0
H3736 H 0.40544 0.84819 0.29497 0.0
H3737 H 0.37409 0.91103 0.3065 0.0
H3738 H 0.41303 0.85855 0.25713 0.0
H3739 H 0.38227 0.92207 0.26842 0.0
H3740 H 0.34926 0.89869 0.20174 0.0
H3741 H 0.36129 0.9074 0.23884 0.0
H3742 H 0.42491 0.87778 0.22512 0.0
H3743 H 0.41221 0.86859 0.18772 0.0
C3744 C 0.40126 0.86476 0.2896 0.0
C3745 C 0.38899 0.87875 0.30334 0.0
C3746 C 0.40571 0.87083 0.26787 0.0
C3747 C 0.39772 0.89096 0.25945 0.0
C3748 C 0.38819 0.90623 0.27426 0.0
C3749 C 0.38365 0.90005 0.29609 0.0
C3750 C 0.3661 0.89482 0.20646 0.0
C3751 C 0.37977 0.88279 0.19221 0.0
C3752 C 0.37316 0.9 0.2277 0.0
C3753 C 0.39401 0.89297 0.23522 0.0
C3754 C 0.40862 0.8831 0.21997 0.0
C3755 C 0.40147 0.87791 0.19858 0.0
H3756 H 0.09808 0.34561 0.2933 0.0
H3757 H 0.11913 0.41087 0.31265 0.0
H3758 H 0.09135 0.35879 0.2559 0.0
H3759 H 0.11308 0.42401 0.27487 0.0
H3760 H 0.08857 0.38021 0.18869 0.0
H3761 H 0.07519 0.38662 0.22635 0.0
H3762 H 0.14081 0.40655 0.24601 0.0
H3763 H 0.15419 0.39944 0.20876 0.0
C3764 C 0.10021 0.36303 0.28974 0.0
C3765 C 0.10927 0.37721 0.30563 0.0
C3766 C 0.09626 0.37065 0.26838 0.0
C3767 C 0.10193 0.39238 0.26249 0.0
C3768 C 0.10853 0.40722 0.27906 0.0
C3769 C 0.11196 0.3997 0.30064 0.0
C3770 C 0.09981 0.38701 0.20085 0.0
C3771 C 0.12241 0.38916 0.19608 0.0
C3772 C 0.09216 0.39066 0.22234 0.0
C3773 C 0.10699 0.39695 0.23905 0.0
C3774 C 0.12896 0.40193 0.23341 0.0
C3775 C 0.13669 0.39775 0.21214 0.0
H3776 H 0.79384 0.64671 0.89964 0.0
H3777 H 0.80646 0.58333 0.8698 0.0
H3778 H 0.75677 0.6353 0.90908 0.0
H3779 H 0.76903 0.57127 0.87972 0.0
H3780 H 0.69997 0.5927 0.84953 0.0
H3781 H 0.73743 0.58387 0.8603 0.0
H3782 H 0.72656 0.61528 0.92357 0.0
H3783 H 0.68889 0.62474 0.91209 0.0
C3784 C 0.78884 0.6299 0.896 0.0
C3785 C 0.80262 0.61598 0.88372 0.0
C3786 C 0.76759 0.62318 0.9016 0.0
C3787 C 0.75962 0.60246 0.89474 0.0
C3788 C 0.77452 0.5875 0.88486 0.0
C3789 C 0.79594 0.59429 0.87926 0.0
C3790 C 0.70534 0.59681 0.86611 0.0
C3791 C 0.6919 0.60962 0.87991 0.0
C3792 C 0.72683 0.59161 0.87244 0.0
C3793 C 0.73531 0.5994 0.89262 0.0
C3794 C 0.72068 0.6095 0.90769 0.0
C3795 C 0.6991 0.61481 0.90125 0.0
H3796 H 0.79436 0.34299 0.09935 0.0
H3797 H 0.8056 0.40936 0.12251 0.0
H3798 H 0.75708 0.3525 0.08894 0.0
H3799 H 0.76788 0.41952 0.11147 0.0
H3800 H 0.6969 0.40283 0.13977 0.0
H3801 H 0.73518 0.4097 0.13027 0.0
H3802 H 0.72753 0.36993 0.07137 0.0
H3803 H 0.68927 0.36216 0.0819 0.0
C3804 C 0.78897 0.35996 0.10134 0.0
C3805 C 0.80253 0.37539 0.11198 0.0
C3806 C 0.76758 0.36557 0.09516 0.0
C3807 C 0.75916 0.38676 0.09967 0.0
C3808 C 0.77369 0.40293 0.10813 0.0
C3809 C 0.79529 0.39724 0.11433 0.0
C3810 C 0.70322 0.39639 0.1243 0.0
C3811 C 0.69044 0.38186 0.11162 0.0
C3812 C 0.7252 0.4004 0.11871 0.0
C3813 C 0.73475 0.38985 0.10033 0.0
C3814 C 0.72088 0.3778 0.08599 0.0
C3815 C 0.69893 0.37349 0.09183 0.0
H3816 H 0.58513 0.68448 0.12003 0.0
H3817 H 0.64927 0.70321 0.09533 0.0
H3818 H 0.57164 0.72205 0.11342 0.0
H3819 H 0.63578 0.74036 0.08812 0.0
H3820 H 0.61605 0.80765 0.0868 0.0
H3821 H 0.60825 0.77019 0.07355 0.0
H3822 H 0.58987 0.75089 0.13974 0.0
H3823 H 0.59828 0.78789 0.15291 0.0
C3824 C 0.59591 0.69627 0.11196 0.0
C3825 C 0.61827 0.69126 0.10843 0.0
C3826 C 0.5882 0.71773 0.10819 0.0
C3827 C 0.60274 0.73414 0.10052 0.0
C3828 C 0.62415 0.72805 0.09391 0.0
C3829 C 0.63196 0.70682 0.09815 0.0
C3830 C 0.60932 0.79562 0.09822 0.0
C3831 C 0.60802 0.80035 0.12088 0.0
C3832 C 0.60484 0.77425 0.09064 0.0
C3833 C 0.59862 0.75765 0.10564 0.0
C3834 C 0.59443 0.76337 0.12775 0.0
C3835 C 0.59941 0.7845 0.13537 0.0
H3836 H 0.2035 0.59557 0.14902 0.0
H3837 H 0.18918 0.62279 0.08477 0.0
H3838 H 0.24155 0.58886 0.13785 0.0
H3839 H 0.22763 0.61668 0.07365 0.0
H3840 H 0.31022 0.58519 0.11994 0.0
H3841 H 0.27228 0.57398 0.11131 0.0
H3842 H 0.25647 0.64141 0.09418 0.0
H3843 H 0.294 0.65259 0.10336 0.0
C3844 C 0.20829 0.59905 0.13212 0.0
C3845 C 0.19362 0.60972 0.11775 0.0
C3846 C 0.23005 0.59516 0.12566 0.0
C3847 C 0.23757 0.60247 0.10494 0.0
C3848 C 0.2222 0.61086 0.08968 0.0
C3849 C 0.20023 0.61429 0.09601 0.0
C3850 C 0.29886 0.59736 0.11335 0.0
C3851 C 0.30479 0.61978 0.11253 0.0
C3852 C 0.2772 0.59095 0.10844 0.0
C3853 C 0.26145 0.60684 0.1022 0.0
C3854 C 0.26829 0.62875 0.09873 0.0
C3855 C 0.28972 0.63522 0.10412 0.0
H3856 H 0.40257 0.20502 0.14952 0.0
H3857 H 0.37871 0.18516 0.08539 0.0
H3858 H 0.40897 0.24221 0.13571 0.0
H3859 H 0.38443 0.22276 0.07164 0.0
H3860 H 0.34278 0.28746 0.09907 0.0
H3861 H 0.35689 0.25078 0.09064 0.0
H3862 H 0.4229 0.27221 0.10719 0.0
H3863 H 0.40875 0.30933 0.11493 0.0
C3864 C 0.39979 0.2084 0.13215 0.0
C3865 C 0.38993 0.1925 0.11855 0.0
C3866 C 0.40357 0.22965 0.12416 0.0
C3867 C 0.39688 0.23538 0.10268 0.0
C3868 C 0.38972 0.21868 0.08824 0.0
C3869 C 0.38646 0.19722 0.09612 0.0
C3870 C 0.36045 0.2846 0.09979 0.0
C3871 C 0.37467 0.30096 0.10788 0.0
C3872 C 0.3686 0.26368 0.09479 0.0
C3873 C 0.39098 0.25867 0.09845 0.0
C3874 C 0.40561 0.27574 0.10416 0.0
C3875 C 0.39751 0.29691 0.10862 0.0
H3876 H 0.20449 0.39806 0.84952 0.0
H3877 H 0.18863 0.37232 0.91402 0.0
H3878 H 0.24229 0.40493 0.86142 0.0
H3879 H 0.22686 0.37856 0.92587 0.0
H3880 H 0.29393 0.34212 0.89808 0.0
H3881 H 0.25628 0.35343 0.90653 0.0
H3882 H 0.27229 0.42055 0.88843 0.0
H3883 H 0.31034 0.40922 0.88054 0.0
C3884 C 0.20889 0.39492 0.86659 0.0
C3885 C 0.19386 0.38464 0.88087 0.0
C3886 C 0.23051 0.39891 0.87347 0.0
C3887 C 0.23753 0.39208 0.89452 0.0
C3888 C 0.2218 0.38402 0.9096 0.0
C3889 C 0.19997 0.38051 0.90284 0.0
C3890 C 0.28968 0.35947 0.897 0.0
C3891 C 0.30484 0.37477 0.88849 0.0
C3892 C 0.26816 0.36602 0.90196 0.0
C3893 C 0.26135 0.38785 0.89794 0.0
C3894 C 0.27718 0.40365 0.89171 0.0
C3895 C 0.29892 0.39717 0.88723 0.0
H3896 H 0.6229 0.18832 0.91418 0.0
H3897 H 0.59422 0.20465 0.85106 0.0
H3898 H 0.61662 0.22624 0.9268 0.0
H3899 H 0.58743 0.24217 0.86368 0.0
H3900 H 0.5868 0.31016 0.88092 0.0
H3901 H 0.57428 0.27282 0.89033 0.0
H3902 H 0.64131 0.25485 0.907 0.0
H3903 H 0.65372 0.29173 0.89709 0.0
C3904 C 0.61405 0.19966 0.90352 0.0
C3905 C 0.60925 0.19385 0.88161 0.0
C3906 C 0.6105 0.22133 0.91072 0.0
C3907 C 0.60182 0.23719 0.89612 0.0
C3908 C 0.59402 0.23032 0.87536 0.0
C3909 C 0.598 0.20886 0.86804 0.0
C3910 C 0.59859 0.29848 0.88762 0.0
C3911 C 0.62123 0.30353 0.88802 0.0
C3912 C 0.59144 0.27716 0.893 0.0
C3913 C 0.60684 0.26091 0.89921 0.0
C3914 C 0.62901 0.26703 0.90246 0.0
C3915 C 0.63619 0.2881 0.89662 0.0
H3916 H 0.34643 0.70544 0.8993 0.0
H3917 H 0.41063 0.68775 0.87397 0.0
H3918 H 0.35907 0.74314 0.90529 0.0
H3919 H 0.4232 0.72586 0.87928 0.0
H3920 H 0.37946 0.81087 0.90741 0.0
H3921 H 0.38717 0.77316 0.91989 0.0
H3922 H 0.40343 0.75455 0.853 0.0
H3923 H 0.39511 0.79187 0.84051 0.0
C3924 C 0.36359 0.70943 0.89607 0.0
C3925 C 0.37755 0.69392 0.88607 0.0
C3926 C 0.3709 0.73097 0.89958 0.0
C3927 C 0.39206 0.73741 0.89253 0.0
C3928 C 0.40685 0.72123 0.88489 0.0
C3929 C 0.39967 0.69948 0.8819 0.0
C3930 C 0.38568 0.79894 0.8956 0.0
C3931 C 0.38642 0.80403 0.87297 0.0
C3932 C 0.39009 0.77742 0.90276 0.0
C3933 C 0.39576 0.76098 0.8874 0.0
C3934 C 0.3993 0.76694 0.86524 0.0
C3935 C 0.39438 0.78824 0.85803 0.0
loop_
_geom_bond_atom_site_label_1
_geom_bond_atom_site_label_2
_geom_bond_distance
_geom_bond_site_symmetry_2
_ccdc_geom_bond_type
Sc0 O3 2.025 . S
Sc0 O10 2.105 . S
Sc0 O13 2.105 . S
Sc0 O16 2.105 . S
Sc0 O19 2.105 . S
Sc1 O3 2.025 . S
Sc1 O11 2.105 . S
Sc1 O15 2.105 . S
Sc1 O17 2.105 . S
Sc1 O21 2.105 . S
Sc2 O3 2.025 . S
Sc2 O12 2.105 . S
Sc2 O14 2.105 . S
Sc2 O18 2.105 . S
Sc2 O20 2.105 . S
O3 Sc0 2.025 . S
O3 Sc1 2.025 . S
O3 Sc2 2.025 . S
C4 O10 1.268 . S
C4 O20 1.268 . S
C5 O11 1.268 . S
C5 O19 1.268 . S
C6 O12 1.268 . S
C6 O21 1.268 . S
C7 O13 1.268 . S
C7 O17 1.268 . S
C8 O14 1.268 . S
C8 O16 1.268 . S
C9 O15 1.268 . S
C9 O18 1.268 . S
O10 Sc0 2.105 . S
O10 C4 1.268 . S
O11 Sc1 2.105 . S
O11 C5 1.268 . S
O12 Sc2 2.105 . S
O12 C6 1.268 . S
O13 Sc0 2.105 . S
O13 C7 1.268 . S
O14 Sc2 2.105 . S
O14 C8 1.268 . S
O15 Sc1 2.105 . S
O15 C9 1.268 . S
O16 Sc0 2.105 . S
O16 C8 1.268 . S
O17 Sc1 2.105 . S
O17 C7 1.268 . S
O18 Sc2 2.105 . S
O18 C9 1.268 . S
O19 Sc0 2.105 . S
O19 C5 1.268 . S
O20 Sc2 2.105 . S
O20 C4 1.268 . S
O21 Sc1 2.105 . S
O21 C6 1.268 . S
Sc22 O25 2.025 . S
Sc22 O32 2.105 . S
Sc22 O35 2.105 . S
Sc22 O38 2.105 . S
Sc22 O41 2.105 . S
Sc23 O25 2.025 . S
Sc23 O33 2.105 . S
Sc23 O37 2.105 . S
Sc23 O39 2.105 . S
Sc23 O43 2.105 . S
Sc24 O25 2.025 . S
Sc24 O34 2.105 . S
Sc24 O36 2.105 . S
Sc24 O40 2.105 . S
Sc24 O42 2.105 . S
O25 Sc22 2.025 . S
O25 Sc23 2.025 . S
O25 Sc24 2.025 . S
C26 O32 1.268 . S
C26 O42 1.268 . S
C27 O33 1.268 . S
C27 O41 1.268 . S
C28 O34 1.268 . S
C28 O43 1.268 . S
C29 O35 1.268 . S
C29 O39 1.268 . S
C30 O36 1.268 . S
C30 O38 1.268 . S
C31 O37 1.268 . S
C31 O40 1.268 . S
O32 Sc22 2.105 . S
O32 C26 1.268 . S
O33 Sc23 2.105 . S
O33 C27 1.268 . S
O34 Sc24 2.105 . S
O34 C28 1.268 . S
O35 Sc22 2.105 . S
O35 C29 1.268 . S
O36 Sc24 2.105 . S
O36 C30 1.268 . S
O37 Sc23 2.105 . S
O37 C31 1.268 . S
O38 Sc22 2.105 . S
O38 C30 1.268 . S
O39 Sc23 2.105 . S
O39 C29 1.268 . S
O40 Sc24 2.105 . S
O40 C31 1.268 . S
O41 Sc22 2.105 . S
O41 C27 1.268 . S
O42 Sc24 2.105 . S
O42 C26 1.268 . S
O43 Sc23 2.105 . S
O43 C28 1.268 . S
Sc44 O47 2.025 . S
Sc44 O54 2.105 . S
Sc44 O57 2.105 . S
Sc44 O60 2.105 . S
Sc44 O63 2.105 . S
Sc45 O47 2.025 . S
Sc45 O55 2.105 . S
Sc45 O59 2.105 . S
Sc45 O61 2.105 . S
Sc45 O65 2.105 . S
Sc46 O47 2.025 . S
Sc46 O56 2.105 . S
Sc46 O58 2.105 . S
Sc46 O62 2.105 . S
Sc46 O64 2.105 . S
O47 Sc44 2.025 . S
O47 Sc45 2.025 . S
O47 Sc46 2.025 . S
C48 O54 1.268 . S
C48 O64 1.268 . S
C49 O55 1.268 . S
C49 O63 1.268 . S
C50 O56 1.268 . S
C50 O65 1.268 . S
C51 O57 1.268 . S
C51 O61 1.268 . S
C52 O58 1.268 . S
C52 O60 1.268 . S
C53 O59 1.268 . S
C53 O62 1.268 . S
O54 Sc44 2.105 . S
O54 C48 1.268 . S
O55 Sc45 2.105 . S
O55 C49 1.268 . S
O56 Sc46 2.105 . S
O56 C50 1.268 . S
O57 Sc44 2.105 . S
O57 C51 1.268 . S
O58 Sc46 2.105 . S
O58 C52 1.268 . S
O59 Sc45 2.105 . S
O59 C53 1.268 . S
O60 Sc44 2.105 . S
O60 C52 1.268 . S
O61 Sc45 2.105 . S
O61 C51 1.268 . S
O62 Sc46 2.105 . S
O62 C53 1.268 . S
O63 Sc44 2.105 . S
O63 C49 1.268 . S
O64 Sc46 2.105 . S
O64 C48 1.268 . S
O65 Sc45 2.105 . S
O65 C50 1.268 . S
Sc66 O69 2.025 . S
Sc66 O76 2.105 . S
Sc66 O79 2.105 . S
Sc66 O82 2.105 . S
Sc66 O85 2.105 . S
Sc67 O69 2.025 . S
Sc67 O77 2.105 . S
Sc67 O81 2.105 . S
Sc67 O83 2.105 . S
Sc67 O87 2.105 . S
Sc68 O69 2.025 . S
Sc68 O78 2.105 . S
Sc68 O80 2.105 . S
Sc68 O84 2.105 . S
Sc68 O86 2.105 . S
O69 Sc66 2.025 . S
O69 Sc67 2.025 . S
O69 Sc68 2.025 . S
C70 O76 1.268 . S
C70 O86 1.268 . S
C71 O77 1.268 . S
C71 O85 1.268 . S
C72 O78 1.268 . S
C72 O87 1.268 . S
C73 O79 1.268 . S
C73 O83 1.268 . S
C74 O80 1.268 . S
C74 O82 1.268 . S
C75 O81 1.268 . S
C75 O84 1.268 . S
O76 Sc66 2.105 . S
O76 C70 1.268 . S
O77 Sc67 2.105 . S
O77 C71 1.268 . S
O78 Sc68 2.105 . S
O78 C72 1.268 . S
O79 Sc66 2.105 . S
O79 C73 1.268 . S
O80 Sc68 2.105 . S
O80 C74 1.268 . S
O81 Sc67 2.105 . S
O81 C75 1.268 . S
O82 Sc66 2.105 . S
O82 C74 1.268 . S
O83 Sc67 2.105 . S
O83 C73 1.268 . S
O84 Sc68 2.105 . S
O84 C75 1.268 . S
O85 Sc66 2.105 . S
O85 C71 1.268 . S
O86 Sc68 2.105 . S
O86 C70 1.268 . S
O87 Sc67 2.105 . S
O87 C72 1.268 . S
Sc88 O91 2.025 . S
Sc88 O98 2.105 . S
Sc88 O101 2.105 . S
Sc88 O104 2.105 . S
Sc88 O107 2.105 . S
Sc89 O91 2.025 . S
Sc89 O99 2.105 . S
Sc89 O103 2.105 . S
Sc89 O105 2.105 . S
Sc89 O109 2.105 . S
Sc90 O91 2.025 . S
Sc90 O100 2.105 . S
Sc90 O102 2.105 . S
Sc90 O106 2.105 . S
Sc90 O108 2.105 . S
O91 Sc88 2.025 . S
O91 Sc89 2.025 . S
O91 Sc90 2.025 . S
C92 O98 1.268 . S
C92 O108 1.268 . S
C93 O99 1.268 . S
C93 O107 1.268 . S
C94 O100 1.268 . S
C94 O109 1.268 . S
C95 O101 1.268 . S
C95 O105 1.268 . S
C96 O102 1.268 . S
C96 O104 1.268 . S
C97 O103 1.268 . S
C97 O106 1.268 . S
O98 Sc88 2.105 . S
O98 C92 1.268 . S
O99 Sc89 2.105 . S
O99 C93 1.268 . S
O100 Sc90 2.105 . S
O100 C94 1.268 . S
O101 Sc88 2.105 . S
O101 C95 1.268 . S
O102 Sc90 2.105 . S
O102 C96 1.268 . S
O103 Sc89 2.105 . S
O103 C97 1.268 . S
O104 Sc88 2.105 . S
O104 C96 1.268 . S
O105 Sc89 2.105 . S
O105 C95 1.268 . S
O106 Sc90 2.105 . S
O106 C97 1.268 . S
O107 Sc88 2.105 . S
O107 C93 1.268 . S
O108 Sc90 2.105 . S
O108 C92 1.268 . S
O109 Sc89 2.105 . S
O109 C94 1.268 . S
Sc110 O113 2.025 . S
Sc110 O120 2.105 . S
Sc110 O123 2.105 . S
Sc110 O126 2.105 . S
Sc110 O129 2.105 . S
Sc111 O113 2.025 . S
Sc111 O121 2.105 . S
Sc111 O125 2.105 . S
Sc111 O127 2.105 . S
Sc111 O131 2.105 . S
Sc112 O113 2.025 . S
Sc112 O122 2.105 . S
Sc112 O124 2.105 . S
Sc112 O128 2.105 . S
Sc112 O130 2.105 . S
O113 Sc110 2.025 . S
O113 Sc111 2.025 . S
O113 Sc112 2.025 . S
C114 O120 1.268 . S
C114 O130 1.268 . S
C115 O121 1.268 . S
C115 O129 1.268 . S
C116 O122 1.268 . S
C116 O131 1.268 . S
C117 O123 1.268 . S
C117 O127 1.268 . S
C118 O124 1.268 . S
C118 O126 1.268 . S
C119 O125 1.268 . S
C119 O128 1.268 . S
O120 Sc110 2.105 . S
O120 C114 1.268 . S
O121 Sc111 2.105 . S
O121 C115 1.268 . S
O122 Sc112 2.105 . S
O122 C116 1.268 . S
O123 Sc110 2.105 . S
O123 C117 1.268 . S
O124 Sc112 2.105 . S
O124 C118 1.268 . S
O125 Sc111 2.105 . S
O125 C119 1.268 . S
O126 Sc110 2.105 . S
O126 C118 1.268 . S
O127 Sc111 2.105 . S
O127 C117 1.268 . S
O128 Sc112 2.105 . S
O128 C119 1.268 . S
O129 Sc110 2.105 . S
O129 C115 1.268 . S
O130 Sc112 2.105 . S
O130 C114 1.268 . S
O131 Sc111 2.105 . S
O131 C116 1.268 . S
Sc132 O135 2.025 . S
Sc132 O142 2.105 . S
Sc132 O145 2.105 . S
Sc132 O148 2.105 . S
Sc132 O151 2.105 . S
Sc133 O135 2.025 . S
Sc133 O143 2.105 . S
Sc133 O147 2.105 . S
Sc133 O149 2.105 . S
Sc133 O153 2.105 . S
Sc134 O135 2.025 . S
Sc134 O144 2.105 . S
Sc134 O146 2.105 . S
Sc134 O150 2.105 . S
Sc134 O152 2.105 . S
O135 Sc132 2.025 . S
O135 Sc133 2.025 . S
O135 Sc134 2.025 . S
C136 O142 1.268 . S
C136 O152 1.268 . S
C137 O143 1.268 . S
C137 O151 1.268 . S
C138 O144 1.268 . S
C138 O153 1.268 . S
C139 O145 1.268 . S
C139 O149 1.268 . S
C140 O146 1.268 . S
C140 O148 1.268 . S
C141 O147 1.268 . S
C141 O150 1.268 . S
O142 Sc132 2.105 . S
O142 C136 1.268 . S
O143 Sc133 2.105 . S
O143 C137 1.268 . S
O144 Sc134 2.105 . S
O144 C138 1.268 . S
O145 Sc132 2.105 . S
O145 C139 1.268 . S
O146 Sc134 2.105 . S
O146 C140 1.268 . S
O147 Sc133 2.105 . S
O147 C141 1.268 . S
O148 Sc132 2.105 . S
O148 C140 1.268 . S
O149 Sc133 2.105 . S
O149 C139 1.268 . S
O150 Sc134 2.105 . S
O150 C141 1.268 . S
O151 Sc132 2.105 . S
O151 C137 1.268 . S
O152 Sc134 2.105 . S
O152 C136 1.268 . S
O153 Sc133 2.105 . S
O153 C138 1.268 . S
Sc154 O157 2.025 . S
Sc154 O164 2.105 . S
Sc154 O167 2.105 . S
Sc154 O170 2.105 . S
Sc154 O173 2.105 . S
Sc155 O157 2.025 . S
Sc155 O165 2.105 . S
Sc155 O169 2.105 . S
Sc155 O171 2.105 . S
Sc155 O175 2.105 . S
Sc156 O157 2.025 . S
Sc156 O166 2.105 . S
Sc156 O168 2.105 . S
Sc156 O172 2.105 . S
Sc156 O174 2.105 . S
O157 Sc154 2.025 . S
O157 Sc155 2.025 . S
O157 Sc156 2.025 . S
C158 O164 1.268 . S
C158 O174 1.268 . S
C159 O165 1.268 . S
C159 O173 1.268 . S
C160 O166 1.268 . S
C160 O175 1.268 . S
C161 O167 1.268 . S
C161 O171 1.268 . S
C162 O168 1.268 . S
C162 O170 1.268 . S
C163 O169 1.268 . S
C163 O172 1.268 . S
O164 Sc154 2.105 . S
O164 C158 1.268 . S
O165 Sc155 2.105 . S
O165 C159 1.268 . S
O166 Sc156 2.105 . S
O166 C160 1.268 . S
O167 Sc154 2.105 . S
O167 C161 1.268 . S
O168 Sc156 2.105 . S
O168 C162 1.268 . S
O169 Sc155 2.105 . S
O169 C163 1.268 . S
O170 Sc154 2.105 . S
O170 C162 1.268 . S
O171 Sc155 2.105 . S
O171 C161 1.268 . S
O172 Sc156 2.105 . S
O172 C163 1.268 . S
O173 Sc154 2.105 . S
O173 C159 1.268 . S
O174 Sc156 2.105 . S
O174 C158 1.268 . S
O175 Sc155 2.105 . S
O175 C160 1.268 . S
Sc176 O179 2.025 . S
Sc176 O186 2.105 . S
Sc176 O189 2.105 . S
Sc176 O192 2.105 . S
Sc176 O195 2.105 . S
Sc177 O179 2.025 . S
Sc177 O187 2.105 . S
Sc177 O191 2.105 . S
Sc177 O193 2.105 . S
Sc177 O197 2.105 . S
Sc178 O179 2.025 . S
Sc178 O188 2.105 . S
Sc178 O190 2.105 . S
Sc178 O194 2.105 . S
Sc178 O196 2.105 . S
O179 Sc176 2.025 . S
O179 Sc177 2.025 . S
O179 Sc178 2.025 . S
C180 O186 1.268 . S
C180 O196 1.268 . S
C181 O187 1.268 . S
C181 O195 1.268 . S
C182 O188 1.268 . S
C182 O197 1.268 . S
C183 O189 1.268 . S
C183 O193 1.268 . S
C184 O190 1.268 . S
C184 O192 1.268 . S
C185 O191 1.268 . S
C185 O194 1.268 . S
O186 Sc176 2.105 . S
O186 C180 1.268 . S
O187 Sc177 2.105 . S
O187 C181 1.268 . S
O188 Sc178 2.105 . S
O188 C182 1.268 . S
O189 Sc176 2.105 . S
O189 C183 1.268 . S
O190 Sc178 2.105 . S
O190 C184 1.268 . S
O191 Sc177 2.105 . S
O191 C185 1.268 . S
O192 Sc176 2.105 . S
O192 C184 1.268 . S
O193 Sc177 2.105 . S
O193 C183 1.268 . S
O194 Sc178 2.105 . S
O194 C185 1.268 . S
O195 Sc176 2.105 . S
O195 C181 1.268 . S
O196 Sc178 2.105 . S
O196 C180 1.268 . S
O197 Sc177 2.105 . S
O197 C182 1.268 . S
Sc198 O201 2.025 . S
Sc198 O208 2.105 . S
Sc198 O211 2.105 . S
Sc198 O214 2.105 . S
Sc198 O217 2.105 . S
Sc199 O201 2.025 . S
Sc199 O209 2.105 . S
Sc199 O213 2.105 . S
Sc199 O215 2.105 . S
Sc199 O219 2.105 . S
Sc200 O201 2.025 . S
Sc200 O210 2.105 . S
Sc200 O212 2.105 . S
Sc200 O216 2.105 . S
Sc200 O218 2.105 . S
O201 Sc198 2.025 . S
O201 Sc199 2.025 . S
O201 Sc200 2.025 . S
C202 O208 1.268 . S
C202 O218 1.268 . S
C203 O209 1.268 . S
C203 O217 1.268 . S
C204 O210 1.268 . S
C204 O219 1.268 . S
C205 O211 1.268 . S
C205 O215 1.268 . S
C206 O212 1.268 . S
C206 O214 1.268 . S
C207 O213 1.268 . S
C207 O216 1.268 . S
O208 Sc198 2.105 . S
O208 C202 1.268 . S
O209 Sc199 2.105 . S
O209 C203 1.268 . S
O210 Sc200 2.105 . S
O210 C204 1.268 . S
O211 Sc198 2.105 . S
O211 C205 1.268 . S
O212 Sc200 2.105 . S
O212 C206 1.268 . S
O213 Sc199 2.105 . S
O213 C207 1.268 . S
O214 Sc198 2.105 . S
O214 C206 1.268 . S
O215 Sc199 2.105 . S
O215 C205 1.268 . S
O216 Sc200 2.105 . S
O216 C207 1.268 . S
O217 Sc198 2.105 . S
O217 C203 1.268 . S
O218 Sc200 2.105 . S
O218 C202 1.268 . S
O219 Sc199 2.105 . S
O219 C204 1.268 . S
Sc220 O223 2.025 . S
Sc220 O230 2.105 . S
Sc220 O233 2.105 . S
Sc220 O236 2.105 . S
Sc220 O239 2.105 . S
Sc221 O223 2.025 . S
Sc221 O231 2.105 . S
Sc221 O235 2.105 . S
Sc221 O237 2.105 . S
Sc221 O241 2.105 . S
Sc222 O223 2.025 . S
Sc222 O232 2.105 . S
Sc222 O234 2.105 . S
Sc222 O238 2.105 . S
Sc222 O240 2.105 . S
O223 Sc220 2.025 . S
O223 Sc221 2.025 . S
O223 Sc222 2.025 . S
C224 O230 1.268 . S
C224 O240 1.268 . S
C225 O231 1.268 . S
C225 O239 1.268 . S
C226 O232 1.268 . S
C226 O241 1.268 . S
C227 O233 1.268 . S
C227 O237 1.268 . S
C228 O234 1.268 . S
C228 O236 1.268 . S
C229 O235 1.268 . S
C229 O238 1.268 . S
O230 Sc220 2.105 . S
O230 C224 1.268 . S
O231 Sc221 2.105 . S
O231 C225 1.268 . S
O232 Sc222 2.105 . S
O232 C226 1.268 . S
O233 Sc220 2.105 . S
O233 C227 1.268 . S
O234 Sc222 2.105 . S
O234 C228 1.268 . S
O235 Sc221 2.105 . S
O235 C229 1.268 . S
O236 Sc220 2.105 . S
O236 C228 1.268 . S
O237 Sc221 2.105 . S
O237 C227 1.268 . S
O238 Sc222 2.105 . S
O238 C229 1.268 . S
O239 Sc220 2.105 . S
O239 C225 1.268 . S
O240 Sc222 2.105 . S
O240 C224 1.268 . S
O241 Sc221 2.105 . S
O241 C226 1.268 . S
Sc242 O245 2.025 . S
Sc242 O252 2.105 . S
Sc242 O255 2.105 . S
Sc242 O258 2.105 . S
Sc242 O261 2.105 . S
Sc243 O245 2.025 . S
Sc243 O253 2.105 . S
Sc243 O257 2.105 . S
Sc243 O259 2.105 . S
Sc243 O263 2.105 . S
Sc244 O245 2.025 . S
Sc244 O254 2.105 . S
Sc244 O256 2.105 . S
Sc244 O260 2.105 . S
Sc244 O262 2.105 . S
O245 Sc242 2.025 . S
O245 Sc243 2.025 . S
O245 Sc244 2.025 . S
C246 O252 1.268 . S
C246 O262 1.268 . S
C247 O253 1.268 . S
C247 O261 1.268 . S
C248 O254 1.268 . S
C248 O263 1.268 . S
C249 O255 1.268 . S
C249 O259 1.268 . S
C250 O256 1.268 . S
C250 O258 1.268 . S
C251 O257 1.268 . S
C251 O260 1.268 . S
O252 Sc242 2.105 . S
O252 C246 1.268 . S
O253 Sc243 2.105 . S
O253 C247 1.268 . S
O254 Sc244 2.105 . S
O254 C248 1.268 . S
O255 Sc242 2.105 . S
O255 C249 1.268 . S
O256 Sc244 2.105 . S
O256 C250 1.268 . S
O257 Sc243 2.105 . S
O257 C251 1.268 . S
O258 Sc242 2.105 . S
O258 C250 1.268 . S
O259 Sc243 2.105 . S
O259 C249 1.268 . S
O260 Sc244 2.105 . S
O260 C251 1.268 . S
O261 Sc242 2.105 . S
O261 C247 1.268 . S
O262 Sc244 2.105 . S
O262 C246 1.268 . S
O263 Sc243 2.105 . S
O263 C248 1.268 . S
Sc264 O267 2.025 . S
Sc264 O274 2.105 . S
Sc264 O277 2.105 . S
Sc264 O280 2.105 . S
Sc264 O283 2.105 . S
Sc265 O267 2.025 . S
Sc265 O275 2.105 . S
Sc265 O279 2.105 . S
Sc265 O281 2.105 . S
Sc265 O285 2.105 . S
Sc266 O267 2.025 . S
Sc266 O276 2.105 . S
Sc266 O278 2.105 . S
Sc266 O282 2.105 . S
Sc266 O284 2.105 . S
O267 Sc264 2.025 . S
O267 Sc265 2.025 . S
O267 Sc266 2.025 . S
C268 O274 1.268 . S
C268 O284 1.268 . S
C269 O275 1.268 . S
C269 O283 1.268 . S
C270 O276 1.268 . S
C270 O285 1.268 . S
C271 O277 1.268 . S
C271 O281 1.268 . S
C272 O278 1.268 . S
C272 O280 1.268 . S
C273 O279 1.268 . S
C273 O282 1.268 . S
O274 Sc264 2.105 . S
O274 C268 1.268 . S
O275 Sc265 2.105 . S
O275 C269 1.268 . S
O276 Sc266 2.105 . S
O276 C270 1.268 . S
O277 Sc264 2.105 . S
O277 C271 1.268 . S
O278 Sc266 2.105 . S
O278 C272 1.268 . S
O279 Sc265 2.105 . S
O279 C273 1.268 . S
O280 Sc264 2.105 . S
O280 C272 1.268 . S
O281 Sc265 2.105 . S
O281 C271 1.268 . S
O282 Sc266 2.105 . S
O282 C273 1.268 . S
O283 Sc264 2.105 . S
O283 C269 1.268 . S
O284 Sc266 2.105 . S
O284 C268 1.268 . S
O285 Sc265 2.105 . S
O285 C270 1.268 . S
Sc286 O289 2.025 . S
Sc286 O296 2.105 . S
Sc286 O299 2.105 . S
Sc286 O302 2.105 . S
Sc286 O305 2.105 . S
Sc287 O289 2.025 . S
Sc287 O297 2.105 . S
Sc287 O301 2.105 . S
Sc287 O303 2.105 . S
Sc287 O307 2.105 . S
Sc288 O289 2.025 . S
Sc288 O298 2.105 . S
Sc288 O300 2.105 . S
Sc288 O304 2.105 . S
Sc288 O306 2.105 . S
O289 Sc286 2.025 . S
O289 Sc287 2.025 . S
O289 Sc288 2.025 . S
C290 O296 1.268 . S
C290 O306 1.268 . S
C291 O297 1.268 . S
C291 O305 1.268 . S
C292 O298 1.268 . S
C292 O307 1.268 . S
C293 O299 1.268 . S
C293 O303 1.268 . S
C294 O300 1.268 . S
C294 O302 1.268 . S
C295 O301 1.268 . S
C295 O304 1.268 . S
O296 Sc286 2.105 . S
O296 C290 1.268 . S
O297 Sc287 2.105 . S
O297 C291 1.268 . S
O298 Sc288 2.105 . S
O298 C292 1.268 . S
O299 Sc286 2.105 . S
O299 C293 1.268 . S
O300 Sc288 2.105 . S
O300 C294 1.268 . S
O301 Sc287 2.105 . S
O301 C295 1.268 . S
O302 Sc286 2.105 . S
O302 C294 1.268 . S
O303 Sc287 2.105 . S
O303 C293 1.268 . S
O304 Sc288 2.105 . S
O304 C295 1.268 . S
O305 Sc286 2.105 . S
O305 C291 1.268 . S
O306 Sc288 2.105 . S
O306 C290 1.268 . S
O307 Sc287 2.105 . S
O307 C292 1.268 . S
Sc308 O311 2.025 . S
Sc308 O318 2.105 . S
Sc308 O321 2.105 . S
Sc308 O324 2.105 . S
Sc308 O327 2.105 . S
Sc309 O311 2.025 . S
Sc309 O319 2.105 . S
Sc309 O323 2.105 . S
Sc309 O325 2.105 . S
Sc309 O329 2.105 . S
Sc310 O311 2.025 . S
Sc310 O320 2.105 . S
Sc310 O322 2.105 . S
Sc310 O326 2.105 . S
Sc310 O328 2.105 . S
O311 Sc308 2.025 . S
O311 Sc309 2.025 . S
O311 Sc310 2.025 . S
C312 O318 1.268 . S
C312 O328 1.268 . S
C313 O319 1.268 . S
C313 O327 1.268 . S
C314 O320 1.268 . S
C314 O329 1.268 . S
C315 O321 1.268 . S
C315 O325 1.268 . S
C316 O322 1.268 . S
C316 O324 1.268 . S
C317 O323 1.268 . S
C317 O326 1.268 . S
O318 Sc308 2.105 . S
O318 C312 1.268 . S
O319 Sc309 2.105 . S
O319 C313 1.268 . S
O320 Sc310 2.105 . S
O320 C314 1.268 . S
O321 Sc308 2.105 . S
O321 C315 1.268 . S
O322 Sc310 2.105 . S
O322 C316 1.268 . S
O323 Sc309 2.105 . S
O323 C317 1.268 . S
O324 Sc308 2.105 . S
O324 C316 1.268 . S
O325 Sc309 2.105 . S
O325 C315 1.268 . S
O326 Sc310 2.105 . S
O326 C317 1.268 . S
O327 Sc308 2.105 . S
O327 C313 1.268 . S
O328 Sc310 2.105 . S
O328 C312 1.268 . S
O329 Sc309 2.105 . S
O329 C314 1.268 . S
Sc330 O333 2.025 . S
Sc330 O340 2.105 . S
Sc330 O343 2.105 . S
Sc330 O346 2.105 . S
Sc330 O349 2.105 . S
Sc331 O333 2.025 . S
Sc331 O341 2.105 . S
Sc331 O345 2.105 . S
Sc331 O347 2.105 . S
Sc331 O351 2.105 . S
Sc332 O333 2.025 . S
Sc332 O342 2.105 . S
Sc332 O344 2.105 . S
Sc332 O348 2.105 . S
Sc332 O350 2.105 . S
O333 Sc330 2.025 . S
O333 Sc331 2.025 . S
O333 Sc332 2.025 . S
C334 O340 1.268 . S
C334 O350 1.268 . S
C335 O341 1.268 . S
C335 O349 1.268 . S
C336 O342 1.268 . S
C336 O351 1.268 . S
C337 O343 1.268 . S
C337 O347 1.268 . S
C338 O344 1.268 . S
C338 O346 1.268 . S
C339 O345 1.268 . S
C339 O348 1.268 . S
O340 Sc330 2.105 . S
O340 C334 1.268 . S
O341 Sc331 2.105 . S
O341 C335 1.268 . S
O342 Sc332 2.105 . S
O342 C336 1.268 . S
O343 Sc330 2.105 . S
O343 C337 1.268 . S
O344 Sc332 2.105 . S
O344 C338 1.268 . S
O345 Sc331 2.105 . S
O345 C339 1.268 . S
O346 Sc330 2.105 . S
O346 C338 1.268 . S
O347 Sc331 2.105 . S
O347 C337 1.268 . S
O348 Sc332 2.105 . S
O348 C339 1.268 . S
O349 Sc330 2.105 . S
O349 C335 1.268 . S
O350 Sc332 2.105 . S
O350 C334 1.268 . S
O351 Sc331 2.105 . S
O351 C336 1.268 . S
Sc352 O355 2.025 . S
Sc352 O362 2.105 . S
Sc352 O365 2.105 . S
Sc352 O368 2.105 . S
Sc352 O371 2.105 . S
Sc353 O355 2.025 . S
Sc353 O363 2.105 . S
Sc353 O367 2.105 . S
Sc353 O369 2.105 . S
Sc353 O373 2.105 . S
Sc354 O355 2.025 . S
Sc354 O364 2.105 . S
Sc354 O366 2.105 . S
Sc354 O370 2.105 . S
Sc354 O372 2.105 . S
O355 Sc352 2.025 . S
O355 Sc353 2.025 . S
O355 Sc354 2.025 . S
C356 O362 1.268 . S
C356 O372 1.268 . S
C357 O363 1.268 . S
C357 O371 1.268 . S
C358 O364 1.268 . S
C358 O373 1.268 . S
C359 O365 1.268 . S
C359 O369 1.268 . S
C360 O366 1.268 . S
C360 O368 1.268 . S
C361 O367 1.268 . S
C361 O370 1.268 . S
O362 Sc352 2.105 . S
O362 C356 1.268 . S
O363 Sc353 2.105 . S
O363 C357 1.268 . S
O364 Sc354 2.105 . S
O364 C358 1.268 . S
O365 Sc352 2.105 . S
O365 C359 1.268 . S
O366 Sc354 2.105 . S
O366 C360 1.268 . S
O367 Sc353 2.105 . S
O367 C361 1.268 . S
O368 Sc352 2.105 . S
O368 C360 1.268 . S
O369 Sc353 2.105 . S
O369 C359 1.268 . S
O370 Sc354 2.105 . S
O370 C361 1.268 . S
O371 Sc352 2.105 . S
O371 C357 1.268 . S
O372 Sc354 2.105 . S
O372 C356 1.268 . S
O373 Sc353 2.105 . S
O373 C358 1.268 . S
Sc374 O377 2.025 . S
Sc374 O384 2.105 . S
Sc374 O387 2.105 . S
Sc374 O390 2.105 . S
Sc374 O393 2.105 . S
Sc375 O377 2.025 . S
Sc375 O385 2.105 . S
Sc375 O389 2.105 . S
Sc375 O391 2.105 . S
Sc375 O395 2.105 . S
Sc376 O377 2.025 . S
Sc376 O386 2.105 . S
Sc376 O388 2.105 . S
Sc376 O392 2.105 . S
Sc376 O394 2.105 . S
O377 Sc374 2.025 . S
O377 Sc375 2.025 . S
O377 Sc376 2.025 . S
C378 O384 1.268 . S
C378 O394 1.268 . S
C379 O385 1.268 . S
C379 O393 1.268 . S
C380 O386 1.268 . S
C380 O395 1.268 . S
C381 O387 1.268 . S
C381 O391 1.268 . S
C382 O388 1.268 . S
C382 O390 1.268 . S
C383 O389 1.268 . S
C383 O392 1.268 . S
O384 Sc374 2.105 . S
O384 C378 1.268 . S
O385 Sc375 2.105 . S
O385 C379 1.268 . S
O386 Sc376 2.105 . S
O386 C380 1.268 . S
O387 Sc374 2.105 . S
O387 C381 1.268 . S
O388 Sc376 2.105 . S
O388 C382 1.268 . S
O389 Sc375 2.105 . S
O389 C383 1.268 . S
O390 Sc374 2.105 . S
O390 C382 1.268 . S
O391 Sc375 2.105 . S
O391 C381 1.268 . S
O392 Sc376 2.105 . S
O392 C383 1.268 . S
O393 Sc374 2.105 . S
O393 C379 1.268 . S
O394 Sc376 2.105 . S
O394 C378 1.268 . S
O395 Sc375 2.105 . S
O395 C380 1.268 . S
Sc396 O399 2.025 . S
Sc396 O406 2.105 . S
Sc396 O409 2.105 . S
Sc396 O412 2.105 . S
Sc396 O415 2.105 . S
Sc397 O399 2.025 . S
Sc397 O407 2.105 . S
Sc397 O411 2.105 . S
Sc397 O413 2.105 . S
Sc397 O417 2.105 . S
Sc398 O399 2.025 . S
Sc398 O408 2.105 . S
Sc398 O410 2.105 . S
Sc398 O414 2.105 . S
Sc398 O416 2.105 . S
O399 Sc396 2.025 . S
O399 Sc397 2.025 . S
O399 Sc398 2.025 . S
C400 O406 1.268 . S
C400 O416 1.268 . S
C401 O407 1.268 . S
C401 O415 1.268 . S
C402 O408 1.268 . S
C402 O417 1.268 . S
C403 O409 1.268 . S
C403 O413 1.268 . S
C404 O410 1.268 . S
C404 O412 1.268 . S
C405 O411 1.268 . S
C405 O414 1.268 . S
O406 Sc396 2.105 . S
O406 C400 1.268 . S
O407 Sc397 2.105 . S
O407 C401 1.268 . S
O408 Sc398 2.105 . S
O408 C402 1.268 . S
O409 Sc396 2.105 . S
O409 C403 1.268 . S
O410 Sc398 2.105 . S
O410 C404 1.268 . S
O411 Sc397 2.105 . S
O411 C405 1.268 . S
O412 Sc396 2.105 . S
O412 C404 1.268 . S
O413 Sc397 2.105 . S
O413 C403 1.268 . S
O414 Sc398 2.105 . S
O414 C405 1.268 . S
O415 Sc396 2.105 . S
O415 C401 1.268 . S
O416 Sc398 2.105 . S
O416 C400 1.268 . S
O417 Sc397 2.105 . S
O417 C402 1.268 . S
Sc418 O421 2.025 . S
Sc418 O428 2.105 . S
Sc418 O431 2.105 . S
Sc418 O434 2.105 . S
Sc418 O437 2.105 . S
Sc419 O421 2.025 . S
Sc419 O429 2.105 . S
Sc419 O433 2.105 . S
Sc419 O435 2.105 . S
Sc419 O439 2.105 . S
Sc420 O421 2.025 . S
Sc420 O430 2.105 . S
Sc420 O432 2.105 . S
Sc420 O436 2.105 . S
Sc420 O438 2.105 . S
O421 Sc418 2.025 . S
O421 Sc419 2.025 . S
O421 Sc420 2.025 . S
C422 O428 1.268 . S
C422 O438 1.268 . S
C423 O429 1.268 . S
C423 O437 1.268 . S
C424 O430 1.268 . S
C424 O439 1.268 . S
C425 O431 1.268 . S
C425 O435 1.268 . S
C426 O432 1.268 . S
C426 O434 1.268 . S
C427 O433 1.268 . S
C427 O436 1.268 . S
O428 Sc418 2.105 . S
O428 C422 1.268 . S
O429 Sc419 2.105 . S
O429 C423 1.268 . S
O430 Sc420 2.105 . S
O430 C424 1.268 . S
O431 Sc418 2.105 . S
O431 C425 1.268 . S
O432 Sc420 2.105 . S
O432 C426 1.268 . S
O433 Sc419 2.105 . S
O433 C427 1.268 . S
O434 Sc418 2.105 . S
O434 C426 1.268 . S
O435 Sc419 2.105 . S
O435 C425 1.268 . S
O436 Sc420 2.105 . S
O436 C427 1.268 . S
O437 Sc418 2.105 . S
O437 C423 1.268 . S
O438 Sc420 2.105 . S
O438 C422 1.268 . S
O439 Sc419 2.105 . S
O439 C424 1.268 . S
Sc440 O443 2.025 . S
Sc440 O450 2.105 . S
Sc440 O453 2.105 . S
Sc440 O456 2.105 . S
Sc440 O459 2.105 . S
Sc441 O443 2.025 . S
Sc441 O451 2.105 . S
Sc441 O455 2.105 . S
Sc441 O457 2.105 . S
Sc441 O461 2.105 . S
Sc442 O443 2.025 . S
Sc442 O452 2.105 . S
Sc442 O454 2.105 . S
Sc442 O458 2.105 . S
Sc442 O460 2.105 . S
O443 Sc440 2.025 . S
O443 Sc441 2.025 . S
O443 Sc442 2.025 . S
C444 O450 1.268 . S
C444 O460 1.268 . S
C445 O451 1.268 . S
C445 O459 1.268 . S
C446 O452 1.268 . S
C446 O461 1.268 . S
C447 O453 1.268 . S
C447 O457 1.268 . S
C448 O454 1.268 . S
C448 O456 1.268 . S
C449 O455 1.268 . S
C449 O458 1.268 . S
O450 Sc440 2.105 . S
O450 C444 1.268 . S
O451 Sc441 2.105 . S
O451 C445 1.268 . S
O452 Sc442 2.105 . S
O452 C446 1.268 . S
O453 Sc440 2.105 . S
O453 C447 1.268 . S
O454 Sc442 2.105 . S
O454 C448 1.268 . S
O455 Sc441 2.105 . S
O455 C449 1.268 . S
O456 Sc440 2.105 . S
O456 C448 1.268 . S
O457 Sc441 2.105 . S
O457 C447 1.268 . S
O458 Sc442 2.105 . S
O458 C449 1.268 . S
O459 Sc440 2.105 . S
O459 C445 1.268 . S
O460 Sc442 2.105 . S
O460 C444 1.268 . S
O461 Sc441 2.105 . S
O461 C446 1.268 . S
Sc462 O465 2.025 . S
Sc462 O472 2.105 . S
Sc462 O475 2.105 . S
Sc462 O478 2.105 . S
Sc462 O481 2.105 . S
Sc463 O465 2.025 . S
Sc463 O473 2.105 . S
Sc463 O477 2.105 . S
Sc463 O479 2.105 . S
Sc463 O483 2.105 . S
Sc464 O465 2.025 . S
Sc464 O474 2.105 . S
Sc464 O476 2.105 . S
Sc464 O480 2.105 . S
Sc464 O482 2.105 . S
O465 Sc462 2.025 . S
O465 Sc463 2.025 . S
O465 Sc464 2.025 . S
C466 O472 1.268 . S
C466 O482 1.268 . S
C467 O473 1.268 . S
C467 O481 1.268 . S
C468 O474 1.268 . S
C468 O483 1.268 . S
C469 O475 1.268 . S
C469 O479 1.268 . S
C470 O476 1.268 . S
C470 O478 1.268 . S
C471 O477 1.268 . S
C471 O480 1.268 . S
O472 Sc462 2.105 . S
O472 C466 1.268 . S
O473 Sc463 2.105 . S
O473 C467 1.268 . S
O474 Sc464 2.105 . S
O474 C468 1.268 . S
O475 Sc462 2.105 . S
O475 C469 1.268 . S
O476 Sc464 2.105 . S
O476 C470 1.268 . S
O477 Sc463 2.105 . S
O477 C471 1.268 . S
O478 Sc462 2.105 . S
O478 C470 1.268 . S
O479 Sc463 2.105 . S
O479 C469 1.268 . S
O480 Sc464 2.105 . S
O480 C471 1.268 . S
O481 Sc462 2.105 . S
O481 C467 1.268 . S
O482 Sc464 2.105 . S
O482 C466 1.268 . S
O483 Sc463 2.105 . S
O483 C468 1.268 . S
Sc484 O487 2.025 . S
Sc484 O494 2.105 . S
Sc484 O497 2.105 . S
Sc484 O500 2.105 . S
Sc484 O503 2.105 . S
Sc485 O487 2.025 . S
Sc485 O495 2.105 . S
Sc485 O499 2.105 . S
Sc485 O501 2.105 . S
Sc485 O505 2.105 . S
Sc486 O487 2.025 . S
Sc486 O496 2.105 . S
Sc486 O498 2.105 . S
Sc486 O502 2.105 . S
Sc486 O504 2.105 . S
O487 Sc484 2.025 . S
O487 Sc485 2.025 . S
O487 Sc486 2.025 . S
C488 O494 1.268 . S
C488 O504 1.268 . S
C489 O495 1.268 . S
C489 O503 1.268 . S
C490 O496 1.268 . S
C490 O505 1.268 . S
C491 O497 1.268 . S
C491 O501 1.268 . S
C492 O498 1.268 . S
C492 O500 1.268 . S
C493 O499 1.268 . S
C493 O502 1.268 . S
O494 Sc484 2.105 . S
O494 C488 1.268 . S
O495 Sc485 2.105 . S
O495 C489 1.268 . S
O496 Sc486 2.105 . S
O496 C490 1.268 . S
O497 Sc484 2.105 . S
O497 C491 1.268 . S
O498 Sc486 2.105 . S
O498 C492 1.268 . S
O499 Sc485 2.105 . S
O499 C493 1.268 . S
O500 Sc484 2.105 . S
O500 C492 1.268 . S
O501 Sc485 2.105 . S
O501 C491 1.268 . S
O502 Sc486 2.105 . S
O502 C493 1.268 . S
O503 Sc484 2.105 . S
O503 C489 1.268 . S
O504 Sc486 2.105 . S
O504 C488 1.268 . S
O505 Sc485 2.105 . S
O505 C490 1.268 . S
Sc506 O509 2.025 . S
Sc506 O516 2.105 . S
Sc506 O519 2.105 . S
Sc506 O522 2.105 . S
Sc506 O525 2.105 . S
Sc507 O509 2.025 . S
Sc507 O517 2.105 . S
Sc507 O521 2.105 . S
Sc507 O523 2.105 . S
Sc507 O527 2.105 . S
Sc508 O509 2.025 . S
Sc508 O518 2.105 . S
Sc508 O520 2.105 . S
Sc508 O524 2.105 . S
Sc508 O526 2.105 . S
O509 Sc506 2.025 . S
O509 Sc507 2.025 . S
O509 Sc508 2.025 . S
C510 O516 1.268 . S
C510 O526 1.268 . S
C511 O517 1.268 . S
C511 O525 1.268 . S
C512 O518 1.268 . S
C512 O527 1.268 . S
C513 O519 1.268 . S
C513 O523 1.268 . S
C514 O520 1.268 . S
C514 O522 1.268 . S
C515 O521 1.268 . S
C515 O524 1.268 . S
O516 Sc506 2.105 . S
O516 C510 1.268 . S
O517 Sc507 2.105 . S
O517 C511 1.268 . S
O518 Sc508 2.105 . S
O518 C512 1.268 . S
O519 Sc506 2.105 . S
O519 C513 1.268 . S
O520 Sc508 2.105 . S
O520 C514 1.268 . S
O521 Sc507 2.105 . S
O521 C515 1.268 . S
O522 Sc506 2.105 . S
O522 C514 1.268 . S
O523 Sc507 2.105 . S
O523 C513 1.268 . S
O524 Sc508 2.105 . S
O524 C515 1.268 . S
O525 Sc506 2.105 . S
O525 C511 1.268 . S
O526 Sc508 2.105 . S
O526 C510 1.268 . S
O527 Sc507 2.105 . S
O527 C512 1.268 . S
Sc528 O531 2.025 . S
Sc528 O538 2.105 . S
Sc528 O541 2.105 . S
Sc528 O544 2.105 . S
Sc528 O547 2.105 . S
Sc529 O531 2.025 . S
Sc529 O539 2.105 . S
Sc529 O543 2.105 . S
Sc529 O545 2.105 . S
Sc529 O549 2.105 . S
Sc530 O531 2.025 . S
Sc530 O540 2.105 . S
Sc530 O542 2.105 . S
Sc530 O546 2.105 . S
Sc530 O548 2.105 . S
O531 Sc528 2.025 . S
O531 Sc529 2.025 . S
O531 Sc530 2.025 . S
C532 O538 1.268 . S
C532 O548 1.268 . S
C533 O539 1.268 . S
C533 O547 1.268 . S
C534 O540 1.268 . S
C534 O549 1.268 . S
C535 O541 1.268 . S
C535 O545 1.268 . S
C536 O542 1.268 . S
C536 O544 1.268 . S
C537 O543 1.268 . S
C537 O546 1.268 . S
O538 Sc528 2.105 . S
O538 C532 1.268 . S
O539 Sc529 2.105 . S
O539 C533 1.268 . S
O540 Sc530 2.105 . S
O540 C534 1.268 . S
O541 Sc528 2.105 . S
O541 C535 1.268 . S
O542 Sc530 2.105 . S
O542 C536 1.268 . S
O543 Sc529 2.105 . S
O543 C537 1.268 . S
O544 Sc528 2.105 . S
O544 C536 1.268 . S
O545 Sc529 2.105 . S
O545 C535 1.268 . S
O546 Sc530 2.105 . S
O546 C537 1.268 . S
O547 Sc528 2.105 . S
O547 C533 1.268 . S
O548 Sc530 2.105 . S
O548 C532 1.268 . S
O549 Sc529 2.105 . S
O549 C534 1.268 . S
Sc550 O553 2.025 . S
Sc550 O560 2.105 . S
Sc550 O563 2.105 . S
Sc550 O566 2.105 . S
Sc550 O569 2.105 . S
Sc551 O553 2.025 . S
Sc551 O561 2.105 . S
Sc551 O565 2.105 . S
Sc551 O567 2.105 . S
Sc551 O571 2.105 . S
Sc552 O553 2.025 . S
Sc552 O562 2.105 . S
Sc552 O564 2.105 . S
Sc552 O568 2.105 . S
Sc552 O570 2.105 . S
O553 Sc550 2.025 . S
O553 Sc551 2.025 . S
O553 Sc552 2.025 . S
C554 O560 1.268 . S
C554 O570 1.268 . S
C555 O561 1.268 . S
C555 O569 1.268 . S
C556 O562 1.268 . S
C556 O571 1.268 . S
C557 O563 1.268 . S
C557 O567 1.268 . S
C558 O564 1.268 . S
C558 O566 1.268 . S
C559 O565 1.268 . S
C559 O568 1.268 . S
O560 Sc550 2.105 . S
O560 C554 1.268 . S
O561 Sc551 2.105 . S
O561 C555 1.268 . S
O562 Sc552 2.105 . S
O562 C556 1.268 . S
O563 Sc550 2.105 . S
O563 C557 1.268 . S
O564 Sc552 2.105 . S
O564 C558 1.268 . S
O565 Sc551 2.105 . S
O565 C559 1.268 . S
O566 Sc550 2.105 . S
O566 C558 1.268 . S
O567 Sc551 2.105 . S
O567 C557 1.268 . S
O568 Sc552 2.105 . S
O568 C559 1.268 . S
O569 Sc550 2.105 . S
O569 C555 1.268 . S
O570 Sc552 2.105 . S
O570 C554 1.268 . S
O571 Sc551 2.105 . S
O571 C556 1.268 . S
Sc572 O575 2.025 . S
Sc572 O582 2.105 . S
Sc572 O585 2.105 . S
Sc572 O588 2.105 . S
Sc572 O591 2.105 . S
Sc573 O575 2.025 . S
Sc573 O583 2.105 . S
Sc573 O587 2.105 . S
Sc573 O589 2.105 . S
Sc573 O593 2.105 . S
Sc574 O575 2.025 . S
Sc574 O584 2.105 . S
Sc574 O586 2.105 . S
Sc574 O590 2.105 . S
Sc574 O592 2.105 . S
O575 Sc572 2.025 . S
O575 Sc573 2.025 . S
O575 Sc574 2.025 . S
C576 O582 1.268 . S
C576 O592 1.268 . S
C577 O583 1.268 . S
C577 O591 1.268 . S
C578 O584 1.268 . S
C578 O593 1.268 . S
C579 O585 1.268 . S
C579 O589 1.268 . S
C580 O586 1.268 . S
C580 O588 1.268 . S
C581 O587 1.268 . S
C581 O590 1.268 . S
O582 Sc572 2.105 . S
O582 C576 1.268 . S
O583 Sc573 2.105 . S
O583 C577 1.268 . S
O584 Sc574 2.105 . S
O584 C578 1.268 . S
O585 Sc572 2.105 . S
O585 C579 1.268 . S
O586 Sc574 2.105 . S
O586 C580 1.268 . S
O587 Sc573 2.105 . S
O587 C581 1.268 . S
O588 Sc572 2.105 . S
O588 C580 1.268 . S
O589 Sc573 2.105 . S
O589 C579 1.268 . S
O590 Sc574 2.105 . S
O590 C581 1.268 . S
O591 Sc572 2.105 . S
O591 C577 1.268 . S
O592 Sc574 2.105 . S
O592 C576 1.268 . S
O593 Sc573 2.105 . S
O593 C578 1.268 . S
Sc594 O597 2.025 . S
Sc594 O604 2.105 . S
Sc594 O607 2.105 . S
Sc594 O610 2.105 . S
Sc594 O613 2.105 . S
Sc595 O597 2.025 . S
Sc595 O605 2.105 . S
Sc595 O609 2.105 . S
Sc595 O611 2.105 . S
Sc595 O615 2.105 . S
Sc596 O597 2.025 . S
Sc596 O606 2.105 . S
Sc596 O608 2.105 . S
Sc596 O612 2.105 . S
Sc596 O614 2.105 . S
O597 Sc594 2.025 . S
O597 Sc595 2.025 . S
O597 Sc596 2.025 . S
C598 O604 1.268 . S
C598 O614 1.268 . S
C599 O605 1.268 . S
C599 O613 1.268 . S
C600 O606 1.268 . S
C600 O615 1.268 . S
C601 O607 1.268 . S
C601 O611 1.268 . S
C602 O608 1.268 . S
C602 O610 1.268 . S
C603 O609 1.268 . S
C603 O612 1.268 . S
O604 Sc594 2.105 . S
O604 C598 1.268 . S
O605 Sc595 2.105 . S
O605 C599 1.268 . S
O606 Sc596 2.105 . S
O606 C600 1.268 . S
O607 Sc594 2.105 . S
O607 C601 1.268 . S
O608 Sc596 2.105 . S
O608 C602 1.268 . S
O609 Sc595 2.105 . S
O609 C603 1.268 . S
O610 Sc594 2.105 . S
O610 C602 1.268 . S
O611 Sc595 2.105 . S
O611 C601 1.268 . S
O612 Sc596 2.105 . S
O612 C603 1.268 . S
O613 Sc594 2.105 . S
O613 C599 1.268 . S
O614 Sc596 2.105 . S
O614 C598 1.268 . S
O615 Sc595 2.105 . S
O615 C600 1.268 . S
Sc616 O619 2.025 . S
Sc616 O626 2.105 . S
Sc616 O629 2.105 . S
Sc616 O632 2.105 . S
Sc616 O635 2.105 . S
Sc617 O619 2.025 . S
Sc617 O627 2.105 . S
Sc617 O631 2.105 . S
Sc617 O633 2.105 . S
Sc617 O637 2.105 . S
Sc618 O619 2.025 . S
Sc618 O628 2.105 . S
Sc618 O630 2.105 . S
Sc618 O634 2.105 . S
Sc618 O636 2.105 . S
O619 Sc616 2.025 . S
O619 Sc617 2.025 . S
O619 Sc618 2.025 . S
C620 O626 1.268 . S
C620 O636 1.268 . S
C621 O627 1.268 . S
C621 O635 1.268 . S
C622 O628 1.268 . S
C622 O637 1.268 . S
C623 O629 1.268 . S
C623 O633 1.268 . S
C624 O630 1.268 . S
C624 O632 1.268 . S
C625 O631 1.268 . S
C625 O634 1.268 . S
O626 Sc616 2.105 . S
O626 C620 1.268 . S
O627 Sc617 2.105 . S
O627 C621 1.268 . S
O628 Sc618 2.105 . S
O628 C622 1.268 . S
O629 Sc616 2.105 . S
O629 C623 1.268 . S
O630 Sc618 2.105 . S
O630 C624 1.268 . S
O631 Sc617 2.105 . S
O631 C625 1.268 . S
O632 Sc616 2.105 . S
O632 C624 1.268 . S
O633 Sc617 2.105 . S
O633 C623 1.268 . S
O634 Sc618 2.105 . S
O634 C625 1.268 . S
O635 Sc616 2.105 . S
O635 C621 1.268 . S
O636 Sc618 2.105 . S
O636 C620 1.268 . S
O637 Sc617 2.105 . S
O637 C622 1.268 . S
Sc638 O641 2.025 . S
Sc638 O648 2.105 . S
Sc638 O651 2.105 . S
Sc638 O654 2.105 . S
Sc638 O657 2.105 . S
Sc639 O641 2.025 . S
Sc639 O649 2.105 . S
Sc639 O653 2.105 . S
Sc639 O655 2.105 . S
Sc639 O659 2.105 . S
Sc640 O641 2.025 . S
Sc640 O650 2.105 . S
Sc640 O652 2.105 . S
Sc640 O656 2.105 . S
Sc640 O658 2.105 . S
O641 Sc638 2.025 . S
O641 Sc639 2.025 . S
O641 Sc640 2.025 . S
C642 O648 1.268 . S
C642 O658 1.268 . S
C643 O649 1.268 . S
C643 O657 1.268 . S
C644 O650 1.268 . S
C644 O659 1.268 . S
C645 O651 1.268 . S
C645 O655 1.268 . S
C646 O652 1.268 . S
C646 O654 1.268 . S
C647 O653 1.268 . S
C647 O656 1.268 . S
O648 Sc638 2.105 . S
O648 C642 1.268 . S
O649 Sc639 2.105 . S
O649 C643 1.268 . S
O650 Sc640 2.105 . S
O650 C644 1.268 . S
O651 Sc638 2.105 . S
O651 C645 1.268 . S
O652 Sc640 2.105 . S
O652 C646 1.268 . S
O653 Sc639 2.105 . S
O653 C647 1.268 . S
O654 Sc638 2.105 . S
O654 C646 1.268 . S
O655 Sc639 2.105 . S
O655 C645 1.268 . S
O656 Sc640 2.105 . S
O656 C647 1.268 . S
O657 Sc638 2.105 . S
O657 C643 1.268 . S
O658 Sc640 2.105 . S
O658 C642 1.268 . S
O659 Sc639 2.105 . S
O659 C644 1.268 . S
Sc660 O663 2.025 . S
Sc660 O670 2.105 . S
Sc660 O673 2.105 . S
Sc660 O676 2.105 . S
Sc660 O679 2.105 . S
Sc661 O663 2.025 . S
Sc661 O671 2.105 . S
Sc661 O675 2.105 . S
Sc661 O677 2.105 . S
Sc661 O681 2.105 . S
Sc662 O663 2.025 . S
Sc662 O672 2.105 . S
Sc662 O674 2.105 . S
Sc662 O678 2.105 . S
Sc662 O680 2.105 . S
O663 Sc660 2.025 . S
O663 Sc661 2.025 . S
O663 Sc662 2.025 . S
C664 O670 1.268 . S
C664 O680 1.268 . S
C665 O671 1.268 . S
C665 O679 1.268 . S
C666 O672 1.268 . S
C666 O681 1.268 . S
C667 O673 1.268 . S
C667 O677 1.268 . S
C668 O674 1.268 . S
C668 O676 1.268 . S
C669 O675 1.268 . S
C669 O678 1.268 . S
O670 Sc660 2.105 . S
O670 C664 1.268 . S
O671 Sc661 2.105 . S
O671 C665 1.268 . S
O672 Sc662 2.105 . S
O672 C666 1.268 . S
O673 Sc660 2.105 . S
O673 C667 1.268 . S
O674 Sc662 2.105 . S
O674 C668 1.268 . S
O675 Sc661 2.105 . S
O675 C669 1.268 . S
O676 Sc660 2.105 . S
O676 C668 1.268 . S
O677 Sc661 2.105 . S
O677 C667 1.268 . S
O678 Sc662 2.105 . S
O678 C669 1.268 . S
O679 Sc660 2.105 . S
O679 C665 1.268 . S
O680 Sc662 2.105 . S
O680 C664 1.268 . S
O681 Sc661 2.105 . S
O681 C666 1.268 . S
Sc682 O685 2.025 . S
Sc682 O692 2.105 . S
Sc682 O695 2.105 . S
Sc682 O698 2.105 . S
Sc682 O701 2.105 . S
Sc683 O685 2.025 . S
Sc683 O693 2.105 . S
Sc683 O697 2.105 . S
Sc683 O699 2.105 . S
Sc683 O703 2.105 . S
Sc684 O685 2.025 . S
Sc684 O694 2.105 . S
Sc684 O696 2.105 . S
Sc684 O700 2.105 . S
Sc684 O702 2.105 . S
O685 Sc682 2.025 . S
O685 Sc683 2.025 . S
O685 Sc684 2.025 . S
C686 O692 1.268 . S
C686 O702 1.268 . S
C687 O693 1.268 . S
C687 O701 1.268 . S
C688 O694 1.268 . S
C688 O703 1.268 . S
C689 O695 1.268 . S
C689 O699 1.268 . S
C690 O696 1.268 . S
C690 O698 1.268 . S
C691 O697 1.268 . S
C691 O700 1.268 . S
O692 Sc682 2.105 . S
O692 C686 1.268 . S
O693 Sc683 2.105 . S
O693 C687 1.268 . S
O694 Sc684 2.105 . S
O694 C688 1.268 . S
O695 Sc682 2.105 . S
O695 C689 1.268 . S
O696 Sc684 2.105 . S
O696 C690 1.268 . S
O697 Sc683 2.105 . S
O697 C691 1.268 . S
O698 Sc682 2.105 . S
O698 C690 1.268 . S
O699 Sc683 2.105 . S
O699 C689 1.268 . S
O700 Sc684 2.105 . S
O700 C691 1.268 . S
O701 Sc682 2.105 . S
O701 C687 1.268 . S
O702 Sc684 2.105 . S
O702 C686 1.268 . S
O703 Sc683 2.105 . S
O703 C688 1.268 . S
Sc704 O707 2.025 . S
Sc704 O714 2.105 . S
Sc704 O717 2.105 . S
Sc704 O720 2.105 . S
Sc704 O723 2.105 . S
Sc705 O707 2.025 . S
Sc705 O715 2.105 . S
Sc705 O719 2.105 . S
Sc705 O721 2.105 . S
Sc705 O725 2.105 . S
Sc706 O707 2.025 . S
Sc706 O716 2.105 . S
Sc706 O718 2.105 . S
Sc706 O722 2.105 . S
Sc706 O724 2.105 . S
O707 Sc704 2.025 . S
O707 Sc705 2.025 . S
O707 Sc706 2.025 . S
C708 O714 1.268 . S
C708 O724 1.268 . S
C709 O715 1.268 . S
C709 O723 1.268 . S
C710 O716 1.268 . S
C710 O725 1.268 . S
C711 O717 1.268 . S
C711 O721 1.268 . S
C712 O718 1.268 . S
C712 O720 1.268 . S
C713 O719 1.268 . S
C713 O722 1.268 . S
O714 Sc704 2.105 . S
O714 C708 1.268 . S
O715 Sc705 2.105 . S
O715 C709 1.268 . S
O716 Sc706 2.105 . S
O716 C710 1.268 . S
O717 Sc704 2.105 . S
O717 C711 1.268 . S
O718 Sc706 2.105 . S
O718 C712 1.268 . S
O719 Sc705 2.105 . S
O719 C713 1.268 . S
O720 Sc704 2.105 . S
O720 C712 1.268 . S
O721 Sc705 2.105 . S
O721 C711 1.268 . S
O722 Sc706 2.105 . S
O722 C713 1.268 . S
O723 Sc704 2.105 . S
O723 C709 1.268 . S
O724 Sc706 2.105 . S
O724 C708 1.268 . S
O725 Sc705 2.105 . S
O725 C710 1.268 . S
Sc726 O729 2.025 . S
Sc726 O736 2.105 . S
Sc726 O739 2.105 . S
Sc726 O742 2.105 . S
Sc726 O745 2.105 . S
Sc727 O729 2.025 . S
Sc727 O737 2.105 . S
Sc727 O741 2.105 . S
Sc727 O743 2.105 . S
Sc727 O747 2.105 . S
Sc728 O729 2.025 . S
Sc728 O738 2.105 . S
Sc728 O740 2.105 . S
Sc728 O744 2.105 . S
Sc728 O746 2.105 . S
O729 Sc726 2.025 . S
O729 Sc727 2.025 . S
O729 Sc728 2.025 . S
C730 O736 1.268 . S
C730 O746 1.268 . S
C731 O737 1.268 . S
C731 O745 1.268 . S
C732 O738 1.268 . S
C732 O747 1.268 . S
C733 O739 1.268 . S
C733 O743 1.268 . S
C734 O740 1.268 . S
C734 O742 1.268 . S
C735 O741 1.268 . S
C735 O744 1.268 . S
O736 Sc726 2.105 . S
O736 C730 1.268 . S
O737 Sc727 2.105 . S
O737 C731 1.268 . S
O738 Sc728 2.105 . S
O738 C732 1.268 . S
O739 Sc726 2.105 . S
O739 C733 1.268 . S
O740 Sc728 2.105 . S
O740 C734 1.268 . S
O741 Sc727 2.105 . S
O741 C735 1.268 . S
O742 Sc726 2.105 . S
O742 C734 1.268 . S
O743 Sc727 2.105 . S
O743 C733 1.268 . S
O744 Sc728 2.105 . S
O744 C735 1.268 . S
O745 Sc726 2.105 . S
O745 C731 1.268 . S
O746 Sc728 2.105 . S
O746 C730 1.268 . S
O747 Sc727 2.105 . S
O747 C732 1.268 . S
Sc748 O751 2.025 . S
Sc748 O758 2.105 . S
Sc748 O761 2.105 . S
Sc748 O764 2.105 . S
Sc748 O767 2.105 . S
Sc749 O751 2.025 . S
Sc749 O759 2.105 . S
Sc749 O763 2.105 . S
Sc749 O765 2.105 . S
Sc749 O769 2.105 . S
Sc750 O751 2.025 . S
Sc750 O760 2.105 . S
Sc750 O762 2.105 . S
Sc750 O766 2.105 . S
Sc750 O768 2.105 . S
O751 Sc748 2.025 . S
O751 Sc749 2.025 . S
O751 Sc750 2.025 . S
C752 O758 1.268 . S
C752 O768 1.268 . S
C753 O759 1.268 . S
C753 O767 1.268 . S
C754 O760 1.268 . S
C754 O769 1.268 . S
C755 O761 1.268 . S
C755 O765 1.268 . S
C756 O762 1.268 . S
C756 O764 1.268 . S
C757 O763 1.268 . S
C757 O766 1.268 . S
O758 Sc748 2.105 . S
O758 C752 1.268 . S
O759 Sc749 2.105 . S
O759 C753 1.268 . S
O760 Sc750 2.105 . S
O760 C754 1.268 . S
O761 Sc748 2.105 . S
O761 C755 1.268 . S
O762 Sc750 2.105 . S
O762 C756 1.268 . S
O763 Sc749 2.105 . S
O763 C757 1.268 . S
O764 Sc748 2.105 . S
O764 C756 1.268 . S
O765 Sc749 2.105 . S
O765 C755 1.268 . S
O766 Sc750 2.105 . S
O766 C757 1.268 . S
O767 Sc748 2.105 . S
O767 C753 1.268 . S
O768 Sc750 2.105 . S
O768 C752 1.268 . S
O769 Sc749 2.105 . S
O769 C754 1.268 . S
Sc770 O773 2.025 . S
Sc770 O780 2.105 . S
Sc770 O783 2.105 . S
Sc770 O786 2.105 . S
Sc770 O789 2.105 . S
Sc771 O773 2.025 . S
Sc771 O781 2.105 . S
Sc771 O785 2.105 . S
Sc771 O787 2.105 . S
Sc771 O791 2.105 . S
Sc772 O773 2.025 . S
Sc772 O782 2.105 . S
Sc772 O784 2.105 . S
Sc772 O788 2.105 . S
Sc772 O790 2.105 . S
O773 Sc770 2.025 . S
O773 Sc771 2.025 . S
O773 Sc772 2.025 . S
C774 O780 1.268 . S
C774 O790 1.268 . S
C775 O781 1.268 . S
C775 O789 1.268 . S
C776 O782 1.268 . S
C776 O791 1.268 . S
C777 O783 1.268 . S
C777 O787 1.268 . S
C778 O784 1.268 . S
C778 O786 1.268 . S
C779 O785 1.268 . S
C779 O788 1.268 . S
O780 Sc770 2.105 . S
O780 C774 1.268 . S
O781 Sc771 2.105 . S
O781 C775 1.268 . S
O782 Sc772 2.105 . S
O782 C776 1.268 . S
O783 Sc770 2.105 . S
O783 C777 1.268 . S
O784 Sc772 2.105 . S
O784 C778 1.268 . S
O785 Sc771 2.105 . S
O785 C779 1.268 . S
O786 Sc770 2.105 . S
O786 C778 1.268 . S
O787 Sc771 2.105 . S
O787 C777 1.268 . S
O788 Sc772 2.105 . S
O788 C779 1.268 . S
O789 Sc770 2.105 . S
O789 C775 1.268 . S
O790 Sc772 2.105 . S
O790 C774 1.268 . S
O791 Sc771 2.105 . S
O791 C776 1.268 . S
Sc792 O795 2.025 . S
Sc792 O802 2.105 . S
Sc792 O805 2.105 . S
Sc792 O808 2.105 . S
Sc792 O811 2.105 . S
Sc793 O795 2.025 . S
Sc793 O803 2.105 . S
Sc793 O807 2.105 . S
Sc793 O809 2.105 . S
Sc793 O813 2.105 . S
Sc794 O795 2.025 . S
Sc794 O804 2.105 . S
Sc794 O806 2.105 . S
Sc794 O810 2.105 . S
Sc794 O812 2.105 . S
O795 Sc792 2.025 . S
O795 Sc793 2.025 . S
O795 Sc794 2.025 . S
C796 O802 1.268 . S
C796 O812 1.268 . S
C797 O803 1.268 . S
C797 O811 1.268 . S
C798 O804 1.268 . S
C798 O813 1.268 . S
C799 O805 1.268 . S
C799 O809 1.268 . S
C800 O806 1.268 . S
C800 O808 1.268 . S
C801 O807 1.268 . S
C801 O810 1.268 . S
O802 Sc792 2.105 . S
O802 C796 1.268 . S
O803 Sc793 2.105 . S
O803 C797 1.268 . S
O804 Sc794 2.105 . S
O804 C798 1.268 . S
O805 Sc792 2.105 . S
O805 C799 1.268 . S
O806 Sc794 2.105 . S
O806 C800 1.268 . S
O807 Sc793 2.105 . S
O807 C801 1.268 . S
O808 Sc792 2.105 . S
O808 C800 1.268 . S
O809 Sc793 2.105 . S
O809 C799 1.268 . S
O810 Sc794 2.105 . S
O810 C801 1.268 . S
O811 Sc792 2.105 . S
O811 C797 1.268 . S
O812 Sc794 2.105 . S
O812 C796 1.268 . S
O813 Sc793 2.105 . S
O813 C798 1.268 . S
Sc814 O817 2.025 . S
Sc814 O824 2.105 . S
Sc814 O827 2.105 . S
Sc814 O830 2.105 . S
Sc814 O833 2.105 . S
Sc815 O817 2.025 . S
Sc815 O825 2.105 . S
Sc815 O829 2.105 . S
Sc815 O831 2.105 . S
Sc815 O835 2.105 . S
Sc816 O817 2.025 . S
Sc816 O826 2.105 . S
Sc816 O828 2.105 . S
Sc816 O832 2.105 . S
Sc816 O834 2.105 . S
O817 Sc814 2.025 . S
O817 Sc815 2.025 . S
O817 Sc816 2.025 . S
C818 O824 1.268 . S
C818 O834 1.268 . S
C819 O825 1.268 . S
C819 O833 1.268 . S
C820 O826 1.268 . S
C820 O835 1.268 . S
C821 O827 1.268 . S
C821 O831 1.268 . S
C822 O828 1.268 . S
C822 O830 1.268 . S
C823 O829 1.268 . S
C823 O832 1.268 . S
O824 Sc814 2.105 . S
O824 C818 1.268 . S
O825 Sc815 2.105 . S
O825 C819 1.268 . S
O826 Sc816 2.105 . S
O826 C820 1.268 . S
O827 Sc814 2.105 . S
O827 C821 1.268 . S
O828 Sc816 2.105 . S
O828 C822 1.268 . S
O829 Sc815 2.105 . S
O829 C823 1.268 . S
O830 Sc814 2.105 . S
O830 C822 1.268 . S
O831 Sc815 2.105 . S
O831 C821 1.268 . S
O832 Sc816 2.105 . S
O832 C823 1.268 . S
O833 Sc814 2.105 . S
O833 C819 1.268 . S
O834 Sc816 2.105 . S
O834 C818 1.268 . S
O835 Sc815 2.105 . S
O835 C820 1.268 . S
Sc836 O839 2.025 . S
Sc836 O846 2.105 . S
Sc836 O849 2.105 . S
Sc836 O852 2.105 . S
Sc836 O855 2.105 . S
Sc837 O839 2.025 . S
Sc837 O847 2.105 . S
Sc837 O851 2.105 . S
Sc837 O853 2.105 . S
Sc837 O857 2.105 . S
Sc838 O839 2.025 . S
Sc838 O848 2.105 . S
Sc838 O850 2.105 . S
Sc838 O854 2.105 . S
Sc838 O856 2.105 . S
O839 Sc836 2.025 . S
O839 Sc837 2.025 . S
O839 Sc838 2.025 . S
C840 O846 1.268 . S
C840 O856 1.268 . S
C841 O847 1.268 . S
C841 O855 1.268 . S
C842 O848 1.268 . S
C842 O857 1.268 . S
C843 O849 1.268 . S
C843 O853 1.268 . S
C844 O850 1.268 . S
C844 O852 1.268 . S
C845 O851 1.268 . S
C845 O854 1.268 . S
O846 Sc836 2.105 . S
O846 C840 1.268 . S
O847 Sc837 2.105 . S
O847 C841 1.268 . S
O848 Sc838 2.105 . S
O848 C842 1.268 . S
O849 Sc836 2.105 . S
O849 C843 1.268 . S
O850 Sc838 2.105 . S
O850 C844 1.268 . S
O851 Sc837 2.105 . S
O851 C845 1.268 . S
O852 Sc836 2.105 . S
O852 C844 1.268 . S
O853 Sc837 2.105 . S
O853 C843 1.268 . S
O854 Sc838 2.105 . S
O854 C845 1.268 . S
O855 Sc836 2.105 . S
O855 C841 1.268 . S
O856 Sc838 2.105 . S
O856 C840 1.268 . S
O857 Sc837 2.105 . S
O857 C842 1.268 . S
Sc858 O861 2.025 . S
Sc858 O868 2.105 . S
Sc858 O871 2.105 . S
Sc858 O874 2.105 . S
Sc858 O877 2.105 . S
Sc859 O861 2.025 . S
Sc859 O869 2.105 . S
Sc859 O873 2.105 . S
Sc859 O875 2.105 . S
Sc859 O879 2.105 . S
Sc860 O861 2.025 . S
Sc860 O870 2.105 . S
Sc860 O872 2.105 . S
Sc860 O876 2.105 . S
Sc860 O878 2.105 . S
O861 Sc858 2.025 . S
O861 Sc859 2.025 . S
O861 Sc860 2.025 . S
C862 O868 1.268 . S
C862 O878 1.268 . S
C863 O869 1.268 . S
C863 O877 1.268 . S
C864 O870 1.268 . S
C864 O879 1.268 . S
C865 O871 1.268 . S
C865 O875 1.268 . S
C866 O872 1.268 . S
C866 O874 1.268 . S
C867 O873 1.268 . S
C867 O876 1.268 . S
O868 Sc858 2.105 . S
O868 C862 1.268 . S
O869 Sc859 2.105 . S
O869 C863 1.268 . S
O870 Sc860 2.105 . S
O870 C864 1.268 . S
O871 Sc858 2.105 . S
O871 C865 1.268 . S
O872 Sc860 2.105 . S
O872 C866 1.268 . S
O873 Sc859 2.105 . S
O873 C867 1.268 . S
O874 Sc858 2.105 . S
O874 C866 1.268 . S
O875 Sc859 2.105 . S
O875 C865 1.268 . S
O876 Sc860 2.105 . S
O876 C867 1.268 . S
O877 Sc858 2.105 . S
O877 C863 1.268 . S
O878 Sc860 2.105 . S
O878 C862 1.268 . S
O879 Sc859 2.105 . S
O879 C864 1.268 . S
Sc880 O883 2.025 . S
Sc880 O890 2.105 . S
Sc880 O893 2.105 . S
Sc880 O896 2.105 . S
Sc880 O899 2.105 . S
Sc881 O883 2.025 . S
Sc881 O891 2.105 . S
Sc881 O895 2.105 . S
Sc881 O897 2.105 . S
Sc881 O901 2.105 . S
Sc882 O883 2.025 . S
Sc882 O892 2.105 . S
Sc882 O894 2.105 . S
Sc882 O898 2.105 . S
Sc882 O900 2.105 . S
O883 Sc880 2.025 . S
O883 Sc881 2.025 . S
O883 Sc882 2.025 . S
C884 O890 1.268 . S
C884 O900 1.268 . S
C885 O891 1.268 . S
C885 O899 1.268 . S
C886 O892 1.268 . S
C886 O901 1.268 . S
C887 O893 1.268 . S
C887 O897 1.268 . S
C888 O894 1.268 . S
C888 O896 1.268 . S
C889 O895 1.268 . S
C889 O898 1.268 . S
O890 Sc880 2.105 . S
O890 C884 1.268 . S
O891 Sc881 2.105 . S
O891 C885 1.268 . S
O892 Sc882 2.105 . S
O892 C886 1.268 . S
O893 Sc880 2.105 . S
O893 C887 1.268 . S
O894 Sc882 2.105 . S
O894 C888 1.268 . S
O895 Sc881 2.105 . S
O895 C889 1.268 . S
O896 Sc880 2.105 . S
O896 C888 1.268 . S
O897 Sc881 2.105 . S
O897 C887 1.268 . S
O898 Sc882 2.105 . S
O898 C889 1.268 . S
O899 Sc880 2.105 . S
O899 C885 1.268 . S
O900 Sc882 2.105 . S
O900 C884 1.268 . S
O901 Sc881 2.105 . S
O901 C886 1.268 . S
Sc902 O905 2.025 . S
Sc902 O912 2.105 . S
Sc902 O915 2.105 . S
Sc902 O918 2.105 . S
Sc902 O921 2.105 . S
Sc903 O905 2.025 . S
Sc903 O913 2.105 . S
Sc903 O917 2.105 . S
Sc903 O919 2.105 . S
Sc903 O923 2.105 . S
Sc904 O905 2.025 . S
Sc904 O914 2.105 . S
Sc904 O916 2.105 . S
Sc904 O920 2.105 . S
Sc904 O922 2.105 . S
O905 Sc902 2.025 . S
O905 Sc903 2.025 . S
O905 Sc904 2.025 . S
C906 O912 1.268 . S
C906 O922 1.268 . S
C907 O913 1.268 . S
C907 O921 1.268 . S
C908 O914 1.268 . S
C908 O923 1.268 . S
C909 O915 1.268 . S
C909 O919 1.268 . S
C910 O916 1.268 . S
C910 O918 1.268 . S
C911 O917 1.268 . S
C911 O920 1.268 . S
O912 Sc902 2.105 . S
O912 C906 1.268 . S
O913 Sc903 2.105 . S
O913 C907 1.268 . S
O914 Sc904 2.105 . S
O914 C908 1.268 . S
O915 Sc902 2.105 . S
O915 C909 1.268 . S
O916 Sc904 2.105 . S
O916 C910 1.268 . S
O917 Sc903 2.105 . S
O917 C911 1.268 . S
O918 Sc902 2.105 . S
O918 C910 1.268 . S
O919 Sc903 2.105 . S
O919 C909 1.268 . S
O920 Sc904 2.105 . S
O920 C911 1.268 . S
O921 Sc902 2.105 . S
O921 C907 1.268 . S
O922 Sc904 2.105 . S
O922 C906 1.268 . S
O923 Sc903 2.105 . S
O923 C908 1.268 . S
Sc924 O927 2.025 . S
Sc924 O934 2.105 . S
Sc924 O937 2.105 . S
Sc924 O940 2.105 . S
Sc924 O943 2.105 . S
Sc925 O927 2.025 . S
Sc925 O935 2.105 . S
Sc925 O939 2.105 . S
Sc925 O941 2.105 . S
Sc925 O945 2.105 . S
Sc926 O927 2.025 . S
Sc926 O936 2.105 . S
Sc926 O938 2.105 . S
Sc926 O942 2.105 . S
Sc926 O944 2.105 . S
O927 Sc924 2.025 . S
O927 Sc925 2.025 . S
O927 Sc926 2.025 . S
C928 O934 1.268 . S
C928 O944 1.268 . S
C929 O935 1.268 . S
C929 O943 1.268 . S
C930 O936 1.268 . S
C930 O945 1.268 . S
C931 O937 1.268 . S
C931 O941 1.268 . S
C932 O938 1.268 . S
C932 O940 1.268 . S
C933 O939 1.268 . S
C933 O942 1.268 . S
O934 Sc924 2.105 . S
O934 C928 1.268 . S
O935 Sc925 2.105 . S
O935 C929 1.268 . S
O936 Sc926 2.105 . S
O936 C930 1.268 . S
O937 Sc924 2.105 . S
O937 C931 1.268 . S
O938 Sc926 2.105 . S
O938 C932 1.268 . S
O939 Sc925 2.105 . S
O939 C933 1.268 . S
O940 Sc924 2.105 . S
O940 C932 1.268 . S
O941 Sc925 2.105 . S
O941 C931 1.268 . S
O942 Sc926 2.105 . S
O942 C933 1.268 . S
O943 Sc924 2.105 . S
O943 C929 1.268 . S
O944 Sc926 2.105 . S
O944 C928 1.268 . S
O945 Sc925 2.105 . S
O945 C930 1.268 . S
Sc946 O949 2.025 . S
Sc946 O956 2.105 . S
Sc946 O959 2.105 . S
Sc946 O962 2.105 . S
Sc946 O965 2.105 . S
Sc947 O949 2.025 . S
Sc947 O957 2.105 . S
Sc947 O961 2.105 . S
Sc947 O963 2.105 . S
Sc947 O967 2.105 . S
Sc948 O949 2.025 . S
Sc948 O958 2.105 . S
Sc948 O960 2.105 . S
Sc948 O964 2.105 . S
Sc948 O966 2.105 . S
O949 Sc946 2.025 . S
O949 Sc947 2.025 . S
O949 Sc948 2.025 . S
C950 O956 1.268 . S
C950 O966 1.268 . S
C951 O957 1.268 . S
C951 O965 1.268 . S
C952 O958 1.268 . S
C952 O967 1.268 . S
C953 O959 1.268 . S
C953 O963 1.268 . S
C954 O960 1.268 . S
C954 O962 1.268 . S
C955 O961 1.268 . S
C955 O964 1.268 . S
O956 Sc946 2.105 . S
O956 C950 1.268 . S
O957 Sc947 2.105 . S
O957 C951 1.268 . S
O958 Sc948 2.105 . S
O958 C952 1.268 . S
O959 Sc946 2.105 . S
O959 C953 1.268 . S
O960 Sc948 2.105 . S
O960 C954 1.268 . S
O961 Sc947 2.105 . S
O961 C955 1.268 . S
O962 Sc946 2.105 . S
O962 C954 1.268 . S
O963 Sc947 2.105 . S
O963 C953 1.268 . S
O964 Sc948 2.105 . S
O964 C955 1.268 . S
O965 Sc946 2.105 . S
O965 C951 1.268 . S
O966 Sc948 2.105 . S
O966 C950 1.268 . S
O967 Sc947 2.105 . S
O967 C952 1.268 . S
Sc968 O971 2.025 . S
Sc968 O978 2.105 . S
Sc968 O981 2.105 . S
Sc968 O984 2.105 . S
Sc968 O987 2.105 . S
Sc969 O971 2.025 . S
Sc969 O979 2.105 . S
Sc969 O983 2.105 . S
Sc969 O985 2.105 . S
Sc969 O989 2.105 . S
Sc970 O971 2.025 . S
Sc970 O980 2.105 . S
Sc970 O982 2.105 . S
Sc970 O986 2.105 . S
Sc970 O988 2.105 . S
O971 Sc968 2.025 . S
O971 Sc969 2.025 . S
O971 Sc970 2.025 . S
C972 O978 1.268 . S
C972 O988 1.268 . S
C973 O979 1.268 . S
C973 O987 1.268 . S
C974 O980 1.268 . S
C974 O989 1.268 . S
C975 O981 1.268 . S
C975 O985 1.268 . S
C976 O982 1.268 . S
C976 O984 1.268 . S
C977 O983 1.268 . S
C977 O986 1.268 . S
O978 Sc968 2.105 . S
O978 C972 1.268 . S
O979 Sc969 2.105 . S
O979 C973 1.268 . S
O980 Sc970 2.105 . S
O980 C974 1.268 . S
O981 Sc968 2.105 . S
O981 C975 1.268 . S
O982 Sc970 2.105 . S
O982 C976 1.268 . S
O983 Sc969 2.105 . S
O983 C977 1.268 . S
O984 Sc968 2.105 . S
O984 C976 1.268 . S
O985 Sc969 2.105 . S
O985 C975 1.268 . S
O986 Sc970 2.105 . S
O986 C977 1.268 . S
O987 Sc968 2.105 . S
O987 C973 1.268 . S
O988 Sc970 2.105 . S
O988 C972 1.268 . S
O989 Sc969 2.105 . S
O989 C974 1.268 . S
Sc990 O993 2.025 . S
Sc990 O1000 2.105 . S
Sc990 O1003 2.105 . S
Sc990 O1006 2.105 . S
Sc990 O1009 2.105 . S
Sc991 O993 2.025 . S
Sc991 O1001 2.105 . S
Sc991 O1005 2.105 . S
Sc991 O1007 2.105 . S
Sc991 O1011 2.105 . S
Sc992 O993 2.025 . S
Sc992 O1002 2.105 . S
Sc992 O1004 2.105 . S
Sc992 O1008 2.105 . S
Sc992 O1010 2.105 . S
O993 Sc990 2.025 . S
O993 Sc991 2.025 . S
O993 Sc992 2.025 . S
C994 O1000 1.268 . S
C994 O1010 1.268 . S
C995 O1001 1.268 . S
C995 O1009 1.268 . S
C996 O1002 1.268 . S
C996 O1011 1.268 . S
C997 O1003 1.268 . S
C997 O1007 1.268 . S
C998 O1004 1.268 . S
C998 O1006 1.268 . S
C999 O1005 1.268 . S
C999 O1008 1.268 . S
O1000 Sc990 2.105 . S
O1000 C994 1.268 . S
O1001 Sc991 2.105 . S
O1001 C995 1.268 . S
O1002 Sc992 2.105 . S
O1002 C996 1.268 . S
O1003 Sc990 2.105 . S
O1003 C997 1.268 . S
O1004 Sc992 2.105 . S
O1004 C998 1.268 . S
O1005 Sc991 2.105 . S
O1005 C999 1.268 . S
O1006 Sc990 2.105 . S
O1006 C998 1.268 . S
O1007 Sc991 2.105 . S
O1007 C997 1.268 . S
O1008 Sc992 2.105 . S
O1008 C999 1.268 . S
O1009 Sc990 2.105 . S
O1009 C995 1.268 . S
O1010 Sc992 2.105 . S
O1010 C994 1.268 . S
O1011 Sc991 2.105 . S
O1011 C996 1.268 . S
Sc1012 O1015 2.025 . S
Sc1012 O1022 2.105 . S
Sc1012 O1025 2.105 . S
Sc1012 O1028 2.105 . S
Sc1012 O1031 2.105 . S
Sc1013 O1015 2.025 . S
Sc1013 O1023 2.105 . S
Sc1013 O1027 2.105 . S
Sc1013 O1029 2.105 . S
Sc1013 O1033 2.105 . S
Sc1014 O1015 2.025 . S
Sc1014 O1024 2.105 . S
Sc1014 O1026 2.105 . S
Sc1014 O1030 2.105 . S
Sc1014 O1032 2.105 . S
O1015 Sc1012 2.025 . S
O1015 Sc1013 2.025 . S
O1015 Sc1014 2.025 . S
C1016 O1022 1.268 . S
C1016 O1032 1.268 . S
C1017 O1023 1.268 . S
C1017 O1031 1.268 . S
C1018 O1024 1.268 . S
C1018 O1033 1.268 . S
C1019 O1025 1.268 . S
C1019 O1029 1.268 . S
C1020 O1026 1.268 . S
C1020 O1028 1.268 . S
C1021 O1027 1.268 . S
C1021 O1030 1.268 . S
O1022 Sc1012 2.105 . S
O1022 C1016 1.268 . S
O1023 Sc1013 2.105 . S
O1023 C1017 1.268 . S
O1024 Sc1014 2.105 . S
O1024 C1018 1.268 . S
O1025 Sc1012 2.105 . S
O1025 C1019 1.268 . S
O1026 Sc1014 2.105 . S
O1026 C1020 1.268 . S
O1027 Sc1013 2.105 . S
O1027 C1021 1.268 . S
O1028 Sc1012 2.105 . S
O1028 C1020 1.268 . S
O1029 Sc1013 2.105 . S
O1029 C1019 1.268 . S
O1030 Sc1014 2.105 . S
O1030 C1021 1.268 . S
O1031 Sc1012 2.105 . S
O1031 C1017 1.268 . S
O1032 Sc1014 2.105 . S
O1032 C1016 1.268 . S
O1033 Sc1013 2.105 . S
O1033 C1018 1.268 . S
Sc1034 O1037 2.025 . S
Sc1034 O1044 2.105 . S
Sc1034 O1047 2.105 . S
Sc1034 O1050 2.105 . S
Sc1034 O1053 2.105 . S
Sc1035 O1037 2.025 . S
Sc1035 O1045 2.105 . S
Sc1035 O1049 2.105 . S
Sc1035 O1051 2.105 . S
Sc1035 O1055 2.105 . S
Sc1036 O1037 2.025 . S
Sc1036 O1046 2.105 . S
Sc1036 O1048 2.105 . S
Sc1036 O1052 2.105 . S
Sc1036 O1054 2.105 . S
O1037 Sc1034 2.025 . S
O1037 Sc1035 2.025 . S
O1037 Sc1036 2.025 . S
C1038 O1044 1.268 . S
C1038 O1054 1.268 . S
C1039 O1045 1.268 . S
C1039 O1053 1.268 . S
C1040 O1046 1.268 . S
C1040 O1055 1.268 . S
C1041 O1047 1.268 . S
C1041 O1051 1.268 . S
C1042 O1048 1.268 . S
C1042 O1050 1.268 . S
C1043 O1049 1.268 . S
C1043 O1052 1.268 . S
O1044 Sc1034 2.105 . S
O1044 C1038 1.268 . S
O1045 Sc1035 2.105 . S
O1045 C1039 1.268 . S
O1046 Sc1036 2.105 . S
O1046 C1040 1.268 . S
O1047 Sc1034 2.105 . S
O1047 C1041 1.268 . S
O1048 Sc1036 2.105 . S
O1048 C1042 1.268 . S
O1049 Sc1035 2.105 . S
O1049 C1043 1.268 . S
O1050 Sc1034 2.105 . S
O1050 C1042 1.268 . S
O1051 Sc1035 2.105 . S
O1051 C1041 1.268 . S
O1052 Sc1036 2.105 . S
O1052 C1043 1.268 . S
O1053 Sc1034 2.105 . S
O1053 C1039 1.268 . S
O1054 Sc1036 2.105 . S
O1054 C1038 1.268 . S
O1055 Sc1035 2.105 . S
O1055 C1040 1.268 . S
H1056 C1064 0.950 . S
H1057 C1069 0.950 . S
H1058 C1066 0.950 . S
H1059 C1068 0.950 . S
H1060 C1070 0.950 . S
H1061 C1072 0.950 . S
H1062 C1074 0.950 . S
H1063 C1075 0.950 . S
C1064 H1056 0.950 . S
C1064 C1065 1.386 . S
C1064 C1066 1.391 . S
C1065 C1064 1.386 . S
C1065 C1069 1.393 . S
C1066 H1058 0.950 . S
C1066 C1064 1.391 . S
C1066 C1067 1.400 . S
C1067 C1066 1.400 . S
C1067 C1068 1.398 . S
C1067 C1073 1.491 1_545 S
C1068 H1059 0.950 . S
C1068 C1067 1.398 . S
C1068 C1069 1.391 . S
C1069 H1057 0.950 . S
C1069 C1065 1.393 . S
C1069 C1068 1.391 . S
C1070 H1060 0.950 . S
C1070 C1071 1.386 . S
C1070 C1072 1.391 . S
C1071 C1070 1.386 . S
C1071 C1075 1.393 . S
C1072 H1061 0.950 . S
C1072 C1070 1.391 . S
C1072 C1073 1.400 . S
C1073 C1067 1.491 1_565 S
C1073 C1072 1.400 . S
C1073 C1074 1.398 . S
C1074 H1062 0.950 . S
C1074 C1073 1.398 . S
C1074 C1075 1.391 . S
C1075 H1063 0.950 . S
C1075 C1071 1.393 . S
C1075 C1074 1.391 . S
H1076 C1084 0.950 . S
H1077 C1089 0.950 . S
H1078 C1086 0.950 . S
H1079 C1088 0.950 . S
H1080 C1090 0.950 . S
H1081 C1092 0.950 . S
H1082 C1094 0.950 . S
H1083 C1095 0.950 . S
C1084 H1076 0.950 . S
C1084 C1085 1.386 . S
C1084 C1086 1.391 . S
C1085 C1084 1.386 . S
C1085 C1089 1.393 . S
C1086 H1078 0.950 . S
C1086 C1084 1.391 . S
C1086 C1087 1.400 . S
C1087 C1086 1.400 . S
C1087 C1088 1.398 . S
C1087 C1093 1.491 1_455 S
C1088 H1079 0.950 . S
C1088 C1087 1.398 . S
C1088 C1089 1.391 . S
C1089 H1077 0.950 . S
C1089 C1085 1.393 . S
C1089 C1088 1.391 . S
C1090 H1080 0.950 . S
C1090 C1091 1.386 . S
C1090 C1092 1.391 . S
C1091 C1090 1.386 . S
C1091 C1095 1.393 . S
C1092 H1081 0.950 . S
C1092 C1090 1.391 . S
C1092 C1093 1.400 . S
C1093 C1087 1.491 1_655 S
C1093 C1092 1.400 . S
C1093 C1094 1.398 . S
C1094 H1082 0.950 . S
C1094 C1093 1.398 . S
C1094 C1095 1.391 . S
C1095 H1083 0.950 . S
C1095 C1091 1.393 . S
C1095 C1094 1.391 . S
H1096 C1104 0.950 . S
H1097 C1109 0.950 . S
H1098 C1106 0.950 . S
H1099 C1108 0.950 . S
H1100 C1110 0.950 . S
H1101 C1112 0.950 . S
H1102 C1114 0.950 . S
H1103 C1115 0.950 . S
C1104 H1096 0.950 . S
C1104 C1105 1.386 . S
C1104 C1106 1.391 . S
C1105 C1104 1.386 . S
C1105 C1109 1.393 . S
C1106 H1098 0.950 . S
C1106 C1104 1.391 . S
C1106 C1107 1.400 . S
C1107 C1106 1.400 . S
C1107 C1108 1.398 . S
C1107 C1113 1.491 1_545 S
C1108 H1099 0.950 . S
C1108 C1107 1.398 . S
C1108 C1109 1.391 . S
C1109 H1097 0.950 . S
C1109 C1105 1.393 . S
C1109 C1108 1.391 . S
C1110 H1100 0.950 . S
C1110 C1111 1.386 . S
C1110 C1112 1.391 . S
C1111 C1110 1.386 . S
C1111 C1115 1.393 . S
C1112 H1101 0.950 . S
C1112 C1110 1.391 . S
C1112 C1113 1.400 . S
C1113 C1107 1.491 1_565 S
C1113 C1112 1.400 . S
C1113 C1114 1.398 . S
C1114 H1102 0.950 . S
C1114 C1113 1.398 . S
C1114 C1115 1.391 . S
C1115 H1103 0.950 . S
C1115 C1111 1.393 . S
C1115 C1114 1.391 . S
H1116 C1124 0.950 . S
H1117 C1129 0.950 . S
H1118 C1126 0.950 . S
H1119 C1128 0.950 . S
H1120 C1130 0.950 . S
H1121 C1132 0.950 . S
H1122 C1134 0.950 . S
H1123 C1135 0.950 . S
C1124 H1116 0.950 . S
C1124 C1125 1.386 . S
C1124 C1126 1.391 . S
C1125 C1124 1.386 . S
C1125 C1129 1.393 . S
C1126 H1118 0.950 . S
C1126 C1124 1.391 . S
C1126 C1127 1.400 . S
C1127 C1126 1.400 . S
C1127 C1128 1.398 . S
C1127 C1133 1.491 1_655 S
C1128 H1119 0.950 . S
C1128 C1127 1.398 . S
C1128 C1129 1.391 . S
C1129 H1117 0.950 . S
C1129 C1125 1.393 . S
C1129 C1128 1.391 . S
C1130 H1120 0.950 . S
C1130 C1131 1.386 . S
C1130 C1132 1.391 . S
C1131 C1130 1.386 . S
C1131 C1135 1.393 . S
C1132 H1121 0.950 . S
C1132 C1130 1.391 . S
C1132 C1133 1.400 . S
C1133 C1127 1.491 1_455 S
C1133 C1132 1.400 . S
C1133 C1134 1.398 . S
C1134 H1122 0.950 . S
C1134 C1133 1.398 . S
C1134 C1135 1.391 . S
C1135 H1123 0.950 . S
C1135 C1131 1.393 . S
C1135 C1134 1.391 . S
H1136 C1144 0.950 . S
H1137 C1149 0.950 . S
H1138 C1146 0.950 . S
H1139 C1148 0.950 . S
H1140 C1150 0.950 . S
H1141 C1152 0.950 . S
H1142 C1154 0.950 . S
H1143 C1155 0.950 . S
C1144 H1136 0.950 . S
C1144 C1145 1.386 . S
C1144 C1146 1.391 . S
C1145 C1144 1.386 . S
C1145 C1149 1.393 . S
C1146 H1138 0.950 . S
C1146 C1144 1.391 . S
C1146 C1147 1.400 . S
C1147 C1146 1.400 . S
C1147 C1148 1.398 . S
C1147 C1153 1.491 1_565 S
C1148 H1139 0.950 . S
C1148 C1147 1.398 . S
C1148 C1149 1.391 . S
C1149 H1137 0.950 . S
C1149 C1145 1.393 . S
C1149 C1148 1.391 . S
C1150 H1140 0.950 . S
C1150 C1151 1.386 . S
C1150 C1152 1.391 . S
C1151 C1150 1.386 . S
C1151 C1155 1.393 . S
C1152 H1141 0.950 . S
C1152 C1150 1.391 . S
C1152 C1153 1.400 . S
C1153 C1147 1.491 1_545 S
C1153 C1152 1.400 . S
C1153 C1154 1.398 . S
C1154 H1142 0.950 . S
C1154 C1153 1.398 . S
C1154 C1155 1.391 . S
C1155 H1143 0.950 . S
C1155 C1151 1.393 . S
C1155 C1154 1.391 . S
H1156 C1164 0.950 . S
H1157 C1169 0.950 . S
H1158 C1166 0.950 . S
H1159 C1168 0.950 . S
H1160 C1170 0.950 . S
H1161 C1172 0.950 . S
H1162 C1174 0.950 . S
H1163 C1175 0.950 . S
C1164 H1156 0.950 . S
C1164 C1165 1.386 . S
C1164 C1166 1.391 . S
C1165 C1164 1.386 . S
C1165 C1169 1.393 . S
C1166 H1158 0.950 . S
C1166 C1164 1.391 . S
C1166 C1167 1.400 . S
C1167 C1166 1.400 . S
C1167 C1168 1.398 . S
C1167 C1173 1.491 1_455 S
C1168 H1159 0.950 . S
C1168 C1167 1.398 . S
C1168 C1169 1.391 . S
C1169 H1157 0.950 . S
C1169 C1165 1.393 . S
C1169 C1168 1.391 . S
C1170 H1160 0.950 . S
C1170 C1171 1.386 . S
C1170 C1172 1.391 . S
C1171 C1170 1.386 . S
C1171 C1175 1.393 . S
C1172 H1161 0.950 . S
C1172 C1170 1.391 . S
C1172 C1173 1.400 . S
C1173 C1167 1.491 1_655 S
C1173 C1172 1.400 . S
C1173 C1174 1.398 . S
C1174 H1162 0.950 . S
C1174 C1173 1.398 . S
C1174 C1175 1.391 . S
C1175 H1163 0.950 . S
C1175 C1171 1.393 . S
C1175 C1174 1.391 . S
H1176 C1184 0.950 . S
H1177 C1189 0.950 . S
H1178 C1186 0.950 . S
H1179 C1188 0.950 . S
H1180 C1190 0.950 . S
H1181 C1192 0.950 . S
H1182 C1194 0.950 . S
H1183 C1195 0.950 . S
C1184 H1176 0.950 . S
C1184 C1185 1.386 . S
C1184 C1186 1.391 . S
C1185 C1184 1.386 . S
C1185 C1189 1.393 . S
C1186 H1178 0.950 . S
C1186 C1184 1.391 . S
C1186 C1187 1.400 . S
C1187 C1186 1.400 . S
C1187 C1188 1.398 . S
C1187 C1193 1.491 1_545 S
C1188 H1179 0.950 . S
C1188 C1187 1.398 . S
C1188 C1189 1.391 . S
C1189 H1177 0.950 . S
C1189 C1185 1.393 . S
C1189 C1188 1.391 . S
C1190 H1180 0.950 . S
C1190 C1191 1.386 . S
C1190 C1192 1.391 . S
C1191 C1190 1.386 . S
C1191 C1195 1.393 . S
C1192 H1181 0.950 . S
C1192 C1190 1.391 . S
C1192 C1193 1.400 . S
C1193 C1187 1.491 1_565 S
C1193 C1192 1.400 . S
C1193 C1194 1.398 . S
C1194 H1182 0.950 . S
C1194 C1193 1.398 . S
C1194 C1195 1.391 . S
C1195 H1183 0.950 . S
C1195 C1191 1.393 . S
C1195 C1194 1.391 . S
H1196 C1204 0.950 . S
H1197 C1209 0.950 . S
H1198 C1206 0.950 . S
H1199 C1208 0.950 . S
H1200 C1210 0.950 . S
H1201 C1212 0.950 . S
H1202 C1214 0.950 . S
H1203 C1215 0.950 . S
C1204 H1196 0.950 . S
C1204 C1205 1.386 . S
C1204 C1206 1.391 . S
C1205 C1204 1.386 . S
C1205 C1209 1.393 . S
C1206 H1198 0.950 . S
C1206 C1204 1.391 . S
C1206 C1207 1.400 . S
C1207 C1206 1.400 . S
C1207 C1208 1.398 . S
C1207 C1213 1.491 1_655 S
C1208 H1199 0.950 . S
C1208 C1207 1.398 . S
C1208 C1209 1.391 . S
C1209 H1197 0.950 . S
C1209 C1205 1.393 . S
C1209 C1208 1.391 . S
C1210 H1200 0.950 . S
C1210 C1211 1.386 . S
C1210 C1212 1.391 . S
C1211 C1210 1.386 . S
C1211 C1215 1.393 . S
C1212 H1201 0.950 . S
C1212 C1210 1.391 . S
C1212 C1213 1.400 . S
C1213 C1207 1.491 1_455 S
C1213 C1212 1.400 . S
C1213 C1214 1.398 . S
C1214 H1202 0.950 . S
C1214 C1213 1.398 . S
C1214 C1215 1.391 . S
C1215 H1203 0.950 . S
C1215 C1211 1.393 . S
C1215 C1214 1.391 . S
H1216 C1224 0.950 . S
H1217 C1229 0.950 . S
H1218 C1226 0.950 . S
H1219 C1228 0.950 . S
H1220 C1230 0.950 . S
H1221 C1232 0.950 . S
H1222 C1234 0.950 . S
H1223 C1235 0.950 . S
C1224 H1216 0.950 . S
C1224 C1225 1.386 . S
C1224 C1226 1.391 . S
C1225 C1224 1.386 . S
C1225 C1229 1.393 . S
C1226 H1218 0.950 . S
C1226 C1224 1.391 . S
C1226 C1227 1.400 . S
C1227 C1226 1.400 . S
C1227 C1228 1.398 . S
C1227 C1233 1.491 1_554 S
C1228 H1219 0.950 . S
C1228 C1227 1.398 . S
C1228 C1229 1.391 . S
C1229 H1217 0.950 . S
C1229 C1225 1.393 . S
C1229 C1228 1.391 . S
C1230 H1220 0.950 . S
C1230 C1231 1.386 . S
C1230 C1232 1.391 . S
C1231 C1230 1.386 . S
C1231 C1235 1.393 . S
C1232 H1221 0.950 . S
C1232 C1230 1.391 . S
C1232 C1233 1.400 . S
C1233 C1227 1.491 1_556 S
C1233 C1232 1.400 . S
C1233 C1234 1.398 . S
C1234 H1222 0.950 . S
C1234 C1233 1.398 . S
C1234 C1235 1.391 . S
C1235 H1223 0.950 . S
C1235 C1231 1.393 . S
C1235 C1234 1.391 . S
H1236 C1244 0.950 . S
H1237 C1249 0.950 . S
H1238 C1246 0.950 . S
H1239 C1248 0.950 . S
H1240 C1250 0.950 . S
H1241 C1252 0.950 . S
H1242 C1254 0.950 . S
H1243 C1255 0.950 . S
C1244 H1236 0.950 . S
C1244 C1245 1.386 . S
C1244 C1246 1.391 . S
C1245 C1244 1.386 . S
C1245 C1249 1.393 . S
C1246 H1238 0.950 . S
C1246 C1244 1.391 . S
C1246 C1247 1.400 . S
C1247 C1246 1.400 . S
C1247 C1248 1.398 . S
C1247 C1253 1.491 1_556 S
C1248 H1239 0.950 . S
C1248 C1247 1.398 . S
C1248 C1249 1.391 . S
C1249 H1237 0.950 . S
C1249 C1245 1.393 . S
C1249 C1248 1.391 . S
C1250 H1240 0.950 . S
C1250 C1251 1.386 . S
C1250 C1252 1.391 . S
C1251 C1250 1.386 . S
C1251 C1255 1.393 . S
C1252 H1241 0.950 . S
C1252 C1250 1.391 . S
C1252 C1253 1.400 . S
C1253 C1247 1.491 1_554 S
C1253 C1252 1.400 . S
C1253 C1254 1.398 . S
C1254 H1242 0.950 . S
C1254 C1253 1.398 . S
C1254 C1255 1.391 . S
C1255 H1243 0.950 . S
C1255 C1251 1.393 . S
C1255 C1254 1.391 . S
H1256 C1264 0.950 . S
H1257 C1269 0.950 . S
H1258 C1266 0.950 . S
H1259 C1268 0.950 . S
H1260 C1270 0.950 . S
H1261 C1272 0.950 . S
H1262 C1274 0.950 . S
H1263 C1275 0.950 . S
C1264 H1256 0.950 . S
C1264 C1265 1.386 . S
C1264 C1266 1.391 . S
C1265 C1264 1.386 . S
C1265 C1269 1.393 . S
C1266 H1258 0.950 . S
C1266 C1264 1.391 . S
C1266 C1267 1.400 . S
C1267 C1266 1.400 . S
C1267 C1268 1.398 . S
C1267 C1273 1.491 1_556 S
C1268 H1259 0.950 . S
C1268 C1267 1.398 . S
C1268 C1269 1.391 . S
C1269 H1257 0.950 . S
C1269 C1265 1.393 . S
C1269 C1268 1.391 . S
C1270 H1260 0.950 . S
C1270 C1271 1.386 . S
C1270 C1272 1.391 . S
C1271 C1270 1.386 . S
C1271 C1275 1.393 . S
C1272 H1261 0.950 . S
C1272 C1270 1.391 . S
C1272 C1273 1.400 . S
C1273 C1267 1.491 1_554 S
C1273 C1272 1.400 . S
C1273 C1274 1.398 . S
C1274 H1262 0.950 . S
C1274 C1273 1.398 . S
C1274 C1275 1.391 . S
C1275 H1263 0.950 . S
C1275 C1271 1.393 . S
C1275 C1274 1.391 . S
H1276 C1284 0.950 . S
H1277 C1289 0.950 . S
H1278 C1286 0.950 . S
H1279 C1288 0.950 . S
H1280 C1290 0.950 . S
H1281 C1292 0.950 . S
H1282 C1294 0.950 . S
H1283 C1295 0.950 . S
C1284 H1276 0.950 . S
C1284 C1285 1.386 . S
C1284 C1286 1.391 . S
C1285 C1284 1.386 . S
C1285 C1289 1.393 . S
C1286 H1278 0.950 . S
C1286 C1284 1.391 . S
C1286 C1287 1.400 . S
C1287 C1286 1.400 . S
C1287 C1288 1.398 . S
C1287 C1293 1.491 1_556 S
C1288 H1279 0.950 . S
C1288 C1287 1.398 . S
C1288 C1289 1.391 . S
C1289 H1277 0.950 . S
C1289 C1285 1.393 . S
C1289 C1288 1.391 . S
C1290 H1280 0.950 . S
C1290 C1291 1.386 . S
C1290 C1292 1.391 . S
C1291 C1290 1.386 . S
C1291 C1295 1.393 . S
C1292 H1281 0.950 . S
C1292 C1290 1.391 . S
C1292 C1293 1.400 . S
C1293 C1287 1.491 1_554 S
C1293 C1292 1.400 . S
C1293 C1294 1.398 . S
C1294 H1282 0.950 . S
C1294 C1293 1.398 . S
C1294 C1295 1.391 . S
C1295 H1283 0.950 . S
C1295 C1291 1.393 . S
C1295 C1294 1.391 . S
H1296 C1304 0.950 . S
H1297 C1309 0.950 . S
H1298 C1306 0.950 . S
H1299 C1308 0.950 . S
H1300 C1310 0.950 . S
H1301 C1312 0.950 . S
H1302 C1314 0.950 . S
H1303 C1315 0.950 . S
C1304 H1296 0.950 . S
C1304 C1305 1.386 . S
C1304 C1306 1.391 . S
C1305 C1304 1.386 . S
C1305 C1309 1.393 . S
C1306 H1298 0.950 . S
C1306 C1304 1.391 . S
C1306 C1307 1.400 . S
C1307 C1306 1.400 . S
C1307 C1308 1.398 . S
C1307 C1313 1.491 1_556 S
C1308 H1299 0.950 . S
C1308 C1307 1.398 . S
C1308 C1309 1.391 . S
C1309 H1297 0.950 . S
C1309 C1305 1.393 . S
C1309 C1308 1.391 . S
C1310 H1300 0.950 . S
C1310 C1311 1.386 . S
C1310 C1312 1.391 . S
C1311 C1310 1.386 . S
C1311 C1315 1.393 . S
C1312 H1301 0.950 . S
C1312 C1310 1.391 . S
C1312 C1313 1.400 . S
C1313 C1307 1.491 1_554 S
C1313 C1312 1.400 . S
C1313 C1314 1.398 . S
C1314 H1302 0.950 . S
C1314 C1313 1.398 . S
C1314 C1315 1.391 . S
C1315 H1303 0.950 . S
C1315 C1311 1.393 . S
C1315 C1314 1.391 . S
H1316 C1324 0.950 . S
H1317 C1329 0.950 . S
H1318 C1326 0.950 . S
H1319 C1328 0.950 . S
H1320 C1330 0.950 . S
H1321 C1332 0.950 . S
H1322 C1334 0.950 . S
H1323 C1335 0.950 . S
C1324 H1316 0.950 . S
C1324 C1325 1.386 . S
C1324 C1326 1.391 . S
C1325 C1324 1.386 . S
C1325 C1329 1.393 . S
C1326 H1318 0.950 . S
C1326 C1324 1.391 . S
C1326 C1327 1.400 . S
C1327 C1326 1.400 . S
C1327 C1328 1.398 . S
C1327 C1333 1.491 1_556 S
C1328 H1319 0.950 . S
C1328 C1327 1.398 . S
C1328 C1329 1.391 . S
C1329 H1317 0.950 . S
C1329 C1325 1.393 . S
C1329 C1328 1.391 . S
C1330 H1320 0.950 . S
C1330 C1331 1.386 . S
C1330 C1332 1.391 . S
C1331 C1330 1.386 . S
C1331 C1335 1.393 . S
C1332 H1321 0.950 . S
C1332 C1330 1.391 . S
C1332 C1333 1.400 . S
C1333 C1327 1.491 1_554 S
C1333 C1332 1.400 . S
C1333 C1334 1.398 . S
C1334 H1322 0.950 . S
C1334 C1333 1.398 . S
C1334 C1335 1.391 . S
C1335 H1323 0.950 . S
C1335 C1331 1.393 . S
C1335 C1334 1.391 . S
H1336 C1344 0.950 . S
H1337 C1349 0.950 . S
H1338 C1346 0.950 . S
H1339 C1348 0.950 . S
H1340 C1350 0.950 . S
H1341 C1352 0.950 . S
H1342 C1354 0.950 . S
H1343 C1355 0.950 . S
C1344 H1336 0.950 . S
C1344 C1345 1.386 . S
C1344 C1346 1.391 . S
C1345 C1344 1.386 . S
C1345 C1349 1.393 . S
C1346 H1338 0.950 . S
C1346 C1344 1.391 . S
C1346 C1347 1.400 . S
C1347 C1346 1.400 . S
C1347 C1348 1.398 . S
C1347 C1353 1.491 1_556 S
C1348 H1339 0.950 . S
C1348 C1347 1.398 . S
C1348 C1349 1.391 . S
C1349 H1337 0.950 . S
C1349 C1345 1.393 . S
C1349 C1348 1.391 . S
C1350 H1340 0.950 . S
C1350 C1351 1.386 . S
C1350 C1352 1.391 . S
C1351 C1350 1.386 . S
C1351 C1355 1.393 . S
C1352 H1341 0.950 . S
C1352 C1350 1.391 . S
C1352 C1353 1.400 . S
C1353 C1347 1.491 1_554 S
C1353 C1352 1.400 . S
C1353 C1354 1.398 . S
C1354 H1342 0.950 . S
C1354 C1353 1.398 . S
C1354 C1355 1.391 . S
C1355 H1343 0.950 . S
C1355 C1351 1.393 . S
C1355 C1354 1.391 . S
H1356 C1364 0.950 . S
H1357 C1369 0.950 . S
H1358 C1366 0.950 . S
H1359 C1368 0.950 . S
H1360 C1370 0.950 . S
H1361 C1372 0.950 . S
H1362 C1374 0.950 . S
H1363 C1375 0.950 . S
C1364 H1356 0.950 . S
C1364 C1365 1.386 . S
C1364 C1366 1.391 . S
C1365 C1364 1.386 . S
C1365 C1369 1.393 . S
C1366 H1358 0.950 . S
C1366 C1364 1.391 . S
C1366 C1367 1.400 . S
C1367 C1366 1.400 . S
C1367 C1368 1.398 . S
C1367 C1373 1.491 1_556 S
C1368 H1359 0.950 . S
C1368 C1367 1.398 . S
C1368 C1369 1.391 . S
C1369 H1357 0.950 . S
C1369 C1365 1.393 . S
C1369 C1368 1.391 . S
C1370 H1360 0.950 . S
C1370 C1371 1.386 . S
C1370 C1372 1.391 . S
C1371 C1370 1.386 . S
C1371 C1375 1.393 . S
C1372 H1361 0.950 . S
C1372 C1370 1.391 . S
C1372 C1373 1.400 . S
C1373 C1367 1.491 1_554 S
C1373 C1372 1.400 . S
C1373 C1374 1.398 . S
C1374 H1362 0.950 . S
C1374 C1373 1.398 . S
C1374 C1375 1.391 . S
C1375 H1363 0.950 . S
C1375 C1371 1.393 . S
C1375 C1374 1.391 . S
H1376 C1384 0.950 . S
H1377 C1389 0.950 . S
H1378 C1386 0.950 . S
H1379 C1388 0.950 . S
H1380 C1390 0.950 . S
H1381 C1392 0.950 . S
H1382 C1394 0.950 . S
H1383 C1395 0.950 . S
C1384 H1376 0.950 . S
C1384 C1385 1.386 . S
C1384 C1386 1.391 . S
C1385 C1384 1.386 . S
C1385 C1389 1.393 . S
C1386 H1378 0.950 . S
C1386 C1384 1.391 . S
C1386 C1387 1.400 . S
C1387 C1386 1.400 . S
C1387 C1388 1.398 . S
C1387 C1393 1.491 1_655 S
C1388 H1379 0.950 . S
C1388 C1387 1.398 . S
C1388 C1389 1.391 . S
C1389 H1377 0.950 . S
C1389 C1385 1.393 . S
C1389 C1388 1.391 . S
C1390 H1380 0.950 . S
C1390 C1391 1.386 . S
C1390 C1392 1.391 . S
C1391 C1390 1.386 . S
C1391 C1395 1.393 . S
C1392 H1381 0.950 . S
C1392 C1390 1.391 . S
C1392 C1393 1.400 . S
C1393 C1387 1.491 1_455 S
C1393 C1392 1.400 . S
C1393 C1394 1.398 . S
C1394 H1382 0.950 . S
C1394 C1393 1.398 . S
C1394 C1395 1.391 . S
C1395 H1383 0.950 . S
C1395 C1391 1.393 . S
C1395 C1394 1.391 . S
H1396 C1404 0.950 . S
H1397 C1409 0.950 . S
H1398 C1406 0.950 . S
H1399 C1408 0.950 . S
H1400 C1410 0.950 . S
H1401 C1412 0.950 . S
H1402 C1414 0.950 . S
H1403 C1415 0.950 . S
C1404 H1396 0.950 . S
C1404 C1405 1.386 . S
C1404 C1406 1.391 . S
C1405 C1404 1.386 . S
C1405 C1409 1.393 . S
C1406 H1398 0.950 . S
C1406 C1404 1.391 . S
C1406 C1407 1.400 . S
C1407 C1406 1.400 . S
C1407 C1408 1.398 . S
C1407 C1413 1.491 1_455 S
C1408 H1399 0.950 . S
C1408 C1407 1.398 . S
C1408 C1409 1.391 . S
C1409 H1397 0.950 . S
C1409 C1405 1.393 . S
C1409 C1408 1.391 . S
C1410 H1400 0.950 . S
C1410 C1411 1.386 . S
C1410 C1412 1.391 . S
C1411 C1410 1.386 . S
C1411 C1415 1.393 . S
C1412 H1401 0.950 . S
C1412 C1410 1.391 . S
C1412 C1413 1.400 . S
C1413 C1407 1.491 1_655 S
C1413 C1412 1.400 . S
C1413 C1414 1.398 . S
C1414 H1402 0.950 . S
C1414 C1413 1.398 . S
C1414 C1415 1.391 . S
C1415 H1403 0.950 . S
C1415 C1411 1.393 . S
C1415 C1414 1.391 . S
H1416 C1424 0.950 . S
H1417 C1429 0.950 . S
H1418 C1426 0.950 . S
H1419 C1428 0.950 . S
H1420 C1430 0.950 . S
H1421 C1432 0.950 . S
H1422 C1434 0.950 . S
H1423 C1435 0.950 . S
C1424 H1416 0.950 . S
C1424 C1425 1.386 . S
C1424 C1426 1.391 . S
C1425 C1424 1.386 . S
C1425 C1429 1.393 . S
C1426 H1418 0.950 . S
C1426 C1424 1.391 . S
C1426 C1427 1.400 . S
C1427 C1426 1.400 . S
C1427 C1428 1.398 . S
C1427 C1433 1.491 1_545 S
C1428 H1419 0.950 . S
C1428 C1427 1.398 . S
C1428 C1429 1.391 . S
C1429 H1417 0.950 . S
C1429 C1425 1.393 . S
C1429 C1428 1.391 . S
C1430 H1420 0.950 . S
C1430 C1431 1.386 . S
C1430 C1432 1.391 . S
C1431 C1430 1.386 . S
C1431 C1435 1.393 . S
C1432 H1421 0.950 . S
C1432 C1430 1.391 . S
C1432 C1433 1.400 . S
C1433 C1427 1.491 1_565 S
C1433 C1432 1.400 . S
C1433 C1434 1.398 . S
C1434 H1422 0.950 . S
C1434 C1433 1.398 . S
C1434 C1435 1.391 . S
C1435 H1423 0.950 . S
C1435 C1431 1.393 . S
C1435 C1434 1.391 . S
H1436 C1444 0.950 . S
H1437 C1449 0.950 . S
H1438 C1446 0.950 . S
H1439 C1448 0.950 . S
H1440 C1450 0.950 . S
H1441 C1452 0.950 . S
H1442 C1454 0.950 . S
H1443 C1455 0.950 . S
C1444 H1436 0.950 . S
C1444 C1445 1.386 . S
C1444 C1446 1.391 . S
C1445 C1444 1.386 . S
C1445 C1449 1.393 . S
C1446 H1438 0.950 . S
C1446 C1444 1.391 . S
C1446 C1447 1.400 . S
C1447 C1446 1.400 . S
C1447 C1448 1.398 . S
C1447 C1453 1.491 1_655 S
C1448 H1439 0.950 . S
C1448 C1447 1.398 . S
C1448 C1449 1.391 . S
C1449 H1437 0.950 . S
C1449 C1445 1.393 . S
C1449 C1448 1.391 . S
C1450 H1440 0.950 . S
C1450 C1451 1.386 . S
C1450 C1452 1.391 . S
C1451 C1450 1.386 . S
C1451 C1455 1.393 . S
C1452 H1441 0.950 . S
C1452 C1450 1.391 . S
C1452 C1453 1.400 . S
C1453 C1447 1.491 1_455 S
C1453 C1452 1.400 . S
C1453 C1454 1.398 . S
C1454 H1442 0.950 . S
C1454 C1453 1.398 . S
C1454 C1455 1.391 . S
C1455 H1443 0.950 . S
C1455 C1451 1.393 . S
C1455 C1454 1.391 . S
H1456 C1464 0.950 . S
H1457 C1469 0.950 . S
H1458 C1466 0.950 . S
H1459 C1468 0.950 . S
H1460 C1470 0.950 . S
H1461 C1472 0.950 . S
H1462 C1474 0.950 . S
H1463 C1475 0.950 . S
C1464 H1456 0.950 . S
C1464 C1465 1.386 . S
C1464 C1466 1.391 . S
C1465 C1464 1.386 . S
C1465 C1469 1.393 . S
C1466 H1458 0.950 . S
C1466 C1464 1.391 . S
C1466 C1467 1.400 . S
C1467 C1466 1.400 . S
C1467 C1468 1.398 . S
C1467 C1473 1.491 1_565 S
C1468 H1459 0.950 . S
C1468 C1467 1.398 . S
C1468 C1469 1.391 . S
C1469 H1457 0.950 . S
C1469 C1465 1.393 . S
C1469 C1468 1.391 . S
C1470 H1460 0.950 . S
C1470 C1471 1.386 . S
C1470 C1472 1.391 . S
C1471 C1470 1.386 . S
C1471 C1475 1.393 . S
C1472 H1461 0.950 . S
C1472 C1470 1.391 . S
C1472 C1473 1.400 . S
C1473 C1467 1.491 1_545 S
C1473 C1472 1.400 . S
C1473 C1474 1.398 . S
C1474 H1462 0.950 . S
C1474 C1473 1.398 . S
C1474 C1475 1.391 . S
C1475 H1463 0.950 . S
C1475 C1471 1.393 . S
C1475 C1474 1.391 . S
H1476 C1484 0.950 . S
H1477 C1489 0.950 . S
H1478 C1486 0.950 . S
H1479 C1488 0.950 . S
H1480 C1490 0.950 . S
H1481 C1492 0.950 . S
H1482 C1494 0.950 . S
H1483 C1495 0.950 . S
C1484 H1476 0.950 . S
C1484 C1485 1.386 . S
C1484 C1486 1.391 . S
C1485 C1484 1.386 . S
C1485 C1489 1.393 . S
C1486 H1478 0.950 . S
C1486 C1484 1.391 . S
C1486 C1487 1.400 . S
C1487 C1486 1.400 . S
C1487 C1488 1.398 . S
C1487 C1493 1.491 1_455 S
C1488 H1479 0.950 . S
C1488 C1487 1.398 . S
C1488 C1489 1.391 . S
C1489 H1477 0.950 . S
C1489 C1485 1.393 . S
C1489 C1488 1.391 . S
C1490 H1480 0.950 . S
C1490 C1491 1.386 . S
C1490 C1492 1.391 . S
C1491 C1490 1.386 . S
C1491 C1495 1.393 . S
C1492 H1481 0.950 . S
C1492 C1490 1.391 . S
C1492 C1493 1.400 . S
C1493 C1487 1.491 1_655 S
C1493 C1492 1.400 . S
C1493 C1494 1.398 . S
C1494 H1482 0.950 . S
C1494 C1493 1.398 . S
C1494 C1495 1.391 . S
C1495 H1483 0.950 . S
C1495 C1491 1.393 . S
C1495 C1494 1.391 . S
H1496 C1504 0.950 . S
H1497 C1509 0.950 . S
H1498 C1506 0.950 . S
H1499 C1508 0.950 . S
H1500 C1510 0.950 . S
H1501 C1512 0.950 . S
H1502 C1514 0.950 . S
H1503 C1515 0.950 . S
C1504 H1496 0.950 . S
C1504 C1505 1.386 . S
C1504 C1506 1.391 . S
C1505 C1504 1.386 . S
C1505 C1509 1.393 . S
C1506 H1498 0.950 . S
C1506 C1504 1.391 . S
C1506 C1507 1.400 . S
C1507 C1506 1.400 . S
C1507 C1508 1.398 . S
C1507 C1513 1.491 1_565 S
C1508 H1499 0.950 . S
C1508 C1507 1.398 . S
C1508 C1509 1.391 . S
C1509 H1497 0.950 . S
C1509 C1505 1.393 . S
C1509 C1508 1.391 . S
C1510 H1500 0.950 . S
C1510 C1511 1.386 . S
C1510 C1512 1.391 . S
C1511 C1510 1.386 . S
C1511 C1515 1.393 . S
C1512 H1501 0.950 . S
C1512 C1510 1.391 . S
C1512 C1513 1.400 . S
C1513 C1507 1.491 1_545 S
C1513 C1512 1.400 . S
C1513 C1514 1.398 . S
C1514 H1502 0.950 . S
C1514 C1513 1.398 . S
C1514 C1515 1.391 . S
C1515 H1503 0.950 . S
C1515 C1511 1.393 . S
C1515 C1514 1.391 . S
H1516 C1524 0.950 . S
H1517 C1529 0.950 . S
H1518 C1526 0.950 . S
H1519 C1528 0.950 . S
H1520 C1530 0.950 . S
H1521 C1532 0.950 . S
H1522 C1534 0.950 . S
H1523 C1535 0.950 . S
C1524 H1516 0.950 . S
C1524 C1525 1.386 . S
C1524 C1526 1.391 . S
C1525 C1524 1.386 . S
C1525 C1529 1.393 . S
C1526 H1518 0.950 . S
C1526 C1524 1.391 . S
C1526 C1527 1.400 . S
C1527 C1526 1.400 . S
C1527 C1528 1.398 . S
C1527 C1533 1.491 1_545 S
C1528 H1519 0.950 . S
C1528 C1527 1.398 . S
C1528 C1529 1.391 . S
C1529 H1517 0.950 . S
C1529 C1525 1.393 . S
C1529 C1528 1.391 . S
C1530 H1520 0.950 . S
C1530 C1531 1.386 . S
C1530 C1532 1.391 . S
C1531 C1530 1.386 . S
C1531 C1535 1.393 . S
C1532 H1521 0.950 . S
C1532 C1530 1.391 . S
C1532 C1533 1.400 . S
C1533 C1527 1.491 1_565 S
C1533 C1532 1.400 . S
C1533 C1534 1.398 . S
C1534 H1522 0.950 . S
C1534 C1533 1.398 . S
C1534 C1535 1.391 . S
C1535 H1523 0.950 . S
C1535 C1531 1.393 . S
C1535 C1534 1.391 . S
H1536 C1544 0.950 . S
H1537 C1549 0.950 . S
H1538 C1546 0.950 . S
H1539 C1548 0.950 . S
H1540 C1550 0.950 . S
H1541 C1552 0.950 . S
H1542 C1554 0.950 . S
H1543 C1555 0.950 . S
C1544 H1536 0.950 . S
C1544 C1545 1.386 . S
C1544 C1546 1.391 . S
C1545 C1544 1.386 . S
C1545 C1549 1.393 . S
C1546 H1538 0.950 . S
C1546 C1544 1.391 . S
C1546 C1547 1.400 . S
C1547 C1546 1.400 . S
C1547 C1548 1.398 . S
C1547 C1553 1.491 . S
C1548 H1539 0.950 . S
C1548 C1547 1.398 . S
C1548 C1549 1.391 . S
C1549 H1537 0.950 . S
C1549 C1545 1.393 . S
C1549 C1548 1.391 . S
C1550 H1540 0.950 . S
C1550 C1551 1.386 . S
C1550 C1552 1.391 . S
C1551 C1550 1.386 . S
C1551 C1555 1.393 . S
C1552 H1541 0.950 . S
C1552 C1550 1.391 . S
C1552 C1553 1.400 . S
C1553 C1547 1.491 . S
C1553 C1552 1.400 . S
C1553 C1554 1.398 . S
C1554 H1542 0.950 . S
C1554 C1553 1.398 . S
C1554 C1555 1.391 . S
C1555 H1543 0.950 . S
C1555 C1551 1.393 . S
C1555 C1554 1.391 . S
H1556 C1564 0.950 . S
H1557 C1569 0.950 . S
H1558 C1566 0.950 . S
H1559 C1568 0.950 . S
H1560 C1570 0.950 . S
H1561 C1572 0.950 . S
H1562 C1574 0.950 . S
H1563 C1575 0.950 . S
C1564 H1556 0.950 . S
C1564 C1565 1.386 . S
C1564 C1566 1.391 . S
C1565 C1564 1.386 . S
C1565 C1569 1.393 . S
C1566 H1558 0.950 . S
C1566 C1564 1.391 . S
C1566 C1567 1.400 . S
C1567 C1566 1.400 . S
C1567 C1568 1.398 . S
C1567 C1573 1.491 . S
C1568 H1559 0.950 . S
C1568 C1567 1.398 . S
C1568 C1569 1.391 . S
C1569 H1557 0.950 . S
C1569 C1565 1.393 . S
C1569 C1568 1.391 . S
C1570 H1560 0.950 . S
C1570 C1571 1.386 . S
C1570 C1572 1.391 . S
C1571 C1570 1.386 . S
C1571 C1575 1.393 . S
C1572 H1561 0.950 . S
C1572 C1570 1.391 . S
C1572 C1573 1.400 . S
C1573 C1567 1.491 . S
C1573 C1572 1.400 . S
C1573 C1574 1.398 . S
C1574 H1562 0.950 . S
C1574 C1573 1.398 . S
C1574 C1575 1.391 . S
C1575 H1563 0.950 . S
C1575 C1571 1.393 . S
C1575 C1574 1.391 . S
H1576 C1584 0.950 . S
H1577 C1589 0.950 . S
H1578 C1586 0.950 . S
H1579 C1588 0.950 . S
H1580 C1590 0.950 . S
H1581 C1592 0.950 . S
H1582 C1594 0.950 . S
H1583 C1595 0.950 . S
C1584 H1576 0.950 . S
C1584 C1585 1.386 . S
C1584 C1586 1.391 . S
C1585 C1584 1.386 . S
C1585 C1589 1.393 . S
C1586 H1578 0.950 . S
C1586 C1584 1.391 . S
C1586 C1587 1.400 . S
C1587 C1586 1.400 . S
C1587 C1588 1.398 . S
C1587 C1593 1.491 . S
C1588 H1579 0.950 . S
C1588 C1587 1.398 . S
C1588 C1589 1.391 . S
C1589 H1577 0.950 . S
C1589 C1585 1.393 . S
C1589 C1588 1.391 . S
C1590 H1580 0.950 . S
C1590 C1591 1.386 . S
C1590 C1592 1.391 . S
C1591 C1590 1.386 . S
C1591 C1595 1.393 . S
C1592 H1581 0.950 . S
C1592 C1590 1.391 . S
C1592 C1593 1.400 . S
C1593 C1587 1.491 . S
C1593 C1592 1.400 . S
C1593 C1594 1.398 . S
C1594 H1582 0.950 . S
C1594 C1593 1.398 . S
C1594 C1595 1.391 . S
C1595 H1583 0.950 . S
C1595 C1591 1.393 . S
C1595 C1594 1.391 . S
H1596 C1604 0.950 . S
H1597 C1609 0.950 . S
H1598 C1606 0.950 . S
H1599 C1608 0.950 . S
H1600 C1610 0.950 . S
H1601 C1612 0.950 . S
H1602 C1614 0.950 . S
H1603 C1615 0.950 . S
C1604 H1596 0.950 . S
C1604 C1605 1.386 . S
C1604 C1606 1.391 . S
C1605 C1604 1.386 . S
C1605 C1609 1.393 . S
C1606 H1598 0.950 . S
C1606 C1604 1.391 . S
C1606 C1607 1.400 . S
C1607 C1606 1.400 . S
C1607 C1608 1.398 . S
C1607 C1613 1.491 . S
C1608 H1599 0.950 . S
C1608 C1607 1.398 . S
C1608 C1609 1.391 . S
C1609 H1597 0.950 . S
C1609 C1605 1.393 . S
C1609 C1608 1.391 . S
C1610 H1600 0.950 . S
C1610 C1611 1.386 . S
C1610 C1612 1.391 . S
C1611 C1610 1.386 . S
C1611 C1615 1.393 . S
C1612 H1601 0.950 . S
C1612 C1610 1.391 . S
C1612 C1613 1.400 . S
C1613 C1607 1.491 . S
C1613 C1612 1.400 . S
C1613 C1614 1.398 . S
C1614 H1602 0.950 . S
C1614 C1613 1.398 . S
C1614 C1615 1.391 . S
C1615 H1603 0.950 . S
C1615 C1611 1.393 . S
C1615 C1614 1.391 . S
H1616 C1624 0.950 . S
H1617 C1629 0.950 . S
H1618 C1626 0.950 . S
H1619 C1628 0.950 . S
H1620 C1630 0.950 . S
H1621 C1632 0.950 . S
H1622 C1634 0.950 . S
H1623 C1635 0.950 . S
C1624 H1616 0.950 . S
C1624 C1625 1.386 . S
C1624 C1626 1.391 . S
C1625 C1624 1.386 . S
C1625 C1629 1.393 . S
C1626 H1618 0.950 . S
C1626 C1624 1.391 . S
C1626 C1627 1.400 . S
C1627 C1626 1.400 . S
C1627 C1628 1.398 . S
C1627 C1633 1.491 . S
C1628 H1619 0.950 . S
C1628 C1627 1.398 . S
C1628 C1629 1.391 . S
C1629 H1617 0.950 . S
C1629 C1625 1.393 . S
C1629 C1628 1.391 . S
C1630 H1620 0.950 . S
C1630 C1631 1.386 . S
C1630 C1632 1.391 . S
C1631 C1630 1.386 . S
C1631 C1635 1.393 . S
C1632 H1621 0.950 . S
C1632 C1630 1.391 . S
C1632 C1633 1.400 . S
C1633 C1627 1.491 . S
C1633 C1632 1.400 . S
C1633 C1634 1.398 . S
C1634 H1622 0.950 . S
C1634 C1633 1.398 . S
C1634 C1635 1.391 . S
C1635 H1623 0.950 . S
C1635 C1631 1.393 . S
C1635 C1634 1.391 . S
H1636 C1644 0.950 . S
H1637 C1649 0.950 . S
H1638 C1646 0.950 . S
H1639 C1648 0.950 . S
H1640 C1650 0.950 . S
H1641 C1652 0.950 . S
H1642 C1654 0.950 . S
H1643 C1655 0.950 . S
C1644 H1636 0.950 . S
C1644 C1645 1.386 . S
C1644 C1646 1.391 . S
C1645 C1644 1.386 . S
C1645 C1649 1.393 . S
C1646 H1638 0.950 . S
C1646 C1644 1.391 . S
C1646 C1647 1.400 . S
C1647 C1646 1.400 . S
C1647 C1648 1.398 . S
C1647 C1653 1.491 . S
C1648 H1639 0.950 . S
C1648 C1647 1.398 . S
C1648 C1649 1.391 . S
C1649 H1637 0.950 . S
C1649 C1645 1.393 . S
C1649 C1648 1.391 . S
C1650 H1640 0.950 . S
C1650 C1651 1.386 . S
C1650 C1652 1.391 . S
C1651 C1650 1.386 . S
C1651 C1655 1.393 . S
C1652 H1641 0.950 . S
C1652 C1650 1.391 . S
C1652 C1653 1.400 . S
C1653 C1647 1.491 . S
C1653 C1652 1.400 . S
C1653 C1654 1.398 . S
C1654 H1642 0.950 . S
C1654 C1653 1.398 . S
C1654 C1655 1.391 . S
C1655 H1643 0.950 . S
C1655 C1651 1.393 . S
C1655 C1654 1.391 . S
H1656 C1664 0.950 . S
H1657 C1669 0.950 . S
H1658 C1666 0.950 . S
H1659 C1668 0.950 . S
H1660 C1670 0.950 . S
H1661 C1672 0.950 . S
H1662 C1674 0.950 . S
H1663 C1675 0.950 . S
C1664 H1656 0.950 . S
C1664 C1665 1.386 . S
C1664 C1666 1.391 . S
C1665 C1664 1.386 . S
C1665 C1669 1.393 . S
C1666 H1658 0.950 . S
C1666 C1664 1.391 . S
C1666 C1667 1.400 . S
C1667 C1666 1.400 . S
C1667 C1668 1.398 . S
C1667 C1673 1.491 . S
C1668 H1659 0.950 . S
C1668 C1667 1.398 . S
C1668 C1669 1.391 . S
C1669 H1657 0.950 . S
C1669 C1665 1.393 . S
C1669 C1668 1.391 . S
C1670 H1660 0.950 . S
C1670 C1671 1.386 . S
C1670 C1672 1.391 . S
C1671 C1670 1.386 . S
C1671 C1675 1.393 . S
C1672 H1661 0.950 . S
C1672 C1670 1.391 . S
C1672 C1673 1.400 . S
C1673 C1667 1.491 . S
C1673 C1672 1.400 . S
C1673 C1674 1.398 . S
C1674 H1662 0.950 . S
C1674 C1673 1.398 . S
C1674 C1675 1.391 . S
C1675 H1663 0.950 . S
C1675 C1671 1.393 . S
C1675 C1674 1.391 . S
H1676 C1684 0.950 . S
H1677 C1689 0.950 . S
H1678 C1686 0.950 . S
H1679 C1688 0.950 . S
H1680 C1690 0.950 . S
H1681 C1692 0.950 . S
H1682 C1694 0.950 . S
H1683 C1695 0.950 . S
C1684 H1676 0.950 . S
C1684 C1685 1.386 . S
C1684 C1686 1.391 . S
C1685 C1684 1.386 . S
C1685 C1689 1.393 . S
C1686 H1678 0.950 . S
C1686 C1684 1.391 . S
C1686 C1687 1.400 . S
C1687 C1686 1.400 . S
C1687 C1688 1.398 . S
C1687 C1693 1.491 . S
C1688 H1679 0.950 . S
C1688 C1687 1.398 . S
C1688 C1689 1.391 . S
C1689 H1677 0.950 . S
C1689 C1685 1.393 . S
C1689 C1688 1.391 . S
C1690 H1680 0.950 . S
C1690 C1691 1.386 . S
C1690 C1692 1.391 . S
C1691 C1690 1.386 . S
C1691 C1695 1.393 . S
C1692 H1681 0.950 . S
C1692 C1690 1.391 . S
C1692 C1693 1.400 . S
C1693 C1687 1.491 . S
C1693 C1692 1.400 . S
C1693 C1694 1.398 . S
C1694 H1682 0.950 . S
C1694 C1693 1.398 . S
C1694 C1695 1.391 . S
C1695 H1683 0.950 . S
C1695 C1691 1.393 . S
C1695 C1694 1.391 . S
H1696 C1704 0.950 . S
H1697 C1709 0.950 . S
H1698 C1706 0.950 . S
H1699 C1708 0.950 . S
H1700 C1710 0.950 . S
H1701 C1712 0.950 . S
H1702 C1714 0.950 . S
H1703 C1715 0.950 . S
C1704 H1696 0.950 . S
C1704 C1705 1.386 . S
C1704 C1706 1.391 . S
C1705 C1704 1.386 . S
C1705 C1709 1.393 . S
C1706 H1698 0.950 . S
C1706 C1704 1.391 . S
C1706 C1707 1.400 . S
C1707 C1706 1.400 . S
C1707 C1708 1.398 . S
C1707 C1713 1.491 . S
C1708 H1699 0.950 . S
C1708 C1707 1.398 . S
C1708 C1709 1.391 . S
C1709 H1697 0.950 . S
C1709 C1705 1.393 . S
C1709 C1708 1.391 . S
C1710 H1700 0.950 . S
C1710 C1711 1.386 . S
C1710 C1712 1.391 . S
C1711 C1710 1.386 . S
C1711 C1715 1.393 . S
C1712 H1701 0.950 . S
C1712 C1710 1.391 . S
C1712 C1713 1.400 . S
C1713 C1707 1.491 . S
C1713 C1712 1.400 . S
C1713 C1714 1.398 . S
C1714 H1702 0.950 . S
C1714 C1713 1.398 . S
C1714 C1715 1.391 . S
C1715 H1703 0.950 . S
C1715 C1711 1.393 . S
C1715 C1714 1.391 . S
H1716 C1724 0.950 . S
H1717 C1729 0.950 . S
H1718 C1726 0.950 . S
H1719 C1728 0.950 . S
H1720 C1730 0.950 . S
H1721 C1732 0.950 . S
H1722 C1734 0.950 . S
H1723 C1735 0.950 . S
C1724 H1716 0.950 . S
C1724 C1725 1.386 . S
C1724 C1726 1.391 . S
C1725 C1724 1.386 . S
C1725 C1729 1.393 . S
C1726 H1718 0.950 . S
C1726 C1724 1.391 . S
C1726 C1727 1.400 . S
C1727 C1726 1.400 . S
C1727 C1728 1.398 . S
C1727 C1733 1.491 . S
C1728 H1719 0.950 . S
C1728 C1727 1.398 . S
C1728 C1729 1.391 . S
C1729 H1717 0.950 . S
C1729 C1725 1.393 . S
C1729 C1728 1.391 . S
C1730 H1720 0.950 . S
C1730 C1731 1.386 . S
C1730 C1732 1.391 . S
C1731 C1730 1.386 . S
C1731 C1735 1.393 . S
C1732 H1721 0.950 . S
C1732 C1730 1.391 . S
C1732 C1733 1.400 . S
C1733 C1727 1.491 . S
C1733 C1732 1.400 . S
C1733 C1734 1.398 . S
C1734 H1722 0.950 . S
C1734 C1733 1.398 . S
C1734 C1735 1.391 . S
C1735 H1723 0.950 . S
C1735 C1731 1.393 . S
C1735 C1734 1.391 . S
H1736 C1744 0.950 . S
H1737 C1749 0.950 . S
H1738 C1746 0.950 . S
H1739 C1748 0.950 . S
H1740 C1750 0.950 . S
H1741 C1752 0.950 . S
H1742 C1754 0.950 . S
H1743 C1755 0.950 . S
C1744 H1736 0.950 . S
C1744 C1745 1.386 . S
C1744 C1746 1.391 . S
C1745 C1744 1.386 . S
C1745 C1749 1.393 . S
C1746 H1738 0.950 . S
C1746 C1744 1.391 . S
C1746 C1747 1.400 . S
C1747 C1746 1.400 . S
C1747 C1748 1.398 . S
C1747 C1753 1.491 . S
C1748 H1739 0.950 . S
C1748 C1747 1.398 . S
C1748 C1749 1.391 . S
C1749 H1737 0.950 . S
C1749 C1745 1.393 . S
C1749 C1748 1.391 . S
C1750 H1740 0.950 . S
C1750 C1751 1.386 . S
C1750 C1752 1.391 . S
C1751 C1750 1.386 . S
C1751 C1755 1.393 . S
C1752 H1741 0.950 . S
C1752 C1750 1.391 . S
C1752 C1753 1.400 . S
C1753 C1747 1.491 . S
C1753 C1752 1.400 . S
C1753 C1754 1.398 . S
C1754 H1742 0.950 . S
C1754 C1753 1.398 . S
C1754 C1755 1.391 . S
C1755 H1743 0.950 . S
C1755 C1751 1.393 . S
C1755 C1754 1.391 . S
H1756 C1764 0.950 . S
H1757 C1769 0.950 . S
H1758 C1766 0.950 . S
H1759 C1768 0.950 . S
H1760 C1770 0.950 . S
H1761 C1772 0.950 . S
H1762 C1774 0.950 . S
H1763 C1775 0.950 . S
C1764 H1756 0.950 . S
C1764 C1765 1.386 . S
C1764 C1766 1.391 . S
C1765 C1764 1.386 . S
C1765 C1769 1.393 . S
C1766 H1758 0.950 . S
C1766 C1764 1.391 . S
C1766 C1767 1.400 . S
C1767 C1766 1.400 . S
C1767 C1768 1.398 . S
C1767 C1773 1.491 . S
C1768 H1759 0.950 . S
C1768 C1767 1.398 . S
C1768 C1769 1.391 . S
C1769 H1757 0.950 . S
C1769 C1765 1.393 . S
C1769 C1768 1.391 . S
C1770 H1760 0.950 . S
C1770 C1771 1.386 . S
C1770 C1772 1.391 . S
C1771 C1770 1.386 . S
C1771 C1775 1.393 . S
C1772 H1761 0.950 . S
C1772 C1770 1.391 . S
C1772 C1773 1.400 . S
C1773 C1767 1.491 . S
C1773 C1772 1.400 . S
C1773 C1774 1.398 . S
C1774 H1762 0.950 . S
C1774 C1773 1.398 . S
C1774 C1775 1.391 . S
C1775 H1763 0.950 . S
C1775 C1771 1.393 . S
C1775 C1774 1.391 . S
H1776 C1784 0.950 . S
H1777 C1789 0.950 . S
H1778 C1786 0.950 . S
H1779 C1788 0.950 . S
H1780 C1790 0.950 . S
H1781 C1792 0.950 . S
H1782 C1794 0.950 . S
H1783 C1795 0.950 . S
C1784 H1776 0.950 . S
C1784 C1785 1.386 . S
C1784 C1786 1.391 . S
C1785 C1784 1.386 . S
C1785 C1789 1.393 . S
C1786 H1778 0.950 . S
C1786 C1784 1.391 . S
C1786 C1787 1.400 . S
C1787 C1786 1.400 . S
C1787 C1788 1.398 . S
C1787 C1793 1.491 . S
C1788 H1779 0.950 . S
C1788 C1787 1.398 . S
C1788 C1789 1.391 . S
C1789 H1777 0.950 . S
C1789 C1785 1.393 . S
C1789 C1788 1.391 . S
C1790 H1780 0.950 . S
C1790 C1791 1.386 . S
C1790 C1792 1.391 . S
C1791 C1790 1.386 . S
C1791 C1795 1.393 . S
C1792 H1781 0.950 . S
C1792 C1790 1.391 . S
C1792 C1793 1.400 . S
C1793 C1787 1.491 . S
C1793 C1792 1.400 . S
C1793 C1794 1.398 . S
C1794 H1782 0.950 . S
C1794 C1793 1.398 . S
C1794 C1795 1.391 . S
C1795 H1783 0.950 . S
C1795 C1791 1.393 . S
C1795 C1794 1.391 . S
H1796 C1804 0.950 . S
H1797 C1809 0.950 . S
H1798 C1806 0.950 . S
H1799 C1808 0.950 . S
H1800 C1810 0.950 . S
H1801 C1812 0.950 . S
H1802 C1814 0.950 . S
H1803 C1815 0.950 . S
C1804 H1796 0.950 . S
C1804 C1805 1.386 . S
C1804 C1806 1.391 . S
C1805 C1804 1.386 . S
C1805 C1809 1.393 . S
C1806 H1798 0.950 . S
C1806 C1804 1.391 . S
C1806 C1807 1.400 . S
C1807 C1806 1.400 . S
C1807 C1808 1.398 . S
C1807 C1813 1.491 . S
C1808 H1799 0.950 . S
C1808 C1807 1.398 . S
C1808 C1809 1.391 . S
C1809 H1797 0.950 . S
C1809 C1805 1.393 . S
C1809 C1808 1.391 . S
C1810 H1800 0.950 . S
C1810 C1811 1.386 . S
C1810 C1812 1.391 . S
C1811 C1810 1.386 . S
C1811 C1815 1.393 . S
C1812 H1801 0.950 . S
C1812 C1810 1.391 . S
C1812 C1813 1.400 . S
C1813 C1807 1.491 . S
C1813 C1812 1.400 . S
C1813 C1814 1.398 . S
C1814 H1802 0.950 . S
C1814 C1813 1.398 . S
C1814 C1815 1.391 . S
C1815 H1803 0.950 . S
C1815 C1811 1.393 . S
C1815 C1814 1.391 . S
H1816 C1824 0.950 . S
H1817 C1829 0.950 . S
H1818 C1826 0.950 . S
H1819 C1828 0.950 . S
H1820 C1830 0.950 . S
H1821 C1832 0.950 . S
H1822 C1834 0.950 . S
H1823 C1835 0.950 . S
C1824 H1816 0.950 . S
C1824 C1825 1.386 . S
C1824 C1826 1.391 . S
C1825 C1824 1.386 . S
C1825 C1829 1.393 . S
C1826 H1818 0.950 . S
C1826 C1824 1.391 . S
C1826 C1827 1.400 . S
C1827 C1826 1.400 . S
C1827 C1828 1.398 . S
C1827 C1833 1.491 . S
C1828 H1819 0.950 . S
C1828 C1827 1.398 . S
C1828 C1829 1.391 . S
C1829 H1817 0.950 . S
C1829 C1825 1.393 . S
C1829 C1828 1.391 . S
C1830 H1820 0.950 . S
C1830 C1831 1.386 . S
C1830 C1832 1.391 . S
C1831 C1830 1.386 . S
C1831 C1835 1.393 . S
C1832 H1821 0.950 . S
C1832 C1830 1.391 . S
C1832 C1833 1.400 . S
C1833 C1827 1.491 . S
C1833 C1832 1.400 . S
C1833 C1834 1.398 . S
C1834 H1822 0.950 . S
C1834 C1833 1.398 . S
C1834 C1835 1.391 . S
C1835 H1823 0.950 . S
C1835 C1831 1.393 . S
C1835 C1834 1.391 . S
H1836 C1844 0.950 . S
H1837 C1849 0.950 . S
H1838 C1846 0.950 . S
H1839 C1848 0.950 . S
H1840 C1850 0.950 . S
H1841 C1852 0.950 . S
H1842 C1854 0.950 . S
H1843 C1855 0.950 . S
C1844 H1836 0.950 . S
C1844 C1845 1.386 . S
C1844 C1846 1.391 . S
C1845 C1844 1.386 . S
C1845 C1849 1.393 . S
C1846 H1838 0.950 . S
C1846 C1844 1.391 . S
C1846 C1847 1.400 . S
C1847 C1846 1.400 . S
C1847 C1848 1.398 . S
C1847 C1853 1.491 . S
C1848 H1839 0.950 . S
C1848 C1847 1.398 . S
C1848 C1849 1.391 . S
C1849 H1837 0.950 . S
C1849 C1845 1.393 . S
C1849 C1848 1.391 . S
C1850 H1840 0.950 . S
C1850 C1851 1.386 . S
C1850 C1852 1.391 . S
C1851 C1850 1.386 . S
C1851 C1855 1.393 . S
C1852 H1841 0.950 . S
C1852 C1850 1.391 . S
C1852 C1853 1.400 . S
C1853 C1847 1.491 . S
C1853 C1852 1.400 . S
C1853 C1854 1.398 . S
C1854 H1842 0.950 . S
C1854 C1853 1.398 . S
C1854 C1855 1.391 . S
C1855 H1843 0.950 . S
C1855 C1851 1.393 . S
C1855 C1854 1.391 . S
H1856 C1864 0.950 . S
H1857 C1869 0.950 . S
H1858 C1866 0.950 . S
H1859 C1868 0.950 . S
H1860 C1870 0.950 . S
H1861 C1872 0.950 . S
H1862 C1874 0.950 . S
H1863 C1875 0.950 . S
C1864 H1856 0.950 . S
C1864 C1865 1.386 . S
C1864 C1866 1.391 . S
C1865 C1864 1.386 . S
C1865 C1869 1.393 . S
C1866 H1858 0.950 . S
C1866 C1864 1.391 . S
C1866 C1867 1.400 . S
C1867 C1866 1.400 . S
C1867 C1868 1.398 . S
C1867 C1873 1.491 . S
C1868 H1859 0.950 . S
C1868 C1867 1.398 . S
C1868 C1869 1.391 . S
C1869 H1857 0.950 . S
C1869 C1865 1.393 . S
C1869 C1868 1.391 . S
C1870 H1860 0.950 . S
C1870 C1871 1.386 . S
C1870 C1872 1.391 . S
C1871 C1870 1.386 . S
C1871 C1875 1.393 . S
C1872 H1861 0.950 . S
C1872 C1870 1.391 . S
C1872 C1873 1.400 . S
C1873 C1867 1.491 . S
C1873 C1872 1.400 . S
C1873 C1874 1.398 . S
C1874 H1862 0.950 . S
C1874 C1873 1.398 . S
C1874 C1875 1.391 . S
C1875 H1863 0.950 . S
C1875 C1871 1.393 . S
C1875 C1874 1.391 . S
H1876 C1884 0.950 . S
H1877 C1889 0.950 . S
H1878 C1886 0.950 . S
H1879 C1888 0.950 . S
H1880 C1890 0.950 . S
H1881 C1892 0.950 . S
H1882 C1894 0.950 . S
H1883 C1895 0.950 . S
C1884 H1876 0.950 . S
C1884 C1885 1.386 . S
C1884 C1886 1.391 . S
C1885 C1884 1.386 . S
C1885 C1889 1.393 . S
C1886 H1878 0.950 . S
C1886 C1884 1.391 . S
C1886 C1887 1.400 . S
C1887 C1886 1.400 . S
C1887 C1888 1.398 . S
C1887 C1893 1.491 . S
C1888 H1879 0.950 . S
C1888 C1887 1.398 . S
C1888 C1889 1.391 . S
C1889 H1877 0.950 . S
C1889 C1885 1.393 . S
C1889 C1888 1.391 . S
C1890 H1880 0.950 . S
C1890 C1891 1.386 . S
C1890 C1892 1.391 . S
C1891 C1890 1.386 . S
C1891 C1895 1.393 . S
C1892 H1881 0.950 . S
C1892 C1890 1.391 . S
C1892 C1893 1.400 . S
C1893 C1887 1.491 . S
C1893 C1892 1.400 . S
C1893 C1894 1.398 . S
C1894 H1882 0.950 . S
C1894 C1893 1.398 . S
C1894 C1895 1.391 . S
C1895 H1883 0.950 . S
C1895 C1891 1.393 . S
C1895 C1894 1.391 . S
H1896 C1904 0.950 . S
H1897 C1909 0.950 . S
H1898 C1906 0.950 . S
H1899 C1908 0.950 . S
H1900 C1910 0.950 . S
H1901 C1912 0.950 . S
H1902 C1914 0.950 . S
H1903 C1915 0.950 . S
C1904 H1896 0.950 . S
C1904 C1905 1.386 . S
C1904 C1906 1.391 . S
C1905 C1904 1.386 . S
C1905 C1909 1.393 . S
C1906 H1898 0.950 . S
C1906 C1904 1.391 . S
C1906 C1907 1.400 . S
C1907 C1906 1.400 . S
C1907 C1908 1.398 . S
C1907 C1913 1.491 . S
C1908 H1899 0.950 . S
C1908 C1907 1.398 . S
C1908 C1909 1.391 . S
C1909 H1897 0.950 . S
C1909 C1905 1.393 . S
C1909 C1908 1.391 . S
C1910 H1900 0.950 . S
C1910 C1911 1.386 . S
C1910 C1912 1.391 . S
C1911 C1910 1.386 . S
C1911 C1915 1.393 . S
C1912 H1901 0.950 . S
C1912 C1910 1.391 . S
C1912 C1913 1.400 . S
C1913 C1907 1.491 . S
C1913 C1912 1.400 . S
C1913 C1914 1.398 . S
C1914 H1902 0.950 . S
C1914 C1913 1.398 . S
C1914 C1915 1.391 . S
C1915 H1903 0.950 . S
C1915 C1911 1.393 . S
C1915 C1914 1.391 . S
H1916 C1924 0.950 . S
H1917 C1929 0.950 . S
H1918 C1926 0.950 . S
H1919 C1928 0.950 . S
H1920 C1930 0.950 . S
H1921 C1932 0.950 . S
H1922 C1934 0.950 . S
H1923 C1935 0.950 . S
C1924 H1916 0.950 . S
C1924 C1925 1.386 . S
C1924 C1926 1.391 . S
C1925 C1924 1.386 . S
C1925 C1929 1.393 . S
C1926 H1918 0.950 . S
C1926 C1924 1.391 . S
C1926 C1927 1.400 . S
C1927 C1926 1.400 . S
C1927 C1928 1.398 . S
C1927 C1933 1.491 . S
C1928 H1919 0.950 . S
C1928 C1927 1.398 . S
C1928 C1929 1.391 . S
C1929 H1917 0.950 . S
C1929 C1925 1.393 . S
C1929 C1928 1.391 . S
C1930 H1920 0.950 . S
C1930 C1931 1.386 . S
C1930 C1932 1.391 . S
C1931 C1930 1.386 . S
C1931 C1935 1.393 . S
C1932 H1921 0.950 . S
C1932 C1930 1.391 . S
C1932 C1933 1.400 . S
C1933 C1927 1.491 . S
C1933 C1932 1.400 . S
C1933 C1934 1.398 . S
C1934 H1922 0.950 . S
C1934 C1933 1.398 . S
C1934 C1935 1.391 . S
C1935 H1923 0.950 . S
C1935 C1931 1.393 . S
C1935 C1934 1.391 . S
H1936 C1944 0.950 . S
H1937 C1949 0.950 . S
H1938 C1946 0.950 . S
H1939 C1948 0.950 . S
H1940 C1950 0.950 . S
H1941 C1952 0.950 . S
H1942 C1954 0.950 . S
H1943 C1955 0.950 . S
C1944 H1936 0.950 . S
C1944 C1945 1.386 . S
C1944 C1946 1.391 . S
C1945 C1944 1.386 . S
C1945 C1949 1.393 . S
C1946 H1938 0.950 . S
C1946 C1944 1.391 . S
C1946 C1947 1.400 . S
C1947 C1946 1.400 . S
C1947 C1948 1.398 . S
C1947 C1953 1.491 . S
C1948 H1939 0.950 . S
C1948 C1947 1.398 . S
C1948 C1949 1.391 . S
C1949 H1937 0.950 . S
C1949 C1945 1.393 . S
C1949 C1948 1.391 . S
C1950 H1940 0.950 . S
C1950 C1951 1.386 . S
C1950 C1952 1.391 . S
C1951 C1950 1.386 . S
C1951 C1955 1.393 . S
C1952 H1941 0.950 . S
C1952 C1950 1.391 . S
C1952 C1953 1.400 . S
C1953 C1947 1.491 . S
C1953 C1952 1.400 . S
C1953 C1954 1.398 . S
C1954 H1942 0.950 . S
C1954 C1953 1.398 . S
C1954 C1955 1.391 . S
C1955 H1943 0.950 . S
C1955 C1951 1.393 . S
C1955 C1954 1.391 . S
H1956 C1964 0.950 . S
H1957 C1969 0.950 . S
H1958 C1966 0.950 . S
H1959 C1968 0.950 . S
H1960 C1970 0.950 . S
H1961 C1972 0.950 . S
H1962 C1974 0.950 . S
H1963 C1975 0.950 . S
C1964 H1956 0.950 . S
C1964 C1965 1.386 . S
C1964 C1966 1.391 . S
C1965 C1964 1.386 . S
C1965 C1969 1.393 . S
C1966 H1958 0.950 . S
C1966 C1964 1.391 . S
C1966 C1967 1.400 . S
C1967 C1966 1.400 . S
C1967 C1968 1.398 . S
C1967 C1973 1.491 . S
C1968 H1959 0.950 . S
C1968 C1967 1.398 . S
C1968 C1969 1.391 . S
C1969 H1957 0.950 . S
C1969 C1965 1.393 . S
C1969 C1968 1.391 . S
C1970 H1960 0.950 . S
C1970 C1971 1.386 . S
C1970 C1972 1.391 . S
C1971 C1970 1.386 . S
C1971 C1975 1.393 . S
C1972 H1961 0.950 . S
C1972 C1970 1.391 . S
C1972 C1973 1.400 . S
C1973 C1967 1.491 . S
C1973 C1972 1.400 . S
C1973 C1974 1.398 . S
C1974 H1962 0.950 . S
C1974 C1973 1.398 . S
C1974 C1975 1.391 . S
C1975 H1963 0.950 . S
C1975 C1971 1.393 . S
C1975 C1974 1.391 . S
H1976 C1984 0.950 . S
H1977 C1989 0.950 . S
H1978 C1986 0.950 . S
H1979 C1988 0.950 . S
H1980 C1990 0.950 . S
H1981 C1992 0.950 . S
H1982 C1994 0.950 . S
H1983 C1995 0.950 . S
C1984 H1976 0.950 . S
C1984 C1985 1.386 . S
C1984 C1986 1.391 . S
C1985 C1984 1.386 . S
C1985 C1989 1.393 . S
C1986 H1978 0.950 . S
C1986 C1984 1.391 . S
C1986 C1987 1.400 . S
C1987 C1986 1.400 . S
C1987 C1988 1.398 . S
C1987 C1993 1.491 . S
C1988 H1979 0.950 . S
C1988 C1987 1.398 . S
C1988 C1989 1.391 . S
C1989 H1977 0.950 . S
C1989 C1985 1.393 . S
C1989 C1988 1.391 . S
C1990 H1980 0.950 . S
C1990 C1991 1.386 . S
C1990 C1992 1.391 . S
C1991 C1990 1.386 . S
C1991 C1995 1.393 . S
C1992 H1981 0.950 . S
C1992 C1990 1.391 . S
C1992 C1993 1.400 . S
C1993 C1987 1.491 . S
C1993 C1992 1.400 . S
C1993 C1994 1.398 . S
C1994 H1982 0.950 . S
C1994 C1993 1.398 . S
C1994 C1995 1.391 . S
C1995 H1983 0.950 . S
C1995 C1991 1.393 . S
C1995 C1994 1.391 . S
H1996 C2004 0.950 . S
H1997 C2009 0.950 . S
H1998 C2006 0.950 . S
H1999 C2008 0.950 . S
H2000 C2010 0.950 . S
H2001 C2012 0.950 . S
H2002 C2014 0.950 . S
H2003 C2015 0.950 . S
C2004 H1996 0.950 . S
C2004 C2005 1.386 . S
C2004 C2006 1.391 . S
C2005 C2004 1.386 . S
C2005 C2009 1.393 . S
C2006 H1998 0.950 . S
C2006 C2004 1.391 . S
C2006 C2007 1.400 . S
C2007 C2006 1.400 . S
C2007 C2008 1.398 . S
C2007 C2013 1.491 . S
C2008 H1999 0.950 . S
C2008 C2007 1.398 . S
C2008 C2009 1.391 . S
C2009 H1997 0.950 . S
C2009 C2005 1.393 . S
C2009 C2008 1.391 . S
C2010 H2000 0.950 . S
C2010 C2011 1.386 . S
C2010 C2012 1.391 . S
C2011 C2010 1.386 . S
C2011 C2015 1.393 . S
C2012 H2001 0.950 . S
C2012 C2010 1.391 . S
C2012 C2013 1.400 . S
C2013 C2007 1.491 . S
C2013 C2012 1.400 . S
C2013 C2014 1.398 . S
C2014 H2002 0.950 . S
C2014 C2013 1.398 . S
C2014 C2015 1.391 . S
C2015 H2003 0.950 . S
C2015 C2011 1.393 . S
C2015 C2014 1.391 . S
H2016 C2024 0.950 . S
H2017 C2029 0.950 . S
H2018 C2026 0.950 . S
H2019 C2028 0.950 . S
H2020 C2030 0.950 . S
H2021 C2032 0.950 . S
H2022 C2034 0.950 . S
H2023 C2035 0.950 . S
C2024 H2016 0.950 . S
C2024 C2025 1.386 . S
C2024 C2026 1.391 . S
C2025 C2024 1.386 . S
C2025 C2029 1.393 . S
C2026 H2018 0.950 . S
C2026 C2024 1.391 . S
C2026 C2027 1.400 . S
C2027 C2026 1.400 . S
C2027 C2028 1.398 . S
C2027 C2033 1.491 . S
C2028 H2019 0.950 . S
C2028 C2027 1.398 . S
C2028 C2029 1.391 . S
C2029 H2017 0.950 . S
C2029 C2025 1.393 . S
C2029 C2028 1.391 . S
C2030 H2020 0.950 . S
C2030 C2031 1.386 . S
C2030 C2032 1.391 . S
C2031 C2030 1.386 . S
C2031 C2035 1.393 . S
C2032 H2021 0.950 . S
C2032 C2030 1.391 . S
C2032 C2033 1.400 . S
C2033 C2027 1.491 . S
C2033 C2032 1.400 . S
C2033 C2034 1.398 . S
C2034 H2022 0.950 . S
C2034 C2033 1.398 . S
C2034 C2035 1.391 . S
C2035 H2023 0.950 . S
C2035 C2031 1.393 . S
C2035 C2034 1.391 . S
H2036 C2044 0.950 . S
H2037 C2049 0.950 . S
H2038 C2046 0.950 . S
H2039 C2048 0.950 . S
H2040 C2050 0.950 . S
H2041 C2052 0.950 . S
H2042 C2054 0.950 . S
H2043 C2055 0.950 . S
C2044 H2036 0.950 . S
C2044 C2045 1.386 . S
C2044 C2046 1.391 . S
C2045 C2044 1.386 . S
C2045 C2049 1.393 . S
C2046 H2038 0.950 . S
C2046 C2044 1.391 . S
C2046 C2047 1.400 . S
C2047 C2046 1.400 . S
C2047 C2048 1.398 . S
C2047 C2053 1.491 . S
C2048 H2039 0.950 . S
C2048 C2047 1.398 . S
C2048 C2049 1.391 . S
C2049 H2037 0.950 . S
C2049 C2045 1.393 . S
C2049 C2048 1.391 . S
C2050 H2040 0.950 . S
C2050 C2051 1.386 . S
C2050 C2052 1.391 . S
C2051 C2050 1.386 . S
C2051 C2055 1.393 . S
C2052 H2041 0.950 . S
C2052 C2050 1.391 . S
C2052 C2053 1.400 . S
C2053 C2047 1.491 . S
C2053 C2052 1.400 . S
C2053 C2054 1.398 . S
C2054 H2042 0.950 . S
C2054 C2053 1.398 . S
C2054 C2055 1.391 . S
C2055 H2043 0.950 . S
C2055 C2051 1.393 . S
C2055 C2054 1.391 . S
H2056 C2064 0.950 . S
H2057 C2069 0.950 . S
H2058 C2066 0.950 . S
H2059 C2068 0.950 . S
H2060 C2070 0.950 . S
H2061 C2072 0.950 . S
H2062 C2074 0.950 . S
H2063 C2075 0.950 . S
C2064 H2056 0.950 . S
C2064 C2065 1.386 . S
C2064 C2066 1.391 . S
C2065 C2064 1.386 . S
C2065 C2069 1.393 . S
C2066 H2058 0.950 . S
C2066 C2064 1.391 . S
C2066 C2067 1.400 . S
C2067 C2066 1.400 . S
C2067 C2068 1.398 . S
C2067 C2073 1.491 . S
C2068 H2059 0.950 . S
C2068 C2067 1.398 . S
C2068 C2069 1.391 . S
C2069 H2057 0.950 . S
C2069 C2065 1.393 . S
C2069 C2068 1.391 . S
C2070 H2060 0.950 . S
C2070 C2071 1.386 . S
C2070 C2072 1.391 . S
C2071 C2070 1.386 . S
C2071 C2075 1.393 . S
C2072 H2061 0.950 . S
C2072 C2070 1.391 . S
C2072 C2073 1.400 . S
C2073 C2067 1.491 . S
C2073 C2072 1.400 . S
C2073 C2074 1.398 . S
C2074 H2062 0.950 . S
C2074 C2073 1.398 . S
C2074 C2075 1.391 . S
C2075 H2063 0.950 . S
C2075 C2071 1.393 . S
C2075 C2074 1.391 . S
H2076 C2084 0.950 . S
H2077 C2089 0.950 . S
H2078 C2086 0.950 . S
H2079 C2088 0.950 . S
H2080 C2090 0.950 . S
H2081 C2092 0.950 . S
H2082 C2094 0.950 . S
H2083 C2095 0.950 . S
C2084 H2076 0.950 . S
C2084 C2085 1.386 . S
C2084 C2086 1.391 . S
C2085 C2084 1.386 . S
C2085 C2089 1.393 . S
C2086 H2078 0.950 . S
C2086 C2084 1.391 . S
C2086 C2087 1.400 . S
C2087 C2086 1.400 . S
C2087 C2088 1.398 . S
C2087 C2093 1.491 . S
C2088 H2079 0.950 . S
C2088 C2087 1.398 . S
C2088 C2089 1.391 . S
C2089 H2077 0.950 . S
C2089 C2085 1.393 . S
C2089 C2088 1.391 . S
C2090 H2080 0.950 . S
C2090 C2091 1.386 . S
C2090 C2092 1.391 . S
C2091 C2090 1.386 . S
C2091 C2095 1.393 . S
C2092 H2081 0.950 . S
C2092 C2090 1.391 . S
C2092 C2093 1.400 . S
C2093 C2087 1.491 . S
C2093 C2092 1.400 . S
C2093 C2094 1.398 . S
C2094 H2082 0.950 . S
C2094 C2093 1.398 . S
C2094 C2095 1.391 . S
C2095 H2083 0.950 . S
C2095 C2091 1.393 . S
C2095 C2094 1.391 . S
H2096 C2104 0.950 . S
H2097 C2109 0.950 . S
H2098 C2106 0.950 . S
H2099 C2108 0.950 . S
H2100 C2110 0.950 . S
H2101 C2112 0.950 . S
H2102 C2114 0.950 . S
H2103 C2115 0.950 . S
C2104 H2096 0.950 . S
C2104 C2105 1.386 . S
C2104 C2106 1.391 . S
C2105 C2104 1.386 . S
C2105 C2109 1.393 . S
C2106 H2098 0.950 . S
C2106 C2104 1.391 . S
C2106 C2107 1.400 . S
C2107 C2106 1.400 . S
C2107 C2108 1.398 . S
C2107 C2113 1.491 . S
C2108 H2099 0.950 . S
C2108 C2107 1.398 . S
C2108 C2109 1.391 . S
C2109 H2097 0.950 . S
C2109 C2105 1.393 . S
C2109 C2108 1.391 . S
C2110 H2100 0.950 . S
C2110 C2111 1.386 . S
C2110 C2112 1.391 . S
C2111 C2110 1.386 . S
C2111 C2115 1.393 . S
C2112 H2101 0.950 . S
C2112 C2110 1.391 . S
C2112 C2113 1.400 . S
C2113 C2107 1.491 . S
C2113 C2112 1.400 . S
C2113 C2114 1.398 . S
C2114 H2102 0.950 . S
C2114 C2113 1.398 . S
C2114 C2115 1.391 . S
C2115 H2103 0.950 . S
C2115 C2111 1.393 . S
C2115 C2114 1.391 . S
H2116 C2124 0.950 . S
H2117 C2129 0.950 . S
H2118 C2126 0.950 . S
H2119 C2128 0.950 . S
H2120 C2130 0.950 . S
H2121 C2132 0.950 . S
H2122 C2134 0.950 . S
H2123 C2135 0.950 . S
C2124 H2116 0.950 . S
C2124 C2125 1.386 . S
C2124 C2126 1.391 . S
C2125 C2124 1.386 . S
C2125 C2129 1.393 . S
C2126 H2118 0.950 . S
C2126 C2124 1.391 . S
C2126 C2127 1.400 . S
C2127 C2126 1.400 . S
C2127 C2128 1.398 . S
C2127 C2133 1.491 . S
C2128 H2119 0.950 . S
C2128 C2127 1.398 . S
C2128 C2129 1.391 . S
C2129 H2117 0.950 . S
C2129 C2125 1.393 . S
C2129 C2128 1.391 . S
C2130 H2120 0.950 . S
C2130 C2131 1.386 . S
C2130 C2132 1.391 . S
C2131 C2130 1.386 . S
C2131 C2135 1.393 . S
C2132 H2121 0.950 . S
C2132 C2130 1.391 . S
C2132 C2133 1.400 . S
C2133 C2127 1.491 . S
C2133 C2132 1.400 . S
C2133 C2134 1.398 . S
C2134 H2122 0.950 . S
C2134 C2133 1.398 . S
C2134 C2135 1.391 . S
C2135 H2123 0.950 . S
C2135 C2131 1.393 . S
C2135 C2134 1.391 . S
H2136 C2144 0.950 . S
H2137 C2149 0.950 . S
H2138 C2146 0.950 . S
H2139 C2148 0.950 . S
H2140 C2150 0.950 . S
H2141 C2152 0.950 . S
H2142 C2154 0.950 . S
H2143 C2155 0.950 . S
C2144 H2136 0.950 . S
C2144 C2145 1.386 . S
C2144 C2146 1.391 . S
C2145 C2144 1.386 . S
C2145 C2149 1.393 . S
C2146 H2138 0.950 . S
C2146 C2144 1.391 . S
C2146 C2147 1.400 . S
C2147 C2146 1.400 . S
C2147 C2148 1.398 . S
C2147 C2153 1.491 . S
C2148 H2139 0.950 . S
C2148 C2147 1.398 . S
C2148 C2149 1.391 . S
C2149 H2137 0.950 . S
C2149 C2145 1.393 . S
C2149 C2148 1.391 . S
C2150 H2140 0.950 . S
C2150 C2151 1.386 . S
C2150 C2152 1.391 . S
C2151 C2150 1.386 . S
C2151 C2155 1.393 . S
C2152 H2141 0.950 . S
C2152 C2150 1.391 . S
C2152 C2153 1.400 . S
C2153 C2147 1.491 . S
C2153 C2152 1.400 . S
C2153 C2154 1.398 . S
C2154 H2142 0.950 . S
C2154 C2153 1.398 . S
C2154 C2155 1.391 . S
C2155 H2143 0.950 . S
C2155 C2151 1.393 . S
C2155 C2154 1.391 . S
H2156 C2164 0.950 . S
H2157 C2169 0.950 . S
H2158 C2166 0.950 . S
H2159 C2168 0.950 . S
H2160 C2170 0.950 . S
H2161 C2172 0.950 . S
H2162 C2174 0.950 . S
H2163 C2175 0.950 . S
C2164 H2156 0.950 . S
C2164 C2165 1.386 . S
C2164 C2166 1.391 . S
C2165 C2164 1.386 . S
C2165 C2169 1.393 . S
C2166 H2158 0.950 . S
C2166 C2164 1.391 . S
C2166 C2167 1.400 . S
C2167 C2166 1.400 . S
C2167 C2168 1.398 . S
C2167 C2173 1.491 . S
C2168 H2159 0.950 . S
C2168 C2167 1.398 . S
C2168 C2169 1.391 . S
C2169 H2157 0.950 . S
C2169 C2165 1.393 . S
C2169 C2168 1.391 . S
C2170 H2160 0.950 . S
C2170 C2171 1.386 . S
C2170 C2172 1.391 . S
C2171 C2170 1.386 . S
C2171 C2175 1.393 . S
C2172 H2161 0.950 . S
C2172 C2170 1.391 . S
C2172 C2173 1.400 . S
C2173 C2167 1.491 . S
C2173 C2172 1.400 . S
C2173 C2174 1.398 . S
C2174 H2162 0.950 . S
C2174 C2173 1.398 . S
C2174 C2175 1.391 . S
C2175 H2163 0.950 . S
C2175 C2171 1.393 . S
C2175 C2174 1.391 . S
H2176 C2184 0.950 . S
H2177 C2189 0.950 . S
H2178 C2186 0.950 . S
H2179 C2188 0.950 . S
H2180 C2190 0.950 . S
H2181 C2192 0.950 . S
H2182 C2194 0.950 . S
H2183 C2195 0.950 . S
C2184 H2176 0.950 . S
C2184 C2185 1.386 . S
C2184 C2186 1.391 . S
C2185 C2184 1.386 . S
C2185 C2189 1.393 . S
C2186 H2178 0.950 . S
C2186 C2184 1.391 . S
C2186 C2187 1.400 . S
C2187 C2186 1.400 . S
C2187 C2188 1.398 . S
C2187 C2193 1.491 . S
C2188 H2179 0.950 . S
C2188 C2187 1.398 . S
C2188 C2189 1.391 . S
C2189 H2177 0.950 . S
C2189 C2185 1.393 . S
C2189 C2188 1.391 . S
C2190 H2180 0.950 . S
C2190 C2191 1.386 . S
C2190 C2192 1.391 . S
C2191 C2190 1.386 . S
C2191 C2195 1.393 . S
C2192 H2181 0.950 . S
C2192 C2190 1.391 . S
C2192 C2193 1.400 . S
C2193 C2187 1.491 . S
C2193 C2192 1.400 . S
C2193 C2194 1.398 . S
C2194 H2182 0.950 . S
C2194 C2193 1.398 . S
C2194 C2195 1.391 . S
C2195 H2183 0.950 . S
C2195 C2191 1.393 . S
C2195 C2194 1.391 . S
H2196 C2204 0.950 . S
H2197 C2209 0.950 . S
H2198 C2206 0.950 . S
H2199 C2208 0.950 . S
H2200 C2210 0.950 . S
H2201 C2212 0.950 . S
H2202 C2214 0.950 . S
H2203 C2215 0.950 . S
C2204 H2196 0.950 . S
C2204 C2205 1.386 . S
C2204 C2206 1.391 . S
C2205 C2204 1.386 . S
C2205 C2209 1.393 . S
C2206 H2198 0.950 . S
C2206 C2204 1.391 . S
C2206 C2207 1.400 . S
C2207 C2206 1.400 . S
C2207 C2208 1.398 . S
C2207 C2213 1.491 . S
C2208 H2199 0.950 . S
C2208 C2207 1.398 . S
C2208 C2209 1.391 . S
C2209 H2197 0.950 . S
C2209 C2205 1.393 . S
C2209 C2208 1.391 . S
C2210 H2200 0.950 . S
C2210 C2211 1.386 . S
C2210 C2212 1.391 . S
C2211 C2210 1.386 . S
C2211 C2215 1.393 . S
C2212 H2201 0.950 . S
C2212 C2210 1.391 . S
C2212 C2213 1.400 . S
C2213 C2207 1.491 . S
C2213 C2212 1.400 . S
C2213 C2214 1.398 . S
C2214 H2202 0.950 . S
C2214 C2213 1.398 . S
C2214 C2215 1.391 . S
C2215 H2203 0.950 . S
C2215 C2211 1.393 . S
C2215 C2214 1.391 . S
H2216 C2224 0.950 . S
H2217 C2229 0.950 . S
H2218 C2226 0.950 . S
H2219 C2228 0.950 . S
H2220 C2230 0.950 . S
H2221 C2232 0.950 . S
H2222 C2234 0.950 . S
H2223 C2235 0.950 . S
C2224 H2216 0.950 . S
C2224 C2225 1.386 . S
C2224 C2226 1.391 . S
C2225 C2224 1.386 . S
C2225 C2229 1.393 . S
C2226 H2218 0.950 . S
C2226 C2224 1.391 . S
C2226 C2227 1.400 . S
C2227 C2226 1.400 . S
C2227 C2228 1.398 . S
C2227 C2233 1.491 . S
C2228 H2219 0.950 . S
C2228 C2227 1.398 . S
C2228 C2229 1.391 . S
C2229 H2217 0.950 . S
C2229 C2225 1.393 . S
C2229 C2228 1.391 . S
C2230 H2220 0.950 . S
C2230 C2231 1.386 . S
C2230 C2232 1.391 . S
C2231 C2230 1.386 . S
C2231 C2235 1.393 . S
C2232 H2221 0.950 . S
C2232 C2230 1.391 . S
C2232 C2233 1.400 . S
C2233 C2227 1.491 . S
C2233 C2232 1.400 . S
C2233 C2234 1.398 . S
C2234 H2222 0.950 . S
C2234 C2233 1.398 . S
C2234 C2235 1.391 . S
C2235 H2223 0.950 . S
C2235 C2231 1.393 . S
C2235 C2234 1.391 . S
H2236 C2244 0.950 . S
H2237 C2249 0.950 . S
H2238 C2246 0.950 . S
H2239 C2248 0.950 . S
H2240 C2250 0.950 . S
H2241 C2252 0.950 . S
H2242 C2254 0.950 . S
H2243 C2255 0.950 . S
C2244 H2236 0.950 . S
C2244 C2245 1.386 . S
C2244 C2246 1.391 . S
C2245 C2244 1.386 . S
C2245 C2249 1.393 . S
C2246 H2238 0.950 . S
C2246 C2244 1.391 . S
C2246 C2247 1.400 . S
C2247 C2246 1.400 . S
C2247 C2248 1.398 . S
C2247 C2253 1.491 . S
C2248 H2239 0.950 . S
C2248 C2247 1.398 . S
C2248 C2249 1.391 . S
C2249 H2237 0.950 . S
C2249 C2245 1.393 . S
C2249 C2248 1.391 . S
C2250 H2240 0.950 . S
C2250 C2251 1.386 . S
C2250 C2252 1.391 . S
C2251 C2250 1.386 . S
C2251 C2255 1.393 . S
C2252 H2241 0.950 . S
C2252 C2250 1.391 . S
C2252 C2253 1.400 . S
C2253 C2247 1.491 . S
C2253 C2252 1.400 . S
C2253 C2254 1.398 . S
C2254 H2242 0.950 . S
C2254 C2253 1.398 . S
C2254 C2255 1.391 . S
C2255 H2243 0.950 . S
C2255 C2251 1.393 . S
C2255 C2254 1.391 . S
H2256 C2264 0.950 . S
H2257 C2269 0.950 . S
H2258 C2266 0.950 . S
H2259 C2268 0.950 . S
H2260 C2270 0.950 . S
H2261 C2272 0.950 . S
H2262 C2274 0.950 . S
H2263 C2275 0.950 . S
C2264 H2256 0.950 . S
C2264 C2265 1.386 . S
C2264 C2266 1.391 . S
C2265 C2264 1.386 . S
C2265 C2269 1.393 . S
C2266 H2258 0.950 . S
C2266 C2264 1.391 . S
C2266 C2267 1.400 . S
C2267 C2266 1.400 . S
C2267 C2268 1.398 . S
C2267 C2273 1.491 . S
C2268 H2259 0.950 . S
C2268 C2267 1.398 . S
C2268 C2269 1.391 . S
C2269 H2257 0.950 . S
C2269 C2265 1.393 . S
C2269 C2268 1.391 . S
C2270 H2260 0.950 . S
C2270 C2271 1.386 . S
C2270 C2272 1.391 . S
C2271 C2270 1.386 . S
C2271 C2275 1.393 . S
C2272 H2261 0.950 . S
C2272 C2270 1.391 . S
C2272 C2273 1.400 . S
C2273 C2267 1.491 . S
C2273 C2272 1.400 . S
C2273 C2274 1.398 . S
C2274 H2262 0.950 . S
C2274 C2273 1.398 . S
C2274 C2275 1.391 . S
C2275 H2263 0.950 . S
C2275 C2271 1.393 . S
C2275 C2274 1.391 . S
H2276 C2284 0.950 . S
H2277 C2289 0.950 . S
H2278 C2286 0.950 . S
H2279 C2288 0.950 . S
H2280 C2290 0.950 . S
H2281 C2292 0.950 . S
H2282 C2294 0.950 . S
H2283 C2295 0.950 . S
C2284 H2276 0.950 . S
C2284 C2285 1.386 . S
C2284 C2286 1.391 . S
C2285 C2284 1.386 . S
C2285 C2289 1.393 . S
C2286 H2278 0.950 . S
C2286 C2284 1.391 . S
C2286 C2287 1.400 . S
C2287 C2286 1.400 . S
C2287 C2288 1.398 . S
C2287 C2293 1.491 . S
C2288 H2279 0.950 . S
C2288 C2287 1.398 . S
C2288 C2289 1.391 . S
C2289 H2277 0.950 . S
C2289 C2285 1.393 . S
C2289 C2288 1.391 . S
C2290 H2280 0.950 . S
C2290 C2291 1.386 . S
C2290 C2292 1.391 . S
C2291 C2290 1.386 . S
C2291 C2295 1.393 . S
C2292 H2281 0.950 . S
C2292 C2290 1.391 . S
C2292 C2293 1.400 . S
C2293 C2287 1.491 . S
C2293 C2292 1.400 . S
C2293 C2294 1.398 . S
C2294 H2282 0.950 . S
C2294 C2293 1.398 . S
C2294 C2295 1.391 . S
C2295 H2283 0.950 . S
C2295 C2291 1.393 . S
C2295 C2294 1.391 . S
H2296 C2304 0.950 . S
H2297 C2309 0.950 . S
H2298 C2306 0.950 . S
H2299 C2308 0.950 . S
H2300 C2310 0.950 . S
H2301 C2312 0.950 . S
H2302 C2314 0.950 . S
H2303 C2315 0.950 . S
C2304 H2296 0.950 . S
C2304 C2305 1.386 . S
C2304 C2306 1.391 . S
C2305 C2304 1.386 . S
C2305 C2309 1.393 . S
C2306 H2298 0.950 . S
C2306 C2304 1.391 . S
C2306 C2307 1.400 . S
C2307 C2306 1.400 . S
C2307 C2308 1.398 . S
C2307 C2313 1.491 . S
C2308 H2299 0.950 . S
C2308 C2307 1.398 . S
C2308 C2309 1.391 . S
C2309 H2297 0.950 . S
C2309 C2305 1.393 . S
C2309 C2308 1.391 . S
C2310 H2300 0.950 . S
C2310 C2311 1.386 . S
C2310 C2312 1.391 . S
C2311 C2310 1.386 . S
C2311 C2315 1.393 . S
C2312 H2301 0.950 . S
C2312 C2310 1.391 . S
C2312 C2313 1.400 . S
C2313 C2307 1.491 . S
C2313 C2312 1.400 . S
C2313 C2314 1.398 . S
C2314 H2302 0.950 . S
C2314 C2313 1.398 . S
C2314 C2315 1.391 . S
C2315 H2303 0.950 . S
C2315 C2311 1.393 . S
C2315 C2314 1.391 . S
H2316 C2324 0.950 . S
H2317 C2329 0.950 . S
H2318 C2326 0.950 . S
H2319 C2328 0.950 . S
H2320 C2330 0.950 . S
H2321 C2332 0.950 . S
H2322 C2334 0.950 . S
H2323 C2335 0.950 . S
C2324 H2316 0.950 . S
C2324 C2325 1.386 . S
C2324 C2326 1.391 . S
C2325 C2324 1.386 . S
C2325 C2329 1.393 . S
C2326 H2318 0.950 . S
C2326 C2324 1.391 . S
C2326 C2327 1.400 . S
C2327 C2326 1.400 . S
C2327 C2328 1.398 . S
C2327 C2333 1.491 . S
C2328 H2319 0.950 . S
C2328 C2327 1.398 . S
C2328 C2329 1.391 . S
C2329 H2317 0.950 . S
C2329 C2325 1.393 . S
C2329 C2328 1.391 . S
C2330 H2320 0.950 . S
C2330 C2331 1.386 . S
C2330 C2332 1.391 . S
C2331 C2330 1.386 . S
C2331 C2335 1.393 . S
C2332 H2321 0.950 . S
C2332 C2330 1.391 . S
C2332 C2333 1.400 . S
C2333 C2327 1.491 . S
C2333 C2332 1.400 . S
C2333 C2334 1.398 . S
C2334 H2322 0.950 . S
C2334 C2333 1.398 . S
C2334 C2335 1.391 . S
C2335 H2323 0.950 . S
C2335 C2331 1.393 . S
C2335 C2334 1.391 . S
H2336 C2344 0.950 . S
H2337 C2349 0.950 . S
H2338 C2346 0.950 . S
H2339 C2348 0.950 . S
H2340 C2350 0.950 . S
H2341 C2352 0.950 . S
H2342 C2354 0.950 . S
H2343 C2355 0.950 . S
C2344 H2336 0.950 . S
C2344 C2345 1.386 . S
C2344 C2346 1.391 . S
C2345 C2344 1.386 . S
C2345 C2349 1.393 . S
C2346 H2338 0.950 . S
C2346 C2344 1.391 . S
C2346 C2347 1.400 . S
C2347 C2346 1.400 . S
C2347 C2348 1.398 . S
C2347 C2353 1.491 . S
C2348 H2339 0.950 . S
C2348 C2347 1.398 . S
C2348 C2349 1.391 . S
C2349 H2337 0.950 . S
C2349 C2345 1.393 . S
C2349 C2348 1.391 . S
C2350 H2340 0.950 . S
C2350 C2351 1.386 . S
C2350 C2352 1.391 . S
C2351 C2350 1.386 . S
C2351 C2355 1.393 . S
C2352 H2341 0.950 . S
C2352 C2350 1.391 . S
C2352 C2353 1.400 . S
C2353 C2347 1.491 . S
C2353 C2352 1.400 . S
C2353 C2354 1.398 . S
C2354 H2342 0.950 . S
C2354 C2353 1.398 . S
C2354 C2355 1.391 . S
C2355 H2343 0.950 . S
C2355 C2351 1.393 . S
C2355 C2354 1.391 . S
H2356 C2364 0.950 . S
H2357 C2369 0.950 . S
H2358 C2366 0.950 . S
H2359 C2368 0.950 . S
H2360 C2370 0.950 . S
H2361 C2372 0.950 . S
H2362 C2374 0.950 . S
H2363 C2375 0.950 . S
C2364 H2356 0.950 . S
C2364 C2365 1.386 . S
C2364 C2366 1.391 . S
C2365 C2364 1.386 . S
C2365 C2369 1.393 . S
C2366 H2358 0.950 . S
C2366 C2364 1.391 . S
C2366 C2367 1.400 . S
C2367 C2366 1.400 . S
C2367 C2368 1.398 . S
C2367 C2373 1.491 . S
C2368 H2359 0.950 . S
C2368 C2367 1.398 . S
C2368 C2369 1.391 . S
C2369 H2357 0.950 . S
C2369 C2365 1.393 . S
C2369 C2368 1.391 . S
C2370 H2360 0.950 . S
C2370 C2371 1.386 . S
C2370 C2372 1.391 . S
C2371 C2370 1.386 . S
C2371 C2375 1.393 . S
C2372 H2361 0.950 . S
C2372 C2370 1.391 . S
C2372 C2373 1.400 . S
C2373 C2367 1.491 . S
C2373 C2372 1.400 . S
C2373 C2374 1.398 . S
C2374 H2362 0.950 . S
C2374 C2373 1.398 . S
C2374 C2375 1.391 . S
C2375 H2363 0.950 . S
C2375 C2371 1.393 . S
C2375 C2374 1.391 . S
H2376 C2384 0.950 . S
H2377 C2389 0.950 . S
H2378 C2386 0.950 . S
H2379 C2388 0.950 . S
H2380 C2390 0.950 . S
H2381 C2392 0.950 . S
H2382 C2394 0.950 . S
H2383 C2395 0.950 . S
C2384 H2376 0.950 . S
C2384 C2385 1.386 . S
C2384 C2386 1.391 . S
C2385 C2384 1.386 . S
C2385 C2389 1.393 . S
C2386 H2378 0.950 . S
C2386 C2384 1.391 . S
C2386 C2387 1.400 . S
C2387 C2386 1.400 . S
C2387 C2388 1.398 . S
C2387 C2393 1.491 . S
C2388 H2379 0.950 . S
C2388 C2387 1.398 . S
C2388 C2389 1.391 . S
C2389 H2377 0.950 . S
C2389 C2385 1.393 . S
C2389 C2388 1.391 . S
C2390 H2380 0.950 . S
C2390 C2391 1.386 . S
C2390 C2392 1.391 . S
C2391 C2390 1.386 . S
C2391 C2395 1.393 . S
C2392 H2381 0.950 . S
C2392 C2390 1.391 . S
C2392 C2393 1.400 . S
C2393 C2387 1.491 . S
C2393 C2392 1.400 . S
C2393 C2394 1.398 . S
C2394 H2382 0.950 . S
C2394 C2393 1.398 . S
C2394 C2395 1.391 . S
C2395 H2383 0.950 . S
C2395 C2391 1.393 . S
C2395 C2394 1.391 . S
H2396 C2404 0.950 . S
H2397 C2409 0.950 . S
H2398 C2406 0.950 . S
H2399 C2408 0.950 . S
H2400 C2410 0.950 . S
H2401 C2412 0.950 . S
H2402 C2414 0.950 . S
H2403 C2415 0.950 . S
C2404 H2396 0.950 . S
C2404 C2405 1.386 . S
C2404 C2406 1.391 . S
C2405 C2404 1.386 . S
C2405 C2409 1.393 . S
C2406 H2398 0.950 . S
C2406 C2404 1.391 . S
C2406 C2407 1.400 . S
C2407 C2406 1.400 . S
C2407 C2408 1.398 . S
C2407 C2413 1.491 . S
C2408 H2399 0.950 . S
C2408 C2407 1.398 . S
C2408 C2409 1.391 . S
C2409 H2397 0.950 . S
C2409 C2405 1.393 . S
C2409 C2408 1.391 . S
C2410 H2400 0.950 . S
C2410 C2411 1.386 . S
C2410 C2412 1.391 . S
C2411 C2410 1.386 . S
C2411 C2415 1.393 . S
C2412 H2401 0.950 . S
C2412 C2410 1.391 . S
C2412 C2413 1.400 . S
C2413 C2407 1.491 . S
C2413 C2412 1.400 . S
C2413 C2414 1.398 . S
C2414 H2402 0.950 . S
C2414 C2413 1.398 . S
C2414 C2415 1.391 . S
C2415 H2403 0.950 . S
C2415 C2411 1.393 . S
C2415 C2414 1.391 . S
H2416 C2424 0.950 . S
H2417 C2429 0.950 . S
H2418 C2426 0.950 . S
H2419 C2428 0.950 . S
H2420 C2430 0.950 . S
H2421 C2432 0.950 . S
H2422 C2434 0.950 . S
H2423 C2435 0.950 . S
C2424 H2416 0.950 . S
C2424 C2425 1.386 . S
C2424 C2426 1.391 . S
C2425 C2424 1.386 . S
C2425 C2429 1.393 . S
C2426 H2418 0.950 . S
C2426 C2424 1.391 . S
C2426 C2427 1.400 . S
C2427 C2426 1.400 . S
C2427 C2428 1.398 . S
C2427 C2433 1.491 . S
C2428 H2419 0.950 . S
C2428 C2427 1.398 . S
C2428 C2429 1.391 . S
C2429 H2417 0.950 . S
C2429 C2425 1.393 . S
C2429 C2428 1.391 . S
C2430 H2420 0.950 . S
C2430 C2431 1.386 . S
C2430 C2432 1.391 . S
C2431 C2430 1.386 . S
C2431 C2435 1.393 . S
C2432 H2421 0.950 . S
C2432 C2430 1.391 . S
C2432 C2433 1.400 . S
C2433 C2427 1.491 . S
C2433 C2432 1.400 . S
C2433 C2434 1.398 . S
C2434 H2422 0.950 . S
C2434 C2433 1.398 . S
C2434 C2435 1.391 . S
C2435 H2423 0.950 . S
C2435 C2431 1.393 . S
C2435 C2434 1.391 . S
H2436 C2444 0.950 . S
H2437 C2449 0.950 . S
H2438 C2446 0.950 . S
H2439 C2448 0.950 . S
H2440 C2450 0.950 . S
H2441 C2452 0.950 . S
H2442 C2454 0.950 . S
H2443 C2455 0.950 . S
C2444 H2436 0.950 . S
C2444 C2445 1.386 . S
C2444 C2446 1.391 . S
C2445 C2444 1.386 . S
C2445 C2449 1.393 . S
C2446 H2438 0.950 . S
C2446 C2444 1.391 . S
C2446 C2447 1.400 . S
C2447 C2446 1.400 . S
C2447 C2448 1.398 . S
C2447 C2453 1.491 . S
C2448 H2439 0.950 . S
C2448 C2447 1.398 . S
C2448 C2449 1.391 . S
C2449 H2437 0.950 . S
C2449 C2445 1.393 . S
C2449 C2448 1.391 . S
C2450 H2440 0.950 . S
C2450 C2451 1.386 . S
C2450 C2452 1.391 . S
C2451 C2450 1.386 . S
C2451 C2455 1.393 . S
C2452 H2441 0.950 . S
C2452 C2450 1.391 . S
C2452 C2453 1.400 . S
C2453 C2447 1.491 . S
C2453 C2452 1.400 . S
C2453 C2454 1.398 . S
C2454 H2442 0.950 . S
C2454 C2453 1.398 . S
C2454 C2455 1.391 . S
C2455 H2443 0.950 . S
C2455 C2451 1.393 . S
C2455 C2454 1.391 . S
H2456 C2464 0.950 . S
H2457 C2469 0.950 . S
H2458 C2466 0.950 . S
H2459 C2468 0.950 . S
H2460 C2470 0.950 . S
H2461 C2472 0.950 . S
H2462 C2474 0.950 . S
H2463 C2475 0.950 . S
C2464 H2456 0.950 . S
C2464 C2465 1.386 . S
C2464 C2466 1.391 . S
C2465 C2464 1.386 . S
C2465 C2469 1.393 . S
C2466 H2458 0.950 . S
C2466 C2464 1.391 . S
C2466 C2467 1.400 . S
C2467 C2466 1.400 . S
C2467 C2468 1.398 . S
C2467 C2473 1.491 . S
C2468 H2459 0.950 . S
C2468 C2467 1.398 . S
C2468 C2469 1.391 . S
C2469 H2457 0.950 . S
C2469 C2465 1.393 . S
C2469 C2468 1.391 . S
C2470 H2460 0.950 . S
C2470 C2471 1.386 . S
C2470 C2472 1.391 . S
C2471 C2470 1.386 . S
C2471 C2475 1.393 . S
C2472 H2461 0.950 . S
C2472 C2470 1.391 . S
C2472 C2473 1.400 . S
C2473 C2467 1.491 . S
C2473 C2472 1.400 . S
C2473 C2474 1.398 . S
C2474 H2462 0.950 . S
C2474 C2473 1.398 . S
C2474 C2475 1.391 . S
C2475 H2463 0.950 . S
C2475 C2471 1.393 . S
C2475 C2474 1.391 . S
H2476 C2484 0.950 . S
H2477 C2489 0.950 . S
H2478 C2486 0.950 . S
H2479 C2488 0.950 . S
H2480 C2490 0.950 . S
H2481 C2492 0.950 . S
H2482 C2494 0.950 . S
H2483 C2495 0.950 . S
C2484 H2476 0.950 . S
C2484 C2485 1.386 . S
C2484 C2486 1.391 . S
C2485 C2484 1.386 . S
C2485 C2489 1.393 . S
C2486 H2478 0.950 . S
C2486 C2484 1.391 . S
C2486 C2487 1.400 . S
C2487 C2486 1.400 . S
C2487 C2488 1.398 . S
C2487 C2493 1.491 . S
C2488 H2479 0.950 . S
C2488 C2487 1.398 . S
C2488 C2489 1.391 . S
C2489 H2477 0.950 . S
C2489 C2485 1.393 . S
C2489 C2488 1.391 . S
C2490 H2480 0.950 . S
C2490 C2491 1.386 . S
C2490 C2492 1.391 . S
C2491 C2490 1.386 . S
C2491 C2495 1.393 . S
C2492 H2481 0.950 . S
C2492 C2490 1.391 . S
C2492 C2493 1.400 . S
C2493 C2487 1.491 . S
C2493 C2492 1.400 . S
C2493 C2494 1.398 . S
C2494 H2482 0.950 . S
C2494 C2493 1.398 . S
C2494 C2495 1.391 . S
C2495 H2483 0.950 . S
C2495 C2491 1.393 . S
C2495 C2494 1.391 . S
H2496 C2504 0.950 . S
H2497 C2509 0.950 . S
H2498 C2506 0.950 . S
H2499 C2508 0.950 . S
H2500 C2510 0.950 . S
H2501 C2512 0.950 . S
H2502 C2514 0.950 . S
H2503 C2515 0.950 . S
C2504 H2496 0.950 . S
C2504 C2505 1.386 . S
C2504 C2506 1.391 . S
C2505 C2504 1.386 . S
C2505 C2509 1.393 . S
C2506 H2498 0.950 . S
C2506 C2504 1.391 . S
C2506 C2507 1.400 . S
C2507 C2506 1.400 . S
C2507 C2508 1.398 . S
C2507 C2513 1.491 . S
C2508 H2499 0.950 . S
C2508 C2507 1.398 . S
C2508 C2509 1.391 . S
C2509 H2497 0.950 . S
C2509 C2505 1.393 . S
C2509 C2508 1.391 . S
C2510 H2500 0.950 . S
C2510 C2511 1.386 . S
C2510 C2512 1.391 . S
C2511 C2510 1.386 . S
C2511 C2515 1.393 . S
C2512 H2501 0.950 . S
C2512 C2510 1.391 . S
C2512 C2513 1.400 . S
C2513 C2507 1.491 . S
C2513 C2512 1.400 . S
C2513 C2514 1.398 . S
C2514 H2502 0.950 . S
C2514 C2513 1.398 . S
C2514 C2515 1.391 . S
C2515 H2503 0.950 . S
C2515 C2511 1.393 . S
C2515 C2514 1.391 . S
H2516 C2524 0.950 . S
H2517 C2529 0.950 . S
H2518 C2526 0.950 . S
H2519 C2528 0.950 . S
H2520 C2530 0.950 . S
H2521 C2532 0.950 . S
H2522 C2534 0.950 . S
H2523 C2535 0.950 . S
C2524 H2516 0.950 . S
C2524 C2525 1.386 . S
C2524 C2526 1.391 . S
C2525 C2524 1.386 . S
C2525 C2529 1.393 . S
C2526 H2518 0.950 . S
C2526 C2524 1.391 . S
C2526 C2527 1.400 . S
C2527 C2526 1.400 . S
C2527 C2528 1.398 . S
C2527 C2533 1.491 . S
C2528 H2519 0.950 . S
C2528 C2527 1.398 . S
C2528 C2529 1.391 . S
C2529 H2517 0.950 . S
C2529 C2525 1.393 . S
C2529 C2528 1.391 . S
C2530 H2520 0.950 . S
C2530 C2531 1.386 . S
C2530 C2532 1.391 . S
C2531 C2530 1.386 . S
C2531 C2535 1.393 . S
C2532 H2521 0.950 . S
C2532 C2530 1.391 . S
C2532 C2533 1.400 . S
C2533 C2527 1.491 . S
C2533 C2532 1.400 . S
C2533 C2534 1.398 . S
C2534 H2522 0.950 . S
C2534 C2533 1.398 . S
C2534 C2535 1.391 . S
C2535 H2523 0.950 . S
C2535 C2531 1.393 . S
C2535 C2534 1.391 . S
H2536 C2544 0.950 . S
H2537 C2549 0.950 . S
H2538 C2546 0.950 . S
H2539 C2548 0.950 . S
H2540 C2550 0.950 . S
H2541 C2552 0.950 . S
H2542 C2554 0.950 . S
H2543 C2555 0.950 . S
C2544 H2536 0.950 . S
C2544 C2545 1.386 . S
C2544 C2546 1.391 . S
C2545 C2544 1.386 . S
C2545 C2549 1.393 . S
C2546 H2538 0.950 . S
C2546 C2544 1.391 . S
C2546 C2547 1.400 . S
C2547 C2546 1.400 . S
C2547 C2548 1.398 . S
C2547 C2553 1.491 . S
C2548 H2539 0.950 . S
C2548 C2547 1.398 . S
C2548 C2549 1.391 . S
C2549 H2537 0.950 . S
C2549 C2545 1.393 . S
C2549 C2548 1.391 . S
C2550 H2540 0.950 . S
C2550 C2551 1.386 . S
C2550 C2552 1.391 . S
C2551 C2550 1.386 . S
C2551 C2555 1.393 . S
C2552 H2541 0.950 . S
C2552 C2550 1.391 . S
C2552 C2553 1.400 . S
C2553 C2547 1.491 . S
C2553 C2552 1.400 . S
C2553 C2554 1.398 . S
C2554 H2542 0.950 . S
C2554 C2553 1.398 . S
C2554 C2555 1.391 . S
C2555 H2543 0.950 . S
C2555 C2551 1.393 . S
C2555 C2554 1.391 . S
H2556 C2564 0.950 . S
H2557 C2569 0.950 . S
H2558 C2566 0.950 . S
H2559 C2568 0.950 . S
H2560 C2570 0.950 . S
H2561 C2572 0.950 . S
H2562 C2574 0.950 . S
H2563 C2575 0.950 . S
C2564 H2556 0.950 . S
C2564 C2565 1.386 . S
C2564 C2566 1.391 . S
C2565 C2564 1.386 . S
C2565 C2569 1.393 . S
C2566 H2558 0.950 . S
C2566 C2564 1.391 . S
C2566 C2567 1.400 . S
C2567 C2566 1.400 . S
C2567 C2568 1.398 . S
C2567 C2573 1.491 . S
C2568 H2559 0.950 . S
C2568 C2567 1.398 . S
C2568 C2569 1.391 . S
C2569 H2557 0.950 . S
C2569 C2565 1.393 . S
C2569 C2568 1.391 . S
C2570 H2560 0.950 . S
C2570 C2571 1.386 . S
C2570 C2572 1.391 . S
C2571 C2570 1.386 . S
C2571 C2575 1.393 . S
C2572 H2561 0.950 . S
C2572 C2570 1.391 . S
C2572 C2573 1.400 . S
C2573 C2567 1.491 . S
C2573 C2572 1.400 . S
C2573 C2574 1.398 . S
C2574 H2562 0.950 . S
C2574 C2573 1.398 . S
C2574 C2575 1.391 . S
C2575 H2563 0.950 . S
C2575 C2571 1.393 . S
C2575 C2574 1.391 . S
H2576 C2584 0.950 . S
H2577 C2589 0.950 . S
H2578 C2586 0.950 . S
H2579 C2588 0.950 . S
H2580 C2590 0.950 . S
H2581 C2592 0.950 . S
H2582 C2594 0.950 . S
H2583 C2595 0.950 . S
C2584 H2576 0.950 . S
C2584 C2585 1.386 . S
C2584 C2586 1.391 . S
C2585 C2584 1.386 . S
C2585 C2589 1.393 . S
C2586 H2578 0.950 . S
C2586 C2584 1.391 . S
C2586 C2587 1.400 . S
C2587 C2586 1.400 . S
C2587 C2588 1.398 . S
C2587 C2593 1.491 . S
C2588 H2579 0.950 . S
C2588 C2587 1.398 . S
C2588 C2589 1.391 . S
C2589 H2577 0.950 . S
C2589 C2585 1.393 . S
C2589 C2588 1.391 . S
C2590 H2580 0.950 . S
C2590 C2591 1.386 . S
C2590 C2592 1.391 . S
C2591 C2590 1.386 . S
C2591 C2595 1.393 . S
C2592 H2581 0.950 . S
C2592 C2590 1.391 . S
C2592 C2593 1.400 . S
C2593 C2587 1.491 . S
C2593 C2592 1.400 . S
C2593 C2594 1.398 . S
C2594 H2582 0.950 . S
C2594 C2593 1.398 . S
C2594 C2595 1.391 . S
C2595 H2583 0.950 . S
C2595 C2591 1.393 . S
C2595 C2594 1.391 . S
H2596 C2604 0.950 . S
H2597 C2609 0.950 . S
H2598 C2606 0.950 . S
H2599 C2608 0.950 . S
H2600 C2610 0.950 . S
H2601 C2612 0.950 . S
H2602 C2614 0.950 . S
H2603 C2615 0.950 . S
C2604 H2596 0.950 . S
C2604 C2605 1.386 . S
C2604 C2606 1.391 . S
C2605 C2604 1.386 . S
C2605 C2609 1.393 . S
C2606 H2598 0.950 . S
C2606 C2604 1.391 . S
C2606 C2607 1.400 . S
C2607 C2606 1.400 . S
C2607 C2608 1.398 . S
C2607 C2613 1.491 . S
C2608 H2599 0.950 . S
C2608 C2607 1.398 . S
C2608 C2609 1.391 . S
C2609 H2597 0.950 . S
C2609 C2605 1.393 . S
C2609 C2608 1.391 . S
C2610 H2600 0.950 . S
C2610 C2611 1.386 . S
C2610 C2612 1.391 . S
C2611 C2610 1.386 . S
C2611 C2615 1.393 . S
C2612 H2601 0.950 . S
C2612 C2610 1.391 . S
C2612 C2613 1.400 . S
C2613 C2607 1.491 . S
C2613 C2612 1.400 . S
C2613 C2614 1.398 . S
C2614 H2602 0.950 . S
C2614 C2613 1.398 . S
C2614 C2615 1.391 . S
C2615 H2603 0.950 . S
C2615 C2611 1.393 . S
C2615 C2614 1.391 . S
H2616 C2624 0.950 . S
H2617 C2629 0.950 . S
H2618 C2626 0.950 . S
H2619 C2628 0.950 . S
H2620 C2630 0.950 . S
H2621 C2632 0.950 . S
H2622 C2634 0.950 . S
H2623 C2635 0.950 . S
C2624 H2616 0.950 . S
C2624 C2625 1.386 . S
C2624 C2626 1.391 . S
C2625 C2624 1.386 . S
C2625 C2629 1.393 . S
C2626 H2618 0.950 . S
C2626 C2624 1.391 . S
C2626 C2627 1.400 . S
C2627 C2626 1.400 . S
C2627 C2628 1.398 . S
C2627 C2633 1.491 . S
C2628 H2619 0.950 . S
C2628 C2627 1.398 . S
C2628 C2629 1.391 . S
C2629 H2617 0.950 . S
C2629 C2625 1.393 . S
C2629 C2628 1.391 . S
C2630 H2620 0.950 . S
C2630 C2631 1.386 . S
C2630 C2632 1.391 . S
C2631 C2630 1.386 . S
C2631 C2635 1.393 . S
C2632 H2621 0.950 . S
C2632 C2630 1.391 . S
C2632 C2633 1.400 . S
C2633 C2627 1.491 . S
C2633 C2632 1.400 . S
C2633 C2634 1.398 . S
C2634 H2622 0.950 . S
C2634 C2633 1.398 . S
C2634 C2635 1.391 . S
C2635 H2623 0.950 . S
C2635 C2631 1.393 . S
C2635 C2634 1.391 . S
H2636 C2644 0.950 . S
H2637 C2649 0.950 . S
H2638 C2646 0.950 . S
H2639 C2648 0.950 . S
H2640 C2650 0.950 . S
H2641 C2652 0.950 . S
H2642 C2654 0.950 . S
H2643 C2655 0.950 . S
C2644 H2636 0.950 . S
C2644 C2645 1.386 . S
C2644 C2646 1.391 . S
C2645 C2644 1.386 . S
C2645 C2649 1.393 . S
C2646 H2638 0.950 . S
C2646 C2644 1.391 . S
C2646 C2647 1.400 . S
C2647 C2646 1.400 . S
C2647 C2648 1.398 . S
C2647 C2653 1.491 . S
C2648 H2639 0.950 . S
C2648 C2647 1.398 . S
C2648 C2649 1.391 . S
C2649 H2637 0.950 . S
C2649 C2645 1.393 . S
C2649 C2648 1.391 . S
C2650 H2640 0.950 . S
C2650 C2651 1.386 . S
C2650 C2652 1.391 . S
C2651 C2650 1.386 . S
C2651 C2655 1.393 . S
C2652 H2641 0.950 . S
C2652 C2650 1.391 . S
C2652 C2653 1.400 . S
C2653 C2647 1.491 . S
C2653 C2652 1.400 . S
C2653 C2654 1.398 . S
C2654 H2642 0.950 . S
C2654 C2653 1.398 . S
C2654 C2655 1.391 . S
C2655 H2643 0.950 . S
C2655 C2651 1.393 . S
C2655 C2654 1.391 . S
H2656 C2664 0.950 . S
H2657 C2669 0.950 . S
H2658 C2666 0.950 . S
H2659 C2668 0.950 . S
H2660 C2670 0.950 . S
H2661 C2672 0.950 . S
H2662 C2674 0.950 . S
H2663 C2675 0.950 . S
C2664 H2656 0.950 . S
C2664 C2665 1.386 . S
C2664 C2666 1.391 . S
C2665 C2664 1.386 . S
C2665 C2669 1.393 . S
C2666 H2658 0.950 . S
C2666 C2664 1.391 . S
C2666 C2667 1.400 . S
C2667 C2666 1.400 . S
C2667 C2668 1.398 . S
C2667 C2673 1.491 . S
C2668 H2659 0.950 . S
C2668 C2667 1.398 . S
C2668 C2669 1.391 . S
C2669 H2657 0.950 . S
C2669 C2665 1.393 . S
C2669 C2668 1.391 . S
C2670 H2660 0.950 . S
C2670 C2671 1.386 . S
C2670 C2672 1.391 . S
C2671 C2670 1.386 . S
C2671 C2675 1.393 . S
C2672 H2661 0.950 . S
C2672 C2670 1.391 . S
C2672 C2673 1.400 . S
C2673 C2667 1.491 . S
C2673 C2672 1.400 . S
C2673 C2674 1.398 . S
C2674 H2662 0.950 . S
C2674 C2673 1.398 . S
C2674 C2675 1.391 . S
C2675 H2663 0.950 . S
C2675 C2671 1.393 . S
C2675 C2674 1.391 . S
H2676 C2684 0.950 . S
H2677 C2689 0.950 . S
H2678 C2686 0.950 . S
H2679 C2688 0.950 . S
H2680 C2690 0.950 . S
H2681 C2692 0.950 . S
H2682 C2694 0.950 . S
H2683 C2695 0.950 . S
C2684 H2676 0.950 . S
C2684 C2685 1.386 . S
C2684 C2686 1.391 . S
C2685 C2684 1.386 . S
C2685 C2689 1.393 . S
C2686 H2678 0.950 . S
C2686 C2684 1.391 . S
C2686 C2687 1.400 . S
C2687 C2686 1.400 . S
C2687 C2688 1.398 . S
C2687 C2693 1.491 . S
C2688 H2679 0.950 . S
C2688 C2687 1.398 . S
C2688 C2689 1.391 . S
C2689 H2677 0.950 . S
C2689 C2685 1.393 . S
C2689 C2688 1.391 . S
C2690 H2680 0.950 . S
C2690 C2691 1.386 . S
C2690 C2692 1.391 . S
C2691 C2690 1.386 . S
C2691 C2695 1.393 . S
C2692 H2681 0.950 . S
C2692 C2690 1.391 . S
C2692 C2693 1.400 . S
C2693 C2687 1.491 . S
C2693 C2692 1.400 . S
C2693 C2694 1.398 . S
C2694 H2682 0.950 . S
C2694 C2693 1.398 . S
C2694 C2695 1.391 . S
C2695 H2683 0.950 . S
C2695 C2691 1.393 . S
C2695 C2694 1.391 . S
H2696 C2704 0.950 . S
H2697 C2709 0.950 . S
H2698 C2706 0.950 . S
H2699 C2708 0.950 . S
H2700 C2710 0.950 . S
H2701 C2712 0.950 . S
H2702 C2714 0.950 . S
H2703 C2715 0.950 . S
C2704 H2696 0.950 . S
C2704 C2705 1.386 . S
C2704 C2706 1.391 . S
C2705 C2704 1.386 . S
C2705 C2709 1.393 . S
C2706 H2698 0.950 . S
C2706 C2704 1.391 . S
C2706 C2707 1.400 . S
C2707 C2706 1.400 . S
C2707 C2708 1.398 . S
C2707 C2713 1.491 . S
C2708 H2699 0.950 . S
C2708 C2707 1.398 . S
C2708 C2709 1.391 . S
C2709 H2697 0.950 . S
C2709 C2705 1.393 . S
C2709 C2708 1.391 . S
C2710 H2700 0.950 . S
C2710 C2711 1.386 . S
C2710 C2712 1.391 . S
C2711 C2710 1.386 . S
C2711 C2715 1.393 . S
C2712 H2701 0.950 . S
C2712 C2710 1.391 . S
C2712 C2713 1.400 . S
C2713 C2707 1.491 . S
C2713 C2712 1.400 . S
C2713 C2714 1.398 . S
C2714 H2702 0.950 . S
C2714 C2713 1.398 . S
C2714 C2715 1.391 . S
C2715 H2703 0.950 . S
C2715 C2711 1.393 . S
C2715 C2714 1.391 . S
H2716 C2724 0.950 . S
H2717 C2729 0.950 . S
H2718 C2726 0.950 . S
H2719 C2728 0.950 . S
H2720 C2730 0.950 . S
H2721 C2732 0.950 . S
H2722 C2734 0.950 . S
H2723 C2735 0.950 . S
C2724 H2716 0.950 . S
C2724 C2725 1.386 . S
C2724 C2726 1.391 . S
C2725 C2724 1.386 . S
C2725 C2729 1.393 . S
C2726 H2718 0.950 . S
C2726 C2724 1.391 . S
C2726 C2727 1.400 . S
C2727 C2726 1.400 . S
C2727 C2728 1.398 . S
C2727 C2733 1.491 . S
C2728 H2719 0.950 . S
C2728 C2727 1.398 . S
C2728 C2729 1.391 . S
C2729 H2717 0.950 . S
C2729 C2725 1.393 . S
C2729 C2728 1.391 . S
C2730 H2720 0.950 . S
C2730 C2731 1.386 . S
C2730 C2732 1.391 . S
C2731 C2730 1.386 . S
C2731 C2735 1.393 . S
C2732 H2721 0.950 . S
C2732 C2730 1.391 . S
C2732 C2733 1.400 . S
C2733 C2727 1.491 . S
C2733 C2732 1.400 . S
C2733 C2734 1.398 . S
C2734 H2722 0.950 . S
C2734 C2733 1.398 . S
C2734 C2735 1.391 . S
C2735 H2723 0.950 . S
C2735 C2731 1.393 . S
C2735 C2734 1.391 . S
H2736 C2744 0.950 . S
H2737 C2749 0.950 . S
H2738 C2746 0.950 . S
H2739 C2748 0.950 . S
H2740 C2750 0.950 . S
H2741 C2752 0.950 . S
H2742 C2754 0.950 . S
H2743 C2755 0.950 . S
C2744 H2736 0.950 . S
C2744 C2745 1.386 . S
C2744 C2746 1.391 . S
C2745 C2744 1.386 . S
C2745 C2749 1.393 . S
C2746 H2738 0.950 . S
C2746 C2744 1.391 . S
C2746 C2747 1.400 . S
C2747 C2746 1.400 . S
C2747 C2748 1.398 . S
C2747 C2753 1.491 . S
C2748 H2739 0.950 . S
C2748 C2747 1.398 . S
C2748 C2749 1.391 . S
C2749 H2737 0.950 . S
C2749 C2745 1.393 . S
C2749 C2748 1.391 . S
C2750 H2740 0.950 . S
C2750 C2751 1.386 . S
C2750 C2752 1.391 . S
C2751 C2750 1.386 . S
C2751 C2755 1.393 . S
C2752 H2741 0.950 . S
C2752 C2750 1.391 . S
C2752 C2753 1.400 . S
C2753 C2747 1.491 . S
C2753 C2752 1.400 . S
C2753 C2754 1.398 . S
C2754 H2742 0.950 . S
C2754 C2753 1.398 . S
C2754 C2755 1.391 . S
C2755 H2743 0.950 . S
C2755 C2751 1.393 . S
C2755 C2754 1.391 . S
H2756 C2764 0.950 . S
H2757 C2769 0.950 . S
H2758 C2766 0.950 . S
H2759 C2768 0.950 . S
H2760 C2770 0.950 . S
H2761 C2772 0.950 . S
H2762 C2774 0.950 . S
H2763 C2775 0.950 . S
C2764 H2756 0.950 . S
C2764 C2765 1.386 . S
C2764 C2766 1.391 . S
C2765 C2764 1.386 . S
C2765 C2769 1.393 . S
C2766 H2758 0.950 . S
C2766 C2764 1.391 . S
C2766 C2767 1.400 . S
C2767 C2766 1.400 . S
C2767 C2768 1.398 . S
C2767 C2773 1.491 . S
C2768 H2759 0.950 . S
C2768 C2767 1.398 . S
C2768 C2769 1.391 . S
C2769 H2757 0.950 . S
C2769 C2765 1.393 . S
C2769 C2768 1.391 . S
C2770 H2760 0.950 . S
C2770 C2771 1.386 . S
C2770 C2772 1.391 . S
C2771 C2770 1.386 . S
C2771 C2775 1.393 . S
C2772 H2761 0.950 . S
C2772 C2770 1.391 . S
C2772 C2773 1.400 . S
C2773 C2767 1.491 . S
C2773 C2772 1.400 . S
C2773 C2774 1.398 . S
C2774 H2762 0.950 . S
C2774 C2773 1.398 . S
C2774 C2775 1.391 . S
C2775 H2763 0.950 . S
C2775 C2771 1.393 . S
C2775 C2774 1.391 . S
H2776 C2784 0.950 . S
H2777 C2789 0.950 . S
H2778 C2786 0.950 . S
H2779 C2788 0.950 . S
H2780 C2790 0.950 . S
H2781 C2792 0.950 . S
H2782 C2794 0.950 . S
H2783 C2795 0.950 . S
C2784 H2776 0.950 . S
C2784 C2785 1.386 . S
C2784 C2786 1.391 . S
C2785 C2784 1.386 . S
C2785 C2789 1.393 . S
C2786 H2778 0.950 . S
C2786 C2784 1.391 . S
C2786 C2787 1.400 . S
C2787 C2786 1.400 . S
C2787 C2788 1.398 . S
C2787 C2793 1.491 . S
C2788 H2779 0.950 . S
C2788 C2787 1.398 . S
C2788 C2789 1.391 . S
C2789 H2777 0.950 . S
C2789 C2785 1.393 . S
C2789 C2788 1.391 . S
C2790 H2780 0.950 . S
C2790 C2791 1.386 . S
C2790 C2792 1.391 . S
C2791 C2790 1.386 . S
C2791 C2795 1.393 . S
C2792 H2781 0.950 . S
C2792 C2790 1.391 . S
C2792 C2793 1.400 . S
C2793 C2787 1.491 . S
C2793 C2792 1.400 . S
C2793 C2794 1.398 . S
C2794 H2782 0.950 . S
C2794 C2793 1.398 . S
C2794 C2795 1.391 . S
C2795 H2783 0.950 . S
C2795 C2791 1.393 . S
C2795 C2794 1.391 . S
H2796 C2804 0.950 . S
H2797 C2809 0.950 . S
H2798 C2806 0.950 . S
H2799 C2808 0.950 . S
H2800 C2810 0.950 . S
H2801 C2812 0.950 . S
H2802 C2814 0.950 . S
H2803 C2815 0.950 . S
C2804 H2796 0.950 . S
C2804 C2805 1.386 . S
C2804 C2806 1.391 . S
C2805 C2804 1.386 . S
C2805 C2809 1.393 . S
C2806 H2798 0.950 . S
C2806 C2804 1.391 . S
C2806 C2807 1.400 . S
C2807 C2806 1.400 . S
C2807 C2808 1.398 . S
C2807 C2813 1.491 . S
C2808 H2799 0.950 . S
C2808 C2807 1.398 . S
C2808 C2809 1.391 . S
C2809 H2797 0.950 . S
C2809 C2805 1.393 . S
C2809 C2808 1.391 . S
C2810 H2800 0.950 . S
C2810 C2811 1.386 . S
C2810 C2812 1.391 . S
C2811 C2810 1.386 . S
C2811 C2815 1.393 . S
C2812 H2801 0.950 . S
C2812 C2810 1.391 . S
C2812 C2813 1.400 . S
C2813 C2807 1.491 . S
C2813 C2812 1.400 . S
C2813 C2814 1.398 . S
C2814 H2802 0.950 . S
C2814 C2813 1.398 . S
C2814 C2815 1.391 . S
C2815 H2803 0.950 . S
C2815 C2811 1.393 . S
C2815 C2814 1.391 . S
H2816 C2824 0.950 . S
H2817 C2829 0.950 . S
H2818 C2826 0.950 . S
H2819 C2828 0.950 . S
H2820 C2830 0.950 . S
H2821 C2832 0.950 . S
H2822 C2834 0.950 . S
H2823 C2835 0.950 . S
C2824 H2816 0.950 . S
C2824 C2825 1.386 . S
C2824 C2826 1.391 . S
C2825 C2824 1.386 . S
C2825 C2829 1.393 . S
C2826 H2818 0.950 . S
C2826 C2824 1.391 . S
C2826 C2827 1.400 . S
C2827 C2826 1.400 . S
C2827 C2828 1.398 . S
C2827 C2833 1.491 . S
C2828 H2819 0.950 . S
C2828 C2827 1.398 . S
C2828 C2829 1.391 . S
C2829 H2817 0.950 . S
C2829 C2825 1.393 . S
C2829 C2828 1.391 . S
C2830 H2820 0.950 . S
C2830 C2831 1.386 . S
C2830 C2832 1.391 . S
C2831 C2830 1.386 . S
C2831 C2835 1.393 . S
C2832 H2821 0.950 . S
C2832 C2830 1.391 . S
C2832 C2833 1.400 . S
C2833 C2827 1.491 . S
C2833 C2832 1.400 . S
C2833 C2834 1.398 . S
C2834 H2822 0.950 . S
C2834 C2833 1.398 . S
C2834 C2835 1.391 . S
C2835 H2823 0.950 . S
C2835 C2831 1.393 . S
C2835 C2834 1.391 . S
H2836 C2844 0.950 . S
H2837 C2849 0.950 . S
H2838 C2846 0.950 . S
H2839 C2848 0.950 . S
H2840 C2850 0.950 . S
H2841 C2852 0.950 . S
H2842 C2854 0.950 . S
H2843 C2855 0.950 . S
C2844 H2836 0.950 . S
C2844 C2845 1.386 . S
C2844 C2846 1.391 . S
C2845 C2844 1.386 . S
C2845 C2849 1.393 . S
C2846 H2838 0.950 . S
C2846 C2844 1.391 . S
C2846 C2847 1.400 . S
C2847 C2846 1.400 . S
C2847 C2848 1.398 . S
C2847 C2853 1.491 . S
C2848 H2839 0.950 . S
C2848 C2847 1.398 . S
C2848 C2849 1.391 . S
C2849 H2837 0.950 . S
C2849 C2845 1.393 . S
C2849 C2848 1.391 . S
C2850 H2840 0.950 . S
C2850 C2851 1.386 . S
C2850 C2852 1.391 . S
C2851 C2850 1.386 . S
C2851 C2855 1.393 . S
C2852 H2841 0.950 . S
C2852 C2850 1.391 . S
C2852 C2853 1.400 . S
C2853 C2847 1.491 . S
C2853 C2852 1.400 . S
C2853 C2854 1.398 . S
C2854 H2842 0.950 . S
C2854 C2853 1.398 . S
C2854 C2855 1.391 . S
C2855 H2843 0.950 . S
C2855 C2851 1.393 . S
C2855 C2854 1.391 . S
H2856 C2864 0.950 . S
H2857 C2869 0.950 . S
H2858 C2866 0.950 . S
H2859 C2868 0.950 . S
H2860 C2870 0.950 . S
H2861 C2872 0.950 . S
H2862 C2874 0.950 . S
H2863 C2875 0.950 . S
C2864 H2856 0.950 . S
C2864 C2865 1.386 . S
C2864 C2866 1.391 . S
C2865 C2864 1.386 . S
C2865 C2869 1.393 . S
C2866 H2858 0.950 . S
C2866 C2864 1.391 . S
C2866 C2867 1.400 . S
C2867 C2866 1.400 . S
C2867 C2868 1.398 . S
C2867 C2873 1.491 . S
C2868 H2859 0.950 . S
C2868 C2867 1.398 . S
C2868 C2869 1.391 . S
C2869 H2857 0.950 . S
C2869 C2865 1.393 . S
C2869 C2868 1.391 . S
C2870 H2860 0.950 . S
C2870 C2871 1.386 . S
C2870 C2872 1.391 . S
C2871 C2870 1.386 . S
C2871 C2875 1.393 . S
C2872 H2861 0.950 . S
C2872 C2870 1.391 . S
C2872 C2873 1.400 . S
C2873 C2867 1.491 . S
C2873 C2872 1.400 . S
C2873 C2874 1.398 . S
C2874 H2862 0.950 . S
C2874 C2873 1.398 . S
C2874 C2875 1.391 . S
C2875 H2863 0.950 . S
C2875 C2871 1.393 . S
C2875 C2874 1.391 . S
H2876 C2884 0.950 . S
H2877 C2889 0.950 . S
H2878 C2886 0.950 . S
H2879 C2888 0.950 . S
H2880 C2890 0.950 . S
H2881 C2892 0.950 . S
H2882 C2894 0.950 . S
H2883 C2895 0.950 . S
C2884 H2876 0.950 . S
C2884 C2885 1.386 . S
C2884 C2886 1.391 . S
C2885 C2884 1.386 . S
C2885 C2889 1.393 . S
C2886 H2878 0.950 . S
C2886 C2884 1.391 . S
C2886 C2887 1.400 . S
C2887 C2886 1.400 . S
C2887 C2888 1.398 . S
C2887 C2893 1.491 . S
C2888 H2879 0.950 . S
C2888 C2887 1.398 . S
C2888 C2889 1.391 . S
C2889 H2877 0.950 . S
C2889 C2885 1.393 . S
C2889 C2888 1.391 . S
C2890 H2880 0.950 . S
C2890 C2891 1.386 . S
C2890 C2892 1.391 . S
C2891 C2890 1.386 . S
C2891 C2895 1.393 . S
C2892 H2881 0.950 . S
C2892 C2890 1.391 . S
C2892 C2893 1.400 . S
C2893 C2887 1.491 . S
C2893 C2892 1.400 . S
C2893 C2894 1.398 . S
C2894 H2882 0.950 . S
C2894 C2893 1.398 . S
C2894 C2895 1.391 . S
C2895 H2883 0.950 . S
C2895 C2891 1.393 . S
C2895 C2894 1.391 . S
H2896 C2904 0.950 . S
H2897 C2909 0.950 . S
H2898 C2906 0.950 . S
H2899 C2908 0.950 . S
H2900 C2910 0.950 . S
H2901 C2912 0.950 . S
H2902 C2914 0.950 . S
H2903 C2915 0.950 . S
C2904 H2896 0.950 . S
C2904 C2905 1.386 . S
C2904 C2906 1.391 . S
C2905 C2904 1.386 . S
C2905 C2909 1.393 . S
C2906 H2898 0.950 . S
C2906 C2904 1.391 . S
C2906 C2907 1.400 . S
C2907 C2906 1.400 . S
C2907 C2908 1.398 . S
C2907 C2913 1.491 . S
C2908 H2899 0.950 . S
C2908 C2907 1.398 . S
C2908 C2909 1.391 . S
C2909 H2897 0.950 . S
C2909 C2905 1.393 . S
C2909 C2908 1.391 . S
C2910 H2900 0.950 . S
C2910 C2911 1.386 . S
C2910 C2912 1.391 . S
C2911 C2910 1.386 . S
C2911 C2915 1.393 . S
C2912 H2901 0.950 . S
C2912 C2910 1.391 . S
C2912 C2913 1.400 . S
C2913 C2907 1.491 . S
C2913 C2912 1.400 . S
C2913 C2914 1.398 . S
C2914 H2902 0.950 . S
C2914 C2913 1.398 . S
C2914 C2915 1.391 . S
C2915 H2903 0.950 . S
C2915 C2911 1.393 . S
C2915 C2914 1.391 . S
H2916 C2924 0.950 . S
H2917 C2929 0.950 . S
H2918 C2926 0.950 . S
H2919 C2928 0.950 . S
H2920 C2930 0.950 . S
H2921 C2932 0.950 . S
H2922 C2934 0.950 . S
H2923 C2935 0.950 . S
C2924 H2916 0.950 . S
C2924 C2925 1.386 . S
C2924 C2926 1.391 . S
C2925 C2924 1.386 . S
C2925 C2929 1.393 . S
C2926 H2918 0.950 . S
C2926 C2924 1.391 . S
C2926 C2927 1.400 . S
C2927 C2926 1.400 . S
C2927 C2928 1.398 . S
C2927 C2933 1.491 . S
C2928 H2919 0.950 . S
C2928 C2927 1.398 . S
C2928 C2929 1.391 . S
C2929 H2917 0.950 . S
C2929 C2925 1.393 . S
C2929 C2928 1.391 . S
C2930 H2920 0.950 . S
C2930 C2931 1.386 . S
C2930 C2932 1.391 . S
C2931 C2930 1.386 . S
C2931 C2935 1.393 . S
C2932 H2921 0.950 . S
C2932 C2930 1.391 . S
C2932 C2933 1.400 . S
C2933 C2927 1.491 . S
C2933 C2932 1.400 . S
C2933 C2934 1.398 . S
C2934 H2922 0.950 . S
C2934 C2933 1.398 . S
C2934 C2935 1.391 . S
C2935 H2923 0.950 . S
C2935 C2931 1.393 . S
C2935 C2934 1.391 . S
H2936 C2944 0.950 . S
H2937 C2949 0.950 . S
H2938 C2946 0.950 . S
H2939 C2948 0.950 . S
H2940 C2950 0.950 . S
H2941 C2952 0.950 . S
H2942 C2954 0.950 . S
H2943 C2955 0.950 . S
C2944 H2936 0.950 . S
C2944 C2945 1.386 . S
C2944 C2946 1.391 . S
C2945 C2944 1.386 . S
C2945 C2949 1.393 . S
C2946 H2938 0.950 . S
C2946 C2944 1.391 . S
C2946 C2947 1.400 . S
C2947 C2946 1.400 . S
C2947 C2948 1.398 . S
C2947 C2953 1.491 . S
C2948 H2939 0.950 . S
C2948 C2947 1.398 . S
C2948 C2949 1.391 . S
C2949 H2937 0.950 . S
C2949 C2945 1.393 . S
C2949 C2948 1.391 . S
C2950 H2940 0.950 . S
C2950 C2951 1.386 . S
C2950 C2952 1.391 . S
C2951 C2950 1.386 . S
C2951 C2955 1.393 . S
C2952 H2941 0.950 . S
C2952 C2950 1.391 . S
C2952 C2953 1.400 . S
C2953 C2947 1.491 . S
C2953 C2952 1.400 . S
C2953 C2954 1.398 . S
C2954 H2942 0.950 . S
C2954 C2953 1.398 . S
C2954 C2955 1.391 . S
C2955 H2943 0.950 . S
C2955 C2951 1.393 . S
C2955 C2954 1.391 . S
H2956 C2964 0.950 . S
H2957 C2969 0.950 . S
H2958 C2966 0.950 . S
H2959 C2968 0.950 . S
H2960 C2970 0.950 . S
H2961 C2972 0.950 . S
H2962 C2974 0.950 . S
H2963 C2975 0.950 . S
C2964 H2956 0.950 . S
C2964 C2965 1.386 . S
C2964 C2966 1.391 . S
C2965 C2964 1.386 . S
C2965 C2969 1.393 . S
C2966 H2958 0.950 . S
C2966 C2964 1.391 . S
C2966 C2967 1.400 . S
C2967 C2966 1.400 . S
C2967 C2968 1.398 . S
C2967 C2973 1.491 . S
C2968 H2959 0.950 . S
C2968 C2967 1.398 . S
C2968 C2969 1.391 . S
C2969 H2957 0.950 . S
C2969 C2965 1.393 . S
C2969 C2968 1.391 . S
C2970 H2960 0.950 . S
C2970 C2971 1.386 . S
C2970 C2972 1.391 . S
C2971 C2970 1.386 . S
C2971 C2975 1.393 . S
C2972 H2961 0.950 . S
C2972 C2970 1.391 . S
C2972 C2973 1.400 . S
C2973 C2967 1.491 . S
C2973 C2972 1.400 . S
C2973 C2974 1.398 . S
C2974 H2962 0.950 . S
C2974 C2973 1.398 . S
C2974 C2975 1.391 . S
C2975 H2963 0.950 . S
C2975 C2971 1.393 . S
C2975 C2974 1.391 . S
H2976 C2984 0.950 . S
H2977 C2989 0.950 . S
H2978 C2986 0.950 . S
H2979 C2988 0.950 . S
H2980 C2990 0.950 . S
H2981 C2992 0.950 . S
H2982 C2994 0.950 . S
H2983 C2995 0.950 . S
C2984 H2976 0.950 . S
C2984 C2985 1.386 . S
C2984 C2986 1.391 . S
C2985 C2984 1.386 . S
C2985 C2989 1.393 . S
C2986 H2978 0.950 . S
C2986 C2984 1.391 . S
C2986 C2987 1.400 . S
C2987 C2986 1.400 . S
C2987 C2988 1.398 . S
C2987 C2993 1.491 . S
C2988 H2979 0.950 . S
C2988 C2987 1.398 . S
C2988 C2989 1.391 . S
C2989 H2977 0.950 . S
C2989 C2985 1.393 . S
C2989 C2988 1.391 . S
C2990 H2980 0.950 . S
C2990 C2991 1.386 . S
C2990 C2992 1.391 . S
C2991 C2990 1.386 . S
C2991 C2995 1.393 . S
C2992 H2981 0.950 . S
C2992 C2990 1.391 . S
C2992 C2993 1.400 . S
C2993 C2987 1.491 . S
C2993 C2992 1.400 . S
C2993 C2994 1.398 . S
C2994 H2982 0.950 . S
C2994 C2993 1.398 . S
C2994 C2995 1.391 . S
C2995 H2983 0.950 . S
C2995 C2991 1.393 . S
C2995 C2994 1.391 . S
H2996 C3004 0.950 . S
H2997 C3009 0.950 . S
H2998 C3006 0.950 . S
H2999 C3008 0.950 . S
H3000 C3010 0.950 . S
H3001 C3012 0.950 . S
H3002 C3014 0.950 . S
H3003 C3015 0.950 . S
C3004 H2996 0.950 . S
C3004 C3005 1.386 . S
C3004 C3006 1.391 . S
C3005 C3004 1.386 . S
C3005 C3009 1.393 . S
C3006 H2998 0.950 . S
C3006 C3004 1.391 . S
C3006 C3007 1.400 . S
C3007 C3006 1.400 . S
C3007 C3008 1.398 . S
C3007 C3013 1.491 . S
C3008 H2999 0.950 . S
C3008 C3007 1.398 . S
C3008 C3009 1.391 . S
C3009 H2997 0.950 . S
C3009 C3005 1.393 . S
C3009 C3008 1.391 . S
C3010 H3000 0.950 . S
C3010 C3011 1.386 . S
C3010 C3012 1.391 . S
C3011 C3010 1.386 . S
C3011 C3015 1.393 . S
C3012 H3001 0.950 . S
C3012 C3010 1.391 . S
C3012 C3013 1.400 . S
C3013 C3007 1.491 . S
C3013 C3012 1.400 . S
C3013 C3014 1.398 . S
C3014 H3002 0.950 . S
C3014 C3013 1.398 . S
C3014 C3015 1.391 . S
C3015 H3003 0.950 . S
C3015 C3011 1.393 . S
C3015 C3014 1.391 . S
H3016 C3024 0.950 . S
H3017 C3029 0.950 . S
H3018 C3026 0.950 . S
H3019 C3028 0.950 . S
H3020 C3030 0.950 . S
H3021 C3032 0.950 . S
H3022 C3034 0.950 . S
H3023 C3035 0.950 . S
C3024 H3016 0.950 . S
C3024 C3025 1.386 . S
C3024 C3026 1.391 . S
C3025 C3024 1.386 . S
C3025 C3029 1.393 . S
C3026 H3018 0.950 . S
C3026 C3024 1.391 . S
C3026 C3027 1.400 . S
C3027 C3026 1.400 . S
C3027 C3028 1.398 . S
C3027 C3033 1.491 . S
C3028 H3019 0.950 . S
C3028 C3027 1.398 . S
C3028 C3029 1.391 . S
C3029 H3017 0.950 . S
C3029 C3025 1.393 . S
C3029 C3028 1.391 . S
C3030 H3020 0.950 . S
C3030 C3031 1.386 . S
C3030 C3032 1.391 . S
C3031 C3030 1.386 . S
C3031 C3035 1.393 . S
C3032 H3021 0.950 . S
C3032 C3030 1.391 . S
C3032 C3033 1.400 . S
C3033 C3027 1.491 . S
C3033 C3032 1.400 . S
C3033 C3034 1.398 . S
C3034 H3022 0.950 . S
C3034 C3033 1.398 . S
C3034 C3035 1.391 . S
C3035 H3023 0.950 . S
C3035 C3031 1.393 . S
C3035 C3034 1.391 . S
H3036 C3044 0.950 . S
H3037 C3049 0.950 . S
H3038 C3046 0.950 . S
H3039 C3048 0.950 . S
H3040 C3050 0.950 . S
H3041 C3052 0.950 . S
H3042 C3054 0.950 . S
H3043 C3055 0.950 . S
C3044 H3036 0.950 . S
C3044 C3045 1.386 . S
C3044 C3046 1.391 . S
C3045 C3044 1.386 . S
C3045 C3049 1.393 . S
C3046 H3038 0.950 . S
C3046 C3044 1.391 . S
C3046 C3047 1.400 . S
C3047 C3046 1.400 . S
C3047 C3048 1.398 . S
C3047 C3053 1.491 . S
C3048 H3039 0.950 . S
C3048 C3047 1.398 . S
C3048 C3049 1.391 . S
C3049 H3037 0.950 . S
C3049 C3045 1.393 . S
C3049 C3048 1.391 . S
C3050 H3040 0.950 . S
C3050 C3051 1.386 . S
C3050 C3052 1.391 . S
C3051 C3050 1.386 . S
C3051 C3055 1.393 . S
C3052 H3041 0.950 . S
C3052 C3050 1.391 . S
C3052 C3053 1.400 . S
C3053 C3047 1.491 . S
C3053 C3052 1.400 . S
C3053 C3054 1.398 . S
C3054 H3042 0.950 . S
C3054 C3053 1.398 . S
C3054 C3055 1.391 . S
C3055 H3043 0.950 . S
C3055 C3051 1.393 . S
C3055 C3054 1.391 . S
H3056 C3064 0.950 . S
H3057 C3069 0.950 . S
H3058 C3066 0.950 . S
H3059 C3068 0.950 . S
H3060 C3070 0.950 . S
H3061 C3072 0.950 . S
H3062 C3074 0.950 . S
H3063 C3075 0.950 . S
C3064 H3056 0.950 . S
C3064 C3065 1.386 . S
C3064 C3066 1.391 . S
C3065 C3064 1.386 . S
C3065 C3069 1.393 . S
C3066 H3058 0.950 . S
C3066 C3064 1.391 . S
C3066 C3067 1.400 . S
C3067 C3066 1.400 . S
C3067 C3068 1.398 . S
C3067 C3073 1.491 . S
C3068 H3059 0.950 . S
C3068 C3067 1.398 . S
C3068 C3069 1.391 . S
C3069 H3057 0.950 . S
C3069 C3065 1.393 . S
C3069 C3068 1.391 . S
C3070 H3060 0.950 . S
C3070 C3071 1.386 . S
C3070 C3072 1.391 . S
C3071 C3070 1.386 . S
C3071 C3075 1.393 . S
C3072 H3061 0.950 . S
C3072 C3070 1.391 . S
C3072 C3073 1.400 . S
C3073 C3067 1.491 . S
C3073 C3072 1.400 . S
C3073 C3074 1.398 . S
C3074 H3062 0.950 . S
C3074 C3073 1.398 . S
C3074 C3075 1.391 . S
C3075 H3063 0.950 . S
C3075 C3071 1.393 . S
C3075 C3074 1.391 . S
H3076 C3084 0.950 . S
H3077 C3089 0.950 . S
H3078 C3086 0.950 . S
H3079 C3088 0.950 . S
H3080 C3090 0.950 . S
H3081 C3092 0.950 . S
H3082 C3094 0.950 . S
H3083 C3095 0.950 . S
C3084 H3076 0.950 . S
C3084 C3085 1.386 . S
C3084 C3086 1.391 . S
C3085 C3084 1.386 . S
C3085 C3089 1.393 . S
C3086 H3078 0.950 . S
C3086 C3084 1.391 . S
C3086 C3087 1.400 . S
C3087 C3086 1.400 . S
C3087 C3088 1.398 . S
C3087 C3093 1.491 . S
C3088 H3079 0.950 . S
C3088 C3087 1.398 . S
C3088 C3089 1.391 . S
C3089 H3077 0.950 . S
C3089 C3085 1.393 . S
C3089 C3088 1.391 . S
C3090 H3080 0.950 . S
C3090 C3091 1.386 . S
C3090 C3092 1.391 . S
C3091 C3090 1.386 . S
C3091 C3095 1.393 . S
C3092 H3081 0.950 . S
C3092 C3090 1.391 . S
C3092 C3093 1.400 . S
C3093 C3087 1.491 . S
C3093 C3092 1.400 . S
C3093 C3094 1.398 . S
C3094 H3082 0.950 . S
C3094 C3093 1.398 . S
C3094 C3095 1.391 . S
C3095 H3083 0.950 . S
C3095 C3091 1.393 . S
C3095 C3094 1.391 . S
H3096 C3104 0.950 . S
H3097 C3109 0.950 . S
H3098 C3106 0.950 . S
H3099 C3108 0.950 . S
H3100 C3110 0.950 . S
H3101 C3112 0.950 . S
H3102 C3114 0.950 . S
H3103 C3115 0.950 . S
C3104 H3096 0.950 . S
C3104 C3105 1.386 . S
C3104 C3106 1.391 . S
C3105 C3104 1.386 . S
C3105 C3109 1.393 . S
C3106 H3098 0.950 . S
C3106 C3104 1.391 . S
C3106 C3107 1.400 . S
C3107 C3106 1.400 . S
C3107 C3108 1.398 . S
C3107 C3113 1.491 . S
C3108 H3099 0.950 . S
C3108 C3107 1.398 . S
C3108 C3109 1.391 . S
C3109 H3097 0.950 . S
C3109 C3105 1.393 . S
C3109 C3108 1.391 . S
C3110 H3100 0.950 . S
C3110 C3111 1.386 . S
C3110 C3112 1.391 . S
C3111 C3110 1.386 . S
C3111 C3115 1.393 . S
C3112 H3101 0.950 . S
C3112 C3110 1.391 . S
C3112 C3113 1.400 . S
C3113 C3107 1.491 . S
C3113 C3112 1.400 . S
C3113 C3114 1.398 . S
C3114 H3102 0.950 . S
C3114 C3113 1.398 . S
C3114 C3115 1.391 . S
C3115 H3103 0.950 . S
C3115 C3111 1.393 . S
C3115 C3114 1.391 . S
H3116 C3124 0.950 . S
H3117 C3129 0.950 . S
H3118 C3126 0.950 . S
H3119 C3128 0.950 . S
H3120 C3130 0.950 . S
H3121 C3132 0.950 . S
H3122 C3134 0.950 . S
H3123 C3135 0.950 . S
C3124 H3116 0.950 . S
C3124 C3125 1.386 . S
C3124 C3126 1.391 . S
C3125 C3124 1.386 . S
C3125 C3129 1.393 . S
C3126 H3118 0.950 . S
C3126 C3124 1.391 . S
C3126 C3127 1.400 . S
C3127 C3126 1.400 . S
C3127 C3128 1.398 . S
C3127 C3133 1.491 . S
C3128 H3119 0.950 . S
C3128 C3127 1.398 . S
C3128 C3129 1.391 . S
C3129 H3117 0.950 . S
C3129 C3125 1.393 . S
C3129 C3128 1.391 . S
C3130 H3120 0.950 . S
C3130 C3131 1.386 . S
C3130 C3132 1.391 . S
C3131 C3130 1.386 . S
C3131 C3135 1.393 . S
C3132 H3121 0.950 . S
C3132 C3130 1.391 . S
C3132 C3133 1.400 . S
C3133 C3127 1.491 . S
C3133 C3132 1.400 . S
C3133 C3134 1.398 . S
C3134 H3122 0.950 . S
C3134 C3133 1.398 . S
C3134 C3135 1.391 . S
C3135 H3123 0.950 . S
C3135 C3131 1.393 . S
C3135 C3134 1.391 . S
H3136 C3144 0.950 . S
H3137 C3149 0.950 . S
H3138 C3146 0.950 . S
H3139 C3148 0.950 . S
H3140 C3150 0.950 . S
H3141 C3152 0.950 . S
H3142 C3154 0.950 . S
H3143 C3155 0.950 . S
C3144 H3136 0.950 . S
C3144 C3145 1.386 . S
C3144 C3146 1.391 . S
C3145 C3144 1.386 . S
C3145 C3149 1.393 . S
C3146 H3138 0.950 . S
C3146 C3144 1.391 . S
C3146 C3147 1.400 . S
C3147 C3146 1.400 . S
C3147 C3148 1.398 . S
C3147 C3153 1.491 . S
C3148 H3139 0.950 . S
C3148 C3147 1.398 . S
C3148 C3149 1.391 . S
C3149 H3137 0.950 . S
C3149 C3145 1.393 . S
C3149 C3148 1.391 . S
C3150 H3140 0.950 . S
C3150 C3151 1.386 . S
C3150 C3152 1.391 . S
C3151 C3150 1.386 . S
C3151 C3155 1.393 . S
C3152 H3141 0.950 . S
C3152 C3150 1.391 . S
C3152 C3153 1.400 . S
C3153 C3147 1.491 . S
C3153 C3152 1.400 . S
C3153 C3154 1.398 . S
C3154 H3142 0.950 . S
C3154 C3153 1.398 . S
C3154 C3155 1.391 . S
C3155 H3143 0.950 . S
C3155 C3151 1.393 . S
C3155 C3154 1.391 . S
H3156 C3164 0.950 . S
H3157 C3169 0.950 . S
H3158 C3166 0.950 . S
H3159 C3168 0.950 . S
H3160 C3170 0.950 . S
H3161 C3172 0.950 . S
H3162 C3174 0.950 . S
H3163 C3175 0.950 . S
C3164 H3156 0.950 . S
C3164 C3165 1.386 . S
C3164 C3166 1.391 . S
C3165 C3164 1.386 . S
C3165 C3169 1.393 . S
C3166 H3158 0.950 . S
C3166 C3164 1.391 . S
C3166 C3167 1.400 . S
C3167 C3166 1.400 . S
C3167 C3168 1.398 . S
C3167 C3173 1.491 . S
C3168 H3159 0.950 . S
C3168 C3167 1.398 . S
C3168 C3169 1.391 . S
C3169 H3157 0.950 . S
C3169 C3165 1.393 . S
C3169 C3168 1.391 . S
C3170 H3160 0.950 . S
C3170 C3171 1.386 . S
C3170 C3172 1.391 . S
C3171 C3170 1.386 . S
C3171 C3175 1.393 . S
C3172 H3161 0.950 . S
C3172 C3170 1.391 . S
C3172 C3173 1.400 . S
C3173 C3167 1.491 . S
C3173 C3172 1.400 . S
C3173 C3174 1.398 . S
C3174 H3162 0.950 . S
C3174 C3173 1.398 . S
C3174 C3175 1.391 . S
C3175 H3163 0.950 . S
C3175 C3171 1.393 . S
C3175 C3174 1.391 . S
H3176 C3184 0.950 . S
H3177 C3189 0.950 . S
H3178 C3186 0.950 . S
H3179 C3188 0.950 . S
H3180 C3190 0.950 . S
H3181 C3192 0.950 . S
H3182 C3194 0.950 . S
H3183 C3195 0.950 . S
C3184 H3176 0.950 . S
C3184 C3185 1.386 . S
C3184 C3186 1.391 . S
C3185 C3184 1.386 . S
C3185 C3189 1.393 . S
C3186 H3178 0.950 . S
C3186 C3184 1.391 . S
C3186 C3187 1.400 . S
C3187 C3186 1.400 . S
C3187 C3188 1.398 . S
C3187 C3193 1.491 . S
C3188 H3179 0.950 . S
C3188 C3187 1.398 . S
C3188 C3189 1.391 . S
C3189 H3177 0.950 . S
C3189 C3185 1.393 . S
C3189 C3188 1.391 . S
C3190 H3180 0.950 . S
C3190 C3191 1.386 . S
C3190 C3192 1.391 . S
C3191 C3190 1.386 . S
C3191 C3195 1.393 . S
C3192 H3181 0.950 . S
C3192 C3190 1.391 . S
C3192 C3193 1.400 . S
C3193 C3187 1.491 . S
C3193 C3192 1.400 . S
C3193 C3194 1.398 . S
C3194 H3182 0.950 . S
C3194 C3193 1.398 . S
C3194 C3195 1.391 . S
C3195 H3183 0.950 . S
C3195 C3191 1.393 . S
C3195 C3194 1.391 . S
H3196 C3204 0.950 . S
H3197 C3209 0.950 . S
H3198 C3206 0.950 . S
H3199 C3208 0.950 . S
H3200 C3210 0.950 . S
H3201 C3212 0.950 . S
H3202 C3214 0.950 . S
H3203 C3215 0.950 . S
C3204 H3196 0.950 . S
C3204 C3205 1.386 . S
C3204 C3206 1.391 . S
C3205 C3204 1.386 . S
C3205 C3209 1.393 . S
C3206 H3198 0.950 . S
C3206 C3204 1.391 . S
C3206 C3207 1.400 . S
C3207 C3206 1.400 . S
C3207 C3208 1.398 . S
C3207 C3213 1.491 . S
C3208 H3199 0.950 . S
C3208 C3207 1.398 . S
C3208 C3209 1.391 . S
C3209 H3197 0.950 . S
C3209 C3205 1.393 . S
C3209 C3208 1.391 . S
C3210 H3200 0.950 . S
C3210 C3211 1.386 . S
C3210 C3212 1.391 . S
C3211 C3210 1.386 . S
C3211 C3215 1.393 . S
C3212 H3201 0.950 . S
C3212 C3210 1.391 . S
C3212 C3213 1.400 . S
C3213 C3207 1.491 . S
C3213 C3212 1.400 . S
C3213 C3214 1.398 . S
C3214 H3202 0.950 . S
C3214 C3213 1.398 . S
C3214 C3215 1.391 . S
C3215 H3203 0.950 . S
C3215 C3211 1.393 . S
C3215 C3214 1.391 . S
H3216 C3224 0.950 . S
H3217 C3229 0.950 . S
H3218 C3226 0.950 . S
H3219 C3228 0.950 . S
H3220 C3230 0.950 . S
H3221 C3232 0.950 . S
H3222 C3234 0.950 . S
H3223 C3235 0.950 . S
C3224 H3216 0.950 . S
C3224 C3225 1.386 . S
C3224 C3226 1.391 . S
C3225 C3224 1.386 . S
C3225 C3229 1.393 . S
C3226 H3218 0.950 . S
C3226 C3224 1.391 . S
C3226 C3227 1.400 . S
C3227 C3226 1.400 . S
C3227 C3228 1.398 . S
C3227 C3233 1.491 . S
C3228 H3219 0.950 . S
C3228 C3227 1.398 . S
C3228 C3229 1.391 . S
C3229 H3217 0.950 . S
C3229 C3225 1.393 . S
C3229 C3228 1.391 . S
C3230 H3220 0.950 . S
C3230 C3231 1.386 . S
C3230 C3232 1.391 . S
C3231 C3230 1.386 . S
C3231 C3235 1.393 . S
C3232 H3221 0.950 . S
C3232 C3230 1.391 . S
C3232 C3233 1.400 . S
C3233 C3227 1.491 . S
C3233 C3232 1.400 . S
C3233 C3234 1.398 . S
C3234 H3222 0.950 . S
C3234 C3233 1.398 . S
C3234 C3235 1.391 . S
C3235 H3223 0.950 . S
C3235 C3231 1.393 . S
C3235 C3234 1.391 . S
H3236 C3244 0.950 . S
H3237 C3249 0.950 . S
H3238 C3246 0.950 . S
H3239 C3248 0.950 . S
H3240 C3250 0.950 . S
H3241 C3252 0.950 . S
H3242 C3254 0.950 . S
H3243 C3255 0.950 . S
C3244 H3236 0.950 . S
C3244 C3245 1.386 . S
C3244 C3246 1.391 . S
C3245 C3244 1.386 . S
C3245 C3249 1.393 . S
C3246 H3238 0.950 . S
C3246 C3244 1.391 . S
C3246 C3247 1.400 . S
C3247 C3246 1.400 . S
C3247 C3248 1.398 . S
C3247 C3253 1.491 . S
C3248 H3239 0.950 . S
C3248 C3247 1.398 . S
C3248 C3249 1.391 . S
C3249 H3237 0.950 . S
C3249 C3245 1.393 . S
C3249 C3248 1.391 . S
C3250 H3240 0.950 . S
C3250 C3251 1.386 . S
C3250 C3252 1.391 . S
C3251 C3250 1.386 . S
C3251 C3255 1.393 . S
C3252 H3241 0.950 . S
C3252 C3250 1.391 . S
C3252 C3253 1.400 . S
C3253 C3247 1.491 . S
C3253 C3252 1.400 . S
C3253 C3254 1.398 . S
C3254 H3242 0.950 . S
C3254 C3253 1.398 . S
C3254 C3255 1.391 . S
C3255 H3243 0.950 . S
C3255 C3251 1.393 . S
C3255 C3254 1.391 . S
H3256 C3264 0.950 . S
H3257 C3269 0.950 . S
H3258 C3266 0.950 . S
H3259 C3268 0.950 . S
H3260 C3270 0.950 . S
H3261 C3272 0.950 . S
H3262 C3274 0.950 . S
H3263 C3275 0.950 . S
C3264 H3256 0.950 . S
C3264 C3265 1.386 . S
C3264 C3266 1.391 . S
C3265 C3264 1.386 . S
C3265 C3269 1.393 . S
C3266 H3258 0.950 . S
C3266 C3264 1.391 . S
C3266 C3267 1.400 . S
C3267 C3266 1.400 . S
C3267 C3268 1.398 . S
C3267 C3273 1.491 . S
C3268 H3259 0.950 . S
C3268 C3267 1.398 . S
C3268 C3269 1.391 . S
C3269 H3257 0.950 . S
C3269 C3265 1.393 . S
C3269 C3268 1.391 . S
C3270 H3260 0.950 . S
C3270 C3271 1.386 . S
C3270 C3272 1.391 . S
C3271 C3270 1.386 . S
C3271 C3275 1.393 . S
C3272 H3261 0.950 . S
C3272 C3270 1.391 . S
C3272 C3273 1.400 . S
C3273 C3267 1.491 . S
C3273 C3272 1.400 . S
C3273 C3274 1.398 . S
C3274 H3262 0.950 . S
C3274 C3273 1.398 . S
C3274 C3275 1.391 . S
C3275 H3263 0.950 . S
C3275 C3271 1.393 . S
C3275 C3274 1.391 . S
H3276 C3284 0.950 . S
H3277 C3289 0.950 . S
H3278 C3286 0.950 . S
H3279 C3288 0.950 . S
H3280 C3290 0.950 . S
H3281 C3292 0.950 . S
H3282 C3294 0.950 . S
H3283 C3295 0.950 . S
C3284 H3276 0.950 . S
C3284 C3285 1.386 . S
C3284 C3286 1.391 . S
C3285 C3284 1.386 . S
C3285 C3289 1.393 . S
C3286 H3278 0.950 . S
C3286 C3284 1.391 . S
C3286 C3287 1.400 . S
C3287 C3286 1.400 . S
C3287 C3288 1.398 . S
C3287 C3293 1.491 . S
C3288 H3279 0.950 . S
C3288 C3287 1.398 . S
C3288 C3289 1.391 . S
C3289 H3277 0.950 . S
C3289 C3285 1.393 . S
C3289 C3288 1.391 . S
C3290 H3280 0.950 . S
C3290 C3291 1.386 . S
C3290 C3292 1.391 . S
C3291 C3290 1.386 . S
C3291 C3295 1.393 . S
C3292 H3281 0.950 . S
C3292 C3290 1.391 . S
C3292 C3293 1.400 . S
C3293 C3287 1.491 . S
C3293 C3292 1.400 . S
C3293 C3294 1.398 . S
C3294 H3282 0.950 . S
C3294 C3293 1.398 . S
C3294 C3295 1.391 . S
C3295 H3283 0.950 . S
C3295 C3291 1.393 . S
C3295 C3294 1.391 . S
H3296 C3304 0.950 . S
H3297 C3309 0.950 . S
H3298 C3306 0.950 . S
H3299 C3308 0.950 . S
H3300 C3310 0.950 . S
H3301 C3312 0.950 . S
H3302 C3314 0.950 . S
H3303 C3315 0.950 . S
C3304 H3296 0.950 . S
C3304 C3305 1.386 . S
C3304 C3306 1.391 . S
C3305 C3304 1.386 . S
C3305 C3309 1.393 . S
C3306 H3298 0.950 . S
C3306 C3304 1.391 . S
C3306 C3307 1.400 . S
C3307 C3306 1.400 . S
C3307 C3308 1.398 . S
C3307 C3313 1.491 . S
C3308 H3299 0.950 . S
C3308 C3307 1.398 . S
C3308 C3309 1.391 . S
C3309 H3297 0.950 . S
C3309 C3305 1.393 . S
C3309 C3308 1.391 . S
C3310 H3300 0.950 . S
C3310 C3311 1.386 . S
C3310 C3312 1.391 . S
C3311 C3310 1.386 . S
C3311 C3315 1.393 . S
C3312 H3301 0.950 . S
C3312 C3310 1.391 . S
C3312 C3313 1.400 . S
C3313 C3307 1.491 . S
C3313 C3312 1.400 . S
C3313 C3314 1.398 . S
C3314 H3302 0.950 . S
C3314 C3313 1.398 . S
C3314 C3315 1.391 . S
C3315 H3303 0.950 . S
C3315 C3311 1.393 . S
C3315 C3314 1.391 . S
H3316 C3324 0.950 . S
H3317 C3329 0.950 . S
H3318 C3326 0.950 . S
H3319 C3328 0.950 . S
H3320 C3330 0.950 . S
H3321 C3332 0.950 . S
H3322 C3334 0.950 . S
H3323 C3335 0.950 . S
C3324 H3316 0.950 . S
C3324 C3325 1.386 . S
C3324 C3326 1.391 . S
C3325 C3324 1.386 . S
C3325 C3329 1.393 . S
C3326 H3318 0.950 . S
C3326 C3324 1.391 . S
C3326 C3327 1.400 . S
C3327 C3326 1.400 . S
C3327 C3328 1.398 . S
C3327 C3333 1.491 . S
C3328 H3319 0.950 . S
C3328 C3327 1.398 . S
C3328 C3329 1.391 . S
C3329 H3317 0.950 . S
C3329 C3325 1.393 . S
C3329 C3328 1.391 . S
C3330 H3320 0.950 . S
C3330 C3331 1.386 . S
C3330 C3332 1.391 . S
C3331 C3330 1.386 . S
C3331 C3335 1.393 . S
C3332 H3321 0.950 . S
C3332 C3330 1.391 . S
C3332 C3333 1.400 . S
C3333 C3327 1.491 . S
C3333 C3332 1.400 . S
C3333 C3334 1.398 . S
C3334 H3322 0.950 . S
C3334 C3333 1.398 . S
C3334 C3335 1.391 . S
C3335 H3323 0.950 . S
C3335 C3331 1.393 . S
C3335 C3334 1.391 . S
H3336 C3344 0.950 . S
H3337 C3349 0.950 . S
H3338 C3346 0.950 . S
H3339 C3348 0.950 . S
H3340 C3350 0.950 . S
H3341 C3352 0.950 . S
H3342 C3354 0.950 . S
H3343 C3355 0.950 . S
C3344 H3336 0.950 . S
C3344 C3345 1.386 . S
C3344 C3346 1.391 . S
C3345 C3344 1.386 . S
C3345 C3349 1.393 . S
C3346 H3338 0.950 . S
C3346 C3344 1.391 . S
C3346 C3347 1.400 . S
C3347 C3346 1.400 . S
C3347 C3348 1.398 . S
C3347 C3353 1.491 . S
C3348 H3339 0.950 . S
C3348 C3347 1.398 . S
C3348 C3349 1.391 . S
C3349 H3337 0.950 . S
C3349 C3345 1.393 . S
C3349 C3348 1.391 . S
C3350 H3340 0.950 . S
C3350 C3351 1.386 . S
C3350 C3352 1.391 . S
C3351 C3350 1.386 . S
C3351 C3355 1.393 . S
C3352 H3341 0.950 . S
C3352 C3350 1.391 . S
C3352 C3353 1.400 . S
C3353 C3347 1.491 . S
C3353 C3352 1.400 . S
C3353 C3354 1.398 . S
C3354 H3342 0.950 . S
C3354 C3353 1.398 . S
C3354 C3355 1.391 . S
C3355 H3343 0.950 . S
C3355 C3351 1.393 . S
C3355 C3354 1.391 . S
H3356 C3364 0.950 . S
H3357 C3369 0.950 . S
H3358 C3366 0.950 . S
H3359 C3368 0.950 . S
H3360 C3370 0.950 . S
H3361 C3372 0.950 . S
H3362 C3374 0.950 . S
H3363 C3375 0.950 . S
C3364 H3356 0.950 . S
C3364 C3365 1.386 . S
C3364 C3366 1.391 . S
C3365 C3364 1.386 . S
C3365 C3369 1.393 . S
C3366 H3358 0.950 . S
C3366 C3364 1.391 . S
C3366 C3367 1.400 . S
C3367 C3366 1.400 . S
C3367 C3368 1.398 . S
C3367 C3373 1.491 . S
C3368 H3359 0.950 . S
C3368 C3367 1.398 . S
C3368 C3369 1.391 . S
C3369 H3357 0.950 . S
C3369 C3365 1.393 . S
C3369 C3368 1.391 . S
C3370 H3360 0.950 . S
C3370 C3371 1.386 . S
C3370 C3372 1.391 . S
C3371 C3370 1.386 . S
C3371 C3375 1.393 . S
C3372 H3361 0.950 . S
C3372 C3370 1.391 . S
C3372 C3373 1.400 . S
C3373 C3367 1.491 . S
C3373 C3372 1.400 . S
C3373 C3374 1.398 . S
C3374 H3362 0.950 . S
C3374 C3373 1.398 . S
C3374 C3375 1.391 . S
C3375 H3363 0.950 . S
C3375 C3371 1.393 . S
C3375 C3374 1.391 . S
H3376 C3384 0.950 . S
H3377 C3389 0.950 . S
H3378 C3386 0.950 . S
H3379 C3388 0.950 . S
H3380 C3390 0.950 . S
H3381 C3392 0.950 . S
H3382 C3394 0.950 . S
H3383 C3395 0.950 . S
C3384 H3376 0.950 . S
C3384 C3385 1.386 . S
C3384 C3386 1.391 . S
C3385 C3384 1.386 . S
C3385 C3389 1.393 . S
C3386 H3378 0.950 . S
C3386 C3384 1.391 . S
C3386 C3387 1.400 . S
C3387 C3386 1.400 . S
C3387 C3388 1.398 . S
C3387 C3393 1.491 . S
C3388 H3379 0.950 . S
C3388 C3387 1.398 . S
C3388 C3389 1.391 . S
C3389 H3377 0.950 . S
C3389 C3385 1.393 . S
C3389 C3388 1.391 . S
C3390 H3380 0.950 . S
C3390 C3391 1.386 . S
C3390 C3392 1.391 . S
C3391 C3390 1.386 . S
C3391 C3395 1.393 . S
C3392 H3381 0.950 . S
C3392 C3390 1.391 . S
C3392 C3393 1.400 . S
C3393 C3387 1.491 . S
C3393 C3392 1.400 . S
C3393 C3394 1.398 . S
C3394 H3382 0.950 . S
C3394 C3393 1.398 . S
C3394 C3395 1.391 . S
C3395 H3383 0.950 . S
C3395 C3391 1.393 . S
C3395 C3394 1.391 . S
H3396 C3404 0.950 . S
H3397 C3409 0.950 . S
H3398 C3406 0.950 . S
H3399 C3408 0.950 . S
H3400 C3410 0.950 . S
H3401 C3412 0.950 . S
H3402 C3414 0.950 . S
H3403 C3415 0.950 . S
C3404 H3396 0.950 . S
C3404 C3405 1.386 . S
C3404 C3406 1.391 . S
C3405 C3404 1.386 . S
C3405 C3409 1.393 . S
C3406 H3398 0.950 . S
C3406 C3404 1.391 . S
C3406 C3407 1.400 . S
C3407 C3406 1.400 . S
C3407 C3408 1.398 . S
C3407 C3413 1.491 . S
C3408 H3399 0.950 . S
C3408 C3407 1.398 . S
C3408 C3409 1.391 . S
C3409 H3397 0.950 . S
C3409 C3405 1.393 . S
C3409 C3408 1.391 . S
C3410 H3400 0.950 . S
C3410 C3411 1.386 . S
C3410 C3412 1.391 . S
C3411 C3410 1.386 . S
C3411 C3415 1.393 . S
C3412 H3401 0.950 . S
C3412 C3410 1.391 . S
C3412 C3413 1.400 . S
C3413 C3407 1.491 . S
C3413 C3412 1.400 . S
C3413 C3414 1.398 . S
C3414 H3402 0.950 . S
C3414 C3413 1.398 . S
C3414 C3415 1.391 . S
C3415 H3403 0.950 . S
C3415 C3411 1.393 . S
C3415 C3414 1.391 . S
H3416 C3424 0.950 . S
H3417 C3429 0.950 . S
H3418 C3426 0.950 . S
H3419 C3428 0.950 . S
H3420 C3430 0.950 . S
H3421 C3432 0.950 . S
H3422 C3434 0.950 . S
H3423 C3435 0.950 . S
C3424 H3416 0.950 . S
C3424 C3425 1.386 . S
C3424 C3426 1.391 . S
C3425 C3424 1.386 . S
C3425 C3429 1.393 . S
C3426 H3418 0.950 . S
C3426 C3424 1.391 . S
C3426 C3427 1.400 . S
C3427 C3426 1.400 . S
C3427 C3428 1.398 . S
C3427 C3433 1.491 . S
C3428 H3419 0.950 . S
C3428 C3427 1.398 . S
C3428 C3429 1.391 . S
C3429 H3417 0.950 . S
C3429 C3425 1.393 . S
C3429 C3428 1.391 . S
C3430 H3420 0.950 . S
C3430 C3431 1.386 . S
C3430 C3432 1.391 . S
C3431 C3430 1.386 . S
C3431 C3435 1.393 . S
C3432 H3421 0.950 . S
C3432 C3430 1.391 . S
C3432 C3433 1.400 . S
C3433 C3427 1.491 . S
C3433 C3432 1.400 . S
C3433 C3434 1.398 . S
C3434 H3422 0.950 . S
C3434 C3433 1.398 . S
C3434 C3435 1.391 . S
C3435 H3423 0.950 . S
C3435 C3431 1.393 . S
C3435 C3434 1.391 . S
H3436 C3444 0.950 . S
H3437 C3449 0.950 . S
H3438 C3446 0.950 . S
H3439 C3448 0.950 . S
H3440 C3450 0.950 . S
H3441 C3452 0.950 . S
H3442 C3454 0.950 . S
H3443 C3455 0.950 . S
C3444 H3436 0.950 . S
C3444 C3445 1.386 . S
C3444 C3446 1.391 . S
C3445 C3444 1.386 . S
C3445 C3449 1.393 . S
C3446 H3438 0.950 . S
C3446 C3444 1.391 . S
C3446 C3447 1.400 . S
C3447 C3446 1.400 . S
C3447 C3448 1.398 . S
C3447 C3453 1.491 . S
C3448 H3439 0.950 . S
C3448 C3447 1.398 . S
C3448 C3449 1.391 . S
C3449 H3437 0.950 . S
C3449 C3445 1.393 . S
C3449 C3448 1.391 . S
C3450 H3440 0.950 . S
C3450 C3451 1.386 . S
C3450 C3452 1.391 . S
C3451 C3450 1.386 . S
C3451 C3455 1.393 . S
C3452 H3441 0.950 . S
C3452 C3450 1.391 . S
C3452 C3453 1.400 . S
C3453 C3447 1.491 . S
C3453 C3452 1.400 . S
C3453 C3454 1.398 . S
C3454 H3442 0.950 . S
C3454 C3453 1.398 . S
C3454 C3455 1.391 . S
C3455 H3443 0.950 . S
C3455 C3451 1.393 . S
C3455 C3454 1.391 . S
H3456 C3464 0.950 . S
H3457 C3469 0.950 . S
H3458 C3466 0.950 . S
H3459 C3468 0.950 . S
H3460 C3470 0.950 . S
H3461 C3472 0.950 . S
H3462 C3474 0.950 . S
H3463 C3475 0.950 . S
C3464 H3456 0.950 . S
C3464 C3465 1.386 . S
C3464 C3466 1.391 . S
C3465 C3464 1.386 . S
C3465 C3469 1.393 . S
C3466 H3458 0.950 . S
C3466 C3464 1.391 . S
C3466 C3467 1.400 . S
C3467 C3466 1.400 . S
C3467 C3468 1.398 . S
C3467 C3473 1.491 . S
C3468 H3459 0.950 . S
C3468 C3467 1.398 . S
C3468 C3469 1.391 . S
C3469 H3457 0.950 . S
C3469 C3465 1.393 . S
C3469 C3468 1.391 . S
C3470 H3460 0.950 . S
C3470 C3471 1.386 . S
C3470 C3472 1.391 . S
C3471 C3470 1.386 . S
C3471 C3475 1.393 . S
C3472 H3461 0.950 . S
C3472 C3470 1.391 . S
C3472 C3473 1.400 . S
C3473 C3467 1.491 . S
C3473 C3472 1.400 . S
C3473 C3474 1.398 . S
C3474 H3462 0.950 . S
C3474 C3473 1.398 . S
C3474 C3475 1.391 . S
C3475 H3463 0.950 . S
C3475 C3471 1.393 . S
C3475 C3474 1.391 . S
H3476 C3484 0.950 . S
H3477 C3489 0.950 . S
H3478 C3486 0.950 . S
H3479 C3488 0.950 . S
H3480 C3490 0.950 . S
H3481 C3492 0.950 . S
H3482 C3494 0.950 . S
H3483 C3495 0.950 . S
C3484 H3476 0.950 . S
C3484 C3485 1.386 . S
C3484 C3486 1.391 . S
C3485 C3484 1.386 . S
C3485 C3489 1.393 . S
C3486 H3478 0.950 . S
C3486 C3484 1.391 . S
C3486 C3487 1.400 . S
C3487 C3486 1.400 . S
C3487 C3488 1.398 . S
C3487 C3493 1.491 . S
C3488 H3479 0.950 . S
C3488 C3487 1.398 . S
C3488 C3489 1.391 . S
C3489 H3477 0.950 . S
C3489 C3485 1.393 . S
C3489 C3488 1.391 . S
C3490 H3480 0.950 . S
C3490 C3491 1.386 . S
C3490 C3492 1.391 . S
C3491 C3490 1.386 . S
C3491 C3495 1.393 . S
C3492 H3481 0.950 . S
C3492 C3490 1.391 . S
C3492 C3493 1.400 . S
C3493 C3487 1.491 . S
C3493 C3492 1.400 . S
C3493 C3494 1.398 . S
C3494 H3482 0.950 . S
C3494 C3493 1.398 . S
C3494 C3495 1.391 . S
C3495 H3483 0.950 . S
C3495 C3491 1.393 . S
C3495 C3494 1.391 . S
H3496 C3504 0.950 . S
H3497 C3509 0.950 . S
H3498 C3506 0.950 . S
H3499 C3508 0.950 . S
H3500 C3510 0.950 . S
H3501 C3512 0.950 . S
H3502 C3514 0.950 . S
H3503 C3515 0.950 . S
C3504 H3496 0.950 . S
C3504 C3505 1.386 . S
C3504 C3506 1.391 . S
C3505 C3504 1.386 . S
C3505 C3509 1.393 . S
C3506 H3498 0.950 . S
C3506 C3504 1.391 . S
C3506 C3507 1.400 . S
C3507 C3506 1.400 . S
C3507 C3508 1.398 . S
C3507 C3513 1.491 . S
C3508 H3499 0.950 . S
C3508 C3507 1.398 . S
C3508 C3509 1.391 . S
C3509 H3497 0.950 . S
C3509 C3505 1.393 . S
C3509 C3508 1.391 . S
C3510 H3500 0.950 . S
C3510 C3511 1.386 . S
C3510 C3512 1.391 . S
C3511 C3510 1.386 . S
C3511 C3515 1.393 . S
C3512 H3501 0.950 . S
C3512 C3510 1.391 . S
C3512 C3513 1.400 . S
C3513 C3507 1.491 . S
C3513 C3512 1.400 . S
C3513 C3514 1.398 . S
C3514 H3502 0.950 . S
C3514 C3513 1.398 . S
C3514 C3515 1.391 . S
C3515 H3503 0.950 . S
C3515 C3511 1.393 . S
C3515 C3514 1.391 . S
H3516 C3524 0.950 . S
H3517 C3529 0.950 . S
H3518 C3526 0.950 . S
H3519 C3528 0.950 . S
H3520 C3530 0.950 . S
H3521 C3532 0.950 . S
H3522 C3534 0.950 . S
H3523 C3535 0.950 . S
C3524 H3516 0.950 . S
C3524 C3525 1.386 . S
C3524 C3526 1.391 . S
C3525 C3524 1.386 . S
C3525 C3529 1.393 . S
C3526 H3518 0.950 . S
C3526 C3524 1.391 . S
C3526 C3527 1.400 . S
C3527 C3526 1.400 . S
C3527 C3528 1.398 . S
C3527 C3533 1.491 . S
C3528 H3519 0.950 . S
C3528 C3527 1.398 . S
C3528 C3529 1.391 . S
C3529 H3517 0.950 . S
C3529 C3525 1.393 . S
C3529 C3528 1.391 . S
C3530 H3520 0.950 . S
C3530 C3531 1.386 . S
C3530 C3532 1.391 . S
C3531 C3530 1.386 . S
C3531 C3535 1.393 . S
C3532 H3521 0.950 . S
C3532 C3530 1.391 . S
C3532 C3533 1.400 . S
C3533 C3527 1.491 . S
C3533 C3532 1.400 . S
C3533 C3534 1.398 . S
C3534 H3522 0.950 . S
C3534 C3533 1.398 . S
C3534 C3535 1.391 . S
C3535 H3523 0.950 . S
C3535 C3531 1.393 . S
C3535 C3534 1.391 . S
H3536 C3544 0.950 . S
H3537 C3549 0.950 . S
H3538 C3546 0.950 . S
H3539 C3548 0.950 . S
H3540 C3550 0.950 . S
H3541 C3552 0.950 . S
H3542 C3554 0.950 . S
H3543 C3555 0.950 . S
C3544 H3536 0.950 . S
C3544 C3545 1.386 . S
C3544 C3546 1.391 . S
C3545 C3544 1.386 . S
C3545 C3549 1.393 . S
C3546 H3538 0.950 . S
C3546 C3544 1.391 . S
C3546 C3547 1.400 . S
C3547 C3546 1.400 . S
C3547 C3548 1.398 . S
C3547 C3553 1.491 . S
C3548 H3539 0.950 . S
C3548 C3547 1.398 . S
C3548 C3549 1.391 . S
C3549 H3537 0.950 . S
C3549 C3545 1.393 . S
C3549 C3548 1.391 . S
C3550 H3540 0.950 . S
C3550 C3551 1.386 . S
C3550 C3552 1.391 . S
C3551 C3550 1.386 . S
C3551 C3555 1.393 . S
C3552 H3541 0.950 . S
C3552 C3550 1.391 . S
C3552 C3553 1.400 . S
C3553 C3547 1.491 . S
C3553 C3552 1.400 . S
C3553 C3554 1.398 . S
C3554 H3542 0.950 . S
C3554 C3553 1.398 . S
C3554 C3555 1.391 . S
C3555 H3543 0.950 . S
C3555 C3551 1.393 . S
C3555 C3554 1.391 . S
H3556 C3564 0.950 . S
H3557 C3569 0.950 . S
H3558 C3566 0.950 . S
H3559 C3568 0.950 . S
H3560 C3570 0.950 . S
H3561 C3572 0.950 . S
H3562 C3574 0.950 . S
H3563 C3575 0.950 . S
C3564 H3556 0.950 . S
C3564 C3565 1.386 . S
C3564 C3566 1.391 . S
C3565 C3564 1.386 . S
C3565 C3569 1.393 . S
C3566 H3558 0.950 . S
C3566 C3564 1.391 . S
C3566 C3567 1.400 . S
C3567 C3566 1.400 . S
C3567 C3568 1.398 . S
C3567 C3573 1.491 . S
C3568 H3559 0.950 . S
C3568 C3567 1.398 . S
C3568 C3569 1.391 . S
C3569 H3557 0.950 . S
C3569 C3565 1.393 . S
C3569 C3568 1.391 . S
C3570 H3560 0.950 . S
C3570 C3571 1.386 . S
C3570 C3572 1.391 . S
C3571 C3570 1.386 . S
C3571 C3575 1.393 . S
C3572 H3561 0.950 . S
C3572 C3570 1.391 . S
C3572 C3573 1.400 . S
C3573 C3567 1.491 . S
C3573 C3572 1.400 . S
C3573 C3574 1.398 . S
C3574 H3562 0.950 . S
C3574 C3573 1.398 . S
C3574 C3575 1.391 . S
C3575 H3563 0.950 . S
C3575 C3571 1.393 . S
C3575 C3574 1.391 . S
H3576 C3584 0.950 . S
H3577 C3589 0.950 . S
H3578 C3586 0.950 . S
H3579 C3588 0.950 . S
H3580 C3590 0.950 . S
H3581 C3592 0.950 . S
H3582 C3594 0.950 . S
H3583 C3595 0.950 . S
C3584 H3576 0.950 . S
C3584 C3585 1.386 . S
C3584 C3586 1.391 . S
C3585 C3584 1.386 . S
C3585 C3589 1.393 . S
C3586 H3578 0.950 . S
C3586 C3584 1.391 . S
C3586 C3587 1.400 . S
C3587 C3586 1.400 . S
C3587 C3588 1.398 . S
C3587 C3593 1.491 . S
C3588 H3579 0.950 . S
C3588 C3587 1.398 . S
C3588 C3589 1.391 . S
C3589 H3577 0.950 . S
C3589 C3585 1.393 . S
C3589 C3588 1.391 . S
C3590 H3580 0.950 . S
C3590 C3591 1.386 . S
C3590 C3592 1.391 . S
C3591 C3590 1.386 . S
C3591 C3595 1.393 . S
C3592 H3581 0.950 . S
C3592 C3590 1.391 . S
C3592 C3593 1.400 . S
C3593 C3587 1.491 . S
C3593 C3592 1.400 . S
C3593 C3594 1.398 . S
C3594 H3582 0.950 . S
C3594 C3593 1.398 . S
C3594 C3595 1.391 . S
C3595 H3583 0.950 . S
C3595 C3591 1.393 . S
C3595 C3594 1.391 . S
H3596 C3604 0.950 . S
H3597 C3609 0.950 . S
H3598 C3606 0.950 . S
H3599 C3608 0.950 . S
H3600 C3610 0.950 . S
H3601 C3612 0.950 . S
H3602 C3614 0.950 . S
H3603 C3615 0.950 . S
C3604 H3596 0.950 . S
C3604 C3605 1.386 . S
C3604 C3606 1.391 . S
C3605 C3604 1.386 . S
C3605 C3609 1.393 . S
C3606 H3598 0.950 . S
C3606 C3604 1.391 . S
C3606 C3607 1.400 . S
C3607 C3606 1.400 . S
C3607 C3608 1.398 . S
C3607 C3613 1.491 . S
C3608 H3599 0.950 . S
C3608 C3607 1.398 . S
C3608 C3609 1.391 . S
C3609 H3597 0.950 . S
C3609 C3605 1.393 . S
C3609 C3608 1.391 . S
C3610 H3600 0.950 . S
C3610 C3611 1.386 . S
C3610 C3612 1.391 . S
C3611 C3610 1.386 . S
C3611 C3615 1.393 . S
C3612 H3601 0.950 . S
C3612 C3610 1.391 . S
C3612 C3613 1.400 . S
C3613 C3607 1.491 . S
C3613 C3612 1.400 . S
C3613 C3614 1.398 . S
C3614 H3602 0.950 . S
C3614 C3613 1.398 . S
C3614 C3615 1.391 . S
C3615 H3603 0.950 . S
C3615 C3611 1.393 . S
C3615 C3614 1.391 . S
H3616 C3624 0.950 . S
H3617 C3629 0.950 . S
H3618 C3626 0.950 . S
H3619 C3628 0.950 . S
H3620 C3630 0.950 . S
H3621 C3632 0.950 . S
H3622 C3634 0.950 . S
H3623 C3635 0.950 . S
C3624 H3616 0.950 . S
C3624 C3625 1.386 . S
C3624 C3626 1.391 . S
C3625 C3624 1.386 . S
C3625 C3629 1.393 . S
C3626 H3618 0.950 . S
C3626 C3624 1.391 . S
C3626 C3627 1.400 . S
C3627 C3626 1.400 . S
C3627 C3628 1.398 . S
C3627 C3633 1.491 . S
C3628 H3619 0.950 . S
C3628 C3627 1.398 . S
C3628 C3629 1.391 . S
C3629 H3617 0.950 . S
C3629 C3625 1.393 . S
C3629 C3628 1.391 . S
C3630 H3620 0.950 . S
C3630 C3631 1.386 . S
C3630 C3632 1.391 . S
C3631 C3630 1.386 . S
C3631 C3635 1.393 . S
C3632 H3621 0.950 . S
C3632 C3630 1.391 . S
C3632 C3633 1.400 . S
C3633 C3627 1.491 . S
C3633 C3632 1.400 . S
C3633 C3634 1.398 . S
C3634 H3622 0.950 . S
C3634 C3633 1.398 . S
C3634 C3635 1.391 . S
C3635 H3623 0.950 . S
C3635 C3631 1.393 . S
C3635 C3634 1.391 . S
H3636 C3644 0.950 . S
H3637 C3649 0.950 . S
H3638 C3646 0.950 . S
H3639 C3648 0.950 . S
H3640 C3650 0.950 . S
H3641 C3652 0.950 . S
H3642 C3654 0.950 . S
H3643 C3655 0.950 . S
C3644 H3636 0.950 . S
C3644 C3645 1.386 . S
C3644 C3646 1.391 . S
C3645 C3644 1.386 . S
C3645 C3649 1.393 . S
C3646 H3638 0.950 . S
C3646 C3644 1.391 . S
C3646 C3647 1.400 . S
C3647 C3646 1.400 . S
C3647 C3648 1.398 . S
C3647 C3653 1.491 . S
C3648 H3639 0.950 . S
C3648 C3647 1.398 . S
C3648 C3649 1.391 . S
C3649 H3637 0.950 . S
C3649 C3645 1.393 . S
C3649 C3648 1.391 . S
C3650 H3640 0.950 . S
C3650 C3651 1.386 . S
C3650 C3652 1.391 . S
C3651 C3650 1.386 . S
C3651 C3655 1.393 . S
C3652 H3641 0.950 . S
C3652 C3650 1.391 . S
C3652 C3653 1.400 . S
C3653 C3647 1.491 . S
C3653 C3652 1.400 . S
C3653 C3654 1.398 . S
C3654 H3642 0.950 . S
C3654 C3653 1.398 . S
C3654 C3655 1.391 . S
C3655 H3643 0.950 . S
C3655 C3651 1.393 . S
C3655 C3654 1.391 . S
H3656 C3664 0.950 . S
H3657 C3669 0.950 . S
H3658 C3666 0.950 . S
H3659 C3668 0.950 . S
H3660 C3670 0.950 . S
H3661 C3672 0.950 . S
H3662 C3674 0.950 . S
H3663 C3675 0.950 . S
C3664 H3656 0.950 . S
C3664 C3665 1.386 . S
C3664 C3666 1.391 . S
C3665 C3664 1.386 . S
C3665 C3669 1.393 . S
C3666 H3658 0.950 . S
C3666 C3664 1.391 . S
C3666 C3667 1.400 . S
C3667 C3666 1.400 . S
C3667 C3668 1.398 . S
C3667 C3673 1.491 . S
C3668 H3659 0.950 . S
C3668 C3667 1.398 . S
C3668 C3669 1.391 . S
C3669 H3657 0.950 . S
C3669 C3665 1.393 . S
C3669 C3668 1.391 . S
C3670 H3660 0.950 . S
C3670 C3671 1.386 . S
C3670 C3672 1.391 . S
C3671 C3670 1.386 . S
C3671 C3675 1.393 . S
C3672 H3661 0.950 . S
C3672 C3670 1.391 . S
C3672 C3673 1.400 . S
C3673 C3667 1.491 . S
C3673 C3672 1.400 . S
C3673 C3674 1.398 . S
C3674 H3662 0.950 . S
C3674 C3673 1.398 . S
C3674 C3675 1.391 . S
C3675 H3663 0.950 . S
C3675 C3671 1.393 . S
C3675 C3674 1.391 . S
H3676 C3684 0.950 . S
H3677 C3689 0.950 . S
H3678 C3686 0.950 . S
H3679 C3688 0.950 . S
H3680 C3690 0.950 . S
H3681 C3692 0.950 . S
H3682 C3694 0.950 . S
H3683 C3695 0.950 . S
C3684 H3676 0.950 . S
C3684 C3685 1.386 . S
C3684 C3686 1.391 . S
C3685 C3684 1.386 . S
C3685 C3689 1.393 . S
C3686 H3678 0.950 . S
C3686 C3684 1.391 . S
C3686 C3687 1.400 . S
C3687 C3686 1.400 . S
C3687 C3688 1.398 . S
C3687 C3693 1.491 . S
C3688 H3679 0.950 . S
C3688 C3687 1.398 . S
C3688 C3689 1.391 . S
C3689 H3677 0.950 . S
C3689 C3685 1.393 . S
C3689 C3688 1.391 . S
C3690 H3680 0.950 . S
C3690 C3691 1.386 . S
C3690 C3692 1.391 . S
C3691 C3690 1.386 . S
C3691 C3695 1.393 . S
C3692 H3681 0.950 . S
C3692 C3690 1.391 . S
C3692 C3693 1.400 . S
C3693 C3687 1.491 . S
C3693 C3692 1.400 . S
C3693 C3694 1.398 . S
C3694 H3682 0.950 . S
C3694 C3693 1.398 . S
C3694 C3695 1.391 . S
C3695 H3683 0.950 . S
C3695 C3691 1.393 . S
C3695 C3694 1.391 . S
H3696 C3704 0.950 . S
H3697 C3709 0.950 . S
H3698 C3706 0.950 . S
H3699 C3708 0.950 . S
H3700 C3710 0.950 . S
H3701 C3712 0.950 . S
H3702 C3714 0.950 . S
H3703 C3715 0.950 . S
C3704 H3696 0.950 . S
C3704 C3705 1.386 . S
C3704 C3706 1.391 . S
C3705 C3704 1.386 . S
C3705 C3709 1.393 . S
C3706 H3698 0.950 . S
C3706 C3704 1.391 . S
C3706 C3707 1.400 . S
C3707 C3706 1.400 . S
C3707 C3708 1.398 . S
C3707 C3713 1.491 . S
C3708 H3699 0.950 . S
C3708 C3707 1.398 . S
C3708 C3709 1.391 . S
C3709 H3697 0.950 . S
C3709 C3705 1.393 . S
C3709 C3708 1.391 . S
C3710 H3700 0.950 . S
C3710 C3711 1.386 . S
C3710 C3712 1.391 . S
C3711 C3710 1.386 . S
C3711 C3715 1.393 . S
C3712 H3701 0.950 . S
C3712 C3710 1.391 . S
C3712 C3713 1.400 . S
C3713 C3707 1.491 . S
C3713 C3712 1.400 . S
C3713 C3714 1.398 . S
C3714 H3702 0.950 . S
C3714 C3713 1.398 . S
C3714 C3715 1.391 . S
C3715 H3703 0.950 . S
C3715 C3711 1.393 . S
C3715 C3714 1.391 . S
H3716 C3724 0.950 . S
H3717 C3729 0.950 . S
H3718 C3726 0.950 . S
H3719 C3728 0.950 . S
H3720 C3730 0.950 . S
H3721 C3732 0.950 . S
H3722 C3734 0.950 . S
H3723 C3735 0.950 . S
C3724 H3716 0.950 . S
C3724 C3725 1.386 . S
C3724 C3726 1.391 . S
C3725 C3724 1.386 . S
C3725 C3729 1.393 . S
C3726 H3718 0.950 . S
C3726 C3724 1.391 . S
C3726 C3727 1.400 . S
C3727 C3726 1.400 . S
C3727 C3728 1.398 . S
C3727 C3733 1.491 . S
C3728 H3719 0.950 . S
C3728 C3727 1.398 . S
C3728 C3729 1.391 . S
C3729 H3717 0.950 . S
C3729 C3725 1.393 . S
C3729 C3728 1.391 . S
C3730 H3720 0.950 . S
C3730 C3731 1.386 . S
C3730 C3732 1.391 . S
C3731 C3730 1.386 . S
C3731 C3735 1.393 . S
C3732 H3721 0.950 . S
C3732 C3730 1.391 . S
C3732 C3733 1.400 . S
C3733 C3727 1.491 . S
C3733 C3732 1.400 . S
C3733 C3734 1.398 . S
C3734 H3722 0.950 . S
C3734 C3733 1.398 . S
C3734 C3735 1.391 . S
C3735 H3723 0.950 . S
C3735 C3731 1.393 . S
C3735 C3734 1.391 . S
H3736 C3744 0.950 . S
H3737 C3749 0.950 . S
H3738 C3746 0.950 . S
H3739 C3748 0.950 . S
H3740 C3750 0.950 . S
H3741 C3752 0.950 . S
H3742 C3754 0.950 . S
H3743 C3755 0.950 . S
C3744 H3736 0.950 . S
C3744 C3745 1.386 . S
C3744 C3746 1.391 . S
C3745 C3744 1.386 . S
C3745 C3749 1.393 . S
C3746 H3738 0.950 . S
C3746 C3744 1.391 . S
C3746 C3747 1.400 . S
C3747 C3746 1.400 . S
C3747 C3748 1.398 . S
C3747 C3753 1.491 . S
C3748 H3739 0.950 . S
C3748 C3747 1.398 . S
C3748 C3749 1.391 . S
C3749 H3737 0.950 . S
C3749 C3745 1.393 . S
C3749 C3748 1.391 . S
C3750 H3740 0.950 . S
C3750 C3751 1.386 . S
C3750 C3752 1.391 . S
C3751 C3750 1.386 . S
C3751 C3755 1.393 . S
C3752 H3741 0.950 . S
C3752 C3750 1.391 . S
C3752 C3753 1.400 . S
C3753 C3747 1.491 . S
C3753 C3752 1.400 . S
C3753 C3754 1.398 . S
C3754 H3742 0.950 . S
C3754 C3753 1.398 . S
C3754 C3755 1.391 . S
C3755 H3743 0.950 . S
C3755 C3751 1.393 . S
C3755 C3754 1.391 . S
H3756 C3764 0.950 . S
H3757 C3769 0.950 . S
H3758 C3766 0.950 . S
H3759 C3768 0.950 . S
H3760 C3770 0.950 . S
H3761 C3772 0.950 . S
H3762 C3774 0.950 . S
H3763 C3775 0.950 . S
C3764 H3756 0.950 . S
C3764 C3765 1.386 . S
C3764 C3766 1.391 . S
C3765 C3764 1.386 . S
C3765 C3769 1.393 . S
C3766 H3758 0.950 . S
C3766 C3764 1.391 . S
C3766 C3767 1.400 . S
C3767 C3766 1.400 . S
C3767 C3768 1.398 . S
C3767 C3773 1.491 . S
C3768 H3759 0.950 . S
C3768 C3767 1.398 . S
C3768 C3769 1.391 . S
C3769 H3757 0.950 . S
C3769 C3765 1.393 . S
C3769 C3768 1.391 . S
C3770 H3760 0.950 . S
C3770 C3771 1.386 . S
C3770 C3772 1.391 . S
C3771 C3770 1.386 . S
C3771 C3775 1.393 . S
C3772 H3761 0.950 . S
C3772 C3770 1.391 . S
C3772 C3773 1.400 . S
C3773 C3767 1.491 . S
C3773 C3772 1.400 . S
C3773 C3774 1.398 . S
C3774 H3762 0.950 . S
C3774 C3773 1.398 . S
C3774 C3775 1.391 . S
C3775 H3763 0.950 . S
C3775 C3771 1.393 . S
C3775 C3774 1.391 . S
H3776 C3784 0.950 . S
H3777 C3789 0.950 . S
H3778 C3786 0.950 . S
H3779 C3788 0.950 . S
H3780 C3790 0.950 . S
H3781 C3792 0.950 . S
H3782 C3794 0.950 . S
H3783 C3795 0.950 . S
C3784 H3776 0.950 . S
C3784 C3785 1.386 . S
C3784 C3786 1.391 . S
C3785 C3784 1.386 . S
C3785 C3789 1.393 . S
C3786 H3778 0.950 . S
C3786 C3784 1.391 . S
C3786 C3787 1.400 . S
C3787 C3786 1.400 . S
C3787 C3788 1.398 . S
C3787 C3793 1.491 . S
C3788 H3779 0.950 . S
C3788 C3787 1.398 . S
C3788 C3789 1.391 . S
C3789 H3777 0.950 . S
C3789 C3785 1.393 . S
C3789 C3788 1.391 . S
C3790 H3780 0.950 . S
C3790 C3791 1.386 . S
C3790 C3792 1.391 . S
C3791 C3790 1.386 . S
C3791 C3795 1.393 . S
C3792 H3781 0.950 . S
C3792 C3790 1.391 . S
C3792 C3793 1.400 . S
C3793 C3787 1.491 . S
C3793 C3792 1.400 . S
C3793 C3794 1.398 . S
C3794 H3782 0.950 . S
C3794 C3793 1.398 . S
C3794 C3795 1.391 . S
C3795 H3783 0.950 . S
C3795 C3791 1.393 . S
C3795 C3794 1.391 . S
H3796 C3804 0.950 . S
H3797 C3809 0.950 . S
H3798 C3806 0.950 . S
H3799 C3808 0.950 . S
H3800 C3810 0.950 . S
H3801 C3812 0.950 . S
H3802 C3814 0.950 . S
H3803 C3815 0.950 . S
C3804 H3796 0.950 . S
C3804 C3805 1.386 . S
C3804 C3806 1.391 . S
C3805 C3804 1.386 . S
C3805 C3809 1.393 . S
C3806 H3798 0.950 . S
C3806 C3804 1.391 . S
C3806 C3807 1.400 . S
C3807 C3806 1.400 . S
C3807 C3808 1.398 . S
C3807 C3813 1.491 . S
C3808 H3799 0.950 . S
C3808 C3807 1.398 . S
C3808 C3809 1.391 . S
C3809 H3797 0.950 . S
C3809 C3805 1.393 . S
C3809 C3808 1.391 . S
C3810 H3800 0.950 . S
C3810 C3811 1.386 . S
C3810 C3812 1.391 . S
C3811 C3810 1.386 . S
C3811 C3815 1.393 . S
C3812 H3801 0.950 . S
C3812 C3810 1.391 . S
C3812 C3813 1.400 . S
C3813 C3807 1.491 . S
C3813 C3812 1.400 . S
C3813 C3814 1.398 . S
C3814 H3802 0.950 . S
C3814 C3813 1.398 . S
C3814 C3815 1.391 . S
C3815 H3803 0.950 . S
C3815 C3811 1.393 . S
C3815 C3814 1.391 . S
H3816 C3824 0.950 . S
H3817 C3829 0.950 . S
H3818 C3826 0.950 . S
H3819 C3828 0.950 . S
H3820 C3830 0.950 . S
H3821 C3832 0.950 . S
H3822 C3834 0.950 . S
H3823 C3835 0.950 . S
C3824 H3816 0.950 . S
C3824 C3825 1.386 . S
C3824 C3826 1.391 . S
C3825 C3824 1.386 . S
C3825 C3829 1.393 . S
C3826 H3818 0.950 . S
C3826 C3824 1.391 . S
C3826 C3827 1.400 . S
C3827 C3826 1.400 . S
C3827 C3828 1.398 . S
C3827 C3833 1.491 . S
C3828 H3819 0.950 . S
C3828 C3827 1.398 . S
C3828 C3829 1.391 . S
C3829 H3817 0.950 . S
C3829 C3825 1.393 . S
C3829 C3828 1.391 . S
C3830 H3820 0.950 . S
C3830 C3831 1.386 . S
C3830 C3832 1.391 . S
C3831 C3830 1.386 . S
C3831 C3835 1.393 . S
C3832 H3821 0.950 . S
C3832 C3830 1.391 . S
C3832 C3833 1.400 . S
C3833 C3827 1.491 . S
C3833 C3832 1.400 . S
C3833 C3834 1.398 . S
C3834 H3822 0.950 . S
C3834 C3833 1.398 . S
C3834 C3835 1.391 . S
C3835 H3823 0.950 . S
C3835 C3831 1.393 . S
C3835 C3834 1.391 . S
H3836 C3844 0.950 . S
H3837 C3849 0.950 . S
H3838 C3846 0.950 . S
H3839 C3848 0.950 . S
H3840 C3850 0.950 . S
H3841 C3852 0.950 . S
H3842 C3854 0.950 . S
H3843 C3855 0.950 . S
C3844 H3836 0.950 . S
C3844 C3845 1.386 . S
C3844 C3846 1.391 . S
C3845 C3844 1.386 . S
C3845 C3849 1.393 . S
C3846 H3838 0.950 . S
C3846 C3844 1.391 . S
C3846 C3847 1.400 . S
C3847 C3846 1.400 . S
C3847 C3848 1.398 . S
C3847 C3853 1.491 . S
C3848 H3839 0.950 . S
C3848 C3847 1.398 . S
C3848 C3849 1.391 . S
C3849 H3837 0.950 . S
C3849 C3845 1.393 . S
C3849 C3848 1.391 . S
C3850 H3840 0.950 . S
C3850 C3851 1.386 . S
C3850 C3852 1.391 . S
C3851 C3850 1.386 . S
C3851 C3855 1.393 . S
C3852 H3841 0.950 . S
C3852 C3850 1.391 . S
C3852 C3853 1.400 . S
C3853 C3847 1.491 . S
C3853 C3852 1.400 . S
C3853 C3854 1.398 . S
C3854 H3842 0.950 . S
C3854 C3853 1.398 . S
C3854 C3855 1.391 . S
C3855 H3843 0.950 . S
C3855 C3851 1.393 . S
C3855 C3854 1.391 . S
H3856 C3864 0.950 . S
H3857 C3869 0.950 . S
H3858 C3866 0.950 . S
H3859 C3868 0.950 . S
H3860 C3870 0.950 . S
H3861 C3872 0.950 . S
H3862 C3874 0.950 . S
H3863 C3875 0.950 . S
C3864 H3856 0.950 . S
C3864 C3865 1.386 . S
C3864 C3866 1.391 . S
C3865 C3864 1.386 . S
C3865 C3869 1.393 . S
C3866 H3858 0.950 . S
C3866 C3864 1.391 . S
C3866 C3867 1.400 . S
C3867 C3866 1.400 . S
C3867 C3868 1.398 . S
C3867 C3873 1.491 . S
C3868 H3859 0.950 . S
C3868 C3867 1.398 . S
C3868 C3869 1.391 . S
C3869 H3857 0.950 . S
C3869 C3865 1.393 . S
C3869 C3868 1.391 . S
C3870 H3860 0.950 . S
C3870 C3871 1.386 . S
C3870 C3872 1.391 . S
C3871 C3870 1.386 . S
C3871 C3875 1.393 . S
C3872 H3861 0.950 . S
C3872 C3870 1.391 . S
C3872 C3873 1.400 . S
C3873 C3867 1.491 . S
C3873 C3872 1.400 . S
C3873 C3874 1.398 . S
C3874 H3862 0.950 . S
C3874 C3873 1.398 . S
C3874 C3875 1.391 . S
C3875 H3863 0.950 . S
C3875 C3871 1.393 . S
C3875 C3874 1.391 . S
H3876 C3884 0.950 . S
H3877 C3889 0.950 . S
H3878 C3886 0.950 . S
H3879 C3888 0.950 . S
H3880 C3890 0.950 . S
H3881 C3892 0.950 . S
H3882 C3894 0.950 . S
H3883 C3895 0.950 . S
C3884 H3876 0.950 . S
C3884 C3885 1.386 . S
C3884 C3886 1.391 . S
C3885 C3884 1.386 . S
C3885 C3889 1.393 . S
C3886 H3878 0.950 . S
C3886 C3884 1.391 . S
C3886 C3887 1.400 . S
C3887 C3886 1.400 . S
C3887 C3888 1.398 . S
C3887 C3893 1.491 . S
C3888 H3879 0.950 . S
C3888 C3887 1.398 . S
C3888 C3889 1.391 . S
C3889 H3877 0.950 . S
C3889 C3885 1.393 . S
C3889 C3888 1.391 . S
C3890 H3880 0.950 . S
C3890 C3891 1.386 . S
C3890 C3892 1.391 . S
C3891 C3890 1.386 . S
C3891 C3895 1.393 . S
C3892 H3881 0.950 . S
C3892 C3890 1.391 . S
C3892 C3893 1.400 . S
C3893 C3887 1.491 . S
C3893 C3892 1.400 . S
C3893 C3894 1.398 . S
C3894 H3882 0.950 . S
C3894 C3893 1.398 . S
C3894 C3895 1.391 . S
C3895 H3883 0.950 . S
C3895 C3891 1.393 . S
C3895 C3894 1.391 . S
H3896 C3904 0.950 . S
H3897 C3909 0.950 . S
H3898 C3906 0.950 . S
H3899 C3908 0.950 . S
H3900 C3910 0.950 . S
H3901 C3912 0.950 . S
H3902 C3914 0.950 . S
H3903 C3915 0.950 . S
C3904 H3896 0.950 . S
C3904 C3905 1.386 . S
C3904 C3906 1.391 . S
C3905 C3904 1.386 . S
C3905 C3909 1.393 . S
C3906 H3898 0.950 . S
C3906 C3904 1.391 . S
C3906 C3907 1.400 . S
C3907 C3906 1.400 . S
C3907 C3908 1.398 . S
C3907 C3913 1.491 . S
C3908 H3899 0.950 . S
C3908 C3907 1.398 . S
C3908 C3909 1.391 . S
C3909 H3897 0.950 . S
C3909 C3905 1.393 . S
C3909 C3908 1.391 . S
C3910 H3900 0.950 . S
C3910 C3911 1.386 . S
C3910 C3912 1.391 . S
C3911 C3910 1.386 . S
C3911 C3915 1.393 . S
C3912 H3901 0.950 . S
C3912 C3910 1.391 . S
C3912 C3913 1.400 . S
C3913 C3907 1.491 . S
C3913 C3912 1.400 . S
C3913 C3914 1.398 . S
C3914 H3902 0.950 . S
C3914 C3913 1.398 . S
C3914 C3915 1.391 . S
C3915 H3903 0.950 . S
C3915 C3911 1.393 . S
C3915 C3914 1.391 . S
H3916 C3924 0.950 . S
H3917 C3929 0.950 . S
H3918 C3926 0.950 . S
H3919 C3928 0.950 . S
H3920 C3930 0.950 . S
H3921 C3932 0.950 . S
H3922 C3934 0.950 . S
H3923 C3935 0.950 . S
C3924 H3916 0.950 . S
C3924 C3925 1.386 . S
C3924 C3926 1.391 . S
C3925 C3924 1.386 . S
C3925 C3929 1.393 . S
C3926 H3918 0.950 . S
C3926 C3924 1.391 . S
C3926 C3927 1.400 . S
C3927 C3926 1.400 . S
C3927 C3928 1.398 . S
C3927 C3933 1.491 . S
C3928 H3919 0.950 . S
C3928 C3927 1.398 . S
C3928 C3929 1.391 . S
C3929 H3917 0.950 . S
C3929 C3925 1.393 . S
C3929 C3928 1.391 . S
C3930 H3920 0.950 . S
C3930 C3931 1.386 . S
C3930 C3932 1.391 . S
C3931 C3930 1.386 . S
C3931 C3935 1.393 . S
C3932 H3921 0.950 . S
C3932 C3930 1.391 . S
C3932 C3933 1.400 . S
C3933 C3927 1.491 . S
C3933 C3932 1.400 . S
C3933 C3934 1.398 . S
C3934 H3922 0.950 . S
C3934 C3933 1.398 . S
C3934 C3935 1.391 . S
C3935 H3923 0.950 . S
C3935 C3931 1.393 . S
C3935 C3934 1.391 . S
C1065 C9 1.364 . S
C1071 C72 1.349 . S
C1085 C6 1.349 . S
C1091 C27 1.364 . S
C1105 C29 1.349 . S
C1111 C49 1.364 . S
C1125 C51 1.354 . S
C1131 C75 1.359 . S
C1145 C93 1.364 . S
C1151 C117 1.350 . S
C1165 C115 1.357 . S
C1171 C138 1.356 . S
C1185 C141 1.349 . S
C1191 C160 1.364 . S
C1205 C163 1.364 . S
C1211 C95 1.349 . S
C1225 C185 1.355 . S
C1231 C402 1.358 . S
C1245 C425 1.360 . S
C1251 C207 1.353 . S
C1265 C447 1.364 . S
C1271 C225 1.349 . S
C1285 C381 1.353 . S
C1291 C247 1.360 . S
C1305 C273 1.349 . S
C1311 C490 1.364 . S
C1325 C295 1.353 . S
C1331 C359 1.360 . S
C1345 C313 1.363 . S
C1351 C513 1.350 . S
C1365 C339 1.352 . S
C1371 C468 1.361 . S
C1385 C204 1.358 . S
C1391 C357 1.355 . S
C1405 C379 1.364 . S
C1411 C336 1.349 . S
C1425 C405 1.361 . S
C1431 C270 1.352 . S
C1445 C423 1.361 . S
C1451 C292 1.353 . S
C1465 C445 1.349 . S
C1471 C315 1.364 . S
C1485 C249 1.360 . S
C1491 C471 1.353 . S
C1505 C493 1.359 . S
C1511 C182 1.354 . S
C1525 C511 1.349 . S
C1531 C227 1.364 . S
C1545 C600 1.359 . S
C1551 C537 1.354 . S
C1565 C555 1.349 . S
C1571 C534 1.364 . S
C1585 C557 1.364 . S
C1591 C577 1.349 . S
C1605 C603 1.364 . S
C1611 C579 1.349 . S
C1625 C621 1.361 . S
C1631 C645 1.352 . S
C1645 C643 1.349 . S
C1651 C666 1.364 . S
C1665 C669 1.349 . S
C1671 C688 1.364 . S
C1685 C623 1.361 . S
C1691 C691 1.352 . S
C1705 C930 1.349 . S
C1711 C713 1.364 . S
C1725 C735 1.349 . S
C1731 C953 1.364 . S
C1745 C975 1.364 . S
C1751 C753 1.349 . S
C1765 C909 1.350 . S
C1771 C775 1.363 . S
C1785 C801 1.349 . S
C1791 C1018 1.364 . S
C1805 C823 1.349 . S
C1811 C887 1.364 . S
C1825 C1041 1.363 . S
C1831 C841 1.350 . S
C1845 C867 1.351 . S
C1851 C996 1.362 . S
C1865 C732 1.355 . S
C1871 C885 1.358 . S
C1885 C864 1.352 . S
C1891 C907 1.362 . S
C1905 C933 1.363 . S
C1911 C798 1.350 . S
C1925 C951 1.360 . S
C1931 C820 1.354 . S
C1945 C973 1.353 . S
C1951 C843 1.360 . S
C1965 C999 1.354 . S
C1971 C777 1.359 . S
C1985 C710 1.356 . S
C1991 C1021 1.357 . S
C2005 C1039 1.350 . S
C2011 C755 1.363 . S
C2025 C4 1.269 . S
C2031 C356 1.245 . S
C2045 C510 1.267 . S
C2051 C30 1.247 . S
C2065 C52 1.249 . S
C2071 C470 1.265 . S
C2085 C70 1.273 . S
C2091 C492 1.241 . S
C2105 C96 1.253 . S
C2111 C378 1.261 . S
C2125 C404 1.269 . S
C2131 C118 1.245 . S
C2145 C136 1.263 . S
C2151 C422 1.251 . S
C2165 C444 1.265 . S
C2171 C158 1.250 . S
C2185 C180 1.250 . S
C2191 C8 1.264 . S
C2205 C202 1.248 . S
C2211 C26 1.266 . S
C2225 C228 1.269 . S
C2231 C48 1.245 . S
C2245 C250 1.254 . S
C2251 C74 1.260 . S
C2265 C92 1.258 . S
C2271 C268 1.257 . S
C2285 C290 1.269 . S
C2291 C114 1.245 . S
C2305 C316 1.271 . S
C2311 C140 1.243 . S
C2325 C334 1.258 . S
C2331 C162 1.256 . S
C2345 C184 1.258 . S
C2351 C360 1.256 . S
C2365 C382 1.243 . S
C2371 C272 1.271 . S
C2385 C400 1.243 . S
C2391 C294 1.271 . S
C2405 C312 1.253 . S
C2411 C426 1.261 . S
C2425 C338 1.272 . S
C2431 C448 1.242 . S
C2445 C466 1.271 . S
C2451 C224 1.243 . S
C2465 C488 1.270 . S
C2471 C246 1.244 . S
C2485 C514 1.242 . S
C2491 C206 1.272 . S
C2505 C884 1.260 . S
C2511 C532 1.254 . S
C2525 C558 1.272 . S
C2531 C1038 1.242 . S
C2545 C580 1.241 . S
C2551 C998 1.273 . S
C2565 C1020 1.272 . S
C2571 C598 1.242 . S
C2585 C906 1.267 . S
C2591 C624 1.247 . S
C2605 C646 1.268 . S
C2611 C932 1.246 . S
C2625 C950 1.247 . S
C2631 C664 1.267 . S
C2645 C972 1.268 . S
C2651 C686 1.246 . S
C2665 C536 1.267 . S
C2671 C708 1.247 . S
C2685 C554 1.244 . S
C2691 C730 1.270 . S
C2705 C576 1.258 . S
C2711 C756 1.257 . S
C2725 C602 1.245 . S
C2731 C778 1.269 . S
C2745 C620 1.262 . S
C2751 C796 1.252 . S
C2765 C642 1.242 . S
C2771 C818 1.272 . S
C2785 C668 1.258 . S
C2791 C844 1.256 . S
C2805 C862 1.265 . S
C2811 C690 1.249 . S
C2825 C888 1.260 . S
C2831 C712 1.254 . S
C2845 C910 1.242 . S
C2851 C800 1.272 . S
C2865 C928 1.261 . S
C2871 C822 1.254 . S
C2885 C954 1.242 . S
C2891 C840 1.272 . S
C2905 C976 1.243 . S
C2911 C866 1.271 . S
C2925 C994 1.243 . S
C2931 C752 1.271 . S
C2945 C1016 1.268 . S
C2951 C774 1.247 . S
C2965 C734 1.266 . S
C2971 C1042 1.248 . S
C2985 C5 0.828 . S
C2991 C977 0.850 . S
C3005 C911 0.813 . S
C3011 C31 0.857 . S
C3025 C929 0.813 . S
C3031 C53 0.857 . S
C3045 C71 0.856 . S
C3051 C955 0.810 . S
C3065 C1043 0.818 . S
C3071 C97 0.836 . S
C3085 C995 0.843 . S
C3091 C119 0.837 . S
C3105 C1017 0.842 . S
C3111 C137 0.814 . S
C3125 C159 0.843 . S
C3131 C889 0.813 . S
C3145 C181 0.809 . S
C3151 C863 0.850 . S
C3165 C797 0.857 . S
C3171 C203 0.814 . S
C3185 C819 0.812 . S
C3191 C229 0.857 . S
C3205 C845 0.827 . S
C3211 C251 0.851 . S
C3225 C269 0.814 . S
C3231 C731 0.841 . S
C3245 C291 0.847 . S
C3251 C757 0.811 . S
C3265 C317 0.856 . S
C3271 C779 0.809 . S
C3285 C709 0.831 . S
C3291 C335 0.822 . S
C3305 C361 0.815 . S
C3311 C687 0.857 . S
C3325 C383 0.809 . S
C3331 C559 0.855 . S
C3345 C401 0.811 . S
C3351 C581 0.846 . S
C3365 C427 0.825 . S
C3371 C599 0.852 . S
C3385 C449 0.821 . S
C3391 C533 0.832 . S
C3405 C647 0.811 . S
C3411 C467 0.857 . S
C3425 C489 0.852 . S
C3431 C665 0.809 . S
C3445 C515 0.856 . S
C3451 C625 0.817 . S
C3465 C161 0.853 . S
C3471 C711 0.809 . S
C3485 C733 0.850 . S
C3491 C94 0.829 . S
C3505 C116 0.854 . S
C3511 C754 0.809 . S
C3525 C139 0.851 . S
C3531 C776 0.809 . S
C3545 C28 0.857 . S
C3551 C799 0.813 . S
C3565 C821 0.810 . S
C3571 C50 0.856 . S
C3585 C73 0.857 . S
C3591 C842 0.812 . S
C3605 C7 0.810 . S
C3611 C865 0.849 . S
C3625 C446 0.810 . S
C3631 C886 0.856 . S
C3645 C1040 0.857 . S
C3651 C380 0.815 . S
C3665 C997 0.812 . S
C3671 C403 0.845 . S
C3685 C424 0.815 . S
C3691 C1019 0.840 . S
C3705 C512 0.820 . S
C3711 C908 0.855 . S
C3725 C469 0.825 . S
C3731 C931 0.828 . S
C3745 C952 0.816 . S
C3751 C491 0.839 . S
C3765 C974 0.825 . S
C3771 C358 0.828 . S
C3785 C337 0.811 . S
C3791 C535 0.857 . S
C3805 C205 0.818 . S
C3811 C622 0.836 . S
C3825 C644 0.809 . S
C3831 C226 0.854 . S
C3845 C248 0.822 . S
C3851 C667 0.831 . S
C3865 C183 0.853 . S
C3871 C689 0.824 . S
C3885 C293 0.853 . S
C3891 C578 0.824 . S
C3905 C314 0.813 . S
C3911 C601 0.843 . S
C3925 C556 0.824 . S
C3931 C271 0.829 . S
