# Generated by pormake.
# Topology bsn, (6)-cn, num edge types: 1
# Building blocks:
#     Node 0, Type 0, BuildingBlock: VOLQOD_clean_sbu_1, # of connection points: 6
#     Node 1, Type 0, BuildingBlock: VOLQOD_clean_sbu_1, # of connection points: 6
#     Node 2, Type 0, BuildingBlock: VOLQOD_clean_sbu_1, # of connection points: 6
#     Node 3, Type 0, BuildingBlock: VOLQOD_clean_sbu_1, # of connection points: 6
#     Edge 4, Type (0, 0), BuildingBlock: UVAHIK_clean_linker_0, # of connection points: 2
#     Edge 5, Type (0, 0), BuildingBlock: UVAHIK_clean_linker_0, # of connection points: 2
#     Edge 6, Type (0, 0), BuildingBlock: UVAHIK_clean_linker_0, # of connection points: 2
#     Edge 7, Type (0, 0), BuildingBlock: UVAHIK_clean_linker_0, # of connection points: 2
#     Edge 8, Type (0, 0), BuildingBlock: UVAHIK_clean_linker_0, # of connection points: 2
#     Edge 9, Type (0, 0), BuildingBlock: UVAHIK_clean_linker_0, # of connection points: 2
#     Edge 10, Type (0, 0), BuildingBlock: UVAHIK_clean_linker_0, # of connection points: 2
#     Edge 11, Type (0, 0), BuildingBlock: UVAHIK_clean_linker_0, # of connection points: 2
#     Edge 12, Type (0, 0), BuildingBlock: UVAHIK_clean_linker_0, # of connection points: 2
#     Edge 13, Type (0, 0), BuildingBlock: UVAHIK_clean_linker_0, # of connection points: 2
#     Edge 14, Type (0, 0), BuildingBlock: UVAHIK_clean_linker_0, # of connection points: 2
#     Edge 15, Type (0, 0), BuildingBlock: UVAHIK_clean_linker_0, # of connection points: 2
# Relax obj value: 0.019
# Max RMSD: 0.063
# Mean RMSD: 0.061
data_MOF--net-bsn--node1-VOLQOD_clean_sbu_1--edge1-UVAHIK_clean_linker_0
_symmetry_space_group_name_H-M    P1
_symmetry_Int_Tables_number       1
_symmetry_cell_setting            triclinic
loop_
_symmetry_equiv_pos_as_xyz
'x, y, z'
_cell_length_a     41.594471
_cell_length_b     41.791877
_cell_length_c     21.691299
_cell_angle_alpha  90.830167
_cell_angle_beta   90.167666
_cell_angle_gamma 90.401732
loop_
_atom_site_label
_atom_site_type_symbol
_atom_site_fract_x
_atom_site_fract_y
_atom_site_fract_z
_atom_type_partial_charge
O0 O 0.0309 0.25051 0.49957 0.0
Zn1 Zn 0.03731 0.26294 0.41133 0.0
O2 O 0.00429 0.24416 0.3591 0.0
Zn3 Zn 0.02257 0.2112 0.30646 0.0
Zn4 Zn 0.97129 0.22548 0.41003 0.0
Zn5 Zn 0.98614 0.27704 0.30761 0.0
O6 O 0.00927 0.21783 0.21829 0.0
O7 O -0.00072 0.27012 0.2192 0.0
O8 O 0.08163 0.25183 0.37976 0.0
O9 O 0.07065 0.2154 0.30696 0.0
O10 O 0.01047 0.16675 0.33454 0.0
O11 O 0.97338 0.1778 0.40481 0.0
O12 O 0.92708 0.23847 0.38197 0.0
O13 O 0.03298 0.31053 0.41293 0.0
O14 O 0.9379 0.27325 0.30827 0.0
O15 O 0.99825 0.32151 0.33836 0.0
C16 C 0.00529 0.24287 0.52814 0.0
C17 C 0.00426 0.2439 0.19011 0.0
C18 C 0.99005 0.15767 0.37445 0.0
C19 C 0.09079 0.23249 0.3374 0.0
C20 C 0.91779 0.25728 0.33984 0.0
C21 C 0.01689 0.33055 0.38208 0.0
O22 O 0.97931 0.23583 0.49955 0.0
O23 O 0.02415 0.73939 0.4611 0.0
Zn24 Zn 0.03096 0.72745 0.54946 0.0
O25 O -0.00139 0.74654 0.60176 0.0
Zn26 Zn 0.01786 0.77981 0.65324 0.0
Zn27 Zn 0.96554 0.76491 0.55073 0.0
Zn28 Zn 0.9803 0.71401 0.65432 0.0
O29 O 0.00494 0.77401 0.7418 0.0
O30 O 0.99397 0.72177 0.74238 0.0
O31 O 0.0757 0.73867 0.57991 0.0
O32 O 0.0659 0.77541 0.65232 0.0
O33 O 0.0065 0.82402 0.62361 0.0
O34 O 0.96858 0.8126 0.55444 0.0
O35 O 0.9213 0.75223 0.57981 0.0
O36 O 0.02604 0.67992 0.54939 0.0
O37 O 0.93205 0.71779 0.65404 0.0
O38 O 0.99194 0.66926 0.62512 0.0
C39 C -0.00148 0.74694 0.43258 0.0
C40 C -0.0004 0.74817 0.77072 0.0
C41 C 0.98597 0.83288 0.58371 0.0
C42 C 0.08552 0.75815 0.62179 0.0
C43 C 0.91198 0.73367 0.62246 0.0
C44 C 0.01016 0.66003 0.58128 0.0
O45 O 0.97277 0.75407 0.46125 0.0
O46 O 0.4896 0.71723 0.72019 0.0
Zn47 Zn 0.47706 0.71269 0.80926 0.0
O48 O 0.49877 0.74483 0.85958 0.0
Zn49 Zn 0.53147 0.72445 0.90913 0.0
Zn50 Zn 0.51817 0.77628 0.80595 0.0
Zn51 Zn 0.46786 0.76584 0.91264 0.0
O52 O 0.52451 0.73411 -0.00056 0.0
O53 O 0.47471 0.75341 0.00062 0.0
O54 O 0.48602 0.66807 0.83896 0.0
O55 O 0.52737 0.67677 0.90219 0.0
O56 O 0.57611 0.73636 0.88076 0.0
O57 O 0.56619 0.77077 0.80608 0.0
O58 O 0.50868 0.82167 0.83436 0.0
O59 O 0.4295 0.71971 0.81179 0.0
O60 O 0.47539 0.81307 0.91234 0.0
O61 O 0.42217 0.75709 0.88404 0.0
C62 C 0.4966 0.74243 0.6905 0.0
C63 C 0.49956 0.74331 0.02859 0.0
C64 C 0.58586 0.75455 0.83789 0.0
C65 C 0.50773 0.6578 0.87501 0.0
C66 C 0.49169 0.83201 0.87911 0.0
C67 C 0.41103 0.73799 0.84272 0.0
O68 O 0.50407 0.76861 0.71808 0.0
O69 O 0.5123 0.22243 0.24234 0.0
Zn70 Zn 0.52364 0.21598 0.15281 0.0
O71 O 0.50366 0.24863 0.10284 0.0
Zn72 Zn 0.47263 0.22942 0.04664 0.0
Zn73 Zn 0.48152 0.27918 0.15507 0.0
Zn74 Zn 0.53634 0.27016 0.05478 0.0
O75 O 0.47935 0.24519 0.9605 0.0
O76 O 0.53096 0.25954 0.96434 0.0
O77 O 0.51242 0.17138 0.12079 0.0
O78 O 0.48012 0.18227 0.04202 0.0
O79 O 0.42675 0.23656 0.07462 0.0
O80 O 0.43398 0.27264 0.1494 0.0
O81 O 0.49143 0.32447 0.13023 0.0
O82 O 0.57172 0.22103 0.15101 0.0
O83 O 0.53099 0.31773 0.06266 0.0
O84 O 0.581 0.25955 0.0839 0.0
C85 C 0.50223 0.24702 0.27172 0.0
C86 C 0.50541 0.25312 0.93383 0.0
C87 C 0.41552 0.2549 0.11666 0.0
C88 C 0.49568 0.16237 0.07422 0.0
C89 C 0.51208 0.33582 0.09302 0.0
C90 C 0.59111 0.23936 0.12277 0.0
O91 O 0.49225 0.27174 0.24396 0.0
C92 C 0.02645 0.37292 0.46219 0.0
C93 C 0.01807 0.36461 0.40123 0.0
C94 C 0.0257 0.40473 0.48236 0.0
C95 C 0.99302 0.48433 0.44007 0.0
H96 H 0.0526 0.51443 0.56649 0.0
C97 C 0.01853 0.61707 0.50234 0.0
C98 C 0.01148 0.62581 0.56365 0.0
C99 C 0.01877 0.58497 0.48403 0.0
C100 C 0.03572 0.50615 0.53152 0.0
H101 H 0.00315 0.38316 0.31303 0.0
H102 H 0.00349 0.43906 0.34711 0.0
H103 H 0.05581 0.45932 0.52853 0.0
H104 H -0.00038 0.60783 0.65408 0.0
H105 H 0.00129 0.55115 0.62213 0.0
H106 H 0.97422 0.53201 0.44137 0.0
C107 C 0.0095 0.42089 0.3802 0.0
C108 C 0.03737 0.47457 0.50983 0.0
C109 C 0.00958 0.38888 0.36037 0.0
C110 C 0.00509 0.60173 0.60657 0.0
C111 C 0.0061 0.56946 0.58845 0.0
C112 C 0.99189 0.51609 0.46084 0.0
C113 C 0.01722 0.42923 0.44174 0.0
C114 C 0.01595 0.46314 0.46393 0.0
C115 C 0.01264 0.56096 0.52691 0.0
C116 C 0.01314 0.52714 0.50681 0.0
H117 H 0.03267 0.35469 0.49509 0.0
H118 H 0.03108 0.40991 0.53034 0.0
H119 H 0.97564 0.4764 0.4058 0.0
H120 H 0.02329 0.6351 0.46809 0.0
H121 H 0.02398 0.57884 0.4364 0.0
C122 C 0.64237 0.73486 0.8509 0.0
C123 C 0.62038 0.75487 0.82103 0.0
C124 C 0.67416 0.73279 0.83056 0.0
C125 C 0.73544 0.77383 0.73595 0.0
H126 H 0.7727 0.68922 0.72221 0.0
C127 C 0.85515 0.75234 0.60973 0.0
C128 C 0.8775 0.7327 0.63951 0.0
C129 C 0.82342 0.75409 0.63048 0.0
C130 C 0.76275 0.71303 0.72626 0.0
H131 H 0.615 0.78917 0.7475 0.0
H132 H 0.67023 0.78536 0.71202 0.0
H133 H 0.7188 0.69541 0.7645 0.0
H134 H 0.88357 0.69857 0.71312 0.0
H135 H 0.82836 0.70178 0.7493 0.0
H136 H 0.77935 0.79145 0.69765 0.0
C137 C 0.663 0.77145 0.75144 0.0
C138 C 0.7319 0.7166 0.75068 0.0
C139 C 0.63124 0.77353 0.77171 0.0
C140 C 0.86703 0.71395 0.68902 0.0
C141 C 0.83531 0.71569 0.7097 0.0
C142 C 0.76626 0.77025 0.71151 0.0
C143 C 0.6847 0.7507 0.78 0.0
C144 C 0.71787 0.74704 0.75574 0.0
C145 C 0.81329 0.73621 0.68138 0.0
C146 C 0.78026 0.73981 0.70629 0.0
H147 H 0.63487 0.72022 0.88913 0.0
H148 H 0.69045 0.71696 0.85419 0.0
H149 H 0.72551 0.79765 0.74 0.0
H150 H 0.86231 0.76702 0.57132 0.0
H151 H 0.80687 0.76971 0.607 0.0
C152 C 0.5405 0.38514 0.05819 0.0
C153 C 0.51245 0.37039 0.08041 0.0
C154 C 0.53997 0.41697 0.03957 0.0
C155 C 0.48844 0.4737 0.96841 0.0
H156 H 0.54698 0.53919 0.03058 0.0
C157 C 0.48036 0.60522 0.89139 0.0
C158 C 0.50873 0.62357 0.89032 0.0
C159 C 0.48066 0.57411 0.91419 0.0
C160 C 0.53085 0.5211 0.01173 0.0
H161 H 0.46206 0.37745 0.10174 0.0
H162 H 0.46102 0.43302 0.06734 0.0
H163 H 0.54806 0.48583 0.07445 0.0
H164 H 0.55995 0.62334 0.9087 0.0
H165 H 0.56095 0.56855 0.94495 0.0
H166 H 0.47212 0.50809 0.90375 0.0
C167 C 0.48338 0.41993 0.0652 0.0
C168 C 0.53131 0.49067 0.03744 0.0
C169 C 0.48407 0.3883 0.08518 0.0
C170 C 0.53766 0.60977 0.90956 0.0
C171 C 0.53812 0.57846 0.93103 0.0
C172 C 0.48842 0.50392 0.94174 0.0
C173 C 0.51124 0.43432 0.0416 0.0
C174 C 0.51006 0.46681 0.01606 0.0
C175 C 0.50949 0.56047 0.9352 0.0
C176 C 0.50963 0.52807 0.96303 0.0
H177 H 0.5627 0.37188 0.05414 0.0
H178 H 0.5617 0.42765 0.02133 0.0
H179 H 0.47211 0.45542 0.95074 0.0
H180 H 0.45765 0.61544 0.87745 0.0
H181 H 0.45804 0.56129 0.91734 0.0
C182 C 0.86097 0.23769 0.35089 0.0
C183 C 0.88324 0.25849 0.32333 0.0
C184 C 0.82914 0.23626 0.33018 0.0
C185 C 0.76804 0.27966 0.24062 0.0
H186 H 0.7312 0.19503 0.2142 0.0
C187 C 0.64742 0.26071 0.1131 0.0
C188 C 0.62567 0.23901 0.13957 0.0
C189 C 0.67926 0.26255 0.13375 0.0
C190 C 0.74101 0.21884 0.22184 0.0
H191 H 0.88906 0.29506 0.25404 0.0
H192 H 0.83362 0.29247 0.21805 0.0
H193 H 0.78513 0.20057 0.25749 0.0
H194 H 0.62072 0.2015 0.20722 0.0
H195 H 0.67601 0.20492 0.24335 0.0
H196 H 0.72387 0.29795 0.20517 0.0
C197 C 0.84075 0.27735 0.25578 0.0
C198 C 0.77188 0.22202 0.2468 0.0
C199 C 0.87259 0.27873 0.27631 0.0
C200 C 0.63679 0.21848 0.18568 0.0
C201 C 0.66858 0.22034 0.2063 0.0
C202 C 0.73713 0.27649 0.21577 0.0
C203 C 0.81883 0.25567 0.28168 0.0
C204 C 0.78573 0.25246 0.25651 0.0
C205 C 0.69006 0.24273 0.18126 0.0
C206 C 0.72325 0.24604 0.20611 0.0
H207 H 0.86829 0.22183 0.38731 0.0
H208 H 0.81266 0.21968 0.35174 0.0
H209 H 0.77792 0.30345 0.24817 0.0
H210 H 0.63972 0.27681 0.07737 0.0
H211 H 0.69537 0.27969 0.1128 0.0
C212 C 0.36009 0.23112 0.10453 0.0
C213 C 0.38077 0.25417 0.13143 0.0
C214 C 0.32806 0.22866 0.12366 0.0
C215 C 0.26418 0.27262 0.20777 0.0
H216 H 0.23032 0.18779 0.23975 0.0
C217 C 0.14717 0.25413 0.34388 0.0
C218 C 0.12507 0.23182 0.319 0.0
C219 C 0.17851 0.25589 0.32106 0.0
C220 C 0.23934 0.21162 0.23055 0.0
H221 H 0.38359 0.29344 0.19799 0.0
H222 H 0.32817 0.28897 0.23133 0.0
H223 H 0.28382 0.19369 0.1952 0.0
H224 H 0.1191 0.19294 0.2523 0.0
H225 H 0.17368 0.1961 0.21267 0.0
H226 H 0.21985 0.29056 0.24354 0.0
C227 C 0.3365 0.27294 0.1952 0.0
C228 C 0.26992 0.215 0.20478 0.0
C229 C 0.36841 0.27536 0.17625 0.0
C230 C 0.13545 0.21047 0.27253 0.0
C231 C 0.1668 0.21217 0.24989 0.0
C232 C 0.23367 0.26924 0.23363 0.0
C233 C 0.31606 0.24929 0.16983 0.0
C234 C 0.28278 0.24556 0.19351 0.0
C235 C 0.18849 0.23531 0.27307 0.0
C236 C 0.22099 0.23872 0.24571 0.0
H237 H 0.36882 0.21444 0.06986 0.0
H238 H 0.31277 0.21045 0.10264 0.0
H239 H 0.27317 0.29647 0.19875 0.0
H240 H 0.14003 0.27089 0.37977 0.0
H241 H 0.19487 0.27362 0.34057 0.0
C242 C 0.35582 0.76167 0.85229 0.0
C243 C 0.37638 0.73849 0.82666 0.0
C244 C 0.32392 0.76388 0.83217 0.0
C245 C 0.25979 0.71908 0.74807 0.0
H246 H 0.22655 0.80357 0.71469 0.0
C247 C 0.14152 0.73642 0.6144 0.0
C248 C 0.11999 0.75888 0.63938 0.0
C249 C 0.1731 0.73484 0.63634 0.0
C250 C 0.2354 0.77983 0.72425 0.0
H251 H 0.37911 0.69878 0.76119 0.0
H252 H 0.32384 0.70281 0.72612 0.0
H253 H 0.28022 0.79814 0.7589 0.0
H254 H 0.11525 0.79816 0.70532 0.0
H255 H 0.17021 0.79531 0.74343 0.0
H256 H 0.21506 0.70075 0.71316 0.0
C257 C 0.3322 0.71914 0.76203 0.0
C258 C 0.26609 0.77672 0.74981 0.0
C259 C 0.36401 0.71695 0.78199 0.0
C260 C 0.13115 0.78052 0.68504 0.0
C261 C 0.16273 0.77899 0.70679 0.0
C262 C 0.22915 0.72219 0.72244 0.0
C263 C 0.31189 0.74289 0.7862 0.0
C264 C 0.27869 0.74629 0.76178 0.0
C265 C 0.18388 0.75575 0.68352 0.0
C266 C 0.21665 0.75258 0.71 0.0
H267 H 0.36453 0.77861 0.88681 0.0
H268 H 0.30873 0.78216 0.85232 0.0
H269 H 0.26859 0.69532 0.75757 0.0
H270 H 0.13378 0.71944 0.57912 0.0
H271 H 0.18901 0.717 0.61678 0.0
C272 C 0.48621 0.87585 0.95733 0.0
C273 C 0.49235 0.86636 0.89605 0.0
C274 C 0.48787 0.90803 0.97491 0.0
C275 C 0.47606 0.98769 0.92266 0.0
H276 H 0.5336 0.01449 0.05496 0.0
C277 C 0.48978 0.12044 -0.0079 0.0
C278 C 0.49558 0.12842 0.05429 0.0
C279 C 0.49041 0.08863 0.97189 0.0
C280 C 0.51698 0.00742 0.0187 0.0
H281 H 0.50461 0.88314 0.80493 0.0
H282 H 0.50631 0.93998 0.83558 0.0
H283 H 0.5326 0.95864 0.02064 0.0
H284 H 0.50624 0.10938 0.14431 0.0
H285 H 0.50573 0.05352 0.10985 0.0
H286 H 0.45906 0.03573 0.92227 0.0
C287 C 0.50071 0.92219 0.86984 0.0
C288 C 0.51669 0.97549 -0.00128 0.0
C289 C 0.49979 0.8898 0.85244 0.0
C290 C 0.50181 0.10389 0.09606 0.0
C291 C 0.50176 0.0719 0.07606 0.0
C292 C 0.47582 0.01948 0.94344 0.0
C293 C 0.49504 0.93144 0.93135 0.0
C294 C 0.49627 0.96543 0.95055 0.0
C295 C 0.49618 0.06384 0.01357 0.0
C296 C 0.49632 0.02984 -0.00828 0.0
H297 H 0.48066 0.85832 -0.00789 0.0
H298 H 0.48322 0.9147 0.0225 0.0
H299 H 0.45982 0.98028 0.88592 0.0
H300 H 0.4854 0.13888 0.95856 0.0
H301 H 0.48683 0.08364 0.92324 0.0
C302 C 0.00517 0.88995 0.59186 0.0
C303 C 0.98371 0.86702 0.567 0.0
C304 C 0.00475 0.9215 0.5712 0.0
C305 C 0.95435 0.97955 0.48803 0.0
H306 H 0.03588 0.02165 0.45617 0.0
C307 C 0.96412 0.1135 0.43323 0.0
C308 C 0.98694 0.12335 0.38958 0.0
C309 C 0.96285 0.08181 0.4523 0.0
C310 C 0.01292 0.01008 0.4642 0.0
H311 H 0.94437 0.85958 0.50213 0.0
H312 H 0.94388 0.91423 0.46605 0.0
H313 H 0.03526 0.96763 0.49728 0.0
H314 H 0.02569 0.10725 0.33025 0.0
H315 H 0.02315 0.05161 0.36313 0.0
H316 H 0.932 0.02168 0.45382 0.0
C317 C 0.96084 0.90801 0.50184 0.0
C318 C 0.01256 0.97933 0.48865 0.0
C319 C 0.96125 0.87657 0.52242 0.0
C320 C 0.00786 0.10048 0.36403 0.0
C321 C 0.00658 0.06868 0.38322 0.0
C322 C 0.95471 0.01025 0.46355 0.0
C323 C 0.98283 0.93076 0.5254 0.0
C324 C 0.98327 0.96374 0.50091 0.0
C325 C 0.98432 0.05912 0.42816 0.0
C326 C 0.98399 0.02591 0.45153 0.0
H327 H 0.02276 0.88342 0.6263 0.0
H328 H 0.02169 0.93862 0.5909 0.0
H329 H 0.93137 0.9683 0.49737 0.0
H330 H 0.94761 0.13043 0.45395 0.0
H331 H 0.94566 0.07535 0.48749 0.0
C332 C 0.99601 0.21576 0.0889 0.0
C333 C 0.00434 0.24371 0.12219 0.0
C334 C 0.99585 0.21566 0.02454 0.0
C335 C 0.03366 0.24882 0.89292 0.0
H336 H 0.95418 0.23317 0.80327 0.0
C337 C 0.0267 0.26258 0.62946 0.0
C338 C 0.00563 0.24246 0.59603 0.0
C339 C 0.02648 0.26277 0.69381 0.0
C340 C 0.97674 0.23697 0.82734 0.0
H341 H 0.01951 0.29326 0.1146 0.0
H342 H 0.02028 0.29263 0.00162 0.0
H343 H 0.95421 0.23259 0.91568 0.0
H344 H 0.96844 0.20618 0.60322 0.0
H345 H 0.96915 0.20518 0.71533 0.0
H346 H 0.05672 0.25185 0.80544 0.0
C347 C 0.01342 0.2711 0.02566 0.0
C348 C 0.97661 0.23688 0.89168 0.0
C349 C 0.01284 0.27145 0.09002 0.0
C350 C 0.9847 0.22217 0.62798 0.0
C351 C 0.98498 0.22181 0.69232 0.0
C352 C 0.03399 0.2482 0.82857 0.0
C353 C 0.00476 0.24326 -0.00739 0.0
C354 C 0.00501 0.24299 0.92478 0.0
C355 C 0.00569 0.24231 0.72618 0.0
C356 C 0.00549 0.24246 0.79483 0.0
H357 H 0.98923 0.19411 0.1126 0.0
H358 H 0.98916 0.19394 -0.00037 0.0
H359 H 0.05587 0.25332 0.91789 0.0
H360 H 0.04286 0.27871 0.60587 0.0
H361 H 0.04229 0.27939 0.71801 0.0
C362 C 0.99216 0.77694 0.87138 0.0
C363 C -6e-05 0.74879 0.83865 0.0
C364 C 0.99194 0.7773 0.93577 0.0
C365 C 0.02849 0.74407 0.06882 0.0
H366 H 0.94865 0.75925 0.15593 0.0
C367 C 0.01955 0.72768 0.33114 0.0
C368 C -0.00127 0.74758 0.36471 0.0
C369 C 0.01963 0.72811 0.26682 0.0
C370 C 0.97132 0.75558 0.1326 0.0
H371 H 0.01421 0.69923 0.84723 0.0
H372 H 0.01489 0.70032 0.96017 0.0
H373 H 0.94949 0.76064 0.04357 0.0
H374 H 0.96215 0.78401 0.3578 0.0
H375 H 0.96335 0.78605 0.24578 0.0
H376 H 0.05087 0.74028 0.15703 0.0
C377 C 0.00849 0.7218 0.93572 0.0
C378 C 0.97165 0.75616 0.06827 0.0
C379 C 0.00797 0.72118 0.87137 0.0
C380 C 0.97821 0.76817 0.33291 0.0
C381 C 0.9788 0.76915 0.26862 0.0
C382 C 0.02837 0.74419 0.13317 0.0
C383 C 0.00027 0.74979 0.96824 0.0
C384 C 0.00017 0.75015 0.03607 0.0
C385 C -0.00061 0.749 0.23462 0.0
C386 C -0.00029 0.74967 0.166 0.0
H387 H 0.98576 0.7985 0.84724 0.0
H388 H 0.98558 0.79912 0.96026 0.0
H389 H 0.05079 0.73962 0.04457 0.0
H390 H 0.0354 0.71134 0.35459 0.0
H391 H 0.03529 0.7117 0.24248 0.0
C392 C 0.48024 0.76373 0.13042 0.0
C393 C 0.49932 0.7423 0.09647 0.0
C394 C 0.4799 0.76288 0.19469 0.0
C395 C 0.52489 0.73052 0.32885 0.0
H396 H 0.44681 0.75337 0.4159 0.0
C397 C 0.50195 0.71241 0.59061 0.0
C398 C 0.49618 0.74129 0.62256 0.0
C399 C 0.50226 0.71155 0.52621 0.0
C400 C 0.46871 0.74696 0.39194 0.0
H401 H 0.53257 0.70281 0.1027 0.0
H402 H 0.53081 0.70014 0.21473 0.0
H403 H 0.44714 0.75269 0.30348 0.0
H404 H 0.48555 0.79169 0.61254 0.0
H405 H 0.48499 0.78981 0.49964 0.0
H406 H 0.54582 0.72365 0.41818 0.0
C407 C 0.51698 0.71846 0.19217 0.0
C408 C 0.46909 0.74681 0.3276 0.0
C409 C 0.51788 0.71981 0.12788 0.0
C410 C 0.49021 0.76915 0.58903 0.0
C411 C 0.48976 0.76809 0.52469 0.0
C412 C 0.52424 0.72998 0.3932 0.0
C413 C 0.49805 0.74006 0.22652 0.0
C414 C 0.49731 0.73898 0.29511 0.0
C415 C 0.49602 0.73935 0.49294 0.0
C416 C 0.49627 0.73854 0.42507 0.0
H417 H 0.46596 0.78155 0.10732 0.0
H418 H 0.46565 0.78044 0.2193 0.0
H419 H 0.54724 0.72491 0.3058 0.0
H420 H 0.50676 0.69062 0.61538 0.0
H421 H 0.50707 0.68914 0.50235 0.0
C422 C 0.48043 0.26571 0.37291 0.0
C423 C 0.5026 0.24719 0.33965 0.0
C424 C 0.48108 0.26638 0.43725 0.0
C425 C 0.51505 0.22368 0.57242 0.0
H426 H 0.49064 0.30168 0.65885 0.0
C427 C 0.53491 0.24862 0.8339 0.0
C428 C 0.50612 0.25417 0.86595 0.0
C429 C 0.53521 0.24815 0.7695 0.0
C430 C 0.49748 0.2798 0.63507 0.0
H431 H 0.54312 0.21518 0.34716 0.0
H432 H 0.5454 0.21751 0.45928 0.0
H433 H 0.49046 0.30013 0.54644 0.0
H434 H 0.45534 0.26444 0.85612 0.0
H435 H 0.45621 0.2647 0.74325 0.0
H436 H 0.52323 0.20403 0.66187 0.0
C437 C 0.52667 0.23064 0.43615 0.0
C438 C 0.49713 0.27872 0.57073 0.0
C439 C 0.52552 0.22941 0.3718 0.0
C440 C 0.47782 0.25997 0.83253 0.0
C441 C 0.4783 0.26024 0.76819 0.0
C442 C 0.51607 0.22505 0.63675 0.0
C443 C 0.50443 0.24913 0.46981 0.0
C444 C 0.5056 0.25053 0.53845 0.0
C445 C 0.50691 0.25399 0.73632 0.0
C446 C 0.50703 0.25301 0.66843 0.0
H447 H 0.46229 0.27941 0.34919 0.0
H448 H 0.46302 0.28025 0.4613 0.0
H449 H 0.52113 0.20136 0.54954 0.0
H450 H 0.55703 0.24393 0.85856 0.0
H451 H 0.55753 0.24336 0.74556 0.0
loop_
_geom_bond_atom_site_label_1
_geom_bond_atom_site_label_2
_geom_bond_distance
_geom_bond_site_symmetry_2
_ccdc_geom_bond_type
O0 Zn1 1.953 . S
O0 C16 1.225 . S
Zn1 O0 1.953 . S
Zn1 O2 1.949 . S
Zn1 O8 1.919 . S
Zn1 O13 1.924 . S
O2 Zn1 1.949 . S
O2 Zn3 1.923 . S
O2 Zn4 1.950 1_455 S
O2 Zn5 1.945 1_455 S
Zn3 O2 1.923 . S
Zn3 O6 1.933 . S
Zn3 O9 1.941 . S
Zn3 O10 1.965 . S
Zn4 O2 1.950 1_655 S
Zn4 O11 1.938 . S
Zn4 O12 1.906 . S
Zn4 O22 1.953 . S
Zn5 O2 1.945 1_655 S
Zn5 O7 1.932 . S
Zn5 O14 1.977 . S
Zn5 O15 1.910 . S
O6 Zn3 1.933 . S
O6 C17 1.226 . S
O7 Zn5 1.932 . S
O7 C17 1.307 1_655 S
O8 Zn1 1.919 . S
O8 C19 1.253 . S
O9 Zn3 1.941 . S
O9 C19 1.283 . S
O10 Zn3 1.965 . S
O10 C18 1.303 . S
O11 Zn4 1.938 . S
O11 C18 1.247 1_655 S
O12 Zn4 1.906 . S
O12 C20 1.304 . S
O13 Zn1 1.924 . S
O13 C21 1.311 . S
O14 Zn5 1.977 . S
O14 C20 1.272 . S
O15 Zn5 1.910 . S
O15 C21 1.231 1_655 S
C16 O0 1.225 . S
C16 O22 1.298 1_455 S
C17 O6 1.226 . S
C17 O7 1.307 1_455 S
C18 O10 1.303 . S
C18 O11 1.247 1_455 S
C19 O8 1.253 . S
C19 O9 1.283 . S
C20 O12 1.304 . S
C20 O14 1.272 . S
C21 O13 1.311 . S
C21 O15 1.231 1_455 S
O22 Zn4 1.953 . S
O22 C16 1.298 1_655 S
O23 Zn24 1.953 . S
O23 C39 1.225 . S
Zn24 O23 1.953 . S
Zn24 O25 1.949 . S
Zn24 O31 1.919 . S
Zn24 O36 1.924 . S
O25 Zn24 1.949 . S
O25 Zn26 1.923 . S
O25 Zn27 1.950 1_455 S
O25 Zn28 1.945 1_455 S
Zn26 O25 1.923 . S
Zn26 O29 1.933 . S
Zn26 O32 1.941 . S
Zn26 O33 1.965 . S
Zn27 O25 1.950 1_655 S
Zn27 O34 1.938 . S
Zn27 O35 1.906 . S
Zn27 O45 1.953 . S
Zn28 O25 1.945 1_655 S
Zn28 O30 1.932 . S
Zn28 O37 1.977 . S
Zn28 O38 1.910 . S
O29 Zn26 1.933 . S
O29 C40 1.226 . S
O30 Zn28 1.932 . S
O30 C40 1.307 1_655 S
O31 Zn24 1.919 . S
O31 C42 1.253 . S
O32 Zn26 1.941 . S
O32 C42 1.283 . S
O33 Zn26 1.965 . S
O33 C41 1.303 1_455 S
O34 Zn27 1.938 . S
O34 C41 1.247 . S
O35 Zn27 1.906 . S
O35 C43 1.304 . S
O36 Zn24 1.924 . S
O36 C44 1.311 . S
O37 Zn28 1.977 . S
O37 C43 1.272 . S
O38 Zn28 1.910 . S
O38 C44 1.231 1_655 S
C39 O23 1.225 . S
C39 O45 1.298 1_455 S
C40 O29 1.226 . S
C40 O30 1.307 1_455 S
C41 O33 1.303 1_655 S
C41 O34 1.247 . S
C42 O31 1.253 . S
C42 O32 1.283 . S
C43 O35 1.304 . S
C43 O37 1.272 . S
C44 O36 1.311 . S
C44 O38 1.231 1_455 S
O45 Zn27 1.953 . S
O45 C39 1.298 1_655 S
O46 Zn47 1.953 . S
O46 C62 1.225 . S
Zn47 O46 1.953 . S
Zn47 O48 1.949 . S
Zn47 O54 1.919 . S
Zn47 O59 1.924 . S
O48 Zn47 1.949 . S
O48 Zn49 1.923 . S
O48 Zn50 1.950 . S
O48 Zn51 1.945 . S
Zn49 O48 1.923 . S
Zn49 O52 1.933 1_556 S
Zn49 O55 1.941 . S
Zn49 O56 1.965 . S
Zn50 O48 1.950 . S
Zn50 O57 1.938 . S
Zn50 O58 1.906 . S
Zn50 O68 1.953 . S
Zn51 O48 1.945 . S
Zn51 O53 1.932 1_556 S
Zn51 O60 1.977 . S
Zn51 O61 1.910 . S
O52 Zn49 1.933 1_554 S
O52 C63 1.226 . S
O53 Zn51 1.932 1_554 S
O53 C63 1.307 . S
O54 Zn47 1.919 . S
O54 C65 1.253 . S
O55 Zn49 1.941 . S
O55 C65 1.283 . S
O56 Zn49 1.965 . S
O56 C64 1.303 . S
O57 Zn50 1.938 . S
O57 C64 1.247 . S
O58 Zn50 1.906 . S
O58 C66 1.304 . S
O59 Zn47 1.924 . S
O59 C67 1.311 . S
O60 Zn51 1.977 . S
O60 C66 1.272 . S
O61 Zn51 1.910 . S
O61 C67 1.231 . S
C62 O46 1.225 . S
C62 O68 1.298 . S
C63 O52 1.226 . S
C63 O53 1.307 . S
C64 O56 1.303 . S
C64 O57 1.247 . S
C65 O54 1.253 . S
C65 O55 1.283 . S
C66 O58 1.304 . S
C66 O60 1.272 . S
C67 O59 1.311 . S
C67 O61 1.231 . S
O68 Zn50 1.953 . S
O68 C62 1.298 . S
O69 Zn70 1.953 . S
O69 C85 1.225 . S
Zn70 O69 1.953 . S
Zn70 O71 1.949 . S
Zn70 O77 1.919 . S
Zn70 O82 1.924 . S
O71 Zn70 1.949 . S
O71 Zn72 1.923 . S
O71 Zn73 1.950 . S
O71 Zn74 1.945 . S
Zn72 O71 1.923 . S
Zn72 O75 1.933 1_554 S
Zn72 O78 1.941 . S
Zn72 O79 1.965 . S
Zn73 O71 1.950 . S
Zn73 O80 1.938 . S
Zn73 O81 1.906 . S
Zn73 O91 1.953 . S
Zn74 O71 1.945 . S
Zn74 O76 1.932 1_554 S
Zn74 O83 1.977 . S
Zn74 O84 1.910 . S
O75 Zn72 1.933 1_556 S
O75 C86 1.226 . S
O76 Zn74 1.932 1_556 S
O76 C86 1.307 . S
O77 Zn70 1.919 . S
O77 C88 1.253 . S
O78 Zn72 1.941 . S
O78 C88 1.283 . S
O79 Zn72 1.965 . S
O79 C87 1.303 . S
O80 Zn73 1.938 . S
O80 C87 1.247 . S
O81 Zn73 1.906 . S
O81 C89 1.304 . S
O82 Zn70 1.924 . S
O82 C90 1.311 . S
O83 Zn74 1.977 . S
O83 C89 1.272 . S
O84 Zn74 1.910 . S
O84 C90 1.231 . S
C85 O69 1.225 . S
C85 O91 1.298 . S
C86 O75 1.226 . S
C86 O76 1.307 . S
C87 O79 1.303 . S
C87 O80 1.247 . S
C88 O77 1.253 . S
C88 O78 1.283 . S
C89 O81 1.304 . S
C89 O83 1.272 . S
C90 O82 1.311 . S
C90 O84 1.231 . S
O91 Zn73 1.953 . S
O91 C85 1.298 . S
C92 C93 1.349 . S
C92 C94 1.327 . S
C92 H117 0.950 . S
C93 C92 1.349 . S
C93 C109 1.347 1_455 S
C94 C92 1.327 . S
C94 C113 1.429 . S
C94 H118 0.950 . S
C95 C112 1.574 . S
C95 C114 1.368 1_655 S
C95 H119 0.949 . S
H96 C100 0.949 . S
C97 C98 1.349 1_655 S
C97 C99 1.327 . S
C97 H120 0.950 . S
C98 C97 1.349 1_455 S
C98 C110 1.349 . S
C99 C97 1.327 . S
C99 C115 1.429 1_655 S
C99 H121 0.950 . S
C100 H96 0.949 . S
C100 C108 1.574 . S
C100 C116 1.368 . S
H101 C109 0.952 . S
H102 C107 0.954 . S
H103 C108 0.949 . S
H104 C110 0.950 . S
H105 C111 0.950 . S
H106 C112 0.949 . S
C107 H102 0.954 . S
C107 C109 1.327 . S
C107 C113 1.425 1_655 S
C108 C100 1.574 . S
C108 H103 0.949 . S
C108 C114 1.368 . S
C109 C93 1.347 1_655 S
C109 H101 0.952 . S
C109 C107 1.327 . S
C110 C98 1.349 . S
C110 H104 0.950 . S
C110 C111 1.327 . S
C111 H105 0.950 . S
C111 C110 1.327 . S
C111 C115 1.429 . S
C112 C95 1.574 . S
C112 H106 0.949 . S
C112 C116 1.368 1_655 S
C113 C94 1.429 . S
C113 C107 1.425 1_455 S
C113 C114 1.523 . S
C114 C95 1.368 1_455 S
C114 C108 1.368 . S
C114 C113 1.523 . S
C115 C99 1.429 1_455 S
C115 C111 1.429 . S
C115 C116 1.523 . S
C116 C100 1.368 . S
C116 C112 1.368 1_455 S
C116 C115 1.523 . S
H117 C92 0.950 . S
H118 C94 0.950 . S
H119 C95 0.949 . S
H120 C97 0.950 . S
H121 C99 0.950 . S
C122 C123 1.349 . S
C122 C124 1.327 . S
C122 H147 0.950 . S
C123 C122 1.349 . S
C123 C139 1.349 . S
C124 C122 1.327 . S
C124 C143 1.429 . S
C124 H148 0.950 . S
C125 C142 1.574 . S
C125 C144 1.368 . S
C125 H149 0.949 . S
H126 C130 0.949 . S
C127 C128 1.349 . S
C127 C129 1.327 . S
C127 H150 0.950 . S
C128 C127 1.349 . S
C128 C140 1.349 . S
C129 C127 1.327 . S
C129 C145 1.429 . S
C129 H151 0.950 . S
C130 H126 0.949 . S
C130 C138 1.574 . S
C130 C146 1.368 . S
H131 C139 0.950 . S
H132 C137 0.950 . S
H133 C138 0.949 . S
H134 C140 0.950 . S
H135 C141 0.950 . S
H136 C142 0.949 . S
C137 H132 0.950 . S
C137 C139 1.327 . S
C137 C143 1.429 . S
C138 C130 1.574 . S
C138 H133 0.949 . S
C138 C144 1.368 . S
C139 C123 1.349 . S
C139 H131 0.950 . S
C139 C137 1.327 . S
C140 C128 1.349 . S
C140 H134 0.950 . S
C140 C141 1.327 . S
C141 H135 0.950 . S
C141 C140 1.327 . S
C141 C145 1.429 . S
C142 C125 1.574 . S
C142 H136 0.949 . S
C142 C146 1.368 . S
C143 C124 1.429 . S
C143 C137 1.429 . S
C143 C144 1.523 . S
C144 C125 1.368 . S
C144 C138 1.368 . S
C144 C143 1.523 . S
C145 C129 1.429 . S
C145 C141 1.429 . S
C145 C146 1.523 . S
C146 C130 1.368 . S
C146 C142 1.368 . S
C146 C145 1.523 . S
H147 C122 0.950 . S
H148 C124 0.950 . S
H149 C125 0.949 . S
H150 C127 0.950 . S
H151 C129 0.950 . S
C152 C153 1.349 . S
C152 C154 1.327 . S
C152 H177 0.950 . S
C153 C152 1.349 . S
C153 C169 1.349 . S
C154 C152 1.327 . S
C154 C173 1.429 . S
C154 H178 0.950 . S
C155 C172 1.574 . S
C155 C174 1.368 1_556 S
C155 H179 0.949 . S
H156 C160 0.949 . S
C157 C158 1.349 . S
C157 C159 1.327 . S
C157 H180 0.950 . S
C158 C157 1.349 . S
C158 C170 1.349 . S
C159 C157 1.327 . S
C159 C175 1.429 . S
C159 H181 0.950 . S
C160 H156 0.949 . S
C160 C168 1.574 . S
C160 C176 1.368 1_554 S
H161 C169 0.950 . S
H162 C167 0.950 1_556 S
H163 C168 0.949 . S
H164 C170 0.950 . S
H165 C171 0.950 1_554 S
H166 C172 0.949 . S
C167 H162 0.950 1_554 S
C167 C169 1.327 . S
C167 C173 1.429 . S
C168 C160 1.574 . S
C168 H163 0.949 . S
C168 C174 1.368 . S
C169 C153 1.349 . S
C169 H161 0.950 . S
C169 C167 1.327 . S
C170 C158 1.349 . S
C170 H164 0.950 . S
C170 C171 1.327 . S
C171 H165 0.950 1_556 S
C171 C170 1.327 . S
C171 C175 1.429 . S
C172 C155 1.574 . S
C172 H166 0.949 . S
C172 C176 1.368 . S
C173 C154 1.429 . S
C173 C167 1.429 . S
C173 C174 1.523 . S
C174 C155 1.368 1_554 S
C174 C168 1.368 . S
C174 C173 1.523 . S
C175 C159 1.429 . S
C175 C171 1.429 . S
C175 C176 1.523 . S
C176 C160 1.368 1_556 S
C176 C172 1.368 . S
C176 C175 1.523 . S
H177 C152 0.950 . S
H178 C154 0.950 . S
H179 C155 0.949 . S
H180 C157 0.950 . S
H181 C159 0.950 . S
C182 C183 1.349 . S
C182 C184 1.327 . S
C182 H207 0.950 . S
C183 C182 1.349 . S
C183 C199 1.349 . S
C184 C182 1.327 . S
C184 C203 1.429 . S
C184 H208 0.950 . S
C185 C202 1.574 . S
C185 C204 1.368 . S
C185 H209 0.949 . S
H186 C190 0.949 . S
C187 C188 1.349 . S
C187 C189 1.327 . S
C187 H210 0.950 . S
C188 C187 1.349 . S
C188 C200 1.349 . S
C189 C187 1.327 . S
C189 C205 1.429 . S
C189 H211 0.950 . S
C190 H186 0.949 . S
C190 C198 1.574 . S
C190 C206 1.368 . S
H191 C199 0.950 . S
H192 C197 0.950 . S
H193 C198 0.949 . S
H194 C200 0.950 . S
H195 C201 0.950 . S
H196 C202 0.949 . S
C197 H192 0.950 . S
C197 C199 1.327 . S
C197 C203 1.429 . S
C198 C190 1.574 . S
C198 H193 0.949 . S
C198 C204 1.368 . S
C199 C183 1.349 . S
C199 H191 0.950 . S
C199 C197 1.327 . S
C200 C188 1.349 . S
C200 H194 0.950 . S
C200 C201 1.327 . S
C201 H195 0.950 . S
C201 C200 1.327 . S
C201 C205 1.429 . S
C202 C185 1.574 . S
C202 H196 0.949 . S
C202 C206 1.368 . S
C203 C184 1.429 . S
C203 C197 1.429 . S
C203 C204 1.523 . S
C204 C185 1.368 . S
C204 C198 1.368 . S
C204 C203 1.523 . S
C205 C189 1.429 . S
C205 C201 1.429 . S
C205 C206 1.523 . S
C206 C190 1.368 . S
C206 C202 1.368 . S
C206 C205 1.523 . S
H207 C182 0.950 . S
H208 C184 0.950 . S
H209 C185 0.949 . S
H210 C187 0.950 . S
H211 C189 0.950 . S
C212 C213 1.349 . S
C212 C214 1.327 . S
C212 H237 0.950 . S
C213 C212 1.349 . S
C213 C229 1.349 . S
C214 C212 1.327 . S
C214 C233 1.429 . S
C214 H238 0.950 . S
C215 C232 1.574 . S
C215 C234 1.368 . S
C215 H239 0.949 . S
H216 C220 0.949 . S
C217 C218 1.349 . S
C217 C219 1.327 . S
C217 H240 0.950 . S
C218 C217 1.349 . S
C218 C230 1.349 . S
C219 C217 1.327 . S
C219 C235 1.429 . S
C219 H241 0.950 . S
C220 H216 0.949 . S
C220 C228 1.574 . S
C220 C236 1.368 . S
H221 C229 0.950 . S
H222 C227 0.950 . S
H223 C228 0.949 . S
H224 C230 0.950 . S
H225 C231 0.950 . S
H226 C232 0.949 . S
C227 H222 0.950 . S
C227 C229 1.327 . S
C227 C233 1.429 . S
C228 C220 1.574 . S
C228 H223 0.949 . S
C228 C234 1.368 . S
C229 C213 1.349 . S
C229 H221 0.950 . S
C229 C227 1.327 . S
C230 C218 1.349 . S
C230 H224 0.950 . S
C230 C231 1.327 . S
C231 H225 0.950 . S
C231 C230 1.327 . S
C231 C235 1.429 . S
C232 C215 1.574 . S
C232 H226 0.949 . S
C232 C236 1.368 . S
C233 C214 1.429 . S
C233 C227 1.429 . S
C233 C234 1.523 . S
C234 C215 1.368 . S
C234 C228 1.368 . S
C234 C233 1.523 . S
C235 C219 1.429 . S
C235 C231 1.429 . S
C235 C236 1.523 . S
C236 C220 1.368 . S
C236 C232 1.368 . S
C236 C235 1.523 . S
H237 C212 0.950 . S
H238 C214 0.950 . S
H239 C215 0.949 . S
H240 C217 0.950 . S
H241 C219 0.950 . S
C242 C243 1.349 . S
C242 C244 1.327 . S
C242 H267 0.950 . S
C243 C242 1.349 . S
C243 C259 1.349 . S
C244 C242 1.327 . S
C244 C263 1.429 . S
C244 H268 0.950 . S
C245 C262 1.574 . S
C245 C264 1.368 . S
C245 H269 0.949 . S
H246 C250 0.949 . S
C247 C248 1.349 . S
C247 C249 1.327 . S
C247 H270 0.950 . S
C248 C247 1.349 . S
C248 C260 1.349 . S
C249 C247 1.327 . S
C249 C265 1.429 . S
C249 H271 0.950 . S
C250 H246 0.949 . S
C250 C258 1.574 . S
C250 C266 1.368 . S
H251 C259 0.950 . S
H252 C257 0.950 . S
H253 C258 0.949 . S
H254 C260 0.950 . S
H255 C261 0.950 . S
H256 C262 0.949 . S
C257 H252 0.950 . S
C257 C259 1.327 . S
C257 C263 1.429 . S
C258 C250 1.574 . S
C258 H253 0.949 . S
C258 C264 1.368 . S
C259 C243 1.349 . S
C259 H251 0.950 . S
C259 C257 1.327 . S
C260 C248 1.349 . S
C260 H254 0.950 . S
C260 C261 1.327 . S
C261 H255 0.950 . S
C261 C260 1.327 . S
C261 C265 1.429 . S
C262 C245 1.574 . S
C262 H256 0.949 . S
C262 C266 1.368 . S
C263 C244 1.429 . S
C263 C257 1.429 . S
C263 C264 1.523 . S
C264 C245 1.368 . S
C264 C258 1.368 . S
C264 C263 1.523 . S
C265 C249 1.429 . S
C265 C261 1.429 . S
C265 C266 1.523 . S
C266 C250 1.368 . S
C266 C262 1.368 . S
C266 C265 1.523 . S
H267 C242 0.950 . S
H268 C244 0.950 . S
H269 C245 0.949 . S
H270 C247 0.950 . S
H271 C249 0.950 . S
C272 C273 1.349 . S
C272 C274 1.327 . S
C272 H297 0.950 1_556 S
C273 C272 1.349 . S
C273 C289 1.349 . S
C274 C272 1.327 . S
C274 C293 1.429 . S
C274 H298 0.950 1_556 S
C275 C292 1.574 1_565 S
C275 C294 1.368 . S
C275 H299 0.949 . S
H276 C280 0.949 . S
C277 C278 1.349 . S
C277 C279 1.327 . S
C277 H300 0.950 1_554 S
C278 C277 1.349 . S
C278 C290 1.349 . S
C279 C277 1.327 . S
C279 C295 1.429 . S
C279 H301 0.950 1_554 S
C280 H276 0.949 . S
C280 C288 1.574 1_545 S
C280 C296 1.368 . S
H281 C289 0.950 . S
H282 C287 0.950 . S
H283 C288 0.949 . S
H284 C290 0.950 . S
H285 C291 0.950 . S
H286 C292 0.949 . S
C287 H282 0.950 . S
C287 C289 1.327 . S
C287 C293 1.429 . S
C288 C280 1.574 1_565 S
C288 H283 0.949 . S
C288 C294 1.368 1_554 S
C289 C273 1.349 . S
C289 H281 0.950 . S
C289 C287 1.327 . S
C290 C278 1.349 . S
C290 H284 0.950 . S
C290 C291 1.327 . S
C291 H285 0.950 . S
C291 C290 1.327 . S
C291 C295 1.429 . S
C292 C275 1.574 1_545 S
C292 H286 0.949 . S
C292 C296 1.368 1_556 S
C293 C274 1.429 . S
C293 C287 1.429 . S
C293 C294 1.523 . S
C294 C275 1.368 . S
C294 C288 1.368 1_556 S
C294 C293 1.523 . S
C295 C279 1.429 . S
C295 C291 1.429 . S
C295 C296 1.523 . S
C296 C280 1.368 . S
C296 C292 1.368 1_554 S
C296 C295 1.523 . S
H297 C272 0.950 1_554 S
H298 C274 0.950 1_554 S
H299 C275 0.949 . S
H300 C277 0.950 1_556 S
H301 C279 0.950 1_556 S
C302 C303 1.349 . S
C302 C304 1.327 . S
C302 H327 0.950 . S
C303 C302 1.349 . S
C303 C319 1.349 1_455 S
C304 C302 1.327 . S
C304 C323 1.429 . S
C304 H328 0.950 . S
C305 C322 1.574 1_565 S
C305 C324 1.368 1_655 S
C305 H329 0.949 . S
H306 C310 0.949 . S
C307 C308 1.349 1_655 S
C307 C309 1.327 . S
C307 H330 0.950 . S
C308 C307 1.349 1_455 S
C308 C320 1.349 . S
C309 C307 1.327 . S
C309 C325 1.429 1_655 S
C309 H331 0.950 . S
C310 H306 0.949 . S
C310 C318 1.574 1_545 S
C310 C326 1.368 . S
H311 C319 0.950 . S
H312 C317 0.950 . S
H313 C318 0.949 . S
H314 C320 0.950 . S
H315 C321 0.950 . S
H316 C322 0.949 . S
C317 H312 0.950 . S
C317 C319 1.327 . S
C317 C323 1.429 1_655 S
C318 C310 1.574 1_565 S
C318 H313 0.949 . S
C318 C324 1.368 . S
C319 C303 1.349 1_655 S
C319 H311 0.950 . S
C319 C317 1.327 . S
C320 C308 1.349 . S
C320 H314 0.950 . S
C320 C321 1.327 . S
C321 H315 0.950 . S
C321 C320 1.327 . S
C321 C325 1.429 . S
C322 C305 1.574 1_545 S
C322 H316 0.949 . S
C322 C326 1.368 1_655 S
C323 C304 1.429 . S
C323 C317 1.429 1_455 S
C323 C324 1.523 . S
C324 C305 1.368 1_455 S
C324 C318 1.368 . S
C324 C323 1.523 . S
C325 C309 1.429 1_455 S
C325 C321 1.429 . S
C325 C326 1.523 . S
C326 C310 1.368 . S
C326 C322 1.368 1_455 S
C326 C325 1.523 . S
H327 C302 0.950 . S
H328 C304 0.950 . S
H329 C305 0.949 . S
H330 C307 0.950 . S
H331 C309 0.950 . S
C332 C333 1.349 1_655 S
C332 C334 1.327 . S
C332 H357 0.950 . S
C333 C332 1.349 1_455 S
C333 C349 1.349 . S
C334 C332 1.327 . S
C334 C353 1.429 1_655 S
C334 H358 0.950 . S
C335 C352 1.574 . S
C335 C354 1.368 . S
C335 H359 0.949 . S
H336 C340 0.949 . S
C337 C338 1.349 . S
C337 C339 1.327 . S
C337 H360 0.950 . S
C338 C337 1.349 . S
C338 C350 1.349 1_455 S
C339 C337 1.327 . S
C339 C355 1.429 . S
C339 H361 0.950 . S
C340 H336 0.949 . S
C340 C348 1.574 . S
C340 C356 1.368 1_655 S
H341 C349 0.950 . S
H342 C347 0.950 . S
H343 C348 0.949 . S
H344 C350 0.950 . S
H345 C351 0.950 . S
H346 C352 0.949 . S
C347 H342 0.950 . S
C347 C349 1.327 . S
C347 C353 1.429 . S
C348 C340 1.574 . S
C348 H343 0.949 . S
C348 C354 1.368 1_655 S
C349 C333 1.349 . S
C349 H341 0.950 . S
C349 C347 1.327 . S
C350 C338 1.349 1_655 S
C350 H344 0.950 . S
C350 C351 1.327 . S
C351 H345 0.950 . S
C351 C350 1.327 . S
C351 C355 1.429 1_655 S
C352 C335 1.574 . S
C352 H346 0.949 . S
C352 C356 1.368 . S
C353 C334 1.429 1_455 S
C353 C347 1.429 . S
C353 C354 1.523 1_554 S
C354 C335 1.368 . S
C354 C348 1.368 1_455 S
C354 C353 1.523 1_556 S
C355 C339 1.429 . S
C355 C351 1.429 1_455 S
C355 C356 1.523 . S
C356 C340 1.368 1_455 S
C356 C352 1.368 . S
C356 C355 1.523 . S
H357 C332 0.950 . S
H358 C334 0.950 . S
H359 C335 0.949 . S
H360 C337 0.950 . S
H361 C339 0.950 . S
C362 C363 1.349 1_655 S
C362 C364 1.327 . S
C362 H387 0.950 . S
C363 C362 1.349 1_455 S
C363 C379 1.349 . S
C364 C362 1.327 . S
C364 C383 1.429 1_655 S
C364 H388 0.950 . S
C365 C382 1.574 . S
C365 C384 1.368 . S
C365 H389 0.949 . S
H366 C370 0.949 . S
C367 C368 1.349 . S
C367 C369 1.327 . S
C367 H390 0.950 . S
C368 C367 1.349 . S
C368 C380 1.349 1_455 S
C369 C367 1.327 . S
C369 C385 1.429 . S
C369 H391 0.950 . S
C370 H366 0.949 . S
C370 C378 1.574 . S
C370 C386 1.368 1_655 S
H371 C379 0.950 . S
H372 C377 0.950 . S
H373 C378 0.949 . S
H374 C380 0.950 . S
H375 C381 0.950 . S
H376 C382 0.949 . S
C377 H372 0.950 . S
C377 C379 1.327 . S
C377 C383 1.429 . S
C378 C370 1.574 . S
C378 H373 0.949 . S
C378 C384 1.368 1_655 S
C379 C363 1.349 . S
C379 H371 0.950 . S
C379 C377 1.327 . S
C380 C368 1.349 1_655 S
C380 H374 0.950 . S
C380 C381 1.327 . S
C381 H375 0.950 . S
C381 C380 1.327 . S
C381 C385 1.429 1_655 S
C382 C365 1.574 . S
C382 H376 0.949 . S
C382 C386 1.368 . S
C383 C364 1.429 1_455 S
C383 C377 1.429 . S
C383 C384 1.523 1_556 S
C384 C365 1.368 . S
C384 C378 1.368 1_455 S
C384 C383 1.523 1_554 S
C385 C369 1.429 . S
C385 C381 1.429 1_455 S
C385 C386 1.523 . S
C386 C370 1.368 1_455 S
C386 C382 1.368 . S
C386 C385 1.523 . S
H387 C362 0.950 . S
H388 C364 0.950 . S
H389 C365 0.949 . S
H390 C367 0.950 . S
H391 C369 0.950 . S
C392 C393 1.349 . S
C392 C394 1.327 . S
C392 H417 0.950 . S
C393 C392 1.349 . S
C393 C409 1.349 . S
C394 C392 1.327 . S
C394 C413 1.429 . S
C394 H418 0.950 . S
C395 C412 1.574 . S
C395 C414 1.368 . S
C395 H419 0.949 . S
H396 C400 0.949 . S
C397 C398 1.349 . S
C397 C399 1.327 . S
C397 H420 0.950 . S
C398 C397 1.349 . S
C398 C410 1.349 . S
C399 C397 1.327 . S
C399 C415 1.429 . S
C399 H421 0.950 . S
C400 H396 0.949 . S
C400 C408 1.574 . S
C400 C416 1.368 . S
H401 C409 0.950 . S
H402 C407 0.950 . S
H403 C408 0.949 . S
H404 C410 0.950 . S
H405 C411 0.950 . S
H406 C412 0.949 . S
C407 H402 0.950 . S
C407 C409 1.327 . S
C407 C413 1.429 . S
C408 C400 1.574 . S
C408 H403 0.949 . S
C408 C414 1.368 . S
C409 C393 1.349 . S
C409 H401 0.950 . S
C409 C407 1.327 . S
C410 C398 1.349 . S
C410 H404 0.950 . S
C410 C411 1.327 . S
C411 H405 0.950 . S
C411 C410 1.327 . S
C411 C415 1.429 . S
C412 C395 1.574 . S
C412 H406 0.949 . S
C412 C416 1.368 . S
C413 C394 1.429 . S
C413 C407 1.429 . S
C413 C414 1.523 . S
C414 C395 1.368 . S
C414 C408 1.368 . S
C414 C413 1.523 . S
C415 C399 1.429 . S
C415 C411 1.429 . S
C415 C416 1.523 . S
C416 C400 1.368 . S
C416 C412 1.368 . S
C416 C415 1.523 . S
H417 C392 0.950 . S
H418 C394 0.950 . S
H419 C395 0.949 . S
H420 C397 0.950 . S
H421 C399 0.950 . S
C422 C423 1.349 . S
C422 C424 1.327 . S
C422 H447 0.950 . S
C423 C422 1.349 . S
C423 C439 1.349 . S
C424 C422 1.327 . S
C424 C443 1.429 . S
C424 H448 0.950 . S
C425 C442 1.574 . S
C425 C444 1.368 . S
C425 H449 0.949 . S
H426 C430 0.949 . S
C427 C428 1.349 . S
C427 C429 1.327 . S
C427 H450 0.950 . S
C428 C427 1.349 . S
C428 C440 1.349 . S
C429 C427 1.327 . S
C429 C445 1.429 . S
C429 H451 0.950 . S
C430 H426 0.949 . S
C430 C438 1.574 . S
C430 C446 1.368 . S
H431 C439 0.950 . S
H432 C437 0.950 . S
H433 C438 0.949 . S
H434 C440 0.950 . S
H435 C441 0.950 . S
H436 C442 0.949 . S
C437 H432 0.950 . S
C437 C439 1.327 . S
C437 C443 1.429 . S
C438 C430 1.574 . S
C438 H433 0.949 . S
C438 C444 1.368 . S
C439 C423 1.349 . S
C439 H431 0.950 . S
C439 C437 1.327 . S
C440 C428 1.349 . S
C440 H434 0.950 . S
C440 C441 1.327 . S
C441 H435 0.950 . S
C441 C440 1.327 . S
C441 C445 1.429 . S
C442 C425 1.574 . S
C442 H436 0.949 . S
C442 C446 1.368 . S
C443 C424 1.429 . S
C443 C437 1.429 . S
C443 C444 1.523 . S
C444 C425 1.368 . S
C444 C438 1.368 . S
C444 C443 1.523 . S
C445 C429 1.429 . S
C445 C441 1.429 . S
C445 C446 1.523 . S
C446 C430 1.368 . S
C446 C442 1.368 . S
C446 C445 1.523 . S
H447 C422 0.950 . S
H448 C424 0.950 . S
H449 C425 0.949 . S
H450 C427 0.950 . S
H451 C429 0.950 . S
C93 C21 1.601 . S
C98 C44 1.600 . S
C123 C64 1.637 . S
C128 C43 1.652 . S
C153 C89 1.636 . S
C158 C65 1.634 . S
C183 C20 1.579 . S
C188 C90 1.579 . S
C213 C87 1.641 . S
C218 C19 1.654 . S
C243 C67 1.582 . S
C248 C42 1.581 . S
C273 C66 1.562 . S
C278 C88 1.560 . S
C303 C41 1.658 1_455 S
C308 C18 1.655 . S
C333 C17 1.230 . S
C338 C16 1.231 . S
C363 C40 1.230 . S
C368 C39 1.231 . S
C393 C63 1.230 . S
C398 C62 1.231 . S
C423 C85 1.231 . S
C428 C86 1.230 . S
