# Generated by pormake.
# Topology fnt, (5)-cn, num edge types: 1
# Building blocks:
#     Node 0, Type 0, BuildingBlock: XOMCOT_clean_sbu_0, # of connection points: 5
#     Node 1, Type 0, BuildingBlock: XOMCOT_clean_sbu_0, # of connection points: 5
#     Node 2, Type 0, BuildingBlock: XOMCOT_clean_sbu_0, # of connection points: 5
#     Node 3, Type 0, BuildingBlock: XOMCOT_clean_sbu_0, # of connection points: 5
#     Node 4, Type 0, BuildingBlock: XOMCOT_clean_sbu_0, # of connection points: 5
#     Node 5, Type 0, BuildingBlock: XOMCOT_clean_sbu_0, # of connection points: 5
#     Edge 6, Type (0, 0), BuildingBlock: XIVTED_clean_linker_0, # of connection points: 2
#     Edge 7, Type (0, 0), BuildingBlock: XIVTED_clean_linker_0, # of connection points: 2
#     Edge 8, Type (0, 0), BuildingBlock: XIVTED_clean_linker_0, # of connection points: 2
#     Edge 9, Type (0, 0), BuildingBlock: XIVTED_clean_linker_0, # of connection points: 2
#     Edge 10, Type (0, 0), BuildingBlock: XIVTED_clean_linker_0, # of connection points: 2
#     Edge 11, Type (0, 0), BuildingBlock: XIVTED_clean_linker_0, # of connection points: 2
#     Edge 12, Type (0, 0), BuildingBlock: XIVTED_clean_linker_0, # of connection points: 2
#     Edge 13, Type (0, 0), BuildingBlock: XIVTED_clean_linker_0, # of connection points: 2
#     Edge 14, Type (0, 0), BuildingBlock: XIVTED_clean_linker_0, # of connection points: 2
#     Edge 15, Type (0, 0), BuildingBlock: XIVTED_clean_linker_0, # of connection points: 2
#     Edge 16, Type (0, 0), BuildingBlock: XIVTED_clean_linker_0, # of connection points: 2
#     Edge 17, Type (0, 0), BuildingBlock: XIVTED_clean_linker_0, # of connection points: 2
#     Edge 18, Type (0, 0), BuildingBlock: XIVTED_clean_linker_0, # of connection points: 2
#     Edge 19, Type (0, 0), BuildingBlock: XIVTED_clean_linker_0, # of connection points: 2
#     Edge 20, Type (0, 0), BuildingBlock: XIVTED_clean_linker_0, # of connection points: 2
# Relax obj value: 0.137
# Max RMSD: 0.163
# Mean RMSD: 0.163
data_MOF--net-fnt--node1-XOMCOT_clean_sbu_0--edge1-XIVTED_clean_linker_0
_symmetry_space_group_name_H-M    P1
_symmetry_Int_Tables_number       1
_symmetry_cell_setting            triclinic
loop_
_symmetry_equiv_pos_as_xyz
'x, y, z'
_cell_length_a     28.039613
_cell_length_b     28.054445
_cell_length_c     48.429508
_cell_angle_alpha  89.974759
_cell_angle_beta   90.008187
_cell_angle_gamma 120.14179
loop_
_atom_site_label
_atom_site_type_symbol
_atom_site_fract_x
_atom_site_fract_y
_atom_site_fract_z
_atom_type_partial_charge
Co0 Co 0.17002 0.28151 0.03654 0.0
C1 C 0.13551 0.27292 0.09448 0.0
C2 C 0.21549 0.28073 0.09127 0.0
C3 C 0.20123 0.27628 0.1188 0.0
N4 N 0.17423 0.27873 0.07617 0.0
N5 N 0.15093 0.27147 0.12075 0.0
H6 H 0.0964 0.26875 0.08855 0.0
H7 H 0.2531 0.28479 0.08287 0.0
C8 C 0.27936 0.37408 1.01849 0.0
O9 O 0.25321 0.38779 1.00056 0.0
N10 N 0.16599 0.28321 0.99626 0.0
C11 C 0.1447 0.30685 0.97982 0.0
C12 C 0.15154 0.29728 0.95268 0.0
C13 C 0.18575 0.25992 0.97858 0.0
N14 N 0.17721 0.26759 0.95185 0.0
C15 C 0.09946 0.32605 0.03633 0.0
C16 C 0.16992 0.42574 0.06124 0.0
C17 C 0.11486 0.41073 0.05651 0.0
C18 C 0.07974 0.36058 0.04378 0.0
C19 C 0.18802 0.38904 0.05383 0.0
N20 N 0.15306 0.3403 0.04094 0.0
H21 H 0.071 0.28739 1.02669 0.0
H22 H 0.22917 0.3989 0.05956 0.0
H23 H 0.12717 0.33139 0.98637 0.0
H24 H 0.20583 0.23756 0.98523 0.0
O25 O 0.09562 0.2212 0.03771 0.0
O26 O 0.16895 0.21157 0.03414 0.0
O27 O 0.25242 0.33386 0.03509 0.0
C28 C 0.11541 0.18851 0.03568 0.0
H29 H 0.22619 0.27693 0.136 0.0
H30 H 0.13966 0.31242 0.93496 0.0
H31 H 0.19795 0.4644 0.07124 0.0
H32 H 0.03708 0.34813 0.03953 0.0
Co33 Co 0.87328 0.177 0.36936 0.0
C34 C 0.84109 0.13562 0.42648 0.0
C35 C 0.90625 0.22012 0.42553 0.0
C36 C 0.89453 0.20363 0.45263 0.0
N37 N 0.87263 0.17755 0.40921 0.0
N38 N 0.85366 0.15041 0.45327 0.0
H39 H 0.8106 0.0949 0.41948 0.0
H40 H 0.93767 0.2602 0.41826 0.0
C41 C 0.88156 0.28426 0.35436 0.0
O42 O 0.84026 0.25725 0.33727 0.0
N43 N 0.87603 0.17781 0.32884 0.0
C44 C 0.83572 0.16645 0.31017 0.0
C45 C 0.85749 0.17594 0.28403 0.0
C46 C 0.92196 0.19456 0.31333 0.0
N47 N 0.9117 0.19363 0.28601 0.0
C48 C 0.76142 0.10242 0.35935 0.0
C49 C 0.71667 0.15462 0.38895 0.0
C50 C 0.68163 0.10208 0.37777 0.0
C51 C 0.70497 0.07636 0.36282 0.0
C52 C 0.77392 0.1799 0.38473 0.0
N53 N 0.79541 0.15389 0.36966 0.0
H54 H 0.77797 0.08064 0.34822 0.0
H55 H 0.80098 0.21898 0.39454 0.0
H56 H 0.79371 0.15513 0.31463 0.0
H57 H 0.96264 0.20906 0.32179 0.0
O58 O 0.86296 0.10439 0.36988 0.0
O59 O 0.94469 0.18024 0.37062 0.0
O60 O 0.89871 0.25843 0.36934 0.0
C61 C 0.91589 0.12642 0.37061 0.0
H62 H 0.91474 0.22913 0.47044 0.0
H63 H 0.83508 0.17076 0.26503 0.0
H64 H 0.70017 0.17538 0.40114 0.0
H65 H 0.67998 0.03512 0.3546 0.0
Co66 Co 0.69105 0.88441 0.70453 0.0
C67 C 0.69954 0.85579 0.76203 0.0
C68 C 0.69017 0.92709 0.75994 0.0
C69 C 0.69482 0.91625 0.78727 0.0
N70 N 0.69304 0.88904 0.74426 0.0
N71 N 0.70069 0.87136 0.78854 0.0
H72 H 0.70456 0.82167 0.75555 0.0
H73 H 0.68551 0.96061 0.75207 0.0
C74 C 0.59832 0.90058 0.68713 0.0
O75 O 0.58471 0.86068 0.66923 0.0
N76 N 0.69028 0.88143 0.66418 0.0
C77 C 0.66776 0.83786 0.64675 0.0
C78 C 0.6775 0.85676 0.61997 0.0
C79 C 0.7132 0.9261 0.64745 0.0
N80 N 0.70618 0.91223 0.62044 0.0
C81 C 0.64568 0.76912 0.702 0.0
C82 C 0.54653 0.73849 0.72788 0.0
C83 C 0.56065 0.69851 0.72144 0.0
C84 C 0.61053 0.71421 0.7083 0.0
C85 C 0.58357 0.79383 0.72132 0.0
N86 N 0.63196 0.80833 0.70789 0.0
H87 H 0.68442 0.78001 0.69226 0.0
H88 H 0.57434 0.82495 0.72813 0.0
H89 H 0.64424 0.79505 0.65237 0.0
H90 H 0.73373 0.96809 0.65494 0.0
O91 O 0.75114 0.87021 0.70527 0.0
O92 O 0.76125 0.95352 0.70301 0.0
O93 O 0.63877 0.91433 0.70362 0.0
C94 C 0.78408 0.92288 0.70394 0.0
H95 H 0.69374 0.93958 0.80481 0.0
H96 H 0.66474 0.83143 0.60158 0.0
H97 H 0.50822 0.72729 0.73839 0.0
H98 H 0.62245 0.68406 0.70306 0.0
Co99 Co 0.80079 0.68807 0.03525 0.0
C100 C 0.84263 0.69908 0.09246 0.0
C101 C 0.75748 0.67727 0.09139 0.0
C102 C 0.77408 0.68307 0.11849 0.0
N103 N 0.80037 0.68711 0.07512 0.0
N104 N 0.82773 0.69706 0.11922 0.0
H105 H 0.88367 0.71046 0.08551 0.0
H106 H 0.71712 0.66747 0.0841 0.0
C107 C 0.69296 0.58943 1.02019 0.0
O108 O 0.71955 0.57527 1.00282 0.0
N109 N 0.79982 0.68983 0.99473 0.0
C110 C 0.81172 0.66147 0.976 0.0
C111 C 0.80201 0.67368 0.94989 0.0
C112 C 0.7825 0.71853 0.97929 0.0
N113 N 0.78364 0.70955 0.95195 0.0
C114 C 0.87474 0.6502 1.02547 0.0
C115 C 0.82135 0.55301 0.05502 0.0
C116 C 0.87392 0.57025 0.04397 0.0
C117 C 0.90024 0.61943 0.02902 0.0
C118 C 0.79664 0.58534 0.05068 0.0
N119 N 0.82324 0.63297 0.03564 0.0
H120 H 0.89699 0.68864 1.01437 0.0
H121 H 0.75753 0.5735 0.0604 0.0
H122 H 0.82359 0.63122 0.98039 0.0
H123 H 0.76747 0.74412 0.98784 0.0
O124 O 0.87367 0.75041 0.03558 0.0
O125 O 0.79802 0.75639 0.0364 0.0
O126 O 0.71923 0.63218 0.03533 0.0
C127 C 0.85185 0.78141 0.03624 0.0
H128 H 0.74837 0.6775 0.13624 0.0
H129 H 0.80755 0.65687 0.93084 0.0
H130 H 0.80016 0.51568 0.06721 0.0
H131 H 0.94153 0.63548 1.0209 0.0
Co132 Co 0.09502 0.80695 0.36934 0.0
C133 C 0.1211 0.84247 0.42725 0.0
C134 C 0.0496 0.76178 0.42414 0.0
C135 C 0.05898 0.77641 0.45162 0.0
N136 N 0.08867 0.80323 0.40901 0.0
N137 N 0.10397 0.8272 0.45353 0.0
H138 H 0.15569 0.88188 0.42127 0.0
H139 H 0.01631 0.72384 0.41581 0.0
C140 C 0.07745 0.69752 0.3515 0.0
O141 O 0.11719 0.72362 0.33345 0.0
N142 N 0.09965 0.81017 0.32906 0.0
C143 C 0.14396 0.83275 0.31209 0.0
C144 C 0.12614 0.82373 0.28512 0.0
C145 C 0.05565 0.78778 0.31191 0.0
N146 N 0.07061 0.79555 0.28503 0.0
C147 C 0.21059 0.87688 0.36854 0.0
C148 C 0.23922 0.80639 0.39372 0.0
C149 C 0.27971 0.86122 0.38871 0.0
C150 C 0.26499 0.89635 0.37584 0.0
C151 C 0.18432 0.78854 0.38643 0.0
N152 N 0.1708 0.82348 0.37341 0.0
H153 H 0.20058 0.90546 0.35898 0.0
H154 H 0.15274 0.74763 0.39242 0.0
H155 H 0.18658 0.85325 0.31819 0.0
H156 H 0.01338 0.76519 0.31901 0.0
O157 O 0.10985 0.88149 0.37028 0.0
O158 O 0.0263 0.80846 0.3672 0.0
O159 O 0.06436 0.72451 0.36811 0.0
C160 C 0.05728 0.86197 0.36849 0.0
H161 H 0.03455 0.75141 0.4688 0.0
H162 H 0.1522 0.83737 0.26699 0.0
H163 H 0.24959 0.7784 0.40389 0.0
H164 H 0.29553 0.93888 0.37146 0.0
Co165 Co 0.28425 0.10714 0.70109 0.0
C166 C 0.27312 0.13877 0.75799 0.0
C167 C 0.29101 0.07277 0.75749 0.0
C168 C 0.2858 0.08462 0.78452 0.0
N169 N 0.28338 0.10693 0.74095 0.0
N170 N 0.27446 0.12603 0.78481 0.0
H171 H 0.26498 0.17056 0.75086 0.0
H172 H 0.29884 0.04077 0.75043 0.0
C173 C 0.38286 0.09753 0.68729 0.0
O174 O 0.39831 0.139 0.6702 0.0
N175 N 0.28436 0.10531 0.66054 0.0
C176 C 0.31433 0.14603 0.6422 0.0
C177 C 0.30327 0.12488 0.61594 0.0
C178 C 0.25577 0.05975 0.64469 0.0
N179 N 0.2665 0.07065 0.61749 0.0
C180 C 0.32444 0.2197 0.69152 0.0
C181 C 0.42078 0.26188 0.72174 0.0
C182 C 0.40547 0.29795 0.70993 0.0
C183 C 0.35673 0.27606 0.69471 0.0
C184 C 0.3872 0.20482 0.71757 0.0
N185 N 0.34019 0.18462 0.70207 0.0
H186 H 0.28638 0.20414 0.68016 0.0
H187 H 0.3977 0.17693 0.72766 0.0
H188 H 0.34502 0.1879 0.64699 0.0
H189 H 0.22903 0.01891 0.65287 0.0
O190 O 0.22247 0.11838 0.70068 0.0
O191 O 0.21537 0.03626 0.70155 0.0
O192 O 0.33935 0.08071 0.70188 0.0
C193 C 0.19093 0.06548 0.70112 0.0
H194 H 0.28852 0.06324 0.80252 0.0
H195 H 0.32152 0.14774 0.59715 0.0
H196 H 0.45768 0.27752 0.73422 0.0
H197 H 0.34257 0.30234 0.68594 0.0
H198 H 0.34937 0.42922 0.97612 0.0
H199 H 0.62472 0.57705 0.06367 0.0
H200 H 0.3479 0.39067 0.06248 0.0
H201 H 0.6227 0.52775 0.97911 0.0
H202 H 0.52322 0.52318 0.06415 0.0
H203 H 0.45032 0.48084 0.9772 0.0
C204 C 0.37033 0.43187 0.99535 0.0
C205 C 0.34032 0.40559 1.01924 0.0
C206 C 0.54524 0.52415 0.04559 0.0
C207 C 0.45562 0.46517 1.02066 0.0
C208 C 0.60294 0.55497 0.04524 0.0
C209 C 0.63206 0.55669 1.02132 0.0
C210 C 0.51668 0.49628 1.02162 0.0
C211 C 0.60188 0.52722 0.99803 0.0
C212 C 0.42784 0.46105 0.99589 0.0
C213 C 0.3696 0.4101 0.04357 0.0
N214 N 0.54586 0.49874 0.99866 0.0
N215 N 0.42577 0.43983 0.04375 0.0
H216 H 0.93886 0.35325 0.39743 0.0
H217 H 0.06134 0.62726 0.30918 0.0
H218 H 0.88797 0.35371 0.3134 0.0
H219 H 0.027 0.62938 0.39586 0.0
H220 H 0.01254 0.52639 0.31058 0.0
H221 H 0.98573 0.45467 0.39767 0.0
C222 C 0.93761 0.37467 0.37907 0.0
C223 C 0.90942 0.34513 0.35537 0.0
C224 C 0.0157 0.54899 0.32927 0.0
C225 C 0.96351 0.46041 0.35538 0.0
C226 C 0.04372 0.60646 0.32854 0.0
C227 C 0.04808 0.63662 0.35243 0.0
C228 C -0.00698 0.52142 0.35422 0.0
C229 C 0.02421 0.60755 0.37695 0.0
C230 C 0.96406 0.43232 0.37928 0.0
C231 C 0.9089 0.37484 0.33216 0.0
N232 N -0.00191 0.55143 0.3773 0.0
N233 N 0.93604 0.43083 0.33264 0.0
H234 H 0.39285 0.04023 0.73082 0.0
H235 H 0.5438 0.91531 0.64457 0.0
H236 H 0.44616 0.09008 0.64688 0.0
H237 H 0.58079 0.9519 0.73107 0.0
H238 H 0.49188 0.96407 0.64538 0.0
H239 H 0.44671 -0.0072 0.73182 0.0
C240 C 0.41579 0.04111 0.71264 0.0
C241 C 0.41523 0.06919 0.68875 0.0
C242 C 0.51138 0.96138 0.66417 0.0
C243 C 0.47558 0.01449 0.68963 0.0
C244 C 0.54074 0.93339 0.66378 0.0
C245 C 0.56668 0.92972 0.68779 0.0
C246 C 0.50672 0.98474 0.6889 0.0
C247 C 0.56163 0.95416 0.71208 0.0
C248 C 0.44659 0.01436 0.71329 0.0
C249 C 0.44577 0.06925 0.66578 0.0
N250 N 0.53172 0.98028 0.71211 0.0
N251 N 0.4742 0.04182 0.66668 0.0
H252 H 0.56666 0.63965 0.76453 0.0
H253 H 0.43905 0.37615 0.67028 0.0
H254 H 0.47816 0.62463 0.68935 0.0
H255 H 0.44091 0.35617 0.7585 0.0
H256 H 0.46936 0.47334 0.67695 0.0
H257 H 0.52971 0.53936 0.76421 0.0
C258 C 0.53753 0.61471 0.74865 0.0
C259 C 0.52444 0.63968 0.72715 0.0
C260 C 0.46345 0.44783 0.69488 0.0
C261 C 0.4851 0.52684 0.72581 0.0
C262 C 0.44691 0.39266 0.69107 0.0
C263 C 0.43708 0.35823 0.7139 0.0
C264 C 0.47093 0.46909 0.72172 0.0
C265 C 0.4483 0.38162 0.74041 0.0
C266 C 0.51717 0.5579 0.74828 0.0
C267 C 0.48824 0.60645 0.70648 0.0
N268 N 0.46449 0.43591 0.74367 0.0
N269 N 0.47056 0.55174 0.70604 0.0
H270 H 0.88535 0.52532 0.09244 0.0
H271 H 0.13821 0.50582 0.03106 0.0
H272 H 0.93327 0.54922 1.00659 0.0
H273 H 0.03744 0.3937 0.09509 0.0
H274 H 0.07845 0.54631 0.03096 0.0
H275 H 0.95148 0.49332 0.10091 0.0
C276 C 0.90898 0.52295 0.07535 0.0
C277 C 0.90434 0.54052 0.04884 0.0
C278 C 0.07029 0.51374 0.04552 0.0
C279 C 0.98104 0.50684 0.05863 0.0
C280 C 0.10482 0.49141 0.04587 0.0
C281 C 0.09253 0.4468 0.06316 0.0
C282 C 0.02352 0.49127 0.06265 0.0
C283 C 0.04808 0.42845 0.0816 0.0
C284 C 0.94708 0.50552 0.08028 0.0
C285 C 0.93634 0.53716 1.02746 0.0
N286 N 0.01456 0.45042 0.0807 0.0
N287 N 0.97383 0.52151 0.03291 0.0
H288 H 0.35156 0.83795 0.36339 0.0
H289 H 0.62429 0.08997 0.42601 0.0
H290 H 0.3401 0.93816 0.42749 0.0
H291 H 0.60169 0.04234 0.34013 0.0
H292 H 0.52576 0.02365 0.43406 0.0
H293 H 0.45215 0.89729 0.36374 0.0
C294 C 0.37056 0.87114 0.3783 0.0
C295 C 0.33815 0.88339 0.39549 0.0
C296 C 0.54277 0.02813 0.41352 0.0
C297 C 0.45203 0.95193 0.3955 0.0
C298 C 0.59854 0.06634 0.40882 0.0
C299 C 0.62125 0.07116 0.38242 0.0
C300 C 0.5104 -0.00574 0.39176 0.0
C301 C 0.58618 0.03914 0.36093 0.0
C302 C 0.42763 0.90542 0.37821 0.0
C303 C 0.36428 0.92756 0.41408 0.0
N304 N 0.5328 0.00157 0.36615 0.0
N305 N 0.41997 0.96085 0.41343 0.0
H306 H 0.14092 0.1059 0.03333 0.0
H307 H 0.82396 0.86299 0.03564 0.0
H308 H 0.00347 0.13453 0.03715 0.0
H309 H 0.96336 0.83715 0.03706 0.0
H310 H 0.8885 0.96304 0.03514 0.0
H311 H 0.0756 0.00647 0.03337 0.0
C312 C 0.0971 0.09126 0.03415 0.0
C313 C 0.07762 0.1284 0.03529 0.0
C314 C 0.90475 0.93525 0.03558 0.0
C315 C 0.0027 0.01514 0.03535 0.0
C316 C 0.86793 0.8783 0.0359 0.0
C317 C 0.88826 0.84179 0.0364 0.0
C318 C 0.96201 0.95537 0.03571 0.0
C319 C 0.94568 0.86371 0.03665 0.0
C320 C 0.05978 0.03459 0.0342 0.0
C321 C 0.02035 0.10731 0.0363 0.0
N322 N 0.9804 0.9189 0.03628 0.0
N323 N 0.98493 0.05213 0.03631 0.0
H324 H 0.94911 0.83703 0.36832 0.0
H325 H 0.02541 0.15416 0.36731 0.0
H326 H 0.11627 0.97391 0.3681 0.0
H327 H 0.86009 0.01532 0.37462 0.0
H328 H 0.06052 0.08946 0.36641 0.0
H329 H 0.91575 0.9027 0.36899 0.0
C330 C 0.97869 0.8808 0.36835 0.0
C331 C 0.03539 0.90001 0.36823 0.0
C332 C 0.01656 0.0734 0.36826 0.0
C333 C -0.0021 0.97537 0.36902 0.0
C334 C -0.00333 0.1103 0.36883 0.0
C335 C 0.93988 0.09015 0.37099 0.0
C336 C 0.97923 0.01624 0.36981 0.0
C337 C 0.90426 0.03286 0.37281 0.0
C338 C 0.95977 0.91834 0.36879 0.0
C339 C 0.07209 0.95725 0.36827 0.0
N340 N 0.92448 -0.00192 0.37213 0.0
N341 N 0.05273 -0.00711 0.36867 0.0
H342 H 0.10864 0.95608 0.7029 0.0
H343 H 0.86708 0.03106 0.7002 0.0
H344 H 0.13597 0.12179 0.69934 0.0
H345 H 0.83766 0.86487 0.70627 0.0
H346 H 0.96645 0.06504 0.69911 0.0
H347 H 0.00872 0.92092 0.70334 0.0
C348 C 0.09367 0.98492 0.70219 0.0
C349 C 0.13058 0.0418 0.70113 0.0
C350 C 0.93816 0.02111 0.70069 0.0
C351 C 0.01709 0.00234 0.70161 0.0
C352 C 0.88153 0.00183 0.70132 0.0
C353 C 0.84418 0.94522 0.70335 0.0
C354 C 0.95736 0.9834 0.70208 0.0
C355 C 0.86503 0.90897 0.7047 0.0
C356 C 0.03678 0.96498 0.70245 0.0
C357 C 0.10909 0.07753 0.70021 0.0
N358 N 0.92017 0.92866 0.70404 0.0
N359 N 0.05392 0.05723 0.70049 0.0
H360 H 0.13328 0.25372 0.90034 0.0
H361 H 0.31407 0.13308 0.83669 0.0
H362 H 0.25519 0.237 0.94714 0.0
H363 H 0.20958 0.1723 0.78792 0.0
H364 H 0.29145 0.16871 0.87763 0.0
H365 H 0.15931 0.22213 0.8593 0.0
C366 C 0.16581 0.24385 0.90206 0.0
C367 C 0.19212 0.24837 0.92744 0.0
C368 C 0.27362 0.16973 0.85796 0.0
C369 C 0.22165 0.21113 0.88025 0.0
C370 C 0.2863 0.14912 0.83459 0.0
C371 C 0.26352 0.14946 0.80881 0.0
C372 C 0.23754 0.19057 0.85565 0.0
C373 C 0.22848 0.17163 0.80727 0.0
C374 C 0.18049 0.2255 0.87853 0.0
C375 C 0.23323 0.23369 0.92825 0.0
N376 N 0.21633 0.19098 0.83038 0.0
N377 N 0.24665 0.21571 0.90503 0.0
H378 H 0.07056 0.29748 0.12787 0.0
H379 H 0.00521 0.18721 0.28377 0.0
H380 H 0.15934 0.23071 0.17044 0.0
H381 H 0.90655 0.23656 0.23672 0.0
H382 H 0.06754 0.21043 0.24416 0.0
H383 H 0.01491 0.28217 0.16909 0.0
C384 C 0.07828 0.27937 0.14582 0.0
C385 C 0.11946 0.26486 0.14549 0.0
C386 C 0.03229 0.21628 0.24257 0.0
C387 C 0.05606 0.24779 0.1931 0.0
C388 C -0.00308 0.20334 0.26522 0.0
C389 C 0.95034 0.20951 0.26348 0.0
C390 C 0.02115 0.23587 0.21809 0.0
C391 C 0.94132 0.23016 0.23883 0.0
C392 C 0.04662 0.27091 0.16947 0.0
C393 C 0.12834 0.24282 0.16973 0.0
N394 N 0.97628 0.24248 0.21715 0.0
N395 N 0.09675 0.23474 0.19251 0.0
H396 H 0.75411 0.05586 0.45778 0.0
H397 H 0.7962 0.01488 0.61795 0.0
H398 H 0.89943 0.16648 0.50447 0.0
H399 H 0.6615 0.89292 0.56902 0.0
H400 H 0.83084 0.07445 0.57734 0.0
H401 H 0.71641 -0.00165 0.49889 0.0
C402 C 0.77827 0.06808 0.47656 0.0
C403 C 0.83023 0.11629 0.47747 0.0
C404 C 0.79364 0.03467 0.57548 0.0
C405 C 0.78681 0.05079 0.52484 0.0
C406 C 0.77362 0.0008 0.59874 0.0
C407 C 0.72595 0.94869 0.59691 0.0
C408 C 0.76567 0.01652 0.55017 0.0
C409 C 0.69882 0.93237 0.57131 0.0
C410 C 0.75653 0.0353 0.5001 0.0
C411 C 0.85902 0.13028 0.50268 0.0
N412 N 0.71905 0.96612 0.54898 0.0
N413 N 0.83697 0.09773 0.52527 0.0
H414 H 0.67813 0.76565 0.79442 0.0
H415 H 0.7878 0.80844 0.95036 0.0
H416 H 0.74065 0.91928 0.83856 0.0
H417 H 0.7424 0.66241 0.90221 0.0
H418 H 0.76362 0.84737 0.91112 0.0
H419 H 0.69514 0.72507 0.83506 0.0
C420 C 0.69564 0.79101 0.81258 0.0
C421 C 0.70839 0.84624 0.81287 0.0
C422 C 0.75887 0.80676 0.90919 0.0
C423 C 0.72739 0.79961 0.8598 0.0
C424 C 0.77235 0.7844 0.93164 0.0
C425 C 0.76749 0.73223 0.92952 0.0
C426 C 0.74008 0.77658 0.88451 0.0
C427 C 0.74774 0.70313 0.90464 0.0
C428 C 0.70507 0.76767 0.83589 0.0
C429 C 0.7298 0.87652 0.83736 0.0
N430 N 0.73485 0.7257 0.88314 0.0
N431 N 0.73881 0.85289 0.85978 0.0
H432 H 0.81005 0.72683 0.17004 0.0
H433 H 0.09277 0.77202 0.23383 0.0
H434 H 0.92458 0.69682 0.12427 0.0
H435 H 0.96706 0.78001 0.28154 0.0
H436 H 0.0332 0.74655 0.19318 0.0
H437 H 0.86804 0.74793 0.21068 0.0
C438 C 0.8471 0.72416 0.16847 0.0
C439 C 0.86207 0.70969 0.14348 0.0
C440 C 0.01856 0.75369 0.21256 0.0
C441 C 0.92958 0.73491 0.19027 0.0
C442 C 0.05269 0.76854 0.23576 0.0
C443 C 0.035 0.77838 0.26117 0.0
C444 C 0.96641 0.74896 0.21467 0.0
C445 C 0.98223 0.77234 0.2625 0.0
C446 C 0.88047 0.73657 0.19178 0.0
C447 C 0.91148 0.70827 0.14287 0.0
N448 N 0.94998 0.75832 0.23958 0.0
N449 N 0.94345 0.72079 0.16588 0.0
H450 H 0.31705 0.07722 0.56879 0.0
H451 H 0.05318 0.81724 0.5029 0.0
H452 H 0.16642 0.9771 0.614 0.0
H453 H 0.20937 0.91065 0.46099 0.0
H454 H 0.09379 0.87366 0.54403 0.0
H455 H 0.27811 0.01562 0.52934 0.0
C456 C 0.27566 0.04231 0.5704 0.0
C457 C 0.24477 0.0326 0.59468 0.0
C458 C 0.11919 0.88167 0.52585 0.0
C459 C 0.19985 0.96139 0.54949 0.0
C460 C 0.09609 0.84925 0.50234 0.0
C461 C 0.12773 0.85923 0.47826 0.0
C462 C 0.17436 0.92452 0.52534 0.0
C463 C 0.183 0.90193 0.4788 0.0
C464 C 0.25352 0.0069 0.54789 0.0
C465 C 0.19175 0.98595 0.59575 0.0
N466 N 0.20443 0.93301 0.50189 0.0
N467 N 0.17081 0.95226 0.5734 0.0
loop_
_geom_bond_atom_site_label_1
_geom_bond_atom_site_label_2
_geom_bond_distance
_geom_bond_site_symmetry_2
_ccdc_geom_bond_type
Co0 N4 2.148 . S
Co0 N10 2.128 1_554 S
Co0 N20 2.194 . S
Co0 O25 2.351 . S
Co0 O26 2.155 . S
Co0 O27 2.096 . S
C1 N4 1.301 . S
C1 N5 1.328 . S
C1 H6 0.930 . S
C2 C3 1.333 . S
C2 N4 1.317 . S
C2 H7 0.930 . S
C3 C2 1.333 . S
C3 N5 1.350 . S
C3 H29 0.931 . S
N4 Co0 2.148 . S
N4 C1 1.301 . S
N4 C2 1.317 . S
N5 C1 1.328 . S
N5 C3 1.350 . S
H6 C1 0.930 . S
H7 C2 0.930 . S
C8 O9 1.224 . S
C8 O27 1.247 . S
O9 C8 1.224 . S
N10 Co0 2.128 1_556 S
N10 C11 1.355 . S
N10 C13 1.311 . S
C11 N10 1.355 . S
C11 C12 1.363 . S
C11 H23 0.929 . S
C12 C11 1.363 . S
C12 N14 1.375 . S
C12 H30 0.931 . S
C13 N10 1.311 . S
C13 N14 1.347 . S
C13 H24 0.929 . S
N14 C12 1.375 . S
N14 C13 1.347 . S
C15 C18 1.365 . S
C15 N20 1.328 . S
C15 H21 0.929 . S
C16 C17 1.362 . S
C16 C19 1.378 1_556 S
C16 H31 0.929 . S
C17 C16 1.362 . S
C17 C18 1.366 1_556 S
C18 C15 1.365 . S
C18 C17 1.366 1_554 S
C18 H32 0.930 . S
C19 C16 1.378 1_554 S
C19 N20 1.315 . S
C19 H22 0.930 . S
N20 Co0 2.194 . S
N20 C15 1.328 . S
N20 C19 1.315 . S
H21 C15 0.929 . S
H22 C19 0.930 . S
H23 C11 0.929 . S
H24 C13 0.929 . S
O25 Co0 2.351 . S
O25 C28 1.244 . S
O26 Co0 2.155 . S
O26 C28 1.240 . S
O27 Co0 2.096 . S
O27 C8 1.247 . S
C28 O25 1.244 . S
C28 O26 1.240 . S
H29 C3 0.931 . S
H30 C12 0.931 . S
H31 C16 0.929 . S
H32 C18 0.930 . S
Co33 N37 2.148 . S
Co33 N43 2.128 . S
Co33 N53 2.194 . S
Co33 O58 2.351 . S
Co33 O59 2.155 . S
Co33 O60 2.096 . S
C34 N37 1.301 . S
C34 N38 1.328 . S
C34 H39 0.930 . S
C35 C36 1.333 . S
C35 N37 1.317 . S
C35 H40 0.930 . S
C36 C35 1.333 . S
C36 N38 1.350 . S
C36 H62 0.931 . S
N37 Co33 2.148 . S
N37 C34 1.301 . S
N37 C35 1.317 . S
N38 C34 1.328 . S
N38 C36 1.350 . S
H39 C34 0.930 . S
H40 C35 0.930 . S
C41 O42 1.224 . S
C41 O60 1.247 . S
O42 C41 1.224 . S
N43 Co33 2.128 . S
N43 C44 1.355 . S
N43 C46 1.311 . S
C44 N43 1.355 . S
C44 C45 1.363 . S
C44 H56 0.929 . S
C45 C44 1.363 . S
C45 N47 1.375 . S
C45 H63 0.931 . S
C46 N43 1.311 . S
C46 N47 1.347 . S
C46 H57 0.929 . S
N47 C45 1.375 . S
N47 C46 1.347 . S
C48 C51 1.365 . S
C48 N53 1.328 . S
C48 H54 0.929 . S
C49 C50 1.362 . S
C49 C52 1.378 . S
C49 H64 0.929 . S
C50 C49 1.362 . S
C50 C51 1.366 . S
C51 C48 1.365 . S
C51 C50 1.366 . S
C51 H65 0.930 . S
C52 C49 1.378 . S
C52 N53 1.315 . S
C52 H55 0.930 . S
N53 Co33 2.194 . S
N53 C48 1.328 . S
N53 C52 1.315 . S
H54 C48 0.929 . S
H55 C52 0.930 . S
H56 C44 0.929 . S
H57 C46 0.929 . S
O58 Co33 2.351 . S
O58 C61 1.244 . S
O59 Co33 2.155 . S
O59 C61 1.240 . S
O60 Co33 2.096 . S
O60 C41 1.247 . S
C61 O58 1.244 . S
C61 O59 1.240 . S
H62 C36 0.931 . S
H63 C45 0.931 . S
H64 C49 0.929 . S
H65 C51 0.930 . S
Co66 N70 2.148 . S
Co66 N76 2.128 . S
Co66 N86 2.194 . S
Co66 O91 2.351 . S
Co66 O92 2.155 . S
Co66 O93 2.096 . S
C67 N70 1.301 . S
C67 N71 1.328 . S
C67 H72 0.930 . S
C68 C69 1.333 . S
C68 N70 1.317 . S
C68 H73 0.930 . S
C69 C68 1.333 . S
C69 N71 1.350 . S
C69 H95 0.931 . S
N70 Co66 2.148 . S
N70 C67 1.301 . S
N70 C68 1.317 . S
N71 C67 1.328 . S
N71 C69 1.350 . S
H72 C67 0.930 . S
H73 C68 0.930 . S
C74 O75 1.224 . S
C74 O93 1.247 . S
O75 C74 1.224 . S
N76 Co66 2.128 . S
N76 C77 1.355 . S
N76 C79 1.311 . S
C77 N76 1.355 . S
C77 C78 1.363 . S
C77 H89 0.929 . S
C78 C77 1.363 . S
C78 N80 1.375 . S
C78 H96 0.931 . S
C79 N76 1.311 . S
C79 N80 1.347 . S
C79 H90 0.929 . S
N80 C78 1.375 . S
N80 C79 1.347 . S
C81 C84 1.365 . S
C81 N86 1.328 . S
C81 H87 0.929 . S
C82 C83 1.362 . S
C82 C85 1.378 . S
C82 H97 0.929 . S
C83 C82 1.362 . S
C83 C84 1.366 . S
C84 C81 1.365 . S
C84 C83 1.366 . S
C84 H98 0.930 . S
C85 C82 1.378 . S
C85 N86 1.315 . S
C85 H88 0.930 . S
N86 Co66 2.194 . S
N86 C81 1.328 . S
N86 C85 1.315 . S
H87 C81 0.929 . S
H88 C85 0.930 . S
H89 C77 0.929 . S
H90 C79 0.929 . S
O91 Co66 2.351 . S
O91 C94 1.244 . S
O92 Co66 2.155 . S
O92 C94 1.240 . S
O93 Co66 2.096 . S
O93 C74 1.247 . S
C94 O91 1.244 . S
C94 O92 1.240 . S
H95 C69 0.931 . S
H96 C78 0.931 . S
H97 C82 0.929 . S
H98 C84 0.930 . S
Co99 N103 2.148 . S
Co99 N109 2.128 1_554 S
Co99 N119 2.194 . S
Co99 O124 2.351 . S
Co99 O125 2.155 . S
Co99 O126 2.096 . S
C100 N103 1.301 . S
C100 N104 1.328 . S
C100 H105 0.930 . S
C101 C102 1.333 . S
C101 N103 1.317 . S
C101 H106 0.930 . S
C102 C101 1.333 . S
C102 N104 1.350 . S
C102 H128 0.931 . S
N103 Co99 2.148 . S
N103 C100 1.301 . S
N103 C101 1.317 . S
N104 C100 1.328 . S
N104 C102 1.350 . S
H105 C100 0.930 . S
H106 C101 0.930 . S
C107 O108 1.224 . S
C107 O126 1.247 . S
O108 C107 1.224 . S
N109 Co99 2.128 1_556 S
N109 C110 1.355 . S
N109 C112 1.311 . S
C110 N109 1.355 . S
C110 C111 1.363 . S
C110 H122 0.929 . S
C111 C110 1.363 . S
C111 N113 1.375 . S
C111 H129 0.931 . S
C112 N109 1.311 . S
C112 N113 1.347 . S
C112 H123 0.929 . S
N113 C111 1.375 . S
N113 C112 1.347 . S
C114 C117 1.365 . S
C114 N119 1.328 . S
C114 H120 0.929 . S
C115 C116 1.362 . S
C115 C118 1.378 1_556 S
C115 H130 0.929 . S
C116 C115 1.362 . S
C116 C117 1.366 1_556 S
C117 C114 1.365 . S
C117 C116 1.366 1_554 S
C117 H131 0.930 . S
C118 C115 1.378 1_554 S
C118 N119 1.315 . S
C118 H121 0.930 . S
N119 Co99 2.194 . S
N119 C114 1.328 . S
N119 C118 1.315 . S
H120 C114 0.929 . S
H121 C118 0.930 . S
H122 C110 0.929 . S
H123 C112 0.929 . S
O124 Co99 2.351 . S
O124 C127 1.244 . S
O125 Co99 2.155 . S
O125 C127 1.240 . S
O126 Co99 2.096 . S
O126 C107 1.247 . S
C127 O124 1.244 . S
C127 O125 1.240 . S
H128 C102 0.931 . S
H129 C111 0.931 . S
H130 C115 0.929 . S
H131 C117 0.930 . S
Co132 N136 2.148 . S
Co132 N142 2.128 . S
Co132 N152 2.194 . S
Co132 O157 2.351 . S
Co132 O158 2.155 . S
Co132 O159 2.096 . S
C133 N136 1.301 . S
C133 N137 1.328 . S
C133 H138 0.930 . S
C134 C135 1.333 . S
C134 N136 1.317 . S
C134 H139 0.930 . S
C135 C134 1.333 . S
C135 N137 1.350 . S
C135 H161 0.931 . S
N136 Co132 2.148 . S
N136 C133 1.301 . S
N136 C134 1.317 . S
N137 C133 1.328 . S
N137 C135 1.350 . S
H138 C133 0.930 . S
H139 C134 0.930 . S
C140 O141 1.224 . S
C140 O159 1.247 . S
O141 C140 1.224 . S
N142 Co132 2.128 . S
N142 C143 1.355 . S
N142 C145 1.311 . S
C143 N142 1.355 . S
C143 C144 1.363 . S
C143 H155 0.929 . S
C144 C143 1.363 . S
C144 N146 1.375 . S
C144 H162 0.931 . S
C145 N142 1.311 . S
C145 N146 1.347 . S
C145 H156 0.929 . S
N146 C144 1.375 . S
N146 C145 1.347 . S
C147 C150 1.365 . S
C147 N152 1.328 . S
C147 H153 0.929 . S
C148 C149 1.362 . S
C148 C151 1.378 . S
C148 H163 0.929 . S
C149 C148 1.362 . S
C149 C150 1.366 . S
C150 C147 1.365 . S
C150 C149 1.366 . S
C150 H164 0.930 . S
C151 C148 1.378 . S
C151 N152 1.315 . S
C151 H154 0.930 . S
N152 Co132 2.194 . S
N152 C147 1.328 . S
N152 C151 1.315 . S
H153 C147 0.929 . S
H154 C151 0.930 . S
H155 C143 0.929 . S
H156 C145 0.929 . S
O157 Co132 2.351 . S
O157 C160 1.244 . S
O158 Co132 2.155 . S
O158 C160 1.240 . S
O159 Co132 2.096 . S
O159 C140 1.247 . S
C160 O157 1.244 . S
C160 O158 1.240 . S
H161 C135 0.931 . S
H162 C144 0.931 . S
H163 C148 0.929 . S
H164 C150 0.930 . S
Co165 N169 2.148 . S
Co165 N175 2.128 . S
Co165 N185 2.194 . S
Co165 O190 2.351 . S
Co165 O191 2.155 . S
Co165 O192 2.096 . S
C166 N169 1.301 . S
C166 N170 1.328 . S
C166 H171 0.930 . S
C167 C168 1.333 . S
C167 N169 1.317 . S
C167 H172 0.930 . S
C168 C167 1.333 . S
C168 N170 1.350 . S
C168 H194 0.931 . S
N169 Co165 2.148 . S
N169 C166 1.301 . S
N169 C167 1.317 . S
N170 C166 1.328 . S
N170 C168 1.350 . S
H171 C166 0.930 . S
H172 C167 0.930 . S
C173 O174 1.224 . S
C173 O192 1.247 . S
O174 C173 1.224 . S
N175 Co165 2.128 . S
N175 C176 1.355 . S
N175 C178 1.311 . S
C176 N175 1.355 . S
C176 C177 1.363 . S
C176 H188 0.929 . S
C177 C176 1.363 . S
C177 N179 1.375 . S
C177 H195 0.931 . S
C178 N175 1.311 . S
C178 N179 1.347 . S
C178 H189 0.929 . S
N179 C177 1.375 . S
N179 C178 1.347 . S
C180 C183 1.365 . S
C180 N185 1.328 . S
C180 H186 0.929 . S
C181 C182 1.362 . S
C181 C184 1.378 . S
C181 H196 0.929 . S
C182 C181 1.362 . S
C182 C183 1.366 . S
C183 C180 1.365 . S
C183 C182 1.366 . S
C183 H197 0.930 . S
C184 C181 1.378 . S
C184 N185 1.315 . S
C184 H187 0.930 . S
N185 Co165 2.194 . S
N185 C180 1.328 . S
N185 C184 1.315 . S
H186 C180 0.929 . S
H187 C184 0.930 . S
H188 C176 0.929 . S
H189 C178 0.929 . S
O190 Co165 2.351 . S
O190 C193 1.244 . S
O191 Co165 2.155 . S
O191 C193 1.240 . S
O192 Co165 2.096 . S
O192 C173 1.247 . S
C193 O190 1.244 . S
C193 O191 1.240 . S
H194 C168 0.931 . S
H195 C177 0.931 . S
H196 C181 0.929 . S
H197 C183 0.930 . S
H198 C204 0.930 . S
H199 C208 0.930 . S
H200 C213 0.929 . S
H201 C211 0.929 . S
H202 C206 0.929 . S
H203 C212 0.929 . S
C204 H198 0.930 . S
C204 C205 1.367 1_556 S
C204 C212 1.378 . S
C205 C204 1.367 1_554 S
C205 C213 1.433 . S
C206 H202 0.929 . S
C206 C208 1.378 . S
C206 C210 1.350 . S
C207 C210 1.463 . S
C207 C212 1.350 1_554 S
C207 N215 1.427 . S
C208 H199 0.930 . S
C208 C206 1.378 . S
C208 C209 1.367 . S
C209 C208 1.367 . S
C209 C211 1.433 1_554 S
C210 C206 1.350 . S
C210 C207 1.463 . S
C210 N214 1.427 1_554 S
C211 H201 0.929 . S
C211 C209 1.433 1_556 S
C211 N214 1.384 . S
C212 H203 0.929 . S
C212 C204 1.378 . S
C212 C207 1.350 1_556 S
C213 H200 0.929 . S
C213 C205 1.433 . S
C213 N215 1.384 . S
N214 C210 1.427 1_556 S
N214 C211 1.384 . S
N215 C207 1.427 . S
N215 C213 1.384 . S
H216 C222 0.930 . S
H217 C226 0.930 . S
H218 C231 0.929 . S
H219 C229 0.929 . S
H220 C224 0.929 . S
H221 C230 0.929 . S
C222 H216 0.930 . S
C222 C223 1.367 . S
C222 C230 1.378 1_655 S
C223 C222 1.367 . S
C223 C231 1.433 . S
C224 H220 0.929 . S
C224 C226 1.378 1_655 S
C224 C228 1.350 1_655 S
C225 C228 1.463 1_655 S
C225 C230 1.350 1_655 S
C225 N233 1.427 . S
C226 H217 0.930 . S
C226 C224 1.378 1_455 S
C226 C227 1.367 . S
C227 C226 1.367 . S
C227 C229 1.433 . S
C228 C224 1.350 1_455 S
C228 C225 1.463 1_455 S
C228 N232 1.427 . S
C229 H219 0.929 . S
C229 C227 1.433 . S
C229 N232 1.384 . S
C230 H221 0.929 . S
C230 C222 1.378 1_455 S
C230 C225 1.350 1_455 S
C231 H218 0.929 . S
C231 C223 1.433 . S
C231 N233 1.384 . S
N232 C228 1.427 . S
N232 C229 1.384 . S
N233 C225 1.427 . S
N233 C231 1.384 . S
H234 C240 0.930 . S
H235 C244 0.930 . S
H236 C249 0.929 . S
H237 C247 0.929 . S
H238 C242 0.929 1_545 S
H239 C248 0.929 1_565 S
C240 H234 0.930 . S
C240 C241 1.367 . S
C240 C248 1.378 . S
C241 C240 1.367 . S
C241 C249 1.433 . S
C242 H238 0.929 1_565 S
C242 C244 1.378 . S
C242 C246 1.350 . S
C243 C246 1.463 1_545 S
C243 C248 1.350 . S
C243 N251 1.427 . S
C244 H235 0.930 . S
C244 C242 1.378 . S
C244 C245 1.367 . S
C245 C244 1.367 . S
C245 C247 1.433 . S
C246 C242 1.350 . S
C246 C243 1.463 1_565 S
C246 N250 1.427 . S
C247 H237 0.929 . S
C247 C245 1.433 . S
C247 N250 1.384 . S
C248 H239 0.929 1_545 S
C248 C240 1.378 . S
C248 C243 1.350 . S
C249 H236 0.929 . S
C249 C241 1.433 . S
C249 N251 1.384 . S
N250 C246 1.427 . S
N250 C247 1.384 . S
N251 C243 1.427 . S
N251 C249 1.384 . S
H252 C258 0.930 . S
H253 C262 0.930 . S
H254 C267 0.929 . S
H255 C265 0.929 . S
H256 C260 0.929 . S
H257 C266 0.929 . S
C258 H252 0.930 . S
C258 C259 1.367 . S
C258 C266 1.378 . S
C259 C258 1.367 . S
C259 C267 1.433 . S
C260 H256 0.929 . S
C260 C262 1.378 . S
C260 C264 1.350 . S
C261 C264 1.463 . S
C261 C266 1.350 . S
C261 N269 1.427 . S
C262 H253 0.930 . S
C262 C260 1.378 . S
C262 C263 1.367 . S
C263 C262 1.367 . S
C263 C265 1.433 . S
C264 C260 1.350 . S
C264 C261 1.463 . S
C264 N268 1.427 . S
C265 H255 0.929 . S
C265 C263 1.433 . S
C265 N268 1.384 . S
C266 H257 0.929 . S
C266 C258 1.378 . S
C266 C261 1.350 . S
C267 H254 0.929 . S
C267 C259 1.433 . S
C267 N269 1.384 . S
N268 C264 1.427 . S
N268 C265 1.384 . S
N269 C261 1.427 . S
N269 C267 1.384 . S
H270 C276 0.930 . S
H271 C280 0.930 . S
H272 C285 0.929 1_455 S
H273 C283 0.929 1_655 S
H274 C278 0.929 . S
H275 C284 0.929 . S
C276 H270 0.930 . S
C276 C277 1.367 1_554 S
C276 C284 1.378 . S
C277 C276 1.367 1_556 S
C277 C285 1.433 . S
C278 H274 0.929 . S
C278 C280 1.378 . S
C278 C282 1.350 . S
C279 C282 1.463 1_655 S
C279 C284 1.350 1_556 S
C279 N287 1.427 1_655 S
C280 H271 0.930 . S
C280 C278 1.378 . S
C280 C281 1.367 . S
C281 C280 1.367 . S
C281 C283 1.433 1_556 S
C282 C278 1.350 . S
C282 C279 1.463 1_455 S
C282 N286 1.427 1_456 S
C283 H273 0.929 1_455 S
C283 C281 1.433 1_554 S
C283 N286 1.384 1_455 S
C284 H275 0.929 . S
C284 C276 1.378 . S
C284 C279 1.350 1_554 S
C285 H272 0.929 1_655 S
C285 C277 1.433 . S
C285 N287 1.384 1_655 S
N286 C282 1.427 1_654 S
N286 C283 1.384 1_655 S
N287 C279 1.427 1_455 S
N287 C285 1.384 1_455 S
H288 C294 0.930 . S
H289 C298 0.930 . S
H290 C303 0.929 . S
H291 C301 0.929 . S
H292 C296 0.929 . S
H293 C302 0.929 . S
C294 H288 0.930 . S
C294 C295 1.367 . S
C294 C302 1.378 . S
C295 C294 1.367 . S
C295 C303 1.433 . S
C296 H292 0.929 . S
C296 C298 1.378 . S
C296 C300 1.350 . S
C297 C300 1.463 1_565 S
C297 C302 1.350 . S
C297 N305 1.427 1_565 S
C298 H289 0.930 . S
C298 C296 1.378 . S
C298 C299 1.367 . S
C299 C298 1.367 . S
C299 C301 1.433 . S
C300 C296 1.350 . S
C300 C297 1.463 1_545 S
C300 N304 1.427 1_545 S
C301 H291 0.929 . S
C301 C299 1.433 . S
C301 N304 1.384 1_545 S
C302 H293 0.929 . S
C302 C294 1.378 . S
C302 C297 1.350 . S
C303 H290 0.929 . S
C303 C295 1.433 . S
C303 N305 1.384 1_565 S
N304 C300 1.427 1_565 S
N304 C301 1.384 1_565 S
N305 C297 1.427 1_545 S
N305 C303 1.384 1_545 S
H306 C312 0.930 . S
H307 C316 0.930 . S
H308 C321 0.929 . S
H309 C319 0.929 . S
H310 C314 0.929 . S
H311 C320 0.929 . S
C312 H306 0.930 . S
C312 C313 1.367 . S
C312 C320 1.378 . S
C313 C312 1.367 . S
C313 C321 1.433 . S
C314 H310 0.929 . S
C314 C316 1.378 . S
C314 C318 1.350 . S
C315 C318 1.463 1_445 S
C315 C320 1.350 . S
C315 N323 1.427 1_455 S
C316 H307 0.930 . S
C316 C314 1.378 . S
C316 C317 1.367 . S
C317 C316 1.367 . S
C317 C319 1.433 . S
C318 C314 1.350 . S
C318 C315 1.463 1_665 S
C318 N322 1.427 1_655 S
C319 H309 0.929 . S
C319 C317 1.433 . S
C319 N322 1.384 1_655 S
C320 H311 0.929 . S
C320 C312 1.378 . S
C320 C315 1.350 . S
C321 H308 0.929 . S
C321 C313 1.433 . S
C321 N323 1.384 1_455 S
N322 C318 1.427 1_455 S
N322 C319 1.384 1_455 S
N323 C315 1.427 1_655 S
N323 C321 1.384 1_655 S
H324 C330 0.930 . S
H325 C334 0.930 . S
H326 C339 0.929 . S
H327 C337 0.929 . S
H328 C332 0.929 1_455 S
H329 C338 0.929 1_655 S
C330 H324 0.930 . S
C330 C331 1.367 . S
C330 C338 1.378 . S
C331 C330 1.367 . S
C331 C339 1.433 . S
C332 H328 0.929 1_655 S
C332 C334 1.378 . S
C332 C336 1.350 . S
C333 C336 1.463 1_465 S
C333 C338 1.350 . S
C333 N341 1.427 . S
C334 H325 0.930 . S
C334 C332 1.378 . S
C334 C335 1.367 . S
C335 C334 1.367 . S
C335 C337 1.433 . S
C336 C332 1.350 . S
C336 C333 1.463 1_645 S
C336 N340 1.427 . S
C337 H327 0.929 . S
C337 C335 1.433 . S
C337 N340 1.384 . S
C338 H329 0.929 1_455 S
C338 C330 1.378 . S
C338 C333 1.350 . S
C339 H326 0.929 . S
C339 C331 1.433 . S
C339 N341 1.384 . S
N340 C336 1.427 . S
N340 C337 1.384 . S
N341 C333 1.427 . S
N341 C339 1.384 . S
H342 C348 0.930 . S
H343 C352 0.930 . S
H344 C357 0.929 . S
H345 C355 0.929 . S
H346 C350 0.929 . S
H347 C356 0.929 . S
C348 H342 0.930 . S
C348 C349 1.367 . S
C348 C356 1.378 . S
C349 C348 1.367 . S
C349 C357 1.433 . S
C350 H346 0.929 . S
C350 C352 1.378 . S
C350 C354 1.350 . S
C351 C354 1.463 1_445 S
C351 C356 1.350 . S
C351 N359 1.427 . S
C352 H343 0.930 . S
C352 C350 1.378 . S
C352 C353 1.367 . S
C353 C352 1.367 . S
C353 C355 1.433 . S
C354 C350 1.350 . S
C354 C351 1.463 1_665 S
C354 N358 1.427 . S
C355 H345 0.929 . S
C355 C353 1.433 . S
C355 N358 1.384 . S
C356 H347 0.929 . S
C356 C348 1.378 . S
C356 C351 1.350 . S
C357 H344 0.929 . S
C357 C349 1.433 . S
C357 N359 1.384 . S
N358 C354 1.427 . S
N358 C355 1.384 . S
N359 C351 1.427 . S
N359 C357 1.384 . S
H360 C366 0.930 . S
H361 C370 0.930 . S
H362 C375 0.929 . S
H363 C373 0.929 . S
H364 C368 0.929 . S
H365 C374 0.929 . S
C366 H360 0.930 . S
C366 C367 1.367 . S
C366 C374 1.378 . S
C367 C366 1.367 . S
C367 C375 1.433 . S
C368 H364 0.929 . S
C368 C370 1.378 . S
C368 C372 1.350 . S
C369 C372 1.463 . S
C369 C374 1.350 . S
C369 N377 1.427 . S
C370 H361 0.930 . S
C370 C368 1.378 . S
C370 C371 1.367 . S
C371 C370 1.367 . S
C371 C373 1.433 . S
C372 C368 1.350 . S
C372 C369 1.463 . S
C372 N376 1.427 . S
C373 H363 0.929 . S
C373 C371 1.433 . S
C373 N376 1.384 . S
C374 H365 0.929 . S
C374 C366 1.378 . S
C374 C369 1.350 . S
C375 H362 0.929 . S
C375 C367 1.433 . S
C375 N377 1.384 . S
N376 C372 1.427 . S
N376 C373 1.384 . S
N377 C369 1.427 . S
N377 C375 1.384 . S
H378 C384 0.930 . S
H379 C388 0.930 . S
H380 C393 0.929 . S
H381 C391 0.929 . S
H382 C386 0.929 1_455 S
H383 C392 0.929 . S
C384 H378 0.930 . S
C384 C385 1.367 . S
C384 C392 1.378 . S
C385 C384 1.367 . S
C385 C393 1.433 . S
C386 H382 0.929 1_655 S
C386 C388 1.378 . S
C386 C390 1.350 . S
C387 C390 1.463 1_455 S
C387 C392 1.350 . S
C387 N395 1.427 . S
C388 H379 0.930 . S
C388 C386 1.378 . S
C388 C389 1.367 . S
C389 C388 1.367 . S
C389 C391 1.433 . S
C390 C386 1.350 . S
C390 C387 1.463 1_655 S
C390 N394 1.427 . S
C391 H381 0.929 . S
C391 C389 1.433 . S
C391 N394 1.384 . S
C392 H383 0.929 . S
C392 C384 1.378 . S
C392 C387 1.350 . S
C393 H380 0.929 . S
C393 C385 1.433 . S
C393 N395 1.384 . S
N394 C390 1.427 . S
N394 C391 1.384 . S
N395 C387 1.427 . S
N395 C393 1.384 . S
H396 C402 0.930 . S
H397 C406 0.930 . S
H398 C411 0.929 . S
H399 C409 0.929 . S
H400 C404 0.929 . S
H401 C410 0.929 1_565 S
C402 H396 0.930 . S
C402 C403 1.367 . S
C402 C410 1.378 . S
C403 C402 1.367 . S
C403 C411 1.433 . S
C404 H400 0.929 . S
C404 C406 1.378 1_545 S
C404 C408 1.350 1_545 S
C405 C408 1.463 1_545 S
C405 C410 1.350 . S
C405 N413 1.427 . S
C406 H397 0.930 . S
C406 C404 1.378 1_565 S
C406 C407 1.367 . S
C407 C406 1.367 . S
C407 C409 1.433 . S
C408 C404 1.350 1_565 S
C408 C405 1.463 1_565 S
C408 N412 1.427 . S
C409 H399 0.929 . S
C409 C407 1.433 . S
C409 N412 1.384 . S
C410 H401 0.929 1_545 S
C410 C402 1.378 . S
C410 C405 1.350 . S
C411 H398 0.929 . S
C411 C403 1.433 . S
C411 N413 1.384 . S
N412 C408 1.427 . S
N412 C409 1.384 . S
N413 C405 1.427 . S
N413 C411 1.384 . S
H414 C420 0.930 . S
H415 C424 0.930 . S
H416 C429 0.929 . S
H417 C427 0.929 . S
H418 C422 0.929 . S
H419 C428 0.929 . S
C420 H414 0.930 . S
C420 C421 1.367 . S
C420 C428 1.378 . S
C421 C420 1.367 . S
C421 C429 1.433 . S
C422 H418 0.929 . S
C422 C424 1.378 . S
C422 C426 1.350 . S
C423 C426 1.463 . S
C423 C428 1.350 . S
C423 N431 1.427 . S
C424 H415 0.930 . S
C424 C422 1.378 . S
C424 C425 1.367 . S
C425 C424 1.367 . S
C425 C427 1.433 . S
C426 C422 1.350 . S
C426 C423 1.463 . S
C426 N430 1.427 . S
C427 H417 0.929 . S
C427 C425 1.433 . S
C427 N430 1.384 . S
C428 H419 0.929 . S
C428 C420 1.378 . S
C428 C423 1.350 . S
C429 H416 0.929 . S
C429 C421 1.433 . S
C429 N431 1.384 . S
N430 C426 1.427 . S
N430 C427 1.384 . S
N431 C423 1.427 . S
N431 C429 1.384 . S
H432 C438 0.930 . S
H433 C442 0.930 . S
H434 C447 0.929 . S
H435 C445 0.929 . S
H436 C440 0.929 . S
H437 C446 0.929 . S
C438 H432 0.930 . S
C438 C439 1.367 . S
C438 C446 1.378 . S
C439 C438 1.367 . S
C439 C447 1.433 . S
C440 H436 0.929 . S
C440 C442 1.378 . S
C440 C444 1.350 . S
C441 C444 1.463 1_655 S
C441 C446 1.350 . S
C441 N449 1.427 . S
C442 H433 0.930 . S
C442 C440 1.378 . S
C442 C443 1.367 . S
C443 C442 1.367 . S
C443 C445 1.433 . S
C444 C440 1.350 . S
C444 C441 1.463 1_455 S
C444 N448 1.427 . S
C445 H435 0.929 . S
C445 C443 1.433 . S
C445 N448 1.384 . S
C446 H437 0.929 . S
C446 C438 1.378 . S
C446 C441 1.350 . S
C447 H434 0.929 . S
C447 C439 1.433 . S
C447 N449 1.384 . S
N448 C444 1.427 . S
N448 C445 1.384 . S
N449 C441 1.427 . S
N449 C447 1.384 . S
H450 C456 0.930 . S
H451 C460 0.930 . S
H452 C465 0.929 . S
H453 C463 0.929 . S
H454 C458 0.929 . S
H455 C464 0.929 . S
C456 H450 0.930 . S
C456 C457 1.367 . S
C456 C464 1.378 . S
C457 C456 1.367 . S
C457 C465 1.433 . S
C458 H454 0.929 . S
C458 C460 1.378 . S
C458 C462 1.350 . S
C459 C462 1.463 1_545 S
C459 C464 1.350 . S
C459 N467 1.427 1_545 S
C460 H451 0.930 . S
C460 C458 1.378 . S
C460 C461 1.367 . S
C461 C460 1.367 . S
C461 C463 1.433 . S
C462 C458 1.350 . S
C462 C459 1.463 1_565 S
C462 N466 1.427 . S
C463 H453 0.929 . S
C463 C461 1.433 . S
C463 N466 1.384 . S
C464 H455 0.929 . S
C464 C456 1.378 . S
C464 C459 1.350 . S
C465 H452 0.929 . S
C465 C457 1.433 . S
C465 N467 1.384 1_545 S
N466 C462 1.427 . S
N466 C463 1.384 . S
N467 C459 1.427 1_565 S
N467 C465 1.384 1_565 S
C205 C8 1.918 . S
C209 C107 1.919 . S
C223 C41 1.919 . S
C227 C140 1.917 . S
C241 C173 1.918 . S
C245 C74 1.916 . S
C259 C83 0.737 . S
C263 C182 0.739 . S
C277 C116 0.732 . S
C281 C17 0.739 . S
C295 C149 0.742 . S
C299 C50 0.730 . S
C313 C28 0.753 . S
C317 C127 0.755 . S
C331 C160 0.758 . S
C335 C61 0.751 . S
C349 C193 0.759 . S
C353 C94 0.752 . S
C367 N14 1.672 . S
C371 N170 1.775 . S
C385 N5 1.775 . S
C389 N47 1.671 . S
C403 N38 1.776 . S
C407 N80 1.672 . S
C421 N71 1.776 . S
C425 N113 1.672 . S
C439 N104 1.777 . S
C443 N146 1.687 . S
C457 N179 1.685 . S
C461 N137 1.776 . S
