# Generated by pormake.
# Topology yfh, (5)-cn, num edge types: 1
# Building blocks:
#     Node 0, Type 0, BuildingBlock: XOMCOT_clean_sbu_0, # of connection points: 5
#     Node 1, Type 0, BuildingBlock: XOMCOT_clean_sbu_0, # of connection points: 5
#     Node 2, Type 0, BuildingBlock: XOMCOT_clean_sbu_0, # of connection points: 5
#     Node 3, Type 0, BuildingBlock: XOMCOT_clean_sbu_0, # of connection points: 5
#     Node 4, Type 0, BuildingBlock: XOMCOT_clean_sbu_0, # of connection points: 5
#     Node 5, Type 0, BuildingBlock: XOMCOT_clean_sbu_0, # of connection points: 5
#     Node 6, Type 0, BuildingBlock: XOMCOT_clean_sbu_0, # of connection points: 5
#     Node 7, Type 0, BuildingBlock: XOMCOT_clean_sbu_0, # of connection points: 5
#     Edge 8, Type (0, 0), BuildingBlock: XUDNAN_clean_linker_2, # of connection points: 2
#     Edge 9, Type (0, 0), BuildingBlock: XUDNAN_clean_linker_2, # of connection points: 2
#     Edge 10, Type (0, 0), BuildingBlock: XUDNAN_clean_linker_2, # of connection points: 2
#     Edge 11, Type (0, 0), BuildingBlock: XUDNAN_clean_linker_2, # of connection points: 2
#     Edge 12, Type (0, 0), BuildingBlock: XUDNAN_clean_linker_2, # of connection points: 2
#     Edge 13, Type (0, 0), BuildingBlock: XUDNAN_clean_linker_2, # of connection points: 2
#     Edge 14, Type (0, 0), BuildingBlock: XUDNAN_clean_linker_2, # of connection points: 2
#     Edge 15, Type (0, 0), BuildingBlock: XUDNAN_clean_linker_2, # of connection points: 2
#     Edge 16, Type (0, 0), BuildingBlock: XUDNAN_clean_linker_2, # of connection points: 2
#     Edge 17, Type (0, 0), BuildingBlock: XUDNAN_clean_linker_2, # of connection points: 2
#     Edge 18, Type (0, 0), BuildingBlock: XUDNAN_clean_linker_2, # of connection points: 2
#     Edge 19, Type (0, 0), BuildingBlock: XUDNAN_clean_linker_2, # of connection points: 2
#     Edge 20, Type (0, 0), BuildingBlock: XUDNAN_clean_linker_2, # of connection points: 2
#     Edge 21, Type (0, 0), BuildingBlock: XUDNAN_clean_linker_2, # of connection points: 2
#     Edge 22, Type (0, 0), BuildingBlock: XUDNAN_clean_linker_2, # of connection points: 2
#     Edge 23, Type (0, 0), BuildingBlock: XUDNAN_clean_linker_2, # of connection points: 2
#     Edge 24, Type (0, 0), BuildingBlock: XUDNAN_clean_linker_2, # of connection points: 2
#     Edge 25, Type (0, 0), BuildingBlock: XUDNAN_clean_linker_2, # of connection points: 2
#     Edge 26, Type (0, 0), BuildingBlock: XUDNAN_clean_linker_2, # of connection points: 2
#     Edge 27, Type (0, 0), BuildingBlock: XUDNAN_clean_linker_2, # of connection points: 2
# Relax obj value: 0.378
# Max RMSD: 0.266
# Mean RMSD: 0.266
data_MOF--net-yfh--node1-XOMCOT_clean_sbu_0--edge1-XUDNAN_clean_linker_2
_symmetry_space_group_name_H-M    P1
_symmetry_Int_Tables_number       1
_symmetry_cell_setting            triclinic
loop_
_symmetry_equiv_pos_as_xyz
'x, y, z'
_cell_length_a     27.695412
_cell_length_b     27.771963
_cell_length_c     59.765001
_cell_angle_alpha  89.799486
_cell_angle_beta   90.247324
_cell_angle_gamma 89.789135
loop_
_atom_site_label
_atom_site_type_symbol
_atom_site_fract_x
_atom_site_fract_y
_atom_site_fract_z
_atom_type_partial_charge
Co0 Co 0.36178 0.15255 0.11907 0.0
C1 C 0.3312 0.17162 0.07302 0.0
C2 C 0.28708 0.11712 0.08812 0.0
C3 C 0.26886 0.12745 0.06715 0.0
N4 N 0.32615 0.14487 0.09164 0.0
N5 N 0.2965 0.16202 0.05788 0.0
H6 H 0.35875 0.19879 0.07093 0.0
H7 H 0.27154 0.09287 0.10029 0.0
C8 C 0.37658 0.04942 0.13164 0.0
O9 O 0.42198 0.06103 0.13502 0.0
N10 N 0.39563 0.16207 0.14745 0.0
C11 C 0.42195 0.20101 0.15344 0.0
C12 C 0.43619 0.19648 0.17536 0.0
C13 C 0.39128 0.13634 0.16658 0.0
N14 N 0.41677 0.1559 0.18352 0.0
C15 C 0.46199 0.15743 0.10564 0.0
C16 C 0.45412 0.09043 0.07184 0.0
C17 C 0.49574 0.11915 0.07286 0.0
C18 C 0.50053 0.15041 0.09112 0.0
C19 C 0.41743 0.09664 0.08756 0.0
N20 N 0.42039 0.13168 0.10356 0.0
H21 H 0.4652 0.18602 0.11744 0.0
H22 H 0.38496 0.07554 0.08575 0.0
H23 H 0.42946 0.23174 0.14289 0.0
H24 H 0.36936 0.10445 0.16835 0.0
O25 O 0.36716 0.22031 0.11274 0.0
O26 O 0.30628 0.18779 0.13112 0.0
O27 O 0.34574 0.0827 0.12705 0.0
C28 C 0.32583 0.22636 0.12243 0.0
H29 H 0.23616 0.11292 0.05989 0.0
H30 H 0.45772 0.22178 0.18483 0.0
H31 H 0.44794 0.0656 0.05824 0.0
H32 H 0.53258 0.17195 0.09353 0.0
Co33 Co 0.36893 0.84479 0.36998 0.0
C34 C 0.33963 0.77862 0.33341 0.0
C35 C 0.4088 0.81069 0.32755 0.0
C36 C 0.3958 0.78511 0.30884 0.0
N37 N 0.37333 0.80697 0.3429 0.0
N38 N 0.35254 0.76501 0.31276 0.0
H39 H 0.30463 0.77094 0.34037 0.0
H40 H 0.44043 0.83313 0.32924 0.0
C41 C 0.4627 0.79567 0.37527 0.0
O42 O 0.43728 0.75588 0.37623 0.0
N43 N 0.36548 0.88305 0.39663 0.0
C44 C 0.3376 0.92226 0.39978 0.0
C45 C 0.34938 0.94221 0.42014 0.0
C46 C 0.39345 0.87924 0.41499 0.0
N47 N 0.3845 0.91509 0.42961 0.0
C48 C 0.34995 0.90974 0.33462 0.0
C49 C 0.42557 0.97212 0.34262 0.0
C50 C 0.39706 0.97874 0.32329 0.0
C51 C 0.35847 0.947 0.31963 0.0
C52 C 0.41655 0.93323 0.35694 0.0
N53 N 0.37979 0.90216 0.35244 0.0
H54 H 0.32063 0.88517 0.33128 0.0
H55 H 0.43934 0.92773 0.37146 0.0
H56 H 0.31161 0.93612 0.38781 0.0
H57 H 0.42106 0.85194 0.41719 0.0
O58 O 0.29933 0.84442 0.36858 0.0
O59 O 0.34324 0.78929 0.38612 0.0
O60 O 0.44082 0.83614 0.3741 0.0
C61 C 0.30047 0.80493 0.38022 0.0
H62 H 0.41529 0.78331 0.2932 0.0
H63 H 0.33367 0.97435 0.42732 0.0
H64 H 0.45502 0.9962 0.34656 0.0
H65 H 0.33591 0.94924 0.30484 0.0
Co66 Co 0.66937 0.84006 0.62602 0.0
C67 C 0.71647 0.81162 0.58423 0.0
C68 C 0.76246 0.85667 0.60419 0.0
C69 C 0.78734 0.84322 0.58536 0.0
N70 N 0.71797 0.83724 0.60326 0.0
N71 N 0.75838 0.8147 0.57307 0.0
H72 H 0.68551 0.79106 0.57871 0.0
H73 H 0.77636 0.87808 0.61782 0.0
C74 C 0.67659 0.94559 0.637 0.0
O75 O 0.62931 0.94875 0.6356 0.0
N76 N 0.62147 0.84165 0.64981 0.0
C77 C 0.58322 0.81204 0.65256 0.0
C78 C 0.56082 0.82246 0.67244 0.0
C79 C 0.62327 0.86755 0.66888 0.0
N80 N 0.58617 0.85728 0.68264 0.0
C81 C 0.58231 0.85089 0.60036 0.0
C82 C 0.61395 0.92551 0.57351 0.0
C83 C 0.56926 0.90426 0.56896 0.0
C84 C 0.55321 0.86707 0.58285 0.0
C85 C 0.64217 0.90798 0.59122 0.0
N86 N 0.62595 0.87153 0.6047 0.0
H87 H 0.57076 0.8196 0.60936 0.0
H88 H 0.67803 0.92242 0.59342 0.0
H89 H 0.57321 0.78293 0.64157 0.0
H90 H 0.65157 0.89276 0.67295 0.0
O91 O 0.65173 0.77482 0.61938 0.0
O92 O 0.70884 0.79543 0.64362 0.0
O93 O 0.69734 0.90435 0.63569 0.0
C94 C 0.68556 0.76142 0.6331 0.0
H95 H 0.8242 0.85252 0.58127 0.0
H96 H 0.52958 0.80449 0.67933 0.0
H97 H 0.62817 0.95349 0.56276 0.0
H98 H 0.51914 0.84924 0.57966 0.0
Co99 Co 0.64324 0.18136 0.86334 0.0
C100 C 0.6892 0.2346 0.82588 0.0
C101 C 0.63102 0.27368 0.84067 0.0
C102 C 0.65508 0.30414 0.82657 0.0
N103 N 0.65123 0.22929 0.83984 0.0
N104 N 0.69194 0.27958 0.81747 0.0
H105 H 0.71743 0.20812 0.82369 0.0
H106 H 0.60335 0.28486 0.85224 0.0
C107 C 0.54337 0.20968 0.85242 0.0
O108 O 0.55662 0.20224 0.83163 0.0
N109 N 0.63645 0.13738 0.88799 0.0
C110 C 0.65034 0.09094 0.88985 0.0
C111 C 0.64508 0.07682 0.91192 0.0
C112 C 0.62373 0.15103 0.90866 0.0
N113 N 0.62892 0.11502 0.92363 0.0
C114 C 0.64655 0.12182 0.82461 0.0
C115 C 0.56512 0.06786 0.83338 0.0
C116 C 0.59237 0.05775 0.81421 0.0
C117 C 0.63325 0.08571 0.80989 0.0
C118 C 0.5796 0.10502 0.84769 0.0
N119 N 0.61942 0.13221 0.84292 0.0
H120 H 0.67966 0.1404 0.82146 0.0
H121 H 0.55909 0.11167 0.86273 0.0
H122 H 0.66512 0.06961 0.87639 0.0
H123 H 0.61271 0.18737 0.91277 0.0
O124 O 0.70951 0.16392 0.86125 0.0
O125 O 0.68317 0.22398 0.88208 0.0
O126 O 0.57431 0.20535 0.86842 0.0
C127 C 0.71989 0.19948 0.87426 0.0
H128 H 0.64713 0.34192 0.82395 0.0
H129 H 0.65485 0.04221 0.91902 0.0
H130 H 0.53362 0.0467 0.83754 0.0
H131 H 0.65527 0.07978 0.79521 0.0
Co132 Co 0.84112 0.34375 0.6112 0.0
C133 C 0.82281 0.33666 0.6593 0.0
C134 C 0.76221 0.36761 0.6417 0.0
C135 C 0.75386 0.37112 0.66429 0.0
N136 N 0.80583 0.34697 0.63871 0.0
N137 N 0.79208 0.35185 0.67509 0.0
H138 H 0.85819 0.32151 0.66267 0.0
H139 H 0.73906 0.381 0.62846 0.0
C140 C 0.8251 0.4469 0.59653 0.0
O141 O 0.87155 0.45131 0.59263 0.0
N142 N 0.87584 0.33974 0.58294 0.0
C143 C 0.9105 0.30747 0.5775 0.0
C144 C 0.92264 0.31341 0.55538 0.0
C145 C 0.86647 0.36376 0.56366 0.0
N146 N 0.89513 0.34902 0.5468 0.0
C147 C 0.93771 0.35714 0.62768 0.0
C148 C 0.91707 0.43682 0.6536 0.0
C149 C 0.9613 0.41322 0.6566 0.0
C150 C 0.97202 0.37361 0.64306 0.0
C151 C 0.88349 0.41868 0.63841 0.0
N152 N 0.89363 0.37899 0.62568 0.0
H153 H 0.94534 0.32437 0.61883 0.0
H154 H 0.84773 0.43422 0.63848 0.0
H155 H 0.9252 0.28018 0.58853 0.0
H156 H 0.83794 0.38998 0.56151 0.0
O157 O 0.86183 0.27959 0.6191 0.0
O158 O 0.7946 0.29632 0.60045 0.0
O159 O 0.8076 0.40569 0.60166 0.0
C160 C 0.8224 0.26397 0.60989 0.0
H161 H 0.72275 0.38732 0.67223 0.0
H162 H 0.94954 0.29308 0.54628 0.0
H163 H 0.90685 0.46671 0.6642 0.0
H164 H 1.00571 0.3541 0.6451 0.0
Co165 Co 0.14238 0.37134 0.8618 0.0
C166 C 0.1722 0.33164 0.90617 0.0
C167 C 0.12097 0.28694 0.88933 0.0
C168 C 0.13487 0.26421 0.90873 0.0
N169 N 0.14322 0.32998 0.888 0.0
N170 N 0.16726 0.29233 0.91928 0.0
H171 H 0.19904 0.35888 0.909 0.0
H172 H 0.09767 0.27203 0.87659 0.0
C173 C 0.03859 0.35311 0.87215 0.0
O174 O 0.04802 0.36701 0.8927 0.0
N175 N 0.14191 0.41088 0.8353 0.0
C176 C 0.16736 0.4515 0.83217 0.0
C177 C 0.15739 0.46907 0.8111 0.0
C178 C 0.11703 0.40393 0.81616 0.0
N179 N 0.1257 0.4392 0.80104 0.0
C180 C 0.16047 0.44512 0.89397 0.0
C181 C 0.0713 0.48977 0.89148 0.0
C182 C 0.10361 0.5028 0.90848 0.0
C183 C 0.14954 0.48178 0.9089 0.0
C184 C 0.08452 0.45363 0.87638 0.0
N185 N 0.12657 0.42833 0.87936 0.0
H186 H 0.19625 0.42998 0.89444 0.0
H187 H 0.05993 0.44455 0.86298 0.0
H188 H 0.19155 0.46716 0.84438 0.0
H189 H 0.09271 0.37407 0.81351 0.0
O190 O 0.21182 0.37601 0.86327 0.0
O191 O 0.1721 0.31871 0.84544 0.0
O192 O 0.07169 0.35421 0.85716 0.0
C193 C 0.21344 0.33621 0.85201 0.0
H194 H 0.12273 0.22919 0.91428 0.0
H195 H 0.17286 0.50106 0.80369 0.0
H196 H 0.03611 0.50669 0.89014 0.0
H197 H 0.17614 0.49199 0.92134 0.0
Co198 Co 0.18816 0.65761 0.11337 0.0
C199 C 0.19567 0.66245 0.16231 0.0
C200 C 0.23835 0.60424 0.14939 0.0
C201 C 0.24098 0.60294 0.17231 0.0
N202 N 0.20943 0.64118 0.14316 0.0
N203 N 0.21401 0.63934 0.18027 0.0
H204 H 0.17285 0.69413 0.16311 0.0
H205 H 0.25716 0.58025 0.13828 0.0
C206 C 0.23024 0.56492 0.09714 0.0
O207 O 0.26853 0.58924 0.09093 0.0
N208 N 0.16683 0.67354 0.08326 0.0
C209 C 0.17327 0.71519 0.0719 0.0
C210 C 0.15473 0.71031 0.05069 0.0
C211 C 0.14355 0.64427 0.06884 0.0
N212 N 0.13607 0.66584 0.04884 0.0
C213 C 0.09033 0.68432 0.12042 0.0
C214 C 0.07051 0.60901 0.14934 0.0
C215 C 0.04054 0.64997 0.14961 0.0
C216 C 0.04892 0.68621 0.13362 0.0
C217 C 0.11082 0.60798 0.13539 0.0
N218 N 0.12206 0.64697 0.12249 0.0
H219 H 0.09919 0.71496 0.11003 0.0
H220 H 0.13595 0.57832 0.13705 0.0
H221 H 0.19064 0.74712 0.07823 0.0
H222 H 0.13364 0.60748 0.07262 0.0
O223 O 0.19214 0.72514 0.12087 0.0
O224 O 0.25277 0.6828 0.10714 0.0
O225 O 0.19386 0.58742 0.10499 0.0
C226 C 0.23703 0.72393 0.11486 0.0
H227 H 0.26293 0.57874 0.18235 0.0
H228 H 0.1553 0.7372 0.03753 0.0
H229 H 0.06592 0.57997 0.16126 0.0
H230 H 0.02586 0.7177 0.13251 0.0
Co231 Co 0.87762 0.67122 0.36149 0.0
C232 C 0.85489 0.69589 0.40825 0.0
C233 C 0.90606 0.7445 0.39355 0.0
C234 C 0.89806 0.75838 0.41519 0.0
N235 N 0.87934 0.70521 0.38934 0.0
N236 N 0.86575 0.72795 0.42442 0.0
H237 H 0.82945 0.66664 0.40993 0.0
H238 H 0.92975 0.76193 0.38171 0.0
C239 C 0.98272 0.6604 0.35231 0.0
O240 O 0.97288 0.61572 0.34679 0.0
N241 N 0.87625 0.63997 0.3324 0.0
C242 C 0.84489 0.60752 0.32389 0.0
C243 C 0.85214 0.60374 0.30113 0.0
C244 C 0.90011 0.65705 0.31441 0.0
N245 N 0.88666 0.63525 0.29526 0.0
C246 C 0.86642 0.57353 0.37695 0.0
C247 C 0.93875 0.57712 0.40888 0.0
C248 C 0.90796 0.53736 0.40844 0.0
C249 C 0.87228 0.53514 0.39188 0.0
C250 C 0.93244 0.61421 0.39328 0.0
N251 N 0.89636 0.61247 0.37754 0.0
H252 H 0.83522 0.57334 0.3663 0.0
H253 H 0.95453 0.64597 0.39498 0.0
H254 H 0.81551 0.59097 0.33278 0.0
H255 H 0.9252 0.68675 0.31513 0.0
O256 O 0.80888 0.66393 0.36422 0.0
O257 O 0.84396 0.72665 0.34832 0.0
O258 O 0.94812 0.68934 0.35701 0.0
C259 C 0.8041 0.70572 0.35475 0.0
H260 H 0.9152 0.78843 0.42346 0.0
H261 H 0.83111 0.58234 0.28957 0.0
H262 H 0.96628 0.58037 0.42172 0.0
H263 H 0.84685 0.5056 0.3915 0.0
H264 H 0.25638 0.12757 0.01988 0.0
H265 H 0.31264 0.25696 0.05077 0.0
H266 H 0.29012 0.304 0.01722 0.0
H267 H 0.29298 0.15749 0.96234 0.0
H268 H 0.23915 0.13184 0.95032 0.0
H269 H 0.26354 0.10775 0.97604 0.0
H270 H 0.18104 0.12151 -0.0046 0.0
H271 H 0.15651 0.14589 0.96982 0.0
H272 H 0.15441 0.18085 -0.00485 0.0
H273 H 0.25471 0.33799 0.98204 0.0
H274 H 0.21175 0.35626 0.94687 0.0
H275 H 0.18123 0.20402 0.93834 0.0
C276 C 0.26433 0.16569 0.01942 0.0
C277 C 0.28648 0.1886 0.03776 0.0
C278 C 0.29649 0.23856 0.03668 0.0
C279 C 0.28362 0.26561 0.01777 0.0
C280 C 0.26124 0.242 6e-05 0.0
C281 C 0.25209 0.19311 0.00061 0.0
C282 C 0.22606 0.17684 0.9797 0.0
C283 C 0.25731 0.14139 0.96631 0.0
C284 C 0.17657 0.155 0.98537 0.0
C285 C 0.22075 0.22449 0.96763 0.0
C286 C 0.24149 0.26156 0.97958 0.0
C287 C 0.23904 0.30916 0.9723 0.0
C288 C 0.21468 0.31913 0.95223 0.0
C289 C 0.19321 0.28161 0.93964 0.0
C290 C 0.19679 0.23369 0.9475 0.0
H291 H 0.23925 0.7271 0.1938 0.0
H292 H 0.19456 0.58669 0.21694 0.0
H293 H 0.21382 0.60977 0.25597 0.0
H294 H 0.34022 0.72976 0.22363 0.0
H295 H 0.3408 0.79306 0.23019 0.0
H296 H 0.30984 0.77248 0.20559 0.0
H297 H 0.23031 0.8123 0.21885 0.0
H298 H 0.26128 0.83428 0.24335 0.0
H299 H 0.20734 0.79875 0.24633 0.0
H300 H 0.25004 0.64304 0.29086 0.0
H301 H 0.30313 0.68283 0.31875 0.0
H302 H 0.33147 0.79768 0.27157 0.0
C303 C 0.23121 0.70245 0.20734 0.0
C304 C 0.21448 0.65579 0.20282 0.0
C305 C 0.20658 0.62293 0.22049 0.0
C306 C 0.21729 0.63582 0.24257 0.0
C307 C 0.23623 0.68148 0.24646 0.0
C308 C 0.24298 0.71442 0.2293 0.0
C309 C 0.27182 0.75739 0.23702 0.0
C310 C 0.31841 0.76346 0.2233 0.0
C311 C 0.24082 0.8034 0.23636 0.0
C312 C 0.28267 0.74218 0.26077 0.0
C313 C 0.26045 0.69919 0.26618 0.0
C314 C 0.26712 0.67699 0.28693 0.0
C315 C 0.29743 0.6994 0.30252 0.0
C316 C 0.32154 0.74245 0.29688 0.0
C317 C 0.31372 0.76429 0.27592 0.0
H318 H 0.86436 0.80613 0.45145 0.0
H319 H 0.82274 0.65564 0.44808 0.0
H320 H 0.78903 0.66135 0.48617 0.0
H321 H 0.90336 0.80318 0.50857 0.0
H322 H 0.88205 0.86334 0.51416 0.0
H323 H 0.90114 0.84731 0.4864 0.0
H324 H 0.81809 0.87468 0.47052 0.0
H325 H 0.79868 0.8907 0.49823 0.0
H326 H 0.7636 0.8491 0.48181 0.0
H327 H 0.75844 0.68492 0.52466 0.0
H328 H 0.73754 0.72349 0.5608 0.0
H329 H 0.80485 0.85576 0.53876 0.0
C330 C 0.8488 0.77402 0.45865 0.0
C331 C 0.84625 0.73047 0.44665 0.0
C332 C 0.82453 0.6897 0.45676 0.0
C333 C 0.80552 0.69248 0.47845 0.0
C334 C 0.8089 0.73613 0.48975 0.0
C335 C 0.83033 0.776 0.4802 0.0
C336 C 0.83046 0.81854 0.49582 0.0
C337 C 0.88234 0.83397 0.50158 0.0
C338 C 0.80094 0.86072 0.48601 0.0
C339 C 0.80568 0.79648 0.51573 0.0
C340 C 0.79303 0.74907 0.51193 0.0
C341 C 0.76839 0.72192 0.52785 0.0
C342 C 0.75653 0.744 0.54818 0.0
C343 C 0.77001 0.79225 0.55232 0.0
C344 C 0.7949 0.81859 0.53595 0.0
H345 H 0.80349 0.27294 0.70009 0.0
H346 H 0.79391 0.42795 0.70252 0.0
H347 H 0.79115 0.42497 0.74384 0.0
H348 H 0.71642 0.25263 0.73465 0.0
H349 H 0.74019 0.20033 0.74895 0.0
H350 H 0.76056 0.2145 0.72133 0.0
H351 H 0.84915 0.21578 0.73544 0.0
H352 H 0.82888 0.20137 0.76332 0.0
H353 H 0.86561 0.25385 0.7586 0.0
H354 H 0.76843 0.40556 0.78206 0.0
H355 H 0.72218 0.37212 0.81346 0.0
H356 H 0.7405 0.22863 0.78647 0.0
C357 C 0.80334 0.30599 0.70964 0.0
C358 C 0.79957 0.3506 0.69867 0.0
C359 C 0.79726 0.39363 0.71105 0.0
C360 C 0.79621 0.39215 0.73442 0.0
C361 C 0.79723 0.34728 0.74498 0.0
C362 C 0.801 0.3048 0.73297 0.0
C363 C 0.79031 0.26146 0.74752 0.0
C364 C 0.74943 0.23051 0.73752 0.0
C365 C 0.83623 0.23135 0.75146 0.0
C366 C 0.77489 0.28646 0.76877 0.0
C367 C 0.78156 0.33572 0.76735 0.0
C368 C 0.76404 0.36699 0.78361 0.0
C369 C 0.73718 0.34774 0.80122 0.0
C370 C 0.7273 0.29783 0.80217 0.0
C371 C 0.74834 0.26675 0.78633 0.0
H372 H 0.5929 0.04777 0.95214 0.0
H373 H 0.65158 0.1921 0.94874 0.0
H374 H 0.63393 0.20386 0.98866 0.0
H375 H 0.49575 0.07529 0.98551 0.0
H376 H 0.49666 0.02114 0.00222 0.0
H377 H 0.52084 0.02044 0.97435 0.0
H378 H 0.6027 0.98882 0.98969 0.0
H379 H 0.57863 0.98918 0.01768 0.0
H380 H 0.63327 0.02159 0.01151 0.0
H381 H 0.59878 0.20548 0.02599 0.0
H382 H 0.54986 0.19703 0.05942 0.0
H383 H 0.51825 0.04855 0.04139 0.0
C384 C 0.60322 0.08118 0.96007 0.0
C385 C 0.62335 0.11914 0.94743 0.0
C386 C 0.63554 0.16287 0.95811 0.0
C387 C 0.62611 0.16969 0.98081 0.0
C388 C 0.60489 0.13224 -0.00731 0.0
C389 C 0.59392 0.08863 0.98285 0.0
C390 C 0.5671 0.05624 -0.00094 0.0
C391 C 0.51713 0.0425 0.98972 0.0
C392 C 0.59724 0.01129 0.00483 0.0
C393 C 0.56282 0.08946 0.01907 0.0
C394 C 0.5855 0.13277 0.01503 0.0
C395 C 0.58226 0.17116 0.02976 0.0
C396 C 0.55446 0.16561 0.04902 0.0
C397 C 0.5304 0.1216 0.05375 0.0
C398 C 0.53586 0.08272 0.03862 0.0
H399 H 0.33454 0.0267 0.29473 0.0
H400 H 0.4868 0.01417 0.31202 0.0
H401 H 0.50694 0.0667 0.28024 0.0
H402 H 0.35314 1.00921 0.23802 0.0
H403 H 0.30537 0.04894 0.22882 0.0
H404 H 0.30139 0.01947 0.25559 0.0
H405 H 0.29113 0.10206 0.2751 0.0
H406 H 0.29467 0.13188 0.24833 0.0
H407 H 0.33536 0.14853 0.2706 0.0
H408 H 0.51147 0.1143 0.24452 0.0
H409 H 0.50006 0.14942 0.20668 0.0
H410 H 0.34674 0.1208 0.21029 0.0
C411 C 0.37222 0.03493 0.29206 0.0
C412 C 0.40894 0.01593 0.30613 0.0
C413 C 0.45763 0.02886 0.30199 0.0
C414 C 0.46958 0.0585 0.2838 0.0
C415 C 0.43258 0.07455 0.26976 0.0
C416 C 0.38489 0.06302 0.27363 0.0
C417 C 0.35254 0.0796 0.25462 0.0
C418 C 0.32661 0.03675 0.24362 0.0
C419 C 0.31629 0.1178 0.26265 0.0
C420 C 0.38967 0.10126 0.23915 0.0
C421 C 0.43546 0.0991 0.24843 0.0
C422 C 0.47576 0.1164 0.23714 0.0
C423 C 0.46903 0.13619 0.21575 0.0
C424 C 0.42265 0.13737 0.20576 0.0
C425 C 0.38254 0.11985 0.21763 0.0
H426 H 0.42343 0.84823 0.4574 0.0
H427 H 0.40225 1.00194 0.44867 0.0
H428 H 0.44745 0.01684 0.48374 0.0
H429 H 0.41035 0.84624 0.51713 0.0
H430 H 0.45597 0.80055 0.52121 0.0
H431 H 0.42169 0.80248 0.49555 0.0
H432 H 0.50112 0.80706 0.47282 0.0
H433 H 0.53563 0.80517 0.49841 0.0
H434 H 0.54401 0.85397 0.47887 0.0
H435 H 0.49789 0.01451 0.51932 0.0
H436 H 0.54528 0.99453 0.55348 0.0
H437 H 0.5318 0.84255 0.53835 0.0
C438 C 0.42848 0.88503 0.46281 0.0
C439 C 0.40944 0.92393 0.45033 0.0
C440 C 0.41612 0.97158 0.45813 0.0
C441 C 0.44198 0.9804 0.47793 0.0
C442 C 0.46059 0.94113 0.48975 0.0
C443 C 0.45383 0.89439 0.48253 0.0
C444 C 0.47703 0.85839 0.49827 0.0
C445 C 0.43898 0.82496 0.50865 0.0
C446 C 0.51681 0.82946 0.48638 0.0
C447 C 0.49804 0.89215 0.51548 0.0
C448 C 0.48851 0.93976 0.51028 0.0
C449 C 0.50532 0.97733 0.52363 0.0
C450 C 0.53226 0.96574 0.54289 0.0
C451 C 0.54154 0.91708 0.5486 0.0
C452 C 0.52438 0.88005 0.5346 0.0
H453 H 0.65366 0.99606 0.79286 0.0
H454 H 0.50173 0.03175 0.79957 0.0
H455 H 0.4823 0.97492 0.76906 0.0
H456 H 0.65429 1.00028 0.73555 0.0
H457 H 0.69743 0.95225 0.73183 0.0
H458 H 0.69828 0.98721 0.75708 0.0
H459 H 0.68958 0.90948 0.78085 0.0
H460 H 0.68917 0.87407 0.75563 0.0
H461 H 0.6403 0.86893 0.7753 0.0
H462 H 0.48105 0.92182 0.73471 0.0
H463 H 0.49817 0.8791 0.69928 0.0
H464 H 0.65139 0.88437 0.71384 0.0
C465 C 0.61615 0.99157 0.78816 0.0
C466 C 0.57921 0.01855 0.79853 0.0
C467 C 0.53058 1.01104 0.79205 0.0
C468 C 0.51925 0.97897 0.77469 0.0
C469 C 0.55697 0.95473 0.7641 0.0
C470 C 0.60444 0.96061 0.7707 0.0
C471 C 0.63897 0.93513 0.75516 0.0
C472 C 0.67429 0.97086 0.74427 0.0
C473 C 0.66609 0.89448 0.76747 0.0
C474 C 0.60369 0.91528 0.73827 0.0
C475 C 0.55648 0.92593 0.74394 0.0
C476 C 0.51782 0.91281 0.73028 0.0
C477 C 0.52782 0.8886 0.71025 0.0
C478 C 0.57605 0.87873 0.70393 0.0
C479 C 0.61425 0.8918 0.71827 0.0
H480 H 0.09082 0.36818 0.77406 0.0
H481 H 0.11349 0.52254 0.77772 0.0
H482 H 0.07886 0.53208 0.73993 0.0
H483 H 0.1179 0.35479 0.71527 0.0
H484 H 0.07155 0.31051 0.7106 0.0
H485 H 0.09976 0.31534 0.73771 0.0
H486 H 0.0159 0.3272 0.75607 0.0
H487 H 0.98748 0.32198 0.72905 0.0
H488 H 0.97655 0.37444 0.74598 0.0
H489 H 0.03786 0.52559 0.70251 0.0
H490 H 0.99309 0.50296 0.66818 0.0
H491 H 0.99798 0.3531 0.68868 0.0
C492 C 0.0884 0.40401 0.76698 0.0
C493 C 0.10522 0.44456 0.77891 0.0
C494 C 0.10168 0.49078 0.76885 0.0
C495 C 0.08185 0.49663 0.74739 0.0
C496 C 0.06579 0.45592 0.73611 0.0
C497 C 0.06881 0.4105 0.74554 0.0
C498 C 0.04781 0.37282 0.73006 0.0
C499 C 0.08658 0.33621 0.723 0.0
C500 C 1.00436 0.34765 0.74094 0.0
C501 C 0.03221 0.40424 0.71055 0.0
C502 C 0.0429 0.45208 0.71436 0.0
C503 C 0.02976 0.48818 0.69922 0.0
C504 C 1.00442 0.47508 0.67981 0.0
C505 C 0.99287 0.4263 0.67567 0.0
C506 C 1.00752 0.3905 0.69115 0.0
H507 H 0.15044 0.58256 0.92348 0.0
H508 H 0.02688 0.49152 0.93619 0.0
H509 H 0.0155 0.53064 0.97294 0.0
H510 H 0.1997 0.57566 0.9749 0.0
H511 H 0.2205 0.63694 0.97681 0.0
H512 H 0.21307 0.6094 0.94987 0.0
H513 H 0.15529 0.67804 0.93734 0.0
H514 H 0.16326 0.70652 0.96416 0.0
H515 H 0.10343 0.69252 0.9542 0.0
H516 H 0.02891 0.56696 0.01103 0.0
H517 H 0.05927 0.60617 0.04558 0.0
H518 H 0.1715 0.67585 0.00722 0.0
C519 C 0.11981 0.57241 0.93365 0.0
C520 C 0.08919 0.53454 0.92706 0.0
C521 C 0.05006 0.5212 0.94086 0.0
C522 C 0.04357 0.54299 0.96178 0.0
C523 C 0.07597 0.57864 0.96834 0.0
C524 C 0.11256 0.59418 0.95441 0.0
C525 C 0.14503 0.63 0.96603 0.0
C526 C 0.19765 0.61188 0.96696 0.0
C527 C 0.14152 0.67973 0.95476 0.0
C528 C 0.12246 0.63048 0.98901 0.0
C529 C 0.08258 0.60078 0.99006 0.0
C530 C 0.05916 0.59145 0.01025 0.0
C531 C 0.07678 0.6134 0.02977 0.0
C532 C 0.11705 0.64449 0.02884 0.0
C533 C 0.13974 0.65333 0.00817 0.0
H534 H 0.98677 0.58315 0.17354 0.0
H535 H 0.02029 0.73584 0.17007 0.0
H536 H 0.97606 0.74911 0.20487 0.0
H537 H 0.86643 0.59535 0.20091 0.0
H538 H 0.87669 0.54324 0.21839 0.0
H539 H 0.90347 0.54644 0.19098 0.0
H540 H 0.98796 0.53209 0.20859 0.0
H541 H 0.96161 0.52927 0.23602 0.0
H542 H 1.00907 0.57177 0.23031 0.0
H543 H 0.93926 0.7452 0.24242 0.0
H544 H 0.90841 0.72415 0.27983 0.0
H545 H 0.90022 0.5741 0.26046 0.0
C546 C 0.9841 0.61955 0.17981 0.0
C547 C 1.00676 0.65842 0.16863 0.0
C548 C 1.00226 0.70544 0.17767 0.0
C549 C 0.97746 0.71344 0.19767 0.0
C550 C 0.95717 0.67418 0.20859 0.0
C551 C 0.95976 0.62819 0.19994 0.0
C552 C 0.93857 0.59176 0.21611 0.0
C553 C 0.89361 0.56779 0.20599 0.0
C554 C 0.97658 0.55402 0.22317 0.0
C555 C 0.92524 0.62436 0.23545 0.0
C556 C 0.93593 0.67182 0.23061 0.0
C557 C 0.93006 0.70827 0.24631 0.0
C558 C 0.91297 0.69593 0.26757 0.0
C559 C 0.90199 0.64753 0.27299 0.0
C560 C 0.90762 0.61145 0.25658 0.0
H561 H 0.89957 0.55298 0.45322 0.0
H562 H 0.91748 0.43989 0.40414 0.0
H563 H 0.9159 0.37867 0.43445 0.0
H564 H 0.9711 0.4996 0.49752 0.0
H565 H 0.93104 0.51923 0.51939 0.0
H566 H 0.93573 0.55373 0.49392 0.0
H567 H 0.84326 0.54732 0.48811 0.0
H568 H 0.83828 0.51249 0.51347 0.0
H569 H 0.81538 0.48877 0.48749 0.0
H570 H 0.91411 0.33038 0.47028 0.0
H571 H 0.90832 0.298 0.50882 0.0
H572 H 0.88637 0.44239 0.53414 0.0
C573 C 0.90382 0.51532 0.44896 0.0
C574 C 0.90945 0.50089 0.4265 0.0
C575 C 0.91357 0.45138 0.42135 0.0
C576 C 0.91267 0.41654 0.43841 0.0
C577 C 0.90681 0.4319 0.46043 0.0
C578 C 0.90208 0.4801 0.46573 0.0
C579 C 0.89433 0.48702 0.49059 0.0
C580 C 0.93552 0.51664 0.50096 0.0
C581 C 0.84487 0.51027 0.49517 0.0
C582 C 0.89589 0.43519 0.49851 0.0
C583 C 0.90347 0.40398 0.48089 0.0
C584 C 0.90788 0.35445 0.48418 0.0
C585 C 0.9047 0.33639 0.50608 0.0
C586 C 0.89659 0.3677 0.52433 0.0
C587 C 0.89178 0.41766 0.52041 0.0
H588 H 0.20581 0.81727 0.11838 0.0
H589 H 0.33614 0.73055 0.11512 0.0
H590 H 0.38538 0.80419 0.12008 0.0
H591 H 0.25282 0.91912 0.08731 0.0
H592 H 0.22079 0.96306 0.10374 0.0
H593 H 0.19619 0.9036 0.10017 0.0
H594 H 0.1921 0.89323 0.1432 0.0
H595 H 0.21702 0.95251 0.14693 0.0
H596 H 0.24605 0.90112 0.15976 0.0
H597 H 0.41994 0.88699 0.12701 0.0
H598 H 0.4385 0.97287 0.13167 0.0
H599 H 0.28556 1.0074 0.12847 0.0
C600 C 0.24476 0.81372 0.11866 0.0
C601 C 0.26721 0.768 0.11646 0.0
C602 C 0.31821 0.76508 0.11671 0.0
C603 C 0.34639 0.80673 0.11962 0.0
C604 C 0.32305 0.85114 0.12198 0.0
C605 C 0.27337 0.85498 0.12121 0.0
C606 C 0.25723 0.90713 0.12355 0.0
C607 C 0.23016 0.92423 0.10243 0.0
C608 C 0.22627 0.91388 0.14461 0.0
C609 C 0.30561 0.93219 0.12592 0.0
C610 C 0.343 0.89906 0.12518 0.0
C611 C 0.39092 0.91317 0.12745 0.0
C612 C 0.40103 0.96227 0.1302 0.0
C613 C 0.36356 0.99732 0.13046 0.0
C614 C 0.31509 0.98175 0.12836 0.0
H615 H 0.71723 0.66309 0.36219 0.0
H616 H 0.78145 0.80113 0.34626 0.0
H617 H 0.70101 0.84009 0.34996 0.0
H618 H 0.60292 0.68299 0.3331 0.0
H619 H 0.56895 0.65101 0.35404 0.0
H620 H 0.63088 0.63477 0.3488 0.0
H621 H 0.65081 0.64718 0.39078 0.0
H622 H 0.58914 0.66414 0.39611 0.0
H623 H 0.63749 0.70428 0.40367 0.0
H624 H 0.61274 0.86403 0.35781 0.0
H625 H 0.52543 0.86982 0.36606 0.0
H626 H 0.52078 0.71527 0.37675 0.0
C627 C 0.71444 0.70147 0.35914 0.0
C628 C 0.75572 0.72907 0.35384 0.0
C629 C 0.75032 0.77919 0.35011 0.0
C630 C 0.70479 0.80161 0.35232 0.0
C631 C 0.66504 0.77335 0.35815 0.0
C632 C 0.66952 0.72421 0.36122 0.0
C633 C 0.62181 0.70167 0.36768 0.0
C634 C 0.60516 0.66548 0.34984 0.0
C635 C 0.62503 0.67793 0.39094 0.0
C636 C 0.58955 0.74577 0.36801 0.0
C637 C 0.615 0.78687 0.36252 0.0
C638 C 0.59259 0.83196 0.36201 0.0
C639 C 0.54294 0.83492 0.36686 0.0
C640 C 0.51601 0.79304 0.37213 0.0
C641 C 0.54009 0.74805 0.37284 0.0
H642 H 0.6463 0.03806 0.62719 0.0
H643 H 0.7744 0.95372 0.64294 0.0
H644 H 0.82503 0.0253 0.63637 0.0
H645 H 0.69781 0.1064 0.58284 0.0
H646 H 0.66695 0.16168 0.58963 0.0
H647 H 0.64002 0.10464 0.59659 0.0
H648 H 0.63382 0.13006 0.63814 0.0
H649 H 0.66007 0.18745 0.63125 0.0
H650 H 0.68718 0.15022 0.65267 0.0
H651 H 0.86206 0.10511 0.62732 0.0
H652 H 0.88305 0.18916 0.61843 0.0
H653 H 0.73154 0.22265 0.6077 0.0
C654 C 0.68493 0.03477 0.62963 0.0
C655 C 0.70629 0.99007 0.6357 0.0
C656 C 0.7571 0.98738 0.63835 0.0
C657 C 0.7862 0.02788 0.63459 0.0
C658 C 0.76411 0.07096 0.62812 0.0
C659 C 0.71462 0.07486 0.62583 0.0
C660 C 0.70017 0.12535 0.61842 0.0
C661 C 0.67473 0.12444 0.59551 0.0
C662 C 0.66844 0.14971 0.63618 0.0
C663 C 0.74931 0.14922 0.61687 0.0
C664 C 0.78561 0.11704 0.62255 0.0
C665 C 0.83395 0.13057 0.62283 0.0
C666 C 0.84551 0.17844 0.61769 0.0
C667 C 0.80904 0.21245 0.61219 0.0
C668 C 0.7603 0.19733 0.61146 0.0
H669 H 0.49681 0.28939 0.86919 0.0
H670 H 0.4735 0.14676 0.84223 0.0
H671 H 0.38592 0.16287 0.8397 0.0
H672 H 0.38084 0.29722 0.90128 0.0
H673 H 0.37321 0.36016 0.89467 0.0
H674 H 0.43301 0.33485 0.89721 0.0
H675 H 0.45289 0.36623 0.85744 0.0
H676 H 0.39287 0.39062 0.85456 0.0
H677 H 0.41536 0.34855 0.83418 0.0
H678 H 0.30246 0.1972 0.83619 0.0
H679 H 0.22697 0.24507 0.83558 0.0
H680 H 0.30387 0.36601 0.8644 0.0
C681 C 0.47283 0.26104 0.86368 0.0
C682 C 0.49142 0.21638 0.85646 0.0
C683 C 0.45952 0.18076 0.84831 0.0
C684 C 0.40983 0.18971 0.84667 0.0
C685 C 0.39257 0.23466 0.85313 0.0
C686 C 0.42288 0.26956 0.86181 0.0
C687 C 0.39522 0.31578 0.86624 0.0
C688 C 0.39559 0.32769 0.89135 0.0
C689 C 0.4153 0.35776 0.85227 0.0
C690 C 0.34511 0.30161 0.85833 0.0
C691 C 0.34436 0.25467 0.85085 0.0
C692 C 0.30245 0.2339 0.84221 0.0
C693 C 0.25983 0.26148 0.84175 0.0
C694 C 0.25946 0.30929 0.84985 0.0
C695 C 0.30293 0.32958 0.85801 0.0
H696 H 0.85518 0.54129 0.5997 0.0
H697 H 0.72744 0.45141 0.60321 0.0
H698 H 0.67979 0.52117 0.61594 0.0
H699 H 0.83239 0.61099 0.64802 0.0
H700 H 0.8534 0.66707 0.63638 0.0
H701 H 0.87778 0.61084 0.62649 0.0
H702 H 0.85367 0.63306 0.5858 0.0
H703 H 0.82998 0.68977 0.59544 0.0
H704 H 0.79205 0.64966 0.57961 0.0
H705 H 0.64596 0.59996 0.62876 0.0
H706 H 0.62657 0.68481 0.63748 0.0
H707 H 0.77597 0.72394 0.6268 0.0
C708 C 0.817 0.53641 0.60275 0.0
C709 C 0.79517 0.49058 0.6005 0.0
C710 C 0.74515 0.4859 0.60488 0.0
C711 C 0.71775 0.52534 0.61221 0.0
C712 C 0.74074 0.56946 0.61502 0.0
C713 C 0.78902 0.5755 0.61009 0.0
C714 C 0.8047 0.62704 0.61438 0.0
C715 C 0.84442 0.62907 0.63239 0.0
C716 C 0.82106 0.65131 0.59251 0.0
C717 C 0.75782 0.64881 0.62277 0.0
C718 C 0.7214 0.61487 0.62295 0.0
C719 C 0.67426 0.62671 0.62891 0.0
C720 C 0.66366 0.67481 0.63404 0.0
C721 C 0.70008 0.71035 0.63353 0.0
C722 C 0.74796 0.697 0.62825 0.0
H723 H 0.76018 0.28422 0.89151 0.0
H724 H 0.79634 0.14833 0.85967 0.0
H725 H 0.87878 0.17608 0.85355 0.0
H726 H 0.83186 0.36025 0.85748 0.0
H727 H 0.85369 0.39828 0.87968 0.0
H728 H 0.79617 0.36873 0.88232 0.0
H729 H 0.82365 0.32894 0.91953 0.0
H730 H 0.88082 0.35931 0.91731 0.0
H731 H 0.8791 0.29474 0.92033 0.0
H732 H 0.95397 0.22042 0.84641 0.0
H733 H 0.02627 0.27207 0.84761 0.0
H734 H 0.94841 0.37576 0.88803 0.0
C735 C 0.7858 0.25999 0.88377 0.0
C736 C 0.77124 0.2143 0.87583 0.0
C737 C 0.80605 0.18373 0.86572 0.0
C738 C 0.85318 0.19918 0.86199 0.0
C739 C 0.86585 0.24497 0.86898 0.0
C740 C 0.83404 0.27441 0.8804 0.0
C741 C 0.85872 0.32113 0.88697 0.0
C742 C 0.8336 0.36467 0.87595 0.0
C743 C 0.8607 0.32632 0.91255 0.0
C744 C 0.90879 0.31307 0.87723 0.0
C745 C 0.91143 0.26935 0.86642 0.0
C746 C 0.95281 0.25446 0.85514 0.0
C747 C 0.99351 0.28421 0.8557 0.0
C748 C 0.99285 0.32763 0.86795 0.0
C749 C 0.94974 0.34256 0.87859 0.0
H750 H 0.30783 0.50478 0.08925 0.0
H751 H 0.15933 0.50392 0.11215 0.0
H752 H 0.16692 0.41754 0.12149 0.0
H753 H 0.30683 0.38368 0.06489 0.0
H754 H 0.36809 0.37133 0.07349 0.0
H755 H 0.34952 0.43224 0.06744 0.0
H756 H 0.37875 0.45827 0.10685 0.0
H757 H 0.39667 0.39732 0.11312 0.0
H758 H 0.35508 0.4283 0.13124 0.0
H759 H 0.19277 0.3306 0.13035 0.0
H760 H 0.23313 0.25121 0.13529 0.0
H761 H 0.36396 0.31022 0.10667 0.0
C762 C 0.27657 0.48635 0.09585 0.0
C763 C 0.23293 0.51149 0.09988 0.0
C764 C 0.19317 0.48573 0.10881 0.0
C765 C 0.19716 0.43653 0.11426 0.0
C766 C 0.24108 0.41319 0.11063 0.0
C767 C 0.27989 0.43722 0.10137 0.0
C768 C 0.32341 0.40426 0.09949 0.0
C769 C 0.33779 0.39748 0.07487 0.0
C770 C 0.36598 0.42318 0.11351 0.0
C771 C 0.30329 0.35817 0.10934 0.0
C772 C 0.25575 0.3638 0.11569 0.0
C773 C 0.22998 0.32585 0.12534 0.0
C774 C 0.25322 0.28093 0.12822 0.0
C775 C 0.30174 0.27435 0.12148 0.0
C776 C 0.32686 0.31385 0.11209 0.0
H777 H 0.2069 0.83529 0.37565 0.0
H778 H 0.29405 0.70752 0.38729 0.0
H779 H 0.22162 0.65678 0.38201 0.0
H780 H 0.09598 0.79002 0.40349 0.0
H781 H 0.05696 0.81936 0.3834 0.0
H782 H 0.11468 0.84531 0.39027 0.0
H783 H 0.13725 0.84515 0.34826 0.0
H784 H 0.08008 0.81835 0.34127 0.0
H785 H 0.13547 0.78942 0.3329 0.0
H786 H 0.14192 0.61996 0.37072 0.0
H787 H 0.05875 0.59951 0.35957 0.0
H788 H 0.02186 0.75146 0.35686 0.0
C789 C 0.21049 0.79669 0.37773 0.0
C790 C 0.25612 0.77534 0.38208 0.0
C791 C 0.25942 0.7247 0.38436 0.0
C792 C 0.21851 0.69559 0.38117 0.0
C793 C 0.17443 0.71775 0.37607 0.0
C794 C 0.16994 0.76722 0.37488 0.0
C795 C 0.11877 0.78202 0.3686 0.0
C796 C 0.09521 0.81088 0.38757 0.0
C797 C 0.11787 0.81041 0.34644 0.0
C798 C 0.09531 0.73311 0.36595 0.0
C799 C 0.12818 0.69654 0.37019 0.0
C800 C 0.11576 0.64832 0.3677 0.0
C801 C 0.0684 0.6371 0.36115 0.0
C802 C 0.03358 0.67385 0.35733 0.0
C803 C 0.04748 0.72253 0.35975 0.0
loop_
_geom_bond_atom_site_label_1
_geom_bond_atom_site_label_2
_geom_bond_distance
_geom_bond_site_symmetry_2
_ccdc_geom_bond_type
Co0 N4 2.148 . S
Co0 N10 2.128 . S
Co0 N20 2.194 . S
Co0 O25 2.351 . S
Co0 O26 2.155 . S
Co0 O27 2.096 . S
C1 N4 1.301 . S
C1 N5 1.328 . S
C1 H6 0.930 . S
C2 C3 1.333 . S
C2 N4 1.317 . S
C2 H7 0.930 . S
C3 C2 1.333 . S
C3 N5 1.350 . S
C3 H29 0.931 . S
N4 Co0 2.148 . S
N4 C1 1.301 . S
N4 C2 1.317 . S
N5 C1 1.328 . S
N5 C3 1.350 . S
H6 C1 0.930 . S
H7 C2 0.930 . S
C8 O9 1.224 . S
C8 O27 1.247 . S
O9 C8 1.224 . S
N10 Co0 2.128 . S
N10 C11 1.355 . S
N10 C13 1.311 . S
C11 N10 1.355 . S
C11 C12 1.363 . S
C11 H23 0.929 . S
C12 C11 1.363 . S
C12 N14 1.375 . S
C12 H30 0.931 . S
C13 N10 1.311 . S
C13 N14 1.347 . S
C13 H24 0.929 . S
N14 C12 1.375 . S
N14 C13 1.347 . S
C15 C18 1.365 . S
C15 N20 1.328 . S
C15 H21 0.929 . S
C16 C17 1.362 . S
C16 C19 1.378 . S
C16 H31 0.929 . S
C17 C16 1.362 . S
C17 C18 1.366 . S
C18 C15 1.365 . S
C18 C17 1.366 . S
C18 H32 0.930 . S
C19 C16 1.378 . S
C19 N20 1.315 . S
C19 H22 0.930 . S
N20 Co0 2.194 . S
N20 C15 1.328 . S
N20 C19 1.315 . S
H21 C15 0.929 . S
H22 C19 0.930 . S
H23 C11 0.929 . S
H24 C13 0.929 . S
O25 Co0 2.351 . S
O25 C28 1.244 . S
O26 Co0 2.155 . S
O26 C28 1.240 . S
O27 Co0 2.096 . S
O27 C8 1.247 . S
C28 O25 1.244 . S
C28 O26 1.240 . S
H29 C3 0.931 . S
H30 C12 0.931 . S
H31 C16 0.929 . S
H32 C18 0.930 . S
Co33 N37 2.148 . S
Co33 N43 2.128 . S
Co33 N53 2.194 . S
Co33 O58 2.351 . S
Co33 O59 2.155 . S
Co33 O60 2.096 . S
C34 N37 1.301 . S
C34 N38 1.328 . S
C34 H39 0.930 . S
C35 C36 1.333 . S
C35 N37 1.317 . S
C35 H40 0.930 . S
C36 C35 1.333 . S
C36 N38 1.350 . S
C36 H62 0.931 . S
N37 Co33 2.148 . S
N37 C34 1.301 . S
N37 C35 1.317 . S
N38 C34 1.328 . S
N38 C36 1.350 . S
H39 C34 0.930 . S
H40 C35 0.930 . S
C41 O42 1.224 . S
C41 O60 1.247 . S
O42 C41 1.224 . S
N43 Co33 2.128 . S
N43 C44 1.355 . S
N43 C46 1.311 . S
C44 N43 1.355 . S
C44 C45 1.363 . S
C44 H56 0.929 . S
C45 C44 1.363 . S
C45 N47 1.375 . S
C45 H63 0.931 1_565 S
C46 N43 1.311 . S
C46 N47 1.347 . S
C46 H57 0.929 . S
N47 C45 1.375 . S
N47 C46 1.347 . S
C48 C51 1.365 1_565 S
C48 N53 1.328 . S
C48 H54 0.929 . S
C49 C50 1.362 1_565 S
C49 C52 1.378 . S
C49 H64 0.929 1_565 S
C50 C49 1.362 1_545 S
C50 C51 1.366 . S
C51 C48 1.365 1_545 S
C51 C50 1.366 . S
C51 H65 0.930 . S
C52 C49 1.378 . S
C52 N53 1.315 . S
C52 H55 0.930 . S
N53 Co33 2.194 . S
N53 C48 1.328 . S
N53 C52 1.315 . S
H54 C48 0.929 . S
H55 C52 0.930 . S
H56 C44 0.929 . S
H57 C46 0.929 . S
O58 Co33 2.351 . S
O58 C61 1.244 . S
O59 Co33 2.155 . S
O59 C61 1.240 . S
O60 Co33 2.096 . S
O60 C41 1.247 . S
C61 O58 1.244 . S
C61 O59 1.240 . S
H62 C36 0.931 . S
H63 C45 0.931 1_545 S
H64 C49 0.929 1_545 S
H65 C51 0.930 . S
Co66 N70 2.148 . S
Co66 N76 2.128 . S
Co66 N86 2.194 . S
Co66 O91 2.351 . S
Co66 O92 2.155 . S
Co66 O93 2.096 . S
C67 N70 1.301 . S
C67 N71 1.328 . S
C67 H72 0.930 . S
C68 C69 1.333 . S
C68 N70 1.317 . S
C68 H73 0.930 . S
C69 C68 1.333 . S
C69 N71 1.350 . S
C69 H95 0.931 . S
N70 Co66 2.148 . S
N70 C67 1.301 . S
N70 C68 1.317 . S
N71 C67 1.328 . S
N71 C69 1.350 . S
H72 C67 0.930 . S
H73 C68 0.930 . S
C74 O75 1.224 . S
C74 O93 1.247 . S
O75 C74 1.224 . S
N76 Co66 2.128 . S
N76 C77 1.355 . S
N76 C79 1.311 . S
C77 N76 1.355 . S
C77 C78 1.363 . S
C77 H89 0.929 . S
C78 C77 1.363 . S
C78 N80 1.375 . S
C78 H96 0.931 . S
C79 N76 1.311 . S
C79 N80 1.347 . S
C79 H90 0.929 . S
N80 C78 1.375 . S
N80 C79 1.347 . S
C81 C84 1.365 . S
C81 N86 1.328 . S
C81 H87 0.929 . S
C82 C83 1.362 . S
C82 C85 1.378 . S
C82 H97 0.929 . S
C83 C82 1.362 . S
C83 C84 1.366 . S
C84 C81 1.365 . S
C84 C83 1.366 . S
C84 H98 0.930 . S
C85 C82 1.378 . S
C85 N86 1.315 . S
C85 H88 0.930 . S
N86 Co66 2.194 . S
N86 C81 1.328 . S
N86 C85 1.315 . S
H87 C81 0.929 . S
H88 C85 0.930 . S
H89 C77 0.929 . S
H90 C79 0.929 . S
O91 Co66 2.351 . S
O91 C94 1.244 . S
O92 Co66 2.155 . S
O92 C94 1.240 . S
O93 Co66 2.096 . S
O93 C74 1.247 . S
C94 O91 1.244 . S
C94 O92 1.240 . S
H95 C69 0.931 . S
H96 C78 0.931 . S
H97 C82 0.929 . S
H98 C84 0.930 . S
Co99 N103 2.148 . S
Co99 N109 2.128 . S
Co99 N119 2.194 . S
Co99 O124 2.351 . S
Co99 O125 2.155 . S
Co99 O126 2.096 . S
C100 N103 1.301 . S
C100 N104 1.328 . S
C100 H105 0.930 . S
C101 C102 1.333 . S
C101 N103 1.317 . S
C101 H106 0.930 . S
C102 C101 1.333 . S
C102 N104 1.350 . S
C102 H128 0.931 . S
N103 Co99 2.148 . S
N103 C100 1.301 . S
N103 C101 1.317 . S
N104 C100 1.328 . S
N104 C102 1.350 . S
H105 C100 0.930 . S
H106 C101 0.930 . S
C107 O108 1.224 . S
C107 O126 1.247 . S
O108 C107 1.224 . S
N109 Co99 2.128 . S
N109 C110 1.355 . S
N109 C112 1.311 . S
C110 N109 1.355 . S
C110 C111 1.363 . S
C110 H122 0.929 . S
C111 C110 1.363 . S
C111 N113 1.375 . S
C111 H129 0.931 1_545 S
C112 N109 1.311 . S
C112 N113 1.347 . S
C112 H123 0.929 . S
N113 C111 1.375 . S
N113 C112 1.347 . S
C114 C117 1.365 1_545 S
C114 N119 1.328 . S
C114 H120 0.929 . S
C115 C116 1.362 1_545 S
C115 C118 1.378 . S
C115 H130 0.929 1_545 S
C116 C115 1.362 1_565 S
C116 C117 1.366 . S
C117 C114 1.365 1_565 S
C117 C116 1.366 . S
C117 H131 0.930 . S
C118 C115 1.378 . S
C118 N119 1.315 . S
C118 H121 0.930 . S
N119 Co99 2.194 . S
N119 C114 1.328 . S
N119 C118 1.315 . S
H120 C114 0.929 . S
H121 C118 0.930 . S
H122 C110 0.929 . S
H123 C112 0.929 . S
O124 Co99 2.351 . S
O124 C127 1.244 . S
O125 Co99 2.155 . S
O125 C127 1.240 . S
O126 Co99 2.096 . S
O126 C107 1.247 . S
C127 O124 1.244 . S
C127 O125 1.240 . S
H128 C102 0.931 . S
H129 C111 0.931 1_565 S
H130 C115 0.929 1_565 S
H131 C117 0.930 . S
Co132 N136 2.148 . S
Co132 N142 2.128 . S
Co132 N152 2.194 . S
Co132 O157 2.351 . S
Co132 O158 2.155 . S
Co132 O159 2.096 . S
C133 N136 1.301 . S
C133 N137 1.328 . S
C133 H138 0.930 . S
C134 C135 1.333 . S
C134 N136 1.317 . S
C134 H139 0.930 . S
C135 C134 1.333 . S
C135 N137 1.350 . S
C135 H161 0.931 . S
N136 Co132 2.148 . S
N136 C133 1.301 . S
N136 C134 1.317 . S
N137 C133 1.328 . S
N137 C135 1.350 . S
H138 C133 0.930 . S
H139 C134 0.930 . S
C140 O141 1.224 . S
C140 O159 1.247 . S
O141 C140 1.224 . S
N142 Co132 2.128 . S
N142 C143 1.355 . S
N142 C145 1.311 . S
C143 N142 1.355 . S
C143 C144 1.363 . S
C143 H155 0.929 . S
C144 C143 1.363 . S
C144 N146 1.375 . S
C144 H162 0.931 1_655 S
C145 N142 1.311 . S
C145 N146 1.347 . S
C145 H156 0.929 . S
N146 C144 1.375 . S
N146 C145 1.347 . S
C147 C150 1.365 1_655 S
C147 N152 1.328 . S
C147 H153 0.929 . S
C148 C149 1.362 1_655 S
C148 C151 1.378 . S
C148 H163 0.929 1_655 S
C149 C148 1.362 1_455 S
C149 C150 1.366 . S
C150 C147 1.365 1_455 S
C150 C149 1.366 . S
C150 H164 0.930 . S
C151 C148 1.378 . S
C151 N152 1.315 . S
C151 H154 0.930 . S
N152 Co132 2.194 . S
N152 C147 1.328 . S
N152 C151 1.315 . S
H153 C147 0.929 . S
H154 C151 0.930 . S
H155 C143 0.929 . S
H156 C145 0.929 . S
O157 Co132 2.351 . S
O157 C160 1.244 . S
O158 Co132 2.155 . S
O158 C160 1.240 . S
O159 Co132 2.096 . S
O159 C140 1.247 . S
C160 O157 1.244 . S
C160 O158 1.240 . S
H161 C135 0.931 . S
H162 C144 0.931 1_455 S
H163 C148 0.929 1_455 S
H164 C150 0.930 . S
Co165 N169 2.148 . S
Co165 N175 2.128 . S
Co165 N185 2.194 . S
Co165 O190 2.351 . S
Co165 O191 2.155 . S
Co165 O192 2.096 . S
C166 N169 1.301 . S
C166 N170 1.328 . S
C166 H171 0.930 . S
C167 C168 1.333 . S
C167 N169 1.317 . S
C167 H172 0.930 . S
C168 C167 1.333 . S
C168 N170 1.350 . S
C168 H194 0.931 . S
N169 Co165 2.148 . S
N169 C166 1.301 . S
N169 C167 1.317 . S
N170 C166 1.328 . S
N170 C168 1.350 . S
H171 C166 0.930 . S
H172 C167 0.930 . S
C173 O174 1.224 . S
C173 O192 1.247 . S
O174 C173 1.224 . S
N175 Co165 2.128 . S
N175 C176 1.355 . S
N175 C178 1.311 . S
C176 N175 1.355 . S
C176 C177 1.363 . S
C176 H188 0.929 . S
C177 C176 1.363 . S
C177 N179 1.375 . S
C177 H195 0.931 . S
C178 N175 1.311 . S
C178 N179 1.347 . S
C178 H189 0.929 . S
N179 C177 1.375 . S
N179 C178 1.347 . S
C180 C183 1.365 . S
C180 N185 1.328 . S
C180 H186 0.929 . S
C181 C182 1.362 . S
C181 C184 1.378 . S
C181 H196 0.929 . S
C182 C181 1.362 . S
C182 C183 1.366 . S
C183 C180 1.365 . S
C183 C182 1.366 . S
C183 H197 0.930 . S
C184 C181 1.378 . S
C184 N185 1.315 . S
C184 H187 0.930 . S
N185 Co165 2.194 . S
N185 C180 1.328 . S
N185 C184 1.315 . S
H186 C180 0.929 . S
H187 C184 0.930 . S
H188 C176 0.929 . S
H189 C178 0.929 . S
O190 Co165 2.351 . S
O190 C193 1.244 . S
O191 Co165 2.155 . S
O191 C193 1.240 . S
O192 Co165 2.096 . S
O192 C173 1.247 . S
C193 O190 1.244 . S
C193 O191 1.240 . S
H194 C168 0.931 . S
H195 C177 0.931 . S
H196 C181 0.929 . S
H197 C183 0.930 . S
Co198 N202 2.148 . S
Co198 N208 2.128 . S
Co198 N218 2.194 . S
Co198 O223 2.351 . S
Co198 O224 2.155 . S
Co198 O225 2.096 . S
C199 N202 1.301 . S
C199 N203 1.328 . S
C199 H204 0.930 . S
C200 C201 1.333 . S
C200 N202 1.317 . S
C200 H205 0.930 . S
C201 C200 1.333 . S
C201 N203 1.350 . S
C201 H227 0.931 . S
N202 Co198 2.148 . S
N202 C199 1.301 . S
N202 C200 1.317 . S
N203 C199 1.328 . S
N203 C201 1.350 . S
H204 C199 0.930 . S
H205 C200 0.930 . S
C206 O207 1.224 . S
C206 O225 1.247 . S
O207 C206 1.224 . S
N208 Co198 2.128 . S
N208 C209 1.355 . S
N208 C211 1.311 . S
C209 N208 1.355 . S
C209 C210 1.363 . S
C209 H221 0.929 . S
C210 C209 1.363 . S
C210 N212 1.375 . S
C210 H228 0.931 1_455 S
C211 N208 1.311 . S
C211 N212 1.347 . S
C211 H222 0.929 . S
N212 C210 1.375 . S
N212 C211 1.347 . S
C213 C216 1.365 1_455 S
C213 N218 1.328 . S
C213 H219 0.929 . S
C214 C215 1.362 1_455 S
C214 C217 1.378 . S
C214 H229 0.929 1_455 S
C215 C214 1.362 1_655 S
C215 C216 1.366 . S
C216 C213 1.365 1_655 S
C216 C215 1.366 . S
C216 H230 0.930 . S
C217 C214 1.378 . S
C217 N218 1.315 . S
C217 H220 0.930 . S
N218 Co198 2.194 . S
N218 C213 1.328 . S
N218 C217 1.315 . S
H219 C213 0.929 . S
H220 C217 0.930 . S
H221 C209 0.929 . S
H222 C211 0.929 . S
O223 Co198 2.351 . S
O223 C226 1.244 . S
O224 Co198 2.155 . S
O224 C226 1.240 . S
O225 Co198 2.096 . S
O225 C206 1.247 . S
C226 O223 1.244 . S
C226 O224 1.240 . S
H227 C201 0.931 . S
H228 C210 0.931 1_655 S
H229 C214 0.929 1_655 S
H230 C216 0.930 . S
Co231 N235 2.148 . S
Co231 N241 2.128 . S
Co231 N251 2.194 . S
Co231 O256 2.351 . S
Co231 O257 2.155 . S
Co231 O258 2.096 . S
C232 N235 1.301 . S
C232 N236 1.328 . S
C232 H237 0.930 . S
C233 C234 1.333 . S
C233 N235 1.317 . S
C233 H238 0.930 . S
C234 C233 1.333 . S
C234 N236 1.350 . S
C234 H260 0.931 . S
N235 Co231 2.148 . S
N235 C232 1.301 . S
N235 C233 1.317 . S
N236 C232 1.328 . S
N236 C234 1.350 . S
H237 C232 0.930 . S
H238 C233 0.930 . S
C239 O240 1.224 . S
C239 O258 1.247 . S
O240 C239 1.224 . S
N241 Co231 2.128 . S
N241 C242 1.355 . S
N241 C244 1.311 . S
C242 N241 1.355 . S
C242 C243 1.363 . S
C242 H254 0.929 . S
C243 C242 1.363 . S
C243 N245 1.375 . S
C243 H261 0.931 . S
C244 N241 1.311 . S
C244 N245 1.347 . S
C244 H255 0.929 . S
N245 C243 1.375 . S
N245 C244 1.347 . S
C246 C249 1.365 . S
C246 N251 1.328 . S
C246 H252 0.929 . S
C247 C248 1.362 . S
C247 C250 1.378 . S
C247 H262 0.929 . S
C248 C247 1.362 . S
C248 C249 1.366 . S
C249 C246 1.365 . S
C249 C248 1.366 . S
C249 H263 0.930 . S
C250 C247 1.378 . S
C250 N251 1.315 . S
C250 H253 0.930 . S
N251 Co231 2.194 . S
N251 C246 1.328 . S
N251 C250 1.315 . S
H252 C246 0.929 . S
H253 C250 0.930 . S
H254 C242 0.929 . S
H255 C244 0.929 . S
O256 Co231 2.351 . S
O256 C259 1.244 . S
O257 Co231 2.155 . S
O257 C259 1.240 . S
O258 Co231 2.096 . S
O258 C239 1.247 . S
C259 O256 1.244 . S
C259 O257 1.240 . S
H260 C234 0.931 . S
H261 C243 0.931 . S
H262 C247 0.929 . S
H263 C249 0.930 . S
H264 C276 0.930 . S
H265 C278 0.930 . S
H266 C279 0.930 . S
H267 C283 0.959 . S
H268 C283 0.959 . S
H269 C283 0.961 . S
H270 C284 0.960 . S
H271 C284 0.961 . S
H272 C284 0.959 . S
H273 C287 0.929 1_554 S
H274 C288 0.931 . S
H275 C290 0.930 . S
C276 H264 0.930 . S
C276 C277 1.399 . S
C276 C281 1.399 . S
C277 C276 1.399 . S
C277 C278 1.376 . S
C278 H265 0.930 . S
C278 C277 1.376 . S
C278 C279 1.388 . S
C279 H266 0.930 . S
C279 C278 1.388 . S
C279 C280 1.390 . S
C280 C279 1.390 . S
C280 C281 1.394 . S
C280 C286 1.465 1_554 S
C281 C276 1.399 . S
C281 C280 1.394 . S
C281 C282 1.516 1_554 S
C282 C281 1.516 1_556 S
C282 C283 1.502 . S
C282 C284 1.561 . S
C282 C285 1.526 . S
C283 H267 0.959 . S
C283 H268 0.959 . S
C283 H269 0.961 . S
C283 C282 1.502 . S
C284 H270 0.960 . S
C284 H271 0.961 . S
C284 H272 0.959 . S
C284 C282 1.561 . S
C285 C282 1.526 . S
C285 C286 1.396 . S
C285 C290 1.390 . S
C286 C280 1.465 1_556 S
C286 C285 1.396 . S
C286 C287 1.399 . S
C287 H273 0.929 1_556 S
C287 C286 1.399 . S
C287 C288 1.385 . S
C288 H274 0.931 . S
C288 C287 1.385 . S
C288 C289 1.389 . S
C289 C288 1.389 . S
C289 C290 1.387 . S
C290 H275 0.930 . S
C290 C285 1.390 . S
C290 C289 1.387 . S
H291 C303 0.930 . S
H292 C305 0.930 . S
H293 C306 0.930 . S
H294 C310 0.959 . S
H295 C310 0.959 . S
H296 C310 0.961 . S
H297 C311 0.960 . S
H298 C311 0.961 . S
H299 C311 0.959 . S
H300 C314 0.929 . S
H301 C315 0.931 . S
H302 C317 0.930 . S
C303 H291 0.930 . S
C303 C304 1.399 . S
C303 C308 1.399 . S
C304 C303 1.399 . S
C304 C305 1.376 . S
C305 H292 0.930 . S
C305 C304 1.376 . S
C305 C306 1.388 . S
C306 H293 0.930 . S
C306 C305 1.388 . S
C306 C307 1.390 . S
C307 C306 1.390 . S
C307 C308 1.394 . S
C307 C313 1.465 . S
C308 C303 1.399 . S
C308 C307 1.394 . S
C308 C309 1.516 . S
C309 C308 1.516 . S
C309 C310 1.502 . S
C309 C311 1.561 . S
C309 C312 1.526 . S
C310 H294 0.959 . S
C310 H295 0.959 . S
C310 H296 0.961 . S
C310 C309 1.502 . S
C311 H297 0.960 . S
C311 H298 0.961 . S
C311 H299 0.959 . S
C311 C309 1.561 . S
C312 C309 1.526 . S
C312 C313 1.396 . S
C312 C317 1.390 . S
C313 C307 1.465 . S
C313 C312 1.396 . S
C313 C314 1.399 . S
C314 H300 0.929 . S
C314 C313 1.399 . S
C314 C315 1.385 . S
C315 H301 0.931 . S
C315 C314 1.385 . S
C315 C316 1.389 . S
C316 C315 1.389 . S
C316 C317 1.387 . S
C317 H302 0.930 . S
C317 C312 1.390 . S
C317 C316 1.387 . S
H318 C330 0.930 . S
H319 C332 0.930 . S
H320 C333 0.930 . S
H321 C337 0.959 . S
H322 C337 0.959 . S
H323 C337 0.961 . S
H324 C338 0.960 . S
H325 C338 0.961 . S
H326 C338 0.959 . S
H327 C341 0.929 . S
H328 C342 0.931 . S
H329 C344 0.930 . S
C330 H318 0.930 . S
C330 C331 1.399 . S
C330 C335 1.399 . S
C331 C330 1.399 . S
C331 C332 1.376 . S
C332 H319 0.930 . S
C332 C331 1.376 . S
C332 C333 1.388 . S
C333 H320 0.930 . S
C333 C332 1.388 . S
C333 C334 1.390 . S
C334 C333 1.390 . S
C334 C335 1.394 . S
C334 C340 1.465 . S
C335 C330 1.399 . S
C335 C334 1.394 . S
C335 C336 1.516 . S
C336 C335 1.516 . S
C336 C337 1.502 . S
C336 C338 1.561 . S
C336 C339 1.526 . S
C337 H321 0.959 . S
C337 H322 0.959 . S
C337 H323 0.961 . S
C337 C336 1.502 . S
C338 H324 0.960 . S
C338 H325 0.961 . S
C338 H326 0.959 . S
C338 C336 1.561 . S
C339 C336 1.526 . S
C339 C340 1.396 . S
C339 C344 1.390 . S
C340 C334 1.465 . S
C340 C339 1.396 . S
C340 C341 1.399 . S
C341 H327 0.929 . S
C341 C340 1.399 . S
C341 C342 1.385 . S
C342 H328 0.931 . S
C342 C341 1.385 . S
C342 C343 1.389 . S
C343 C342 1.389 . S
C343 C344 1.387 . S
C344 H329 0.930 . S
C344 C339 1.390 . S
C344 C343 1.387 . S
H345 C357 0.930 . S
H346 C359 0.930 . S
H347 C360 0.930 . S
H348 C364 0.959 . S
H349 C364 0.959 . S
H350 C364 0.961 . S
H351 C365 0.960 . S
H352 C365 0.961 . S
H353 C365 0.959 . S
H354 C368 0.929 . S
H355 C369 0.931 . S
H356 C371 0.930 . S
C357 H345 0.930 . S
C357 C358 1.399 . S
C357 C362 1.399 . S
C358 C357 1.399 . S
C358 C359 1.376 . S
C359 H346 0.930 . S
C359 C358 1.376 . S
C359 C360 1.388 . S
C360 H347 0.930 . S
C360 C359 1.388 . S
C360 C361 1.390 . S
C361 C360 1.390 . S
C361 C362 1.394 . S
C361 C367 1.465 . S
C362 C357 1.399 . S
C362 C361 1.394 . S
C362 C363 1.516 . S
C363 C362 1.516 . S
C363 C364 1.502 . S
C363 C365 1.561 . S
C363 C366 1.526 . S
C364 H348 0.959 . S
C364 H349 0.959 . S
C364 H350 0.961 . S
C364 C363 1.502 . S
C365 H351 0.960 . S
C365 H352 0.961 . S
C365 H353 0.959 . S
C365 C363 1.561 . S
C366 C363 1.526 . S
C366 C367 1.396 . S
C366 C371 1.390 . S
C367 C361 1.465 . S
C367 C366 1.396 . S
C367 C368 1.399 . S
C368 H354 0.929 . S
C368 C367 1.399 . S
C368 C369 1.385 . S
C369 H355 0.931 . S
C369 C368 1.385 . S
C369 C370 1.389 . S
C370 C369 1.389 . S
C370 C371 1.387 . S
C371 H356 0.930 . S
C371 C366 1.390 . S
C371 C370 1.387 . S
H372 C384 0.930 . S
H373 C386 0.930 . S
H374 C387 0.930 . S
H375 C391 0.959 . S
H376 C391 0.959 . S
H377 C391 0.961 1_565 S
H378 C392 0.960 . S
H379 C392 0.961 . S
H380 C392 0.959 . S
H381 C395 0.929 . S
H382 C396 0.931 . S
H383 C398 0.930 . S
C384 H372 0.930 . S
C384 C385 1.399 . S
C384 C389 1.399 . S
C385 C384 1.399 . S
C385 C386 1.376 . S
C386 H373 0.930 . S
C386 C385 1.376 . S
C386 C387 1.388 . S
C387 H374 0.930 . S
C387 C386 1.388 . S
C387 C388 1.390 . S
C388 C387 1.390 . S
C388 C389 1.394 . S
C388 C394 1.465 1_556 S
C389 C384 1.399 . S
C389 C388 1.394 . S
C389 C390 1.516 1_556 S
C390 C389 1.516 1_554 S
C390 C391 1.502 . S
C390 C392 1.561 . S
C390 C393 1.526 . S
C391 H375 0.959 . S
C391 H376 0.959 . S
C391 H377 0.961 1_545 S
C391 C390 1.502 . S
C392 H378 0.960 . S
C392 H379 0.961 . S
C392 H380 0.959 . S
C392 C390 1.561 . S
C393 C390 1.526 . S
C393 C394 1.396 . S
C393 C398 1.390 . S
C394 C388 1.465 1_554 S
C394 C393 1.396 . S
C394 C395 1.399 . S
C395 H381 0.929 . S
C395 C394 1.399 . S
C395 C396 1.385 . S
C396 H382 0.931 . S
C396 C395 1.385 . S
C396 C397 1.389 . S
C397 C396 1.389 . S
C397 C398 1.387 . S
C398 H383 0.930 . S
C398 C393 1.390 . S
C398 C397 1.387 . S
H399 C411 0.930 . S
H400 C413 0.930 1_565 S
H401 C414 0.930 1_565 S
H402 C418 0.959 . S
H403 C418 0.959 . S
H404 C418 0.961 . S
H405 C419 0.960 . S
H406 C419 0.961 . S
H407 C419 0.959 . S
H408 C422 0.929 . S
H409 C423 0.931 . S
H410 C425 0.930 . S
C411 H399 0.930 . S
C411 C412 1.399 . S
C411 C416 1.399 . S
C412 C411 1.399 . S
C412 C413 1.376 . S
C413 H400 0.930 1_545 S
C413 C412 1.376 . S
C413 C414 1.388 . S
C414 H401 0.930 1_545 S
C414 C413 1.388 . S
C414 C415 1.390 . S
C415 C414 1.390 . S
C415 C416 1.394 . S
C415 C421 1.465 . S
C416 C411 1.399 . S
C416 C415 1.394 . S
C416 C417 1.516 . S
C417 C416 1.516 . S
C417 C418 1.502 . S
C417 C419 1.561 . S
C417 C420 1.526 . S
C418 H402 0.959 . S
C418 H403 0.959 . S
C418 H404 0.961 . S
C418 C417 1.502 . S
C419 H405 0.960 . S
C419 H406 0.961 . S
C419 H407 0.959 . S
C419 C417 1.561 . S
C420 C417 1.526 . S
C420 C421 1.396 . S
C420 C425 1.390 . S
C421 C415 1.465 . S
C421 C420 1.396 . S
C421 C422 1.399 . S
C422 H408 0.929 . S
C422 C421 1.399 . S
C422 C423 1.385 . S
C423 H409 0.931 . S
C423 C422 1.385 . S
C423 C424 1.389 . S
C424 C423 1.389 . S
C424 C425 1.387 . S
C425 H410 0.930 . S
C425 C420 1.390 . S
C425 C424 1.387 . S
H426 C438 0.930 . S
H427 C440 0.930 1_545 S
H428 C441 0.930 . S
H429 C445 0.959 . S
H430 C445 0.959 . S
H431 C445 0.961 . S
H432 C446 0.960 . S
H433 C446 0.961 . S
H434 C446 0.959 . S
H435 C449 0.929 . S
H436 C450 0.931 . S
H437 C452 0.930 . S
C438 H426 0.930 . S
C438 C439 1.399 . S
C438 C443 1.399 . S
C439 C438 1.399 . S
C439 C440 1.376 . S
C440 H427 0.930 1_565 S
C440 C439 1.376 . S
C440 C441 1.388 . S
C441 H428 0.930 . S
C441 C440 1.388 . S
C441 C442 1.390 . S
C442 C441 1.390 . S
C442 C443 1.394 . S
C442 C448 1.465 . S
C443 C438 1.399 . S
C443 C442 1.394 . S
C443 C444 1.516 . S
C444 C443 1.516 . S
C444 C445 1.502 . S
C444 C446 1.561 . S
C444 C447 1.526 . S
C445 H429 0.959 . S
C445 H430 0.959 . S
C445 H431 0.961 . S
C445 C444 1.502 . S
C446 H432 0.960 . S
C446 H433 0.961 . S
C446 H434 0.959 . S
C446 C444 1.561 . S
C447 C444 1.526 . S
C447 C448 1.396 . S
C447 C452 1.390 . S
C448 C442 1.465 . S
C448 C447 1.396 . S
C448 C449 1.399 . S
C449 H435 0.929 . S
C449 C448 1.399 . S
C449 C450 1.385 . S
C450 H436 0.931 . S
C450 C449 1.385 . S
C450 C451 1.389 . S
C451 C450 1.389 . S
C451 C452 1.387 . S
C452 H437 0.930 . S
C452 C447 1.390 . S
C452 C451 1.387 . S
H453 C465 0.930 . S
H454 C467 0.930 1_545 S
H455 C468 0.930 1_545 S
H456 C472 0.959 . S
H457 C472 0.959 . S
H458 C472 0.961 . S
H459 C473 0.960 . S
H460 C473 0.961 . S
H461 C473 0.959 . S
H462 C476 0.909 1_545 S
H463 C477 0.931 . S
H464 C479 0.930 . S
C465 H453 0.930 . S
C465 C466 1.399 . S
C465 C470 1.399 . S
C466 C465 1.399 . S
C466 C467 1.376 . S
C467 H454 0.930 1_565 S
C467 C466 1.376 . S
C467 C468 1.388 . S
C468 H455 0.930 1_565 S
C468 C467 1.388 . S
C468 C469 1.390 . S
C469 C468 1.390 . S
C469 C470 1.394 . S
C469 C475 1.465 . S
C470 C465 1.399 . S
C470 C469 1.394 . S
C470 C471 1.516 . S
C471 C470 1.516 . S
C471 C472 1.502 . S
C471 C473 1.561 . S
C471 C474 1.526 . S
C472 H456 0.959 . S
C472 H457 0.959 . S
C472 H458 0.961 . S
C472 C471 1.502 . S
C473 H459 0.960 . S
C473 H460 0.961 . S
C473 H461 0.959 . S
C473 C471 1.561 . S
C474 C471 1.526 . S
C474 C475 1.396 . S
C474 C479 1.390 . S
C475 C469 1.465 . S
C475 C474 1.396 . S
C475 C476 1.399 . S
C476 H462 0.909 1_565 S
C476 C475 1.399 . S
C476 C477 1.385 . S
C477 H463 0.931 . S
C477 C476 1.385 . S
C477 C478 1.389 . S
C478 C477 1.389 . S
C478 C479 1.387 . S
C479 H464 0.930 . S
C479 C474 1.390 . S
C479 C478 1.387 . S
H480 C492 0.930 . S
H481 C494 0.930 . S
H482 C495 0.930 . S
H483 C499 0.959 . S
H484 C499 0.959 . S
H485 C499 0.961 . S
H486 C500 0.960 . S
H487 C500 0.961 . S
H488 C500 0.959 . S
H489 C503 0.929 . S
H490 C504 0.931 . S
H491 C506 0.930 . S
C492 H480 0.930 . S
C492 C493 1.399 . S
C492 C497 1.399 . S
C493 C492 1.399 . S
C493 C494 1.376 . S
C494 H481 0.930 . S
C494 C493 1.376 . S
C494 C495 1.388 . S
C495 H482 0.930 . S
C495 C494 1.388 . S
C495 C496 1.390 . S
C496 C495 1.390 . S
C496 C497 1.394 . S
C496 C502 1.465 . S
C497 C492 1.399 . S
C497 C496 1.394 . S
C497 C498 1.516 . S
C498 C497 1.516 . S
C498 C499 1.502 . S
C498 C500 1.561 . S
C498 C501 1.526 . S
C499 H483 0.959 . S
C499 H484 0.959 . S
C499 H485 0.961 . S
C499 C498 1.502 . S
C500 H486 0.960 . S
C500 H487 0.961 . S
C500 H488 0.959 . S
C500 C498 1.561 . S
C501 C498 1.526 . S
C501 C502 1.396 . S
C501 C506 1.390 . S
C502 C496 1.465 . S
C502 C501 1.396 . S
C502 C503 1.399 . S
C503 H489 0.929 . S
C503 C502 1.399 . S
C503 C504 1.385 . S
C504 H490 0.931 . S
C504 C503 1.385 . S
C504 C505 1.389 . S
C505 C504 1.389 . S
C505 C506 1.387 . S
C506 H491 0.930 . S
C506 C501 1.390 . S
C506 C505 1.387 . S
H507 C519 0.930 . S
H508 C521 0.930 . S
H509 C522 0.930 . S
H510 C526 0.959 . S
H511 C526 0.959 . S
H512 C526 0.961 1_556 S
H513 C527 0.960 . S
H514 C527 0.933 1_554 S
H515 C527 0.959 . S
H516 C530 0.929 . S
H517 C531 0.931 . S
H518 C533 0.930 . S
C519 H507 0.930 . S
C519 C520 1.399 . S
C519 C524 1.399 . S
C520 C519 1.399 . S
C520 C521 1.376 . S
C521 H508 0.930 . S
C521 C520 1.376 . S
C521 C522 1.388 . S
C522 H509 0.930 . S
C522 C521 1.388 . S
C522 C523 1.390 . S
C523 C522 1.390 . S
C523 C524 1.394 . S
C523 C529 1.465 1_556 S
C524 C519 1.399 . S
C524 C523 1.394 . S
C524 C525 1.516 . S
C525 C524 1.516 . S
C525 C526 1.502 1_556 S
C525 C527 1.561 . S
C525 C528 1.526 1_556 S
C526 H510 0.959 . S
C526 H511 0.959 . S
C526 H512 0.961 1_554 S
C526 C525 1.502 1_554 S
C527 H513 0.960 . S
C527 H514 0.933 1_556 S
C527 H515 0.959 . S
C527 C525 1.561 . S
C528 C525 1.526 1_554 S
C528 C529 1.396 . S
C528 C533 1.390 . S
C529 C523 1.465 1_554 S
C529 C528 1.396 . S
C529 C530 1.399 . S
C530 H516 0.929 . S
C530 C529 1.399 . S
C530 C531 1.385 . S
C531 H517 0.931 . S
C531 C530 1.385 . S
C531 C532 1.389 . S
C532 C531 1.389 . S
C532 C533 1.387 . S
C533 H518 0.930 . S
C533 C528 1.390 . S
C533 C532 1.387 . S
H534 C546 0.930 . S
H535 C548 0.930 . S
H536 C549 0.930 . S
H537 C553 0.959 . S
H538 C553 0.959 . S
H539 C553 0.961 . S
H540 C554 0.960 . S
H541 C554 0.961 . S
H542 C554 0.959 . S
H543 C557 0.929 . S
H544 C558 0.931 . S
H545 C560 0.930 . S
C546 H534 0.930 . S
C546 C547 1.399 . S
C546 C551 1.399 . S
C547 C546 1.399 . S
C547 C548 1.376 . S
C548 H535 0.930 . S
C548 C547 1.376 . S
C548 C549 1.388 . S
C549 H536 0.930 . S
C549 C548 1.388 . S
C549 C550 1.390 . S
C550 C549 1.390 . S
C550 C551 1.394 . S
C550 C556 1.465 . S
C551 C546 1.399 . S
C551 C550 1.394 . S
C551 C552 1.516 . S
C552 C551 1.516 . S
C552 C553 1.502 . S
C552 C554 1.561 . S
C552 C555 1.526 . S
C553 H537 0.959 . S
C553 H538 0.959 . S
C553 H539 0.961 . S
C553 C552 1.502 . S
C554 H540 0.960 . S
C554 H541 0.961 . S
C554 H542 0.959 . S
C554 C552 1.561 . S
C555 C552 1.526 . S
C555 C556 1.396 . S
C555 C560 1.390 . S
C556 C550 1.465 . S
C556 C555 1.396 . S
C556 C557 1.399 . S
C557 H543 0.929 . S
C557 C556 1.399 . S
C557 C558 1.385 . S
C558 H544 0.931 . S
C558 C557 1.385 . S
C558 C559 1.389 . S
C559 C558 1.389 . S
C559 C560 1.387 . S
C560 H545 0.930 . S
C560 C555 1.390 . S
C560 C559 1.387 . S
H561 C573 0.930 . S
H562 C575 0.930 . S
H563 C576 0.930 . S
H564 C580 0.959 . S
H565 C580 0.959 . S
H566 C580 0.961 . S
H567 C581 0.960 . S
H568 C581 0.961 . S
H569 C581 0.959 . S
H570 C584 0.929 . S
H571 C585 0.931 . S
H572 C587 0.930 . S
C573 H561 0.930 . S
C573 C574 1.399 . S
C573 C578 1.399 . S
C574 C573 1.399 . S
C574 C575 1.376 . S
C575 H562 0.930 . S
C575 C574 1.376 . S
C575 C576 1.388 . S
C576 H563 0.930 . S
C576 C575 1.388 . S
C576 C577 1.390 . S
C577 C576 1.390 . S
C577 C578 1.394 . S
C577 C583 1.465 . S
C578 C573 1.399 . S
C578 C577 1.394 . S
C578 C579 1.516 . S
C579 C578 1.516 . S
C579 C580 1.502 . S
C579 C581 1.561 . S
C579 C582 1.526 . S
C580 H564 0.959 . S
C580 H565 0.959 . S
C580 H566 0.961 . S
C580 C579 1.502 . S
C581 H567 0.960 . S
C581 H568 0.961 . S
C581 H569 0.959 . S
C581 C579 1.561 . S
C582 C579 1.526 . S
C582 C583 1.396 . S
C582 C587 1.390 . S
C583 C577 1.465 . S
C583 C582 1.396 . S
C583 C584 1.399 . S
C584 H570 0.929 . S
C584 C583 1.399 . S
C584 C585 1.385 . S
C585 H571 0.931 . S
C585 C584 1.385 . S
C585 C586 1.389 . S
C586 C585 1.389 . S
C586 C587 1.387 . S
C587 H572 0.930 . S
C587 C582 1.390 . S
C587 C586 1.387 . S
H588 C600 0.930 . S
H589 C602 0.930 . S
H590 C603 0.930 . S
H591 C607 0.959 . S
H592 C607 0.959 . S
H593 C607 0.961 . S
H594 C608 0.960 . S
H595 C608 0.961 . S
H596 C608 0.959 . S
H597 C611 0.929 . S
H598 C612 0.931 1_545 S
H599 C614 0.930 . S
C600 H588 0.930 . S
C600 C601 1.399 . S
C600 C605 1.399 . S
C601 C600 1.399 . S
C601 C602 1.376 . S
C602 H589 0.930 . S
C602 C601 1.376 . S
C602 C603 1.388 . S
C603 H590 0.930 . S
C603 C602 1.388 . S
C603 C604 1.390 . S
C604 C603 1.390 . S
C604 C605 1.394 . S
C604 C610 1.465 . S
C605 C600 1.399 . S
C605 C604 1.394 . S
C605 C606 1.516 . S
C606 C605 1.516 . S
C606 C607 1.502 . S
C606 C608 1.561 . S
C606 C609 1.526 . S
C607 H591 0.959 . S
C607 H592 0.959 . S
C607 H593 0.961 . S
C607 C606 1.502 . S
C608 H594 0.960 . S
C608 H595 0.961 . S
C608 H596 0.959 . S
C608 C606 1.561 . S
C609 C606 1.526 . S
C609 C610 1.396 . S
C609 C614 1.390 1_565 S
C610 C604 1.465 . S
C610 C609 1.396 . S
C610 C611 1.399 . S
C611 H597 0.929 . S
C611 C610 1.399 . S
C611 C612 1.385 . S
C612 H598 0.931 1_565 S
C612 C611 1.385 . S
C612 C613 1.389 1_565 S
C613 C612 1.389 1_545 S
C613 C614 1.387 . S
C614 H599 0.930 . S
C614 C609 1.390 1_545 S
C614 C613 1.387 . S
H615 C627 0.930 . S
H616 C629 0.930 . S
H617 C630 0.930 . S
H618 C634 0.959 . S
H619 C634 0.959 . S
H620 C634 0.961 . S
H621 C635 0.960 . S
H622 C635 0.961 . S
H623 C635 0.959 . S
H624 C638 0.929 . S
H625 C639 0.931 . S
H626 C641 0.930 . S
C627 H615 0.930 . S
C627 C628 1.399 . S
C627 C632 1.399 . S
C628 C627 1.399 . S
C628 C629 1.376 . S
C629 H616 0.930 . S
C629 C628 1.376 . S
C629 C630 1.388 . S
C630 H617 0.930 . S
C630 C629 1.388 . S
C630 C631 1.390 . S
C631 C630 1.390 . S
C631 C632 1.394 . S
C631 C637 1.465 . S
C632 C627 1.399 . S
C632 C631 1.394 . S
C632 C633 1.516 . S
C633 C632 1.516 . S
C633 C634 1.502 . S
C633 C635 1.561 . S
C633 C636 1.526 . S
C634 H618 0.959 . S
C634 H619 0.959 . S
C634 H620 0.961 . S
C634 C633 1.502 . S
C635 H621 0.960 . S
C635 H622 0.961 . S
C635 H623 0.959 . S
C635 C633 1.561 . S
C636 C633 1.526 . S
C636 C637 1.396 . S
C636 C641 1.390 . S
C637 C631 1.465 . S
C637 C636 1.396 . S
C637 C638 1.399 . S
C638 H624 0.929 . S
C638 C637 1.399 . S
C638 C639 1.385 . S
C639 H625 0.931 . S
C639 C638 1.385 . S
C639 C640 1.389 . S
C640 C639 1.389 . S
C640 C641 1.387 . S
C641 H626 0.930 . S
C641 C636 1.390 . S
C641 C640 1.387 . S
H642 C654 0.930 1_565 S
H643 C656 0.930 . S
H644 C657 0.930 . S
H645 C661 0.959 . S
H646 C661 0.959 . S
H647 C661 0.961 . S
H648 C662 0.960 . S
H649 C662 0.961 . S
H650 C662 0.959 . S
H651 C665 0.929 . S
H652 C666 0.931 . S
H653 C668 0.930 . S
C654 H642 0.930 1_545 S
C654 C655 1.399 1_545 S
C654 C659 1.399 . S
C655 C654 1.399 1_565 S
C655 C656 1.376 . S
C656 H643 0.930 . S
C656 C655 1.376 . S
C656 C657 1.388 1_565 S
C657 H644 0.930 . S
C657 C656 1.388 1_545 S
C657 C658 1.390 . S
C658 C657 1.390 . S
C658 C659 1.394 . S
C658 C664 1.465 . S
C659 C654 1.399 . S
C659 C658 1.394 . S
C659 C660 1.516 . S
C660 C659 1.516 . S
C660 C661 1.502 . S
C660 C662 1.561 . S
C660 C663 1.526 . S
C661 H645 0.959 . S
C661 H646 0.959 . S
C661 H647 0.961 . S
C661 C660 1.502 . S
C662 H648 0.960 . S
C662 H649 0.961 . S
C662 H650 0.959 . S
C662 C660 1.561 . S
C663 C660 1.526 . S
C663 C664 1.396 . S
C663 C668 1.390 . S
C664 C658 1.465 . S
C664 C663 1.396 . S
C664 C665 1.399 . S
C665 H651 0.929 . S
C665 C664 1.399 . S
C665 C666 1.385 . S
C666 H652 0.931 . S
C666 C665 1.385 . S
C666 C667 1.389 . S
C667 C666 1.389 . S
C667 C668 1.387 . S
C668 H653 0.930 . S
C668 C663 1.390 . S
C668 C667 1.387 . S
H669 C681 0.930 . S
H670 C683 0.930 . S
H671 C684 0.930 . S
H672 C688 0.959 . S
H673 C688 0.959 . S
H674 C688 0.961 . S
H675 C689 0.960 . S
H676 C689 0.961 . S
H677 C689 0.959 . S
H678 C692 0.929 . S
H679 C693 0.931 . S
H680 C695 0.930 . S
C681 H669 0.930 . S
C681 C682 1.399 . S
C681 C686 1.399 . S
C682 C681 1.399 . S
C682 C683 1.376 . S
C683 H670 0.930 . S
C683 C682 1.376 . S
C683 C684 1.388 . S
C684 H671 0.930 . S
C684 C683 1.388 . S
C684 C685 1.390 . S
C685 C684 1.390 . S
C685 C686 1.394 . S
C685 C691 1.465 . S
C686 C681 1.399 . S
C686 C685 1.394 . S
C686 C687 1.516 . S
C687 C686 1.516 . S
C687 C688 1.502 . S
C687 C689 1.561 . S
C687 C690 1.526 . S
C688 H672 0.959 . S
C688 H673 0.959 . S
C688 H674 0.961 . S
C688 C687 1.502 . S
C689 H675 0.960 . S
C689 H676 0.961 . S
C689 H677 0.959 . S
C689 C687 1.561 . S
C690 C687 1.526 . S
C690 C691 1.396 . S
C690 C695 1.390 . S
C691 C685 1.465 . S
C691 C690 1.396 . S
C691 C692 1.399 . S
C692 H678 0.929 . S
C692 C691 1.399 . S
C692 C693 1.385 . S
C693 H679 0.931 . S
C693 C692 1.385 . S
C693 C694 1.389 . S
C694 C693 1.389 . S
C694 C695 1.387 . S
C695 H680 0.930 . S
C695 C690 1.390 . S
C695 C694 1.387 . S
H696 C708 0.930 . S
H697 C710 0.930 . S
H698 C711 0.930 . S
H699 C715 0.959 . S
H700 C715 0.959 . S
H701 C715 0.961 . S
H702 C716 0.960 . S
H703 C716 0.961 . S
H704 C716 0.959 . S
H705 C719 0.929 . S
H706 C720 0.931 . S
H707 C722 0.930 . S
C708 H696 0.930 . S
C708 C709 1.399 . S
C708 C713 1.399 . S
C709 C708 1.399 . S
C709 C710 1.376 . S
C710 H697 0.930 . S
C710 C709 1.376 . S
C710 C711 1.388 . S
C711 H698 0.930 . S
C711 C710 1.388 . S
C711 C712 1.390 . S
C712 C711 1.390 . S
C712 C713 1.394 . S
C712 C718 1.465 . S
C713 C708 1.399 . S
C713 C712 1.394 . S
C713 C714 1.516 . S
C714 C713 1.516 . S
C714 C715 1.502 . S
C714 C716 1.561 . S
C714 C717 1.526 . S
C715 H699 0.959 . S
C715 H700 0.959 . S
C715 H701 0.961 . S
C715 C714 1.502 . S
C716 H702 0.960 . S
C716 H703 0.961 . S
C716 H704 0.959 . S
C716 C714 1.561 . S
C717 C714 1.526 . S
C717 C718 1.396 . S
C717 C722 1.390 . S
C718 C712 1.465 . S
C718 C717 1.396 . S
C718 C719 1.399 . S
C719 H705 0.929 . S
C719 C718 1.399 . S
C719 C720 1.385 . S
C720 H706 0.931 . S
C720 C719 1.385 . S
C720 C721 1.389 . S
C721 C720 1.389 . S
C721 C722 1.387 . S
C722 H707 0.930 . S
C722 C717 1.390 . S
C722 C721 1.387 . S
H723 C735 0.930 . S
H724 C737 0.930 . S
H725 C738 0.930 . S
H726 C742 0.959 . S
H727 C742 0.959 . S
H728 C742 0.961 . S
H729 C743 0.960 . S
H730 C743 0.961 . S
H731 C743 0.959 . S
H732 C746 0.929 . S
H733 C747 0.931 . S
H734 C749 0.930 . S
C735 H723 0.930 . S
C735 C736 1.399 . S
C735 C740 1.399 . S
C736 C735 1.399 . S
C736 C737 1.376 . S
C737 H724 0.930 . S
C737 C736 1.376 . S
C737 C738 1.388 . S
C738 H725 0.930 . S
C738 C737 1.388 . S
C738 C739 1.390 . S
C739 C738 1.390 . S
C739 C740 1.394 . S
C739 C745 1.465 . S
C740 C735 1.399 . S
C740 C739 1.394 . S
C740 C741 1.516 . S
C741 C740 1.516 . S
C741 C742 1.502 . S
C741 C743 1.561 . S
C741 C744 1.526 . S
C742 H726 0.959 . S
C742 H727 0.959 . S
C742 H728 0.961 . S
C742 C741 1.502 . S
C743 H729 0.960 . S
C743 H730 0.961 . S
C743 H731 0.959 . S
C743 C741 1.561 . S
C744 C741 1.526 . S
C744 C745 1.396 . S
C744 C749 1.390 . S
C745 C739 1.465 . S
C745 C744 1.396 . S
C745 C746 1.399 . S
C746 H732 0.929 . S
C746 C745 1.399 . S
C746 C747 1.385 1_655 S
C747 H733 0.931 . S
C747 C746 1.385 1_455 S
C747 C748 1.389 . S
C748 C747 1.389 . S
C748 C749 1.387 1_455 S
C749 H734 0.930 . S
C749 C744 1.390 . S
C749 C748 1.387 1_655 S
H750 C762 0.930 . S
H751 C764 0.930 . S
H752 C765 0.930 . S
H753 C769 0.959 . S
H754 C769 0.959 . S
H755 C769 0.961 . S
H756 C770 0.960 . S
H757 C770 0.961 . S
H758 C770 0.959 . S
H759 C773 0.929 . S
H760 C774 0.931 . S
H761 C776 0.930 . S
C762 H750 0.930 . S
C762 C763 1.399 . S
C762 C767 1.399 . S
C763 C762 1.399 . S
C763 C764 1.376 . S
C764 H751 0.930 . S
C764 C763 1.376 . S
C764 C765 1.388 . S
C765 H752 0.930 . S
C765 C764 1.388 . S
C765 C766 1.390 . S
C766 C765 1.390 . S
C766 C767 1.394 . S
C766 C772 1.465 . S
C767 C762 1.399 . S
C767 C766 1.394 . S
C767 C768 1.516 . S
C768 C767 1.516 . S
C768 C769 1.502 . S
C768 C770 1.561 . S
C768 C771 1.526 . S
C769 H753 0.959 . S
C769 H754 0.959 . S
C769 H755 0.961 . S
C769 C768 1.502 . S
C770 H756 0.960 . S
C770 H757 0.961 . S
C770 H758 0.959 . S
C770 C768 1.561 . S
C771 C768 1.526 . S
C771 C772 1.396 . S
C771 C776 1.390 . S
C772 C766 1.465 . S
C772 C771 1.396 . S
C772 C773 1.399 . S
C773 H759 0.929 . S
C773 C772 1.399 . S
C773 C774 1.385 . S
C774 H760 0.931 . S
C774 C773 1.385 . S
C774 C775 1.389 . S
C775 C774 1.389 . S
C775 C776 1.387 . S
C776 H761 0.930 . S
C776 C771 1.390 . S
C776 C775 1.387 . S
H777 C789 0.930 . S
H778 C791 0.930 . S
H779 C792 0.930 . S
H780 C796 0.959 . S
H781 C796 0.959 . S
H782 C796 0.961 . S
H783 C797 0.960 . S
H784 C797 0.961 . S
H785 C797 0.959 . S
H786 C800 0.929 . S
H787 C801 0.931 . S
H788 C803 0.930 1_655 S
C789 H777 0.930 . S
C789 C790 1.399 . S
C789 C794 1.399 . S
C790 C789 1.399 . S
C790 C791 1.376 . S
C791 H778 0.930 . S
C791 C790 1.376 . S
C791 C792 1.388 . S
C792 H779 0.930 . S
C792 C791 1.388 . S
C792 C793 1.390 . S
C793 C792 1.390 . S
C793 C794 1.394 . S
C793 C799 1.465 . S
C794 C789 1.399 . S
C794 C793 1.394 . S
C794 C795 1.516 . S
C795 C794 1.516 . S
C795 C796 1.502 . S
C795 C797 1.561 . S
C795 C798 1.526 . S
C796 H780 0.959 . S
C796 H781 0.959 . S
C796 H782 0.961 . S
C796 C795 1.502 . S
C797 H783 0.960 . S
C797 H784 0.961 . S
C797 H785 0.959 . S
C797 C795 1.561 . S
C798 C795 1.526 . S
C798 C799 1.396 . S
C798 C803 1.390 . S
C799 C793 1.465 . S
C799 C798 1.396 . S
C799 C800 1.399 . S
C800 H786 0.929 . S
C800 C799 1.399 . S
C800 C801 1.385 1_455 S
C801 H787 0.931 . S
C801 C800 1.385 1_655 S
C801 C802 1.389 . S
C802 C801 1.389 . S
C802 C803 1.387 1_655 S
C803 H788 0.930 1_455 S
C803 C798 1.390 . S
C803 C802 1.387 1_455 S
C277 N5 0.367 . S
C289 N170 0.363 . S
C304 N203 0.335 . S
C316 N38 0.337 . S
C331 N236 0.407 . S
C343 N71 0.406 . S
C358 N137 0.308 . S
C370 N104 0.310 . S
C385 N113 1.388 . S
C397 C17 1.287 . S
C412 C50 1.276 . S
C424 N14 1.454 . S
C439 N47 1.453 . S
C451 C83 1.284 . S
C466 C116 1.269 . S
C478 N80 1.454 . S
C493 N179 1.453 . S
C505 C149 1.285 . S
C520 C182 1.268 . S
C532 N212 1.454 . S
C547 C215 1.261 . S
C559 N245 1.410 . S
C574 C248 1.365 . S
C586 N146 1.361 . S
C601 C226 1.940 . S
C613 C8 1.958 . S
C628 C259 1.943 . S
C640 C41 1.958 . S
C655 C74 1.963 . S
C667 C160 1.959 . S
C682 C107 1.964 . S
C694 C193 1.961 . S
C709 C140 1.965 . S
C721 C94 1.961 . S
C736 C127 1.941 . S
C748 C173 1.978 . S
C763 C206 1.965 . S
C775 C28 1.921 . S
C790 C61 1.945 . S
C802 C239 1.958 . S
