# Generated by pormake.
# Topology ukh, (4)-cn, num edge types: 1
# Building blocks:
#     Node 0, Type 0, BuildingBlock: QUQFOY_clean_sbu_3, # of connection points: 4
#     Node 1, Type 0, BuildingBlock: QUQFOY_clean_sbu_3, # of connection points: 4
#     Node 2, Type 0, BuildingBlock: QUQFOY_clean_sbu_3, # of connection points: 4
#     Node 3, Type 0, BuildingBlock: QUQFOY_clean_sbu_3, # of connection points: 4
#     Node 4, Type 0, BuildingBlock: QUQFOY_clean_sbu_3, # of connection points: 4
#     Node 5, Type 0, BuildingBlock: QUQFOY_clean_sbu_3, # of connection points: 4
#     Node 6, Type 0, BuildingBlock: QUQFOY_clean_sbu_3, # of connection points: 4
#     Node 7, Type 0, BuildingBlock: QUQFOY_clean_sbu_3, # of connection points: 4
#     Node 8, Type 0, BuildingBlock: QUQFOY_clean_sbu_3, # of connection points: 4
#     Node 9, Type 0, BuildingBlock: QUQFOY_clean_sbu_3, # of connection points: 4
#     Node 10, Type 0, BuildingBlock: QUQFOY_clean_sbu_3, # of connection points: 4
#     Node 11, Type 0, BuildingBlock: QUQFOY_clean_sbu_3, # of connection points: 4
#     Edge 12, Type (0, 0), BuildingBlock: UVAHIK_clean_linker_0, # of connection points: 2
#     Edge 13, Type (0, 0), BuildingBlock: UVAHIK_clean_linker_0, # of connection points: 2
#     Edge 14, Type (0, 0), BuildingBlock: UVAHIK_clean_linker_0, # of connection points: 2
#     Edge 15, Type (0, 0), BuildingBlock: UVAHIK_clean_linker_0, # of connection points: 2
#     Edge 16, Type (0, 0), BuildingBlock: UVAHIK_clean_linker_0, # of connection points: 2
#     Edge 17, Type (0, 0), BuildingBlock: UVAHIK_clean_linker_0, # of connection points: 2
#     Edge 18, Type (0, 0), BuildingBlock: UVAHIK_clean_linker_0, # of connection points: 2
#     Edge 19, Type (0, 0), BuildingBlock: UVAHIK_clean_linker_0, # of connection points: 2
#     Edge 20, Type (0, 0), BuildingBlock: UVAHIK_clean_linker_0, # of connection points: 2
#     Edge 21, Type (0, 0), BuildingBlock: UVAHIK_clean_linker_0, # of connection points: 2
#     Edge 22, Type (0, 0), BuildingBlock: UVAHIK_clean_linker_0, # of connection points: 2
#     Edge 23, Type (0, 0), BuildingBlock: UVAHIK_clean_linker_0, # of connection points: 2
#     Edge 24, Type (0, 0), BuildingBlock: UVAHIK_clean_linker_0, # of connection points: 2
#     Edge 25, Type (0, 0), BuildingBlock: UVAHIK_clean_linker_0, # of connection points: 2
#     Edge 26, Type (0, 0), BuildingBlock: UVAHIK_clean_linker_0, # of connection points: 2
#     Edge 27, Type (0, 0), BuildingBlock: UVAHIK_clean_linker_0, # of connection points: 2
#     Edge 28, Type (0, 0), BuildingBlock: UVAHIK_clean_linker_0, # of connection points: 2
#     Edge 29, Type (0, 0), BuildingBlock: UVAHIK_clean_linker_0, # of connection points: 2
#     Edge 30, Type (0, 0), BuildingBlock: UVAHIK_clean_linker_0, # of connection points: 2
#     Edge 31, Type (0, 0), BuildingBlock: UVAHIK_clean_linker_0, # of connection points: 2
#     Edge 32, Type (0, 0), BuildingBlock: UVAHIK_clean_linker_0, # of connection points: 2
#     Edge 33, Type (0, 0), BuildingBlock: UVAHIK_clean_linker_0, # of connection points: 2
#     Edge 34, Type (0, 0), BuildingBlock: UVAHIK_clean_linker_0, # of connection points: 2
#     Edge 35, Type (0, 0), BuildingBlock: UVAHIK_clean_linker_0, # of connection points: 2
# Relax obj value: 0.081
# Max RMSD: 0.103
# Mean RMSD: 0.098
data_MOF--net-ukh--node1-QUQFOY_clean_sbu_3--edge1-UVAHIK_clean_linker_0
_symmetry_space_group_name_H-M    P1
_symmetry_Int_Tables_number       1
_symmetry_cell_setting            triclinic
loop_
_symmetry_equiv_pos_as_xyz
'x, y, z'
_cell_length_a     42.498142
_cell_length_b     43.176495
_cell_length_c     84.293813
_cell_angle_alpha  90.025722
_cell_angle_beta   90.386848
_cell_angle_gamma 119.92316
loop_
_atom_site_label
_atom_site_type_symbol
_atom_site_fract_x
_atom_site_fract_y
_atom_site_fract_z
_atom_type_partial_charge
C0 C 0.21215 0.19144 0.03877 0.0
O1 O 0.20061 0.1688 0.04997 0.0
Cd2 Cd 0.23873 0.15584 0.0664 0.0
O3 O 0.24605 0.21019 0.03597 0.0
Cd4 Cd 0.30619 0.22171 0.04588 0.0
C5 C 0.28045 0.13539 0.03597 0.0
O6 O 0.28722 0.21322 0.073 0.0
O7 O 0.34042 0.22012 0.0697 0.0
O8 O 0.32191 0.28324 0.04108 0.0
C9 C 0.31524 0.21499 0.07918 0.0
O10 O 0.25951 0.12643 0.04792 0.0
C11 C 0.35258 0.2932 0.03485 0.0
O12 O 0.29947 0.16813 0.03188 0.0
O13 O 0.36192 0.26955 0.03339 0.0
C14 C 0.14198 0.33488 0.34435 0.0
O15 O 0.12938 0.34611 0.3335 0.0
Cd16 Cd 0.07328 0.34651 0.3362 0.0
O17 O 0.12535 0.32389 0.35746 0.0
Cd18 Cd 0.07029 0.31618 0.37082 0.0
C19 C 0.01477 0.25744 0.34268 0.0
O20 O 0.07223 0.37096 0.36174 0.0
O21 O 0.02361 0.33246 0.37384 0.0
O22 O 0.1031 0.33816 0.39585 0.0
C23 C 0.04163 0.36303 0.36756 0.0
O24 O 0.0259 0.28407 0.33339 0.0
C25 C 0.0842 0.30947 0.40351 0.0
O26 O 0.02744 0.26131 0.35674 0.0
O27 O 0.05879 0.28351 0.39592 0.0
C28 C 0.79038 0.15195 0.67485 0.0
O29 O 0.76542 0.13853 0.6644 0.0
Cd30 Cd 0.70986 0.0836 0.66874 0.0
O31 O 0.78602 0.13716 0.68835 0.0
Cd32 Cd 0.73988 0.0859 0.70361 0.0
C33 C 0.74409 0.02815 0.67776 0.0
O34 O 0.68568 0.08645 0.69403 0.0
O35 O 0.6772 0.04056 0.70767 0.0
O36 O 0.75623 0.1271 0.72583 0.0
C37 C 0.66366 0.05724 0.70069 0.0
O38 O 0.72747 0.03783 0.66811 0.0
C39 C 0.76171 0.10801 0.73566 0.0
O40 O 0.7535 0.04222 0.69152 0.0
O41 O 0.75759 0.07851 0.73052 0.0
C42 C 0.7276 0.77392 0.0361 0.0
O43 O 0.73849 0.79461 0.04808 0.0
Cd44 Cd 0.69822 0.80385 0.0645 0.0
O45 O 0.69385 0.75562 0.03275 0.0
Cd46 Cd 0.63373 0.74277 0.04284 0.0
C47 C 0.65824 0.82886 0.03492 0.0
O48 O 0.64989 0.74587 0.07059 0.0
O49 O 0.60019 0.74616 0.06609 0.0
O50 O 0.61941 0.68225 0.03667 0.0
C51 C 0.62227 0.74575 0.07617 0.0
O52 O 0.67788 0.83609 0.04737 0.0
C53 C 0.58773 0.67143 0.03119 0.0
O54 O 0.64043 0.79692 0.02955 0.0
O55 O 0.57711 0.69425 0.03061 0.0
C56 C 0.80162 0.63414 0.34508 0.0
O57 O 0.815 0.62367 0.33433 0.0
Cd58 Cd 0.87082 0.62292 0.33798 0.0
O59 O 0.81721 0.64406 0.35857 0.0
Cd60 Cd 0.87081 0.65052 0.37311 0.0
C61 C 0.92857 0.71144 0.34657 0.0
O62 O 0.86934 0.59652 0.3633 0.0
O63 O 0.91663 0.6332 0.37702 0.0
O64 O 0.83489 0.6271 0.39706 0.0
C65 C 0.89921 0.60349 0.36982 0.0
O66 O 0.91836 0.6856 0.3368 0.0
C67 C 0.85339 0.65499 0.40541 0.0
O68 O 0.91466 0.70638 0.36033 0.0
O69 O 0.8802 0.68111 0.39873 0.0
C70 C 0.15214 0.81606 0.67277 0.0
O71 O 0.17801 0.83033 0.66294 0.0
Cd72 Cd 0.23268 0.88546 0.66842 0.0
O73 O 0.15522 0.8299 0.68645 0.0
Cd74 Cd 0.20016 0.87988 0.70311 0.0
C75 C 0.19679 0.9393 0.67799 0.0
O76 O 0.25463 0.88012 0.69394 0.0
O77 O 0.26289 0.92473 0.70854 0.0
O78 O 0.1815 0.83656 0.72447 0.0
C79 C 0.27656 0.90871 0.70118 0.0
O80 O 0.21417 0.93072 0.66835 0.0
C81 C 0.17638 0.85534 0.73459 0.0
O82 O 0.18679 0.92405 0.69142 0.0
O83 O 0.18174 0.88562 0.73 0.0
C84 C 0.78897 0.63044 0.62917 0.0
O85 O 0.76485 0.6199 0.63983 0.0
Cd86 Cd 0.70875 0.62003 0.63611 0.0
O87 O 0.78393 0.64115 0.61583 0.0
Cd88 Cd 0.73775 0.64929 0.60154 0.0
C89 C 0.7414 0.70901 0.6289 0.0
O90 O 0.6839 0.59493 0.61044 0.0
O91 O 0.67476 0.633 0.5975 0.0
O92 O 0.74931 0.62643 0.57718 0.0
C93 C 0.66158 0.60264 0.60402 0.0
O94 O 0.72493 0.68265 0.63827 0.0
C95 C 0.75963 0.65475 0.56919 0.0
O96 O 0.75063 0.70464 0.6151 0.0
O97 O 0.76013 0.68096 0.57629 0.0
C98 C -6e-05 0.77402 0.9357 0.0
O99 O 0.01073 0.79517 0.92397 0.0
Cd100 Cd 0.06187 0.80582 0.90828 0.0
O101 O 0.01522 0.75589 0.93919 0.0
Cd102 Cd 0.06357 0.7444 0.92959 0.0
C103 C 0.12534 0.83048 0.93865 0.0
O104 O 0.05367 0.74878 0.90164 0.0
O105 O 0.104 0.75052 0.90728 0.0
O106 O 0.01844 0.6819 0.9321 0.0
C107 C 0.08223 0.74982 0.89672 0.0
O108 O 0.11374 0.83808 0.9261 0.0
C109 C 0.0375 0.67257 0.94024 0.0
O110 O 0.11061 0.79834 0.94366 0.0
O111 O 0.06946 0.6971 0.94392 0.0
C112 C 0.32757 0.1574 0.30352 0.0
O113 O 0.33985 0.14394 0.31348 0.0
Cd114 Cd 0.33837 0.08842 0.30861 0.0
O115 O 0.31584 0.14264 0.29003 0.0
Cd116 Cd 0.30927 0.09143 0.27422 0.0
C117 C 0.24747 0.03347 0.3001 0.0
O118 O 0.36335 0.08971 0.28302 0.0
O119 O 0.32298 0.04402 0.26975 0.0
O120 O 0.33645 0.12915 0.25121 0.0
C121 C 0.35403 0.05993 0.27635 0.0
O122 O 0.2742 0.04306 0.30961 0.0
C123 C 0.30875 0.1131 0.24226 0.0
O124 O 0.25191 0.04757 0.28642 0.0
O125 O 0.28068 0.08694 0.24823 0.0
C126 C 0.152 0.33442 0.62921 0.0
O127 O 0.17852 0.34764 0.63893 0.0
Cd128 Cd 0.234 0.34742 0.63434 0.0
O129 O 0.15457 0.32173 0.61594 0.0
Cd130 Cd 0.19918 0.31404 0.60013 0.0
C131 C 0.19978 0.25728 0.62789 0.0
O132 O 0.25331 0.36926 0.60804 0.0
O133 O 0.26217 0.33137 0.59488 0.0
O134 O 0.18265 0.3352 0.57653 0.0
C135 C 0.27546 0.36185 0.60141 0.0
O136 O 0.21707 0.28461 0.6368 0.0
C137 C 0.17272 0.30714 0.56832 0.0
O138 O 0.18897 0.26006 0.6141 0.0
O139 O 0.17459 0.28169 0.57497 0.0
C140 C 0.93994 0.19527 0.93837 0.0
O141 O 0.92895 0.17346 0.92678 0.0
Cd142 Cd 0.87705 0.1608 0.91093 0.0
O143 O 0.92448 0.21332 0.94163 0.0
Cd144 Cd 0.8755 0.22399 0.93167 0.0
C145 C 0.81491 0.13809 0.94146 0.0
O146 O 0.88491 0.21745 0.90408 0.0
O147 O 0.83503 0.21699 0.90885 0.0
O148 O 0.92066 0.28661 0.93389 0.0
C149 C 0.85654 0.21632 0.89866 0.0
O150 O 0.82659 0.12975 0.92922 0.0
C151 C 0.90173 0.29639 0.94173 0.0
O152 O 0.82897 0.17065 0.94592 0.0
O153 O 0.86982 0.27206 0.94538 0.0
C154 C 0.61738 0.81263 0.30098 0.0
O155 O 0.60565 0.82674 0.3108 0.0
Cd156 Cd 0.6046 0.8807 0.30508 0.0
O157 O 0.62736 0.82587 0.2872 0.0
Cd158 Cd 0.63078 0.87446 0.27044 0.0
C159 C 0.69428 0.93605 0.2952 0.0
O160 O 0.57615 0.87417 0.27966 0.0
O161 O 0.6125 0.91836 0.26487 0.0
O162 O 0.60603 0.83124 0.2488 0.0
C163 C 0.58277 0.9024 0.27229 0.0
O164 O 0.66845 0.92743 0.30495 0.0
C165 C 0.63085 0.84995 0.23899 0.0
O166 O 0.68866 0.9201 0.28188 0.0
O167 O 0.65608 0.88011 0.24387 0.0
C168 C 0.52609 0.61817 0.02589 0.0
C169 C 0.56397 0.63337 0.0268 0.0
C170 C 0.50368 0.58119 0.02386 0.0
C171 C 0.50547 0.49708 0.03034 0.0
H172 H 0.41285 0.45374 0.00822 0.0
C173 C 0.41319 0.34382 0.02642 0.0
C174 C 0.37666 0.33103 0.03031 0.0
C175 C 0.43648 0.38028 0.02359 0.0
C176 C 0.43864 0.46549 0.01447 0.0
H177 H 0.60818 0.62208 0.02526 0.0
H178 H 0.56942 0.55811 0.02121 0.0
H179 H 0.45278 0.5185 0.00737 0.0
H180 H 0.3356 0.34627 0.03365 0.0
H181 H 0.3761 0.4096 0.0287 0.0
H182 H 0.49124 0.44418 0.03753 0.0
C183 C 0.55676 0.57435 0.0226 0.0
C184 C 0.46149 0.50263 0.01403 0.0
C185 C 0.57905 0.61114 0.0248 0.0
C186 C 0.36363 0.35524 0.03072 0.0
C187 C 0.3868 0.39156 0.02778 0.0
C188 C 0.48278 0.46002 0.03068 0.0
C189 C 0.51873 0.55868 0.02255 0.0
C190 C 0.49508 0.51898 0.02211 0.0
C191 C 0.42365 0.40464 0.02446 0.0
C192 C 0.4489 0.44378 0.02291 0.0
H193 H 0.51367 0.6346 0.02745 0.0
H194 H 0.47454 0.57014 0.02401 0.0
H195 H 0.53072 0.50862 0.03699 0.0
H196 H 0.42404 0.32585 0.02598 0.0
H197 H 0.46467 0.38948 0.0209 0.0
C198 C -0.00471 0.37985 0.37495 0.0
C199 C 0.02716 0.38781 0.36681 0.0
C200 C -0.01849 0.40317 0.37438 0.0
C201 C 0.00808 0.49701 0.36573 0.0
H202 H 0.90391 0.45884 0.36476 0.0
C203 C 0.94464 0.58543 0.3775 0.0
C204 C 0.9137 0.57879 0.36869 0.0
C205 C 0.9585 0.56222 0.3765 0.0
C206 C 0.93307 0.47 0.36484 0.0
H207 H 0.06943 0.42628 0.35153 0.0
H208 H 0.04497 0.46675 0.35025 0.0
H209 H 0.92794 0.4182 0.36384 0.0
H210 H 0.8732 0.54283 0.3518 0.0
H211 H 0.89783 0.50262 0.34978 0.0
H212 H 0.01323 0.54884 0.36633 0.0
C213 C 0.03097 0.44278 0.35734 0.0
C214 C 0.94687 0.44664 0.36454 0.0
C215 C 0.0449 0.41952 0.358 0.0
C216 C 0.89697 0.54853 0.3588 0.0
C217 C 0.911 0.52541 0.3577 0.0
C218 C -0.00571 0.52037 0.36594 0.0
C219 C -0.00087 0.43491 0.36555 0.0
C220 C -0.01547 0.45984 0.36514 0.0
C221 C 0.94192 0.53195 0.36657 0.0
C222 C 0.95661 0.50714 0.36566 0.0
H223 H -0.01891 0.3557 0.38192 0.0
H224 H 0.95733 0.39656 0.38109 0.0
H225 H 0.03721 0.50811 0.36636 0.0
H226 H 0.95803 0.60844 0.3853 0.0
H227 H -0.01807 0.56775 0.38371 0.0
C228 C 0.33952 0.95411 0.70947 0.0
C229 C 0.31622 0.92382 0.7004 0.0
C230 C 0.37707 0.96872 0.70867 0.0
C231 C 0.44726 0.94652 0.69749 0.0
H232 H 0.51019 0.04942 0.69872 0.0
C233 C 0.60086 0.01159 0.70852 0.0
C234 C 0.62402 0.04251 0.69994 0.0
C235 C 0.56335 -0.00268 0.70784 0.0
C236 C 0.493 0.02065 0.69819 0.0
H237 H 0.31389 0.88517 0.6833 0.0
H238 H 0.37957 0.91104 0.68171 0.0
H239 H 0.44456 0.02416 0.69843 0.0
H240 H 0.62611 0.0827 0.68388 0.0
H241 H 0.56037 0.0574 0.68248 0.0
H242 H 0.49566 0.94301 0.69692 0.0
C243 C 0.3688 0.92316 0.68963 0.0
C244 C 0.45539 0.00615 0.69823 0.0
C245 C 0.33119 0.90843 0.69049 0.0
C246 C 0.60892 0.05891 0.69067 0.0
C247 C 0.5713 0.04451 0.68992 0.0
C248 C 0.48485 0.96102 0.69738 0.0
C249 C 0.39215 0.95347 0.69872 0.0
C250 C 0.43209 0.96892 0.69803 0.0
C251 C 0.5481 0.01353 0.6985 0.0
C252 C 0.50816 -0.00177 0.69789 0.0
H253 H 0.32877 0.96647 0.71727 0.0
H254 H 0.39425 -0.00831 0.71604 0.0
H255 H 0.4301 0.91773 0.69747 0.0
H256 H 0.61171 -0.00154 0.71585 0.0
H257 H 0.54631 0.97382 0.71481 0.0
C258 C 0.60738 0.54632 0.61333 0.0
C259 C 0.62202 0.57779 0.60433 0.0
C260 C 0.56989 0.52297 0.61359 0.0
C261 C 0.48222 0.5189 0.60499 0.0
H262 H 0.44488 0.41662 0.60425 0.0
C263 C 0.32957 0.41759 0.61152 0.0
C264 C 0.31503 0.38665 0.60206 0.0
C265 C 0.36705 0.44075 0.6123 0.0
C266 C 0.45484 0.44511 0.60432 0.0
H267 H 0.60897 0.60937 0.58845 0.0
H268 H 0.54379 0.56835 0.5886 0.0
H269 H 0.51019 0.45732 0.60436 0.0
H270 H 0.32822 0.35584 0.58585 0.0
H271 H 0.39352 0.39666 0.58689 0.0
H272 H 0.42693 0.50674 0.60437 0.0
C273 C 0.56108 0.562 0.59575 0.0
C274 C 0.49232 0.46845 0.60461 0.0
C275 C 0.59849 0.58542 0.59558 0.0
C276 C 0.33866 0.3794 0.59332 0.0
C277 C 0.37611 0.40268 0.594 0.0
C278 C 0.44477 0.49557 0.60461 0.0
C279 C 0.5463 0.53052 0.60478 0.0
C280 C 0.50645 0.50563 0.60488 0.0
C281 C 0.39077 0.4336 0.60353 0.0
C282 C 0.43062 0.45839 0.60422 0.0
H283 H 0.62486 0.53982 0.62026 0.0
H284 H 0.55938 0.49921 0.62084 0.0
H285 H 0.49216 0.54737 0.60541 0.0
H286 H 0.31203 0.42376 0.61847 0.0
H287 H 0.37744 0.46404 0.61993 0.0
C288 C 0.89698 0.34589 0.95538 0.0
C289 C 0.9162 0.33464 0.94569 0.0
C290 C 0.91051 0.38239 0.95833 0.0
C291 C 0.93244 0.46055 0.95374 0.0
H292 H 0.03606 0.52718 0.9534 0.0
C293 C -0.01022 0.60826 0.93804 0.0
C294 C 0.0231 0.63453 0.9445 0.0
C295 C -0.02345 0.57211 0.94112 0.0
C296 C 0.00704 0.50909 0.95381 0.0
H297 H 0.96488 0.35291 0.93165 0.0
H298 H -0.01235 0.41591 0.9363 0.0
H299 H 0.01404 0.4634 0.9543 0.0
H300 H 0.06817 0.64343 0.95971 0.0
H301 H 0.04459 0.58013 0.9655 0.0
H302 H 0.92544 0.50626 0.95366 0.0
C303 C 0.9627 0.39688 0.94204 0.0
C304 C -0.00567 0.47232 0.95406 0.0
C305 C 0.94941 0.36057 0.93924 0.0
C306 C 0.0425 0.62381 0.95448 0.0
C307 C 0.02903 0.58748 0.95772 0.0
C308 C 0.94515 0.49733 0.9537 0.0
C309 C 0.94341 0.40843 0.95155 0.0
C310 C 0.95685 0.44749 0.95353 0.0
C311 C -0.00399 0.56107 0.95093 0.0
C312 C -0.01738 0.52213 0.95323 0.0
H313 H 0.8714 0.32655 0.96058 0.0
H314 H 0.89509 0.39015 0.96588 0.0
H315 H 0.90341 0.44244 0.95327 0.0
H316 H -0.02583 0.6155 0.93022 0.0
H317 H 0.9515 0.55277 0.93536 0.0
C318 C 0.36735 0.01206 0.26823 0.0
C319 C 0.37747 0.04371 0.27672 0.0
C320 C 0.38931 -0.00349 0.26852 0.0
C321 C 0.48324 0.01726 0.27665 0.0
H322 H 0.43921 0.91406 0.27748 0.0
C323 C 0.56549 0.94742 0.26397 0.0
C324 C 0.55837 0.91749 0.27313 0.0
C325 C 0.54316 0.96246 0.26498 0.0
C326 C 0.45197 0.94292 0.27741 0.0
H327 H 0.41835 0.08376 0.29229 0.0
H328 H 0.4565 0.05628 0.29301 0.0
H329 H 0.40083 0.94107 0.2788 0.0
H330 H 0.5222 0.87972 0.29052 0.0
H331 H 0.48341 0.90636 0.29248 0.0
H332 H 0.53441 0.01916 0.2756 0.0
C333 C 0.43186 0.04379 0.28592 0.0
C334 C 0.42994 0.9584 0.27797 0.0
C335 C 0.40994 0.05945 0.28557 0.0
C336 C 0.52828 0.90272 0.28326 0.0
C337 C 0.50599 0.91789 0.28433 0.0
C338 C 0.50527 0.00179 0.27615 0.0
C339 C 0.4218 0.01216 0.27737 0.0
C340 C 0.4453 -0.00425 0.27746 0.0
C341 C 0.51329 0.94804 0.27524 0.0
C342 C 0.48987 0.96444 0.27638 0.0
H343 H 0.34255 -0.00063 0.26124 0.0
H344 H 0.38106 0.97251 0.26159 0.0
H345 H 0.49594 0.04609 0.27609 0.0
H346 H 0.58836 0.95929 0.25597 0.0
H347 H 0.54915 -0.01477 0.25758 0.0
C348 C 0.27741 0.1115 0.21672 0.0
C349 C 0.3096 0.12412 0.2256 0.0
C350 C 0.27851 0.12194 0.20094 0.0
C351 C 0.33913 0.19011 0.17168 0.0
H352 H 0.2703 0.12235 0.14128 0.0
C353 C 0.34836 0.21253 0.10347 0.0
C354 C 0.31595 0.20617 0.09606 0.0
C355 C 0.3484 0.20321 0.11938 0.0
C356 C 0.28957 0.14157 0.14968 0.0
H357 H 0.36823 0.15715 0.22487 0.0
H358 H 0.37031 0.17432 0.19727 0.0
H359 H 0.26876 0.10437 0.16879 0.0
H360 H 0.25822 0.18509 0.09945 0.0
H361 H 0.25829 0.16835 0.12706 0.0
H362 H 0.3604 0.22693 0.15231 0.0
C363 C 0.34406 0.15725 0.20254 0.0
C364 C 0.28859 0.13139 0.16547 0.0
C365 C 0.34291 0.14721 0.21837 0.0
C366 C 0.28366 0.1904 0.10483 0.0
C367 C 0.28361 0.18061 0.12061 0.0
C368 C 0.34042 0.20009 0.15582 0.0
C369 C 0.31189 0.14483 0.19361 0.0
C370 C 0.3132 0.15559 0.17672 0.0
C371 C 0.31593 0.18685 0.12802 0.0
C372 C 0.31548 0.176 0.14471 0.0
H373 H 0.25132 0.09383 0.22201 0.0
H374 H 0.25311 0.11233 0.19456 0.0
H375 H 0.35811 0.20971 0.18002 0.0
H376 H 0.37364 0.22468 0.097 0.0
H377 H 0.37366 0.20817 0.12483 0.0
C378 C 0.07583 0.27345 0.42807 0.0
C379 C 0.09123 0.30682 0.42051 0.0
C380 C 0.08251 0.27125 0.4442 0.0
C381 C 0.10651 0.32257 0.4811 0.0
H382 H 0.14185 0.2601 0.49555 0.0
C383 C 0.16572 0.33564 0.5438 0.0
C384 C 0.16041 0.30478 0.55168 0.0
C385 C 0.1551 0.33396 0.52797 0.0
C386 C 0.13137 0.27723 0.4918 0.0
H387 H 0.12549 0.36401 0.4239 0.0
H388 H 0.13654 0.36014 0.45208 0.0
H389 H 0.12678 0.26024 0.46755 0.0
H390 H 0.13928 0.24778 0.54925 0.0
H391 H 0.11961 0.24454 0.52171 0.0
H392 H 0.11034 0.33924 0.50523 0.0
C393 C 0.11946 0.33574 0.44553 0.0
C394 C 0.12289 0.27737 0.47574 0.0
C395 C 0.11328 0.33791 0.42939 0.0
C396 C 0.14387 0.27206 0.54345 0.0
C397 C 0.13281 0.27027 0.52763 0.0
C398 C 0.11446 0.32209 0.49716 0.0
C399 C 0.10416 0.30241 0.45309 0.0
C400 C 0.11094 0.30045 0.47022 0.0
C401 C 0.13843 0.30126 0.51966 0.0
C402 C 0.1276 0.29987 0.5027 0.0
H403 H 0.05877 0.24904 0.42152 0.0
H404 H 0.07031 0.24525 0.44978 0.0
H405 H 0.0968 0.34023 0.47717 0.0
H406 H 0.17867 0.36133 0.54977 0.0
H407 H 0.16064 0.35854 0.52219 0.0
C408 C 0.77857 0.15341 0.75727 0.0
C409 C 0.77162 0.11944 0.75236 0.0
C410 C 0.78709 0.16409 0.77309 0.0
C411 C 0.82062 0.14381 0.80999 0.0
H412 H 0.78299 0.19983 0.82965 0.0
C413 C 0.81133 0.19788 0.87629 0.0
C414 C 0.84662 0.20848 0.88171 0.0
C415 C 0.80161 0.18768 0.86044 0.0
C416 C 0.79347 0.18395 0.82438 0.0
H417 H 0.76802 0.06997 0.76019 0.0
H418 H 0.78235 0.08837 0.7879 0.0
H419 H 0.76617 0.17927 0.80233 0.0
H420 H 0.89979 0.21819 0.87468 0.0
H421 H 0.88314 0.20128 0.84708 0.0
H422 H 0.84714 0.14764 0.83212 0.0
C423 C 0.7818 0.10701 0.77946 0.0
C424 C 0.78419 0.17252 0.80866 0.0
C425 C 0.77345 0.09639 0.7636 0.0
C426 C 0.87226 0.20981 0.8709 0.0
C427 C 0.86264 0.19985 0.85509 0.0
C428 C 0.82978 0.15511 0.82571 0.0
C429 C 0.78868 0.14099 0.7844 0.0
C430 C 0.79782 0.15247 0.80124 0.0
C431 C 0.82705 0.18807 0.84971 0.0
C432 C 0.81654 0.17554 0.83307 0.0
H433 H 0.77751 0.17186 0.74887 0.0
H434 H 0.79284 0.19065 0.77642 0.0
H435 H 0.8319 0.12872 0.80462 0.0
H436 H 0.79097 0.19652 0.88436 0.0
H437 H 0.77389 0.17851 0.85671 0.0
C438 C 0.59427 0.7604 0.09896 0.0
C439 C 0.61972 0.75142 0.09329 0.0
C440 C 0.59423 0.7688 0.11498 0.0
C441 C 0.58918 0.76991 0.15094 0.0
H442 H 0.683 0.82661 0.17145 0.0
C443 C 0.60316 0.80287 0.21789 0.0
C444 C 0.62989 0.83743 0.22257 0.0
C445 C 0.60161 0.79125 0.20229 0.0
C446 C 0.65658 0.81103 0.16588 0.0
H447 H 0.66397 0.74262 0.10006 0.0
H448 H 0.66333 0.75641 0.12801 0.0
H449 H 0.67997 0.80821 0.14396 0.0
H450 H 0.67596 0.88693 0.21456 0.0
H451 H 0.67289 0.86692 0.18726 0.0
H452 H 0.56585 0.77381 0.17274 0.0
C453 C 0.64403 0.75793 0.12005 0.0
C454 C 0.65481 0.80002 0.15017 0.0
C455 C 0.64423 0.74977 0.10404 0.0
C456 C 0.65516 0.86008 0.21134 0.0
C457 C 0.65349 0.84852 0.19571 0.0
C458 C 0.59095 0.78106 0.16666 0.0
C459 C 0.61948 0.76818 0.12567 0.0
C460 C 0.62111 0.77932 0.14249 0.0
C461 C 0.62665 0.81398 0.19098 0.0
C462 C 0.62469 0.8018 0.17431 0.0
H463 H 0.57509 0.76196 0.09094 0.0
H464 H 0.57515 0.77689 0.11887 0.0
H465 H 0.56277 0.75373 0.14545 0.0
H466 H 0.58339 0.78472 0.22629 0.0
H467 H 0.58095 0.7643 0.19913 0.0
C468 C 0.78808 0.68969 0.54448 0.0
C469 C 0.76995 0.6567 0.55236 0.0
C470 C 0.79753 0.69121 0.52851 0.0
C471 C 0.77148 0.63781 0.49216 0.0
H472 H 0.86984 0.7021 0.47831 0.0
C473 C 0.81915 0.62548 0.43003 0.0
C474 C 0.84408 0.65673 0.42213 0.0
C475 C 0.81027 0.62685 0.44583 0.0
C476 C 0.84209 0.6844 0.4819 0.0
H477 H 0.74737 0.59948 0.54969 0.0
H478 H 0.76333 0.60215 0.52178 0.0
H479 H 0.85384 0.70253 0.50605 0.0
H480 H 0.87903 0.71404 0.42453 0.0
H481 H 0.86269 0.71669 0.45199 0.0
H482 H 0.75926 0.62003 0.4681 0.0
C483 C 0.77031 0.62679 0.52797 0.0
C484 C 0.83302 0.6846 0.4978 0.0
C485 C 0.76137 0.62531 0.54396 0.0
C486 C 0.85986 0.68947 0.43034 0.0
C487 C 0.85063 0.69092 0.44612 0.0
C488 C 0.78037 0.63792 0.47624 0.0
C489 C 0.78847 0.65973 0.52009 0.0
C490 C 0.79775 0.66097 0.50311 0.0
C491 C 0.82572 0.6596 0.45408 0.0
C492 C 0.81592 0.66086 0.47092 0.0
H493 H 0.79509 0.71433 0.55067 0.0
H494 H 0.8114 0.71693 0.52268 0.0
H495 H 0.74394 0.61968 0.49591 0.0
H496 H 0.80674 0.5998 0.42406 0.0
H497 H 0.79161 0.60206 0.45163 0.0
C498 C 0.12781 0.76788 0.87487 0.0
C499 C 0.09204 0.75598 0.87977 0.0
C500 C 0.1374 0.77656 0.85897 0.0
C501 C 0.0998 0.76253 0.81842 0.0
H502 H 0.18504 0.85402 0.80955 0.0
C503 C 0.15588 0.80758 0.75518 0.0
C504 C 0.1657 0.84278 0.75104 0.0
C505 C 0.14696 0.7959 0.77081 0.0
C506 C 0.16112 0.82845 0.81186 0.0
H507 H 0.03804 0.74261 0.87182 0.0
H508 H 0.05472 0.75737 0.84411 0.0
H509 H 0.16967 0.83434 0.83702 0.0
H510 H 0.17373 0.89332 0.76002 0.0
H511 H 0.15828 0.87291 0.78739 0.0
H512 H 0.09102 0.7568 0.79328 0.0
C513 C 0.07533 0.76007 0.85252 0.0
C514 C 0.15255 0.81702 0.82755 0.0
C515 C 0.06585 0.75179 0.86841 0.0
C516 C 0.16623 0.86603 0.76284 0.0
C517 C 0.15764 0.85444 0.77852 0.0
C518 C 0.10856 0.77379 0.80273 0.0
C519 C 0.1113 0.77303 0.84767 0.0
C520 C 0.12162 0.78409 0.83099 0.0
C521 C 0.148 0.81928 0.78266 0.0
C522 C 0.13913 0.80701 0.7993 0.0
H523 H 0.14857 0.77139 0.88336 0.0
H524 H 0.16527 0.78621 0.85551 0.0
H525 H 0.0759 0.73694 0.82073 0.0
H526 H 0.15524 0.78902 0.74635 0.0
H527 H 0.13989 0.76874 0.77368 0.0
C528 C 0.15668 0.85803 0.96453 0.0
C529 C 0.15418 0.86037 0.94799 0.0
C530 C 0.17972 0.88851 0.97351 0.0
C531 C 0.22153 -0.01333 0.97083 0.0
H532 H 0.26695 -0.01401 0.01074 0.0
C533 C 0.2909 0.1126 0.01018 0.0
C534 C 0.27942 0.10651 0.02604 0.0
C535 C 0.28415 0.08389 0.00021 0.0
C536 C 0.25445 -0.0134 -0.0004 0.0
H537 H 0.1761 0.89567 0.92778 0.0
H538 H 0.21694 0.94825 0.94329 0.0
H539 H 0.23926 0.93243 -0.00597 0.0
H540 H 0.2543 0.06579 0.04415 0.0
H541 H 0.24256 0.0161 0.02685 0.0
H542 H 0.23581 0.04039 0.97652 0.0
C543 C 0.20027 0.92335 0.94945 0.0
C544 C 0.23847 0.95587 -0.00996 0.0
C545 C 0.17701 0.89311 0.94053 0.0
C546 C 0.26326 0.07145 0.03195 0.0
C547 C 0.25675 0.04289 0.02205 0.0
C548 C 0.23758 0.01734 0.98032 0.0
C549 C 0.20097 0.92182 0.9661 0.0
C550 C 0.22122 0.9553 0.97566 0.0
C551 C 0.26609 0.04859 0.00594 0.0
C552 C 0.25363 0.01751 -0.00503 0.0
H553 H 0.13934 0.8332 0.97062 0.0
H554 H 0.17935 0.88629 0.98631 0.0
H555 H 0.20793 -0.01284 0.96 0.0
H556 H 0.30348 0.13926 0.00525 0.0
H557 H 0.2921 0.08921 -0.01211 0.0
C558 C 0.18539 0.33084 0.3257 0.0
C559 C 0.17425 0.3313 0.34131 0.0
C560 C 0.21217 0.32188 0.32268 0.0
C561 C 0.24971 0.26987 0.3411 0.0
H562 H 0.31188 0.30075 0.3042 0.0
C563 C 0.32985 0.20088 0.32386 0.0
C564 C 0.32368 0.18843 0.30809 0.0
C565 C 0.32092 0.22649 0.32869 0.0
C566 C 0.29477 0.29201 0.31459 0.0
H567 H 0.18459 0.32576 0.36608 0.0
H568 H 0.2321 0.31129 0.36087 0.0
H569 H 0.27954 0.33207 0.31165 0.0
H570 H 0.30579 0.19506 0.2848 0.0
H571 H 0.29013 0.23957 0.29327 0.0
H572 H 0.26419 0.22938 0.34385 0.0
C573 C 0.21931 0.31661 0.3509 0.0
C574 C 0.27615 0.30984 0.31883 0.0
C575 C 0.1922 0.32509 0.3539 0.0
C576 C 0.31065 0.20387 0.29706 0.0
C577 C 0.30192 0.2296 0.30188 0.0
C578 C 0.26851 0.25231 0.33694 0.0
C579 C 0.22871 0.31361 0.33523 0.0
C580 C 0.25265 0.29839 0.33192 0.0
C581 C 0.30588 0.24034 0.31785 0.0
C582 C 0.29054 0.26261 0.32343 0.0
H583 H 0.17206 0.33547 0.31573 0.0
H584 H 0.21838 0.31952 0.31046 0.0
H585 H 0.23139 0.25977 0.35107 0.0
H586 H 0.34008 0.18975 0.33264 0.0
H587 H 0.32468 0.23461 0.34104 0.0
C588 C 0.83613 0.19269 0.65516 0.0
C589 C 0.82585 0.18339 0.67102 0.0
C590 C 0.8715 0.21913 0.65151 0.0
C591 C 0.96324 0.25972 0.6689 0.0
H592 H -0.01023 0.31684 0.63064 0.0
C593 C 0.11146 0.33866 0.64949 0.0
C594 C 0.11678 0.33071 0.6339 0.0
C595 C 0.07684 0.33006 0.6546 0.0
C596 C -0.01728 0.30116 0.6414 0.0
H597 H 0.84357 0.19644 0.69552 0.0
H598 H 0.90487 0.24331 0.68917 0.0
H599 H 0.92634 0.28476 0.63896 0.0
H600 H 0.09041 0.31001 0.61112 0.0
H601 H 0.03008 0.2949 0.62007 0.0
H602 H 0.01931 0.27536 0.67116 0.0
C603 C 0.88606 0.22941 0.67952 0.0
C604 C 0.94642 0.28269 0.64615 0.0
C605 C 0.85087 0.20265 0.68317 0.0
C606 C 0.08722 0.31624 0.62324 0.0
C607 C 0.05265 0.30782 0.62834 0.0
C608 C -0.00055 0.27839 0.66424 0.0
C609 C 0.8972 0.23713 0.66364 0.0
C610 C 0.93612 0.26098 0.65974 0.0
C611 C 0.04692 0.31358 0.6442 0.0
C612 C 0.00945 0.29857 0.65024 0.0
H613 H 0.81746 0.17831 0.64554 0.0
H614 H 0.87912 0.22403 0.63914 0.0
H615 H 0.95638 0.24281 0.67926 0.0
H616 H 0.13368 0.35006 0.65798 0.0
H617 H 0.07326 0.33519 0.66685 0.0
C618 C 0.65501 0.85752 0.00946 0.0
C619 C 0.65958 0.85908 0.02602 0.0
C620 C 0.66317 0.88845 0.00089 0.0
C621 C 0.72142 -0.01364 0.00487 0.0
H622 H 0.67656 -0.01204 0.96494 0.0
C623 C 0.78137 0.11416 0.9671 0.0
C624 C 0.78679 0.10874 0.95114 0.0
C625 C 0.75885 0.08505 0.97674 0.0
C626 C 0.68934 -0.01206 0.97609 0.0
H627 H 0.67313 0.89343 0.0467 0.0
H628 H 0.6861 0.94679 0.0319 0.0
H629 H 0.64911 0.93365 0.98095 0.0
H630 H 0.77077 0.06878 0.93253 0.0
H631 H 0.73186 0.01841 0.94923 0.0
H632 H 0.76209 0.04019 -0.00012 0.0
C633 C 0.67755 0.92216 0.02541 0.0
C634 C 0.67368 0.95678 0.98524 0.0
C635 C 0.66985 0.89147 0.03392 0.0
C636 C 0.76746 0.07393 0.94481 0.0
C637 C 0.74485 0.04498 0.95437 0.0
C638 C 0.73695 0.01747 -0.00423 0.0
C639 C 0.6757 0.92143 0.00874 0.0
C640 C 0.68989 0.95539 -0.00037 0.0
C641 C 0.74106 0.05 0.97056 0.0
C642 C 0.72155 0.01847 0.98112 0.0
H643 H 0.64728 0.83299 0.00304 0.0
H644 H 0.66159 0.88684 -0.01193 0.0
H645 H 0.73517 -0.01378 0.01571 0.0
H646 H 0.79579 0.14061 0.97235 0.0
H647 H 0.75613 0.08985 -0.01087 0.0
C648 C 0.63492 0.76641 0.29511 0.0
C649 C 0.62216 0.78232 0.30593 0.0
C650 C 0.64385 0.74096 0.3002 0.0
C651 C 0.67735 0.71884 0.33572 0.0
H652 H 0.66549 0.63831 0.31066 0.0
C653 C 0.75137 0.64427 0.35389 0.0
C654 C 0.76966 0.63808 0.34155 0.0
C655 C 0.72466 0.65318 0.3505 0.0
C656 C 0.66909 0.66075 0.31778 0.0
H657 H 0.60661 0.78229 0.33041 0.0
H658 H 0.62227 0.73785 0.33927 0.0
H659 H 0.63372 0.67005 0.30277 0.0
H660 H 0.77276 0.63428 0.31601 0.0
H661 H 0.727 0.65084 0.31009 0.0
H662 H 0.71399 0.711 0.35028 0.0
C663 C 0.62571 0.74541 0.32688 0.0
C664 C 0.65082 0.67883 0.31328 0.0
C665 C 0.61664 0.77078 0.32179 0.0
C666 C 0.75918 0.63892 0.32579 0.0
C667 C 0.73273 0.64823 0.32239 0.0
C668 C 0.69573 0.70096 0.34016 0.0
C669 C 0.64031 0.73094 0.31623 0.0
C670 C 0.65538 0.70853 0.32203 0.0
C671 C 0.71594 0.65653 0.33471 0.0
C672 C 0.69246 0.67216 0.33106 0.0
H673 H 0.6393 0.77452 0.28279 0.0
H674 H 0.65533 0.73054 0.29172 0.0
H675 H 0.68192 0.74198 0.34257 0.0
H676 H 0.75846 0.64332 0.36617 0.0
H677 H 0.71165 0.65855 0.36028 0.0
C678 C 0.08843 0.76857 0.67876 0.0
C679 C 0.11726 0.78458 0.66796 0.0
C680 C 0.05416 0.74174 0.67375 0.0
C681 C -0.00162 0.71542 0.63808 0.0
H682 H 0.9301 0.63604 0.6638 0.0
C683 C 0.84875 0.63887 0.62033 0.0
C684 C 0.82462 0.6337 0.63269 0.0
C685 C 0.88447 0.64762 0.62367 0.0
C686 C 0.94884 0.65811 0.65648 0.0
H687 H 0.13326 0.78327 0.64368 0.0
H688 H 0.07336 0.73644 0.63496 0.0
H689 H -0.00591 0.66959 0.67167 0.0
H690 H 0.81827 0.63134 0.65824 0.0
H691 H 0.88082 0.64777 0.66409 0.0
H692 H 0.95333 0.70556 0.62336 0.0
C693 C 0.07725 0.74498 0.64725 0.0
C694 C -0.01455 0.67723 0.66097 0.0
C695 C 0.11157 0.77175 0.65227 0.0
C696 C 0.83624 0.6352 0.64845 0.0
C697 C 0.87213 0.64443 0.6518 0.0
C698 C 0.96186 0.69653 0.63365 0.0
C699 C 0.04797 0.7304 0.65784 0.0
C700 C 0.01042 0.7066 0.652 0.0
C701 C 0.897 0.65193 0.63945 0.0
C702 C 0.93644 0.66817 0.64299 0.0
H703 H 0.09192 0.77764 0.69096 0.0
H704 H 0.03208 0.73126 0.68215 0.0
H705 H 0.0168 0.73827 0.63105 0.0
H706 H 0.84041 0.63734 0.60804 0.0
H707 H 0.90264 0.65233 0.61387 0.0
C708 C -0.01202 0.17969 0.94481 0.0
C709 C -0.02942 0.19928 0.94833 0.0
C710 C 0.01609 0.1825 0.95447 0.0
C711 C 0.05231 0.20595 -0.00494 0.0
H712 H 0.13634 0.20678 0.9769 0.0
C713 C 0.14844 0.17547 0.03171 0.0
C714 C 0.18588 0.19584 0.02877 0.0
C715 C 0.12357 0.17897 0.02207 0.0
C716 C 0.11324 0.20695 0.98215 0.0
H717 H 0.96959 0.23771 0.96463 0.0
H718 H 0.01885 0.24271 0.98146 0.0
H719 H 0.09112 0.20831 0.95945 0.0
H720 H 0.22656 0.23628 0.0135 0.0
H721 H 0.18306 0.24247 -0.00327 0.0
H722 H 0.07449 0.20469 0.01776 0.0
C723 C 0.01041 0.22489 0.9713 0.0
C724 C 0.08716 0.20744 0.97216 0.0
C725 C -0.01769 0.22214 0.96161 0.0
C726 C 0.1979 0.22008 0.01607 0.0
C727 C 0.17299 0.22352 0.0064 0.0
C728 C 0.07836 0.20539 0.00505 0.0
C729 C 0.02745 0.20493 0.96788 0.0
C730 C 0.05622 0.20657 0.9785 0.0
C731 C 0.13554 0.20289 0.00926 0.0
C732 C 0.10892 0.20551 -0.0013 0.0
H733 H -0.02037 0.1618 0.93468 0.0
H734 H 0.02835 0.16642 0.95164 0.0
H735 H 0.02863 0.20497 0.0003 0.0
H736 H 0.13822 0.15652 0.04137 0.0
H737 H 0.09487 0.16235 0.02445 0.0
C738 C 0.73991 0.9767 0.31524 0.0
C739 C 0.73095 0.96562 0.29936 0.0
C740 C 0.77375 0.00582 0.31919 0.0
C741 C 0.84452 0.08934 0.30322 0.0
H742 H 0.90233 0.08784 0.33868 0.0
C743 C -0.02142 0.21497 0.32084 0.0
C744 C -0.01392 0.22186 0.33713 0.0
C745 C 0.95033 0.18202 0.31557 0.0
C746 C 0.88635 0.08887 0.32886 0.0
H747 H 0.75067 0.97608 0.27519 0.0
H748 H 0.80971 0.02763 0.28211 0.0
H749 H 0.84748 0.03302 0.33073 0.0
H750 H -0.0299 0.19943 0.36066 0.0
H751 H 0.91999 0.14247 0.35156 0.0
H752 H 0.88206 0.1453 0.3017 0.0
C753 C 0.79049 0.01349 0.29146 0.0
C754 C 0.85507 0.0574 0.32426 0.0
C755 C 0.75681 -0.01606 0.28753 0.0
C756 C 0.96512 0.19487 0.34803 0.0
C757 C 0.93649 0.16207 0.34277 0.0
C758 C 0.87547 0.12091 0.30794 0.0
C759 C 0.79914 0.02482 0.30732 0.0
C760 C 0.83372 0.05743 0.31148 0.0
C761 C 0.92849 0.15531 0.32647 0.0
C762 C 0.89666 0.1212 0.32092 0.0
H763 H 0.72064 0.96304 0.32464 0.0
H764 H 0.77963 0.01418 0.33149 0.0
H765 H 0.82825 0.09018 0.29345 0.0
H766 H -0.00547 0.23509 0.31213 0.0
H767 H 0.94558 0.17758 0.30292 0.0
C768 C 0.75737 0.77201 0.6228 0.0
C769 C 0.74867 0.74483 0.63399 0.0
C770 C 0.76161 0.80494 0.62749 0.0
C771 C 0.77985 0.86471 0.6616 0.0
H772 H 0.72274 0.89674 0.63807 0.0
C773 C 0.75568 0.97794 0.6842 0.0
C774 C 0.75142 -0.00054 0.67289 0.0
C775 C 0.75918 0.94876 0.6794 0.0
C776 C 0.7395 0.88873 0.64461 0.0
H777 H 0.73909 0.73145 0.65897 0.0
H778 H 0.74696 0.78917 0.66714 0.0
H779 H 0.72305 0.84308 0.62963 0.0
H780 H 0.74966 0.00868 0.6477 0.0
H781 H 0.75724 0.95898 0.63932 0.0
H782 H 0.79667 0.91056 0.6765 0.0
C783 C 0.75032 0.78486 0.65475 0.0
C784 C 0.73951 0.85782 0.63978 0.0
C785 C 0.74559 0.75176 0.65004 0.0
C786 C 0.75235 -0.00776 0.65671 0.0
C787 C 0.75645 0.96354 0.65191 0.0
C788 C 0.78025 0.89598 0.66633 0.0
C789 C 0.75776 0.81154 0.64348 0.0
C790 C 0.75947 0.84537 0.64827 0.0
C791 C 0.75902 0.94085 0.66317 0.0
C792 C 0.75988 0.9083 0.65794 0.0
H793 H 0.75995 0.76754 0.61035 0.0
H794 H 0.76761 0.82519 0.61859 0.0
H795 H 0.79565 0.85576 0.66829 0.0
H796 H 0.75493 0.9828 0.69676 0.0
H797 H 0.76072 0.93173 0.68843 0.0
C798 C 0.74289 0.74861 0.01253 0.0
C799 C 0.75436 0.77124 0.02589 0.0
C800 C 0.76823 0.74659 0.00275 0.0
C801 C 0.86295 0.7651 0.00202 0.0
H802 H 0.85101 0.76519 0.95636 0.0
C803 C 0.95777 0.74788 0.95874 0.0
C804 C 0.96981 0.77085 0.94558 0.0
C805 C 0.93011 0.74576 0.96835 0.0
C806 C 0.85479 0.76529 0.96909 0.0
H807 H 0.8015 0.80933 0.03949 0.0
H808 H 0.84561 0.806 0.02236 0.0
H809 H 0.80575 0.76611 0.9737 0.0
H810 H 0.96187 0.8093 0.93212 0.0
H811 H 0.91391 0.80581 0.94897 0.0
H812 H 0.91246 0.76525 -0.00258 0.0
C813 C 0.817 0.78951 0.01955 0.0
C814 C 0.82867 0.76542 0.97901 0.0
C815 C 0.7917 0.79156 0.02932 0.0
C816 C 0.95323 0.79129 0.94214 0.0
C817 C 0.92557 0.78914 0.95174 0.0
C818 C 0.88904 0.76493 -0.00791 0.0
C819 C 0.80557 0.76709 0.00613 0.0
C820 C 0.8326 0.76559 -0.00441 0.0
C821 C 0.91385 0.76652 0.96501 0.0
C822 C 0.88538 0.76528 0.97552 0.0
H823 H 0.71433 0.73249 0.00956 0.0
H824 H 0.75855 0.72875 -0.0074 0.0
H825 H 0.86654 0.76483 0.01474 0.0
H826 H 0.96983 0.73165 0.9617 0.0
H827 H 0.92135 0.72774 0.97837 0.0
C828 C -0.02363 0.77411 0.35349 0.0
C829 C 0.95764 0.74751 0.34194 0.0
C830 C 0.00534 0.8074 0.34919 0.0
C831 C 0.04685 0.86903 0.31584 0.0
H832 H 0.13691 0.90093 0.33909 0.0
C833 C 0.18484 -0.01659 0.29363 0.0
C834 C 0.21122 0.00468 0.30498 0.0
C835 C 0.15195 0.95405 0.29836 0.0
C836 C 0.11188 0.89295 0.33264 0.0
H837 H 0.95375 0.73548 0.31676 0.0
H838 H 0.00408 0.7938 0.30928 0.0
H839 H 0.08263 0.84659 0.34712 0.0
H840 H 0.22304 0.01326 0.33017 0.0
H841 H 0.16535 0.96321 0.33844 0.0
H842 H 0.0759 0.91555 0.30144 0.0
C843 C -0.00361 0.78878 0.32164 0.0
C844 C 0.08079 0.86166 0.33724 0.0
C845 C 0.96775 0.75533 0.32596 0.0
C846 C 0.20344 -0.00297 0.32114 0.0
C847 C 0.17041 0.96813 0.32587 0.0
C848 C 0.07788 0.90067 0.31136 0.0
C849 C 0.01581 0.81493 0.33325 0.0
C850 C 0.04807 0.84923 0.32881 0.0
C851 C 0.14455 0.9457 0.31455 0.0
C852 C 0.11091 0.91291 0.31963 0.0
H853 H 0.96925 0.76894 0.3659 0.0
H854 H 0.01975 0.82722 0.35835 0.0
H855 H 0.02184 0.86011 0.30922 0.0
H856 H 0.19015 -0.01142 0.28108 0.0
H857 H 0.13294 0.93723 0.28928 0.0
C858 C 0.18246 -0.01272 0.68524 0.0
C859 C 0.18928 0.96816 0.67356 0.0
C860 C 0.1784 0.01646 0.68103 0.0
C861 C 0.15694 0.0582 0.64793 0.0
H862 H 0.22096 0.14762 0.66937 0.0
C863 C 0.18541 0.19425 0.62297 0.0
C864 C 0.1928 0.22207 0.63366 0.0
C865 C 0.18101 0.16176 0.62845 0.0
C866 C 0.20228 0.12283 0.66344 0.0
H867 H 0.19559 0.9636 0.64829 0.0
H868 H 0.18784 0.01406 0.64098 0.0
H869 H 0.2188 0.09292 0.67813 0.0
H870 H 0.19973 0.23712 0.65853 0.0
H871 H 0.19068 0.18018 0.66814 0.0
H872 H 0.14006 0.08783 0.63331 0.0
C873 C 0.1859 0.00665 0.65336 0.0
C874 C 0.20119 0.09149 0.66846 0.0
C875 C 0.19056 0.97792 0.65757 0.0
C876 C 0.19453 0.21634 0.64997 0.0
C877 C 0.18955 0.18371 0.65547 0.0
C878 C 0.1576 0.08946 0.64304 0.0
C879 C 0.1804 0.02656 0.66506 0.0
C880 C 0.17891 0.05899 0.66061 0.0
C881 C 0.18333 0.15615 0.64478 0.0
C882 C 0.18071 0.12233 0.65058 0.0
H883 H 0.18139 0.98043 0.69766 0.0
H884 H 0.17402 0.03132 0.69027 0.0
H885 H 0.13929 0.03337 0.64176 0.0
H886 H 0.18409 0.19793 0.61032 0.0
H887 H 0.17683 0.14146 0.61982 0.0
loop_
_geom_bond_atom_site_label_1
_geom_bond_atom_site_label_2
_geom_bond_distance
_geom_bond_site_symmetry_2
_ccdc_geom_bond_type
C0 O1 1.306 . S
C0 O3 1.160 . S
O1 C0 1.306 . S
O1 Cd2 2.228 . S
Cd2 O1 2.228 . S
Cd2 O6 2.273 . S
Cd2 O10 2.277 . S
O3 C0 1.160 . S
O3 Cd4 2.203 . S
Cd4 O3 2.203 . S
Cd4 O6 2.411 . S
Cd4 O7 2.333 . S
Cd4 O8 2.352 . S
Cd4 O12 2.277 . S
Cd4 O13 2.356 . S
C5 O10 1.209 . S
C5 O12 1.226 . S
O6 Cd2 2.273 . S
O6 Cd4 2.411 . S
O6 C9 1.320 . S
O7 Cd4 2.333 . S
O7 C9 1.214 . S
O8 Cd4 2.352 . S
O8 C11 1.258 . S
C9 O6 1.320 . S
C9 O7 1.214 . S
O10 Cd2 2.277 . S
O10 C5 1.209 . S
C11 O8 1.258 . S
C11 O13 1.282 . S
O12 Cd4 2.277 . S
O12 C5 1.226 . S
O13 Cd4 2.356 . S
O13 C11 1.282 . S
C14 O15 1.306 . S
C14 O17 1.160 . S
O15 C14 1.306 . S
O15 Cd16 2.228 . S
Cd16 O15 2.228 . S
Cd16 O20 2.273 . S
Cd16 O24 2.277 . S
O17 C14 1.160 . S
O17 Cd18 2.203 . S
Cd18 O17 2.203 . S
Cd18 O20 2.411 . S
Cd18 O21 2.333 . S
Cd18 O22 2.352 . S
Cd18 O26 2.277 . S
Cd18 O27 2.356 . S
C19 O24 1.209 . S
C19 O26 1.226 . S
O20 Cd16 2.273 . S
O20 Cd18 2.411 . S
O20 C23 1.320 . S
O21 Cd18 2.333 . S
O21 C23 1.214 . S
O22 Cd18 2.352 . S
O22 C25 1.258 . S
C23 O20 1.320 . S
C23 O21 1.214 . S
O24 Cd16 2.277 . S
O24 C19 1.209 . S
C25 O22 1.258 . S
C25 O27 1.282 . S
O26 Cd18 2.277 . S
O26 C19 1.226 . S
O27 Cd18 2.356 . S
O27 C25 1.282 . S
C28 O29 1.306 . S
C28 O31 1.160 . S
O29 C28 1.306 . S
O29 Cd30 2.228 . S
Cd30 O29 2.228 . S
Cd30 O34 2.273 . S
Cd30 O38 2.277 . S
O31 C28 1.160 . S
O31 Cd32 2.203 . S
Cd32 O31 2.203 . S
Cd32 O34 2.411 . S
Cd32 O35 2.333 . S
Cd32 O36 2.352 . S
Cd32 O40 2.277 . S
Cd32 O41 2.356 . S
C33 O38 1.209 . S
C33 O40 1.226 . S
O34 Cd30 2.273 . S
O34 Cd32 2.411 . S
O34 C37 1.320 . S
O35 Cd32 2.333 . S
O35 C37 1.214 . S
O36 Cd32 2.352 . S
O36 C39 1.258 . S
C37 O34 1.320 . S
C37 O35 1.214 . S
O38 Cd30 2.277 . S
O38 C33 1.209 . S
C39 O36 1.258 . S
C39 O41 1.282 . S
O40 Cd32 2.277 . S
O40 C33 1.226 . S
O41 Cd32 2.356 . S
O41 C39 1.282 . S
C42 O43 1.306 . S
C42 O45 1.160 . S
O43 C42 1.306 . S
O43 Cd44 2.228 . S
Cd44 O43 2.228 . S
Cd44 O48 2.273 . S
Cd44 O52 2.277 . S
O45 C42 1.160 . S
O45 Cd46 2.203 . S
Cd46 O45 2.203 . S
Cd46 O48 2.411 . S
Cd46 O49 2.333 . S
Cd46 O50 2.352 . S
Cd46 O54 2.277 . S
Cd46 O55 2.356 . S
C47 O52 1.209 . S
C47 O54 1.226 . S
O48 Cd44 2.273 . S
O48 Cd46 2.411 . S
O48 C51 1.320 . S
O49 Cd46 2.333 . S
O49 C51 1.214 . S
O50 Cd46 2.352 . S
O50 C53 1.258 . S
C51 O48 1.320 . S
C51 O49 1.214 . S
O52 Cd44 2.277 . S
O52 C47 1.209 . S
C53 O50 1.258 . S
C53 O55 1.282 . S
O54 Cd46 2.277 . S
O54 C47 1.226 . S
O55 Cd46 2.356 . S
O55 C53 1.282 . S
C56 O57 1.306 . S
C56 O59 1.160 . S
O57 C56 1.306 . S
O57 Cd58 2.228 . S
Cd58 O57 2.228 . S
Cd58 O62 2.273 . S
Cd58 O66 2.277 . S
O59 C56 1.160 . S
O59 Cd60 2.203 . S
Cd60 O59 2.203 . S
Cd60 O62 2.411 . S
Cd60 O63 2.333 . S
Cd60 O64 2.352 . S
Cd60 O68 2.277 . S
Cd60 O69 2.356 . S
C61 O66 1.209 . S
C61 O68 1.226 . S
O62 Cd58 2.273 . S
O62 Cd60 2.411 . S
O62 C65 1.320 . S
O63 Cd60 2.333 . S
O63 C65 1.214 . S
O64 Cd60 2.352 . S
O64 C67 1.258 . S
C65 O62 1.320 . S
C65 O63 1.214 . S
O66 Cd58 2.277 . S
O66 C61 1.209 . S
C67 O64 1.258 . S
C67 O69 1.282 . S
O68 Cd60 2.277 . S
O68 C61 1.226 . S
O69 Cd60 2.356 . S
O69 C67 1.282 . S
C70 O71 1.306 . S
C70 O73 1.160 . S
O71 C70 1.306 . S
O71 Cd72 2.228 . S
Cd72 O71 2.228 . S
Cd72 O76 2.273 . S
Cd72 O80 2.277 . S
O73 C70 1.160 . S
O73 Cd74 2.203 . S
Cd74 O73 2.203 . S
Cd74 O76 2.411 . S
Cd74 O77 2.333 . S
Cd74 O78 2.352 . S
Cd74 O82 2.277 . S
Cd74 O83 2.356 . S
C75 O80 1.209 . S
C75 O82 1.226 . S
O76 Cd72 2.273 . S
O76 Cd74 2.411 . S
O76 C79 1.320 . S
O77 Cd74 2.333 . S
O77 C79 1.214 . S
O78 Cd74 2.352 . S
O78 C81 1.258 . S
C79 O76 1.320 . S
C79 O77 1.214 . S
O80 Cd72 2.277 . S
O80 C75 1.209 . S
C81 O78 1.258 . S
C81 O83 1.282 . S
O82 Cd74 2.277 . S
O82 C75 1.226 . S
O83 Cd74 2.356 . S
O83 C81 1.282 . S
C84 O85 1.306 . S
C84 O87 1.160 . S
O85 C84 1.306 . S
O85 Cd86 2.228 . S
Cd86 O85 2.228 . S
Cd86 O90 2.273 . S
Cd86 O94 2.277 . S
O87 C84 1.160 . S
O87 Cd88 2.203 . S
Cd88 O87 2.203 . S
Cd88 O90 2.411 . S
Cd88 O91 2.333 . S
Cd88 O92 2.352 . S
Cd88 O96 2.277 . S
Cd88 O97 2.356 . S
C89 O94 1.209 . S
C89 O96 1.226 . S
O90 Cd86 2.273 . S
O90 Cd88 2.411 . S
O90 C93 1.320 . S
O91 Cd88 2.333 . S
O91 C93 1.214 . S
O92 Cd88 2.352 . S
O92 C95 1.258 . S
C93 O90 1.320 . S
C93 O91 1.214 . S
O94 Cd86 2.277 . S
O94 C89 1.209 . S
C95 O92 1.258 . S
C95 O97 1.282 . S
O96 Cd88 2.277 . S
O96 C89 1.226 . S
O97 Cd88 2.356 . S
O97 C95 1.282 . S
C98 O99 1.306 . S
C98 O101 1.160 . S
O99 C98 1.306 . S
O99 Cd100 2.228 . S
Cd100 O99 2.228 . S
Cd100 O104 2.273 . S
Cd100 O108 2.277 . S
O101 C98 1.160 . S
O101 Cd102 2.203 . S
Cd102 O101 2.203 . S
Cd102 O104 2.411 . S
Cd102 O105 2.333 . S
Cd102 O106 2.352 . S
Cd102 O110 2.277 . S
Cd102 O111 2.356 . S
C103 O108 1.209 . S
C103 O110 1.226 . S
O104 Cd100 2.273 . S
O104 Cd102 2.411 . S
O104 C107 1.320 . S
O105 Cd102 2.333 . S
O105 C107 1.214 . S
O106 Cd102 2.352 . S
O106 C109 1.258 . S
C107 O104 1.320 . S
C107 O105 1.214 . S
O108 Cd100 2.277 . S
O108 C103 1.209 . S
C109 O106 1.258 . S
C109 O111 1.282 . S
O110 Cd102 2.277 . S
O110 C103 1.226 . S
O111 Cd102 2.356 . S
O111 C109 1.282 . S
C112 O113 1.306 . S
C112 O115 1.160 . S
O113 C112 1.306 . S
O113 Cd114 2.228 . S
Cd114 O113 2.228 . S
Cd114 O118 2.273 . S
Cd114 O122 2.277 . S
O115 C112 1.160 . S
O115 Cd116 2.203 . S
Cd116 O115 2.203 . S
Cd116 O118 2.411 . S
Cd116 O119 2.333 . S
Cd116 O120 2.352 . S
Cd116 O124 2.277 . S
Cd116 O125 2.356 . S
C117 O122 1.209 . S
C117 O124 1.226 . S
O118 Cd114 2.273 . S
O118 Cd116 2.411 . S
O118 C121 1.320 . S
O119 Cd116 2.333 . S
O119 C121 1.214 . S
O120 Cd116 2.352 . S
O120 C123 1.258 . S
C121 O118 1.320 . S
C121 O119 1.214 . S
O122 Cd114 2.277 . S
O122 C117 1.209 . S
C123 O120 1.258 . S
C123 O125 1.282 . S
O124 Cd116 2.277 . S
O124 C117 1.226 . S
O125 Cd116 2.356 . S
O125 C123 1.282 . S
C126 O127 1.306 . S
C126 O129 1.160 . S
O127 C126 1.306 . S
O127 Cd128 2.228 . S
Cd128 O127 2.228 . S
Cd128 O132 2.273 . S
Cd128 O136 2.277 . S
O129 C126 1.160 . S
O129 Cd130 2.203 . S
Cd130 O129 2.203 . S
Cd130 O132 2.411 . S
Cd130 O133 2.333 . S
Cd130 O134 2.352 . S
Cd130 O138 2.277 . S
Cd130 O139 2.356 . S
C131 O136 1.209 . S
C131 O138 1.226 . S
O132 Cd128 2.273 . S
O132 Cd130 2.411 . S
O132 C135 1.320 . S
O133 Cd130 2.333 . S
O133 C135 1.214 . S
O134 Cd130 2.352 . S
O134 C137 1.258 . S
C135 O132 1.320 . S
C135 O133 1.214 . S
O136 Cd128 2.277 . S
O136 C131 1.209 . S
C137 O134 1.258 . S
C137 O139 1.282 . S
O138 Cd130 2.277 . S
O138 C131 1.226 . S
O139 Cd130 2.356 . S
O139 C137 1.282 . S
C140 O141 1.306 . S
C140 O143 1.160 . S
O141 C140 1.306 . S
O141 Cd142 2.228 . S
Cd142 O141 2.228 . S
Cd142 O146 2.273 . S
Cd142 O150 2.277 . S
O143 C140 1.160 . S
O143 Cd144 2.203 . S
Cd144 O143 2.203 . S
Cd144 O146 2.411 . S
Cd144 O147 2.333 . S
Cd144 O148 2.352 . S
Cd144 O152 2.277 . S
Cd144 O153 2.356 . S
C145 O150 1.209 . S
C145 O152 1.226 . S
O146 Cd142 2.273 . S
O146 Cd144 2.411 . S
O146 C149 1.320 . S
O147 Cd144 2.333 . S
O147 C149 1.214 . S
O148 Cd144 2.352 . S
O148 C151 1.258 . S
C149 O146 1.320 . S
C149 O147 1.214 . S
O150 Cd142 2.277 . S
O150 C145 1.209 . S
C151 O148 1.258 . S
C151 O153 1.282 . S
O152 Cd144 2.277 . S
O152 C145 1.226 . S
O153 Cd144 2.356 . S
O153 C151 1.282 . S
C154 O155 1.306 . S
C154 O157 1.160 . S
O155 C154 1.306 . S
O155 Cd156 2.228 . S
Cd156 O155 2.228 . S
Cd156 O160 2.273 . S
Cd156 O164 2.277 . S
O157 C154 1.160 . S
O157 Cd158 2.203 . S
Cd158 O157 2.203 . S
Cd158 O160 2.411 . S
Cd158 O161 2.333 . S
Cd158 O162 2.352 . S
Cd158 O166 2.277 . S
Cd158 O167 2.356 . S
C159 O164 1.209 . S
C159 O166 1.226 . S
O160 Cd156 2.273 . S
O160 Cd158 2.411 . S
O160 C163 1.320 . S
O161 Cd158 2.333 . S
O161 C163 1.214 . S
O162 Cd158 2.352 . S
O162 C165 1.258 . S
C163 O160 1.320 . S
C163 O161 1.214 . S
O164 Cd156 2.277 . S
O164 C159 1.209 . S
C165 O162 1.258 . S
C165 O167 1.282 . S
O166 Cd158 2.277 . S
O166 C159 1.226 . S
O167 Cd158 2.356 . S
O167 C165 1.282 . S
C168 C169 1.349 . S
C168 C170 1.327 . S
C168 H193 0.950 . S
C169 C168 1.349 . S
C169 C185 1.349 . S
C170 C168 1.327 . S
C170 C189 1.429 . S
C170 H194 0.950 . S
C171 C188 1.574 . S
C171 C190 1.368 . S
C171 H195 0.949 . S
H172 C176 0.949 . S
C173 C174 1.349 . S
C173 C175 1.327 . S
C173 H196 0.950 . S
C174 C173 1.349 . S
C174 C186 1.349 . S
C175 C173 1.327 . S
C175 C191 1.429 . S
C175 H197 0.950 . S
C176 H172 0.949 . S
C176 C184 1.574 . S
C176 C192 1.368 . S
H177 C185 0.950 . S
H178 C183 0.950 . S
H179 C184 0.949 . S
H180 C186 0.950 . S
H181 C187 0.950 . S
H182 C188 0.949 . S
C183 H178 0.950 . S
C183 C185 1.327 . S
C183 C189 1.429 . S
C184 C176 1.574 . S
C184 H179 0.949 . S
C184 C190 1.368 . S
C185 C169 1.349 . S
C185 H177 0.950 . S
C185 C183 1.327 . S
C186 C174 1.349 . S
C186 H180 0.950 . S
C186 C187 1.327 . S
C187 H181 0.950 . S
C187 C186 1.327 . S
C187 C191 1.429 . S
C188 C171 1.574 . S
C188 H182 0.949 . S
C188 C192 1.368 . S
C189 C170 1.429 . S
C189 C183 1.429 . S
C189 C190 1.523 . S
C190 C171 1.368 . S
C190 C184 1.368 . S
C190 C189 1.523 . S
C191 C175 1.429 . S
C191 C187 1.429 . S
C191 C192 1.523 . S
C192 C176 1.368 . S
C192 C188 1.368 . S
C192 C191 1.523 . S
H193 C168 0.950 . S
H194 C170 0.950 . S
H195 C171 0.949 . S
H196 C173 0.950 . S
H197 C175 0.950 . S
C198 C199 1.349 . S
C198 C200 1.327 . S
C198 H223 0.950 . S
C199 C198 1.349 . S
C199 C215 1.349 . S
C200 C198 1.327 . S
C200 C219 1.429 . S
C200 H224 0.950 . S
C201 C218 1.574 . S
C201 C220 1.368 . S
C201 H225 0.949 . S
H202 C206 0.949 . S
C203 C204 1.349 . S
C203 C205 1.327 . S
C203 H226 0.950 . S
C204 C203 1.349 . S
C204 C216 1.349 . S
C205 C203 1.327 . S
C205 C221 1.429 . S
C205 H227 0.950 . S
C206 H202 0.949 . S
C206 C214 1.574 . S
C206 C222 1.368 . S
H207 C215 0.950 . S
H208 C213 0.950 . S
H209 C214 0.949 . S
H210 C216 0.950 . S
H211 C217 0.950 . S
H212 C218 0.949 . S
C213 H208 0.950 . S
C213 C215 1.327 . S
C213 C219 1.429 . S
C214 C206 1.574 . S
C214 H209 0.949 . S
C214 C220 1.368 1_655 S
C215 C199 1.349 . S
C215 H207 0.950 . S
C215 C213 1.327 . S
C216 C204 1.349 . S
C216 H210 0.950 . S
C216 C217 1.327 . S
C217 H211 0.950 . S
C217 C216 1.327 . S
C217 C221 1.429 . S
C218 C201 1.574 . S
C218 H212 0.949 . S
C218 C222 1.368 1_455 S
C219 C200 1.429 . S
C219 C213 1.429 . S
C219 C220 1.523 . S
C220 C201 1.368 . S
C220 C214 1.368 1_455 S
C220 C219 1.523 . S
C221 C205 1.429 . S
C221 C217 1.429 . S
C221 C222 1.523 . S
C222 C206 1.368 . S
C222 C218 1.368 1_655 S
C222 C221 1.523 . S
H223 C198 0.950 . S
H224 C200 0.950 . S
H225 C201 0.949 . S
H226 C203 0.950 . S
H227 C205 0.950 . S
C228 C229 1.349 . S
C228 C230 1.327 . S
C228 H253 0.950 . S
C229 C228 1.349 . S
C229 C245 1.349 . S
C230 C228 1.327 . S
C230 C249 1.429 . S
C230 H254 0.950 . S
C231 C248 1.574 . S
C231 C250 1.368 . S
C231 H255 0.949 . S
H232 C236 0.949 . S
C233 C234 1.349 . S
C233 C235 1.327 . S
C233 H256 0.950 . S
C234 C233 1.349 . S
C234 C246 1.349 . S
C235 C233 1.327 . S
C235 C251 1.429 . S
C235 H257 0.950 . S
C236 H232 0.949 . S
C236 C244 1.574 . S
C236 C252 1.368 . S
H237 C245 0.950 . S
H238 C243 0.950 . S
H239 C244 0.949 . S
H240 C246 0.950 . S
H241 C247 0.950 . S
H242 C248 0.949 . S
C243 H238 0.950 . S
C243 C245 1.327 . S
C243 C249 1.429 . S
C244 C236 1.574 . S
C244 H239 0.949 . S
C244 C250 1.368 1_545 S
C245 C229 1.349 . S
C245 H237 0.950 . S
C245 C243 1.327 . S
C246 C234 1.349 . S
C246 H240 0.950 . S
C246 C247 1.327 . S
C247 H241 0.950 . S
C247 C246 1.327 . S
C247 C251 1.429 . S
C248 C231 1.574 . S
C248 H242 0.949 . S
C248 C252 1.368 1_565 S
C249 C230 1.429 . S
C249 C243 1.429 . S
C249 C250 1.523 . S
C250 C231 1.368 . S
C250 C244 1.368 1_565 S
C250 C249 1.523 . S
C251 C235 1.429 . S
C251 C247 1.429 . S
C251 C252 1.523 . S
C252 C236 1.368 . S
C252 C248 1.368 1_545 S
C252 C251 1.523 . S
H253 C228 0.950 . S
H254 C230 0.950 . S
H255 C231 0.949 . S
H256 C233 0.950 . S
H257 C235 0.950 . S
C258 C259 1.349 . S
C258 C260 1.327 . S
C258 H283 0.950 . S
C259 C258 1.349 . S
C259 C275 1.349 . S
C260 C258 1.327 . S
C260 C279 1.429 . S
C260 H284 0.950 . S
C261 C278 1.574 . S
C261 C280 1.368 . S
C261 H285 0.949 . S
H262 C266 0.949 . S
C263 C264 1.349 . S
C263 C265 1.327 . S
C263 H286 0.950 . S
C264 C263 1.349 . S
C264 C276 1.349 . S
C265 C263 1.327 . S
C265 C281 1.429 . S
C265 H287 0.950 . S
C266 H262 0.949 . S
C266 C274 1.574 . S
C266 C282 1.368 . S
H267 C275 0.950 . S
H268 C273 0.950 . S
H269 C274 0.949 . S
H270 C276 0.950 . S
H271 C277 0.950 . S
H272 C278 0.949 . S
C273 H268 0.950 . S
C273 C275 1.327 . S
C273 C279 1.429 . S
C274 C266 1.574 . S
C274 H269 0.949 . S
C274 C280 1.368 . S
C275 C259 1.349 . S
C275 H267 0.950 . S
C275 C273 1.327 . S
C276 C264 1.349 . S
C276 H270 0.950 . S
C276 C277 1.327 . S
C277 H271 0.950 . S
C277 C276 1.327 . S
C277 C281 1.429 . S
C278 C261 1.574 . S
C278 H272 0.949 . S
C278 C282 1.368 . S
C279 C260 1.429 . S
C279 C273 1.429 . S
C279 C280 1.523 . S
C280 C261 1.368 . S
C280 C274 1.368 . S
C280 C279 1.523 . S
C281 C265 1.429 . S
C281 C277 1.429 . S
C281 C282 1.523 . S
C282 C266 1.368 . S
C282 C278 1.368 . S
C282 C281 1.523 . S
H283 C258 0.950 . S
H284 C260 0.950 . S
H285 C261 0.949 . S
H286 C263 0.950 . S
H287 C265 0.950 . S
C288 C289 1.349 . S
C288 C290 1.327 . S
C288 H313 0.950 . S
C289 C288 1.349 . S
C289 C305 1.349 . S
C290 C288 1.327 . S
C290 C309 1.429 . S
C290 H314 0.950 . S
C291 C308 1.574 . S
C291 C310 1.368 . S
C291 H315 0.949 . S
H292 C296 0.949 . S
C293 C294 1.349 . S
C293 C295 1.327 . S
C293 H316 0.950 . S
C294 C293 1.349 . S
C294 C306 1.349 . S
C295 C293 1.327 . S
C295 C311 1.429 . S
C295 H317 0.950 . S
C296 H292 0.949 . S
C296 C304 1.574 . S
C296 C312 1.368 . S
H297 C305 0.950 . S
H298 C303 0.950 . S
H299 C304 0.949 . S
H300 C306 0.950 . S
H301 C307 0.950 . S
H302 C308 0.949 . S
C303 H298 0.950 . S
C303 C305 1.327 . S
C303 C309 1.429 . S
C304 C296 1.574 . S
C304 H299 0.949 . S
C304 C310 1.368 1_455 S
C305 C289 1.349 . S
C305 H297 0.950 . S
C305 C303 1.327 . S
C306 C294 1.349 . S
C306 H300 0.950 . S
C306 C307 1.327 . S
C307 H301 0.950 . S
C307 C306 1.327 . S
C307 C311 1.429 . S
C308 C291 1.574 . S
C308 H302 0.949 . S
C308 C312 1.368 1_655 S
C309 C290 1.429 . S
C309 C303 1.429 . S
C309 C310 1.523 . S
C310 C291 1.368 . S
C310 C304 1.368 1_655 S
C310 C309 1.523 . S
C311 C295 1.429 . S
C311 C307 1.429 . S
C311 C312 1.523 . S
C312 C296 1.368 . S
C312 C308 1.368 1_455 S
C312 C311 1.523 . S
H313 C288 0.950 . S
H314 C290 0.950 . S
H315 C291 0.949 . S
H316 C293 0.950 . S
H317 C295 0.950 . S
C318 C319 1.349 . S
C318 C320 1.327 . S
C318 H343 0.950 . S
C319 C318 1.349 . S
C319 C335 1.349 . S
C320 C318 1.327 . S
C320 C339 1.429 . S
C320 H344 0.950 . S
C321 C338 1.574 . S
C321 C340 1.368 . S
C321 H345 0.949 . S
H322 C326 0.949 . S
C323 C324 1.349 . S
C323 C325 1.327 . S
C323 H346 0.950 . S
C324 C323 1.349 . S
C324 C336 1.349 . S
C325 C323 1.327 . S
C325 C341 1.429 . S
C325 H347 0.950 . S
C326 H322 0.949 . S
C326 C334 1.574 . S
C326 C342 1.368 . S
H327 C335 0.950 . S
H328 C333 0.950 . S
H329 C334 0.949 . S
H330 C336 0.950 . S
H331 C337 0.950 . S
H332 C338 0.949 . S
C333 H328 0.950 . S
C333 C335 1.327 . S
C333 C339 1.429 . S
C334 C326 1.574 . S
C334 H329 0.949 . S
C334 C340 1.368 1_565 S
C335 C319 1.349 . S
C335 H327 0.950 . S
C335 C333 1.327 . S
C336 C324 1.349 . S
C336 H330 0.950 . S
C336 C337 1.327 . S
C337 H331 0.950 . S
C337 C336 1.327 . S
C337 C341 1.429 . S
C338 C321 1.574 . S
C338 H332 0.949 . S
C338 C342 1.368 1_545 S
C339 C320 1.429 . S
C339 C333 1.429 . S
C339 C340 1.523 . S
C340 C321 1.368 . S
C340 C334 1.368 1_545 S
C340 C339 1.523 . S
C341 C325 1.429 . S
C341 C337 1.429 . S
C341 C342 1.523 . S
C342 C326 1.368 . S
C342 C338 1.368 1_565 S
C342 C341 1.523 . S
H343 C318 0.950 . S
H344 C320 0.950 . S
H345 C321 0.949 . S
H346 C323 0.950 . S
H347 C325 0.950 . S
C348 C349 1.349 . S
C348 C350 1.327 . S
C348 H373 0.950 . S
C349 C348 1.349 . S
C349 C365 1.349 . S
C350 C348 1.327 . S
C350 C369 1.429 . S
C350 H374 0.950 . S
C351 C368 1.574 . S
C351 C370 1.368 . S
C351 H375 0.949 . S
H352 C356 0.949 . S
C353 C354 1.349 . S
C353 C355 1.327 . S
C353 H376 0.950 . S
C354 C353 1.349 . S
C354 C366 1.349 . S
C355 C353 1.327 . S
C355 C371 1.429 . S
C355 H377 0.950 . S
C356 H352 0.949 . S
C356 C364 1.574 . S
C356 C372 1.368 . S
H357 C365 0.950 . S
H358 C363 0.950 . S
H359 C364 0.949 . S
H360 C366 0.950 . S
H361 C367 0.950 . S
H362 C368 0.949 . S
C363 H358 0.950 . S
C363 C365 1.327 . S
C363 C369 1.429 . S
C364 C356 1.574 . S
C364 H359 0.949 . S
C364 C370 1.368 . S
C365 C349 1.349 . S
C365 H357 0.950 . S
C365 C363 1.327 . S
C366 C354 1.349 . S
C366 H360 0.950 . S
C366 C367 1.327 . S
C367 H361 0.950 . S
C367 C366 1.327 . S
C367 C371 1.429 . S
C368 C351 1.574 . S
C368 H362 0.949 . S
C368 C372 1.368 . S
C369 C350 1.429 . S
C369 C363 1.429 . S
C369 C370 1.523 . S
C370 C351 1.368 . S
C370 C364 1.368 . S
C370 C369 1.523 . S
C371 C355 1.429 . S
C371 C367 1.429 . S
C371 C372 1.523 . S
C372 C356 1.368 . S
C372 C368 1.368 . S
C372 C371 1.523 . S
H373 C348 0.950 . S
H374 C350 0.950 . S
H375 C351 0.949 . S
H376 C353 0.950 . S
H377 C355 0.950 . S
C378 C379 1.349 . S
C378 C380 1.327 . S
C378 H403 0.950 . S
C379 C378 1.349 . S
C379 C395 1.349 . S
C380 C378 1.327 . S
C380 C399 1.429 . S
C380 H404 0.950 . S
C381 C398 1.574 . S
C381 C400 1.368 . S
C381 H405 0.949 . S
H382 C386 0.949 . S
C383 C384 1.349 . S
C383 C385 1.327 . S
C383 H406 0.950 . S
C384 C383 1.349 . S
C384 C396 1.349 . S
C385 C383 1.327 . S
C385 C401 1.429 . S
C385 H407 0.950 . S
C386 H382 0.949 . S
C386 C394 1.574 . S
C386 C402 1.368 . S
H387 C395 0.950 . S
H388 C393 0.950 . S
H389 C394 0.949 . S
H390 C396 0.950 . S
H391 C397 0.950 . S
H392 C398 0.949 . S
C393 H388 0.950 . S
C393 C395 1.327 . S
C393 C399 1.429 . S
C394 C386 1.574 . S
C394 H389 0.949 . S
C394 C400 1.368 . S
C395 C379 1.349 . S
C395 H387 0.950 . S
C395 C393 1.327 . S
C396 C384 1.349 . S
C396 H390 0.950 . S
C396 C397 1.327 . S
C397 H391 0.950 . S
C397 C396 1.327 . S
C397 C401 1.429 . S
C398 C381 1.574 . S
C398 H392 0.949 . S
C398 C402 1.368 . S
C399 C380 1.429 . S
C399 C393 1.429 . S
C399 C400 1.523 . S
C400 C381 1.368 . S
C400 C394 1.368 . S
C400 C399 1.523 . S
C401 C385 1.429 . S
C401 C397 1.429 . S
C401 C402 1.523 . S
C402 C386 1.368 . S
C402 C398 1.368 . S
C402 C401 1.523 . S
H403 C378 0.950 . S
H404 C380 0.950 . S
H405 C381 0.949 . S
H406 C383 0.950 . S
H407 C385 0.950 . S
C408 C409 1.349 . S
C408 C410 1.327 . S
C408 H433 0.950 . S
C409 C408 1.349 . S
C409 C425 1.349 . S
C410 C408 1.327 . S
C410 C429 1.429 . S
C410 H434 0.950 . S
C411 C428 1.574 . S
C411 C430 1.368 . S
C411 H435 0.949 . S
H412 C416 0.949 . S
C413 C414 1.349 . S
C413 C415 1.327 . S
C413 H436 0.950 . S
C414 C413 1.349 . S
C414 C426 1.349 . S
C415 C413 1.327 . S
C415 C431 1.429 . S
C415 H437 0.950 . S
C416 H412 0.949 . S
C416 C424 1.574 . S
C416 C432 1.368 . S
H417 C425 0.950 . S
H418 C423 0.950 . S
H419 C424 0.949 . S
H420 C426 0.950 . S
H421 C427 0.950 . S
H422 C428 0.949 . S
C423 H418 0.950 . S
C423 C425 1.327 . S
C423 C429 1.429 . S
C424 C416 1.574 . S
C424 H419 0.949 . S
C424 C430 1.368 . S
C425 C409 1.349 . S
C425 H417 0.950 . S
C425 C423 1.327 . S
C426 C414 1.349 . S
C426 H420 0.950 . S
C426 C427 1.327 . S
C427 H421 0.950 . S
C427 C426 1.327 . S
C427 C431 1.429 . S
C428 C411 1.574 . S
C428 H422 0.949 . S
C428 C432 1.368 . S
C429 C410 1.429 . S
C429 C423 1.429 . S
C429 C430 1.523 . S
C430 C411 1.368 . S
C430 C424 1.368 . S
C430 C429 1.523 . S
C431 C415 1.429 . S
C431 C427 1.429 . S
C431 C432 1.523 . S
C432 C416 1.368 . S
C432 C428 1.368 . S
C432 C431 1.523 . S
H433 C408 0.950 . S
H434 C410 0.950 . S
H435 C411 0.949 . S
H436 C413 0.950 . S
H437 C415 0.950 . S
C438 C439 1.349 . S
C438 C440 1.327 . S
C438 H463 0.950 . S
C439 C438 1.349 . S
C439 C455 1.349 . S
C440 C438 1.327 . S
C440 C459 1.429 . S
C440 H464 0.950 . S
C441 C458 1.574 . S
C441 C460 1.368 . S
C441 H465 0.949 . S
H442 C446 0.949 . S
C443 C444 1.349 . S
C443 C445 1.327 . S
C443 H466 0.950 . S
C444 C443 1.349 . S
C444 C456 1.349 . S
C445 C443 1.327 . S
C445 C461 1.429 . S
C445 H467 0.950 . S
C446 H442 0.949 . S
C446 C454 1.574 . S
C446 C462 1.368 . S
H447 C455 0.950 . S
H448 C453 0.950 . S
H449 C454 0.949 . S
H450 C456 0.950 . S
H451 C457 0.950 . S
H452 C458 0.949 . S
C453 H448 0.950 . S
C453 C455 1.327 . S
C453 C459 1.429 . S
C454 C446 1.574 . S
C454 H449 0.949 . S
C454 C460 1.368 . S
C455 C439 1.349 . S
C455 H447 0.950 . S
C455 C453 1.327 . S
C456 C444 1.349 . S
C456 H450 0.950 . S
C456 C457 1.327 . S
C457 H451 0.950 . S
C457 C456 1.327 . S
C457 C461 1.429 . S
C458 C441 1.574 . S
C458 H452 0.949 . S
C458 C462 1.368 . S
C459 C440 1.429 . S
C459 C453 1.429 . S
C459 C460 1.523 . S
C460 C441 1.368 . S
C460 C454 1.368 . S
C460 C459 1.523 . S
C461 C445 1.429 . S
C461 C457 1.429 . S
C461 C462 1.523 . S
C462 C446 1.368 . S
C462 C458 1.368 . S
C462 C461 1.523 . S
H463 C438 0.950 . S
H464 C440 0.950 . S
H465 C441 0.949 . S
H466 C443 0.950 . S
H467 C445 0.950 . S
C468 C469 1.349 . S
C468 C470 1.327 . S
C468 H493 0.950 . S
C469 C468 1.349 . S
C469 C485 1.349 . S
C470 C468 1.327 . S
C470 C489 1.429 . S
C470 H494 0.950 . S
C471 C488 1.574 . S
C471 C490 1.368 . S
C471 H495 0.949 . S
H472 C476 0.949 . S
C473 C474 1.349 . S
C473 C475 1.327 . S
C473 H496 0.950 . S
C474 C473 1.349 . S
C474 C486 1.349 . S
C475 C473 1.327 . S
C475 C491 1.429 . S
C475 H497 0.950 . S
C476 H472 0.949 . S
C476 C484 1.574 . S
C476 C492 1.368 . S
H477 C485 0.950 . S
H478 C483 0.950 . S
H479 C484 0.949 . S
H480 C486 0.950 . S
H481 C487 0.950 . S
H482 C488 0.949 . S
C483 H478 0.950 . S
C483 C485 1.327 . S
C483 C489 1.429 . S
C484 C476 1.574 . S
C484 H479 0.949 . S
C484 C490 1.368 . S
C485 C469 1.349 . S
C485 H477 0.950 . S
C485 C483 1.327 . S
C486 C474 1.349 . S
C486 H480 0.950 . S
C486 C487 1.327 . S
C487 H481 0.950 . S
C487 C486 1.327 . S
C487 C491 1.429 . S
C488 C471 1.574 . S
C488 H482 0.949 . S
C488 C492 1.368 . S
C489 C470 1.429 . S
C489 C483 1.429 . S
C489 C490 1.523 . S
C490 C471 1.368 . S
C490 C484 1.368 . S
C490 C489 1.523 . S
C491 C475 1.429 . S
C491 C487 1.429 . S
C491 C492 1.523 . S
C492 C476 1.368 . S
C492 C488 1.368 . S
C492 C491 1.523 . S
H493 C468 0.950 . S
H494 C470 0.950 . S
H495 C471 0.949 . S
H496 C473 0.950 . S
H497 C475 0.950 . S
C498 C499 1.349 . S
C498 C500 1.327 . S
C498 H523 0.950 . S
C499 C498 1.349 . S
C499 C515 1.349 . S
C500 C498 1.327 . S
C500 C519 1.429 . S
C500 H524 0.950 . S
C501 C518 1.574 . S
C501 C520 1.368 . S
C501 H525 0.949 . S
H502 C506 0.949 . S
C503 C504 1.349 . S
C503 C505 1.327 . S
C503 H526 0.950 . S
C504 C503 1.349 . S
C504 C516 1.349 . S
C505 C503 1.327 . S
C505 C521 1.429 . S
C505 H527 0.950 . S
C506 H502 0.949 . S
C506 C514 1.574 . S
C506 C522 1.368 . S
H507 C515 0.950 . S
H508 C513 0.950 . S
H509 C514 0.949 . S
H510 C516 0.950 . S
H511 C517 0.950 . S
H512 C518 0.949 . S
C513 H508 0.950 . S
C513 C515 1.327 . S
C513 C519 1.429 . S
C514 C506 1.574 . S
C514 H509 0.949 . S
C514 C520 1.368 . S
C515 C499 1.349 . S
C515 H507 0.950 . S
C515 C513 1.327 . S
C516 C504 1.349 . S
C516 H510 0.950 . S
C516 C517 1.327 . S
C517 H511 0.950 . S
C517 C516 1.327 . S
C517 C521 1.429 . S
C518 C501 1.574 . S
C518 H512 0.949 . S
C518 C522 1.368 . S
C519 C500 1.429 . S
C519 C513 1.429 . S
C519 C520 1.523 . S
C520 C501 1.368 . S
C520 C514 1.368 . S
C520 C519 1.523 . S
C521 C505 1.429 . S
C521 C517 1.429 . S
C521 C522 1.523 . S
C522 C506 1.368 . S
C522 C518 1.368 . S
C522 C521 1.523 . S
H523 C498 0.950 . S
H524 C500 0.950 . S
H525 C501 0.949 . S
H526 C503 0.950 . S
H527 C505 0.950 . S
C528 C529 1.349 . S
C528 C530 1.327 . S
C528 H553 0.950 . S
C529 C528 1.349 . S
C529 C545 1.349 . S
C530 C528 1.327 . S
C530 C549 1.429 . S
C530 H554 0.950 1_556 S
C531 C548 1.574 1_565 S
C531 C550 1.368 . S
C531 H555 0.949 . S
H532 C536 0.949 . S
C533 C534 1.349 . S
C533 C535 1.327 . S
C533 H556 0.950 . S
C534 C533 1.349 . S
C534 C546 1.349 . S
C535 C533 1.327 . S
C535 C551 1.429 . S
C535 H557 0.950 1_554 S
C536 H532 0.949 . S
C536 C544 1.574 1_545 S
C536 C552 1.368 . S
H537 C545 0.950 . S
H538 C543 0.950 . S
H539 C544 0.949 . S
H540 C546 0.950 . S
H541 C547 0.950 . S
H542 C548 0.949 . S
C543 H538 0.950 . S
C543 C545 1.327 . S
C543 C549 1.429 . S
C544 C536 1.574 1_565 S
C544 H539 0.949 . S
C544 C550 1.368 1_554 S
C545 C529 1.349 . S
C545 H537 0.950 . S
C545 C543 1.327 . S
C546 C534 1.349 . S
C546 H540 0.950 . S
C546 C547 1.327 . S
C547 H541 0.950 . S
C547 C546 1.327 . S
C547 C551 1.429 . S
C548 C531 1.574 1_545 S
C548 H542 0.949 . S
C548 C552 1.368 1_556 S
C549 C530 1.429 . S
C549 C543 1.429 . S
C549 C550 1.523 . S
C550 C531 1.368 . S
C550 C544 1.368 1_556 S
C550 C549 1.523 . S
C551 C535 1.429 . S
C551 C547 1.429 . S
C551 C552 1.523 . S
C552 C536 1.368 . S
C552 C548 1.368 1_554 S
C552 C551 1.523 . S
H553 C528 0.950 . S
H554 C530 0.950 1_554 S
H555 C531 0.949 . S
H556 C533 0.950 . S
H557 C535 0.950 1_556 S
C558 C559 1.349 . S
C558 C560 1.327 . S
C558 H583 0.950 . S
C559 C558 1.349 . S
C559 C575 1.349 . S
C560 C558 1.327 . S
C560 C579 1.429 . S
C560 H584 0.950 . S
C561 C578 1.574 . S
C561 C580 1.368 . S
C561 H585 0.949 . S
H562 C566 0.949 . S
C563 C564 1.349 . S
C563 C565 1.327 . S
C563 H586 0.950 . S
C564 C563 1.349 . S
C564 C576 1.349 . S
C565 C563 1.327 . S
C565 C581 1.429 . S
C565 H587 0.950 . S
C566 H562 0.949 . S
C566 C574 1.574 . S
C566 C582 1.368 . S
H567 C575 0.950 . S
H568 C573 0.950 . S
H569 C574 0.949 . S
H570 C576 0.950 . S
H571 C577 0.950 . S
H572 C578 0.949 . S
C573 H568 0.950 . S
C573 C575 1.327 . S
C573 C579 1.429 . S
C574 C566 1.574 . S
C574 H569 0.949 . S
C574 C580 1.368 . S
C575 C559 1.349 . S
C575 H567 0.950 . S
C575 C573 1.327 . S
C576 C564 1.349 . S
C576 H570 0.950 . S
C576 C577 1.327 . S
C577 H571 0.950 . S
C577 C576 1.327 . S
C577 C581 1.429 . S
C578 C561 1.574 . S
C578 H572 0.949 . S
C578 C582 1.368 . S
C579 C560 1.429 . S
C579 C573 1.429 . S
C579 C580 1.523 . S
C580 C561 1.368 . S
C580 C574 1.368 . S
C580 C579 1.523 . S
C581 C565 1.429 . S
C581 C577 1.429 . S
C581 C582 1.523 . S
C582 C566 1.368 . S
C582 C578 1.368 . S
C582 C581 1.523 . S
H583 C558 0.950 . S
H584 C560 0.950 . S
H585 C561 0.949 . S
H586 C563 0.950 . S
H587 C565 0.950 . S
C588 C589 1.349 . S
C588 C590 1.327 . S
C588 H613 0.950 . S
C589 C588 1.349 . S
C589 C605 1.349 . S
C590 C588 1.327 . S
C590 C609 1.429 . S
C590 H614 0.950 . S
C591 C608 1.574 1_655 S
C591 C610 1.368 . S
C591 H615 0.949 . S
H592 C596 0.949 . S
C593 C594 1.349 . S
C593 C595 1.327 . S
C593 H616 0.950 . S
C594 C593 1.349 . S
C594 C606 1.349 . S
C595 C593 1.327 . S
C595 C611 1.429 . S
C595 H617 0.950 . S
C596 H592 0.949 . S
C596 C604 1.574 1_455 S
C596 C612 1.368 . S
H597 C605 0.950 . S
H598 C603 0.950 . S
H599 C604 0.949 . S
H600 C606 0.950 . S
H601 C607 0.950 . S
H602 C608 0.949 . S
C603 H598 0.950 . S
C603 C605 1.327 . S
C603 C609 1.429 . S
C604 C596 1.574 1_655 S
C604 H599 0.949 . S
C604 C610 1.368 . S
C605 C589 1.349 . S
C605 H597 0.950 . S
C605 C603 1.327 . S
C606 C594 1.349 . S
C606 H600 0.950 . S
C606 C607 1.327 . S
C607 H601 0.950 . S
C607 C606 1.327 . S
C607 C611 1.429 . S
C608 C591 1.574 1_455 S
C608 H602 0.949 . S
C608 C612 1.368 . S
C609 C590 1.429 . S
C609 C603 1.429 . S
C609 C610 1.523 . S
C610 C591 1.368 . S
C610 C604 1.368 . S
C610 C609 1.523 . S
C611 C595 1.429 . S
C611 C607 1.429 . S
C611 C612 1.523 . S
C612 C596 1.368 . S
C612 C608 1.368 . S
C612 C611 1.523 . S
H613 C588 0.950 . S
H614 C590 0.950 . S
H615 C591 0.949 . S
H616 C593 0.950 . S
H617 C595 0.950 . S
C618 C619 1.349 . S
C618 C620 1.327 . S
C618 H643 0.950 . S
C619 C618 1.349 . S
C619 C635 1.349 . S
C620 C618 1.327 . S
C620 C639 1.429 . S
C620 H644 0.950 1_554 S
C621 C638 1.574 1_565 S
C621 C640 1.368 . S
C621 H645 0.949 . S
H622 C626 0.949 . S
C623 C624 1.349 . S
C623 C625 1.327 . S
C623 H646 0.950 . S
C624 C623 1.349 . S
C624 C636 1.349 . S
C625 C623 1.327 . S
C625 C641 1.429 . S
C625 H647 0.950 1_556 S
C626 H622 0.949 . S
C626 C634 1.574 1_545 S
C626 C642 1.368 . S
H627 C635 0.950 . S
H628 C633 0.950 . S
H629 C634 0.949 . S
H630 C636 0.950 . S
H631 C637 0.950 . S
H632 C638 0.949 . S
C633 H628 0.950 . S
C633 C635 1.327 . S
C633 C639 1.429 . S
C634 C626 1.574 1_565 S
C634 H629 0.949 . S
C634 C640 1.368 1_556 S
C635 C619 1.349 . S
C635 H627 0.950 . S
C635 C633 1.327 . S
C636 C624 1.349 . S
C636 H630 0.950 . S
C636 C637 1.327 . S
C637 H631 0.950 . S
C637 C636 1.327 . S
C637 C641 1.429 . S
C638 C621 1.574 1_545 S
C638 H632 0.949 . S
C638 C642 1.368 1_554 S
C639 C620 1.429 . S
C639 C633 1.429 . S
C639 C640 1.523 . S
C640 C621 1.368 . S
C640 C634 1.368 1_554 S
C640 C639 1.523 . S
C641 C625 1.429 . S
C641 C637 1.429 . S
C641 C642 1.523 . S
C642 C626 1.368 . S
C642 C638 1.368 1_556 S
C642 C641 1.523 . S
H643 C618 0.950 . S
H644 C620 0.950 1_556 S
H645 C621 0.949 . S
H646 C623 0.950 . S
H647 C625 0.950 1_554 S
C648 C649 1.349 . S
C648 C650 1.327 . S
C648 H673 0.950 . S
C649 C648 1.349 . S
C649 C665 1.349 . S
C650 C648 1.327 . S
C650 C669 1.429 . S
C650 H674 0.950 . S
C651 C668 1.574 . S
C651 C670 1.368 . S
C651 H675 0.949 . S
H652 C656 0.949 . S
C653 C654 1.349 . S
C653 C655 1.327 . S
C653 H676 0.950 . S
C654 C653 1.349 . S
C654 C666 1.349 . S
C655 C653 1.327 . S
C655 C671 1.429 . S
C655 H677 0.950 . S
C656 H652 0.949 . S
C656 C664 1.574 . S
C656 C672 1.368 . S
H657 C665 0.950 . S
H658 C663 0.950 . S
H659 C664 0.949 . S
H660 C666 0.950 . S
H661 C667 0.950 . S
H662 C668 0.949 . S
C663 H658 0.950 . S
C663 C665 1.327 . S
C663 C669 1.429 . S
C664 C656 1.574 . S
C664 H659 0.949 . S
C664 C670 1.368 . S
C665 C649 1.349 . S
C665 H657 0.950 . S
C665 C663 1.327 . S
C666 C654 1.349 . S
C666 H660 0.950 . S
C666 C667 1.327 . S
C667 H661 0.950 . S
C667 C666 1.327 . S
C667 C671 1.429 . S
C668 C651 1.574 . S
C668 H662 0.949 . S
C668 C672 1.368 . S
C669 C650 1.429 . S
C669 C663 1.429 . S
C669 C670 1.523 . S
C670 C651 1.368 . S
C670 C664 1.368 . S
C670 C669 1.523 . S
C671 C655 1.429 . S
C671 C667 1.429 . S
C671 C672 1.523 . S
C672 C656 1.368 . S
C672 C668 1.368 . S
C672 C671 1.523 . S
H673 C648 0.950 . S
H674 C650 0.950 . S
H675 C651 0.949 . S
H676 C653 0.950 . S
H677 C655 0.950 . S
C678 C679 1.349 . S
C678 C680 1.327 . S
C678 H703 0.950 . S
C679 C678 1.349 . S
C679 C695 1.349 . S
C680 C678 1.327 . S
C680 C699 1.429 . S
C680 H704 0.950 . S
C681 C698 1.574 1_455 S
C681 C700 1.368 . S
C681 H705 0.949 . S
H682 C686 0.949 . S
C683 C684 1.349 . S
C683 C685 1.327 . S
C683 H706 0.950 . S
C684 C683 1.349 . S
C684 C696 1.349 . S
C685 C683 1.327 . S
C685 C701 1.429 . S
C685 H707 0.950 . S
C686 H682 0.949 . S
C686 C694 1.574 1_655 S
C686 C702 1.368 . S
H687 C695 0.950 . S
H688 C693 0.950 . S
H689 C694 0.949 . S
H690 C696 0.950 . S
H691 C697 0.950 . S
H692 C698 0.949 . S
C693 H688 0.950 . S
C693 C695 1.327 . S
C693 C699 1.429 . S
C694 C686 1.574 1_455 S
C694 H689 0.949 . S
C694 C700 1.368 . S
C695 C679 1.349 . S
C695 H687 0.950 . S
C695 C693 1.327 . S
C696 C684 1.349 . S
C696 H690 0.950 . S
C696 C697 1.327 . S
C697 H691 0.950 . S
C697 C696 1.327 . S
C697 C701 1.429 . S
C698 C681 1.574 1_655 S
C698 H692 0.949 . S
C698 C702 1.368 . S
C699 C680 1.429 . S
C699 C693 1.429 . S
C699 C700 1.523 . S
C700 C681 1.368 . S
C700 C694 1.368 . S
C700 C699 1.523 . S
C701 C685 1.429 . S
C701 C697 1.429 . S
C701 C702 1.523 . S
C702 C686 1.368 . S
C702 C698 1.368 . S
C702 C701 1.523 . S
H703 C678 0.950 . S
H704 C680 0.950 . S
H705 C681 0.949 . S
H706 C683 0.950 . S
H707 C685 0.950 . S
C708 C709 1.349 1_455 S
C708 C710 1.327 . S
C708 H733 0.950 1_455 S
C709 C708 1.349 1_655 S
C709 C725 1.349 1_655 S
C710 C708 1.327 . S
C710 C729 1.429 . S
C710 H734 0.950 . S
C711 C728 1.574 . S
C711 C730 1.368 1_554 S
C711 H735 0.949 . S
H712 C716 0.949 . S
C713 C714 1.349 . S
C713 C715 1.327 . S
C713 H736 0.950 . S
C714 C713 1.349 . S
C714 C726 1.349 . S
C715 C713 1.327 . S
C715 C731 1.429 . S
C715 H737 0.950 . S
C716 H712 0.949 . S
C716 C724 1.574 . S
C716 C732 1.368 1_556 S
H717 C725 0.950 . S
H718 C723 0.950 . S
H719 C724 0.949 . S
H720 C726 0.950 . S
H721 C727 0.950 . S
H722 C728 0.949 . S
C723 H718 0.950 . S
C723 C725 1.327 . S
C723 C729 1.429 . S
C724 C716 1.574 . S
C724 H719 0.949 . S
C724 C730 1.368 . S
C725 C709 1.349 1_455 S
C725 H717 0.950 . S
C725 C723 1.327 . S
C726 C714 1.349 . S
C726 H720 0.950 . S
C726 C727 1.327 . S
C727 H721 0.950 . S
C727 C726 1.327 . S
C727 C731 1.429 . S
C728 C711 1.574 . S
C728 H722 0.949 . S
C728 C732 1.368 . S
C729 C710 1.429 . S
C729 C723 1.429 . S
C729 C730 1.523 . S
C730 C711 1.368 1_556 S
C730 C724 1.368 . S
C730 C729 1.523 . S
C731 C715 1.429 . S
C731 C727 1.429 . S
C731 C732 1.523 . S
C732 C716 1.368 1_554 S
C732 C728 1.368 . S
C732 C731 1.523 . S
H733 C708 0.950 1_655 S
H734 C710 0.950 . S
H735 C711 0.949 . S
H736 C713 0.950 . S
H737 C715 0.950 . S
C738 C739 1.349 1_565 S
C738 C740 1.327 1_565 S
C738 H763 0.950 . S
C739 C738 1.349 1_545 S
C739 C755 1.349 . S
C740 C738 1.327 1_545 S
C740 C759 1.429 . S
C740 H764 0.950 . S
C741 C758 1.574 . S
C741 C760 1.368 . S
C741 H765 0.949 . S
H742 C746 0.949 . S
C743 C744 1.329 1_655 S
C743 C745 1.327 . S
C743 H766 0.950 . S
C744 C743 1.329 1_455 S
C744 C756 1.357 1_455 S
C745 C743 1.327 . S
C745 C761 1.429 . S
C745 H767 0.950 . S
C746 H742 0.949 . S
C746 C754 1.574 . S
C746 C762 1.368 . S
H747 C755 0.950 . S
H748 C753 0.950 . S
H749 C754 0.949 . S
H750 C756 0.950 1_455 S
H751 C757 0.950 . S
H752 C758 0.949 . S
C753 H748 0.950 . S
C753 C755 1.327 . S
C753 C759 1.429 . S
C754 C746 1.574 . S
C754 H749 0.949 . S
C754 C760 1.368 . S
C755 C739 1.349 . S
C755 H747 0.950 . S
C755 C753 1.327 . S
C756 C744 1.357 1_655 S
C756 H750 0.950 1_655 S
C756 C757 1.327 . S
C757 H751 0.950 . S
C757 C756 1.327 . S
C757 C761 1.429 . S
C758 C741 1.574 . S
C758 H752 0.949 . S
C758 C762 1.368 . S
C759 C740 1.429 . S
C759 C753 1.429 . S
C759 C760 1.523 . S
C760 C741 1.368 . S
C760 C754 1.368 . S
C760 C759 1.523 . S
C761 C745 1.429 . S
C761 C757 1.429 . S
C761 C762 1.523 . S
C762 C746 1.368 . S
C762 C758 1.368 . S
C762 C761 1.523 . S
H763 C738 0.950 . S
H764 C740 0.950 . S
H765 C741 0.949 . S
H766 C743 0.950 . S
H767 C745 0.950 . S
C768 C769 1.349 . S
C768 C770 1.327 . S
C768 H793 0.950 . S
C769 C768 1.349 . S
C769 C785 1.349 . S
C770 C768 1.327 . S
C770 C789 1.429 . S
C770 H794 0.950 . S
C771 C788 1.574 . S
C771 C790 1.368 . S
C771 H795 0.949 . S
H772 C776 0.949 . S
C773 C774 1.349 . S
C773 C775 1.327 . S
C773 H796 0.950 . S
C774 C773 1.349 . S
C774 C786 1.349 . S
C775 C773 1.327 . S
C775 C791 1.429 . S
C775 H797 0.950 . S
C776 H772 0.949 . S
C776 C784 1.574 . S
C776 C792 1.368 . S
H777 C785 0.950 . S
H778 C783 0.950 . S
H779 C784 0.949 . S
H780 C786 0.950 . S
H781 C787 0.950 . S
H782 C788 0.949 . S
C783 H778 0.950 . S
C783 C785 1.327 . S
C783 C789 1.429 . S
C784 C776 1.574 . S
C784 H779 0.949 . S
C784 C790 1.368 . S
C785 C769 1.349 . S
C785 H777 0.950 . S
C785 C783 1.327 . S
C786 C774 1.349 . S
C786 H780 0.950 . S
C786 C787 1.327 . S
C787 H781 0.950 . S
C787 C786 1.327 . S
C787 C791 1.429 . S
C788 C771 1.574 . S
C788 H782 0.949 . S
C788 C792 1.368 . S
C789 C770 1.429 . S
C789 C783 1.429 . S
C789 C790 1.523 . S
C790 C771 1.368 . S
C790 C784 1.368 . S
C790 C789 1.523 . S
C791 C775 1.429 . S
C791 C787 1.429 . S
C791 C792 1.523 . S
C792 C776 1.368 . S
C792 C788 1.368 . S
C792 C791 1.523 . S
H793 C768 0.950 . S
H794 C770 0.950 . S
H795 C771 0.949 . S
H796 C773 0.950 . S
H797 C775 0.950 . S
C798 C799 1.349 . S
C798 C800 1.327 . S
C798 H823 0.950 . S
C799 C798 1.349 . S
C799 C815 1.349 . S
C800 C798 1.327 . S
C800 C819 1.429 . S
C800 H824 0.950 . S
C801 C818 1.574 . S
C801 C820 1.368 . S
C801 H825 0.949 . S
H802 C806 0.949 . S
C803 C804 1.349 . S
C803 C805 1.327 1_455 S
C803 H826 0.950 . S
C804 C803 1.349 . S
C804 C816 1.349 1_455 S
C805 C803 1.327 1_655 S
C805 C821 1.429 . S
C805 H827 0.950 . S
C806 H802 0.949 . S
C806 C814 1.574 . S
C806 C822 1.368 . S
H807 C815 0.950 . S
H808 C813 0.950 . S
H809 C814 0.949 . S
H810 C816 0.950 . S
H811 C817 0.950 . S
H812 C818 0.949 . S
C813 H808 0.950 . S
C813 C815 1.327 . S
C813 C819 1.429 . S
C814 C806 1.574 . S
C814 H809 0.949 . S
C814 C820 1.368 1_556 S
C815 C799 1.349 . S
C815 H807 0.950 . S
C815 C813 1.327 . S
C816 C804 1.349 1_655 S
C816 H810 0.950 . S
C816 C817 1.327 . S
C817 H811 0.950 . S
C817 C816 1.327 . S
C817 C821 1.429 . S
C818 C801 1.574 . S
C818 H812 0.949 . S
C818 C822 1.368 1_554 S
C819 C800 1.429 . S
C819 C813 1.429 . S
C819 C820 1.523 . S
C820 C801 1.368 . S
C820 C814 1.368 1_554 S
C820 C819 1.523 . S
C821 C805 1.429 . S
C821 C817 1.429 . S
C821 C822 1.523 . S
C822 C806 1.368 . S
C822 C818 1.368 1_556 S
C822 C821 1.523 . S
H823 C798 0.950 . S
H824 C800 0.950 . S
H825 C801 0.949 . S
H826 C803 0.950 . S
H827 C805 0.950 . S
C828 C829 1.331 1_455 S
C828 C830 1.327 . S
C828 H853 0.950 . S
C829 C828 1.331 1_655 S
C829 C845 1.354 . S
C830 C828 1.327 . S
C830 C849 1.429 . S
C830 H854 0.950 . S
C831 C848 1.574 . S
C831 C850 1.368 . S
C831 H855 0.949 . S
H832 C836 0.949 . S
C833 C834 1.349 . S
C833 C835 1.327 . S
C833 H856 0.950 . S
C834 C833 1.349 . S
C834 C846 1.349 . S
C835 C833 1.327 . S
C835 C851 1.429 . S
C835 H857 0.950 . S
C836 H832 0.949 . S
C836 C844 1.574 . S
C836 C852 1.368 . S
H837 C845 0.950 . S
H838 C843 0.950 . S
H839 C844 0.949 . S
H840 C846 0.950 1_545 S
H841 C847 0.950 . S
H842 C848 0.949 . S
C843 H838 0.950 . S
C843 C845 1.327 1_455 S
C843 C849 1.429 . S
C844 C836 1.574 . S
C844 H839 0.949 . S
C844 C850 1.368 . S
C845 C829 1.354 . S
C845 H837 0.950 . S
C845 C843 1.327 1_655 S
C846 C834 1.349 . S
C846 H840 0.950 1_565 S
C846 C847 1.327 . S
C847 H841 0.950 . S
C847 C846 1.327 . S
C847 C851 1.429 . S
C848 C831 1.574 . S
C848 H842 0.949 . S
C848 C852 1.368 . S
C849 C830 1.429 . S
C849 C843 1.429 . S
C849 C850 1.523 . S
C850 C831 1.368 . S
C850 C844 1.368 . S
C850 C849 1.523 . S
C851 C835 1.429 . S
C851 C847 1.429 . S
C851 C852 1.523 . S
C852 C836 1.368 . S
C852 C848 1.368 . S
C852 C851 1.523 . S
H853 C828 0.950 . S
H854 C830 0.950 . S
H855 C831 0.949 . S
H856 C833 0.950 . S
H857 C835 0.950 . S
C858 C859 1.349 . S
C858 C860 1.327 . S
C858 H883 0.950 . S
C859 C858 1.349 . S
C859 C875 1.349 1_545 S
C860 C858 1.327 . S
C860 C879 1.429 . S
C860 H884 0.950 . S
C861 C878 1.574 . S
C861 C880 1.368 . S
C861 H885 0.949 . S
H862 C866 0.949 . S
C863 C864 1.349 . S
C863 C865 1.327 . S
C863 H886 0.950 . S
C864 C863 1.349 . S
C864 C876 1.349 . S
C865 C863 1.327 . S
C865 C881 1.429 . S
C865 H887 0.950 . S
C866 H862 0.949 . S
C866 C874 1.574 . S
C866 C882 1.368 . S
H867 C875 0.950 . S
H868 C873 0.950 . S
H869 C874 0.949 . S
H870 C876 0.950 . S
H871 C877 0.950 . S
H872 C878 0.949 . S
C873 H868 0.950 . S
C873 C875 1.327 1_545 S
C873 C879 1.429 . S
C874 C866 1.574 . S
C874 H869 0.949 . S
C874 C880 1.368 . S
C875 C859 1.349 1_565 S
C875 H867 0.950 . S
C875 C873 1.327 1_565 S
C876 C864 1.349 . S
C876 H870 0.950 . S
C876 C877 1.327 . S
C877 H871 0.950 . S
C877 C876 1.327 . S
C877 C881 1.429 . S
C878 C861 1.574 . S
C878 H872 0.949 . S
C878 C882 1.368 . S
C879 C860 1.429 . S
C879 C873 1.429 . S
C879 C880 1.523 . S
C880 C861 1.368 . S
C880 C874 1.368 . S
C880 C879 1.523 . S
C881 C865 1.429 . S
C881 C877 1.429 . S
C881 C882 1.523 . S
C882 C866 1.368 . S
C882 C878 1.368 . S
C882 C881 1.523 . S
H883 C858 0.950 . S
H884 C860 0.950 . S
H885 C861 0.949 . S
H886 C863 0.950 . S
H887 C865 0.950 . S
C169 C53 1.208 . S
C174 C11 1.208 . S
C199 C23 1.341 . S
C204 C65 1.341 . S
C229 C79 1.246 . S
C234 C37 1.246 . S
C259 C93 1.341 . S
C264 C135 1.341 . S
C289 C151 1.208 . S
C294 C109 1.208 . S
C319 C121 1.246 . S
C324 C163 1.246 . S
C349 C123 1.662 . S
C354 C9 1.670 . S
C379 C25 1.697 . S
C384 C137 1.697 . S
C409 C39 1.662 . S
C414 C149 1.670 . S
C439 C51 1.670 . S
C444 C165 1.661 . S
C469 C95 1.696 . S
C474 C67 1.696 . S
C499 C107 1.670 . S
C504 C81 1.661 . S
C529 C103 1.113 . S
C534 C5 1.113 . S
C559 C14 1.236 . S
C564 C112 1.241 . S
C589 C28 1.241 . S
C594 C126 1.236 . S
C619 C47 1.113 . S
C624 C145 1.113 . S
C649 C154 1.241 . S
C654 C56 1.237 . S
C679 C70 1.241 . S
C684 C84 1.236 . S
C709 C140 1.280 . S
C714 C0 1.280 . S
C739 C159 1.475 1_545 S
C744 C19 1.489 . S
C769 C89 1.474 . S
C774 C33 1.475 1_565 S
C799 C42 1.280 . S
C804 C98 1.280 . S
C829 C61 1.489 . S
C834 C117 1.475 1_565 S
C859 C75 1.475 1_545 S
C864 C131 1.474 . S
