# Generated by pormake.
# Topology wjb, (6)-cn, num edge types: 1
# Building blocks:
#     Node 0, Type 0, BuildingBlock: IZENUY_clean_sbu_0, # of connection points: 6
#     Node 1, Type 0, BuildingBlock: IZENUY_clean_sbu_0, # of connection points: 6
#     Node 2, Type 0, BuildingBlock: IZENUY_clean_sbu_0, # of connection points: 6
#     Node 3, Type 0, BuildingBlock: IZENUY_clean_sbu_0, # of connection points: 6
#     Node 4, Type 0, BuildingBlock: IZENUY_clean_sbu_0, # of connection points: 6
#     Node 5, Type 0, BuildingBlock: IZENUY_clean_sbu_0, # of connection points: 6
#     Node 6, Type 0, BuildingBlock: IZENUY_clean_sbu_0, # of connection points: 6
#     Node 7, Type 0, BuildingBlock: IZENUY_clean_sbu_0, # of connection points: 6
#     Node 8, Type 0, BuildingBlock: IZENUY_clean_sbu_0, # of connection points: 6
#     Node 9, Type 0, BuildingBlock: IZENUY_clean_sbu_0, # of connection points: 6
#     Node 10, Type 0, BuildingBlock: IZENUY_clean_sbu_0, # of connection points: 6
#     Node 11, Type 0, BuildingBlock: IZENUY_clean_sbu_0, # of connection points: 6
#     Node 12, Type 0, BuildingBlock: IZENUY_clean_sbu_0, # of connection points: 6
#     Node 13, Type 0, BuildingBlock: IZENUY_clean_sbu_0, # of connection points: 6
#     Node 14, Type 0, BuildingBlock: IZENUY_clean_sbu_0, # of connection points: 6
#     Node 15, Type 0, BuildingBlock: IZENUY_clean_sbu_0, # of connection points: 6
#     Node 16, Type 0, BuildingBlock: IZENUY_clean_sbu_0, # of connection points: 6
#     Node 17, Type 0, BuildingBlock: IZENUY_clean_sbu_0, # of connection points: 6
#     Node 18, Type 0, BuildingBlock: IZENUY_clean_sbu_0, # of connection points: 6
#     Node 19, Type 0, BuildingBlock: IZENUY_clean_sbu_0, # of connection points: 6
#     Node 20, Type 0, BuildingBlock: IZENUY_clean_sbu_0, # of connection points: 6
#     Node 21, Type 0, BuildingBlock: IZENUY_clean_sbu_0, # of connection points: 6
#     Node 22, Type 0, BuildingBlock: IZENUY_clean_sbu_0, # of connection points: 6
#     Node 23, Type 0, BuildingBlock: IZENUY_clean_sbu_0, # of connection points: 6
#     Edge 24, Type (0, 0), None
#     Edge 25, Type (0, 0), None
#     Edge 26, Type (0, 0), None
#     Edge 27, Type (0, 0), None
#     Edge 28, Type (0, 0), None
#     Edge 29, Type (0, 0), None
#     Edge 30, Type (0, 0), None
#     Edge 31, Type (0, 0), None
#     Edge 32, Type (0, 0), None
#     Edge 33, Type (0, 0), None
#     Edge 34, Type (0, 0), None
#     Edge 35, Type (0, 0), None
#     Edge 36, Type (0, 0), None
#     Edge 37, Type (0, 0), None
#     Edge 38, Type (0, 0), None
#     Edge 39, Type (0, 0), None
#     Edge 40, Type (0, 0), None
#     Edge 41, Type (0, 0), None
#     Edge 42, Type (0, 0), None
#     Edge 43, Type (0, 0), None
#     Edge 44, Type (0, 0), None
#     Edge 45, Type (0, 0), None
#     Edge 46, Type (0, 0), None
#     Edge 47, Type (0, 0), None
#     Edge 48, Type (0, 0), None
#     Edge 49, Type (0, 0), None
#     Edge 50, Type (0, 0), None
#     Edge 51, Type (0, 0), None
#     Edge 52, Type (0, 0), None
#     Edge 53, Type (0, 0), None
#     Edge 54, Type (0, 0), None
#     Edge 55, Type (0, 0), None
#     Edge 56, Type (0, 0), None
#     Edge 57, Type (0, 0), None
#     Edge 58, Type (0, 0), None
#     Edge 59, Type (0, 0), None
#     Edge 60, Type (0, 0), None
#     Edge 61, Type (0, 0), None
#     Edge 62, Type (0, 0), None
#     Edge 63, Type (0, 0), None
#     Edge 64, Type (0, 0), None
#     Edge 65, Type (0, 0), None
#     Edge 66, Type (0, 0), None
#     Edge 67, Type (0, 0), None
#     Edge 68, Type (0, 0), None
#     Edge 69, Type (0, 0), None
#     Edge 70, Type (0, 0), None
#     Edge 71, Type (0, 0), None
#     Edge 72, Type (0, 0), None
#     Edge 73, Type (0, 0), None
#     Edge 74, Type (0, 0), None
#     Edge 75, Type (0, 0), None
#     Edge 76, Type (0, 0), None
#     Edge 77, Type (0, 0), None
#     Edge 78, Type (0, 0), None
#     Edge 79, Type (0, 0), None
#     Edge 80, Type (0, 0), None
#     Edge 81, Type (0, 0), None
#     Edge 82, Type (0, 0), None
#     Edge 83, Type (0, 0), None
#     Edge 84, Type (0, 0), None
#     Edge 85, Type (0, 0), None
#     Edge 86, Type (0, 0), None
#     Edge 87, Type (0, 0), None
#     Edge 88, Type (0, 0), None
#     Edge 89, Type (0, 0), None
#     Edge 90, Type (0, 0), None
#     Edge 91, Type (0, 0), None
#     Edge 92, Type (0, 0), None
#     Edge 93, Type (0, 0), None
#     Edge 94, Type (0, 0), None
#     Edge 95, Type (0, 0), None
# Relax obj value: 0.472
# Max RMSD: 0.195
# Mean RMSD: 0.195
data_MOF--net-wjb--node1-IZENUY_clean_sbu_0--edge1-none
_symmetry_space_group_name_H-M    P1
_symmetry_Int_Tables_number       1
_symmetry_cell_setting            triclinic
loop_
_symmetry_equiv_pos_as_xyz
'x, y, z'
_cell_length_a     23.915563
_cell_length_b     23.91531
_cell_length_c     25.200182
_cell_angle_alpha  89.955089
_cell_angle_beta   90.022935
_cell_angle_gamma 119.99921
loop_
_atom_site_label
_atom_site_type_symbol
_atom_site_fract_x
_atom_site_fract_y
_atom_site_fract_z
_atom_type_partial_charge
Fe0 Fe 0.216 0.45171 0.16737 0.0
Fe1 Fe 0.14945 0.53423 0.15916 0.0
O2 O 0.21679 0.52544 0.15122 0.0
Fe3 Fe 0.28621 0.58651 0.12554 0.0
O4 O 0.31849 0.58538 0.19039 0.0
O5 O 0.30874 0.49347 0.17695 0.0
O6 O 0.21007 0.46656 0.23623 0.0
C7 C 0.16979 0.48107 0.25519 0.0
C8 C 0.26779 0.47914 0.06783 0.0
O9 O 0.13336 0.49329 0.22547 0.0
C10 C 0.19844 0.58831 0.05959 0.0
O11 O 0.12417 0.39793 0.16581 0.0
O12 O 0.11212 0.46319 0.11773 0.0
O13 O 0.30745 0.53127 0.0911 0.0
O14 O 0.22093 0.43669 0.09519 0.0
C15 C 0.2384 0.66039 0.17823 0.0
O16 O 0.15941 0.57709 0.09718 0.0
O17 O 0.25003 0.58709 0.06473 0.0
C18 C 0.08634 0.4089 0.13809 0.0
O19 O 0.18736 0.61216 0.19588 0.0
O20 O 0.27591 0.65134 0.14919 0.0
C21 C 0.34456 0.55175 0.19381 0.0
Fe22 Fe 0.72938 0.27132 0.62557 0.0
Fe23 Fe 0.79397 0.2011 0.66738 0.0
O24 O 0.72103 0.2019 0.65127 0.0
Fe25 Fe 0.64491 0.13456 0.65926 0.0
O26 O 0.60489 0.17246 0.696 0.0
O27 O 0.65424 0.261 0.64925 0.0
O28 O 0.76279 0.3036 0.69039 0.0
C29 C 0.82249 0.32966 0.69378 0.0
C30 C 0.63979 0.18354 0.55968 0.0
O31 O 0.84495 0.29384 0.67692 0.0
C32 C 0.70713 0.07148 0.6381 0.0
O33 O 0.80585 0.29256 0.59109 0.0
O34 O 0.81392 0.20604 0.5952 0.0
O35 O 0.61199 0.14454 0.5973 0.0
O36 O 0.69261 0.23513 0.56478 0.0
C37 C 0.71843 0.15491 0.75524 0.0
O38 O 0.7559 0.10926 0.66584 0.0
O39 O 0.67864 0.09729 0.61778 0.0
C40 C 0.81833 0.25291 0.56784 0.0
O41 O 0.77322 0.19517 0.73625 0.0
O42 O 0.66978 0.11846 0.72555 0.0
C43 C 0.60769 0.2235 0.67833 0.0
Fe44 Fe 0.48776 0.71457 0.12559 0.0
Fe45 Fe 0.6226 0.77911 0.16728 0.0
O46 O 0.54884 0.70618 0.15121 0.0
Fe47 Fe 0.54005 0.63005 0.1592 0.0
O48 O 0.46212 0.58997 0.19595 0.0
O49 O 0.42295 0.63948 0.14937 0.0
O50 O 0.48899 0.74801 0.19041 0.0
C51 C 0.52262 0.8077 0.19373 0.0
C52 C 0.48587 0.62497 0.05967 0.0
O53 O 0.58088 0.83013 0.17681 0.0
C54 C 0.66536 0.69227 0.13801 0.0
O55 O 0.54301 0.79101 0.09103 0.0
O56 O 0.6376 0.79906 0.0951 0.0
O57 O 0.49718 0.59718 0.09725 0.0
O58 O 0.48705 0.67776 0.0648 0.0
C59 C 0.59322 0.70355 0.25517 0.0
O60 O 0.67635 0.74103 0.16574 0.0
O61 O 0.61107 0.66381 0.1177 0.0
C62 C 0.59514 0.80347 0.06775 0.0
O63 O 0.60776 0.75834 0.23615 0.0
O64 O 0.58099 0.65489 0.22549 0.0
C65 C 0.4139 0.59285 0.17838 0.0
Fe66 Fe 0.8029 0.47288 0.62553 0.0
Fe67 Fe 0.87317 0.6077 0.66718 0.0
O68 O 0.87236 0.53395 0.65112 0.0
Fe69 Fe 0.93971 0.52516 0.6591 0.0
O70 O 0.90184 0.44722 0.69587 0.0
O71 O 0.81319 0.40807 0.64931 0.0
O72 O 0.77068 0.47408 0.69036 0.0
C73 C 0.74461 0.50771 0.69368 0.0
C74 C 0.89062 0.47101 0.55959 0.0
O75 O 0.78043 0.56597 0.67674 0.0
C76 C 1.00282 0.6505 0.63792 0.0
O77 O 0.78171 0.52814 0.59097 0.0
O78 O 0.86824 0.62272 0.59499 0.0
O79 O 0.92973 0.48233 0.59715 0.0
O80 O 0.83901 0.4722 0.56473 0.0
C81 C 0.91937 0.57833 0.75506 0.0
O82 O 0.965 0.66146 0.66561 0.0
O83 O 0.97701 0.59622 0.6176 0.0
C84 C 0.82138 0.58027 0.56766 0.0
O85 O 0.87909 0.59284 0.73606 0.0
O86 O 0.95579 0.56607 0.72538 0.0
C87 C 0.85074 0.399 0.67831 0.0
Fe88 Fe 0.44426 0.92485 0.15902 0.0
Fe89 Fe 0.3598 0.78804 0.12549 0.0
O90 O 0.36814 0.85747 0.15109 0.0
Fe91 Fe 0.29518 0.85824 0.16716 0.0
O92 O 0.31596 0.86417 0.23604 0.0
O93 O 0.41941 0.9409 0.2253 0.0
O94 O 0.48433 0.88698 0.19579 0.0
C95 C 0.48152 0.83593 0.17822 0.0
C96 C 0.38201 0.98794 0.13791 0.0
O97 O 0.43495 0.79838 0.1492 0.0
C98 C 0.27085 0.80646 0.06766 0.0
O99 O 0.47713 0.91489 0.09706 0.0
O100 O 0.39655 0.82422 0.06467 0.0
O101 O 0.3332 0.95006 0.16557 0.0
O102 O 0.41051 0.96218 0.11755 0.0
C103 C 0.26671 0.72972 0.19369 0.0
O104 O 0.28333 0.7668 0.09098 0.0
O105 O 0.27524 0.85331 0.09497 0.0
C106 C 0.44935 0.87582 0.05951 0.0
O107 O 0.3264 0.75572 0.19032 0.0
O108 O 0.24421 0.7655 0.17678 0.0
C109 C 0.37075 0.90448 0.25502 0.0
Fe110 Fe 0.60145 0.34489 0.62554 0.0
Fe111 Fe 0.46662 0.28028 0.66728 0.0
O112 O 0.54035 0.35323 0.65115 0.0
Fe113 Fe 0.5491 0.42936 0.65905 0.0
O114 O 0.62704 0.46943 0.69578 0.0
O115 O 0.66625 0.42002 0.64922 0.0
O116 O 0.60035 0.31148 0.6904 0.0
C117 C 0.56665 0.25179 0.69379 0.0
C118 C 0.60325 0.43444 0.55953 0.0
O119 O 0.50838 0.22929 0.6769 0.0
C120 C 0.42377 0.36711 0.63799 0.0
O121 O 0.54621 0.26842 0.59107 0.0
O122 O 0.45161 0.26033 0.5951 0.0
O123 O 0.59194 0.46223 0.59706 0.0
O124 O 0.60205 0.38164 0.56471 0.0
C125 C 0.49596 0.35587 0.75509 0.0
O126 O 0.41283 0.3183 0.66569 0.0
O127 O 0.47803 0.39561 0.61761 0.0
C128 C 0.49407 0.25594 0.56777 0.0
O129 O 0.48148 0.30108 0.73615 0.0
O130 O 0.5082 0.40452 0.72535 0.0
C131 C 0.67528 0.46661 0.6782 0.0
Fe132 Fe 0.62258 0.85828 0.90839 0.0
Fe133 Fe 0.54002 0.9248 0.91645 0.0
O134 O 0.54883 0.85747 0.92446 0.0
Fe135 Fe 0.48776 0.78803 0.95013 0.0
O136 O 0.48892 0.75579 0.88531 0.0
O137 O 0.58083 0.76555 0.89885 0.0
O138 O 0.60773 0.86421 0.83951 0.0
C139 C 0.5932 0.90447 0.82049 0.0
C140 C 0.59514 0.80647 1.00791 0.0
O141 O 0.58098 0.9409 0.85017 0.0
C142 C 0.48603 0.87582 1.01602 0.0
O143 O 0.67633 0.95012 0.90993 0.0
O144 O 0.61104 0.96208 0.95795 0.0
O145 O 0.543 0.7668 0.98464 0.0
O146 O 0.6376 0.85334 0.98056 0.0
C147 C 0.41388 0.83585 0.89733 0.0
O148 O 0.49716 0.91481 0.9784 0.0
O149 O 0.48716 0.82418 1.01092 0.0
C150 C 0.66535 0.9879 0.93765 0.0
O151 O 0.46211 0.8869 0.87968 0.0
O152 O 0.42294 0.79834 0.9264 0.0
C153 C 0.52255 0.72973 0.88196 0.0
Fe154 Fe 0.794 0.60771 0.40828 0.0
Fe155 Fe 0.64493 0.52514 0.41643 0.0
O156 O 0.72107 0.53395 0.42441 0.0
Fe157 Fe 0.72946 0.47289 0.45008 0.0
O158 O 0.76285 0.47407 0.38525 0.0
O159 O 0.845 0.56597 0.39874 0.0
O160 O 0.77322 0.59286 0.33942 0.0
C161 C 0.71842 0.57832 0.32043 0.0
C162 C 0.81837 0.58027 0.50782 0.0
O163 O 0.66977 0.5661 0.35013 0.0
C164 C 0.63993 0.47112 0.51602 0.0
O165 O 0.75591 0.66146 0.40983 0.0
O166 O 0.67867 0.59616 0.4579 0.0
O167 O 0.80592 0.52813 0.48456 0.0
O168 O 0.81397 0.62273 0.48045 0.0
C169 C 0.60775 0.399 0.39735 0.0
O170 O 0.61206 0.48227 0.47841 0.0
O171 O 0.69269 0.47225 0.51089 0.0
C172 C 0.70715 0.65047 0.43757 0.0
O173 O 0.60491 0.44723 0.37971 0.0
O174 O 0.65433 0.40807 0.4264 0.0
C175 C 0.82255 0.5077 0.38187 0.0
Fe176 Fe 0.14946 0.63003 0.91649 0.0
Fe177 Fe 0.28624 0.71448 0.95011 0.0
O178 O 0.21682 0.70615 0.92443 0.0
Fe179 Fe 0.21603 0.7791 0.90828 0.0
O180 O 0.21009 0.75831 0.83942 0.0
O181 O 0.13337 0.65488 0.85019 0.0
O182 O 0.18735 0.59001 0.87977 0.0
C183 C 0.23837 0.59277 0.89743 0.0
C184 C 0.08638 0.69226 0.93757 0.0
O185 O 0.27588 0.63931 0.92649 0.0
C186 C 0.26784 0.80345 1.0078 0.0
O187 O 0.15944 0.59713 0.97848 0.0
O188 O 0.25004 0.67776 1.01093 0.0
O189 O 0.12421 0.74106 0.90985 0.0
O190 O 0.11216 0.66376 0.95794 0.0
C191 C 0.34454 0.80755 0.88184 0.0
O192 O 0.3075 0.79097 0.98454 0.0
O193 O 0.22099 0.79907 0.98045 0.0
C194 C 0.19842 0.62499 1.01608 0.0
O195 O 0.31855 0.74786 0.88527 0.0
O196 O 0.30877 0.83006 0.89869 0.0
C197 C 0.16981 0.70353 0.82046 0.0
Fe198 Fe 0.60145 0.27134 0.45019 0.0
Fe199 Fe 0.46664 0.20116 0.40839 0.0
O200 O 0.54036 0.20192 0.42453 0.0
Fe201 Fe 0.54913 0.13456 0.41661 0.0
O202 O 0.62706 0.17247 0.37987 0.0
O203 O 0.66626 0.26098 0.42657 0.0
O204 O 0.60041 0.30367 0.38533 0.0
C205 C 0.56672 0.32967 0.3819 0.0
C206 C 0.60308 0.1835 0.51618 0.0
O207 O 0.50843 0.2939 0.39877 0.0
C208 C 0.42378 0.07146 0.43767 0.0
O209 O 0.54621 0.2926 0.48461 0.0
O210 O 0.45161 0.20609 0.48057 0.0
O211 O 0.59196 0.14452 0.4786 0.0
O212 O 0.60194 0.23513 0.51101 0.0
C213 C 0.49599 0.15492 0.32058 0.0
O214 O 0.41285 0.10934 0.40998 0.0
O215 O 0.47805 0.0972 0.45805 0.0
C216 C 0.49408 0.25294 0.50791 0.0
O217 O 0.48151 0.19522 0.33953 0.0
O218 O 0.50822 0.11849 0.35032 0.0
C219 C 0.6753 0.22348 0.39752 0.0
Fe220 Fe 0.29515 0.45172 0.90848 0.0
Fe221 Fe 0.44423 0.53422 0.91666 0.0
O222 O 0.36809 0.52545 0.92458 0.0
Fe223 Fe 0.35972 0.58654 0.95015 0.0
O224 O 0.32634 0.58542 0.88529 0.0
O225 O 0.24416 0.49346 0.89886 0.0
O226 O 0.31596 0.46659 0.83961 0.0
C227 C 0.37075 0.48108 0.82065 0.0
C228 C 0.2708 0.47915 1.00798 0.0
O229 O 0.41942 0.49334 0.85037 0.0
C230 C 0.44921 0.58828 1.01618 0.0
O231 O 0.33319 0.39794 0.91008 0.0
O232 O 0.41048 0.46313 0.95813 0.0
O233 O 0.28326 0.53129 0.98466 0.0
O234 O 0.27518 0.43668 0.98067 0.0
C235 C 0.48146 0.6604 0.89745 0.0
O236 O 0.47706 0.57704 0.97864 0.0
O237 O 0.39646 0.58717 1.01098 0.0
C238 C 0.382 0.40888 0.93776 0.0
O239 O 0.48431 0.61217 0.8799 0.0
O240 O 0.43485 0.65135 0.92643 0.0
C241 C 0.26665 0.55173 0.88194 0.0
Fe242 Fe 0.93969 0.42935 0.41658 0.0
Fe243 Fe 0.80288 0.34486 0.45014 0.0
O244 O 0.87233 0.35322 0.42454 0.0
Fe245 Fe 0.87313 0.28027 0.40849 0.0
O246 O 0.87907 0.30106 0.33961 0.0
O247 O 0.95577 0.40451 0.3503 0.0
O248 O 0.90184 0.46943 0.3798 0.0
C249 C 0.85077 0.46659 0.39737 0.0
C250 C 1.00279 0.36711 0.43775 0.0
O251 O 0.81321 0.41999 0.42639 0.0
C252 C 0.82133 0.25593 0.50799 0.0
O253 O 0.92971 0.4622 0.47853 0.0
O254 O 0.839 0.3816 0.51095 0.0
O255 O 0.96496 0.31833 0.41006 0.0
O256 O 0.97699 0.39558 0.45808 0.0
C257 C 0.74462 0.25177 0.38199 0.0
O258 O 0.78166 0.26839 0.48469 0.0
O259 O 0.86819 0.26031 0.48067 0.0
C260 C 0.89064 0.43435 0.5161 0.0
O261 O 0.77061 0.31146 0.38531 0.0
O262 O 0.7804 0.22928 0.39891 0.0
C263 C 0.91935 0.35585 0.32061 0.0
Fe264 Fe 0.8208 0.47567 0.96213 0.0
Fe265 Fe 0.88335 0.60538 0.90981 0.0
O266 O 0.88389 0.533 0.92386 0.0
Fe267 Fe 0.94247 0.51397 0.90229 0.0
O268 O 0.88358 0.43426 0.87476 0.0
O269 O 0.8308 0.40667 0.94787 0.0
O270 O 0.77097 0.45797 0.90391 0.0
C271 C 0.75257 0.49726 0.8909 0.0
C272 C 0.92358 0.48806 1.01518 0.0
O273 O 0.79182 0.55853 0.89835 0.0
C274 C 1.01782 0.64606 0.92367 0.0
O275 O 0.79222 0.52831 0.98818 0.0
O276 O 0.87656 0.62082 0.98255 0.0
O277 O 0.94507 0.4814 0.96999 0.0
O278 O 0.87574 0.49715 1.01711 0.0
C279 C 0.92187 0.57538 0.81327 0.0
O280 O 0.97321 0.65986 0.91654 0.0
O281 O 1.00607 0.58866 0.92457 0.0
C282 C 0.8262 0.58266 1.00839 0.0
O283 O 0.89128 0.5969 0.8393 0.0
O284 O 0.94768 0.54583 0.83494 0.0
C285 C 0.84501 0.39044 0.90508 0.0
Fe286 Fe 0.30769 0.86849 0.4098 0.0
Fe287 Fe 0.45822 0.92761 0.40219 0.0
O288 O 0.38061 0.86902 0.42382 0.0
Fe289 Fe 0.37485 0.80592 0.46209 0.0
O290 O 0.34274 0.75611 0.4039 0.0
O291 O 0.26301 0.77695 0.39835 0.0
O292 O 0.3241 0.87645 0.33928 0.0
C293 C 0.3762 0.90701 0.31321 0.0
C294 C 0.27326 0.8113 0.50838 0.0
O295 O 0.43156 0.93281 0.33485 0.0
C296 C 0.46523 0.9087 0.51508 0.0
O297 O 0.34306 0.95833 0.41654 0.0
O298 O 0.44714 0.99121 0.42446 0.0
O299 O 0.29364 0.77733 0.48818 0.0
O300 O 0.28545 0.86166 0.48254 0.0
C301 C 0.48429 0.83015 0.405 0.0
O302 O 0.49338 0.9302 0.46988 0.0
O303 O 0.40829 0.86085 0.51705 0.0
C304 C 0.40146 1.00294 0.42365 0.0
O305 O 0.47904 0.86872 0.37467 0.0
O306 O 0.45386 0.81594 0.44781 0.0
C307 C 0.28504 0.73771 0.3909 0.0
Fe308 Fe 0.5603 0.44336 0.90221 0.0
Fe309 Fe 0.59862 0.35998 0.96213 0.0
O310 O 0.54128 0.36575 0.92387 0.0
Fe311 Fe 0.4689 0.29283 0.9099 0.0
O312 O 0.47735 0.30923 0.83938 0.0
O313 O 0.52844 0.41669 0.83489 0.0
O314 O 0.64002 0.4642 0.87466 0.0
C315 C 0.68383 0.46941 0.90498 0.0
C316 C 0.4282 0.38658 0.92374 0.0
O317 O 0.6676 0.43899 0.9478 0.0
C318 C 0.49166 0.25839 1.00848 0.0
O319 O 0.59286 0.47851 0.96989 0.0
O320 O 0.57714 0.39342 1.01708 0.0
O321 O 0.41443 0.32819 0.91665 0.0
O322 O 0.4856 0.43226 0.92451 0.0
C323 C 0.57704 0.27019 0.89097 0.0
O324 O 0.546 0.27877 0.98826 0.0
O325 O 0.45348 0.27057 0.98265 0.0
C326 C 0.58622 0.45036 1.0151 0.0
O327 O 0.61633 0.32789 0.90394 0.0
O328 O 0.51576 0.24815 0.89846 0.0
C329 C 0.49889 0.36133 0.81328 0.0
Fe330 Fe 0.2058 0.45403 0.41 0.0
Fe331 Fe 0.14667 0.54543 0.40231 0.0
O332 O 0.20525 0.52641 0.42395 0.0
Fe333 Fe 0.26834 0.58373 0.46219 0.0
O334 O 0.31816 0.60146 0.40398 0.0
O335 O 0.29734 0.50089 0.39853 0.0
O336 O 0.19787 0.46251 0.33947 0.0
C337 C 0.16729 0.48403 0.31339 0.0
C338 C 0.26295 0.47675 0.50857 0.0
O339 O 0.14148 0.51358 0.335 0.0
C340 C 0.16555 0.57132 0.51519 0.0
O341 O 0.11595 0.39955 0.41674 0.0
O342 O 0.08307 0.47073 0.42464 0.0
O343 O 0.29693 0.5311 0.48832 0.0
O344 O 0.2126 0.43858 0.48275 0.0
C345 C 0.24414 0.66896 0.40501 0.0
O346 O 0.14406 0.57798 0.46998 0.0
O347 O 0.2134 0.56223 0.51716 0.0
C348 C 0.07134 0.41333 0.42382 0.0
O349 O 0.20555 0.62516 0.37472 0.0
O350 O 0.25833 0.65272 0.44783 0.0
C351 C 0.33657 0.56217 0.39102 0.0
Fe352 Fe 0.78149 0.19098 0.91 0.0
Fe353 Fe 0.63096 0.13184 0.9024 0.0
O354 O 0.70857 0.19043 0.92399 0.0
Fe355 Fe 0.71431 0.2535 0.96223 0.0
O356 O 0.74641 0.30338 0.90402 0.0
O357 O 0.82617 0.28252 0.89852 0.0
O358 O 0.76509 0.18308 0.83949 0.0
C359 C 0.71298 0.15246 0.81344 0.0
C360 C 0.8159 0.24809 1.00858 0.0
O361 O 0.65763 0.12665 0.83508 0.0
C362 C 0.62394 0.15068 1.01527 0.0
O363 O 0.74613 0.10112 0.91673 0.0
O364 O 0.64208 0.06826 0.92475 0.0
O365 O 0.79553 0.28208 0.98833 0.0
O366 O 0.80373 0.19775 0.98276 0.0
C367 C 0.6049 0.2293 0.90509 0.0
O368 O 0.59579 0.12921 0.97007 0.0
O369 O 0.68087 0.19853 1.01721 0.0
C370 C 0.68773 0.0565 0.92382 0.0
O371 O 0.61012 0.19073 0.8748 0.0
O372 O 0.63531 0.24348 0.9479 0.0
C373 C 0.80408 0.32171 0.89099 0.0
Fe374 Fe 0.52883 0.61608 0.40238 0.0
Fe375 Fe 0.49053 0.69944 0.46219 0.0
O376 O 0.54785 0.69369 0.42394 0.0
Fe377 Fe 0.62022 0.76662 0.4099 0.0
O378 O 0.61172 0.75021 0.33939 0.0
O379 O 0.56069 0.64275 0.33505 0.0
O380 O 0.44911 0.59525 0.37481 0.0
C381 C 0.40531 0.59003 0.40511 0.0
C382 C 0.66093 0.67285 0.42375 0.0
O383 O 0.42154 0.62044 0.4479 0.0
C384 C 0.59752 0.80102 0.50847 0.0
O385 O 0.49628 0.58091 0.47007 0.0
O386 O 0.51204 0.66599 0.51718 0.0
O387 O 0.67472 0.73125 0.41663 0.0
O388 O 0.60352 0.6272 0.42471 0.0
C389 C 0.5121 0.78922 0.39092 0.0
O390 O 0.54316 0.78065 0.48825 0.0
O391 O 0.63569 0.78885 0.48265 0.0
C392 C 0.50295 0.60905 0.51525 0.0
O393 O 0.47276 0.73155 0.40397 0.0
O394 O 0.57337 0.81131 0.39842 0.0
C395 C 0.59023 0.6981 0.31337 0.0
Fe396 Fe 0.59864 0.25347 0.11354 0.0
Fe397 Fe 0.46891 0.1909 0.16577 0.0
O398 O 0.54129 0.19036 0.15179 0.0
Fe399 Fe 0.56032 0.13177 0.17345 0.0
O400 O 0.64004 0.19066 0.201 0.0
O401 O 0.66762 0.24343 0.12786 0.0
O402 O 0.61634 0.30326 0.17174 0.0
C403 C 0.57705 0.32167 0.1847 0.0
C404 C 0.58616 0.15066 0.06058 0.0
O405 O 0.51578 0.28243 0.17722 0.0
C406 C 0.42822 0.05645 0.15194 0.0
O407 O 0.54603 0.28207 0.08741 0.0
O408 O 0.45347 0.19774 0.09303 0.0
O409 O 0.59287 0.12916 0.10578 0.0
O410 O 0.57716 0.19857 0.05858 0.0
C411 C 0.49891 0.15239 0.26239 0.0
O412 O 0.41444 0.10106 0.15902 0.0
O413 O 0.48562 0.06816 0.15117 0.0
C414 C 0.49168 0.24808 0.06719 0.0
O415 O 0.47737 0.18294 0.23629 0.0
O416 O 0.52847 0.12658 0.24078 0.0
C417 C 0.68386 0.22923 0.17068 0.0
Fe418 Fe 0.30769 0.454 0.66586 0.0
Fe419 Fe 0.45823 0.54541 0.67346 0.0
O420 O 0.38061 0.52638 0.65183 0.0
Fe421 Fe 0.37484 0.58373 0.61356 0.0
O422 O 0.34274 0.60142 0.67177 0.0
O423 O 0.26301 0.50085 0.6773 0.0
O424 O 0.32411 0.46246 0.73638 0.0
C425 C 0.37621 0.484 0.76245 0.0
C426 C 0.27328 0.47676 0.56728 0.0
O427 O 0.43157 0.51355 0.7408 0.0
C428 C 0.46518 0.57126 0.56059 0.0
O429 O 0.34306 0.39953 0.65912 0.0
O430 O 0.44714 0.47072 0.6512 0.0
O431 O 0.29363 0.53111 0.58747 0.0
O432 O 0.28541 0.43856 0.59313 0.0
C433 C 0.48429 0.66894 0.67065 0.0
O434 O 0.49338 0.57797 0.60577 0.0
O435 O 0.40827 0.56226 0.5586 0.0
C436 C 0.40146 0.41331 0.652 0.0
O437 O 0.47904 0.62512 0.70098 0.0
O438 O 0.45385 0.65271 0.62785 0.0
C439 C 0.28505 0.56212 0.68476 0.0
Fe440 Fe 0.94245 0.44331 0.17339 0.0
Fe441 Fe 0.82077 0.35995 0.11354 0.0
O442 O 0.88386 0.3657 0.15181 0.0
Fe443 Fe 0.88332 0.29277 0.16587 0.0
O444 O 0.89126 0.30919 0.23638 0.0
O445 O 0.94765 0.41665 0.24073 0.0
O446 O 0.88356 0.46413 0.20091 0.0
C447 C 0.845 0.46939 0.17059 0.0
C448 C 1.01778 0.38655 0.15201 0.0
O449 O 0.8308 0.43897 0.1278 0.0
C450 C 0.82619 0.25839 0.06729 0.0
O451 O 0.94507 0.47848 0.10569 0.0
O452 O 0.8757 0.39338 0.05856 0.0
O453 O 0.97317 0.32815 0.15914 0.0
O454 O 1.00604 0.43221 0.15111 0.0
C455 C 0.75259 0.27017 0.1848 0.0
O456 O 0.79218 0.27873 0.08749 0.0
O457 O 0.87652 0.27051 0.09314 0.0
C458 C 0.92359 0.45028 0.06052 0.0
O459 O 0.77092 0.32784 0.17175 0.0
O460 O 0.79179 0.24809 0.17733 0.0
C461 C 0.92185 0.3613 0.26241 0.0
Fe462 Fe 0.62022 0.8684 0.66576 0.0
Fe463 Fe 0.52881 0.92753 0.67328 0.0
O464 O 0.54784 0.86894 0.65171 0.0
Fe465 Fe 0.49051 0.80586 0.61347 0.0
O466 O 0.47275 0.756 0.67169 0.0
O467 O 0.57336 0.77686 0.67724 0.0
O468 O 0.6117 0.8763 0.73627 0.0
C469 C 0.59021 0.90692 0.76229 0.0
C470 C 0.5975 0.81131 0.56719 0.0
O471 O 0.56066 0.93273 0.74061 0.0
C472 C 0.50301 0.9087 0.56042 0.0
O473 O 0.6747 0.95826 0.65904 0.0
O474 O 0.60351 0.99111 0.65096 0.0
O475 O 0.54314 0.77729 0.58741 0.0
O476 O 0.6357 0.86163 0.59303 0.0
C477 C 0.40529 0.83008 0.67054 0.0
O478 O 0.49627 0.93016 0.60558 0.0
O479 O 0.51202 0.86081 0.55847 0.0
C480 C 0.66092 1.00288 0.65192 0.0
O481 O 0.4491 0.86864 0.70084 0.0
O482 O 0.42152 0.81589 0.62774 0.0
C483 C 0.51209 0.73767 0.68474 0.0
Fe484 Fe 0.78149 0.60533 0.16567 0.0
Fe485 Fe 0.63096 0.51393 0.17327 0.0
O486 O 0.70857 0.53296 0.15167 0.0
Fe487 Fe 0.71432 0.47563 0.11344 0.0
O488 O 0.74641 0.45786 0.17167 0.0
O489 O 0.82617 0.55847 0.17715 0.0
O490 O 0.76507 0.59681 0.23619 0.0
C491 C 0.71297 0.57533 0.26223 0.0
C492 C 0.81588 0.58262 0.0671 0.0
O493 O 0.65761 0.54578 0.24059 0.0
C494 C 0.62399 0.48813 0.06041 0.0
O495 O 0.74613 0.65982 0.15894 0.0
O496 O 0.64207 0.58864 0.15092 0.0
O497 O 0.79553 0.52826 0.08734 0.0
O498 O 0.80376 0.62082 0.09293 0.0
C499 C 0.60491 0.39041 0.17058 0.0
O500 O 0.59579 0.48139 0.10559 0.0
O501 O 0.68089 0.49715 0.05845 0.0
C502 C 0.68773 0.64605 0.15184 0.0
O503 O 0.61011 0.43421 0.20086 0.0
O504 O 0.63531 0.40665 0.12777 0.0
C505 C 0.80408 0.4972 0.18468 0.0
Fe506 Fe 0.20584 0.76658 0.66567 0.0
Fe507 Fe 0.14669 0.61604 0.67335 0.0
O508 O 0.20529 0.69366 0.6517 0.0
Fe509 Fe 0.26837 0.69941 0.61346 0.0
O510 O 0.31822 0.73149 0.67166 0.0
O511 O 0.29737 0.81125 0.67713 0.0
O512 O 0.1979 0.75017 0.73619 0.0
C513 C 0.16731 0.69807 0.76227 0.0
C514 C 0.26297 0.80097 0.56709 0.0
O515 O 0.14151 0.64271 0.74066 0.0
C516 C 0.16554 0.60909 0.56049 0.0
O517 O 0.11599 0.73123 0.65892 0.0
O518 O 0.0831 0.62716 0.65102 0.0
O519 O 0.29697 0.78062 0.58733 0.0
O520 O 0.21264 0.78885 0.59292 0.0
C521 C 0.24415 0.58997 0.67064 0.0
O522 O 0.14406 0.58088 0.60568 0.0
O523 O 0.21344 0.66599 0.55849 0.0
C524 C 0.07137 0.67283 0.65185 0.0
O525 O 0.20557 0.59519 0.70093 0.0
O526 O 0.25833 0.62039 0.62781 0.0
C527 C 0.33655 0.78915 0.68466 0.0
loop_
_geom_bond_atom_site_label_1
_geom_bond_atom_site_label_2
_geom_bond_distance
_geom_bond_site_symmetry_2
_ccdc_geom_bond_type
Fe0 O2 1.918 . S
Fe0 O5 1.997 . S
Fe0 O6 2.002 . S
Fe0 O11 1.976 . S
Fe0 O14 1.996 . S
Fe1 O2 1.918 . S
Fe1 O9 1.997 . S
Fe1 O12 1.996 . S
Fe1 O16 1.976 . S
Fe1 O19 2.002 . S
O2 Fe0 1.918 . S
O2 Fe1 1.918 . S
O2 Fe3 1.918 . S
Fe3 O2 1.918 . S
Fe3 O4 2.002 . S
Fe3 O13 1.976 . S
Fe3 O17 1.996 . S
Fe3 O20 1.997 . S
O4 Fe3 2.002 . S
O4 C21 1.295 . S
O5 Fe0 1.997 . S
O5 C21 1.235 . S
O6 Fe0 2.002 . S
O6 C7 1.295 . S
C7 O6 1.295 . S
C7 O9 1.235 . S
C8 O13 1.287 . S
C8 O14 1.255 . S
O9 Fe1 1.997 . S
O9 C7 1.235 . S
C10 O16 1.287 . S
C10 O17 1.255 . S
O11 Fe0 1.976 . S
O11 C18 1.287 . S
O12 Fe1 1.996 . S
O12 C18 1.255 . S
O13 Fe3 1.976 . S
O13 C8 1.287 . S
O14 Fe0 1.996 . S
O14 C8 1.255 . S
C15 O19 1.295 . S
C15 O20 1.235 . S
O16 Fe1 1.976 . S
O16 C10 1.287 . S
O17 Fe3 1.996 . S
O17 C10 1.255 . S
C18 O11 1.287 . S
C18 O12 1.255 . S
O19 Fe1 2.002 . S
O19 C15 1.295 . S
O20 Fe3 1.997 . S
O20 C15 1.235 . S
C21 O4 1.295 . S
C21 O5 1.235 . S
Fe22 O24 1.918 . S
Fe22 O27 1.997 . S
Fe22 O28 2.002 . S
Fe22 O33 1.976 . S
Fe22 O36 1.996 . S
Fe23 O24 1.918 . S
Fe23 O31 1.997 . S
Fe23 O34 1.996 . S
Fe23 O38 1.976 . S
Fe23 O41 2.002 . S
O24 Fe22 1.918 . S
O24 Fe23 1.918 . S
O24 Fe25 1.918 . S
Fe25 O24 1.918 . S
Fe25 O26 2.002 . S
Fe25 O35 1.976 . S
Fe25 O39 1.996 . S
Fe25 O42 1.997 . S
O26 Fe25 2.002 . S
O26 C43 1.295 . S
O27 Fe22 1.997 . S
O27 C43 1.235 . S
O28 Fe22 2.002 . S
O28 C29 1.295 . S
C29 O28 1.295 . S
C29 O31 1.235 . S
C30 O35 1.287 . S
C30 O36 1.255 . S
O31 Fe23 1.997 . S
O31 C29 1.235 . S
C32 O38 1.287 . S
C32 O39 1.255 . S
O33 Fe22 1.976 . S
O33 C40 1.287 . S
O34 Fe23 1.996 . S
O34 C40 1.255 . S
O35 Fe25 1.976 . S
O35 C30 1.287 . S
O36 Fe22 1.996 . S
O36 C30 1.255 . S
C37 O41 1.295 . S
C37 O42 1.235 . S
O38 Fe23 1.976 . S
O38 C32 1.287 . S
O39 Fe25 1.996 . S
O39 C32 1.255 . S
C40 O33 1.287 . S
C40 O34 1.255 . S
O41 Fe23 2.002 . S
O41 C37 1.295 . S
O42 Fe25 1.997 . S
O42 C37 1.235 . S
C43 O26 1.295 . S
C43 O27 1.235 . S
Fe44 O46 1.918 . S
Fe44 O49 1.997 . S
Fe44 O50 2.002 . S
Fe44 O55 1.976 . S
Fe44 O58 1.996 . S
Fe45 O46 1.918 . S
Fe45 O53 1.997 . S
Fe45 O56 1.996 . S
Fe45 O60 1.976 . S
Fe45 O63 2.002 . S
O46 Fe44 1.918 . S
O46 Fe45 1.918 . S
O46 Fe47 1.918 . S
Fe47 O46 1.918 . S
Fe47 O48 2.002 . S
Fe47 O57 1.976 . S
Fe47 O61 1.996 . S
Fe47 O64 1.997 . S
O48 Fe47 2.002 . S
O48 C65 1.295 . S
O49 Fe44 1.997 . S
O49 C65 1.235 . S
O50 Fe44 2.002 . S
O50 C51 1.295 . S
C51 O50 1.295 . S
C51 O53 1.235 . S
C52 O57 1.287 . S
C52 O58 1.255 . S
O53 Fe45 1.997 . S
O53 C51 1.235 . S
C54 O60 1.287 . S
C54 O61 1.255 . S
O55 Fe44 1.976 . S
O55 C62 1.287 . S
O56 Fe45 1.996 . S
O56 C62 1.255 . S
O57 Fe47 1.976 . S
O57 C52 1.287 . S
O58 Fe44 1.996 . S
O58 C52 1.255 . S
C59 O63 1.295 . S
C59 O64 1.235 . S
O60 Fe45 1.976 . S
O60 C54 1.287 . S
O61 Fe47 1.996 . S
O61 C54 1.255 . S
C62 O55 1.287 . S
C62 O56 1.255 . S
O63 Fe45 2.002 . S
O63 C59 1.295 . S
O64 Fe47 1.997 . S
O64 C59 1.235 . S
C65 O48 1.295 . S
C65 O49 1.235 . S
Fe66 O68 1.918 . S
Fe66 O71 1.997 . S
Fe66 O72 2.002 . S
Fe66 O77 1.976 . S
Fe66 O80 1.996 . S
Fe67 O68 1.918 . S
Fe67 O75 1.997 . S
Fe67 O78 1.996 . S
Fe67 O82 1.976 . S
Fe67 O85 2.002 . S
O68 Fe66 1.918 . S
O68 Fe67 1.918 . S
O68 Fe69 1.918 . S
Fe69 O68 1.918 . S
Fe69 O70 2.002 . S
Fe69 O79 1.976 . S
Fe69 O83 1.996 . S
Fe69 O86 1.997 . S
O70 Fe69 2.002 . S
O70 C87 1.295 . S
O71 Fe66 1.997 . S
O71 C87 1.235 . S
O72 Fe66 2.002 . S
O72 C73 1.295 . S
C73 O72 1.295 . S
C73 O75 1.235 . S
C74 O79 1.287 . S
C74 O80 1.255 . S
O75 Fe67 1.997 . S
O75 C73 1.235 . S
C76 O82 1.287 . S
C76 O83 1.255 . S
O77 Fe66 1.976 . S
O77 C84 1.287 . S
O78 Fe67 1.996 . S
O78 C84 1.255 . S
O79 Fe69 1.976 . S
O79 C74 1.287 . S
O80 Fe66 1.996 . S
O80 C74 1.255 . S
C81 O85 1.295 . S
C81 O86 1.235 . S
O82 Fe67 1.976 . S
O82 C76 1.287 . S
O83 Fe69 1.996 . S
O83 C76 1.255 . S
C84 O77 1.287 . S
C84 O78 1.255 . S
O85 Fe67 2.002 . S
O85 C81 1.295 . S
O86 Fe69 1.997 . S
O86 C81 1.235 . S
C87 O70 1.295 . S
C87 O71 1.235 . S
Fe88 O90 1.918 . S
Fe88 O93 1.997 . S
Fe88 O94 2.002 . S
Fe88 O99 1.976 . S
Fe88 O102 1.996 . S
Fe89 O90 1.918 . S
Fe89 O97 1.997 . S
Fe89 O100 1.996 . S
Fe89 O104 1.976 . S
Fe89 O107 2.002 . S
O90 Fe88 1.918 . S
O90 Fe89 1.918 . S
O90 Fe91 1.918 . S
Fe91 O90 1.918 . S
Fe91 O92 2.002 . S
Fe91 O101 1.976 . S
Fe91 O105 1.996 . S
Fe91 O108 1.997 . S
O92 Fe91 2.002 . S
O92 C109 1.295 . S
O93 Fe88 1.997 . S
O93 C109 1.235 . S
O94 Fe88 2.002 . S
O94 C95 1.295 . S
C95 O94 1.295 . S
C95 O97 1.235 . S
C96 O101 1.287 . S
C96 O102 1.255 . S
O97 Fe89 1.997 . S
O97 C95 1.235 . S
C98 O104 1.287 . S
C98 O105 1.255 . S
O99 Fe88 1.976 . S
O99 C106 1.287 . S
O100 Fe89 1.996 . S
O100 C106 1.255 . S
O101 Fe91 1.976 . S
O101 C96 1.287 . S
O102 Fe88 1.996 . S
O102 C96 1.255 . S
C103 O107 1.295 . S
C103 O108 1.235 . S
O104 Fe89 1.976 . S
O104 C98 1.287 . S
O105 Fe91 1.996 . S
O105 C98 1.255 . S
C106 O99 1.287 . S
C106 O100 1.255 . S
O107 Fe89 2.002 . S
O107 C103 1.295 . S
O108 Fe91 1.997 . S
O108 C103 1.235 . S
C109 O92 1.295 . S
C109 O93 1.235 . S
Fe110 O112 1.918 . S
Fe110 O115 1.997 . S
Fe110 O116 2.002 . S
Fe110 O121 1.976 . S
Fe110 O124 1.996 . S
Fe111 O112 1.918 . S
Fe111 O119 1.997 . S
Fe111 O122 1.996 . S
Fe111 O126 1.976 . S
Fe111 O129 2.002 . S
O112 Fe110 1.918 . S
O112 Fe111 1.918 . S
O112 Fe113 1.918 . S
Fe113 O112 1.918 . S
Fe113 O114 2.002 . S
Fe113 O123 1.976 . S
Fe113 O127 1.996 . S
Fe113 O130 1.997 . S
O114 Fe113 2.002 . S
O114 C131 1.295 . S
O115 Fe110 1.997 . S
O115 C131 1.235 . S
O116 Fe110 2.002 . S
O116 C117 1.295 . S
C117 O116 1.295 . S
C117 O119 1.235 . S
C118 O123 1.287 . S
C118 O124 1.255 . S
O119 Fe111 1.997 . S
O119 C117 1.235 . S
C120 O126 1.287 . S
C120 O127 1.255 . S
O121 Fe110 1.976 . S
O121 C128 1.287 . S
O122 Fe111 1.996 . S
O122 C128 1.255 . S
O123 Fe113 1.976 . S
O123 C118 1.287 . S
O124 Fe110 1.996 . S
O124 C118 1.255 . S
C125 O129 1.295 . S
C125 O130 1.235 . S
O126 Fe111 1.976 . S
O126 C120 1.287 . S
O127 Fe113 1.996 . S
O127 C120 1.255 . S
C128 O121 1.287 . S
C128 O122 1.255 . S
O129 Fe111 2.002 . S
O129 C125 1.295 . S
O130 Fe113 1.997 . S
O130 C125 1.235 . S
C131 O114 1.295 . S
C131 O115 1.235 . S
Fe132 O134 1.918 . S
Fe132 O137 1.997 . S
Fe132 O138 2.002 . S
Fe132 O143 1.976 . S
Fe132 O146 1.996 . S
Fe133 O134 1.918 . S
Fe133 O141 1.997 . S
Fe133 O144 1.996 . S
Fe133 O148 1.976 . S
Fe133 O151 2.002 . S
O134 Fe132 1.918 . S
O134 Fe133 1.918 . S
O134 Fe135 1.918 . S
Fe135 O134 1.918 . S
Fe135 O136 2.002 . S
Fe135 O145 1.976 . S
Fe135 O149 1.996 . S
Fe135 O152 1.997 . S
O136 Fe135 2.002 . S
O136 C153 1.295 . S
O137 Fe132 1.997 . S
O137 C153 1.235 . S
O138 Fe132 2.002 . S
O138 C139 1.295 . S
C139 O138 1.295 . S
C139 O141 1.235 . S
C140 O145 1.287 . S
C140 O146 1.255 . S
O141 Fe133 1.997 . S
O141 C139 1.235 . S
C142 O148 1.287 . S
C142 O149 1.255 . S
O143 Fe132 1.976 . S
O143 C150 1.287 . S
O144 Fe133 1.996 . S
O144 C150 1.255 . S
O145 Fe135 1.976 . S
O145 C140 1.287 . S
O146 Fe132 1.996 . S
O146 C140 1.255 . S
C147 O151 1.295 . S
C147 O152 1.235 . S
O148 Fe133 1.976 . S
O148 C142 1.287 . S
O149 Fe135 1.996 . S
O149 C142 1.255 . S
C150 O143 1.287 . S
C150 O144 1.255 . S
O151 Fe133 2.002 . S
O151 C147 1.295 . S
O152 Fe135 1.997 . S
O152 C147 1.235 . S
C153 O136 1.295 . S
C153 O137 1.235 . S
Fe154 O156 1.918 . S
Fe154 O159 1.997 . S
Fe154 O160 2.002 . S
Fe154 O165 1.976 . S
Fe154 O168 1.996 . S
Fe155 O156 1.918 . S
Fe155 O163 1.997 . S
Fe155 O166 1.996 . S
Fe155 O170 1.976 . S
Fe155 O173 2.002 . S
O156 Fe154 1.918 . S
O156 Fe155 1.918 . S
O156 Fe157 1.918 . S
Fe157 O156 1.918 . S
Fe157 O158 2.002 . S
Fe157 O167 1.976 . S
Fe157 O171 1.996 . S
Fe157 O174 1.997 . S
O158 Fe157 2.002 . S
O158 C175 1.295 . S
O159 Fe154 1.997 . S
O159 C175 1.235 . S
O160 Fe154 2.002 . S
O160 C161 1.295 . S
C161 O160 1.295 . S
C161 O163 1.235 . S
C162 O167 1.287 . S
C162 O168 1.255 . S
O163 Fe155 1.997 . S
O163 C161 1.235 . S
C164 O170 1.287 . S
C164 O171 1.255 . S
O165 Fe154 1.976 . S
O165 C172 1.287 . S
O166 Fe155 1.996 . S
O166 C172 1.255 . S
O167 Fe157 1.976 . S
O167 C162 1.287 . S
O168 Fe154 1.996 . S
O168 C162 1.255 . S
C169 O173 1.295 . S
C169 O174 1.235 . S
O170 Fe155 1.976 . S
O170 C164 1.287 . S
O171 Fe157 1.996 . S
O171 C164 1.255 . S
C172 O165 1.287 . S
C172 O166 1.255 . S
O173 Fe155 2.002 . S
O173 C169 1.295 . S
O174 Fe157 1.997 . S
O174 C169 1.235 . S
C175 O158 1.295 . S
C175 O159 1.235 . S
Fe176 O178 1.918 . S
Fe176 O181 1.997 . S
Fe176 O182 2.002 . S
Fe176 O187 1.976 . S
Fe176 O190 1.996 . S
Fe177 O178 1.918 . S
Fe177 O185 1.997 . S
Fe177 O188 1.996 . S
Fe177 O192 1.976 . S
Fe177 O195 2.002 . S
O178 Fe176 1.918 . S
O178 Fe177 1.918 . S
O178 Fe179 1.918 . S
Fe179 O178 1.918 . S
Fe179 O180 2.002 . S
Fe179 O189 1.976 . S
Fe179 O193 1.996 . S
Fe179 O196 1.997 . S
O180 Fe179 2.002 . S
O180 C197 1.295 . S
O181 Fe176 1.997 . S
O181 C197 1.235 . S
O182 Fe176 2.002 . S
O182 C183 1.295 . S
C183 O182 1.295 . S
C183 O185 1.235 . S
C184 O189 1.287 . S
C184 O190 1.255 . S
O185 Fe177 1.997 . S
O185 C183 1.235 . S
C186 O192 1.287 . S
C186 O193 1.255 . S
O187 Fe176 1.976 . S
O187 C194 1.287 . S
O188 Fe177 1.996 . S
O188 C194 1.255 . S
O189 Fe179 1.976 . S
O189 C184 1.287 . S
O190 Fe176 1.996 . S
O190 C184 1.255 . S
C191 O195 1.295 . S
C191 O196 1.235 . S
O192 Fe177 1.976 . S
O192 C186 1.287 . S
O193 Fe179 1.996 . S
O193 C186 1.255 . S
C194 O187 1.287 . S
C194 O188 1.255 . S
O195 Fe177 2.002 . S
O195 C191 1.295 . S
O196 Fe179 1.997 . S
O196 C191 1.235 . S
C197 O180 1.295 . S
C197 O181 1.235 . S
Fe198 O200 1.918 . S
Fe198 O203 1.997 . S
Fe198 O204 2.002 . S
Fe198 O209 1.976 . S
Fe198 O212 1.996 . S
Fe199 O200 1.918 . S
Fe199 O207 1.997 . S
Fe199 O210 1.996 . S
Fe199 O214 1.976 . S
Fe199 O217 2.002 . S
O200 Fe198 1.918 . S
O200 Fe199 1.918 . S
O200 Fe201 1.918 . S
Fe201 O200 1.918 . S
Fe201 O202 2.002 . S
Fe201 O211 1.976 . S
Fe201 O215 1.996 . S
Fe201 O218 1.997 . S
O202 Fe201 2.002 . S
O202 C219 1.295 . S
O203 Fe198 1.997 . S
O203 C219 1.235 . S
O204 Fe198 2.002 . S
O204 C205 1.295 . S
C205 O204 1.295 . S
C205 O207 1.235 . S
C206 O211 1.287 . S
C206 O212 1.255 . S
O207 Fe199 1.997 . S
O207 C205 1.235 . S
C208 O214 1.287 . S
C208 O215 1.255 . S
O209 Fe198 1.976 . S
O209 C216 1.287 . S
O210 Fe199 1.996 . S
O210 C216 1.255 . S
O211 Fe201 1.976 . S
O211 C206 1.287 . S
O212 Fe198 1.996 . S
O212 C206 1.255 . S
C213 O217 1.295 . S
C213 O218 1.235 . S
O214 Fe199 1.976 . S
O214 C208 1.287 . S
O215 Fe201 1.996 . S
O215 C208 1.255 . S
C216 O209 1.287 . S
C216 O210 1.255 . S
O217 Fe199 2.002 . S
O217 C213 1.295 . S
O218 Fe201 1.997 . S
O218 C213 1.235 . S
C219 O202 1.295 . S
C219 O203 1.235 . S
Fe220 O222 1.918 . S
Fe220 O225 1.997 . S
Fe220 O226 2.002 . S
Fe220 O231 1.976 . S
Fe220 O234 1.996 . S
Fe221 O222 1.918 . S
Fe221 O229 1.997 . S
Fe221 O232 1.996 . S
Fe221 O236 1.976 . S
Fe221 O239 2.002 . S
O222 Fe220 1.918 . S
O222 Fe221 1.918 . S
O222 Fe223 1.918 . S
Fe223 O222 1.918 . S
Fe223 O224 2.002 . S
Fe223 O233 1.976 . S
Fe223 O237 1.996 . S
Fe223 O240 1.997 . S
O224 Fe223 2.002 . S
O224 C241 1.295 . S
O225 Fe220 1.997 . S
O225 C241 1.235 . S
O226 Fe220 2.002 . S
O226 C227 1.295 . S
C227 O226 1.295 . S
C227 O229 1.235 . S
C228 O233 1.287 . S
C228 O234 1.255 . S
O229 Fe221 1.997 . S
O229 C227 1.235 . S
C230 O236 1.287 . S
C230 O237 1.255 . S
O231 Fe220 1.976 . S
O231 C238 1.287 . S
O232 Fe221 1.996 . S
O232 C238 1.255 . S
O233 Fe223 1.976 . S
O233 C228 1.287 . S
O234 Fe220 1.996 . S
O234 C228 1.255 . S
C235 O239 1.295 . S
C235 O240 1.235 . S
O236 Fe221 1.976 . S
O236 C230 1.287 . S
O237 Fe223 1.996 . S
O237 C230 1.255 . S
C238 O231 1.287 . S
C238 O232 1.255 . S
O239 Fe221 2.002 . S
O239 C235 1.295 . S
O240 Fe223 1.997 . S
O240 C235 1.235 . S
C241 O224 1.295 . S
C241 O225 1.235 . S
Fe242 O244 1.918 . S
Fe242 O247 1.997 . S
Fe242 O248 2.002 . S
Fe242 O253 1.976 . S
Fe242 O256 1.996 . S
Fe243 O244 1.918 . S
Fe243 O251 1.997 . S
Fe243 O254 1.996 . S
Fe243 O258 1.976 . S
Fe243 O261 2.002 . S
O244 Fe242 1.918 . S
O244 Fe243 1.918 . S
O244 Fe245 1.918 . S
Fe245 O244 1.918 . S
Fe245 O246 2.002 . S
Fe245 O255 1.976 . S
Fe245 O259 1.996 . S
Fe245 O262 1.997 . S
O246 Fe245 2.002 . S
O246 C263 1.295 . S
O247 Fe242 1.997 . S
O247 C263 1.235 . S
O248 Fe242 2.002 . S
O248 C249 1.295 . S
C249 O248 1.295 . S
C249 O251 1.235 . S
C250 O255 1.287 . S
C250 O256 1.255 . S
O251 Fe243 1.997 . S
O251 C249 1.235 . S
C252 O258 1.287 . S
C252 O259 1.255 . S
O253 Fe242 1.976 . S
O253 C260 1.287 . S
O254 Fe243 1.996 . S
O254 C260 1.255 . S
O255 Fe245 1.976 . S
O255 C250 1.287 . S
O256 Fe242 1.996 . S
O256 C250 1.255 . S
C257 O261 1.295 . S
C257 O262 1.235 . S
O258 Fe243 1.976 . S
O258 C252 1.287 . S
O259 Fe245 1.996 . S
O259 C252 1.255 . S
C260 O253 1.287 . S
C260 O254 1.255 . S
O261 Fe243 2.002 . S
O261 C257 1.295 . S
O262 Fe245 1.997 . S
O262 C257 1.235 . S
C263 O246 1.295 . S
C263 O247 1.235 . S
Fe264 O266 1.918 . S
Fe264 O269 1.997 . S
Fe264 O270 2.002 . S
Fe264 O275 1.976 . S
Fe264 O278 1.996 . S
Fe265 O266 1.918 . S
Fe265 O273 1.997 . S
Fe265 O276 1.996 . S
Fe265 O280 1.976 . S
Fe265 O283 2.002 . S
O266 Fe264 1.918 . S
O266 Fe265 1.918 . S
O266 Fe267 1.918 . S
Fe267 O266 1.918 . S
Fe267 O268 2.002 . S
Fe267 O277 1.976 . S
Fe267 O281 1.996 . S
Fe267 O284 1.997 . S
O268 Fe267 2.002 . S
O268 C285 1.295 . S
O269 Fe264 1.997 . S
O269 C285 1.235 . S
O270 Fe264 2.002 . S
O270 C271 1.295 . S
C271 O270 1.295 . S
C271 O273 1.235 . S
C272 O277 1.287 . S
C272 O278 1.255 . S
O273 Fe265 1.997 . S
O273 C271 1.235 . S
C274 O280 1.287 . S
C274 O281 1.255 . S
O275 Fe264 1.976 . S
O275 C282 1.287 . S
O276 Fe265 1.996 . S
O276 C282 1.255 . S
O277 Fe267 1.976 . S
O277 C272 1.287 . S
O278 Fe264 1.996 . S
O278 C272 1.255 . S
C279 O283 1.295 . S
C279 O284 1.235 . S
O280 Fe265 1.976 . S
O280 C274 1.287 . S
O281 Fe267 1.996 . S
O281 C274 1.255 . S
C282 O275 1.287 . S
C282 O276 1.255 . S
O283 Fe265 2.002 . S
O283 C279 1.295 . S
O284 Fe267 1.997 . S
O284 C279 1.235 . S
C285 O268 1.295 . S
C285 O269 1.235 . S
Fe286 O288 1.918 . S
Fe286 O291 1.997 . S
Fe286 O292 2.002 . S
Fe286 O297 1.976 . S
Fe286 O300 1.996 . S
Fe287 O288 1.918 . S
Fe287 O295 1.997 . S
Fe287 O298 1.996 . S
Fe287 O302 1.976 . S
Fe287 O305 2.002 . S
O288 Fe286 1.918 . S
O288 Fe287 1.918 . S
O288 Fe289 1.918 . S
Fe289 O288 1.918 . S
Fe289 O290 2.002 . S
Fe289 O299 1.976 . S
Fe289 O303 1.996 . S
Fe289 O306 1.997 . S
O290 Fe289 2.002 . S
O290 C307 1.295 . S
O291 Fe286 1.997 . S
O291 C307 1.235 . S
O292 Fe286 2.002 . S
O292 C293 1.295 . S
C293 O292 1.295 . S
C293 O295 1.235 . S
C294 O299 1.287 . S
C294 O300 1.255 . S
O295 Fe287 1.997 . S
O295 C293 1.235 . S
C296 O302 1.287 . S
C296 O303 1.255 . S
O297 Fe286 1.976 . S
O297 C304 1.287 . S
O298 Fe287 1.996 . S
O298 C304 1.255 . S
O299 Fe289 1.976 . S
O299 C294 1.287 . S
O300 Fe286 1.996 . S
O300 C294 1.255 . S
C301 O305 1.295 . S
C301 O306 1.235 . S
O302 Fe287 1.976 . S
O302 C296 1.287 . S
O303 Fe289 1.996 . S
O303 C296 1.255 . S
C304 O297 1.287 . S
C304 O298 1.255 . S
O305 Fe287 2.002 . S
O305 C301 1.295 . S
O306 Fe289 1.997 . S
O306 C301 1.235 . S
C307 O290 1.295 . S
C307 O291 1.235 . S
Fe308 O310 1.918 . S
Fe308 O313 1.997 . S
Fe308 O314 2.002 . S
Fe308 O319 1.976 . S
Fe308 O322 1.996 . S
Fe309 O310 1.918 . S
Fe309 O317 1.997 . S
Fe309 O320 1.996 . S
Fe309 O324 1.976 . S
Fe309 O327 2.002 . S
O310 Fe308 1.918 . S
O310 Fe309 1.918 . S
O310 Fe311 1.918 . S
Fe311 O310 1.918 . S
Fe311 O312 2.002 . S
Fe311 O321 1.976 . S
Fe311 O325 1.996 . S
Fe311 O328 1.997 . S
O312 Fe311 2.002 . S
O312 C329 1.295 . S
O313 Fe308 1.997 . S
O313 C329 1.235 . S
O314 Fe308 2.002 . S
O314 C315 1.295 . S
C315 O314 1.295 . S
C315 O317 1.235 . S
C316 O321 1.287 . S
C316 O322 1.255 . S
O317 Fe309 1.997 . S
O317 C315 1.235 . S
C318 O324 1.287 . S
C318 O325 1.255 . S
O319 Fe308 1.976 . S
O319 C326 1.287 . S
O320 Fe309 1.996 . S
O320 C326 1.255 . S
O321 Fe311 1.976 . S
O321 C316 1.287 . S
O322 Fe308 1.996 . S
O322 C316 1.255 . S
C323 O327 1.295 . S
C323 O328 1.235 . S
O324 Fe309 1.976 . S
O324 C318 1.287 . S
O325 Fe311 1.996 . S
O325 C318 1.255 . S
C326 O319 1.287 . S
C326 O320 1.255 . S
O327 Fe309 2.002 . S
O327 C323 1.295 . S
O328 Fe311 1.997 . S
O328 C323 1.235 . S
C329 O312 1.295 . S
C329 O313 1.235 . S
Fe330 O332 1.918 . S
Fe330 O335 1.997 . S
Fe330 O336 2.002 . S
Fe330 O341 1.976 . S
Fe330 O344 1.996 . S
Fe331 O332 1.918 . S
Fe331 O339 1.997 . S
Fe331 O342 1.996 . S
Fe331 O346 1.976 . S
Fe331 O349 2.002 . S
O332 Fe330 1.918 . S
O332 Fe331 1.918 . S
O332 Fe333 1.918 . S
Fe333 O332 1.918 . S
Fe333 O334 2.002 . S
Fe333 O343 1.976 . S
Fe333 O347 1.996 . S
Fe333 O350 1.997 . S
O334 Fe333 2.002 . S
O334 C351 1.295 . S
O335 Fe330 1.997 . S
O335 C351 1.235 . S
O336 Fe330 2.002 . S
O336 C337 1.295 . S
C337 O336 1.295 . S
C337 O339 1.235 . S
C338 O343 1.287 . S
C338 O344 1.255 . S
O339 Fe331 1.997 . S
O339 C337 1.235 . S
C340 O346 1.287 . S
C340 O347 1.255 . S
O341 Fe330 1.976 . S
O341 C348 1.287 . S
O342 Fe331 1.996 . S
O342 C348 1.255 . S
O343 Fe333 1.976 . S
O343 C338 1.287 . S
O344 Fe330 1.996 . S
O344 C338 1.255 . S
C345 O349 1.295 . S
C345 O350 1.235 . S
O346 Fe331 1.976 . S
O346 C340 1.287 . S
O347 Fe333 1.996 . S
O347 C340 1.255 . S
C348 O341 1.287 . S
C348 O342 1.255 . S
O349 Fe331 2.002 . S
O349 C345 1.295 . S
O350 Fe333 1.997 . S
O350 C345 1.235 . S
C351 O334 1.295 . S
C351 O335 1.235 . S
Fe352 O354 1.918 . S
Fe352 O357 1.997 . S
Fe352 O358 2.002 . S
Fe352 O363 1.976 . S
Fe352 O366 1.996 . S
Fe353 O354 1.918 . S
Fe353 O361 1.997 . S
Fe353 O364 1.996 . S
Fe353 O368 1.976 . S
Fe353 O371 2.002 . S
O354 Fe352 1.918 . S
O354 Fe353 1.918 . S
O354 Fe355 1.918 . S
Fe355 O354 1.918 . S
Fe355 O356 2.002 . S
Fe355 O365 1.976 . S
Fe355 O369 1.996 . S
Fe355 O372 1.997 . S
O356 Fe355 2.002 . S
O356 C373 1.295 . S
O357 Fe352 1.997 . S
O357 C373 1.235 . S
O358 Fe352 2.002 . S
O358 C359 1.295 . S
C359 O358 1.295 . S
C359 O361 1.235 . S
C360 O365 1.287 . S
C360 O366 1.255 . S
O361 Fe353 1.997 . S
O361 C359 1.235 . S
C362 O368 1.287 . S
C362 O369 1.255 . S
O363 Fe352 1.976 . S
O363 C370 1.287 . S
O364 Fe353 1.996 . S
O364 C370 1.255 . S
O365 Fe355 1.976 . S
O365 C360 1.287 . S
O366 Fe352 1.996 . S
O366 C360 1.255 . S
C367 O371 1.295 . S
C367 O372 1.235 . S
O368 Fe353 1.976 . S
O368 C362 1.287 . S
O369 Fe355 1.996 . S
O369 C362 1.255 . S
C370 O363 1.287 . S
C370 O364 1.255 . S
O371 Fe353 2.002 . S
O371 C367 1.295 . S
O372 Fe355 1.997 . S
O372 C367 1.235 . S
C373 O356 1.295 . S
C373 O357 1.235 . S
Fe374 O376 1.918 . S
Fe374 O379 1.997 . S
Fe374 O380 2.002 . S
Fe374 O385 1.976 . S
Fe374 O388 1.996 . S
Fe375 O376 1.918 . S
Fe375 O383 1.997 . S
Fe375 O386 1.996 . S
Fe375 O390 1.976 . S
Fe375 O393 2.002 . S
O376 Fe374 1.918 . S
O376 Fe375 1.918 . S
O376 Fe377 1.918 . S
Fe377 O376 1.918 . S
Fe377 O378 2.002 . S
Fe377 O387 1.976 . S
Fe377 O391 1.996 . S
Fe377 O394 1.997 . S
O378 Fe377 2.002 . S
O378 C395 1.295 . S
O379 Fe374 1.997 . S
O379 C395 1.235 . S
O380 Fe374 2.002 . S
O380 C381 1.295 . S
C381 O380 1.295 . S
C381 O383 1.235 . S
C382 O387 1.287 . S
C382 O388 1.255 . S
O383 Fe375 1.997 . S
O383 C381 1.235 . S
C384 O390 1.287 . S
C384 O391 1.255 . S
O385 Fe374 1.976 . S
O385 C392 1.287 . S
O386 Fe375 1.996 . S
O386 C392 1.255 . S
O387 Fe377 1.976 . S
O387 C382 1.287 . S
O388 Fe374 1.996 . S
O388 C382 1.255 . S
C389 O393 1.295 . S
C389 O394 1.235 . S
O390 Fe375 1.976 . S
O390 C384 1.287 . S
O391 Fe377 1.996 . S
O391 C384 1.255 . S
C392 O385 1.287 . S
C392 O386 1.255 . S
O393 Fe375 2.002 . S
O393 C389 1.295 . S
O394 Fe377 1.997 . S
O394 C389 1.235 . S
C395 O378 1.295 . S
C395 O379 1.235 . S
Fe396 O398 1.918 . S
Fe396 O401 1.997 . S
Fe396 O402 2.002 . S
Fe396 O407 1.976 . S
Fe396 O410 1.996 . S
Fe397 O398 1.918 . S
Fe397 O405 1.997 . S
Fe397 O408 1.996 . S
Fe397 O412 1.976 . S
Fe397 O415 2.002 . S
O398 Fe396 1.918 . S
O398 Fe397 1.918 . S
O398 Fe399 1.918 . S
Fe399 O398 1.918 . S
Fe399 O400 2.002 . S
Fe399 O409 1.976 . S
Fe399 O413 1.996 . S
Fe399 O416 1.997 . S
O400 Fe399 2.002 . S
O400 C417 1.295 . S
O401 Fe396 1.997 . S
O401 C417 1.235 . S
O402 Fe396 2.002 . S
O402 C403 1.295 . S
C403 O402 1.295 . S
C403 O405 1.235 . S
C404 O409 1.287 . S
C404 O410 1.255 . S
O405 Fe397 1.997 . S
O405 C403 1.235 . S
C406 O412 1.287 . S
C406 O413 1.255 . S
O407 Fe396 1.976 . S
O407 C414 1.287 . S
O408 Fe397 1.996 . S
O408 C414 1.255 . S
O409 Fe399 1.976 . S
O409 C404 1.287 . S
O410 Fe396 1.996 . S
O410 C404 1.255 . S
C411 O415 1.295 . S
C411 O416 1.235 . S
O412 Fe397 1.976 . S
O412 C406 1.287 . S
O413 Fe399 1.996 . S
O413 C406 1.255 . S
C414 O407 1.287 . S
C414 O408 1.255 . S
O415 Fe397 2.002 . S
O415 C411 1.295 . S
O416 Fe399 1.997 . S
O416 C411 1.235 . S
C417 O400 1.295 . S
C417 O401 1.235 . S
Fe418 O420 1.918 . S
Fe418 O423 1.997 . S
Fe418 O424 2.002 . S
Fe418 O429 1.976 . S
Fe418 O432 1.996 . S
Fe419 O420 1.918 . S
Fe419 O427 1.997 . S
Fe419 O430 1.996 . S
Fe419 O434 1.976 . S
Fe419 O437 2.002 . S
O420 Fe418 1.918 . S
O420 Fe419 1.918 . S
O420 Fe421 1.918 . S
Fe421 O420 1.918 . S
Fe421 O422 2.002 . S
Fe421 O431 1.976 . S
Fe421 O435 1.996 . S
Fe421 O438 1.997 . S
O422 Fe421 2.002 . S
O422 C439 1.295 . S
O423 Fe418 1.997 . S
O423 C439 1.235 . S
O424 Fe418 2.002 . S
O424 C425 1.295 . S
C425 O424 1.295 . S
C425 O427 1.235 . S
C426 O431 1.287 . S
C426 O432 1.255 . S
O427 Fe419 1.997 . S
O427 C425 1.235 . S
C428 O434 1.287 . S
C428 O435 1.255 . S
O429 Fe418 1.976 . S
O429 C436 1.287 . S
O430 Fe419 1.996 . S
O430 C436 1.255 . S
O431 Fe421 1.976 . S
O431 C426 1.287 . S
O432 Fe418 1.996 . S
O432 C426 1.255 . S
C433 O437 1.295 . S
C433 O438 1.235 . S
O434 Fe419 1.976 . S
O434 C428 1.287 . S
O435 Fe421 1.996 . S
O435 C428 1.255 . S
C436 O429 1.287 . S
C436 O430 1.255 . S
O437 Fe419 2.002 . S
O437 C433 1.295 . S
O438 Fe421 1.997 . S
O438 C433 1.235 . S
C439 O422 1.295 . S
C439 O423 1.235 . S
Fe440 O442 1.918 . S
Fe440 O445 1.997 . S
Fe440 O446 2.002 . S
Fe440 O451 1.976 . S
Fe440 O454 1.996 . S
Fe441 O442 1.918 . S
Fe441 O449 1.997 . S
Fe441 O452 1.996 . S
Fe441 O456 1.976 . S
Fe441 O459 2.002 . S
O442 Fe440 1.918 . S
O442 Fe441 1.918 . S
O442 Fe443 1.918 . S
Fe443 O442 1.918 . S
Fe443 O444 2.002 . S
Fe443 O453 1.976 . S
Fe443 O457 1.996 . S
Fe443 O460 1.997 . S
O444 Fe443 2.002 . S
O444 C461 1.295 . S
O445 Fe440 1.997 . S
O445 C461 1.235 . S
O446 Fe440 2.002 . S
O446 C447 1.295 . S
C447 O446 1.295 . S
C447 O449 1.235 . S
C448 O453 1.287 . S
C448 O454 1.255 . S
O449 Fe441 1.997 . S
O449 C447 1.235 . S
C450 O456 1.287 . S
C450 O457 1.255 . S
O451 Fe440 1.976 . S
O451 C458 1.287 . S
O452 Fe441 1.996 . S
O452 C458 1.255 . S
O453 Fe443 1.976 . S
O453 C448 1.287 . S
O454 Fe440 1.996 . S
O454 C448 1.255 . S
C455 O459 1.295 . S
C455 O460 1.235 . S
O456 Fe441 1.976 . S
O456 C450 1.287 . S
O457 Fe443 1.996 . S
O457 C450 1.255 . S
C458 O451 1.287 . S
C458 O452 1.255 . S
O459 Fe441 2.002 . S
O459 C455 1.295 . S
O460 Fe443 1.997 . S
O460 C455 1.235 . S
C461 O444 1.295 . S
C461 O445 1.235 . S
Fe462 O464 1.918 . S
Fe462 O467 1.997 . S
Fe462 O468 2.002 . S
Fe462 O473 1.976 . S
Fe462 O476 1.996 . S
Fe463 O464 1.918 . S
Fe463 O471 1.997 . S
Fe463 O474 1.996 . S
Fe463 O478 1.976 . S
Fe463 O481 2.002 . S
O464 Fe462 1.918 . S
O464 Fe463 1.918 . S
O464 Fe465 1.918 . S
Fe465 O464 1.918 . S
Fe465 O466 2.002 . S
Fe465 O475 1.976 . S
Fe465 O479 1.996 . S
Fe465 O482 1.997 . S
O466 Fe465 2.002 . S
O466 C483 1.295 . S
O467 Fe462 1.997 . S
O467 C483 1.235 . S
O468 Fe462 2.002 . S
O468 C469 1.295 . S
C469 O468 1.295 . S
C469 O471 1.235 . S
C470 O475 1.287 . S
C470 O476 1.255 . S
O471 Fe463 1.997 . S
O471 C469 1.235 . S
C472 O478 1.287 . S
C472 O479 1.255 . S
O473 Fe462 1.976 . S
O473 C480 1.287 . S
O474 Fe463 1.996 . S
O474 C480 1.255 . S
O475 Fe465 1.976 . S
O475 C470 1.287 . S
O476 Fe462 1.996 . S
O476 C470 1.255 . S
C477 O481 1.295 . S
C477 O482 1.235 . S
O478 Fe463 1.976 . S
O478 C472 1.287 . S
O479 Fe465 1.996 . S
O479 C472 1.255 . S
C480 O473 1.287 . S
C480 O474 1.255 . S
O481 Fe463 2.002 . S
O481 C477 1.295 . S
O482 Fe465 1.997 . S
O482 C477 1.235 . S
C483 O466 1.295 . S
C483 O467 1.235 . S
Fe484 O486 1.918 . S
Fe484 O489 1.997 . S
Fe484 O490 2.002 . S
Fe484 O495 1.976 . S
Fe484 O498 1.996 . S
Fe485 O486 1.918 . S
Fe485 O493 1.997 . S
Fe485 O496 1.996 . S
Fe485 O500 1.976 . S
Fe485 O503 2.002 . S
O486 Fe484 1.918 . S
O486 Fe485 1.918 . S
O486 Fe487 1.918 . S
Fe487 O486 1.918 . S
Fe487 O488 2.002 . S
Fe487 O497 1.976 . S
Fe487 O501 1.996 . S
Fe487 O504 1.997 . S
O488 Fe487 2.002 . S
O488 C505 1.295 . S
O489 Fe484 1.997 . S
O489 C505 1.235 . S
O490 Fe484 2.002 . S
O490 C491 1.295 . S
C491 O490 1.295 . S
C491 O493 1.235 . S
C492 O497 1.287 . S
C492 O498 1.255 . S
O493 Fe485 1.997 . S
O493 C491 1.235 . S
C494 O500 1.287 . S
C494 O501 1.255 . S
O495 Fe484 1.976 . S
O495 C502 1.287 . S
O496 Fe485 1.996 . S
O496 C502 1.255 . S
O497 Fe487 1.976 . S
O497 C492 1.287 . S
O498 Fe484 1.996 . S
O498 C492 1.255 . S
C499 O503 1.295 . S
C499 O504 1.235 . S
O500 Fe485 1.976 . S
O500 C494 1.287 . S
O501 Fe487 1.996 . S
O501 C494 1.255 . S
C502 O495 1.287 . S
C502 O496 1.255 . S
O503 Fe485 2.002 . S
O503 C499 1.295 . S
O504 Fe487 1.997 . S
O504 C499 1.235 . S
C505 O488 1.295 . S
C505 O489 1.235 . S
Fe506 O508 1.918 . S
Fe506 O511 1.997 . S
Fe506 O512 2.002 . S
Fe506 O517 1.976 . S
Fe506 O520 1.996 . S
Fe507 O508 1.918 . S
Fe507 O515 1.997 . S
Fe507 O518 1.996 . S
Fe507 O522 1.976 . S
Fe507 O525 2.002 . S
O508 Fe506 1.918 . S
O508 Fe507 1.918 . S
O508 Fe509 1.918 . S
Fe509 O508 1.918 . S
Fe509 O510 2.002 . S
Fe509 O519 1.976 . S
Fe509 O523 1.996 . S
Fe509 O526 1.997 . S
O510 Fe509 2.002 . S
O510 C527 1.295 . S
O511 Fe506 1.997 . S
O511 C527 1.235 . S
O512 Fe506 2.002 . S
O512 C513 1.295 . S
C513 O512 1.295 . S
C513 O515 1.235 . S
C514 O519 1.287 . S
C514 O520 1.255 . S
O515 Fe507 1.997 . S
O515 C513 1.235 . S
C516 O522 1.287 . S
C516 O523 1.255 . S
O517 Fe506 1.976 . S
O517 C524 1.287 . S
O518 Fe507 1.996 . S
O518 C524 1.255 . S
O519 Fe509 1.976 . S
O519 C514 1.287 . S
O520 Fe506 1.996 . S
O520 C514 1.255 . S
C521 O525 1.295 . S
C521 O526 1.235 . S
O522 Fe507 1.976 . S
O522 C516 1.287 . S
O523 Fe509 1.996 . S
O523 C516 1.255 . S
C524 O517 1.287 . S
C524 O518 1.255 . S
O525 Fe507 2.002 . S
O525 C521 1.295 . S
O526 Fe509 1.997 . S
O526 C521 1.235 . S
C527 O510 1.295 . S
C527 O511 1.235 . S
C194 C10 1.174 1_556 S
C30 C206 1.174 . S
C230 C52 1.174 1_556 S
C74 C260 1.174 . S
C142 C106 1.174 1_556 S
C164 C118 1.174 . S
C272 C458 1.174 1_556 S
C472 C296 1.174 . S
C494 C326 1.174 1_554 S
C340 C516 1.174 . S
C362 C404 1.174 1_556 S
C428 C392 1.174 . S
C21 C65 1.526 . S
C87 C29 1.527 . S
C51 C95 1.526 . S
C73 C131 1.526 . S
C15 C103 1.527 . S
C43 C117 1.526 . S
C235 C153 1.526 . S
C175 C249 1.526 . S
C191 C147 1.527 . S
C169 C205 1.526 . S
C183 C241 1.526 . S
C219 C257 1.527 . S
C315 C271 1.526 . S
C307 C345 1.527 . S
C323 C367 1.526 . S
C351 C381 1.526 . S
C285 C373 1.527 . S
C301 C389 1.526 . S
C403 C499 1.526 . S
C439 C521 1.526 . S
C455 C417 1.527 . S
C483 C433 1.526 . S
C447 C505 1.526 . S
C477 C527 1.527 . S
C7 C337 1.559 . S
C359 C37 1.559 . S
C59 C395 1.559 . S
C81 C279 1.559 . S
C293 C109 1.559 . S
C125 C329 1.559 . S
C139 C469 1.559 . S
C491 C161 1.559 . S
C197 C513 1.559 . S
C213 C411 1.559 . S
C425 C227 1.559 . S
C461 C263 1.559 . S
C448 C18 1.462 1_655 S
C480 C32 1.462 1_565 S
C502 C54 1.462 . S
C524 C76 1.462 1_455 S
C406 C96 1.462 1_545 S
C120 C436 1.462 . S
C150 C370 1.462 1_565 S
C382 C172 1.462 . S
C274 C184 1.462 1_655 S
C304 C208 1.462 1_565 S
C238 C316 1.462 . S
C250 C348 1.462 1_655 S
C228 C8 1.435 1_556 S
C252 C40 1.435 . S
C62 C140 1.435 1_554 S
C84 C162 1.435 . S
C186 C98 1.435 1_556 S
C128 C216 1.435 . S
C492 C282 1.435 1_554 S
C514 C294 1.435 . S
C414 C318 1.435 1_554 S
C338 C426 1.435 . S
C450 C360 1.435 1_554 S
C384 C470 1.435 . S
