# Generated by pormake.
# Topology msp, (4)-cn, num edge types: 1
# Building blocks:
#     Node 0, Type 0, BuildingBlock: GALJAG_clean_sbu_0, # of connection points: 4
#     Node 1, Type 0, BuildingBlock: GALJAG_clean_sbu_0, # of connection points: 4
#     Node 2, Type 0, BuildingBlock: GALJAG_clean_sbu_0, # of connection points: 4
#     Node 3, Type 0, BuildingBlock: GALJAG_clean_sbu_0, # of connection points: 4
#     Node 4, Type 0, BuildingBlock: GALJAG_clean_sbu_0, # of connection points: 4
#     Node 5, Type 0, BuildingBlock: GALJAG_clean_sbu_0, # of connection points: 4
#     Node 6, Type 0, BuildingBlock: GALJAG_clean_sbu_0, # of connection points: 4
#     Node 7, Type 0, BuildingBlock: GALJAG_clean_sbu_0, # of connection points: 4
#     Edge 8, Type (0, 0), BuildingBlock: EZIPEK_clean_linker_0, # of connection points: 2
#     Edge 9, Type (0, 0), BuildingBlock: EZIPEK_clean_linker_0, # of connection points: 2
#     Edge 10, Type (0, 0), BuildingBlock: EZIPEK_clean_linker_0, # of connection points: 2
#     Edge 11, Type (0, 0), BuildingBlock: EZIPEK_clean_linker_0, # of connection points: 2
#     Edge 12, Type (0, 0), BuildingBlock: EZIPEK_clean_linker_0, # of connection points: 2
#     Edge 13, Type (0, 0), BuildingBlock: EZIPEK_clean_linker_0, # of connection points: 2
#     Edge 14, Type (0, 0), BuildingBlock: EZIPEK_clean_linker_0, # of connection points: 2
#     Edge 15, Type (0, 0), BuildingBlock: EZIPEK_clean_linker_0, # of connection points: 2
#     Edge 16, Type (0, 0), BuildingBlock: EZIPEK_clean_linker_0, # of connection points: 2
#     Edge 17, Type (0, 0), BuildingBlock: EZIPEK_clean_linker_0, # of connection points: 2
#     Edge 18, Type (0, 0), BuildingBlock: EZIPEK_clean_linker_0, # of connection points: 2
#     Edge 19, Type (0, 0), BuildingBlock: EZIPEK_clean_linker_0, # of connection points: 2
#     Edge 20, Type (0, 0), BuildingBlock: EZIPEK_clean_linker_0, # of connection points: 2
#     Edge 21, Type (0, 0), BuildingBlock: EZIPEK_clean_linker_0, # of connection points: 2
#     Edge 22, Type (0, 0), BuildingBlock: EZIPEK_clean_linker_0, # of connection points: 2
#     Edge 23, Type (0, 0), BuildingBlock: EZIPEK_clean_linker_0, # of connection points: 2
# Relax obj value: 0.107
# Max RMSD: 0.183
# Mean RMSD: 0.183
data_MOF--net-msp--node1-GALJAG_clean_sbu_0--edge1-EZIPEK_clean_linker_0
_symmetry_space_group_name_H-M    P1
_symmetry_Int_Tables_number       1
_symmetry_cell_setting            triclinic
loop_
_symmetry_equiv_pos_as_xyz
'x, y, z'
_cell_length_a     15.864136
_cell_length_b     15.466213
_cell_length_c     31.907596
_cell_angle_alpha  89.885149
_cell_angle_beta   100.26444
_cell_angle_gamma 90.087747
loop_
_atom_site_label
_atom_site_type_symbol
_atom_site_fract_x
_atom_site_fract_y
_atom_site_fract_z
_atom_type_partial_charge
In0 In 0.04506 0.2731 0.37443 0.0
O1 O 0.93155 0.20056 0.3363 0.0
O2 O 0.93549 0.33786 0.33039 0.0
C3 C 0.12623 0.15981 0.43108 0.0
C4 C 0.14516 0.27119 0.31518 0.0
C5 C 0.02188 0.39011 0.43333 0.0
O6 O 0.0482 0.14963 0.41442 0.0
O7 O 0.16191 0.22536 0.41835 0.0
O8 O 0.0779 0.40023 0.41001 0.0
O9 O 0.97678 0.32259 0.42633 0.0
C10 C 0.89741 0.26818 0.31843 0.0
O11 O 0.12722 0.34097 0.33235 0.0
O12 O 0.11474 0.20351 0.32877 0.0
In13 In 0.45212 0.26393 0.62624 0.0
O14 O 0.57159 0.19232 0.65981 0.0
O15 O 0.55791 0.32621 0.67378 0.0
C16 C 0.35075 0.15331 0.57454 0.0
C17 C 0.3551 0.26364 0.68647 0.0
C18 C 0.48117 0.38101 0.56797 0.0
O19 O 0.43021 0.13915 0.58619 0.0
O20 O 0.32486 0.22218 0.58896 0.0
O21 O 0.437 0.39844 0.59619 0.0
O22 O 0.51223 0.30567 0.56975 0.0
C23 C 0.60098 0.25762 0.68167 0.0
O24 O 0.35139 0.32435 0.65945 0.0
O25 O 0.40958 0.20555 0.68373 0.0
In26 In 0.95352 0.74065 0.62771 0.0
O27 O 0.86578 0.67526 0.66758 0.0
O28 O 0.88718 0.81156 0.67456 0.0
C29 C 0.98064 0.61956 0.57103 0.0
C30 C 0.10044 0.74942 0.68399 0.0
C31 C 0.87086 0.8523 0.57036 0.0
O32 O 0.92286 0.61148 0.59338 0.0
O33 O 0.02594 0.68679 0.57806 0.0
O34 O 0.94776 0.86515 0.58808 0.0
O35 O 0.83661 0.78547 0.5826 0.0
C36 C 0.85107 0.74483 0.68579 0.0
O37 O 0.07534 0.81101 0.65868 0.0
O38 O 0.05322 0.6832 0.67984 0.0
In39 In 0.54561 0.73861 0.37435 0.0
O40 O 0.42086 0.80675 0.34468 0.0
O41 O 0.44474 0.67987 0.32305 0.0
C42 C 0.64676 0.84851 0.42652 0.0
C43 C 0.64314 0.74524 0.31428 0.0
C44 C 0.51785 0.61807 0.43146 0.0
O45 O 0.5682 0.86482 0.41329 0.0
O46 O 0.67172 0.77771 0.41363 0.0
O47 O 0.56133 0.6024 0.40276 0.0
O48 O 0.48651 0.69319 0.4306 0.0
C49 C 0.39663 0.74547 0.31892 0.0
O50 O 0.64717 0.68262 0.34027 0.0
O51 O 0.5881 0.80221 0.31794 0.0
In52 In 0.54276 0.77153 0.87511 0.0
O53 O 0.6299 0.83849 0.83531 0.0
O54 O 0.6096 0.7022 0.82801 0.0
C55 C 0.51612 0.89201 0.93214 0.0
C56 C 0.39569 0.76258 0.81903 0.0
C57 C 0.62461 0.65897 0.93222 0.0
O58 O 0.57338 0.9005 0.90949 0.0
O59 O 0.47132 0.82434 0.92543 0.0
O60 O 0.54726 0.64742 0.9149 0.0
O61 O 0.65961 0.72524 0.91985 0.0
C62 C 0.64512 0.76933 0.81691 0.0
O63 O 0.42482 0.69839 0.84166 0.0
O64 O 0.43884 0.83128 0.82578 0.0
In65 In 0.95534 0.76548 0.12567 0.0
O66 O 0.08004 0.69611 0.15434 0.0
O67 O 0.05829 0.82329 0.17625 0.0
C68 C 0.85204 0.65579 0.07444 0.0
C69 C 0.86018 0.75859 0.18673 0.0
C70 C 0.97998 0.88632 0.06801 0.0
O71 O 0.93125 0.64023 0.08602 0.0
O72 O 0.82761 0.72582 0.08839 0.0
O73 O 0.93895 0.90213 0.09768 0.0
O74 O 0.01119 0.81121 0.06843 0.0
C75 C 0.10559 0.75709 0.18005 0.0
O76 O 0.85535 0.82136 0.1608 0.0
O77 O 0.91504 0.70175 0.1826 0.0
In78 In 0.45593 0.24742 0.12592 0.0
O79 O 0.37449 0.18113 0.16883 0.0
O80 O 0.3872 0.31863 0.17149 0.0
C81 C 0.47739 0.12743 0.06799 0.0
C82 C 0.60412 0.25482 0.18147 0.0
C83 C 0.37375 0.35892 0.06862 0.0
O84 O 0.42217 0.11874 0.09186 0.0
O85 O 0.5226 0.19504 0.07395 0.0
O86 O 0.45243 0.36844 0.08415 0.0
O87 O 0.33804 0.29491 0.08273 0.0
C88 C 0.3569 0.25145 0.18563 0.0
O89 O 0.56911 0.32174 0.16329 0.0
O90 O 0.56667 0.18457 0.16998 0.0
In91 In 0.04302 0.24576 0.87484 0.0
O92 O 0.14353 0.19106 0.83992 0.0
O93 O 0.08587 0.31248 0.81944 0.0
C94 C 0.01589 0.12738 0.93288 0.0
C95 C 0.89452 0.24764 0.81917 0.0
C96 C 0.14513 0.35473 0.92666 0.0
O97 O 0.05902 0.11061 0.90413 0.0
O98 O 0.98406 0.20239 0.93141 0.0
O99 O 0.06692 0.37251 0.91311 0.0
O100 O 0.16902 0.28284 0.91443 0.0
C101 C 0.13999 0.25516 0.8148 0.0
O102 O 0.91718 0.3105 0.84419 0.0
O103 O 0.94422 0.18326 0.82393 0.0
C104 C 0.07021 0.44414 0.50765 0.0
C105 C 0.01251 0.45025 0.46821 0.0
C106 C 0.93257 0.56528 0.49678 0.0
C107 C 0.99002 0.559 0.53629 0.0
N108 N 0.11753 0.5004 0.57913 0.0
N109 N 0.88355 0.50726 0.42588 0.0
C110 C 0.06 0.5005 0.54167 0.0
C111 C 0.94221 0.50831 0.46295 0.0
N112 N 0.13195 0.3813 0.51309 0.0
N113 N 0.87163 0.6289 0.491 0.0
H114 H 0.89074 0.46943 0.39971 0.0
H115 H 0.82535 0.53992 0.42153 0.0
H116 H 0.86173 0.67105 0.51513 0.0
H117 H 0.83405 0.64416 0.46178 0.0
H118 H 0.17061 0.36647 0.54206 0.0
H119 H 0.14194 0.33963 0.48878 0.0
H120 H 0.17538 0.46713 0.58396 0.0
H121 H 0.10924 0.53733 0.60541 0.0
C122 C 0.42714 0.52029 0.4681 0.0
C123 C 0.50898 0.5552 0.46564 0.0
C124 C 0.5727 0.47681 0.53079 0.0
C125 C 0.49076 0.44217 0.53326 0.0
N126 N 0.343 0.41809 0.50142 0.0
N127 N 0.65747 0.57737 0.49676 0.0
C128 C 0.41853 0.46103 0.50133 0.0
C129 C 0.5815 0.53557 0.49732 0.0
N130 N 0.35736 0.54512 0.43894 0.0
N131 N 0.64223 0.45244 0.56028 0.0
H132 H 0.66647 0.62097 0.47297 0.0
H133 H 0.71058 0.57383 0.52105 0.0
H134 H 0.63742 0.4141 0.58669 0.0
H135 H 0.70536 0.46636 0.55792 0.0
H136 H 0.29431 0.53132 0.44156 0.0
H137 H 0.36201 0.58395 0.41273 0.0
H138 H 0.29055 0.4208 0.47672 0.0
H139 H 0.33412 0.37395 0.525 0.0
C140 C 0.42822 0.07084 0.99419 0.0
C141 C 0.48581 0.06543 0.03369 0.0
C142 C 0.56391 0.94749 0.0062 0.0
C143 C 0.50657 0.95312 0.96664 0.0
N144 N 0.37885 0.01102 0.92363 0.0
N145 N 0.61367 0.00758 0.07662 0.0
C146 C 0.4372 0.01237 0.9608 0.0
C147 C 0.55508 0.00607 0.03953 0.0
N148 N 0.36784 0.13497 0.98801 0.0
N149 N 0.62402 0.88309 0.01249 0.0
H150 H 0.60708 0.04685 0.1024 0.0
H151 H 0.67124 0.9738 0.08136 0.0
H152 H 0.63326 0.83977 0.98871 0.0
H153 H 0.66154 0.86845 0.04181 0.0
H154 H 0.33007 0.14952 0.95875 0.0
H155 H 0.35838 0.17794 0.0119 0.0
H156 H 0.32134 0.04492 0.91878 0.0
H157 H 0.38567 0.97187 0.89785 0.0
C158 C 0.91518 0.97399 0.00392 0.0
C159 C 0.98866 0.94984 0.03405 0.0
C160 C 0.07997 0.04169 0.99767 0.0
C161 C 0.00662 0.06536 0.96736 0.0
N162 N 0.85685 0.04864 0.93787 0.0
N163 N 0.13811 0.96743 0.06378 0.0
C164 C 0.92461 0.03076 0.96974 0.0
C165 C 0.07051 0.98492 0.0318 0.0
N166 N 0.83637 0.94275 0.00824 0.0
N167 N 0.15874 0.07341 0.9936 0.0
H168 H 0.13299 0.92707 0.08939 0.0
H169 H 0.19801 0.99652 0.06692 0.0
H170 H 0.16759 0.12008 0.97117 0.0
H171 H 0.21637 0.05162 0.01114 0.0
H172 H 0.77873 0.9645 0.99069 0.0
H173 H 0.82753 0.89675 0.03099 0.0
H174 H 0.79681 0.01992 0.93494 0.0
H175 H 0.86169 0.08907 0.9122 0.0
C176 C 0.67256 0.22389 0.2571 0.0
C177 C 0.6794 0.25843 0.21641 0.0
C178 C 0.82848 0.30092 0.24303 0.0
C179 C 0.82179 0.26593 0.28365 0.0
N180 N 0.74165 0.18834 0.32919 0.0
N181 N 0.75916 0.33707 0.17105 0.0
C182 C 0.74506 0.22554 0.29055 0.0
C183 C 0.75594 0.29934 0.20958 0.0
N184 N 0.59488 0.19523 0.26466 0.0
N185 N 0.90606 0.3299 0.23549 0.0
H186 H 0.71139 0.32946 0.1443 0.0
H187 H 0.80724 0.37934 0.16573 0.0
H188 H 0.96136 0.33178 0.25859 0.0
H189 H 0.91842 0.34626 0.20554 0.0
H190 H 0.58243 0.17907 0.29461 0.0
H191 H 0.53956 0.19354 0.24156 0.0
H192 H 0.6934 0.14641 0.33464 0.0
H193 H 0.78936 0.19622 0.35594 0.0
C194 C 0.66406 0.26548 0.7597 0.0
C195 C 0.67596 0.25296 0.71691 0.0
C196 C 0.83142 0.24443 0.74116 0.0
C197 C 0.81908 0.25111 0.78414 0.0
N198 N 0.72398 0.25436 0.83508 0.0
N199 N 0.76881 0.21987 0.66701 0.0
C200 C 0.73548 0.2585 0.79363 0.0
C201 C 0.75901 0.23867 0.70773 0.0
N202 N 0.58434 0.28385 0.76799 0.0
N203 N 0.91244 0.24823 0.73208 0.0
H204 H 0.71817 0.2203 0.64122 0.0
H205 H 0.82607 0.19827 0.65908 0.0
H206 H 0.96709 0.25419 0.75541 0.0
H207 H 0.92559 0.25331 0.70136 0.0
H208 H 0.57319 0.30496 0.79748 0.0
H209 H 0.52908 0.28245 0.74483 0.0
H210 H 0.66427 0.24926 0.8441 0.0
H211 H 0.77464 0.24887 0.86072 0.0
C212 C 0.17868 0.81381 0.75198 0.0
C213 C 0.17741 0.75496 0.71771 0.0
C214 C 0.32066 0.70283 0.7494 0.0
C215 C 0.31929 0.75723 0.78505 0.0
N216 N 0.24387 0.8552 0.82386 0.0
N217 N 0.24196 0.63732 0.6852 0.0
C218 C 0.24765 0.8107 0.78721 0.0
C219 C 0.24671 0.69729 0.71699 0.0
N220 N 0.11363 0.87216 0.75107 0.0
N221 N 0.39433 0.66024 0.7453 0.0
H222 H 0.19267 0.63614 0.65881 0.0
H223 H 0.28448 0.58587 0.68598 0.0
H224 H 0.45036 0.66332 0.76798 0.0
H225 H 0.40265 0.62737 0.7179 0.0
H226 H 0.11592 0.92367 0.77219 0.0
H227 H 0.05868 0.87255 0.72767 0.0
H228 H 0.18995 0.88837 0.82944 0.0
H229 H 0.29254 0.85315 0.85056 0.0
C230 C 0.25329 0.68947 0.28294 0.0
C231 C 0.3205 0.75076 0.28421 0.0
C232 C 0.24969 0.81166 0.21559 0.0
C233 C 0.18216 0.75084 0.21446 0.0
N234 N 0.12101 0.62737 0.24457 0.0
N235 N 0.38127 0.87455 0.25417 0.0
C236 C 0.18457 0.68816 0.24737 0.0
C237 C 0.31809 0.81335 0.25128 0.0
N238 N 0.25294 0.63606 0.31719 0.0
N239 N 0.25072 0.8642 0.18111 0.0
H240 H 0.43581 0.87437 0.27778 0.0
H241 H 0.37858 0.9285 0.23448 0.0
H242 H 0.20323 0.86245 0.15397 0.0
H243 H 0.30112 0.90488 0.17743 0.0
H244 H 0.2031 0.59459 0.32077 0.0
H245 H 0.3008 0.63725 0.34417 0.0
H246 H 0.12315 0.57361 0.26434 0.0
H247 H 0.06642 0.62778 0.22101 0.0
C248 C 0.21696 0.22648 0.20954 0.0
C249 C 0.30303 0.25586 0.21894 0.0
C250 C 0.28475 0.29761 0.29108 0.0
C251 C 0.19876 0.26792 0.28173 0.0
N252 N 0.08462 0.19502 0.23454 0.0
N253 N 0.41677 0.32978 0.26592 0.0
C254 C 0.16539 0.22961 0.24168 0.0
C255 C 0.33625 0.29462 0.2589 0.0
N256 N 0.18267 0.2016 0.16887 0.0
N257 N 0.31906 0.3226 0.33172 0.0
H258 H 0.4594 0.32373 0.24478 0.0
H259 H 0.4404 0.36945 0.29164 0.0
H260 H 0.28428 0.32409 0.35652 0.0
H261 H 0.38378 0.33525 0.34222 0.0
H262 H 0.11795 0.18907 0.15833 0.0
H263 H 0.2175 0.20014 0.14409 0.0
H264 H 0.06081 0.15553 0.20878 0.0
H265 H 0.04182 0.20158 0.25557 0.0
C266 C 0.24986 0.18686 0.72397 0.0
C267 C 0.30031 0.26136 0.71943 0.0
C268 C 0.242 0.33497 0.77604 0.0
C269 C 0.19224 0.26001 0.78079 0.0
N270 N 0.13027 0.1258 0.7516 0.0
N271 N 0.35891 0.39825 0.74678 0.0
C272 C 0.19164 0.18865 0.75292 0.0
C273 C 0.29951 0.33377 0.74661 0.0
N274 N 0.25851 0.11332 0.70137 0.0
N275 N 0.23333 0.40816 0.7989 0.0
H276 H 0.40476 0.39839 0.7271 0.0
H277 H 0.36904 0.44769 0.76919 0.0
H278 H 0.19632 0.41179 0.82261 0.0
H279 H 0.25797 0.46812 0.79237 0.0
H280 H 0.23339 0.05366 0.70807 0.0
H281 H 0.29584 0.10918 0.67782 0.0
H282 H 0.11941 0.0777 0.72849 0.0
H283 H 0.08323 0.12665 0.77062 0.0
C284 C 0.66456 0.79438 0.74188 0.0
C285 C 0.69916 0.76641 0.7838 0.0
C286 C 0.83179 0.72036 0.7609 0.0
C287 C 0.79724 0.74843 0.71898 0.0
N288 N 0.6859 0.81798 0.66915 0.0
N289 N 0.81045 0.69679 0.83364 0.0
C290 C 0.71496 0.78711 0.70935 0.0
C291 C 0.78143 0.72772 0.79343 0.0
N292 N 0.58185 0.82359 0.73287 0.0
N293 N 0.91438 0.6908 0.76987 0.0
H294 H 0.7779 0.70646 0.8589 0.0
H295 H 0.86477 0.65863 0.842 0.0
H296 H 0.95275 0.68354 0.74676 0.0
H297 H 0.94734 0.6776 0.80038 0.0
H298 H 0.54885 0.83651 0.70234 0.0
H299 H 0.54342 0.83075 0.75598 0.0
H300 H 0.63156 0.8561 0.66079 0.0
H301 H 0.71847 0.80829 0.6439 0.0
C302 C 0.75757 0.67791 0.22464 0.0
C303 C 0.80675 0.75344 0.22027 0.0
C304 C 0.74679 0.82533 0.27682 0.0
C305 C 0.69736 0.74993 0.28107 0.0
N306 N 0.63917 0.61396 0.2523 0.0
N307 N 0.86505 0.88933 0.24903 0.0
C308 C 0.69897 0.67834 0.2535 0.0
C309 C 0.80529 0.82494 0.2479 0.0
N310 N 0.76766 0.60486 0.20193 0.0
N311 N 0.73693 0.89825 0.29966 0.0
H312 H 0.91211 0.8895 0.23001 0.0
H313 H 0.8745 0.93807 0.27183 0.0
H314 H 0.69937 0.90131 0.32316 0.0
H315 H 0.76126 0.95848 0.29331 0.0
H316 H 0.74355 0.54461 0.20844 0.0
H317 H 0.80521 0.60167 0.17844 0.0
H318 H 0.62982 0.56525 0.22948 0.0
H319 H 0.59201 0.61373 0.27126 0.0
C320 C 0.3187 0.07759 0.50397 0.0
C321 C 0.29175 0.10251 0.54204 0.0
C322 C 0.14248 0.10055 0.50488 0.0
C323 C 0.17334 0.10617 0.46604 0.0
N324 N 0.2862 0.0796 0.4266 0.0
N325 N 0.17732 0.11158 0.58198 0.0
C326 C 0.26001 0.08596 0.46499 0.0
C327 C 0.20284 0.10359 0.54356 0.0
N328 N 0.39933 0.04642 0.50522 0.0
N329 N 0.05653 0.09473 0.50459 0.0
H330 H 0.22114 0.10741 0.61039 0.0
H331 H 0.11452 0.12286 0.58582 0.0
H332 H 0.01216 0.0882 0.4765 0.0
H333 H 0.02967 0.0872 0.53183 0.0
H334 H 0.42108 0.02291 0.47856 0.0
H335 H 0.44016 0.0338 0.53393 0.0
H336 H 0.35013 0.07545 0.4232 0.0
H337 H 0.24259 0.08085 0.39791 0.0
C338 C 0.73789 0.92512 0.53492 0.0
C339 C 0.82439 0.90367 0.53439 0.0
C340 C 0.79501 0.89803 0.45691 0.0
C341 C 0.70604 0.90058 0.45833 0.0
N342 N 0.59825 0.96084 0.49386 0.0
N343 N 0.94136 0.90807 0.49579 0.0
C344 C 0.67905 0.92958 0.49579 0.0
C345 C 0.85529 0.90431 0.49551 0.0
N346 N 0.7121 0.93645 0.57313 0.0
N347 N 0.82067 0.88534 0.41879 0.0
H348 H 0.9857 0.91585 0.52381 0.0
H349 H 0.96849 0.91229 0.46849 0.0
H350 H 0.77707 0.88647 0.39022 0.0
H351 H 0.88349 0.87298 0.41533 0.0
H352 H 0.64831 0.94183 0.57662 0.0
H353 H 0.75612 0.93834 0.60168 0.0
H354 H 0.57658 0.98729 0.51993 0.0
H355 H 0.55698 0.97037 0.46498 0.0
C356 C 0.70284 0.60796 0.04515 0.0
C357 C 0.7914 0.60442 0.04295 0.0
C358 C 0.75698 0.5831 0.96624 0.0
C359 C 0.67119 0.60624 0.96763 0.0
N360 N 0.5555 0.6035 0.00715 0.0
N361 N 0.89643 0.54283 0.00615 0.0
C362 C 0.64143 0.6048 0.00683 0.0
C363 C 0.81661 0.57607 0.00499 0.0
N364 N 0.67888 0.61856 0.08381 0.0
N365 N 0.78147 0.57262 0.92767 0.0
H366 H 0.93788 0.53141 0.03481 0.0
H367 H 0.91681 0.51663 0.97966 0.0
H368 H 0.73686 0.57276 0.89931 0.0
H369 H 0.8449 0.56599 0.92376 0.0
H370 H 0.61659 0.63088 0.08816 0.0
H371 H 0.72347 0.61519 0.112 0.0
H372 H 0.52901 0.59959 0.03465 0.0
H373 H 0.51019 0.59787 0.97934 0.0
C374 C 0.35544 0.41171 0.99377 0.0
C375 C 0.32608 0.41056 0.03303 0.0
C376 C 0.17986 0.43648 0.99552 0.0
C377 C 0.20543 0.40705 0.9578 0.0
N378 N 0.31857 0.38922 0.91743 0.0
N379 N 0.21494 0.44218 0.0728 0.0
C380 C 0.29408 0.40403 0.95566 0.0
C381 C 0.23973 0.43174 0.03429 0.0
N382 N 0.44105 0.41764 0.99316 0.0
N383 N 0.09933 0.46804 0.99423 0.0
H384 H 0.25943 0.44329 0.1012 0.0
H385 H 0.15132 0.4473 0.07664 0.0
H386 H 0.05715 0.47726 0.9656 0.0
H387 H 0.07881 0.49509 0.02049 0.0
H388 H 0.46659 0.42297 0.96541 0.0
H389 H 0.48613 0.42702 0.02079 0.0
H390 H 0.38112 0.37575 0.91384 0.0
H391 H 0.27432 0.38886 0.88908 0.0
loop_
_geom_bond_atom_site_label_1
_geom_bond_atom_site_label_2
_geom_bond_distance
_geom_bond_site_symmetry_2
_ccdc_geom_bond_type
In0 O1 2.294 1_455 S
In0 O2 2.326 1_455 S
In0 O6 2.266 . S
In0 O7 2.326 . S
In0 O8 2.266 . S
In0 O9 2.326 1_455 S
In0 O11 2.294 . S
In0 O12 2.326 . S
O1 In0 2.294 1_655 S
O1 C10 1.240 . S
O2 In0 2.326 1_655 S
O2 C10 1.252 . S
C3 O6 1.252 . S
C3 O7 1.260 . S
C4 O11 1.240 . S
C4 O12 1.252 . S
C5 O8 1.252 . S
C5 O9 1.260 1_455 S
O6 In0 2.266 . S
O6 C3 1.252 . S
O7 In0 2.326 . S
O7 C3 1.260 . S
O8 In0 2.266 . S
O8 C5 1.252 . S
O9 In0 2.326 1_655 S
O9 C5 1.260 1_655 S
C10 O1 1.240 . S
C10 O2 1.252 . S
O11 In0 2.294 . S
O11 C4 1.240 . S
O12 In0 2.326 . S
O12 C4 1.252 . S
In13 O14 2.294 . S
In13 O15 2.326 . S
In13 O19 2.266 . S
In13 O20 2.326 . S
In13 O21 2.266 . S
In13 O22 2.326 . S
In13 O24 2.294 . S
In13 O25 2.326 . S
O14 In13 2.294 . S
O14 C23 1.240 . S
O15 In13 2.326 . S
O15 C23 1.252 . S
C16 O19 1.252 . S
C16 O20 1.260 . S
C17 O24 1.240 . S
C17 O25 1.252 . S
C18 O21 1.252 . S
C18 O22 1.260 . S
O19 In13 2.266 . S
O19 C16 1.252 . S
O20 In13 2.326 . S
O20 C16 1.260 . S
O21 In13 2.266 . S
O21 C18 1.252 . S
O22 In13 2.326 . S
O22 C18 1.260 . S
C23 O14 1.240 . S
C23 O15 1.252 . S
O24 In13 2.294 . S
O24 C17 1.240 . S
O25 In13 2.326 . S
O25 C17 1.252 . S
In26 O27 2.294 . S
In26 O28 2.326 . S
In26 O32 2.266 . S
In26 O33 2.326 1_655 S
In26 O34 2.266 . S
In26 O35 2.326 . S
In26 O37 2.294 1_655 S
In26 O38 2.326 1_655 S
O27 In26 2.294 . S
O27 C36 1.240 . S
O28 In26 2.326 . S
O28 C36 1.252 . S
C29 O32 1.252 . S
C29 O33 1.260 1_655 S
C30 O37 1.240 . S
C30 O38 1.252 . S
C31 O34 1.252 . S
C31 O35 1.260 . S
O32 In26 2.266 . S
O32 C29 1.252 . S
O33 In26 2.326 1_455 S
O33 C29 1.260 1_455 S
O34 In26 2.266 . S
O34 C31 1.252 . S
O35 In26 2.326 . S
O35 C31 1.260 . S
C36 O27 1.240 . S
C36 O28 1.252 . S
O37 In26 2.294 1_455 S
O37 C30 1.240 . S
O38 In26 2.326 1_455 S
O38 C30 1.252 . S
In39 O40 2.294 . S
In39 O41 2.326 . S
In39 O45 2.266 . S
In39 O46 2.326 . S
In39 O47 2.266 . S
In39 O48 2.326 . S
In39 O50 2.294 . S
In39 O51 2.326 . S
O40 In39 2.294 . S
O40 C49 1.240 . S
O41 In39 2.326 . S
O41 C49 1.252 . S
C42 O45 1.252 . S
C42 O46 1.260 . S
C43 O50 1.240 . S
C43 O51 1.252 . S
C44 O47 1.252 . S
C44 O48 1.260 . S
O45 In39 2.266 . S
O45 C42 1.252 . S
O46 In39 2.326 . S
O46 C42 1.260 . S
O47 In39 2.266 . S
O47 C44 1.252 . S
O48 In39 2.326 . S
O48 C44 1.260 . S
C49 O40 1.240 . S
C49 O41 1.252 . S
O50 In39 2.294 . S
O50 C43 1.240 . S
O51 In39 2.326 . S
O51 C43 1.252 . S
In52 O53 2.294 . S
In52 O54 2.326 . S
In52 O58 2.266 . S
In52 O59 2.326 . S
In52 O60 2.266 . S
In52 O61 2.326 . S
In52 O63 2.294 . S
In52 O64 2.326 . S
O53 In52 2.294 . S
O53 C62 1.240 . S
O54 In52 2.326 . S
O54 C62 1.252 . S
C55 O58 1.252 . S
C55 O59 1.260 . S
C56 O63 1.240 . S
C56 O64 1.252 . S
C57 O60 1.252 . S
C57 O61 1.260 . S
O58 In52 2.266 . S
O58 C55 1.252 . S
O59 In52 2.326 . S
O59 C55 1.260 . S
O60 In52 2.266 . S
O60 C57 1.252 . S
O61 In52 2.326 . S
O61 C57 1.260 . S
C62 O53 1.240 . S
C62 O54 1.252 . S
O63 In52 2.294 . S
O63 C56 1.240 . S
O64 In52 2.326 . S
O64 C56 1.252 . S
In65 O66 2.294 1_655 S
In65 O67 2.326 1_655 S
In65 O71 2.266 . S
In65 O72 2.326 . S
In65 O73 2.266 . S
In65 O74 2.326 1_655 S
In65 O76 2.294 . S
In65 O77 2.326 . S
O66 In65 2.294 1_455 S
O66 C75 1.240 . S
O67 In65 2.326 1_455 S
O67 C75 1.252 . S
C68 O71 1.252 . S
C68 O72 1.260 . S
C69 O76 1.240 . S
C69 O77 1.252 . S
C70 O73 1.252 . S
C70 O74 1.260 1_655 S
O71 In65 2.266 . S
O71 C68 1.252 . S
O72 In65 2.326 . S
O72 C68 1.260 . S
O73 In65 2.266 . S
O73 C70 1.252 . S
O74 In65 2.326 1_455 S
O74 C70 1.260 1_455 S
C75 O66 1.240 . S
C75 O67 1.252 . S
O76 In65 2.294 . S
O76 C69 1.240 . S
O77 In65 2.326 . S
O77 C69 1.252 . S
In78 O79 2.294 . S
In78 O80 2.326 . S
In78 O84 2.266 . S
In78 O85 2.326 . S
In78 O86 2.266 . S
In78 O87 2.326 . S
In78 O89 2.294 . S
In78 O90 2.326 . S
O79 In78 2.294 . S
O79 C88 1.240 . S
O80 In78 2.326 . S
O80 C88 1.252 . S
C81 O84 1.252 . S
C81 O85 1.260 . S
C82 O89 1.240 . S
C82 O90 1.252 . S
C83 O86 1.252 . S
C83 O87 1.260 . S
O84 In78 2.266 . S
O84 C81 1.252 . S
O85 In78 2.326 . S
O85 C81 1.260 . S
O86 In78 2.266 . S
O86 C83 1.252 . S
O87 In78 2.326 . S
O87 C83 1.260 . S
C88 O79 1.240 . S
C88 O80 1.252 . S
O89 In78 2.294 . S
O89 C82 1.240 . S
O90 In78 2.326 . S
O90 C82 1.252 . S
In91 O92 2.294 . S
In91 O93 2.326 . S
In91 O97 2.266 . S
In91 O98 2.326 1_455 S
In91 O99 2.266 . S
In91 O100 2.326 . S
In91 O102 2.294 1_455 S
In91 O103 2.326 1_455 S
O92 In91 2.294 . S
O92 C101 1.240 . S
O93 In91 2.326 . S
O93 C101 1.252 . S
C94 O97 1.252 . S
C94 O98 1.260 1_455 S
C95 O102 1.240 . S
C95 O103 1.252 . S
C96 O99 1.252 . S
C96 O100 1.260 . S
O97 In91 2.266 . S
O97 C94 1.252 . S
O98 In91 2.326 1_655 S
O98 C94 1.260 1_655 S
O99 In91 2.266 . S
O99 C96 1.252 . S
O100 In91 2.326 . S
O100 C96 1.260 . S
C101 O92 1.240 . S
C101 O93 1.252 . S
O102 In91 2.294 1_655 S
O102 C95 1.240 . S
O103 In91 2.326 1_655 S
O103 C95 1.252 . S
C104 C105 1.363 1_455 S
C104 C110 1.379 . S
C104 N112 1.356 . S
C105 C104 1.363 1_655 S
C105 C111 1.363 . S
C106 C107 1.363 1_655 S
C106 C111 1.379 . S
C106 N113 1.356 . S
C107 C106 1.363 1_455 S
C107 C110 1.363 . S
N108 C110 1.356 . S
N108 H120 0.984 . S
N108 H121 0.985 . S
N109 C111 1.356 . S
N109 H114 0.984 . S
N109 H115 0.985 . S
C110 C104 1.379 . S
C110 C107 1.363 . S
C110 N108 1.356 . S
C111 C105 1.363 . S
C111 C106 1.379 . S
C111 N109 1.356 . S
N112 C104 1.356 . S
N112 H118 0.984 . S
N112 H119 0.984 . S
N113 C106 1.356 . S
N113 H116 0.984 . S
N113 H117 0.985 . S
H114 N109 0.984 . S
H115 N109 0.985 . S
H116 N113 0.984 . S
H117 N113 0.985 . S
H118 N112 0.984 . S
H119 N112 0.984 . S
H120 N108 0.984 . S
H121 N108 0.985 . S
C122 C123 1.363 . S
C122 C128 1.379 . S
C122 N130 1.356 . S
C123 C122 1.363 . S
C123 C129 1.363 . S
C124 C125 1.363 . S
C124 C129 1.379 . S
C124 N131 1.356 . S
C125 C124 1.363 . S
C125 C128 1.363 . S
N126 C128 1.356 . S
N126 H138 0.984 . S
N126 H139 0.985 . S
N127 C129 1.356 . S
N127 H132 0.984 . S
N127 H133 0.985 . S
C128 C122 1.379 . S
C128 C125 1.363 . S
C128 N126 1.356 . S
C129 C123 1.363 . S
C129 C124 1.379 . S
C129 N127 1.356 . S
N130 C122 1.356 . S
N130 H136 0.984 . S
N130 H137 0.984 . S
N131 C124 1.356 . S
N131 H134 0.984 . S
N131 H135 0.985 . S
H132 N127 0.984 . S
H133 N127 0.985 . S
H134 N131 0.984 . S
H135 N131 0.985 . S
H136 N130 0.984 . S
H137 N130 0.984 . S
H138 N126 0.984 . S
H139 N126 0.985 . S
C140 C141 1.363 . S
C140 C146 1.379 1_544 S
C140 N148 1.356 . S
C141 C140 1.363 . S
C141 C147 1.363 . S
C142 C143 1.363 . S
C142 C147 1.379 1_566 S
C142 N149 1.356 . S
C143 C142 1.363 . S
C143 C146 1.363 . S
N144 C146 1.356 . S
N144 H156 0.984 . S
N144 H157 0.985 . S
N145 C147 1.356 . S
N145 H150 0.984 . S
N145 H151 0.985 . S
C146 C140 1.379 1_566 S
C146 C143 1.363 . S
C146 N144 1.356 . S
C147 C141 1.363 . S
C147 C142 1.379 1_544 S
C147 N145 1.356 . S
N148 C140 1.356 . S
N148 H154 0.984 . S
N148 H155 0.984 . S
N149 C142 1.356 . S
N149 H152 0.984 . S
N149 H153 0.985 . S
H150 N145 0.984 . S
H151 N145 0.985 . S
H152 N149 0.984 . S
H153 N149 0.985 . S
H154 N148 0.984 . S
H155 N148 0.984 . S
H156 N144 0.984 . S
H157 N144 0.985 . S
C158 C159 1.363 1_645 S
C158 C164 1.379 1_554 S
C158 N166 1.356 1_545 S
C159 C158 1.363 1_465 S
C159 C165 1.363 . S
C160 C161 1.363 1_465 S
C160 C165 1.379 1_556 S
C160 N167 1.356 1_565 S
C161 C160 1.363 1_645 S
C161 C164 1.363 . S
N162 C164 1.356 . S
N162 H174 0.984 . S
N162 H175 0.985 . S
N163 C165 1.356 . S
N163 H168 0.984 . S
N163 H169 0.985 . S
C164 C158 1.379 1_556 S
C164 C161 1.363 . S
C164 N162 1.356 . S
C165 C159 1.363 . S
C165 C160 1.379 1_554 S
C165 N163 1.356 . S
N166 C158 1.356 1_565 S
N166 H172 0.984 1_565 S
N166 H173 0.984 . S
N167 C160 1.356 1_545 S
N167 H170 0.984 . S
N167 H171 0.985 1_545 S
H168 N163 0.984 . S
H169 N163 0.985 . S
H170 N167 0.984 . S
H171 N167 0.985 1_565 S
H172 N166 0.984 1_545 S
H173 N166 0.984 . S
H174 N162 0.984 . S
H175 N162 0.985 . S
C176 C177 1.363 . S
C176 C182 1.379 . S
C176 N184 1.356 . S
C177 C176 1.363 . S
C177 C183 1.363 . S
C178 C179 1.363 . S
C178 C183 1.379 . S
C178 N185 1.356 . S
C179 C178 1.363 . S
C179 C182 1.363 . S
N180 C182 1.356 . S
N180 H192 0.984 . S
N180 H193 0.985 . S
N181 C183 1.356 . S
N181 H186 0.984 . S
N181 H187 0.985 . S
C182 C176 1.379 . S
C182 C179 1.363 . S
C182 N180 1.356 . S
C183 C177 1.363 . S
C183 C178 1.379 . S
C183 N181 1.356 . S
N184 C176 1.356 . S
N184 H190 0.984 . S
N184 H191 0.984 . S
N185 C178 1.356 . S
N185 H188 0.984 . S
N185 H189 0.985 . S
H186 N181 0.984 . S
H187 N181 0.985 . S
H188 N185 0.984 . S
H189 N185 0.985 . S
H190 N184 0.984 . S
H191 N184 0.984 . S
H192 N180 0.984 . S
H193 N180 0.985 . S
C194 C195 1.363 . S
C194 C200 1.379 . S
C194 N202 1.356 . S
C195 C194 1.363 . S
C195 C201 1.363 . S
C196 C197 1.363 . S
C196 C201 1.379 . S
C196 N203 1.356 . S
C197 C196 1.363 . S
C197 C200 1.363 . S
N198 C200 1.356 . S
N198 H210 0.984 . S
N198 H211 0.985 . S
N199 C201 1.356 . S
N199 H204 0.984 . S
N199 H205 0.985 . S
C200 C194 1.379 . S
C200 C197 1.363 . S
C200 N198 1.356 . S
C201 C195 1.363 . S
C201 C196 1.379 . S
C201 N199 1.356 . S
N202 C194 1.356 . S
N202 H208 0.984 . S
N202 H209 0.984 . S
N203 C196 1.356 . S
N203 H206 0.984 . S
N203 H207 0.985 . S
H204 N199 0.984 . S
H205 N199 0.985 . S
H206 N203 0.984 . S
H207 N203 0.985 . S
H208 N202 0.984 . S
H209 N202 0.984 . S
H210 N198 0.984 . S
H211 N198 0.985 . S
C212 C213 1.363 . S
C212 C218 1.379 . S
C212 N220 1.356 . S
C213 C212 1.363 . S
C213 C219 1.363 . S
C214 C215 1.363 . S
C214 C219 1.379 . S
C214 N221 1.356 . S
C215 C214 1.363 . S
C215 C218 1.363 . S
N216 C218 1.356 . S
N216 H228 0.984 . S
N216 H229 0.985 . S
N217 C219 1.356 . S
N217 H222 0.984 . S
N217 H223 0.985 . S
C218 C212 1.379 . S
C218 C215 1.363 . S
C218 N216 1.356 . S
C219 C213 1.363 . S
C219 C214 1.379 . S
C219 N217 1.356 . S
N220 C212 1.356 . S
N220 H226 0.984 . S
N220 H227 0.984 . S
N221 C214 1.356 . S
N221 H224 0.984 . S
N221 H225 0.985 . S
H222 N217 0.984 . S
H223 N217 0.985 . S
H224 N221 0.984 . S
H225 N221 0.985 . S
H226 N220 0.984 . S
H227 N220 0.984 . S
H228 N216 0.984 . S
H229 N216 0.985 . S
C230 C231 1.363 . S
C230 C236 1.379 . S
C230 N238 1.356 . S
C231 C230 1.363 . S
C231 C237 1.363 . S
C232 C233 1.363 . S
C232 C237 1.379 . S
C232 N239 1.356 . S
C233 C232 1.363 . S
C233 C236 1.363 . S
N234 C236 1.356 . S
N234 H246 0.984 . S
N234 H247 0.985 . S
N235 C237 1.356 . S
N235 H240 0.984 . S
N235 H241 0.985 . S
C236 C230 1.379 . S
C236 C233 1.363 . S
C236 N234 1.356 . S
C237 C231 1.363 . S
C237 C232 1.379 . S
C237 N235 1.356 . S
N238 C230 1.356 . S
N238 H244 0.984 . S
N238 H245 0.984 . S
N239 C232 1.356 . S
N239 H242 0.984 . S
N239 H243 0.985 . S
H240 N235 0.984 . S
H241 N235 0.985 . S
H242 N239 0.984 . S
H243 N239 0.985 . S
H244 N238 0.984 . S
H245 N238 0.984 . S
H246 N234 0.984 . S
H247 N234 0.985 . S
C248 C249 1.363 . S
C248 C254 1.379 . S
C248 N256 1.356 . S
C249 C248 1.363 . S
C249 C255 1.363 . S
C250 C251 1.363 . S
C250 C255 1.379 . S
C250 N257 1.356 . S
C251 C250 1.363 . S
C251 C254 1.363 . S
N252 C254 1.356 . S
N252 H264 0.984 . S
N252 H265 0.985 . S
N253 C255 1.356 . S
N253 H258 0.984 . S
N253 H259 0.985 . S
C254 C248 1.379 . S
C254 C251 1.363 . S
C254 N252 1.356 . S
C255 C249 1.363 . S
C255 C250 1.379 . S
C255 N253 1.356 . S
N256 C248 1.356 . S
N256 H262 0.984 . S
N256 H263 0.984 . S
N257 C250 1.356 . S
N257 H260 0.984 . S
N257 H261 0.985 . S
H258 N253 0.984 . S
H259 N253 0.985 . S
H260 N257 0.984 . S
H261 N257 0.985 . S
H262 N256 0.984 . S
H263 N256 0.984 . S
H264 N252 0.984 . S
H265 N252 0.985 . S
C266 C267 1.363 . S
C266 C272 1.379 . S
C266 N274 1.356 . S
C267 C266 1.363 . S
C267 C273 1.363 . S
C268 C269 1.363 . S
C268 C273 1.379 . S
C268 N275 1.356 . S
C269 C268 1.363 . S
C269 C272 1.363 . S
N270 C272 1.356 . S
N270 H282 0.984 . S
N270 H283 0.985 . S
N271 C273 1.356 . S
N271 H276 0.984 . S
N271 H277 0.985 . S
C272 C266 1.379 . S
C272 C269 1.363 . S
C272 N270 1.356 . S
C273 C267 1.363 . S
C273 C268 1.379 . S
C273 N271 1.356 . S
N274 C266 1.356 . S
N274 H280 0.984 . S
N274 H281 0.984 . S
N275 C268 1.356 . S
N275 H278 0.984 . S
N275 H279 0.985 . S
H276 N271 0.984 . S
H277 N271 0.985 . S
H278 N275 0.984 . S
H279 N275 0.985 . S
H280 N274 0.984 . S
H281 N274 0.984 . S
H282 N270 0.984 . S
H283 N270 0.985 . S
C284 C285 1.363 . S
C284 C290 1.379 . S
C284 N292 1.356 . S
C285 C284 1.363 . S
C285 C291 1.363 . S
C286 C287 1.363 . S
C286 C291 1.379 . S
C286 N293 1.356 . S
C287 C286 1.363 . S
C287 C290 1.363 . S
N288 C290 1.356 . S
N288 H300 0.984 . S
N288 H301 0.985 . S
N289 C291 1.356 . S
N289 H294 0.984 . S
N289 H295 0.985 . S
C290 C284 1.379 . S
C290 C287 1.363 . S
C290 N288 1.356 . S
C291 C285 1.363 . S
C291 C286 1.379 . S
C291 N289 1.356 . S
N292 C284 1.356 . S
N292 H298 0.984 . S
N292 H299 0.984 . S
N293 C286 1.356 . S
N293 H296 0.984 . S
N293 H297 0.985 . S
H294 N289 0.984 . S
H295 N289 0.985 . S
H296 N293 0.984 . S
H297 N293 0.985 . S
H298 N292 0.984 . S
H299 N292 0.984 . S
H300 N288 0.984 . S
H301 N288 0.985 . S
C302 C303 1.363 . S
C302 C308 1.379 . S
C302 N310 1.356 . S
C303 C302 1.363 . S
C303 C309 1.363 . S
C304 C305 1.363 . S
C304 C309 1.379 . S
C304 N311 1.356 . S
C305 C304 1.363 . S
C305 C308 1.363 . S
N306 C308 1.356 . S
N306 H318 0.984 . S
N306 H319 0.985 . S
N307 C309 1.356 . S
N307 H312 0.984 . S
N307 H313 0.985 . S
C308 C302 1.379 . S
C308 C305 1.363 . S
C308 N306 1.356 . S
C309 C303 1.363 . S
C309 C304 1.379 . S
C309 N307 1.356 . S
N310 C302 1.356 . S
N310 H316 0.984 . S
N310 H317 0.984 . S
N311 C304 1.356 . S
N311 H314 0.984 . S
N311 H315 0.985 . S
H312 N307 0.984 . S
H313 N307 0.985 . S
H314 N311 0.984 . S
H315 N311 0.985 . S
H316 N310 0.984 . S
H317 N310 0.984 . S
H318 N306 0.984 . S
H319 N306 0.985 . S
C320 C321 1.363 . S
C320 C326 1.379 . S
C320 N328 1.356 . S
C321 C320 1.363 . S
C321 C327 1.363 . S
C322 C323 1.363 . S
C322 C327 1.379 . S
C322 N329 1.356 . S
C323 C322 1.363 . S
C323 C326 1.363 . S
N324 C326 1.356 . S
N324 H336 0.984 . S
N324 H337 0.985 . S
N325 C327 1.356 . S
N325 H330 0.984 . S
N325 H331 0.985 . S
C326 C320 1.379 . S
C326 C323 1.363 . S
C326 N324 1.356 . S
C327 C321 1.363 . S
C327 C322 1.379 . S
C327 N325 1.356 . S
N328 C320 1.356 . S
N328 H334 0.984 . S
N328 H335 0.984 . S
N329 C322 1.356 . S
N329 H332 0.984 . S
N329 H333 0.985 . S
H330 N325 0.984 . S
H331 N325 0.985 . S
H332 N329 0.984 . S
H333 N329 0.985 . S
H334 N328 0.984 . S
H335 N328 0.984 . S
H336 N324 0.984 . S
H337 N324 0.985 . S
C338 C339 1.363 . S
C338 C344 1.379 . S
C338 N346 1.356 . S
C339 C338 1.363 . S
C339 C345 1.363 . S
C340 C341 1.363 . S
C340 C345 1.379 . S
C340 N347 1.356 . S
C341 C340 1.363 . S
C341 C344 1.363 . S
N342 C344 1.356 . S
N342 H354 0.984 . S
N342 H355 0.985 . S
N343 C345 1.356 . S
N343 H348 0.984 . S
N343 H349 0.985 . S
C344 C338 1.379 . S
C344 C341 1.363 . S
C344 N342 1.356 . S
C345 C339 1.363 . S
C345 C340 1.379 . S
C345 N343 1.356 . S
N346 C338 1.356 . S
N346 H352 0.984 . S
N346 H353 0.984 . S
N347 C340 1.356 . S
N347 H350 0.984 . S
N347 H351 0.985 . S
H348 N343 0.984 . S
H349 N343 0.985 . S
H350 N347 0.984 . S
H351 N347 0.985 . S
H352 N346 0.984 . S
H353 N346 0.984 . S
H354 N342 0.984 . S
H355 N342 0.985 . S
C356 C357 1.363 . S
C356 C362 1.379 1_554 S
C356 N364 1.356 . S
C357 C356 1.363 . S
C357 C363 1.363 . S
C358 C359 1.363 . S
C358 C363 1.379 1_556 S
C358 N365 1.356 . S
C359 C358 1.363 . S
C359 C362 1.363 . S
N360 C362 1.356 . S
N360 H372 0.984 1_556 S
N360 H373 0.985 . S
N361 C363 1.356 . S
N361 H366 0.984 . S
N361 H367 0.985 1_554 S
C362 C356 1.379 1_556 S
C362 C359 1.363 . S
C362 N360 1.356 . S
C363 C357 1.363 . S
C363 C358 1.379 1_554 S
C363 N361 1.356 . S
N364 C356 1.356 . S
N364 H370 0.984 . S
N364 H371 0.984 . S
N365 C358 1.356 . S
N365 H368 0.984 . S
N365 H369 0.985 . S
H366 N361 0.984 . S
H367 N361 0.985 1_556 S
H368 N365 0.984 . S
H369 N365 0.985 . S
H370 N364 0.984 . S
H371 N364 0.984 . S
H372 N360 0.984 1_554 S
H373 N360 0.985 . S
C374 C375 1.363 . S
C374 C380 1.379 1_554 S
C374 N382 1.356 . S
C375 C374 1.363 . S
C375 C381 1.363 . S
C376 C377 1.363 . S
C376 C381 1.379 1_556 S
C376 N383 1.356 . S
C377 C376 1.363 . S
C377 C380 1.363 . S
N378 C380 1.356 . S
N378 H390 0.984 . S
N378 H391 0.985 . S
N379 C381 1.356 . S
N379 H384 0.984 . S
N379 H385 0.985 . S
C380 C374 1.379 1_556 S
C380 C377 1.363 . S
C380 N378 1.356 . S
C381 C375 1.363 . S
C381 C376 1.379 1_554 S
C381 N379 1.356 . S
N382 C374 1.356 . S
N382 H388 0.984 1_554 S
N382 H389 0.984 . S
N383 C376 1.356 . S
N383 H386 0.984 . S
N383 H387 0.985 1_556 S
H384 N379 0.984 . S
H385 N379 0.985 . S
H386 N383 0.984 . S
H387 N383 0.985 1_554 S
H388 N382 0.984 1_556 S
H389 N382 0.984 . S
H390 N378 0.984 . S
H391 N378 0.985 . S
C105 C5 1.561 1_655 S
C107 C29 1.561 1_455 S
C123 C44 1.561 . S
C125 C18 1.561 . S
C141 C81 1.561 . S
C143 C55 1.561 . S
C159 C70 1.561 1_455 S
C161 C94 1.561 1_655 S
C177 C82 1.752 . S
C179 C10 1.752 . S
C195 C23 1.752 . S
C197 C95 1.752 . S
C213 C30 1.752 . S
C215 C56 1.752 . S
C231 C49 1.752 . S
C233 C75 1.752 . S
C249 C88 1.565 . S
C251 C4 1.565 . S
C267 C17 1.565 . S
C269 C101 1.565 . S
C285 C62 1.565 . S
C287 C36 1.565 . S
C303 C69 1.565 . S
C305 C43 1.565 . S
C321 C16 0.869 . S
C323 C3 0.869 . S
C339 C31 0.869 . S
C341 C42 0.869 . S
C357 C68 0.869 . S
C359 C57 0.869 . S
C375 C83 0.869 . S
C377 C96 0.869 . S
