# Generated by pormake.
# Topology kag, (6)-cn, num edge types: 1
# Building blocks:
#     Node 0, Type 0, BuildingBlock: NUHQIS_clean_sbu_0, # of connection points: 6
#     Node 1, Type 0, BuildingBlock: NUHQIS_clean_sbu_0, # of connection points: 6
#     Node 2, Type 0, BuildingBlock: NUHQIS_clean_sbu_0, # of connection points: 6
#     Edge 3, Type (0, 0), BuildingBlock: ZUJKAS_clean_linker_0, # of connection points: 2
#     Edge 4, Type (0, 0), BuildingBlock: ZUJKAS_clean_linker_0, # of connection points: 2
#     Edge 5, Type (0, 0), BuildingBlock: ZUJKAS_clean_linker_0, # of connection points: 2
#     Edge 6, Type (0, 0), BuildingBlock: ZUJKAS_clean_linker_0, # of connection points: 2
#     Edge 7, Type (0, 0), BuildingBlock: ZUJKAS_clean_linker_0, # of connection points: 2
#     Edge 8, Type (0, 0), BuildingBlock: ZUJKAS_clean_linker_0, # of connection points: 2
#     Edge 9, Type (0, 0), BuildingBlock: ZUJKAS_clean_linker_0, # of connection points: 2
#     Edge 10, Type (0, 0), BuildingBlock: ZUJKAS_clean_linker_0, # of connection points: 2
#     Edge 11, Type (0, 0), BuildingBlock: ZUJKAS_clean_linker_0, # of connection points: 2
# Relax obj value: 0.055
# Max RMSD: 0.163
# Mean RMSD: 0.096
data_MOF--net-kag--node1-NUHQIS_clean_sbu_0--edge1-ZUJKAS_clean_linker_0
_symmetry_space_group_name_H-M    P1
_symmetry_Int_Tables_number       1
_symmetry_cell_setting            triclinic
loop_
_symmetry_equiv_pos_as_xyz
'x, y, z'
_cell_length_a     58.887305
_cell_length_b     40.302743
_cell_length_c     19.759631
_cell_angle_alpha  87.448144
_cell_angle_beta   96.16173
_cell_angle_gamma 121.41078
loop_
_atom_site_label
_atom_site_type_symbol
_atom_site_fract_x
_atom_site_fract_y
_atom_site_fract_z
_atom_type_partial_charge
Tb0 Tb 0.03624 0.50166 0.99063 0.0
Eu1 Eu 1.02013 0.56851 0.97826 0.0
C2 C 0.02905 0.53551 0.12007 0.0
C3 C 0.9754 0.47694 0.98188 0.0
C4 C 0.07872 0.45884 0.00438 0.0
C5 C 0.10891 0.43667 0.046 0.0
C6 C 0.08344 0.43189 0.04031 0.0
C7 C 0.09986 0.49085 0.97475 0.0
C8 C 0.12525 0.49565 0.98035 0.0
C9 C 0.13007 0.46852 0.01571 0.0
C10 C 0.0519 0.45374 -0.0017 0.0
O11 O 1.02065 0.50207 0.88541 0.0
O12 O 0.03519 0.56652 0.8798 0.0
O13 O 0.06483 0.6015 0.00577 0.0
O14 O 0.0735 0.55547 0.97274 0.0
C15 C 0.02815 0.53379 0.84972 0.0
O16 O 1.00181 0.59635 0.91697 0.0
O17 O 1.01862 0.61633 0.02059 0.0
O18 O 1.01271 0.54351 0.08309 0.0
O19 O 0.0452 0.52846 0.0911 0.0
O20 O 0.99384 0.46948 0.00781 0.0
O21 O 0.98176 0.51098 0.95588 0.0
C22 C 0.08167 0.59136 0.9909 0.0
O23 O 0.0458 0.4651 0.05044 0.0
O24 O 0.0449 0.46506 0.9414 0.0
C25 C 0.97938 0.61621 0.97999 0.0
C26 C 0.93005 0.60913 -0.00433 0.0
C27 C 0.94803 0.63796 0.95371 0.0
C28 C 0.97251 0.64148 0.94603 0.0
C29 C 0.96161 0.58756 0.02234 0.0
C30 C 0.9372 0.58419 0.03044 0.0
C31 C 1.00415 0.61814 0.96727 0.0
H32 H 0.11189 0.41506 0.07304 0.0
H33 H 0.0674 0.40705 0.06364 0.0
H34 H 0.0967 0.51207 0.94689 0.0
H35 H 0.14116 0.52081 0.95732 0.0
H36 H 0.94315 0.6578 0.9268 0.0
H37 H 0.98592 0.66356 0.91276 0.0
H38 H 0.96643 0.56738 0.04818 0.0
H39 H 0.92363 0.56142 0.06244 0.0
Tb40 Tb 0.5613 0.06557 0.98393 0.0
Eu41 Eu 0.4943 1.01799 0.97027 0.0
C42 C 0.52985 0.04128 0.1136 0.0
C43 C 0.5264 0.97185 0.98023 0.0
C44 C 0.63889 0.13373 0.00313 0.0
C45 C 0.6861 0.15771 0.03548 0.0
C46 C 0.65932 0.12736 0.03 0.0
C47 C 0.6457 0.17161 0.98411 0.0
C48 C 0.67258 0.20219 0.98998 0.0
C49 C 0.69328 0.19553 0.01441 0.0
C50 C 0.61173 0.09937 0.98667 0.0
O51 O 0.54565 0.04047 0.88202 0.0
O52 O 0.50844 0.0448 0.86933 0.0
O53 O 0.50811 0.08096 0.98898 0.0
O54 O 0.55254 0.11245 0.96844 0.0
C55 C 0.52748 0.04366 0.84281 0.0
O56 O 0.45575 0.97948 0.9129 0.0
O57 O 0.45702 1.00476 0.00893 0.0
O58 O 0.50882 1.01316 0.07821 0.0
O59 O 0.55007 0.06937 0.08371 0.0
O60 O 0.54886 1.00425 0.00058 0.0
O61 O 0.50429 0.9715 0.95879 0.0
C62 C 0.53093 0.11299 0.97917 0.0
O63 O 0.59826 0.07779 0.03588 0.0
O64 O 0.59629 0.10179 0.93674 0.0
C65 C 0.41612 0.94574 0.97212 0.0
C66 C 0.36305 0.88354 0.98643 0.0
C67 C 0.37719 0.88313 0.93364 0.0
C68 C 0.40332 0.91387 0.92643 0.0
C69 C 0.40234 0.94552 0.02621 0.0
C70 C 0.37623 0.91481 0.03341 0.0
C71 C 0.44184 0.98136 0.95822 0.0
H72 H 0.70124 0.15095 0.05345 0.0
H73 H 0.65468 0.09832 0.044 0.0
H74 H 0.63038 0.17738 0.96284 0.0
H75 H 0.67714 0.23094 0.97429 0.0
H76 H 0.36767 0.85984 0.896 0.0
H77 H 0.41309 0.91329 0.88347 0.0
H78 H 0.41142 0.96978 0.06185 0.0
H79 H 0.36619 0.91593 0.0753 0.0
Tb80 Tb 0.49704 0.51748 0.97182 0.0
Eu81 Eu 0.56262 0.5692 0.98802 0.0
C82 C 0.52888 0.54514 0.84499 0.0
C83 C 0.53069 0.47514 0.97977 0.0
C84 C 0.42396 0.48283 0.96919 0.0
C85 C 0.37873 0.46782 0.93465 0.0
C86 C 0.40057 0.46452 0.92444 0.0
C87 C 0.42532 0.50473 0.02452 0.0
C88 C 0.40334 0.50785 0.03507 0.0
C89 C 0.37982 0.48948 0.99006 0.0
C90 C 0.44651 0.47867 0.95635 0.0
O91 O 0.50902 0.53957 0.07611 0.0
O92 O 0.549 0.54249 0.08942 0.0
O93 O 0.55039 0.61245 0.00577 0.0
O94 O 0.50655 0.57792 0.95926 0.0
C95 C 0.52876 0.54049 0.11553 0.0
O96 O 0.60105 0.60284 0.04981 0.0
O97 O 0.59989 0.59615 0.94104 0.0
O98 O 0.54781 0.5751 0.88109 0.0
O99 O 0.51064 0.51469 0.87527 0.0
O100 O 0.50882 0.47408 -0.00664 0.0
O101 O 0.55229 0.50803 0.9661 0.0
C102 C 0.52794 0.61072 0.98307 0.0
O103 O 0.4614 0.50127 0.91012 0.0
O104 O 0.46076 0.47601 0.00924 0.0
C105 C 0.63687 0.6008 0.00977 0.0
C106 C 0.68124 0.59116 0.0228 0.0
C107 C 0.68207 0.62142 0.0579 0.0
C108 C 0.6601 0.62627 0.05116 0.0
C109 C 0.63558 0.56959 0.97677 0.0
C110 C 0.65764 0.56496 0.98294 0.0
C111 C 0.61489 0.60849 -0.00135 0.0
H112 H 0.36081 0.45288 0.89963 0.0
H113 H 0.39916 0.4475 0.88149 0.0
H114 H 0.44332 0.51937 0.0594 0.0
H115 H 0.40485 0.52501 0.07788 0.0
H116 H 0.70006 0.6422 0.08856 0.0
H117 H 0.66148 0.65051 0.077 0.0
H118 H 0.61775 0.54927 0.94505 0.0
H119 H 0.65635 0.54111 0.956 0.0
H120 H 1.01585 0.47168 0.76928 0.0
H121 H 1.01689 0.47055 0.64583 0.0
H122 H 0.04146 0.59173 0.63703 0.0
H123 H 0.04084 0.59334 0.76016 0.0
H124 H 0.98845 0.48628 0.54181 0.0
H125 H 0.09739 0.58894 0.53621 0.0
H126 H 0.08253 0.56681 0.61371 0.0
H127 H 0.08134 0.60809 0.57971 0.0
C128 C 1.02155 0.49814 0.74114 0.0
C129 C 0.02838 0.53265 0.7748 0.0
C130 C 1.02212 0.49742 0.67056 0.0
C131 C 0.02968 0.53121 0.63232 0.0
C132 C 0.03615 0.56553 0.66564 0.0
H133 H 0.99946 0.55055 0.19749 0.0
H134 H 0.99959 0.54825 0.3213 0.0
C135 C 0.03561 0.5663 0.73611 0.0
C136 C 0.03022 0.53044 0.55738 0.0
H137 H 0.07077 0.57324 0.42949 0.0
C138 C 1.00648 0.50513 0.51726 0.0
C139 C 0.05384 0.55465 0.52543 0.0
C140 C 0.08029 0.58089 0.56596 0.0
C141 C 1.00556 0.50409 0.44596 0.0
C142 C 0.02891 0.52951 0.41383 0.0
C143 C 0.05281 0.55408 0.45408 0.0
C144 C 0.02896 0.53111 0.33854 0.0
C145 C 0.97964 0.47546 0.40577 0.0
C146 C 0.04599 0.52332 0.30703 0.0
C147 C 0.04613 0.5249 0.23615 0.0
C148 C 0.02933 0.53452 0.19534 0.0
C149 C 1.01255 0.54281 0.22721 0.0
C150 C 1.01245 0.54127 0.29805 0.0
H151 H 0.96615 0.45121 0.43795 0.0
H152 H 0.96915 0.4906 0.38557 0.0
H153 H 0.98332 0.46309 0.36204 0.0
H154 H 0.05902 0.51566 0.3373 0.0
H155 H 0.05933 0.51839 0.2134 0.0
H156 H 0.56901 0.09509 0.20522 0.0
H157 H 0.56932 0.09576 0.32917 0.0
H158 H 0.49209 0.98985 0.3165 0.0
H159 H 0.49166 0.98861 0.19294 0.0
H160 H 0.53315 0.09821 0.40659 0.0
H161 H 0.53663 0.96443 0.45839 0.0
H162 H 0.54374 0.98897 0.37783 0.0
H163 H 0.50973 0.95768 0.39695 0.0
C164 C 0.55214 0.07179 0.22874 0.0
C165 C 0.53038 0.04168 0.18893 0.0
C166 C 0.55234 0.07229 0.29964 0.0
C167 C 0.5309 0.04258 0.33221 0.0
C168 C 0.50909 1.01266 0.29264 0.0
H169 H 0.49178 0.04608 0.74419 0.0
H170 H 0.49282 0.04664 0.62059 0.0
C171 C 0.50884 1.01213 0.22183 0.0
C172 C 0.53107 0.04326 0.40741 0.0
H173 H 0.52833 0.99118 0.55077 0.0
C174 C 0.53219 0.07489 0.43819 0.0
C175 C 0.53012 1.01303 0.44866 0.0
C176 C 0.53024 0.97926 0.419 0.0
C177 C 0.53193 0.07678 0.50897 0.0
C178 C 0.5301 0.04592 0.54994 0.0
C179 C 0.52944 1.01462 0.51926 0.0
C180 C 0.52941 0.04584 0.62495 0.0
C181 C 0.53407 0.11211 0.53934 0.0
C182 C 0.54929 0.04432 0.66854 0.0
C183 C 0.54865 0.04371 0.73914 0.0
C184 C 0.52803 0.04442 0.76778 0.0
C185 C 0.50803 0.04571 0.72396 0.0
C186 C 0.50868 0.04627 0.65324 0.0
H187 H 0.54224 0.13717 0.50427 0.0
H188 H 0.51387 0.10513 0.54947 0.0
H189 H 0.54703 0.12092 0.58827 0.0
H190 H 0.56542 0.0438 0.64788 0.0
H191 H 0.56439 0.04269 0.77122 0.0
H192 H 0.49203 0.48873 0.75398 0.0
H193 H 0.49213 0.48804 0.63037 0.0
H194 H 0.56532 0.59996 0.64196 0.0
H195 H 0.56522 0.60121 0.76561 0.0
H196 H 0.52789 0.59523 0.53915 0.0
H197 H 0.54066 0.46867 0.52713 0.0
H198 H 0.51261 0.45918 0.57046 0.0
H199 H 0.54596 0.49397 0.60579 0.0
C200 C 0.5082 0.51321 0.73035 0.0
C201 C 0.5287 0.54495 0.76986 0.0
C202 C 0.50829 0.51264 0.65965 0.0
C203 C 0.52898 0.54363 0.62702 0.0
C204 C 0.54924 0.57563 0.66613 0.0
H205 H 0.56682 0.5444 0.21332 0.0
H206 H 0.56689 0.54587 0.33694 0.0
C207 C 0.54915 0.57627 0.73685 0.0
C208 C 0.52929 0.54298 0.55201 0.0
H209 H 0.53087 0.4915 0.42165 0.0
C210 C 0.52861 0.57261 0.51344 0.0
C211 C 0.53058 0.51373 0.51863 0.0
C212 C 0.53276 0.48227 0.55758 0.0
C213 C 0.52875 0.57345 0.44231 0.0
C214 C 0.52916 0.5435 0.40872 0.0
C215 C 0.53028 0.51421 0.44739 0.0
C216 C 0.52884 0.54233 0.33357 0.0
C217 C 0.52894 0.60679 0.40389 0.0
C218 C 0.50724 0.53927 0.29054 0.0
C219 C 0.50713 0.53848 0.21978 0.0
C220 C 0.52859 0.54048 0.1906 0.0
C221 C 0.55 0.5429 0.23394 0.0
C222 C 0.55008 0.54372 0.30468 0.0
H223 H 0.53561 0.63211 0.43792 0.0
H224 H 0.54224 0.61634 0.3623 0.0
H225 H 0.50839 0.5972 0.38082 0.0
H226 H 0.49037 0.53733 0.31171 0.0
H227 H 0.49023 0.53634 0.18803 0.0
H228 H 0.15773 0.45708 0.12591 0.0
H229 H 0.20209 0.46499 0.13174 0.0
H230 H 0.2074 0.49808 0.92082 0.0
H231 H 0.16322 0.49021 0.91454 0.0
H232 H 0.21908 0.42706 0.05777 0.0
H233 H 0.27789 0.58531 0.01087 0.0
H234 H 0.24391 0.56093 0.03294 0.0
H235 H 0.25055 0.55931 0.94672 0.0
C236 C 0.16833 0.46596 0.08075 0.0
C237 C 0.157 0.47327 0.01987 0.0
C238 C 0.19373 0.47067 0.08427 0.0
C239 C 0.20829 0.48289 0.02712 0.0
C240 C 0.19688 0.48971 0.96612 0.0
H241 H 0.34833 0.50259 0.89451 0.0
H242 H 0.3076 0.50236 0.91009 0.0
C243 C 0.17157 0.48512 0.96258 0.0
C244 C 0.23491 0.4869 0.03006 0.0
H245 H 0.29976 0.55004 -0.00117 0.0
C246 C 0.23682 0.45407 0.04583 0.0
C247 C 0.25803 0.52222 0.01459 0.0
C248 C 0.25762 0.55905 0.00099 0.0
C249 C 0.26096 0.45516 0.04369 0.0
C250 C 0.28385 0.49014 0.02615 0.0
C251 C 0.28213 0.52324 0.01208 0.0
C252 C 0.30934 0.49229 0.01843 0.0
C253 C 0.26157 0.41849 0.05757 0.0
C254 C 0.32411 0.48751 0.07452 0.0
C255 C 0.34742 0.48757 0.06576 0.0
C256 C 0.35627 0.49231 0.0007 0.0
C257 C 0.3418 0.49824 0.94507 0.0
C258 C 0.31863 0.49836 0.95393 0.0
H259 H 0.24116 0.39238 0.05802 0.0
H260 H 0.27203 0.414 0.01867 0.0
H261 H 0.27271 0.42118 0.10802 0.0
H262 H 0.31744 0.48328 0.12489 0.0
H263 H 0.35806 0.48278 0.10954 0.0
H264 H 0.73571 0.20824 0.10708 0.0
H265 H 0.78324 0.25594 0.10169 0.0
H266 H 0.76455 0.30274 0.9187 0.0
H267 H 0.71701 0.25425 0.92187 0.0
H268 H 0.8136 0.26623 0.97974 0.0
H269 H 0.81467 0.3985 0.05482 0.0
H270 H 0.78909 0.35012 0.07701 0.0
H271 H 0.78863 0.36674 -0.00855 0.0
C272 C 0.74157 0.22844 0.06531 0.0
C273 C 0.72222 0.22699 0.01475 0.0
C274 C 0.76884 0.2559 0.06261 0.0
C275 C 0.77747 0.28302 0.00999 0.0
C276 C 0.75833 0.28235 0.96023 0.0
H277 H 0.93217 0.47686 0.91473 0.0
H278 H 0.88479 0.42894 0.92057 0.0
C279 C 0.73105 0.25466 0.96246 0.0
C280 C 0.80656 0.31112 0.00585 0.0
H281 H 0.85484 0.40751 0.02212 0.0
C282 C 0.82269 0.29713 0.9892 0.0
C283 C 0.81832 0.35141 0.01764 0.0
C284 C 0.80194 0.36783 0.03666 0.0
C285 C 0.85017 0.3224 0.9828 0.0
C286 C 0.86213 0.3628 -0.00442 0.0
C287 C 0.84587 0.37667 0.0124 0.0
C288 C 0.89128 0.39128 0.99092 0.0
C289 C 0.86583 0.30559 0.96016 0.0
C290 C 0.91104 0.38648 0.02864 0.0
C291 C 0.93831 0.41371 0.02463 0.0
C292 C 0.94651 0.44682 0.9838 0.0
C293 C 0.9267 0.45173 0.94662 0.0
C294 C 0.89949 0.42431 0.95004 0.0
H295 H 0.85255 0.27748 0.93244 0.0
H296 H 0.88112 0.32589 0.92659 0.0
H297 H 0.87613 0.30001 0.00558 0.0
H298 H 0.90541 0.36199 0.06218 0.0
H299 H 0.95295 0.4092 0.05472 0.0
H300 H 0.56795 0.9595 0.01724 0.0
H301 H 0.56724 0.89818 0.01719 0.0
H302 H 0.48324 0.83706 0.94758 0.0
H303 H 0.48384 0.8982 0.94642 0.0
H304 H 0.53941 0.83089 0.08732 0.0
H305 H 0.5108 0.7982 0.81117 0.0
H306 H 0.5216 0.84512 0.84718 0.0
H307 H 0.48787 0.80527 0.85225 0.0
C308 C 0.54929 0.93309 0.00165 0.0
C309 C 0.52599 0.93421 0.9814 0.0
C310 C 0.54891 0.89788 0.00171 0.0
C311 C 0.52531 0.86273 0.98117 0.0
C312 C 0.50193 0.86367 0.962 0.0
H313 H 0.48506 0.62033 0.94662 0.0
H314 H 0.48407 0.6804 0.94809 0.0
C315 C 0.50228 0.89884 0.96184 0.0
C316 C 0.52506 0.82517 0.98113 0.0
H317 H 0.51078 0.74838 0.87985 0.0
C318 C 0.53325 0.813 0.04178 0.0
C319 C 0.51693 0.80138 0.92199 0.0
C320 C 0.50904 0.81325 0.85428 0.0
C321 C 0.53314 0.77782 0.04524 0.0
C322 C 0.52517 0.75414 0.98601 0.0
C323 C 0.51686 0.76622 0.92542 0.0
C324 C 0.52574 0.71721 0.98555 0.0
C325 C 0.54098 0.76596 0.11304 0.0
C326 C 0.54951 0.71747 0.00512 0.0
C327 C 0.55012 0.68309 0.00454 0.0
C328 C 0.52701 0.64729 0.98367 0.0
C329 C 0.50327 0.64713 0.96317 0.0
C330 C 0.50268 0.68161 0.96393 0.0
H331 H 0.53851 0.78027 0.15607 0.0
H332 H 0.5289 0.73398 0.1195 0.0
H333 H 0.56236 0.77493 0.11598 0.0
H334 H 0.56781 0.74446 0.02028 0.0
H335 H 0.56888 0.68473 0.02014 0.0
H336 H 0.90557 0.59845 0.11165 0.0
H337 H 0.86197 0.59106 0.12135 0.0
H338 H 0.85154 0.60222 0.90394 0.0
H339 H 0.89496 0.60939 0.8937 0.0
H340 H 0.84651 0.64834 0.06861 0.0
H341 H 0.78157 0.49952 0.95683 0.0
H342 H 0.81556 0.51771 -0.00688 0.0
H343 H 0.80921 0.53338 0.91062 0.0
C344 C 0.89387 0.59901 0.0659 0.0
C345 C 0.90367 0.60454 0.00192 0.0
C346 C 0.86907 0.59492 0.07156 0.0
C347 C 0.85353 0.59574 0.01329 0.0
C348 C 0.86318 0.60112 0.94938 0.0
H349 H 0.70241 0.58049 0.91565 0.0
H350 H 0.74396 0.58039 0.9174 0.0
C351 C 0.88805 0.60555 0.94372 0.0
C352 C 0.8276 0.59237 0.01929 0.0
H353 H 0.76042 0.53397 0.97737 0.0
C354 C 0.82762 0.62325 0.04926 0.0
C355 C 0.80314 0.55967 -0.00649 0.0
C356 C 0.80215 0.52546 0.96207 0.0
C357 C 0.80378 0.62287 0.05234 0.0
C358 C 0.7792 0.59013 0.02647 0.0
C359 C 0.77923 0.55898 -0.00266 0.0
C360 C 0.75338 0.58832 0.02661 0.0
C361 C 0.80531 0.6582 0.08081 0.0
C362 C 0.74454 0.59191 0.08759 0.0
C363 C 0.7209 0.5923 0.08663 0.0
C364 C 0.70543 0.58834 0.02478 0.0
C365 C 0.71381 0.58328 0.96413 0.0
C366 C 0.73758 0.58334 0.96504 0.0
H367 H 0.82573 0.68433 0.08098 0.0
H368 H 0.79101 0.6647 0.05105 0.0
H369 H 0.80017 0.65264 0.13419 0.0
H370 H 0.75601 0.59469 0.1359 0.0
H371 H 0.71469 0.59568 0.13422 0.0
H372 H 0.12268 0.58185 0.96338 0.0
H373 H 0.17023 0.6309 0.96622 0.0
H374 H 0.1545 0.71837 0.02404 0.0
H375 H 0.10684 0.66931 0.02237 0.0
H376 H 0.19559 0.69765 0.89117 0.0
H377 H 0.21493 0.73495 0.16649 0.0
H378 H 0.18483 0.6923 0.13079 0.0
H379 H 0.1882 0.73926 0.12317 0.0
C380 C 0.12923 0.61141 0.97713 0.0
C381 C 0.11075 0.62139 -0.00702 0.0
C382 C 0.15653 0.63952 0.97862 0.0
C383 C 0.16611 0.67831 -0.00367 0.0
C384 C 0.14774 0.68851 0.01168 0.0
H385 H 0.3221 0.892 0.01876 0.0
H386 H 0.2749 0.84196 0.02136 0.0
C387 C 0.1204 0.66038 0.01027 0.0
C388 C 0.19519 0.70815 -0.00324 0.0
H389 H 0.24996 0.77514 0.09791 0.0
C390 C 0.2075 0.71444 0.93649 0.0
C391 C 0.2108 0.73017 0.05583 0.0
C392 C 0.19913 0.72368 0.12295 0.0
C393 C 0.23474 0.74255 0.93328 0.0
C394 C 0.25035 0.7646 -0.00766 0.0
C395 C 0.23806 0.75829 0.05264 0.0
C396 C 0.27936 0.7947 -0.00765 0.0
C397 C 0.24638 0.74908 0.8661 0.0
C398 C 0.29783 0.78482 0.97644 0.0
C399 C 0.32496 0.81342 0.9752 0.0
C400 C 0.33433 0.85258 0.9904 0.0
C401 C 0.3158 0.86217 0.00765 0.0
C402 C 0.2887 0.83357 0.00879 0.0
H403 H 0.23056 0.73753 0.82261 0.0
H404 H 0.26049 0.7805 0.85803 0.0
H405 H 0.25753 0.73381 0.866 0.0
H406 H 0.29128 0.75491 0.96517 0.0
H407 H 0.33863 0.80478 0.96281 0.0
H408 H 0.49013 0.40017 0.00302 0.0
H409 H 0.49132 0.34024 0.00371 0.0
H410 H 0.57324 0.40583 0.95684 0.0
H411 H 0.57237 0.4658 0.95694 0.0
H412 H 0.50021 0.30466 0.90304 0.0
H413 H 0.57885 0.34393 0.11783 0.0
H414 H 0.56243 0.37106 0.0991 0.0
H415 H 0.58893 0.37878 0.05067 0.0
C416 C 0.50849 0.40199 -0.00681 0.0
C417 C 0.53119 0.4382 0.98028 0.0
C418 C 0.50913 0.36753 -0.00649 0.0
C419 C 0.53251 0.36823 0.98151 0.0
C420 C 0.5551 0.40428 0.96793 0.0
H421 H 0.57319 0.18728 0.9576 0.0
H422 H 0.57373 0.24865 0.95658 0.0
C423 C 0.55449 0.43872 0.96752 0.0
C424 C 0.53304 0.33125 0.9814 0.0
H425 H 0.5656 0.2867 0.05505 0.0
C426 C 0.51446 0.30076 0.93659 0.0
C427 C 0.55167 0.32584 0.02473 0.0
C428 C 0.57145 0.35646 0.07627 0.0
C429 C 0.51422 0.26564 0.93316 0.0
C430 C 0.53273 0.2601 0.97681 0.0
C431 C 0.55141 0.29067 0.02138 0.0
C432 C 0.53257 0.22257 0.97799 0.0
C433 C 0.49447 0.23512 0.88143 0.0
C434 C 0.50949 0.18719 -0.00839 0.0
C435 C 0.50911 0.15204 -0.0079 0.0
C436 C 0.53189 0.15103 0.97954 0.0
C437 C 0.5552 0.18662 0.9672 0.0
C438 C 0.55554 0.22188 0.96668 0.0
H439 H 0.48764 0.24794 0.83909 0.0
H440 H 0.50325 0.21985 0.8597 0.0
H441 H 0.47663 0.21332 0.90648 0.0
H442 H 0.49167 0.1867 0.00235 0.0
H443 H 0.4908 0.12554 0.00246 0.0
loop_
_geom_bond_atom_site_label_1
_geom_bond_atom_site_label_2
_geom_bond_distance
_geom_bond_site_symmetry_2
_ccdc_geom_bond_type
Tb0 C10 2.825 . S
Tb0 O11 2.347 1_554 S
Tb0 O14 2.366 . S
Tb0 O19 2.418 . S
Tb0 O20 2.384 1_455 S
Tb0 O23 2.479 . S
Tb0 O24 2.471 1_554 S
Eu1 O12 2.418 . S
Eu1 O13 2.384 1_655 S
Eu1 O16 2.479 . S
Eu1 O17 2.471 1_556 S
Eu1 O18 2.347 1_556 S
Eu1 O21 2.366 . S
Eu1 C31 2.825 . S
C2 O18 1.259 1_455 S
C2 O19 1.265 . S
C3 O20 1.255 1_556 S
C3 O21 1.265 . S
C4 C6 1.382 . S
C4 C7 1.371 1_554 S
C4 C10 1.507 . S
C5 C6 1.384 . S
C5 C9 1.387 1_554 S
C5 H32 0.930 . S
C6 C4 1.382 . S
C6 C5 1.384 . S
C6 H33 0.931 . S
C7 C4 1.371 1_556 S
C7 C8 1.390 . S
C7 H34 0.930 . S
C8 C7 1.390 . S
C8 C9 1.391 . S
C8 H35 0.930 . S
C9 C5 1.387 1_556 S
C9 C8 1.391 . S
C10 Tb0 2.825 . S
C10 C4 1.507 . S
C10 O23 1.238 . S
C10 O24 1.247 1_554 S
O11 Tb0 2.347 1_556 S
O11 C15 1.259 1_455 S
O12 Eu1 2.418 . S
O12 C15 1.265 . S
O13 Eu1 2.384 1_455 S
O13 C22 1.255 1_556 S
O14 Tb0 2.366 . S
O14 C22 1.265 . S
C15 O11 1.259 1_655 S
C15 O12 1.265 . S
O16 Eu1 2.479 . S
O16 C31 1.238 . S
O17 Eu1 2.471 1_554 S
O17 C31 1.247 1_554 S
O18 Eu1 2.347 1_554 S
O18 C2 1.259 1_655 S
O19 Tb0 2.418 . S
O19 C2 1.265 . S
O20 Tb0 2.384 1_655 S
O20 C3 1.255 1_554 S
O21 Eu1 2.366 . S
O21 C3 1.265 . S
C22 O13 1.255 1_554 S
C22 O14 1.265 . S
O23 Tb0 2.479 . S
O23 C10 1.238 . S
O24 Tb0 2.471 1_556 S
O24 C10 1.247 1_556 S
C25 C28 1.380 1_554 S
C25 C29 1.373 . S
C25 C31 1.507 1_554 S
C26 C27 1.387 1_554 S
C26 C30 1.391 . S
C27 C26 1.387 1_556 S
C27 C28 1.384 . S
C27 H36 0.930 . S
C28 C25 1.380 1_556 S
C28 C27 1.384 . S
C28 H37 0.931 . S
C29 C25 1.373 . S
C29 C30 1.390 . S
C29 H38 0.930 . S
C30 C26 1.391 . S
C30 C29 1.390 . S
C30 H39 0.930 . S
C31 Eu1 2.825 . S
C31 O16 1.238 . S
C31 O17 1.247 1_556 S
C31 C25 1.507 1_556 S
H32 C5 0.930 . S
H33 C6 0.931 . S
H34 C7 0.930 . S
H35 C8 0.930 . S
H36 C27 0.930 . S
H37 C28 0.931 . S
H38 C29 0.930 . S
H39 C30 0.930 . S
Tb40 C50 2.825 . S
Tb40 O51 2.347 1_554 S
Tb40 O54 2.366 . S
Tb40 O59 2.418 . S
Tb40 O60 2.384 1_545 S
Tb40 O63 2.479 . S
Tb40 O64 2.471 1_554 S
Eu41 O52 2.418 . S
Eu41 O53 2.384 1_565 S
Eu41 O56 2.479 . S
Eu41 O57 2.471 1_556 S
Eu41 O58 2.347 1_556 S
Eu41 O61 2.366 . S
Eu41 C71 2.825 . S
C42 O58 1.259 1_545 S
C42 O59 1.265 . S
C43 O60 1.253 1_556 S
C43 O61 1.267 . S
C44 C46 1.380 . S
C44 C47 1.374 1_554 S
C44 C50 1.507 . S
C45 C46 1.384 . S
C45 C49 1.387 1_554 S
C45 H72 0.930 . S
C46 C44 1.380 . S
C46 C45 1.384 . S
C46 H73 0.931 . S
C47 C44 1.374 1_556 S
C47 C48 1.390 . S
C47 H74 0.930 . S
C48 C47 1.390 . S
C48 C49 1.391 . S
C48 H75 0.930 . S
C49 C45 1.387 1_556 S
C49 C48 1.391 . S
C50 Tb40 2.825 . S
C50 C44 1.507 . S
C50 O63 1.238 . S
C50 O64 1.247 1_554 S
O51 Tb40 2.347 1_556 S
O51 C55 1.259 1_545 S
O52 Eu41 2.418 . S
O52 C55 1.265 . S
O53 Eu41 2.384 1_545 S
O53 C62 1.255 1_556 S
O54 Tb40 2.366 . S
O54 C62 1.265 . S
C55 O51 1.259 1_565 S
C55 O52 1.265 . S
O56 Eu41 2.479 . S
O56 C71 1.238 . S
O57 Eu41 2.471 1_554 S
O57 C71 1.247 1_554 S
O58 Eu41 2.347 1_554 S
O58 C42 1.259 1_565 S
O59 Tb40 2.418 . S
O59 C42 1.265 . S
O60 Tb40 2.384 1_565 S
O60 C43 1.253 1_554 S
O61 Eu41 2.366 . S
O61 C43 1.267 . S
C62 O53 1.255 1_554 S
C62 O54 1.265 . S
O63 Tb40 2.479 . S
O63 C50 1.238 . S
O64 Tb40 2.471 1_556 S
O64 C50 1.247 1_556 S
C65 C68 1.380 . S
C65 C69 1.374 1_556 S
C65 C71 1.507 . S
C66 C67 1.387 1_554 S
C66 C70 1.391 . S
C67 C66 1.387 1_556 S
C67 C68 1.384 . S
C67 H76 0.930 . S
C68 C65 1.380 . S
C68 C67 1.384 . S
C68 H77 0.931 . S
C69 C65 1.374 1_554 S
C69 C70 1.390 . S
C69 H78 0.930 . S
C70 C66 1.391 . S
C70 C69 1.390 . S
C70 H79 0.930 . S
C71 Eu41 2.825 . S
C71 O56 1.238 . S
C71 O57 1.247 1_556 S
C71 C65 1.507 . S
H72 C45 0.930 . S
H73 C46 0.931 . S
H74 C47 0.930 . S
H75 C48 0.930 . S
H76 C67 0.930 . S
H77 C68 0.931 . S
H78 C69 0.930 . S
H79 C70 0.930 . S
Tb80 C90 2.825 . S
Tb80 O91 2.347 1_556 S
Tb80 O94 2.366 . S
Tb80 O99 2.418 . S
Tb80 O100 2.384 . S
Tb80 O103 2.479 . S
Tb80 O104 2.471 1_556 S
Eu81 O92 2.418 . S
Eu81 O93 2.384 . S
Eu81 O96 2.479 . S
Eu81 O97 2.471 1_554 S
Eu81 O98 2.347 1_554 S
Eu81 O101 2.366 . S
Eu81 C111 2.825 . S
C82 O98 1.259 . S
C82 O99 1.265 . S
C83 O100 1.255 1_554 S
C83 O101 1.265 . S
C84 C86 1.380 . S
C84 C87 1.374 1_556 S
C84 C90 1.507 . S
C85 C86 1.384 . S
C85 C89 1.387 1_556 S
C85 H112 0.930 . S
C86 C84 1.380 . S
C86 C85 1.384 . S
C86 H113 0.931 . S
C87 C84 1.374 1_554 S
C87 C88 1.390 . S
C87 H114 0.930 . S
C88 C87 1.390 . S
C88 C89 1.391 . S
C88 H115 0.930 . S
C89 C85 1.387 1_554 S
C89 C88 1.391 . S
C90 Tb80 2.825 . S
C90 C84 1.507 . S
C90 O103 1.238 . S
C90 O104 1.247 1_556 S
O91 Tb80 2.347 1_554 S
O91 C95 1.259 . S
O92 Eu81 2.418 . S
O92 C95 1.265 . S
O93 Eu81 2.384 . S
O93 C102 1.255 1_554 S
O94 Tb80 2.366 . S
O94 C102 1.265 . S
C95 O91 1.259 . S
C95 O92 1.265 . S
O96 Eu81 2.479 . S
O96 C111 1.238 . S
O97 Eu81 2.471 1_556 S
O97 C111 1.247 1_556 S
O98 Eu81 2.347 1_556 S
O98 C82 1.259 . S
O99 Tb80 2.418 . S
O99 C82 1.265 . S
O100 Tb80 2.384 . S
O100 C83 1.255 1_556 S
O101 Eu81 2.366 . S
O101 C83 1.265 . S
C102 O93 1.255 1_556 S
C102 O94 1.265 . S
O103 Tb80 2.479 . S
O103 C90 1.238 . S
O104 Tb80 2.471 1_554 S
O104 C90 1.247 1_554 S
C105 C108 1.380 . S
C105 C109 1.374 1_554 S
C105 C111 1.507 . S
C106 C107 1.387 1_556 S
C106 C110 1.391 . S
C107 C106 1.387 1_554 S
C107 C108 1.384 . S
C107 H116 0.930 . S
C108 C105 1.380 . S
C108 C107 1.384 . S
C108 H117 0.931 . S
C109 C105 1.374 1_556 S
C109 C110 1.390 . S
C109 H118 0.930 . S
C110 C106 1.391 . S
C110 C109 1.390 . S
C110 H119 0.930 . S
C111 Eu81 2.825 . S
C111 O96 1.238 . S
C111 O97 1.247 1_554 S
C111 C105 1.507 . S
H112 C85 0.930 . S
H113 C86 0.931 . S
H114 C87 0.930 . S
H115 C88 0.930 . S
H116 C107 0.930 . S
H117 C108 0.931 . S
H118 C109 0.930 . S
H119 C110 0.930 . S
H120 C128 0.929 . S
H121 C130 0.930 . S
H122 C132 0.930 . S
H123 C135 0.929 . S
H124 C138 0.930 . S
H125 C140 0.960 . S
H126 C140 0.960 . S
H127 C140 0.960 . S
C128 H120 0.929 . S
C128 C129 1.388 . S
C128 C130 1.384 . S
C129 C128 1.388 . S
C129 C135 1.377 1_655 S
C130 H121 0.930 . S
C130 C128 1.384 . S
C130 C131 1.392 . S
C131 C130 1.392 . S
C131 C132 1.384 1_655 S
C131 C136 1.491 . S
C132 H122 0.930 . S
C132 C131 1.384 1_455 S
C132 C135 1.386 . S
H133 C149 0.930 . S
H134 C150 0.931 . S
C135 H123 0.929 . S
C135 C129 1.377 1_455 S
C135 C132 1.386 . S
C136 C131 1.491 . S
C136 C138 1.430 . S
C136 C139 1.365 1_655 S
H137 C143 0.930 . S
C138 H124 0.930 . S
C138 C136 1.430 . S
C138 C141 1.403 . S
C139 C136 1.365 1_455 S
C139 C140 1.524 . S
C139 C143 1.400 . S
C140 H125 0.960 . S
C140 H126 0.960 . S
C140 H127 0.960 . S
C140 C139 1.524 . S
C141 C138 1.403 . S
C141 C142 1.392 . S
C141 C145 1.495 . S
C142 C141 1.392 . S
C142 C143 1.385 1_655 S
C142 C144 1.478 . S
C143 H137 0.930 . S
C143 C139 1.400 . S
C143 C142 1.385 1_455 S
C144 C142 1.478 . S
C144 C146 1.381 . S
C144 C150 1.383 1_655 S
C145 C141 1.495 . S
C145 H151 0.959 . S
C145 H152 0.961 . S
C145 H153 0.960 . S
C146 C144 1.381 . S
C146 C147 1.394 . S
C146 H154 0.930 . S
C147 C146 1.394 . S
C147 C148 1.383 1_655 S
C147 H155 0.929 . S
C148 C147 1.383 1_455 S
C148 C149 1.377 . S
C149 H133 0.930 . S
C149 C148 1.377 . S
C149 C150 1.379 . S
C150 H134 0.931 . S
C150 C144 1.383 1_455 S
C150 C149 1.379 . S
H151 C145 0.959 . S
H152 C145 0.961 . S
H153 C145 0.960 . S
H154 C146 0.930 . S
H155 C147 0.929 . S
H156 C164 0.929 . S
H157 C166 0.930 . S
H158 C168 0.930 . S
H159 C171 0.929 . S
H160 C174 0.930 . S
H161 C176 0.960 . S
H162 C176 0.960 . S
H163 C176 0.960 . S
C164 H156 0.929 . S
C164 C165 1.360 1_545 S
C164 C166 1.384 . S
C165 C164 1.360 1_565 S
C165 C171 1.406 . S
C166 H157 0.930 . S
C166 C164 1.384 . S
C166 C167 1.372 . S
C167 C166 1.372 . S
C167 C168 1.400 1_545 S
C167 C172 1.490 . S
C168 H158 0.930 . S
C168 C167 1.400 1_565 S
C168 C171 1.386 . S
H169 C185 0.930 . S
H170 C186 0.931 . S
C171 H159 0.929 . S
C171 C165 1.406 . S
C171 C168 1.386 . S
C172 C167 1.490 . S
C172 C174 1.395 . S
C172 C175 1.403 1_545 S
H173 C179 0.930 . S
C174 H160 0.930 . S
C174 C172 1.395 . S
C174 C177 1.403 . S
C175 C172 1.403 1_565 S
C175 C176 1.524 . S
C175 C179 1.400 . S
C176 H161 0.960 . S
C176 H162 0.960 . S
C176 H163 0.960 . S
C176 C175 1.524 . S
C177 C174 1.403 . S
C177 C178 1.392 . S
C177 C181 1.495 . S
C178 C177 1.392 . S
C178 C179 1.385 1_545 S
C178 C180 1.478 . S
C179 H173 0.930 . S
C179 C175 1.400 . S
C179 C178 1.385 1_565 S
C180 C178 1.478 . S
C180 C182 1.381 . S
C180 C186 1.383 1_545 S
C181 C177 1.495 . S
C181 H187 0.959 . S
C181 H188 0.961 . S
C181 H189 0.960 . S
C182 C180 1.381 . S
C182 C183 1.394 . S
C182 H190 0.930 . S
C183 C182 1.394 . S
C183 C184 1.383 . S
C183 H191 0.929 . S
C184 C183 1.383 . S
C184 C185 1.377 1_545 S
C185 H169 0.930 . S
C185 C184 1.377 1_565 S
C185 C186 1.379 . S
C186 H170 0.931 . S
C186 C180 1.383 1_565 S
C186 C185 1.379 . S
H187 C181 0.959 . S
H188 C181 0.961 . S
H189 C181 0.960 . S
H190 C182 0.930 . S
H191 C183 0.929 . S
H192 C200 0.929 . S
H193 C202 0.930 . S
H194 C204 0.930 . S
H195 C207 0.929 . S
H196 C210 0.930 . S
H197 C212 0.960 . S
H198 C212 0.960 . S
H199 C212 0.960 . S
C200 H192 0.929 . S
C200 C201 1.377 . S
C200 C202 1.384 . S
C201 C200 1.377 . S
C201 C207 1.390 . S
C202 H193 0.930 . S
C202 C200 1.384 . S
C202 C203 1.372 . S
C203 C202 1.372 . S
C203 C204 1.400 . S
C203 C208 1.490 . S
C204 H194 0.930 . S
C204 C203 1.400 . S
C204 C207 1.386 . S
H205 C221 0.930 . S
H206 C222 0.931 . S
C207 H195 0.929 . S
C207 C201 1.390 . S
C207 C204 1.386 . S
C208 C203 1.490 . S
C208 C210 1.395 . S
C208 C211 1.403 . S
H209 C215 0.930 . S
C210 H196 0.930 . S
C210 C208 1.395 . S
C210 C213 1.403 . S
C211 C208 1.403 . S
C211 C212 1.524 . S
C211 C215 1.400 . S
C212 H197 0.960 . S
C212 H198 0.960 . S
C212 H199 0.960 . S
C212 C211 1.524 . S
C213 C210 1.403 . S
C213 C214 1.392 . S
C213 C217 1.495 . S
C214 C213 1.392 . S
C214 C215 1.385 . S
C214 C216 1.478 . S
C215 H209 0.930 . S
C215 C211 1.400 . S
C215 C214 1.385 . S
C216 C214 1.478 . S
C216 C218 1.381 . S
C216 C222 1.383 . S
C217 C213 1.495 . S
C217 H223 0.959 . S
C217 H224 0.961 . S
C217 H225 0.960 . S
C218 C216 1.381 . S
C218 C219 1.394 . S
C218 H226 0.930 . S
C219 C218 1.394 . S
C219 C220 1.383 . S
C219 H227 0.929 . S
C220 C219 1.383 . S
C220 C221 1.377 . S
C221 H205 0.930 . S
C221 C220 1.377 . S
C221 C222 1.379 . S
C222 H206 0.931 . S
C222 C216 1.383 . S
C222 C221 1.379 . S
H223 C217 0.959 . S
H224 C217 0.961 . S
H225 C217 0.960 . S
H226 C218 0.930 . S
H227 C219 0.929 . S
H228 C236 0.929 . S
H229 C238 0.930 . S
H230 C240 0.930 . S
H231 C243 0.929 . S
H232 C246 0.930 . S
H233 C248 0.960 . S
H234 C248 0.960 1_554 S
H235 C248 0.960 . S
C236 H228 0.929 . S
C236 C237 1.377 1_554 S
C236 C238 1.384 . S
C237 C236 1.377 1_556 S
C237 C243 1.390 . S
C238 H229 0.930 . S
C238 C236 1.384 . S
C238 C239 1.372 1_554 S
C239 C238 1.372 1_556 S
C239 C240 1.400 . S
C239 C244 1.490 . S
C240 H230 0.930 . S
C240 C239 1.400 . S
C240 C243 1.386 . S
H241 C257 0.930 . S
H242 C258 0.931 . S
C243 H231 0.929 . S
C243 C237 1.390 . S
C243 C240 1.386 . S
C244 C239 1.490 . S
C244 C246 1.395 1_556 S
C244 C247 1.403 . S
H245 C251 0.930 . S
C246 H232 0.930 . S
C246 C244 1.395 1_554 S
C246 C249 1.403 . S
C247 C244 1.403 . S
C247 C248 1.524 . S
C247 C251 1.400 . S
C248 H233 0.960 . S
C248 H234 0.960 1_556 S
C248 H235 0.960 . S
C248 C247 1.524 . S
C249 C246 1.403 . S
C249 C250 1.392 . S
C249 C253 1.495 . S
C250 C249 1.392 . S
C250 C251 1.385 1_554 S
C250 C252 1.478 . S
C251 H245 0.930 . S
C251 C247 1.400 . S
C251 C250 1.385 1_556 S
C252 C250 1.478 . S
C252 C254 1.381 . S
C252 C258 1.383 1_554 S
C253 C249 1.495 . S
C253 H259 0.959 . S
C253 H260 0.961 1_554 S
C253 H261 0.960 . S
C254 C252 1.381 . S
C254 C255 1.394 . S
C254 H262 0.930 . S
C255 C254 1.394 . S
C255 C256 1.383 . S
C255 H263 0.929 . S
C256 C255 1.383 . S
C256 C257 1.377 1_554 S
C257 H241 0.930 . S
C257 C256 1.377 1_556 S
C257 C258 1.379 . S
C258 H242 0.931 . S
C258 C252 1.383 1_556 S
C258 C257 1.379 . S
H259 C253 0.959 . S
H260 C253 0.961 1_556 S
H261 C253 0.960 . S
H262 C254 0.930 . S
H263 C255 0.929 . S
H264 C272 0.929 . S
H265 C274 0.930 . S
H266 C276 0.930 . S
H267 C279 0.929 . S
H268 C282 0.930 . S
H269 C284 0.960 . S
H270 C284 0.960 1_554 S
H271 C284 0.960 . S
C272 H264 0.929 . S
C272 C273 1.377 1_554 S
C272 C274 1.384 . S
C273 C272 1.377 1_556 S
C273 C279 1.390 . S
C274 H265 0.930 . S
C274 C272 1.384 . S
C274 C275 1.372 1_554 S
C275 C274 1.372 1_556 S
C275 C276 1.400 . S
C275 C280 1.490 . S
C276 H266 0.930 . S
C276 C275 1.400 . S
C276 C279 1.386 . S
H277 C293 0.930 . S
H278 C294 0.931 . S
C279 H267 0.929 . S
C279 C273 1.390 . S
C279 C276 1.386 . S
C280 C275 1.490 . S
C280 C282 1.395 1_556 S
C280 C283 1.403 . S
H281 C287 0.930 . S
C282 H268 0.930 . S
C282 C280 1.395 1_554 S
C282 C285 1.403 . S
C283 C280 1.403 . S
C283 C284 1.524 . S
C283 C287 1.400 . S
C284 H269 0.960 . S
C284 H270 0.960 1_556 S
C284 H271 0.960 . S
C284 C283 1.524 . S
C285 C282 1.403 . S
C285 C286 1.392 1_554 S
C285 C289 1.495 . S
C286 C285 1.392 1_556 S
C286 C287 1.385 . S
C286 C288 1.478 . S
C287 H281 0.930 . S
C287 C283 1.400 . S
C287 C286 1.385 . S
C288 C286 1.478 . S
C288 C290 1.381 1_556 S
C288 C294 1.383 . S
C289 C285 1.495 . S
C289 H295 0.959 . S
C289 H296 0.961 1_554 S
C289 H297 0.960 . S
C290 C288 1.381 1_554 S
C290 C291 1.394 . S
C290 H298 0.930 . S
C291 C290 1.394 . S
C291 C292 1.383 1_554 S
C291 H299 0.929 . S
C292 C291 1.383 1_556 S
C292 C293 1.377 . S
C293 H277 0.930 . S
C293 C292 1.377 . S
C293 C294 1.379 . S
C294 H278 0.931 . S
C294 C288 1.383 . S
C294 C293 1.379 . S
H295 C289 0.959 . S
H296 C289 0.961 1_556 S
H297 C289 0.960 . S
H298 C290 0.930 . S
H299 C291 0.929 . S
H300 C308 0.929 . S
H301 C310 0.930 . S
H302 C312 0.930 . S
H303 C315 0.929 . S
H304 C318 0.930 . S
H305 C320 0.960 . S
H306 C320 0.960 . S
H307 C320 0.960 1_554 S
C308 H300 0.929 . S
C308 C309 1.377 . S
C308 C310 1.384 . S
C309 C308 1.377 . S
C309 C315 1.390 1_556 S
C310 H301 0.930 . S
C310 C308 1.384 . S
C310 C311 1.372 . S
C311 C310 1.372 . S
C311 C312 1.400 1_556 S
C311 C316 1.490 . S
C312 H302 0.930 . S
C312 C311 1.400 1_554 S
C312 C315 1.386 . S
H313 C329 0.930 . S
H314 C330 0.931 . S
C315 H303 0.929 . S
C315 C309 1.390 1_554 S
C315 C312 1.386 . S
C316 C311 1.490 . S
C316 C318 1.395 1_556 S
C316 C319 1.403 . S
H317 C323 0.930 . S
C318 H304 0.930 . S
C318 C316 1.395 1_554 S
C318 C321 1.403 . S
C319 C316 1.403 . S
C319 C320 1.524 . S
C319 C323 1.400 . S
C320 H305 0.960 . S
C320 H306 0.960 . S
C320 H307 0.960 1_556 S
C320 C319 1.524 . S
C321 C318 1.403 . S
C321 C322 1.392 1_554 S
C321 C325 1.495 . S
C322 C321 1.392 1_556 S
C322 C323 1.385 . S
C322 C324 1.478 . S
C323 H317 0.930 . S
C323 C319 1.400 . S
C323 C322 1.385 . S
C324 C322 1.478 . S
C324 C326 1.381 . S
C324 C330 1.383 1_556 S
C325 C321 1.495 . S
C325 H331 0.959 . S
C325 H332 0.961 . S
C325 H333 0.960 1_554 S
C326 C324 1.381 . S
C326 C327 1.394 . S
C326 H334 0.930 . S
C327 C326 1.394 . S
C327 C328 1.383 . S
C327 H335 0.929 . S
C328 C327 1.383 . S
C328 C329 1.377 1_556 S
C329 H313 0.930 . S
C329 C328 1.377 1_554 S
C329 C330 1.379 . S
C330 H314 0.931 . S
C330 C324 1.383 1_554 S
C330 C329 1.379 . S
H331 C325 0.959 . S
H332 C325 0.961 . S
H333 C325 0.960 1_556 S
H334 C326 0.930 . S
H335 C327 0.929 . S
H336 C344 0.929 . S
H337 C346 0.930 . S
H338 C348 0.930 . S
H339 C351 0.929 . S
H340 C354 0.930 . S
H341 C356 0.960 . S
H342 C356 0.960 1_554 S
H343 C356 0.960 . S
C344 H336 0.929 . S
C344 C345 1.377 . S
C344 C346 1.384 . S
C345 C344 1.377 . S
C345 C351 1.390 1_554 S
C346 H337 0.930 . S
C346 C344 1.384 . S
C346 C347 1.372 . S
C347 C346 1.372 . S
C347 C348 1.400 1_554 S
C347 C352 1.490 . S
C348 H338 0.930 . S
C348 C347 1.400 1_556 S
C348 C351 1.386 . S
H349 C365 0.930 . S
H350 C366 0.931 . S
C351 H339 0.929 . S
C351 C345 1.390 1_556 S
C351 C348 1.386 . S
C352 C347 1.490 . S
C352 C354 1.395 . S
C352 C355 1.403 1_554 S
H353 C359 0.930 . S
C354 H340 0.930 . S
C354 C352 1.395 . S
C354 C357 1.403 . S
C355 C352 1.403 1_556 S
C355 C356 1.524 . S
C355 C359 1.400 . S
C356 H341 0.960 . S
C356 H342 0.960 1_556 S
C356 H343 0.960 . S
C356 C355 1.524 . S
C357 C354 1.403 . S
C357 C358 1.392 . S
C357 C361 1.495 . S
C358 C357 1.392 . S
C358 C359 1.385 1_554 S
C358 C360 1.477 . S
C359 H353 0.930 . S
C359 C355 1.400 . S
C359 C358 1.385 1_556 S
C360 C358 1.477 . S
C360 C362 1.392 . S
C360 C366 1.372 1_554 S
C361 C357 1.495 . S
C361 H367 0.959 . S
C361 H368 0.961 . S
C361 H369 0.960 . S
C362 C360 1.392 . S
C362 C363 1.394 . S
C362 H370 0.930 . S
C363 C362 1.394 . S
C363 C364 1.383 1_554 S
C363 H371 0.929 . S
C364 C363 1.383 1_556 S
C364 C365 1.377 . S
C365 H349 0.930 . S
C365 C364 1.377 . S
C365 C366 1.379 . S
C366 H350 0.931 . S
C366 C360 1.372 1_556 S
C366 C365 1.379 . S
H367 C361 0.959 . S
H368 C361 0.961 . S
H369 C361 0.960 . S
H370 C362 0.930 . S
H371 C363 0.929 . S
H372 C380 0.929 . S
H373 C382 0.930 . S
H374 C384 0.930 . S
H375 C387 0.929 . S
H376 C390 0.930 . S
H377 C392 0.960 . S
H378 C392 0.960 . S
H379 C392 0.960 . S
C380 H372 0.929 . S
C380 C381 1.377 1_556 S
C380 C382 1.384 . S
C381 C380 1.377 1_554 S
C381 C387 1.390 . S
C382 H373 0.930 . S
C382 C380 1.384 . S
C382 C383 1.372 1_556 S
C383 C382 1.372 1_554 S
C383 C384 1.400 . S
C383 C388 1.490 . S
C384 H374 0.930 . S
C384 C383 1.400 . S
C384 C387 1.386 . S
H385 C401 0.930 . S
H386 C402 0.931 . S
C387 H375 0.929 . S
C387 C381 1.390 . S
C387 C384 1.386 . S
C388 C383 1.490 . S
C388 C390 1.395 1_554 S
C388 C391 1.403 . S
H389 C395 0.930 . S
C390 H376 0.930 . S
C390 C388 1.395 1_556 S
C390 C393 1.403 . S
C391 C388 1.403 . S
C391 C392 1.524 . S
C391 C395 1.400 . S
C392 H377 0.960 . S
C392 H378 0.960 . S
C392 H379 0.960 . S
C392 C391 1.524 . S
C393 C390 1.403 . S
C393 C394 1.388 1_556 S
C393 C397 1.495 . S
C394 C393 1.388 1_554 S
C394 C395 1.390 . S
C394 C396 1.477 . S
C395 H389 0.930 . S
C395 C391 1.400 . S
C395 C394 1.390 . S
C396 C394 1.477 . S
C396 C398 1.381 1_554 S
C396 C402 1.383 . S
C397 C393 1.495 . S
C397 H403 0.959 . S
C397 H404 0.961 . S
C397 H405 0.960 . S
C398 C396 1.381 1_556 S
C398 C399 1.394 . S
C398 H406 0.930 . S
C399 C398 1.394 . S
C399 C400 1.383 1_556 S
C399 H407 0.929 . S
C400 C399 1.383 1_554 S
C400 C401 1.377 . S
C401 H385 0.930 . S
C401 C400 1.377 . S
C401 C402 1.379 . S
C402 H386 0.931 . S
C402 C396 1.383 . S
C402 C401 1.379 . S
H403 C397 0.959 . S
H404 C397 0.961 . S
H405 C397 0.960 . S
H406 C398 0.930 . S
H407 C399 0.929 . S
H408 C416 0.929 . S
H409 C418 0.930 . S
H410 C420 0.930 . S
H411 C423 0.929 . S
H412 C426 0.930 . S
H413 C428 0.960 . S
H414 C428 0.960 . S
H415 C428 0.960 . S
C416 H408 0.929 . S
C416 C417 1.377 . S
C416 C418 1.384 . S
C417 C416 1.377 . S
C417 C423 1.390 1_554 S
C418 H409 0.930 . S
C418 C416 1.384 . S
C418 C419 1.372 . S
C419 C418 1.372 . S
C419 C420 1.400 1_554 S
C419 C424 1.490 . S
C420 H410 0.930 . S
C420 C419 1.400 1_556 S
C420 C423 1.386 . S
H421 C437 0.930 . S
H422 C438 0.931 . S
C423 H411 0.929 . S
C423 C417 1.390 1_556 S
C423 C420 1.386 . S
C424 C419 1.490 . S
C424 C426 1.395 . S
C424 C427 1.403 1_554 S
H425 C431 0.930 . S
C426 H412 0.930 . S
C426 C424 1.395 . S
C426 C429 1.403 . S
C427 C424 1.403 1_556 S
C427 C428 1.524 . S
C427 C431 1.400 . S
C428 H413 0.960 . S
C428 H414 0.960 . S
C428 H415 0.960 . S
C428 C427 1.524 . S
C429 C426 1.403 . S
C429 C430 1.392 . S
C429 C433 1.495 . S
C430 C429 1.392 . S
C430 C431 1.385 1_554 S
C430 C432 1.478 . S
C431 H425 0.930 . S
C431 C427 1.400 . S
C431 C430 1.385 1_556 S
C432 C430 1.478 . S
C432 C434 1.381 . S
C432 C438 1.383 1_554 S
C433 C429 1.495 . S
C433 H439 0.959 . S
C433 H440 0.961 . S
C433 H441 0.960 . S
C434 C432 1.381 . S
C434 C435 1.394 . S
C434 H442 0.930 . S
C435 C434 1.394 . S
C435 C436 1.383 . S
C435 H443 0.929 . S
C436 C435 1.383 . S
C436 C437 1.377 1_554 S
C437 H421 0.930 . S
C437 C436 1.377 1_556 S
C437 C438 1.379 . S
C438 H422 0.931 . S
C438 C432 1.383 1_556 S
C438 C437 1.379 . S
H439 C433 0.959 . S
H440 C433 0.961 . S
H441 C433 0.960 . S
H442 C434 0.930 . S
H443 C435 0.929 . S
C129 C15 1.480 . S
C148 C2 1.486 . S
C165 C42 1.461 1_565 S
C184 C55 1.450 1_545 S
C201 C82 1.463 . S
C220 C95 1.447 . S
C237 C9 0.867 . S
C256 C89 0.841 . S
C273 C49 1.857 . S
C292 C3 1.913 . S
C309 C43 2.581 . S
C328 C102 2.595 . S
C345 C26 0.871 . S
C364 C106 0.837 . S
C381 C22 1.908 . S
C400 C66 1.847 . S
C417 C83 2.600 . S
C436 C62 2.568 . S
