# Generated by pormake.
# Topology umx, (4)-cn, num edge types: 1
# Building blocks:
#     Node 0, Type 0, BuildingBlock: ICAMEG_clean_sbu_1, # of connection points: 4
#     Node 1, Type 0, BuildingBlock: ICAMEG_clean_sbu_1, # of connection points: 4
#     Node 2, Type 0, BuildingBlock: ICAMEG_clean_sbu_1, # of connection points: 4
#     Node 3, Type 0, BuildingBlock: ICAMEG_clean_sbu_1, # of connection points: 4
#     Node 4, Type 0, BuildingBlock: ICAMEG_clean_sbu_1, # of connection points: 4
#     Node 5, Type 0, BuildingBlock: ICAMEG_clean_sbu_1, # of connection points: 4
#     Node 6, Type 0, BuildingBlock: ICAMEG_clean_sbu_1, # of connection points: 4
#     Node 7, Type 0, BuildingBlock: ICAMEG_clean_sbu_1, # of connection points: 4
#     Edge 8, Type (0, 0), BuildingBlock: XUDNAN_clean_linker_2, # of connection points: 2
#     Edge 9, Type (0, 0), BuildingBlock: XUDNAN_clean_linker_2, # of connection points: 2
#     Edge 10, Type (0, 0), BuildingBlock: XUDNAN_clean_linker_2, # of connection points: 2
#     Edge 11, Type (0, 0), BuildingBlock: XUDNAN_clean_linker_2, # of connection points: 2
#     Edge 12, Type (0, 0), BuildingBlock: XUDNAN_clean_linker_2, # of connection points: 2
#     Edge 13, Type (0, 0), BuildingBlock: XUDNAN_clean_linker_2, # of connection points: 2
#     Edge 14, Type (0, 0), BuildingBlock: XUDNAN_clean_linker_2, # of connection points: 2
#     Edge 15, Type (0, 0), BuildingBlock: XUDNAN_clean_linker_2, # of connection points: 2
#     Edge 16, Type (0, 0), BuildingBlock: XUDNAN_clean_linker_2, # of connection points: 2
#     Edge 17, Type (0, 0), BuildingBlock: XUDNAN_clean_linker_2, # of connection points: 2
#     Edge 18, Type (0, 0), BuildingBlock: XUDNAN_clean_linker_2, # of connection points: 2
#     Edge 19, Type (0, 0), BuildingBlock: XUDNAN_clean_linker_2, # of connection points: 2
#     Edge 20, Type (0, 0), BuildingBlock: XUDNAN_clean_linker_2, # of connection points: 2
#     Edge 21, Type (0, 0), BuildingBlock: XUDNAN_clean_linker_2, # of connection points: 2
#     Edge 22, Type (0, 0), BuildingBlock: XUDNAN_clean_linker_2, # of connection points: 2
#     Edge 23, Type (0, 0), BuildingBlock: XUDNAN_clean_linker_2, # of connection points: 2
# Relax obj value: 0.033
# Max RMSD: 0.111
# Mean RMSD: 0.111
data_MOF--net-umx--node1-ICAMEG_clean_sbu_1--edge1-XUDNAN_clean_linker_2
_symmetry_space_group_name_H-M    P1
_symmetry_Int_Tables_number       1
_symmetry_cell_setting            triclinic
loop_
_symmetry_equiv_pos_as_xyz
'x, y, z'
_cell_length_a     41.56665
_cell_length_b     41.549569
_cell_length_c     30.2379
_cell_angle_alpha  89.981321
_cell_angle_beta   89.947559
_cell_angle_gamma 90.012281
loop_
_atom_site_label
_atom_site_type_symbol
_atom_site_fract_x
_atom_site_fract_y
_atom_site_fract_z
_atom_type_partial_charge
Co0 Co 0.19443 0.49624 0.0172 0.0
Co1 Co 0.16219 0.42413 0.0542 0.0
O2 O 0.1882 0.44969 0.01303 0.0
C3 C 0.17071 0.48556 0.92508 0.0
O4 O 0.15398 0.46071 0.93874 0.0
C5 C 0.22731 0.39404 0.05616 0.0
O6 O 0.23988 0.42294 0.05918 0.0
O7 O 0.18154 0.44576 0.10709 0.0
O8 O 0.20037 0.49306 0.08233 0.0
H9 H 0.08957 0.40675 0.18491 0.0
H10 H 0.23322 0.45811 0.95392 0.0
O11 O 0.18832 0.5014 0.95179 0.0
H12 H 0.3119 0.50858 0.05422 0.0
H13 H 0.23753 0.60371 0.9678 0.0
H14 H 0.17207 0.54679 0.07919 0.0
H15 H 0.25386 0.51919 0.06279 0.0
H16 H 0.23003 0.5449 0.96346 0.0
O17 O 0.19683 0.39046 0.05571 0.0
H18 H 0.12175 0.43883 0.13236 0.0
H19 H 0.14821 0.35396 0.06304 0.0
H20 H 0.17915 0.60557 0.08498 0.0
H21 H 0.29107 0.44695 0.94397 0.0
H22 H 0.21207 0.63442 0.02899 0.0
H23 H 0.33084 0.47216 0.99448 0.0
O24 O 0.14746 0.50336 0.02568 0.0
H25 H 0.16441 0.36744 0.90732 0.0
H26 H 0.09507 0.40839 0.0271 0.0
H27 H 0.07028 0.38259 0.96208 0.0
H28 H 0.10506 0.36181 0.90164 0.0
H29 H 0.18812 0.39392 0.97257 0.0
H30 H 0.11644 0.32094 0.11497 0.0
H31 H 0.08676 0.34735 0.17636 0.0
O32 O 0.12696 0.45707 0.05242 0.0
C33 C 0.19473 0.47311 0.11338 0.0
C34 C 0.1023 0.39497 0.15821 0.0
C35 C 0.11744 0.3468 0.119 0.0
N36 N 0.13667 0.3983 0.09453 0.0
C37 C 0.12049 0.41301 0.12829 0.0
C38 C 0.13545 0.36561 0.08976 0.0
C39 C 0.10078 0.36164 0.15342 0.0
C40 C 0.25041 0.46944 0.97572 0.0
N41 N 0.24018 0.48935 0.00882 0.0
C42 C 0.28312 0.46292 0.97004 0.0
C43 C 0.30542 0.47704 0.99844 0.0
C44 C 0.29481 0.49745 0.03199 0.0
C45 C 0.26191 0.50332 0.03676 0.0
C46 C 0.22317 0.5914 0.99243 0.0
C47 C 0.18658 0.55914 0.05485 0.0
C48 C 0.21878 0.55812 0.9901 0.0
N49 N 0.20077 0.5424 0.02119 0.0
C50 C 0.19044 0.59244 0.05823 0.0
C51 C 0.20888 0.60862 0.02678 0.0
C52 C 0.12414 0.48637 0.04019 0.0
C53 C 0.149 0.37637 0.93345 0.0
C54 C 0.11032 0.39973 1.00074 0.0
C55 C 0.09617 0.38497 0.96411 0.0
C56 C 0.1157 0.37327 0.93025 0.0
N57 N 0.14299 0.40281 1.00357 0.0
C58 C 0.1623 0.39126 0.97059 0.0
Co59 Co 0.51501 0.18891 0.52937 0.0
Co60 Co 0.58928 0.15864 0.55992 0.0
O61 O 0.5614 0.18382 0.52154 0.0
C62 C 0.52358 0.15954 0.44223 0.0
O63 O 0.54269 0.13945 0.46292 0.0
C64 C 0.61926 0.22391 0.55665 0.0
O65 O 0.5905 0.2364 0.56183 0.0
O66 O 0.57049 0.17948 0.61323 0.0
O67 O 0.52036 0.19535 0.59481 0.0
H68 H 0.61473 0.08908 0.69119 0.0
H69 H 0.54926 0.22814 0.46215 0.0
O70 O 0.50924 0.18167 0.4639 0.0
H71 H 0.50163 0.30628 0.56599 0.0
H72 H 0.40554 0.22887 0.48449 0.0
H73 H 0.46669 0.16653 0.59482 0.0
H74 H 0.49313 0.248 0.57636 0.0
H75 H 0.46431 0.22226 0.47715 0.0
O76 O 0.6229 0.19341 0.55628 0.0
H77 H 0.57953 0.12032 0.64147 0.0
H78 H 0.65971 0.14484 0.56107 0.0
H79 H 0.40805 0.17279 0.60376 0.0
H80 H 0.55823 0.28622 0.45041 0.0
H81 H 0.37706 0.20413 0.54828 0.0
H82 H 0.53443 0.32571 0.50266 0.0
O83 O 0.50898 0.14214 0.53987 0.0
H84 H 0.63556 0.1576 0.40633 0.0
H85 H 0.60397 0.09091 0.53406 0.0
H86 H 0.62531 0.06472 0.467 0.0
H87 H 0.64136 0.09818 0.40253 0.0
H88 H 0.61364 0.18272 0.47382 0.0
H89 H 0.69583 0.11413 0.61013 0.0
H90 H 0.67333 0.08586 0.67562 0.0
O91 O 0.55654 0.12305 0.56373 0.0
C92 C 0.543 0.19133 0.62288 0.0
C93 C 0.6248 0.10121 0.66268 0.0
C94 C 0.67033 0.1153 0.61722 0.0
N95 N 0.61752 0.13415 0.59825 0.0
C96 C 0.60498 0.11884 0.63435 0.0
C97 C 0.64978 0.13272 0.58963 0.0
C98 C 0.65768 0.09944 0.65395 0.0
C99 C 0.53853 0.2452 0.48474 0.0
N100 N 0.52055 0.23472 0.51975 0.0
C101 C 0.54381 0.27805 0.47804 0.0
C102 C 0.53049 0.3002 0.50741 0.0
C103 C 0.51211 0.28931 0.54298 0.0
C104 C 0.50741 0.25628 0.54871 0.0
C105 C 0.41879 0.21523 0.50894 0.0
C106 C 0.45342 0.18045 0.5708 0.0
C107 C 0.45204 0.21137 0.50491 0.0
N108 N 0.46892 0.1943 0.53578 0.0
C109 C 0.4202 0.1838 0.57591 0.0
C110 C 0.40282 0.20135 0.54475 0.0
C111 C 0.52675 0.11952 0.55451 0.0
C112 C 0.62874 0.14278 0.43424 0.0
C113 C 0.61069 0.10558 0.50606 0.0
C114 C 0.6229 0.09064 0.46824 0.0
C115 C 0.63193 0.10943 0.4321 0.0
N116 N 0.60754 0.1383 0.50786 0.0
C117 C 0.61642 0.15688 0.47261 0.0
Co118 Co 0.8336 0.51917 0.01148 0.0
Co119 Co 0.83874 0.59418 0.06037 0.0
O120 O 0.82299 0.56494 0.01457 0.0
C121 C 0.84983 0.54514 0.92318 0.0
O122 O 0.86292 0.56976 0.94349 0.0
C123 C 0.768 0.6025 0.06064 0.0
O124 O 0.76575 0.57101 0.06256 0.0
O125 O 0.82505 0.56383 0.10824 0.0
O126 O 0.82994 0.51495 0.07718 0.0
H127 H 0.89757 0.6232 0.19979 0.0
H128 H 0.78082 0.54537 0.95631 0.0
O129 O 0.83737 0.52225 0.94537 0.0
H130 H 0.7302 0.46266 0.05043 0.0
H131 H 0.82895 0.40812 0.94519 0.0
H132 H 0.87529 0.47538 0.06344 0.0
H133 H 0.78845 0.47331 0.05539 0.0
H134 H 0.81493 0.46567 0.95096 0.0
O135 O 0.79556 0.61586 0.06168 0.0
H136 H 0.87867 0.58681 0.14083 0.0
H137 H 0.83044 0.66439 0.07786 0.0
H138 H 0.88985 0.41793 0.05903 0.0
H139 H 0.72252 0.53534 0.95003 0.0
H140 H 0.86659 0.38388 0.99958 0.0
H141 H 0.69682 0.49379 0.99743 0.0
O142 O 0.8803 0.52867 0.01741 0.0
H143 H 0.82428 0.65694 0.91962 0.0
H144 H 0.89849 0.63173 0.04186 0.0
H145 H 0.91624 0.66816 0.98226 0.0
H146 H 0.87896 0.68105 0.9206 0.0
H147 H 0.80775 0.62021 0.97952 0.0
H148 H 0.8487 0.7016 0.13623 0.0
H149 H 0.8826 0.68106 0.19768 0.0
O150 O 0.8825 0.5736 0.05887 0.0
C151 C 0.82517 0.53312 0.11059 0.0
C152 C 0.88292 0.63247 0.17309 0.0
C153 C 0.85544 0.67646 0.13746 0.0
N154 N 0.85371 0.62352 0.10577 0.0
C155 C 0.87222 0.612 0.13956 0.0
C156 C 0.84513 0.65527 0.10454 0.0
C157 C 0.87447 0.66492 0.17192 0.0
C158 C 0.76987 0.52701 0.9767 0.0
N159 N 0.78805 0.50984 0.00603 0.0
C160 C 0.73682 0.52153 0.97314 0.0
C161 C 0.72241 0.49826 0.9998 0.0
C162 C 0.74112 0.4808 0.02957 0.0
C163 C 0.77409 0.48698 0.0323 0.0
C164 C 0.83918 0.42269 0.9713 0.0
C165 C 0.86493 0.46067 0.03763 0.0
C166 C 0.83138 0.45529 0.97469 0.0
N167 N 0.84411 0.47379 0.00769 0.0
C168 C 0.87332 0.42818 0.03523 0.0
C169 C 0.8603 0.4091 1.00184 0.0
C170 C 0.89584 0.54967 0.03956 0.0
C171 C 0.84074 0.65153 0.94632 0.0
C172 C 0.88229 0.63693 0.01493 0.0
C173 C 0.89239 0.65773 0.98139 0.0
C174 C 0.87144 0.665 0.94685 0.0
N175 N 0.8522 0.6237 0.01412 0.0
C176 C 0.83147 0.63084 0.98045 0.0
Co177 Co 0.49579 0.82803 0.54493 0.0
Co178 Co 0.41455 0.83581 0.56321 0.0
O179 O 0.45108 0.81812 0.53123 0.0
C180 C 0.51633 0.84827 0.45465 0.0
O181 O 0.52714 0.87555 0.4708 0.0
C182 C 0.40395 0.76536 0.56474 0.0
O183 O 0.4338 0.76259 0.57832 0.0
O184 O 0.43384 0.82213 0.62028 0.0
O185 O 0.48712 0.82841 0.60999 0.0
H186 H 0.36091 0.89896 0.68418 0.0
H187 H 0.47976 0.77174 0.48849 0.0
O188 O 0.504 0.82713 0.48001 0.0
H189 H 0.53991 0.72733 0.61501 0.0
H190 H 0.61553 0.81752 0.52363 0.0
H191 H 0.52916 0.87315 0.60529 0.0
H192 H 0.53005 0.78569 0.60922 0.0
H193 H 0.55852 0.80453 0.50937 0.0
O194 O 0.392 0.79318 0.55797 0.0
H195 H 0.407 0.87739 0.6421 0.0
H196 H 0.34337 0.82982 0.55385 0.0
H197 H 0.58579 0.88685 0.62069 0.0
H198 H 0.48938 0.71329 0.49276 0.0
H199 H 0.62944 0.85893 0.57969 0.0
H200 H 0.51956 0.6907 0.55646 0.0
O201 O 0.48655 0.87488 0.54206 0.0
H202 H 0.38237 0.82052 0.40447 0.0
H203 H 0.3846 0.8964 0.52975 0.0
H204 H 0.36202 0.91394 0.45832 0.0
H205 H 0.36071 0.87582 0.39508 0.0
H206 H 0.405 0.80411 0.47641 0.0
H207 H 0.29659 0.85062 0.5952 0.0
H208 H 0.30523 0.88557 0.66076 0.0
O209 O 0.43615 0.87889 0.56838 0.0
C210 C 0.46272 0.82304 0.6346 0.0
C211 C 0.35684 0.88385 0.65557 0.0
C212 C 0.32073 0.85668 0.60567 0.0
N213 N 0.37786 0.85263 0.59536 0.0
C214 C 0.38283 0.87166 0.63155 0.0
C215 C 0.34731 0.84492 0.58245 0.0
C216 C 0.3256 0.8763 0.64244 0.0
C217 C 0.49331 0.76219 0.51598 0.0
N218 N 0.50457 0.78219 0.54833 0.0
C219 C 0.49852 0.72902 0.51836 0.0
C220 C 0.51539 0.71636 0.55416 0.0
C221 C 0.52679 0.73689 0.58704 0.0
C222 C 0.52107 0.76992 0.58361 0.0
C223 C 0.59673 0.82981 0.54176 0.0
C224 C 0.54803 0.86081 0.58747 0.0
C225 C 0.56444 0.82256 0.53382 0.0
N226 N 0.54059 0.83795 0.55667 0.0
C227 C 0.58005 0.8687 0.59627 0.0
C228 C 0.60452 0.85304 0.57323 0.0
C229 C 0.46285 0.89138 0.55627 0.0
C230 C 0.38275 0.83733 0.43181 0.0
C231 C 0.38429 0.87975 0.50234 0.0
C232 C 0.37138 0.88978 0.462 0.0
C233 C 0.37063 0.86837 0.42654 0.0
N234 N 0.39603 0.84924 0.50729 0.0
C235 C 0.39546 0.82815 0.47265 0.0
Co236 Co 0.17524 0.51331 0.51745 0.0
Co237 Co 0.17041 0.59351 0.48762 0.0
O238 O 0.18533 0.55889 0.52591 0.0
C239 C 0.15271 0.52974 0.60652 0.0
O240 O 0.13846 0.55417 0.58723 0.0
C241 C 0.24124 0.6016 0.49129 0.0
O242 O 0.24366 0.57057 0.48376 0.0
O243 O 0.1854 0.56966 0.43452 0.0
O244 O 0.18204 0.51695 0.45168 0.0
H245 H 0.1138 0.63997 0.35554 0.0
H246 H 0.22488 0.53269 0.58273 0.0
O247 O 0.16824 0.50936 0.58327 0.0
H248 H 0.28116 0.46306 0.47566 0.0
H249 H 0.17871 0.39618 0.5595 0.0
H250 H 0.13702 0.47568 0.45285 0.0
H251 H 0.2231 0.47389 0.46787 0.0
H252 H 0.19171 0.45384 0.56756 0.0
O253 O 0.21362 0.61486 0.49267 0.0
H254 H 0.1321 0.59653 0.40518 0.0
H255 H 0.17888 0.66483 0.48748 0.0
H256 H 0.1236 0.41827 0.44334 0.0
H257 H 0.28291 0.52231 0.59193 0.0
H258 H 0.14451 0.37807 0.49693 0.0
H259 H 0.31146 0.48736 0.53806 0.0
O260 O 0.12878 0.5228 0.5093 0.0
H261 H 0.18243 0.63911 0.64061 0.0
H262 H 0.10979 0.62744 0.51283 0.0
H263 H 0.09103 0.65652 0.57908 0.0
H264 H 0.12755 0.66267 0.6435 0.0
H265 H 0.19989 0.60952 0.57413 0.0
H266 H 0.16135 0.70897 0.43855 0.0
H267 H 0.12844 0.69666 0.37214 0.0
O268 O 0.12673 0.57319 0.48241 0.0
C269 C 0.18707 0.53989 0.42429 0.0
C270 C 0.12803 0.64565 0.38446 0.0
C271 C 0.15476 0.68437 0.43102 0.0
N272 N 0.15628 0.62817 0.44936 0.0
C273 C 0.13837 0.62117 0.41275 0.0
C274 C 0.16468 0.65927 0.45854 0.0
C275 C 0.13628 0.67745 0.39377 0.0
C276 C 0.23706 0.51717 0.55943 0.0
N277 N 0.22059 0.50377 0.52495 0.0
C278 C 0.26995 0.5115 0.5647 0.0
C279 C 0.28596 0.49193 0.53441 0.0
C280 C 0.26898 0.4783 0.49938 0.0
C281 C 0.23612 0.48456 0.4951 0.0
C282 C 0.16952 0.41345 0.53588 0.0
C283 C 0.1464 0.45829 0.47609 0.0
C284 C 0.17677 0.44612 0.54031 0.0
N285 N 0.16538 0.46801 0.51046 0.0
C286 C 0.13863 0.42583 0.47064 0.0
C287 C 0.15034 0.4033 0.50075 0.0
C288 C 0.11338 0.54662 0.49329 0.0
C289 C 0.16632 0.63667 0.61271 0.0
C290 C 0.12566 0.62967 0.5409 0.0
C291 C 0.11498 0.64633 0.57824 0.0
C292 C 0.13551 0.64982 0.61434 0.0
N293 N 0.1559 0.6168 0.53957 0.0
C294 C 0.17611 0.62003 0.5749 0.0
Co295 Co 0.49211 0.1759 0.0289 0.0
Co296 Co 0.41762 0.16167 0.98261 0.0
O297 O 0.44501 0.17969 0.02947 0.0
C298 C 0.4727 0.1659 0.12493 0.0
O299 O 0.44197 0.169 0.11624 0.0
C300 C 0.39232 0.22919 0.99341 0.0
O301 O 0.42172 0.24074 0.99401 0.0
O302 O 0.44288 0.1845 0.93594 0.0
O303 O 0.49294 0.18256 0.96344 0.0
H304 H 0.39626 0.10856 0.83631 0.0
H305 H 0.45917 0.22408 0.08668 0.0
O306 O 0.4938 0.16856 0.09455 0.0
H307 H 0.5348 0.28672 0.99538 0.0
H308 H 0.60452 0.19388 0.0861 0.0
H309 H 0.53857 0.14242 0.97053 0.0
H310 H 0.53127 0.22785 0.98735 0.0
H311 H 0.54549 0.19996 0.08622 0.0
O312 O 0.38752 0.19918 0.98782 0.0
H313 H 0.43004 0.13034 0.89623 0.0
H314 H 0.34661 0.1558 0.96948 0.0
H315 H 0.59754 0.13593 0.96897 0.0
H316 H 0.46223 0.28273 0.09628 0.0
H317 H 0.63093 0.16177 0.02707 0.0
H318 H 0.5002 0.31459 0.05033 0.0
O319 O 0.489 0.1284 0.02093 0.0
H320 H 0.35577 0.15364 0.12515 0.0
H321 H 0.39454 0.09406 0.99468 0.0
H322 H 0.36384 0.06539 0.05221 0.0
H323 H 0.3441 0.09524 0.11802 0.0
H324 H 0.38706 0.18123 0.06718 0.0
H325 H 0.31192 0.1344 0.91028 0.0
H326 H 0.33673 0.11048 0.84314 0.0
O327 O 0.44611 0.12301 0.97672 0.0
C328 C 0.47327 0.1877 0.93186 0.0
C329 C 0.38515 0.11885 0.86545 0.0
C330 C 0.33782 0.1334 0.90693 0.0
N331 N 0.39034 0.14424 0.9364 0.0
C332 C 0.40416 0.13118 0.89953 0.0
C333 C 0.3576 0.14557 0.9403 0.0
C334 C 0.35176 0.11997 0.86928 0.0
C335 C 0.47614 0.23749 0.06707 0.0
N336 N 0.49532 0.22226 0.0369 0.0
C337 C 0.4776 0.27085 0.07243 0.0
C338 C 0.49884 0.28872 0.04657 0.0
C339 C 0.51823 0.27311 0.01572 0.0
C340 C 0.51607 0.23972 0.01124 0.0
C341 C 0.59024 0.18257 0.06055 0.0
C342 C 0.55296 0.15393 0.99574 0.0
C343 C 0.5568 0.18587 0.06049 0.0
N344 N 0.53862 0.17179 0.02817 0.0
C345 C 0.58632 0.15008 0.99476 0.0
C346 C 0.60504 0.16455 0.0274 0.0
C347 C 0.47086 0.11156 0.99609 0.0
C348 C 0.36427 0.14035 0.09668 0.0
C349 C 0.3865 0.10713 0.02347 0.0
C350 C 0.36889 0.09081 0.05582 0.0
C351 C 0.35777 0.10758 0.09268 0.0
N352 N 0.39295 0.13925 0.02771 0.0
C353 C 0.38195 0.15586 0.06365 0.0
Co354 Co 0.81337 0.50008 0.51146 0.0
Co355 Co 0.84596 0.42426 0.49585 0.0
O356 O 0.81781 0.4545 0.52677 0.0
C357 C 0.83298 0.49973 0.60523 0.0
O358 O 0.85323 0.4768 0.59457 0.0
C359 C 0.78144 0.39207 0.49588 0.0
O360 O 0.76804 0.41978 0.48608 0.0
O361 O 0.82869 0.43822 0.43735 0.0
O362 O 0.8129 0.48956 0.4468 0.0
H363 H 0.92461 0.39069 0.37838 0.0
H364 H 0.76841 0.47099 0.57623 0.0
O365 O 0.81452 0.51189 0.57598 0.0
H366 H 0.70026 0.50886 0.45337 0.0
H367 H 0.76922 0.61201 0.53089 0.0
H368 H 0.84201 0.54305 0.44366 0.0
H369 H 0.75902 0.51715 0.45159 0.0
H370 H 0.77508 0.55434 0.54872 0.0
O371 O 0.81191 0.39 0.49996 0.0
H372 H 0.88944 0.42864 0.41838 0.0
H373 H 0.86131 0.35456 0.50718 0.0
H374 H 0.83659 0.60045 0.42433 0.0
H375 H 0.70971 0.46236 0.57952 0.0
H376 H 0.8 0.63537 0.46816 0.0
H377 H 0.67525 0.48128 0.5177 0.0
O378 O 0.86072 0.50589 0.50866 0.0
H379 H 0.83701 0.39014 0.65487 0.0
H380 H 0.91182 0.41379 0.53248 0.0
H381 H 0.9335 0.39867 0.60545 0.0
H382 H 0.89597 0.38672 0.6673 0.0
H383 H 0.81639 0.40574 0.58147 0.0
H384 H 0.89592 0.31573 0.46788 0.0
H385 H 0.92799 0.33377 0.4031 0.0
O386 O 0.88105 0.45735 0.49159 0.0
C387 C 0.81846 0.4651 0.42239 0.0
C388 C 0.91082 0.38256 0.40664 0.0
C389 C 0.89468 0.34047 0.45683 0.0
N390 N 0.87351 0.39388 0.46524 0.0
C391 C 0.89094 0.40396 0.42949 0.0
C392 C 0.87505 0.36255 0.47887 0.0
C393 C 0.91268 0.35062 0.4205 0.0
C394 C 0.75351 0.47958 0.54944 0.0
N395 N 0.76707 0.49469 0.51389 0.0
C396 C 0.72032 0.4745 0.55139 0.0
C397 C 0.701 0.48508 0.51665 0.0
C398 C 0.71502 0.50053 0.48053 0.0
C399 C 0.7483 0.50511 0.47966 0.0
C400 C 0.78517 0.59702 0.51148 0.0
C401 C 0.82582 0.55802 0.46262 0.0
C402 C 0.78863 0.56438 0.52147 0.0
N403 N 0.80862 0.5453 0.49696 0.0
C404 C 0.82295 0.59054 0.45164 0.0
C405 C 0.80245 0.61012 0.47627 0.0
C406 C 0.88412 0.48751 0.49852 0.0
C407 C 0.85361 0.39523 0.62816 0.0
C408 C 0.89535 0.40881 0.55925 0.0
C409 C 0.90776 0.40012 0.60047 0.0
C410 C 0.88669 0.39337 0.63514 0.0
N411 N 0.86288 0.41072 0.55271 0.0
C412 C 0.84207 0.40393 0.58647 0.0
Co413 Co 0.51317 0.81531 0.04057 0.0
Co414 Co 0.58793 0.83592 0.9995 0.0
O415 O 0.55982 0.81498 0.04223 0.0
C416 C 0.52854 0.83964 0.13043 0.0
O417 O 0.54806 0.86104 0.11304 0.0
C418 C 0.60365 0.76705 0.99564 0.0
O419 O 0.57268 0.76308 0.98941 0.0
O420 O 0.56215 0.81991 0.94802 0.0
O421 O 0.51304 0.80962 0.97558 0.0
H422 H 0.61466 0.90316 0.86633 0.0
H423 H 0.54792 0.7707 0.10048 0.0
O424 O 0.51245 0.8207 0.10591 0.0
H425 H 0.48242 0.70116 1.00386 0.0
H426 H 0.40307 0.78796 0.09909 0.0
H427 H 0.46361 0.84337 0.9813 0.0
H428 H 0.48002 0.76023 0.99662 0.0
H429 H 0.46238 0.78749 0.09888 0.0
O430 O 0.6151 0.79552 0.99841 0.0
H431 H 0.57864 0.87742 0.92074 0.0
H432 H 0.65903 0.83762 0.98786 0.0
H433 H 0.40433 0.84432 0.98008 0.0
H434 H 0.55091 0.71176 0.10903 0.0
H435 H 0.37363 0.81646 0.03932 0.0
H436 H 0.51812 0.67656 0.06036 0.0
O437 O 0.51277 0.86285 0.03184 0.0
H438 H 0.64575 0.82723 0.14501 0.0
H439 H 0.61362 0.90033 0.02436 0.0
H440 H 0.64379 0.92187 0.08801 0.0
H441 H 0.6601 0.8852 0.14889 0.0
H442 H 0.6153 0.80676 0.08096 0.0
H443 H 0.69598 0.86284 0.93408 0.0
H444 H 0.6738 0.89596 0.87286 0.0
O445 O 0.56064 0.87595 1.00099 0.0
C446 C 0.53271 0.81175 0.94346 0.0
C447 C 0.62462 0.88889 0.89295 0.0
C448 C 0.67026 0.86621 0.93094 0.0
N449 N 0.61677 0.85626 0.95757 0.0
C450 C 0.60435 0.87433 0.92392 0.0
C451 C 0.64924 0.85195 0.96123 0.0
C452 C 0.6578 0.8848 0.89661 0.0
C453 C 0.53329 0.75557 0.0795 0.0
N454 N 0.51372 0.76892 0.04817 0.0
C455 C 0.53519 0.7222 0.08438 0.0
C456 C 0.51683 0.70246 0.05701 0.0
C457 C 0.49681 0.71625 0.02528 0.0
C458 C 0.49558 0.74971 0.02127 0.0
C459 C 0.41617 0.80025 0.07315 0.0
C460 C 0.45046 0.83126 0.00721 0.0
C461 C 0.44977 0.80018 0.07295 0.0
N462 N 0.46648 0.81554 0.04019 0.0
C463 C 0.41687 0.83185 0.00634 0.0
C464 C 0.39967 0.81622 0.03959 0.0
C465 C 0.53237 0.88308 0.01473 0.0
C466 C 0.63887 0.84343 0.11862 0.0
C467 C 0.6206 0.88422 0.05074 0.0
C468 C 0.63773 0.89655 0.08666 0.0
C469 C 0.64688 0.87596 0.1208 0.0
N470 N 0.61288 0.85228 0.0488 0.0
C471 C 0.62175 0.83194 0.08216 0.0
H472 H 0.17369 0.44707 0.1928 0.0
H473 H 0.23183 0.5243 0.13781 0.0
H474 H 0.23923 0.54679 0.21206 0.0
H475 H 0.1325 0.49446 0.26987 0.0
H476 H 0.13167 0.46489 0.31348 0.0
H477 H 0.13363 0.45217 0.25664 0.0
H478 H 0.1852 0.41942 0.27336 0.0
H479 H 0.1833 0.43191 0.3304 0.0
H480 H 0.21921 0.43917 0.29847 0.0
H481 H 0.23568 0.56476 0.2897 0.0
H482 H 0.22356 0.5756 0.36806 0.0
H483 H 0.16901 0.48665 0.37554 0.0
C484 C 0.18866 0.46823 0.19652 0.0
C485 C 0.20231 0.48372 0.15918 0.0
C486 C 0.22117 0.51179 0.16559 0.0
C487 C 0.22558 0.52484 0.20779 0.0
C488 C 0.21117 0.50955 0.24361 0.0
C489 C 0.19335 0.4817 0.23869 0.0
C490 C 0.17899 0.47131 0.2827 0.0
C491 C 0.14201 0.47068 0.28052 0.0
C492 C 0.19249 0.4385 0.29708 0.0
C493 C 0.19094 0.49812 0.31267 0.0
C494 C 0.20953 0.51981 0.28926 0.0
C495 C 0.2216 0.54771 0.30862 0.0
C496 C 0.21445 0.55373 0.3531 0.0
C497 C 0.19556 0.53188 0.378 0.0
C498 C 0.18398 0.50349 0.35755 0.0
H499 H 0.48535 0.18894 0.66767 0.0
H500 H 0.58693 0.20962 0.68474 0.0
H501 H 0.57831 0.21648 0.76487 0.0
H502 H 0.45447 0.24329 0.7557 0.0
H503 H 0.42404 0.21502 0.77292 0.0
H504 H 0.43708 0.21598 0.71604 0.0
H505 H 0.45083 0.15529 0.72012 0.0
H506 H 0.43803 0.15415 0.77698 0.0
H507 H 0.47799 0.14109 0.7623 0.0
H508 H 0.56047 0.21576 0.84277 0.0
H509 H 0.53484 0.20693 0.91475 0.0
H510 H 0.44415 0.18605 0.84937 0.0
C511 C 0.50557 0.1958 0.68813 0.0
C512 C 0.53678 0.19914 0.66989 0.0
C513 C 0.56282 0.20713 0.69796 0.0
C514 C 0.55813 0.21117 0.74349 0.0
C515 C 0.52728 0.20699 0.76059 0.0
C516 C 0.50137 0.1995 0.73392 0.0
C517 C 0.47135 0.19348 0.76146 0.0
C518 C 0.44519 0.21844 0.7509 0.0
C519 C 0.45883 0.15895 0.75481 0.0
C520 C 0.48464 0.19819 0.80777 0.0
C521 C 0.51688 0.20628 0.80625 0.0
C522 C 0.53512 0.20995 0.84443 0.0
C523 C 0.52022 0.20485 0.88532 0.0
C524 C 0.48726 0.19616 0.88809 0.0
C525 C 0.46918 0.19325 0.84858 0.0
H526 H 0.81366 0.52138 0.37469 0.0
H527 H 0.81631 0.41745 0.35963 0.0
H528 H 0.815 0.42387 0.2785 0.0
H529 H 0.76157 0.53891 0.28007 0.0
H530 H 0.78347 0.57478 0.26525 0.0
H531 H 0.78174 0.56204 0.32218 0.0
H532 H 0.84396 0.56191 0.32566 0.0
H533 H 0.84594 0.57449 0.26873 0.0
H534 H 0.86643 0.53843 0.28615 0.0
H535 H 0.8164 0.44139 0.19936 0.0
H536 H 0.82124 0.46847 0.12743 0.0
H537 H 0.81911 0.56147 0.19319 0.0
C538 C 0.81339 0.4999 0.35445 0.0
C539 C 0.81483 0.46884 0.37376 0.0
C540 C 0.81506 0.44147 0.3458 0.0
C541 C 0.8143 0.44488 0.29963 0.0
C542 C 0.81344 0.47581 0.28178 0.0
C543 C 0.81301 0.50287 0.30827 0.0
C544 C 0.81404 0.53338 0.28063 0.0
C545 C 0.78337 0.55346 0.28744 0.0
C546 C 0.8444 0.55321 0.29091 0.0
C547 C 0.81538 0.51923 0.23442 0.0
C548 C 0.81478 0.48599 0.23594 0.0
C549 C 0.81666 0.46741 0.19775 0.0
C550 C 0.81943 0.48314 0.15692 0.0
C551 C 0.82043 0.51725 0.15429 0.0
C552 C 0.81814 0.53543 0.1938 0.0
H553 H 0.55989 0.82672 0.86255 0.0
H554 H 0.47495 0.78435 0.92311 0.0
H555 H 0.44927 0.78055 0.85038 0.0
H556 H 0.51878 0.87517 0.78673 0.0
H557 H 0.54674 0.86988 0.74172 0.0
H558 H 0.56046 0.86642 0.79797 0.0
H559 H 0.58263 0.80937 0.78169 0.0
H560 H 0.56924 0.81278 0.7252 0.0
H561 H 0.5563 0.77926 0.75863 0.0
H562 H 0.43028 0.78602 0.77333 0.0
H563 H 0.42066 0.7971 0.69438 0.0
H564 H 0.51772 0.83506 0.6823 0.0
C565 C 0.53623 0.81593 0.86037 0.0
C566 C 0.51958 0.80576 0.89872 0.0
C567 C 0.48835 0.79229 0.89441 0.0
C568 C 0.47345 0.79 0.85315 0.0
C569 C 0.49007 0.80107 0.81629 0.0
C570 C 0.52088 0.81343 0.81923 0.0
C571 C 0.5326 0.82499 0.77446 0.0
C572 C 0.54008 0.86126 0.7753 0.0
C573 C 0.56193 0.80542 0.75909 0.0
C574 C 0.50328 0.81778 0.74636 0.0
C575 C 0.47908 0.80394 0.77122 0.0
C576 C 0.44917 0.79646 0.75326 0.0
C577 C 0.44387 0.80302 0.70845 0.0
C578 C 0.46843 0.81683 0.68207 0.0
C579 C 0.49854 0.82421 0.70144 0.0
H580 H 0.84391 0.46665 0.68197 0.0
H581 H 0.82181 0.56164 0.63092 0.0
H582 H 0.82497 0.58394 0.70673 0.0
H583 H 0.79565 0.4751 0.78177 0.0
H584 H 0.82309 0.45207 0.81533 0.0
H585 H 0.81985 0.44393 0.75699 0.0
H586 H 0.88122 0.45263 0.74816 0.0
H587 H 0.88465 0.461 0.80641 0.0
H588 H 0.89899 0.48989 0.76651 0.0
H589 H 0.83443 0.59632 0.78747 0.0
H590 H 0.84176 0.59679 0.86872 0.0
H591 H 0.85221 0.49294 0.86806 0.0
C592 C 0.8397 0.49213 0.68688 0.0
C593 C 0.83289 0.51256 0.65074 0.0
C594 C 0.82702 0.54565 0.6583 0.0
C595 C 0.82893 0.55852 0.70114 0.0
C596 C 0.83602 0.5378 0.7361 0.0
C597 C 0.84063 0.50519 0.72956 0.0
C598 C 0.84645 0.48794 0.773 0.0
C599 C 0.81966 0.46331 0.78232 0.0
C600 C 0.87981 0.47193 0.77353 0.0
C601 C 0.84489 0.516 0.80493 0.0
C602 C 0.83934 0.54463 0.7829 0.0
C603 C 0.83838 0.57401 0.80513 0.0
C604 C 0.84275 0.57408 0.85117 0.0
C605 C 0.84734 0.54491 0.87449 0.0
C606 C 0.84841 0.51555 0.85099 0.0
H607 H 0.54816 0.88133 0.19657 0.0
H608 H 0.50292 0.78848 0.1736 0.0
H609 H 0.4971 0.78062 0.25352 0.0
H610 H 0.59168 0.85824 0.29653 0.0
H611 H 0.58509 0.89621 0.3239 0.0
H612 H 0.58726 0.89453 0.26441 0.0
H613 H 0.53136 0.9218 0.25903 0.0
H614 H 0.52901 0.92354 0.31846 0.0
H615 H 0.49753 0.9041 0.28739 0.0
H616 H 0.49479 0.78239 0.33405 0.0
H617 H 0.49482 0.79431 0.41332 0.0
H618 H 0.54056 0.88657 0.38733 0.0
C619 C 0.53724 0.85931 0.20849 0.0
C620 C 0.52596 0.83557 0.17878 0.0
C621 C 0.51158 0.80714 0.19559 0.0
C622 C 0.50826 0.80232 0.241 0.0
C623 C 0.51933 0.82617 0.26933 0.0
C624 C 0.53345 0.85415 0.25406 0.0
C625 C 0.54217 0.8762 0.29226 0.0
C626 C 0.57873 0.8816 0.29439 0.0
C627 C 0.52392 0.90831 0.28908 0.0
C628 C 0.53046 0.85621 0.33111 0.0
C629 C 0.51762 0.82738 0.31681 0.0
C630 C 0.50485 0.80483 0.34583 0.0
C631 C 0.505 0.81191 0.39091 0.0
C632 C 0.51771 0.84141 0.40672 0.0
C633 C 0.53075 0.8638 0.37631 0.0
H634 H 0.16672 0.45028 0.84812 0.0
H635 H 0.16725 0.54778 0.89942 0.0
H636 H 0.16096 0.56907 0.82373 0.0
H637 H 0.21463 0.46909 0.7514 0.0
H638 H 0.19378 0.44135 0.71566 0.0
H639 H 0.19636 0.43336 0.77411 0.0
H640 H 0.13425 0.42938 0.7785 0.0
H641 H 0.13148 0.4374 0.72006 0.0
H642 H 0.11003 0.46241 0.75885 0.0
H643 H 0.15234 0.57985 0.74401 0.0
H644 H 0.14841 0.58026 0.66282 0.0
H645 H 0.15922 0.47638 0.66042 0.0
C646 C 0.16528 0.47607 0.84321 0.0
C647 C 0.16711 0.49748 0.87944 0.0
C648 C 0.16582 0.53107 0.87198 0.0
C649 C 0.16214 0.54335 0.8292 0.0
C650 C 0.16045 0.52174 0.79411 0.0
C651 C 0.16252 0.48885 0.80038 0.0
C652 C 0.16203 0.47122 0.75637 0.0
C653 C 0.19358 0.45266 0.74896 0.0
C654 C 0.1327 0.44878 0.75328 0.0
C655 C 0.15906 0.49936 0.72459 0.0
C656 C 0.15768 0.52818 0.74732 0.0
C657 C 0.15373 0.55749 0.72575 0.0
C658 C 0.15143 0.55746 0.67961 0.0
C659 C 0.15377 0.52843 0.65533 0.0
C660 C 0.15767 0.49897 0.67818 0.0
H661 H 0.47544 0.18392 0.38889 0.0
H662 H 0.56443 0.12918 0.38595 0.0
H663 H 0.56017 0.12426 0.30511 0.0
H664 H 0.43518 0.13728 0.30388 0.0
H665 H 0.41499 0.17149 0.27995 0.0
H666 H 0.425 0.17141 0.33792 0.0
H667 H 0.45628 0.22487 0.3281 0.0
H668 H 0.44629 0.22517 0.27015 0.0
H669 H 0.48777 0.22734 0.28721 0.0
H670 H 0.54802 0.12689 0.22513 0.0
H671 H 0.52708 0.13477 0.14968 0.0
H672 H 0.444 0.18484 0.20297 0.0
C673 C 0.49401 0.17098 0.37113 0.0
C674 C 0.52032 0.157 0.3937 0.0
C675 C 0.54401 0.14001 0.36942 0.0
C676 C 0.54185 0.1371 0.32345 0.0
C677 C 0.51563 0.15097 0.30219 0.0
C678 C 0.49196 0.16736 0.32506 0.0
C679 C 0.46606 0.17945 0.29382 0.0
C680 C 0.43337 0.16398 0.30454 0.0
C681 C 0.464 0.2164 0.29489 0.0
C682 C 0.47913 0.16752 0.24989 0.0
C683 C 0.50787 0.15134 0.25566 0.0
C684 C 0.52539 0.13922 0.22014 0.0
C685 C 0.51333 0.14386 0.17744 0.0
C686 C 0.48381 0.16012 0.17059 0.0
C687 C 0.46635 0.17185 0.20736 0.0
H688 H 0.93219 0.49514 0.02622 0.0
H689 H 0.93993 0.59613 0.06154 0.0
H690 H 0.9989 0.59091 0.06518 0.0
H691 H 0.99522 0.46821 0.10018 0.0
H692 H 0.00956 0.43756 0.06287 0.0
H693 H 0.96787 0.44939 0.06183 0.0
H694 H 0.97254 0.4622 0.97825 0.0
H695 H 0.01425 0.45046 0.97902 0.0
H696 H 1.00304 0.48986 0.95938 0.0
H697 H 0.05733 0.57547 0.06104 0.0
H698 H 0.11076 0.54963 0.05627 0.0
H699 H 0.06498 0.45779 0.02981 0.0
C700 C 0.94626 0.51621 0.0346 0.0
C701 C 0.93131 0.54622 0.04291 0.0
C702 C 0.95067 0.57299 0.05455 0.0
C703 C 0.98427 0.57026 0.05674 0.0
C704 C 0.99819 0.54044 0.04806 0.0
C705 C 0.9798 0.51376 0.03786 0.0
C706 C 1.00074 0.48423 0.03145 0.0
C707 C 0.99288 0.45832 0.06616 0.0
C708 C 0.99744 0.47092 0.98421 0.0
C709 C 0.0338 0.49861 0.03907 0.0
C710 C 0.03179 0.53114 0.04817 0.0
C711 C 0.05918 0.54994 0.05445 0.0
C712 C 0.08942 0.53508 0.05153 0.0
C713 C 0.09204 0.50165 0.04312 0.0
C714 C 0.06376 0.48326 0.037 0.0
H715 H 0.51833 0.92724 0.5475 0.0
H716 H 0.41574 0.93605 0.57256 0.0
H717 H 0.42144 0.99496 0.57665 0.0
H718 H 0.54267 0.99093 0.62225 0.0
H719 H 0.57483 0.00475 0.587 0.0
H720 H 0.56283 0.96308 0.58589 0.0
H721 H 0.55339 0.96688 0.50138 0.0
H722 H 0.56538 0.00854 0.50222 0.0
H723 H 0.52676 0.99736 0.47992 0.0
H724 H 0.43753 0.05291 0.57452 0.0
H725 H 0.46345 0.10616 0.56951 0.0
H726 H 0.5561 0.06008 0.55006 0.0
C727 C 0.49702 0.94151 0.55381 0.0
C728 C 0.46649 0.92686 0.55926 0.0
C729 C 0.43934 0.94654 0.56793 0.0
C730 C 0.44233 0.98009 0.57041 0.0
C731 C 0.47268 0.99368 0.56472 0.0
C732 C 0.49961 0.97505 0.55695 0.0
C733 C 0.52947 0.99579 0.55235 0.0
C734 C 0.55389 0.98818 0.58907 0.0
C735 C 0.54463 0.99191 0.50622 0.0
C736 C 0.51501 0.02902 0.55825 0.0
C737 C 0.48219 0.0272 0.56516 0.0
C738 C 0.46326 0.05465 0.56956 0.0
C739 C 0.47821 0.0848 0.56656 0.0
C740 C 0.51185 0.08735 0.55969 0.0
C741 C 0.53046 0.05898 0.55596 0.0
H742 H 0.0764 0.49191 0.50073 0.0
H743 H 0.06986 0.59468 0.47564 0.0
H744 H 0.01076 0.59046 0.47319 0.0
H745 H 0.0104 0.46916 0.42784 0.0
H746 H 0.99672 0.43732 0.46374 0.0
H747 H 0.03866 0.44831 0.46281 0.0
H748 H 0.03715 0.4577 0.54747 0.0
H749 H 0.99519 0.44692 0.54867 0.0
H750 H 0.00804 0.48521 0.5704 0.0
H751 H 0.95227 0.57581 0.4785 0.0
H752 H 0.89859 0.55104 0.48532 0.0
H753 H 0.94308 0.4573 0.50243 0.0
C754 C 0.06261 0.51355 0.49451 0.0
C755 C 0.07792 0.54373 0.48889 0.0
C756 C 0.05885 0.57133 0.4804 0.0
C757 C 0.02519 0.56919 0.47891 0.0
C758 C 0.01092 0.5392 0.48528 0.0
C759 C 0.02901 0.51179 0.49232 0.0
C760 C 0.00767 0.48247 0.49794 0.0
C761 C 0.01373 0.45787 0.46087 0.0
C762 C 0.01229 0.46718 0.54385 0.0
C763 C 0.97474 0.49778 0.49364 0.0
C764 C 0.97717 0.53055 0.4866 0.0
C765 C 0.95006 0.55011 0.48352 0.0
C766 C 0.91965 0.5358 0.48761 0.0
C767 C 0.91651 0.50216 0.49427 0.0
C768 C 0.94455 0.483 0.49703 0.0
H769 H 0.55914 0.94159 0.03824 0.0
H770 H 0.47766 0.89802 0.97178 0.0
H771 H 0.45538 0.95175 0.95614 0.0
H772 H 0.51301 1.00388 0.09129 0.0
H773 H 0.54368 0.03434 0.08633 0.0
H774 H 0.55486 0.99253 0.08963 0.0
H775 H 0.58651 0.99787 0.01619 0.0
H776 H 0.57532 0.03971 0.01259 0.0
H777 H 0.56631 0.01276 0.96757 0.0
H778 H 0.44206 0.0092 0.94665 0.0
H779 H 0.43473 0.06765 0.95065 0.0
H780 H 0.52221 0.07587 0.02863 0.0
C781 C 0.53676 0.94358 0.02014 0.0
C782 C 0.52003 0.91576 0.00607 0.0
C783 C 0.49062 0.91905 0.98305 0.0
C784 C 0.47792 0.94946 0.97374 0.0
C785 C 0.49472 0.97645 0.98819 0.0
C786 C 0.52325 0.97397 0.01139 0.0
C787 C 0.53506 0.00705 0.02552 0.0
C788 C 0.53674 0.00959 0.07621 0.0
C789 C 0.56774 0.0148 1.00419 0.0
C790 C 0.50859 0.0283 0.00679 0.0
C791 C 0.48596 0.01002 0.98476 0.0
C792 C 0.45944 0.02381 0.96414 0.0
C793 C 0.45547 0.05718 0.96677 0.0
C794 C 0.47753 0.07658 0.99065 0.0
C795 C 0.50473 0.06182 0.01041 0.0
H796 H 0.29364 0.39163 0.04659 0.0
H797 H 0.2081 0.33148 0.04961 0.0
H798 H 0.24124 0.2839 0.03382 0.0
H799 H 0.33305 0.35061 0.95759 0.0
H800 H 0.3729 0.35401 0.98059 0.0
H801 H 0.34285 0.38381 0.99352 0.0
H802 H 0.35117 0.37337 0.07716 0.0
H803 H 0.38135 0.34363 0.0645 0.0
H804 H 0.34728 0.33301 0.09842 0.0
H805 H 0.28224 0.24318 0.01561 0.0
H806 H 0.32969 0.21038 0.99892 0.0
H807 H 0.39039 0.29536 0.00798 0.0
C808 C 0.28195 0.3684 0.04439 0.0
C809 C 0.24816 0.36541 0.04949 0.0
C810 C 0.23384 0.33454 0.04596 0.0
C811 C 0.25247 0.30728 0.03691 0.0
C812 C 0.28551 0.31108 0.03157 0.0
C813 C 0.30029 0.34071 0.03543 0.0
C814 C 0.33635 0.33777 0.02779 0.0
C815 C 0.3469 0.35774 0.98747 0.0
C816 C 0.35515 0.34752 0.06945 0.0
C817 C 0.33936 0.30189 0.01881 0.0
C818 C 0.3096 0.28716 0.02114 0.0
C819 C 0.30572 0.25437 0.01383 0.0
C820 C 0.33297 0.23594 1.00421 0.0
C821 C 0.36398 0.25015 1.00199 0.0
C822 C 0.3671 0.28371 0.00934 0.0
H823 H 0.71514 0.38773 0.50401 0.0
H824 H 0.80251 0.33038 0.50679 0.0
H825 H 0.77052 0.28198 0.52291 0.0
H826 H 0.6753 0.34669 0.59345 0.0
H827 H 0.63586 0.34872 0.56888 0.0
H828 H 0.66535 0.3792 0.55642 0.0
H829 H 0.65893 0.36763 0.47275 0.0
H830 H 0.62936 0.33717 0.48495 0.0
H831 H 0.66437 0.32717 0.45254 0.0
H832 H 0.72978 0.23969 0.539 0.0
H833 H 0.68238 0.20581 0.55381 0.0
H834 H 0.62057 0.28967 0.54188 0.0
C835 C 0.7275 0.36495 0.5077 0.0
C836 C 0.76144 0.36297 0.50399 0.0
C837 C 0.77663 0.33268 0.50946 0.0
C838 C 0.75865 0.30494 0.51864 0.0
C839 C 0.72539 0.30773 0.52242 0.0
C840 C 0.70986 0.33687 0.5171 0.0
C841 C 0.67378 0.33301 0.52344 0.0
C842 C 0.66188 0.3531 0.5629 0.0
C843 C 0.65554 0.34177 0.48088 0.0
C844 C 0.67158 0.29719 0.53312 0.0
C845 C 0.7017 0.28316 0.53226 0.0
C846 C 0.70605 0.25038 0.5398 0.0
C847 C 0.67891 0.23132 0.54821 0.0
C848 C 0.64766 0.24499 0.5492 0.0
C849 C 0.6441 0.27847 0.54169 0.0
H850 H 0.7643 0.66847 0.05294 0.0
H851 H 0.70592 0.58178 0.04981 0.0
H852 H 0.65808 0.61456 0.03236 0.0
H853 H 0.70406 0.72031 0.10297 0.0
H854 H 0.7154 0.75498 0.07069 0.0
H855 H 0.74495 0.7248 0.084 0.0
H856 H 0.75781 0.71792 1.0007 0.0
H857 H 0.72816 0.74794 0.98711 0.0
H858 H 0.72576 0.70842 0.96275 0.0
H859 H 0.61692 0.65628 0.01346 0.0
H860 H 0.58446 0.70429 0.99707 0.0
H861 H 0.66913 0.76457 0.0125 0.0
C862 C 0.74141 0.65636 0.04899 0.0
C863 C 0.7389 0.62246 0.05298 0.0
C864 C 0.70849 0.60765 0.04722 0.0
C865 C 0.68117 0.62608 0.03715 0.0
C866 C 0.68457 0.65932 0.033 0.0
C867 C 0.71385 0.6744 0.03897 0.0
C868 C 0.71091 0.71051 0.03232 0.0
C869 C 0.71933 0.72872 0.07504 0.0
C870 C 0.73191 0.72185 0.9934 0.0
C871 C 0.67539 0.71338 0.02154 0.0
C872 C 0.66073 0.6835 0.02205 0.0
C873 C 0.62812 0.67979 0.01302 0.0
C874 C 0.60989 0.70731 1.0036 0.0
C875 C 0.62418 0.73832 1.0033 0.0
C876 C 0.65748 0.74125 0.01227 0.0
H877 H 0.33947 0.76214 0.54538 0.0
H878 H 0.42445 0.70265 0.56217 0.0
H879 H 0.3924 0.65433 0.54403 0.0
H880 H 0.28325 0.70605 0.59348 0.0
H881 H 0.25142 0.71596 0.55539 0.0
H882 H 0.28116 0.74575 0.56955 0.0
H883 H 0.2945 0.75346 0.48649 0.0
H884 H 0.26489 0.7236 0.47209 0.0
H885 H 0.3059 0.71907 0.45368 0.0
H886 H 0.35096 0.61241 0.52282 0.0
H887 H 0.30305 0.58012 0.50344 0.0
H888 H 0.24522 0.66714 0.50167 0.0
C889 C 0.35138 0.73896 0.54533 0.0
C890 C 0.38452 0.73622 0.55524 0.0
C891 C 0.39909 0.70538 0.5549 0.0
C892 C 0.3811 0.67779 0.54448 0.0
C893 C 0.34853 0.68138 0.53467 0.0
C894 C 0.33377 0.71118 0.53528 0.0
C895 C 0.29836 0.70848 0.52401 0.0
C896 C 0.27731 0.71972 0.56293 0.0
C897 C 0.29046 0.72727 0.48154 0.0
C898 C 0.29549 0.67252 0.51685 0.0
C899 C 0.3247 0.6573 0.52296 0.0
C900 C 0.32797 0.62409 0.51799 0.0
C901 C 0.30062 0.60595 0.50684 0.0
C902 C 0.27035 0.62103 0.50094 0.0
C903 C 0.26797 0.65481 0.50592 0.0
loop_
_geom_bond_atom_site_label_1
_geom_bond_atom_site_label_2
_geom_bond_distance
_geom_bond_site_symmetry_2
_ccdc_geom_bond_type
Co0 O2 2.143 . S
Co0 O8 2.074 . S
Co0 O11 2.093 1_554 S
Co0 O24 2.097 . S
Co0 N41 2.151 . S
Co0 N49 2.214 . S
Co1 O2 2.160 . S
Co1 O7 2.058 . S
Co1 O17 2.057 . S
Co1 O32 2.037 . S
Co1 N36 2.145 . S
Co1 N57 2.260 . S
O2 Co0 2.143 . S
O2 Co1 2.160 . S
C3 O4 1.278 . S
C3 O11 1.224 . S
O4 C3 1.278 . S
C5 O6 1.245 . S
C5 O17 1.232 . S
O6 C5 1.245 . S
O7 Co1 2.058 . S
O7 C33 1.269 . S
O8 Co0 2.074 . S
O8 C33 1.257 . S
H9 C34 0.930 . S
H10 C40 0.930 . S
O11 Co0 2.093 1_556 S
O11 C3 1.224 . S
H12 C44 0.929 . S
H13 C46 0.929 . S
H14 C47 0.930 . S
H15 C45 0.929 . S
H16 C48 0.928 1_556 S
O17 Co1 2.057 . S
O17 C5 1.232 . S
H18 C37 0.929 . S
H19 C38 0.929 . S
H20 C50 0.931 . S
H21 C42 0.929 . S
H22 C51 0.930 . S
H23 C43 0.931 . S
O24 Co0 2.097 . S
O24 C52 1.214 . S
H25 C53 0.929 . S
H26 C54 0.929 1_554 S
H27 C55 0.930 . S
H28 C56 0.929 . S
H29 C58 0.930 . S
H30 C35 0.930 . S
H31 C39 0.930 . S
O32 Co1 2.037 . S
O32 C52 1.234 . S
C33 O7 1.269 . S
C33 O8 1.257 . S
C34 H9 0.930 . S
C34 C37 1.388 . S
C34 C39 1.418 . S
C35 H30 0.930 . S
C35 C38 1.404 . S
C35 C39 1.353 . S
N36 Co1 2.145 . S
N36 C37 1.397 . S
N36 C38 1.334 . S
C37 H18 0.929 . S
C37 C34 1.388 . S
C37 N36 1.397 . S
C38 H19 0.929 . S
C38 C35 1.404 . S
C38 N36 1.334 . S
C39 H31 0.930 . S
C39 C34 1.418 . S
C39 C35 1.353 . S
C40 H10 0.930 . S
C40 N41 1.330 1_556 S
C40 C42 1.446 . S
N41 Co0 2.151 . S
N41 C40 1.330 1_554 S
N41 C45 1.418 . S
C42 H21 0.929 . S
C42 C40 1.446 . S
C42 C43 1.332 1_556 S
C43 H23 0.931 . S
C43 C42 1.332 1_554 S
C43 C44 1.267 . S
C44 H12 0.929 . S
C44 C43 1.267 . S
C44 C45 1.251 . S
C45 H15 0.929 . S
C45 N41 1.418 . S
C45 C44 1.251 . S
C46 H13 0.929 . S
C46 C48 1.406 . S
C46 C51 1.261 . S
C47 H14 0.930 . S
C47 N49 1.325 . S
C47 C50 1.357 . S
C48 H16 0.928 1_554 S
C48 C46 1.406 . S
C48 N49 1.261 . S
N49 Co0 2.214 . S
N49 C47 1.325 . S
N49 C48 1.261 . S
C50 H20 0.931 . S
C50 C47 1.357 . S
C50 C51 1.312 . S
C51 H22 0.930 . S
C51 C46 1.261 . S
C51 C50 1.312 . S
C52 O24 1.214 . S
C52 O32 1.234 . S
C53 H25 0.929 . S
C53 C56 1.391 . S
C53 C58 1.391 . S
C54 H26 0.929 1_556 S
C54 C55 1.390 . S
C54 N57 1.391 1_556 S
C55 H27 0.930 . S
C55 C54 1.390 . S
C55 C56 1.392 . S
C56 H28 0.929 . S
C56 C53 1.391 . S
C56 C55 1.392 . S
N57 Co1 2.260 . S
N57 C54 1.391 1_554 S
N57 C58 1.386 1_554 S
C58 H29 0.930 . S
C58 C53 1.391 . S
C58 N57 1.386 1_556 S
Co59 O61 2.143 . S
Co59 O67 2.074 . S
Co59 O70 2.093 . S
Co59 O83 2.097 . S
Co59 N100 2.151 . S
Co59 N108 2.214 . S
Co60 O61 2.160 . S
Co60 O66 2.058 . S
Co60 O76 2.057 . S
Co60 O91 2.037 . S
Co60 N95 2.145 . S
Co60 N116 2.257 . S
O61 Co59 2.143 . S
O61 Co60 2.160 . S
C62 O63 1.278 . S
C62 O70 1.224 . S
O63 C62 1.278 . S
C64 O65 1.245 . S
C64 O76 1.232 . S
O65 C64 1.245 . S
O66 Co60 2.058 . S
O66 C92 1.269 . S
O67 Co59 2.074 . S
O67 C92 1.257 . S
H68 C93 0.930 . S
H69 C99 0.930 . S
O70 Co59 2.093 . S
O70 C62 1.224 . S
H71 C103 0.929 . S
H72 C105 0.930 . S
H73 C106 0.930 . S
H74 C104 0.929 . S
H75 C107 0.928 . S
O76 Co60 2.057 . S
O76 C64 1.232 . S
H77 C96 0.929 . S
H78 C97 0.929 . S
H79 C109 0.931 . S
H80 C101 0.929 . S
H81 C110 0.930 . S
H82 C102 0.931 . S
O83 Co59 2.097 . S
O83 C111 1.214 . S
H84 C112 0.929 . S
H85 C113 0.929 . S
H86 C114 0.930 . S
H87 C115 0.929 . S
H88 C117 0.930 . S
H89 C94 0.930 . S
H90 C98 0.930 . S
O91 Co60 2.037 . S
O91 C111 1.234 . S
C92 O66 1.269 . S
C92 O67 1.257 . S
C93 H68 0.930 . S
C93 C96 1.388 . S
C93 C98 1.418 . S
C94 H89 0.930 . S
C94 C97 1.404 . S
C94 C98 1.353 . S
N95 Co60 2.145 . S
N95 C96 1.397 . S
N95 C97 1.334 . S
C96 H77 0.929 . S
C96 C93 1.388 . S
C96 N95 1.397 . S
C97 H78 0.929 . S
C97 C94 1.404 . S
C97 N95 1.334 . S
C98 H90 0.930 . S
C98 C93 1.418 . S
C98 C94 1.353 . S
C99 H69 0.930 . S
C99 N100 1.330 . S
C99 C101 1.446 . S
N100 Co59 2.151 . S
N100 C99 1.330 . S
N100 C104 1.418 . S
C101 H80 0.929 . S
C101 C99 1.446 . S
C101 C102 1.332 . S
C102 H82 0.931 . S
C102 C101 1.332 . S
C102 C103 1.267 . S
C103 H71 0.929 . S
C103 C102 1.267 . S
C103 C104 1.251 . S
C104 H74 0.929 . S
C104 N100 1.418 . S
C104 C103 1.251 . S
C105 H72 0.930 . S
C105 C107 1.406 . S
C105 C110 1.261 . S
C106 H73 0.930 . S
C106 N108 1.325 . S
C106 C109 1.357 . S
C107 H75 0.928 . S
C107 C105 1.406 . S
C107 N108 1.261 . S
N108 Co59 2.214 . S
N108 C106 1.325 . S
N108 C107 1.261 . S
C109 H79 0.931 . S
C109 C106 1.357 . S
C109 C110 1.312 . S
C110 H81 0.930 . S
C110 C105 1.261 . S
C110 C109 1.312 . S
C111 O83 1.214 . S
C111 O91 1.234 . S
C112 H84 0.929 . S
C112 C115 1.391 . S
C112 C117 1.391 . S
C113 H85 0.929 . S
C113 C114 1.390 . S
C113 N116 1.391 . S
C114 H86 0.930 . S
C114 C113 1.390 . S
C114 C115 1.392 . S
C115 H87 0.929 . S
C115 C112 1.391 . S
C115 C114 1.392 . S
N116 Co60 2.257 . S
N116 C113 1.391 . S
N116 C117 1.388 . S
C117 H88 0.930 . S
C117 C112 1.391 . S
C117 N116 1.388 . S
Co118 O120 2.143 . S
Co118 O126 2.074 . S
Co118 O129 2.093 1_554 S
Co118 O142 2.097 . S
Co118 N159 2.151 . S
Co118 N167 2.214 . S
Co119 O120 2.160 . S
Co119 O125 2.058 . S
Co119 O135 2.057 . S
Co119 O150 2.037 . S
Co119 N154 2.145 . S
Co119 N175 2.260 . S
O120 Co118 2.143 . S
O120 Co119 2.160 . S
C121 O122 1.278 . S
C121 O129 1.224 . S
O122 C121 1.278 . S
C123 O124 1.245 . S
C123 O135 1.232 . S
O124 C123 1.245 . S
O125 Co119 2.058 . S
O125 C151 1.269 . S
O126 Co118 2.074 . S
O126 C151 1.257 . S
H127 C152 0.930 . S
H128 C158 0.930 . S
O129 Co118 2.093 1_556 S
O129 C121 1.224 . S
H130 C162 0.929 . S
H131 C164 0.929 . S
H132 C165 0.930 . S
H133 C163 0.929 . S
H134 C166 0.928 1_556 S
O135 Co119 2.057 . S
O135 C123 1.232 . S
H136 C155 0.929 . S
H137 C156 0.929 . S
H138 C168 0.931 . S
H139 C160 0.929 . S
H140 C169 0.930 . S
H141 C161 0.931 . S
O142 Co118 2.097 . S
O142 C170 1.214 . S
H143 C171 0.929 . S
H144 C172 0.929 1_554 S
H145 C173 0.930 . S
H146 C174 0.929 . S
H147 C176 0.930 . S
H148 C153 0.930 . S
H149 C157 0.930 . S
O150 Co119 2.037 . S
O150 C170 1.234 . S
C151 O125 1.269 . S
C151 O126 1.257 . S
C152 H127 0.930 . S
C152 C155 1.388 . S
C152 C157 1.418 . S
C153 H148 0.930 . S
C153 C156 1.404 . S
C153 C157 1.353 . S
N154 Co119 2.145 . S
N154 C155 1.397 . S
N154 C156 1.334 . S
C155 H136 0.929 . S
C155 C152 1.388 . S
C155 N154 1.397 . S
C156 H137 0.929 . S
C156 C153 1.404 . S
C156 N154 1.334 . S
C157 H149 0.930 . S
C157 C152 1.418 . S
C157 C153 1.353 . S
C158 H128 0.930 . S
C158 N159 1.330 1_556 S
C158 C160 1.446 . S
N159 Co118 2.151 . S
N159 C158 1.330 1_554 S
N159 C163 1.418 . S
C160 H139 0.929 . S
C160 C158 1.446 . S
C160 C161 1.332 1_556 S
C161 H141 0.931 . S
C161 C160 1.332 1_554 S
C161 C162 1.267 . S
C162 H130 0.929 . S
C162 C161 1.267 . S
C162 C163 1.251 . S
C163 H133 0.929 . S
C163 N159 1.418 . S
C163 C162 1.251 . S
C164 H131 0.929 . S
C164 C166 1.406 . S
C164 C169 1.261 . S
C165 H132 0.930 . S
C165 N167 1.325 . S
C165 C168 1.357 . S
C166 H134 0.928 1_554 S
C166 C164 1.406 . S
C166 N167 1.261 . S
N167 Co118 2.214 . S
N167 C165 1.325 . S
N167 C166 1.261 . S
C168 H138 0.931 . S
C168 C165 1.357 . S
C168 C169 1.312 . S
C169 H140 0.930 . S
C169 C164 1.261 . S
C169 C168 1.312 . S
C170 O142 1.214 . S
C170 O150 1.234 . S
C171 H143 0.929 . S
C171 C174 1.391 . S
C171 C176 1.391 . S
C172 H144 0.929 1_556 S
C172 C173 1.390 . S
C172 N175 1.391 1_556 S
C173 H145 0.930 . S
C173 C172 1.390 . S
C173 C174 1.392 . S
C174 H146 0.929 . S
C174 C171 1.391 . S
C174 C173 1.392 . S
N175 Co119 2.260 . S
N175 C172 1.391 1_554 S
N175 C176 1.386 1_554 S
C176 H147 0.930 . S
C176 C171 1.391 . S
C176 N175 1.386 1_556 S
Co177 O179 2.143 . S
Co177 O185 2.074 . S
Co177 O188 2.093 . S
Co177 O201 2.097 . S
Co177 N218 2.151 . S
Co177 N226 2.214 . S
Co178 O179 2.160 . S
Co178 O184 2.058 . S
Co178 O194 2.057 . S
Co178 O209 2.037 . S
Co178 N213 2.145 . S
Co178 N234 2.257 . S
O179 Co177 2.143 . S
O179 Co178 2.160 . S
C180 O181 1.278 . S
C180 O188 1.224 . S
O181 C180 1.278 . S
C182 O183 1.245 . S
C182 O194 1.232 . S
O183 C182 1.245 . S
O184 Co178 2.058 . S
O184 C210 1.269 . S
O185 Co177 2.074 . S
O185 C210 1.257 . S
H186 C211 0.930 . S
H187 C217 0.930 . S
O188 Co177 2.093 . S
O188 C180 1.224 . S
H189 C221 0.929 . S
H190 C223 0.930 . S
H191 C224 0.930 . S
H192 C222 0.929 . S
H193 C225 0.928 . S
O194 Co178 2.057 . S
O194 C182 1.232 . S
H195 C214 0.929 . S
H196 C215 0.929 . S
H197 C227 0.931 . S
H198 C219 0.929 . S
H199 C228 0.930 . S
H200 C220 0.931 . S
O201 Co177 2.097 . S
O201 C229 1.214 . S
H202 C230 0.929 . S
H203 C231 0.929 . S
H204 C232 0.930 . S
H205 C233 0.929 . S
H206 C235 0.930 . S
H207 C212 0.930 . S
H208 C216 0.930 . S
O209 Co178 2.037 . S
O209 C229 1.234 . S
C210 O184 1.269 . S
C210 O185 1.257 . S
C211 H186 0.930 . S
C211 C214 1.388 . S
C211 C216 1.418 . S
C212 H207 0.930 . S
C212 C215 1.404 . S
C212 C216 1.353 . S
N213 Co178 2.145 . S
N213 C214 1.397 . S
N213 C215 1.334 . S
C214 H195 0.929 . S
C214 C211 1.388 . S
C214 N213 1.397 . S
C215 H196 0.929 . S
C215 C212 1.404 . S
C215 N213 1.334 . S
C216 H208 0.930 . S
C216 C211 1.418 . S
C216 C212 1.353 . S
C217 H187 0.930 . S
C217 N218 1.330 . S
C217 C219 1.446 . S
N218 Co177 2.151 . S
N218 C217 1.330 . S
N218 C222 1.418 . S
C219 H198 0.929 . S
C219 C217 1.446 . S
C219 C220 1.332 . S
C220 H200 0.931 . S
C220 C219 1.332 . S
C220 C221 1.267 . S
C221 H189 0.929 . S
C221 C220 1.267 . S
C221 C222 1.251 . S
C222 H192 0.929 . S
C222 N218 1.418 . S
C222 C221 1.251 . S
C223 H190 0.930 . S
C223 C225 1.406 . S
C223 C228 1.261 . S
C224 H191 0.930 . S
C224 N226 1.325 . S
C224 C227 1.357 . S
C225 H193 0.928 . S
C225 C223 1.406 . S
C225 N226 1.261 . S
N226 Co177 2.214 . S
N226 C224 1.325 . S
N226 C225 1.261 . S
C227 H197 0.931 . S
C227 C224 1.357 . S
C227 C228 1.312 . S
C228 H199 0.930 . S
C228 C223 1.261 . S
C228 C227 1.312 . S
C229 O201 1.214 . S
C229 O209 1.234 . S
C230 H202 0.929 . S
C230 C233 1.391 . S
C230 C235 1.391 . S
C231 H203 0.929 . S
C231 C232 1.390 . S
C231 N234 1.391 . S
C232 H204 0.930 . S
C232 C231 1.390 . S
C232 C233 1.392 . S
C233 H205 0.929 . S
C233 C230 1.391 . S
C233 C232 1.392 . S
N234 Co178 2.257 . S
N234 C231 1.391 . S
N234 C235 1.388 . S
C235 H206 0.930 . S
C235 C230 1.391 . S
C235 N234 1.388 . S
Co236 O238 2.143 . S
Co236 O244 2.074 . S
Co236 O247 2.093 . S
Co236 O260 2.097 . S
Co236 N277 2.151 . S
Co236 N285 2.214 . S
Co237 O238 2.160 . S
Co237 O243 2.058 . S
Co237 O253 2.057 . S
Co237 O268 2.037 . S
Co237 N272 2.145 . S
Co237 N293 2.257 . S
O238 Co236 2.143 . S
O238 Co237 2.160 . S
C239 O240 1.278 . S
C239 O247 1.224 . S
O240 C239 1.278 . S
C241 O242 1.245 . S
C241 O253 1.232 . S
O242 C241 1.245 . S
O243 Co237 2.058 . S
O243 C269 1.269 . S
O244 Co236 2.074 . S
O244 C269 1.257 . S
H245 C270 0.930 . S
H246 C276 0.930 . S
O247 Co236 2.093 . S
O247 C239 1.224 . S
H248 C280 0.929 . S
H249 C282 0.930 . S
H250 C283 0.930 . S
H251 C281 0.929 . S
H252 C284 0.928 . S
O253 Co237 2.057 . S
O253 C241 1.232 . S
H254 C273 0.929 . S
H255 C274 0.929 . S
H256 C286 0.931 . S
H257 C278 0.929 . S
H258 C287 0.930 . S
H259 C279 0.931 . S
O260 Co236 2.097 . S
O260 C288 1.214 . S
H261 C289 0.929 . S
H262 C290 0.929 . S
H263 C291 0.930 . S
H264 C292 0.929 . S
H265 C294 0.930 . S
H266 C271 0.930 . S
H267 C275 0.930 . S
O268 Co237 2.037 . S
O268 C288 1.234 . S
C269 O243 1.269 . S
C269 O244 1.257 . S
C270 H245 0.930 . S
C270 C273 1.388 . S
C270 C275 1.418 . S
C271 H266 0.930 . S
C271 C274 1.404 . S
C271 C275 1.353 . S
N272 Co237 2.145 . S
N272 C273 1.397 . S
N272 C274 1.334 . S
C273 H254 0.929 . S
C273 C270 1.388 . S
C273 N272 1.397 . S
C274 H255 0.929 . S
C274 C271 1.404 . S
C274 N272 1.334 . S
C275 H267 0.930 . S
C275 C270 1.418 . S
C275 C271 1.353 . S
C276 H246 0.930 . S
C276 N277 1.330 . S
C276 C278 1.446 . S
N277 Co236 2.151 . S
N277 C276 1.330 . S
N277 C281 1.418 . S
C278 H257 0.929 . S
C278 C276 1.446 . S
C278 C279 1.332 . S
C279 H259 0.931 . S
C279 C278 1.332 . S
C279 C280 1.267 . S
C280 H248 0.929 . S
C280 C279 1.267 . S
C280 C281 1.251 . S
C281 H251 0.929 . S
C281 N277 1.418 . S
C281 C280 1.251 . S
C282 H249 0.930 . S
C282 C284 1.406 . S
C282 C287 1.261 . S
C283 H250 0.930 . S
C283 N285 1.325 . S
C283 C286 1.357 . S
C284 H252 0.928 . S
C284 C282 1.406 . S
C284 N285 1.261 . S
N285 Co236 2.214 . S
N285 C283 1.325 . S
N285 C284 1.261 . S
C286 H256 0.931 . S
C286 C283 1.357 . S
C286 C287 1.312 . S
C287 H258 0.930 . S
C287 C282 1.261 . S
C287 C286 1.312 . S
C288 O260 1.214 . S
C288 O268 1.234 . S
C289 H261 0.929 . S
C289 C292 1.391 . S
C289 C294 1.391 . S
C290 H262 0.929 . S
C290 C291 1.390 . S
C290 N293 1.391 . S
C291 H263 0.930 . S
C291 C290 1.390 . S
C291 C292 1.392 . S
C292 H264 0.929 . S
C292 C289 1.391 . S
C292 C291 1.392 . S
N293 Co237 2.257 . S
N293 C290 1.391 . S
N293 C294 1.388 . S
C294 H265 0.930 . S
C294 C289 1.391 . S
C294 N293 1.388 . S
Co295 O297 2.143 . S
Co295 O303 2.074 1_554 S
Co295 O306 2.093 . S
Co295 O319 2.097 . S
Co295 N336 2.151 . S
Co295 N344 2.214 . S
Co296 O297 2.160 1_556 S
Co296 O302 2.058 . S
Co296 O312 2.057 . S
Co296 O327 2.037 . S
Co296 N331 2.145 . S
Co296 N352 2.257 1_556 S
O297 Co295 2.143 . S
O297 Co296 2.160 1_554 S
C298 O299 1.278 . S
C298 O306 1.224 . S
O299 C298 1.278 . S
C300 O301 1.245 . S
C300 O312 1.232 1_554 S
O301 C300 1.245 . S
O302 Co296 2.058 . S
O302 C328 1.269 . S
O303 Co295 2.074 1_556 S
O303 C328 1.257 . S
H304 C329 0.930 . S
H305 C335 0.930 . S
O306 Co295 2.093 . S
O306 C298 1.224 . S
H307 C339 0.929 . S
H308 C341 0.930 . S
H309 C342 0.930 . S
H310 C340 0.929 . S
H311 C343 0.928 . S
O312 Co296 2.057 . S
O312 C300 1.232 1_556 S
H313 C332 0.929 . S
H314 C333 0.929 . S
H315 C345 0.931 . S
H316 C337 0.929 . S
H317 C346 0.930 1_556 S
H318 C338 0.931 . S
O319 Co295 2.097 . S
O319 C347 1.214 . S
H320 C348 0.929 . S
H321 C349 0.929 . S
H322 C350 0.930 . S
H323 C351 0.929 . S
H324 C353 0.930 . S
H325 C330 0.930 . S
H326 C334 0.930 . S
O327 Co296 2.037 . S
O327 C347 1.234 1_556 S
C328 O302 1.269 . S
C328 O303 1.257 . S
C329 H304 0.930 . S
C329 C332 1.388 . S
C329 C334 1.418 . S
C330 H325 0.930 . S
C330 C333 1.404 . S
C330 C334 1.353 . S
N331 Co296 2.145 . S
N331 C332 1.397 . S
N331 C333 1.334 . S
C332 H313 0.929 . S
C332 C329 1.388 . S
C332 N331 1.397 . S
C333 H314 0.929 . S
C333 C330 1.404 . S
C333 N331 1.334 . S
C334 H326 0.930 . S
C334 C329 1.418 . S
C334 C330 1.353 . S
C335 H305 0.930 . S
C335 N336 1.330 . S
C335 C337 1.446 . S
N336 Co295 2.151 . S
N336 C335 1.330 . S
N336 C340 1.418 1_554 S
C337 H316 0.929 . S
C337 C335 1.446 . S
C337 C338 1.332 . S
C338 H318 0.931 . S
C338 C337 1.332 . S
C338 C339 1.267 1_554 S
C339 H307 0.929 . S
C339 C338 1.267 1_556 S
C339 C340 1.251 . S
C340 H310 0.929 . S
C340 N336 1.418 1_556 S
C340 C339 1.251 . S
C341 H308 0.930 . S
C341 C343 1.406 . S
C341 C346 1.261 . S
C342 H309 0.930 . S
C342 N344 1.325 1_556 S
C342 C345 1.357 . S
C343 H311 0.928 . S
C343 C341 1.406 . S
C343 N344 1.261 . S
N344 Co295 2.214 . S
N344 C342 1.325 1_554 S
N344 C343 1.261 . S
C345 H315 0.931 . S
C345 C342 1.357 . S
C345 C346 1.312 1_556 S
C346 H317 0.930 1_554 S
C346 C341 1.261 . S
C346 C345 1.312 1_554 S
C347 O319 1.214 . S
C347 O327 1.234 1_554 S
C348 H320 0.929 . S
C348 C351 1.391 . S
C348 C353 1.391 . S
C349 H321 0.929 . S
C349 C350 1.390 . S
C349 N352 1.391 . S
C350 H322 0.930 . S
C350 C349 1.390 . S
C350 C351 1.392 . S
C351 H323 0.929 . S
C351 C348 1.391 . S
C351 C350 1.392 . S
N352 Co296 2.257 1_554 S
N352 C349 1.391 . S
N352 C353 1.388 . S
C353 H324 0.930 . S
C353 C348 1.391 . S
C353 N352 1.388 . S
Co354 O356 2.143 . S
Co354 O362 2.074 . S
Co354 O365 2.093 . S
Co354 O378 2.097 . S
Co354 N395 2.151 . S
Co354 N403 2.214 . S
Co355 O356 2.160 . S
Co355 O361 2.058 . S
Co355 O371 2.057 . S
Co355 O386 2.037 . S
Co355 N390 2.145 . S
Co355 N411 2.257 . S
O356 Co354 2.143 . S
O356 Co355 2.160 . S
C357 O358 1.278 . S
C357 O365 1.224 . S
O358 C357 1.278 . S
C359 O360 1.245 . S
C359 O371 1.232 . S
O360 C359 1.245 . S
O361 Co355 2.058 . S
O361 C387 1.269 . S
O362 Co354 2.074 . S
O362 C387 1.257 . S
H363 C388 0.930 . S
H364 C394 0.930 . S
O365 Co354 2.093 . S
O365 C357 1.224 . S
H366 C398 0.929 . S
H367 C400 0.930 . S
H368 C401 0.930 . S
H369 C399 0.929 . S
H370 C402 0.928 . S
O371 Co355 2.057 . S
O371 C359 1.232 . S
H372 C391 0.929 . S
H373 C392 0.929 . S
H374 C404 0.931 . S
H375 C396 0.929 . S
H376 C405 0.930 . S
H377 C397 0.931 . S
O378 Co354 2.097 . S
O378 C406 1.214 . S
H379 C407 0.929 . S
H380 C408 0.929 . S
H381 C409 0.930 . S
H382 C410 0.929 . S
H383 C412 0.930 . S
H384 C389 0.930 . S
H385 C393 0.930 . S
O386 Co355 2.037 . S
O386 C406 1.234 . S
C387 O361 1.269 . S
C387 O362 1.257 . S
C388 H363 0.930 . S
C388 C391 1.388 . S
C388 C393 1.418 . S
C389 H384 0.930 . S
C389 C392 1.404 . S
C389 C393 1.353 . S
N390 Co355 2.145 . S
N390 C391 1.397 . S
N390 C392 1.334 . S
C391 H372 0.929 . S
C391 C388 1.388 . S
C391 N390 1.397 . S
C392 H373 0.929 . S
C392 C389 1.404 . S
C392 N390 1.334 . S
C393 H385 0.930 . S
C393 C388 1.418 . S
C393 C389 1.353 . S
C394 H364 0.930 . S
C394 N395 1.330 . S
C394 C396 1.446 . S
N395 Co354 2.151 . S
N395 C394 1.330 . S
N395 C399 1.418 . S
C396 H375 0.929 . S
C396 C394 1.446 . S
C396 C397 1.332 . S
C397 H377 0.931 . S
C397 C396 1.332 . S
C397 C398 1.267 . S
C398 H366 0.929 . S
C398 C397 1.267 . S
C398 C399 1.251 . S
C399 H369 0.929 . S
C399 N395 1.418 . S
C399 C398 1.251 . S
C400 H367 0.930 . S
C400 C402 1.406 . S
C400 C405 1.261 . S
C401 H368 0.930 . S
C401 N403 1.325 . S
C401 C404 1.357 . S
C402 H370 0.928 . S
C402 C400 1.406 . S
C402 N403 1.261 . S
N403 Co354 2.214 . S
N403 C401 1.325 . S
N403 C402 1.261 . S
C404 H374 0.931 . S
C404 C401 1.357 . S
C404 C405 1.312 . S
C405 H376 0.930 . S
C405 C400 1.261 . S
C405 C404 1.312 . S
C406 O378 1.214 . S
C406 O386 1.234 . S
C407 H379 0.929 . S
C407 C410 1.391 . S
C407 C412 1.391 . S
C408 H380 0.929 . S
C408 C409 1.390 . S
C408 N411 1.391 . S
C409 H381 0.930 . S
C409 C408 1.390 . S
C409 C410 1.392 . S
C410 H382 0.929 . S
C410 C407 1.391 . S
C410 C409 1.392 . S
N411 Co355 2.257 . S
N411 C408 1.391 . S
N411 C412 1.388 . S
C412 H383 0.930 . S
C412 C407 1.391 . S
C412 N411 1.388 . S
Co413 O415 2.143 . S
Co413 O421 2.074 1_554 S
Co413 O424 2.093 . S
Co413 O437 2.097 . S
Co413 N454 2.151 . S
Co413 N462 2.214 . S
Co414 O415 2.160 1_556 S
Co414 O420 2.058 . S
Co414 O430 2.057 . S
Co414 O445 2.037 . S
Co414 N449 2.145 . S
Co414 N470 2.257 1_556 S
O415 Co413 2.143 . S
O415 Co414 2.160 1_554 S
C416 O417 1.278 . S
C416 O424 1.224 . S
O417 C416 1.278 . S
C418 O419 1.245 . S
C418 O430 1.232 1_554 S
O419 C418 1.245 . S
O420 Co414 2.058 . S
O420 C446 1.269 . S
O421 Co413 2.074 1_556 S
O421 C446 1.257 . S
H422 C447 0.930 . S
H423 C453 0.930 . S
O424 Co413 2.093 . S
O424 C416 1.224 . S
H425 C457 0.929 . S
H426 C459 0.930 . S
H427 C460 0.930 . S
H428 C458 0.929 . S
H429 C461 0.928 . S
O430 Co414 2.057 . S
O430 C418 1.232 1_556 S
H431 C450 0.929 . S
H432 C451 0.929 . S
H433 C463 0.931 . S
H434 C455 0.929 . S
H435 C464 0.930 1_556 S
H436 C456 0.931 . S
O437 Co413 2.097 . S
O437 C465 1.214 . S
H438 C466 0.929 . S
H439 C467 0.929 . S
H440 C468 0.930 . S
H441 C469 0.929 . S
H442 C471 0.930 . S
H443 C448 0.930 . S
H444 C452 0.930 . S
O445 Co414 2.037 . S
O445 C465 1.234 1_556 S
C446 O420 1.269 . S
C446 O421 1.257 . S
C447 H422 0.930 . S
C447 C450 1.388 . S
C447 C452 1.418 . S
C448 H443 0.930 . S
C448 C451 1.404 . S
C448 C452 1.353 . S
N449 Co414 2.145 . S
N449 C450 1.397 . S
N449 C451 1.334 . S
C450 H431 0.929 . S
C450 C447 1.388 . S
C450 N449 1.397 . S
C451 H432 0.929 . S
C451 C448 1.404 . S
C451 N449 1.334 . S
C452 H444 0.930 . S
C452 C447 1.418 . S
C452 C448 1.353 . S
C453 H423 0.930 . S
C453 N454 1.330 . S
C453 C455 1.446 . S
N454 Co413 2.151 . S
N454 C453 1.330 . S
N454 C458 1.418 1_554 S
C455 H434 0.929 . S
C455 C453 1.446 . S
C455 C456 1.332 . S
C456 H436 0.931 . S
C456 C455 1.332 . S
C456 C457 1.267 1_554 S
C457 H425 0.929 . S
C457 C456 1.267 1_556 S
C457 C458 1.251 . S
C458 H428 0.929 . S
C458 N454 1.418 1_556 S
C458 C457 1.251 . S
C459 H426 0.930 . S
C459 C461 1.406 . S
C459 C464 1.261 . S
C460 H427 0.930 . S
C460 N462 1.325 1_556 S
C460 C463 1.357 . S
C461 H429 0.928 . S
C461 C459 1.406 . S
C461 N462 1.261 . S
N462 Co413 2.214 . S
N462 C460 1.325 1_554 S
N462 C461 1.261 . S
C463 H433 0.931 . S
C463 C460 1.357 . S
C463 C464 1.312 1_556 S
C464 H435 0.930 1_554 S
C464 C459 1.261 . S
C464 C463 1.312 1_554 S
C465 O437 1.214 . S
C465 O445 1.234 1_554 S
C466 H438 0.929 . S
C466 C469 1.391 . S
C466 C471 1.391 . S
C467 H439 0.929 . S
C467 C468 1.390 . S
C467 N470 1.391 . S
C468 H440 0.930 . S
C468 C467 1.390 . S
C468 C469 1.392 . S
C469 H441 0.929 . S
C469 C466 1.391 . S
C469 C468 1.392 . S
N470 Co414 2.257 1_554 S
N470 C467 1.391 . S
N470 C471 1.388 . S
C471 H442 0.930 . S
C471 C466 1.391 . S
C471 N470 1.388 . S
H472 C484 0.930 . S
H473 C486 0.930 . S
H474 C487 0.930 . S
H475 C491 0.959 . S
H476 C491 0.959 . S
H477 C491 0.961 . S
H478 C492 0.960 . S
H479 C492 0.961 . S
H480 C492 0.959 . S
H481 C495 0.929 . S
H482 C496 0.931 . S
H483 C498 0.930 . S
C484 H472 0.930 . S
C484 C485 1.399 . S
C484 C489 1.399 . S
C485 C484 1.399 . S
C485 C486 1.376 . S
C486 H473 0.930 . S
C486 C485 1.376 . S
C486 C487 1.388 . S
C487 H474 0.930 . S
C487 C486 1.388 . S
C487 C488 1.390 . S
C488 C487 1.390 . S
C488 C489 1.394 . S
C488 C494 1.465 . S
C489 C484 1.399 . S
C489 C488 1.394 . S
C489 C490 1.516 . S
C490 C489 1.516 . S
C490 C491 1.502 . S
C490 C492 1.561 . S
C490 C493 1.526 . S
C491 H475 0.959 . S
C491 H476 0.959 . S
C491 H477 0.961 . S
C491 C490 1.502 . S
C492 H478 0.960 . S
C492 H479 0.961 . S
C492 H480 0.959 . S
C492 C490 1.561 . S
C493 C490 1.526 . S
C493 C494 1.396 . S
C493 C498 1.390 . S
C494 C488 1.465 . S
C494 C493 1.396 . S
C494 C495 1.399 . S
C495 H481 0.929 . S
C495 C494 1.399 . S
C495 C496 1.385 . S
C496 H482 0.931 . S
C496 C495 1.385 . S
C496 C497 1.389 . S
C497 C496 1.389 . S
C497 C498 1.387 . S
C498 H483 0.930 . S
C498 C493 1.390 . S
C498 C497 1.387 . S
H499 C511 0.930 . S
H500 C513 0.930 . S
H501 C514 0.930 . S
H502 C518 0.959 . S
H503 C518 0.959 . S
H504 C518 0.961 . S
H505 C519 0.960 . S
H506 C519 0.961 . S
H507 C519 0.959 . S
H508 C522 0.929 . S
H509 C523 0.931 . S
H510 C525 0.930 . S
C511 H499 0.930 . S
C511 C512 1.399 . S
C511 C516 1.399 . S
C512 C511 1.399 . S
C512 C513 1.376 . S
C513 H500 0.930 . S
C513 C512 1.376 . S
C513 C514 1.388 . S
C514 H501 0.930 . S
C514 C513 1.388 . S
C514 C515 1.390 . S
C515 C514 1.390 . S
C515 C516 1.394 . S
C515 C521 1.465 . S
C516 C511 1.399 . S
C516 C515 1.394 . S
C516 C517 1.516 . S
C517 C516 1.516 . S
C517 C518 1.502 . S
C517 C519 1.561 . S
C517 C520 1.526 . S
C518 H502 0.959 . S
C518 H503 0.959 . S
C518 H504 0.961 . S
C518 C517 1.502 . S
C519 H505 0.960 . S
C519 H506 0.961 . S
C519 H507 0.959 . S
C519 C517 1.561 . S
C520 C517 1.526 . S
C520 C521 1.396 . S
C520 C525 1.390 . S
C521 C515 1.465 . S
C521 C520 1.396 . S
C521 C522 1.399 . S
C522 H508 0.929 . S
C522 C521 1.399 . S
C522 C523 1.385 . S
C523 H509 0.931 . S
C523 C522 1.385 . S
C523 C524 1.389 . S
C524 C523 1.389 . S
C524 C525 1.387 . S
C525 H510 0.930 . S
C525 C520 1.390 . S
C525 C524 1.387 . S
H526 C538 0.930 . S
H527 C540 0.930 . S
H528 C541 0.930 . S
H529 C545 0.959 . S
H530 C545 0.959 . S
H531 C545 0.961 . S
H532 C546 0.960 . S
H533 C546 0.961 . S
H534 C546 0.959 . S
H535 C549 0.929 . S
H536 C550 0.931 . S
H537 C552 0.930 . S
C538 H526 0.930 . S
C538 C539 1.399 . S
C538 C543 1.399 . S
C539 C538 1.399 . S
C539 C540 1.376 . S
C540 H527 0.930 . S
C540 C539 1.376 . S
C540 C541 1.388 . S
C541 H528 0.930 . S
C541 C540 1.388 . S
C541 C542 1.390 . S
C542 C541 1.390 . S
C542 C543 1.394 . S
C542 C548 1.465 . S
C543 C538 1.399 . S
C543 C542 1.394 . S
C543 C544 1.516 . S
C544 C543 1.516 . S
C544 C545 1.502 . S
C544 C546 1.561 . S
C544 C547 1.526 . S
C545 H529 0.959 . S
C545 H530 0.959 . S
C545 H531 0.961 . S
C545 C544 1.502 . S
C546 H532 0.960 . S
C546 H533 0.961 . S
C546 H534 0.959 . S
C546 C544 1.561 . S
C547 C544 1.526 . S
C547 C548 1.396 . S
C547 C552 1.390 . S
C548 C542 1.465 . S
C548 C547 1.396 . S
C548 C549 1.399 . S
C549 H535 0.929 . S
C549 C548 1.399 . S
C549 C550 1.385 . S
C550 H536 0.931 . S
C550 C549 1.385 . S
C550 C551 1.389 . S
C551 C550 1.389 . S
C551 C552 1.387 . S
C552 H537 0.930 . S
C552 C547 1.390 . S
C552 C551 1.387 . S
H553 C565 0.930 . S
H554 C567 0.930 . S
H555 C568 0.930 . S
H556 C572 0.959 . S
H557 C572 0.959 . S
H558 C572 0.961 . S
H559 C573 0.960 . S
H560 C573 0.961 . S
H561 C573 0.959 . S
H562 C576 0.929 . S
H563 C577 0.931 . S
H564 C579 0.930 . S
C565 H553 0.930 . S
C565 C566 1.399 . S
C565 C570 1.399 . S
C566 C565 1.399 . S
C566 C567 1.376 . S
C567 H554 0.930 . S
C567 C566 1.376 . S
C567 C568 1.388 . S
C568 H555 0.930 . S
C568 C567 1.388 . S
C568 C569 1.390 . S
C569 C568 1.390 . S
C569 C570 1.394 . S
C569 C575 1.465 . S
C570 C565 1.399 . S
C570 C569 1.394 . S
C570 C571 1.516 . S
C571 C570 1.516 . S
C571 C572 1.502 . S
C571 C573 1.561 . S
C571 C574 1.526 . S
C572 H556 0.959 . S
C572 H557 0.959 . S
C572 H558 0.961 . S
C572 C571 1.502 . S
C573 H559 0.960 . S
C573 H560 0.961 . S
C573 H561 0.959 . S
C573 C571 1.561 . S
C574 C571 1.526 . S
C574 C575 1.396 . S
C574 C579 1.390 . S
C575 C569 1.465 . S
C575 C574 1.396 . S
C575 C576 1.399 . S
C576 H562 0.929 . S
C576 C575 1.399 . S
C576 C577 1.385 . S
C577 H563 0.931 . S
C577 C576 1.385 . S
C577 C578 1.389 . S
C578 C577 1.389 . S
C578 C579 1.387 . S
C579 H564 0.930 . S
C579 C574 1.390 . S
C579 C578 1.387 . S
H580 C592 0.930 . S
H581 C594 0.930 . S
H582 C595 0.930 . S
H583 C599 0.959 . S
H584 C599 0.959 . S
H585 C599 0.961 . S
H586 C600 0.960 . S
H587 C600 0.961 . S
H588 C600 0.959 . S
H589 C603 0.929 . S
H590 C604 0.931 . S
H591 C606 0.930 . S
C592 H580 0.930 . S
C592 C593 1.399 . S
C592 C597 1.399 . S
C593 C592 1.399 . S
C593 C594 1.376 . S
C594 H581 0.930 . S
C594 C593 1.376 . S
C594 C595 1.388 . S
C595 H582 0.930 . S
C595 C594 1.388 . S
C595 C596 1.390 . S
C596 C595 1.390 . S
C596 C597 1.394 . S
C596 C602 1.465 . S
C597 C592 1.399 . S
C597 C596 1.394 . S
C597 C598 1.516 . S
C598 C597 1.516 . S
C598 C599 1.502 . S
C598 C600 1.561 . S
C598 C601 1.526 . S
C599 H583 0.959 . S
C599 H584 0.959 . S
C599 H585 0.961 . S
C599 C598 1.502 . S
C600 H586 0.960 . S
C600 H587 0.961 . S
C600 H588 0.959 . S
C600 C598 1.561 . S
C601 C598 1.526 . S
C601 C602 1.396 . S
C601 C606 1.390 . S
C602 C596 1.465 . S
C602 C601 1.396 . S
C602 C603 1.399 . S
C603 H589 0.929 . S
C603 C602 1.399 . S
C603 C604 1.385 . S
C604 H590 0.931 . S
C604 C603 1.385 . S
C604 C605 1.389 . S
C605 C604 1.389 . S
C605 C606 1.387 . S
C606 H591 0.930 . S
C606 C601 1.390 . S
C606 C605 1.387 . S
H607 C619 0.930 . S
H608 C621 0.930 . S
H609 C622 0.930 . S
H610 C626 0.959 . S
H611 C626 0.959 . S
H612 C626 0.961 . S
H613 C627 0.960 . S
H614 C627 0.961 . S
H615 C627 0.959 . S
H616 C630 0.929 . S
H617 C631 0.931 . S
H618 C633 0.930 . S
C619 H607 0.930 . S
C619 C620 1.399 . S
C619 C624 1.399 . S
C620 C619 1.399 . S
C620 C621 1.376 . S
C621 H608 0.930 . S
C621 C620 1.376 . S
C621 C622 1.388 . S
C622 H609 0.930 . S
C622 C621 1.388 . S
C622 C623 1.390 . S
C623 C622 1.390 . S
C623 C624 1.394 . S
C623 C629 1.465 . S
C624 C619 1.399 . S
C624 C623 1.394 . S
C624 C625 1.516 . S
C625 C624 1.516 . S
C625 C626 1.502 . S
C625 C627 1.561 . S
C625 C628 1.526 . S
C626 H610 0.959 . S
C626 H611 0.959 . S
C626 H612 0.961 . S
C626 C625 1.502 . S
C627 H613 0.960 . S
C627 H614 0.961 . S
C627 H615 0.959 . S
C627 C625 1.561 . S
C628 C625 1.526 . S
C628 C629 1.396 . S
C628 C633 1.390 . S
C629 C623 1.465 . S
C629 C628 1.396 . S
C629 C630 1.399 . S
C630 H616 0.929 . S
C630 C629 1.399 . S
C630 C631 1.385 . S
C631 H617 0.931 . S
C631 C630 1.385 . S
C631 C632 1.389 . S
C632 C631 1.389 . S
C632 C633 1.387 . S
C633 H618 0.930 . S
C633 C628 1.390 . S
C633 C632 1.387 . S
H634 C646 0.930 . S
H635 C648 0.930 . S
H636 C649 0.930 . S
H637 C653 0.959 . S
H638 C653 0.959 . S
H639 C653 0.961 . S
H640 C654 0.960 . S
H641 C654 0.961 . S
H642 C654 0.959 . S
H643 C657 0.929 . S
H644 C658 0.931 . S
H645 C660 0.930 . S
C646 H634 0.930 . S
C646 C647 1.399 . S
C646 C651 1.399 . S
C647 C646 1.399 . S
C647 C648 1.376 . S
C648 H635 0.930 . S
C648 C647 1.376 . S
C648 C649 1.388 . S
C649 H636 0.930 . S
C649 C648 1.388 . S
C649 C650 1.390 . S
C650 C649 1.390 . S
C650 C651 1.394 . S
C650 C656 1.465 . S
C651 C646 1.399 . S
C651 C650 1.394 . S
C651 C652 1.516 . S
C652 C651 1.516 . S
C652 C653 1.502 . S
C652 C654 1.561 . S
C652 C655 1.526 . S
C653 H637 0.959 . S
C653 H638 0.959 . S
C653 H639 0.961 . S
C653 C652 1.502 . S
C654 H640 0.960 . S
C654 H641 0.961 . S
C654 H642 0.959 . S
C654 C652 1.561 . S
C655 C652 1.526 . S
C655 C656 1.396 . S
C655 C660 1.390 . S
C656 C650 1.465 . S
C656 C655 1.396 . S
C656 C657 1.399 . S
C657 H643 0.929 . S
C657 C656 1.399 . S
C657 C658 1.385 . S
C658 H644 0.931 . S
C658 C657 1.385 . S
C658 C659 1.389 . S
C659 C658 1.389 . S
C659 C660 1.387 . S
C660 H645 0.930 . S
C660 C655 1.390 . S
C660 C659 1.387 . S
H661 C673 0.930 . S
H662 C675 0.930 . S
H663 C676 0.930 . S
H664 C680 0.959 . S
H665 C680 0.959 . S
H666 C680 0.961 . S
H667 C681 0.960 . S
H668 C681 0.961 . S
H669 C681 0.959 . S
H670 C684 0.929 . S
H671 C685 0.931 . S
H672 C687 0.930 . S
C673 H661 0.930 . S
C673 C674 1.399 . S
C673 C678 1.399 . S
C674 C673 1.399 . S
C674 C675 1.376 . S
C675 H662 0.930 . S
C675 C674 1.376 . S
C675 C676 1.388 . S
C676 H663 0.930 . S
C676 C675 1.388 . S
C676 C677 1.390 . S
C677 C676 1.390 . S
C677 C678 1.394 . S
C677 C683 1.465 . S
C678 C673 1.399 . S
C678 C677 1.394 . S
C678 C679 1.516 . S
C679 C678 1.516 . S
C679 C680 1.502 . S
C679 C681 1.561 . S
C679 C682 1.526 . S
C680 H664 0.959 . S
C680 H665 0.959 . S
C680 H666 0.961 . S
C680 C679 1.502 . S
C681 H667 0.960 . S
C681 H668 0.961 . S
C681 H669 0.959 . S
C681 C679 1.561 . S
C682 C679 1.526 . S
C682 C683 1.396 . S
C682 C687 1.390 . S
C683 C677 1.465 . S
C683 C682 1.396 . S
C683 C684 1.399 . S
C684 H670 0.929 . S
C684 C683 1.399 . S
C684 C685 1.385 . S
C685 H671 0.931 . S
C685 C684 1.385 . S
C685 C686 1.389 . S
C686 C685 1.389 . S
C686 C687 1.387 . S
C687 H672 0.930 . S
C687 C682 1.390 . S
C687 C686 1.387 . S
H688 C700 0.930 . S
H689 C702 0.930 . S
H690 C703 0.930 . S
H691 C707 0.959 . S
H692 C707 0.959 . S
H693 C707 0.961 1_655 S
H694 C708 0.960 . S
H695 C708 0.961 1_455 S
H696 C708 0.959 . S
H697 C711 0.929 . S
H698 C712 0.931 . S
H699 C714 0.930 . S
C700 H688 0.930 . S
C700 C701 1.399 . S
C700 C705 1.399 . S
C701 C700 1.399 . S
C701 C702 1.376 1_554 S
C702 H689 0.930 . S
C702 C701 1.376 1_556 S
C702 C703 1.388 . S
C703 H690 0.930 . S
C703 C702 1.388 . S
C703 C704 1.390 1_556 S
C704 C703 1.390 1_554 S
C704 C705 1.394 . S
C704 C710 1.465 1_655 S
C705 C700 1.399 . S
C705 C704 1.394 . S
C705 C706 1.516 . S
C706 C705 1.516 . S
C706 C707 1.502 1_655 S
C706 C708 1.561 . S
C706 C709 1.526 1_655 S
C707 H691 0.959 . S
C707 H692 0.959 . S
C707 H693 0.961 1_455 S
C707 C706 1.502 1_455 S
C708 H694 0.960 . S
C708 H695 0.961 1_655 S
C708 H696 0.959 . S
C708 C706 1.561 . S
C709 C706 1.526 1_455 S
C709 C710 1.396 . S
C709 C714 1.390 . S
C710 C704 1.465 1_455 S
C710 C709 1.396 . S
C710 C711 1.399 1_554 S
C711 H697 0.929 . S
C711 C710 1.399 1_556 S
C711 C712 1.385 . S
C712 H698 0.931 . S
C712 C711 1.385 . S
C712 C713 1.389 1_556 S
C713 C712 1.389 1_554 S
C713 C714 1.387 . S
C714 H699 0.930 . S
C714 C709 1.390 . S
C714 C713 1.387 . S
H715 C727 0.930 . S
H716 C729 0.930 . S
H717 C730 0.930 . S
H718 C734 0.959 . S
H719 C734 0.959 . S
H720 C734 0.961 . S
H721 C735 0.960 . S
H722 C735 0.961 1_545 S
H723 C735 0.957 1_545 S
H724 C738 0.929 . S
H725 C739 0.931 . S
H726 C741 0.930 . S
C727 H715 0.930 . S
C727 C728 1.399 . S
C727 C732 1.399 . S
C728 C727 1.399 . S
C728 C729 1.376 . S
C729 H716 0.930 . S
C729 C728 1.376 . S
C729 C730 1.388 . S
C730 H717 0.930 . S
C730 C729 1.388 . S
C730 C731 1.390 . S
C731 C730 1.390 . S
C731 C732 1.394 . S
C731 C737 1.465 1_565 S
C732 C727 1.399 . S
C732 C731 1.394 . S
C732 C733 1.516 . S
C733 C732 1.516 . S
C733 C734 1.502 . S
C733 C735 1.561 . S
C733 C736 1.526 1_565 S
C734 H718 0.959 . S
C734 H719 0.959 . S
C734 H720 0.961 . S
C734 C733 1.502 . S
C735 H721 0.960 . S
C735 H722 0.961 1_565 S
C735 H723 0.957 1_565 S
C735 C733 1.561 . S
C736 C733 1.526 1_545 S
C736 C737 1.396 . S
C736 C741 1.390 . S
C737 C731 1.465 1_545 S
C737 C736 1.396 . S
C737 C738 1.399 . S
C738 H724 0.929 . S
C738 C737 1.399 . S
C738 C739 1.385 . S
C739 H725 0.931 . S
C739 C738 1.385 . S
C739 C740 1.389 . S
C740 C739 1.389 . S
C740 C741 1.387 . S
C741 H726 0.930 . S
C741 C736 1.390 . S
C741 C740 1.387 . S
H742 C754 0.930 . S
H743 C756 0.930 . S
H744 C757 0.930 . S
H745 C761 0.959 . S
H746 C761 0.959 1_655 S
H747 C761 0.961 . S
H748 C762 0.960 1_455 S
H749 C762 0.961 . S
H750 C762 0.959 . S
H751 C765 0.929 . S
H752 C766 0.931 . S
H753 C768 0.930 . S
C754 H742 0.930 . S
C754 C755 1.399 . S
C754 C759 1.399 . S
C755 C754 1.399 . S
C755 C756 1.376 . S
C756 H743 0.930 . S
C756 C755 1.376 . S
C756 C757 1.388 . S
C757 H744 0.930 . S
C757 C756 1.388 . S
C757 C758 1.390 . S
C758 C757 1.390 . S
C758 C759 1.394 . S
C758 C764 1.465 1_455 S
C759 C754 1.399 . S
C759 C758 1.394 . S
C759 C760 1.516 . S
C760 C759 1.516 . S
C760 C761 1.502 . S
C760 C762 1.561 1_455 S
C760 C763 1.526 1_455 S
C761 H745 0.959 . S
C761 H746 0.959 1_455 S
C761 H747 0.961 . S
C761 C760 1.502 . S
C762 H748 0.960 1_655 S
C762 H749 0.961 . S
C762 H750 0.959 . S
C762 C760 1.561 1_655 S
C763 C760 1.526 1_655 S
C763 C764 1.396 . S
C763 C768 1.390 . S
C764 C758 1.465 1_655 S
C764 C763 1.396 . S
C764 C765 1.399 . S
C765 H751 0.929 . S
C765 C764 1.399 . S
C765 C766 1.385 . S
C766 H752 0.931 . S
C766 C765 1.385 . S
C766 C767 1.389 . S
C767 C766 1.389 . S
C767 C768 1.387 . S
C768 H753 0.930 . S
C768 C763 1.390 . S
C768 C767 1.387 . S
H769 C781 0.930 . S
H770 C783 0.930 . S
H771 C784 0.930 . S
H772 C788 0.959 . S
H773 C788 0.959 . S
H774 C788 0.961 1_565 S
H775 C789 0.960 . S
H776 C789 0.961 1_545 S
H777 C789 0.959 . S
H778 C792 0.929 . S
H779 C793 0.931 . S
H780 C795 0.930 . S
C781 H769 0.930 . S
C781 C782 1.399 1_556 S
C781 C786 1.399 . S
C782 C781 1.399 1_554 S
C782 C783 1.376 . S
C783 H770 0.930 . S
C783 C782 1.376 . S
C783 C784 1.388 . S
C784 H771 0.930 . S
C784 C783 1.388 . S
C784 C785 1.390 . S
C785 C784 1.390 . S
C785 C786 1.394 1_554 S
C785 C791 1.465 1_565 S
C786 C781 1.399 . S
C786 C785 1.394 1_556 S
C786 C787 1.516 1_565 S
C787 C786 1.516 1_545 S
C787 C788 1.502 . S
C787 C789 1.561 1_545 S
C787 C790 1.526 . S
C788 H772 0.959 . S
C788 H773 0.959 . S
C788 H774 0.961 1_545 S
C788 C787 1.502 . S
C789 H775 0.960 . S
C789 H776 0.961 1_565 S
C789 H777 0.959 . S
C789 C787 1.561 1_565 S
C790 C787 1.526 . S
C790 C791 1.396 1_556 S
C790 C795 1.390 . S
C791 C785 1.465 1_545 S
C791 C790 1.396 1_554 S
C791 C792 1.399 . S
C792 H778 0.929 . S
C792 C791 1.399 . S
C792 C793 1.385 . S
C793 H779 0.931 . S
C793 C792 1.385 . S
C793 C794 1.389 . S
C794 C793 1.389 . S
C794 C795 1.387 1_554 S
C795 H780 0.930 . S
C795 C790 1.390 . S
C795 C794 1.387 1_556 S
H796 C808 0.930 1_556 S
H797 C810 0.930 . S
H798 C811 0.930 . S
H799 C815 0.959 . S
H800 C815 0.959 . S
H801 C815 0.961 . S
H802 C816 0.960 . S
H803 C816 0.961 . S
H804 C816 0.959 . S
H805 C819 0.929 . S
H806 C820 0.931 . S
H807 C822 0.930 . S
C808 H796 0.930 1_554 S
C808 C809 1.399 . S
C808 C813 1.399 . S
C809 C808 1.399 . S
C809 C810 1.376 . S
C810 H797 0.930 . S
C810 C809 1.376 . S
C810 C811 1.388 . S
C811 H798 0.930 . S
C811 C810 1.388 . S
C811 C812 1.390 . S
C812 C811 1.390 . S
C812 C813 1.394 . S
C812 C818 1.465 . S
C813 C808 1.399 . S
C813 C812 1.394 . S
C813 C814 1.516 1_554 S
C814 C813 1.516 1_556 S
C814 C815 1.502 . S
C814 C816 1.561 . S
C814 C817 1.536 . S
C815 H799 0.959 . S
C815 H800 0.959 . S
C815 H801 0.961 . S
C815 C814 1.502 . S
C816 H802 0.960 . S
C816 H803 0.961 . S
C816 H804 0.959 . S
C816 C814 1.561 . S
C817 C814 1.536 . S
C817 C818 1.377 1_556 S
C817 C822 1.396 . S
C818 C812 1.465 . S
C818 C817 1.377 1_554 S
C818 C819 1.399 . S
C819 H805 0.929 . S
C819 C818 1.399 . S
C819 C820 1.385 . S
C820 H806 0.931 . S
C820 C819 1.385 . S
C820 C821 1.389 . S
C821 C820 1.389 . S
C821 C822 1.387 1_554 S
C822 H807 0.930 . S
C822 C817 1.396 . S
C822 C821 1.387 1_556 S
H823 C835 0.930 . S
H824 C837 0.930 . S
H825 C838 0.930 . S
H826 C842 0.959 . S
H827 C842 0.959 . S
H828 C842 0.961 . S
H829 C843 0.960 . S
H830 C843 0.961 . S
H831 C843 0.959 . S
H832 C846 0.929 . S
H833 C847 0.931 . S
H834 C849 0.930 . S
C835 H823 0.930 . S
C835 C836 1.399 . S
C835 C840 1.399 . S
C836 C835 1.399 . S
C836 C837 1.376 . S
C837 H824 0.930 . S
C837 C836 1.376 . S
C837 C838 1.388 . S
C838 H825 0.930 . S
C838 C837 1.388 . S
C838 C839 1.390 . S
C839 C838 1.390 . S
C839 C840 1.394 . S
C839 C845 1.465 . S
C840 C835 1.399 . S
C840 C839 1.394 . S
C840 C841 1.516 . S
C841 C840 1.516 . S
C841 C842 1.502 . S
C841 C843 1.561 . S
C841 C844 1.526 . S
C842 H826 0.959 . S
C842 H827 0.959 . S
C842 H828 0.961 . S
C842 C841 1.502 . S
C843 H829 0.960 . S
C843 H830 0.961 . S
C843 H831 0.959 . S
C843 C841 1.561 . S
C844 C841 1.526 . S
C844 C845 1.396 . S
C844 C849 1.390 . S
C845 C839 1.465 . S
C845 C844 1.396 . S
C845 C846 1.399 . S
C846 H832 0.929 . S
C846 C845 1.399 . S
C846 C847 1.385 . S
C847 H833 0.931 . S
C847 C846 1.385 . S
C847 C848 1.389 . S
C848 C847 1.389 . S
C848 C849 1.387 . S
C849 H834 0.930 . S
C849 C844 1.390 . S
C849 C848 1.387 . S
H850 C862 0.930 1_556 S
H851 C864 0.930 . S
H852 C865 0.930 . S
H853 C869 0.959 1_554 S
H854 C869 0.959 . S
H855 C869 0.961 . S
H856 C870 0.960 . S
H857 C870 0.961 . S
H858 C870 0.959 . S
H859 C873 0.929 . S
H860 C874 0.931 . S
H861 C876 0.930 . S
C862 H850 0.930 1_554 S
C862 C863 1.399 . S
C862 C867 1.399 . S
C863 C862 1.399 . S
C863 C864 1.376 . S
C864 H851 0.930 . S
C864 C863 1.376 . S
C864 C865 1.388 . S
C865 H852 0.930 . S
C865 C864 1.388 . S
C865 C866 1.390 . S
C866 C865 1.390 . S
C866 C867 1.394 . S
C866 C872 1.465 . S
C867 C862 1.399 . S
C867 C866 1.394 . S
C867 C868 1.516 1_554 S
C868 C867 1.516 1_556 S
C868 C869 1.502 . S
C868 C870 1.561 . S
C868 C871 1.526 1_556 S
C869 H853 0.959 1_556 S
C869 H854 0.959 . S
C869 H855 0.961 . S
C869 C868 1.502 . S
C870 H856 0.960 . S
C870 H857 0.961 . S
C870 H858 0.959 . S
C870 C868 1.561 . S
C871 C868 1.526 1_554 S
C871 C872 1.396 . S
C871 C876 1.390 1_554 S
C872 C866 1.465 . S
C872 C871 1.396 . S
C872 C873 1.399 . S
C873 H859 0.929 . S
C873 C872 1.399 . S
C873 C874 1.385 . S
C874 H860 0.931 . S
C874 C873 1.385 . S
C874 C875 1.389 . S
C875 C874 1.389 . S
C875 C876 1.387 1_554 S
C876 H861 0.930 . S
C876 C871 1.390 1_556 S
C876 C875 1.387 1_556 S
H877 C889 0.930 . S
H878 C891 0.930 . S
H879 C892 0.930 . S
H880 C896 0.959 . S
H881 C896 0.959 . S
H882 C896 0.961 . S
H883 C897 0.960 . S
H884 C897 0.961 . S
H885 C897 0.959 . S
H886 C900 0.929 . S
H887 C901 0.931 . S
H888 C903 0.930 . S
C889 H877 0.930 . S
C889 C890 1.399 . S
C889 C894 1.399 . S
C890 C889 1.399 . S
C890 C891 1.376 . S
C891 H878 0.930 . S
C891 C890 1.376 . S
C891 C892 1.388 . S
C892 H879 0.930 . S
C892 C891 1.388 . S
C892 C893 1.390 . S
C893 C892 1.390 . S
C893 C894 1.394 . S
C893 C899 1.465 . S
C894 C889 1.399 . S
C894 C893 1.394 . S
C894 C895 1.516 . S
C895 C894 1.516 . S
C895 C896 1.502 . S
C895 C897 1.561 . S
C895 C898 1.526 . S
C896 H880 0.959 . S
C896 H881 0.959 . S
C896 H882 0.961 . S
C896 C895 1.502 . S
C897 H883 0.960 . S
C897 H884 0.961 . S
C897 H885 0.959 . S
C897 C895 1.561 . S
C898 C895 1.526 . S
C898 C899 1.396 . S
C898 C903 1.390 . S
C899 C893 1.465 . S
C899 C898 1.396 . S
C899 C900 1.399 . S
C900 H886 0.929 . S
C900 C899 1.399 . S
C900 C901 1.385 . S
C901 H887 0.931 . S
C901 C900 1.385 . S
C901 C902 1.389 . S
C902 C901 1.389 . S
C902 C903 1.387 . S
C903 H888 0.930 . S
C903 C898 1.390 . S
C903 C902 1.387 . S
C485 C33 1.509 . S
C497 C269 1.482 . S
C512 C92 1.494 . S
C524 C328 1.512 . S
C539 C387 1.482 . S
C551 C151 1.502 . S
C566 C446 1.502 . S
C578 C210 1.507 . S
C593 C357 1.226 . S
C605 C121 1.216 . S
C620 C416 1.267 . S
C632 C180 1.259 . S
C647 C3 1.223 . S
C659 C239 1.214 . S
C674 C62 1.212 . S
C686 C298 1.221 . S
C701 C170 1.393 . S
C713 C52 1.399 . S
C728 C229 1.423 . S
C740 C111 1.403 . S
C755 C288 1.426 . S
C767 C406 1.413 . S
C782 C465 1.392 . S
C794 C347 1.406 . S
C809 C5 1.440 . S
C821 C300 1.432 . S
C836 C359 1.436 . S
C848 C64 1.444 . S
C863 C123 1.431 . S
C875 C418 1.427 . S
C890 C182 1.430 . S
C902 C241 1.427 . S
