# Generated by pormake.
# Topology wjd, (6)-cn, num edge types: 1
# Building blocks:
#     Node 0, Type 0, BuildingBlock: FUNLAD_clean_sbu_0, # of connection points: 6
#     Node 1, Type 0, BuildingBlock: FUNLAD_clean_sbu_0, # of connection points: 6
#     Node 2, Type 0, BuildingBlock: FUNLAD_clean_sbu_0, # of connection points: 6
#     Node 3, Type 0, BuildingBlock: FUNLAD_clean_sbu_0, # of connection points: 6
#     Node 4, Type 0, BuildingBlock: FUNLAD_clean_sbu_0, # of connection points: 6
#     Node 5, Type 0, BuildingBlock: FUNLAD_clean_sbu_0, # of connection points: 6
#     Node 6, Type 0, BuildingBlock: FUNLAD_clean_sbu_0, # of connection points: 6
#     Node 7, Type 0, BuildingBlock: FUNLAD_clean_sbu_0, # of connection points: 6
#     Node 8, Type 0, BuildingBlock: FUNLAD_clean_sbu_0, # of connection points: 6
#     Node 9, Type 0, BuildingBlock: FUNLAD_clean_sbu_0, # of connection points: 6
#     Node 10, Type 0, BuildingBlock: FUNLAD_clean_sbu_0, # of connection points: 6
#     Node 11, Type 0, BuildingBlock: FUNLAD_clean_sbu_0, # of connection points: 6
#     Edge 12, Type (0, 0), BuildingBlock: ZUJKAS_clean_linker_0, # of connection points: 2
#     Edge 13, Type (0, 0), BuildingBlock: ZUJKAS_clean_linker_0, # of connection points: 2
#     Edge 14, Type (0, 0), BuildingBlock: ZUJKAS_clean_linker_0, # of connection points: 2
#     Edge 15, Type (0, 0), BuildingBlock: ZUJKAS_clean_linker_0, # of connection points: 2
#     Edge 16, Type (0, 0), BuildingBlock: ZUJKAS_clean_linker_0, # of connection points: 2
#     Edge 17, Type (0, 0), BuildingBlock: ZUJKAS_clean_linker_0, # of connection points: 2
#     Edge 18, Type (0, 0), BuildingBlock: ZUJKAS_clean_linker_0, # of connection points: 2
#     Edge 19, Type (0, 0), BuildingBlock: ZUJKAS_clean_linker_0, # of connection points: 2
#     Edge 20, Type (0, 0), BuildingBlock: ZUJKAS_clean_linker_0, # of connection points: 2
#     Edge 21, Type (0, 0), BuildingBlock: ZUJKAS_clean_linker_0, # of connection points: 2
#     Edge 22, Type (0, 0), BuildingBlock: ZUJKAS_clean_linker_0, # of connection points: 2
#     Edge 23, Type (0, 0), BuildingBlock: ZUJKAS_clean_linker_0, # of connection points: 2
#     Edge 24, Type (0, 0), BuildingBlock: ZUJKAS_clean_linker_0, # of connection points: 2
#     Edge 25, Type (0, 0), BuildingBlock: ZUJKAS_clean_linker_0, # of connection points: 2
#     Edge 26, Type (0, 0), BuildingBlock: ZUJKAS_clean_linker_0, # of connection points: 2
#     Edge 27, Type (0, 0), BuildingBlock: ZUJKAS_clean_linker_0, # of connection points: 2
#     Edge 28, Type (0, 0), BuildingBlock: ZUJKAS_clean_linker_0, # of connection points: 2
#     Edge 29, Type (0, 0), BuildingBlock: ZUJKAS_clean_linker_0, # of connection points: 2
#     Edge 30, Type (0, 0), BuildingBlock: ZUJKAS_clean_linker_0, # of connection points: 2
#     Edge 31, Type (0, 0), BuildingBlock: ZUJKAS_clean_linker_0, # of connection points: 2
#     Edge 32, Type (0, 0), BuildingBlock: ZUJKAS_clean_linker_0, # of connection points: 2
#     Edge 33, Type (0, 0), BuildingBlock: ZUJKAS_clean_linker_0, # of connection points: 2
#     Edge 34, Type (0, 0), BuildingBlock: ZUJKAS_clean_linker_0, # of connection points: 2
#     Edge 35, Type (0, 0), BuildingBlock: ZUJKAS_clean_linker_0, # of connection points: 2
#     Edge 36, Type (0, 0), BuildingBlock: ZUJKAS_clean_linker_0, # of connection points: 2
#     Edge 37, Type (0, 0), BuildingBlock: ZUJKAS_clean_linker_0, # of connection points: 2
#     Edge 38, Type (0, 0), BuildingBlock: ZUJKAS_clean_linker_0, # of connection points: 2
#     Edge 39, Type (0, 0), BuildingBlock: ZUJKAS_clean_linker_0, # of connection points: 2
#     Edge 40, Type (0, 0), BuildingBlock: ZUJKAS_clean_linker_0, # of connection points: 2
#     Edge 41, Type (0, 0), BuildingBlock: ZUJKAS_clean_linker_0, # of connection points: 2
#     Edge 42, Type (0, 0), BuildingBlock: ZUJKAS_clean_linker_0, # of connection points: 2
#     Edge 43, Type (0, 0), BuildingBlock: ZUJKAS_clean_linker_0, # of connection points: 2
#     Edge 44, Type (0, 0), BuildingBlock: ZUJKAS_clean_linker_0, # of connection points: 2
#     Edge 45, Type (0, 0), BuildingBlock: ZUJKAS_clean_linker_0, # of connection points: 2
#     Edge 46, Type (0, 0), BuildingBlock: ZUJKAS_clean_linker_0, # of connection points: 2
#     Edge 47, Type (0, 0), BuildingBlock: ZUJKAS_clean_linker_0, # of connection points: 2
# Relax obj value: 0.188
# Max RMSD: 0.215
# Mean RMSD: 0.215
data_MOF--net-wjd--node1-FUNLAD_clean_sbu_0--edge1-ZUJKAS_clean_linker_0
_symmetry_space_group_name_H-M    P1
_symmetry_Int_Tables_number       1
_symmetry_cell_setting            triclinic
loop_
_symmetry_equiv_pos_as_xyz
'x, y, z'
_cell_length_a     35.960374
_cell_length_b     35.958448
_cell_length_c     104.36473
_cell_angle_alpha  90.013413
_cell_angle_beta   89.994327
_cell_angle_gamma 119.99408
loop_
_atom_site_label
_atom_site_type_symbol
_atom_site_fract_x
_atom_site_fract_y
_atom_site_fract_z
_atom_type_partial_charge
C0 C 0.26612 0.97869 0.1311 0.0
N1 N 0.32417 0.05694 0.09928 0.0
C2 C 0.32296 0.02185 0.09393 0.0
C3 C 0.31918 0.01573 0.0807 0.0
C4 C 0.31663 0.04601 0.07282 0.0
C5 C 0.31801 0.08204 0.07858 0.0
C6 C 0.32185 0.08693 0.09191 0.0
Zn7 Zn 0.32843 0.06217 0.11883 0.0
C8 C 0.26945 0.08809 0.13012 0.0
N9 N 0.33603 0.06799 0.15969 0.0
C10 C 0.33689 0.03609 0.16646 0.0
C11 C 0.33706 0.10205 0.16573 0.0
C12 C 0.33867 0.10475 0.17908 0.0
C13 C 0.33919 0.07208 0.18632 0.0
C14 C 0.33848 0.03749 0.17982 0.0
Zn15 Zn 0.3322 0.06408 0.14014 0.0
O16 O 0.28004 -0.0028 0.12038 0.0
C17 C 0.39452 0.04263 0.1289 0.0
O18 O 0.28345 -0.00092 0.14135 0.0
H19 H 0.33624 0.12703 0.16018 0.0
H20 H 0.3246 -0.00175 0.09995 0.0
H21 H 0.33617 0.00937 0.16147 0.0
O22 O 0.37722 0.04566 0.11863 0.0
O23 O 0.3806 0.04733 0.13961 0.0
H24 H 0.32289 0.1146 0.09636 0.0
O25 O 0.37965 0.12944 0.13863 0.0
O26 O 0.37563 0.1276 0.11762 0.0
O27 O 0.28496 0.08233 0.14037 0.0
O28 O 0.28104 0.0806 0.11937 0.0
C29 C 0.39129 0.14864 0.12791 0.0
H30 H 0.31752 0.98713 0.07672 0.0
H31 H 0.31654 0.10639 0.07286 0.0
H32 H 0.33865 0.13173 0.18369 0.0
H33 H 0.33942 0.01189 0.18501 0.0
C34 C 0.76065 0.60937 0.38415 0.0
N35 N 0.72761 0.65572 0.35172 0.0
C36 C 0.76109 0.65565 0.34566 0.0
C37 C 0.76176 0.65328 0.33231 0.0
C38 C 0.72764 0.65093 0.3251 0.0
C39 C 0.69328 0.65056 0.33163 0.0
C40 C 0.69394 0.65302 0.34499 0.0
Zn41 Zn 0.7287 0.66181 0.37124 0.0
C42 C 0.64784 0.59846 0.38333 0.0
N43 N 0.73314 0.67675 0.41196 0.0
C44 C 0.76802 0.68501 0.41916 0.0
C45 C 0.69723 0.67329 0.41746 0.0
C46 C 0.69527 0.67788 0.43067 0.0
C47 C 0.73072 0.68651 0.43835 0.0
C48 C 0.76757 0.69025 0.43244 0.0
Zn49 Zn 0.73288 0.67012 0.39244 0.0
O50 O 0.74921 0.61618 0.37328 0.0
C51 C 0.81496 0.73018 0.38029 0.0
O52 O 0.75704 0.62771 0.39409 0.0
H53 H 0.67001 0.66721 0.41158 0.0
H54 H 0.78754 0.65779 0.35118 0.0
H55 H 0.79626 0.68765 0.4146 0.0
O56 O 0.7934 0.71076 0.37039 0.0
O57 O 0.79682 0.72102 0.3912 0.0
H58 H 0.66774 0.6533 0.34999 0.0
O59 O 0.71101 0.71435 0.39046 0.0
O60 O 0.70991 0.70874 0.36954 0.0
O61 O 0.66915 0.61743 0.39331 0.0
O62 O 0.66457 0.61201 0.37238 0.0
C63 C 0.70571 0.72652 0.37953 0.0
H64 H 0.78863 0.65309 0.32769 0.0
H65 H 0.66658 0.64935 0.32647 0.0
H66 H 0.66648 0.6754 0.4348 0.0
H67 H 0.7955 0.69663 0.43804 0.0
C68 C 0.0161 0.28623 0.13235 0.0
N69 N 0.9393 0.26488 0.10015 0.0
C70 C 0.97402 0.29939 0.0949 0.0
C71 C 0.98158 0.30121 0.08175 0.0
C72 C 0.95335 0.26706 0.07385 0.0
C73 C 0.91734 0.23203 0.07949 0.0
C74 C 0.91091 0.23158 0.09273 0.0
Zn75 Zn 0.93303 0.26427 0.11967 0.0
C76 C 0.9075 0.17949 0.13116 0.0
N77 N 0.92535 0.2662 0.16053 0.0
C78 C 0.95714 0.29956 0.16714 0.0
C79 C 0.89152 0.23341 0.16671 0.0
C80 C 0.88896 0.23323 0.18008 0.0
C81 C 0.92157 0.26708 0.18716 0.0
C82 C 0.95588 0.30064 0.1805 0.0
Zn83 Zn 0.92975 0.26564 0.14098 0.0
O84 O -0.00182 0.28165 0.12153 0.0
C85 C 0.95065 0.34927 0.12956 0.0
O86 O 0.995 0.28284 0.14247 0.0
H87 H 0.86664 0.20713 0.16127 0.0
H88 H -0.00374 0.32553 0.10094 0.0
H89 H 0.98368 0.32538 0.16205 0.0
O90 O 0.94852 0.32932 0.11929 0.0
O91 O 0.94564 0.33047 0.14025 0.0
H92 H 0.88357 0.20439 0.09711 0.0
O93 O 0.86399 0.24653 0.13913 0.0
O94 O 0.86752 0.24515 0.11813 0.0
O95 O 0.91242 0.20053 0.14141 0.0
O96 O 0.91543 0.19868 0.12042 0.0
C97 C 0.84556 0.23896 0.12826 0.0
H98 H 0.00929 0.32925 0.07783 0.0
H99 H 0.8949 0.20483 0.07379 0.0
H100 H 0.86215 0.20647 0.18482 0.0
H101 H 0.9814 0.32769 0.18555 0.0
C102 C 0.38776 0.14681 0.38351 0.0
N103 N 0.33424 0.06952 0.35087 0.0
C104 C 0.33504 0.10356 0.3449 0.0
C105 C 0.337 0.10659 0.33154 0.0
C106 C 0.33806 0.07425 0.32425 0.0
C107 C 0.33768 0.03979 0.3307 0.0
C108 C 0.33573 0.03804 0.34405 0.0
Zn109 Zn 0.3296 0.06399 0.3704 0.0
C110 C 0.39155 0.041 0.38123 0.0
N111 N 0.31989 0.05134 0.41115 0.0
C112 C 0.31735 0.08062 0.41882 0.0
C113 C 0.31841 0.0157 0.41616 0.0
C114 C 0.31411 0.00829 0.42933 0.0
C115 C 0.31138 0.03784 0.43751 0.0
C116 C 0.31304 0.07445 0.43209 0.0
Zn117 Zn 0.325 0.05863 0.39166 0.0
O118 O 0.37656 0.12936 0.37253 0.0
C119 C 0.26604 0.08569 0.38083 0.0
O120 O 0.37195 0.12403 0.39351 0.0
H121 H 0.32026 0.99269 0.40992 0.0
H122 H 0.33374 0.12819 0.3505 0.0
H123 H 0.3186 0.10874 0.41463 0.0
O124 O 0.28208 0.08178 0.37041 0.0
O125 O 0.27734 0.07665 0.39139 0.0
H126 H 0.33519 0.01132 0.34898 0.0
O127 O 0.27697 0.99374 0.38949 0.0
O128 O 0.2815 -0.00092 0.36858 0.0
O129 O 0.37396 0.04241 0.39163 0.0
O130 O 0.37807 0.04752 0.3707 0.0
C131 C 0.26385 0.97692 0.37853 0.0
H132 H 0.3368 0.13352 0.32696 0.0
H133 H 0.33912 0.01449 0.3255 0.0
H134 H 0.31226 0.97928 0.43304 0.0
H135 H 0.31146 0.09829 0.43805 0.0
C136 C 0.70736 0.72887 0.13224 0.0
N137 N 0.727 0.67183 0.10006 0.0
C138 C 0.69264 0.6728 0.09498 0.0
C139 C 0.69002 0.67783 0.08183 0.0
C140 C 0.72306 0.68197 0.07374 0.0
C141 C 0.75788 0.68014 0.07918 0.0
C142 C 0.75927 0.67513 0.09245 0.0
Zn143 Zn 0.7289 0.66735 0.11959 0.0
C144 C 0.81432 0.72738 0.1305 0.0
N145 N 0.72942 0.65996 0.16048 0.0
C146 C 0.69613 0.65807 0.16722 0.0
C147 C 0.76274 0.65956 0.16653 0.0
C148 C 0.76345 0.65736 0.1799 0.0
C149 C 0.7295 0.65542 0.1871 0.0
C150 C 0.69551 0.65575 0.18057 0.0
Zn151 Zn 0.7288 0.66389 0.14091 0.0
O152 O 0.71144 0.71516 0.12141 0.0
C153 C 0.64456 0.6006 0.13 0.0
O154 O 0.71158 0.71176 0.14237 0.0
H155 H 0.78884 0.66098 0.16099 0.0
H156 H 0.66727 0.67004 0.10117 0.0
H157 H 0.67004 0.65858 0.16223 0.0
O158 O 0.66395 0.61782 0.11961 0.0
O159 O 0.66394 0.61494 0.14058 0.0
H160 H 0.78635 0.67441 0.09669 0.0
O161 O 0.74755 0.61717 0.13916 0.0
O162 O 0.74814 0.62079 0.11813 0.0
O163 O 0.79413 0.7118 0.14091 0.0
O164 O 0.79429 0.71542 0.1199 0.0
C165 C 0.75458 0.60554 0.12835 0.0
H166 H 0.66221 0.67829 0.07804 0.0
H167 H 0.78418 0.68347 0.0733 0.0
H168 H 0.79008 0.65671 0.18452 0.0
H169 H 0.66898 0.65492 0.18573 0.0
C170 C 0.84203 0.23929 0.38351 0.0
N171 N 0.92357 0.26614 0.35181 0.0
C172 C 0.88942 0.23381 0.3456 0.0
C173 C 0.88709 0.23361 0.33223 0.0
C174 C 0.92024 0.26699 0.32517 0.0
C175 C 0.95492 0.3001 0.33185 0.0
C176 C 0.95594 0.29904 0.34522 0.0
Zn177 Zn 0.92696 0.26506 0.37138 0.0
C178 C 0.94832 0.34796 0.38314 0.0
N179 N 0.93268 0.26146 0.41225 0.0
C180 C 0.90284 0.22907 0.41963 0.0
C181 C 0.96776 0.29538 0.41759 0.0
C182 C 0.97395 0.29774 0.43081 0.0
C183 C 0.94378 0.26493 0.43871 0.0
C184 C 0.90782 0.23014 0.43296 0.0
Zn185 Zn 0.92769 0.26128 0.39268 0.0
O186 O 0.86178 0.24799 0.37285 0.0
C187 C 0.90167 0.17715 0.38097 0.0
O188 O 0.86243 0.24313 0.39383 0.0
H189 H 0.99128 0.32069 0.41157 0.0
H190 H 0.86406 0.20789 0.35101 0.0
H191 H 0.87519 0.20239 0.41519 0.0
O192 O 0.90762 0.19909 0.37084 0.0
O193 O 0.90933 0.19562 0.39183 0.0
H194 H 0.98273 0.32448 0.35034 0.0
O195 O 0.99274 0.27797 0.39119 0.0
O196 O 0.99167 0.28043 0.37022 0.0
O197 O 0.94386 0.32629 0.39321 0.0
O198 O 0.94488 0.33077 0.37224 0.0
C199 C 0.01163 0.28296 0.38052 0.0
H200 H 0.85999 0.20717 0.32748 0.0
H201 H 0.98089 0.32678 0.32682 0.0
H202 H 0.00252 0.32478 0.43477 0.0
H203 H 0.88359 0.20429 0.4387 0.0
C204 C 0.14478 0.39254 0.62784 0.0
N205 N 0.06778 0.33931 0.66051 0.0
C206 C 0.10218 0.34087 0.66648 0.0
C207 C 0.10554 0.34352 0.67984 0.0
C208 C 0.07326 0.34468 0.68712 0.0
C209 C 0.03833 0.34338 0.68067 0.0
C210 C 0.03621 0.34065 0.66733 0.0
Zn211 Zn 0.06213 0.33377 0.641 0.0
C212 C 0.03802 0.39437 0.62973 0.0
N213 N 0.04978 0.32207 0.60024 0.0
C214 C 0.0792 0.31974 0.59258 0.0
C215 C 0.01343 0.31909 0.59524 0.0
C216 C 0.00518 0.31292 0.58214 0.0
C217 C 0.0346 0.30982 0.574 0.0
C218 C 0.07227 0.31372 0.57936 0.0
Zn219 Zn 0.05726 0.3283 0.61972 0.0
O220 O 0.12708 0.38149 0.63879 0.0
C221 C 0.08567 0.27096 0.63091 0.0
O222 O 0.12238 0.37606 0.61781 0.0
H223 H 0.9905 0.32118 0.60146 0.0
H224 H 0.12698 0.33986 0.66089 0.0
H225 H 0.10783 0.32206 0.59675 0.0
O226 O 0.0812 0.28707 0.64124 0.0
O227 O 0.07647 0.28162 0.62027 0.0
H228 H 0.00906 0.3392 0.6624 0.0
O229 O 0.99277 0.27942 0.62199 0.0
O230 O -0.00247 0.2847 0.6429 0.0
O231 O 0.03984 0.37633 0.61947 0.0
O232 O 0.04458 0.38163 0.6404 0.0
C233 C 0.97583 0.26631 0.63293 0.0
H234 H 0.13327 0.34494 0.6844 0.0
H235 H 0.01242 0.3436 0.68589 0.0
H236 H 0.9761 0.31085 0.5784 0.0
H237 H 0.09568 0.31127 0.57343 0.0
C238 C 0.28479 0.0172 0.87886 0.0
N239 N 0.26566 0.94184 0.91128 0.0
C240 C 0.29929 0.97778 0.91636 0.0
C241 C 0.30131 0.98571 0.92948 0.0
C242 C 0.26842 0.95642 0.93754 0.0
C243 C 0.2344 0.91912 0.9321 0.0
C244 C 0.23359 0.91248 0.91886 0.0
Zn245 Zn 0.26443 0.93497 0.89178 0.0
C246 C 0.17905 0.90774 0.88057 0.0
N247 N 0.26524 0.92596 0.85096 0.0
C248 C 0.2979 0.95772 0.84413 0.0
C249 C 0.23234 0.89159 0.845 0.0
C250 C 0.23126 0.88846 0.83164 0.0
C251 C 0.26432 0.92106 0.82434 0.0
C252 C 0.29808 0.95591 0.83077 0.0
Zn253 Zn 0.26548 0.93113 0.87049 0.0
O254 O 0.28056 -0.0003 0.88973 0.0
C255 C 0.3498 0.95417 0.88174 0.0
O256 O 0.28145 0.99587 0.8688 0.0
H257 H 0.20662 0.86673 0.8506 0.0
H258 H 0.32454 0.00067 0.9102 0.0
H259 H 0.32381 0.9847 0.84906 0.0
O260 O 0.32975 0.95191 0.892 0.0
O261 O 0.33079 0.94832 0.87104 0.0
H262 H 0.20709 0.88418 0.91462 0.0
O263 O 0.24804 0.8661 0.87248 0.0
O264 O 0.24671 0.86968 0.89348 0.0
O265 O 0.19979 0.91248 0.87027 0.0
O266 O 0.19866 0.91627 0.89125 0.0
C267 C 0.24115 0.84784 0.88335 0.0
H268 H 0.32851 0.01449 0.93329 0.0
H269 H 0.20825 0.89583 0.93796 0.0
H270 H 0.20437 0.86125 0.82709 0.0
H271 H 0.32455 0.98144 0.82555 0.0
C272 C 0.60669 0.76045 0.62843 0.0
N273 N 0.65809 0.72959 0.66014 0.0
C274 C 0.65871 0.76334 0.66625 0.0
C275 C 0.65708 0.76425 0.67961 0.0
C276 C 0.65487 0.73014 0.68679 0.0
C277 C 0.65396 0.69557 0.68021 0.0
C278 C 0.65557 0.69594 0.66684 0.0
Zn279 Zn 0.66207 0.72992 0.64056 0.0
C280 C 0.59673 0.64811 0.62904 0.0
N281 N 0.6708 0.73209 0.59966 0.0
C282 C 0.67826 0.76666 0.59243 0.0
C283 C 0.66759 0.69626 0.59418 0.0
C284 C 0.67187 0.69414 0.58097 0.0
C285 C 0.67999 0.72939 0.57326 0.0
C286 C 0.68321 0.76606 0.57914 0.0
Zn287 Zn 0.66617 0.73256 0.61924 0.0
O288 O 0.61721 0.75134 0.63911 0.0
C289 C 0.72848 0.81563 0.63086 0.0
O290 O 0.62187 0.75462 0.61811 0.0
H291 H 0.66224 0.66933 0.60008 0.0
H292 H 0.66087 0.78985 0.66076 0.0
H293 H 0.68073 0.79484 0.59698 0.0
O294 O 0.71177 0.79433 0.64102 0.0
O295 O 0.71638 0.79717 0.62003 0.0
H296 H 0.655 0.66938 0.6618 0.0
O297 O 0.71157 0.71199 0.62069 0.0
O298 O 0.70831 0.71016 0.64166 0.0
O299 O 0.61472 0.66855 0.61885 0.0
O300 O 0.61124 0.66582 0.63983 0.0
C301 C 0.72479 0.70612 0.63136 0.0
H302 H 0.6584 0.79179 0.68427 0.0
H303 H 0.6517 0.66835 0.68534 0.0
H304 H 0.66982 0.66551 0.57686 0.0
H305 H 0.68923 0.79383 0.57351 0.0
C306 C 0.97643 0.26769 0.87996 0.0
N307 N 0.05422 0.32126 0.91207 0.0
C308 C 0.02042 0.32257 0.91744 0.0
C309 C 0.01303 0.31683 0.9306 0.0
C310 C 0.04045 0.30931 0.93838 0.0
C311 C 0.07552 0.30871 0.93261 0.0
C312 C 0.08184 0.3148 0.91937 0.0
Zn313 Zn 0.06035 0.32692 0.89254 0.0
C314 C 0.08312 0.26583 0.88091 0.0
N315 N 0.06785 0.3366 0.8517 0.0
C316 C 0.0367 0.33898 0.84497 0.0
C317 C 0.10158 0.33704 0.84564 0.0
C318 C 0.10476 0.33974 0.83229 0.0
C319 C 0.07294 0.34202 0.82509 0.0
C320 C 0.03862 0.34172 0.83162 0.0
Zn321 Zn 0.06325 0.33157 0.87124 0.0
O322 O 0.9947 0.28098 0.89074 0.0
C323 C 0.04474 0.39575 0.88275 0.0
O324 O -0.00241 0.2845 0.86977 0.0
H325 H 0.12606 0.3352 0.85116 0.0
H326 H -0.00124 0.32766 0.91149 0.0
H327 H 0.0101 0.33847 0.84997 0.0
O328 O 0.04699 0.37793 0.893 0.0
O329 O 0.04873 0.38141 0.87202 0.0
H330 H 0.10844 0.31375 0.9149 0.0
O331 O 0.12941 0.37733 0.87307 0.0
O332 O 0.12634 0.37169 0.89405 0.0
O333 O 0.07906 0.28281 0.87073 0.0
O334 O 0.07569 0.27725 0.8917 0.0
C335 C 0.14815 0.38752 0.8839 0.0
H336 H 0.98609 0.3184 0.93462 0.0
H337 H 0.09729 0.30266 0.93821 0.0
H338 H 0.13207 0.34042 0.82768 0.0
H339 H 0.01306 0.34282 0.82646 0.0
C340 C 0.23571 0.84448 0.62769 0.0
N341 N 0.25988 0.92407 0.65978 0.0
C342 C 0.22711 0.89 0.66588 0.0
C343 C 0.22652 0.8874 0.67925 0.0
C344 C 0.25992 0.92022 0.68641 0.0
C345 C 0.29342 0.95483 0.67982 0.0
C346 C 0.29275 0.95612 0.66647 0.0
Zn347 Zn 0.26037 0.92834 0.64022 0.0
C348 C 0.34526 0.9506 0.62937 0.0
N349 N 0.26235 0.9377 0.59938 0.0
C350 C 0.23027 0.90809 0.59186 0.0
C351 C 0.29621 0.97324 0.59422 0.0
C352 C 0.2985 0.98046 0.58105 0.0
C353 C 0.26564 0.95085 0.57304 0.0
C354 C 0.23135 0.91401 0.57858 0.0
Zn355 Zn 0.26068 0.93171 0.61891 0.0
O356 O 0.24248 0.86294 0.63853 0.0
C357 C 0.17469 0.90486 0.62978 0.0
O358 O 0.24229 0.86633 0.61751 0.0
H359 H 0.32145 0.99634 0.60034 0.0
H360 H 0.20124 0.8649 0.66038 0.0
H361 H 0.20358 0.88012 0.59617 0.0
O362 O 0.19485 0.9098 0.64021 0.0
O363 O 0.19493 0.91344 0.61921 0.0
H364 H 0.31856 0.98284 0.66143 0.0
O365 O 0.27735 0.99669 0.62063 0.0
O366 O 0.27644 0.9933 0.64159 0.0
O367 O 0.32589 0.948 0.61894 0.0
O368 O 0.32563 0.94535 0.63992 0.0
C369 C 0.28075 0.01445 0.63142 0.0
H370 H 0.19983 0.86035 0.68393 0.0
H371 H 0.32014 0.98051 0.68493 0.0
H372 H 0.32589 0.00891 0.57717 0.0
H373 H 0.20522 0.8905 0.57275 0.0
C374 C 0.72679 0.71188 0.87972 0.0
N375 N 0.66809 0.72909 0.91188 0.0
C376 C 0.67008 0.69531 0.91698 0.0
C377 C 0.67393 0.69224 0.93017 0.0
C378 C 0.67564 0.72418 0.9383 0.0
C379 C 0.67343 0.75874 0.9328 0.0
C380 C 0.66961 0.76056 0.9195 0.0
Zn381 Zn 0.66381 0.73106 0.89234 0.0
C382 C 0.72201 0.8171 0.88149 0.0
N383 N 0.65618 0.73171 0.85146 0.0
C384 C 0.6554 0.69892 0.84473 0.0
C385 C 0.65523 0.76471 0.84539 0.0
C386 C 0.65383 0.76574 0.83201 0.0
C387 C 0.65341 0.73249 0.82481 0.0
C388 C 0.65396 0.69865 0.83136 0.0
Zn389 Zn 0.65995 0.73103 0.87103 0.0
O390 O 0.7127 0.71535 0.89054 0.0
C391 C 0.59834 0.64602 0.88192 0.0
O392 O 0.7093 0.71553 0.86959 0.0
H393 H 0.65597 0.79051 0.85092 0.0
H394 H 0.66902 0.67071 0.91077 0.0
H395 H 0.65608 0.67294 0.84973 0.0
O396 O 0.61564 0.66563 0.89228 0.0
O397 O 0.61191 0.66555 0.87132 0.0
H398 H 0.66797 0.78714 0.91525 0.0
O399 O 0.61204 0.74834 0.87279 0.0
O400 O 0.61612 0.74852 0.8938 0.0
O401 O 0.70668 0.79676 0.87109 0.0
O402 O 0.71061 0.79698 0.89209 0.0
C403 C 0.60037 0.7548 0.88368 0.0
H404 H 0.67626 0.66542 0.93393 0.0
H405 H 0.67422 0.78387 0.93871 0.0
H406 H 0.65391 0.79271 0.82737 0.0
H407 H 0.65301 0.67201 0.82623 0.0
H408 H 0.06567 0.2862 0.11253 0.0
H409 H 0.11794 0.26194 0.11361 0.0
H410 H 0.11111 0.26007 0.15486 0.0
H411 H 0.05813 0.28368 0.15392 0.0
H412 H 0.19746 0.28461 0.12629 0.0
H413 H 0.05884 0.13252 0.14421 0.0
H414 H 0.05259 0.1753 0.1375 0.0
H415 H 0.07248 0.17963 0.15355 0.0
C416 C 0.0762 0.28195 0.12186 0.0
C417 C 0.05692 0.28582 0.13314 0.0
C418 C 0.10612 0.26806 0.12245 0.0
C419 C 0.11731 0.25808 0.13429 0.0
C420 C 0.10205 0.26679 0.14562 0.0
H421 H 0.23794 0.10644 0.1515 0.0
H422 H 0.20211 0.14887 0.15273 0.0
C423 C 0.07198 0.28054 0.14505 0.0
C424 C 0.13988 0.23324 0.13462 0.0
H425 H 0.12417 0.13352 0.14144 0.0
C426 C 0.18164 0.25168 0.12967 0.0
C427 C 0.1188 0.1901 0.13892 0.0
C428 C 0.07309 0.16794 0.14375 0.0
C429 C 0.20308 0.2281 0.12898 0.0
C430 C 0.18176 0.18488 0.13314 0.0
C431 C 0.14027 0.16667 0.13825 0.0
C432 C 0.20185 0.1578 0.13225 0.0
C433 C 0.24841 0.24966 0.1239 0.0
C434 C 0.2121 0.14756 0.12028 0.0
C435 C 0.23231 0.12304 0.11952 0.0
C436 C 0.24252 0.10838 0.13073 0.0
C437 C 0.23057 0.11729 0.14268 0.0
C438 C 0.21028 0.14167 0.14342 0.0
H439 H 0.26365 0.28521 0.12403 0.0
H440 H 0.26852 0.24026 0.12958 0.0
H441 H 0.24794 0.23943 0.11384 0.0
H442 H 0.2049 0.15895 0.11153 0.0
H443 H 0.24109 0.11675 0.11017 0.0
H444 H 0.21369 0.92548 0.39795 0.0
H445 H 0.13759 0.87282 0.39642 0.0
H446 H 0.14459 0.88312 0.35521 0.0
H447 H 0.22081 0.93655 0.35664 0.0
H448 H 0.08982 0.90652 0.36577 0.0
H449 H 0.05562 0.74994 0.38573 0.0
H450 H 0.08962 0.79407 0.39598 0.0
H451 H 0.10851 0.78996 0.38037 0.0
C452 C 0.19951 0.91541 0.38852 0.0
C453 C 0.22307 0.93585 0.37742 0.0
C454 C 0.15594 0.88504 0.38767 0.0
C455 C 0.13544 0.8742 0.37571 0.0
C456 C 0.15989 0.89117 0.36454 0.0
H457 H 0.86284 0.75697 0.35843 0.0
H458 H 0.94093 0.79281 0.35675 0.0
C459 C 0.20348 0.92165 0.36538 0.0
C460 C 0.08808 0.85215 0.37508 0.0
H461 H -0.00332 0.7639 0.3855 0.0
C462 C 0.06938 0.87498 0.36987 0.0
C463 C 0.06163 0.81132 0.38059 0.0
C464 C 0.07986 0.78473 0.38587 0.0
C465 C 0.02499 0.85872 0.37043 0.0
C466 C -0.00132 0.81838 0.37621 0.0
C467 C 0.01716 0.79505 0.38117 0.0
C468 C 0.95178 0.79977 0.37722 0.0
C469 C 0.00674 0.88547 0.36526 0.0
C470 C 0.93223 0.79234 0.38929 0.0
C471 C 0.88759 0.77196 0.3903 0.0
C472 C 0.86187 0.75834 0.37924 0.0
C473 C 0.88175 0.76725 0.36714 0.0
C474 C 0.92635 0.7877 0.36615 0.0
H475 H 0.03203 0.91946 0.36375 0.0
H476 H 0.99103 0.87215 0.35591 0.0
H477 H 0.98212 0.88464 0.37187 0.0
H478 H 0.9515 0.80155 0.39793 0.0
H479 H 0.87325 0.76529 0.39976 0.0
H480 H 0.87983 0.12291 0.11112 0.0
H481 H 0.8368 0.04458 0.11233 0.0
H482 H 0.84481 0.05103 0.15357 0.0
H483 H 0.88805 0.12926 0.1525 0.0
H484 H 0.85959 0.98786 0.1423 0.0
H485 H 0.70979 0.97865 0.12434 0.0
H486 H 0.75616 0.00859 0.11436 0.0
H487 H 0.75492 0.02792 0.13014 0.0
C488 C 0.87295 0.10766 0.12044 0.0
C489 C 0.8872 0.13229 0.13172 0.0
C490 C 0.84796 0.06298 0.12111 0.0
C491 C 0.83684 0.04231 0.13305 0.0
C492 C 0.85267 0.06658 0.14428 0.0
H493 H 0.70728 0.77215 0.1538 0.0
H494 H 0.73058 0.84862 0.15495 0.0
C495 C 0.87753 0.11122 0.14363 0.0
C496 C 0.80915 0.99523 0.13383 0.0
H497 H 0.70928 0.91242 0.12645 0.0
C498 C 0.8266 0.97132 0.13897 0.0
C499 C 0.76613 0.97402 0.12947 0.0
C500 C 0.74539 -0.00145 0.12437 0.0
C501 C 0.80263 0.92643 0.13947 0.0
C502 C 0.75974 0.90507 0.13496 0.0
C503 C 0.74202 0.92902 0.12999 0.0
C504 C 0.73452 0.85774 0.1344 0.0
C505 C 0.82398 0.90215 0.14435 0.0
C506 C 0.72571 0.83716 0.12247 0.0
C507 C 0.71204 0.79343 0.12177 0.0
C508 C 0.70728 0.76984 0.13301 0.0
C509 C 0.71122 0.78955 0.14497 0.0
C510 C 0.72473 0.83327 0.14565 0.0
H511 H 0.85939 0.92296 0.14507 0.0
H512 H 0.81144 0.8893 0.15404 0.0
H513 H 0.8168 0.87461 0.13798 0.0
H514 H 0.73271 0.85554 0.11369 0.0
H515 H 0.7088 0.77911 0.11241 0.0
H516 H 0.23871 0.11147 0.36001 0.0
H517 H 0.2019 0.15306 0.36 0.0
H518 H 0.19626 0.14813 0.40128 0.0
H519 H 0.23267 0.10608 0.40142 0.0
H520 H 0.11961 0.13146 0.38946 0.0
H521 H 0.25868 0.28029 0.37039 0.0
H522 H 0.24317 0.23318 0.36085 0.0
H523 H 0.2637 0.2363 0.37675 0.0
C524 C 0.22925 0.11881 0.36909 0.0
C525 C 0.23879 0.10565 0.38073 0.0
C526 C 0.20864 0.14297 0.36906 0.0
C527 C 0.19745 0.15454 0.38065 0.0
C528 C 0.20518 0.1399 0.39225 0.0
H529 H 0.06253 0.2887 0.4007 0.0
H530 H 0.11517 0.26469 0.40077 0.0
C531 C 0.22577 0.1157 0.3923 0.0
C532 C 0.17708 0.18144 0.38067 0.0
H533 H 0.19223 0.27962 0.37188 0.0
C534 C 0.13557 0.16395 0.38571 0.0
C535 C 0.19816 0.22382 0.37576 0.0
C536 C 0.24354 0.24476 0.37073 0.0
C537 C 0.11406 0.18737 0.38572 0.0
C538 C 0.13497 0.22961 0.38073 0.0
C539 C 0.17655 0.24729 0.37573 0.0
C540 C 0.11283 0.25476 0.38029 0.0
C541 C 0.06868 0.16643 0.39079 0.0
C542 C 0.09661 0.25987 0.36863 0.0
C543 C 0.0666 0.27374 0.36852 0.0
C544 C 0.05238 0.28238 0.38011 0.0
C545 C 0.07243 0.28179 0.39162 0.0
C546 C 0.10245 0.26801 0.3917 0.0
H547 H 0.05458 0.13126 0.39213 0.0
H548 H 0.06865 0.18078 0.4002 0.0
H549 H 0.04778 0.17205 0.38418 0.0
H550 H 0.10456 0.24995 0.35972 0.0
H551 H 0.05196 0.27411 0.35949 0.0
H552 H 0.22108 0.92685 0.11106 0.0
H553 H 0.1443 0.87467 0.11098 0.0
H554 H 0.13981 0.88742 0.15194 0.0
H555 H 0.21668 0.93947 0.15217 0.0
H556 H 0.08118 0.79995 0.14047 0.0
H557 H 0.07254 0.9365 0.11846 0.0
H558 H 0.10717 0.92081 0.11066 0.0
H559 H 0.12005 0.94341 0.12648 0.0
C560 C 0.20414 0.91749 0.12012 0.0
C561 C 0.22473 0.93801 0.13159 0.0
C562 C 0.16027 0.88775 0.12004 0.0
C563 C 0.13649 0.87817 0.13141 0.0
C564 C 0.15776 0.89477 0.14306 0.0
H565 H 0.86708 0.75644 0.1514 0.0
H566 H 0.94548 0.79288 0.15155 0.0
C567 C 0.20172 0.92447 0.14317 0.0
C568 C 0.08922 0.85648 0.13091 0.0
H569 H 0.00724 0.87218 0.12147 0.0
C570 C 0.06488 0.81554 0.1363 0.0
C571 C 0.06834 0.8773 0.12552 0.0
C572 C 0.09321 0.92207 0.12003 0.0
C573 C 0.01983 0.79445 0.13628 0.0
C574 C -0.00102 0.81544 0.13096 0.0
C575 C 0.02342 0.8563 0.12553 0.0
C576 C 0.95174 0.79555 0.1309 0.0
C577 C 0.99493 0.74968 0.14173 0.0
C578 C 0.92956 0.78702 0.11924 0.0
C579 C 0.8848 0.76669 0.11911 0.0
C580 C 0.86153 0.75468 0.13065 0.0
C581 C 0.88404 0.7651 0.14233 0.0
C582 C 0.9288 0.78549 0.14245 0.0
H583 H 0.01495 0.73418 0.14238 0.0
H584 H 0.98389 0.75131 0.15154 0.0
H585 H 0.96619 0.72913 0.1358 0.0
H586 H 0.94684 0.79506 0.11023 0.0
H587 H 0.86845 0.75911 0.10995 0.0
H588 H 0.70639 0.76896 0.35765 0.0
H589 H 0.72891 0.84521 0.3562 0.0
H590 H 0.72818 0.8531 0.39742 0.0
H591 H 0.70489 0.7769 0.39899 0.0
H592 H 0.70495 0.90852 0.38471 0.0
H593 H 0.85636 0.92244 0.36597 0.0
H594 H 0.80882 0.88839 0.35689 0.0
H595 H 0.81425 0.87352 0.37293 0.0
C596 C 0.70951 0.7865 0.3664 0.0
C597 C 0.70488 0.76711 0.37845 0.0
C598 C 0.72269 0.83016 0.36555 0.0
C599 C 0.73152 0.85492 0.37671 0.0
C600 C 0.72202 0.83458 0.38869 0.0
H601 H 0.87354 0.11928 0.40068 0.0
H602 H 0.83103 0.04101 0.39907 0.0
C603 C 0.70866 0.79094 0.38956 0.0
C604 C 0.75598 0.90236 0.3761 0.0
H605 H 0.85506 0.98658 0.36875 0.0
C606 C 0.73763 0.92566 0.38114 0.0
C607 C 0.79883 0.92451 0.37155 0.0
C608 C 0.82101 0.90108 0.36662 0.0
C609 C 0.76106 0.97069 0.38174 0.0
C610 C 0.80405 0.9927 0.37736 0.0
C611 C 0.82209 0.96947 0.3721 0.0
C612 C 0.83119 0.03986 0.37834 0.0
C613 C 0.73967 0.9944 0.387 0.0
C614 C 0.84685 0.06484 0.36723 0.0
C615 C 0.87141 0.1095 0.3681 0.0
C616 C 0.88099 0.1299 0.38013 0.0
C617 C 0.86674 0.10458 0.39127 0.0
C618 C 0.84205 0.05991 0.39038 0.0
H619 H 0.70412 0.97404 0.38699 0.0
H620 H 0.75028 0.00408 0.39704 0.0
H621 H 0.74881 0.02394 0.38137 0.0
H622 H 0.83918 0.04982 0.35786 0.0
H623 H 0.8819 0.12806 0.35933 0.0
H624 H 0.27135 0.05386 0.6526 0.0
H625 H 0.24792 0.10703 0.65255 0.0
H626 H 0.26429 0.11977 0.61158 0.0
H627 H 0.28765 0.06662 0.61146 0.0
H628 H 0.27951 0.19632 0.64029 0.0
H629 H 0.13004 0.05901 0.62039 0.0
H630 H 0.17036 0.05181 0.62848 0.0
H631 H 0.17951 0.07228 0.61242 0.0
C632 C 0.27149 0.06907 0.64362 0.0
C633 C 0.28044 0.05534 0.63199 0.0
C634 C 0.25806 0.09943 0.64363 0.0
C635 C 0.25368 0.11649 0.63203 0.0
C636 C 0.26714 0.10648 0.6206 0.0
H637 H 0.10588 0.23659 0.61055 0.0
H638 H 0.14791 0.2002 0.61092 0.0
C639 C 0.28053 0.07615 0.62057 0.0
C640 C 0.22888 0.13899 0.63164 0.0
H641 H 0.1309 0.12436 0.62306 0.0
C642 C 0.24707 0.18078 0.63652 0.0
C643 C 0.18652 0.11827 0.62676 0.0
C644 C 0.16513 0.07275 0.62178 0.0
C645 C 0.224 0.20281 0.63645 0.0
C646 C 0.1815 0.18193 0.63163 0.0
C647 C 0.16348 0.14017 0.62674 0.0
C648 C 0.15503 0.2028 0.63154 0.0
C649 C 0.2455 0.24842 0.64131 0.0
C650 C 0.14397 0.21493 0.64305 0.0
C651 C 0.11982 0.23556 0.64289 0.0
C652 C 0.10614 0.24417 0.63119 0.0
C653 C 0.11588 0.23041 0.61971 0.0
C654 C 0.14006 0.20982 0.61989 0.0
H655 H 0.28101 0.26321 0.64158 0.0
H656 H 0.2372 0.26856 0.63523 0.0
H657 H 0.23426 0.2486 0.6512 0.0
H658 H 0.15432 0.20877 0.65215 0.0
H659 H 0.11277 0.24564 0.65191 0.0
H660 H 0.12396 0.88633 0.90085 0.0
H661 H 0.04552 0.84505 0.90025 0.0
H662 H 0.04882 0.84234 0.85896 0.0
H663 H 0.12725 0.88312 0.85944 0.0
H664 H 0.98711 0.86335 0.8884 0.0
H665 H 0.97605 0.71485 0.8685 0.0
H666 H 0.0251 0.75803 0.87512 0.0
H667 H 0.00839 0.76245 0.85924 0.0
C668 C 0.10803 0.87732 0.89163 0.0
C669 C 0.13184 0.88781 0.8802 0.0
C670 C 0.06324 0.85358 0.89131 0.0
C671 C 0.04155 0.83982 0.87958 0.0
C672 C 0.06508 0.85174 0.86813 0.0
H673 H 0.77573 0.72279 0.85844 0.0
H674 H 0.85258 0.74731 0.85838 0.0
C675 C 0.10987 0.87543 0.86843 0.0
C676 C 0.99421 0.81349 0.87934 0.0
H677 H 0.9107 0.71618 0.8701 0.0
C678 C 0.9704 0.8311 0.88447 0.0
C679 C 0.97263 0.77141 0.8742 0.0
C680 C -0.00322 0.75031 0.86905 0.0
C681 C 0.92545 0.80803 0.88441 0.0
C682 C 0.90387 0.76605 0.87924 0.0
C683 C 0.92755 0.74832 0.87409 0.0
C684 C 0.85657 0.74108 0.87887 0.0
C685 C 0.90126 0.829 0.88966 0.0
C686 C 0.83322 0.727 0.89031 0.0
C687 C 0.78937 0.71297 0.8904 0.0
C688 C 0.76836 0.71299 0.87903 0.0
C689 C 0.791 0.72265 0.86737 0.0
C690 C 0.83493 0.73673 0.86731 0.0
H691 H 0.92252 0.86406 0.89117 0.0
H692 H 0.87487 0.82395 0.88307 0.0
H693 H 0.8867 0.81418 0.89901 0.0
H694 H 0.8495 0.72975 0.8993 0.0
H695 H 0.77276 0.70532 0.89952 0.0
H696 H 0.76046 0.87317 0.61109 0.0
H697 H 0.79796 0.95155 0.61269 0.0
H698 H 0.79674 0.94256 0.65391 0.0
H699 H 0.75974 0.86438 0.65244 0.0
H700 H 0.76395 -0.00194 0.62581 0.0
H701 H 0.92189 0.03262 0.64538 0.0
H702 H 0.8853 0.98232 0.63773 0.0
H703 H 0.87586 0.99248 0.65392 0.0
C704 C 0.76901 0.88788 0.62049 0.0
C705 C 0.75716 0.86257 0.63164 0.0
C706 C 0.79014 0.9326 0.62138 0.0
C707 C 0.80009 0.95267 0.63341 0.0
C708 C 0.78975 0.92762 0.64454 0.0
H709 H 0.93745 0.22124 0.65475 0.0
H710 H 0.88534 0.14454 0.65587 0.0
C711 C 0.76859 0.88294 0.64367 0.0
C712 C 0.81929 -0.0003 0.63436 0.0
H713 H 0.90878 0.09063 0.6443 0.0
C714 C 0.79562 0.01841 0.62985 0.0
C715 C 0.86036 0.02588 0.63975 0.0
C716 C 0.88758 0.00748 0.64438 0.0
C717 C 0.81213 0.06291 0.63055 0.0
C718 C 0.85351 0.08919 0.63575 0.0
C719 C 0.87681 0.07031 0.64045 0.0
C720 C 0.87533 0.13659 0.63539 0.0
C721 C 0.78512 0.08136 0.62579 0.0
C722 C 0.8852 0.15783 0.62355 0.0
C723 C 0.91482 0.20168 0.62286 0.0
C724 C 0.93546 0.2248 0.63401 0.0
C725 C 0.92231 0.20431 0.64598 0.0
C726 C 0.89263 0.16043 0.64664 0.0
H727 H 0.75036 0.05703 0.62601 0.0
H728 H 0.79058 0.10955 0.63159 0.0
H729 H 0.79391 0.09194 0.61571 0.0
H730 H 0.87271 0.13997 0.61473 0.0
H731 H 0.92411 0.21653 0.6135 0.0
H732 H 0.1021 0.23554 0.8594 0.0
H733 H 0.14349 0.19876 0.85809 0.0
H734 H 0.14927 0.19639 0.89934 0.0
H735 H 0.10816 0.23372 0.90079 0.0
H736 H 0.23035 0.23026 0.8866 0.0
H737 H 0.10731 0.07331 0.86639 0.0
H738 H 0.11387 0.11962 0.85787 0.0
H739 H 0.09355 0.10995 0.87398 0.0
C740 C 0.11144 0.22652 0.86822 0.0
C741 C 0.10181 0.23751 0.88021 0.0
C742 C 0.13509 0.20549 0.86744 0.0
C743 C 0.14924 0.19483 0.87862 0.0
C744 C 0.13856 0.20445 0.89061 0.0
H745 H 0.28654 0.06814 0.89851 0.0
H746 H 0.26228 0.12029 0.89743 0.0
C747 C 0.11483 0.22547 0.89141 0.0
C748 C 0.1769 0.17543 0.87776 0.0
H749 H 0.17833 0.08615 0.86759 0.0
C750 C 0.21908 0.19874 0.88245 0.0
C751 C 0.16208 0.13455 0.87224 0.0
C752 C 0.11663 0.10765 0.86742 0.0
C753 C 0.24696 0.18208 0.88177 0.0
C754 C 0.23192 0.14093 0.87642 0.0
C755 C 0.18993 0.11796 0.87156 0.0
C756 C 0.2573 0.11891 0.87675 0.0
C757 C 0.29221 0.20868 0.88673 0.0
C758 C 0.26419 0.10212 0.86544 0.0
C759 C 0.27785 0.072 0.86602 0.0
C760 C 0.28431 0.05794 0.87795 0.0
C761 C 0.2816 0.07812 0.88917 0.0
C762 C 0.26792 0.10817 0.88857 0.0
H763 H 0.30277 0.24348 0.88668 0.0
H764 H 0.29353 0.19925 0.89677 0.0
H765 H 0.31511 0.20345 0.88095 0.0
H766 H 0.25617 0.11009 0.85622 0.0
H767 H 0.27986 0.05725 0.85719 0.0
H768 H 0.12164 0.87904 0.65062 0.0
H769 H 0.04337 0.83556 0.65069 0.0
H770 H 0.04231 0.83812 0.60938 0.0
H771 H 0.12064 0.88206 0.60918 0.0
H772 H 0.98131 0.85351 0.62082 0.0
H773 H 0.97495 0.70766 0.64106 0.0
H774 H 0.00584 0.75546 0.65038 0.0
H775 H 0.0235 0.75187 0.63455 0.0
C776 C 0.10478 0.87078 0.64154 0.0
C777 C 0.12737 0.88388 0.62988 0.0
C778 C 0.0601 0.84551 0.64161 0.0
C779 C 0.03729 0.83273 0.63004 0.0
C780 C 0.05951 0.84726 0.61841 0.0
H781 H 0.76708 0.69549 0.61123 0.0
H782 H 0.84335 0.71792 0.6108 0.0
C783 C 0.10421 0.87256 0.61832 0.0
C784 C 0.9901 0.80499 0.63007 0.0
H785 H 0.90842 0.70709 0.63966 0.0
C786 C 0.96536 0.82136 0.62483 0.0
C787 C 0.96955 0.76305 0.63531 0.0
C788 C 0.99478 0.74321 0.64054 0.0
C789 C 0.92046 0.79738 0.62498 0.0
C790 C 0.89987 0.75566 0.63035 0.0
C791 C 0.92449 0.73901 0.63551 0.0
C792 C 0.85263 0.7303 0.63115 0.0
C793 C 0.89529 0.81728 0.61971 0.0
C794 C 0.83226 0.72685 0.6429 0.0
C795 C 0.7886 0.71385 0.64321 0.0
C796 C 0.76502 0.70452 0.63174 0.0
C797 C 0.7845 0.70303 0.62021 0.0
C798 C 0.82808 0.71589 0.61992 0.0
H799 H 0.91593 0.85231 0.618 0.0
H800 H 0.88041 0.80174 0.61046 0.0
H801 H 0.86909 0.81216 0.62639 0.0
H802 H 0.85082 0.73767 0.65166 0.0
H803 H 0.77449 0.71505 0.65226 0.0
H804 H 0.92225 0.22493 0.89979 0.0
H805 H 0.8685 0.14862 0.90003 0.0
H806 H 0.88397 0.14147 0.85932 0.0
H807 H 0.93761 0.21788 0.85891 0.0
H808 H 0.79514 0.08447 0.87048 0.0
H809 H 0.92917 0.07479 0.89395 0.0
H810 H 0.91377 0.11047 0.90119 0.0
H811 H 0.93732 0.12207 0.88549 0.0
C812 C 0.91314 0.20755 0.8908 0.0
C813 C 0.9349 0.22718 0.87937 0.0
C814 C 0.88249 0.16394 0.89097 0.0
C815 C 0.87321 0.13948 0.87975 0.0
C816 C 0.89104 0.15995 0.86808 0.0
H817 H 0.75084 0.86971 0.86057 0.0
H818 H 0.7867 0.94806 0.86032 0.0
C819 C 0.92165 0.20365 0.86788 0.0
C820 C 0.85082 0.09221 0.88051 0.0
H821 H 0.86472 0.00987 0.89078 0.0
C822 C 0.81013 0.06803 0.87494 0.0
C823 C 0.87084 0.07112 0.88628 0.0
C824 C 0.91531 0.09577 0.892 0.0
C825 C 0.78855 0.02295 0.87515 0.0
C826 C 0.8088 0.00188 0.88082 0.0
C827 C 0.84937 0.02619 0.88645 0.0
C828 C 0.78866 0.9546 0.88096 0.0
C829 C 0.74408 -0.00172 0.86948 0.0
C830 C 0.77986 0.93255 0.89265 0.0
C831 C 0.75989 0.88781 0.89284 0.0
C832 C 0.74853 0.8644 0.88132 0.0
C833 C 0.75902 0.88677 0.86962 0.0
C834 C 0.77906 0.9315 0.86945 0.0
H835 H 0.72883 0.0185 0.86868 0.0
H836 H 0.74619 0.98731 0.85971 0.0
H837 H 0.72306 0.96954 0.87534 0.0
H838 H 0.78754 0.94993 0.90164 0.0
H839 H 0.7522 0.87156 0.90202 0.0
H840 H 0.29375 0.00806 0.30747 0.0
H841 H 0.29609 0.01051 0.28407 0.0
H842 H 0.38521 0.14675 0.28536 0.0
H843 H 0.3841 0.14442 0.30881 0.0
H844 H 0.2746 0.05882 0.26768 0.0
H845 H 0.44498 0.10144 0.26165 0.0
H846 H 0.41639 0.08152 0.27657 0.0
H847 H 0.43651 0.13648 0.27199 0.0
C848 C 0.31431 0.03848 0.30279 0.0
C849 C 0.33901 0.076 0.31002 0.0
C850 C 0.31536 0.03985 0.28942 0.0
C851 C 0.34126 0.07868 0.28299 0.0
C852 C 0.36557 0.11632 0.29014 0.0
H853 H 0.38558 0.14199 0.2018 0.0
H854 H 0.38527 0.14465 0.22524 0.0
C855 C 0.36452 0.115 0.30354 0.0
C856 C 0.34201 0.07969 0.2688 0.0
H857 H 0.40727 0.0997 0.24287 0.0
C858 C 0.30357 0.06771 0.26225 0.0
C859 C 0.37992 0.09143 0.26176 0.0
C860 C 0.42177 0.10312 0.26831 0.0
C861 C 0.30204 0.06739 0.24881 0.0
C862 C 0.33982 0.07864 0.24176 0.0
C863 C 0.37838 0.09109 0.24831 0.0
C864 C 0.3398 0.07695 0.22758 0.0
C865 C 0.26013 0.05561 0.24228 0.0
C866 C 0.31476 0.03791 0.22115 0.0
C867 C 0.31466 0.03631 0.20778 0.0
C868 C 0.33983 0.07373 0.20056 0.0
C869 C 0.36534 0.11272 0.20706 0.0
C870 C 0.36543 0.11426 0.22044 0.0
H871 H 0.23773 0.05919 0.24882 0.0
H872 H 0.26551 0.0758 0.23366 0.0
H873 H 0.24439 0.02155 0.23918 0.0
H874 H 0.29534 0.00859 0.22649 0.0
H875 H 0.29439 0.00584 0.20309 0.0
H876 H 0.66058 0.60259 0.30886 0.0
H877 H 0.66149 0.60196 0.28541 0.0
H878 H 0.79659 0.69566 0.28566 0.0
H879 H 0.79595 0.69681 0.30908 0.0
H880 H 0.68453 0.67144 0.26871 0.0
H881 H 0.79 0.60115 0.2621 0.0
H882 H 0.76439 0.59898 0.27718 0.0
H883 H 0.81182 0.64746 0.27235 0.0
C884 C 0.69047 0.62317 0.30393 0.0
C885 C 0.72824 0.64964 0.31086 0.0
C886 C 0.69097 0.6226 0.29054 0.0
C887 C 0.72923 0.64827 0.28381 0.0
C888 C 0.76693 0.67485 0.29067 0.0
H889 H 0.79734 0.69996 0.20342 0.0
H890 H 0.79678 0.69783 0.22687 0.0
C891 C 0.76649 0.67545 0.30406 0.0
C892 C 0.72937 0.64837 0.26961 0.0
H893 H 0.77357 0.62805 0.24347 0.0
C894 C 0.70379 0.66173 0.26318 0.0
C895 C 0.75468 0.63584 0.26244 0.0
C896 C 0.78152 0.61967 0.26884 0.0
C897 C 0.7034 0.66363 0.24975 0.0
C898 C 0.72868 0.65106 0.24257 0.0
C899 C 0.75426 0.63769 0.249 0.0
C900 C 0.72899 0.65156 0.22837 0.0
C901 C 0.67671 0.68002 0.24337 0.0
C902 C 0.69123 0.62566 0.22145 0.0
C903 C 0.69146 0.62669 0.20807 0.0
C904 C 0.72957 0.65345 0.20133 0.0
C905 C 0.76755 0.67872 0.2083 0.0
C906 C 0.76726 0.6777 0.2217 0.0
H907 H 0.66829 0.69855 0.25013 0.0
H908 H 0.69392 0.7008 0.23505 0.0
H909 H 0.64636 0.65235 0.23984 0.0
H910 H 0.66157 0.6045 0.22641 0.0
H911 H 0.66185 0.60622 0.20299 0.0
H912 H 0.85183 0.24428 0.20267 0.0
H913 H 0.85004 0.24498 0.22613 0.0
H914 H 0.98602 0.29068 0.22729 0.0
H915 H 0.98809 0.28984 0.2039 0.0
H916 H 0.87312 0.20087 0.24361 0.0
H917 H 0.97413 0.37713 0.24993 0.0
H918 H 0.95052 0.35283 0.23473 0.0
H919 H -0.00153 0.35393 0.2402 0.0
C920 C 0.88132 0.25429 0.20792 0.0
C921 C 0.92017 0.26728 0.2014 0.0
C922 C 0.88027 0.25486 0.22132 0.0
C923 C 0.91803 0.2686 0.22843 0.0
C924 C 0.95671 0.28099 0.22197 0.0
H925 H 0.98668 0.28875 0.30844 0.0
H926 H 0.98447 0.28864 0.28502 0.0
C927 C 0.95782 0.28048 0.2086 0.0
C928 C 0.91688 0.26899 0.24263 0.0
H929 H 0.95915 0.33439 0.26869 0.0
C930 C 0.89164 0.23008 0.24911 0.0
C931 C 0.94112 0.30718 0.24976 0.0
C932 C 0.9673 0.35023 0.24332 0.0
C933 C 0.89088 0.22812 0.26256 0.0
C934 C 0.91551 0.26624 0.26968 0.0
C935 C 0.94041 0.30521 0.2632 0.0
C936 C 0.91645 0.26631 0.28388 0.0
C937 C 0.86473 0.18512 0.26902 0.0
C938 C 0.87901 0.25432 0.29099 0.0
C939 C 0.88019 0.25453 0.30439 0.0
C940 C 0.91892 0.26702 0.31092 0.0
C941 C 0.95644 0.27944 0.30373 0.0
C942 C 0.95521 0.27919 0.29035 0.0
H943 H 0.85612 0.15807 0.26229 0.0
H944 H 0.88248 0.18189 0.27725 0.0
H945 H 0.8345 0.18232 0.27272 0.0
H946 H 0.84895 0.24515 0.28619 0.0
H947 H 0.85088 0.2455 0.30963 0.0
H948 H 0.09815 0.30106 0.70326 0.0
H949 H 0.09951 0.30248 0.72671 0.0
H950 H 0.05482 0.39362 0.72661 0.0
H951 H 0.05355 0.3926 0.70318 0.0
H952 H 0.14451 0.37169 0.7436 0.0
H953 H 0.96818 0.29752 0.74991 0.0
H954 H 0.99228 0.29663 0.73482 0.0
H955 H 0.99193 0.34428 0.73984 0.0
C956 C 0.08897 0.32171 0.70822 0.0
C957 C 0.07548 0.34653 0.70134 0.0
C958 C 0.08958 0.32231 0.72162 0.0
C959 C 0.07657 0.34758 0.72839 0.0
C960 C 0.06401 0.37312 0.72157 0.0
H961 H 0.05381 0.39074 0.80915 0.0
H962 H 0.05609 0.39297 0.78572 0.0
C963 C 0.06332 0.3725 0.70818 0.0
C964 C 0.07639 0.3474 0.74259 0.0
H965 H 0.01086 0.32406 0.76862 0.0
C966 C 0.11529 0.36114 0.74909 0.0
C967 C 0.0382 0.33364 0.7497 0.0
C968 C 0.99518 0.3168 0.74324 0.0
C969 C 0.11716 0.36214 0.76253 0.0
C970 C 0.07897 0.34838 0.76963 0.0
C971 C 0.04009 0.3347 0.76314 0.0
C972 C 0.07852 0.34752 0.78383 0.0
C973 C 0.16008 0.37869 0.76902 0.0
C974 C 0.08997 0.32089 0.79052 0.0
C975 C 0.08848 0.31934 0.8039 0.0
C976 C 0.07526 0.34424 0.81086 0.0
C977 C 0.06369 0.3708 0.8041 0.0
C978 C 0.06518 0.3723 0.79072 0.0
H979 H 0.18717 0.39795 0.76238 0.0
H980 H 0.16299 0.39878 0.77746 0.0
H981 H 0.16311 0.35106 0.7724 0.0
H982 H 0.09943 0.30077 0.78537 0.0
H983 H 0.09684 0.29795 0.80878 0.0
H984 H 0.28511 0.98683 0.80747 0.0
H985 H 0.28371 0.98376 0.78406 0.0
H986 H 0.23987 0.84818 0.78555 0.0
H987 H 0.24145 0.85097 0.80899 0.0
H988 H 0.32866 0.95795 0.76768 0.0
H989 H 0.15211 0.85471 0.76185 0.0
H990 H 0.17646 0.8814 0.77673 0.0
H991 H 0.17678 0.83335 0.77221 0.0
C992 C 0.27543 0.95638 0.80283 0.0
C993 C 0.26333 0.91911 0.81011 0.0
C994 C 0.27444 0.95466 0.78945 0.0
C995 C 0.26113 0.91565 0.78308 0.0
C996 C 0.24936 0.87843 0.79029 0.0
H997 H 0.23765 0.85047 0.70186 0.0
H998 H 0.23855 0.84858 0.72531 0.0
C999 C 0.25029 0.8801 0.80368 0.0
C1000 C 0.26054 0.91431 0.76889 0.0
H1001 H 0.19424 0.8715 0.74304 0.0
C1002 C 0.29928 0.9391 0.76228 0.0
C1003 C 0.22217 0.88954 0.76189 0.0
C1004 C 0.17941 0.86348 0.7685 0.0
C1005 C 0.30075 0.93964 0.74885 0.0
C1006 C 0.26231 0.91531 0.74184 0.0
C1007 C 0.22364 0.8901 0.74844 0.0
C1008 C 0.26143 0.91641 0.72766 0.0
C1009 C 0.34354 0.9658 0.74226 0.0
C1010 C 0.27327 0.95502 0.72124 0.0
C1011 C 0.27263 0.95618 0.70787 0.0
C1012 C 0.25987 0.91866 0.70064 0.0
C1013 C 0.24731 0.87985 0.70713 0.0
C1014 C 0.248 0.87874 0.72052 0.0
H1015 H 0.37072 0.97289 0.74878 0.0
H1016 H 0.34589 0.94887 0.73367 0.0
H1017 H 0.34699 0.99685 0.73911 0.0
H1018 H 0.28275 0.98425 0.72658 0.0
H1019 H 0.28164 0.98641 0.70319 0.0
H1020 H 0.61033 0.7558 0.70229 0.0
H1021 H 0.61039 0.75826 0.72574 0.0
H1022 H 0.69651 0.70749 0.72694 0.0
H1023 H 0.6976 0.70602 0.70352 0.0
H1024 H 0.58594 0.68981 0.74324 0.0
H1025 H 0.75673 0.81549 0.7495 0.0
H1026 H 0.72914 0.80566 0.73434 0.0
H1027 H 0.74864 0.771 0.73969 0.0
C1028 C 0.62967 0.74561 0.70754 0.0
C1029 C 0.65413 0.7309 0.70103 0.0
C1030 C 0.62944 0.74679 0.72093 0.0
C1031 C 0.65392 0.73364 0.72806 0.0
C1032 C 0.67796 0.71847 0.72161 0.0
H1033 H 0.69807 0.71033 0.80821 0.0
H1034 H 0.69635 0.71026 0.78481 0.0
C1035 C 0.67815 0.7172 0.70823 0.0
C1036 C 0.65373 0.735 0.74225 0.0
H1037 H 0.71876 0.77902 0.76829 0.0
C1038 C 0.61488 0.70951 0.74873 0.0
C1039 C 0.69157 0.76074 0.74936 0.0
C1040 C 0.73385 0.7901 0.74289 0.0
C1041 C 0.61307 0.70818 0.76218 0.0
C1042 C 0.651 0.73367 0.7693 0.0
C1043 C 0.68976 0.75946 0.7628 0.0
C1044 C 0.65139 0.73349 0.7835 0.0
C1045 C 0.57085 0.67858 0.76864 0.0
C1046 C 0.62702 0.74701 0.79054 0.0
C1047 C 0.62765 0.74676 0.80394 0.0
C1048 C 0.65288 0.73319 0.81056 0.0
C1049 C 0.67769 0.72023 0.80344 0.0
C1050 C 0.67701 0.72047 0.79006 0.0
H1051 H 0.54772 0.65368 0.76196 0.0
H1052 H 0.57559 0.66237 0.77702 0.0
H1053 H 0.55631 0.69763 0.77211 0.0
H1054 H 0.60763 0.75794 0.78567 0.0
H1055 H 0.60797 0.75671 0.80912 0.0
H1056 H 0.24968 0.9002 0.95751 0.0
H1057 H 0.25545 0.91621 0.98048 0.0
H1058 H 0.29624 0.04857 0.97205 0.0
H1059 H 0.29052 0.03286 0.94913 0.0
H1060 H 0.34858 0.03975 0.98953 0.0
H1061 H 0.17739 0.93979 1.00343 0.0
H1062 H 0.19863 0.91093 0.995 0.0
H1063 H 0.19435 0.95284 0.98696 0.0
C1064 C 0.25925 0.93255 0.96056 0.0
C1065 C 0.26975 0.96527 0.95149 0.0
C1066 C 0.26249 0.94165 0.97369 0.0
C1067 C 0.27584 0.9835 0.97797 0.0
C1068 C 0.28588 0.01607 0.96895 0.0
H1069 H 0.26527 0.06029 0.0565 0.0
H1070 H 0.25649 0.04733 0.03336 0.0
C1071 C 0.28277 0.00706 0.95585 0.0
C1072 C 0.28131 0.99395 0.99184 0.0
H1073 H 0.22803 0.96984 0.02042 0.0
C1074 C 0.32219 0.0246 0.99628 0.0
C1075 C 0.24673 0.97453 1.00059 0.0
C1076 C 0.20169 0.94299 0.99627 0.0
C1077 C 0.32961 0.03584 0.00929 0.0
C1078 C 0.29537 0.01534 0.01812 0.0
C1079 C 0.2543 0.98527 0.01364 0.0
C1080 C 0.30163 0.02432 0.03205 0.0
C1081 C 0.37394 0.06996 0.01344 0.0
C1082 C 0.32981 0.01557 0.03898 0.0
C1083 C 0.33516 0.02326 0.05215 0.0
C1084 C 0.31214 0.03954 0.0587 0.0
C1085 C 0.28393 0.04833 0.05173 0.0
C1086 C 0.27862 0.04062 0.03853 0.0
H1087 H 0.39292 0.09054 1.00527 0.0
H1088 H 0.37224 0.09073 0.02102 0.0
H1089 H 0.39137 0.0543 0.01737 0.0
H1090 H 0.34737 0.00233 0.03421 0.0
H1091 H 0.35742 0.01649 0.0572 0.0
H1092 H 0.6652 0.63664 0.45468 0.0
H1093 H 0.66065 0.64725 0.47768 0.0
H1094 H 0.78749 0.75859 0.47684 0.0
H1095 H 0.79223 0.74837 0.45376 0.0
H1096 H 0.72357 0.65441 0.49786 0.0
H1097 H 0.70434 0.79819 0.49309 0.0
H1098 H 0.69237 0.76061 0.48011 0.0
H1099 H 0.74711 0.79774 0.48424 0.0
C1100 C 0.69208 0.66347 0.45938 0.0
C1101 C 0.729 0.69182 0.45241 0.0
C1102 C 0.68949 0.66936 0.47251 0.0
C1103 C 0.72354 0.70393 0.47888 0.0
C1104 C 0.76073 0.73195 0.47203 0.0
H1105 H 0.74211 0.79123 0.55802 0.0
H1106 H 0.7545 0.78603 0.53515 0.0
C1107 C 0.76351 0.72588 0.45889 0.0
C1108 C 0.71989 0.7104 0.49273 0.0
H1109 H 0.70524 0.77408 0.514 0.0
C1110 C 0.7197 0.68061 0.50142 0.0
C1111 C 0.71512 0.74479 0.49729 0.0
C1112 C 0.71446 0.77717 0.48825 0.0
C1113 C 0.71481 0.68426 0.51463 0.0
C1114 C 0.70872 0.71794 0.51919 0.0
C1115 C 0.70971 0.7482 0.51049 0.0
C1116 C 0.7004 0.72174 0.53293 0.0
C1117 C 0.71686 0.65232 0.52356 0.0
C1118 C 0.66521 0.68786 0.53918 0.0
C1119 C 0.6582 0.6907 0.55222 0.0
C1120 C 0.68587 0.72776 0.55923 0.0
C1121 C 0.72014 0.76236 0.55285 0.0
C1122 C 0.72735 0.75935 0.53981 0.0
H1123 H 0.73455 0.63754 0.51917 0.0
H1124 H 0.73268 0.66765 0.53274 0.0
H1125 H 0.68376 0.62614 0.52567 0.0
H1126 H 0.64321 0.65907 0.53398 0.0
H1127 H 0.63107 0.66383 0.55682 0.0
H1128 H 0.09896 0.33832 0.95807 0.0
H1129 H 0.08442 0.32709 0.98108 0.0
H1130 H 0.9485 0.25406 0.97339 0.0
H1131 H 0.96275 0.26342 0.95043 0.0
H1132 H 0.03862 0.35278 0.99581 0.0
H1133 H 0.96343 0.17561 0.99796 0.0
H1134 H 0.99274 0.20636 0.98411 0.0
H1135 H 0.93802 0.19331 0.98664 0.0
C1136 C 0.06602 0.31918 0.96126 0.0
C1137 C 0.03205 0.30178 0.95237 0.0
C1138 C 0.05775 0.31304 0.97442 0.0
C1139 C 0.01541 0.28921 0.97895 0.0
C1140 C 0.98147 0.27178 0.97012 0.0
H1141 H 0.89541 0.24069 0.05401 0.0
H1142 H 0.91063 0.24532 0.03098 0.0
C1143 C 0.98969 0.27773 0.95698 0.0
C1144 C 0.00656 0.28434 0.99292 0.0
H1145 H 0.9565 0.21006 0.01661 0.0
C1146 C 0.02098 0.32158 1.00037 0.0
C1147 C 0.98338 0.24358 0.99886 0.0
C1148 C 0.96884 0.20244 0.99151 0.0
C1149 C 0.01217 0.31917 0.01354 0.0
C1150 C 0.9887 0.27846 0.01943 0.0
C1151 C 0.97432 0.2412 0.01203 0.0
C1152 C 0.97932 0.27405 0.03334 0.0
C1153 C 0.02731 0.36018 0.02102 0.0
C1154 C 0.01283 0.28782 0.04224 0.0
C1155 C 0.00426 0.28491 0.05536 0.0
C1156 C 0.96194 0.26819 0.05986 0.0
C1157 C 0.92829 0.25345 0.05089 0.0
C1158 C 0.93693 0.25625 0.03774 0.0
H1159 H 0.03655 0.38819 0.01464 0.0
H1160 H 0.00196 0.35726 0.02771 0.0
H1161 H 0.05583 0.36661 0.0268 0.0
H1162 H 0.04568 0.30089 0.03902 0.0
H1163 H 0.03085 0.29564 0.06199 0.0
H1164 H 0.35161 0.00669 0.45271 0.0
H1165 H 0.34116 0.99058 0.4756 0.0
H1166 H 0.25128 0.03675 0.4772 0.0
H1167 H 0.26034 0.05154 0.45417 0.0
H1168 H 0.35589 0.04469 0.49594 0.0
H1169 H 0.18406 0.91826 0.49379 0.0
H1170 H 0.21755 0.93773 0.47971 0.0
H1171 H 0.19564 0.96839 0.48667 0.0
C1172 C 0.32922 0.01298 0.45789 0.0
C1173 C 0.30651 0.03005 0.45157 0.0
C1174 C 0.3235 0.004 0.47099 0.0
C1175 C 0.29491 0.01178 0.47805 0.0
C1176 C 0.27285 0.02968 0.47187 0.0
H1177 H 0.28834 0.02661 0.56093 0.0
H1178 H 0.29481 0.04087 0.53791 0.0
C1179 C 0.2785 0.03864 0.45874 0.0
C1180 C 0.28895 0.00185 0.49195 0.0
H1181 H 0.21407 0.9415 0.51453 0.0
C1182 C 0.3249 0.0221 0.50001 0.0
C1183 C 0.2486 0.97187 0.49719 0.0
C1184 C 0.20929 0.94745 0.48889 0.0
C1185 C 0.32153 0.01365 0.51321 0.0
C1186 C 0.28093 0.98473 0.51852 0.0
C1187 C 0.24507 0.96397 0.51044 0.0
C1188 C 0.2752 0.97556 0.53245 0.0
C1189 C 0.36163 0.03519 0.52132 0.0
C1190 C 0.2606 0.93377 0.537 0.0
C1191 C 0.25675 0.92546 0.55018 0.0
C1192 C 0.26739 0.95884 0.55902 0.0
C1193 C 0.2808 0.00039 0.55438 0.0
C1194 C 0.28451 0.00862 0.54123 0.0
H1195 H 0.39114 0.04708 0.51542 0.0
H1196 H 0.36311 0.06315 0.52631 0.0
H1197 H 0.3615 0.01283 0.52868 0.0
H1198 H 0.25305 0.90777 0.53037 0.0
H1199 H 0.24655 0.89318 0.55345 0.0
H1200 H 0.69816 0.73373 0.06186 0.0
H1201 H 0.69108 0.74175 0.03889 0.0
H1202 H 0.7365 0.65357 0.03091 0.0
H1203 H 0.74354 0.64518 0.05394 0.0
H1204 H 0.77367 0.72698 0.01527 0.0
H1205 H 0.59609 0.65058 0.01623 0.0
H1206 H 0.62312 0.69444 0.02726 0.0
H1207 H 0.62642 0.64657 0.0294 0.0
C1208 C 0.70636 0.71577 0.05523 0.0
C1209 C 0.72095 0.68841 0.05974 0.0
C1210 C 0.7023 0.72042 0.04211 0.0
C1211 C 0.71249 0.69764 0.03321 0.0
C1212 C 0.72826 0.67127 0.03763 0.0
H1213 H 0.63637 0.65258 0.95346 0.0
H1214 H 0.64684 0.64702 0.97635 0.0
C1215 C 0.73242 0.66664 0.05079 0.0
C1216 C 0.70651 0.70129 0.01931 0.0
H1217 H 0.63075 0.68462 0.99681 0.0
C1218 C 0.74244 0.71765 0.01121 0.0
C1219 C 0.66562 0.68856 0.01403 0.0
C1220 C 0.62551 0.66867 0.02214 0.0
C1221 C 0.73868 0.72223 0.99798 0.0
C1222 C 0.69799 0.71079 0.99277 0.0
C1223 C 0.66199 0.69385 1.00085 0.0
C1224 C 0.69176 0.71478 0.97889 0.0
C1225 C 0.77813 0.73847 0.98968 0.0
C1226 C 0.71298 0.75486 0.97275 0.0
C1227 C 0.70735 0.75812 0.95962 0.0
C1228 C 0.68017 0.72134 0.95239 0.0
C1229 C 0.65815 0.68143 0.95867 0.0
C1230 C 0.66387 0.67821 0.97178 0.0
H1231 H 0.80392 0.73528 0.99452 0.0
H1232 H 0.77037 0.72083 0.98044 0.0
H1233 H 0.79083 0.77299 0.98757 0.0
H1234 H 0.73397 0.78364 0.97812 0.0
H1235 H 0.72497 0.7893 0.95508 0.0
H1236 H 0.09041 0.34812 0.55399 0.0
H1237 H 0.07401 0.3383 0.53102 0.0
H1238 H 0.94233 0.24491 0.53956 0.0
H1239 H 0.9584 0.25448 0.56247 0.0
H1240 H 0.04091 0.26514 0.5155 0.0
H1241 H 0.93122 0.33188 0.51698 0.0
H1242 H 0.96677 0.33809 0.53004 0.0
H1243 H 0.91717 0.28842 0.52797 0.0
C1244 C 0.05806 0.32522 0.55096 0.0
C1245 C 0.02559 0.30243 0.56005 0.0
C1246 C 0.04871 0.31976 0.53785 0.0
C1247 C 0.00677 0.2915 0.5336 0.0
C1248 C 0.97466 0.26768 0.54263 0.0
H1249 H 0.92994 0.19973 0.45519 0.0
H1250 H 0.9441 0.20486 0.47828 0.0
C1251 C 0.98391 0.2732 0.55572 0.0
C1252 C -0.00353 0.28709 0.51973 0.0
H1253 H 0.93389 0.29944 0.49747 0.0
C1254 C 0.01756 0.27267 0.51153 0.0
C1255 C 0.96636 0.29745 0.51458 0.0
C1256 C 0.94433 0.31521 0.52281 0.0
C1257 C 0.00898 0.26784 0.49832 0.0
C1258 C 0.97798 0.27705 0.49323 0.0
C1259 C 0.95725 0.29191 0.50142 0.0
C1260 C 0.96783 0.27321 0.47935 0.0
C1261 C 0.03386 0.25388 0.48988 0.0
C1262 C 0.97503 0.30959 0.4724 0.0
C1263 C 0.96646 0.30666 0.45928 0.0
C1264 C 0.95039 0.26722 0.45282 0.0
C1265 C 0.94212 0.23054 0.45988 0.0
C1266 C 0.9507 0.23351 0.47304 0.0
H1267 H 0.06334 0.25825 0.4947 0.0
H1268 H 0.0134 0.21931 0.48756 0.0
H1269 H 0.04318 0.27217 0.48075 0.0
H1270 H 0.98785 0.34045 0.47711 0.0
H1271 H 0.97247 0.33538 0.45418 0.0
H1272 H 0.78869 0.21469 0.14813 0.0
H1273 H 0.71046 0.17187 0.14697 0.0
H1274 H 0.71707 0.17176 0.10572 0.0
H1275 H 0.79543 0.21488 0.10674 0.0
H1276 H 0.65443 0.18945 0.11578 0.0
H1277 H 0.64284 0.043 0.13739 0.0
H1278 H 0.67352 0.09104 0.14664 0.0
H1279 H 0.69245 0.08639 0.13112 0.0
C1280 C 0.77355 0.20598 0.1388 0.0
C1281 C 0.7983 0.21807 0.12752 0.0
C1282 C 0.72889 0.18112 0.13817 0.0
C1283 C 0.70823 0.16782 0.12627 0.0
C1284 C 0.7326 0.18131 0.11499 0.0
H1285 H 0.43569 0.03722 0.10754 0.0
H1286 H 0.51188 0.05962 0.10603 0.0
C1287 C 0.77731 0.20612 0.1156 0.0
C1288 C 0.66104 0.14056 0.12564 0.0
H1289 H 0.57727 0.04405 0.13522 0.0
C1290 C 0.6375 0.15745 0.11988 0.0
C1291 C 0.63928 0.09883 0.13099 0.0
C1292 C 0.66327 0.07848 0.13679 0.0
C1293 C 0.59253 0.13441 0.11978 0.0
C1294 C 0.57066 0.093 0.12537 0.0
C1295 C 0.59422 0.07568 0.13089 0.0
C1296 C 0.52336 0.06912 0.12643 0.0
C1297 C 0.56876 0.15536 0.11419 0.0
C1298 C 0.50415 0.0639 0.13848 0.0
C1299 C 0.46056 0.05075 0.13941 0.0
C1300 C 0.4357 0.04287 0.12826 0.0
C1301 C 0.45408 0.04358 0.1163 0.0
C1302 C 0.49765 0.05658 0.1154 0.0
H1303 H 0.59025 0.19031 0.11256 0.0
H1304 H 0.5546 0.14022 0.10484 0.0
H1305 H 0.5422 0.15086 0.12061 0.0
H1306 H 0.5235 0.07309 0.14711 0.0
H1307 H 0.44733 0.05017 0.14878 0.0
H1308 H 0.606 0.55704 0.40528 0.0
H1309 H 0.55245 0.48086 0.40725 0.0
H1310 H 0.54715 0.46832 0.36611 0.0
H1311 H 0.60001 0.54443 0.364 0.0
H1312 H 0.46684 0.41675 0.37859 0.0
H1313 H 0.59924 0.39904 0.39982 0.0
H1314 H 0.58671 0.43543 0.40796 0.0
H1315 H 0.60858 0.44776 0.39204 0.0
C1316 C 0.59255 0.53839 0.39663 0.0
C1317 C 0.60789 0.55657 0.38448 0.0
C1318 C 0.56216 0.49482 0.39779 0.0
C1319 C 0.54689 0.46889 0.38683 0.0
C1320 C 0.55893 0.48781 0.37468 0.0
H1321 H 0.42115 0.20513 0.36404 0.0
H1322 H 0.45821 0.2833 0.36577 0.0
C1323 C 0.58915 0.53136 0.3735 0.0
C1324 C 0.52245 0.42159 0.38794 0.0
H1325 H 0.53302 0.33595 0.39683 0.0
C1326 C 0.48108 0.39903 0.38268 0.0
C1327 C 0.54139 0.39869 0.39321 0.0
C1328 C 0.58653 0.4213 0.39849 0.0
C1329 C 0.45818 0.35398 0.38246 0.0
C1330 C 0.47757 0.33118 0.38744 0.0
C1331 C 0.51841 0.35369 0.39302 0.0
C1332 C 0.45671 0.28398 0.38649 0.0
C1333 C 0.41351 0.33112 0.37686 0.0
C1334 C 0.44536 0.25871 0.3976 0.0
C1335 C 0.42445 0.21399 0.39666 0.0
C1336 C 0.41486 0.19392 0.38459 0.0
C1337 C 0.42795 0.21954 0.37349 0.0
C1338 C 0.44874 0.26419 0.37445 0.0
H1339 H 0.39917 0.35223 0.37658 0.0
H1340 H 0.415 0.32116 0.3669 0.0
H1341 H 0.39207 0.30184 0.38246 0.0
H1342 H 0.45178 0.27357 0.40698 0.0
H1343 H 0.41478 0.19517 0.40539 0.0
H1344 H 0.95093 0.39824 0.14962 0.0
H1345 H 0.92659 0.45061 0.1489 0.0
H1346 H 0.92166 0.44332 0.10766 0.0
H1347 H 0.94626 0.3911 0.10822 0.0
H1348 H 0.94792 0.52968 0.11982 0.0
H1349 H 0.79575 0.39105 0.13767 0.0
H1350 H 0.8432 0.40461 0.14684 0.0
H1351 H 0.83832 0.38478 0.13078 0.0
C1352 C 0.9461 0.40881 0.14037 0.0
C1353 C 0.9496 0.3898 0.12899 0.0
C1354 C 0.9321 0.43866 0.13999 0.0
C1355 C 0.92151 0.44991 0.12825 0.0
C1356 C 0.92947 0.43469 0.11681 0.0
H1357 H 0.78224 0.58149 0.10712 0.0
H1358 H 0.82309 0.54374 0.10666 0.0
C1359 C 0.94356 0.40487 0.11717 0.0
C1360 C 0.8963 0.47203 0.12801 0.0
H1361 H 0.79707 0.4568 0.1352 0.0
C1362 C 0.91496 0.51391 0.12316 0.0
C1363 C 0.8532 0.45096 0.13228 0.0
C1364 C 0.83114 0.40524 0.1371 0.0
C1365 C 0.89177 0.53581 0.12279 0.0
C1366 C 0.84871 0.51475 0.12713 0.0
C1367 C 0.83008 0.47276 0.13188 0.0
C1368 C 0.82264 0.53606 0.12723 0.0
C1369 C 0.91379 0.58157 0.11805 0.0
C1370 C 0.80735 0.54249 0.1389 0.0
C1371 C 0.78365 0.56354 0.13919 0.0
C1372 C 0.77467 0.57841 0.1278 0.0
C1373 C 0.78866 0.57047 0.11606 0.0
C1374 C 0.8124 0.54936 0.11579 0.0
H1375 H 0.94927 0.59615 0.11788 0.0
H1376 H 0.90288 0.58219 0.10815 0.0
H1377 H 0.90548 0.60166 0.12417 0.0
H1378 H 0.81459 0.53204 0.14782 0.0
H1379 H 0.77336 0.56911 0.1484 0.0
H1380 H 0.44016 0.04306 0.36086 0.0
H1381 H 0.51658 0.06648 0.36149 0.0
H1382 H 0.51318 0.06453 0.40279 0.0
H1383 H 0.43668 0.04087 0.4023 0.0
H1384 H 0.56693 0.14758 0.37417 0.0
H1385 H 0.59845 0.02192 0.39358 0.0
H1386 H 0.54839 0.00927 0.38592 0.0
H1387 H 0.55912 0.02953 0.40202 0.0
C1388 C 0.45522 0.04599 0.37009 0.0
C1389 C 0.43258 0.04097 0.38154 0.0
C1390 C 0.4989 0.0594 0.37041 0.0
C1391 C 0.52041 0.06744 0.38217 0.0
C1392 C 0.497 0.05808 0.39361 0.0
H1393 H 0.78877 0.21174 0.40435 0.0
H1394 H 0.71019 0.17144 0.40426 0.0
C1395 C 0.45325 0.04467 0.39331 0.0
C1396 C 0.56769 0.09312 0.38248 0.0
H1397 H 0.65815 0.09263 0.39197 0.0
C1398 C 0.58697 0.13549 0.37796 0.0
C1399 C 0.59339 0.07738 0.38766 0.0
C1400 C 0.57397 0.03193 0.39251 0.0
C1401 C 0.63146 0.1628 0.37853 0.0
C1402 C 0.65735 0.14693 0.38352 0.0
C1403 C 0.63808 0.10461 0.38815 0.0
C1404 C 0.70463 0.17344 0.38366 0.0
C1405 C 0.65023 0.20864 0.37405 0.0
C1406 C 0.7273 0.18823 0.37212 0.0
C1407 C 0.77204 0.21151 0.37214 0.0
C1408 C 0.79492 0.22002 0.3837 0.0
C1409 C 0.77207 0.20593 0.39529 0.0
C1410 C 0.72724 0.18268 0.39526 0.0
H1411 H 0.62582 0.21897 0.37402 0.0
H1412 H 0.67752 0.23097 0.38021 0.0
H1413 H 0.66227 0.21137 0.36411 0.0
H1414 H 0.7104 0.18079 0.36305 0.0
H1415 H 0.78865 0.22157 0.36304 0.0
H1416 H 0.42948 0.20268 0.14811 0.0
H1417 H 0.46613 0.28102 0.14796 0.0
H1418 H 0.45111 0.27998 0.10695 0.0
H1419 H 0.41391 0.20142 0.10698 0.0
H1420 H 0.54031 0.34036 0.13475 0.0
H1421 H 0.39736 0.35111 0.12004 0.0
H1422 H 0.39349 0.30203 0.1259 0.0
H1423 H 0.41065 0.31936 0.10975 0.0
C1424 C 0.43431 0.21905 0.13903 0.0
C1425 C 0.41861 0.19583 0.12756 0.0
C1426 C 0.4551 0.26379 0.13898 0.0
C1427 C 0.46036 0.28607 0.12749 0.0
C1428 C 0.44639 0.26319 0.11595 0.0
H1429 H 0.60047 0.55451 0.1089 0.0
H1430 H 0.54854 0.47763 0.10848 0.0
C1431 C 0.4256 0.21837 0.11598 0.0
C1432 C 0.48096 0.33335 0.12765 0.0
H1433 H 0.4635 0.41678 0.12157 0.0
C1434 C 0.52351 0.35708 0.13192 0.0
C1435 C 0.45876 0.35487 0.12395 0.0
C1436 C 0.41242 0.33063 0.11975 0.0
C1437 C 0.54478 0.40196 0.13244 0.0
C1438 C 0.5226 0.42352 0.12879 0.0
C1439 C 0.48012 0.39992 0.12444 0.0
C1440 C 0.54423 0.47079 0.12908 0.0
C1441 C 0.59111 0.42611 0.13671 0.0
C1442 C 0.55662 0.49256 0.14083 0.0
C1443 C 0.58629 0.53645 0.14113 0.0
C1444 C 0.60401 0.55903 0.12967 0.0
C1445 C 0.58773 0.53797 0.1179 0.0
C1446 C 0.55806 0.49403 0.11762 0.0
H1447 H 0.60574 0.40525 0.1369 0.0
H1448 H 0.61043 0.45376 0.13026 0.0
H1449 H 0.59295 0.43888 0.14651 0.0
H1450 H 0.54576 0.47501 0.14976 0.0
H1451 H 0.59782 0.5518 0.15035 0.0
H1452 H 0.84328 0.64406 0.39103 0.0
H1453 H 0.88827 0.61091 0.38991 0.0
H1454 H 0.77791 0.49123 0.37824 0.0
H1455 H 0.73387 0.52582 0.37832 0.0
H1456 H 0.89238 0.55309 0.40158 0.0
H1457 H 0.85731 0.49795 0.35152 0.0
H1458 H 0.83934 0.53224 0.35836 0.0
H1459 H 0.80815 0.47469 0.36037 0.0
C1460 C 0.82883 0.61063 0.38825 0.0
C1461 C 0.78539 0.58722 0.38477 0.0
C1462 C 0.85449 0.59172 0.38758 0.0
C1463 C 0.83689 0.54877 0.38368 0.0
C1464 C 0.79277 0.52486 0.38077 0.0
H1465 H 0.92241 0.37651 0.40339 0.0
H1466 H 0.90473 0.43322 0.40327 0.0
C1467 C 0.76742 0.54428 0.38101 0.0
C1468 C 0.86447 0.52885 0.38298 0.0
H1469 H 0.88502 0.46239 0.36482 0.0
C1470 C 0.89127 0.53385 0.39343 0.0
C1471 C 0.8646 0.50504 0.37219 0.0
C1472 C 0.84119 0.50267 0.35993 0.0
C1473 C 0.91622 0.51385 0.39366 0.0
C1474 C 0.91247 0.48607 0.38351 0.0
C1475 C 0.88756 0.48302 0.37275 0.0
C1476 C 0.93031 0.45668 0.3843 0.0
C1477 C 0.94638 0.52307 0.4048 0.0
C1478 C 0.95057 0.45039 0.37366 0.0
C1479 C 0.95934 0.41661 0.37352 0.0
C1480 C 0.94874 0.3891 0.38413 0.0
C1481 C 0.93153 0.39748 0.39512 0.0
C1482 C 0.92167 0.43034 0.3951 0.0
H1483 H 0.95965 0.55668 0.40816 0.0
H1484 H 0.92839 0.50173 0.41293 0.0
H1485 H 0.97354 0.51807 0.40225 0.0
H1486 H 0.95763 0.47025 0.36519 0.0
H1487 H 0.97256 0.41083 0.36492 0.0
H1488 H 0.21113 0.79397 0.60624 0.0
H1489 H 0.16723 0.71565 0.60537 0.0
H1490 H 0.16843 0.70982 0.64662 0.0
H1491 H 0.21197 0.788 0.64764 0.0
H1492 H 0.18363 0.65236 0.61529 0.0
H1493 H 0.03939 0.64375 0.63754 0.0
H1494 H 0.08314 0.69297 0.63119 0.0
H1495 H 0.08778 0.67383 0.64669 0.0
C1496 C 0.20248 0.77602 0.61513 0.0
C1497 C 0.21486 0.79722 0.62702 0.0
C1498 C 0.17721 0.73133 0.61461 0.0
C1499 C 0.16374 0.70723 0.62594 0.0
C1500 C 0.17761 0.72807 0.63779 0.0
H1501 H 0.04689 0.4482 0.64945 0.0
H1502 H 0.06933 0.52417 0.64745 0.0
C1503 C 0.2029 0.7727 0.63833 0.0
C1504 C 0.13584 0.66011 0.62541 0.0
H1505 H 0.03946 0.57753 0.63557 0.0
C1506 C 0.15187 0.63594 0.61956 0.0
C1507 C 0.09442 0.63902 0.63098 0.0
C1508 C 0.0749 0.66369 0.63685 0.0
C1509 C 0.12835 0.59098 0.61962 0.0
C1510 C 0.08733 0.56979 0.62547 0.0
C1511 C 0.0708 0.59398 0.63105 0.0
C1512 C 0.06326 0.5226 0.62681 0.0
C1513 C 0.14844 0.56652 0.61394 0.0
C1514 C 0.04963 0.49615 0.61594 0.0
C1515 C 0.03691 0.45269 0.61703 0.0
C1516 C 0.03761 0.4352 0.62903 0.0
C1517 C 0.04642 0.46076 0.64006 0.0
C1518 C 0.05928 0.50423 0.63894 0.0
H1519 H 0.18326 0.58764 0.61201 0.0
H1520 H 0.14432 0.54032 0.62047 0.0
H1521 H 0.13235 0.55177 0.60474 0.0
H1522 H 0.05174 0.50974 0.60652 0.0
H1523 H 0.02978 0.43373 0.60836 0.0
H1524 H 0.39603 0.95978 0.90317 0.0
H1525 H 0.45009 0.93789 0.9048 0.0
H1526 H 0.44912 0.92472 0.86371 0.0
H1527 H 0.39559 0.94708 0.86194 0.0
H1528 H 0.42538 0.8559 0.89677 0.0
H1529 H 0.57549 0.97245 0.87218 0.0
H1530 H 0.53614 0.98622 0.8776 0.0
H1531 H 0.52835 0.95768 0.86277 0.0
C1532 C 0.40849 0.95383 0.89443 0.0
C1533 C 0.39097 0.95445 0.88243 0.0
C1534 C 0.43934 0.94124 0.8954 0.0
C1535 C 0.45346 0.92954 0.88439 0.0
C1536 C 0.43912 0.93417 0.87232 0.0
H1537 H 0.56342 0.77449 0.86393 0.0
H1538 H 0.52734 0.81672 0.86501 0.0
C1539 C 0.40831 0.94681 0.87133 0.0
C1540 C 0.47667 0.90545 0.88562 0.0
H1541 H 0.56404 0.90109 0.87494 0.0
C1542 C 0.45609 0.86611 0.89219 0.0
C1543 C 0.51639 0.91865 0.87951 0.0
C1544 C 0.5406 0.96126 0.87272 0.0
C1545 C 0.47338 0.83879 0.89241 0.0
C1546 C 0.51262 0.85156 0.88606 0.0
C1547 C 0.53378 0.89135 0.87974 0.0
C1548 C 0.53189 0.82367 0.88563 0.0
C1549 C 0.44867 0.7958 0.899 0.0
C1550 C 0.54566 0.81304 0.8969 0.0
C1551 C 0.56597 0.78861 0.89635 0.0
C1552 C 0.57317 0.77476 0.88447 0.0
C1553 C 0.55823 0.78451 0.87323 0.0
C1554 C 0.53787 0.80886 0.87381 0.0
H1555 H 0.41471 0.78677 0.90078 0.0
H1556 H 0.44917 0.77016 0.89319 0.0
H1557 H 0.46385 0.79728 0.90838 0.0
H1558 H 0.54182 0.82468 0.9061 0.0
H1559 H 0.57743 0.78199 0.90517 0.0
H1560 H 0.55552 0.60275 0.60753 0.0
H1561 H 0.47909 0.54998 0.60573 0.0
H1562 H 0.46579 0.55173 0.64675 0.0
H1563 H 0.5422 0.60394 0.6487 0.0
H1564 H 0.41294 0.46946 0.63508 0.0
H1565 H 0.39977 0.60115 0.61137 0.0
H1566 H 0.43569 0.58653 0.60392 0.0
H1567 H 0.44776 0.61034 0.6196 0.0
C1568 C 0.53663 0.59099 0.61621 0.0
C1569 C 0.55471 0.60819 0.62824 0.0
C1570 C 0.49294 0.56102 0.61515 0.0
C1571 C 0.46677 0.54803 0.62607 0.0
C1572 C 0.48551 0.56176 0.63819 0.0
H1573 H 0.20197 0.42874 0.64747 0.0
H1574 H 0.28017 0.46528 0.64617 0.0
C1575 C 0.52922 0.59158 0.63929 0.0
C1576 C 0.41952 0.52441 0.62485 0.0
H1577 H 0.33566 0.53601 0.61464 0.0
C1578 C 0.39598 0.48378 0.63053 0.0
C1579 C 0.39763 0.54346 0.61896 0.0
C1580 C 0.42135 0.5879 0.61319 0.0
C1581 C 0.35094 0.46169 0.63052 0.0
C1582 C 0.32915 0.4812 0.62489 0.0
C1583 C 0.35264 0.52131 0.61894 0.0
C1584 C 0.28198 0.46121 0.62552 0.0
C1585 C 0.327 0.41771 0.63655 0.0
C1586 C 0.25737 0.44876 0.61428 0.0
C1587 C 0.2126 0.42814 0.61496 0.0
C1588 C 0.19188 0.41995 0.62691 0.0
C1589 C 0.21689 0.4344 0.63811 0.0
C1590 C 0.26155 0.4549 0.63741 0.0
H1591 H 0.34752 0.40281 0.63738 0.0
H1592 H 0.31659 0.42058 0.64633 0.0
H1593 H 0.29792 0.39602 0.6309 0.0
H1594 H 0.27274 0.45391 0.605 0.0
H1595 H 0.19426 0.41741 0.60615 0.0
H1596 H 0.21591 0.79699 0.90476 0.0
H1597 H 0.17726 0.71837 0.90548 0.0
H1598 H 0.18341 0.714 0.86428 0.0
H1599 H 0.22249 0.79219 0.86344 0.0
H1600 H 0.09795 0.66313 0.89392 0.0
H1601 H 0.22559 0.63316 0.8758 0.0
H1602 H 0.23669 0.68509 0.88152 0.0
H1603 H 0.21622 0.66779 0.86559 0.0
C1604 C 0.20972 0.77928 0.89587 0.0
C1605 C 0.22246 0.80082 0.88404 0.0
C1606 C 0.18743 0.73443 0.8963 0.0
C1607 C 0.17783 0.71051 0.88495 0.0
C1608 C 0.19118 0.73191 0.87317 0.0
H1609 H 0.04746 0.4458 0.86269 0.0
H1610 H 0.07225 0.52251 0.86361 0.0
C1611 C 0.21347 0.77664 0.87271 0.0
C1612 C 0.15239 0.66313 0.88528 0.0
H1613 H 0.15455 0.57321 0.87618 0.0
C1614 C 0.11034 0.64336 0.89014 0.0
C1615 C 0.16878 0.63759 0.88035 0.0
C1616 C 0.21443 0.65693 0.87564 0.0
C1617 C 0.0838 0.59852 0.88988 0.0
C1618 C 0.09995 0.57319 0.88468 0.0
C1619 C 0.14214 0.59295 0.87999 0.0
C1620 C 0.07458 0.52588 0.88431 0.0
C1621 C 0.03852 0.57854 0.89491 0.0
C1622 C 0.06578 0.50218 0.89567 0.0
C1623 C 0.05161 0.45827 0.8952 0.0
C1624 C 0.04649 0.43764 0.88333 0.0
C1625 C 0.05137 0.46075 0.87199 0.0
C1626 C 0.06559 0.50461 0.87248 0.0
H1627 H 0.02824 0.60272 0.89628 0.0
H1628 H 0.01578 0.55321 0.88828 0.0
H1629 H 0.03659 0.56319 0.9043 0.0
H1630 H 0.07296 0.51818 0.90489 0.0
H1631 H 0.04801 0.44137 0.90412 0.0
H1632 H 0.3894 0.94762 0.60842 0.0
H1633 H 0.44326 0.92515 0.60838 0.0
H1634 H 0.44744 0.92992 0.64965 0.0
H1635 H 0.39333 0.95205 0.64985 0.0
H1636 H 0.52865 0.95328 0.62069 0.0
H1637 H 0.39273 0.79981 0.63891 0.0
H1638 H 0.38503 0.84136 0.63191 0.0
H1639 H 0.40507 0.84712 0.64798 0.0
C1640 C 0.40277 0.9453 0.61749 0.0
C1641 C 0.38637 0.95065 0.62916 0.0
C1642 C 0.43355 0.93245 0.61743 0.0
C1643 C 0.44842 0.92501 0.62902 0.0
C1644 C 0.43575 0.93496 0.64062 0.0
H1645 H 0.57198 0.77984 0.64883 0.0
H1646 H 0.5351 0.82129 0.64868 0.0
C1647 C 0.40492 0.94771 0.6407 0.0
C1648 C 0.47179 0.90101 0.62902 0.0
H1649 H 0.45929 0.80298 0.63642 0.0
C1650 C 0.51367 0.92047 0.62414 0.0
C1651 C 0.45176 0.85808 0.63342 0.0
C1652 C 0.40605 0.83507 0.63827 0.0
C1653 C 0.53652 0.89822 0.62379 0.0
C1654 C 0.51644 0.85528 0.62821 0.0
C1655 C 0.47452 0.83591 0.63306 0.0
C1656 C 0.53842 0.82985 0.62811 0.0
C1657 C 0.58216 0.92104 0.61895 0.0
C1658 C 0.55141 0.81997 0.61654 0.0
C1659 C 0.5724 0.79612 0.61657 0.0
C1660 C 0.5805 0.7816 0.62818 0.0
C1661 C 0.56622 0.79049 0.63971 0.0
C1662 C 0.5453 0.81433 0.63966 0.0
H1663 H 0.59613 0.95646 0.61888 0.0
H1664 H 0.60279 0.91308 0.62492 0.0
H1665 H 0.58271 0.91053 0.60899 0.0
H1666 H 0.54542 0.83081 0.6075 0.0
H1667 H 0.58295 0.78977 0.60753 0.0
H1668 H 0.55762 0.59808 0.90308 0.0
H1669 H 0.48205 0.54268 0.90446 0.0
H1670 H 0.4704 0.54646 0.86342 0.0
H1671 H 0.54593 0.60132 0.86191 0.0
H1672 H 0.42295 0.56526 0.89684 0.0
H1673 H 0.39484 0.41897 0.87095 0.0
H1674 H 0.44737 0.45915 0.87652 0.0
H1675 H 0.42599 0.46724 0.86187 0.0
C1676 C 0.53943 0.58602 0.89429 0.0
C1677 C 0.55762 0.60459 0.8824 0.0
C1678 C 0.4962 0.55439 0.89511 0.0
C1679 C 0.47062 0.54056 0.88406 0.0
C1680 C 0.48967 0.55619 0.87206 0.0
H1681 H 0.20429 0.42483 0.86403 0.0
H1682 H 0.28268 0.46166 0.86489 0.0
C1683 C 0.53292 0.58776 0.87122 0.0
C1684 C 0.42329 0.5159 0.88521 0.0
H1685 H 0.33327 0.42738 0.87416 0.0
C1686 C 0.4033 0.53473 0.89206 0.0
C1687 C 0.39785 0.47642 0.87884 0.0
C1688 C 0.4176 0.45404 0.87173 0.0
C1689 C 0.35852 0.5159 0.89235 0.0
C1690 C 0.33308 0.47683 0.88578 0.0
C1691 C 0.35297 0.45747 0.87915 0.0
C1692 C 0.28574 0.45601 0.88545 0.0
C1693 C 0.33889 0.53883 0.89926 0.0
C1694 C 0.26164 0.44108 0.89676 0.0
C1695 C 0.21686 0.42034 0.89633 0.0
C1696 C 0.19544 0.41386 0.88455 0.0
C1697 C 0.21979 0.42949 0.87326 0.0
C1698 C 0.26455 0.45029 0.87372 0.0
H1699 H 0.36289 0.573 0.90118 0.0
H1700 H 0.31209 0.53754 0.89362 0.0
H1701 H 0.32582 0.52284 0.9086 0.0
H1702 H 0.27743 0.44466 0.90588 0.0
H1703 H 0.19906 0.40832 0.90518 0.0
loop_
_geom_bond_atom_site_label_1
_geom_bond_atom_site_label_2
_geom_bond_distance
_geom_bond_site_symmetry_2
_ccdc_geom_bond_type
C0 O16 1.251 . S
C0 O18 1.254 . S
N1 C2 1.333 . S
N1 C6 1.307 . S
N1 Zn7 2.020 . S
C2 N1 1.333 . S
C2 C3 1.379 . S
C2 H20 0.952 . S
C3 C2 1.379 . S
C3 C4 1.390 . S
C3 H30 0.949 . S
C4 C3 1.390 . S
C4 C5 1.357 . S
C5 C4 1.357 . S
C5 C6 1.370 . S
C5 H31 0.950 . S
C6 N1 1.307 . S
C6 C5 1.370 . S
C6 H24 0.948 . S
Zn7 N1 2.020 . S
Zn7 O16 2.039 . S
Zn7 O22 2.034 . S
Zn7 O26 2.025 . S
Zn7 O28 2.024 . S
C8 O27 1.246 . S
C8 O28 1.249 . S
N9 C10 1.307 . S
N9 C11 1.333 . S
N9 Zn15 2.020 . S
C10 N9 1.307 . S
C10 C14 1.370 . S
C10 H21 0.948 . S
C11 N9 1.333 . S
C11 C12 1.379 . S
C11 H19 0.952 . S
C12 C11 1.379 . S
C12 C13 1.390 . S
C12 H32 0.949 . S
C13 C12 1.390 . S
C13 C14 1.357 . S
C14 C10 1.370 . S
C14 C13 1.357 . S
C14 H33 0.950 . S
Zn15 N9 2.020 . S
Zn15 O18 2.025 . S
Zn15 O23 2.024 . S
Zn15 O25 2.039 . S
Zn15 O27 2.034 . S
O16 C0 1.251 . S
O16 Zn7 2.039 . S
C17 O22 1.246 . S
C17 O23 1.249 . S
O18 C0 1.254 . S
O18 Zn15 2.025 . S
H19 C11 0.952 . S
H20 C2 0.952 . S
H21 C10 0.948 . S
O22 Zn7 2.034 . S
O22 C17 1.246 . S
O23 Zn15 2.024 . S
O23 C17 1.249 . S
H24 C6 0.948 . S
O25 Zn15 2.039 . S
O25 C29 1.251 . S
O26 Zn7 2.025 . S
O26 C29 1.254 . S
O27 C8 1.246 . S
O27 Zn15 2.034 . S
O28 Zn7 2.024 . S
O28 C8 1.249 . S
C29 O25 1.251 . S
C29 O26 1.254 . S
H30 C3 0.949 . S
H31 C5 0.950 . S
H32 C12 0.949 . S
H33 C14 0.950 . S
C34 O50 1.251 . S
C34 O52 1.254 . S
N35 C36 1.333 . S
N35 C40 1.307 . S
N35 Zn41 2.020 . S
C36 N35 1.333 . S
C36 C37 1.379 . S
C36 H54 0.952 . S
C37 C36 1.379 . S
C37 C38 1.390 . S
C37 H64 0.949 . S
C38 C37 1.390 . S
C38 C39 1.357 . S
C39 C38 1.357 . S
C39 C40 1.370 . S
C39 H65 0.950 . S
C40 N35 1.307 . S
C40 C39 1.370 . S
C40 H58 0.948 . S
Zn41 N35 2.020 . S
Zn41 O50 2.039 . S
Zn41 O56 2.034 . S
Zn41 O60 2.025 . S
Zn41 O62 2.024 . S
C42 O61 1.246 . S
C42 O62 1.249 . S
N43 C44 1.307 . S
N43 C45 1.333 . S
N43 Zn49 2.020 . S
C44 N43 1.307 . S
C44 C48 1.370 . S
C44 H55 0.948 . S
C45 N43 1.333 . S
C45 C46 1.379 . S
C45 H53 0.952 . S
C46 C45 1.379 . S
C46 C47 1.390 . S
C46 H66 0.949 . S
C47 C46 1.390 . S
C47 C48 1.357 . S
C48 C44 1.370 . S
C48 C47 1.357 . S
C48 H67 0.950 . S
Zn49 N43 2.020 . S
Zn49 O52 2.025 . S
Zn49 O57 2.024 . S
Zn49 O59 2.039 . S
Zn49 O61 2.034 . S
O50 C34 1.251 . S
O50 Zn41 2.039 . S
C51 O56 1.246 . S
C51 O57 1.249 . S
O52 C34 1.254 . S
O52 Zn49 2.025 . S
H53 C45 0.952 . S
H54 C36 0.952 . S
H55 C44 0.948 . S
O56 Zn41 2.034 . S
O56 C51 1.246 . S
O57 Zn49 2.024 . S
O57 C51 1.249 . S
H58 C40 0.948 . S
O59 Zn49 2.039 . S
O59 C63 1.251 . S
O60 Zn41 2.025 . S
O60 C63 1.254 . S
O61 C42 1.246 . S
O61 Zn49 2.034 . S
O62 Zn41 2.024 . S
O62 C42 1.249 . S
C63 O59 1.251 . S
C63 O60 1.254 . S
H64 C37 0.949 . S
H65 C39 0.950 . S
H66 C46 0.949 . S
H67 C48 0.950 . S
C68 O84 1.251 . S
C68 O86 1.254 . S
N69 C70 1.333 . S
N69 C74 1.307 . S
N69 Zn75 2.020 . S
C70 N69 1.333 . S
C70 C71 1.379 . S
C70 H88 0.952 . S
C71 C70 1.379 . S
C71 C72 1.390 . S
C71 H98 0.949 . S
C72 C71 1.390 . S
C72 C73 1.357 . S
C73 C72 1.357 . S
C73 C74 1.370 . S
C73 H99 0.950 . S
C74 N69 1.307 . S
C74 C73 1.370 . S
C74 H92 0.948 . S
Zn75 N69 2.020 . S
Zn75 O84 2.039 . S
Zn75 O90 2.034 . S
Zn75 O94 2.025 . S
Zn75 O96 2.024 . S
C76 O95 1.246 . S
C76 O96 1.249 . S
N77 C78 1.307 . S
N77 C79 1.333 . S
N77 Zn83 2.020 . S
C78 N77 1.307 . S
C78 C82 1.370 . S
C78 H89 0.948 . S
C79 N77 1.333 . S
C79 C80 1.379 . S
C79 H87 0.952 . S
C80 C79 1.379 . S
C80 C81 1.390 . S
C80 H100 0.949 . S
C81 C80 1.390 . S
C81 C82 1.357 . S
C82 C78 1.370 . S
C82 C81 1.357 . S
C82 H101 0.950 . S
Zn83 N77 2.020 . S
Zn83 O86 2.025 . S
Zn83 O91 2.024 . S
Zn83 O93 2.039 . S
Zn83 O95 2.034 . S
O84 C68 1.251 . S
O84 Zn75 2.039 . S
C85 O90 1.246 . S
C85 O91 1.249 . S
O86 C68 1.254 . S
O86 Zn83 2.025 . S
H87 C79 0.952 . S
H88 C70 0.952 . S
H89 C78 0.948 . S
O90 Zn75 2.034 . S
O90 C85 1.246 . S
O91 Zn83 2.024 . S
O91 C85 1.249 . S
H92 C74 0.948 . S
O93 Zn83 2.039 . S
O93 C97 1.251 . S
O94 Zn75 2.025 . S
O94 C97 1.254 . S
O95 C76 1.246 . S
O95 Zn83 2.034 . S
O96 Zn75 2.024 . S
O96 C76 1.249 . S
C97 O93 1.251 . S
C97 O94 1.254 . S
H98 C71 0.949 . S
H99 C73 0.950 . S
H100 C80 0.949 . S
H101 C82 0.950 . S
C102 O118 1.251 . S
C102 O120 1.254 . S
N103 C104 1.333 . S
N103 C108 1.307 . S
N103 Zn109 2.020 . S
C104 N103 1.333 . S
C104 C105 1.379 . S
C104 H122 0.952 . S
C105 C104 1.379 . S
C105 C106 1.390 . S
C105 H132 0.949 . S
C106 C105 1.390 . S
C106 C107 1.357 . S
C107 C106 1.357 . S
C107 C108 1.370 . S
C107 H133 0.950 . S
C108 N103 1.307 . S
C108 C107 1.370 . S
C108 H126 0.948 . S
Zn109 N103 2.020 . S
Zn109 O118 2.039 . S
Zn109 O124 2.034 . S
Zn109 O128 2.025 . S
Zn109 O130 2.024 . S
C110 O129 1.246 . S
C110 O130 1.249 . S
N111 C112 1.307 . S
N111 C113 1.333 . S
N111 Zn117 2.020 . S
C112 N111 1.307 . S
C112 C116 1.370 . S
C112 H123 0.948 . S
C113 N111 1.333 . S
C113 C114 1.379 . S
C113 H121 0.952 . S
C114 C113 1.379 . S
C114 C115 1.390 . S
C114 H134 0.949 . S
C115 C114 1.390 . S
C115 C116 1.357 . S
C116 C112 1.370 . S
C116 C115 1.357 . S
C116 H135 0.950 . S
Zn117 N111 2.020 . S
Zn117 O120 2.025 . S
Zn117 O125 2.024 . S
Zn117 O127 2.039 . S
Zn117 O129 2.034 . S
O118 C102 1.251 . S
O118 Zn109 2.039 . S
C119 O124 1.246 . S
C119 O125 1.249 . S
O120 C102 1.254 . S
O120 Zn117 2.025 . S
H121 C113 0.952 . S
H122 C104 0.952 . S
H123 C112 0.948 . S
O124 Zn109 2.034 . S
O124 C119 1.246 . S
O125 Zn117 2.024 . S
O125 C119 1.249 . S
H126 C108 0.948 . S
O127 Zn117 2.039 . S
O127 C131 1.251 . S
O128 Zn109 2.025 . S
O128 C131 1.254 . S
O129 C110 1.246 . S
O129 Zn117 2.034 . S
O130 Zn109 2.024 . S
O130 C110 1.249 . S
C131 O127 1.251 . S
C131 O128 1.254 . S
H132 C105 0.949 . S
H133 C107 0.950 . S
H134 C114 0.949 . S
H135 C116 0.950 . S
C136 O152 1.251 . S
C136 O154 1.254 . S
N137 C138 1.333 . S
N137 C142 1.307 . S
N137 Zn143 2.020 . S
C138 N137 1.333 . S
C138 C139 1.379 . S
C138 H156 0.952 . S
C139 C138 1.379 . S
C139 C140 1.390 . S
C139 H166 0.949 . S
C140 C139 1.390 . S
C140 C141 1.357 . S
C141 C140 1.357 . S
C141 C142 1.370 . S
C141 H167 0.950 . S
C142 N137 1.307 . S
C142 C141 1.370 . S
C142 H160 0.948 . S
Zn143 N137 2.020 . S
Zn143 O152 2.039 . S
Zn143 O158 2.034 . S
Zn143 O162 2.025 . S
Zn143 O164 2.024 . S
C144 O163 1.246 . S
C144 O164 1.249 . S
N145 C146 1.307 . S
N145 C147 1.333 . S
N145 Zn151 2.020 . S
C146 N145 1.307 . S
C146 C150 1.370 . S
C146 H157 0.948 . S
C147 N145 1.333 . S
C147 C148 1.379 . S
C147 H155 0.952 . S
C148 C147 1.379 . S
C148 C149 1.390 . S
C148 H168 0.949 . S
C149 C148 1.390 . S
C149 C150 1.357 . S
C150 C146 1.370 . S
C150 C149 1.357 . S
C150 H169 0.950 . S
Zn151 N145 2.020 . S
Zn151 O154 2.025 . S
Zn151 O159 2.024 . S
Zn151 O161 2.039 . S
Zn151 O163 2.034 . S
O152 C136 1.251 . S
O152 Zn143 2.039 . S
C153 O158 1.246 . S
C153 O159 1.249 . S
O154 C136 1.254 . S
O154 Zn151 2.025 . S
H155 C147 0.952 . S
H156 C138 0.952 . S
H157 C146 0.948 . S
O158 Zn143 2.034 . S
O158 C153 1.246 . S
O159 Zn151 2.024 . S
O159 C153 1.249 . S
H160 C142 0.948 . S
O161 Zn151 2.039 . S
O161 C165 1.251 . S
O162 Zn143 2.025 . S
O162 C165 1.254 . S
O163 C144 1.246 . S
O163 Zn151 2.034 . S
O164 Zn143 2.024 . S
O164 C144 1.249 . S
C165 O161 1.251 . S
C165 O162 1.254 . S
H166 C139 0.949 . S
H167 C141 0.950 . S
H168 C148 0.949 . S
H169 C150 0.950 . S
C170 O186 1.251 . S
C170 O188 1.254 . S
N171 C172 1.333 . S
N171 C176 1.307 . S
N171 Zn177 2.020 . S
C172 N171 1.333 . S
C172 C173 1.379 . S
C172 H190 0.952 . S
C173 C172 1.379 . S
C173 C174 1.390 . S
C173 H200 0.949 . S
C174 C173 1.390 . S
C174 C175 1.357 . S
C175 C174 1.357 . S
C175 C176 1.370 . S
C175 H201 0.950 . S
C176 N171 1.307 . S
C176 C175 1.370 . S
C176 H194 0.948 . S
Zn177 N171 2.020 . S
Zn177 O186 2.039 . S
Zn177 O192 2.034 . S
Zn177 O196 2.025 . S
Zn177 O198 2.024 . S
C178 O197 1.246 . S
C178 O198 1.249 . S
N179 C180 1.307 . S
N179 C181 1.333 . S
N179 Zn185 2.020 . S
C180 N179 1.307 . S
C180 C184 1.370 . S
C180 H191 0.948 . S
C181 N179 1.333 . S
C181 C182 1.379 . S
C181 H189 0.952 . S
C182 C181 1.379 . S
C182 C183 1.390 . S
C182 H202 0.949 . S
C183 C182 1.390 . S
C183 C184 1.357 . S
C184 C180 1.370 . S
C184 C183 1.357 . S
C184 H203 0.950 . S
Zn185 N179 2.020 . S
Zn185 O188 2.025 . S
Zn185 O193 2.024 . S
Zn185 O195 2.039 . S
Zn185 O197 2.034 . S
O186 C170 1.251 . S
O186 Zn177 2.039 . S
C187 O192 1.246 . S
C187 O193 1.249 . S
O188 C170 1.254 . S
O188 Zn185 2.025 . S
H189 C181 0.952 . S
H190 C172 0.952 . S
H191 C180 0.948 . S
O192 Zn177 2.034 . S
O192 C187 1.246 . S
O193 Zn185 2.024 . S
O193 C187 1.249 . S
H194 C176 0.948 . S
O195 Zn185 2.039 . S
O195 C199 1.251 . S
O196 Zn177 2.025 . S
O196 C199 1.254 . S
O197 C178 1.246 . S
O197 Zn185 2.034 . S
O198 Zn177 2.024 . S
O198 C178 1.249 . S
C199 O195 1.251 . S
C199 O196 1.254 . S
H200 C173 0.949 . S
H201 C175 0.950 . S
H202 C182 0.949 . S
H203 C184 0.950 . S
C204 O220 1.251 . S
C204 O222 1.254 . S
N205 C206 1.333 . S
N205 C210 1.307 . S
N205 Zn211 2.020 . S
C206 N205 1.333 . S
C206 C207 1.379 . S
C206 H224 0.952 . S
C207 C206 1.379 . S
C207 C208 1.390 . S
C207 H234 0.949 . S
C208 C207 1.390 . S
C208 C209 1.357 . S
C209 C208 1.357 . S
C209 C210 1.370 . S
C209 H235 0.950 . S
C210 N205 1.307 . S
C210 C209 1.370 . S
C210 H228 0.948 . S
Zn211 N205 2.020 . S
Zn211 O220 2.039 . S
Zn211 O226 2.034 . S
Zn211 O230 2.025 . S
Zn211 O232 2.024 . S
C212 O231 1.246 . S
C212 O232 1.249 . S
N213 C214 1.307 . S
N213 C215 1.333 . S
N213 Zn219 2.020 . S
C214 N213 1.307 . S
C214 C218 1.370 . S
C214 H225 0.948 . S
C215 N213 1.333 . S
C215 C216 1.379 . S
C215 H223 0.952 . S
C216 C215 1.379 . S
C216 C217 1.390 . S
C216 H236 0.949 . S
C217 C216 1.390 . S
C217 C218 1.357 . S
C218 C214 1.370 . S
C218 C217 1.357 . S
C218 H237 0.950 . S
Zn219 N213 2.020 . S
Zn219 O222 2.025 . S
Zn219 O227 2.024 . S
Zn219 O229 2.039 . S
Zn219 O231 2.034 . S
O220 C204 1.251 . S
O220 Zn211 2.039 . S
C221 O226 1.246 . S
C221 O227 1.249 . S
O222 C204 1.254 . S
O222 Zn219 2.025 . S
H223 C215 0.952 . S
H224 C206 0.952 . S
H225 C214 0.948 . S
O226 Zn211 2.034 . S
O226 C221 1.246 . S
O227 Zn219 2.024 . S
O227 C221 1.249 . S
H228 C210 0.948 . S
O229 Zn219 2.039 . S
O229 C233 1.251 . S
O230 Zn211 2.025 . S
O230 C233 1.254 . S
O231 C212 1.246 . S
O231 Zn219 2.034 . S
O232 Zn211 2.024 . S
O232 C212 1.249 . S
C233 O229 1.251 . S
C233 O230 1.254 . S
H234 C207 0.949 . S
H235 C209 0.950 . S
H236 C216 0.949 . S
H237 C218 0.950 . S
C238 O254 1.251 . S
C238 O256 1.254 . S
N239 C240 1.333 . S
N239 C244 1.307 . S
N239 Zn245 2.020 . S
C240 N239 1.333 . S
C240 C241 1.379 . S
C240 H258 0.952 . S
C241 C240 1.379 . S
C241 C242 1.390 . S
C241 H268 0.949 . S
C242 C241 1.390 . S
C242 C243 1.357 . S
C243 C242 1.357 . S
C243 C244 1.370 . S
C243 H269 0.950 . S
C244 N239 1.307 . S
C244 C243 1.370 . S
C244 H262 0.948 . S
Zn245 N239 2.020 . S
Zn245 O254 2.039 . S
Zn245 O260 2.034 . S
Zn245 O264 2.025 . S
Zn245 O266 2.024 . S
C246 O265 1.246 . S
C246 O266 1.249 . S
N247 C248 1.307 . S
N247 C249 1.333 . S
N247 Zn253 2.020 . S
C248 N247 1.307 . S
C248 C252 1.370 . S
C248 H259 0.948 . S
C249 N247 1.333 . S
C249 C250 1.379 . S
C249 H257 0.952 . S
C250 C249 1.379 . S
C250 C251 1.390 . S
C250 H270 0.949 . S
C251 C250 1.390 . S
C251 C252 1.357 . S
C252 C248 1.370 . S
C252 C251 1.357 . S
C252 H271 0.950 . S
Zn253 N247 2.020 . S
Zn253 O256 2.025 . S
Zn253 O261 2.024 . S
Zn253 O263 2.039 . S
Zn253 O265 2.034 . S
O254 C238 1.251 . S
O254 Zn245 2.039 . S
C255 O260 1.246 . S
C255 O261 1.249 . S
O256 C238 1.254 . S
O256 Zn253 2.025 . S
H257 C249 0.952 . S
H258 C240 0.952 . S
H259 C248 0.948 . S
O260 Zn245 2.034 . S
O260 C255 1.246 . S
O261 Zn253 2.024 . S
O261 C255 1.249 . S
H262 C244 0.948 . S
O263 Zn253 2.039 . S
O263 C267 1.251 . S
O264 Zn245 2.025 . S
O264 C267 1.254 . S
O265 C246 1.246 . S
O265 Zn253 2.034 . S
O266 Zn245 2.024 . S
O266 C246 1.249 . S
C267 O263 1.251 . S
C267 O264 1.254 . S
H268 C241 0.949 . S
H269 C243 0.950 . S
H270 C250 0.949 . S
H271 C252 0.950 . S
C272 O288 1.251 . S
C272 O290 1.254 . S
N273 C274 1.333 . S
N273 C278 1.307 . S
N273 Zn279 2.020 . S
C274 N273 1.333 . S
C274 C275 1.379 . S
C274 H292 0.952 . S
C275 C274 1.379 . S
C275 C276 1.390 . S
C275 H302 0.949 . S
C276 C275 1.390 . S
C276 C277 1.357 . S
C277 C276 1.357 . S
C277 C278 1.370 . S
C277 H303 0.950 . S
C278 N273 1.307 . S
C278 C277 1.370 . S
C278 H296 0.948 . S
Zn279 N273 2.020 . S
Zn279 O288 2.039 . S
Zn279 O294 2.034 . S
Zn279 O298 2.025 . S
Zn279 O300 2.024 . S
C280 O299 1.246 . S
C280 O300 1.249 . S
N281 C282 1.307 . S
N281 C283 1.333 . S
N281 Zn287 2.020 . S
C282 N281 1.307 . S
C282 C286 1.370 . S
C282 H293 0.948 . S
C283 N281 1.333 . S
C283 C284 1.379 . S
C283 H291 0.952 . S
C284 C283 1.379 . S
C284 C285 1.390 . S
C284 H304 0.949 . S
C285 C284 1.390 . S
C285 C286 1.357 . S
C286 C282 1.370 . S
C286 C285 1.357 . S
C286 H305 0.950 . S
Zn287 N281 2.020 . S
Zn287 O290 2.025 . S
Zn287 O295 2.024 . S
Zn287 O297 2.039 . S
Zn287 O299 2.034 . S
O288 C272 1.251 . S
O288 Zn279 2.039 . S
C289 O294 1.246 . S
C289 O295 1.249 . S
O290 C272 1.254 . S
O290 Zn287 2.025 . S
H291 C283 0.952 . S
H292 C274 0.952 . S
H293 C282 0.948 . S
O294 Zn279 2.034 . S
O294 C289 1.246 . S
O295 Zn287 2.024 . S
O295 C289 1.249 . S
H296 C278 0.948 . S
O297 Zn287 2.039 . S
O297 C301 1.251 . S
O298 Zn279 2.025 . S
O298 C301 1.254 . S
O299 C280 1.246 . S
O299 Zn287 2.034 . S
O300 Zn279 2.024 . S
O300 C280 1.249 . S
C301 O297 1.251 . S
C301 O298 1.254 . S
H302 C275 0.949 . S
H303 C277 0.950 . S
H304 C284 0.949 . S
H305 C286 0.950 . S
C306 O322 1.251 . S
C306 O324 1.254 . S
N307 C308 1.333 . S
N307 C312 1.307 . S
N307 Zn313 2.020 . S
C308 N307 1.333 . S
C308 C309 1.379 . S
C308 H326 0.952 . S
C309 C308 1.379 . S
C309 C310 1.390 . S
C309 H336 0.949 . S
C310 C309 1.390 . S
C310 C311 1.357 . S
C311 C310 1.357 . S
C311 C312 1.370 . S
C311 H337 0.950 . S
C312 N307 1.307 . S
C312 C311 1.370 . S
C312 H330 0.948 . S
Zn313 N307 2.020 . S
Zn313 O322 2.039 . S
Zn313 O328 2.034 . S
Zn313 O332 2.025 . S
Zn313 O334 2.024 . S
C314 O333 1.246 . S
C314 O334 1.249 . S
N315 C316 1.307 . S
N315 C317 1.333 . S
N315 Zn321 2.020 . S
C316 N315 1.307 . S
C316 C320 1.370 . S
C316 H327 0.948 . S
C317 N315 1.333 . S
C317 C318 1.379 . S
C317 H325 0.952 . S
C318 C317 1.379 . S
C318 C319 1.390 . S
C318 H338 0.949 . S
C319 C318 1.390 . S
C319 C320 1.357 . S
C320 C316 1.370 . S
C320 C319 1.357 . S
C320 H339 0.950 . S
Zn321 N315 2.020 . S
Zn321 O324 2.025 . S
Zn321 O329 2.024 . S
Zn321 O331 2.039 . S
Zn321 O333 2.034 . S
O322 C306 1.251 . S
O322 Zn313 2.039 . S
C323 O328 1.246 . S
C323 O329 1.249 . S
O324 C306 1.254 . S
O324 Zn321 2.025 . S
H325 C317 0.952 . S
H326 C308 0.952 . S
H327 C316 0.948 . S
O328 Zn313 2.034 . S
O328 C323 1.246 . S
O329 Zn321 2.024 . S
O329 C323 1.249 . S
H330 C312 0.948 . S
O331 Zn321 2.039 . S
O331 C335 1.251 . S
O332 Zn313 2.025 . S
O332 C335 1.254 . S
O333 C314 1.246 . S
O333 Zn321 2.034 . S
O334 Zn313 2.024 . S
O334 C314 1.249 . S
C335 O331 1.251 . S
C335 O332 1.254 . S
H336 C309 0.949 . S
H337 C311 0.950 . S
H338 C318 0.949 . S
H339 C320 0.950 . S
C340 O356 1.251 . S
C340 O358 1.254 . S
N341 C342 1.333 . S
N341 C346 1.307 . S
N341 Zn347 2.020 . S
C342 N341 1.333 . S
C342 C343 1.379 . S
C342 H360 0.952 . S
C343 C342 1.379 . S
C343 C344 1.390 . S
C343 H370 0.949 . S
C344 C343 1.390 . S
C344 C345 1.357 . S
C345 C344 1.357 . S
C345 C346 1.370 . S
C345 H371 0.950 . S
C346 N341 1.307 . S
C346 C345 1.370 . S
C346 H364 0.948 . S
Zn347 N341 2.020 . S
Zn347 O356 2.039 . S
Zn347 O362 2.034 . S
Zn347 O366 2.025 . S
Zn347 O368 2.024 . S
C348 O367 1.246 . S
C348 O368 1.249 . S
N349 C350 1.307 . S
N349 C351 1.333 . S
N349 Zn355 2.020 . S
C350 N349 1.307 . S
C350 C354 1.370 . S
C350 H361 0.948 . S
C351 N349 1.333 . S
C351 C352 1.379 . S
C351 H359 0.952 . S
C352 C351 1.379 . S
C352 C353 1.390 . S
C352 H372 0.949 . S
C353 C352 1.390 . S
C353 C354 1.357 . S
C354 C350 1.370 . S
C354 C353 1.357 . S
C354 H373 0.950 . S
Zn355 N349 2.020 . S
Zn355 O358 2.025 . S
Zn355 O363 2.024 . S
Zn355 O365 2.039 . S
Zn355 O367 2.034 . S
O356 C340 1.251 . S
O356 Zn347 2.039 . S
C357 O362 1.246 . S
C357 O363 1.249 . S
O358 C340 1.254 . S
O358 Zn355 2.025 . S
H359 C351 0.952 . S
H360 C342 0.952 . S
H361 C350 0.948 . S
O362 Zn347 2.034 . S
O362 C357 1.246 . S
O363 Zn355 2.024 . S
O363 C357 1.249 . S
H364 C346 0.948 . S
O365 Zn355 2.039 . S
O365 C369 1.251 . S
O366 Zn347 2.025 . S
O366 C369 1.254 . S
O367 C348 1.246 . S
O367 Zn355 2.034 . S
O368 Zn347 2.024 . S
O368 C348 1.249 . S
C369 O365 1.251 . S
C369 O366 1.254 . S
H370 C343 0.949 . S
H371 C345 0.950 . S
H372 C352 0.949 . S
H373 C354 0.950 . S
C374 O390 1.251 . S
C374 O392 1.254 . S
N375 C376 1.333 . S
N375 C380 1.307 . S
N375 Zn381 2.020 . S
C376 N375 1.333 . S
C376 C377 1.379 . S
C376 H394 0.952 . S
C377 C376 1.379 . S
C377 C378 1.390 . S
C377 H404 0.949 . S
C378 C377 1.390 . S
C378 C379 1.357 . S
C379 C378 1.357 . S
C379 C380 1.370 . S
C379 H405 0.950 . S
C380 N375 1.307 . S
C380 C379 1.370 . S
C380 H398 0.948 . S
Zn381 N375 2.020 . S
Zn381 O390 2.039 . S
Zn381 O396 2.034 . S
Zn381 O400 2.025 . S
Zn381 O402 2.024 . S
C382 O401 1.246 . S
C382 O402 1.249 . S
N383 C384 1.307 . S
N383 C385 1.333 . S
N383 Zn389 2.020 . S
C384 N383 1.307 . S
C384 C388 1.370 . S
C384 H395 0.948 . S
C385 N383 1.333 . S
C385 C386 1.379 . S
C385 H393 0.952 . S
C386 C385 1.379 . S
C386 C387 1.390 . S
C386 H406 0.949 . S
C387 C386 1.390 . S
C387 C388 1.357 . S
C388 C384 1.370 . S
C388 C387 1.357 . S
C388 H407 0.950 . S
Zn389 N383 2.020 . S
Zn389 O392 2.025 . S
Zn389 O397 2.024 . S
Zn389 O399 2.039 . S
Zn389 O401 2.034 . S
O390 C374 1.251 . S
O390 Zn381 2.039 . S
C391 O396 1.246 . S
C391 O397 1.249 . S
O392 C374 1.254 . S
O392 Zn389 2.025 . S
H393 C385 0.952 . S
H394 C376 0.952 . S
H395 C384 0.948 . S
O396 Zn381 2.034 . S
O396 C391 1.246 . S
O397 Zn389 2.024 . S
O397 C391 1.249 . S
H398 C380 0.948 . S
O399 Zn389 2.039 . S
O399 C403 1.251 . S
O400 Zn381 2.025 . S
O400 C403 1.254 . S
O401 C382 1.246 . S
O401 Zn389 2.034 . S
O402 Zn381 2.024 . S
O402 C382 1.249 . S
C403 O399 1.251 . S
C403 O400 1.254 . S
H404 C377 0.949 . S
H405 C379 0.950 . S
H406 C386 0.949 . S
H407 C388 0.950 . S
H408 C416 0.929 . S
H409 C418 0.930 . S
H410 C420 0.930 . S
H411 C423 0.940 1_455 S
H412 C426 0.930 . S
H413 C428 0.960 . S
H414 C428 0.960 . S
H415 C428 0.960 . S
C416 H408 0.929 . S
C416 C417 1.377 . S
C416 C418 1.384 . S
C417 C416 1.377 . S
C417 C423 1.390 . S
C418 H409 0.930 . S
C418 C416 1.384 . S
C418 C419 1.372 1_655 S
C419 C418 1.372 1_455 S
C419 C420 1.400 . S
C419 C424 1.490 . S
C420 H410 0.930 . S
C420 C419 1.400 . S
C420 C423 1.385 1_455 S
H421 C437 0.930 . S
H422 C438 0.931 . S
C423 H411 0.940 1_655 S
C423 C417 1.390 . S
C423 C420 1.385 1_655 S
C424 C419 1.490 . S
C424 C426 1.395 . S
C424 C427 1.403 . S
H425 C431 0.930 . S
C426 H412 0.930 . S
C426 C424 1.395 . S
C426 C429 1.403 . S
C427 C424 1.403 . S
C427 C428 1.524 . S
C427 C431 1.400 . S
C428 H413 0.960 . S
C428 H414 0.960 . S
C428 H415 0.960 . S
C428 C427 1.524 . S
C429 C426 1.403 . S
C429 C430 1.392 . S
C429 C433 1.495 . S
C430 C429 1.392 . S
C430 C431 1.385 . S
C430 C432 1.478 . S
C431 H425 0.930 . S
C431 C427 1.400 . S
C431 C430 1.385 . S
C432 C430 1.478 . S
C432 C434 1.381 . S
C432 C438 1.383 . S
C433 C429 1.495 . S
C433 H439 0.959 . S
C433 H440 0.961 . S
C433 H441 0.960 . S
C434 C432 1.381 . S
C434 C435 1.394 . S
C434 H442 0.930 . S
C435 C434 1.394 . S
C435 C436 1.383 . S
C435 H443 0.929 . S
C436 C435 1.383 . S
C436 C437 1.377 . S
C437 H421 0.930 . S
C437 C436 1.377 . S
C437 C438 1.379 . S
C438 H422 0.931 . S
C438 C432 1.383 . S
C438 C437 1.379 . S
H439 C433 0.959 . S
H440 C433 0.961 . S
H441 C433 0.960 . S
H442 C434 0.930 . S
H443 C435 0.929 . S
H444 C452 0.929 . S
H445 C454 0.930 . S
H446 C456 0.930 . S
H447 C459 0.929 . S
H448 C462 0.930 . S
H449 C464 0.960 . S
H450 C464 0.960 . S
H451 C464 0.960 . S
C452 H444 0.929 . S
C452 C453 1.377 . S
C452 C454 1.384 1_545 S
C453 C452 1.377 . S
C453 C459 1.390 . S
C454 H445 0.930 . S
C454 C452 1.384 1_565 S
C454 C455 1.372 . S
C455 C454 1.372 . S
C455 C456 1.400 . S
C455 C460 1.490 . S
C456 H446 0.930 . S
C456 C455 1.400 . S
C456 C459 1.386 1_565 S
H457 C473 0.930 . S
H458 C474 0.931 . S
C459 H447 0.929 . S
C459 C453 1.390 . S
C459 C456 1.386 1_545 S
C460 C455 1.490 . S
C460 C462 1.395 . S
C460 C463 1.403 . S
H461 C467 0.930 . S
C462 H448 0.930 . S
C462 C460 1.395 . S
C462 C465 1.403 . S
C463 C460 1.403 . S
C463 C464 1.524 . S
C463 C467 1.400 . S
C464 H449 0.960 . S
C464 H450 0.960 . S
C464 H451 0.960 . S
C464 C463 1.524 . S
C465 C462 1.403 . S
C465 C466 1.392 . S
C465 C469 1.495 . S
C466 C465 1.392 . S
C466 C467 1.385 . S
C466 C468 1.478 1_455 S
C467 H461 0.930 . S
C467 C463 1.400 . S
C467 C466 1.385 . S
C468 C466 1.478 1_655 S
C468 C470 1.381 . S
C468 C474 1.383 . S
C469 C465 1.495 . S
C469 H475 0.959 . S
C469 H476 0.961 1_455 S
C469 H477 0.960 1_455 S
C470 C468 1.381 . S
C470 C471 1.394 . S
C470 H478 0.930 . S
C471 C470 1.394 . S
C471 C472 1.383 . S
C471 H479 0.929 . S
C472 C471 1.383 . S
C472 C473 1.377 . S
C473 H457 0.930 . S
C473 C472 1.377 . S
C473 C474 1.379 . S
C474 H458 0.931 . S
C474 C468 1.383 . S
C474 C473 1.379 . S
H475 C469 0.959 . S
H476 C469 0.961 1_655 S
H477 C469 0.960 1_655 S
H478 C470 0.930 . S
H479 C471 0.929 . S
H480 C488 0.929 . S
H481 C490 0.930 . S
H482 C492 0.930 1_565 S
H483 C495 0.929 . S
H484 C498 0.930 . S
H485 C500 0.960 . S
H486 C500 0.960 . S
H487 C500 0.960 . S
C488 H480 0.929 . S
C488 C489 1.377 . S
C488 C490 1.384 . S
C489 C488 1.377 . S
C489 C495 1.390 . S
C490 H481 0.930 . S
C490 C488 1.384 . S
C490 C491 1.372 . S
C491 C490 1.372 . S
C491 C492 1.400 . S
C491 C496 1.490 1_545 S
C492 H482 0.930 1_545 S
C492 C491 1.400 . S
C492 C495 1.386 . S
H493 C509 0.930 . S
H494 C510 0.931 . S
C495 H483 0.929 . S
C495 C489 1.390 . S
C495 C492 1.386 . S
C496 C491 1.490 1_565 S
C496 C498 1.395 . S
C496 C499 1.403 . S
H497 C503 0.930 . S
C498 H484 0.930 . S
C498 C496 1.395 . S
C498 C501 1.403 . S
C499 C496 1.403 . S
C499 C500 1.524 . S
C499 C503 1.400 . S
C500 H485 0.960 . S
C500 H486 0.960 . S
C500 H487 0.960 . S
C500 C499 1.524 . S
C501 C498 1.403 . S
C501 C502 1.392 . S
C501 C505 1.495 . S
C502 C501 1.392 . S
C502 C503 1.385 . S
C502 C504 1.478 . S
C503 H497 0.930 . S
C503 C499 1.400 . S
C503 C502 1.385 . S
C504 C502 1.478 . S
C504 C506 1.381 . S
C504 C510 1.383 . S
C505 C501 1.495 . S
C505 H511 0.959 . S
C505 H512 0.961 . S
C505 H513 0.960 . S
C506 C504 1.381 . S
C506 C507 1.394 . S
C506 H514 0.930 . S
C507 C506 1.394 . S
C507 C508 1.383 . S
C507 H515 0.929 . S
C508 C507 1.383 . S
C508 C509 1.377 . S
C509 H493 0.930 . S
C509 C508 1.377 . S
C509 C510 1.379 . S
C510 H494 0.931 . S
C510 C504 1.383 . S
C510 C509 1.379 . S
H511 C505 0.959 . S
H512 C505 0.961 . S
H513 C505 0.960 . S
H514 C506 0.930 . S
H515 C507 0.929 . S
H516 C524 0.929 . S
H517 C526 0.930 . S
H518 C528 0.930 . S
H519 C531 0.929 . S
H520 C534 0.930 . S
H521 C536 0.960 . S
H522 C536 0.960 . S
H523 C536 0.960 . S
C524 H516 0.929 . S
C524 C525 1.377 . S
C524 C526 1.384 . S
C525 C524 1.377 . S
C525 C531 1.390 . S
C526 H517 0.930 . S
C526 C524 1.384 . S
C526 C527 1.372 . S
C527 C526 1.372 . S
C527 C528 1.400 . S
C527 C532 1.490 . S
C528 H518 0.930 . S
C528 C527 1.400 . S
C528 C531 1.386 . S
H529 C545 0.930 . S
H530 C546 0.931 . S
C531 H519 0.929 . S
C531 C525 1.390 . S
C531 C528 1.386 . S
C532 C527 1.490 . S
C532 C534 1.395 . S
C532 C535 1.403 . S
H533 C539 0.930 . S
C534 H520 0.930 . S
C534 C532 1.395 . S
C534 C537 1.403 . S
C535 C532 1.403 . S
C535 C536 1.524 . S
C535 C539 1.400 . S
C536 H521 0.960 . S
C536 H522 0.960 . S
C536 H523 0.960 . S
C536 C535 1.524 . S
C537 C534 1.403 . S
C537 C538 1.392 . S
C537 C541 1.495 . S
C538 C537 1.392 . S
C538 C539 1.385 . S
C538 C540 1.478 . S
C539 H533 0.930 . S
C539 C535 1.400 . S
C539 C538 1.385 . S
C540 C538 1.478 . S
C540 C542 1.381 . S
C540 C546 1.383 . S
C541 C537 1.495 . S
C541 H547 0.959 . S
C541 H548 0.961 . S
C541 H549 0.960 . S
C542 C540 1.381 . S
C542 C543 1.394 1_455 S
C542 H550 0.930 . S
C543 C542 1.394 1_655 S
C543 C544 1.383 . S
C543 H551 0.929 . S
C544 C543 1.383 . S
C544 C545 1.377 . S
C545 H529 0.930 . S
C545 C544 1.377 . S
C545 C546 1.379 1_655 S
C546 H530 0.931 . S
C546 C540 1.383 . S
C546 C545 1.379 1_455 S
H547 C541 0.959 . S
H548 C541 0.961 . S
H549 C541 0.960 . S
H550 C542 0.930 . S
H551 C543 0.929 . S
H552 C560 0.929 . S
H553 C562 0.930 . S
H554 C564 0.930 . S
H555 C567 0.929 . S
H556 C570 0.930 . S
H557 C572 0.960 . S
H558 C572 0.960 . S
H559 C572 0.960 . S
C560 H552 0.929 . S
C560 C561 1.377 1_565 S
C560 C562 1.384 . S
C561 C560 1.377 1_545 S
C561 C567 1.390 . S
C562 H553 0.930 . S
C562 C560 1.384 . S
C562 C563 1.372 . S
C563 C562 1.372 . S
C563 C564 1.400 1_565 S
C563 C568 1.490 . S
C564 H554 0.930 . S
C564 C563 1.400 1_545 S
C564 C567 1.386 . S
H565 C581 0.930 . S
H566 C582 0.931 . S
C567 H555 0.929 . S
C567 C561 1.390 . S
C567 C564 1.386 . S
C568 C563 1.490 . S
C568 C570 1.395 . S
C568 C571 1.403 . S
H569 C575 0.930 . S
C570 H556 0.930 . S
C570 C568 1.395 . S
C570 C573 1.403 . S
C571 C568 1.403 . S
C571 C572 1.524 . S
C571 C575 1.400 . S
C572 H557 0.960 . S
C572 H558 0.960 . S
C572 H559 0.960 . S
C572 C571 1.524 . S
C573 C570 1.403 . S
C573 C574 1.392 . S
C573 C577 1.495 . S
C574 C573 1.392 . S
C574 C575 1.385 . S
C574 C576 1.478 1_455 S
C575 H569 0.930 . S
C575 C571 1.400 . S
C575 C574 1.385 . S
C576 C574 1.478 1_655 S
C576 C578 1.381 . S
C576 C582 1.383 . S
C577 C573 1.495 . S
C577 H583 0.959 . S
C577 H584 0.961 . S
C577 H585 0.960 . S
C578 C576 1.381 . S
C578 C579 1.394 . S
C578 H586 0.930 1_655 S
C579 C578 1.394 . S
C579 C580 1.383 . S
C579 H587 0.929 . S
C580 C579 1.383 . S
C580 C581 1.377 . S
C581 H565 0.930 . S
C581 C580 1.377 . S
C581 C582 1.379 . S
C582 H566 0.931 . S
C582 C576 1.383 . S
C582 C581 1.379 . S
H583 C577 0.959 . S
H584 C577 0.961 . S
H585 C577 0.960 . S
H586 C578 0.930 1_455 S
H587 C579 0.929 . S
H588 C596 0.929 . S
H589 C598 0.930 . S
H590 C600 0.930 . S
H591 C603 0.929 . S
H592 C606 0.930 . S
H593 C608 0.960 . S
H594 C608 0.960 . S
H595 C608 0.960 . S
C596 H588 0.929 . S
C596 C597 1.377 . S
C596 C598 1.384 . S
C597 C596 1.377 . S
C597 C603 1.390 . S
C598 H589 0.930 . S
C598 C596 1.384 . S
C598 C599 1.372 . S
C599 C598 1.372 . S
C599 C600 1.400 . S
C599 C604 1.490 . S
C600 H590 0.930 . S
C600 C599 1.400 . S
C600 C603 1.386 . S
H601 C617 0.930 . S
H602 C618 0.931 . S
C603 H591 0.929 . S
C603 C597 1.390 . S
C603 C600 1.386 . S
C604 C599 1.490 . S
C604 C606 1.395 . S
C604 C607 1.403 . S
H605 C611 0.930 . S
C606 H592 0.930 . S
C606 C604 1.395 . S
C606 C609 1.403 . S
C607 C604 1.403 . S
C607 C608 1.524 . S
C607 C611 1.400 . S
C608 H593 0.960 . S
C608 H594 0.960 . S
C608 H595 0.960 . S
C608 C607 1.524 . S
C609 C606 1.403 . S
C609 C610 1.392 . S
C609 C613 1.495 . S
C610 C609 1.392 . S
C610 C611 1.385 . S
C610 C612 1.478 1_565 S
C611 H605 0.930 . S
C611 C607 1.400 . S
C611 C610 1.385 . S
C612 C610 1.478 1_545 S
C612 C614 1.381 . S
C612 C618 1.383 . S
C613 C609 1.495 . S
C613 H619 0.959 . S
C613 H620 0.961 . S
C613 H621 0.960 . S
C614 C612 1.381 . S
C614 C615 1.394 . S
C614 H622 0.930 . S
C615 C614 1.394 . S
C615 C616 1.383 . S
C615 H623 0.929 . S
C616 C615 1.383 . S
C616 C617 1.377 . S
C617 H601 0.930 . S
C617 C616 1.377 . S
C617 C618 1.379 . S
C618 H602 0.931 . S
C618 C612 1.383 . S
C618 C617 1.379 . S
H619 C613 0.959 . S
H620 C613 0.961 . S
H621 C613 0.960 . S
H622 C614 0.930 . S
H623 C615 0.929 . S
H624 C632 0.929 . S
H625 C634 0.930 . S
H626 C636 0.930 . S
H627 C639 0.929 . S
H628 C642 0.930 . S
H629 C644 0.960 . S
H630 C644 0.960 . S
H631 C644 0.960 . S
C632 H624 0.929 . S
C632 C633 1.377 . S
C632 C634 1.384 1_565 S
C633 C632 1.377 . S
C633 C639 1.390 . S
C634 H625 0.930 . S
C634 C632 1.384 1_545 S
C634 C635 1.372 . S
C635 C634 1.372 . S
C635 C636 1.400 . S
C635 C640 1.490 . S
C636 H626 0.930 . S
C636 C635 1.400 . S
C636 C639 1.386 1_545 S
H637 C653 0.930 . S
H638 C654 0.931 . S
C639 H627 0.929 . S
C639 C633 1.390 . S
C639 C636 1.386 1_565 S
C640 C635 1.490 . S
C640 C642 1.395 . S
C640 C643 1.403 . S
H641 C647 0.930 . S
C642 H628 0.930 . S
C642 C640 1.395 . S
C642 C645 1.403 . S
C643 C640 1.403 . S
C643 C644 1.524 . S
C643 C647 1.400 . S
C644 H629 0.960 . S
C644 H630 0.960 . S
C644 H631 0.960 . S
C644 C643 1.524 . S
C645 C642 1.403 . S
C645 C646 1.392 . S
C645 C649 1.495 . S
C646 C645 1.392 . S
C646 C647 1.385 . S
C646 C648 1.478 . S
C647 H641 0.930 . S
C647 C643 1.400 . S
C647 C646 1.385 . S
C648 C646 1.478 . S
C648 C650 1.381 . S
C648 C654 1.383 . S
C649 C645 1.495 . S
C649 H655 0.959 . S
C649 H656 0.961 . S
C649 H657 0.960 . S
C650 C648 1.381 . S
C650 C651 1.394 . S
C650 H658 0.930 . S
C651 C650 1.394 . S
C651 C652 1.383 . S
C651 H659 0.929 . S
C652 C651 1.383 . S
C652 C653 1.377 . S
C653 H637 0.930 . S
C653 C652 1.377 . S
C653 C654 1.379 . S
C654 H638 0.931 . S
C654 C648 1.383 . S
C654 C653 1.379 . S
H655 C649 0.959 . S
H656 C649 0.961 . S
H657 C649 0.960 . S
H658 C650 0.930 . S
H659 C651 0.929 . S
H660 C668 0.929 . S
H661 C670 0.930 . S
H662 C672 0.930 . S
H663 C675 0.929 . S
H664 C678 0.930 . S
H665 C680 0.960 . S
H666 C680 0.960 . S
H667 C680 0.960 . S
C668 H660 0.929 . S
C668 C669 1.377 . S
C668 C670 1.384 . S
C669 C668 1.377 . S
C669 C675 1.390 . S
C670 H661 0.930 . S
C670 C668 1.384 . S
C670 C671 1.372 . S
C671 C670 1.372 . S
C671 C672 1.400 . S
C671 C676 1.490 1_455 S
C672 H662 0.930 . S
C672 C671 1.400 . S
C672 C675 1.386 . S
H673 C689 0.930 . S
H674 C690 0.931 . S
C675 H663 0.929 . S
C675 C669 1.390 . S
C675 C672 1.386 . S
C676 C671 1.490 1_655 S
C676 C678 1.395 . S
C676 C679 1.403 . S
H677 C683 0.930 . S
C678 H664 0.930 . S
C678 C676 1.395 . S
C678 C681 1.403 . S
C679 C676 1.403 . S
C679 C680 1.524 . S
C679 C683 1.400 . S
C680 H665 0.960 . S
C680 H666 0.960 . S
C680 H667 0.960 . S
C680 C679 1.524 . S
C681 C678 1.403 . S
C681 C682 1.392 . S
C681 C685 1.495 . S
C682 C681 1.392 . S
C682 C683 1.385 . S
C682 C684 1.478 . S
C683 H677 0.930 . S
C683 C679 1.400 . S
C683 C682 1.385 . S
C684 C682 1.478 . S
C684 C686 1.381 . S
C684 C690 1.383 . S
C685 C681 1.495 . S
C685 H691 0.959 . S
C685 H692 0.961 . S
C685 H693 0.960 . S
C686 C684 1.381 . S
C686 C687 1.394 . S
C686 H694 0.930 . S
C687 C686 1.394 . S
C687 C688 1.383 . S
C687 H695 0.929 . S
C688 C687 1.383 . S
C688 C689 1.377 . S
C689 H673 0.930 . S
C689 C688 1.377 . S
C689 C690 1.379 . S
C690 H674 0.931 . S
C690 C684 1.383 . S
C690 C689 1.379 . S
H691 C685 0.959 . S
H692 C685 0.961 . S
H693 C685 0.960 . S
H694 C686 0.930 . S
H695 C687 0.929 . S
H696 C704 0.929 . S
H697 C706 0.930 . S
H698 C708 0.930 . S
H699 C711 0.929 . S
H700 C714 0.930 . S
H701 C716 0.960 . S
H702 C716 0.960 1_565 S
H703 C716 0.960 1_565 S
C704 H696 0.929 . S
C704 C705 1.377 . S
C704 C706 1.384 . S
C705 C704 1.377 . S
C705 C711 1.390 . S
C706 H697 0.930 . S
C706 C704 1.384 . S
C706 C707 1.372 . S
C707 C706 1.372 . S
C707 C708 1.400 . S
C707 C712 1.490 1_565 S
C708 H698 0.930 . S
C708 C707 1.400 . S
C708 C711 1.386 . S
H709 C725 0.930 . S
H710 C726 0.931 . S
C711 H699 0.929 . S
C711 C705 1.390 . S
C711 C708 1.386 . S
C712 C707 1.490 1_545 S
C712 C714 1.395 . S
C712 C715 1.403 . S
H713 C719 0.930 . S
C714 H700 0.930 . S
C714 C712 1.395 . S
C714 C717 1.403 . S
C715 C712 1.403 . S
C715 C716 1.524 . S
C715 C719 1.400 . S
C716 H701 0.960 . S
C716 H702 0.960 1_545 S
C716 H703 0.960 1_545 S
C716 C715 1.524 . S
C717 C714 1.403 . S
C717 C718 1.392 . S
C717 C721 1.495 . S
C718 C717 1.392 . S
C718 C719 1.385 . S
C718 C720 1.478 . S
C719 H713 0.930 . S
C719 C715 1.400 . S
C719 C718 1.385 . S
C720 C718 1.478 . S
C720 C722 1.381 . S
C720 C726 1.383 . S
C721 C717 1.495 . S
C721 H727 0.959 . S
C721 H728 0.961 . S
C721 H729 0.960 . S
C722 C720 1.381 . S
C722 C723 1.394 1_655 S
C722 H730 0.930 . S
C723 C722 1.394 1_455 S
C723 C724 1.383 . S
C723 H731 0.929 . S
C724 C723 1.383 . S
C724 C725 1.377 . S
C725 H709 0.930 . S
C725 C724 1.377 . S
C725 C726 1.379 1_455 S
C726 H710 0.931 . S
C726 C720 1.383 . S
C726 C725 1.379 1_655 S
H727 C721 0.959 . S
H728 C721 0.961 . S
H729 C721 0.960 . S
H730 C722 0.930 . S
H731 C723 0.929 . S
H732 C740 0.929 . S
H733 C742 0.930 . S
H734 C744 0.930 . S
H735 C747 0.929 . S
H736 C750 0.930 . S
H737 C752 0.960 . S
H738 C752 0.960 . S
H739 C752 0.960 . S
C740 H732 0.929 . S
C740 C741 1.377 . S
C740 C742 1.384 . S
C741 C740 1.377 . S
C741 C747 1.390 . S
C742 H733 0.930 . S
C742 C740 1.384 . S
C742 C743 1.372 . S
C743 C742 1.372 . S
C743 C744 1.400 . S
C743 C748 1.490 . S
C744 H734 0.930 . S
C744 C743 1.400 . S
C744 C747 1.386 . S
H745 C761 0.930 . S
H746 C762 0.931 . S
C747 H735 0.929 . S
C747 C741 1.390 . S
C747 C744 1.386 . S
C748 C743 1.490 . S
C748 C750 1.395 . S
C748 C751 1.403 . S
H749 C755 0.930 . S
C750 H736 0.930 . S
C750 C748 1.395 . S
C750 C753 1.403 . S
C751 C748 1.403 . S
C751 C752 1.524 . S
C751 C755 1.400 . S
C752 H737 0.960 . S
C752 H738 0.960 . S
C752 H739 0.960 . S
C752 C751 1.524 . S
C753 C750 1.403 . S
C753 C754 1.392 . S
C753 C757 1.495 . S
C754 C753 1.392 . S
C754 C755 1.385 . S
C754 C756 1.478 . S
C755 H749 0.930 . S
C755 C751 1.400 . S
C755 C754 1.385 . S
C756 C754 1.478 . S
C756 C758 1.381 . S
C756 C762 1.383 . S
C757 C753 1.495 . S
C757 H763 0.959 . S
C757 H764 0.961 . S
C757 H765 0.960 . S
C758 C756 1.381 . S
C758 C759 1.394 1_545 S
C758 H766 0.930 . S
C759 C758 1.394 1_565 S
C759 C760 1.383 . S
C759 H767 0.929 . S
C760 C759 1.383 . S
C760 C761 1.377 . S
C761 H745 0.930 . S
C761 C760 1.377 . S
C761 C762 1.379 1_565 S
C762 H746 0.931 . S
C762 C756 1.383 . S
C762 C761 1.379 1_545 S
H763 C757 0.959 . S
H764 C757 0.961 . S
H765 C757 0.960 . S
H766 C758 0.930 . S
H767 C759 0.929 . S
H768 C776 0.929 . S
H769 C778 0.930 . S
H770 C780 0.930 1_655 S
H771 C783 0.929 . S
H772 C786 0.930 . S
H773 C788 0.960 . S
H774 C788 0.960 . S
H775 C788 0.960 . S
C776 H768 0.929 . S
C776 C777 1.377 . S
C776 C778 1.384 . S
C777 C776 1.377 . S
C777 C783 1.390 . S
C778 H769 0.930 . S
C778 C776 1.384 . S
C778 C779 1.372 . S
C779 C778 1.372 . S
C779 C780 1.400 . S
C779 C784 1.490 1_455 S
C780 H770 0.930 1_455 S
C780 C779 1.400 . S
C780 C783 1.386 . S
H781 C797 0.930 . S
H782 C798 0.931 . S
C783 H771 0.929 . S
C783 C777 1.390 . S
C783 C780 1.386 . S
C784 C779 1.490 1_655 S
C784 C786 1.395 . S
C784 C787 1.403 . S
H785 C791 0.930 . S
C786 H772 0.930 . S
C786 C784 1.395 . S
C786 C789 1.403 . S
C787 C784 1.403 . S
C787 C788 1.524 . S
C787 C791 1.400 . S
C788 H773 0.960 . S
C788 H774 0.960 . S
C788 H775 0.960 . S
C788 C787 1.524 . S
C789 C786 1.403 . S
C789 C790 1.392 . S
C789 C793 1.495 . S
C790 C789 1.392 . S
C790 C791 1.385 . S
C790 C792 1.478 . S
C791 H785 0.930 . S
C791 C787 1.400 . S
C791 C790 1.385 . S
C792 C790 1.478 . S
C792 C794 1.381 . S
C792 C798 1.383 . S
C793 C789 1.495 . S
C793 H799 0.959 . S
C793 H800 0.961 . S
C793 H801 0.960 . S
C794 C792 1.381 . S
C794 C795 1.394 . S
C794 H802 0.930 . S
C795 C794 1.394 . S
C795 C796 1.383 . S
C795 H803 0.929 . S
C796 C795 1.383 . S
C796 C797 1.377 . S
C797 H781 0.930 . S
C797 C796 1.377 . S
C797 C798 1.379 . S
C798 H782 0.931 . S
C798 C792 1.383 . S
C798 C797 1.379 . S
H799 C793 0.959 . S
H800 C793 0.961 . S
H801 C793 0.960 . S
H802 C794 0.930 . S
H803 C795 0.929 . S
H804 C812 0.929 . S
H805 C814 0.930 . S
H806 C816 0.930 . S
H807 C819 0.929 . S
H808 C822 0.930 . S
H809 C824 0.960 . S
H810 C824 0.960 . S
H811 C824 0.960 . S
C812 H804 0.929 . S
C812 C813 1.377 1_655 S
C812 C814 1.384 . S
C813 C812 1.377 1_455 S
C813 C819 1.390 . S
C814 H805 0.930 . S
C814 C812 1.384 . S
C814 C815 1.372 . S
C815 C814 1.372 . S
C815 C816 1.400 1_655 S
C815 C820 1.490 . S
C816 H806 0.930 . S
C816 C815 1.400 1_455 S
C816 C819 1.386 . S
H817 C833 0.930 . S
H818 C834 0.931 . S
C819 H807 0.929 . S
C819 C813 1.390 . S
C819 C816 1.386 . S
C820 C815 1.490 . S
C820 C822 1.395 . S
C820 C823 1.403 . S
H821 C827 0.930 . S
C822 H808 0.930 . S
C822 C820 1.395 . S
C822 C825 1.403 . S
C823 C820 1.403 . S
C823 C824 1.524 . S
C823 C827 1.400 . S
C824 H809 0.960 . S
C824 H810 0.960 . S
C824 H811 0.960 . S
C824 C823 1.524 . S
C825 C822 1.403 . S
C825 C826 1.392 . S
C825 C829 1.495 . S
C826 C825 1.392 . S
C826 C827 1.385 . S
C826 C828 1.478 1_545 S
C827 H821 0.930 . S
C827 C823 1.400 . S
C827 C826 1.385 . S
C828 C826 1.478 1_565 S
C828 C830 1.381 . S
C828 C834 1.383 . S
C829 C825 1.495 . S
C829 H835 0.959 . S
C829 H836 0.961 . S
C829 H837 0.960 . S
C830 C828 1.381 . S
C830 C831 1.394 . S
C830 H838 0.930 1_565 S
C831 C830 1.394 . S
C831 C832 1.383 . S
C831 H839 0.929 . S
C832 C831 1.383 . S
C832 C833 1.377 . S
C833 H817 0.930 . S
C833 C832 1.377 . S
C833 C834 1.379 . S
C834 H818 0.931 . S
C834 C828 1.383 . S
C834 C833 1.379 . S
H835 C829 0.959 . S
H836 C829 0.961 . S
H837 C829 0.960 . S
H838 C830 0.930 1_545 S
H839 C831 0.929 . S
H840 C848 0.929 . S
H841 C850 0.930 . S
H842 C852 0.930 . S
H843 C855 0.929 . S
H844 C858 0.930 . S
H845 C860 0.960 . S
H846 C860 0.960 . S
H847 C860 0.960 . S
C848 H840 0.929 . S
C848 C849 1.377 . S
C848 C850 1.384 . S
C849 C848 1.377 . S
C849 C855 1.390 . S
C850 H841 0.930 . S
C850 C848 1.384 . S
C850 C851 1.372 . S
C851 C850 1.372 . S
C851 C852 1.400 . S
C851 C856 1.490 . S
C852 H842 0.930 . S
C852 C851 1.400 . S
C852 C855 1.386 . S
H853 C869 0.930 . S
H854 C870 0.931 . S
C855 H843 0.929 . S
C855 C849 1.390 . S
C855 C852 1.386 . S
C856 C851 1.490 . S
C856 C858 1.395 . S
C856 C859 1.403 . S
H857 C863 0.930 . S
C858 H844 0.930 . S
C858 C856 1.395 . S
C858 C861 1.403 . S
C859 C856 1.403 . S
C859 C860 1.524 . S
C859 C863 1.400 . S
C860 H845 0.960 . S
C860 H846 0.960 . S
C860 H847 0.960 . S
C860 C859 1.524 . S
C861 C858 1.403 . S
C861 C862 1.392 . S
C861 C865 1.495 . S
C862 C861 1.392 . S
C862 C863 1.385 . S
C862 C864 1.478 . S
C863 H857 0.930 . S
C863 C859 1.400 . S
C863 C862 1.385 . S
C864 C862 1.478 . S
C864 C866 1.381 . S
C864 C870 1.383 . S
C865 C861 1.495 . S
C865 H871 0.959 . S
C865 H872 0.961 . S
C865 H873 0.960 . S
C866 C864 1.381 . S
C866 C867 1.394 . S
C866 H874 0.930 . S
C867 C866 1.394 . S
C867 C868 1.383 . S
C867 H875 0.929 . S
C868 C867 1.383 . S
C868 C869 1.377 . S
C869 H853 0.930 . S
C869 C868 1.377 . S
C869 C870 1.379 . S
C870 H854 0.931 . S
C870 C864 1.383 . S
C870 C869 1.379 . S
H871 C865 0.959 . S
H872 C865 0.961 . S
H873 C865 0.960 . S
H874 C866 0.930 . S
H875 C867 0.929 . S
H876 C884 0.929 . S
H877 C886 0.930 . S
H878 C888 0.930 . S
H879 C891 0.929 . S
H880 C894 0.930 . S
H881 C896 0.960 . S
H882 C896 0.960 . S
H883 C896 0.960 . S
C884 H876 0.929 . S
C884 C885 1.377 . S
C884 C886 1.384 . S
C885 C884 1.377 . S
C885 C891 1.390 . S
C886 H877 0.930 . S
C886 C884 1.384 . S
C886 C887 1.372 . S
C887 C886 1.372 . S
C887 C888 1.400 . S
C887 C892 1.490 . S
C888 H878 0.930 . S
C888 C887 1.400 . S
C888 C891 1.386 . S
H889 C905 0.930 . S
H890 C906 0.931 . S
C891 H879 0.929 . S
C891 C885 1.390 . S
C891 C888 1.386 . S
C892 C887 1.490 . S
C892 C894 1.395 . S
C892 C895 1.403 . S
H893 C899 0.930 . S
C894 H880 0.930 . S
C894 C892 1.395 . S
C894 C897 1.403 . S
C895 C892 1.403 . S
C895 C896 1.524 . S
C895 C899 1.400 . S
C896 H881 0.960 . S
C896 H882 0.960 . S
C896 H883 0.960 . S
C896 C895 1.524 . S
C897 C894 1.403 . S
C897 C898 1.392 . S
C897 C901 1.495 . S
C898 C897 1.392 . S
C898 C899 1.385 . S
C898 C900 1.478 . S
C899 H893 0.930 . S
C899 C895 1.400 . S
C899 C898 1.385 . S
C900 C898 1.478 . S
C900 C902 1.381 . S
C900 C906 1.383 . S
C901 C897 1.495 . S
C901 H907 0.959 . S
C901 H908 0.961 . S
C901 H909 0.960 . S
C902 C900 1.381 . S
C902 C903 1.394 . S
C902 H910 0.930 . S
C903 C902 1.394 . S
C903 C904 1.383 . S
C903 H911 0.929 . S
C904 C903 1.383 . S
C904 C905 1.377 . S
C905 H889 0.930 . S
C905 C904 1.377 . S
C905 C906 1.379 . S
C906 H890 0.931 . S
C906 C900 1.383 . S
C906 C905 1.379 . S
H907 C901 0.959 . S
H908 C901 0.961 . S
H909 C901 0.960 . S
H910 C902 0.930 . S
H911 C903 0.929 . S
H912 C920 0.929 . S
H913 C922 0.930 . S
H914 C924 0.930 . S
H915 C927 0.929 . S
H916 C930 0.930 . S
H917 C932 0.960 . S
H918 C932 0.960 . S
H919 C932 0.960 . S
C920 H912 0.929 . S
C920 C921 1.377 . S
C920 C922 1.384 . S
C921 C920 1.377 . S
C921 C927 1.390 . S
C922 H913 0.930 . S
C922 C920 1.384 . S
C922 C923 1.372 . S
C923 C922 1.372 . S
C923 C924 1.400 . S
C923 C928 1.490 . S
C924 H914 0.930 . S
C924 C923 1.400 . S
C924 C927 1.386 . S
H925 C941 0.930 . S
H926 C942 0.931 . S
C927 H915 0.929 . S
C927 C921 1.390 . S
C927 C924 1.386 . S
C928 C923 1.490 . S
C928 C930 1.395 . S
C928 C931 1.403 . S
H929 C935 0.930 . S
C930 H916 0.930 . S
C930 C928 1.395 . S
C930 C933 1.403 . S
C931 C928 1.403 . S
C931 C932 1.524 . S
C931 C935 1.400 . S
C932 H917 0.960 . S
C932 H918 0.960 . S
C932 H919 0.960 . S
C932 C931 1.524 . S
C933 C930 1.403 . S
C933 C934 1.392 . S
C933 C937 1.495 . S
C934 C933 1.392 . S
C934 C935 1.385 . S
C934 C936 1.478 . S
C935 H929 0.930 . S
C935 C931 1.400 . S
C935 C934 1.385 . S
C936 C934 1.478 . S
C936 C938 1.381 . S
C936 C942 1.383 . S
C937 C933 1.495 . S
C937 H943 0.959 . S
C937 H944 0.961 . S
C937 H945 0.960 . S
C938 C936 1.381 . S
C938 C939 1.394 . S
C938 H946 0.930 . S
C939 C938 1.394 . S
C939 C940 1.383 . S
C939 H947 0.929 . S
C940 C939 1.383 . S
C940 C941 1.377 . S
C941 H925 0.930 . S
C941 C940 1.377 . S
C941 C942 1.379 . S
C942 H926 0.931 . S
C942 C936 1.383 . S
C942 C941 1.379 . S
H943 C937 0.959 . S
H944 C937 0.961 . S
H945 C937 0.960 . S
H946 C938 0.930 . S
H947 C939 0.929 . S
H948 C956 0.929 . S
H949 C958 0.930 . S
H950 C960 0.930 . S
H951 C963 0.929 . S
H952 C966 0.930 . S
H953 C968 0.960 . S
H954 C968 0.960 . S
H955 C968 0.960 . S
C956 H948 0.929 . S
C956 C957 1.377 . S
C956 C958 1.384 . S
C957 C956 1.377 . S
C957 C963 1.390 . S
C958 H949 0.930 . S
C958 C956 1.384 . S
C958 C959 1.372 . S
C959 C958 1.372 . S
C959 C960 1.400 . S
C959 C964 1.490 . S
C960 H950 0.930 . S
C960 C959 1.400 . S
C960 C963 1.386 . S
H961 C977 0.930 . S
H962 C978 0.931 . S
C963 H951 0.929 . S
C963 C957 1.390 . S
C963 C960 1.386 . S
C964 C959 1.490 . S
C964 C966 1.395 . S
C964 C967 1.403 . S
H965 C971 0.930 . S
C966 H952 0.930 . S
C966 C964 1.395 . S
C966 C969 1.403 . S
C967 C964 1.403 . S
C967 C968 1.524 . S
C967 C971 1.400 . S
C968 H953 0.960 . S
C968 H954 0.960 . S
C968 H955 0.960 . S
C968 C967 1.524 . S
C969 C966 1.403 . S
C969 C970 1.392 . S
C969 C973 1.495 . S
C970 C969 1.392 . S
C970 C971 1.385 . S
C970 C972 1.478 . S
C971 H965 0.930 . S
C971 C967 1.400 . S
C971 C970 1.385 . S
C972 C970 1.478 . S
C972 C974 1.381 . S
C972 C978 1.383 . S
C973 C969 1.495 . S
C973 H979 0.959 . S
C973 H980 0.961 . S
C973 H981 0.960 . S
C974 C972 1.381 . S
C974 C975 1.394 . S
C974 H982 0.930 . S
C975 C974 1.394 . S
C975 C976 1.383 . S
C975 H983 0.929 . S
C976 C975 1.383 . S
C976 C977 1.377 . S
C977 H961 0.930 . S
C977 C976 1.377 . S
C977 C978 1.379 . S
C978 H962 0.931 . S
C978 C972 1.383 . S
C978 C977 1.379 . S
H979 C973 0.959 . S
H980 C973 0.961 . S
H981 C973 0.960 . S
H982 C974 0.930 . S
H983 C975 0.929 . S
H984 C992 0.929 . S
H985 C994 0.930 . S
H986 C996 0.930 . S
H987 C999 0.929 . S
H988 C1002 0.930 . S
H989 C1004 0.960 . S
H990 C1004 0.960 . S
H991 C1004 0.960 . S
C992 H984 0.929 . S
C992 C993 1.377 . S
C992 C994 1.384 . S
C993 C992 1.377 . S
C993 C999 1.390 . S
C994 H985 0.930 . S
C994 C992 1.384 . S
C994 C995 1.372 . S
C995 C994 1.372 . S
C995 C996 1.400 . S
C995 C1000 1.490 . S
C996 H986 0.930 . S
C996 C995 1.400 . S
C996 C999 1.386 . S
H997 C1013 0.930 . S
H998 C1014 0.931 . S
C999 H987 0.929 . S
C999 C993 1.390 . S
C999 C996 1.386 . S
C1000 C995 1.490 . S
C1000 C1002 1.395 . S
C1000 C1003 1.403 . S
H1001 C1007 0.930 . S
C1002 H988 0.930 . S
C1002 C1000 1.395 . S
C1002 C1005 1.403 . S
C1003 C1000 1.403 . S
C1003 C1004 1.524 . S
C1003 C1007 1.400 . S
C1004 H989 0.960 . S
C1004 H990 0.960 . S
C1004 H991 0.960 . S
C1004 C1003 1.524 . S
C1005 C1002 1.403 . S
C1005 C1006 1.392 . S
C1005 C1009 1.495 . S
C1006 C1005 1.392 . S
C1006 C1007 1.385 . S
C1006 C1008 1.478 . S
C1007 H1001 0.930 . S
C1007 C1003 1.400 . S
C1007 C1006 1.385 . S
C1008 C1006 1.478 . S
C1008 C1010 1.381 . S
C1008 C1014 1.383 . S
C1009 C1005 1.495 . S
C1009 H1015 0.959 . S
C1009 H1016 0.961 . S
C1009 H1017 0.960 . S
C1010 C1008 1.381 . S
C1010 C1011 1.394 . S
C1010 H1018 0.930 . S
C1011 C1010 1.394 . S
C1011 C1012 1.383 . S
C1011 H1019 0.929 . S
C1012 C1011 1.383 . S
C1012 C1013 1.377 . S
C1013 H997 0.930 . S
C1013 C1012 1.377 . S
C1013 C1014 1.379 . S
C1014 H998 0.931 . S
C1014 C1008 1.383 . S
C1014 C1013 1.379 . S
H1015 C1009 0.959 . S
H1016 C1009 0.961 . S
H1017 C1009 0.960 . S
H1018 C1010 0.930 . S
H1019 C1011 0.929 . S
H1020 C1028 0.929 . S
H1021 C1030 0.930 . S
H1022 C1032 0.930 . S
H1023 C1035 0.929 . S
H1024 C1038 0.930 . S
H1025 C1040 0.960 . S
H1026 C1040 0.960 . S
H1027 C1040 0.960 . S
C1028 H1020 0.929 . S
C1028 C1029 1.377 . S
C1028 C1030 1.384 . S
C1029 C1028 1.377 . S
C1029 C1035 1.390 . S
C1030 H1021 0.930 . S
C1030 C1028 1.384 . S
C1030 C1031 1.372 . S
C1031 C1030 1.372 . S
C1031 C1032 1.400 . S
C1031 C1036 1.490 . S
C1032 H1022 0.930 . S
C1032 C1031 1.400 . S
C1032 C1035 1.386 . S
H1033 C1049 0.930 . S
H1034 C1050 0.931 . S
C1035 H1023 0.929 . S
C1035 C1029 1.390 . S
C1035 C1032 1.386 . S
C1036 C1031 1.490 . S
C1036 C1038 1.395 . S
C1036 C1039 1.403 . S
H1037 C1043 0.930 . S
C1038 H1024 0.930 . S
C1038 C1036 1.395 . S
C1038 C1041 1.403 . S
C1039 C1036 1.403 . S
C1039 C1040 1.524 . S
C1039 C1043 1.400 . S
C1040 H1025 0.960 . S
C1040 H1026 0.960 . S
C1040 H1027 0.960 . S
C1040 C1039 1.524 . S
C1041 C1038 1.403 . S
C1041 C1042 1.392 . S
C1041 C1045 1.495 . S
C1042 C1041 1.392 . S
C1042 C1043 1.385 . S
C1042 C1044 1.478 . S
C1043 H1037 0.930 . S
C1043 C1039 1.400 . S
C1043 C1042 1.385 . S
C1044 C1042 1.478 . S
C1044 C1046 1.381 . S
C1044 C1050 1.383 . S
C1045 C1041 1.495 . S
C1045 H1051 0.959 . S
C1045 H1052 0.961 . S
C1045 H1053 0.960 . S
C1046 C1044 1.381 . S
C1046 C1047 1.394 . S
C1046 H1054 0.930 . S
C1047 C1046 1.394 . S
C1047 C1048 1.383 . S
C1047 H1055 0.929 . S
C1048 C1047 1.383 . S
C1048 C1049 1.377 . S
C1049 H1033 0.930 . S
C1049 C1048 1.377 . S
C1049 C1050 1.379 . S
C1050 H1034 0.931 . S
C1050 C1044 1.383 . S
C1050 C1049 1.379 . S
H1051 C1045 0.959 . S
H1052 C1045 0.961 . S
H1053 C1045 0.960 . S
H1054 C1046 0.930 . S
H1055 C1047 0.929 . S
H1056 C1064 0.929 . S
H1057 C1066 0.930 . S
H1058 C1068 0.930 . S
H1059 C1071 0.929 . S
H1060 C1074 0.930 . S
H1061 C1076 0.960 1_554 S
H1062 C1076 0.960 . S
H1063 C1076 0.960 . S
C1064 H1056 0.929 . S
C1064 C1065 1.377 . S
C1064 C1066 1.384 . S
C1065 C1064 1.377 . S
C1065 C1071 1.390 . S
C1066 H1057 0.930 . S
C1066 C1064 1.384 . S
C1066 C1067 1.372 . S
C1067 C1066 1.372 . S
C1067 C1068 1.400 . S
C1067 C1072 1.490 . S
C1068 H1058 0.930 . S
C1068 C1067 1.400 . S
C1068 C1071 1.386 . S
H1069 C1085 0.930 . S
H1070 C1086 0.931 . S
C1071 H1059 0.929 . S
C1071 C1065 1.390 . S
C1071 C1068 1.386 . S
C1072 C1067 1.490 . S
C1072 C1074 1.395 1_565 S
C1072 C1075 1.403 . S
H1073 C1079 0.930 . S
C1074 H1060 0.930 . S
C1074 C1072 1.395 1_545 S
C1074 C1077 1.403 1_556 S
C1075 C1072 1.403 . S
C1075 C1076 1.524 . S
C1075 C1079 1.400 1_556 S
C1076 H1061 0.960 1_556 S
C1076 H1062 0.960 . S
C1076 H1063 0.960 . S
C1076 C1075 1.524 . S
C1077 C1074 1.403 1_554 S
C1077 C1078 1.392 . S
C1077 C1081 1.495 . S
C1078 C1077 1.392 . S
C1078 C1079 1.385 1_545 S
C1078 C1080 1.478 . S
C1079 H1073 0.930 . S
C1079 C1075 1.400 1_554 S
C1079 C1078 1.385 1_565 S
C1080 C1078 1.478 . S
C1080 C1082 1.381 . S
C1080 C1086 1.383 . S
C1081 C1077 1.495 . S
C1081 H1087 0.959 1_554 S
C1081 H1088 0.961 . S
C1081 H1089 0.960 . S
C1082 C1080 1.381 . S
C1082 C1083 1.394 . S
C1082 H1090 0.930 . S
C1083 C1082 1.394 . S
C1083 C1084 1.383 . S
C1083 H1091 0.929 . S
C1084 C1083 1.383 . S
C1084 C1085 1.377 . S
C1085 H1069 0.930 . S
C1085 C1084 1.377 . S
C1085 C1086 1.379 . S
C1086 H1070 0.931 . S
C1086 C1080 1.383 . S
C1086 C1085 1.379 . S
H1087 C1081 0.959 1_556 S
H1088 C1081 0.961 . S
H1089 C1081 0.960 . S
H1090 C1082 0.930 . S
H1091 C1083 0.929 . S
H1092 C1100 0.929 . S
H1093 C1102 0.930 . S
H1094 C1104 0.930 . S
H1095 C1107 0.929 . S
H1096 C1110 0.930 . S
H1097 C1112 0.960 . S
H1098 C1112 0.960 . S
H1099 C1112 0.960 . S
C1100 H1092 0.929 . S
C1100 C1101 1.377 . S
C1100 C1102 1.384 . S
C1101 C1100 1.377 . S
C1101 C1107 1.390 . S
C1102 H1093 0.930 . S
C1102 C1100 1.384 . S
C1102 C1103 1.372 . S
C1103 C1102 1.372 . S
C1103 C1104 1.400 . S
C1103 C1108 1.490 . S
C1104 H1094 0.930 . S
C1104 C1103 1.400 . S
C1104 C1107 1.386 . S
H1105 C1121 0.930 . S
H1106 C1122 0.931 . S
C1107 H1095 0.929 . S
C1107 C1101 1.390 . S
C1107 C1104 1.386 . S
C1108 C1103 1.490 . S
C1108 C1110 1.395 . S
C1108 C1111 1.403 . S
H1109 C1115 0.930 . S
C1110 H1096 0.930 . S
C1110 C1108 1.395 . S
C1110 C1113 1.403 . S
C1111 C1108 1.403 . S
C1111 C1112 1.524 . S
C1111 C1115 1.400 . S
C1112 H1097 0.960 . S
C1112 H1098 0.960 . S
C1112 H1099 0.960 . S
C1112 C1111 1.524 . S
C1113 C1110 1.403 . S
C1113 C1114 1.392 . S
C1113 C1117 1.495 . S
C1114 C1113 1.392 . S
C1114 C1115 1.385 . S
C1114 C1116 1.478 . S
C1115 H1109 0.930 . S
C1115 C1111 1.400 . S
C1115 C1114 1.385 . S
C1116 C1114 1.478 . S
C1116 C1118 1.381 . S
C1116 C1122 1.383 . S
C1117 C1113 1.495 . S
C1117 H1123 0.959 . S
C1117 H1124 0.961 . S
C1117 H1125 0.960 . S
C1118 C1116 1.381 . S
C1118 C1119 1.394 . S
C1118 H1126 0.930 . S
C1119 C1118 1.394 . S
C1119 C1120 1.383 . S
C1119 H1127 0.929 . S
C1120 C1119 1.383 . S
C1120 C1121 1.377 . S
C1121 H1105 0.930 . S
C1121 C1120 1.377 . S
C1121 C1122 1.379 . S
C1122 H1106 0.931 . S
C1122 C1116 1.383 . S
C1122 C1121 1.379 . S
H1123 C1117 0.959 . S
H1124 C1117 0.961 . S
H1125 C1117 0.960 . S
H1126 C1118 0.930 . S
H1127 C1119 0.929 . S
H1128 C1136 0.929 . S
H1129 C1138 0.930 . S
H1130 C1140 0.930 1_655 S
H1131 C1143 0.929 . S
H1132 C1146 0.930 . S
H1133 C1148 0.960 . S
H1134 C1148 0.960 1_455 S
H1135 C1148 0.960 . S
C1136 H1128 0.929 . S
C1136 C1137 1.377 . S
C1136 C1138 1.384 . S
C1137 C1136 1.377 . S
C1137 C1143 1.390 . S
C1138 H1129 0.930 . S
C1138 C1136 1.384 . S
C1138 C1139 1.372 . S
C1139 C1138 1.372 . S
C1139 C1140 1.400 . S
C1139 C1144 1.490 . S
C1140 H1130 0.930 1_455 S
C1140 C1139 1.400 . S
C1140 C1143 1.386 . S
H1141 C1157 0.930 . S
H1142 C1158 0.931 . S
C1143 H1131 0.929 . S
C1143 C1137 1.390 . S
C1143 C1140 1.386 . S
C1144 C1139 1.490 . S
C1144 C1146 1.395 . S
C1144 C1147 1.403 1_455 S
H1145 C1151 0.930 . S
C1146 H1132 0.930 . S
C1146 C1144 1.395 . S
C1146 C1149 1.403 1_556 S
C1147 C1144 1.403 1_655 S
C1147 C1148 1.524 . S
C1147 C1151 1.400 1_556 S
C1148 H1133 0.960 . S
C1148 H1134 0.960 1_655 S
C1148 H1135 0.960 . S
C1148 C1147 1.524 . S
C1149 C1146 1.403 1_554 S
C1149 C1150 1.392 1_455 S
C1149 C1153 1.495 . S
C1150 C1149 1.392 1_655 S
C1150 C1151 1.385 . S
C1150 C1152 1.478 . S
C1151 H1145 0.930 . S
C1151 C1147 1.400 1_554 S
C1151 C1150 1.385 . S
C1152 C1150 1.478 . S
C1152 C1154 1.381 . S
C1152 C1158 1.383 . S
C1153 C1149 1.495 . S
C1153 H1159 0.959 . S
C1153 H1160 0.966 . S
C1153 H1161 0.960 . S
C1154 C1152 1.381 . S
C1154 C1155 1.394 . S
C1154 H1162 0.930 1_655 S
C1155 C1154 1.394 . S
C1155 C1156 1.383 . S
C1155 H1163 0.929 . S
C1156 C1155 1.383 . S
C1156 C1157 1.377 . S
C1157 H1141 0.930 . S
C1157 C1156 1.377 . S
C1157 C1158 1.379 . S
C1158 H1142 0.931 . S
C1158 C1152 1.383 . S
C1158 C1157 1.379 . S
H1159 C1153 0.959 . S
H1160 C1153 0.966 . S
H1161 C1153 0.960 . S
H1162 C1154 0.930 1_455 S
H1163 C1155 0.929 . S
H1164 C1172 0.929 . S
H1165 C1174 0.930 . S
H1166 C1176 0.930 . S
H1167 C1179 0.929 . S
H1168 C1182 0.930 . S
H1169 C1184 0.960 . S
H1170 C1184 0.960 . S
H1171 C1184 0.960 1_545 S
C1172 H1164 0.929 . S
C1172 C1173 1.377 . S
C1172 C1174 1.384 . S
C1173 C1172 1.377 . S
C1173 C1179 1.390 . S
C1174 H1165 0.930 . S
C1174 C1172 1.384 . S
C1174 C1175 1.372 . S
C1175 C1174 1.372 . S
C1175 C1176 1.400 . S
C1175 C1180 1.490 . S
C1176 H1166 0.930 . S
C1176 C1175 1.400 . S
C1176 C1179 1.386 . S
H1177 C1193 0.930 . S
H1178 C1194 0.931 . S
C1179 H1167 0.929 . S
C1179 C1173 1.390 . S
C1179 C1176 1.386 . S
C1180 C1175 1.490 . S
C1180 C1182 1.395 . S
C1180 C1183 1.403 1_545 S
H1181 C1187 0.930 . S
C1182 H1168 0.930 . S
C1182 C1180 1.395 . S
C1182 C1185 1.403 . S
C1183 C1180 1.403 1_565 S
C1183 C1184 1.524 . S
C1183 C1187 1.400 . S
C1184 H1169 0.960 . S
C1184 H1170 0.960 . S
C1184 H1171 0.960 1_565 S
C1184 C1183 1.524 . S
C1185 C1182 1.403 . S
C1185 C1186 1.392 1_545 S
C1185 C1189 1.495 . S
C1186 C1185 1.392 1_565 S
C1186 C1187 1.385 . S
C1186 C1188 1.478 . S
C1187 H1181 0.930 . S
C1187 C1183 1.400 . S
C1187 C1186 1.385 . S
C1188 C1186 1.478 . S
C1188 C1190 1.381 . S
C1188 C1194 1.383 . S
C1189 C1185 1.495 . S
C1189 H1195 0.959 . S
C1189 H1196 0.961 . S
C1189 H1197 0.960 1_545 S
C1190 C1188 1.381 . S
C1190 C1191 1.394 . S
C1190 H1198 0.930 . S
C1191 C1190 1.394 . S
C1191 C1192 1.383 . S
C1191 H1199 0.929 . S
C1192 C1191 1.383 . S
C1192 C1193 1.377 . S
C1193 H1177 0.930 . S
C1193 C1192 1.377 . S
C1193 C1194 1.379 . S
C1194 H1178 0.931 . S
C1194 C1188 1.383 . S
C1194 C1193 1.379 . S
H1195 C1189 0.959 . S
H1196 C1189 0.961 . S
H1197 C1189 0.960 1_565 S
H1198 C1190 0.930 . S
H1199 C1191 0.929 . S
H1200 C1208 0.929 . S
H1201 C1210 0.930 . S
H1202 C1212 0.930 . S
H1203 C1215 0.929 . S
H1204 C1218 0.930 . S
H1205 C1220 0.960 . S
H1206 C1220 0.960 . S
H1207 C1220 0.960 . S
C1208 H1200 0.929 . S
C1208 C1209 1.377 . S
C1208 C1210 1.384 . S
C1209 C1208 1.377 . S
C1209 C1215 1.390 . S
C1210 H1201 0.930 . S
C1210 C1208 1.384 . S
C1210 C1211 1.372 . S
C1211 C1210 1.372 . S
C1211 C1212 1.400 . S
C1211 C1216 1.490 . S
C1212 H1202 0.930 . S
C1212 C1211 1.400 . S
C1212 C1215 1.386 . S
H1213 C1229 0.930 . S
H1214 C1230 0.931 . S
C1215 H1203 0.929 . S
C1215 C1209 1.390 . S
C1215 C1212 1.386 . S
C1216 C1211 1.490 . S
C1216 C1218 1.395 . S
C1216 C1219 1.403 . S
H1217 C1223 0.930 . S
C1218 H1204 0.930 . S
C1218 C1216 1.395 . S
C1218 C1221 1.403 1_554 S
C1219 C1216 1.403 . S
C1219 C1220 1.524 . S
C1219 C1223 1.400 1_554 S
C1220 H1205 0.960 . S
C1220 H1206 0.960 . S
C1220 H1207 0.960 . S
C1220 C1219 1.524 . S
C1221 C1218 1.403 1_556 S
C1221 C1222 1.392 . S
C1221 C1225 1.495 . S
C1222 C1221 1.392 . S
C1222 C1223 1.385 . S
C1222 C1224 1.478 . S
C1223 H1217 0.930 . S
C1223 C1219 1.400 1_556 S
C1223 C1222 1.385 . S
C1224 C1222 1.478 . S
C1224 C1226 1.381 . S
C1224 C1230 1.383 . S
C1225 C1221 1.495 . S
C1225 H1231 0.959 . S
C1225 H1232 0.961 . S
C1225 H1233 0.960 . S
C1226 C1224 1.381 . S
C1226 C1227 1.394 . S
C1226 H1234 0.930 . S
C1227 C1226 1.394 . S
C1227 C1228 1.383 . S
C1227 H1235 0.929 . S
C1228 C1227 1.383 . S
C1228 C1229 1.377 . S
C1229 H1213 0.930 . S
C1229 C1228 1.377 . S
C1229 C1230 1.379 . S
C1230 H1214 0.931 . S
C1230 C1224 1.383 . S
C1230 C1229 1.379 . S
H1231 C1225 0.959 . S
H1232 C1225 0.961 . S
H1233 C1225 0.960 . S
H1234 C1226 0.930 . S
H1235 C1227 0.929 . S
H1236 C1244 0.929 . S
H1237 C1246 0.930 . S
H1238 C1248 0.930 . S
H1239 C1251 0.929 . S
H1240 C1254 0.930 . S
H1241 C1256 0.960 . S
H1242 C1256 0.960 . S
H1243 C1256 0.960 . S
C1244 H1236 0.929 . S
C1244 C1245 1.377 . S
C1244 C1246 1.384 . S
C1245 C1244 1.377 . S
C1245 C1251 1.390 . S
C1246 H1237 0.930 . S
C1246 C1244 1.384 . S
C1246 C1247 1.372 . S
C1247 C1246 1.372 . S
C1247 C1248 1.400 . S
C1247 C1252 1.490 . S
C1248 H1238 0.930 . S
C1248 C1247 1.400 . S
C1248 C1251 1.386 . S
H1249 C1265 0.930 . S
H1250 C1266 0.931 . S
C1251 H1239 0.929 . S
C1251 C1245 1.390 . S
C1251 C1248 1.386 . S
C1252 C1247 1.490 . S
C1252 C1254 1.395 . S
C1252 C1255 1.403 1_455 S
H1253 C1259 0.930 . S
C1254 H1240 0.930 . S
C1254 C1252 1.395 . S
C1254 C1257 1.403 . S
C1255 C1252 1.403 1_655 S
C1255 C1256 1.524 . S
C1255 C1259 1.400 . S
C1256 H1241 0.960 . S
C1256 H1242 0.960 . S
C1256 H1243 0.960 . S
C1256 C1255 1.524 . S
C1257 C1254 1.403 . S
C1257 C1258 1.392 1_455 S
C1257 C1261 1.495 . S
C1258 C1257 1.392 1_655 S
C1258 C1259 1.385 . S
C1258 C1260 1.478 . S
C1259 H1253 0.930 . S
C1259 C1255 1.400 . S
C1259 C1258 1.385 . S
C1260 C1258 1.478 . S
C1260 C1262 1.381 . S
C1260 C1266 1.383 . S
C1261 C1257 1.495 . S
C1261 H1267 0.959 . S
C1261 H1268 0.961 . S
C1261 H1269 0.960 . S
C1262 C1260 1.381 . S
C1262 C1263 1.394 . S
C1262 H1270 0.930 . S
C1263 C1262 1.394 . S
C1263 C1264 1.383 . S
C1263 H1271 0.929 . S
C1264 C1263 1.383 . S
C1264 C1265 1.377 . S
C1265 H1249 0.930 . S
C1265 C1264 1.377 . S
C1265 C1266 1.379 . S
C1266 H1250 0.931 . S
C1266 C1260 1.383 . S
C1266 C1265 1.379 . S
H1267 C1261 0.959 . S
H1268 C1261 0.961 . S
H1269 C1261 0.960 . S
H1270 C1262 0.930 . S
H1271 C1263 0.929 . S
H1272 C1280 0.929 . S
H1273 C1282 0.930 . S
H1274 C1284 0.930 . S
H1275 C1287 0.929 . S
H1276 C1290 0.930 . S
H1277 C1292 0.960 . S
H1278 C1292 0.960 . S
H1279 C1292 0.960 . S
C1280 H1272 0.929 . S
C1280 C1281 1.377 . S
C1280 C1282 1.384 . S
C1281 C1280 1.377 . S
C1281 C1287 1.390 . S
C1282 H1273 0.930 . S
C1282 C1280 1.384 . S
C1282 C1283 1.372 . S
C1283 C1282 1.372 . S
C1283 C1284 1.400 . S
C1283 C1288 1.490 . S
C1284 H1274 0.930 . S
C1284 C1283 1.400 . S
C1284 C1287 1.386 . S
H1285 C1301 0.930 . S
H1286 C1302 0.931 . S
C1287 H1275 0.929 . S
C1287 C1281 1.390 . S
C1287 C1284 1.386 . S
C1288 C1283 1.490 . S
C1288 C1290 1.395 . S
C1288 C1291 1.403 . S
H1289 C1295 0.930 . S
C1290 H1276 0.930 . S
C1290 C1288 1.395 . S
C1290 C1293 1.403 . S
C1291 C1288 1.403 . S
C1291 C1292 1.524 . S
C1291 C1295 1.400 . S
C1292 H1277 0.960 . S
C1292 H1278 0.960 . S
C1292 H1279 0.960 . S
C1292 C1291 1.524 . S
C1293 C1290 1.403 . S
C1293 C1294 1.392 . S
C1293 C1297 1.495 . S
C1294 C1293 1.392 . S
C1294 C1295 1.385 . S
C1294 C1296 1.478 . S
C1295 H1289 0.930 . S
C1295 C1291 1.400 . S
C1295 C1294 1.385 . S
C1296 C1294 1.478 . S
C1296 C1298 1.381 . S
C1296 C1302 1.383 . S
C1297 C1293 1.495 . S
C1297 H1303 0.959 . S
C1297 H1304 0.961 . S
C1297 H1305 0.960 . S
C1298 C1296 1.381 . S
C1298 C1299 1.394 . S
C1298 H1306 0.930 . S
C1299 C1298 1.394 . S
C1299 C1300 1.383 . S
C1299 H1307 0.929 . S
C1300 C1299 1.383 . S
C1300 C1301 1.377 . S
C1301 H1285 0.930 . S
C1301 C1300 1.377 . S
C1301 C1302 1.379 . S
C1302 H1286 0.931 . S
C1302 C1296 1.383 . S
C1302 C1301 1.379 . S
H1303 C1297 0.959 . S
H1304 C1297 0.961 . S
H1305 C1297 0.960 . S
H1306 C1298 0.930 . S
H1307 C1299 0.929 . S
H1308 C1316 0.929 . S
H1309 C1318 0.930 . S
H1310 C1320 0.930 . S
H1311 C1323 0.929 . S
H1312 C1326 0.930 . S
H1313 C1328 0.960 . S
H1314 C1328 0.960 . S
H1315 C1328 0.960 . S
C1316 H1308 0.929 . S
C1316 C1317 1.377 . S
C1316 C1318 1.384 . S
C1317 C1316 1.377 . S
C1317 C1323 1.390 . S
C1318 H1309 0.930 . S
C1318 C1316 1.384 . S
C1318 C1319 1.372 . S
C1319 C1318 1.372 . S
C1319 C1320 1.400 . S
C1319 C1324 1.490 . S
C1320 H1310 0.930 . S
C1320 C1319 1.400 . S
C1320 C1323 1.386 . S
H1321 C1337 0.930 . S
H1322 C1338 0.931 . S
C1323 H1311 0.929 . S
C1323 C1317 1.390 . S
C1323 C1320 1.386 . S
C1324 C1319 1.490 . S
C1324 C1326 1.395 . S
C1324 C1327 1.403 . S
H1325 C1331 0.930 . S
C1326 H1312 0.930 . S
C1326 C1324 1.395 . S
C1326 C1329 1.403 . S
C1327 C1324 1.403 . S
C1327 C1328 1.524 . S
C1327 C1331 1.400 . S
C1328 H1313 0.960 . S
C1328 H1314 0.960 . S
C1328 H1315 0.960 . S
C1328 C1327 1.524 . S
C1329 C1326 1.403 . S
C1329 C1330 1.392 . S
C1329 C1333 1.495 . S
C1330 C1329 1.392 . S
C1330 C1331 1.385 . S
C1330 C1332 1.478 . S
C1331 H1325 0.930 . S
C1331 C1327 1.400 . S
C1331 C1330 1.385 . S
C1332 C1330 1.478 . S
C1332 C1334 1.381 . S
C1332 C1338 1.383 . S
C1333 C1329 1.495 . S
C1333 H1339 0.959 . S
C1333 H1340 0.961 . S
C1333 H1341 0.960 . S
C1334 C1332 1.381 . S
C1334 C1335 1.394 . S
C1334 H1342 0.930 . S
C1335 C1334 1.394 . S
C1335 C1336 1.383 . S
C1335 H1343 0.929 . S
C1336 C1335 1.383 . S
C1336 C1337 1.377 . S
C1337 H1321 0.930 . S
C1337 C1336 1.377 . S
C1337 C1338 1.379 . S
C1338 H1322 0.931 . S
C1338 C1332 1.383 . S
C1338 C1337 1.379 . S
H1339 C1333 0.959 . S
H1340 C1333 0.961 . S
H1341 C1333 0.960 . S
H1342 C1334 0.930 . S
H1343 C1335 0.929 . S
H1344 C1352 0.929 . S
H1345 C1354 0.930 . S
H1346 C1356 0.930 . S
H1347 C1359 0.929 . S
H1348 C1362 0.930 . S
H1349 C1364 0.960 . S
H1350 C1364 0.960 . S
H1351 C1364 0.960 . S
C1352 H1344 0.929 . S
C1352 C1353 1.377 . S
C1352 C1354 1.384 . S
C1353 C1352 1.377 . S
C1353 C1359 1.390 . S
C1354 H1345 0.930 . S
C1354 C1352 1.384 . S
C1354 C1355 1.372 . S
C1355 C1354 1.372 . S
C1355 C1356 1.400 . S
C1355 C1360 1.490 . S
C1356 H1346 0.930 . S
C1356 C1355 1.400 . S
C1356 C1359 1.386 . S
H1357 C1373 0.930 . S
H1358 C1374 0.931 . S
C1359 H1347 0.929 . S
C1359 C1353 1.390 . S
C1359 C1356 1.386 . S
C1360 C1355 1.490 . S
C1360 C1362 1.395 . S
C1360 C1363 1.403 . S
H1361 C1367 0.930 . S
C1362 H1348 0.930 . S
C1362 C1360 1.395 . S
C1362 C1365 1.403 . S
C1363 C1360 1.403 . S
C1363 C1364 1.524 . S
C1363 C1367 1.400 . S
C1364 H1349 0.960 . S
C1364 H1350 0.960 . S
C1364 H1351 0.960 . S
C1364 C1363 1.524 . S
C1365 C1362 1.403 . S
C1365 C1366 1.392 . S
C1365 C1369 1.495 . S
C1366 C1365 1.392 . S
C1366 C1367 1.385 . S
C1366 C1368 1.478 . S
C1367 H1361 0.930 . S
C1367 C1363 1.400 . S
C1367 C1366 1.385 . S
C1368 C1366 1.478 . S
C1368 C1370 1.381 . S
C1368 C1374 1.383 . S
C1369 C1365 1.495 . S
C1369 H1375 0.959 . S
C1369 H1376 0.961 . S
C1369 H1377 0.960 . S
C1370 C1368 1.381 . S
C1370 C1371 1.394 . S
C1370 H1378 0.930 . S
C1371 C1370 1.394 . S
C1371 C1372 1.383 . S
C1371 H1379 0.929 . S
C1372 C1371 1.383 . S
C1372 C1373 1.377 . S
C1373 H1357 0.930 . S
C1373 C1372 1.377 . S
C1373 C1374 1.379 . S
C1374 H1358 0.931 . S
C1374 C1368 1.383 . S
C1374 C1373 1.379 . S
H1375 C1369 0.959 . S
H1376 C1369 0.961 . S
H1377 C1369 0.960 . S
H1378 C1370 0.930 . S
H1379 C1371 0.929 . S
H1380 C1388 0.929 . S
H1381 C1390 0.930 . S
H1382 C1392 0.930 . S
H1383 C1395 0.929 . S
H1384 C1398 0.930 . S
H1385 C1400 0.960 . S
H1386 C1400 0.960 . S
H1387 C1400 0.960 . S
C1388 H1380 0.929 . S
C1388 C1389 1.377 . S
C1388 C1390 1.384 . S
C1389 C1388 1.377 . S
C1389 C1395 1.390 . S
C1390 H1381 0.930 . S
C1390 C1388 1.384 . S
C1390 C1391 1.372 . S
C1391 C1390 1.372 . S
C1391 C1392 1.400 . S
C1391 C1396 1.490 . S
C1392 H1382 0.930 . S
C1392 C1391 1.400 . S
C1392 C1395 1.386 . S
H1393 C1409 0.930 . S
H1394 C1410 0.931 . S
C1395 H1383 0.929 . S
C1395 C1389 1.390 . S
C1395 C1392 1.386 . S
C1396 C1391 1.490 . S
C1396 C1398 1.395 . S
C1396 C1399 1.403 . S
H1397 C1403 0.930 . S
C1398 H1384 0.930 . S
C1398 C1396 1.395 . S
C1398 C1401 1.403 . S
C1399 C1396 1.403 . S
C1399 C1400 1.524 . S
C1399 C1403 1.400 . S
C1400 H1385 0.960 . S
C1400 H1386 0.960 . S
C1400 H1387 0.960 . S
C1400 C1399 1.524 . S
C1401 C1398 1.403 . S
C1401 C1402 1.392 . S
C1401 C1405 1.495 . S
C1402 C1401 1.392 . S
C1402 C1403 1.385 . S
C1402 C1404 1.478 . S
C1403 H1397 0.930 . S
C1403 C1399 1.400 . S
C1403 C1402 1.385 . S
C1404 C1402 1.478 . S
C1404 C1406 1.381 . S
C1404 C1410 1.383 . S
C1405 C1401 1.495 . S
C1405 H1411 0.959 . S
C1405 H1412 0.961 . S
C1405 H1413 0.960 . S
C1406 C1404 1.381 . S
C1406 C1407 1.394 . S
C1406 H1414 0.930 . S
C1407 C1406 1.394 . S
C1407 C1408 1.383 . S
C1407 H1415 0.929 . S
C1408 C1407 1.383 . S
C1408 C1409 1.377 . S
C1409 H1393 0.930 . S
C1409 C1408 1.377 . S
C1409 C1410 1.379 . S
C1410 H1394 0.931 . S
C1410 C1404 1.383 . S
C1410 C1409 1.379 . S
H1411 C1405 0.959 . S
H1412 C1405 0.961 . S
H1413 C1405 0.960 . S
H1414 C1406 0.930 . S
H1415 C1407 0.929 . S
H1416 C1424 0.929 . S
H1417 C1426 0.930 . S
H1418 C1428 0.930 . S
H1419 C1431 0.929 . S
H1420 C1434 0.930 . S
H1421 C1436 0.960 . S
H1422 C1436 0.960 . S
H1423 C1436 0.960 . S
C1424 H1416 0.929 . S
C1424 C1425 1.377 . S
C1424 C1426 1.384 . S
C1425 C1424 1.377 . S
C1425 C1431 1.390 . S
C1426 H1417 0.930 . S
C1426 C1424 1.384 . S
C1426 C1427 1.372 . S
C1427 C1426 1.372 . S
C1427 C1428 1.400 . S
C1427 C1432 1.490 . S
C1428 H1418 0.930 . S
C1428 C1427 1.400 . S
C1428 C1431 1.386 . S
H1429 C1445 0.930 . S
H1430 C1446 0.931 . S
C1431 H1419 0.929 . S
C1431 C1425 1.390 . S
C1431 C1428 1.386 . S
C1432 C1427 1.490 . S
C1432 C1434 1.395 . S
C1432 C1435 1.403 . S
H1433 C1439 0.930 . S
C1434 H1420 0.930 . S
C1434 C1432 1.395 . S
C1434 C1437 1.403 . S
C1435 C1432 1.403 . S
C1435 C1436 1.524 . S
C1435 C1439 1.400 . S
C1436 H1421 0.960 . S
C1436 H1422 0.960 . S
C1436 H1423 0.960 . S
C1436 C1435 1.524 . S
C1437 C1434 1.403 . S
C1437 C1438 1.392 . S
C1437 C1441 1.495 . S
C1438 C1437 1.392 . S
C1438 C1439 1.385 . S
C1438 C1440 1.478 . S
C1439 H1433 0.930 . S
C1439 C1435 1.400 . S
C1439 C1438 1.385 . S
C1440 C1438 1.478 . S
C1440 C1442 1.381 . S
C1440 C1446 1.383 . S
C1441 C1437 1.495 . S
C1441 H1447 0.959 . S
C1441 H1448 0.961 . S
C1441 H1449 0.960 . S
C1442 C1440 1.381 . S
C1442 C1443 1.394 . S
C1442 H1450 0.930 . S
C1443 C1442 1.394 . S
C1443 C1444 1.383 . S
C1443 H1451 0.929 . S
C1444 C1443 1.383 . S
C1444 C1445 1.377 . S
C1445 H1429 0.930 . S
C1445 C1444 1.377 . S
C1445 C1446 1.379 . S
C1446 H1430 0.931 . S
C1446 C1440 1.383 . S
C1446 C1445 1.379 . S
H1447 C1441 0.959 . S
H1448 C1441 0.961 . S
H1449 C1441 0.960 . S
H1450 C1442 0.930 . S
H1451 C1443 0.929 . S
H1452 C1460 0.929 . S
H1453 C1462 0.930 . S
H1454 C1464 0.930 . S
H1455 C1467 0.929 . S
H1456 C1470 0.930 . S
H1457 C1472 0.960 . S
H1458 C1472 0.960 . S
H1459 C1472 0.960 . S
C1460 H1452 0.929 . S
C1460 C1461 1.377 . S
C1460 C1462 1.384 . S
C1461 C1460 1.377 . S
C1461 C1467 1.390 . S
C1462 H1453 0.930 . S
C1462 C1460 1.384 . S
C1462 C1463 1.372 . S
C1463 C1462 1.372 . S
C1463 C1464 1.400 . S
C1463 C1468 1.490 . S
C1464 H1454 0.930 . S
C1464 C1463 1.400 . S
C1464 C1467 1.386 . S
H1465 C1481 0.930 . S
H1466 C1482 0.931 . S
C1467 H1455 0.929 . S
C1467 C1461 1.390 . S
C1467 C1464 1.386 . S
C1468 C1463 1.490 . S
C1468 C1470 1.395 . S
C1468 C1471 1.403 . S
H1469 C1475 0.930 . S
C1470 H1456 0.930 . S
C1470 C1468 1.395 . S
C1470 C1473 1.403 . S
C1471 C1468 1.403 . S
C1471 C1472 1.524 . S
C1471 C1475 1.400 . S
C1472 H1457 0.960 . S
C1472 H1458 0.960 . S
C1472 H1459 0.960 . S
C1472 C1471 1.524 . S
C1473 C1470 1.403 . S
C1473 C1474 1.392 . S
C1473 C1477 1.495 . S
C1474 C1473 1.392 . S
C1474 C1475 1.385 . S
C1474 C1476 1.478 . S
C1475 H1469 0.930 . S
C1475 C1471 1.400 . S
C1475 C1474 1.385 . S
C1476 C1474 1.478 . S
C1476 C1478 1.381 . S
C1476 C1482 1.383 . S
C1477 C1473 1.495 . S
C1477 H1483 0.959 . S
C1477 H1484 0.961 . S
C1477 H1485 0.960 . S
C1478 C1476 1.381 . S
C1478 C1479 1.394 . S
C1478 H1486 0.930 . S
C1479 C1478 1.394 . S
C1479 C1480 1.383 . S
C1479 H1487 0.929 . S
C1480 C1479 1.383 . S
C1480 C1481 1.377 . S
C1481 H1465 0.930 . S
C1481 C1480 1.377 . S
C1481 C1482 1.379 . S
C1482 H1466 0.931 . S
C1482 C1476 1.383 . S
C1482 C1481 1.379 . S
H1483 C1477 0.959 . S
H1484 C1477 0.961 . S
H1485 C1477 0.960 . S
H1486 C1478 0.930 . S
H1487 C1479 0.929 . S
H1488 C1496 0.929 . S
H1489 C1498 0.930 . S
H1490 C1500 0.930 . S
H1491 C1503 0.929 . S
H1492 C1506 0.930 . S
H1493 C1508 0.960 . S
H1494 C1508 0.960 . S
H1495 C1508 0.960 . S
C1496 H1488 0.929 . S
C1496 C1497 1.377 . S
C1496 C1498 1.384 . S
C1497 C1496 1.377 . S
C1497 C1503 1.390 . S
C1498 H1489 0.930 . S
C1498 C1496 1.384 . S
C1498 C1499 1.372 . S
C1499 C1498 1.372 . S
C1499 C1500 1.400 . S
C1499 C1504 1.490 . S
C1500 H1490 0.930 . S
C1500 C1499 1.400 . S
C1500 C1503 1.386 . S
H1501 C1517 0.930 . S
H1502 C1518 0.931 . S
C1503 H1491 0.929 . S
C1503 C1497 1.390 . S
C1503 C1500 1.386 . S
C1504 C1499 1.490 . S
C1504 C1506 1.395 . S
C1504 C1507 1.403 . S
H1505 C1511 0.930 . S
C1506 H1492 0.930 . S
C1506 C1504 1.395 . S
C1506 C1509 1.403 . S
C1507 C1504 1.403 . S
C1507 C1508 1.524 . S
C1507 C1511 1.400 . S
C1508 H1493 0.960 . S
C1508 H1494 0.960 . S
C1508 H1495 0.960 . S
C1508 C1507 1.524 . S
C1509 C1506 1.403 . S
C1509 C1510 1.392 . S
C1509 C1513 1.495 . S
C1510 C1509 1.392 . S
C1510 C1511 1.385 . S
C1510 C1512 1.478 . S
C1511 H1505 0.930 . S
C1511 C1507 1.400 . S
C1511 C1510 1.385 . S
C1512 C1510 1.478 . S
C1512 C1514 1.381 . S
C1512 C1518 1.383 . S
C1513 C1509 1.495 . S
C1513 H1519 0.959 . S
C1513 H1520 0.961 . S
C1513 H1521 0.960 . S
C1514 C1512 1.381 . S
C1514 C1515 1.394 . S
C1514 H1522 0.930 . S
C1515 C1514 1.394 . S
C1515 C1516 1.383 . S
C1515 H1523 0.929 . S
C1516 C1515 1.383 . S
C1516 C1517 1.377 . S
C1517 H1501 0.930 . S
C1517 C1516 1.377 . S
C1517 C1518 1.379 . S
C1518 H1502 0.931 . S
C1518 C1512 1.383 . S
C1518 C1517 1.379 . S
H1519 C1513 0.959 . S
H1520 C1513 0.961 . S
H1521 C1513 0.960 . S
H1522 C1514 0.930 . S
H1523 C1515 0.929 . S
H1524 C1532 0.929 . S
H1525 C1534 0.930 . S
H1526 C1536 0.930 . S
H1527 C1539 0.929 . S
H1528 C1542 0.930 . S
H1529 C1544 0.960 . S
H1530 C1544 0.960 . S
H1531 C1544 0.960 . S
C1532 H1524 0.929 . S
C1532 C1533 1.377 . S
C1532 C1534 1.384 . S
C1533 C1532 1.377 . S
C1533 C1539 1.390 . S
C1534 H1525 0.930 . S
C1534 C1532 1.384 . S
C1534 C1535 1.372 . S
C1535 C1534 1.372 . S
C1535 C1536 1.400 . S
C1535 C1540 1.490 . S
C1536 H1526 0.930 . S
C1536 C1535 1.400 . S
C1536 C1539 1.386 . S
H1537 C1553 0.930 . S
H1538 C1554 0.931 . S
C1539 H1527 0.929 . S
C1539 C1533 1.390 . S
C1539 C1536 1.386 . S
C1540 C1535 1.490 . S
C1540 C1542 1.395 . S
C1540 C1543 1.403 . S
H1541 C1547 0.930 . S
C1542 H1528 0.930 . S
C1542 C1540 1.395 . S
C1542 C1545 1.403 . S
C1543 C1540 1.403 . S
C1543 C1544 1.524 . S
C1543 C1547 1.400 . S
C1544 H1529 0.960 . S
C1544 H1530 0.960 . S
C1544 H1531 0.960 . S
C1544 C1543 1.524 . S
C1545 C1542 1.403 . S
C1545 C1546 1.392 . S
C1545 C1549 1.495 . S
C1546 C1545 1.392 . S
C1546 C1547 1.385 . S
C1546 C1548 1.478 . S
C1547 H1541 0.930 . S
C1547 C1543 1.400 . S
C1547 C1546 1.385 . S
C1548 C1546 1.478 . S
C1548 C1550 1.381 . S
C1548 C1554 1.383 . S
C1549 C1545 1.495 . S
C1549 H1555 0.959 . S
C1549 H1556 0.961 . S
C1549 H1557 0.960 . S
C1550 C1548 1.381 . S
C1550 C1551 1.394 . S
C1550 H1558 0.930 . S
C1551 C1550 1.394 . S
C1551 C1552 1.383 . S
C1551 H1559 0.929 . S
C1552 C1551 1.383 . S
C1552 C1553 1.377 . S
C1553 H1537 0.930 . S
C1553 C1552 1.377 . S
C1553 C1554 1.379 . S
C1554 H1538 0.931 . S
C1554 C1548 1.383 . S
C1554 C1553 1.379 . S
H1555 C1549 0.959 . S
H1556 C1549 0.961 . S
H1557 C1549 0.960 . S
H1558 C1550 0.930 . S
H1559 C1551 0.929 . S
H1560 C1568 0.929 . S
H1561 C1570 0.930 . S
H1562 C1572 0.930 . S
H1563 C1575 0.929 . S
H1564 C1578 0.930 . S
H1565 C1580 0.960 . S
H1566 C1580 0.960 . S
H1567 C1580 0.960 . S
C1568 H1560 0.929 . S
C1568 C1569 1.377 . S
C1568 C1570 1.384 . S
C1569 C1568 1.377 . S
C1569 C1575 1.390 . S
C1570 H1561 0.930 . S
C1570 C1568 1.384 . S
C1570 C1571 1.372 . S
C1571 C1570 1.372 . S
C1571 C1572 1.400 . S
C1571 C1576 1.490 . S
C1572 H1562 0.930 . S
C1572 C1571 1.400 . S
C1572 C1575 1.386 . S
H1573 C1589 0.930 . S
H1574 C1590 0.931 . S
C1575 H1563 0.929 . S
C1575 C1569 1.390 . S
C1575 C1572 1.386 . S
C1576 C1571 1.490 . S
C1576 C1578 1.395 . S
C1576 C1579 1.403 . S
H1577 C1583 0.930 . S
C1578 H1564 0.930 . S
C1578 C1576 1.395 . S
C1578 C1581 1.403 . S
C1579 C1576 1.403 . S
C1579 C1580 1.524 . S
C1579 C1583 1.400 . S
C1580 H1565 0.960 . S
C1580 H1566 0.960 . S
C1580 H1567 0.960 . S
C1580 C1579 1.524 . S
C1581 C1578 1.403 . S
C1581 C1582 1.392 . S
C1581 C1585 1.495 . S
C1582 C1581 1.392 . S
C1582 C1583 1.385 . S
C1582 C1584 1.478 . S
C1583 H1577 0.930 . S
C1583 C1579 1.400 . S
C1583 C1582 1.385 . S
C1584 C1582 1.478 . S
C1584 C1586 1.381 . S
C1584 C1590 1.383 . S
C1585 C1581 1.495 . S
C1585 H1591 0.959 . S
C1585 H1592 0.961 . S
C1585 H1593 0.960 . S
C1586 C1584 1.381 . S
C1586 C1587 1.394 . S
C1586 H1594 0.930 . S
C1587 C1586 1.394 . S
C1587 C1588 1.383 . S
C1587 H1595 0.929 . S
C1588 C1587 1.383 . S
C1588 C1589 1.377 . S
C1589 H1573 0.930 . S
C1589 C1588 1.377 . S
C1589 C1590 1.379 . S
C1590 H1574 0.931 . S
C1590 C1584 1.383 . S
C1590 C1589 1.379 . S
H1591 C1585 0.959 . S
H1592 C1585 0.961 . S
H1593 C1585 0.960 . S
H1594 C1586 0.930 . S
H1595 C1587 0.929 . S
H1596 C1604 0.929 . S
H1597 C1606 0.930 . S
H1598 C1608 0.930 . S
H1599 C1611 0.929 . S
H1600 C1614 0.930 . S
H1601 C1616 0.960 . S
H1602 C1616 0.960 . S
H1603 C1616 0.960 . S
C1604 H1596 0.929 . S
C1604 C1605 1.377 . S
C1604 C1606 1.384 . S
C1605 C1604 1.377 . S
C1605 C1611 1.390 . S
C1606 H1597 0.930 . S
C1606 C1604 1.384 . S
C1606 C1607 1.372 . S
C1607 C1606 1.372 . S
C1607 C1608 1.400 . S
C1607 C1612 1.490 . S
C1608 H1598 0.930 . S
C1608 C1607 1.400 . S
C1608 C1611 1.386 . S
H1609 C1625 0.930 . S
H1610 C1626 0.931 . S
C1611 H1599 0.929 . S
C1611 C1605 1.390 . S
C1611 C1608 1.386 . S
C1612 C1607 1.490 . S
C1612 C1614 1.395 . S
C1612 C1615 1.403 . S
H1613 C1619 0.930 . S
C1614 H1600 0.930 . S
C1614 C1612 1.395 . S
C1614 C1617 1.403 . S
C1615 C1612 1.403 . S
C1615 C1616 1.524 . S
C1615 C1619 1.400 . S
C1616 H1601 0.960 . S
C1616 H1602 0.960 . S
C1616 H1603 0.960 . S
C1616 C1615 1.524 . S
C1617 C1614 1.403 . S
C1617 C1618 1.392 . S
C1617 C1621 1.495 . S
C1618 C1617 1.392 . S
C1618 C1619 1.385 . S
C1618 C1620 1.478 . S
C1619 H1613 0.930 . S
C1619 C1615 1.400 . S
C1619 C1618 1.385 . S
C1620 C1618 1.478 . S
C1620 C1622 1.381 . S
C1620 C1626 1.383 . S
C1621 C1617 1.495 . S
C1621 H1627 0.959 . S
C1621 H1628 0.961 . S
C1621 H1629 0.960 . S
C1622 C1620 1.381 . S
C1622 C1623 1.394 . S
C1622 H1630 0.930 . S
C1623 C1622 1.394 . S
C1623 C1624 1.383 . S
C1623 H1631 0.929 . S
C1624 C1623 1.383 . S
C1624 C1625 1.377 . S
C1625 H1609 0.930 . S
C1625 C1624 1.377 . S
C1625 C1626 1.379 . S
C1626 H1610 0.931 . S
C1626 C1620 1.383 . S
C1626 C1625 1.379 . S
H1627 C1621 0.959 . S
H1628 C1621 0.961 . S
H1629 C1621 0.960 . S
H1630 C1622 0.930 . S
H1631 C1623 0.929 . S
H1632 C1640 0.929 . S
H1633 C1642 0.930 . S
H1634 C1644 0.930 . S
H1635 C1647 0.929 . S
H1636 C1650 0.930 . S
H1637 C1652 0.960 . S
H1638 C1652 0.960 . S
H1639 C1652 0.960 . S
C1640 H1632 0.929 . S
C1640 C1641 1.377 . S
C1640 C1642 1.384 . S
C1641 C1640 1.377 . S
C1641 C1647 1.390 . S
C1642 H1633 0.930 . S
C1642 C1640 1.384 . S
C1642 C1643 1.372 . S
C1643 C1642 1.372 . S
C1643 C1644 1.400 . S
C1643 C1648 1.490 . S
C1644 H1634 0.930 . S
C1644 C1643 1.400 . S
C1644 C1647 1.386 . S
H1645 C1661 0.930 . S
H1646 C1662 0.931 . S
C1647 H1635 0.929 . S
C1647 C1641 1.390 . S
C1647 C1644 1.386 . S
C1648 C1643 1.490 . S
C1648 C1650 1.395 . S
C1648 C1651 1.403 . S
H1649 C1655 0.930 . S
C1650 H1636 0.930 . S
C1650 C1648 1.395 . S
C1650 C1653 1.403 . S
C1651 C1648 1.403 . S
C1651 C1652 1.524 . S
C1651 C1655 1.400 . S
C1652 H1637 0.960 . S
C1652 H1638 0.960 . S
C1652 H1639 0.960 . S
C1652 C1651 1.524 . S
C1653 C1650 1.403 . S
C1653 C1654 1.392 . S
C1653 C1657 1.495 . S
C1654 C1653 1.392 . S
C1654 C1655 1.385 . S
C1654 C1656 1.478 . S
C1655 H1649 0.930 . S
C1655 C1651 1.400 . S
C1655 C1654 1.385 . S
C1656 C1654 1.478 . S
C1656 C1658 1.381 . S
C1656 C1662 1.383 . S
C1657 C1653 1.495 . S
C1657 H1663 0.959 . S
C1657 H1664 0.961 . S
C1657 H1665 0.960 . S
C1658 C1656 1.381 . S
C1658 C1659 1.394 . S
C1658 H1666 0.930 . S
C1659 C1658 1.394 . S
C1659 C1660 1.383 . S
C1659 H1667 0.929 . S
C1660 C1659 1.383 . S
C1660 C1661 1.377 . S
C1661 H1645 0.930 . S
C1661 C1660 1.377 . S
C1661 C1662 1.379 . S
C1662 H1646 0.931 . S
C1662 C1656 1.383 . S
C1662 C1661 1.379 . S
H1663 C1657 0.959 . S
H1664 C1657 0.961 . S
H1665 C1657 0.960 . S
H1666 C1658 0.930 . S
H1667 C1659 0.929 . S
H1668 C1676 0.929 . S
H1669 C1678 0.930 . S
H1670 C1680 0.930 . S
H1671 C1683 0.929 . S
H1672 C1686 0.930 . S
H1673 C1688 0.960 . S
H1674 C1688 0.960 . S
H1675 C1688 0.960 . S
C1676 H1668 0.929 . S
C1676 C1677 1.377 . S
C1676 C1678 1.384 . S
C1677 C1676 1.377 . S
C1677 C1683 1.390 . S
C1678 H1669 0.930 . S
C1678 C1676 1.384 . S
C1678 C1679 1.372 . S
C1679 C1678 1.372 . S
C1679 C1680 1.400 . S
C1679 C1684 1.490 . S
C1680 H1670 0.930 . S
C1680 C1679 1.400 . S
C1680 C1683 1.386 . S
H1681 C1697 0.930 . S
H1682 C1698 0.931 . S
C1683 H1671 0.929 . S
C1683 C1677 1.390 . S
C1683 C1680 1.386 . S
C1684 C1679 1.490 . S
C1684 C1686 1.395 . S
C1684 C1687 1.403 . S
H1685 C1691 0.930 . S
C1686 H1672 0.930 . S
C1686 C1684 1.395 . S
C1686 C1689 1.403 . S
C1687 C1684 1.403 . S
C1687 C1688 1.524 . S
C1687 C1691 1.400 . S
C1688 H1673 0.960 . S
C1688 H1674 0.960 . S
C1688 H1675 0.960 . S
C1688 C1687 1.524 . S
C1689 C1686 1.403 . S
C1689 C1690 1.392 . S
C1689 C1693 1.495 . S
C1690 C1689 1.392 . S
C1690 C1691 1.385 . S
C1690 C1692 1.478 . S
C1691 H1685 0.930 . S
C1691 C1687 1.400 . S
C1691 C1690 1.385 . S
C1692 C1690 1.478 . S
C1692 C1694 1.381 . S
C1692 C1698 1.383 . S
C1693 C1689 1.495 . S
C1693 H1699 0.959 . S
C1693 H1700 0.961 . S
C1693 H1701 0.960 . S
C1694 C1692 1.381 . S
C1694 C1695 1.394 . S
C1694 H1702 0.930 . S
C1695 C1694 1.394 . S
C1695 C1696 1.383 . S
C1695 H1703 0.929 . S
C1696 C1695 1.383 . S
C1696 C1697 1.377 . S
C1697 H1681 0.930 . S
C1697 C1696 1.377 . S
C1697 C1698 1.379 . S
C1698 H1682 0.931 . S
C1698 C1692 1.383 . S
C1698 C1697 1.379 . S
H1699 C1693 0.959 . S
H1700 C1693 0.961 . S
H1701 C1693 0.960 . S
H1702 C1694 0.930 . S
H1703 C1695 0.929 . S
C417 C68 0.684 . S
C436 C8 0.684 . S
C453 C131 0.695 . S
C472 C51 0.692 . S
C489 C76 0.687 . S
C508 C136 0.674 . S
C525 C119 0.687 . S
C544 C199 0.655 . S
C561 C0 0.693 . S
C580 C144 0.687 . S
C597 C63 0.689 . S
C616 C187 0.683 . S
C633 C369 0.686 . S
C652 C221 0.685 . S
C669 C246 0.686 . S
C688 C374 0.655 . S
C705 C289 0.687 . S
C724 C233 0.728 . S
C741 C314 0.688 . S
C760 C238 0.725 . S
C777 C357 0.687 . S
C796 C301 0.656 . S
C813 C306 0.691 . S
C832 C382 0.686 . S
C849 C106 1.645 . S
C868 C13 1.641 . S
C885 C38 1.647 . S
C904 C149 1.633 . S
C921 C81 1.647 . S
C940 C174 1.649 . S
C957 C208 1.646 . S
C976 C319 1.652 . S
C993 C251 1.647 . S
C1012 C344 1.633 . S
C1029 C276 1.648 . S
C1048 C387 1.639 . S
C1065 C242 1.877 . S
C1084 C4 1.878 . S
C1101 C47 1.872 . S
C1120 C285 1.859 . S
C1137 C310 1.876 . S
C1156 C72 1.863 . S
C1173 C115 1.872 . S
C1192 C353 1.862 . S
C1209 C140 1.871 . S
C1228 C378 1.869 . S
C1245 C217 1.873 . S
C1264 C183 1.858 . S
C1281 C97 1.002 . S
C1300 C17 0.983 . S
C1317 C42 0.998 . S
C1336 C102 1.003 . S
C1353 C85 0.998 . S
C1372 C165 1.006 . S
C1389 C110 0.999 . S
C1408 C170 0.998 . S
C1425 C29 1.003 . S
C1444 C153 0.976 . S
C1461 C34 1.002 . S
C1480 C178 1.006 . S
C1497 C340 1.003 . S
C1516 C212 0.994 . S
C1533 C255 1.000 . S
C1552 C403 1.000 . S
C1569 C280 0.997 . S
C1588 C204 1.004 . S
C1605 C267 1.002 . S
C1624 C323 1.011 . S
C1641 C348 0.993 . S
C1660 C272 1.006 . S
C1677 C391 1.000 . S
C1696 C335 1.000 . S
