# Generated by pormake.
# Topology uod, (4)-cn, num edge types: 1
# Building blocks:
#     Node 0, Type 0, BuildingBlock: GALJAG_clean_sbu_0, # of connection points: 4
#     Node 1, Type 0, BuildingBlock: GALJAG_clean_sbu_0, # of connection points: 4
#     Node 2, Type 0, BuildingBlock: GALJAG_clean_sbu_0, # of connection points: 4
#     Node 3, Type 0, BuildingBlock: GALJAG_clean_sbu_0, # of connection points: 4
#     Node 4, Type 0, BuildingBlock: GALJAG_clean_sbu_0, # of connection points: 4
#     Node 5, Type 0, BuildingBlock: GALJAG_clean_sbu_0, # of connection points: 4
#     Node 6, Type 0, BuildingBlock: GALJAG_clean_sbu_0, # of connection points: 4
#     Node 7, Type 0, BuildingBlock: GALJAG_clean_sbu_0, # of connection points: 4
#     Node 8, Type 0, BuildingBlock: GALJAG_clean_sbu_0, # of connection points: 4
#     Node 9, Type 0, BuildingBlock: GALJAG_clean_sbu_0, # of connection points: 4
#     Node 10, Type 0, BuildingBlock: GALJAG_clean_sbu_0, # of connection points: 4
#     Node 11, Type 0, BuildingBlock: GALJAG_clean_sbu_0, # of connection points: 4
#     Node 12, Type 0, BuildingBlock: GALJAG_clean_sbu_0, # of connection points: 4
#     Node 13, Type 0, BuildingBlock: GALJAG_clean_sbu_0, # of connection points: 4
#     Node 14, Type 0, BuildingBlock: GALJAG_clean_sbu_0, # of connection points: 4
#     Node 15, Type 0, BuildingBlock: GALJAG_clean_sbu_0, # of connection points: 4
#     Node 16, Type 0, BuildingBlock: GALJAG_clean_sbu_0, # of connection points: 4
#     Node 17, Type 0, BuildingBlock: GALJAG_clean_sbu_0, # of connection points: 4
#     Node 18, Type 0, BuildingBlock: GALJAG_clean_sbu_0, # of connection points: 4
#     Node 19, Type 0, BuildingBlock: GALJAG_clean_sbu_0, # of connection points: 4
#     Node 20, Type 0, BuildingBlock: GALJAG_clean_sbu_0, # of connection points: 4
#     Node 21, Type 0, BuildingBlock: GALJAG_clean_sbu_0, # of connection points: 4
#     Node 22, Type 0, BuildingBlock: GALJAG_clean_sbu_0, # of connection points: 4
#     Node 23, Type 0, BuildingBlock: GALJAG_clean_sbu_0, # of connection points: 4
#     Node 24, Type 0, BuildingBlock: GALJAG_clean_sbu_0, # of connection points: 4
#     Node 25, Type 0, BuildingBlock: GALJAG_clean_sbu_0, # of connection points: 4
#     Node 26, Type 0, BuildingBlock: GALJAG_clean_sbu_0, # of connection points: 4
#     Node 27, Type 0, BuildingBlock: GALJAG_clean_sbu_0, # of connection points: 4
#     Node 28, Type 0, BuildingBlock: GALJAG_clean_sbu_0, # of connection points: 4
#     Node 29, Type 0, BuildingBlock: GALJAG_clean_sbu_0, # of connection points: 4
#     Node 30, Type 0, BuildingBlock: GALJAG_clean_sbu_0, # of connection points: 4
#     Node 31, Type 0, BuildingBlock: GALJAG_clean_sbu_0, # of connection points: 4
#     Edge 32, Type (0, 0), BuildingBlock: UVAHIK_clean_linker_0, # of connection points: 2
#     Edge 33, Type (0, 0), BuildingBlock: UVAHIK_clean_linker_0, # of connection points: 2
#     Edge 34, Type (0, 0), BuildingBlock: UVAHIK_clean_linker_0, # of connection points: 2
#     Edge 35, Type (0, 0), BuildingBlock: UVAHIK_clean_linker_0, # of connection points: 2
#     Edge 36, Type (0, 0), BuildingBlock: UVAHIK_clean_linker_0, # of connection points: 2
#     Edge 37, Type (0, 0), BuildingBlock: UVAHIK_clean_linker_0, # of connection points: 2
#     Edge 38, Type (0, 0), BuildingBlock: UVAHIK_clean_linker_0, # of connection points: 2
#     Edge 39, Type (0, 0), BuildingBlock: UVAHIK_clean_linker_0, # of connection points: 2
#     Edge 40, Type (0, 0), BuildingBlock: UVAHIK_clean_linker_0, # of connection points: 2
#     Edge 41, Type (0, 0), BuildingBlock: UVAHIK_clean_linker_0, # of connection points: 2
#     Edge 42, Type (0, 0), BuildingBlock: UVAHIK_clean_linker_0, # of connection points: 2
#     Edge 43, Type (0, 0), BuildingBlock: UVAHIK_clean_linker_0, # of connection points: 2
#     Edge 44, Type (0, 0), BuildingBlock: UVAHIK_clean_linker_0, # of connection points: 2
#     Edge 45, Type (0, 0), BuildingBlock: UVAHIK_clean_linker_0, # of connection points: 2
#     Edge 46, Type (0, 0), BuildingBlock: UVAHIK_clean_linker_0, # of connection points: 2
#     Edge 47, Type (0, 0), BuildingBlock: UVAHIK_clean_linker_0, # of connection points: 2
#     Edge 48, Type (0, 0), BuildingBlock: UVAHIK_clean_linker_0, # of connection points: 2
#     Edge 49, Type (0, 0), BuildingBlock: UVAHIK_clean_linker_0, # of connection points: 2
#     Edge 50, Type (0, 0), BuildingBlock: UVAHIK_clean_linker_0, # of connection points: 2
#     Edge 51, Type (0, 0), BuildingBlock: UVAHIK_clean_linker_0, # of connection points: 2
#     Edge 52, Type (0, 0), BuildingBlock: UVAHIK_clean_linker_0, # of connection points: 2
#     Edge 53, Type (0, 0), BuildingBlock: UVAHIK_clean_linker_0, # of connection points: 2
#     Edge 54, Type (0, 0), BuildingBlock: UVAHIK_clean_linker_0, # of connection points: 2
#     Edge 55, Type (0, 0), BuildingBlock: UVAHIK_clean_linker_0, # of connection points: 2
#     Edge 56, Type (0, 0), BuildingBlock: UVAHIK_clean_linker_0, # of connection points: 2
#     Edge 57, Type (0, 0), BuildingBlock: UVAHIK_clean_linker_0, # of connection points: 2
#     Edge 58, Type (0, 0), BuildingBlock: UVAHIK_clean_linker_0, # of connection points: 2
#     Edge 59, Type (0, 0), BuildingBlock: UVAHIK_clean_linker_0, # of connection points: 2
#     Edge 60, Type (0, 0), BuildingBlock: UVAHIK_clean_linker_0, # of connection points: 2
#     Edge 61, Type (0, 0), BuildingBlock: UVAHIK_clean_linker_0, # of connection points: 2
#     Edge 62, Type (0, 0), BuildingBlock: UVAHIK_clean_linker_0, # of connection points: 2
#     Edge 63, Type (0, 0), BuildingBlock: UVAHIK_clean_linker_0, # of connection points: 2
#     Edge 64, Type (0, 0), BuildingBlock: UVAHIK_clean_linker_0, # of connection points: 2
#     Edge 65, Type (0, 0), BuildingBlock: UVAHIK_clean_linker_0, # of connection points: 2
#     Edge 66, Type (0, 0), BuildingBlock: UVAHIK_clean_linker_0, # of connection points: 2
#     Edge 67, Type (0, 0), BuildingBlock: UVAHIK_clean_linker_0, # of connection points: 2
#     Edge 68, Type (0, 0), BuildingBlock: UVAHIK_clean_linker_0, # of connection points: 2
#     Edge 69, Type (0, 0), BuildingBlock: UVAHIK_clean_linker_0, # of connection points: 2
#     Edge 70, Type (0, 0), BuildingBlock: UVAHIK_clean_linker_0, # of connection points: 2
#     Edge 71, Type (0, 0), BuildingBlock: UVAHIK_clean_linker_0, # of connection points: 2
#     Edge 72, Type (0, 0), BuildingBlock: UVAHIK_clean_linker_0, # of connection points: 2
#     Edge 73, Type (0, 0), BuildingBlock: UVAHIK_clean_linker_0, # of connection points: 2
#     Edge 74, Type (0, 0), BuildingBlock: UVAHIK_clean_linker_0, # of connection points: 2
#     Edge 75, Type (0, 0), BuildingBlock: UVAHIK_clean_linker_0, # of connection points: 2
#     Edge 76, Type (0, 0), BuildingBlock: UVAHIK_clean_linker_0, # of connection points: 2
#     Edge 77, Type (0, 0), BuildingBlock: UVAHIK_clean_linker_0, # of connection points: 2
#     Edge 78, Type (0, 0), BuildingBlock: UVAHIK_clean_linker_0, # of connection points: 2
#     Edge 79, Type (0, 0), BuildingBlock: UVAHIK_clean_linker_0, # of connection points: 2
#     Edge 80, Type (0, 0), BuildingBlock: UVAHIK_clean_linker_0, # of connection points: 2
#     Edge 81, Type (0, 0), BuildingBlock: UVAHIK_clean_linker_0, # of connection points: 2
#     Edge 82, Type (0, 0), BuildingBlock: UVAHIK_clean_linker_0, # of connection points: 2
#     Edge 83, Type (0, 0), BuildingBlock: UVAHIK_clean_linker_0, # of connection points: 2
#     Edge 84, Type (0, 0), BuildingBlock: UVAHIK_clean_linker_0, # of connection points: 2
#     Edge 85, Type (0, 0), BuildingBlock: UVAHIK_clean_linker_0, # of connection points: 2
#     Edge 86, Type (0, 0), BuildingBlock: UVAHIK_clean_linker_0, # of connection points: 2
#     Edge 87, Type (0, 0), BuildingBlock: UVAHIK_clean_linker_0, # of connection points: 2
#     Edge 88, Type (0, 0), BuildingBlock: UVAHIK_clean_linker_0, # of connection points: 2
#     Edge 89, Type (0, 0), BuildingBlock: UVAHIK_clean_linker_0, # of connection points: 2
#     Edge 90, Type (0, 0), BuildingBlock: UVAHIK_clean_linker_0, # of connection points: 2
#     Edge 91, Type (0, 0), BuildingBlock: UVAHIK_clean_linker_0, # of connection points: 2
#     Edge 92, Type (0, 0), BuildingBlock: UVAHIK_clean_linker_0, # of connection points: 2
#     Edge 93, Type (0, 0), BuildingBlock: UVAHIK_clean_linker_0, # of connection points: 2
#     Edge 94, Type (0, 0), BuildingBlock: UVAHIK_clean_linker_0, # of connection points: 2
#     Edge 95, Type (0, 0), BuildingBlock: UVAHIK_clean_linker_0, # of connection points: 2
# Relax obj value: 0.120
# Max RMSD: 0.152
# Mean RMSD: 0.152
data_MOF--net-uod--node1-GALJAG_clean_sbu_0--edge1-UVAHIK_clean_linker_0
_symmetry_space_group_name_H-M    P1
_symmetry_Int_Tables_number       1
_symmetry_cell_setting            triclinic
loop_
_symmetry_equiv_pos_as_xyz
'x, y, z'
_cell_length_a     123.83996
_cell_length_b     35.995726
_cell_length_c     67.635994
_cell_angle_alpha  89.976232
_cell_angle_beta   89.975349
_cell_angle_gamma 89.98076
loop_
_atom_site_label
_atom_site_type_symbol
_atom_site_fract_x
_atom_site_fract_y
_atom_site_fract_z
_atom_type_partial_charge
In0 In 0.04825 0.39005 0.09188 0.0
O1 O 0.04792 0.40442 0.05885 0.0
O2 O 0.0337 0.38245 0.0722 0.0
C3 C 0.0694 0.38818 0.10147 0.0
C4 C 0.04069 0.45624 0.10385 0.0
C5 C 0.04275 0.32194 0.10406 0.0
O6 O 0.06619 0.38372 0.08387 0.0
O7 O 0.06199 0.39382 0.11388 0.0
O8 O 0.04143 0.35023 0.11489 0.0
O9 O 0.04687 0.32818 0.0873 0.0
C10 C 0.03808 0.39557 0.05688 0.0
O11 O 0.037 0.42619 0.11079 0.0
O12 O 0.04841 0.45251 0.09187 0.0
In13 In 0.19642 0.85923 0.08086 0.0
O14 O 0.20803 0.82494 0.09978 0.0
O15 O 0.19651 0.79672 0.08188 0.0
C16 C 0.20193 0.92643 0.09435 0.0
C17 C 0.20657 0.85131 0.04596 0.0
C18 C 0.17531 0.85976 0.09079 0.0
O19 O 0.20355 0.89711 0.10421 0.0
O20 O 0.19751 0.92176 0.07769 0.0
O21 O 0.17844 0.8676 0.07346 0.0
O22 O 0.18278 0.85155 0.10267 0.0
C23 C 0.20439 0.79428 0.09361 0.0
O24 O 0.1968 0.84193 0.04821 0.0
O25 O 0.21074 0.86712 0.06071 0.0
In26 In 0.04344 0.8709 0.16691 0.0
O27 O 0.0435 0.82657 0.19108 0.0
O28 O 0.0354 0.87741 0.19695 0.0
C29 C 0.06465 0.87175 0.15718 0.0
C30 C 0.03239 0.8208 0.14527 0.0
C31 C 0.03766 0.94193 0.16074 0.0
O32 O 0.06151 0.86469 0.17458 0.0
O33 O 0.05716 0.87846 0.14513 0.0
O34 O 0.03458 0.91574 0.1497 0.0
O35 O 0.04354 0.93221 0.17507 0.0
C36 C 0.03761 0.84498 0.20276 0.0
O37 O 0.02783 0.84162 0.1577 0.0
O38 O 0.04238 0.82626 0.14328 0.0
In39 In 0.20233 0.37071 0.17024 0.0
O40 O 0.20378 0.38768 0.20277 0.0
O41 O 0.21778 0.36794 0.18774 0.0
C42 C 0.18107 0.3713 0.16148 0.0
C43 C 0.20939 0.43471 0.15474 0.0
C44 C 0.20691 0.30044 0.1606 0.0
O45 O 0.18439 0.36928 0.17916 0.0
O46 O 0.18844 0.37294 0.14863 0.0
O47 O 0.2089 0.32733 0.14913 0.0
O48 O 0.20264 0.30912 0.17694 0.0
C49 C 0.21385 0.38157 0.20334 0.0
O50 O 0.21253 0.40369 0.14808 0.0
O51 O 0.20249 0.43293 0.16841 0.0
In52 In 0.95576 0.60254 0.89257 0.0
O53 O 0.95631 0.56085 0.91818 0.0
O54 O 0.96755 0.6054 0.91812 0.0
C55 C 0.93424 0.59705 0.88718 0.0
C56 C 0.9676 0.55519 0.87052 0.0
C57 C 0.95812 0.67641 0.88815 0.0
O58 O 0.93849 0.59641 0.90418 0.0
O59 O 0.94086 0.60021 0.87307 0.0
O60 O 0.95984 0.65393 0.87416 0.0
O61 O 0.95525 0.66156 0.90421 0.0
C62 C 0.96443 0.57577 0.92623 0.0
O63 O 0.97164 0.5834 0.87868 0.0
O64 O 0.95748 0.55275 0.87209 0.0
In65 In 0.79581 0.14525 0.89407 0.0
O66 O 0.79494 0.18584 0.92012 0.0
O67 O 0.78348 0.14201 0.91879 0.0
C68 C 0.81748 0.14999 0.8905 0.0
C69 C 0.78486 0.194 0.87133 0.0
C70 C 0.79317 0.07186 0.88799 0.0
O71 O 0.81283 0.14966 0.90716 0.0
O72 O 0.81119 0.14809 0.87585 0.0
O73 O 0.79181 0.09551 0.87442 0.0
O74 O 0.79581 0.08529 0.90451 0.0
C75 C 0.78661 0.17102 0.9275 0.0
O76 O 0.78036 0.16664 0.87952 0.0
O77 O 0.79496 0.1952 0.87348 0.0
In78 In 0.95451 0.14622 0.85834 0.0
O79 O 0.9552 0.18609 0.8319 0.0
O80 O 0.96674 0.14252 0.83352 0.0
C81 C 0.93293 0.15151 0.863 0.0
C82 C 0.96608 0.19495 0.87995 0.0
C83 C 0.95699 0.07274 0.86418 0.0
O84 O 0.93732 0.1506 0.84612 0.0
O85 O 0.93943 0.15 0.87736 0.0
O86 O 0.95843 0.09616 0.87783 0.0
O87 O 0.95431 0.08645 0.84773 0.0
C88 C 0.96357 0.17131 0.82465 0.0
O89 O 0.97017 0.16592 0.87271 0.0
O90 O 0.95601 0.19768 0.87768 0.0
In91 In 0.79799 0.60615 0.84555 0.0
O92 O 0.79788 0.56348 0.82057 0.0
O93 O 0.78824 0.61191 0.81725 0.0
C94 C 0.81949 0.60049 0.85165 0.0
C95 C 0.78531 0.55794 0.86538 0.0
C96 C 0.79471 0.6788 0.8531 0.0
O97 O 0.81547 0.60322 0.83455 0.0
O98 O 0.81268 0.60048 0.86551 0.0
O99 O 0.793 0.6539 0.86586 0.0
O100 O 0.79802 0.667 0.83663 0.0
C101 C 0.79097 0.58073 0.81036 0.0
O102 O 0.78153 0.58468 0.85554 0.0
O103 O 0.79547 0.5572 0.8664 0.0
In104 In 0.04886 0.85508 0.57052 0.0
O105 O 0.04682 0.89855 0.54627 0.0
O106 O 0.03891 0.84659 0.54257 0.0
C107 C 0.07069 0.85465 0.57389 0.0
C108 C 0.04116 0.90663 0.59596 0.0
C109 C 0.04215 0.78551 0.57843 0.0
O110 O 0.06608 0.86503 0.55815 0.0
O111 O 0.06434 0.84389 0.58722 0.0
O112 O 0.03912 0.81328 0.58838 0.0
O113 O 0.04841 0.79293 0.56424 0.0
C114 C 0.04039 0.87911 0.53611 0.0
O115 O 0.0358 0.89536 0.58134 0.0
O116 O 0.05015 0.89088 0.59817 0.0
In117 In 0.21023 0.35479 0.60937 0.0
O118 O 0.21081 0.31156 0.58456 0.0
O119 O 0.21988 0.36115 0.58101 0.0
C120 C 0.18881 0.35323 0.61706 0.0
C121 C 0.22201 0.30498 0.63 0.0
C122 C 0.21409 0.42769 0.61437 0.0
O123 O 0.19252 0.34943 0.59975 0.0
O124 O 0.19589 0.35746 0.63026 0.0
O125 O 0.21627 0.40407 0.62763 0.0
O126 O 0.21005 0.41441 0.59879 0.0
C127 C 0.21755 0.32949 0.5743 0.0
O128 O 0.22626 0.33202 0.62106 0.0
O129 O 0.21183 0.30495 0.62984 0.0
In130 In 0.05331 0.35096 0.66707 0.0
O131 O 0.04521 0.30788 0.64697 0.0
O132 O 0.05507 0.28922 0.6708 0.0
C133 C 0.04742 0.41629 0.65154 0.0
C134 C 0.04049 0.34773 0.69906 0.0
C135 C 0.07483 0.35563 0.66128 0.0
O136 O 0.0468 0.38635 0.64179 0.0
O137 O 0.05104 0.41309 0.66891 0.0
O138 O 0.07066 0.36062 0.67818 0.0
O139 O 0.06816 0.34868 0.6477 0.0
C140 C 0.049 0.28064 0.65656 0.0
O141 O 0.05063 0.34387 0.70039 0.0
O142 O 0.03703 0.35457 0.6819 0.0
In143 In 0.20386 0.8955 0.63704 0.0
O144 O 0.22074 0.91389 0.62765 0.0
O145 O 0.20736 0.9449 0.61705 0.0
C146 C 0.2084 0.82273 0.63335 0.0
C147 C 0.20949 0.92504 0.6722 0.0
C148 C 0.18275 0.89628 0.62668 0.0
O149 O 0.20998 0.84544 0.61939 0.0
O150 O 0.20451 0.83676 0.64887 0.0
O151 O 0.18578 0.89574 0.64452 0.0
O152 O 0.19033 0.89704 0.61425 0.0
C153 C 0.21749 0.94215 0.61836 0.0
O154 O 0.20371 0.94244 0.65991 0.0
O155 O 0.2115 0.89189 0.66748 0.0
In156 In 0.95685 0.08927 0.38177 0.0
O157 O 0.95584 0.04048 0.40332 0.0
O158 O 0.96249 0.09114 0.41373 0.0
C159 C 0.93545 0.09254 0.37371 0.0
C160 C 0.97051 0.04136 0.36392 0.0
C161 C 0.96286 0.16028 0.37523 0.0
O162 O 0.9392 0.10002 0.39061 0.0
O163 O 0.94244 0.08281 0.36119 0.0
O164 O 0.95996 0.13905 0.36136 0.0
O165 O 0.96291 0.14553 0.39211 0.0
C166 C 0.96065 0.05727 0.41712 0.0
O167 O 0.97378 0.0689 0.37375 0.0
O168 O 0.96042 0.04028 0.36149 0.0
In169 In 0.79897 0.64401 0.41289 0.0
O170 O 0.79338 0.64135 0.44536 0.0
O171 O 0.78206 0.65582 0.42283 0.0
C172 C 0.8204 0.63271 0.40981 0.0
C173 C 0.79855 0.71646 0.40408 0.0
C174 C 0.79205 0.58212 0.39494 0.0
O175 O 0.81568 0.63195 0.42646 0.0
O176 O 0.81428 0.63862 0.39523 0.0
O177 O 0.79259 0.61294 0.38598 0.0
O178 O 0.79495 0.58279 0.41285 0.0
C179 C 0.78382 0.65116 0.44103 0.0
O180 O 0.79401 0.69251 0.39318 0.0
O181 O 0.80349 0.70353 0.41888 0.0
In182 In 0.95652 0.63036 0.36485 0.0
O183 O 0.97287 0.65067 0.37634 0.0
O184 O 0.95885 0.67983 0.38537 0.0
C185 C 0.96142 0.55776 0.36833 0.0
C186 C 0.96279 0.66072 0.33026 0.0
C187 C 0.93502 0.62939 0.37211 0.0
O188 O 0.96121 0.57915 0.38314 0.0
O189 O 0.95917 0.57296 0.35206 0.0
O190 O 0.93881 0.63155 0.35481 0.0
O191 O 0.94204 0.62789 0.38557 0.0
C192 C 0.96902 0.67845 0.38524 0.0
O193 O 0.96513 0.62795 0.33526 0.0
O194 O 0.95651 0.67737 0.34202 0.0
In195 In 0.80155 0.14293 0.32439 0.0
O196 O 0.7991 0.09407 0.30334 0.0
O197 O 0.79066 0.14409 0.29719 0.0
C198 C 0.8234 0.14667 0.325 0.0
C199 C 0.79515 0.09573 0.35316 0.0
C200 C 0.79438 0.21299 0.32897 0.0
O201 O 0.81836 0.1315 0.31089 0.0
O202 O 0.81742 0.16078 0.33804 0.0
O203 O 0.79251 0.18766 0.34142 0.0
O204 O 0.79982 0.20291 0.31411 0.0
C205 C 0.79221 0.11047 0.29272 0.0
O206 O 0.78878 0.10783 0.34016 0.0
O207 O 0.80455 0.10889 0.35223 0.0
In208 In 0.55863 0.38758 0.58497 0.0
O209 O 0.55498 0.39535 0.552 0.0
O210 O 0.54188 0.39038 0.57237 0.0
C211 C 0.58006 0.37941 0.58978 0.0
C212 C 0.55561 0.45818 0.59606 0.0
C213 C 0.55236 0.32189 0.59945 0.0
O214 O 0.57569 0.37674 0.57288 0.0
O215 O 0.57361 0.38609 0.60378 0.0
O216 O 0.55221 0.35113 0.60985 0.0
O217 O 0.55563 0.32605 0.58188 0.0
C218 C 0.54485 0.39599 0.55477 0.0
O219 O 0.5516 0.43144 0.60578 0.0
O220 O 0.56143 0.44889 0.58157 0.0
In221 In 0.70592 0.8436 0.61413 0.0
O222 O 0.70954 0.83748 0.58112 0.0
O223 O 0.70729 0.78831 0.598 0.0
C224 C 0.68498 0.84705 0.62582 0.0
C225 C 0.71955 0.80289 0.63634 0.0
C226 C 0.71256 0.9146 0.61119 0.0
O227 O 0.68778 0.8341 0.60927 0.0
O228 O 0.69269 0.85827 0.63636 0.0
O229 O 0.71421 0.89509 0.6264 0.0
O230 O 0.70749 0.89839 0.59752 0.0
C231 C 0.70981 0.80241 0.58157 0.0
O232 O 0.72276 0.82438 0.62283 0.0
O233 O 0.70952 0.80435 0.63968 0.0
In234 In 0.55094 0.87815 0.68038 0.0
O235 O 0.54906 0.84651 0.70944 0.0
O236 O 0.53683 0.88528 0.70161 0.0
C237 C 0.57262 0.86717 0.67834 0.0
C238 C 0.54234 0.8265 0.65624 0.0
C239 C 0.54692 0.9493 0.67029 0.0
O240 O 0.56832 0.88456 0.6925 0.0
O241 O 0.56603 0.85522 0.66575 0.0
O242 O 0.54339 0.9221 0.66052 0.0
O243 O 0.55244 0.94068 0.68527 0.0
C244 C 0.54003 0.86082 0.71364 0.0
O245 O 0.54152 0.82527 0.67479 0.0
O246 O 0.54732 0.85452 0.64964 0.0
In247 In 0.71561 0.37088 0.63765 0.0
O248 O 0.71425 0.40829 0.66484 0.0
O249 O 0.72561 0.364 0.66555 0.0
C250 C 0.69415 0.36671 0.63081 0.0
C251 C 0.72547 0.42892 0.61999 0.0
C252 C 0.7218 0.30154 0.6282 0.0
O253 O 0.698 0.36808 0.6481 0.0
O254 O 0.70111 0.3673 0.6172 0.0
O255 O 0.72275 0.32825 0.61621 0.0
O256 O 0.71783 0.31 0.64477 0.0
C257 C 0.72177 0.39218 0.67413 0.0
O258 O 0.73068 0.40362 0.62865 0.0
O259 O 0.71545 0.42322 0.61892 0.0
In260 In 0.45549 0.60697 0.40423 0.0
O261 O 0.45963 0.59792 0.43697 0.0
O262 O 0.47221 0.5955 0.41541 0.0
C263 C 0.43445 0.62471 0.4013 0.0
C264 C 0.4552 0.53612 0.39246 0.0
C265 C 0.4641 0.66885 0.38934 0.0
O266 O 0.43916 0.6231 0.41793 0.0
O267 O 0.44042 0.61815 0.38659 0.0
O268 O 0.46243 0.64046 0.37874 0.0
O269 O 0.46133 0.66595 0.40727 0.0
C270 C 0.46954 0.59217 0.43332 0.0
O271 O 0.46061 0.56041 0.38324 0.0
O272 O 0.44975 0.54814 0.40684 0.0
In273 In 0.29958 0.12555 0.41257 0.0
O274 O 0.28302 0.15007 0.40551 0.0
O275 O 0.29676 0.17287 0.39107 0.0
C276 C 0.29367 0.05496 0.40539 0.0
C277 C 0.29469 0.1526 0.44866 0.0
C278 C 0.32059 0.12553 0.40135 0.0
O279 O 0.29147 0.08121 0.39374 0.0
O280 O 0.2989 0.06429 0.42058 0.0
O281 O 0.31781 0.12213 0.41925 0.0
O282 O 0.31284 0.12937 0.38948 0.0
C283 C 0.2867 0.1743 0.39385 0.0
O284 O 0.30016 0.17092 0.43626 0.0
O285 O 0.29257 0.11979 0.44344 0.0
In286 In 0.45195 0.10441 0.32748 0.0
O287 O 0.45279 0.15479 0.30707 0.0
O288 O 0.46043 0.10518 0.29755 0.0
C289 C 0.43047 0.09524 0.3332 0.0
C290 C 0.45935 0.15298 0.35455 0.0
C291 C 0.46121 0.03731 0.33116 0.0
O292 O 0.43418 0.11001 0.31764 0.0
O293 O 0.43757 0.08413 0.34514 0.0
O294 O 0.46328 0.06402 0.3426 0.0
O295 O 0.45438 0.04436 0.31781 0.0
C296 C 0.45878 0.13928 0.29444 0.0
O297 O 0.46528 0.13976 0.34114 0.0
O298 O 0.44987 0.14038 0.3548 0.0
In299 In 0.29944 0.60121 0.35476 0.0
O300 O 0.2985 0.57994 0.32281 0.0
O301 O 0.28423 0.60059 0.33657 0.0
C302 C 0.32071 0.6089 0.36209 0.0
C303 C 0.29321 0.53662 0.37081 0.0
C304 C 0.29314 0.67037 0.36319 0.0
O305 O 0.31696 0.60954 0.34468 0.0
O306 O 0.31376 0.60403 0.37548 0.0
O307 O 0.2927 0.64459 0.3759 0.0
O308 O 0.29679 0.66111 0.34647 0.0
C309 C 0.28841 0.58537 0.32163 0.0
O310 O 0.28893 0.56704 0.37596 0.0
O311 O 0.30098 0.53959 0.35887 0.0
In312 In 0.5513 0.88376 0.08303 0.0
O313 O 0.54414 0.93091 0.10154 0.0
O314 O 0.55493 0.94411 0.07795 0.0
C315 C 0.5438 0.82095 0.09896 0.0
C316 C 0.53843 0.88798 0.05119 0.0
C317 C 0.57246 0.8734 0.09062 0.0
O318 O 0.54383 0.8512 0.10852 0.0
O319 O 0.5476 0.82261 0.08164 0.0
O320 O 0.56864 0.86922 0.07336 0.0
O321 O 0.56561 0.88245 0.10357 0.0
C322 C 0.54888 0.95587 0.09158 0.0
O323 O 0.54863 0.88758 0.04949 0.0
O324 O 0.53494 0.88512 0.06865 0.0
In325 In 0.7045 0.34758 0.09816 0.0
O326 O 0.71543 0.30624 0.1145 0.0
O327 O 0.70325 0.28553 0.09521 0.0
C328 C 0.71126 0.41191 0.11365 0.0
C329 C 0.71421 0.34565 0.0626 0.0
C330 C 0.68345 0.35244 0.1083 0.0
O331 O 0.712 0.38167 0.12311 0.0
O332 O 0.70711 0.4094 0.09665 0.0
O333 O 0.6868 0.36177 0.09133 0.0
O334 O 0.69066 0.34035 0.11978 0.0
C335 C 0.71112 0.27827 0.10638 0.0
O336 O 0.70432 0.33756 0.06466 0.0
O337 O 0.71886 0.35637 0.07816 0.0
In338 In 0.55068 0.38324 0.17055 0.0
O339 O 0.53785 0.34689 0.15594 0.0
O340 O 0.55346 0.34794 0.14311 0.0
C341 C 0.54238 0.45155 0.16539 0.0
C342 C 0.54249 0.35043 0.20314 0.0
C343 C 0.57239 0.39067 0.16776 0.0
O344 O 0.54033 0.42479 0.15394 0.0
O345 O 0.54857 0.44377 0.17964 0.0
O346 O 0.568 0.37511 0.18247 0.0
O347 O 0.56585 0.40321 0.15517 0.0
C348 C 0.54408 0.33451 0.14278 0.0
O349 O 0.54909 0.33433 0.19179 0.0
O350 O 0.54081 0.38413 0.19902 0.0
In351 In 0.70589 0.8638 0.15642 0.0
O352 O 0.72166 0.88756 0.14419 0.0
O353 O 0.70696 0.90492 0.13101 0.0
C354 C 0.71166 0.79176 0.15608 0.0
C355 C 0.71219 0.90035 0.18931 0.0
C356 C 0.68462 0.86021 0.14737 0.0
O357 O 0.71411 0.81389 0.14229 0.0
O358 O 0.70628 0.80598 0.16999 0.0
O359 O 0.68787 0.8689 0.16448 0.0
O360 O 0.69205 0.85325 0.13519 0.0
C361 C 0.71708 0.90829 0.13174 0.0
O362 O 0.70587 0.91463 0.17678 0.0
O363 O 0.71452 0.86681 0.18605 0.0
In364 In 0.45577 0.09186 0.88462 0.0
O365 O 0.45602 0.05637 0.91303 0.0
O366 O 0.47005 0.08693 0.90506 0.0
C367 C 0.43447 0.09305 0.87652 0.0
C368 C 0.46508 0.04084 0.86107 0.0
C369 C 0.45943 0.16539 0.88417 0.0
O370 O 0.438 0.08838 0.89392 0.0
O371 O 0.44167 0.09684 0.86345 0.0
O372 O 0.46111 0.1451 0.86923 0.0
O373 O 0.45585 0.14856 0.89918 0.0
C374 C 0.46579 0.06399 0.91676 0.0
O375 O 0.4695 0.07169 0.86469 0.0
O376 O 0.45574 0.03706 0.86819 0.0
In377 In 0.2967 0.64178 0.90102 0.0
O378 O 0.29374 0.65509 0.93369 0.0
O379 O 0.28041 0.63854 0.91587 0.0
C380 C 0.31835 0.6374 0.89771 0.0
C381 C 0.29163 0.70981 0.88773 0.0
C382 C 0.29176 0.57489 0.88635 0.0
O383 O 0.31362 0.63328 0.91417 0.0
O384 O 0.31216 0.64362 0.88327 0.0
O385 O 0.2914 0.60402 0.87589 0.0
O386 O 0.29456 0.57972 0.90412 0.0
C387 C 0.28364 0.65005 0.93244 0.0
O388 O 0.28755 0.68095 0.88014 0.0
O389 O 0.29856 0.70385 0.90099 0.0
In390 In 0.45497 0.63133 0.85937 0.0
O391 O 0.4714 0.65269 0.86923 0.0
O392 O 0.45755 0.68242 0.87869 0.0
C393 C 0.45938 0.55949 0.86668 0.0
C394 C 0.46155 0.65826 0.82424 0.0
C395 C 0.43345 0.63298 0.86578 0.0
O396 O 0.46012 0.58413 0.8799 0.0
O397 O 0.4564 0.57117 0.84996 0.0
O398 O 0.43746 0.63114 0.84864 0.0
O399 O 0.44028 0.63426 0.87959 0.0
C400 C 0.46772 0.68111 0.87776 0.0
O401 O 0.4546 0.67471 0.83474 0.0
O402 O 0.46437 0.62679 0.83065 0.0
In403 In 0.29954 0.12371 0.82291 0.0
O404 O 0.29749 0.0775 0.80004 0.0
O405 O 0.29047 0.13006 0.79385 0.0
C406 C 0.32113 0.11941 0.82898 0.0
C407 C 0.2884 0.07703 0.84644 0.0
C408 C 0.29496 0.19585 0.82915 0.0
O409 O 0.31706 0.11623 0.81192 0.0
O410 O 0.31436 0.12499 0.84255 0.0
O411 O 0.29236 0.17065 0.8412 0.0
O412 O 0.29991 0.18469 0.81397 0.0
C413 C 0.29158 0.0966 0.7887 0.0
O414 O 0.2838 0.09836 0.8343 0.0
O415 O 0.29851 0.08043 0.84726 0.0
C416 C 0.01807 0.77209 0.14552 0.0
C417 C 0.02701 0.78861 0.13622 0.0
C418 C 0.01465 0.73663 0.13985 0.0
C419 C 0.01843 0.66243 0.10235 0.0
H420 H 0.02154 0.59731 0.14772 0.0
C421 C 0.03965 0.52394 0.09726 0.0
C422 C 0.03585 0.49294 0.10776 0.0
C423 C 0.03482 0.55851 0.09967 0.0
C424 C 0.02035 0.61495 0.13492 0.0
H425 H 0.03871 0.78303 0.1126 0.0
H426 H 0.03267 0.72165 0.10249 0.0
H427 H 0.0188 0.66369 0.15277 0.0
H428 H 0.02404 0.47375 0.1291 0.0
H429 H 0.01567 0.53506 0.1337 0.0
H430 H 0.02067 0.61398 0.08451 0.0
C431 C 0.0283 0.73573 0.11418 0.0
C432 C 0.01875 0.65299 0.1378 0.0
C433 C 0.03182 0.7708 0.12003 0.0
C434 C 0.02715 0.49728 0.1209 0.0
C435 C 0.02234 0.53221 0.12346 0.0
C436 C 0.02 0.62444 0.09948 0.0
C437 C 0.02001 0.7176 0.12459 0.0
C438 C 0.01836 0.67729 0.12153 0.0
C439 C 0.02609 0.56306 0.1127 0.0
C440 C 0.02157 0.6007 0.11574 0.0
H441 H 0.01425 0.78528 0.1581 0.0
H442 H 0.00821 0.72331 0.14805 0.0
H443 H 0.01798 0.6805 0.08956 0.0
H444 H 0.04633 0.52152 0.08699 0.0
H445 H 0.03806 0.58193 0.09154 0.0
C446 C 0.20474 0.72554 0.09088 0.0
C447 C 0.20924 0.75816 0.09864 0.0
C448 C 0.20928 0.69113 0.09514 0.0
C449 C 0.22472 0.64421 0.13332 0.0
H450 H 0.22149 0.56236 0.0965 0.0
C451 C 0.2209 0.47308 0.13197 0.0
C452 C 0.21364 0.47065 0.14788 0.0
C453 C 0.22463 0.50781 0.12558 0.0
C454 C 0.22275 0.58483 0.10689 0.0
H455 H 0.22222 0.78062 0.11651 0.0
H456 H 0.2302 0.71997 0.12413 0.0
H457 H 0.22056 0.62598 0.08444 0.0
H458 H 0.20489 0.50225 0.17002 0.0
H459 H 0.21116 0.56223 0.15878 0.0
H460 H 0.2266 0.60305 0.15585 0.0
C461 C 0.2231 0.72117 0.1148 0.0
C462 C 0.22208 0.62131 0.10001 0.0
C463 C 0.21852 0.7558 0.11051 0.0
C464 C 0.21044 0.50322 0.15763 0.0
C465 C 0.21417 0.53766 0.15136 0.0
C466 C 0.2255 0.60775 0.14016 0.0
C467 C 0.21848 0.68845 0.10722 0.0
C468 C 0.22236 0.65125 0.11336 0.0
C469 C 0.22121 0.54047 0.13515 0.0
C470 C 0.22382 0.57775 0.1272 0.0
H471 H 0.1976 0.72649 0.08162 0.0
H472 H 0.20533 0.6665 0.08947 0.0
H473 H 0.22505 0.66661 0.14399 0.0
H474 H 0.22356 0.4483 0.1243 0.0
H475 H 0.23006 0.50917 0.11304 0.0
C476 C 0.98284 0.23249 0.87658 0.0
C477 C 0.97267 0.22741 0.88544 0.0
C478 C 0.98759 0.2677 0.87618 0.0
C479 C 0.98642 0.34755 0.86039 0.0
H480 H 0.98596 0.42175 0.9019 0.0
C481 C 0.96949 0.49393 0.85387 0.0
C482 C 0.97417 0.52274 0.86489 0.0
C483 C 0.97412 0.45855 0.85394 0.0
C484 C 0.98641 0.40134 0.89016 0.0
H485 H 0.96009 0.25378 0.90268 0.0
H486 H 0.96857 0.31494 0.90261 0.0
H487 H 0.98545 0.35588 0.91059 0.0
H488 H 0.98787 0.53827 0.88306 0.0
H489 H 0.9958 0.47609 0.88355 0.0
H490 H 0.98637 0.39309 0.83993 0.0
C491 C 0.97281 0.29195 0.89576 0.0
C492 C 0.98606 0.3637 0.89516 0.0
C493 C 0.96794 0.25698 0.8958 0.0
C494 C 0.98412 0.51659 0.87434 0.0
C495 C 0.98863 0.48099 0.87474 0.0
C496 C 0.98658 0.38521 0.85539 0.0
C497 C 0.98238 0.29803 0.88505 0.0
C498 C 0.98563 0.33655 0.8803 0.0
C499 C 0.98338 0.45133 0.8653 0.0
C500 C 0.98616 0.41242 0.87023 0.0
H501 H 0.98662 0.2102 0.86834 0.0
H502 H 0.99498 0.27172 0.86786 0.0
H503 H 0.98599 0.32717 0.84863 0.0
H504 H 0.96181 0.49796 0.84651 0.0
H505 H 0.96986 0.43614 0.84663 0.0
C506 C 0.76916 0.51784 0.86043 0.0
C507 C 0.77872 0.52546 0.87087 0.0
C508 C 0.76462 0.48231 0.86099 0.0
C509 C 0.76557 0.39036 0.88525 0.0
H510 H 0.76782 0.35114 0.83196 0.0
C511 C 0.76851 0.23419 0.87222 0.0
C512 C 0.77875 0.22649 0.86425 0.0
C513 C 0.76408 0.2698 0.87058 0.0
C514 C 0.76691 0.36175 0.84685 0.0
H515 H 0.79035 0.50346 0.89171 0.0
H516 H 0.78226 0.44176 0.89316 0.0
H517 H 0.76765 0.4183 0.8372 0.0
H518 H 0.79186 0.24838 0.84655 0.0
H519 H 0.784 0.31018 0.84313 0.0
H520 H 0.7655 0.33379 0.89497 0.0
C521 C 0.77833 0.463 0.88438 0.0
C522 C 0.76675 0.40013 0.84987 0.0
C523 C 0.78299 0.49828 0.88353 0.0
C524 C 0.78395 0.25364 0.85281 0.0
C525 C 0.77943 0.28896 0.85082 0.0
C526 C 0.76555 0.35198 0.88221 0.0
C527 C 0.76944 0.45418 0.87234 0.0
C528 C 0.76659 0.41473 0.86915 0.0
C529 C 0.76973 0.29788 0.86055 0.0
C530 C 0.76673 0.33738 0.86305 0.0
H531 H 0.76573 0.53825 0.85047 0.0
H532 H 0.75775 0.47617 0.85164 0.0
H533 H 0.76543 0.40097 0.90023 0.0
H534 H 0.76436 0.21379 0.88123 0.0
H535 H 0.75659 0.27602 0.87816 0.0
C536 C 0.04373 0.94841 0.62484 0.0
C537 C 0.03817 0.93987 0.60738 0.0
C538 C 0.04284 0.98365 0.63324 0.0
C539 C 0.02866 0.07493 0.63011 0.0
H540 H 0.0572 0.11228 0.6428 0.0
C541 C 0.03958 0.23185 0.6364 0.0
C542 C 0.04645 0.24154 0.65208 0.0
C543 C 0.03732 0.19445 0.63247 0.0
C544 C 0.04915 0.10222 0.63956 0.0
H545 H 0.02661 0.96015 0.58587 0.0
H546 H 0.02526 0.02211 0.6002 0.0
H547 H 0.05491 0.04722 0.63471 0.0
H548 H 0.0561 0.21992 0.67628 0.0
H549 H 0.05217 0.15512 0.66947 0.0
H550 H 0.02304 0.13076 0.63449 0.0
C551 C 0.0302 0.00156 0.60762 0.0
C552 C 0.04781 0.06481 0.63503 0.0
C553 C 0.03099 0.96606 0.59937 0.0
C554 C 0.05087 0.21334 0.66395 0.0
C555 C 0.04863 0.17619 0.66004 0.0
C556 C 0.03002 0.11262 0.63459 0.0
C557 C 0.03651 0.01121 0.62412 0.0
C558 C 0.03756 0.05063 0.63026 0.0
C559 C 0.04195 0.16628 0.64414 0.0
C560 C 0.04029 0.12655 0.63937 0.0
H561 H 0.04923 0.92851 0.63144 0.0
H562 H 0.04755 0.98989 0.6463 0.0
H563 H 0.02066 0.06484 0.62655 0.0
H564 H 0.03603 0.25309 0.62709 0.0
H565 H 0.0322 0.18754 0.62003 0.0
C566 C 0.22081 0.00372 0.60271 0.0
C567 C 0.22458 0.97419 0.61437 0.0
C568 C 0.22583 0.0384 0.60361 0.0
C569 C 0.23815 0.09432 0.64114 0.0
H570 H 0.23972 0.16733 0.59909 0.0
C571 C 0.22319 0.24345 0.64666 0.0
C572 C 0.22815 0.27132 0.63534 0.0
C573 C 0.22734 0.20739 0.64671 0.0
C574 C 0.23959 0.14726 0.61103 0.0
H575 H 0.2371 0.95678 0.6348 0.0
H576 H 0.24577 0.01767 0.63659 0.0
H577 H 0.23895 0.10137 0.59088 0.0
H578 H 0.2419 0.28433 0.61672 0.0
H579 H 0.24907 0.22105 0.61659 0.0
H580 H 0.23799 0.14037 0.66123 0.0
C581 C 0.23897 0.01391 0.62671 0.0
C582 C 0.23907 0.10952 0.60629 0.0
C583 C 0.23405 0.97901 0.62555 0.0
C584 C 0.23792 0.2634 0.62564 0.0
C585 C 0.24199 0.22715 0.62544 0.0
C586 C 0.23855 0.13209 0.64586 0.0
C587 C 0.23462 0.04429 0.6164 0.0
C588 C 0.23791 0.0828 0.62127 0.0
C589 C 0.23645 0.19848 0.63523 0.0
C590 C 0.23884 0.15897 0.63082 0.0
H591 H 0.21352 0.00077 0.59401 0.0
H592 H 0.22225 0.06135 0.59558 0.0
H593 H 0.23717 0.07438 0.653 0.0
H594 H 0.21564 0.24883 0.65425 0.0
H595 H 0.22285 0.18587 0.65431 0.0
C596 C 0.98625 0.00191 0.37317 0.0
C597 C 0.97724 0.00796 0.36095 0.0
C598 C 0.99049 0.96614 0.37547 0.0
C599 C 0.98923 0.86901 0.35704 0.0
H600 H 0.98674 0.84316 0.41256 0.0
C601 C 0.98547 0.71719 0.38009 0.0
C602 C 0.97558 0.71156 0.38987 0.0
C603 C 0.98998 0.75276 0.379 0.0
C604 C 0.98766 0.84997 0.39705 0.0
H605 H 0.96637 0.98238 0.33991 0.0
H606 H 0.9739 0.92023 0.3435 0.0
H607 H 0.98717 0.9084 0.40275 0.0
H608 H 0.96332 0.7376 0.40803 0.0
H609 H 0.9713 0.79937 0.40653 0.0
H610 H 0.989 0.81062 0.35125 0.0
C611 C 0.97766 0.9429 0.35147 0.0
C612 C 0.98798 0.88732 0.39142 0.0
C613 C 0.97332 0.97852 0.3494 0.0
C614 C 0.97095 0.74115 0.40039 0.0
C615 C 0.97554 0.77655 0.39954 0.0
C616 C 0.98901 0.83167 0.36269 0.0
C617 C 0.98589 0.936 0.36531 0.0
C618 C 0.9883 0.8972 0.37129 0.0
C619 C 0.98478 0.78309 0.38796 0.0
C620 C 0.98775 0.8218 0.38269 0.0
H621 H 0.98941 0.02404 0.38235 0.0
H622 H 0.9969 0.96166 0.3861 0.0
H623 H 0.98954 0.87584 0.34145 0.0
H624 H 0.98921 0.69493 0.37176 0.0
H625 H 0.99717 0.75696 0.37013 0.0
C626 C 0.79031 0.77109 0.38684 0.0
C627 C 0.79765 0.75678 0.40071 0.0
C628 C 0.78903 0.80949 0.38473 0.0
C629 C 0.80325 0.89712 0.39237 0.0
H630 H 0.77481 0.94185 0.38901 0.0
C631 C 0.79966 0.05293 0.38086 0.0
C632 C 0.7926 0.0634 0.36564 0.0
C633 C 0.79893 0.01766 0.38932 0.0
C634 C 0.78281 0.92977 0.38986 0.0
H635 H 0.80945 0.77119 0.42313 0.0
H636 H 0.80732 0.83808 0.41924 0.0
H637 H 0.77652 0.87484 0.39414 0.0
H638 H 0.77864 0.04669 0.34849 0.0
H639 H 0.77754 0.98481 0.36275 0.0
H640 H 0.80962 0.95127 0.38732 0.0
C641 C 0.80255 0.81972 0.41003 0.0
C642 C 0.78377 0.89144 0.39276 0.0
C643 C 0.80376 0.78145 0.41225 0.0
C644 C 0.78419 0.03932 0.36023 0.0
C645 C 0.78355 0.00381 0.36847 0.0
C646 C 0.8023 0.93525 0.38931 0.0
C647 C 0.79514 0.83412 0.39633 0.0
C648 C 0.79401 0.87477 0.39387 0.0
C649 C 0.79123 0.99198 0.38245 0.0
C650 C 0.79207 0.95207 0.38785 0.0
H651 H 0.78546 0.75267 0.37783 0.0
H652 H 0.78335 0.81993 0.3739 0.0
H653 H 0.81125 0.88492 0.39293 0.0
H654 H 0.80615 0.07119 0.38545 0.0
H655 H 0.80476 0.00983 0.40049 0.0
C656 C 0.53355 0.76495 0.65228 0.0
C657 C 0.53936 0.79449 0.64388 0.0
C658 C 0.53298 0.73078 0.64265 0.0
C659 C 0.55042 0.67659 0.61095 0.0
H660 H 0.5277 0.60289 0.61509 0.0
C661 C 0.55717 0.52512 0.58745 0.0
C662 C 0.55306 0.49747 0.60002 0.0
C663 C 0.55432 0.5622 0.59012 0.0
C664 C 0.53412 0.62317 0.61394 0.0
H665 H 0.54814 0.81292 0.61795 0.0
H666 H 0.54711 0.75306 0.601 0.0
H667 H 0.52373 0.66797 0.62256 0.0
H668 H 0.54275 0.48685 0.62529 0.0
H669 H 0.53796 0.55212 0.63035 0.0
H670 H 0.56092 0.63194 0.6031 0.0
C671 C 0.54315 0.75619 0.61519 0.0
C672 C 0.53184 0.6604 0.61807 0.0
C673 C 0.54368 0.79048 0.62481 0.0
C674 C 0.54607 0.50765 0.61544 0.0
C675 C 0.54324 0.54491 0.61818 0.0
C676 C 0.5527 0.63948 0.60687 0.0
C677 C 0.53824 0.72554 0.62447 0.0
C678 C 0.54002 0.68737 0.61697 0.0
C679 C 0.54734 0.57256 0.60551 0.0
C680 C 0.54464 0.61225 0.60865 0.0
H681 H 0.53005 0.76742 0.66691 0.0
H682 H 0.52917 0.70774 0.65023 0.0
H683 H 0.55697 0.69651 0.61038 0.0
H684 H 0.5625 0.5181 0.57529 0.0
H685 H 0.55751 0.58274 0.57997 0.0
C686 C 0.73481 0.75906 0.63117 0.0
C687 C 0.72606 0.77083 0.64286 0.0
C688 C 0.73827 0.72214 0.63192 0.0
C689 C 0.72438 0.63519 0.63968 0.0
H690 H 0.75163 0.58959 0.62507 0.0
C691 C 0.73904 0.47813 0.62737 0.0
C692 C 0.72999 0.46621 0.61653 0.0
C693 C 0.74112 0.5161 0.62969 0.0
C694 C 0.74399 0.60207 0.62917 0.0
H695 H 0.71533 0.75536 0.66677 0.0
H696 H 0.72168 0.69133 0.66866 0.0
H697 H 0.75124 0.65483 0.63585 0.0
H698 H 0.71693 0.48402 0.59748 0.0
H699 H 0.72071 0.5501 0.60107 0.0
H700 H 0.71707 0.58315 0.63291 0.0
C701 C 0.72556 0.7101 0.65834 0.0
C702 C 0.74376 0.63926 0.63537 0.0
C703 C 0.72198 0.74684 0.6574 0.0
C704 C 0.72388 0.49249 0.60607 0.0
C705 C 0.726 0.53029 0.60827 0.0
C706 C 0.7246 0.59845 0.6334 0.0
C707 C 0.73313 0.69671 0.64455 0.0
C708 C 0.73392 0.65626 0.64055 0.0
C709 C 0.7342 0.54245 0.62108 0.0
C710 C 0.73435 0.58164 0.62775 0.0
H711 H 0.73815 0.77702 0.61986 0.0
H712 H 0.74416 0.71281 0.62116 0.0
H713 H 0.71662 0.64748 0.64313 0.0
H714 H 0.74387 0.45842 0.63564 0.0
H715 H 0.74751 0.52473 0.63959 0.0
C716 C 0.44914 0.47151 0.39863 0.0
C717 C 0.45594 0.49608 0.38839 0.0
C718 C 0.45051 0.43331 0.39684 0.0
C719 C 0.47057 0.36227 0.38432 0.0
H720 H 0.44531 0.29948 0.37907 0.0
C721 C 0.47081 0.209 0.35923 0.0
C722 C 0.46236 0.18619 0.36591 0.0
C723 C 0.47156 0.24569 0.36575 0.0
C724 C 0.45244 0.31651 0.38098 0.0
H725 H 0.46936 0.50016 0.36792 0.0
H726 H 0.47167 0.43282 0.36452 0.0
H727 H 0.44311 0.36634 0.38073 0.0
H728 H 0.44904 0.18177 0.38654 0.0
H729 H 0.45056 0.24547 0.39841 0.0
H730 H 0.47991 0.31207 0.3842 0.0
C731 C 0.46537 0.44334 0.37413 0.0
C732 C 0.45118 0.35487 0.38177 0.0
C733 C 0.46398 0.48175 0.37589 0.0
C734 C 0.45553 0.19903 0.38096 0.0
C735 C 0.45635 0.23553 0.38763 0.0
C736 C 0.47185 0.3237 0.38352 0.0
C737 C 0.4587 0.41882 0.38475 0.0
C738 C 0.46021 0.37815 0.38344 0.0
C739 C 0.46394 0.25985 0.37917 0.0
C740 C 0.46278 0.30046 0.38184 0.0
H741 H 0.4429 0.48177 0.40845 0.0
H742 H 0.44532 0.41512 0.40535 0.0
H743 H 0.47767 0.37963 0.38585 0.0
H744 H 0.47621 0.19971 0.34764 0.0
H745 H 0.47751 0.26372 0.35898 0.0
C746 C 0.27907 0.49657 0.38692 0.0
C747 C 0.2885 0.50004 0.37545 0.0
C748 C 0.27389 0.46207 0.3886 0.0
C749 C 0.27064 0.37506 0.36178 0.0
H750 H 0.27037 0.32328 0.412 0.0
C751 C 0.28407 0.22789 0.37131 0.0
C752 C 0.28023 0.20597 0.38691 0.0
C753 C 0.27969 0.26294 0.36789 0.0
C754 C 0.27 0.33752 0.39791 0.0
H755 H 0.30007 0.47007 0.35734 0.0
H756 H 0.29104 0.41056 0.36018 0.0
H757 H 0.27326 0.39035 0.41129 0.0
H758 H 0.2682 0.20176 0.41011 0.0
H759 H 0.26064 0.26368 0.40434 0.0
H760 H 0.26821 0.32203 0.34825 0.0
C761 C 0.28759 0.43438 0.36768 0.0
C762 C 0.27168 0.37591 0.39754 0.0
C763 C 0.29282 0.46839 0.36626 0.0
C764 C 0.27129 0.2182 0.39794 0.0
C765 C 0.267 0.25363 0.39471 0.0
C766 C 0.26891 0.33681 0.36214 0.0
C767 C 0.27798 0.43104 0.37851 0.0
C768 C 0.27269 0.39442 0.37941 0.0
C769 C 0.27149 0.27692 0.3802 0.0
C770 C 0.26929 0.31736 0.38012 0.0
H771 H 0.27556 0.5206 0.3941 0.0
H772 H 0.26656 0.45984 0.39726 0.0
H773 H 0.27127 0.38903 0.34763 0.0
H774 H 0.29094 0.21897 0.36258 0.0
H775 H 0.28342 0.28029 0.35671 0.0
C776 C 0.53308 0.27783 0.13659 0.0
C777 C 0.54139 0.30191 0.13064 0.0
C778 C 0.53234 0.24222 0.12851 0.0
C779 C 0.55093 0.17385 0.10748 0.0
H780 H 0.52525 0.11291 0.10264 0.0
C781 C 0.5532 0.02157 0.08358 0.0
C782 C 0.54725 -0.00406 0.09483 0.0
C783 C 0.5516 0.05957 0.086 0.0
C784 C 0.53247 0.12966 0.10405 0.0
H785 H 0.55461 0.30963 0.11008 0.0
H786 H 0.55305 0.24806 0.09538 0.0
H787 H 0.52343 0.17987 0.10811 0.0
H788 H 0.53487 0.98983 0.11726 0.0
H789 H 0.53212 0.05679 0.12164 0.0
H790 H 0.55997 0.12386 0.10366 0.0
C791 C 0.54738 0.256 0.10681 0.0
C792 C 0.53144 0.16793 0.10712 0.0
C793 C 0.54822 0.29136 0.11508 0.0
C794 C 0.5396 0.00904 0.10848 0.0
C795 C 0.53796 0.04725 0.11085 0.0
C796 C 0.55195 0.13581 0.10432 0.0
C797 C 0.53982 0.23035 0.1142 0.0
C798 C 0.54068 0.19041 0.10899 0.0
C799 C 0.544 0.07282 0.09969 0.0
C800 C 0.54275 0.11329 0.1027 0.0
H801 H 0.52771 0.2853 0.14859 0.0
H802 H 0.52643 0.2232 0.13458 0.0
H803 H 0.55822 0.19003 0.10942 0.0
H804 H 0.5591 0.01231 0.07284 0.0
H805 H 0.55628 0.07865 0.07705 0.0
C806 C 0.73213 0.95418 0.13042 0.0
C807 C 0.72263 0.93963 0.12212 0.0
C808 C 0.73561 0.98988 0.12533 0.0
C809 C 0.73032 0.06996 0.09186 0.0
H810 H 0.73028 0.12737 0.14041 0.0
C811 C 0.71072 0.21172 0.0968 0.0
C812 C 0.71545 0.24021 0.10801 0.0
C813 C 0.7151 0.17614 0.09684 0.0
C814 C 0.73059 0.11189 0.12669 0.0
H815 H 0.71004 0.94884 0.10046 0.0
H816 H 0.71615 0.01069 0.09138 0.0
H817 H 0.73275 0.06029 0.14183 0.0
H818 H 0.72845 0.25377 0.12819 0.0
H819 H 0.73606 0.19073 0.12857 0.0
H820 H 0.72751 0.12138 0.07684 0.0
C821 C 0.72091 0.99491 0.10186 0.0
C822 C 0.73204 0.07342 0.12748 0.0
C823 C 0.71736 0.9595 0.10711 0.0
C824 C 0.72461 0.23223 0.1195 0.0
C825 C 0.72898 0.19631 0.11965 0.0
C826 C 0.72889 0.10839 0.09107 0.0
C827 C 0.72972 0.01123 0.11168 0.0
C828 C 0.73137 0.0519 0.11016 0.0
C829 C 0.72431 0.16804 0.10813 0.0
C830 C 0.72846 0.12943 0.10857 0.0
H831 H 0.73634 0.93942 0.14206 0.0
H832 H 0.74249 0.00168 0.13298 0.0
H833 H 0.72994 0.05412 0.07826 0.0
H834 H 0.70365 0.21694 0.08777 0.0
H835 H 0.71115 0.15475 0.08821 0.0
C836 C 0.48352 0.72016 0.86874 0.0
C837 C 0.47433 0.71469 0.88065 0.0
C838 C 0.48775 0.75581 0.86612 0.0
C839 C 0.48417 0.83398 0.84916 0.0
H840 H 0.48709 0.91158 0.88852 0.0
C841 C 0.46557 0.97822 0.84577 0.0
C842 C 0.47116 0.00839 0.85397 0.0
C843 C 0.4704 0.94323 0.84497 0.0
C844 C 0.48658 0.8902 0.87728 0.0
H845 H 0.46314 0.74113 0.90081 0.0
H846 H 0.47079 0.80318 0.89683 0.0
H847 H 0.48793 0.84643 0.89867 0.0
H848 H 0.48643 0.02665 0.86622 0.0
H849 H 0.49477 0.965 0.86536 0.0
H850 H 0.48179 0.87775 0.82808 0.0
C851 C 0.47463 0.78009 0.88933 0.0
C852 C 0.48699 0.85301 0.88313 0.0
C853 C 0.47024 0.7446 0.89162 0.0
C854 C 0.48199 0.00385 0.85964 0.0
C855 C 0.48674 0.9686 0.85928 0.0
C856 C 0.48355 0.87118 0.84338 0.0
C857 C 0.48304 0.78627 0.87576 0.0
C858 C 0.48539 0.82463 0.86923 0.0
C859 C 0.4808 0.93775 0.85276 0.0
C860 C 0.48435 0.89956 0.85752 0.0
H861 H 0.48679 0.69765 0.85996 0.0
H862 H 0.49424 0.75993 0.8556 0.0
H863 H 0.4828 0.81259 0.83817 0.0
H864 H 0.45719 0.98106 0.84141 0.0
H865 H 0.46561 0.91984 0.84001 0.0
C866 C 0.29251 0.77778 0.89349 0.0
C867 C 0.28786 0.74777 0.88335 0.0
C868 C 0.28842 0.81349 0.89123 0.0
C869 C 0.27411 0.87365 0.85732 0.0
H870 H 0.27372 0.93826 0.90325 0.0
C871 C 0.27337 0.03103 0.84778 0.0
C872 C 0.28279 0.04599 0.85617 0.0
C873 C 0.26967 -0.00394 0.85369 0.0
C874 C 0.27362 0.92048 0.89033 0.0
H875 H 0.27537 0.73163 0.86262 0.0
H876 H 0.26828 0.79488 0.85832 0.0
H877 H 0.27568 0.87128 0.90765 0.0
H878 H 0.29508 0.03832 0.87858 0.0
H879 H 0.28854 0.97778 0.88915 0.0
H880 H 0.27269 0.92305 0.83994 0.0
C881 C 0.27506 0.79039 0.86815 0.0
C882 C 0.27478 0.88223 0.89282 0.0
C883 C 0.27914 0.75435 0.87052 0.0
C884 C 0.28781 0.02729 0.87185 0.0
C885 C 0.28402 0.9927 0.87796 0.0
C886 C 0.27291 0.91196 0.85483 0.0
C887 C 0.27958 0.82018 0.87875 0.0
C888 C 0.27562 0.85872 0.87629 0.0
C889 C 0.27522 0.97598 0.8683 0.0
C890 C 0.27321 0.93585 0.87127 0.0
H891 H 0.29925 0.77365 0.90346 0.0
H892 H 0.29227 0.83602 0.89916 0.0
H893 H 0.27473 0.85619 0.84433 0.0
H894 H 0.26938 0.04492 0.83559 0.0
H895 H 0.26284 0.98383 0.84609 0.0
C896 C 0.981 0.57196 0.94702 0.0
C897 C 0.97095 0.55699 0.94155 0.0
C898 C 0.98812 0.55159 0.95875 0.0
C899 C 0.99024 0.47551 0.99424 0.0
H900 H 0.01976 0.46854 0.97534 0.0
C901 C 0.0214 0.38889 0.03669 0.0
C902 C 0.03158 0.40523 0.03935 0.0
C903 C 0.01419 0.40312 0.02274 0.0
C904 C 0.01159 0.47044 0.98094 0.0
H905 H 0.96029 0.50965 0.94485 0.0
H906 H 0.9727 0.47428 0.96586 0.0
H907 H 0.00646 0.50362 0.95638 0.0
H908 H 0.04247 0.44795 0.02886 0.0
H909 H 0.02984 0.47354 0.00484 0.0
H910 H 0.99537 0.44361 0.01915 0.0
C911 C 0.97506 0.50171 0.96087 0.0
C912 C 0.00397 0.4905 0.97005 0.0
C913 C 0.96795 0.52197 0.94892 0.0
C914 C 0.0347 0.43463 0.02699 0.0
C915 C 0.02743 0.44927 0.0132 0.0
C916 C 0.99788 0.45581 0.00526 0.0
C917 C 0.98532 0.51596 0.96546 0.0
C918 C 0.99325 0.49351 0.9767 0.0
C919 C 0.01695 0.43443 0.01136 0.0
C920 C 0.00869 0.45323 -0.00116 0.0
H921 H 0.98356 0.59885 0.94157 0.0
H922 H 0.99591 0.56348 0.96235 0.0
H923 H 0.98205 0.47762 -0.00024 0.0
H924 H 0.01882 0.36599 0.04596 0.0
H925 H 0.00632 0.39029 0.02135 0.0
C926 C 0.27905 0.69034 0.9613 0.0
C927 C 0.27592 0.6634 0.94745 0.0
C928 C 0.27126 0.70952 0.97226 0.0
C929 C 0.24243 0.73573 0.96895 0.0
H930 H 0.2471 0.77247 0.0221 0.0
C931 C 0.20983 0.80838 0.01746 0.0
C932 C 0.2134 0.83752 0.02963 0.0
C933 C 0.21721 0.78859 0.00583 0.0
C934 C 0.24574 0.76275 0.00715 0.0
H935 H 0.26231 0.63319 0.93534 0.0
H936 H 0.24876 0.66556 0.95498 0.0
H937 H 0.26042 0.73146 0.00707 0.0
H938 H 0.22726 0.87103 0.03778 0.0
H939 H 0.24005 0.83687 0.01734 0.0
H940 H 0.22764 0.76676 0.96925 0.0
C941 C 0.25718 0.67289 0.95692 0.0
C942 C 0.25337 0.73918 0.99855 0.0
C943 C 0.26495 0.65401 0.94584 0.0
C944 C 0.22428 0.84852 0.02866 0.0
C945 C 0.23163 0.82875 0.01712 0.0
C946 C 0.23475 0.7591 0.97763 0.0
C947 C 0.2602 0.70186 0.96971 0.0
C948 C 0.25184 0.7255 0.9793 0.0
C949 C 0.22826 0.79764 0.00624 0.0
C950 C 0.23637 0.77309 0.99676 0.0
H951 H 0.28745 0.69838 0.96272 0.0
H952 H 0.2739 0.73177 0.98189 0.0
H953 H 0.24107 0.72635 0.95395 0.0
H954 H 0.20151 0.79917 0.01799 0.0
H955 H 0.21438 0.76477 0.99754 0.0
C956 C 0.02457 0.84858 0.23089 0.0
C957 C 0.03189 0.82763 0.21958 0.0
C958 C 0.01737 0.83099 0.24378 0.0
C959 C 0.00352 0.74159 0.24901 0.0
H960 H 0.9946 0.77993 0.30002 0.0
C961 C 0.97595 0.6601 0.30235 0.0
C962 C 0.96866 0.67999 0.31424 0.0
C963 C 0.98316 0.67879 0.28998 0.0
C964 C 0.99688 0.7692 0.28566 0.0
H965 H 0.03793 0.7721 0.21391 0.0
H966 H 0.02545 0.74143 0.23659 0.0
H967 H 0.0091 0.81079 0.28187 0.0
H968 H 0.96281 0.73498 0.32171 0.0
H969 H 0.97528 0.7677 0.29978 0.0
H970 H 0.99129 0.7002 0.25266 0.0
C971 C 0.02515 0.7714 0.23524 0.0
C972 C 0.00523 0.78676 0.27533 0.0
C973 C 0.03237 0.789 0.22241 0.0
C974 C 0.96831 0.71889 0.31267 0.0
C975 C 0.97555 0.73763 0.3003 0.0
C976 C 0.99516 0.72413 0.25929 0.0
C977 C 0.01733 0.79208 0.24556 0.0
C978 C 0.00868 0.77303 0.25693 0.0
C979 C 0.98326 0.71783 0.28922 0.0
C980 C 0.99176 0.73761 0.27778 0.0
H981 H 0.02399 0.87841 0.22901 0.0
H982 H 0.01144 0.84771 0.25148 0.0
H983 H 0.00582 0.73081 0.23467 0.0
H984 H 0.97645 0.6301 0.3033 0.0
H985 H 0.98903 0.66264 0.28178 0.0
C986 C 0.23194 0.38608 0.21918 0.0
C987 C 0.22094 0.3956 0.2192 0.0
C988 C 0.23926 0.40535 0.23104 0.0
C989 C 0.2426 0.49757 0.2528 0.0
H990 H 0.26722 0.45331 0.27926 0.0
C991 C 0.27057 0.57907 0.30513 0.0
C992 C 0.28158 0.56973 0.30583 0.0
C993 C 0.26346 0.55906 0.29323 0.0
C994 C 0.26049 0.46613 0.27165 0.0
H995 H 0.20884 0.43106 0.2326 0.0
H996 H 0.22163 0.46461 0.25355 0.0
H997 H 0.25381 0.4134 0.26353 0.0
H998 H 0.29391 0.53358 0.29372 0.0
H999 H 0.28147 0.4988 0.27256 0.0
H1000 H 0.24928 0.55027 0.2608 0.0
C1001 C 0.22461 0.44255 0.24412 0.0
C1002 C 0.25277 0.44325 0.26278 0.0
C1003 C 0.21727 0.42306 0.23232 0.0
C1004 C 0.28547 0.54146 0.29342 0.0
C1005 C 0.27832 0.52127 0.28152 0.0
C1006 C 0.25033 0.52044 0.26162 0.0
C1007 C 0.23573 0.43469 0.24311 0.0
C1008 C 0.24372 0.45871 0.25333 0.0
C1009 C 0.26719 0.52918 0.28174 0.0
C1010 C 0.25935 0.50501 0.27121 0.0
H1011 H 0.23501 0.36502 0.2092 0.0
H1012 H 0.24777 0.39869 0.22987 0.0
H1013 H 0.23585 0.51037 0.24524 0.0
H1014 H 0.26733 0.60073 0.31455 0.0
H1015 H 0.25494 0.56578 0.29388 0.0
C1016 C 0.76981 0.17465 0.94773 0.0
C1017 C 0.78002 0.18917 0.94294 0.0
C1018 C 0.76275 0.19449 0.95986 0.0
C1019 C 0.76112 0.26738 0.99739 0.0
H1020 H 0.73161 0.278 0.97898 0.0
C1021 C 0.73073 0.35309 0.04202 0.0
C1022 C 0.72046 0.33726 0.04459 0.0
C1023 C 0.73775 0.33946 0.0276 0.0
C1024 C 0.73978 0.27507 0.98444 0.0
H1025 H 0.79101 0.23513 0.94777 0.0
H1026 H 0.7787 0.26956 0.9694 0.0
H1027 H 0.74465 0.24353 0.9591 0.0
H1028 H 0.70925 0.29619 0.03345 0.0
H1029 H 0.72157 0.27163 0.00856 0.0
H1030 H 0.75626 0.29767 0.02302 0.0
C1031 C 0.77617 0.24289 0.96361 0.0
C1032 C 0.74725 0.25535 0.97303 0.0
C1033 C 0.78321 0.22317 0.95128 0.0
C1034 C 0.71708 0.30913 0.03165 0.0
C1035 C 0.72418 0.29506 0.01739 0.0
C1036 C 0.75363 0.28676 0.00891 0.0
C1037 C 0.76577 0.22912 0.96762 0.0
C1038 C 0.75797 0.25106 0.97948 0.0
C1039 C 0.73474 0.30922 0.01565 0.0
C1040 C 0.74284 0.29069 0.00265 0.0
H1041 H 0.7671 0.14853 0.94151 0.0
H1042 H 0.75485 0.18293 0.96298 0.0
H1043 H 0.7693 0.26424 0.00279 0.0
H1044 H 0.73351 0.37502 0.05174 0.0
H1045 H 0.7457 0.3518 0.02631 0.0
C1046 C 0.96698 0.22308 0.80057 0.0
C1047 C 0.97031 0.18973 0.80951 0.0
C1048 C 0.97418 0.24347 0.78883 0.0
C1049 C 0.00292 0.26162 0.78372 0.0
H1050 H 0.99645 0.29504 0.73058 0.0
C1051 C 0.03587 0.31466 0.7304 0.0
C1052 C 0.03296 0.33961 0.71539 0.0
C1053 C 0.02804 0.30087 0.74339 0.0
C1054 C 0.99834 0.28674 0.74557 0.0
H1055 H 0.98362 0.15091 0.81258 0.0
H1056 H 0.99614 0.18667 0.79231 0.0
H1057 H 0.98279 0.26142 0.74938 0.0
H1058 H 0.01986 0.37209 0.7031 0.0
H1059 H 0.00632 0.34968 0.72635 0.0
H1060 H 0.01837 0.28724 0.78022 0.0
C1061 C 0.98801 0.19706 0.79442 0.0
C1062 C 0.99051 0.26722 0.75625 0.0
C1063 C 0.9808 0.17646 0.80586 0.0
C1064 C 0.02229 0.35261 0.71448 0.0
C1065 C 0.01451 0.3394 0.72767 0.0
C1066 C 0.01069 0.28164 0.77319 0.0
C1067 C 0.98484 0.23108 0.78614 0.0
C1068 C 0.99281 0.25391 0.77526 0.0
C1069 C 0.01718 0.31225 0.74182 0.0
C1070 C 0.00859 0.29394 0.75382 0.0
H1071 H 0.95897 0.23406 0.80321 0.0
H1072 H 0.97155 0.26964 0.78254 0.0
H1073 H 0.00482 0.25209 0.79851 0.0
H1074 H 0.04403 0.30392 0.7313 0.0
H1075 H 0.03043 0.27977 0.75393 0.0
C1076 C 0.72461 0.44522 0.6974 0.0
C1077 C 0.72704 0.40868 0.69162 0.0
C1078 C 0.7311 0.46358 0.7112 0.0
C1079 C 0.75233 0.45002 0.74913 0.0
H1080 H 0.76125 0.54901 0.7334 0.0
C1081 C 0.78699 0.5258 0.78894 0.0
C1082 C 0.78511 0.56319 0.79379 0.0
C1083 C 0.78013 0.50722 0.77585 0.0
C1084 C 0.75877 0.52155 0.73812 0.0
H1085 H 0.73773 0.36189 0.69667 0.0
H1086 H 0.74899 0.3938 0.72082 0.0
H1087 H 0.74795 0.51567 0.71367 0.0
H1088 H 0.7749 0.61094 0.78804 0.0
H1089 H 0.76294 0.57858 0.76528 0.0
H1090 H 0.76314 0.45589 0.7736 0.0
C1091 C 0.74209 0.40833 0.71472 0.0
C1092 C 0.75111 0.5025 0.72685 0.0
C1093 C 0.73565 0.39006 0.70085 0.0
C1094 C 0.77659 0.58215 0.78452 0.0
C1095 C 0.76973 0.56359 0.77145 0.0
C1096 C 0.75997 0.46911 0.76044 0.0
C1097 C 0.7401 0.44567 0.71957 0.0
C1098 C 0.74782 0.46649 0.7322 0.0
C1099 C 0.77125 0.52565 0.76735 0.0
C1100 C 0.76331 0.50507 0.75503 0.0
H1101 H 0.71804 0.46031 0.69052 0.0
H1102 H 0.72925 0.49216 0.71491 0.0
H1103 H 0.74988 0.42245 0.75374 0.0
H1104 H 0.79349 0.51044 0.79586 0.0
H1105 H 0.78165 0.47818 0.7727 0.0
C1106 C 0.97285 0.05674 0.44645 0.0
C1107 C 0.96613 0.03722 0.43336 0.0
C1108 C 0.98018 0.03778 0.45847 0.0
C1109 C 0.99529 0.94931 0.45942 0.0
H1110 H 0.00458 0.98503 0.51073 0.0
C1111 C 0.02597 0.87304 0.51041 0.0
C1112 C 0.03344 0.89536 0.52056 0.0
C1113 C 0.01788 0.88924 0.49881 0.0
C1114 C 1.00214 0.97497 0.49632 0.0
H1115 H 0.96126 0.98233 0.42364 0.0
H1116 H 0.97384 0.94911 0.44506 0.0
H1117 H 0.98915 0.01397 0.49454 0.0
H1118 H 0.03871 0.95202 0.52559 0.0
H1119 H 0.02463 0.98025 0.50531 0.0
H1120 H 0.00826 0.90998 0.46143 0.0
C1121 C 0.97365 0.97917 0.44568 0.0
C1122 C 0.99328 0.9915 0.48704 0.0
C1123 C 0.96632 -0.00182 0.4336 0.0
C1124 C 0.03308 0.93406 0.51795 0.0
C1125 C 0.02494 0.95026 0.50651 0.0
C1126 C 0.0041 0.93255 0.4688 0.0
C1127 C 0.98094 -0.0012 0.45774 0.0
C1128 C 0.9898 0.97918 0.46838 0.0
C1129 C 0.01708 0.92808 0.4973 0.0
C1130 C 0.0077 0.94551 0.48724 0.0
H1131 H 0.97293 0.08685 0.44654 0.0
H1132 H 0.98569 0.05392 0.46743 0.0
H1133 H 0.99298 0.93949 0.44489 0.0
H1134 H 0.02603 0.84312 0.51219 0.0
H1135 H 0.01193 0.87145 0.4919 0.0
C1136 C 0.28903 0.20914 0.46752 0.0
C1137 C 0.28906 0.17029 0.46548 0.0
C1138 C 0.28167 0.22648 0.48022 0.0
C1139 C 0.25473 0.20988 0.50105 0.0
H1140 H 0.2607 0.29731 0.5326 0.0
C1141 C 0.2238 0.27362 0.55556 0.0
C1142 C 0.22388 0.31232 0.5582 0.0
C1143 C 0.23146 0.25654 0.54337 0.0
C1144 C 0.25886 0.27323 0.52362 0.0
H1145 H 0.28201 0.11901 0.47629 0.0
H1146 H 0.26931 0.14923 0.49867 0.0
H1147 H 0.2754 0.26666 0.51498 0.0
H1148 H 0.23155 0.36371 0.54913 0.0
H1149 H 0.24469 0.33405 0.52742 0.0
H1150 H 0.23819 0.21656 0.5095 0.0
C1151 C 0.2748 0.16634 0.49013 0.0
C1152 C 0.26731 0.25557 0.51362 0.0
C1153 C 0.28215 0.14903 0.47747 0.0
C1154 C 0.23132 0.33379 0.54744 0.0
C1155 C 0.23893 0.31675 0.53518 0.0
C1156 C 0.24628 0.2276 0.51098 0.0
C1157 C 0.2742 0.20528 0.4911 0.0
C1158 C 0.26534 0.22363 0.50226 0.0
C1159 C 0.23932 0.27784 0.53349 0.0
C1160 C 0.24823 0.25951 0.5224 0.0
H1161 H 0.29421 0.22628 0.45839 0.0
H1162 H 0.28141 0.25655 0.48061 0.0
H1163 H 0.25291 0.18575 0.49209 0.0
H1164 H 0.21823 0.25632 0.56379 0.0
H1165 H 0.23155 0.22649 0.54252 0.0
C1166 C 0.22241 0.92315 0.70044 0.0
C1167 C 0.21556 0.94389 0.68812 0.0
C1168 C 0.23013 0.94087 0.71217 0.0
C1169 C 0.24608 0.02711 0.7129 0.0
H1170 H 0.25534 0.99094 0.76416 0.0
C1171 C 0.27759 0.10189 0.76224 0.0
C1172 C 0.28469 0.07965 0.77331 0.0
C1173 C 0.26944 0.08567 0.75085 0.0
C1174 C 0.25294 0.00105 0.74973 0.0
H1175 H 0.21091 -0.00039 0.67941 0.0
H1176 H 0.22424 0.03068 0.70024 0.0
H1177 H 0.23958 0.96344 0.74832 0.0
H1178 H 0.28925 0.02293 0.78016 0.0
H1179 H 0.2751 0.99459 0.76008 0.0
H1180 H 0.25944 0.06481 0.71439 0.0
C1181 C 0.22379 0.00063 0.70053 0.0
C1182 C 0.24387 0.9854 0.74069 0.0
C1183 C 0.21605 0.98286 0.68881 0.0
C1184 C 0.28391 0.04082 0.77178 0.0
C1185 C 0.27573 0.0246 0.76047 0.0
C1186 C 0.25513 0.04286 0.72198 0.0
C1187 C 0.23116 0.97978 0.71185 0.0
C1188 C 0.24036 -0.00192 0.72211 0.0
C1189 C 0.2682 0.04686 0.75037 0.0
C1190 C 0.2587 0.02983 0.74044 0.0
H1191 H 0.22225 0.89305 0.70018 0.0
H1192 H 0.23569 0.92389 0.7206 0.0
H1193 H 0.24373 0.03708 0.69842 0.0
H1194 H 0.27797 0.13191 0.76317 0.0
H1195 H 0.26376 0.10361 0.74329 0.0
C1196 C 0.7767 0.65155 0.47598 0.0
C1197 C 0.77542 0.66001 0.45583 0.0
C1198 C 0.76886 0.66269 0.48976 0.0
C1199 C 0.75007 0.73652 0.49855 0.0
H1200 H 0.73341 0.67035 0.53194 0.0
C1201 C 0.71601 0.79511 0.54661 0.0
C1202 C 0.7148 0.78027 0.56565 0.0
C1203 C 0.72245 0.77704 0.53262 0.0
C1204 C 0.73808 0.68934 0.52294 0.0
H1205 H 0.76485 0.68615 0.43428 0.0
H1206 H 0.75145 0.70624 0.4583 0.0
H1207 H 0.74722 0.64484 0.50988 0.0
H1208 H 0.71907 0.73431 0.58485 0.0
H1209 H 0.73062 0.70364 0.56087 0.0
H1210 H 0.74142 0.78118 0.51184 0.0
C1211 C 0.75842 0.69075 0.46341 0.0
C1212 C 0.74597 0.67462 0.51031 0.0
C1213 C 0.7661 0.67913 0.44969 0.0
C1214 C 0.71975 0.7462 0.57018 0.0
C1215 C 0.72639 0.72854 0.55636 0.0
C1216 C 0.74237 0.7513 0.51139 0.0
C1217 C 0.75978 0.683 0.48355 0.0
C1218 C 0.75193 0.69813 0.49791 0.0
C1219 C 0.72807 0.74423 0.53754 0.0
C1220 C 0.73617 0.72795 0.52365 0.0
H1221 H 0.7838 0.63685 0.4811 0.0
H1222 H 0.77006 0.65656 0.50528 0.0
H1223 H 0.75465 0.75518 0.48918 0.0
H1224 H 0.71224 0.82128 0.54272 0.0
H1225 H 0.72325 0.78943 0.51811 0.0
C1226 C 0.71742 0.96175 0.20381 0.0
C1227 C 0.71821 0.92281 0.20391 0.0
C1228 C 0.72481 0.98337 0.21439 0.0
C1229 C 0.74639 0.9791 0.25273 0.0
H1230 H 0.75819 0.06299 0.22391 0.0
C1231 C 0.78541 0.0513 0.27795 0.0
C1232 C 0.78504 0.09027 0.27893 0.0
C1233 C 0.77731 0.03158 0.2681 0.0
C1234 C 0.75492 0.03983 0.23221 0.0
H1235 H 0.72695 0.87595 0.21617 0.0
H1236 H 0.73983 0.91347 0.23452 0.0
H1237 H 0.74314 0.02804 0.20996 0.0
H1238 H 0.77626 0.13922 0.2694 0.0
H1239 H 0.76219 0.10477 0.25202 0.0
H1240 H 0.75828 0.9906 0.27484 0.0
C1241 C 0.73349 0.92748 0.22639 0.0
C1242 C 0.74625 0.01991 0.22428 0.0
C1243 C 0.7261 0.90591 0.21583 0.0
C1244 C 0.77678 0.10919 0.26885 0.0
C1245 C 0.76871 0.08945 0.2589 0.0
C1246 C 0.75509 -0.0011 0.2606 0.0
C1247 C 0.73315 0.96649 0.22531 0.0
C1248 C 0.7419 0.98915 0.2344 0.0
C1249 C 0.76871 0.05039 0.25893 0.0
C1250 C 0.7595 0.02934 0.25037 0.0
H1251 H 0.71144 0.9756 0.19474 0.0
H1252 H 0.72419 0.01335 0.21356 0.0
H1253 H 0.74315 0.95594 0.26107 0.0
H1254 H 0.79166 0.03591 0.28558 0.0
H1255 H 0.77765 0.0015 0.26805 0.0
C1256 C 0.47376 0.56025 0.46534 0.0
C1257 C 0.4773 0.57787 0.448 0.0
C1258 C 0.48108 0.54059 0.47716 0.0
C1259 C 0.5074 0.49284 0.47298 0.0
H1260 H 0.50605 0.4897 0.53018 0.0
C1261 C 0.54049 0.42657 0.52246 0.0
C1262 C 0.53702 0.40827 0.53967 0.0
C1263 C 0.53301 0.44492 0.51037 0.0
C1264 C 0.50644 0.48991 0.51418 0.0
H1265 H 0.49134 0.59107 0.43014 0.0
H1266 H 0.50409 0.55783 0.45098 0.0
H1267 H 0.49351 0.52919 0.51201 0.0
H1268 H 0.523 0.3924 0.55694 0.0
H1269 H 0.51 0.42375 0.53573 0.0
H1270 H 0.52039 0.45375 0.47519 0.0
C1271 C 0.49565 0.5581 0.45518 0.0
C1272 C 0.49926 0.51261 0.50379 0.0
C1273 C 0.48836 0.57746 0.44335 0.0
C1274 C 0.52592 0.40654 0.54385 0.0
C1275 C 0.51848 0.42477 0.5318 0.0
C1276 C 0.5146 0.47022 0.48338 0.0
C1277 C 0.49206 0.53843 0.47187 0.0
C1278 C 0.49968 0.51444 0.48306 0.0
C1279 C 0.52197 0.4452 0.51531 0.0
C1280 C 0.51419 0.46849 0.5041 0.0
H1281 H 0.46526 0.55992 0.46918 0.0
H1282 H 0.47804 0.52566 0.48991 0.0
H1283 H 0.5078 0.49301 0.45698 0.0
H1284 H 0.549 0.42853 0.51895 0.0
H1285 H 0.53595 0.46049 0.49777 0.0
C1286 C 0.53482 0.80942 0.73649 0.0
C1287 C 0.53276 0.84489 0.72873 0.0
C1288 C 0.52693 0.79083 0.74745 0.0
C1289 C 0.49723 0.7899 0.75438 0.0
H1290 H 0.50413 0.7193 0.79578 0.0
C1291 C 0.46577 0.71532 0.80457 0.0
C1292 C 0.46775 0.67763 0.80868 0.0
C1293 C 0.4732 0.73605 0.79355 0.0
C1294 C 0.5021 0.73869 0.78409 0.0
H1295 H 0.52114 0.88986 0.7275 0.0
H1296 H 0.50752 0.85812 0.74735 0.0
H1297 H 0.51844 0.75709 0.78144 0.0
H1298 H 0.47864 0.6315 0.80329 0.0
H1299 H 0.49155 0.6677 0.78405 0.0
H1300 H 0.48081 0.77178 0.75745 0.0
C1301 C 0.51508 0.84404 0.74441 0.0
C1302 C 0.5103 0.76038 0.77587 0.0
C1303 C 0.52293 0.86243 0.73324 0.0
C1304 C 0.47689 0.6605 0.80041 0.0
C1305 C 0.48434 0.68127 0.78956 0.0
C1306 C 0.489 0.76849 0.76279 0.0
C1307 C 0.51684 0.8075 0.7511 0.0
C1308 C 0.508 0.78605 0.76077 0.0
C1309 C 0.48275 0.71949 0.78659 0.0
C1310 C 0.49138 0.74239 0.77757 0.0
H1311 H 0.54229 0.79506 0.73311 0.0
H1312 H 0.52856 0.76263 0.75216 0.0
H1313 H 0.49516 0.80884 0.74252 0.0
H1314 H 0.45883 0.72933 0.81083 0.0
H1315 H 0.47178 0.7655 0.79148 0.0
C1316 C 0.46509 0.19994 0.28068 0.0
C1317 C 0.46546 0.16092 0.28044 0.0
C1318 C 0.47319 0.22076 0.27146 0.0
C1319 C 0.50183 0.2119 0.25832 0.0
H1320 H 0.49743 0.30567 0.23133 0.0
C1321 C 0.53585 0.29057 0.21733 0.0
C1322 C 0.53547 0.32958 0.2169 0.0
C1323 C 0.52763 0.27025 0.22646 0.0
C1324 C 0.49881 0.27981 0.23912 0.0
H1325 H 0.47412 0.11315 0.26902 0.0
H1326 H 0.48814 0.14951 0.25264 0.0
H1327 H 0.48185 0.26946 0.24205 0.0
H1328 H 0.52661 0.37793 0.22703 0.0
H1329 H 0.5124 0.34247 0.24342 0.0
H1330 H 0.51878 0.22228 0.25551 0.0
C1331 C 0.48173 0.164 0.26032 0.0
C1332 C 0.48987 0.25896 0.24515 0.0
C1333 C 0.47362 0.14319 0.26951 0.0
C1334 C 0.52712 0.34787 0.22706 0.0
C1335 C 0.5189 0.32755 0.23623 0.0
C1336 C 0.51077 0.23278 0.25235 0.0
C1337 C 0.48182 0.20296 0.26184 0.0
C1338 C 0.49127 0.2247 0.25476 0.0
C1339 C 0.51886 0.2885 0.23542 0.0
C1340 C 0.50938 0.26699 0.24265 0.0
H1341 H 0.45893 0.21442 0.28904 0.0
H1342 H 0.47303 0.25072 0.27293 0.0
H1343 H 0.5032 0.18599 0.26608 0.0
H1344 H 0.54215 0.27564 0.20955 0.0
H1345 H 0.52784 0.24022 0.22547 0.0
C1346 C 0.4835 0.05115 0.9327 0.0
C1347 C 0.47233 0.04448 0.93183 0.0
C1348 C 0.49011 0.02998 0.94499 0.0
C1349 C 0.49065 0.97293 0.98935 0.0
H1350 H 0.51705 0.93344 0.96663 0.0
C1351 C 0.51995 0.88739 0.03678 0.0
C1352 C 0.53098 0.89553 0.03465 0.0
C1353 C 0.51246 0.90009 0.02291 0.0
C1354 C 0.50977 0.94449 0.97327 0.0
H1355 H 0.45926 0.01116 0.94366 0.0
H1356 H 0.47089 0.97448 0.96569 0.0
H1357 H 0.50441 0.96763 0.94579 0.0
H1358 H 0.54292 0.92188 0.01595 0.0
H1359 H 0.52984 0.94501 0.99191 0.0
H1360 H 0.49615 0.95129 0.01698 0.0
C1361 C 0.47448 -0.00399 0.95664 0.0
C1362 C 0.50251 0.96396 0.96131 0.0
C1363 C 0.46784 0.01701 0.94409 0.0
C1364 C 0.53447 0.91497 0.01785 0.0
C1365 C 0.52695 0.92818 0.00407 0.0
C1366 C 0.49797 0.95381 0.00138 0.0
C1367 C 0.48572 0.00185 0.95687 0.0
C1368 C 0.49295 0.97878 0.96929 0.0
C1369 C 0.51581 0.92176 0.00674 0.0
C1370 C 0.50769 0.93968 0.99355 0.0
H1371 H 0.48723 0.0721 0.92344 0.0
H1372 H 0.49871 0.03554 0.94513 0.0
H1373 H 0.4834 0.98435 0.99592 0.0
H1374 H 0.51705 0.87214 0.04953 0.0
H1375 H 0.50401 0.8937 0.02518 0.0
C1376 C 0.16662 0.37158 0.13581 0.0
C1377 C 0.16952 0.37208 0.15589 0.0
C1378 C 0.1558 0.37303 0.13014 0.0
C1379 C 0.12798 0.35804 0.14858 0.0
H1380 H 0.12023 0.41675 0.10261 0.0
C1381 C 0.08371 0.38901 0.12749 0.0
C1382 C 0.0809 0.38645 0.1074 0.0
C1383 C 0.0945 0.38699 0.13339 0.0
C1384 C 0.12227 0.39991 0.11534 0.0
H1385 H 0.16334 0.37431 0.18582 0.0
H1386 H 0.14434 0.37743 0.17594 0.0
H1387 H 0.13899 0.41425 0.11334 0.0
H1388 H 0.0872 0.37986 0.07772 0.0
H1389 H 0.10612 0.37639 0.08804 0.0
H1390 H 0.11121 0.34403 0.15065 0.0
C1391 C 0.15046 0.3754 0.16456 0.0
C1392 C 0.13304 0.39844 0.12151 0.0
C1393 C 0.16134 0.3738 0.17024 0.0
C1394 C 0.08912 0.38198 0.0933 0.0
C1395 C 0.09995 0.38016 0.09921 0.0
C1396 C 0.1172 0.35965 0.14245 0.0
C1397 C 0.14757 0.37522 0.14441 0.0
C1398 C 0.13604 0.37737 0.13817 0.0
C1399 C 0.10275 0.38253 0.11934 0.0
C1400 C 0.11423 0.38055 0.12574 0.0
H1401 H 0.17273 0.37003 0.12437 0.0
H1402 H 0.15388 0.37209 0.11453 0.0
H1403 H 0.13001 0.34108 0.16127 0.0
H1404 H 0.07755 0.39251 0.13873 0.0
H1405 H 0.09638 0.38941 0.14898 0.0
C1406 C 0.0844 0.86188 0.16417 0.0
C1407 C 0.07611 0.87146 0.15095 0.0
C1408 C 0.09516 0.86075 0.15776 0.0
C1409 C 0.11167 0.85286 0.11219 0.0
H1410 H 0.13466 0.89085 0.14534 0.0
C1411 C 0.1556 0.87074 0.08398 0.0
C1412 C 0.16387 0.86062 0.09712 0.0
C1413 C 0.14485 0.8721 0.09042 0.0
C1414 C 0.12835 0.87978 0.13597 0.0
H1415 H 0.0726 0.88789 0.12075 0.0
H1416 H 0.09128 0.88639 0.10972 0.0
H1417 H 0.11607 0.89285 0.15716 0.0
H1418 H 0.16736 0.84364 0.12724 0.0
H1419 H 0.1487 0.84567 0.13834 0.0
H1420 H 0.12395 0.83982 0.09099 0.0
C1421 C 0.08951 0.87911 0.12492 0.0
C1422 C 0.11769 0.88089 0.14277 0.0
C1423 C 0.0788 0.88022 0.1313 0.0
C1424 C 0.16118 0.85169 0.11674 0.0
C1425 C 0.15048 0.85309 0.12317 0.0
C1426 C 0.12233 0.85178 0.10538 0.0
C1427 C 0.09783 0.86915 0.13801 0.0
C1428 C 0.10921 0.86748 0.13096 0.0
C1429 C 0.14218 0.86347 0.11014 0.0
C1430 C 0.1308 0.86518 0.1172 0.0
H1431 H 0.08256 0.8549 0.17938 0.0
H1432 H 0.10136 0.85265 0.16819 0.0
H1433 H 0.10536 0.84175 0.10282 0.0
H1434 H 0.15744 0.87784 0.06878 0.0
H1435 H 0.13865 0.88051 0.08005 0.0
C1436 C 0.83519 0.59517 0.87473 0.0
C1437 C 0.83125 0.59799 0.85531 0.0
C1438 C 0.84628 0.59351 0.87836 0.0
C1439 C 0.87248 0.57263 0.8545 0.0
H1440 H 0.88425 0.62969 0.89808 0.0
C1441 C 0.91827 0.59601 0.86461 0.0
C1442 C 0.92245 0.59493 0.88391 0.0
C1443 C 0.90713 0.59488 0.86138 0.0
C1444 C 0.88108 0.61319 0.88602 0.0
H1445 H 0.83584 0.60104 0.82443 0.0
H1446 H 0.85525 0.59847 0.83075 0.0
H1447 H 0.86487 0.63069 0.89182 0.0
H1448 H 0.91825 0.59142 0.91496 0.0
H1449 H 0.89877 0.58914 0.90933 0.0
H1450 H 0.88871 0.5553 0.84864 0.0
C1451 C 0.84975 0.59712 0.84318 0.0
C1452 C 0.86997 0.61379 0.88241 0.0
C1453 C 0.83864 0.59881 0.83956 0.0
C1454 C 0.91526 0.5924 0.89992 0.0
C1455 C 0.9041 0.5913 0.89669 0.0
C1456 C 0.8836 0.57204 0.85811 0.0
C1457 C 0.85371 0.59463 0.86264 0.0
C1458 C 0.86553 0.5936 0.86657 0.0
C1459 C 0.8999 0.59266 0.87737 0.0
C1460 C 0.88804 0.59242 0.87387 0.0
H1461 H 0.82969 0.59434 0.88719 0.0
H1462 H 0.84904 0.59106 0.89349 0.0
H1463 H 0.86931 0.55631 0.84237 0.0
H1464 H 0.9236 0.59806 0.85195 0.0
H1465 H 0.90417 0.59649 0.84633 0.0
C1466 C 0.91675 0.15441 0.88507 0.0
C1467 C 0.9211 0.15351 0.86589 0.0
C1468 C 0.90558 0.15543 0.88795 0.0
C1469 C 0.87984 0.17766 0.86282 0.0
H1470 H 0.86733 0.11661 0.90416 0.0
C1471 C 0.83394 0.15248 0.86916 0.0
C1472 C 0.82934 0.15207 0.88815 0.0
C1473 C 0.84514 0.15391 0.86675 0.0
C1474 C 0.8707 0.1342 0.89273 0.0
H1475 H 0.91717 0.1532 0.83467 0.0
H1476 H 0.89763 0.15465 0.83968 0.0
H1477 H 0.88682 0.11668 0.89922 0.0
H1478 H 0.83286 0.15312 0.91953 0.0
H1479 H 0.85245 0.1559 0.91534 0.0
H1480 H 0.8637 0.19502 0.85626 0.0
C1481 C 0.90286 0.155 0.85251 0.0
C1482 C 0.88188 0.13423 0.88988 0.0
C1483 C 0.91405 0.15397 0.84963 0.0
C1484 C 0.83617 0.15331 0.90471 0.0
C1485 C 0.84739 0.1547 0.9023 0.0
C1486 C 0.86865 0.17763 0.86566 0.0
C1487 C 0.89849 0.15556 0.87172 0.0
C1488 C 0.88659 0.15588 0.87485 0.0
C1489 C 0.85201 0.15495 0.88327 0.0
C1490 C 0.86394 0.15579 0.88061 0.0
H1491 H 0.92197 0.15422 0.89791 0.0
H1492 H 0.9025 0.1564 0.90293 0.0
H1493 H 0.8832 0.19512 0.85132 0.0
H1494 H 0.82889 0.15144 0.85609 0.0
H1495 H 0.84842 0.15354 0.8519 0.0
C1496 C 0.16319 0.88611 0.63457 0.0
C1497 C 0.17127 0.89436 0.62067 0.0
C1498 C 0.15245 0.88187 0.62858 0.0
C1499 C 0.13313 0.90501 0.58907 0.0
H1500 H 0.11751 0.81926 0.60869 0.0
C1501 C 0.08964 0.86953 0.56271 0.0
C1502 C 0.08248 0.85684 0.57736 0.0
C1503 C 0.1007 0.87314 0.56683 0.0
C1504 C 0.12169 0.84361 0.60323 0.0
H1505 H 0.1744 0.90561 0.58969 0.0
H1506 H 0.15562 0.89866 0.57929 0.0
H1507 H 0.13616 0.8292 0.61877 0.0
H1508 H 0.08131 0.83795 0.60775 0.0
H1509 H 0.10035 0.84492 0.61499 0.0
H1510 H 0.11858 0.91993 0.57387 0.0
C1511 C 0.15759 0.8954 0.59479 0.0
C1512 C 0.13239 0.84926 0.60901 0.0
C1513 C 0.16835 0.89923 0.60075 0.0
C1514 C 0.08661 0.84756 0.59607 0.0
C1515 C 0.09758 0.85134 0.6002 0.0
C1516 C 0.12236 0.89957 0.58342 0.0
C1517 C 0.14955 0.88618 0.6086 0.0
C1518 C 0.13821 0.88015 0.60214 0.0
C1519 C 0.1048 0.86423 0.58569 0.0
C1520 C 0.11647 0.86897 0.59058 0.0
H1521 H 0.16519 0.8822 0.65002 0.0
H1522 H 0.1464 0.87518 0.63959 0.0
H1523 H 0.13739 0.92919 0.58361 0.0
H1524 H 0.08668 0.87693 0.54816 0.0
H1525 H 0.10603 0.88279 0.55522 0.0
C1526 C 0.09406 0.3623 0.67275 0.0
C1527 C 0.08659 0.35686 0.65741 0.0
C1528 C 0.10518 0.36218 0.66878 0.0
C1529 C 0.125 0.32971 0.63146 0.0
H1530 H 0.14418 0.40061 0.65644 0.0
C1531 C 0.16939 0.34851 0.60673 0.0
C1532 C 0.17713 0.35324 0.62169 0.0
C1533 C 0.15836 0.34893 0.61129 0.0
C1534 C 0.13895 0.38036 0.64949 0.0
H1535 H 0.08488 0.34773 0.62585 0.0
H1536 H 0.10414 0.34801 0.61895 0.0
H1537 H 0.12495 0.40144 0.66437 0.0
H1538 H 0.17939 0.36199 0.65315 0.0
H1539 H 0.1602 0.36241 0.66108 0.0
H1540 H 0.13897 0.30867 0.61655 0.0
C1541 C 0.10149 0.35168 0.63409 0.0
C1542 C 0.12793 0.38082 0.65406 0.0
C1543 C 0.09043 0.35178 0.63804 0.0
C1544 C 0.17362 0.35835 0.64127 0.0
C1545 C 0.16261 0.35884 0.64581 0.0
C1546 C 0.136 0.32927 0.62688 0.0
C1547 C 0.10902 0.35658 0.6494 0.0
C1548 C 0.1208 0.3556 0.64503 0.0
C1549 C 0.15484 0.35417 0.63089 0.0
C1550 C 0.14312 0.35465 0.63579 0.0
H1551 H 0.09134 0.36622 0.68782 0.0
H1552 H 0.11077 0.36576 0.68095 0.0
H1553 H 0.11978 0.30943 0.62449 0.0
H1554 H 0.17184 0.34464 0.5915 0.0
H1555 H 0.15258 0.34567 0.5994 0.0
C1556 C 0.84182 0.12569 0.31395 0.0
C1557 C 0.83527 0.14512 0.32739 0.0
C1558 C 0.8529 0.12132 0.31761 0.0
C1559 C 0.87543 0.15746 0.34882 0.0
H1560 H 0.88818 0.06093 0.33871 0.0
C1561 C 0.91664 0.11395 0.38152 0.0
C1562 C 0.9239 0.09663 0.36849 0.0
C1563 C 0.9059 0.11992 0.37592 0.0
C1564 C 0.88476 0.08813 0.34147 0.0
H1565 H 0.83523 0.17595 0.35494 0.0
H1566 H 0.85435 0.16792 0.36145 0.0
H1567 H 0.8695 0.07269 0.32911 0.0
H1568 H 0.92555 0.07125 0.33957 0.0
H1569 H 0.9068 0.08135 0.3299 0.0
H1570 H 0.89064 0.17257 0.36154 0.0
C1571 C 0.85107 0.1565 0.34792 0.0
C1572 C 0.87406 0.09497 0.33587 0.0
C1573 C 0.84006 0.16095 0.34423 0.0
C1574 C 0.92015 0.08465 0.34995 0.0
C1575 C 0.90939 0.09031 0.34443 0.0
C1576 C 0.88609 0.15052 0.35454 0.0
C1577 C 0.85763 0.13624 0.33481 0.0
C1578 C 0.86923 0.12965 0.3396 0.0
C1579 C 0.90218 0.10838 0.35725 0.0
C1580 C 0.89086 0.11572 0.35104 0.0
H1581 H 0.83836 0.11318 0.30084 0.0
H1582 H 0.85773 0.10601 0.30704 0.0
H1583 H 0.87206 0.18472 0.3516 0.0
H1584 H 0.91931 0.1235 0.3959 0.0
H1585 H 0.90049 0.13353 0.38622 0.0
C1586 C 0.91568 0.62985 0.36108 0.0
C1587 C 0.9233 0.62866 0.37644 0.0
C1588 C 0.90462 0.62932 0.36529 0.0
C1589 C 0.88485 0.60501 0.40449 0.0
H1590 H 0.86583 0.66884 0.37419 0.0
C1591 C 0.8393 0.6271 0.42334 0.0
C1592 C 0.83222 0.62878 0.40715 0.0
C1593 C 0.85051 0.62599 0.4203 0.0
C1594 C 0.87101 0.65055 0.38267 0.0
H1595 H 0.9253 0.62588 0.40826 0.0
H1596 H 0.90602 0.62539 0.41561 0.0
H1597 H 0.88512 0.66907 0.36733 0.0
H1598 H 0.8313 0.6293 0.3751 0.0
H1599 H 0.85068 0.62694 0.36987 0.0
H1600 H 0.87066 0.58659 0.41985 0.0
C1601 C 0.90857 0.62624 0.4003 0.0
C1602 C 0.88208 0.65065 0.37871 0.0
C1603 C 0.91962 0.62677 0.39608 0.0
C1604 C 0.83653 0.62834 0.38793 0.0
C1605 C 0.84767 0.62724 0.38491 0.0
C1606 C 0.87374 0.60494 0.40847 0.0
C1607 C 0.90092 0.62762 0.38497 0.0
C1608 C 0.88914 0.62771 0.38946 0.0
C1609 C 0.85482 0.62664 0.40102 0.0
C1610 C 0.86668 0.62748 0.39748 0.0
H1611 H 0.91826 0.63115 0.34579 0.0
H1612 H 0.89895 0.62988 0.3531 0.0
H1613 H 0.89004 0.5867 0.41293 0.0
H1614 H 0.83621 0.62744 0.43832 0.0
H1615 H 0.85581 0.62567 0.43304 0.0
C1616 C 0.59912 0.37142 0.57757 0.0
C1617 C 0.59179 0.37565 0.59328 0.0
C1618 C 0.61023 0.36912 0.58128 0.0
C1619 C 0.63052 0.39285 0.6195 0.0
H1620 H 0.64887 0.32402 0.59096 0.0
C1621 C 0.67484 0.36703 0.64201 0.0
C1622 C 0.68244 0.36538 0.62662 0.0
C1623 C 0.66378 0.36703 0.63783 0.0
C1624 C 0.64386 0.34361 0.59894 0.0
H1625 H 0.59034 0.37989 0.62517 0.0
H1626 H 0.60958 0.37536 0.6316 0.0
H1627 H 0.62959 0.32667 0.58348 0.0
H1628 H 0.68442 0.36192 0.5948 0.0
H1629 H 0.66514 0.36212 0.58753 0.0
H1630 H 0.64475 0.40978 0.63497 0.0
C1631 C 0.60683 0.37458 0.61641 0.0
C1632 C 0.63282 0.34518 0.59462 0.0
C1633 C 0.59577 0.37694 0.61271 0.0
C1634 C 0.67876 0.36319 0.607 0.0
C1635 C 0.66771 0.36308 0.60283 0.0
C1636 C 0.64153 0.39123 0.62384 0.0
C1637 C 0.61422 0.37101 0.60076 0.0
C1638 C 0.62601 0.36973 0.60491 0.0
C1639 C 0.66008 0.36526 0.61818 0.0
C1640 C 0.64834 0.36655 0.61365 0.0
H1641 H 0.59627 0.37037 0.56244 0.0
H1642 H 0.61572 0.36665 0.56887 0.0
H1643 H 0.62555 0.4126 0.62745 0.0
H1644 H 0.67744 0.36863 0.65728 0.0
H1645 H 0.65811 0.36827 0.65001 0.0
C1646 C 0.58833 0.84126 0.65989 0.0
C1647 C 0.58441 0.86236 0.67583 0.0
C1648 C 0.59939 0.83823 0.65642 0.0
C1649 C 0.62519 0.88597 0.66587 0.0
H1650 H 0.63735 0.79394 0.64601 0.0
C1651 C 0.6709 0.86658 0.65028 0.0
C1652 C 0.67361 0.84863 0.6325 0.0
C1653 C 0.66018 0.8678 0.65676 0.0
C1654 C 0.63406 0.81991 0.6514 0.0
H1655 H 0.58903 0.89628 0.70088 0.0
H1656 H 0.60849 0.89073 0.69491 0.0
H1657 H 0.61847 0.79595 0.65611 0.0
H1658 H 0.66723 0.81795 0.60755 0.0
H1659 H 0.6485 0.81999 0.61887 0.0
H1660 H 0.64082 0.90988 0.66109 0.0
C1661 C 0.60295 0.87685 0.68497 0.0
C1662 C 0.62323 0.82108 0.65721 0.0
C1663 C 0.59182 0.87983 0.68848 0.0
C1664 C 0.66538 0.83195 0.62132 0.0
C1665 C 0.65467 0.83292 0.62787 0.0
C1666 C 0.63604 0.88474 0.66015 0.0
C1667 C 0.60686 0.85621 0.66879 0.0
C1668 C 0.61861 0.85426 0.66424 0.0
C1669 C 0.65195 0.85083 0.64567 0.0
C1670 C 0.64056 0.85182 0.65259 0.0
H1671 H 0.58282 0.8275 0.64983 0.0
H1672 H 0.60208 0.82261 0.64364 0.0
H1673 H 0.62186 0.9121 0.67097 0.0
H1674 H 0.67707 0.87969 0.65923 0.0
H1675 H 0.65835 0.88155 0.6706 0.0
C1676 C 0.41569 0.6305 0.41519 0.0
C1677 C 0.42273 0.63106 0.3989 0.0
C1678 C 0.4045 0.63254 0.41234 0.0
C1679 C 0.38348 0.6569 0.37524 0.0
H1680 H 0.36608 0.58516 0.40373 0.0
C1681 C 0.33993 0.61929 0.35163 0.0
C1682 C 0.3323 0.61383 0.3667 0.0
C1683 C 0.35087 0.62405 0.35625 0.0
C1684 C 0.37078 0.60572 0.39583 0.0
H1685 H 0.4236 0.63567 0.36696 0.0
H1686 H 0.4042 0.63908 0.36202 0.0
H1687 H 0.38525 0.59072 0.41118 0.0
H1688 H 0.3301 0.60941 0.39844 0.0
H1689 H 0.34909 0.61799 0.40648 0.0
H1690 H 0.36903 0.67154 0.35969 0.0
C1691 C 0.40725 0.63732 0.37699 0.0
C1692 C 0.38178 0.60897 0.40015 0.0
C1693 C 0.41839 0.63512 0.37983 0.0
C1694 C 0.3358 0.61337 0.38647 0.0
C1695 C 0.3467 0.61811 0.39108 0.0
C1696 C 0.37248 0.65366 0.37092 0.0
C1697 C 0.40015 0.63541 0.39316 0.0
C1698 C 0.38829 0.63431 0.38975 0.0
C1699 C 0.35438 0.62342 0.37605 0.0
C1700 C 0.36602 0.62777 0.38103 0.0
H1701 H 0.41881 0.6274 0.43006 0.0
H1702 H 0.39924 0.63142 0.42512 0.0
H1703 H 0.38824 0.67706 0.36715 0.0
H1704 H 0.33748 0.61975 0.33626 0.0
H1705 H 0.35659 0.62763 0.34429 0.0
C1706 C 0.4156 0.08035 0.35678 0.0
C1707 C 0.41884 0.09414 0.33827 0.0
C1708 C 0.40483 0.08249 0.36276 0.0
C1709 C 0.37961 0.13451 0.35285 0.0
H1710 H 0.36692 0.05805 0.38593 0.0
C1711 C 0.33442 0.13251 0.37473 0.0
C1712 C 0.33192 0.12379 0.39447 0.0
C1713 C 0.34499 0.12922 0.3677 0.0
C1714 C 0.37039 0.0798 0.37686 0.0
H1715 H 0.41325 0.11995 0.31121 0.0
H1716 H 0.39431 0.12288 0.32143 0.0
H1717 H 0.3851 0.04962 0.37289 0.0
H1718 H 0.33855 0.10514 0.4224 0.0
H1719 H 0.35708 0.09912 0.41006 0.0
H1720 H 0.36478 0.16438 0.35667 0.0
C1721 C 0.40017 0.11109 0.33152 0.0
C1722 C 0.38082 0.075 0.36936 0.0
C1723 C 0.411 0.10911 0.32557 0.0
C1724 C 0.34024 0.11209 0.40712 0.0
C1725 C 0.35082 0.10842 0.40002 0.0
C1726 C 0.36913 0.13914 0.36022 0.0
C1727 C 0.39697 0.09826 0.35033 0.0
C1728 C 0.38561 0.10242 0.35737 0.0
C1729 C 0.35329 0.11679 0.3802 0.0
C1730 C 0.36444 0.11195 0.37242 0.0
H1731 H 0.42145 0.06881 0.36698 0.0
H1732 H 0.40276 0.07284 0.37744 0.0
H1733 H 0.38308 0.15653 0.34398 0.0
H1734 H 0.32818 0.1416 0.3646 0.0
H1735 H 0.34661 0.13557 0.35233 0.0
C1736 C 0.67021 0.8504 0.12205 0.0
C1737 C 0.67309 0.85896 0.14163 0.0
C1738 C 0.65939 0.84996 0.11624 0.0
C1739 C 0.63159 0.84269 0.13566 0.0
H1740 H 0.6237 0.88758 0.08555 0.0
C1741 C 0.58742 0.87416 0.11529 0.0
C1742 C 0.58402 0.86884 0.09566 0.0
C1743 C 0.59829 0.87084 0.12041 0.0
C1744 C 0.62577 0.87442 0.09944 0.0
H1745 H 0.66685 0.87351 0.17054 0.0
H1746 H 0.64788 0.87288 0.16039 0.0
H1747 H 0.64259 0.88626 0.09569 0.0
H1748 H 0.58939 0.85555 0.06601 0.0
H1749 H 0.60848 0.84938 0.07499 0.0
H1750 H 0.61478 0.83093 0.13947 0.0
C1751 C 0.65402 0.8662 0.14955 0.0
C1752 C 0.63661 0.87373 0.10528 0.0
C1753 C 0.66488 0.86675 0.15536 0.0
C1754 C 0.59176 0.85985 0.08124 0.0
C1755 C 0.6027 0.85653 0.08639 0.0
C1756 C 0.62076 0.84329 0.1298 0.0
C1757 C 0.65116 0.85799 0.12989 0.0
C1758 C 0.63964 0.8581 0.12353 0.0
C1759 C 0.60609 0.86204 0.10606 0.0
C1760 C 0.6177 0.85947 0.1117 0.0
H1761 H 0.67634 0.84415 0.11111 0.0
H1762 H 0.65747 0.84301 0.10107 0.0
H1763 H 0.63366 0.82984 0.14964 0.0
H1764 H 0.58168 0.88125 0.12677 0.0
H1765 H 0.6006 0.87592 0.13561 0.0
C1766 C 0.66884 0.34286 0.13329 0.0
C1767 C 0.67207 0.35631 0.11469 0.0
C1768 C 0.65823 0.34751 0.13986 0.0
C1769 C 0.63411 0.40573 0.13263 0.0
H1770 H 0.61912 0.32456 0.15849 0.0
C1771 C 0.58828 0.40836 0.14713 0.0
C1772 C 0.58419 0.39135 0.16428 0.0
C1773 C 0.59922 0.40596 0.14241 0.0
C1774 C 0.62324 0.34774 0.15161 0.0
H1775 H 0.66668 0.38497 0.08831 0.0
H1776 H 0.64807 0.39313 0.09977 0.0
H1777 H 0.63762 0.31578 0.14704 0.0
H1778 H 0.58847 0.35951 0.19031 0.0
H1779 H 0.60772 0.35581 0.18225 0.0
H1780 H 0.61977 0.43776 0.13722 0.0
C1781 C 0.6538 0.37919 0.10933 0.0
C1782 C 0.63383 0.34264 0.14496 0.0
C1783 C 0.66442 0.3743 0.1027 0.0
C1784 C 0.59138 0.37288 0.17699 0.0
C1785 C 0.60239 0.37051 0.17227 0.0
C1786 C 0.62354 0.41091 0.13936 0.0
C1787 C 0.6506 0.36593 0.12802 0.0
C1788 C 0.63936 0.37148 0.13526 0.0
C1789 C 0.60641 0.38656 0.15475 0.0
C1790 C 0.61792 0.38188 0.14879 0.0
H1791 H 0.67455 0.32892 0.1429 0.0
H1792 H 0.65606 0.33731 0.15439 0.0
H1793 H 0.63821 0.42872 0.12553 0.0
H1794 H 0.58295 0.42272 0.13698 0.0
H1795 H 0.60197 0.41824 0.12868 0.0
C1796 C 0.41493 0.09382 0.88652 0.0
C1797 C 0.42282 0.0944 0.87161 0.0
C1798 C 0.40395 0.09589 0.88168 0.0
C1799 C 0.38547 0.12399 0.84096 0.0
H1800 H 0.36447 0.06643 0.87042 0.0
C1801 C 0.34042 0.11275 0.81781 0.0
C1802 C 0.33283 0.1162 0.83314 0.0
C1803 C 0.35146 0.10958 0.82212 0.0
C1804 C 0.37023 0.08288 0.86214 0.0
H1805 H 0.4254 0.09708 0.83993 0.0
H1806 H 0.40633 0.0999 0.83147 0.0
H1807 H 0.38356 0.0618 0.87886 0.0
H1808 H 0.33085 0.11901 0.86498 0.0
H1809 H 0.35 0.11345 0.87244 0.0
H1810 H 0.37211 0.14482 0.82416 0.0
C1811 C 0.40856 0.09865 0.84693 0.0
C1812 C 0.38118 0.08033 0.86702 0.0
C1813 C 0.41952 0.09676 0.85178 0.0
C1814 C 0.33649 0.11635 0.85282 0.0
C1815 C 0.34747 0.11292 0.85712 0.0
C1816 C 0.37453 0.12637 0.83602 0.0
C1817 C 0.40062 0.09842 0.8618 0.0
C1818 C 0.38895 0.10096 0.85655 0.0
C1819 C 0.35509 0.10946 0.84184 0.0
C1820 C 0.36677 0.10599 0.84661 0.0
H1821 H 0.41723 0.09217 0.90195 0.0
H1822 H 0.39808 0.09614 0.89354 0.0
H1823 H 0.39119 0.14076 0.83277 0.0
H1824 H 0.33784 0.11251 0.80251 0.0
H1825 H 0.35713 0.1067 0.81003 0.0
C1826 C 0.41434 0.63373 0.85363 0.0
C1827 C 0.42167 0.6333 0.86947 0.0
C1828 C 0.40321 0.63402 0.85717 0.0
C1829 C 0.38273 0.61138 0.89493 0.0
H1830 H 0.36451 0.67684 0.86395 0.0
C1831 C 0.33712 0.63252 0.91164 0.0
C1832 C 0.33021 0.63563 0.89526 0.0
C1833 C 0.34834 0.632 0.90901 0.0
C1834 C 0.36945 0.65804 0.87259 0.0
H1835 H 0.42311 0.63266 0.90142 0.0
H1836 H 0.40369 0.63323 0.90759 0.0
H1837 H 0.38392 0.67614 0.85819 0.0
H1838 H 0.32961 0.63979 0.86328 0.0
H1839 H 0.34907 0.63818 0.85869 0.0
H1840 H 0.36823 0.59302 0.90921 0.0
C1841 C 0.40653 0.63309 0.89244 0.0
C1842 C 0.38059 0.6577 0.86928 0.0
C1843 C 0.41766 0.63299 0.8889 0.0
C1844 C 0.33472 0.63766 0.87623 0.0
C1845 C 0.3459 0.63699 0.8736 0.0
C1846 C 0.37157 0.61161 0.89819 0.0
C1847 C 0.39918 0.6337 0.87662 0.0
C1848 C 0.38735 0.63426 0.88035 0.0
C1849 C 0.35287 0.63449 0.88995 0.0
C1850 C 0.36478 0.63481 0.88697 0.0
H1851 H 0.41719 0.63386 0.83849 0.0
H1852 H 0.39776 0.63405 0.84465 0.0
H1853 H 0.38771 0.59272 0.90356 0.0
H1854 H 0.33386 0.63097 0.92648 0.0
H1855 H 0.35348 0.63037 0.92195 0.0
C1856 C 0.03105 0.99116 0.13782 0.0
C1857 C 0.03527 0.98115 0.15634 0.0
C1858 C 0.02998 0.02852 0.1327 0.0
C1859 C 0.02844 0.12362 0.15138 0.0
H1860 H 0.04389 0.14902 0.10338 0.0
C1861 C 0.03922 0.27505 0.13054 0.0
C1862 C 0.03986 0.28416 0.11041 0.0
C1863 C 0.0373 0.23837 0.13636 0.0
C1864 C 0.03932 0.14252 0.11658 0.0
H1865 H 0.04109 0.00207 0.18444 0.0
H1866 H 0.03905 0.0676 0.17552 0.0
H1867 H 0.04238 0.0844 0.11324 0.0
H1868 H 0.03838 0.26297 0.08056 0.0
H1869 H 0.03452 0.19951 0.0906 0.0
H1870 H 0.02523 0.18172 0.15463 0.0
C1871 C 0.03664 0.04649 0.16499 0.0
C1872 C 0.03851 0.10543 0.12226 0.0
C1873 C 0.03786 0.00908 0.17004 0.0
C1874 C 0.03809 0.25649 0.0962 0.0
C1875 C 0.03595 0.22007 0.10198 0.0
C1876 C 0.02908 0.16082 0.14552 0.0
C1877 C 0.03296 0.05646 0.1461 0.0
C1878 C 0.03314 0.09568 0.13975 0.0
C1879 C 0.03579 0.2103 0.12212 0.0
C1880 C 0.03461 0.17075 0.1281 0.0
H1881 H 0.02897 0.97018 0.127 0.0
H1882 H 0.02706 0.03563 0.11808 0.0
H1883 H 0.02423 0.11663 0.16492 0.0
H1884 H 0.04059 0.29599 0.14176 0.0
H1885 H 0.03736 0.23189 0.15199 0.0
C1886 C 0.20737 0.96846 0.12193 0.0
C1887 C 0.20478 0.96349 0.10189 0.0
C1888 C 0.20947 0.00395 0.1293 0.0
C1889 C 0.21742 0.09832 0.11533 0.0
H1890 H 0.19974 0.12905 0.15974 0.0
C1891 C 0.21079 0.25202 0.13522 0.0
C1892 C 0.20901 0.26158 0.15506 0.0
C1893 C 0.21191 0.21483 0.12976 0.0
C1894 C 0.20494 0.12083 0.14763 0.0
H1895 H 0.20275 0.99127 0.07369 0.0
H1896 H 0.20656 0.05331 0.08655 0.0
H1897 H 0.199 0.06504 0.14837 0.0
H1898 H 0.20757 0.24026 0.18491 0.0
H1899 H 0.20991 0.17542 0.17553 0.0
H1900 H 0.22341 0.15401 0.11457 0.0
C1901 C 0.20693 0.02978 0.09653 0.0
C1902 C 0.20446 0.08415 0.14108 0.0
C1903 C 0.20467 0.99438 0.08922 0.0
C1904 C 0.20881 0.23354 0.16946 0.0
C1905 C 0.21009 0.1964 0.16406 0.0
C1906 C 0.21802 0.13494 0.12205 0.0
C1907 C 0.20918 0.03491 0.11668 0.0
C1908 C 0.21055 0.07277 0.12468 0.0
C1909 C 0.21142 0.1865 0.14408 0.0
C1910 C 0.21163 0.14682 0.13806 0.0
H1911 H 0.20752 0.94507 0.13201 0.0
H1912 H 0.21124 0.00727 0.14489 0.0
H1913 H 0.22226 0.09001 0.10275 0.0
H1914 H 0.21095 0.27315 0.12382 0.0
H1915 H 0.21275 0.20829 0.11421 0.0
C1916 C 0.96039 0.73326 0.86725 0.0
C1917 C 0.95917 0.71702 0.88598 0.0
C1918 C 0.96091 0.77189 0.86527 0.0
C1919 C 0.95388 0.85848 0.892 0.0
H1920 H 0.97212 0.90454 0.85236 0.0
C1921 C 0.95943 0.01748 0.88621 0.0
C1922 C 0.9582 0.03235 0.86714 0.0
C1923 C 0.9602 0.97907 0.88893 0.0
C1924 C 0.96696 0.89199 0.86344 0.0
H1925 H 0.95787 0.72821 0.91739 0.0
H1926 H 0.95909 0.79538 0.91403 0.0
H1927 H 0.9724 0.83715 0.85638 0.0
H1928 H 0.95703 0.01891 0.83596 0.0
H1929 H 0.95848 0.9519 0.84072 0.0
H1930 H 0.94854 0.91343 0.89912 0.0
C1931 C 0.95935 0.77853 0.90078 0.0
C1932 C 0.96708 0.8534 0.8657 0.0
C1933 C 0.95872 0.74 0.90273 0.0
C1934 C 0.95796 0.00821 0.85083 0.0
C1935 C 0.95885 0.96989 0.85353 0.0
C1936 C 0.95385 0.89705 0.88985 0.0
C1937 C 0.96033 0.79501 0.88202 0.0
C1938 C 0.96048 0.83614 0.87993 0.0
C1939 C 0.95989 0.95492 0.87261 0.0
C1940 C 0.96033 0.91415 0.87546 0.0
H1941 H 0.96072 0.71618 0.85408 0.0
H1942 H 0.96152 0.7836 0.85056 0.0
H1943 H 0.94854 0.84615 0.90285 0.0
H1944 H 0.95964 0.03547 0.89904 0.0
H1945 H 0.96108 0.96824 0.90379 0.0
C1946 C 0.79206 0.00709 0.90099 0.0
C1947 C 0.79201 0.03153 0.88481 0.0
C1948 C 0.79133 0.96879 0.89804 0.0
C1949 C 0.78413 0.89749 0.86052 0.0
H1950 H 0.80188 0.83377 0.89344 0.0
C1951 C 0.79378 0.74463 0.84164 0.0
C1952 C 0.7932 0.71873 0.85714 0.0
C1953 C 0.79272 0.78257 0.84545 0.0
C1954 C 0.79678 0.85119 0.8843 0.0
H1955 H 0.79108 0.03525 0.85288 0.0
H1956 H 0.79013 0.9683 0.84764 0.0
H1957 H 0.80185 0.90057 0.89912 0.0
H1958 H 0.79093 0.71202 0.88873 0.0
H1959 H 0.7892 0.77856 0.89542 0.0
H1960 H 0.77935 0.84792 0.84533 0.0
C1961 C 0.79048 0.97865 0.86265 0.0
C1962 C 0.79673 0.88948 0.88756 0.0
C1963 C 0.7911 0.01702 0.86563 0.0
C1964 C 0.79142 0.73141 0.8765 0.0
C1965 C 0.79047 0.76942 0.88035 0.0
C1966 C 0.78426 0.8592 0.85714 0.0
C1967 C 0.79066 0.95404 0.87883 0.0
C1968 C 0.79044 0.91315 0.87567 0.0
C1969 C 0.79116 0.79536 0.86486 0.0
C1970 C 0.79063 0.83572 0.86895 0.0
H1971 H 0.79267 0.01755 0.91596 0.0
H1972 H 0.79128 0.95077 0.91086 0.0
H1973 H 0.77904 0.91477 0.85131 0.0
H1974 H 0.79514 0.73563 0.82656 0.0
H1975 H 0.79338 0.80198 0.83326 0.0
C1976 C 0.03454 0.73986 0.60244 0.0
C1977 C 0.03939 0.7471 0.58407 0.0
C1978 C 0.03327 0.70338 0.60902 0.0
C1979 C 0.03277 0.60527 0.59445 0.0
H1980 H 0.0465 0.58882 0.64521 0.0
C1981 C 0.04422 0.45873 0.62284 0.0
C1982 C 0.04429 0.45261 0.64333 0.0
C1983 C 0.04208 0.49417 0.61531 0.0
C1984 C 0.0424 0.59281 0.63124 0.0
H1985 H 0.04607 0.72199 0.55761 0.0
H1986 H 0.04371 0.65803 0.56907 0.0
H1987 H 0.04488 0.65153 0.63242 0.0
H1988 H 0.04154 0.47777 0.67197 0.0
H1989 H 0.0373 0.53897 0.65892 0.0
H1990 H 0.03019 0.54651 0.59332 0.0
C1991 C 0.04095 0.68063 0.57837 0.0
C1992 C 0.04152 0.62883 0.62389 0.0
C1993 C 0.04235 0.71717 0.57188 0.0
C1994 C 0.0417 0.48194 0.65611 0.0
C1995 C 0.03934 0.51708 0.6486 0.0
C1996 C 0.03349 0.56912 0.60197 0.0
C1997 C 0.03669 0.67349 0.59723 0.0
C1998 C 0.0368 0.63538 0.60537 0.0
C1999 C 0.03977 0.52396 0.62813 0.0
C2000 C 0.03841 0.5624 0.6204 0.0
H2001 H 0.03215 0.76239 0.61211 0.0
H2002 H 0.02988 0.69851 0.62356 0.0
H2003 H 0.02907 0.60972 0.58014 0.0
H2004 H 0.04622 0.43648 0.61269 0.0
H2005 H 0.04262 0.4984 0.59949 0.0
C2006 C 0.21497 0.49182 0.60056 0.0
C2007 C 0.21574 0.46796 0.61695 0.0
C2008 C 0.2158 0.5302 0.60299 0.0
C2009 C 0.21055 0.60235 0.63906 0.0
H2010 H 0.22721 0.66528 0.60388 0.0
C2011 C 0.21109 0.76077 0.64899 0.0
C2012 C 0.21079 0.7827 0.63183 0.0
C2013 C 0.21294 0.72262 0.64775 0.0
C2014 C 0.22242 0.64815 0.61369 0.0
H2015 H 0.21823 0.46534 0.64863 0.0
H2016 H 0.21952 0.53278 0.65293 0.0
H2017 H 0.22837 0.59781 0.60071 0.0
H2018 H 0.21232 0.78219 0.59994 0.0
H2019 H 0.21517 0.71521 0.59762 0.0
H2020 H 0.20423 0.65224 0.65156 0.0
C2021 C 0.2183 0.52163 0.63822 0.0
C2022 C 0.22314 0.60954 0.61194 0.0
C2023 C 0.2176 0.48313 0.63576 0.0
C2024 C 0.21254 0.76589 0.6134 0.0
C2025 C 0.21425 0.72755 0.61211 0.0
C2026 C 0.20973 0.64089 0.64067 0.0
C2027 C 0.2173 0.5455 0.62187 0.0
C2028 C 0.21717 0.58631 0.62454 0.0
C2029 C 0.21437 0.70538 0.62928 0.0
C2030 C 0.2156 0.66433 0.62794 0.0
H2031 H 0.21356 0.48086 0.58588 0.0
H2032 H 0.21491 0.54798 0.59016 0.0
H2033 H 0.20572 0.58507 0.64875 0.0
H2034 H 0.20989 0.77309 0.66344 0.0
H2035 H 0.21323 0.70666 0.66131 0.0
C2036 C 0.96844 0.49929 0.35356 0.0
C2037 C 0.96378 0.51777 0.3697 0.0
C2038 C 0.97003 0.46092 0.3541 0.0
C2039 C 0.96903 0.37835 0.38798 0.0
H2040 H 0.96603 0.32563 0.33835 0.0
C2041 C 0.97184 0.2189 0.38579 0.0
C2042 C 0.96514 0.20007 0.37243 0.0
C2043 C 0.97313 0.25737 0.3845 0.0
C2044 C 0.96676 0.33971 0.35242 0.0
H2045 H 0.95719 0.51107 0.3991 0.0
H2046 H 0.95931 0.44379 0.39971 0.0
H2047 H 0.96502 0.39263 0.33868 0.0
H2048 H 0.9546 0.20626 0.34713 0.0
H2049 H 0.95628 0.27351 0.34548 0.0
H2050 H 0.96985 0.32533 0.40193 0.0
C2051 C 0.96218 0.45878 0.38687 0.0
C2052 C 0.9664 0.37849 0.35257 0.0
C2053 C 0.96088 0.49739 0.38653 0.0
C2054 C 0.95992 0.22017 0.35748 0.0
C2055 C 0.96095 0.2588 0.35651 0.0
C2056 C 0.96911 0.33954 0.3879 0.0
C2057 C 0.96669 0.43989 0.37056 0.0
C2058 C 0.96749 0.39846 0.37037 0.0
C2059 C 0.96746 0.27809 0.37019 0.0
C2060 C 0.96792 0.31957 0.37012 0.0
H2061 H 0.97085 0.51457 0.34048 0.0
H2062 H 0.97383 0.44784 0.34148 0.0
H2063 H 0.97013 0.39248 0.40196 0.0
H2064 H 0.97602 0.20388 0.39737 0.0
H2065 H 0.97847 0.27081 0.39495 0.0
C2066 C 0.78668 0.26286 0.35035 0.0
C2067 C 0.79096 0.2518 0.33206 0.0
C2068 C 0.78432 0.30016 0.35395 0.0
C2069 C 0.79227 0.39349 0.33706 0.0
H2070 H 0.76991 0.42415 0.37377 0.0
C2071 C 0.78867 0.54474 0.36437 0.0
C2072 C 0.78884 0.54732 0.38509 0.0
C2073 C 0.78673 0.51058 0.35518 0.0
C2074 C 0.77614 0.41598 0.3634 0.0
H2075 H 0.7956 0.27063 0.30282 0.0
H2076 H 0.79123 0.33574 0.30892 0.0
H2077 H 0.77037 0.36005 0.362 0.0
H2078 H 0.78658 0.51688 0.41244 0.0
H2079 H 0.78308 0.45745 0.39644 0.0
H2080 H 0.79812 0.44932 0.33876 0.0
C2081 C 0.78995 0.31578 0.32067 0.0
C2082 C 0.77645 0.37927 0.35673 0.0
C2083 C 0.7924 0.27847 0.31714 0.0
C2084 C 0.78654 0.51564 0.39644 0.0
C2085 C 0.78445 0.48169 0.38728 0.0
C2086 C 0.79188 0.43027 0.34357 0.0
C2087 C 0.78609 0.3272 0.33927 0.0
C2088 C 0.78472 0.36729 0.34397 0.0
C2089 C 0.78476 0.47865 0.36659 0.0
C2090 C 0.78401 0.44157 0.35724 0.0
H2091 H 0.7855 0.2429 0.36214 0.0
H2092 H 0.78153 0.30792 0.36855 0.0
H2093 H 0.79884 0.38524 0.32745 0.0
H2094 H 0.79042 0.56878 0.35527 0.0
H2095 H 0.78697 0.50895 0.3392 0.0
C2096 C 0.54098 -0.0041 0.64526 0.0
C2097 C 0.54518 0.9881 0.66409 0.0
C2098 C 0.54011 0.03254 0.63871 0.0
C2099 C 0.53898 0.1298 0.65443 0.0
H2100 H 0.55285 0.1495 0.60411 0.0
C2101 C 0.54938 0.27824 0.62768 0.0
C2102 C 0.54934 0.28517 0.60726 0.0
C2103 C 0.54751 0.24236 0.63484 0.0
C2104 C 0.54873 0.14454 0.61798 0.0
H2105 H 0.55136 0.01235 0.69116 0.0
H2106 H 0.54971 0.07662 0.67973 0.0
H2107 H 0.55174 0.08613 0.61627 0.0
H2108 H 0.54667 0.2609 0.57837 0.0
H2109 H 0.54295 0.1988 0.5908 0.0
H2110 H 0.53586 0.1882 0.65608 0.0
C2111 C 0.54713 0.05433 0.67007 0.0
C2112 C 0.54815 0.10818 0.62497 0.0
C2113 C 0.54812 0.01762 0.67654 0.0
C2114 C 0.54689 0.25615 0.59418 0.0
C2115 C 0.54484 0.22051 0.60133 0.0
C2116 C 0.53943 0.16625 0.6473 0.0
C2117 C 0.54331 0.06204 0.65096 0.0
C2118 C 0.54335 0.1005 0.6433 0.0
C2119 C 0.5454 0.21291 0.62171 0.0
C2120 C 0.54438 0.1741 0.62903 0.0
H2121 H 0.53863 0.97367 0.63537 0.0
H2122 H 0.53707 0.03784 0.62396 0.0
H2123 H 0.53518 0.12447 0.66857 0.0
H2124 H 0.55127 0.30019 0.63806 0.0
H2125 H 0.54812 0.23754 0.6506 0.0
C2126 C 0.72578 0.23656 0.63827 0.0
C2127 C 0.72451 0.26289 0.62314 0.0
C2128 C 0.72722 0.19913 0.63372 0.0
C2129 C 0.71915 0.13202 0.59734 0.0
H2130 H 0.73865 0.06664 0.62568 0.0
C2131 C 0.71529 0.97284 0.59166 0.0
C2132 C 0.71615 0.95353 0.60964 0.0
C2133 C 0.71836 0.01012 0.59042 0.0
C2134 C 0.73312 0.08449 0.6177 0.0
H2135 H 0.72412 0.27117 0.59141 0.0
H2136 H 0.72639 0.20513 0.58342 0.0
H2137 H 0.7407 0.13385 0.62867 0.0
H2138 H 0.72105 0.95773 0.64032 0.0
H2139 H 0.72607 0.02293 0.63838 0.0
H2140 H 0.71113 0.08303 0.5873 0.0
C2141 C 0.72636 0.21369 0.59877 0.0
C2142 C 0.73435 0.12292 0.61932 0.0
C2143 C 0.7251 0.25136 0.60333 0.0
C2144 C 0.72032 0.97192 0.62625 0.0
C2145 C 0.72329 0.00924 0.62507 0.0
C2146 C 0.71784 0.0936 0.59588 0.0
C2147 C 0.72726 0.18723 0.61396 0.0
C2148 C 0.7272 0.147 0.60956 0.0
C2149 C 0.72227 0.02892 0.60719 0.0
C2150 C 0.72462 0.06938 0.6065 0.0
H2151 H 0.7254 0.24477 0.65366 0.0
H2152 H 0.72778 0.17927 0.64572 0.0
H2153 H 0.71345 0.15001 0.58984 0.0
H2154 H 0.71219 0.95921 0.57857 0.0
H2155 H 0.7176 0.02427 0.57636 0.0
C2156 C 0.46691 0.71313 0.36145 0.0
C2157 C 0.46848 0.70367 0.38136 0.0
C2158 C 0.46971 0.74851 0.35467 0.0
C2159 C 0.47295 0.84262 0.37501 0.0
H2160 H 0.4795 0.86763 0.32054 0.0
C2161 C 0.47295 0.99355 0.34992 0.0
C2162 C 0.46593 0.00014 0.33401 0.0
C2163 C 0.47641 0.95756 0.35417 0.0
C2164 C 0.47774 0.86095 0.33582 0.0
H2165 H 0.47507 0.72192 0.40936 0.0
H2166 H 0.48044 0.78296 0.39737 0.0
H2167 H 0.48028 0.80273 0.33125 0.0
H2168 H 0.4576 0.97488 0.30924 0.0
H2169 H 0.46357 0.91177 0.31679 0.0
H2170 H 0.47022 0.9005 0.37953 0.0
C2171 C 0.47663 0.76391 0.38715 0.0
C2172 C 0.47813 0.82386 0.34195 0.0
C2173 C 0.47361 0.72892 0.39401 0.0
C2174 C 0.46296 0.97049 0.32168 0.0
C2175 C 0.46645 0.93446 0.3259 0.0
C2176 C 0.47269 0.87954 0.36896 0.0
C2177 C 0.4743 0.77473 0.36762 0.0
C2178 C 0.47547 0.81418 0.36153 0.0
C2179 C 0.47293 0.92755 0.34255 0.0
C2180 C 0.47482 0.889 0.34923 0.0
H2181 H 0.46297 0.69399 0.35143 0.0
H2182 H 0.46769 0.75588 0.33959 0.0
H2183 H 0.4706 0.83635 0.39007 0.0
H2184 H 0.47547 0.01597 0.35956 0.0
H2185 H 0.4815 0.95299 0.36697 0.0
C2186 C 0.28781 0.73348 0.35195 0.0
C2187 C 0.28996 0.70885 0.36753 0.0
C2188 C 0.28569 0.7708 0.35577 0.0
C2189 C 0.2799 0.83865 0.39604 0.0
H2190 H 0.29436 0.90675 0.36031 0.0
C2191 C 0.29222 0.98869 0.41579 0.0
C2192 C 0.29067 0.01617 0.40133 0.0
C2193 C 0.29 0.95154 0.41155 0.0
C2194 C 0.29013 0.88813 0.37024 0.0
H2195 H 0.29123 0.70328 0.39933 0.0
H2196 H 0.28798 0.76892 0.40606 0.0
H2197 H 0.2944 0.84072 0.3531 0.0
H2198 H 0.28526 0.02676 0.37135 0.0
H2199 H 0.28155 0.96158 0.36384 0.0
H2200 H 0.27615 0.88646 0.41366 0.0
C2201 C 0.28764 0.75936 0.3909 0.0
C2202 C 0.29011 0.85024 0.3661 0.0
C2203 C 0.28958 0.72181 0.38707 0.0
C2204 C 0.28657 0.00607 0.38274 0.0
C2205 C 0.28446 0.96887 0.37843 0.0
C2206 C 0.28004 0.87663 0.4003 0.0
C2207 C 0.28589 0.78444 0.37524 0.0
C2208 C 0.2851 0.82496 0.37904 0.0
C2209 C 0.2863 0.94125 0.39271 0.0
C2210 C 0.28525 0.90159 0.38752 0.0
H2211 H 0.28791 0.72399 0.33675 0.0
H2212 H 0.2841 0.78911 0.3434 0.0
H2213 H 0.27582 0.82002 0.40616 0.0
H2214 H 0.29532 -0.00422 0.43027 0.0
H2215 H 0.29159 0.93071 0.42274 0.0
C2216 C 0.53269 0.49717 0.14409 0.0
C2217 C 0.53857 0.48961 0.16138 0.0
C2218 C 0.53038 0.53373 0.13875 0.0
C2219 C 0.52968 0.63116 0.15539 0.0
H2220 H 0.54033 0.65132 0.10257 0.0
C2221 C 0.54064 0.77859 0.12766 0.0
C2222 C 0.5399 0.78575 0.10733 0.0
C2223 C 0.53822 0.74324 0.13503 0.0
C2224 C 0.53705 0.64631 0.11717 0.0
H2225 H 0.54597 0.51401 0.18736 0.0
H2226 H 0.54192 0.57812 0.17796 0.0
H2227 H 0.53966 0.58793 0.11441 0.0
H2228 H 0.5352 0.76315 0.07895 0.0
H2229 H 0.53042 0.70226 0.09182 0.0
H2230 H 0.52712 0.68979 0.15815 0.0
C2231 C 0.5391 0.55573 0.16859 0.0
C2232 C 0.53671 0.60985 0.12397 0.0
C2233 C 0.54147 0.5191 0.17389 0.0
C2234 C 0.53601 0.75801 0.09466 0.0
C2235 C 0.53335 0.72307 0.10205 0.0
C2236 C 0.52988 0.66781 0.14847 0.0
C2237 C 0.53385 0.56338 0.15065 0.0
C2238 C 0.53315 0.60192 0.1432 0.0
C2239 C 0.53481 0.71476 0.1222 0.0
C2240 C 0.53369 0.67585 0.12932 0.0
H2241 H 0.53027 0.47497 0.13424 0.0
H2242 H 0.52621 0.53893 0.12494 0.0
H2243 H 0.52688 0.62567 0.17028 0.0
H2244 H 0.54363 0.79967 0.13769 0.0
H2245 H 0.53952 0.73785 0.1506 0.0
C2246 C 0.71682 0.47752 0.10878 0.0
C2247 C 0.71473 0.44793 0.12173 0.0
C2248 C 0.71926 0.51267 0.11614 0.0
C2249 C 0.71276 0.57225 0.15676 0.0
H2250 H 0.73468 0.63639 0.13413 0.0
C2251 C 0.71284 0.72947 0.17228 0.0
C2252 C 0.71458 0.75208 0.15566 0.0
C2253 C 0.71506 0.69143 0.17147 0.0
C2254 C 0.72849 0.6189 0.14056 0.0
H2255 H 0.71381 0.43134 0.15248 0.0
H2256 H 0.71777 0.4936 0.16546 0.0
H2257 H 0.73481 0.57007 0.1266 0.0
H2258 H 0.72024 0.75298 0.12533 0.0
H2259 H 0.72376 0.68663 0.12364 0.0
H2260 H 0.70597 0.6211 0.16965 0.0
C2261 C 0.71765 0.48926 0.14962 0.0
C2262 C 0.72862 0.58094 0.13635 0.0
C2263 C 0.71542 0.45378 0.14221 0.0
C2264 C 0.71884 0.73621 0.13839 0.0
C2265 C 0.72095 0.69817 0.1375 0.0
C2266 C 0.71253 0.61029 0.16077 0.0
C2267 C 0.71947 0.51905 0.1366 0.0
C2268 C 0.72058 0.5575 0.14397 0.0
C2269 C 0.71896 0.6752 0.15395 0.0
C2270 C 0.72021 0.63425 0.15222 0.0
H2271 H 0.7164 0.47368 0.09291 0.0
H2272 H 0.7205 0.53526 0.10579 0.0
H2273 H 0.70639 0.55479 0.16265 0.0
H2274 H 0.70966 0.74108 0.18586 0.0
H2275 H 0.71359 0.6747 0.1845 0.0
C2276 C 0.46378 0.22447 0.86647 0.0
C2277 C 0.46137 0.2058 0.88414 0.0
C2278 C 0.4652 0.26295 0.86637 0.0
C2279 C 0.45825 0.34661 0.89529 0.0
H2280 H 0.47829 0.39409 0.85916 0.0
C2281 C 0.46256 0.50623 0.88977 0.0
C2282 C 0.4616 0.51988 0.87039 0.0
C2283 C 0.46403 0.46823 0.89313 0.0
C2284 C 0.47268 0.38115 0.86934 0.0
H2285 H 0.45891 0.21242 0.91568 0.0
H2286 H 0.46163 0.27946 0.91563 0.0
H2287 H 0.47819 0.32651 0.86213 0.0
H2288 H 0.46179 0.50489 0.83934 0.0
H2289 H 0.46445 0.43872 0.84519 0.0
H2290 H 0.45271 0.40136 0.90236 0.0
C2291 C 0.46218 0.26459 0.90175 0.0
C2292 C 0.47258 0.34249 0.87098 0.0
C2293 C 0.46067 0.22616 0.9018 0.0
C2294 C 0.46246 0.49511 0.85444 0.0
C2295 C 0.46407 0.45729 0.85778 0.0
C2296 C 0.45843 0.38529 0.89377 0.0
C2297 C 0.46434 0.28353 0.884 0.0
C2298 C 0.4652 0.3247 0.88365 0.0
C2299 C 0.46472 0.4434 0.87714 0.0
C2300 C 0.46548 0.40286 0.88048 0.0
H2301 H 0.46434 0.20945 0.85262 0.0
H2302 H 0.46668 0.27666 0.85238 0.0
H2303 H 0.45237 0.33389 0.905 0.0
H2304 H 0.46193 0.52477 0.90233 0.0
H2305 H 0.46456 0.4582 0.9082 0.0
C2306 C 0.29404 0.26169 0.81763 0.0
C2307 C 0.29255 0.23536 0.8327 0.0
C2308 C 0.2921 0.29931 0.82122 0.0
C2309 C 0.27937 0.36412 0.85735 0.0
H2310 H 0.30022 0.43404 0.83623 0.0
C2311 C 0.28811 0.50746 0.89121 0.0
C2312 C 0.28949 0.53767 0.87833 0.0
C2313 C 0.2867 0.47168 0.88375 0.0
C2314 C 0.29423 0.41493 0.84196 0.0
H2315 H 0.28774 0.22744 0.86322 0.0
H2316 H 0.2847 0.29308 0.86973 0.0
H2317 H 0.30123 0.36894 0.8267 0.0
H2318 H 0.29022 0.55449 0.84757 0.0
H2319 H 0.28795 0.49154 0.83448 0.0
H2320 H 0.27275 0.41013 0.8734 0.0
C2321 C 0.28709 0.2848 0.85498 0.0
C2322 C 0.29478 0.37761 0.83648 0.0
C2323 C 0.28892 0.24717 0.85131 0.0
C2324 C 0.28918 0.53164 0.85782 0.0
C2325 C 0.28791 0.49571 0.85034 0.0
C2326 C 0.27891 0.40138 0.86301 0.0
C2327 C 0.28873 0.31138 0.84002 0.0
C2328 C 0.28748 0.35161 0.84438 0.0
C2329 C 0.28678 0.4654 0.86326 0.0
C2330 C 0.28645 0.42697 0.85561 0.0
H2331 H 0.29675 0.25326 0.80307 0.0
H2332 H 0.29327 0.31892 0.80926 0.0
H2333 H 0.27347 0.34503 0.86338 0.0
H2334 H 0.28829 0.51136 0.90709 0.0
H2335 H 0.28595 0.44873 0.89402 0.0
loop_
_geom_bond_atom_site_label_1
_geom_bond_atom_site_label_2
_geom_bond_distance
_geom_bond_site_symmetry_2
_ccdc_geom_bond_type
In0 O1 2.294 . S
In0 O2 2.326 . S
In0 O6 2.266 . S
In0 O7 2.326 . S
In0 O8 2.266 . S
In0 O9 2.326 . S
In0 O11 2.294 . S
In0 O12 2.326 . S
O1 In0 2.294 . S
O1 C10 1.240 . S
O2 In0 2.326 . S
O2 C10 1.252 . S
C3 O6 1.252 . S
C3 O7 1.260 . S
C4 O11 1.240 . S
C4 O12 1.252 . S
C5 O8 1.252 . S
C5 O9 1.260 . S
O6 In0 2.266 . S
O6 C3 1.252 . S
O7 In0 2.326 . S
O7 C3 1.260 . S
O8 In0 2.266 . S
O8 C5 1.252 . S
O9 In0 2.326 . S
O9 C5 1.260 . S
C10 O1 1.240 . S
C10 O2 1.252 . S
O11 In0 2.294 . S
O11 C4 1.240 . S
O12 In0 2.326 . S
O12 C4 1.252 . S
In13 O14 2.294 . S
In13 O15 2.326 . S
In13 O19 2.266 . S
In13 O20 2.326 . S
In13 O21 2.266 . S
In13 O22 2.326 . S
In13 O24 2.294 . S
In13 O25 2.326 . S
O14 In13 2.294 . S
O14 C23 1.240 . S
O15 In13 2.326 . S
O15 C23 1.252 . S
C16 O19 1.252 . S
C16 O20 1.260 . S
C17 O24 1.240 . S
C17 O25 1.252 . S
C18 O21 1.252 . S
C18 O22 1.260 . S
O19 In13 2.266 . S
O19 C16 1.252 . S
O20 In13 2.326 . S
O20 C16 1.260 . S
O21 In13 2.266 . S
O21 C18 1.252 . S
O22 In13 2.326 . S
O22 C18 1.260 . S
C23 O14 1.240 . S
C23 O15 1.252 . S
O24 In13 2.294 . S
O24 C17 1.240 . S
O25 In13 2.326 . S
O25 C17 1.252 . S
In26 O27 2.294 . S
In26 O28 2.326 . S
In26 O32 2.266 . S
In26 O33 2.326 . S
In26 O34 2.266 . S
In26 O35 2.326 . S
In26 O37 2.294 . S
In26 O38 2.326 . S
O27 In26 2.294 . S
O27 C36 1.240 . S
O28 In26 2.326 . S
O28 C36 1.252 . S
C29 O32 1.252 . S
C29 O33 1.260 . S
C30 O37 1.240 . S
C30 O38 1.252 . S
C31 O34 1.252 . S
C31 O35 1.260 . S
O32 In26 2.266 . S
O32 C29 1.252 . S
O33 In26 2.326 . S
O33 C29 1.260 . S
O34 In26 2.266 . S
O34 C31 1.252 . S
O35 In26 2.326 . S
O35 C31 1.260 . S
C36 O27 1.240 . S
C36 O28 1.252 . S
O37 In26 2.294 . S
O37 C30 1.240 . S
O38 In26 2.326 . S
O38 C30 1.252 . S
In39 O40 2.294 . S
In39 O41 2.326 . S
In39 O45 2.266 . S
In39 O46 2.326 . S
In39 O47 2.266 . S
In39 O48 2.326 . S
In39 O50 2.294 . S
In39 O51 2.326 . S
O40 In39 2.294 . S
O40 C49 1.240 . S
O41 In39 2.326 . S
O41 C49 1.252 . S
C42 O45 1.252 . S
C42 O46 1.260 . S
C43 O50 1.240 . S
C43 O51 1.252 . S
C44 O47 1.252 . S
C44 O48 1.260 . S
O45 In39 2.266 . S
O45 C42 1.252 . S
O46 In39 2.326 . S
O46 C42 1.260 . S
O47 In39 2.266 . S
O47 C44 1.252 . S
O48 In39 2.326 . S
O48 C44 1.260 . S
C49 O40 1.240 . S
C49 O41 1.252 . S
O50 In39 2.294 . S
O50 C43 1.240 . S
O51 In39 2.326 . S
O51 C43 1.252 . S
In52 O53 2.294 . S
In52 O54 2.326 . S
In52 O58 2.266 . S
In52 O59 2.326 . S
In52 O60 2.266 . S
In52 O61 2.326 . S
In52 O63 2.294 . S
In52 O64 2.326 . S
O53 In52 2.294 . S
O53 C62 1.240 . S
O54 In52 2.326 . S
O54 C62 1.252 . S
C55 O58 1.252 . S
C55 O59 1.260 . S
C56 O63 1.240 . S
C56 O64 1.252 . S
C57 O60 1.252 . S
C57 O61 1.260 . S
O58 In52 2.266 . S
O58 C55 1.252 . S
O59 In52 2.326 . S
O59 C55 1.260 . S
O60 In52 2.266 . S
O60 C57 1.252 . S
O61 In52 2.326 . S
O61 C57 1.260 . S
C62 O53 1.240 . S
C62 O54 1.252 . S
O63 In52 2.294 . S
O63 C56 1.240 . S
O64 In52 2.326 . S
O64 C56 1.252 . S
In65 O66 2.294 . S
In65 O67 2.326 . S
In65 O71 2.266 . S
In65 O72 2.326 . S
In65 O73 2.266 . S
In65 O74 2.326 . S
In65 O76 2.294 . S
In65 O77 2.326 . S
O66 In65 2.294 . S
O66 C75 1.240 . S
O67 In65 2.326 . S
O67 C75 1.252 . S
C68 O71 1.252 . S
C68 O72 1.260 . S
C69 O76 1.240 . S
C69 O77 1.252 . S
C70 O73 1.252 . S
C70 O74 1.260 . S
O71 In65 2.266 . S
O71 C68 1.252 . S
O72 In65 2.326 . S
O72 C68 1.260 . S
O73 In65 2.266 . S
O73 C70 1.252 . S
O74 In65 2.326 . S
O74 C70 1.260 . S
C75 O66 1.240 . S
C75 O67 1.252 . S
O76 In65 2.294 . S
O76 C69 1.240 . S
O77 In65 2.326 . S
O77 C69 1.252 . S
In78 O79 2.294 . S
In78 O80 2.326 . S
In78 O84 2.266 . S
In78 O85 2.326 . S
In78 O86 2.266 . S
In78 O87 2.326 . S
In78 O89 2.294 . S
In78 O90 2.326 . S
O79 In78 2.294 . S
O79 C88 1.240 . S
O80 In78 2.326 . S
O80 C88 1.252 . S
C81 O84 1.252 . S
C81 O85 1.260 . S
C82 O89 1.240 . S
C82 O90 1.252 . S
C83 O86 1.252 . S
C83 O87 1.260 . S
O84 In78 2.266 . S
O84 C81 1.252 . S
O85 In78 2.326 . S
O85 C81 1.260 . S
O86 In78 2.266 . S
O86 C83 1.252 . S
O87 In78 2.326 . S
O87 C83 1.260 . S
C88 O79 1.240 . S
C88 O80 1.252 . S
O89 In78 2.294 . S
O89 C82 1.240 . S
O90 In78 2.326 . S
O90 C82 1.252 . S
In91 O92 2.294 . S
In91 O93 2.326 . S
In91 O97 2.266 . S
In91 O98 2.326 . S
In91 O99 2.266 . S
In91 O100 2.326 . S
In91 O102 2.294 . S
In91 O103 2.326 . S
O92 In91 2.294 . S
O92 C101 1.240 . S
O93 In91 2.326 . S
O93 C101 1.252 . S
C94 O97 1.252 . S
C94 O98 1.260 . S
C95 O102 1.240 . S
C95 O103 1.252 . S
C96 O99 1.252 . S
C96 O100 1.260 . S
O97 In91 2.266 . S
O97 C94 1.252 . S
O98 In91 2.326 . S
O98 C94 1.260 . S
O99 In91 2.266 . S
O99 C96 1.252 . S
O100 In91 2.326 . S
O100 C96 1.260 . S
C101 O92 1.240 . S
C101 O93 1.252 . S
O102 In91 2.294 . S
O102 C95 1.240 . S
O103 In91 2.326 . S
O103 C95 1.252 . S
In104 O105 2.294 . S
In104 O106 2.326 . S
In104 O110 2.266 . S
In104 O111 2.326 . S
In104 O112 2.266 . S
In104 O113 2.326 . S
In104 O115 2.294 . S
In104 O116 2.326 . S
O105 In104 2.294 . S
O105 C114 1.240 . S
O106 In104 2.326 . S
O106 C114 1.252 . S
C107 O110 1.252 . S
C107 O111 1.260 . S
C108 O115 1.240 . S
C108 O116 1.252 . S
C109 O112 1.252 . S
C109 O113 1.260 . S
O110 In104 2.266 . S
O110 C107 1.252 . S
O111 In104 2.326 . S
O111 C107 1.260 . S
O112 In104 2.266 . S
O112 C109 1.252 . S
O113 In104 2.326 . S
O113 C109 1.260 . S
C114 O105 1.240 . S
C114 O106 1.252 . S
O115 In104 2.294 . S
O115 C108 1.240 . S
O116 In104 2.326 . S
O116 C108 1.252 . S
In117 O118 2.294 . S
In117 O119 2.326 . S
In117 O123 2.266 . S
In117 O124 2.326 . S
In117 O125 2.266 . S
In117 O126 2.326 . S
In117 O128 2.294 . S
In117 O129 2.326 . S
O118 In117 2.294 . S
O118 C127 1.240 . S
O119 In117 2.326 . S
O119 C127 1.252 . S
C120 O123 1.252 . S
C120 O124 1.260 . S
C121 O128 1.240 . S
C121 O129 1.252 . S
C122 O125 1.252 . S
C122 O126 1.260 . S
O123 In117 2.266 . S
O123 C120 1.252 . S
O124 In117 2.326 . S
O124 C120 1.260 . S
O125 In117 2.266 . S
O125 C122 1.252 . S
O126 In117 2.326 . S
O126 C122 1.260 . S
C127 O118 1.240 . S
C127 O119 1.252 . S
O128 In117 2.294 . S
O128 C121 1.240 . S
O129 In117 2.326 . S
O129 C121 1.252 . S
In130 O131 2.294 . S
In130 O132 2.326 . S
In130 O136 2.266 . S
In130 O137 2.326 . S
In130 O138 2.266 . S
In130 O139 2.326 . S
In130 O141 2.294 . S
In130 O142 2.326 . S
O131 In130 2.294 . S
O131 C140 1.240 . S
O132 In130 2.326 . S
O132 C140 1.252 . S
C133 O136 1.252 . S
C133 O137 1.260 . S
C134 O141 1.240 . S
C134 O142 1.252 . S
C135 O138 1.252 . S
C135 O139 1.260 . S
O136 In130 2.266 . S
O136 C133 1.252 . S
O137 In130 2.326 . S
O137 C133 1.260 . S
O138 In130 2.266 . S
O138 C135 1.252 . S
O139 In130 2.326 . S
O139 C135 1.260 . S
C140 O131 1.240 . S
C140 O132 1.252 . S
O141 In130 2.294 . S
O141 C134 1.240 . S
O142 In130 2.326 . S
O142 C134 1.252 . S
In143 O144 2.294 . S
In143 O145 2.326 . S
In143 O149 2.266 . S
In143 O150 2.326 . S
In143 O151 2.266 . S
In143 O152 2.326 . S
In143 O154 2.294 . S
In143 O155 2.326 . S
O144 In143 2.294 . S
O144 C153 1.240 . S
O145 In143 2.326 . S
O145 C153 1.252 . S
C146 O149 1.252 . S
C146 O150 1.260 . S
C147 O154 1.240 . S
C147 O155 1.252 . S
C148 O151 1.252 . S
C148 O152 1.260 . S
O149 In143 2.266 . S
O149 C146 1.252 . S
O150 In143 2.326 . S
O150 C146 1.260 . S
O151 In143 2.266 . S
O151 C148 1.252 . S
O152 In143 2.326 . S
O152 C148 1.260 . S
C153 O144 1.240 . S
C153 O145 1.252 . S
O154 In143 2.294 . S
O154 C147 1.240 . S
O155 In143 2.326 . S
O155 C147 1.252 . S
In156 O157 2.294 . S
In156 O158 2.326 . S
In156 O162 2.266 . S
In156 O163 2.326 . S
In156 O164 2.266 . S
In156 O165 2.326 . S
In156 O167 2.294 . S
In156 O168 2.326 . S
O157 In156 2.294 . S
O157 C166 1.240 . S
O158 In156 2.326 . S
O158 C166 1.252 . S
C159 O162 1.252 . S
C159 O163 1.260 . S
C160 O167 1.240 . S
C160 O168 1.252 . S
C161 O164 1.252 . S
C161 O165 1.260 . S
O162 In156 2.266 . S
O162 C159 1.252 . S
O163 In156 2.326 . S
O163 C159 1.260 . S
O164 In156 2.266 . S
O164 C161 1.252 . S
O165 In156 2.326 . S
O165 C161 1.260 . S
C166 O157 1.240 . S
C166 O158 1.252 . S
O167 In156 2.294 . S
O167 C160 1.240 . S
O168 In156 2.326 . S
O168 C160 1.252 . S
In169 O170 2.294 . S
In169 O171 2.326 . S
In169 O175 2.266 . S
In169 O176 2.326 . S
In169 O177 2.266 . S
In169 O178 2.326 . S
In169 O180 2.294 . S
In169 O181 2.326 . S
O170 In169 2.294 . S
O170 C179 1.240 . S
O171 In169 2.326 . S
O171 C179 1.252 . S
C172 O175 1.252 . S
C172 O176 1.260 . S
C173 O180 1.240 . S
C173 O181 1.252 . S
C174 O177 1.252 . S
C174 O178 1.260 . S
O175 In169 2.266 . S
O175 C172 1.252 . S
O176 In169 2.326 . S
O176 C172 1.260 . S
O177 In169 2.266 . S
O177 C174 1.252 . S
O178 In169 2.326 . S
O178 C174 1.260 . S
C179 O170 1.240 . S
C179 O171 1.252 . S
O180 In169 2.294 . S
O180 C173 1.240 . S
O181 In169 2.326 . S
O181 C173 1.252 . S
In182 O183 2.294 . S
In182 O184 2.326 . S
In182 O188 2.266 . S
In182 O189 2.326 . S
In182 O190 2.266 . S
In182 O191 2.326 . S
In182 O193 2.294 . S
In182 O194 2.326 . S
O183 In182 2.294 . S
O183 C192 1.240 . S
O184 In182 2.326 . S
O184 C192 1.252 . S
C185 O188 1.252 . S
C185 O189 1.260 . S
C186 O193 1.240 . S
C186 O194 1.252 . S
C187 O190 1.252 . S
C187 O191 1.260 . S
O188 In182 2.266 . S
O188 C185 1.252 . S
O189 In182 2.326 . S
O189 C185 1.260 . S
O190 In182 2.266 . S
O190 C187 1.252 . S
O191 In182 2.326 . S
O191 C187 1.260 . S
C192 O183 1.240 . S
C192 O184 1.252 . S
O193 In182 2.294 . S
O193 C186 1.240 . S
O194 In182 2.326 . S
O194 C186 1.252 . S
In195 O196 2.294 . S
In195 O197 2.326 . S
In195 O201 2.266 . S
In195 O202 2.326 . S
In195 O203 2.266 . S
In195 O204 2.326 . S
In195 O206 2.294 . S
In195 O207 2.326 . S
O196 In195 2.294 . S
O196 C205 1.240 . S
O197 In195 2.326 . S
O197 C205 1.252 . S
C198 O201 1.252 . S
C198 O202 1.260 . S
C199 O206 1.240 . S
C199 O207 1.252 . S
C200 O203 1.252 . S
C200 O204 1.260 . S
O201 In195 2.266 . S
O201 C198 1.252 . S
O202 In195 2.326 . S
O202 C198 1.260 . S
O203 In195 2.266 . S
O203 C200 1.252 . S
O204 In195 2.326 . S
O204 C200 1.260 . S
C205 O196 1.240 . S
C205 O197 1.252 . S
O206 In195 2.294 . S
O206 C199 1.240 . S
O207 In195 2.326 . S
O207 C199 1.252 . S
In208 O209 2.294 . S
In208 O210 2.326 . S
In208 O214 2.266 . S
In208 O215 2.326 . S
In208 O216 2.266 . S
In208 O217 2.326 . S
In208 O219 2.294 . S
In208 O220 2.326 . S
O209 In208 2.294 . S
O209 C218 1.240 . S
O210 In208 2.326 . S
O210 C218 1.252 . S
C211 O214 1.252 . S
C211 O215 1.260 . S
C212 O219 1.240 . S
C212 O220 1.252 . S
C213 O216 1.252 . S
C213 O217 1.260 . S
O214 In208 2.266 . S
O214 C211 1.252 . S
O215 In208 2.326 . S
O215 C211 1.260 . S
O216 In208 2.266 . S
O216 C213 1.252 . S
O217 In208 2.326 . S
O217 C213 1.260 . S
C218 O209 1.240 . S
C218 O210 1.252 . S
O219 In208 2.294 . S
O219 C212 1.240 . S
O220 In208 2.326 . S
O220 C212 1.252 . S
In221 O222 2.294 . S
In221 O223 2.326 . S
In221 O227 2.266 . S
In221 O228 2.326 . S
In221 O229 2.266 . S
In221 O230 2.326 . S
In221 O232 2.294 . S
In221 O233 2.326 . S
O222 In221 2.294 . S
O222 C231 1.240 . S
O223 In221 2.326 . S
O223 C231 1.252 . S
C224 O227 1.252 . S
C224 O228 1.260 . S
C225 O232 1.240 . S
C225 O233 1.252 . S
C226 O229 1.252 . S
C226 O230 1.260 . S
O227 In221 2.266 . S
O227 C224 1.252 . S
O228 In221 2.326 . S
O228 C224 1.260 . S
O229 In221 2.266 . S
O229 C226 1.252 . S
O230 In221 2.326 . S
O230 C226 1.260 . S
C231 O222 1.240 . S
C231 O223 1.252 . S
O232 In221 2.294 . S
O232 C225 1.240 . S
O233 In221 2.326 . S
O233 C225 1.252 . S
In234 O235 2.294 . S
In234 O236 2.326 . S
In234 O240 2.266 . S
In234 O241 2.326 . S
In234 O242 2.266 . S
In234 O243 2.326 . S
In234 O245 2.294 . S
In234 O246 2.326 . S
O235 In234 2.294 . S
O235 C244 1.240 . S
O236 In234 2.326 . S
O236 C244 1.252 . S
C237 O240 1.252 . S
C237 O241 1.260 . S
C238 O245 1.240 . S
C238 O246 1.252 . S
C239 O242 1.252 . S
C239 O243 1.260 . S
O240 In234 2.266 . S
O240 C237 1.252 . S
O241 In234 2.326 . S
O241 C237 1.260 . S
O242 In234 2.266 . S
O242 C239 1.252 . S
O243 In234 2.326 . S
O243 C239 1.260 . S
C244 O235 1.240 . S
C244 O236 1.252 . S
O245 In234 2.294 . S
O245 C238 1.240 . S
O246 In234 2.326 . S
O246 C238 1.252 . S
In247 O248 2.294 . S
In247 O249 2.326 . S
In247 O253 2.266 . S
In247 O254 2.326 . S
In247 O255 2.266 . S
In247 O256 2.326 . S
In247 O258 2.294 . S
In247 O259 2.326 . S
O248 In247 2.294 . S
O248 C257 1.240 . S
O249 In247 2.326 . S
O249 C257 1.252 . S
C250 O253 1.252 . S
C250 O254 1.260 . S
C251 O258 1.240 . S
C251 O259 1.252 . S
C252 O255 1.252 . S
C252 O256 1.260 . S
O253 In247 2.266 . S
O253 C250 1.252 . S
O254 In247 2.326 . S
O254 C250 1.260 . S
O255 In247 2.266 . S
O255 C252 1.252 . S
O256 In247 2.326 . S
O256 C252 1.260 . S
C257 O248 1.240 . S
C257 O249 1.252 . S
O258 In247 2.294 . S
O258 C251 1.240 . S
O259 In247 2.326 . S
O259 C251 1.252 . S
In260 O261 2.294 . S
In260 O262 2.326 . S
In260 O266 2.266 . S
In260 O267 2.326 . S
In260 O268 2.266 . S
In260 O269 2.326 . S
In260 O271 2.294 . S
In260 O272 2.326 . S
O261 In260 2.294 . S
O261 C270 1.240 . S
O262 In260 2.326 . S
O262 C270 1.252 . S
C263 O266 1.252 . S
C263 O267 1.260 . S
C264 O271 1.240 . S
C264 O272 1.252 . S
C265 O268 1.252 . S
C265 O269 1.260 . S
O266 In260 2.266 . S
O266 C263 1.252 . S
O267 In260 2.326 . S
O267 C263 1.260 . S
O268 In260 2.266 . S
O268 C265 1.252 . S
O269 In260 2.326 . S
O269 C265 1.260 . S
C270 O261 1.240 . S
C270 O262 1.252 . S
O271 In260 2.294 . S
O271 C264 1.240 . S
O272 In260 2.326 . S
O272 C264 1.252 . S
In273 O274 2.294 . S
In273 O275 2.326 . S
In273 O279 2.266 . S
In273 O280 2.326 . S
In273 O281 2.266 . S
In273 O282 2.326 . S
In273 O284 2.294 . S
In273 O285 2.326 . S
O274 In273 2.294 . S
O274 C283 1.240 . S
O275 In273 2.326 . S
O275 C283 1.252 . S
C276 O279 1.252 . S
C276 O280 1.260 . S
C277 O284 1.240 . S
C277 O285 1.252 . S
C278 O281 1.252 . S
C278 O282 1.260 . S
O279 In273 2.266 . S
O279 C276 1.252 . S
O280 In273 2.326 . S
O280 C276 1.260 . S
O281 In273 2.266 . S
O281 C278 1.252 . S
O282 In273 2.326 . S
O282 C278 1.260 . S
C283 O274 1.240 . S
C283 O275 1.252 . S
O284 In273 2.294 . S
O284 C277 1.240 . S
O285 In273 2.326 . S
O285 C277 1.252 . S
In286 O287 2.294 . S
In286 O288 2.326 . S
In286 O292 2.266 . S
In286 O293 2.326 . S
In286 O294 2.266 . S
In286 O295 2.326 . S
In286 O297 2.294 . S
In286 O298 2.326 . S
O287 In286 2.294 . S
O287 C296 1.240 . S
O288 In286 2.326 . S
O288 C296 1.252 . S
C289 O292 1.252 . S
C289 O293 1.260 . S
C290 O297 1.240 . S
C290 O298 1.252 . S
C291 O294 1.252 . S
C291 O295 1.260 . S
O292 In286 2.266 . S
O292 C289 1.252 . S
O293 In286 2.326 . S
O293 C289 1.260 . S
O294 In286 2.266 . S
O294 C291 1.252 . S
O295 In286 2.326 . S
O295 C291 1.260 . S
C296 O287 1.240 . S
C296 O288 1.252 . S
O297 In286 2.294 . S
O297 C290 1.240 . S
O298 In286 2.326 . S
O298 C290 1.252 . S
In299 O300 2.294 . S
In299 O301 2.326 . S
In299 O305 2.266 . S
In299 O306 2.326 . S
In299 O307 2.266 . S
In299 O308 2.326 . S
In299 O310 2.294 . S
In299 O311 2.326 . S
O300 In299 2.294 . S
O300 C309 1.240 . S
O301 In299 2.326 . S
O301 C309 1.252 . S
C302 O305 1.252 . S
C302 O306 1.260 . S
C303 O310 1.240 . S
C303 O311 1.252 . S
C304 O307 1.252 . S
C304 O308 1.260 . S
O305 In299 2.266 . S
O305 C302 1.252 . S
O306 In299 2.326 . S
O306 C302 1.260 . S
O307 In299 2.266 . S
O307 C304 1.252 . S
O308 In299 2.326 . S
O308 C304 1.260 . S
C309 O300 1.240 . S
C309 O301 1.252 . S
O310 In299 2.294 . S
O310 C303 1.240 . S
O311 In299 2.326 . S
O311 C303 1.252 . S
In312 O313 2.294 . S
In312 O314 2.326 . S
In312 O318 2.266 . S
In312 O319 2.326 . S
In312 O320 2.266 . S
In312 O321 2.326 . S
In312 O323 2.294 . S
In312 O324 2.326 . S
O313 In312 2.294 . S
O313 C322 1.240 . S
O314 In312 2.326 . S
O314 C322 1.252 . S
C315 O318 1.252 . S
C315 O319 1.260 . S
C316 O323 1.240 . S
C316 O324 1.252 . S
C317 O320 1.252 . S
C317 O321 1.260 . S
O318 In312 2.266 . S
O318 C315 1.252 . S
O319 In312 2.326 . S
O319 C315 1.260 . S
O320 In312 2.266 . S
O320 C317 1.252 . S
O321 In312 2.326 . S
O321 C317 1.260 . S
C322 O313 1.240 . S
C322 O314 1.252 . S
O323 In312 2.294 . S
O323 C316 1.240 . S
O324 In312 2.326 . S
O324 C316 1.252 . S
In325 O326 2.294 . S
In325 O327 2.326 . S
In325 O331 2.266 . S
In325 O332 2.326 . S
In325 O333 2.266 . S
In325 O334 2.326 . S
In325 O336 2.294 . S
In325 O337 2.326 . S
O326 In325 2.294 . S
O326 C335 1.240 . S
O327 In325 2.326 . S
O327 C335 1.252 . S
C328 O331 1.252 . S
C328 O332 1.260 . S
C329 O336 1.240 . S
C329 O337 1.252 . S
C330 O333 1.252 . S
C330 O334 1.260 . S
O331 In325 2.266 . S
O331 C328 1.252 . S
O332 In325 2.326 . S
O332 C328 1.260 . S
O333 In325 2.266 . S
O333 C330 1.252 . S
O334 In325 2.326 . S
O334 C330 1.260 . S
C335 O326 1.240 . S
C335 O327 1.252 . S
O336 In325 2.294 . S
O336 C329 1.240 . S
O337 In325 2.326 . S
O337 C329 1.252 . S
In338 O339 2.294 . S
In338 O340 2.326 . S
In338 O344 2.266 . S
In338 O345 2.326 . S
In338 O346 2.266 . S
In338 O347 2.326 . S
In338 O349 2.294 . S
In338 O350 2.326 . S
O339 In338 2.294 . S
O339 C348 1.240 . S
O340 In338 2.326 . S
O340 C348 1.252 . S
C341 O344 1.252 . S
C341 O345 1.260 . S
C342 O349 1.240 . S
C342 O350 1.252 . S
C343 O346 1.252 . S
C343 O347 1.260 . S
O344 In338 2.266 . S
O344 C341 1.252 . S
O345 In338 2.326 . S
O345 C341 1.260 . S
O346 In338 2.266 . S
O346 C343 1.252 . S
O347 In338 2.326 . S
O347 C343 1.260 . S
C348 O339 1.240 . S
C348 O340 1.252 . S
O349 In338 2.294 . S
O349 C342 1.240 . S
O350 In338 2.326 . S
O350 C342 1.252 . S
In351 O352 2.294 . S
In351 O353 2.326 . S
In351 O357 2.266 . S
In351 O358 2.326 . S
In351 O359 2.266 . S
In351 O360 2.326 . S
In351 O362 2.294 . S
In351 O363 2.326 . S
O352 In351 2.294 . S
O352 C361 1.240 . S
O353 In351 2.326 . S
O353 C361 1.252 . S
C354 O357 1.252 . S
C354 O358 1.260 . S
C355 O362 1.240 . S
C355 O363 1.252 . S
C356 O359 1.252 . S
C356 O360 1.260 . S
O357 In351 2.266 . S
O357 C354 1.252 . S
O358 In351 2.326 . S
O358 C354 1.260 . S
O359 In351 2.266 . S
O359 C356 1.252 . S
O360 In351 2.326 . S
O360 C356 1.260 . S
C361 O352 1.240 . S
C361 O353 1.252 . S
O362 In351 2.294 . S
O362 C355 1.240 . S
O363 In351 2.326 . S
O363 C355 1.252 . S
In364 O365 2.294 . S
In364 O366 2.326 . S
In364 O370 2.266 . S
In364 O371 2.326 . S
In364 O372 2.266 . S
In364 O373 2.326 . S
In364 O375 2.294 . S
In364 O376 2.326 . S
O365 In364 2.294 . S
O365 C374 1.240 . S
O366 In364 2.326 . S
O366 C374 1.252 . S
C367 O370 1.252 . S
C367 O371 1.260 . S
C368 O375 1.240 . S
C368 O376 1.252 . S
C369 O372 1.252 . S
C369 O373 1.260 . S
O370 In364 2.266 . S
O370 C367 1.252 . S
O371 In364 2.326 . S
O371 C367 1.260 . S
O372 In364 2.266 . S
O372 C369 1.252 . S
O373 In364 2.326 . S
O373 C369 1.260 . S
C374 O365 1.240 . S
C374 O366 1.252 . S
O375 In364 2.294 . S
O375 C368 1.240 . S
O376 In364 2.326 . S
O376 C368 1.252 . S
In377 O378 2.294 . S
In377 O379 2.326 . S
In377 O383 2.266 . S
In377 O384 2.326 . S
In377 O385 2.266 . S
In377 O386 2.326 . S
In377 O388 2.294 . S
In377 O389 2.326 . S
O378 In377 2.294 . S
O378 C387 1.240 . S
O379 In377 2.326 . S
O379 C387 1.252 . S
C380 O383 1.252 . S
C380 O384 1.260 . S
C381 O388 1.240 . S
C381 O389 1.252 . S
C382 O385 1.252 . S
C382 O386 1.260 . S
O383 In377 2.266 . S
O383 C380 1.252 . S
O384 In377 2.326 . S
O384 C380 1.260 . S
O385 In377 2.266 . S
O385 C382 1.252 . S
O386 In377 2.326 . S
O386 C382 1.260 . S
C387 O378 1.240 . S
C387 O379 1.252 . S
O388 In377 2.294 . S
O388 C381 1.240 . S
O389 In377 2.326 . S
O389 C381 1.252 . S
In390 O391 2.294 . S
In390 O392 2.326 . S
In390 O396 2.266 . S
In390 O397 2.326 . S
In390 O398 2.266 . S
In390 O399 2.326 . S
In390 O401 2.294 . S
In390 O402 2.326 . S
O391 In390 2.294 . S
O391 C400 1.240 . S
O392 In390 2.326 . S
O392 C400 1.252 . S
C393 O396 1.252 . S
C393 O397 1.260 . S
C394 O401 1.240 . S
C394 O402 1.252 . S
C395 O398 1.252 . S
C395 O399 1.260 . S
O396 In390 2.266 . S
O396 C393 1.252 . S
O397 In390 2.326 . S
O397 C393 1.260 . S
O398 In390 2.266 . S
O398 C395 1.252 . S
O399 In390 2.326 . S
O399 C395 1.260 . S
C400 O391 1.240 . S
C400 O392 1.252 . S
O401 In390 2.294 . S
O401 C394 1.240 . S
O402 In390 2.326 . S
O402 C394 1.252 . S
In403 O404 2.294 . S
In403 O405 2.326 . S
In403 O409 2.266 . S
In403 O410 2.326 . S
In403 O411 2.266 . S
In403 O412 2.326 . S
In403 O414 2.294 . S
In403 O415 2.326 . S
O404 In403 2.294 . S
O404 C413 1.240 . S
O405 In403 2.326 . S
O405 C413 1.252 . S
C406 O409 1.252 . S
C406 O410 1.260 . S
C407 O414 1.240 . S
C407 O415 1.252 . S
C408 O411 1.252 . S
C408 O412 1.260 . S
O409 In403 2.266 . S
O409 C406 1.252 . S
O410 In403 2.326 . S
O410 C406 1.260 . S
O411 In403 2.266 . S
O411 C408 1.252 . S
O412 In403 2.326 . S
O412 C408 1.260 . S
C413 O404 1.240 . S
C413 O405 1.252 . S
O414 In403 2.294 . S
O414 C407 1.240 . S
O415 In403 2.326 . S
O415 C407 1.252 . S
C416 C417 1.349 . S
C416 C418 1.327 . S
C416 H441 0.950 . S
C417 C416 1.349 . S
C417 C433 1.349 . S
C418 C416 1.327 . S
C418 C437 1.429 . S
C418 H442 0.950 . S
C419 C436 1.574 . S
C419 C438 1.368 . S
C419 H443 0.949 . S
H420 C424 0.949 . S
C421 C422 1.349 . S
C421 C423 1.327 . S
C421 H444 0.950 . S
C422 C421 1.349 . S
C422 C434 1.349 . S
C423 C421 1.327 . S
C423 C439 1.429 . S
C423 H445 0.950 . S
C424 H420 0.949 . S
C424 C432 1.574 . S
C424 C440 1.368 . S
H425 C433 0.950 . S
H426 C431 0.950 . S
H427 C432 0.949 . S
H428 C434 0.950 . S
H429 C435 0.950 . S
H430 C436 0.949 . S
C431 H426 0.950 . S
C431 C433 1.327 . S
C431 C437 1.429 . S
C432 C424 1.574 . S
C432 H427 0.949 . S
C432 C438 1.368 . S
C433 C417 1.349 . S
C433 H425 0.950 . S
C433 C431 1.327 . S
C434 C422 1.349 . S
C434 H428 0.950 . S
C434 C435 1.327 . S
C435 H429 0.950 . S
C435 C434 1.327 . S
C435 C439 1.429 . S
C436 C419 1.574 . S
C436 H430 0.949 . S
C436 C440 1.368 . S
C437 C418 1.429 . S
C437 C431 1.429 . S
C437 C438 1.523 . S
C438 C419 1.368 . S
C438 C432 1.368 . S
C438 C437 1.523 . S
C439 C423 1.429 . S
C439 C435 1.429 . S
C439 C440 1.523 . S
C440 C424 1.368 . S
C440 C436 1.368 . S
C440 C439 1.523 . S
H441 C416 0.950 . S
H442 C418 0.950 . S
H443 C419 0.949 . S
H444 C421 0.950 . S
H445 C423 0.950 . S
C446 C447 1.349 . S
C446 C448 1.327 . S
C446 H471 0.950 . S
C447 C446 1.349 . S
C447 C463 1.349 . S
C448 C446 1.327 . S
C448 C467 1.429 . S
C448 H472 0.950 . S
C449 C466 1.574 . S
C449 C468 1.368 . S
C449 H473 0.949 . S
H450 C454 0.949 . S
C451 C452 1.349 . S
C451 C453 1.327 . S
C451 H474 0.950 . S
C452 C451 1.349 . S
C452 C464 1.349 . S
C453 C451 1.327 . S
C453 C469 1.429 . S
C453 H475 0.950 . S
C454 H450 0.949 . S
C454 C462 1.574 . S
C454 C470 1.368 . S
H455 C463 0.950 . S
H456 C461 0.950 . S
H457 C462 0.949 . S
H458 C464 0.950 . S
H459 C465 0.950 . S
H460 C466 0.949 . S
C461 H456 0.950 . S
C461 C463 1.327 . S
C461 C467 1.429 . S
C462 C454 1.574 . S
C462 H457 0.949 . S
C462 C468 1.368 . S
C463 C447 1.349 . S
C463 H455 0.950 . S
C463 C461 1.327 . S
C464 C452 1.349 . S
C464 H458 0.950 . S
C464 C465 1.327 . S
C465 H459 0.950 . S
C465 C464 1.327 . S
C465 C469 1.429 . S
C466 C449 1.574 . S
C466 H460 0.949 . S
C466 C470 1.368 . S
C467 C448 1.429 . S
C467 C461 1.429 . S
C467 C468 1.523 . S
C468 C449 1.368 . S
C468 C462 1.368 . S
C468 C467 1.523 . S
C469 C453 1.429 . S
C469 C465 1.429 . S
C469 C470 1.523 . S
C470 C454 1.368 . S
C470 C466 1.368 . S
C470 C469 1.523 . S
H471 C446 0.950 . S
H472 C448 0.950 . S
H473 C449 0.949 . S
H474 C451 0.950 . S
H475 C453 0.950 . S
C476 C477 1.349 . S
C476 C478 1.327 . S
C476 H501 0.950 . S
C477 C476 1.349 . S
C477 C493 1.349 . S
C478 C476 1.327 . S
C478 C497 1.429 . S
C478 H502 0.950 . S
C479 C496 1.574 . S
C479 C498 1.368 . S
C479 H503 0.949 . S
H480 C484 0.949 . S
C481 C482 1.349 . S
C481 C483 1.327 . S
C481 H504 0.950 . S
C482 C481 1.349 . S
C482 C494 1.349 . S
C483 C481 1.327 . S
C483 C499 1.429 . S
C483 H505 0.950 . S
C484 H480 0.949 . S
C484 C492 1.574 . S
C484 C500 1.368 . S
H485 C493 0.950 . S
H486 C491 0.950 . S
H487 C492 0.949 . S
H488 C494 0.950 . S
H489 C495 0.950 . S
H490 C496 0.949 . S
C491 H486 0.950 . S
C491 C493 1.327 . S
C491 C497 1.429 . S
C492 C484 1.574 . S
C492 H487 0.949 . S
C492 C498 1.368 . S
C493 C477 1.349 . S
C493 H485 0.950 . S
C493 C491 1.327 . S
C494 C482 1.349 . S
C494 H488 0.950 . S
C494 C495 1.327 . S
C495 H489 0.950 . S
C495 C494 1.327 . S
C495 C499 1.429 . S
C496 C479 1.574 . S
C496 H490 0.949 . S
C496 C500 1.368 . S
C497 C478 1.429 . S
C497 C491 1.429 . S
C497 C498 1.523 . S
C498 C479 1.368 . S
C498 C492 1.368 . S
C498 C497 1.523 . S
C499 C483 1.429 . S
C499 C495 1.429 . S
C499 C500 1.523 . S
C500 C484 1.368 . S
C500 C496 1.368 . S
C500 C499 1.523 . S
H501 C476 0.950 . S
H502 C478 0.950 . S
H503 C479 0.949 . S
H504 C481 0.950 . S
H505 C483 0.950 . S
C506 C507 1.349 . S
C506 C508 1.327 . S
C506 H531 0.950 . S
C507 C506 1.349 . S
C507 C523 1.349 . S
C508 C506 1.327 . S
C508 C527 1.429 . S
C508 H532 0.950 . S
C509 C526 1.574 . S
C509 C528 1.368 . S
C509 H533 0.949 . S
H510 C514 0.949 . S
C511 C512 1.349 . S
C511 C513 1.327 . S
C511 H534 0.950 . S
C512 C511 1.349 . S
C512 C524 1.349 . S
C513 C511 1.327 . S
C513 C529 1.429 . S
C513 H535 0.950 . S
C514 H510 0.949 . S
C514 C522 1.574 . S
C514 C530 1.368 . S
H515 C523 0.950 . S
H516 C521 0.950 . S
H517 C522 0.949 . S
H518 C524 0.950 . S
H519 C525 0.950 . S
H520 C526 0.949 . S
C521 H516 0.950 . S
C521 C523 1.327 . S
C521 C527 1.429 . S
C522 C514 1.574 . S
C522 H517 0.949 . S
C522 C528 1.368 . S
C523 C507 1.349 . S
C523 H515 0.950 . S
C523 C521 1.327 . S
C524 C512 1.349 . S
C524 H518 0.950 . S
C524 C525 1.327 . S
C525 H519 0.950 . S
C525 C524 1.327 . S
C525 C529 1.429 . S
C526 C509 1.574 . S
C526 H520 0.949 . S
C526 C530 1.368 . S
C527 C508 1.429 . S
C527 C521 1.429 . S
C527 C528 1.523 . S
C528 C509 1.368 . S
C528 C522 1.368 . S
C528 C527 1.523 . S
C529 C513 1.429 . S
C529 C525 1.429 . S
C529 C530 1.523 . S
C530 C514 1.368 . S
C530 C526 1.368 . S
C530 C529 1.523 . S
H531 C506 0.950 . S
H532 C508 0.950 . S
H533 C509 0.949 . S
H534 C511 0.950 . S
H535 C513 0.950 . S
C536 C537 1.349 . S
C536 C538 1.327 1_565 S
C536 H561 0.950 . S
C537 C536 1.349 . S
C537 C553 1.349 . S
C538 C536 1.327 1_545 S
C538 C557 1.429 . S
C538 H562 0.950 . S
C539 C556 1.574 . S
C539 C558 1.368 . S
C539 H563 0.949 . S
H540 C544 0.949 . S
C541 C542 1.349 . S
C541 C543 1.327 . S
C541 H564 0.950 . S
C542 C541 1.349 . S
C542 C554 1.349 . S
C543 C541 1.327 . S
C543 C559 1.429 . S
C543 H565 0.950 . S
C544 H540 0.949 . S
C544 C552 1.574 . S
C544 C560 1.368 . S
H545 C553 0.950 . S
H546 C551 0.950 . S
H547 C552 0.949 . S
H548 C554 0.950 . S
H549 C555 0.950 . S
H550 C556 0.949 . S
C551 H546 0.950 . S
C551 C553 1.327 1_545 S
C551 C557 1.429 . S
C552 C544 1.574 . S
C552 H547 0.949 . S
C552 C558 1.368 . S
C553 C537 1.349 . S
C553 H545 0.950 . S
C553 C551 1.327 1_565 S
C554 C542 1.349 . S
C554 H548 0.950 . S
C554 C555 1.327 . S
C555 H549 0.950 . S
C555 C554 1.327 . S
C555 C559 1.429 . S
C556 C539 1.574 . S
C556 H550 0.949 . S
C556 C560 1.368 . S
C557 C538 1.429 . S
C557 C551 1.429 . S
C557 C558 1.523 . S
C558 C539 1.368 . S
C558 C552 1.368 . S
C558 C557 1.523 . S
C559 C543 1.429 . S
C559 C555 1.429 . S
C559 C560 1.523 . S
C560 C544 1.368 . S
C560 C556 1.368 . S
C560 C559 1.523 . S
H561 C536 0.950 . S
H562 C538 0.950 . S
H563 C539 0.949 . S
H564 C541 0.950 . S
H565 C543 0.950 . S
C566 C567 1.349 . S
C566 C568 1.327 1_565 S
C566 H591 0.950 . S
C567 C566 1.349 . S
C567 C583 1.349 . S
C568 C566 1.327 1_545 S
C568 C587 1.429 . S
C568 H592 0.950 . S
C569 C586 1.574 . S
C569 C588 1.368 . S
C569 H593 0.949 . S
H570 C574 0.949 . S
C571 C572 1.349 . S
C571 C573 1.327 . S
C571 H594 0.950 . S
C572 C571 1.349 . S
C572 C584 1.349 . S
C573 C571 1.327 . S
C573 C589 1.429 . S
C573 H595 0.950 . S
C574 H570 0.949 . S
C574 C582 1.574 . S
C574 C590 1.368 . S
H575 C583 0.950 . S
H576 C581 0.950 . S
H577 C582 0.949 . S
H578 C584 0.950 . S
H579 C585 0.950 . S
H580 C586 0.949 . S
C581 H576 0.950 . S
C581 C583 1.327 1_545 S
C581 C587 1.429 . S
C582 C574 1.574 . S
C582 H577 0.949 . S
C582 C588 1.368 . S
C583 C567 1.349 . S
C583 H575 0.950 . S
C583 C581 1.327 1_565 S
C584 C572 1.349 . S
C584 H578 0.950 . S
C584 C585 1.327 . S
C585 H579 0.950 . S
C585 C584 1.327 . S
C585 C589 1.429 . S
C586 C569 1.574 . S
C586 H580 0.949 . S
C586 C590 1.368 . S
C587 C568 1.429 . S
C587 C581 1.429 . S
C587 C588 1.523 . S
C588 C569 1.368 . S
C588 C582 1.368 . S
C588 C587 1.523 . S
C589 C573 1.429 . S
C589 C585 1.429 . S
C589 C590 1.523 . S
C590 C574 1.368 . S
C590 C586 1.368 . S
C590 C589 1.523 . S
H591 C566 0.950 . S
H592 C568 0.950 . S
H593 C569 0.949 . S
H594 C571 0.950 . S
H595 C573 0.950 . S
C596 C597 1.349 . S
C596 C598 1.327 1_545 S
C596 H621 0.950 . S
C597 C596 1.349 . S
C597 C613 1.349 . S
C598 C596 1.327 1_565 S
C598 C617 1.429 . S
C598 H622 0.950 . S
C599 C616 1.574 . S
C599 C618 1.368 . S
C599 H623 0.949 . S
H600 C604 0.949 . S
C601 C602 1.349 . S
C601 C603 1.327 . S
C601 H624 0.950 . S
C602 C601 1.349 . S
C602 C614 1.349 . S
C603 C601 1.327 . S
C603 C619 1.429 . S
C603 H625 0.950 . S
C604 H600 0.949 . S
C604 C612 1.574 . S
C604 C620 1.368 . S
H605 C613 0.950 . S
H606 C611 0.950 . S
H607 C612 0.949 . S
H608 C614 0.950 . S
H609 C615 0.950 . S
H610 C616 0.949 . S
C611 H606 0.950 . S
C611 C613 1.327 1_565 S
C611 C617 1.429 . S
C612 C604 1.574 . S
C612 H607 0.949 . S
C612 C618 1.368 . S
C613 C597 1.349 . S
C613 H605 0.950 . S
C613 C611 1.327 1_545 S
C614 C602 1.349 . S
C614 H608 0.950 . S
C614 C615 1.327 . S
C615 H609 0.950 . S
C615 C614 1.327 . S
C615 C619 1.429 . S
C616 C599 1.574 . S
C616 H610 0.949 . S
C616 C620 1.368 . S
C617 C598 1.429 . S
C617 C611 1.429 . S
C617 C618 1.523 . S
C618 C599 1.368 . S
C618 C612 1.368 . S
C618 C617 1.523 . S
C619 C603 1.429 . S
C619 C615 1.429 . S
C619 C620 1.523 . S
C620 C604 1.368 . S
C620 C616 1.368 . S
C620 C619 1.523 . S
H621 C596 0.950 . S
H622 C598 0.950 . S
H623 C599 0.949 . S
H624 C601 0.950 . S
H625 C603 0.950 . S
C626 C627 1.349 . S
C626 C628 1.327 . S
C626 H651 0.950 . S
C627 C626 1.349 . S
C627 C643 1.349 . S
C628 C626 1.327 . S
C628 C647 1.429 . S
C628 H652 0.950 . S
C629 C646 1.574 . S
C629 C648 1.368 . S
C629 H653 0.949 . S
H630 C634 0.949 . S
C631 C632 1.349 . S
C631 C633 1.327 1_545 S
C631 H654 0.950 . S
C632 C631 1.349 . S
C632 C644 1.349 . S
C633 C631 1.327 1_565 S
C633 C649 1.429 . S
C633 H655 0.950 . S
C634 H630 0.949 . S
C634 C642 1.574 . S
C634 C650 1.368 . S
H635 C643 0.950 . S
H636 C641 0.950 . S
H637 C642 0.949 . S
H638 C644 0.950 . S
H639 C645 0.950 . S
H640 C646 0.949 . S
C641 H636 0.950 . S
C641 C643 1.327 . S
C641 C647 1.429 . S
C642 C634 1.574 . S
C642 H637 0.949 . S
C642 C648 1.368 . S
C643 C627 1.349 . S
C643 H635 0.950 . S
C643 C641 1.327 . S
C644 C632 1.349 . S
C644 H638 0.950 . S
C644 C645 1.327 1_545 S
C645 H639 0.950 . S
C645 C644 1.327 1_565 S
C645 C649 1.429 . S
C646 C629 1.574 . S
C646 H640 0.949 . S
C646 C650 1.368 . S
C647 C628 1.429 . S
C647 C641 1.429 . S
C647 C648 1.523 . S
C648 C629 1.368 . S
C648 C642 1.368 . S
C648 C647 1.523 . S
C649 C633 1.429 . S
C649 C645 1.429 . S
C649 C650 1.523 . S
C650 C634 1.368 . S
C650 C646 1.368 . S
C650 C649 1.523 . S
H651 C626 0.950 . S
H652 C628 0.950 . S
H653 C629 0.949 . S
H654 C631 0.950 . S
H655 C633 0.950 . S
C656 C657 1.349 . S
C656 C658 1.327 . S
C656 H681 0.950 . S
C657 C656 1.349 . S
C657 C673 1.349 . S
C658 C656 1.327 . S
C658 C677 1.429 . S
C658 H682 0.950 . S
C659 C676 1.574 . S
C659 C678 1.368 . S
C659 H683 0.949 . S
H660 C664 0.949 . S
C661 C662 1.349 . S
C661 C663 1.327 . S
C661 H684 0.950 . S
C662 C661 1.349 . S
C662 C674 1.349 . S
C663 C661 1.327 . S
C663 C679 1.429 . S
C663 H685 0.950 . S
C664 H660 0.949 . S
C664 C672 1.574 . S
C664 C680 1.368 . S
H665 C673 0.950 . S
H666 C671 0.950 . S
H667 C672 0.949 . S
H668 C674 0.950 . S
H669 C675 0.950 . S
H670 C676 0.949 . S
C671 H666 0.950 . S
C671 C673 1.327 . S
C671 C677 1.429 . S
C672 C664 1.574 . S
C672 H667 0.949 . S
C672 C678 1.368 . S
C673 C657 1.349 . S
C673 H665 0.950 . S
C673 C671 1.327 . S
C674 C662 1.349 . S
C674 H668 0.950 . S
C674 C675 1.327 . S
C675 H669 0.950 . S
C675 C674 1.327 . S
C675 C679 1.429 . S
C676 C659 1.574 . S
C676 H670 0.949 . S
C676 C680 1.368 . S
C677 C658 1.429 . S
C677 C671 1.429 . S
C677 C678 1.523 . S
C678 C659 1.368 . S
C678 C672 1.368 . S
C678 C677 1.523 . S
C679 C663 1.429 . S
C679 C675 1.429 . S
C679 C680 1.523 . S
C680 C664 1.368 . S
C680 C676 1.368 . S
C680 C679 1.523 . S
H681 C656 0.950 . S
H682 C658 0.950 . S
H683 C659 0.949 . S
H684 C661 0.950 . S
H685 C663 0.950 . S
C686 C687 1.349 . S
C686 C688 1.327 . S
C686 H711 0.950 . S
C687 C686 1.349 . S
C687 C703 1.349 . S
C688 C686 1.327 . S
C688 C707 1.429 . S
C688 H712 0.950 . S
C689 C706 1.574 . S
C689 C708 1.368 . S
C689 H713 0.949 . S
H690 C694 0.949 . S
C691 C692 1.349 . S
C691 C693 1.327 . S
C691 H714 0.950 . S
C692 C691 1.349 . S
C692 C704 1.349 . S
C693 C691 1.327 . S
C693 C709 1.429 . S
C693 H715 0.950 . S
C694 H690 0.949 . S
C694 C702 1.574 . S
C694 C710 1.368 . S
H695 C703 0.950 . S
H696 C701 0.950 . S
H697 C702 0.949 . S
H698 C704 0.950 . S
H699 C705 0.950 . S
H700 C706 0.949 . S
C701 H696 0.950 . S
C701 C703 1.327 . S
C701 C707 1.429 . S
C702 C694 1.574 . S
C702 H697 0.949 . S
C702 C708 1.368 . S
C703 C687 1.349 . S
C703 H695 0.950 . S
C703 C701 1.327 . S
C704 C692 1.349 . S
C704 H698 0.950 . S
C704 C705 1.327 . S
C705 H699 0.950 . S
C705 C704 1.327 . S
C705 C709 1.429 . S
C706 C689 1.574 . S
C706 H700 0.949 . S
C706 C710 1.368 . S
C707 C688 1.429 . S
C707 C701 1.429 . S
C707 C708 1.523 . S
C708 C689 1.368 . S
C708 C702 1.368 . S
C708 C707 1.523 . S
C709 C693 1.429 . S
C709 C705 1.429 . S
C709 C710 1.523 . S
C710 C694 1.368 . S
C710 C706 1.368 . S
C710 C709 1.523 . S
H711 C686 0.950 . S
H712 C688 0.950 . S
H713 C689 0.949 . S
H714 C691 0.950 . S
H715 C693 0.950 . S
C716 C717 1.349 . S
C716 C718 1.327 . S
C716 H741 0.950 . S
C717 C716 1.349 . S
C717 C733 1.349 . S
C718 C716 1.327 . S
C718 C737 1.429 . S
C718 H742 0.950 . S
C719 C736 1.574 . S
C719 C738 1.368 . S
C719 H743 0.949 . S
H720 C724 0.949 . S
C721 C722 1.349 . S
C721 C723 1.327 . S
C721 H744 0.950 . S
C722 C721 1.349 . S
C722 C734 1.349 . S
C723 C721 1.327 . S
C723 C739 1.429 . S
C723 H745 0.950 . S
C724 H720 0.949 . S
C724 C732 1.574 . S
C724 C740 1.368 . S
H725 C733 0.950 . S
H726 C731 0.950 . S
H727 C732 0.949 . S
H728 C734 0.950 . S
H729 C735 0.950 . S
H730 C736 0.949 . S
C731 H726 0.950 . S
C731 C733 1.327 . S
C731 C737 1.429 . S
C732 C724 1.574 . S
C732 H727 0.949 . S
C732 C738 1.368 . S
C733 C717 1.349 . S
C733 H725 0.950 . S
C733 C731 1.327 . S
C734 C722 1.349 . S
C734 H728 0.950 . S
C734 C735 1.327 . S
C735 H729 0.950 . S
C735 C734 1.327 . S
C735 C739 1.429 . S
C736 C719 1.574 . S
C736 H730 0.949 . S
C736 C740 1.368 . S
C737 C718 1.429 . S
C737 C731 1.429 . S
C737 C738 1.523 . S
C738 C719 1.368 . S
C738 C732 1.368 . S
C738 C737 1.523 . S
C739 C723 1.429 . S
C739 C735 1.429 . S
C739 C740 1.523 . S
C740 C724 1.368 . S
C740 C736 1.368 . S
C740 C739 1.523 . S
H741 C716 0.950 . S
H742 C718 0.950 . S
H743 C719 0.949 . S
H744 C721 0.950 . S
H745 C723 0.950 . S
C746 C747 1.349 . S
C746 C748 1.327 . S
C746 H771 0.950 . S
C747 C746 1.349 . S
C747 C763 1.349 . S
C748 C746 1.327 . S
C748 C767 1.429 . S
C748 H772 0.950 . S
C749 C766 1.574 . S
C749 C768 1.368 . S
C749 H773 0.949 . S
H750 C754 0.949 . S
C751 C752 1.349 . S
C751 C753 1.327 . S
C751 H774 0.950 . S
C752 C751 1.349 . S
C752 C764 1.349 . S
C753 C751 1.327 . S
C753 C769 1.429 . S
C753 H775 0.950 . S
C754 H750 0.949 . S
C754 C762 1.574 . S
C754 C770 1.368 . S
H755 C763 0.950 . S
H756 C761 0.950 . S
H757 C762 0.949 . S
H758 C764 0.950 . S
H759 C765 0.950 . S
H760 C766 0.949 . S
C761 H756 0.950 . S
C761 C763 1.327 . S
C761 C767 1.429 . S
C762 C754 1.574 . S
C762 H757 0.949 . S
C762 C768 1.368 . S
C763 C747 1.349 . S
C763 H755 0.950 . S
C763 C761 1.327 . S
C764 C752 1.349 . S
C764 H758 0.950 . S
C764 C765 1.327 . S
C765 H759 0.950 . S
C765 C764 1.327 . S
C765 C769 1.429 . S
C766 C749 1.574 . S
C766 H760 0.949 . S
C766 C770 1.368 . S
C767 C748 1.429 . S
C767 C761 1.429 . S
C767 C768 1.523 . S
C768 C749 1.368 . S
C768 C762 1.368 . S
C768 C767 1.523 . S
C769 C753 1.429 . S
C769 C765 1.429 . S
C769 C770 1.523 . S
C770 C754 1.368 . S
C770 C766 1.368 . S
C770 C769 1.523 . S
H771 C746 0.950 . S
H772 C748 0.950 . S
H773 C749 0.949 . S
H774 C751 0.950 . S
H775 C753 0.950 . S
C776 C777 1.349 . S
C776 C778 1.327 . S
C776 H801 0.950 . S
C777 C776 1.349 . S
C777 C793 1.349 . S
C778 C776 1.327 . S
C778 C797 1.429 . S
C778 H802 0.950 . S
C779 C796 1.574 . S
C779 C798 1.368 . S
C779 H803 0.949 . S
H780 C784 0.949 . S
C781 C782 1.349 . S
C781 C783 1.327 1_565 S
C781 H804 0.950 . S
C782 C781 1.349 . S
C782 C794 1.349 . S
C783 C781 1.327 1_545 S
C783 C799 1.429 . S
C783 H805 0.950 . S
C784 H780 0.949 . S
C784 C792 1.574 . S
C784 C800 1.368 . S
H785 C793 0.950 . S
H786 C791 0.950 . S
H787 C792 0.949 . S
H788 C794 0.950 . S
H789 C795 0.950 . S
H790 C796 0.949 . S
C791 H786 0.950 . S
C791 C793 1.327 . S
C791 C797 1.429 . S
C792 C784 1.574 . S
C792 H787 0.949 . S
C792 C798 1.368 . S
C793 C777 1.349 . S
C793 H785 0.950 . S
C793 C791 1.327 . S
C794 C782 1.349 . S
C794 H788 0.950 . S
C794 C795 1.327 1_565 S
C795 H789 0.950 . S
C795 C794 1.327 1_545 S
C795 C799 1.429 . S
C796 C779 1.574 . S
C796 H790 0.949 . S
C796 C800 1.368 . S
C797 C778 1.429 . S
C797 C791 1.429 . S
C797 C798 1.523 . S
C798 C779 1.368 . S
C798 C792 1.368 . S
C798 C797 1.523 . S
C799 C783 1.429 . S
C799 C795 1.429 . S
C799 C800 1.523 . S
C800 C784 1.368 . S
C800 C796 1.368 . S
C800 C799 1.523 . S
H801 C776 0.950 . S
H802 C778 0.950 . S
H803 C779 0.949 . S
H804 C781 0.950 . S
H805 C783 0.950 . S
C806 C807 1.349 . S
C806 C808 1.327 1_565 S
C806 H831 0.950 . S
C807 C806 1.349 . S
C807 C823 1.349 . S
C808 C806 1.327 1_545 S
C808 C827 1.429 . S
C808 H832 0.950 . S
C809 C826 1.574 . S
C809 C828 1.368 . S
C809 H833 0.949 . S
H810 C814 0.949 . S
C811 C812 1.349 . S
C811 C813 1.327 . S
C811 H834 0.950 . S
C812 C811 1.349 . S
C812 C824 1.349 . S
C813 C811 1.327 . S
C813 C829 1.429 . S
C813 H835 0.950 . S
C814 H810 0.949 . S
C814 C822 1.574 . S
C814 C830 1.368 . S
H815 C823 0.950 . S
H816 C821 0.950 . S
H817 C822 0.949 . S
H818 C824 0.950 . S
H819 C825 0.950 . S
H820 C826 0.949 . S
C821 H816 0.950 . S
C821 C823 1.327 1_545 S
C821 C827 1.429 . S
C822 C814 1.574 . S
C822 H817 0.949 . S
C822 C828 1.368 . S
C823 C807 1.349 . S
C823 H815 0.950 . S
C823 C821 1.327 1_565 S
C824 C812 1.349 . S
C824 H818 0.950 . S
C824 C825 1.327 . S
C825 H819 0.950 . S
C825 C824 1.327 . S
C825 C829 1.429 . S
C826 C809 1.574 . S
C826 H820 0.949 . S
C826 C830 1.368 . S
C827 C808 1.429 . S
C827 C821 1.429 . S
C827 C828 1.523 . S
C828 C809 1.368 . S
C828 C822 1.368 . S
C828 C827 1.523 . S
C829 C813 1.429 . S
C829 C825 1.429 . S
C829 C830 1.523 . S
C830 C814 1.368 . S
C830 C826 1.368 . S
C830 C829 1.523 . S
H831 C806 0.950 . S
H832 C808 0.950 . S
H833 C809 0.949 . S
H834 C811 0.950 . S
H835 C813 0.950 . S
C836 C837 1.349 . S
C836 C838 1.327 . S
C836 H861 0.950 . S
C837 C836 1.349 . S
C837 C853 1.349 . S
C838 C836 1.327 . S
C838 C857 1.429 . S
C838 H862 0.950 . S
C839 C856 1.574 . S
C839 C858 1.368 . S
C839 H863 0.949 . S
H840 C844 0.949 . S
C841 C842 1.349 . S
C841 C843 1.327 1_545 S
C841 H864 0.950 . S
C842 C841 1.349 . S
C842 C854 1.349 . S
C843 C841 1.327 1_565 S
C843 C859 1.429 . S
C843 H865 0.950 . S
C844 H840 0.949 . S
C844 C852 1.574 . S
C844 C860 1.368 . S
H845 C853 0.950 . S
H846 C851 0.950 . S
H847 C852 0.949 . S
H848 C854 0.950 . S
H849 C855 0.950 . S
H850 C856 0.949 . S
C851 H846 0.950 . S
C851 C853 1.327 . S
C851 C857 1.429 . S
C852 C844 1.574 . S
C852 H847 0.949 . S
C852 C858 1.368 . S
C853 C837 1.349 . S
C853 H845 0.950 . S
C853 C851 1.327 . S
C854 C842 1.349 . S
C854 H848 0.950 . S
C854 C855 1.327 1_545 S
C855 H849 0.950 . S
C855 C854 1.327 1_565 S
C855 C859 1.429 . S
C856 C839 1.574 . S
C856 H850 0.949 . S
C856 C860 1.368 . S
C857 C838 1.429 . S
C857 C851 1.429 . S
C857 C858 1.523 . S
C858 C839 1.368 . S
C858 C852 1.368 . S
C858 C857 1.523 . S
C859 C843 1.429 . S
C859 C855 1.429 . S
C859 C860 1.523 . S
C860 C844 1.368 . S
C860 C856 1.368 . S
C860 C859 1.523 . S
H861 C836 0.950 . S
H862 C838 0.950 . S
H863 C839 0.949 . S
H864 C841 0.950 . S
H865 C843 0.950 . S
C866 C867 1.349 . S
C866 C868 1.327 . S
C866 H891 0.950 . S
C867 C866 1.349 . S
C867 C883 1.349 . S
C868 C866 1.327 . S
C868 C887 1.429 . S
C868 H892 0.950 . S
C869 C886 1.574 . S
C869 C888 1.368 . S
C869 H893 0.949 . S
H870 C874 0.949 . S
C871 C872 1.349 . S
C871 C873 1.327 1_545 S
C871 H894 0.950 . S
C872 C871 1.349 . S
C872 C884 1.349 . S
C873 C871 1.327 1_565 S
C873 C889 1.429 . S
C873 H895 0.950 . S
C874 H870 0.949 . S
C874 C882 1.574 . S
C874 C890 1.368 . S
H875 C883 0.950 . S
H876 C881 0.950 . S
H877 C882 0.949 . S
H878 C884 0.950 . S
H879 C885 0.950 . S
H880 C886 0.949 . S
C881 H876 0.950 . S
C881 C883 1.327 . S
C881 C887 1.429 . S
C882 C874 1.574 . S
C882 H877 0.949 . S
C882 C888 1.368 . S
C883 C867 1.349 . S
C883 H875 0.950 . S
C883 C881 1.327 . S
C884 C872 1.349 . S
C884 H878 0.950 . S
C884 C885 1.327 1_545 S
C885 H879 0.950 . S
C885 C884 1.327 1_565 S
C885 C889 1.429 . S
C886 C869 1.574 . S
C886 H880 0.949 . S
C886 C890 1.368 . S
C887 C868 1.429 . S
C887 C881 1.429 . S
C887 C888 1.523 . S
C888 C869 1.368 . S
C888 C882 1.368 . S
C888 C887 1.523 . S
C889 C873 1.429 . S
C889 C885 1.429 . S
C889 C890 1.523 . S
C890 C874 1.368 . S
C890 C886 1.368 . S
C890 C889 1.523 . S
H891 C866 0.950 . S
H892 C868 0.950 . S
H893 C869 0.949 . S
H894 C871 0.950 . S
H895 C873 0.950 . S
C896 C897 1.349 . S
C896 C898 1.327 . S
C896 H921 0.950 . S
C897 C896 1.349 . S
C897 C913 1.349 . S
C898 C896 1.327 . S
C898 C917 1.429 . S
C898 H922 0.950 . S
C899 C916 1.638 . S
C899 C918 1.368 1_554 S
C899 H923 0.949 . S
H900 C904 0.949 . S
C901 C902 1.349 . S
C901 C903 1.327 . S
C901 H924 0.950 . S
C902 C901 1.349 . S
C902 C914 1.349 . S
C903 C901 1.327 . S
C903 C919 1.429 . S
C903 H925 0.950 . S
C904 H900 0.949 . S
C904 C912 1.638 . S
C904 C920 1.368 1_556 S
H905 C913 0.950 . S
H906 C911 0.950 . S
H907 C912 0.961 . S
H908 C914 0.950 . S
H909 C915 0.950 . S
H910 C916 0.961 . S
C911 H906 0.950 . S
C911 C913 1.327 . S
C911 C917 1.429 . S
C912 C904 1.638 . S
C912 H907 0.961 . S
C912 C918 1.302 1_455 S
C913 C897 1.349 . S
C913 H905 0.950 . S
C913 C911 1.327 . S
C914 C902 1.349 . S
C914 H908 0.950 . S
C914 C915 1.327 . S
C915 H909 0.950 . S
C915 C914 1.327 . S
C915 C919 1.429 . S
C916 C899 1.638 . S
C916 H910 0.961 . S
C916 C920 1.302 1_655 S
C917 C898 1.429 . S
C917 C911 1.429 . S
C917 C918 1.523 . S
C918 C899 1.368 1_556 S
C918 C912 1.302 1_655 S
C918 C917 1.523 . S
C919 C903 1.429 . S
C919 C915 1.429 . S
C919 C920 1.523 . S
C920 C904 1.368 1_554 S
C920 C916 1.302 1_455 S
C920 C919 1.523 . S
H921 C896 0.950 . S
H922 C898 0.950 . S
H923 C899 0.949 . S
H924 C901 0.950 . S
H925 C903 0.950 . S
C926 C927 1.349 . S
C926 C928 1.327 . S
C926 H951 0.950 . S
C927 C926 1.349 . S
C927 C943 1.349 . S
C928 C926 1.327 . S
C928 C947 1.429 . S
C928 H952 0.950 . S
C929 C946 1.574 . S
C929 C948 1.368 . S
C929 H953 0.949 . S
H930 C934 0.949 . S
C931 C932 1.349 . S
C931 C933 1.327 . S
C931 H954 0.950 . S
C932 C931 1.349 . S
C932 C944 1.349 . S
C933 C931 1.327 . S
C933 C949 1.429 . S
C933 H955 0.950 . S
C934 H930 0.949 . S
C934 C942 1.574 . S
C934 C950 1.368 . S
H935 C943 0.950 . S
H936 C941 0.950 . S
H937 C942 0.949 . S
H938 C944 0.950 . S
H939 C945 0.950 . S
H940 C946 0.949 . S
C941 H936 0.950 . S
C941 C943 1.327 . S
C941 C947 1.429 . S
C942 C934 1.574 . S
C942 H937 0.949 . S
C942 C948 1.368 1_554 S
C943 C927 1.349 . S
C943 H935 0.950 . S
C943 C941 1.327 . S
C944 C932 1.349 . S
C944 H938 0.950 . S
C944 C945 1.327 . S
C945 H939 0.950 . S
C945 C944 1.327 . S
C945 C949 1.429 . S
C946 C929 1.574 . S
C946 H940 0.949 . S
C946 C950 1.368 1_556 S
C947 C928 1.429 . S
C947 C941 1.429 . S
C947 C948 1.523 . S
C948 C929 1.368 . S
C948 C942 1.368 1_556 S
C948 C947 1.523 . S
C949 C933 1.429 . S
C949 C945 1.429 . S
C949 C950 1.523 . S
C950 C934 1.368 . S
C950 C946 1.368 1_554 S
C950 C949 1.523 . S
H951 C926 0.950 . S
H952 C928 0.950 . S
H953 C929 0.949 . S
H954 C931 0.950 . S
H955 C933 0.950 . S
C956 C957 1.349 . S
C956 C958 1.327 . S
C956 H981 0.950 . S
C957 C956 1.349 . S
C957 C973 1.349 . S
C958 C956 1.327 . S
C958 C977 1.429 . S
C958 H982 0.950 . S
C959 C976 1.574 1_455 S
C959 C978 1.368 . S
C959 H983 0.949 . S
H960 C964 0.949 . S
C961 C962 1.349 . S
C961 C963 1.327 . S
C961 H984 0.950 . S
C962 C961 1.349 . S
C962 C974 1.349 . S
C963 C961 1.327 . S
C963 C979 1.429 . S
C963 H985 0.950 . S
C964 H960 0.949 . S
C964 C972 1.574 1_655 S
C964 C980 1.368 . S
H965 C973 0.950 . S
H966 C971 0.950 . S
H967 C972 0.949 . S
H968 C974 0.950 . S
H969 C975 0.950 . S
H970 C976 0.949 . S
C971 H966 0.950 . S
C971 C973 1.327 . S
C971 C977 1.429 . S
C972 C964 1.574 1_455 S
C972 H967 0.949 . S
C972 C978 1.368 . S
C973 C957 1.349 . S
C973 H965 0.950 . S
C973 C971 1.327 . S
C974 C962 1.349 . S
C974 H968 0.950 . S
C974 C975 1.327 . S
C975 H969 0.950 . S
C975 C974 1.327 . S
C975 C979 1.429 . S
C976 C959 1.574 1_655 S
C976 H970 0.949 . S
C976 C980 1.368 . S
C977 C958 1.429 . S
C977 C971 1.429 . S
C977 C978 1.523 . S
C978 C959 1.368 . S
C978 C972 1.368 . S
C978 C977 1.523 . S
C979 C963 1.429 . S
C979 C975 1.429 . S
C979 C980 1.523 . S
C980 C964 1.368 . S
C980 C976 1.368 . S
C980 C979 1.523 . S
H981 C956 0.950 . S
H982 C958 0.950 . S
H983 C959 0.949 . S
H984 C961 0.950 . S
H985 C963 0.950 . S
C986 C987 1.349 . S
C986 C988 1.327 . S
C986 H1011 0.950 . S
C987 C986 1.349 . S
C987 C1003 1.349 . S
C988 C986 1.327 . S
C988 C1007 1.429 . S
C988 H1012 0.950 . S
C989 C1006 1.574 . S
C989 C1008 1.368 . S
C989 H1013 0.949 . S
H990 C994 0.949 . S
C991 C992 1.349 . S
C991 C993 1.327 . S
C991 H1014 0.950 . S
C992 C991 1.349 . S
C992 C1004 1.349 . S
C993 C991 1.327 . S
C993 C1009 1.429 . S
C993 H1015 0.950 . S
C994 H990 0.949 . S
C994 C1002 1.574 . S
C994 C1010 1.368 . S
H995 C1003 0.950 . S
H996 C1001 0.950 . S
H997 C1002 0.949 . S
H998 C1004 0.950 . S
H999 C1005 0.950 . S
H1000 C1006 0.949 . S
C1001 H996 0.950 . S
C1001 C1003 1.327 . S
C1001 C1007 1.429 . S
C1002 C994 1.574 . S
C1002 H997 0.949 . S
C1002 C1008 1.368 . S
C1003 C987 1.349 . S
C1003 H995 0.950 . S
C1003 C1001 1.327 . S
C1004 C992 1.349 . S
C1004 H998 0.950 . S
C1004 C1005 1.327 . S
C1005 H999 0.950 . S
C1005 C1004 1.327 . S
C1005 C1009 1.429 . S
C1006 C989 1.574 . S
C1006 H1000 0.949 . S
C1006 C1010 1.368 . S
C1007 C988 1.429 . S
C1007 C1001 1.429 . S
C1007 C1008 1.523 . S
C1008 C989 1.368 . S
C1008 C1002 1.368 . S
C1008 C1007 1.523 . S
C1009 C993 1.429 . S
C1009 C1005 1.429 . S
C1009 C1010 1.523 . S
C1010 C994 1.368 . S
C1010 C1006 1.368 . S
C1010 C1009 1.523 . S
H1011 C986 0.950 . S
H1012 C988 0.950 . S
H1013 C989 0.949 . S
H1014 C991 0.950 . S
H1015 C993 0.950 . S
C1016 C1017 1.349 . S
C1016 C1018 1.327 . S
C1016 H1041 0.950 . S
C1017 C1016 1.349 . S
C1017 C1033 1.349 . S
C1018 C1016 1.327 . S
C1018 C1037 1.429 . S
C1018 H1042 0.950 . S
C1019 C1036 1.574 . S
C1019 C1038 1.368 1_554 S
C1019 H1043 0.949 . S
H1020 C1024 0.949 . S
C1021 C1022 1.349 . S
C1021 C1023 1.327 . S
C1021 H1044 0.950 . S
C1022 C1021 1.349 . S
C1022 C1034 1.349 . S
C1023 C1021 1.327 . S
C1023 C1039 1.429 . S
C1023 H1045 0.950 . S
C1024 H1020 0.949 . S
C1024 C1032 1.574 . S
C1024 C1040 1.368 1_556 S
H1025 C1033 0.950 . S
H1026 C1031 0.950 . S
H1027 C1032 0.949 . S
H1028 C1034 0.950 . S
H1029 C1035 0.950 . S
H1030 C1036 0.949 . S
C1031 H1026 0.950 . S
C1031 C1033 1.327 . S
C1031 C1037 1.429 . S
C1032 C1024 1.574 . S
C1032 H1027 0.949 . S
C1032 C1038 1.368 . S
C1033 C1017 1.349 . S
C1033 H1025 0.950 . S
C1033 C1031 1.327 . S
C1034 C1022 1.349 . S
C1034 H1028 0.950 . S
C1034 C1035 1.327 . S
C1035 H1029 0.950 . S
C1035 C1034 1.327 . S
C1035 C1039 1.429 . S
C1036 C1019 1.574 . S
C1036 H1030 0.949 . S
C1036 C1040 1.368 . S
C1037 C1018 1.429 . S
C1037 C1031 1.429 . S
C1037 C1038 1.523 . S
C1038 C1019 1.368 1_556 S
C1038 C1032 1.368 . S
C1038 C1037 1.523 . S
C1039 C1023 1.429 . S
C1039 C1035 1.429 . S
C1039 C1040 1.523 . S
C1040 C1024 1.368 1_554 S
C1040 C1036 1.368 . S
C1040 C1039 1.523 . S
H1041 C1016 0.950 . S
H1042 C1018 0.950 . S
H1043 C1019 0.949 . S
H1044 C1021 0.950 . S
H1045 C1023 0.950 . S
C1046 C1047 1.349 . S
C1046 C1048 1.327 . S
C1046 H1071 0.950 . S
C1047 C1046 1.349 . S
C1047 C1063 1.349 . S
C1048 C1046 1.327 . S
C1048 C1067 1.429 . S
C1048 H1072 0.950 . S
C1049 C1066 1.574 . S
C1049 C1068 1.368 1_455 S
C1049 H1073 0.949 . S
H1050 C1054 0.949 . S
C1051 C1052 1.349 . S
C1051 C1053 1.327 . S
C1051 H1074 0.950 . S
C1052 C1051 1.349 . S
C1052 C1064 1.349 . S
C1053 C1051 1.327 . S
C1053 C1069 1.429 . S
C1053 H1075 0.950 . S
C1054 H1050 0.949 . S
C1054 C1062 1.574 . S
C1054 C1070 1.368 1_655 S
H1055 C1063 0.950 . S
H1056 C1061 0.950 . S
H1057 C1062 0.949 . S
H1058 C1064 0.950 . S
H1059 C1065 0.950 . S
H1060 C1066 0.949 . S
C1061 H1056 0.950 . S
C1061 C1063 1.327 . S
C1061 C1067 1.429 . S
C1062 C1054 1.574 . S
C1062 H1057 0.949 . S
C1062 C1068 1.368 . S
C1063 C1047 1.349 . S
C1063 H1055 0.950 . S
C1063 C1061 1.327 . S
C1064 C1052 1.349 . S
C1064 H1058 0.950 . S
C1064 C1065 1.327 . S
C1065 H1059 0.950 . S
C1065 C1064 1.327 . S
C1065 C1069 1.429 . S
C1066 C1049 1.574 . S
C1066 H1060 0.949 . S
C1066 C1070 1.368 . S
C1067 C1048 1.429 . S
C1067 C1061 1.429 . S
C1067 C1068 1.523 . S
C1068 C1049 1.368 1_655 S
C1068 C1062 1.368 . S
C1068 C1067 1.523 . S
C1069 C1053 1.429 . S
C1069 C1065 1.429 . S
C1069 C1070 1.523 . S
C1070 C1054 1.368 1_455 S
C1070 C1066 1.368 . S
C1070 C1069 1.523 . S
H1071 C1046 0.950 . S
H1072 C1048 0.950 . S
H1073 C1049 0.949 . S
H1074 C1051 0.950 . S
H1075 C1053 0.950 . S
C1076 C1077 1.349 . S
C1076 C1078 1.327 . S
C1076 H1101 0.950 . S
C1077 C1076 1.349 . S
C1077 C1093 1.349 . S
C1078 C1076 1.327 . S
C1078 C1097 1.429 . S
C1078 H1102 0.950 . S
C1079 C1096 1.574 . S
C1079 C1098 1.368 . S
C1079 H1103 0.949 . S
H1080 C1084 0.949 . S
C1081 C1082 1.349 . S
C1081 C1083 1.327 . S
C1081 H1104 0.950 . S
C1082 C1081 1.349 . S
C1082 C1094 1.349 . S
C1083 C1081 1.327 . S
C1083 C1099 1.429 . S
C1083 H1105 0.950 . S
C1084 H1080 0.949 . S
C1084 C1092 1.574 . S
C1084 C1100 1.368 . S
H1085 C1093 0.950 . S
H1086 C1091 0.950 . S
H1087 C1092 0.949 . S
H1088 C1094 0.950 . S
H1089 C1095 0.950 . S
H1090 C1096 0.949 . S
C1091 H1086 0.950 . S
C1091 C1093 1.327 . S
C1091 C1097 1.429 . S
C1092 C1084 1.574 . S
C1092 H1087 0.949 . S
C1092 C1098 1.368 . S
C1093 C1077 1.349 . S
C1093 H1085 0.950 . S
C1093 C1091 1.327 . S
C1094 C1082 1.349 . S
C1094 H1088 0.950 . S
C1094 C1095 1.327 . S
C1095 H1089 0.950 . S
C1095 C1094 1.327 . S
C1095 C1099 1.429 . S
C1096 C1079 1.574 . S
C1096 H1090 0.949 . S
C1096 C1100 1.368 . S
C1097 C1078 1.429 . S
C1097 C1091 1.429 . S
C1097 C1098 1.523 . S
C1098 C1079 1.368 . S
C1098 C1092 1.368 . S
C1098 C1097 1.523 . S
C1099 C1083 1.429 . S
C1099 C1095 1.429 . S
C1099 C1100 1.523 . S
C1100 C1084 1.368 . S
C1100 C1096 1.368 . S
C1100 C1099 1.523 . S
H1101 C1076 0.950 . S
H1102 C1078 0.950 . S
H1103 C1079 0.949 . S
H1104 C1081 0.950 . S
H1105 C1083 0.950 . S
C1106 C1107 1.349 . S
C1106 C1108 1.327 . S
C1106 H1131 0.950 . S
C1107 C1106 1.349 . S
C1107 C1123 1.349 . S
C1108 C1106 1.327 . S
C1108 C1127 1.429 . S
C1108 H1132 0.950 . S
C1109 C1126 1.574 . S
C1109 C1128 1.368 1_565 S
C1109 H1133 0.949 . S
H1110 C1114 0.949 . S
C1111 C1112 1.349 . S
C1111 C1113 1.327 . S
C1111 H1134 0.950 . S
C1112 C1111 1.349 . S
C1112 C1124 1.349 . S
C1113 C1111 1.327 . S
C1113 C1129 1.429 . S
C1113 H1135 0.950 . S
C1114 H1110 0.949 . S
C1114 C1122 1.574 . S
C1114 C1130 1.368 1_545 S
H1115 C1123 0.950 . S
H1116 C1121 0.931 1_565 S
H1117 C1122 0.949 . S
H1118 C1124 0.950 . S
H1119 C1125 0.931 1_545 S
H1120 C1126 0.949 . S
C1121 H1116 0.931 1_545 S
C1121 C1123 1.327 . S
C1121 C1127 1.429 . S
C1122 C1114 1.574 . S
C1122 H1117 0.949 . S
C1122 C1128 1.368 1_455 S
C1123 C1107 1.349 . S
C1123 H1115 0.950 . S
C1123 C1121 1.327 . S
C1124 C1112 1.349 . S
C1124 H1118 0.950 . S
C1124 C1125 1.327 . S
C1125 H1119 0.931 1_565 S
C1125 C1124 1.327 . S
C1125 C1129 1.429 . S
C1126 C1109 1.574 . S
C1126 H1120 0.949 . S
C1126 C1130 1.368 1_655 S
C1127 C1108 1.429 . S
C1127 C1121 1.429 . S
C1127 C1128 1.523 . S
C1128 C1109 1.368 1_545 S
C1128 C1122 1.368 1_655 S
C1128 C1127 1.523 . S
C1129 C1113 1.429 . S
C1129 C1125 1.429 . S
C1129 C1130 1.523 . S
C1130 C1114 1.368 1_565 S
C1130 C1126 1.368 1_455 S
C1130 C1129 1.523 . S
H1131 C1106 0.950 . S
H1132 C1108 0.950 . S
H1133 C1109 0.949 . S
H1134 C1111 0.950 . S
H1135 C1113 0.950 . S
C1136 C1137 1.349 . S
C1136 C1138 1.327 . S
C1136 H1161 0.950 . S
C1137 C1136 1.349 . S
C1137 C1153 1.349 . S
C1138 C1136 1.327 . S
C1138 C1157 1.429 . S
C1138 H1162 0.950 . S
C1139 C1156 1.574 . S
C1139 C1158 1.368 . S
C1139 H1163 0.949 . S
H1140 C1144 0.949 . S
C1141 C1142 1.349 . S
C1141 C1143 1.327 . S
C1141 H1164 0.950 . S
C1142 C1141 1.349 . S
C1142 C1154 1.349 . S
C1143 C1141 1.327 . S
C1143 C1159 1.429 . S
C1143 H1165 0.950 . S
C1144 H1140 0.949 . S
C1144 C1152 1.574 . S
C1144 C1160 1.368 . S
H1145 C1153 0.950 . S
H1146 C1151 0.950 . S
H1147 C1152 0.949 . S
H1148 C1154 0.950 . S
H1149 C1155 0.950 . S
H1150 C1156 0.949 . S
C1151 H1146 0.950 . S
C1151 C1153 1.327 . S
C1151 C1157 1.429 . S
C1152 C1144 1.574 . S
C1152 H1147 0.949 . S
C1152 C1158 1.368 . S
C1153 C1137 1.349 . S
C1153 H1145 0.950 . S
C1153 C1151 1.327 . S
C1154 C1142 1.349 . S
C1154 H1148 0.950 . S
C1154 C1155 1.327 . S
C1155 H1149 0.950 . S
C1155 C1154 1.327 . S
C1155 C1159 1.429 . S
C1156 C1139 1.574 . S
C1156 H1150 0.949 . S
C1156 C1160 1.368 . S
C1157 C1138 1.429 . S
C1157 C1151 1.429 . S
C1157 C1158 1.523 . S
C1158 C1139 1.368 . S
C1158 C1152 1.368 . S
C1158 C1157 1.523 . S
C1159 C1143 1.429 . S
C1159 C1155 1.429 . S
C1159 C1160 1.523 . S
C1160 C1144 1.368 . S
C1160 C1156 1.368 . S
C1160 C1159 1.523 . S
H1161 C1136 0.950 . S
H1162 C1138 0.950 . S
H1163 C1139 0.949 . S
H1164 C1141 0.950 . S
H1165 C1143 0.950 . S
C1166 C1167 1.349 . S
C1166 C1168 1.327 . S
C1166 H1191 0.950 . S
C1167 C1166 1.349 . S
C1167 C1183 1.349 . S
C1168 C1166 1.327 . S
C1168 C1187 1.429 . S
C1168 H1192 0.950 . S
C1169 C1186 1.574 . S
C1169 C1188 1.368 1_545 S
C1169 H1193 0.949 . S
H1170 C1174 0.949 . S
C1171 C1172 1.349 . S
C1171 C1173 1.327 . S
C1171 H1194 0.950 . S
C1172 C1171 1.349 . S
C1172 C1184 1.349 . S
C1173 C1171 1.327 . S
C1173 C1189 1.429 . S
C1173 H1195 0.950 . S
C1174 H1170 0.949 . S
C1174 C1182 1.574 . S
C1174 C1190 1.368 1_565 S
H1175 C1183 0.950 . S
H1176 C1181 0.950 1_545 S
H1177 C1182 0.949 . S
H1178 C1184 0.950 . S
H1179 C1185 0.950 1_565 S
H1180 C1186 0.949 . S
C1181 H1176 0.950 1_565 S
C1181 C1183 1.327 . S
C1181 C1187 1.429 . S
C1182 C1174 1.574 . S
C1182 H1177 0.949 . S
C1182 C1188 1.368 . S
C1183 C1167 1.349 . S
C1183 H1175 0.950 . S
C1183 C1181 1.327 . S
C1184 C1172 1.349 . S
C1184 H1178 0.950 . S
C1184 C1185 1.327 . S
C1185 H1179 0.950 1_545 S
C1185 C1184 1.327 . S
C1185 C1189 1.429 . S
C1186 C1169 1.574 . S
C1186 H1180 0.949 . S
C1186 C1190 1.368 . S
C1187 C1168 1.429 . S
C1187 C1181 1.429 . S
C1187 C1188 1.523 . S
C1188 C1169 1.368 1_565 S
C1188 C1182 1.368 . S
C1188 C1187 1.523 . S
C1189 C1173 1.429 . S
C1189 C1185 1.429 . S
C1189 C1190 1.523 . S
C1190 C1174 1.368 1_545 S
C1190 C1186 1.368 . S
C1190 C1189 1.523 . S
H1191 C1166 0.950 . S
H1192 C1168 0.950 . S
H1193 C1169 0.949 . S
H1194 C1171 0.950 . S
H1195 C1173 0.950 . S
C1196 C1197 1.349 . S
C1196 C1198 1.327 . S
C1196 H1221 0.950 . S
C1197 C1196 1.349 . S
C1197 C1213 1.349 . S
C1198 C1196 1.327 . S
C1198 C1217 1.429 . S
C1198 H1222 0.950 . S
C1199 C1216 1.574 . S
C1199 C1218 1.368 . S
C1199 H1223 0.949 . S
H1200 C1204 0.949 . S
C1201 C1202 1.349 . S
C1201 C1203 1.327 . S
C1201 H1224 0.950 . S
C1202 C1201 1.349 . S
C1202 C1214 1.349 . S
C1203 C1201 1.327 . S
C1203 C1219 1.429 . S
C1203 H1225 0.950 . S
C1204 H1200 0.949 . S
C1204 C1212 1.574 . S
C1204 C1220 1.368 . S
H1205 C1213 0.950 . S
H1206 C1211 0.950 . S
H1207 C1212 0.949 . S
H1208 C1214 0.950 . S
H1209 C1215 0.950 . S
H1210 C1216 0.949 . S
C1211 H1206 0.950 . S
C1211 C1213 1.327 . S
C1211 C1217 1.429 . S
C1212 C1204 1.574 . S
C1212 H1207 0.949 . S
C1212 C1218 1.368 . S
C1213 C1197 1.349 . S
C1213 H1205 0.950 . S
C1213 C1211 1.327 . S
C1214 C1202 1.349 . S
C1214 H1208 0.950 . S
C1214 C1215 1.327 . S
C1215 H1209 0.950 . S
C1215 C1214 1.327 . S
C1215 C1219 1.429 . S
C1216 C1199 1.574 . S
C1216 H1210 0.949 . S
C1216 C1220 1.368 . S
C1217 C1198 1.429 . S
C1217 C1211 1.429 . S
C1217 C1218 1.523 . S
C1218 C1199 1.368 . S
C1218 C1212 1.368 . S
C1218 C1217 1.523 . S
C1219 C1203 1.429 . S
C1219 C1215 1.429 . S
C1219 C1220 1.523 . S
C1220 C1204 1.368 . S
C1220 C1216 1.368 . S
C1220 C1219 1.523 . S
H1221 C1196 0.950 . S
H1222 C1198 0.950 . S
H1223 C1199 0.949 . S
H1224 C1201 0.950 . S
H1225 C1203 0.950 . S
C1226 C1227 1.349 . S
C1226 C1228 1.327 . S
C1226 H1251 0.950 . S
C1227 C1226 1.349 . S
C1227 C1243 1.349 . S
C1228 C1226 1.327 . S
C1228 C1247 1.429 . S
C1228 H1252 0.950 . S
C1229 C1246 1.574 1_565 S
C1229 C1248 1.368 . S
C1229 H1253 0.949 . S
H1230 C1234 0.949 . S
C1231 C1232 1.349 . S
C1231 C1233 1.327 . S
C1231 H1254 0.950 . S
C1232 C1231 1.349 . S
C1232 C1244 1.349 . S
C1233 C1231 1.327 . S
C1233 C1249 1.429 . S
C1233 H1255 0.950 . S
C1234 H1230 0.949 . S
C1234 C1242 1.574 1_545 S
C1234 C1250 1.368 . S
H1235 C1243 0.950 . S
H1236 C1241 0.950 . S
H1237 C1242 0.949 . S
H1238 C1244 0.950 . S
H1239 C1245 0.950 . S
H1240 C1246 0.949 . S
C1241 H1236 0.950 . S
C1241 C1243 1.327 . S
C1241 C1247 1.429 . S
C1242 C1234 1.574 1_565 S
C1242 H1237 0.949 . S
C1242 C1248 1.368 . S
C1243 C1227 1.349 . S
C1243 H1235 0.950 . S
C1243 C1241 1.327 . S
C1244 C1232 1.349 . S
C1244 H1238 0.950 . S
C1244 C1245 1.327 . S
C1245 H1239 0.950 . S
C1245 C1244 1.327 . S
C1245 C1249 1.429 . S
C1246 C1229 1.574 1_545 S
C1246 H1240 0.949 . S
C1246 C1250 1.368 . S
C1247 C1228 1.429 . S
C1247 C1241 1.429 . S
C1247 C1248 1.523 . S
C1248 C1229 1.368 . S
C1248 C1242 1.368 . S
C1248 C1247 1.523 . S
C1249 C1233 1.429 . S
C1249 C1245 1.429 . S
C1249 C1250 1.523 . S
C1250 C1234 1.368 . S
C1250 C1246 1.368 . S
C1250 C1249 1.523 . S
H1251 C1226 0.950 . S
H1252 C1228 0.950 . S
H1253 C1229 0.949 . S
H1254 C1231 0.950 . S
H1255 C1233 0.950 . S
C1256 C1257 1.349 . S
C1256 C1258 1.327 . S
C1256 H1281 0.950 . S
C1257 C1256 1.349 . S
C1257 C1273 1.349 . S
C1258 C1256 1.327 . S
C1258 C1277 1.429 . S
C1258 H1282 0.950 . S
C1259 C1276 1.574 . S
C1259 C1278 1.368 . S
C1259 H1283 0.949 . S
H1260 C1264 0.949 . S
C1261 C1262 1.349 . S
C1261 C1263 1.327 . S
C1261 H1284 0.950 . S
C1262 C1261 1.349 . S
C1262 C1274 1.349 . S
C1263 C1261 1.327 . S
C1263 C1279 1.429 . S
C1263 H1285 0.950 . S
C1264 H1260 0.949 . S
C1264 C1272 1.574 . S
C1264 C1280 1.368 . S
H1265 C1273 0.950 . S
H1266 C1271 0.950 . S
H1267 C1272 0.949 . S
H1268 C1274 0.950 . S
H1269 C1275 0.950 . S
H1270 C1276 0.949 . S
C1271 H1266 0.950 . S
C1271 C1273 1.327 . S
C1271 C1277 1.429 . S
C1272 C1264 1.574 . S
C1272 H1267 0.949 . S
C1272 C1278 1.368 . S
C1273 C1257 1.349 . S
C1273 H1265 0.950 . S
C1273 C1271 1.327 . S
C1274 C1262 1.349 . S
C1274 H1268 0.950 . S
C1274 C1275 1.327 . S
C1275 H1269 0.950 . S
C1275 C1274 1.327 . S
C1275 C1279 1.429 . S
C1276 C1259 1.574 . S
C1276 H1270 0.949 . S
C1276 C1280 1.368 . S
C1277 C1258 1.429 . S
C1277 C1271 1.429 . S
C1277 C1278 1.523 . S
C1278 C1259 1.368 . S
C1278 C1272 1.368 . S
C1278 C1277 1.523 . S
C1279 C1263 1.429 . S
C1279 C1275 1.429 . S
C1279 C1280 1.523 . S
C1280 C1264 1.368 . S
C1280 C1276 1.368 . S
C1280 C1279 1.523 . S
H1281 C1256 0.950 . S
H1282 C1258 0.950 . S
H1283 C1259 0.949 . S
H1284 C1261 0.950 . S
H1285 C1263 0.950 . S
C1286 C1287 1.349 . S
C1286 C1288 1.327 . S
C1286 H1311 0.950 . S
C1287 C1286 1.349 . S
C1287 C1303 1.349 . S
C1288 C1286 1.327 . S
C1288 C1307 1.429 . S
C1288 H1312 0.950 . S
C1289 C1306 1.574 . S
C1289 C1308 1.368 . S
C1289 H1313 0.949 . S
H1290 C1294 0.949 . S
C1291 C1292 1.349 . S
C1291 C1293 1.327 . S
C1291 H1314 0.950 . S
C1292 C1291 1.349 . S
C1292 C1304 1.349 . S
C1293 C1291 1.327 . S
C1293 C1309 1.429 . S
C1293 H1315 0.950 . S
C1294 H1290 0.949 . S
C1294 C1302 1.574 . S
C1294 C1310 1.368 . S
H1295 C1303 0.950 . S
H1296 C1301 0.950 . S
H1297 C1302 0.949 . S
H1298 C1304 0.950 . S
H1299 C1305 0.950 . S
H1300 C1306 0.949 . S
C1301 H1296 0.950 . S
C1301 C1303 1.327 . S
C1301 C1307 1.429 . S
C1302 C1294 1.574 . S
C1302 H1297 0.949 . S
C1302 C1308 1.368 . S
C1303 C1287 1.349 . S
C1303 H1295 0.950 . S
C1303 C1301 1.327 . S
C1304 C1292 1.349 . S
C1304 H1298 0.950 . S
C1304 C1305 1.327 . S
C1305 H1299 0.950 . S
C1305 C1304 1.327 . S
C1305 C1309 1.429 . S
C1306 C1289 1.574 . S
C1306 H1300 0.949 . S
C1306 C1310 1.368 . S
C1307 C1288 1.429 . S
C1307 C1301 1.429 . S
C1307 C1308 1.523 . S
C1308 C1289 1.368 . S
C1308 C1302 1.368 . S
C1308 C1307 1.523 . S
C1309 C1293 1.429 . S
C1309 C1305 1.429 . S
C1309 C1310 1.523 . S
C1310 C1294 1.368 . S
C1310 C1306 1.368 . S
C1310 C1309 1.523 . S
H1311 C1286 0.950 . S
H1312 C1288 0.950 . S
H1313 C1289 0.949 . S
H1314 C1291 0.950 . S
H1315 C1293 0.950 . S
C1316 C1317 1.349 . S
C1316 C1318 1.327 . S
C1316 H1341 0.950 . S
C1317 C1316 1.349 . S
C1317 C1333 1.349 . S
C1318 C1316 1.327 . S
C1318 C1337 1.429 . S
C1318 H1342 0.950 . S
C1319 C1336 1.574 . S
C1319 C1338 1.368 . S
C1319 H1343 0.949 . S
H1320 C1324 0.949 . S
C1321 C1322 1.349 . S
C1321 C1323 1.327 . S
C1321 H1344 0.950 . S
C1322 C1321 1.349 . S
C1322 C1334 1.349 . S
C1323 C1321 1.327 . S
C1323 C1339 1.429 . S
C1323 H1345 0.950 . S
C1324 H1320 0.949 . S
C1324 C1332 1.574 . S
C1324 C1340 1.368 . S
H1325 C1333 0.950 . S
H1326 C1331 0.950 . S
H1327 C1332 0.949 . S
H1328 C1334 0.950 . S
H1329 C1335 0.950 . S
H1330 C1336 0.949 . S
C1331 H1326 0.950 . S
C1331 C1333 1.327 . S
C1331 C1337 1.429 . S
C1332 C1324 1.574 . S
C1332 H1327 0.949 . S
C1332 C1338 1.368 . S
C1333 C1317 1.349 . S
C1333 H1325 0.950 . S
C1333 C1331 1.327 . S
C1334 C1322 1.349 . S
C1334 H1328 0.950 . S
C1334 C1335 1.327 . S
C1335 H1329 0.950 . S
C1335 C1334 1.327 . S
C1335 C1339 1.429 . S
C1336 C1319 1.574 . S
C1336 H1330 0.949 . S
C1336 C1340 1.368 . S
C1337 C1318 1.429 . S
C1337 C1331 1.429 . S
C1337 C1338 1.523 . S
C1338 C1319 1.368 . S
C1338 C1332 1.368 . S
C1338 C1337 1.523 . S
C1339 C1323 1.429 . S
C1339 C1335 1.429 . S
C1339 C1340 1.523 . S
C1340 C1324 1.368 . S
C1340 C1336 1.368 . S
C1340 C1339 1.523 . S
H1341 C1316 0.950 . S
H1342 C1318 0.950 . S
H1343 C1319 0.949 . S
H1344 C1321 0.950 . S
H1345 C1323 0.950 . S
C1346 C1347 1.349 . S
C1346 C1348 1.327 . S
C1346 H1371 0.950 . S
C1347 C1346 1.349 . S
C1347 C1363 1.349 . S
C1348 C1346 1.327 . S
C1348 C1367 1.429 . S
C1348 H1372 0.950 . S
C1349 C1366 1.574 . S
C1349 C1368 1.368 1_554 S
C1349 H1373 0.949 . S
H1350 C1354 0.949 . S
C1351 C1352 1.349 . S
C1351 C1353 1.327 . S
C1351 H1374 0.950 . S
C1352 C1351 1.349 . S
C1352 C1364 1.349 . S
C1353 C1351 1.327 . S
C1353 C1369 1.429 . S
C1353 H1375 0.950 . S
C1354 H1350 0.949 . S
C1354 C1362 1.574 . S
C1354 C1370 1.368 1_556 S
H1355 C1363 0.950 . S
H1356 C1361 0.950 . S
H1357 C1362 0.949 . S
H1358 C1364 0.950 . S
H1359 C1365 0.950 . S
H1360 C1366 0.949 . S
C1361 H1356 0.950 . S
C1361 C1363 1.327 . S
C1361 C1367 1.429 . S
C1362 C1354 1.574 . S
C1362 H1357 0.949 . S
C1362 C1368 1.368 1_565 S
C1363 C1347 1.349 . S
C1363 H1355 0.950 . S
C1363 C1361 1.327 . S
C1364 C1352 1.349 . S
C1364 H1358 0.950 . S
C1364 C1365 1.327 . S
C1365 H1359 0.950 . S
C1365 C1364 1.327 . S
C1365 C1369 1.429 . S
C1366 C1349 1.574 . S
C1366 H1360 0.949 . S
C1366 C1370 1.368 1_545 S
C1367 C1348 1.429 . S
C1367 C1361 1.429 . S
C1367 C1368 1.523 . S
C1368 C1349 1.368 1_556 S
C1368 C1362 1.368 1_545 S
C1368 C1367 1.523 . S
C1369 C1353 1.429 . S
C1369 C1365 1.429 . S
C1369 C1370 1.523 . S
C1370 C1354 1.368 1_554 S
C1370 C1366 1.368 1_565 S
C1370 C1369 1.523 . S
H1371 C1346 0.950 . S
H1372 C1348 0.950 . S
H1373 C1349 0.949 . S
H1374 C1351 0.950 . S
H1375 C1353 0.950 . S
C1376 C1377 1.349 . S
C1376 C1378 1.327 . S
C1376 H1401 0.950 . S
C1377 C1376 1.349 . S
C1377 C1393 1.349 . S
C1378 C1376 1.327 . S
C1378 C1397 1.429 . S
C1378 H1402 0.950 . S
C1379 C1396 1.574 . S
C1379 C1398 1.368 . S
C1379 H1403 0.949 . S
H1380 C1384 0.949 . S
C1381 C1382 1.349 . S
C1381 C1383 1.327 . S
C1381 H1404 0.950 . S
C1382 C1381 1.349 . S
C1382 C1394 1.349 . S
C1383 C1381 1.327 . S
C1383 C1399 1.429 . S
C1383 H1405 0.950 . S
C1384 H1380 0.949 . S
C1384 C1392 1.574 . S
C1384 C1400 1.368 . S
H1385 C1393 0.950 . S
H1386 C1391 0.950 . S
H1387 C1392 0.949 . S
H1388 C1394 0.950 . S
H1389 C1395 0.950 . S
H1390 C1396 0.949 . S
C1391 H1386 0.950 . S
C1391 C1393 1.327 . S
C1391 C1397 1.429 . S
C1392 C1384 1.574 . S
C1392 H1387 0.949 . S
C1392 C1398 1.368 . S
C1393 C1377 1.349 . S
C1393 H1385 0.950 . S
C1393 C1391 1.327 . S
C1394 C1382 1.349 . S
C1394 H1388 0.950 . S
C1394 C1395 1.327 . S
C1395 H1389 0.950 . S
C1395 C1394 1.327 . S
C1395 C1399 1.429 . S
C1396 C1379 1.574 . S
C1396 H1390 0.949 . S
C1396 C1400 1.368 . S
C1397 C1378 1.429 . S
C1397 C1391 1.429 . S
C1397 C1398 1.523 . S
C1398 C1379 1.368 . S
C1398 C1392 1.368 . S
C1398 C1397 1.523 . S
C1399 C1383 1.429 . S
C1399 C1395 1.429 . S
C1399 C1400 1.523 . S
C1400 C1384 1.368 . S
C1400 C1396 1.368 . S
C1400 C1399 1.523 . S
H1401 C1376 0.950 . S
H1402 C1378 0.950 . S
H1403 C1379 0.949 . S
H1404 C1381 0.950 . S
H1405 C1383 0.950 . S
C1406 C1407 1.349 . S
C1406 C1408 1.327 . S
C1406 H1431 0.950 . S
C1407 C1406 1.349 . S
C1407 C1423 1.349 . S
C1408 C1406 1.327 . S
C1408 C1427 1.429 . S
C1408 H1432 0.950 . S
C1409 C1426 1.574 . S
C1409 C1428 1.368 . S
C1409 H1433 0.949 . S
H1410 C1414 0.949 . S
C1411 C1412 1.349 . S
C1411 C1413 1.327 . S
C1411 H1434 0.950 . S
C1412 C1411 1.349 . S
C1412 C1424 1.349 . S
C1413 C1411 1.327 . S
C1413 C1429 1.429 . S
C1413 H1435 0.950 . S
C1414 H1410 0.949 . S
C1414 C1422 1.574 . S
C1414 C1430 1.368 . S
H1415 C1423 0.950 . S
H1416 C1421 0.950 . S
H1417 C1422 0.949 . S
H1418 C1424 0.950 . S
H1419 C1425 0.950 . S
H1420 C1426 0.949 . S
C1421 H1416 0.950 . S
C1421 C1423 1.327 . S
C1421 C1427 1.429 . S
C1422 C1414 1.574 . S
C1422 H1417 0.949 . S
C1422 C1428 1.368 . S
C1423 C1407 1.349 . S
C1423 H1415 0.950 . S
C1423 C1421 1.327 . S
C1424 C1412 1.349 . S
C1424 H1418 0.950 . S
C1424 C1425 1.327 . S
C1425 H1419 0.950 . S
C1425 C1424 1.327 . S
C1425 C1429 1.429 . S
C1426 C1409 1.574 . S
C1426 H1420 0.949 . S
C1426 C1430 1.368 . S
C1427 C1408 1.429 . S
C1427 C1421 1.429 . S
C1427 C1428 1.523 . S
C1428 C1409 1.368 . S
C1428 C1422 1.368 . S
C1428 C1427 1.523 . S
C1429 C1413 1.429 . S
C1429 C1425 1.429 . S
C1429 C1430 1.523 . S
C1430 C1414 1.368 . S
C1430 C1426 1.368 . S
C1430 C1429 1.523 . S
H1431 C1406 0.950 . S
H1432 C1408 0.950 . S
H1433 C1409 0.949 . S
H1434 C1411 0.950 . S
H1435 C1413 0.950 . S
C1436 C1437 1.349 . S
C1436 C1438 1.327 . S
C1436 H1461 0.950 . S
C1437 C1436 1.349 . S
C1437 C1453 1.349 . S
C1438 C1436 1.327 . S
C1438 C1457 1.429 . S
C1438 H1462 0.950 . S
C1439 C1456 1.574 . S
C1439 C1458 1.368 . S
C1439 H1463 0.949 . S
H1440 C1444 0.949 . S
C1441 C1442 1.349 . S
C1441 C1443 1.327 . S
C1441 H1464 0.950 . S
C1442 C1441 1.349 . S
C1442 C1454 1.349 . S
C1443 C1441 1.327 . S
C1443 C1459 1.429 . S
C1443 H1465 0.950 . S
C1444 H1440 0.949 . S
C1444 C1452 1.574 . S
C1444 C1460 1.368 . S
H1445 C1453 0.950 . S
H1446 C1451 0.950 . S
H1447 C1452 0.949 . S
H1448 C1454 0.950 . S
H1449 C1455 0.950 . S
H1450 C1456 0.949 . S
C1451 H1446 0.950 . S
C1451 C1453 1.327 . S
C1451 C1457 1.429 . S
C1452 C1444 1.574 . S
C1452 H1447 0.949 . S
C1452 C1458 1.368 . S
C1453 C1437 1.349 . S
C1453 H1445 0.950 . S
C1453 C1451 1.327 . S
C1454 C1442 1.349 . S
C1454 H1448 0.950 . S
C1454 C1455 1.327 . S
C1455 H1449 0.950 . S
C1455 C1454 1.327 . S
C1455 C1459 1.429 . S
C1456 C1439 1.574 . S
C1456 H1450 0.949 . S
C1456 C1460 1.368 . S
C1457 C1438 1.429 . S
C1457 C1451 1.429 . S
C1457 C1458 1.523 . S
C1458 C1439 1.368 . S
C1458 C1452 1.368 . S
C1458 C1457 1.523 . S
C1459 C1443 1.429 . S
C1459 C1455 1.429 . S
C1459 C1460 1.523 . S
C1460 C1444 1.368 . S
C1460 C1456 1.368 . S
C1460 C1459 1.523 . S
H1461 C1436 0.950 . S
H1462 C1438 0.950 . S
H1463 C1439 0.949 . S
H1464 C1441 0.950 . S
H1465 C1443 0.950 . S
C1466 C1467 1.349 . S
C1466 C1468 1.327 . S
C1466 H1491 0.950 . S
C1467 C1466 1.349 . S
C1467 C1483 1.349 . S
C1468 C1466 1.327 . S
C1468 C1487 1.429 . S
C1468 H1492 0.950 . S
C1469 C1486 1.574 . S
C1469 C1488 1.368 . S
C1469 H1493 0.949 . S
H1470 C1474 0.949 . S
C1471 C1472 1.349 . S
C1471 C1473 1.327 . S
C1471 H1494 0.950 . S
C1472 C1471 1.349 . S
C1472 C1484 1.349 . S
C1473 C1471 1.327 . S
C1473 C1489 1.429 . S
C1473 H1495 0.950 . S
C1474 H1470 0.949 . S
C1474 C1482 1.574 . S
C1474 C1490 1.368 . S
H1475 C1483 0.950 . S
H1476 C1481 0.950 . S
H1477 C1482 0.949 . S
H1478 C1484 0.950 . S
H1479 C1485 0.950 . S
H1480 C1486 0.949 . S
C1481 H1476 0.950 . S
C1481 C1483 1.327 . S
C1481 C1487 1.429 . S
C1482 C1474 1.574 . S
C1482 H1477 0.949 . S
C1482 C1488 1.368 . S
C1483 C1467 1.349 . S
C1483 H1475 0.950 . S
C1483 C1481 1.327 . S
C1484 C1472 1.349 . S
C1484 H1478 0.950 . S
C1484 C1485 1.327 . S
C1485 H1479 0.950 . S
C1485 C1484 1.327 . S
C1485 C1489 1.429 . S
C1486 C1469 1.574 . S
C1486 H1480 0.949 . S
C1486 C1490 1.368 . S
C1487 C1468 1.429 . S
C1487 C1481 1.429 . S
C1487 C1488 1.523 . S
C1488 C1469 1.368 . S
C1488 C1482 1.368 . S
C1488 C1487 1.523 . S
C1489 C1473 1.429 . S
C1489 C1485 1.429 . S
C1489 C1490 1.523 . S
C1490 C1474 1.368 . S
C1490 C1486 1.368 . S
C1490 C1489 1.523 . S
H1491 C1466 0.950 . S
H1492 C1468 0.950 . S
H1493 C1469 0.949 . S
H1494 C1471 0.950 . S
H1495 C1473 0.950 . S
C1496 C1497 1.349 . S
C1496 C1498 1.327 . S
C1496 H1521 0.950 . S
C1497 C1496 1.349 . S
C1497 C1513 1.349 . S
C1498 C1496 1.327 . S
C1498 C1517 1.429 . S
C1498 H1522 0.950 . S
C1499 C1516 1.574 . S
C1499 C1518 1.368 . S
C1499 H1523 0.949 . S
H1500 C1504 0.949 . S
C1501 C1502 1.349 . S
C1501 C1503 1.327 . S
C1501 H1524 0.950 . S
C1502 C1501 1.349 . S
C1502 C1514 1.349 . S
C1503 C1501 1.327 . S
C1503 C1519 1.429 . S
C1503 H1525 0.950 . S
C1504 H1500 0.949 . S
C1504 C1512 1.574 . S
C1504 C1520 1.368 . S
H1505 C1513 0.950 . S
H1506 C1511 0.950 . S
H1507 C1512 0.949 . S
H1508 C1514 0.950 . S
H1509 C1515 0.950 . S
H1510 C1516 0.949 . S
C1511 H1506 0.950 . S
C1511 C1513 1.327 . S
C1511 C1517 1.429 . S
C1512 C1504 1.574 . S
C1512 H1507 0.949 . S
C1512 C1518 1.368 . S
C1513 C1497 1.349 . S
C1513 H1505 0.950 . S
C1513 C1511 1.327 . S
C1514 C1502 1.349 . S
C1514 H1508 0.950 . S
C1514 C1515 1.327 . S
C1515 H1509 0.950 . S
C1515 C1514 1.327 . S
C1515 C1519 1.429 . S
C1516 C1499 1.574 . S
C1516 H1510 0.949 . S
C1516 C1520 1.368 . S
C1517 C1498 1.429 . S
C1517 C1511 1.429 . S
C1517 C1518 1.523 . S
C1518 C1499 1.368 . S
C1518 C1512 1.368 . S
C1518 C1517 1.523 . S
C1519 C1503 1.429 . S
C1519 C1515 1.429 . S
C1519 C1520 1.523 . S
C1520 C1504 1.368 . S
C1520 C1516 1.368 . S
C1520 C1519 1.523 . S
H1521 C1496 0.950 . S
H1522 C1498 0.950 . S
H1523 C1499 0.949 . S
H1524 C1501 0.950 . S
H1525 C1503 0.950 . S
C1526 C1527 1.349 . S
C1526 C1528 1.327 . S
C1526 H1551 0.950 . S
C1527 C1526 1.349 . S
C1527 C1543 1.349 . S
C1528 C1526 1.327 . S
C1528 C1547 1.429 . S
C1528 H1552 0.950 . S
C1529 C1546 1.574 . S
C1529 C1548 1.368 . S
C1529 H1553 0.949 . S
H1530 C1534 0.949 . S
C1531 C1532 1.349 . S
C1531 C1533 1.327 . S
C1531 H1554 0.950 . S
C1532 C1531 1.349 . S
C1532 C1544 1.349 . S
C1533 C1531 1.327 . S
C1533 C1549 1.429 . S
C1533 H1555 0.950 . S
C1534 H1530 0.949 . S
C1534 C1542 1.574 . S
C1534 C1550 1.368 . S
H1535 C1543 0.950 . S
H1536 C1541 0.950 . S
H1537 C1542 0.949 . S
H1538 C1544 0.950 . S
H1539 C1545 0.950 . S
H1540 C1546 0.949 . S
C1541 H1536 0.950 . S
C1541 C1543 1.327 . S
C1541 C1547 1.429 . S
C1542 C1534 1.574 . S
C1542 H1537 0.949 . S
C1542 C1548 1.368 . S
C1543 C1527 1.349 . S
C1543 H1535 0.950 . S
C1543 C1541 1.327 . S
C1544 C1532 1.349 . S
C1544 H1538 0.950 . S
C1544 C1545 1.327 . S
C1545 H1539 0.950 . S
C1545 C1544 1.327 . S
C1545 C1549 1.429 . S
C1546 C1529 1.574 . S
C1546 H1540 0.949 . S
C1546 C1550 1.368 . S
C1547 C1528 1.429 . S
C1547 C1541 1.429 . S
C1547 C1548 1.523 . S
C1548 C1529 1.368 . S
C1548 C1542 1.368 . S
C1548 C1547 1.523 . S
C1549 C1533 1.429 . S
C1549 C1545 1.429 . S
C1549 C1550 1.523 . S
C1550 C1534 1.368 . S
C1550 C1546 1.368 . S
C1550 C1549 1.523 . S
H1551 C1526 0.950 . S
H1552 C1528 0.950 . S
H1553 C1529 0.949 . S
H1554 C1531 0.950 . S
H1555 C1533 0.950 . S
C1556 C1557 1.349 . S
C1556 C1558 1.327 . S
C1556 H1581 0.950 . S
C1557 C1556 1.349 . S
C1557 C1573 1.349 . S
C1558 C1556 1.327 . S
C1558 C1577 1.429 . S
C1558 H1582 0.950 . S
C1559 C1576 1.574 . S
C1559 C1578 1.368 . S
C1559 H1583 0.949 . S
H1560 C1564 0.949 . S
C1561 C1562 1.349 . S
C1561 C1563 1.327 . S
C1561 H1584 0.950 . S
C1562 C1561 1.349 . S
C1562 C1574 1.349 . S
C1563 C1561 1.327 . S
C1563 C1579 1.429 . S
C1563 H1585 0.950 . S
C1564 H1560 0.949 . S
C1564 C1572 1.574 . S
C1564 C1580 1.368 . S
H1565 C1573 0.950 . S
H1566 C1571 0.950 . S
H1567 C1572 0.949 . S
H1568 C1574 0.950 . S
H1569 C1575 0.950 . S
H1570 C1576 0.949 . S
C1571 H1566 0.950 . S
C1571 C1573 1.327 . S
C1571 C1577 1.429 . S
C1572 C1564 1.574 . S
C1572 H1567 0.949 . S
C1572 C1578 1.368 . S
C1573 C1557 1.349 . S
C1573 H1565 0.950 . S
C1573 C1571 1.327 . S
C1574 C1562 1.349 . S
C1574 H1568 0.950 . S
C1574 C1575 1.327 . S
C1575 H1569 0.950 . S
C1575 C1574 1.327 . S
C1575 C1579 1.429 . S
C1576 C1559 1.574 . S
C1576 H1570 0.949 . S
C1576 C1580 1.368 . S
C1577 C1558 1.429 . S
C1577 C1571 1.429 . S
C1577 C1578 1.523 . S
C1578 C1559 1.368 . S
C1578 C1572 1.368 . S
C1578 C1577 1.523 . S
C1579 C1563 1.429 . S
C1579 C1575 1.429 . S
C1579 C1580 1.523 . S
C1580 C1564 1.368 . S
C1580 C1576 1.368 . S
C1580 C1579 1.523 . S
H1581 C1556 0.950 . S
H1582 C1558 0.950 . S
H1583 C1559 0.949 . S
H1584 C1561 0.950 . S
H1585 C1563 0.950 . S
C1586 C1587 1.349 . S
C1586 C1588 1.327 . S
C1586 H1611 0.950 . S
C1587 C1586 1.349 . S
C1587 C1603 1.349 . S
C1588 C1586 1.327 . S
C1588 C1607 1.429 . S
C1588 H1612 0.950 . S
C1589 C1606 1.574 . S
C1589 C1608 1.368 . S
C1589 H1613 0.949 . S
H1590 C1594 0.949 . S
C1591 C1592 1.349 . S
C1591 C1593 1.327 . S
C1591 H1614 0.950 . S
C1592 C1591 1.349 . S
C1592 C1604 1.349 . S
C1593 C1591 1.327 . S
C1593 C1609 1.429 . S
C1593 H1615 0.950 . S
C1594 H1590 0.949 . S
C1594 C1602 1.574 . S
C1594 C1610 1.368 . S
H1595 C1603 0.950 . S
H1596 C1601 0.950 . S
H1597 C1602 0.949 . S
H1598 C1604 0.950 . S
H1599 C1605 0.950 . S
H1600 C1606 0.949 . S
C1601 H1596 0.950 . S
C1601 C1603 1.327 . S
C1601 C1607 1.429 . S
C1602 C1594 1.574 . S
C1602 H1597 0.949 . S
C1602 C1608 1.368 . S
C1603 C1587 1.349 . S
C1603 H1595 0.950 . S
C1603 C1601 1.327 . S
C1604 C1592 1.349 . S
C1604 H1598 0.950 . S
C1604 C1605 1.327 . S
C1605 H1599 0.950 . S
C1605 C1604 1.327 . S
C1605 C1609 1.429 . S
C1606 C1589 1.574 . S
C1606 H1600 0.949 . S
C1606 C1610 1.368 . S
C1607 C1588 1.429 . S
C1607 C1601 1.429 . S
C1607 C1608 1.523 . S
C1608 C1589 1.368 . S
C1608 C1602 1.368 . S
C1608 C1607 1.523 . S
C1609 C1593 1.429 . S
C1609 C1605 1.429 . S
C1609 C1610 1.523 . S
C1610 C1594 1.368 . S
C1610 C1606 1.368 . S
C1610 C1609 1.523 . S
H1611 C1586 0.950 . S
H1612 C1588 0.950 . S
H1613 C1589 0.949 . S
H1614 C1591 0.950 . S
H1615 C1593 0.950 . S
C1616 C1617 1.349 . S
C1616 C1618 1.327 . S
C1616 H1641 0.950 . S
C1617 C1616 1.349 . S
C1617 C1633 1.349 . S
C1618 C1616 1.327 . S
C1618 C1637 1.429 . S
C1618 H1642 0.950 . S
C1619 C1636 1.574 . S
C1619 C1638 1.368 . S
C1619 H1643 0.949 . S
H1620 C1624 0.949 . S
C1621 C1622 1.349 . S
C1621 C1623 1.327 . S
C1621 H1644 0.950 . S
C1622 C1621 1.349 . S
C1622 C1634 1.349 . S
C1623 C1621 1.327 . S
C1623 C1639 1.429 . S
C1623 H1645 0.950 . S
C1624 H1620 0.949 . S
C1624 C1632 1.574 . S
C1624 C1640 1.368 . S
H1625 C1633 0.950 . S
H1626 C1631 0.950 . S
H1627 C1632 0.949 . S
H1628 C1634 0.950 . S
H1629 C1635 0.950 . S
H1630 C1636 0.949 . S
C1631 H1626 0.950 . S
C1631 C1633 1.327 . S
C1631 C1637 1.429 . S
C1632 C1624 1.574 . S
C1632 H1627 0.949 . S
C1632 C1638 1.368 . S
C1633 C1617 1.349 . S
C1633 H1625 0.950 . S
C1633 C1631 1.327 . S
C1634 C1622 1.349 . S
C1634 H1628 0.950 . S
C1634 C1635 1.327 . S
C1635 H1629 0.950 . S
C1635 C1634 1.327 . S
C1635 C1639 1.429 . S
C1636 C1619 1.574 . S
C1636 H1630 0.949 . S
C1636 C1640 1.368 . S
C1637 C1618 1.429 . S
C1637 C1631 1.429 . S
C1637 C1638 1.523 . S
C1638 C1619 1.368 . S
C1638 C1632 1.368 . S
C1638 C1637 1.523 . S
C1639 C1623 1.429 . S
C1639 C1635 1.429 . S
C1639 C1640 1.523 . S
C1640 C1624 1.368 . S
C1640 C1636 1.368 . S
C1640 C1639 1.523 . S
H1641 C1616 0.950 . S
H1642 C1618 0.950 . S
H1643 C1619 0.949 . S
H1644 C1621 0.950 . S
H1645 C1623 0.950 . S
C1646 C1647 1.349 . S
C1646 C1648 1.327 . S
C1646 H1671 0.950 . S
C1647 C1646 1.349 . S
C1647 C1663 1.349 . S
C1648 C1646 1.327 . S
C1648 C1667 1.429 . S
C1648 H1672 0.950 . S
C1649 C1666 1.574 . S
C1649 C1668 1.368 . S
C1649 H1673 0.949 . S
H1650 C1654 0.949 . S
C1651 C1652 1.349 . S
C1651 C1653 1.327 . S
C1651 H1674 0.950 . S
C1652 C1651 1.349 . S
C1652 C1664 1.349 . S
C1653 C1651 1.327 . S
C1653 C1669 1.429 . S
C1653 H1675 0.950 . S
C1654 H1650 0.949 . S
C1654 C1662 1.574 . S
C1654 C1670 1.368 . S
H1655 C1663 0.950 . S
H1656 C1661 0.950 . S
H1657 C1662 0.949 . S
H1658 C1664 0.950 . S
H1659 C1665 0.950 . S
H1660 C1666 0.949 . S
C1661 H1656 0.950 . S
C1661 C1663 1.327 . S
C1661 C1667 1.429 . S
C1662 C1654 1.574 . S
C1662 H1657 0.949 . S
C1662 C1668 1.368 . S
C1663 C1647 1.349 . S
C1663 H1655 0.950 . S
C1663 C1661 1.327 . S
C1664 C1652 1.349 . S
C1664 H1658 0.950 . S
C1664 C1665 1.327 . S
C1665 H1659 0.950 . S
C1665 C1664 1.327 . S
C1665 C1669 1.429 . S
C1666 C1649 1.574 . S
C1666 H1660 0.949 . S
C1666 C1670 1.368 . S
C1667 C1648 1.429 . S
C1667 C1661 1.429 . S
C1667 C1668 1.523 . S
C1668 C1649 1.368 . S
C1668 C1662 1.368 . S
C1668 C1667 1.523 . S
C1669 C1653 1.429 . S
C1669 C1665 1.429 . S
C1669 C1670 1.523 . S
C1670 C1654 1.368 . S
C1670 C1666 1.368 . S
C1670 C1669 1.523 . S
H1671 C1646 0.950 . S
H1672 C1648 0.950 . S
H1673 C1649 0.949 . S
H1674 C1651 0.950 . S
H1675 C1653 0.950 . S
C1676 C1677 1.349 . S
C1676 C1678 1.327 . S
C1676 H1701 0.950 . S
C1677 C1676 1.349 . S
C1677 C1693 1.349 . S
C1678 C1676 1.327 . S
C1678 C1697 1.429 . S
C1678 H1702 0.950 . S
C1679 C1696 1.574 . S
C1679 C1698 1.368 . S
C1679 H1703 0.949 . S
H1680 C1684 0.949 . S
C1681 C1682 1.349 . S
C1681 C1683 1.327 . S
C1681 H1704 0.950 . S
C1682 C1681 1.349 . S
C1682 C1694 1.349 . S
C1683 C1681 1.327 . S
C1683 C1699 1.429 . S
C1683 H1705 0.950 . S
C1684 H1680 0.949 . S
C1684 C1692 1.574 . S
C1684 C1700 1.368 . S
H1685 C1693 0.950 . S
H1686 C1691 0.950 . S
H1687 C1692 0.949 . S
H1688 C1694 0.950 . S
H1689 C1695 0.950 . S
H1690 C1696 0.949 . S
C1691 H1686 0.950 . S
C1691 C1693 1.327 . S
C1691 C1697 1.429 . S
C1692 C1684 1.574 . S
C1692 H1687 0.949 . S
C1692 C1698 1.368 . S
C1693 C1677 1.349 . S
C1693 H1685 0.950 . S
C1693 C1691 1.327 . S
C1694 C1682 1.349 . S
C1694 H1688 0.950 . S
C1694 C1695 1.327 . S
C1695 H1689 0.950 . S
C1695 C1694 1.327 . S
C1695 C1699 1.429 . S
C1696 C1679 1.574 . S
C1696 H1690 0.949 . S
C1696 C1700 1.368 . S
C1697 C1678 1.429 . S
C1697 C1691 1.429 . S
C1697 C1698 1.523 . S
C1698 C1679 1.368 . S
C1698 C1692 1.368 . S
C1698 C1697 1.523 . S
C1699 C1683 1.429 . S
C1699 C1695 1.429 . S
C1699 C1700 1.523 . S
C1700 C1684 1.368 . S
C1700 C1696 1.368 . S
C1700 C1699 1.523 . S
H1701 C1676 0.950 . S
H1702 C1678 0.950 . S
H1703 C1679 0.949 . S
H1704 C1681 0.950 . S
H1705 C1683 0.950 . S
C1706 C1707 1.349 . S
C1706 C1708 1.327 . S
C1706 H1731 0.950 . S
C1707 C1706 1.349 . S
C1707 C1723 1.349 . S
C1708 C1706 1.327 . S
C1708 C1727 1.429 . S
C1708 H1732 0.950 . S
C1709 C1726 1.574 . S
C1709 C1728 1.368 . S
C1709 H1733 0.949 . S
H1710 C1714 0.949 . S
C1711 C1712 1.349 . S
C1711 C1713 1.327 . S
C1711 H1734 0.950 . S
C1712 C1711 1.349 . S
C1712 C1724 1.349 . S
C1713 C1711 1.327 . S
C1713 C1729 1.429 . S
C1713 H1735 0.950 . S
C1714 H1710 0.949 . S
C1714 C1722 1.574 . S
C1714 C1730 1.368 . S
H1715 C1723 0.950 . S
H1716 C1721 0.950 . S
H1717 C1722 0.949 . S
H1718 C1724 0.950 . S
H1719 C1725 0.950 . S
H1720 C1726 0.949 . S
C1721 H1716 0.950 . S
C1721 C1723 1.327 . S
C1721 C1727 1.429 . S
C1722 C1714 1.574 . S
C1722 H1717 0.949 . S
C1722 C1728 1.368 . S
C1723 C1707 1.349 . S
C1723 H1715 0.950 . S
C1723 C1721 1.327 . S
C1724 C1712 1.349 . S
C1724 H1718 0.950 . S
C1724 C1725 1.327 . S
C1725 H1719 0.950 . S
C1725 C1724 1.327 . S
C1725 C1729 1.429 . S
C1726 C1709 1.574 . S
C1726 H1720 0.949 . S
C1726 C1730 1.368 . S
C1727 C1708 1.429 . S
C1727 C1721 1.429 . S
C1727 C1728 1.523 . S
C1728 C1709 1.368 . S
C1728 C1722 1.368 . S
C1728 C1727 1.523 . S
C1729 C1713 1.429 . S
C1729 C1725 1.429 . S
C1729 C1730 1.523 . S
C1730 C1714 1.368 . S
C1730 C1726 1.368 . S
C1730 C1729 1.523 . S
H1731 C1706 0.950 . S
H1732 C1708 0.950 . S
H1733 C1709 0.949 . S
H1734 C1711 0.950 . S
H1735 C1713 0.950 . S
C1736 C1737 1.349 . S
C1736 C1738 1.327 . S
C1736 H1761 0.950 . S
C1737 C1736 1.349 . S
C1737 C1753 1.349 . S
C1738 C1736 1.327 . S
C1738 C1757 1.429 . S
C1738 H1762 0.950 . S
C1739 C1756 1.574 . S
C1739 C1758 1.368 . S
C1739 H1763 0.949 . S
H1740 C1744 0.949 . S
C1741 C1742 1.349 . S
C1741 C1743 1.327 . S
C1741 H1764 0.950 . S
C1742 C1741 1.349 . S
C1742 C1754 1.349 . S
C1743 C1741 1.327 . S
C1743 C1759 1.429 . S
C1743 H1765 0.950 . S
C1744 H1740 0.949 . S
C1744 C1752 1.574 . S
C1744 C1760 1.368 . S
H1745 C1753 0.950 . S
H1746 C1751 0.950 . S
H1747 C1752 0.949 . S
H1748 C1754 0.950 . S
H1749 C1755 0.950 . S
H1750 C1756 0.949 . S
C1751 H1746 0.950 . S
C1751 C1753 1.327 . S
C1751 C1757 1.429 . S
C1752 C1744 1.574 . S
C1752 H1747 0.949 . S
C1752 C1758 1.368 . S
C1753 C1737 1.349 . S
C1753 H1745 0.950 . S
C1753 C1751 1.327 . S
C1754 C1742 1.349 . S
C1754 H1748 0.950 . S
C1754 C1755 1.327 . S
C1755 H1749 0.950 . S
C1755 C1754 1.327 . S
C1755 C1759 1.429 . S
C1756 C1739 1.574 . S
C1756 H1750 0.949 . S
C1756 C1760 1.368 . S
C1757 C1738 1.429 . S
C1757 C1751 1.429 . S
C1757 C1758 1.523 . S
C1758 C1739 1.368 . S
C1758 C1752 1.368 . S
C1758 C1757 1.523 . S
C1759 C1743 1.429 . S
C1759 C1755 1.429 . S
C1759 C1760 1.523 . S
C1760 C1744 1.368 . S
C1760 C1756 1.368 . S
C1760 C1759 1.523 . S
H1761 C1736 0.950 . S
H1762 C1738 0.950 . S
H1763 C1739 0.949 . S
H1764 C1741 0.950 . S
H1765 C1743 0.950 . S
C1766 C1767 1.349 . S
C1766 C1768 1.327 . S
C1766 H1791 0.950 . S
C1767 C1766 1.349 . S
C1767 C1783 1.349 . S
C1768 C1766 1.327 . S
C1768 C1787 1.429 . S
C1768 H1792 0.950 . S
C1769 C1786 1.574 . S
C1769 C1788 1.368 . S
C1769 H1793 0.949 . S
H1770 C1774 0.949 . S
C1771 C1772 1.349 . S
C1771 C1773 1.327 . S
C1771 H1794 0.950 . S
C1772 C1771 1.349 . S
C1772 C1784 1.349 . S
C1773 C1771 1.327 . S
C1773 C1789 1.429 . S
C1773 H1795 0.950 . S
C1774 H1770 0.949 . S
C1774 C1782 1.574 . S
C1774 C1790 1.368 . S
H1775 C1783 0.950 . S
H1776 C1781 0.950 . S
H1777 C1782 0.949 . S
H1778 C1784 0.950 . S
H1779 C1785 0.950 . S
H1780 C1786 0.949 . S
C1781 H1776 0.950 . S
C1781 C1783 1.327 . S
C1781 C1787 1.429 . S
C1782 C1774 1.574 . S
C1782 H1777 0.949 . S
C1782 C1788 1.368 . S
C1783 C1767 1.349 . S
C1783 H1775 0.950 . S
C1783 C1781 1.327 . S
C1784 C1772 1.349 . S
C1784 H1778 0.950 . S
C1784 C1785 1.327 . S
C1785 H1779 0.950 . S
C1785 C1784 1.327 . S
C1785 C1789 1.429 . S
C1786 C1769 1.574 . S
C1786 H1780 0.949 . S
C1786 C1790 1.368 . S
C1787 C1768 1.429 . S
C1787 C1781 1.429 . S
C1787 C1788 1.523 . S
C1788 C1769 1.368 . S
C1788 C1782 1.368 . S
C1788 C1787 1.523 . S
C1789 C1773 1.429 . S
C1789 C1785 1.429 . S
C1789 C1790 1.523 . S
C1790 C1774 1.368 . S
C1790 C1786 1.368 . S
C1790 C1789 1.523 . S
H1791 C1766 0.950 . S
H1792 C1768 0.950 . S
H1793 C1769 0.949 . S
H1794 C1771 0.950 . S
H1795 C1773 0.950 . S
C1796 C1797 1.349 . S
C1796 C1798 1.327 . S
C1796 H1821 0.950 . S
C1797 C1796 1.349 . S
C1797 C1813 1.349 . S
C1798 C1796 1.327 . S
C1798 C1817 1.429 . S
C1798 H1822 0.950 . S
C1799 C1816 1.574 . S
C1799 C1818 1.368 . S
C1799 H1823 0.949 . S
H1800 C1804 0.949 . S
C1801 C1802 1.349 . S
C1801 C1803 1.327 . S
C1801 H1824 0.950 . S
C1802 C1801 1.349 . S
C1802 C1814 1.349 . S
C1803 C1801 1.327 . S
C1803 C1819 1.429 . S
C1803 H1825 0.950 . S
C1804 H1800 0.949 . S
C1804 C1812 1.574 . S
C1804 C1820 1.368 . S
H1805 C1813 0.950 . S
H1806 C1811 0.950 . S
H1807 C1812 0.949 . S
H1808 C1814 0.950 . S
H1809 C1815 0.950 . S
H1810 C1816 0.949 . S
C1811 H1806 0.950 . S
C1811 C1813 1.327 . S
C1811 C1817 1.429 . S
C1812 C1804 1.574 . S
C1812 H1807 0.949 . S
C1812 C1818 1.368 . S
C1813 C1797 1.349 . S
C1813 H1805 0.950 . S
C1813 C1811 1.327 . S
C1814 C1802 1.349 . S
C1814 H1808 0.950 . S
C1814 C1815 1.327 . S
C1815 H1809 0.950 . S
C1815 C1814 1.327 . S
C1815 C1819 1.429 . S
C1816 C1799 1.574 . S
C1816 H1810 0.949 . S
C1816 C1820 1.368 . S
C1817 C1798 1.429 . S
C1817 C1811 1.429 . S
C1817 C1818 1.523 . S
C1818 C1799 1.368 . S
C1818 C1812 1.368 . S
C1818 C1817 1.523 . S
C1819 C1803 1.429 . S
C1819 C1815 1.429 . S
C1819 C1820 1.523 . S
C1820 C1804 1.368 . S
C1820 C1816 1.368 . S
C1820 C1819 1.523 . S
H1821 C1796 0.950 . S
H1822 C1798 0.950 . S
H1823 C1799 0.949 . S
H1824 C1801 0.950 . S
H1825 C1803 0.950 . S
C1826 C1827 1.349 . S
C1826 C1828 1.327 . S
C1826 H1851 0.950 . S
C1827 C1826 1.349 . S
C1827 C1843 1.349 . S
C1828 C1826 1.327 . S
C1828 C1847 1.429 . S
C1828 H1852 0.950 . S
C1829 C1846 1.574 . S
C1829 C1848 1.368 . S
C1829 H1853 0.949 . S
H1830 C1834 0.949 . S
C1831 C1832 1.349 . S
C1831 C1833 1.327 . S
C1831 H1854 0.950 . S
C1832 C1831 1.349 . S
C1832 C1844 1.349 . S
C1833 C1831 1.327 . S
C1833 C1849 1.429 . S
C1833 H1855 0.950 . S
C1834 H1830 0.949 . S
C1834 C1842 1.574 . S
C1834 C1850 1.368 . S
H1835 C1843 0.950 . S
H1836 C1841 0.950 . S
H1837 C1842 0.949 . S
H1838 C1844 0.950 . S
H1839 C1845 0.950 . S
H1840 C1846 0.949 . S
C1841 H1836 0.950 . S
C1841 C1843 1.327 . S
C1841 C1847 1.429 . S
C1842 C1834 1.574 . S
C1842 H1837 0.949 . S
C1842 C1848 1.368 . S
C1843 C1827 1.349 . S
C1843 H1835 0.950 . S
C1843 C1841 1.327 . S
C1844 C1832 1.349 . S
C1844 H1838 0.950 . S
C1844 C1845 1.327 . S
C1845 H1839 0.950 . S
C1845 C1844 1.327 . S
C1845 C1849 1.429 . S
C1846 C1829 1.574 . S
C1846 H1840 0.949 . S
C1846 C1850 1.368 . S
C1847 C1828 1.429 . S
C1847 C1841 1.429 . S
C1847 C1848 1.523 . S
C1848 C1829 1.368 . S
C1848 C1842 1.368 . S
C1848 C1847 1.523 . S
C1849 C1833 1.429 . S
C1849 C1845 1.429 . S
C1849 C1850 1.523 . S
C1850 C1834 1.368 . S
C1850 C1846 1.368 . S
C1850 C1849 1.523 . S
H1851 C1826 0.950 . S
H1852 C1828 0.950 . S
H1853 C1829 0.949 . S
H1854 C1831 0.950 . S
H1855 C1833 0.950 . S
C1856 C1857 1.349 . S
C1856 C1858 1.327 1_565 S
C1856 H1881 0.950 . S
C1857 C1856 1.349 . S
C1857 C1873 1.349 . S
C1858 C1856 1.327 1_545 S
C1858 C1877 1.429 . S
C1858 H1882 0.950 . S
C1859 C1876 1.574 . S
C1859 C1878 1.368 . S
C1859 H1883 0.949 . S
H1860 C1864 0.949 . S
C1861 C1862 1.349 . S
C1861 C1863 1.327 . S
C1861 H1884 0.950 . S
C1862 C1861 1.349 . S
C1862 C1874 1.349 . S
C1863 C1861 1.327 . S
C1863 C1879 1.429 . S
C1863 H1885 0.950 . S
C1864 H1860 0.949 . S
C1864 C1872 1.574 . S
C1864 C1880 1.368 . S
H1865 C1873 0.950 . S
H1866 C1871 0.950 . S
H1867 C1872 0.949 . S
H1868 C1874 0.950 . S
H1869 C1875 0.950 . S
H1870 C1876 0.949 . S
C1871 H1866 0.950 . S
C1871 C1873 1.327 1_545 S
C1871 C1877 1.429 . S
C1872 C1864 1.574 . S
C1872 H1867 0.949 . S
C1872 C1878 1.368 . S
C1873 C1857 1.349 . S
C1873 H1865 0.950 . S
C1873 C1871 1.327 1_565 S
C1874 C1862 1.349 . S
C1874 H1868 0.950 . S
C1874 C1875 1.327 . S
C1875 H1869 0.950 . S
C1875 C1874 1.327 . S
C1875 C1879 1.429 . S
C1876 C1859 1.574 . S
C1876 H1870 0.949 . S
C1876 C1880 1.368 . S
C1877 C1858 1.429 . S
C1877 C1871 1.429 . S
C1877 C1878 1.523 . S
C1878 C1859 1.368 . S
C1878 C1872 1.368 . S
C1878 C1877 1.523 . S
C1879 C1863 1.429 . S
C1879 C1875 1.429 . S
C1879 C1880 1.523 . S
C1880 C1864 1.368 . S
C1880 C1876 1.368 . S
C1880 C1879 1.523 . S
H1881 C1856 0.950 . S
H1882 C1858 0.950 . S
H1883 C1859 0.949 . S
H1884 C1861 0.950 . S
H1885 C1863 0.950 . S
C1886 C1887 1.349 . S
C1886 C1888 1.327 1_565 S
C1886 H1911 0.950 . S
C1887 C1886 1.349 . S
C1887 C1903 1.349 . S
C1888 C1886 1.327 1_545 S
C1888 C1907 1.429 . S
C1888 H1912 0.950 . S
C1889 C1906 1.574 . S
C1889 C1908 1.368 . S
C1889 H1913 0.949 . S
H1890 C1894 0.949 . S
C1891 C1892 1.349 . S
C1891 C1893 1.327 . S
C1891 H1914 0.950 . S
C1892 C1891 1.349 . S
C1892 C1904 1.349 . S
C1893 C1891 1.327 . S
C1893 C1909 1.429 . S
C1893 H1915 0.950 . S
C1894 H1890 0.949 . S
C1894 C1902 1.574 . S
C1894 C1910 1.368 . S
H1895 C1903 0.950 . S
H1896 C1901 0.950 . S
H1897 C1902 0.949 . S
H1898 C1904 0.950 . S
H1899 C1905 0.950 . S
H1900 C1906 0.949 . S
C1901 H1896 0.950 . S
C1901 C1903 1.327 1_545 S
C1901 C1907 1.429 . S
C1902 C1894 1.574 . S
C1902 H1897 0.949 . S
C1902 C1908 1.368 . S
C1903 C1887 1.349 . S
C1903 H1895 0.950 . S
C1903 C1901 1.327 1_565 S
C1904 C1892 1.349 . S
C1904 H1898 0.950 . S
C1904 C1905 1.327 . S
C1905 H1899 0.950 . S
C1905 C1904 1.327 . S
C1905 C1909 1.429 . S
C1906 C1889 1.574 . S
C1906 H1900 0.949 . S
C1906 C1910 1.368 . S
C1907 C1888 1.429 . S
C1907 C1901 1.429 . S
C1907 C1908 1.523 . S
C1908 C1889 1.368 . S
C1908 C1902 1.368 . S
C1908 C1907 1.523 . S
C1909 C1893 1.429 . S
C1909 C1905 1.429 . S
C1909 C1910 1.523 . S
C1910 C1894 1.368 . S
C1910 C1906 1.368 . S
C1910 C1909 1.523 . S
H1911 C1886 0.950 . S
H1912 C1888 0.950 . S
H1913 C1889 0.949 . S
H1914 C1891 0.950 . S
H1915 C1893 0.950 . S
C1916 C1917 1.349 . S
C1916 C1918 1.327 . S
C1916 H1941 0.950 . S
C1917 C1916 1.349 . S
C1917 C1933 1.349 . S
C1918 C1916 1.327 . S
C1918 C1937 1.429 . S
C1918 H1942 0.950 . S
C1919 C1936 1.574 . S
C1919 C1938 1.368 . S
C1919 H1943 0.949 . S
H1920 C1924 0.949 . S
C1921 C1922 1.349 . S
C1921 C1923 1.327 1_545 S
C1921 H1944 0.950 . S
C1922 C1921 1.349 . S
C1922 C1934 1.349 . S
C1923 C1921 1.327 1_565 S
C1923 C1939 1.429 . S
C1923 H1945 0.950 . S
C1924 H1920 0.949 . S
C1924 C1932 1.574 . S
C1924 C1940 1.368 . S
H1925 C1933 0.950 . S
H1926 C1931 0.950 . S
H1927 C1932 0.949 . S
H1928 C1934 0.950 . S
H1929 C1935 0.950 . S
H1930 C1936 0.949 . S
C1931 H1926 0.950 . S
C1931 C1933 1.327 . S
C1931 C1937 1.429 . S
C1932 C1924 1.574 . S
C1932 H1927 0.949 . S
C1932 C1938 1.368 . S
C1933 C1917 1.349 . S
C1933 H1925 0.950 . S
C1933 C1931 1.327 . S
C1934 C1922 1.349 . S
C1934 H1928 0.950 . S
C1934 C1935 1.327 1_545 S
C1935 H1929 0.950 . S
C1935 C1934 1.327 1_565 S
C1935 C1939 1.429 . S
C1936 C1919 1.574 . S
C1936 H1930 0.949 . S
C1936 C1940 1.368 . S
C1937 C1918 1.429 . S
C1937 C1931 1.429 . S
C1937 C1938 1.523 . S
C1938 C1919 1.368 . S
C1938 C1932 1.368 . S
C1938 C1937 1.523 . S
C1939 C1923 1.429 . S
C1939 C1935 1.429 . S
C1939 C1940 1.523 . S
C1940 C1924 1.368 . S
C1940 C1936 1.368 . S
C1940 C1939 1.523 . S
H1941 C1916 0.950 . S
H1942 C1918 0.950 . S
H1943 C1919 0.949 . S
H1944 C1921 0.950 . S
H1945 C1923 0.950 . S
C1946 C1947 1.349 . S
C1946 C1948 1.327 1_545 S
C1946 H1971 0.950 . S
C1947 C1946 1.349 . S
C1947 C1963 1.349 . S
C1948 C1946 1.327 1_565 S
C1948 C1967 1.429 . S
C1948 H1972 0.950 . S
C1949 C1966 1.574 . S
C1949 C1968 1.368 . S
C1949 H1973 0.949 . S
H1950 C1954 0.949 . S
C1951 C1952 1.349 . S
C1951 C1953 1.327 . S
C1951 H1974 0.950 . S
C1952 C1951 1.349 . S
C1952 C1964 1.349 . S
C1953 C1951 1.327 . S
C1953 C1969 1.429 . S
C1953 H1975 0.950 . S
C1954 H1950 0.949 . S
C1954 C1962 1.574 . S
C1954 C1970 1.368 . S
H1955 C1963 0.950 . S
H1956 C1961 0.950 . S
H1957 C1962 0.949 . S
H1958 C1964 0.950 . S
H1959 C1965 0.950 . S
H1960 C1966 0.949 . S
C1961 H1956 0.950 . S
C1961 C1963 1.327 1_565 S
C1961 C1967 1.429 . S
C1962 C1954 1.574 . S
C1962 H1957 0.949 . S
C1962 C1968 1.368 . S
C1963 C1947 1.349 . S
C1963 H1955 0.950 . S
C1963 C1961 1.327 1_545 S
C1964 C1952 1.349 . S
C1964 H1958 0.950 . S
C1964 C1965 1.327 . S
C1965 H1959 0.950 . S
C1965 C1964 1.327 . S
C1965 C1969 1.429 . S
C1966 C1949 1.574 . S
C1966 H1960 0.949 . S
C1966 C1970 1.368 . S
C1967 C1948 1.429 . S
C1967 C1961 1.429 . S
C1967 C1968 1.523 . S
C1968 C1949 1.368 . S
C1968 C1962 1.368 . S
C1968 C1967 1.523 . S
C1969 C1953 1.429 . S
C1969 C1965 1.429 . S
C1969 C1970 1.523 . S
C1970 C1954 1.368 . S
C1970 C1966 1.368 . S
C1970 C1969 1.523 . S
H1971 C1946 0.950 . S
H1972 C1948 0.950 . S
H1973 C1949 0.949 . S
H1974 C1951 0.950 . S
H1975 C1953 0.950 . S
C1976 C1977 1.349 . S
C1976 C1978 1.327 . S
C1976 H2001 0.950 . S
C1977 C1976 1.349 . S
C1977 C1993 1.349 . S
C1978 C1976 1.327 . S
C1978 C1997 1.429 . S
C1978 H2002 0.950 . S
C1979 C1996 1.574 . S
C1979 C1998 1.368 . S
C1979 H2003 0.949 . S
H1980 C1984 0.949 . S
C1981 C1982 1.349 . S
C1981 C1983 1.327 . S
C1981 H2004 0.950 . S
C1982 C1981 1.349 . S
C1982 C1994 1.349 . S
C1983 C1981 1.327 . S
C1983 C1999 1.429 . S
C1983 H2005 0.950 . S
C1984 H1980 0.949 . S
C1984 C1992 1.574 . S
C1984 C2000 1.368 . S
H1985 C1993 0.950 . S
H1986 C1991 0.950 . S
H1987 C1992 0.949 . S
H1988 C1994 0.950 . S
H1989 C1995 0.950 . S
H1990 C1996 0.949 . S
C1991 H1986 0.950 . S
C1991 C1993 1.327 . S
C1991 C1997 1.429 . S
C1992 C1984 1.574 . S
C1992 H1987 0.949 . S
C1992 C1998 1.368 . S
C1993 C1977 1.349 . S
C1993 H1985 0.950 . S
C1993 C1991 1.327 . S
C1994 C1982 1.349 . S
C1994 H1988 0.950 . S
C1994 C1995 1.327 . S
C1995 H1989 0.950 . S
C1995 C1994 1.327 . S
C1995 C1999 1.429 . S
C1996 C1979 1.574 . S
C1996 H1990 0.949 . S
C1996 C2000 1.368 . S
C1997 C1978 1.429 . S
C1997 C1991 1.429 . S
C1997 C1998 1.523 . S
C1998 C1979 1.368 . S
C1998 C1992 1.368 . S
C1998 C1997 1.523 . S
C1999 C1983 1.429 . S
C1999 C1995 1.429 . S
C1999 C2000 1.523 . S
C2000 C1984 1.368 . S
C2000 C1996 1.368 . S
C2000 C1999 1.523 . S
H2001 C1976 0.950 . S
H2002 C1978 0.950 . S
H2003 C1979 0.949 . S
H2004 C1981 0.950 . S
H2005 C1983 0.950 . S
C2006 C2007 1.349 . S
C2006 C2008 1.327 . S
C2006 H2031 0.950 . S
C2007 C2006 1.349 . S
C2007 C2023 1.349 . S
C2008 C2006 1.327 . S
C2008 C2027 1.429 . S
C2008 H2032 0.950 . S
C2009 C2026 1.574 . S
C2009 C2028 1.368 . S
C2009 H2033 0.949 . S
H2010 C2014 0.949 . S
C2011 C2012 1.349 . S
C2011 C2013 1.327 . S
C2011 H2034 0.950 . S
C2012 C2011 1.349 . S
C2012 C2024 1.349 . S
C2013 C2011 1.327 . S
C2013 C2029 1.429 . S
C2013 H2035 0.950 . S
C2014 H2010 0.949 . S
C2014 C2022 1.574 . S
C2014 C2030 1.368 . S
H2015 C2023 0.950 . S
H2016 C2021 0.950 . S
H2017 C2022 0.949 . S
H2018 C2024 0.950 . S
H2019 C2025 0.950 . S
H2020 C2026 0.949 . S
C2021 H2016 0.950 . S
C2021 C2023 1.327 . S
C2021 C2027 1.429 . S
C2022 C2014 1.574 . S
C2022 H2017 0.949 . S
C2022 C2028 1.368 . S
C2023 C2007 1.349 . S
C2023 H2015 0.950 . S
C2023 C2021 1.327 . S
C2024 C2012 1.349 . S
C2024 H2018 0.950 . S
C2024 C2025 1.327 . S
C2025 H2019 0.950 . S
C2025 C2024 1.327 . S
C2025 C2029 1.429 . S
C2026 C2009 1.574 . S
C2026 H2020 0.949 . S
C2026 C2030 1.368 . S
C2027 C2008 1.429 . S
C2027 C2021 1.429 . S
C2027 C2028 1.523 . S
C2028 C2009 1.368 . S
C2028 C2022 1.368 . S
C2028 C2027 1.523 . S
C2029 C2013 1.429 . S
C2029 C2025 1.429 . S
C2029 C2030 1.523 . S
C2030 C2014 1.368 . S
C2030 C2026 1.368 . S
C2030 C2029 1.523 . S
H2031 C2006 0.950 . S
H2032 C2008 0.950 . S
H2033 C2009 0.949 . S
H2034 C2011 0.950 . S
H2035 C2013 0.950 . S
C2036 C2037 1.349 . S
C2036 C2038 1.327 . S
C2036 H2061 0.950 . S
C2037 C2036 1.349 . S
C2037 C2053 1.349 . S
C2038 C2036 1.327 . S
C2038 C2057 1.429 . S
C2038 H2062 0.950 . S
C2039 C2056 1.574 . S
C2039 C2058 1.368 . S
C2039 H2063 0.949 . S
H2040 C2044 0.949 . S
C2041 C2042 1.349 . S
C2041 C2043 1.327 . S
C2041 H2064 0.950 . S
C2042 C2041 1.349 . S
C2042 C2054 1.349 . S
C2043 C2041 1.327 . S
C2043 C2059 1.429 . S
C2043 H2065 0.950 . S
C2044 H2040 0.949 . S
C2044 C2052 1.574 . S
C2044 C2060 1.368 . S
H2045 C2053 0.950 . S
H2046 C2051 0.950 . S
H2047 C2052 0.949 . S
H2048 C2054 0.950 . S
H2049 C2055 0.950 . S
H2050 C2056 0.949 . S
C2051 H2046 0.950 . S
C2051 C2053 1.327 . S
C2051 C2057 1.429 . S
C2052 C2044 1.574 . S
C2052 H2047 0.949 . S
C2052 C2058 1.368 . S
C2053 C2037 1.349 . S
C2053 H2045 0.950 . S
C2053 C2051 1.327 . S
C2054 C2042 1.349 . S
C2054 H2048 0.950 . S
C2054 C2055 1.327 . S
C2055 H2049 0.950 . S
C2055 C2054 1.327 . S
C2055 C2059 1.429 . S
C2056 C2039 1.574 . S
C2056 H2050 0.949 . S
C2056 C2060 1.368 . S
C2057 C2038 1.429 . S
C2057 C2051 1.429 . S
C2057 C2058 1.523 . S
C2058 C2039 1.368 . S
C2058 C2052 1.368 . S
C2058 C2057 1.523 . S
C2059 C2043 1.429 . S
C2059 C2055 1.429 . S
C2059 C2060 1.523 . S
C2060 C2044 1.368 . S
C2060 C2056 1.368 . S
C2060 C2059 1.523 . S
H2061 C2036 0.950 . S
H2062 C2038 0.950 . S
H2063 C2039 0.949 . S
H2064 C2041 0.950 . S
H2065 C2043 0.950 . S
C2066 C2067 1.349 . S
C2066 C2068 1.327 . S
C2066 H2091 0.950 . S
C2067 C2066 1.349 . S
C2067 C2083 1.349 . S
C2068 C2066 1.327 . S
C2068 C2087 1.429 . S
C2068 H2092 0.950 . S
C2069 C2086 1.574 . S
C2069 C2088 1.368 . S
C2069 H2093 0.949 . S
H2070 C2074 0.949 . S
C2071 C2072 1.349 . S
C2071 C2073 1.327 . S
C2071 H2094 0.950 . S
C2072 C2071 1.349 . S
C2072 C2084 1.349 . S
C2073 C2071 1.327 . S
C2073 C2089 1.429 . S
C2073 H2095 0.950 . S
C2074 H2070 0.949 . S
C2074 C2082 1.574 . S
C2074 C2090 1.368 . S
H2075 C2083 0.950 . S
H2076 C2081 0.950 . S
H2077 C2082 0.949 . S
H2078 C2084 0.950 . S
H2079 C2085 0.950 . S
H2080 C2086 0.949 . S
C2081 H2076 0.950 . S
C2081 C2083 1.327 . S
C2081 C2087 1.429 . S
C2082 C2074 1.574 . S
C2082 H2077 0.949 . S
C2082 C2088 1.368 . S
C2083 C2067 1.349 . S
C2083 H2075 0.950 . S
C2083 C2081 1.327 . S
C2084 C2072 1.349 . S
C2084 H2078 0.950 . S
C2084 C2085 1.327 . S
C2085 H2079 0.950 . S
C2085 C2084 1.327 . S
C2085 C2089 1.429 . S
C2086 C2069 1.574 . S
C2086 H2080 0.949 . S
C2086 C2090 1.368 . S
C2087 C2068 1.429 . S
C2087 C2081 1.429 . S
C2087 C2088 1.523 . S
C2088 C2069 1.368 . S
C2088 C2082 1.368 . S
C2088 C2087 1.523 . S
C2089 C2073 1.429 . S
C2089 C2085 1.429 . S
C2089 C2090 1.523 . S
C2090 C2074 1.368 . S
C2090 C2086 1.368 . S
C2090 C2089 1.523 . S
H2091 C2066 0.950 . S
H2092 C2068 0.950 . S
H2093 C2069 0.949 . S
H2094 C2071 0.950 . S
H2095 C2073 0.950 . S
C2096 C2097 1.349 . S
C2096 C2098 1.327 1_565 S
C2096 H2121 0.950 . S
C2097 C2096 1.349 . S
C2097 C2113 1.349 . S
C2098 C2096 1.327 1_545 S
C2098 C2117 1.429 . S
C2098 H2122 0.950 . S
C2099 C2116 1.574 . S
C2099 C2118 1.368 . S
C2099 H2123 0.949 . S
H2100 C2104 0.949 . S
C2101 C2102 1.349 . S
C2101 C2103 1.327 . S
C2101 H2124 0.950 . S
C2102 C2101 1.349 . S
C2102 C2114 1.349 . S
C2103 C2101 1.327 . S
C2103 C2119 1.429 . S
C2103 H2125 0.950 . S
C2104 H2100 0.949 . S
C2104 C2112 1.574 . S
C2104 C2120 1.368 . S
H2105 C2113 0.950 . S
H2106 C2111 0.950 . S
H2107 C2112 0.949 . S
H2108 C2114 0.950 . S
H2109 C2115 0.950 . S
H2110 C2116 0.949 . S
C2111 H2106 0.950 . S
C2111 C2113 1.327 1_545 S
C2111 C2117 1.429 . S
C2112 C2104 1.574 . S
C2112 H2107 0.949 . S
C2112 C2118 1.368 . S
C2113 C2097 1.349 . S
C2113 H2105 0.950 . S
C2113 C2111 1.327 1_565 S
C2114 C2102 1.349 . S
C2114 H2108 0.950 . S
C2114 C2115 1.327 . S
C2115 H2109 0.950 . S
C2115 C2114 1.327 . S
C2115 C2119 1.429 . S
C2116 C2099 1.574 . S
C2116 H2110 0.949 . S
C2116 C2120 1.368 . S
C2117 C2098 1.429 . S
C2117 C2111 1.429 . S
C2117 C2118 1.523 . S
C2118 C2099 1.368 . S
C2118 C2112 1.368 . S
C2118 C2117 1.523 . S
C2119 C2103 1.429 . S
C2119 C2115 1.429 . S
C2119 C2120 1.523 . S
C2120 C2104 1.368 . S
C2120 C2116 1.368 . S
C2120 C2119 1.523 . S
H2121 C2096 0.950 . S
H2122 C2098 0.950 . S
H2123 C2099 0.949 . S
H2124 C2101 0.950 . S
H2125 C2103 0.950 . S
C2126 C2127 1.349 . S
C2126 C2128 1.327 . S
C2126 H2151 0.950 . S
C2127 C2126 1.349 . S
C2127 C2143 1.349 . S
C2128 C2126 1.327 . S
C2128 C2147 1.429 . S
C2128 H2152 0.950 . S
C2129 C2146 1.574 . S
C2129 C2148 1.368 . S
C2129 H2153 0.949 . S
H2130 C2134 0.949 . S
C2131 C2132 1.349 . S
C2131 C2133 1.327 1_565 S
C2131 H2154 0.950 . S
C2132 C2131 1.349 . S
C2132 C2144 1.349 . S
C2133 C2131 1.327 1_545 S
C2133 C2149 1.429 . S
C2133 H2155 0.950 . S
C2134 H2130 0.949 . S
C2134 C2142 1.574 . S
C2134 C2150 1.368 . S
H2135 C2143 0.950 . S
H2136 C2141 0.950 . S
H2137 C2142 0.949 . S
H2138 C2144 0.950 . S
H2139 C2145 0.950 . S
H2140 C2146 0.949 . S
C2141 H2136 0.950 . S
C2141 C2143 1.327 . S
C2141 C2147 1.429 . S
C2142 C2134 1.574 . S
C2142 H2137 0.949 . S
C2142 C2148 1.368 . S
C2143 C2127 1.349 . S
C2143 H2135 0.950 . S
C2143 C2141 1.327 . S
C2144 C2132 1.349 . S
C2144 H2138 0.950 . S
C2144 C2145 1.327 1_565 S
C2145 H2139 0.950 . S
C2145 C2144 1.327 1_545 S
C2145 C2149 1.429 . S
C2146 C2129 1.574 . S
C2146 H2140 0.949 . S
C2146 C2150 1.368 . S
C2147 C2128 1.429 . S
C2147 C2141 1.429 . S
C2147 C2148 1.523 . S
C2148 C2129 1.368 . S
C2148 C2142 1.368 . S
C2148 C2147 1.523 . S
C2149 C2133 1.429 . S
C2149 C2145 1.429 . S
C2149 C2150 1.523 . S
C2150 C2134 1.368 . S
C2150 C2146 1.368 . S
C2150 C2149 1.523 . S
H2151 C2126 0.950 . S
H2152 C2128 0.950 . S
H2153 C2129 0.949 . S
H2154 C2131 0.950 . S
H2155 C2133 0.950 . S
C2156 C2157 1.349 . S
C2156 C2158 1.327 . S
C2156 H2181 0.950 . S
C2157 C2156 1.349 . S
C2157 C2173 1.349 . S
C2158 C2156 1.327 . S
C2158 C2177 1.429 . S
C2158 H2182 0.950 . S
C2159 C2176 1.574 . S
C2159 C2178 1.368 . S
C2159 H2183 0.949 . S
H2160 C2164 0.949 . S
C2161 C2162 1.349 . S
C2161 C2163 1.327 1_545 S
C2161 H2184 0.950 . S
C2162 C2161 1.349 . S
C2162 C2174 1.349 . S
C2163 C2161 1.327 1_565 S
C2163 C2179 1.429 . S
C2163 H2185 0.950 . S
C2164 H2160 0.949 . S
C2164 C2172 1.574 . S
C2164 C2180 1.368 . S
H2165 C2173 0.950 . S
H2166 C2171 0.950 . S
H2167 C2172 0.949 . S
H2168 C2174 0.950 . S
H2169 C2175 0.950 . S
H2170 C2176 0.949 . S
C2171 H2166 0.950 . S
C2171 C2173 1.327 . S
C2171 C2177 1.429 . S
C2172 C2164 1.574 . S
C2172 H2167 0.949 . S
C2172 C2178 1.368 . S
C2173 C2157 1.349 . S
C2173 H2165 0.950 . S
C2173 C2171 1.327 . S
C2174 C2162 1.349 . S
C2174 H2168 0.950 . S
C2174 C2175 1.327 1_545 S
C2175 H2169 0.950 . S
C2175 C2174 1.327 1_565 S
C2175 C2179 1.429 . S
C2176 C2159 1.574 . S
C2176 H2170 0.949 . S
C2176 C2180 1.368 . S
C2177 C2158 1.429 . S
C2177 C2171 1.429 . S
C2177 C2178 1.523 . S
C2178 C2159 1.368 . S
C2178 C2172 1.368 . S
C2178 C2177 1.523 . S
C2179 C2163 1.429 . S
C2179 C2175 1.429 . S
C2179 C2180 1.523 . S
C2180 C2164 1.368 . S
C2180 C2176 1.368 . S
C2180 C2179 1.523 . S
H2181 C2156 0.950 . S
H2182 C2158 0.950 . S
H2183 C2159 0.949 . S
H2184 C2161 0.950 . S
H2185 C2163 0.950 . S
C2186 C2187 1.349 . S
C2186 C2188 1.327 . S
C2186 H2211 0.950 . S
C2187 C2186 1.349 . S
C2187 C2203 1.349 . S
C2188 C2186 1.327 . S
C2188 C2207 1.429 . S
C2188 H2212 0.950 . S
C2189 C2206 1.574 . S
C2189 C2208 1.368 . S
C2189 H2213 0.949 . S
H2190 C2194 0.949 . S
C2191 C2192 1.349 . S
C2191 C2193 1.327 1_545 S
C2191 H2214 0.950 . S
C2192 C2191 1.349 . S
C2192 C2204 1.349 . S
C2193 C2191 1.327 1_565 S
C2193 C2209 1.429 . S
C2193 H2215 0.950 . S
C2194 H2190 0.949 . S
C2194 C2202 1.574 . S
C2194 C2210 1.368 . S
H2195 C2203 0.950 . S
H2196 C2201 0.950 . S
H2197 C2202 0.949 . S
H2198 C2204 0.950 . S
H2199 C2205 0.950 . S
H2200 C2206 0.949 . S
C2201 H2196 0.950 . S
C2201 C2203 1.327 . S
C2201 C2207 1.429 . S
C2202 C2194 1.574 . S
C2202 H2197 0.949 . S
C2202 C2208 1.368 . S
C2203 C2187 1.349 . S
C2203 H2195 0.950 . S
C2203 C2201 1.327 . S
C2204 C2192 1.349 . S
C2204 H2198 0.950 . S
C2204 C2205 1.327 1_545 S
C2205 H2199 0.950 . S
C2205 C2204 1.327 1_565 S
C2205 C2209 1.429 . S
C2206 C2189 1.574 . S
C2206 H2200 0.949 . S
C2206 C2210 1.368 . S
C2207 C2188 1.429 . S
C2207 C2201 1.429 . S
C2207 C2208 1.523 . S
C2208 C2189 1.368 . S
C2208 C2202 1.368 . S
C2208 C2207 1.523 . S
C2209 C2193 1.429 . S
C2209 C2205 1.429 . S
C2209 C2210 1.523 . S
C2210 C2194 1.368 . S
C2210 C2206 1.368 . S
C2210 C2209 1.523 . S
H2211 C2186 0.950 . S
H2212 C2188 0.950 . S
H2213 C2189 0.949 . S
H2214 C2191 0.950 . S
H2215 C2193 0.950 . S
C2216 C2217 1.349 . S
C2216 C2218 1.327 . S
C2216 H2241 0.950 . S
C2217 C2216 1.349 . S
C2217 C2233 1.349 . S
C2218 C2216 1.327 . S
C2218 C2237 1.429 . S
C2218 H2242 0.950 . S
C2219 C2236 1.574 . S
C2219 C2238 1.368 . S
C2219 H2243 0.949 . S
H2220 C2224 0.949 . S
C2221 C2222 1.349 . S
C2221 C2223 1.327 . S
C2221 H2244 0.950 . S
C2222 C2221 1.349 . S
C2222 C2234 1.349 . S
C2223 C2221 1.327 . S
C2223 C2239 1.429 . S
C2223 H2245 0.950 . S
C2224 H2220 0.949 . S
C2224 C2232 1.574 . S
C2224 C2240 1.368 . S
H2225 C2233 0.950 . S
H2226 C2231 0.950 . S
H2227 C2232 0.949 . S
H2228 C2234 0.950 . S
H2229 C2235 0.950 . S
H2230 C2236 0.949 . S
C2231 H2226 0.950 . S
C2231 C2233 1.327 . S
C2231 C2237 1.429 . S
C2232 C2224 1.574 . S
C2232 H2227 0.949 . S
C2232 C2238 1.368 . S
C2233 C2217 1.349 . S
C2233 H2225 0.950 . S
C2233 C2231 1.327 . S
C2234 C2222 1.349 . S
C2234 H2228 0.950 . S
C2234 C2235 1.327 . S
C2235 H2229 0.950 . S
C2235 C2234 1.327 . S
C2235 C2239 1.429 . S
C2236 C2219 1.574 . S
C2236 H2230 0.949 . S
C2236 C2240 1.368 . S
C2237 C2218 1.429 . S
C2237 C2231 1.429 . S
C2237 C2238 1.523 . S
C2238 C2219 1.368 . S
C2238 C2232 1.368 . S
C2238 C2237 1.523 . S
C2239 C2223 1.429 . S
C2239 C2235 1.429 . S
C2239 C2240 1.523 . S
C2240 C2224 1.368 . S
C2240 C2236 1.368 . S
C2240 C2239 1.523 . S
H2241 C2216 0.950 . S
H2242 C2218 0.950 . S
H2243 C2219 0.949 . S
H2244 C2221 0.950 . S
H2245 C2223 0.950 . S
C2246 C2247 1.349 . S
C2246 C2248 1.327 . S
C2246 H2271 0.950 . S
C2247 C2246 1.349 . S
C2247 C2263 1.349 . S
C2248 C2246 1.327 . S
C2248 C2267 1.429 . S
C2248 H2272 0.950 . S
C2249 C2266 1.574 . S
C2249 C2268 1.368 . S
C2249 H2273 0.949 . S
H2250 C2254 0.949 . S
C2251 C2252 1.349 . S
C2251 C2253 1.327 . S
C2251 H2274 0.950 . S
C2252 C2251 1.349 . S
C2252 C2264 1.349 . S
C2253 C2251 1.327 . S
C2253 C2269 1.429 . S
C2253 H2275 0.950 . S
C2254 H2250 0.949 . S
C2254 C2262 1.574 . S
C2254 C2270 1.368 . S
H2255 C2263 0.950 . S
H2256 C2261 0.950 . S
H2257 C2262 0.949 . S
H2258 C2264 0.950 . S
H2259 C2265 0.950 . S
H2260 C2266 0.949 . S
C2261 H2256 0.950 . S
C2261 C2263 1.327 . S
C2261 C2267 1.429 . S
C2262 C2254 1.574 . S
C2262 H2257 0.949 . S
C2262 C2268 1.368 . S
C2263 C2247 1.349 . S
C2263 H2255 0.950 . S
C2263 C2261 1.327 . S
C2264 C2252 1.349 . S
C2264 H2258 0.950 . S
C2264 C2265 1.327 . S
C2265 H2259 0.950 . S
C2265 C2264 1.327 . S
C2265 C2269 1.429 . S
C2266 C2249 1.574 . S
C2266 H2260 0.949 . S
C2266 C2270 1.368 . S
C2267 C2248 1.429 . S
C2267 C2261 1.429 . S
C2267 C2268 1.523 . S
C2268 C2249 1.368 . S
C2268 C2262 1.368 . S
C2268 C2267 1.523 . S
C2269 C2253 1.429 . S
C2269 C2265 1.429 . S
C2269 C2270 1.523 . S
C2270 C2254 1.368 . S
C2270 C2266 1.368 . S
C2270 C2269 1.523 . S
H2271 C2246 0.950 . S
H2272 C2248 0.950 . S
H2273 C2249 0.949 . S
H2274 C2251 0.950 . S
H2275 C2253 0.950 . S
C2276 C2277 1.349 . S
C2276 C2278 1.327 . S
C2276 H2301 0.950 . S
C2277 C2276 1.349 . S
C2277 C2293 1.349 . S
C2278 C2276 1.327 . S
C2278 C2297 1.429 . S
C2278 H2302 0.950 . S
C2279 C2296 1.574 . S
C2279 C2298 1.368 . S
C2279 H2303 0.949 . S
H2280 C2284 0.949 . S
C2281 C2282 1.349 . S
C2281 C2283 1.327 . S
C2281 H2304 0.950 . S
C2282 C2281 1.349 . S
C2282 C2294 1.349 . S
C2283 C2281 1.327 . S
C2283 C2299 1.429 . S
C2283 H2305 0.950 . S
C2284 H2280 0.949 . S
C2284 C2292 1.574 . S
C2284 C2300 1.368 . S
H2285 C2293 0.950 . S
H2286 C2291 0.950 . S
H2287 C2292 0.949 . S
H2288 C2294 0.950 . S
H2289 C2295 0.950 . S
H2290 C2296 0.949 . S
C2291 H2286 0.950 . S
C2291 C2293 1.327 . S
C2291 C2297 1.429 . S
C2292 C2284 1.574 . S
C2292 H2287 0.949 . S
C2292 C2298 1.368 . S
C2293 C2277 1.349 . S
C2293 H2285 0.950 . S
C2293 C2291 1.327 . S
C2294 C2282 1.349 . S
C2294 H2288 0.950 . S
C2294 C2295 1.327 . S
C2295 H2289 0.950 . S
C2295 C2294 1.327 . S
C2295 C2299 1.429 . S
C2296 C2279 1.574 . S
C2296 H2290 0.949 . S
C2296 C2300 1.368 . S
C2297 C2278 1.429 . S
C2297 C2291 1.429 . S
C2297 C2298 1.523 . S
C2298 C2279 1.368 . S
C2298 C2292 1.368 . S
C2298 C2297 1.523 . S
C2299 C2283 1.429 . S
C2299 C2295 1.429 . S
C2299 C2300 1.523 . S
C2300 C2284 1.368 . S
C2300 C2296 1.368 . S
C2300 C2299 1.523 . S
H2301 C2276 0.950 . S
H2302 C2278 0.950 . S
H2303 C2279 0.949 . S
H2304 C2281 0.950 . S
H2305 C2283 0.950 . S
C2306 C2307 1.349 . S
C2306 C2308 1.327 . S
C2306 H2331 0.950 . S
C2307 C2306 1.349 . S
C2307 C2323 1.349 . S
C2308 C2306 1.327 . S
C2308 C2327 1.429 . S
C2308 H2332 0.950 . S
C2309 C2326 1.574 . S
C2309 C2328 1.368 . S
C2309 H2333 0.949 . S
H2310 C2314 0.949 . S
C2311 C2312 1.349 . S
C2311 C2313 1.327 . S
C2311 H2334 0.950 . S
C2312 C2311 1.349 . S
C2312 C2324 1.349 . S
C2313 C2311 1.327 . S
C2313 C2329 1.429 . S
C2313 H2335 0.950 . S
C2314 H2310 0.949 . S
C2314 C2322 1.574 . S
C2314 C2330 1.368 . S
H2315 C2323 0.950 . S
H2316 C2321 0.950 . S
H2317 C2322 0.949 . S
H2318 C2324 0.950 . S
H2319 C2325 0.950 . S
H2320 C2326 0.949 . S
C2321 H2316 0.950 . S
C2321 C2323 1.327 . S
C2321 C2327 1.429 . S
C2322 C2314 1.574 . S
C2322 H2317 0.949 . S
C2322 C2328 1.368 . S
C2323 C2307 1.349 . S
C2323 H2315 0.950 . S
C2323 C2321 1.327 . S
C2324 C2312 1.349 . S
C2324 H2318 0.950 . S
C2324 C2325 1.327 . S
C2325 H2319 0.950 . S
C2325 C2324 1.327 . S
C2325 C2329 1.429 . S
C2326 C2309 1.574 . S
C2326 H2320 0.949 . S
C2326 C2330 1.368 . S
C2327 C2308 1.429 . S
C2327 C2321 1.429 . S
C2327 C2328 1.523 . S
C2328 C2309 1.368 . S
C2328 C2322 1.368 . S
C2328 C2327 1.523 . S
C2329 C2313 1.429 . S
C2329 C2325 1.429 . S
C2329 C2330 1.523 . S
C2330 C2314 1.368 . S
C2330 C2326 1.368 . S
C2330 C2329 1.523 . S
H2331 C2306 0.950 . S
H2332 C2308 0.950 . S
H2333 C2309 0.949 . S
H2334 C2311 0.950 . S
H2335 C2313 0.950 . S
C417 C30 0.482 . S
C422 C4 0.482 . S
C447 C23 0.482 . S
C452 C43 0.482 . S
C477 C82 0.482 . S
C482 C56 0.482 . S
C507 C95 0.482 . S
C512 C69 0.482 . S
C537 C108 0.482 . S
C542 C140 0.482 . S
C567 C153 0.482 . S
C572 C121 0.482 . S
C597 C160 0.482 . S
C602 C192 0.482 . S
C627 C173 0.482 . S
C632 C199 0.482 . S
C657 C238 0.482 . S
C662 C212 0.482 . S
C687 C225 0.482 . S
C692 C251 0.482 . S
C717 C264 0.482 . S
C722 C290 0.482 . S
C747 C303 0.482 . S
C752 C283 0.482 . S
C777 C348 0.482 . S
C782 C322 0.482 . S
C807 C361 0.482 . S
C812 C335 0.482 . S
C837 C400 0.482 . S
C842 C368 0.482 . S
C867 C381 0.482 . S
C872 C407 0.482 . S
C897 C62 1.570 . S
C902 C10 1.570 . S
C927 C387 1.569 . S
C932 C17 1.569 . S
C957 C36 1.569 . S
C962 C186 1.569 . S
C987 C49 1.570 . S
C992 C309 1.570 . S
C1017 C75 1.569 . S
C1022 C329 1.569 . S
C1047 C88 1.569 . S
C1052 C134 1.569 . S
C1077 C257 1.570 . S
C1082 C101 1.570 . S
C1107 C166 1.570 . S
C1112 C114 1.570 . S
C1137 C277 1.569 . S
C1142 C127 1.569 . S
C1167 C147 1.570 . S
C1172 C413 1.570 . S
C1197 C179 1.569 . S
C1202 C231 1.569 . S
C1227 C355 1.570 . S
C1232 C205 1.570 . S
C1257 C270 1.570 . S
C1262 C218 1.570 . S
C1287 C244 1.569 . S
C1292 C394 1.569 . S
C1317 C296 1.569 . S
C1322 C342 1.569 . S
C1347 C374 1.570 . S
C1352 C316 1.570 . S
C1377 C42 1.556 . S
C1382 C3 1.556 . S
C1407 C29 1.555 . S
C1412 C18 1.555 . S
C1437 C94 1.556 . S
C1442 C55 1.556 . S
C1467 C81 1.555 . S
C1472 C68 1.555 . S
C1497 C148 1.556 . S
C1502 C107 1.556 . S
C1527 C135 1.555 . S
C1532 C120 1.555 . S
C1557 C198 1.555 . S
C1562 C159 1.555 . S
C1587 C187 1.555 . S
C1592 C172 1.555 . S
C1617 C211 1.556 . S
C1622 C250 1.556 . S
C1647 C237 1.555 . S
C1652 C224 1.555 . S
C1677 C263 1.556 . S
C1682 C302 1.556 . S
C1707 C289 1.555 . S
C1712 C278 1.555 . S
C1737 C356 1.555 . S
C1742 C317 1.555 . S
C1767 C330 1.555 . S
C1772 C343 1.555 . S
C1797 C367 1.556 . S
C1802 C406 1.556 . S
C1827 C395 1.555 . S
C1832 C380 1.555 . S
C1857 C31 1.408 . S
C1862 C5 1.408 . S
C1887 C16 1.408 . S
C1892 C44 1.408 . S
C1917 C57 1.408 . S
C1922 C83 1.408 . S
C1947 C70 1.408 . S
C1952 C96 1.408 . S
C1977 C109 1.408 . S
C1982 C133 1.408 . S
C2007 C122 1.408 . S
C2012 C146 1.408 . S
C2037 C185 1.408 . S
C2042 C161 1.408 . S
C2067 C200 1.408 . S
C2072 C174 1.408 . S
C2097 C239 1.408 . S
C2102 C213 1.408 . S
C2127 C252 1.408 . S
C2132 C226 1.408 . S
C2157 C265 1.408 . S
C2162 C291 1.408 . S
C2187 C304 1.408 . S
C2192 C276 1.408 . S
C2217 C341 1.408 . S
C2222 C315 1.408 . S
C2247 C328 1.408 . S
C2252 C354 1.408 . S
C2277 C369 1.408 . S
C2282 C393 1.408 . S
C2307 C408 1.408 . S
C2312 C382 1.408 . S
