# Generated by pormake.
# Topology unj, (4)-cn, num edge types: 1
# Building blocks:
#     Node 0, Type 0, BuildingBlock: TATPOV_clean_sbu_0, # of connection points: 4
#     Node 1, Type 0, BuildingBlock: TATPOV_clean_sbu_0, # of connection points: 4
#     Node 2, Type 0, BuildingBlock: TATPOV_clean_sbu_0, # of connection points: 4
#     Node 3, Type 0, BuildingBlock: TATPOV_clean_sbu_0, # of connection points: 4
#     Node 4, Type 0, BuildingBlock: TATPOV_clean_sbu_0, # of connection points: 4
#     Node 5, Type 0, BuildingBlock: TATPOV_clean_sbu_0, # of connection points: 4
#     Edge 6, Type (0, 0), BuildingBlock: FUNLAD_clean_linker_1, # of connection points: 2
#     Edge 7, Type (0, 0), BuildingBlock: FUNLAD_clean_linker_1, # of connection points: 2
#     Edge 8, Type (0, 0), BuildingBlock: FUNLAD_clean_linker_1, # of connection points: 2
#     Edge 9, Type (0, 0), BuildingBlock: FUNLAD_clean_linker_1, # of connection points: 2
#     Edge 10, Type (0, 0), BuildingBlock: FUNLAD_clean_linker_1, # of connection points: 2
#     Edge 11, Type (0, 0), BuildingBlock: FUNLAD_clean_linker_1, # of connection points: 2
#     Edge 12, Type (0, 0), BuildingBlock: FUNLAD_clean_linker_1, # of connection points: 2
#     Edge 13, Type (0, 0), BuildingBlock: FUNLAD_clean_linker_1, # of connection points: 2
#     Edge 14, Type (0, 0), BuildingBlock: FUNLAD_clean_linker_1, # of connection points: 2
#     Edge 15, Type (0, 0), BuildingBlock: FUNLAD_clean_linker_1, # of connection points: 2
#     Edge 16, Type (0, 0), BuildingBlock: FUNLAD_clean_linker_1, # of connection points: 2
#     Edge 17, Type (0, 0), BuildingBlock: FUNLAD_clean_linker_1, # of connection points: 2
# Relax obj value: 0.021
# Max RMSD: 0.060
# Mean RMSD: 0.060
data_MOF--net-unj--node1-TATPOV_clean_sbu_0--edge1-FUNLAD_clean_linker_1
_symmetry_space_group_name_H-M    P1
_symmetry_Int_Tables_number       1
_symmetry_cell_setting            triclinic
loop_
_symmetry_equiv_pos_as_xyz
'x, y, z'
_cell_length_a     35.322877
_cell_length_b     35.310524
_cell_length_c     36.872629
_cell_angle_alpha  90.071246
_cell_angle_beta   89.81846
_cell_angle_gamma 119.81862
loop_
_atom_site_label
_atom_site_type_symbol
_atom_site_fract_x
_atom_site_fract_y
_atom_site_fract_z
_atom_type_partial_charge
Zn0 Zn 0.40902 0.15725 0.6451 0.0
Zn1 Zn 0.45761 0.207 0.58854 0.0
O2 O 0.42181 0.23589 0.6033 0.0
O3 O 0.37898 0.19315 0.64686 0.0
O4 O 0.48899 0.23973 0.54343 0.0
O5 O 0.38447 0.10308 0.61422 0.0
O6 O 0.42254 0.14482 0.56843 0.0
C7 C 0.39154 0.22611 0.62652 0.0
C8 C 0.50253 0.20375 0.65812 0.0
O9 O 0.5052 0.21709 0.62562 0.0
O10 O 0.46565 0.17842 0.67227 0.0
C11 C 0.52573 0.27452 0.54237 0.0
O12 O 0.54663 0.29219 0.57265 0.0
C13 C 0.39563 0.10741 0.58121 0.0
Zn14 Zn 0.25387 0.42947 0.79232 0.0
Zn15 Zn 0.25282 0.48709 0.74494 0.0
O16 O 0.18956 0.45188 0.76279 0.0
O17 O 0.18794 0.39908 0.79577 0.0
O18 O 0.24935 0.52639 0.70769 0.0
O19 O 0.28215 0.41041 0.75435 0.0
O20 O 0.27698 0.45459 0.71512 0.0
C21 C 0.16849 0.41728 0.78149 0.0
C22 C 0.30445 0.52064 0.81452 0.0
O23 O 0.29386 0.52832 0.7836 0.0
O24 O 0.29093 0.4817 0.82482 0.0
C25 C 0.23259 0.55004 0.71513 0.0
O26 O 0.21857 0.54994 0.74816 0.0
C27 C 0.28762 0.42596 0.7226 0.0
Zn28 Zn 0.82128 0.24996 0.96765 0.0
Zn29 Zn 0.76878 0.2569 0.91812 0.0
O30 O 0.73534 0.19187 0.93025 0.0
O31 O 0.77828 0.18478 0.96955 0.0
O32 O 0.73158 0.26183 0.8794 0.0
O33 O 0.87083 0.27449 0.93182 0.0
O34 O 0.82666 0.27662 0.89083 0.0
C35 C 0.74355 0.16812 0.95097 0.0
C36 C 0.78817 0.30585 0.99079 0.0
O37 O 0.76887 0.29582 0.96018 0.0
O38 O 0.8129 0.29117 3e-05 0.0
C39 C 0.69206 0.25104 0.88545 0.0
O40 O 0.67561 0.23819 0.91805 0.0
C41 C 0.864 0.28262 0.89985 0.0
Zn42 Zn 0.57558 0.81659 0.13786 0.0
Zn43 Zn 0.52286 0.77483 0.08073 0.0
O44 O 0.55445 0.74046 0.09062 0.0
O45 O 0.59917 0.775 0.13574 0.0
O46 O 0.48505 0.74131 0.03863 0.0
O47 O 0.60312 0.87179 0.10802 0.0
O48 O 0.5609 0.83723 0.06138 0.0
C49 C 0.58362 0.74426 0.11279 0.0
C50 C 0.48374 0.7797 0.15365 0.0
O51 O 0.47917 0.76836 0.12045 0.0
O52 O 0.5214 0.80034 0.16763 0.0
C53 C 0.45832 0.70104 0.04385 0.0
O54 O 0.45535 0.68424 0.07618 0.0
C55 C 0.59111 0.87197 0.07576 0.0
Zn56 Zn 0.75416 0.57616 0.30601 0.0
Zn57 Zn 0.72883 0.50909 0.25883 0.0
O58 O 0.79537 0.53525 0.26132 0.0
O59 O 0.8166 0.59134 0.29813 0.0
O60 O 0.71148 0.46218 0.22086 0.0
O61 O 0.72746 0.60291 0.27459 0.0
O62 O 0.7078 0.54857 0.23603 0.0
C63 C 0.8256 0.56802 0.2777 0.0
C64 C 0.69643 0.49176 0.33757 0.0
O65 O 0.69707 0.47736 0.30593 0.0
O66 O 0.71768 0.53225 0.34424 0.0
C67 C 0.73205 0.47413 0.19093 0.0
O68 O 0.76222 0.5152 0.18657 0.0
C69 C 0.70946 0.58414 0.24526 0.0
Zn70 Zn 0.16278 0.74916 0.45773 0.0
Zn71 Zn 0.21243 0.73865 0.40702 0.0
O72 O 0.24416 0.80478 0.41578 0.0
O73 O 0.20298 0.81423 0.4556 0.0
O74 O 0.24993 0.73326 0.36873 0.0
O75 O 0.11132 0.71938 0.42414 0.0
O76 O 0.15234 0.71186 0.38278 0.0
C77 C 0.23659 0.82983 0.43556 0.0
C78 C 0.20056 0.69766 0.48223 0.0
O79 O 0.21596 0.70386 0.45016 0.0
O80 O 0.17701 0.7136 0.49215 0.0
C81 C 0.28927 0.7446 0.37609 0.0
O82 O 0.30416 0.75814 0.40892 0.0
C83 C 0.11556 0.70645 0.39319 0.0
H84 H 0.35384 0.03745 0.57029 0.0
C85 C 0.37628 0.06862 0.55778 0.0
H86 H 0.40503 0.10124 0.50853 0.0
H87 H 0.31982 0.88345 0.49326 0.0
H88 H 0.3811 0.89425 0.52996 0.0
H89 H 0.43488 0.96762 0.55196 0.0
H90 H 0.42698 0.03056 0.53778 0.0
C91 C 0.38403 0.07032 0.52195 0.0
C92 C 0.36044 0.03 0.49984 0.0
C93 C 0.3669 0.99412 0.50651 0.0
C94 C 0.33687 0.95224 0.4926 0.0
C95 C 0.34228 0.91632 0.50204 0.0
C96 C 0.37732 0.92202 0.52326 0.0
C97 C 0.40752 0.9633 0.53573 0.0
C98 C 0.40249 -0.00096 0.5276 0.0
H99 H 0.29952 0.88865 0.4224 0.0
C100 C 0.26953 0.8765 0.43799 0.0
H101 H 0.23542 0.89103 0.47776 0.0
H102 H 0.34387 0.09397 0.47668 0.0
H103 H 0.28595 0.08462 0.43591 0.0
H104 H 0.235 0.0123 0.41022 0.0
H105 H 0.24159 0.94879 0.42529 0.0
C106 C 0.26536 0.9026 0.46222 0.0
C107 C 0.30155 0.94697 0.47076 0.0
C108 C 0.29795 0.9838 0.46097 0.0
C109 C 0.32752 0.0255 0.47551 0.0
C110 C 0.32236 0.06157 0.46626 0.0
C111 C 0.2893 0.05665 0.44287 0.0
C112 C 0.26059 0.01592 0.42842 0.0
C113 C 0.26463 0.97976 0.43734 0.0
H114 H 0.34612 0.24352 0.652 0.0
C115 C 0.37239 0.2543 0.63219 0.0
H116 H 0.41631 0.30652 0.59877 0.0
H117 H 0.25161 0.33513 0.65992 0.0
H118 H 0.20693 0.27964 0.61597 0.0
H119 H 0.23837 0.24482 0.57758 0.0
H120 H 0.3148 0.26509 0.5833 0.0
C121 C 0.38863 0.29404 0.61721 0.0
C122 C 0.37351 0.32386 0.63101 0.0
C123 C 0.32952 0.31317 0.62622 0.0
C124 C 0.31177 0.33406 0.64769 0.0
C125 C 0.26704 0.32094 0.64384 0.0
C126 C 0.241 0.28907 0.61874 0.0
C127 C 0.25868 0.26939 0.59717 0.0
C128 C 0.30241 0.28111 0.60081 0.0
H129 H 0.30986 0.42391 0.66675 0.0
C130 C 0.30632 0.41088 0.69403 0.0
H131 H 0.31674 0.36928 0.72855 0.0
H132 H 0.46117 0.35747 0.64174 0.0
H133 H 0.50723 0.41646 0.68261 0.0
H134 H 0.47676 0.45366 0.71914 0.0
H135 H 0.39992 0.43192 0.7151 0.0
C136 C 0.31884 0.38148 0.70115 0.0
C137 C 0.33855 0.3663 0.67322 0.0
C138 C 0.38365 0.38022 0.67512 0.0
C139 C 0.40124 0.35904 0.65387 0.0
C140 C 0.44613 0.37256 0.6572 0.0
C141 C 0.47294 0.40641 0.68051 0.0
C142 C 0.45578 0.42734 0.7011 0.0
C143 C 0.41165 0.41448 0.69861 0.0
H144 H 0.89009 0.28727 0.84447 0.0
C145 C 0.89895 0.29677 0.87256 0.0
H146 H 0.94912 0.32839 0.91073 0.0
H147 H 0.10164 0.31303 0.84691 0.0
H148 H 0.08437 0.26968 0.90134 0.0
H149 H 0.01707 0.2496 0.93582 0.0
H150 H 0.96722 0.27374 0.91634 0.0
C151 C 0.94106 0.31915 0.88245 0.0
C152 C 0.97747 0.3261 0.85784 0.0
C153 C 0.00525 0.3098 0.86855 0.0
C154 C 0.04304 0.31975 0.84776 0.0
C155 C 0.07166 0.30544 0.86067 0.0
C156 C 0.06226 0.28053 0.89212 0.0
C157 C 0.02447 0.26934 0.91158 0.0
C158 C -0.00377 0.2837 0.90012 0.0
H159 H 0.11255 0.42571 0.795 0.0
C160 C 0.12247 0.40148 0.7904 0.0
H161 H 0.10478 0.33531 0.79085 0.0
H162 H 0.93372 0.36606 0.83055 0.0
H163 H 0.94574 0.40156 0.77212 0.0
H164 H 0.00411 0.40792 0.73129 0.0
H165 H 0.05192 0.38032 0.74949 0.0
C166 C 0.09429 0.35896 0.79617 0.0
C167 C 0.05188 0.34424 0.81522 0.0
C168 C 0.0218 0.35691 0.80275 0.0
C169 C 0.98582 0.34986 0.82494 0.0
C170 C 0.95961 0.36769 0.81378 0.0
C171 C 0.96643 0.38858 0.78039 0.0
C172 C -0.00055 0.3924 0.75749 0.0
C173 C 0.02691 0.37681 0.76841 0.0
H174 H 0.63644 0.94222 0.07032 0.0
C175 C 0.61235 0.91348 0.05577 0.0
H176 H 0.58061 0.88947 0.00537 0.0
H177 H 0.66271 0.10633 0.01427 0.0
H178 H 0.6004 0.08782 0.05304 0.0
H179 H 0.54849 0.0111 0.06863 0.0
H180 H 0.55912 0.95244 0.04578 0.0
C181 C 0.6034 0.91762 0.02114 0.0
C182 C 0.62682 0.9613 0.00368 0.0
C183 C 0.61899 0.99493 0.0157 0.0
C184 C 0.64809 0.03894 0.0057 0.0
C185 C 0.64103 0.07217 0.02006 0.0
C186 C 0.60543 0.06202 0.04251 0.0
C187 C 0.57627 0.01884 0.05137 0.0
C188 C 0.58285 0.98555 0.03825 0.0
H189 H 0.68037 0.10866 0.94026 0.0
C190 C 0.71124 0.12135 0.95449 0.0
H191 H 0.74917 0.10679 0.98995 0.0
H192 H 0.64662 0.90345 0.97164 0.0
H193 H 0.70633 0.92108 0.92963 0.0
H194 H 0.75608 -0.0027 0.9111 0.0
H195 H 0.74656 0.05641 0.93456 0.0
C196 C 0.71811 0.09493 0.97624 0.0
C197 C 0.68408 0.04885 0.98264 0.0
C198 C 0.68964 0.01473 0.96816 0.0
C199 C 0.66084 0.9708 0.97863 0.0
C200 C 0.66764 0.93738 0.96448 0.0
C201 C 0.70169 0.94705 0.94033 0.0
C202 C 0.72972 0.98997 0.92991 0.0
C203 C 0.72397 0.02358 0.94361 0.0
H204 H 0.68939 0.63239 0.23359 0.0
C205 C 0.68993 0.60403 0.22261 0.0
H206 H 0.6746 0.56218 0.17706 0.0
H207 H 0.55663 0.66353 0.17632 0.0
H208 H 0.51138 0.60784 0.22008 0.0
H209 H 0.53045 0.55278 0.2402 0.0
H210 H 0.59525 0.55342 0.21676 0.0
C211 C 0.67325 0.58936 0.18955 0.0
C212 C 0.65458 0.61247 0.16923 0.0
C213 C 0.61575 0.61047 0.18192 0.0
C214 C 0.60443 0.64166 0.16983 0.0
C215 C 0.56659 0.64033 0.1843 0.0
C216 C 0.54031 0.60852 0.20944 0.0
C217 C 0.55107 0.57755 0.2208 0.0
C218 C 0.58837 0.57839 0.20732 0.0
H219 H 0.57943 0.68209 0.09614 0.0
C220 C 0.59638 0.71039 0.11369 0.0
H221 H 0.64213 0.73975 0.156 0.0
H222 H 0.72608 0.61913 0.13457 0.0
H223 H 0.769 0.67186 0.08777 0.0
H224 H 0.74904 0.72581 0.06627 0.0
H225 H 0.68607 0.72743 0.09146 0.0
C226 C 0.62522 0.7119 0.13801 0.0
C227 C 0.6316 0.67408 0.14451 0.0
C228 C 0.66773 0.67304 0.12892 0.0
C229 C 0.67917 0.64195 0.14124 0.0
C230 C 0.71615 0.64223 0.1261 0.0
C231 C 0.74092 0.6722 0.09923 0.0
C232 C 0.72968 0.70259 0.08712 0.0
C233 C 0.69359 0.70325 0.1018 0.0
H234 H 0.04612 0.67923 0.38146 0.0
C235 C 0.07674 0.68416 0.37013 0.0
H236 H 0.10704 0.67482 0.32383 0.0
H237 H 0.88996 0.54051 0.32801 0.0
H238 H 0.90766 0.4977 0.36855 0.0
H239 H 0.98415 0.52191 0.38458 0.0
H240 H 0.04342 0.58978 0.36029 0.0
C241 C 0.07701 0.66947 0.33658 0.0
C242 C 0.03529 0.64719 0.31628 0.0
C243 C 0.00141 0.6064 0.32877 0.0
C244 C 0.95756 0.59196 0.31866 0.0
C245 C 0.924 0.55271 0.33392 0.0
C246 C 0.93372 0.5278 0.35737 0.0
C247 C 0.97676 0.54145 0.36646 0.0
C248 C 0.01037 0.5804 0.35251 0.0
H249 H 0.8778 0.55469 0.25974 0.0
C250 C 0.87103 0.57718 0.27477 0.0
H251 H 0.89695 0.63402 0.30704 0.0
H252 H 0.09436 0.72139 0.28126 0.0
H253 H 0.07791 0.76189 0.23658 0.0
H254 H 0.00193 0.73628 0.21781 0.0
H255 H 0.94187 0.6701 0.24367 0.0
C256 C 0.90324 0.61078 0.29273 0.0
C257 C 0.94824 0.61798 0.29507 0.0
C258 C 0.98286 0.65574 0.27885 0.0
C259 C 0.02659 0.67035 0.28945 0.0
C260 C 0.06055 0.70907 0.274 0.0
C261 C 0.05154 0.73244 0.24834 0.0
C262 C 0.00874 0.71803 0.23778 0.0
C263 C 0.97462 0.68018 0.25286 0.0
H264 H 0.52403 0.27944 0.48291 0.0
C265 C 0.54345 0.29495 0.50691 0.0
H266 H 0.60236 0.34733 0.52675 0.0
H267 H 0.70256 0.38675 0.37703 0.0
H268 H 0.73694 0.35252 0.41005 0.0
H269 H 0.70787 0.31719 0.46921 0.0
H270 H 0.6444 0.3161 0.49584 0.0
C271 C 0.58175 0.33202 0.5033 0.0
C272 C 0.59805 0.35194 0.46697 0.0
C273 C 0.63482 0.35181 0.4516 0.0
C274 C 0.65133 0.3718 0.41733 0.0
C275 C 0.68855 0.37184 0.40289 0.0
C276 C 0.70858 0.35229 0.42155 0.0
C277 C 0.69222 0.33241 0.45486 0.0
C278 C 0.6558 0.33206 0.46985 0.0
H279 H 0.67029 0.47721 0.39298 0.0
C280 C 0.67159 0.46222 0.36754 0.0
H281 H 0.65476 0.40266 0.34122 0.0
H282 H 0.52825 0.36014 0.4894 0.0
H283 H 0.49209 0.39141 0.45506 0.0
H284 H 0.51797 0.42175 0.39391 0.0
H285 H 0.58072 0.42158 0.36702 0.0
C286 C 0.65231 0.41859 0.36562 0.0
C287 C 0.63109 0.39197 0.39857 0.0
C288 C 0.59316 0.39041 0.41319 0.0
C289 C 0.57715 0.37123 0.44777 0.0
C290 C 0.54086 0.37268 0.46266 0.0
C291 C 0.51992 0.39082 0.44333 0.0
C292 C 0.53458 0.40804 0.40896 0.0
C293 C 0.57077 0.40797 0.39394 0.0
H294 H 0.2298 0.65766 0.49881 0.0
C295 C 0.21119 0.67272 0.50826 0.0
H296 H 0.18016 0.6836 0.55295 0.0
H297 H 0.15485 0.52239 0.6444 0.0
H298 H 0.08079 0.49657 0.62405 0.0
H299 H 0.06482 0.53792 0.57862 0.0
H300 H 0.12289 0.60523 0.55316 0.0
C301 C 0.19951 0.66943 0.54333 0.0
C302 C 0.20983 0.64426 0.5698 0.0
C303 C 0.17541 0.60526 0.58469 0.0
C304 C 0.18453 0.58171 0.61115 0.0
C305 C 0.14968 0.54217 0.62485 0.0
C306 C 0.10701 0.52681 0.61323 0.0
C307 C 0.09802 0.55006 0.58764 0.0
C308 C 0.13168 0.58875 0.57334 0.0
H309 H 0.20986 0.59352 0.69362 0.0
C310 C 0.22598 0.57513 0.68647 0.0
H311 H 0.2544 0.55682 0.64424 0.0
H312 H 0.28324 0.71947 0.54842 0.0
H313 H 0.35731 0.74468 0.56833 0.0
H314 H 0.37323 0.70273 0.61318 0.0
H315 H 0.31499 0.63543 0.63863 0.0
C316 C 0.23744 0.57424 0.65185 0.0
C317 C 0.228 0.59763 0.62302 0.0
C318 C 0.26253 0.63615 0.60766 0.0
C319 C 0.25342 0.65985 0.5813 0.0
C320 C 0.28832 0.69941 0.56772 0.0
C321 C 0.33103 0.71445 0.5791 0.0
C322 C 0.34 0.69087 0.60439 0.0
C323 C 0.30627 0.65226 0.61873 0.0
H324 H 0.62945 0.23799 0.86188 0.0
C325 C 0.66351 0.24921 0.85563 0.0
H326 H 0.71106 0.26794 0.81425 0.0
H327 H 0.56813 0.15793 0.69592 0.0
H328 H 0.60854 0.11908 0.69948 0.0
H329 H 0.6668 0.13964 0.74478 0.0
H330 H 0.68497 0.19907 0.78682 0.0
C331 C 0.6775 0.25826 0.82109 0.0
C332 C 0.64628 0.24974 0.791 0.0
C333 C 0.63687 0.21555 0.76607 0.0
C334 C 0.60332 0.2037 0.73991 0.0
C335 C 0.59351 0.16848 0.71614 0.0
C336 C 0.61641 0.14586 0.71792 0.0
C337 C 0.64921 0.15743 0.74343 0.0
C338 C 0.65936 0.19171 0.76737 0.0
H339 H 0.57408 0.23839 0.66698 0.0
C340 C 0.54248 0.21882 0.67992 0.0
H341 H 0.50876 0.19166 0.72903 0.0
H342 H 0.66168 0.32186 0.83029 0.0
H343 H 0.62224 0.36168 0.82578 0.0
H344 H 0.56278 0.33989 0.78143 0.0
H345 H 0.54266 0.27837 0.74109 0.0
C346 C 0.54019 0.20982 0.71553 0.0
C347 C 0.57955 0.22625 0.73866 0.0
C348 C 0.59062 0.26198 0.7622 0.0
C349 C 0.62435 0.27405 0.78818 0.0
C350 C 0.63548 0.31055 0.81076 0.0
C351 C 0.61331 0.33387 0.80828 0.0
C352 C 0.57987 0.32163 0.78328 0.0
C353 C 0.56855 0.28618 0.76039 0.0
H354 H 0.34506 0.5905 0.82844 0.0
C355 C 0.33148 0.55745 0.83884 0.0
H356 H 0.32523 0.51821 0.88417 0.0
H357 H 0.48973 0.65664 0.96906 0.0
H358 H 0.51503 0.60793 0.94786 0.0
H359 H 0.47212 0.5498 0.9036 0.0
H360 H 0.40371 0.54006 0.88026 0.0
C361 C 0.33803 0.55109 0.87363 0.0
C362 C 0.36483 0.58801 0.89845 0.0
C363 C 0.40474 0.59321 0.91179 0.0
C364 C 0.42937 0.62655 0.93739 0.0
C365 C 0.46937 0.63137 0.95 0.0
C366 C 0.48439 0.60378 0.93792 0.0
C367 C 0.46024 0.57107 0.913 0.0
C368 C 0.42094 0.56576 0.89991 0.0
H369 H 0.41219 0.63761 0.01974 0.0
C370 C 0.43323 0.67208 0.01375 0.0
H371 H 0.45753 0.72034 0.97257 0.0
H372 H 0.28846 0.58582 0.87988 0.0
H373 H 0.26443 0.63573 0.90015 0.0
H374 H 0.30876 0.69522 0.94291 0.0
H375 H 0.37735 0.7048 0.96592 0.0
C376 C 0.43714 0.68605 0.97938 0.0
C377 C 0.41385 0.65437 0.94981 0.0
C378 C 0.3748 0.65024 0.93559 0.0
C379 C 0.34983 0.61659 0.91025 0.0
C380 C 0.30957 0.61163 0.89817 0.0
C381 C 0.29519 0.63991 0.90982 0.0
C382 C 0.3201 0.67335 0.93395 0.0
C383 C 0.35937 0.67849 0.94693 0.0
H384 H 0.80539 0.34798 0.03867 0.0
C385 C 0.78174 0.33375 0.01685 0.0
H386 H 0.72217 0.32463 0.99579 0.0
H387 H 0.75322 0.38914 0.1711 0.0
H388 H 0.74652 0.3189 0.18357 0.0
H389 H 0.73337 0.26667 0.13412 0.0
H390 H 0.72857 0.28545 0.07165 0.0
C391 C 0.74641 0.33869 0.01716 0.0
C392 C 0.74021 0.36366 0.04707 0.0
C393 C 0.73889 0.35065 0.08369 0.0
C394 C 0.74283 0.37929 0.11242 0.0
C395 C 0.74703 0.3676 0.14834 0.0
C396 C 0.74374 0.32743 0.1559 0.0
C397 C 0.7366 0.29814 0.12806 0.0
C398 C 0.73428 0.30948 0.09232 0.0
H399 H 0.69475 0.4096 0.1645 0.0
C400 C 0.72323 0.44193 0.16198 0.0
H401 H 0.77892 0.48369 0.13111 0.0
H402 H 0.73764 0.39564 0.98014 0.0
H403 H 0.73629 0.46238 0.96755 0.0
H404 H 0.737 0.50937 0.01741 0.0
H405 H 0.73961 0.49023 0.08014 0.0
C406 C 0.75078 0.45116 0.13383 0.0
C407 C 0.74374 0.41913 0.10456 0.0
C408 C 0.74081 0.43007 0.06802 0.0
C409 C 0.73947 0.40252 0.03924 0.0
C410 C 0.73827 0.41514 0.00302 0.0
C411 C 0.73744 0.45335 0.9954 0.0
C412 C 0.73789 0.47984 0.02348 0.0
C413 C 0.73956 0.46853 0.05938 0.0
H414 H 0.35282 0.75661 0.35533 0.0
C415 C 0.31921 0.74565 0.34774 0.0
H416 H 0.27404 0.7265 0.30463 0.0
H417 H 0.42654 0.83298 0.19134 0.0
H418 H 0.38863 0.87437 0.19143 0.0
H419 H 0.32776 0.85603 0.23385 0.0
H420 H 0.30455 0.79628 0.27651 0.0
C421 C 0.30705 0.73588 0.31294 0.0
C422 C 0.3398 0.74297 0.28444 0.0
C423 C 0.35209 0.77724 0.259 0.0
C424 C 0.38693 0.78759 0.23433 0.0
C425 C 0.3998 0.82318 0.21024 0.0
C426 C 0.37843 0.84736 0.2101 0.0
C427 C 0.34418 0.83705 0.234 0.0
C428 C 0.33114 0.80259 0.25832 0.0
H429 H 0.41295 0.75219 0.16315 0.0
C430 C 0.44482 0.76815 0.17603 0.0
H431 H 0.47942 0.79067 0.22529 0.0
H432 H 0.3196 0.67093 0.32575 0.0
H433 H 0.35657 0.62852 0.32487 0.0
H434 H 0.41791 0.64728 0.28284 0.0
H435 H 0.44245 0.70838 0.24129 0.0
C436 C 0.44797 0.77629 0.21182 0.0
C437 C 0.4089 0.7632 0.23491 0.0
C438 C 0.39531 0.72771 0.25924 0.0
C439 C 0.36042 0.7173 0.28382 0.0
C440 C 0.34672 0.68096 0.30719 0.0
C441 C 0.36746 0.65617 0.30679 0.0
C442 C 0.40196 0.6667 0.2831 0.0
C443 C 0.41581 0.70194 0.25948 0.0
loop_
_geom_bond_atom_site_label_1
_geom_bond_atom_site_label_2
_geom_bond_distance
_geom_bond_site_symmetry_2
_ccdc_geom_bond_type
Zn0 O3 2.031 . S
Zn0 O5 2.049 . S
Zn0 O10 2.067 . S
Zn1 O2 1.962 . S
Zn1 O4 1.986 . S
Zn1 O6 1.996 . S
Zn1 O9 1.943 . S
O2 Zn1 1.962 . S
O2 C7 1.254 . S
O3 Zn0 2.031 . S
O3 C7 1.269 . S
O4 Zn1 1.986 . S
O4 C11 1.262 . S
O5 Zn0 2.049 . S
O5 C13 1.260 . S
O6 Zn1 1.996 . S
O6 C13 1.257 . S
C7 O2 1.254 . S
C7 O3 1.269 . S
C8 O9 1.249 . S
C8 O10 1.270 . S
O9 Zn1 1.943 . S
O9 C8 1.249 . S
O10 Zn0 2.067 . S
O10 C8 1.270 . S
C11 O4 1.262 . S
C11 O12 1.232 . S
O12 C11 1.232 . S
C13 O5 1.260 . S
C13 O6 1.257 . S
Zn14 O17 2.031 . S
Zn14 O19 2.049 . S
Zn14 O24 2.067 . S
Zn15 O16 1.962 . S
Zn15 O18 1.986 . S
Zn15 O20 1.996 . S
Zn15 O23 1.943 . S
O16 Zn15 1.962 . S
O16 C21 1.254 . S
O17 Zn14 2.031 . S
O17 C21 1.269 . S
O18 Zn15 1.986 . S
O18 C25 1.262 . S
O19 Zn14 2.049 . S
O19 C27 1.260 . S
O20 Zn15 1.996 . S
O20 C27 1.257 . S
C21 O16 1.254 . S
C21 O17 1.269 . S
C22 O23 1.249 . S
C22 O24 1.270 . S
O23 Zn15 1.943 . S
O23 C22 1.249 . S
O24 Zn14 2.067 . S
O24 C22 1.270 . S
C25 O18 1.262 . S
C25 O26 1.232 . S
O26 C25 1.232 . S
C27 O19 1.260 . S
C27 O20 1.257 . S
Zn28 O31 2.031 . S
Zn28 O33 2.049 . S
Zn28 O38 2.067 . S
Zn29 O30 1.962 . S
Zn29 O32 1.986 . S
Zn29 O34 1.996 . S
Zn29 O37 1.943 . S
O30 Zn29 1.962 . S
O30 C35 1.254 . S
O31 Zn28 2.031 . S
O31 C35 1.269 . S
O32 Zn29 1.986 . S
O32 C39 1.262 . S
O33 Zn28 2.049 . S
O33 C41 1.260 . S
O34 Zn29 1.996 . S
O34 C41 1.257 . S
C35 O30 1.254 . S
C35 O31 1.269 . S
C36 O37 1.249 . S
C36 O38 1.270 . S
O37 Zn29 1.943 . S
O37 C36 1.249 . S
O38 Zn28 2.067 . S
O38 C36 1.270 . S
C39 O32 1.262 . S
C39 O40 1.232 . S
O40 C39 1.232 . S
C41 O33 1.260 . S
C41 O34 1.257 . S
Zn42 O45 2.031 . S
Zn42 O47 2.049 . S
Zn42 O52 2.067 . S
Zn43 O44 1.962 . S
Zn43 O46 1.986 . S
Zn43 O48 1.996 . S
Zn43 O51 1.943 . S
O44 Zn43 1.962 . S
O44 C49 1.254 . S
O45 Zn42 2.031 . S
O45 C49 1.269 . S
O46 Zn43 1.986 . S
O46 C53 1.262 . S
O47 Zn42 2.049 . S
O47 C55 1.260 . S
O48 Zn43 1.996 . S
O48 C55 1.257 . S
C49 O44 1.254 . S
C49 O45 1.269 . S
C50 O51 1.249 . S
C50 O52 1.270 . S
O51 Zn43 1.943 . S
O51 C50 1.249 . S
O52 Zn42 2.067 . S
O52 C50 1.270 . S
C53 O46 1.262 . S
C53 O54 1.232 . S
O54 C53 1.232 . S
C55 O47 1.260 . S
C55 O48 1.257 . S
Zn56 O59 2.031 . S
Zn56 O61 2.049 . S
Zn56 O66 2.067 . S
Zn57 O58 1.962 . S
Zn57 O60 1.986 . S
Zn57 O62 1.996 . S
Zn57 O65 1.943 . S
O58 Zn57 1.962 . S
O58 C63 1.254 . S
O59 Zn56 2.031 . S
O59 C63 1.269 . S
O60 Zn57 1.986 . S
O60 C67 1.262 . S
O61 Zn56 2.049 . S
O61 C69 1.260 . S
O62 Zn57 1.996 . S
O62 C69 1.257 . S
C63 O58 1.254 . S
C63 O59 1.269 . S
C64 O65 1.249 . S
C64 O66 1.270 . S
O65 Zn57 1.943 . S
O65 C64 1.249 . S
O66 Zn56 2.067 . S
O66 C64 1.270 . S
C67 O60 1.262 . S
C67 O68 1.232 . S
O68 C67 1.232 . S
C69 O61 1.260 . S
C69 O62 1.257 . S
Zn70 O73 2.031 . S
Zn70 O75 2.049 . S
Zn70 O80 2.067 . S
Zn71 O72 1.962 . S
Zn71 O74 1.986 . S
Zn71 O76 1.996 . S
Zn71 O79 1.943 . S
O72 Zn71 1.962 . S
O72 C77 1.254 . S
O73 Zn70 2.031 . S
O73 C77 1.269 . S
O74 Zn71 1.986 . S
O74 C81 1.262 . S
O75 Zn70 2.049 . S
O75 C83 1.260 . S
O76 Zn71 1.996 . S
O76 C83 1.257 . S
C77 O72 1.254 . S
C77 O73 1.269 . S
C78 O79 1.249 . S
C78 O80 1.270 . S
O79 Zn71 1.943 . S
O79 C78 1.249 . S
O80 Zn70 2.067 . S
O80 C78 1.270 . S
C81 O74 1.262 . S
C81 O82 1.232 . S
O82 C81 1.232 . S
C83 O75 1.260 . S
C83 O76 1.257 . S
H84 C85 0.951 . S
C85 H84 0.951 . S
C85 C91 1.265 . S
H86 C91 0.950 . S
H87 C95 0.949 . S
H88 C96 0.950 . S
H89 C97 0.951 . S
H90 C98 0.951 1_545 S
C91 C85 1.265 . S
C91 H86 0.950 . S
C91 C92 1.478 . S
C92 C91 1.478 . S
C92 C93 1.397 1_545 S
C92 C109 1.394 . S
C93 C92 1.397 1_565 S
C93 C94 1.438 . S
C93 C98 1.429 . S
C94 C93 1.438 . S
C94 C95 1.428 . S
C94 C107 1.394 . S
C95 H87 0.949 . S
C95 C94 1.428 . S
C95 C96 1.345 . S
C96 H88 0.950 . S
C96 C95 1.345 . S
C96 C97 1.424 . S
C97 H89 0.951 . S
C97 C96 1.424 . S
C97 C98 1.347 . S
C98 H90 0.951 1_565 S
C98 C93 1.429 . S
C98 C97 1.347 . S
H99 C100 0.951 . S
C100 H99 0.951 . S
C100 C106 1.265 . S
H101 C106 0.950 . S
H102 C110 0.949 . S
H103 C111 0.950 . S
H104 C112 0.951 . S
H105 C113 0.951 . S
C106 C100 1.265 . S
C106 H101 0.950 . S
C106 C107 1.478 . S
C107 C94 1.394 . S
C107 C106 1.478 . S
C107 C108 1.397 . S
C108 C107 1.397 . S
C108 C109 1.438 1_565 S
C108 C113 1.429 . S
C109 C92 1.394 . S
C109 C108 1.438 1_545 S
C109 C110 1.428 . S
C110 H102 0.949 . S
C110 C109 1.428 . S
C110 C111 1.345 . S
C111 H103 0.950 . S
C111 C110 1.345 . S
C111 C112 1.424 . S
C112 H104 0.951 . S
C112 C111 1.424 . S
C112 C113 1.347 1_545 S
C113 H105 0.951 . S
C113 C108 1.429 . S
C113 C112 1.347 1_565 S
H114 C115 0.951 . S
C115 H114 0.951 . S
C115 C121 1.265 . S
H116 C121 0.950 . S
H117 C125 0.949 . S
H118 C126 0.950 . S
H119 C127 0.951 . S
H120 C128 0.951 . S
C121 C115 1.265 . S
C121 H116 0.950 . S
C121 C122 1.478 . S
C122 C121 1.478 . S
C122 C123 1.397 . S
C122 C139 1.394 . S
C123 C122 1.397 . S
C123 C124 1.438 . S
C123 C128 1.429 . S
C124 C123 1.438 . S
C124 C125 1.428 . S
C124 C137 1.394 . S
C125 H117 0.949 . S
C125 C124 1.428 . S
C125 C126 1.345 . S
C126 H118 0.950 . S
C126 C125 1.345 . S
C126 C127 1.424 . S
C127 H119 0.951 . S
C127 C126 1.424 . S
C127 C128 1.347 . S
C128 H120 0.951 . S
C128 C123 1.429 . S
C128 C127 1.347 . S
H129 C130 0.951 . S
C130 H129 0.951 . S
C130 C136 1.265 . S
H131 C136 0.950 . S
H132 C140 0.949 . S
H133 C141 0.950 . S
H134 C142 0.951 . S
H135 C143 0.951 . S
C136 C130 1.265 . S
C136 H131 0.950 . S
C136 C137 1.478 . S
C137 C124 1.394 . S
C137 C136 1.478 . S
C137 C138 1.397 . S
C138 C137 1.397 . S
C138 C139 1.438 . S
C138 C143 1.429 . S
C139 C122 1.394 . S
C139 C138 1.438 . S
C139 C140 1.428 . S
C140 H132 0.949 . S
C140 C139 1.428 . S
C140 C141 1.345 . S
C141 H133 0.950 . S
C141 C140 1.345 . S
C141 C142 1.424 . S
C142 H134 0.951 . S
C142 C141 1.424 . S
C142 C143 1.347 . S
C143 H135 0.951 . S
C143 C138 1.429 . S
C143 C142 1.347 . S
H144 C145 0.951 . S
C145 H144 0.951 . S
C145 C151 1.265 . S
H146 C151 0.950 . S
H147 C155 0.949 . S
H148 C156 0.950 . S
H149 C157 0.951 . S
H150 C158 0.965 . S
C151 C145 1.265 . S
C151 H146 0.950 . S
C151 C152 1.478 . S
C152 C151 1.478 . S
C152 C153 1.383 1_655 S
C152 C169 1.394 . S
C153 C152 1.383 1_455 S
C153 C154 1.449 . S
C153 C158 1.436 1_455 S
C154 C153 1.449 . S
C154 C155 1.428 . S
C154 C167 1.394 . S
C155 H147 0.949 . S
C155 C154 1.428 . S
C155 C156 1.345 . S
C156 H148 0.950 . S
C156 C155 1.345 . S
C156 C157 1.424 . S
C157 H149 0.951 . S
C157 C156 1.424 . S
C157 C158 1.329 1_455 S
C158 H150 0.965 . S
C158 C153 1.436 1_655 S
C158 C157 1.329 1_655 S
H159 C160 0.951 . S
C160 H159 0.951 . S
C160 C166 1.265 . S
H161 C166 0.950 . S
H162 C170 0.949 . S
H163 C171 0.950 . S
H164 C172 0.951 . S
H165 C173 0.951 . S
C166 C160 1.265 . S
C166 H161 0.950 . S
C166 C167 1.478 . S
C167 C154 1.394 . S
C167 C166 1.478 . S
C167 C168 1.397 . S
C168 C167 1.397 . S
C168 C169 1.438 1_455 S
C168 C173 1.429 . S
C169 C152 1.394 . S
C169 C168 1.438 1_655 S
C169 C170 1.428 . S
C170 H162 0.949 . S
C170 C169 1.428 . S
C170 C171 1.345 . S
C171 H163 0.950 . S
C171 C170 1.345 . S
C171 C172 1.424 . S
C172 H164 0.951 . S
C172 C171 1.424 . S
C172 C173 1.347 1_655 S
C173 H165 0.951 . S
C173 C168 1.429 . S
C173 C172 1.347 1_455 S
H174 C175 0.951 . S
C175 H174 0.951 . S
C175 C181 1.265 . S
H176 C181 0.950 . S
H177 C185 0.949 . S
H178 C186 0.950 . S
H179 C187 0.951 . S
H180 C188 0.970 . S
C181 C175 1.265 . S
C181 H176 0.950 . S
C181 C182 1.478 . S
C182 C181 1.478 . S
C182 C183 1.394 1_565 S
C182 C199 1.394 1_554 S
C183 C182 1.394 1_545 S
C183 C184 1.440 . S
C183 C188 1.435 1_545 S
C184 C183 1.440 . S
C184 C185 1.428 . S
C184 C197 1.394 1_554 S
C185 H177 0.949 . S
C185 C184 1.428 . S
C185 C186 1.345 . S
C186 H178 0.950 . S
C186 C185 1.345 . S
C186 C187 1.424 . S
C187 H179 0.951 . S
C187 C186 1.424 . S
C187 C188 1.323 1_545 S
C188 H180 0.970 . S
C188 C183 1.435 1_565 S
C188 C187 1.323 1_565 S
H189 C190 0.951 . S
C190 H189 0.951 . S
C190 C196 1.265 . S
H191 C196 0.950 . S
H192 C200 0.949 . S
H193 C201 0.950 . S
H194 C202 0.951 . S
H195 C203 0.951 . S
C196 C190 1.265 . S
C196 H191 0.950 . S
C196 C197 1.478 . S
C197 C184 1.394 1_556 S
C197 C196 1.478 . S
C197 C198 1.397 . S
C198 C197 1.397 . S
C198 C199 1.438 1_545 S
C198 C203 1.429 . S
C199 C182 1.394 1_556 S
C199 C198 1.438 1_565 S
C199 C200 1.428 . S
C200 H192 0.949 . S
C200 C199 1.428 . S
C200 C201 1.345 . S
C201 H193 0.950 . S
C201 C200 1.345 . S
C201 C202 1.424 . S
C202 H194 0.951 . S
C202 C201 1.424 . S
C202 C203 1.347 1_565 S
C203 H195 0.951 . S
C203 C198 1.429 . S
C203 C202 1.347 1_545 S
H204 C205 0.951 . S
C205 H204 0.951 . S
C205 C211 1.265 . S
H206 C211 0.950 . S
H207 C215 0.949 . S
H208 C216 0.950 . S
H209 C217 0.951 . S
H210 C218 0.951 . S
C211 C205 1.265 . S
C211 H206 0.950 . S
C211 C212 1.478 . S
C212 C211 1.478 . S
C212 C213 1.397 . S
C212 C229 1.394 . S
C213 C212 1.397 . S
C213 C214 1.438 . S
C213 C218 1.429 . S
C214 C213 1.438 . S
C214 C215 1.428 . S
C214 C227 1.394 . S
C215 H207 0.949 . S
C215 C214 1.428 . S
C215 C216 1.345 . S
C216 H208 0.950 . S
C216 C215 1.345 . S
C216 C217 1.424 . S
C217 H209 0.951 . S
C217 C216 1.424 . S
C217 C218 1.347 . S
C218 H210 0.951 . S
C218 C213 1.429 . S
C218 C217 1.347 . S
H219 C220 0.951 . S
C220 H219 0.951 . S
C220 C226 1.265 . S
H221 C226 0.950 . S
H222 C230 0.949 . S
H223 C231 0.950 . S
H224 C232 0.951 . S
H225 C233 0.951 . S
C226 C220 1.265 . S
C226 H221 0.950 . S
C226 C227 1.478 . S
C227 C214 1.394 . S
C227 C226 1.478 . S
C227 C228 1.397 . S
C228 C227 1.397 . S
C228 C229 1.438 . S
C228 C233 1.429 . S
C229 C212 1.394 . S
C229 C228 1.438 . S
C229 C230 1.428 . S
C230 H222 0.949 . S
C230 C229 1.428 . S
C230 C231 1.345 . S
C231 H223 0.950 . S
C231 C230 1.345 . S
C231 C232 1.424 . S
C232 H224 0.951 . S
C232 C231 1.424 . S
C232 C233 1.347 . S
C233 H225 0.951 . S
C233 C228 1.429 . S
C233 C232 1.347 . S
H234 C235 0.951 . S
C235 H234 0.951 . S
C235 C241 1.265 . S
H236 C241 0.950 . S
H237 C245 0.949 . S
H238 C246 0.950 . S
H239 C247 0.951 . S
H240 C248 0.951 1_455 S
C241 C235 1.265 . S
C241 H236 0.950 . S
C241 C242 1.478 . S
C242 C241 1.478 . S
C242 C243 1.397 1_455 S
C242 C259 1.394 . S
C243 C242 1.397 1_655 S
C243 C244 1.438 . S
C243 C248 1.429 . S
C244 C243 1.438 . S
C244 C245 1.428 . S
C244 C257 1.394 . S
C245 H237 0.949 . S
C245 C244 1.428 . S
C245 C246 1.345 . S
C246 H238 0.950 . S
C246 C245 1.345 . S
C246 C247 1.424 . S
C247 H239 0.951 . S
C247 C246 1.424 . S
C247 C248 1.347 . S
C248 H240 0.951 1_655 S
C248 C243 1.429 . S
C248 C247 1.347 . S
H249 C250 0.951 . S
C250 H249 0.951 . S
C250 C256 1.265 . S
H251 C256 0.950 . S
H252 C260 0.949 . S
H253 C261 0.950 . S
H254 C262 0.951 . S
H255 C263 0.951 . S
C256 C250 1.265 . S
C256 H251 0.950 . S
C256 C257 1.478 . S
C257 C244 1.394 . S
C257 C256 1.478 . S
C257 C258 1.397 . S
C258 C257 1.397 . S
C258 C259 1.438 1_655 S
C258 C263 1.429 . S
C259 C242 1.394 . S
C259 C258 1.438 1_455 S
C259 C260 1.428 . S
C260 H252 0.949 . S
C260 C259 1.428 . S
C260 C261 1.345 . S
C261 H253 0.950 . S
C261 C260 1.345 . S
C261 C262 1.424 . S
C262 H254 0.951 . S
C262 C261 1.424 . S
C262 C263 1.347 1_455 S
C263 H255 0.951 . S
C263 C258 1.429 . S
C263 C262 1.347 1_655 S
H264 C265 0.951 . S
C265 H264 0.951 . S
C265 C271 1.265 . S
H266 C271 0.950 . S
H267 C275 0.949 . S
H268 C276 0.950 . S
H269 C277 0.951 . S
H270 C278 0.951 . S
C271 C265 1.265 . S
C271 H266 0.950 . S
C271 C272 1.478 . S
C272 C271 1.478 . S
C272 C273 1.397 . S
C272 C289 1.394 . S
C273 C272 1.397 . S
C273 C274 1.438 . S
C273 C278 1.429 . S
C274 C273 1.438 . S
C274 C275 1.428 . S
C274 C287 1.394 . S
C275 H267 0.949 . S
C275 C274 1.428 . S
C275 C276 1.345 . S
C276 H268 0.950 . S
C276 C275 1.345 . S
C276 C277 1.424 . S
C277 H269 0.951 . S
C277 C276 1.424 . S
C277 C278 1.347 . S
C278 H270 0.951 . S
C278 C273 1.429 . S
C278 C277 1.347 . S
H279 C280 0.951 . S
C280 H279 0.951 . S
C280 C286 1.265 . S
H281 C286 0.950 . S
H282 C290 0.949 . S
H283 C291 0.950 . S
H284 C292 0.951 . S
H285 C293 0.951 . S
C286 C280 1.265 . S
C286 H281 0.950 . S
C286 C287 1.478 . S
C287 C274 1.394 . S
C287 C286 1.478 . S
C287 C288 1.397 . S
C288 C287 1.397 . S
C288 C289 1.438 . S
C288 C293 1.429 . S
C289 C272 1.394 . S
C289 C288 1.438 . S
C289 C290 1.428 . S
C290 H282 0.949 . S
C290 C289 1.428 . S
C290 C291 1.345 . S
C291 H283 0.950 . S
C291 C290 1.345 . S
C291 C292 1.424 . S
C292 H284 0.951 . S
C292 C291 1.424 . S
C292 C293 1.347 . S
C293 H285 0.951 . S
C293 C288 1.429 . S
C293 C292 1.347 . S
H294 C295 0.951 . S
C295 H294 0.951 . S
C295 C301 1.265 . S
H296 C301 0.950 . S
H297 C305 0.949 . S
H298 C306 0.950 . S
H299 C307 0.951 . S
H300 C308 0.951 . S
C301 C295 1.265 . S
C301 H296 0.950 . S
C301 C302 1.478 . S
C302 C301 1.478 . S
C302 C303 1.397 . S
C302 C319 1.394 . S
C303 C302 1.397 . S
C303 C304 1.438 . S
C303 C308 1.429 . S
C304 C303 1.438 . S
C304 C305 1.428 . S
C304 C317 1.394 . S
C305 H297 0.949 . S
C305 C304 1.428 . S
C305 C306 1.345 . S
C306 H298 0.950 . S
C306 C305 1.345 . S
C306 C307 1.424 . S
C307 H299 0.951 . S
C307 C306 1.424 . S
C307 C308 1.347 . S
C308 H300 0.951 . S
C308 C303 1.429 . S
C308 C307 1.347 . S
H309 C310 0.951 . S
C310 H309 0.951 . S
C310 C316 1.265 . S
H311 C316 0.950 . S
H312 C320 0.949 . S
H313 C321 0.950 . S
H314 C322 0.951 . S
H315 C323 0.951 . S
C316 C310 1.265 . S
C316 H311 0.950 . S
C316 C317 1.478 . S
C317 C304 1.394 . S
C317 C316 1.478 . S
C317 C318 1.397 . S
C318 C317 1.397 . S
C318 C319 1.438 . S
C318 C323 1.429 . S
C319 C302 1.394 . S
C319 C318 1.438 . S
C319 C320 1.428 . S
C320 H312 0.949 . S
C320 C319 1.428 . S
C320 C321 1.345 . S
C321 H313 0.950 . S
C321 C320 1.345 . S
C321 C322 1.424 . S
C322 H314 0.951 . S
C322 C321 1.424 . S
C322 C323 1.347 . S
C323 H315 0.951 . S
C323 C318 1.429 . S
C323 C322 1.347 . S
H324 C325 0.951 . S
C325 H324 0.951 . S
C325 C331 1.265 . S
H326 C331 0.950 . S
H327 C335 0.949 . S
H328 C336 0.950 . S
H329 C337 0.951 . S
H330 C338 0.951 . S
C331 C325 1.265 . S
C331 H326 0.950 . S
C331 C332 1.478 . S
C332 C331 1.478 . S
C332 C333 1.397 . S
C332 C349 1.394 . S
C333 C332 1.397 . S
C333 C334 1.438 . S
C333 C338 1.429 . S
C334 C333 1.438 . S
C334 C335 1.428 . S
C334 C347 1.394 . S
C335 H327 0.949 . S
C335 C334 1.428 . S
C335 C336 1.345 . S
C336 H328 0.950 . S
C336 C335 1.345 . S
C336 C337 1.424 . S
C337 H329 0.951 . S
C337 C336 1.424 . S
C337 C338 1.347 . S
C338 H330 0.951 . S
C338 C333 1.429 . S
C338 C337 1.347 . S
H339 C340 0.951 . S
C340 H339 0.951 . S
C340 C346 1.265 . S
H341 C346 0.950 . S
H342 C350 0.949 . S
H343 C351 0.950 . S
H344 C352 0.951 . S
H345 C353 0.951 . S
C346 C340 1.265 . S
C346 H341 0.950 . S
C346 C347 1.478 . S
C347 C334 1.394 . S
C347 C346 1.478 . S
C347 C348 1.397 . S
C348 C347 1.397 . S
C348 C349 1.438 . S
C348 C353 1.429 . S
C349 C332 1.394 . S
C349 C348 1.438 . S
C349 C350 1.428 . S
C350 H342 0.949 . S
C350 C349 1.428 . S
C350 C351 1.345 . S
C351 H343 0.950 . S
C351 C350 1.345 . S
C351 C352 1.424 . S
C352 H344 0.951 . S
C352 C351 1.424 . S
C352 C353 1.347 . S
C353 H345 0.951 . S
C353 C348 1.429 . S
C353 C352 1.347 . S
H354 C355 0.951 . S
C355 H354 0.951 . S
C355 C361 1.265 . S
H356 C361 0.950 . S
H357 C365 0.949 . S
H358 C366 0.950 . S
H359 C367 0.951 . S
H360 C368 0.951 . S
C361 C355 1.265 . S
C361 H356 0.950 . S
C361 C362 1.478 . S
C362 C361 1.478 . S
C362 C363 1.397 . S
C362 C379 1.394 . S
C363 C362 1.397 . S
C363 C364 1.438 . S
C363 C368 1.429 . S
C364 C363 1.438 . S
C364 C365 1.428 . S
C364 C377 1.394 . S
C365 H357 0.949 . S
C365 C364 1.428 . S
C365 C366 1.345 . S
C366 H358 0.950 . S
C366 C365 1.345 . S
C366 C367 1.424 . S
C367 H359 0.951 . S
C367 C366 1.424 . S
C367 C368 1.347 . S
C368 H360 0.951 . S
C368 C363 1.429 . S
C368 C367 1.347 . S
H369 C370 0.951 1_554 S
C370 H369 0.951 1_556 S
C370 C376 1.265 . S
H371 C376 0.950 . S
H372 C380 0.949 . S
H373 C381 0.950 . S
H374 C382 0.951 . S
H375 C383 0.951 . S
C376 C370 1.265 . S
C376 H371 0.950 . S
C376 C377 1.478 . S
C377 C364 1.394 . S
C377 C376 1.478 . S
C377 C378 1.397 . S
C378 C377 1.397 . S
C378 C379 1.438 . S
C378 C383 1.429 . S
C379 C362 1.394 . S
C379 C378 1.438 . S
C379 C380 1.428 . S
C380 H372 0.949 . S
C380 C379 1.428 . S
C380 C381 1.345 . S
C381 H373 0.950 . S
C381 C380 1.345 . S
C381 C382 1.424 . S
C382 H374 0.951 . S
C382 C381 1.424 . S
C382 C383 1.347 . S
C383 H375 0.951 . S
C383 C378 1.429 . S
C383 C382 1.347 . S
H384 C385 0.951 . S
C385 H384 0.951 . S
C385 C391 1.265 . S
H386 C391 0.950 . S
H387 C395 0.949 . S
H388 C396 0.950 . S
H389 C397 0.951 . S
H390 C398 0.951 . S
C391 C385 1.265 . S
C391 H386 0.950 . S
C391 C392 1.478 . S
C392 C391 1.478 . S
C392 C393 1.397 . S
C392 C409 1.394 . S
C393 C392 1.397 . S
C393 C394 1.438 . S
C393 C398 1.429 . S
C394 C393 1.438 . S
C394 C395 1.428 . S
C394 C407 1.394 . S
C395 H387 0.949 . S
C395 C394 1.428 . S
C395 C396 1.345 . S
C396 H388 0.950 . S
C396 C395 1.345 . S
C396 C397 1.424 . S
C397 H389 0.951 . S
C397 C396 1.424 . S
C397 C398 1.347 . S
C398 H390 0.951 . S
C398 C393 1.429 . S
C398 C397 1.347 . S
H399 C400 0.951 . S
C400 H399 0.951 . S
C400 C406 1.265 . S
H401 C406 0.950 . S
H402 C410 0.949 1_556 S
H403 C411 0.950 1_556 S
H404 C412 0.951 . S
H405 C413 0.951 . S
C406 C400 1.265 . S
C406 H401 0.950 . S
C406 C407 1.478 . S
C407 C394 1.394 . S
C407 C406 1.478 . S
C407 C408 1.397 . S
C408 C407 1.397 . S
C408 C409 1.438 . S
C408 C413 1.429 . S
C409 C392 1.394 . S
C409 C408 1.438 . S
C409 C410 1.428 . S
C410 H402 0.949 1_554 S
C410 C409 1.428 . S
C410 C411 1.345 . S
C411 H403 0.950 1_554 S
C411 C410 1.345 . S
C411 C412 1.424 . S
C412 H404 0.951 . S
C412 C411 1.424 . S
C412 C413 1.347 . S
C413 H405 0.951 . S
C413 C408 1.429 . S
C413 C412 1.347 . S
H414 C415 0.951 . S
C415 H414 0.951 . S
C415 C421 1.265 . S
H416 C421 0.950 . S
H417 C425 0.949 . S
H418 C426 0.950 . S
H419 C427 0.951 . S
H420 C428 0.951 . S
C421 C415 1.265 . S
C421 H416 0.950 . S
C421 C422 1.478 . S
C422 C421 1.478 . S
C422 C423 1.397 . S
C422 C439 1.394 . S
C423 C422 1.397 . S
C423 C424 1.438 . S
C423 C428 1.429 . S
C424 C423 1.438 . S
C424 C425 1.428 . S
C424 C437 1.394 . S
C425 H417 0.949 . S
C425 C424 1.428 . S
C425 C426 1.345 . S
C426 H418 0.950 . S
C426 C425 1.345 . S
C426 C427 1.424 . S
C427 H419 0.951 . S
C427 C426 1.424 . S
C427 C428 1.347 . S
C428 H420 0.951 . S
C428 C423 1.429 . S
C428 C427 1.347 . S
H429 C430 0.951 . S
C430 H429 0.951 . S
C430 C436 1.265 . S
H431 C436 0.950 . S
H432 C440 0.949 . S
H433 C441 0.950 . S
H434 C442 0.951 . S
H435 C443 0.951 . S
C436 C430 1.265 . S
C436 H431 0.950 . S
C436 C437 1.478 . S
C437 C424 1.394 . S
C437 C436 1.478 . S
C437 C438 1.397 . S
C438 C437 1.397 . S
C438 C439 1.438 . S
C438 C443 1.429 . S
C439 C422 1.394 . S
C439 C438 1.438 . S
C439 C440 1.428 . S
C440 H432 0.949 . S
C440 C439 1.428 . S
C440 C441 1.345 . S
C441 H433 0.950 . S
C441 C440 1.345 . S
C441 C442 1.424 . S
C442 H434 0.951 . S
C442 C441 1.424 . S
C442 C443 1.347 . S
C443 H435 0.951 . S
C443 C438 1.429 . S
C443 C442 1.347 . S
C85 C13 1.343 . S
C100 C77 1.420 . S
C115 C7 1.399 . S
C130 C27 1.384 . S
C145 C41 1.377 . S
C160 C21 1.413 . S
C175 C55 1.323 . S
C190 C35 1.423 . S
C205 C69 1.351 . S
C220 C49 1.419 . S
C235 C83 1.334 . S
C250 C63 1.422 . S
C265 C11 1.522 . S
C280 C64 1.493 . S
C295 C78 1.511 . S
C310 C25 1.510 . S
C325 C39 1.516 . S
C340 C8 1.496 . S
C355 C22 1.491 . S
C370 C53 1.518 1_556 S
C385 C36 1.457 1_554 S
C400 C67 1.534 . S
C415 C81 1.516 . S
C430 C50 1.494 . S
