# Generated by pormake.
# Topology bcs, (6)-cn, num edge types: 1
# Building blocks:
#     Node 0, Type 0, BuildingBlock: BETDAH_clean_sbu_0, # of connection points: 6
#     Node 1, Type 0, BuildingBlock: BETDAH_clean_sbu_0, # of connection points: 6
#     Node 2, Type 0, BuildingBlock: BETDAH_clean_sbu_0, # of connection points: 6
#     Node 3, Type 0, BuildingBlock: BETDAH_clean_sbu_0, # of connection points: 6
#     Node 4, Type 0, BuildingBlock: BETDAH_clean_sbu_0, # of connection points: 6
#     Node 5, Type 0, BuildingBlock: BETDAH_clean_sbu_0, # of connection points: 6
#     Node 6, Type 0, BuildingBlock: BETDAH_clean_sbu_0, # of connection points: 6
#     Node 7, Type 0, BuildingBlock: BETDAH_clean_sbu_0, # of connection points: 6
#     Node 8, Type 0, BuildingBlock: BETDAH_clean_sbu_0, # of connection points: 6
#     Node 9, Type 0, BuildingBlock: BETDAH_clean_sbu_0, # of connection points: 6
#     Node 10, Type 0, BuildingBlock: BETDAH_clean_sbu_0, # of connection points: 6
#     Node 11, Type 0, BuildingBlock: BETDAH_clean_sbu_0, # of connection points: 6
#     Node 12, Type 0, BuildingBlock: BETDAH_clean_sbu_0, # of connection points: 6
#     Node 13, Type 0, BuildingBlock: BETDAH_clean_sbu_0, # of connection points: 6
#     Node 14, Type 0, BuildingBlock: BETDAH_clean_sbu_0, # of connection points: 6
#     Node 15, Type 0, BuildingBlock: BETDAH_clean_sbu_0, # of connection points: 6
#     Edge 16, Type (0, 0), BuildingBlock: CIFDUS_clean_linker_0, # of connection points: 2
#     Edge 17, Type (0, 0), BuildingBlock: CIFDUS_clean_linker_0, # of connection points: 2
#     Edge 18, Type (0, 0), BuildingBlock: CIFDUS_clean_linker_0, # of connection points: 2
#     Edge 19, Type (0, 0), BuildingBlock: CIFDUS_clean_linker_0, # of connection points: 2
#     Edge 20, Type (0, 0), BuildingBlock: CIFDUS_clean_linker_0, # of connection points: 2
#     Edge 21, Type (0, 0), BuildingBlock: CIFDUS_clean_linker_0, # of connection points: 2
#     Edge 22, Type (0, 0), BuildingBlock: CIFDUS_clean_linker_0, # of connection points: 2
#     Edge 23, Type (0, 0), BuildingBlock: CIFDUS_clean_linker_0, # of connection points: 2
#     Edge 24, Type (0, 0), BuildingBlock: CIFDUS_clean_linker_0, # of connection points: 2
#     Edge 25, Type (0, 0), BuildingBlock: CIFDUS_clean_linker_0, # of connection points: 2
#     Edge 26, Type (0, 0), BuildingBlock: CIFDUS_clean_linker_0, # of connection points: 2
#     Edge 27, Type (0, 0), BuildingBlock: CIFDUS_clean_linker_0, # of connection points: 2
#     Edge 28, Type (0, 0), BuildingBlock: CIFDUS_clean_linker_0, # of connection points: 2
#     Edge 29, Type (0, 0), BuildingBlock: CIFDUS_clean_linker_0, # of connection points: 2
#     Edge 30, Type (0, 0), BuildingBlock: CIFDUS_clean_linker_0, # of connection points: 2
#     Edge 31, Type (0, 0), BuildingBlock: CIFDUS_clean_linker_0, # of connection points: 2
#     Edge 32, Type (0, 0), BuildingBlock: CIFDUS_clean_linker_0, # of connection points: 2
#     Edge 33, Type (0, 0), BuildingBlock: CIFDUS_clean_linker_0, # of connection points: 2
#     Edge 34, Type (0, 0), BuildingBlock: CIFDUS_clean_linker_0, # of connection points: 2
#     Edge 35, Type (0, 0), BuildingBlock: CIFDUS_clean_linker_0, # of connection points: 2
#     Edge 36, Type (0, 0), BuildingBlock: CIFDUS_clean_linker_0, # of connection points: 2
#     Edge 37, Type (0, 0), BuildingBlock: CIFDUS_clean_linker_0, # of connection points: 2
#     Edge 38, Type (0, 0), BuildingBlock: CIFDUS_clean_linker_0, # of connection points: 2
#     Edge 39, Type (0, 0), BuildingBlock: CIFDUS_clean_linker_0, # of connection points: 2
#     Edge 40, Type (0, 0), BuildingBlock: CIFDUS_clean_linker_0, # of connection points: 2
#     Edge 41, Type (0, 0), BuildingBlock: CIFDUS_clean_linker_0, # of connection points: 2
#     Edge 42, Type (0, 0), BuildingBlock: CIFDUS_clean_linker_0, # of connection points: 2
#     Edge 43, Type (0, 0), BuildingBlock: CIFDUS_clean_linker_0, # of connection points: 2
#     Edge 44, Type (0, 0), BuildingBlock: CIFDUS_clean_linker_0, # of connection points: 2
#     Edge 45, Type (0, 0), BuildingBlock: CIFDUS_clean_linker_0, # of connection points: 2
#     Edge 46, Type (0, 0), BuildingBlock: CIFDUS_clean_linker_0, # of connection points: 2
#     Edge 47, Type (0, 0), BuildingBlock: CIFDUS_clean_linker_0, # of connection points: 2
#     Edge 48, Type (0, 0), BuildingBlock: CIFDUS_clean_linker_0, # of connection points: 2
#     Edge 49, Type (0, 0), BuildingBlock: CIFDUS_clean_linker_0, # of connection points: 2
#     Edge 50, Type (0, 0), BuildingBlock: CIFDUS_clean_linker_0, # of connection points: 2
#     Edge 51, Type (0, 0), BuildingBlock: CIFDUS_clean_linker_0, # of connection points: 2
#     Edge 52, Type (0, 0), BuildingBlock: CIFDUS_clean_linker_0, # of connection points: 2
#     Edge 53, Type (0, 0), BuildingBlock: CIFDUS_clean_linker_0, # of connection points: 2
#     Edge 54, Type (0, 0), BuildingBlock: CIFDUS_clean_linker_0, # of connection points: 2
#     Edge 55, Type (0, 0), BuildingBlock: CIFDUS_clean_linker_0, # of connection points: 2
#     Edge 56, Type (0, 0), BuildingBlock: CIFDUS_clean_linker_0, # of connection points: 2
#     Edge 57, Type (0, 0), BuildingBlock: CIFDUS_clean_linker_0, # of connection points: 2
#     Edge 58, Type (0, 0), BuildingBlock: CIFDUS_clean_linker_0, # of connection points: 2
#     Edge 59, Type (0, 0), BuildingBlock: CIFDUS_clean_linker_0, # of connection points: 2
#     Edge 60, Type (0, 0), BuildingBlock: CIFDUS_clean_linker_0, # of connection points: 2
#     Edge 61, Type (0, 0), BuildingBlock: CIFDUS_clean_linker_0, # of connection points: 2
#     Edge 62, Type (0, 0), BuildingBlock: CIFDUS_clean_linker_0, # of connection points: 2
#     Edge 63, Type (0, 0), BuildingBlock: CIFDUS_clean_linker_0, # of connection points: 2
# Relax obj value: 0.258
# Max RMSD: 0.263
# Mean RMSD: 0.203
data_MOF--net-bcs--node1-BETDAH_clean_sbu_0--edge1-CIFDUS_clean_linker_0
_symmetry_space_group_name_H-M    P1
_symmetry_Int_Tables_number       1
_symmetry_cell_setting            triclinic
loop_
_symmetry_equiv_pos_as_xyz
'x, y, z'
_cell_length_a     38.518778
_cell_length_b     37.9297
_cell_length_c     36.120995
_cell_angle_alpha  74.146036
_cell_angle_beta   111.21801
_cell_angle_gamma 122.93108
loop_
_atom_site_label
_atom_site_type_symbol
_atom_site_fract_x
_atom_site_fract_y
_atom_site_fract_z
_atom_type_partial_charge
Ho0 Ho 1.05802 0.96625 1.01367 0.0
Ho1 Ho 0.0613 0.03302 0.04717 0.0
C2 C 0.1441 0.02621 0.07481 0.0
C3 C 0.07039 0.92041 0.98334 0.0
C4 C 0.09931 0.91992 0.96547 0.0
C5 C 0.14361 0.93655 0.98327 0.0
C6 C 0.16877 0.93165 0.96707 0.0
C7 C 0.15012 0.90983 0.93289 0.0
C8 C 0.106 0.89431 0.91478 0.0
C9 C 0.08103 0.89925 0.93088 0.0
C10 C 1.0125 0.93362 0.06997 0.0
C11 C 0.97726 0.97577 0.9816 0.0
C12 C 1.04818 0.07843 0.07749 0.0
C13 C 1.01609 0.08288 0.0868 0.0
C14 C 0.99422 0.05587 0.116 0.0
C15 C 0.96772 0.06408 0.12677 0.0
C16 C 0.96251 0.09951 0.10866 0.0
C17 C 0.98435 0.12615 0.07934 0.0
C18 C 1.01063 0.11796 0.06866 0.0
C19 C 0.1063 0.06594 0.99034 0.0
O20 O 0.12713 1.00622 0.04278 0.0
O21 O 0.12168 0.0343 0.0881 0.0
O22 O 0.08255 0.92424 0.02155 0.0
O23 O 1.04968 0.94061 0.96229 0.0
O24 O 1.0033 0.91484 0.04005 0.0
O25 O 1.04818 0.96771 0.07094 0.0
O26 O 0.99223 0.99519 1.01376 0.0
O27 O 1.00104 0.96797 0.97032 0.0
O28 O 1.04712 0.08294 0.03996 0.0
O29 O 1.05857 0.04988 0.09858 0.0
O30 O 0.11595 0.08461 0.02058 0.0
O31 O 0.0708 0.03156 0.98975 0.0
H32 H 0.15864 0.95257 1.01006 0.0
H33 H 0.20257 0.94388 0.98201 0.0
H34 H 0.09056 0.87813 0.88807 0.0
H35 H 1.04698 0.88609 0.9166 0.0
H36 H 0.99801 0.02877 0.13096 0.0
H37 H 0.95125 0.04261 0.14921 0.0
H38 H 0.98212 0.15422 0.06522 0.0
H39 H 1.02768 0.13989 0.04671 0.0
Ho40 Ho 0.34034 0.75282 0.30122 0.0
Ho41 Ho 0.27441 0.77738 0.2425 0.0
C42 C 0.24471 0.71145 0.31379 0.0
C43 C 0.3917 0.74503 0.36844 0.0
C44 C 0.38547 0.72661 0.40854 0.0
C45 C 0.41165 0.71062 0.43505 0.0
C46 C 0.39932 0.68326 0.46834 0.0
C47 C 0.35988 0.67047 0.47474 0.0
C48 C 0.33653 0.69067 0.45094 0.0
C49 C 0.34976 0.7192 0.41838 0.0
C50 C 0.28717 0.70439 0.24025 0.0
C51 C 0.36451 0.80819 0.22255 0.0
C52 C 0.23061 0.80093 0.17983 0.0
C53 C 0.2463 0.84387 0.16013 0.0
C54 C 0.28456 0.8768 0.18019 0.0
C55 C 0.29704 0.91866 0.16489 0.0
C56 C 0.27182 0.92792 0.12898 0.0
C57 C 0.23569 0.89472 0.10717 0.0
C58 C 0.22282 0.8528 0.12285 0.0
C59 C 0.32886 0.82612 0.30284 0.0
O60 O 0.28619 0.72521 0.33064 0.0
O61 O 0.2305 0.72165 0.27565 0.0
O62 O 0.3712 0.71803 0.34163 0.0
O63 O 0.38882 0.77927 0.35497 0.0
O64 O 0.32641 0.71157 0.25653 0.0
O65 O 0.27788 0.71969 0.25944 0.0
O66 O 0.325 0.80216 0.21019 0.0
O67 O 0.38047 0.79538 0.25911 0.0
O68 O 0.22694 0.79708 0.21559 0.0
O69 O 0.24966 0.78167 0.17831 0.0
O70 O 0.2895 0.81787 0.28816 0.0
O71 O 0.33779 0.81126 0.28293 0.0
H72 H 0.43966 0.71645 0.4283 0.0
H73 H 0.41791 0.66801 0.486 0.0
H74 H 0.30611 0.68138 0.45521 0.0
H75 H 0.33026 0.73285 0.39931 0.0
H76 H 0.30344 0.87018 0.20885 0.0
H77 H 0.32468 0.94375 0.18227 0.0
H78 H 0.21532 0.9012 0.07967 0.0
H79 H 0.19353 0.82765 0.10691 0.0
Ho80 Ho 0.54084 0.99621 0.55365 0.0
Ho81 Ho 0.57815 0.02163 0.49067 0.0
C82 C 0.51081 0.0624 0.47184 0.0
C83 C 0.51725 0.99788 0.61112 0.0
C84 C 0.49224 0.01504 0.61358 0.0
C85 C 0.50408 0.03305 0.64818 0.0
C86 C 0.48581 0.05578 0.64914 0.0
C87 C 0.45547 0.06097 0.61541 0.0
C88 C 0.44228 0.04143 0.58122 0.0
C89 C 0.46082 0.01878 0.5802 0.0
C90 C 0.49279 0.94202 0.49747 0.0
C91 C 0.60943 0.9564 0.57375 0.0
C92 C 0.60451 0.02498 0.43303 0.0
C93 C 0.63295 0.01223 0.43049 0.0
C94 C 0.66181 1.00589 0.46504 0.0
C95 C 0.68106 0.98397 0.46413 0.0
C96 C 0.67125 0.96813 0.42871 0.0
C97 C 0.64518 0.97773 0.39352 0.0
C98 C 0.62603 0.99956 0.39446 0.0
C99 C 0.62422 0.07472 0.54711 0.0
O100 O 0.51244 0.04421 0.5108 0.0
O101 O 0.53383 0.05557 0.45616 0.0
O102 O 0.49671 0.96525 0.59078 0.0
O103 O 0.55384 0.02657 0.60323 0.0
O104 O 0.49932 0.93006 0.53545 0.0
O105 O 0.51128 0.98167 0.49146 0.0
O106 O 0.60888 0.97491 0.53478 0.0
O107 O 0.58506 0.96267 0.58814 0.0
O108 O 0.6223 0.05685 0.45361 0.0
O109 O 0.56896 0.9935 0.44119 0.0
O110 O 0.61703 0.08761 0.50946 0.0
O111 O 0.60732 0.03533 0.55254 0.0
H112 H 0.52847 0.03066 0.67404 0.0
H113 H 0.49564 0.06956 0.67628 0.0
H114 H 0.41865 0.0447 0.55503 0.0
H115 H 0.45156 1.0053 0.55305 0.0
H116 H 0.66758 0.0158 0.4931 0.0
H117 H 0.7015 0.97733 0.49143 0.0
H118 H 0.63833 0.96695 0.36554 0.0
H119 H 0.60394 1.00442 0.36759 0.0
Ho120 Ho 0.32575 0.21352 0.79912 0.0
Ho121 Ho 0.30985 0.28519 0.7772 0.0
C122 C 0.36786 0.28932 0.73095 0.0
C123 C 0.32879 0.14849 0.79529 0.0
C124 C 0.32692 0.1338 0.76087 0.0
C125 C 0.31362 0.15057 0.72205 0.0
C126 C 0.31637 0.14032 0.68933 0.0
C127 C 0.33191 0.11283 0.69529 0.0
C128 C 0.34311 0.09444 0.73383 0.0
C129 C 0.34069 0.10495 0.76655 0.0
C130 C 0.38007 0.27533 0.84916 0.0
C131 C 0.26601 0.20907 0.8446 0.0
C132 C 0.30373 0.35091 0.77198 0.0
C133 C 0.29083 0.36757 0.79326 0.0
C134 C 0.29225 0.35504 0.83383 0.0
C135 C 0.28162 0.37292 0.85396 0.0
C136 C 0.26937 0.40339 0.83366 0.0
C137 C 0.26703 0.41496 0.79276 0.0
C138 C 0.27794 0.3973 0.77278 0.0
C139 C 0.25866 0.22384 0.7266 0.0
O140 O 0.35202 0.24836 0.74356 0.0
O141 O 0.3602 0.31263 0.7445 0.0
O142 O 0.36312 0.18413 0.80657 0.0
O143 O 0.29361 0.14696 0.79365 0.0
O144 O 0.3649 0.23531 0.86085 0.0
O145 O 0.3672 0.28015 0.81169 0.0
O146 O 0.27928 0.24938 0.82996 0.0
O147 O 0.27743 0.18669 0.83443 0.0
O148 O 0.27316 0.31758 0.75347 0.0
O149 O 0.33857 0.34863 0.79106 0.0
O150 O 0.27531 0.2638 0.71483 0.0
O151 O 0.26898 0.21888 0.76406 0.0
H152 H 0.30252 0.17268 0.7172 0.0
H153 H 0.30821 0.15514 0.65981 0.0
H154 H 0.35575 0.07356 0.73875 0.0
H155 H 0.35098 0.09179 0.79629 0.0
H156 H 0.30214 0.33197 0.84999 0.0
H157 H 0.2839 0.36363 0.88551 0.0
H158 H 0.25692 0.43778 0.77621 0.0
H159 H 0.27662 0.40709 0.74139 0.0
Ho160 Ho 0.0821 0.99225 0.53115 0.0
Ho161 Ho 1.0228 0.02522 0.49651 0.0
C162 C 1.00072 0.9555 0.56909 0.0
C163 C 0.1364 0.96815 0.5769 0.0
C164 C 0.17292 0.96534 0.57697 0.0
C165 C 0.20268 0.9654 0.61342 0.0
C166 C 0.2347 0.95733 0.61584 0.0
C167 C 0.23784 0.94933 0.58167 0.0
C168 C 0.209 0.95116 0.54469 0.0
C169 C 0.17672 0.95912 0.54234 0.0
C170 C 1.02144 0.95556 0.46538 0.0
C171 C 0.1 0.05932 0.45517 0.0
C172 C 0.97015 0.0528 0.4555 0.0
C173 C 0.93756 0.05817 0.46188 0.0
C174 C 0.89768 0.02344 0.46618 0.0
C175 C 0.86574 0.02979 0.4678 0.0
C176 C 0.87312 0.07081 0.46523 0.0
C177 C 0.9137 0.10535 0.46303 0.0
C178 C 0.9455 0.09909 0.46118 0.0
C179 C 0.08689 0.06309 0.56109 0.0
O180 O 1.04019 0.96253 0.57559 0.0
O181 O 0.9843 0.97361 0.53673 0.0
O182 O 0.14253 1.00586 0.57558 0.0
O183 O 0.09901 0.94331 0.55473 0.0
O184 O 0.0612 0.96545 0.47373 0.0
O185 O 1.01514 0.96404 0.4931 0.0
O186 O 0.06035 0.05082 0.44991 0.0
O187 O 0.11881 0.04345 0.48802 0.0
O188 O 0.9615 0.01433 0.45558 0.0
O189 O 1.00998 0.0771 0.4739 0.0
O190 O 1.04725 0.05223 0.55539 0.0
O191 O 0.09021 0.05359 0.53231 0.0
H192 H 0.20013 0.97004 0.64043 0.0
H193 H 0.25573 0.95545 0.64495 0.0
H194 H 0.21073 0.94541 0.51781 0.0
H195 H 0.154 0.95912 0.51383 0.0
H196 H 0.89059 0.99145 0.46704 0.0
H197 H 0.83483 1.0028 0.46982 0.0
H198 H 0.92005 0.13737 0.46035 0.0
H199 H 0.97586 0.12641 0.45771 0.0
Ho200 Ho 0.35008 0.77254 0.76257 0.0
Ho201 Ho 0.40734 0.77864 0.71533 0.0
C202 C 0.37756 0.84646 0.68841 0.0
C203 C 0.32655 0.789 0.8119 0.0
C204 C 0.30294 0.80681 0.81772 0.0
C205 C 0.3232 0.83445 0.84739 0.0
C206 C 0.30028 0.847 0.85822 0.0
C207 C 0.2563 0.83219 0.83966 0.0
C208 C 0.23657 0.80601 0.80857 0.0
C209 C 0.25953 0.79335 0.79784 0.0
C210 C 0.30297 0.72509 0.70065 0.0
C211 C 0.3646 0.69719 0.77263 0.0
C212 C 0.4474 0.76415 0.68072 0.0
C213 C 0.45054 0.73235 0.66601 0.0
C214 C 0.45653 0.7398 0.62771 0.0
C215 C 0.46587 0.7143 0.61512 0.0
C216 C 0.46989 0.68024 0.64045 0.0
C217 C 0.46221 0.67192 0.67833 0.0
C218 C 0.45294 0.69748 0.69089 0.0
C219 C 0.44665 0.82238 0.78222 0.0
O220 O 0.36284 0.83224 0.72059 0.0
O221 O 0.39278 0.82845 0.67694 0.0
O222 O 0.30452 0.75342 0.79564 0.0
O223 O 0.36226 0.81515 0.80136 0.0
O224 O 0.29033 0.71932 0.73166 0.0
O225 O 0.33812 0.75994 0.70101 0.0
O226 O 0.37201 0.71132 0.73731 0.0
O227 O 0.36447 0.72031 0.79404 0.0
O228 O 0.45678 0.76513 0.71919 0.0
O229 O 0.41689 0.77341 0.66108 0.0
O230 O 0.45897 0.83723 0.74948 0.0
O231 O 0.41555 0.78559 0.77752 0.0
H232 H 0.35655 0.84504 0.86345 0.0
H233 H 0.31668 0.86675 0.88248 0.0
H234 H 0.20304 0.79458 0.79293 0.0
H235 H 0.24297 0.77208 0.77481 0.0
H236 H 0.45549 0.76653 0.60775 0.0
H237 H 0.4716 0.72251 0.58594 0.0
H238 H 0.4637 0.64565 0.69878 0.0
H239 H 0.44862 0.69039 0.72059 0.0
Ho240 Ho 0.57132 0.98682 0.03389 0.0
Ho241 Ho 0.52195 0.02624 0.99137 0.0
C242 C 0.61057 0.07037 0.97487 0.0
C243 C 0.6214 0.95494 0.05771 0.0
C244 C 0.64673 0.94963 0.03958 0.0
C245 C 0.62826 0.93142 1.00342 0.0
C246 C 0.65241 0.92505 0.98767 0.0
C247 C 0.69565 0.93721 1.00746 0.0
C248 C 0.71432 0.95664 0.04301 0.0
C249 C 0.69001 0.96258 0.05897 0.0
C250 C 0.57223 0.03129 0.0832 0.0
C251 C 0.48237 0.94306 0.05045 0.0
C252 C 0.47299 0.05972 0.9652 0.0
C253 C 0.4467 0.06625 0.98066 0.0
C254 C 0.42492 0.03672 1.00888 0.0
C255 C 0.40152 0.04462 0.02421 0.0
C256 C 0.39984 0.08235 1.01182 0.0
C257 C 0.42153 0.1116 0.98331 0.0
C258 C 0.44463 0.10354 0.96785 0.0
C259 C 0.52118 0.98104 0.94275 0.0
O260 O 0.60798 0.03342 0.98933 0.0
O261 O 0.5831 0.07873 0.97831 0.0
O262 O 0.63451 0.99362 0.06238 0.0
O263 O 0.57971 0.93272 0.04494 0.0
O264 O 0.57 0.9949 0.09266 0.0
O265 O 0.57524 0.04391 0.04741 0.0
O266 O 0.48418 0.97949 0.0348 0.0
O267 O 0.51079 0.93487 0.04889 0.0
O268 O 0.45977 0.02094 0.96075 0.0
O269 O 0.51428 0.08089 0.98071 0.0
O270 O 0.52385 0.01764 0.93298 0.0
O271 O 0.51788 0.96884 0.9784 0.0
H272 H 0.59498 0.92146 0.98759 0.0
H273 H 0.63678 0.90954 0.96053 0.0
H274 H 0.74772 0.96714 0.05865 0.0
H275 H 0.70497 0.97704 0.08669 0.0
H276 H 0.42627 1.00779 1.0193 0.0
H277 H 0.38479 0.02121 0.04576 0.0
H278 H 0.4216 0.1413 0.97364 0.0
H279 H 0.46151 0.1268 0.9463 0.0
Ho280 Ho 0.29168 0.23614 0.24582 0.0
Ho281 Ho 0.34211 0.28944 0.29984 0.0
C282 C 0.36805 0.21105 0.32233 0.0
C283 C 0.25987 0.18735 0.19002 0.0
C284 C 0.2747 0.16722 0.17472 0.0
C285 C 0.31296 0.16656 0.19543 0.0
C286 C 0.32866 0.15062 0.17886 0.0
C287 C 0.30657 0.13543 0.14102 0.0
C288 C 0.26802 0.13598 0.12054 0.0
C289 C 0.25213 0.15152 0.13737 0.0
C290 C 0.25236 0.21331 0.30523 0.0
C291 C 0.26438 0.31411 0.22384 0.0
C292 C 0.37527 0.33916 0.35462 0.0
C293 C 0.3587 0.35848 0.36866 0.0
C294 C 0.35177 0.34444 0.40675 0.0
C295 C 0.32731 0.35423 0.41791 0.0
C296 C 0.3104 0.37951 0.39165 0.0
C297 C 0.32046 0.39651 0.3547 0.0
C298 C 0.34409 0.38574 0.34309 0.0
C299 C 0.38526 0.30831 0.24553 0.0
O300 O 0.33954 0.20521 0.28492 0.0
O301 O 0.37353 0.24401 0.33637 0.0
O302 O 0.25418 0.1735 0.22569 0.0
O303 O 0.27976 0.22835 0.18454 0.0
O304 O 0.23378 0.21556 0.26739 0.0
O305 O 0.29083 0.2247 0.30923 0.0
O306 O 0.29389 0.32051 0.26088 0.0
O307 O 0.25846 0.28059 0.21025 0.0
O308 O 0.38162 0.3525 0.31911 0.0
O309 O 0.35608 0.29817 0.361 0.0
O310 O 0.40039 0.30459 0.28377 0.0
O311 O 0.34684 0.29996 0.23778 0.0
H312 H 0.33131 0.17928 0.22392 0.0
H313 H 0.3589 0.1516 0.19515 0.0
H314 H 0.25014 0.12468 0.09136 0.0
H315 H 0.22271 0.15216 0.1208 0.0
H316 H 0.36285 0.32344 0.42694 0.0
H317 H 0.31994 0.33998 0.44637 0.0
H318 H 0.30913 0.41717 0.33427 0.0
H319 H 0.34927 0.39729 0.31356 0.0
Ho320 Ho 0.60332 0.50921 0.04919 0.0
Ho321 Ho 0.51856 0.49701 0.98671 0.0
C322 C 0.51383 0.45722 0.07764 0.0
C323 C 0.67415 0.54258 0.10377 0.0
C324 C 0.69108 0.54119 0.1469 0.0
C325 C 0.73395 0.55143 0.16276 0.0
C326 C 0.74677 0.53433 0.20091 0.0
C327 C 0.71584 0.50542 0.2222 0.0
C328 C 0.67734 0.50663 0.21081 0.0
C329 C 0.66389 0.52264 0.17209 0.0
C330 C 0.55883 0.44062 1.00841 0.0
C331 C 0.60845 0.55098 0.95853 0.0
C332 C 0.45006 0.46492 0.9297 0.0
C333 C 0.43592 0.47213 0.8866 0.0
C334 C 0.39331 0.46237 0.86973 0.0
C335 C 0.38252 0.48376 0.83368 0.0
C336 C 0.4148 0.51587 0.81517 0.0
C337 C 0.45438 0.51682 0.82699 0.0
C338 C 0.46558 0.49607 0.86365 0.0
C339 C 0.56239 0.56503 0.02776 0.0
O340 O 0.55664 0.47573 0.08924 0.0
O341 O 0.49285 0.45877 0.03954 0.0
O342 O 0.66072 0.5085 0.08801 0.0
O343 O 0.64857 0.55837 0.08826 0.0
O344 O 0.60058 0.46088 0.0203 0.0
O345 O 0.54415 0.45582 0.02151 0.0
O346 O 0.56582 0.53402 0.94711 0.0
O347 O 0.62899 0.54654 0.99623 0.0
O348 O 0.45906 0.4943 0.94974 0.0
O349 O 0.47813 0.4521 0.94303 0.0
O350 O 0.52062 0.54477 1.01573 0.0
O351 O 0.57726 0.55007 1.0146 0.0
H352 H 0.75601 0.5679 0.14406 0.0
H353 H 0.77848 0.53814 0.20968 0.0
H354 H 0.65445 0.4888 0.22859 0.0
H355 H 0.63113 0.51653 0.16072 0.0
H356 H 0.36976 0.44272 0.88677 0.0
H357 H 0.35099 0.48019 0.82487 0.0
H358 H 0.47907 0.53893 0.81168 0.0
H359 H 0.49843 0.50253 0.87582 0.0
Ho360 Ho 0.69625 0.227 0.32029 0.0
Ho361 Ho 0.75291 0.22999 0.27324 0.0
C362 C 0.74186 0.30778 0.26325 0.0
C363 C 0.65889 0.24423 0.35596 0.0
C364 C 0.65623 0.27614 0.37146 0.0
C365 C 0.66022 0.27399 0.41242 0.0
C366 C 0.65092 0.2986 0.42664 0.0
C367 C 0.63669 0.32623 0.40045 0.0
C368 C 0.63429 0.32943 0.35963 0.0
C369 C 0.64368 0.30495 0.34547 0.0
C370 C 0.65609 0.18494 0.2521 0.0
C371 C 0.72141 0.15545 0.34591 0.0
C372 C 0.77629 0.21229 0.22464 0.0
C373 C 0.80174 0.19592 0.2198 0.0
C374 C 0.79918 0.15722 0.23909 0.0
C375 C 0.82059 0.14118 0.23039 0.0
C376 C 0.84461 0.1632 0.20188 0.0
C377 C 0.84762 0.20224 0.18335 0.0
C378 C 0.82655 0.21829 0.19221 0.0
C379 C 0.8008 0.27591 0.33623 0.0
O380 O 0.73372 0.29396 0.29833 0.0
O381 O 0.74153 0.28412 0.24206 0.0
O382 O 0.64869 0.24288 0.31744 0.0
O383 O 0.68883 0.23405 0.37504 0.0
O384 O 0.64237 0.17039 0.2841 0.0
O385 O 0.68878 0.22061 0.25806 0.0
O386 O 0.73603 0.16903 0.31372 0.0
O387 O 0.70795 0.17501 0.35775 0.0
O388 O 0.79706 0.24914 0.23826 0.0
O389 O 0.7418 0.18574 0.23714 0.0
O390 O 0.8141 0.28049 0.30607 0.0
O391 O 0.76445 0.24234 0.33465 0.0
H392 H 0.66909 0.25192 0.43355 0.0
H393 H 0.65315 0.29449 0.45812 0.0
H394 H 0.62451 0.35066 0.33809 0.0
H395 H 0.63986 0.30784 0.31376 0.0
H396 H 0.78006 0.13903 0.26032 0.0
H397 H 0.81734 0.11096 0.24517 0.0
H398 H 0.86635 0.22053 0.16184 0.0
H399 H 0.82895 0.24804 0.17673 0.0
Ho400 Ho 0.06725 0.47029 0.51909 0.0
Ho401 Ho 1.03932 0.53232 0.51405 0.0
C402 C 0.10772 0.55473 0.46709 0.0
C403 C 0.07492 0.4071 0.51901 0.0
C404 C 0.10715 0.40408 0.50995 0.0
C405 C 0.09394 0.37212 0.48742 0.0
C406 C 0.12395 0.3709 0.47571 0.0
C407 C 0.16748 0.40146 0.48675 0.0
C408 C 0.18073 0.43334 0.50948 0.0
C409 C 0.15067 0.43487 0.52074 0.0
C410 C 0.12361 0.5339 0.56671 0.0
C411 C 0.99904 0.44786 0.56642 0.0
C412 C 1.03615 0.59897 0.51179 0.0
C413 C 1.0088 0.61033 0.51892 0.0
C414 C 1.02752 0.64998 0.53174 0.0
C415 C 1.00267 0.6611 0.5406 0.0
C416 C 0.95877 0.6327 0.53648 0.0
C417 C 0.93985 0.59313 0.52308 0.0
C418 C 0.96487 0.58186 0.51453 0.0
C419 C 0.98272 0.46857 0.46693 0.0
O420 O 0.09569 0.51453 0.47 0.0
O421 O 0.09507 0.56877 0.4864 0.0
O422 O 0.08747 0.42477 0.55133 0.0
O423 O 1.05213 0.4202 0.48847 0.0
O424 O 0.13528 0.51831 0.54874 0.0
O425 O 0.08335 0.51353 0.56016 0.0
O426 O 1.01074 0.4881 0.56311 0.0
O427 O 1.01196 0.43363 0.54746 0.0
O428 O 1.02031 0.57837 0.48068 0.0
O429 O 1.05621 0.584 0.54344 0.0
O430 O 0.97122 0.48462 0.48464 0.0
O431 O 1.02299 0.48894 0.47313 0.0
H432 H 0.06037 0.34855 0.4784 0.0
H433 H 0.11328 0.34597 0.45829 0.0
H434 H 0.21418 0.45741 0.51785 0.0
H435 H 0.16135 0.46039 0.53739 0.0
H436 H 0.06149 0.67208 0.5354 0.0
H437 H 1.01773 0.69176 0.55091 0.0
H438 H 0.90611 0.57061 0.52036 0.0
H439 H 0.95018 0.55088 0.50507 0.0
Ho440 Ho 0.80597 0.70864 0.27542 0.0
Ho441 Ho 0.7815 0.77285 0.25376 0.0
C442 C 0.84852 0.78883 0.21121 0.0
C443 C 0.82693 0.6552 0.27492 0.0
C444 C 0.84691 0.65597 0.24692 0.0
C445 C 0.83229 0.6654 0.20573 0.0
C446 C 0.85524 0.67245 0.17979 0.0
C447 C 0.89328 0.67059 0.19467 0.0
C448 C 0.90757 0.6607 0.23577 0.0
C449 C 0.88449 0.6534 0.26171 0.0
C450 C 0.84792 0.7658 0.32939 0.0
C451 C 0.73686 0.68941 0.31585 0.0
C452 C 0.76461 0.82951 0.2546 0.0
C453 C 0.74731 0.83413 0.28169 0.0
C454 C 0.76496 0.87417 0.29301 0.0
C455 C 0.75143 0.87889 0.32127 0.0
C456 C 0.72011 0.84354 0.33867 0.0
C457 C 0.70256 0.80335 0.32741 0.0
C458 C 0.7162 0.79864 0.29914 0.0
C459 C 0.73649 0.71446 0.2004 0.0
O460 O 0.836 0.74842 0.22361 0.0
O461 O 0.83482 0.80832 0.22261 0.0
O462 O 0.8513 0.68602 0.29782 0.0
O463 O 0.78769 0.64858 0.26002 0.0
O464 O 0.83293 0.72557 0.33889 0.0
O465 O 0.84065 0.7737 0.292 0.0
O466 O 0.74836 0.73001 0.30431 0.0
O467 O 0.75198 0.67172 0.30404 0.0
O468 O 0.73844 0.79811 0.23245 0.0
O469 O 0.80251 0.83307 0.27077 0.0
O470 O 0.75137 0.75469 0.19058 0.0
O471 O 0.74599 0.70744 0.23793 0.0
H472 H 0.80373 0.66836 0.1936 0.0
H473 H 0.84348 0.67969 0.14817 0.0
H474 H 0.93624 0.65792 0.2478 0.0
H475 H 0.89648 0.6467 0.29341 0.0
H476 H 0.78935 0.90173 0.28012 0.0
H477 H 0.76475 0.91039 0.32877 0.0
H478 H 0.6783 0.77572 0.34036 0.0
H479 H 0.70254 0.76731 0.29107 0.0
Ho480 Ho 0.85118 0.23114 0.80173 0.0
Ho481 Ho 0.79288 0.25077 0.75798 0.0
C482 C 0.76509 0.18892 0.8304 0.0
C483 C 0.90134 0.20498 0.85113 0.0
C484 C 0.89223 0.16185 0.85286 0.0
C485 C 0.84953 0.1284 0.84681 0.0
C486 C 0.83948 0.08824 0.8425 0.0
C487 C 0.87181 0.08114 0.8433 0.0
C488 C 0.91429 0.1149 0.8482 0.0
C489 C 0.9244 0.15495 0.85297 0.0
C490 C 0.7991 0.18079 0.74086 0.0
C491 C 0.87604 0.29504 0.73046 0.0
C492 C 0.75229 0.28681 0.70702 0.0
C493 C 0.77253 0.32737 0.68395 0.0
C494 C 0.74865 0.33791 0.64795 0.0
C495 C 0.76921 0.37463 0.62411 0.0
C496 C 0.81419 0.40105 0.63561 0.0
C497 C 0.83809 0.38904 0.67094 0.0
C498 C 0.81737 0.35282 0.69509 0.0
C499 C 0.84364 0.29099 0.83715 0.0
O500 O 0.80492 0.19677 0.84024 0.0
O501 O 0.74909 0.20455 0.79582 0.0
O502 O 0.90905 0.22754 0.81777 0.0
O503 O 0.87495 0.20888 0.86213 0.0
O504 O 0.84022 0.19927 0.75089 0.0
O505 O 0.78675 0.18966 0.76279 0.0
O506 O 0.83428 0.27298 0.71662 0.0
O507 O 0.89301 0.28956 0.76858 0.0
O508 O 0.7616 0.28763 0.74552 0.0
O509 O 0.75553 0.25773 0.69835 0.0
O510 O 0.84895 0.28866 0.8047 0.0
O511 O 0.84827 0.28824 0.80472 0.0
H512 H 0.82376 0.1333 0.84507 0.0
H513 H 0.80678 0.0625 0.83957 0.0
H514 H 0.94007 0.1099 0.85016 0.0
H515 H 0.9572 0.18061 0.85634 0.0
H516 H 0.71416 0.31794 0.63842 0.0
H517 H 0.74946 0.38319 0.5976 0.0
H518 H 0.87265 0.40836 0.68059 0.0
H519 H 0.83643 0.34459 0.72254 0.0
Ho520 Ho 0.78923 0.73487 0.74515 0.0
Ho521 Ho 0.83332 0.78722 0.79749 0.0
C522 C 0.86624 0.71249 0.82375 0.0
C523 C 0.7609 0.68668 0.69032 0.0
C524 C 0.7831 0.67711 0.67243 0.0
C525 C 0.78502 0.69325 0.63293 0.0
C526 C 0.81318 0.69285 0.61772 0.0
C527 C 0.83928 0.67544 0.64154 0.0
C528 C 0.83522 0.65677 0.68024 0.0
C529 C 0.80752 0.65777 0.69566 0.0
C530 C 0.74059 0.71158 0.79612 0.0
C531 C 0.75759 0.81023 0.71893 0.0
C532 C 0.85969 0.83572 0.85168 0.0
C533 C 0.83978 0.85179 0.86587 0.0
C534 C 0.82745 0.83308 0.90157 0.0
C535 C 0.80684 0.84624 0.91477 0.0
C536 C 0.79876 0.87913 0.89305 0.0
C537 C 0.8115 0.89815 0.85741 0.0
C538 C 0.83189 0.88471 0.84401 0.0
C539 C 0.88026 0.81041 0.74439 0.0
O540 O 0.83896 0.7056 0.78576 0.0
O541 O 0.86763 0.74432 0.83607 0.0
O542 O 0.76077 0.67248 0.72747 0.0
O543 O 0.76985 0.72583 0.68307 0.0
O544 O 0.72736 0.71514 0.75775 0.0
O545 O 0.77983 0.72238 0.80579 0.0
O546 O 0.78457 0.8171 0.75688 0.0
O547 O 0.75603 0.77843 0.70658 0.0
O548 O 0.86579 0.85 0.81613 0.0
O549 O 0.84503 0.79517 0.85859 0.0
O550 O 0.89478 0.80746 0.78284 0.0
O551 O 0.84123 0.79963 0.73607 0.0
H552 H 0.76642 0.70832 0.61451 0.0
H553 H 0.81553 0.70753 0.58782 0.0
H554 H 0.85374 0.64169 0.69879 0.0
H555 H 0.80648 0.64477 0.72618 0.0
H556 H 0.83316 0.80767 0.9191 0.0
H557 H 0.79668 0.82998 0.94179 0.0
H558 H 0.80653 0.92401 0.84015 0.0
H559 H 0.84131 0.90008 0.81651 0.0
Ho560 Ho 0.59149 0.51998 0.55269 0.0
Ho561 Ho 0.51627 0.48331 0.49686 0.0
C562 C 0.57947 0.45282 0.50097 0.0
C563 C 0.66171 0.54325 0.6095 0.0
C564 C 0.70583 0.5573 0.61117 0.0
C565 C 0.73313 0.55172 0.64723 0.0
C566 C 0.77279 0.5587 0.64792 0.0
C567 C 0.78584 0.57155 0.61243 0.0
C568 C 0.75967 0.58066 0.57695 0.0
C569 C 0.71984 0.5733 0.57627 0.0
C570 C 0.59873 0.56759 0.4804 0.0
C571 C 0.52831 0.55038 0.5472 0.0
C572 C 0.44499 0.46692 0.44329 0.0
C573 C 0.40858 0.46647 0.44822 0.0
C574 C 0.38519 0.48259 0.4168 0.0
C575 C 0.35769 0.49168 0.42396 0.0
C576 C 0.35316 0.4848 0.46279 0.0
C577 C 0.37502 0.46643 0.49373 0.0
C578 C 0.40254 0.45749 0.48654 0.0
C579 C 0.5085 0.43771 0.57043 0.0
O580 O 0.59896 0.4703 0.53532 0.0
O581 O 0.54702 0.45779 0.47672 0.0
O582 O 0.64742 0.56864 0.58791 0.0
O583 O 0.63395 0.50374 0.6031 0.0
O584 O 0.61025 0.58183 0.51391 0.0
O585 O 0.58126 0.5277 0.48623 0.0
O586 O 0.5118 0.53596 0.5118 0.0
O587 O 0.55718 0.54116 0.57322 0.0
O588 O 0.45358 0.43751 0.46495 0.0
O589 O 0.4793 0.50411 0.44454 0.0
O590 O 0.49525 0.42167 0.53741 0.0
O591 O 0.52698 0.47739 0.56293 0.0
H592 H 0.72279 0.53967 0.67446 0.0
H593 H 0.79147 0.55072 0.67584 0.0
H594 H 0.7688 0.59117 0.5492 0.0
H595 H 0.69914 0.57815 0.54811 0.0
H596 H 0.39006 0.49044 0.38724 0.0
H597 H 0.34211 0.50652 0.39944 0.0
H598 H 0.37191 0.46008 0.5238 0.0
H599 H 0.42085 0.44564 0.51148 0.0
Ho600 Ho 1.05269 0.50656 0.05382 0.0
Ho601 Ho 0.08524 0.52443 0.99076 0.0
C602 C 1.01673 0.56659 0.97052 0.0
C603 C 1.02718 0.50813 0.10951 0.0
C604 C 1.01216 0.53563 0.11085 0.0
C605 C 1.03081 0.57789 0.0943 0.0
C606 C 1.0118 0.60193 0.08931 0.0
C607 C 0.97352 0.58366 0.10004 0.0
C608 C 0.9552 0.54158 0.11695 0.0
C609 C 0.97448 0.51774 0.12241 0.0
C610 C 1.0087 0.44179 1.00852 0.0
C611 C 0.11854 0.46235 0.07254 0.0
C612 C 0.10542 0.5372 0.92591 0.0
C613 C 0.14179 0.54054 0.91841 0.0
C614 C 0.14595 0.54999 0.87949 0.0
C615 C 0.17702 0.54685 0.87167 0.0
C616 C 0.20371 0.53386 0.90276 0.0
C617 C 0.20143 0.52743 0.94211 0.0
C618 C 0.17066 0.5309 0.94992 0.0
C619 C 0.14457 0.57179 0.05105 0.0
O620 O 1.01652 0.5479 1.00911 0.0
O621 O 1.04225 0.56052 0.95742 0.0
O622 O 1.00206 0.48244 0.0817 0.0
O623 O 0.06785 0.52614 0.11117 0.0
O624 O 1.02034 0.43724 0.04705 0.0
O625 O 1.02076 0.47988 0.99615 0.0
O626 O 0.11106 0.47418 0.03192 0.0
O627 O 0.10107 0.47592 0.08888 0.0
O628 O 0.1146 0.56776 0.94417 0.0
O629 O 0.08002 0.49973 0.94078 0.0
O630 O 0.1516 0.55314 0.03198 0.0
O631 O 0.10656 0.56484 0.03718 0.0
H632 H 1.05931 0.59197 0.08414 0.0
H633 H 1.02657 0.63449 0.07664 0.0
H634 H 0.92618 0.52726 0.12636 0.0
H635 H 0.95931 0.48499 0.13451 0.0
H636 H 0.12385 0.55764 0.855 0.0
H637 H 0.17804 0.55146 0.84105 0.0
H638 H 0.22174 0.51733 0.9664 0.0
H639 H 0.16787 0.5238 0.9802 0.0
H640 H 0.20919 0.12415 0.85959 0.0
H641 H 0.25802 0.24655 0.89398 0.0
H642 H 0.21396 0.21349 0.94136 0.0
H643 H 0.16195 0.14968 0.97425 0.0
H644 H 0.10855 0.0276 0.93681 0.0
H645 H 0.15346 0.06031 0.88986 0.0
C646 C 0.21028 0.1437 0.87744 0.0
C647 C 0.23765 0.1882 0.87306 0.0
C648 C 0.18371 0.12433 0.90425 0.0
C649 C 0.2377 0.21256 0.89633 0.0
C650 C 0.21239 0.19352 0.92364 0.0
C651 C 0.15983 0.13012 0.95565 0.0
C652 C 0.13148 0.0859 0.95933 0.0
C653 C 0.1853 0.14945 0.92799 0.0
C654 C 0.12948 0.0615 0.93466 0.0
C655 C 0.15547 0.08033 0.90783 0.0
H656 H 0.2057 0.0481 0.04178 0.0
H657 H 0.18065 0.02427 0.15565 0.0
H658 H 0.23615 1.00406 0.18715 0.0
H659 H 0.26938 0.96921 0.17644 0.0
H660 H 0.27998 0.97859 0.05895 0.0
H661 H 0.25264 0.02797 0.03427 0.0
C662 C 0.21354 0.0398 0.0738 0.0
C663 C 0.18817 0.03565 0.09627 0.0
C664 C 0.24177 0.02402 0.0905 0.0
C665 C 0.19935 0.02678 0.13777 0.0
C666 C 0.23054 0.01453 0.15555 0.0
C667 C 0.26778 0.98387 0.14597 0.0
C668 C 0.27571 0.96996 0.11917 0.0
C669 C 0.24875 0.00929 0.13145 0.0
C670 C 0.27349 0.98872 0.07976 0.0
C671 C 0.25739 0.01646 0.06565 0.0
H672 H 0.4789 0.9631 0.41795 0.0
H673 H 0.43316 0.85856 0.50645 0.0
H674 H 0.37651 0.81372 0.45371 0.0
H675 H 0.33961 0.80475 0.38206 0.0
H676 H 0.3889 0.90794 0.29399 0.0
H677 H 0.44435 0.95333 0.34685 0.0
C678 C 0.45662 0.93045 0.42567 0.0
C679 C 0.46002 0.91412 0.46593 0.0
C680 C 0.4246 0.90492 0.39528 0.0
C681 C 0.43113 0.87176 0.47559 0.0
C682 C 0.39868 0.84621 0.4455 0.0
C683 C 0.36252 0.83724 0.37474 0.0
C684 C 0.36034 0.8535 0.33463 0.0
C685 C 0.39497 0.86254 0.40525 0.0
C686 C 0.39012 0.89528 0.32492 0.0
C687 C 0.42178 0.92102 0.35504 0.0
H688 H 0.4085 0.15917 0.68117 0.0
H689 H 0.28189 0.05593 0.63962 0.0
H690 H 0.30876 0.0372 0.60009 0.0
H691 H 0.37145 0.0388 0.59363 0.0
H692 H 0.49863 0.13862 0.64124 0.0
H693 H 0.46881 0.16998 0.6625 0.0
C694 C 0.38678 0.13323 0.66255 0.0
C695 C 0.34375 0.10848 0.66331 0.0
C696 C 0.40292 0.12107 0.64246 0.0
C697 C 0.31533 0.07501 0.63938 0.0
C698 C 0.33081 0.06396 0.61745 0.0
C699 C 0.39237 0.068 0.60768 0.0
C700 C 0.43704 0.08561 0.61732 0.0
C701 C 0.37503 0.08493 0.62114 0.0
C702 C 0.4641 0.12394 0.63472 0.0
C703 C 0.44712 0.14182 0.64688 0.0
H704 H 0.31968 0.97856 0.62879 0.0
H705 H 0.22355 0.88623 0.5455 0.0
H706 H 0.26607 0.85131 0.56508 0.0
H707 H 0.32211 0.83849 0.61611 0.0
H708 H 0.41355 0.92702 0.70354 0.0
H709 H 0.38266 0.97321 0.67102 0.0
C710 C 0.30856 0.9516 0.61399 0.0
C711 C 0.26821 0.93487 0.58606 0.0
C712 C 0.33249 0.93095 0.62631 0.0
C713 C 0.25449 0.89994 0.56705 0.0
C714 C 0.27866 0.87968 0.57849 0.0
C715 C 0.33622 0.86877 0.62686 0.0
C716 C 0.36986 0.87972 0.66188 0.0
C717 C 0.31656 0.89368 0.60951 0.0
C718 C 0.38768 0.91839 0.6764 0.0
C719 C 0.36971 0.94443 0.65812 0.0
H720 H 0.49505 0.90866 0.78859 0.0
H721 H 0.42973 0.78971 0.85496 0.0
H722 H 0.448 0.8264 0.9111 0.0
H723 H 0.48075 0.8933 0.94148 0.0
H724 H 0.54421 0.01191 0.87361 0.0
H725 H 0.52911 0.97494 0.81931 0.0
C726 C 0.48516 0.89072 0.81546 0.0
C727 C 0.46089 0.84619 0.81712 0.0
C728 C 0.49552 0.91224 0.84792 0.0
C729 C 0.44834 0.82386 0.85245 0.0
C730 C 0.45879 0.84494 0.88478 0.0
C731 C 0.49165 0.91102 0.91502 0.0
C732 C 0.51371 0.95569 0.91206 0.0
C733 C 0.48215 0.88926 0.88296 0.0
C734 C 0.52708 0.97771 0.87704 0.0
C735 C 0.5184 0.9565 0.8457 0.0
H736 H 0.39776 0.0669 0.08943 0.0
H737 H 0.35064 0.11991 0.97392 0.0
H738 H 0.31809 0.14125 1.00377 0.0
H739 H 0.30542 0.14723 0.06281 0.0
H740 H 0.34805 0.08985 0.17761 0.0
H741 H 0.38014 0.06801 0.14773 0.0
C742 C 0.37984 0.08255 0.07063 0.0
C743 C 0.37707 0.09214 0.02953 0.0
C744 C 0.36095 0.09451 0.08791 0.0
C745 C 0.35404 0.11286 1.00577 0.0
C746 C 0.33528 0.12496 0.02277 0.0
C747 C 0.32119 0.12946 0.08131 0.0
C748 C 0.32455 0.12057 0.12252 0.0
C749 C 0.33898 0.11639 0.06387 0.0
C750 C 0.3458 0.09805 0.14599 0.0
C751 C 0.36392 0.08525 0.12889 0.0
H752 H 0.18682 0.10147 0.45926 0.0
H753 H 0.06459 0.07997 0.37779 0.0
H754 H 0.09967 0.12522 0.32505 0.0
H755 H 0.16549 0.17154 0.30091 0.0
H756 H 0.28788 0.19474 0.38293 0.0
H757 H 0.25276 0.14915 0.43563 0.0
C758 C 0.16776 0.10649 0.42995 0.0
C759 C 0.12275 0.08678 0.42296 0.0
C760 C 0.1884 0.13339 0.3994 0.0
C761 C 0.0991 0.09441 0.38456 0.0
C762 C 0.11924 0.12048 0.35412 0.0
C763 C 0.18452 0.16681 0.33035 0.0
C764 C 0.22955 0.18683 0.33751 0.0
C765 C 0.16393 0.14032 0.36104 0.0
C766 C 0.25333 0.18 0.37615 0.0
C767 C 0.23316 0.15369 0.4065 0.0
H768 H 0.84819 0.16321 0.12762 0.0
H769 H 0.88963 0.12358 0.2515 0.0
H770 H 0.92779 0.09851 0.23386 0.0
H771 H 0.95281 0.09126 0.18333 0.0
H772 H 0.90954 0.13013 0.05945 0.0
H773 H 0.86957 0.15246 0.07716 0.0
C774 C 0.86572 0.14927 0.15088 0.0
C775 C 0.86622 0.1458 0.19097 0.0
C776 C 0.88771 0.13497 0.14053 0.0
C777 C 0.88839 0.12663 0.22041 0.0
C778 C 0.91047 0.11244 0.21033 0.0
C779 C 0.93419 0.10407 0.1601 0.0
C780 C 0.93502 0.10946 0.12003 0.0
C781 C 0.91076 0.11681 0.17048 0.0
C782 C 0.91063 0.1264 0.09059 0.0
C783 C 0.88743 0.13904 0.10066 0.0
H784 H 0.09922 0.55737 0.3891 0.0
H785 H 0.18431 0.62178 0.49452 0.0
H786 H 0.23517 0.67626 0.45641 0.0
H787 H 0.25438 0.70618 0.39264 0.0
H788 H 0.16638 0.64526 0.2859 0.0
H789 H 0.11716 0.58911 0.32459 0.0
C790 C 0.12913 0.58323 0.40354 0.0
C791 C 0.13865 0.58571 0.44432 0.0
C792 C 0.15725 0.61518 0.38113 0.0
C793 C 0.17683 0.61951 0.46301 0.0
C794 C 0.20573 0.65058 0.44129 0.0
C795 C 0.22446 0.68053 0.378 0.0
C796 C 0.21395 0.67957 0.33671 0.0
C797 C 0.19612 0.64888 0.40027 0.0
C798 C 0.17483 0.64669 0.31772 0.0
C799 C 0.14688 0.61448 0.33983 0.0
H800 H 0.64884 0.90409 0.56357 0.0
H801 H 0.64048 0.94343 0.65943 0.0
H802 H 0.6803 0.90969 0.70739 0.0
H803 H 0.72154 0.86572 0.72868 0.0
H804 H 0.72459 0.82122 0.63313 0.0
H805 H 0.68689 0.85699 0.58503 0.0
C806 C 0.65504 0.90627 0.59479 0.0
C807 C 0.63818 0.93029 0.60373 0.0
C808 C 0.67929 0.88388 0.62534 0.0
C809 C 0.64996 0.92803 0.64697 0.0
C810 C 0.6741 0.90755 0.67614 0.0
C811 C 0.71475 0.86294 0.69749 0.0
C812 C 0.73008 0.83746 0.68866 0.0
C813 C 0.68982 0.88467 0.66696 0.0
C814 C 0.71662 0.83808 0.64549 0.0
C815 C 0.69372 0.85975 0.61625 0.0
H816 H 0.53916 0.44067 0.92822 0.0
H817 H 0.51355 0.35885 0.03561 0.0
H818 H 0.45698 0.29954 0.99613 0.0
H819 H 0.41104 0.2721 0.93053 0.0
H820 H 0.43153 0.35656 0.82321 0.0
H821 H 0.4927 0.41355 0.86271 0.0
C822 C 0.52184 0.40951 0.94284 0.0
C823 C 0.53113 0.40375 0.98475 0.0
C824 C 0.48759 0.37622 0.91978 0.0
C825 C 0.50751 0.36371 1.00341 0.0
C826 C 0.47483 0.32996 0.9808 0.0
C827 C 0.42904 0.30294 0.91584 0.0
C828 C 0.41672 0.30988 0.8739 0.0
C829 C 0.46391 0.336 0.9389 0.0
C830 C 0.44018 0.35023 0.85539 0.0
C831 C 0.47539 0.38288 0.87798 0.0
H832 H 0.90577 0.8491 0.31685 0.0
H833 H 0.84973 0.75427 0.40757 0.0
H834 H 0.895 0.80581 0.45699 0.0
H835 H 0.95383 0.87724 0.4755 0.0
H836 H 1.01519 0.96947 0.38644 0.0
H837 H 0.96467 0.92023 0.33537 0.0
C838 C 0.90331 0.83988 0.34739 0.0
C839 C 0.8744 0.79793 0.35854 0.0
C840 C 0.93048 0.86943 0.37598 0.0
C841 C 0.87184 0.78632 0.39829 0.0
C842 C 0.8977 0.81582 0.42656 0.0
C843 C 0.95549 0.88663 0.44473 0.0
C844 C 0.98759 0.92708 0.43443 0.0
C845 C 0.92752 0.85738 0.41591 0.0
C846 C 0.99037 0.93861 0.39481 0.0
C847 C 0.96162 0.9104 0.36569 0.0
H848 H 0.54472 0.57204 0.62141 0.0
H849 H 0.47738 0.58415 0.49814 0.0
H850 H 0.45462 0.62541 0.51508 0.0
H851 H 0.45526 0.66027 0.5648 0.0
H852 H 0.51866 0.64365 0.68877 0.0
H853 H 0.5417 0.6033 0.67149 0.0
C854 C 0.52511 0.58372 0.5981 0.0
C855 C 0.51347 0.57504 0.55821 0.0
C856 C 0.51135 0.60712 0.60822 0.0
C857 C 0.48741 0.59027 0.52893 0.0
C858 C 0.47433 0.61411 0.53868 0.0
C859 C 0.47348 0.64743 0.58835 0.0
C860 C 0.48381 0.65483 0.62854 0.0
C861 C 0.48626 0.62306 0.57824 0.0
C862 C 0.50868 0.63813 0.65781 0.0
C863 C 0.52235 0.61504 0.64787 0.0
H864 H 0.67503 0.06643 0.96515 0.0
H865 H 0.6091 0.13818 0.92446 0.0
H866 H 0.64976 0.18004 0.87491 0.0
H867 H 0.70265 0.19498 0.8416 0.0
H868 H 0.77091 0.12556 0.88452 0.0
H869 H 0.73039 0.08374 0.93433 0.0
C870 C 0.66983 0.09148 0.9457 0.0
C871 C 0.639 0.09906 0.94849 0.0
C872 C 0.69333 0.11549 0.91727 0.0
C873 C 0.63279 0.13177 0.92314 0.0
C874 C 0.6558 0.15556 0.89455 0.0
C875 C 0.70832 0.17047 0.86171 0.0
C876 C 0.73923 0.16293 0.8592 0.0
C877 C 0.68575 0.14735 0.89099 0.0
C878 C 0.74708 0.13175 0.88589 0.0
C879 C 0.72403 0.10792 0.91441 0.0
H880 H 0.16765 0.44266 0.16241 0.0
H881 H 0.13624 0.40919 0.0455 0.0
H882 H 0.17082 0.36588 0.07478 0.0
H883 H 0.21327 0.33224 0.13511 0.0
H884 H 0.24963 0.36984 0.25135 0.0
H885 H 0.21331 0.41168 0.22243 0.0
C886 C 0.16741 0.42636 0.1419 0.0
C887 C 0.14521 0.43294 0.09818 0.0
C888 C 0.1903 0.3996 0.16037 0.0
C889 C 0.14996 0.40852 0.07748 0.0
C890 C 0.171 0.3822 0.09524 0.0
C891 C 0.21414 0.34905 0.15557 0.0
C892 C 0.2376 0.34352 0.19902 0.0
C893 C 0.19197 0.37641 0.13707 0.0
C894 C 0.23455 0.36936 0.21959 0.0
C895 C 0.2125 0.39482 0.20203 0.0
H896 H 0.58869 0.58896 0.88142 0.0
H897 H 0.69252 0.57655 0.97211 0.0
H898 H 0.74193 0.62563 0.93203 0.0
H899 H 0.75756 0.67331 0.87145 0.0
H900 H 0.6552 0.68549 0.77879 0.0
H901 H 0.60445 0.63639 0.81897 0.0
C902 C 0.62199 0.59667 0.89225 0.0
C903 C 0.63629 0.57866 0.93025 0.0
C904 C 0.65115 0.62558 0.86866 0.0
C905 C 0.67996 0.58964 0.9434 0.0
C906 C 0.70867 0.61801 0.9204 0.0
C907 C 0.72422 0.66547 0.8601 0.0
C908 C 0.71051 0.68346 0.82209 0.0
C909 C 0.6949 0.6365 0.88313 0.0
C910 C 0.6669 0.67237 0.80794 0.0
C911 C 0.6377 0.64406 0.83093 0.0
H912 H 0.67695 0.32148 0.23619 0.0
H913 H 0.81437 0.3835 0.26262 0.0
H914 H 0.81965 0.45117 0.26215 0.0
H915 H 0.78452 0.49076 0.25732 0.0
H916 H 0.64569 0.42594 0.22977 0.0
H917 H 0.6424 0.36033 0.23292 0.0
C918 C 0.70786 0.35032 0.24012 0.0
C919 C 0.74506 0.34852 0.24742 0.0
C920 C 0.71061 0.38787 0.24234 0.0
C921 C 0.78528 0.3851 0.25482 0.0
C922 C 0.78827 0.42327 0.25581 0.0
C923 C 0.75336 0.46261 0.25144 0.0
C924 C 0.71554 0.46491 0.24097 0.0
C925 C 0.75104 0.42476 0.25028 0.0
C926 C 0.67588 0.42673 0.23711 0.0
C927 C 0.67355 0.38871 0.23789 0.0
H928 H 0.89744 0.41063 0.46234 0.0
H929 H 1.00222 0.44451 0.41691 0.0
H930 H 0.95558 0.38606 0.37538 0.0
H931 H 0.88531 0.32764 0.34979 0.0
H932 H 0.77858 0.29111 0.39319 0.0
H933 H 0.8257 0.34773 0.43826 0.0
C934 C 0.9099 0.40508 0.4433 0.0
C935 C 0.95331 0.43215 0.44254 0.0
C936 C 0.88266 0.37086 0.41939 0.0
C937 C 0.96912 0.4243 0.4181 0.0
C938 C 0.94242 0.39084 0.39431 0.0
C939 C 0.8722 0.33165 0.36934 0.0
C940 C 0.82839 0.30518 0.36806 0.0
C941 C 0.89921 0.36422 0.39449 0.0
C942 C 0.8122 0.31079 0.3938 0.0
C943 C 0.83913 0.34342 0.41928 0.0
H944 H 0.61512 0.54522 0.42416 0.0
H945 H 0.63372 0.65285 0.46412 0.0
H946 H 0.67591 0.70021 0.4165 0.0
H947 H 0.71126 0.71208 0.36487 0.0
H948 H 0.69393 0.60365 0.32719 0.0
H949 H 0.64842 0.55679 0.37165 0.0
C950 C 0.62788 0.57897 0.4221 0.0
C951 C 0.62074 0.59512 0.44786 0.0
C952 C 0.65311 0.60646 0.39491 0.0
C953 C 0.63834 0.63922 0.4448 0.0
C954 C 0.66275 0.66652 0.41751 0.0
C955 C 0.69729 0.67822 0.36613 0.0
C956 C 0.70671 0.66198 0.34236 0.0
C957 C 0.67095 0.65071 0.39259 0.0
C958 C 0.68804 0.6177 0.34499 0.0
C959 C 0.66167 0.5905 0.37056 0.0
H960 H 0.85858 0.2838 0.91648 0.0
H961 H 0.90697 0.36919 0.81778 0.0
H962 H 0.9629 0.42303 0.86289 0.0
H963 H 0.99596 0.44669 0.92971 0.0
H964 H 0.9524 0.36032 0.02985 0.0
H965 H 0.89664 0.30559 0.98498 0.0
C966 C 0.88163 0.31418 0.90511 0.0
C967 C 0.87879 0.32277 0.86416 0.0
C968 C 0.91437 0.34458 0.93136 0.0
C969 C 0.9088 0.36194 0.84938 0.0
C970 C 0.94066 0.39272 0.87507 0.0
C971 C 0.97459 0.41571 0.94173 0.0
C972 C 0.97791 0.4074 0.98277 0.0
C973 C 0.94349 0.38447 0.91601 0.0
C974 C 0.95028 0.36722 0.99821 0.0
C975 C 0.91838 0.33609 0.9726 0.0
H976 H 0.90921 0.8741 0.20103 0.0
H977 H 0.85229 0.75423 0.15699 0.0
H978 H 0.89708 0.7878 0.11056 0.0
H979 H 0.95215 0.85111 0.08129 0.0
H980 H 1.01406 0.97065 0.12751 0.0
H981 H 0.96818 0.93786 0.17359 0.0
C982 C 0.9065 0.85536 0.18117 0.0
C983 C 0.87678 0.81131 0.18271 0.0
C984 C 0.93354 0.87501 0.1547 0.0
C985 C 0.87459 0.78784 0.15692 0.0
C986 C 0.90029 0.80716 0.13011 0.0
C987 C 0.95589 0.87013 0.10155 0.0
C988 C 0.98677 0.91369 0.10048 0.0
C989 C 0.9299 0.85068 0.12864 0.0
C990 C 0.99089 0.93731 0.12737 0.0
C991 C 0.96441 0.9184 0.15379 0.0
H992 H 0.83833 0.02079 0.89886 0.0
H993 H 0.89083 0.04598 0.80168 0.0
H994 H 0.91846 0.99751 0.8357 0.0
H995 H 0.95042 0.97299 0.90183 0.0
H996 H 0.91007 0.96224 1.00319 0.0
H997 H 0.85563 0.98026 0.95969 0.0
C998 C 0.85387 0.01388 0.88427 0.0
C999 C 0.8644 0.03794 0.84895 0.0
C1000 C 0.87378 0.99013 0.90599 0.0
C1001 C 0.88348 0.02829 0.82954 0.0
C1002 C 0.89999 1.00129 0.84938 0.0
C1003 C 0.92832 0.97266 0.91405 0.0
C1004 C 0.93511 0.96825 0.9555 0.0
C1005 C 0.89908 0.98576 0.88918 0.0
C1006 C 0.90605 0.96702 0.97125 0.0
C1007 C 0.87502 0.9774 0.94643 0.0
H1008 H 0.72331 0.17527 0.69733 0.0
H1009 H 0.81366 0.13879 0.70353 0.0
H1010 H 0.76779 0.10379 0.64222 0.0
H1011 H 0.70098 0.08242 0.58791 0.0
H1012 H 0.61414 0.12453 0.5785 0.0
H1013 H 0.66019 0.15978 0.63976 0.0
C1014 C 0.73292 0.15977 0.6851 0.0
C1015 C 0.77134 0.15905 0.70476 0.0
C1016 C 0.7074 0.14144 0.64919 0.0
C1017 C 0.78393 0.13932 0.68873 0.0
C1018 C 0.75787 0.11954 0.65375 0.0
C1019 C 0.69285 0.10013 0.59905 0.0
C1020 C 0.65492 0.10162 0.57912 0.0
C1021 C 0.71957 0.12043 0.63379 0.0
C1022 C 0.64383 0.12392 0.59344 0.0
C1023 C 0.66982 0.14356 0.62851 0.0
H1024 H 0.62281 0.89368 0.39778 0.0
H1025 H 0.752 0.97826 0.45974 0.0
H1026 H 0.77811 0.93918 0.44398 0.0
H1027 H 0.76555 0.89129 0.40083 0.0
H1028 H 0.63643 0.81045 0.33515 0.0
H1029 H 0.60861 0.83698 0.36514 0.0
C1030 C 0.65665 0.90322 0.40821 0.0
C1031 C 0.68594 0.93982 0.428 0.0
C1032 C 0.67132 0.88147 0.3983 0.0
C1033 C 0.7293 0.95097 0.44315 0.0
C1034 C 0.74415 0.92878 0.43418 0.0
C1035 C 0.73126 0.87889 0.3939 0.0
C1036 C 0.70309 0.84992 0.36521 0.0
C1037 C 0.71573 0.89556 0.40987 0.0
C1038 C 0.65868 0.833 0.35705 0.0
C1039 C 0.64281 0.84847 0.37383 0.0
H1040 H 0.76493 0.15865 0.42329 0.0
H1041 H 0.69744 0.07956 0.32693 0.0
H1042 H 0.7335 0.03841 0.36213 0.0
H1043 H 0.79678 0.0377 0.41081 0.0
H1044 H 0.87045 0.12236 0.50308 0.0
H1045 H 0.81972 0.14872 0.47929 0.0
C1046 C 0.75677 0.13116 0.41101 0.0
C1047 C 0.72888 0.12202 0.37271 0.0
C1048 C 0.77986 0.10962 0.43016 0.0
C1049 C 0.71893 0.08697 0.35647 0.0
C1050 C 0.73995 0.06386 0.37634 0.0
C1051 C 0.80073 0.0607 0.42666 0.0
C1052 C 0.8373 0.07833 0.45841 0.0
C1053 C 0.77245 0.07674 0.41184 0.0
C1054 C 0.84258 0.10863 0.47835 0.0
C1055 C 0.81366 0.12372 0.46469 0.0
H1056 H 0.59971 0.09991 0.24038 0.0
H1057 H 0.67884 0.21873 0.18212 0.0
H1058 H 0.6587 0.18398 0.12397 0.0
H1059 H 0.62037 0.11861 0.08947 0.0
H1060 H 0.54354 0.99963 0.14926 0.0
H1061 H 0.5603 0.03511 0.2055 0.0
C1062 C 0.61226 0.11828 0.21485 0.0
C1063 C 0.64089 0.16218 0.21609 0.0
C1064 C 0.60079 0.0978 0.18115 0.0
C1065 C 0.65683 0.18503 0.18244 0.0
C1066 C 0.64528 0.16507 0.14892 0.0
C1067 C 0.60681 0.10056 0.11452 0.0
C1068 C 0.58038 0.05621 0.11462 0.0
C1069 C 0.61745 0.12132 0.14781 0.0
C1070 C 0.56388 0.03364 0.148 0.0
C1071 C 0.57357 0.05398 0.18046 0.0
H1072 H 0.80681 0.88269 0.97033 0.0
H1073 H 0.74288 0.90871 0.84917 0.0
H1074 H 0.70802 0.93183 0.87382 0.0
H1075 H 0.69355 0.9422 0.92979 0.0
H1076 H 0.7536 0.91081 0.05062 0.0
H1077 H 0.79206 0.89231 0.02583 0.0
C1078 C 0.78461 0.89255 0.94912 0.0
C1079 C 0.77742 0.89351 0.90785 0.0
C1080 C 0.76404 0.90509 0.96344 0.0
C1081 C 0.74969 0.90807 0.88109 0.0
C1082 C 0.72943 0.92106 0.89516 0.0
C1083 C 0.71477 0.931 0.95073 0.0
C1084 C 0.72051 0.9279 0.99205 0.0
C1085 C 0.73608 0.91935 0.93628 0.0
C1086 C 0.74894 0.91417 1.0187 0.0
C1087 C 0.77069 0.90316 1.00456 0.0
H1088 H 1.02365 0.92192 0.64741 0.0
H1089 H 0.91505 0.92396 0.5559 0.0
H1090 H 0.86887 0.87915 0.60025 0.0
H1091 H 0.85813 0.83968 0.66571 0.0
H1092 H 0.966 0.83869 0.75875 0.0
H1093 H 1.01264 0.88185 0.71372 0.0
C1094 C 0.98988 0.91248 0.63708 0.0
C1095 C 0.9734 0.92687 0.59785 0.0
C1096 C 0.96288 0.88654 0.66331 0.0
C1097 C 0.92929 0.91402 0.58562 0.0
C1098 C 0.90251 0.8881 0.61111 0.0
C1099 C 0.89181 0.84872 0.67618 0.0
C1100 C 0.90824 0.83564 0.71588 0.0
C1101 C 0.9188 0.87423 0.65011 0.0
C1102 C 0.95219 0.84809 0.72856 0.0
C1103 C 0.97903 0.87293 0.70269 0.0
H1104 H 0.28033 0.90561 0.86707 0.0
H1105 H 0.17416 0.77933 0.84675 0.0
H1106 H 0.13254 0.79238 0.8729 0.0
H1107 H 0.12644 0.83841 0.9035 0.0
H1108 H 0.23232 0.96434 0.92518 0.0
H1109 H 0.27402 0.9521 0.89777 0.0
C1110 C 0.24817 0.88081 0.86848 0.0
C1111 C 0.23059 0.84154 0.85446 0.0
C1112 C 0.22433 0.88827 0.88427 0.0
C1113 C 0.18853 0.81016 0.85633 0.0
C1114 C 0.16469 0.81743 0.87173 0.0
C1115 C 0.15847 0.86345 0.90189 0.0
C1116 C 0.17597 0.90236 0.91642 0.0
C1117 C 0.18226 0.85627 0.88591 0.0
C1118 C 0.218 0.93393 0.91471 0.0
C1119 C 0.24183 0.92703 0.89876 0.0
H1120 H 1.0067 0.45235 0.64235 0.0
H1121 H 0.92676 0.37443 0.54487 0.0
H1122 H 0.87973 0.32049 0.58662 0.0
H1123 H 0.8632 0.2945 0.65184 0.0
H1124 H 0.94788 0.36921 0.75122 0.0
H1125 H 0.9914 0.42543 0.70806 0.0
C1126 C 0.97867 0.42369 0.63035 0.0
C1127 C 0.96966 0.41717 0.59083 0.0
C1128 C 0.95302 0.3922 0.65498 0.0
C1129 C 0.93396 0.3798 0.5754 0.0
C1130 C 0.90722 0.34905 0.5992 0.0
C1131 C 0.89124 0.32312 0.66388 0.0
C1132 C 0.90265 0.32784 0.70446 0.0
C1133 C 0.91675 0.35469 0.63918 0.0
C1134 C 0.939 0.36483 0.72005 0.0
C1135 C 0.96368 0.39703 0.69539 0.0
H1136 H 0.47014 0.08902 0.38237 0.0
H1137 H 0.48501 0.10701 0.50079 0.0
H1138 H 0.44962 0.14968 0.47185 0.0
H1139 H 0.41113 0.18661 0.41145 0.0
H1140 H 0.39013 0.16302 0.29326 0.0
H1141 H 0.42767 0.12231 0.32211 0.0
C1142 C 0.46642 0.10174 0.40319 0.0
C1143 C 0.48419 0.09143 0.44709 0.0
C1144 C 0.44295 0.12766 0.38496 0.0
C1145 C 0.47481 0.11112 0.46853 0.0
C1146 C 0.45336 0.13693 0.45104 0.0
C1147 C 0.41402 0.17314 0.39065 0.0
C1148 C 0.39468 0.18201 0.34684 0.0
C1149 C 0.43661 0.14641 0.40891 0.0
C1150 C 0.402 0.16043 0.32544 0.0
C1151 C 0.4247 0.13577 0.34288 0.0
H1152 H 0.57872 0.55743 0.10834 0.0
H1153 H 0.61015 0.64818 1.00692 0.0
H1154 H 0.66643 0.70313 0.0513 0.0
H1155 H 0.71 0.72423 0.11918 0.0
H1156 H 0.68334 0.63141 0.2205 0.0
H1157 H 0.62285 0.5784 0.17635 0.0
C1158 C 0.59721 0.58957 0.09615 0.0
C1159 C 0.5897 0.5992 0.0545 0.0
C1160 C 0.63116 0.62036 0.12194 0.0
C1161 C 0.61483 0.64043 0.0389 0.0
C1162 C 0.64734 0.67166 0.06428 0.0
C1163 C 0.69091 0.6924 0.13155 0.0
C1164 C 0.70116 0.6819 0.17312 0.0
C1165 C 0.65642 0.66182 0.10586 0.0
C1166 C 0.67627 0.64038 0.18865 0.0
C1167 C 0.64146 0.61006 0.1634 0.0
H1168 H 0.25439 0.214 0.65301 0.0
H1169 H 0.18537 0.15724 0.7433 0.0
H1170 H 0.1256 0.1027 0.70009 0.0
H1171 H 0.09191 0.07207 0.63546 0.0
H1172 H 0.16446 0.12415 0.54837 0.0
H1173 H 0.22376 0.17911 0.59123 0.0
C1174 C 0.2262 0.18961 0.66307 0.0
C1175 C 0.22385 0.18992 0.70091 0.0
C1176 C 0.19258 0.15745 0.63859 0.0
C1177 C 0.18771 0.15769 0.71415 0.0
C1178 C 0.15351 0.12655 0.68943 0.0
C1179 C 0.12081 0.09542 0.62605 0.0
C1180 C 0.1236 0.09439 0.58864 0.0
C1181 C 0.1554 0.12625 0.65143 0.0
C1182 C 0.16149 0.12435 0.57701 0.0
C1183 C 0.19538 0.15588 0.60146 0.0
H1184 H 0.66752 0.3613 0.47303 0.0
H1185 H 0.57092 0.34373 0.36054 0.0
H1186 H 0.54565 0.38007 0.38086 0.0
H1187 H 0.54956 0.4172 0.43035 0.0
H1188 H 0.64562 0.43564 0.54298 0.0
H1189 H 0.67155 0.39906 0.52304 0.0
C1190 C 0.64083 0.36517 0.45284 0.0
C1191 C 0.6219 0.34952 0.41463 0.0
C1192 C 0.62588 0.38654 0.4649 0.0
C1193 C 0.58734 0.3557 0.38953 0.0
C1194 C 0.57238 0.37643 0.40136 0.0
C1195 C 0.57614 0.41325 0.45079 0.0
C1196 C 0.59515 0.42948 0.48857 0.0
C1197 C 0.59128 0.39212 0.43892 0.0
C1198 C 0.62983 0.42373 0.51394 0.0
C1199 C 0.64484 0.40265 0.50242 0.0
H1200 H 0.49615 0.8938 0.11761 0.0
H1201 H 0.40348 0.93096 0.04067 0.0
H1202 H 0.35841 0.89169 0.08709 0.0
H1203 H 0.34722 0.84997 0.15069 0.0
H1204 H 0.44137 0.81537 0.2297 0.0
H1205 H 0.4843 0.85086 0.18136 0.0
C1206 C 0.46568 0.89255 0.11072 0.0
C1207 C 0.45284 0.91484 0.07571 0.0
C1208 C 0.44061 0.87097 0.13811 0.0
C1209 C 0.41386 0.91392 0.06746 0.0
C1210 C 0.38821 0.89162 0.09402 0.0
C1211 C 0.37704 0.84995 0.15739 0.0
C1212 C 0.39107 0.83003 0.19382 0.0
C1213 C 0.40162 0.87061 0.12969 0.0
C1214 C 0.42994 0.83066 0.202 0.0
C1215 C 0.45441 0.85078 0.1743 0.0
H1216 H 0.97532 0.61786 0.97982 0.0
H1217 H 0.98689 0.58129 0.88418 0.0
H1218 H 0.94701 0.61496 0.83611 0.0
H1219 H 0.90454 0.65818 0.8144 0.0
H1220 H 0.89844 0.7 0.90992 0.0
H1221 H 0.93622 0.66432 0.95804 0.0
C1222 C 0.96987 0.61623 0.94861 0.0
C1223 C 0.9878 0.59286 0.94001 0.0
C1224 C 0.94548 0.63868 0.91792 0.0
C1225 C 0.97672 0.59601 0.89666 0.0
C1226 C 0.95247 0.61652 0.86735 0.0
C1227 C 0.91061 0.66042 0.84558 0.0
C1228 C 0.8942 0.68525 0.85415 0.0
C1229 C 0.93574 0.63867 0.87627 0.0
C1230 C 0.90706 0.6838 0.89747 0.0
C1231 C 0.93009 0.66212 0.92681 0.0
H1232 H 0.53385 0.42121 0.1554 0.0
H1233 H 0.43085 0.43511 0.06496 0.0
H1234 H 0.38226 0.38989 0.10689 0.0
H1235 H 0.36728 0.34507 0.16922 0.0
H1236 H 0.46915 0.33076 0.26066 0.0
H1237 H 0.51876 0.37637 0.21886 0.0
C1238 C 0.50092 0.41465 0.14502 0.0
C1239 C 0.48651 0.43186 0.10662 0.0
C1240 C 0.47228 0.38785 0.16953 0.0
C1241 C 0.44333 0.42244 0.09399 0.0
C1242 C 0.41515 0.39634 0.11805 0.0
C1243 C 0.40024 0.35168 0.17992 0.0
C1244 C 0.41415 0.33416 0.21816 0.0
C1245 C 0.42899 0.3785 0.15577 0.0
C1246 C 0.45727 0.34358 0.23141 0.0
C1247 C 0.48587 0.36989 0.20748 0.0
H1248 H 0.34446 0.52525 0.7719 0.0
H1249 H 0.48184 0.5974 0.82146 0.0
H1250 H 0.47618 0.65792 0.81986 0.0
H1251 H 0.43245 0.68908 0.81099 0.0
H1252 H 0.29592 0.6193 0.76181 0.0
H1253 H 0.30057 0.55761 0.76071 0.0
C1254 C 0.37325 0.55416 0.78236 0.0
C1255 C 0.41314 0.55552 0.79826 0.0
C1256 C 0.36971 0.58845 0.78412 0.0
C1257 C 0.45033 0.59439 0.80924 0.0
C1258 C 0.44721 0.6291 0.80946 0.0
C1259 C 0.40359 0.65955 0.80194 0.0
C1260 C 0.36374 0.65749 0.78852 0.0
C1261 C 0.40697 0.62571 0.79895 0.0
C1262 C 0.32662 0.62038 0.77426 0.0
C1263 C 0.32952 0.58583 0.77235 0.0
H1264 H 0.20875 0.59336 0.57178 0.0
H1265 H 0.10349 0.55441 0.61892 0.0
H1266 H 0.14933 0.61124 0.66233 0.0
H1267 H 0.21897 0.67026 0.68853 0.0
H1268 H 0.32564 0.71278 0.6423 0.0
H1269 H 0.27963 0.6569 0.59643 0.0
C1270 C 0.19601 0.59747 0.59159 0.0
C1271 C 0.1527 0.5694 0.59228 0.0
C1272 C 0.2227 0.63098 0.61638 0.0
C1273 C 0.13654 0.57538 0.61777 0.0
C1274 C 0.16277 0.60794 0.64264 0.0
C1275 C 0.23228 0.66768 0.66821 0.0
C1276 C 0.27575 0.6957 0.66887 0.0
C1277 C 0.20581 0.6357 0.64234 0.0
C1278 C 0.29223 0.69191 0.64216 0.0
C1279 C 0.26595 0.65971 0.61619 0.0
H1280 H 0.42146 0.3737 0.71374 0.0
H1281 H 0.37267 0.25175 0.6785 0.0
H1282 H 0.41163 0.28586 0.62666 0.0
H1283 H 0.45861 0.35133 0.58937 0.0
H1284 H 0.50919 0.47238 0.62784 0.0
H1285 H 0.47099 0.43789 0.6797 0.0
C1286 C 0.41929 0.35437 0.69485 0.0
C1287 C 0.39358 0.30986 0.7003 0.0
C1288 C 0.44237 0.37429 0.66528 0.0
C1289 C 0.39197 0.28585 0.67543 0.0
C1290 C 0.4143 0.30549 0.64554 0.0
C1291 C 0.46157 0.37016 0.60931 0.0
C1292 C 0.48707 0.4148 0.60419 0.0
C1293 C 0.43951 0.34981 0.63989 0.0
C1294 C 0.4902 0.43826 0.63066 0.0
C1295 C 0.46811 0.41844 0.66048 0.0
H1296 H 0.2995 0.66731 0.19462 0.0
H1297 H 0.20585 0.68981 0.20666 0.0
H1298 H 0.15391 0.65191 0.14889 0.0
H1299 H 0.13438 0.61162 0.095 0.0
H1300 H 0.22677 0.58756 0.08282 0.0
H1301 H 0.27974 0.62682 0.14005 0.0
C1302 C 0.26773 0.66384 0.1845 0.0
C1303 C 0.25657 0.68124 0.20497 0.0
C1304 C 0.23771 0.64177 0.15109 0.0
C1305 C 0.21529 0.67663 0.19154 0.0
C1306 C 0.18547 0.65497 0.15841 0.0
C1307 C 0.16611 0.61504 0.10489 0.0
C1308 C 0.17665 0.59676 0.08481 0.0
C1309 C 0.19624 0.63732 0.13799 0.0
C1310 C 0.21793 0.60146 0.09783 0.0
C1311 C 0.24822 0.62383 0.1306 0.0
H1312 H 0.87533 0.47348 0.67037 0.0
H1313 H 0.79774 0.42726 0.55518 0.0
H1314 H 0.79582 0.49289 0.53065 0.0
H1315 H 0.78991 0.54439 0.55232 0.0
H1316 H 0.86188 0.58665 0.66981 0.0
H1317 H 0.89391 0.54271 0.68241 0.0
C1318 C 0.85994 0.47845 0.63922 0.0
C1319 C 0.83386 0.44445 0.61545 0.0
C1320 C 0.8569 0.51519 0.62615 0.0
C1321 C 0.81595 0.45226 0.57472 0.0
C1322 C 0.81464 0.48973 0.56075 0.0
C1323 C 0.81416 0.54587 0.58001 0.0
C1324 C 0.82087 0.56604 0.61138 0.0
C1325 C 0.83069 0.51887 0.58776 0.0
C1326 C 0.85404 0.56908 0.64613 0.0
C1327 C 0.87238 0.5439 0.65338 0.0
H1328 H 0.85747 0.63153 0.12802 0.0
H1329 H 0.97917 0.71677 0.20088 0.0
H1330 H 1.01685 0.70494 0.16793 0.0
H1331 H 1.01342 0.65674 0.13173 0.0
H1332 H 0.89109 0.56611 0.06462 0.0
H1333 H 0.85516 0.59457 0.08077 0.0
C1334 C 0.89226 0.64878 0.13551 0.0
C1335 C 0.91569 0.67408 0.16732 0.0
C1336 C 0.91341 0.64035 0.11778 0.0
C1337 C 0.96069 0.69635 0.17695 0.0
C1338 C 0.98214 0.68955 0.15822 0.0
C1339 C 0.97914 0.64451 0.11936 0.0
C1340 C 0.95457 0.60907 0.09785 0.0
C1341 C 0.95868 0.65951 0.13055 0.0
C1342 C 0.91025 0.59311 0.08183 0.0
C1343 C 0.88979 0.60919 0.09123 0.0
H1344 H 0.97777 0.65916 0.60652 0.0
H1345 H 0.88304 0.62952 0.49315 0.0
H1346 H 0.83996 0.64575 0.51428 0.0
H1347 H 0.82782 0.66407 0.56624 0.0
H1348 H 0.9201 0.68857 0.68152 0.0
H1349 H 0.96656 0.67977 0.65794 0.0
C1350 C 0.94796 0.65688 0.58635 0.0
C1351 C 0.93342 0.64354 0.54841 0.0
C1352 C 0.92328 0.66545 0.59893 0.0
C1353 C 0.8945 0.63974 0.52257 0.0
C1354 C 0.87015 0.64921 0.53452 0.0
C1355 C 0.85829 0.66802 0.58611 0.0
C1356 C 0.86992 0.67578 0.62586 0.0
C1357 C 0.88406 0.66162 0.5728 0.0
C1358 C 0.9098 0.68126 0.6511 0.0
C1359 C 0.93642 0.67639 0.63765 0.0
H1360 H 0.37512 0.52123 0.52916 0.0
H1361 H 0.27977 0.48697 0.41629 0.0
H1362 H 0.25919 0.53619 0.41958 0.0
H1363 H 0.2865 0.60378 0.44269 0.0
H1364 H 0.38458 0.64074 0.55271 0.0
H1365 H 0.38358 0.57348 0.56424 0.0
C1366 C 0.34844 0.52283 0.50609 0.0
C1367 C 0.33044 0.50188 0.47153 0.0
C1368 C 0.33754 0.55203 0.50765 0.0
C1369 C 0.29553 0.50418 0.44235 0.0
C1370 C 0.28356 0.53221 0.4443 0.0
C1371 C 0.30581 0.59606 0.4704 0.0
C1372 C 0.33816 0.62799 0.49538 0.0
C1373 C 0.30699 0.55881 0.47505 0.0
C1374 C 0.36143 0.61717 0.532 0.0
C1375 C 0.36125 0.57906 0.53817 0.0
H1376 H 0.29327 0.48615 0.82683 0.0
H1377 H 0.22197 0.36493 0.88785 0.0
H1378 H 0.20021 0.39672 0.91907 0.0
H1379 H 0.19568 0.45712 0.92354 0.0
H1380 H 0.26269 0.57719 0.85917 0.0
H1381 H 0.29284 0.54775 0.83527 0.0
C1382 C 0.27317 0.46671 0.84712 0.0
C1383 C 0.25902 0.42323 0.85488 0.0
C1384 C 0.26016 0.48496 0.86429 0.0
C1385 C 0.23347 0.39854 0.88164 0.0
C1386 C 0.22084 0.41661 0.89931 0.0
C1387 C 0.21768 0.47703 0.90495 0.0
C1388 C 0.22736 0.51914 0.89316 0.0
C1389 C 0.23332 0.45955 0.89018 0.0
C1390 C 0.25504 0.54463 0.86847 0.0
C1391 C 0.27192 0.52777 0.85463 0.0
H1392 H 0.31298 0.38688 0.46535 0.0
H1393 H 0.24037 0.38621 0.3419 0.0
H1394 H 0.19024 0.39408 0.36044 0.0
H1395 H 0.16578 0.39877 0.41225 0.0
H1396 H 0.23962 0.40069 0.53506 0.0
H1397 H 0.29055 0.39408 0.51621 0.0
C1398 C 0.28617 0.38822 0.44237 0.0
C1399 C 0.28084 0.38624 0.4023 0.0
C1400 C 0.25752 0.39258 0.45318 0.0
C1401 C 0.24603 0.38865 0.37296 0.0
C1402 C 0.21703 0.39271 0.38353 0.0
C1403 C 0.1931 0.39771 0.43471 0.0
C1404 C 0.19908 0.39976 0.47489 0.0
C1405 C 0.22236 0.39442 0.4236 0.0
C1406 C 0.23471 0.39914 0.50393 0.0
C1407 C 0.26358 0.39519 0.49321 0.0
loop_
_geom_bond_atom_site_label_1
_geom_bond_atom_site_label_2
_geom_bond_distance
_geom_bond_site_symmetry_2
_ccdc_geom_bond_type
Ho0 C3 2.811 . S
Ho0 O20 2.322 1_656 S
Ho0 O22 2.378 . S
Ho0 O23 2.524 1_655 S
Ho0 O24 2.381 . S
Ho0 O25 2.669 1_556 S
Ho0 O27 2.346 . S
Ho0 O31 2.305 1_665 S
Ho1 C12 2.811 . S
Ho1 O21 2.346 . S
Ho1 O25 2.305 1_445 S
Ho1 O26 2.322 1_454 S
Ho1 O28 2.378 . S
Ho1 O29 2.524 1_455 S
Ho1 O30 2.381 . S
Ho1 O31 2.669 1_554 S
C2 O20 1.259 . S
C2 O21 1.268 1_565 S
C3 Ho0 2.811 . S
C3 C4 1.488 1_655 S
C3 O22 1.215 . S
C3 O23 1.289 1_655 S
C4 C3 1.488 1_455 S
C4 C5 1.348 . S
C4 C9 1.413 1_455 S
C5 C4 1.348 . S
C5 C6 1.442 . S
C5 H32 0.930 . S
C6 C5 1.442 . S
C6 C7 1.381 . S
C6 H33 0.931 . S
C7 C6 1.381 . S
C7 C8 1.321 1_455 S
C8 C7 1.321 1_655 S
C8 C9 1.403 . S
C8 H34 0.934 . S
C9 C4 1.413 1_655 S
C9 C8 1.403 . S
C9 H35 0.930 . S
C10 O24 1.275 1_554 S
C10 O25 1.256 . S
C11 O26 1.259 . S
C11 O27 1.268 1_545 S
C12 Ho1 2.811 . S
C12 C13 1.488 1_455 S
C12 O28 1.215 . S
C12 O29 1.289 1_455 S
C13 C12 1.488 1_655 S
C13 C14 1.348 . S
C13 C18 1.413 1_655 S
C14 C13 1.348 . S
C14 C15 1.442 . S
C14 H36 0.930 . S
C15 C14 1.442 . S
C15 C16 1.381 . S
C15 H37 0.931 . S
C16 C15 1.381 . S
C16 C17 1.321 1_655 S
C17 C16 1.321 1_455 S
C17 C18 1.403 . S
C17 H38 0.934 . S
C18 C13 1.413 1_455 S
C18 C17 1.403 . S
C18 H39 0.930 . S
C19 O30 1.275 1_556 S
C19 O31 1.256 . S
O20 Ho0 2.322 1_454 S
O20 C2 1.259 . S
O21 Ho1 2.346 . S
O21 C2 1.268 1_545 S
O22 Ho0 2.378 . S
O22 C3 1.215 . S
O23 Ho0 2.524 1_455 S
O23 C3 1.289 1_455 S
O24 Ho0 2.381 . S
O24 C10 1.275 1_556 S
O25 Ho0 2.669 1_554 S
O25 Ho1 2.305 1_665 S
O25 C10 1.256 . S
O26 Ho1 2.322 1_656 S
O26 C11 1.259 . S
O27 Ho0 2.346 . S
O27 C11 1.268 1_565 S
O28 Ho1 2.378 . S
O28 C12 1.215 . S
O29 Ho1 2.524 1_655 S
O29 C12 1.289 1_655 S
O30 Ho1 2.381 . S
O30 C19 1.275 1_554 S
O31 Ho0 2.305 1_445 S
O31 Ho1 2.669 1_556 S
O31 C19 1.256 . S
H32 C5 0.930 . S
H33 C6 0.931 . S
H34 C8 0.934 . S
H35 C9 0.930 . S
H36 C14 0.930 . S
H37 C15 0.931 . S
H38 C17 0.934 . S
H39 C18 0.930 . S
Ho40 C43 2.811 . S
Ho40 O60 2.322 . S
Ho40 O62 2.378 . S
Ho40 O63 2.524 . S
Ho40 O64 2.381 . S
Ho40 O65 2.669 . S
Ho40 O67 2.346 . S
Ho40 O71 2.305 . S
Ho41 C52 2.811 . S
Ho41 O61 2.346 . S
Ho41 O65 2.305 . S
Ho41 O66 2.322 . S
Ho41 O68 2.378 . S
Ho41 O69 2.524 . S
Ho41 O70 2.381 . S
Ho41 O71 2.669 . S
C42 O60 1.259 . S
C42 O61 1.268 . S
C43 Ho40 2.811 . S
C43 C44 1.488 . S
C43 O62 1.215 . S
C43 O63 1.289 . S
C44 C43 1.488 . S
C44 C45 1.348 . S
C44 C49 1.413 . S
C45 C44 1.348 . S
C45 C46 1.442 . S
C45 H72 0.930 . S
C46 C45 1.442 . S
C46 C47 1.381 . S
C46 H73 0.931 . S
C47 C46 1.381 . S
C47 C48 1.321 . S
C48 C47 1.321 . S
C48 C49 1.403 . S
C48 H74 0.934 . S
C49 C44 1.413 . S
C49 C48 1.403 . S
C49 H75 0.930 . S
C50 O64 1.275 . S
C50 O65 1.256 . S
C51 O66 1.259 . S
C51 O67 1.268 . S
C52 Ho41 2.811 . S
C52 C53 1.488 . S
C52 O68 1.215 . S
C52 O69 1.289 . S
C53 C52 1.488 . S
C53 C54 1.348 . S
C53 C58 1.413 . S
C54 C53 1.348 . S
C54 C55 1.442 . S
C54 H76 0.930 . S
C55 C54 1.442 . S
C55 C56 1.381 . S
C55 H77 0.931 . S
C56 C55 1.381 . S
C56 C57 1.321 . S
C57 C56 1.321 . S
C57 C58 1.403 . S
C57 H78 0.934 . S
C58 C53 1.413 . S
C58 C57 1.403 . S
C58 H79 0.930 . S
C59 O70 1.275 . S
C59 O71 1.256 . S
O60 Ho40 2.322 . S
O60 C42 1.259 . S
O61 Ho41 2.346 . S
O61 C42 1.268 . S
O62 Ho40 2.378 . S
O62 C43 1.215 . S
O63 Ho40 2.524 . S
O63 C43 1.289 . S
O64 Ho40 2.381 . S
O64 C50 1.275 . S
O65 Ho40 2.669 . S
O65 Ho41 2.305 . S
O65 C50 1.256 . S
O66 Ho41 2.322 . S
O66 C51 1.259 . S
O67 Ho40 2.346 . S
O67 C51 1.268 . S
O68 Ho41 2.378 . S
O68 C52 1.215 . S
O69 Ho41 2.524 . S
O69 C52 1.289 . S
O70 Ho41 2.381 . S
O70 C59 1.275 . S
O71 Ho40 2.305 . S
O71 Ho41 2.669 . S
O71 C59 1.256 . S
H72 C45 0.930 . S
H73 C46 0.931 . S
H74 C48 0.934 . S
H75 C49 0.930 . S
H76 C54 0.930 . S
H77 C55 0.931 . S
H78 C57 0.934 . S
H79 C58 0.930 . S
Ho80 C83 2.811 1_565 S
Ho80 O100 2.322 1_565 S
Ho80 O102 2.378 . S
Ho80 O103 2.524 1_565 S
Ho80 O104 2.381 . S
Ho80 O105 2.669 . S
Ho80 O107 2.346 . S
Ho80 O111 2.305 1_565 S
Ho81 C92 2.811 1_545 S
Ho81 O101 2.346 . S
Ho81 O105 2.305 1_545 S
Ho81 O106 2.322 1_545 S
Ho81 O108 2.378 . S
Ho81 O109 2.524 1_545 S
Ho81 O110 2.381 . S
Ho81 O111 2.669 . S
C82 O100 1.259 . S
C82 O101 1.268 . S
C83 Ho80 2.811 1_545 S
C83 C84 1.488 . S
C83 O102 1.215 1_545 S
C83 O103 1.289 . S
C84 C83 1.488 . S
C84 C85 1.348 . S
C84 C89 1.413 1_545 S
C85 C84 1.348 . S
C85 C86 1.442 . S
C85 H112 0.930 . S
C86 C85 1.442 . S
C86 C87 1.381 . S
C86 H113 0.931 . S
C87 C86 1.381 . S
C87 C88 1.323 1_545 S
C88 C87 1.323 1_565 S
C88 C89 1.401 . S
C88 H114 0.934 . S
C89 C84 1.413 1_565 S
C89 C88 1.401 . S
C89 H115 0.930 . S
C90 O104 1.275 . S
C90 O105 1.256 . S
C91 O106 1.259 . S
C91 O107 1.268 . S
C92 Ho81 2.811 1_565 S
C92 C93 1.488 . S
C92 O108 1.215 1_565 S
C92 O109 1.289 . S
C93 C92 1.488 . S
C93 C94 1.348 . S
C93 C98 1.413 1_565 S
C94 C93 1.348 . S
C94 C95 1.442 . S
C94 H116 0.930 . S
C95 C94 1.442 . S
C95 C96 1.381 . S
C95 H117 0.931 . S
C96 C95 1.381 . S
C96 C97 1.310 1_565 S
C97 C96 1.310 1_545 S
C97 C98 1.413 . S
C97 H118 0.935 . S
C98 C93 1.413 1_545 S
C98 C97 1.413 . S
C98 H119 0.930 . S
C99 O110 1.275 . S
C99 O111 1.256 . S
O100 Ho80 2.322 1_545 S
O100 C82 1.259 . S
O101 Ho81 2.346 . S
O101 C82 1.268 . S
O102 Ho80 2.378 . S
O102 C83 1.215 1_565 S
O103 Ho80 2.524 1_545 S
O103 C83 1.289 . S
O104 Ho80 2.381 . S
O104 C90 1.275 . S
O105 Ho80 2.669 . S
O105 Ho81 2.305 1_565 S
O105 C90 1.256 . S
O106 Ho81 2.322 1_565 S
O106 C91 1.259 . S
O107 Ho80 2.346 . S
O107 C91 1.268 . S
O108 Ho81 2.378 . S
O108 C92 1.215 1_545 S
O109 Ho81 2.524 1_565 S
O109 C92 1.289 . S
O110 Ho81 2.381 . S
O110 C99 1.275 . S
O111 Ho80 2.305 1_545 S
O111 Ho81 2.669 . S
O111 C99 1.256 . S
H112 C85 0.930 . S
H113 C86 0.931 . S
H114 C88 0.934 . S
H115 C89 0.930 . S
H116 C94 0.930 . S
H117 C95 0.931 . S
H118 C97 0.935 . S
H119 C98 0.930 . S
Ho120 C123 2.811 . S
Ho120 O140 2.322 . S
Ho120 O142 2.378 . S
Ho120 O143 2.524 . S
Ho120 O144 2.381 . S
Ho120 O145 2.669 . S
Ho120 O147 2.346 . S
Ho120 O151 2.305 . S
Ho121 C132 2.811 . S
Ho121 O141 2.346 . S
Ho121 O145 2.305 . S
Ho121 O146 2.322 . S
Ho121 O148 2.378 . S
Ho121 O149 2.524 . S
Ho121 O150 2.381 . S
Ho121 O151 2.669 . S
C122 O140 1.259 . S
C122 O141 1.268 . S
C123 Ho120 2.811 . S
C123 C124 1.488 . S
C123 O142 1.215 . S
C123 O143 1.289 . S
C124 C123 1.488 . S
C124 C125 1.348 . S
C124 C129 1.413 . S
C125 C124 1.348 . S
C125 C126 1.442 . S
C125 H152 0.930 . S
C126 C125 1.442 . S
C126 C127 1.381 . S
C126 H153 0.931 . S
C127 C126 1.381 . S
C127 C128 1.321 . S
C128 C127 1.321 . S
C128 C129 1.403 . S
C128 H154 0.934 . S
C129 C124 1.413 . S
C129 C128 1.403 . S
C129 H155 0.930 . S
C130 O144 1.275 . S
C130 O145 1.256 . S
C131 O146 1.259 . S
C131 O147 1.268 . S
C132 Ho121 2.811 . S
C132 C133 1.488 . S
C132 O148 1.215 . S
C132 O149 1.289 . S
C133 C132 1.488 . S
C133 C134 1.348 . S
C133 C138 1.413 . S
C134 C133 1.348 . S
C134 C135 1.442 . S
C134 H156 0.930 . S
C135 C134 1.442 . S
C135 C136 1.381 . S
C135 H157 0.931 . S
C136 C135 1.381 . S
C136 C137 1.321 . S
C137 C136 1.321 . S
C137 C138 1.403 . S
C137 H158 0.934 . S
C138 C133 1.413 . S
C138 C137 1.403 . S
C138 H159 0.930 . S
C139 O150 1.275 . S
C139 O151 1.256 . S
O140 Ho120 2.322 . S
O140 C122 1.259 . S
O141 Ho121 2.346 . S
O141 C122 1.268 . S
O142 Ho120 2.378 . S
O142 C123 1.215 . S
O143 Ho120 2.524 . S
O143 C123 1.289 . S
O144 Ho120 2.381 . S
O144 C130 1.275 . S
O145 Ho120 2.669 . S
O145 Ho121 2.305 . S
O145 C130 1.256 . S
O146 Ho121 2.322 . S
O146 C131 1.259 . S
O147 Ho120 2.346 . S
O147 C131 1.268 . S
O148 Ho121 2.378 . S
O148 C132 1.215 . S
O149 Ho121 2.524 . S
O149 C132 1.289 . S
O150 Ho121 2.381 . S
O150 C139 1.275 . S
O151 Ho120 2.305 . S
O151 Ho121 2.669 . S
O151 C139 1.256 . S
H152 C125 0.930 . S
H153 C126 0.931 . S
H154 C128 0.934 . S
H155 C129 0.930 . S
H156 C134 0.930 . S
H157 C135 0.931 . S
H158 C137 0.934 . S
H159 C138 0.930 . S
Ho160 C163 2.811 . S
Ho160 O180 2.322 1_455 S
Ho160 O182 2.378 . S
Ho160 O183 2.524 . S
Ho160 O184 2.381 1_455 S
Ho160 O185 2.669 1_455 S
Ho160 O187 2.346 1_565 S
Ho160 O191 2.305 1_565 S
Ho161 C172 2.811 . S
Ho161 O181 2.346 1_545 S
Ho161 O185 2.305 1_545 S
Ho161 O186 2.322 1_655 S
Ho161 O188 2.378 . S
Ho161 O189 2.524 . S
Ho161 O190 2.381 1_655 S
Ho161 O191 2.669 1_655 S
C162 O180 1.259 . S
C162 O181 1.268 . S
C163 Ho160 2.811 . S
C163 C164 1.488 . S
C163 O182 1.215 . S
C163 O183 1.289 . S
C164 C163 1.488 . S
C164 C165 1.348 . S
C164 C169 1.413 . S
C165 C164 1.348 . S
C165 C166 1.442 . S
C165 H192 0.930 . S
C166 C165 1.442 . S
C166 C167 1.381 . S
C166 H193 0.931 . S
C167 C166 1.381 . S
C167 C168 1.321 . S
C168 C167 1.321 . S
C168 C169 1.403 . S
C168 H194 0.934 . S
C169 C164 1.413 . S
C169 C168 1.403 . S
C169 H195 0.930 . S
C170 O184 1.275 . S
C170 O185 1.256 . S
C171 O186 1.259 . S
C171 O187 1.268 . S
C172 Ho161 2.811 . S
C172 C173 1.488 . S
C172 O188 1.215 . S
C172 O189 1.289 . S
C173 C172 1.488 . S
C173 C174 1.348 . S
C173 C178 1.413 . S
C174 C173 1.348 . S
C174 C175 1.442 . S
C174 H196 0.930 . S
C175 C174 1.442 . S
C175 C176 1.381 . S
C175 H197 0.931 . S
C176 C175 1.381 . S
C176 C177 1.321 . S
C177 C176 1.321 . S
C177 C178 1.403 . S
C177 H198 0.934 . S
C178 C173 1.413 . S
C178 C177 1.403 . S
C178 H199 0.930 . S
C179 O190 1.275 . S
C179 O191 1.256 . S
O180 Ho160 2.322 1_655 S
O180 C162 1.259 . S
O181 Ho161 2.346 1_565 S
O181 C162 1.268 . S
O182 Ho160 2.378 . S
O182 C163 1.215 . S
O183 Ho160 2.524 . S
O183 C163 1.289 . S
O184 Ho160 2.381 1_655 S
O184 C170 1.275 . S
O185 Ho160 2.669 1_655 S
O185 Ho161 2.305 1_565 S
O185 C170 1.256 . S
O186 Ho161 2.322 1_455 S
O186 C171 1.259 . S
O187 Ho160 2.346 1_545 S
O187 C171 1.268 . S
O188 Ho161 2.378 . S
O188 C172 1.215 . S
O189 Ho161 2.524 . S
O189 C172 1.289 . S
O190 Ho161 2.381 1_455 S
O190 C179 1.275 . S
O191 Ho160 2.305 1_545 S
O191 Ho161 2.669 1_455 S
O191 C179 1.256 . S
H192 C165 0.930 . S
H193 C166 0.931 . S
H194 C168 0.934 . S
H195 C169 0.930 . S
H196 C174 0.930 . S
H197 C175 0.931 . S
H198 C177 0.934 . S
H199 C178 0.930 . S
Ho200 C203 2.811 . S
Ho200 O220 2.322 . S
Ho200 O222 2.378 . S
Ho200 O223 2.524 . S
Ho200 O224 2.381 . S
Ho200 O225 2.669 . S
Ho200 O227 2.346 . S
Ho200 O231 2.305 . S
Ho201 C212 2.811 . S
Ho201 O221 2.346 . S
Ho201 O225 2.305 . S
Ho201 O226 2.322 . S
Ho201 O228 2.378 . S
Ho201 O229 2.524 . S
Ho201 O230 2.381 . S
Ho201 O231 2.669 . S
C202 O220 1.259 . S
C202 O221 1.268 . S
C203 Ho200 2.811 . S
C203 C204 1.488 . S
C203 O222 1.215 . S
C203 O223 1.289 . S
C204 C203 1.488 . S
C204 C205 1.348 . S
C204 C209 1.413 . S
C205 C204 1.348 . S
C205 C206 1.442 . S
C205 H232 0.930 . S
C206 C205 1.442 . S
C206 C207 1.381 . S
C206 H233 0.931 . S
C207 C206 1.381 . S
C207 C208 1.321 . S
C208 C207 1.321 . S
C208 C209 1.403 . S
C208 H234 0.934 . S
C209 C204 1.413 . S
C209 C208 1.403 . S
C209 H235 0.930 . S
C210 O224 1.275 . S
C210 O225 1.256 . S
C211 O226 1.259 . S
C211 O227 1.268 . S
C212 Ho201 2.811 . S
C212 C213 1.488 . S
C212 O228 1.215 . S
C212 O229 1.289 . S
C213 C212 1.488 . S
C213 C214 1.348 . S
C213 C218 1.413 . S
C214 C213 1.348 . S
C214 C215 1.442 . S
C214 H236 0.930 . S
C215 C214 1.442 . S
C215 C216 1.381 . S
C215 H237 0.931 . S
C216 C215 1.381 . S
C216 C217 1.321 . S
C217 C216 1.321 . S
C217 C218 1.403 . S
C217 H238 0.934 . S
C218 C213 1.413 . S
C218 C217 1.403 . S
C218 H239 0.930 . S
C219 O230 1.275 . S
C219 O231 1.256 . S
O220 Ho200 2.322 . S
O220 C202 1.259 . S
O221 Ho201 2.346 . S
O221 C202 1.268 . S
O222 Ho200 2.378 . S
O222 C203 1.215 . S
O223 Ho200 2.524 . S
O223 C203 1.289 . S
O224 Ho200 2.381 . S
O224 C210 1.275 . S
O225 Ho200 2.669 . S
O225 Ho201 2.305 . S
O225 C210 1.256 . S
O226 Ho201 2.322 . S
O226 C211 1.259 . S
O227 Ho200 2.346 . S
O227 C211 1.268 . S
O228 Ho201 2.378 . S
O228 C212 1.215 . S
O229 Ho201 2.524 . S
O229 C212 1.289 . S
O230 Ho201 2.381 . S
O230 C219 1.275 . S
O231 Ho200 2.305 . S
O231 Ho201 2.669 . S
O231 C219 1.256 . S
H232 C205 0.930 . S
H233 C206 0.931 . S
H234 C208 0.934 . S
H235 C209 0.930 . S
H236 C214 0.930 . S
H237 C215 0.931 . S
H238 C217 0.934 . S
H239 C218 0.930 . S
Ho240 C243 2.811 1_554 S
Ho240 O260 2.322 1_564 S
Ho240 O262 2.378 . S
Ho240 O263 2.524 1_554 S
Ho240 O264 2.381 1_565 S
Ho240 O265 2.669 1_565 S
Ho240 O267 2.346 . S
Ho240 O271 2.305 1_554 S
Ho241 C252 2.811 1_556 S
Ho241 O261 2.346 . S
Ho241 O265 2.305 1_556 S
Ho241 O266 2.322 1_546 S
Ho241 O268 2.378 . S
Ho241 O269 2.524 1_556 S
Ho241 O270 2.381 1_545 S
Ho241 O271 2.669 1_545 S
C242 O260 1.259 . S
C242 O261 1.268 . S
C243 Ho240 2.811 1_556 S
C243 C244 1.488 . S
C243 O262 1.215 1_556 S
C243 O263 1.289 . S
C244 C243 1.488 . S
C244 C245 1.348 . S
C244 C249 1.413 1_556 S
C245 C244 1.348 . S
C245 C246 1.442 . S
C245 H272 0.930 . S
C246 C245 1.442 . S
C246 C247 1.381 . S
C246 H273 0.931 . S
C247 C246 1.381 . S
C247 C248 1.321 . S
C248 C247 1.321 . S
C248 C249 1.403 1_556 S
C248 H274 0.934 1_556 S
C249 C244 1.413 1_554 S
C249 C248 1.403 1_554 S
C249 H275 0.930 . S
C250 O264 1.275 . S
C250 O265 1.256 . S
C251 O266 1.259 . S
C251 O267 1.268 . S
C252 Ho241 2.811 1_554 S
C252 C253 1.488 . S
C252 O268 1.215 1_554 S
C252 O269 1.289 . S
C253 C252 1.488 . S
C253 C254 1.348 . S
C253 C258 1.413 1_554 S
C254 C253 1.348 . S
C254 C255 1.442 . S
C254 H276 0.930 . S
C255 C254 1.442 . S
C255 C256 1.381 . S
C255 H277 0.931 . S
C256 C255 1.381 . S
C256 C257 1.321 . S
C257 C256 1.321 . S
C257 C258 1.403 1_554 S
C257 H278 0.934 1_554 S
C258 C253 1.413 1_556 S
C258 C257 1.403 1_556 S
C258 H279 0.930 . S
C259 O270 1.275 . S
C259 O271 1.256 . S
O260 Ho240 2.322 1_546 S
O260 C242 1.259 . S
O261 Ho241 2.346 . S
O261 C242 1.268 . S
O262 Ho240 2.378 . S
O262 C243 1.215 1_554 S
O263 Ho240 2.524 1_556 S
O263 C243 1.289 . S
O264 Ho240 2.381 1_545 S
O264 C250 1.275 . S
O265 Ho240 2.669 1_545 S
O265 Ho241 2.305 1_554 S
O265 C250 1.256 . S
O266 Ho241 2.322 1_564 S
O266 C251 1.259 . S
O267 Ho240 2.346 . S
O267 C251 1.268 . S
O268 Ho241 2.378 . S
O268 C252 1.215 1_556 S
O269 Ho241 2.524 1_554 S
O269 C252 1.289 . S
O270 Ho241 2.381 1_565 S
O270 C259 1.275 . S
O271 Ho240 2.305 1_556 S
O271 Ho241 2.669 1_565 S
O271 C259 1.256 . S
H272 C245 0.930 . S
H273 C246 0.931 . S
H274 C248 0.934 1_554 S
H275 C249 0.930 . S
H276 C254 0.930 . S
H277 C255 0.931 . S
H278 C257 0.934 1_556 S
H279 C258 0.930 . S
Ho280 C283 2.811 . S
Ho280 O300 2.322 . S
Ho280 O302 2.378 . S
Ho280 O303 2.524 . S
Ho280 O304 2.381 . S
Ho280 O305 2.669 . S
Ho280 O307 2.346 . S
Ho280 O311 2.305 . S
Ho281 C292 2.811 . S
Ho281 O301 2.346 . S
Ho281 O305 2.305 . S
Ho281 O306 2.322 . S
Ho281 O308 2.378 . S
Ho281 O309 2.524 . S
Ho281 O310 2.381 . S
Ho281 O311 2.669 . S
C282 O300 1.259 . S
C282 O301 1.268 . S
C283 Ho280 2.811 . S
C283 C284 1.488 . S
C283 O302 1.215 . S
C283 O303 1.289 . S
C284 C283 1.488 . S
C284 C285 1.348 . S
C284 C289 1.413 . S
C285 C284 1.348 . S
C285 C286 1.442 . S
C285 H312 0.930 . S
C286 C285 1.442 . S
C286 C287 1.381 . S
C286 H313 0.931 . S
C287 C286 1.381 . S
C287 C288 1.321 . S
C288 C287 1.321 . S
C288 C289 1.403 . S
C288 H314 0.934 . S
C289 C284 1.413 . S
C289 C288 1.403 . S
C289 H315 0.930 . S
C290 O304 1.275 . S
C290 O305 1.256 . S
C291 O306 1.259 . S
C291 O307 1.268 . S
C292 Ho281 2.811 . S
C292 C293 1.488 . S
C292 O308 1.215 . S
C292 O309 1.289 . S
C293 C292 1.488 . S
C293 C294 1.348 . S
C293 C298 1.413 . S
C294 C293 1.348 . S
C294 C295 1.442 . S
C294 H316 0.930 . S
C295 C294 1.442 . S
C295 C296 1.381 . S
C295 H317 0.931 . S
C296 C295 1.381 . S
C296 C297 1.321 . S
C297 C296 1.321 . S
C297 C298 1.403 . S
C297 H318 0.934 . S
C298 C293 1.413 . S
C298 C297 1.403 . S
C298 H319 0.930 . S
C299 O310 1.275 . S
C299 O311 1.256 . S
O300 Ho280 2.322 . S
O300 C282 1.259 . S
O301 Ho281 2.346 . S
O301 C282 1.268 . S
O302 Ho280 2.378 . S
O302 C283 1.215 . S
O303 Ho280 2.524 . S
O303 C283 1.289 . S
O304 Ho280 2.381 . S
O304 C290 1.275 . S
O305 Ho280 2.669 . S
O305 Ho281 2.305 . S
O305 C290 1.256 . S
O306 Ho281 2.322 . S
O306 C291 1.259 . S
O307 Ho280 2.346 . S
O307 C291 1.268 . S
O308 Ho281 2.378 . S
O308 C292 1.215 . S
O309 Ho281 2.524 . S
O309 C292 1.289 . S
O310 Ho281 2.381 . S
O310 C299 1.275 . S
O311 Ho280 2.305 . S
O311 Ho281 2.669 . S
O311 C299 1.256 . S
H312 C285 0.930 . S
H313 C286 0.931 . S
H314 C288 0.934 . S
H315 C289 0.930 . S
H316 C294 0.930 . S
H317 C295 0.931 . S
H318 C297 0.934 . S
H319 C298 0.930 . S
Ho320 C323 2.811 . S
Ho320 O340 2.322 . S
Ho320 O342 2.378 . S
Ho320 O343 2.524 . S
Ho320 O344 2.381 1_554 S
Ho320 O345 2.669 1_554 S
Ho320 O347 2.346 1_554 S
Ho320 O351 2.305 . S
Ho321 C332 2.811 . S
Ho321 O341 2.346 1_556 S
Ho321 O345 2.305 . S
Ho321 O346 2.322 . S
Ho321 O348 2.378 . S
Ho321 O349 2.524 . S
Ho321 O350 2.381 1_556 S
Ho321 O351 2.669 1_556 S
C322 O340 1.259 . S
C322 O341 1.268 . S
C323 Ho320 2.811 . S
C323 C324 1.488 . S
C323 O342 1.215 . S
C323 O343 1.289 . S
C324 C323 1.488 . S
C324 C325 1.348 . S
C324 C329 1.413 . S
C325 C324 1.348 . S
C325 C326 1.442 . S
C325 H352 0.930 . S
C326 C325 1.442 . S
C326 C327 1.381 . S
C326 H353 0.931 . S
C327 C326 1.381 . S
C327 C328 1.321 . S
C328 C327 1.321 . S
C328 C329 1.403 . S
C328 H354 0.934 . S
C329 C324 1.413 . S
C329 C328 1.403 . S
C329 H355 0.930 . S
C330 O344 1.275 . S
C330 O345 1.256 . S
C331 O346 1.259 . S
C331 O347 1.268 . S
C332 Ho321 2.811 . S
C332 C333 1.488 . S
C332 O348 1.215 . S
C332 O349 1.289 . S
C333 C332 1.488 . S
C333 C334 1.348 . S
C333 C338 1.413 . S
C334 C333 1.348 . S
C334 C335 1.442 . S
C334 H356 0.930 . S
C335 C334 1.442 . S
C335 C336 1.381 . S
C335 H357 0.931 . S
C336 C335 1.381 . S
C336 C337 1.321 . S
C337 C336 1.321 . S
C337 C338 1.403 . S
C337 H358 0.934 . S
C338 C333 1.413 . S
C338 C337 1.403 . S
C338 H359 0.930 . S
C339 O350 1.275 . S
C339 O351 1.256 . S
O340 Ho320 2.322 . S
O340 C322 1.259 . S
O341 Ho321 2.346 1_554 S
O341 C322 1.268 . S
O342 Ho320 2.378 . S
O342 C323 1.215 . S
O343 Ho320 2.524 . S
O343 C323 1.289 . S
O344 Ho320 2.381 1_556 S
O344 C330 1.275 . S
O345 Ho320 2.669 1_556 S
O345 Ho321 2.305 . S
O345 C330 1.256 . S
O346 Ho321 2.322 . S
O346 C331 1.259 . S
O347 Ho320 2.346 1_556 S
O347 C331 1.268 . S
O348 Ho321 2.378 . S
O348 C332 1.215 . S
O349 Ho321 2.524 . S
O349 C332 1.289 . S
O350 Ho321 2.381 1_554 S
O350 C339 1.275 . S
O351 Ho320 2.305 . S
O351 Ho321 2.669 1_554 S
O351 C339 1.256 . S
H352 C325 0.930 . S
H353 C326 0.931 . S
H354 C328 0.934 . S
H355 C329 0.930 . S
H356 C334 0.930 . S
H357 C335 0.931 . S
H358 C337 0.934 . S
H359 C338 0.930 . S
Ho360 C363 2.811 . S
Ho360 O380 2.322 . S
Ho360 O382 2.378 . S
Ho360 O383 2.524 . S
Ho360 O384 2.381 . S
Ho360 O385 2.669 . S
Ho360 O387 2.346 . S
Ho360 O391 2.305 . S
Ho361 C372 2.811 . S
Ho361 O381 2.346 . S
Ho361 O385 2.305 . S
Ho361 O386 2.322 . S
Ho361 O388 2.378 . S
Ho361 O389 2.524 . S
Ho361 O390 2.381 . S
Ho361 O391 2.669 . S
C362 O380 1.259 . S
C362 O381 1.268 . S
C363 Ho360 2.811 . S
C363 C364 1.488 . S
C363 O382 1.215 . S
C363 O383 1.289 . S
C364 C363 1.488 . S
C364 C365 1.348 . S
C364 C369 1.413 . S
C365 C364 1.348 . S
C365 C366 1.442 . S
C365 H392 0.930 . S
C366 C365 1.442 . S
C366 C367 1.381 . S
C366 H393 0.931 . S
C367 C366 1.381 . S
C367 C368 1.321 . S
C368 C367 1.321 . S
C368 C369 1.403 . S
C368 H394 0.934 . S
C369 C364 1.413 . S
C369 C368 1.403 . S
C369 H395 0.930 . S
C370 O384 1.275 . S
C370 O385 1.256 . S
C371 O386 1.259 . S
C371 O387 1.268 . S
C372 Ho361 2.811 . S
C372 C373 1.488 . S
C372 O388 1.215 . S
C372 O389 1.289 . S
C373 C372 1.488 . S
C373 C374 1.348 . S
C373 C378 1.413 . S
C374 C373 1.348 . S
C374 C375 1.442 . S
C374 H396 0.930 . S
C375 C374 1.442 . S
C375 C376 1.381 . S
C375 H397 0.931 . S
C376 C375 1.381 . S
C376 C377 1.321 . S
C377 C376 1.321 . S
C377 C378 1.403 . S
C377 H398 0.934 . S
C378 C373 1.413 . S
C378 C377 1.403 . S
C378 H399 0.930 . S
C379 O390 1.275 . S
C379 O391 1.256 . S
O380 Ho360 2.322 . S
O380 C362 1.259 . S
O381 Ho361 2.346 . S
O381 C362 1.268 . S
O382 Ho360 2.378 . S
O382 C363 1.215 . S
O383 Ho360 2.524 . S
O383 C363 1.289 . S
O384 Ho360 2.381 . S
O384 C370 1.275 . S
O385 Ho360 2.669 . S
O385 Ho361 2.305 . S
O385 C370 1.256 . S
O386 Ho361 2.322 . S
O386 C371 1.259 . S
O387 Ho360 2.346 . S
O387 C371 1.268 . S
O388 Ho361 2.378 . S
O388 C372 1.215 . S
O389 Ho361 2.524 . S
O389 C372 1.289 . S
O390 Ho361 2.381 . S
O390 C379 1.275 . S
O391 Ho360 2.305 . S
O391 Ho361 2.669 . S
O391 C379 1.256 . S
H392 C365 0.930 . S
H393 C366 0.931 . S
H394 C368 0.934 . S
H395 C369 0.930 . S
H396 C374 0.930 . S
H397 C375 0.931 . S
H398 C377 0.934 . S
H399 C378 0.930 . S
Ho400 C403 2.811 . S
Ho400 O420 2.322 . S
Ho400 O422 2.378 . S
Ho400 O423 2.524 . S
Ho400 O424 2.381 . S
Ho400 O425 2.669 . S
Ho400 O427 2.346 1_455 S
Ho400 O431 2.305 1_455 S
Ho401 C412 2.811 . S
Ho401 O421 2.346 1_655 S
Ho401 O425 2.305 1_655 S
Ho401 O426 2.322 . S
Ho401 O428 2.378 . S
Ho401 O429 2.524 . S
Ho401 O430 2.381 . S
Ho401 O431 2.669 . S
C402 O420 1.259 . S
C402 O421 1.268 . S
C403 Ho400 2.811 . S
C403 C404 1.488 . S
C403 O422 1.215 . S
C403 O423 1.289 . S
C404 C403 1.488 . S
C404 C405 1.348 . S
C404 C409 1.413 . S
C405 C404 1.348 . S
C405 C406 1.442 . S
C405 H432 0.930 . S
C406 C405 1.442 . S
C406 C407 1.381 . S
C406 H433 0.931 . S
C407 C406 1.381 . S
C407 C408 1.321 . S
C408 C407 1.321 . S
C408 C409 1.403 . S
C408 H434 0.934 . S
C409 C404 1.413 . S
C409 C408 1.403 . S
C409 H435 0.930 . S
C410 O424 1.275 . S
C410 O425 1.256 . S
C411 O426 1.259 . S
C411 O427 1.268 . S
C412 Ho401 2.811 . S
C412 C413 1.488 . S
C412 O428 1.215 . S
C412 O429 1.289 . S
C413 C412 1.488 . S
C413 C414 1.348 . S
C413 C418 1.413 . S
C414 C413 1.348 . S
C414 C415 1.442 . S
C414 H436 0.930 . S
C415 C414 1.442 . S
C415 C416 1.381 . S
C415 H437 0.931 . S
C416 C415 1.381 . S
C416 C417 1.321 . S
C417 C416 1.321 . S
C417 C418 1.403 . S
C417 H438 0.934 . S
C418 C413 1.413 . S
C418 C417 1.403 . S
C418 H439 0.930 . S
C419 O430 1.275 . S
C419 O431 1.256 . S
O420 Ho400 2.322 . S
O420 C402 1.259 . S
O421 Ho401 2.346 1_455 S
O421 C402 1.268 . S
O422 Ho400 2.378 . S
O422 C403 1.215 . S
O423 Ho400 2.524 . S
O423 C403 1.289 . S
O424 Ho400 2.381 . S
O424 C410 1.275 . S
O425 Ho400 2.669 . S
O425 Ho401 2.305 1_455 S
O425 C410 1.256 . S
O426 Ho401 2.322 . S
O426 C411 1.259 . S
O427 Ho400 2.346 1_655 S
O427 C411 1.268 . S
O428 Ho401 2.378 . S
O428 C412 1.215 . S
O429 Ho401 2.524 . S
O429 C412 1.289 . S
O430 Ho401 2.381 . S
O430 C419 1.275 . S
O431 Ho400 2.305 1_655 S
O431 Ho401 2.669 . S
O431 C419 1.256 . S
H432 C405 0.930 . S
H433 C406 0.931 . S
H434 C408 0.934 . S
H435 C409 0.930 . S
H436 C414 0.930 . S
H437 C415 0.931 . S
H438 C417 0.934 . S
H439 C418 0.930 . S
Ho440 C443 2.811 . S
Ho440 O460 2.322 . S
Ho440 O462 2.378 . S
Ho440 O463 2.524 . S
Ho440 O464 2.381 . S
Ho440 O465 2.669 . S
Ho440 O467 2.346 . S
Ho440 O471 2.305 . S
Ho441 C452 2.811 . S
Ho441 O461 2.346 . S
Ho441 O465 2.305 . S
Ho441 O466 2.322 . S
Ho441 O468 2.378 . S
Ho441 O469 2.524 . S
Ho441 O470 2.381 . S
Ho441 O471 2.669 . S
C442 O460 1.259 . S
C442 O461 1.268 . S
C443 Ho440 2.811 . S
C443 C444 1.488 . S
C443 O462 1.215 . S
C443 O463 1.289 . S
C444 C443 1.488 . S
C444 C445 1.348 . S
C444 C449 1.413 . S
C445 C444 1.348 . S
C445 C446 1.442 . S
C445 H472 0.930 . S
C446 C445 1.442 . S
C446 C447 1.381 . S
C446 H473 0.931 . S
C447 C446 1.381 . S
C447 C448 1.321 . S
C448 C447 1.321 . S
C448 C449 1.403 . S
C448 H474 0.934 . S
C449 C444 1.413 . S
C449 C448 1.403 . S
C449 H475 0.930 . S
C450 O464 1.275 . S
C450 O465 1.256 . S
C451 O466 1.259 . S
C451 O467 1.268 . S
C452 Ho441 2.811 . S
C452 C453 1.488 . S
C452 O468 1.215 . S
C452 O469 1.289 . S
C453 C452 1.488 . S
C453 C454 1.348 . S
C453 C458 1.413 . S
C454 C453 1.348 . S
C454 C455 1.442 . S
C454 H476 0.930 . S
C455 C454 1.442 . S
C455 C456 1.381 . S
C455 H477 0.931 . S
C456 C455 1.381 . S
C456 C457 1.321 . S
C457 C456 1.321 . S
C457 C458 1.403 . S
C457 H478 0.934 . S
C458 C453 1.413 . S
C458 C457 1.403 . S
C458 H479 0.930 . S
C459 O470 1.275 . S
C459 O471 1.256 . S
O460 Ho440 2.322 . S
O460 C442 1.259 . S
O461 Ho441 2.346 . S
O461 C442 1.268 . S
O462 Ho440 2.378 . S
O462 C443 1.215 . S
O463 Ho440 2.524 . S
O463 C443 1.289 . S
O464 Ho440 2.381 . S
O464 C450 1.275 . S
O465 Ho440 2.669 . S
O465 Ho441 2.305 . S
O465 C450 1.256 . S
O466 Ho441 2.322 . S
O466 C451 1.259 . S
O467 Ho440 2.346 . S
O467 C451 1.268 . S
O468 Ho441 2.378 . S
O468 C452 1.215 . S
O469 Ho441 2.524 . S
O469 C452 1.289 . S
O470 Ho441 2.381 . S
O470 C459 1.275 . S
O471 Ho440 2.305 . S
O471 Ho441 2.669 . S
O471 C459 1.256 . S
H472 C445 0.930 . S
H473 C446 0.931 . S
H474 C448 0.934 . S
H475 C449 0.930 . S
H476 C454 0.930 . S
H477 C455 0.931 . S
H478 C457 0.934 . S
H479 C458 0.930 . S
Ho480 C483 2.811 . S
Ho480 O500 2.322 . S
Ho480 O502 2.378 . S
Ho480 O503 2.524 . S
Ho480 O504 2.381 . S
Ho480 O505 2.669 . S
Ho480 O507 2.346 . S
Ho480 O511 2.305 . S
Ho481 C492 2.811 . S
Ho481 O501 2.346 . S
Ho481 O505 2.305 . S
Ho481 O506 2.322 . S
Ho481 O508 2.378 . S
Ho481 O509 2.524 . S
Ho481 O510 2.381 . S
Ho481 O511 2.669 . S
C482 O500 1.259 . S
C482 O501 1.268 . S
C483 Ho480 2.811 . S
C483 C484 1.488 . S
C483 O502 1.215 . S
C483 O503 1.289 . S
C484 C483 1.488 . S
C484 C485 1.348 . S
C484 C489 1.413 . S
C485 C484 1.348 . S
C485 C486 1.442 . S
C485 H512 0.930 . S
C486 C485 1.442 . S
C486 C487 1.381 . S
C486 H513 0.931 . S
C487 C486 1.381 . S
C487 C488 1.321 . S
C488 C487 1.321 . S
C488 C489 1.403 . S
C488 H514 0.934 . S
C489 C484 1.413 . S
C489 C488 1.403 . S
C489 H515 0.930 . S
C490 O504 1.275 . S
C490 O505 1.256 . S
C491 O506 1.259 . S
C491 O507 1.268 . S
C492 Ho481 2.811 . S
C492 C493 1.488 . S
C492 O508 1.215 . S
C492 O509 1.289 . S
C493 C492 1.488 . S
C493 C494 1.348 . S
C493 C498 1.413 . S
C494 C493 1.348 . S
C494 C495 1.442 . S
C494 H516 0.930 . S
C495 C494 1.442 . S
C495 C496 1.381 . S
C495 H517 0.931 . S
C496 C495 1.381 . S
C496 C497 1.321 . S
C497 C496 1.321 . S
C497 C498 1.403 . S
C497 H518 0.934 . S
C498 C493 1.413 . S
C498 C497 1.403 . S
C498 H519 0.930 . S
C499 O510 1.275 . S
C499 O511 1.256 . S
O500 Ho480 2.322 . S
O500 C482 1.259 . S
O501 Ho481 2.346 . S
O501 C482 1.268 . S
O502 Ho480 2.378 . S
O502 C483 1.215 . S
O503 Ho480 2.524 . S
O503 C483 1.289 . S
O504 Ho480 2.381 . S
O504 C490 1.275 . S
O505 Ho480 2.669 . S
O505 Ho481 2.305 . S
O505 C490 1.256 . S
O506 Ho481 2.322 . S
O506 C491 1.259 . S
O507 Ho480 2.346 . S
O507 C491 1.268 . S
O508 Ho481 2.378 . S
O508 C492 1.215 . S
O509 Ho481 2.524 . S
O509 C492 1.289 . S
O510 Ho481 2.381 . S
O510 C499 1.275 . S
O511 Ho480 2.305 . S
O511 Ho481 2.669 . S
O511 C499 1.256 . S
H512 C485 0.930 . S
H513 C486 0.931 . S
H514 C488 0.934 . S
H515 C489 0.930 . S
H516 C494 0.930 . S
H517 C495 0.931 . S
H518 C497 0.934 . S
H519 C498 0.930 . S
Ho520 C523 2.811 . S
Ho520 O540 2.322 . S
Ho520 O542 2.378 . S
Ho520 O543 2.524 . S
Ho520 O544 2.381 . S
Ho520 O545 2.669 . S
Ho520 O547 2.346 . S
Ho520 O551 2.305 . S
Ho521 C532 2.811 . S
Ho521 O541 2.346 . S
Ho521 O545 2.305 . S
Ho521 O546 2.322 . S
Ho521 O548 2.378 . S
Ho521 O549 2.524 . S
Ho521 O550 2.381 . S
Ho521 O551 2.669 . S
C522 O540 1.259 . S
C522 O541 1.268 . S
C523 Ho520 2.811 . S
C523 C524 1.488 . S
C523 O542 1.215 . S
C523 O543 1.289 . S
C524 C523 1.488 . S
C524 C525 1.348 . S
C524 C529 1.413 . S
C525 C524 1.348 . S
C525 C526 1.442 . S
C525 H552 0.930 . S
C526 C525 1.442 . S
C526 C527 1.381 . S
C526 H553 0.931 . S
C527 C526 1.381 . S
C527 C528 1.321 . S
C528 C527 1.321 . S
C528 C529 1.403 . S
C528 H554 0.934 . S
C529 C524 1.413 . S
C529 C528 1.403 . S
C529 H555 0.930 . S
C530 O544 1.275 . S
C530 O545 1.256 . S
C531 O546 1.259 . S
C531 O547 1.268 . S
C532 Ho521 2.811 . S
C532 C533 1.488 . S
C532 O548 1.215 . S
C532 O549 1.289 . S
C533 C532 1.488 . S
C533 C534 1.348 . S
C533 C538 1.413 . S
C534 C533 1.348 . S
C534 C535 1.442 . S
C534 H556 0.930 . S
C535 C534 1.442 . S
C535 C536 1.381 . S
C535 H557 0.931 . S
C536 C535 1.381 . S
C536 C537 1.321 . S
C537 C536 1.321 . S
C537 C538 1.403 . S
C537 H558 0.934 . S
C538 C533 1.413 . S
C538 C537 1.403 . S
C538 H559 0.930 . S
C539 O550 1.275 . S
C539 O551 1.256 . S
O540 Ho520 2.322 . S
O540 C522 1.259 . S
O541 Ho521 2.346 . S
O541 C522 1.268 . S
O542 Ho520 2.378 . S
O542 C523 1.215 . S
O543 Ho520 2.524 . S
O543 C523 1.289 . S
O544 Ho520 2.381 . S
O544 C530 1.275 . S
O545 Ho520 2.669 . S
O545 Ho521 2.305 . S
O545 C530 1.256 . S
O546 Ho521 2.322 . S
O546 C531 1.259 . S
O547 Ho520 2.346 . S
O547 C531 1.268 . S
O548 Ho521 2.378 . S
O548 C532 1.215 . S
O549 Ho521 2.524 . S
O549 C532 1.289 . S
O550 Ho521 2.381 . S
O550 C539 1.275 . S
O551 Ho520 2.305 . S
O551 Ho521 2.669 . S
O551 C539 1.256 . S
H552 C525 0.930 . S
H553 C526 0.931 . S
H554 C528 0.934 . S
H555 C529 0.930 . S
H556 C534 0.930 . S
H557 C535 0.931 . S
H558 C537 0.934 . S
H559 C538 0.930 . S
Ho560 C563 2.811 . S
Ho560 O580 2.322 . S
Ho560 O582 2.378 . S
Ho560 O583 2.524 . S
Ho560 O584 2.381 . S
Ho560 O585 2.669 . S
Ho560 O587 2.346 . S
Ho560 O591 2.305 . S
Ho561 C572 2.811 . S
Ho561 O581 2.346 . S
Ho561 O585 2.305 . S
Ho561 O586 2.322 . S
Ho561 O588 2.378 . S
Ho561 O589 2.524 . S
Ho561 O590 2.381 . S
Ho561 O591 2.669 . S
C562 O580 1.259 . S
C562 O581 1.268 . S
C563 Ho560 2.811 . S
C563 C564 1.488 . S
C563 O582 1.215 . S
C563 O583 1.289 . S
C564 C563 1.488 . S
C564 C565 1.348 . S
C564 C569 1.413 . S
C565 C564 1.348 . S
C565 C566 1.442 . S
C565 H592 0.930 . S
C566 C565 1.442 . S
C566 C567 1.381 . S
C566 H593 0.931 . S
C567 C566 1.381 . S
C567 C568 1.321 . S
C568 C567 1.321 . S
C568 C569 1.403 . S
C568 H594 0.934 . S
C569 C564 1.413 . S
C569 C568 1.403 . S
C569 H595 0.930 . S
C570 O584 1.275 . S
C570 O585 1.256 . S
C571 O586 1.259 . S
C571 O587 1.268 . S
C572 Ho561 2.811 . S
C572 C573 1.488 . S
C572 O588 1.215 . S
C572 O589 1.289 . S
C573 C572 1.488 . S
C573 C574 1.348 . S
C573 C578 1.413 . S
C574 C573 1.348 . S
C574 C575 1.442 . S
C574 H596 0.930 . S
C575 C574 1.442 . S
C575 C576 1.381 . S
C575 H597 0.931 . S
C576 C575 1.381 . S
C576 C577 1.321 . S
C577 C576 1.321 . S
C577 C578 1.403 . S
C577 H598 0.934 . S
C578 C573 1.413 . S
C578 C577 1.403 . S
C578 H599 0.930 . S
C579 O590 1.275 . S
C579 O591 1.256 . S
O580 Ho560 2.322 . S
O580 C562 1.259 . S
O581 Ho561 2.346 . S
O581 C562 1.268 . S
O582 Ho560 2.378 . S
O582 C563 1.215 . S
O583 Ho560 2.524 . S
O583 C563 1.289 . S
O584 Ho560 2.381 . S
O584 C570 1.275 . S
O585 Ho560 2.669 . S
O585 Ho561 2.305 . S
O585 C570 1.256 . S
O586 Ho561 2.322 . S
O586 C571 1.259 . S
O587 Ho560 2.346 . S
O587 C571 1.268 . S
O588 Ho561 2.378 . S
O588 C572 1.215 . S
O589 Ho561 2.524 . S
O589 C572 1.289 . S
O590 Ho561 2.381 . S
O590 C579 1.275 . S
O591 Ho560 2.305 . S
O591 Ho561 2.669 . S
O591 C579 1.256 . S
H592 C565 0.930 . S
H593 C566 0.931 . S
H594 C568 0.934 . S
H595 C569 0.930 . S
H596 C574 0.930 . S
H597 C575 0.931 . S
H598 C577 0.934 . S
H599 C578 0.930 . S
Ho600 C603 2.811 . S
Ho600 O620 2.322 1_554 S
Ho600 O622 2.378 . S
Ho600 O623 2.524 . S
Ho600 O624 2.381 1_554 S
Ho600 O625 2.669 1_554 S
Ho600 O627 2.346 1_655 S
Ho600 O631 2.305 1_655 S
Ho601 C612 2.811 . S
Ho601 O621 2.346 1_455 S
Ho601 O625 2.305 1_455 S
Ho601 O626 2.322 1_556 S
Ho601 O628 2.378 . S
Ho601 O629 2.524 . S
Ho601 O630 2.381 1_556 S
Ho601 O631 2.669 1_556 S
C602 O620 1.259 . S
C602 O621 1.268 . S
C603 Ho600 2.811 . S
C603 C604 1.488 . S
C603 O622 1.215 . S
C603 O623 1.289 . S
C604 C603 1.488 . S
C604 C605 1.348 . S
C604 C609 1.413 . S
C605 C604 1.348 . S
C605 C606 1.442 . S
C605 H632 0.930 . S
C606 C605 1.442 . S
C606 C607 1.381 . S
C606 H633 0.931 . S
C607 C606 1.381 . S
C607 C608 1.321 . S
C608 C607 1.321 . S
C608 C609 1.403 . S
C608 H634 0.934 . S
C609 C604 1.413 . S
C609 C608 1.403 . S
C609 H635 0.930 . S
C610 O624 1.275 . S
C610 O625 1.256 . S
C611 O626 1.259 . S
C611 O627 1.268 . S
C612 Ho601 2.811 . S
C612 C613 1.488 . S
C612 O628 1.215 . S
C612 O629 1.289 . S
C613 C612 1.488 . S
C613 C614 1.348 . S
C613 C618 1.413 . S
C614 C613 1.348 . S
C614 C615 1.442 . S
C614 H636 0.930 . S
C615 C614 1.442 . S
C615 C616 1.381 . S
C615 H637 0.931 . S
C616 C615 1.381 . S
C616 C617 1.321 . S
C617 C616 1.321 . S
C617 C618 1.403 . S
C617 H638 0.934 . S
C618 C613 1.413 . S
C618 C617 1.403 . S
C618 H639 0.930 . S
C619 O630 1.275 . S
C619 O631 1.256 . S
O620 Ho600 2.322 1_556 S
O620 C602 1.259 . S
O621 Ho601 2.346 1_655 S
O621 C602 1.268 . S
O622 Ho600 2.378 . S
O622 C603 1.215 . S
O623 Ho600 2.524 . S
O623 C603 1.289 . S
O624 Ho600 2.381 1_556 S
O624 C610 1.275 . S
O625 Ho600 2.669 1_556 S
O625 Ho601 2.305 1_655 S
O625 C610 1.256 . S
O626 Ho601 2.322 1_554 S
O626 C611 1.259 . S
O627 Ho600 2.346 1_455 S
O627 C611 1.268 . S
O628 Ho601 2.378 . S
O628 C612 1.215 . S
O629 Ho601 2.524 . S
O629 C612 1.289 . S
O630 Ho601 2.381 1_554 S
O630 C619 1.275 . S
O631 Ho600 2.305 1_455 S
O631 Ho601 2.669 1_554 S
O631 C619 1.256 . S
H632 C605 0.930 . S
H633 C606 0.931 . S
H634 C608 0.934 . S
H635 C609 0.930 . S
H636 C614 0.930 . S
H637 C615 0.931 . S
H638 C617 0.934 . S
H639 C618 0.930 . S
H640 C646 0.930 . S
H641 C649 0.930 . S
H642 C650 0.930 . S
H643 C651 0.930 . S
H644 C654 0.930 . S
H645 C655 0.930 . S
C646 H640 0.930 . S
C646 C647 1.355 . S
C646 C648 1.415 . S
C647 C646 1.355 . S
C647 C649 1.419 . S
C648 C646 1.415 . S
C648 C653 1.425 . S
C648 C655 1.409 . S
C649 H641 0.930 . S
C649 C647 1.419 . S
C649 C650 1.362 . S
C650 H642 0.930 . S
C650 C649 1.362 . S
C650 C653 1.409 . S
C651 H643 0.930 . S
C651 C652 1.355 . S
C651 C653 1.415 . S
C652 C651 1.355 . S
C652 C654 1.419 . S
C653 C648 1.425 . S
C653 C650 1.409 . S
C653 C651 1.415 . S
C654 H644 0.930 . S
C654 C652 1.419 . S
C654 C655 1.362 . S
C655 H645 0.930 . S
C655 C648 1.409 . S
C655 C654 1.362 . S
H656 C662 0.930 . S
H657 C665 0.930 . S
H658 C666 0.930 . S
H659 C667 0.930 . S
H660 C670 0.930 . S
H661 C671 0.930 . S
C662 H656 0.930 . S
C662 C663 1.355 . S
C662 C664 1.415 . S
C663 C662 1.355 . S
C663 C665 1.419 1_565 S
C664 C662 1.415 . S
C664 C669 1.425 . S
C664 C671 1.409 . S
C665 H657 0.930 . S
C665 C663 1.419 1_545 S
C665 C666 1.362 . S
C666 H658 0.930 . S
C666 C665 1.362 . S
C666 C669 1.409 1_545 S
C667 H659 0.930 . S
C667 C668 1.355 . S
C667 C669 1.415 . S
C668 C667 1.355 . S
C668 C670 1.419 . S
C669 C664 1.425 . S
C669 C666 1.409 1_565 S
C669 C667 1.415 . S
C670 H660 0.930 . S
C670 C668 1.419 . S
C670 C671 1.362 . S
C671 H661 0.930 . S
C671 C664 1.409 . S
C671 C670 1.362 . S
H672 C678 0.930 . S
H673 C681 0.930 . S
H674 C682 0.930 . S
H675 C683 0.930 . S
H676 C686 0.930 . S
H677 C687 0.930 . S
C678 H672 0.930 . S
C678 C679 1.355 . S
C678 C680 1.415 . S
C679 C678 1.355 . S
C679 C681 1.419 . S
C680 C678 1.415 . S
C680 C685 1.425 . S
C680 C687 1.409 . S
C681 H673 0.930 . S
C681 C679 1.419 . S
C681 C682 1.362 . S
C682 H674 0.930 . S
C682 C681 1.362 . S
C682 C685 1.409 . S
C683 H675 0.930 . S
C683 C684 1.355 . S
C683 C685 1.415 . S
C684 C683 1.355 . S
C684 C686 1.419 . S
C685 C680 1.425 . S
C685 C682 1.409 . S
C685 C683 1.415 . S
C686 H676 0.930 . S
C686 C684 1.419 . S
C686 C687 1.362 . S
C687 H677 0.930 . S
C687 C680 1.409 . S
C687 C686 1.362 . S
H688 C694 0.930 . S
H689 C697 0.930 . S
H690 C698 0.930 . S
H691 C699 0.930 . S
H692 C702 0.930 . S
H693 C703 0.930 . S
C694 H688 0.930 . S
C694 C695 1.355 . S
C694 C696 1.415 . S
C695 C694 1.355 . S
C695 C697 1.419 . S
C696 C694 1.415 . S
C696 C701 1.425 . S
C696 C703 1.409 . S
C697 H689 0.930 . S
C697 C695 1.419 . S
C697 C698 1.362 . S
C698 H690 0.930 . S
C698 C697 1.362 . S
C698 C701 1.409 . S
C699 H691 0.930 . S
C699 C700 1.355 . S
C699 C701 1.415 . S
C700 C699 1.355 . S
C700 C702 1.419 . S
C701 C696 1.425 . S
C701 C698 1.409 . S
C701 C699 1.415 . S
C702 H692 0.930 . S
C702 C700 1.419 . S
C702 C703 1.362 . S
C703 H693 0.930 . S
C703 C696 1.409 . S
C703 C702 1.362 . S
H704 C710 0.930 . S
H705 C713 0.930 . S
H706 C714 0.930 . S
H707 C715 0.930 . S
H708 C718 0.930 . S
H709 C719 0.930 . S
C710 H704 0.930 . S
C710 C711 1.355 . S
C710 C712 1.415 . S
C711 C710 1.355 . S
C711 C713 1.419 . S
C712 C710 1.415 . S
C712 C717 1.425 . S
C712 C719 1.409 . S
C713 H705 0.930 . S
C713 C711 1.419 . S
C713 C714 1.362 . S
C714 H706 0.930 . S
C714 C713 1.362 . S
C714 C717 1.409 . S
C715 H707 0.930 . S
C715 C716 1.355 . S
C715 C717 1.415 . S
C716 C715 1.355 . S
C716 C718 1.419 . S
C717 C712 1.425 . S
C717 C714 1.409 . S
C717 C715 1.415 . S
C718 H708 0.930 . S
C718 C716 1.419 . S
C718 C719 1.362 . S
C719 H709 0.930 . S
C719 C712 1.409 . S
C719 C718 1.362 . S
H720 C726 0.930 . S
H721 C729 0.930 . S
H722 C730 0.930 . S
H723 C731 0.930 . S
H724 C734 0.930 . S
H725 C735 0.930 . S
C726 H720 0.930 . S
C726 C727 1.355 . S
C726 C728 1.415 . S
C727 C726 1.355 . S
C727 C729 1.419 . S
C728 C726 1.415 . S
C728 C733 1.425 . S
C728 C735 1.409 . S
C729 H721 0.930 . S
C729 C727 1.419 . S
C729 C730 1.362 . S
C730 H722 0.930 . S
C730 C729 1.362 . S
C730 C733 1.409 . S
C731 H723 0.930 . S
C731 C732 1.355 . S
C731 C733 1.415 . S
C732 C731 1.355 . S
C732 C734 1.419 . S
C733 C728 1.425 . S
C733 C730 1.409 . S
C733 C731 1.415 . S
C734 H724 0.930 . S
C734 C732 1.419 . S
C734 C735 1.362 . S
C735 H725 0.930 . S
C735 C728 1.409 . S
C735 C734 1.362 . S
H736 C742 0.930 . S
H737 C745 0.930 . S
H738 C746 0.930 . S
H739 C747 0.930 . S
H740 C750 0.930 . S
H741 C751 0.930 . S
C742 H736 0.930 . S
C742 C743 1.355 . S
C742 C744 1.415 . S
C743 C742 1.355 . S
C743 C745 1.419 . S
C744 C742 1.415 . S
C744 C749 1.425 . S
C744 C751 1.409 . S
C745 H737 0.930 . S
C745 C743 1.419 . S
C745 C746 1.362 . S
C746 H738 0.930 . S
C746 C745 1.362 . S
C746 C749 1.409 . S
C747 H739 0.930 . S
C747 C748 1.355 . S
C747 C749 1.415 . S
C748 C747 1.355 . S
C748 C750 1.419 . S
C749 C744 1.425 . S
C749 C746 1.409 . S
C749 C747 1.415 . S
C750 H740 0.930 . S
C750 C748 1.419 . S
C750 C751 1.362 . S
C751 H741 0.930 . S
C751 C744 1.409 . S
C751 C750 1.362 . S
H752 C758 0.930 . S
H753 C761 0.930 . S
H754 C762 0.930 . S
H755 C763 0.930 . S
H756 C766 0.930 . S
H757 C767 0.930 . S
C758 H752 0.930 . S
C758 C759 1.355 . S
C758 C760 1.415 . S
C759 C758 1.355 . S
C759 C761 1.419 . S
C760 C758 1.415 . S
C760 C765 1.425 . S
C760 C767 1.409 . S
C761 H753 0.930 . S
C761 C759 1.419 . S
C761 C762 1.362 . S
C762 H754 0.930 . S
C762 C761 1.362 . S
C762 C765 1.409 . S
C763 H755 0.930 . S
C763 C764 1.355 . S
C763 C765 1.415 . S
C764 C763 1.355 . S
C764 C766 1.419 . S
C765 C760 1.425 . S
C765 C762 1.409 . S
C765 C763 1.415 . S
C766 H756 0.930 . S
C766 C764 1.419 . S
C766 C767 1.362 . S
C767 H757 0.930 . S
C767 C760 1.409 . S
C767 C766 1.362 . S
H768 C774 0.930 . S
H769 C777 0.930 . S
H770 C778 0.930 . S
H771 C779 0.930 . S
H772 C782 0.930 1_455 S
H773 C783 0.930 . S
C774 H768 0.930 . S
C774 C775 1.355 . S
C774 C776 1.415 . S
C775 C774 1.355 . S
C775 C777 1.419 . S
C776 C774 1.415 . S
C776 C781 1.425 . S
C776 C783 1.409 . S
C777 H769 0.930 . S
C777 C775 1.419 . S
C777 C778 1.362 . S
C778 H770 0.930 . S
C778 C777 1.362 . S
C778 C781 1.409 . S
C779 H771 0.930 . S
C779 C780 1.355 . S
C779 C781 1.415 . S
C780 C779 1.355 . S
C780 C782 1.419 . S
C781 C776 1.425 . S
C781 C778 1.409 . S
C781 C779 1.415 . S
C782 H772 0.930 1_655 S
C782 C780 1.419 . S
C782 C783 1.362 . S
C783 H773 0.930 . S
C783 C776 1.409 . S
C783 C782 1.362 . S
H784 C790 0.930 . S
H785 C793 0.930 . S
H786 C794 0.930 . S
H787 C795 0.930 . S
H788 C798 0.930 . S
H789 C799 0.930 . S
C790 H784 0.930 . S
C790 C791 1.355 . S
C790 C792 1.415 . S
C791 C790 1.355 . S
C791 C793 1.419 . S
C792 C790 1.415 . S
C792 C797 1.425 . S
C792 C799 1.409 . S
C793 H785 0.930 . S
C793 C791 1.419 . S
C793 C794 1.362 . S
C794 H786 0.930 . S
C794 C793 1.362 . S
C794 C797 1.409 . S
C795 H787 0.930 . S
C795 C796 1.355 . S
C795 C797 1.415 . S
C796 C795 1.355 . S
C796 C798 1.419 . S
C797 C792 1.425 . S
C797 C794 1.409 . S
C797 C795 1.415 . S
C798 H788 0.930 . S
C798 C796 1.419 . S
C798 C799 1.362 . S
C799 H789 0.930 . S
C799 C792 1.409 . S
C799 C798 1.362 . S
H800 C806 0.930 . S
H801 C809 0.930 . S
H802 C810 0.930 . S
H803 C811 0.930 . S
H804 C814 0.930 . S
H805 C815 0.930 . S
C806 H800 0.930 . S
C806 C807 1.355 . S
C806 C808 1.415 . S
C807 C806 1.355 . S
C807 C809 1.419 . S
C808 C806 1.415 . S
C808 C813 1.425 . S
C808 C815 1.409 . S
C809 H801 0.930 . S
C809 C807 1.419 . S
C809 C810 1.362 . S
C810 H802 0.930 . S
C810 C809 1.362 . S
C810 C813 1.409 . S
C811 H803 0.930 . S
C811 C812 1.355 . S
C811 C813 1.415 . S
C812 C811 1.355 . S
C812 C814 1.419 . S
C813 C808 1.425 . S
C813 C810 1.409 . S
C813 C811 1.415 . S
C814 H804 0.930 . S
C814 C812 1.419 . S
C814 C815 1.362 . S
C815 H805 0.930 . S
C815 C808 1.409 . S
C815 C814 1.362 . S
H816 C822 0.930 . S
H817 C825 0.930 . S
H818 C826 0.930 . S
H819 C827 0.930 . S
H820 C830 0.930 . S
H821 C831 0.930 . S
C822 H816 0.930 . S
C822 C823 1.355 . S
C822 C824 1.415 . S
C823 C822 1.355 . S
C823 C825 1.419 . S
C824 C822 1.415 . S
C824 C829 1.425 . S
C824 C831 1.409 . S
C825 H817 0.930 . S
C825 C823 1.419 . S
C825 C826 1.362 . S
C826 H818 0.930 . S
C826 C825 1.362 . S
C826 C829 1.409 . S
C827 H819 0.930 . S
C827 C828 1.355 . S
C827 C829 1.415 . S
C828 C827 1.355 . S
C828 C830 1.419 . S
C829 C824 1.425 . S
C829 C826 1.409 . S
C829 C827 1.415 . S
C830 H820 0.930 . S
C830 C828 1.419 . S
C830 C831 1.362 . S
C831 H821 0.930 . S
C831 C824 1.409 . S
C831 C830 1.362 . S
H832 C838 0.930 . S
H833 C841 0.930 . S
H834 C842 0.930 . S
H835 C843 0.930 . S
H836 C846 0.930 . S
H837 C847 0.930 . S
C838 H832 0.930 . S
C838 C839 1.355 . S
C838 C840 1.415 . S
C839 C838 1.355 . S
C839 C841 1.419 . S
C840 C838 1.415 . S
C840 C845 1.425 . S
C840 C847 1.409 . S
C841 H833 0.930 . S
C841 C839 1.419 . S
C841 C842 1.362 . S
C842 H834 0.930 . S
C842 C841 1.362 . S
C842 C845 1.409 . S
C843 H835 0.930 . S
C843 C844 1.355 . S
C843 C845 1.415 . S
C844 C843 1.355 . S
C844 C846 1.419 . S
C845 C840 1.425 . S
C845 C842 1.409 . S
C845 C843 1.415 . S
C846 H836 0.930 . S
C846 C844 1.419 . S
C846 C847 1.362 . S
C847 H837 0.930 . S
C847 C840 1.409 . S
C847 C846 1.362 . S
H848 C854 0.930 . S
H849 C857 0.930 . S
H850 C858 0.930 . S
H851 C859 0.930 . S
H852 C862 0.930 . S
H853 C863 0.930 . S
C854 H848 0.930 . S
C854 C855 1.355 . S
C854 C856 1.415 . S
C855 C854 1.355 . S
C855 C857 1.419 . S
C856 C854 1.415 . S
C856 C861 1.425 . S
C856 C863 1.409 . S
C857 H849 0.930 . S
C857 C855 1.419 . S
C857 C858 1.362 . S
C858 H850 0.930 . S
C858 C857 1.362 . S
C858 C861 1.409 . S
C859 H851 0.930 . S
C859 C860 1.355 . S
C859 C861 1.415 . S
C860 C859 1.355 . S
C860 C862 1.419 . S
C861 C856 1.425 . S
C861 C858 1.409 . S
C861 C859 1.415 . S
C862 H852 0.930 . S
C862 C860 1.419 . S
C862 C863 1.362 . S
C863 H853 0.930 . S
C863 C856 1.409 . S
C863 C862 1.362 . S
H864 C870 0.930 . S
H865 C873 0.930 . S
H866 C874 0.930 . S
H867 C875 0.930 . S
H868 C878 0.930 . S
H869 C879 0.930 . S
C870 H864 0.930 . S
C870 C871 1.355 . S
C870 C872 1.415 . S
C871 C870 1.355 . S
C871 C873 1.419 . S
C872 C870 1.415 . S
C872 C877 1.425 . S
C872 C879 1.409 . S
C873 H865 0.930 . S
C873 C871 1.419 . S
C873 C874 1.362 . S
C874 H866 0.930 . S
C874 C873 1.362 . S
C874 C877 1.409 . S
C875 H867 0.930 . S
C875 C876 1.355 . S
C875 C877 1.415 . S
C876 C875 1.355 . S
C876 C878 1.419 . S
C877 C872 1.425 . S
C877 C874 1.409 . S
C877 C875 1.415 . S
C878 H868 0.930 . S
C878 C876 1.419 . S
C878 C879 1.362 . S
C879 H869 0.930 . S
C879 C872 1.409 . S
C879 C878 1.362 . S
H880 C886 0.930 . S
H881 C889 0.930 . S
H882 C890 0.930 . S
H883 C891 0.930 . S
H884 C894 0.930 . S
H885 C895 0.930 . S
C886 H880 0.930 . S
C886 C887 1.355 . S
C886 C888 1.415 . S
C887 C886 1.355 . S
C887 C889 1.419 . S
C888 C886 1.415 . S
C888 C893 1.425 . S
C888 C895 1.409 . S
C889 H881 0.930 . S
C889 C887 1.419 . S
C889 C890 1.362 . S
C890 H882 0.930 . S
C890 C889 1.362 . S
C890 C893 1.409 . S
C891 H883 0.930 . S
C891 C892 1.355 . S
C891 C893 1.415 . S
C892 C891 1.355 . S
C892 C894 1.419 . S
C893 C888 1.425 . S
C893 C890 1.409 . S
C893 C891 1.415 . S
C894 H884 0.930 . S
C894 C892 1.419 . S
C894 C895 1.362 . S
C895 H885 0.930 . S
C895 C888 1.409 . S
C895 C894 1.362 . S
H896 C902 0.930 . S
H897 C905 0.930 . S
H898 C906 0.930 . S
H899 C907 0.930 . S
H900 C910 0.930 . S
H901 C911 0.930 . S
C902 H896 0.930 . S
C902 C903 1.355 . S
C902 C904 1.415 . S
C903 C902 1.355 . S
C903 C905 1.419 . S
C904 C902 1.415 . S
C904 C909 1.425 . S
C904 C911 1.409 . S
C905 H897 0.930 . S
C905 C903 1.419 . S
C905 C906 1.362 . S
C906 H898 0.930 . S
C906 C905 1.362 . S
C906 C909 1.409 . S
C907 H899 0.930 . S
C907 C908 1.355 . S
C907 C909 1.415 . S
C908 C907 1.355 . S
C908 C910 1.419 . S
C909 C904 1.425 . S
C909 C906 1.409 . S
C909 C907 1.415 . S
C910 H900 0.930 . S
C910 C908 1.419 . S
C910 C911 1.362 . S
C911 H901 0.930 . S
C911 C904 1.409 . S
C911 C910 1.362 . S
H912 C918 0.930 . S
H913 C921 0.930 . S
H914 C922 0.930 . S
H915 C923 0.930 . S
H916 C926 0.930 . S
H917 C927 0.930 . S
C918 H912 0.930 . S
C918 C919 1.355 . S
C918 C920 1.415 . S
C919 C918 1.355 . S
C919 C921 1.419 . S
C920 C918 1.415 . S
C920 C925 1.425 . S
C920 C927 1.409 . S
C921 H913 0.930 . S
C921 C919 1.419 . S
C921 C922 1.362 . S
C922 H914 0.930 . S
C922 C921 1.362 . S
C922 C925 1.409 . S
C923 H915 0.930 . S
C923 C924 1.355 . S
C923 C925 1.415 . S
C924 C923 1.355 . S
C924 C926 1.419 . S
C925 C920 1.425 . S
C925 C922 1.409 . S
C925 C923 1.415 . S
C926 H916 0.930 . S
C926 C924 1.419 . S
C926 C927 1.362 . S
C927 H917 0.930 . S
C927 C920 1.409 . S
C927 C926 1.362 . S
H928 C934 0.930 . S
H929 C937 0.930 . S
H930 C938 0.930 . S
H931 C939 0.930 . S
H932 C942 0.930 . S
H933 C943 0.930 . S
C934 H928 0.930 . S
C934 C935 1.355 . S
C934 C936 1.415 . S
C935 C934 1.355 . S
C935 C937 1.419 . S
C936 C934 1.415 . S
C936 C941 1.425 . S
C936 C943 1.409 . S
C937 H929 0.930 . S
C937 C935 1.419 . S
C937 C938 1.362 . S
C938 H930 0.930 . S
C938 C937 1.362 . S
C938 C941 1.409 . S
C939 H931 0.930 . S
C939 C940 1.355 . S
C939 C941 1.415 . S
C940 C939 1.355 . S
C940 C942 1.419 . S
C941 C936 1.425 . S
C941 C938 1.409 . S
C941 C939 1.415 . S
C942 H932 0.930 . S
C942 C940 1.419 . S
C942 C943 1.362 . S
C943 H933 0.930 . S
C943 C936 1.409 . S
C943 C942 1.362 . S
H944 C950 0.930 . S
H945 C953 0.930 . S
H946 C954 0.930 . S
H947 C955 0.930 . S
H948 C958 0.930 . S
H949 C959 0.930 . S
C950 H944 0.930 . S
C950 C951 1.355 . S
C950 C952 1.415 . S
C951 C950 1.355 . S
C951 C953 1.419 . S
C952 C950 1.415 . S
C952 C957 1.425 . S
C952 C959 1.409 . S
C953 H945 0.930 . S
C953 C951 1.419 . S
C953 C954 1.362 . S
C954 H946 0.930 . S
C954 C953 1.362 . S
C954 C957 1.409 . S
C955 H947 0.930 . S
C955 C956 1.355 . S
C955 C957 1.415 . S
C956 C955 1.355 . S
C956 C958 1.419 . S
C957 C952 1.425 . S
C957 C954 1.409 . S
C957 C955 1.415 . S
C958 H948 0.930 . S
C958 C956 1.419 . S
C958 C959 1.362 . S
C959 H949 0.930 . S
C959 C952 1.409 . S
C959 C958 1.362 . S
H960 C966 0.930 . S
H961 C969 0.930 . S
H962 C970 0.930 . S
H963 C971 0.930 . S
H964 C974 0.930 . S
H965 C975 0.930 . S
C966 H960 0.930 . S
C966 C967 1.355 . S
C966 C968 1.415 . S
C967 C966 1.355 . S
C967 C969 1.419 . S
C968 C966 1.415 . S
C968 C973 1.425 . S
C968 C975 1.409 . S
C969 H961 0.930 . S
C969 C967 1.419 . S
C969 C970 1.362 . S
C970 H962 0.930 . S
C970 C969 1.362 . S
C970 C973 1.409 . S
C971 H963 0.930 . S
C971 C972 1.355 . S
C971 C973 1.415 . S
C972 C971 1.355 . S
C972 C974 1.419 . S
C973 C968 1.425 . S
C973 C970 1.409 . S
C973 C971 1.415 . S
C974 H964 0.930 . S
C974 C972 1.419 . S
C974 C975 1.362 . S
C975 H965 0.930 . S
C975 C968 1.409 . S
C975 C974 1.362 . S
H976 C982 0.930 . S
H977 C985 0.930 . S
H978 C986 0.930 . S
H979 C987 0.930 . S
H980 C990 0.930 . S
H981 C991 0.930 . S
C982 H976 0.930 . S
C982 C983 1.355 . S
C982 C984 1.415 . S
C983 C982 1.355 . S
C983 C985 1.419 . S
C984 C982 1.415 . S
C984 C989 1.425 . S
C984 C991 1.409 . S
C985 H977 0.930 . S
C985 C983 1.419 . S
C985 C986 1.362 . S
C986 H978 0.930 . S
C986 C985 1.362 . S
C986 C989 1.409 . S
C987 H979 0.930 . S
C987 C988 1.355 . S
C987 C989 1.415 . S
C988 C987 1.355 . S
C988 C990 1.419 . S
C989 C984 1.425 . S
C989 C986 1.409 . S
C989 C987 1.415 . S
C990 H980 0.930 . S
C990 C988 1.419 . S
C990 C991 1.362 . S
C991 H981 0.930 . S
C991 C984 1.409 . S
C991 C990 1.362 . S
H992 C998 0.930 . S
H993 C1001 0.930 . S
H994 C1002 0.930 . S
H995 C1003 0.912 1_565 S
H996 C1006 0.930 1_554 S
H997 C1007 0.930 1_554 S
C998 H992 0.930 . S
C998 C999 1.355 . S
C998 C1000 1.415 . S
C999 C998 1.355 . S
C999 C1001 1.419 . S
C1000 C998 1.415 . S
C1000 C1005 1.425 . S
C1000 C1007 1.409 . S
C1001 H993 0.930 . S
C1001 C999 1.419 . S
C1001 C1002 1.362 . S
C1002 H994 0.930 . S
C1002 C1001 1.362 . S
C1002 C1005 1.409 . S
C1003 H995 0.912 1_545 S
C1003 C1004 1.355 . S
C1003 C1005 1.415 . S
C1004 C1003 1.355 . S
C1004 C1006 1.419 . S
C1005 C1000 1.425 . S
C1005 C1002 1.409 . S
C1005 C1003 1.415 . S
C1006 H996 0.930 1_556 S
C1006 C1004 1.419 . S
C1006 C1007 1.362 . S
C1007 H997 0.930 1_556 S
C1007 C1000 1.409 . S
C1007 C1006 1.362 . S
H1008 C1014 0.930 . S
H1009 C1017 0.930 . S
H1010 C1018 0.930 . S
H1011 C1019 0.930 . S
H1012 C1022 0.930 . S
H1013 C1023 0.930 . S
C1014 H1008 0.930 . S
C1014 C1015 1.355 . S
C1014 C1016 1.415 . S
C1015 C1014 1.355 . S
C1015 C1017 1.419 . S
C1016 C1014 1.415 . S
C1016 C1021 1.425 . S
C1016 C1023 1.409 . S
C1017 H1009 0.930 . S
C1017 C1015 1.419 . S
C1017 C1018 1.362 . S
C1018 H1010 0.930 . S
C1018 C1017 1.362 . S
C1018 C1021 1.409 . S
C1019 H1011 0.930 . S
C1019 C1020 1.355 . S
C1019 C1021 1.415 . S
C1020 C1019 1.355 . S
C1020 C1022 1.419 . S
C1021 C1016 1.425 . S
C1021 C1018 1.409 . S
C1021 C1019 1.415 . S
C1022 H1012 0.930 . S
C1022 C1020 1.419 . S
C1022 C1023 1.362 . S
C1023 H1013 0.930 . S
C1023 C1016 1.409 . S
C1023 C1022 1.362 . S
H1024 C1030 0.930 . S
H1025 C1033 0.930 . S
H1026 C1034 0.930 . S
H1027 C1035 0.930 . S
H1028 C1038 0.930 . S
H1029 C1039 0.930 . S
C1030 H1024 0.930 . S
C1030 C1031 1.355 . S
C1030 C1032 1.415 . S
C1031 C1030 1.355 . S
C1031 C1033 1.419 . S
C1032 C1030 1.415 . S
C1032 C1037 1.425 . S
C1032 C1039 1.409 . S
C1033 H1025 0.930 . S
C1033 C1031 1.419 . S
C1033 C1034 1.362 . S
C1034 H1026 0.930 . S
C1034 C1033 1.362 . S
C1034 C1037 1.409 . S
C1035 H1027 0.930 . S
C1035 C1036 1.355 . S
C1035 C1037 1.415 . S
C1036 C1035 1.355 . S
C1036 C1038 1.419 . S
C1037 C1032 1.425 . S
C1037 C1034 1.409 . S
C1037 C1035 1.415 . S
C1038 H1028 0.930 . S
C1038 C1036 1.419 . S
C1038 C1039 1.362 . S
C1039 H1029 0.930 . S
C1039 C1032 1.409 . S
C1039 C1038 1.362 . S
H1040 C1046 0.930 . S
H1041 C1049 0.930 . S
H1042 C1050 0.930 . S
H1043 C1051 0.930 . S
H1044 C1054 0.930 . S
H1045 C1055 0.930 . S
C1046 H1040 0.930 . S
C1046 C1047 1.355 . S
C1046 C1048 1.415 . S
C1047 C1046 1.355 . S
C1047 C1049 1.419 . S
C1048 C1046 1.415 . S
C1048 C1053 1.425 . S
C1048 C1055 1.409 . S
C1049 H1041 0.930 . S
C1049 C1047 1.419 . S
C1049 C1050 1.362 . S
C1050 H1042 0.930 . S
C1050 C1049 1.362 . S
C1050 C1053 1.409 . S
C1051 H1043 0.930 . S
C1051 C1052 1.355 . S
C1051 C1053 1.415 . S
C1052 C1051 1.355 . S
C1052 C1054 1.419 . S
C1053 C1048 1.425 . S
C1053 C1050 1.409 . S
C1053 C1051 1.415 . S
C1054 H1044 0.930 . S
C1054 C1052 1.419 . S
C1054 C1055 1.362 . S
C1055 H1045 0.930 . S
C1055 C1048 1.409 . S
C1055 C1054 1.362 . S
H1056 C1062 0.930 . S
H1057 C1065 0.930 . S
H1058 C1066 0.930 . S
H1059 C1067 0.930 . S
H1060 C1070 0.930 . S
H1061 C1071 0.930 . S
C1062 H1056 0.930 . S
C1062 C1063 1.355 . S
C1062 C1064 1.415 . S
C1063 C1062 1.355 . S
C1063 C1065 1.419 . S
C1064 C1062 1.415 . S
C1064 C1069 1.425 . S
C1064 C1071 1.409 . S
C1065 H1057 0.930 . S
C1065 C1063 1.419 . S
C1065 C1066 1.362 . S
C1066 H1058 0.930 . S
C1066 C1065 1.362 . S
C1066 C1069 1.409 . S
C1067 H1059 0.930 . S
C1067 C1068 1.355 . S
C1067 C1069 1.415 . S
C1068 C1067 1.355 . S
C1068 C1070 1.419 . S
C1069 C1064 1.425 . S
C1069 C1066 1.409 . S
C1069 C1067 1.415 . S
C1070 H1060 0.930 . S
C1070 C1068 1.419 . S
C1070 C1071 1.362 . S
C1071 H1061 0.930 . S
C1071 C1064 1.409 . S
C1071 C1070 1.362 . S
H1072 C1078 0.930 . S
H1073 C1081 0.930 . S
H1074 C1082 0.930 . S
H1075 C1083 0.930 . S
H1076 C1086 0.930 . S
H1077 C1087 0.930 . S
C1078 H1072 0.930 . S
C1078 C1079 1.355 . S
C1078 C1080 1.415 . S
C1079 C1078 1.355 . S
C1079 C1081 1.419 . S
C1080 C1078 1.415 . S
C1080 C1085 1.425 . S
C1080 C1087 1.409 . S
C1081 H1073 0.930 . S
C1081 C1079 1.419 . S
C1081 C1082 1.362 . S
C1082 H1074 0.930 . S
C1082 C1081 1.362 . S
C1082 C1085 1.409 . S
C1083 H1075 0.930 . S
C1083 C1084 1.355 . S
C1083 C1085 1.415 . S
C1084 C1083 1.355 . S
C1084 C1086 1.419 . S
C1085 C1080 1.425 . S
C1085 C1082 1.409 . S
C1085 C1083 1.415 . S
C1086 H1076 0.930 . S
C1086 C1084 1.419 . S
C1086 C1087 1.362 . S
C1087 H1077 0.930 . S
C1087 C1080 1.409 . S
C1087 C1086 1.362 . S
H1088 C1094 0.930 . S
H1089 C1097 0.930 . S
H1090 C1098 0.930 . S
H1091 C1099 0.930 . S
H1092 C1102 0.930 . S
H1093 C1103 0.930 . S
C1094 H1088 0.930 . S
C1094 C1095 1.355 . S
C1094 C1096 1.415 . S
C1095 C1094 1.355 . S
C1095 C1097 1.419 . S
C1096 C1094 1.415 . S
C1096 C1101 1.425 . S
C1096 C1103 1.409 . S
C1097 H1089 0.930 . S
C1097 C1095 1.419 . S
C1097 C1098 1.362 . S
C1098 H1090 0.930 . S
C1098 C1097 1.362 . S
C1098 C1101 1.409 . S
C1099 H1091 0.930 . S
C1099 C1100 1.355 . S
C1099 C1101 1.415 . S
C1100 C1099 1.355 . S
C1100 C1102 1.419 . S
C1101 C1096 1.425 . S
C1101 C1098 1.409 . S
C1101 C1099 1.415 . S
C1102 H1092 0.930 . S
C1102 C1100 1.419 . S
C1102 C1103 1.362 . S
C1103 H1093 0.930 . S
C1103 C1096 1.409 . S
C1103 C1102 1.362 . S
H1104 C1110 0.930 . S
H1105 C1113 0.930 . S
H1106 C1114 0.930 . S
H1107 C1115 0.930 . S
H1108 C1118 0.930 . S
H1109 C1119 0.930 . S
C1110 H1104 0.930 . S
C1110 C1111 1.355 . S
C1110 C1112 1.415 . S
C1111 C1110 1.355 . S
C1111 C1113 1.419 . S
C1112 C1110 1.415 . S
C1112 C1117 1.425 . S
C1112 C1119 1.409 . S
C1113 H1105 0.930 . S
C1113 C1111 1.419 . S
C1113 C1114 1.362 . S
C1114 H1106 0.930 . S
C1114 C1113 1.362 . S
C1114 C1117 1.409 . S
C1115 H1107 0.930 . S
C1115 C1116 1.355 . S
C1115 C1117 1.415 . S
C1116 C1115 1.355 . S
C1116 C1118 1.419 . S
C1117 C1112 1.425 . S
C1117 C1114 1.409 . S
C1117 C1115 1.415 . S
C1118 H1108 0.930 . S
C1118 C1116 1.419 . S
C1118 C1119 1.362 . S
C1119 H1109 0.930 . S
C1119 C1112 1.409 . S
C1119 C1118 1.362 . S
H1120 C1126 0.930 . S
H1121 C1129 0.930 . S
H1122 C1130 0.930 . S
H1123 C1131 0.930 . S
H1124 C1134 0.930 . S
H1125 C1135 0.930 . S
C1126 H1120 0.930 . S
C1126 C1127 1.355 . S
C1126 C1128 1.415 . S
C1127 C1126 1.355 . S
C1127 C1129 1.419 . S
C1128 C1126 1.415 . S
C1128 C1133 1.425 . S
C1128 C1135 1.409 . S
C1129 H1121 0.930 . S
C1129 C1127 1.419 . S
C1129 C1130 1.362 . S
C1130 H1122 0.930 . S
C1130 C1129 1.362 . S
C1130 C1133 1.409 . S
C1131 H1123 0.930 . S
C1131 C1132 1.355 . S
C1131 C1133 1.415 . S
C1132 C1131 1.355 . S
C1132 C1134 1.419 . S
C1133 C1128 1.425 . S
C1133 C1130 1.409 . S
C1133 C1131 1.415 . S
C1134 H1124 0.930 . S
C1134 C1132 1.419 . S
C1134 C1135 1.362 . S
C1135 H1125 0.930 . S
C1135 C1128 1.409 . S
C1135 C1134 1.362 . S
H1136 C1142 0.930 . S
H1137 C1145 0.930 . S
H1138 C1146 0.930 . S
H1139 C1147 0.930 . S
H1140 C1150 0.930 . S
H1141 C1151 0.930 . S
C1142 H1136 0.930 . S
C1142 C1143 1.355 . S
C1142 C1144 1.415 . S
C1143 C1142 1.355 . S
C1143 C1145 1.419 . S
C1144 C1142 1.415 . S
C1144 C1149 1.425 . S
C1144 C1151 1.409 . S
C1145 H1137 0.930 . S
C1145 C1143 1.419 . S
C1145 C1146 1.362 . S
C1146 H1138 0.930 . S
C1146 C1145 1.362 . S
C1146 C1149 1.409 . S
C1147 H1139 0.930 . S
C1147 C1148 1.355 . S
C1147 C1149 1.415 . S
C1148 C1147 1.355 . S
C1148 C1150 1.419 . S
C1149 C1144 1.425 . S
C1149 C1146 1.409 . S
C1149 C1147 1.415 . S
C1150 H1140 0.930 . S
C1150 C1148 1.419 . S
C1150 C1151 1.362 . S
C1151 H1141 0.930 . S
C1151 C1144 1.409 . S
C1151 C1150 1.362 . S
H1152 C1158 0.930 . S
H1153 C1161 0.930 . S
H1154 C1162 0.930 . S
H1155 C1163 0.930 . S
H1156 C1166 0.930 . S
H1157 C1167 0.930 . S
C1158 H1152 0.930 . S
C1158 C1159 1.355 . S
C1158 C1160 1.415 . S
C1159 C1158 1.355 . S
C1159 C1161 1.419 . S
C1160 C1158 1.415 . S
C1160 C1165 1.425 . S
C1160 C1167 1.409 . S
C1161 H1153 0.930 . S
C1161 C1159 1.419 . S
C1161 C1162 1.362 . S
C1162 H1154 0.930 . S
C1162 C1161 1.362 . S
C1162 C1165 1.409 . S
C1163 H1155 0.930 . S
C1163 C1164 1.355 . S
C1163 C1165 1.415 . S
C1164 C1163 1.355 . S
C1164 C1166 1.419 . S
C1165 C1160 1.425 . S
C1165 C1162 1.409 . S
C1165 C1163 1.415 . S
C1166 H1156 0.930 . S
C1166 C1164 1.419 . S
C1166 C1167 1.362 . S
C1167 H1157 0.930 . S
C1167 C1160 1.409 . S
C1167 C1166 1.362 . S
H1168 C1174 0.930 . S
H1169 C1177 0.930 . S
H1170 C1178 0.930 . S
H1171 C1179 0.930 . S
H1172 C1182 0.930 . S
H1173 C1183 0.930 . S
C1174 H1168 0.930 . S
C1174 C1175 1.355 . S
C1174 C1176 1.415 . S
C1175 C1174 1.355 . S
C1175 C1177 1.419 . S
C1176 C1174 1.415 . S
C1176 C1181 1.425 . S
C1176 C1183 1.409 . S
C1177 H1169 0.930 . S
C1177 C1175 1.419 . S
C1177 C1178 1.362 . S
C1178 H1170 0.930 . S
C1178 C1177 1.362 . S
C1178 C1181 1.409 . S
C1179 H1171 0.930 . S
C1179 C1180 1.355 . S
C1179 C1181 1.415 . S
C1180 C1179 1.355 . S
C1180 C1182 1.419 . S
C1181 C1176 1.425 . S
C1181 C1178 1.409 . S
C1181 C1179 1.415 . S
C1182 H1172 0.930 . S
C1182 C1180 1.419 . S
C1182 C1183 1.362 . S
C1183 H1173 0.930 . S
C1183 C1176 1.409 . S
C1183 C1182 1.362 . S
H1184 C1190 0.930 . S
H1185 C1193 0.930 . S
H1186 C1194 0.930 . S
H1187 C1195 0.930 . S
H1188 C1198 0.930 . S
H1189 C1199 0.930 . S
C1190 H1184 0.930 . S
C1190 C1191 1.355 . S
C1190 C1192 1.415 . S
C1191 C1190 1.355 . S
C1191 C1193 1.419 . S
C1192 C1190 1.415 . S
C1192 C1197 1.425 . S
C1192 C1199 1.409 . S
C1193 H1185 0.930 . S
C1193 C1191 1.419 . S
C1193 C1194 1.362 . S
C1194 H1186 0.930 . S
C1194 C1193 1.362 . S
C1194 C1197 1.409 . S
C1195 H1187 0.930 . S
C1195 C1196 1.355 . S
C1195 C1197 1.415 . S
C1196 C1195 1.355 . S
C1196 C1198 1.419 . S
C1197 C1192 1.425 . S
C1197 C1194 1.409 . S
C1197 C1195 1.415 . S
C1198 H1188 0.930 . S
C1198 C1196 1.419 . S
C1198 C1199 1.362 . S
C1199 H1189 0.930 . S
C1199 C1192 1.409 . S
C1199 C1198 1.362 . S
H1200 C1206 0.930 . S
H1201 C1209 0.930 . S
H1202 C1210 0.930 . S
H1203 C1211 0.930 . S
H1204 C1214 0.930 . S
H1205 C1215 0.930 . S
C1206 H1200 0.930 . S
C1206 C1207 1.355 . S
C1206 C1208 1.415 . S
C1207 C1206 1.355 . S
C1207 C1209 1.419 . S
C1208 C1206 1.415 . S
C1208 C1213 1.425 . S
C1208 C1215 1.409 . S
C1209 H1201 0.930 . S
C1209 C1207 1.419 . S
C1209 C1210 1.362 . S
C1210 H1202 0.930 . S
C1210 C1209 1.362 . S
C1210 C1213 1.409 . S
C1211 H1203 0.930 . S
C1211 C1212 1.355 . S
C1211 C1213 1.415 . S
C1212 C1211 1.355 . S
C1212 C1214 1.419 . S
C1213 C1208 1.425 . S
C1213 C1210 1.409 . S
C1213 C1211 1.415 . S
C1214 H1204 0.930 . S
C1214 C1212 1.419 . S
C1214 C1215 1.362 . S
C1215 H1205 0.930 . S
C1215 C1208 1.409 . S
C1215 C1214 1.362 . S
H1216 C1222 0.930 . S
H1217 C1225 0.930 . S
H1218 C1226 0.930 . S
H1219 C1227 0.930 . S
H1220 C1230 0.930 . S
H1221 C1231 0.930 . S
C1222 H1216 0.930 . S
C1222 C1223 1.355 . S
C1222 C1224 1.415 . S
C1223 C1222 1.355 . S
C1223 C1225 1.419 . S
C1224 C1222 1.415 . S
C1224 C1229 1.425 . S
C1224 C1231 1.409 . S
C1225 H1217 0.930 . S
C1225 C1223 1.419 . S
C1225 C1226 1.362 . S
C1226 H1218 0.930 . S
C1226 C1225 1.362 . S
C1226 C1229 1.409 . S
C1227 H1219 0.930 . S
C1227 C1228 1.355 . S
C1227 C1229 1.415 . S
C1228 C1227 1.355 . S
C1228 C1230 1.419 . S
C1229 C1224 1.425 . S
C1229 C1226 1.409 . S
C1229 C1227 1.415 . S
C1230 H1220 0.930 . S
C1230 C1228 1.419 . S
C1230 C1231 1.362 . S
C1231 H1221 0.930 . S
C1231 C1224 1.409 . S
C1231 C1230 1.362 . S
H1232 C1238 0.930 . S
H1233 C1241 0.930 . S
H1234 C1242 0.930 . S
H1235 C1243 0.930 . S
H1236 C1246 0.930 . S
H1237 C1247 0.930 . S
C1238 H1232 0.930 . S
C1238 C1239 1.355 . S
C1238 C1240 1.415 . S
C1239 C1238 1.355 . S
C1239 C1241 1.419 . S
C1240 C1238 1.415 . S
C1240 C1245 1.425 . S
C1240 C1247 1.409 . S
C1241 H1233 0.930 . S
C1241 C1239 1.419 . S
C1241 C1242 1.362 . S
C1242 H1234 0.930 . S
C1242 C1241 1.362 . S
C1242 C1245 1.409 . S
C1243 H1235 0.930 . S
C1243 C1244 1.355 . S
C1243 C1245 1.415 . S
C1244 C1243 1.355 . S
C1244 C1246 1.419 . S
C1245 C1240 1.425 . S
C1245 C1242 1.409 . S
C1245 C1243 1.415 . S
C1246 H1236 0.930 . S
C1246 C1244 1.419 . S
C1246 C1247 1.362 . S
C1247 H1237 0.930 . S
C1247 C1240 1.409 . S
C1247 C1246 1.362 . S
H1248 C1254 0.930 . S
H1249 C1257 0.930 . S
H1250 C1258 0.930 . S
H1251 C1259 0.930 . S
H1252 C1262 0.930 . S
H1253 C1263 0.930 . S
C1254 H1248 0.930 . S
C1254 C1255 1.355 . S
C1254 C1256 1.415 . S
C1255 C1254 1.355 . S
C1255 C1257 1.419 . S
C1256 C1254 1.415 . S
C1256 C1261 1.425 . S
C1256 C1263 1.409 . S
C1257 H1249 0.930 . S
C1257 C1255 1.419 . S
C1257 C1258 1.362 . S
C1258 H1250 0.930 . S
C1258 C1257 1.362 . S
C1258 C1261 1.409 . S
C1259 H1251 0.930 . S
C1259 C1260 1.355 . S
C1259 C1261 1.415 . S
C1260 C1259 1.355 . S
C1260 C1262 1.419 . S
C1261 C1256 1.425 . S
C1261 C1258 1.409 . S
C1261 C1259 1.415 . S
C1262 H1252 0.930 . S
C1262 C1260 1.419 . S
C1262 C1263 1.362 . S
C1263 H1253 0.930 . S
C1263 C1256 1.409 . S
C1263 C1262 1.362 . S
H1264 C1270 0.930 . S
H1265 C1273 0.930 . S
H1266 C1274 0.930 . S
H1267 C1275 0.930 . S
H1268 C1278 0.930 . S
H1269 C1279 0.930 . S
C1270 H1264 0.930 . S
C1270 C1271 1.355 . S
C1270 C1272 1.415 . S
C1271 C1270 1.355 . S
C1271 C1273 1.419 . S
C1272 C1270 1.415 . S
C1272 C1277 1.425 . S
C1272 C1279 1.409 . S
C1273 H1265 0.930 . S
C1273 C1271 1.419 . S
C1273 C1274 1.362 . S
C1274 H1266 0.930 . S
C1274 C1273 1.362 . S
C1274 C1277 1.409 . S
C1275 H1267 0.930 . S
C1275 C1276 1.355 . S
C1275 C1277 1.415 . S
C1276 C1275 1.355 . S
C1276 C1278 1.419 . S
C1277 C1272 1.425 . S
C1277 C1274 1.409 . S
C1277 C1275 1.415 . S
C1278 H1268 0.930 . S
C1278 C1276 1.419 . S
C1278 C1279 1.362 . S
C1279 H1269 0.930 . S
C1279 C1272 1.409 . S
C1279 C1278 1.362 . S
H1280 C1286 0.930 . S
H1281 C1289 0.930 . S
H1282 C1290 0.930 . S
H1283 C1291 0.930 . S
H1284 C1294 0.930 . S
H1285 C1295 0.930 . S
C1286 H1280 0.930 . S
C1286 C1287 1.355 . S
C1286 C1288 1.415 . S
C1287 C1286 1.355 . S
C1287 C1289 1.419 . S
C1288 C1286 1.415 . S
C1288 C1293 1.425 . S
C1288 C1295 1.409 . S
C1289 H1281 0.930 . S
C1289 C1287 1.419 . S
C1289 C1290 1.362 . S
C1290 H1282 0.930 . S
C1290 C1289 1.362 . S
C1290 C1293 1.409 . S
C1291 H1283 0.930 . S
C1291 C1292 1.355 . S
C1291 C1293 1.415 . S
C1292 C1291 1.355 . S
C1292 C1294 1.419 . S
C1293 C1288 1.425 . S
C1293 C1290 1.409 . S
C1293 C1291 1.415 . S
C1294 H1284 0.930 . S
C1294 C1292 1.419 . S
C1294 C1295 1.362 . S
C1295 H1285 0.930 . S
C1295 C1288 1.409 . S
C1295 C1294 1.362 . S
H1296 C1302 0.930 . S
H1297 C1305 0.930 . S
H1298 C1306 0.930 . S
H1299 C1307 0.930 . S
H1300 C1310 0.930 . S
H1301 C1311 0.930 . S
C1302 H1296 0.930 . S
C1302 C1303 1.355 . S
C1302 C1304 1.415 . S
C1303 C1302 1.355 . S
C1303 C1305 1.419 . S
C1304 C1302 1.415 . S
C1304 C1309 1.425 . S
C1304 C1311 1.409 . S
C1305 H1297 0.930 . S
C1305 C1303 1.419 . S
C1305 C1306 1.362 . S
C1306 H1298 0.930 . S
C1306 C1305 1.362 . S
C1306 C1309 1.409 . S
C1307 H1299 0.930 . S
C1307 C1308 1.355 . S
C1307 C1309 1.415 . S
C1308 C1307 1.355 . S
C1308 C1310 1.419 . S
C1309 C1304 1.425 . S
C1309 C1306 1.409 . S
C1309 C1307 1.415 . S
C1310 H1300 0.930 . S
C1310 C1308 1.419 . S
C1310 C1311 1.362 . S
C1311 H1301 0.930 . S
C1311 C1304 1.409 . S
C1311 C1310 1.362 . S
H1312 C1318 0.930 . S
H1313 C1321 0.930 . S
H1314 C1322 0.930 . S
H1315 C1323 0.930 . S
H1316 C1326 0.930 . S
H1317 C1327 0.930 . S
C1318 H1312 0.930 . S
C1318 C1319 1.355 . S
C1318 C1320 1.415 . S
C1319 C1318 1.355 . S
C1319 C1321 1.419 . S
C1320 C1318 1.415 . S
C1320 C1325 1.425 . S
C1320 C1327 1.409 . S
C1321 H1313 0.930 . S
C1321 C1319 1.419 . S
C1321 C1322 1.362 . S
C1322 H1314 0.930 . S
C1322 C1321 1.362 . S
C1322 C1325 1.409 . S
C1323 H1315 0.930 . S
C1323 C1324 1.355 . S
C1323 C1325 1.415 . S
C1324 C1323 1.355 . S
C1324 C1326 1.419 . S
C1325 C1320 1.425 . S
C1325 C1322 1.409 . S
C1325 C1323 1.415 . S
C1326 H1316 0.930 . S
C1326 C1324 1.419 . S
C1326 C1327 1.362 . S
C1327 H1317 0.930 . S
C1327 C1320 1.409 . S
C1327 C1326 1.362 . S
H1328 C1334 0.930 . S
H1329 C1337 0.930 . S
H1330 C1338 0.930 . S
H1331 C1339 0.930 . S
H1332 C1342 0.930 . S
H1333 C1343 0.930 . S
C1334 H1328 0.930 . S
C1334 C1335 1.355 . S
C1334 C1336 1.415 . S
C1335 C1334 1.355 . S
C1335 C1337 1.419 . S
C1336 C1334 1.415 . S
C1336 C1341 1.425 . S
C1336 C1343 1.409 . S
C1337 H1329 0.930 . S
C1337 C1335 1.419 . S
C1337 C1338 1.362 . S
C1338 H1330 0.930 . S
C1338 C1337 1.362 . S
C1338 C1341 1.409 . S
C1339 H1331 0.930 . S
C1339 C1340 1.355 . S
C1339 C1341 1.415 . S
C1340 C1339 1.355 . S
C1340 C1342 1.419 . S
C1341 C1336 1.425 . S
C1341 C1338 1.409 . S
C1341 C1339 1.415 . S
C1342 H1332 0.930 . S
C1342 C1340 1.419 . S
C1342 C1343 1.362 . S
C1343 H1333 0.930 . S
C1343 C1336 1.409 . S
C1343 C1342 1.362 . S
H1344 C1350 0.930 . S
H1345 C1353 0.930 . S
H1346 C1354 0.930 . S
H1347 C1355 0.930 . S
H1348 C1358 0.930 . S
H1349 C1359 0.930 . S
C1350 H1344 0.930 . S
C1350 C1351 1.355 . S
C1350 C1352 1.415 . S
C1351 C1350 1.355 . S
C1351 C1353 1.419 . S
C1352 C1350 1.415 . S
C1352 C1357 1.425 . S
C1352 C1359 1.409 . S
C1353 H1345 0.930 . S
C1353 C1351 1.419 . S
C1353 C1354 1.362 . S
C1354 H1346 0.930 . S
C1354 C1353 1.362 . S
C1354 C1357 1.409 . S
C1355 H1347 0.930 . S
C1355 C1356 1.355 . S
C1355 C1357 1.415 . S
C1356 C1355 1.355 . S
C1356 C1358 1.419 . S
C1357 C1352 1.425 . S
C1357 C1354 1.409 . S
C1357 C1355 1.415 . S
C1358 H1348 0.930 . S
C1358 C1356 1.419 . S
C1358 C1359 1.362 . S
C1359 H1349 0.930 . S
C1359 C1352 1.409 . S
C1359 C1358 1.362 . S
H1360 C1366 0.930 . S
H1361 C1369 0.930 . S
H1362 C1370 0.930 . S
H1363 C1371 0.930 . S
H1364 C1374 0.930 . S
H1365 C1375 0.930 . S
C1366 H1360 0.930 . S
C1366 C1367 1.355 . S
C1366 C1368 1.415 . S
C1367 C1366 1.355 . S
C1367 C1369 1.419 . S
C1368 C1366 1.415 . S
C1368 C1373 1.425 . S
C1368 C1375 1.409 . S
C1369 H1361 0.930 . S
C1369 C1367 1.419 . S
C1369 C1370 1.362 . S
C1370 H1362 0.930 . S
C1370 C1369 1.362 . S
C1370 C1373 1.409 . S
C1371 H1363 0.930 . S
C1371 C1372 1.355 . S
C1371 C1373 1.415 . S
C1372 C1371 1.355 . S
C1372 C1374 1.419 . S
C1373 C1368 1.425 . S
C1373 C1370 1.409 . S
C1373 C1371 1.415 . S
C1374 H1364 0.930 . S
C1374 C1372 1.419 . S
C1374 C1375 1.362 . S
C1375 H1365 0.930 . S
C1375 C1368 1.409 . S
C1375 C1374 1.362 . S
H1376 C1382 0.930 . S
H1377 C1385 0.930 . S
H1378 C1386 0.930 . S
H1379 C1387 0.930 . S
H1380 C1390 0.930 . S
H1381 C1391 0.930 . S
C1382 H1376 0.930 . S
C1382 C1383 1.355 . S
C1382 C1384 1.415 . S
C1383 C1382 1.355 . S
C1383 C1385 1.419 . S
C1384 C1382 1.415 . S
C1384 C1389 1.425 . S
C1384 C1391 1.409 . S
C1385 H1377 0.930 . S
C1385 C1383 1.419 . S
C1385 C1386 1.362 . S
C1386 H1378 0.930 . S
C1386 C1385 1.362 . S
C1386 C1389 1.409 . S
C1387 H1379 0.930 . S
C1387 C1388 1.355 . S
C1387 C1389 1.415 . S
C1388 C1387 1.355 . S
C1388 C1390 1.419 . S
C1389 C1384 1.425 . S
C1389 C1386 1.409 . S
C1389 C1387 1.415 . S
C1390 H1380 0.930 . S
C1390 C1388 1.419 . S
C1390 C1391 1.362 . S
C1391 H1381 0.930 . S
C1391 C1384 1.409 . S
C1391 C1390 1.362 . S
H1392 C1398 0.930 . S
H1393 C1401 0.930 . S
H1394 C1402 0.930 . S
H1395 C1403 0.930 . S
H1396 C1406 0.930 . S
H1397 C1407 0.930 . S
C1398 H1392 0.930 . S
C1398 C1399 1.355 . S
C1398 C1400 1.415 . S
C1399 C1398 1.355 . S
C1399 C1401 1.419 . S
C1400 C1398 1.415 . S
C1400 C1405 1.425 . S
C1400 C1407 1.409 . S
C1401 H1393 0.930 . S
C1401 C1399 1.419 . S
C1401 C1402 1.362 . S
C1402 H1394 0.930 . S
C1402 C1401 1.362 . S
C1402 C1405 1.409 . S
C1403 H1395 0.930 . S
C1403 C1404 1.355 . S
C1403 C1405 1.415 . S
C1404 C1403 1.355 . S
C1404 C1406 1.419 . S
C1405 C1400 1.425 . S
C1405 C1402 1.409 . S
C1405 C1403 1.415 . S
C1406 H1396 0.930 . S
C1406 C1404 1.419 . S
C1406 C1407 1.362 . S
C1407 H1397 0.930 . S
C1407 C1400 1.409 . S
C1407 C1406 1.362 . S
C647 C131 1.838 . S
C652 C19 1.843 . S
C663 C2 0.689 . S
C668 C56 0.635 . S
C679 C90 1.468 . S
C684 C59 1.515 . S
C695 C127 1.246 . S
C700 C87 1.254 . S
C711 C167 1.995 . S
C716 C202 2.031 . S
C727 C219 1.407 . S
C732 C259 1.373 . S
C743 C256 1.036 . S
C748 C287 0.989 . S
C759 C171 2.007 . S
C764 C290 2.032 . S
C775 C376 1.697 . S
C780 C16 1.692 . S
C791 C402 2.205 . S
C796 C42 2.236 . S
C807 C91 4.377 . S
C812 C531 4.369 . S
C823 C330 0.920 . S
C828 C130 0.868 . S
C839 C450 1.006 . S
C844 C170 1.003 . S
C855 C571 2.987 . S
C860 C216 2.980 . S
C871 C242 1.525 . S
C876 C482 1.465 . S
C887 C611 4.231 . S
C892 C291 4.181 . S
C903 C331 1.807 . S
C908 C530 1.836 . S
C919 C362 1.283 . S
C924 C327 1.252 . S
C935 C419 0.777 . S
C940 C379 0.815 . S
C951 C570 1.898 . S
C956 C451 1.918 . S
C967 C499 0.631 . S
C972 C610 0.711 . S
C983 C442 1.843 . S
C988 C10 1.846 . S
C999 C487 0.600 . S
C1004 C11 0.620 . S
C1015 C490 1.477 . S
C1020 C99 1.509 . S
C1031 C96 1.303 . S
C1036 C456 1.292 . S
C1047 C371 2.001 . S
C1052 C176 1.974 . S
C1063 C370 1.402 . S
C1068 C250 1.372 . S
C1079 C536 1.016 . S
C1084 C247 1.045 . S
C1095 C162 1.970 . S
C1100 C539 2.034 . S
C1111 C207 1.689 . S
C1116 C7 1.660 . S
C1127 C411 2.208 . S
C1132 C491 2.242 . S
C1143 C82 4.385 . S
C1148 C282 4.378 . S
C1159 C339 0.838 . S
C1164 C459 0.901 . S
C1175 C139 1.032 . S
C1180 C179 0.979 . S
C1191 C367 2.989 . S
C1196 C562 2.965 . S
C1207 C251 1.523 . S
C1212 C51 1.418 . S
C1223 C602 4.224 . S
C1228 C522 4.174 . S
C1239 C322 1.819 . S
C1244 C299 1.834 . S
C1255 C336 1.240 . S
C1260 C211 1.267 . S
C1271 C410 0.767 . S
C1276 C210 0.787 . S
C1287 C122 1.941 . S
C1292 C579 1.901 . S
C1303 C50 0.751 . S
C1308 C619 0.692 . S
C1319 C496 0.679 . S
C1324 C567 0.533 . S
C1335 C447 1.392 . S
C1340 C607 1.390 . S
C1351 C416 0.837 . S
C1356 C527 0.880 . S
C1367 C576 0.541 . S
C1372 C47 0.683 . S
C1383 C136 1.351 . S
C1388 C616 1.339 . S
C1399 C296 0.849 . S
C1404 C407 0.828 . S
