# Generated by pormake.
# Topology uoc, (4)-cn, num edge types: 1
# Building blocks:
#     Node 0, Type 0, BuildingBlock: CEKHIL_clean_sbu_0, # of connection points: 4
#     Node 1, Type 0, BuildingBlock: CEKHIL_clean_sbu_0, # of connection points: 4
#     Node 2, Type 0, BuildingBlock: CEKHIL_clean_sbu_0, # of connection points: 4
#     Node 3, Type 0, BuildingBlock: CEKHIL_clean_sbu_0, # of connection points: 4
#     Node 4, Type 0, BuildingBlock: CEKHIL_clean_sbu_0, # of connection points: 4
#     Node 5, Type 0, BuildingBlock: CEKHIL_clean_sbu_0, # of connection points: 4
#     Node 6, Type 0, BuildingBlock: CEKHIL_clean_sbu_0, # of connection points: 4
#     Node 7, Type 0, BuildingBlock: CEKHIL_clean_sbu_0, # of connection points: 4
#     Edge 8, Type (0, 0), BuildingBlock: MIFKUJ_clean_linker_0, # of connection points: 2
#     Edge 9, Type (0, 0), BuildingBlock: MIFKUJ_clean_linker_0, # of connection points: 2
#     Edge 10, Type (0, 0), BuildingBlock: MIFKUJ_clean_linker_0, # of connection points: 2
#     Edge 11, Type (0, 0), BuildingBlock: MIFKUJ_clean_linker_0, # of connection points: 2
#     Edge 12, Type (0, 0), BuildingBlock: MIFKUJ_clean_linker_0, # of connection points: 2
#     Edge 13, Type (0, 0), BuildingBlock: MIFKUJ_clean_linker_0, # of connection points: 2
#     Edge 14, Type (0, 0), BuildingBlock: MIFKUJ_clean_linker_0, # of connection points: 2
#     Edge 15, Type (0, 0), BuildingBlock: MIFKUJ_clean_linker_0, # of connection points: 2
#     Edge 16, Type (0, 0), BuildingBlock: MIFKUJ_clean_linker_0, # of connection points: 2
#     Edge 17, Type (0, 0), BuildingBlock: MIFKUJ_clean_linker_0, # of connection points: 2
#     Edge 18, Type (0, 0), BuildingBlock: MIFKUJ_clean_linker_0, # of connection points: 2
#     Edge 19, Type (0, 0), BuildingBlock: MIFKUJ_clean_linker_0, # of connection points: 2
#     Edge 20, Type (0, 0), BuildingBlock: MIFKUJ_clean_linker_0, # of connection points: 2
#     Edge 21, Type (0, 0), BuildingBlock: MIFKUJ_clean_linker_0, # of connection points: 2
#     Edge 22, Type (0, 0), BuildingBlock: MIFKUJ_clean_linker_0, # of connection points: 2
#     Edge 23, Type (0, 0), BuildingBlock: MIFKUJ_clean_linker_0, # of connection points: 2
# Relax obj value: 0.097
# Max RMSD: 0.108
# Mean RMSD: 0.108
data_MOF--net-uoc--node1-CEKHIL_clean_sbu_0--edge1-MIFKUJ_clean_linker_0
_symmetry_space_group_name_H-M    P1
_symmetry_Int_Tables_number       1
_symmetry_cell_setting            triclinic
loop_
_symmetry_equiv_pos_as_xyz
'x, y, z'
_cell_length_a     34.916736
_cell_length_b     34.90132
_cell_length_c     71.311161
_cell_angle_alpha  90.166354
_cell_angle_beta   90.009309
_cell_angle_gamma 92.39117
loop_
_atom_site_label
_atom_site_type_symbol
_atom_site_fract_x
_atom_site_fract_y
_atom_site_fract_z
_atom_type_partial_charge
Co0 Co 0.11872 0.26603 0.11034 0.0
O1 O 0.12256 0.32096 0.10986 0.0
O2 O 0.07276 0.28669 0.12094 0.0
C3 C 0.13913 0.25716 0.08093 0.0
O4 O 0.10425 0.20881 0.11207 0.0
Co5 Co 0.19179 0.2191 0.10605 0.0
O6 O 0.15398 0.17617 0.10134 0.0
C7 C 0.1761 0.25658 0.14209 0.0
C8 C 0.08868 0.32027 0.11732 0.0
C9 C 0.1191 0.17753 0.10648 0.0
O10 O 0.14332 0.26605 0.13581 0.0
O11 O 0.20079 0.23971 0.13208 0.0
O12 O 0.10359 0.26477 0.08411 0.0
O13 O 0.16169 0.25896 0.0953 0.0
Co14 Co 0.7653 0.61842 0.37279 0.0
O15 O 0.82007 0.62367 0.37421 0.0
O16 O 0.78786 0.57329 0.36226 0.0
C17 C 0.75421 0.63782 0.4021 0.0
O18 O 0.7086 0.60259 0.36996 0.0
Co19 Co 0.71662 0.69028 0.37661 0.0
O20 O 0.67382 0.65169 0.37968 0.0
C21 C 0.75673 0.67618 0.34118 0.0
C22 C 0.82079 0.59006 0.36647 0.0
C23 C 0.67645 0.61684 0.37461 0.0
O24 O 0.76634 0.64348 0.34747 0.0
O25 O 0.73892 0.70042 0.35106 0.0
O26 O 0.7626 0.60251 0.39889 0.0
O27 O 0.75638 0.66094 0.38799 0.0
Co28 Co 0.38295 0.2395 0.61259 0.0
O29 O 0.37591 0.18473 0.61469 0.0
O30 O 0.42802 0.21829 0.62362 0.0
C31 C 0.3618 0.24468 0.58301 0.0
O32 O 0.40064 0.29589 0.61196 0.0
Co33 Co 0.31129 0.28872 0.60743 0.0
O34 O 0.34985 0.33205 0.60626 0.0
C35 C 0.32609 0.25383 0.64377 0.0
C36 C 0.41006 0.18503 0.6219 0.0
C37 C 0.38555 0.32845 0.60917 0.0
O38 O 0.35985 0.24603 0.63816 0.0
O39 O 0.30044 0.2669 0.633 0.0
O40 O 0.39663 0.23471 0.58622 0.0
O41 O 0.33996 0.24677 0.59757 0.0
Co42 Co 0.73452 0.8816 0.8721 0.0
O43 O 0.67954 0.87642 0.87159 0.0
O44 O 0.71366 0.92718 0.86147 0.0
C45 C 0.7425 0.86118 0.90159 0.0
O46 O 0.79138 0.8975 0.87113 0.0
Co47 Co 0.78246 0.80914 0.87639 0.0
O48 O 0.82596 0.84707 0.87917 0.0
C49 C 0.74547 0.82432 0.84035 0.0
C50 C 0.68015 0.91038 0.86421 0.0
C51 C 0.82348 0.88241 0.87507 0.0
O52 O 0.73678 0.8575 0.84652 0.0
O53 O 0.7611 0.79926 0.85058 0.0
O54 O 0.73358 0.89634 0.89841 0.0
O55 O 0.74204 0.83869 0.88714 0.0
Co56 Co 0.61573 0.77038 0.61312 0.0
O57 O 0.62121 0.82533 0.61403 0.0
O58 O 0.57026 0.79124 0.624 0.0
C59 C 0.63584 0.76326 0.58353 0.0
O60 O 0.59947 0.71347 0.61372 0.0
Co61 Co 0.68691 0.72116 0.60776 0.0
O62 O 0.64779 0.67993 0.60216 0.0
C63 C 0.67212 0.75538 0.64468 0.0
C64 C 0.58727 0.82471 0.62145 0.0
C65 C 0.61313 0.6821 0.60751 0.0
O66 O 0.64022 0.7675 0.63854 0.0
O67 O 0.69588 0.73774 0.63446 0.0
O68 O 0.60065 0.77183 0.58692 0.0
O69 O 0.65852 0.76323 0.59787 0.0
Co70 Co 0.2643 0.11429 0.86959 0.0
O71 O 0.31913 0.1205 0.86875 0.0
O72 O 0.28583 0.06866 0.85913 0.0
C73 C 0.25681 0.13544 0.89896 0.0
O74 O 0.20758 0.09763 0.86898 0.0
Co75 Co 0.21587 0.18661 0.87381 0.0
O76 O 0.17239 0.14847 0.8758 0.0
C77 C 0.25318 0.17101 0.83792 0.0
C78 C 0.31905 0.0863 0.86158 0.0
C79 C 0.17525 0.11283 0.87234 0.0
O80 O 0.26102 0.13754 0.8439 0.0
O81 O 0.23847 0.19652 0.8483 0.0
O82 O 0.26603 0.10031 0.89599 0.0
O83 O 0.25659 0.15754 0.88447 0.0
Co84 Co 0.88406 0.73634 0.11353 0.0
O85 O 0.87536 0.6817 0.11451 0.0
O86 O 0.92897 0.71272 0.12342 0.0
C87 C 0.86153 0.74451 0.08444 0.0
O88 O 0.90356 0.79244 0.11376 0.0
Co89 Co 0.81434 0.78858 0.11044 0.0
O90 O 0.85425 0.83005 0.10743 0.0
C91 C 0.83073 0.75176 0.14633 0.0
C92 C 0.90978 0.68022 0.12124 0.0
C93 C 0.88973 0.82547 0.11048 0.0
O94 O 0.86255 0.74075 0.13954 0.0
O95 O 0.8059 0.76898 0.13662 0.0
O96 O 0.89622 0.73346 0.08697 0.0
O97 O 0.84048 0.74613 0.09932 0.0
Co98 Co 0.23618 0.3819 0.37026 0.0
O99 O 0.18128 0.37519 0.37018 0.0
O100 O 0.21353 0.42731 0.36035 0.0
C101 C 0.24564 0.36012 0.39943 0.0
O102 O 0.29263 0.39955 0.36897 0.0
Co103 Co 0.28647 0.31075 0.37326 0.0
O104 O 0.32945 0.34944 0.37486 0.0
C105 C 0.24831 0.32696 0.33763 0.0
C106 C 0.18058 0.40944 0.36318 0.0
C107 C 0.3255 0.38495 0.37162 0.0
O108 O 0.23812 0.35918 0.34436 0.0
O109 O 0.26549 0.30208 0.34732 0.0
O110 O 0.23576 0.39518 0.39677 0.0
O111 O 0.24544 0.33847 0.38468 0.0
H112 H 0.09521 0.23803 0.0505 0.0
H113 H 0.11718 0.21656 0.01979 0.0
H114 H 0.23449 0.22724 0.03872 0.0
H115 H 0.21274 0.24849 0.06957 0.0
H116 H 0.22146 0.25987 0.00301 0.0
H117 H 0.19635 0.14258 0.03639 0.0
H118 H 0.1574 0.09743 0.05577 0.0
H119 H 0.07227 0.08805 0.01236 0.0
H120 H 0.11042 0.13373 -0.00717 0.0
H121 H 0.30367 0.15784 0.92743 0.0
H122 H 0.28468 0.17851 0.95894 0.0
H123 H 0.16554 0.16182 0.94357 0.0
H124 H 0.18461 0.14096 0.9122 0.0
H125 H 0.18107 0.13152 0.97807 0.0
H126 H 0.20427 0.24999 0.94524 0.0
H127 H 0.24129 0.29724 0.92615 0.0
H128 H 0.32853 0.3055 0.96859 0.0
H129 H 0.29227 0.25783 0.98782 0.0
C130 C 0.12568 0.23587 0.04811 0.0
C131 C 0.15232 0.24484 0.06238 0.0
C132 C 0.13814 0.22352 0.03061 0.0
C133 C 0.17738 0.22017 0.02712 0.0
C134 C 0.20408 0.22968 0.04123 0.0
C135 C 0.19162 0.24166 0.05881 0.0
C136 C 0.19043 0.20657 0.0087 0.0
C137 C 0.21319 0.2316 -0.00236 0.0
C138 C 0.17877 0.17 0.00167 0.0
C139 C 0.15609 0.1419 0.01321 0.0
C140 C 0.16919 0.13113 0.03102 0.0
C141 C 0.14727 0.10542 0.04204 0.0
C142 C 0.11233 0.08997 0.03533 0.0
C143 C 0.09932 0.10009 0.01755 0.0
C144 C 0.1211 0.12588 0.0065 0.0
C145 C 0.2735 0.15884 0.93087 0.0
C146 C 0.24546 0.14848 0.91754 0.0
C147 C 0.26269 0.17061 0.94876 0.0
C148 C 0.22371 0.17197 0.95348 0.0
C149 C 0.19573 0.16103 0.94016 0.0
C150 C 0.20657 0.14947 0.92225 0.0
C151 C 0.21208 0.18489 0.97231 0.0
C152 C 0.18954 0.15972 0.98346 0.0
C153 C 0.22385 0.22139 0.97942 0.0
C154 C 0.24577 0.25 0.96787 0.0
C155 C 0.23153 0.2616 0.95042 0.0
C156 C 0.25234 0.28851 0.93959 0.0
C157 C 0.2873 0.30427 0.94613 0.0
C158 C 0.30148 0.29321 0.96353 0.0
C159 C 0.2808 0.26626 0.97441 0.0
H160 H 0.30336 0.32512 0.93773 0.0
H161 H 0.09537 0.0701 0.04389 0.0
H162 H 0.8006 0.63618 0.31681 0.0
H163 H 0.81354 0.65022 0.28388 0.0
H164 H 0.74665 0.75109 0.28768 0.0
H165 H 0.73318 0.7372 0.32067 0.0
H166 H 0.72868 0.70548 0.25657 0.0
H167 H 0.84269 0.7606 0.28681 0.0
H168 H 0.89885 0.75817 0.3077 0.0
H169 H 0.94318 0.66724 0.2745 0.0
H170 H 0.88705 0.66884 0.25353 0.0
H171 H 0.78039 0.78754 0.16921 0.0
H172 H 0.76842 0.77547 0.20247 0.0
H173 H 0.85011 0.68597 0.20173 0.0
H174 H 0.86327 0.69888 0.1687 0.0
H175 H 0.86061 0.72587 0.23167 0.0
H176 H 0.75082 0.66678 0.20211 0.0
H177 H 0.69423 0.66181 0.18143 0.0
H178 H 0.64137 0.75037 0.21292 0.0
H179 H 0.69791 0.75624 0.23365 0.0
C180 C 0.78869 0.66145 0.31071 0.0
C181 C 0.76583 0.68558 0.32141 0.0
C182 C 0.79626 0.66948 0.29189 0.0
C183 C 0.78126 0.70182 0.28343 0.0
C184 C 0.7585 0.72601 0.29401 0.0
C185 C 0.75099 0.71809 0.31287 0.0
C186 C 0.78874 0.70998 0.26341 0.0
C187 C 0.75745 0.71057 0.25111 0.0
C188 C 0.8264 0.71507 0.25631 0.0
C189 C 0.86054 0.71468 0.26868 0.0
C190 C 0.86433 0.73997 0.28402 0.0
C191 C 0.89617 0.73875 0.29587 0.0
C192 C 0.92452 0.7125 0.29245 0.0
C193 C 0.92119 0.68754 0.27713 0.0
C194 C 0.88941 0.68864 0.26525 0.0
C195 C 0.79571 0.76523 0.17613 0.0
C196 C 0.82273 0.74415 0.16634 0.0
C197 C 0.78873 0.75823 0.19512 0.0
C198 C 0.80798 0.72944 0.20455 0.0
C199 C 0.83497 0.70838 0.19478 0.0
C200 C 0.8424 0.71575 0.17588 0.0
C201 C 0.80046 0.7216 0.22468 0.0
C202 C 0.83176 0.72097 0.23704 0.0
C203 C 0.76281 0.71557 0.23178 0.0
C204 C 0.72879 0.71223 0.21931 0.0
C205 C 0.72727 0.68543 0.20453 0.0
C206 C 0.69518 0.6824 0.19282 0.0
C207 C 0.66427 0.70584 0.19582 0.0
C208 C 0.66536 0.73228 0.21058 0.0
C209 C 0.69742 0.73545 0.22233 0.0
H210 H 0.63944 0.70344 0.18674 0.0
H211 H 0.94911 0.71155 0.30166 0.0
H212 H 0.38874 0.21848 0.54987 0.0
H213 H 0.3678 0.23512 0.51835 0.0
H214 H 0.28633 0.31151 0.54203 0.0
H215 H 0.30555 0.29287 0.57357 0.0
H216 H 0.25439 0.27768 0.51458 0.0
H217 H 0.37714 0.34233 0.52201 0.0
H218 H 0.44634 0.34863 0.52888 0.0
H219 H 0.46958 0.27181 0.48353 0.0
H220 H 0.40044 0.26464 0.47654 0.0
H221 H 0.23354 0.39399 0.43318 0.0
H222 H 0.25232 0.37129 0.46416 0.0
H223 H 0.30281 0.27319 0.4387 0.0
H224 H 0.28351 0.29536 0.40762 0.0
H225 H 0.35017 0.31655 0.46612 0.0
H226 H 0.22378 0.25639 0.45879 0.0
H227 H 0.15443 0.25614 0.45223 0.0
H228 H 0.13859 0.33337 0.4983 0.0
H229 H 0.20797 0.33453 0.50496 0.0
C230 C 0.36628 0.23873 0.54829 0.0
C231 C 0.34883 0.25455 0.56408 0.0
C232 C 0.3545 0.24845 0.53028 0.0
C233 C 0.32606 0.27529 0.52774 0.0
C234 C 0.30835 0.29079 0.54358 0.0
C235 C 0.31939 0.28022 0.5616 0.0
C236 C 0.31463 0.28712 0.50861 0.0
C237 C 0.27542 0.28663 0.50411 0.0
C238 C 0.34196 0.2983 0.49474 0.0
C239 C 0.38358 0.30265 0.49888 0.0
C240 C 0.39699 0.32657 0.51359 0.0
C241 C 0.4362 0.33033 0.51749 0.0
C242 C 0.46233 0.31056 0.50668 0.0
C243 C 0.4493 0.28706 0.49191 0.0
C244 C 0.41011 0.28316 0.48796 0.0
C245 C 0.2486 0.36756 0.43418 0.0
C246 C 0.25705 0.34637 0.41803 0.0
C247 C 0.25918 0.35462 0.45186 0.0
C248 C 0.27874 0.32055 0.45363 0.0
C249 C 0.28765 0.29954 0.43753 0.0
C250 C 0.27653 0.31216 0.41985 0.0
C251 C 0.29026 0.30719 0.47234 0.0
C252 C 0.32938 0.30747 0.47669 0.0
C253 C 0.26289 0.29671 0.48619 0.0
C254 C 0.22113 0.29582 0.48226 0.0
C255 C 0.20556 0.27358 0.46742 0.0
C256 C 0.16623 0.27323 0.4637 0.0
C257 C 0.14213 0.29481 0.47481 0.0
C258 C 0.1573 0.3167 0.48969 0.0
C259 C 0.19661 0.31719 0.49346 0.0
H260 H 0.11169 0.29449 0.47191 0.0
H261 H 0.49268 0.3135 0.50973 0.0
H262 H 0.75961 0.75796 0.82127 0.0
H263 H 0.74727 0.74393 0.78817 0.0
H264 H 0.70164 0.85596 0.78111 0.0
H265 H 0.71323 0.8701 0.81415 0.0
H266 H 0.65698 0.80094 0.76446 0.0
H267 H 0.79227 0.83721 0.76662 0.0
H268 H 0.85874 0.83215 0.77777 0.0
H269 H 0.85917 0.71561 0.75832 0.0
H270 H 0.79251 0.71983 0.74727 0.0
H271 H 0.65295 0.81576 0.66636 0.0
H272 H 0.66663 0.82589 0.69962 0.0
H273 H 0.7239 0.71865 0.70145 0.0
H274 H 0.71219 0.70961 0.66784 0.0
H275 H 0.76207 0.76757 0.72135 0.0
H276 H 0.62832 0.73065 0.71821 0.0
H277 H 0.5615 0.73414 0.70734 0.0
H278 H 0.55689 0.84869 0.72912 0.0
H279 H 0.62386 0.84609 0.7399 0.0
C280 C 0.7469 0.77962 0.81271 0.0
C281 C 0.73758 0.81523 0.82039 0.0
C282 C 0.74001 0.77159 0.79377 0.0
C283 C 0.72395 0.79909 0.78217 0.0
C284 C 0.71411 0.83437 0.78984 0.0
C285 C 0.72089 0.84241 0.80874 0.0
C286 C 0.71726 0.7913 0.762 0.0
C287 C 0.67998 0.794 0.75496 0.0
C288 C 0.74712 0.78114 0.74979 0.0
C289 C 0.78729 0.77873 0.75629 0.0
C290 C 0.80645 0.81042 0.76484 0.0
C291 C 0.84418 0.80772 0.77112 0.0
C292 C 0.86313 0.77355 0.7688 0.0
C293 C 0.84444 0.74204 0.76014 0.0
C294 C 0.80671 0.74459 0.75385 0.0
C295 C 0.66855 0.79443 0.67388 0.0
C296 C 0.68133 0.7618 0.66462 0.0
C297 C 0.67613 0.80009 0.69291 0.0
C298 C 0.69541 0.77253 0.7032 0.0
C299 C 0.70881 0.74023 0.69385 0.0
C300 C 0.7021 0.73506 0.67468 0.0
C301 C 0.70171 0.77751 0.72366 0.0
C302 C 0.73892 0.77425 0.73079 0.0
C303 C 0.67166 0.78681 0.73602 0.0
C304 C 0.63122 0.78826 0.72973 0.0
C305 C 0.61312 0.75666 0.72059 0.0
C306 C 0.57521 0.75848 0.71445 0.0
C307 C 0.55499 0.79165 0.7175 0.0
C308 C 0.57259 0.82303 0.72675 0.0
C309 C 0.61051 0.82138 0.7329 0.0
H310 H 0.52566 0.793 0.71272 0.0
H311 H 0.89233 0.77151 0.77368 0.0
H312 H 0.28067 0.2732 0.31532 0.0
H313 H 0.26888 0.26136 0.28194 0.0
H314 H 0.1865 0.35004 0.28135 0.0
H315 H 0.19816 0.3623 0.31468 0.0
H316 H 0.16135 0.28129 0.26325 0.0
H317 H 0.27021 0.37068 0.26405 0.0
H318 H 0.33502 0.39414 0.27342 0.0
H319 H 0.38302 0.29445 0.24884 0.0
H320 H 0.31838 0.2701 0.23956 0.0
H321 H 0.13915 0.30417 0.16587 0.0
H322 H 0.15239 0.31591 0.19901 0.0
H323 H 0.24587 0.23897 0.1967 0.0
H324 H 0.23347 0.22776 0.16336 0.0
H325 H 0.26576 0.30066 0.21658 0.0
H326 H 0.1584 0.21069 0.21559 0.0
H327 H 0.09401 0.18553 0.20645 0.0
H328 H 0.04361 0.2833 0.23165 0.0
H329 H 0.10777 0.30931 0.24074 0.0
C330 C 0.25992 0.29008 0.30812 0.0
C331 C 0.24044 0.31878 0.31763 0.0
C332 C 0.25336 0.28338 0.28906 0.0
C333 C 0.22704 0.30504 0.27924 0.0
C334 C 0.20697 0.33311 0.28874 0.0
C335 C 0.2138 0.34014 0.30774 0.0
C336 C 0.22059 0.29858 0.25899 0.0
C337 C 0.18399 0.28593 0.25299 0.0
C338 C 0.25052 0.30373 0.24577 0.0
C339 C 0.28941 0.31837 0.2513 0.0
C340 C 0.29454 0.35359 0.2608 0.0
C341 C 0.33125 0.36708 0.26606 0.0
C342 C 0.3631 0.34575 0.26178 0.0
C343 C 0.35831 0.31092 0.25218 0.0
C344 C 0.32165 0.29727 0.2469 0.0
C345 C 0.16258 0.28975 0.17238 0.0
C346 C 0.1851 0.26479 0.162 0.0
C347 C 0.17001 0.2964 0.19135 0.0
C348 C 0.19966 0.27775 0.2004 0.0
C349 C 0.22276 0.25354 0.18999 0.0
C350 C 0.2156 0.24715 0.17095 0.0
C351 C 0.20638 0.28339 0.22074 0.0
C352 C 0.24306 0.29589 0.2268 0.0
C353 C 0.17658 0.27777 0.23404 0.0
C354 C 0.13792 0.26211 0.22869 0.0
C355 C 0.13361 0.22696 0.21907 0.0
C356 C 0.09715 0.21252 0.21392 0.0
C357 C 0.06475 0.23285 0.21843 0.0
C358 C 0.06874 0.2676 0.22815 0.0
C359 C 0.10514 0.28219 0.23332 0.0
H360 H 0.03655 0.22162 0.21442 0.0
H361 H 0.39151 0.35625 0.26586 0.0
H362 H 0.70895 0.7577 0.57079 0.0
H363 H 0.72916 0.73663 0.53962 0.0
H364 H 0.61083 0.71889 0.52324 0.0
H365 H 0.59038 0.74061 0.55421 0.0
H366 H 0.66218 0.65583 0.51536 0.0
H367 H 0.65142 0.7927 0.50709 0.0
H368 H 0.66528 0.86064 0.51513 0.0
H369 H 0.78553 0.84572 0.50674 0.0
H370 H 0.77242 0.7775 0.49892 0.0
H371 H 0.68458 0.62574 0.41809 0.0
H372 H 0.66421 0.64765 0.44907 0.0
H373 H 0.77757 0.69828 0.4588 0.0
H374 H 0.79699 0.67826 0.42733 0.0
H375 H 0.72907 0.74462 0.47078 0.0
H376 H 0.74353 0.61017 0.47919 0.0
H377 H 0.73366 0.5411 0.47249 0.0
H378 H 0.6129 0.54879 0.48232 0.0
H379 H 0.62197 0.61804 0.48884 0.0
C380 C 0.68729 0.7494 0.56051 0.0
C381 C 0.64814 0.75091 0.56482 0.0
C382 C 0.69885 0.73744 0.54277 0.0
C383 C 0.6714 0.72637 0.52924 0.0
C384 C 0.63233 0.72738 0.53357 0.0
C385 C 0.62074 0.73994 0.55119 0.0
C386 C 0.68348 0.71367 0.5105 0.0
C387 C 0.67642 0.67521 0.50546 0.0
C388 C 0.7031 0.73887 0.498 0.0
C389 C 0.71097 0.77991 0.50262 0.0
C390 C 0.68085 0.80381 0.50714 0.0
C391 C 0.68856 0.84239 0.51162 0.0
C392 C 0.72627 0.85746 0.5115 0.0
C393 C 0.75634 0.83399 0.50686 0.0
C394 C 0.74878 0.79538 0.50239 0.0
C395 C 0.7049 0.64169 0.42691 0.0
C396 C 0.74218 0.6505 0.4206 0.0
C397 C 0.69345 0.6539 0.44462 0.0
C398 C 0.71958 0.674 0.45645 0.0
C399 C 0.75693 0.68281 0.44997 0.0
C400 C 0.76806 0.67133 0.43209 0.0
C401 C 0.70786 0.68646 0.47542 0.0
C402 C 0.71496 0.72498 0.48059 0.0
C403 C 0.68895 0.66104 0.4882 0.0
C404 C 0.68339 0.61937 0.48433 0.0
C405 C 0.71483 0.59719 0.47979 0.0
C406 C 0.70938 0.558 0.47605 0.0
C407 C 0.67266 0.54059 0.47693 0.0
C408 C 0.64132 0.56232 0.48161 0.0
C409 C 0.6466 0.60154 0.48535 0.0
H410 H 0.66851 0.51025 0.47403 0.0
H411 H 0.73219 0.88733 0.51497 0.0
H412 H 0.37395 0.26491 0.67344 0.0
H413 H 0.35968 0.25332 0.70651 0.0
H414 H 0.24396 0.21599 0.69196 0.0
H415 H 0.25756 0.23 0.65893 0.0
H416 H 0.24198 0.25382 0.7227 0.0
H417 H 0.31822 0.15169 0.70057 0.0
H418 H 0.37447 0.12623 0.68459 0.0
H419 H 0.44877 0.17851 0.72621 0.0
H420 H 0.39302 0.20487 0.74224 0.0
H421 H 0.2667 0.12072 0.80951 0.0
H422 H 0.27699 0.13521 0.77641 0.0
H423 H 0.26829 0.25593 0.78813 0.0
H424 H 0.25665 0.24156 0.82119 0.0
H425 H 0.33006 0.17291 0.75827 0.0
H426 H 0.23023 0.30105 0.75137 0.0
H427 H 0.17059 0.32371 0.76535 0.0
H428 H 0.13586 0.20804 0.77975 0.0
H429 H 0.19503 0.18465 0.76565 0.0
C430 C 0.34543 0.25442 0.67735 0.0
C431 C 0.31692 0.24794 0.6637 0.0
C432 C 0.33733 0.24766 0.69622 0.0
C433 C 0.30104 0.23279 0.70169 0.0
C434 C 0.27221 0.22729 0.68808 0.0
C435 C 0.28 0.23515 0.66924 0.0
C436 C 0.29351 0.22201 0.72149 0.0
C437 C 0.26121 0.2361 0.73047 0.0
C438 C 0.31814 0.19817 0.73153 0.0
C439 C 0.35147 0.18052 0.72251 0.0
C440 C 0.34656 0.15778 0.7063 0.0
C441 C 0.37836 0.14328 0.6972 0.0
C442 C 0.41518 0.15096 0.70432 0.0
C443 C 0.42024 0.17272 0.72068 0.0
C444 C 0.38855 0.18741 0.72979 0.0
C445 C 0.26694 0.15038 0.80506 0.0
C446 C 0.26059 0.17998 0.81797 0.0
C447 C 0.2729 0.1586 0.78612 0.0
C448 C 0.27291 0.19659 0.77973 0.0
C449 C 0.26754 0.22631 0.79266 0.0
C450 C 0.26105 0.21807 0.81157 0.0
C451 C 0.27869 0.20502 0.75954 0.0
C452 C 0.31073 0.19051 0.75049 0.0
C453 C 0.25314 0.22744 0.74928 0.0
C454 C 0.21725 0.24118 0.75762 0.0
C455 C 0.20979 0.28045 0.75746 0.0
C456 C 0.17608 0.29342 0.76541 0.0
C457 C 0.14951 0.26735 0.77349 0.0
C458 C 0.15653 0.22822 0.77356 0.0
C459 C 0.19017 0.2151 0.76561 0.0
H460 H 0.12346 0.27745 0.77965 0.0
H461 H 0.4398 0.13997 0.69719 0.0
H462 H 0.88573 0.7186 0.0508 0.0
H463 H 0.86412 0.73738 0.01971 0.0
H464 H 0.78651 0.81562 0.04507 0.0
H465 H 0.80638 0.79488 0.07622 0.0
H466 H 0.75262 0.78394 0.0174 0.0
H467 H 0.87698 0.8429 0.02547 0.0
H468 H 0.9461 0.84562 0.03251 0.0
H469 H 0.96702 0.77463 0.98464 0.0
H470 H 0.89778 0.77011 0.97773 0.0
H471 H 0.73219 0.89775 0.93481 0.0
H472 H 0.7517 0.87701 0.96603 0.0
H473 H 0.79928 0.77602 0.9419 0.0
H474 H 0.77922 0.7962 0.91062 0.0
H475 H 0.84828 0.82084 0.96853 0.0
H476 H 0.72034 0.76234 0.96219 0.0
H477 H 0.65096 0.76374 0.95593 0.0
H478 H 0.63823 0.84348 0.00125 0.0
H479 H 0.70768 0.84298 0.00761 0.0
C480 C 0.86395 0.7397 0.04969 0.0
C481 C 0.84782 0.75551 0.06582 0.0
C482 C 0.85179 0.75061 0.03194 0.0
C483 C 0.82435 0.77865 0.03 0.0
C484 C 0.8078 0.79404 0.04618 0.0
C485 C 0.8192 0.78228 0.06396 0.0
C486 C 0.81288 0.79186 0.01112 0.0
C487 C 0.77364 0.79248 0.00685 0.0
C488 C 0.84024 0.80273 -0.0028 0.0
C489 C 0.88204 0.80586 0.00118 0.0
C490 C 0.89624 0.8276 0.01652 0.0
C491 C 0.93547 0.82948 0.02049 0.0
C492 C 0.96096 0.81045 0.00899 0.0
C493 C 0.94724 0.78936 -0.00647 0.0
C494 C 0.90797 0.78702 0.98962 0.0
C495 C 0.74675 0.8711 0.93616 0.0
C496 C 0.75413 0.8485 0.92034 0.0
C497 C 0.7578 0.85931 0.95397 0.0
C498 C 0.77677 0.82501 0.95617 0.0
C499 C 0.78463 0.8026 0.94039 0.0
C500 C 0.77304 0.81407 0.9226 0.0
C501 C 0.78837 0.81254 0.975 0.0
C502 C 0.82753 0.81224 0.97921 0.0
C503 C 0.76105 0.80285 0.98898 0.0
C504 C 0.71926 0.80291 0.98525 0.0
C505 C 0.7028 0.78043 0.97071 0.0
C506 C 0.66345 0.78101 0.96717 0.0
C507 C 0.64022 0.80377 0.97815 0.0
C508 C 0.65627 0.82591 -0.00726 0.0
C509 C 0.69562 0.82545 -0.00367 0.0
H510 H 0.60976 0.80418 0.97538 0.0
H511 H 0.99134 0.81204 0.01207 0.0
H512 H 0.04658 0.1643 0.1207 0.0
H513 H 0.00905 0.1035 0.12121 0.0
H514 H 0.10044 0.04785 0.09262 0.0
H515 H 0.13787 0.10833 0.09182 0.0
H516 H 0.03272 0.02529 0.07827 0.0
H517 H 0.08767 0.03694 0.13956 0.0
H518 H 0.10307 0.06858 0.16975 0.0
H519 H 0.98317 0.07198 0.1827 0.0
H520 H 0.96701 0.04085 0.15244 0.0
H521 H 0.96604 0.83198 0.10111 0.0
H522 H 0.00678 0.89121 0.1 0.0
H523 H 0.91202 0.95611 0.11935 0.0
H524 H 0.87116 0.89764 0.12009 0.0
H525 H 0.98369 0.97215 0.13853 0.0
H526 H 0.92962 0.96108 0.07649 0.0
H527 H 0.9153 0.93092 0.04584 0.0
H528 H 0.03568 0.92596 0.03432 0.0
H529 H 0.05075 0.95542 0.06508 0.0
C530 C 0.05866 0.13917 0.11446 0.0
C531 C 0.09542 0.14121 0.10637 0.0
C532 C 0.03724 0.10439 0.11485 0.0
C533 C 0.05219 0.07099 0.1072 0.0
C534 C 0.0884 0.07318 0.09868 0.0
C535 C 0.10983 0.10784 0.09832 0.0
C536 C 0.03031 0.03364 0.10819 0.0
C537 C 0.0225 0.0134 0.09148 0.0
C538 C 0.01653 0.01836 0.1254 0.0
C539 C 0.02612 0.03692 0.14365 0.0
C540 C 0.06457 0.04471 0.14878 0.0
C541 C 0.07344 0.06251 0.16592 0.0
C542 C 0.04411 0.07238 0.17811 0.0
C543 C 0.00585 0.06437 0.17322 0.0
C544 C 0.99682 0.04663 0.15609 0.0
C545 C 0.95406 0.85888 0.1052 0.0
C546 C 0.91543 0.86024 0.11061 0.0
C547 C 0.97724 0.89263 0.10449 0.0
C548 C 0.96226 0.92796 0.10953 0.0
C549 C 0.92405 0.92913 0.11539 0.0
C550 C 0.90075 0.89571 0.11573 0.0
C551 C 0.98608 0.964 0.10862 0.0
C552 C 0.99421 0.98397 0.12535 0.0
C553 C 1.00036 0.97886 0.09145 0.0
C554 C 0.99132 0.95999 0.07322 0.0
C555 C 0.95306 0.95303 0.06756 0.0
C556 C 0.9448 0.9362 0.05013 0.0
C557 C 0.97457 0.92656 0.03814 0.0
C558 C 0.01265 0.93345 0.04362 0.0
C559 C 0.02107 0.95018 0.06106 0.0
H560 H 0.96813 0.91389 0.02458 0.0
H561 H 0.05104 0.08617 0.19137 0.0
H562 H 0.16881 0.48258 0.35104 0.0
H563 H 0.10712 0.5132 0.34782 0.0
H564 H 0.04778 0.40709 0.36319 0.0
H565 H 0.10892 0.37649 0.36657 0.0
H566 H 0.03834 0.49841 0.32715 0.0
H567 H 0.98023 0.42886 0.39514 0.0
H568 H 0.00468 0.4018 0.42453 0.0
H569 H 0.10619 0.47514 0.4206 0.0
H570 H 0.08208 0.50299 0.39136 0.0
H571 H 0.8354 0.52772 0.3443 0.0
H572 H 0.89739 0.49766 0.34011 0.0
H573 H 0.95068 0.58103 0.37763 0.0
H574 H 0.8896 0.61144 0.3816 0.0
H575 H 0.96366 0.50251 0.38631 0.0
H576 H 0.97049 0.59286 0.33566 0.0
H577 H 0.94753 0.62366 0.30694 0.0
H578 H 0.95165 0.51664 0.27729 0.0
H579 H 0.97404 0.48503 0.30596 0.0
C580 C 0.14258 0.46569 0.3535 0.0
C581 C 0.14373 0.42729 0.35931 0.0
C582 C 0.10739 0.48315 0.35155 0.0
C583 C 0.07297 0.46248 0.35545 0.0
C584 C 0.07405 0.42362 0.36029 0.0
C585 C 0.10907 0.40623 0.36225 0.0
C586 C 0.03622 0.48218 0.35628 0.0
C587 C 0.02191 0.49921 0.34004 0.0
C588 C 0.01508 0.48365 0.37318 0.0
C589 C 0.0295 0.46769 0.39097 0.0
C590 C 0.00768 0.43931 0.40061 0.0
C591 C 0.02149 0.42382 0.41723 0.0
C592 C 0.05702 0.43665 0.4244 0.0
C593 C 0.07874 0.46513 0.415 0.0
C594 C 0.06503 0.48074 0.39839 0.0
C595 C 0.86043 0.53966 0.35155 0.0
C596 C 0.85767 0.57184 0.3633 0.0
C597 C 0.89574 0.52262 0.34909 0.0
C598 C 0.92847 0.53724 0.35857 0.0
C599 C 0.92571 0.56939 0.37021 0.0
C600 C 0.89077 0.58673 0.37242 0.0
C601 C 0.96545 0.51829 0.35715 0.0
C602 C 0.97986 0.50139 0.37335 0.0
C603 C 0.98677 0.51752 0.3403 0.0
C604 C 0.97348 0.53646 0.32303 0.0
C605 C 0.96611 0.57578 0.32307 0.0
C606 C 0.95328 0.59342 0.30679 0.0
C607 C 0.94801 0.5721 0.29031 0.0
C608 C 0.95567 0.53311 0.29008 0.0
C609 C 0.96845 0.51532 0.30634 0.0
H610 H 0.93808 0.58581 0.27772 0.0
H611 H 0.06769 0.42459 0.43725 0.0
H612 H 0.36904 0.39601 0.62538 0.0
H613 H 0.40829 0.45551 0.62586 0.0
H614 H 0.49586 0.40074 0.59392 0.0
H615 H 0.45746 0.34022 0.5946 0.0
H616 H 0.52889 0.44459 0.61802 0.0
H617 H 0.42698 0.46463 0.57417 0.0
H618 H 0.35969 0.46605 0.56374 0.0
H619 H 0.33686 0.54948 0.60623 0.0
H620 H 0.4039 0.54821 0.61707 0.0
H621 H 0.62604 0.61562 0.58873 0.0
H622 H 0.5873 0.55593 0.58911 0.0
H623 H 0.50599 0.60753 0.62596 0.0
H624 H 0.54426 0.66795 0.62531 0.0
H625 H 0.47014 0.56573 0.59931 0.0
H626 H 0.57379 0.54553 0.64249 0.0
H627 H 0.64167 0.54406 0.65195 0.0
H628 H 0.66191 0.46075 0.60904 0.0
H629 H 0.59426 0.46209 0.59917 0.0
C630 C 0.39675 0.39671 0.61852 0.0
C631 C 0.41018 0.36375 0.6098 0.0
C632 C 0.41907 0.43081 0.61867 0.0
C633 C 0.45462 0.43312 0.60943 0.0
C634 C 0.46844 0.39985 0.60105 0.0
C635 C 0.44655 0.36531 0.6014 0.0
C636 C 0.47726 0.47019 0.60852 0.0
C637 C 0.51611 0.47093 0.61366 0.0
C638 C 0.46056 0.50491 0.6032 0.0
C639 C 0.42038 0.5061 0.59651 0.0
C640 C 0.40756 0.48315 0.58134 0.0
C641 C 0.36947 0.48394 0.57535 0.0
C642 C 0.344 0.50779 0.58434 0.0
C643 C 0.35661 0.531 0.59929 0.0
C644 C 0.39466 0.5303 0.60534 0.0
C645 C 0.5999 0.61439 0.59693 0.0
C646 C 0.58843 0.64653 0.60714 0.0
C647 C 0.57785 0.58012 0.59718 0.0
C648 C 0.54416 0.57697 0.60788 0.0
C649 C 0.53203 0.60926 0.61769 0.0
C650 C 0.55393 0.64376 0.61731 0.0
C651 C 0.52161 0.53998 0.60878 0.0
C652 C 0.48283 0.53931 0.60364 0.0
C653 C 0.53846 0.5053 0.61391 0.0
C654 C 0.57903 0.50414 0.62 0.0
C655 C 0.59277 0.52707 0.635 0.0
C656 C 0.6312 0.52623 0.64045 0.0
C657 C 0.65611 0.50239 0.63107 0.0
C658 C 0.6426 0.47923 0.61628 0.0
C659 C 0.60421 0.47997 0.61077 0.0
H660 H 0.68585 0.50181 0.6353 0.0
H661 H 0.31452 0.50832 0.5797 0.0
H662 H 0.608 0.87773 0.86403 0.0
H663 H 0.54778 0.90912 0.8588 0.0
H664 H 0.61009 0.01655 0.8491 0.0
H665 H 0.67077 0.9852 0.85432 0.0
H666 H 0.55207 0.02201 0.87506 0.0
H667 H 0.56673 0.97141 0.81316 0.0
H668 H 0.57802 0.92138 0.78956 0.0
H669 H 0.47744 0.85744 0.80815 0.0
H670 H 0.46585 0.90682 0.83207 0.0
H671 H 0.38796 0.12256 0.85503 0.0
H672 H 0.44979 0.09368 0.85075 0.0
H673 H 0.39485 0.98088 0.85451 0.0
H674 H 0.3324 0.00984 0.85803 0.0
H675 H 0.45098 0.98032 0.82959 0.0
H676 H 0.43923 0.02555 0.89296 0.0
H677 H 0.42768 0.07303 0.91779 0.0
H678 H 0.52259 0.14385 0.89791 0.0
H679 H 0.53439 0.09699 0.87279 0.0
C680 C 0.60898 0.90796 0.8606 0.0
C681 C 0.64411 0.92906 0.85966 0.0
C682 C 0.57452 0.9258 0.8575 0.0
C683 C 0.57449 0.96508 0.85343 0.0
C684 C 0.60955 0.98615 0.85217 0.0
C685 C 0.64414 0.96822 0.85512 0.0
C686 C 0.53769 0.98451 0.85187 0.0
C687 C 0.53025 0.01347 0.86487 0.0
C688 C 0.50883 0.97238 0.83897 0.0
C689 C 0.5156 0.94271 0.82452 0.0
C690 C 0.54718 0.94654 0.81232 0.0
C691 C 0.55361 0.91832 0.79887 0.0
C692 C 0.52851 0.88621 0.79738 0.0
C693 C 0.49688 0.88231 0.80933 0.0
C694 C 0.49034 0.91044 0.82282 0.0
C695 C 0.38899 0.09159 0.85474 0.0
C696 C 0.35549 0.0684 0.8571 0.0
C697 C 0.42437 0.07511 0.85235 0.0
C698 C 0.42714 0.03511 0.8528 0.0
C699 C 0.39344 0.01182 0.85423 0.0
C700 C 0.35781 0.02835 0.85628 0.0
C701 C 0.46532 0.01783 0.85283 0.0
C702 C 0.47296 0.98918 0.83964 0.0
C703 C 0.49433 0.02986 0.86572 0.0
C704 C 0.48744 0.05796 0.88089 0.0
C705 C 0.45747 0.05137 0.89381 0.0
C706 C 0.4509 0.07815 0.90794 0.0
C707 C 0.47432 0.11148 0.90939 0.0
C708 C 0.50443 0.11805 0.89675 0.0
C709 C 0.51109 0.09138 0.88257 0.0
H710 H 0.46919 0.13219 0.92034 0.0
H711 H 0.53354 0.86439 0.78695 0.0
H712 H 0.98386 0.66609 0.13099 0.0
H713 H 0.01198 0.60323 0.13444 0.0
H714 H 0.90108 0.54759 0.12481 0.0
H715 H 0.87297 0.60996 0.12112 0.0
H716 H 0.99872 0.5378 0.15699 0.0
H717 H 0.91364 0.47368 0.09482 0.0
H718 H 0.87968 0.49501 0.06659 0.0
H719 H 0.95502 0.59523 0.06343 0.0
H720 H 0.98971 0.57422 0.09148 0.0
H721 H 0.02726 0.33265 0.14038 0.0
H722 H 0.99507 0.39347 0.14501 0.0
H723 H 0.07334 0.44918 0.10598 0.0
H724 H 0.10599 0.38937 0.10165 0.0
H725 H 0.99003 0.4573 0.09951 0.0
H726 H 0.0908 0.47028 0.14618 0.0
H727 H 0.1264 0.44953 0.17397 0.0
H728 H 0.02404 0.4531 0.20719 0.0
H729 H 0.98767 0.47328 0.17949 0.0
C730 C 0.96542 0.64046 0.12986 0.0
C731 C 0.92635 0.64293 0.1255 0.0
C732 C 0.98146 0.6046 0.13193 0.0
C733 C 0.95866 0.5708 0.12965 0.0
C734 C 0.91924 0.57333 0.1264 0.0
C735 C 0.90327 0.60903 0.12425 0.0
C736 C 0.97656 0.53308 0.12883 0.0
C737 C 0.99666 0.52009 0.14448 0.0
C738 C 0.97398 0.51004 0.11247 0.0
C739 C 0.95398 0.52255 0.09533 0.0
C740 C 0.92305 0.50017 0.08803 0.0
C741 C 0.90366 0.51222 0.07208 0.0
C742 C 0.91511 0.54651 0.06326 0.0
C743 C 0.9461 0.56874 0.07032 0.0
C744 C 0.96561 0.55679 0.08624 0.0
C745 C 0.03761 0.35797 0.13289 0.0
C746 C 0.06909 0.35633 0.12066 0.0
C747 C 0.01934 0.39259 0.13558 0.0
C748 C 0.03197 0.42563 0.12582 0.0
C749 C 0.06327 0.42393 0.11363 0.0
C750 C 0.08192 0.38975 0.11122 0.0
C751 C 0.01206 0.46198 0.12765 0.0
C752 C 0.9916 0.47474 0.11213 0.0
C753 C 0.01457 0.48476 0.14406 0.0
C754 C 0.03641 0.47277 0.16071 0.0
C755 C 0.07578 0.46622 0.15936 0.0
C756 C 0.09613 0.45466 0.17511 0.0
C757 C 0.07746 0.44986 0.19232 0.0
C758 C 0.03844 0.45674 0.19384 0.0
C759 C 0.01795 0.46825 0.17812 0.0
H760 H 0.09326 0.44092 0.2045 0.0
H761 H 0.90003 0.55583 0.05094 0.0
H762 H 0.39598 0.36504 0.35996 0.0
H763 H 0.45504 0.40477 0.35933 0.0
H764 H 0.39427 0.50044 0.38117 0.0
H765 H 0.33439 0.46106 0.38087 0.0
H766 H 0.44246 0.52541 0.35626 0.0
H767 H 0.45346 0.44211 0.40927 0.0
H768 H 0.45283 0.38012 0.42582 0.0
H769 H 0.54457 0.34322 0.39093 0.0
H770 H 0.54543 0.40482 0.37402 0.0
H771 H 0.60552 0.63429 0.38742 0.0
H772 H 0.54641 0.59488 0.38604 0.0
H773 H 0.60644 0.50458 0.35886 0.0
H774 H 0.66626 0.54374 0.36043 0.0
H775 H 0.55923 0.47697 0.38616 0.0
H776 H 0.54827 0.56276 0.33382 0.0
H777 H 0.54871 0.62595 0.31841 0.0
H778 H 0.45637 0.65965 0.35377 0.0
H779 H 0.4557 0.59683 0.36956 0.0
C780 C 0.39518 0.39459 0.36459 0.0
C781 C 0.36068 0.4099 0.37064 0.0
C782 C 0.42904 0.41723 0.36434 0.0
C783 C 0.42946 0.45535 0.3707 0.0
C784 C 0.39478 0.47103 0.3763 0.0
C785 C 0.3606 0.44856 0.37615 0.0
C786 C 0.46607 0.4787 0.37151 0.0
C787 C 0.4678 0.51499 0.36304 0.0
C788 C 0.49953 0.46489 0.38001 0.0
C789 C 0.49928 0.42796 0.39028 0.0
C790 C 0.47335 0.42069 0.40506 0.0
C791 C 0.47297 0.38563 0.41452 0.0
C792 C 0.49858 0.35772 0.4094 0.0
C793 C 0.52472 0.36486 0.39486 0.0
C794 C 0.5252 0.39985 0.38536 0.0
C795 C 0.60631 0.6061 0.38108 0.0
C796 C 0.64071 0.59233 0.3739 0.0
C797 C 0.57235 0.58365 0.38025 0.0
C798 C 0.57184 0.54706 0.37205 0.0
C799 C 0.60617 0.53285 0.36516 0.0
C800 C 0.64032 0.55529 0.36605 0.0
C801 C 0.53548 0.52356 0.37094 0.0
C802 C 0.53383 0.48728 0.37938 0.0
C803 C 0.50203 0.53755 0.3626 0.0
C804 C 0.50215 0.57519 0.35297 0.0
C805 C 0.52822 0.58373 0.33839 0.0
C806 C 0.52849 0.61947 0.32958 0.0
C807 C 0.50264 0.64682 0.33513 0.0
C808 C 0.47639 0.63845 0.34948 0.0
C809 C 0.47603 0.60276 0.35835 0.0
H810 H 0.50291 0.67448 0.3283 0.0
H811 H 0.49823 0.3306 0.41673 0.0
H812 H 0.376 0.11339 0.62288 0.0
H813 H 0.40655 0.0527 0.62806 0.0
H814 H 0.5148 0.11365 0.63775 0.0
H815 H 0.48435 0.17472 0.63246 0.0
H816 H 0.51965 0.05818 0.61119 0.0
H817 H 0.47117 0.06286 0.67498 0.0
H818 H 0.42219 0.06905 0.69964 0.0
H819 H 0.35357 0.97787 0.67449 0.0
H820 H 0.40261 0.97038 0.64997 0.0
H821 H 0.62244 0.89418 0.6282 0.0
H822 H 0.5925 0.95537 0.63302 0.0
H823 H 0.48061 0.89846 0.62913 0.0
H824 H 0.51067 0.83668 0.62516 0.0
H825 H 0.47855 0.95288 0.65423 0.0
H826 H 0.52392 0.94637 0.59107 0.0
H827 H 0.57105 0.9372 0.56586 0.0
H828 H 0.64081 0.03187 0.58709 0.0
H829 H 0.59432 0.04128 0.61259 0.0
C830 C 0.40621 0.11397 0.62638 0.0
C831 C 0.42787 0.14883 0.6271 0.0
C832 C 0.42357 0.07922 0.6295 0.0
C833 C 0.46291 0.07862 0.63342 0.0
C834 C 0.48435 0.11349 0.6348 0.0
C835 C 0.46694 0.14834 0.63177 0.0
C836 C 0.48226 0.04159 0.63403 0.0
C837 C 0.51125 0.03544 0.62088 0.0
C838 C 0.47015 0.01136 0.6461 0.0
C839 C 0.44035 0.01631 0.66058 0.0
C840 C 0.4455 0.04432 0.67465 0.0
C841 C 0.4178 0.048 0.68862 0.0
C842 C 0.3846 0.02423 0.68851 0.0
C843 C 0.37923 0.99637 0.67454 0.0
C844 C 0.40709 0.9922 0.66068 0.0
C845 C 0.59145 0.89466 0.62856 0.0
C846 C 0.56883 0.86081 0.62609 0.0
C847 C 0.57435 0.92968 0.63123 0.0
C848 C 0.53428 0.93174 0.63093 0.0
C849 C 0.51159 0.89765 0.6293 0.0
C850 C 0.52875 0.86239 0.627 0.0
C851 C 0.51625 0.96958 0.63149 0.0
C852 C 0.48732 0.97577 0.6447 0.0
C853 C 0.52791 0.99973 0.61922 0.0
C854 C 0.55584 0.99428 0.60384 0.0
C855 C 0.54945 0.96506 0.59043 0.0
C856 C 0.57602 0.95985 0.57609 0.0
C857 C 0.60895 0.98387 0.57491 0.0
C858 C 0.61532 0.01324 0.58804 0.0
C859 C 0.58885 0.01855 0.60243 0.0
H860 H 0.6295 0.97979 0.56379 0.0
H861 H 0.36315 0.02726 0.6993 0.0
H862 H 0.89693 0.85852 0.8752 0.0
H863 H 0.95619 0.89771 0.87446 0.0
H864 H 0.89135 1.00024 0.87334 0.0
H865 H 0.83152 0.961 0.87357 0.0
H866 H 0.94889 0.00636 0.84942 0.0
H867 H 0.9362 0.9701 0.91378 0.0
H868 H 0.92655 0.92572 0.94037 0.0
H869 H 0.02859 0.86846 0.92523 0.0
H870 H 0.03856 0.91216 0.89837 0.0
H871 H 0.10161 0.1359 0.87489 0.0
H872 H 0.04264 0.09614 0.8749 0.0
H873 H 0.10804 0.99457 0.86962 0.0
H874 H 0.16766 0.03424 0.86966 0.0
H875 H 0.05066 0.98812 0.89677 0.0
H876 H 0.06272 0.02666 0.83228 0.0
H877 H 0.07175 0.07309 0.8065 0.0
H878 H 0.96974 0.12873 0.82317 0.0
H879 H 0.96039 0.08296 0.84923 0.0
C880 C 0.89512 0.88942 0.87485 0.0
C881 C 0.85937 0.90662 0.87457 0.0
C882 C 0.92913 0.91181 0.8745 0.0
C883 C 0.92828 0.95196 0.87419 0.0
C884 C 0.8927 0.9693 0.87365 0.0
C885 C 0.85853 0.94684 0.87381 0.0
C886 C 0.96462 0.97566 0.87424 0.0
C887 C 0.97089 0.00274 0.85994 0.0
C888 C 0.99371 0.97041 0.88775 0.0
C889 C 0.98792 0.9442 0.90395 0.0
C890 C 0.95643 0.94787 0.91604 0.0
C891 C 0.95093 0.92286 0.93117 0.0
C892 C 0.97689 0.89423 0.93446 0.0
C893 C 0.00847 0.89062 0.92265 0.0
C894 C 0.01409 0.91553 0.90748 0.0
C895 C 0.10366 0.10511 0.8737 0.0
C896 C 0.13951 0.0883 0.87221 0.0
C897 C 0.06981 0.08245 0.87365 0.0
C898 C 0.07097 0.04248 0.87207 0.0
C899 C 0.10659 0.02543 0.87079 0.0
C900 C 0.1406 0.04815 0.87075 0.0
C901 C 0.03483 0.01865 0.87196 0.0
C902 C 0.02862 0.99162 0.88626 0.0
C903 C 0.00566 0.02421 0.85858 0.0
C904 C 0.01105 0.05157 0.84281 0.0
C905 C 0.04237 0.04897 0.83053 0.0
C906 C 0.04752 0.07514 0.81585 0.0
C907 C 0.02139 0.1039 0.81322 0.0
C908 C 0.98998 0.10647 0.82523 0.0
C909 C 0.98472 0.08039 0.83995 0.0
H910 H 0.02543 0.12414 0.80185 0.0
H911 H 0.97257 0.87489 0.94618 0.0
loop_
_geom_bond_atom_site_label_1
_geom_bond_atom_site_label_2
_geom_bond_distance
_geom_bond_site_symmetry_2
_ccdc_geom_bond_type
Co0 O1 2.216 . S
Co0 O2 2.091 . S
Co0 O4 2.004 . S
Co0 O10 2.021 . S
Co0 O12 2.137 . S
Co0 O13 2.244 . S
O1 Co0 2.216 . S
O1 C8 1.247 . S
O2 Co0 2.091 . S
O2 C8 1.261 . S
C3 O12 1.247 . S
C3 O13 1.272 . S
O4 Co0 2.004 . S
O4 C9 1.259 . S
Co5 O6 2.061 . S
Co5 O11 2.052 . S
Co5 O13 2.135 . S
O6 Co5 2.061 . S
O6 C9 1.235 . S
C7 O10 1.238 . S
C7 O11 1.241 . S
C8 O1 1.247 . S
C8 O2 1.261 . S
C9 O4 1.259 . S
C9 O6 1.235 . S
O10 Co0 2.021 . S
O10 C7 1.238 . S
O11 Co5 2.052 . S
O11 C7 1.241 . S
O12 Co0 2.137 . S
O12 C3 1.247 . S
O13 Co0 2.244 . S
O13 C3 1.272 . S
O13 Co5 2.135 . S
Co14 O15 2.216 . S
Co14 O16 2.091 . S
Co14 O18 2.004 . S
Co14 O24 2.021 . S
Co14 O26 2.137 . S
Co14 O27 2.244 . S
O15 Co14 2.216 . S
O15 C22 1.247 . S
O16 Co14 2.091 . S
O16 C22 1.261 . S
C17 O26 1.247 . S
C17 O27 1.272 . S
O18 Co14 2.004 . S
O18 C23 1.259 . S
Co19 O20 2.061 . S
Co19 O25 2.052 . S
Co19 O27 2.135 . S
O20 Co19 2.061 . S
O20 C23 1.235 . S
C21 O24 1.238 . S
C21 O25 1.241 . S
C22 O15 1.247 . S
C22 O16 1.261 . S
C23 O18 1.259 . S
C23 O20 1.235 . S
O24 Co14 2.021 . S
O24 C21 1.238 . S
O25 Co19 2.052 . S
O25 C21 1.241 . S
O26 Co14 2.137 . S
O26 C17 1.247 . S
O27 Co14 2.244 . S
O27 C17 1.272 . S
O27 Co19 2.135 . S
Co28 O29 2.216 . S
Co28 O30 2.091 . S
Co28 O32 2.004 . S
Co28 O38 2.021 . S
Co28 O40 2.137 . S
Co28 O41 2.244 . S
O29 Co28 2.216 . S
O29 C36 1.247 . S
O30 Co28 2.091 . S
O30 C36 1.261 . S
C31 O40 1.247 . S
C31 O41 1.272 . S
O32 Co28 2.004 . S
O32 C37 1.259 . S
Co33 O34 2.061 . S
Co33 O39 2.052 . S
Co33 O41 2.135 . S
O34 Co33 2.061 . S
O34 C37 1.235 . S
C35 O38 1.238 . S
C35 O39 1.241 . S
C36 O29 1.247 . S
C36 O30 1.261 . S
C37 O32 1.259 . S
C37 O34 1.235 . S
O38 Co28 2.021 . S
O38 C35 1.238 . S
O39 Co33 2.052 . S
O39 C35 1.241 . S
O40 Co28 2.137 . S
O40 C31 1.247 . S
O41 Co28 2.244 . S
O41 C31 1.272 . S
O41 Co33 2.135 . S
Co42 O43 2.216 . S
Co42 O44 2.091 . S
Co42 O46 2.004 . S
Co42 O52 2.021 . S
Co42 O54 2.137 . S
Co42 O55 2.244 . S
O43 Co42 2.216 . S
O43 C50 1.247 . S
O44 Co42 2.091 . S
O44 C50 1.261 . S
C45 O54 1.247 . S
C45 O55 1.272 . S
O46 Co42 2.004 . S
O46 C51 1.259 . S
Co47 O48 2.061 . S
Co47 O53 2.052 . S
Co47 O55 2.135 . S
O48 Co47 2.061 . S
O48 C51 1.235 . S
C49 O52 1.238 . S
C49 O53 1.241 . S
C50 O43 1.247 . S
C50 O44 1.261 . S
C51 O46 1.259 . S
C51 O48 1.235 . S
O52 Co42 2.021 . S
O52 C49 1.238 . S
O53 Co47 2.052 . S
O53 C49 1.241 . S
O54 Co42 2.137 . S
O54 C45 1.247 . S
O55 Co42 2.244 . S
O55 C45 1.272 . S
O55 Co47 2.135 . S
Co56 O57 2.216 . S
Co56 O58 2.091 . S
Co56 O60 2.004 . S
Co56 O66 2.021 . S
Co56 O68 2.137 . S
Co56 O69 2.244 . S
O57 Co56 2.216 . S
O57 C64 1.247 . S
O58 Co56 2.091 . S
O58 C64 1.261 . S
C59 O68 1.247 . S
C59 O69 1.272 . S
O60 Co56 2.004 . S
O60 C65 1.259 . S
Co61 O62 2.061 . S
Co61 O67 2.052 . S
Co61 O69 2.135 . S
O62 Co61 2.061 . S
O62 C65 1.235 . S
C63 O66 1.238 . S
C63 O67 1.241 . S
C64 O57 1.247 . S
C64 O58 1.261 . S
C65 O60 1.259 . S
C65 O62 1.235 . S
O66 Co56 2.021 . S
O66 C63 1.238 . S
O67 Co61 2.052 . S
O67 C63 1.241 . S
O68 Co56 2.137 . S
O68 C59 1.247 . S
O69 Co56 2.244 . S
O69 C59 1.272 . S
O69 Co61 2.135 . S
Co70 O71 2.216 . S
Co70 O72 2.091 . S
Co70 O74 2.004 . S
Co70 O80 2.021 . S
Co70 O82 2.137 . S
Co70 O83 2.244 . S
O71 Co70 2.216 . S
O71 C78 1.247 . S
O72 Co70 2.091 . S
O72 C78 1.261 . S
C73 O82 1.247 . S
C73 O83 1.272 . S
O74 Co70 2.004 . S
O74 C79 1.259 . S
Co75 O76 2.061 . S
Co75 O81 2.052 . S
Co75 O83 2.135 . S
O76 Co75 2.061 . S
O76 C79 1.235 . S
C77 O80 1.238 . S
C77 O81 1.241 . S
C78 O71 1.247 . S
C78 O72 1.261 . S
C79 O74 1.259 . S
C79 O76 1.235 . S
O80 Co70 2.021 . S
O80 C77 1.238 . S
O81 Co75 2.052 . S
O81 C77 1.241 . S
O82 Co70 2.137 . S
O82 C73 1.247 . S
O83 Co70 2.244 . S
O83 C73 1.272 . S
O83 Co75 2.135 . S
Co84 O85 2.216 . S
Co84 O86 2.091 . S
Co84 O88 2.004 . S
Co84 O94 2.021 . S
Co84 O96 2.137 . S
Co84 O97 2.244 . S
O85 Co84 2.216 . S
O85 C92 1.247 . S
O86 Co84 2.091 . S
O86 C92 1.261 . S
C87 O96 1.247 . S
C87 O97 1.272 . S
O88 Co84 2.004 . S
O88 C93 1.259 . S
Co89 O90 2.061 . S
Co89 O95 2.052 . S
Co89 O97 2.135 . S
O90 Co89 2.061 . S
O90 C93 1.235 . S
C91 O94 1.238 . S
C91 O95 1.241 . S
C92 O85 1.247 . S
C92 O86 1.261 . S
C93 O88 1.259 . S
C93 O90 1.235 . S
O94 Co84 2.021 . S
O94 C91 1.238 . S
O95 Co89 2.052 . S
O95 C91 1.241 . S
O96 Co84 2.137 . S
O96 C87 1.247 . S
O97 Co84 2.244 . S
O97 C87 1.272 . S
O97 Co89 2.135 . S
Co98 O99 2.216 . S
Co98 O100 2.091 . S
Co98 O102 2.004 . S
Co98 O108 2.021 . S
Co98 O110 2.137 . S
Co98 O111 2.244 . S
O99 Co98 2.216 . S
O99 C106 1.247 . S
O100 Co98 2.091 . S
O100 C106 1.261 . S
C101 O110 1.247 . S
C101 O111 1.272 . S
O102 Co98 2.004 . S
O102 C107 1.259 . S
Co103 O104 2.061 . S
Co103 O109 2.052 . S
Co103 O111 2.135 . S
O104 Co103 2.061 . S
O104 C107 1.235 . S
C105 O108 1.238 . S
C105 O109 1.241 . S
C106 O99 1.247 . S
C106 O100 1.261 . S
C107 O102 1.259 . S
C107 O104 1.235 . S
O108 Co98 2.021 . S
O108 C105 1.238 . S
O109 Co103 2.052 . S
O109 C105 1.241 . S
O110 Co98 2.137 . S
O110 C101 1.247 . S
O111 Co98 2.244 . S
O111 C101 1.272 . S
O111 Co103 2.135 . S
H112 C130 0.951 . S
H113 C132 0.951 . S
H114 C134 0.950 . S
H115 C135 0.950 . S
H116 C137 0.950 . S
H117 C140 0.950 . S
H118 C141 0.950 . S
H119 C143 0.950 . S
H120 C144 0.950 . S
H121 C145 0.951 . S
H122 C147 0.951 . S
H123 C149 0.950 . S
H124 C150 0.950 . S
H125 C152 0.950 . S
H126 C155 0.950 . S
H127 C156 0.950 . S
H128 C158 0.950 . S
H129 C159 0.950 . S
C130 H112 0.951 . S
C130 C131 1.366 . S
C130 C132 1.388 . S
C131 C130 1.366 . S
C131 C135 1.385 . S
C132 H113 0.951 . S
C132 C130 1.388 . S
C132 C133 1.366 . S
C133 C132 1.366 . S
C133 C134 1.414 . S
C133 C136 1.499 . S
C134 H114 0.950 . S
C134 C133 1.414 . S
C134 C135 1.374 . S
C135 H115 0.950 . S
C135 C131 1.385 . S
C135 C134 1.374 . S
C136 C133 1.499 . S
C136 C137 1.373 . S
C136 C138 1.389 . S
C137 H116 0.950 . S
C137 C136 1.373 . S
C137 C153 1.377 1_554 S
C138 C136 1.389 . S
C138 C139 1.524 . S
C138 C152 1.377 1_554 S
C139 C138 1.524 . S
C139 C140 1.397 . S
C139 C144 1.363 . S
C140 H117 0.950 . S
C140 C139 1.397 . S
C140 C141 1.334 . S
C141 H118 0.950 . S
C141 C140 1.334 . S
C141 C142 1.287 . S
C142 C141 1.287 . S
C142 C143 1.524 . S
C142 H161 0.913 . S
C143 H119 0.950 . S
C143 C142 1.524 . S
C143 C144 1.415 . S
C144 H120 0.950 . S
C144 C139 1.363 . S
C144 C143 1.415 . S
C145 H121 0.951 . S
C145 C146 1.366 . S
C145 C147 1.388 . S
C146 C145 1.366 . S
C146 C150 1.385 . S
C147 H122 0.951 . S
C147 C145 1.388 . S
C147 C148 1.366 . S
C148 C147 1.366 . S
C148 C149 1.414 . S
C148 C151 1.499 . S
C149 H123 0.950 . S
C149 C148 1.414 . S
C149 C150 1.374 . S
C150 H124 0.950 . S
C150 C146 1.385 . S
C150 C149 1.374 . S
C151 C148 1.499 . S
C151 C152 1.373 . S
C151 C153 1.389 . S
C152 H125 0.950 . S
C152 C138 1.377 1_556 S
C152 C151 1.373 . S
C153 C137 1.377 1_556 S
C153 C151 1.389 . S
C153 C154 1.524 . S
C154 C153 1.524 . S
C154 C155 1.397 . S
C154 C159 1.363 . S
C155 H126 0.950 . S
C155 C154 1.397 . S
C155 C156 1.334 . S
C156 H127 0.950 . S
C156 C155 1.334 . S
C156 C157 1.287 . S
C157 C156 1.287 . S
C157 C158 1.524 . S
C157 H160 0.999 . S
C158 H128 0.950 . S
C158 C157 1.524 . S
C158 C159 1.415 . S
C159 H129 0.950 . S
C159 C154 1.363 . S
C159 C158 1.415 . S
H160 C157 0.999 . S
H161 C142 0.913 . S
H162 C180 0.951 . S
H163 C182 0.951 . S
H164 C184 0.950 . S
H165 C185 0.950 . S
H166 C187 0.950 . S
H167 C190 0.950 . S
H168 C191 0.950 . S
H169 C193 0.950 . S
H170 C194 0.950 . S
H171 C195 0.951 . S
H172 C197 0.951 . S
H173 C199 0.950 . S
H174 C200 0.950 . S
H175 C202 0.950 . S
H176 C205 0.950 . S
H177 C206 0.950 . S
H178 C208 0.950 . S
H179 C209 0.950 . S
C180 H162 0.951 . S
C180 C181 1.366 . S
C180 C182 1.388 . S
C181 C180 1.366 . S
C181 C185 1.385 . S
C182 H163 0.951 . S
C182 C180 1.388 . S
C182 C183 1.366 . S
C183 C182 1.366 . S
C183 C184 1.414 . S
C183 C186 1.499 . S
C184 H164 0.950 . S
C184 C183 1.414 . S
C184 C185 1.374 . S
C185 H165 0.950 . S
C185 C181 1.385 . S
C185 C184 1.374 . S
C186 C183 1.499 . S
C186 C187 1.373 . S
C186 C188 1.389 . S
C187 H166 0.950 . S
C187 C186 1.373 . S
C187 C203 1.377 . S
C188 C186 1.389 . S
C188 C189 1.524 . S
C188 C202 1.377 . S
C189 C188 1.524 . S
C189 C190 1.397 . S
C189 C194 1.363 . S
C190 H167 0.950 . S
C190 C189 1.397 . S
C190 C191 1.334 . S
C191 H168 0.950 . S
C191 C190 1.334 . S
C191 C192 1.287 . S
C192 C191 1.287 . S
C192 C193 1.524 . S
C192 H211 0.913 . S
C193 H169 0.950 . S
C193 C192 1.524 . S
C193 C194 1.415 . S
C194 H170 0.950 . S
C194 C189 1.363 . S
C194 C193 1.415 . S
C195 H171 0.951 . S
C195 C196 1.366 . S
C195 C197 1.388 . S
C196 C195 1.366 . S
C196 C200 1.385 . S
C197 H172 0.951 . S
C197 C195 1.388 . S
C197 C198 1.366 . S
C198 C197 1.366 . S
C198 C199 1.414 . S
C198 C201 1.499 . S
C199 H173 0.950 . S
C199 C198 1.414 . S
C199 C200 1.374 . S
C200 H174 0.950 . S
C200 C196 1.385 . S
C200 C199 1.374 . S
C201 C198 1.499 . S
C201 C202 1.373 . S
C201 C203 1.389 . S
C202 H175 0.950 . S
C202 C188 1.377 . S
C202 C201 1.373 . S
C203 C187 1.377 . S
C203 C201 1.389 . S
C203 C204 1.524 . S
C204 C203 1.524 . S
C204 C205 1.397 . S
C204 C209 1.363 . S
C205 H176 0.950 . S
C205 C204 1.397 . S
C205 C206 1.334 . S
C206 H177 0.950 . S
C206 C205 1.334 . S
C206 C207 1.287 . S
C207 C206 1.287 . S
C207 C208 1.524 . S
C207 H210 0.999 . S
C208 H178 0.950 . S
C208 C207 1.524 . S
C208 C209 1.415 . S
C209 H179 0.950 . S
C209 C204 1.363 . S
C209 C208 1.415 . S
H210 C207 0.999 . S
H211 C192 0.913 . S
H212 C230 0.951 . S
H213 C232 0.951 . S
H214 C234 0.950 . S
H215 C235 0.950 . S
H216 C237 0.950 . S
H217 C240 0.950 . S
H218 C241 0.950 . S
H219 C243 0.950 . S
H220 C244 0.950 . S
H221 C245 0.951 . S
H222 C247 0.951 . S
H223 C249 0.950 . S
H224 C250 0.950 . S
H225 C252 0.950 . S
H226 C255 0.950 . S
H227 C256 0.950 . S
H228 C258 0.950 . S
H229 C259 0.950 . S
C230 H212 0.951 . S
C230 C231 1.366 . S
C230 C232 1.388 . S
C231 C230 1.366 . S
C231 C235 1.385 . S
C232 H213 0.951 . S
C232 C230 1.388 . S
C232 C233 1.366 . S
C233 C232 1.366 . S
C233 C234 1.414 . S
C233 C236 1.499 . S
C234 H214 0.950 . S
C234 C233 1.414 . S
C234 C235 1.374 . S
C235 H215 0.950 . S
C235 C231 1.385 . S
C235 C234 1.374 . S
C236 C233 1.499 . S
C236 C237 1.373 . S
C236 C238 1.389 . S
C237 H216 0.950 . S
C237 C236 1.373 . S
C237 C253 1.377 . S
C238 C236 1.389 . S
C238 C239 1.524 . S
C238 C252 1.377 . S
C239 C238 1.524 . S
C239 C240 1.397 . S
C239 C244 1.363 . S
C240 H217 0.950 . S
C240 C239 1.397 . S
C240 C241 1.334 . S
C241 H218 0.950 . S
C241 C240 1.334 . S
C241 C242 1.287 . S
C242 C241 1.287 . S
C242 C243 1.524 . S
C242 H261 0.913 . S
C243 H219 0.950 . S
C243 C242 1.524 . S
C243 C244 1.415 . S
C244 H220 0.950 . S
C244 C239 1.363 . S
C244 C243 1.415 . S
C245 H221 0.951 . S
C245 C246 1.366 . S
C245 C247 1.388 . S
C246 C245 1.366 . S
C246 C250 1.385 . S
C247 H222 0.951 . S
C247 C245 1.388 . S
C247 C248 1.366 . S
C248 C247 1.366 . S
C248 C249 1.414 . S
C248 C251 1.499 . S
C249 H223 0.950 . S
C249 C248 1.414 . S
C249 C250 1.374 . S
C250 H224 0.950 . S
C250 C246 1.385 . S
C250 C249 1.374 . S
C251 C248 1.499 . S
C251 C252 1.373 . S
C251 C253 1.389 . S
C252 H225 0.950 . S
C252 C238 1.377 . S
C252 C251 1.373 . S
C253 C237 1.377 . S
C253 C251 1.389 . S
C253 C254 1.524 . S
C254 C253 1.524 . S
C254 C255 1.397 . S
C254 C259 1.363 . S
C255 H226 0.950 . S
C255 C254 1.397 . S
C255 C256 1.334 . S
C256 H227 0.950 . S
C256 C255 1.334 . S
C256 C257 1.287 . S
C257 C256 1.287 . S
C257 C258 1.524 . S
C257 H260 0.999 . S
C258 H228 0.950 . S
C258 C257 1.524 . S
C258 C259 1.415 . S
C259 H229 0.950 . S
C259 C254 1.363 . S
C259 C258 1.415 . S
H260 C257 0.999 . S
H261 C242 0.913 . S
H262 C280 0.951 . S
H263 C282 0.951 . S
H264 C284 0.950 . S
H265 C285 0.950 . S
H266 C287 0.950 . S
H267 C290 0.950 . S
H268 C291 0.950 . S
H269 C293 0.950 . S
H270 C294 0.950 . S
H271 C295 0.951 . S
H272 C297 0.951 . S
H273 C299 0.950 . S
H274 C300 0.950 . S
H275 C302 0.950 . S
H276 C305 0.950 . S
H277 C306 0.950 . S
H278 C308 0.950 . S
H279 C309 0.950 . S
C280 H262 0.951 . S
C280 C281 1.366 . S
C280 C282 1.388 . S
C281 C280 1.366 . S
C281 C285 1.385 . S
C282 H263 0.951 . S
C282 C280 1.388 . S
C282 C283 1.366 . S
C283 C282 1.366 . S
C283 C284 1.414 . S
C283 C286 1.499 . S
C284 H264 0.950 . S
C284 C283 1.414 . S
C284 C285 1.374 . S
C285 H265 0.950 . S
C285 C281 1.385 . S
C285 C284 1.374 . S
C286 C283 1.499 . S
C286 C287 1.373 . S
C286 C288 1.389 . S
C287 H266 0.950 . S
C287 C286 1.373 . S
C287 C303 1.377 . S
C288 C286 1.389 . S
C288 C289 1.524 . S
C288 C302 1.377 . S
C289 C288 1.524 . S
C289 C290 1.397 . S
C289 C294 1.363 . S
C290 H267 0.950 . S
C290 C289 1.397 . S
C290 C291 1.334 . S
C291 H268 0.950 . S
C291 C290 1.334 . S
C291 C292 1.287 . S
C292 C291 1.287 . S
C292 C293 1.524 . S
C292 H311 0.913 . S
C293 H269 0.950 . S
C293 C292 1.524 . S
C293 C294 1.415 . S
C294 H270 0.950 . S
C294 C289 1.363 . S
C294 C293 1.415 . S
C295 H271 0.951 . S
C295 C296 1.366 . S
C295 C297 1.388 . S
C296 C295 1.366 . S
C296 C300 1.385 . S
C297 H272 0.951 . S
C297 C295 1.388 . S
C297 C298 1.366 . S
C298 C297 1.366 . S
C298 C299 1.414 . S
C298 C301 1.499 . S
C299 H273 0.950 . S
C299 C298 1.414 . S
C299 C300 1.374 . S
C300 H274 0.950 . S
C300 C296 1.385 . S
C300 C299 1.374 . S
C301 C298 1.499 . S
C301 C302 1.373 . S
C301 C303 1.389 . S
C302 H275 0.950 . S
C302 C288 1.377 . S
C302 C301 1.373 . S
C303 C287 1.377 . S
C303 C301 1.389 . S
C303 C304 1.524 . S
C304 C303 1.524 . S
C304 C305 1.397 . S
C304 C309 1.363 . S
C305 H276 0.950 . S
C305 C304 1.397 . S
C305 C306 1.334 . S
C306 H277 0.950 . S
C306 C305 1.334 . S
C306 C307 1.287 . S
C307 C306 1.287 . S
C307 C308 1.524 . S
C307 H310 0.999 . S
C308 H278 0.950 . S
C308 C307 1.524 . S
C308 C309 1.415 . S
C309 H279 0.950 . S
C309 C304 1.363 . S
C309 C308 1.415 . S
H310 C307 0.999 . S
H311 C292 0.913 . S
H312 C330 0.951 . S
H313 C332 0.951 . S
H314 C334 0.950 . S
H315 C335 0.950 . S
H316 C337 0.950 . S
H317 C340 0.950 . S
H318 C341 0.950 . S
H319 C343 0.950 . S
H320 C344 0.950 . S
H321 C345 0.951 . S
H322 C347 0.951 . S
H323 C349 0.950 . S
H324 C350 0.950 . S
H325 C352 0.950 . S
H326 C355 0.950 . S
H327 C356 0.950 . S
H328 C358 0.950 . S
H329 C359 0.950 . S
C330 H312 0.951 . S
C330 C331 1.366 . S
C330 C332 1.388 . S
C331 C330 1.366 . S
C331 C335 1.385 . S
C332 H313 0.951 . S
C332 C330 1.388 . S
C332 C333 1.366 . S
C333 C332 1.366 . S
C333 C334 1.414 . S
C333 C336 1.499 . S
C334 H314 0.950 . S
C334 C333 1.414 . S
C334 C335 1.374 . S
C335 H315 0.950 . S
C335 C331 1.385 . S
C335 C334 1.374 . S
C336 C333 1.499 . S
C336 C337 1.373 . S
C336 C338 1.389 . S
C337 H316 0.950 . S
C337 C336 1.373 . S
C337 C353 1.377 . S
C338 C336 1.389 . S
C338 C339 1.524 . S
C338 C352 1.377 . S
C339 C338 1.524 . S
C339 C340 1.397 . S
C339 C344 1.363 . S
C340 H317 0.950 . S
C340 C339 1.397 . S
C340 C341 1.334 . S
C341 H318 0.950 . S
C341 C340 1.334 . S
C341 C342 1.287 . S
C342 C341 1.287 . S
C342 C343 1.524 . S
C342 H361 0.913 . S
C343 H319 0.950 . S
C343 C342 1.524 . S
C343 C344 1.415 . S
C344 H320 0.950 . S
C344 C339 1.363 . S
C344 C343 1.415 . S
C345 H321 0.951 . S
C345 C346 1.366 . S
C345 C347 1.388 . S
C346 C345 1.366 . S
C346 C350 1.385 . S
C347 H322 0.951 . S
C347 C345 1.388 . S
C347 C348 1.366 . S
C348 C347 1.366 . S
C348 C349 1.414 . S
C348 C351 1.499 . S
C349 H323 0.950 . S
C349 C348 1.414 . S
C349 C350 1.374 . S
C350 H324 0.950 . S
C350 C346 1.385 . S
C350 C349 1.374 . S
C351 C348 1.499 . S
C351 C352 1.373 . S
C351 C353 1.389 . S
C352 H325 0.950 . S
C352 C338 1.377 . S
C352 C351 1.373 . S
C353 C337 1.377 . S
C353 C351 1.389 . S
C353 C354 1.524 . S
C354 C353 1.524 . S
C354 C355 1.397 . S
C354 C359 1.363 . S
C355 H326 0.950 . S
C355 C354 1.397 . S
C355 C356 1.334 . S
C356 H327 0.950 . S
C356 C355 1.334 . S
C356 C357 1.287 . S
C357 C356 1.287 . S
C357 C358 1.524 . S
C357 H360 0.999 . S
C358 H328 0.950 . S
C358 C357 1.524 . S
C358 C359 1.415 . S
C359 H329 0.950 . S
C359 C354 1.363 . S
C359 C358 1.415 . S
H360 C357 0.999 . S
H361 C342 0.913 . S
H362 C380 0.951 . S
H363 C382 0.951 . S
H364 C384 0.950 . S
H365 C385 0.950 . S
H366 C387 0.950 . S
H367 C390 0.950 . S
H368 C391 0.950 . S
H369 C393 0.950 . S
H370 C394 0.950 . S
H371 C395 0.951 . S
H372 C397 0.951 . S
H373 C399 0.950 . S
H374 C400 0.950 . S
H375 C402 0.950 . S
H376 C405 0.950 . S
H377 C406 0.950 . S
H378 C408 0.950 . S
H379 C409 0.950 . S
C380 H362 0.951 . S
C380 C381 1.366 . S
C380 C382 1.388 . S
C381 C380 1.366 . S
C381 C385 1.385 . S
C382 H363 0.951 . S
C382 C380 1.388 . S
C382 C383 1.366 . S
C383 C382 1.366 . S
C383 C384 1.414 . S
C383 C386 1.499 . S
C384 H364 0.950 . S
C384 C383 1.414 . S
C384 C385 1.374 . S
C385 H365 0.950 . S
C385 C381 1.385 . S
C385 C384 1.374 . S
C386 C383 1.499 . S
C386 C387 1.373 . S
C386 C388 1.389 . S
C387 H366 0.950 . S
C387 C386 1.373 . S
C387 C403 1.377 . S
C388 C386 1.389 . S
C388 C389 1.524 . S
C388 C402 1.377 . S
C389 C388 1.524 . S
C389 C390 1.397 . S
C389 C394 1.363 . S
C390 H367 0.950 . S
C390 C389 1.397 . S
C390 C391 1.334 . S
C391 H368 0.950 . S
C391 C390 1.334 . S
C391 C392 1.287 . S
C392 C391 1.287 . S
C392 C393 1.524 . S
C392 H411 0.913 . S
C393 H369 0.950 . S
C393 C392 1.524 . S
C393 C394 1.415 . S
C394 H370 0.950 . S
C394 C389 1.363 . S
C394 C393 1.415 . S
C395 H371 0.951 . S
C395 C396 1.366 . S
C395 C397 1.388 . S
C396 C395 1.366 . S
C396 C400 1.385 . S
C397 H372 0.951 . S
C397 C395 1.388 . S
C397 C398 1.366 . S
C398 C397 1.366 . S
C398 C399 1.414 . S
C398 C401 1.499 . S
C399 H373 0.950 . S
C399 C398 1.414 . S
C399 C400 1.374 . S
C400 H374 0.950 . S
C400 C396 1.385 . S
C400 C399 1.374 . S
C401 C398 1.499 . S
C401 C402 1.373 . S
C401 C403 1.389 . S
C402 H375 0.950 . S
C402 C388 1.377 . S
C402 C401 1.373 . S
C403 C387 1.377 . S
C403 C401 1.389 . S
C403 C404 1.524 . S
C404 C403 1.524 . S
C404 C405 1.397 . S
C404 C409 1.363 . S
C405 H376 0.950 . S
C405 C404 1.397 . S
C405 C406 1.334 . S
C406 H377 0.950 . S
C406 C405 1.334 . S
C406 C407 1.287 . S
C407 C406 1.287 . S
C407 C408 1.524 . S
C407 H410 0.999 . S
C408 H378 0.950 . S
C408 C407 1.524 . S
C408 C409 1.415 . S
C409 H379 0.950 . S
C409 C404 1.363 . S
C409 C408 1.415 . S
H410 C407 0.999 . S
H411 C392 0.913 . S
H412 C430 0.951 . S
H413 C432 0.951 . S
H414 C434 0.950 . S
H415 C435 0.950 . S
H416 C437 0.950 . S
H417 C440 0.950 . S
H418 C441 0.950 . S
H419 C443 0.950 . S
H420 C444 0.950 . S
H421 C445 0.951 . S
H422 C447 0.951 . S
H423 C449 0.950 . S
H424 C450 0.950 . S
H425 C452 0.950 . S
H426 C455 0.950 . S
H427 C456 0.950 . S
H428 C458 0.950 . S
H429 C459 0.950 . S
C430 H412 0.951 . S
C430 C431 1.366 . S
C430 C432 1.388 . S
C431 C430 1.366 . S
C431 C435 1.385 . S
C432 H413 0.951 . S
C432 C430 1.388 . S
C432 C433 1.366 . S
C433 C432 1.366 . S
C433 C434 1.414 . S
C433 C436 1.499 . S
C434 H414 0.950 . S
C434 C433 1.414 . S
C434 C435 1.374 . S
C435 H415 0.950 . S
C435 C431 1.385 . S
C435 C434 1.374 . S
C436 C433 1.499 . S
C436 C437 1.373 . S
C436 C438 1.389 . S
C437 H416 0.950 . S
C437 C436 1.373 . S
C437 C453 1.377 . S
C438 C436 1.389 . S
C438 C439 1.524 . S
C438 C452 1.377 . S
C439 C438 1.524 . S
C439 C440 1.397 . S
C439 C444 1.363 . S
C440 H417 0.950 . S
C440 C439 1.397 . S
C440 C441 1.334 . S
C441 H418 0.950 . S
C441 C440 1.334 . S
C441 C442 1.287 . S
C442 C441 1.287 . S
C442 C443 1.524 . S
C442 H461 0.913 . S
C443 H419 0.950 . S
C443 C442 1.524 . S
C443 C444 1.415 . S
C444 H420 0.950 . S
C444 C439 1.363 . S
C444 C443 1.415 . S
C445 H421 0.951 . S
C445 C446 1.366 . S
C445 C447 1.388 . S
C446 C445 1.366 . S
C446 C450 1.385 . S
C447 H422 0.951 . S
C447 C445 1.388 . S
C447 C448 1.366 . S
C448 C447 1.366 . S
C448 C449 1.414 . S
C448 C451 1.499 . S
C449 H423 0.950 . S
C449 C448 1.414 . S
C449 C450 1.374 . S
C450 H424 0.950 . S
C450 C446 1.385 . S
C450 C449 1.374 . S
C451 C448 1.499 . S
C451 C452 1.373 . S
C451 C453 1.389 . S
C452 H425 0.950 . S
C452 C438 1.377 . S
C452 C451 1.373 . S
C453 C437 1.377 . S
C453 C451 1.389 . S
C453 C454 1.524 . S
C454 C453 1.524 . S
C454 C455 1.397 . S
C454 C459 1.363 . S
C455 H426 0.950 . S
C455 C454 1.397 . S
C455 C456 1.334 . S
C456 H427 0.950 . S
C456 C455 1.334 . S
C456 C457 1.287 . S
C457 C456 1.287 . S
C457 C458 1.524 . S
C457 H460 0.999 . S
C458 H428 0.950 . S
C458 C457 1.524 . S
C458 C459 1.415 . S
C459 H429 0.950 . S
C459 C454 1.363 . S
C459 C458 1.415 . S
H460 C457 0.999 . S
H461 C442 0.913 . S
H462 C480 0.951 . S
H463 C482 0.951 . S
H464 C484 0.950 . S
H465 C485 0.950 . S
H466 C487 0.950 . S
H467 C490 0.950 . S
H468 C491 0.950 . S
H469 C493 0.950 1_556 S
H470 C494 0.962 . S
H471 C495 0.951 . S
H472 C497 0.951 . S
H473 C499 0.950 . S
H474 C500 0.950 . S
H475 C502 0.950 . S
H476 C505 0.950 . S
H477 C506 0.950 . S
H478 C508 0.950 1_554 S
H479 C509 0.962 . S
C480 H462 0.951 . S
C480 C481 1.366 . S
C480 C482 1.388 . S
C481 C480 1.366 . S
C481 C485 1.385 . S
C482 H463 0.951 . S
C482 C480 1.388 . S
C482 C483 1.366 . S
C483 C482 1.366 . S
C483 C484 1.414 . S
C483 C486 1.499 . S
C484 H464 0.950 . S
C484 C483 1.414 . S
C484 C485 1.374 . S
C485 H465 0.950 . S
C485 C481 1.385 . S
C485 C484 1.374 . S
C486 C483 1.499 . S
C486 C487 1.373 . S
C486 C488 1.389 . S
C487 H466 0.950 . S
C487 C486 1.373 . S
C487 C503 1.377 1_554 S
C488 C486 1.389 . S
C488 C489 1.524 . S
C488 C502 1.377 1_554 S
C489 C488 1.524 . S
C489 C490 1.397 . S
C489 C494 1.355 1_554 S
C490 H467 0.950 . S
C490 C489 1.397 . S
C490 C491 1.334 . S
C491 H468 0.950 . S
C491 C490 1.334 . S
C491 C492 1.287 . S
C492 C491 1.287 . S
C492 C493 1.524 . S
C492 H511 0.913 . S
C493 H469 0.950 1_554 S
C493 C492 1.524 . S
C493 C494 1.412 1_554 S
C494 H470 0.962 . S
C494 C489 1.355 1_556 S
C494 C493 1.412 1_556 S
C495 H471 0.951 . S
C495 C496 1.366 . S
C495 C497 1.388 . S
C496 C495 1.366 . S
C496 C500 1.385 . S
C497 H472 0.951 . S
C497 C495 1.388 . S
C497 C498 1.366 . S
C498 C497 1.366 . S
C498 C499 1.414 . S
C498 C501 1.499 . S
C499 H473 0.950 . S
C499 C498 1.414 . S
C499 C500 1.374 . S
C500 H474 0.950 . S
C500 C496 1.385 . S
C500 C499 1.374 . S
C501 C498 1.499 . S
C501 C502 1.373 . S
C501 C503 1.389 . S
C502 H475 0.950 . S
C502 C488 1.377 1_556 S
C502 C501 1.373 . S
C503 C487 1.377 1_556 S
C503 C501 1.389 . S
C503 C504 1.524 . S
C504 C503 1.524 . S
C504 C505 1.397 . S
C504 C509 1.355 1_556 S
C505 H476 0.950 . S
C505 C504 1.397 . S
C505 C506 1.334 . S
C506 H477 0.950 . S
C506 C505 1.334 . S
C506 C507 1.287 . S
C507 C506 1.287 . S
C507 C508 1.524 . S
C507 H510 0.999 . S
C508 H478 0.950 1_556 S
C508 C507 1.524 . S
C508 C509 1.412 1_556 S
C509 H479 0.962 . S
C509 C504 1.355 1_554 S
C509 C508 1.412 1_554 S
H510 C507 0.999 . S
H511 C492 0.913 . S
H512 C530 0.951 . S
H513 C532 0.951 . S
H514 C534 0.950 . S
H515 C535 0.950 . S
H516 C537 0.950 . S
H517 C540 0.950 . S
H518 C541 0.950 . S
H519 C543 0.950 . S
H520 C544 0.950 1_655 S
H521 C545 0.951 . S
H522 C547 0.951 . S
H523 C549 0.950 . S
H524 C550 0.950 . S
H525 C552 0.950 . S
H526 C555 0.950 . S
H527 C556 0.950 . S
H528 C558 0.950 . S
H529 C559 0.950 1_455 S
C530 H512 0.951 . S
C530 C531 1.366 . S
C530 C532 1.388 . S
C531 C530 1.366 . S
C531 C535 1.385 . S
C532 H513 0.951 . S
C532 C530 1.388 . S
C532 C533 1.366 . S
C533 C532 1.366 . S
C533 C534 1.414 . S
C533 C536 1.499 . S
C534 H514 0.950 . S
C534 C533 1.414 . S
C534 C535 1.374 . S
C535 H515 0.950 . S
C535 C531 1.385 . S
C535 C534 1.374 . S
C536 C533 1.499 . S
C536 C537 1.373 . S
C536 C538 1.389 . S
C537 H516 0.950 . S
C537 C536 1.373 . S
C537 C553 1.377 1_445 S
C538 C536 1.389 . S
C538 C539 1.524 . S
C538 C552 1.377 1_445 S
C539 C538 1.524 . S
C539 C540 1.397 . S
C539 C544 1.363 . S
C540 H517 0.950 . S
C540 C539 1.397 . S
C540 C541 1.334 . S
C541 H518 0.950 . S
C541 C540 1.334 . S
C541 C542 1.287 . S
C542 C541 1.287 . S
C542 C543 1.524 . S
C542 H561 0.913 . S
C543 H519 0.950 . S
C543 C542 1.524 . S
C543 C544 1.415 . S
C544 H520 0.950 1_455 S
C544 C539 1.363 . S
C544 C543 1.415 . S
C545 H521 0.951 . S
C545 C546 1.366 . S
C545 C547 1.388 . S
C546 C545 1.366 . S
C546 C550 1.385 . S
C547 H522 0.951 . S
C547 C545 1.388 . S
C547 C548 1.366 . S
C548 C547 1.366 . S
C548 C549 1.414 . S
C548 C551 1.499 . S
C549 H523 0.950 . S
C549 C548 1.414 . S
C549 C550 1.374 . S
C550 H524 0.950 . S
C550 C546 1.385 . S
C550 C549 1.374 . S
C551 C548 1.499 . S
C551 C552 1.373 . S
C551 C553 1.389 . S
C552 H525 0.950 . S
C552 C538 1.377 1_665 S
C552 C551 1.373 . S
C553 C537 1.377 1_665 S
C553 C551 1.389 . S
C553 C554 1.524 . S
C554 C553 1.524 . S
C554 C555 1.397 . S
C554 C559 1.363 . S
C555 H526 0.950 . S
C555 C554 1.397 . S
C555 C556 1.334 . S
C556 H527 0.950 . S
C556 C555 1.334 . S
C556 C557 1.287 . S
C557 C556 1.287 . S
C557 C558 1.524 . S
C557 H560 0.999 . S
C558 H528 0.950 . S
C558 C557 1.524 . S
C558 C559 1.415 . S
C559 H529 0.950 1_655 S
C559 C554 1.363 . S
C559 C558 1.415 . S
H560 C557 0.999 . S
H561 C542 0.913 . S
H562 C580 0.951 . S
H563 C582 0.951 . S
H564 C584 0.950 . S
H565 C585 0.950 . S
H566 C587 0.950 . S
H567 C590 0.950 . S
H568 C591 0.950 . S
H569 C593 0.950 . S
H570 C594 0.950 . S
H571 C595 0.951 . S
H572 C597 0.951 . S
H573 C599 0.950 . S
H574 C600 0.950 . S
H575 C602 0.950 . S
H576 C605 0.950 . S
H577 C606 0.950 . S
H578 C608 0.950 . S
H579 C609 0.950 . S
C580 H562 0.951 . S
C580 C581 1.366 . S
C580 C582 1.388 . S
C581 C580 1.366 . S
C581 C585 1.385 . S
C582 H563 0.951 . S
C582 C580 1.388 . S
C582 C583 1.366 . S
C583 C582 1.366 . S
C583 C584 1.414 . S
C583 C586 1.499 . S
C584 H564 0.950 . S
C584 C583 1.414 . S
C584 C585 1.374 . S
C585 H565 0.950 . S
C585 C581 1.385 . S
C585 C584 1.374 . S
C586 C583 1.499 . S
C586 C587 1.373 . S
C586 C588 1.389 . S
C587 H566 0.950 . S
C587 C586 1.373 . S
C587 C603 1.377 1_455 S
C588 C586 1.389 . S
C588 C589 1.524 . S
C588 C602 1.377 1_455 S
C589 C588 1.524 . S
C589 C590 1.397 . S
C589 C594 1.363 . S
C590 H567 0.950 . S
C590 C589 1.397 . S
C590 C591 1.334 . S
C591 H568 0.950 . S
C591 C590 1.334 . S
C591 C592 1.287 . S
C592 C591 1.287 . S
C592 C593 1.524 . S
C592 H611 0.913 . S
C593 H569 0.950 . S
C593 C592 1.524 . S
C593 C594 1.415 . S
C594 H570 0.950 . S
C594 C589 1.363 . S
C594 C593 1.415 . S
C595 H571 0.951 . S
C595 C596 1.366 . S
C595 C597 1.388 . S
C596 C595 1.366 . S
C596 C600 1.385 . S
C597 H572 0.951 . S
C597 C595 1.388 . S
C597 C598 1.366 . S
C598 C597 1.366 . S
C598 C599 1.414 . S
C598 C601 1.499 . S
C599 H573 0.950 . S
C599 C598 1.414 . S
C599 C600 1.374 . S
C600 H574 0.950 . S
C600 C596 1.385 . S
C600 C599 1.374 . S
C601 C598 1.499 . S
C601 C602 1.373 . S
C601 C603 1.389 . S
C602 H575 0.950 . S
C602 C588 1.377 1_655 S
C602 C601 1.373 . S
C603 C587 1.377 1_655 S
C603 C601 1.389 . S
C603 C604 1.524 . S
C604 C603 1.524 . S
C604 C605 1.397 . S
C604 C609 1.363 . S
C605 H576 0.950 . S
C605 C604 1.397 . S
C605 C606 1.334 . S
C606 H577 0.950 . S
C606 C605 1.334 . S
C606 C607 1.287 . S
C607 C606 1.287 . S
C607 C608 1.524 . S
C607 H610 0.999 . S
C608 H578 0.950 . S
C608 C607 1.524 . S
C608 C609 1.415 . S
C609 H579 0.950 . S
C609 C604 1.363 . S
C609 C608 1.415 . S
H610 C607 0.999 . S
H611 C592 0.913 . S
H612 C630 0.951 . S
H613 C632 0.951 . S
H614 C634 0.950 . S
H615 C635 0.950 . S
H616 C637 0.950 . S
H617 C640 0.950 . S
H618 C641 0.950 . S
H619 C643 0.950 . S
H620 C644 0.950 . S
H621 C645 0.951 . S
H622 C647 0.951 . S
H623 C649 0.950 . S
H624 C650 0.950 . S
H625 C652 0.950 . S
H626 C655 0.950 . S
H627 C656 0.950 . S
H628 C658 0.950 . S
H629 C659 0.950 . S
C630 H612 0.951 . S
C630 C631 1.366 . S
C630 C632 1.388 . S
C631 C630 1.366 . S
C631 C635 1.385 . S
C632 H613 0.951 . S
C632 C630 1.388 . S
C632 C633 1.366 . S
C633 C632 1.366 . S
C633 C634 1.414 . S
C633 C636 1.499 . S
C634 H614 0.950 . S
C634 C633 1.414 . S
C634 C635 1.374 . S
C635 H615 0.950 . S
C635 C631 1.385 . S
C635 C634 1.374 . S
C636 C633 1.499 . S
C636 C637 1.373 . S
C636 C638 1.389 . S
C637 H616 0.950 . S
C637 C636 1.373 . S
C637 C653 1.377 . S
C638 C636 1.389 . S
C638 C639 1.524 . S
C638 C652 1.377 . S
C639 C638 1.524 . S
C639 C640 1.397 . S
C639 C644 1.363 . S
C640 H617 0.950 . S
C640 C639 1.397 . S
C640 C641 1.334 . S
C641 H618 0.950 . S
C641 C640 1.334 . S
C641 C642 1.287 . S
C642 C641 1.287 . S
C642 C643 1.524 . S
C642 H661 0.913 . S
C643 H619 0.950 . S
C643 C642 1.524 . S
C643 C644 1.415 . S
C644 H620 0.950 . S
C644 C639 1.363 . S
C644 C643 1.415 . S
C645 H621 0.951 . S
C645 C646 1.366 . S
C645 C647 1.388 . S
C646 C645 1.366 . S
C646 C650 1.385 . S
C647 H622 0.951 . S
C647 C645 1.388 . S
C647 C648 1.366 . S
C648 C647 1.366 . S
C648 C649 1.414 . S
C648 C651 1.499 . S
C649 H623 0.950 . S
C649 C648 1.414 . S
C649 C650 1.374 . S
C650 H624 0.950 . S
C650 C646 1.385 . S
C650 C649 1.374 . S
C651 C648 1.499 . S
C651 C652 1.373 . S
C651 C653 1.389 . S
C652 H625 0.950 . S
C652 C638 1.377 . S
C652 C651 1.373 . S
C653 C637 1.377 . S
C653 C651 1.389 . S
C653 C654 1.524 . S
C654 C653 1.524 . S
C654 C655 1.397 . S
C654 C659 1.363 . S
C655 H626 0.950 . S
C655 C654 1.397 . S
C655 C656 1.334 . S
C656 H627 0.950 . S
C656 C655 1.334 . S
C656 C657 1.287 . S
C657 C656 1.287 . S
C657 C658 1.524 . S
C657 H660 0.999 . S
C658 H628 0.950 . S
C658 C657 1.524 . S
C658 C659 1.415 . S
C659 H629 0.950 . S
C659 C654 1.363 . S
C659 C658 1.415 . S
H660 C657 0.999 . S
H661 C642 0.913 . S
H662 C680 0.951 . S
H663 C682 0.951 . S
H664 C684 0.935 1_545 S
H665 C685 0.950 . S
H666 C687 0.950 . S
H667 C690 0.950 . S
H668 C691 0.950 . S
H669 C693 0.950 . S
H670 C694 0.950 . S
H671 C695 0.951 . S
H672 C697 0.951 . S
H673 C699 0.935 1_565 S
H674 C700 0.950 . S
H675 C702 0.950 . S
H676 C705 0.950 . S
H677 C706 0.950 . S
H678 C708 0.950 . S
H679 C709 0.950 . S
C680 H662 0.951 . S
C680 C681 1.366 . S
C680 C682 1.388 . S
C681 C680 1.366 . S
C681 C685 1.385 . S
C682 H663 0.951 . S
C682 C680 1.388 . S
C682 C683 1.366 . S
C683 C682 1.366 . S
C683 C684 1.414 . S
C683 C686 1.499 . S
C684 H664 0.935 1_565 S
C684 C683 1.414 . S
C684 C685 1.374 . S
C685 H665 0.950 . S
C685 C681 1.385 . S
C685 C684 1.374 . S
C686 C683 1.499 . S
C686 C687 1.373 1_565 S
C686 C688 1.389 . S
C687 H666 0.950 . S
C687 C686 1.373 1_545 S
C687 C703 1.377 . S
C688 C686 1.389 . S
C688 C689 1.524 . S
C688 C702 1.377 . S
C689 C688 1.524 . S
C689 C690 1.397 . S
C689 C694 1.363 . S
C690 H667 0.950 . S
C690 C689 1.397 . S
C690 C691 1.334 . S
C691 H668 0.950 . S
C691 C690 1.334 . S
C691 C692 1.287 . S
C692 C691 1.287 . S
C692 C693 1.524 . S
C692 H711 0.913 . S
C693 H669 0.950 . S
C693 C692 1.524 . S
C693 C694 1.415 . S
C694 H670 0.950 . S
C694 C689 1.363 . S
C694 C693 1.415 . S
C695 H671 0.951 . S
C695 C696 1.366 . S
C695 C697 1.388 . S
C696 C695 1.366 . S
C696 C700 1.385 . S
C697 H672 0.951 . S
C697 C695 1.388 . S
C697 C698 1.366 . S
C698 C697 1.366 . S
C698 C699 1.414 . S
C698 C701 1.499 . S
C699 H673 0.935 1_545 S
C699 C698 1.414 . S
C699 C700 1.374 . S
C700 H674 0.950 . S
C700 C696 1.385 . S
C700 C699 1.374 . S
C701 C698 1.499 . S
C701 C702 1.373 1_545 S
C701 C703 1.389 . S
C702 H675 0.950 . S
C702 C688 1.377 . S
C702 C701 1.373 1_565 S
C703 C687 1.377 . S
C703 C701 1.389 . S
C703 C704 1.524 . S
C704 C703 1.524 . S
C704 C705 1.397 . S
C704 C709 1.363 . S
C705 H676 0.950 . S
C705 C704 1.397 . S
C705 C706 1.334 . S
C706 H677 0.950 . S
C706 C705 1.334 . S
C706 C707 1.287 . S
C707 C706 1.287 . S
C707 C708 1.524 . S
C707 H710 0.999 . S
C708 H678 0.950 . S
C708 C707 1.524 . S
C708 C709 1.415 . S
C709 H679 0.950 . S
C709 C704 1.363 . S
C709 C708 1.415 . S
H710 C707 0.999 . S
H711 C692 0.913 . S
H712 C730 0.951 . S
H713 C732 0.951 . S
H714 C734 0.950 . S
H715 C735 0.950 . S
H716 C737 0.950 . S
H717 C740 0.950 . S
H718 C741 0.950 . S
H719 C743 0.950 . S
H720 C744 0.950 . S
H721 C745 0.951 . S
H722 C747 0.951 . S
H723 C749 0.950 . S
H724 C750 0.950 . S
H725 C752 0.950 . S
H726 C755 0.950 . S
H727 C756 0.950 . S
H728 C758 0.950 . S
H729 C759 0.950 . S
C730 H712 0.951 . S
C730 C731 1.366 . S
C730 C732 1.388 . S
C731 C730 1.366 . S
C731 C735 1.385 . S
C732 H713 0.951 . S
C732 C730 1.388 . S
C732 C733 1.366 . S
C733 C732 1.366 . S
C733 C734 1.414 . S
C733 C736 1.499 . S
C734 H714 0.950 . S
C734 C733 1.414 . S
C734 C735 1.374 . S
C735 H715 0.950 . S
C735 C731 1.385 . S
C735 C734 1.374 . S
C736 C733 1.499 . S
C736 C737 1.373 1_655 S
C736 C738 1.389 . S
C737 H716 0.950 . S
C737 C736 1.373 1_455 S
C737 C753 1.377 . S
C738 C736 1.389 . S
C738 C739 1.524 . S
C738 C752 1.377 . S
C739 C738 1.524 . S
C739 C740 1.397 . S
C739 C744 1.363 . S
C740 H717 0.950 . S
C740 C739 1.397 . S
C740 C741 1.334 . S
C741 H718 0.950 . S
C741 C740 1.334 . S
C741 C742 1.287 . S
C742 C741 1.287 . S
C742 C743 1.524 . S
C742 H761 0.913 . S
C743 H719 0.950 . S
C743 C742 1.524 . S
C743 C744 1.415 . S
C744 H720 0.950 . S
C744 C739 1.363 . S
C744 C743 1.415 . S
C745 H721 0.951 . S
C745 C746 1.366 . S
C745 C747 1.388 . S
C746 C745 1.366 . S
C746 C750 1.385 . S
C747 H722 0.951 . S
C747 C745 1.388 . S
C747 C748 1.366 . S
C748 C747 1.366 . S
C748 C749 1.414 . S
C748 C751 1.499 . S
C749 H723 0.950 . S
C749 C748 1.414 . S
C749 C750 1.374 . S
C750 H724 0.950 . S
C750 C746 1.385 . S
C750 C749 1.374 . S
C751 C748 1.499 . S
C751 C752 1.373 1_455 S
C751 C753 1.389 . S
C752 H725 0.950 . S
C752 C738 1.377 . S
C752 C751 1.373 1_655 S
C753 C737 1.377 . S
C753 C751 1.389 . S
C753 C754 1.524 . S
C754 C753 1.524 . S
C754 C755 1.397 . S
C754 C759 1.363 . S
C755 H726 0.950 . S
C755 C754 1.397 . S
C755 C756 1.334 . S
C756 H727 0.950 . S
C756 C755 1.334 . S
C756 C757 1.287 . S
C757 C756 1.287 . S
C757 C758 1.524 . S
C757 H760 0.999 . S
C758 H728 0.950 . S
C758 C757 1.524 . S
C758 C759 1.415 . S
C759 H729 0.950 . S
C759 C754 1.363 . S
C759 C758 1.415 . S
H760 C757 0.999 . S
H761 C742 0.913 . S
H762 C780 0.951 . S
H763 C782 0.951 . S
H764 C784 0.950 . S
H765 C785 0.950 . S
H766 C787 0.950 . S
H767 C790 0.950 . S
H768 C791 0.950 . S
H769 C793 0.950 . S
H770 C794 0.950 . S
H771 C795 0.951 . S
H772 C797 0.951 . S
H773 C799 0.950 . S
H774 C800 0.950 . S
H775 C802 0.950 . S
H776 C805 0.950 . S
H777 C806 0.950 . S
H778 C808 0.950 . S
H779 C809 0.950 . S
C780 H762 0.951 . S
C780 C781 1.366 . S
C780 C782 1.388 . S
C781 C780 1.366 . S
C781 C785 1.385 . S
C782 H763 0.951 . S
C782 C780 1.388 . S
C782 C783 1.366 . S
C783 C782 1.366 . S
C783 C784 1.414 . S
C783 C786 1.499 . S
C784 H764 0.950 . S
C784 C783 1.414 . S
C784 C785 1.374 . S
C785 H765 0.950 . S
C785 C781 1.385 . S
C785 C784 1.374 . S
C786 C783 1.499 . S
C786 C787 1.373 . S
C786 C788 1.389 . S
C787 H766 0.950 . S
C787 C786 1.373 . S
C787 C803 1.377 . S
C788 C786 1.389 . S
C788 C789 1.524 . S
C788 C802 1.377 . S
C789 C788 1.524 . S
C789 C790 1.397 . S
C789 C794 1.363 . S
C790 H767 0.950 . S
C790 C789 1.397 . S
C790 C791 1.334 . S
C791 H768 0.950 . S
C791 C790 1.334 . S
C791 C792 1.287 . S
C792 C791 1.287 . S
C792 C793 1.524 . S
C792 H811 0.913 . S
C793 H769 0.950 . S
C793 C792 1.524 . S
C793 C794 1.415 . S
C794 H770 0.950 . S
C794 C789 1.363 . S
C794 C793 1.415 . S
C795 H771 0.951 . S
C795 C796 1.366 . S
C795 C797 1.388 . S
C796 C795 1.366 . S
C796 C800 1.385 . S
C797 H772 0.951 . S
C797 C795 1.388 . S
C797 C798 1.366 . S
C798 C797 1.366 . S
C798 C799 1.414 . S
C798 C801 1.499 . S
C799 H773 0.950 . S
C799 C798 1.414 . S
C799 C800 1.374 . S
C800 H774 0.950 . S
C800 C796 1.385 . S
C800 C799 1.374 . S
C801 C798 1.499 . S
C801 C802 1.373 . S
C801 C803 1.389 . S
C802 H775 0.950 . S
C802 C788 1.377 . S
C802 C801 1.373 . S
C803 C787 1.377 . S
C803 C801 1.389 . S
C803 C804 1.524 . S
C804 C803 1.524 . S
C804 C805 1.397 . S
C804 C809 1.363 . S
C805 H776 0.950 . S
C805 C804 1.397 . S
C805 C806 1.334 . S
C806 H777 0.950 . S
C806 C805 1.334 . S
C806 C807 1.287 . S
C807 C806 1.287 . S
C807 C808 1.524 . S
C807 H810 0.999 . S
C808 H778 0.950 . S
C808 C807 1.524 . S
C808 C809 1.415 . S
C809 H779 0.950 . S
C809 C804 1.363 . S
C809 C808 1.415 . S
H810 C807 0.999 . S
H811 C792 0.913 . S
H812 C830 0.951 . S
H813 C832 0.951 . S
H814 C834 0.950 . S
H815 C835 0.950 . S
H816 C837 0.950 . S
H817 C840 0.950 . S
H818 C841 0.950 . S
H819 C843 0.950 . S
H820 C844 0.950 . S
H821 C845 0.951 . S
H822 C847 0.951 . S
H823 C849 0.950 . S
H824 C850 0.950 . S
H825 C852 0.950 . S
H826 C855 0.950 . S
H827 C856 0.950 . S
H828 C858 0.950 . S
H829 C859 0.950 . S
C830 H812 0.951 . S
C830 C831 1.366 . S
C830 C832 1.388 . S
C831 C830 1.366 . S
C831 C835 1.385 . S
C832 H813 0.951 . S
C832 C830 1.388 . S
C832 C833 1.366 . S
C833 C832 1.366 . S
C833 C834 1.414 . S
C833 C836 1.499 . S
C834 H814 0.950 . S
C834 C833 1.414 . S
C834 C835 1.374 . S
C835 H815 0.950 . S
C835 C831 1.385 . S
C835 C834 1.374 . S
C836 C833 1.499 . S
C836 C837 1.373 . S
C836 C838 1.394 . S
C837 H816 0.950 . S
C837 C836 1.373 . S
C837 C853 1.372 1_545 S
C838 C836 1.394 . S
C838 C839 1.524 1_545 S
C838 C852 1.372 1_545 S
C839 C838 1.524 1_565 S
C839 C840 1.397 1_565 S
C839 C844 1.363 . S
C840 H817 0.950 . S
C840 C839 1.397 1_545 S
C840 C841 1.334 . S
C841 H818 0.950 . S
C841 C840 1.334 . S
C841 C842 1.265 1_545 S
C842 C841 1.265 1_565 S
C842 C843 1.547 . S
C842 H861 0.912 . S
C843 H819 0.950 . S
C843 C842 1.547 . S
C843 C844 1.415 . S
C844 H820 0.950 . S
C844 C839 1.363 . S
C844 C843 1.415 . S
C845 H821 0.951 . S
C845 C846 1.366 . S
C845 C847 1.388 . S
C846 C845 1.366 . S
C846 C850 1.385 . S
C847 H822 0.951 . S
C847 C845 1.388 . S
C847 C848 1.366 . S
C848 C847 1.366 . S
C848 C849 1.414 . S
C848 C851 1.499 . S
C849 H823 0.950 . S
C849 C848 1.414 . S
C849 C850 1.374 . S
C850 H824 0.950 . S
C850 C846 1.385 . S
C850 C849 1.374 . S
C851 C848 1.499 . S
C851 C852 1.373 . S
C851 C853 1.394 . S
C852 H825 0.950 . S
C852 C838 1.372 1_565 S
C852 C851 1.373 . S
C853 C837 1.372 1_565 S
C853 C851 1.394 . S
C853 C854 1.524 1_565 S
C854 C853 1.524 1_545 S
C854 C855 1.397 1_545 S
C854 C859 1.363 . S
C855 H826 0.950 . S
C855 C854 1.397 1_565 S
C855 C856 1.334 . S
C856 H827 0.950 . S
C856 C855 1.334 . S
C856 C857 1.265 1_565 S
C857 C856 1.265 1_545 S
C857 C858 1.547 . S
C857 H860 1.000 . S
C858 H828 0.950 . S
C858 C857 1.547 . S
C858 C859 1.415 . S
C859 H829 0.950 . S
C859 C854 1.363 . S
C859 C858 1.415 . S
H860 C857 1.000 . S
H861 C842 0.912 . S
H862 C880 0.951 . S
H863 C882 0.951 . S
H864 C884 0.950 1_545 S
H865 C885 0.950 . S
H866 C887 0.950 . S
H867 C890 0.950 . S
H868 C891 0.950 . S
H869 C893 0.950 . S
H870 C894 0.950 . S
H871 C895 0.951 . S
H872 C897 0.951 . S
H873 C899 0.950 1_565 S
H874 C900 0.950 . S
H875 C902 0.950 . S
H876 C905 0.950 . S
H877 C906 0.950 . S
H878 C908 0.950 . S
H879 C909 0.950 . S
C880 H862 0.951 . S
C880 C881 1.366 . S
C880 C882 1.388 . S
C881 C880 1.366 . S
C881 C885 1.385 . S
C882 H863 0.951 . S
C882 C880 1.388 . S
C882 C883 1.366 . S
C883 C882 1.366 . S
C883 C884 1.414 . S
C883 C886 1.499 . S
C884 H864 0.950 1_565 S
C884 C883 1.414 . S
C884 C885 1.374 . S
C885 H865 0.950 . S
C885 C881 1.385 . S
C885 C884 1.374 . S
C886 C883 1.499 . S
C886 C887 1.373 1_565 S
C886 C888 1.389 . S
C887 H866 0.950 . S
C887 C886 1.373 1_545 S
C887 C903 1.377 1_655 S
C888 C886 1.389 . S
C888 C889 1.524 . S
C888 C902 1.377 1_655 S
C889 C888 1.524 . S
C889 C890 1.397 . S
C889 C894 1.363 1_655 S
C890 H867 0.950 . S
C890 C889 1.397 . S
C890 C891 1.334 . S
C891 H868 0.950 . S
C891 C890 1.334 . S
C891 C892 1.287 . S
C892 C891 1.287 . S
C892 C893 1.524 1_655 S
C892 H911 0.913 . S
C893 H869 0.950 . S
C893 C892 1.524 1_455 S
C893 C894 1.415 . S
C894 H870 0.950 . S
C894 C889 1.363 1_455 S
C894 C893 1.415 . S
C895 H871 0.951 . S
C895 C896 1.366 . S
C895 C897 1.388 . S
C896 C895 1.366 . S
C896 C900 1.385 . S
C897 H872 0.951 . S
C897 C895 1.388 . S
C897 C898 1.366 . S
C898 C897 1.366 . S
C898 C899 1.414 . S
C898 C901 1.499 . S
C899 H873 0.950 1_545 S
C899 C898 1.414 . S
C899 C900 1.374 . S
C900 H874 0.950 . S
C900 C896 1.385 . S
C900 C899 1.374 . S
C901 C898 1.499 . S
C901 C902 1.373 1_545 S
C901 C903 1.389 . S
C902 H875 0.950 . S
C902 C888 1.377 1_455 S
C902 C901 1.373 1_565 S
C903 C887 1.377 1_455 S
C903 C901 1.389 . S
C903 C904 1.524 . S
C904 C903 1.524 . S
C904 C905 1.397 . S
C904 C909 1.363 1_455 S
C905 H876 0.950 . S
C905 C904 1.397 . S
C905 C906 1.334 . S
C906 H877 0.950 . S
C906 C905 1.334 . S
C906 C907 1.287 . S
C907 C906 1.287 . S
C907 C908 1.524 1_455 S
C907 H910 0.999 . S
C908 H878 0.950 . S
C908 C907 1.524 1_655 S
C908 C909 1.415 . S
C909 H879 0.950 . S
C909 C904 1.363 1_655 S
C909 C908 1.415 . S
H910 C907 0.999 . S
H911 C892 0.913 . S
C131 C3 1.104 . S
C146 C73 1.103 . S
C181 C21 1.122 . S
C196 C91 1.122 . S
C231 C31 1.104 . S
C246 C101 1.104 . S
C281 C49 1.123 . S
C296 C63 1.123 . S
C331 C105 1.123 . S
C346 C7 1.123 . S
C381 C59 1.104 . S
C396 C17 1.104 . S
C431 C35 1.123 . S
C446 C77 1.123 . S
C481 C87 1.104 . S
C496 C45 1.104 . S
C531 C9 1.585 . S
C546 C93 1.585 . S
C581 C106 1.589 . S
C596 C22 1.589 . S
C631 C37 1.585 . S
C646 C65 1.585 . S
C681 C50 1.589 . S
C696 C78 1.589 . S
C731 C92 1.589 . S
C746 C8 1.589 . S
C781 C107 1.585 . S
C796 C23 1.585 . S
C831 C36 1.589 . S
C846 C64 1.589 . S
C881 C51 1.585 . S
C896 C79 1.585 . S
