# Generated by pormake.
# Topology sxb, (6)-cn, num edge types: 1
# Building blocks:
#     Node 0, Type 0, BuildingBlock: KUMBUR_clean_sbu_1, # of connection points: 6
#     Node 1, Type 0, BuildingBlock: KUMBUR_clean_sbu_1, # of connection points: 6
#     Node 2, Type 0, BuildingBlock: KUMBUR_clean_sbu_1, # of connection points: 6
#     Node 3, Type 0, BuildingBlock: KUMBUR_clean_sbu_1, # of connection points: 6
#     Edge 4, Type (0, 0), BuildingBlock: MIFKUJ_clean_linker_0, # of connection points: 2
#     Edge 5, Type (0, 0), BuildingBlock: MIFKUJ_clean_linker_0, # of connection points: 2
#     Edge 6, Type (0, 0), BuildingBlock: MIFKUJ_clean_linker_0, # of connection points: 2
#     Edge 7, Type (0, 0), BuildingBlock: MIFKUJ_clean_linker_0, # of connection points: 2
#     Edge 8, Type (0, 0), BuildingBlock: MIFKUJ_clean_linker_0, # of connection points: 2
#     Edge 9, Type (0, 0), BuildingBlock: MIFKUJ_clean_linker_0, # of connection points: 2
#     Edge 10, Type (0, 0), BuildingBlock: MIFKUJ_clean_linker_0, # of connection points: 2
#     Edge 11, Type (0, 0), BuildingBlock: MIFKUJ_clean_linker_0, # of connection points: 2
#     Edge 12, Type (0, 0), BuildingBlock: MIFKUJ_clean_linker_0, # of connection points: 2
#     Edge 13, Type (0, 0), BuildingBlock: MIFKUJ_clean_linker_0, # of connection points: 2
#     Edge 14, Type (0, 0), BuildingBlock: MIFKUJ_clean_linker_0, # of connection points: 2
#     Edge 15, Type (0, 0), BuildingBlock: MIFKUJ_clean_linker_0, # of connection points: 2
# Relax obj value: 0.009
# Max RMSD: 0.046
# Mean RMSD: 0.046
data_MOF--net-sxb--node1-KUMBUR_clean_sbu_1--edge1-MIFKUJ_clean_linker_0
_symmetry_space_group_name_H-M    P1
_symmetry_Int_Tables_number       1
_symmetry_cell_setting            triclinic
loop_
_symmetry_equiv_pos_as_xyz
'x, y, z'
_cell_length_a     19.443721
_cell_length_b     55.590091
_cell_length_c     38.498822
_cell_angle_alpha  115.20908
_cell_angle_beta   90.164851
_cell_angle_gamma 89.744374
loop_
_atom_site_label
_atom_site_type_symbol
_atom_site_fract_x
_atom_site_fract_y
_atom_site_fract_z
_atom_type_partial_charge
Tb0 Tb 0.03929 0.97159 0.98102 0.0
C1 C 0.14229 0.08855 0.07981 0.0
N2 N 0.08288 0.07628 0.08145 0.0
C3 C 0.09009 0.09588 0.1503 0.0
C4 C 0.17921 0.1043 0.11338 0.0
C5 C 0.05466 0.08091 0.11625 0.0
C6 C 0.15312 0.10734 0.14885 0.0
C7 C 0.22361 0.09994 0.04152 0.0
C8 C 0.16441 0.08638 0.04443 0.0
C9 C 0.26176 0.11499 0.07472 0.0
C10 C 0.23973 0.11709 0.11055 0.0
Tb11 Tb 0.03094 0.05211 0.02349 0.0
N12 N 0.12762 0.07096 0.0128 0.0
C13 C 0.24223 0.09811 0.00538 0.0
C14 C 0.14301 0.07039 0.97782 0.0
C15 C 0.20136 0.08348 0.97344 0.0
H16 H 1.00418 0.07353 0.11813 0.0
H17 H 0.21444 0.08247 0.94554 0.0
H18 H 0.9956 0.95486 0.89116 0.0
H19 H 0.9214 0.95259 0.09445 0.0
H20 H 0.11066 0.05955 0.95333 0.0
H21 H 0.28704 0.10842 0.00204 0.0
H22 H 1.01525 0.96576 0.06413 0.0
H23 H 0.06811 0.09899 0.17769 0.0
H24 H 0.30785 0.12533 0.07304 0.0
H25 H 0.26902 0.12913 0.13601 0.0
H26 H 0.90081 0.93063 0.84753 0.0
H27 H 0.17999 0.11923 0.17531 0.0
H28 H 0.81787 0.93102 0.05699 0.0
N29 N 0.95179 0.95182 0.93961 0.0
C30 C 0.90103 0.94133 0.953 0.0
C31 C 0.89981 0.93382 0.87724 0.0
C32 C 0.84595 0.92738 0.92918 0.0
C33 C 0.95315 0.94767 0.90205 0.0
C34 C 0.84566 0.92381 0.89091 0.0
N35 N 0.95982 0.95767 0.01241 0.0
C36 C 0.96803 0.95894 0.04843 0.0
C37 C 0.85185 0.9348 0.00603 0.0
C38 C 0.90424 0.94499 0.9909 0.0
C39 C 0.85737 0.93826 0.04409 0.0
C40 C 0.91583 0.95034 0.0653 0.0
H41 H 0.80438 0.91311 0.87162 0.0
H42 H 0.7507 0.90654 0.9264 0.0
H43 H 0.75686 0.91248 0.99332 0.0
O44 O 0.06841 0.93444 0.98076 0.0
O45 O 0.94506 0.99254 0.9758 0.0
O46 O 0.94057 0.03128 0.03104 0.0
O47 O 0.10092 0.94582 0.93577 0.0
O48 O 0.0681 0.99466 0.04147 0.0
O49 O 1.00245 0.03302 0.06102 0.0
O50 O 0.9742 0.06896 0.99269 0.0
O51 O 0.13261 0.03258 0.00399 0.0
O52 O 0.13203 0.99288 0.01037 0.0
O53 O 0.99063 0.09088 0.05312 0.0
O54 O 1.01036 0.02792 0.96263 0.0
O55 O 0.07443 0.98921 0.94292 0.0
C56 C 0.90968 0.01081 0.00393 0.0
C57 C 0.13922 0.90222 0.92844 0.0
C58 C 0.19217 0.86136 0.92602 0.0
C59 C 0.21221 0.8547 0.88793 0.0
C60 C 0.16031 0.89493 0.89039 0.0
C61 C 0.19619 0.87131 0.87032 0.0
C62 C 0.15455 0.88512 0.94613 0.0
C63 C 0.03962 0.01595 0.06849 0.0
C64 C 0.10213 0.92777 0.94886 0.0
C65 C 0.79348 0.91736 0.94422 0.0
C66 C 0.79658 0.921 0.9825 0.0
C67 C 0.16456 0.01251 0.00701 0.0
C68 C 0.89338 0.10265 0.02652 0.0
C69 C 0.81834 0.13826 0.02664 0.0
C70 C 0.76147 0.12464 0.03209 0.0
C71 C 0.83607 0.08951 0.03196 0.0
C72 C 0.88442 0.12699 0.02394 0.0
C73 C 0.77043 0.10049 0.03473 0.0
C74 C 0.04744 0.00886 0.93683 0.0
C75 C 0.96288 0.09119 0.02261 0.0
H76 H 0.24012 0.83644 0.87158 0.0
H77 H 0.1489 0.90749 0.87595 0.0
H78 H 0.21191 0.86589 0.84098 0.0
H79 H 0.13901 0.89057 0.97554 0.0
H80 H 0.71005 0.1328 0.03479 0.0
H81 H 0.84225 0.07082 0.03393 0.0
H82 H 0.9289 0.13686 0.01914 0.0
H83 H 0.72629 0.09023 0.03897 0.0
Tb84 Tb 0.0628 0.04129 0.51651 0.0
C85 C 0.16948 0.9234 0.42321 0.0
N86 N 0.11189 0.9353 0.41763 0.0
C87 C 0.13025 0.91426 0.34954 0.0
C88 C 0.21023 0.9066 0.39201 0.0
C89 C 0.09113 0.93061 0.38137 0.0
C90 C 0.19018 0.90228 0.35487 0.0
C91 C 0.24653 0.91604 0.46748 0.0
C92 C 0.18791 0.92832 0.46051 0.0
C93 C 0.28729 0.89925 0.43648 0.0
C94 C 0.2694 0.89466 0.39887 0.0
Tb95 Tb 0.0527 0.96111 0.47203 0.0
N96 N 0.14876 0.94553 0.48997 0.0
C97 C 0.26191 0.92081 0.50537 0.0
C98 C 0.16226 0.94948 0.52679 0.0
C99 C 0.21949 0.93753 0.53512 0.0
H100 H 0.04354 0.93886 0.3767 0.0
H101 H 0.23001 0.94078 0.56441 0.0
H102 H 0.05002 0.0611 0.61101 0.0
H103 H 0.9066 0.06101 0.41514 0.0
H104 H 0.12798 0.96095 0.5497 0.0
H105 H 0.30522 0.91116 0.51186 0.0
H106 H 1.00748 0.04393 0.4361 0.0
H107 H 0.11373 0.91067 0.32088 0.0
H108 H 0.33268 0.8897 0.44127 0.0
H109 H 0.30141 0.88169 0.37527 0.0
H110 H 0.96587 0.08544 0.66174 0.0
H111 H 0.22016 0.88953 0.33013 0.0
H112 H 0.81707 0.08613 0.46212 0.0
N113 N 0.99036 0.06392 0.56642 0.0
C114 C 0.93326 0.07435 0.55744 0.0
C115 C 0.95608 0.0824 0.6325 0.0
C116 C 0.88509 0.08923 0.58582 0.0
C117 C 1.0031 0.06818 0.60348 0.0
C118 C 0.89678 0.09295 0.62365 0.0
N119 N 0.97066 0.05518 0.49279 0.0
C120 C 0.9664 0.05277 0.45609 0.0
C121 C 0.86612 0.08121 0.50922 0.0
C122 C 0.92343 0.07004 0.51946 0.0
C123 C 0.8596 0.07746 0.47106 0.0
C124 C 0.91009 0.06327 0.44443 0.0
H125 H 0.8608 0.10416 0.64628 0.0
H126 H 0.78975 0.1116 0.59699 0.0
H127 H 0.77426 0.10521 0.53028 0.0
O128 O 0.11239 0.06538 0.49412 0.0
O129 O 0.9643 0.02174 0.51803 0.0
O130 O 0.96124 0.98159 0.4645 0.0
O131 O 0.10593 0.07771 0.55485 0.0
O132 O 0.09111 0.01725 0.4562 0.0
O133 O 1.02304 0.97962 0.43426 0.0
O134 O 1.00228 0.94046 0.49956 0.0
O135 O 0.15472 0.97877 0.47228 0.0
O136 O 0.15688 0.02128 0.52179 0.0
O137 O 1.00987 0.92362 0.43823 0.0
O138 O 0.02952 0.98533 0.53316 0.0
O139 O 0.0962 0.02342 0.55442 0.0
C140 C 0.93017 1.00254 0.49063 0.0
C141 C 0.10263 0.1117 0.5327 0.0
C142 C 0.12084 0.15079 0.51982 0.0
C143 C 0.05995 0.162 0.53976 0.0
C144 C 0.04338 0.12395 0.55368 0.0
C145 C 1.02186 0.14873 0.55677 0.0
C146 C 0.14206 0.12549 0.51621 0.0
C147 C 0.05915 0.99754 0.42843 0.0
C148 C 0.12322 0.08467 0.5278 0.0
C149 C 0.82727 0.10001 0.57557 0.0
C150 C 0.81816 0.0962 0.53746 0.0
C151 C 0.18802 0.99998 0.49637 0.0
C152 C 0.915 0.91042 0.464 0.0
C153 C 0.83344 0.87729 0.46559 0.0
C154 C 0.78072 0.89039 0.45504 0.0
C155 C 0.86144 0.92301 0.45373 0.0
C156 C 0.9009 0.88762 0.47003 0.0
C157 C 0.79468 0.91309 0.44938 0.0
C158 C 0.06359 1.00477 0.56026 0.0
C159 C 0.986 0.92044 0.46746 0.0
H160 H 0.04275 0.18142 0.543 0.0
H161 H 1.01383 0.1146 0.56809 0.0
H162 H 0.97575 0.1578 0.57276 0.0
H163 H 0.18862 0.11655 0.50052 0.0
H164 H 0.7286 0.88289 0.45048 0.0
H165 H 0.87166 0.9403 0.44862 0.0
H166 H 0.94244 0.87812 0.47838 0.0
H167 H 0.75365 0.92288 0.44121 0.0
Tb168 Tb 0.51914 0.47293 0.99145 0.0
C169 C 0.63394 0.58783 0.07747 0.0
N170 N 0.57719 0.57702 0.08572 0.0
C171 C 0.60646 0.59737 0.15263 0.0
C172 C 0.6797 0.60369 0.1066 0.0
C173 C 0.56212 0.58203 0.1228 0.0
C174 C 0.66569 0.60815 0.1445 0.0
C175 C 0.70255 0.59465 0.02994 0.0
C176 C 0.64556 0.58315 0.03956 0.0
C177 C 0.74842 0.61042 0.05886 0.0
C178 C 0.73728 0.61479 0.09704 0.0
Tb179 Tb 0.50827 0.55298 0.03465 0.0
N180 N 0.60052 0.56745 0.01224 0.0
C181 C 0.71093 0.59034 0.99167 0.0
C182 C 0.6067 0.56437 0.97529 0.0
C183 C 0.66272 0.57518 0.96426 0.0
H184 H 0.5151 0.57485 0.12971 0.0
H185 H 0.66778 0.57235 0.93478 0.0
H186 H 0.5369 0.44857 0.89626 0.0
H187 H 0.32957 0.45696 0.08146 0.0
H188 H 0.56732 0.55467 0.95454 0.0
H189 H 0.75313 0.59927 0.98318 0.0
H190 H 0.43315 0.47685 0.06833 0.0
H191 H 0.59442 0.60118 0.18195 0.0
H192 H 0.79227 0.61957 0.0521 0.0
H193 H 0.77302 0.62707 0.11902 0.0
H194 H 0.47202 0.41873 0.83918 0.0
H195 H 0.69962 0.6202 0.16773 0.0
H196 H 0.26193 0.42458 0.02761 0.0
N197 N 0.46465 0.44599 0.93601 0.0
C198 C 0.40645 0.43424 0.94073 0.0
C199 C 0.45277 0.42308 0.86759 0.0
C200 C 0.36876 0.41648 0.90887 0.0
C201 C 0.48885 0.44036 0.90008 0.0
C202 C 0.39238 0.41113 0.87198 0.0
N203 N 0.42036 0.45839 0.00781 0.0
C204 C 0.40222 0.464 0.04467 0.0
C205 C 0.32504 0.42809 0.98392 0.0
C206 C 0.38434 0.44021 0.97779 0.0
C207 C 0.30559 0.43418 0.02169 0.0
C208 C 0.34405 0.45232 0.05217 0.0
H209 H 0.36482 0.39763 0.84675 0.0
H210 H 0.27938 0.39088 0.89072 0.0
H211 H 0.24153 0.40084 0.95642 0.0
O212 O 0.55918 0.452 0.02147 0.0
O213 O 0.41777 0.49081 0.99029 0.0
O214 O 0.41595 0.53273 0.04074 0.0
O215 O 0.56779 0.43602 0.9601 0.0
O216 O 0.54635 0.4978 0.05158 0.0
O217 O 0.47804 0.53542 0.07347 0.0
O218 O 0.45909 0.57645 0.0107 0.0
O219 O 0.60893 0.53425 0.03537 0.0
O220 O 0.61177 0.49256 0.98416 0.0
O221 O 0.46029 0.58876 0.07154 0.0
O222 O 0.48149 0.52842 0.97411 0.0
O223 O 0.54955 0.49058 0.95295 0.0
C224 C 0.38449 0.51195 0.01468 0.0
C225 C 0.6514 0.42246 0.99295 0.0
C226 C 0.72451 0.3883 0.99881 0.0
C227 C 0.78272 0.40288 0.99739 0.0
C228 C 0.71004 0.43669 0.99204 0.0
C229 C 0.77537 0.42688 0.99417 0.0
C230 C 0.65872 0.39841 0.99652 0.0
C231 C 0.51198 0.51681 0.07907 0.0
C232 C 0.58207 0.43241 0.99056 0.0
C233 C 0.30903 0.4046 0.91485 0.0
C234 C 0.28745 0.41027 0.95227 0.0
C235 C 0.64263 0.51407 0.00913 0.0
C236 C 0.46506 0.62287 0.04989 0.0
C237 C 0.44945 0.66179 0.03615 0.0
C238 C 0.50588 0.6739 0.06002 0.0
C239 C 0.5197 0.636 0.07458 0.0
C240 C 0.42917 0.6361 0.03106 0.0
C241 C 0.54039 0.66113 0.07919 0.0
C242 C 0.51491 0.5088 0.94681 0.0
C243 C 0.44521 0.59564 0.04408 0.0
H244 H 0.83414 0.39562 0.9983 0.0
H245 H 0.70512 0.45529 0.98966 0.0
H246 H 0.82054 0.4379 0.99318 0.0
H247 H 0.61299 0.38782 0.99803 0.0
H248 H 0.52218 0.69367 0.06472 0.0
H249 H 0.54613 0.62711 0.09083 0.0
H250 H 0.38605 0.62647 0.0125 0.0
H251 H 0.58287 0.6709 0.09812 0.0
Tb252 Tb 0.5293 0.54909 0.53056 0.0
C253 C 0.64082 0.43143 0.46067 0.0
N254 N 0.59511 0.44463 0.44826 0.0
C255 C 0.64709 0.42579 0.38586 0.0
C256 C 0.69323 0.41555 0.43642 0.0
C257 C 0.5962 0.44145 0.41109 0.0
C258 C 0.69612 0.41293 0.39864 0.0
C259 C 0.68363 0.42193 0.51269 0.0
C260 C 0.63586 0.43458 0.49826 0.0
C261 C 0.73624 0.40615 0.48873 0.0
C262 C 0.74086 0.40289 0.45065 0.0
Tb263 Tb 0.51254 0.46842 0.4912 0.0
N264 N 0.58467 0.45022 0.52072 0.0
C265 C 0.67752 0.42578 0.55089 0.0
C266 C 0.57561 0.45232 0.55708 0.0
C267 C 0.6232 0.44104 0.57312 0.0
H268 H 0.55754 0.45069 0.40063 0.0
H269 H 0.61752 0.44395 0.60252 0.0
H270 H 0.54117 0.56928 0.62632 0.0
H271 H 0.35881 0.58131 0.44833 0.0
H272 H 0.53097 0.46205 0.57367 0.0
H273 H 0.71377 0.41678 0.56331 0.0
H274 H 0.46151 0.55887 0.45938 0.0
H275 H 0.64819 0.42351 0.35651 0.0
H276 H 0.77352 0.39635 0.49934 0.0
H277 H 0.78139 0.39052 0.43246 0.0
H278 H 0.46677 0.59112 0.68233 0.0
H279 H 0.73552 0.40085 0.37904 0.0
H280 H 0.27576 0.60377 0.50095 0.0
N281 N 0.46605 0.56969 0.58587 0.0
C282 C 0.40576 0.58081 0.58189 0.0
C283 C 0.44834 0.58792 0.65414 0.0
C284 C 0.36372 0.59537 0.61386 0.0
C285 C 0.48966 0.57469 0.62185 0.0
C286 C 0.38455 0.59797 0.65007 0.0
N287 N 0.43349 0.56708 0.5167 0.0
C288 C 0.42456 0.56822 0.48217 0.0
C289 C 0.33153 0.59355 0.54161 0.0
C290 C 0.38973 0.58005 0.54633 0.0
C291 C 0.32 0.59365 0.50574 0.0
C292 C 0.36697 0.58107 0.47598 0.0
H293 H 0.35351 0.6089 0.6753 0.0
H294 H 0.2725 0.6198 0.63357 0.0
H295 H 0.24339 0.61782 0.57008 0.0
O296 O 0.57769 0.57083 0.5036 0.0
O297 O 0.43027 0.52884 0.50635 0.0
O298 O 0.42993 0.49494 0.5247 0.0
O299 O 0.57649 0.58555 0.56459 0.0
O300 O 0.55772 0.52311 0.47153 0.0
O301 O 0.48754 0.48596 0.451 0.0
O302 O 0.4705 0.43505 0.49583 0.0
O303 O 0.61493 0.48436 0.48666 0.0
O304 O 0.62297 0.52793 0.53383 0.0
O305 O 0.4415 0.44461 0.44933 0.0
O306 O 0.49204 0.49449 0.55174 0.0
O307 O 0.56233 0.53124 0.56925 0.0
C308 C 0.39655 0.51133 0.51433 0.0
C309 C 0.56639 0.61761 0.53973 0.0
C310 C 0.5785 0.65688 0.52641 0.0
C311 C 0.51946 0.66783 0.54877 0.0
C312 C 0.50872 0.62962 0.56257 0.0
C313 C 0.48503 0.65429 0.56659 0.0
C314 C 0.60171 0.63149 0.52183 0.0
C315 C 0.5204 0.50466 0.44509 0.0
C316 C 0.59024 0.59116 0.5359 0.0
C317 C 0.30451 0.60821 0.60913 0.0
C318 C 0.28828 0.60724 0.57307 0.0
C319 C 0.65079 0.50535 0.50943 0.0
C320 C 0.44021 0.39876 0.43779 0.0
C321 C 0.4144 0.35252 0.42472 0.0
C322 C 0.44046 0.34439 0.3874 0.0
C323 C 0.46634 0.39004 0.4004 0.0
C324 C 0.41504 0.3798 0.44997 0.0
C325 C 0.46668 0.36301 0.37552 0.0
C326 C 0.53159 0.51292 0.57674 0.0
C327 C 0.43623 0.42744 0.464 0.0
H328 H 0.5009 0.68741 0.55361 0.0
H329 H 0.48242 0.62023 0.57809 0.0
H330 H 0.44048 0.66321 0.58428 0.0
H331 H 0.64695 0.62266 0.50467 0.0
H332 H 0.44086 0.32355 0.36747 0.0
H333 H 0.4858 0.40407 0.39019 0.0
H334 H 0.39431 0.38632 0.47869 0.0
H335 H 0.48679 0.35648 0.34673 0.0
H336 H 0.50261 0.68501 0.99269 0.0
H337 H 0.4472 0.71797 0.97542 0.0
H338 H 0.25638 0.70735 0.02391 0.0
H339 H 0.31186 0.67388 0.04082 0.0
H340 H 0.23471 0.7166 0.95924 0.0
H341 H 0.35885 0.75726 0.0772 0.0
H342 H 0.45921 0.76492 0.11985 0.0
H343 H 0.57674 0.79113 0.04822 0.0
H344 H 0.47741 0.78318 0.00474 0.0
H345 H 0.1113 0.84101 0.96577 0.0
H346 H 0.14375 0.80682 0.98762 0.0
H347 H 0.35068 0.8064 0.94725 0.0
H348 H 0.31888 0.84052 0.92607 0.0
H349 H 0.35231 0.80401 0.01501 0.0
H350 H 0.23137 0.75933 0.89418 0.0
H351 H 0.13179 0.75082 0.85076 0.0
H352 H 1.00769 0.73253 0.9284 0.0
H353 H 0.10639 0.74129 0.97254 0.0
C354 C 0.44844 0.68928 0.99891 0.0
C355 C 0.41168 0.67705 0.01838 0.0
C356 C 0.41686 0.70822 0.98921 0.0
C357 C 0.34802 0.71568 0.99923 0.0
C358 C 0.30965 0.70207 0.01612 0.0
C359 C 0.34127 0.68288 0.02563 0.0
C360 C 0.31861 0.73903 0.99468 0.0
C361 C 0.25972 0.73583 0.97195 0.0
C362 C 0.35126 0.76418 0.01111 0.0
C363 C 0.41079 0.76944 0.03756 0.0
C364 C 0.40621 0.76451 0.07042 0.0
C365 C 0.46292 0.7689 0.09474 0.0
C366 C 0.52434 0.77846 0.08672 0.0
C367 C 0.52913 0.78371 0.05439 0.0
C368 C 0.47262 0.77928 0.02991 0.0
C369 C 0.16392 0.8339 0.96222 0.0
C370 C 0.2124 0.8433 0.94393 0.0
C371 C 0.18229 0.81419 0.97436 0.0
C372 C 0.24951 0.80367 0.96857 0.0
C373 C 0.29849 0.81402 0.95193 0.0
C374 C 0.28016 0.83349 0.93968 0.0
C375 C 0.26951 0.78145 0.97865 0.0
C376 C 0.3267 0.78489 0.00263 0.0
C377 C 0.23516 0.75662 0.96342 0.0
C378 C 0.17597 0.75127 0.93686 0.0
C379 C 0.18268 0.7537 0.90213 0.0
C380 C 0.12644 0.7488 0.87737 0.0
C381 C 0.06339 0.74122 0.88688 0.0
C382 C 0.05652 0.73846 0.92111 0.0
C383 C 0.11259 0.74338 0.94601 0.0
H384 H 1.01991 0.73743 0.86766 0.0
H385 H 0.5682 0.78185 0.10558 0.0
H386 H 0.64736 0.34264 0.965 0.0
H387 H 0.66198 0.3008 0.9708 0.0
H388 H 0.83568 0.3335 0.04583 0.0
H389 H 0.82048 0.37563 0.04106 0.0
H390 H 0.86267 0.28339 0.99037 0.0
H391 H 0.68484 0.32679 0.08215 0.0
H392 H 0.57384 0.34984 0.10424 0.0
H393 H 0.4669 0.28142 0.0233 0.0
H394 H 0.5774 0.2581 1.00028 0.0
H395 H 0.89832 0.18314 0.05776 0.0
H396 H 0.88179 0.22531 0.05315 0.0
H397 H 0.6997 0.19424 0.98463 0.0
H398 H 0.71594 0.152 0.98908 0.0
H399 H 0.67656 0.24366 0.03668 0.0
H400 H 0.85318 0.20036 0.9442 0.0
H401 H 0.96379 0.17735 0.92071 0.0
H402 H 0.0724 0.24534 0.0015 0.0
H403 H 0.96233 0.26863 0.02584 0.0
C404 C 0.68811 0.34115 0.98321 0.0
C405 C 0.73267 0.3627 0.00256 0.0
C406 C 0.69659 0.3171 0.98635 0.0
C407 C 0.74978 0.31398 0.0089 0.0
C408 C 0.79447 0.33535 0.02811 0.0
C409 C 0.78581 0.35944 0.02519 0.0
C410 C 0.75925 0.2884 0.01221 0.0
C411 C 0.82229 0.27488 1.00099 0.0
C412 C 0.70606 0.27692 0.02518 0.0
C413 C 0.63948 0.2908 0.03922 0.0
C414 C 0.6377 0.31673 0.06884 0.0
C415 C 0.57487 0.32984 0.08157 0.0
C416 C 0.51337 0.31713 0.06511 0.0
C417 C 0.51459 0.29126 0.03598 0.0
C418 C 0.57731 0.27808 0.0231 0.0
C419 C 0.85511 0.18514 0.04137 0.0
C420 C 0.80862 0.16404 0.0237 0.0
C421 C 0.84563 0.20934 0.0388 0.0
C422 C 0.78983 0.21298 0.01818 0.0
C423 C 0.74304 0.19203 1.00078 0.0
C424 C 0.75236 0.16786 0.00343 0.0
C425 C 0.78012 0.23859 0.01485 0.0
C426 C 0.717 0.25214 0.02606 0.0
C427 C 0.83319 0.25007 0.00173 0.0
C428 C 0.89947 0.23613 0.9871 0.0
C429 C 0.90062 0.21033 0.95717 0.0
C430 C 0.96322 0.19724 0.94366 0.0
C431 C 1.02507 0.20984 0.95967 0.0
C432 C 1.02445 0.23559 0.98916 0.0
C433 C 0.96197 0.24875 0.0028 0.0
H434 H 0.07349 0.19969 0.94917 0.0
H435 H 0.46479 0.32731 0.07499 0.0
H436 H 0.25091 0.17015 0.54008 0.0
H437 H 0.30922 0.20305 0.52343 0.0
H438 H 0.1402 0.20036 0.44913 0.0
H439 H 0.08126 0.1681 0.4665 0.0
H440 H 0.27643 0.20133 0.41835 0.0
H441 H 0.13898 0.24755 0.53309 0.0
H442 H 0.10402 0.25789 0.59948 0.0
H443 H 0.30963 0.28296 0.6389 0.0
H444 H 0.34607 0.27233 0.57257 0.0
H445 H 0.31307 0.3168 0.38923 0.0
H446 H 0.2697 0.28163 0.40536 0.0
H447 H 0.4097 0.30641 0.50149 0.0
H448 H 0.4505 0.34264 0.48637 0.0
H449 H 0.29836 0.29255 0.52225 0.0
H450 H 0.43815 0.24956 0.41142 0.0
H451 H 0.48018 0.23798 0.34584 0.0
H452 H 0.28312 0.20507 0.2997 0.0
H453 H 0.23957 0.2168 0.36507 0.0
C454 C 0.22716 0.17616 0.51951 0.0
C455 C 0.16192 0.16648 0.50432 0.0
C456 C 0.26017 0.19506 0.51024 0.0
C457 C 0.22884 0.2043 0.48521 0.0
C458 C 0.16537 0.19352 0.46844 0.0
C459 C 0.13184 0.17506 0.47828 0.0
C460 C 0.25973 0.22633 0.4782 0.0
C461 C 0.28085 0.22134 0.44095 0.0
C462 C 0.26749 0.25224 0.50795 0.0
C463 C 0.24542 0.25885 0.54782 0.0
C464 C 0.17687 0.25504 0.55586 0.0
C465 C 0.15676 0.26099 0.59348 0.0
C466 C 0.20462 0.271 0.62337 0.0
C467 C 0.27265 0.27515 0.6157 0.0
C468 C 0.29305 0.26918 0.57811 0.0
C469 C 0.33424 0.31481 0.41394 0.0
C470 C 0.38545 0.33232 0.4364 0.0
C471 C 0.30988 0.29452 0.423 0.0
C472 C 0.33769 0.29065 0.45403 0.0
C473 C 0.38755 0.30871 0.47723 0.0
C474 C 0.4109 0.32943 0.46862 0.0
C475 C 0.31466 0.26779 0.46204 0.0
C476 C 0.29484 0.27257 0.49954 0.0
C477 C 0.30935 0.24151 0.4326 0.0
C478 C 0.33544 0.23426 0.39319 0.0
C479 C 0.40364 0.24 0.38731 0.0
C480 C 0.42775 0.2334 0.35017 0.0
C481 C 0.38431 0.22085 0.31863 0.0
C482 C 0.3167 0.21482 0.32416 0.0
C483 C 0.29229 0.22141 0.36125 0.0
H484 H 0.40307 0.21576 0.2899 0.0
H485 H 0.18895 0.27561 0.65249 0.0
H486 H 0.7171 0.86689 0.49712 0.0
H487 H 0.68735 0.82654 0.50346 0.0
H488 H 0.88411 0.79222 0.45628 0.0
H489 H 0.91278 0.83214 0.4475 0.0
H490 H 0.79054 0.75544 0.42729 0.0
H491 H 0.84688 0.81614 0.55472 0.0
H492 H 0.84505 0.85822 0.61345 0.0
H493 H 0.62895 0.84887 0.62657 0.0
H494 H 0.62925 0.8069 0.56762 0.0
H495 H 0.71813 0.66507 0.52584 0.0
H496 H 0.77591 0.69887 0.51097 0.0
H497 H 0.58144 0.72061 0.47842 0.0
H498 H 0.52401 0.68637 0.4915 0.0
H499 H 0.69142 0.7613 0.54928 0.0
H500 H 0.64016 0.70307 0.41199 0.0
H501 H 0.65022 0.65956 0.3561 0.0
H502 H 0.87032 0.66348 0.3664 0.0
H503 H 0.86131 0.70683 0.42289 0.0
C504 C 0.75406 0.85074 0.48763 0.0
C505 C 0.81744 0.85296 0.47161 0.0
C506 C 0.73724 0.82769 0.49182 0.0
C507 C 0.78381 0.80632 0.48098 0.0
C508 C 0.84727 0.8084 0.46506 0.0
C509 C 0.86394 0.83144 0.46047 0.0
C510 C 0.76521 0.78183 0.48588 0.0
C511 C 0.76978 0.75682 0.45419 0.0
C512 C 0.73846 0.78325 0.52097 0.0
C513 C 0.73803 0.80844 0.55657 0.0
C514 C 0.79887 0.82314 0.56999 0.0
C515 C 0.79811 0.84696 0.60334 0.0
C516 C 0.7369 0.85624 0.62369 0.0
C517 C 0.67633 0.84167 0.61077 0.0
C518 C 0.67678 0.81783 0.57742 0.0
C519 C 0.68808 0.67642 0.51428 0.0
C520 C 0.61626 0.67318 0.5103 0.0
C521 C 0.72109 0.69586 0.50608 0.0
C522 C 0.68283 0.71227 0.49372 0.0
C523 C 0.61191 0.70813 0.48785 0.0
C524 C 0.57916 0.6886 0.49554 0.0
C525 C 0.71472 0.73547 0.49052 0.0
C526 C 0.71285 0.76013 0.52262 0.0
C527 C 0.7447 0.73369 0.45614 0.0
C528 C 0.75002 0.70794 0.42192 0.0
C529 C 0.69062 0.6945 0.4026 0.0
C530 C 0.69613 0.66991 0.37076 0.0
C531 C 0.76086 0.65871 0.35779 0.0
C532 C 0.82021 0.67214 0.37654 0.0
C533 C 0.81492 0.69671 0.40846 0.0
H534 H 0.76504 0.63967 0.33314 0.0
H535 H 0.73642 0.87469 0.6495 0.0
H536 H 0.25515 0.05237 0.04735 0.0
H537 H 0.38048 0.05124 0.04472 0.0
H538 H 0.37378 0.96824 0.96577 0.0
H539 H 0.24743 0.96981 0.96752 0.0
H540 H 0.46955 0.97695 0.02042 0.0
H541 H 0.41196 0.01588 0.93484 0.0
H542 H 0.35634 0.04773 0.91451 0.0
H543 H 0.4647 0.11212 0.00256 0.0
H544 H 0.52011 0.0807 0.02391 0.0
H545 H 0.82187 0.98231 0.94439 0.0
H546 H 0.69597 0.98023 0.94596 0.0
H547 H 0.69704 0.03678 0.06473 0.0
H548 H 0.82296 0.03722 0.06432 0.0
H549 H 0.60535 0.03996 0.98805 0.0
H550 H 0.65066 1.00037 0.07816 0.0
H551 H 0.70025 0.96783 0.09905 0.0
H552 H 0.60987 0.904 0.00159 0.0
H553 H 0.56213 0.93618 0.97927 0.0
C554 C 0.28005 0.03425 0.02828 0.0
C555 C 0.24107 0.01161 0.00638 0.0
C556 C 0.35207 0.03342 0.02724 0.0
C557 C 0.38711 0.00978 0.0044 0.0
C558 C 0.34824 0.98682 0.98338 0.0
C559 C 0.27602 0.98772 0.98438 0.0
C560 C 0.46409 0.00898 0.00311 0.0
C561 C 0.49906 0.99057 0.01292 0.0
C562 C 0.50315 0.02696 0.99387 0.0
C563 C 0.46984 0.04593 0.98115 0.0
C564 C 0.42355 0.03685 0.95008 0.0
C565 C 0.39216 0.05482 0.93831 0.0
C566 C 0.40718 0.08191 0.95714 0.0
C567 C 0.45331 0.09111 0.98792 0.0
C568 C 0.48473 0.07323 0.99987 0.0
C569 C 0.79558 0.99356 0.97121 0.0
C570 C 0.83299 0.00944 0.00442 0.0
C571 C 0.72344 0.9926 0.97195 0.0
C572 C 0.68702 1.00797 0.00567 0.0
C573 C 0.72401 0.0243 0.03861 0.0
C574 C 0.79611 0.02468 0.0382 0.0
C575 C 0.61032 1.00818 0.00583 0.0
C576 C 0.57557 0.02638 0.99553 0.0
C577 C 0.57142 0.99007 0.01468 0.0
C578 C 0.60431 0.97066 0.02654 0.0
C579 C 0.64306 0.97938 0.06056 0.0
C580 C 0.67035 0.96101 0.07285 0.0
C581 C 0.6581 0.93387 0.05171 0.0
C582 C 0.6192 0.92503 0.01798 0.0
C583 C 0.59248 0.94331 0.00535 0.0
H584 H 0.67894 0.91968 0.06137 0.0
H585 H 0.38292 0.09578 0.94794 0.0
H586 H 0.27456 0.96369 0.44303 0.0
H587 H 0.40014 0.96349 0.44257 0.0
H588 H 0.40155 0.0354 0.54776 0.0
H589 H 0.27596 0.03545 0.54891 0.0
H590 H 0.48586 0.03941 0.49525 0.0
H591 H 0.45293 0.97626 0.54852 0.0
H592 H 0.4105 0.936 0.55314 0.0
H593 H 0.50046 0.88713 0.44369 0.0
H594 H 0.54391 0.92715 0.43858 0.0
H595 H 0.84219 0.03266 0.5488 0.0
H596 H 0.71632 0.03378 0.54703 0.0
H597 H 0.71883 0.9755 0.42917 0.0
H598 H 0.84478 0.97577 0.42977 0.0
H599 H 0.6337 0.96409 0.48644 0.0
H600 H 0.66576 0.02616 0.4324 0.0
H601 H 0.70517 0.06587 0.42526 0.0
H602 H 0.6154 0.1162 0.53408 0.0
H603 H 0.57536 0.07669 0.54185 0.0
C604 C 0.30135 0.97917 0.46654 0.0
C605 C 0.26467 0.99941 0.49624 0.0
C606 C 0.37343 0.97906 0.46617 0.0
C607 C 0.41058 0.99931 0.49532 0.0
C608 C 0.37416 0.01953 0.52497 0.0
C609 C 0.30216 0.01953 0.52554 0.0
C610 C 0.48714 1.00027 0.49385 0.0
C611 C 0.51813 0.02309 0.49399 0.0
C612 C 0.52948 0.97867 0.49085 0.0
C613 C 0.50102 0.95468 0.49301 0.0
C614 C 0.46309 0.95694 0.52528 0.0
C615 C 0.4393 0.93416 0.5281 0.0
C616 C 0.45277 0.90902 0.49871 0.0
C617 C 0.49013 0.90661 0.46645 0.0
C618 C 0.51455 0.92932 0.46363 0.0
C619 C 0.81618 0.02064 0.52218 0.0
C620 C 0.85382 1.00407 0.48947 0.0
C621 C 0.74414 0.02116 0.5213 0.0
C622 C 0.70827 1.00469 0.48798 0.0
C623 C 0.74554 0.98834 0.45518 0.0
C624 C 0.81754 0.98838 0.45572 0.0
C625 C 0.63199 1.0033 0.48823 0.0
C626 C 0.60122 0.98041 0.48785 0.0
C627 C 0.58982 0.02478 0.49089 0.0
C628 C 0.61841 0.04848 0.48793 0.0
C629 C 0.65542 0.04568 0.45511 0.0
C630 C 0.67728 0.06815 0.45078 0.0
C631 C 0.66268 0.09354 0.47916 0.0
C632 C 0.62648 0.09651 0.51206 0.0
C633 C 0.60415 0.07409 0.51643 0.0
H634 H 0.67974 0.11092 0.47576 0.0
H635 H 0.43414 0.8914 0.50092 0.0
H636 H 0.73063 0.5476 0.06435 0.0
H637 H 0.85617 0.54859 0.06215 0.0
H638 H 0.85388 0.48296 0.94982 0.0
H639 H 0.7281 0.48287 0.95076 0.0
H640 H 0.94046 0.47554 0.00448 0.0
H641 H 0.90475 0.53753 0.95061 0.0
H642 H 0.86206 0.57716 0.94394 0.0
H643 H 0.95154 0.62765 0.05275 0.0
H644 H 0.99511 0.58825 0.05997 0.0
H645 H 0.29838 0.47577 0.9613 0.0
H646 H 0.17287 0.47539 0.96105 0.0
H647 H 0.17069 0.54727 0.06629 0.0
H648 H 0.29636 0.54748 0.06729 0.0
H649 H 0.08555 0.55118 0.01367 0.0
H650 H 0.11746 0.48844 0.06832 0.0
H651 H 0.15764 0.44834 0.07464 0.0
H652 H 0.07487 0.39895 0.96344 0.0
H653 H 0.03335 0.43879 0.95673 0.0
C654 C 0.75651 0.53389 0.0387 0.0
C655 C 0.71892 0.5153 0.00765 0.0
C656 C 0.82845 0.53436 0.0376 0.0
C657 C 0.86437 0.5159 0.00576 0.0
C658 C 0.82716 0.49742 0.97464 0.0
C659 C 0.75522 0.49734 0.97534 0.0
C660 C 0.94071 0.51471 0.00615 0.0
C661 C 0.97231 0.49191 0.00588 0.0
C662 C 0.9821 0.53631 0.00898 0.0
C663 C 0.95252 0.55996 0.00601 0.0
C664 C 0.91458 0.55707 0.97334 0.0
C665 C 0.89074 0.57949 0.96931 0.0
C666 C 0.90416 0.60491 0.99788 0.0
C667 C 0.94135 0.60795 0.0306 0.0
C668 C 0.96576 0.58559 0.03464 0.0
C669 C 0.27146 0.49122 0.98487 0.0
C670 C 0.30792 0.51148 0.01456 0.0
C671 C 0.19944 0.49098 0.98464 0.0
C672 C 0.16212 0.51116 0.01386 0.0
C673 C 0.19828 0.53143 0.04348 0.0
C674 C 0.27029 0.53154 0.04394 0.0
C675 C 0.0856 0.51204 0.01232 0.0
C676 C 0.05385 0.53479 0.01232 0.0
C677 C 0.04403 0.49036 0.00918 0.0
C678 C 0.07298 0.46655 0.01188 0.0
C679 C 0.10849 0.46903 0.04507 0.0
C680 C 0.13084 0.44635 0.04888 0.0
C681 C 0.11863 0.42111 0.01949 0.0
C682 C 0.08414 0.4185 0.9862 0.0
C683 C 0.06094 0.44111 0.98245 0.0
H684 H 0.13617 0.40358 0.02247 0.0
H685 H 0.8855 0.62225 0.99474 0.0
H686 H 0.30752 0.53775 0.48663 0.0
H687 H 0.18174 0.5373 0.48643 0.0
H688 H 0.1844 0.47998 0.53433 0.0
H689 H 0.31026 0.48157 0.53674 0.0
H690 H 0.09462 0.46667 0.46884 0.0
H691 H 0.13902 0.53902 0.59185 0.0
H692 H 0.17912 0.58224 0.64078 0.0
H693 H 0.07743 0.6224 0.58127 0.0
H694 H 0.03723 0.5794 0.53178 0.0
H695 H 0.73961 0.46928 0.51632 0.0
H696 H 0.86504 0.46904 0.51416 0.0
H697 H 0.86022 0.54011 0.49504 0.0
H698 H 0.73422 0.54044 0.49806 0.0
H699 H 0.9525 0.546 0.54466 0.0
H700 H 0.90342 0.47479 0.4228 0.0
H701 H 0.85051 0.43271 0.37801 0.0
H702 H 0.95683 0.39085 0.43356 0.0
H703 H 1.00958 0.43277 0.47912 0.0
C704 C 0.28161 0.52565 0.49815 0.0
C705 C 0.31961 0.51036 0.51272 0.0
C706 C 0.20941 0.52516 0.49763 0.0
C707 C 0.17328 0.50876 0.51067 0.0
C708 C 0.21094 0.49288 0.52425 0.0
C709 C 0.28311 0.49384 0.52558 0.0
C710 C 0.09641 0.50782 0.50945 0.0
C711 C 0.06347 0.48395 0.48569 0.0
C712 C 0.05548 0.53049 0.53054 0.0
C713 C 0.08564 0.55597 0.55794 0.0
C714 C 0.12626 0.55702 0.58881 0.0
C715 C 0.14845 0.58149 0.61684 0.0
C716 C 0.1302 0.60504 0.61431 0.0
C717 C 0.09107 0.60415 0.58332 0.0
C718 C 0.06865 0.57974 0.55527 0.0
C719 C 0.76514 0.48434 0.51058 0.0
C720 C 0.72694 0.50442 0.50639 0.0
C721 C 0.83723 0.48434 0.50952 0.0
C722 C 0.87296 0.50427 0.50364 0.0
C723 C 0.83447 0.52441 0.49947 0.0
C724 C 0.76238 0.52457 0.5011 0.0
C725 C 0.95015 0.50494 0.50375 0.0
C726 C 0.98334 0.52874 0.52737 0.0
C727 C 0.99115 0.48228 0.48215 0.0
C728 C 0.96014 0.45697 0.45454 0.0
C729 C 0.91525 0.45664 0.42561 0.0
C730 C 0.88534 0.43281 0.40006 0.0
C731 C 0.90043 0.40912 0.40289 0.0
C732 C 0.94534 0.40922 0.43135 0.0
C733 C 0.9753 0.433 0.45703 0.0
H734 H 0.87725 0.39069 0.38307 0.0
H735 H 0.14659 0.62401 0.63629 0.0
H736 H 0.15871 0.01625 0.39704 0.0
H737 H 0.15445 0.01979 0.33596 0.0
H738 H 0.95434 0.98289 0.31277 0.0
H739 H 0.95965 0.97842 0.37332 0.0
H740 H 1.02575 0.96504 0.24971 0.0
H741 H 0.97711 0.05186 0.34834 0.0
H742 H 0.99895 0.09153 0.40882 0.0
H743 H 0.18661 0.10596 0.36256 0.0
H744 H 0.16651 0.06622 0.30196 0.0
H745 H 0.93285 0.02544 0.11833 0.0
H746 H 0.93523 0.02254 0.18039 0.0
H747 H 0.15413 0.00879 0.16916 0.0
H748 H 0.1514 0.01038 0.1064 0.0
H749 H 0.06711 0.05297 0.24932 0.0
H750 H 0.11908 0.96127 0.15403 0.0
H751 H 0.0958 0.92034 0.09574 0.0
H752 H 0.89527 0.91532 0.13857 0.0
H753 H 0.91659 0.95683 0.19657 0.0
C754 C 0.11417 0.00864 0.37868 0.0
C755 C 0.05945 0.99711 0.38985 0.0
C756 C 0.11151 0.01086 0.34394 0.0
C757 C 0.0533 1.00222 0.32018 0.0
C758 C 0.99962 0.98983 0.33071 0.0
C759 C 1.00277 0.9872 0.36521 0.0
C760 C 0.04822 1.00635 0.28459 0.0
C761 C 0.03405 0.98436 0.24981 0.0
C762 C 0.05938 0.03155 0.28457 0.0
C763 C 0.07055 0.05591 0.32066 0.0
C764 C 1.02319 0.06342 0.35109 0.0
C765 C 0.03526 0.0859 0.38541 0.0
C766 C 0.09422 0.10115 0.38957 0.0
C767 C 0.14101 0.09408 0.35931 0.0
C768 C 0.12926 0.07161 0.32495 0.0
C769 C 0.98146 0.02217 0.1295 0.0
C770 C 0.04199 0.01811 0.1079 0.0
C771 C 0.98271 0.02037 0.16466 0.0
C772 C 0.04472 0.01511 0.1789 0.0
C773 C 0.10574 0.01254 0.1583 0.0
C774 C 0.10419 0.01354 0.12268 0.0
C775 C 0.04575 0.01161 0.21482 0.0
C776 C 0.05863 0.03376 0.24954 0.0
C777 C 0.03289 0.98665 0.21493 0.0
C778 C 1.01883 0.96251 0.17919 0.0
C779 C 0.06939 0.95184 0.15059 0.0
C780 C 0.05675 0.92841 0.11772 0.0
C781 C 0.99411 0.91522 0.11345 0.0
C782 C 0.9438 0.92554 0.14193 0.0
C783 C 0.95599 0.9491 0.17468 0.0
H784 H 0.98448 0.89705 0.08803 0.0
H785 H 0.10358 0.11846 0.4162 0.0
H786 H 0.98797 0.04299 0.91126 0.0
H787 H 0.99464 0.04189 0.84751 0.0
H788 H 0.12506 0.97245 0.81016 0.0
H789 H 0.11845 0.97327 0.87417 0.0
H790 H 0.09922 0.04675 0.80686 0.0
H791 H 0.09017 0.93308 0.71824 0.0
H792 H 0.04006 0.89347 0.72188 0.0
H793 H 0.87704 0.94147 0.79325 0.0
H794 H 0.92664 0.98131 0.79038 0.0
H795 H 0.16667 0.02221 0.61317 0.0
H796 H 0.1691 0.02228 0.67677 0.0
H797 H 0.96244 0.9911 0.65923 0.0
H798 H 0.96176 0.98953 0.59481 0.0
H799 H 0.02932 0.96711 0.6907 0.0
H800 H 1.00773 0.06033 0.71928 0.0
H801 H 0.04052 0.10277 0.71785 0.0
H802 H 0.23615 0.10012 0.76802 0.0
H803 H 0.20466 0.0577 0.76979 0.0
C804 C 1.01823 0.02744 0.88963 0.0
C805 C 0.05254 1.00815 0.89795 0.0
C806 C 1.02212 0.02692 0.85315 0.0
C807 C 0.06001 1.00703 0.82399 0.0
C808 C 0.09485 0.98782 0.83213 0.0
C809 C 0.09115 0.98836 0.86877 0.0
C810 C 0.06243 1.00649 0.78511 0.0
C811 C 0.08418 0.02932 0.78139 0.0
C812 C 0.04175 0.98395 0.75201 0.0
C813 C 1.01251 0.96015 0.75441 0.0
C814 C 0.04379 0.93514 0.73481 0.0
C815 C 1.01558 0.91268 0.73684 0.0
C816 C 0.9557 0.91497 0.75804 0.0
C817 C 0.92386 0.93974 0.77722 0.0
C818 C 0.95215 0.96228 0.77554 0.0
C819 C 0.12175 0.0155 0.62309 0.0
C820 C 0.06391 1.00597 0.59929 0.0
C821 C 0.12299 0.01565 0.6595 0.0
C822 C 0.0655 1.00711 0.67327 0.0
C823 C 1.00757 0.99772 0.64938 0.0
C824 C 1.00705 0.99692 0.61263 0.0
C825 C 0.06565 1.00752 0.71221 0.0
C826 C 0.0448 0.98457 0.716 0.0
C827 C 0.08512 0.0303 0.74555 0.0
C828 C 0.10409 0.05573 0.74433 0.0
C829 C 0.0579 0.06872 0.72978 0.0
C830 C 0.07621 0.09277 0.72893 0.0
C831 C 0.14045 0.10403 0.74261 0.0
C832 C 0.18645 0.09134 0.75736 0.0
C833 C 0.16835 0.06734 0.75838 0.0
H834 H 0.1545 0.12263 0.74189 0.0
H835 H 0.9338 0.89755 0.75948 0.0
H836 H 0.61347 0.52652 0.41441 0.0
H837 H 0.60814 0.52866 0.35257 0.0
H838 H 0.41617 0.48587 0.32741 0.0
H839 H 0.42259 0.4828 0.38905 0.0
H840 H 0.49423 0.46826 0.26603 0.0
H841 H 0.428 0.55604 0.36008 0.0
H842 H 0.44445 0.59782 0.41839 0.0
H843 H 0.62827 0.61386 0.3707 0.0
H844 H 0.61358 0.5721 0.31229 0.0
H845 H 0.42524 0.54397 0.13932 0.0
H846 H 0.42232 0.54214 0.20176 0.0
H847 H 0.59552 0.48831 0.16842 0.0
H848 H 0.5985 0.48986 0.10607 0.0
H849 H 0.5159 0.55511 0.25937 0.0
H850 H 0.57869 0.44394 0.20601 0.0
H851 H 0.56673 0.40205 0.1475 0.0
H852 H 0.38834 0.4331 0.11449 0.0
H853 H 0.39904 0.4752 0.17287 0.0
C854 C 0.5701 0.5175 0.39571 0.0
C855 C 0.51812 0.50463 0.40669 0.0
C856 C 0.56694 0.51889 0.36042 0.0
C857 C 0.51089 0.50803 0.33568 0.0
C858 C 0.4597 0.49458 0.34614 0.0
C859 C 0.4634 0.4928 0.38131 0.0
C860 C 0.50619 0.51053 0.2988 0.0
C861 C 0.4986 0.48729 0.26466 0.0
C862 C 0.51196 0.53538 0.29691 0.0
C863 C 0.51988 0.5608 0.33184 0.0
C864 C 0.4721 0.5684 0.36207 0.0
C865 C 0.48113 0.59207 0.39516 0.0
C866 C 0.53744 0.6084 0.39831 0.0
C867 C 0.58471 0.60118 0.36826 0.0
C868 C 0.576 0.57753 0.33513 0.0
C869 C 0.46308 0.53194 0.14543 0.0
C870 C 0.51209 0.51707 0.11772 0.0
C871 C 0.46126 0.53087 0.18108 0.0
C872 C 0.50807 0.5148 0.18955 0.0
C873 C 0.55806 0.50046 0.16226 0.0
C874 C 0.55981 0.50145 0.12665 0.0
C875 C 0.50455 0.51285 0.22679 0.0
C876 C 0.51084 0.53616 0.2609 0.0
C877 C 0.49777 0.4881 0.22872 0.0
C878 C 0.48998 0.46278 0.19372 0.0
C879 C 0.53675 0.4418 0.18634 0.0
C880 C 0.53029 0.41805 0.15314 0.0
C881 C 0.47696 0.41497 0.12721 0.0
C882 C 0.42986 0.43562 0.13448 0.0
C883 C 0.43616 0.45944 0.16759 0.0
H884 H 0.47203 0.39657 0.10153 0.0
H885 H 0.54435 0.62667 0.42399 0.0
H886 H 0.64248 0.51943 0.62341 0.0
H887 H 0.6427 0.5187 0.68702 0.0
H888 H 0.42174 0.51189 0.68257 0.0
H889 H 0.42159 0.51146 0.61859 0.0
H890 H 0.51731 0.55586 0.75751 0.0
H891 H 0.44622 0.46427 0.67306 0.0
H892 H 0.4571 0.42008 0.61872 0.0
H893 H 0.65955 0.41126 0.65675 0.0
H894 H 0.65037 0.45576 0.71085 0.0
H895 H 0.42003 0.52952 0.91475 0.0
H896 H 0.426 0.53106 0.85233 0.0
H897 H 0.62026 0.48931 0.82978 0.0
H898 H 0.61336 0.48699 0.89171 0.0
H899 H 0.5448 0.47042 0.76804 0.0
H900 H 0.60675 0.55862 0.85916 0.0
H901 H 0.59044 0.60093 0.91667 0.0
H902 H 0.40471 0.61597 0.86866 0.0
H903 H 0.41943 0.5737 0.81099 0.0
C904 C 0.59413 0.518 0.63631 0.0
C905 C 0.53207 0.51543 0.61637 0.0
C906 C 0.59429 0.51743 0.67235 0.0
C907 C 0.53227 0.51487 0.68904 0.0
C908 C 0.47009 0.5135 0.66982 0.0
C909 C 0.47007 0.51333 0.63347 0.0
C910 C 0.53199 0.51362 0.7266 0.0
C911 C 0.52299 0.53723 0.75997 0.0
C912 C 0.54053 0.48933 0.72959 0.0
C913 C 0.54821 0.46358 0.69546 0.0
C914 C 0.49369 0.45321 0.6693 0.0
C915 C 0.49927 0.42798 0.63876 0.0
C916 C 0.55887 0.41282 0.63436 0.0
C917 C 0.61334 0.42299 0.66025 0.0
C918 C 0.60808 0.44825 0.69074 0.0
C919 C 0.46377 0.52052 0.89634 0.0
C920 C 0.51616 0.50808 0.90801 0.0
C921 C 0.46744 0.52161 0.86081 0.0
C922 C 0.52434 0.51081 0.83666 0.0
C923 C 0.57599 0.49787 0.84796 0.0
C924 C 0.57187 0.49646 0.88328 0.0
C925 C 0.5296 0.5127 0.79939 0.0
C926 C 0.53979 0.48921 0.76593 0.0
C927 C 0.52203 0.53715 0.79644 0.0
C928 C 0.51396 0.56286 0.83082 0.0
C929 C 0.56225 0.57088 0.86092 0.0
C930 C 0.5533 0.59485 0.89355 0.0
C931 C 0.49648 0.61104 0.89638 0.0
C932 C 0.44867 0.60339 0.86646 0.0
C933 C 0.45736 0.57946 0.83375 0.0
H934 H 0.48958 0.62955 0.92171 0.0
H935 H 0.56303 0.39327 0.61076 0.0
loop_
_geom_bond_atom_site_label_1
_geom_bond_atom_site_label_2
_geom_bond_distance
_geom_bond_site_symmetry_2
_ccdc_geom_bond_type
Tb0 N29 2.617 . S
Tb0 N35 2.572 . S
Tb0 O44 2.465 1_655 S
Tb0 O45 2.387 . S
Tb0 O47 2.428 1_655 S
Tb0 O48 2.308 1_556 S
Tb0 O52 2.349 1_655 S
Tb0 O55 2.393 1_655 S
Tb0 C64 2.802 1_655 S
C1 N2 1.379 . S
C1 C4 1.416 . S
C1 C8 1.424 . S
N2 C1 1.379 . S
N2 C5 1.334 . S
N2 Tb11 2.617 . S
C3 C5 1.390 . S
C3 C6 1.339 . S
C3 H23 0.930 . S
C4 C1 1.416 . S
C4 C6 1.416 . S
C4 C10 1.448 . S
C5 N2 1.334 . S
C5 C3 1.390 . S
C5 H16 0.930 . S
C6 C3 1.339 . S
C6 C4 1.416 . S
C6 H27 0.930 . S
C7 C8 1.413 . S
C7 C9 1.427 . S
C7 C13 1.416 . S
C8 C1 1.424 . S
C8 C7 1.413 . S
C8 N12 1.361 . S
C9 C7 1.427 . S
C9 C10 1.328 . S
C9 H24 0.929 . S
C10 C4 1.448 . S
C10 C9 1.328 . S
C10 H25 0.930 . S
Tb11 N2 2.617 . S
Tb11 N12 2.572 . S
Tb11 O46 2.349 1_455 S
Tb11 O49 2.393 1_455 S
Tb11 O50 2.465 1_455 S
Tb11 O51 2.387 . S
Tb11 O53 2.428 1_455 S
Tb11 O54 2.308 1_554 S
Tb11 C75 2.802 1_455 S
N12 C8 1.361 . S
N12 Tb11 2.572 . S
N12 C14 1.340 1_554 S
C13 C7 1.416 . S
C13 C15 1.332 1_554 S
C13 H21 0.931 1_554 S
C14 N12 1.340 1_556 S
C14 C15 1.407 . S
C14 H20 0.930 . S
C15 C13 1.332 1_556 S
C15 C14 1.407 . S
C15 H17 0.929 . S
H16 C5 0.930 . S
H17 C15 0.929 . S
H18 C33 0.930 . S
H19 C40 0.929 . S
H20 C14 0.930 . S
H21 C13 0.931 1_556 S
H22 C36 0.930 . S
H23 C3 0.930 . S
H24 C9 0.929 . S
H25 C10 0.930 . S
H26 C31 0.930 . S
H27 C6 0.930 . S
H28 C39 0.931 1_554 S
N29 Tb0 2.617 . S
N29 C30 1.379 . S
N29 C33 1.334 . S
C30 N29 1.379 . S
C30 C32 1.416 . S
C30 C38 1.424 . S
C31 H26 0.930 . S
C31 C33 1.390 . S
C31 C34 1.339 . S
C32 C30 1.416 . S
C32 C34 1.416 . S
C32 C65 1.448 . S
C33 H18 0.930 . S
C33 N29 1.334 . S
C33 C31 1.390 . S
C34 C31 1.339 . S
C34 C32 1.416 . S
C34 H41 0.930 . S
N35 Tb0 2.572 . S
N35 C36 1.340 1_556 S
N35 C38 1.361 . S
C36 H22 0.930 . S
C36 N35 1.340 1_554 S
C36 C40 1.407 . S
C37 C38 1.413 . S
C37 C39 1.416 . S
C37 C66 1.427 . S
C38 C30 1.424 . S
C38 N35 1.361 . S
C38 C37 1.413 . S
C39 H28 0.931 1_556 S
C39 C37 1.416 . S
C39 C40 1.332 1_556 S
C40 H19 0.929 . S
C40 C36 1.407 . S
C40 C39 1.332 1_554 S
H41 C34 0.930 . S
H42 C65 0.930 . S
H43 C66 0.929 . S
O44 Tb0 2.465 1_455 S
O44 C64 1.264 . S
O45 Tb0 2.387 . S
O45 C56 1.264 1_565 S
O46 Tb11 2.349 1_655 S
O46 C56 1.243 1_554 S
O47 Tb0 2.428 1_455 S
O47 C64 1.256 . S
O48 Tb0 2.308 1_554 S
O48 C63 1.266 1_565 S
O49 Tb11 2.393 1_655 S
O49 C63 1.248 . S
O50 Tb11 2.465 1_655 S
O50 C75 1.264 . S
O51 Tb11 2.387 . S
O51 C67 1.264 1_545 S
O52 Tb0 2.349 1_455 S
O52 C67 1.243 1_556 S
O53 Tb11 2.428 1_655 S
O53 C75 1.256 . S
O54 Tb11 2.308 1_556 S
O54 C74 1.266 1_545 S
O55 Tb0 2.393 1_455 S
O55 C74 1.248 . S
C56 O45 1.264 1_545 S
C56 O46 1.243 1_556 S
C57 C60 1.399 . S
C57 C62 1.383 . S
C57 C64 1.496 . S
C58 C59 1.399 . S
C58 C62 1.389 . S
C59 C58 1.399 . S
C59 C61 1.380 . S
C59 H76 0.929 . S
C60 C57 1.399 . S
C60 C61 1.392 . S
C60 H77 0.929 . S
C61 C59 1.380 . S
C61 C60 1.392 . S
C61 H78 0.929 . S
C62 C57 1.383 . S
C62 C58 1.389 . S
C62 H79 0.931 1_556 S
C63 O48 1.266 1_545 S
C63 O49 1.248 . S
C64 Tb0 2.802 1_455 S
C64 O44 1.264 . S
C64 O47 1.256 . S
C64 C57 1.496 . S
C65 C32 1.448 . S
C65 H42 0.930 . S
C65 C66 1.328 . S
C66 C37 1.427 . S
C66 H43 0.929 . S
C66 C65 1.328 . S
C67 O51 1.264 1_565 S
C67 O52 1.243 1_554 S
C68 C71 1.399 . S
C68 C72 1.383 . S
C68 C75 1.496 . S
C69 C70 1.399 . S
C69 C72 1.389 . S
C70 C69 1.399 . S
C70 C73 1.380 . S
C70 H80 0.929 . S
C71 C68 1.399 . S
C71 C73 1.392 . S
C71 H81 0.929 . S
C72 C68 1.383 . S
C72 C69 1.389 . S
C72 H82 0.931 1_554 S
C73 C70 1.380 . S
C73 C71 1.392 . S
C73 H83 0.929 . S
C74 O54 1.266 1_565 S
C74 O55 1.248 . S
C75 Tb11 2.802 1_655 S
C75 O50 1.264 . S
C75 O53 1.256 . S
C75 C68 1.496 . S
H76 C59 0.929 . S
H77 C60 0.929 . S
H78 C61 0.929 . S
H79 C62 0.931 1_554 S
H80 C70 0.929 . S
H81 C71 0.929 . S
H82 C72 0.931 1_556 S
H83 C73 0.929 . S
Tb84 N113 2.617 . S
Tb84 N119 2.572 . S
Tb84 O128 2.465 1_655 S
Tb84 O129 2.387 . S
Tb84 O131 2.428 1_655 S
Tb84 O132 2.308 . S
Tb84 O136 2.349 1_655 S
Tb84 O139 2.393 1_655 S
Tb84 C148 2.802 1_655 S
C85 N86 1.379 . S
C85 C88 1.416 . S
C85 C92 1.424 . S
N86 C85 1.379 . S
N86 C89 1.334 . S
N86 Tb95 2.617 . S
C87 C89 1.390 . S
C87 C90 1.339 . S
C87 H107 0.930 . S
C88 C85 1.416 . S
C88 C90 1.416 . S
C88 C94 1.448 . S
C89 N86 1.334 . S
C89 C87 1.390 . S
C89 H100 0.930 . S
C90 C87 1.339 . S
C90 C88 1.416 . S
C90 H111 0.930 . S
C91 C92 1.413 . S
C91 C93 1.427 . S
C91 C97 1.416 . S
C92 C85 1.424 . S
C92 C91 1.413 . S
C92 N96 1.361 . S
C93 C91 1.427 . S
C93 C94 1.328 . S
C93 H108 0.929 . S
C94 C88 1.448 . S
C94 C93 1.328 . S
C94 H109 0.930 . S
Tb95 N86 2.617 . S
Tb95 N96 2.572 . S
Tb95 O130 2.349 1_455 S
Tb95 O133 2.393 1_455 S
Tb95 O134 2.465 1_455 S
Tb95 O135 2.387 . S
Tb95 O137 2.428 1_455 S
Tb95 O138 2.308 . S
Tb95 C159 2.802 1_455 S
N96 C92 1.361 . S
N96 Tb95 2.572 . S
N96 C98 1.340 . S
C97 C91 1.416 . S
C97 C99 1.332 . S
C97 H105 0.931 . S
C98 N96 1.340 . S
C98 C99 1.407 . S
C98 H104 0.930 . S
C99 C97 1.332 . S
C99 C98 1.407 . S
C99 H101 0.929 . S
H100 C89 0.930 . S
H101 C99 0.929 . S
H102 C117 0.930 . S
H103 C124 0.929 . S
H104 C98 0.930 . S
H105 C97 0.931 . S
H106 C120 0.930 . S
H107 C87 0.930 . S
H108 C93 0.929 . S
H109 C94 0.930 . S
H110 C115 0.930 . S
H111 C90 0.930 . S
H112 C123 0.931 . S
N113 Tb84 2.617 . S
N113 C114 1.379 . S
N113 C117 1.334 . S
C114 N113 1.379 . S
C114 C116 1.416 . S
C114 C122 1.424 . S
C115 H110 0.930 . S
C115 C117 1.390 . S
C115 C118 1.339 . S
C116 C114 1.416 . S
C116 C118 1.416 . S
C116 C149 1.448 . S
C117 H102 0.930 . S
C117 N113 1.334 . S
C117 C115 1.390 . S
C118 C115 1.339 . S
C118 C116 1.416 . S
C118 H125 0.930 . S
N119 Tb84 2.572 . S
N119 C120 1.340 . S
N119 C122 1.361 . S
C120 H106 0.930 . S
C120 N119 1.340 . S
C120 C124 1.407 . S
C121 C122 1.413 . S
C121 C123 1.416 . S
C121 C150 1.427 . S
C122 C114 1.424 . S
C122 N119 1.361 . S
C122 C121 1.413 . S
C123 H112 0.931 . S
C123 C121 1.416 . S
C123 C124 1.332 . S
C124 H103 0.929 . S
C124 C120 1.407 . S
C124 C123 1.332 . S
H125 C118 0.930 . S
H126 C149 0.930 . S
H127 C150 0.929 . S
O128 Tb84 2.465 1_455 S
O128 C148 1.264 . S
O129 Tb84 2.387 . S
O129 C140 1.264 1_545 S
O130 Tb95 2.349 1_655 S
O130 C140 1.243 . S
O131 Tb84 2.428 1_455 S
O131 C148 1.256 . S
O132 Tb84 2.308 . S
O132 C147 1.266 1_545 S
O133 Tb95 2.393 1_655 S
O133 C147 1.248 . S
O134 Tb95 2.465 1_655 S
O134 C159 1.264 . S
O135 Tb95 2.387 . S
O135 C151 1.264 1_565 S
O136 Tb84 2.349 1_455 S
O136 C151 1.243 . S
O137 Tb95 2.428 1_655 S
O137 C159 1.256 . S
O138 Tb95 2.308 . S
O138 C158 1.266 1_565 S
O139 Tb84 2.393 1_455 S
O139 C158 1.248 . S
C140 O129 1.264 1_565 S
C140 O130 1.243 . S
C141 C144 1.399 . S
C141 C146 1.383 . S
C141 C148 1.496 . S
C142 C143 1.399 . S
C142 C146 1.389 . S
C143 C142 1.399 . S
C143 C145 1.380 . S
C143 H160 0.929 . S
C144 C141 1.399 . S
C144 C145 1.392 . S
C144 H161 0.929 . S
C145 C143 1.380 . S
C145 C144 1.392 . S
C145 H162 0.929 . S
C146 C141 1.383 . S
C146 C142 1.389 . S
C146 H163 0.931 . S
C147 O132 1.266 1_565 S
C147 O133 1.248 . S
C148 Tb84 2.802 1_455 S
C148 O128 1.264 . S
C148 O131 1.256 . S
C148 C141 1.496 . S
C149 C116 1.448 . S
C149 H126 0.930 . S
C149 C150 1.328 . S
C150 C121 1.427 . S
C150 H127 0.929 . S
C150 C149 1.328 . S
C151 O135 1.264 1_545 S
C151 O136 1.243 . S
C152 C155 1.399 . S
C152 C156 1.383 . S
C152 C159 1.496 . S
C153 C154 1.399 . S
C153 C156 1.389 . S
C154 C153 1.399 . S
C154 C157 1.380 . S
C154 H164 0.929 . S
C155 C152 1.399 . S
C155 C157 1.392 . S
C155 H165 0.929 . S
C156 C152 1.383 . S
C156 C153 1.389 . S
C156 H166 0.931 . S
C157 C154 1.380 . S
C157 C155 1.392 . S
C157 H167 0.929 . S
C158 O138 1.266 1_545 S
C158 O139 1.248 . S
C159 Tb95 2.802 1_655 S
C159 O134 1.264 . S
C159 O137 1.256 . S
C159 C152 1.496 . S
H160 C143 0.929 . S
H161 C144 0.929 . S
H162 C145 0.929 . S
H163 C146 0.931 . S
H164 C154 0.929 . S
H165 C155 0.929 . S
H166 C156 0.931 . S
H167 C157 0.929 . S
Tb168 N197 2.617 . S
Tb168 N203 2.572 . S
Tb168 O212 2.465 . S
Tb168 O213 2.387 . S
Tb168 O215 2.428 . S
Tb168 O216 2.308 1_556 S
Tb168 O220 2.349 . S
Tb168 O223 2.393 . S
Tb168 C232 2.802 . S
C169 N170 1.379 . S
C169 C172 1.416 . S
C169 C176 1.424 . S
N170 C169 1.379 . S
N170 C173 1.334 . S
N170 Tb179 2.617 . S
C171 C173 1.390 . S
C171 C174 1.339 . S
C171 H191 0.930 . S
C172 C169 1.416 . S
C172 C174 1.416 . S
C172 C178 1.448 . S
C173 N170 1.334 . S
C173 C171 1.390 . S
C173 H184 0.930 . S
C174 C171 1.339 . S
C174 C172 1.416 . S
C174 H195 0.930 . S
C175 C176 1.413 . S
C175 C177 1.427 . S
C175 C181 1.416 . S
C176 C169 1.424 . S
C176 C175 1.413 . S
C176 N180 1.361 . S
C177 C175 1.427 . S
C177 C178 1.328 . S
C177 H192 0.929 . S
C178 C172 1.448 . S
C178 C177 1.328 . S
C178 H193 0.930 . S
Tb179 N170 2.617 . S
Tb179 N180 2.572 . S
Tb179 O214 2.349 . S
Tb179 O217 2.393 . S
Tb179 O218 2.465 . S
Tb179 O219 2.387 . S
Tb179 O221 2.428 . S
Tb179 O222 2.308 1_554 S
Tb179 C243 2.802 . S
N180 C176 1.361 . S
N180 Tb179 2.572 . S
N180 C182 1.340 1_554 S
C181 C175 1.416 . S
C181 C183 1.332 1_554 S
C181 H189 0.931 1_554 S
C182 N180 1.340 1_556 S
C182 C183 1.407 . S
C182 H188 0.930 . S
C183 C181 1.332 1_556 S
C183 C182 1.407 . S
C183 H185 0.929 . S
H184 C173 0.930 . S
H185 C183 0.929 . S
H186 C201 0.930 . S
H187 C208 0.929 . S
H188 C182 0.930 . S
H189 C181 0.931 1_556 S
H190 C204 0.930 . S
H191 C171 0.930 . S
H192 C177 0.929 . S
H193 C178 0.930 . S
H194 C199 0.930 . S
H195 C174 0.930 . S
H196 C207 0.931 1_554 S
N197 Tb168 2.617 . S
N197 C198 1.379 . S
N197 C201 1.334 . S
C198 N197 1.379 . S
C198 C200 1.416 . S
C198 C206 1.424 . S
C199 H194 0.930 . S
C199 C201 1.390 . S
C199 C202 1.339 . S
C200 C198 1.416 . S
C200 C202 1.416 . S
C200 C233 1.448 . S
C201 H186 0.930 . S
C201 N197 1.334 . S
C201 C199 1.390 . S
C202 C199 1.339 . S
C202 C200 1.416 . S
C202 H209 0.930 . S
N203 Tb168 2.572 . S
N203 C204 1.340 1_556 S
N203 C206 1.361 . S
C204 H190 0.930 . S
C204 N203 1.340 1_554 S
C204 C208 1.407 . S
C205 C206 1.413 . S
C205 C207 1.416 . S
C205 C234 1.427 . S
C206 C198 1.424 . S
C206 N203 1.361 . S
C206 C205 1.413 . S
C207 H196 0.931 1_556 S
C207 C205 1.416 . S
C207 C208 1.332 1_556 S
C208 H187 0.929 . S
C208 C204 1.407 . S
C208 C207 1.332 1_554 S
H209 C202 0.930 . S
H210 C233 0.930 . S
H211 C234 0.929 . S
O212 Tb168 2.465 . S
O212 C232 1.264 . S
O213 Tb168 2.387 . S
O213 C224 1.264 . S
O214 Tb179 2.349 . S
O214 C224 1.243 1_554 S
O215 Tb168 2.428 . S
O215 C232 1.256 . S
O216 Tb168 2.308 1_554 S
O216 C231 1.266 . S
O217 Tb179 2.393 . S
O217 C231 1.248 . S
O218 Tb179 2.465 . S
O218 C243 1.264 . S
O219 Tb179 2.387 . S
O219 C235 1.264 . S
O220 Tb168 2.349 . S
O220 C235 1.243 1_556 S
O221 Tb179 2.428 . S
O221 C243 1.256 . S
O222 Tb179 2.308 1_556 S
O222 C242 1.266 . S
O223 Tb168 2.393 . S
O223 C242 1.248 . S
C224 O213 1.264 . S
C224 O214 1.243 1_556 S
C225 C228 1.399 . S
C225 C230 1.383 . S
C225 C232 1.496 . S
C226 C227 1.399 . S
C226 C230 1.389 . S
C227 C226 1.399 . S
C227 C229 1.380 . S
C227 H244 0.929 . S
C228 C225 1.399 . S
C228 C229 1.392 . S
C228 H245 0.929 . S
C229 C227 1.380 . S
C229 C228 1.392 . S
C229 H246 0.929 . S
C230 C225 1.383 . S
C230 C226 1.389 . S
C230 H247 0.931 1_556 S
C231 O216 1.266 . S
C231 O217 1.248 . S
C232 Tb168 2.802 . S
C232 O212 1.264 . S
C232 O215 1.256 . S
C232 C225 1.496 . S
C233 C200 1.448 . S
C233 H210 0.930 . S
C233 C234 1.328 . S
C234 C205 1.427 . S
C234 H211 0.929 . S
C234 C233 1.328 . S
C235 O219 1.264 . S
C235 O220 1.243 1_554 S
C236 C239 1.399 . S
C236 C240 1.383 . S
C236 C243 1.496 . S
C237 C238 1.399 . S
C237 C240 1.389 . S
C238 C237 1.399 . S
C238 C241 1.380 . S
C238 H248 0.929 . S
C239 C236 1.399 . S
C239 C241 1.392 . S
C239 H249 0.929 . S
C240 C236 1.383 . S
C240 C237 1.389 . S
C240 H250 0.931 1_554 S
C241 C238 1.380 . S
C241 C239 1.392 . S
C241 H251 0.929 . S
C242 O222 1.266 . S
C242 O223 1.248 . S
C243 Tb179 2.802 . S
C243 O218 1.264 . S
C243 O221 1.256 . S
C243 C236 1.496 . S
H244 C227 0.929 . S
H245 C228 0.929 . S
H246 C229 0.929 . S
H247 C230 0.931 1_554 S
H248 C238 0.929 . S
H249 C239 0.929 . S
H250 C240 0.931 1_556 S
H251 C241 0.929 . S
Tb252 N281 2.617 . S
Tb252 N287 2.572 . S
Tb252 O296 2.465 . S
Tb252 O297 2.387 . S
Tb252 O299 2.428 . S
Tb252 O300 2.308 . S
Tb252 O304 2.349 . S
Tb252 O307 2.393 . S
Tb252 C316 2.802 . S
C253 N254 1.379 . S
C253 C256 1.416 . S
C253 C260 1.424 . S
N254 C253 1.379 . S
N254 C257 1.334 . S
N254 Tb263 2.617 . S
C255 C257 1.390 . S
C255 C258 1.339 . S
C255 H275 0.930 . S
C256 C253 1.416 . S
C256 C258 1.416 . S
C256 C262 1.448 . S
C257 N254 1.334 . S
C257 C255 1.390 . S
C257 H268 0.930 . S
C258 C255 1.339 . S
C258 C256 1.416 . S
C258 H279 0.930 . S
C259 C260 1.413 . S
C259 C261 1.427 . S
C259 C265 1.416 . S
C260 C253 1.424 . S
C260 C259 1.413 . S
C260 N264 1.361 . S
C261 C259 1.427 . S
C261 C262 1.328 . S
C261 H276 0.929 . S
C262 C256 1.448 . S
C262 C261 1.328 . S
C262 H277 0.930 . S
Tb263 N254 2.617 . S
Tb263 N264 2.572 . S
Tb263 O298 2.349 . S
Tb263 O301 2.393 . S
Tb263 O302 2.465 . S
Tb263 O303 2.387 . S
Tb263 O305 2.428 . S
Tb263 O306 2.308 . S
Tb263 C327 2.802 . S
N264 C260 1.361 . S
N264 Tb263 2.572 . S
N264 C266 1.340 . S
C265 C259 1.416 . S
C265 C267 1.332 . S
C265 H273 0.931 . S
C266 N264 1.340 . S
C266 C267 1.407 . S
C266 H272 0.930 . S
C267 C265 1.332 . S
C267 C266 1.407 . S
C267 H269 0.929 . S
H268 C257 0.930 . S
H269 C267 0.929 . S
H270 C285 0.930 . S
H271 C292 0.929 . S
H272 C266 0.930 . S
H273 C265 0.931 . S
H274 C288 0.930 . S
H275 C255 0.930 . S
H276 C261 0.929 . S
H277 C262 0.930 . S
H278 C283 0.930 . S
H279 C258 0.930 . S
H280 C291 0.931 . S
N281 Tb252 2.617 . S
N281 C282 1.379 . S
N281 C285 1.334 . S
C282 N281 1.379 . S
C282 C284 1.416 . S
C282 C290 1.424 . S
C283 H278 0.930 . S
C283 C285 1.390 . S
C283 C286 1.339 . S
C284 C282 1.416 . S
C284 C286 1.416 . S
C284 C317 1.448 . S
C285 H270 0.930 . S
C285 N281 1.334 . S
C285 C283 1.390 . S
C286 C283 1.339 . S
C286 C284 1.416 . S
C286 H293 0.930 . S
N287 Tb252 2.572 . S
N287 C288 1.340 . S
N287 C290 1.361 . S
C288 H274 0.930 . S
C288 N287 1.340 . S
C288 C292 1.407 . S
C289 C290 1.413 . S
C289 C291 1.416 . S
C289 C318 1.427 . S
C290 C282 1.424 . S
C290 N287 1.361 . S
C290 C289 1.413 . S
C291 H280 0.931 . S
C291 C289 1.416 . S
C291 C292 1.332 . S
C292 H271 0.929 . S
C292 C288 1.407 . S
C292 C291 1.332 . S
H293 C286 0.930 . S
H294 C317 0.930 . S
H295 C318 0.929 . S
O296 Tb252 2.465 . S
O296 C316 1.264 . S
O297 Tb252 2.387 . S
O297 C308 1.264 . S
O298 Tb263 2.349 . S
O298 C308 1.243 . S
O299 Tb252 2.428 . S
O299 C316 1.256 . S
O300 Tb252 2.308 . S
O300 C315 1.266 . S
O301 Tb263 2.393 . S
O301 C315 1.248 . S
O302 Tb263 2.465 . S
O302 C327 1.264 . S
O303 Tb263 2.387 . S
O303 C319 1.264 . S
O304 Tb252 2.349 . S
O304 C319 1.243 . S
O305 Tb263 2.428 . S
O305 C327 1.256 . S
O306 Tb263 2.308 . S
O306 C326 1.266 . S
O307 Tb252 2.393 . S
O307 C326 1.248 . S
C308 O297 1.264 . S
C308 O298 1.243 . S
C309 C312 1.399 . S
C309 C314 1.383 . S
C309 C316 1.496 . S
C310 C311 1.399 . S
C310 C314 1.389 . S
C311 C310 1.399 . S
C311 C313 1.380 . S
C311 H328 0.929 . S
C312 C309 1.399 . S
C312 C313 1.392 . S
C312 H329 0.929 . S
C313 C311 1.380 . S
C313 C312 1.392 . S
C313 H330 0.929 . S
C314 C309 1.383 . S
C314 C310 1.389 . S
C314 H331 0.931 . S
C315 O300 1.266 . S
C315 O301 1.248 . S
C316 Tb252 2.802 . S
C316 O296 1.264 . S
C316 O299 1.256 . S
C316 C309 1.496 . S
C317 C284 1.448 . S
C317 H294 0.930 . S
C317 C318 1.328 . S
C318 C289 1.427 . S
C318 H295 0.929 . S
C318 C317 1.328 . S
C319 O303 1.264 . S
C319 O304 1.243 . S
C320 C323 1.399 . S
C320 C324 1.383 . S
C320 C327 1.496 . S
C321 C322 1.399 . S
C321 C324 1.389 . S
C322 C321 1.399 . S
C322 C325 1.380 . S
C322 H332 0.929 . S
C323 C320 1.399 . S
C323 C325 1.392 . S
C323 H333 0.929 . S
C324 C320 1.383 . S
C324 C321 1.389 . S
C324 H334 0.931 . S
C325 C322 1.380 . S
C325 C323 1.392 . S
C325 H335 0.929 . S
C326 O306 1.266 . S
C326 O307 1.248 . S
C327 Tb263 2.802 . S
C327 O302 1.264 . S
C327 O305 1.256 . S
C327 C320 1.496 . S
H328 C311 0.929 . S
H329 C312 0.929 . S
H330 C313 0.929 . S
H331 C314 0.931 . S
H332 C322 0.929 . S
H333 C323 0.929 . S
H334 C324 0.931 . S
H335 C325 0.929 . S
H336 C354 0.951 . S
H337 C356 0.951 . S
H338 C358 0.950 . S
H339 C359 0.950 . S
H340 C361 0.950 . S
H341 C364 0.950 . S
H342 C365 0.950 . S
H343 C367 0.950 . S
H344 C368 0.950 1_556 S
H345 C369 0.951 . S
H346 C371 0.951 . S
H347 C373 0.950 . S
H348 C374 0.950 . S
H349 C376 0.950 . S
H350 C379 0.950 . S
H351 C380 0.950 . S
H352 C382 0.950 1_655 S
H353 C383 0.950 1_554 S
C354 H336 0.951 . S
C354 C355 1.366 . S
C354 C356 1.388 . S
C355 C354 1.366 . S
C355 C359 1.385 1_556 S
C356 H337 0.951 . S
C356 C354 1.388 . S
C356 C357 1.366 1_556 S
C357 C356 1.366 1_554 S
C357 C358 1.414 . S
C357 C360 1.499 . S
C358 H338 0.950 . S
C358 C357 1.414 . S
C358 C359 1.374 . S
C359 H339 0.950 . S
C359 C355 1.385 1_554 S
C359 C358 1.374 . S
C360 C357 1.499 . S
C360 C361 1.373 1_554 S
C360 C362 1.389 . S
C361 H340 0.950 . S
C361 C360 1.373 1_556 S
C361 C377 1.377 . S
C362 C360 1.389 . S
C362 C363 1.524 . S
C362 C376 1.377 . S
C363 C362 1.524 . S
C363 C364 1.397 . S
C363 C368 1.363 . S
C364 H341 0.950 . S
C364 C363 1.397 . S
C364 C365 1.334 . S
C365 H342 0.950 . S
C365 C364 1.334 . S
C365 C366 1.287 . S
C366 C365 1.287 . S
C366 C367 1.524 . S
C366 H385 0.913 . S
C367 H343 0.950 . S
C367 C366 1.524 . S
C367 C368 1.415 . S
C368 H344 0.950 1_554 S
C368 C363 1.363 . S
C368 C367 1.415 . S
C369 H345 0.951 . S
C369 C370 1.366 . S
C369 C371 1.388 . S
C370 C369 1.366 . S
C370 C374 1.385 1_554 S
C371 H346 0.951 . S
C371 C369 1.388 . S
C371 C372 1.357 1_554 S
C372 C371 1.357 1_556 S
C372 C373 1.434 . S
C372 C375 1.488 . S
C373 H347 0.950 . S
C373 C372 1.434 . S
C373 C374 1.374 . S
C374 H348 0.950 . S
C374 C370 1.385 1_556 S
C374 C373 1.374 . S
C375 C372 1.488 . S
C375 C376 1.373 1_556 S
C375 C377 1.389 . S
C376 H349 0.950 . S
C376 C362 1.377 . S
C376 C375 1.373 1_554 S
C377 C361 1.377 . S
C377 C375 1.389 . S
C377 C378 1.524 . S
C378 C377 1.524 . S
C378 C379 1.397 . S
C378 C383 1.363 . S
C379 H350 0.950 . S
C379 C378 1.397 . S
C379 C380 1.334 . S
C380 H351 0.950 . S
C380 C379 1.334 . S
C380 C381 1.287 . S
C381 C380 1.287 . S
C381 C382 1.524 . S
C381 H384 0.999 1_455 S
C382 H352 0.950 1_455 S
C382 C381 1.524 . S
C382 C383 1.415 . S
C383 H353 0.950 1_556 S
C383 C378 1.363 . S
C383 C382 1.415 . S
H384 C381 0.999 1_655 S
H385 C366 0.913 . S
H386 C404 0.951 . S
H387 C406 0.951 . S
H388 C408 0.950 . S
H389 C409 0.950 . S
H390 C411 0.950 . S
H391 C414 0.950 . S
H392 C415 0.950 . S
H393 C417 0.950 . S
H394 C418 0.950 . S
H395 C419 0.951 . S
H396 C421 0.951 . S
H397 C423 0.950 . S
H398 C424 0.950 . S
H399 C426 0.950 . S
H400 C429 0.950 . S
H401 C430 0.950 . S
H402 C432 0.950 1_455 S
H403 C433 0.950 . S
C404 H386 0.951 . S
C404 C405 1.366 1_556 S
C404 C406 1.388 . S
C405 C404 1.366 1_554 S
C405 C409 1.385 . S
C406 H387 0.951 . S
C406 C404 1.388 . S
C406 C407 1.366 1_556 S
C407 C406 1.366 1_554 S
C407 C408 1.414 . S
C407 C410 1.499 . S
C408 H388 0.950 . S
C408 C407 1.414 . S
C408 C409 1.374 . S
C409 H389 0.950 . S
C409 C405 1.385 . S
C409 C408 1.374 . S
C410 C407 1.499 . S
C410 C411 1.373 1_554 S
C410 C412 1.389 . S
C411 H390 0.950 . S
C411 C410 1.373 1_556 S
C411 C427 1.377 . S
C412 C410 1.389 . S
C412 C413 1.524 . S
C412 C426 1.377 . S
C413 C412 1.524 . S
C413 C414 1.397 . S
C413 C418 1.363 . S
C414 H391 0.950 . S
C414 C413 1.397 . S
C414 C415 1.334 . S
C415 H392 0.950 . S
C415 C414 1.334 . S
C415 C416 1.287 . S
C416 C415 1.287 . S
C416 C417 1.524 . S
C416 H435 0.913 . S
C417 H393 0.950 . S
C417 C416 1.524 . S
C417 C418 1.415 . S
C418 H394 0.950 . S
C418 C413 1.363 . S
C418 C417 1.415 . S
C419 H395 0.951 . S
C419 C420 1.366 1_554 S
C419 C421 1.388 . S
C420 C419 1.366 1_556 S
C420 C424 1.399 . S
C421 H396 0.951 . S
C421 C419 1.388 . S
C421 C422 1.366 1_554 S
C422 C421 1.366 1_556 S
C422 C423 1.414 . S
C422 C425 1.499 . S
C423 H397 0.950 . S
C423 C422 1.414 . S
C423 C424 1.374 . S
C424 H398 0.950 . S
C424 C420 1.399 . S
C424 C423 1.374 . S
C425 C422 1.499 . S
C425 C426 1.373 1_556 S
C425 C427 1.389 . S
C426 H399 0.950 . S
C426 C412 1.377 . S
C426 C425 1.373 1_554 S
C427 C411 1.377 . S
C427 C425 1.389 . S
C427 C428 1.524 . S
C428 C427 1.524 . S
C428 C429 1.397 . S
C428 C433 1.363 . S
C429 H400 0.950 . S
C429 C428 1.397 . S
C429 C430 1.334 . S
C430 H401 0.950 . S
C430 C429 1.334 . S
C430 C431 1.287 . S
C431 C430 1.287 . S
C431 C432 1.524 . S
C431 H434 0.999 1_655 S
C432 H402 0.950 1_655 S
C432 C431 1.524 . S
C432 C433 1.415 . S
C433 H403 0.950 . S
C433 C428 1.363 . S
C433 C432 1.415 . S
H434 C431 0.999 1_455 S
H435 C416 0.913 . S
H436 C454 0.951 . S
H437 C456 0.951 . S
H438 C458 0.950 . S
H439 C459 0.950 . S
H440 C461 0.950 . S
H441 C464 0.950 . S
H442 C465 0.950 . S
H443 C467 0.950 . S
H444 C468 0.950 . S
H445 C469 0.951 . S
H446 C471 0.951 . S
H447 C473 0.950 . S
H448 C474 0.950 . S
H449 C476 0.950 . S
H450 C479 0.950 . S
H451 C480 0.950 . S
H452 C482 0.950 . S
H453 C483 0.950 . S
C454 H436 0.951 . S
C454 C455 1.366 . S
C454 C456 1.388 . S
C455 C454 1.366 . S
C455 C459 1.385 . S
C456 H437 0.951 . S
C456 C454 1.388 . S
C456 C457 1.366 . S
C457 C456 1.366 . S
C457 C458 1.414 . S
C457 C460 1.499 . S
C458 H438 0.950 . S
C458 C457 1.414 . S
C458 C459 1.374 . S
C459 H439 0.950 . S
C459 C455 1.385 . S
C459 C458 1.374 . S
C460 C457 1.499 . S
C460 C461 1.373 . S
C460 C462 1.389 . S
C461 H440 0.950 . S
C461 C460 1.373 . S
C461 C477 1.377 . S
C462 C460 1.389 . S
C462 C463 1.524 . S
C462 C476 1.377 . S
C463 C462 1.524 . S
C463 C464 1.397 . S
C463 C468 1.363 . S
C464 H441 0.950 . S
C464 C463 1.397 . S
C464 C465 1.334 . S
C465 H442 0.950 . S
C465 C464 1.334 . S
C465 C466 1.287 . S
C466 C465 1.287 . S
C466 C467 1.524 . S
C466 H485 0.913 . S
C467 H443 0.950 . S
C467 C466 1.524 . S
C467 C468 1.415 . S
C468 H444 0.950 . S
C468 C463 1.363 . S
C468 C467 1.415 . S
C469 H445 0.951 . S
C469 C470 1.366 . S
C469 C471 1.388 . S
C470 C469 1.366 . S
C470 C474 1.385 . S
C471 H446 0.951 . S
C471 C469 1.388 . S
C471 C472 1.366 . S
C472 C471 1.366 . S
C472 C473 1.414 . S
C472 C475 1.499 . S
C473 H447 0.950 . S
C473 C472 1.414 . S
C473 C474 1.374 . S
C474 H448 0.950 . S
C474 C470 1.385 . S
C474 C473 1.374 . S
C475 C472 1.499 . S
C475 C476 1.373 . S
C475 C477 1.389 . S
C476 H449 0.950 . S
C476 C462 1.377 . S
C476 C475 1.373 . S
C477 C461 1.377 . S
C477 C475 1.389 . S
C477 C478 1.524 . S
C478 C477 1.524 . S
C478 C479 1.397 . S
C478 C483 1.363 . S
C479 H450 0.950 . S
C479 C478 1.397 . S
C479 C480 1.334 . S
C480 H451 0.950 . S
C480 C479 1.334 . S
C480 C481 1.287 . S
C481 C480 1.287 . S
C481 C482 1.524 . S
C481 H484 0.999 . S
C482 H452 0.950 . S
C482 C481 1.524 . S
C482 C483 1.415 . S
C483 H453 0.950 . S
C483 C478 1.363 . S
C483 C482 1.415 . S
H484 C481 0.999 . S
H485 C466 0.913 . S
H486 C504 0.951 . S
H487 C506 0.951 . S
H488 C508 0.950 . S
H489 C509 0.950 . S
H490 C511 0.950 . S
H491 C514 0.950 . S
H492 C515 0.950 . S
H493 C517 0.950 . S
H494 C518 0.950 . S
H495 C519 0.951 . S
H496 C521 0.951 . S
H497 C523 0.950 . S
H498 C524 0.950 . S
H499 C526 0.950 . S
H500 C529 0.950 . S
H501 C530 0.950 . S
H502 C532 0.950 . S
H503 C533 0.950 . S
C504 H486 0.951 . S
C504 C505 1.366 . S
C504 C506 1.388 . S
C505 C504 1.366 . S
C505 C509 1.385 . S
C506 H487 0.951 . S
C506 C504 1.388 . S
C506 C507 1.366 . S
C507 C506 1.366 . S
C507 C508 1.414 . S
C507 C510 1.499 . S
C508 H488 0.950 . S
C508 C507 1.414 . S
C508 C509 1.374 . S
C509 H489 0.950 . S
C509 C505 1.385 . S
C509 C508 1.374 . S
C510 C507 1.499 . S
C510 C511 1.373 . S
C510 C512 1.389 . S
C511 H490 0.950 . S
C511 C510 1.373 . S
C511 C527 1.377 . S
C512 C510 1.389 . S
C512 C513 1.524 . S
C512 C526 1.377 . S
C513 C512 1.524 . S
C513 C514 1.397 . S
C513 C518 1.363 . S
C514 H491 0.950 . S
C514 C513 1.397 . S
C514 C515 1.334 . S
C515 H492 0.950 . S
C515 C514 1.334 . S
C515 C516 1.287 . S
C516 C515 1.287 . S
C516 C517 1.524 . S
C516 H535 0.913 . S
C517 H493 0.950 . S
C517 C516 1.524 . S
C517 C518 1.415 . S
C518 H494 0.950 . S
C518 C513 1.363 . S
C518 C517 1.415 . S
C519 H495 0.951 . S
C519 C520 1.366 . S
C519 C521 1.388 . S
C520 C519 1.366 . S
C520 C524 1.385 . S
C521 H496 0.951 . S
C521 C519 1.388 . S
C521 C522 1.366 . S
C522 C521 1.366 . S
C522 C523 1.414 . S
C522 C525 1.499 . S
C523 H497 0.950 . S
C523 C522 1.414 . S
C523 C524 1.374 . S
C524 H498 0.950 . S
C524 C520 1.385 . S
C524 C523 1.374 . S
C525 C522 1.499 . S
C525 C526 1.373 . S
C525 C527 1.389 . S
C526 H499 0.950 . S
C526 C512 1.377 . S
C526 C525 1.373 . S
C527 C511 1.377 . S
C527 C525 1.389 . S
C527 C528 1.524 . S
C528 C527 1.524 . S
C528 C529 1.397 . S
C528 C533 1.363 . S
C529 H500 0.950 . S
C529 C528 1.397 . S
C529 C530 1.334 . S
C530 H501 0.950 . S
C530 C529 1.334 . S
C530 C531 1.287 . S
C531 C530 1.287 . S
C531 C532 1.524 . S
C531 H534 0.999 . S
C532 H502 0.950 . S
C532 C531 1.524 . S
C532 C533 1.415 . S
C533 H503 0.950 . S
C533 C528 1.363 . S
C533 C532 1.415 . S
H534 C531 0.999 . S
H535 C516 0.913 . S
H536 C554 0.951 . S
H537 C556 0.951 . S
H538 C558 0.950 . S
H539 C559 0.950 . S
H540 C561 0.950 . S
H541 C564 0.950 1_565 S
H542 C565 0.950 . S
H543 C567 0.950 . S
H544 C568 0.950 . S
H545 C569 0.951 . S
H546 C571 0.951 . S
H547 C573 0.950 . S
H548 C574 0.950 . S
H549 C576 0.950 . S
H550 C579 0.950 1_545 S
H551 C580 0.950 . S
H552 C582 0.950 . S
H553 C583 0.950 . S
C554 H536 0.951 . S
C554 C555 1.366 1_545 S
C554 C556 1.388 . S
C555 C554 1.366 1_565 S
C555 C559 1.385 1_554 S
C556 H537 0.951 . S
C556 C554 1.388 . S
C556 C557 1.332 1_544 S
C557 C556 1.332 1_566 S
C557 C558 1.450 . S
C557 C560 1.499 . S
C558 H538 0.950 . S
C558 C557 1.450 . S
C558 C559 1.374 . S
C559 H539 0.950 . S
C559 C555 1.385 1_556 S
C559 C558 1.374 . S
C560 C557 1.499 . S
C560 C561 1.411 1_556 S
C560 C562 1.351 1_565 S
C561 H540 0.950 . S
C561 C560 1.411 1_554 S
C561 C577 1.377 . S
C562 C560 1.351 1_545 S
C562 C563 1.524 . S
C562 C576 1.377 . S
C563 C562 1.524 . S
C563 C564 1.397 . S
C563 C568 1.363 . S
C564 H541 0.950 1_545 S
C564 C563 1.397 . S
C564 C565 1.334 . S
C565 H542 0.950 . S
C565 C564 1.334 . S
C565 C566 1.287 . S
C566 C565 1.287 . S
C566 C567 1.524 . S
C566 H585 0.913 . S
C567 H543 0.950 . S
C567 C566 1.524 . S
C567 C568 1.415 . S
C568 H544 0.950 . S
C568 C563 1.363 . S
C568 C567 1.415 . S
C569 H545 0.951 . S
C569 C570 1.366 1_566 S
C569 C571 1.388 . S
C570 C569 1.366 1_544 S
C570 C574 1.385 . S
C571 H546 0.951 . S
C571 C569 1.388 . S
C571 C572 1.366 1_566 S
C572 C571 1.366 1_544 S
C572 C573 1.414 . S
C572 C575 1.499 . S
C573 H547 0.950 . S
C573 C572 1.414 . S
C573 C574 1.374 . S
C574 H548 0.950 . S
C574 C570 1.385 . S
C574 C573 1.374 . S
C575 C572 1.499 . S
C575 C576 1.373 1_554 S
C575 C577 1.389 1_545 S
C576 H549 0.950 . S
C576 C562 1.377 . S
C576 C575 1.373 1_556 S
C577 C561 1.377 . S
C577 C575 1.389 1_565 S
C577 C578 1.524 . S
C578 C577 1.524 . S
C578 C579 1.397 . S
C578 C583 1.363 . S
C579 H550 0.950 1_565 S
C579 C578 1.397 . S
C579 C580 1.334 . S
C580 H551 0.950 . S
C580 C579 1.334 . S
C580 C581 1.287 . S
C581 C580 1.287 . S
C581 C582 1.524 . S
C581 H584 0.999 . S
C582 H552 0.950 . S
C582 C581 1.524 . S
C582 C583 1.415 . S
C583 H553 0.950 . S
C583 C578 1.363 . S
C583 C582 1.415 . S
H584 C581 0.999 . S
H585 C566 0.913 . S
H586 C604 0.951 . S
H587 C606 0.951 . S
H588 C608 0.950 . S
H589 C609 0.950 . S
H590 C611 0.950 . S
H591 C614 0.950 . S
H592 C615 0.950 . S
H593 C617 0.950 . S
H594 C618 0.950 . S
H595 C619 0.951 . S
H596 C621 0.951 . S
H597 C623 0.950 . S
H598 C624 0.950 . S
H599 C626 0.950 . S
H600 C629 0.950 . S
H601 C630 0.950 . S
H602 C632 0.950 . S
H603 C633 0.950 . S
C604 H586 0.951 . S
C604 C605 1.366 1_565 S
C604 C606 1.388 . S
C605 C604 1.366 1_545 S
C605 C609 1.385 . S
C606 H587 0.951 . S
C606 C604 1.388 . S
C606 C607 1.366 1_565 S
C607 C606 1.366 1_545 S
C607 C608 1.414 . S
C607 C610 1.499 . S
C608 H588 0.950 . S
C608 C607 1.414 . S
C608 C609 1.374 . S
C609 H589 0.950 . S
C609 C605 1.385 . S
C609 C608 1.374 . S
C610 C607 1.499 . S
C610 C611 1.373 . S
C610 C612 1.389 1_545 S
C611 H590 0.950 . S
C611 C610 1.373 . S
C611 C627 1.377 . S
C612 C610 1.389 1_565 S
C612 C613 1.524 . S
C612 C626 1.377 . S
C613 C612 1.524 . S
C613 C614 1.397 . S
C613 C618 1.363 . S
C614 H591 0.950 . S
C614 C613 1.397 . S
C614 C615 1.334 . S
C615 H592 0.950 . S
C615 C614 1.334 . S
C615 C616 1.287 . S
C616 C615 1.287 . S
C616 C617 1.524 . S
C616 H635 0.913 . S
C617 H593 0.950 . S
C617 C616 1.524 . S
C617 C618 1.415 . S
C618 H594 0.950 . S
C618 C613 1.363 . S
C618 C617 1.415 . S
C619 H595 0.951 . S
C619 C620 1.366 1_545 S
C619 C621 1.388 . S
C620 C619 1.366 1_565 S
C620 C624 1.385 . S
C621 H596 0.951 . S
C621 C619 1.388 . S
C621 C622 1.366 1_545 S
C622 C621 1.366 1_565 S
C622 C623 1.414 . S
C622 C625 1.499 1_565 S
C623 H597 0.950 . S
C623 C622 1.414 . S
C623 C624 1.374 . S
C624 H598 0.950 . S
C624 C620 1.385 . S
C624 C623 1.374 . S
C625 C622 1.499 1_545 S
C625 C626 1.375 1_545 S
C625 C627 1.388 . S
C626 H599 0.950 . S
C626 C612 1.377 . S
C626 C625 1.375 1_565 S
C627 C611 1.377 . S
C627 C625 1.388 . S
C627 C628 1.524 . S
C628 C627 1.524 . S
C628 C629 1.397 . S
C628 C633 1.363 . S
C629 H600 0.950 . S
C629 C628 1.397 . S
C629 C630 1.334 . S
C630 H601 0.950 . S
C630 C629 1.334 . S
C630 C631 1.287 . S
C631 C630 1.287 . S
C631 C632 1.524 . S
C631 H634 0.999 . S
C632 H602 0.950 . S
C632 C631 1.524 . S
C632 C633 1.415 . S
C633 H603 0.950 . S
C633 C628 1.363 . S
C633 C632 1.415 . S
H634 C631 0.999 . S
H635 C616 0.913 . S
H636 C654 0.951 . S
H637 C656 0.951 . S
H638 C658 0.950 . S
H639 C659 0.950 . S
H640 C661 0.950 . S
H641 C664 0.950 1_556 S
H642 C665 0.950 . S
H643 C667 0.950 . S
H644 C668 0.950 . S
H645 C669 0.951 . S
H646 C671 0.951 . S
H647 C673 0.950 . S
H648 C674 0.950 . S
H649 C676 0.950 . S
H650 C679 0.950 1_554 S
H651 C680 0.950 . S
H652 C682 0.950 . S
H653 C683 0.950 . S
C654 H636 0.951 . S
C654 C655 1.363 . S
C654 C656 1.388 . S
C655 C654 1.363 . S
C655 C659 1.387 1_554 S
C656 H637 0.951 . S
C656 C654 1.388 . S
C656 C657 1.368 1_554 S
C657 C656 1.368 1_556 S
C657 C658 1.412 . S
C657 C660 1.499 . S
C658 H638 0.950 . S
C658 C657 1.412 . S
C658 C659 1.374 . S
C659 H639 0.950 . S
C659 C655 1.387 1_556 S
C659 C658 1.374 . S
C660 C657 1.499 . S
C660 C661 1.373 . S
C660 C662 1.389 1_556 S
C661 H640 0.950 . S
C661 C660 1.373 . S
C661 C677 1.377 1_655 S
C662 C660 1.389 1_554 S
C662 C663 1.524 . S
C662 C676 1.377 1_655 S
C663 C662 1.524 . S
C663 C664 1.397 . S
C663 C668 1.363 . S
C664 H641 0.950 1_554 S
C664 C663 1.397 . S
C664 C665 1.334 . S
C665 H642 0.950 . S
C665 C664 1.334 . S
C665 C666 1.287 . S
C666 C665 1.287 . S
C666 C667 1.524 . S
C666 H685 0.913 . S
C667 H643 0.950 . S
C667 C666 1.524 . S
C667 C668 1.415 . S
C668 H644 0.950 . S
C668 C663 1.363 . S
C668 C667 1.415 . S
C669 H645 0.951 . S
C669 C670 1.352 1_556 S
C669 C671 1.388 . S
C670 C669 1.352 1_554 S
C670 C674 1.399 . S
C671 H646 0.951 . S
C671 C669 1.388 . S
C671 C672 1.350 1_556 S
C672 C671 1.350 1_554 S
C672 C673 1.429 . S
C672 C675 1.500 . S
C673 H647 0.950 . S
C673 C672 1.429 . S
C673 C674 1.374 . S
C674 H648 0.950 . S
C674 C670 1.399 . S
C674 C673 1.374 . S
C675 C672 1.500 . S
C675 C676 1.373 . S
C675 C677 1.389 1_554 S
C676 H649 0.950 . S
C676 C662 1.377 1_455 S
C676 C675 1.373 . S
C677 C661 1.377 1_455 S
C677 C675 1.389 1_556 S
C677 C678 1.524 . S
C678 C677 1.524 . S
C678 C679 1.397 . S
C678 C683 1.363 . S
C679 H650 0.950 1_556 S
C679 C678 1.397 . S
C679 C680 1.334 . S
C680 H651 0.950 . S
C680 C679 1.334 . S
C680 C681 1.287 . S
C681 C680 1.287 . S
C681 C682 1.524 . S
C681 H684 0.999 . S
C682 H652 0.950 . S
C682 C681 1.524 . S
C682 C683 1.415 . S
C683 H653 0.950 . S
C683 C678 1.363 . S
C683 C682 1.415 . S
H684 C681 0.999 . S
H685 C666 0.913 . S
H686 C704 0.951 . S
H687 C706 0.951 . S
H688 C708 0.950 . S
H689 C709 0.950 . S
H690 C711 0.950 . S
H691 C714 0.950 . S
H692 C715 0.950 . S
H693 C717 0.950 . S
H694 C718 0.950 . S
H695 C719 0.951 . S
H696 C721 0.951 . S
H697 C723 0.950 . S
H698 C724 0.950 . S
H699 C726 0.950 . S
H700 C729 0.950 . S
H701 C730 0.950 . S
H702 C732 0.950 . S
H703 C733 0.950 . S
C704 H686 0.951 . S
C704 C705 1.366 . S
C704 C706 1.388 . S
C705 C704 1.366 . S
C705 C709 1.385 . S
C706 H687 0.951 . S
C706 C704 1.388 . S
C706 C707 1.366 . S
C707 C706 1.366 . S
C707 C708 1.414 . S
C707 C710 1.499 . S
C708 H688 0.950 . S
C708 C707 1.414 . S
C708 C709 1.374 . S
C709 H689 0.950 . S
C709 C705 1.385 . S
C709 C708 1.374 . S
C710 C707 1.499 . S
C710 C711 1.373 . S
C710 C712 1.389 . S
C711 H690 0.950 . S
C711 C710 1.373 . S
C711 C727 1.377 1_455 S
C712 C710 1.389 . S
C712 C713 1.524 . S
C712 C726 1.377 1_455 S
C713 C712 1.524 . S
C713 C714 1.397 . S
C713 C718 1.363 . S
C714 H691 0.950 . S
C714 C713 1.397 . S
C714 C715 1.334 . S
C715 H692 0.950 . S
C715 C714 1.334 . S
C715 C716 1.287 . S
C716 C715 1.287 . S
C716 C717 1.524 . S
C716 H735 0.913 . S
C717 H693 0.950 . S
C717 C716 1.524 . S
C717 C718 1.415 . S
C718 H694 0.950 . S
C718 C713 1.363 . S
C718 C717 1.415 . S
C719 H695 0.951 . S
C719 C720 1.366 . S
C719 C721 1.388 . S
C720 C719 1.366 . S
C720 C724 1.385 . S
C721 H696 0.951 . S
C721 C719 1.388 . S
C721 C722 1.366 . S
C722 C721 1.366 . S
C722 C723 1.414 . S
C722 C725 1.499 . S
C723 H697 0.950 . S
C723 C722 1.414 . S
C723 C724 1.374 . S
C724 H698 0.950 . S
C724 C720 1.385 . S
C724 C723 1.374 . S
C725 C722 1.499 . S
C725 C726 1.373 . S
C725 C727 1.389 . S
C726 H699 0.950 . S
C726 C712 1.377 1_655 S
C726 C725 1.373 . S
C727 C711 1.377 1_655 S
C727 C725 1.389 . S
C727 C728 1.524 . S
C728 C727 1.524 . S
C728 C729 1.397 . S
C728 C733 1.363 . S
C729 H700 0.950 . S
C729 C728 1.397 . S
C729 C730 1.334 . S
C730 H701 0.950 . S
C730 C729 1.334 . S
C730 C731 1.287 . S
C731 C730 1.287 . S
C731 C732 1.524 . S
C731 H734 0.999 . S
C732 H702 0.950 . S
C732 C731 1.524 . S
C732 C733 1.415 . S
C733 H703 0.950 . S
C733 C728 1.363 . S
C733 C732 1.415 . S
H734 C731 0.999 . S
H735 C716 0.913 . S
H736 C754 0.951 . S
H737 C756 0.951 . S
H738 C758 0.950 . S
H739 C759 0.950 . S
H740 C761 0.950 . S
H741 C764 0.950 1_655 S
H742 C765 0.950 . S
H743 C767 0.950 . S
H744 C768 0.950 . S
H745 C769 0.951 . S
H746 C771 0.951 . S
H747 C773 0.950 . S
H748 C774 0.950 . S
H749 C776 0.950 . S
H750 C779 0.950 1_455 S
H751 C780 0.950 . S
H752 C782 0.950 . S
H753 C783 0.950 . S
C754 H736 0.951 . S
C754 C755 1.383 1_455 S
C754 C756 1.388 . S
C755 C754 1.383 1_655 S
C755 C759 1.390 1_545 S
C756 H737 0.951 . S
C756 C754 1.388 . S
C756 C757 1.351 1_455 S
C757 C756 1.351 1_655 S
C757 C758 1.428 1_545 S
C757 C760 1.499 . S
C758 H738 0.950 . S
C758 C757 1.428 1_565 S
C758 C759 1.374 . S
C759 H739 0.950 . S
C759 C755 1.390 1_565 S
C759 C758 1.374 . S
C760 C757 1.499 . S
C760 C761 1.373 1_545 S
C760 C762 1.389 1_655 S
C761 H740 0.950 . S
C761 C760 1.373 1_565 S
C761 C777 1.377 . S
C762 C760 1.389 1_455 S
C762 C763 1.524 . S
C762 C776 1.377 . S
C763 C762 1.524 . S
C763 C764 1.397 . S
C763 C768 1.363 . S
C764 H741 0.950 1_455 S
C764 C763 1.397 . S
C764 C765 1.334 . S
C765 H742 0.950 . S
C765 C764 1.334 . S
C765 C766 1.287 . S
C766 C765 1.287 . S
C766 C767 1.524 . S
C766 H785 0.913 . S
C767 H743 0.950 . S
C767 C766 1.524 . S
C767 C768 1.415 . S
C768 H744 0.950 . S
C768 C763 1.363 . S
C768 C767 1.415 . S
C769 H745 0.951 . S
C769 C770 1.360 1_565 S
C769 C771 1.388 . S
C770 C769 1.360 1_545 S
C770 C774 1.383 1_655 S
C771 H746 0.951 . S
C771 C769 1.388 . S
C771 C772 1.351 1_655 S
C772 C771 1.351 1_455 S
C772 C773 1.407 1_565 S
C772 C775 1.502 . S
C773 H747 0.950 . S
C773 C772 1.407 1_545 S
C773 C774 1.374 . S
C774 H748 0.950 . S
C774 C770 1.383 1_455 S
C774 C773 1.374 . S
C775 C772 1.502 . S
C775 C776 1.355 1_565 S
C775 C777 1.424 1_455 S
C776 H749 0.950 . S
C776 C762 1.377 . S
C776 C775 1.355 1_545 S
C777 C761 1.377 . S
C777 C775 1.424 1_655 S
C777 C778 1.524 . S
C778 C777 1.524 . S
C778 C779 1.397 . S
C778 C783 1.363 . S
C779 H750 0.950 1_655 S
C779 C778 1.397 . S
C779 C780 1.334 . S
C780 H751 0.950 . S
C780 C779 1.334 . S
C780 C781 1.287 . S
C781 C780 1.287 . S
C781 C782 1.524 . S
C781 H784 0.999 . S
C782 H752 0.950 . S
C782 C781 1.524 . S
C782 C783 1.415 . S
C783 H753 0.950 . S
C783 C778 1.363 . S
C783 C782 1.415 . S
H784 C781 0.999 . S
H785 C766 0.913 . S
H786 C804 0.951 . S
H787 C806 0.951 . S
H788 C808 0.950 . S
H789 C809 0.950 . S
H790 C811 0.947 . S
H791 C814 0.950 . S
H792 C815 0.950 . S
H793 C817 0.950 . S
H794 C818 0.950 . S
H795 C819 0.951 . S
H796 C821 0.951 . S
H797 C823 0.950 . S
H798 C824 0.950 . S
H799 C826 0.961 . S
H800 C829 0.950 . S
H801 C830 0.950 . S
H802 C832 0.950 . S
H803 C833 0.950 . S
C804 H786 0.951 . S
C804 C805 1.402 1_655 S
C804 C806 1.388 . S
C805 C804 1.402 1_455 S
C805 C809 1.371 1_545 S
C806 H787 0.951 . S
C806 C804 1.388 . S
C806 C807 1.364 1_545 S
C807 C806 1.364 1_565 S
C807 C808 1.418 1_655 S
C807 C810 1.518 . S
C808 H788 0.950 . S
C808 C807 1.418 1_455 S
C808 C809 1.374 . S
C809 H789 0.950 . S
C809 C805 1.371 1_565 S
C809 C808 1.374 . S
C810 C807 1.518 . S
C810 C811 1.341 1_665 S
C810 C812 1.404 . S
C811 H790 0.947 . S
C811 C810 1.341 1_445 S
C811 C827 1.386 . S
C812 C810 1.404 . S
C812 C813 1.538 . S
C812 C826 1.335 1_565 S
C813 C812 1.538 . S
C813 C814 1.397 . S
C813 C818 1.363 1_565 S
C814 H791 0.950 . S
C814 C813 1.397 . S
C814 C815 1.334 . S
C815 H792 0.950 . S
C815 C814 1.334 . S
C815 C816 1.287 . S
C816 C815 1.287 . S
C816 C817 1.524 1_565 S
C816 H835 0.913 . S
C817 H793 0.950 . S
C817 C816 1.524 1_545 S
C817 C818 1.415 . S
C818 H794 0.950 . S
C818 C813 1.363 1_545 S
C818 C817 1.415 . S
C819 H795 0.951 . S
C819 C820 1.358 1_565 S
C819 C821 1.388 . S
C820 C819 1.358 1_545 S
C820 C824 1.387 1_455 S
C821 H796 0.951 . S
C821 C819 1.388 . S
C821 C822 1.366 1_565 S
C822 C821 1.366 1_545 S
C822 C823 1.414 1_455 S
C822 C825 1.499 . S
C823 H797 0.950 . S
C823 C822 1.414 1_655 S
C823 C824 1.374 . S
C824 H798 0.950 . S
C824 C820 1.387 1_655 S
C824 C823 1.374 . S
C825 C822 1.499 . S
C825 C826 1.385 1_455 S
C825 C827 1.389 . S
C826 H799 0.961 . S
C826 C812 1.335 1_545 S
C826 C825 1.385 1_655 S
C827 C811 1.386 . S
C827 C825 1.389 . S
C827 C828 1.524 . S
C828 C827 1.524 . S
C828 C829 1.397 . S
C828 C833 1.363 1_545 S
C829 H800 0.950 . S
C829 C828 1.397 . S
C829 C830 1.334 . S
C830 H801 0.950 . S
C830 C829 1.334 . S
C830 C831 1.287 . S
C831 C830 1.287 . S
C831 C832 1.524 1_545 S
C831 H834 0.999 . S
C832 H802 0.950 . S
C832 C831 1.524 1_565 S
C832 C833 1.415 . S
C833 H803 0.950 . S
C833 C828 1.363 1_565 S
C833 C832 1.415 . S
H834 C831 0.999 . S
H835 C816 0.913 . S
H836 C854 0.951 . S
H837 C856 0.951 . S
H838 C858 0.950 . S
H839 C859 0.950 . S
H840 C861 0.950 . S
H841 C864 0.950 . S
H842 C865 0.950 . S
H843 C867 0.950 . S
H844 C868 0.950 . S
H845 C869 0.951 . S
H846 C871 0.951 . S
H847 C873 0.950 . S
H848 C874 0.950 . S
H849 C876 0.950 . S
H850 C879 0.950 . S
H851 C880 0.950 . S
H852 C882 0.950 . S
H853 C883 0.950 . S
C854 H836 0.951 . S
C854 C855 1.366 . S
C854 C856 1.388 . S
C855 C854 1.366 . S
C855 C859 1.385 . S
C856 H837 0.951 . S
C856 C854 1.388 . S
C856 C857 1.366 . S
C857 C856 1.366 . S
C857 C858 1.414 . S
C857 C860 1.499 . S
C858 H838 0.950 . S
C858 C857 1.414 . S
C858 C859 1.374 . S
C859 H839 0.950 . S
C859 C855 1.385 . S
C859 C858 1.374 . S
C860 C857 1.499 . S
C860 C861 1.373 . S
C860 C862 1.389 . S
C861 H840 0.950 . S
C861 C860 1.373 . S
C861 C877 1.377 . S
C862 C860 1.389 . S
C862 C863 1.524 . S
C862 C876 1.377 . S
C863 C862 1.524 . S
C863 C864 1.397 . S
C863 C868 1.363 . S
C864 H841 0.950 . S
C864 C863 1.397 . S
C864 C865 1.334 . S
C865 H842 0.950 . S
C865 C864 1.334 . S
C865 C866 1.287 . S
C866 C865 1.287 . S
C866 C867 1.524 . S
C866 H885 0.913 . S
C867 H843 0.950 . S
C867 C866 1.524 . S
C867 C868 1.415 . S
C868 H844 0.950 . S
C868 C863 1.363 . S
C868 C867 1.415 . S
C869 H845 0.951 . S
C869 C870 1.366 . S
C869 C871 1.388 . S
C870 C869 1.366 . S
C870 C874 1.385 . S
C871 H846 0.951 . S
C871 C869 1.388 . S
C871 C872 1.366 . S
C872 C871 1.366 . S
C872 C873 1.414 . S
C872 C875 1.499 . S
C873 H847 0.950 . S
C873 C872 1.414 . S
C873 C874 1.374 . S
C874 H848 0.950 . S
C874 C870 1.385 . S
C874 C873 1.374 . S
C875 C872 1.499 . S
C875 C876 1.373 . S
C875 C877 1.389 . S
C876 H849 0.950 . S
C876 C862 1.377 . S
C876 C875 1.373 . S
C877 C861 1.377 . S
C877 C875 1.389 . S
C877 C878 1.524 . S
C878 C877 1.524 . S
C878 C879 1.397 . S
C878 C883 1.363 . S
C879 H850 0.950 . S
C879 C878 1.397 . S
C879 C880 1.334 . S
C880 H851 0.950 . S
C880 C879 1.334 . S
C880 C881 1.287 . S
C881 C880 1.287 . S
C881 C882 1.524 . S
C881 H884 0.999 . S
C882 H852 0.950 . S
C882 C881 1.524 . S
C882 C883 1.415 . S
C883 H853 0.950 . S
C883 C878 1.363 . S
C883 C882 1.415 . S
H884 C881 0.999 . S
H885 C866 0.913 . S
H886 C904 0.951 . S
H887 C906 0.951 . S
H888 C908 0.950 . S
H889 C909 0.950 . S
H890 C911 0.950 . S
H891 C914 0.950 . S
H892 C915 0.950 . S
H893 C917 0.950 . S
H894 C918 0.950 . S
H895 C919 0.951 . S
H896 C921 0.951 . S
H897 C923 0.950 . S
H898 C924 0.950 . S
H899 C926 0.950 . S
H900 C929 0.950 . S
H901 C930 0.950 . S
H902 C932 0.950 . S
H903 C933 0.950 . S
C904 H886 0.951 . S
C904 C905 1.366 . S
C904 C906 1.388 . S
C905 C904 1.366 . S
C905 C909 1.385 . S
C906 H887 0.951 . S
C906 C904 1.388 . S
C906 C907 1.366 . S
C907 C906 1.366 . S
C907 C908 1.414 . S
C907 C910 1.499 . S
C908 H888 0.950 . S
C908 C907 1.414 . S
C908 C909 1.374 . S
C909 H889 0.950 . S
C909 C905 1.385 . S
C909 C908 1.374 . S
C910 C907 1.499 . S
C910 C911 1.373 . S
C910 C912 1.389 . S
C911 H890 0.950 . S
C911 C910 1.373 . S
C911 C927 1.377 . S
C912 C910 1.389 . S
C912 C913 1.524 . S
C912 C926 1.377 . S
C913 C912 1.524 . S
C913 C914 1.397 . S
C913 C918 1.363 . S
C914 H891 0.950 . S
C914 C913 1.397 . S
C914 C915 1.334 . S
C915 H892 0.950 . S
C915 C914 1.334 . S
C915 C916 1.287 . S
C916 C915 1.287 . S
C916 C917 1.524 . S
C916 H935 0.913 . S
C917 H893 0.950 . S
C917 C916 1.524 . S
C917 C918 1.415 . S
C918 H894 0.950 . S
C918 C913 1.363 . S
C918 C917 1.415 . S
C919 H895 0.951 . S
C919 C920 1.366 . S
C919 C921 1.388 . S
C920 C919 1.366 . S
C920 C924 1.385 . S
C921 H896 0.951 . S
C921 C919 1.388 . S
C921 C922 1.366 . S
C922 C921 1.366 . S
C922 C923 1.414 . S
C922 C925 1.499 . S
C923 H897 0.950 . S
C923 C922 1.414 . S
C923 C924 1.374 . S
C924 H898 0.950 . S
C924 C920 1.385 . S
C924 C923 1.374 . S
C925 C922 1.499 . S
C925 C926 1.373 . S
C925 C927 1.389 . S
C926 H899 0.950 . S
C926 C912 1.377 . S
C926 C925 1.373 . S
C927 C911 1.377 . S
C927 C925 1.389 . S
C927 C928 1.524 . S
C928 C927 1.524 . S
C928 C929 1.397 . S
C928 C933 1.363 . S
C929 H900 0.950 . S
C929 C928 1.397 . S
C929 C930 1.334 . S
C930 H901 0.950 . S
C930 C929 1.334 . S
C930 C931 1.287 . S
C931 C930 1.287 . S
C931 C932 1.524 . S
C931 H934 0.999 . S
C932 H902 0.950 . S
C932 C931 1.524 . S
C932 C933 1.415 . S
C933 H903 0.950 . S
C933 C928 1.363 . S
C933 C932 1.415 . S
H934 C931 0.999 . S
H935 C916 0.913 . S
C355 C237 1.383 1_556 S
C370 C58 1.383 1_554 S
C405 C226 1.382 1_554 S
C420 C69 1.357 1_556 S
C455 C142 1.383 . S
C470 C321 1.383 . S
C505 C153 1.381 . S
C520 C310 1.382 . S
C555 C67 1.938 . S
C570 C56 1.937 1_554 S
C605 C151 1.938 . S
C620 C140 1.938 . S
C655 C235 1.938 . S
C670 C224 1.937 1_554 S
C705 C308 1.938 . S
C720 C319 1.938 . S
C755 C147 1.454 1_545 S
C770 C63 1.487 . S
C805 C74 1.453 1_545 S
C820 C158 1.486 . S
C855 C315 1.479 . S
C870 C231 1.479 . S
C905 C326 1.479 . S
C920 C242 1.479 . S
