# Generated by pormake.
# Topology wkj, (6)-cn, num edge types: 1
# Building blocks:
#     Node 0, Type 0, BuildingBlock: JUFBIX_clean_sbu_0, # of connection points: 6
#     Node 1, Type 0, BuildingBlock: JUFBIX_clean_sbu_0, # of connection points: 6
#     Node 2, Type 0, BuildingBlock: JUFBIX_clean_sbu_0, # of connection points: 6
#     Node 3, Type 0, BuildingBlock: JUFBIX_clean_sbu_0, # of connection points: 6
#     Node 4, Type 0, BuildingBlock: JUFBIX_clean_sbu_0, # of connection points: 6
#     Node 5, Type 0, BuildingBlock: JUFBIX_clean_sbu_0, # of connection points: 6
#     Node 6, Type 0, BuildingBlock: JUFBIX_clean_sbu_0, # of connection points: 6
#     Node 7, Type 0, BuildingBlock: JUFBIX_clean_sbu_0, # of connection points: 6
#     Node 8, Type 0, BuildingBlock: JUFBIX_clean_sbu_0, # of connection points: 6
#     Node 9, Type 0, BuildingBlock: JUFBIX_clean_sbu_0, # of connection points: 6
#     Node 10, Type 0, BuildingBlock: JUFBIX_clean_sbu_0, # of connection points: 6
#     Node 11, Type 0, BuildingBlock: JUFBIX_clean_sbu_0, # of connection points: 6
#     Edge 12, Type (0, 0), BuildingBlock: AJUNOK_clean_linker_0, # of connection points: 2
#     Edge 13, Type (0, 0), BuildingBlock: AJUNOK_clean_linker_0, # of connection points: 2
#     Edge 14, Type (0, 0), BuildingBlock: AJUNOK_clean_linker_0, # of connection points: 2
#     Edge 15, Type (0, 0), BuildingBlock: AJUNOK_clean_linker_0, # of connection points: 2
#     Edge 16, Type (0, 0), BuildingBlock: AJUNOK_clean_linker_0, # of connection points: 2
#     Edge 17, Type (0, 0), BuildingBlock: AJUNOK_clean_linker_0, # of connection points: 2
#     Edge 18, Type (0, 0), BuildingBlock: AJUNOK_clean_linker_0, # of connection points: 2
#     Edge 19, Type (0, 0), BuildingBlock: AJUNOK_clean_linker_0, # of connection points: 2
#     Edge 20, Type (0, 0), BuildingBlock: AJUNOK_clean_linker_0, # of connection points: 2
#     Edge 21, Type (0, 0), BuildingBlock: AJUNOK_clean_linker_0, # of connection points: 2
#     Edge 22, Type (0, 0), BuildingBlock: AJUNOK_clean_linker_0, # of connection points: 2
#     Edge 23, Type (0, 0), BuildingBlock: AJUNOK_clean_linker_0, # of connection points: 2
#     Edge 24, Type (0, 0), BuildingBlock: AJUNOK_clean_linker_0, # of connection points: 2
#     Edge 25, Type (0, 0), BuildingBlock: AJUNOK_clean_linker_0, # of connection points: 2
#     Edge 26, Type (0, 0), BuildingBlock: AJUNOK_clean_linker_0, # of connection points: 2
#     Edge 27, Type (0, 0), BuildingBlock: AJUNOK_clean_linker_0, # of connection points: 2
#     Edge 28, Type (0, 0), BuildingBlock: AJUNOK_clean_linker_0, # of connection points: 2
#     Edge 29, Type (0, 0), BuildingBlock: AJUNOK_clean_linker_0, # of connection points: 2
#     Edge 30, Type (0, 0), BuildingBlock: AJUNOK_clean_linker_0, # of connection points: 2
#     Edge 31, Type (0, 0), BuildingBlock: AJUNOK_clean_linker_0, # of connection points: 2
#     Edge 32, Type (0, 0), BuildingBlock: AJUNOK_clean_linker_0, # of connection points: 2
#     Edge 33, Type (0, 0), BuildingBlock: AJUNOK_clean_linker_0, # of connection points: 2
#     Edge 34, Type (0, 0), BuildingBlock: AJUNOK_clean_linker_0, # of connection points: 2
#     Edge 35, Type (0, 0), BuildingBlock: AJUNOK_clean_linker_0, # of connection points: 2
#     Edge 36, Type (0, 0), BuildingBlock: AJUNOK_clean_linker_0, # of connection points: 2
#     Edge 37, Type (0, 0), BuildingBlock: AJUNOK_clean_linker_0, # of connection points: 2
#     Edge 38, Type (0, 0), BuildingBlock: AJUNOK_clean_linker_0, # of connection points: 2
#     Edge 39, Type (0, 0), BuildingBlock: AJUNOK_clean_linker_0, # of connection points: 2
#     Edge 40, Type (0, 0), BuildingBlock: AJUNOK_clean_linker_0, # of connection points: 2
#     Edge 41, Type (0, 0), BuildingBlock: AJUNOK_clean_linker_0, # of connection points: 2
#     Edge 42, Type (0, 0), BuildingBlock: AJUNOK_clean_linker_0, # of connection points: 2
#     Edge 43, Type (0, 0), BuildingBlock: AJUNOK_clean_linker_0, # of connection points: 2
#     Edge 44, Type (0, 0), BuildingBlock: AJUNOK_clean_linker_0, # of connection points: 2
#     Edge 45, Type (0, 0), BuildingBlock: AJUNOK_clean_linker_0, # of connection points: 2
#     Edge 46, Type (0, 0), BuildingBlock: AJUNOK_clean_linker_0, # of connection points: 2
#     Edge 47, Type (0, 0), BuildingBlock: AJUNOK_clean_linker_0, # of connection points: 2
# Relax obj value: 0.895
# Max RMSD: 0.266
# Mean RMSD: 0.262
data_MOF--net-wkj--node1-JUFBIX_clean_sbu_0--edge1-AJUNOK_clean_linker_0
_symmetry_space_group_name_H-M    P1
_symmetry_Int_Tables_number       1
_symmetry_cell_setting            triclinic
loop_
_symmetry_equiv_pos_as_xyz
'x, y, z'
_cell_length_a     37.435489
_cell_length_b     37.632575
_cell_length_c     19.763362
_cell_angle_alpha  90.087408
_cell_angle_beta   90.159159
_cell_angle_gamma 119.46898
loop_
_atom_site_label
_atom_site_type_symbol
_atom_site_fract_x
_atom_site_fract_y
_atom_site_fract_z
_atom_type_partial_charge
Co0 Co 0.4199 0.05281 0.21087 0.0
C1 C 0.46733 0.03107 0.28793 0.0
Co2 Co 0.46996 0.10103 0.26602 0.0
C3 C 0.36235 0.01292 0.10782 0.0
C4 C 0.35214 0.97244 0.19055 0.0
N5 N 0.37722 0.01059 0.16838 0.0
N6 N 0.32906 0.97771 0.09033 0.0
C7 C 0.32266 0.95188 0.14207 0.0
H8 H 0.37643 0.03986 0.07631 0.0
H9 H 0.35544 0.96031 0.23827 0.0
C10 C 0.41963 0.12462 0.19906 0.0
N11 N 0.51164 0.14555 0.30693 0.0
C12 C 0.52332 0.1499 0.37178 0.0
C13 C 0.53711 0.1819 0.27775 0.0
N14 N 0.55497 0.18727 0.38397 0.0
C15 C 0.56441 0.20771 0.32542 0.0
C16 C 0.49171 0.09151 0.13175 0.0
O17 O 0.40221 0.08878 0.17543 0.0
O18 O 0.44873 0.13521 0.24065 0.0
O19 O 0.50392 0.11462 0.18374 0.0
O20 O 0.45481 0.06227 0.13181 0.0
O21 O 0.49108 0.06903 0.29348 0.0
H22 H 0.53599 0.18915 0.22511 0.0
H23 H 0.50945 0.126 0.40928 0.0
O24 O 0.43685 0.01765 0.24776 0.0
O25 O 0.38516 0.04071 0.2887 0.0
O26 O 0.43626 0.08339 0.35119 0.0
C27 C 0.39965 0.05308 0.34761 0.0
H28 H 0.30012 0.91975 0.1431 0.0
H29 H 0.58926 0.23852 0.31789 0.0
Co30 Co 0.37781 0.44332 0.66025 0.0
C31 C 0.43485 0.49921 0.74751 0.0
Co32 Co 0.35625 0.47817 0.71827 0.0
C33 C 0.39033 0.41133 0.54409 0.0
C34 C 0.4106 0.38958 0.6272 0.0
N35 N 0.3976 0.41615 0.61045 0.0
N36 N 0.39578 0.38147 0.51857 0.0
C37 C 0.40902 0.3676 0.57019 0.0
H38 H 0.37582 0.42571 0.51652 0.0
H39 H 0.41678 0.38367 0.67813 0.0
C40 C 0.29789 0.42241 0.62858 0.0
N41 N 0.33662 0.50597 0.77094 0.0
C42 C 0.3599 0.54313 0.79898 0.0
C43 C 0.3001 0.49084 0.80237 0.0
N44 N 0.34059 0.55106 0.84934 0.0
C45 C 0.30245 0.51849 0.85064 0.0
C46 C 0.39059 0.51499 0.59271 0.0
O47 O 0.32691 0.41602 0.61214 0.0
O48 O 0.30303 0.4459 0.67848 0.0
O49 O 0.37071 0.51846 0.64278 0.0
O50 O 0.39788 0.4855 0.5939 0.0
O51 O 0.40852 0.5103 0.75648 0.0
H52 H 0.27471 0.46028 0.79515 0.0
H53 H 0.39217 0.56231 0.78813 0.0
O54 O 0.42716 0.47023 0.70663 0.0
O55 O 0.35986 0.40173 0.72463 0.0
O56 O 0.34495 0.43798 0.79324 0.0
C57 C 0.35112 0.40766 0.78371 0.0
H58 H 0.41409 0.34168 0.56805 0.0
H59 H 0.27898 0.51345 0.88725 0.0
Co60 Co 0.9284 0.35757 0.86349 0.0
C61 C 0.96506 0.42954 0.93481 0.0
Co62 Co 0.88759 0.37103 0.92168 0.0
C63 C 0.95795 0.33455 0.7511 0.0
C64 C 0.0007 0.35266 0.83336 0.0
N65 N 0.96372 0.34751 0.81548 0.0
N66 N 0.99052 0.33293 0.72643 0.0
C67 C 0.01741 0.34391 0.77835 0.0
H68 H 0.93178 0.32985 0.72092 0.0
H69 H 0.01558 0.36455 0.88161 0.0
C70 C 0.84963 0.29426 0.85982 0.0
N71 N 0.84914 0.37779 0.96736 0.0
C72 C 0.84645 0.38079 1.03432 0.0
C73 C 0.81283 0.3717 0.9424 0.0
N74 N 0.80967 0.37568 0.05235 0.0
C75 C 0.78838 0.37055 0.99499 0.0
C76 C 0.89497 0.39936 0.78834 0.0
O77 O 0.885 0.30495 0.83695 0.0
O78 O 0.8449 0.31864 0.89776 0.0
O79 O 0.87649 0.39481 0.84394 0.0
O80 O 0.91834 0.38364 0.78332 0.0
O81 O 0.92868 0.42171 0.94695 0.0
H82 H 0.80356 0.36559 0.88986 0.0
H83 H 0.87033 0.38499 0.06967 0.0
O84 O 0.97148 0.40828 0.89171 0.0
O85 O 0.94089 0.33521 0.94229 0.0
O86 O 0.90227 0.35055 1.00374 0.0
C87 C 0.93032 0.34057 1.0009 0.0
H88 H 0.04871 0.34979 0.77463 0.0
H89 H 0.75692 0.36425 0.99178 0.0
Co90 Co 0.54711 0.92384 0.33173 0.0
C91 C 0.49104 0.9304 0.41538 0.0
Co92 Co 0.50664 0.87006 0.39131 0.0
C93 C 0.60713 0.97554 0.23832 0.0
C94 C 0.59473 0.01045 0.31011 0.0
N95 N 0.58135 0.97186 0.28824 0.0
N96 N 0.63737 0.01418 0.23062 0.0
C97 C 0.62915 0.03671 0.27411 0.0
H98 H 0.60401 0.95025 0.20791 0.0
H99 H 0.582 0.0188 0.35227 0.0
C100 C 0.56112 0.86048 0.30483 0.0
N101 N 0.47366 0.82285 0.43937 0.0
C102 C 0.4598 0.82155 0.50267 0.0
C103 C 0.45173 0.78425 0.41596 0.0
N104 N 0.42921 0.78419 0.51915 0.0
C105 C 0.42397 0.76044 0.46481 0.0
C106 C 0.47537 0.87196 0.25921 0.0
O107 O 0.57342 0.89736 0.29005 0.0
O108 O 0.53558 0.84455 0.35295 0.0
O109 O 0.46812 0.84988 0.31236 0.0
O110 O 0.5085 0.90604 0.25726 0.0
O111 O 0.47707 0.89313 0.42752 0.0
H112 H 0.45335 0.77484 0.36483 0.0
H113 H 0.46879 0.84851 0.53344 0.0
O114 O 0.52007 0.94835 0.37326 0.0
O115 O 0.5855 0.94361 0.40365 0.0
O116 O 0.54533 0.8944 0.47055 0.0
C117 C 0.57701 0.92984 0.4632 0.0
H118 H 0.64712 0.0695 0.28021 0.0
H119 H 0.39972 0.72914 0.45885 0.0
Co120 Co 0.61663 0.55411 0.53315 0.0
C121 C 0.54861 0.51281 0.6124 0.0
Co122 Co 0.61369 0.50387 0.59045 0.0
C123 C 0.63844 0.61388 0.43034 0.0
C124 C 0.60513 0.62246 0.51048 0.0
N125 N 0.6189 0.5975 0.4886 0.0
N126 N 0.63725 0.64806 0.41418 0.0
C127 C 0.61581 0.65319 0.46445 0.0
H128 H 0.65268 0.60047 0.39978 0.0
H129 H 0.58822 0.6185 0.55673 0.0
C130 C 0.68693 0.54884 0.52156 0.0
N131 N 0.6144 0.462 0.63637 0.0
C132 C 0.61142 0.45632 0.70347 0.0
C133 C 0.62224 0.43299 0.61186 0.0
N134 N 0.61704 0.4251 0.72212 0.0
C135 C 0.62357 0.4099 0.6648 0.0
C136 C 0.5807 0.48046 0.45741 0.0
O137 O 0.6694 0.56749 0.49752 0.0
O138 O 0.66823 0.52089 0.56439 0.0
O139 O 0.59211 0.46851 0.50948 0.0
O140 O 0.58872 0.51759 0.45628 0.0
O141 O 0.56083 0.48705 0.61879 0.0
H142 H 0.62773 0.42952 0.55919 0.0
H143 H 0.60538 0.47481 0.73846 0.0
O144 O 0.56597 0.54153 0.57003 0.0
O145 O 0.6412 0.59018 0.60947 0.0
O146 O 0.63176 0.53937 0.67303 0.0
C147 C 0.63907 0.57625 0.66871 0.0
H148 H 0.60597 0.67579 0.46618 0.0
H149 H 0.62963 0.38463 0.6616 0.0
Co150 Co 0.05984 0.60017 0.99371 0.0
C151 C 0.06485 0.5433 0.07357 0.0
Co152 Co 0.11695 0.62308 1.0495 0.0
C153 C 0.01242 0.58837 0.881 0.0
C154 C 0.97273 0.56543 0.96623 0.0
N155 N 0.0119 0.57964 0.94643 0.0
N156 N 0.97624 0.58299 0.85918 0.0
C157 C 0.95062 0.56809 0.91233 0.0
H158 H 0.04041 0.60363 0.85201 0.0
H159 H 0.96196 0.55749 1.01761 0.0
C160 C 0.11497 0.68057 0.96405 0.0
N161 N 0.16543 0.64303 0.09861 0.0
C162 C 0.16865 0.6305 0.16106 0.0
C163 C 0.20421 0.66278 0.07497 0.0
N164 N 0.20748 0.64026 0.17663 0.0
C165 C 0.23011 0.66059 0.12261 0.0
C166 C 0.11965 0.59168 0.92038 0.0
O167 O 0.08018 0.65106 0.94804 0.0
O168 O 0.13422 0.67636 1.01383 0.0
O169 O 0.14284 0.61162 0.97029 0.0
O170 O 0.08224 0.58226 0.92349 0.0
O171 O 0.10145 0.57086 0.08274 0.0
H172 H 0.21251 0.67421 1.02394 0.0
H173 H 0.14235 0.61011 0.19118 0.0
O174 O 0.04108 0.55063 1.03748 0.0
O175 O 0.03574 0.61629 0.06162 0.0
O176 O 0.08772 0.63157 0.12837 0.0
C177 C 0.05079 0.62491 0.12052 0.0
H178 H 0.91933 0.56227 0.91374 0.0
H179 H 0.26216 0.66974 0.1156 0.0
Co180 Co 0.91862 0.56925 0.48145 0.0
C181 C 0.95873 0.52739 0.44593 0.0
Co182 Co 0.88171 0.51193 0.42819 0.0
C183 C 0.94114 0.62761 0.58328 0.0
C184 C 0.98926 0.64796 0.51078 0.0
N185 N 0.9506 0.61843 0.52289 0.0
N186 N 0.97392 0.65779 0.6147 0.0
C187 C 0.00358 0.67256 0.56711 0.0
H188 H 0.91322 0.60689 0.60971 0.0
H189 H 0.00753 0.64849 0.46836 0.0
C190 C 0.83983 0.55413 0.46126 0.0
N191 N 0.84512 0.4627 0.39099 0.0
C192 C 0.84499 0.44556 0.33153 0.0
C193 C 0.80791 0.4375 0.41839 0.0
N194 N 0.80924 0.41096 0.32126 0.0
C195 C 0.78558 0.40574 0.37506 0.0
C196 C 0.88418 0.50184 0.56955 0.0
O197 O 0.87358 0.57956 0.48816 0.0
O198 O 0.83764 0.52319 0.43229 0.0
O199 O 0.86803 0.48454 0.51406 0.0
O200 O 0.90536 0.54068 0.56976 0.0
O201 O 0.92417 0.50071 0.42282 0.0
H202 H 0.79661 0.44323 0.46514 0.0
H203 H 0.86925 0.45951 0.29444 0.0
O204 O 0.96254 0.55926 0.4748 0.0
O205 O 0.93539 0.59641 0.39555 0.0
O206 O 0.89978 0.53907 0.34005 0.0
C207 C 0.92788 0.57664 0.34016 0.0
H208 H 0.03565 0.69377 0.57723 0.0
H209 H 0.7538 0.3823 0.38029 0.0
Co210 Co 0.3088 0.86475 0.73998 0.0
C211 C 0.24193 0.79709 0.80083 0.0
Co212 Co 0.32352 0.8398 0.83505 0.0
C213 C 0.33018 0.9161 0.61299 0.0
C214 C 0.26695 0.88991 0.63935 0.0
N215 N 0.30134 0.8894 0.65777 0.0
N216 N 0.31503 0.93288 0.56765 0.0
C217 C 0.27509 0.9161 0.5852 0.0
H218 H 0.36212 0.92396 0.61447 0.0
H219 H 0.23807 0.87391 0.66588 0.0
C220 C 0.38834 0.90678 0.78499 0.0
N221 N 0.33811 0.82227 0.91757 0.0
C222 C 0.35927 0.84448 0.97326 0.0
C223 C 0.33528 0.78552 0.92771 0.0
N224 N 0.37012 0.82316 1.01652 0.0
C225 C 0.35497 0.7861 0.98739 0.0
C226 C 0.33417 0.8074 0.71607 0.0
O227 O 0.36483 0.90416 0.73664 0.0
O228 O 0.37532 0.88131 0.83242 0.0
O229 O 0.33917 0.80812 0.78015 0.0
O230 O 0.31954 0.82839 0.68914 0.0
O231 O 0.27036 0.79802 0.83752 0.0
H232 H 0.32145 0.76033 0.89229 0.0
H233 H 0.36847 0.87638 0.98017 0.0
O234 O 0.25059 0.82261 0.75163 0.0
O235 O 0.29876 0.9003 0.79228 0.0
O236 O 0.30756 0.87227 0.88462 0.0
C237 C 0.29777 0.89667 0.85611 0.0
H238 H 0.25324 0.92363 0.56292 0.0
H239 H 0.35885 0.76136 1.00703 0.0
Co240 Co 0.41053 0.33902 0.14331 0.0
C241 C 0.45848 0.41919 0.10781 0.0
Co242 Co 0.46835 0.35395 0.09636 0.0
C243 C 0.34928 0.30892 0.24071 0.0
C244 C 0.33656 0.34252 0.16677 0.0
N245 N 0.36187 0.32771 0.18119 0.0
N246 N 0.32085 0.31597 0.26936 0.0
C247 C 0.31073 0.33474 0.22076 0.0
H248 H 0.3672 0.29848 0.26905 0.0
H249 H 0.34058 0.36268 0.12507 0.0
C250 C 0.41978 0.27193 0.13114 0.0
N251 N 0.51633 0.36203 0.05832 0.0
C252 C 0.53411 0.38037 1.00005 0.0
C253 C 0.53935 0.34601 0.08185 0.0
N254 N 0.56697 0.3761 0.98644 0.0
C255 C 0.57045 0.35432 1.03706 0.0
C256 C 0.47733 0.3682 0.23701 0.0
O257 O 0.39707 0.28406 0.15803 0.0
O258 O 0.45159 0.29747 0.1001 0.0
O259 O 0.49517 0.36426 0.18508 0.0
O260 O 0.43915 0.35668 0.23145 0.0
O261 O 0.48499 0.40909 0.09154 0.0
H262 H 0.53277 0.32778 0.12716 0.0
H263 H 0.52203 0.39468 0.96649 0.0
O264 O 0.42364 0.39255 0.1292 0.0
O265 O 0.38314 0.3256 0.05817 0.0
O266 O 0.44181 0.34753 1.00725 0.0
C267 C 0.40376 0.33737 1.00405 0.0
H268 H 0.2927 0.34966 0.22935 0.0
H269 H 0.59274 0.34394 1.03981 0.0
Co270 Co 0.12424 0.44489 0.38886 0.0
C271 C 0.18257 0.43458 0.46149 0.0
Co272 Co 0.14844 0.48432 0.48395 0.0
C273 C 0.06718 0.41027 0.26919 0.0
C274 C 0.10971 0.38807 0.27389 0.0
N275 N 0.10006 0.41384 0.30584 0.0
N276 N 0.05591 0.38336 0.2163 0.0
C277 C 0.08321 0.36971 0.21981 0.0
H278 H 0.05184 0.42739 0.28087 0.0
H279 H 0.13404 0.38221 0.28949 0.0
C280 C 0.09128 0.49504 0.42029 0.0
N281 N 0.16718 0.51467 0.56706 0.0
C282 C 0.14554 0.51757 0.62028 0.0
C283 C 0.20666 0.53891 0.58533 0.0
N284 N 0.16996 0.54232 0.67104 0.0
C285 C 0.20846 0.55588 0.64817 0.0
C286 C 0.1901 0.5236 0.36826 0.0
O287 O 0.09085 0.46942 0.37787 0.0
O288 O 0.11419 0.50477 0.47176 0.0
O289 O 0.18847 0.52813 0.43209 0.0
O290 O 0.16661 0.48902 0.34057 0.0
O291 O 0.18284 0.46313 0.49611 0.0
H292 H 0.23267 0.54434 0.55448 0.0
H293 H 0.11234 0.50163 0.62178 0.0
O294 O 0.15999 0.42111 0.40794 0.0
O295 O 0.08267 0.40253 0.43793 0.0
O296 O 0.10716 0.43966 0.5309 0.0
C297 C 0.08151 0.40676 0.50129 0.0
H298 H 0.0837 0.34713 0.18647 0.0
H299 H 0.23631 0.57766 0.67376 0.0
Co300 Co 0.63736 0.06447 0.82821 0.0
C301 C 0.55691 0.0253 0.78976 0.0
Co302 Co 0.61784 0.10009 0.76767 0.0
C303 C 0.68294 0.05085 0.92584 0.0
C304 C 0.63632 -0.00648 0.88731 0.0
N305 N 0.65413 0.03401 0.87734 0.0
N306 N 0.68181 0.02325 0.96997 0.0
C307 C 0.65318 0.98681 0.94459 0.0
H308 H 0.70023 0.08337 0.9349 0.0
H309 H 0.60963 0.97088 0.86015 0.0
C310 C 0.70012 0.14267 0.80426 0.0
N311 N 0.60492 0.13527 0.72364 0.0
C312 C 0.59965 0.13893 0.65732 0.0
C313 C 0.60753 0.16924 0.75224 0.0
N314 N 0.59892 0.17367 0.64404 0.0
C315 C 0.60355 0.19273 0.70341 0.0
C316 C 0.60367 0.10176 0.90947 0.0
O317 O 0.69319 0.10873 0.82813 0.0
O318 O 0.67084 0.14489 0.77695 0.0
O319 O 0.59967 0.11338 0.85114 0.0
O320 O 0.62471 0.08358 0.91385 0.0
O321 O 0.5662 0.05761 0.75739 0.0
H322 H 0.61478 0.17818 0.80466 0.0
H323 H 0.59786 0.11743 0.61917 0.0
O324 O 0.58305 0.02219 0.82673 0.0
O325 O 0.6456 0.04196 0.74603 0.0
O326 O 0.63188 0.0817 0.68323 0.0
C327 C 0.63842 0.05135 0.68769 0.0
H328 H 0.64068 0.95795 0.97093 0.0
H329 H 0.60604 0.22242 0.71035 0.0
Co330 Co 0.54437 0.66849 0.06544 0.0
C331 C 0.54323 0.73523 0.12523 0.0
Co332 Co 0.5057 0.65403 0.16121 0.0
C333 C 0.57363 0.64624 0.93787 0.0
C334 C 0.60916 0.7095 0.96294 0.0
N335 N 0.57554 0.67512 0.98278 0.0
N336 N 0.60442 0.66137 0.89102 0.0
C337 C 0.62667 0.70131 0.90772 0.0
H338 H 0.55047 0.61435 0.94011 0.0
H339 H 0.62148 0.73851 0.98892 0.0
C340 C 0.50537 0.58823 0.10819 0.0
N341 N 0.47466 0.64227 0.24393 0.0
C342 C 0.47243 0.61893 0.29844 0.0
C343 C 0.4476 0.65495 0.25873 0.0
N344 N 0.44534 0.61688 0.34662 0.0
C345 C 0.42967 0.63952 0.32067 0.0
C346 C 0.46159 0.64417 1.04354 0.0
O347 O 0.52762 0.61233 0.06206 0.0
O348 O 0.49432 0.60153 0.15788 0.0
O349 O 0.45846 0.64001 0.10771 0.0
O350 O 0.49663 0.65795 1.01536 0.0
O351 O 0.51787 0.70717 0.16358 0.0
H352 H 0.44054 0.67358 0.22571 0.0
H353 H 0.49022 0.60344 0.30243 0.0
O354 O 0.56013 0.72668 0.07573 0.0
O355 O 0.59048 0.67832 0.11739 0.0
O356 O 0.55368 0.66851 0.21002 0.0
C357 C 0.58778 0.67861 0.18138 0.0
H358 H 0.65501 0.72317 0.88384 0.0
H359 H 0.40557 0.6435 0.34317 0.0
C360 C 0.39478 0.17364 0.21953 0.0
C361 C 0.41008 0.15561 0.17435 0.0
C362 C 0.39506 0.20995 0.20284 0.0
C363 C 0.41201 0.22994 0.14143 0.0
H364 H 0.38442 0.16067 0.26932 0.0
H365 H 0.38462 0.22387 0.24021 0.0
S366 S 0.45353 0.19323 1.00456 0.0
N367 N 0.43985 0.15834 0.06435 0.0
N368 N 0.44176 0.22742 1.0334 0.0
C369 C 0.42561 0.21104 0.09459 0.0
C370 C 0.42435 0.1736 0.11103 0.0
C371 C 0.26909 0.41605 0.5115 0.0
C372 C 0.26258 0.41067 0.5821 0.0
C373 C 0.24014 0.41838 0.46838 0.0
C374 C 0.20352 0.41448 0.49455 0.0
H375 H 0.29842 0.42266 0.49046 0.0
H376 H 0.24828 0.42727 0.41614 0.0
S377 S 0.16942 0.39362 0.67358 0.0
N378 N 0.21494 0.39668 0.67413 0.0
N379 N 0.16052 0.40013 0.59399 0.0
C380 C 0.19503 0.40455 0.56368 0.0
C381 C 0.22458 0.40297 0.60732 0.0
C382 C 0.77603 0.25449 0.82984 0.0
C383 C 0.81344 0.25521 0.84076 0.0
C384 C 0.74011 0.21801 0.81603 0.0
C385 C 0.73984 0.18048 0.81419 0.0
H386 H 0.77441 0.28244 0.83231 0.0
H387 H 0.71202 0.21921 0.80877 0.0
S388 S 0.83009 0.16595 0.83857 0.0
N389 N 0.84872 0.21569 0.84701 0.0
N390 N 0.78049 0.14637 0.82324 0.0
C391 C 0.77716 0.18071 0.82444 0.0
C392 C 0.81417 0.21828 0.837 0.0
C393 C 0.51931 0.78059 0.16762 0.0
C394 C 0.55311 0.77674 0.14653 0.0
C395 C 0.52289 0.80728 0.21961 0.0
C396 C 0.56081 0.83328 0.25034 0.0
H397 H 0.48877 0.75938 0.14913 0.0
H398 H 0.49524 0.8067 0.23716 0.0
S399 S 0.66054 0.84177 0.20442 0.0
N400 N 0.62688 0.80453 0.1555 0.0
N401 N 0.63423 0.85824 0.24908 0.0
C402 C 0.59588 0.83344 0.22468 0.0
C403 C 0.59193 0.80458 0.17332 0.0
C404 C 0.76264 0.58109 0.53539 0.0
C405 C 0.72714 0.55659 0.49726 0.0
C406 C 0.79986 0.58216 0.52079 0.0
C407 C 0.80245 0.55804 0.46847 0.0
H408 H 0.76116 0.59813 0.57852 0.0
H409 H 0.82612 0.60025 0.55308 0.0
S410 S 0.71796 0.49068 0.35158 0.0
N411 N 0.69687 0.50957 0.40328 0.0
N412 N 0.7664 0.51102 0.37563 0.0
C413 C 0.76729 0.53477 0.42824 0.0
C414 C 0.72967 0.5341 0.44282 0.0
C415 C 0.19735 0.78169 0.89973 0.0
C416 C 0.20053 0.77369 0.83086 0.0
C417 C 0.16671 0.75289 0.94149 0.0
C418 C 0.13755 0.71473 0.91608 0.0
H419 H 0.22166 0.80868 0.92358 0.0
H420 H 0.16797 0.75929 0.9952 0.0
S421 S 0.1295 0.67954 0.7379 0.0
N422 N 0.16998 0.72584 0.73801 0.0
N423 N 0.11131 0.67154 0.81582 0.0
C424 C 0.1379 0.70753 0.84581 0.0
C425 C 0.1697 0.737 0.8033 0.0
C426 C 0.58969 0.11126 1.03407 0.0
C427 C 0.57615 0.10116 0.9664 0.0
C428 C 0.56285 0.10971 0.08644 0.0
C429 C 0.52076 0.09646 0.07434 0.0
H430 H 0.6213 0.1207 1.04664 0.0
H431 H 0.57496 0.11781 0.13739 0.0
S432 S 0.46904 0.06405 0.90709 0.0
N433 N 0.51717 0.07685 0.89119 0.0
N434 N 0.46716 0.07187 0.98892 0.0
C435 C 0.50685 0.08555 1.00718 0.0
C436 C 0.5343 0.08843 0.95372 0.0
C437 C 0.43417 0.55649 0.4155 0.0
C438 C 0.43301 0.59322 0.40971 0.0
C439 C 0.42053 0.53215 0.47438 0.0
C440 C 0.40482 0.54289 0.53137 0.0
H441 H 0.44493 0.54584 0.3735 0.0
H442 H 0.42203 0.50413 0.4746 0.0
S443 S 0.39803 0.63774 0.54568 0.0
N444 N 0.41705 0.64043 0.46934 0.0
N445 N 0.39086 0.59436 0.57842 0.0
C446 C 0.40405 0.57987 0.5269 0.0
C447 C 0.4182 0.60495 0.46683 0.0
C448 C 0.89661 0.41918 0.66436 0.0
C449 C 0.89133 0.4254 0.7331 0.0
C450 C 0.89321 0.44343 0.61268 0.0
C451 C 0.88569 0.47608 0.62693 0.0
H452 H 0.903 0.39506 0.65017 0.0
H453 H 0.89742 0.43703 0.56075 0.0
S454 S 0.87032 0.5063 0.79804 0.0
N455 N 0.87787 0.4672 0.81206 0.0
N456 N 0.87365 0.51343 0.71537 0.0
C457 C 0.88114 0.4832 0.69529 0.0
C458 C 0.88333 0.45775 0.74795 0.0
C459 C 0.43185 0.83273 0.08069 0.0
C460 C 0.39656 0.83714 0.07657 0.0
C461 C 0.45682 0.84383 0.13954 0.0
C462 C 0.44688 0.85828 0.19853 0.0
H463 H 0.44051 0.82096 1.03746 0.0
H464 H 0.48426 0.84111 0.13861 0.0
S465 S 0.35791 0.87572 0.21495 0.0
N466 N 0.35368 0.85813 0.13692 0.0
N467 N 0.39923 0.87712 0.24792 0.0
C468 C 0.41165 0.8628 0.19515 0.0
C469 C 0.38686 0.85263 0.1344 0.0
C470 C 0.49203 0.42047 0.33043 0.0
C471 C 0.50241 0.39339 0.29746 0.0
C472 C 0.51768 0.44863 0.3806 0.0
C473 C 0.55465 0.4506 0.40227 0.0
H474 H 0.46443 0.42103 0.31559 0.0
H475 H 0.5082 0.46892 0.40314 0.0
S476 S 0.59597 0.38602 0.33461 0.0
N477 N 0.5531 0.37099 0.29109 0.0
N478 N 0.59954 0.42178 0.38733 0.0
C479 C 0.56486 0.42297 0.37127 0.0
C480 C 0.5394 0.39515 0.31855 0.0
C481 C 0.11001 0.56848 0.79802 0.0
C482 C 0.13439 0.57976 0.85754 0.0
C483 C 0.12147 0.55601 0.73828 0.0
C484 C 0.15797 0.55391 0.73442 0.0
H485 H 0.08163 0.56956 0.79712 0.0
H486 H 0.10176 0.54859 0.69428 0.0
S487 S 0.2313 0.57648 0.87738 0.0
N488 N 0.19611 0.58605 0.90907 0.0
N489 N 0.21725 0.56182 0.79832 0.0
C490 C 0.18239 0.56439 0.79399 0.0
C491 C 0.17079 0.57748 0.85483 0.0
C492 C 0.32974 0.96406 0.90555 0.0
C493 C 0.29425 0.92617 0.89839 0.0
C494 C 0.33896 0.98421 0.96756 0.0
C495 C 0.31262 0.96679 1.02331 0.0
H496 H 0.35324 0.97507 0.86685 0.0
H497 H 0.36917 0.01048 0.97353 0.0
S498 S 0.20828 0.877 1.01889 0.0
N499 N 0.22728 0.8784 0.94296 0.0
N500 N 0.24418 0.91677 0.06043 0.0
C501 C 0.27356 0.93319 1.01204 0.0
C502 C 0.26439 0.91263 0.9489 0.0
C503 C 0.35675 0.37329 0.34471 0.0
C504 C 0.33003 0.33117 0.33681 0.0
C505 C 0.38095 0.38857 0.40196 0.0
C506 C 0.37788 0.36284 0.45545 0.0
H507 H 0.36174 0.39422 0.30361 0.0
H508 H 0.40188 0.42114 0.40528 0.0
S509 S 0.31035 0.25067 0.46188 0.0
N510 N 0.30151 0.2639 0.38661 0.0
N511 N 0.34437 0.29347 0.49918 0.0
C512 C 0.35014 0.32085 0.44988 0.0
C513 C 0.3264 0.30496 0.38985 0.0
C514 C 0.01739 0.38419 0.56086 0.0
C515 C 0.04823 0.37587 0.54049 0.0
C516 C -0.0058 0.36548 0.61798 0.0
C517 C 0.00208 0.33869 0.65679 0.0
H518 H 0.014 0.40822 0.53667 0.0
H519 H 0.97365 0.37592 0.63599 0.0
S520 S 0.07212 0.2993 0.61228 0.0
N521 N 0.07961 0.33309 0.55278 0.0
N522 N 0.03665 0.29854 0.66286 0.0
C523 C 0.02909 0.32623 0.63139 0.0
C524 C 0.05223 0.34485 0.57235 0.0
C525 C 0.67262 0.06067 0.13813 0.0
C526 C 0.66707 0.02765 0.17772 0.0
C527 C 0.68388 0.06283 0.07061 0.0
C528 C 0.6897 0.03177 1.04104 0.0
H529 H 0.66264 0.08155 0.15619 0.0
H530 H 0.68225 0.08587 1.04031 0.0
S531 S 0.69607 0.94959 0.13293 0.0
N532 N 0.68147 0.97162 0.19058 0.0
N533 N 0.70182 0.97507 0.06204 0.0
C534 C 0.69232 0.00362 0.08399 0.0
C535 C 0.68125 0.00174 0.15307 0.0
C536 C 0.64167 0.64346 0.29074 0.0
C537 C 0.64547 0.66702 0.34874 0.0
C538 C 0.63001 0.65238 0.22882 0.0
C539 C 0.62183 0.68474 0.22413 0.0
H540 H 0.64193 0.61495 0.29446 0.0
H541 H 0.62124 0.63029 0.18804 0.0
S542 S 0.64503 0.76522 0.3516 0.0
N543 N 0.65502 0.73214 0.39019 0.0
N544 N 0.62995 0.74708 0.27435 0.0
C545 C 0.6336 0.71294 0.27716 0.0
C546 C 0.64643 0.70451 0.33972 0.0
C547 C -0.00347 0.60152 0.74255 0.0
C548 C 0.97277 0.60099 0.7977 0.0
C549 C 0.00172 0.62554 0.68657 0.0
C550 C 0.98126 0.64827 0.68124 0.0
H551 H 0.01183 0.58345 0.74323 0.0
H552 H 0.01905 0.62349 0.6444 0.0
S553 S 0.91425 0.65658 0.80998 0.0
N554 N 0.92949 0.62637 0.84486 0.0
N555 N 0.93568 0.66842 0.73437 0.0
C556 C 0.95697 0.64785 0.73538 0.0
C557 C 0.95305 0.62452 0.79441 0.0
C558 C 0.43371 0.96467 0.34749 0.0
C559 C 0.46681 0.00482 0.34275 0.0
C560 C 0.43362 0.93846 0.39728 0.0
C561 C 0.46897 0.95099 0.43651 0.0
H562 H 0.40881 0.9528 0.31109 0.0
H563 H 0.41086 0.90638 0.3938 0.0
S564 S 0.54981 0.05652 0.47087 0.0
N565 N 0.52573 0.05948 0.40275 0.0
N566 N 0.52501 0.00809 0.49379 0.0
C567 C 0.4946 -0.00725 0.44653 0.0
C568 C 0.49539 0.02003 0.3966 0.0
C569 C 0.49597 0.55656 0.71882 0.0
C570 C 0.47732 0.52565 0.76711 0.0
C571 C 0.51762 0.551 0.66619 0.0
C572 C 0.52652 0.51866 0.66864 0.0
H573 H 0.48519 0.57828 0.71154 0.0
H574 H 0.52578 0.57096 0.62276 0.0
S575 S 0.51362 0.45521 0.82059 0.0
N576 N 0.48919 0.48051 0.83894 0.0
N577 N 0.53239 0.46997 0.74381 0.0
C578 C 0.51965 0.49736 0.73034 0.0
C579 C 0.49713 0.50349 0.78223 0.0
C580 C 0.98321 0.45555 0.05226 0.0
C581 C -0.00389 0.45126 0.98707 0.0
C582 C 0.01197 0.47763 0.10248 0.0
C583 C 0.05318 0.50079 0.08399 0.0
H584 H 0.95102 0.44317 0.0641 0.0
H585 H 0.00125 0.48475 0.14872 0.0
S586 S 0.10272 0.47999 0.94004 0.0
N587 N 0.05329 0.45592 0.92105 0.0
N588 N 0.10664 0.50016 1.01592 0.0
C589 C 0.0664 0.48635 1.02963 0.0
C590 C 0.03775 0.46322 0.97811 0.0
C591 C 0.02472 0.48566 0.38086 0.0
C592 C 0.06143 0.50907 0.41646 0.0
C593 C -0.00831 0.49229 0.39015 0.0
C594 C -0.00545 0.52253 0.43522 0.0
H595 H 0.02052 0.46053 0.34876 0.0
H596 H 0.96346 0.47285 0.36304 0.0
S597 S 0.08647 0.59603 0.53251 0.0
N598 N 0.10093 0.56701 0.49156 0.0
N599 N 0.03813 0.57873 0.51071 0.0
C600 C 0.03202 0.54795 0.46772 0.0
C601 C 0.06578 0.54149 0.45764 0.0
C602 C 0.45162 0.95518 0.72627 0.0
C603 C 0.43091 0.93819 0.7868 0.0
C604 C 0.49339 0.98289 0.72739 0.0
C605 C 0.51499 -0.00648 0.78887 0.0
H606 H 0.43573 0.94661 0.67803 0.0
H607 H 0.50892 -0.00395 0.68015 0.0
S608 S 0.47392 0.96099 0.96125 0.0
N609 N 0.43414 0.9366 0.91019 0.0
N610 N 0.5134 0.98787 0.9113 0.0
C611 C 0.49473 0.97728 0.84963 0.0
C612 C 0.45224 0.94979 0.84884 0.0
C613 C 0.51278 0.53055 0.06493 0.0
C614 C 0.4914 0.54482 0.1045 0.0
C615 C 0.50147 0.48936 0.06531 0.0
C616 C 0.46834 0.46158 0.10479 0.0
H617 H 0.53899 0.55139 1.03503 0.0
H618 H 0.519 0.47933 1.03511 0.0
S619 S 0.40064 0.48364 0.21313 0.0
N620 N 0.43401 0.52799 0.18057 0.0
N621 N 0.41318 0.45059 0.1821 0.0
C622 C 0.44582 0.4753 0.1427 0.0
C623 C 0.45729 0.51706 0.14235 0.0
C624 C 0.37769 -0.00521 0.51948 0.0
C625 C 0.33616 0.96346 0.51379 0.0
C626 C 0.39747 0.02505 0.46819 0.0
C627 C 0.37695 0.02574 0.40811 0.0
H628 H 0.39514 -0.00392 0.56407 0.0
H629 H 0.42959 0.04733 0.47486 0.0
S630 S 0.26894 0.94926 0.36525 0.0
N631 N 0.27638 0.93454 0.44004 0.0
N632 N 0.31235 0.99069 0.34664 0.0
C633 C 0.33553 -0.00556 0.40211 0.0
C634 C 0.31559 0.96375 0.45377 0.0
C635 C 0.41068 0.36765 0.88701 0.0
C636 C 0.38639 0.34937 0.94443 0.0
C637 C 0.39832 0.3857 0.83623 0.0
C638 C 0.36138 0.3873 0.8402 0.0
H639 H 0.44019 0.36914 0.88197 0.0
H640 H 0.41883 0.39987 0.79408 0.0
S641 S 0.28493 0.34229 0.9773 0.0
N642 N 0.3215 0.33205 0.99943 0.0
N643 N 0.2999 0.36764 0.90535 0.0
C644 C 0.33639 0.36877 0.89644 0.0
C645 C 0.34839 0.34935 0.94777 0.0
C646 C -0.00568 0.34333 0.05168 0.0
C647 C 0.95852 0.34646 0.06117 0.0
C648 C 0.02524 0.35525 0.10192 0.0
C649 C 0.02273 0.37123 0.16554 0.0
H650 H -0.0006 0.33264 1.00369 0.0
H651 H 0.05204 0.35275 0.08957 0.0
S652 S 0.93456 0.38442 0.21915 0.0
N653 N 0.92216 0.36597 0.14152 0.0
N654 N 0.97942 0.38778 0.23549 0.0
C655 C 0.98665 0.37384 0.1766 0.0
C656 C 0.95496 0.36156 0.12504 0.0
C657 C 0.60223 0.97841 0.64276 0.0
C658 C 0.62742 0.02079 0.6304 0.0
C659 C 0.58745 0.94887 0.58981 0.0
C660 C 0.59811 0.95989 0.52155 0.0
H661 H 0.59221 0.96802 0.69389 0.0
H662 H 0.56659 0.91731 0.60243 0.0
S663 S 0.66625 0.06679 0.46247 0.0
N664 N 0.66303 0.07183 0.54483 0.0
N665 N 0.63871 0.01743 0.44661 0.0
C666 C 0.62507 0.00224 0.50936 0.0
C667 C 0.63869 0.03226 0.56304 0.0
C668 C 0.6058 0.59951 0.8427 0.0
C669 C 0.61361 0.64024 0.83635 0.0
C670 C 0.61618 0.57977 0.79068 0.0
C671 C 0.63473 0.59948 0.72908 0.0
H672 H 0.5917 0.58271 0.88843 0.0
H673 H 0.60844 0.54829 0.79818 0.0
S674 S 0.65934 0.7052 0.68439 0.0
N675 N 0.63947 0.69846 0.76083 0.0
N676 N 0.65923 0.66243 0.66559 0.0
C677 C 0.64247 0.64012 0.7224 0.0
C678 C 0.63192 0.66007 0.77497 0.0
C679 C 0.97909 0.60348 0.16431 0.0
C680 C 0.02151 0.61874 0.17823 0.0
C681 C 0.94905 0.59052 0.21589 0.0
C682 C 0.95982 0.59346 0.28462 0.0
H683 H 0.96845 0.6001 0.11255 0.0
H684 H 0.9171 0.57783 0.20168 0.0
S685 S 0.06604 0.63162 0.3502 0.0
N686 N 0.07195 0.63576 0.26734 0.0
N687 N 0.01653 0.61327 0.36364 0.0
C688 C 0.0022 0.60987 0.2995 0.0
C689 C 0.03265 0.62211 0.24684 0.0
C690 C 0.60684 0.18867 0.45815 0.0
C691 C 0.57636 0.19918 0.44622 0.0
C692 C 0.61632 0.18302 0.52403 0.0
C693 C 0.59557 0.18802 0.57907 0.0
H694 H 0.62017 0.18073 0.41621 0.0
H695 H 0.63796 0.17215 0.53189 0.0
S696 S 0.51702 0.22054 0.57281 0.0
N697 N 0.52856 0.21839 0.49283 0.0
N698 N 0.54662 0.20832 0.61787 0.0
C699 C 0.56801 0.20251 0.56776 0.0
C700 C 0.55832 0.20801 0.50067 0.0
C701 C 0.39637 0.6179 0.886 0.0
C702 C 0.36238 0.58 0.90277 0.0
C703 C 0.42699 0.64066 0.93371 0.0
C704 C 0.42434 0.62676 1.00046 0.0
H705 H 0.40106 0.62823 0.834 0.0
H706 H 0.45421 0.66793 0.91702 0.0
S707 S 0.33827 0.53304 0.07361 0.0
N708 N 0.32557 0.53214 0.99333 0.0
N709 N 0.38236 0.57559 0.08348 0.0
C710 C 0.38828 0.59137 1.02002 0.0
C711 C 0.35736 0.56782 0.97107 0.0
C712 C 0.80868 0.35502 0.16921 0.0
C713 C 0.79652 0.37406 0.12023 0.0
C714 C 0.80877 0.36397 0.23748 0.0
C715 C 0.79591 0.39136 0.25789 0.0
H716 H 0.82158 0.33604 0.15404 0.0
H717 H 0.8222 0.35238 0.27382 0.0
S718 S 0.75466 0.44343 0.1512 0.0
N719 N 0.7664 0.41714 0.09735 0.0
N720 N 0.76575 0.43322 0.22719 0.0
C721 C 0.77915 0.40672 0.21062 0.0
C722 C 0.77945 0.39803 0.14097 0.0
C723 C 0.41469 0.78799 0.63904 0.0
C724 C 0.40043 0.77718 0.57226 0.0
C725 C 0.39075 0.79328 0.68823 0.0
C726 C 0.35226 0.78898 0.67148 0.0
H727 H 0.44568 0.79517 0.65184 0.0
H728 H 0.40413 0.80448 0.73774 0.0
S729 S 0.29926 0.75616 0.5057 0.0
N730 N 0.34383 0.75807 0.4938 0.0
N731 N 0.2991 0.76889 0.58568 0.0
C732 C 0.33638 0.77501 0.60633 0.0
C733 C 0.36043 0.76888 0.55675 0.0
C734 C 0.62799 0.43939 0.84323 0.0
C735 C 0.61373 0.41079 0.78997 0.0
C736 C 0.61509 0.42732 0.90943 0.0
C737 C 0.58842 0.38631 0.92413 0.0
H738 H 0.64681 0.47165 0.83274 0.0
H739 H 0.62374 0.45029 0.94862 0.0
S740 S 0.54627 0.29903 0.80526 0.0
N741 N 0.5744 0.33925 0.75755 0.0
N742 N 0.55103 0.31656 0.88338 0.0
C743 C 0.57695 0.35694 0.87292 0.0
C744 C 0.58964 0.3692 0.80523 0.0
C745 C 0.20765 0.59505 0.34366 0.0
C746 C 0.20966 0.56001 0.3243 0.0
C747 C 0.21084 0.62379 0.2955 0.0
C748 C 0.21747 0.61914 0.22704 0.0
H749 H 0.19916 0.59815 0.39481 0.0
H750 H 0.20497 0.64808 0.31079 0.0
S751 S 0.23214 0.53694 0.1523 0.0
N752 N 0.22374 0.52514 0.23337 0.0
N753 N 0.2309 0.57997 0.14341 0.0
C754 C 0.22404 0.58681 0.20834 0.0
C755 C 0.21996 0.55707 0.25697 0.0
loop_
_geom_bond_atom_site_label_1
_geom_bond_atom_site_label_2
_geom_bond_distance
_geom_bond_site_symmetry_2
_ccdc_geom_bond_type
Co0 N5 2.057 . S
Co0 O17 2.021 . S
Co0 O20 2.062 . S
Co0 O24 2.117 . S
Co0 O25 2.020 . S
C1 O21 1.259 . S
C1 O24 1.258 . S
Co2 N11 2.057 . S
Co2 O18 2.117 . S
Co2 O19 2.020 . S
Co2 O21 2.021 . S
Co2 O26 2.062 . S
C3 N5 1.316 . S
C3 N6 1.342 1_554 S
C3 H8 0.931 . S
C4 N5 1.375 1_565 S
C4 C7 1.350 . S
C4 H9 0.930 . S
N5 Co0 2.057 . S
N5 C3 1.316 . S
N5 C4 1.375 1_545 S
N6 C3 1.342 1_556 S
N6 C7 1.371 1_546 S
C7 C4 1.350 . S
C7 N6 1.371 1_564 S
C7 H28 0.931 . S
H8 C3 0.931 . S
H9 C4 0.930 . S
C10 O17 1.259 . S
C10 O18 1.258 . S
N11 Co2 2.057 . S
N11 C12 1.316 . S
N11 C13 1.375 . S
C12 N11 1.316 . S
C12 N14 1.347 . S
C12 H23 0.931 . S
C13 N11 1.375 . S
C13 C15 1.350 . S
C13 H22 0.930 . S
N14 C12 1.347 . S
N14 C15 1.373 . S
C15 C13 1.350 . S
C15 N14 1.373 . S
C15 H29 0.931 . S
C16 O19 1.256 . S
C16 O20 1.255 . S
O17 Co0 2.021 . S
O17 C10 1.259 . S
O18 Co2 2.117 . S
O18 C10 1.258 . S
O19 Co2 2.020 . S
O19 C16 1.256 . S
O20 Co0 2.062 . S
O20 C16 1.255 . S
O21 C1 1.259 . S
O21 Co2 2.021 . S
H22 C13 0.930 . S
H23 C12 0.931 . S
O24 Co0 2.117 . S
O24 C1 1.258 . S
O25 Co0 2.020 . S
O25 C27 1.256 . S
O26 Co2 2.062 . S
O26 C27 1.255 . S
C27 O25 1.256 . S
C27 O26 1.255 . S
H28 C7 0.931 . S
H29 C15 0.931 . S
Co30 N35 2.057 . S
Co30 O47 2.021 . S
Co30 O50 2.062 . S
Co30 O54 2.117 . S
Co30 O55 2.020 . S
C31 O51 1.259 . S
C31 O54 1.258 . S
Co32 N41 2.057 . S
Co32 O48 2.117 . S
Co32 O49 2.020 . S
Co32 O51 2.021 . S
Co32 O56 2.062 . S
C33 N35 1.316 . S
C33 N36 1.347 . S
C33 H38 0.931 . S
C34 N35 1.375 . S
C34 C37 1.350 . S
C34 H39 0.930 . S
N35 Co30 2.057 . S
N35 C33 1.316 . S
N35 C34 1.375 . S
N36 C33 1.347 . S
N36 C37 1.373 . S
C37 C34 1.350 . S
C37 N36 1.373 . S
C37 H58 0.931 . S
H38 C33 0.931 . S
H39 C34 0.930 . S
C40 O47 1.259 . S
C40 O48 1.258 . S
N41 Co32 2.057 . S
N41 C42 1.316 . S
N41 C43 1.375 . S
C42 N41 1.316 . S
C42 N44 1.347 . S
C42 H53 0.931 . S
C43 N41 1.375 . S
C43 C45 1.350 . S
C43 H52 0.930 . S
N44 C42 1.347 . S
N44 C45 1.373 . S
C45 C43 1.350 . S
C45 N44 1.373 . S
C45 H59 0.931 . S
C46 O49 1.256 . S
C46 O50 1.255 . S
O47 Co30 2.021 . S
O47 C40 1.259 . S
O48 Co32 2.117 . S
O48 C40 1.258 . S
O49 Co32 2.020 . S
O49 C46 1.256 . S
O50 Co30 2.062 . S
O50 C46 1.255 . S
O51 C31 1.259 . S
O51 Co32 2.021 . S
H52 C43 0.930 . S
H53 C42 0.931 . S
O54 Co30 2.117 . S
O54 C31 1.258 . S
O55 Co30 2.020 . S
O55 C57 1.256 . S
O56 Co32 2.062 . S
O56 C57 1.255 . S
C57 O55 1.256 . S
C57 O56 1.255 . S
H58 C37 0.931 . S
H59 C45 0.931 . S
Co60 N65 2.057 . S
Co60 O77 2.021 . S
Co60 O80 2.062 . S
Co60 O84 2.117 . S
Co60 O85 2.020 . S
C61 O81 1.259 . S
C61 O84 1.258 . S
Co62 N71 2.057 . S
Co62 O78 2.117 . S
Co62 O79 2.020 . S
Co62 O81 2.021 . S
Co62 O86 2.062 . S
C63 N65 1.316 . S
C63 N66 1.347 . S
C63 H68 0.931 . S
C64 N65 1.375 1_455 S
C64 C67 1.350 . S
C64 H69 0.930 . S
N65 Co60 2.057 . S
N65 C63 1.316 . S
N65 C64 1.375 1_655 S
N66 C63 1.347 . S
N66 C67 1.373 1_655 S
C67 C64 1.350 . S
C67 N66 1.373 1_455 S
C67 H88 0.931 . S
H68 C63 0.931 . S
H69 C64 0.930 . S
C70 O77 1.259 . S
C70 O78 1.258 . S
N71 Co62 2.057 . S
N71 C72 1.316 1_556 S
N71 C73 1.375 . S
C72 N71 1.316 1_554 S
C72 N74 1.347 . S
C72 H83 0.931 . S
C73 N71 1.375 . S
C73 C75 1.350 1_556 S
C73 H82 0.930 . S
N74 C72 1.347 . S
N74 C75 1.373 . S
C75 C73 1.350 1_554 S
C75 N74 1.373 . S
C75 H89 0.931 . S
C76 O79 1.256 . S
C76 O80 1.255 . S
O77 Co60 2.021 . S
O77 C70 1.259 . S
O78 Co62 2.117 . S
O78 C70 1.258 . S
O79 Co62 2.020 . S
O79 C76 1.256 . S
O80 Co60 2.062 . S
O80 C76 1.255 . S
O81 C61 1.259 . S
O81 Co62 2.021 . S
H82 C73 0.930 . S
H83 C72 0.931 . S
O84 Co60 2.117 . S
O84 C61 1.258 . S
O85 Co60 2.020 . S
O85 C87 1.256 . S
O86 Co62 2.062 . S
O86 C87 1.255 . S
C87 O85 1.256 . S
C87 O86 1.255 . S
H88 C67 0.931 . S
H89 C75 0.931 . S
Co90 N95 2.057 . S
Co90 O107 2.021 . S
Co90 O110 2.062 . S
Co90 O114 2.117 . S
Co90 O115 2.020 . S
C91 O111 1.259 . S
C91 O114 1.258 . S
Co92 N101 2.057 . S
Co92 O108 2.117 . S
Co92 O109 2.020 . S
Co92 O111 2.021 . S
Co92 O116 2.062 . S
C93 N95 1.316 . S
C93 N96 1.347 . S
C93 H98 0.931 . S
C94 N95 1.375 . S
C94 C97 1.350 1_565 S
C94 H99 0.930 1_565 S
N95 Co90 2.057 . S
N95 C93 1.316 . S
N95 C94 1.375 . S
N96 C93 1.347 . S
N96 C97 1.373 1_565 S
C97 C94 1.350 1_545 S
C97 N96 1.373 1_545 S
C97 H118 0.931 . S
H98 C93 0.931 . S
H99 C94 0.930 1_545 S
C100 O107 1.259 . S
C100 O108 1.258 . S
N101 Co92 2.057 . S
N101 C102 1.316 . S
N101 C103 1.375 . S
C102 N101 1.316 . S
C102 N104 1.347 . S
C102 H113 0.931 . S
C103 N101 1.375 . S
C103 C105 1.350 . S
C103 H112 0.930 . S
N104 C102 1.347 . S
N104 C105 1.373 . S
C105 C103 1.350 . S
C105 N104 1.373 . S
C105 H119 0.931 . S
C106 O109 1.256 . S
C106 O110 1.255 . S
O107 Co90 2.021 . S
O107 C100 1.259 . S
O108 Co92 2.117 . S
O108 C100 1.258 . S
O109 Co92 2.020 . S
O109 C106 1.256 . S
O110 Co90 2.062 . S
O110 C106 1.255 . S
O111 C91 1.259 . S
O111 Co92 2.021 . S
H112 C103 0.930 . S
H113 C102 0.931 . S
O114 Co90 2.117 . S
O114 C91 1.258 . S
O115 Co90 2.020 . S
O115 C117 1.256 . S
O116 Co92 2.062 . S
O116 C117 1.255 . S
C117 O115 1.256 . S
C117 O116 1.255 . S
H118 C97 0.931 . S
H119 C105 0.931 . S
Co120 N125 2.057 . S
Co120 O137 2.021 . S
Co120 O140 2.062 . S
Co120 O144 2.117 . S
Co120 O145 2.020 . S
C121 O141 1.259 . S
C121 O144 1.258 . S
Co122 N131 2.057 . S
Co122 O138 2.117 . S
Co122 O139 2.020 . S
Co122 O141 2.021 . S
Co122 O146 2.062 . S
C123 N125 1.316 . S
C123 N126 1.347 . S
C123 H128 0.931 . S
C124 N125 1.375 . S
C124 C127 1.350 . S
C124 H129 0.930 . S
N125 Co120 2.057 . S
N125 C123 1.316 . S
N125 C124 1.375 . S
N126 C123 1.347 . S
N126 C127 1.373 . S
C127 C124 1.350 . S
C127 N126 1.373 . S
C127 H148 0.931 . S
H128 C123 0.931 . S
H129 C124 0.930 . S
C130 O137 1.259 . S
C130 O138 1.258 . S
N131 Co122 2.057 . S
N131 C132 1.316 . S
N131 C133 1.375 . S
C132 N131 1.316 . S
C132 N134 1.347 . S
C132 H143 0.931 . S
C133 N131 1.375 . S
C133 C135 1.350 . S
C133 H142 0.930 . S
N134 C132 1.347 . S
N134 C135 1.373 . S
C135 C133 1.350 . S
C135 N134 1.373 . S
C135 H149 0.931 . S
C136 O139 1.256 . S
C136 O140 1.255 . S
O137 Co120 2.021 . S
O137 C130 1.259 . S
O138 Co122 2.117 . S
O138 C130 1.258 . S
O139 Co122 2.020 . S
O139 C136 1.256 . S
O140 Co120 2.062 . S
O140 C136 1.255 . S
O141 C121 1.259 . S
O141 Co122 2.021 . S
H142 C133 0.930 . S
H143 C132 0.931 . S
O144 Co120 2.117 . S
O144 C121 1.258 . S
O145 Co120 2.020 . S
O145 C147 1.256 . S
O146 Co122 2.062 . S
O146 C147 1.255 . S
C147 O145 1.256 . S
C147 O146 1.255 . S
H148 C127 0.931 . S
H149 C135 0.931 . S
Co150 N155 2.057 . S
Co150 O167 2.021 . S
Co150 O170 2.062 . S
Co150 O174 2.117 . S
Co150 O175 2.020 . S
C151 O171 1.259 1_556 S
C151 O174 1.258 . S
Co152 N161 2.070 . S
Co152 O168 2.113 1_554 S
Co152 O169 2.004 1_554 S
Co152 O171 2.021 . S
Co152 O176 2.073 . S
C153 N155 1.316 . S
C153 N156 1.347 . S
C153 H158 0.931 . S
C154 N155 1.375 . S
C154 C157 1.350 1_455 S
C154 H159 0.930 1_455 S
N155 Co150 2.057 . S
N155 C153 1.316 . S
N155 C154 1.375 . S
N156 C153 1.347 . S
N156 C157 1.373 1_455 S
C157 C154 1.350 1_655 S
C157 N156 1.373 1_655 S
C157 H178 0.931 . S
H158 C153 0.931 . S
H159 C154 0.930 1_655 S
C160 O167 1.259 . S
C160 O168 1.258 . S
N161 Co152 2.070 . S
N161 C162 1.316 . S
N161 C163 1.375 . S
C162 N161 1.316 . S
C162 N164 1.347 . S
C162 H173 0.931 . S
C163 N161 1.375 . S
C163 C165 1.350 . S
C163 H172 0.930 . S
N164 C162 1.347 . S
N164 C165 1.373 . S
C165 C163 1.350 . S
C165 N164 1.373 . S
C165 H179 0.931 . S
C166 O169 1.256 . S
C166 O170 1.255 . S
O167 Co150 2.021 . S
O167 C160 1.259 . S
O168 Co152 2.113 1_556 S
O168 C160 1.258 . S
O169 Co152 2.004 1_556 S
O169 C166 1.256 . S
O170 Co150 2.062 . S
O170 C166 1.255 . S
O171 C151 1.259 1_554 S
O171 Co152 2.021 . S
H172 C163 0.930 . S
H173 C162 0.931 . S
O174 Co150 2.117 . S
O174 C151 1.258 . S
O175 Co150 2.020 . S
O175 C177 1.256 1_556 S
O176 Co152 2.073 . S
O176 C177 1.255 . S
C177 O175 1.256 1_554 S
C177 O176 1.255 . S
H178 C157 0.931 . S
H179 C165 0.931 . S
Co180 N185 2.057 . S
Co180 O197 2.021 . S
Co180 O200 2.062 . S
Co180 O204 2.117 . S
Co180 O205 2.020 . S
C181 O201 1.259 . S
C181 O204 1.258 . S
Co182 N191 2.057 . S
Co182 O198 2.117 . S
Co182 O199 2.020 . S
Co182 O201 2.021 . S
Co182 O206 2.062 . S
C183 N185 1.316 . S
C183 N186 1.347 . S
C183 H188 0.931 . S
C184 N185 1.375 . S
C184 C187 1.350 1_655 S
C184 H189 0.930 1_655 S
N185 Co180 2.057 . S
N185 C183 1.316 . S
N185 C184 1.375 . S
N186 C183 1.347 . S
N186 C187 1.373 1_655 S
C187 C184 1.350 1_455 S
C187 N186 1.373 1_455 S
C187 H208 0.931 . S
H188 C183 0.931 . S
H189 C184 0.930 1_455 S
C190 O197 1.259 . S
C190 O198 1.258 . S
N191 Co182 2.057 . S
N191 C192 1.316 . S
N191 C193 1.375 . S
C192 N191 1.316 . S
C192 N194 1.347 . S
C192 H203 0.931 . S
C193 N191 1.375 . S
C193 C195 1.350 . S
C193 H202 0.930 . S
N194 C192 1.347 . S
N194 C195 1.373 . S
C195 C193 1.350 . S
C195 N194 1.373 . S
C195 H209 0.931 . S
C196 O199 1.256 . S
C196 O200 1.255 . S
O197 Co180 2.021 . S
O197 C190 1.259 . S
O198 Co182 2.117 . S
O198 C190 1.258 . S
O199 Co182 2.020 . S
O199 C196 1.256 . S
O200 Co180 2.062 . S
O200 C196 1.255 . S
O201 C181 1.259 . S
O201 Co182 2.021 . S
H202 C193 0.930 . S
H203 C192 0.931 . S
O204 Co180 2.117 . S
O204 C181 1.258 . S
O205 Co180 2.020 . S
O205 C207 1.256 . S
O206 Co182 2.062 . S
O206 C207 1.255 . S
C207 O205 1.256 . S
C207 O206 1.255 . S
H208 C187 0.931 . S
H209 C195 0.931 . S
Co210 N215 2.057 . S
Co210 O227 2.021 . S
Co210 O230 2.062 . S
Co210 O234 2.117 . S
Co210 O235 2.020 . S
C211 O231 1.259 . S
C211 O234 1.258 . S
Co212 N221 2.057 . S
Co212 O228 2.117 . S
Co212 O229 2.020 . S
Co212 O231 2.021 . S
Co212 O236 2.062 . S
C213 N215 1.316 . S
C213 N216 1.347 . S
C213 H218 0.931 . S
C214 N215 1.375 . S
C214 C217 1.350 . S
C214 H219 0.930 . S
N215 Co210 2.057 . S
N215 C213 1.316 . S
N215 C214 1.375 . S
N216 C213 1.347 . S
N216 C217 1.373 . S
C217 C214 1.350 . S
C217 N216 1.373 . S
C217 H238 0.931 . S
H218 C213 0.931 . S
H219 C214 0.930 . S
C220 O227 1.259 . S
C220 O228 1.258 . S
N221 Co212 2.057 . S
N221 C222 1.316 . S
N221 C223 1.375 . S
C222 N221 1.316 . S
C222 N224 1.347 . S
C222 H233 0.931 . S
C223 N221 1.375 . S
C223 C225 1.350 . S
C223 H232 0.930 . S
N224 C222 1.347 . S
N224 C225 1.373 . S
C225 C223 1.350 . S
C225 N224 1.373 . S
C225 H239 0.931 . S
C226 O229 1.256 . S
C226 O230 1.255 . S
O227 Co210 2.021 . S
O227 C220 1.259 . S
O228 Co212 2.117 . S
O228 C220 1.258 . S
O229 Co212 2.020 . S
O229 C226 1.256 . S
O230 Co210 2.062 . S
O230 C226 1.255 . S
O231 C211 1.259 . S
O231 Co212 2.021 . S
H232 C223 0.930 . S
H233 C222 0.931 . S
O234 Co210 2.117 . S
O234 C211 1.258 . S
O235 Co210 2.020 . S
O235 C237 1.256 . S
O236 Co212 2.062 . S
O236 C237 1.255 . S
C237 O235 1.256 . S
C237 O236 1.255 . S
H238 C217 0.931 . S
H239 C225 0.931 . S
Co240 N245 2.057 . S
Co240 O257 2.021 . S
Co240 O260 2.062 . S
Co240 O264 2.117 . S
Co240 O265 2.020 . S
C241 O261 1.259 . S
C241 O264 1.258 . S
Co242 N251 2.057 1_554 S
Co242 O258 2.117 . S
Co242 O259 2.020 . S
Co242 O261 2.021 . S
Co242 O266 2.062 1_554 S
C243 N245 1.316 . S
C243 N246 1.347 . S
C243 H248 0.931 . S
C244 N245 1.375 . S
C244 C247 1.350 . S
C244 H249 0.930 . S
N245 Co240 2.057 . S
N245 C243 1.316 . S
N245 C244 1.375 . S
N246 C243 1.347 . S
N246 C247 1.373 . S
C247 C244 1.350 . S
C247 N246 1.373 . S
C247 H268 0.931 . S
H248 C243 0.931 . S
H249 C244 0.930 . S
C250 O257 1.259 . S
C250 O258 1.258 . S
N251 Co242 2.057 1_556 S
N251 C252 1.316 . S
N251 C253 1.375 . S
C252 N251 1.316 . S
C252 N254 1.347 . S
C252 H263 0.931 . S
C253 N251 1.375 . S
C253 C255 1.350 . S
C253 H262 0.930 . S
N254 C252 1.347 . S
N254 C255 1.373 . S
C255 C253 1.350 . S
C255 N254 1.373 . S
C255 H269 0.931 . S
C256 O259 1.256 . S
C256 O260 1.255 . S
O257 Co240 2.021 . S
O257 C250 1.259 . S
O258 Co242 2.117 . S
O258 C250 1.258 . S
O259 Co242 2.020 . S
O259 C256 1.256 . S
O260 Co240 2.062 . S
O260 C256 1.255 . S
O261 C241 1.259 . S
O261 Co242 2.021 . S
H262 C253 0.930 . S
H263 C252 0.931 . S
O264 Co240 2.117 . S
O264 C241 1.258 . S
O265 Co240 2.020 . S
O265 C267 1.256 1_554 S
O266 Co242 2.062 1_556 S
O266 C267 1.255 . S
C267 O265 1.256 1_556 S
C267 O266 1.255 . S
H268 C247 0.931 . S
H269 C255 0.931 . S
Co270 N275 2.057 . S
Co270 O287 2.021 . S
Co270 O290 2.062 . S
Co270 O294 2.117 . S
Co270 O295 2.020 . S
C271 O291 1.259 . S
C271 O294 1.258 . S
Co272 N281 2.057 . S
Co272 O288 2.117 . S
Co272 O289 2.020 . S
Co272 O291 2.021 . S
Co272 O296 2.062 . S
C273 N275 1.316 . S
C273 N276 1.347 . S
C273 H278 0.931 . S
C274 N275 1.375 . S
C274 C277 1.350 . S
C274 H279 0.930 . S
N275 Co270 2.057 . S
N275 C273 1.316 . S
N275 C274 1.375 . S
N276 C273 1.347 . S
N276 C277 1.373 . S
C277 C274 1.350 . S
C277 N276 1.373 . S
C277 H298 0.931 . S
H278 C273 0.931 . S
H279 C274 0.930 . S
C280 O287 1.259 . S
C280 O288 1.258 . S
N281 Co272 2.057 . S
N281 C282 1.316 . S
N281 C283 1.375 . S
C282 N281 1.316 . S
C282 N284 1.347 . S
C282 H293 0.931 . S
C283 N281 1.375 . S
C283 C285 1.350 . S
C283 H292 0.930 . S
N284 C282 1.347 . S
N284 C285 1.373 . S
C285 C283 1.350 . S
C285 N284 1.373 . S
C285 H299 0.931 . S
C286 O289 1.256 . S
C286 O290 1.255 . S
O287 Co270 2.021 . S
O287 C280 1.259 . S
O288 Co272 2.117 . S
O288 C280 1.258 . S
O289 Co272 2.020 . S
O289 C286 1.256 . S
O290 Co270 2.062 . S
O290 C286 1.255 . S
O291 C271 1.259 . S
O291 Co272 2.021 . S
H292 C283 0.930 . S
H293 C282 0.931 . S
O294 Co270 2.117 . S
O294 C271 1.258 . S
O295 Co270 2.020 . S
O295 C297 1.256 . S
O296 Co272 2.062 . S
O296 C297 1.255 . S
C297 O295 1.256 . S
C297 O296 1.255 . S
H298 C277 0.931 . S
H299 C285 0.931 . S
Co300 N305 2.057 . S
Co300 O317 2.021 . S
Co300 O320 2.062 . S
Co300 O324 2.117 . S
Co300 O325 2.020 . S
C301 O321 1.259 . S
C301 O324 1.258 . S
Co302 N311 2.057 . S
Co302 O318 2.117 . S
Co302 O319 2.020 . S
Co302 O321 2.021 . S
Co302 O326 2.062 . S
C303 N305 1.316 . S
C303 N306 1.347 . S
C303 H308 0.931 . S
C304 N305 1.375 . S
C304 C307 1.350 1_545 S
C304 H309 0.930 1_545 S
N305 Co300 2.057 . S
N305 C303 1.316 . S
N305 C304 1.375 . S
N306 C303 1.347 . S
N306 C307 1.373 1_545 S
C307 C304 1.350 1_565 S
C307 N306 1.373 1_565 S
C307 H328 0.931 . S
H308 C303 0.931 . S
H309 C304 0.930 1_565 S
C310 O317 1.259 . S
C310 O318 1.258 . S
N311 Co302 2.057 . S
N311 C312 1.316 . S
N311 C313 1.375 . S
C312 N311 1.316 . S
C312 N314 1.347 . S
C312 H323 0.931 . S
C313 N311 1.375 . S
C313 C315 1.350 . S
C313 H322 0.930 . S
N314 C312 1.347 . S
N314 C315 1.373 . S
C315 C313 1.350 . S
C315 N314 1.373 . S
C315 H329 0.931 . S
C316 O319 1.256 . S
C316 O320 1.255 . S
O317 Co300 2.021 . S
O317 C310 1.259 . S
O318 Co302 2.117 . S
O318 C310 1.258 . S
O319 Co302 2.020 . S
O319 C316 1.256 . S
O320 Co300 2.062 . S
O320 C316 1.255 . S
O321 C301 1.259 . S
O321 Co302 2.021 . S
H322 C313 0.930 . S
H323 C312 0.931 . S
O324 Co300 2.117 . S
O324 C301 1.258 . S
O325 Co300 2.020 . S
O325 C327 1.256 . S
O326 Co302 2.062 . S
O326 C327 1.255 . S
C327 O325 1.256 . S
C327 O326 1.255 . S
H328 C307 0.931 . S
H329 C315 0.931 . S
Co330 N335 2.057 1_554 S
Co330 O347 2.021 . S
Co330 O350 2.062 1_554 S
Co330 O354 2.117 . S
Co330 O355 2.020 . S
C331 O351 1.259 . S
C331 O354 1.258 . S
Co332 N341 2.057 . S
Co332 O348 2.117 . S
Co332 O349 2.020 . S
Co332 O351 2.021 . S
Co332 O356 2.062 . S
C333 N335 1.316 . S
C333 N336 1.347 . S
C333 H338 0.931 . S
C334 N335 1.375 . S
C334 C337 1.350 . S
C334 H339 0.930 . S
N335 Co330 2.057 1_556 S
N335 C333 1.316 . S
N335 C334 1.375 . S
N336 C333 1.347 . S
N336 C337 1.373 . S
C337 C334 1.350 . S
C337 N336 1.373 . S
C337 H358 0.931 . S
H338 C333 0.931 . S
H339 C334 0.930 . S
C340 O347 1.259 . S
C340 O348 1.258 . S
N341 Co332 2.057 . S
N341 C342 1.316 . S
N341 C343 1.375 . S
C342 N341 1.316 . S
C342 N344 1.347 . S
C342 H353 0.931 . S
C343 N341 1.375 . S
C343 C345 1.350 . S
C343 H352 0.930 . S
N344 C342 1.347 . S
N344 C345 1.373 . S
C345 C343 1.350 . S
C345 N344 1.373 . S
C345 H359 0.931 . S
C346 O349 1.256 . S
C346 O350 1.255 1_554 S
O347 Co330 2.021 . S
O347 C340 1.259 . S
O348 Co332 2.117 . S
O348 C340 1.258 . S
O349 Co332 2.020 . S
O349 C346 1.256 . S
O350 Co330 2.062 1_556 S
O350 C346 1.255 1_556 S
O351 C331 1.259 . S
O351 Co332 2.021 . S
H352 C343 0.930 . S
H353 C342 0.931 . S
O354 Co330 2.117 . S
O354 C331 1.258 . S
O355 Co330 2.020 . S
O355 C357 1.256 . S
O356 Co332 2.062 . S
O356 C357 1.255 . S
C357 O355 1.256 . S
C357 O356 1.255 . S
H358 C337 0.931 . S
H359 C345 0.931 . S
C360 C361 1.369 . S
C360 C362 1.419 . S
C360 H364 0.930 . S
C361 C360 1.369 . S
C361 C370 1.429 . S
C362 C360 1.419 . S
C362 C363 1.363 . S
C362 H365 0.929 . S
C363 C362 1.363 . S
C363 C369 1.428 . S
H364 C360 0.930 . S
H365 C362 0.929 . S
S366 N367 1.613 . S
S366 N368 1.610 . S
N367 S366 1.613 . S
N367 C370 1.350 . S
N368 S366 1.610 . S
N368 C369 1.351 . S
C369 C363 1.428 . S
C369 N368 1.351 . S
C369 C370 1.434 . S
C370 C361 1.429 . S
C370 N367 1.350 . S
C370 C369 1.434 . S
C371 C372 1.369 . S
C371 C373 1.419 . S
C371 H375 0.930 . S
C372 C371 1.369 . S
C372 C381 1.429 . S
C373 C371 1.419 . S
C373 C374 1.363 . S
C373 H376 0.929 . S
C374 C373 1.363 . S
C374 C380 1.428 . S
H375 C371 0.930 . S
H376 C373 0.929 . S
S377 N378 1.613 . S
S377 N379 1.610 . S
N378 S377 1.613 . S
N378 C381 1.350 . S
N379 S377 1.610 . S
N379 C380 1.351 . S
C380 C374 1.428 . S
C380 N379 1.351 . S
C380 C381 1.434 . S
C381 C372 1.429 . S
C381 N378 1.350 . S
C381 C380 1.434 . S
C382 C383 1.369 . S
C382 C384 1.419 . S
C382 H386 0.930 . S
C383 C382 1.369 . S
C383 C392 1.429 . S
C384 C382 1.419 . S
C384 C385 1.363 . S
C384 H387 0.929 . S
C385 C384 1.363 . S
C385 C391 1.428 . S
H386 C382 0.930 . S
H387 C384 0.929 . S
S388 N389 1.613 . S
S388 N390 1.610 . S
N389 S388 1.613 . S
N389 C392 1.350 . S
N390 S388 1.610 . S
N390 C391 1.351 . S
C391 C385 1.428 . S
C391 N390 1.351 . S
C391 C392 1.434 . S
C392 C383 1.429 . S
C392 N389 1.350 . S
C392 C391 1.434 . S
C393 C394 1.369 . S
C393 C395 1.419 . S
C393 H397 0.930 . S
C394 C393 1.369 . S
C394 C403 1.429 . S
C395 C393 1.419 . S
C395 C396 1.363 . S
C395 H398 0.929 . S
C396 C395 1.363 . S
C396 C402 1.428 . S
H397 C393 0.930 . S
H398 C395 0.929 . S
S399 N400 1.613 . S
S399 N401 1.610 . S
N400 S399 1.613 . S
N400 C403 1.350 . S
N401 S399 1.610 . S
N401 C402 1.351 . S
C402 C396 1.428 . S
C402 N401 1.351 . S
C402 C403 1.434 . S
C403 C394 1.429 . S
C403 N400 1.350 . S
C403 C402 1.434 . S
C404 C405 1.369 . S
C404 C406 1.419 . S
C404 H408 0.930 . S
C405 C404 1.369 . S
C405 C414 1.429 . S
C406 C404 1.419 . S
C406 C407 1.363 . S
C406 H409 0.929 . S
C407 C406 1.363 . S
C407 C413 1.428 . S
H408 C404 0.930 . S
H409 C406 0.929 . S
S410 N411 1.613 . S
S410 N412 1.610 . S
N411 S410 1.613 . S
N411 C414 1.350 . S
N412 S410 1.610 . S
N412 C413 1.351 . S
C413 C407 1.428 . S
C413 N412 1.351 . S
C413 C414 1.434 . S
C414 C405 1.429 . S
C414 N411 1.350 . S
C414 C413 1.434 . S
C415 C416 1.369 . S
C415 C417 1.419 . S
C415 H419 0.930 . S
C416 C415 1.369 . S
C416 C425 1.429 . S
C417 C415 1.419 . S
C417 C418 1.363 . S
C417 H420 0.929 . S
C418 C417 1.363 . S
C418 C424 1.428 . S
H419 C415 0.930 . S
H420 C417 0.929 . S
S421 N422 1.613 . S
S421 N423 1.610 . S
N422 S421 1.613 . S
N422 C425 1.350 . S
N423 S421 1.610 . S
N423 C424 1.351 . S
C424 C418 1.428 . S
C424 N423 1.351 . S
C424 C425 1.434 . S
C425 C416 1.429 . S
C425 N422 1.350 . S
C425 C424 1.434 . S
C426 C427 1.369 . S
C426 C428 1.419 1_556 S
C426 H430 0.930 . S
C427 C426 1.369 . S
C427 C436 1.429 . S
C428 C426 1.419 1_554 S
C428 C429 1.363 . S
C428 H431 0.929 . S
C429 C428 1.363 . S
C429 C435 1.428 1_554 S
H430 C426 0.930 . S
H431 C428 0.929 . S
S432 N433 1.613 . S
S432 N434 1.610 . S
N433 S432 1.613 . S
N433 C436 1.350 . S
N434 S432 1.610 . S
N434 C435 1.351 . S
C435 C429 1.428 1_556 S
C435 N434 1.351 . S
C435 C436 1.434 . S
C436 C427 1.429 . S
C436 N433 1.350 . S
C436 C435 1.434 . S
C437 C438 1.369 . S
C437 C439 1.419 . S
C437 H441 0.930 . S
C438 C437 1.369 . S
C438 C447 1.429 . S
C439 C437 1.419 . S
C439 C440 1.363 . S
C439 H442 0.929 . S
C440 C439 1.363 . S
C440 C446 1.428 . S
H441 C437 0.930 . S
H442 C439 0.929 . S
S443 N444 1.613 . S
S443 N445 1.610 . S
N444 S443 1.613 . S
N444 C447 1.350 . S
N445 S443 1.610 . S
N445 C446 1.351 . S
C446 C440 1.428 . S
C446 N445 1.351 . S
C446 C447 1.434 . S
C447 C438 1.429 . S
C447 N444 1.350 . S
C447 C446 1.434 . S
C448 C449 1.369 . S
C448 C450 1.419 . S
C448 H452 0.930 . S
C449 C448 1.369 . S
C449 C458 1.429 . S
C450 C448 1.419 . S
C450 C451 1.363 . S
C450 H453 0.929 . S
C451 C450 1.363 . S
C451 C457 1.428 . S
H452 C448 0.930 . S
H453 C450 0.929 . S
S454 N455 1.613 . S
S454 N456 1.610 . S
N455 S454 1.613 . S
N455 C458 1.350 . S
N456 S454 1.610 . S
N456 C457 1.351 . S
C457 C451 1.428 . S
C457 N456 1.351 . S
C457 C458 1.434 . S
C458 C449 1.429 . S
C458 N455 1.350 . S
C458 C457 1.434 . S
C459 C460 1.369 . S
C459 C461 1.419 . S
C459 H463 0.930 . S
C460 C459 1.369 . S
C460 C469 1.429 . S
C461 C459 1.419 . S
C461 C462 1.363 . S
C461 H464 0.929 . S
C462 C461 1.363 . S
C462 C468 1.428 . S
H463 C459 0.930 . S
H464 C461 0.929 . S
S465 N466 1.613 . S
S465 N467 1.610 . S
N466 S465 1.613 . S
N466 C469 1.350 . S
N467 S465 1.610 . S
N467 C468 1.351 . S
C468 C462 1.428 . S
C468 N467 1.351 . S
C468 C469 1.434 . S
C469 C460 1.429 . S
C469 N466 1.350 . S
C469 C468 1.434 . S
C470 C471 1.369 . S
C470 C472 1.419 . S
C470 H474 0.930 . S
C471 C470 1.369 . S
C471 C480 1.429 . S
C472 C470 1.419 . S
C472 C473 1.363 . S
C472 H475 0.929 . S
C473 C472 1.363 . S
C473 C479 1.428 . S
H474 C470 0.930 . S
H475 C472 0.929 . S
S476 N477 1.613 . S
S476 N478 1.610 . S
N477 S476 1.613 . S
N477 C480 1.350 . S
N478 S476 1.610 . S
N478 C479 1.351 . S
C479 C473 1.428 . S
C479 N478 1.351 . S
C479 C480 1.434 . S
C480 C471 1.429 . S
C480 N477 1.350 . S
C480 C479 1.434 . S
C481 C482 1.369 . S
C481 C483 1.419 . S
C481 H485 0.930 . S
C482 C481 1.369 . S
C482 C491 1.429 . S
C483 C481 1.419 . S
C483 C484 1.363 . S
C483 H486 0.929 . S
C484 C483 1.363 . S
C484 C490 1.428 . S
H485 C481 0.930 . S
H486 C483 0.929 . S
S487 N488 1.613 . S
S487 N489 1.610 . S
N488 S487 1.613 . S
N488 C491 1.350 . S
N489 S487 1.610 . S
N489 C490 1.351 . S
C490 C484 1.428 . S
C490 N489 1.351 . S
C490 C491 1.434 . S
C491 C482 1.429 . S
C491 N488 1.350 . S
C491 C490 1.434 . S
C492 C493 1.369 . S
C492 C494 1.419 . S
C492 H496 0.930 . S
C493 C492 1.369 . S
C493 C502 1.429 . S
C494 C492 1.419 . S
C494 C495 1.363 1_565 S
C494 H497 0.929 1_556 S
C495 C494 1.363 1_545 S
C495 C501 1.428 . S
H496 C492 0.930 . S
H497 C494 0.929 1_554 S
S498 N499 1.613 1_545 S
S498 N500 1.610 . S
N499 S498 1.613 1_565 S
N499 C502 1.350 . S
N500 S498 1.610 . S
N500 C501 1.351 . S
C501 C495 1.428 . S
C501 N500 1.351 . S
C501 C502 1.434 1_545 S
C502 C493 1.429 . S
C502 N499 1.350 . S
C502 C501 1.434 1_565 S
C503 C504 1.369 . S
C503 C505 1.419 . S
C503 H507 0.930 . S
C504 C503 1.369 . S
C504 C513 1.429 . S
C505 C503 1.419 . S
C505 C506 1.363 . S
C505 H508 0.929 . S
C506 C505 1.363 . S
C506 C512 1.428 . S
H507 C503 0.930 . S
H508 C505 0.929 . S
S509 N510 1.613 . S
S509 N511 1.610 . S
N510 S509 1.613 . S
N510 C513 1.350 . S
N511 S509 1.610 . S
N511 C512 1.351 . S
C512 C506 1.428 . S
C512 N511 1.351 . S
C512 C513 1.434 . S
C513 C504 1.429 . S
C513 N510 1.350 . S
C513 C512 1.434 . S
C514 C515 1.369 . S
C514 C516 1.419 1_455 S
C514 H518 0.930 . S
C515 C514 1.369 . S
C515 C524 1.429 . S
C516 C514 1.419 1_655 S
C516 C517 1.363 . S
C516 H519 0.929 . S
C517 C516 1.363 . S
C517 C523 1.428 1_655 S
H518 C514 0.930 . S
H519 C516 0.929 . S
S520 N521 1.613 . S
S520 N522 1.610 . S
N521 S520 1.613 . S
N521 C524 1.350 . S
N522 S520 1.610 . S
N522 C523 1.351 . S
C523 C517 1.428 1_455 S
C523 N522 1.351 . S
C523 C524 1.434 . S
C524 C515 1.429 . S
C524 N521 1.350 . S
C524 C523 1.434 . S
C525 C526 1.369 1_545 S
C525 C527 1.419 . S
C525 H529 0.930 . S
C526 C525 1.369 1_565 S
C526 C535 1.429 . S
C527 C525 1.419 . S
C527 C528 1.363 1_554 S
C527 H530 0.929 . S
C528 C527 1.363 1_556 S
C528 C534 1.428 1_545 S
H529 C525 0.930 . S
H530 C527 0.929 . S
S531 N532 1.613 1_556 S
S531 N533 1.610 . S
N532 S531 1.613 1_554 S
N532 C535 1.350 . S
N533 S531 1.610 . S
N533 C534 1.351 . S
C534 C528 1.428 1_565 S
C534 N533 1.351 . S
C534 C535 1.434 1_556 S
C535 C526 1.429 . S
C535 N532 1.350 . S
C535 C534 1.434 1_554 S
C536 C537 1.369 . S
C536 C538 1.419 . S
C536 H540 0.930 . S
C537 C536 1.369 . S
C537 C546 1.429 . S
C538 C536 1.419 . S
C538 C539 1.363 . S
C538 H541 0.929 . S
C539 C538 1.363 . S
C539 C545 1.428 . S
H540 C536 0.930 . S
H541 C538 0.929 . S
S542 N543 1.613 . S
S542 N544 1.610 . S
N543 S542 1.613 . S
N543 C546 1.350 . S
N544 S542 1.610 . S
N544 C545 1.351 . S
C545 C539 1.428 . S
C545 N544 1.351 . S
C545 C546 1.434 . S
C546 C537 1.429 . S
C546 N543 1.350 . S
C546 C545 1.434 . S
C547 C548 1.369 . S
C547 C549 1.419 1_455 S
C547 H551 0.930 . S
C548 C547 1.369 . S
C548 C557 1.429 . S
C549 C547 1.419 1_655 S
C549 C550 1.363 . S
C549 H552 0.929 . S
C550 C549 1.363 . S
C550 C556 1.428 . S
H551 C547 0.930 . S
H552 C549 0.929 . S
S553 N554 1.613 1_655 S
S553 N555 1.610 . S
N554 S553 1.613 1_455 S
N554 C557 1.350 . S
N555 S553 1.610 . S
N555 C556 1.351 . S
C556 C550 1.428 . S
C556 N555 1.351 . S
C556 C557 1.434 1_655 S
C557 C548 1.429 . S
C557 N554 1.350 . S
C557 C556 1.434 1_455 S
C558 C559 1.369 1_565 S
C558 C560 1.419 . S
C558 H562 0.930 . S
C559 C558 1.369 1_545 S
C559 C568 1.429 . S
C560 C558 1.419 . S
C560 C561 1.363 . S
C560 H563 0.929 . S
C561 C560 1.363 . S
C561 C567 1.428 1_565 S
H562 C558 0.930 . S
H563 C560 0.929 . S
S564 N565 1.613 . S
S564 N566 1.610 . S
N565 S564 1.613 . S
N565 C568 1.350 . S
N566 S564 1.610 . S
N566 C567 1.351 . S
C567 C561 1.428 1_545 S
C567 N566 1.351 . S
C567 C568 1.434 . S
C568 C559 1.429 . S
C568 N565 1.350 . S
C568 C567 1.434 . S
C569 C570 1.369 . S
C569 C571 1.419 . S
C569 H573 0.930 . S
C570 C569 1.369 . S
C570 C579 1.429 . S
C571 C569 1.419 . S
C571 C572 1.363 . S
C571 H574 0.929 . S
C572 C571 1.363 . S
C572 C578 1.428 . S
H573 C569 0.930 . S
H574 C571 0.929 . S
S575 N576 1.613 . S
S575 N577 1.610 . S
N576 S575 1.613 . S
N576 C579 1.350 . S
N577 S575 1.610 . S
N577 C578 1.351 . S
C578 C572 1.428 . S
C578 N577 1.351 . S
C578 C579 1.434 . S
C579 C570 1.429 . S
C579 N576 1.350 . S
C579 C578 1.434 . S
C580 C581 1.369 . S
C580 C582 1.419 . S
C580 H584 0.930 . S
C581 C580 1.369 . S
C581 C590 1.429 1_655 S
C582 C580 1.419 . S
C582 C583 1.363 1_655 S
C582 H585 0.929 . S
C583 C582 1.363 1_455 S
C583 C589 1.428 . S
H584 C580 0.930 . S
H585 C582 0.929 . S
S586 N587 1.613 . S
S586 N588 1.610 . S
N587 S586 1.613 . S
N587 C590 1.350 . S
N588 S586 1.610 . S
N588 C589 1.351 . S
C589 C583 1.428 . S
C589 N588 1.351 . S
C589 C590 1.434 . S
C590 C581 1.429 1_455 S
C590 N587 1.350 . S
C590 C589 1.434 . S
C591 C592 1.369 1_655 S
C591 C593 1.419 . S
C591 H595 0.930 . S
C592 C591 1.369 1_455 S
C592 C601 1.429 . S
C593 C591 1.419 . S
C593 C594 1.363 . S
C593 H596 0.929 . S
C594 C593 1.363 . S
C594 C600 1.428 1_655 S
H595 C591 0.930 . S
H596 C593 0.929 . S
S597 N598 1.613 . S
S597 N599 1.610 . S
N598 S597 1.613 . S
N598 C601 1.350 . S
N599 S597 1.610 . S
N599 C600 1.351 . S
C600 C594 1.428 1_455 S
C600 N599 1.351 . S
C600 C601 1.434 . S
C601 C592 1.429 . S
C601 N598 1.350 . S
C601 C600 1.434 . S
C602 C603 1.369 1_545 S
C602 C604 1.419 . S
C602 H606 0.930 . S
C603 C602 1.369 1_565 S
C603 C612 1.429 . S
C604 C602 1.419 . S
C604 C605 1.363 . S
C604 H607 0.929 . S
C605 C604 1.363 . S
C605 C611 1.428 1_545 S
H606 C602 0.930 . S
H607 C604 0.929 . S
S608 N609 1.613 . S
S608 N610 1.610 . S
N609 S608 1.613 . S
N609 C612 1.350 . S
N610 S608 1.610 . S
N610 C611 1.351 . S
C611 C605 1.428 1_565 S
C611 N610 1.351 . S
C611 C612 1.434 . S
C612 C603 1.429 . S
C612 N609 1.350 . S
C612 C611 1.434 . S
C613 C614 1.369 . S
C613 C615 1.419 . S
C613 H617 0.930 . S
C614 C613 1.369 . S
C614 C623 1.429 . S
C615 C613 1.419 . S
C615 C616 1.363 . S
C615 H618 0.929 . S
C616 C615 1.363 . S
C616 C622 1.428 . S
H617 C613 0.930 . S
H618 C615 0.929 . S
S619 N620 1.613 . S
S619 N621 1.610 . S
N620 S619 1.613 . S
N620 C623 1.350 1_556 S
N621 S619 1.610 . S
N621 C622 1.351 1_556 S
C622 C616 1.428 . S
C622 N621 1.351 1_554 S
C622 C623 1.434 . S
C623 C614 1.429 . S
C623 N620 1.350 1_554 S
C623 C622 1.434 . S
C624 C625 1.369 1_545 S
C624 C626 1.419 . S
C624 H628 0.930 . S
C625 C624 1.369 1_565 S
C625 C634 1.429 . S
C626 C624 1.419 . S
C626 C627 1.363 . S
C626 H629 0.929 . S
C627 C626 1.363 . S
C627 C633 1.428 1_545 S
H628 C624 0.930 . S
H629 C626 0.929 . S
S630 N631 1.613 . S
S630 N632 1.610 . S
N631 S630 1.613 . S
N631 C634 1.350 . S
N632 S630 1.610 . S
N632 C633 1.351 . S
C633 C627 1.428 1_565 S
C633 N632 1.351 . S
C633 C634 1.434 . S
C634 C625 1.429 . S
C634 N631 1.350 . S
C634 C633 1.434 . S
C635 C636 1.369 . S
C635 C637 1.419 . S
C635 H639 0.930 . S
C636 C635 1.369 . S
C636 C645 1.429 . S
C637 C635 1.419 . S
C637 C638 1.363 . S
C637 H640 0.929 . S
C638 C637 1.363 . S
C638 C644 1.428 . S
H639 C635 0.930 . S
H640 C637 0.929 . S
S641 N642 1.613 . S
S641 N643 1.610 . S
N642 S641 1.613 . S
N642 C645 1.350 . S
N643 S641 1.610 . S
N643 C644 1.351 . S
C644 C638 1.428 . S
C644 N643 1.351 . S
C644 C645 1.434 . S
C645 C636 1.429 . S
C645 N642 1.350 . S
C645 C644 1.434 . S
C646 C647 1.369 . S
C646 C648 1.419 . S
C646 H650 0.930 . S
C647 C646 1.369 . S
C647 C656 1.429 . S
C648 C646 1.419 . S
C648 C649 1.363 1_655 S
C648 H651 0.929 . S
C649 C648 1.363 1_455 S
C649 C655 1.428 . S
H650 C646 0.930 . S
H651 C648 0.929 . S
S652 N653 1.613 . S
S652 N654 1.610 . S
N653 S652 1.613 . S
N653 C656 1.350 1_455 S
N654 S652 1.610 . S
N654 C655 1.351 . S
C655 C649 1.428 . S
C655 N654 1.351 . S
C655 C656 1.434 1_455 S
C656 C647 1.429 . S
C656 N653 1.350 1_655 S
C656 C655 1.434 1_655 S
C657 C658 1.369 1_565 S
C657 C659 1.419 . S
C657 H661 0.930 . S
C658 C657 1.369 1_545 S
C658 C667 1.429 . S
C659 C657 1.419 . S
C659 C660 1.363 . S
C659 H662 0.929 . S
C660 C659 1.363 . S
C660 C666 1.428 1_565 S
H661 C657 0.930 . S
H662 C659 0.929 . S
S663 N664 1.613 . S
S663 N665 1.610 . S
N664 S663 1.613 . S
N664 C667 1.350 . S
N665 S663 1.610 . S
N665 C666 1.351 . S
C666 C660 1.428 1_545 S
C666 N665 1.351 . S
C666 C667 1.434 . S
C667 C658 1.429 . S
C667 N664 1.350 . S
C667 C666 1.434 . S
C668 C669 1.369 . S
C668 C670 1.419 . S
C668 H672 0.930 . S
C669 C668 1.369 . S
C669 C678 1.429 . S
C670 C668 1.419 . S
C670 C671 1.363 . S
C670 H673 0.929 . S
C671 C670 1.363 . S
C671 C677 1.428 . S
H672 C668 0.930 . S
H673 C670 0.929 . S
S674 N675 1.613 . S
S674 N676 1.610 . S
N675 S674 1.613 . S
N675 C678 1.350 . S
N676 S674 1.610 . S
N676 C677 1.351 . S
C677 C671 1.428 . S
C677 N676 1.351 . S
C677 C678 1.434 . S
C678 C669 1.429 . S
C678 N675 1.350 . S
C678 C677 1.434 . S
C679 C680 1.369 1_655 S
C679 C681 1.419 . S
C679 H683 0.930 . S
C680 C679 1.369 1_455 S
C680 C689 1.429 . S
C681 C679 1.419 . S
C681 C682 1.363 . S
C681 H684 0.929 . S
C682 C681 1.363 . S
C682 C688 1.428 1_655 S
H683 C679 0.930 . S
H684 C681 0.929 . S
S685 N686 1.613 . S
S685 N687 1.610 . S
N686 S685 1.613 . S
N686 C689 1.350 . S
N687 S685 1.610 . S
N687 C688 1.351 . S
C688 C682 1.428 1_455 S
C688 N687 1.351 . S
C688 C689 1.434 . S
C689 C680 1.429 . S
C689 N686 1.350 . S
C689 C688 1.434 . S
C690 C691 1.369 . S
C690 C692 1.419 . S
C690 H694 0.930 . S
C691 C690 1.369 . S
C691 C700 1.429 . S
C692 C690 1.419 . S
C692 C693 1.363 . S
C692 H695 0.929 . S
C693 C692 1.363 . S
C693 C699 1.428 . S
H694 C690 0.930 . S
H695 C692 0.929 . S
S696 N697 1.613 . S
S696 N698 1.610 . S
N697 S696 1.613 . S
N697 C700 1.350 . S
N698 S696 1.610 . S
N698 C699 1.351 . S
C699 C693 1.428 . S
C699 N698 1.351 . S
C699 C700 1.434 . S
C700 C691 1.429 . S
C700 N697 1.350 . S
C700 C699 1.434 . S
C701 C702 1.369 . S
C701 C703 1.419 . S
C701 H705 0.930 . S
C702 C701 1.369 . S
C702 C711 1.429 . S
C703 C701 1.419 . S
C703 C704 1.363 . S
C703 H706 0.929 . S
C704 C703 1.363 . S
C704 C710 1.428 . S
H705 C701 0.930 . S
H706 C703 0.929 . S
S707 N708 1.613 . S
S707 N709 1.610 . S
N708 S707 1.613 . S
N708 C711 1.350 . S
N709 S707 1.610 . S
N709 C710 1.351 . S
C710 C704 1.428 . S
C710 N709 1.351 . S
C710 C711 1.434 . S
C711 C702 1.429 . S
C711 N708 1.350 . S
C711 C710 1.434 . S
C712 C713 1.369 . S
C712 C714 1.419 . S
C712 H716 0.930 . S
C713 C712 1.369 . S
C713 C722 1.429 . S
C714 C712 1.419 . S
C714 C715 1.363 . S
C714 H717 0.929 . S
C715 C714 1.363 . S
C715 C721 1.428 . S
H716 C712 0.930 . S
H717 C714 0.929 . S
S718 N719 1.613 . S
S718 N720 1.610 . S
N719 S718 1.613 . S
N719 C722 1.350 . S
N720 S718 1.610 . S
N720 C721 1.351 . S
C721 C715 1.428 . S
C721 N720 1.351 . S
C721 C722 1.434 . S
C722 C713 1.429 . S
C722 N719 1.350 . S
C722 C721 1.434 . S
C723 C724 1.369 . S
C723 C725 1.419 . S
C723 H727 0.930 . S
C724 C723 1.369 . S
C724 C733 1.429 . S
C725 C723 1.419 . S
C725 C726 1.363 . S
C725 H728 0.929 . S
C726 C725 1.363 . S
C726 C732 1.428 . S
H727 C723 0.930 . S
H728 C725 0.929 . S
S729 N730 1.613 . S
S729 N731 1.610 . S
N730 S729 1.613 . S
N730 C733 1.350 . S
N731 S729 1.610 . S
N731 C732 1.351 . S
C732 C726 1.428 . S
C732 N731 1.351 . S
C732 C733 1.434 . S
C733 C724 1.429 . S
C733 N730 1.350 . S
C733 C732 1.434 . S
C734 C735 1.369 . S
C734 C736 1.419 . S
C734 H738 0.930 . S
C735 C734 1.369 . S
C735 C744 1.429 . S
C736 C734 1.419 . S
C736 C737 1.363 . S
C736 H739 0.929 . S
C737 C736 1.363 . S
C737 C743 1.428 . S
H738 C734 0.930 . S
H739 C736 0.929 . S
S740 N741 1.613 . S
S740 N742 1.610 . S
N741 S740 1.613 . S
N741 C744 1.350 . S
N742 S740 1.610 . S
N742 C743 1.351 . S
C743 C737 1.428 . S
C743 N742 1.351 . S
C743 C744 1.434 . S
C744 C735 1.429 . S
C744 N741 1.350 . S
C744 C743 1.434 . S
C745 C746 1.369 . S
C745 C747 1.419 . S
C745 H749 0.930 . S
C746 C745 1.369 . S
C746 C755 1.429 . S
C747 C745 1.419 . S
C747 C748 1.363 . S
C747 H750 0.929 . S
C748 C747 1.363 . S
C748 C754 1.428 . S
H749 C745 0.930 . S
H750 C747 0.929 . S
S751 N752 1.613 . S
S751 N753 1.610 . S
N752 S751 1.613 . S
N752 C755 1.350 . S
N753 S751 1.610 . S
N753 C754 1.351 . S
C754 C748 1.428 . S
C754 N753 1.351 . S
C754 C755 1.434 . S
C755 C746 1.429 . S
C755 N752 1.350 . S
C755 C754 1.434 . S
C361 C10 0.881 . S
C363 C250 0.888 . S
C372 C40 1.350 . S
C374 C271 1.348 . S
C383 C70 0.888 . S
C385 C310 0.883 . S
C394 C331 1.354 . S
C396 C100 1.346 . S
C405 C130 0.880 . S
C407 C190 0.888 . S
C416 C211 1.362 . S
C418 C160 1.337 . S
C427 C316 2.268 . S
C429 C16 2.303 . S
C438 N344 1.654 . S
C440 C46 1.766 . S
C449 C76 2.305 . S
C451 C196 2.272 . S
C460 N224 1.646 1_554 S
C462 C106 1.763 . S
C471 C256 2.272 . S
C473 C136 2.304 . S
C482 C166 1.766 . S
C484 N284 1.653 . S
C493 C237 0.927 . S
C495 N6 0.861 . S
C504 N246 0.698 . S
C506 N36 0.684 . S
C515 C297 0.930 . S
C517 N66 0.849 . S
C526 N96 0.699 . S
C528 N306 0.679 . S
C537 N126 0.845 . S
C539 C357 0.930 . S
C548 N156 0.695 . S
C550 N186 0.697 . S
C559 C1 1.180 . S
C561 C91 1.165 . S
C570 C31 1.168 . S
C572 C121 1.179 . S
C581 C61 1.186 . S
C583 C151 1.160 . S
C592 C280 1.017 . S
C594 C181 1.000 . S
C603 C220 1.017 . S
C605 C301 1.000 . S
C614 C340 1.016 . S
C616 C241 1.003 . S
C625 N216 2.217 . S
C627 C27 2.218 . S
C636 C267 2.328 . S
C638 C57 2.348 . S
C647 C87 2.218 1_554 S
C649 N276 2.217 . S
C658 C327 2.326 . S
C660 C117 2.345 . S
C669 N336 2.219 . S
C671 C147 2.219 . S
C680 C177 2.347 . S
C682 C207 2.326 . S
C691 N14 0.725 . S
C693 N314 0.722 . S
C702 N44 1.279 . S
C704 C346 1.283 1_556 S
C713 N74 0.722 . S
C715 N194 0.723 . S
C724 N104 1.281 . S
C726 C226 1.288 . S
C735 N134 0.725 . S
C737 N254 0.722 . S
C746 C286 1.286 . S
C748 N164 1.278 . S
