# Generated by pormake.
# Topology sxq, (6)-cn, num edge types: 1
# Building blocks:
#     Node 0, Type 0, BuildingBlock: MIDCAF_clean_sbu_0, # of connection points: 6
#     Node 1, Type 0, BuildingBlock: MIDCAF_clean_sbu_0, # of connection points: 6
#     Node 2, Type 0, BuildingBlock: MIDCAF_clean_sbu_0, # of connection points: 6
#     Node 3, Type 0, BuildingBlock: MIDCAF_clean_sbu_0, # of connection points: 6
#     Node 4, Type 0, BuildingBlock: MIDCAF_clean_sbu_0, # of connection points: 6
#     Node 5, Type 0, BuildingBlock: MIDCAF_clean_sbu_0, # of connection points: 6
#     Node 6, Type 0, BuildingBlock: MIDCAF_clean_sbu_0, # of connection points: 6
#     Node 7, Type 0, BuildingBlock: MIDCAF_clean_sbu_0, # of connection points: 6
#     Node 8, Type 0, BuildingBlock: MIDCAF_clean_sbu_0, # of connection points: 6
#     Node 9, Type 0, BuildingBlock: MIDCAF_clean_sbu_0, # of connection points: 6
#     Node 10, Type 0, BuildingBlock: MIDCAF_clean_sbu_0, # of connection points: 6
#     Node 11, Type 0, BuildingBlock: MIDCAF_clean_sbu_0, # of connection points: 6
#     Node 12, Type 0, BuildingBlock: MIDCAF_clean_sbu_0, # of connection points: 6
#     Node 13, Type 0, BuildingBlock: MIDCAF_clean_sbu_0, # of connection points: 6
#     Node 14, Type 0, BuildingBlock: MIDCAF_clean_sbu_0, # of connection points: 6
#     Node 15, Type 0, BuildingBlock: MIDCAF_clean_sbu_0, # of connection points: 6
#     Node 16, Type 0, BuildingBlock: MIDCAF_clean_sbu_0, # of connection points: 6
#     Node 17, Type 0, BuildingBlock: MIDCAF_clean_sbu_0, # of connection points: 6
#     Node 18, Type 0, BuildingBlock: MIDCAF_clean_sbu_0, # of connection points: 6
#     Node 19, Type 0, BuildingBlock: MIDCAF_clean_sbu_0, # of connection points: 6
#     Node 20, Type 0, BuildingBlock: MIDCAF_clean_sbu_0, # of connection points: 6
#     Node 21, Type 0, BuildingBlock: MIDCAF_clean_sbu_0, # of connection points: 6
#     Node 22, Type 0, BuildingBlock: MIDCAF_clean_sbu_0, # of connection points: 6
#     Node 23, Type 0, BuildingBlock: MIDCAF_clean_sbu_0, # of connection points: 6
#     Node 24, Type 0, BuildingBlock: MIDCAF_clean_sbu_0, # of connection points: 6
#     Node 25, Type 0, BuildingBlock: MIDCAF_clean_sbu_0, # of connection points: 6
#     Node 26, Type 0, BuildingBlock: MIDCAF_clean_sbu_0, # of connection points: 6
#     Node 27, Type 0, BuildingBlock: MIDCAF_clean_sbu_0, # of connection points: 6
#     Node 28, Type 0, BuildingBlock: MIDCAF_clean_sbu_0, # of connection points: 6
#     Node 29, Type 0, BuildingBlock: MIDCAF_clean_sbu_0, # of connection points: 6
#     Node 30, Type 0, BuildingBlock: MIDCAF_clean_sbu_0, # of connection points: 6
#     Node 31, Type 0, BuildingBlock: MIDCAF_clean_sbu_0, # of connection points: 6
#     Node 32, Type 0, BuildingBlock: MIDCAF_clean_sbu_0, # of connection points: 6
#     Node 33, Type 0, BuildingBlock: MIDCAF_clean_sbu_0, # of connection points: 6
#     Node 34, Type 0, BuildingBlock: MIDCAF_clean_sbu_0, # of connection points: 6
#     Node 35, Type 0, BuildingBlock: MIDCAF_clean_sbu_0, # of connection points: 6
#     Node 36, Type 0, BuildingBlock: MIDCAF_clean_sbu_0, # of connection points: 6
#     Node 37, Type 0, BuildingBlock: MIDCAF_clean_sbu_0, # of connection points: 6
#     Node 38, Type 0, BuildingBlock: MIDCAF_clean_sbu_0, # of connection points: 6
#     Node 39, Type 0, BuildingBlock: MIDCAF_clean_sbu_0, # of connection points: 6
#     Node 40, Type 0, BuildingBlock: MIDCAF_clean_sbu_0, # of connection points: 6
#     Node 41, Type 0, BuildingBlock: MIDCAF_clean_sbu_0, # of connection points: 6
#     Node 42, Type 0, BuildingBlock: MIDCAF_clean_sbu_0, # of connection points: 6
#     Node 43, Type 0, BuildingBlock: MIDCAF_clean_sbu_0, # of connection points: 6
#     Node 44, Type 0, BuildingBlock: MIDCAF_clean_sbu_0, # of connection points: 6
#     Node 45, Type 0, BuildingBlock: MIDCAF_clean_sbu_0, # of connection points: 6
#     Node 46, Type 0, BuildingBlock: MIDCAF_clean_sbu_0, # of connection points: 6
#     Node 47, Type 0, BuildingBlock: MIDCAF_clean_sbu_0, # of connection points: 6
#     Node 48, Type 0, BuildingBlock: MIDCAF_clean_sbu_0, # of connection points: 6
#     Node 49, Type 0, BuildingBlock: MIDCAF_clean_sbu_0, # of connection points: 6
#     Node 50, Type 0, BuildingBlock: MIDCAF_clean_sbu_0, # of connection points: 6
#     Node 51, Type 0, BuildingBlock: MIDCAF_clean_sbu_0, # of connection points: 6
#     Node 52, Type 0, BuildingBlock: MIDCAF_clean_sbu_0, # of connection points: 6
#     Node 53, Type 0, BuildingBlock: MIDCAF_clean_sbu_0, # of connection points: 6
#     Node 54, Type 0, BuildingBlock: MIDCAF_clean_sbu_0, # of connection points: 6
#     Node 55, Type 0, BuildingBlock: MIDCAF_clean_sbu_0, # of connection points: 6
#     Node 56, Type 0, BuildingBlock: MIDCAF_clean_sbu_0, # of connection points: 6
#     Node 57, Type 0, BuildingBlock: MIDCAF_clean_sbu_0, # of connection points: 6
#     Node 58, Type 0, BuildingBlock: MIDCAF_clean_sbu_0, # of connection points: 6
#     Node 59, Type 0, BuildingBlock: MIDCAF_clean_sbu_0, # of connection points: 6
#     Node 60, Type 0, BuildingBlock: MIDCAF_clean_sbu_0, # of connection points: 6
#     Node 61, Type 0, BuildingBlock: MIDCAF_clean_sbu_0, # of connection points: 6
#     Node 62, Type 0, BuildingBlock: MIDCAF_clean_sbu_0, # of connection points: 6
#     Node 63, Type 0, BuildingBlock: MIDCAF_clean_sbu_0, # of connection points: 6
#     Node 64, Type 0, BuildingBlock: MIDCAF_clean_sbu_0, # of connection points: 6
#     Node 65, Type 0, BuildingBlock: MIDCAF_clean_sbu_0, # of connection points: 6
#     Node 66, Type 0, BuildingBlock: MIDCAF_clean_sbu_0, # of connection points: 6
#     Node 67, Type 0, BuildingBlock: MIDCAF_clean_sbu_0, # of connection points: 6
#     Node 68, Type 0, BuildingBlock: MIDCAF_clean_sbu_0, # of connection points: 6
#     Node 69, Type 0, BuildingBlock: MIDCAF_clean_sbu_0, # of connection points: 6
#     Node 70, Type 0, BuildingBlock: MIDCAF_clean_sbu_0, # of connection points: 6
#     Node 71, Type 0, BuildingBlock: MIDCAF_clean_sbu_0, # of connection points: 6
#     Node 72, Type 0, BuildingBlock: MIDCAF_clean_sbu_0, # of connection points: 6
#     Node 73, Type 0, BuildingBlock: MIDCAF_clean_sbu_0, # of connection points: 6
#     Node 74, Type 0, BuildingBlock: MIDCAF_clean_sbu_0, # of connection points: 6
#     Node 75, Type 0, BuildingBlock: MIDCAF_clean_sbu_0, # of connection points: 6
#     Node 76, Type 0, BuildingBlock: MIDCAF_clean_sbu_0, # of connection points: 6
#     Node 77, Type 0, BuildingBlock: MIDCAF_clean_sbu_0, # of connection points: 6
#     Node 78, Type 0, BuildingBlock: MIDCAF_clean_sbu_0, # of connection points: 6
#     Node 79, Type 0, BuildingBlock: MIDCAF_clean_sbu_0, # of connection points: 6
#     Node 80, Type 0, BuildingBlock: MIDCAF_clean_sbu_0, # of connection points: 6
#     Node 81, Type 0, BuildingBlock: MIDCAF_clean_sbu_0, # of connection points: 6
#     Node 82, Type 0, BuildingBlock: MIDCAF_clean_sbu_0, # of connection points: 6
#     Node 83, Type 0, BuildingBlock: MIDCAF_clean_sbu_0, # of connection points: 6
#     Node 84, Type 0, BuildingBlock: MIDCAF_clean_sbu_0, # of connection points: 6
#     Node 85, Type 0, BuildingBlock: MIDCAF_clean_sbu_0, # of connection points: 6
#     Node 86, Type 0, BuildingBlock: MIDCAF_clean_sbu_0, # of connection points: 6
#     Node 87, Type 0, BuildingBlock: MIDCAF_clean_sbu_0, # of connection points: 6
#     Node 88, Type 0, BuildingBlock: MIDCAF_clean_sbu_0, # of connection points: 6
#     Node 89, Type 0, BuildingBlock: MIDCAF_clean_sbu_0, # of connection points: 6
#     Node 90, Type 0, BuildingBlock: MIDCAF_clean_sbu_0, # of connection points: 6
#     Node 91, Type 0, BuildingBlock: MIDCAF_clean_sbu_0, # of connection points: 6
#     Node 92, Type 0, BuildingBlock: MIDCAF_clean_sbu_0, # of connection points: 6
#     Node 93, Type 0, BuildingBlock: MIDCAF_clean_sbu_0, # of connection points: 6
#     Node 94, Type 0, BuildingBlock: MIDCAF_clean_sbu_0, # of connection points: 6
#     Node 95, Type 0, BuildingBlock: MIDCAF_clean_sbu_0, # of connection points: 6
#     Edge 96, Type (0, 0), None
#     Edge 97, Type (0, 0), None
#     Edge 98, Type (0, 0), None
#     Edge 99, Type (0, 0), None
#     Edge 100, Type (0, 0), None
#     Edge 101, Type (0, 0), None
#     Edge 102, Type (0, 0), None
#     Edge 103, Type (0, 0), None
#     Edge 104, Type (0, 0), None
#     Edge 105, Type (0, 0), None
#     Edge 106, Type (0, 0), None
#     Edge 107, Type (0, 0), None
#     Edge 108, Type (0, 0), None
#     Edge 109, Type (0, 0), None
#     Edge 110, Type (0, 0), None
#     Edge 111, Type (0, 0), None
#     Edge 112, Type (0, 0), None
#     Edge 113, Type (0, 0), None
#     Edge 114, Type (0, 0), None
#     Edge 115, Type (0, 0), None
#     Edge 116, Type (0, 0), None
#     Edge 117, Type (0, 0), None
#     Edge 118, Type (0, 0), None
#     Edge 119, Type (0, 0), None
#     Edge 120, Type (0, 0), None
#     Edge 121, Type (0, 0), None
#     Edge 122, Type (0, 0), None
#     Edge 123, Type (0, 0), None
#     Edge 124, Type (0, 0), None
#     Edge 125, Type (0, 0), None
#     Edge 126, Type (0, 0), None
#     Edge 127, Type (0, 0), None
#     Edge 128, Type (0, 0), None
#     Edge 129, Type (0, 0), None
#     Edge 130, Type (0, 0), None
#     Edge 131, Type (0, 0), None
#     Edge 132, Type (0, 0), None
#     Edge 133, Type (0, 0), None
#     Edge 134, Type (0, 0), None
#     Edge 135, Type (0, 0), None
#     Edge 136, Type (0, 0), None
#     Edge 137, Type (0, 0), None
#     Edge 138, Type (0, 0), None
#     Edge 139, Type (0, 0), None
#     Edge 140, Type (0, 0), None
#     Edge 141, Type (0, 0), None
#     Edge 142, Type (0, 0), None
#     Edge 143, Type (0, 0), None
#     Edge 144, Type (0, 0), None
#     Edge 145, Type (0, 0), None
#     Edge 146, Type (0, 0), None
#     Edge 147, Type (0, 0), None
#     Edge 148, Type (0, 0), None
#     Edge 149, Type (0, 0), None
#     Edge 150, Type (0, 0), None
#     Edge 151, Type (0, 0), None
#     Edge 152, Type (0, 0), None
#     Edge 153, Type (0, 0), None
#     Edge 154, Type (0, 0), None
#     Edge 155, Type (0, 0), None
#     Edge 156, Type (0, 0), None
#     Edge 157, Type (0, 0), None
#     Edge 158, Type (0, 0), None
#     Edge 159, Type (0, 0), None
#     Edge 160, Type (0, 0), None
#     Edge 161, Type (0, 0), None
#     Edge 162, Type (0, 0), None
#     Edge 163, Type (0, 0), None
#     Edge 164, Type (0, 0), None
#     Edge 165, Type (0, 0), None
#     Edge 166, Type (0, 0), None
#     Edge 167, Type (0, 0), None
#     Edge 168, Type (0, 0), None
#     Edge 169, Type (0, 0), None
#     Edge 170, Type (0, 0), None
#     Edge 171, Type (0, 0), None
#     Edge 172, Type (0, 0), None
#     Edge 173, Type (0, 0), None
#     Edge 174, Type (0, 0), None
#     Edge 175, Type (0, 0), None
#     Edge 176, Type (0, 0), None
#     Edge 177, Type (0, 0), None
#     Edge 178, Type (0, 0), None
#     Edge 179, Type (0, 0), None
#     Edge 180, Type (0, 0), None
#     Edge 181, Type (0, 0), None
#     Edge 182, Type (0, 0), None
#     Edge 183, Type (0, 0), None
#     Edge 184, Type (0, 0), None
#     Edge 185, Type (0, 0), None
#     Edge 186, Type (0, 0), None
#     Edge 187, Type (0, 0), None
#     Edge 188, Type (0, 0), None
#     Edge 189, Type (0, 0), None
#     Edge 190, Type (0, 0), None
#     Edge 191, Type (0, 0), None
#     Edge 192, Type (0, 0), None
#     Edge 193, Type (0, 0), None
#     Edge 194, Type (0, 0), None
#     Edge 195, Type (0, 0), None
#     Edge 196, Type (0, 0), None
#     Edge 197, Type (0, 0), None
#     Edge 198, Type (0, 0), None
#     Edge 199, Type (0, 0), None
#     Edge 200, Type (0, 0), None
#     Edge 201, Type (0, 0), None
#     Edge 202, Type (0, 0), None
#     Edge 203, Type (0, 0), None
#     Edge 204, Type (0, 0), None
#     Edge 205, Type (0, 0), None
#     Edge 206, Type (0, 0), None
#     Edge 207, Type (0, 0), None
#     Edge 208, Type (0, 0), None
#     Edge 209, Type (0, 0), None
#     Edge 210, Type (0, 0), None
#     Edge 211, Type (0, 0), None
#     Edge 212, Type (0, 0), None
#     Edge 213, Type (0, 0), None
#     Edge 214, Type (0, 0), None
#     Edge 215, Type (0, 0), None
#     Edge 216, Type (0, 0), None
#     Edge 217, Type (0, 0), None
#     Edge 218, Type (0, 0), None
#     Edge 219, Type (0, 0), None
#     Edge 220, Type (0, 0), None
#     Edge 221, Type (0, 0), None
#     Edge 222, Type (0, 0), None
#     Edge 223, Type (0, 0), None
#     Edge 224, Type (0, 0), None
#     Edge 225, Type (0, 0), None
#     Edge 226, Type (0, 0), None
#     Edge 227, Type (0, 0), None
#     Edge 228, Type (0, 0), None
#     Edge 229, Type (0, 0), None
#     Edge 230, Type (0, 0), None
#     Edge 231, Type (0, 0), None
#     Edge 232, Type (0, 0), None
#     Edge 233, Type (0, 0), None
#     Edge 234, Type (0, 0), None
#     Edge 235, Type (0, 0), None
#     Edge 236, Type (0, 0), None
#     Edge 237, Type (0, 0), None
#     Edge 238, Type (0, 0), None
#     Edge 239, Type (0, 0), None
#     Edge 240, Type (0, 0), None
#     Edge 241, Type (0, 0), None
#     Edge 242, Type (0, 0), None
#     Edge 243, Type (0, 0), None
#     Edge 244, Type (0, 0), None
#     Edge 245, Type (0, 0), None
#     Edge 246, Type (0, 0), None
#     Edge 247, Type (0, 0), None
#     Edge 248, Type (0, 0), None
#     Edge 249, Type (0, 0), None
#     Edge 250, Type (0, 0), None
#     Edge 251, Type (0, 0), None
#     Edge 252, Type (0, 0), None
#     Edge 253, Type (0, 0), None
#     Edge 254, Type (0, 0), None
#     Edge 255, Type (0, 0), None
#     Edge 256, Type (0, 0), None
#     Edge 257, Type (0, 0), None
#     Edge 258, Type (0, 0), None
#     Edge 259, Type (0, 0), None
#     Edge 260, Type (0, 0), None
#     Edge 261, Type (0, 0), None
#     Edge 262, Type (0, 0), None
#     Edge 263, Type (0, 0), None
#     Edge 264, Type (0, 0), None
#     Edge 265, Type (0, 0), None
#     Edge 266, Type (0, 0), None
#     Edge 267, Type (0, 0), None
#     Edge 268, Type (0, 0), None
#     Edge 269, Type (0, 0), None
#     Edge 270, Type (0, 0), None
#     Edge 271, Type (0, 0), None
#     Edge 272, Type (0, 0), None
#     Edge 273, Type (0, 0), None
#     Edge 274, Type (0, 0), None
#     Edge 275, Type (0, 0), None
#     Edge 276, Type (0, 0), None
#     Edge 277, Type (0, 0), None
#     Edge 278, Type (0, 0), None
#     Edge 279, Type (0, 0), None
#     Edge 280, Type (0, 0), None
#     Edge 281, Type (0, 0), None
#     Edge 282, Type (0, 0), None
#     Edge 283, Type (0, 0), None
#     Edge 284, Type (0, 0), None
#     Edge 285, Type (0, 0), None
#     Edge 286, Type (0, 0), None
#     Edge 287, Type (0, 0), None
#     Edge 288, Type (0, 0), None
#     Edge 289, Type (0, 0), None
#     Edge 290, Type (0, 0), None
#     Edge 291, Type (0, 0), None
#     Edge 292, Type (0, 0), None
#     Edge 293, Type (0, 0), None
#     Edge 294, Type (0, 0), None
#     Edge 295, Type (0, 0), None
#     Edge 296, Type (0, 0), None
#     Edge 297, Type (0, 0), None
#     Edge 298, Type (0, 0), None
#     Edge 299, Type (0, 0), None
#     Edge 300, Type (0, 0), None
#     Edge 301, Type (0, 0), None
#     Edge 302, Type (0, 0), None
#     Edge 303, Type (0, 0), None
#     Edge 304, Type (0, 0), None
#     Edge 305, Type (0, 0), None
#     Edge 306, Type (0, 0), None
#     Edge 307, Type (0, 0), None
#     Edge 308, Type (0, 0), None
#     Edge 309, Type (0, 0), None
#     Edge 310, Type (0, 0), None
#     Edge 311, Type (0, 0), None
#     Edge 312, Type (0, 0), None
#     Edge 313, Type (0, 0), None
#     Edge 314, Type (0, 0), None
#     Edge 315, Type (0, 0), None
#     Edge 316, Type (0, 0), None
#     Edge 317, Type (0, 0), None
#     Edge 318, Type (0, 0), None
#     Edge 319, Type (0, 0), None
#     Edge 320, Type (0, 0), None
#     Edge 321, Type (0, 0), None
#     Edge 322, Type (0, 0), None
#     Edge 323, Type (0, 0), None
#     Edge 324, Type (0, 0), None
#     Edge 325, Type (0, 0), None
#     Edge 326, Type (0, 0), None
#     Edge 327, Type (0, 0), None
#     Edge 328, Type (0, 0), None
#     Edge 329, Type (0, 0), None
#     Edge 330, Type (0, 0), None
#     Edge 331, Type (0, 0), None
#     Edge 332, Type (0, 0), None
#     Edge 333, Type (0, 0), None
#     Edge 334, Type (0, 0), None
#     Edge 335, Type (0, 0), None
#     Edge 336, Type (0, 0), None
#     Edge 337, Type (0, 0), None
#     Edge 338, Type (0, 0), None
#     Edge 339, Type (0, 0), None
#     Edge 340, Type (0, 0), None
#     Edge 341, Type (0, 0), None
#     Edge 342, Type (0, 0), None
#     Edge 343, Type (0, 0), None
#     Edge 344, Type (0, 0), None
#     Edge 345, Type (0, 0), None
#     Edge 346, Type (0, 0), None
#     Edge 347, Type (0, 0), None
#     Edge 348, Type (0, 0), None
#     Edge 349, Type (0, 0), None
#     Edge 350, Type (0, 0), None
#     Edge 351, Type (0, 0), None
#     Edge 352, Type (0, 0), None
#     Edge 353, Type (0, 0), None
#     Edge 354, Type (0, 0), None
#     Edge 355, Type (0, 0), None
#     Edge 356, Type (0, 0), None
#     Edge 357, Type (0, 0), None
#     Edge 358, Type (0, 0), None
#     Edge 359, Type (0, 0), None
#     Edge 360, Type (0, 0), None
#     Edge 361, Type (0, 0), None
#     Edge 362, Type (0, 0), None
#     Edge 363, Type (0, 0), None
#     Edge 364, Type (0, 0), None
#     Edge 365, Type (0, 0), None
#     Edge 366, Type (0, 0), None
#     Edge 367, Type (0, 0), None
#     Edge 368, Type (0, 0), None
#     Edge 369, Type (0, 0), None
#     Edge 370, Type (0, 0), None
#     Edge 371, Type (0, 0), None
#     Edge 372, Type (0, 0), None
#     Edge 373, Type (0, 0), None
#     Edge 374, Type (0, 0), None
#     Edge 375, Type (0, 0), None
#     Edge 376, Type (0, 0), None
#     Edge 377, Type (0, 0), None
#     Edge 378, Type (0, 0), None
#     Edge 379, Type (0, 0), None
#     Edge 380, Type (0, 0), None
#     Edge 381, Type (0, 0), None
#     Edge 382, Type (0, 0), None
#     Edge 383, Type (0, 0), None
# Relax obj value: 0.621
# Max RMSD: 0.271
# Mean RMSD: 0.271
data_MOF--net-sxq--node1-MIDCAF_clean_sbu_0--edge1-none
_symmetry_space_group_name_H-M    P1
_symmetry_Int_Tables_number       1
_symmetry_cell_setting            triclinic
loop_
_symmetry_equiv_pos_as_xyz
'x, y, z'
_cell_length_a     30.82821
_cell_length_b     30.844281
_cell_length_c     30.781061
_cell_angle_alpha  90.070034
_cell_angle_beta   90.052672
_cell_angle_gamma 90.130399
loop_
_atom_site_label
_atom_site_type_symbol
_atom_site_fract_x
_atom_site_fract_y
_atom_site_fract_z
_atom_type_partial_charge
Zn0 Zn 0.04633 0.4036 0.16053 0.0
Zn1 Zn 0.96923 0.32583 0.95012 0.0
Zn2 Zn 0.03356 0.37616 0.04093 0.0
C3 C 0.96619 0.41468 0.99194 0.0
C4 C 0.05207 0.33305 0.94736 0.0
O5 O 0.01492 0.34965 0.10236 0.0
O6 O 0.03301 0.33841 0.16912 0.0
C7 C 0.9866 0.42949 0.11189 0.0
O8 O 0.99721 0.42794 0.01485 0.0
O9 O 0.97774 0.39169 0.96018 0.0
O10 O 0.02894 0.30995 0.92218 0.0
O11 O 0.04011 0.33277 0.98738 0.0
O12 O 0.98495 0.43016 0.15259 0.0
O13 O 0.99325 0.3923 0.09436 0.0
O14 O 0.09229 0.40642 0.0504 0.0
O15 O 0.10279 0.42544 0.11996 0.0
C16 C 0.11469 0.42518 0.07974 0.0
O17 O 0.02281 0.30328 0.02609 0.0
O18 O 0.95574 0.28906 0.00464 0.0
C19 C 0.03911 0.32965 0.12964 0.0
C20 C 0.98997 0.27665 0.02345 0.0
Zn21 Zn 0.84316 0.79254 0.40489 0.0
Zn22 Zn 0.91872 0.72964 0.18639 0.0
Zn23 Zn 0.86676 0.78458 0.28383 0.0
C24 C 0.83453 0.715 0.23655 0.0
C25 C 0.90395 0.81168 0.19165 0.0
O26 O 0.89687 0.76485 0.34263 0.0
O27 O 0.90824 0.7807 0.40978 0.0
C28 C 0.81676 0.73444 0.35509 0.0
O29 O 0.81753 0.74323 0.26044 0.0
O30 O 0.85454 0.73031 0.20444 0.0
O31 O 0.92737 0.79298 0.16339 0.0
O32 O 0.90822 0.79664 0.23039 0.0
O33 O 0.81887 0.73014 0.39549 0.0
O34 O 0.85277 0.74194 0.3357 0.0
O35 O 0.83607 0.84226 0.29746 0.0
O36 O 0.81934 0.85039 0.36782 0.0
C37 C 0.81813 0.86353 0.32804 0.0
O38 O 0.94059 0.77291 0.27482 0.0
O39 O 0.9626 0.71661 0.23421 0.0
C40 C 0.91633 0.78872 0.37058 0.0
C41 C 0.96961 0.74398 0.26426 0.0
Zn42 Zn 0.52164 0.66906 0.44129 0.0
Zn43 Zn 0.44606 0.59458 0.65571 0.0
Zn44 Zn 0.4613 0.61947 0.53513 0.0
C45 C 0.37872 0.5731 0.5748 0.0
C46 C 0.50497 0.56602 0.60721 0.0
O47 O 0.47001 0.69139 0.52047 0.0
O48 O 0.53433 0.70861 0.49296 0.0
C49 C 0.43879 0.65917 0.44027 0.0
O50 O 0.40269 0.5903 0.54598 0.0
O51 O 0.38902 0.57373 0.61544 0.0
O52 O 0.50661 0.56646 0.64792 0.0
O53 O 0.50235 0.60307 0.58841 0.0
O54 O 0.46042 0.68297 0.41454 0.0
O55 O 0.45159 0.66109 0.48011 0.0
O56 O 0.50249 0.56977 0.51298 0.0
O57 O 0.51959 0.60395 0.45629 0.0
C58 C 0.53255 0.58383 0.48939 0.0
O59 O 0.48159 0.64718 0.59512 0.0
O60 O 0.46412 0.65879 0.66183 0.0
C61 C 0.50275 0.71781 0.51758 0.0
C62 C 0.45882 0.66848 0.62247 0.0
Zn63 Zn 0.65773 0.21106 0.90162 0.0
Zn64 Zn 0.57552 0.26529 0.68354 0.0
Zn65 Zn 0.63387 0.2154 0.78065 0.0
C66 C 0.65927 0.2848 0.73082 0.0
C67 C 0.59509 0.18423 0.69104 0.0
O68 O 0.60577 0.23623 0.83938 0.0
O69 O 0.59257 0.22187 0.90647 0.0
C70 C 0.68559 0.26721 0.85002 0.0
O71 O 0.68018 0.25908 0.75462 0.0
O72 O 0.63887 0.26695 0.70034 0.0
O73 O 0.57024 0.20076 0.66265 0.0
O74 O 0.5909 0.20047 0.72933 0.0
O75 O 0.6838 0.27261 0.89032 0.0
O76 O 0.64929 0.25931 0.83118 0.0
O77 O 0.6646 0.15802 0.79657 0.0
O78 O 0.68074 0.1514 0.8672 0.0
C79 C 0.68208 0.13724 0.82777 0.0
O80 O 0.55938 0.22454 0.77247 0.0
O81 O 0.5369 0.282 0.7345 0.0
C82 C 0.58463 0.21386 0.86718 0.0
C83 C 0.53056 0.2544 0.76428 0.0
Zn84 Zn 0.03134 0.59629 0.35045 0.0
Zn85 Zn 0.97388 0.68003 0.55657 0.0
Zn86 Zn 0.03099 0.61735 0.46908 0.0
C87 C 0.96252 0.59142 0.52199 0.0
C88 C 0.05677 0.66459 0.55752 0.0
O89 O 0.00791 0.64387 0.40967 0.0
O90 O 0.01902 0.66156 0.34256 0.0
C91 C 0.97792 0.56445 0.4021 0.0
O92 O 0.98955 0.57141 0.49878 0.0
O93 O 0.97865 0.61479 0.5513 0.0
O94 O 0.03633 0.69046 0.58224 0.0
O95 O 0.04324 0.66396 0.51812 0.0
O96 O 0.97132 0.56574 0.36194 0.0
O97 O 0.98612 0.60115 0.42001 0.0
O98 O 0.08807 0.58596 0.45594 0.0
O99 O 0.09251 0.57443 0.38413 0.0
C100 C 0.10775 0.57041 0.42303 0.0
O101 O 0.02576 0.69063 0.47861 0.0
O102 O 0.95844 0.70559 0.49635 0.0
C103 C 0.02878 0.66676 0.38198 0.0
C104 C 0.99283 0.71669 0.47717 0.0
Zn105 Zn 0.6509 0.79937 0.59608 0.0
Zn106 Zn 0.58026 0.73586 0.81402 0.0
Zn107 Zn 0.62978 0.79117 0.71713 0.0
C108 C 0.66507 0.72239 0.76587 0.0
C109 C 0.59346 0.81781 0.81046 0.0
O110 O 0.59841 0.76757 0.65962 0.0
O111 O 0.58644 0.78157 0.59219 0.0
C112 C 0.67906 0.74232 0.64684 0.0
O113 O 0.67955 0.75294 0.74315 0.0
O114 O 0.64582 0.73447 0.7998 0.0
O115 O 0.56989 0.79851 0.83817 0.0
O116 O 0.58927 0.80355 0.7714 0.0
O117 O 0.67726 0.73808 0.6064 0.0
O118 O 0.64267 0.74676 0.66638 0.0
O119 O 0.66055 0.84859 0.70333 0.0
O120 O 0.67407 0.85843 0.63263 0.0
C121 C 0.677 0.87073 0.67264 0.0
O122 O 0.55726 0.7844 0.73088 0.0
O123 O 0.53826 0.72323 0.76419 0.0
C124 C 0.5788 0.79067 0.63124 0.0
C125 C 0.53058 0.75216 0.73596 0.0
Zn126 Zn 0.52459 0.32005 0.05614 0.0
Zn127 Zn 0.463 0.40523 0.85043 0.0
Zn128 Zn 0.46611 0.38205 0.96875 0.0
C129 C 0.38837 0.43051 0.92518 0.0
C130 C 0.51799 0.43578 0.90109 0.0
O131 O 0.47232 0.30811 0.97733 0.0
O132 O 0.53982 0.2943 0.99627 0.0
C133 C 0.44143 0.33443 0.05687 0.0
O134 O 0.40867 0.41428 0.95741 0.0
O135 O 0.40283 0.4272 0.88592 0.0
O136 O 0.52384 0.43449 0.86083 0.0
O137 O 0.51008 0.39907 0.91905 0.0
O138 O 0.46215 0.30853 0.08129 0.0
O139 O 0.45456 0.33512 0.01736 0.0
O140 O 0.50895 0.42763 0.99718 0.0
O141 O 0.52047 0.38502 0.05018 0.0
C142 C 0.53624 0.40785 0.02031 0.0
O143 O 0.48763 0.35618 0.90855 0.0
O144 O 0.47469 0.34001 0.84135 0.0
C145 C 0.50586 0.28265 0.97659 0.0
C146 C 0.46565 0.33431 0.88083 0.0
Zn147 Zn 0.84864 0.19839 0.0953 0.0
Zn148 Zn 0.91933 0.26453 0.31508 0.0
Zn149 Zn 0.87209 0.20848 0.21599 0.0
C150 C 0.83617 0.27634 0.26397 0.0
C151 C 0.90677 0.18219 0.30923 0.0
O152 O 0.90197 0.23089 0.15757 0.0
O153 O 0.91312 0.21574 0.09024 0.0
C154 C 0.82015 0.25569 0.14528 0.0
O155 O 0.82158 0.24635 0.24054 0.0
O156 O 0.85498 0.26367 0.29785 0.0
O157 O 0.92934 0.2013 0.338 0.0
O158 O 0.912 0.19714 0.27057 0.0
O159 O 0.82155 0.25948 0.10478 0.0
O160 O 0.8568 0.25158 0.16457 0.0
O161 O 0.84175 0.15007 0.20357 0.0
O162 O 0.82644 0.13994 0.13311 0.0
C163 C 0.82461 0.12777 0.1732 0.0
O164 O 0.94509 0.21919 0.23127 0.0
O165 O 0.96229 0.27989 0.26704 0.0
C166 C 0.92109 0.20717 0.12933 0.0
C167 C 0.97213 0.25077 0.23969 0.0
Zn168 Zn 0.15313 0.03272 0.40691 0.0
Zn169 Zn 0.94497 0.97716 0.31501 0.0
Zn170 Zn 0.03592 0.02989 0.37782 0.0
C171 C 0.98327 0.9601 0.40258 0.0
C172 C 0.94748 0.05792 0.33326 0.0
O173 O 0.09806 0.00897 0.35494 0.0
O174 O 0.16578 0.02352 0.34187 0.0
C175 C 0.10074 0.978 0.43492 0.0
O176 O 0.00877 0.98502 0.42257 0.0
O177 O 0.95486 0.97897 0.38031 0.0
O178 O 0.92151 0.04022 0.30653 0.0
O179 O 0.98643 0.04313 0.33217 0.0
O180 O 0.14094 0.9721 0.43566 0.0
O181 O 0.08454 0.98598 0.39732 0.0
O182 O 0.04603 0.08727 0.41115 0.0
O183 O 0.11678 0.09212 0.42806 0.0
C184 C 0.07769 0.10693 0.42942 0.0
O185 O 0.02692 0.02388 0.30279 0.0
O186 O 0.00079 0.96 0.28256 0.0
C187 C 0.12636 0.03119 0.33414 0.0
C188 C 0.02323 0.99319 0.27376 0.0
Zn189 Zn 0.26831 0.69179 0.57069 0.0
Zn190 Zn 0.20829 0.90673 0.6565 0.0
Zn191 Zn 0.21658 0.78688 0.62845 0.0
C192 C 0.13655 0.82992 0.67679 0.0
C193 C 0.26624 0.85528 0.68416 0.0
O194 O 0.22219 0.77413 0.55427 0.0
O195 O 0.28412 0.74415 0.5329 0.0
C196 C 0.18731 0.69381 0.58915 0.0
O197 O 0.15884 0.80019 0.65886 0.0
O198 O 0.14929 0.86978 0.67731 0.0
O199 O 0.26938 0.89582 0.68405 0.0
O200 O 0.25982 0.83751 0.64688 0.0
O201 O 0.20516 0.66727 0.56321 0.0
O202 O 0.20226 0.73289 0.58671 0.0
O203 O 0.26228 0.76306 0.67467 0.0
O204 O 0.26886 0.70752 0.63502 0.0
C205 C 0.28763 0.73735 0.65573 0.0
O206 O 0.23665 0.84863 0.60389 0.0
O207 O 0.21942 0.91558 0.5912 0.0
C208 C 0.25202 0.76834 0.52482 0.0
C209 C 0.21366 0.87596 0.58279 0.0
Zn210 Zn 0.34475 0.96662 0.90602 0.0
Zn211 Zn 0.55465 0.02304 0.81658 0.0
Zn212 Zn 0.46288 0.96987 0.87864 0.0
C213 C 0.51514 0.04059 0.90335 0.0
C214 C 0.552 0.94208 0.83486 0.0
O215 O 0.40079 0.98955 0.85484 0.0
O216 O 0.33307 0.9755 0.84089 0.0
C217 C 0.39696 0.0212 0.93463 0.0
O218 O 0.48941 0.0157 0.92305 0.0
O219 O 0.54433 0.02173 0.88204 0.0
O220 O 0.57819 0.96 0.80857 0.0
O221 O 0.51312 0.95702 0.83376 0.0
O222 O 0.35672 0.02705 0.93495 0.0
O223 O 0.41364 0.01354 0.89719 0.0
O224 O 0.45226 0.91271 0.91184 0.0
O225 O 0.3811 0.90758 0.9271 0.0
C226 C 0.42017 0.8929 0.92908 0.0
O227 O 0.47193 0.97525 0.80386 0.0
O228 O 0.49928 0.03833 0.78238 0.0
C229 C 0.37251 0.96698 0.83427 0.0
C230 C 0.47609 0.00537 0.77439 0.0
Zn231 Zn 0.2883 0.09282 0.15499 0.0
Zn232 Zn 0.22863 0.30788 0.0703 0.0
Zn233 Zn 0.28352 0.21291 0.12621 0.0
C234 C 0.21438 0.26347 0.15623 0.0
C235 C 0.31062 0.30698 0.08783 0.0
O236 O 0.26199 0.15136 0.10266 0.0
O237 O 0.27765 0.08404 0.08968 0.0
C238 C 0.23216 0.1456 0.18299 0.0
O239 O 0.24125 0.23848 0.17405 0.0
O240 O 0.23092 0.2938 0.13462 0.0
O241 O 0.29158 0.33336 0.06258 0.0
O242 O 0.29642 0.26763 0.0851 0.0
O243 O 0.22763 0.10515 0.18286 0.0
O244 O 0.23952 0.16304 0.14572 0.0
O245 O 0.34115 0.19853 0.15577 0.0
O246 O 0.34781 0.12882 0.17544 0.0
C247 C 0.36204 0.16814 0.17423 0.0
O248 O 0.27674 0.22822 0.05246 0.0
O249 O 0.21178 0.25348 0.03526 0.0
C250 C 0.28419 0.12353 0.08132 0.0
C251 C 0.24551 0.23302 0.02421 0.0
Zn252 Zn 0.9485 0.02087 0.187 0.0
Zn253 Zn 0.15518 0.96433 0.0932 0.0
Zn254 Zn 0.03737 0.96599 0.12336 0.0
C255 C 0.07937 0.89032 0.07046 0.0
C256 C 0.10277 0.02033 0.06754 0.0
O257 O 0.02729 0.97258 0.19822 0.0
O258 O 0.00594 0.03839 0.21663 0.0
C259 C 0.94829 0.9395 0.16955 0.0
O260 O 0.04807 0.90898 0.09012 0.0
O261 O 0.1183 0.90578 0.07083 0.0
O262 O 0.14302 0.0262 0.06729 0.0
O263 O 0.08655 0.01023 0.10464 0.0
O264 O 0.92351 0.95835 0.19651 0.0
O265 O 0.98771 0.95336 0.16958 0.0
O266 O 0.00845 0.00749 0.07727 0.0
O267 O 0.9567 0.01652 0.12166 0.0
C268 C 0.9847 0.03365 0.0976 0.0
O269 O 0.09979 0.98652 0.14552 0.0
O270 O 0.1671 0.97019 0.15851 0.0
C271 C 0.02527 0.00381 0.22682 0.0
C272 C 0.12747 0.96371 0.16642 0.0
Zn273 Zn 0.21901 0.69565 0.43466 0.0
Zn274 Zn 0.28806 0.90467 0.34142 0.0
Zn275 Zn 0.27928 0.78798 0.37501 0.0
C276 C 0.36078 0.8272 0.32517 0.0
C277 C 0.22941 0.85245 0.31554 0.0
O278 O 0.27204 0.77505 0.44934 0.0
O279 O 0.20615 0.7529 0.46753 0.0
C280 C 0.30059 0.69566 0.41475 0.0
O281 O 0.33882 0.7976 0.34417 0.0
O282 O 0.34737 0.86676 0.32317 0.0
O283 O 0.22693 0.89295 0.31318 0.0
O284 O 0.23576 0.83717 0.35386 0.0
O285 O 0.28083 0.66836 0.43845 0.0
O286 O 0.28691 0.73492 0.41755 0.0
O287 O 0.23592 0.76004 0.32935 0.0
O288 O 0.22408 0.7052 0.36947 0.0
C289 C 0.20853 0.73594 0.34788 0.0
O290 O 0.25862 0.85086 0.39585 0.0
O291 O 0.27691 0.91802 0.406 0.0
C292 C 0.24104 0.77184 0.47805 0.0
C293 C 0.28136 0.8788 0.41662 0.0
Zn294 Zn 0.54901 0.97607 0.68764 0.0
Zn295 Zn 0.34149 0.03389 0.5959 0.0
Zn296 Zn 0.46048 0.03047 0.62469 0.0
C297 C 0.41757 0.10688 0.57567 0.0
C298 C 0.39431 0.97858 0.56803 0.0
O299 O 0.47124 0.02501 0.69895 0.0
O300 O 0.49158 0.95911 0.71762 0.0
C301 C 0.55072 0.05687 0.6696 0.0
O302 O 0.44957 0.08722 0.59294 0.0
O303 O 0.37872 0.09162 0.57535 0.0
O304 O 0.35392 0.97339 0.56748 0.0
O305 O 0.41074 0.98718 0.60547 0.0
O306 O 0.57518 0.03822 0.69697 0.0
O307 O 0.51115 0.04339 0.66977 0.0
O308 O 0.48689 0.986 0.57932 0.0
O309 O 0.54031 0.97936 0.62216 0.0
C310 C 0.5123 0.9609 0.59898 0.0
O311 O 0.39792 0.01126 0.64711 0.0
O312 O 0.33087 0.02765 0.66116 0.0
C313 C 0.47297 0.9941 0.72773 0.0
C314 C 0.37065 0.03422 0.66836 0.0
Zn315 Zn 0.21082 0.09729 0.84441 0.0
Zn316 Zn 0.27215 0.31244 0.93116 0.0
Zn317 Zn 0.2185 0.21626 0.87402 0.0
C318 C 0.28876 0.26646 0.84655 0.0
C319 C 0.19084 0.30965 0.91137 0.0
O320 O 0.23902 0.15426 0.89782 0.0
O321 O 0.22237 0.08695 0.90954 0.0
C322 C 0.26854 0.14903 0.81723 0.0
O323 O 0.26235 0.24174 0.82752 0.0
O324 O 0.27163 0.29708 0.86721 0.0
O325 O 0.20883 0.33692 0.93658 0.0
O326 O 0.20554 0.27064 0.91496 0.0
O327 O 0.27182 0.10851 0.81651 0.0
O328 O 0.26175 0.16596 0.85482 0.0
O329 O 0.16054 0.20422 0.8434 0.0
O330 O 0.15171 0.13459 0.8242 0.0
C331 C 0.13865 0.17432 0.825 0.0
O332 O 0.22503 0.22964 0.94824 0.0
O333 O 0.28781 0.25933 0.96809 0.0
C334 C 0.21644 0.12634 0.91875 0.0
C335 C 0.25555 0.23555 0.9771 0.0
Zn336 Zn 0.33035 0.94857 0.9746 0.0
Zn337 Zn 0.40649 0.16301 0.06691 0.0
Zn338 Zn 0.3721 0.03988 0.04465 0.0
C339 C 0.42793 0.07352 0.12466 0.0
C340 C 0.40686 0.12126 0.99141 0.0
O341 O 0.29987 0.02197 0.02881 0.0
O342 O 0.28542 0.99666 0.96255 0.0
C343 C 0.33669 0.94367 0.05663 0.0
O344 O 0.40259 0.0465 0.10539 0.0
O345 O 0.43296 0.11305 0.11176 0.0
O346 O 0.40544 0.16142 0.99868 0.0
O347 O 0.37781 0.09877 0.01073 0.0
O348 O 0.31855 0.91613 0.03189 0.0
O349 O 0.33175 0.98384 0.04616 0.0
O350 O 0.42493 0.02502 0.00338 0.0
O351 O 0.39439 0.9662 0.9861 0.0
C352 C 0.41397 -0.00028 0.97325 0.0
O353 O 0.35535 0.10559 0.05797 0.0
O354 O 0.34233 0.17257 0.07584 0.0
C355 C 0.27345 0.01782 0.99573 0.0
C356 C 0.3282 0.13458 0.06991 0.0
Zn357 Zn 0.82626 0.5701 0.01613 0.0
Zn358 Zn 0.8995 0.34869 0.96129 0.0
Zn359 Zn 0.87487 0.46787 0.96574 0.0
C360 C 0.92242 0.4232 0.88637 0.0
C361 C 0.92847 0.40057 0.01665 0.0
O362 O 0.80188 0.48124 0.97684 0.0
O363 O 0.78294 0.52339 0.03298 0.0
C364 C 0.84071 0.56001 0.93502 0.0
O365 O 0.9049 0.45435 0.90723 0.0
O366 O 0.9212 0.38384 0.90065 0.0
O367 O 0.92637 0.36061 0.02276 0.0
O368 O 0.89199 0.41971 0.01119 0.0
O369 O 0.81778 0.58977 0.95182 0.0
O370 O 0.83521 0.52226 0.95205 0.0
O371 O 0.92321 0.49025 0.00899 0.0
O372 O 0.88896 0.54877 0.01662 0.0
C373 C 0.90776 0.51761 0.03489 0.0
O374 O 0.84769 0.40765 0.98795 0.0
O375 O 0.83462 0.33976 0.97487 0.0
C376 C 0.77455 0.49236 0.00722 0.0
C377 C 0.82712 0.37889 0.96602 0.0
Zn378 Zn 0.90343 0.65342 0.2009 0.0
Zn379 Zn 0.68946 0.57096 0.27537 0.0
Zn380 Zn 0.78577 0.61929 0.21347 0.0
C381 C 0.73887 0.65229 0.28899 0.0
C382 C 0.68863 0.58683 0.19561 0.0
O383 O 0.84864 0.59703 0.2322 0.0
O384 O 0.91611 0.58933 0.21503 0.0
C385 C 0.85382 0.67882 0.25979 0.0
O386 O 0.76943 0.66261 0.26404 0.0
O387 O 0.70634 0.63554 0.27087 0.0
O388 O 0.65995 0.56522 0.21576 0.0
O389 O 0.72799 0.58202 0.20876 0.0
O390 O 0.89438 0.67962 0.26224 0.0
O391 O 0.83597 0.64118 0.25689 0.0
O392 O 0.79301 0.65112 0.15383 0.0
O393 O 0.86192 0.6729 0.14422 0.0
C394 C 0.82194 0.67116 0.13176 0.0
O395 O 0.7707 0.54644 0.2214 0.0
O396 O 0.74011 0.52799 0.28447 0.0
C397 C 0.87747 0.57679 0.21039 0.0
C398 C 0.76384 0.5183 0.25227 0.0
Zn399 Zn 0.66836 0.4385 0.52473 0.0
Zn400 Zn 0.59586 0.65323 0.45757 0.0
Zn401 Zn 0.62685 0.53501 0.46431 0.0
C402 C 0.581 0.5762 0.38342 0.0
C403 C 0.56958 0.60121 0.5131 0.0
O404 O 0.69807 0.51741 0.47731 0.0
O405 O 0.70975 0.4883 0.54221 0.0
C406 C 0.66264 0.44055 0.44179 0.0
O407 O 0.60088 0.54679 0.40447 0.0
O408 O 0.57727 0.61527 0.398 0.0
O409 O 0.56871 0.64132 0.51883 0.0
O410 O 0.60737 0.58476 0.50731 0.0
O411 O 0.68381 0.41274 0.46343 0.0
O412 O 0.66681 0.47971 0.45588 0.0
O413 O 0.57424 0.50784 0.49828 0.0
O414 O 0.60185 0.45037 0.52313 0.0
C415 C 0.58252 0.48531 0.53133 0.0
O416 O 0.64972 0.59731 0.48594 0.0
O417 O 0.66043 0.6648 0.46985 0.0
C418 C 0.72293 0.51166 0.51107 0.0
C419 C 0.67167 0.62582 0.46505 0.0
Zn420 Zn 0.30593 0.91311 0.26547 0.0
Zn421 Zn 0.08427 0.84326 0.18351 0.0
Zn422 Zn 0.20932 0.87657 0.20621 0.0
C423 C 0.17201 0.82118 0.12658 0.0
C424 C 0.12865 0.84232 0.25698 0.0
O425 O 0.23087 0.94795 0.2189 0.0
O426 O 0.26237 0.96022 0.28277 0.0
C427 C 0.30329 0.90624 0.18278 0.0
O428 O 0.19895 0.84548 0.14703 0.0
O429 O 0.13237 0.81574 0.1386 0.0
O430 O 0.0884 0.84539 0.25155 0.0
O431 O 0.15102 0.87355 0.2411 0.0
O432 O 0.332 0.92668 0.20405 0.0
O433 O 0.26411 0.91519 0.19421 0.0
O434 O 0.22675 0.82456 0.24674 0.0
O435 O 0.28772 0.84776 0.26888 0.0
C436 C 0.25109 0.8325 0.27868 0.0
O437 O 0.14391 0.89246 0.19059 0.0
O438 O 0.07745 0.90653 0.17121 0.0
C439 C 0.23869 0.97344 0.25191 0.0
C440 C 0.11567 0.9199 0.17766 0.0
Zn441 Zn 0.16748 0.05025 0.47551 0.0
Zn442 Zn 0.09161 0.83505 0.57179 0.0
Zn443 Zn 0.12599 0.95811 0.54496 0.0
C444 C 0.07087 0.92591 0.62685 0.0
C445 C 0.08886 0.87545 0.4956 0.0
O446 O 0.19856 0.97599 0.52767 0.0
O447 O 0.21234 0.00262 0.4618 0.0
C448 C 0.16243 0.05339 0.55764 0.0
O449 O 0.09567 0.95252 0.60632 0.0
O450 O 0.06588 0.88597 0.61533 0.0
O451 O 0.08817 0.83556 0.5042 0.0
O452 O 0.11887 0.89741 0.51417 0.0
O453 O 0.18101 0.08099 0.53339 0.0
O454 O 0.16712 0.01328 0.54676 0.0
O455 O 0.07312 0.97385 0.50371 0.0
O456 O 0.10308 0.03295 0.48645 0.0
C457 C 0.0836 -0.00069 0.4736 0.0
O458 O 0.14212 0.89246 0.55974 0.0
O459 O 0.15603 0.82618 0.57931 0.0
C460 C 0.22503 0.98174 0.49482 0.0
C461 C 0.1697 0.86411 0.57226 0.0
Zn462 Zn 0.90427 0.34128 0.29693 0.0
Zn463 Zn 0.69497 0.4184 0.21575 0.0
Zn464 Zn 0.78632 0.37135 0.2865 0.0
C465 C 0.7429 0.33343 0.21569 0.0
C466 C 0.68812 0.40502 0.29718 0.0
O467 O 0.84849 0.39408 0.26466 0.0
O468 O 0.91556 0.40577 0.2823 0.0
C469 C 0.85463 0.31272 0.24042 0.0
O470 O 0.76523 0.31976 0.24672 0.0
O471 O 0.71047 0.35459 0.22763 0.0
O472 O 0.66122 0.42522 0.27344 0.0
O473 O 0.72847 0.40964 0.28719 0.0
O474 O 0.895 0.31197 0.23646 0.0
O475 O 0.83748 0.35039 0.24474 0.0
O476 O 0.79485 0.34299 0.34734 0.0
O477 O 0.86426 0.32206 0.35492 0.0
C478 C 0.82468 0.32356 0.3686 0.0
O479 O 0.76953 0.44375 0.27465 0.0
O480 O 0.74605 0.46066 0.20824 0.0
C481 C 0.87625 0.41633 0.28614 0.0
C482 C 0.76564 0.47146 0.24282 0.0
Zn483 Zn 0.80866 0.58114 0.71984 0.0
Zn484 Zn 0.59512 0.6589 0.7975 0.0
Zn485 Zn 0.71245 0.62658 0.78684 0.0
C486 C 0.67458 0.67321 0.87015 0.0
C487 C 0.64609 0.68686 0.74136 0.0
O488 O 0.72619 0.55404 0.77144 0.0
O489 O 0.75909 0.53678 0.70893 0.0
C490 C 0.80784 0.59063 0.80183 0.0
O491 O 0.70382 0.65325 0.84857 0.0
O492 O 0.63517 0.67635 0.85624 0.0
O493 O 0.60574 0.68853 0.73744 0.0
O494 O 0.6622 0.64874 0.74523 0.0
O495 O 0.83672 0.57135 0.77973 0.0
O496 O 0.76859 0.58699 0.78797 0.0
O497 O 0.73901 0.67908 0.752 0.0
O498 O 0.79494 0.64648 0.73059 0.0
C499 C 0.76117 0.66674 0.72011 0.0
O500 O 0.64987 0.60526 0.76401 0.0
O501 O 0.58244 0.59501 0.78118 0.0
C502 C 0.73384 0.52666 0.73993 0.0
C503 C 0.62145 0.58339 0.78502 0.0
Zn504 Zn 0.9528 0.59596 0.84021 0.0
Zn505 Zn 0.02962 0.67209 0.05271 0.0
Zn506 Zn 0.96596 0.62322 0.9601 0.0
C507 C 0.03258 0.5841 0.00864 0.0
C508 C 0.94687 0.66592 0.05356 0.0
O509 O 0.98449 0.64956 0.89861 0.0
O510 O 0.96639 0.66114 0.83191 0.0
C511 C 0.01231 0.56954 0.88858 0.0
O512 O 0.00165 0.57083 0.98566 0.0
O513 O 0.02085 0.60658 0.04068 0.0
O514 O 0.96963 0.68875 0.0793 0.0
O515 O 0.95938 0.66657 0.01369 0.0
O516 O 0.01396 0.56901 0.84787 0.0
O517 O 0.00574 0.60667 0.90629 0.0
O518 O 0.90683 0.59344 0.95055 0.0
O519 O 0.89652 0.5742 0.88097 0.0
C520 C 0.88449 0.57462 0.92115 0.0
O521 O 0.97845 0.69614 0.97524 0.0
O522 O 0.04461 0.71057 1.00012 0.0
C523 C 0.96043 0.66984 0.87143 0.0
C524 C 0.01125 0.72273 0.97956 0.0
Zn525 Zn 0.15559 0.2065 0.59586 0.0
Zn526 Zn 0.08042 0.26961 0.81434 0.0
Zn527 Zn 0.13245 0.21461 0.7165 0.0
C528 C 0.16454 0.28397 0.76391 0.0
C529 C 0.09537 0.18765 0.80884 0.0
O530 O 0.10245 0.23472 0.65735 0.0
O531 O 0.0902 0.21934 0.5901 0.0
C532 C 0.18345 0.26404 0.64562 0.0
O533 O 0.18175 0.25568 0.74024 0.0
O534 O 0.14454 0.26878 0.79607 0.0
O535 O 0.07202 0.20624 0.83723 0.0
O536 O 0.0911 0.20279 0.77013 0.0
O537 O 0.18163 0.26825 0.6052 0.0
O538 O 0.14721 0.25696 0.66475 0.0
O539 O 0.16289 0.15669 0.70331 0.0
O540 O 0.17926 0.14828 0.63291 0.0
C541 C 0.18066 0.13525 0.67275 0.0
O542 O 0.05868 0.22667 0.72554 0.0
O543 O 0.03633 0.28248 0.76669 0.0
C544 C 0.08306 0.21075 0.62937 0.0
C545 C 0.02946 0.25525 0.73648 0.0
Zn546 Zn 0.477 0.32975 0.56003 0.0
Zn547 Zn 0.55285 0.40357 0.34484 0.0
Zn548 Zn 0.5373 0.37818 0.46547 0.0
C549 C 0.62014 0.42457 0.42593 0.0
C550 C 0.49411 0.43239 0.39313 0.0
O551 O 0.52709 0.3058 0.48018 0.0
O552 O 0.46324 0.2892 0.50948 0.0
C553 C 0.55979 0.33913 0.56027 0.0
O554 O 0.59625 0.40715 0.45473 0.0
O555 O 0.60972 0.42427 0.38532 0.0
O556 O 0.4924 0.43189 0.35241 0.0
O557 O 0.49659 0.39535 0.412 0.0
O558 O 0.53833 0.31558 0.58637 0.0
O559 O 0.54674 0.33679 0.52052 0.0
O560 O 0.49655 0.42841 0.48718 0.0
O561 O 0.47936 0.39468 0.54408 0.0
C562 C 0.46645 0.41456 0.51082 0.0
O563 O 0.51711 0.35096 0.40541 0.0
O564 O 0.53483 0.33938 0.33878 0.0
C565 C 0.49445 0.27932 0.48465 0.0
C566 C 0.53985 0.32954 0.37815 0.0
Zn567 Zn 0.34264 0.7887 0.09707 0.0
Zn568 Zn 0.42354 0.73308 0.31542 0.0
Zn569 Zn 0.36582 0.78328 0.21799 0.0
C570 C 0.33994 0.71372 0.26846 0.0
C571 C 0.40415 0.81408 0.30852 0.0
O572 O 0.39554 0.76368 0.15863 0.0
O573 O 0.40827 0.77822 0.09129 0.0
C574 C 0.31528 0.73178 0.14848 0.0
O575 O 0.31971 0.73947 0.24411 0.0
O576 O 0.36002 0.73147 0.29922 0.0
O577 O 0.42912 0.79742 0.33672 0.0
O578 O 0.40816 0.79809 0.27008 0.0
O579 O 0.31701 0.72691 0.10811 0.0
O580 O 0.35156 0.73977 0.16727 0.0
O581 O 0.33386 0.84025 0.20294 0.0
O582 O 0.31859 0.84774 0.13222 0.0
C583 C 0.31643 0.86125 0.17187 0.0
O584 O 0.44013 0.77487 0.22703 0.0
O585 O 0.46161 0.71639 0.26395 0.0
C586 C 0.41468 0.78765 0.13055 0.0
C587 C 0.46862 0.74461 0.23492 0.0
Zn588 Zn 0.96892 0.40074 0.64944 0.0
Zn589 Zn 0.02655 0.31834 0.44016 0.0
Zn590 Zn 0.97016 0.37824 0.5307 0.0
C591 C 0.0376 0.40636 0.47856 0.0
C592 C 0.94392 0.33234 0.44241 0.0
O593 O 0.99322 0.35249 0.59016 0.0
O594 O 0.98189 0.33556 0.65735 0.0
C595 C 0.02174 0.4331 0.59817 0.0
O596 O 0.01053 0.4258 0.50212 0.0
O597 O 0.02139 0.38324 0.44908 0.0
O598 O 0.96363 0.30706 0.41653 0.0
O599 O 0.95844 0.332 0.48151 0.0
O600 O 0.0285 0.43195 0.63833 0.0
O601 O 0.0141 0.39626 0.58022 0.0
O602 O 0.91232 0.40927 0.54351 0.0
O603 O 0.90811 0.42228 0.61515 0.0
C604 C 0.89279 0.42557 0.57623 0.0
O605 O 0.97884 0.30405 0.52059 0.0
O606 O 0.04483 0.28885 0.4974 0.0
C607 C 0.97234 0.32979 0.61797 0.0
C608 C 0.01158 0.27743 0.51836 0.0
Zn609 Zn 0.41881 0.26228 0.18686 0.0
Zn610 Zn 0.34799 0.19895 0.40483 0.0
Zn611 Zn 0.36928 0.20718 0.28395 0.0
C612 C 0.32147 0.12768 0.32831 0.0
C613 C 0.31984 0.2559 0.35395 0.0
O614 O 0.44187 0.2137 0.27026 0.0
O615 O 0.46086 0.27474 0.23664 0.0
C616 C 0.40537 0.18044 0.19065 0.0
O617 O 0.33805 0.1498 0.29765 0.0
O618 O 0.3246 0.13985 0.36834 0.0
O619 O 0.32148 0.26015 0.39439 0.0
O620 O 0.3563 0.25165 0.33452 0.0
O621 O 0.4289 0.19957 0.16281 0.0
O622 O 0.40968 0.19471 0.22968 0.0
O623 O 0.3199 0.2459 0.25794 0.0
O624 O 0.35329 0.26433 0.20103 0.0
C625 C 0.33429 0.2764 0.23509 0.0
O626 O 0.40082 0.23076 0.34149 0.0
O627 O 0.41252 0.21684 0.40899 0.0
C628 C 0.4686 0.24586 0.26491 0.0
C629 C 0.41995 0.20739 0.37 0.0
Zn630 Zn 0.5347 0.59558 0.14947 0.0
Zn631 Zn 0.47193 0.68033 0.94272 0.0
Zn632 Zn 0.5306 0.61916 0.03118 0.0
C633 C 0.46117 0.59239 0.98002 0.0
C634 C 0.55526 0.66624 0.9431 0.0
O635 O 0.50931 0.64472 0.09138 0.0
O636 O 0.52233 0.66073 0.15852 0.0
C637 C 0.47989 0.56455 0.09931 0.0
O638 O 0.48846 0.57271 0.00319 0.0
O639 O 0.477 0.61544 0.95034 0.0
O640 O 0.53467 0.69173 0.91813 0.0
O641 O 0.54171 0.666 0.98249 0.0
O642 O 0.47416 0.56572 0.1396 0.0
O643 O 0.48738 0.60134 0.08133 0.0
O644 O 0.58864 0.58756 0.04204 0.0
O645 O 0.5946 0.57385 0.1134 0.0
C646 C 0.60901 0.57097 0.07408 0.0
O647 O 0.52235 0.69315 0.02192 0.0
O648 O 0.45527 0.7073 0.00184 0.0
C649 C 0.53109 0.66685 0.11904 0.0
C650 C 0.48924 0.71932 0.02127 0.0
Zn651 Zn 0.15043 0.79978 0.90519 0.0
Zn652 Zn 0.07972 0.73419 0.6853 0.0
Zn653 Zn 0.12723 0.79 0.78447 0.0
C654 C 0.16278 0.72188 0.73648 0.0
C655 C 0.0928 0.81643 0.69157 0.0
O656 O 0.09726 0.76706 0.8425 0.0
O657 O 0.08599 0.78179 0.90984 0.0
C658 C 0.17935 0.74295 0.85495 0.0
O659 O 0.17747 0.75188 0.75984 0.0
O660 O 0.14407 0.73451 0.70255 0.0
O661 O 0.07036 0.79755 0.66254 0.0
O662 O 0.0873 0.80138 0.73012 0.0
O663 O 0.17805 0.73902 0.89544 0.0
O664 O 0.14267 0.74676 0.83569 0.0
O665 O 0.1578 0.84844 0.79723 0.0
O666 O 0.17283 0.85842 0.86776 0.0
C667 C 0.17497 0.87063 0.8277 0.0
O668 O 0.05401 0.7793 0.76951 0.0
O669 O 0.03648 0.71901 0.73315 0.0
C670 C 0.07811 0.79063 0.87082 0.0
C671 C 0.02676 0.74802 0.76066 0.0
Zn672 Zn 0.84151 0.97316 0.60157 0.0
Zn673 Zn 0.05442 0.0227 0.68715 0.0
Zn674 Zn 0.96175 0.96984 0.62601 0.0
C675 C 0.01574 0.0377 0.59927 0.0
C676 C 0.05184 0.94164 0.66837 0.0
O677 O 0.90128 0.9936 0.65025 0.0
O678 O 0.83377 0.98218 0.66706 0.0
C679 C 0.89724 0.02233 0.56881 0.0
O680 O 0.99055 0.01191 0.57994 0.0
O681 O 0.04461 0.02004 0.62189 0.0
O682 O 0.07822 0.95955 0.69457 0.0
O683 O 0.01293 0.95656 0.66992 0.0
O684 O 0.85723 0.03017 0.56829 0.0
O685 O 0.91351 0.01427 0.60638 0.0
O686 O 0.94766 0.91325 0.59462 0.0
O687 O 0.87612 0.91497 0.58037 0.0
C688 C 0.91333 0.89661 0.57841 0.0
O689 O 0.97244 0.9758 0.69971 0.0
O690 O 0.99861 0.03963 0.71992 0.0
C691 C 0.87312 0.97218 0.6721 0.0
C692 C 0.97594 0.00649 0.72854 0.0
Zn693 Zn 0.73056 0.30645 0.42961 0.0
Zn694 Zn 0.79135 0.09149 0.34417 0.0
Zn695 Zn 0.78321 0.21116 0.37274 0.0
C696 C 0.86315 0.16864 0.32441 0.0
C697 C 0.73332 0.1427 0.3169 0.0
O698 O 0.7775 0.22458 0.44658 0.0
O699 O 0.71522 0.25404 0.4676 0.0
C700 C 0.81156 0.30481 0.41124 0.0
O701 O 0.84112 0.19828 0.34282 0.0
O702 O 0.85015 0.12887 0.32335 0.0
O703 O 0.73004 0.10216 0.31701 0.0
O704 O 0.74012 0.16044 0.35413 0.0
O705 O 0.79354 0.33145 0.43696 0.0
O706 O 0.79694 0.26563 0.41398 0.0
O707 O 0.73745 0.23466 0.3264 0.0
O708 O 0.73018 0.29071 0.36528 0.0
C709 C 0.71179 0.2605 0.34477 0.0
O710 O 0.76355 0.14904 0.39684 0.0
O711 O 0.78067 0.08204 0.40943 0.0
C712 C 0.7475 0.23015 0.47586 0.0
C713 C 0.78597 0.1216 0.41843 0.0
Zn714 Zn 0.44403 0.97767 0.1864 0.0
Zn715 Zn 0.65845 0.02173 0.10567 0.0
Zn716 Zn 0.53784 0.02817 0.12542 0.0
C717 C 0.58933 0.09827 0.0748 0.0
C718 C 0.60274 0.97118 0.07417 0.0
O719 O 0.52601 0.02474 0.1989 0.0
O720 O 0.49998 0.96086 0.21894 0.0
C721 C 0.44729 0.05887 0.16646 0.0
O722 O 0.5545 0.0827 0.09097 0.0
O723 O 0.62654 0.08031 0.07968 0.0
O724 O 0.64268 0.96298 0.07543 0.0
O725 O 0.5854 0.98128 0.11071 0.0
O726 O 0.42103 0.04137 0.193 0.0
O727 O 0.48614 0.04381 0.16816 0.0
O728 O 0.50824 0.98625 0.07976 0.0
O729 O 0.45369 0.97911 0.12121 0.0
C730 C 0.48267 0.96097 0.09914 0.0
O731 O 0.59667 0.00419 0.15325 0.0
O732 O 0.66396 0.01476 0.1717 0.0
C733 C 0.52274 0.99396 0.22758 0.0
C734 C 0.62486 0.02633 0.17444 0.0
Zn735 Zn 0.71039 0.90591 0.84591 0.0
Zn736 Zn 0.77045 0.69056 0.93026 0.0
Zn737 Zn 0.71545 0.78598 0.87492 0.0
C738 C 0.78447 0.73565 0.84446 0.0
C739 C 0.68847 0.69168 0.91284 0.0
O740 O 0.73737 0.84766 0.89837 0.0
O741 O 0.7212 0.91484 0.91119 0.0
C742 C 0.76662 0.85344 0.81801 0.0
O743 O 0.75739 0.7605 0.82678 0.0
O744 O 0.76813 0.70521 0.86608 0.0
O745 O 0.70747 0.66512 0.93792 0.0
O746 O 0.70267 0.73103 0.91579 0.0
O747 O 0.77114 0.89388 0.81813 0.0
O748 O 0.75919 0.836 0.85526 0.0
O749 O 0.65758 0.80003 0.84573 0.0
O750 O 0.65099 0.86958 0.82552 0.0
C751 C 0.6367 0.83028 0.82705 0.0
O752 O 0.72247 0.77032 0.9485 0.0
O753 O 0.78722 0.74454 0.96587 0.0
C754 C 0.71565 0.87538 0.92036 0.0
C755 C 0.75368 0.76541 0.97674 0.0
Zn756 Zn 0.84292 0.03375 0.90685 0.0
Zn757 Zn 0.05006 0.97725 0.81413 0.0
Zn758 Zn 0.96137 0.03142 0.87849 0.0
C759 C 0.0141 0.96326 0.90339 0.0
C760 C 0.05042 0.05877 0.83189 0.0
O761 O 0.89907 0.01135 0.85544 0.0
O762 O 0.83189 0.02738 0.84142 0.0
C763 C 0.8954 0.97805 0.93367 0.0
O764 O 0.99004 0.98893 0.92399 0.0
O765 O 0.04189 0.98104 0.87951 0.0
O766 O 0.07506 0.03983 0.80485 0.0
O767 O 0.01111 0.04467 0.83238 0.0
O768 O 0.85505 0.97258 0.93409 0.0
O769 O 0.91171 0.98745 0.89643 0.0
O770 O 0.95048 0.08795 0.91178 0.0
O771 O 0.87973 0.09217 0.92887 0.0
C772 C 0.9188 0.10707 0.93027 0.0
O773 O 0.97177 0.02626 0.80404 0.0
O774 O 0.9922 0.96039 0.78505 0.0
C775 C 0.87161 0.03423 0.8343 0.0
C776 C 0.97347 0.99537 0.77517 0.0
Zn777 Zn 0.71164 0.09391 0.65859 0.0
Zn778 Zn 0.78079 0.30317 0.56606 0.0
Zn779 Zn 0.72003 0.21071 0.62535 0.0
C780 C 0.79057 0.26289 0.65288 0.0
C781 C 0.69897 0.30322 0.58566 0.0
O782 O 0.74076 0.14788 0.60424 0.0
O783 O 0.72303 0.08057 0.59401 0.0
C784 C 0.77004 0.14619 0.68459 0.0
O785 O 0.76285 0.23904 0.67127 0.0
O786 O 0.77544 0.29382 0.63126 0.0
O787 O 0.71897 0.33051 0.56216 0.0
O788 O 0.71264 0.26394 0.58296 0.0
O789 O 0.7727 0.1057 0.68692 0.0
O790 O 0.76349 0.16147 0.64631 0.0
O791 O 0.66052 0.20089 0.65581 0.0
O792 O 0.65216 0.13171 0.67675 0.0
C793 C 0.6386 0.17122 0.67469 0.0
O794 O 0.72732 0.2237 0.55124 0.0
O795 O 0.79328 0.24581 0.53317 0.0
C796 C 0.71817 0.11977 0.5835 0.0
C797 C 0.7584 0.22686 0.52262 0.0
Zn798 Zn 0.44971 0.02219 0.31417 0.0
Zn799 Zn 0.65917 0.96674 0.40339 0.0
Zn800 Zn 0.53904 0.96824 0.37622 0.0
C801 C 0.58439 0.89246 0.42253 0.0
C802 C 0.60496 0.02029 0.43302 0.0
O803 O 0.52749 0.97358 0.30261 0.0
O804 O 0.50717 0.03964 0.2847 0.0
C805 C 0.4485 0.94141 0.33192 0.0
O806 O 0.55128 0.9114 0.40663 0.0
O807 O 0.62241 0.9094 0.42317 0.0
O808 O 0.64533 0.02596 0.43365 0.0
O809 O 0.58861 0.01178 0.39553 0.0
O810 O 0.42389 0.95995 0.3046 0.0
O811 O 0.48794 0.95519 0.33177 0.0
O812 O 0.51213 0.0121 0.42189 0.0
O813 O 0.45825 0.01911 0.37959 0.0
C814 C 0.48668 0.03734 0.40243 0.0
O815 O 0.60114 0.9883 0.35349 0.0
O816 O 0.66817 0.97294 0.33807 0.0
C817 C 0.5257 0.00474 0.27422 0.0
C818 C 0.62835 0.96552 0.33195 0.0
Zn819 Zn 0.72599 0.68688 0.0695 0.0
Zn820 Zn 0.78782 0.90144 0.15662 0.0
Zn821 Zn 0.78104 0.78265 0.12651 0.0
C822 C 0.86064 0.82479 0.17539 0.0
C823 C 0.73041 0.84929 0.18347 0.0
O824 O 0.77448 0.76893 0.05251 0.0
O825 O 0.71089 0.74075 0.03324 0.0
C826 C 0.80766 0.68909 0.08899 0.0
O827 O 0.83905 0.79482 0.15676 0.0
O828 O 0.84716 0.86437 0.17661 0.0
O829 O 0.72676 0.88978 0.1844 0.0
O830 O 0.73764 0.83269 0.14583 0.0
O831 O 0.7892 0.66199 0.06394 0.0
O832 O 0.79331 0.72823 0.08555 0.0
O833 O 0.73813 0.75618 0.17328 0.0
O834 O 0.72703 0.70097 0.13374 0.0
C835 C 0.71093 0.73204 0.15458 0.0
O836 O 0.76044 0.84485 0.1031 0.0
O837 O 0.77671 0.9123 0.09153 0.0
C838 C 0.74368 0.76365 0.02386 0.0
C839 C 0.78279 0.87297 0.08215 0.0
Zn840 Zn 0.67131 0.04147 0.03369 0.0
Zn841 Zn 0.59342 0.83508 0.93019 0.0
Zn842 Zn 0.62636 0.95776 0.95705 0.0
C843 C 0.57138 0.92677 0.87614 0.0
C844 C 0.58408 0.87435 0.0035 0.0
O845 O 0.69895 0.97645 0.9712 0.0
O846 O 0.7133 0.99079 0.04052 0.0
C847 C 0.65961 0.05668 0.95367 0.0
O848 O 0.59512 0.95416 0.89687 0.0
O849 O 0.56823 0.88649 0.88704 0.0
O850 O 0.58473 0.83421 0.99658 0.0
O851 O 0.61529 0.8965 0.98714 0.0
O852 O 0.6796 0.0812 0.98014 0.0
O853 O 0.66501 0.01552 0.95934 0.0
O854 O 0.57743 0.9668 0.00407 0.0
O855 O 0.60782 0.02511 0.02155 0.0
C856 C 0.58786 0.99205 0.03424 0.0
O857 O 0.64468 0.89251 0.94478 0.0
O858 O 0.65814 0.82603 0.92589 0.0
C859 C 0.72588 0.97668 0.00414 0.0
C860 C 0.67217 0.86382 0.93299 0.0
Zn861 Zn 0.09931 0.65038 0.03934 0.0
Zn862 Zn 0.17268 0.42871 0.98457 0.0
Zn863 Zn 0.12367 0.53126 0.03427 0.0
C864 C 0.09125 0.48122 0.96528 0.0
C865 C 0.15842 0.4397 0.06573 0.0
O866 O 0.15099 0.59148 0.01225 0.0
O867 O 0.16417 0.65928 0.02551 0.0
C868 C 0.07011 0.59881 0.98404 0.0
O869 O 0.07555 0.50867 0.99092 0.0
O870 O 0.1101 0.45025 0.98385 0.0
O871 O 0.18129 0.40979 0.04912 0.0
O872 O 0.16377 0.4773 0.04834 0.0
O873 O 0.07175 0.63885 0.97812 0.0
O874 O 0.10675 0.57994 0.9893 0.0
O875 O 0.0937 0.54461 0.0929 0.0
O876 O 0.07775 0.61515 0.09993 0.0
C877 C 0.07638 0.57572 0.11399 0.0
O878 O 0.19661 0.51832 0.02285 0.0
O879 O 0.21593 0.47528 0.96746 0.0
C880 C 0.17166 0.62013 0.03423 0.0
C881 C 0.224 0.50686 0.99266 0.0
Zn882 Zn 0.09544 0.34556 0.79928 0.0
Zn883 Zn 0.30913 0.42771 0.72467 0.0
Zn884 Zn 0.21309 0.37933 0.78672 0.0
C885 C 0.26023 0.34621 0.71112 0.0
C886 C 0.31001 0.41201 0.80452 0.0
O887 O 0.15036 0.40178 0.76786 0.0
O888 O 0.08287 0.40961 0.78486 0.0
C889 C 0.14516 0.31994 0.74044 0.0
O890 O 0.22945 0.33622 0.73594 0.0
O891 O 0.29271 0.36301 0.7293 0.0
O892 O 0.33878 0.43336 0.78421 0.0
O893 O 0.2707 0.41671 0.79125 0.0
O894 O 0.10459 0.3191 0.73807 0.0
O895 O 0.16299 0.3576 0.74314 0.0
O896 O 0.20585 0.34729 0.84636 0.0
O897 O 0.13676 0.32613 0.8561 0.0
C898 C 0.17678 0.3275 0.86848 0.0
O899 O 0.22819 0.45215 0.779 0.0
O900 O 0.2581 0.47037 0.71559 0.0
C901 C 0.12154 0.42198 0.78971 0.0
C902 C 0.23476 0.48021 0.74801 0.0
Zn903 Zn 0.33086 0.56014 0.47591 0.0
Zn904 Zn 0.40309 0.3451 0.54278 0.0
Zn905 Zn 0.37232 0.46326 0.53567 0.0
C906 C 0.41809 0.42226 0.61674 0.0
C907 C 0.42953 0.39694 0.48717 0.0
O908 O 0.30109 0.48065 0.52244 0.0
O909 O 0.28931 0.51072 0.45793 0.0
C910 C 0.3362 0.5573 0.55887 0.0
O911 O 0.39835 0.45163 0.59552 0.0
O912 O 0.42165 0.3831 0.60236 0.0
O913 O 0.43059 0.35679 0.48162 0.0
O914 O 0.39168 0.4133 0.49285 0.0
O915 O 0.31515 0.58533 0.5374 0.0
O916 O 0.33206 0.51826 0.54448 0.0
O917 O 0.42489 0.4907 0.50195 0.0
O918 O 0.39742 0.54822 0.47702 0.0
C919 C 0.41663 0.5132 0.46888 0.0
O920 O 0.3493 0.40097 0.51405 0.0
O921 O 0.33858 0.33347 0.53009 0.0
C922 C 0.27627 0.48678 0.48871 0.0
C923 C 0.32746 0.37246 0.53506 0.0
Zn924 Zn 0.69338 0.08555 0.73469 0.0
Zn925 Zn 0.9149 0.15498 0.81779 0.0
Zn926 Zn 0.78984 0.12185 0.79441 0.0
C927 C 0.82701 0.17737 0.87414 0.0
C928 C 0.87097 0.15611 0.74414 0.0
O929 O 0.76806 0.05064 0.7816 0.0
O930 O 0.73705 0.03862 0.71743 0.0
C931 C 0.69536 0.09221 0.81727 0.0
O932 O 0.80016 0.15296 0.85367 0.0
O933 O 0.86668 0.18281 0.86224 0.0
O934 O 0.9112 0.15305 0.74978 0.0
O935 O 0.84848 0.12493 0.75997 0.0
O936 O 0.66682 0.0716 0.79594 0.0
O937 O 0.73468 0.08333 0.80618 0.0
O938 O 0.77295 0.17375 0.75348 0.0
O939 O 0.71182 0.15085 0.73139 0.0
C940 C 0.74849 0.16604 0.72158 0.0
O941 O 0.85514 0.10568 0.81047 0.0
O942 O 0.92147 0.09168 0.83029 0.0
C943 C 0.76035 0.02524 0.74849 0.0
C944 C 0.88335 0.07822 0.82347 0.0
Zn945 Zn 0.90762 0.16282 0.43103 0.0
Zn946 Zn 0.83148 0.94887 0.52901 0.0
Zn947 Zn 0.87324 0.03898 0.45609 0.0
C948 C 0.91408 0.00065 0.53001 0.0
C949 C 0.83922 0.94116 0.44762 0.0
O950 O 0.8569 0.10492 0.44292 0.0
O951 O 0.84327 0.17143 0.42376 0.0
C952 C 0.91447 0.12097 0.50391 0.0
O953 O 0.92473 0.02545 0.49947 0.0
O954 O 0.89513 0.96665 0.51762 0.0
O955 O 0.8208 0.91432 0.47282 0.0
O956 O 0.83392 0.98174 0.45664 0.0
O957 O 0.91366 0.16127 0.49808 0.0
O958 O 0.88285 0.0994 0.48754 0.0
O959 O 0.90326 0.04575 0.39471 0.0
O960 O 0.93289 0.11261 0.38688 0.0
C961 C 0.92796 0.07288 0.3747 0.0
O962 O 0.80063 0.02048 0.47268 0.0
O963 O 0.78687 0.99681 0.53973 0.0
C964 C 0.82949 0.13347 0.43057 0.0
C965 C 0.77412 0.01592 0.50571 0.0
Zn966 Zn 0.09445 0.65736 0.70324 0.0
Zn967 Zn 0.30424 0.58032 0.78434 0.0
Zn968 Zn 0.21236 0.62703 0.71374 0.0
C969 C 0.25624 0.66526 0.78411 0.0
C970 C 0.31063 0.5934 0.70288 0.0
O971 O 0.15004 0.60455 0.73547 0.0
O972 O 0.08307 0.59282 0.7174 0.0
C973 C 0.14416 0.6856 0.76002 0.0
O974 O 0.23411 0.67878 0.75286 0.0
O975 O 0.28892 0.64428 0.77247 0.0
O976 O 0.3377 0.5734 0.72658 0.0
O977 O 0.27033 0.58887 0.71317 0.0
O978 O 0.10376 0.6865 0.76381 0.0
O979 O 0.16115 0.64787 0.75555 0.0
O980 O 0.20384 0.6552 0.65284 0.0
O981 O 0.13455 0.67654 0.64535 0.0
C982 C 0.1741 0.67483 0.63164 0.0
O983 O 0.22934 0.55475 0.72569 0.0
O984 O 0.25338 0.53773 0.79189 0.0
C985 C 0.12238 0.58205 0.7141 0.0
C986 C 0.23339 0.52705 0.7575 0.0
Zn987 Zn 0.4042 0.33967 0.20286 0.0
Zn988 Zn 0.19099 0.4174 0.28151 0.0
Zn989 Zn 0.28694 0.37231 0.2137 0.0
C990 C 0.23838 0.33181 0.28053 0.0
C991 C 0.1913 0.40808 0.19942 0.0
O992 O 0.34979 0.39325 0.23596 0.0
O993 O 0.417 0.40374 0.21802 0.0
C994 C 0.35338 0.31203 0.25938 0.0
O995 O 0.26039 0.31971 0.24844 0.0
O996 O 0.20451 0.35205 0.27035 0.0
O997 O 0.16245 0.42705 0.22183 0.0
O998 O 0.23061 0.41169 0.21313 0.0
O999 O 0.39375 0.31035 0.26314 0.0
O1000 O 0.33735 0.35016 0.25523 0.0
O1001 O 0.29545 0.34595 0.15184 0.0
O1002 O 0.36392 0.32219 0.1444 0.0
C1003 C 0.32458 0.32568 0.13039 0.0
O1004 O 0.27282 0.44467 0.22917 0.0
O1005 O 0.24068 0.46177 0.29209 0.0
C1006 C 0.37795 0.41554 0.21505 0.0
C1007 C 0.26553 0.47198 0.2608 0.0
Zn1008 Zn 0.49032 0.83089 0.45261 0.0
Zn1009 Zn 0.57084 0.91468 0.66653 0.0
Zn1010 Zn 0.53349 0.85685 0.55007 0.0
C1011 C 0.61983 0.92571 0.58078 0.0
C1012 C 0.49329 0.92025 0.61363 0.0
O1013 O 0.52331 0.78825 0.53967 0.0
O1014 O 0.47226 0.77931 0.48932 0.0
C1015 C 0.57408 0.8569 0.45109 0.0
O1016 O 0.59265 0.89904 0.56251 0.0
O1017 O 0.61498 0.93865 0.6199 0.0
O1018 O 0.50681 0.90418 0.6488 0.0
O1019 O 0.48195 0.89361 0.5836 0.0
O1020 O 0.55239 0.82641 0.43374 0.0
O1021 O 0.56566 0.86956 0.48988 0.0
O1022 O 0.47093 0.88352 0.54252 0.0
O1023 O 0.47817 0.89246 0.47299 0.0
C1024 C 0.45415 0.89364 0.50607 0.0
O1025 O 0.56591 0.86264 0.60897 0.0
O1026 O 0.58264 0.85181 0.67689 0.0
C1027 C 0.49552 0.76437 0.51976 0.0
C1028 C 0.57544 0.83649 0.63947 0.0
Zn1029 Zn 0.34035 0.32304 0.91412 0.0
Zn1030 Zn 0.42923 0.22547 0.70518 0.0
Zn1031 Zn 0.38686 0.28607 0.79891 0.0
C1032 C 0.35523 0.20195 0.7552 0.0
C1033 C 0.41618 0.30615 0.6987 0.0
O1034 O 0.39535 0.31187 0.86024 0.0
O1035 O 0.40388 0.33525 0.92619 0.0
C1036 C 0.32764 0.24529 0.86309 0.0
O1037 O 0.35877 0.22258 0.79097 0.0
O1038 O 0.36414 0.2224 0.7208 0.0
O1039 O 0.4401 0.28436 0.67336 0.0
O1040 O 0.41932 0.29533 0.73888 0.0
O1041 O 0.34336 0.25791 0.89884 0.0
O1042 O 0.35468 0.23299 0.83372 0.0
O1043 O 0.34854 0.34538 0.80472 0.0
O1044 O 0.31757 0.36771 0.86699 0.0
C1045 C 0.32471 0.37209 0.82635 0.0
O1046 O 0.45823 0.27968 0.77972 0.0
O1047 O 0.46923 0.21253 0.7578 0.0
C1048 C 0.4204 0.32598 0.88976 0.0
C1049 C 0.48418 0.24697 0.77417 0.0
Zn1050 Zn 0.00799 0.17154 0.94129 0.0
Zn1051 Zn 0.92938 0.08343 0.16586 0.0
Zn1052 Zn 0.96258 0.1322 0.04801 0.0
C1053 C 0.87765 0.06771 0.0816 0.0
C1054 C 0.00567 0.07366 0.111 0.0
O1055 O 0.97288 0.20218 0.03512 0.0
O1056 O 0.02004 0.22136 0.98319 0.0
C1057 C 0.92845 0.15081 0.94686 0.0
O1058 O 0.90451 0.09268 0.06139 0.0
O1059 O 0.88294 0.05789 0.12153 0.0
O1060 O 0.99315 0.09159 0.14567 0.0
O1061 O 0.01701 0.09861 0.07953 0.0
O1062 O 0.94456 0.17574 0.9184 0.0
O1063 O 0.94386 0.15597 0.9853 0.0
O1064 O 0.02479 0.1044 0.03793 0.0
O1065 O 0.01556 0.11113 0.96866 0.0
C1066 C 0.04118 0.10524 1.00008 0.0
O1067 O 0.93237 0.13413 0.10829 0.0
O1068 O 0.91894 0.14707 0.17641 0.0
C1069 C 0.99788 0.23034 0.01677 0.0
C1070 C 0.9244 0.16139 0.13835 0.0
Zn1071 Zn 0.15436 0.67942 0.41284 0.0
Zn1072 Zn 0.06997 0.77262 0.20499 0.0
Zn1073 Zn 0.11284 0.71339 0.29907 0.0
C1074 C 0.1438 0.79783 0.2539 0.0
C1075 C 0.0836 0.69181 0.19989 0.0
O1076 O 0.09821 0.69065 0.3603 0.0
O1077 O 0.09133 0.66704 0.42627 0.0
C1078 C 0.16928 0.75738 0.36294 0.0
O1079 O 0.13962 0.77728 0.28961 0.0
O1080 O 0.13521 0.77754 0.21927 0.0
O1081 O 0.05994 0.71311 0.17391 0.0
O1082 O 0.08011 0.70343 0.23977 0.0
O1083 O 0.15224 0.7446 0.39795 0.0
O1084 O 0.14314 0.76827 0.33236 0.0
O1085 O 0.1535 0.65592 0.30144 0.0
O1086 O 0.17934 0.63503 0.3665 0.0
C1087 C 0.1765 0.63049 0.32534 0.0
O1088 O 0.04181 0.71822 0.27897 0.0
O1089 O 0.03094 0.78566 0.25839 0.0
C1090 C 0.07391 0.67649 0.39033 0.0
C1091 C 0.01593 0.7511 0.27431 0.0
Zn1092 Zn 0.57444 0.08831 0.83857 0.0
Zn1093 Zn 0.50405 0.16274 0.02343 0.0
Zn1094 Zn 0.53683 0.14254 0.94923 0.0
C1095 C 0.45118 0.10667 0.98918 0.0
C1096 C 0.58246 0.12996 0.04016 0.0
O1097 O 0.56125 0.14402 0.88762 0.0
O1098 O 0.58567 0.15148 0.82215 0.0
C1099 C 0.49543 0.07956 0.88549 0.0
O1100 O 0.47129 0.12043 0.95559 0.0
O1101 O 0.4712 0.10618 0.02488 0.0
O1102 O 0.56288 0.16405 0.05158 0.0
O1103 O 0.57526 0.11443 0.00189 0.0
O1104 O 0.5082 0.09208 0.84864 0.0
O1105 O 0.48565 0.1092 0.91293 0.0
O1106 O 0.5958 0.1011 0.95469 0.0
O1107 O 0.61523 0.06836 0.8916 0.0
C1108 C 0.62053 0.0752 0.93237 0.0
O1109 O 0.53065 0.21216 0.95867 0.0
O1110 O 0.4753 0.21838 0.0027 0.0
C1111 C 0.57567 0.16868 0.85805 0.0
C1112 C 0.50067 0.23542 0.97546 0.0
Zn1113 Zn 0.07904 0.22947 0.30773 0.0
Zn1114 Zn 0.16205 0.32028 0.08887 0.0
Zn1115 Zn 0.11512 0.28276 0.2071 0.0
C1116 C 0.17687 0.36974 0.17468 0.0
C1117 C 0.17442 0.24279 0.14159 0.0
O1118 O 0.0446 0.2746 0.22431 0.0
O1119 O 0.03266 0.21459 0.26257 0.0
C1120 C 0.09418 0.31049 0.30959 0.0
O1121 O 0.15314 0.34135 0.19412 0.0
O1122 O 0.18644 0.36623 0.13447 0.0
O1123 O 0.1572 0.25564 0.10665 0.0
O1124 O 0.14872 0.23029 0.17213 0.0
O1125 O 0.07032 0.29058 0.33646 0.0
O1126 O 0.09022 0.29709 0.27026 0.0
O1127 O 0.14377 0.22035 0.21409 0.0
O1128 O 0.14148 0.22206 0.28448 0.0
C1129 C 0.14753 0.20038 0.25009 0.0
O1130 O 0.11179 0.31292 0.14714 0.0
O1131 O 0.09764 0.3303 0.0803 0.0
C1132 C 0.01915 0.24362 0.23692 0.0
C1133 C 0.0841 0.32336 0.11842 0.0
Zn1134 Zn 0.92491 0.913 0.33498 0.0
Zn1135 Zn 0.00346 0.83165 0.54023 0.0
Zn1136 Zn 0.96337 0.85714 0.45048 0.0
C1137 C 0.04584 0.89283 0.49133 0.0
C1138 C 0.92121 0.86374 0.54553 0.0
O1139 O 0.93294 0.86072 0.39085 0.0
O1140 O 0.91349 0.84942 0.32391 0.0
C1141 C 0.00278 0.92035 0.38615 0.0
O1142 O 0.02743 0.88122 0.45606 0.0
O1143 O 0.02348 0.89282 0.52558 0.0
O1144 O 0.941 0.83032 0.5588 0.0
O1145 O 0.92902 0.87891 0.5074 0.0
O1146 O 0.98985 0.90578 0.35004 0.0
O1147 O 0.01417 0.89238 0.41475 0.0
O1148 O 0.90366 0.89836 0.44365 0.0
O1149 O 0.88224 0.93558 0.38406 0.0
C1150 C 0.87758 0.92495 0.42397 0.0
O1151 O 0.97194 0.78826 0.45971 0.0
O1152 O 0.0243 0.77802 0.5077 0.0
C1153 C 0.92151 0.83433 0.36122 0.0
C1154 C -0.00011 0.76356 0.47793 0.0
Zn1155 Zn 0.33551 0.67995 0.58854 0.0
Zn1156 Zn 0.41258 0.7567 0.77768 0.0
Zn1157 Zn 0.39241 0.71881 0.70163 0.0
C1158 C 0.35368 0.80461 0.74044 0.0
C1159 C 0.38575 0.67521 0.79422 0.0
O1160 O 0.38902 0.69238 0.64053 0.0
O1161 O 0.39867 0.66847 0.57487 0.0
C1162 C 0.3266 0.75753 0.63784 0.0
O1163 O 0.36786 0.78392 0.70729 0.0
O1164 O 0.35353 0.78521 0.77645 0.0
O1165 O 0.41867 0.69743 0.80449 0.0
O1166 O 0.36856 0.68099 0.75644 0.0
O1167 O 0.33878 0.74583 0.60048 0.0
O1168 O 0.35644 0.76821 0.66499 0.0
O1169 O 0.35304 0.65822 0.70142 0.0
O1170 O 0.31678 0.63787 0.64042 0.0
C1171 C 0.32682 0.63258 0.6805 0.0
O1172 O 0.46225 0.72569 0.71217 0.0
O1173 O 0.46515 0.78543 0.75056 0.0
C1174 C 0.41442 0.67794 0.61162 0.0
C1175 C 0.4842 0.75757 0.7275 0.0
Zn1176 Zn 0.44752 0.47273 0.83059 0.0
Zn1177 Zn 0.66058 0.56669 0.90587 0.0
Zn1178 Zn 0.53721 0.5448 0.87049 0.0
C1179 C 0.57114 0.62571 0.92294 0.0
C1180 C 0.61655 0.4953 0.91081 0.0
O1181 O 0.5177 0.52836 0.799 0.0
O1182 O 0.49787 0.46012 0.78765 0.0
C1183 C 0.44076 0.55452 0.83512 0.0
O1184 O 0.54426 0.60589 0.89802 0.0
O1185 O 0.6104 0.61269 0.9294 0.0
O1186 O 0.65701 0.49898 0.90835 0.0
O1187 O 0.59534 0.51063 0.87858 0.0
O1188 O 0.41456 0.52925 0.81574 0.0
O1189 O 0.48132 0.54577 0.83019 0.0
O1190 O 0.52037 0.50596 0.92484 0.0
O1191 O 0.4621 0.48522 0.89545 0.0
C1192 C 0.49573 0.4746 0.91606 0.0
O1193 O 0.60375 0.55638 0.85458 0.0
O1194 O 0.67103 0.57415 0.84178 0.0
C1195 C 0.51433 0.49482 0.77315 0.0
C1196 C 0.6329 0.56871 0.82771 0.0
Zn1197 Zn 0.77649 0.18762 0.07335 0.0
Zn1198 Zn 0.71926 0.40287 0.1419 0.0
Zn1199 Zn 0.71663 0.28178 0.12373 0.0
C1200 C 0.64326 0.33179 0.17074 0.0
C1201 C 0.76695 0.3492 0.17808 0.0
O1202 O 0.72664 0.26957 0.05035 0.0
O1203 O 0.78957 0.23879 0.0322 0.0
C1204 C 0.69424 0.18887 0.08415 0.0
O1205 O 0.6597 0.29735 0.15464 0.0
O1206 O 0.66058 0.36949 0.16614 0.0
O1207 O 0.77477 0.38925 0.17766 0.0
O1208 O 0.76091 0.33129 0.14095 0.0
O1209 O 0.71508 0.16206 0.06083 0.0
O1210 O 0.70767 0.22825 0.08178 0.0
O1211 O 0.7526 0.25493 0.1754 0.0
O1212 O 0.77021 0.19974 0.13924 0.0
C1213 C 0.78287 0.23171 0.16131 0.0
O1214 O 0.7429 0.33874 0.09519 0.0
O1215 O 0.73488 0.40576 0.07654 0.0
C1216 C 0.75805 0.26342 0.02268 0.0
C1217 C 0.72225 0.36707 0.073 0.0
Zn1218 Zn 0.8364 0.42947 0.40719 0.0
Zn1219 Zn 0.04873 0.52892 0.33135 0.0
Zn1220 Zn 0.95913 0.45573 0.37132 0.0
C1221 C 0.00052 0.52574 0.41671 0.0
C1222 C 0.05513 0.44701 0.33429 0.0
O1223 O 0.89279 0.44301 0.35615 0.0
O1224 O 0.82622 0.42322 0.34277 0.0
C1225 C 0.87851 0.50171 0.41453 0.0
O1226 O 0.97616 0.49428 0.42575 0.0
O1227 O 0.03406 0.51528 0.3959 0.0
O1228 O 0.08111 0.47257 0.31509 0.0
O1229 O 0.01448 0.45592 0.33015 0.0
O1230 O 0.83809 0.49655 0.41377 0.0
O1231 O 0.89923 0.48719 0.38154 0.0
O1232 O 0.95353 0.39382 0.39835 0.0
O1233 O 0.88777 0.38493 0.42997 0.0
C1234 C 0.92732 0.37306 0.42322 0.0
O1235 O 0.97767 0.47445 0.29964 0.0
O1236 O 0.99874 0.54251 0.2886 0.0
C1237 C 0.86416 0.43012 0.32892 0.0
C1238 C 0.98179 0.50807 0.27397 0.0
Zn1239 Zn 0.78967 0.59978 0.65103 0.0
Zn1240 Zn 0.72191 0.81013 0.57385 0.0
Zn1241 Zn 0.78283 0.718 0.62701 0.0
C1242 C 0.7162 0.76666 0.66241 0.0
C1243 C 0.80442 0.80897 0.58363 0.0
O1244 O 0.75957 0.65817 0.60081 0.0
O1245 O 0.77058 0.59042 0.58687 0.0
C1246 C 0.73636 0.64975 0.68364 0.0
O1247 O 0.74579 0.74386 0.67829 0.0
O1248 O 0.7297 0.79747 0.63931 0.0
O1249 O 0.78321 0.83527 0.5601 0.0
O1250 O 0.79084 0.76958 0.58251 0.0
O1251 O 0.73124 0.60944 0.6839 0.0
O1252 O 0.74056 0.66729 0.6461 0.0
O1253 O 0.84131 0.70842 0.65774 0.0
O1254 O 0.84961 0.63726 0.67108 0.0
C1255 C 0.86265 0.67703 0.6741 0.0
O1256 O 0.77126 0.72844 0.55289 0.0
O1257 O 0.70817 0.75841 0.53383 0.0
C1258 C 0.78104 0.62927 0.58011 0.0
C1259 C 0.74017 0.73436 0.52459 0.0
Zn1260 Zn 0.43126 0.51808 0.67321 0.0
Zn1261 Zn 0.64877 0.45498 0.6012 0.0
Zn1262 Zn 0.52875 0.46085 0.62452 0.0
C1263 C 0.57281 0.38139 0.57892 0.0
C1264 C 0.59789 0.5095 0.56893 0.0
O1265 O 0.51673 0.47169 0.69799 0.0
O1266 O 0.47935 0.53088 0.71733 0.0
C1267 C 0.4344 0.4359 0.66002 0.0
O1268 O 0.54197 0.40296 0.5957 0.0
O1269 O 0.61262 0.39452 0.58052 0.0
O1270 O 0.63822 0.51436 0.57026 0.0
O1271 O 0.57904 0.50439 0.60576 0.0
O1272 O 0.40644 0.45553 0.683 0.0
O1273 O 0.47344 0.45028 0.66437 0.0
O1274 O 0.50549 0.50012 0.57377 0.0
O1275 O 0.44877 0.51566 0.60864 0.0
C1276 C 0.48166 0.52945 0.58876 0.0
O1277 O 0.58734 0.48476 0.65225 0.0
O1278 O 0.65516 0.474 0.66567 0.0
C1279 C 0.50699 0.50174 0.72618 0.0
C1280 C 0.61637 0.46374 0.67317 0.0
Zn1281 Zn 0.81746 0.41238 0.842 0.0
Zn1282 Zn 0.72873 0.19982 0.92171 0.0
Zn1283 Zn 0.79581 0.29015 0.87718 0.0
C1284 C 0.72497 0.24598 0.83515 0.0
C1285 C 0.8115 0.19546 0.9157 0.0
O1286 O 0.80847 0.35687 0.89438 0.0
O1287 O 0.82491 0.42488 0.90558 0.0
C1288 C 0.74403 0.36908 0.84015 0.0
O1289 O 0.75488 0.27178 0.82497 0.0
O1290 O 0.73756 0.21336 0.85629 0.0
O1291 O 0.78746 0.17011 0.93755 0.0
O1292 O 0.80221 0.236 0.91937 0.0
O1293 O 0.74929 0.4094 0.84177 0.0
O1294 O 0.76075 0.34802 0.87176 0.0
O1295 O 0.85405 0.29485 0.84369 0.0
O1296 O 0.86242 0.36222 0.81612 0.0
C1297 C 0.8739 0.32211 0.81932 0.0
O1298 O 0.78297 0.27126 0.94907 0.0
O1299 O 0.7152 0.25128 0.96257 0.0
C1300 C 0.81862 0.38744 0.92087 0.0
C1301 C 0.75007 0.26857 0.97567 0.0
Zn1302 Zn 0.84122 0.56645 0.08801 0.0
Zn1303 Zn 0.06106 0.48224 0.17204 0.0
Zn1304 Zn 0.96386 0.54446 0.1265 0.0
C1305 C 0.00523 0.46812 0.09259 0.0
C1306 C 0.06058 0.56446 0.15831 0.0
O1307 O 0.89681 0.55316 0.14018 0.0
O1308 O 0.82912 0.56945 0.15228 0.0
C1309 C 0.88912 0.49926 0.07436 0.0
O1310 O 0.97772 0.49562 0.08087 0.0
O1311 O 0.0392 0.48377 0.10911 0.0
O1312 O 0.08821 0.54384 0.1808 0.0
O1313 O 0.02075 0.55317 0.16506 0.0
O1314 O 0.84852 0.50015 0.076 0.0
O1315 O 0.90891 0.50503 0.11066 0.0
O1316 O 0.95609 0.6035 0.09532 0.0
O1317 O 0.88936 0.61514 0.06734 0.0
C1318 C 0.92942 0.62576 0.0726 0.0
O1319 O 0.98084 0.53276 0.19922 0.0
O1320 O 0.01441 0.47113 0.2175 0.0
C1321 C 0.86692 0.56337 0.16695 0.0
C1322 C 0.98823 0.50142 0.22676 0.0
Zn1323 Zn 0.77113 0.80173 0.42546 0.0
Zn1324 Zn 0.6846 0.58947 0.34347 0.0
Zn1325 Zn 0.70409 0.71087 0.37745 0.0
C1326 C 0.625 0.67815 0.3212 0.0
C1327 C 0.75247 0.63478 0.33065 0.0
O1328 O 0.71699 0.72793 0.45018 0.0
O1329 O 0.78373 0.75013 0.46614 0.0
C1330 C 0.68805 0.80451 0.41645 0.0
O1331 O 0.64535 0.70638 0.34416 0.0
O1332 O 0.63664 0.638 0.31921 0.0
O1333 O 0.75144 0.59419 0.33233 0.0
O1334 O 0.74142 0.6544 0.36569 0.0
O1335 O 0.71127 0.83044 0.43864 0.0
O1336 O 0.6982 0.76422 0.42027 0.0
O1337 O 0.74839 0.72836 0.32817 0.0
O1338 O 0.76311 0.78697 0.36065 0.0
C1339 C 0.77714 0.75478 0.33981 0.0
O1340 O 0.69716 0.64444 0.39477 0.0
O1341 O 0.68162 0.57691 0.40789 0.0
C1342 C 0.74928 0.73099 0.47762 0.0
C1343 C 0.68675 0.61498 0.4221 0.0
Zn1344 Zn 0.90834 0.65848 0.57522 0.0
Zn1345 Zn 0.82999 0.44016 0.48819 0.0
Zn1346 Zn 0.86585 0.54223 0.54216 0.0
C1347 C 0.8966 0.4985 0.45769 0.0
C1348 C 0.84791 0.44047 0.56786 0.0
O1349 O 0.85142 0.6049 0.56282 0.0
O1350 O 0.84428 0.67239 0.58181 0.0
C1351 C 0.92364 0.60588 0.49943 0.0
O1352 O 0.89209 0.53368 0.47887 0.0
O1353 O 0.89184 0.46319 0.47791 0.0
O1354 O 0.82443 0.41204 0.54964 0.0
O1355 O 0.83987 0.47959 0.55584 0.0
O1356 O 0.90629 0.64105 0.51085 0.0
O1357 O 0.89775 0.57529 0.48804 0.0
O1358 O 0.9042 0.54876 0.59995 0.0
O1359 O 0.93178 0.61275 0.62155 0.0
C1360 C 0.92697 0.57183 0.62626 0.0
O1361 O 0.79585 0.52232 0.5368 0.0
O1362 O 0.783 0.48514 0.47595 0.0
C1363 C 0.82693 0.63609 0.57383 0.0
C1364 C 0.77028 0.51093 0.50533 0.0
Zn1365 Zn 0.33061 0.05147 0.52545 0.0
Zn1366 Zn 0.40265 0.83614 0.42724 0.0
Zn1367 Zn 0.37204 0.95995 0.4534 0.0
C1368 C 0.42735 0.9268 0.37275 0.0
C1369 C 0.41103 0.87654 0.50103 0.0
O1370 O 0.29945 0.97766 0.46904 0.0
O1371 O 0.2846 0.00386 0.53499 0.0
C1372 C 0.33972 0.05668 0.44376 0.0
O1373 O 0.40366 0.95471 0.39281 0.0
O1374 O 0.42965 0.88663 0.38415 0.0
O1375 O 0.41069 0.83643 0.49369 0.0
O1376 O 0.38117 0.89876 0.48273 0.0
O1377 O 0.3223 0.08481 0.46824 0.0
O1378 O 0.33311 0.01661 0.45375 0.0
O1379 O 0.42177 0.97232 0.49916 0.0
O1380 O 0.39441 0.03297 0.51574 0.0
C1381 C 0.41205 0.99859 0.52888 0.0
O1382 O 0.35279 0.89468 0.44104 0.0
O1383 O 0.33771 0.82838 0.42246 0.0
C1384 C 0.27273 0.98265 0.50175 0.0
C1385 C 0.32461 0.8665 0.42916 0.0
Zn1386 Zn 0.19378 0.0852 0.76815 0.0
Zn1387 Zn 0.41444 0.15471 0.68463 0.0
Zn1388 Zn 0.28932 0.1225 0.70706 0.0
C1389 C 0.32717 0.17632 0.6267 0.0
C1390 C 0.3702 0.15739 0.75812 0.0
O1391 O 0.26779 0.05135 0.72054 0.0
O1392 O 0.23898 0.03964 0.78563 0.0
C1393 C 0.19487 0.09089 0.68482 0.0
O1394 O 0.30012 0.1524 0.64737 0.0
O1395 O 0.36675 0.18203 0.63898 0.0
O1396 O 0.41042 0.15422 0.7527 0.0
O1397 O 0.34767 0.12629 0.74209 0.0
O1398 O 0.16692 0.07046 0.70707 0.0
O1399 O 0.2344 0.08325 0.69608 0.0
O1400 O 0.27274 0.1749 0.74787 0.0
O1401 O 0.21173 0.15043 0.76812 0.0
C1402 C 0.24746 0.16713 0.77903 0.0
O1403 O 0.35468 0.10582 0.69234 0.0
O1404 O 0.42109 0.09109 0.67353 0.0
C1405 C 0.26101 0.02596 0.75379 0.0
C1406 C 0.38275 0.07802 0.67976 0.0
Zn1407 Zn 0.09357 0.16594 0.92592 0.0
Zn1408 Zn 0.16834 0.95 0.02337 0.0
Zn1409 Zn 0.1267 0.04279 0.95365 0.0
C1410 C 0.08573 0.00111 0.02773 0.0
C1411 C 0.16138 0.94692 0.94156 0.0
O1412 O 0.14471 0.10868 0.94104 0.0
O1413 O 0.15851 0.17528 0.92248 0.0
C1414 C 0.0835 0.1251 0.99838 0.0
O1415 O 0.07676 0.02817 0.99855 0.0
O1416 O 0.10399 0.9672 0.0141 0.0
O1417 O 0.18027 0.91917 0.96534 0.0
O1418 O 0.16687 0.98702 0.95213 0.0
O1419 O 0.08249 0.16529 0.99168 0.0
O1420 O 0.11593 0.1044 0.98267 0.0
O1421 O 0.0952 0.04705 0.89302 0.0
O1422 O 0.06844 0.11465 0.88305 0.0
C1423 C 0.07149 0.07438 0.87227 0.0
O1424 O 0.19929 0.02457 0.9697 0.0
O1425 O 0.2131 0.99818 0.03571 0.0
C1426 C 0.17242 0.13754 0.92968 0.0
C1427 C 0.2258 0.01881 0.00252 0.0
Zn1428 Zn 0.79922 0.42415 0.77349 0.0
Zn1429 Zn 0.58979 0.33608 0.67733 0.0
Zn1430 Zn 0.70461 0.3814 0.71113 0.0
C1431 C 0.67856 0.32008 0.62589 0.0
C1432 C 0.64079 0.32195 0.75332 0.0
O1433 O 0.72412 0.4527 0.71577 0.0
O1434 O 0.7483 0.46694 0.78213 0.0
C1435 C 0.80588 0.40809 0.69465 0.0
O1436 O 0.7021 0.34263 0.65219 0.0
O1437 O 0.63762 0.31533 0.63115 0.0
O1438 O 0.6035 0.33476 0.74264 0.0
O1439 O 0.66837 0.35128 0.76435 0.0
O1440 O 0.83287 0.43053 0.71616 0.0
O1441 O 0.76581 0.41274 0.70524 0.0
O1442 O 0.71148 0.35561 0.77525 0.0
O1443 O 0.78151 0.35974 0.77585 0.0
C1444 C 0.74685 0.35238 0.79626 0.0
O1445 O 0.64137 0.39395 0.69149 0.0
O1446 O 0.5739 0.39997 0.6723 0.0
C1447 C 0.72967 0.47962 0.74785 0.0
C1448 C 0.60986 0.41794 0.68039 0.0
Zn1449 Zn 0.66952 0.55472 0.98401 0.0
Zn1450 Zn 0.5931 0.33992 0.07199 0.0
Zn1451 Zn 0.63368 0.45548 0.04011 0.0
C1452 C 0.5742 0.42565 0.12452 0.0
C1453 C 0.575 0.39336 0.99745 0.0
O1454 O 0.70324 0.47753 0.03462 0.0
O1455 O 0.71252 0.50579 0.96937 0.0
C1456 C 0.65374 0.55613 0.06447 0.0
O1457 O 0.59603 0.44957 0.09826 0.0
O1458 O 0.57031 0.38468 0.11935 0.0
O1459 O 0.59253 0.35814 0.00829 0.0
O1460 O 0.60079 0.42391 0.98605 0.0
O1461 O 0.67668 0.58416 0.04508 0.0
O1462 O 0.66164 0.51691 0.05283 0.0
O1463 O 0.60685 0.46547 0.97682 0.0
O1464 O 0.60636 0.53607 0.97336 0.0
C1465 C 0.60066 0.49995 0.95481 0.0
O1466 O 0.65202 0.39344 0.05779 0.0
O1467 O 0.65763 0.32572 0.07599 0.0
C1468 C 0.72778 0.48517 0.00128 0.0
C1469 C 0.67589 0.36149 0.06766 0.0
Zn1470 Zn 0.41085 0.84433 0.81784 0.0
Zn1471 Zn 0.19217 0.92032 0.73158 0.0
Zn1472 Zn 0.28683 0.88129 0.79442 0.0
C1473 C 0.2451 0.83773 0.72262 0.0
C1474 C 0.19091 0.91426 0.81489 0.0
O1475 O 0.3528 0.89584 0.81167 0.0
O1476 O 0.41988 0.90745 0.8313 0.0
C1477 C 0.36808 0.84933 0.7416 0.0
O1478 O 0.27066 0.82885 0.75323 0.0
O1479 O 0.21029 0.85549 0.73448 0.0
O1480 O 0.16397 0.93515 0.79188 0.0
O1481 O 0.23095 0.92058 0.80426 0.0
O1482 O 0.4081 0.85129 0.74949 0.0
O1483 O 0.34526 0.87886 0.75975 0.0
O1484 O 0.29661 0.85111 0.854 0.0
O1485 O 0.36139 0.81799 0.86252 0.0
C1486 C 0.32217 0.82577 0.87469 0.0
O1487 O 0.26606 0.95261 0.78151 0.0
O1488 O 0.23888 0.96505 0.71578 0.0
C1489 C 0.38227 0.92225 0.82457 0.0
C1490 C 0.2606 0.97818 0.74816 0.0
Zn1491 Zn 0.08743 0.15373 0.32122 0.0
Zn1492 Zn 0.30525 0.07963 0.23193 0.0
Zn1493 Zn 0.21133 0.11756 0.29503 0.0
C1494 C 0.25336 0.1624 0.22186 0.0
C1495 C 0.30599 0.08388 0.31559 0.0
O1496 O 0.14535 0.10229 0.31108 0.0
O1497 O 0.07856 0.0901 0.33095 0.0
C1498 C 0.13013 0.1567 0.24798 0.0
O1499 O 0.22791 0.16921 0.25312 0.0
O1500 O 0.28893 0.14522 0.23232 0.0
O1501 O 0.33303 0.06351 0.29227 0.0
O1502 O 0.26605 0.0773 0.30484 0.0
O1503 O 0.08984 0.15537 0.25355 0.0
O1504 O 0.15149 0.12441 0.26302 0.0
O1505 O 0.20302 0.14748 0.35487 0.0
O1506 O 0.13752 0.17874 0.36533 0.0
C1507 C 0.17723 0.17195 0.37635 0.0
O1508 O 0.23148 0.04624 0.28062 0.0
O1509 O 0.2584 0.0355 0.21455 0.0
C1510 C 0.11613 0.07555 0.32372 0.0
C1511 C 0.23741 0.02126 0.24685 0.0
Zn1512 Zn 0.42756 0.08349 0.3344 0.0
Zn1513 Zn 0.50973 0.16862 0.55343 0.0
Zn1514 Zn 0.4643 0.13901 0.45056 0.0
C1515 C 0.54355 0.1041 0.49675 0.0
C1516 C 0.42856 0.14757 0.55431 0.0
O1517 O 0.43015 0.1349 0.39255 0.0
O1518 O 0.41582 0.14644 0.3242 0.0
C1519 C 0.50563 0.07802 0.38783 0.0
O1520 O 0.52672 0.11183 0.45971 0.0
O1521 O 0.51947 0.10695 0.52981 0.0
O1522 O 0.448 0.17465 0.57839 0.0
O1523 O 0.44203 0.14441 0.5153 0.0
O1524 O 0.49132 0.09477 0.35329 0.0
O1525 O 0.51743 0.10409 0.41825 0.0
O1526 O 0.40595 0.09696 0.43697 0.0
O1527 O 0.38268 0.05827 0.37977 0.0
C1528 C 0.37826 0.07076 0.41905 0.0
O1529 O 0.47331 0.20807 0.46423 0.0
O1530 O 0.52595 0.21835 0.51298 0.0
C1531 C 0.42222 0.16145 0.36188 0.0
C1532 C 0.50153 0.23255 0.48307 0.0
Zn1533 Zn 0.56978 0.77316 0.29641 0.0
Zn1534 Zn 0.65693 0.67712 0.08688 0.0
Zn1535 Zn 0.61257 0.71306 0.20175 0.0
C1536 C 0.67369 0.62712 0.17453 0.0
C1537 C 0.67238 0.75405 0.13842 0.0
O1538 O 0.54126 0.71956 0.22075 0.0
O1539 O 0.52973 0.78627 0.24391 0.0
C1540 C 0.58335 0.69258 0.30199 0.0
O1541 O 0.65065 0.65373 0.1971 0.0
O1542 O 0.67933 0.63163 0.13365 0.0
O1543 O 0.65623 0.74208 0.10265 0.0
O1544 O 0.64567 0.76621 0.16808 0.0
O1545 O 0.5593 0.71393 0.32759 0.0
O1546 O 0.5802 0.70374 0.26189 0.0
O1547 O 0.6407 0.7765 0.21043 0.0
O1548 O 0.63473 0.77616 0.28057 0.0
C1549 C 0.64371 0.79691 0.24638 0.0
O1550 O 0.60113 0.6897 0.13987 0.0
O1551 O 0.59296 0.66683 0.07371 0.0
C1552 C 0.51522 0.75217 0.22643 0.0
C1553 C 0.57621 0.67597 0.11006 0.0
Zn1554 Zn 0.99018 0.8271 0.0581 0.0
Zn1555 Zn 0.06972 0.91458 0.83489 0.0
Zn1556 Zn 0.03838 0.86699 0.95358 0.0
C1557 C 0.12166 0.93178 0.91953 0.0
C1558 C 0.99344 0.92318 0.88949 0.0
O1559 O 0.03224 0.79675 0.9703 0.0
O1560 O 0.97706 0.77937 0.01388 0.0
C1561 C 0.06984 0.84626 0.05406 0.0
O1562 O 0.09555 0.90686 0.94062 0.0
O1563 O 0.11598 0.94044 0.87937 0.0
O1564 O 0.00568 0.90622 0.85423 0.0
O1565 O 0.98287 0.89728 0.92052 0.0
O1566 O 0.05312 0.82163 0.08243 0.0
O1567 O 0.05549 0.84022 0.01529 0.0
O1568 O 0.97557 0.89322 0.96314 0.0
O1569 O 0.98273 0.88843 0.0329 0.0
C1570 C 0.95821 0.89413 0.00054 0.0
O1571 O 0.06642 0.86347 0.89221 0.0
O1572 O 0.08039 0.85101 0.82413 0.0
C1573 C 0.00337 0.76944 0.98386 0.0
C1574 C 0.07482 0.83645 0.86208 0.0
Zn1575 Zn 0.84621 0.31852 0.58782 0.0
Zn1576 Zn 0.92949 0.22612 0.79574 0.0
Zn1577 Zn 0.88628 0.2852 0.70132 0.0
C1578 C 0.8558 0.20063 0.74693 0.0
C1579 C 0.91545 0.30697 0.80067 0.0
O1580 O 0.90281 0.30649 0.63996 0.0
O1581 O 0.90976 0.329 0.57361 0.0
C1582 C 0.82964 0.24105 0.63796 0.0
O1583 O 0.85991 0.22106 0.71112 0.0
O1584 O 0.86428 0.22109 0.78149 0.0
O1585 O 0.93923 0.28579 0.82665 0.0
O1586 O 0.91874 0.29522 0.76081 0.0
O1587 O 0.8468 0.25344 0.60287 0.0
O1588 O 0.85571 0.23025 0.66861 0.0
O1589 O 0.8454 0.3424 0.69965 0.0
O1590 O 0.82125 0.36343 0.634 0.0
C1591 C 0.82301 0.36789 0.67525 0.0
O1592 O 0.95721 0.28073 0.72169 0.0
O1593 O 0.96831 0.21329 0.74211 0.0
C1594 C 0.9272 0.31992 0.60964 0.0
C1595 C 0.98321 0.24795 0.72629 0.0
Zn1596 Zn 0.50915 0.82775 0.94532 0.0
Zn1597 Zn 0.4237 0.91263 0.16688 0.0
Zn1598 Zn 0.45991 0.86224 0.04987 0.0
C1599 C 0.3751 0.92828 0.08074 0.0
C1600 C 0.50197 0.92081 0.11444 0.0
O1601 O 0.46847 0.79254 0.03497 0.0
O1602 O 0.5213 0.77787 0.98735 0.0
C1603 C 0.42961 0.8492 0.94588 0.0
O1604 O 0.4021 0.90286 0.06136 0.0
O1605 O 0.37931 0.93816 0.12081 0.0
O1606 O 0.488 0.90424 0.14925 0.0
O1607 O 0.51371 0.89455 0.08418 0.0
O1608 O 0.44722 0.82435 0.91827 0.0
O1609 O 0.44328 0.84438 0.98492 0.0
O1610 O 0.52305 0.88779 0.04263 0.0
O1611 O 0.51704 0.88828 0.97228 0.0
C1612 C 0.54078 0.89174 0.00553 0.0
O1613 O 0.42799 0.86053 0.10931 0.0
O1614 O 0.41149 0.84873 0.17685 0.0
C1615 C 0.4963 0.76627 0.01798 0.0
C1616 C 0.4183 0.83372 0.13923 0.0
Zn1617 Zn 0.83743 0.67945 0.91183 0.0
Zn1618 Zn 0.92034 0.76988 0.69288 0.0
Zn1619 Zn 0.88355 0.716 0.79346 0.0
C1620 C 0.85097 0.79792 0.75001 0.0
C1621 C 0.90581 0.68872 0.6915 0.0
O1622 O 0.88795 0.68736 0.85405 0.0
O1623 O 0.90191 0.66968 0.92083 0.0
C1624 C 0.82433 0.75657 0.85902 0.0
O1625 O 0.85444 0.77801 0.78604 0.0
O1626 O 0.85767 0.77632 0.71571 0.0
O1627 O 0.92941 0.70867 0.66441 0.0
O1628 O 0.91013 0.70203 0.73086 0.0
O1629 O 0.84144 0.74414 0.89416 0.0
O1630 O 0.85014 0.7687 0.82839 0.0
O1631 O 0.84594 0.65737 0.80592 0.0
O1632 O 0.81322 0.63327 0.86625 0.0
C1633 C 0.82232 0.62935 0.82596 0.0
O1634 O 0.95416 0.72407 0.77561 0.0
O1635 O 0.96623 0.78483 0.73867 0.0
C1636 C 0.91553 0.67659 0.88273 0.0
C1637 C 0.97972 0.7553 0.76374 0.0
Zn1638 Zn 0.0739 0.08663 0.66656 0.0
Zn1639 Zn 0.98831 0.16994 0.44558 0.0
Zn1640 Zn 0.03968 0.13379 0.54822 0.0
C1641 C 0.95788 0.10354 0.50414 0.0
C1642 C 0.06802 0.15103 0.4457 0.0
O1643 O 0.06907 0.13791 0.60891 0.0
O1644 O 0.08556 0.15047 0.67638 0.0
C1645 C 0.99596 0.07786 0.61404 0.0
O1646 O 0.97663 0.1078 0.5407 0.0
O1647 O 0.98058 0.10827 0.47033 0.0
O1648 O 0.04996 0.17515 0.41776 0.0
O1649 O 0.05495 0.15725 0.48484 0.0
O1650 O 0.00927 0.09443 0.64916 0.0
O1651 O 0.98499 0.10415 0.58348 0.0
O1652 O 0.09693 0.09373 0.56012 0.0
O1653 O 0.11892 0.06058 0.62106 0.0
C1654 C 0.12349 0.0689 0.58068 0.0
O1655 O 0.03372 0.2039 0.53014 0.0
O1656 O 0.97558 0.21831 0.48948 0.0
C1657 C 0.07899 0.16497 0.63856 0.0
C1658 C 0.00392 0.23029 0.51687 0.0
Zn1659 Zn 0.66316 0.31799 0.41152 0.0
Zn1660 Zn 0.5867 0.24241 0.22387 0.0
Zn1661 Zn 0.60667 0.27955 0.29894 0.0
C1662 C 0.6458 0.19421 0.2596 0.0
C1663 C 0.61324 0.32365 0.2067 0.0
O1664 O 0.60943 0.30493 0.36035 0.0
O1665 O 0.59991 0.32904 0.42591 0.0
C1666 C 0.67276 0.24038 0.36257 0.0
O1667 O 0.63158 0.21473 0.29282 0.0
O1668 O 0.64552 0.21353 0.22355 0.0
O1669 O 0.58025 0.30143 0.19666 0.0
O1670 O 0.6306 0.31799 0.24443 0.0
O1671 O 0.66065 0.25203 0.39996 0.0
O1672 O 0.64286 0.23007 0.33535 0.0
O1673 O 0.64567 0.34017 0.29772 0.0
O1674 O 0.6814 0.36001 0.35923 0.0
C1675 C 0.67176 0.36559 0.31908 0.0
O1676 O 0.53684 0.27247 0.28861 0.0
O1677 O 0.53415 0.2128 0.25019 0.0
C1678 C 0.58409 0.31955 0.3892 0.0
C1679 C 0.51499 0.24052 0.27331 0.0
Zn1680 Zn 0.33726 0.43444 0.09525 0.0
Zn1681 Zn 0.55072 0.52784 0.16941 0.0
Zn1682 Zn 0.46112 0.45523 0.12968 0.0
C1683 C 0.50224 0.52581 0.08416 0.0
C1684 C 0.55785 0.44591 0.16465 0.0
O1685 O 0.39463 0.44432 0.14596 0.0
O1686 O 0.32753 0.42637 0.15936 0.0
C1687 C 0.38197 0.50501 0.08923 0.0
O1688 O 0.47767 0.49438 0.0754 0.0
O1689 O 0.53598 0.51523 0.1046 0.0
O1690 O 0.58411 0.47141 0.18364 0.0
O1691 O 0.51729 0.45458 0.16964 0.0
O1692 O 0.34147 0.50204 0.09208 0.0
O1693 O 0.4032 0.48965 0.12144 0.0
O1694 O 0.45338 0.39422 0.10235 0.0
O1695 O 0.3869 0.38816 0.07148 0.0
C1696 C 0.42608 0.37478 0.0776 0.0
O1697 O 0.48086 0.47134 0.2011 0.0
O1698 O 0.50045 0.53962 0.21276 0.0
C1699 C 0.36585 0.43156 0.17302 0.0
C1700 C 0.48424 0.50473 0.22712 0.0
Zn1701 Zn 0.22283 0.81144 0.92681 0.0
Zn1702 Zn 0.27956 0.59564 0.85803 0.0
Zn1703 Zn 0.28166 0.71664 0.87618 0.0
C1704 C 0.35557 0.66686 0.82994 0.0
C1705 C 0.23195 0.64924 0.82145 0.0
O1706 O 0.27106 0.72871 0.94957 0.0
O1707 O 0.20884 0.76067 0.96816 0.0
C1708 C 0.30523 0.80858 0.91615 0.0
O1709 O 0.33877 0.70122 0.84577 0.0
O1710 O 0.33839 0.62908 0.83433 0.0
O1711 O 0.22436 0.60916 0.8217 0.0
O1712 O 0.23764 0.66705 0.85868 0.0
O1713 O 0.28474 0.83592 0.93917 0.0
O1714 O 0.29113 0.76947 0.91863 0.0
O1715 O 0.24662 0.74411 0.82431 0.0
O1716 O 0.22926 0.799 0.861 0.0
C1717 C 0.21644 0.76715 0.83882 0.0
O1718 O 0.25489 0.65983 0.9045 0.0
O1719 O 0.26342 0.59293 0.92326 0.0
C1720 C 0.23989 0.73535 0.9774 0.0
C1721 C 0.27558 0.63175 0.92697 0.0
Zn1722 Zn 0.95054 0.46844 0.66863 0.0
Zn1723 Zn 0.16326 0.56715 0.59378 0.0
Zn1724 Zn 0.04003 0.54215 0.62908 0.0
C1725 C 0.07292 0.62436 0.57778 0.0
C1726 C 0.12041 0.49565 0.58583 0.0
O1727 O 0.02134 0.5236 0.70066 0.0
O1728 O 0.00045 0.45547 0.71174 0.0
C1729 C 0.94383 0.55055 0.66564 0.0
O1730 O 0.04627 0.60409 0.60257 0.0
O1731 O 0.11226 0.61188 0.57106 0.0
O1732 O 0.16091 0.5001 0.58708 0.0
O1733 O 0.09962 0.51027 0.61873 0.0
O1734 O 0.91771 0.52473 0.6843 0.0
O1735 O 0.98446 0.54166 0.66993 0.0
O1736 O 0.02336 0.50337 0.57459 0.0
O1737 O 0.96541 0.48222 0.60418 0.0
C1738 C 0.99905 0.47181 0.58348 0.0
O1739 O 0.1064 0.55428 0.6444 0.0
O1740 O 0.17293 0.574 0.65813 0.0
C1741 C 0.01722 0.49002 0.72637 0.0
C1742 C 0.13484 0.56739 0.67171 0.0
Zn1743 Zn 0.21055 0.39878 0.35032 0.0
Zn1744 Zn 0.27718 0.18765 0.42662 0.0
Zn1745 Zn 0.21694 0.28044 0.37379 0.0
C1746 C 0.28278 0.2315 0.3382 0.0
C1747 C 0.19472 0.18988 0.41712 0.0
O1748 O 0.2409 0.33992 0.4 0.0
O1749 O 0.23005 0.40757 0.41445 0.0
C1750 C 0.26331 0.34868 0.31699 0.0
O1751 O 0.25324 0.25427 0.3222 0.0
O1752 O 0.26919 0.20068 0.36123 0.0
O1753 O 0.2157 0.16307 0.44028 0.0
O1754 O 0.20874 0.22909 0.41841 0.0
O1755 O 0.26857 0.38898 0.31679 0.0
O1756 O 0.25919 0.33109 0.35452 0.0
O1757 O 0.15847 0.29035 0.3433 0.0
O1758 O 0.15044 0.36164 0.33039 0.0
C1759 C 0.13723 0.32195 0.32724 0.0
O1760 O 0.22872 0.26974 0.44793 0.0
O1761 O 0.29141 0.23895 0.46702 0.0
C1762 C 0.21958 0.36869 0.42103 0.0
C1763 C 0.2597 0.26338 0.47626 0.0
Zn1764 Zn 0.35013 0.54342 0.39902 0.0
Zn1765 Zn 0.56735 0.48046 0.32674 0.0
Zn1766 Zn 0.47022 0.53779 0.3758 0.0
C1767 C 0.51747 0.46899 0.41148 0.0
C1768 C 0.56456 0.56265 0.34017 0.0
O1769 O 0.41165 0.51381 0.34808 0.0
O1770 O 0.34384 0.52448 0.33454 0.0
C1771 C 0.40118 0.489 0.43133 0.0
O1772 O 0.49367 0.49839 0.42641 0.0
O1773 O 0.55033 0.48271 0.39149 0.0
O1774 O 0.59239 0.54296 0.31709 0.0
O1775 O 0.52547 0.54841 0.3359 0.0
O1776 O 0.36084 0.48414 0.43008 0.0
O1777 O 0.41997 0.49413 0.39446 0.0
O1778 O 0.45688 0.59558 0.40464 0.0
O1779 O 0.38614 0.60388 0.41962 0.0
C1780 C 0.42591 0.61709 0.42126 0.0
O1781 O 0.48227 0.52755 0.30236 0.0
O1782 O 0.51892 0.46801 0.28279 0.0
C1783 C 0.38263 0.53481 0.32713 0.0
C1784 C 0.49162 0.49751 0.27405 0.0
Zn1785 Zn 0.1812 0.58628 0.15825 0.0
Zn1786 Zn 0.27039 0.79891 0.07789 0.0
Zn1787 Zn 0.20333 0.70857 0.12324 0.0
C1788 C 0.2756 0.75229 0.16379 0.0
C1789 C 0.18742 0.80322 0.08493 0.0
O1790 O 0.19045 0.64194 0.1059 0.0
O1791 O 0.17376 0.57401 0.0946 0.0
C1792 C 0.25469 0.62934 0.16037 0.0
O1793 O 0.24622 0.72599 0.17422 0.0
O1794 O 0.26226 0.78491 0.14311 0.0
O1795 O 0.21138 0.82865 0.06306 0.0
O1796 O 0.19673 0.76271 0.08115 0.0
O1797 O 0.24934 0.58903 0.15868 0.0
O1798 O 0.23814 0.65051 0.12874 0.0
O1799 O 0.14523 0.70406 0.15718 0.0
O1800 O 0.13645 0.63652 0.18421 0.0
C1801 C 0.12522 0.67672 0.18134 0.0
O1802 O 0.21551 0.72744 0.0512 0.0
O1803 O 0.28318 0.74732 0.03705 0.0
C1804 C 0.18019 0.61145 0.07937 0.0
C1805 C 0.24819 0.73005 0.02431 0.0
Zn1806 Zn 0.93821 0.51657 0.82825 0.0
Zn1807 Zn 0.15775 0.43215 0.91226 0.0
Zn1808 Zn 0.03505 0.45406 0.87377 0.0
C1809 C 0.06942 0.37298 0.92783 0.0
C1810 C 0.1099 0.49937 0.92573 0.0
O1811 O 0.01783 0.46534 0.80112 0.0
O1812 O 0.98512 0.52741 0.7829 0.0
C1813 C 0.93827 0.43431 0.84204 0.0
O1814 O 0.04263 0.39511 0.90512 0.0
O1815 O 0.10946 0.38373 0.93301 0.0
O1816 O 0.1505 0.49845 0.92405 0.0
O1817 O 0.09007 0.49351 0.88946 0.0
O1818 O 0.91077 0.45506 0.81951 0.0
O1819 O 0.97816 0.44539 0.83528 0.0
O1820 O 0.02145 0.50323 0.9191 0.0
O1821 O 0.95974 0.51521 0.89132 0.0
C1822 C 0.99381 0.53076 0.90775 0.0
O1823 O 0.10208 0.44522 0.86003 0.0
O1824 O 0.16979 0.42898 0.84797 0.0
C1825 C 0.01088 0.49678 0.77359 0.0
C1826 C 0.13201 0.43508 0.83327 0.0
Zn1827 Zn 0.31484 0.40893 0.65675 0.0
Zn1828 Zn 0.22874 0.19607 0.57577 0.0
Zn1829 Zn 0.29565 0.28731 0.62322 0.0
C1830 C 0.22278 0.24334 0.66125 0.0
C1831 C 0.31184 0.1936 0.58467 0.0
O1832 O 0.30263 0.35374 0.60558 0.0
O1833 O 0.31787 0.42133 0.59233 0.0
C1834 C 0.24693 0.36352 0.66929 0.0
O1835 O 0.25185 0.26946 0.67287 0.0
O1836 O 0.23649 0.21084 0.64065 0.0
O1837 O 0.2887 0.1675 0.5626 0.0
O1838 O 0.30174 0.23386 0.58059 0.0
O1839 O 0.24793 0.40411 0.66747 0.0
O1840 O 0.25829 0.3438 0.63442 0.0
O1841 O 0.35434 0.29208 0.65642 0.0
O1842 O 0.36278 0.36053 0.68127 0.0
C1843 C 0.37455 0.32042 0.67937 0.0
O1844 O 0.28283 0.26989 0.55063 0.0
O1845 O 0.21619 0.24739 0.53468 0.0
C1846 C 0.31281 0.38324 0.57818 0.0
C1847 C 0.25055 0.26673 0.52321 0.0
Zn1848 Zn 0.16967 0.55702 0.51146 0.0
Zn1849 Zn 0.09234 0.3398 0.42531 0.0
Zn1850 Zn 0.13379 0.45569 0.45721 0.0
C1851 C 0.07233 0.42642 0.37393 0.0
C1852 C 0.07666 0.39208 0.50089 0.0
O1853 O 0.20358 0.47689 0.46203 0.0
O1854 O 0.21577 0.51126 0.52446 0.0
C1855 C 0.15284 0.55623 0.43133 0.0
O1856 O 0.09494 0.4501 0.39984 0.0
O1857 O 0.06844 0.38543 0.37892 0.0
O1858 O 0.09374 0.35672 0.48976 0.0
O1859 O 0.10275 0.42269 0.51172 0.0
O1860 O 0.17575 0.58495 0.44981 0.0
O1861 O 0.16142 0.51728 0.44341 0.0
O1862 O 0.10813 0.46465 0.52073 0.0
O1863 O 0.10759 0.53521 0.52302 0.0
C1864 C 0.10288 0.49943 0.54243 0.0
O1865 O 0.14917 0.39307 0.43794 0.0
O1866 O 0.15639 0.32551 0.41947 0.0
C1867 C 0.22889 0.48667 0.49427 0.0
C1868 C 0.17373 0.36181 0.4274 0.0
Zn1869 Zn 0.66797 0.94645 0.47507 0.0
Zn1870 Zn 0.59644 0.16163 0.57353 0.0
Zn1871 Zn 0.62721 0.03778 0.54804 0.0
C1872 C 0.57201 0.07122 0.62871 0.0
C1873 C 0.58693 0.12104 0.50058 0.0
O1874 O 0.69974 0.01987 0.53189 0.0
O1875 O 0.71432 0.99358 0.46584 0.0
C1876 C 0.65851 0.94014 0.55639 0.0
O1877 O 0.59579 0.0432 0.60886 0.0
O1878 O 0.56962 0.1113 0.61698 0.0
O1879 O 0.5878 0.16125 0.50721 0.0
O1880 O 0.61722 0.09883 0.51827 0.0
O1881 O 0.67604 0.91224 0.53176 0.0
O1882 O 0.66536 0.98035 0.54697 0.0
O1883 O 0.57761 0.0261 0.5021 0.0
O1884 O 0.60432 0.96534 0.4848 0.0
C1885 C 0.58713 9e-05 0.47208 0.0
O1886 O 0.64666 0.10315 0.55976 0.0
O1887 O 0.66141 0.16972 0.57766 0.0
C1888 C 0.72635 0.01465 0.49909 0.0
C1889 C 0.67473 0.13165 0.57111 0.0
Zn1890 Zn 0.58485 0.84431 0.31731 0.0
Zn1891 Zn 0.80507 0.91289 0.23293 0.0
Zn1892 Zn 0.70981 0.87616 0.29415 0.0
C1893 C 0.75137 0.83117 0.22175 0.0
C1894 C 0.80403 0.90791 0.3162 0.0
O1895 O 0.64472 0.89357 0.30884 0.0
O1896 O 0.57826 0.90822 0.32711 0.0
C1897 C 0.62856 0.84139 0.24366 0.0
O1898 O 0.72605 0.82392 0.25301 0.0
O1899 O 0.78732 0.84754 0.23242 0.0
O1900 O 0.83194 0.92828 0.29388 0.0
O1901 O 0.76449 0.9156 0.30509 0.0
O1902 O 0.58837 0.84446 0.24933 0.0
O1903 O 0.65115 0.8725 0.25957 0.0
O1904 O 0.69964 0.84584 0.35378 0.0
O1905 O 0.63279 0.81688 0.36267 0.0
C1906 C 0.67256 0.82208 0.37458 0.0
O1907 O 0.7315 0.94715 0.28046 0.0
O1908 O 0.75997 0.95836 0.21514 0.0
C1909 C 0.61655 0.92142 0.32105 0.0
C1910 C 0.73829 0.97235 0.24708 0.0
Zn1911 Zn 0.83063 0.05005 0.97682 0.0
Zn1912 Zn 0.90563 0.83362 0.07358 0.0
Zn1913 Zn 0.87266 0.95698 0.04717 0.0
C1914 C 0.9274 0.92427 0.12878 0.0
C1915 C 0.91538 0.87517 0.00155 0.0
O1916 O 0.80029 0.97343 0.0297 0.0
O1917 O 0.78486 0.00289 0.96511 0.0
C1918 C 0.83823 0.05299 0.05865 0.0
O1919 O 0.90338 0.95165 0.10838 0.0
O1920 O 0.93097 0.88423 0.11728 0.0
O1921 O 0.91549 0.83488 0.00748 0.0
O1922 O 0.88325 0.89606 0.01752 0.0
O1923 O 0.81982 0.08106 0.03487 0.0
O1924 O 0.83253 0.01294 0.04791 0.0
O1925 O 0.92277 0.9713 0.00243 0.0
O1926 O 0.89455 0.0317 0.98668 0.0
C1927 C 0.91283 0.99781 0.97307 0.0
O1928 O 0.85436 0.89106 0.05951 0.0
O1929 O 0.8408 0.82423 0.07758 0.0
C1930 C 0.77344 0.98001 0.99732 0.0
C1931 C 0.82678 0.86201 0.07074 0.0
Zn1932 Zn 0.19965 0.57419 0.22686 0.0
Zn1933 Zn 0.40931 0.66247 0.32273 0.0
Zn1934 Zn 0.29437 0.61725 0.28929 0.0
C1935 C 0.32074 0.67877 0.37438 0.0
C1936 C 0.35831 0.67624 0.24646 0.0
O1937 O 0.27485 0.54599 0.2848 0.0
O1938 O 0.25074 0.53152 0.21845 0.0
C1939 C 0.19333 0.59035 0.30567 0.0
O1940 O 0.29707 0.65616 0.34822 0.0
O1941 O 0.36165 0.68347 0.36892 0.0
O1942 O 0.39546 0.66329 0.25746 0.0
O1943 O 0.33054 0.64697 0.23576 0.0
O1944 O 0.16616 0.56803 0.28426 0.0
O1945 O 0.23337 0.58556 0.29509 0.0
O1946 O 0.28727 0.64297 0.22522 0.0
O1947 O 0.21725 0.63859 0.22471 0.0
C1948 C 0.25185 0.64602 0.20426 0.0
O1949 O 0.35761 0.60461 0.30884 0.0
O1950 O 0.42511 0.59858 0.32794 0.0
C1951 C 0.26943 0.519 0.25277 0.0
C1952 C 0.38913 0.58061 0.31991 0.0
Zn1953 Zn 0.40422 0.65986 0.92836 0.0
Zn1954 Zn 0.32851 0.44567 0.01538 0.0
Zn1955 Zn 0.36433 0.54429 0.95926 0.0
C1956 C 0.39743 0.49982 0.04508 0.0
C1957 C 0.34343 0.44477 0.93452 0.0
O1958 O 0.34611 0.60623 0.94216 0.0
O1959 O 0.33967 0.67392 0.92447 0.0
C1960 C 0.42225 0.60654 0.00279 0.0
O1961 O 0.39078 0.53398 0.02269 0.0
O1962 O 0.39173 0.46339 0.02716 0.0
O1963 O 0.32091 0.41654 0.95408 0.0
O1964 O 0.33508 0.48386 0.94614 0.0
O1965 O 0.40476 0.64181 0.99215 0.0
O1966 O 0.39644 0.57584 0.01371 0.0
O1967 O 0.40235 0.55005 0.90137 0.0
O1968 O 0.42764 0.6153 0.88091 0.0
C1969 C 0.42422 0.57432 0.87544 0.0
O1970 O 0.29496 0.52172 0.96461 0.0
O1971 O 0.2863 0.49518 0.03053 0.0
C1972 C 0.32182 0.6379 0.93255 0.0
C1973 C 0.27063 0.5149 0.99827 0.0
Zn1974 Zn 0.58935 0.15134 0.1827 0.0
Zn1975 Zn 0.8076 0.07804 0.2694 0.0
Zn1976 Zn 0.71319 0.11636 0.20578 0.0
C1977 C 0.75405 0.16017 0.27819 0.0
C1978 C 0.80918 0.08405 0.18616 0.0
O1979 O 0.64749 0.09863 0.19074 0.0
O1980 O 0.5799 0.08774 0.17298 0.0
C1981 C 0.63196 0.14936 0.2586 0.0
O1982 O 0.72815 0.16853 0.24772 0.0
O1983 O 0.78899 0.1427 0.26624 0.0
O1984 O 0.83631 0.06349 0.20927 0.0
O1985 O 0.76924 0.07743 0.19679 0.0
O1986 O 0.5919 0.14693 0.25104 0.0
O1987 O 0.65499 0.11994 0.24056 0.0
O1988 O 0.70421 0.14652 0.14625 0.0
O1989 O 0.63837 0.17739 0.13758 0.0
C1990 C 0.6779 0.17111 0.12559 0.0
O1991 O 0.73444 0.04545 0.2189 0.0
O1992 O 0.76091 0.03315 0.2849 0.0
C1993 C 0.61703 0.07219 0.18042 0.0
C1994 C 0.73917 0.0201 0.2525 0.0
Zn1995 Zn 0.91068 0.84784 0.68033 0.0
Zn1996 Zn 0.6934 0.9191 0.76891 0.0
Zn1997 Zn 0.78686 0.8815 0.70525 0.0
C1998 C 0.74563 0.83662 0.77904 0.0
C1999 C 0.69214 0.91462 0.68531 0.0
O2000 O 0.85238 0.90014 0.69194 0.0
O2001 O 0.91965 0.91213 0.67453 0.0
C2002 C 0.86798 0.8417 0.75233 0.0
O2003 O 0.77127 0.83018 0.74787 0.0
O2004 O 0.70995 0.85359 0.76857 0.0
O2005 O 0.66504 0.93485 0.70869 0.0
O2006 O 0.73202 0.92141 0.69601 0.0
O2007 O 0.90836 0.84338 0.74757 0.0
O2008 O 0.84655 0.87393 0.73732 0.0
O2009 O 0.79467 0.85136 0.64568 0.0
O2010 O 0.86122 0.82238 0.6355 0.0
C2011 C 0.82126 0.82757 0.62444 0.0
O2012 O 0.76651 0.95254 0.71957 0.0
O2013 O 0.74036 0.96331 0.7859 0.0
C2014 C 0.88222 0.9271 0.68136 0.0
C2015 C 0.76126 0.97744 0.75349 0.0
loop_
_geom_bond_atom_site_label_1
_geom_bond_atom_site_label_2
_geom_bond_distance
_geom_bond_site_symmetry_2
_ccdc_geom_bond_type
Zn0 O6 1.920 . S
Zn0 O12 1.898 . S
Zn0 O15 1.905 . S
Zn1 O9 1.905 . S
Zn1 O10 1.898 1_655 S
Zn1 O18 1.920 . S
Zn2 O5 2.080 . S
Zn2 O8 2.114 1_455 S
Zn2 O11 2.120 1_554 S
Zn2 O13 2.120 . S
Zn2 O14 2.114 . S
Zn2 O17 2.080 1_455 S
C3 O8 1.166 1_556 S
C3 O9 1.182 . S
C4 O10 1.167 . S
C4 O11 1.299 . S
O5 Zn2 2.080 . S
O5 C19 1.305 . S
O6 Zn0 1.920 . S
O6 C19 1.234 . S
C7 O12 1.167 . S
C7 O13 1.299 . S
O8 Zn2 2.114 1_655 S
O8 C3 1.166 1_554 S
O9 Zn1 1.905 . S
O9 C3 1.182 . S
O10 Zn1 1.898 1_455 S
O10 C4 1.167 . S
O11 Zn2 2.120 1_556 S
O11 C4 1.299 . S
O12 Zn0 1.898 . S
O12 C7 1.167 . S
O13 Zn2 2.120 . S
O13 C7 1.299 . S
O14 Zn2 2.114 . S
O14 C16 1.166 . S
O15 Zn0 1.905 . S
O15 C16 1.182 . S
C16 O14 1.166 . S
C16 O15 1.182 . S
O17 Zn2 2.080 1_655 S
O17 C20 1.305 . S
O18 Zn1 1.920 . S
O18 C20 1.234 1_556 S
C19 O5 1.305 . S
C19 O6 1.234 . S
C20 O17 1.305 . S
C20 O18 1.234 1_554 S
Zn21 O27 1.920 . S
Zn21 O33 1.898 . S
Zn21 O36 1.905 . S
Zn22 O30 1.905 . S
Zn22 O31 1.898 . S
Zn22 O39 1.920 . S
Zn23 O26 2.080 . S
Zn23 O29 2.114 . S
Zn23 O32 2.120 . S
Zn23 O34 2.120 . S
Zn23 O35 2.114 . S
Zn23 O38 2.080 . S
C24 O29 1.166 . S
C24 O30 1.182 . S
C25 O31 1.167 . S
C25 O32 1.299 . S
O26 Zn23 2.080 . S
O26 C40 1.305 . S
O27 Zn21 1.920 . S
O27 C40 1.234 . S
C28 O33 1.167 . S
C28 O34 1.299 . S
O29 Zn23 2.114 . S
O29 C24 1.166 . S
O30 Zn22 1.905 . S
O30 C24 1.182 . S
O31 Zn22 1.898 . S
O31 C25 1.167 . S
O32 Zn23 2.120 . S
O32 C25 1.299 . S
O33 Zn21 1.898 . S
O33 C28 1.167 . S
O34 Zn23 2.120 . S
O34 C28 1.299 . S
O35 Zn23 2.114 . S
O35 C37 1.166 . S
O36 Zn21 1.905 . S
O36 C37 1.182 . S
C37 O35 1.166 . S
C37 O36 1.182 . S
O38 Zn23 2.080 . S
O38 C41 1.305 . S
O39 Zn22 1.920 . S
O39 C41 1.234 . S
C40 O26 1.305 . S
C40 O27 1.234 . S
C41 O38 1.305 . S
C41 O39 1.234 . S
Zn42 O48 1.920 . S
Zn42 O54 1.898 . S
Zn42 O57 1.905 . S
Zn43 O51 1.905 . S
Zn43 O52 1.898 . S
Zn43 O60 1.920 . S
Zn44 O47 2.080 . S
Zn44 O50 2.114 . S
Zn44 O53 2.120 . S
Zn44 O55 2.120 . S
Zn44 O56 2.114 . S
Zn44 O59 2.080 . S
C45 O50 1.166 . S
C45 O51 1.182 . S
C46 O52 1.167 . S
C46 O53 1.299 . S
O47 Zn44 2.080 . S
O47 C61 1.305 . S
O48 Zn42 1.920 . S
O48 C61 1.234 . S
C49 O54 1.167 . S
C49 O55 1.299 . S
O50 Zn44 2.114 . S
O50 C45 1.166 . S
O51 Zn43 1.905 . S
O51 C45 1.182 . S
O52 Zn43 1.898 . S
O52 C46 1.167 . S
O53 Zn44 2.120 . S
O53 C46 1.299 . S
O54 Zn42 1.898 . S
O54 C49 1.167 . S
O55 Zn44 2.120 . S
O55 C49 1.299 . S
O56 Zn44 2.114 . S
O56 C58 1.166 . S
O57 Zn42 1.905 . S
O57 C58 1.182 . S
C58 O56 1.166 . S
C58 O57 1.182 . S
O59 Zn44 2.080 . S
O59 C62 1.305 . S
O60 Zn43 1.920 . S
O60 C62 1.234 . S
C61 O47 1.305 . S
C61 O48 1.234 . S
C62 O59 1.305 . S
C62 O60 1.234 . S
Zn63 O69 1.920 . S
Zn63 O75 1.898 . S
Zn63 O78 1.905 . S
Zn64 O72 1.905 . S
Zn64 O73 1.898 . S
Zn64 O81 1.920 . S
Zn65 O68 2.080 . S
Zn65 O71 2.114 . S
Zn65 O74 2.120 . S
Zn65 O76 2.120 . S
Zn65 O77 2.114 . S
Zn65 O80 2.080 . S
C66 O71 1.166 . S
C66 O72 1.182 . S
C67 O73 1.167 . S
C67 O74 1.299 . S
O68 Zn65 2.080 . S
O68 C82 1.305 . S
O69 Zn63 1.920 . S
O69 C82 1.234 . S
C70 O75 1.167 . S
C70 O76 1.299 . S
O71 Zn65 2.114 . S
O71 C66 1.166 . S
O72 Zn64 1.905 . S
O72 C66 1.182 . S
O73 Zn64 1.898 . S
O73 C67 1.167 . S
O74 Zn65 2.120 . S
O74 C67 1.299 . S
O75 Zn63 1.898 . S
O75 C70 1.167 . S
O76 Zn65 2.120 . S
O76 C70 1.299 . S
O77 Zn65 2.114 . S
O77 C79 1.166 . S
O78 Zn63 1.905 . S
O78 C79 1.182 . S
C79 O77 1.166 . S
C79 O78 1.182 . S
O80 Zn65 2.080 . S
O80 C83 1.305 . S
O81 Zn64 1.920 . S
O81 C83 1.234 . S
C82 O68 1.305 . S
C82 O69 1.234 . S
C83 O80 1.305 . S
C83 O81 1.234 . S
Zn84 O90 1.920 . S
Zn84 O96 1.898 . S
Zn84 O99 1.905 . S
Zn85 O93 1.905 . S
Zn85 O94 1.898 1_655 S
Zn85 O102 1.920 . S
Zn86 O89 2.080 . S
Zn86 O92 2.114 1_455 S
Zn86 O95 2.120 . S
Zn86 O97 2.120 . S
Zn86 O98 2.114 . S
Zn86 O101 2.080 1_455 S
C87 O92 1.166 . S
C87 O93 1.182 . S
C88 O94 1.167 . S
C88 O95 1.299 . S
O89 Zn86 2.080 . S
O89 C103 1.305 . S
O90 Zn84 1.920 . S
O90 C103 1.234 . S
C91 O96 1.167 . S
C91 O97 1.299 . S
O92 Zn86 2.114 1_655 S
O92 C87 1.166 . S
O93 Zn85 1.905 . S
O93 C87 1.182 . S
O94 Zn85 1.898 1_455 S
O94 C88 1.167 . S
O95 Zn86 2.120 . S
O95 C88 1.299 . S
O96 Zn84 1.898 . S
O96 C91 1.167 . S
O97 Zn86 2.120 . S
O97 C91 1.299 . S
O98 Zn86 2.114 . S
O98 C100 1.166 . S
O99 Zn84 1.905 . S
O99 C100 1.182 . S
C100 O98 1.166 . S
C100 O99 1.182 . S
O101 Zn86 2.080 1_655 S
O101 C104 1.305 . S
O102 Zn85 1.920 . S
O102 C104 1.234 . S
C103 O89 1.305 . S
C103 O90 1.234 . S
C104 O101 1.305 . S
C104 O102 1.234 . S
Zn105 O111 1.920 . S
Zn105 O117 1.898 . S
Zn105 O120 1.905 . S
Zn106 O114 1.905 . S
Zn106 O115 1.898 . S
Zn106 O123 1.920 . S
Zn107 O110 2.080 . S
Zn107 O113 2.114 . S
Zn107 O116 2.120 . S
Zn107 O118 2.120 . S
Zn107 O119 2.114 . S
Zn107 O122 2.080 . S
C108 O113 1.166 . S
C108 O114 1.182 . S
C109 O115 1.167 . S
C109 O116 1.299 . S
O110 Zn107 2.080 . S
O110 C124 1.305 . S
O111 Zn105 1.920 . S
O111 C124 1.234 . S
C112 O117 1.167 . S
C112 O118 1.299 . S
O113 Zn107 2.114 . S
O113 C108 1.166 . S
O114 Zn106 1.905 . S
O114 C108 1.182 . S
O115 Zn106 1.898 . S
O115 C109 1.167 . S
O116 Zn107 2.120 . S
O116 C109 1.299 . S
O117 Zn105 1.898 . S
O117 C112 1.167 . S
O118 Zn107 2.120 . S
O118 C112 1.299 . S
O119 Zn107 2.114 . S
O119 C121 1.166 . S
O120 Zn105 1.905 . S
O120 C121 1.182 . S
C121 O119 1.166 . S
C121 O120 1.182 . S
O122 Zn107 2.080 . S
O122 C125 1.305 . S
O123 Zn106 1.920 . S
O123 C125 1.234 . S
C124 O110 1.305 . S
C124 O111 1.234 . S
C125 O122 1.305 . S
C125 O123 1.234 . S
Zn126 O132 1.920 . S
Zn126 O138 1.898 . S
Zn126 O141 1.905 . S
Zn127 O135 1.905 . S
Zn127 O136 1.898 . S
Zn127 O144 1.920 . S
Zn128 O131 2.080 . S
Zn128 O134 2.114 . S
Zn128 O137 2.120 . S
Zn128 O139 2.120 1_556 S
Zn128 O140 2.114 . S
Zn128 O143 2.080 . S
C129 O134 1.166 . S
C129 O135 1.182 . S
C130 O136 1.167 . S
C130 O137 1.299 . S
O131 Zn128 2.080 . S
O131 C145 1.305 . S
O132 Zn126 1.920 . S
O132 C145 1.234 1_554 S
C133 O138 1.167 . S
C133 O139 1.299 . S
O134 Zn128 2.114 . S
O134 C129 1.166 . S
O135 Zn127 1.905 . S
O135 C129 1.182 . S
O136 Zn127 1.898 . S
O136 C130 1.167 . S
O137 Zn128 2.120 . S
O137 C130 1.299 . S
O138 Zn126 1.898 . S
O138 C133 1.167 . S
O139 Zn128 2.120 1_554 S
O139 C133 1.299 . S
O140 Zn128 2.114 . S
O140 C142 1.166 1_556 S
O141 Zn126 1.905 . S
O141 C142 1.182 . S
C142 O140 1.166 1_554 S
C142 O141 1.182 . S
O143 Zn128 2.080 . S
O143 C146 1.305 . S
O144 Zn127 1.920 . S
O144 C146 1.234 . S
C145 O131 1.305 . S
C145 O132 1.234 1_556 S
C146 O143 1.305 . S
C146 O144 1.234 . S
Zn147 O153 1.920 . S
Zn147 O159 1.898 . S
Zn147 O162 1.905 . S
Zn148 O156 1.905 . S
Zn148 O157 1.898 . S
Zn148 O165 1.920 . S
Zn149 O152 2.080 . S
Zn149 O155 2.114 . S
Zn149 O158 2.120 . S
Zn149 O160 2.120 . S
Zn149 O161 2.114 . S
Zn149 O164 2.080 . S
C150 O155 1.166 . S
C150 O156 1.182 . S
C151 O157 1.167 . S
C151 O158 1.299 . S
O152 Zn149 2.080 . S
O152 C166 1.305 . S
O153 Zn147 1.920 . S
O153 C166 1.234 . S
C154 O159 1.167 . S
C154 O160 1.299 . S
O155 Zn149 2.114 . S
O155 C150 1.166 . S
O156 Zn148 1.905 . S
O156 C150 1.182 . S
O157 Zn148 1.898 . S
O157 C151 1.167 . S
O158 Zn149 2.120 . S
O158 C151 1.299 . S
O159 Zn147 1.898 . S
O159 C154 1.167 . S
O160 Zn149 2.120 . S
O160 C154 1.299 . S
O161 Zn149 2.114 . S
O161 C163 1.166 . S
O162 Zn147 1.905 . S
O162 C163 1.182 . S
C163 O161 1.166 . S
C163 O162 1.182 . S
O164 Zn149 2.080 . S
O164 C167 1.305 . S
O165 Zn148 1.920 . S
O165 C167 1.234 . S
C166 O152 1.305 . S
C166 O153 1.234 . S
C167 O164 1.305 . S
C167 O165 1.234 . S
Zn168 O174 1.920 . S
Zn168 O180 1.898 . S
Zn168 O183 1.905 . S
Zn169 O177 1.905 . S
Zn169 O178 1.898 1_565 S
Zn169 O186 1.920 . S
Zn170 O173 2.080 . S
Zn170 O176 2.114 1_545 S
Zn170 O179 2.120 1_455 S
Zn170 O181 2.120 . S
Zn170 O182 2.114 . S
Zn170 O185 2.080 1_545 S
C171 O176 1.166 1_655 S
C171 O177 1.182 . S
C172 O178 1.167 . S
C172 O179 1.299 . S
O173 Zn170 2.080 . S
O173 C187 1.305 . S
O174 Zn168 1.920 . S
O174 C187 1.234 . S
C175 O180 1.167 . S
C175 O181 1.299 . S
O176 Zn170 2.114 1_565 S
O176 C171 1.166 1_455 S
O177 Zn169 1.905 . S
O177 C171 1.182 . S
O178 Zn169 1.898 1_545 S
O178 C172 1.167 . S
O179 Zn170 2.120 1_655 S
O179 C172 1.299 . S
O180 Zn168 1.898 . S
O180 C175 1.167 . S
O181 Zn170 2.120 . S
O181 C175 1.299 . S
O182 Zn170 2.114 . S
O182 C184 1.166 . S
O183 Zn168 1.905 . S
O183 C184 1.182 . S
C184 O182 1.166 . S
C184 O183 1.182 . S
O185 Zn170 2.080 1_565 S
O185 C188 1.305 . S
O186 Zn169 1.920 . S
O186 C188 1.234 1_655 S
C187 O173 1.305 . S
C187 O174 1.234 . S
C188 O185 1.305 . S
C188 O186 1.234 1_455 S
Zn189 O195 1.920 . S
Zn189 O201 1.898 . S
Zn189 O204 1.905 . S
Zn190 O198 1.905 . S
Zn190 O199 1.898 . S
Zn190 O207 1.920 . S
Zn191 O194 2.080 . S
Zn191 O197 2.114 . S
Zn191 O200 2.120 . S
Zn191 O202 2.120 . S
Zn191 O203 2.114 . S
Zn191 O206 2.080 . S
C192 O197 1.166 . S
C192 O198 1.182 . S
C193 O199 1.167 . S
C193 O200 1.299 . S
O194 Zn191 2.080 . S
O194 C208 1.305 . S
O195 Zn189 1.920 . S
O195 C208 1.234 . S
C196 O201 1.167 . S
C196 O202 1.299 . S
O197 Zn191 2.114 . S
O197 C192 1.166 . S
O198 Zn190 1.905 . S
O198 C192 1.182 . S
O199 Zn190 1.898 . S
O199 C193 1.167 . S
O200 Zn191 2.120 . S
O200 C193 1.299 . S
O201 Zn189 1.898 . S
O201 C196 1.167 . S
O202 Zn191 2.120 . S
O202 C196 1.299 . S
O203 Zn191 2.114 . S
O203 C205 1.166 . S
O204 Zn189 1.905 . S
O204 C205 1.182 . S
C205 O203 1.166 . S
C205 O204 1.182 . S
O206 Zn191 2.080 . S
O206 C209 1.305 . S
O207 Zn190 1.920 . S
O207 C209 1.234 . S
C208 O194 1.305 . S
C208 O195 1.234 . S
C209 O206 1.305 . S
C209 O207 1.234 . S
Zn210 O216 1.920 . S
Zn210 O222 1.898 . S
Zn210 O225 1.905 . S
Zn211 O219 1.905 . S
Zn211 O220 1.898 1_545 S
Zn211 O228 1.920 . S
Zn212 O215 2.080 . S
Zn212 O218 2.114 1_565 S
Zn212 O221 2.120 . S
Zn212 O223 2.120 . S
Zn212 O224 2.114 . S
Zn212 O227 2.080 1_565 S
C213 O218 1.166 . S
C213 O219 1.182 . S
C214 O220 1.167 . S
C214 O221 1.299 . S
O215 Zn212 2.080 . S
O215 C229 1.305 . S
O216 Zn210 1.920 . S
O216 C229 1.234 . S
C217 O222 1.167 . S
C217 O223 1.299 . S
O218 Zn212 2.114 1_545 S
O218 C213 1.166 . S
O219 Zn211 1.905 . S
O219 C213 1.182 . S
O220 Zn211 1.898 1_565 S
O220 C214 1.167 . S
O221 Zn212 2.120 . S
O221 C214 1.299 . S
O222 Zn210 1.898 . S
O222 C217 1.167 . S
O223 Zn212 2.120 . S
O223 C217 1.299 . S
O224 Zn212 2.114 . S
O224 C226 1.166 . S
O225 Zn210 1.905 . S
O225 C226 1.182 . S
C226 O224 1.166 . S
C226 O225 1.182 . S
O227 Zn212 2.080 1_545 S
O227 C230 1.305 . S
O228 Zn211 1.920 . S
O228 C230 1.234 . S
C229 O215 1.305 . S
C229 O216 1.234 . S
C230 O227 1.305 . S
C230 O228 1.234 . S
Zn231 O237 1.920 . S
Zn231 O243 1.898 . S
Zn231 O246 1.905 . S
Zn232 O240 1.905 . S
Zn232 O241 1.898 . S
Zn232 O249 1.920 . S
Zn233 O236 2.080 . S
Zn233 O239 2.114 . S
Zn233 O242 2.120 . S
Zn233 O244 2.120 . S
Zn233 O245 2.114 . S
Zn233 O248 2.080 . S
C234 O239 1.166 . S
C234 O240 1.182 . S
C235 O241 1.167 . S
C235 O242 1.299 . S
O236 Zn233 2.080 . S
O236 C250 1.305 . S
O237 Zn231 1.920 . S
O237 C250 1.234 . S
C238 O243 1.167 . S
C238 O244 1.299 . S
O239 Zn233 2.114 . S
O239 C234 1.166 . S
O240 Zn232 1.905 . S
O240 C234 1.182 . S
O241 Zn232 1.898 . S
O241 C235 1.167 . S
O242 Zn233 2.120 . S
O242 C235 1.299 . S
O243 Zn231 1.898 . S
O243 C238 1.167 . S
O244 Zn233 2.120 . S
O244 C238 1.299 . S
O245 Zn233 2.114 . S
O245 C247 1.166 . S
O246 Zn231 1.905 . S
O246 C247 1.182 . S
C247 O245 1.166 . S
C247 O246 1.182 . S
O248 Zn233 2.080 . S
O248 C251 1.305 . S
O249 Zn232 1.920 . S
O249 C251 1.234 . S
C250 O236 1.305 . S
C250 O237 1.234 . S
C251 O248 1.305 . S
C251 O249 1.234 . S
Zn252 O258 1.920 . S
Zn252 O264 1.898 1_545 S
Zn252 O267 1.905 . S
Zn253 O261 1.905 . S
Zn253 O262 1.898 . S
Zn253 O270 1.920 . S
Zn254 O257 2.080 1_565 S
Zn254 O260 2.114 . S
Zn254 O263 2.120 . S
Zn254 O265 2.120 1_455 S
Zn254 O266 2.114 1_565 S
Zn254 O269 2.080 . S
C255 O260 1.166 . S
C255 O261 1.182 . S
C256 O262 1.167 . S
C256 O263 1.299 . S
O257 Zn254 2.080 1_545 S
O257 C271 1.305 . S
O258 Zn252 1.920 . S
O258 C271 1.234 1_655 S
C259 O264 1.167 . S
C259 O265 1.299 . S
O260 Zn254 2.114 . S
O260 C255 1.166 . S
O261 Zn253 1.905 . S
O261 C255 1.182 . S
O262 Zn253 1.898 . S
O262 C256 1.167 . S
O263 Zn254 2.120 . S
O263 C256 1.299 . S
O264 Zn252 1.898 1_565 S
O264 C259 1.167 . S
O265 Zn254 2.120 1_655 S
O265 C259 1.299 . S
O266 Zn254 2.114 1_545 S
O266 C268 1.166 1_455 S
O267 Zn252 1.905 . S
O267 C268 1.182 . S
C268 O266 1.166 1_655 S
C268 O267 1.182 . S
O269 Zn254 2.080 . S
O269 C272 1.305 . S
O270 Zn253 1.920 . S
O270 C272 1.234 . S
C271 O257 1.305 . S
C271 O258 1.234 1_455 S
C272 O269 1.305 . S
C272 O270 1.234 . S
Zn273 O279 1.920 . S
Zn273 O285 1.898 . S
Zn273 O288 1.905 . S
Zn274 O282 1.905 . S
Zn274 O283 1.898 . S
Zn274 O291 1.920 . S
Zn275 O278 2.080 . S
Zn275 O281 2.114 . S
Zn275 O284 2.120 . S
Zn275 O286 2.120 . S
Zn275 O287 2.114 . S
Zn275 O290 2.080 . S
C276 O281 1.166 . S
C276 O282 1.182 . S
C277 O283 1.167 . S
C277 O284 1.299 . S
O278 Zn275 2.080 . S
O278 C292 1.305 . S
O279 Zn273 1.920 . S
O279 C292 1.234 . S
C280 O285 1.167 . S
C280 O286 1.299 . S
O281 Zn275 2.114 . S
O281 C276 1.166 . S
O282 Zn274 1.905 . S
O282 C276 1.182 . S
O283 Zn274 1.898 . S
O283 C277 1.167 . S
O284 Zn275 2.120 . S
O284 C277 1.299 . S
O285 Zn273 1.898 . S
O285 C280 1.167 . S
O286 Zn275 2.120 . S
O286 C280 1.299 . S
O287 Zn275 2.114 . S
O287 C289 1.166 . S
O288 Zn273 1.905 . S
O288 C289 1.182 . S
C289 O287 1.166 . S
C289 O288 1.182 . S
O290 Zn275 2.080 . S
O290 C293 1.305 . S
O291 Zn274 1.920 . S
O291 C293 1.234 . S
C292 O278 1.305 . S
C292 O279 1.234 . S
C293 O290 1.305 . S
C293 O291 1.234 . S
Zn294 O300 1.920 . S
Zn294 O306 1.898 1_565 S
Zn294 O309 1.905 . S
Zn295 O303 1.905 . S
Zn295 O304 1.898 . S
Zn295 O312 1.920 . S
Zn296 O299 2.080 1_545 S
Zn296 O302 2.114 . S
Zn296 O305 2.120 . S
Zn296 O307 2.120 . S
Zn296 O308 2.114 1_545 S
Zn296 O311 2.080 . S
C297 O302 1.166 . S
C297 O303 1.182 . S
C298 O304 1.167 . S
C298 O305 1.299 . S
O299 Zn296 2.080 1_565 S
O299 C313 1.305 . S
O300 Zn294 1.920 . S
O300 C313 1.234 . S
C301 O306 1.167 . S
C301 O307 1.299 . S
O302 Zn296 2.114 . S
O302 C297 1.166 . S
O303 Zn295 1.905 . S
O303 C297 1.182 . S
O304 Zn295 1.898 . S
O304 C298 1.167 . S
O305 Zn296 2.120 . S
O305 C298 1.299 . S
O306 Zn294 1.898 1_545 S
O306 C301 1.167 . S
O307 Zn296 2.120 . S
O307 C301 1.299 . S
O308 Zn296 2.114 1_565 S
O308 C310 1.166 . S
O309 Zn294 1.905 . S
O309 C310 1.182 . S
C310 O308 1.166 . S
C310 O309 1.182 . S
O311 Zn296 2.080 . S
O311 C314 1.305 . S
O312 Zn295 1.920 . S
O312 C314 1.234 . S
C313 O299 1.305 . S
C313 O300 1.234 . S
C314 O311 1.305 . S
C314 O312 1.234 . S
Zn315 O321 1.920 . S
Zn315 O327 1.898 . S
Zn315 O330 1.905 . S
Zn316 O324 1.905 . S
Zn316 O325 1.898 . S
Zn316 O333 1.920 . S
Zn317 O320 2.080 . S
Zn317 O323 2.114 . S
Zn317 O326 2.120 . S
Zn317 O328 2.120 . S
Zn317 O329 2.114 . S
Zn317 O332 2.080 . S
C318 O323 1.166 . S
C318 O324 1.182 . S
C319 O325 1.167 . S
C319 O326 1.299 . S
O320 Zn317 2.080 . S
O320 C334 1.305 . S
O321 Zn315 1.920 . S
O321 C334 1.234 . S
C322 O327 1.167 . S
C322 O328 1.299 . S
O323 Zn317 2.114 . S
O323 C318 1.166 . S
O324 Zn316 1.905 . S
O324 C318 1.182 . S
O325 Zn316 1.898 . S
O325 C319 1.167 . S
O326 Zn317 2.120 . S
O326 C319 1.299 . S
O327 Zn315 1.898 . S
O327 C322 1.167 . S
O328 Zn317 2.120 . S
O328 C322 1.299 . S
O329 Zn317 2.114 . S
O329 C331 1.166 . S
O330 Zn315 1.905 . S
O330 C331 1.182 . S
C331 O329 1.166 . S
C331 O330 1.182 . S
O332 Zn317 2.080 . S
O332 C335 1.305 . S
O333 Zn316 1.920 . S
O333 C335 1.234 . S
C334 O320 1.305 . S
C334 O321 1.234 . S
C335 O332 1.305 . S
C335 O333 1.234 . S
Zn336 O342 1.920 . S
Zn336 O348 1.898 1_556 S
Zn336 O351 1.905 . S
Zn337 O345 1.905 . S
Zn337 O346 1.898 . S
Zn337 O354 1.920 . S
Zn338 O341 2.080 1_554 S
Zn338 O344 2.114 . S
Zn338 O347 2.120 . S
Zn338 O349 2.120 1_545 S
Zn338 O350 2.114 1_554 S
Zn338 O353 2.080 . S
C339 O344 1.166 . S
C339 O345 1.182 . S
C340 O346 1.167 . S
C340 O347 1.299 . S
O341 Zn338 2.080 1_556 S
O341 C355 1.305 . S
O342 Zn336 1.920 . S
O342 C355 1.234 1_565 S
C343 O348 1.167 . S
C343 O349 1.299 . S
O344 Zn338 2.114 . S
O344 C339 1.166 . S
O345 Zn337 1.905 . S
O345 C339 1.182 . S
O346 Zn337 1.898 . S
O346 C340 1.167 . S
O347 Zn338 2.120 . S
O347 C340 1.299 . S
O348 Zn336 1.898 1_554 S
O348 C343 1.167 . S
O349 Zn338 2.120 1_565 S
O349 C343 1.299 . S
O350 Zn338 2.114 1_556 S
O350 C352 1.166 1_545 S
O351 Zn336 1.905 . S
O351 C352 1.182 . S
C352 O350 1.166 1_565 S
C352 O351 1.182 . S
O353 Zn338 2.080 . S
O353 C356 1.305 . S
O354 Zn337 1.920 . S
O354 C356 1.234 . S
C355 O341 1.305 . S
C355 O342 1.234 1_545 S
C356 O353 1.305 . S
C356 O354 1.234 . S
Zn357 O363 1.920 . S
Zn357 O369 1.898 1_554 S
Zn357 O372 1.905 . S
Zn358 O366 1.905 . S
Zn358 O367 1.898 . S
Zn358 O375 1.920 . S
Zn359 O362 2.080 1_556 S
Zn359 O365 2.114 . S
Zn359 O368 2.120 . S
Zn359 O370 2.120 . S
Zn359 O371 2.114 1_556 S
Zn359 O374 2.080 . S
C360 O365 1.166 . S
C360 O366 1.182 . S
C361 O367 1.167 . S
C361 O368 1.299 . S
O362 Zn359 2.080 1_554 S
O362 C376 1.305 . S
O363 Zn357 1.920 . S
O363 C376 1.234 . S
C364 O369 1.167 . S
C364 O370 1.299 . S
O365 Zn359 2.114 . S
O365 C360 1.166 . S
O366 Zn358 1.905 . S
O366 C360 1.182 . S
O367 Zn358 1.898 . S
O367 C361 1.167 . S
O368 Zn359 2.120 . S
O368 C361 1.299 . S
O369 Zn357 1.898 1_556 S
O369 C364 1.167 . S
O370 Zn359 2.120 . S
O370 C364 1.299 . S
O371 Zn359 2.114 1_554 S
O371 C373 1.166 . S
O372 Zn357 1.905 . S
O372 C373 1.182 . S
C373 O371 1.166 . S
C373 O372 1.182 . S
O374 Zn359 2.080 . S
O374 C377 1.305 . S
O375 Zn358 1.920 . S
O375 C377 1.234 . S
C376 O362 1.305 . S
C376 O363 1.234 . S
C377 O374 1.305 . S
C377 O375 1.234 . S
Zn378 O384 1.920 . S
Zn378 O390 1.898 . S
Zn378 O393 1.905 . S
Zn379 O387 1.905 . S
Zn379 O388 1.898 . S
Zn379 O396 1.920 . S
Zn380 O383 2.080 . S
Zn380 O386 2.114 . S
Zn380 O389 2.120 . S
Zn380 O391 2.120 . S
Zn380 O392 2.114 . S
Zn380 O395 2.080 . S
C381 O386 1.166 . S
C381 O387 1.182 . S
C382 O388 1.167 . S
C382 O389 1.299 . S
O383 Zn380 2.080 . S
O383 C397 1.305 . S
O384 Zn378 1.920 . S
O384 C397 1.234 . S
C385 O390 1.167 . S
C385 O391 1.299 . S
O386 Zn380 2.114 . S
O386 C381 1.166 . S
O387 Zn379 1.905 . S
O387 C381 1.182 . S
O388 Zn379 1.898 . S
O388 C382 1.167 . S
O389 Zn380 2.120 . S
O389 C382 1.299 . S
O390 Zn378 1.898 . S
O390 C385 1.167 . S
O391 Zn380 2.120 . S
O391 C385 1.299 . S
O392 Zn380 2.114 . S
O392 C394 1.166 . S
O393 Zn378 1.905 . S
O393 C394 1.182 . S
C394 O392 1.166 . S
C394 O393 1.182 . S
O395 Zn380 2.080 . S
O395 C398 1.305 . S
O396 Zn379 1.920 . S
O396 C398 1.234 . S
C397 O383 1.305 . S
C397 O384 1.234 . S
C398 O395 1.305 . S
C398 O396 1.234 . S
Zn399 O405 1.920 . S
Zn399 O411 1.898 . S
Zn399 O414 1.905 . S
Zn400 O408 1.905 . S
Zn400 O409 1.898 . S
Zn400 O417 1.920 . S
Zn401 O404 2.080 . S
Zn401 O407 2.114 . S
Zn401 O410 2.120 . S
Zn401 O412 2.120 . S
Zn401 O413 2.114 . S
Zn401 O416 2.080 . S
C402 O407 1.166 . S
C402 O408 1.182 . S
C403 O409 1.167 . S
C403 O410 1.299 . S
O404 Zn401 2.080 . S
O404 C418 1.305 . S
O405 Zn399 1.920 . S
O405 C418 1.234 . S
C406 O411 1.167 . S
C406 O412 1.299 . S
O407 Zn401 2.114 . S
O407 C402 1.166 . S
O408 Zn400 1.905 . S
O408 C402 1.182 . S
O409 Zn400 1.898 . S
O409 C403 1.167 . S
O410 Zn401 2.120 . S
O410 C403 1.299 . S
O411 Zn399 1.898 . S
O411 C406 1.167 . S
O412 Zn401 2.120 . S
O412 C406 1.299 . S
O413 Zn401 2.114 . S
O413 C415 1.166 . S
O414 Zn399 1.905 . S
O414 C415 1.182 . S
C415 O413 1.166 . S
C415 O414 1.182 . S
O416 Zn401 2.080 . S
O416 C419 1.305 . S
O417 Zn400 1.920 . S
O417 C419 1.234 . S
C418 O404 1.305 . S
C418 O405 1.234 . S
C419 O416 1.305 . S
C419 O417 1.234 . S
Zn420 O426 1.920 . S
Zn420 O432 1.898 . S
Zn420 O435 1.905 . S
Zn421 O429 1.905 . S
Zn421 O430 1.898 . S
Zn421 O438 1.920 . S
Zn422 O425 2.080 . S
Zn422 O428 2.114 . S
Zn422 O431 2.120 . S
Zn422 O433 2.120 . S
Zn422 O434 2.114 . S
Zn422 O437 2.080 . S
C423 O428 1.166 . S
C423 O429 1.182 . S
C424 O430 1.167 . S
C424 O431 1.299 . S
O425 Zn422 2.080 . S
O425 C439 1.305 . S
O426 Zn420 1.920 . S
O426 C439 1.234 . S
C427 O432 1.167 . S
C427 O433 1.299 . S
O428 Zn422 2.114 . S
O428 C423 1.166 . S
O429 Zn421 1.905 . S
O429 C423 1.182 . S
O430 Zn421 1.898 . S
O430 C424 1.167 . S
O431 Zn422 2.120 . S
O431 C424 1.299 . S
O432 Zn420 1.898 . S
O432 C427 1.167 . S
O433 Zn422 2.120 . S
O433 C427 1.299 . S
O434 Zn422 2.114 . S
O434 C436 1.166 . S
O435 Zn420 1.905 . S
O435 C436 1.182 . S
C436 O434 1.166 . S
C436 O435 1.182 . S
O437 Zn422 2.080 . S
O437 C440 1.305 . S
O438 Zn421 1.920 . S
O438 C440 1.234 . S
C439 O425 1.305 . S
C439 O426 1.234 . S
C440 O437 1.305 . S
C440 O438 1.234 . S
Zn441 O447 1.920 . S
Zn441 O453 1.898 . S
Zn441 O456 1.905 . S
Zn442 O450 1.905 . S
Zn442 O451 1.898 . S
Zn442 O459 1.920 . S
Zn443 O446 2.080 . S
Zn443 O449 2.114 . S
Zn443 O452 2.120 . S
Zn443 O454 2.120 1_565 S
Zn443 O455 2.114 . S
Zn443 O458 2.080 . S
C444 O449 1.166 . S
C444 O450 1.182 . S
C445 O451 1.167 . S
C445 O452 1.299 . S
O446 Zn443 2.080 . S
O446 C460 1.305 . S
O447 Zn441 1.920 . S
O447 C460 1.234 1_545 S
C448 O453 1.167 . S
C448 O454 1.299 . S
O449 Zn443 2.114 . S
O449 C444 1.166 . S
O450 Zn442 1.905 . S
O450 C444 1.182 . S
O451 Zn442 1.898 . S
O451 C445 1.167 . S
O452 Zn443 2.120 . S
O452 C445 1.299 . S
O453 Zn441 1.898 . S
O453 C448 1.167 . S
O454 Zn443 2.120 1_545 S
O454 C448 1.299 . S
O455 Zn443 2.114 . S
O455 C457 1.166 1_565 S
O456 Zn441 1.905 . S
O456 C457 1.182 . S
C457 O455 1.166 1_545 S
C457 O456 1.182 . S
O458 Zn443 2.080 . S
O458 C461 1.305 . S
O459 Zn442 1.920 . S
O459 C461 1.234 . S
C460 O446 1.305 . S
C460 O447 1.234 1_565 S
C461 O458 1.305 . S
C461 O459 1.234 . S
Zn462 O468 1.920 . S
Zn462 O474 1.898 . S
Zn462 O477 1.905 . S
Zn463 O471 1.905 . S
Zn463 O472 1.898 . S
Zn463 O480 1.920 . S
Zn464 O467 2.080 . S
Zn464 O470 2.114 . S
Zn464 O473 2.120 . S
Zn464 O475 2.120 . S
Zn464 O476 2.114 . S
Zn464 O479 2.080 . S
C465 O470 1.166 . S
C465 O471 1.182 . S
C466 O472 1.167 . S
C466 O473 1.299 . S
O467 Zn464 2.080 . S
O467 C481 1.305 . S
O468 Zn462 1.920 . S
O468 C481 1.234 . S
C469 O474 1.167 . S
C469 O475 1.299 . S
O470 Zn464 2.114 . S
O470 C465 1.166 . S
O471 Zn463 1.905 . S
O471 C465 1.182 . S
O472 Zn463 1.898 . S
O472 C466 1.167 . S
O473 Zn464 2.120 . S
O473 C466 1.299 . S
O474 Zn462 1.898 . S
O474 C469 1.167 . S
O475 Zn464 2.120 . S
O475 C469 1.299 . S
O476 Zn464 2.114 . S
O476 C478 1.166 . S
O477 Zn462 1.905 . S
O477 C478 1.182 . S
C478 O476 1.166 . S
C478 O477 1.182 . S
O479 Zn464 2.080 . S
O479 C482 1.305 . S
O480 Zn463 1.920 . S
O480 C482 1.234 . S
C481 O467 1.305 . S
C481 O468 1.234 . S
C482 O479 1.305 . S
C482 O480 1.234 . S
Zn483 O489 1.920 . S
Zn483 O495 1.898 . S
Zn483 O498 1.905 . S
Zn484 O492 1.905 . S
Zn484 O493 1.898 . S
Zn484 O501 1.920 . S
Zn485 O488 2.080 . S
Zn485 O491 2.114 . S
Zn485 O494 2.120 . S
Zn485 O496 2.120 . S
Zn485 O497 2.114 . S
Zn485 O500 2.080 . S
C486 O491 1.166 . S
C486 O492 1.182 . S
C487 O493 1.167 . S
C487 O494 1.299 . S
O488 Zn485 2.080 . S
O488 C502 1.305 . S
O489 Zn483 1.920 . S
O489 C502 1.234 . S
C490 O495 1.167 . S
C490 O496 1.299 . S
O491 Zn485 2.114 . S
O491 C486 1.166 . S
O492 Zn484 1.905 . S
O492 C486 1.182 . S
O493 Zn484 1.898 . S
O493 C487 1.167 . S
O494 Zn485 2.120 . S
O494 C487 1.299 . S
O495 Zn483 1.898 . S
O495 C490 1.167 . S
O496 Zn485 2.120 . S
O496 C490 1.299 . S
O497 Zn485 2.114 . S
O497 C499 1.166 . S
O498 Zn483 1.905 . S
O498 C499 1.182 . S
C499 O497 1.166 . S
C499 O498 1.182 . S
O500 Zn485 2.080 . S
O500 C503 1.305 . S
O501 Zn484 1.920 . S
O501 C503 1.234 . S
C502 O488 1.305 . S
C502 O489 1.234 . S
C503 O500 1.305 . S
C503 O501 1.234 . S
Zn504 O510 1.920 . S
Zn504 O516 1.898 . S
Zn504 O519 1.905 . S
Zn505 O513 1.905 . S
Zn505 O514 1.898 1_455 S
Zn505 O522 1.920 . S
Zn506 O509 2.080 . S
Zn506 O512 2.114 1_655 S
Zn506 O515 2.120 1_556 S
Zn506 O517 2.120 . S
Zn506 O518 2.114 . S
Zn506 O521 2.080 1_655 S
C507 O512 1.166 1_554 S
C507 O513 1.182 . S
C508 O514 1.167 . S
C508 O515 1.299 . S
O509 Zn506 2.080 . S
O509 C523 1.305 . S
O510 Zn504 1.920 . S
O510 C523 1.234 . S
C511 O516 1.167 . S
C511 O517 1.299 . S
O512 Zn506 2.114 1_455 S
O512 C507 1.166 1_556 S
O513 Zn505 1.905 . S
O513 C507 1.182 . S
O514 Zn505 1.898 1_655 S
O514 C508 1.167 . S
O515 Zn506 2.120 1_554 S
O515 C508 1.299 . S
O516 Zn504 1.898 . S
O516 C511 1.167 . S
O517 Zn506 2.120 . S
O517 C511 1.299 . S
O518 Zn506 2.114 . S
O518 C520 1.166 . S
O519 Zn504 1.905 . S
O519 C520 1.182 . S
C520 O518 1.166 . S
C520 O519 1.182 . S
O521 Zn506 2.080 1_455 S
O521 C524 1.305 . S
O522 Zn505 1.920 . S
O522 C524 1.234 1_554 S
C523 O509 1.305 . S
C523 O510 1.234 . S
C524 O521 1.305 . S
C524 O522 1.234 1_556 S
Zn525 O531 1.920 . S
Zn525 O537 1.898 . S
Zn525 O540 1.905 . S
Zn526 O534 1.905 . S
Zn526 O535 1.898 . S
Zn526 O543 1.920 . S
Zn527 O530 2.080 . S
Zn527 O533 2.114 . S
Zn527 O536 2.120 . S
Zn527 O538 2.120 . S
Zn527 O539 2.114 . S
Zn527 O542 2.080 . S
C528 O533 1.166 . S
C528 O534 1.182 . S
C529 O535 1.167 . S
C529 O536 1.299 . S
O530 Zn527 2.080 . S
O530 C544 1.305 . S
O531 Zn525 1.920 . S
O531 C544 1.234 . S
C532 O537 1.167 . S
C532 O538 1.299 . S
O533 Zn527 2.114 . S
O533 C528 1.166 . S
O534 Zn526 1.905 . S
O534 C528 1.182 . S
O535 Zn526 1.898 . S
O535 C529 1.167 . S
O536 Zn527 2.120 . S
O536 C529 1.299 . S
O537 Zn525 1.898 . S
O537 C532 1.167 . S
O538 Zn527 2.120 . S
O538 C532 1.299 . S
O539 Zn527 2.114 . S
O539 C541 1.166 . S
O540 Zn525 1.905 . S
O540 C541 1.182 . S
C541 O539 1.166 . S
C541 O540 1.182 . S
O542 Zn527 2.080 . S
O542 C545 1.305 . S
O543 Zn526 1.920 . S
O543 C545 1.234 . S
C544 O530 1.305 . S
C544 O531 1.234 . S
C545 O542 1.305 . S
C545 O543 1.234 . S
Zn546 O552 1.920 . S
Zn546 O558 1.898 . S
Zn546 O561 1.905 . S
Zn547 O555 1.905 . S
Zn547 O556 1.898 . S
Zn547 O564 1.920 . S
Zn548 O551 2.080 . S
Zn548 O554 2.114 . S
Zn548 O557 2.120 . S
Zn548 O559 2.120 . S
Zn548 O560 2.114 . S
Zn548 O563 2.080 . S
C549 O554 1.166 . S
C549 O555 1.182 . S
C550 O556 1.167 . S
C550 O557 1.299 . S
O551 Zn548 2.080 . S
O551 C565 1.305 . S
O552 Zn546 1.920 . S
O552 C565 1.234 . S
C553 O558 1.167 . S
C553 O559 1.299 . S
O554 Zn548 2.114 . S
O554 C549 1.166 . S
O555 Zn547 1.905 . S
O555 C549 1.182 . S
O556 Zn547 1.898 . S
O556 C550 1.167 . S
O557 Zn548 2.120 . S
O557 C550 1.299 . S
O558 Zn546 1.898 . S
O558 C553 1.167 . S
O559 Zn548 2.120 . S
O559 C553 1.299 . S
O560 Zn548 2.114 . S
O560 C562 1.166 . S
O561 Zn546 1.905 . S
O561 C562 1.182 . S
C562 O560 1.166 . S
C562 O561 1.182 . S
O563 Zn548 2.080 . S
O563 C566 1.305 . S
O564 Zn547 1.920 . S
O564 C566 1.234 . S
C565 O551 1.305 . S
C565 O552 1.234 . S
C566 O563 1.305 . S
C566 O564 1.234 . S
Zn567 O573 1.920 . S
Zn567 O579 1.898 . S
Zn567 O582 1.905 . S
Zn568 O576 1.905 . S
Zn568 O577 1.898 . S
Zn568 O585 1.920 . S
Zn569 O572 2.080 . S
Zn569 O575 2.114 . S
Zn569 O578 2.120 . S
Zn569 O580 2.120 . S
Zn569 O581 2.114 . S
Zn569 O584 2.080 . S
C570 O575 1.166 . S
C570 O576 1.182 . S
C571 O577 1.167 . S
C571 O578 1.299 . S
O572 Zn569 2.080 . S
O572 C586 1.305 . S
O573 Zn567 1.920 . S
O573 C586 1.234 . S
C574 O579 1.167 . S
C574 O580 1.299 . S
O575 Zn569 2.114 . S
O575 C570 1.166 . S
O576 Zn568 1.905 . S
O576 C570 1.182 . S
O577 Zn568 1.898 . S
O577 C571 1.167 . S
O578 Zn569 2.120 . S
O578 C571 1.299 . S
O579 Zn567 1.898 . S
O579 C574 1.167 . S
O580 Zn569 2.120 . S
O580 C574 1.299 . S
O581 Zn569 2.114 . S
O581 C583 1.166 . S
O582 Zn567 1.905 . S
O582 C583 1.182 . S
C583 O581 1.166 . S
C583 O582 1.182 . S
O584 Zn569 2.080 . S
O584 C587 1.305 . S
O585 Zn568 1.920 . S
O585 C587 1.234 . S
C586 O572 1.305 . S
C586 O573 1.234 . S
C587 O584 1.305 . S
C587 O585 1.234 . S
Zn588 O594 1.920 . S
Zn588 O600 1.898 . S
Zn588 O603 1.905 . S
Zn589 O597 1.905 . S
Zn589 O598 1.898 1_455 S
Zn589 O606 1.920 . S
Zn590 O593 2.080 . S
Zn590 O596 2.114 1_655 S
Zn590 O599 2.120 . S
Zn590 O601 2.120 . S
Zn590 O602 2.114 . S
Zn590 O605 2.080 1_655 S
C591 O596 1.166 . S
C591 O597 1.182 . S
C592 O598 1.167 . S
C592 O599 1.299 . S
O593 Zn590 2.080 . S
O593 C607 1.305 . S
O594 Zn588 1.920 . S
O594 C607 1.234 . S
C595 O600 1.167 . S
C595 O601 1.299 . S
O596 Zn590 2.114 1_455 S
O596 C591 1.166 . S
O597 Zn589 1.905 . S
O597 C591 1.182 . S
O598 Zn589 1.898 1_655 S
O598 C592 1.167 . S
O599 Zn590 2.120 . S
O599 C592 1.299 . S
O600 Zn588 1.898 . S
O600 C595 1.167 . S
O601 Zn590 2.120 . S
O601 C595 1.299 . S
O602 Zn590 2.114 . S
O602 C604 1.166 . S
O603 Zn588 1.905 . S
O603 C604 1.182 . S
C604 O602 1.166 . S
C604 O603 1.182 . S
O605 Zn590 2.080 1_455 S
O605 C608 1.305 . S
O606 Zn589 1.920 . S
O606 C608 1.234 . S
C607 O593 1.305 . S
C607 O594 1.234 . S
C608 O605 1.305 . S
C608 O606 1.234 . S
Zn609 O615 1.920 . S
Zn609 O621 1.898 . S
Zn609 O624 1.905 . S
Zn610 O618 1.905 . S
Zn610 O619 1.898 . S
Zn610 O627 1.920 . S
Zn611 O614 2.080 . S
Zn611 O617 2.114 . S
Zn611 O620 2.120 . S
Zn611 O622 2.120 . S
Zn611 O623 2.114 . S
Zn611 O626 2.080 . S
C612 O617 1.166 . S
C612 O618 1.182 . S
C613 O619 1.167 . S
C613 O620 1.299 . S
O614 Zn611 2.080 . S
O614 C628 1.305 . S
O615 Zn609 1.920 . S
O615 C628 1.234 . S
C616 O621 1.167 . S
C616 O622 1.299 . S
O617 Zn611 2.114 . S
O617 C612 1.166 . S
O618 Zn610 1.905 . S
O618 C612 1.182 . S
O619 Zn610 1.898 . S
O619 C613 1.167 . S
O620 Zn611 2.120 . S
O620 C613 1.299 . S
O621 Zn609 1.898 . S
O621 C616 1.167 . S
O622 Zn611 2.120 . S
O622 C616 1.299 . S
O623 Zn611 2.114 . S
O623 C625 1.166 . S
O624 Zn609 1.905 . S
O624 C625 1.182 . S
C625 O623 1.166 . S
C625 O624 1.182 . S
O626 Zn611 2.080 . S
O626 C629 1.305 . S
O627 Zn610 1.920 . S
O627 C629 1.234 . S
C628 O614 1.305 . S
C628 O615 1.234 . S
C629 O626 1.305 . S
C629 O627 1.234 . S
Zn630 O636 1.920 . S
Zn630 O642 1.898 . S
Zn630 O645 1.905 . S
Zn631 O639 1.905 . S
Zn631 O640 1.898 . S
Zn631 O648 1.920 . S
Zn632 O635 2.080 . S
Zn632 O638 2.114 . S
Zn632 O641 2.120 1_554 S
Zn632 O643 2.120 . S
Zn632 O644 2.114 . S
Zn632 O647 2.080 . S
C633 O638 1.166 1_556 S
C633 O639 1.182 . S
C634 O640 1.167 . S
C634 O641 1.299 . S
O635 Zn632 2.080 . S
O635 C649 1.305 . S
O636 Zn630 1.920 . S
O636 C649 1.234 . S
C637 O642 1.167 . S
C637 O643 1.299 . S
O638 Zn632 2.114 . S
O638 C633 1.166 1_554 S
O639 Zn631 1.905 . S
O639 C633 1.182 . S
O640 Zn631 1.898 . S
O640 C634 1.167 . S
O641 Zn632 2.120 1_556 S
O641 C634 1.299 . S
O642 Zn630 1.898 . S
O642 C637 1.167 . S
O643 Zn632 2.120 . S
O643 C637 1.299 . S
O644 Zn632 2.114 . S
O644 C646 1.166 . S
O645 Zn630 1.905 . S
O645 C646 1.182 . S
C646 O644 1.166 . S
C646 O645 1.182 . S
O647 Zn632 2.080 . S
O647 C650 1.305 . S
O648 Zn631 1.920 . S
O648 C650 1.234 1_556 S
C649 O635 1.305 . S
C649 O636 1.234 . S
C650 O647 1.305 . S
C650 O648 1.234 1_554 S
Zn651 O657 1.920 . S
Zn651 O663 1.898 . S
Zn651 O666 1.905 . S
Zn652 O660 1.905 . S
Zn652 O661 1.898 . S
Zn652 O669 1.920 . S
Zn653 O656 2.080 . S
Zn653 O659 2.114 . S
Zn653 O662 2.120 . S
Zn653 O664 2.120 . S
Zn653 O665 2.114 . S
Zn653 O668 2.080 . S
C654 O659 1.166 . S
C654 O660 1.182 . S
C655 O661 1.167 . S
C655 O662 1.299 . S
O656 Zn653 2.080 . S
O656 C670 1.305 . S
O657 Zn651 1.920 . S
O657 C670 1.234 . S
C658 O663 1.167 . S
C658 O664 1.299 . S
O659 Zn653 2.114 . S
O659 C654 1.166 . S
O660 Zn652 1.905 . S
O660 C654 1.182 . S
O661 Zn652 1.898 . S
O661 C655 1.167 . S
O662 Zn653 2.120 . S
O662 C655 1.299 . S
O663 Zn651 1.898 . S
O663 C658 1.167 . S
O664 Zn653 2.120 . S
O664 C658 1.299 . S
O665 Zn653 2.114 . S
O665 C667 1.166 . S
O666 Zn651 1.905 . S
O666 C667 1.182 . S
C667 O665 1.166 . S
C667 O666 1.182 . S
O668 Zn653 2.080 . S
O668 C671 1.305 . S
O669 Zn652 1.920 . S
O669 C671 1.234 . S
C670 O656 1.305 . S
C670 O657 1.234 . S
C671 O668 1.305 . S
C671 O669 1.234 . S
Zn672 O678 1.920 . S
Zn672 O684 1.898 . S
Zn672 O687 1.905 . S
Zn673 O681 1.905 . S
Zn673 O682 1.898 1_545 S
Zn673 O690 1.920 . S
Zn674 O677 2.080 . S
Zn674 O680 2.114 1_565 S
Zn674 O683 2.120 1_655 S
Zn674 O685 2.120 . S
Zn674 O686 2.114 . S
Zn674 O689 2.080 1_565 S
C675 O680 1.166 1_455 S
C675 O681 1.182 . S
C676 O682 1.167 . S
C676 O683 1.299 . S
O677 Zn674 2.080 . S
O677 C691 1.305 . S
O678 Zn672 1.920 . S
O678 C691 1.234 . S
C679 O684 1.167 . S
C679 O685 1.299 . S
O680 Zn674 2.114 1_545 S
O680 C675 1.166 1_655 S
O681 Zn673 1.905 . S
O681 C675 1.182 . S
O682 Zn673 1.898 1_565 S
O682 C676 1.167 . S
O683 Zn674 2.120 1_455 S
O683 C676 1.299 . S
O684 Zn672 1.898 . S
O684 C679 1.167 . S
O685 Zn674 2.120 . S
O685 C679 1.299 . S
O686 Zn674 2.114 . S
O686 C688 1.166 . S
O687 Zn672 1.905 . S
O687 C688 1.182 . S
C688 O686 1.166 . S
C688 O687 1.182 . S
O689 Zn674 2.080 1_545 S
O689 C692 1.305 . S
O690 Zn673 1.920 . S
O690 C692 1.234 1_455 S
C691 O677 1.305 . S
C691 O678 1.234 . S
C692 O689 1.305 . S
C692 O690 1.234 1_655 S
Zn693 O699 1.920 . S
Zn693 O705 1.898 . S
Zn693 O708 1.905 . S
Zn694 O702 1.905 . S
Zn694 O703 1.898 . S
Zn694 O711 1.920 . S
Zn695 O698 2.080 . S
Zn695 O701 2.114 . S
Zn695 O704 2.120 . S
Zn695 O706 2.120 . S
Zn695 O707 2.114 . S
Zn695 O710 2.080 . S
C696 O701 1.166 . S
C696 O702 1.182 . S
C697 O703 1.167 . S
C697 O704 1.299 . S
O698 Zn695 2.080 . S
O698 C712 1.305 . S
O699 Zn693 1.920 . S
O699 C712 1.234 . S
C700 O705 1.167 . S
C700 O706 1.299 . S
O701 Zn695 2.114 . S
O701 C696 1.166 . S
O702 Zn694 1.905 . S
O702 C696 1.182 . S
O703 Zn694 1.898 . S
O703 C697 1.167 . S
O704 Zn695 2.120 . S
O704 C697 1.299 . S
O705 Zn693 1.898 . S
O705 C700 1.167 . S
O706 Zn695 2.120 . S
O706 C700 1.299 . S
O707 Zn695 2.114 . S
O707 C709 1.166 . S
O708 Zn693 1.905 . S
O708 C709 1.182 . S
C709 O707 1.166 . S
C709 O708 1.182 . S
O710 Zn695 2.080 . S
O710 C713 1.305 . S
O711 Zn694 1.920 . S
O711 C713 1.234 . S
C712 O698 1.305 . S
C712 O699 1.234 . S
C713 O710 1.305 . S
C713 O711 1.234 . S
Zn714 O720 1.920 . S
Zn714 O726 1.898 1_565 S
Zn714 O729 1.905 . S
Zn715 O723 1.905 . S
Zn715 O724 1.898 . S
Zn715 O732 1.920 . S
Zn716 O719 2.080 1_545 S
Zn716 O722 2.114 . S
Zn716 O725 2.120 . S
Zn716 O727 2.120 . S
Zn716 O728 2.114 1_545 S
Zn716 O731 2.080 . S
C717 O722 1.166 . S
C717 O723 1.182 . S
C718 O724 1.167 . S
C718 O725 1.299 . S
O719 Zn716 2.080 1_565 S
O719 C733 1.305 . S
O720 Zn714 1.920 . S
O720 C733 1.234 . S
C721 O726 1.167 . S
C721 O727 1.299 . S
O722 Zn716 2.114 . S
O722 C717 1.166 . S
O723 Zn715 1.905 . S
O723 C717 1.182 . S
O724 Zn715 1.898 . S
O724 C718 1.167 . S
O725 Zn716 2.120 . S
O725 C718 1.299 . S
O726 Zn714 1.898 1_545 S
O726 C721 1.167 . S
O727 Zn716 2.120 . S
O727 C721 1.299 . S
O728 Zn716 2.114 1_565 S
O728 C730 1.166 . S
O729 Zn714 1.905 . S
O729 C730 1.182 . S
C730 O728 1.166 . S
C730 O729 1.182 . S
O731 Zn716 2.080 . S
O731 C734 1.305 . S
O732 Zn715 1.920 . S
O732 C734 1.234 . S
C733 O719 1.305 . S
C733 O720 1.234 . S
C734 O731 1.305 . S
C734 O732 1.234 . S
Zn735 O741 1.920 . S
Zn735 O747 1.898 . S
Zn735 O750 1.905 . S
Zn736 O744 1.905 . S
Zn736 O745 1.898 . S
Zn736 O753 1.920 . S
Zn737 O740 2.080 . S
Zn737 O743 2.114 . S
Zn737 O746 2.120 . S
Zn737 O748 2.120 . S
Zn737 O749 2.114 . S
Zn737 O752 2.080 . S
C738 O743 1.166 . S
C738 O744 1.182 . S
C739 O745 1.167 . S
C739 O746 1.299 . S
O740 Zn737 2.080 . S
O740 C754 1.305 . S
O741 Zn735 1.920 . S
O741 C754 1.234 . S
C742 O747 1.167 . S
C742 O748 1.299 . S
O743 Zn737 2.114 . S
O743 C738 1.166 . S
O744 Zn736 1.905 . S
O744 C738 1.182 . S
O745 Zn736 1.898 . S
O745 C739 1.167 . S
O746 Zn737 2.120 . S
O746 C739 1.299 . S
O747 Zn735 1.898 . S
O747 C742 1.167 . S
O748 Zn737 2.120 . S
O748 C742 1.299 . S
O749 Zn737 2.114 . S
O749 C751 1.166 . S
O750 Zn735 1.905 . S
O750 C751 1.182 . S
C751 O749 1.166 . S
C751 O750 1.182 . S
O752 Zn737 2.080 . S
O752 C755 1.305 . S
O753 Zn736 1.920 . S
O753 C755 1.234 . S
C754 O740 1.305 . S
C754 O741 1.234 . S
C755 O752 1.305 . S
C755 O753 1.234 . S
Zn756 O762 1.920 . S
Zn756 O768 1.898 . S
Zn756 O771 1.905 . S
Zn757 O765 1.905 . S
Zn757 O766 1.898 1_565 S
Zn757 O774 1.920 . S
Zn758 O761 2.080 . S
Zn758 O764 2.114 1_545 S
Zn758 O767 2.120 1_655 S
Zn758 O769 2.120 . S
Zn758 O770 2.114 . S
Zn758 O773 2.080 1_545 S
C759 O764 1.166 1_455 S
C759 O765 1.182 . S
C760 O766 1.167 . S
C760 O767 1.299 . S
O761 Zn758 2.080 . S
O761 C775 1.305 . S
O762 Zn756 1.920 . S
O762 C775 1.234 . S
C763 O768 1.167 . S
C763 O769 1.299 . S
O764 Zn758 2.114 1_565 S
O764 C759 1.166 1_655 S
O765 Zn757 1.905 . S
O765 C759 1.182 . S
O766 Zn757 1.898 1_545 S
O766 C760 1.167 . S
O767 Zn758 2.120 1_455 S
O767 C760 1.299 . S
O768 Zn756 1.898 . S
O768 C763 1.167 . S
O769 Zn758 2.120 . S
O769 C763 1.299 . S
O770 Zn758 2.114 . S
O770 C772 1.166 . S
O771 Zn756 1.905 . S
O771 C772 1.182 . S
C772 O770 1.166 . S
C772 O771 1.182 . S
O773 Zn758 2.080 1_565 S
O773 C776 1.305 . S
O774 Zn757 1.920 . S
O774 C776 1.234 1_455 S
C775 O761 1.305 . S
C775 O762 1.234 . S
C776 O773 1.305 . S
C776 O774 1.234 1_655 S
Zn777 O783 1.920 . S
Zn777 O789 1.898 . S
Zn777 O792 1.905 . S
Zn778 O786 1.905 . S
Zn778 O787 1.898 . S
Zn778 O795 1.920 . S
Zn779 O782 2.080 . S
Zn779 O785 2.114 . S
Zn779 O788 2.120 . S
Zn779 O790 2.120 . S
Zn779 O791 2.114 . S
Zn779 O794 2.080 . S
C780 O785 1.166 . S
C780 O786 1.182 . S
C781 O787 1.167 . S
C781 O788 1.299 . S
O782 Zn779 2.080 . S
O782 C796 1.305 . S
O783 Zn777 1.920 . S
O783 C796 1.234 . S
C784 O789 1.167 . S
C784 O790 1.299 . S
O785 Zn779 2.114 . S
O785 C780 1.166 . S
O786 Zn778 1.905 . S
O786 C780 1.182 . S
O787 Zn778 1.898 . S
O787 C781 1.167 . S
O788 Zn779 2.120 . S
O788 C781 1.299 . S
O789 Zn777 1.898 . S
O789 C784 1.167 . S
O790 Zn779 2.120 . S
O790 C784 1.299 . S
O791 Zn779 2.114 . S
O791 C793 1.166 . S
O792 Zn777 1.905 . S
O792 C793 1.182 . S
C793 O791 1.166 . S
C793 O792 1.182 . S
O794 Zn779 2.080 . S
O794 C797 1.305 . S
O795 Zn778 1.920 . S
O795 C797 1.234 . S
C796 O782 1.305 . S
C796 O783 1.234 . S
C797 O794 1.305 . S
C797 O795 1.234 . S
Zn798 O804 1.920 . S
Zn798 O810 1.898 1_545 S
Zn798 O813 1.905 . S
Zn799 O807 1.905 . S
Zn799 O808 1.898 . S
Zn799 O816 1.920 . S
Zn800 O803 2.080 1_565 S
Zn800 O806 2.114 . S
Zn800 O809 2.120 . S
Zn800 O811 2.120 . S
Zn800 O812 2.114 1_565 S
Zn800 O815 2.080 . S
C801 O806 1.166 . S
C801 O807 1.182 . S
C802 O808 1.167 . S
C802 O809 1.299 . S
O803 Zn800 2.080 1_545 S
O803 C817 1.305 . S
O804 Zn798 1.920 . S
O804 C817 1.234 . S
C805 O810 1.167 . S
C805 O811 1.299 . S
O806 Zn800 2.114 . S
O806 C801 1.166 . S
O807 Zn799 1.905 . S
O807 C801 1.182 . S
O808 Zn799 1.898 . S
O808 C802 1.167 . S
O809 Zn800 2.120 . S
O809 C802 1.299 . S
O810 Zn798 1.898 1_565 S
O810 C805 1.167 . S
O811 Zn800 2.120 . S
O811 C805 1.299 . S
O812 Zn800 2.114 1_545 S
O812 C814 1.166 . S
O813 Zn798 1.905 . S
O813 C814 1.182 . S
C814 O812 1.166 . S
C814 O813 1.182 . S
O815 Zn800 2.080 . S
O815 C818 1.305 . S
O816 Zn799 1.920 . S
O816 C818 1.234 . S
C817 O803 1.305 . S
C817 O804 1.234 . S
C818 O815 1.305 . S
C818 O816 1.234 . S
Zn819 O825 1.920 . S
Zn819 O831 1.898 . S
Zn819 O834 1.905 . S
Zn820 O828 1.905 . S
Zn820 O829 1.898 . S
Zn820 O837 1.920 . S
Zn821 O824 2.080 . S
Zn821 O827 2.114 . S
Zn821 O830 2.120 . S
Zn821 O832 2.120 . S
Zn821 O833 2.114 . S
Zn821 O836 2.080 . S
C822 O827 1.166 . S
C822 O828 1.182 . S
C823 O829 1.167 . S
C823 O830 1.299 . S
O824 Zn821 2.080 . S
O824 C838 1.305 . S
O825 Zn819 1.920 . S
O825 C838 1.234 . S
C826 O831 1.167 . S
C826 O832 1.299 . S
O827 Zn821 2.114 . S
O827 C822 1.166 . S
O828 Zn820 1.905 . S
O828 C822 1.182 . S
O829 Zn820 1.898 . S
O829 C823 1.167 . S
O830 Zn821 2.120 . S
O830 C823 1.299 . S
O831 Zn819 1.898 . S
O831 C826 1.167 . S
O832 Zn821 2.120 . S
O832 C826 1.299 . S
O833 Zn821 2.114 . S
O833 C835 1.166 . S
O834 Zn819 1.905 . S
O834 C835 1.182 . S
C835 O833 1.166 . S
C835 O834 1.182 . S
O836 Zn821 2.080 . S
O836 C839 1.305 . S
O837 Zn820 1.920 . S
O837 C839 1.234 . S
C838 O824 1.305 . S
C838 O825 1.234 . S
C839 O836 1.305 . S
C839 O837 1.234 . S
Zn840 O846 1.920 . S
Zn840 O852 1.898 1_554 S
Zn840 O855 1.905 . S
Zn841 O849 1.905 . S
Zn841 O850 1.898 . S
Zn841 O858 1.920 . S
Zn842 O845 2.080 1_556 S
Zn842 O848 2.114 . S
Zn842 O851 2.120 . S
Zn842 O853 2.120 1_565 S
Zn842 O854 2.114 1_556 S
Zn842 O857 2.080 . S
C843 O848 1.166 . S
C843 O849 1.182 . S
C844 O850 1.167 . S
C844 O851 1.299 . S
O845 Zn842 2.080 1_554 S
O845 C859 1.305 . S
O846 Zn840 1.920 . S
O846 C859 1.234 1_545 S
C847 O852 1.167 . S
C847 O853 1.299 . S
O848 Zn842 2.114 . S
O848 C843 1.166 . S
O849 Zn841 1.905 . S
O849 C843 1.182 . S
O850 Zn841 1.898 . S
O850 C844 1.167 . S
O851 Zn842 2.120 . S
O851 C844 1.299 . S
O852 Zn840 1.898 1_556 S
O852 C847 1.167 . S
O853 Zn842 2.120 1_545 S
O853 C847 1.299 . S
O854 Zn842 2.114 1_554 S
O854 C856 1.166 1_565 S
O855 Zn840 1.905 . S
O855 C856 1.182 . S
C856 O854 1.166 1_545 S
C856 O855 1.182 . S
O857 Zn842 2.080 . S
O857 C860 1.305 . S
O858 Zn841 1.920 . S
O858 C860 1.234 . S
C859 O845 1.305 . S
C859 O846 1.234 1_565 S
C860 O857 1.305 . S
C860 O858 1.234 . S
Zn861 O867 1.920 . S
Zn861 O873 1.898 . S
Zn861 O876 1.905 . S
Zn862 O870 1.905 . S
Zn862 O871 1.898 1_556 S
Zn862 O879 1.920 . S
Zn863 O866 2.080 . S
Zn863 O869 2.114 1_554 S
Zn863 O872 2.120 . S
Zn863 O874 2.120 . S
Zn863 O875 2.114 . S
Zn863 O878 2.080 1_554 S
C864 O869 1.166 . S
C864 O870 1.182 . S
C865 O871 1.167 . S
C865 O872 1.299 . S
O866 Zn863 2.080 . S
O866 C880 1.305 . S
O867 Zn861 1.920 . S
O867 C880 1.234 . S
C868 O873 1.167 . S
C868 O874 1.299 . S
O869 Zn863 2.114 1_556 S
O869 C864 1.166 . S
O870 Zn862 1.905 . S
O870 C864 1.182 . S
O871 Zn862 1.898 1_554 S
O871 C865 1.167 . S
O872 Zn863 2.120 . S
O872 C865 1.299 . S
O873 Zn861 1.898 . S
O873 C868 1.167 . S
O874 Zn863 2.120 . S
O874 C868 1.299 . S
O875 Zn863 2.114 . S
O875 C877 1.166 . S
O876 Zn861 1.905 . S
O876 C877 1.182 . S
C877 O875 1.166 . S
C877 O876 1.182 . S
O878 Zn863 2.080 1_556 S
O878 C881 1.305 . S
O879 Zn862 1.920 . S
O879 C881 1.234 . S
C880 O866 1.305 . S
C880 O867 1.234 . S
C881 O878 1.305 . S
C881 O879 1.234 . S
Zn882 O888 1.920 . S
Zn882 O894 1.898 . S
Zn882 O897 1.905 . S
Zn883 O891 1.905 . S
Zn883 O892 1.898 . S
Zn883 O900 1.920 . S
Zn884 O887 2.080 . S
Zn884 O890 2.114 . S
Zn884 O893 2.120 . S
Zn884 O895 2.120 . S
Zn884 O896 2.114 . S
Zn884 O899 2.080 . S
C885 O890 1.166 . S
C885 O891 1.182 . S
C886 O892 1.167 . S
C886 O893 1.299 . S
O887 Zn884 2.080 . S
O887 C901 1.305 . S
O888 Zn882 1.920 . S
O888 C901 1.234 . S
C889 O894 1.167 . S
C889 O895 1.299 . S
O890 Zn884 2.114 . S
O890 C885 1.166 . S
O891 Zn883 1.905 . S
O891 C885 1.182 . S
O892 Zn883 1.898 . S
O892 C886 1.167 . S
O893 Zn884 2.120 . S
O893 C886 1.299 . S
O894 Zn882 1.898 . S
O894 C889 1.167 . S
O895 Zn884 2.120 . S
O895 C889 1.299 . S
O896 Zn884 2.114 . S
O896 C898 1.166 . S
O897 Zn882 1.905 . S
O897 C898 1.182 . S
C898 O896 1.166 . S
C898 O897 1.182 . S
O899 Zn884 2.080 . S
O899 C902 1.305 . S
O900 Zn883 1.920 . S
O900 C902 1.234 . S
C901 O887 1.305 . S
C901 O888 1.234 . S
C902 O899 1.305 . S
C902 O900 1.234 . S
Zn903 O909 1.920 . S
Zn903 O915 1.898 . S
Zn903 O918 1.905 . S
Zn904 O912 1.905 . S
Zn904 O913 1.898 . S
Zn904 O921 1.920 . S
Zn905 O908 2.080 . S
Zn905 O911 2.114 . S
Zn905 O914 2.120 . S
Zn905 O916 2.120 . S
Zn905 O917 2.114 . S
Zn905 O920 2.080 . S
C906 O911 1.166 . S
C906 O912 1.182 . S
C907 O913 1.167 . S
C907 O914 1.299 . S
O908 Zn905 2.080 . S
O908 C922 1.305 . S
O909 Zn903 1.920 . S
O909 C922 1.234 . S
C910 O915 1.167 . S
C910 O916 1.299 . S
O911 Zn905 2.114 . S
O911 C906 1.166 . S
O912 Zn904 1.905 . S
O912 C906 1.182 . S
O913 Zn904 1.898 . S
O913 C907 1.167 . S
O914 Zn905 2.120 . S
O914 C907 1.299 . S
O915 Zn903 1.898 . S
O915 C910 1.167 . S
O916 Zn905 2.120 . S
O916 C910 1.299 . S
O917 Zn905 2.114 . S
O917 C919 1.166 . S
O918 Zn903 1.905 . S
O918 C919 1.182 . S
C919 O917 1.166 . S
C919 O918 1.182 . S
O920 Zn905 2.080 . S
O920 C923 1.305 . S
O921 Zn904 1.920 . S
O921 C923 1.234 . S
C922 O908 1.305 . S
C922 O909 1.234 . S
C923 O920 1.305 . S
C923 O921 1.234 . S
Zn924 O930 1.920 . S
Zn924 O936 1.898 . S
Zn924 O939 1.905 . S
Zn925 O933 1.905 . S
Zn925 O934 1.898 . S
Zn925 O942 1.920 . S
Zn926 O929 2.080 . S
Zn926 O932 2.114 . S
Zn926 O935 2.120 . S
Zn926 O937 2.120 . S
Zn926 O938 2.114 . S
Zn926 O941 2.080 . S
C927 O932 1.166 . S
C927 O933 1.182 . S
C928 O934 1.167 . S
C928 O935 1.299 . S
O929 Zn926 2.080 . S
O929 C943 1.305 . S
O930 Zn924 1.920 . S
O930 C943 1.234 . S
C931 O936 1.167 . S
C931 O937 1.299 . S
O932 Zn926 2.114 . S
O932 C927 1.166 . S
O933 Zn925 1.905 . S
O933 C927 1.182 . S
O934 Zn925 1.898 . S
O934 C928 1.167 . S
O935 Zn926 2.120 . S
O935 C928 1.299 . S
O936 Zn924 1.898 . S
O936 C931 1.167 . S
O937 Zn926 2.120 . S
O937 C931 1.299 . S
O938 Zn926 2.114 . S
O938 C940 1.166 . S
O939 Zn924 1.905 . S
O939 C940 1.182 . S
C940 O938 1.166 . S
C940 O939 1.182 . S
O941 Zn926 2.080 . S
O941 C944 1.305 . S
O942 Zn925 1.920 . S
O942 C944 1.234 . S
C943 O929 1.305 . S
C943 O930 1.234 . S
C944 O941 1.305 . S
C944 O942 1.234 . S
Zn945 O951 1.920 . S
Zn945 O957 1.898 . S
Zn945 O960 1.905 . S
Zn946 O954 1.905 . S
Zn946 O955 1.898 . S
Zn946 O963 1.920 . S
Zn947 O950 2.080 . S
Zn947 O953 2.114 . S
Zn947 O956 2.120 1_545 S
Zn947 O958 2.120 . S
Zn947 O959 2.114 . S
Zn947 O962 2.080 . S
C948 O953 1.166 1_565 S
C948 O954 1.182 . S
C949 O955 1.167 . S
C949 O956 1.299 . S
O950 Zn947 2.080 . S
O950 C964 1.305 . S
O951 Zn945 1.920 . S
O951 C964 1.234 . S
C952 O957 1.167 . S
C952 O958 1.299 . S
O953 Zn947 2.114 . S
O953 C948 1.166 1_545 S
O954 Zn946 1.905 . S
O954 C948 1.182 . S
O955 Zn946 1.898 . S
O955 C949 1.167 . S
O956 Zn947 2.120 1_565 S
O956 C949 1.299 . S
O957 Zn945 1.898 . S
O957 C952 1.167 . S
O958 Zn947 2.120 . S
O958 C952 1.299 . S
O959 Zn947 2.114 . S
O959 C961 1.166 . S
O960 Zn945 1.905 . S
O960 C961 1.182 . S
C961 O959 1.166 . S
C961 O960 1.182 . S
O962 Zn947 2.080 . S
O962 C965 1.305 . S
O963 Zn946 1.920 . S
O963 C965 1.234 1_565 S
C964 O950 1.305 . S
C964 O951 1.234 . S
C965 O962 1.305 . S
C965 O963 1.234 1_545 S
Zn966 O972 1.920 . S
Zn966 O978 1.898 . S
Zn966 O981 1.905 . S
Zn967 O975 1.905 . S
Zn967 O976 1.898 . S
Zn967 O984 1.920 . S
Zn968 O971 2.080 . S
Zn968 O974 2.114 . S
Zn968 O977 2.120 . S
Zn968 O979 2.120 . S
Zn968 O980 2.114 . S
Zn968 O983 2.080 . S
C969 O974 1.166 . S
C969 O975 1.182 . S
C970 O976 1.167 . S
C970 O977 1.299 . S
O971 Zn968 2.080 . S
O971 C985 1.305 . S
O972 Zn966 1.920 . S
O972 C985 1.234 . S
C973 O978 1.167 . S
C973 O979 1.299 . S
O974 Zn968 2.114 . S
O974 C969 1.166 . S
O975 Zn967 1.905 . S
O975 C969 1.182 . S
O976 Zn967 1.898 . S
O976 C970 1.167 . S
O977 Zn968 2.120 . S
O977 C970 1.299 . S
O978 Zn966 1.898 . S
O978 C973 1.167 . S
O979 Zn968 2.120 . S
O979 C973 1.299 . S
O980 Zn968 2.114 . S
O980 C982 1.166 . S
O981 Zn966 1.905 . S
O981 C982 1.182 . S
C982 O980 1.166 . S
C982 O981 1.182 . S
O983 Zn968 2.080 . S
O983 C986 1.305 . S
O984 Zn967 1.920 . S
O984 C986 1.234 . S
C985 O971 1.305 . S
C985 O972 1.234 . S
C986 O983 1.305 . S
C986 O984 1.234 . S
Zn987 O993 1.920 . S
Zn987 O999 1.898 . S
Zn987 O1002 1.905 . S
Zn988 O996 1.905 . S
Zn988 O997 1.898 . S
Zn988 O1005 1.920 . S
Zn989 O992 2.080 . S
Zn989 O995 2.114 . S
Zn989 O998 2.120 . S
Zn989 O1000 2.120 . S
Zn989 O1001 2.114 . S
Zn989 O1004 2.080 . S
C990 O995 1.166 . S
C990 O996 1.182 . S
C991 O997 1.167 . S
C991 O998 1.299 . S
O992 Zn989 2.080 . S
O992 C1006 1.305 . S
O993 Zn987 1.920 . S
O993 C1006 1.234 . S
C994 O999 1.167 . S
C994 O1000 1.299 . S
O995 Zn989 2.114 . S
O995 C990 1.166 . S
O996 Zn988 1.905 . S
O996 C990 1.182 . S
O997 Zn988 1.898 . S
O997 C991 1.167 . S
O998 Zn989 2.120 . S
O998 C991 1.299 . S
O999 Zn987 1.898 . S
O999 C994 1.167 . S
O1000 Zn989 2.120 . S
O1000 C994 1.299 . S
O1001 Zn989 2.114 . S
O1001 C1003 1.166 . S
O1002 Zn987 1.905 . S
O1002 C1003 1.182 . S
C1003 O1001 1.166 . S
C1003 O1002 1.182 . S
O1004 Zn989 2.080 . S
O1004 C1007 1.305 . S
O1005 Zn988 1.920 . S
O1005 C1007 1.234 . S
C1006 O992 1.305 . S
C1006 O993 1.234 . S
C1007 O1004 1.305 . S
C1007 O1005 1.234 . S
Zn1008 O1014 1.920 . S
Zn1008 O1020 1.898 . S
Zn1008 O1023 1.905 . S
Zn1009 O1017 1.905 . S
Zn1009 O1018 1.898 . S
Zn1009 O1026 1.920 . S
Zn1010 O1013 2.080 . S
Zn1010 O1016 2.114 . S
Zn1010 O1019 2.120 . S
Zn1010 O1021 2.120 . S
Zn1010 O1022 2.114 . S
Zn1010 O1025 2.080 . S
C1011 O1016 1.166 . S
C1011 O1017 1.182 . S
C1012 O1018 1.167 . S
C1012 O1019 1.299 . S
O1013 Zn1010 2.080 . S
O1013 C1027 1.305 . S
O1014 Zn1008 1.920 . S
O1014 C1027 1.234 . S
C1015 O1020 1.167 . S
C1015 O1021 1.299 . S
O1016 Zn1010 2.114 . S
O1016 C1011 1.166 . S
O1017 Zn1009 1.905 . S
O1017 C1011 1.182 . S
O1018 Zn1009 1.898 . S
O1018 C1012 1.167 . S
O1019 Zn1010 2.120 . S
O1019 C1012 1.299 . S
O1020 Zn1008 1.898 . S
O1020 C1015 1.167 . S
O1021 Zn1010 2.120 . S
O1021 C1015 1.299 . S
O1022 Zn1010 2.114 . S
O1022 C1024 1.166 . S
O1023 Zn1008 1.905 . S
O1023 C1024 1.182 . S
C1024 O1022 1.166 . S
C1024 O1023 1.182 . S
O1025 Zn1010 2.080 . S
O1025 C1028 1.305 . S
O1026 Zn1009 1.920 . S
O1026 C1028 1.234 . S
C1027 O1013 1.305 . S
C1027 O1014 1.234 . S
C1028 O1025 1.305 . S
C1028 O1026 1.234 . S
Zn1029 O1035 1.920 . S
Zn1029 O1041 1.898 . S
Zn1029 O1044 1.905 . S
Zn1030 O1038 1.905 . S
Zn1030 O1039 1.898 . S
Zn1030 O1047 1.920 . S
Zn1031 O1034 2.080 . S
Zn1031 O1037 2.114 . S
Zn1031 O1040 2.120 . S
Zn1031 O1042 2.120 . S
Zn1031 O1043 2.114 . S
Zn1031 O1046 2.080 . S
C1032 O1037 1.166 . S
C1032 O1038 1.182 . S
C1033 O1039 1.167 . S
C1033 O1040 1.299 . S
O1034 Zn1031 2.080 . S
O1034 C1048 1.305 . S
O1035 Zn1029 1.920 . S
O1035 C1048 1.234 . S
C1036 O1041 1.167 . S
C1036 O1042 1.299 . S
O1037 Zn1031 2.114 . S
O1037 C1032 1.166 . S
O1038 Zn1030 1.905 . S
O1038 C1032 1.182 . S
O1039 Zn1030 1.898 . S
O1039 C1033 1.167 . S
O1040 Zn1031 2.120 . S
O1040 C1033 1.299 . S
O1041 Zn1029 1.898 . S
O1041 C1036 1.167 . S
O1042 Zn1031 2.120 . S
O1042 C1036 1.299 . S
O1043 Zn1031 2.114 . S
O1043 C1045 1.166 . S
O1044 Zn1029 1.905 . S
O1044 C1045 1.182 . S
C1045 O1043 1.166 . S
C1045 O1044 1.182 . S
O1046 Zn1031 2.080 . S
O1046 C1049 1.305 . S
O1047 Zn1030 1.920 . S
O1047 C1049 1.234 . S
C1048 O1034 1.305 . S
C1048 O1035 1.234 . S
C1049 O1046 1.305 . S
C1049 O1047 1.234 . S
Zn1050 O1056 1.920 . S
Zn1050 O1062 1.898 1_455 S
Zn1050 O1065 1.905 . S
Zn1051 O1059 1.905 . S
Zn1051 O1060 1.898 . S
Zn1051 O1068 1.920 . S
Zn1052 O1055 2.080 1_655 S
Zn1052 O1058 2.114 . S
Zn1052 O1061 2.120 . S
Zn1052 O1063 2.120 1_554 S
Zn1052 O1064 2.114 1_655 S
Zn1052 O1067 2.080 . S
C1053 O1058 1.166 . S
C1053 O1059 1.182 . S
C1054 O1060 1.167 . S
C1054 O1061 1.299 . S
O1055 Zn1052 2.080 1_455 S
O1055 C1069 1.305 . S
O1056 Zn1050 1.920 . S
O1056 C1069 1.234 1_556 S
C1057 O1062 1.167 . S
C1057 O1063 1.299 . S
O1058 Zn1052 2.114 . S
O1058 C1053 1.166 . S
O1059 Zn1051 1.905 . S
O1059 C1053 1.182 . S
O1060 Zn1051 1.898 . S
O1060 C1054 1.167 . S
O1061 Zn1052 2.120 . S
O1061 C1054 1.299 . S
O1062 Zn1050 1.898 1_655 S
O1062 C1057 1.167 . S
O1063 Zn1052 2.120 1_556 S
O1063 C1057 1.299 . S
O1064 Zn1052 2.114 1_455 S
O1064 C1066 1.166 1_554 S
O1065 Zn1050 1.905 . S
O1065 C1066 1.182 . S
C1066 O1064 1.166 1_556 S
C1066 O1065 1.182 . S
O1067 Zn1052 2.080 . S
O1067 C1070 1.305 . S
O1068 Zn1051 1.920 . S
O1068 C1070 1.234 . S
C1069 O1055 1.305 . S
C1069 O1056 1.234 1_554 S
C1070 O1067 1.305 . S
C1070 O1068 1.234 . S
Zn1071 O1077 1.920 . S
Zn1071 O1083 1.898 . S
Zn1071 O1086 1.905 . S
Zn1072 O1080 1.905 . S
Zn1072 O1081 1.898 . S
Zn1072 O1089 1.920 . S
Zn1073 O1076 2.080 . S
Zn1073 O1079 2.114 . S
Zn1073 O1082 2.120 . S
Zn1073 O1084 2.120 . S
Zn1073 O1085 2.114 . S
Zn1073 O1088 2.080 . S
C1074 O1079 1.166 . S
C1074 O1080 1.182 . S
C1075 O1081 1.167 . S
C1075 O1082 1.299 . S
O1076 Zn1073 2.080 . S
O1076 C1090 1.305 . S
O1077 Zn1071 1.920 . S
O1077 C1090 1.234 . S
C1078 O1083 1.167 . S
C1078 O1084 1.299 . S
O1079 Zn1073 2.114 . S
O1079 C1074 1.166 . S
O1080 Zn1072 1.905 . S
O1080 C1074 1.182 . S
O1081 Zn1072 1.898 . S
O1081 C1075 1.167 . S
O1082 Zn1073 2.120 . S
O1082 C1075 1.299 . S
O1083 Zn1071 1.898 . S
O1083 C1078 1.167 . S
O1084 Zn1073 2.120 . S
O1084 C1078 1.299 . S
O1085 Zn1073 2.114 . S
O1085 C1087 1.166 . S
O1086 Zn1071 1.905 . S
O1086 C1087 1.182 . S
C1087 O1085 1.166 . S
C1087 O1086 1.182 . S
O1088 Zn1073 2.080 . S
O1088 C1091 1.305 . S
O1089 Zn1072 1.920 . S
O1089 C1091 1.234 . S
C1090 O1076 1.305 . S
C1090 O1077 1.234 . S
C1091 O1088 1.305 . S
C1091 O1089 1.234 . S
Zn1092 O1098 1.920 . S
Zn1092 O1104 1.898 . S
Zn1092 O1107 1.905 . S
Zn1093 O1101 1.905 . S
Zn1093 O1102 1.898 . S
Zn1093 O1110 1.920 . S
Zn1094 O1097 2.080 . S
Zn1094 O1100 2.114 . S
Zn1094 O1103 2.120 1_556 S
Zn1094 O1105 2.120 . S
Zn1094 O1106 2.114 . S
Zn1094 O1109 2.080 . S
C1095 O1100 1.166 1_554 S
C1095 O1101 1.182 . S
C1096 O1102 1.167 . S
C1096 O1103 1.299 . S
O1097 Zn1094 2.080 . S
O1097 C1111 1.305 . S
O1098 Zn1092 1.920 . S
O1098 C1111 1.234 . S
C1099 O1104 1.167 . S
C1099 O1105 1.299 . S
O1100 Zn1094 2.114 . S
O1100 C1095 1.166 1_556 S
O1101 Zn1093 1.905 . S
O1101 C1095 1.182 . S
O1102 Zn1093 1.898 . S
O1102 C1096 1.167 . S
O1103 Zn1094 2.120 1_554 S
O1103 C1096 1.299 . S
O1104 Zn1092 1.898 . S
O1104 C1099 1.167 . S
O1105 Zn1094 2.120 . S
O1105 C1099 1.299 . S
O1106 Zn1094 2.114 . S
O1106 C1108 1.166 . S
O1107 Zn1092 1.905 . S
O1107 C1108 1.182 . S
C1108 O1106 1.166 . S
C1108 O1107 1.182 . S
O1109 Zn1094 2.080 . S
O1109 C1112 1.305 . S
O1110 Zn1093 1.920 . S
O1110 C1112 1.234 1_554 S
C1111 O1097 1.305 . S
C1111 O1098 1.234 . S
C1112 O1109 1.305 . S
C1112 O1110 1.234 1_556 S
Zn1113 O1119 1.920 . S
Zn1113 O1125 1.898 . S
Zn1113 O1128 1.905 . S
Zn1114 O1122 1.905 . S
Zn1114 O1123 1.898 . S
Zn1114 O1131 1.920 . S
Zn1115 O1118 2.080 . S
Zn1115 O1121 2.114 . S
Zn1115 O1124 2.120 . S
Zn1115 O1126 2.120 . S
Zn1115 O1127 2.114 . S
Zn1115 O1130 2.080 . S
C1116 O1121 1.166 . S
C1116 O1122 1.182 . S
C1117 O1123 1.167 . S
C1117 O1124 1.299 . S
O1118 Zn1115 2.080 . S
O1118 C1132 1.305 . S
O1119 Zn1113 1.920 . S
O1119 C1132 1.234 . S
C1120 O1125 1.167 . S
C1120 O1126 1.299 . S
O1121 Zn1115 2.114 . S
O1121 C1116 1.166 . S
O1122 Zn1114 1.905 . S
O1122 C1116 1.182 . S
O1123 Zn1114 1.898 . S
O1123 C1117 1.167 . S
O1124 Zn1115 2.120 . S
O1124 C1117 1.299 . S
O1125 Zn1113 1.898 . S
O1125 C1120 1.167 . S
O1126 Zn1115 2.120 . S
O1126 C1120 1.299 . S
O1127 Zn1115 2.114 . S
O1127 C1129 1.166 . S
O1128 Zn1113 1.905 . S
O1128 C1129 1.182 . S
C1129 O1127 1.166 . S
C1129 O1128 1.182 . S
O1130 Zn1115 2.080 . S
O1130 C1133 1.305 . S
O1131 Zn1114 1.920 . S
O1131 C1133 1.234 . S
C1132 O1118 1.305 . S
C1132 O1119 1.234 . S
C1133 O1130 1.305 . S
C1133 O1131 1.234 . S
Zn1134 O1140 1.920 . S
Zn1134 O1146 1.898 . S
Zn1134 O1149 1.905 . S
Zn1135 O1143 1.905 . S
Zn1135 O1144 1.898 1_455 S
Zn1135 O1152 1.920 . S
Zn1136 O1139 2.080 . S
Zn1136 O1142 2.114 1_655 S
Zn1136 O1145 2.120 . S
Zn1136 O1147 2.120 . S
Zn1136 O1148 2.114 . S
Zn1136 O1151 2.080 1_655 S
C1137 O1142 1.166 . S
C1137 O1143 1.182 . S
C1138 O1144 1.167 . S
C1138 O1145 1.299 . S
O1139 Zn1136 2.080 . S
O1139 C1153 1.305 . S
O1140 Zn1134 1.920 . S
O1140 C1153 1.234 . S
C1141 O1146 1.167 . S
C1141 O1147 1.299 . S
O1142 Zn1136 2.114 1_455 S
O1142 C1137 1.166 . S
O1143 Zn1135 1.905 . S
O1143 C1137 1.182 . S
O1144 Zn1135 1.898 1_655 S
O1144 C1138 1.167 . S
O1145 Zn1136 2.120 . S
O1145 C1138 1.299 . S
O1146 Zn1134 1.898 . S
O1146 C1141 1.167 . S
O1147 Zn1136 2.120 . S
O1147 C1141 1.299 . S
O1148 Zn1136 2.114 . S
O1148 C1150 1.166 . S
O1149 Zn1134 1.905 . S
O1149 C1150 1.182 . S
C1150 O1148 1.166 . S
C1150 O1149 1.182 . S
O1151 Zn1136 2.080 1_455 S
O1151 C1154 1.305 . S
O1152 Zn1135 1.920 . S
O1152 C1154 1.234 . S
C1153 O1139 1.305 . S
C1153 O1140 1.234 . S
C1154 O1151 1.305 . S
C1154 O1152 1.234 . S
Zn1155 O1161 1.920 . S
Zn1155 O1167 1.898 . S
Zn1155 O1170 1.905 . S
Zn1156 O1164 1.905 . S
Zn1156 O1165 1.898 . S
Zn1156 O1173 1.920 . S
Zn1157 O1160 2.080 . S
Zn1157 O1163 2.114 . S
Zn1157 O1166 2.120 . S
Zn1157 O1168 2.120 . S
Zn1157 O1169 2.114 . S
Zn1157 O1172 2.080 . S
C1158 O1163 1.166 . S
C1158 O1164 1.182 . S
C1159 O1165 1.167 . S
C1159 O1166 1.299 . S
O1160 Zn1157 2.080 . S
O1160 C1174 1.305 . S
O1161 Zn1155 1.920 . S
O1161 C1174 1.234 . S
C1162 O1167 1.167 . S
C1162 O1168 1.299 . S
O1163 Zn1157 2.114 . S
O1163 C1158 1.166 . S
O1164 Zn1156 1.905 . S
O1164 C1158 1.182 . S
O1165 Zn1156 1.898 . S
O1165 C1159 1.167 . S
O1166 Zn1157 2.120 . S
O1166 C1159 1.299 . S
O1167 Zn1155 1.898 . S
O1167 C1162 1.167 . S
O1168 Zn1157 2.120 . S
O1168 C1162 1.299 . S
O1169 Zn1157 2.114 . S
O1169 C1171 1.166 . S
O1170 Zn1155 1.905 . S
O1170 C1171 1.182 . S
C1171 O1169 1.166 . S
C1171 O1170 1.182 . S
O1172 Zn1157 2.080 . S
O1172 C1175 1.305 . S
O1173 Zn1156 1.920 . S
O1173 C1175 1.234 . S
C1174 O1160 1.305 . S
C1174 O1161 1.234 . S
C1175 O1172 1.305 . S
C1175 O1173 1.234 . S
Zn1176 O1182 1.920 . S
Zn1176 O1188 1.898 . S
Zn1176 O1191 1.905 . S
Zn1177 O1185 1.905 . S
Zn1177 O1186 1.898 . S
Zn1177 O1194 1.920 . S
Zn1178 O1181 2.080 . S
Zn1178 O1184 2.114 . S
Zn1178 O1187 2.120 . S
Zn1178 O1189 2.120 . S
Zn1178 O1190 2.114 . S
Zn1178 O1193 2.080 . S
C1179 O1184 1.166 . S
C1179 O1185 1.182 . S
C1180 O1186 1.167 . S
C1180 O1187 1.299 . S
O1181 Zn1178 2.080 . S
O1181 C1195 1.305 . S
O1182 Zn1176 1.920 . S
O1182 C1195 1.234 . S
C1183 O1188 1.167 . S
C1183 O1189 1.299 . S
O1184 Zn1178 2.114 . S
O1184 C1179 1.166 . S
O1185 Zn1177 1.905 . S
O1185 C1179 1.182 . S
O1186 Zn1177 1.898 . S
O1186 C1180 1.167 . S
O1187 Zn1178 2.120 . S
O1187 C1180 1.299 . S
O1188 Zn1176 1.898 . S
O1188 C1183 1.167 . S
O1189 Zn1178 2.120 . S
O1189 C1183 1.299 . S
O1190 Zn1178 2.114 . S
O1190 C1192 1.166 . S
O1191 Zn1176 1.905 . S
O1191 C1192 1.182 . S
C1192 O1190 1.166 . S
C1192 O1191 1.182 . S
O1193 Zn1178 2.080 . S
O1193 C1196 1.305 . S
O1194 Zn1177 1.920 . S
O1194 C1196 1.234 . S
C1195 O1181 1.305 . S
C1195 O1182 1.234 . S
C1196 O1193 1.305 . S
C1196 O1194 1.234 . S
Zn1197 O1203 1.920 . S
Zn1197 O1209 1.898 . S
Zn1197 O1212 1.905 . S
Zn1198 O1206 1.905 . S
Zn1198 O1207 1.898 . S
Zn1198 O1215 1.920 . S
Zn1199 O1202 2.080 . S
Zn1199 O1205 2.114 . S
Zn1199 O1208 2.120 . S
Zn1199 O1210 2.120 . S
Zn1199 O1211 2.114 . S
Zn1199 O1214 2.080 . S
C1200 O1205 1.166 . S
C1200 O1206 1.182 . S
C1201 O1207 1.167 . S
C1201 O1208 1.299 . S
O1202 Zn1199 2.080 . S
O1202 C1216 1.305 . S
O1203 Zn1197 1.920 . S
O1203 C1216 1.234 . S
C1204 O1209 1.167 . S
C1204 O1210 1.299 . S
O1205 Zn1199 2.114 . S
O1205 C1200 1.166 . S
O1206 Zn1198 1.905 . S
O1206 C1200 1.182 . S
O1207 Zn1198 1.898 . S
O1207 C1201 1.167 . S
O1208 Zn1199 2.120 . S
O1208 C1201 1.299 . S
O1209 Zn1197 1.898 . S
O1209 C1204 1.167 . S
O1210 Zn1199 2.120 . S
O1210 C1204 1.299 . S
O1211 Zn1199 2.114 . S
O1211 C1213 1.166 . S
O1212 Zn1197 1.905 . S
O1212 C1213 1.182 . S
C1213 O1211 1.166 . S
C1213 O1212 1.182 . S
O1214 Zn1199 2.080 . S
O1214 C1217 1.305 . S
O1215 Zn1198 1.920 . S
O1215 C1217 1.234 . S
C1216 O1202 1.305 . S
C1216 O1203 1.234 . S
C1217 O1214 1.305 . S
C1217 O1215 1.234 . S
Zn1218 O1224 1.920 . S
Zn1218 O1230 1.898 . S
Zn1218 O1233 1.905 . S
Zn1219 O1227 1.905 . S
Zn1219 O1228 1.898 . S
Zn1219 O1236 1.920 . S
Zn1220 O1223 2.080 . S
Zn1220 O1226 2.114 . S
Zn1220 O1229 2.120 1_655 S
Zn1220 O1231 2.120 . S
Zn1220 O1232 2.114 . S
Zn1220 O1235 2.080 . S
C1221 O1226 1.166 1_455 S
C1221 O1227 1.182 . S
C1222 O1228 1.167 . S
C1222 O1229 1.299 . S
O1223 Zn1220 2.080 . S
O1223 C1237 1.305 . S
O1224 Zn1218 1.920 . S
O1224 C1237 1.234 . S
C1225 O1230 1.167 . S
C1225 O1231 1.299 . S
O1226 Zn1220 2.114 . S
O1226 C1221 1.166 1_655 S
O1227 Zn1219 1.905 . S
O1227 C1221 1.182 . S
O1228 Zn1219 1.898 . S
O1228 C1222 1.167 . S
O1229 Zn1220 2.120 1_455 S
O1229 C1222 1.299 . S
O1230 Zn1218 1.898 . S
O1230 C1225 1.167 . S
O1231 Zn1220 2.120 . S
O1231 C1225 1.299 . S
O1232 Zn1220 2.114 . S
O1232 C1234 1.166 . S
O1233 Zn1218 1.905 . S
O1233 C1234 1.182 . S
C1234 O1232 1.166 . S
C1234 O1233 1.182 . S
O1235 Zn1220 2.080 . S
O1235 C1238 1.305 . S
O1236 Zn1219 1.920 . S
O1236 C1238 1.234 1_455 S
C1237 O1223 1.305 . S
C1237 O1224 1.234 . S
C1238 O1235 1.305 . S
C1238 O1236 1.234 1_655 S
Zn1239 O1245 1.920 . S
Zn1239 O1251 1.898 . S
Zn1239 O1254 1.905 . S
Zn1240 O1248 1.905 . S
Zn1240 O1249 1.898 . S
Zn1240 O1257 1.920 . S
Zn1241 O1244 2.080 . S
Zn1241 O1247 2.114 . S
Zn1241 O1250 2.120 . S
Zn1241 O1252 2.120 . S
Zn1241 O1253 2.114 . S
Zn1241 O1256 2.080 . S
C1242 O1247 1.166 . S
C1242 O1248 1.182 . S
C1243 O1249 1.167 . S
C1243 O1250 1.299 . S
O1244 Zn1241 2.080 . S
O1244 C1258 1.305 . S
O1245 Zn1239 1.920 . S
O1245 C1258 1.234 . S
C1246 O1251 1.167 . S
C1246 O1252 1.299 . S
O1247 Zn1241 2.114 . S
O1247 C1242 1.166 . S
O1248 Zn1240 1.905 . S
O1248 C1242 1.182 . S
O1249 Zn1240 1.898 . S
O1249 C1243 1.167 . S
O1250 Zn1241 2.120 . S
O1250 C1243 1.299 . S
O1251 Zn1239 1.898 . S
O1251 C1246 1.167 . S
O1252 Zn1241 2.120 . S
O1252 C1246 1.299 . S
O1253 Zn1241 2.114 . S
O1253 C1255 1.166 . S
O1254 Zn1239 1.905 . S
O1254 C1255 1.182 . S
C1255 O1253 1.166 . S
C1255 O1254 1.182 . S
O1256 Zn1241 2.080 . S
O1256 C1259 1.305 . S
O1257 Zn1240 1.920 . S
O1257 C1259 1.234 . S
C1258 O1244 1.305 . S
C1258 O1245 1.234 . S
C1259 O1256 1.305 . S
C1259 O1257 1.234 . S
Zn1260 O1266 1.920 . S
Zn1260 O1272 1.898 . S
Zn1260 O1275 1.905 . S
Zn1261 O1269 1.905 . S
Zn1261 O1270 1.898 . S
Zn1261 O1278 1.920 . S
Zn1262 O1265 2.080 . S
Zn1262 O1268 2.114 . S
Zn1262 O1271 2.120 . S
Zn1262 O1273 2.120 . S
Zn1262 O1274 2.114 . S
Zn1262 O1277 2.080 . S
C1263 O1268 1.166 . S
C1263 O1269 1.182 . S
C1264 O1270 1.167 . S
C1264 O1271 1.299 . S
O1265 Zn1262 2.080 . S
O1265 C1279 1.305 . S
O1266 Zn1260 1.920 . S
O1266 C1279 1.234 . S
C1267 O1272 1.167 . S
C1267 O1273 1.299 . S
O1268 Zn1262 2.114 . S
O1268 C1263 1.166 . S
O1269 Zn1261 1.905 . S
O1269 C1263 1.182 . S
O1270 Zn1261 1.898 . S
O1270 C1264 1.167 . S
O1271 Zn1262 2.120 . S
O1271 C1264 1.299 . S
O1272 Zn1260 1.898 . S
O1272 C1267 1.167 . S
O1273 Zn1262 2.120 . S
O1273 C1267 1.299 . S
O1274 Zn1262 2.114 . S
O1274 C1276 1.166 . S
O1275 Zn1260 1.905 . S
O1275 C1276 1.182 . S
C1276 O1274 1.166 . S
C1276 O1275 1.182 . S
O1277 Zn1262 2.080 . S
O1277 C1280 1.305 . S
O1278 Zn1261 1.920 . S
O1278 C1280 1.234 . S
C1279 O1265 1.305 . S
C1279 O1266 1.234 . S
C1280 O1277 1.305 . S
C1280 O1278 1.234 . S
Zn1281 O1287 1.920 . S
Zn1281 O1293 1.898 . S
Zn1281 O1296 1.905 . S
Zn1282 O1290 1.905 . S
Zn1282 O1291 1.898 . S
Zn1282 O1299 1.920 . S
Zn1283 O1286 2.080 . S
Zn1283 O1289 2.114 . S
Zn1283 O1292 2.120 . S
Zn1283 O1294 2.120 . S
Zn1283 O1295 2.114 . S
Zn1283 O1298 2.080 . S
C1284 O1289 1.166 . S
C1284 O1290 1.182 . S
C1285 O1291 1.167 . S
C1285 O1292 1.299 . S
O1286 Zn1283 2.080 . S
O1286 C1300 1.305 . S
O1287 Zn1281 1.920 . S
O1287 C1300 1.234 . S
C1288 O1293 1.167 . S
C1288 O1294 1.299 . S
O1289 Zn1283 2.114 . S
O1289 C1284 1.166 . S
O1290 Zn1282 1.905 . S
O1290 C1284 1.182 . S
O1291 Zn1282 1.898 . S
O1291 C1285 1.167 . S
O1292 Zn1283 2.120 . S
O1292 C1285 1.299 . S
O1293 Zn1281 1.898 . S
O1293 C1288 1.167 . S
O1294 Zn1283 2.120 . S
O1294 C1288 1.299 . S
O1295 Zn1283 2.114 . S
O1295 C1297 1.166 . S
O1296 Zn1281 1.905 . S
O1296 C1297 1.182 . S
C1297 O1295 1.166 . S
C1297 O1296 1.182 . S
O1298 Zn1283 2.080 . S
O1298 C1301 1.305 . S
O1299 Zn1282 1.920 . S
O1299 C1301 1.234 . S
C1300 O1286 1.305 . S
C1300 O1287 1.234 . S
C1301 O1298 1.305 . S
C1301 O1299 1.234 . S
Zn1302 O1308 1.920 . S
Zn1302 O1314 1.898 . S
Zn1302 O1317 1.905 . S
Zn1303 O1311 1.905 . S
Zn1303 O1312 1.898 . S
Zn1303 O1320 1.920 . S
Zn1304 O1307 2.080 . S
Zn1304 O1310 2.114 . S
Zn1304 O1313 2.120 1_655 S
Zn1304 O1315 2.120 . S
Zn1304 O1316 2.114 . S
Zn1304 O1319 2.080 . S
C1305 O1310 1.166 1_455 S
C1305 O1311 1.182 . S
C1306 O1312 1.167 . S
C1306 O1313 1.299 . S
O1307 Zn1304 2.080 . S
O1307 C1321 1.305 . S
O1308 Zn1302 1.920 . S
O1308 C1321 1.234 . S
C1309 O1314 1.167 . S
C1309 O1315 1.299 . S
O1310 Zn1304 2.114 . S
O1310 C1305 1.166 1_655 S
O1311 Zn1303 1.905 . S
O1311 C1305 1.182 . S
O1312 Zn1303 1.898 . S
O1312 C1306 1.167 . S
O1313 Zn1304 2.120 1_455 S
O1313 C1306 1.299 . S
O1314 Zn1302 1.898 . S
O1314 C1309 1.167 . S
O1315 Zn1304 2.120 . S
O1315 C1309 1.299 . S
O1316 Zn1304 2.114 . S
O1316 C1318 1.166 . S
O1317 Zn1302 1.905 . S
O1317 C1318 1.182 . S
C1318 O1316 1.166 . S
C1318 O1317 1.182 . S
O1319 Zn1304 2.080 . S
O1319 C1322 1.305 . S
O1320 Zn1303 1.920 . S
O1320 C1322 1.234 1_455 S
C1321 O1307 1.305 . S
C1321 O1308 1.234 . S
C1322 O1319 1.305 . S
C1322 O1320 1.234 1_655 S
Zn1323 O1329 1.920 . S
Zn1323 O1335 1.898 . S
Zn1323 O1338 1.905 . S
Zn1324 O1332 1.905 . S
Zn1324 O1333 1.898 . S
Zn1324 O1341 1.920 . S
Zn1325 O1328 2.080 . S
Zn1325 O1331 2.114 . S
Zn1325 O1334 2.120 . S
Zn1325 O1336 2.120 . S
Zn1325 O1337 2.114 . S
Zn1325 O1340 2.080 . S
C1326 O1331 1.166 . S
C1326 O1332 1.182 . S
C1327 O1333 1.167 . S
C1327 O1334 1.299 . S
O1328 Zn1325 2.080 . S
O1328 C1342 1.305 . S
O1329 Zn1323 1.920 . S
O1329 C1342 1.234 . S
C1330 O1335 1.167 . S
C1330 O1336 1.299 . S
O1331 Zn1325 2.114 . S
O1331 C1326 1.166 . S
O1332 Zn1324 1.905 . S
O1332 C1326 1.182 . S
O1333 Zn1324 1.898 . S
O1333 C1327 1.167 . S
O1334 Zn1325 2.120 . S
O1334 C1327 1.299 . S
O1335 Zn1323 1.898 . S
O1335 C1330 1.167 . S
O1336 Zn1325 2.120 . S
O1336 C1330 1.299 . S
O1337 Zn1325 2.114 . S
O1337 C1339 1.166 . S
O1338 Zn1323 1.905 . S
O1338 C1339 1.182 . S
C1339 O1337 1.166 . S
C1339 O1338 1.182 . S
O1340 Zn1325 2.080 . S
O1340 C1343 1.305 . S
O1341 Zn1324 1.920 . S
O1341 C1343 1.234 . S
C1342 O1328 1.305 . S
C1342 O1329 1.234 . S
C1343 O1340 1.305 . S
C1343 O1341 1.234 . S
Zn1344 O1350 1.920 . S
Zn1344 O1356 1.898 . S
Zn1344 O1359 1.905 . S
Zn1345 O1353 1.905 . S
Zn1345 O1354 1.898 . S
Zn1345 O1362 1.920 . S
Zn1346 O1349 2.080 . S
Zn1346 O1352 2.114 . S
Zn1346 O1355 2.120 . S
Zn1346 O1357 2.120 . S
Zn1346 O1358 2.114 . S
Zn1346 O1361 2.080 . S
C1347 O1352 1.166 . S
C1347 O1353 1.182 . S
C1348 O1354 1.167 . S
C1348 O1355 1.299 . S
O1349 Zn1346 2.080 . S
O1349 C1363 1.305 . S
O1350 Zn1344 1.920 . S
O1350 C1363 1.234 . S
C1351 O1356 1.167 . S
C1351 O1357 1.299 . S
O1352 Zn1346 2.114 . S
O1352 C1347 1.166 . S
O1353 Zn1345 1.905 . S
O1353 C1347 1.182 . S
O1354 Zn1345 1.898 . S
O1354 C1348 1.167 . S
O1355 Zn1346 2.120 . S
O1355 C1348 1.299 . S
O1356 Zn1344 1.898 . S
O1356 C1351 1.167 . S
O1357 Zn1346 2.120 . S
O1357 C1351 1.299 . S
O1358 Zn1346 2.114 . S
O1358 C1360 1.166 . S
O1359 Zn1344 1.905 . S
O1359 C1360 1.182 . S
C1360 O1358 1.166 . S
C1360 O1359 1.182 . S
O1361 Zn1346 2.080 . S
O1361 C1364 1.305 . S
O1362 Zn1345 1.920 . S
O1362 C1364 1.234 . S
C1363 O1349 1.305 . S
C1363 O1350 1.234 . S
C1364 O1361 1.305 . S
C1364 O1362 1.234 . S
Zn1365 O1371 1.920 . S
Zn1365 O1377 1.898 . S
Zn1365 O1380 1.905 . S
Zn1366 O1374 1.905 . S
Zn1366 O1375 1.898 . S
Zn1366 O1383 1.920 . S
Zn1367 O1370 2.080 . S
Zn1367 O1373 2.114 . S
Zn1367 O1376 2.120 . S
Zn1367 O1378 2.120 1_565 S
Zn1367 O1379 2.114 . S
Zn1367 O1382 2.080 . S
C1368 O1373 1.166 . S
C1368 O1374 1.182 . S
C1369 O1375 1.167 . S
C1369 O1376 1.299 . S
O1370 Zn1367 2.080 . S
O1370 C1384 1.305 . S
O1371 Zn1365 1.920 . S
O1371 C1384 1.234 1_545 S
C1372 O1377 1.167 . S
C1372 O1378 1.299 . S
O1373 Zn1367 2.114 . S
O1373 C1368 1.166 . S
O1374 Zn1366 1.905 . S
O1374 C1368 1.182 . S
O1375 Zn1366 1.898 . S
O1375 C1369 1.167 . S
O1376 Zn1367 2.120 . S
O1376 C1369 1.299 . S
O1377 Zn1365 1.898 . S
O1377 C1372 1.167 . S
O1378 Zn1367 2.120 1_545 S
O1378 C1372 1.299 . S
O1379 Zn1367 2.114 . S
O1379 C1381 1.166 1_565 S
O1380 Zn1365 1.905 . S
O1380 C1381 1.182 . S
C1381 O1379 1.166 1_545 S
C1381 O1380 1.182 . S
O1382 Zn1367 2.080 . S
O1382 C1385 1.305 . S
O1383 Zn1366 1.920 . S
O1383 C1385 1.234 . S
C1384 O1370 1.305 . S
C1384 O1371 1.234 1_565 S
C1385 O1382 1.305 . S
C1385 O1383 1.234 . S
Zn1386 O1392 1.920 . S
Zn1386 O1398 1.898 . S
Zn1386 O1401 1.905 . S
Zn1387 O1395 1.905 . S
Zn1387 O1396 1.898 . S
Zn1387 O1404 1.920 . S
Zn1388 O1391 2.080 . S
Zn1388 O1394 2.114 . S
Zn1388 O1397 2.120 . S
Zn1388 O1399 2.120 . S
Zn1388 O1400 2.114 . S
Zn1388 O1403 2.080 . S
C1389 O1394 1.166 . S
C1389 O1395 1.182 . S
C1390 O1396 1.167 . S
C1390 O1397 1.299 . S
O1391 Zn1388 2.080 . S
O1391 C1405 1.305 . S
O1392 Zn1386 1.920 . S
O1392 C1405 1.234 . S
C1393 O1398 1.167 . S
C1393 O1399 1.299 . S
O1394 Zn1388 2.114 . S
O1394 C1389 1.166 . S
O1395 Zn1387 1.905 . S
O1395 C1389 1.182 . S
O1396 Zn1387 1.898 . S
O1396 C1390 1.167 . S
O1397 Zn1388 2.120 . S
O1397 C1390 1.299 . S
O1398 Zn1386 1.898 . S
O1398 C1393 1.167 . S
O1399 Zn1388 2.120 . S
O1399 C1393 1.299 . S
O1400 Zn1388 2.114 . S
O1400 C1402 1.166 . S
O1401 Zn1386 1.905 . S
O1401 C1402 1.182 . S
C1402 O1400 1.166 . S
C1402 O1401 1.182 . S
O1403 Zn1388 2.080 . S
O1403 C1406 1.305 . S
O1404 Zn1387 1.920 . S
O1404 C1406 1.234 . S
C1405 O1391 1.305 . S
C1405 O1392 1.234 . S
C1406 O1403 1.305 . S
C1406 O1404 1.234 . S
Zn1407 O1413 1.920 . S
Zn1407 O1419 1.898 . S
Zn1407 O1422 1.905 . S
Zn1408 O1416 1.905 . S
Zn1408 O1417 1.898 1_554 S
Zn1408 O1425 1.920 . S
Zn1409 O1412 2.080 . S
Zn1409 O1415 2.114 1_556 S
Zn1409 O1418 2.120 1_545 S
Zn1409 O1420 2.120 . S
Zn1409 O1421 2.114 . S
Zn1409 O1424 2.080 1_556 S
C1410 O1415 1.166 1_565 S
C1410 O1416 1.182 . S
C1411 O1417 1.167 . S
C1411 O1418 1.299 . S
O1412 Zn1409 2.080 . S
O1412 C1426 1.305 . S
O1413 Zn1407 1.920 . S
O1413 C1426 1.234 . S
C1414 O1419 1.167 . S
C1414 O1420 1.299 . S
O1415 Zn1409 2.114 1_554 S
O1415 C1410 1.166 1_545 S
O1416 Zn1408 1.905 . S
O1416 C1410 1.182 . S
O1417 Zn1408 1.898 1_556 S
O1417 C1411 1.167 . S
O1418 Zn1409 2.120 1_565 S
O1418 C1411 1.299 . S
O1419 Zn1407 1.898 . S
O1419 C1414 1.167 . S
O1420 Zn1409 2.120 . S
O1420 C1414 1.299 . S
O1421 Zn1409 2.114 . S
O1421 C1423 1.166 . S
O1422 Zn1407 1.905 . S
O1422 C1423 1.182 . S
C1423 O1421 1.166 . S
C1423 O1422 1.182 . S
O1424 Zn1409 2.080 1_554 S
O1424 C1427 1.305 . S
O1425 Zn1408 1.920 . S
O1425 C1427 1.234 1_565 S
C1426 O1412 1.305 . S
C1426 O1413 1.234 . S
C1427 O1424 1.305 . S
C1427 O1425 1.234 1_545 S
Zn1428 O1434 1.920 . S
Zn1428 O1440 1.898 . S
Zn1428 O1443 1.905 . S
Zn1429 O1437 1.905 . S
Zn1429 O1438 1.898 . S
Zn1429 O1446 1.920 . S
Zn1430 O1433 2.080 . S
Zn1430 O1436 2.114 . S
Zn1430 O1439 2.120 . S
Zn1430 O1441 2.120 . S
Zn1430 O1442 2.114 . S
Zn1430 O1445 2.080 . S
C1431 O1436 1.166 . S
C1431 O1437 1.182 . S
C1432 O1438 1.167 . S
C1432 O1439 1.299 . S
O1433 Zn1430 2.080 . S
O1433 C1447 1.305 . S
O1434 Zn1428 1.920 . S
O1434 C1447 1.234 . S
C1435 O1440 1.167 . S
C1435 O1441 1.299 . S
O1436 Zn1430 2.114 . S
O1436 C1431 1.166 . S
O1437 Zn1429 1.905 . S
O1437 C1431 1.182 . S
O1438 Zn1429 1.898 . S
O1438 C1432 1.167 . S
O1439 Zn1430 2.120 . S
O1439 C1432 1.299 . S
O1440 Zn1428 1.898 . S
O1440 C1435 1.167 . S
O1441 Zn1430 2.120 . S
O1441 C1435 1.299 . S
O1442 Zn1430 2.114 . S
O1442 C1444 1.166 . S
O1443 Zn1428 1.905 . S
O1443 C1444 1.182 . S
C1444 O1442 1.166 . S
C1444 O1443 1.182 . S
O1445 Zn1430 2.080 . S
O1445 C1448 1.305 . S
O1446 Zn1429 1.920 . S
O1446 C1448 1.234 . S
C1447 O1433 1.305 . S
C1447 O1434 1.234 . S
C1448 O1445 1.305 . S
C1448 O1446 1.234 . S
Zn1449 O1455 1.920 . S
Zn1449 O1461 1.898 1_556 S
Zn1449 O1464 1.905 . S
Zn1450 O1458 1.905 . S
Zn1450 O1459 1.898 . S
Zn1450 O1467 1.920 . S
Zn1451 O1454 2.080 1_554 S
Zn1451 O1457 2.114 . S
Zn1451 O1460 2.120 . S
Zn1451 O1462 2.120 . S
Zn1451 O1463 2.114 1_554 S
Zn1451 O1466 2.080 . S
C1452 O1457 1.166 . S
C1452 O1458 1.182 . S
C1453 O1459 1.167 . S
C1453 O1460 1.299 . S
O1454 Zn1451 2.080 1_556 S
O1454 C1468 1.305 . S
O1455 Zn1449 1.920 . S
O1455 C1468 1.234 . S
C1456 O1461 1.167 . S
C1456 O1462 1.299 . S
O1457 Zn1451 2.114 . S
O1457 C1452 1.166 . S
O1458 Zn1450 1.905 . S
O1458 C1452 1.182 . S
O1459 Zn1450 1.898 . S
O1459 C1453 1.167 . S
O1460 Zn1451 2.120 . S
O1460 C1453 1.299 . S
O1461 Zn1449 1.898 1_554 S
O1461 C1456 1.167 . S
O1462 Zn1451 2.120 . S
O1462 C1456 1.299 . S
O1463 Zn1451 2.114 1_556 S
O1463 C1465 1.166 . S
O1464 Zn1449 1.905 . S
O1464 C1465 1.182 . S
C1465 O1463 1.166 . S
C1465 O1464 1.182 . S
O1466 Zn1451 2.080 . S
O1466 C1469 1.305 . S
O1467 Zn1450 1.920 . S
O1467 C1469 1.234 . S
C1468 O1454 1.305 . S
C1468 O1455 1.234 . S
C1469 O1466 1.305 . S
C1469 O1467 1.234 . S
Zn1470 O1476 1.920 . S
Zn1470 O1482 1.898 . S
Zn1470 O1485 1.905 . S
Zn1471 O1479 1.905 . S
Zn1471 O1480 1.898 . S
Zn1471 O1488 1.920 . S
Zn1472 O1475 2.080 . S
Zn1472 O1478 2.114 . S
Zn1472 O1481 2.120 . S
Zn1472 O1483 2.120 . S
Zn1472 O1484 2.114 . S
Zn1472 O1487 2.080 . S
C1473 O1478 1.166 . S
C1473 O1479 1.182 . S
C1474 O1480 1.167 . S
C1474 O1481 1.299 . S
O1475 Zn1472 2.080 . S
O1475 C1489 1.305 . S
O1476 Zn1470 1.920 . S
O1476 C1489 1.234 . S
C1477 O1482 1.167 . S
C1477 O1483 1.299 . S
O1478 Zn1472 2.114 . S
O1478 C1473 1.166 . S
O1479 Zn1471 1.905 . S
O1479 C1473 1.182 . S
O1480 Zn1471 1.898 . S
O1480 C1474 1.167 . S
O1481 Zn1472 2.120 . S
O1481 C1474 1.299 . S
O1482 Zn1470 1.898 . S
O1482 C1477 1.167 . S
O1483 Zn1472 2.120 . S
O1483 C1477 1.299 . S
O1484 Zn1472 2.114 . S
O1484 C1486 1.166 . S
O1485 Zn1470 1.905 . S
O1485 C1486 1.182 . S
C1486 O1484 1.166 . S
C1486 O1485 1.182 . S
O1487 Zn1472 2.080 . S
O1487 C1490 1.305 . S
O1488 Zn1471 1.920 . S
O1488 C1490 1.234 . S
C1489 O1475 1.305 . S
C1489 O1476 1.234 . S
C1490 O1487 1.305 . S
C1490 O1488 1.234 . S
Zn1491 O1497 1.920 . S
Zn1491 O1503 1.898 . S
Zn1491 O1506 1.905 . S
Zn1492 O1500 1.905 . S
Zn1492 O1501 1.898 . S
Zn1492 O1509 1.920 . S
Zn1493 O1496 2.080 . S
Zn1493 O1499 2.114 . S
Zn1493 O1502 2.120 . S
Zn1493 O1504 2.120 . S
Zn1493 O1505 2.114 . S
Zn1493 O1508 2.080 . S
C1494 O1499 1.166 . S
C1494 O1500 1.182 . S
C1495 O1501 1.167 . S
C1495 O1502 1.299 . S
O1496 Zn1493 2.080 . S
O1496 C1510 1.305 . S
O1497 Zn1491 1.920 . S
O1497 C1510 1.234 . S
C1498 O1503 1.167 . S
C1498 O1504 1.299 . S
O1499 Zn1493 2.114 . S
O1499 C1494 1.166 . S
O1500 Zn1492 1.905 . S
O1500 C1494 1.182 . S
O1501 Zn1492 1.898 . S
O1501 C1495 1.167 . S
O1502 Zn1493 2.120 . S
O1502 C1495 1.299 . S
O1503 Zn1491 1.898 . S
O1503 C1498 1.167 . S
O1504 Zn1493 2.120 . S
O1504 C1498 1.299 . S
O1505 Zn1493 2.114 . S
O1505 C1507 1.166 . S
O1506 Zn1491 1.905 . S
O1506 C1507 1.182 . S
C1507 O1505 1.166 . S
C1507 O1506 1.182 . S
O1508 Zn1493 2.080 . S
O1508 C1511 1.305 . S
O1509 Zn1492 1.920 . S
O1509 C1511 1.234 . S
C1510 O1496 1.305 . S
C1510 O1497 1.234 . S
C1511 O1508 1.305 . S
C1511 O1509 1.234 . S
Zn1512 O1518 1.920 . S
Zn1512 O1524 1.898 . S
Zn1512 O1527 1.905 . S
Zn1513 O1521 1.905 . S
Zn1513 O1522 1.898 . S
Zn1513 O1530 1.920 . S
Zn1514 O1517 2.080 . S
Zn1514 O1520 2.114 . S
Zn1514 O1523 2.120 . S
Zn1514 O1525 2.120 . S
Zn1514 O1526 2.114 . S
Zn1514 O1529 2.080 . S
C1515 O1520 1.166 . S
C1515 O1521 1.182 . S
C1516 O1522 1.167 . S
C1516 O1523 1.299 . S
O1517 Zn1514 2.080 . S
O1517 C1531 1.305 . S
O1518 Zn1512 1.920 . S
O1518 C1531 1.234 . S
C1519 O1524 1.167 . S
C1519 O1525 1.299 . S
O1520 Zn1514 2.114 . S
O1520 C1515 1.166 . S
O1521 Zn1513 1.905 . S
O1521 C1515 1.182 . S
O1522 Zn1513 1.898 . S
O1522 C1516 1.167 . S
O1523 Zn1514 2.120 . S
O1523 C1516 1.299 . S
O1524 Zn1512 1.898 . S
O1524 C1519 1.167 . S
O1525 Zn1514 2.120 . S
O1525 C1519 1.299 . S
O1526 Zn1514 2.114 . S
O1526 C1528 1.166 . S
O1527 Zn1512 1.905 . S
O1527 C1528 1.182 . S
C1528 O1526 1.166 . S
C1528 O1527 1.182 . S
O1529 Zn1514 2.080 . S
O1529 C1532 1.305 . S
O1530 Zn1513 1.920 . S
O1530 C1532 1.234 . S
C1531 O1517 1.305 . S
C1531 O1518 1.234 . S
C1532 O1529 1.305 . S
C1532 O1530 1.234 . S
Zn1533 O1539 1.920 . S
Zn1533 O1545 1.898 . S
Zn1533 O1548 1.905 . S
Zn1534 O1542 1.905 . S
Zn1534 O1543 1.898 . S
Zn1534 O1551 1.920 . S
Zn1535 O1538 2.080 . S
Zn1535 O1541 2.114 . S
Zn1535 O1544 2.120 . S
Zn1535 O1546 2.120 . S
Zn1535 O1547 2.114 . S
Zn1535 O1550 2.080 . S
C1536 O1541 1.166 . S
C1536 O1542 1.182 . S
C1537 O1543 1.167 . S
C1537 O1544 1.299 . S
O1538 Zn1535 2.080 . S
O1538 C1552 1.305 . S
O1539 Zn1533 1.920 . S
O1539 C1552 1.234 . S
C1540 O1545 1.167 . S
C1540 O1546 1.299 . S
O1541 Zn1535 2.114 . S
O1541 C1536 1.166 . S
O1542 Zn1534 1.905 . S
O1542 C1536 1.182 . S
O1543 Zn1534 1.898 . S
O1543 C1537 1.167 . S
O1544 Zn1535 2.120 . S
O1544 C1537 1.299 . S
O1545 Zn1533 1.898 . S
O1545 C1540 1.167 . S
O1546 Zn1535 2.120 . S
O1546 C1540 1.299 . S
O1547 Zn1535 2.114 . S
O1547 C1549 1.166 . S
O1548 Zn1533 1.905 . S
O1548 C1549 1.182 . S
C1549 O1547 1.166 . S
C1549 O1548 1.182 . S
O1550 Zn1535 2.080 . S
O1550 C1553 1.305 . S
O1551 Zn1534 1.920 . S
O1551 C1553 1.234 . S
C1552 O1538 1.305 . S
C1552 O1539 1.234 . S
C1553 O1550 1.305 . S
C1553 O1551 1.234 . S
Zn1554 O1560 1.920 . S
Zn1554 O1566 1.898 1_655 S
Zn1554 O1569 1.905 . S
Zn1555 O1563 1.905 . S
Zn1555 O1564 1.898 . S
Zn1555 O1572 1.920 . S
Zn1556 O1559 2.080 1_455 S
Zn1556 O1562 2.114 . S
Zn1556 O1565 2.120 . S
Zn1556 O1567 2.120 1_556 S
Zn1556 O1568 2.114 1_455 S
Zn1556 O1571 2.080 . S
C1557 O1562 1.166 . S
C1557 O1563 1.182 . S
C1558 O1564 1.167 . S
C1558 O1565 1.299 . S
O1559 Zn1556 2.080 1_655 S
O1559 C1573 1.305 . S
O1560 Zn1554 1.920 . S
O1560 C1573 1.234 1_554 S
C1561 O1566 1.167 . S
C1561 O1567 1.299 . S
O1562 Zn1556 2.114 . S
O1562 C1557 1.166 . S
O1563 Zn1555 1.905 . S
O1563 C1557 1.182 . S
O1564 Zn1555 1.898 . S
O1564 C1558 1.167 . S
O1565 Zn1556 2.120 . S
O1565 C1558 1.299 . S
O1566 Zn1554 1.898 1_455 S
O1566 C1561 1.167 . S
O1567 Zn1556 2.120 1_554 S
O1567 C1561 1.299 . S
O1568 Zn1556 2.114 1_655 S
O1568 C1570 1.166 1_556 S
O1569 Zn1554 1.905 . S
O1569 C1570 1.182 . S
C1570 O1568 1.166 1_554 S
C1570 O1569 1.182 . S
O1571 Zn1556 2.080 . S
O1571 C1574 1.305 . S
O1572 Zn1555 1.920 . S
O1572 C1574 1.234 . S
C1573 O1559 1.305 . S
C1573 O1560 1.234 1_556 S
C1574 O1571 1.305 . S
C1574 O1572 1.234 . S
Zn1575 O1581 1.920 . S
Zn1575 O1587 1.898 . S
Zn1575 O1590 1.905 . S
Zn1576 O1584 1.905 . S
Zn1576 O1585 1.898 . S
Zn1576 O1593 1.920 . S
Zn1577 O1580 2.080 . S
Zn1577 O1583 2.114 . S
Zn1577 O1586 2.120 . S
Zn1577 O1588 2.120 . S
Zn1577 O1589 2.114 . S
Zn1577 O1592 2.080 . S
C1578 O1583 1.166 . S
C1578 O1584 1.182 . S
C1579 O1585 1.167 . S
C1579 O1586 1.299 . S
O1580 Zn1577 2.080 . S
O1580 C1594 1.305 . S
O1581 Zn1575 1.920 . S
O1581 C1594 1.234 . S
C1582 O1587 1.167 . S
C1582 O1588 1.299 . S
O1583 Zn1577 2.114 . S
O1583 C1578 1.166 . S
O1584 Zn1576 1.905 . S
O1584 C1578 1.182 . S
O1585 Zn1576 1.898 . S
O1585 C1579 1.167 . S
O1586 Zn1577 2.120 . S
O1586 C1579 1.299 . S
O1587 Zn1575 1.898 . S
O1587 C1582 1.167 . S
O1588 Zn1577 2.120 . S
O1588 C1582 1.299 . S
O1589 Zn1577 2.114 . S
O1589 C1591 1.166 . S
O1590 Zn1575 1.905 . S
O1590 C1591 1.182 . S
C1591 O1589 1.166 . S
C1591 O1590 1.182 . S
O1592 Zn1577 2.080 . S
O1592 C1595 1.305 . S
O1593 Zn1576 1.920 . S
O1593 C1595 1.234 . S
C1594 O1580 1.305 . S
C1594 O1581 1.234 . S
C1595 O1592 1.305 . S
C1595 O1593 1.234 . S
Zn1596 O1602 1.920 . S
Zn1596 O1608 1.898 . S
Zn1596 O1611 1.905 . S
Zn1597 O1605 1.905 . S
Zn1597 O1606 1.898 . S
Zn1597 O1614 1.920 . S
Zn1598 O1601 2.080 . S
Zn1598 O1604 2.114 . S
Zn1598 O1607 2.120 . S
Zn1598 O1609 2.120 1_554 S
Zn1598 O1610 2.114 . S
Zn1598 O1613 2.080 . S
C1599 O1604 1.166 . S
C1599 O1605 1.182 . S
C1600 O1606 1.167 . S
C1600 O1607 1.299 . S
O1601 Zn1598 2.080 . S
O1601 C1615 1.305 . S
O1602 Zn1596 1.920 . S
O1602 C1615 1.234 1_556 S
C1603 O1608 1.167 . S
C1603 O1609 1.299 . S
O1604 Zn1598 2.114 . S
O1604 C1599 1.166 . S
O1605 Zn1597 1.905 . S
O1605 C1599 1.182 . S
O1606 Zn1597 1.898 . S
O1606 C1600 1.167 . S
O1607 Zn1598 2.120 . S
O1607 C1600 1.299 . S
O1608 Zn1596 1.898 . S
O1608 C1603 1.167 . S
O1609 Zn1598 2.120 1_556 S
O1609 C1603 1.299 . S
O1610 Zn1598 2.114 . S
O1610 C1612 1.166 1_554 S
O1611 Zn1596 1.905 . S
O1611 C1612 1.182 . S
C1612 O1610 1.166 1_556 S
C1612 O1611 1.182 . S
O1613 Zn1598 2.080 . S
O1613 C1616 1.305 . S
O1614 Zn1597 1.920 . S
O1614 C1616 1.234 . S
C1615 O1601 1.305 . S
C1615 O1602 1.234 1_554 S
C1616 O1613 1.305 . S
C1616 O1614 1.234 . S
Zn1617 O1623 1.920 . S
Zn1617 O1629 1.898 . S
Zn1617 O1632 1.905 . S
Zn1618 O1626 1.905 . S
Zn1618 O1627 1.898 . S
Zn1618 O1635 1.920 . S
Zn1619 O1622 2.080 . S
Zn1619 O1625 2.114 . S
Zn1619 O1628 2.120 . S
Zn1619 O1630 2.120 . S
Zn1619 O1631 2.114 . S
Zn1619 O1634 2.080 . S
C1620 O1625 1.166 . S
C1620 O1626 1.182 . S
C1621 O1627 1.167 . S
C1621 O1628 1.299 . S
O1622 Zn1619 2.080 . S
O1622 C1636 1.305 . S
O1623 Zn1617 1.920 . S
O1623 C1636 1.234 . S
C1624 O1629 1.167 . S
C1624 O1630 1.299 . S
O1625 Zn1619 2.114 . S
O1625 C1620 1.166 . S
O1626 Zn1618 1.905 . S
O1626 C1620 1.182 . S
O1627 Zn1618 1.898 . S
O1627 C1621 1.167 . S
O1628 Zn1619 2.120 . S
O1628 C1621 1.299 . S
O1629 Zn1617 1.898 . S
O1629 C1624 1.167 . S
O1630 Zn1619 2.120 . S
O1630 C1624 1.299 . S
O1631 Zn1619 2.114 . S
O1631 C1633 1.166 . S
O1632 Zn1617 1.905 . S
O1632 C1633 1.182 . S
C1633 O1631 1.166 . S
C1633 O1632 1.182 . S
O1634 Zn1619 2.080 . S
O1634 C1637 1.305 . S
O1635 Zn1618 1.920 . S
O1635 C1637 1.234 . S
C1636 O1622 1.305 . S
C1636 O1623 1.234 . S
C1637 O1634 1.305 . S
C1637 O1635 1.234 . S
Zn1638 O1644 1.920 . S
Zn1638 O1650 1.898 . S
Zn1638 O1653 1.905 . S
Zn1639 O1647 1.905 . S
Zn1639 O1648 1.898 1_655 S
Zn1639 O1656 1.920 . S
Zn1640 O1643 2.080 . S
Zn1640 O1646 2.114 1_455 S
Zn1640 O1649 2.120 . S
Zn1640 O1651 2.120 . S
Zn1640 O1652 2.114 . S
Zn1640 O1655 2.080 1_455 S
C1641 O1646 1.166 . S
C1641 O1647 1.182 . S
C1642 O1648 1.167 . S
C1642 O1649 1.299 . S
O1643 Zn1640 2.080 . S
O1643 C1657 1.305 . S
O1644 Zn1638 1.920 . S
O1644 C1657 1.234 . S
C1645 O1650 1.167 . S
C1645 O1651 1.299 . S
O1646 Zn1640 2.114 1_655 S
O1646 C1641 1.166 . S
O1647 Zn1639 1.905 . S
O1647 C1641 1.182 . S
O1648 Zn1639 1.898 1_455 S
O1648 C1642 1.167 . S
O1649 Zn1640 2.120 . S
O1649 C1642 1.299 . S
O1650 Zn1638 1.898 . S
O1650 C1645 1.167 . S
O1651 Zn1640 2.120 . S
O1651 C1645 1.299 . S
O1652 Zn1640 2.114 . S
O1652 C1654 1.166 . S
O1653 Zn1638 1.905 . S
O1653 C1654 1.182 . S
C1654 O1652 1.166 . S
C1654 O1653 1.182 . S
O1655 Zn1640 2.080 1_655 S
O1655 C1658 1.305 . S
O1656 Zn1639 1.920 . S
O1656 C1658 1.234 . S
C1657 O1643 1.305 . S
C1657 O1644 1.234 . S
C1658 O1655 1.305 . S
C1658 O1656 1.234 . S
Zn1659 O1665 1.920 . S
Zn1659 O1671 1.898 . S
Zn1659 O1674 1.905 . S
Zn1660 O1668 1.905 . S
Zn1660 O1669 1.898 . S
Zn1660 O1677 1.920 . S
Zn1661 O1664 2.080 . S
Zn1661 O1667 2.114 . S
Zn1661 O1670 2.120 . S
Zn1661 O1672 2.120 . S
Zn1661 O1673 2.114 . S
Zn1661 O1676 2.080 . S
C1662 O1667 1.166 . S
C1662 O1668 1.182 . S
C1663 O1669 1.167 . S
C1663 O1670 1.299 . S
O1664 Zn1661 2.080 . S
O1664 C1678 1.305 . S
O1665 Zn1659 1.920 . S
O1665 C1678 1.234 . S
C1666 O1671 1.167 . S
C1666 O1672 1.299 . S
O1667 Zn1661 2.114 . S
O1667 C1662 1.166 . S
O1668 Zn1660 1.905 . S
O1668 C1662 1.182 . S
O1669 Zn1660 1.898 . S
O1669 C1663 1.167 . S
O1670 Zn1661 2.120 . S
O1670 C1663 1.299 . S
O1671 Zn1659 1.898 . S
O1671 C1666 1.167 . S
O1672 Zn1661 2.120 . S
O1672 C1666 1.299 . S
O1673 Zn1661 2.114 . S
O1673 C1675 1.166 . S
O1674 Zn1659 1.905 . S
O1674 C1675 1.182 . S
C1675 O1673 1.166 . S
C1675 O1674 1.182 . S
O1676 Zn1661 2.080 . S
O1676 C1679 1.305 . S
O1677 Zn1660 1.920 . S
O1677 C1679 1.234 . S
C1678 O1664 1.305 . S
C1678 O1665 1.234 . S
C1679 O1676 1.305 . S
C1679 O1677 1.234 . S
Zn1680 O1686 1.920 . S
Zn1680 O1692 1.898 . S
Zn1680 O1695 1.905 . S
Zn1681 O1689 1.905 . S
Zn1681 O1690 1.898 . S
Zn1681 O1698 1.920 . S
Zn1682 O1685 2.080 . S
Zn1682 O1688 2.114 . S
Zn1682 O1691 2.120 . S
Zn1682 O1693 2.120 . S
Zn1682 O1694 2.114 . S
Zn1682 O1697 2.080 . S
C1683 O1688 1.166 . S
C1683 O1689 1.182 . S
C1684 O1690 1.167 . S
C1684 O1691 1.299 . S
O1685 Zn1682 2.080 . S
O1685 C1699 1.305 . S
O1686 Zn1680 1.920 . S
O1686 C1699 1.234 . S
C1687 O1692 1.167 . S
C1687 O1693 1.299 . S
O1688 Zn1682 2.114 . S
O1688 C1683 1.166 . S
O1689 Zn1681 1.905 . S
O1689 C1683 1.182 . S
O1690 Zn1681 1.898 . S
O1690 C1684 1.167 . S
O1691 Zn1682 2.120 . S
O1691 C1684 1.299 . S
O1692 Zn1680 1.898 . S
O1692 C1687 1.167 . S
O1693 Zn1682 2.120 . S
O1693 C1687 1.299 . S
O1694 Zn1682 2.114 . S
O1694 C1696 1.166 . S
O1695 Zn1680 1.905 . S
O1695 C1696 1.182 . S
C1696 O1694 1.166 . S
C1696 O1695 1.182 . S
O1697 Zn1682 2.080 . S
O1697 C1700 1.305 . S
O1698 Zn1681 1.920 . S
O1698 C1700 1.234 . S
C1699 O1685 1.305 . S
C1699 O1686 1.234 . S
C1700 O1697 1.305 . S
C1700 O1698 1.234 . S
Zn1701 O1707 1.920 . S
Zn1701 O1713 1.898 . S
Zn1701 O1716 1.905 . S
Zn1702 O1710 1.905 . S
Zn1702 O1711 1.898 . S
Zn1702 O1719 1.920 . S
Zn1703 O1706 2.080 . S
Zn1703 O1709 2.114 . S
Zn1703 O1712 2.120 . S
Zn1703 O1714 2.120 . S
Zn1703 O1715 2.114 . S
Zn1703 O1718 2.080 . S
C1704 O1709 1.166 . S
C1704 O1710 1.182 . S
C1705 O1711 1.167 . S
C1705 O1712 1.299 . S
O1706 Zn1703 2.080 . S
O1706 C1720 1.305 . S
O1707 Zn1701 1.920 . S
O1707 C1720 1.234 . S
C1708 O1713 1.167 . S
C1708 O1714 1.299 . S
O1709 Zn1703 2.114 . S
O1709 C1704 1.166 . S
O1710 Zn1702 1.905 . S
O1710 C1704 1.182 . S
O1711 Zn1702 1.898 . S
O1711 C1705 1.167 . S
O1712 Zn1703 2.120 . S
O1712 C1705 1.299 . S
O1713 Zn1701 1.898 . S
O1713 C1708 1.167 . S
O1714 Zn1703 2.120 . S
O1714 C1708 1.299 . S
O1715 Zn1703 2.114 . S
O1715 C1717 1.166 . S
O1716 Zn1701 1.905 . S
O1716 C1717 1.182 . S
C1717 O1715 1.166 . S
C1717 O1716 1.182 . S
O1718 Zn1703 2.080 . S
O1718 C1721 1.305 . S
O1719 Zn1702 1.920 . S
O1719 C1721 1.234 . S
C1720 O1706 1.305 . S
C1720 O1707 1.234 . S
C1721 O1718 1.305 . S
C1721 O1719 1.234 . S
Zn1722 O1728 1.920 . S
Zn1722 O1734 1.898 . S
Zn1722 O1737 1.905 . S
Zn1723 O1731 1.905 . S
Zn1723 O1732 1.898 . S
Zn1723 O1740 1.920 . S
Zn1724 O1727 2.080 . S
Zn1724 O1730 2.114 . S
Zn1724 O1733 2.120 . S
Zn1724 O1735 2.120 1_455 S
Zn1724 O1736 2.114 . S
Zn1724 O1739 2.080 . S
C1725 O1730 1.166 . S
C1725 O1731 1.182 . S
C1726 O1732 1.167 . S
C1726 O1733 1.299 . S
O1727 Zn1724 2.080 . S
O1727 C1741 1.305 . S
O1728 Zn1722 1.920 . S
O1728 C1741 1.234 1_655 S
C1729 O1734 1.167 . S
C1729 O1735 1.299 . S
O1730 Zn1724 2.114 . S
O1730 C1725 1.166 . S
O1731 Zn1723 1.905 . S
O1731 C1725 1.182 . S
O1732 Zn1723 1.898 . S
O1732 C1726 1.167 . S
O1733 Zn1724 2.120 . S
O1733 C1726 1.299 . S
O1734 Zn1722 1.898 . S
O1734 C1729 1.167 . S
O1735 Zn1724 2.120 1_655 S
O1735 C1729 1.299 . S
O1736 Zn1724 2.114 . S
O1736 C1738 1.166 1_455 S
O1737 Zn1722 1.905 . S
O1737 C1738 1.182 . S
C1738 O1736 1.166 1_655 S
C1738 O1737 1.182 . S
O1739 Zn1724 2.080 . S
O1739 C1742 1.305 . S
O1740 Zn1723 1.920 . S
O1740 C1742 1.234 . S
C1741 O1727 1.305 . S
C1741 O1728 1.234 1_455 S
C1742 O1739 1.305 . S
C1742 O1740 1.234 . S
Zn1743 O1749 1.920 . S
Zn1743 O1755 1.898 . S
Zn1743 O1758 1.905 . S
Zn1744 O1752 1.905 . S
Zn1744 O1753 1.898 . S
Zn1744 O1761 1.920 . S
Zn1745 O1748 2.080 . S
Zn1745 O1751 2.114 . S
Zn1745 O1754 2.120 . S
Zn1745 O1756 2.120 . S
Zn1745 O1757 2.114 . S
Zn1745 O1760 2.080 . S
C1746 O1751 1.166 . S
C1746 O1752 1.182 . S
C1747 O1753 1.167 . S
C1747 O1754 1.299 . S
O1748 Zn1745 2.080 . S
O1748 C1762 1.305 . S
O1749 Zn1743 1.920 . S
O1749 C1762 1.234 . S
C1750 O1755 1.167 . S
C1750 O1756 1.299 . S
O1751 Zn1745 2.114 . S
O1751 C1746 1.166 . S
O1752 Zn1744 1.905 . S
O1752 C1746 1.182 . S
O1753 Zn1744 1.898 . S
O1753 C1747 1.167 . S
O1754 Zn1745 2.120 . S
O1754 C1747 1.299 . S
O1755 Zn1743 1.898 . S
O1755 C1750 1.167 . S
O1756 Zn1745 2.120 . S
O1756 C1750 1.299 . S
O1757 Zn1745 2.114 . S
O1757 C1759 1.166 . S
O1758 Zn1743 1.905 . S
O1758 C1759 1.182 . S
C1759 O1757 1.166 . S
C1759 O1758 1.182 . S
O1760 Zn1745 2.080 . S
O1760 C1763 1.305 . S
O1761 Zn1744 1.920 . S
O1761 C1763 1.234 . S
C1762 O1748 1.305 . S
C1762 O1749 1.234 . S
C1763 O1760 1.305 . S
C1763 O1761 1.234 . S
Zn1764 O1770 1.920 . S
Zn1764 O1776 1.898 . S
Zn1764 O1779 1.905 . S
Zn1765 O1773 1.905 . S
Zn1765 O1774 1.898 . S
Zn1765 O1782 1.920 . S
Zn1766 O1769 2.080 . S
Zn1766 O1772 2.114 . S
Zn1766 O1775 2.120 . S
Zn1766 O1777 2.120 . S
Zn1766 O1778 2.114 . S
Zn1766 O1781 2.080 . S
C1767 O1772 1.166 . S
C1767 O1773 1.182 . S
C1768 O1774 1.167 . S
C1768 O1775 1.299 . S
O1769 Zn1766 2.080 . S
O1769 C1783 1.305 . S
O1770 Zn1764 1.920 . S
O1770 C1783 1.234 . S
C1771 O1776 1.167 . S
C1771 O1777 1.299 . S
O1772 Zn1766 2.114 . S
O1772 C1767 1.166 . S
O1773 Zn1765 1.905 . S
O1773 C1767 1.182 . S
O1774 Zn1765 1.898 . S
O1774 C1768 1.167 . S
O1775 Zn1766 2.120 . S
O1775 C1768 1.299 . S
O1776 Zn1764 1.898 . S
O1776 C1771 1.167 . S
O1777 Zn1766 2.120 . S
O1777 C1771 1.299 . S
O1778 Zn1766 2.114 . S
O1778 C1780 1.166 . S
O1779 Zn1764 1.905 . S
O1779 C1780 1.182 . S
C1780 O1778 1.166 . S
C1780 O1779 1.182 . S
O1781 Zn1766 2.080 . S
O1781 C1784 1.305 . S
O1782 Zn1765 1.920 . S
O1782 C1784 1.234 . S
C1783 O1769 1.305 . S
C1783 O1770 1.234 . S
C1784 O1781 1.305 . S
C1784 O1782 1.234 . S
Zn1785 O1791 1.920 . S
Zn1785 O1797 1.898 . S
Zn1785 O1800 1.905 . S
Zn1786 O1794 1.905 . S
Zn1786 O1795 1.898 . S
Zn1786 O1803 1.920 . S
Zn1787 O1790 2.080 . S
Zn1787 O1793 2.114 . S
Zn1787 O1796 2.120 . S
Zn1787 O1798 2.120 . S
Zn1787 O1799 2.114 . S
Zn1787 O1802 2.080 . S
C1788 O1793 1.166 . S
C1788 O1794 1.182 . S
C1789 O1795 1.167 . S
C1789 O1796 1.299 . S
O1790 Zn1787 2.080 . S
O1790 C1804 1.305 . S
O1791 Zn1785 1.920 . S
O1791 C1804 1.234 . S
C1792 O1797 1.167 . S
C1792 O1798 1.299 . S
O1793 Zn1787 2.114 . S
O1793 C1788 1.166 . S
O1794 Zn1786 1.905 . S
O1794 C1788 1.182 . S
O1795 Zn1786 1.898 . S
O1795 C1789 1.167 . S
O1796 Zn1787 2.120 . S
O1796 C1789 1.299 . S
O1797 Zn1785 1.898 . S
O1797 C1792 1.167 . S
O1798 Zn1787 2.120 . S
O1798 C1792 1.299 . S
O1799 Zn1787 2.114 . S
O1799 C1801 1.166 . S
O1800 Zn1785 1.905 . S
O1800 C1801 1.182 . S
C1801 O1799 1.166 . S
C1801 O1800 1.182 . S
O1802 Zn1787 2.080 . S
O1802 C1805 1.305 . S
O1803 Zn1786 1.920 . S
O1803 C1805 1.234 . S
C1804 O1790 1.305 . S
C1804 O1791 1.234 . S
C1805 O1802 1.305 . S
C1805 O1803 1.234 . S
Zn1806 O1812 1.920 . S
Zn1806 O1818 1.898 . S
Zn1806 O1821 1.905 . S
Zn1807 O1815 1.905 . S
Zn1807 O1816 1.898 . S
Zn1807 O1824 1.920 . S
Zn1808 O1811 2.080 . S
Zn1808 O1814 2.114 . S
Zn1808 O1817 2.120 . S
Zn1808 O1819 2.120 1_455 S
Zn1808 O1820 2.114 . S
Zn1808 O1823 2.080 . S
C1809 O1814 1.166 . S
C1809 O1815 1.182 . S
C1810 O1816 1.167 . S
C1810 O1817 1.299 . S
O1811 Zn1808 2.080 . S
O1811 C1825 1.305 . S
O1812 Zn1806 1.920 . S
O1812 C1825 1.234 1_655 S
C1813 O1818 1.167 . S
C1813 O1819 1.299 . S
O1814 Zn1808 2.114 . S
O1814 C1809 1.166 . S
O1815 Zn1807 1.905 . S
O1815 C1809 1.182 . S
O1816 Zn1807 1.898 . S
O1816 C1810 1.167 . S
O1817 Zn1808 2.120 . S
O1817 C1810 1.299 . S
O1818 Zn1806 1.898 . S
O1818 C1813 1.167 . S
O1819 Zn1808 2.120 1_655 S
O1819 C1813 1.299 . S
O1820 Zn1808 2.114 . S
O1820 C1822 1.166 1_455 S
O1821 Zn1806 1.905 . S
O1821 C1822 1.182 . S
C1822 O1820 1.166 1_655 S
C1822 O1821 1.182 . S
O1823 Zn1808 2.080 . S
O1823 C1826 1.305 . S
O1824 Zn1807 1.920 . S
O1824 C1826 1.234 . S
C1825 O1811 1.305 . S
C1825 O1812 1.234 1_455 S
C1826 O1823 1.305 . S
C1826 O1824 1.234 . S
Zn1827 O1833 1.920 . S
Zn1827 O1839 1.898 . S
Zn1827 O1842 1.905 . S
Zn1828 O1836 1.905 . S
Zn1828 O1837 1.898 . S
Zn1828 O1845 1.920 . S
Zn1829 O1832 2.080 . S
Zn1829 O1835 2.114 . S
Zn1829 O1838 2.120 . S
Zn1829 O1840 2.120 . S
Zn1829 O1841 2.114 . S
Zn1829 O1844 2.080 . S
C1830 O1835 1.166 . S
C1830 O1836 1.182 . S
C1831 O1837 1.167 . S
C1831 O1838 1.299 . S
O1832 Zn1829 2.080 . S
O1832 C1846 1.305 . S
O1833 Zn1827 1.920 . S
O1833 C1846 1.234 . S
C1834 O1839 1.167 . S
C1834 O1840 1.299 . S
O1835 Zn1829 2.114 . S
O1835 C1830 1.166 . S
O1836 Zn1828 1.905 . S
O1836 C1830 1.182 . S
O1837 Zn1828 1.898 . S
O1837 C1831 1.167 . S
O1838 Zn1829 2.120 . S
O1838 C1831 1.299 . S
O1839 Zn1827 1.898 . S
O1839 C1834 1.167 . S
O1840 Zn1829 2.120 . S
O1840 C1834 1.299 . S
O1841 Zn1829 2.114 . S
O1841 C1843 1.166 . S
O1842 Zn1827 1.905 . S
O1842 C1843 1.182 . S
C1843 O1841 1.166 . S
C1843 O1842 1.182 . S
O1844 Zn1829 2.080 . S
O1844 C1847 1.305 . S
O1845 Zn1828 1.920 . S
O1845 C1847 1.234 . S
C1846 O1832 1.305 . S
C1846 O1833 1.234 . S
C1847 O1844 1.305 . S
C1847 O1845 1.234 . S
Zn1848 O1854 1.920 . S
Zn1848 O1860 1.898 . S
Zn1848 O1863 1.905 . S
Zn1849 O1857 1.905 . S
Zn1849 O1858 1.898 . S
Zn1849 O1866 1.920 . S
Zn1850 O1853 2.080 . S
Zn1850 O1856 2.114 . S
Zn1850 O1859 2.120 . S
Zn1850 O1861 2.120 . S
Zn1850 O1862 2.114 . S
Zn1850 O1865 2.080 . S
C1851 O1856 1.166 . S
C1851 O1857 1.182 . S
C1852 O1858 1.167 . S
C1852 O1859 1.299 . S
O1853 Zn1850 2.080 . S
O1853 C1867 1.305 . S
O1854 Zn1848 1.920 . S
O1854 C1867 1.234 . S
C1855 O1860 1.167 . S
C1855 O1861 1.299 . S
O1856 Zn1850 2.114 . S
O1856 C1851 1.166 . S
O1857 Zn1849 1.905 . S
O1857 C1851 1.182 . S
O1858 Zn1849 1.898 . S
O1858 C1852 1.167 . S
O1859 Zn1850 2.120 . S
O1859 C1852 1.299 . S
O1860 Zn1848 1.898 . S
O1860 C1855 1.167 . S
O1861 Zn1850 2.120 . S
O1861 C1855 1.299 . S
O1862 Zn1850 2.114 . S
O1862 C1864 1.166 . S
O1863 Zn1848 1.905 . S
O1863 C1864 1.182 . S
C1864 O1862 1.166 . S
C1864 O1863 1.182 . S
O1865 Zn1850 2.080 . S
O1865 C1868 1.305 . S
O1866 Zn1849 1.920 . S
O1866 C1868 1.234 . S
C1867 O1853 1.305 . S
C1867 O1854 1.234 . S
C1868 O1865 1.305 . S
C1868 O1866 1.234 . S
Zn1869 O1875 1.920 . S
Zn1869 O1881 1.898 . S
Zn1869 O1884 1.905 . S
Zn1870 O1878 1.905 . S
Zn1870 O1879 1.898 . S
Zn1870 O1887 1.920 . S
Zn1871 O1874 2.080 . S
Zn1871 O1877 2.114 . S
Zn1871 O1880 2.120 . S
Zn1871 O1882 2.120 1_545 S
Zn1871 O1883 2.114 . S
Zn1871 O1886 2.080 . S
C1872 O1877 1.166 . S
C1872 O1878 1.182 . S
C1873 O1879 1.167 . S
C1873 O1880 1.299 . S
O1874 Zn1871 2.080 . S
O1874 C1888 1.305 . S
O1875 Zn1869 1.920 . S
O1875 C1888 1.234 1_565 S
C1876 O1881 1.167 . S
C1876 O1882 1.299 . S
O1877 Zn1871 2.114 . S
O1877 C1872 1.166 . S
O1878 Zn1870 1.905 . S
O1878 C1872 1.182 . S
O1879 Zn1870 1.898 . S
O1879 C1873 1.167 . S
O1880 Zn1871 2.120 . S
O1880 C1873 1.299 . S
O1881 Zn1869 1.898 . S
O1881 C1876 1.167 . S
O1882 Zn1871 2.120 1_565 S
O1882 C1876 1.299 . S
O1883 Zn1871 2.114 . S
O1883 C1885 1.166 1_545 S
O1884 Zn1869 1.905 . S
O1884 C1885 1.182 . S
C1885 O1883 1.166 1_565 S
C1885 O1884 1.182 . S
O1886 Zn1871 2.080 . S
O1886 C1889 1.305 . S
O1887 Zn1870 1.920 . S
O1887 C1889 1.234 . S
C1888 O1874 1.305 . S
C1888 O1875 1.234 1_545 S
C1889 O1886 1.305 . S
C1889 O1887 1.234 . S
Zn1890 O1896 1.920 . S
Zn1890 O1902 1.898 . S
Zn1890 O1905 1.905 . S
Zn1891 O1899 1.905 . S
Zn1891 O1900 1.898 . S
Zn1891 O1908 1.920 . S
Zn1892 O1895 2.080 . S
Zn1892 O1898 2.114 . S
Zn1892 O1901 2.120 . S
Zn1892 O1903 2.120 . S
Zn1892 O1904 2.114 . S
Zn1892 O1907 2.080 . S
C1893 O1898 1.166 . S
C1893 O1899 1.182 . S
C1894 O1900 1.167 . S
C1894 O1901 1.299 . S
O1895 Zn1892 2.080 . S
O1895 C1909 1.305 . S
O1896 Zn1890 1.920 . S
O1896 C1909 1.234 . S
C1897 O1902 1.167 . S
C1897 O1903 1.299 . S
O1898 Zn1892 2.114 . S
O1898 C1893 1.166 . S
O1899 Zn1891 1.905 . S
O1899 C1893 1.182 . S
O1900 Zn1891 1.898 . S
O1900 C1894 1.167 . S
O1901 Zn1892 2.120 . S
O1901 C1894 1.299 . S
O1902 Zn1890 1.898 . S
O1902 C1897 1.167 . S
O1903 Zn1892 2.120 . S
O1903 C1897 1.299 . S
O1904 Zn1892 2.114 . S
O1904 C1906 1.166 . S
O1905 Zn1890 1.905 . S
O1905 C1906 1.182 . S
C1906 O1904 1.166 . S
C1906 O1905 1.182 . S
O1907 Zn1892 2.080 . S
O1907 C1910 1.305 . S
O1908 Zn1891 1.920 . S
O1908 C1910 1.234 . S
C1909 O1895 1.305 . S
C1909 O1896 1.234 . S
C1910 O1907 1.305 . S
C1910 O1908 1.234 . S
Zn1911 O1917 1.920 . S
Zn1911 O1923 1.898 1_556 S
Zn1911 O1926 1.905 . S
Zn1912 O1920 1.905 . S
Zn1912 O1921 1.898 . S
Zn1912 O1929 1.920 . S
Zn1913 O1916 2.080 1_554 S
Zn1913 O1919 2.114 . S
Zn1913 O1922 2.120 . S
Zn1913 O1924 2.120 1_565 S
Zn1913 O1925 2.114 1_554 S
Zn1913 O1928 2.080 . S
C1914 O1919 1.166 . S
C1914 O1920 1.182 . S
C1915 O1921 1.167 . S
C1915 O1922 1.299 . S
O1916 Zn1913 2.080 1_556 S
O1916 C1930 1.305 . S
O1917 Zn1911 1.920 . S
O1917 C1930 1.234 1_545 S
C1918 O1923 1.167 . S
C1918 O1924 1.299 . S
O1919 Zn1913 2.114 . S
O1919 C1914 1.166 . S
O1920 Zn1912 1.905 . S
O1920 C1914 1.182 . S
O1921 Zn1912 1.898 . S
O1921 C1915 1.167 . S
O1922 Zn1913 2.120 . S
O1922 C1915 1.299 . S
O1923 Zn1911 1.898 1_554 S
O1923 C1918 1.167 . S
O1924 Zn1913 2.120 1_545 S
O1924 C1918 1.299 . S
O1925 Zn1913 2.114 1_556 S
O1925 C1927 1.166 1_565 S
O1926 Zn1911 1.905 . S
O1926 C1927 1.182 . S
C1927 O1925 1.166 1_545 S
C1927 O1926 1.182 . S
O1928 Zn1913 2.080 . S
O1928 C1931 1.305 . S
O1929 Zn1912 1.920 . S
O1929 C1931 1.234 . S
C1930 O1916 1.305 . S
C1930 O1917 1.234 1_565 S
C1931 O1928 1.305 . S
C1931 O1929 1.234 . S
Zn1932 O1938 1.920 . S
Zn1932 O1944 1.898 . S
Zn1932 O1947 1.905 . S
Zn1933 O1941 1.905 . S
Zn1933 O1942 1.898 . S
Zn1933 O1950 1.920 . S
Zn1934 O1937 2.080 . S
Zn1934 O1940 2.114 . S
Zn1934 O1943 2.120 . S
Zn1934 O1945 2.120 . S
Zn1934 O1946 2.114 . S
Zn1934 O1949 2.080 . S
C1935 O1940 1.166 . S
C1935 O1941 1.182 . S
C1936 O1942 1.167 . S
C1936 O1943 1.299 . S
O1937 Zn1934 2.080 . S
O1937 C1951 1.305 . S
O1938 Zn1932 1.920 . S
O1938 C1951 1.234 . S
C1939 O1944 1.167 . S
C1939 O1945 1.299 . S
O1940 Zn1934 2.114 . S
O1940 C1935 1.166 . S
O1941 Zn1933 1.905 . S
O1941 C1935 1.182 . S
O1942 Zn1933 1.898 . S
O1942 C1936 1.167 . S
O1943 Zn1934 2.120 . S
O1943 C1936 1.299 . S
O1944 Zn1932 1.898 . S
O1944 C1939 1.167 . S
O1945 Zn1934 2.120 . S
O1945 C1939 1.299 . S
O1946 Zn1934 2.114 . S
O1946 C1948 1.166 . S
O1947 Zn1932 1.905 . S
O1947 C1948 1.182 . S
C1948 O1946 1.166 . S
C1948 O1947 1.182 . S
O1949 Zn1934 2.080 . S
O1949 C1952 1.305 . S
O1950 Zn1933 1.920 . S
O1950 C1952 1.234 . S
C1951 O1937 1.305 . S
C1951 O1938 1.234 . S
C1952 O1949 1.305 . S
C1952 O1950 1.234 . S
Zn1953 O1959 1.920 . S
Zn1953 O1965 1.898 . S
Zn1953 O1968 1.905 . S
Zn1954 O1962 1.905 . S
Zn1954 O1963 1.898 1_554 S
Zn1954 O1971 1.920 . S
Zn1955 O1958 2.080 . S
Zn1955 O1961 2.114 1_556 S
Zn1955 O1964 2.120 . S
Zn1955 O1966 2.120 . S
Zn1955 O1967 2.114 . S
Zn1955 O1970 2.080 1_556 S
C1956 O1961 1.166 . S
C1956 O1962 1.182 . S
C1957 O1963 1.167 . S
C1957 O1964 1.299 . S
O1958 Zn1955 2.080 . S
O1958 C1972 1.305 . S
O1959 Zn1953 1.920 . S
O1959 C1972 1.234 . S
C1960 O1965 1.167 . S
C1960 O1966 1.299 . S
O1961 Zn1955 2.114 1_554 S
O1961 C1956 1.166 . S
O1962 Zn1954 1.905 . S
O1962 C1956 1.182 . S
O1963 Zn1954 1.898 1_556 S
O1963 C1957 1.167 . S
O1964 Zn1955 2.120 . S
O1964 C1957 1.299 . S
O1965 Zn1953 1.898 . S
O1965 C1960 1.167 . S
O1966 Zn1955 2.120 . S
O1966 C1960 1.299 . S
O1967 Zn1955 2.114 . S
O1967 C1969 1.166 . S
O1968 Zn1953 1.905 . S
O1968 C1969 1.182 . S
C1969 O1967 1.166 . S
C1969 O1968 1.182 . S
O1970 Zn1955 2.080 1_554 S
O1970 C1973 1.305 . S
O1971 Zn1954 1.920 . S
O1971 C1973 1.234 . S
C1972 O1958 1.305 . S
C1972 O1959 1.234 . S
C1973 O1970 1.305 . S
C1973 O1971 1.234 . S
Zn1974 O1980 1.920 . S
Zn1974 O1986 1.898 . S
Zn1974 O1989 1.905 . S
Zn1975 O1983 1.905 . S
Zn1975 O1984 1.898 . S
Zn1975 O1992 1.920 . S
Zn1976 O1979 2.080 . S
Zn1976 O1982 2.114 . S
Zn1976 O1985 2.120 . S
Zn1976 O1987 2.120 . S
Zn1976 O1988 2.114 . S
Zn1976 O1991 2.080 . S
C1977 O1982 1.166 . S
C1977 O1983 1.182 . S
C1978 O1984 1.167 . S
C1978 O1985 1.299 . S
O1979 Zn1976 2.080 . S
O1979 C1993 1.305 . S
O1980 Zn1974 1.920 . S
O1980 C1993 1.234 . S
C1981 O1986 1.167 . S
C1981 O1987 1.299 . S
O1982 Zn1976 2.114 . S
O1982 C1977 1.166 . S
O1983 Zn1975 1.905 . S
O1983 C1977 1.182 . S
O1984 Zn1975 1.898 . S
O1984 C1978 1.167 . S
O1985 Zn1976 2.120 . S
O1985 C1978 1.299 . S
O1986 Zn1974 1.898 . S
O1986 C1981 1.167 . S
O1987 Zn1976 2.120 . S
O1987 C1981 1.299 . S
O1988 Zn1976 2.114 . S
O1988 C1990 1.166 . S
O1989 Zn1974 1.905 . S
O1989 C1990 1.182 . S
C1990 O1988 1.166 . S
C1990 O1989 1.182 . S
O1991 Zn1976 2.080 . S
O1991 C1994 1.305 . S
O1992 Zn1975 1.920 . S
O1992 C1994 1.234 . S
C1993 O1979 1.305 . S
C1993 O1980 1.234 . S
C1994 O1991 1.305 . S
C1994 O1992 1.234 . S
Zn1995 O2001 1.920 . S
Zn1995 O2007 1.898 . S
Zn1995 O2010 1.905 . S
Zn1996 O2004 1.905 . S
Zn1996 O2005 1.898 . S
Zn1996 O2013 1.920 . S
Zn1997 O2000 2.080 . S
Zn1997 O2003 2.114 . S
Zn1997 O2006 2.120 . S
Zn1997 O2008 2.120 . S
Zn1997 O2009 2.114 . S
Zn1997 O2012 2.080 . S
C1998 O2003 1.166 . S
C1998 O2004 1.182 . S
C1999 O2005 1.167 . S
C1999 O2006 1.299 . S
O2000 Zn1997 2.080 . S
O2000 C2014 1.305 . S
O2001 Zn1995 1.920 . S
O2001 C2014 1.234 . S
C2002 O2007 1.167 . S
C2002 O2008 1.299 . S
O2003 Zn1997 2.114 . S
O2003 C1998 1.166 . S
O2004 Zn1996 1.905 . S
O2004 C1998 1.182 . S
O2005 Zn1996 1.898 . S
O2005 C1999 1.167 . S
O2006 Zn1997 2.120 . S
O2006 C1999 1.299 . S
O2007 Zn1995 1.898 . S
O2007 C2002 1.167 . S
O2008 Zn1997 2.120 . S
O2008 C2002 1.299 . S
O2009 Zn1997 2.114 . S
O2009 C2011 1.166 . S
O2010 Zn1995 1.905 . S
O2010 C2011 1.182 . S
C2011 O2009 1.166 . S
C2011 O2010 1.182 . S
O2012 Zn1997 2.080 . S
O2012 C2015 1.305 . S
O2013 Zn1996 1.920 . S
O2013 C2015 1.234 . S
C2014 O2000 1.305 . S
C2014 O2001 1.234 . S
C2015 O2012 1.305 . S
C2015 O2013 1.234 . S
C1069 C20 1.269 1_455 S
C41 C1091 1.269 1_655 S
C61 C1027 1.269 . S
C83 C1049 1.269 . S
C1154 C104 1.269 1_455 S
C1175 C125 1.269 . S
C1112 C145 1.269 . S
C1132 C167 1.269 1_455 S
C271 C188 1.269 1_545 S
C208 C292 1.269 . S
C230 C313 1.269 1_545 S
C251 C335 1.269 1_554 S
C355 C1427 1.269 1_556 S
C1468 C376 1.269 1_556 S
C398 C482 1.269 . S
C418 C1364 1.269 . S
C1511 C439 1.269 1_545 S
C1384 C460 1.269 . S
C1447 C502 1.269 . S
C1573 C524 1.269 1_655 S
C1595 C545 1.269 1_655 S
C565 C1532 1.269 . S
C587 C1552 1.269 . S
C608 C1658 1.269 1_455 S
C628 C1679 1.269 . S
C1615 C650 1.269 . S
C1637 C671 1.269 1_655 S
C692 C776 1.269 1_545 S
C797 C712 1.269 . S
C817 C733 1.269 1_545 S
C755 C838 1.269 1_556 S
C859 C1930 1.269 1_554 S
C1973 C881 1.269 1_554 S
C986 C902 1.269 . S
C1867 C922 1.269 . S
C2015 C943 1.269 1_565 S
C1888 C965 1.269 . S
C1007 C1951 1.269 . S
C1279 C1195 1.269 . S
C1301 C1216 1.269 1_556 S
C1238 C1322 1.269 . S
C1259 C1342 1.269 . S
C1405 C1490 1.269 1_545 S
C1784 C1700 1.269 . S
C1720 C1805 1.269 1_556 S
C1825 C1741 1.269 . S
C1847 C1763 1.269 . S
C1994 C1910 1.269 1_545 S
C1809 C4 1.697 . S
C822 C25 1.697 . S
C49 C1780 1.697 . S
C67 C793 1.697 . S
C1725 C88 1.697 . S
C751 C109 1.697 . S
C133 C1696 1.697 . S
C151 C696 1.697 . S
C172 C961 1.697 . S
C196 C982 1.697 . S
C843 C214 1.697 . S
C235 C1003 1.697 . S
C259 C1914 1.697 . S
C280 C1935 1.697 . S
C1872 C301 1.697 . S
C319 C898 1.697 . S
C343 C1599 1.697 . S
C520 C364 1.697 . S
C1536 C382 1.697 . S
C549 C406 1.697 . S
C583 C427 1.697 . S
C1654 C448 1.697 . S
C1675 C466 1.697 . S
C490 C1633 1.697 . S
C1318 C508 1.697 . S
C331 C529 1.697 . S
C1263 C553 1.697 . S
C276 C571 1.697 . S
C1234 C592 1.697 . S
C247 C616 1.697 . S
C634 C1179 1.697 . S
C192 C655 1.697 . S
C444 C676 1.697 . S
C700 C478 1.697 . S
C339 C721 1.697 . S
C486 C739 1.697 . S
C760 C1423 1.697 . S
C1431 C781 1.697 . S
C1368 C805 1.697 . S
C826 C394 1.697 . S
C1108 C847 1.697 . S
C16 C865 1.697 . S
C886 C1045 1.697 . S
C45 C910 1.697 . S
C931 C79 1.697 . S
C949 C1150 1.697 . S
C970 C1171 1.697 . S
C1116 C991 1.697 . S
C1015 C801 1.697 . S
C1033 C1843 1.697 . S
C772 C1057 1.697 . S
C1075 C1801 1.697 . S
C1096 C717 1.697 . S
C1759 C1120 1.697 . S
C1138 C688 1.697 . S
C1159 C1704 1.697 . S
C1969 C1183 1.697 . S
C1204 C1990 1.697 . S
C1222 C1851 1.697 . S
C1243 C2011 1.697 . S
C1267 C906 1.697 . S
C927 C1285 1.697 . S
C1306 C877 1.697 . S
C1330 C1906 1.697 . S
C1348 C604 1.697 . S
C1528 C1372 1.697 . S
C541 C1393 1.697 . S
C1411 C1557 1.697 . S
C1435 C1591 1.697 . S
C646 C1456 1.697 . S
C667 C1474 1.697 . S
C612 C1495 1.697 . S
C297 C1516 1.697 . S
C1326 C1540 1.697 . S
C1561 C255 1.697 . S
C1297 C1579 1.697 . S
C1603 C226 1.697 . S
C1621 C1255 1.697 . S
C1642 C184 1.697 . S
C1663 C1200 1.697 . S
C1452 C1684 1.697 . S
C1708 C1486 1.697 . S
C1360 C1729 1.697 . S
C1747 C1507 1.697 . S
C402 C1768 1.697 . S
C423 C1789 1.697 . S
C360 C1813 1.697 . S
C1389 C1831 1.697 . S
C1855 C100 1.697 . S
C1876 C1011 1.697 . S
C37 C1894 1.697 . S
C1053 C1918 1.697 . S
C1087 C1939 1.697 . S
C1957 C129 1.697 . S
C1978 C163 1.697 . S
C1999 C121 1.697 . S
C361 C3 1.229 . S
C385 C24 1.229 . S
C403 C58 1.229 . S
C1432 C66 1.229 . S
C1351 C87 1.229 . S
C487 C108 1.229 . S
C142 C1453 1.229 . S
C469 C150 1.229 . S
C171 C1141 1.229 . S
C1162 C205 1.229 . S
C1099 C213 1.229 . S
C234 C1117 1.229 . S
C268 C1054 1.229 . S
C289 C1078 1.229 . S
C310 C1012 1.229 . S
C318 C1036 1.229 . S
C352 C217 1.229 . S
C373 C1309 1.229 . S
C1327 C381 1.229 . S
C415 C1264 1.229 . S
C277 C436 1.229 . S
C175 C457 1.229 . S
C465 C1201 1.229 . S
C1246 C499 1.229 . S
C507 C868 1.229 . S
C528 C889 1.229 . S
C907 C562 1.229 . S
C570 C1936 1.229 . S
C1852 C591 1.229 . S
C625 C994 1.229 . S
C633 C1960 1.229 . S
C973 C654 1.229 . S
C675 C1645 1.229 . S
C709 C1666 1.229 . S
C1600 C730 1.229 . S
C1624 C738 1.229 . S
C1558 C759 1.229 . S
C780 C1582 1.229 . S
C1519 C814 1.229 . S
C835 C1537 1.229 . S
C856 C718 1.229 . S
C1810 C864 1.229 . S
C1834 C885 1.229 . S
C919 C1771 1.229 . S
C784 C940 1.229 . S
C679 C948 1.229 . S
C1705 C969 1.229 . S
C1750 C990 1.229 . S
C1369 C1024 1.229 . S
C1032 C1390 1.229 . S
C1066 C1414 1.229 . S
C1074 C424 1.229 . S
C1095 C340 1.229 . S
C1129 C1498 1.229 . S
C1137 C445 1.229 . S
C1477 C1158 1.229 . S
C130 C1192 1.229 . S
C1213 C154 1.229 . S
C91 C1221 1.229 . S
C1242 C112 1.229 . S
C1276 C46 1.229 . S
C1284 C70 1.229 . S
C1305 C7 1.229 . S
C1339 C28 1.229 . S
C1225 C1347 1.229 . S
C1381 C298 1.229 . S
C322 C1402 1.229 . S
C1410 C256 1.229 . S
C1444 C1288 1.229 . S
C1180 C1465 1.229 . S
C193 C1473 1.229 . S
C1494 C238 1.229 . S
C1515 C1873 1.229 . S
C1897 C1549 1.229 . S
C1915 C1570 1.229 . S
C1578 C928 1.229 . S
C1612 C844 1.229 . S
C1620 C2002 1.229 . S
C1641 C952 1.229 . S
C1981 C1662 1.229 . S
C1683 C637 1.229 . S
C658 C1717 1.229 . S
C1738 C595 1.229 . S
C1746 C613 1.229 . S
C550 C1767 1.229 . S
C1788 C574 1.229 . S
C511 C1822 1.229 . S
C1830 C532 1.229 . S
C1726 C1864 1.229 . S
C1885 C802 1.229 . S
C1893 C823 1.229 . S
C1927 C763 1.229 . S
C1948 C1792 1.229 . S
C1687 C1956 1.229 . S
C1977 C697 1.229 . S
C742 C1998 1.229 . S
C19 C1133 1.089 . S
C40 C1153 1.089 . S
C1174 C62 1.089 . S
C1111 C82 1.089 . S
C1090 C103 1.089 . S
C124 C1028 1.089 . S
C1048 C146 1.089 . S
C1070 C166 1.089 . S
C1510 C187 1.089 . S
C209 C461 1.089 . S
C229 C1489 1.089 . S
C356 C250 1.089 . S
C440 C272 1.089 . S
C293 C1385 1.089 . S
C314 C1406 1.089 . S
C1426 C334 1.089 . S
C1300 C377 1.089 . S
C1321 C397 1.089 . S
C419 C1343 1.089 . S
C1237 C481 1.089 . S
C503 C1196 1.089 . S
C1636 C523 1.089 . S
C1657 C544 1.089 . S
C1678 C566 1.089 . S
C586 C1616 1.089 . S
C607 C1594 1.089 . S
C1531 C629 1.089 . S
C1553 C649 1.089 . S
C1574 C670 1.089 . S
C2014 C691 1.089 . S
C713 C964 1.089 . S
C734 C1993 1.089 . S
C754 C860 1.089 . S
C775 C944 1.089 . S
C796 C1889 1.089 . S
C818 C1909 1.089 . S
C1931 C839 1.089 . S
C1804 C880 1.089 . S
C901 C1826 1.089 . S
C1846 C923 1.089 . S
C985 C1742 1.089 . S
C1699 C1006 1.089 . S
C1469 C1217 1.089 . S
C1363 C1258 1.089 . S
C1448 C1280 1.089 . S
C1972 C1721 1.089 . S
C1762 C1868 1.089 . S
C1952 C1783 1.089 . S
