# Generated by pormake.
# Topology uog, (4)-cn, num edge types: 1
# Building blocks:
#     Node 0, Type 0, BuildingBlock: ICAMEG_clean_sbu_1, # of connection points: 4
#     Node 1, Type 0, BuildingBlock: ICAMEG_clean_sbu_1, # of connection points: 4
#     Node 2, Type 0, BuildingBlock: ICAMEG_clean_sbu_1, # of connection points: 4
#     Node 3, Type 0, BuildingBlock: ICAMEG_clean_sbu_1, # of connection points: 4
#     Node 4, Type 0, BuildingBlock: ICAMEG_clean_sbu_1, # of connection points: 4
#     Node 5, Type 0, BuildingBlock: ICAMEG_clean_sbu_1, # of connection points: 4
#     Edge 6, Type (0, 0), BuildingBlock: CIFDUS_clean_linker_0, # of connection points: 2
#     Edge 7, Type (0, 0), BuildingBlock: CIFDUS_clean_linker_0, # of connection points: 2
#     Edge 8, Type (0, 0), BuildingBlock: CIFDUS_clean_linker_0, # of connection points: 2
#     Edge 9, Type (0, 0), BuildingBlock: CIFDUS_clean_linker_0, # of connection points: 2
#     Edge 10, Type (0, 0), BuildingBlock: CIFDUS_clean_linker_0, # of connection points: 2
#     Edge 11, Type (0, 0), BuildingBlock: CIFDUS_clean_linker_0, # of connection points: 2
#     Edge 12, Type (0, 0), BuildingBlock: CIFDUS_clean_linker_0, # of connection points: 2
#     Edge 13, Type (0, 0), BuildingBlock: CIFDUS_clean_linker_0, # of connection points: 2
#     Edge 14, Type (0, 0), BuildingBlock: CIFDUS_clean_linker_0, # of connection points: 2
#     Edge 15, Type (0, 0), BuildingBlock: CIFDUS_clean_linker_0, # of connection points: 2
#     Edge 16, Type (0, 0), BuildingBlock: CIFDUS_clean_linker_0, # of connection points: 2
#     Edge 17, Type (0, 0), BuildingBlock: CIFDUS_clean_linker_0, # of connection points: 2
# Relax obj value: 0.056
# Max RMSD: 0.119
# Mean RMSD: 0.119
data_MOF--net-uog--node1-ICAMEG_clean_sbu_1--edge1-CIFDUS_clean_linker_0
_symmetry_space_group_name_H-M    P1
_symmetry_Int_Tables_number       1
_symmetry_cell_setting            triclinic
loop_
_symmetry_equiv_pos_as_xyz
'x, y, z'
_cell_length_a     26.617905
_cell_length_b     26.792383
_cell_length_c     39.632365
_cell_angle_alpha  90.100059
_cell_angle_beta   89.960084
_cell_angle_gamma 120.16555
loop_
_atom_site_label
_atom_site_type_symbol
_atom_site_fract_x
_atom_site_fract_y
_atom_site_fract_z
_atom_type_partial_charge
Co0 Co 0.62399 0.34649 0.17566 0.0
Co1 Co 0.48424 0.24405 0.1974 0.0
O2 O 0.55633 0.26875 0.17249 0.0
C3 C 0.60298 0.32552 0.10213 0.0
O4 O 0.54828 0.30955 0.10767 0.0
C5 C 0.51527 0.15613 0.21462 0.0
O6 O 0.56828 0.19844 0.22059 0.0
O7 O 0.52828 0.27173 0.24046 0.0
O8 O 0.61176 0.35041 0.22522 0.0
H9 H 0.35607 0.26688 0.28163 0.0
H10 H 0.63578 0.25137 0.14562 0.0
O11 O 0.63914 0.3436 0.12641 0.0
H12 H 0.77233 0.3225 0.2415 0.0
H13 H 0.8287 0.50173 0.1487 0.0
H14 H 0.6487 0.45513 0.2096 0.0
H15 H 0.71403 0.36771 0.22754 0.0
H16 H 0.74336 0.40351 0.14627 0.0
O17 O 0.47623 0.16689 0.20486 0.0
H18 H 0.44606 0.29791 0.24911 0.0
H19 H 0.3693 0.1352 0.1997 0.0
H20 H 0.73314 0.5538 0.21291 0.0
H21 H 0.6937 0.20528 0.1585 0.0
H22 H 0.82397 0.57761 0.18231 0.0
H23 H 0.76242 0.2407 0.20682 0.0
O24 O 0.57486 0.38159 0.16564 0.0
H25 H 0.43611 0.14059 0.08596 0.0
H26 H 0.39001 0.25562 0.16386 0.0
H27 H 0.33827 0.2237 0.10954 0.0
H28 H 0.3612 0.16567 0.07015 0.0
H29 H 0.48718 0.17394 0.14043 0.0
H30 H 0.27867 0.10222 0.23189 0.0
H31 H 0.27158 0.16837 0.27311 0.0
O32 O 0.4898 0.32026 0.19031 0.0
C33 C 0.57685 0.31644 0.24757 0.0
C34 C 0.35856 0.23773 0.26367 0.0
C35 C 0.31515 0.14528 0.23579 0.0
N36 N 0.41274 0.21859 0.22235 0.0
C37 C 0.40933 0.25512 0.24512 0.0
C38 C 0.36661 0.16415 0.21769 0.0
C39 C 0.31119 0.18243 0.2589 0.0
C40 C 0.66602 0.26745 0.16647 0.0
N41 N 0.67161 0.31234 0.18572 0.0
C42 C 0.69853 0.241 0.17373 0.0
C43 C 0.73701 0.26083 0.20088 0.0
C44 C 0.74256 0.30669 0.22036 0.0
C45 C 0.70929 0.33203 0.21239 0.0
C46 C 0.7894 0.49186 0.16218 0.0
C47 C 0.68819 0.4651 0.19636 0.0
C48 C 0.7409 0.43637 0.16084 0.0
N49 N 0.69125 0.42354 0.17796 0.0
C50 C 0.7358 0.52107 0.19826 0.0
C51 C 0.78672 0.53441 0.18106 0.0
C52 C 0.52394 0.36792 0.17576 0.0
C53 C 0.42568 0.1658 0.10292 0.0
C54 C 0.40051 0.23077 0.14679 0.0
C55 C 0.37089 0.21257 0.11611 0.0
C56 C 0.38372 0.17996 0.09404 0.0
N57 N 0.44169 0.21682 0.15529 0.0
C58 C 0.45432 0.18465 0.13384 0.0
Co59 Co 0.2997 0.63319 0.50125 0.0
Co60 Co 0.26628 0.49604 0.52532 0.0
O61 O 0.31042 0.56646 0.49928 0.0
C62 C 0.28361 0.59802 0.42958 0.0
O63 O 0.24495 0.54625 0.44008 0.0
C64 C 0.38868 0.53778 0.54271 0.0
O65 O 0.39395 0.58874 0.54722 0.0
O66 O 0.27851 0.54122 0.56748 0.0
O67 O 0.29222 0.62786 0.55177 0.0
H68 H 0.11681 0.3665 0.60982 0.0
H69 H 0.40174 0.64114 0.46567 0.0
O70 O 0.30831 0.63944 0.45069 0.0
H71 H 0.48321 0.78966 0.55484 0.0
H72 H 0.3419 0.83083 0.46572 0.0
H73 H 0.22254 0.66359 0.53896 0.0
H74 H 0.37715 0.7294 0.54744 0.0
H75 H 0.35486 0.74586 0.46512 0.0
O76 O 0.33977 0.49485 0.5343 0.0
H77 H 0.17167 0.45494 0.57585 0.0
H78 H 0.26982 0.38692 0.53127 0.0
H79 H 0.2084 0.74778 0.54056 0.0
H80 H 0.50803 0.70076 0.47203 0.0
H81 H 0.26837 0.83219 0.50375 0.0
H82 H 0.54943 0.77554 0.51695 0.0
O83 O 0.21356 0.58329 0.49686 0.0
H84 H 0.3291 0.44881 0.41607 0.0
H85 H 0.16406 0.39613 0.4928 0.0
H86 H 0.14792 0.34243 0.43952 0.0
H87 H 0.23087 0.36872 0.40072 0.0
H88 H 0.3431 0.50163 0.46948 0.0
H89 H 0.2164 0.29794 0.56495 0.0
H90 H 0.13911 0.28725 0.60446 0.0
O91 O 0.19225 0.49599 0.5165 0.0
C92 C 0.28631 0.59123 0.57434 0.0
C93 C 0.15024 0.37056 0.59259 0.0
C94 C 0.2062 0.33212 0.56745 0.0
N95 N 0.22347 0.42581 0.55141 0.0
C96 C 0.18129 0.42044 0.57323 0.0
C97 C 0.23637 0.38263 0.5485 0.0
C98 C 0.16282 0.32614 0.58961 0.0
C99 C 0.41938 0.67401 0.48504 0.0
N100 N 0.38323 0.68199 0.50602 0.0
C101 C 0.47963 0.70747 0.48862 0.0
C102 C 0.50282 0.74935 0.51386 0.0
C103 C 0.46569 0.75727 0.53514 0.0
C104 C 0.40566 0.72294 0.53086 0.0
C105 C 0.31557 0.79435 0.48191 0.0
C106 C 0.24899 0.7003 0.52301 0.0
C107 C 0.32261 0.74608 0.48162 0.0
N108 N 0.28971 0.70002 0.50213 0.0
C109 C 0.24069 0.74778 0.52396 0.0
C110 C 0.27432 0.79509 0.50327 0.0
C111 C 0.1773 0.53115 0.50501 0.0
C112 C 0.29262 0.43691 0.43277 0.0
C113 C 0.20023 0.40799 0.47597 0.0
C114 C 0.19091 0.3773 0.44589 0.0
C115 C 0.23748 0.39203 0.42416 0.0
N116 N 0.25439 0.45202 0.48421 0.0
C117 C 0.30031 0.46655 0.4631 0.0
Co118 Co 0.6444 0.29574 0.83573 0.0
Co119 Co 0.73483 0.24913 0.86578 0.0
O120 O 0.71927 0.29889 0.83704 0.0
C121 C 0.67213 0.29129 0.76351 0.0
O122 O 0.682 0.24918 0.77082 0.0
C123 C 0.83262 0.36771 0.88029 0.0
O124 O 0.79402 0.38411 0.88397 0.0
O125 O 0.70651 0.27227 0.90631 0.0
O126 O 0.63239 0.27978 0.88515 0.0
H127 H 0.68828 0.10033 0.95577 0.0
H128 H 0.749 0.39774 0.80776 0.0
O129 O 0.65511 0.31288 0.78634 0.0
H130 H 0.67789 0.47443 0.89745 0.0
H131 H 0.5068 0.36156 0.79726 0.0
H132 H 0.52822 0.21998 0.86584 0.0
H133 H 0.626 0.37035 0.88433 0.0
H134 H 0.60115 0.36529 0.80063 0.0
O135 O 0.81603 0.31501 0.87385 0.0
H136 H 0.66871 0.16229 0.91849 0.0
H137 H 0.83685 0.23272 0.87527 0.0
H138 H 0.4332 0.21492 0.86338 0.0
H139 H 0.80187 0.50218 0.81984 0.0
H140 H 0.42204 0.28608 0.82888 0.0
H141 H 0.76646 0.54114 0.86505 0.0
O142 O 0.60339 0.21113 0.82663 0.0
H143 H 0.84757 0.28659 0.75795 0.0
H144 H 0.71518 0.13718 0.83774 0.0
H145 H 0.74745 0.10836 0.78673 0.0
H146 H 0.81425 0.18341 0.74642 0.0
H147 H 0.81361 0.31334 0.80909 0.0
H148 H 0.85846 0.17196 0.9123 0.0
H149 H 0.78376 0.10498 0.9528 0.0
O150 O 0.65436 0.18151 0.85759 0.0
C151 C 0.6615 0.27718 0.90992 0.0
C152 C 0.72111 0.12921 0.93815 0.0
C153 C 0.81666 0.16948 0.91379 0.0
N154 N 0.75141 0.20073 0.89458 0.0
C155 C 0.71021 0.16426 0.91692 0.0
C156 C 0.80424 0.2039 0.89296 0.0
C157 C 0.77472 0.13189 0.9365 0.0
C158 C 0.73293 0.41441 0.82722 0.0
N159 N 0.6843 0.37796 0.8452 0.0
C160 C 0.76321 0.47358 0.83405 0.0
C161 C 0.74338 0.49539 0.85946 0.0
C162 C 0.69372 0.45798 0.87767 0.0
C163 C 0.6646 0.39905 0.87018 0.0
C164 C 0.51112 0.33034 0.81239 0.0
C165 C 0.52378 0.25124 0.85089 0.0
C166 C 0.5644 0.33213 0.81433 0.0
N167 N 0.57024 0.293 0.83352 0.0
C168 C 0.46983 0.24809 0.84954 0.0
C169 C 0.46359 0.28799 0.83016 0.0
C170 C 0.6097 0.17135 0.84015 0.0
C171 C 0.81849 0.25349 0.77532 0.0
C172 C 0.74378 0.16997 0.82019 0.0
C173 C 0.76218 0.15345 0.79142 0.0
C174 C 0.79972 0.19559 0.76885 0.0
N175 N 0.76224 0.22681 0.82633 0.0
C176 C 0.79925 0.26838 0.80438 0.0
Co177 Co 0.36964 0.65932 0.17376 0.0
Co178 Co 0.51319 0.7573 0.19237 0.0
O179 O 0.43975 0.73507 0.16961 0.0
C180 C 0.38852 0.676 0.09966 0.0
O181 O 0.44241 0.68854 0.10459 0.0
C182 C 0.48519 0.8456 0.21379 0.0
O183 O 0.43227 0.80343 0.22005 0.0
O184 O 0.47259 0.72831 0.23647 0.0
O185 O 0.38317 0.65643 0.22319 0.0
H186 H 0.64534 0.72664 0.26911 0.0
H187 H 0.36318 0.75689 0.14308 0.0
O188 O 0.35352 0.66155 0.12447 0.0
H189 H 0.23096 0.69652 0.2409 0.0
H190 H 0.16097 0.51158 0.1493 0.0
H191 H 0.3394 0.55046 0.20923 0.0
H192 H 0.28358 0.64542 0.22666 0.0
H193 H 0.24987 0.60707 0.14537 0.0
O194 O 0.5234 0.8347 0.20255 0.0
H195 H 0.55348 0.69903 0.23947 0.0
H196 H 0.62919 0.86507 0.19452 0.0
H197 H 0.25137 0.45448 0.21404 0.0
H198 H 0.31106 0.8089 0.15628 0.0
H199 H 0.16131 0.43457 0.18393 0.0
H200 H 0.24455 0.77891 0.20558 0.0
O201 O 0.41436 0.61937 0.16369 0.0
H202 H 0.55303 0.86405 0.08255 0.0
H203 H 0.60576 0.74813 0.15506 0.0
H204 H 0.65344 0.78157 0.09972 0.0
H205 H 0.62712 0.84005 0.06304 0.0
H206 H 0.50604 0.82911 0.13792 0.0
H207 H 0.72168 0.89468 0.22392 0.0
H208 H 0.73024 0.82511 0.26141 0.0
O209 O 0.50505 0.68075 0.18214 0.0
C210 C 0.42239 0.68705 0.2447 0.0
C211 C 0.64221 0.75726 0.25275 0.0
C212 C 0.68502 0.85161 0.22743 0.0
N213 N 0.58616 0.78021 0.21508 0.0
C214 C 0.59039 0.74182 0.23582 0.0
C215 C 0.6325 0.83466 0.21092 0.0
C216 C 0.68981 0.81255 0.24845 0.0
C217 C 0.33383 0.74315 0.16435 0.0
N218 N 0.32625 0.69796 0.18396 0.0
C219 C 0.30462 0.77294 0.17179 0.0
C220 C 0.26739 0.75615 0.19949 0.0
C221 C 0.25978 0.70996 0.21933 0.0
C222 C 0.28979 0.68125 0.21117 0.0
C223 C 0.19993 0.51974 0.16255 0.0
C224 C 0.30032 0.54216 0.19615 0.0
C225 C 0.25045 0.57367 0.16034 0.0
N226 N 0.2997 0.58435 0.17716 0.0
C227 C 0.25064 0.48771 0.19892 0.0
C228 C 0.20014 0.47656 0.182 0.0
C229 C 0.46666 0.63231 0.16999 0.0
C230 C 0.5648 0.83852 0.09827 0.0
C231 C 0.59364 0.77293 0.13908 0.0
C232 C 0.62104 0.7921 0.10786 0.0
C233 C 0.60632 0.82498 0.08732 0.0
N234 N 0.55275 0.78609 0.14956 0.0
C235 C 0.53841 0.81868 0.12967 0.0
Co236 Co 0.72792 0.36172 0.49572 0.0
Co237 Co 0.7571 0.49322 0.52796 0.0
O238 O 0.71516 0.42716 0.49814 0.0
C239 C 0.73963 0.40379 0.4257 0.0
O240 O 0.77829 0.45512 0.4369 0.0
C241 C 0.63344 0.449 0.54326 0.0
O242 O 0.62804 0.39766 0.54566 0.0
O243 O 0.74151 0.44138 0.56733 0.0
O244 O 0.73659 0.36127 0.54588 0.0
H245 H 0.89946 0.60889 0.61926 0.0
H246 H 0.62364 0.35474 0.46374 0.0
O247 O 0.71777 0.36066 0.44559 0.0
H248 H 0.54782 0.19589 0.54635 0.0
H249 H 0.69018 0.1705 0.45001 0.0
H250 H 0.80832 0.33029 0.52845 0.0
H251 H 0.65342 0.2594 0.53874 0.0
H252 H 0.67423 0.25331 0.45511 0.0
O253 O 0.68287 0.49291 0.53694 0.0
H254 H 0.84756 0.5262 0.58051 0.0
H255 H 0.75269 0.60083 0.54007 0.0
H256 H 0.82551 0.2482 0.52431 0.0
H257 H 0.51779 0.29192 0.47034 0.0
H258 H 0.76617 0.16753 0.48486 0.0
H259 H 0.47922 0.21193 0.51198 0.0
O260 O 0.81356 0.41411 0.4912 0.0
H261 H 0.70261 0.5578 0.42214 0.0
H262 H 0.86165 0.59793 0.5011 0.0
H263 H 0.88174 0.66005 0.4512 0.0
H264 H 0.80181 0.64012 0.4113 0.0
H265 H 0.68466 0.49652 0.4722 0.0
H266 H 0.80317 0.68409 0.57856 0.0
H267 H 0.87732 0.68858 0.61842 0.0
O268 O 0.83203 0.49486 0.51912 0.0
C269 C 0.73754 0.39213 0.57072 0.0
C270 C 0.86739 0.60753 0.60192 0.0
C271 C 0.81328 0.6497 0.57911 0.0
N272 N 0.79757 0.55899 0.55788 0.0
C273 C 0.83802 0.56093 0.57986 0.0
C274 C 0.78476 0.6024 0.55744 0.0
C275 C 0.8549 0.6522 0.60146 0.0
C276 C 0.60726 0.31962 0.48164 0.0
N277 N 0.64475 0.31056 0.50066 0.0
C278 C 0.54724 0.28435 0.48537 0.0
C279 C 0.52563 0.23955 0.50878 0.0
C280 C 0.5641 0.23055 0.52809 0.0
C281 C 0.62386 0.26673 0.52371 0.0
C282 C 0.71627 0.20535 0.46732 0.0
C283 C 0.78215 0.29521 0.51135 0.0
C284 C 0.70753 0.2524 0.47025 0.0
N285 N 0.74012 0.2964 0.49219 0.0
C286 C 0.79216 0.24891 0.50906 0.0
C287 C 0.7589 0.2037 0.48689 0.0
C288 C 0.8486 0.46372 0.50367 0.0
C289 C 0.73779 0.56696 0.43935 0.0
C290 C 0.82681 0.5888 0.48375 0.0
C291 C 0.83834 0.62425 0.45561 0.0
C292 C 0.79347 0.61309 0.43326 0.0
N293 N 0.77213 0.54358 0.48952 0.0
C294 C 0.72785 0.53252 0.4678 0.0
Co295 Co 0.34456 0.70498 0.83085 0.0
Co296 Co 0.25742 0.75376 0.8646 0.0
O297 O 0.27166 0.70569 0.83346 0.0
C298 C 0.32432 0.72613 0.7597 0.0
O299 O 0.31808 0.76912 0.7704 0.0
C300 C 0.15974 0.63472 0.87756 0.0
O301 O 0.19836 0.61801 0.87918 0.0
O302 O 0.28633 0.72799 0.90366 0.0
O303 O 0.35406 0.7116 0.88096 0.0
H304 H 0.30768 0.89697 0.95873 0.0
H305 H 0.23884 0.61212 0.79758 0.0
O306 O 0.33611 0.69728 0.78051 0.0
H307 H 0.29738 0.5129 0.87981 0.0
H308 H 0.47602 0.63664 0.78478 0.0
H309 H 0.4595 0.76918 0.86447 0.0
H310 H 0.35487 0.61867 0.87332 0.0
H311 H 0.38439 0.63809 0.78969 0.0
O312 O 0.17623 0.68778 0.87255 0.0
H313 H 0.32559 0.83716 0.91854 0.0
H314 H 0.1563 0.77037 0.87761 0.0
H315 H 0.55183 0.76892 0.86055 0.0
H316 H 0.18039 0.50625 0.80307 0.0
H317 H 0.56051 0.70226 0.82046 0.0
H318 H 0.20946 0.45596 0.84451 0.0
O319 O 0.39025 0.79093 0.82725 0.0
H320 H 0.14292 0.72437 0.75831 0.0
H321 H 0.27705 0.86763 0.84055 0.0
H322 H 0.24427 0.90032 0.7915 0.0
H323 H 0.17661 0.82838 0.74998 0.0
H324 H 0.17737 0.69373 0.80754 0.0
H325 H 0.13635 0.82904 0.91753 0.0
H326 H 0.21246 0.8931 0.95837 0.0
O327 O 0.33779 0.82112 0.85657 0.0
C328 C 0.3276 0.71694 0.90633 0.0
C329 C 0.27424 0.86938 0.94098 0.0
C330 C 0.17804 0.83118 0.91789 0.0
N331 N 0.24222 0.80069 0.89561 0.0
C332 C 0.2842 0.83556 0.91811 0.0
C333 C 0.18953 0.79794 0.89541 0.0
C334 C 0.22078 0.86713 0.94079 0.0
C335 C 0.25214 0.59051 0.81542 0.0
N336 N 0.3004 0.62155 0.83497 0.0
C337 C 0.21872 0.53057 0.81852 0.0
C338 C 0.235 0.50239 0.84181 0.0
C339 C 0.2843 0.53432 0.86165 0.0
C340 C 0.31662 0.59422 0.8579 0.0
C341 C 0.47279 0.66588 0.80234 0.0
C342 C 0.46291 0.74 0.84703 0.0
C343 C 0.42107 0.66703 0.80515 0.0
N344 N 0.41659 0.70367 0.82739 0.0
C345 C 0.51531 0.74007 0.84489 0.0
C346 C 0.52016 0.70269 0.82238 0.0
C347 C 0.38361 0.83072 0.84061 0.0
C348 C 0.17241 0.75613 0.77622 0.0
C349 C 0.24805 0.83619 0.82243 0.0
C350 C 0.22938 0.8549 0.7948 0.0
C351 C 0.19137 0.8145 0.77154 0.0
N352 N 0.2294 0.77891 0.82681 0.0
C353 C 0.19195 0.73903 0.80418 0.0
H354 H 0.58973 0.11484 0.21843 0.0
H355 H 0.40726 0.06121 0.21776 0.0
H356 H 0.38177 0.96024 0.21972 0.0
H357 H 0.41107 0.88697 0.2187 0.0
H358 H 0.59343 0.94036 0.2169 0.0
H359 H 0.61908 0.04146 0.21905 0.0
C360 C 0.54443 0.08105 0.21905 0.0
C361 C 0.50054 0.09546 0.21786 0.0
C362 C 0.52998 0.02298 0.21963 0.0
C363 C 0.44196 0.05122 0.21843 0.0
C364 C 0.42726 0.99344 0.21959 0.0
C365 C 0.4564 0.92073 0.21917 0.0
C366 C 0.50022 0.90627 0.21759 0.0
C367 C 0.47089 0.9788 0.21978 0.0
C368 C 0.55882 0.95045 0.21791 0.0
C369 C 0.57358 0.00828 0.21915 0.0
H370 H 0.39074 0.43734 0.54369 0.0
H371 H 0.50246 0.62249 0.54767 0.0
H372 H 0.58789 0.61117 0.54923 0.0
H373 H 0.631 0.549 0.54749 0.0
H374 H 0.51938 0.36381 0.54396 0.0
H375 H 0.43378 0.37498 0.54436 0.0
C376 C 0.43376 0.47524 0.54502 0.0
C377 C 0.44017 0.53068 0.54545 0.0
C378 C 0.48273 0.46846 0.54595 0.0
C379 C 0.49623 0.5793 0.5474 0.0
C380 C 0.54516 0.57289 0.54819 0.0
C381 C 0.58795 0.51102 0.54695 0.0
C382 C 0.58164 0.45566 0.54559 0.0
C383 C 0.53893 0.51772 0.5472 0.0
C384 C 0.52552 0.40694 0.54511 0.0
C385 C 0.47652 0.41327 0.54523 0.0
H386 H 0.88493 0.4854 0.88317 0.0
H387 H 0.923 0.34668 0.8802 0.0
H388 H 0.02692 0.41648 0.88008 0.0
H389 H 0.1075 0.51705 0.87932 0.0
H390 H 0.0695 0.65585 0.8811 0.0
H391 H 0.96561 0.58605 0.88324 0.0
C392 C 0.91591 0.47037 0.88275 0.0
C393 C 0.89587 0.4107 0.88175 0.0
C394 C 0.97592 0.51087 0.88236 0.0
C395 C 0.93691 0.39223 0.88095 0.0
C396 C 0.99652 0.43218 0.88087 0.0
C397 C 0.07657 0.53211 0.8804 0.0
C398 C 0.09659 0.59179 0.88009 0.0
C399 C 0.0166 0.49163 0.88136 0.0
C400 C 0.05559 0.61029 0.88127 0.0
C401 C 0.99601 0.57034 0.8825 0.0
H402 H 0.12328 0.59469 0.50519 0.0
H403 H 0.08931 0.41976 0.49722 0.0
H404 H 0.98528 0.38398 0.49359 0.0
H405 H 0.90332 0.40173 0.49503 0.0
H406 H 0.93685 0.57585 0.50775 0.0
H407 H 0.04119 0.61238 0.50693 0.0
C408 C 0.09316 0.54879 0.50235 0.0
C409 C 0.11429 0.51007 0.50134 0.0
C410 C 0.03306 0.52824 0.50119 0.0
C411 C 0.07446 0.45062 0.49812 0.0
C412 C 0.01481 0.43005 0.49602 0.0
C413 C 0.93341 0.44772 0.4973 0.0
C414 C 0.91202 0.48592 0.50123 0.0
C415 C 0.99354 0.46838 0.49785 0.0
C416 C 0.95185 0.54535 0.50461 0.0
C417 C 0.01168 0.56637 0.5042 0.0
H418 H 0.3779 0.92869 0.83196 0.0
H419 H 0.49955 0.86863 0.84485 0.0
H420 H 0.58012 0.96828 0.84615 0.0
H421 H 0.61563 0.07268 0.84569 0.0
H422 H 0.49488 0.13256 0.82739 0.0
H423 H 0.41448 0.03302 0.8262 0.0
C424 C 0.42201 0.9374 0.83499 0.0
C425 C 0.43251 0.89118 0.83874 0.0
C426 C 0.46835 0.99489 0.83483 0.0
C427 C 0.49015 0.90328 0.84197 0.0
C428 C 0.53629 0.96034 0.84282 0.0
C429 C 0.57189 0.06411 0.84116 0.0
C430 C 0.56158 0.11044 0.83694 0.0
C431 C 0.52587 0.00654 0.83957 0.0
C432 C 0.50436 0.09806 0.83084 0.0
C433 C 0.4582 0.04101 0.8302 0.0
H434 H 0.39927 0.51566 0.1751 0.0
H435 H 0.57398 0.65097 0.15316 0.0
H436 H 0.60648 0.58083 0.15043 0.0
H437 H 0.58698 0.48184 0.15838 0.0
H438 H 0.41342 0.34772 0.18463 0.0
H439 H 0.3791 0.41615 0.18136 0.0
C440 C 0.44422 0.52961 0.16922 0.0
C441 C 0.48411 0.58852 0.16444 0.0
C442 C 0.46308 0.48914 0.16868 0.0
C443 C 0.54241 0.606 0.1572 0.0
C444 C 0.56111 0.56585 0.15564 0.0
C445 C 0.54153 0.4674 0.16302 0.0
C446 C 0.50303 0.40949 0.17157 0.0
C447 C 0.5221 0.50742 0.16202 0.0
C448 C 0.44428 0.39184 0.17781 0.0
C449 C 0.42443 0.43105 0.17605 0.0
H450 H 0.72333 0.30618 0.96886 0.0
H451 H 0.55442 0.25771 0.92812 0.0
H452 H 0.52147 0.26825 0.98355 0.0
H453 H 0.54049 0.29254 0.04365 0.0
H454 H 0.71009 0.34378 0.08435 0.0
H455 H 0.74254 0.33106 0.02914 0.0
C456 C 0.67921 0.29751 0.97218 0.0
C457 C 0.64154 0.28109 0.94428 0.0
C458 C 0.66057 0.30454 1.00418 0.0
C459 C 0.58459 0.2706 0.94904 0.0
C460 C 0.56557 0.27663 0.98079 0.0
C461 C 0.58459 0.30108 0.04045 0.0
C462 C 0.62268 0.31927 0.06817 0.0
C463 C 0.60324 0.29394 1.00852 0.0
C464 C 0.67974 0.33002 0.06348 0.0
C465 C 0.69841 0.32258 0.03188 0.0
H466 H 0.32504 0.59766 0.27267 0.0
H467 H 0.48422 0.75335 0.29887 0.0
H468 H 0.45467 0.74049 0.35803 0.0
H469 H 0.38261 0.68622 0.40233 0.0
H470 H 0.22508 0.52917 0.37609 0.0
H471 H 0.2549 0.54185 0.31697 0.0
C472 C 0.35355 0.62876 0.29126 0.0
C473 C 0.40681 0.67654 0.2811 0.0
C474 C 0.33632 0.62119 0.32529 0.0
C475 C 0.4431 0.71604 0.30579 0.0
C476 C 0.42609 0.70891 0.33969 0.0
C477 C 0.35463 0.65497 0.38363 0.0
C478 C 0.30136 0.60711 0.39361 0.0
C479 C 0.37255 0.66195 0.34969 0.0
C480 C 0.26614 0.56652 0.36913 0.0
C481 C 0.28322 0.57367 0.33529 0.0
H482 H 0.70303 0.25473 0.7067 0.0
H483 H 0.66708 0.38566 0.74319 0.0
H484 H 0.68655 0.4294 0.68752 0.0
H485 H 0.7123 0.43034 0.62831 0.0
H486 H 0.74574 0.2985 0.59059 0.0
H487 H 0.72906 0.25578 0.64679 0.0
C488 C 0.69939 0.29277 0.70245 0.0
C489 C 0.68336 0.31657 0.72917 0.0
C490 C 0.71039 0.31785 0.67012 0.0
C491 C 0.67897 0.36602 0.72315 0.0
C492 C 0.69027 0.39132 0.69128 0.0
C493 C 0.71642 0.39252 0.63235 0.0
C494 C 0.73047 0.36791 0.60519 0.0
C495 C 0.70591 0.3676 0.66458 0.0
C496 C 0.73499 0.31848 0.61098 0.0
C497 C 0.72537 0.2939 0.64314 0.0
H498 H 0.27149 0.70163 0.96673 0.0
H499 H 0.42691 0.71635 0.9228 0.0
H500 H 0.45939 0.70531 0.9782 0.0
H501 H 0.44438 0.69165 0.03943 0.0
H502 H 0.28759 0.67347 0.08334 0.0
H503 H 0.2553 0.68547 0.02791 0.0
C504 C 0.31252 0.70254 0.96926 0.0
C505 C 0.34662 0.71006 0.94046 0.0
C506 C 0.33085 0.69537 1.00132 0.0
C507 C 0.39951 0.71062 0.94435 0.0
C508 C 0.4183 0.70432 0.97613 0.0
C509 C 0.4031 0.6902 0.03689 0.0
C510 C 0.3686 0.68164 0.0656 0.0
C511 C 0.38438 0.69665 1.00481 0.0
C512 C 0.31507 0.67972 0.06172 0.0
C513 C 0.29653 0.68675 0.02999 0.0
H514 H 0.64021 0.31391 0.40074 0.0
H515 H 0.78707 0.47836 0.37267 0.0
H516 H 0.74805 0.4672 0.31553 0.0
H517 H 0.67326 0.41 0.27345 0.0
H518 H 0.52537 0.24635 0.3021 0.0
H519 H 0.56344 0.2587 0.35936 0.0
C520 C 0.66393 0.34723 0.38209 0.0
C521 C 0.71692 0.3966 0.39085 0.0
C522 C 0.64078 0.34099 0.34951 0.0
C523 C 0.74645 0.43977 0.36653 0.0
C524 C 0.72407 0.43349 0.33389 0.0
C525 C 0.64902 0.37709 0.29221 0.0
C526 C 0.59654 0.32712 0.28326 0.0
C527 C 0.67133 0.38421 0.32509 0.0
C528 C 0.56575 0.2853 0.30813 0.0
C529 C 0.58767 0.29213 0.34089 0.0
H530 H 0.31408 0.62868 0.73215 0.0
H531 H 0.31581 0.78575 0.7058 0.0
H532 H 0.3037 0.75794 0.64616 0.0
H533 H 0.29383 0.68923 0.60138 0.0
H534 H 0.28993 0.53133 0.62905 0.0
H535 H 0.3015 0.55942 0.68816 0.0
C536 C 0.31197 0.65705 0.71341 0.0
C537 C 0.31632 0.7095 0.72349 0.0
C538 C 0.30449 0.64058 0.6793 0.0
C539 C 0.31275 0.74522 0.6988 0.0
C540 C 0.30584 0.72933 0.66466 0.0
C541 C 0.29537 0.66086 0.62031 0.0
C542 C 0.29113 0.60821 0.61049 0.0
C543 C 0.30181 0.67713 0.65458 0.0
C544 C 0.29299 0.57204 0.6356 0.0
C545 C 0.29974 0.58809 0.66954 0.0
loop_
_geom_bond_atom_site_label_1
_geom_bond_atom_site_label_2
_geom_bond_distance
_geom_bond_site_symmetry_2
_ccdc_geom_bond_type
Co0 O2 2.143 . S
Co0 O8 2.074 . S
Co0 O11 2.093 . S
Co0 O24 2.097 . S
Co0 N41 2.151 . S
Co0 N49 2.214 . S
Co1 O2 2.160 . S
Co1 O7 2.058 . S
Co1 O17 2.057 . S
Co1 O32 2.037 . S
Co1 N36 2.145 . S
Co1 N57 2.257 . S
O2 Co0 2.143 . S
O2 Co1 2.160 . S
C3 O4 1.278 . S
C3 O11 1.224 . S
O4 C3 1.278 . S
C5 O6 1.245 . S
C5 O17 1.232 . S
O6 C5 1.245 . S
O7 Co1 2.058 . S
O7 C33 1.269 . S
O8 Co0 2.074 . S
O8 C33 1.257 . S
H9 C34 0.930 . S
H10 C40 0.930 . S
O11 Co0 2.093 . S
O11 C3 1.224 . S
H12 C44 0.929 . S
H13 C46 0.930 . S
H14 C47 0.930 . S
H15 C45 0.929 . S
H16 C48 0.928 . S
O17 Co1 2.057 . S
O17 C5 1.232 . S
H18 C37 0.929 . S
H19 C38 0.929 . S
H20 C50 0.931 . S
H21 C42 0.929 . S
H22 C51 0.930 . S
H23 C43 0.931 . S
O24 Co0 2.097 . S
O24 C52 1.214 . S
H25 C53 0.929 . S
H26 C54 0.929 . S
H27 C55 0.930 . S
H28 C56 0.929 . S
H29 C58 0.930 . S
H30 C35 0.930 . S
H31 C39 0.930 . S
O32 Co1 2.037 . S
O32 C52 1.234 . S
C33 O7 1.269 . S
C33 O8 1.257 . S
C34 H9 0.930 . S
C34 C37 1.388 . S
C34 C39 1.418 . S
C35 H30 0.930 . S
C35 C38 1.404 . S
C35 C39 1.353 . S
N36 Co1 2.145 . S
N36 C37 1.397 . S
N36 C38 1.334 . S
C37 H18 0.929 . S
C37 C34 1.388 . S
C37 N36 1.397 . S
C38 H19 0.929 . S
C38 C35 1.404 . S
C38 N36 1.334 . S
C39 H31 0.930 . S
C39 C34 1.418 . S
C39 C35 1.353 . S
C40 H10 0.930 . S
C40 N41 1.330 . S
C40 C42 1.446 . S
N41 Co0 2.151 . S
N41 C40 1.330 . S
N41 C45 1.418 . S
C42 H21 0.929 . S
C42 C40 1.446 . S
C42 C43 1.332 . S
C43 H23 0.931 . S
C43 C42 1.332 . S
C43 C44 1.267 . S
C44 H12 0.929 . S
C44 C43 1.267 . S
C44 C45 1.251 . S
C45 H15 0.929 . S
C45 N41 1.418 . S
C45 C44 1.251 . S
C46 H13 0.930 . S
C46 C48 1.406 . S
C46 C51 1.261 . S
C47 H14 0.930 . S
C47 N49 1.325 . S
C47 C50 1.357 . S
C48 H16 0.928 . S
C48 C46 1.406 . S
C48 N49 1.261 . S
N49 Co0 2.214 . S
N49 C47 1.325 . S
N49 C48 1.261 . S
C50 H20 0.931 . S
C50 C47 1.357 . S
C50 C51 1.312 . S
C51 H22 0.930 . S
C51 C46 1.261 . S
C51 C50 1.312 . S
C52 O24 1.214 . S
C52 O32 1.234 . S
C53 H25 0.929 . S
C53 C56 1.391 . S
C53 C58 1.391 . S
C54 H26 0.929 . S
C54 C55 1.390 . S
C54 N57 1.391 . S
C55 H27 0.930 . S
C55 C54 1.390 . S
C55 C56 1.392 . S
C56 H28 0.929 . S
C56 C53 1.391 . S
C56 C55 1.392 . S
N57 Co1 2.257 . S
N57 C54 1.391 . S
N57 C58 1.388 . S
C58 H29 0.930 . S
C58 C53 1.391 . S
C58 N57 1.388 . S
Co59 O61 2.143 . S
Co59 O67 2.074 . S
Co59 O70 2.093 . S
Co59 O83 2.097 . S
Co59 N100 2.151 . S
Co59 N108 2.214 . S
Co60 O61 2.160 . S
Co60 O66 2.058 . S
Co60 O76 2.057 . S
Co60 O91 2.037 . S
Co60 N95 2.145 . S
Co60 N116 2.257 . S
O61 Co59 2.143 . S
O61 Co60 2.160 . S
C62 O63 1.278 . S
C62 O70 1.224 . S
O63 C62 1.278 . S
C64 O65 1.245 . S
C64 O76 1.232 . S
O65 C64 1.245 . S
O66 Co60 2.058 . S
O66 C92 1.269 . S
O67 Co59 2.074 . S
O67 C92 1.257 . S
H68 C93 0.930 . S
H69 C99 0.930 . S
O70 Co59 2.093 . S
O70 C62 1.224 . S
H71 C103 0.929 . S
H72 C105 0.930 . S
H73 C106 0.930 . S
H74 C104 0.929 . S
H75 C107 0.928 . S
O76 Co60 2.057 . S
O76 C64 1.232 . S
H77 C96 0.929 . S
H78 C97 0.929 . S
H79 C109 0.931 . S
H80 C101 0.929 . S
H81 C110 0.930 . S
H82 C102 0.931 . S
O83 Co59 2.097 . S
O83 C111 1.214 . S
H84 C112 0.929 . S
H85 C113 0.929 . S
H86 C114 0.930 . S
H87 C115 0.929 . S
H88 C117 0.930 . S
H89 C94 0.930 . S
H90 C98 0.930 . S
O91 Co60 2.037 . S
O91 C111 1.234 . S
C92 O66 1.269 . S
C92 O67 1.257 . S
C93 H68 0.930 . S
C93 C96 1.388 . S
C93 C98 1.418 . S
C94 H89 0.930 . S
C94 C97 1.404 . S
C94 C98 1.353 . S
N95 Co60 2.145 . S
N95 C96 1.397 . S
N95 C97 1.334 . S
C96 H77 0.929 . S
C96 C93 1.388 . S
C96 N95 1.397 . S
C97 H78 0.929 . S
C97 C94 1.404 . S
C97 N95 1.334 . S
C98 H90 0.930 . S
C98 C93 1.418 . S
C98 C94 1.353 . S
C99 H69 0.930 . S
C99 N100 1.330 . S
C99 C101 1.446 . S
N100 Co59 2.151 . S
N100 C99 1.330 . S
N100 C104 1.418 . S
C101 H80 0.929 . S
C101 C99 1.446 . S
C101 C102 1.332 . S
C102 H82 0.931 . S
C102 C101 1.332 . S
C102 C103 1.267 . S
C103 H71 0.929 . S
C103 C102 1.267 . S
C103 C104 1.251 . S
C104 H74 0.929 . S
C104 N100 1.418 . S
C104 C103 1.251 . S
C105 H72 0.930 . S
C105 C107 1.406 . S
C105 C110 1.261 . S
C106 H73 0.930 . S
C106 N108 1.325 . S
C106 C109 1.357 . S
C107 H75 0.928 . S
C107 C105 1.406 . S
C107 N108 1.261 . S
N108 Co59 2.214 . S
N108 C106 1.325 . S
N108 C107 1.261 . S
C109 H79 0.931 . S
C109 C106 1.357 . S
C109 C110 1.312 . S
C110 H81 0.930 . S
C110 C105 1.261 . S
C110 C109 1.312 . S
C111 O83 1.214 . S
C111 O91 1.234 . S
C112 H84 0.929 . S
C112 C115 1.391 . S
C112 C117 1.391 . S
C113 H85 0.929 . S
C113 C114 1.390 . S
C113 N116 1.391 . S
C114 H86 0.930 . S
C114 C113 1.390 . S
C114 C115 1.392 . S
C115 H87 0.929 . S
C115 C112 1.391 . S
C115 C114 1.392 . S
N116 Co60 2.257 . S
N116 C113 1.391 . S
N116 C117 1.388 . S
C117 H88 0.930 . S
C117 C112 1.391 . S
C117 N116 1.388 . S
Co118 O120 2.143 . S
Co118 O126 2.074 . S
Co118 O129 2.093 . S
Co118 O142 2.097 . S
Co118 N159 2.151 . S
Co118 N167 2.214 . S
Co119 O120 2.160 . S
Co119 O125 2.058 . S
Co119 O135 2.057 . S
Co119 O150 2.037 . S
Co119 N154 2.145 . S
Co119 N175 2.257 . S
O120 Co118 2.143 . S
O120 Co119 2.160 . S
C121 O122 1.278 . S
C121 O129 1.224 . S
O122 C121 1.278 . S
C123 O124 1.245 . S
C123 O135 1.232 . S
O124 C123 1.245 . S
O125 Co119 2.058 . S
O125 C151 1.269 . S
O126 Co118 2.074 . S
O126 C151 1.257 . S
H127 C152 0.930 . S
H128 C158 0.930 . S
O129 Co118 2.093 . S
O129 C121 1.224 . S
H130 C162 0.929 . S
H131 C164 0.930 . S
H132 C165 0.930 . S
H133 C163 0.929 . S
H134 C166 0.928 . S
O135 Co119 2.057 . S
O135 C123 1.232 . S
H136 C155 0.929 . S
H137 C156 0.929 . S
H138 C168 0.931 . S
H139 C160 0.929 . S
H140 C169 0.930 . S
H141 C161 0.931 . S
O142 Co118 2.097 . S
O142 C170 1.214 . S
H143 C171 0.929 . S
H144 C172 0.929 . S
H145 C173 0.930 . S
H146 C174 0.929 . S
H147 C176 0.930 . S
H148 C153 0.930 . S
H149 C157 0.930 . S
O150 Co119 2.037 . S
O150 C170 1.234 . S
C151 O125 1.269 . S
C151 O126 1.257 . S
C152 H127 0.930 . S
C152 C155 1.388 . S
C152 C157 1.418 . S
C153 H148 0.930 . S
C153 C156 1.404 . S
C153 C157 1.353 . S
N154 Co119 2.145 . S
N154 C155 1.397 . S
N154 C156 1.334 . S
C155 H136 0.929 . S
C155 C152 1.388 . S
C155 N154 1.397 . S
C156 H137 0.929 . S
C156 C153 1.404 . S
C156 N154 1.334 . S
C157 H149 0.930 . S
C157 C152 1.418 . S
C157 C153 1.353 . S
C158 H128 0.930 . S
C158 N159 1.330 . S
C158 C160 1.446 . S
N159 Co118 2.151 . S
N159 C158 1.330 . S
N159 C163 1.418 . S
C160 H139 0.929 . S
C160 C158 1.446 . S
C160 C161 1.332 . S
C161 H141 0.931 . S
C161 C160 1.332 . S
C161 C162 1.267 . S
C162 H130 0.929 . S
C162 C161 1.267 . S
C162 C163 1.251 . S
C163 H133 0.929 . S
C163 N159 1.418 . S
C163 C162 1.251 . S
C164 H131 0.930 . S
C164 C166 1.406 . S
C164 C169 1.261 . S
C165 H132 0.930 . S
C165 N167 1.325 . S
C165 C168 1.357 . S
C166 H134 0.928 . S
C166 C164 1.406 . S
C166 N167 1.261 . S
N167 Co118 2.214 . S
N167 C165 1.325 . S
N167 C166 1.261 . S
C168 H138 0.931 . S
C168 C165 1.357 . S
C168 C169 1.312 . S
C169 H140 0.930 . S
C169 C164 1.261 . S
C169 C168 1.312 . S
C170 O142 1.214 . S
C170 O150 1.234 . S
C171 H143 0.929 . S
C171 C174 1.391 . S
C171 C176 1.391 . S
C172 H144 0.929 . S
C172 C173 1.390 . S
C172 N175 1.391 . S
C173 H145 0.930 . S
C173 C172 1.390 . S
C173 C174 1.392 . S
C174 H146 0.929 . S
C174 C171 1.391 . S
C174 C173 1.392 . S
N175 Co119 2.257 . S
N175 C172 1.391 . S
N175 C176 1.388 . S
C176 H147 0.930 . S
C176 C171 1.391 . S
C176 N175 1.388 . S
Co177 O179 2.143 . S
Co177 O185 2.074 . S
Co177 O188 2.093 . S
Co177 O201 2.097 . S
Co177 N218 2.151 . S
Co177 N226 2.214 . S
Co178 O179 2.160 . S
Co178 O184 2.058 . S
Co178 O194 2.057 . S
Co178 O209 2.037 . S
Co178 N213 2.145 . S
Co178 N234 2.257 . S
O179 Co177 2.143 . S
O179 Co178 2.160 . S
C180 O181 1.278 . S
C180 O188 1.224 . S
O181 C180 1.278 . S
C182 O183 1.245 . S
C182 O194 1.232 . S
O183 C182 1.245 . S
O184 Co178 2.058 . S
O184 C210 1.269 . S
O185 Co177 2.074 . S
O185 C210 1.257 . S
H186 C211 0.930 . S
H187 C217 0.930 . S
O188 Co177 2.093 . S
O188 C180 1.224 . S
H189 C221 0.929 . S
H190 C223 0.930 . S
H191 C224 0.930 . S
H192 C222 0.929 . S
H193 C225 0.928 . S
O194 Co178 2.057 . S
O194 C182 1.232 . S
H195 C214 0.929 . S
H196 C215 0.929 . S
H197 C227 0.931 . S
H198 C219 0.929 . S
H199 C228 0.930 . S
H200 C220 0.931 . S
O201 Co177 2.097 . S
O201 C229 1.214 . S
H202 C230 0.929 . S
H203 C231 0.929 . S
H204 C232 0.930 . S
H205 C233 0.929 . S
H206 C235 0.930 . S
H207 C212 0.930 . S
H208 C216 0.930 . S
O209 Co178 2.037 . S
O209 C229 1.234 . S
C210 O184 1.269 . S
C210 O185 1.257 . S
C211 H186 0.930 . S
C211 C214 1.388 . S
C211 C216 1.418 . S
C212 H207 0.930 . S
C212 C215 1.404 . S
C212 C216 1.353 . S
N213 Co178 2.145 . S
N213 C214 1.397 . S
N213 C215 1.334 . S
C214 H195 0.929 . S
C214 C211 1.388 . S
C214 N213 1.397 . S
C215 H196 0.929 . S
C215 C212 1.404 . S
C215 N213 1.334 . S
C216 H208 0.930 . S
C216 C211 1.418 . S
C216 C212 1.353 . S
C217 H187 0.930 . S
C217 N218 1.330 . S
C217 C219 1.446 . S
N218 Co177 2.151 . S
N218 C217 1.330 . S
N218 C222 1.418 . S
C219 H198 0.929 . S
C219 C217 1.446 . S
C219 C220 1.332 . S
C220 H200 0.931 . S
C220 C219 1.332 . S
C220 C221 1.267 . S
C221 H189 0.929 . S
C221 C220 1.267 . S
C221 C222 1.251 . S
C222 H192 0.929 . S
C222 N218 1.418 . S
C222 C221 1.251 . S
C223 H190 0.930 . S
C223 C225 1.406 . S
C223 C228 1.261 . S
C224 H191 0.930 . S
C224 N226 1.325 . S
C224 C227 1.357 . S
C225 H193 0.928 . S
C225 C223 1.406 . S
C225 N226 1.261 . S
N226 Co177 2.214 . S
N226 C224 1.325 . S
N226 C225 1.261 . S
C227 H197 0.931 . S
C227 C224 1.357 . S
C227 C228 1.312 . S
C228 H199 0.930 . S
C228 C223 1.261 . S
C228 C227 1.312 . S
C229 O201 1.214 . S
C229 O209 1.234 . S
C230 H202 0.929 . S
C230 C233 1.391 . S
C230 C235 1.391 . S
C231 H203 0.929 . S
C231 C232 1.390 . S
C231 N234 1.391 . S
C232 H204 0.930 . S
C232 C231 1.390 . S
C232 C233 1.392 . S
C233 H205 0.929 . S
C233 C230 1.391 . S
C233 C232 1.392 . S
N234 Co178 2.257 . S
N234 C231 1.391 . S
N234 C235 1.388 . S
C235 H206 0.930 . S
C235 C230 1.391 . S
C235 N234 1.388 . S
Co236 O238 2.143 . S
Co236 O244 2.074 . S
Co236 O247 2.093 . S
Co236 O260 2.097 . S
Co236 N277 2.151 . S
Co236 N285 2.214 . S
Co237 O238 2.160 . S
Co237 O243 2.058 . S
Co237 O253 2.057 . S
Co237 O268 2.037 . S
Co237 N272 2.145 . S
Co237 N293 2.257 . S
O238 Co236 2.143 . S
O238 Co237 2.160 . S
C239 O240 1.278 . S
C239 O247 1.224 . S
O240 C239 1.278 . S
C241 O242 1.245 . S
C241 O253 1.232 . S
O242 C241 1.245 . S
O243 Co237 2.058 . S
O243 C269 1.269 . S
O244 Co236 2.074 . S
O244 C269 1.257 . S
H245 C270 0.930 . S
H246 C276 0.930 . S
O247 Co236 2.093 . S
O247 C239 1.224 . S
H248 C280 0.929 . S
H249 C282 0.930 . S
H250 C283 0.930 . S
H251 C281 0.929 . S
H252 C284 0.928 . S
O253 Co237 2.057 . S
O253 C241 1.232 . S
H254 C273 0.929 . S
H255 C274 0.929 . S
H256 C286 0.931 . S
H257 C278 0.929 . S
H258 C287 0.930 . S
H259 C279 0.931 . S
O260 Co236 2.097 . S
O260 C288 1.214 . S
H261 C289 0.929 . S
H262 C290 0.929 . S
H263 C291 0.930 . S
H264 C292 0.929 . S
H265 C294 0.930 . S
H266 C271 0.930 . S
H267 C275 0.930 . S
O268 Co237 2.037 . S
O268 C288 1.234 . S
C269 O243 1.269 . S
C269 O244 1.257 . S
C270 H245 0.930 . S
C270 C273 1.388 . S
C270 C275 1.418 . S
C271 H266 0.930 . S
C271 C274 1.404 . S
C271 C275 1.353 . S
N272 Co237 2.145 . S
N272 C273 1.397 . S
N272 C274 1.334 . S
C273 H254 0.929 . S
C273 C270 1.388 . S
C273 N272 1.397 . S
C274 H255 0.929 . S
C274 C271 1.404 . S
C274 N272 1.334 . S
C275 H267 0.930 . S
C275 C270 1.418 . S
C275 C271 1.353 . S
C276 H246 0.930 . S
C276 N277 1.330 . S
C276 C278 1.446 . S
N277 Co236 2.151 . S
N277 C276 1.330 . S
N277 C281 1.418 . S
C278 H257 0.929 . S
C278 C276 1.446 . S
C278 C279 1.332 . S
C279 H259 0.931 . S
C279 C278 1.332 . S
C279 C280 1.267 . S
C280 H248 0.929 . S
C280 C279 1.267 . S
C280 C281 1.251 . S
C281 H251 0.929 . S
C281 N277 1.418 . S
C281 C280 1.251 . S
C282 H249 0.930 . S
C282 C284 1.406 . S
C282 C287 1.261 . S
C283 H250 0.930 . S
C283 N285 1.325 . S
C283 C286 1.357 . S
C284 H252 0.928 . S
C284 C282 1.406 . S
C284 N285 1.261 . S
N285 Co236 2.214 . S
N285 C283 1.325 . S
N285 C284 1.261 . S
C286 H256 0.931 . S
C286 C283 1.357 . S
C286 C287 1.312 . S
C287 H258 0.930 . S
C287 C282 1.261 . S
C287 C286 1.312 . S
C288 O260 1.214 . S
C288 O268 1.234 . S
C289 H261 0.929 . S
C289 C292 1.391 . S
C289 C294 1.391 . S
C290 H262 0.929 . S
C290 C291 1.390 . S
C290 N293 1.391 . S
C291 H263 0.930 . S
C291 C290 1.390 . S
C291 C292 1.392 . S
C292 H264 0.929 . S
C292 C289 1.391 . S
C292 C291 1.392 . S
N293 Co237 2.257 . S
N293 C290 1.391 . S
N293 C294 1.388 . S
C294 H265 0.930 . S
C294 C289 1.391 . S
C294 N293 1.388 . S
Co295 O297 2.143 . S
Co295 O303 2.074 . S
Co295 O306 2.093 . S
Co295 O319 2.097 . S
Co295 N336 2.151 . S
Co295 N344 2.214 . S
Co296 O297 2.160 . S
Co296 O302 2.058 . S
Co296 O312 2.057 . S
Co296 O327 2.037 . S
Co296 N331 2.145 . S
Co296 N352 2.257 . S
O297 Co295 2.143 . S
O297 Co296 2.160 . S
C298 O299 1.278 . S
C298 O306 1.224 . S
O299 C298 1.278 . S
C300 O301 1.245 . S
C300 O312 1.232 . S
O301 C300 1.245 . S
O302 Co296 2.058 . S
O302 C328 1.269 . S
O303 Co295 2.074 . S
O303 C328 1.257 . S
H304 C329 0.930 . S
H305 C335 0.930 . S
O306 Co295 2.093 . S
O306 C298 1.224 . S
H307 C339 0.929 . S
H308 C341 0.930 . S
H309 C342 0.930 . S
H310 C340 0.929 . S
H311 C343 0.928 . S
O312 Co296 2.057 . S
O312 C300 1.232 . S
H313 C332 0.929 . S
H314 C333 0.929 . S
H315 C345 0.931 . S
H316 C337 0.929 . S
H317 C346 0.930 . S
H318 C338 0.931 . S
O319 Co295 2.097 . S
O319 C347 1.214 . S
H320 C348 0.929 . S
H321 C349 0.929 . S
H322 C350 0.930 . S
H323 C351 0.929 . S
H324 C353 0.930 . S
H325 C330 0.930 . S
H326 C334 0.930 . S
O327 Co296 2.037 . S
O327 C347 1.234 . S
C328 O302 1.269 . S
C328 O303 1.257 . S
C329 H304 0.930 . S
C329 C332 1.388 . S
C329 C334 1.418 . S
C330 H325 0.930 . S
C330 C333 1.404 . S
C330 C334 1.353 . S
N331 Co296 2.145 . S
N331 C332 1.397 . S
N331 C333 1.334 . S
C332 H313 0.929 . S
C332 C329 1.388 . S
C332 N331 1.397 . S
C333 H314 0.929 . S
C333 C330 1.404 . S
C333 N331 1.334 . S
C334 H326 0.930 . S
C334 C329 1.418 . S
C334 C330 1.353 . S
C335 H305 0.930 . S
C335 N336 1.330 . S
C335 C337 1.446 . S
N336 Co295 2.151 . S
N336 C335 1.330 . S
N336 C340 1.418 . S
C337 H316 0.929 . S
C337 C335 1.446 . S
C337 C338 1.332 . S
C338 H318 0.931 . S
C338 C337 1.332 . S
C338 C339 1.267 . S
C339 H307 0.929 . S
C339 C338 1.267 . S
C339 C340 1.251 . S
C340 H310 0.929 . S
C340 N336 1.418 . S
C340 C339 1.251 . S
C341 H308 0.930 . S
C341 C343 1.406 . S
C341 C346 1.261 . S
C342 H309 0.930 . S
C342 N344 1.325 . S
C342 C345 1.357 . S
C343 H311 0.928 . S
C343 C341 1.406 . S
C343 N344 1.261 . S
N344 Co295 2.214 . S
N344 C342 1.325 . S
N344 C343 1.261 . S
C345 H315 0.931 . S
C345 C342 1.357 . S
C345 C346 1.312 . S
C346 H317 0.930 . S
C346 C341 1.261 . S
C346 C345 1.312 . S
C347 O319 1.214 . S
C347 O327 1.234 . S
C348 H320 0.929 . S
C348 C351 1.391 . S
C348 C353 1.391 . S
C349 H321 0.929 . S
C349 C350 1.390 . S
C349 N352 1.391 . S
C350 H322 0.930 . S
C350 C349 1.390 . S
C350 C351 1.392 . S
C351 H323 0.929 . S
C351 C348 1.391 . S
C351 C350 1.392 . S
N352 Co296 2.257 . S
N352 C349 1.391 . S
N352 C353 1.388 . S
C353 H324 0.930 . S
C353 C348 1.391 . S
C353 N352 1.388 . S
H354 C360 0.930 . S
H355 C363 0.930 . S
H356 C364 0.930 1_565 S
H357 C365 0.930 . S
H358 C368 0.930 . S
H359 C369 0.930 1_545 S
C360 H354 0.930 . S
C360 C361 1.355 . S
C360 C362 1.415 . S
C361 C360 1.355 . S
C361 C363 1.419 . S
C362 C360 1.415 . S
C362 C367 1.425 1_545 S
C362 C369 1.409 1_545 S
C363 H355 0.930 . S
C363 C361 1.419 . S
C363 C364 1.362 . S
C364 H356 0.930 1_545 S
C364 C363 1.362 . S
C364 C367 1.409 1_545 S
C365 H357 0.930 . S
C365 C366 1.355 . S
C365 C367 1.415 . S
C366 C365 1.355 . S
C366 C368 1.419 . S
C367 C362 1.425 1_565 S
C367 C364 1.409 1_565 S
C367 C365 1.415 . S
C368 H358 0.930 . S
C368 C366 1.419 . S
C368 C369 1.362 . S
C369 H359 0.930 1_565 S
C369 C362 1.409 1_565 S
C369 C368 1.362 . S
H370 C376 0.930 . S
H371 C379 0.930 . S
H372 C380 0.930 . S
H373 C381 0.930 . S
H374 C384 0.930 . S
H375 C385 0.930 . S
C376 H370 0.930 . S
C376 C377 1.355 . S
C376 C378 1.415 . S
C377 C376 1.355 . S
C377 C379 1.419 . S
C378 C376 1.415 . S
C378 C383 1.425 . S
C378 C385 1.409 . S
C379 H371 0.930 . S
C379 C377 1.419 . S
C379 C380 1.362 . S
C380 H372 0.930 . S
C380 C379 1.362 . S
C380 C383 1.409 . S
C381 H373 0.930 . S
C381 C382 1.355 . S
C381 C383 1.415 . S
C382 C381 1.355 . S
C382 C384 1.419 . S
C383 C378 1.425 . S
C383 C380 1.409 . S
C383 C381 1.415 . S
C384 H374 0.930 . S
C384 C382 1.419 . S
C384 C385 1.362 . S
C385 H375 0.930 . S
C385 C378 1.409 . S
C385 C384 1.362 . S
H386 C392 0.930 . S
H387 C395 0.930 . S
H388 C396 0.930 1_455 S
H389 C397 0.930 . S
H390 C400 0.930 . S
H391 C401 0.930 1_655 S
C392 H386 0.930 . S
C392 C393 1.355 . S
C392 C394 1.415 . S
C393 C392 1.355 . S
C393 C395 1.419 . S
C394 C392 1.415 . S
C394 C399 1.425 1_655 S
C394 C401 1.409 1_655 S
C395 H387 0.930 . S
C395 C393 1.419 . S
C395 C396 1.362 . S
C396 H388 0.930 1_655 S
C396 C395 1.362 . S
C396 C399 1.409 1_655 S
C397 H389 0.930 . S
C397 C398 1.355 . S
C397 C399 1.415 . S
C398 C397 1.355 . S
C398 C400 1.419 . S
C399 C394 1.425 1_455 S
C399 C396 1.409 1_455 S
C399 C397 1.415 . S
C400 H390 0.930 . S
C400 C398 1.419 . S
C400 C401 1.362 . S
C401 H391 0.930 1_455 S
C401 C394 1.409 1_455 S
C401 C400 1.362 . S
H402 C408 0.930 . S
H403 C411 0.930 . S
H404 C412 0.930 . S
H405 C413 0.930 . S
H406 C416 0.930 . S
H407 C417 0.930 . S
C408 H402 0.930 . S
C408 C409 1.355 . S
C408 C410 1.415 . S
C409 C408 1.355 . S
C409 C411 1.419 . S
C410 C408 1.415 . S
C410 C415 1.425 1_455 S
C410 C417 1.409 1_455 S
C411 H403 0.930 . S
C411 C409 1.419 . S
C411 C412 1.362 . S
C412 H404 0.930 . S
C412 C411 1.362 . S
C412 C415 1.409 1_455 S
C413 H405 0.930 . S
C413 C414 1.355 . S
C413 C415 1.415 . S
C414 C413 1.355 . S
C414 C416 1.419 . S
C415 C410 1.425 1_655 S
C415 C412 1.409 1_655 S
C415 C413 1.415 . S
C416 H406 0.930 . S
C416 C414 1.419 . S
C416 C417 1.362 . S
C417 H407 0.930 . S
C417 C410 1.409 1_655 S
C417 C416 1.362 . S
H418 C424 0.930 . S
H419 C427 0.930 . S
H420 C428 0.930 . S
H421 C429 0.930 . S
H422 C432 0.930 . S
H423 C433 0.930 . S
C424 H418 0.930 . S
C424 C425 1.355 . S
C424 C426 1.415 . S
C425 C424 1.355 . S
C425 C427 1.419 . S
C426 C424 1.415 . S
C426 C431 1.425 1_565 S
C426 C433 1.409 1_565 S
C427 H419 0.930 . S
C427 C425 1.419 . S
C427 C428 1.362 . S
C428 H420 0.930 . S
C428 C427 1.362 . S
C428 C431 1.409 1_565 S
C429 H421 0.930 . S
C429 C430 1.355 . S
C429 C431 1.415 . S
C430 C429 1.355 . S
C430 C432 1.419 . S
C431 C426 1.425 1_545 S
C431 C428 1.409 1_545 S
C431 C429 1.415 . S
C432 H422 0.930 . S
C432 C430 1.419 . S
C432 C433 1.362 . S
C433 H423 0.930 . S
C433 C426 1.409 1_545 S
C433 C432 1.362 . S
H434 C440 0.930 . S
H435 C443 0.930 . S
H436 C444 0.930 . S
H437 C445 0.930 . S
H438 C448 0.930 . S
H439 C449 0.930 . S
C440 H434 0.930 . S
C440 C441 1.355 . S
C440 C442 1.415 . S
C441 C440 1.355 . S
C441 C443 1.419 . S
C442 C440 1.415 . S
C442 C447 1.425 . S
C442 C449 1.409 . S
C443 H435 0.930 . S
C443 C441 1.419 . S
C443 C444 1.362 . S
C444 H436 0.930 . S
C444 C443 1.362 . S
C444 C447 1.409 . S
C445 H437 0.930 . S
C445 C446 1.355 . S
C445 C447 1.415 . S
C446 C445 1.355 . S
C446 C448 1.419 . S
C447 C442 1.425 . S
C447 C444 1.409 . S
C447 C445 1.415 . S
C448 H438 0.930 . S
C448 C446 1.419 . S
C448 C449 1.362 . S
C449 H439 0.930 . S
C449 C442 1.409 . S
C449 C448 1.362 . S
H450 C456 0.930 . S
H451 C459 0.930 . S
H452 C460 0.930 . S
H453 C461 0.930 . S
H454 C464 0.930 . S
H455 C465 0.930 1_556 S
C456 H450 0.930 . S
C456 C457 1.355 . S
C456 C458 1.415 . S
C457 C456 1.355 . S
C457 C459 1.419 . S
C458 C456 1.415 . S
C458 C463 1.426 1_556 S
C458 C465 1.409 1_556 S
C459 H451 0.930 . S
C459 C457 1.419 . S
C459 C460 1.362 . S
C460 H452 0.930 . S
C460 C459 1.362 . S
C460 C463 1.411 1_556 S
C461 H453 0.930 . S
C461 C462 1.355 . S
C461 C463 1.412 . S
C462 C461 1.355 . S
C462 C464 1.419 . S
C463 C458 1.426 1_554 S
C463 C460 1.411 1_554 S
C463 C461 1.412 . S
C464 H454 0.930 . S
C464 C462 1.419 . S
C464 C465 1.362 . S
C465 H455 0.930 1_554 S
C465 C458 1.409 1_554 S
C465 C464 1.362 . S
H466 C472 0.930 . S
H467 C475 0.930 . S
H468 C476 0.930 . S
H469 C477 0.930 . S
H470 C480 0.930 . S
H471 C481 0.930 . S
C472 H466 0.930 . S
C472 C473 1.355 . S
C472 C474 1.415 . S
C473 C472 1.355 . S
C473 C475 1.419 . S
C474 C472 1.415 . S
C474 C479 1.425 . S
C474 C481 1.409 . S
C475 H467 0.930 . S
C475 C473 1.419 . S
C475 C476 1.362 . S
C476 H468 0.930 . S
C476 C475 1.362 . S
C476 C479 1.409 . S
C477 H469 0.930 . S
C477 C478 1.355 . S
C477 C479 1.415 . S
C478 C477 1.355 . S
C478 C480 1.419 . S
C479 C474 1.425 . S
C479 C476 1.409 . S
C479 C477 1.415 . S
C480 H470 0.930 . S
C480 C478 1.419 . S
C480 C481 1.362 . S
C481 H471 0.930 . S
C481 C474 1.409 . S
C481 C480 1.362 . S
H482 C488 0.930 . S
H483 C491 0.930 . S
H484 C492 0.930 . S
H485 C493 0.930 . S
H486 C496 0.930 . S
H487 C497 0.930 . S
C488 H482 0.930 . S
C488 C489 1.355 . S
C488 C490 1.415 . S
C489 C488 1.355 . S
C489 C491 1.419 . S
C490 C488 1.415 . S
C490 C495 1.425 . S
C490 C497 1.409 . S
C491 H483 0.930 . S
C491 C489 1.419 . S
C491 C492 1.362 . S
C492 H484 0.930 . S
C492 C491 1.362 . S
C492 C495 1.409 . S
C493 H485 0.930 . S
C493 C494 1.355 . S
C493 C495 1.415 . S
C494 C493 1.355 . S
C494 C496 1.419 . S
C495 C490 1.425 . S
C495 C492 1.409 . S
C495 C493 1.415 . S
C496 H486 0.930 . S
C496 C494 1.419 . S
C496 C497 1.362 . S
C497 H487 0.930 . S
C497 C490 1.409 . S
C497 C496 1.362 . S
H498 C504 0.930 . S
H499 C507 0.930 . S
H500 C508 0.930 . S
H501 C509 0.930 . S
H502 C512 0.930 . S
H503 C513 0.930 . S
C504 H498 0.930 . S
C504 C505 1.355 . S
C504 C506 1.415 . S
C505 C504 1.355 . S
C505 C507 1.419 . S
C506 C504 1.415 . S
C506 C511 1.425 . S
C506 C513 1.409 1_556 S
C507 H499 0.930 . S
C507 C505 1.419 . S
C507 C508 1.362 . S
C508 H500 0.930 . S
C508 C507 1.362 . S
C508 C511 1.409 . S
C509 H501 0.930 . S
C509 C510 1.355 . S
C509 C511 1.415 1_554 S
C510 C509 1.355 . S
C510 C512 1.419 . S
C511 C506 1.425 . S
C511 C508 1.409 . S
C511 C509 1.415 1_556 S
C512 H502 0.930 . S
C512 C510 1.419 . S
C512 C513 1.362 . S
C513 H503 0.930 . S
C513 C506 1.409 1_554 S
C513 C512 1.362 . S
H514 C520 0.930 . S
H515 C523 0.930 . S
H516 C524 0.930 . S
H517 C525 0.930 . S
H518 C528 0.930 . S
H519 C529 0.930 . S
C520 H514 0.930 . S
C520 C521 1.355 . S
C520 C522 1.415 . S
C521 C520 1.355 . S
C521 C523 1.419 . S
C522 C520 1.415 . S
C522 C527 1.425 . S
C522 C529 1.409 . S
C523 H515 0.930 . S
C523 C521 1.419 . S
C523 C524 1.362 . S
C524 H516 0.930 . S
C524 C523 1.362 . S
C524 C527 1.409 . S
C525 H517 0.930 . S
C525 C526 1.355 . S
C525 C527 1.415 . S
C526 C525 1.355 . S
C526 C528 1.419 . S
C527 C522 1.425 . S
C527 C524 1.409 . S
C527 C525 1.415 . S
C528 H518 0.930 . S
C528 C526 1.419 . S
C528 C529 1.362 . S
C529 H519 0.930 . S
C529 C522 1.409 . S
C529 C528 1.362 . S
H530 C536 0.930 . S
H531 C539 0.930 . S
H532 C540 0.930 . S
H533 C541 0.930 . S
H534 C544 0.930 . S
H535 C545 0.930 . S
C536 H530 0.930 . S
C536 C537 1.355 . S
C536 C538 1.415 . S
C537 C536 1.355 . S
C537 C539 1.419 . S
C538 C536 1.415 . S
C538 C543 1.425 . S
C538 C545 1.409 . S
C539 H531 0.930 . S
C539 C537 1.419 . S
C539 C540 1.362 . S
C540 H532 0.930 . S
C540 C539 1.362 . S
C540 C543 1.409 . S
C541 H533 0.930 . S
C541 C542 1.355 . S
C541 C543 1.415 . S
C542 C541 1.355 . S
C542 C544 1.419 . S
C543 C538 1.425 . S
C543 C540 1.409 . S
C543 C541 1.415 . S
C544 H534 0.930 . S
C544 C542 1.419 . S
C544 C545 1.362 . S
C545 H535 0.930 . S
C545 C538 1.409 . S
C545 C544 1.362 . S
C361 C5 1.223 . S
C366 C182 1.224 . S
C377 C64 1.215 . S
C382 C241 1.213 . S
C393 C123 1.221 . S
C398 C300 1.223 . S
C409 C111 1.823 . S
C414 C288 1.813 . S
C425 C347 1.820 . S
C430 C170 1.814 . S
C441 C229 1.816 . S
C446 C52 1.816 . S
C457 C151 1.377 . S
C462 C3 1.369 . S
C473 C210 1.376 . S
C478 C62 1.358 . S
C489 C121 1.404 . S
C494 C269 1.407 . S
C505 C328 1.411 . S
C510 C180 1.398 . S
C521 C239 1.357 . S
C526 C33 1.369 . S
C537 C298 1.357 . S
C542 C92 1.369 . S
