# Generated by pormake.
# Topology mon, (4)-cn, num edge types: 1
# Building blocks:
#     Node 0, Type 0, BuildingBlock: KUFVIS_clean_sbu_0, # of connection points: 4
#     Node 1, Type 0, BuildingBlock: KUFVIS_clean_sbu_0, # of connection points: 4
#     Node 2, Type 0, BuildingBlock: KUFVIS_clean_sbu_0, # of connection points: 4
#     Node 3, Type 0, BuildingBlock: KUFVIS_clean_sbu_0, # of connection points: 4
#     Node 4, Type 0, BuildingBlock: KUFVIS_clean_sbu_0, # of connection points: 4
#     Node 5, Type 0, BuildingBlock: KUFVIS_clean_sbu_0, # of connection points: 4
#     Node 6, Type 0, BuildingBlock: KUFVIS_clean_sbu_0, # of connection points: 4
#     Node 7, Type 0, BuildingBlock: KUFVIS_clean_sbu_0, # of connection points: 4
#     Node 8, Type 0, BuildingBlock: KUFVIS_clean_sbu_0, # of connection points: 4
#     Node 9, Type 0, BuildingBlock: KUFVIS_clean_sbu_0, # of connection points: 4
#     Node 10, Type 0, BuildingBlock: KUFVIS_clean_sbu_0, # of connection points: 4
#     Node 11, Type 0, BuildingBlock: KUFVIS_clean_sbu_0, # of connection points: 4
#     Node 12, Type 0, BuildingBlock: KUFVIS_clean_sbu_0, # of connection points: 4
#     Node 13, Type 0, BuildingBlock: KUFVIS_clean_sbu_0, # of connection points: 4
#     Node 14, Type 0, BuildingBlock: KUFVIS_clean_sbu_0, # of connection points: 4
#     Node 15, Type 0, BuildingBlock: KUFVIS_clean_sbu_0, # of connection points: 4
#     Edge 16, Type (0, 0), BuildingBlock: ZUJKAS_clean_linker_0, # of connection points: 2
#     Edge 17, Type (0, 0), BuildingBlock: ZUJKAS_clean_linker_0, # of connection points: 2
#     Edge 18, Type (0, 0), BuildingBlock: ZUJKAS_clean_linker_0, # of connection points: 2
#     Edge 19, Type (0, 0), BuildingBlock: ZUJKAS_clean_linker_0, # of connection points: 2
#     Edge 20, Type (0, 0), BuildingBlock: ZUJKAS_clean_linker_0, # of connection points: 2
#     Edge 21, Type (0, 0), BuildingBlock: ZUJKAS_clean_linker_0, # of connection points: 2
#     Edge 22, Type (0, 0), BuildingBlock: ZUJKAS_clean_linker_0, # of connection points: 2
#     Edge 23, Type (0, 0), BuildingBlock: ZUJKAS_clean_linker_0, # of connection points: 2
#     Edge 24, Type (0, 0), BuildingBlock: ZUJKAS_clean_linker_0, # of connection points: 2
#     Edge 25, Type (0, 0), BuildingBlock: ZUJKAS_clean_linker_0, # of connection points: 2
#     Edge 26, Type (0, 0), BuildingBlock: ZUJKAS_clean_linker_0, # of connection points: 2
#     Edge 27, Type (0, 0), BuildingBlock: ZUJKAS_clean_linker_0, # of connection points: 2
#     Edge 28, Type (0, 0), BuildingBlock: ZUJKAS_clean_linker_0, # of connection points: 2
#     Edge 29, Type (0, 0), BuildingBlock: ZUJKAS_clean_linker_0, # of connection points: 2
#     Edge 30, Type (0, 0), BuildingBlock: ZUJKAS_clean_linker_0, # of connection points: 2
#     Edge 31, Type (0, 0), BuildingBlock: ZUJKAS_clean_linker_0, # of connection points: 2
#     Edge 32, Type (0, 0), BuildingBlock: ZUJKAS_clean_linker_0, # of connection points: 2
#     Edge 33, Type (0, 0), BuildingBlock: ZUJKAS_clean_linker_0, # of connection points: 2
#     Edge 34, Type (0, 0), BuildingBlock: ZUJKAS_clean_linker_0, # of connection points: 2
#     Edge 35, Type (0, 0), BuildingBlock: ZUJKAS_clean_linker_0, # of connection points: 2
#     Edge 36, Type (0, 0), BuildingBlock: ZUJKAS_clean_linker_0, # of connection points: 2
#     Edge 37, Type (0, 0), BuildingBlock: ZUJKAS_clean_linker_0, # of connection points: 2
#     Edge 38, Type (0, 0), BuildingBlock: ZUJKAS_clean_linker_0, # of connection points: 2
#     Edge 39, Type (0, 0), BuildingBlock: ZUJKAS_clean_linker_0, # of connection points: 2
#     Edge 40, Type (0, 0), BuildingBlock: ZUJKAS_clean_linker_0, # of connection points: 2
#     Edge 41, Type (0, 0), BuildingBlock: ZUJKAS_clean_linker_0, # of connection points: 2
#     Edge 42, Type (0, 0), BuildingBlock: ZUJKAS_clean_linker_0, # of connection points: 2
#     Edge 43, Type (0, 0), BuildingBlock: ZUJKAS_clean_linker_0, # of connection points: 2
#     Edge 44, Type (0, 0), BuildingBlock: ZUJKAS_clean_linker_0, # of connection points: 2
#     Edge 45, Type (0, 0), BuildingBlock: ZUJKAS_clean_linker_0, # of connection points: 2
#     Edge 46, Type (0, 0), BuildingBlock: ZUJKAS_clean_linker_0, # of connection points: 2
#     Edge 47, Type (0, 0), BuildingBlock: ZUJKAS_clean_linker_0, # of connection points: 2
# Relax obj value: 0.170
# Max RMSD: 0.160
# Mean RMSD: 0.160
data_MOF--net-mon--node1-KUFVIS_clean_sbu_0--edge1-ZUJKAS_clean_linker_0
_symmetry_space_group_name_H-M    P1
_symmetry_Int_Tables_number       1
_symmetry_cell_setting            triclinic
loop_
_symmetry_equiv_pos_as_xyz
'x, y, z'
_cell_length_a     43.502802
_cell_length_b     43.496013
_cell_length_c     109.64369
_cell_angle_alpha  89.994121
_cell_angle_beta   89.991506
_cell_angle_gamma 89.990923
loop_
_atom_site_label
_atom_site_type_symbol
_atom_site_fract_x
_atom_site_fract_y
_atom_site_fract_z
_atom_type_partial_charge
Mn0 Mn 0.01647 0.02503 0.59047 0.0
Mn1 Mn 0.95023 0.04081 0.5757 0.0
C2 C 0.96956 0.01502 0.59958 0.0
C3 C 0.05658 0.99205 0.5958 0.0
C4 C 0.99038 0.08998 0.58701 0.0
O5 O 0.03032 0.02803 0.57272 0.0
O6 O 0.98443 0.03753 0.56374 0.0
C7 C 0.94304 0.98247 0.5621 0.0
N8 N 0.93192 0.0033 0.57026 0.0
C9 C 0.88623 0.97317 0.5735 0.0
C10 C 0.89711 0.9515 0.56507 0.0
C11 C 0.92564 0.95617 0.55936 0.0
C12 C 0.90441 0.99911 0.57577 0.0
H13 H 0.96506 0.98585 0.55776 0.0
C14 C 0.01356 0.033 0.56334 0.0
O15 O 0.05947 0.0217 0.59653 0.0
O16 O 0.03084 0.98162 0.59149 0.0
N17 N 0.91557 0.04406 0.58639 0.0
C18 C 0.90942 0.06603 0.5949 0.0
C19 C 0.88224 0.06412 0.60178 0.0
C20 C 0.86171 0.03968 0.59983 0.0
C21 C 0.86847 0.01743 0.59097 0.0
C22 C 0.89574 0.02072 0.5843 0.0
H23 H 0.92526 0.0847 0.59651 0.0
O24 O 0.99386 0.01932 0.60623 0.0
O25 O 0.97344 0.01749 0.58788 0.0
O26 O 0.01059 0.07172 0.5913 0.0
O27 O 0.96688 0.08087 0.58104 0.0
C28 C 0.84959 0.99175 0.5887 0.0
C29 C 0.85845 0.96965 0.57996 0.0
H30 H 0.88391 0.93103 0.56301 0.0
H31 H 0.93427 0.93946 0.55289 0.0
H32 H 0.87724 0.08131 0.60863 0.0
H33 H 0.84096 0.03808 0.60525 0.0
H34 H 0.82844 0.98853 0.59375 0.0
H35 H 0.84396 0.94978 0.57842 0.0
Mn36 Mn 0.24744 0.74601 0.83891 0.0
Mn37 Mn 0.23305 0.67913 0.82443 0.0
C38 C 0.25809 0.69959 0.84832 0.0
C39 C 0.27977 0.7868 0.84395 0.0
C40 C 0.18307 0.71928 0.8353 0.0
O41 O 0.24403 0.75915 0.82106 0.0
O42 O 0.23732 0.7127 0.81223 0.0
C43 C 0.29219 0.67103 0.81146 0.0
N44 N 0.27086 0.66044 0.81953 0.0
C45 C 0.30063 0.61484 0.82343 0.0
C46 C 0.32283 0.62519 0.81512 0.0
C47 C 0.31859 0.65341 0.80912 0.0
C48 C 0.27461 0.63322 0.8253 0.0
H49 H 0.28914 0.69281 0.80689 0.0
C50 C 0.24078 0.74199 0.81166 0.0
O51 O 0.25009 0.78935 0.84463 0.0
O52 O 0.29059 0.761 0.83983 0.0
N53 N 0.22908 0.6451 0.83539 0.0
C54 C 0.20664 0.63952 0.84378 0.0
C55 C 0.20809 0.61275 0.85092 0.0
C56 C 0.23255 0.59203 0.84937 0.0
C57 C 0.25531 0.59821 0.84065 0.0
C58 C 0.25249 0.6251 0.83371 0.0
H59 H 0.18793 0.6555 0.84508 0.0
O60 O 0.25353 0.72412 0.85482 0.0
O61 O 0.25564 0.70301 0.8366 0.0
O62 O 0.201 0.73942 0.83981 0.0
O63 O 0.19257 0.6961 0.82922 0.0
C64 C 0.28106 0.57913 0.83879 0.0
C65 C 0.30368 0.58742 0.83017 0.0
H66 H 0.34337 0.61181 0.81337 0.0
H67 H 0.33571 0.66163 0.80274 0.0
H68 H 0.1905 0.6082 0.85766 0.0
H69 H 0.23378 0.5716 0.855 0.0
H70 H 0.28392 0.55826 0.84406 0.0
H71 H 0.3236 0.57279 0.82895 0.0
Mn72 Mn 0.52881 0.97892 0.08846 0.0
Mn73 Mn 0.59306 0.96192 0.07265 0.0
C74 C 0.57711 0.98618 0.09707 0.0
C75 C 0.49016 0.01274 0.09465 0.0
C76 C 0.55192 0.91332 0.08382 0.0
O77 O 0.51326 0.9779 0.07086 0.0
O78 O 0.55809 0.9679 0.06129 0.0
C79 C 0.60162 0.02106 0.05972 0.0
N80 N 0.61248 0.99904 0.06743 0.0
C81 C 0.66138 0.02451 0.06904 0.0
C82 C 0.65077 0.04744 0.06109 0.0
C83 C 0.62068 0.04579 0.05647 0.0
C84 C 0.64117 0.00071 0.07211 0.0
H85 H 0.57864 0.01967 0.05603 0.0
C86 C 0.52914 0.97343 0.0612 0.0
O87 O 0.48637 0.98316 0.09502 0.0
O88 O 0.51608 0.02272 0.09031 0.0
N89 N 0.62861 0.95603 0.08265 0.0
C90 C 0.6349 0.93266 0.09054 0.0
C91 C 0.66371 0.93151 0.0963 0.0
C92 C 0.68589 0.95407 0.09372 0.0
C93 C 0.67898 0.97767 0.08545 0.0
C94 C 0.64974 0.97789 0.08014 0.0
H95 H 0.61805 0.91506 0.09243 0.0
O96 O 0.55315 0.98241 0.10397 0.0
O97 O 0.57204 0.98507 0.08543 0.0
O98 O 0.53277 0.93202 0.08855 0.0
O99 O 0.57531 0.92209 0.07771 0.0
C100 C 0.70003 0.00089 0.08222 0.0
C101 C 0.69123 0.02428 0.074 0.0
H102 H 0.6655 0.06641 0.05848 0.0
H103 H 0.6123 0.06341 0.05035 0.0
H104 H 0.66888 0.91317 0.10265 0.0
H105 H 0.70815 0.953 0.09813 0.0
H106 H 0.72291 0.0012 0.0861 0.0
H107 H 0.70749 0.04224 0.07171 0.0
Mn108 Mn 0.29296 0.25561 0.33793 0.0
Mn109 Mn 0.31004 0.32181 0.3234 0.0
C110 C 0.284 0.30261 0.34726 0.0
C111 C 0.25945 0.21599 0.34328 0.0
C112 C 0.3584 0.28025 0.33448 0.0
O113 O 0.29552 0.24205 0.32012 0.0
O114 O 0.30564 0.28793 0.31134 0.0
C115 C 0.25187 0.33086 0.30985 0.0
N116 N 0.27307 0.34127 0.318 0.0
C117 C 0.24497 0.38834 0.32097 0.0
C118 C 0.22291 0.37818 0.31257 0.0
C119 C 0.22636 0.3493 0.307 0.0
C120 C 0.27002 0.36906 0.32339 0.0
H121 H 0.25437 0.30862 0.30558 0.0
C122 C 0.3005 0.25889 0.31076 0.0
O123 O 0.28905 0.21251 0.34379 0.0
O124 O 0.24931 0.24205 0.33913 0.0
N125 N 0.31431 0.35621 0.33414 0.0
C126 C 0.33641 0.36158 0.34268 0.0
C127 C 0.33573 0.38907 0.34939 0.0
C128 C 0.31243 0.41074 0.34722 0.0
C129 C 0.28988 0.40466 0.3384 0.0
C130 C 0.29188 0.37699 0.33193 0.0
H131 H 0.35434 0.34496 0.34439 0.0
O132 O 0.28802 0.27805 0.35379 0.0
O133 O 0.28622 0.29895 0.33554 0.0
O134 O 0.33968 0.2603 0.33861 0.0
O135 O 0.34975 0.30418 0.32868 0.0
C136 C 0.26522 0.42472 0.33593 0.0
C137 C 0.24275 0.41654 0.32724 0.0
H138 H 0.20309 0.39224 0.31041 0.0
H139 H 0.20935 0.34123 0.30054 0.0
H140 H 0.35311 0.39353 0.35622 0.0
H141 H 0.31196 0.43187 0.35244 0.0
H142 H 0.26308 0.44632 0.34077 0.0
H143 H 0.22364 0.43193 0.32556 0.0
Mn144 Mn 0.01718 0.97639 0.41152 0.0
Mn145 Mn 0.95017 0.9592 0.42544 0.0
C146 C 0.97074 0.98499 0.40179 0.0
C147 C 0.05664 0.01031 0.40639 0.0
C148 C 0.99251 0.91081 0.41489 0.0
O149 O 0.02961 0.97458 0.42945 0.0
O150 O 0.98337 0.96341 0.4378 0.0
C151 C 0.94063 0.01742 0.43891 0.0
N152 N 0.93066 0.99638 0.43061 0.0
C153 C 0.88473 0.02564 0.42672 0.0
C154 C 0.89444 0.04753 0.43528 0.0
C155 C 0.92251 0.0434 0.4414 0.0
C156 C 0.90359 1.00003 0.42472 0.0
H157 H 0.96229 0.01446 0.44358 0.0
C158 C 0.01226 0.9691 0.43862 0.0
O159 O 0.06057 0.98074 0.406 0.0
O160 O 0.03025 0.02014 0.4103 0.0
N161 N 0.91646 0.95519 0.41433 0.0
C162 C 0.91143 0.93305 0.40577 0.0
C163 C 0.88484 0.93442 0.39853 0.0
C164 C 0.86371 0.9585 0.40017 0.0
C165 C 0.86932 0.98095 0.40907 0.0
C166 C 0.89606 0.97821 0.41611 0.0
H167 H 0.92773 0.91464 0.40441 0.0
O168 O 0.99559 0.98086 0.39545 0.0
O169 O 0.97381 0.98287 0.41353 0.0
O170 O 0.01282 0.92954 0.41101 0.0
O171 O 0.96803 0.91946 0.42032 0.0
C172 C 0.84978 0.0063 0.41106 0.0
C173 C 0.85746 0.02861 0.41988 0.0
H174 H 0.88067 0.06775 0.43714 0.0
H175 H 0.93023 0.06027 0.44797 0.0
H176 H 0.88073 0.91708 0.39165 0.0
H177 H 0.84341 0.95969 0.39447 0.0
H178 H 0.82901 0.00909 0.40572 0.0
H179 H 0.84248 0.04822 0.4212 0.0
Mn180 Mn 0.29347 0.74348 0.66302 0.0
Mn181 Mn 0.30917 0.68045 0.67981 0.0
C182 C 0.28467 0.69469 0.65519 0.0
C183 C 0.26079 0.78267 0.65645 0.0
C184 C 0.35844 0.71902 0.6677 0.0
O185 O 0.29579 0.76073 0.68037 0.0
O186 O 0.30412 0.71654 0.69066 0.0
C187 C 0.24992 0.67442 0.69287 0.0
N188 N 0.27167 0.66234 0.68533 0.0
C189 C 0.24482 0.61408 0.68428 0.0
C190 C 0.22217 0.62595 0.69206 0.0
C191 C 0.22464 0.65632 0.69632 0.0
C192 C 0.26923 0.63335 0.68101 0.0
H193 H 0.25192 0.69765 0.69625 0.0
C194 C 0.29971 0.74567 0.69027 0.0
O195 O 0.29045 0.78526 0.6558 0.0
O196 O 0.25004 0.75764 0.66131 0.0
N197 N 0.31422 0.64388 0.67033 0.0
C198 C 0.33747 0.6363 0.66256 0.0
C199 C 0.33791 0.60699 0.65719 0.0
C200 C 0.31475 0.58564 0.66003 0.0
C201 C 0.29128 0.59386 0.66817 0.0
C202 C 0.29184 0.62352 0.67311 0.0
H203 H 0.35551 0.65251 0.66046 0.0
O204 O 0.28858 0.71792 0.64792 0.0
O205 O 0.28623 0.70077 0.66675 0.0
O206 O 0.34011 0.73784 0.66258 0.0
O207 O 0.34935 0.69692 0.67446 0.0
C208 C 0.26745 0.57376 0.67162 0.0
C209 C 0.24419 0.58388 0.67965 0.0
H210 H 0.20275 0.61198 0.69481 0.0
H211 H 0.20723 0.66567 0.70231 0.0
H212 H 0.35614 0.6008 0.65094 0.0
H213 H 0.31523 0.56301 0.65591 0.0
H214 H 0.26652 0.55059 0.66801 0.0
H215 H 0.22573 0.56834 0.68209 0.0
Mn216 Mn 0.52479 0.02414 0.91122 0.0
Mn217 Mn 0.59258 0.03856 0.92502 0.0
C218 C 0.57069 0.01418 0.90128 0.0
C219 C 0.48405 0.99167 0.90627 0.0
C220 C 0.5515 0.08865 0.91481 0.0
O221 O 0.51275 0.02662 0.9292 0.0
O222 O 0.55966 0.03425 0.93749 0.0
C223 C 0.60121 0.97929 0.93785 0.0
N224 N 0.61143 1.00067 0.92973 0.0
C225 C 0.65677 0.97085 0.92543 0.0
C226 C 0.6468 0.9486 0.9338 0.0
C227 C 0.61889 0.95284 0.94003 0.0
C228 C 0.63833 0.9969 0.92373 0.0
H229 H 0.57968 0.98235 0.9426 0.0
C230 C 0.53051 0.03021 0.9384 0.0
O231 O 0.48116 0.02136 0.90588 0.0
O232 O 0.51015 0.9809 0.91009 0.0
N233 N 0.62605 0.04254 0.91378 0.0
C234 C 0.63131 0.06508 0.90541 0.0
C235 C 0.65776 0.06368 0.89808 0.0
C236 C 0.6785 0.03916 0.89944 0.0
C237 C 0.67266 0.0163 0.90816 0.0
C238 C 0.64609 0.01908 0.91529 0.0
H239 H 0.61533 0.08385 0.90426 0.0
O240 O 0.54578 0.01896 0.89506 0.0
O241 O 0.56799 0.01616 0.91303 0.0
O242 O 0.53086 0.07069 0.91068 0.0
O243 O 0.57547 0.07907 0.92036 0.0
C244 C 0.6918 0.99052 0.90986 0.0
C245 C 0.68387 0.96782 0.91849 0.0
H246 H 0.66022 0.92802 0.93542 0.0
H247 H 0.61097 0.9357 0.94645 0.0
H248 H 0.66204 0.08134 0.89134 0.0
H249 H 0.69867 0.03796 0.89367 0.0
H250 H 0.71244 0.9877 0.90444 0.0
H251 H 0.69853 0.94788 0.91958 0.0
Mn252 Mn 0.24745 0.2573 0.16098 0.0
Mn253 Mn 0.23268 0.32295 0.17626 0.0
C254 C 0.25499 0.30469 0.15175 0.0
C255 C 0.28097 0.2181 0.15509 0.0
C256 C 0.18266 0.28172 0.16607 0.0
O257 O 0.24669 0.24311 0.17878 0.0
O258 O 0.23934 0.28893 0.18802 0.0
C259 C 0.29357 0.33151 0.18782 0.0
N260 N 0.27077 0.34217 0.18043 0.0
C261 C 0.2989 0.38865 0.17629 0.0
C262 C 0.32261 0.37825 0.1839 0.0
C263 C 0.31994 0.34953 0.18967 0.0
C264 C 0.27315 0.36971 0.17479 0.0
H265 H 0.29168 0.30939 0.19223 0.0
C266 C 0.24375 0.25978 0.18833 0.0
O267 O 0.25137 0.2143 0.15487 0.0
O268 O 0.29104 0.24421 0.15918 0.0
N269 N 0.22624 0.35762 0.1658 0.0
C270 C 0.20183 0.36379 0.15841 0.0
C271 C 0.20111 0.39149 0.15184 0.0
C272 C 0.2254 0.41258 0.15296 0.0
C273 C 0.25015 0.40583 0.16071 0.0
C274 C 0.24946 0.37799 0.16712 0.0
H275 H 0.18311 0.34765 0.15751 0.0
O276 O 0.25084 0.2803 0.14514 0.0
O277 O 0.25414 0.30045 0.16344 0.0
O278 O 0.20065 0.26229 0.16108 0.0
O279 O 0.19217 0.305 0.17211 0.0
C280 C 0.27565 0.42544 0.1622 0.0
C281 C 0.3 0.41685 0.16998 0.0
H282 H 0.34304 0.39202 0.18532 0.0
H283 H 0.33821 0.34128 0.19552 0.0
H284 H 0.18194 0.39653 0.14587 0.0
H285 H 0.2249 0.43379 0.14779 0.0
H286 H 0.27691 0.44704 0.1573 0.0
H287 H 0.31963 0.43198 0.17096 0.0
Mn288 Mn 0.79202 0.24258 0.16329 0.0
Mn289 Mn 0.80821 0.17933 0.17986 0.0
C290 C 0.78397 0.1938 0.15525 0.0
C291 C 0.75871 0.28134 0.15678 0.0
C292 C 0.85724 0.2191 0.16819 0.0
O293 O 0.7937 0.2594 0.18072 0.0
O294 O 0.80225 0.21501 0.19084 0.0
C295 C 0.74882 0.17186 0.19269 0.0
N296 N 0.77091 0.16041 0.18515 0.0
C297 C 0.74511 0.11162 0.18388 0.0
C298 C 0.7221 0.12284 0.19166 0.0
C299 C 0.72388 0.15316 0.19602 0.0
C300 C 0.76915 0.13147 0.18073 0.0
H301 H 0.7503 0.19504 0.19618 0.0
C302 C 0.79752 0.2441 0.19058 0.0
O303 O 0.78833 0.2846 0.15627 0.0
O304 O 0.74839 0.25591 0.16145 0.0
N305 N 0.8141 0.14316 0.17021 0.0
C306 C 0.83753 0.1363 0.16243 0.0
C307 C 0.83858 0.10718 0.15692 0.0
C308 C 0.81584 0.08529 0.15962 0.0
C309 C 0.79215 0.09279 0.16777 0.0
C310 C 0.79207 0.1223 0.17285 0.0
H311 H 0.85525 0.15294 0.16043 0.0
O312 O 0.78781 0.21722 0.14807 0.0
O313 O 0.78533 0.19968 0.16682 0.0
O314 O 0.83881 0.23776 0.16302 0.0
O315 O 0.84824 0.19665 0.17478 0.0
C316 C 0.76869 0.07211 0.17109 0.0
C317 C 0.74518 0.08152 0.17915 0.0
H318 H 0.70295 0.1084 0.19432 0.0
H319 H 0.7062 0.162 0.20201 0.0
H320 H 0.85697 0.10155 0.15066 0.0
H321 H 0.81681 0.06279 0.1554 0.0
H322 H 0.76826 0.04903 0.16738 0.0
H323 H 0.72704 0.06553 0.1815 0.0
Mn324 Mn 0.74825 0.75773 0.66231 0.0
Mn325 Mn 0.73108 0.82305 0.67745 0.0
C326 C 0.75687 0.80522 0.65335 0.0
C327 C 0.78229 0.71869 0.65678 0.0
C328 C 0.68277 0.7816 0.66621 0.0
O329 O 0.74574 0.74331 0.68003 0.0
O330 O 0.73646 0.78882 0.68926 0.0
C331 C 0.78959 0.83252 0.6907 0.0
N332 N 0.76794 0.84288 0.68273 0.0
C333 C 0.79521 0.89046 0.67984 0.0
C334 C 0.81772 0.88037 0.68807 0.0
C335 C 0.81491 0.85125 0.69351 0.0
C336 C 0.77036 0.8709 0.67747 0.0
H337 H 0.78757 0.81012 0.69487 0.0
C338 C 0.74141 0.75973 0.68957 0.0
O339 O 0.75274 0.71491 0.65614 0.0
O340 O 0.79203 0.74468 0.66112 0.0
N341 N 0.72589 0.85773 0.6669 0.0
C342 C 0.70351 0.86297 0.65847 0.0
C343 C 0.70364 0.8906 0.65184 0.0
C344 C 0.7267 0.91254 0.65398 0.0
C345 C 0.74953 0.9066 0.6627 0.0
C346 C 0.74809 0.87876 0.66908 0.0
H347 H 0.68579 0.84613 0.65677 0.0
O348 O 0.75312 0.78094 0.64663 0.0
O349 O 0.75468 0.80096 0.66503 0.0
O350 O 0.70146 0.76227 0.66159 0.0
O351 O 0.69143 0.80495 0.67236 0.0
C352 C 0.77398 0.92695 0.66514 0.0
C353 C 0.79683 0.91886 0.67369 0.0
H354 H 0.83741 0.89464 0.69019 0.0
H355 H 0.83226 0.84324 0.69983 0.0
H356 H 0.68605 0.89495 0.64508 0.0
H357 H 0.72679 0.93375 0.64881 0.0
H358 H 0.77566 0.94869 0.66037 0.0
H359 H 0.81577 0.93448 0.67534 0.0
Mn360 Mn 0.74789 0.24289 0.33943 0.0
Mn361 Mn 0.73217 0.17726 0.32426 0.0
C362 C 0.75758 0.19549 0.34835 0.0
C363 C 0.78075 0.28276 0.34509 0.0
C364 C 0.68295 0.21758 0.33553 0.0
O365 O 0.74517 0.25741 0.32172 0.0
O366 O 0.73675 0.21174 0.31251 0.0
C367 C 0.79086 0.1693 0.31095 0.0
N368 N 0.76946 0.15834 0.31891 0.0
C369 C 0.79768 0.11123 0.3216 0.0
C370 C 0.81995 0.12196 0.31339 0.0
C371 C 0.81654 0.15114 0.30806 0.0
C372 C 0.77247 0.13026 0.32407 0.0
H373 H 0.78837 0.19175 0.30686 0.0
C374 C 0.74116 0.24092 0.31219 0.0
O375 O 0.7511 0.28573 0.34565 0.0
O376 O 0.7913 0.25708 0.34075 0.0
N377 N 0.72782 0.14233 0.33473 0.0
C378 C 0.70552 0.1364 0.34313 0.0
C379 C 0.70613 0.10856 0.3496 0.0
C380 C 0.72958 0.0871 0.34735 0.0
C381 C 0.75234 0.09376 0.33868 0.0
C382 C 0.7504 0.12177 0.33244 0.0
H383 H 0.68746 0.15284 0.3449 0.0
O384 O 0.75318 0.21962 0.3551 0.0
O385 O 0.75535 0.1998 0.33667 0.0
O386 O 0.70126 0.23738 0.34004 0.0
O387 O 0.69211 0.1943 0.32944 0.0
C388 C 0.77715 0.07393 0.33614 0.0
C389 C 0.79984 0.0827 0.32763 0.0
H390 H 0.8399 0.10812 0.3112 0.0
H391 H 0.8337 0.15964 0.30176 0.0
H392 H 0.68858 0.10365 0.35633 0.0
H393 H 0.72999 0.06568 0.35239 0.0
H394 H 0.77924 0.05207 0.34079 0.0
H395 H 0.81907 0.06748 0.3259 0.0
Mn396 Mn 0.79341 0.75741 0.83851 0.0
Mn397 Mn 0.81028 0.82246 0.82314 0.0
C398 C 0.78401 0.80507 0.84721 0.0
C399 C 0.75989 0.71805 0.84417 0.0
C400 C 0.85871 0.78184 0.83475 0.0
O401 O 0.79641 0.7425 0.82086 0.0
O402 O 0.80556 0.78784 0.81147 0.0
C403 C 0.75202 0.83095 0.8096 0.0
N404 N 0.77335 0.84176 0.81762 0.0
C405 C 0.74552 0.88915 0.82016 0.0
C406 C 0.72333 0.87858 0.81189 0.0
C407 C 0.72659 0.84934 0.8066 0.0
C408 C 0.77051 0.86991 0.82273 0.0
H409 H 0.75438 0.80845 0.80555 0.0
C410 C 0.80086 0.75871 0.81128 0.0
O411 O 0.78949 0.71475 0.84487 0.0
O412 O 0.74979 0.74375 0.83968 0.0
N413 N 0.81482 0.85749 0.83354 0.0
C414 C 0.83692 0.8632 0.84205 0.0
C415 C 0.83633 0.89101 0.84854 0.0
C416 C 0.8131 0.91266 0.8462 0.0
C417 C 0.79057 0.90624 0.83742 0.0
C418 C 0.79247 0.87823 0.83117 0.0
H419 H 0.85476 0.84658 0.8439 0.0
O420 O 0.78793 0.78105 0.85406 0.0
O421 O 0.78653 0.80048 0.83555 0.0
O422 O 0.84009 0.76249 0.83937 0.0
O423 O 0.85002 0.80494 0.82846 0.0
C424 C 0.76599 0.92627 0.83478 0.0
C425 C 0.74345 0.9177 0.82618 0.0
H426 H 0.70355 0.8926 0.80962 0.0
H427 H 0.70949 0.84097 0.80025 0.0
H428 H 0.8537 0.89573 0.85535 0.0
H429 H 0.81266 0.93402 0.85127 0.0
H430 H 0.76395 0.94813 0.83944 0.0
H431 H 0.72439 0.93308 0.82438 0.0
Mn432 Mn 0.51465 0.52298 0.08984 0.0
Mn433 Mn 0.44798 0.53788 0.07532 0.0
C434 C 0.46785 0.51597 0.09965 0.0
C435 C 0.55392 0.48923 0.09544 0.0
C436 C 0.49018 0.58788 0.08491 0.0
O437 O 0.52759 0.52322 0.07189 0.0
O438 O 0.48119 0.53091 0.06322 0.0
C439 C 0.43847 0.47689 0.06394 0.0
N440 N 0.42837 0.49982 0.0714 0.0
C441 C 0.38194 0.47204 0.07596 0.0
C442 C 0.39176 0.44821 0.06828 0.0
C443 C 0.42019 0.45062 0.06227 0.0
C444 C 0.40115 0.49764 0.07728 0.0
H445 H 0.46034 0.47861 0.05933 0.0
C446 C 0.51024 0.52612 0.06254 0.0
O447 O 0.55802 0.51881 0.0955 0.0
O448 O 0.52746 0.47932 0.09167 0.0
N449 N 0.414 0.54457 0.08609 0.0
C450 C 0.40831 0.56915 0.09347 0.0
C451 C 0.38094 0.57013 0.10025 0.0
C452 C 0.35965 0.54596 0.09933 0.0
C453 C 0.36589 0.52105 0.0916 0.0
C454 C 0.39343 0.52145 0.08499 0.0
H455 H 0.42457 0.58781 0.09419 0.0
O456 O 0.49273 0.52014 0.10596 0.0
O457 O 0.47127 0.51653 0.08792 0.0
O458 O 0.51006 0.56981 0.08958 0.0
O459 O 0.46626 0.57837 0.07928 0.0
C460 C 0.34599 0.49571 0.09028 0.0
C461 C 0.35401 0.47123 0.08246 0.0
H462 H 0.37776 0.42787 0.06699 0.0
H463 H 0.42799 0.43226 0.05637 0.0
H464 H 0.37629 0.58944 0.10619 0.0
H465 H 0.33868 0.54669 0.10465 0.0
H466 H 0.3246 0.49468 0.09532 0.0
H467 H 0.33866 0.45175 0.0816 0.0
Mn468 Mn 0.02905 0.48008 0.58914 0.0
Mn469 Mn 0.09232 0.46259 0.57279 0.0
C470 C 0.07774 0.48762 0.59727 0.0
C471 C 0.99071 0.51404 0.59547 0.0
C472 C 0.05201 0.41443 0.58469 0.0
O473 O 0.01247 0.47822 0.57168 0.0
O474 O 0.05678 0.46832 0.5617 0.0
C475 C 0.10025 0.52148 0.55962 0.0
N476 N 0.11151 0.49958 0.56729 0.0
C477 C 0.16033 0.52532 0.56859 0.0
C478 C 0.14931 0.54812 0.56067 0.0
C479 C 0.11907 0.54628 0.55623 0.0
C480 C 0.14038 0.50141 0.57179 0.0
H481 H 0.07712 0.51997 0.55609 0.0
C482 C 0.02779 0.47361 0.56189 0.0
O483 O 0.98701 0.48448 0.59606 0.0
O484 O 0.01629 0.52392 0.59079 0.0
N485 N 0.12837 0.45685 0.58251 0.0
C486 C 0.13504 0.43363 0.59042 0.0
C487 C 0.16409 0.43264 0.596 0.0
C488 C 0.18609 0.45523 0.59323 0.0
C489 C 0.17878 0.47869 0.58496 0.0
C490 C 0.14935 0.47871 0.57981 0.0
H491 H 0.11832 0.41603 0.59247 0.0
O492 O 0.05415 0.48427 0.6044 0.0
O493 O 0.07207 0.48613 0.58568 0.0
O494 O 0.03331 0.43325 0.58962 0.0
O495 O 0.07471 0.42291 0.57813 0.0
C496 C 0.19957 0.502 0.58158 0.0
C497 C 0.19033 0.52534 0.57342 0.0
H498 H 0.16383 0.56717 0.55797 0.0
H499 H 0.11038 0.56381 0.55014 0.0
H500 H 0.16956 0.41442 0.60236 0.0
H501 H 0.20852 0.45431 0.59751 0.0
H502 H 0.22259 0.50247 0.58534 0.0
H503 H 0.20639 0.5434 0.57103 0.0
Mn504 Mn 0.51521 0.47934 0.9122 0.0
Mn505 Mn 0.4495 0.46201 0.92703 0.0
C506 C 0.46789 0.48807 0.90309 0.0
C507 C 0.55442 0.51318 0.90669 0.0
C508 C 0.49094 0.41379 0.91577 0.0
O509 O 0.52932 0.47688 0.92995 0.0
O510 O 0.48371 0.46656 0.93891 0.0
C511 C 0.44065 0.52016 0.94062 0.0
N512 N 0.43007 0.49891 0.93252 0.0
C513 C 0.38281 0.52683 0.92979 0.0
C514 C 0.39314 0.54893 0.93814 0.0
C515 C 0.42221 0.5456 0.94357 0.0
C516 C 0.40211 0.50185 0.92727 0.0
H517 H 0.46302 0.51775 0.94479 0.0
C518 C 0.51273 0.47182 0.93938 0.0
O519 O 0.55812 0.48361 0.90614 0.0
O520 O 0.52841 0.52308 0.91096 0.0
N521 N 0.4148 0.4576 0.91646 0.0
C522 C 0.40924 0.43547 0.90795 0.0
C523 C 0.38155 0.43603 0.90138 0.0
C524 C 0.35986 0.45926 0.90365 0.0
C525 C 0.36613 0.48184 0.91243 0.0
C526 C 0.394 0.47995 0.91877 0.0
H527 H 0.42587 0.41759 0.90616 0.0
O528 O 0.49228 0.48417 0.89644 0.0
O529 O 0.4719 0.48587 0.91478 0.0
O530 O 0.51074 0.43255 0.91154 0.0
O531 O 0.46715 0.42239 0.92167 0.0
C532 C 0.34606 0.50643 0.91501 0.0
C533 C 0.35442 0.52894 0.92366 0.0
H534 H 0.37907 0.5687 0.94037 0.0
H535 H 0.4304 0.56264 0.94998 0.0
H536 H 0.37694 0.41863 0.89457 0.0
H537 H 0.33857 0.45965 0.89853 0.0
H538 H 0.3243 0.50849 0.91027 0.0
H539 H 0.339 0.54799 0.92541 0.0
Mn540 Mn 0.02584 0.52091 0.41253 0.0
Mn541 Mn 0.09318 0.53586 0.42657 0.0
C542 C 0.07203 0.51069 0.40286 0.0
C543 C 0.98536 0.48811 0.40753 0.0
C544 C 0.0525 0.58558 0.41584 0.0
O545 O 0.01322 0.52399 0.43043 0.0
O546 O 0.05982 0.53218 0.43891 0.0
C547 C 0.10122 0.47712 0.43984 0.0
N548 N 0.11177 0.49813 0.43164 0.0
C549 C 0.15713 0.46797 0.42775 0.0
C550 C 0.14682 0.4461 0.43621 0.0
C551 C 0.11874 0.4507 0.44227 0.0
C552 C 0.13885 0.49402 0.4258 0.0
H553 H 0.07955 0.48044 0.44446 0.0
C554 C 0.03064 0.52811 0.43969 0.0
O555 O 0.98237 0.51777 0.40696 0.0
O556 O 0.01136 0.47759 0.41157 0.0
N557 N 0.12706 0.5393 0.41551 0.0
C558 C 0.13268 0.56151 0.40703 0.0
C559 C 0.15935 0.55972 0.39984 0.0
C560 C 0.17994 0.53517 0.40145 0.0
C561 C 0.17374 0.51268 0.41028 0.0
C562 C 0.14696 0.51584 0.41726 0.0
H563 H 0.11681 0.58029 0.40569 0.0
O564 O 0.04729 0.51525 0.3965 0.0
O565 O 0.069 0.51302 0.41459 0.0
O566 O 0.03188 0.5675 0.41175 0.0
O567 O 0.07631 0.57617 0.42154 0.0
C568 C 0.19271 0.48689 0.41222 0.0
C569 C 0.18443 0.46456 0.42096 0.0
H570 H 0.16012 0.42555 0.43803 0.0
H571 H 0.11055 0.43384 0.44877 0.0
H572 H 0.16392 0.57711 0.39302 0.0
H573 H 0.20029 0.53367 0.39579 0.0
H574 H 0.2135 0.48377 0.40692 0.0
H575 H 0.19898 0.44462 0.42225 0.0
H576 H 0.02655 0.11945 0.60381 0.0
H577 H 0.03572 0.17476 0.6057 0.0
H578 H 0.97551 0.19138 0.57513 0.0
H579 H 0.96523 0.13644 0.57354 0.0
H580 H 0.06185 0.21285 0.59074 0.0
H581 H 0.94329 0.25412 0.59808 0.0
H582 H 0.95316 0.21389 0.59878 0.0
H583 H 0.94577 0.23212 0.5843 0.0
C584 C 0.01494 0.13495 0.5976 0.0
C585 C 0.99498 0.12353 0.58858 0.0
C586 C 0.02023 0.16657 0.59868 0.0
C587 C 0.00588 0.18742 0.59071 0.0
C588 C 0.98608 0.17599 0.58166 0.0
H589 H 0.0735 0.36709 0.57069 0.0
H590 H 0.06296 0.31231 0.57302 0.0
C591 C 0.98038 0.14446 0.58071 0.0
C592 C 0.01298 0.22085 0.59136 0.0
H593 H 0.97989 0.29205 0.59144 0.0
C594 C 0.0439 0.23014 0.59105 0.0
C595 C 0.98969 0.24356 0.59201 0.0
C596 C 0.95617 0.23539 0.59345 0.0
C597 C 0.05212 0.26137 0.59094 0.0
C598 C 0.02874 0.28403 0.59068 0.0
C599 C 0.99786 0.27476 0.59143 0.0
C600 C 0.03568 0.31739 0.58942 0.0
C601 C 0.08581 0.26962 0.59126 0.0
C602 C 0.02303 0.33878 0.59761 0.0
C603 C 0.02843 0.37027 0.59613 0.0
C604 C 0.04681 0.38103 0.58647 0.0
C605 C 0.05958 0.35957 0.57833 0.0
C606 C 0.05375 0.32816 0.5797 0.0
H607 H 0.09959 0.25122 0.59568 0.0
H608 H 0.09438 0.27226 0.58178 0.0
H609 H 0.0898 0.29148 0.59624 0.0
H610 H 0.00888 0.33111 0.60515 0.0
H611 H 0.01827 0.38618 0.60257 0.0
H612 H 0.88737 0.7464 0.852 0.0
H613 H 0.94247 0.73651 0.85414 0.0
H614 H 0.96051 0.79407 0.8229 0.0
H615 H 0.90574 0.80507 0.82103 0.0
H616 H 0.98081 0.70881 0.83959 0.0
H617 H 0.0226 0.82763 0.84588 0.0
H618 H 0.98231 0.81803 0.8465 0.0
H619 H 0.00103 0.8242 0.83203 0.0
C620 C 0.90313 0.75725 0.84568 0.0
C621 C 0.89215 0.77671 0.8364 0.0
C622 C 0.93463 0.75154 0.8469 0.0
C623 C 0.95581 0.76497 0.83882 0.0
C624 C 0.94484 0.78421 0.8295 0.0
H625 H 0.13682 0.69547 0.82131 0.0
H626 H 0.08179 0.70559 0.823 0.0
C627 C 0.91342 0.79033 0.82839 0.0
C628 C 0.98915 0.75765 0.83975 0.0
H629 H 0.06052 0.79026 0.84011 0.0
C630 C 0.99822 0.72665 0.83984 0.0
C631 C 0.01196 0.78083 0.84032 0.0
C632 C 0.00395 0.8145 0.84132 0.0
C633 C 0.02938 0.71821 0.84012 0.0
C634 C 0.05221 0.74141 0.83985 0.0
C635 C 0.04312 0.7724 0.84014 0.0
C636 C 0.08561 0.73422 0.83909 0.0
C637 C 0.03737 0.68449 0.84088 0.0
C638 C 0.10637 0.7476 0.84735 0.0
C639 C 0.13797 0.74244 0.84622 0.0
C640 C 0.1495 0.72355 0.83687 0.0
C641 C 0.12868 0.70981 0.82872 0.0
C642 C 0.09712 0.71541 0.82972 0.0
H643 H 0.01858 0.67112 0.84523 0.0
H644 H 0.04063 0.67529 0.83153 0.0
H645 H 0.05884 0.68069 0.84614 0.0
H646 H 0.09813 0.76228 0.85463 0.0
H647 H 0.15338 0.75333 0.85267 0.0
H648 H 0.53887 0.61792 0.09547 0.0
H649 H 0.54835 0.67323 0.09619 0.0
H650 H 0.46315 0.68976 0.07722 0.0
H651 H 0.4535 0.63445 0.07633 0.0
H652 H 0.5127 0.72149 0.06734 0.0
H653 H 0.50663 0.73856 0.11743 0.0
H654 H 0.53285 0.70891 0.11276 0.0
H655 H 0.49236 0.70433 0.11003 0.0
C656 C 0.52197 0.63325 0.09152 0.0
C657 C 0.49538 0.62159 0.08584 0.0
C658 C 0.52738 0.66493 0.09201 0.0
C659 C 0.50627 0.68564 0.0869 0.0
C660 C 0.47968 0.67417 0.08127 0.0
H661 H 0.50284 0.88466 0.09472 0.0
H662 H 0.49198 0.82955 0.09556 0.0
C663 C 0.47421 0.6425 0.08078 0.0
C664 C 0.51255 0.71919 0.08695 0.0
H665 H 0.52542 0.7806 0.10571 0.0
C666 C 0.51538 0.73445 0.07572 0.0
C667 C 0.51571 0.73611 0.0979 0.0
C668 C 0.51146 0.72126 0.11022 0.0
C669 C 0.5218 0.76605 0.07515 0.0
C670 C 0.52596 0.78277 0.08609 0.0
C671 C 0.52257 0.76766 0.09733 0.0
C672 C 0.5334 0.81608 0.08604 0.0
C673 C 0.5236 0.78136 0.06281 0.0
C674 C 0.56065 0.82676 0.08066 0.0
C675 C 0.56696 0.85826 0.08015 0.0
C676 C 0.54619 0.87977 0.08507 0.0
C677 C 0.51934 0.86886 0.0908 0.0
C678 C 0.51306 0.83733 0.09129 0.0
H679 H 0.51229 0.76736 0.05562 0.0
H680 H 0.51268 0.80443 0.06302 0.0
H681 H 0.54809 0.78432 0.06024 0.0
H682 H 0.57698 0.8107 0.07678 0.0
H683 H 0.58799 0.86571 0.07577 0.0
H684 H 0.65359 0.2648 0.34737 0.0
H685 H 0.59837 0.27456 0.34849 0.0
H686 H 0.58078 0.19158 0.32816 0.0
H687 H 0.63596 0.18164 0.32688 0.0
H688 H 0.55055 0.24322 0.31894 0.0
H689 H 0.53164 0.23149 0.3688 0.0
H690 H 0.56207 0.25742 0.36468 0.0
H691 H 0.5657 0.21717 0.36128 0.0
C692 C 0.63803 0.24839 0.34324 0.0
C693 C 0.64935 0.22242 0.33701 0.0
C694 C 0.60642 0.25396 0.34395 0.0
C695 C 0.58547 0.23364 0.33852 0.0
C696 C 0.59659 0.2075 0.33245 0.0
H697 H 0.3867 0.23016 0.34475 0.0
H698 H 0.44177 0.2196 0.34595 0.0
C699 C 0.62817 0.20186 0.33174 0.0
C700 C 0.55208 0.24051 0.33854 0.0
H701 H 0.49019 0.25186 0.35719 0.0
C702 C 0.53732 0.24502 0.3273 0.0
C703 C 0.53485 0.24259 0.34945 0.0
C704 C 0.54924 0.23665 0.36174 0.0
C705 C 0.50585 0.25194 0.32667 0.0
C706 C 0.48878 0.2549 0.3376 0.0
C707 C 0.50342 0.24993 0.34884 0.0
C708 C 0.45552 0.26234 0.33748 0.0
C709 C 0.49103 0.25551 0.31431 0.0
C710 C 0.44501 0.29024 0.33259 0.0
C711 C 0.41351 0.29638 0.33185 0.0
C712 C 0.39187 0.27478 0.33606 0.0
C713 C 0.40261 0.2473 0.34136 0.0
C714 C 0.43411 0.2412 0.34208 0.0
H715 H 0.50529 0.24522 0.30696 0.0
H716 H 0.46795 0.24461 0.31413 0.0
H717 H 0.48817 0.28033 0.31226 0.0
H718 H 0.46119 0.30715 0.32921 0.0
H719 H 0.40616 0.3179 0.32782 0.0
H720 H 0.95574 0.86309 0.4223 0.0
H721 H 0.96686 0.8081 0.4213 0.0
H722 H 0.05307 0.8272 0.40347 0.0
H723 H 0.04219 0.88232 0.40433 0.0
H724 H 0.01908 0.7776 0.39298 0.0
H725 H 0.03186 0.76596 0.44318 0.0
H726 H 0.99638 0.78319 0.43832 0.0
H727 H 0.03209 0.80276 0.43556 0.0
C728 C 0.97703 0.8557 0.41811 0.0
C729 C 0.99819 0.87729 0.4135 0.0
C730 C 0.98339 0.82422 0.41759 0.0
C731 C 0.01101 0.81364 0.41249 0.0
C732 C 0.0317 0.83494 0.4075 0.0
H733 H 0.09037 0.63223 0.42346 0.0
H734 H 0.08154 0.68757 0.42185 0.0
C735 C 0.02541 0.86646 0.40803 0.0
C736 C 0.01859 0.7804 0.41258 0.0
H737 H 0.03201 0.71983 0.43167 0.0
C738 C 0.02199 0.76494 0.40143 0.0
C739 C 0.02281 0.76408 0.42362 0.0
C740 C 0.02089 0.77983 0.43586 0.0
C741 C 0.02886 0.73337 0.40102 0.0
C742 C 0.0321 0.71686 0.41207 0.0
C743 C 0.02931 0.73249 0.42321 0.0
C744 C 0.03821 0.6833 0.41233 0.0
C745 C 0.03298 0.71805 0.38879 0.0
C746 C 0.01677 0.66251 0.4075 0.0
C747 C 0.0217 0.63082 0.4084 0.0
C748 C 0.04813 0.61923 0.41423 0.0
C749 C 0.06976 0.64022 0.41892 0.0
C750 C 0.06476 0.6719 0.41802 0.0
H751 H 0.03771 0.73506 0.38147 0.0
H752 H 0.05208 0.70113 0.38906 0.0
H753 H 0.01157 0.70559 0.38638 0.0
H754 H 0.99584 0.67078 0.40327 0.0
H755 H 0.00448 0.61543 0.40472 0.0
H756 H 0.38756 0.75137 0.64966 0.0
H757 H 0.44274 0.76027 0.64731 0.0
H758 H 0.4601 0.70742 0.6799 0.0
H759 H 0.40517 0.69737 0.682 0.0
H760 H 0.48095 0.78989 0.66119 0.0
H761 H 0.5224 0.67016 0.65789 0.0
H762 H 0.48214 0.67979 0.65698 0.0
H763 H 0.50072 0.67587 0.6716 0.0
C764 C 0.40317 0.74134 0.65625 0.0
C765 C 0.39195 0.72351 0.66598 0.0
C766 C 0.43473 0.74646 0.6549 0.0
C767 C 0.45574 0.73408 0.6633 0.0
C768 C 0.44455 0.71642 0.67306 0.0
H769 H 0.6359 0.80594 0.6797 0.0
H770 H 0.58112 0.79489 0.67808 0.0
C771 C 0.41304 0.71087 0.67431 0.0
C772 C 0.48913 0.74108 0.66224 0.0
H773 H 0.56045 0.70828 0.66274 0.0
C774 C 0.4983 0.77198 0.66139 0.0
C775 C 0.51188 0.71779 0.66225 0.0
C776 C 0.50376 0.68406 0.66209 0.0
C777 C 0.52948 0.78026 0.66095 0.0
C778 C 0.55224 0.75709 0.66182 0.0
C779 C 0.54308 0.72613 0.66225 0.0
C780 C 0.5856 0.76439 0.66257 0.0
C781 C 0.53757 0.81378 0.65939 0.0
C782 C 0.60667 0.7502 0.65465 0.0
C783 C 0.6382 0.75597 0.65573 0.0
C784 C 0.64931 0.77623 0.66471 0.0
C785 C 0.62814 0.79055 0.67257 0.0
C786 C 0.5967 0.78441 0.6716 0.0
H787 H 0.51888 0.82651 0.65467 0.0
H788 H 0.5407 0.8244 0.6685 0.0
H789 H 0.55914 0.8167 0.6541 0.0
H790 H 0.59872 0.73454 0.64765 0.0
H791 H 0.65386 0.74455 0.64953 0.0
H792 H 0.54006 0.38537 0.90479 0.0
H793 H 0.55033 0.33026 0.9034 0.0
H794 H 0.46474 0.31106 0.92169 0.0
H795 H 0.45428 0.36609 0.92325 0.0
H796 H 0.51494 0.28021 0.93169 0.0
H797 H 0.51055 0.26497 0.88144 0.0
H798 H 0.53586 0.29499 0.88652 0.0
H799 H 0.49518 0.29852 0.889 0.0
C800 C 0.52321 0.36949 0.90842 0.0
C801 C 0.49632 0.38029 0.91415 0.0
C802 C 0.52909 0.33794 0.90755 0.0
C803 C 0.50815 0.31656 0.91233 0.0
C804 C 0.48116 0.32719 0.91792 0.0
H805 H 0.5031 0.11861 0.90404 0.0
H806 H 0.49369 0.17393 0.90322 0.0
C807 C 0.47522 0.3587 0.91878 0.0
C808 C 0.5151 0.28317 0.91209 0.0
H809 H 0.52871 0.22252 0.89304 0.0
C810 C 0.51791 0.26757 0.92324 0.0
C811 C 0.5187 0.26672 0.90105 0.0
C812 C 0.51467 0.28202 0.88881 0.0
C813 C 0.5245 0.23601 0.92367 0.0
C814 C 0.52885 0.21969 0.91264 0.0
C815 C 0.5257 0.23519 0.90148 0.0
C816 C 0.53571 0.1863 0.91254 0.0
C817 C 0.52617 0.22025 0.93591 0.0
C818 C 0.56283 0.17495 0.91781 0.0
C819 C 0.56834 0.14328 0.91831 0.0
C820 C 0.54683 0.12234 0.91351 0.0
C821 C 0.52014 0.13395 0.90788 0.0
C822 C 0.5147 0.16561 0.90738 0.0
H823 H 0.51531 0.23423 0.94322 0.0
H824 H 0.51472 0.19745 0.9356 0.0
H825 H 0.55063 0.21659 0.93839 0.0
H826 H 0.57962 0.19059 0.92164 0.0
H827 H 0.58924 0.13526 0.92262 0.0
H828 H 0.13745 0.30523 0.18069 0.0
H829 H 0.08248 0.29393 0.18007 0.0
H830 H 0.09647 0.23616 0.14857 0.0
H831 H 0.15169 0.24634 0.14945 0.0
H832 H 0.03911 0.30408 0.16399 0.0
H833 H 0.05036 0.17812 0.16996 0.0
H834 H 0.08247 0.20391 0.17173 0.0
H835 H 0.07041 0.19188 0.15676 0.0
C836 C 0.12885 0.29012 0.17362 0.0
C837 C 0.14904 0.27643 0.16519 0.0
C838 C 0.09738 0.28366 0.17327 0.0
C839 C 0.08532 0.26362 0.16444 0.0
C840 C 0.10527 0.25088 0.15572 0.0
H841 H 0.88704 0.25276 0.15066 0.0
H842 H 0.94217 0.26299 0.14906 0.0
C843 C 0.13685 0.25692 0.15618 0.0
C844 C 0.0519 0.25626 0.16439 0.0
H845 H 1.00058 0.19683 0.1651 0.0
C846 C 0.03069 0.28062 0.16427 0.0
C847 C 0.04084 0.22565 0.16493 0.0
C848 C 0.0622 0.19842 0.16598 0.0
C849 C 0.99885 0.27528 0.16468 0.0
C850 C 0.98778 0.24465 0.16477 0.0
C851 C 0.00899 0.2203 0.16489 0.0
C852 C 0.95438 0.2373 0.16528 0.0
C853 C 0.97754 0.30262 0.16543 0.0
C854 C 0.94294 0.21821 0.17456 0.0
C855 C 0.91152 0.21172 0.17532 0.0
C856 C 0.89077 0.2244 0.16687 0.0
C857 C 0.90233 0.24296 0.15741 0.0
C858 C 0.93385 0.24903 0.15655 0.0
H859 H 0.98959 0.32335 0.16893 0.0
H860 H 0.96879 0.30808 0.15618 0.0
H861 H 0.95761 0.29779 0.17146 0.0
H862 H 0.95827 0.20873 0.18138 0.0
H863 H 0.90343 0.19736 0.18273 0.0
H864 H 0.99593 0.9359 0.45853 0.0
H865 H 0.00813 0.94735 0.47979 0.0
H866 H 0.06792 0.02089 0.46826 0.0
H867 H 0.05646 0.00887 0.44684 0.0
H868 H 0.08856 0.989 0.4899 0.0
H869 H 0.96676 0.02586 0.49269 0.0
H870 H 0.97113 0.98679 0.48773 0.0
H871 H 0.98546 0.01763 0.47838 0.0
C872 C 0.01229 0.95401 0.46051 0.0
C873 C 0.02496 0.97176 0.45106 0.0
C874 C 0.01919 0.96056 0.47265 0.0
C875 C 0.03832 0.98544 0.47559 0.0
C876 C 0.05298 0.00169 0.46617 0.0
H877 H 0.00555 0.07354 0.54493 0.0
H878 H 0.01859 0.06592 0.52346 0.0
C879 C 0.04645 0.99478 0.45395 0.0
C880 C 0.0398 0.9965 0.48836 0.0
H881 H 0.9938 0.02203 0.51138 0.0
C882 C 0.06797 0.99649 0.49461 0.0
C883 C 0.01301 0.00695 0.49438 0.0
C884 C 0.98244 0.00965 0.48793 0.0
C885 C 0.06978 0.00568 0.50692 0.0
C886 C 0.0426 0.0145 0.51312 0.0
C887 C 0.01468 0.01523 0.50669 0.0
C888 C 0.04174 0.02241 0.52632 0.0
C889 C 0.10076 0.00612 0.51307 0.0
C890 C 0.05166 0.00125 0.53519 0.0
C891 C 0.04491 0.00607 0.54754 0.0
C892 C 0.02747 0.03169 0.55112 0.0
C893 C 0.01907 0.05364 0.54236 0.0
C894 C 0.02646 0.04923 0.5301 0.0
H895 H 0.1196 0.00908 0.50633 0.0
H896 H 0.10227 0.02486 0.51992 0.0
H897 H 0.10448 0.98386 0.51779 0.0
H898 H 0.06278 0.98002 0.53252 0.0
H899 H 0.05117 0.98861 0.55413 0.0
H900 H 0.25957 0.80038 0.80523 0.0
H901 H 0.26648 0.8207 0.7845 0.0
H902 H 0.23348 0.7351 0.7696 0.0
H903 H 0.22612 0.71494 0.79002 0.0
H904 H 0.30496 0.79793 0.76723 0.0
H905 H 0.18725 0.79611 0.74891 0.0
H906 H 0.19503 0.79419 0.76508 0.0
H907 H 0.19572 0.75983 0.75588 0.0
C908 C 0.2532 0.78614 0.79753 0.0
C909 C 0.24232 0.75598 0.79932 0.0
C910 C 0.2572 0.79779 0.7857 0.0
C911 C 0.24995 0.77966 0.77549 0.0
C912 C 0.23843 0.74989 0.77731 0.0
H913 H 0.32595 0.72814 0.71158 0.0
H914 H 0.31553 0.74787 0.73185 0.0
C915 C 0.23454 0.73825 0.78904 0.0
C916 C 0.2573 0.7899 0.7629 0.0
H917 H 0.2284 0.78658 0.73402 0.0
C918 C 0.28804 0.79638 0.75999 0.0
C919 C 0.23521 0.78877 0.75344 0.0
C920 C 0.20141 0.7847 0.75602 0.0
C921 C 0.29778 0.79835 0.7478 0.0
C922 C 0.27632 0.79308 0.73833 0.0
C923 C 0.24504 0.79007 0.74125 0.0
C924 C 0.28628 0.78511 0.72576 0.0
C925 C 0.33125 0.80457 0.74522 0.0
C926 C 0.27331 0.79941 0.71547 0.0
C927 C 0.27917 0.78794 0.70373 0.0
C928 C 0.29761 0.76167 0.70217 0.0
C929 C 0.31155 0.74835 0.71245 0.0
C930 C 0.30589 0.75986 0.72409 0.0
H931 H 0.34121 0.81998 0.75227 0.0
H932 H 0.34419 0.78259 0.74553 0.0
H933 H 0.33456 0.81522 0.73611 0.0
H934 H 0.25781 0.81872 0.71656 0.0
H935 H 0.26792 0.79854 0.69598 0.0
H936 H 0.55072 0.95142 0.03967 0.0
H937 H 0.53183 0.96228 0.0193 0.0
H938 H 0.45518 0.01228 0.03445 0.0
H939 H 0.47449 0.00193 0.05514 0.0
H940 H 0.4771 0.95145 0.00691 0.0
H941 H 0.49905 0.07673 0.01335 0.0
H942 H 0.51289 0.04852 0.02408 0.0
H943 H 0.47277 0.05808 0.02363 0.0
C944 C 0.52965 0.96449 0.03875 0.0
C945 C 0.51439 0.97623 0.04906 0.0
C946 C 0.51876 0.97053 0.02706 0.0
C947 C 0.49236 0.98847 0.02533 0.0
C948 C 0.47589 0.99877 0.03558 0.0
H949 H 0.4715 0.01465 0.94541 0.0
H950 H 0.45247 0.00744 0.96631 0.0
C951 C 0.48683 0.99266 0.04739 0.0
C952 C 0.48443 0.99809 0.01274 0.0
H953 H 0.49248 0.05914 0.99343 0.0
C954 C 0.47957 0.97511 0.00395 0.0
C955 C 0.48777 0.029 0.00893 0.0
C956 C 0.49355 0.05461 0.01793 0.0
C957 C 0.48063 0.98177 0.99142 0.0
C958 C 0.48612 0.01236 0.98761 0.0
C959 C 0.48826 0.03573 0.9964 0.0
C960 C 0.49556 0.01957 0.97492 0.0
C961 C 0.47855 0.95565 0.98239 0.0
C962 C 0.52567 0.02977 0.97285 0.0
C963 C 0.53651 0.03406 0.96103 0.0
C964 C 0.51748 0.02827 0.9509 0.0
C965 C 0.48684 0.01919 0.95298 0.0
C966 C 0.47595 0.0149 0.96491 0.0
H967 H 0.47789 0.93283 0.98694 0.0
H968 H 0.45732 0.95819 0.97688 0.0
H969 H 0.49847 0.95616 0.97606 0.0
H970 H 0.54123 0.03351 0.98043 0.0
H971 H 0.56016 0.04128 0.95985 0.0
H972 H 0.27044 0.20447 0.19466 0.0
H973 H 0.27933 0.18489 0.21542 0.0
H974 H 0.23273 0.26403 0.23025 0.0
H975 H 0.22353 0.28334 0.20982 0.0
H976 H 0.31313 0.21408 0.23303 0.0
H977 H 0.19595 0.19583 0.25052 0.0
H978 H 0.2041 0.19891 0.2344 0.0
H979 H 0.19856 0.23296 0.24353 0.0
C980 C 0.26153 0.21728 0.20236 0.0
C981 C 0.24637 0.24552 0.20058 0.0
C982 C 0.26666 0.2061 0.2142 0.0
C983 C 0.25622 0.22272 0.22439 0.0
C984 C 0.24031 0.25036 0.22255 0.0
H985 H 0.321 0.28378 0.28948 0.0
H986 H 0.31311 0.26487 0.26891 0.0
C987 C 0.23536 0.26157 0.21082 0.0
C988 C 0.26461 0.21369 0.23702 0.0
H989 H 0.23425 0.21196 0.2657 0.0
C990 C 0.29587 0.21265 0.24015 0.0
C991 C 0.24222 0.21108 0.24632 0.0
C992 C 0.20834 0.2094 0.24348 0.0
C993 C 0.30523 0.21241 0.25241 0.0
C994 C 0.28275 0.21383 0.26172 0.0
C995 C 0.25156 0.21147 0.25858 0.0
C996 C 0.29069 0.22266 0.27442 0.0
C997 C 0.33915 0.21208 0.25524 0.0
C998 C 0.28043 0.20542 0.28447 0.0
C999 C 0.28475 0.21638 0.29638 0.0
C1000 C 0.29897 0.24501 0.29841 0.0
C1001 C 0.30991 0.26169 0.28831 0.0
C1002 C 0.30572 0.25071 0.27649 0.0
H1003 H 0.35208 0.19913 0.24817 0.0
H1004 H 0.34796 0.23602 0.25525 0.0
H1005 H 0.34385 0.20163 0.26429 0.0
H1006 H 0.26844 0.18388 0.28308 0.0
H1007 H 0.27591 0.20303 0.30395 0.0
H1008 H 0.8193 0.2236 0.21228 0.0
H1009 H 0.80878 0.24383 0.23245 0.0
H1010 H 0.76016 0.32049 0.2166 0.0
H1011 H 0.77009 0.29973 0.1961 0.0
H1012 H 0.82042 0.29827 0.24451 0.0
H1013 H 0.69466 0.27971 0.23789 0.0
H1014 H 0.72252 0.26493 0.22722 0.0
H1015 H 0.7142 0.30534 0.22762 0.0
C1016 C 0.80659 0.24494 0.213 0.0
C1017 C 0.79506 0.25975 0.20256 0.0
C1018 C 0.80077 0.25662 0.22458 0.0
C1019 C 0.78328 0.28342 0.22607 0.0
C1020 C 0.77329 0.29948 0.21567 0.0
H1021 H 0.75804 0.30033 0.30617 0.0
H1022 H 0.7653 0.32148 0.28558 0.0
C1023 C 0.77916 0.28771 0.20396 0.0
C1024 C 0.77369 0.29207 0.23861 0.0
H1025 H 0.71233 0.2852 0.25783 0.0
C1026 C 0.79668 0.29635 0.24744 0.0
C1027 C 0.74267 0.28954 0.24238 0.0
C1028 C 0.71698 0.2845 0.23334 0.0
C1029 C 0.78993 0.29511 0.25996 0.0
C1030 C 0.75922 0.29013 0.26372 0.0
C1031 C 0.73585 0.28896 0.2549 0.0
C1032 C 0.75181 0.27971 0.27628 0.0
C1033 C 0.81606 0.29625 0.26901 0.0
C1034 C 0.74077 0.2497 0.27787 0.0
C1035 C 0.73641 0.23771 0.28951 0.0
C1036 C 0.74301 0.25541 0.29993 0.0
C1037 C 0.75288 0.286 0.29836 0.0
C1038 C 0.75721 0.29808 0.2866 0.0
H1039 H 0.83889 0.29681 0.26447 0.0
H1040 H 0.81385 0.31719 0.27472 0.0
H1041 H 0.81522 0.27596 0.27515 0.0
H1042 H 0.73646 0.23507 0.27006 0.0
H1043 H 0.72854 0.21417 0.2903 0.0
H1044 H 0.76637 0.70358 0.6958 0.0
H1045 H 0.77484 0.68354 0.71649 0.0
H1046 H 0.73071 0.76386 0.73152 0.0
H1047 H 0.72181 0.78361 0.71114 0.0
H1048 H 0.80975 0.7108 0.73384 0.0
H1049 H 0.69273 0.69731 0.75208 0.0
H1050 H 0.70024 0.70046 0.73591 0.0
H1051 H 0.69641 0.73449 0.7452 0.0
C1052 C 0.75785 0.71658 0.70352 0.0
C1053 C 0.7435 0.74526 0.7018 0.0
C1054 C 0.76275 0.70512 0.71533 0.0
C1055 C 0.75292 0.72192 0.72556 0.0
C1056 C 0.73776 0.75002 0.72379 0.0
H1057 H 0.82261 0.7813 0.78983 0.0
H1058 H 0.81357 0.76174 0.76943 0.0
C1059 C 0.733 0.76149 0.71208 0.0
C1060 C 0.76142 0.71258 0.73814 0.0
H1061 H 0.73223 0.71221 0.76702 0.0
C1062 C 0.79274 0.71014 0.74107 0.0
C1063 C 0.73933 0.7109 0.7476 0.0
C1064 C 0.7053 0.71057 0.74499 0.0
C1065 C 0.80259 0.70949 0.75326 0.0
C1066 C 0.78059 0.71197 0.76273 0.0
C1067 C 0.7492 0.71093 0.75979 0.0
C1068 C 0.78944 0.72082 0.77532 0.0
C1069 C 0.83658 0.70764 0.75587 0.0
C1070 C 0.7787 0.70449 0.78553 0.0
C1071 C 0.78368 0.71584 0.79735 0.0
C1072 C 0.79905 0.74397 0.7991 0.0
C1073 C 0.81061 0.75962 0.78885 0.0
C1074 C 0.80576 0.74825 0.77713 0.0
H1075 H 0.84854 0.69387 0.74877 0.0
H1076 H 0.84651 0.73114 0.75568 0.0
H1077 H 0.84119 0.69727 0.76494 0.0
H1078 H 0.76572 0.68345 0.78434 0.0
H1079 H 0.77434 0.70333 0.80504 0.0
H1080 H 0.48866 0.45065 0.96069 0.0
H1081 H 0.50727 0.45964 0.98125 0.0
H1082 H 0.58728 0.50571 0.96692 0.0
H1083 H 0.5684 0.49721 0.94606 0.0
H1084 H 0.5614 0.44521 0.9939 0.0
H1085 H 0.54573 0.57165 0.98815 0.0
H1086 H 0.53069 0.54454 0.97723 0.0
H1087 H 0.57121 0.55213 0.97781 0.0
C1088 C 0.51039 0.46246 0.96183 0.0
C1089 C 0.52679 0.47363 0.95169 0.0
C1090 C 0.52111 0.46741 0.97363 0.0
C1091 C 0.54844 0.4837 0.97564 0.0
C1092 C 0.56589 0.49345 0.96557 0.0
H1093 H 0.56882 0.50784 0.05586 0.0
H1094 H 0.58814 0.49948 0.03503 0.0
C1095 C 0.55515 0.48843 0.95366 0.0
C1096 C 0.55646 0.49238 0.98834 0.0
H1097 H 0.55128 0.55304 0.00798 0.0
C1098 C 0.56008 0.46885 0.997 0.0
C1099 C 0.55466 0.52327 0.99232 0.0
C1100 C 0.55022 0.54946 0.98346 0.0
C1101 C 0.55935 0.47513 0.00957 0.0
C1102 C 0.55531 0.50581 0.01354 0.0
C1103 C 0.55441 0.52956 0.00488 0.0
C1104 C 0.54573 0.513 0.02621 0.0
C1105 C 0.56021 0.44869 0.01847 0.0
C1106 C 0.5159 0.52413 0.02813 0.0
C1107 C 0.50492 0.52903 0.03989 0.0
C1108 C 0.52351 0.52293 0.05011 0.0
C1109 C 0.55385 0.51267 0.0482 0.0
C1110 C 0.56489 0.50774 0.03632 0.0
H1111 H 0.56051 0.42601 0.01381 0.0
H1112 H 0.58115 0.45049 0.0242 0.0
H1113 H 0.53994 0.44958 0.02462 0.0
H1114 H 0.50068 0.52831 0.02048 0.0
H1115 H 0.48152 0.53712 0.04092 0.0
H1116 H 0.97535 0.50574 0.55583 0.0
H1117 H 0.95563 0.51533 0.53514 0.0
H1118 H 0.02659 0.45697 0.52032 0.0
H1119 H 0.0459 0.44708 0.5407 0.0
H1120 H 0.98817 0.54395 0.51746 0.0
H1121 H 0.9543 0.4303 0.50012 0.0
H1122 H 0.95897 0.43784 0.51622 0.0
H1123 H 0.99163 0.42764 0.50692 0.0
C1124 C 0.98611 0.4943 0.54816 0.0
C1125 C 0.01227 0.47578 0.54989 0.0
C1126 C 0.97489 0.49985 0.53636 0.0
C1127 C 0.98932 0.4865 0.52617 0.0
C1128 C 0.01452 0.46691 0.52801 0.0
H1129 H 0.05849 0.54347 0.46111 0.0
H1130 H 0.03899 0.53699 0.48167 0.0
C1131 C 0.02578 0.46155 0.5397 0.0
C1132 C 0.98141 0.49586 0.51353 0.0
H1133 H 0.97607 0.46581 0.48487 0.0
C1134 C 0.98455 0.52697 0.51036 0.0
C1135 C 0.97596 0.47395 0.50424 0.0
C1136 C 0.96967 0.44063 0.5071 0.0
C1137 C 0.98572 0.5362 0.4981 0.0
C1138 C 0.98433 0.51366 0.48881 0.0
C1139 C 0.9778 0.48307 0.49197 0.0
C1140 C 0.99423 0.52038 0.47612 0.0
C1141 C 0.98988 0.56986 0.49524 0.0
C1142 C 0.97576 0.51271 0.46606 0.0
C1143 C 0.98702 0.51618 0.45415 0.0
C1144 C 0.01712 0.52697 0.45212 0.0
C1145 C 0.03521 0.53512 0.46226 0.0
C1146 C 0.02395 0.53174 0.47408 0.0
H1147 H 0.97872 0.58442 0.50229 0.0
H1148 H 0.01478 0.57543 0.49525 0.0
H1149 H 0.98019 0.57585 0.48618 0.0
H1150 H 0.95287 0.50354 0.46743 0.0
H1151 H 0.97251 0.50954 0.44657 0.0
H1152 H 0.2774 0.83376 0.6436 0.0
H1153 H 0.24363 0.87055 0.63334 0.0
H1154 H 0.16424 0.82163 0.64664 0.0
H1155 H 0.19786 0.78458 0.65694 0.0
H1156 H 0.19748 0.8542 0.61511 0.0
H1157 H 0.14882 0.9142 0.65555 0.0
H1158 H 0.18416 0.89242 0.6562 0.0
H1159 H 0.14784 0.87286 0.65594 0.0
C1160 C 0.25275 0.83098 0.64446 0.0
C1161 C 0.24029 0.80627 0.6511 0.0
C1162 C 0.23352 0.85198 0.63856 0.0
C1163 C 0.20149 0.84888 0.63929 0.0
C1164 C 0.18892 0.82459 0.64608 0.0
H1165 H 0.05777 0.92925 0.59474 0.0
H1166 H 0.09434 0.89461 0.60472 0.0
C1167 C 0.20816 0.80343 0.65194 0.0
C1168 C 0.18132 0.87038 0.63253 0.0
H1169 H 0.1274 0.92662 0.63631 0.0
C1170 C 0.18218 0.87009 0.61973 0.0
C1171 C 0.16161 0.89119 0.6386 0.0
C1172 C 0.16057 0.89301 0.65233 0.0
C1173 C 0.16344 0.88981 0.61282 0.0
C1174 C 0.14332 0.91021 0.6189 0.0
C1175 C 0.1428 0.91083 0.6317 0.0
C1176 C 0.12249 0.93108 0.61214 0.0
C1177 C 0.16548 0.88894 0.5991 0.0
C1178 C 0.12631 0.96303 0.61298 0.0
C1179 C 0.10557 0.98288 0.60723 0.0
C1180 C 0.0804 0.9711 0.60068 0.0
C1181 C 0.07698 0.93904 0.59967 0.0
C1182 C 0.09787 0.91921 0.60535 0.0
H1183 H 0.18636 0.87662 0.59591 0.0
H1184 H 0.14503 0.87685 0.5954 0.0
H1185 H 0.16564 0.91259 0.59528 0.0
H1186 H 0.14515 0.9726 0.6182 0.0
H1187 H 0.10877 0.00744 0.60824 0.0
H1188 H 0.26406 0.84422 0.852 0.0
H1189 H 0.29747 0.8819 0.86196 0.0
H1190 H 0.37484 0.8209 0.85746 0.0
H1191 H 0.34185 0.7836 0.84721 0.0
H1192 H 0.32852 0.87475 0.88296 0.0
H1193 H 0.41129 0.90065 0.84602 0.0
H1194 H 0.37565 0.8806 0.84326 0.0
H1195 H 0.40865 0.86022 0.84902 0.0
C1196 C 0.28831 0.8391 0.85292 0.0
C1197 C 0.30035 0.811 0.84876 0.0
C1198 C 0.30735 0.86061 0.85866 0.0
C1199 C 0.33875 0.85443 0.86033 0.0
C1200 C 0.35088 0.82657 0.85601 0.0
H1201 H 0.48789 0.92982 0.90238 0.0
H1202 H 0.45077 0.89712 0.89174 0.0
C1203 C 0.33193 0.80517 0.85019 0.0
C1204 C 0.35842 0.87612 0.86729 0.0
H1205 H 0.42627 0.91558 0.86621 0.0
C1206 C 0.3497 0.88397 0.87924 0.0
C1207 C 0.38606 0.88819 0.86243 0.0
C1208 C 0.39581 0.88224 0.84944 0.0
C1209 C 0.36833 0.90281 0.88656 0.0
C1210 C 0.39631 0.91401 0.88181 0.0
C1211 C 0.40485 0.90664 0.86983 0.0
C1212 C 0.4173 0.93327 0.88916 0.0
C1213 C 0.35848 0.91009 0.89943 0.0
C1214 C 0.41045 0.96429 0.89135 0.0
C1215 C 0.43166 0.9831 0.89737 0.0
C1216 C 0.45999 0.97111 0.90133 0.0
C1217 C 0.46623 0.93973 0.89949 0.0
C1218 C 0.44513 0.92103 0.89338 0.0
H1219 H 0.33778 0.89687 0.90221 0.0
H1220 H 0.37746 0.905 0.90589 0.0
H1221 H 0.35319 0.93499 0.90016 0.0
H1222 H 0.38912 0.97413 0.88807 0.0
H1223 H 0.42621 0.0072 0.89862 0.0
H1224 H 0.43199 0.99885 0.10228 0.0
H1225 H 0.39484 0.0332 0.11204 0.0
H1226 H 0.459 0.10839 0.10887 0.0
H1227 H 0.49586 0.07441 0.09881 0.0
H1228 H 0.40042 0.06356 0.13322 0.0
H1229 H 0.38202 0.14791 0.09609 0.0
H1230 H 0.4012 0.11166 0.09361 0.0
H1231 H 0.42183 0.14375 0.09999 0.0
C1232 C 0.438 0.02281 0.1035 0.0
C1233 C 0.4668 0.03396 0.09971 0.0
C1234 C 0.41678 0.0424 0.10911 0.0
C1235 C 0.42391 0.0735 0.11105 0.0
C1236 C 0.45261 0.0847 0.1072 0.0
H1237 H 0.3427 0.22383 0.15127 0.0
H1238 H 0.37693 0.18743 0.14101 0.0
C1239 C 0.47374 0.06519 0.1015 0.0
C1240 C 0.40202 0.09379 0.11766 0.0
H1241 H 0.36379 0.16228 0.11585 0.0
C1242 C 0.39219 0.085 0.12937 0.0
C1243 C 0.39122 0.12177 0.11263 0.0
C1244 C 0.39935 0.1317 0.09984 0.0
C1245 C 0.37249 0.10376 0.13628 0.0
C1246 C 0.36232 0.13196 0.13134 0.0
C1247 C 0.37186 0.14068 0.11962 0.0
C1248 C 0.34187 0.15292 0.13823 0.0
C1249 C 0.36314 0.0937 0.14891 0.0
C1250 C 0.31088 0.14539 0.14012 0.0
C1251 C 0.29118 0.1662 0.14594 0.0
C1252 C 0.30222 0.19483 0.14998 0.0
C1253 C 0.33349 0.20192 0.14832 0.0
C1254 C 0.35308 0.18122 0.14243 0.0
H1255 H 0.3766 0.07356 0.15211 0.0
H1256 H 0.36617 0.11286 0.1555 0.0
H1257 H 0.33843 0.08736 0.14888 0.0
H1258 H 0.30178 0.12373 0.13685 0.0
H1259 H 0.2672 0.16011 0.14705 0.0
H1260 H 0.11498 0.99687 0.39875 0.0
H1261 H 0.15129 0.03138 0.38856 0.0
H1262 H 0.08655 0.10602 0.39199 0.0
H1263 H 0.05059 0.07196 0.40246 0.0
H1264 H 0.14323 0.06063 0.3672 0.0
H1265 H 0.16413 0.14705 0.40334 0.0
H1266 H 0.14567 0.11071 0.4064 0.0
H1267 H 0.124 0.14225 0.40013 0.0
C1268 C 0.10873 0.02079 0.39754 0.0
C1269 C 0.07998 0.03173 0.40147 0.0
C1270 C 0.12946 0.04045 0.39168 0.0
C1271 C 0.12184 0.0714 0.38964 0.0
C1272 C 0.09331 0.08246 0.39373 0.0
H1273 H 0.19775 0.22136 0.3474 0.0
H1274 H 0.16434 0.1849 0.35809 0.0
C1275 C 0.07269 0.06289 0.39967 0.0
C1276 C 0.1428 0.0916 0.38255 0.0
H1277 H 0.17984 0.16085 0.38316 0.0
C1278 C 0.15147 0.0824 0.37075 0.0
C1279 C 0.15356 0.12003 0.38716 0.0
C1280 C 0.14662 0.13047 0.4 0.0
C1281 C 0.17 0.10116 0.36335 0.0
C1282 C 0.18013 0.1298 0.36789 0.0
C1283 C 0.17174 0.13894 0.37969 0.0
C1284 C 0.19975 0.15058 0.36057 0.0
C1285 C 0.17817 0.09062 0.35065 0.0
C1286 C 0.2306 0.14311 0.35832 0.0
C1287 C 0.24979 0.16392 0.35227 0.0
C1288 C 0.23839 0.19251 0.34833 0.0
C1289 C 0.20719 0.19947 0.35026 0.0
C1290 C 0.1881 0.17875 0.3564 0.0
H1291 H 0.1645 0.07028 0.3478 0.0
H1292 H 0.17441 0.10948 0.34399 0.0
H1293 H 0.20289 0.08436 0.35036 0.0
H1294 H 0.24005 0.12157 0.36157 0.0
H1295 H 0.27373 0.15793 0.35096 0.0
H1296 H 0.93816 0.97209 0.38101 0.0
H1297 H 0.89767 0.00417 0.3717 0.0
H1298 H 0.90638 0.06926 0.40117 0.0
H1299 H 0.94697 0.03792 0.41022 0.0
H1300 H 0.8394 0.02811 0.38165 0.0
H1301 H 0.92354 0.11936 0.3699 0.0
H1302 H 0.9351 0.08095 0.37412 0.0
H1303 H 0.92399 0.10813 0.38566 0.0
C1304 C 0.9311 0.99313 0.38548 0.0
C1305 C 0.94499 0.00227 0.39645 0.0
C1306 C 0.90801 0.01131 0.38023 0.0
C1307 C 0.89917 0.0391 0.38575 0.0
C1308 C 0.91298 0.04801 0.39674 0.0
H1309 H 0.74612 0.16334 0.36938 0.0
H1310 H 0.77857 0.12299 0.37844 0.0
C1311 C 0.93595 0.02997 0.40194 0.0
C1312 C 0.87694 0.05996 0.37976 0.0
H1313 H 0.87093 0.13187 0.36765 0.0
C1314 C 0.84621 0.05072 0.37847 0.0
C1315 C 0.88602 0.08934 0.3756 0.0
C1316 C 0.91901 0.10001 0.37627 0.0
C1317 C 0.82415 0.07037 0.37323 0.0
C1318 C 0.8331 0.10014 0.36935 0.0
C1319 C 0.86395 0.10911 0.37061 0.0
C1320 C 0.81149 0.12235 0.3636 0.0
C1321 C 0.79169 0.05884 0.37176 0.0
C1322 C 0.81946 0.13594 0.35242 0.0
C1323 C 0.8015 0.15933 0.34748 0.0
C1324 C 0.77455 0.16902 0.35335 0.0
C1325 C 0.76636 0.15556 0.36452 0.0
C1326 C 0.78472 0.13235 0.36962 0.0
H1327 H 0.79081 0.03332 0.37155 0.0
H1328 H 0.77772 0.06674 0.37963 0.0
H1329 H 0.7811 0.06784 0.3633 0.0
H1330 H 0.84012 0.12895 0.34764 0.0
H1331 H 0.80908 0.17032 0.33914 0.0
H1332 H 0.59742 0.0424 0.09087 0.0
H1333 H 0.63717 0.0727 0.10086 0.0
H1334 H 0.65898 0.99536 0.12404 0.0
H1335 H 0.61653 0.96628 0.11485 0.0
H1336 H 0.65914 0.0402 0.13727 0.0
H1337 H 0.72472 0.0799 0.09743 0.0
H1338 H 0.68606 0.09353 0.09596 0.0
H1339 H 0.69378 0.05279 0.09601 0.0
C1340 C 0.61107 0.0318 0.09799 0.0
C1341 C 0.60438 0.00191 0.102 0.0
C1342 C 0.63413 0.04903 0.10363 0.0
C1343 C 0.65204 0.03629 0.11304 0.0
C1344 C 0.64574 0.00592 0.1168 0.0
H1345 H 0.80396 0.15338 0.13788 0.0
H1346 H 0.7749 0.11055 0.12898 0.0
C1347 C 0.62167 0.98915 0.11151 0.0
C1348 C 0.6752 0.05551 0.11967 0.0
H1349 H 0.73021 0.11065 0.11571 0.0
C1350 C 0.67513 0.05506 0.13249 0.0
C1351 C 0.69649 0.07499 0.11363 0.0
C1352 C 0.70047 0.07509 0.09999 0.0
C1353 C 0.69497 0.07376 0.13936 0.0
C1354 C 0.71464 0.09486 0.13331 0.0
C1355 C 0.71521 0.09479 0.12049 0.0
C1356 C 0.73394 0.11801 0.13991 0.0
C1357 C 0.69472 0.06997 0.15301 0.0
C1358 C 0.72123 0.13627 0.14922 0.0
C1359 C 0.73845 0.15961 0.15469 0.0
C1360 C 0.76831 0.16615 0.15063 0.0
C1361 C 0.7811 0.14838 0.14126 0.0
C1362 C 0.76435 0.12408 0.13614 0.0
H1363 H 0.68955 0.04583 0.15561 0.0
H1364 H 0.7171 0.07639 0.15699 0.0
H1365 H 0.67648 0.0847 0.15699 0.0
H1366 H 0.69756 0.13336 0.152 0.0
H1367 H 0.72784 0.17362 0.1617 0.0
H1368 H 0.73297 0.83051 0.83769 0.0
H1369 H 0.70176 0.87192 0.84606 0.0
H1370 H 0.76249 0.87781 0.87711 0.0
H1371 H 0.79511 0.83742 0.86819 0.0
H1372 H 0.6705 0.86859 0.86597 0.0
H1373 H 0.74994 0.96753 0.87027 0.0
H1374 H 0.75999 0.93319 0.86196 0.0
H1375 H 0.76324 0.93411 0.8783 0.0
C1376 C 0.74036 0.84152 0.84605 0.0
C1377 C 0.76711 0.83177 0.85205 0.0
C1378 C 0.7223 0.86494 0.85092 0.0
C1379 C 0.72996 0.87847 0.86213 0.0
C1380 C 0.75658 0.86848 0.86826 0.0
H1381 H 0.59385 0.96037 0.9091 0.0
H1382 H 0.63422 0.92934 0.89971 0.0
C1383 C 0.77504 0.84525 0.86324 0.0
C1384 C 0.70813 0.90049 0.86785 0.0
H1385 H 0.70135 0.97209 0.88049 0.0
C1386 C 0.67731 0.89131 0.86904 0.0
C1387 C 0.71687 0.93021 0.87185 0.0
C1388 C 0.74926 0.94199 0.87043 0.0
C1389 C 0.65511 0.91078 0.87412 0.0
C1390 C 0.66402 0.94005 0.87845 0.0
C1391 C 0.69468 0.94954 0.87719 0.0
C1392 C 0.64169 0.96051 0.88462 0.0
C1393 C 0.62218 0.89989 0.87469 0.0
C1394 C 0.63305 0.98873 0.87939 0.0
C1395 C 0.61009 0.0067 0.88485 0.0
C1396 C 0.59616 0.99693 0.89572 0.0
C1397 C 0.60493 0.96877 0.9009 0.0
C1398 C 0.62775 0.95092 0.89549 0.0
H1399 H 0.61775 0.88096 0.86812 0.0
H1400 H 0.61728 0.89109 0.88399 0.0
H1401 H 0.60596 0.91899 0.87275 0.0
H1402 H 0.64349 0.99641 0.87096 0.0
H1403 H 0.60323 0.02812 0.88061 0.0
H1404 H 0.80786 0.83148 0.66251 0.0
H1405 H 0.83843 0.8729 0.65379 0.0
H1406 H 0.77677 0.87722 0.62299 0.0
H1407 H 0.7448 0.83681 0.63226 0.0
H1408 H 0.86904 0.86895 0.63365 0.0
H1409 H 0.7888 0.96734 0.62938 0.0
H1410 H 0.77931 0.93319 0.63792 0.0
H1411 H 0.77559 0.93353 0.6216 0.0
C1412 C 0.80012 0.84216 0.65413 0.0
C1413 C 0.77331 0.83196 0.64831 0.0
C1414 C 0.81782 0.86557 0.64906 0.0
C1415 C 0.80972 0.87865 0.63781 0.0
C1416 C 0.78302 0.86823 0.63186 0.0
H1417 H 0.94611 0.962 0.59103 0.0
H1418 H 0.90506 0.93081 0.59987 0.0
C1419 C 0.76493 0.845 0.63708 0.0
C1420 C 0.8312 0.90064 0.63188 0.0
H1421 H 0.83729 0.97223 0.61918 0.0
C1422 C 0.86203 0.8916 0.63058 0.0
C1423 C 0.82217 0.93025 0.62786 0.0
C1424 C 0.78972 0.94181 0.62936 0.0
C1425 C 0.88402 0.9112 0.62544 0.0
C1426 C 0.87487 0.94044 0.62115 0.0
C1427 C 0.84414 0.94971 0.62245 0.0
C1428 C 0.89713 0.96127 0.61516 0.0
C1429 C 0.91702 0.90052 0.6248 0.0
C1430 C 0.90566 0.98919 0.62064 0.0
C1431 C 0.92896 0.00727 0.61549 0.0
C1432 C 0.94338 0.99792 0.60467 0.0
C1433 C 0.93463 0.97012 0.59918 0.0
C1434 C 0.91142 0.95217 0.60428 0.0
H1435 H 0.92159 0.88135 0.63125 0.0
H1436 H 0.92199 0.89214 0.61545 0.0
H1437 H 0.93311 0.91964 0.62687 0.0
H1438 H 0.89498 0.99647 0.62909 0.0
H1439 H 0.93581 0.02838 0.61997 0.0
H1440 H 0.77343 0.33871 0.14847 0.0
H1441 H 0.73967 0.37536 0.13805 0.0
H1442 H 0.66338 0.31304 0.14227 0.0
H1443 H 0.69689 0.2763 0.15279 0.0
H1444 H 0.67767 0.3378 0.11697 0.0
H1445 H 0.66548 0.42702 0.15307 0.0
H1446 H 0.70347 0.41243 0.15006 0.0
H1447 H 0.67498 0.38753 0.15654 0.0
C1448 C 0.74938 0.33295 0.14732 0.0
C1449 C 0.73781 0.30462 0.15147 0.0
C1450 C 0.73015 0.35393 0.14138 0.0
C1451 C 0.69907 0.3469 0.13945 0.0
C1452 C 0.68732 0.31887 0.14372 0.0
H1453 H 0.54783 0.42767 0.09949 0.0
H1454 H 0.58421 0.39335 0.10957 0.0
C1455 C 0.70646 0.29798 0.14976 0.0
C1456 C 0.67918 0.36815 0.13245 0.0
H1457 H 0.64277 0.43753 0.134 0.0
C1458 C 0.66996 0.35961 0.12067 0.0
C1459 C 0.66955 0.39666 0.13728 0.0
C1460 C 0.67864 0.40659 0.14996 0.0
C1461 C 0.65141 0.37897 0.11354 0.0
C1462 C 0.64111 0.40725 0.11846 0.0
C1463 C 0.65065 0.41588 0.13022 0.0
C1464 C 0.61969 0.42782 0.11175 0.0
C1465 C 0.64358 0.36915 0.10071 0.0
C1466 C 0.62721 0.45884 0.1098 0.0
C1467 C 0.60622 0.47869 0.10416 0.0
C1468 C 0.5773 0.46785 0.10038 0.0
C1469 C 0.57004 0.43668 0.10217 0.0
C1470 C 0.59091 0.41695 0.10788 0.0
H1471 H 0.66082 0.3527 0.09705 0.0
H1472 H 0.62094 0.35741 0.10073 0.0
H1473 H 0.64224 0.3892 0.09446 0.0
H1474 H 0.64922 0.46779 0.11276 0.0
H1475 H 0.61245 0.5026 0.10296 0.0
H1476 H 0.84259 0.27833 0.34901 0.0
H1477 H 0.87553 0.31485 0.35981 0.0
H1478 H 0.79898 0.37719 0.36354 0.0
H1479 H 0.76567 0.3404 0.35305 0.0
H1480 H 0.89233 0.37367 0.35538 0.0
H1481 H 0.82608 0.36805 0.39858 0.0
H1482 H 0.81975 0.34158 0.38617 0.0
H1483 H 0.80346 0.37958 0.38569 0.0
C1484 C 0.83281 0.29992 0.35205 0.0
C1485 C 0.80146 0.30637 0.35027 0.0
C1486 C 0.85165 0.32075 0.35824 0.0
C1487 C 0.83955 0.34843 0.36275 0.0
C1488 C 0.80861 0.35558 0.36047 0.0
H1489 H 0.92806 0.50311 0.39909 0.0
H1490 H 0.89161 0.46927 0.38855 0.0
C1491 C 0.78967 0.33465 0.35436 0.0
C1492 C 0.85933 0.36958 0.36993 0.0
H1493 H 0.86623 0.40495 0.39766 0.0
C1494 C 0.88663 0.38045 0.36462 0.0
C1495 C 0.85195 0.37831 0.38204 0.0
C1496 C 0.82388 0.36607 0.38852 0.0
C1497 C 0.90657 0.39997 0.37105 0.0
C1498 C 0.89905 0.40877 0.38309 0.0
C1499 C 0.87175 0.39817 0.3884 0.0
C1500 C 0.91976 0.42856 0.39034 0.0
C1501 C 0.93555 0.41121 0.36495 0.0
C1502 C 0.94716 0.41656 0.39509 0.0
C1503 C 0.96788 0.4357 0.40119 0.0
C1504 C 0.96159 0.46723 0.40257 0.0
C1505 C 0.93356 0.47894 0.39817 0.0
C1506 C 0.91274 0.45969 0.39214 0.0
H1507 H 0.93593 0.40583 0.35505 0.0
H1508 H 0.93797 0.43645 0.36616 0.0
H1509 H 0.95575 0.40011 0.3693 0.0
H1510 H 0.95281 0.3925 0.39383 0.0
H1511 H 0.98927 0.42596 0.40445 0.0
H1512 H 0.99661 0.5759 0.59921 0.0
H1513 H 0.96055 0.61009 0.60976 0.0
H1514 H 0.89725 0.53476 0.61436 0.0
H1515 H 0.93321 0.5003 0.60391 0.0
H1516 H 0.87296 0.59744 0.60513 0.0
H1517 H 0.94124 0.59991 0.64808 0.0
H1518 H 0.9615 0.60564 0.63393 0.0
H1519 H 0.94445 0.56899 0.63714 0.0
C1520 C 0.97489 0.56666 0.60236 0.0
C1521 C 0.96779 0.53537 0.60076 0.0
C1522 C 0.95441 0.58619 0.60842 0.0
C1523 C 0.92646 0.5748 0.61292 0.0
C1524 C 0.91881 0.54388 0.61098 0.0
H1525 H 0.76918 0.66057 0.6488 0.0
H1526 H 0.80398 0.62461 0.63859 0.0
C1527 C 0.93937 0.52427 0.60501 0.0
C1528 C 0.90545 0.59503 0.61987 0.0
H1529 H 0.89704 0.6312 0.64729 0.0
C1530 C 0.87808 0.60481 0.61436 0.0
C1531 C 0.91242 0.6046 0.63186 0.0
C1532 C 0.94139 0.5942 0.6382 0.0
C1533 C 0.85762 0.62448 0.62048 0.0
C1534 C 0.86437 0.63384 0.63257 0.0
C1535 C 0.89181 0.62393 0.63806 0.0
C1536 C 0.84367 0.65454 0.63956 0.0
C1537 C 0.82949 0.63577 0.61378 0.0
C1538 C 0.85475 0.68263 0.64408 0.0
C1539 C 0.83505 0.70298 0.65011 0.0
C1540 C 0.80384 0.69564 0.65172 0.0
C1541 C 0.79304 0.66699 0.64761 0.0
C1542 C 0.81285 0.64653 0.64167 0.0
H1543 H 0.8322 0.63367 0.60374 0.0
H1544 H 0.80937 0.62168 0.61651 0.0
H1545 H 0.82452 0.66016 0.61602 0.0
H1546 H 0.8785 0.6892 0.64264 0.0
H1547 H 0.84409 0.72487 0.65316 0.0
H1548 H 0.69802 0.7234 0.84785 0.0
H1549 H 0.66434 0.68756 0.85866 0.0
H1550 H 0.73994 0.62426 0.86286 0.0
H1551 H 0.77398 0.66038 0.85236 0.0
H1552 H 0.64673 0.62894 0.85441 0.0
H1553 H 0.71228 0.63443 0.89776 0.0
H1554 H 0.71923 0.66056 0.88528 0.0
H1555 H 0.73508 0.62234 0.88499 0.0
C1556 C 0.70744 0.70174 0.85099 0.0
C1557 C 0.73873 0.69483 0.84934 0.0
C1558 C 0.68816 0.6813 0.85719 0.0
C1559 C 0.69978 0.65355 0.86184 0.0
C1560 C 0.73067 0.64593 0.85968 0.0
H1561 H 0.61219 0.49944 0.89848 0.0
H1562 H 0.64804 0.53382 0.88792 0.0
C1563 C 0.75004 0.66648 0.85357 0.0
C1564 C 0.67958 0.63281 0.86903 0.0
H1565 H 0.67208 0.59754 0.89675 0.0
C1566 C 0.65224 0.62217 0.86368 0.0
C1567 C 0.6867 0.62411 0.88116 0.0
C1568 C 0.71475 0.63617 0.8877 0.0
C1569 C 0.63208 0.60279 0.87007 0.0
C1570 C 0.63941 0.59391 0.88212 0.0
C1571 C 0.66669 0.60438 0.88748 0.0
C1572 C 0.61875 0.57382 0.88929 0.0
C1573 C 0.60318 0.59163 0.8639 0.0
C1574 C 0.59085 0.58525 0.89381 0.0
C1575 C 0.57045 0.56579 0.89994 0.0
C1576 C 0.57757 0.53452 0.90157 0.0
C1577 C 0.60603 0.5234 0.89736 0.0
C1578 C 0.62651 0.54296 0.89131 0.0
H1579 H 0.60305 0.5969 0.85398 0.0
H1580 H 0.60057 0.56642 0.86514 0.0
H1581 H 0.58295 0.60291 0.86815 0.0
H1582 H 0.58462 0.60911 0.8924 0.0
H1583 H 0.54871 0.57505 0.90305 0.0
H1584 H 0.44144 0.53906 0.91221 0.0
H1585 H 0.40018 0.56969 0.90338 0.0
H1586 H 0.39644 0.50815 0.87254 0.0
H1587 H 0.43674 0.47617 0.88188 0.0
H1588 H 0.40431 0.6004 0.88319 0.0
H1589 H 0.30612 0.51995 0.87883 0.0
H1590 H 0.33998 0.51086 0.8876 0.0
H1591 H 0.34027 0.50659 0.87131 0.0
C1592 C 0.43095 0.53138 0.90379 0.0
C1593 C 0.44129 0.5046 0.89796 0.0
C1594 C 0.40762 0.54911 0.89866 0.0
C1595 C 0.39473 0.54104 0.88737 0.0
C1596 C 0.40528 0.51437 0.88143 0.0
H1597 H 0.31165 0.67658 0.84012 0.0
H1598 H 0.34302 0.63606 0.84925 0.0
C1599 C 0.42846 0.49628 0.88669 0.0
C1600 C 0.37274 0.56248 0.88141 0.0
H1601 H 0.30127 0.56832 0.86859 0.0
C1602 C 0.38172 0.59332 0.88009 0.0
C1603 C 0.34318 0.55337 0.87737 0.0
C1604 C 0.33164 0.52094 0.87894 0.0
C1605 C 0.36214 0.61523 0.87486 0.0
C1606 C 0.33298 0.60598 0.87053 0.0
C1607 C 0.32374 0.57525 0.87188 0.0
C1608 C 0.31219 0.62809 0.86441 0.0
C1609 C 0.37276 0.64824 0.87418 0.0
C1610 C 0.284 0.63643 0.86973 0.0
C1611 C 0.26583 0.65943 0.86442 0.0
C1612 C 0.27535 0.67374 0.85359 0.0
C1613 C 0.30342 0.66519 0.84828 0.0
C1614 C 0.32147 0.64229 0.85354 0.0
H1615 H 0.39173 0.65294 0.88071 0.0
H1616 H 0.38138 0.65307 0.86485 0.0
H1617 H 0.35355 0.66433 0.87613 0.0
H1618 H 0.27655 0.6258 0.87816 0.0
H1619 H 0.24449 0.66613 0.86876 0.0
H1620 H 0.09903 0.54323 0.59067 0.0
H1621 H 0.13925 0.57321 0.60051 0.0
H1622 H 0.16002 0.49618 0.624 0.0
H1623 H 0.11722 0.46744 0.61492 0.0
H1624 H 0.15979 0.54132 0.63709 0.0
H1625 H 0.22706 0.57985 0.5975 0.0
H1626 H 0.18842 0.59329 0.59573 0.0
H1627 H 0.19628 0.55257 0.59602 0.0
C1628 C 0.11261 0.5326 0.5978 0.0
C1629 C 0.1055 0.50293 0.60194 0.0
C1630 C 0.13592 0.54965 0.60336 0.0
C1631 C 0.15357 0.53693 0.61286 0.0
C1632 C 0.14696 0.50671 0.61671 0.0
H1633 H 0.30502 0.65389 0.63807 0.0
H1634 H 0.27612 0.61096 0.62919 0.0
C1635 C 0.12268 0.49014 0.61148 0.0
C1636 C 0.17663 0.55611 0.61955 0.0
H1637 H 0.23203 0.61088 0.61571 0.0
C1638 C 0.17605 0.55597 0.63236 0.0
C1639 C 0.19824 0.57533 0.61356 0.0
C1640 C 0.20274 0.57502 0.59994 0.0
C1641 C 0.19571 0.57471 0.63928 0.0
C1642 C 0.21572 0.59558 0.63327 0.0
C1643 C 0.21678 0.5952 0.62046 0.0
C1644 C 0.23488 0.61877 0.63991 0.0
C1645 C 0.1949 0.57123 0.65294 0.0
C1646 C 0.22195 0.63724 0.64911 0.0
C1647 C 0.2391 0.66059 0.6546 0.0
C1648 C 0.26908 0.66695 0.65065 0.0
C1649 C 0.28207 0.649 0.64138 0.0
C1650 C 0.26541 0.62466 0.63626 0.0
H1651 H 0.1896 0.54715 0.65559 0.0
H1652 H 0.21709 0.57773 0.65707 0.0
H1653 H 0.17648 0.58605 0.65675 0.0
H1654 H 0.19818 0.63448 0.65178 0.0
H1655 H 0.22834 0.67476 0.66152 0.0
H1656 H 0.10477 0.52433 0.38223 0.0
H1657 H 0.14507 0.49248 0.37269 0.0
H1658 H 0.13589 0.42601 0.40167 0.0
H1659 H 0.09545 0.4572 0.41095 0.0
H1660 H 0.20305 0.46809 0.38235 0.0
H1661 H 0.11882 0.37732 0.3701 0.0
H1662 H 0.10728 0.41549 0.37464 0.0
H1663 H 0.11863 0.38778 0.38594 0.0
C1664 C 0.11169 0.50303 0.38655 0.0
C1665 C 0.09773 0.49347 0.39744 0.0
C1666 C 0.13468 0.48498 0.38116 0.0
C1667 C 0.14334 0.45688 0.38647 0.0
C1668 C 0.12942 0.44751 0.39739 0.0
H1669 H 0.29573 0.3332 0.36861 0.0
H1670 H 0.26356 0.37309 0.37812 0.0
C1671 C 0.10656 0.46546 0.40273 0.0
C1672 C 0.16552 0.43627 0.38031 0.0
H1673 H 0.17138 0.36515 0.36747 0.0
C1674 C 0.19621 0.44564 0.379 0.0
C1675 C 0.15639 0.40713 0.37592 0.0
C1676 C 0.12344 0.39636 0.3766 0.0
C1677 C 0.21817 0.42637 0.37348 0.0
C1678 C 0.20917 0.39685 0.36934 0.0
C1679 C 0.17837 0.38772 0.37064 0.0
C1680 C 0.23069 0.37508 0.36329 0.0
C1681 C 0.25057 0.43803 0.37197 0.0
C1682 C 0.22268 0.36248 0.35195 0.0
C1683 C 0.24052 0.33938 0.34672 0.0
C1684 C 0.26734 0.32899 0.3525 0.0
C1685 C 0.27559 0.34152 0.36383 0.0
C1686 C 0.25739 0.36447 0.3692 0.0
H1687 H 0.2515 0.46355 0.37216 0.0
H1688 H 0.2649 0.42929 0.37959 0.0
H1689 H 0.26073 0.42989 0.36329 0.0
H1690 H 0.20207 0.36996 0.34726 0.0
H1691 H 0.2329 0.3291 0.33825 0.0
H1692 H 0.42814 0.53641 0.11734 0.0
H1693 H 0.38429 0.50812 0.12595 0.0
H1694 H 0.40821 0.42934 0.10387 0.0
H1695 H 0.4496 0.45867 0.09451 0.0
H1696 H 0.35192 0.4324 0.10372 0.0
H1697 H 0.38455 0.44832 0.15219 0.0
H1698 H 0.37606 0.48389 0.1447 0.0
H1699 H 0.40871 0.46131 0.13992 0.0
C1700 C 0.42364 0.51313 0.11433 0.0
C1701 C 0.4417 0.49975 0.10517 0.0
C1702 C 0.39889 0.49677 0.11935 0.0
C1703 C 0.3931 0.46617 0.11581 0.0
C1704 C 0.41181 0.45287 0.10677 0.0
H1705 H 0.31205 0.32291 0.15737 0.0
H1706 H 0.34176 0.36449 0.14831 0.0
C1707 C 0.43561 0.46956 0.10145 0.0
C1708 C 0.36789 0.44747 0.12133 0.0
H1709 H 0.33905 0.42119 0.14833 0.0
C1710 C 0.34914 0.43002 0.11349 0.0
C1711 C 0.36412 0.4441 0.1341 0.0
C1712 C 0.38461 0.46015 0.14321 0.0
C1713 C 0.32829 0.4081 0.11796 0.0
C1714 C 0.32445 0.40481 0.13073 0.0
C1715 C 0.34182 0.42363 0.13856 0.0
C1716 C 0.30536 0.37991 0.13624 0.0
C1717 C 0.31236 0.38745 0.10887 0.0
C1718 C 0.27482 0.37435 0.13255 0.0
C1719 C 0.25824 0.34956 0.13742 0.0
C1720 C 0.27131 0.33119 0.14655 0.0
C1721 C 0.30139 0.33714 0.15045 0.0
C1722 C 0.3183 0.36104 0.1453 0.0
H1723 H 0.32443 0.38717 0.09993 0.0
H1724 H 0.31096 0.36344 0.11226 0.0
H1725 H 0.28872 0.39609 0.10724 0.0
H1726 H 0.26376 0.38909 0.12593 0.0
H1727 H 0.23505 0.34518 0.13427 0.0
loop_
_geom_bond_atom_site_label_1
_geom_bond_atom_site_label_2
_geom_bond_distance
_geom_bond_site_symmetry_2
_ccdc_geom_bond_type
Mn0 O5 2.095 . S
Mn0 O15 2.162 . S
Mn0 O16 2.297 1_545 S
Mn0 O24 2.385 1_455 S
Mn0 O25 2.209 1_455 S
Mn0 O26 2.094 . S
Mn1 O6 2.121 . S
Mn1 N8 2.257 . S
Mn1 N17 2.282 . S
Mn1 O25 2.215 . S
Mn1 O27 2.117 . S
C2 O24 1.234 . S
C2 O25 1.283 . S
C3 O15 1.281 1_565 S
C3 O16 1.236 . S
C4 O26 1.240 . S
C4 O27 1.264 1_455 S
O5 Mn0 2.095 . S
O5 C14 1.250 . S
O6 Mn1 2.121 . S
O6 C14 1.258 1_655 S
C7 N8 1.326 1_565 S
C7 C11 1.460 . S
C7 H13 0.929 . S
N8 Mn1 2.257 . S
N8 C7 1.326 1_545 S
N8 C12 1.362 . S
C9 C10 1.258 1_545 S
C9 C12 1.431 . S
C9 C29 1.449 . S
C10 C9 1.258 1_565 S
C10 C11 1.477 . S
C10 H30 0.931 . S
C11 C7 1.460 . S
C11 C10 1.477 . S
C11 H31 0.930 . S
C12 N8 1.362 . S
C12 C9 1.431 . S
C12 C22 1.476 . S
H13 C7 0.929 . S
C14 O5 1.250 . S
C14 O6 1.258 1_455 S
O15 Mn0 2.162 . S
O15 C3 1.281 1_545 S
O16 Mn0 2.297 1_565 S
O16 C3 1.236 . S
N17 Mn1 2.282 . S
N17 C18 1.328 . S
N17 C22 1.318 . S
C18 N17 1.328 . S
C18 C19 1.457 . S
C18 H23 0.929 . S
C19 C18 1.457 . S
C19 C20 1.291 . S
C19 H32 0.931 . S
C20 C19 1.291 . S
C20 C21 1.373 . S
C20 H33 0.929 . S
C21 C20 1.373 . S
C21 C22 1.396 . S
C21 C28 1.403 . S
C22 C12 1.476 . S
C22 N17 1.318 . S
C22 C21 1.396 . S
H23 C18 0.929 . S
O24 Mn0 2.385 1_655 S
O24 C2 1.234 . S
O25 Mn0 2.209 1_655 S
O25 Mn1 2.215 . S
O25 C2 1.283 . S
O26 Mn0 2.094 . S
O26 C4 1.240 . S
O27 Mn1 2.117 . S
O27 C4 1.264 1_655 S
C28 C21 1.403 . S
C28 C29 1.399 . S
C28 H34 0.929 . S
C29 C9 1.449 . S
C29 C28 1.399 . S
C29 H35 0.930 1_545 S
H30 C10 0.931 . S
H31 C11 0.930 . S
H32 C19 0.931 . S
H33 C20 0.929 . S
H34 C28 0.929 . S
H35 C29 0.930 1_565 S
Mn36 O41 2.095 . S
Mn36 O51 2.162 . S
Mn36 O52 2.297 . S
Mn36 O60 2.385 . S
Mn36 O61 2.209 . S
Mn36 O62 2.094 . S
Mn37 O42 2.121 . S
Mn37 N44 2.257 . S
Mn37 N53 2.282 . S
Mn37 O61 2.215 . S
Mn37 O63 2.117 . S
C38 O60 1.234 . S
C38 O61 1.283 . S
C39 O51 1.281 . S
C39 O52 1.236 . S
C40 O62 1.240 . S
C40 O63 1.264 . S
O41 Mn36 2.095 . S
O41 C50 1.250 . S
O42 Mn37 2.121 . S
O42 C50 1.258 . S
C43 N44 1.326 . S
C43 C47 1.460 . S
C43 H49 0.929 . S
N44 Mn37 2.257 . S
N44 C43 1.326 . S
N44 C48 1.362 . S
C45 C46 1.258 . S
C45 C48 1.431 . S
C45 C65 1.449 . S
C46 C45 1.258 . S
C46 C47 1.477 . S
C46 H66 0.931 . S
C47 C43 1.460 . S
C47 C46 1.477 . S
C47 H67 0.930 . S
C48 N44 1.362 . S
C48 C45 1.431 . S
C48 C58 1.476 . S
H49 C43 0.929 . S
C50 O41 1.250 . S
C50 O42 1.258 . S
O51 Mn36 2.162 . S
O51 C39 1.281 . S
O52 Mn36 2.297 . S
O52 C39 1.236 . S
N53 Mn37 2.282 . S
N53 C54 1.328 . S
N53 C58 1.318 . S
C54 N53 1.328 . S
C54 C55 1.457 . S
C54 H59 0.929 . S
C55 C54 1.457 . S
C55 C56 1.291 . S
C55 H68 0.931 . S
C56 C55 1.291 . S
C56 C57 1.373 . S
C56 H69 0.929 . S
C57 C56 1.373 . S
C57 C58 1.396 . S
C57 C64 1.403 . S
C58 C48 1.476 . S
C58 N53 1.318 . S
C58 C57 1.396 . S
H59 C54 0.929 . S
O60 Mn36 2.385 . S
O60 C38 1.234 . S
O61 Mn36 2.209 . S
O61 Mn37 2.215 . S
O61 C38 1.283 . S
O62 Mn36 2.094 . S
O62 C40 1.240 . S
O63 Mn37 2.117 . S
O63 C40 1.264 . S
C64 C57 1.403 . S
C64 C65 1.399 . S
C64 H70 0.929 . S
C65 C45 1.449 . S
C65 C64 1.399 . S
C65 H71 0.930 . S
H66 C46 0.931 . S
H67 C47 0.930 . S
H68 C55 0.931 . S
H69 C56 0.929 . S
H70 C64 0.929 . S
H71 C65 0.930 . S
Mn72 O77 2.095 . S
Mn72 O87 2.162 . S
Mn72 O88 2.297 1_565 S
Mn72 O96 2.385 . S
Mn72 O97 2.209 . S
Mn72 O98 2.094 . S
Mn73 O78 2.121 . S
Mn73 N80 2.257 . S
Mn73 N89 2.282 . S
Mn73 O97 2.215 . S
Mn73 O99 2.117 . S
C74 O96 1.234 . S
C74 O97 1.283 . S
C75 O87 1.281 1_545 S
C75 O88 1.236 . S
C76 O98 1.240 . S
C76 O99 1.264 . S
O77 Mn72 2.095 . S
O77 C86 1.250 . S
O78 Mn73 2.121 . S
O78 C86 1.258 . S
C79 N80 1.326 1_545 S
C79 C83 1.460 . S
C79 H85 0.929 . S
N80 Mn73 2.257 . S
N80 C79 1.326 1_565 S
N80 C84 1.362 . S
C81 C82 1.258 1_565 S
C81 C84 1.431 . S
C81 C101 1.449 . S
C82 C81 1.258 1_545 S
C82 C83 1.477 . S
C82 H102 0.931 . S
C83 C79 1.460 . S
C83 C82 1.477 . S
C83 H103 0.930 . S
C84 N80 1.362 . S
C84 C81 1.431 . S
C84 C94 1.476 . S
H85 C79 0.929 . S
C86 O77 1.250 . S
C86 O78 1.258 . S
O87 Mn72 2.162 . S
O87 C75 1.281 1_565 S
O88 Mn72 2.297 1_545 S
O88 C75 1.236 . S
N89 Mn73 2.282 . S
N89 C90 1.328 . S
N89 C94 1.318 . S
C90 N89 1.328 . S
C90 C91 1.457 . S
C90 H95 0.929 . S
C91 C90 1.457 . S
C91 C92 1.291 . S
C91 H104 0.931 . S
C92 C91 1.291 . S
C92 C93 1.373 . S
C92 H105 0.929 . S
C93 C92 1.373 . S
C93 C94 1.396 . S
C93 C100 1.403 . S
C94 C84 1.476 . S
C94 N89 1.318 . S
C94 C93 1.396 . S
H95 C90 0.929 . S
O96 Mn72 2.385 . S
O96 C74 1.234 . S
O97 Mn72 2.209 . S
O97 Mn73 2.215 . S
O97 C74 1.283 . S
O98 Mn72 2.094 . S
O98 C76 1.240 . S
O99 Mn73 2.117 . S
O99 C76 1.264 . S
C100 C93 1.403 . S
C100 C101 1.399 . S
C100 H106 0.929 . S
C101 C81 1.449 . S
C101 C100 1.399 . S
C101 H107 0.930 1_565 S
H102 C82 0.931 . S
H103 C83 0.930 . S
H104 C91 0.931 . S
H105 C92 0.929 . S
H106 C100 0.929 . S
H107 C101 0.930 1_545 S
Mn108 O113 2.095 . S
Mn108 O123 2.162 . S
Mn108 O124 2.297 . S
Mn108 O132 2.385 . S
Mn108 O133 2.209 . S
Mn108 O134 2.094 . S
Mn109 O114 2.121 . S
Mn109 N116 2.257 . S
Mn109 N125 2.282 . S
Mn109 O133 2.215 . S
Mn109 O135 2.117 . S
C110 O132 1.234 . S
C110 O133 1.283 . S
C111 O123 1.281 . S
C111 O124 1.236 . S
C112 O134 1.240 . S
C112 O135 1.264 . S
O113 Mn108 2.095 . S
O113 C122 1.250 . S
O114 Mn109 2.121 . S
O114 C122 1.258 . S
C115 N116 1.326 . S
C115 C119 1.460 . S
C115 H121 0.929 . S
N116 Mn109 2.257 . S
N116 C115 1.326 . S
N116 C120 1.362 . S
C117 C118 1.258 . S
C117 C120 1.431 . S
C117 C137 1.449 . S
C118 C117 1.258 . S
C118 C119 1.477 . S
C118 H138 0.931 . S
C119 C115 1.460 . S
C119 C118 1.477 . S
C119 H139 0.930 . S
C120 N116 1.362 . S
C120 C117 1.431 . S
C120 C130 1.476 . S
H121 C115 0.929 . S
C122 O113 1.250 . S
C122 O114 1.258 . S
O123 Mn108 2.162 . S
O123 C111 1.281 . S
O124 Mn108 2.297 . S
O124 C111 1.236 . S
N125 Mn109 2.282 . S
N125 C126 1.328 . S
N125 C130 1.318 . S
C126 N125 1.328 . S
C126 C127 1.457 . S
C126 H131 0.929 . S
C127 C126 1.457 . S
C127 C128 1.291 . S
C127 H140 0.931 . S
C128 C127 1.291 . S
C128 C129 1.373 . S
C128 H141 0.929 . S
C129 C128 1.373 . S
C129 C130 1.396 . S
C129 C136 1.403 . S
C130 C120 1.476 . S
C130 N125 1.318 . S
C130 C129 1.396 . S
H131 C126 0.929 . S
O132 Mn108 2.385 . S
O132 C110 1.234 . S
O133 Mn108 2.209 . S
O133 Mn109 2.215 . S
O133 C110 1.283 . S
O134 Mn108 2.094 . S
O134 C112 1.240 . S
O135 Mn109 2.117 . S
O135 C112 1.264 . S
C136 C129 1.403 . S
C136 C137 1.399 . S
C136 H142 0.929 . S
C137 C117 1.449 . S
C137 C136 1.399 . S
C137 H143 0.930 . S
H138 C118 0.931 . S
H139 C119 0.930 . S
H140 C127 0.931 . S
H141 C128 0.929 . S
H142 C136 0.929 . S
H143 C137 0.930 . S
Mn144 O149 2.095 . S
Mn144 O159 2.162 . S
Mn144 O160 2.297 1_565 S
Mn144 O168 2.385 1_455 S
Mn144 O169 2.209 1_455 S
Mn144 O170 2.094 . S
Mn145 O150 2.121 . S
Mn145 N152 2.257 . S
Mn145 N161 2.282 . S
Mn145 O169 2.215 . S
Mn145 O171 2.117 . S
C146 O168 1.234 . S
C146 O169 1.283 . S
C147 O159 1.281 1_545 S
C147 O160 1.236 . S
C148 O170 1.240 . S
C148 O171 1.264 1_455 S
O149 Mn144 2.095 . S
O149 C158 1.250 . S
O150 Mn145 2.121 . S
O150 C158 1.258 1_655 S
C151 N152 1.326 1_545 S
C151 C155 1.460 . S
C151 H157 0.929 . S
N152 Mn145 2.257 . S
N152 C151 1.326 1_565 S
N152 C156 1.362 . S
C153 C154 1.258 1_565 S
C153 C156 1.431 . S
C153 C173 1.449 . S
C154 C153 1.258 1_545 S
C154 C155 1.477 . S
C154 H174 0.931 . S
C155 C151 1.460 . S
C155 C154 1.477 . S
C155 H175 0.930 . S
C156 N152 1.362 . S
C156 C153 1.431 . S
C156 C166 1.476 . S
H157 C151 0.929 . S
C158 O149 1.250 . S
C158 O150 1.258 1_455 S
O159 Mn144 2.162 . S
O159 C147 1.281 1_565 S
O160 Mn144 2.297 1_545 S
O160 C147 1.236 . S
N161 Mn145 2.282 . S
N161 C162 1.328 . S
N161 C166 1.318 . S
C162 N161 1.328 . S
C162 C163 1.457 . S
C162 H167 0.929 . S
C163 C162 1.457 . S
C163 C164 1.291 . S
C163 H176 0.931 . S
C164 C163 1.291 . S
C164 C165 1.373 . S
C164 H177 0.929 . S
C165 C164 1.373 . S
C165 C166 1.396 . S
C165 C172 1.403 . S
C166 C156 1.476 . S
C166 N161 1.318 . S
C166 C165 1.396 . S
H167 C162 0.929 . S
O168 Mn144 2.385 1_655 S
O168 C146 1.234 . S
O169 Mn144 2.209 1_655 S
O169 Mn145 2.215 . S
O169 C146 1.283 . S
O170 Mn144 2.094 . S
O170 C148 1.240 . S
O171 Mn145 2.117 . S
O171 C148 1.264 1_655 S
C172 C165 1.403 . S
C172 C173 1.399 . S
C172 H178 0.929 . S
C173 C153 1.449 . S
C173 C172 1.399 . S
C173 H179 0.930 1_565 S
H174 C154 0.931 . S
H175 C155 0.930 . S
H176 C163 0.931 . S
H177 C164 0.929 . S
H178 C172 0.929 . S
H179 C173 0.930 1_545 S
Mn180 O185 2.095 . S
Mn180 O195 2.162 . S
Mn180 O196 2.297 . S
Mn180 O204 2.385 . S
Mn180 O205 2.209 . S
Mn180 O206 2.094 . S
Mn181 O186 2.121 . S
Mn181 N188 2.257 . S
Mn181 N197 2.282 . S
Mn181 O205 2.215 . S
Mn181 O207 2.117 . S
C182 O204 1.234 . S
C182 O205 1.283 . S
C183 O195 1.281 . S
C183 O196 1.236 . S
C184 O206 1.240 . S
C184 O207 1.264 . S
O185 Mn180 2.095 . S
O185 C194 1.250 . S
O186 Mn181 2.121 . S
O186 C194 1.258 . S
C187 N188 1.326 . S
C187 C191 1.460 . S
C187 H193 0.929 . S
N188 Mn181 2.257 . S
N188 C187 1.326 . S
N188 C192 1.362 . S
C189 C190 1.258 . S
C189 C192 1.431 . S
C189 C209 1.449 . S
C190 C189 1.258 . S
C190 C191 1.477 . S
C190 H210 0.931 . S
C191 C187 1.460 . S
C191 C190 1.477 . S
C191 H211 0.930 . S
C192 N188 1.362 . S
C192 C189 1.431 . S
C192 C202 1.476 . S
H193 C187 0.929 . S
C194 O185 1.250 . S
C194 O186 1.258 . S
O195 Mn180 2.162 . S
O195 C183 1.281 . S
O196 Mn180 2.297 . S
O196 C183 1.236 . S
N197 Mn181 2.282 . S
N197 C198 1.328 . S
N197 C202 1.318 . S
C198 N197 1.328 . S
C198 C199 1.457 . S
C198 H203 0.929 . S
C199 C198 1.457 . S
C199 C200 1.291 . S
C199 H212 0.931 . S
C200 C199 1.291 . S
C200 C201 1.373 . S
C200 H213 0.929 . S
C201 C200 1.373 . S
C201 C202 1.396 . S
C201 C208 1.403 . S
C202 C192 1.476 . S
C202 N197 1.318 . S
C202 C201 1.396 . S
H203 C198 0.929 . S
O204 Mn180 2.385 . S
O204 C182 1.234 . S
O205 Mn180 2.209 . S
O205 Mn181 2.215 . S
O205 C182 1.283 . S
O206 Mn180 2.094 . S
O206 C184 1.240 . S
O207 Mn181 2.117 . S
O207 C184 1.264 . S
C208 C201 1.403 . S
C208 C209 1.399 . S
C208 H214 0.929 . S
C209 C189 1.449 . S
C209 C208 1.399 . S
C209 H215 0.930 . S
H210 C190 0.931 . S
H211 C191 0.930 . S
H212 C199 0.931 . S
H213 C200 0.929 . S
H214 C208 0.929 . S
H215 C209 0.930 . S
Mn216 O221 2.095 . S
Mn216 O231 2.162 . S
Mn216 O232 2.297 1_545 S
Mn216 O240 2.385 . S
Mn216 O241 2.209 . S
Mn216 O242 2.094 . S
Mn217 O222 2.121 . S
Mn217 N224 2.257 . S
Mn217 N233 2.282 . S
Mn217 O241 2.215 . S
Mn217 O243 2.117 . S
C218 O240 1.234 . S
C218 O241 1.283 . S
C219 O231 1.281 1_565 S
C219 O232 1.236 . S
C220 O242 1.240 . S
C220 O243 1.264 . S
O221 Mn216 2.095 . S
O221 C230 1.250 . S
O222 Mn217 2.121 . S
O222 C230 1.258 . S
C223 N224 1.326 1_565 S
C223 C227 1.460 . S
C223 H229 0.929 . S
N224 Mn217 2.257 . S
N224 C223 1.326 1_545 S
N224 C228 1.362 . S
C225 C226 1.258 1_545 S
C225 C228 1.431 . S
C225 C245 1.449 . S
C226 C225 1.258 1_565 S
C226 C227 1.477 . S
C226 H246 0.931 . S
C227 C223 1.460 . S
C227 C226 1.477 . S
C227 H247 0.930 . S
C228 N224 1.362 . S
C228 C225 1.431 . S
C228 C238 1.476 . S
H229 C223 0.929 . S
C230 O221 1.250 . S
C230 O222 1.258 . S
O231 Mn216 2.162 . S
O231 C219 1.281 1_545 S
O232 Mn216 2.297 1_565 S
O232 C219 1.236 . S
N233 Mn217 2.282 . S
N233 C234 1.328 . S
N233 C238 1.318 . S
C234 N233 1.328 . S
C234 C235 1.457 . S
C234 H239 0.929 . S
C235 C234 1.457 . S
C235 C236 1.291 . S
C235 H248 0.931 . S
C236 C235 1.291 . S
C236 C237 1.373 . S
C236 H249 0.929 . S
C237 C236 1.373 . S
C237 C238 1.396 . S
C237 C244 1.403 . S
C238 C228 1.476 . S
C238 N233 1.318 . S
C238 C237 1.396 . S
H239 C234 0.929 . S
O240 Mn216 2.385 . S
O240 C218 1.234 . S
O241 Mn216 2.209 . S
O241 Mn217 2.215 . S
O241 C218 1.283 . S
O242 Mn216 2.094 . S
O242 C220 1.240 . S
O243 Mn217 2.117 . S
O243 C220 1.264 . S
C244 C237 1.403 . S
C244 C245 1.399 . S
C244 H250 0.929 . S
C245 C225 1.449 . S
C245 C244 1.399 . S
C245 H251 0.930 1_545 S
H246 C226 0.931 . S
H247 C227 0.930 . S
H248 C235 0.931 . S
H249 C236 0.929 . S
H250 C244 0.929 . S
H251 C245 0.930 1_565 S
Mn252 O257 2.095 . S
Mn252 O267 2.162 . S
Mn252 O268 2.297 . S
Mn252 O276 2.385 . S
Mn252 O277 2.209 . S
Mn252 O278 2.094 . S
Mn253 O258 2.121 . S
Mn253 N260 2.257 . S
Mn253 N269 2.282 . S
Mn253 O277 2.215 . S
Mn253 O279 2.117 . S
C254 O276 1.234 . S
C254 O277 1.283 . S
C255 O267 1.281 . S
C255 O268 1.236 . S
C256 O278 1.240 . S
C256 O279 1.264 . S
O257 Mn252 2.095 . S
O257 C266 1.250 . S
O258 Mn253 2.121 . S
O258 C266 1.258 . S
C259 N260 1.326 . S
C259 C263 1.460 . S
C259 H265 0.929 . S
N260 Mn253 2.257 . S
N260 C259 1.326 . S
N260 C264 1.362 . S
C261 C262 1.258 . S
C261 C264 1.431 . S
C261 C281 1.449 . S
C262 C261 1.258 . S
C262 C263 1.477 . S
C262 H282 0.931 . S
C263 C259 1.460 . S
C263 C262 1.477 . S
C263 H283 0.930 . S
C264 N260 1.362 . S
C264 C261 1.431 . S
C264 C274 1.476 . S
H265 C259 0.929 . S
C266 O257 1.250 . S
C266 O258 1.258 . S
O267 Mn252 2.162 . S
O267 C255 1.281 . S
O268 Mn252 2.297 . S
O268 C255 1.236 . S
N269 Mn253 2.282 . S
N269 C270 1.328 . S
N269 C274 1.318 . S
C270 N269 1.328 . S
C270 C271 1.457 . S
C270 H275 0.929 . S
C271 C270 1.457 . S
C271 C272 1.291 . S
C271 H284 0.931 . S
C272 C271 1.291 . S
C272 C273 1.373 . S
C272 H285 0.929 . S
C273 C272 1.373 . S
C273 C274 1.396 . S
C273 C280 1.403 . S
C274 C264 1.476 . S
C274 N269 1.318 . S
C274 C273 1.396 . S
H275 C270 0.929 . S
O276 Mn252 2.385 . S
O276 C254 1.234 . S
O277 Mn252 2.209 . S
O277 Mn253 2.215 . S
O277 C254 1.283 . S
O278 Mn252 2.094 . S
O278 C256 1.240 . S
O279 Mn253 2.117 . S
O279 C256 1.264 . S
C280 C273 1.403 . S
C280 C281 1.399 . S
C280 H286 0.929 . S
C281 C261 1.449 . S
C281 C280 1.399 . S
C281 H287 0.930 . S
H282 C262 0.931 . S
H283 C263 0.930 . S
H284 C271 0.931 . S
H285 C272 0.929 . S
H286 C280 0.929 . S
H287 C281 0.930 . S
Mn288 O293 2.095 . S
Mn288 O303 2.162 . S
Mn288 O304 2.297 . S
Mn288 O312 2.385 . S
Mn288 O313 2.209 . S
Mn288 O314 2.094 . S
Mn289 O294 2.121 . S
Mn289 N296 2.257 . S
Mn289 N305 2.282 . S
Mn289 O313 2.215 . S
Mn289 O315 2.117 . S
C290 O312 1.234 . S
C290 O313 1.283 . S
C291 O303 1.281 . S
C291 O304 1.236 . S
C292 O314 1.240 . S
C292 O315 1.264 . S
O293 Mn288 2.095 . S
O293 C302 1.250 . S
O294 Mn289 2.121 . S
O294 C302 1.258 . S
C295 N296 1.326 . S
C295 C299 1.460 . S
C295 H301 0.929 . S
N296 Mn289 2.257 . S
N296 C295 1.326 . S
N296 C300 1.362 . S
C297 C298 1.258 . S
C297 C300 1.431 . S
C297 C317 1.449 . S
C298 C297 1.258 . S
C298 C299 1.477 . S
C298 H318 0.931 . S
C299 C295 1.460 . S
C299 C298 1.477 . S
C299 H319 0.930 . S
C300 N296 1.362 . S
C300 C297 1.431 . S
C300 C310 1.476 . S
H301 C295 0.929 . S
C302 O293 1.250 . S
C302 O294 1.258 . S
O303 Mn288 2.162 . S
O303 C291 1.281 . S
O304 Mn288 2.297 . S
O304 C291 1.236 . S
N305 Mn289 2.282 . S
N305 C306 1.328 . S
N305 C310 1.318 . S
C306 N305 1.328 . S
C306 C307 1.457 . S
C306 H311 0.929 . S
C307 C306 1.457 . S
C307 C308 1.291 . S
C307 H320 0.931 . S
C308 C307 1.291 . S
C308 C309 1.373 . S
C308 H321 0.929 . S
C309 C308 1.373 . S
C309 C310 1.396 . S
C309 C316 1.403 . S
C310 C300 1.476 . S
C310 N305 1.318 . S
C310 C309 1.396 . S
H311 C306 0.929 . S
O312 Mn288 2.385 . S
O312 C290 1.234 . S
O313 Mn288 2.209 . S
O313 Mn289 2.215 . S
O313 C290 1.283 . S
O314 Mn288 2.094 . S
O314 C292 1.240 . S
O315 Mn289 2.117 . S
O315 C292 1.264 . S
C316 C309 1.403 . S
C316 C317 1.399 . S
C316 H322 0.929 . S
C317 C297 1.449 . S
C317 C316 1.399 . S
C317 H323 0.930 . S
H318 C298 0.931 . S
H319 C299 0.930 . S
H320 C307 0.931 . S
H321 C308 0.929 . S
H322 C316 0.929 . S
H323 C317 0.930 . S
Mn324 O329 2.095 . S
Mn324 O339 2.162 . S
Mn324 O340 2.297 . S
Mn324 O348 2.385 . S
Mn324 O349 2.209 . S
Mn324 O350 2.094 . S
Mn325 O330 2.121 . S
Mn325 N332 2.257 . S
Mn325 N341 2.282 . S
Mn325 O349 2.215 . S
Mn325 O351 2.117 . S
C326 O348 1.234 . S
C326 O349 1.283 . S
C327 O339 1.281 . S
C327 O340 1.236 . S
C328 O350 1.240 . S
C328 O351 1.264 . S
O329 Mn324 2.095 . S
O329 C338 1.250 . S
O330 Mn325 2.121 . S
O330 C338 1.258 . S
C331 N332 1.326 . S
C331 C335 1.460 . S
C331 H337 0.929 . S
N332 Mn325 2.257 . S
N332 C331 1.326 . S
N332 C336 1.362 . S
C333 C334 1.258 . S
C333 C336 1.431 . S
C333 C353 1.449 . S
C334 C333 1.258 . S
C334 C335 1.477 . S
C334 H354 0.931 . S
C335 C331 1.460 . S
C335 C334 1.477 . S
C335 H355 0.930 . S
C336 N332 1.362 . S
C336 C333 1.431 . S
C336 C346 1.476 . S
H337 C331 0.929 . S
C338 O329 1.250 . S
C338 O330 1.258 . S
O339 Mn324 2.162 . S
O339 C327 1.281 . S
O340 Mn324 2.297 . S
O340 C327 1.236 . S
N341 Mn325 2.282 . S
N341 C342 1.328 . S
N341 C346 1.318 . S
C342 N341 1.328 . S
C342 C343 1.457 . S
C342 H347 0.929 . S
C343 C342 1.457 . S
C343 C344 1.291 . S
C343 H356 0.931 . S
C344 C343 1.291 . S
C344 C345 1.373 . S
C344 H357 0.929 . S
C345 C344 1.373 . S
C345 C346 1.396 . S
C345 C352 1.403 . S
C346 C336 1.476 . S
C346 N341 1.318 . S
C346 C345 1.396 . S
H347 C342 0.929 . S
O348 Mn324 2.385 . S
O348 C326 1.234 . S
O349 Mn324 2.209 . S
O349 Mn325 2.215 . S
O349 C326 1.283 . S
O350 Mn324 2.094 . S
O350 C328 1.240 . S
O351 Mn325 2.117 . S
O351 C328 1.264 . S
C352 C345 1.403 . S
C352 C353 1.399 . S
C352 H358 0.929 . S
C353 C333 1.449 . S
C353 C352 1.399 . S
C353 H359 0.930 . S
H354 C334 0.931 . S
H355 C335 0.930 . S
H356 C343 0.931 . S
H357 C344 0.929 . S
H358 C352 0.929 . S
H359 C353 0.930 . S
Mn360 O365 2.095 . S
Mn360 O375 2.162 . S
Mn360 O376 2.297 . S
Mn360 O384 2.385 . S
Mn360 O385 2.209 . S
Mn360 O386 2.094 . S
Mn361 O366 2.121 . S
Mn361 N368 2.257 . S
Mn361 N377 2.282 . S
Mn361 O385 2.215 . S
Mn361 O387 2.117 . S
C362 O384 1.234 . S
C362 O385 1.283 . S
C363 O375 1.281 . S
C363 O376 1.236 . S
C364 O386 1.240 . S
C364 O387 1.264 . S
O365 Mn360 2.095 . S
O365 C374 1.250 . S
O366 Mn361 2.121 . S
O366 C374 1.258 . S
C367 N368 1.326 . S
C367 C371 1.460 . S
C367 H373 0.929 . S
N368 Mn361 2.257 . S
N368 C367 1.326 . S
N368 C372 1.362 . S
C369 C370 1.258 . S
C369 C372 1.431 . S
C369 C389 1.449 . S
C370 C369 1.258 . S
C370 C371 1.477 . S
C370 H390 0.931 . S
C371 C367 1.460 . S
C371 C370 1.477 . S
C371 H391 0.930 . S
C372 N368 1.362 . S
C372 C369 1.431 . S
C372 C382 1.476 . S
H373 C367 0.929 . S
C374 O365 1.250 . S
C374 O366 1.258 . S
O375 Mn360 2.162 . S
O375 C363 1.281 . S
O376 Mn360 2.297 . S
O376 C363 1.236 . S
N377 Mn361 2.282 . S
N377 C378 1.328 . S
N377 C382 1.318 . S
C378 N377 1.328 . S
C378 C379 1.457 . S
C378 H383 0.929 . S
C379 C378 1.457 . S
C379 C380 1.291 . S
C379 H392 0.931 . S
C380 C379 1.291 . S
C380 C381 1.373 . S
C380 H393 0.929 . S
C381 C380 1.373 . S
C381 C382 1.396 . S
C381 C388 1.403 . S
C382 C372 1.476 . S
C382 N377 1.318 . S
C382 C381 1.396 . S
H383 C378 0.929 . S
O384 Mn360 2.385 . S
O384 C362 1.234 . S
O385 Mn360 2.209 . S
O385 Mn361 2.215 . S
O385 C362 1.283 . S
O386 Mn360 2.094 . S
O386 C364 1.240 . S
O387 Mn361 2.117 . S
O387 C364 1.264 . S
C388 C381 1.403 . S
C388 C389 1.399 . S
C388 H394 0.929 . S
C389 C369 1.449 . S
C389 C388 1.399 . S
C389 H395 0.930 . S
H390 C370 0.931 . S
H391 C371 0.930 . S
H392 C379 0.931 . S
H393 C380 0.929 . S
H394 C388 0.929 . S
H395 C389 0.930 . S
Mn396 O401 2.095 . S
Mn396 O411 2.162 . S
Mn396 O412 2.297 . S
Mn396 O420 2.385 . S
Mn396 O421 2.209 . S
Mn396 O422 2.094 . S
Mn397 O402 2.121 . S
Mn397 N404 2.257 . S
Mn397 N413 2.282 . S
Mn397 O421 2.215 . S
Mn397 O423 2.117 . S
C398 O420 1.234 . S
C398 O421 1.283 . S
C399 O411 1.281 . S
C399 O412 1.236 . S
C400 O422 1.240 . S
C400 O423 1.264 . S
O401 Mn396 2.095 . S
O401 C410 1.250 . S
O402 Mn397 2.121 . S
O402 C410 1.258 . S
C403 N404 1.326 . S
C403 C407 1.460 . S
C403 H409 0.929 . S
N404 Mn397 2.257 . S
N404 C403 1.326 . S
N404 C408 1.362 . S
C405 C406 1.258 . S
C405 C408 1.431 . S
C405 C425 1.449 . S
C406 C405 1.258 . S
C406 C407 1.477 . S
C406 H426 0.931 . S
C407 C403 1.460 . S
C407 C406 1.477 . S
C407 H427 0.930 . S
C408 N404 1.362 . S
C408 C405 1.431 . S
C408 C418 1.476 . S
H409 C403 0.929 . S
C410 O401 1.250 . S
C410 O402 1.258 . S
O411 Mn396 2.162 . S
O411 C399 1.281 . S
O412 Mn396 2.297 . S
O412 C399 1.236 . S
N413 Mn397 2.282 . S
N413 C414 1.328 . S
N413 C418 1.318 . S
C414 N413 1.328 . S
C414 C415 1.457 . S
C414 H419 0.929 . S
C415 C414 1.457 . S
C415 C416 1.291 . S
C415 H428 0.931 . S
C416 C415 1.291 . S
C416 C417 1.373 . S
C416 H429 0.929 . S
C417 C416 1.373 . S
C417 C418 1.396 . S
C417 C424 1.403 . S
C418 C408 1.476 . S
C418 N413 1.318 . S
C418 C417 1.396 . S
H419 C414 0.929 . S
O420 Mn396 2.385 . S
O420 C398 1.234 . S
O421 Mn396 2.209 . S
O421 Mn397 2.215 . S
O421 C398 1.283 . S
O422 Mn396 2.094 . S
O422 C400 1.240 . S
O423 Mn397 2.117 . S
O423 C400 1.264 . S
C424 C417 1.403 . S
C424 C425 1.399 . S
C424 H430 0.929 . S
C425 C405 1.449 . S
C425 C424 1.399 . S
C425 H431 0.930 . S
H426 C406 0.931 . S
H427 C407 0.930 . S
H428 C415 0.931 . S
H429 C416 0.929 . S
H430 C424 0.929 . S
H431 C425 0.930 . S
Mn432 O437 2.095 . S
Mn432 O447 2.162 . S
Mn432 O448 2.297 . S
Mn432 O456 2.385 . S
Mn432 O457 2.209 . S
Mn432 O458 2.094 . S
Mn433 O438 2.121 . S
Mn433 N440 2.257 . S
Mn433 N449 2.282 . S
Mn433 O457 2.215 . S
Mn433 O459 2.117 . S
C434 O456 1.234 . S
C434 O457 1.283 . S
C435 O447 1.281 . S
C435 O448 1.236 . S
C436 O458 1.240 . S
C436 O459 1.264 . S
O437 Mn432 2.095 . S
O437 C446 1.250 . S
O438 Mn433 2.121 . S
O438 C446 1.258 . S
C439 N440 1.326 . S
C439 C443 1.460 . S
C439 H445 0.929 . S
N440 Mn433 2.257 . S
N440 C439 1.326 . S
N440 C444 1.362 . S
C441 C442 1.258 . S
C441 C444 1.431 . S
C441 C461 1.449 . S
C442 C441 1.258 . S
C442 C443 1.477 . S
C442 H462 0.931 . S
C443 C439 1.460 . S
C443 C442 1.477 . S
C443 H463 0.930 . S
C444 N440 1.362 . S
C444 C441 1.431 . S
C444 C454 1.476 . S
H445 C439 0.929 . S
C446 O437 1.250 . S
C446 O438 1.258 . S
O447 Mn432 2.162 . S
O447 C435 1.281 . S
O448 Mn432 2.297 . S
O448 C435 1.236 . S
N449 Mn433 2.282 . S
N449 C450 1.328 . S
N449 C454 1.318 . S
C450 N449 1.328 . S
C450 C451 1.457 . S
C450 H455 0.929 . S
C451 C450 1.457 . S
C451 C452 1.291 . S
C451 H464 0.931 . S
C452 C451 1.291 . S
C452 C453 1.373 . S
C452 H465 0.929 . S
C453 C452 1.373 . S
C453 C454 1.396 . S
C453 C460 1.403 . S
C454 C444 1.476 . S
C454 N449 1.318 . S
C454 C453 1.396 . S
H455 C450 0.929 . S
O456 Mn432 2.385 . S
O456 C434 1.234 . S
O457 Mn432 2.209 . S
O457 Mn433 2.215 . S
O457 C434 1.283 . S
O458 Mn432 2.094 . S
O458 C436 1.240 . S
O459 Mn433 2.117 . S
O459 C436 1.264 . S
C460 C453 1.403 . S
C460 C461 1.399 . S
C460 H466 0.929 . S
C461 C441 1.449 . S
C461 C460 1.399 . S
C461 H467 0.930 . S
H462 C442 0.931 . S
H463 C443 0.930 . S
H464 C451 0.931 . S
H465 C452 0.929 . S
H466 C460 0.929 . S
H467 C461 0.930 . S
Mn468 O473 2.095 . S
Mn468 O483 2.162 1_455 S
Mn468 O484 2.297 . S
Mn468 O492 2.385 . S
Mn468 O493 2.209 . S
Mn468 O494 2.094 . S
Mn469 O474 2.121 . S
Mn469 N476 2.257 . S
Mn469 N485 2.282 . S
Mn469 O493 2.215 . S
Mn469 O495 2.117 . S
C470 O492 1.234 . S
C470 O493 1.283 . S
C471 O483 1.281 . S
C471 O484 1.236 1_655 S
C472 O494 1.240 . S
C472 O495 1.264 . S
O473 Mn468 2.095 . S
O473 C482 1.250 . S
O474 Mn469 2.121 . S
O474 C482 1.258 . S
C475 N476 1.326 . S
C475 C479 1.460 . S
C475 H481 0.929 . S
N476 Mn469 2.257 . S
N476 C475 1.326 . S
N476 C480 1.362 . S
C477 C478 1.258 . S
C477 C480 1.431 . S
C477 C497 1.449 . S
C478 C477 1.258 . S
C478 C479 1.477 . S
C478 H498 0.931 . S
C479 C475 1.460 . S
C479 C478 1.477 . S
C479 H499 0.930 . S
C480 N476 1.362 . S
C480 C477 1.431 . S
C480 C490 1.476 . S
H481 C475 0.929 . S
C482 O473 1.250 . S
C482 O474 1.258 . S
O483 Mn468 2.162 1_655 S
O483 C471 1.281 . S
O484 Mn468 2.297 . S
O484 C471 1.236 1_455 S
N485 Mn469 2.282 . S
N485 C486 1.328 . S
N485 C490 1.318 . S
C486 N485 1.328 . S
C486 C487 1.457 . S
C486 H491 0.929 . S
C487 C486 1.457 . S
C487 C488 1.291 . S
C487 H500 0.931 . S
C488 C487 1.291 . S
C488 C489 1.373 . S
C488 H501 0.929 . S
C489 C488 1.373 . S
C489 C490 1.396 . S
C489 C496 1.403 . S
C490 C480 1.476 . S
C490 N485 1.318 . S
C490 C489 1.396 . S
H491 C486 0.929 . S
O492 Mn468 2.385 . S
O492 C470 1.234 . S
O493 Mn468 2.209 . S
O493 Mn469 2.215 . S
O493 C470 1.283 . S
O494 Mn468 2.094 . S
O494 C472 1.240 . S
O495 Mn469 2.117 . S
O495 C472 1.264 . S
C496 C489 1.403 . S
C496 C497 1.399 . S
C496 H502 0.929 . S
C497 C477 1.449 . S
C497 C496 1.399 . S
C497 H503 0.930 . S
H498 C478 0.931 . S
H499 C479 0.930 . S
H500 C487 0.931 . S
H501 C488 0.929 . S
H502 C496 0.929 . S
H503 C497 0.930 . S
Mn504 O509 2.095 . S
Mn504 O519 2.162 . S
Mn504 O520 2.297 . S
Mn504 O528 2.385 . S
Mn504 O529 2.209 . S
Mn504 O530 2.094 . S
Mn505 O510 2.121 . S
Mn505 N512 2.257 . S
Mn505 N521 2.282 . S
Mn505 O529 2.215 . S
Mn505 O531 2.117 . S
C506 O528 1.234 . S
C506 O529 1.283 . S
C507 O519 1.281 . S
C507 O520 1.236 . S
C508 O530 1.240 . S
C508 O531 1.264 . S
O509 Mn504 2.095 . S
O509 C518 1.250 . S
O510 Mn505 2.121 . S
O510 C518 1.258 . S
C511 N512 1.326 . S
C511 C515 1.460 . S
C511 H517 0.929 . S
N512 Mn505 2.257 . S
N512 C511 1.326 . S
N512 C516 1.362 . S
C513 C514 1.258 . S
C513 C516 1.431 . S
C513 C533 1.449 . S
C514 C513 1.258 . S
C514 C515 1.477 . S
C514 H534 0.931 . S
C515 C511 1.460 . S
C515 C514 1.477 . S
C515 H535 0.930 . S
C516 N512 1.362 . S
C516 C513 1.431 . S
C516 C526 1.476 . S
H517 C511 0.929 . S
C518 O509 1.250 . S
C518 O510 1.258 . S
O519 Mn504 2.162 . S
O519 C507 1.281 . S
O520 Mn504 2.297 . S
O520 C507 1.236 . S
N521 Mn505 2.282 . S
N521 C522 1.328 . S
N521 C526 1.318 . S
C522 N521 1.328 . S
C522 C523 1.457 . S
C522 H527 0.929 . S
C523 C522 1.457 . S
C523 C524 1.291 . S
C523 H536 0.931 . S
C524 C523 1.291 . S
C524 C525 1.373 . S
C524 H537 0.929 . S
C525 C524 1.373 . S
C525 C526 1.396 . S
C525 C532 1.403 . S
C526 C516 1.476 . S
C526 N521 1.318 . S
C526 C525 1.396 . S
H527 C522 0.929 . S
O528 Mn504 2.385 . S
O528 C506 1.234 . S
O529 Mn504 2.209 . S
O529 Mn505 2.215 . S
O529 C506 1.283 . S
O530 Mn504 2.094 . S
O530 C508 1.240 . S
O531 Mn505 2.117 . S
O531 C508 1.264 . S
C532 C525 1.403 . S
C532 C533 1.399 . S
C532 H538 0.929 . S
C533 C513 1.449 . S
C533 C532 1.399 . S
C533 H539 0.930 . S
H534 C514 0.931 . S
H535 C515 0.930 . S
H536 C523 0.931 . S
H537 C524 0.929 . S
H538 C532 0.929 . S
H539 C533 0.930 . S
Mn540 O545 2.095 . S
Mn540 O555 2.162 1_455 S
Mn540 O556 2.297 . S
Mn540 O564 2.385 . S
Mn540 O565 2.209 . S
Mn540 O566 2.094 . S
Mn541 O546 2.121 . S
Mn541 N548 2.257 . S
Mn541 N557 2.282 . S
Mn541 O565 2.215 . S
Mn541 O567 2.117 . S
C542 O564 1.234 . S
C542 O565 1.283 . S
C543 O555 1.281 . S
C543 O556 1.236 1_655 S
C544 O566 1.240 . S
C544 O567 1.264 . S
O545 Mn540 2.095 . S
O545 C554 1.250 . S
O546 Mn541 2.121 . S
O546 C554 1.258 . S
C547 N548 1.326 . S
C547 C551 1.460 . S
C547 H553 0.929 . S
N548 Mn541 2.257 . S
N548 C547 1.326 . S
N548 C552 1.362 . S
C549 C550 1.258 . S
C549 C552 1.431 . S
C549 C569 1.449 . S
C550 C549 1.258 . S
C550 C551 1.477 . S
C550 H570 0.931 . S
C551 C547 1.460 . S
C551 C550 1.477 . S
C551 H571 0.930 . S
C552 N548 1.362 . S
C552 C549 1.431 . S
C552 C562 1.476 . S
H553 C547 0.929 . S
C554 O545 1.250 . S
C554 O546 1.258 . S
O555 Mn540 2.162 1_655 S
O555 C543 1.281 . S
O556 Mn540 2.297 . S
O556 C543 1.236 1_455 S
N557 Mn541 2.282 . S
N557 C558 1.328 . S
N557 C562 1.318 . S
C558 N557 1.328 . S
C558 C559 1.457 . S
C558 H563 0.929 . S
C559 C558 1.457 . S
C559 C560 1.291 . S
C559 H572 0.931 . S
C560 C559 1.291 . S
C560 C561 1.373 . S
C560 H573 0.929 . S
C561 C560 1.373 . S
C561 C562 1.396 . S
C561 C568 1.403 . S
C562 C552 1.476 . S
C562 N557 1.318 . S
C562 C561 1.396 . S
H563 C558 0.929 . S
O564 Mn540 2.385 . S
O564 C542 1.234 . S
O565 Mn540 2.209 . S
O565 Mn541 2.215 . S
O565 C542 1.283 . S
O566 Mn540 2.094 . S
O566 C544 1.240 . S
O567 Mn541 2.117 . S
O567 C544 1.264 . S
C568 C561 1.403 . S
C568 C569 1.399 . S
C568 H574 0.929 . S
C569 C549 1.449 . S
C569 C568 1.399 . S
C569 H575 0.930 . S
H570 C550 0.931 . S
H571 C551 0.930 . S
H572 C559 0.931 . S
H573 C560 0.929 . S
H574 C568 0.929 . S
H575 C569 0.930 . S
H576 C584 0.929 . S
H577 C586 0.928 1_655 S
H578 C588 0.930 . S
H579 C591 0.929 . S
H580 C594 0.930 . S
H581 C596 0.960 . S
H582 C596 0.960 . S
H583 C596 0.960 . S
C584 H576 0.929 . S
C584 C585 1.377 1_655 S
C584 C586 1.382 1_655 S
C585 C584 1.377 1_455 S
C585 C591 1.390 . S
C586 H577 0.928 1_455 S
C586 C584 1.382 1_455 S
C586 C587 1.376 . S
C587 C586 1.376 . S
C587 C588 1.400 . S
C587 C592 1.490 . S
C588 H578 0.930 . S
C588 C587 1.400 . S
C588 C591 1.386 . S
H589 C605 0.930 . S
H590 C606 0.931 . S
C591 H579 0.929 . S
C591 C585 1.390 . S
C591 C588 1.386 . S
C592 C587 1.490 . S
C592 C594 1.395 . S
C592 C595 1.405 . S
H593 C599 0.930 1_655 S
C594 H580 0.930 . S
C594 C592 1.395 . S
C594 C597 1.403 . S
C595 C592 1.405 . S
C595 C596 1.520 1_455 S
C595 C599 1.401 . S
C596 H581 0.960 . S
C596 H582 0.960 . S
C596 H583 0.960 . S
C596 C595 1.520 1_655 S
C597 C594 1.403 . S
C597 C598 1.392 . S
C597 C601 1.495 . S
C598 C597 1.392 . S
C598 C599 1.385 . S
C598 C600 1.478 . S
C599 H593 0.930 1_455 S
C599 C595 1.401 . S
C599 C598 1.385 . S
C600 C598 1.478 . S
C600 C602 1.381 . S
C600 C606 1.383 . S
C601 C597 1.495 . S
C601 H607 0.959 . S
C601 H608 0.961 . S
C601 H609 0.960 . S
C602 C600 1.381 . S
C602 C603 1.394 . S
C602 H610 0.930 . S
C603 C602 1.394 . S
C603 C604 1.383 . S
C603 H611 0.929 . S
C604 C603 1.383 . S
C604 C605 1.377 . S
C605 H589 0.930 . S
C605 C604 1.377 . S
C605 C606 1.379 . S
C606 H590 0.931 . S
C606 C600 1.383 . S
C606 C605 1.379 . S
H607 C601 0.959 . S
H608 C601 0.961 . S
H609 C601 0.960 . S
H610 C602 0.930 . S
H611 C603 0.929 . S
H612 C620 0.929 . S
H613 C622 0.930 . S
H614 C624 0.930 . S
H615 C627 0.929 . S
H616 C630 0.944 . S
H617 C632 0.938 1_455 S
H618 C632 0.975 . S
H619 C632 0.976 . S
C620 H612 0.929 . S
C620 C621 1.377 . S
C620 C622 1.384 . S
C621 C620 1.377 . S
C621 C627 1.390 . S
C622 H613 0.930 . S
C622 C620 1.384 . S
C622 C623 1.372 . S
C623 C622 1.372 . S
C623 C624 1.400 . S
C623 C628 1.490 . S
C624 H614 0.930 . S
C624 C623 1.400 . S
C624 C627 1.386 . S
H625 C641 0.930 . S
H626 C642 0.931 . S
C627 H615 0.929 . S
C627 C621 1.390 . S
C627 C624 1.386 . S
C628 C623 1.490 . S
C628 C630 1.402 . S
C628 C631 1.403 1_655 S
H629 C635 0.930 . S
C630 H616 0.944 . S
C630 C628 1.402 . S
C630 C633 1.383 1_655 S
C631 C628 1.403 1_455 S
C631 C632 1.516 1_455 S
C631 C635 1.400 . S
C632 H617 0.938 1_655 S
C632 H618 0.975 . S
C632 H619 0.976 . S
C632 C631 1.516 1_655 S
C633 C630 1.383 1_455 S
C633 C634 1.392 . S
C633 C637 1.495 . S
C634 C633 1.392 . S
C634 C635 1.385 . S
C634 C636 1.478 . S
C635 H629 0.930 . S
C635 C631 1.400 . S
C635 C634 1.385 . S
C636 C634 1.478 . S
C636 C638 1.381 . S
C636 C642 1.383 . S
C637 C633 1.495 . S
C637 H643 0.959 . S
C637 H644 0.961 . S
C637 H645 0.960 . S
C638 C636 1.381 . S
C638 C639 1.394 . S
C638 H646 0.930 . S
C639 C638 1.394 . S
C639 C640 1.383 . S
C639 H647 0.929 . S
C640 C639 1.383 . S
C640 C641 1.377 . S
C641 H625 0.930 . S
C641 C640 1.377 . S
C641 C642 1.379 . S
C642 H626 0.931 . S
C642 C636 1.383 . S
C642 C641 1.379 . S
H643 C637 0.959 . S
H644 C637 0.961 . S
H645 C637 0.960 . S
H646 C638 0.930 . S
H647 C639 0.929 . S
H648 C656 0.929 . S
H649 C658 0.930 . S
H650 C660 0.930 . S
H651 C663 0.929 . S
H652 C666 0.930 . S
H653 C668 0.960 . S
H654 C668 0.960 . S
H655 C668 0.960 . S
C656 H648 0.929 . S
C656 C657 1.377 . S
C656 C658 1.384 . S
C657 C656 1.377 . S
C657 C663 1.390 . S
C658 H649 0.930 . S
C658 C656 1.384 . S
C658 C659 1.372 . S
C659 C658 1.372 . S
C659 C660 1.400 . S
C659 C664 1.490 . S
C660 H650 0.930 . S
C660 C659 1.400 . S
C660 C663 1.386 . S
H661 C677 0.930 . S
H662 C678 0.931 . S
C663 H651 0.929 . S
C663 C657 1.390 . S
C663 C660 1.386 . S
C664 C659 1.490 . S
C664 C666 1.395 . S
C664 C667 1.403 . S
H665 C671 0.930 . S
C666 H652 0.930 . S
C666 C664 1.395 . S
C666 C669 1.403 . S
C667 C664 1.403 . S
C667 C668 1.524 . S
C667 C671 1.400 . S
C668 H653 0.960 . S
C668 H654 0.960 . S
C668 H655 0.960 . S
C668 C667 1.524 . S
C669 C666 1.403 . S
C669 C670 1.392 . S
C669 C673 1.495 . S
C670 C669 1.392 . S
C670 C671 1.385 . S
C670 C672 1.478 . S
C671 H665 0.930 . S
C671 C667 1.400 . S
C671 C670 1.385 . S
C672 C670 1.478 . S
C672 C674 1.381 . S
C672 C678 1.383 . S
C673 C669 1.495 . S
C673 H679 0.959 . S
C673 H680 0.961 . S
C673 H681 0.960 . S
C674 C672 1.381 . S
C674 C675 1.394 . S
C674 H682 0.930 . S
C675 C674 1.394 . S
C675 C676 1.383 . S
C675 H683 0.929 . S
C676 C675 1.383 . S
C676 C677 1.377 . S
C677 H661 0.930 . S
C677 C676 1.377 . S
C677 C678 1.379 . S
C678 H662 0.931 . S
C678 C672 1.383 . S
C678 C677 1.379 . S
H679 C673 0.959 . S
H680 C673 0.961 . S
H681 C673 0.960 . S
H682 C674 0.930 . S
H683 C675 0.929 . S
H684 C692 0.929 . S
H685 C694 0.930 . S
H686 C696 0.930 . S
H687 C699 0.929 . S
H688 C702 0.930 . S
H689 C704 0.960 . S
H690 C704 0.960 . S
H691 C704 0.960 . S
C692 H684 0.929 . S
C692 C693 1.377 . S
C692 C694 1.384 . S
C693 C692 1.377 . S
C693 C699 1.390 . S
C694 H685 0.930 . S
C694 C692 1.384 . S
C694 C695 1.372 . S
C695 C694 1.372 . S
C695 C696 1.400 . S
C695 C700 1.490 . S
C696 H686 0.930 . S
C696 C695 1.400 . S
C696 C699 1.386 . S
H697 C713 0.930 . S
H698 C714 0.931 . S
C699 H687 0.929 . S
C699 C693 1.390 . S
C699 C696 1.386 . S
C700 C695 1.490 . S
C700 C702 1.395 . S
C700 C703 1.403 . S
H701 C707 0.930 . S
C702 H688 0.930 . S
C702 C700 1.395 . S
C702 C705 1.403 . S
C703 C700 1.403 . S
C703 C704 1.524 . S
C703 C707 1.400 . S
C704 H689 0.960 . S
C704 H690 0.960 . S
C704 H691 0.960 . S
C704 C703 1.524 . S
C705 C702 1.403 . S
C705 C706 1.392 . S
C705 C709 1.495 . S
C706 C705 1.392 . S
C706 C707 1.385 . S
C706 C708 1.478 . S
C707 H701 0.930 . S
C707 C703 1.400 . S
C707 C706 1.385 . S
C708 C706 1.478 . S
C708 C710 1.381 . S
C708 C714 1.383 . S
C709 C705 1.495 . S
C709 H715 0.959 . S
C709 H716 0.961 . S
C709 H717 0.960 . S
C710 C708 1.381 . S
C710 C711 1.394 . S
C710 H718 0.930 . S
C711 C710 1.394 . S
C711 C712 1.383 . S
C711 H719 0.929 . S
C712 C711 1.383 . S
C712 C713 1.377 . S
C713 H697 0.930 . S
C713 C712 1.377 . S
C713 C714 1.379 . S
C714 H698 0.931 . S
C714 C708 1.383 . S
C714 C713 1.379 . S
H715 C709 0.959 . S
H716 C709 0.961 . S
H717 C709 0.960 . S
H718 C710 0.930 . S
H719 C711 0.929 . S
H720 C728 0.929 . S
H721 C730 0.930 . S
H722 C732 0.930 . S
H723 C735 0.929 . S
H724 C738 0.930 . S
H725 C740 0.960 . S
H726 C740 0.960 1_655 S
H727 C740 0.960 . S
C728 H720 0.929 . S
C728 C729 1.377 1_655 S
C728 C730 1.384 . S
C729 C728 1.377 1_455 S
C729 C735 1.390 . S
C730 H721 0.930 . S
C730 C728 1.384 . S
C730 C731 1.372 1_655 S
C731 C730 1.372 1_455 S
C731 C732 1.400 . S
C731 C736 1.490 . S
C732 H722 0.930 . S
C732 C731 1.400 . S
C732 C735 1.386 . S
H733 C749 0.930 . S
H734 C750 0.931 . S
C735 H723 0.929 . S
C735 C729 1.390 . S
C735 C732 1.386 . S
C736 C731 1.490 . S
C736 C738 1.395 . S
C736 C739 1.403 . S
H737 C743 0.930 . S
C738 H724 0.930 . S
C738 C736 1.395 . S
C738 C741 1.403 . S
C739 C736 1.403 . S
C739 C740 1.524 . S
C739 C743 1.400 . S
C740 H725 0.960 . S
C740 H726 0.960 1_455 S
C740 H727 0.960 . S
C740 C739 1.524 . S
C741 C738 1.403 . S
C741 C742 1.392 . S
C741 C745 1.495 . S
C742 C741 1.392 . S
C742 C743 1.385 . S
C742 C744 1.478 . S
C743 H737 0.930 . S
C743 C739 1.400 . S
C743 C742 1.385 . S
C744 C742 1.478 . S
C744 C746 1.381 . S
C744 C750 1.383 . S
C745 C741 1.495 . S
C745 H751 0.959 . S
C745 H752 0.961 . S
C745 H753 0.960 . S
C746 C744 1.381 . S
C746 C747 1.394 . S
C746 H754 0.930 1_455 S
C747 C746 1.394 . S
C747 C748 1.383 . S
C747 H755 0.929 1_455 S
C748 C747 1.383 . S
C748 C749 1.377 . S
C749 H733 0.930 . S
C749 C748 1.377 . S
C749 C750 1.379 . S
C750 H734 0.931 . S
C750 C744 1.383 . S
C750 C749 1.379 . S
H751 C745 0.959 . S
H752 C745 0.961 . S
H753 C745 0.960 . S
H754 C746 0.930 1_655 S
H755 C747 0.929 1_655 S
H756 C764 0.929 . S
H757 C766 0.930 . S
H758 C768 0.930 . S
H759 C771 0.929 . S
H760 C774 0.930 . S
H761 C776 0.960 . S
H762 C776 0.960 . S
H763 C776 0.960 . S
C764 H756 0.929 . S
C764 C765 1.377 . S
C764 C766 1.384 . S
C765 C764 1.377 . S
C765 C771 1.390 . S
C766 H757 0.930 . S
C766 C764 1.384 . S
C766 C767 1.372 . S
C767 C766 1.372 . S
C767 C768 1.400 . S
C767 C772 1.490 . S
C768 H758 0.930 . S
C768 C767 1.400 . S
C768 C771 1.386 . S
H769 C785 0.930 . S
H770 C786 0.931 . S
C771 H759 0.929 . S
C771 C765 1.390 . S
C771 C768 1.386 . S
C772 C767 1.490 . S
C772 C774 1.395 . S
C772 C775 1.403 . S
H773 C779 0.930 . S
C774 H760 0.930 . S
C774 C772 1.395 . S
C774 C777 1.403 . S
C775 C772 1.403 . S
C775 C776 1.524 . S
C775 C779 1.400 . S
C776 H761 0.960 . S
C776 H762 0.960 . S
C776 H763 0.960 . S
C776 C775 1.524 . S
C777 C774 1.403 . S
C777 C778 1.392 . S
C777 C781 1.495 . S
C778 C777 1.392 . S
C778 C779 1.385 . S
C778 C780 1.478 . S
C779 H773 0.930 . S
C779 C775 1.400 . S
C779 C778 1.385 . S
C780 C778 1.478 . S
C780 C782 1.381 . S
C780 C786 1.383 . S
C781 C777 1.495 . S
C781 H787 0.959 . S
C781 H788 0.961 . S
C781 H789 0.960 . S
C782 C780 1.381 . S
C782 C783 1.394 . S
C782 H790 0.930 . S
C783 C782 1.394 . S
C783 C784 1.383 . S
C783 H791 0.929 . S
C784 C783 1.383 . S
C784 C785 1.377 . S
C785 H769 0.930 . S
C785 C784 1.377 . S
C785 C786 1.379 . S
C786 H770 0.931 . S
C786 C780 1.383 . S
C786 C785 1.379 . S
H787 C781 0.959 . S
H788 C781 0.961 . S
H789 C781 0.960 . S
H790 C782 0.930 . S
H791 C783 0.929 . S
H792 C800 0.929 . S
H793 C802 0.930 . S
H794 C804 0.930 . S
H795 C807 0.929 . S
H796 C810 0.930 . S
H797 C812 0.960 . S
H798 C812 0.960 . S
H799 C812 0.960 . S
C800 H792 0.929 . S
C800 C801 1.377 . S
C800 C802 1.384 . S
C801 C800 1.377 . S
C801 C807 1.390 . S
C802 H793 0.930 . S
C802 C800 1.384 . S
C802 C803 1.372 . S
C803 C802 1.372 . S
C803 C804 1.400 . S
C803 C808 1.490 . S
C804 H794 0.930 . S
C804 C803 1.400 . S
C804 C807 1.386 . S
H805 C821 0.930 . S
H806 C822 0.931 . S
C807 H795 0.929 . S
C807 C801 1.390 . S
C807 C804 1.386 . S
C808 C803 1.490 . S
C808 C810 1.395 . S
C808 C811 1.403 . S
H809 C815 0.930 . S
C810 H796 0.930 . S
C810 C808 1.395 . S
C810 C813 1.403 . S
C811 C808 1.403 . S
C811 C812 1.524 . S
C811 C815 1.400 . S
C812 H797 0.960 . S
C812 H798 0.960 . S
C812 H799 0.960 . S
C812 C811 1.524 . S
C813 C810 1.403 . S
C813 C814 1.392 . S
C813 C817 1.495 . S
C814 C813 1.392 . S
C814 C815 1.385 . S
C814 C816 1.478 . S
C815 H809 0.930 . S
C815 C811 1.400 . S
C815 C814 1.385 . S
C816 C814 1.478 . S
C816 C818 1.381 . S
C816 C822 1.383 . S
C817 C813 1.495 . S
C817 H823 0.959 . S
C817 H824 0.961 . S
C817 H825 0.960 . S
C818 C816 1.381 . S
C818 C819 1.394 . S
C818 H826 0.930 . S
C819 C818 1.394 . S
C819 C820 1.383 . S
C819 H827 0.929 . S
C820 C819 1.383 . S
C820 C821 1.377 . S
C821 H805 0.930 . S
C821 C820 1.377 . S
C821 C822 1.379 . S
C822 H806 0.931 . S
C822 C816 1.383 . S
C822 C821 1.379 . S
H823 C817 0.959 . S
H824 C817 0.961 . S
H825 C817 0.960 . S
H826 C818 0.930 . S
H827 C819 0.929 . S
H828 C836 0.929 . S
H829 C838 0.930 . S
H830 C840 0.930 . S
H831 C843 0.929 . S
H832 C846 0.930 . S
H833 C848 0.960 . S
H834 C848 0.960 . S
H835 C848 0.960 . S
C836 H828 0.929 . S
C836 C837 1.377 . S
C836 C838 1.384 . S
C837 C836 1.377 . S
C837 C843 1.390 . S
C838 H829 0.930 . S
C838 C836 1.384 . S
C838 C839 1.372 . S
C839 C838 1.372 . S
C839 C840 1.400 . S
C839 C844 1.490 . S
C840 H830 0.930 . S
C840 C839 1.400 . S
C840 C843 1.386 . S
H841 C857 0.930 . S
H842 C858 0.931 . S
C843 H831 0.929 . S
C843 C837 1.390 . S
C843 C840 1.386 . S
C844 C839 1.490 . S
C844 C846 1.395 . S
C844 C847 1.403 . S
H845 C851 0.930 1_655 S
C846 H832 0.930 . S
C846 C844 1.395 . S
C846 C849 1.403 . S
C847 C844 1.403 . S
C847 C848 1.524 . S
C847 C851 1.400 . S
C848 H833 0.960 . S
C848 H834 0.960 . S
C848 H835 0.960 . S
C848 C847 1.524 . S
C849 C846 1.403 . S
C849 C850 1.392 1_455 S
C849 C853 1.495 1_455 S
C850 C849 1.392 1_655 S
C850 C851 1.385 1_655 S
C850 C852 1.478 . S
C851 H845 0.930 1_455 S
C851 C847 1.400 . S
C851 C850 1.385 1_455 S
C852 C850 1.478 . S
C852 C854 1.381 . S
C852 C858 1.383 . S
C853 C849 1.495 1_655 S
C853 H859 0.959 . S
C853 H860 0.961 . S
C853 H861 0.960 . S
C854 C852 1.381 . S
C854 C855 1.394 . S
C854 H862 0.930 . S
C855 C854 1.394 . S
C855 C856 1.383 . S
C855 H863 0.929 . S
C856 C855 1.383 . S
C856 C857 1.377 . S
C857 H841 0.930 . S
C857 C856 1.377 . S
C857 C858 1.379 . S
C858 H842 0.931 . S
C858 C852 1.383 . S
C858 C857 1.379 . S
H859 C853 0.959 . S
H860 C853 0.961 . S
H861 C853 0.960 . S
H862 C854 0.930 . S
H863 C855 0.929 . S
H864 C872 0.929 . S
H865 C874 0.930 . S
H866 C876 0.932 . S
H867 C879 0.935 . S
H868 C882 0.930 . S
H869 C884 0.960 1_545 S
H870 C884 0.960 . S
H871 C884 0.960 1_545 S
C872 H864 0.929 . S
C872 C873 1.377 . S
C872 C874 1.384 . S
C873 C872 1.377 . S
C873 C879 1.390 1_565 S
C874 H865 0.930 . S
C874 C872 1.384 . S
C874 C875 1.372 . S
C875 C874 1.372 . S
C875 C876 1.400 1_565 S
C875 C880 1.490 . S
C876 H866 0.932 . S
C876 C875 1.400 1_545 S
C876 C879 1.386 . S
H877 C893 0.930 . S
H878 C894 0.931 . S
C879 H867 0.935 . S
C879 C873 1.390 1_545 S
C879 C876 1.386 . S
C880 C875 1.490 . S
C880 C882 1.395 . S
C880 C883 1.403 1_455 S
H881 C887 0.930 . S
C882 H868 0.930 . S
C882 C880 1.395 . S
C882 C885 1.403 . S
C883 C880 1.403 1_655 S
C883 C884 1.524 . S
C883 C887 1.400 1_565 S
C884 H869 0.960 1_565 S
C884 H870 0.960 . S
C884 H871 0.960 1_565 S
C884 C883 1.524 . S
C885 C882 1.403 . S
C885 C886 1.392 1_565 S
C885 C889 1.495 . S
C886 C885 1.392 1_545 S
C886 C887 1.385 1_455 S
C886 C888 1.478 . S
C887 H881 0.930 . S
C887 C883 1.400 1_545 S
C887 C886 1.385 1_655 S
C888 C886 1.478 . S
C888 C890 1.381 1_545 S
C888 C894 1.383 . S
C889 C885 1.495 . S
C889 H895 0.959 . S
C889 H896 0.961 1_565 S
C889 H897 0.960 . S
C890 C888 1.381 1_565 S
C890 C891 1.394 . S
C890 H898 0.930 . S
C891 C890 1.394 . S
C891 C892 1.383 1_565 S
C891 H899 0.929 . S
C892 C891 1.383 1_545 S
C892 C893 1.377 . S
C893 H877 0.930 . S
C893 C892 1.377 . S
C893 C894 1.379 . S
C894 H878 0.931 . S
C894 C888 1.383 . S
C894 C893 1.379 . S
H895 C889 0.959 . S
H896 C889 0.961 1_545 S
H897 C889 0.960 . S
H898 C890 0.930 . S
H899 C891 0.929 . S
H900 C908 0.929 . S
H901 C910 0.930 . S
H902 C912 0.930 . S
H903 C915 0.929 . S
H904 C918 0.930 . S
H905 C920 0.960 . S
H906 C920 0.960 . S
H907 C920 0.960 . S
C908 H900 0.929 . S
C908 C909 1.377 . S
C908 C910 1.384 . S
C909 C908 1.377 . S
C909 C915 1.390 . S
C910 H901 0.930 . S
C910 C908 1.384 . S
C910 C911 1.372 . S
C911 C910 1.372 . S
C911 C912 1.400 . S
C911 C916 1.490 . S
C912 H902 0.930 . S
C912 C911 1.400 . S
C912 C915 1.386 . S
H913 C929 0.930 . S
H914 C930 0.931 . S
C915 H903 0.929 . S
C915 C909 1.390 . S
C915 C912 1.386 . S
C916 C911 1.490 . S
C916 C918 1.395 . S
C916 C919 1.403 . S
H917 C923 0.930 . S
C918 H904 0.930 . S
C918 C916 1.395 . S
C918 C921 1.403 . S
C919 C916 1.403 . S
C919 C920 1.524 . S
C919 C923 1.400 . S
C920 H905 0.960 . S
C920 H906 0.960 . S
C920 H907 0.960 . S
C920 C919 1.524 . S
C921 C918 1.403 . S
C921 C922 1.392 . S
C921 C925 1.495 . S
C922 C921 1.392 . S
C922 C923 1.385 . S
C922 C924 1.478 . S
C923 H917 0.930 . S
C923 C919 1.400 . S
C923 C922 1.385 . S
C924 C922 1.478 . S
C924 C926 1.381 . S
C924 C930 1.383 . S
C925 C921 1.495 . S
C925 H931 0.959 . S
C925 H932 0.961 . S
C925 H933 0.960 . S
C926 C924 1.381 . S
C926 C927 1.394 . S
C926 H934 0.930 . S
C927 C926 1.394 . S
C927 C928 1.383 . S
C927 H935 0.929 . S
C928 C927 1.383 . S
C928 C929 1.377 . S
C929 H913 0.930 . S
C929 C928 1.377 . S
C929 C930 1.379 . S
C930 H914 0.931 . S
C930 C924 1.383 . S
C930 C929 1.379 . S
H931 C925 0.959 . S
H932 C925 0.961 . S
H933 C925 0.960 . S
H934 C926 0.930 . S
H935 C927 0.929 . S
H936 C944 0.929 . S
H937 C946 0.930 . S
H938 C948 0.930 . S
H939 C951 0.929 . S
H940 C954 0.930 . S
H941 C956 0.960 . S
H942 C956 0.960 . S
H943 C956 0.960 . S
C944 H936 0.929 . S
C944 C945 1.377 . S
C944 C946 1.384 . S
C945 C944 1.377 . S
C945 C951 1.390 1_565 S
C946 H937 0.930 . S
C946 C944 1.384 . S
C946 C947 1.372 . S
C947 C946 1.372 . S
C947 C948 1.400 1_565 S
C947 C952 1.490 . S
C948 H938 0.930 . S
C948 C947 1.400 1_545 S
C948 C951 1.386 . S
H949 C965 0.930 . S
H950 C966 0.931 . S
C951 H939 0.929 . S
C951 C945 1.390 1_545 S
C951 C948 1.386 . S
C952 C947 1.490 . S
C952 C954 1.395 . S
C952 C955 1.403 1_565 S
H953 C959 0.930 . S
C954 H940 0.930 . S
C954 C952 1.395 . S
C954 C957 1.403 1_554 S
C955 C952 1.403 1_545 S
C955 C956 1.524 . S
C955 C959 1.400 1_554 S
C956 H941 0.960 . S
C956 H942 0.960 . S
C956 H943 0.960 . S
C956 C955 1.524 . S
C957 C954 1.403 1_556 S
C957 C958 1.404 . S
C957 C961 1.495 . S
C958 C957 1.404 . S
C958 C959 1.376 1_565 S
C958 C960 1.475 1_565 S
C959 H953 0.930 . S
C959 C955 1.400 1_556 S
C959 C958 1.376 1_545 S
C960 C958 1.475 1_545 S
C960 C962 1.381 1_545 S
C960 C966 1.383 . S
C961 C957 1.495 . S
C961 H967 0.959 . S
C961 H968 0.961 . S
C961 H969 0.960 . S
C962 C960 1.381 1_565 S
C962 C963 1.394 . S
C962 H970 0.930 . S
C963 C962 1.394 . S
C963 C964 1.383 1_565 S
C963 H971 0.929 . S
C964 C963 1.383 1_545 S
C964 C965 1.377 . S
C965 H949 0.930 . S
C965 C964 1.377 . S
C965 C966 1.379 . S
C966 H950 0.931 . S
C966 C960 1.383 . S
C966 C965 1.379 . S
H967 C961 0.959 . S
H968 C961 0.961 . S
H969 C961 0.960 . S
H970 C962 0.930 . S
H971 C963 0.929 . S
H972 C980 0.929 . S
H973 C982 0.930 . S
H974 C984 0.930 . S
H975 C987 0.929 . S
H976 C990 0.930 . S
H977 C992 0.960 . S
H978 C992 0.960 . S
H979 C992 0.960 . S
C980 H972 0.929 . S
C980 C981 1.377 . S
C980 C982 1.384 . S
C981 C980 1.377 . S
C981 C987 1.390 . S
C982 H973 0.930 . S
C982 C980 1.384 . S
C982 C983 1.372 . S
C983 C982 1.372 . S
C983 C984 1.400 . S
C983 C988 1.490 . S
C984 H974 0.930 . S
C984 C983 1.400 . S
C984 C987 1.386 . S
H985 C1001 0.930 . S
H986 C1002 0.931 . S
C987 H975 0.929 . S
C987 C981 1.390 . S
C987 C984 1.386 . S
C988 C983 1.490 . S
C988 C990 1.395 . S
C988 C991 1.403 . S
H989 C995 0.930 . S
C990 H976 0.930 . S
C990 C988 1.395 . S
C990 C993 1.403 . S
C991 C988 1.403 . S
C991 C992 1.524 . S
C991 C995 1.400 . S
C992 H977 0.960 . S
C992 H978 0.960 . S
C992 H979 0.960 . S
C992 C991 1.524 . S
C993 C990 1.403 . S
C993 C994 1.392 . S
C993 C997 1.495 . S
C994 C993 1.392 . S
C994 C995 1.385 . S
C994 C996 1.478 . S
C995 H989 0.930 . S
C995 C991 1.400 . S
C995 C994 1.385 . S
C996 C994 1.478 . S
C996 C998 1.381 . S
C996 C1002 1.383 . S
C997 C993 1.495 . S
C997 H1003 0.959 . S
C997 H1004 0.961 . S
C997 H1005 0.960 . S
C998 C996 1.381 . S
C998 C999 1.394 . S
C998 H1006 0.930 . S
C999 C998 1.394 . S
C999 C1000 1.383 . S
C999 H1007 0.929 . S
C1000 C999 1.383 . S
C1000 C1001 1.377 . S
C1001 H985 0.930 . S
C1001 C1000 1.377 . S
C1001 C1002 1.379 . S
C1002 H986 0.931 . S
C1002 C996 1.383 . S
C1002 C1001 1.379 . S
H1003 C997 0.959 . S
H1004 C997 0.961 . S
H1005 C997 0.960 . S
H1006 C998 0.930 . S
H1007 C999 0.929 . S
H1008 C1016 0.929 . S
H1009 C1018 0.930 . S
H1010 C1020 0.930 . S
H1011 C1023 0.929 . S
H1012 C1026 0.930 . S
H1013 C1028 0.960 . S
H1014 C1028 0.960 . S
H1015 C1028 0.960 . S
C1016 H1008 0.929 . S
C1016 C1017 1.377 . S
C1016 C1018 1.384 . S
C1017 C1016 1.377 . S
C1017 C1023 1.390 . S
C1018 H1009 0.930 . S
C1018 C1016 1.384 . S
C1018 C1019 1.372 . S
C1019 C1018 1.372 . S
C1019 C1020 1.400 . S
C1019 C1024 1.490 . S
C1020 H1010 0.930 . S
C1020 C1019 1.400 . S
C1020 C1023 1.386 . S
H1021 C1037 0.930 . S
H1022 C1038 0.931 . S
C1023 H1011 0.929 . S
C1023 C1017 1.390 . S
C1023 C1020 1.386 . S
C1024 C1019 1.490 . S
C1024 C1026 1.395 . S
C1024 C1027 1.403 . S
H1025 C1031 0.930 . S
C1026 H1012 0.930 . S
C1026 C1024 1.395 . S
C1026 C1029 1.403 . S
C1027 C1024 1.403 . S
C1027 C1028 1.524 . S
C1027 C1031 1.400 . S
C1028 H1013 0.960 . S
C1028 H1014 0.960 . S
C1028 H1015 0.960 . S
C1028 C1027 1.524 . S
C1029 C1026 1.403 . S
C1029 C1030 1.392 . S
C1029 C1033 1.495 . S
C1030 C1029 1.392 . S
C1030 C1031 1.385 . S
C1030 C1032 1.478 . S
C1031 H1025 0.930 . S
C1031 C1027 1.400 . S
C1031 C1030 1.385 . S
C1032 C1030 1.478 . S
C1032 C1034 1.381 . S
C1032 C1038 1.383 . S
C1033 C1029 1.495 . S
C1033 H1039 0.959 . S
C1033 H1040 0.961 . S
C1033 H1041 0.960 . S
C1034 C1032 1.381 . S
C1034 C1035 1.394 . S
C1034 H1042 0.930 . S
C1035 C1034 1.394 . S
C1035 C1036 1.383 . S
C1035 H1043 0.929 . S
C1036 C1035 1.383 . S
C1036 C1037 1.377 . S
C1037 H1021 0.930 . S
C1037 C1036 1.377 . S
C1037 C1038 1.379 . S
C1038 H1022 0.931 . S
C1038 C1032 1.383 . S
C1038 C1037 1.379 . S
H1039 C1033 0.959 . S
H1040 C1033 0.961 . S
H1041 C1033 0.960 . S
H1042 C1034 0.930 . S
H1043 C1035 0.929 . S
H1044 C1052 0.929 . S
H1045 C1054 0.930 . S
H1046 C1056 0.930 . S
H1047 C1059 0.929 . S
H1048 C1062 0.930 . S
H1049 C1064 0.960 . S
H1050 C1064 0.960 . S
H1051 C1064 0.960 . S
C1052 H1044 0.929 . S
C1052 C1053 1.377 . S
C1052 C1054 1.384 . S
C1053 C1052 1.377 . S
C1053 C1059 1.390 . S
C1054 H1045 0.930 . S
C1054 C1052 1.384 . S
C1054 C1055 1.372 . S
C1055 C1054 1.372 . S
C1055 C1056 1.400 . S
C1055 C1060 1.490 . S
C1056 H1046 0.930 . S
C1056 C1055 1.400 . S
C1056 C1059 1.386 . S
H1057 C1073 0.930 . S
H1058 C1074 0.931 . S
C1059 H1047 0.929 . S
C1059 C1053 1.390 . S
C1059 C1056 1.386 . S
C1060 C1055 1.490 . S
C1060 C1062 1.395 . S
C1060 C1063 1.403 . S
H1061 C1067 0.930 . S
C1062 H1048 0.930 . S
C1062 C1060 1.395 . S
C1062 C1065 1.403 . S
C1063 C1060 1.403 . S
C1063 C1064 1.524 . S
C1063 C1067 1.400 . S
C1064 H1049 0.960 . S
C1064 H1050 0.960 . S
C1064 H1051 0.960 . S
C1064 C1063 1.524 . S
C1065 C1062 1.403 . S
C1065 C1066 1.392 . S
C1065 C1069 1.495 . S
C1066 C1065 1.392 . S
C1066 C1067 1.385 . S
C1066 C1068 1.478 . S
C1067 H1061 0.930 . S
C1067 C1063 1.400 . S
C1067 C1066 1.385 . S
C1068 C1066 1.478 . S
C1068 C1070 1.381 . S
C1068 C1074 1.383 . S
C1069 C1065 1.495 . S
C1069 H1075 0.959 . S
C1069 H1076 0.961 . S
C1069 H1077 0.960 . S
C1070 C1068 1.381 . S
C1070 C1071 1.394 . S
C1070 H1078 0.930 . S
C1071 C1070 1.394 . S
C1071 C1072 1.383 . S
C1071 H1079 0.929 . S
C1072 C1071 1.383 . S
C1072 C1073 1.377 . S
C1073 H1057 0.930 . S
C1073 C1072 1.377 . S
C1073 C1074 1.379 . S
C1074 H1058 0.931 . S
C1074 C1068 1.383 . S
C1074 C1073 1.379 . S
H1075 C1069 0.959 . S
H1076 C1069 0.961 . S
H1077 C1069 0.960 . S
H1078 C1070 0.930 . S
H1079 C1071 0.929 . S
H1080 C1088 0.929 . S
H1081 C1090 0.930 . S
H1082 C1092 0.930 . S
H1083 C1095 0.929 . S
H1084 C1098 0.930 . S
H1085 C1100 0.960 . S
H1086 C1100 0.960 . S
H1087 C1100 0.960 . S
C1088 H1080 0.929 . S
C1088 C1089 1.377 . S
C1088 C1090 1.384 . S
C1089 C1088 1.377 . S
C1089 C1095 1.390 . S
C1090 H1081 0.930 . S
C1090 C1088 1.384 . S
C1090 C1091 1.372 . S
C1091 C1090 1.372 . S
C1091 C1092 1.400 . S
C1091 C1096 1.490 . S
C1092 H1082 0.930 . S
C1092 C1091 1.400 . S
C1092 C1095 1.386 . S
H1093 C1109 0.930 . S
H1094 C1110 0.931 . S
C1095 H1083 0.929 . S
C1095 C1089 1.390 . S
C1095 C1092 1.386 . S
C1096 C1091 1.490 . S
C1096 C1098 1.395 . S
C1096 C1099 1.403 . S
H1097 C1103 0.930 . S
C1098 H1084 0.930 . S
C1098 C1096 1.395 . S
C1098 C1101 1.403 1_556 S
C1099 C1096 1.403 . S
C1099 C1100 1.524 . S
C1099 C1103 1.400 1_556 S
C1100 H1085 0.960 . S
C1100 H1086 0.960 . S
C1100 H1087 0.960 . S
C1100 C1099 1.524 . S
C1101 C1098 1.403 1_554 S
C1101 C1102 1.392 . S
C1101 C1105 1.495 . S
C1102 C1101 1.392 . S
C1102 C1103 1.385 . S
C1102 C1104 1.478 . S
C1103 H1097 0.930 . S
C1103 C1099 1.400 1_554 S
C1103 C1102 1.385 . S
C1104 C1102 1.478 . S
C1104 C1106 1.381 . S
C1104 C1110 1.383 . S
C1105 C1101 1.495 . S
C1105 H1111 0.959 . S
C1105 H1112 0.961 . S
C1105 H1113 0.960 . S
C1106 C1104 1.381 . S
C1106 C1107 1.394 . S
C1106 H1114 0.930 . S
C1107 C1106 1.394 . S
C1107 C1108 1.383 . S
C1107 H1115 0.929 . S
C1108 C1107 1.383 . S
C1108 C1109 1.377 . S
C1109 H1093 0.930 . S
C1109 C1108 1.377 . S
C1109 C1110 1.379 . S
C1110 H1094 0.931 . S
C1110 C1104 1.383 . S
C1110 C1109 1.379 . S
H1111 C1105 0.959 . S
H1112 C1105 0.961 . S
H1113 C1105 0.960 . S
H1114 C1106 0.930 . S
H1115 C1107 0.929 . S
H1116 C1124 0.929 1_655 S
H1117 C1126 0.930 1_655 S
H1118 C1128 0.930 . S
H1119 C1131 0.929 . S
H1120 C1134 0.930 . S
H1121 C1136 0.960 . S
H1122 C1136 0.960 . S
H1123 C1136 0.960 1_455 S
C1124 H1116 0.929 1_455 S
C1124 C1125 1.377 . S
C1124 C1126 1.384 . S
C1125 C1124 1.377 . S
C1125 C1131 1.390 . S
C1126 H1117 0.930 1_455 S
C1126 C1124 1.384 . S
C1126 C1127 1.372 . S
C1127 C1126 1.372 . S
C1127 C1128 1.400 . S
C1127 C1132 1.490 . S
C1128 H1118 0.930 . S
C1128 C1127 1.400 . S
C1128 C1131 1.386 . S
H1129 C1145 0.930 . S
H1130 C1146 0.931 . S
C1131 H1119 0.929 . S
C1131 C1125 1.390 . S
C1131 C1128 1.386 . S
C1132 C1127 1.490 . S
C1132 C1134 1.395 . S
C1132 C1135 1.403 . S
H1133 C1139 0.930 . S
C1134 H1120 0.930 . S
C1134 C1132 1.395 . S
C1134 C1137 1.403 . S
C1135 C1132 1.403 . S
C1135 C1136 1.524 1_455 S
C1135 C1139 1.400 . S
C1136 H1121 0.960 . S
C1136 H1122 0.960 . S
C1136 H1123 0.960 1_655 S
C1136 C1135 1.524 1_655 S
C1137 C1134 1.403 . S
C1137 C1138 1.392 . S
C1137 C1141 1.495 . S
C1138 C1137 1.392 . S
C1138 C1139 1.385 . S
C1138 C1140 1.478 . S
C1139 H1133 0.930 . S
C1139 C1135 1.400 . S
C1139 C1138 1.385 . S
C1140 C1138 1.478 . S
C1140 C1142 1.381 . S
C1140 C1146 1.383 . S
C1141 C1137 1.495 . S
C1141 H1147 0.959 . S
C1141 H1148 0.961 . S
C1141 H1149 0.960 . S
C1142 C1140 1.381 . S
C1142 C1143 1.394 . S
C1142 H1150 0.930 1_455 S
C1143 C1142 1.394 . S
C1143 C1144 1.383 . S
C1143 H1151 0.929 1_455 S
C1144 C1143 1.383 . S
C1144 C1145 1.377 . S
C1145 H1129 0.930 . S
C1145 C1144 1.377 . S
C1145 C1146 1.379 . S
C1146 H1130 0.931 . S
C1146 C1140 1.383 . S
C1146 C1145 1.379 . S
H1147 C1141 0.959 . S
H1148 C1141 0.961 . S
H1149 C1141 0.960 . S
H1150 C1142 0.930 1_655 S
H1151 C1143 0.929 1_655 S
H1152 C1160 0.929 . S
H1153 C1162 0.930 . S
H1154 C1164 0.930 . S
H1155 C1167 0.929 . S
H1156 C1170 0.930 . S
H1157 C1172 0.960 . S
H1158 C1172 0.960 . S
H1159 C1172 0.960 . S
C1160 H1152 0.929 . S
C1160 C1161 1.377 . S
C1160 C1162 1.384 . S
C1161 C1160 1.377 . S
C1161 C1167 1.390 . S
C1162 H1153 0.930 . S
C1162 C1160 1.384 . S
C1162 C1163 1.372 . S
C1163 C1162 1.372 . S
C1163 C1164 1.400 . S
C1163 C1168 1.490 . S
C1164 H1154 0.930 . S
C1164 C1163 1.400 . S
C1164 C1167 1.386 . S
H1165 C1181 0.930 . S
H1166 C1182 0.931 . S
C1167 H1155 0.929 . S
C1167 C1161 1.390 . S
C1167 C1164 1.386 . S
C1168 C1163 1.490 . S
C1168 C1170 1.395 . S
C1168 C1171 1.403 . S
H1169 C1175 0.930 . S
C1170 H1156 0.930 . S
C1170 C1168 1.395 . S
C1170 C1173 1.403 . S
C1171 C1168 1.403 . S
C1171 C1172 1.524 . S
C1171 C1175 1.400 . S
C1172 H1157 0.960 . S
C1172 H1158 0.960 . S
C1172 H1159 0.960 . S
C1172 C1171 1.524 . S
C1173 C1170 1.403 . S
C1173 C1174 1.392 . S
C1173 C1177 1.495 . S
C1174 C1173 1.392 . S
C1174 C1175 1.385 . S
C1174 C1176 1.478 . S
C1175 H1169 0.930 . S
C1175 C1171 1.400 . S
C1175 C1174 1.385 . S
C1176 C1174 1.478 . S
C1176 C1178 1.381 . S
C1176 C1182 1.383 . S
C1177 C1173 1.495 . S
C1177 H1183 0.959 . S
C1177 H1184 0.961 . S
C1177 H1185 0.960 . S
C1178 C1176 1.381 . S
C1178 C1179 1.394 . S
C1178 H1186 0.930 . S
C1179 C1178 1.394 . S
C1179 C1180 1.383 . S
C1179 H1187 0.929 . S
C1180 C1179 1.383 . S
C1180 C1181 1.377 . S
C1181 H1165 0.930 . S
C1181 C1180 1.377 . S
C1181 C1182 1.379 . S
C1182 H1166 0.931 . S
C1182 C1176 1.383 . S
C1182 C1181 1.379 . S
H1183 C1177 0.959 . S
H1184 C1177 0.961 . S
H1185 C1177 0.960 . S
H1186 C1178 0.930 . S
H1187 C1179 0.929 . S
H1188 C1196 0.929 . S
H1189 C1198 0.930 . S
H1190 C1200 0.930 . S
H1191 C1203 0.929 . S
H1192 C1206 0.930 . S
H1193 C1208 0.960 . S
H1194 C1208 0.960 . S
H1195 C1208 0.960 . S
C1196 H1188 0.929 . S
C1196 C1197 1.377 . S
C1196 C1198 1.384 . S
C1197 C1196 1.377 . S
C1197 C1203 1.390 . S
C1198 H1189 0.930 . S
C1198 C1196 1.384 . S
C1198 C1199 1.372 . S
C1199 C1198 1.372 . S
C1199 C1200 1.400 . S
C1199 C1204 1.490 . S
C1200 H1190 0.930 . S
C1200 C1199 1.400 . S
C1200 C1203 1.386 . S
H1201 C1217 0.930 . S
H1202 C1218 0.931 . S
C1203 H1191 0.929 . S
C1203 C1197 1.390 . S
C1203 C1200 1.386 . S
C1204 C1199 1.490 . S
C1204 C1206 1.395 . S
C1204 C1207 1.403 . S
H1205 C1211 0.930 . S
C1206 H1192 0.930 . S
C1206 C1204 1.395 . S
C1206 C1209 1.403 . S
C1207 C1204 1.403 . S
C1207 C1208 1.524 . S
C1207 C1211 1.400 . S
C1208 H1193 0.960 . S
C1208 H1194 0.960 . S
C1208 H1195 0.960 . S
C1208 C1207 1.524 . S
C1209 C1206 1.403 . S
C1209 C1210 1.392 . S
C1209 C1213 1.495 . S
C1210 C1209 1.392 . S
C1210 C1211 1.385 . S
C1210 C1212 1.478 . S
C1211 H1205 0.930 . S
C1211 C1207 1.400 . S
C1211 C1210 1.385 . S
C1212 C1210 1.478 . S
C1212 C1214 1.381 . S
C1212 C1218 1.383 . S
C1213 C1209 1.495 . S
C1213 H1219 0.959 . S
C1213 H1220 0.961 . S
C1213 H1221 0.960 . S
C1214 C1212 1.381 . S
C1214 C1215 1.394 . S
C1214 H1222 0.930 . S
C1215 C1214 1.394 . S
C1215 C1216 1.383 . S
C1215 H1223 0.929 1_565 S
C1216 C1215 1.383 . S
C1216 C1217 1.377 . S
C1217 H1201 0.930 . S
C1217 C1216 1.377 . S
C1217 C1218 1.379 . S
C1218 H1202 0.931 . S
C1218 C1212 1.383 . S
C1218 C1217 1.379 . S
H1219 C1213 0.959 . S
H1220 C1213 0.961 . S
H1221 C1213 0.960 . S
H1222 C1214 0.930 . S
H1223 C1215 0.929 1_545 S
H1224 C1232 0.929 . S
H1225 C1234 0.930 . S
H1226 C1236 0.930 . S
H1227 C1239 0.929 . S
H1228 C1242 0.930 . S
H1229 C1244 0.960 . S
H1230 C1244 0.960 . S
H1231 C1244 0.960 . S
C1232 H1224 0.929 . S
C1232 C1233 1.377 . S
C1232 C1234 1.384 . S
C1233 C1232 1.377 . S
C1233 C1239 1.390 . S
C1234 H1225 0.930 . S
C1234 C1232 1.384 . S
C1234 C1235 1.372 . S
C1235 C1234 1.372 . S
C1235 C1236 1.400 . S
C1235 C1240 1.490 . S
C1236 H1226 0.930 . S
C1236 C1235 1.400 . S
C1236 C1239 1.386 . S
H1237 C1253 0.930 . S
H1238 C1254 0.931 . S
C1239 H1227 0.929 . S
C1239 C1233 1.390 . S
C1239 C1236 1.386 . S
C1240 C1235 1.490 . S
C1240 C1242 1.395 . S
C1240 C1243 1.403 . S
H1241 C1247 0.930 . S
C1242 H1228 0.930 . S
C1242 C1240 1.395 . S
C1242 C1245 1.403 . S
C1243 C1240 1.403 . S
C1243 C1244 1.524 . S
C1243 C1247 1.400 . S
C1244 H1229 0.960 . S
C1244 H1230 0.960 . S
C1244 H1231 0.960 . S
C1244 C1243 1.524 . S
C1245 C1242 1.403 . S
C1245 C1246 1.392 . S
C1245 C1249 1.495 . S
C1246 C1245 1.392 . S
C1246 C1247 1.385 . S
C1246 C1248 1.478 . S
C1247 H1241 0.930 . S
C1247 C1243 1.400 . S
C1247 C1246 1.385 . S
C1248 C1246 1.478 . S
C1248 C1250 1.381 . S
C1248 C1254 1.383 . S
C1249 C1245 1.495 . S
C1249 H1255 0.959 . S
C1249 H1256 0.961 . S
C1249 H1257 0.960 . S
C1250 C1248 1.381 . S
C1250 C1251 1.394 . S
C1250 H1258 0.930 . S
C1251 C1250 1.394 . S
C1251 C1252 1.383 . S
C1251 H1259 0.929 . S
C1252 C1251 1.383 . S
C1252 C1253 1.377 . S
C1253 H1237 0.930 . S
C1253 C1252 1.377 . S
C1253 C1254 1.379 . S
C1254 H1238 0.931 . S
C1254 C1248 1.383 . S
C1254 C1253 1.379 . S
H1255 C1249 0.959 . S
H1256 C1249 0.961 . S
H1257 C1249 0.960 . S
H1258 C1250 0.930 . S
H1259 C1251 0.929 . S
H1260 C1268 0.929 . S
H1261 C1270 0.930 . S
H1262 C1272 0.930 . S
H1263 C1275 0.929 . S
H1264 C1278 0.930 . S
H1265 C1280 0.960 . S
H1266 C1280 0.960 . S
H1267 C1280 0.960 . S
C1268 H1260 0.929 . S
C1268 C1269 1.377 . S
C1268 C1270 1.384 . S
C1269 C1268 1.377 . S
C1269 C1275 1.390 . S
C1270 H1261 0.930 . S
C1270 C1268 1.384 . S
C1270 C1271 1.372 . S
C1271 C1270 1.372 . S
C1271 C1272 1.400 . S
C1271 C1276 1.490 . S
C1272 H1262 0.930 . S
C1272 C1271 1.400 . S
C1272 C1275 1.386 . S
H1273 C1289 0.930 . S
H1274 C1290 0.931 . S
C1275 H1263 0.929 . S
C1275 C1269 1.390 . S
C1275 C1272 1.386 . S
C1276 C1271 1.490 . S
C1276 C1278 1.395 . S
C1276 C1279 1.403 . S
H1277 C1283 0.930 . S
C1278 H1264 0.930 . S
C1278 C1276 1.395 . S
C1278 C1281 1.403 . S
C1279 C1276 1.403 . S
C1279 C1280 1.524 . S
C1279 C1283 1.400 . S
C1280 H1265 0.960 . S
C1280 H1266 0.960 . S
C1280 H1267 0.960 . S
C1280 C1279 1.524 . S
C1281 C1278 1.403 . S
C1281 C1282 1.392 . S
C1281 C1285 1.495 . S
C1282 C1281 1.392 . S
C1282 C1283 1.385 . S
C1282 C1284 1.478 . S
C1283 H1277 0.930 . S
C1283 C1279 1.400 . S
C1283 C1282 1.385 . S
C1284 C1282 1.478 . S
C1284 C1286 1.381 . S
C1284 C1290 1.383 . S
C1285 C1281 1.495 . S
C1285 H1291 0.959 . S
C1285 H1292 0.961 . S
C1285 H1293 0.960 . S
C1286 C1284 1.381 . S
C1286 C1287 1.394 . S
C1286 H1294 0.930 . S
C1287 C1286 1.394 . S
C1287 C1288 1.383 . S
C1287 H1295 0.929 . S
C1288 C1287 1.383 . S
C1288 C1289 1.377 . S
C1289 H1273 0.930 . S
C1289 C1288 1.377 . S
C1289 C1290 1.379 . S
C1290 H1274 0.931 . S
C1290 C1284 1.383 . S
C1290 C1289 1.379 . S
H1291 C1285 0.959 . S
H1292 C1285 0.961 . S
H1293 C1285 0.960 . S
H1294 C1286 0.930 . S
H1295 C1287 0.929 . S
H1296 C1304 0.929 . S
H1297 C1306 0.930 . S
H1298 C1308 0.930 . S
H1299 C1311 0.929 . S
H1300 C1314 0.930 . S
H1301 C1316 0.960 . S
H1302 C1316 0.960 . S
H1303 C1316 0.960 . S
C1304 H1296 0.929 . S
C1304 C1305 1.377 1_565 S
C1304 C1306 1.384 1_565 S
C1305 C1304 1.377 1_545 S
C1305 C1311 1.390 . S
C1306 H1297 0.930 . S
C1306 C1304 1.384 1_545 S
C1306 C1307 1.372 . S
C1307 C1306 1.372 . S
C1307 C1308 1.400 . S
C1307 C1312 1.490 . S
C1308 H1298 0.930 . S
C1308 C1307 1.400 . S
C1308 C1311 1.386 . S
H1309 C1325 0.930 . S
H1310 C1326 0.931 . S
C1311 H1299 0.929 . S
C1311 C1305 1.390 . S
C1311 C1308 1.386 . S
C1312 C1307 1.490 . S
C1312 C1314 1.395 . S
C1312 C1315 1.403 . S
H1313 C1319 0.930 . S
C1314 H1300 0.930 . S
C1314 C1312 1.395 . S
C1314 C1317 1.403 . S
C1315 C1312 1.403 . S
C1315 C1316 1.524 . S
C1315 C1319 1.400 . S
C1316 H1301 0.960 . S
C1316 H1302 0.960 . S
C1316 H1303 0.960 . S
C1316 C1315 1.524 . S
C1317 C1314 1.403 . S
C1317 C1318 1.392 . S
C1317 C1321 1.495 . S
C1318 C1317 1.392 . S
C1318 C1319 1.385 . S
C1318 C1320 1.478 . S
C1319 H1313 0.930 . S
C1319 C1315 1.400 . S
C1319 C1318 1.385 . S
C1320 C1318 1.478 . S
C1320 C1322 1.381 . S
C1320 C1326 1.383 . S
C1321 C1317 1.495 . S
C1321 H1327 0.959 . S
C1321 H1328 0.961 . S
C1321 H1329 0.960 . S
C1322 C1320 1.381 . S
C1322 C1323 1.394 . S
C1322 H1330 0.930 . S
C1323 C1322 1.394 . S
C1323 C1324 1.383 . S
C1323 H1331 0.929 . S
C1324 C1323 1.383 . S
C1324 C1325 1.377 . S
C1325 H1309 0.930 . S
C1325 C1324 1.377 . S
C1325 C1326 1.379 . S
C1326 H1310 0.931 . S
C1326 C1320 1.383 . S
C1326 C1325 1.379 . S
H1327 C1321 0.959 . S
H1328 C1321 0.961 . S
H1329 C1321 0.960 . S
H1330 C1322 0.930 . S
H1331 C1323 0.929 . S
H1332 C1340 0.929 . S
H1333 C1342 0.930 . S
H1334 C1344 0.930 . S
H1335 C1347 0.929 1_565 S
H1336 C1350 0.930 . S
H1337 C1352 0.960 . S
H1338 C1352 0.960 . S
H1339 C1352 0.960 . S
C1340 H1332 0.929 . S
C1340 C1341 1.377 . S
C1340 C1342 1.384 . S
C1341 C1340 1.377 . S
C1341 C1347 1.390 . S
C1342 H1333 0.930 . S
C1342 C1340 1.384 . S
C1342 C1343 1.372 . S
C1343 C1342 1.372 . S
C1343 C1344 1.400 . S
C1343 C1348 1.490 . S
C1344 H1334 0.930 . S
C1344 C1343 1.400 . S
C1344 C1347 1.386 . S
H1345 C1361 0.930 . S
H1346 C1362 0.931 . S
C1347 H1335 0.929 1_545 S
C1347 C1341 1.390 . S
C1347 C1344 1.386 . S
C1348 C1343 1.490 . S
C1348 C1350 1.395 . S
C1348 C1351 1.403 . S
H1349 C1355 0.930 . S
C1350 H1336 0.930 . S
C1350 C1348 1.395 . S
C1350 C1353 1.403 . S
C1351 C1348 1.403 . S
C1351 C1352 1.524 . S
C1351 C1355 1.400 . S
C1352 H1337 0.960 . S
C1352 H1338 0.960 . S
C1352 H1339 0.960 . S
C1352 C1351 1.524 . S
C1353 C1350 1.403 . S
C1353 C1354 1.392 . S
C1353 C1357 1.495 . S
C1354 C1353 1.392 . S
C1354 C1355 1.385 . S
C1354 C1356 1.478 . S
C1355 H1349 0.930 . S
C1355 C1351 1.400 . S
C1355 C1354 1.385 . S
C1356 C1354 1.478 . S
C1356 C1358 1.381 . S
C1356 C1362 1.383 . S
C1357 C1353 1.495 . S
C1357 H1363 0.959 . S
C1357 H1364 0.961 . S
C1357 H1365 0.960 . S
C1358 C1356 1.381 . S
C1358 C1359 1.394 . S
C1358 H1366 0.930 . S
C1359 C1358 1.394 . S
C1359 C1360 1.383 . S
C1359 H1367 0.929 . S
C1360 C1359 1.383 . S
C1360 C1361 1.377 . S
C1361 H1345 0.930 . S
C1361 C1360 1.377 . S
C1361 C1362 1.379 . S
C1362 H1346 0.931 . S
C1362 C1356 1.383 . S
C1362 C1361 1.379 . S
H1363 C1357 0.959 . S
H1364 C1357 0.961 . S
H1365 C1357 0.960 . S
H1366 C1358 0.930 . S
H1367 C1359 0.929 . S
H1368 C1376 0.929 . S
H1369 C1378 0.930 . S
H1370 C1380 0.930 . S
H1371 C1383 0.929 . S
H1372 C1386 0.930 . S
H1373 C1388 0.960 . S
H1374 C1388 0.960 . S
H1375 C1388 0.960 . S
C1376 H1368 0.929 . S
C1376 C1377 1.377 . S
C1376 C1378 1.384 . S
C1377 C1376 1.377 . S
C1377 C1383 1.390 . S
C1378 H1369 0.930 . S
C1378 C1376 1.384 . S
C1378 C1379 1.372 . S
C1379 C1378 1.372 . S
C1379 C1380 1.400 . S
C1379 C1384 1.490 . S
C1380 H1370 0.930 . S
C1380 C1379 1.400 . S
C1380 C1383 1.386 . S
H1381 C1397 0.930 . S
H1382 C1398 0.931 . S
C1383 H1371 0.929 . S
C1383 C1377 1.390 . S
C1383 C1380 1.386 . S
C1384 C1379 1.490 . S
C1384 C1386 1.395 . S
C1384 C1387 1.403 . S
H1385 C1391 0.930 . S
C1386 H1372 0.930 . S
C1386 C1384 1.395 . S
C1386 C1389 1.403 . S
C1387 C1384 1.403 . S
C1387 C1388 1.524 . S
C1387 C1391 1.400 . S
C1388 H1373 0.960 . S
C1388 H1374 0.960 . S
C1388 H1375 0.960 . S
C1388 C1387 1.524 . S
C1389 C1386 1.403 . S
C1389 C1390 1.392 . S
C1389 C1393 1.495 . S
C1390 C1389 1.392 . S
C1390 C1391 1.385 . S
C1390 C1392 1.478 . S
C1391 H1385 0.930 . S
C1391 C1387 1.400 . S
C1391 C1390 1.385 . S
C1392 C1390 1.478 . S
C1392 C1394 1.381 . S
C1392 C1398 1.383 . S
C1393 C1389 1.495 . S
C1393 H1399 0.959 . S
C1393 H1400 0.961 . S
C1393 H1401 0.960 . S
C1394 C1392 1.381 . S
C1394 C1395 1.394 . S
C1394 H1402 0.930 . S
C1395 C1394 1.394 . S
C1395 C1396 1.383 . S
C1395 H1403 0.929 . S
C1396 C1395 1.383 . S
C1396 C1397 1.377 . S
C1397 H1381 0.930 . S
C1397 C1396 1.377 . S
C1397 C1398 1.379 . S
C1398 H1382 0.931 . S
C1398 C1392 1.383 . S
C1398 C1397 1.379 . S
H1399 C1393 0.959 . S
H1400 C1393 0.961 . S
H1401 C1393 0.960 . S
H1402 C1394 0.930 . S
H1403 C1395 0.929 . S
H1404 C1412 0.929 . S
H1405 C1414 0.930 . S
H1406 C1416 0.930 . S
H1407 C1419 0.929 . S
H1408 C1422 0.930 . S
H1409 C1424 0.960 . S
H1410 C1424 0.960 . S
H1411 C1424 0.960 . S
C1412 H1404 0.929 . S
C1412 C1413 1.377 . S
C1412 C1414 1.384 . S
C1413 C1412 1.377 . S
C1413 C1419 1.390 . S
C1414 H1405 0.930 . S
C1414 C1412 1.384 . S
C1414 C1415 1.372 . S
C1415 C1414 1.372 . S
C1415 C1416 1.400 . S
C1415 C1420 1.490 . S
C1416 H1406 0.930 . S
C1416 C1415 1.400 . S
C1416 C1419 1.386 . S
H1417 C1433 0.930 . S
H1418 C1434 0.931 . S
C1419 H1407 0.929 . S
C1419 C1413 1.390 . S
C1419 C1416 1.386 . S
C1420 C1415 1.490 . S
C1420 C1422 1.395 . S
C1420 C1423 1.403 . S
H1421 C1427 0.930 . S
C1422 H1408 0.930 . S
C1422 C1420 1.395 . S
C1422 C1425 1.403 . S
C1423 C1420 1.403 . S
C1423 C1424 1.524 . S
C1423 C1427 1.400 . S
C1424 H1409 0.960 . S
C1424 H1410 0.960 . S
C1424 H1411 0.960 . S
C1424 C1423 1.524 . S
C1425 C1422 1.403 . S
C1425 C1426 1.392 . S
C1425 C1429 1.495 . S
C1426 C1425 1.392 . S
C1426 C1427 1.385 . S
C1426 C1428 1.478 . S
C1427 H1421 0.930 . S
C1427 C1423 1.400 . S
C1427 C1426 1.385 . S
C1428 C1426 1.478 . S
C1428 C1430 1.381 . S
C1428 C1434 1.383 . S
C1429 C1425 1.495 . S
C1429 H1435 0.959 . S
C1429 H1436 0.961 . S
C1429 H1437 0.960 . S
C1430 C1428 1.381 . S
C1430 C1431 1.394 . S
C1430 H1438 0.930 . S
C1431 C1430 1.394 . S
C1431 C1432 1.383 . S
C1431 H1439 0.929 . S
C1432 C1431 1.383 . S
C1432 C1433 1.377 . S
C1433 H1417 0.930 . S
C1433 C1432 1.377 . S
C1433 C1434 1.379 . S
C1434 H1418 0.931 . S
C1434 C1428 1.383 . S
C1434 C1433 1.379 . S
H1435 C1429 0.959 . S
H1436 C1429 0.961 . S
H1437 C1429 0.960 . S
H1438 C1430 0.930 . S
H1439 C1431 0.929 . S
H1440 C1448 0.929 . S
H1441 C1450 0.930 . S
H1442 C1452 0.930 . S
H1443 C1455 0.929 . S
H1444 C1458 0.930 . S
H1445 C1460 0.960 . S
H1446 C1460 0.960 . S
H1447 C1460 0.960 . S
C1448 H1440 0.929 . S
C1448 C1449 1.377 . S
C1448 C1450 1.384 . S
C1449 C1448 1.377 . S
C1449 C1455 1.390 . S
C1450 H1441 0.930 . S
C1450 C1448 1.384 . S
C1450 C1451 1.372 . S
C1451 C1450 1.372 . S
C1451 C1452 1.400 . S
C1451 C1456 1.490 . S
C1452 H1442 0.930 . S
C1452 C1451 1.400 . S
C1452 C1455 1.386 . S
H1453 C1469 0.930 . S
H1454 C1470 0.931 . S
C1455 H1443 0.929 . S
C1455 C1449 1.390 . S
C1455 C1452 1.386 . S
C1456 C1451 1.490 . S
C1456 C1458 1.395 . S
C1456 C1459 1.403 . S
H1457 C1463 0.930 . S
C1458 H1444 0.930 . S
C1458 C1456 1.395 . S
C1458 C1461 1.403 . S
C1459 C1456 1.403 . S
C1459 C1460 1.524 . S
C1459 C1463 1.400 . S
C1460 H1445 0.960 . S
C1460 H1446 0.960 . S
C1460 H1447 0.960 . S
C1460 C1459 1.524 . S
C1461 C1458 1.403 . S
C1461 C1462 1.392 . S
C1461 C1465 1.495 . S
C1462 C1461 1.392 . S
C1462 C1463 1.385 . S
C1462 C1464 1.478 . S
C1463 H1457 0.930 . S
C1463 C1459 1.400 . S
C1463 C1462 1.385 . S
C1464 C1462 1.478 . S
C1464 C1466 1.381 . S
C1464 C1470 1.383 . S
C1465 C1461 1.495 . S
C1465 H1471 0.959 . S
C1465 H1472 0.961 . S
C1465 H1473 0.960 . S
C1466 C1464 1.381 . S
C1466 C1467 1.394 . S
C1466 H1474 0.930 . S
C1467 C1466 1.394 . S
C1467 C1468 1.383 . S
C1467 H1475 0.929 . S
C1468 C1467 1.383 . S
C1468 C1469 1.377 . S
C1469 H1453 0.930 . S
C1469 C1468 1.377 . S
C1469 C1470 1.379 . S
C1470 H1454 0.931 . S
C1470 C1464 1.383 . S
C1470 C1469 1.379 . S
H1471 C1465 0.959 . S
H1472 C1465 0.961 . S
H1473 C1465 0.960 . S
H1474 C1466 0.930 . S
H1475 C1467 0.929 . S
H1476 C1484 0.929 . S
H1477 C1486 0.930 . S
H1478 C1488 0.930 . S
H1479 C1491 0.929 . S
H1480 C1494 0.930 . S
H1481 C1496 0.960 . S
H1482 C1496 0.960 . S
H1483 C1496 0.960 . S
C1484 H1476 0.929 . S
C1484 C1485 1.377 . S
C1484 C1486 1.384 . S
C1485 C1484 1.377 . S
C1485 C1491 1.390 . S
C1486 H1477 0.930 . S
C1486 C1484 1.384 . S
C1486 C1487 1.372 . S
C1487 C1486 1.372 . S
C1487 C1488 1.400 . S
C1487 C1492 1.490 . S
C1488 H1478 0.930 . S
C1488 C1487 1.400 . S
C1488 C1491 1.386 . S
H1489 C1505 0.930 . S
H1490 C1506 0.931 . S
C1491 H1479 0.929 . S
C1491 C1485 1.390 . S
C1491 C1488 1.386 . S
C1492 C1487 1.490 . S
C1492 C1494 1.395 . S
C1492 C1495 1.403 . S
H1493 C1499 0.930 . S
C1494 H1480 0.930 . S
C1494 C1492 1.395 . S
C1494 C1497 1.403 . S
C1495 C1492 1.403 . S
C1495 C1496 1.524 . S
C1495 C1499 1.400 . S
C1496 H1481 0.960 . S
C1496 H1482 0.960 . S
C1496 H1483 0.960 . S
C1496 C1495 1.524 . S
C1497 C1494 1.403 . S
C1497 C1498 1.392 . S
C1497 C1501 1.495 . S
C1498 C1497 1.392 . S
C1498 C1499 1.385 . S
C1498 C1500 1.478 . S
C1499 H1493 0.930 . S
C1499 C1495 1.400 . S
C1499 C1498 1.385 . S
C1500 C1498 1.478 . S
C1500 C1502 1.381 . S
C1500 C1506 1.383 . S
C1501 C1497 1.495 . S
C1501 H1507 0.959 . S
C1501 H1508 0.961 . S
C1501 H1509 0.960 . S
C1502 C1500 1.381 . S
C1502 C1503 1.394 . S
C1502 H1510 0.930 . S
C1503 C1502 1.394 . S
C1503 C1504 1.383 . S
C1503 H1511 0.929 . S
C1504 C1503 1.383 . S
C1504 C1505 1.377 . S
C1505 H1489 0.930 . S
C1505 C1504 1.377 . S
C1505 C1506 1.379 . S
C1506 H1490 0.931 . S
C1506 C1500 1.383 . S
C1506 C1505 1.379 . S
H1507 C1501 0.959 . S
H1508 C1501 0.961 . S
H1509 C1501 0.960 . S
H1510 C1502 0.930 . S
H1511 C1503 0.929 . S
H1512 C1520 0.929 . S
H1513 C1522 0.930 . S
H1514 C1524 0.930 . S
H1515 C1527 0.929 . S
H1516 C1530 0.930 . S
H1517 C1532 0.960 . S
H1518 C1532 0.960 . S
H1519 C1532 0.960 . S
C1520 H1512 0.929 . S
C1520 C1521 1.377 . S
C1520 C1522 1.384 . S
C1521 C1520 1.377 . S
C1521 C1527 1.390 . S
C1522 H1513 0.930 . S
C1522 C1520 1.384 . S
C1522 C1523 1.372 . S
C1523 C1522 1.372 . S
C1523 C1524 1.400 . S
C1523 C1528 1.490 . S
C1524 H1514 0.930 . S
C1524 C1523 1.400 . S
C1524 C1527 1.386 . S
H1525 C1541 0.930 . S
H1526 C1542 0.931 . S
C1527 H1515 0.929 . S
C1527 C1521 1.390 . S
C1527 C1524 1.386 . S
C1528 C1523 1.490 . S
C1528 C1530 1.395 . S
C1528 C1531 1.403 . S
H1529 C1535 0.930 . S
C1530 H1516 0.930 . S
C1530 C1528 1.395 . S
C1530 C1533 1.403 . S
C1531 C1528 1.403 . S
C1531 C1532 1.524 . S
C1531 C1535 1.400 . S
C1532 H1517 0.960 . S
C1532 H1518 0.960 . S
C1532 H1519 0.960 . S
C1532 C1531 1.524 . S
C1533 C1530 1.403 . S
C1533 C1534 1.392 . S
C1533 C1537 1.495 . S
C1534 C1533 1.392 . S
C1534 C1535 1.385 . S
C1534 C1536 1.478 . S
C1535 H1529 0.930 . S
C1535 C1531 1.400 . S
C1535 C1534 1.385 . S
C1536 C1534 1.478 . S
C1536 C1538 1.381 . S
C1536 C1542 1.383 . S
C1537 C1533 1.495 . S
C1537 H1543 0.959 . S
C1537 H1544 0.961 . S
C1537 H1545 0.960 . S
C1538 C1536 1.381 . S
C1538 C1539 1.394 . S
C1538 H1546 0.930 . S
C1539 C1538 1.394 . S
C1539 C1540 1.383 . S
C1539 H1547 0.929 . S
C1540 C1539 1.383 . S
C1540 C1541 1.377 . S
C1541 H1525 0.930 . S
C1541 C1540 1.377 . S
C1541 C1542 1.379 . S
C1542 H1526 0.931 . S
C1542 C1536 1.383 . S
C1542 C1541 1.379 . S
H1543 C1537 0.959 . S
H1544 C1537 0.961 . S
H1545 C1537 0.960 . S
H1546 C1538 0.930 . S
H1547 C1539 0.929 . S
H1548 C1556 0.929 . S
H1549 C1558 0.930 . S
H1550 C1560 0.930 . S
H1551 C1563 0.929 . S
H1552 C1566 0.930 . S
H1553 C1568 0.960 . S
H1554 C1568 0.960 . S
H1555 C1568 0.960 . S
C1556 H1548 0.929 . S
C1556 C1557 1.377 . S
C1556 C1558 1.384 . S
C1557 C1556 1.377 . S
C1557 C1563 1.390 . S
C1558 H1549 0.930 . S
C1558 C1556 1.384 . S
C1558 C1559 1.372 . S
C1559 C1558 1.372 . S
C1559 C1560 1.400 . S
C1559 C1564 1.490 . S
C1560 H1550 0.930 . S
C1560 C1559 1.400 . S
C1560 C1563 1.386 . S
H1561 C1577 0.930 . S
H1562 C1578 0.931 . S
C1563 H1551 0.929 . S
C1563 C1557 1.390 . S
C1563 C1560 1.386 . S
C1564 C1559 1.490 . S
C1564 C1566 1.395 . S
C1564 C1567 1.403 . S
H1565 C1571 0.930 . S
C1566 H1552 0.930 . S
C1566 C1564 1.395 . S
C1566 C1569 1.403 . S
C1567 C1564 1.403 . S
C1567 C1568 1.524 . S
C1567 C1571 1.400 . S
C1568 H1553 0.960 . S
C1568 H1554 0.960 . S
C1568 H1555 0.960 . S
C1568 C1567 1.524 . S
C1569 C1566 1.403 . S
C1569 C1570 1.392 . S
C1569 C1573 1.495 . S
C1570 C1569 1.392 . S
C1570 C1571 1.385 . S
C1570 C1572 1.478 . S
C1571 H1565 0.930 . S
C1571 C1567 1.400 . S
C1571 C1570 1.385 . S
C1572 C1570 1.478 . S
C1572 C1574 1.381 . S
C1572 C1578 1.383 . S
C1573 C1569 1.495 . S
C1573 H1579 0.959 . S
C1573 H1580 0.961 . S
C1573 H1581 0.960 . S
C1574 C1572 1.381 . S
C1574 C1575 1.394 . S
C1574 H1582 0.930 . S
C1575 C1574 1.394 . S
C1575 C1576 1.383 . S
C1575 H1583 0.929 . S
C1576 C1575 1.383 . S
C1576 C1577 1.377 . S
C1577 H1561 0.930 . S
C1577 C1576 1.377 . S
C1577 C1578 1.379 . S
C1578 H1562 0.931 . S
C1578 C1572 1.383 . S
C1578 C1577 1.379 . S
H1579 C1573 0.959 . S
H1580 C1573 0.961 . S
H1581 C1573 0.960 . S
H1582 C1574 0.930 . S
H1583 C1575 0.929 . S
H1584 C1592 0.929 . S
H1585 C1594 0.930 . S
H1586 C1596 0.930 . S
H1587 C1599 0.929 . S
H1588 C1602 0.930 . S
H1589 C1604 0.960 . S
H1590 C1604 0.960 . S
H1591 C1604 0.960 . S
C1592 H1584 0.929 . S
C1592 C1593 1.377 . S
C1592 C1594 1.384 . S
C1593 C1592 1.377 . S
C1593 C1599 1.390 . S
C1594 H1585 0.930 . S
C1594 C1592 1.384 . S
C1594 C1595 1.372 . S
C1595 C1594 1.372 . S
C1595 C1596 1.400 . S
C1595 C1600 1.490 . S
C1596 H1586 0.930 . S
C1596 C1595 1.400 . S
C1596 C1599 1.386 . S
H1597 C1613 0.930 . S
H1598 C1614 0.931 . S
C1599 H1587 0.929 . S
C1599 C1593 1.390 . S
C1599 C1596 1.386 . S
C1600 C1595 1.490 . S
C1600 C1602 1.395 . S
C1600 C1603 1.403 . S
H1601 C1607 0.930 . S
C1602 H1588 0.930 . S
C1602 C1600 1.395 . S
C1602 C1605 1.403 . S
C1603 C1600 1.403 . S
C1603 C1604 1.524 . S
C1603 C1607 1.400 . S
C1604 H1589 0.960 . S
C1604 H1590 0.960 . S
C1604 H1591 0.960 . S
C1604 C1603 1.524 . S
C1605 C1602 1.403 . S
C1605 C1606 1.392 . S
C1605 C1609 1.495 . S
C1606 C1605 1.392 . S
C1606 C1607 1.385 . S
C1606 C1608 1.478 . S
C1607 H1601 0.930 . S
C1607 C1603 1.400 . S
C1607 C1606 1.385 . S
C1608 C1606 1.478 . S
C1608 C1610 1.381 . S
C1608 C1614 1.383 . S
C1609 C1605 1.495 . S
C1609 H1615 0.959 . S
C1609 H1616 0.961 . S
C1609 H1617 0.960 . S
C1610 C1608 1.381 . S
C1610 C1611 1.394 . S
C1610 H1618 0.930 . S
C1611 C1610 1.394 . S
C1611 C1612 1.383 . S
C1611 H1619 0.929 . S
C1612 C1611 1.383 . S
C1612 C1613 1.377 . S
C1613 H1597 0.930 . S
C1613 C1612 1.377 . S
C1613 C1614 1.379 . S
C1614 H1598 0.931 . S
C1614 C1608 1.383 . S
C1614 C1613 1.379 . S
H1615 C1609 0.959 . S
H1616 C1609 0.961 . S
H1617 C1609 0.960 . S
H1618 C1610 0.930 . S
H1619 C1611 0.929 . S
H1620 C1628 0.929 . S
H1621 C1630 0.930 . S
H1622 C1632 0.930 . S
H1623 C1635 0.929 . S
H1624 C1638 0.930 . S
H1625 C1640 0.960 . S
H1626 C1640 0.960 . S
H1627 C1640 0.960 . S
C1628 H1620 0.929 . S
C1628 C1629 1.377 . S
C1628 C1630 1.384 . S
C1629 C1628 1.377 . S
C1629 C1635 1.390 . S
C1630 H1621 0.930 . S
C1630 C1628 1.384 . S
C1630 C1631 1.372 . S
C1631 C1630 1.372 . S
C1631 C1632 1.400 . S
C1631 C1636 1.490 . S
C1632 H1622 0.930 . S
C1632 C1631 1.400 . S
C1632 C1635 1.386 . S
H1633 C1649 0.930 . S
H1634 C1650 0.931 . S
C1635 H1623 0.929 . S
C1635 C1629 1.390 . S
C1635 C1632 1.386 . S
C1636 C1631 1.490 . S
C1636 C1638 1.395 . S
C1636 C1639 1.403 . S
H1637 C1643 0.930 . S
C1638 H1624 0.930 . S
C1638 C1636 1.395 . S
C1638 C1641 1.403 . S
C1639 C1636 1.403 . S
C1639 C1640 1.524 . S
C1639 C1643 1.400 . S
C1640 H1625 0.960 . S
C1640 H1626 0.960 . S
C1640 H1627 0.960 . S
C1640 C1639 1.524 . S
C1641 C1638 1.403 . S
C1641 C1642 1.392 . S
C1641 C1645 1.495 . S
C1642 C1641 1.392 . S
C1642 C1643 1.385 . S
C1642 C1644 1.478 . S
C1643 H1637 0.930 . S
C1643 C1639 1.400 . S
C1643 C1642 1.385 . S
C1644 C1642 1.478 . S
C1644 C1646 1.381 . S
C1644 C1650 1.383 . S
C1645 C1641 1.495 . S
C1645 H1651 0.959 . S
C1645 H1652 0.961 . S
C1645 H1653 0.960 . S
C1646 C1644 1.381 . S
C1646 C1647 1.394 . S
C1646 H1654 0.930 . S
C1647 C1646 1.394 . S
C1647 C1648 1.383 . S
C1647 H1655 0.929 . S
C1648 C1647 1.383 . S
C1648 C1649 1.377 . S
C1649 H1633 0.930 . S
C1649 C1648 1.377 . S
C1649 C1650 1.379 . S
C1650 H1634 0.931 . S
C1650 C1644 1.383 . S
C1650 C1649 1.379 . S
H1651 C1645 0.959 . S
H1652 C1645 0.961 . S
H1653 C1645 0.960 . S
H1654 C1646 0.930 . S
H1655 C1647 0.929 . S
H1656 C1664 0.929 . S
H1657 C1666 0.930 . S
H1658 C1668 0.930 . S
H1659 C1671 0.929 . S
H1660 C1674 0.930 . S
H1661 C1676 0.960 . S
H1662 C1676 0.960 . S
H1663 C1676 0.960 . S
C1664 H1656 0.929 . S
C1664 C1665 1.377 . S
C1664 C1666 1.384 . S
C1665 C1664 1.377 . S
C1665 C1671 1.390 . S
C1666 H1657 0.930 . S
C1666 C1664 1.384 . S
C1666 C1667 1.372 . S
C1667 C1666 1.372 . S
C1667 C1668 1.400 . S
C1667 C1672 1.490 . S
C1668 H1658 0.930 . S
C1668 C1667 1.400 . S
C1668 C1671 1.386 . S
H1669 C1685 0.930 . S
H1670 C1686 0.931 . S
C1671 H1659 0.929 . S
C1671 C1665 1.390 . S
C1671 C1668 1.386 . S
C1672 C1667 1.490 . S
C1672 C1674 1.395 . S
C1672 C1675 1.403 . S
H1673 C1679 0.930 . S
C1674 H1660 0.930 . S
C1674 C1672 1.395 . S
C1674 C1677 1.403 . S
C1675 C1672 1.403 . S
C1675 C1676 1.524 . S
C1675 C1679 1.400 . S
C1676 H1661 0.960 . S
C1676 H1662 0.960 . S
C1676 H1663 0.960 . S
C1676 C1675 1.524 . S
C1677 C1674 1.403 . S
C1677 C1678 1.392 . S
C1677 C1681 1.495 . S
C1678 C1677 1.392 . S
C1678 C1679 1.385 . S
C1678 C1680 1.478 . S
C1679 H1673 0.930 . S
C1679 C1675 1.400 . S
C1679 C1678 1.385 . S
C1680 C1678 1.478 . S
C1680 C1682 1.381 . S
C1680 C1686 1.383 . S
C1681 C1677 1.495 . S
C1681 H1687 0.959 . S
C1681 H1688 0.961 . S
C1681 H1689 0.960 . S
C1682 C1680 1.381 . S
C1682 C1683 1.394 . S
C1682 H1690 0.930 . S
C1683 C1682 1.394 . S
C1683 C1684 1.383 . S
C1683 H1691 0.929 . S
C1684 C1683 1.383 . S
C1684 C1685 1.377 . S
C1685 H1669 0.930 . S
C1685 C1684 1.377 . S
C1685 C1686 1.379 . S
C1686 H1670 0.931 . S
C1686 C1680 1.383 . S
C1686 C1685 1.379 . S
H1687 C1681 0.959 . S
H1688 C1681 0.961 . S
H1689 C1681 0.960 . S
H1690 C1682 0.930 . S
H1691 C1683 0.929 . S
H1692 C1700 0.929 . S
H1693 C1702 0.930 . S
H1694 C1704 0.930 . S
H1695 C1707 0.929 . S
H1696 C1710 0.930 . S
H1697 C1712 0.960 . S
H1698 C1712 0.960 . S
H1699 C1712 0.960 . S
C1700 H1692 0.929 . S
C1700 C1701 1.377 . S
C1700 C1702 1.384 . S
C1701 C1700 1.377 . S
C1701 C1707 1.390 . S
C1702 H1693 0.930 . S
C1702 C1700 1.384 . S
C1702 C1703 1.372 . S
C1703 C1702 1.372 . S
C1703 C1704 1.400 . S
C1703 C1708 1.490 . S
C1704 H1694 0.930 . S
C1704 C1703 1.400 . S
C1704 C1707 1.386 . S
H1705 C1721 0.930 . S
H1706 C1722 0.931 . S
C1707 H1695 0.929 . S
C1707 C1701 1.390 . S
C1707 C1704 1.386 . S
C1708 C1703 1.490 . S
C1708 C1710 1.395 . S
C1708 C1711 1.403 . S
H1709 C1715 0.930 . S
C1710 H1696 0.930 . S
C1710 C1708 1.395 . S
C1710 C1713 1.403 . S
C1711 C1708 1.403 . S
C1711 C1712 1.524 . S
C1711 C1715 1.400 . S
C1712 H1697 0.960 . S
C1712 H1698 0.960 . S
C1712 H1699 0.960 . S
C1712 C1711 1.524 . S
C1713 C1710 1.403 . S
C1713 C1714 1.392 . S
C1713 C1717 1.495 . S
C1714 C1713 1.392 . S
C1714 C1715 1.385 . S
C1714 C1716 1.478 . S
C1715 H1709 0.930 . S
C1715 C1711 1.400 . S
C1715 C1714 1.385 . S
C1716 C1714 1.478 . S
C1716 C1718 1.381 . S
C1716 C1722 1.383 . S
C1717 C1713 1.495 . S
C1717 H1723 0.959 . S
C1717 H1724 0.961 . S
C1717 H1725 0.960 . S
C1718 C1716 1.381 . S
C1718 C1719 1.394 . S
C1718 H1726 0.930 . S
C1719 C1718 1.394 . S
C1719 C1720 1.383 . S
C1719 H1727 0.929 . S
C1720 C1719 1.383 . S
C1720 C1721 1.377 . S
C1721 H1705 0.930 . S
C1721 C1720 1.377 . S
C1721 C1722 1.379 . S
C1722 H1706 0.931 . S
C1722 C1716 1.383 . S
C1722 C1721 1.379 . S
H1723 C1717 0.959 . S
H1724 C1717 0.961 . S
H1725 C1717 0.960 . S
H1726 C1718 0.930 . S
H1727 C1719 0.929 . S
C585 C4 1.148 . S
C604 C472 1.154 . S
C621 C400 1.149 . S
C640 C40 1.145 . S
C657 C436 1.146 . S
C676 C76 1.134 . S
C693 C364 1.149 . S
C712 C112 1.146 . S
C729 C148 1.147 . S
C748 C544 1.155 . S
C765 C184 1.149 . S
C784 C328 1.153 . S
C801 C508 1.147 . S
C820 C220 1.135 . S
C837 C256 1.145 . S
C856 C292 1.137 . S
C873 C158 1.589 . S
C892 C14 1.612 . S
C909 C50 1.591 . S
C928 C194 1.601 . S
C945 C86 1.588 . S
C964 C230 1.612 . S
C981 C266 1.591 . S
C1000 C122 1.601 . S
C1017 C302 1.588 . S
C1036 C374 1.611 . S
C1053 C338 1.593 . S
C1072 C410 1.592 . S
C1089 C518 1.588 . S
C1108 C446 1.613 . S
C1125 C482 1.597 . S
C1144 C554 1.569 . S
C1161 C183 1.119 . S
C1180 C3 1.120 . S
C1197 C39 1.119 . S
C1216 C219 1.122 . S
C1233 C75 1.119 . S
C1252 C255 1.118 . S
C1269 C147 1.119 . S
C1288 C111 1.119 . S
C1305 C146 1.318 1_545 S
C1324 C362 1.328 . S
C1341 C74 1.316 1_545 S
C1360 C290 1.318 . S
C1377 C398 1.321 . S
C1396 C218 1.300 1_565 S
C1413 C326 1.321 . S
C1432 C2 1.300 1_565 S
C1449 C291 1.118 . S
C1468 C435 1.117 . S
C1485 C363 1.117 . S
C1504 C543 1.112 . S
C1521 C471 1.118 . S
C1540 C327 1.114 . S
C1557 C399 1.117 . S
C1576 C507 1.112 . S
C1593 C506 1.322 . S
C1612 C38 1.308 . S
C1629 C470 1.317 . S
C1648 C182 1.311 . S
C1665 C542 1.317 . S
C1684 C110 1.330 . S
C1701 C434 1.321 . S
C1720 C254 1.313 . S
