# Generated by pormake.
# Topology yfl, (5)-cn, num edge types: 1
# Building blocks:
#     Node 0, Type 0, BuildingBlock: XOMCOT_clean_sbu_1, # of connection points: 5
#     Node 1, Type 0, BuildingBlock: XOMCOT_clean_sbu_1, # of connection points: 5
#     Node 2, Type 0, BuildingBlock: XOMCOT_clean_sbu_1, # of connection points: 5
#     Node 3, Type 0, BuildingBlock: XOMCOT_clean_sbu_1, # of connection points: 5
#     Node 4, Type 0, BuildingBlock: XOMCOT_clean_sbu_1, # of connection points: 5
#     Node 5, Type 0, BuildingBlock: XOMCOT_clean_sbu_1, # of connection points: 5
#     Node 6, Type 0, BuildingBlock: XOMCOT_clean_sbu_1, # of connection points: 5
#     Node 7, Type 0, BuildingBlock: XOMCOT_clean_sbu_1, # of connection points: 5
#     Node 8, Type 0, BuildingBlock: XOMCOT_clean_sbu_1, # of connection points: 5
#     Node 9, Type 0, BuildingBlock: XOMCOT_clean_sbu_1, # of connection points: 5
#     Node 10, Type 0, BuildingBlock: XOMCOT_clean_sbu_1, # of connection points: 5
#     Node 11, Type 0, BuildingBlock: XOMCOT_clean_sbu_1, # of connection points: 5
#     Node 12, Type 0, BuildingBlock: XOMCOT_clean_sbu_1, # of connection points: 5
#     Node 13, Type 0, BuildingBlock: XOMCOT_clean_sbu_1, # of connection points: 5
#     Node 14, Type 0, BuildingBlock: XOMCOT_clean_sbu_1, # of connection points: 5
#     Node 15, Type 0, BuildingBlock: XOMCOT_clean_sbu_1, # of connection points: 5
#     Edge 16, Type (0, 0), BuildingBlock: CIFDUS_clean_linker_0, # of connection points: 2
#     Edge 17, Type (0, 0), BuildingBlock: CIFDUS_clean_linker_0, # of connection points: 2
#     Edge 18, Type (0, 0), BuildingBlock: CIFDUS_clean_linker_0, # of connection points: 2
#     Edge 19, Type (0, 0), BuildingBlock: CIFDUS_clean_linker_0, # of connection points: 2
#     Edge 20, Type (0, 0), BuildingBlock: CIFDUS_clean_linker_0, # of connection points: 2
#     Edge 21, Type (0, 0), BuildingBlock: CIFDUS_clean_linker_0, # of connection points: 2
#     Edge 22, Type (0, 0), BuildingBlock: CIFDUS_clean_linker_0, # of connection points: 2
#     Edge 23, Type (0, 0), BuildingBlock: CIFDUS_clean_linker_0, # of connection points: 2
#     Edge 24, Type (0, 0), BuildingBlock: CIFDUS_clean_linker_0, # of connection points: 2
#     Edge 25, Type (0, 0), BuildingBlock: CIFDUS_clean_linker_0, # of connection points: 2
#     Edge 26, Type (0, 0), BuildingBlock: CIFDUS_clean_linker_0, # of connection points: 2
#     Edge 27, Type (0, 0), BuildingBlock: CIFDUS_clean_linker_0, # of connection points: 2
#     Edge 28, Type (0, 0), BuildingBlock: CIFDUS_clean_linker_0, # of connection points: 2
#     Edge 29, Type (0, 0), BuildingBlock: CIFDUS_clean_linker_0, # of connection points: 2
#     Edge 30, Type (0, 0), BuildingBlock: CIFDUS_clean_linker_0, # of connection points: 2
#     Edge 31, Type (0, 0), BuildingBlock: CIFDUS_clean_linker_0, # of connection points: 2
#     Edge 32, Type (0, 0), BuildingBlock: CIFDUS_clean_linker_0, # of connection points: 2
#     Edge 33, Type (0, 0), BuildingBlock: CIFDUS_clean_linker_0, # of connection points: 2
#     Edge 34, Type (0, 0), BuildingBlock: CIFDUS_clean_linker_0, # of connection points: 2
#     Edge 35, Type (0, 0), BuildingBlock: CIFDUS_clean_linker_0, # of connection points: 2
#     Edge 36, Type (0, 0), BuildingBlock: CIFDUS_clean_linker_0, # of connection points: 2
#     Edge 37, Type (0, 0), BuildingBlock: CIFDUS_clean_linker_0, # of connection points: 2
#     Edge 38, Type (0, 0), BuildingBlock: CIFDUS_clean_linker_0, # of connection points: 2
#     Edge 39, Type (0, 0), BuildingBlock: CIFDUS_clean_linker_0, # of connection points: 2
#     Edge 40, Type (0, 0), BuildingBlock: CIFDUS_clean_linker_0, # of connection points: 2
#     Edge 41, Type (0, 0), BuildingBlock: CIFDUS_clean_linker_0, # of connection points: 2
#     Edge 42, Type (0, 0), BuildingBlock: CIFDUS_clean_linker_0, # of connection points: 2
#     Edge 43, Type (0, 0), BuildingBlock: CIFDUS_clean_linker_0, # of connection points: 2
#     Edge 44, Type (0, 0), BuildingBlock: CIFDUS_clean_linker_0, # of connection points: 2
#     Edge 45, Type (0, 0), BuildingBlock: CIFDUS_clean_linker_0, # of connection points: 2
#     Edge 46, Type (0, 0), BuildingBlock: CIFDUS_clean_linker_0, # of connection points: 2
#     Edge 47, Type (0, 0), BuildingBlock: CIFDUS_clean_linker_0, # of connection points: 2
#     Edge 48, Type (0, 0), BuildingBlock: CIFDUS_clean_linker_0, # of connection points: 2
#     Edge 49, Type (0, 0), BuildingBlock: CIFDUS_clean_linker_0, # of connection points: 2
#     Edge 50, Type (0, 0), BuildingBlock: CIFDUS_clean_linker_0, # of connection points: 2
#     Edge 51, Type (0, 0), BuildingBlock: CIFDUS_clean_linker_0, # of connection points: 2
#     Edge 52, Type (0, 0), BuildingBlock: CIFDUS_clean_linker_0, # of connection points: 2
#     Edge 53, Type (0, 0), BuildingBlock: CIFDUS_clean_linker_0, # of connection points: 2
#     Edge 54, Type (0, 0), BuildingBlock: CIFDUS_clean_linker_0, # of connection points: 2
#     Edge 55, Type (0, 0), BuildingBlock: CIFDUS_clean_linker_0, # of connection points: 2
# Relax obj value: 0.510
# Max RMSD: 0.267
# Mean RMSD: 0.267
data_MOF--net-yfl--node1-XOMCOT_clean_sbu_1--edge1-CIFDUS_clean_linker_0
_symmetry_space_group_name_H-M    P1
_symmetry_Int_Tables_number       1
_symmetry_cell_setting            triclinic
loop_
_symmetry_equiv_pos_as_xyz
'x, y, z'
_cell_length_a     25.275532
_cell_length_b     25.163184
_cell_length_c     96.13404
_cell_angle_alpha  89.979689
_cell_angle_beta   90.068668
_cell_angle_gamma 90.094434
loop_
_atom_site_label
_atom_site_type_symbol
_atom_site_fract_x
_atom_site_fract_y
_atom_site_fract_z
_atom_type_partial_charge
C0 C 0.0592 0.26541 0.28832 0.0
C1 C 0.03157 0.25996 0.2761 0.0
N2 N 0.98488 0.28508 0.27755 0.0
N3 N 0.03011 0.29416 0.29731 0.0
C4 C 0.98496 0.30541 0.29053 0.0
H5 H 0.09772 0.24891 0.2906 0.0
Co6 Co 0.04906 0.30737 0.31536 0.0
C7 C 0.00864 0.41508 0.32279 0.0
O8 O 0.05345 0.41908 0.32965 0.0
N9 N 0.0674 0.31768 0.33398 0.0
C10 C 0.05416 0.32087 0.35681 0.0
C11 C 0.03021 0.32 0.34404 0.0
C12 C 0.11381 0.31639 0.34093 0.0
N13 N 0.1068 0.31838 0.35486 0.0
O14 O 1.00026 0.25055 0.3211 0.0
H15 H 0.988 0.31933 0.34219 0.0
H16 H 0.15184 0.31246 0.33596 0.0
O17 O 0.99687 0.36994 0.31696 0.0
C18 C 0.03033 0.20939 0.32193 0.0
O19 O 0.0815 0.21697 0.32046 0.0
N20 N 0.10154 0.35434 0.30843 0.0
C21 C 0.16847 0.385 0.28682 0.0
C22 C 0.12145 0.4123 0.28927 0.0
C23 C 0.08782 0.3953 0.29974 0.0
C24 C 0.1503 0.33138 0.30714 0.0
C25 C 0.1846 0.34613 0.29633 0.0
H26 H 0.04794 0.40972 0.299 0.0
H27 H 0.15941 0.29592 0.31299 0.0
H28 H 0.95223 0.32672 0.29514 0.0
H29 H 0.04491 0.23941 0.26687 0.0
H30 H 0.03413 0.32041 0.36675 0.0
H31 H 0.10743 0.44194 0.28196 0.0
H32 H 0.22031 0.32341 0.29453 0.0
C33 C 0.18312 0.05143 0.68604 0.0
C34 C 0.19124 0.09448 0.69457 0.0
N35 N 0.24194 0.09386 0.69897 0.0
N36 N 0.22852 0.0238 0.68488 0.0
C37 C 0.26385 0.05157 0.69251 0.0
H38 H 0.14531 0.03886 0.68195 0.0
Co39 Co 0.23396 0.95469 0.67802 0.0
C40 C 0.34292 0.94494 0.66507 0.0
O41 O 0.34241 0.89449 0.66858 0.0
N42 N 0.23716 0.88525 0.67119 0.0
C43 C 0.23766 0.79757 0.66844 0.0
C44 C 0.23255 0.83826 0.67789 0.0
C45 C 0.24308 0.87212 0.65769 0.0
N46 N 0.24487 0.81917 0.65578 0.0
O47 O 0.18828 0.97462 0.6624 0.0
H48 H 0.22658 0.83333 0.68893 0.0
H49 H 0.24794 0.90111 0.64947 0.0
O50 O 0.30218 0.97402 0.66792 0.0
C51 C 0.14231 0.95328 0.6637 0.0
O52 O 0.13503 0.91921 0.67389 0.0
N53 N 0.27079 0.93461 0.69436 0.0
C54 C 0.30701 0.90495 0.72072 0.0
C55 C 0.34237 0.92251 0.71048 0.0
C56 C 0.32351 0.93789 0.69748 0.0
C57 C 0.23567 0.91961 0.70438 0.0
C58 C 0.25285 0.90414 0.71758 0.0
H59 H 0.35164 0.95497 0.69044 0.0
H60 H 0.19381 0.9193 0.70201 0.0
H61 H 0.30368 0.0382 0.69433 0.0
H62 H 0.1608 0.12152 0.69804 0.0
H63 H 0.23823 0.7555 0.67079 0.0
H64 H 0.38454 0.92432 0.71244 0.0
H65 H 0.22393 0.89205 0.72526 0.0
C66 C 0.99581 0.87547 0.27584 0.0
C67 C 0.03384 0.86289 0.26618 0.0
N68 N 0.04163 0.80995 0.26654 0.0
N69 N 0.97964 0.8307 0.28226 0.0
C70 C 0.00947 0.79176 0.27668 0.0
H71 H 0.97767 0.91402 0.27711 0.0
Co72 Co 0.91715 0.82491 0.29226 0.0
C73 C 0.91681 0.71595 0.30544 0.0
O74 O 0.86579 0.71525 0.30283 0.0
N75 N 0.85411 0.82085 0.30237 0.0
C76 C 0.7715 0.81856 0.31018 0.0
C77 C 0.80268 0.82255 0.29853 0.0
C78 C 0.85301 0.81714 0.31635 0.0
N79 N 0.80341 0.81493 0.32136 0.0
O80 O 0.9445 0.87668 0.306 0.0
H81 H 0.78802 0.82638 0.28805 0.0
H82 H 0.88832 0.8158 0.32271 0.0
O83 O 0.94397 0.7581 0.30231 0.0
C84 C 0.92097 0.92043 0.3028 0.0
O85 O 0.8875 0.91918 0.29233 0.0
N86 N 0.88838 0.78408 0.27759 0.0
C87 C 0.83802 0.74143 0.25436 0.0
C88 C 0.87203 0.71012 0.26242 0.0
C89 C 0.89751 0.73239 0.2739 0.0
C90 C 0.8593 0.81598 0.26906 0.0
C91 C 0.83264 0.79529 0.25758 0.0
H92 H 0.92479 0.70768 0.27952 0.0
H93 H 0.85544 0.85776 0.27145 0.0
H94 H 1.00376 0.7501 0.2789 0.0
H95 H 0.05101 0.88997 0.25868 0.0
H96 H 0.7287 0.81748 0.31035 0.0
H97 H 0.87815 0.6685 0.26004 0.0
H98 H 0.80797 0.82112 0.25133 0.0
C99 C 0.80492 0.9572 0.68492 0.0
C100 C 0.79371 0.9192 0.69475 0.0
N101 N 0.74102 0.91868 0.69683 0.0
N102 N 0.75945 0.9804 0.68084 0.0
C103 C 0.72114 0.95568 0.68815 0.0
H104 H 0.844 0.96959 0.68171 0.0
Co105 Co 0.75365 0.04151 0.67027 0.0
C106 C 0.64741 0.03076 0.65484 0.0
O107 O 0.64997 0.07945 0.65001 0.0
N108 N 0.74942 0.10374 0.65978 0.0
C109 C 0.75383 0.1887 0.6536 0.0
C110 C 0.74969 0.15419 0.6646 0.0
C111 C 0.75431 0.10864 0.64585 0.0
N112 N 0.75672 0.15984 0.64185 0.0
O113 O 0.80068 0.0096 0.65651 0.0
H114 H 0.74901 0.16552 0.67543 0.0
H115 H 0.75746 0.07524 0.63881 0.0
O116 O 0.68644 0.01195 0.66193 0.0
C117 C 0.84644 0.03172 0.65745 0.0
O118 O 0.8513 0.07347 0.66556 0.0
N119 N 0.71599 0.07366 0.68477 0.0
C120 C 0.67853 0.12677 0.70813 0.0
C121 C 0.64461 0.11516 0.697 0.0
C122 C 0.6641 0.08855 0.68537 0.0
C123 C 0.74932 0.08441 0.69557 0.0
C124 C 0.73141 0.11067 0.70739 0.0
H125 H 0.6373 0.0814 0.67695 0.0
H126 H 0.79053 0.07323 0.69485 0.0
H127 H 0.68011 0.96801 0.68808 0.0
H128 H 0.82234 0.89605 0.70053 0.0
H129 H 0.75536 0.23163 0.6542 0.0
H130 H 0.60334 0.12669 0.69725 0.0
H131 H 0.75903 0.11954 0.7157 0.0
C132 C 0.97216 0.32732 0.94343 0.0
C133 C 0.93225 0.31357 0.95248 0.0
N134 N 0.93328 0.26045 0.95421 0.0
N135 N 0.99833 0.28301 0.93965 0.0
C136 C 0.97317 0.24288 0.94618 0.0
H137 H 0.98413 0.36732 0.94077 0.0
Co138 Co 0.06348 0.2799 0.931 0.0
C139 C 0.02623 0.18178 0.91244 0.0
O140 O 0.01185 0.20513 0.90082 0.0
N141 N 0.12848 0.27679 0.92237 0.0
C142 C 0.21452 0.27887 0.91811 0.0
C143 C 0.17613 0.28859 0.92788 0.0
C144 C 0.13846 0.26107 0.90928 0.0
N145 N 0.1906 0.26138 0.90642 0.0
O146 O 0.03634 0.32616 0.91609 0.0
H147 H 0.18247 0.30248 0.9384 0.0
H148 H 0.10789 0.25032 0.90194 0.0
O149 O 0.04349 0.21013 0.92256 0.0
C150 C 0.05698 0.37268 0.91767 0.0
O151 O 0.09305 0.37865 0.9274 0.0
N152 N 0.09153 0.24281 0.94622 0.0
C153 C 0.14025 0.19977 0.96962 0.0
C154 C 0.142 0.17307 0.95682 0.0
C155 C 0.11741 0.19537 0.9452 0.0
C156 C 0.08995 0.26946 0.95856 0.0
C157 C 0.11332 0.24825 0.97045 0.0
H158 H 0.12117 0.17564 0.93527 0.0
H159 H 0.07132 0.30806 0.9591 0.0
H160 H 0.98765 0.20241 0.94635 0.0
H161 H 0.90718 0.34075 0.95818 0.0
H162 H 0.25672 0.28333 0.91962 0.0
H163 H 0.16288 0.13573 0.95577 0.0
H164 H 0.11212 0.27057 0.98008 0.0
C165 C 0.32101 0.05895 0.05302 0.0
C166 C 0.30756 0.10048 0.04441 0.0
N167 N 0.25581 0.09609 0.04129 0.0
N168 N 0.27794 0.02839 0.05524 0.0
C169 C 0.23871 0.05258 0.04809 0.0
H170 H 0.36071 0.04898 0.05627 0.0
Co171 Co 0.27824 0.95875 0.06181 0.0
C172 C 0.1792 1.00609 0.07658 0.0
O173 O 0.19579 0.05553 0.07718 0.0
N174 N 0.27879 0.88903 0.068 0.0
C175 C 0.29158 0.80181 0.06856 0.0
C176 C 0.30242 0.84799 0.06147 0.0
C177 C 0.25354 0.86708 0.07893 0.0
N178 N 0.26052 0.81407 0.07944 0.0
O179 O 0.32429 0.9802 0.07728 0.0
H180 H 0.32501 0.85138 0.05196 0.0
H181 H 0.2301 0.88926 0.08633 0.0
O182 O 0.20988 0.97015 0.0717 0.0
C183 C 0.37138 0.96373 0.07458 0.0
O184 O 0.37838 0.93533 0.06328 0.0
N185 N 0.24118 0.93678 0.04605 0.0
C186 C 0.1967 0.90572 0.02092 0.0
C187 C 0.16771 0.90156 0.03329 0.0
C188 C 0.19102 0.91662 0.04583 0.0
C189 C 0.27026 0.94003 0.03416 0.0
C190 C 0.24869 0.92487 0.02143 0.0
H191 H 0.16897 0.91116 0.05529 0.0
H192 H 0.31046 0.95477 0.03461 0.0
H193 H 0.1999 0.03524 0.04656 0.0
H194 H 0.33458 0.12898 0.03985 0.0
H195 H 0.30393 0.76213 0.06568 0.0
H196 H 0.1279 0.88554 0.0333 0.0
H197 H 0.27233 0.92833 0.01208 0.0
C198 C 0.05869 0.70739 0.93962 0.0
C199 C 0.09836 0.71525 0.9492 0.0
N200 N 0.1034 0.76785 0.95128 0.0
N201 N 0.03931 0.75496 0.93559 0.0
C202 C 0.06777 0.79095 0.94281 0.0
H203 H 0.04279 0.66923 0.93663 0.0
Co204 Co 0.97959 0.76881 0.92489 0.0
C205 C 0.01125 0.86007 0.90616 0.0
O206 O 0.99409 0.83363 0.89526 0.0
N207 N 0.91861 0.78373 0.914 0.0
C208 C 0.85076 0.82644 0.90423 0.0
C209 C 0.88743 0.82735 0.91474 0.0
C210 C 0.8995 0.7571 0.90283 0.0
N211 N 0.85857 0.78222 0.8967 0.0
O212 O 0.00858 0.72143 0.91051 0.0
H213 H 0.89205 0.85978 0.92192 0.0
H214 H 0.91586 0.72068 0.89889 0.0
O215 O 0.01245 0.83644 0.91797 0.0
C216 C 0.98783 0.67538 0.91287 0.0
O217 O 0.94919 0.67277 0.92199 0.0
N218 N 0.9506 0.80501 0.94007 0.0
C219 C 0.91642 0.84031 0.96604 0.0
C220 C 0.93535 0.87641 0.95606 0.0
C221 C 0.953 0.85788 0.9432 0.0
C222 C 0.93093 0.76964 0.94943 0.0
C223 C 0.91425 0.78622 0.96252 0.0
H224 H 0.96811 0.88618 0.93583 0.0
H225 H 0.93048 0.72776 0.94691 0.0
H226 H 0.06027 0.83325 0.94257 0.0
H227 H 0.11859 0.68469 0.95508 0.0
H228 H 0.82243 0.85743 0.90193 0.0
H229 H 0.93668 0.91869 0.9581 0.0
H230 H 0.9012 0.75649 0.9699 0.0
C231 C 0.71591 0.94918 0.05104 0.0
C232 C 0.72683 0.91061 0.04136 0.0
N233 N 0.77796 0.9153 0.03753 0.0
N234 N 0.75994 0.97797 0.05342 0.0
C235 C 0.79721 0.95591 0.04522 0.0
H236 H 0.67716 0.95842 0.05508 0.0
Co237 Co 0.76218 0.04343 0.06235 0.0
C238 C 0.86061 0.98719 0.07518 0.0
O239 O 0.84412 0.93802 0.07362 0.0
N240 N 0.76415 0.10873 0.07113 0.0
C241 C 0.75957 0.19473 0.07601 0.0
C242 C 0.75735 0.1575 0.06556 0.0
C243 C 0.77001 0.117 0.08487 0.0
N244 N 0.76719 0.16891 0.08811 0.0
O245 O 0.71529 0.01527 0.07694 0.0
H246 H 0.74978 0.16535 0.05468 0.0
H247 H 0.77479 0.08536 0.0924 0.0
O248 O 0.83006 0.02568 0.07178 0.0
C249 C 0.66916 0.03659 0.07584 0.0
O250 O 0.663 0.07512 0.06675 0.0
N251 N 0.80006 0.07227 0.04745 0.0
C252 C 0.84139 0.12468 0.02443 0.0
C253 C 0.87048 0.12146 0.03684 0.0
C254 C 0.84902 0.09505 0.04829 0.0
C255 C 0.77151 0.07469 0.03544 0.0
C256 C 0.79172 0.10013 0.02373 0.0
H257 H 0.87067 0.09534 0.05794 0.0
H258 H 0.7321 0.0579 0.03509 0.0
H259 H 0.83665 0.97212 0.04424 0.0
H260 H 0.69788 0.88458 0.03662 0.0
H261 H 0.75331 0.23708 0.07492 0.0
H262 H 0.90893 0.14021 0.03777 0.0
H263 H 0.76769 0.1026 0.01441 0.0
C264 C 0.459 0.6739 0.7944 0.0
C265 C 0.41582 0.68701 0.7864 0.0
N266 N 0.41526 0.74022 0.78462 0.0
N267 N 0.48554 0.71859 0.79768 0.0
C268 C 0.45767 0.75826 0.79178 0.0
H269 H 0.47202 0.6341 0.79686 0.0
Co270 Co 0.55174 0.72269 0.80589 0.0
C271 C 0.51721 0.82183 0.82482 0.0
O272 O 0.50798 0.80162 0.83718 0.0
N273 N 0.61774 0.72643 0.81412 0.0
C274 C 0.70409 0.72372 0.81804 0.0
C275 C 0.66508 0.7163 0.80825 0.0
C276 C 0.62857 0.73901 0.82742 0.0
N277 N 0.6809 0.73809 0.83009 0.0
O278 O 0.52727 0.67464 0.82067 0.0
H279 H 0.67075 0.7046 0.79753 0.0
H280 H 0.59842 0.7475 0.83505 0.0
O281 O 0.53161 0.79103 0.81491 0.0
C282 C 0.54851 0.62882 0.81855 0.0
O283 O 0.58326 0.62475 0.80845 0.0
N284 N 0.5772 0.76205 0.79081 0.0
C285 C 0.62383 0.80882 0.76765 0.0
C286 C 0.62562 0.83413 0.78064 0.0
C287 C 0.60228 0.8099 0.79214 0.0
C288 C 0.57501 0.73696 0.77826 0.0
C289 C 0.5975 0.76 0.76648 0.0
H290 H 0.60654 0.82849 0.8022 0.0
H291 H 0.55691 0.69811 0.77747 0.0
H292 H 0.47038 0.79922 0.79208 0.0
H293 H 0.38944 0.65893 0.78142 0.0
H294 H 0.74618 0.71957 0.81634 0.0
H295 H 0.64589 0.87176 0.78195 0.0
H296 H 0.59626 0.73873 0.75669 0.0
C297 C 0.63705 0.518 0.18761 0.0
C298 C 0.65396 0.56486 0.19354 0.0
N299 N 0.70468 0.55866 0.19756 0.0
N300 N 0.677 0.48253 0.18787 0.0
C301 C 0.71743 0.50851 0.19403 0.0
H302 H 0.59778 0.51019 0.18365 0.0
Co303 Co 0.67652 0.41193 0.18203 0.0
C304 C 0.77424 0.45928 0.16661 0.0
O305 O 0.75754 0.50857 0.16578 0.0
N306 N 0.67636 0.342 0.17619 0.0
C307 C 0.67426 0.25405 0.17473 0.0
C308 C 0.66533 0.2971 0.18328 0.0
C309 C 0.69096 0.32579 0.16346 0.0
N310 N 0.69085 0.27248 0.16231 0.0
O311 O 0.62906 0.43068 0.16679 0.0
H312 H 0.65285 0.2958 0.19404 0.0
H313 H 0.70136 0.35297 0.15518 0.0
O314 O 0.74369 0.4233 0.17158 0.0
C315 C 0.58285 0.41288 0.16988 0.0
O316 O 0.57778 0.38484 0.18134 0.0
N317 N 0.71643 0.39224 0.19751 0.0
C318 C 0.77191 0.3669 0.22153 0.0
C319 C 0.79293 0.35509 0.20841 0.0
C320 C 0.76427 0.36753 0.19652 0.0
C321 C 0.69413 0.40169 0.21017 0.0
C322 C 0.7216 0.38997 0.22238 0.0
H323 H 0.78047 0.35678 0.18654 0.0
H324 H 0.65524 0.41944 0.21077 0.0
H325 H 0.75517 0.49018 0.19628 0.0
H326 H 0.63044 0.60034 0.19494 0.0
H327 H 0.6701 0.21261 0.17754 0.0
H328 H 0.83162 0.33714 0.2073 0.0
H329 H 0.70369 0.39873 0.23234 0.0
C330 C 0.53106 0.30093 0.79108 0.0
C331 C 0.56835 0.29803 0.78075 0.0
N332 N 0.58518 0.2474 0.77993 0.0
N333 N 0.52451 0.25238 0.79677 0.0
C334 C 0.5587 0.22078 0.78991 0.0
H335 H 0.5074 0.33543 0.79347 0.0
Co336 Co 0.46996 0.23367 0.80862 0.0
C337 C 0.51146 0.14469 0.8263 0.0
O338 O 0.50111 0.17356 0.83735 0.0
N339 N 0.41417 0.21432 0.82053 0.0
C340 C 0.35298 0.16579 0.83136 0.0
C341 C 0.38636 0.16835 0.82011 0.0
C342 C 0.39669 0.23886 0.83212 0.0
N343 N 0.35996 0.21017 0.83893 0.0
O344 O 0.50252 0.27948 0.82279 0.0
H345 H 0.39167 0.13722 0.8125 0.0
H346 H 0.41122 0.27647 0.83583 0.0
O347 O 0.50653 0.16617 0.81427 0.0
C348 C 0.48041 0.32538 0.8215 0.0
O349 O 0.4382 0.32867 0.81354 0.0
N350 N 0.43685 0.19891 0.79384 0.0
C351 C 0.39386 0.17066 0.76821 0.0
C352 C 0.42979 0.13698 0.77501 0.0
C353 C 0.45104 0.15193 0.78783 0.0
C354 C 0.40038 0.23098 0.78769 0.0
C355 C 0.37828 0.21764 0.77487 0.0
H356 H 0.48054 0.12688 0.79248 0.0
H357 H 0.39044 0.26855 0.79247 0.0
H358 H 0.56045 0.17814 0.79122 0.0
H359 H 0.57925 0.32975 0.7737 0.0
H360 H 0.32748 0.1328 0.83407 0.0
H361 H 0.44232 0.09997 0.77031 0.0
H362 H 0.35112 0.24511 0.76996 0.0
C363 C 0.24831 0.52693 0.19522 0.0
C364 C 0.25456 0.50434 0.20808 0.0
N365 N 0.22158 0.46236 0.20906 0.0
N366 N 0.21159 0.4996 0.18801 0.0
C367 C 0.19618 0.46014 0.19664 0.0
H368 H 0.26743 0.56278 0.19157 0.0
Co369 Co 0.18966 0.52301 0.17065 0.0
C370 C 0.09334 0.43642 0.16949 0.0
O371 O 0.10754 0.38628 0.17009 0.0
N372 N 0.17002 0.54814 0.15311 0.0
C373 C 0.131 0.56767 0.13295 0.0
C374 C 0.12693 0.53891 0.1451 0.0
C375 C 0.19975 0.58192 0.14553 0.0
N376 N 0.17712 0.59415 0.1333 0.0
O377 O 0.2399 0.474 0.16223 0.0
H378 H 0.09476 0.51263 0.14765 0.0
H379 H 0.23685 0.59865 0.149 0.0
O380 O 0.1297 0.47212 0.16991 0.0
C381 C 0.28561 0.49609 0.16136 0.0
O382 O 0.28985 0.54618 0.16501 0.0
N383 N 0.14658 0.57318 0.17941 0.0
C384 C 0.11017 0.64921 0.19811 0.0
C385 C 0.09257 0.5965 0.19896 0.0
C386 C 0.11153 0.55896 0.18957 0.0
C387 C 0.16203 0.62484 0.178 0.0
C388 C 0.14376 0.66374 0.18716 0.0
H389 H 0.10098 0.51784 0.19117 0.0
H390 H 0.19199 0.63534 0.17048 0.0
H391 H 0.16552 0.43184 0.19406 0.0
H392 H 0.27899 0.52006 0.21636 0.0
H393 H 0.10298 0.5683 0.12442 0.0
H394 H 0.06646 0.58383 0.20726 0.0
H395 H 0.15887 0.70391 0.1863 0.0
C396 C 0.45497 0.80859 0.4341 0.0
C397 C 0.42266 0.79287 0.44486 0.0
N398 N 0.43512 0.74251 0.44826 0.0
N399 N 0.48757 0.7682 0.43072 0.0
C400 C 0.47283 0.72797 0.43915 0.0
H401 H 0.45842 0.84874 0.43022 0.0
Co402 Co 0.55278 0.77341 0.42169 0.0
C403 C 0.50108 0.67558 0.40796 0.0
O404 O 0.45221 0.69144 0.40998 0.0
N405 N 0.61722 0.77907 0.41293 0.0
C406 C 0.69989 0.79962 0.40733 0.0
C407 C 0.66503 0.79222 0.41817 0.0
C408 C 0.62368 0.77848 0.39907 0.0
N409 N 0.67323 0.79157 0.39538 0.0
O410 O 0.52225 0.82069 0.40761 0.0
H411 H 0.67327 0.79871 0.42908 0.0
H412 H 0.59184 0.77113 0.39177 0.0
O413 O 0.53958 0.70625 0.41132 0.0
C414 C 0.5375 0.86716 0.41145 0.0
O415 O 0.56373 0.87133 0.42322 0.0
N416 N 0.585 0.73499 0.43607 0.0
C417 C 0.62932 0.68782 0.45955 0.0
C418 C 0.62829 0.66082 0.44677 0.0
C419 C 0.60641 0.68537 0.43507 0.0
C420 C 0.58748 0.76255 0.44825 0.0
C421 C 0.60913 0.73961 0.46015 0.0
H422 H 0.60707 0.66452 0.42528 0.0
H423 H 0.57144 0.80233 0.44876 0.0
H424 H 0.49379 0.69059 0.43973 0.0
H425 H 0.39709 0.81864 0.45085 0.0
H426 H 0.7405 0.81303 0.4081 0.0
H427 H 0.64484 0.62133 0.44577 0.0
H428 H 0.60892 0.76184 0.46979 0.0
C429 C 0.83993 0.5534 0.54027 0.0
C430 C 0.82668 0.59521 0.5317 0.0
N431 N 0.77552 0.58978 0.52803 0.0
N432 N 0.79715 0.52201 0.54203 0.0
C433 C 0.75838 0.54587 0.53468 0.0
H434 H 0.87922 0.54449 0.54404 0.0
Co435 Co 0.79478 0.45383 0.54957 0.0
C436 C 0.69422 0.46308 0.56886 0.0
O437 O 0.71277 0.43757 0.5797 0.0
N438 N 0.79303 0.38499 0.55701 0.0
C439 C 0.79444 0.29717 0.5598 0.0
C440 C 0.79129 0.33783 0.55027 0.0
C441 C 0.79908 0.37185 0.5705 0.0
N442 N 0.79957 0.31894 0.5725 0.0
O443 O 0.84193 0.47736 0.56473 0.0
H444 H 0.78904 0.33291 0.53912 0.0
H445 H 0.80356 0.40066 0.57875 0.0
O446 O 0.72467 0.47204 0.5584 0.0
C447 C 0.88787 0.4577 0.56196 0.0
O448 O 0.89184 0.42631 0.55109 0.0
N449 N 0.75795 0.43014 0.53395 0.0
C450 C 0.71752 0.39115 0.50911 0.0
C451 C 0.6866 0.39057 0.52122 0.0
C452 C 0.70764 0.41025 0.53362 0.0
C453 C 0.78839 0.43096 0.52227 0.0
C454 C 0.76876 0.41219 0.50969 0.0
H455 H 0.68423 0.40747 0.54296 0.0
H456 H 0.82857 0.44568 0.52283 0.0
H457 H 0.71931 0.529 0.53335 0.0
H458 H 0.85376 0.6245 0.52752 0.0
H459 H 0.79412 0.25504 0.55754 0.0
H460 H 0.64691 0.37428 0.52115 0.0
H461 H 0.79418 0.41231 0.50062 0.0
C462 C 0.59904 0.2256 0.4231 0.0
C463 C 0.64398 0.24272 0.42982 0.0
N464 N 0.63602 0.29293 0.43413 0.0
N465 N 0.56252 0.26464 0.42339 0.0
C466 C 0.58693 0.30548 0.42988 0.0
H467 H 0.59195 0.18541 0.41964 0.0
Co468 Co 0.48979 0.25787 0.42024 0.0
C469 C 0.52191 0.35666 0.4033 0.0
O470 O 0.57061 0.34083 0.40101 0.0
N471 N 0.4181 0.2507 0.41714 0.0
C472 C 0.33184 0.23672 0.41928 0.0
C473 C 0.37973 0.23604 0.42612 0.0
C474 C 0.39331 0.25886 0.40495 0.0
N475 N 0.34091 0.25077 0.40598 0.0
O476 O 0.50246 0.21012 0.40456 0.0
H477 H 0.38619 0.22605 0.43693 0.0
H478 H 0.41326 0.27138 0.39554 0.0
O479 O 0.48921 0.32525 0.40935 0.0
C480 C 0.49396 0.16424 0.41003 0.0
O481 O 0.48427 0.16195 0.42345 0.0
N482 N 0.47512 0.2969 0.43641 0.0
C483 C 0.44122 0.3385 0.46163 0.0
C484 C 0.42609 0.36229 0.44908 0.0
C485 C 0.44361 0.34094 0.43653 0.0
C486 C 0.49078 0.27372 0.44857 0.0
C487 C 0.47506 0.29457 0.46136 0.0
H488 H 0.42884 0.35771 0.42697 0.0
H489 H 0.51421 0.2378 0.44831 0.0
H490 H 0.56673 0.34139 0.43307 0.0
H491 H 0.67723 0.21813 0.43281 0.0
H492 H 0.29351 0.22738 0.42366 0.0
H493 H 0.39948 0.396 0.44897 0.0
H494 H 0.48684 0.27488 0.47089 0.0
C495 C 0.2225 0.505 0.53555 0.0
C496 C 0.22499 0.47413 0.52379 0.0
N497 N 0.26901 0.44409 0.52449 0.0
N498 N 0.26462 0.49441 0.54368 0.0
C499 C 0.29159 0.4563 0.53683 0.0
H500 H 0.19425 0.53634 0.53746 0.0
Co501 Co 0.28492 0.53663 0.55857 0.0
C502 C 0.37345 0.47774 0.57305 0.0
O503 O 0.34729 0.47941 0.58484 0.0
N504 N 0.30563 0.58007 0.57346 0.0
C505 C 0.35499 0.63324 0.58666 0.0
C506 C 0.35402 0.60247 0.5749 0.0
C507 C 0.2781 0.59754 0.58458 0.0
N508 N 0.30715 0.63 0.5927 0.0
O509 O 0.23687 0.49517 0.57036 0.0
H510 H 0.38669 0.59697 0.56779 0.0
H511 H 0.23721 0.58803 0.58663 0.0
O512 O 0.35042 0.49359 0.56192 0.0
C513 C 0.19197 0.51934 0.56959 0.0
O514 O 0.19116 0.56631 0.5636 0.0
N515 N 0.32246 0.57946 0.54626 0.0
C516 C 0.35016 0.63841 0.52289 0.0
C517 C 0.37559 0.59011 0.5259 0.0
C518 C 0.3615 0.56145 0.5377 0.0
C519 C 0.29956 0.62764 0.54404 0.0
C520 C 0.31338 0.65823 0.5325 0.0
H521 H 0.37875 0.52273 0.53916 0.0
H522 H 0.26799 0.64086 0.55078 0.0
H523 H 0.32917 0.44074 0.54031 0.0
H524 H 0.19907 0.47737 0.51486 0.0
H525 H 0.38823 0.65616 0.59049 0.0
H526 H 0.40344 0.57236 0.51874 0.0
H527 H 0.29355 0.69579 0.53083 0.0
H528 H 0.12042 0.36614 0.26256 0.0
H529 H 0.27 0.41442 0.28002 0.0
H530 H 0.30287 0.43598 0.2566 0.0
H531 H 0.28432 0.45076 0.23172 0.0
H532 H 0.13092 0.40884 0.21508 0.0
H533 H 0.10472 0.3737 0.23757 0.0
C534 C 0.16047 0.3809 0.26118 0.0
C535 C 0.19263 0.38976 0.2729 0.0
C536 C 0.17817 0.3944 0.24787 0.0
C537 C 0.24467 0.40773 0.27109 0.0
C538 C 0.26317 0.42025 0.25775 0.0
C539 C 0.24516 0.43392 0.23297 0.0
C540 C 0.20939 0.43364 0.22168 0.0
C541 C 0.22953 0.41543 0.24613 0.0
C542 C 0.15947 0.40983 0.22346 0.0
C543 C 0.14418 0.39004 0.2364 0.0
H544 H 0.43727 0.83641 0.77323 0.0
H545 H 0.32062 0.71066 0.77359 0.0
H546 H 0.27427 0.75291 0.75431 0.0
H547 H 0.27232 0.82039 0.73587 0.0
H548 H 0.387 0.9478 0.73633 0.0
H549 H 0.42844 0.90987 0.75697 0.0
C550 C 0.40116 0.81848 0.7694 0.0
C551 C 0.38338 0.7695 0.77477 0.0
C552 C 0.37458 0.843 0.75834 0.0
C553 C 0.33626 0.74747 0.76947 0.0
C554 C 0.3095 0.77175 0.75846 0.0
C555 C 0.3056 0.8406 0.74065 0.0
C556 C 0.32713 0.88628 0.73438 0.0
C557 C 0.32917 0.81873 0.75257 0.0
C558 C 0.3705 0.91174 0.74071 0.0
C559 C 0.39407 0.89026 0.75256 0.0
H560 H 0.67099 0.63701 0.21446 0.0
H561 H 0.81176 0.56202 0.19844 0.0
H562 H 0.86632 0.6144 0.21425 0.0
H563 H 0.87334 0.67665 0.23385 0.0
H564 H 0.73269 0.75241 0.24959 0.0
H565 H 0.67881 0.70559 0.23238 0.0
C566 C 0.71362 0.63285 0.2142 0.0
C567 C 0.73705 0.59486 0.20545 0.0
C568 C 0.74478 0.66317 0.22329 0.0
C569 C 0.7925 0.58994 0.20532 0.0
C570 C 0.82381 0.62006 0.21431 0.0
C571 C 0.83092 0.68302 0.23342 0.0
C572 C 0.80681 0.71738 0.243 0.0
C573 C 0.80024 0.65581 0.22358 0.0
C574 C 0.75202 0.72619 0.24225 0.0
C575 C 0.72121 0.69925 0.23249 0.0
H576 H 0.5757 0.27513 0.75318 0.0
H577 H 0.65234 0.16433 0.78076 0.0
H578 H 0.68978 0.11711 0.76075 0.0
H579 H 0.6966 0.10535 0.7354 0.0
H580 H 0.61744 0.21564 0.70803 0.0
H581 H 0.58458 0.26522 0.72805 0.0
C582 C 0.60161 0.24142 0.75482 0.0
C583 C 0.61195 0.22347 0.76837 0.0
C584 C 0.62173 0.21409 0.74333 0.0
C585 C 0.6442 0.17875 0.77037 0.0
C586 C 0.66535 0.1518 0.75896 0.0
C587 C 0.67259 0.14056 0.73385 0.0
C588 C 0.65923 0.15678 0.7203 0.0
C589 C 0.65375 0.16875 0.74539 0.0
C590 C 0.62756 0.20202 0.71839 0.0
C591 C 0.6091 0.23055 0.7298 0.0
H592 H 0.29454 0.1122 0.01579 0.0
H593 H 0.15565 0.13194 0.0411 0.0
H594 H 0.1067 0.16676 0.02099 0.0
H595 H 0.10347 0.18921 -0.00398 0.0
H596 H 0.24177 0.16451 0.9706 0.0
H597 H 0.2911 0.1334 -0.00911 0.0
C598 C 0.25387 0.12514 0.01691 0.0
C599 C 0.22878 0.12078 0.02987 0.0
C600 C 0.22589 0.14338 0.00526 0.0
C601 C 0.17559 0.13578 0.03119 0.0
C602 C 0.14773 0.15535 0.01971 0.0
C603 C 0.14445 0.17711 -0.00502 0.0
C604 C 0.16903 0.17902 0.98187 0.0
C605 C 0.17241 0.15892 0.00667 0.0
C606 C 0.22192 0.16275 0.98057 0.0
C607 C 0.25022 0.14536 -0.00783 0.0
H608 H 0.06401 0.84275 0.96802 0.0
H609 H 0.20172 0.74648 0.96042 0.0
H610 H 0.24474 0.78342 0.98118 0.0
H611 H 0.24063 0.83964 0.00205 0.0
H612 H 0.10054 0.9321 0.01021 0.0
H613 H 0.0605 0.90015 0.98858 0.0
C614 C 0.10385 0.83076 0.97078 0.0
C615 C 0.13022 0.7926 0.96271 0.0
C616 C 0.1274 0.85106 0.98284 0.0
C617 C 0.18111 0.77601 0.96655 0.0
C618 C 0.20548 0.79702 0.97838 0.0
C619 C 0.20162 0.85321 -0.00103 0.0
C620 C 0.17347 0.88813 0.00761 0.0
C621 C 0.17868 0.83405 0.98668 0.0
C622 C 0.12263 0.90491 0.0037 0.0
C623 C 0.09989 0.88683 -0.00865 0.0
H624 H 0.83707 0.79991 0.98217 0.0
H625 H 0.95739 0.9222 0.98161 0.0
H626 H 0.92628 0.95505 0.00397 0.0
H627 H 0.8629 0.95138 0.02302 0.0
H628 H 0.74815 0.82397 0.02469 0.0
H629 H 0.78059 0.78995 0.00259 0.0
C630 C 0.85744 0.83304 0.98701 0.0
C631 C 0.89918 0.85881 0.98002 0.0
C632 C 0.8405 0.85082 7e-05 0.0
C633 C 0.92419 0.90235 0.98648 0.0
C634 C 0.90683 0.92088 -0.00063 0.0
C635 C 0.84544 0.91554 0.01882 0.0
C636 C 0.80229 0.89097 0.02554 0.0
C637 C 0.86466 0.89572 0.00618 0.0
C638 C 0.78047 0.84462 0.01966 0.0
C639 C 0.79912 0.82496 0.00702 0.0
H640 H 0.84337 0.09671 -0.00285 0.0
H641 H 0.88221 0.22459 0.02527 0.0
H642 H 0.91077 0.27961 0.00573 0.0
H643 H 0.92566 0.29094 0.98072 0.0
H644 H 0.89116 0.16246 0.95258 0.0
H645 H 0.85896 0.10799 0.97202 0.0
C646 C 0.85797 0.13669 -0.00105 0.0
C647 C 0.86086 0.15663 0.01259 0.0
C648 C 0.87446 0.168 0.98768 0.0
C649 C 0.88033 0.20822 0.01486 0.0
C650 C 0.89622 0.23981 0.0037 0.0
C651 C 0.91004 0.25142 0.97886 0.0
C652 C 0.90957 0.23082 0.96531 0.0
C653 C 0.89334 0.22015 0.99008 0.0
C654 C 0.89107 0.17898 0.96298 0.0
C655 C 0.87304 0.14794 0.97406 0.0
H656 H 0.58819 0.81933 0.7411 0.0
H657 H 0.72407 0.84787 0.76729 0.0
H658 H 0.77325 0.88243 0.74741 0.0
H659 H 0.77743 0.90509 0.72272 0.0
H660 H 0.64174 0.87926 0.69642 0.0
H661 H 0.59248 0.84251 0.71619 0.0
C662 C 0.62862 0.83298 0.7424 0.0
C663 C 0.65248 0.83128 0.75561 0.0
C664 C 0.65664 0.85287 0.73093 0.0
C665 C 0.70467 0.84953 0.75724 0.0
C666 C 0.73292 0.86889 0.74588 0.0
C667 C 0.73741 0.89054 0.72128 0.0
C668 C 0.71334 0.89402 0.70815 0.0
C669 C 0.70934 0.87063 0.73269 0.0
C670 C 0.66092 0.87661 0.70647 0.0
C671 C 0.63287 0.85577 0.71775 0.0
H672 H 0.82846 0.27846 0.22727 0.0
H673 H 0.78604 0.43167 0.24399 0.0
H674 H 0.84627 0.418 0.26358 0.0
H675 H 0.91661 0.36594 0.27468 0.0
H676 H 0.96094 0.21419 0.25743 0.0
H677 H 0.89505 0.22437 0.23906 0.0
C678 C 0.8324 0.30881 0.23522 0.0
C679 C 0.80338 0.35615 0.23416 0.0
C680 C 0.86787 0.30126 0.2462 0.0
C681 C 0.80783 0.39472 0.24466 0.0
C682 C 0.84254 0.38714 0.25578 0.0
C683 C 0.91122 0.33477 0.26703 0.0
C684 C 0.9438 0.28962 0.26732 0.0
C685 C 0.87352 0.34104 0.25648 0.0
C686 C 0.93692 0.24975 0.25725 0.0
C687 C 0.89909 0.25539 0.24681 0.0
H688 H 0.34507 0.10058 0.7066 0.0
H689 H 0.18775 0.14826 0.71899 0.0
H690 H 0.22175 0.17837 0.7412 0.0
H691 H 0.29394 0.18248 0.75819 0.0
H692 H 0.45042 0.13132 0.74632 0.0
H693 H 0.41817 0.1089 0.7231 0.0
C694 C 0.31793 0.11729 0.71411 0.0
C695 C 0.2635 0.12067 0.71104 0.0
C696 C 0.33734 0.13278 0.72717 0.0
C697 C 0.22973 0.14464 0.72086 0.0
C698 C 0.24906 0.16152 0.73372 0.0
C699 C 0.32113 0.16701 0.75047 0.0
C700 C 0.37432 0.158 0.75404 0.0
C701 C 0.30243 0.15432 0.73714 0.0
C702 C 0.40898 0.13752 0.74395 0.0
C703 C 0.39071 0.12518 0.73062 0.0
H704 H 0.11767 0.63217 0.22581 0.0
H705 H 0.07677 0.752 0.19558 0.0
H706 H 0.05664 0.81465 0.21433 0.0
H707 H 0.04586 0.83314 0.23919 0.0
H708 H 0.08613 0.71319 0.26944 0.0
H709 H 0.11149 0.65242 0.25074 0.0
C710 C 0.10394 0.67191 0.22335 0.0
C711 C 0.09787 0.68732 0.20937 0.0
C712 C 0.09267 0.70756 0.23414 0.0
C713 C 0.08148 0.73929 0.20628 0.0
C714 C 0.07001 0.77502 0.21698 0.0
C715 C 0.06143 0.79424 0.24173 0.0
C716 C 0.06428 0.77771 0.25571 0.0
C717 C 0.0751 0.75941 0.23094 0.0
C718 C 0.08345 0.72666 0.25876 0.0
C719 C 0.09775 0.69194 0.24809 0.0
H720 H 0.7078 0.54649 0.50963 0.0
H721 H 0.78583 0.69292 0.52078 0.0
H722 H 0.74664 0.73694 0.50051 0.0
H723 H 0.69287 0.73245 0.47922 0.0
H724 H 0.61481 0.58558 0.46827 0.0
H725 H 0.65171 0.54276 0.4889 0.0
C726 C 0.71538 0.58832 0.50781 0.0
C727 C 0.74926 0.61667 0.51676 0.0
C728 C 0.69325 0.61297 0.4961 0.0
C729 C 0.75991 0.67042 0.51401 0.0
C730 C 0.73755 0.69548 0.50244 0.0
C731 C 0.68342 0.69125 0.48144 0.0
C732 C 0.6513 0.6622 0.47219 0.0
C733 C 0.70457 0.66698 0.49335 0.0
C734 C 0.64009 0.6086 0.4751 0.0
C735 C 0.66084 0.5842 0.48695 0.0
H736 H 0.63474 0.25138 0.45937 0.0
H737 H 0.68472 0.38778 0.43586 0.0
H738 H 0.71443 0.43188 0.45737 0.0
H739 H 0.72349 0.43139 0.48294 0.0
H740 H 0.66914 0.29533 0.50628 0.0
H741 H 0.64248 0.25126 0.48476 0.0
C742 C 0.65334 0.29025 0.45904 0.0
C743 C 0.65945 0.31602 0.44622 0.0
C744 C 0.66829 0.31549 0.47137 0.0
C745 C 0.68124 0.36718 0.44571 0.0
C746 C 0.6976 0.3923 0.45796 0.0
C747 C 0.70593 0.39204 0.48326 0.0
C748 C 0.69823 0.36653 0.49612 0.0
C749 C 0.69091 0.3669 0.47086 0.0
C750 C 0.67479 0.31593 0.49649 0.0
C751 C 0.66005 0.29053 0.48421 0.0
H752 H 0.37364 0.42986 0.51984 0.0
H753 H 0.21861 0.3966 0.50303 0.0
H754 H 0.25874 0.36079 0.48195 0.0
H755 H 0.33769 0.34324 0.46783 0.0
H756 H 0.49263 0.37269 0.48493 0.0
H757 H 0.4527 0.40529 0.50656 0.0
C758 C 0.34849 0.41367 0.51176 0.0
C759 C 0.29301 0.41627 0.51302 0.0
C760 C 0.37185 0.39301 0.49968 0.0
C761 C 0.26132 0.39578 0.50225 0.0
C762 C 0.28423 0.37526 0.4902 0.0
C763 C 0.36253 0.35686 0.47633 0.0
C764 C 0.41776 0.35651 0.47484 0.0
C765 C 0.33936 0.37466 0.48871 0.0
C766 C 0.44993 0.37308 0.48592 0.0
C767 C 0.42713 0.39162 0.49824 0.0
H768 H 0.44098 0.64305 0.50771 0.0
H769 H 0.27734 0.69252 0.50705 0.0
H770 H 0.28924 0.72955 0.48386 0.0
H771 H 0.3455 0.74493 0.46325 0.0
H772 H 0.50625 0.68757 0.46357 0.0
H773 H 0.49516 0.65428 0.48705 0.0
C774 C 0.40756 0.66127 0.50249 0.0
C775 C 0.35842 0.66485 0.50923 0.0
C776 C 0.4138 0.68017 0.4889 0.0
C777 C 0.3161 0.69004 0.50233 0.0
C778 C 0.32257 0.71062 0.48894 0.0
C779 C 0.37777 0.72478 0.46849 0.0
C780 C 0.42631 0.71843 0.46162 0.0
C781 C 0.3711 0.70538 0.48206 0.0
C782 C 0.46807 0.69224 0.46847 0.0
C783 C 0.46201 0.67363 0.482 0.0
H784 H 0.93161 0.1666 0.31567 0.0
H785 H 0.08792 0.12366 0.3297 0.0
H786 H 0.06781 0.02996 0.3265 0.0
H787 H 0.00946 0.95933 0.3169 0.0
H788 H 0.85232 1.00235 0.30355 0.0
H789 H 0.86883 0.09474 0.30944 0.0
C790 C 0.96075 0.13674 0.31838 0.0
C791 C 0.01145 0.15288 0.32276 0.0
C792 C 0.94908 0.08199 0.31645 0.0
C793 C 0.04864 0.11301 0.32613 0.0
C794 C 0.0373 0.05897 0.32428 0.0
C795 C 0.97845 0.98864 0.31563 0.0
C796 C 0.92999 0.97341 0.30957 0.0
C797 C 0.98819 0.04279 0.31901 0.0
C798 C 0.89043 0.01255 0.30798 0.0
C799 C 0.89975 0.06585 0.31134 0.0
H800 H 0.05321 0.89765 0.6579 0.0
H801 H 0.12214 0.0537 0.65385 0.0
H802 H 0.03459 0.09086 0.64884 0.0
H803 H 0.93744 0.0811 0.65016 0.0
H804 H 0.86843 0.92539 0.6549 0.0
H805 H 0.9569 0.88571 0.65477 0.0
C806 C 0.04931 0.93958 0.6555 0.0
C807 C 0.09421 0.97298 0.65639 0.0
C808 C 0.99862 0.96073 0.65291 0.0
C809 C 0.08852 0.02709 0.65317 0.0
C810 C 0.03824 0.0484 0.65046 0.0
C811 C 0.9417 0.03826 0.6507 0.0
C812 C 0.89628 0.00625 0.65265 0.0
C813 C 0.99282 0.01597 0.65096 0.0
C814 C 0.90245 0.95088 0.65328 0.0
C815 C 0.9532 0.92829 0.6534 0.0
H816 H 0.93327 0.5849 0.90734 0.0
H817 H 0.09177 0.6482 0.90829 0.0
H818 H 0.12754 0.55763 0.90765 0.0
H819 H 0.1131 0.46104 0.91098 0.0
H820 H 0.95453 0.39781 0.91051 0.0
H821 H 0.91941 0.48744 0.90655 0.0
C822 C 0.97574 0.57896 0.90695 0.0
C823 C 0.00981 0.62362 0.90788 0.0
C824 C 0.9959 0.52658 0.90686 0.0
C825 C 0.06464 0.61501 0.90739 0.0
C826 C 0.08504 0.56301 0.90722 0.0
C827 C 0.07088 0.4666 0.90957 0.0
C828 C 0.03647 0.42243 0.91107 0.0
C829 C 0.05102 0.51854 0.90755 0.0
C830 C 0.98197 0.43057 0.90925 0.0
C831 C 0.96188 0.4821 0.90716 0.0
H832 H 0.58069 0.08934 0.0837 0.0
H833 H 0.64538 0.93146 0.08047 0.0
H834 H 0.5562 0.89376 0.08245 0.0
H835 H 0.45947 0.90708 0.08038 0.0
H836 H 0.39472 0.06495 0.08329 0.0
H837 H 0.48403 0.10129 0.08647 0.0
C838 C 0.57546 0.04655 0.08392 0.0
C839 C 0.61984 0.01326 0.08182 0.0
C840 C 0.52382 0.02528 0.08482 0.0
C841 C 0.6123 0.95799 0.08215 0.0
C842 C 0.56107 0.93648 0.08312 0.0
C843 C 0.46475 0.94926 0.08227 0.0
C844 C 0.42029 0.98328 0.08159 0.0
C845 C 0.51643 0.96986 0.08379 0.0
C846 C 0.42786 0.03781 0.08395 0.0
C847 C 0.47917 0.05864 0.08556 0.0
H848 H 0.42758 0.41473 0.82884 0.0
H849 H 0.58536 0.35246 0.82428 0.0
H850 H 0.62132 0.44302 0.82525 0.0
H851 H 0.60611 0.53987 0.82329 0.0
H852 H 0.44805 0.60215 0.82716 0.0
H853 H 0.41399 0.51184 0.83082 0.0
C854 C 0.47005 0.42083 0.82849 0.0
C855 C 0.50376 0.37658 0.82646 0.0
C856 C 0.49021 0.47322 0.82875 0.0
C857 C 0.55858 0.38535 0.82601 0.0
C858 C 0.57903 0.43736 0.82638 0.0
C859 C 0.56434 0.53388 0.82535 0.0
C860 C 0.52963 0.578 0.8249 0.0
C861 C 0.54503 0.48162 0.82716 0.0
C862 C 0.47572 0.56936 0.82759 0.0
C863 C 0.45621 0.51749 0.82951 0.0
H864 H 0.49035 0.35885 0.16887 0.0
H865 H 0.56309 0.50521 0.15544 0.0
H866 H 0.4757 0.54107 0.14953 0.0
H867 H 0.37852 0.53568 0.15185 0.0
H868 H 0.30591 0.39024 0.16603 0.0
H869 H 0.39335 0.3487 0.16776 0.0
C870 C 0.48723 0.39818 0.16432 0.0
C871 C 0.5333 0.42954 0.16272 0.0
C872 C 0.43676 0.41879 0.16125 0.0
C873 C 0.52854 0.48016 0.15672 0.0
C874 C 0.47842 0.50083 0.15349 0.0
C875 C 0.38169 0.49443 0.15501 0.0
C876 C 0.3356 0.46623 0.15894 0.0
C877 C 0.43222 0.47127 0.15624 0.0
C878 C 0.34045 0.41276 0.16289 0.0
C879 C 0.39059 0.38921 0.16401 0.0
H880 H 0.44847 0.92543 0.40585 0.0
H881 H 0.61705 0.92169 0.39974 0.0
H882 H 0.61816 0.01737 0.39551 0.0
H883 H 0.57403 0.1041 0.39924 0.0
H884 H 0.40552 0.10795 0.40538 0.0
H885 H 0.4011 0.01127 0.4035 0.0
C886 C 0.48488 0.94513 0.40281 0.0
C887 C 0.53256 0.9163 0.403 0.0
C888 C 0.48537 1.00086 0.40067 0.0
C889 C 0.57972 0.94284 0.39948 0.0
C890 C 0.58049 0.99784 0.39724 0.0
C891 C 0.53605 0.08398 0.39934 0.0
C892 C 0.49008 0.1134 0.40228 0.0
C893 C 0.534 0.02778 0.39858 0.0
C894 C 0.44135 0.08638 0.40286 0.0
C895 C 0.4389 0.03083 0.40201 0.0
H896 H 0.10221 0.5704 0.57738 0.0
H897 H 0.16246 0.41396 0.5684 0.0
H898 H 0.07163 0.37951 0.56732 0.0
H899 H 0.97564 0.39718 0.56523 0.0
H900 H 0.91538 0.55409 0.57359 0.0
H901 H 0.00545 0.58492 0.57885 0.0
C902 C 0.09558 0.52837 0.57556 0.0
C903 C 0.13948 0.49481 0.57293 0.0
C904 C 0.04307 0.50918 0.57469 0.0
C905 C 0.1299 0.44057 0.57061 0.0
C906 C 0.07776 0.42105 0.56983 0.0
C907 C 0.98197 0.43787 0.56857 0.0
C908 C 0.93849 0.47336 0.56896 0.0
C909 C 0.0341 0.45542 0.57131 0.0
C910 C 0.94762 0.5258 0.57333 0.0
C911 C 0.99937 0.54352 0.57618 0.0
H912 H 0.87463 0.61621 0.30308 0.0
H913 H 0.0156 0.69779 0.31687 0.0
H914 H 0.05429 0.61233 0.3238 0.0
H915 H 0.04821 0.51521 0.3259 0.0
H916 H 0.90992 0.43231 0.31081 0.0
H917 H 0.86985 0.518 0.30446 0.0
C918 C 0.91382 0.61563 0.30766 0.0
C919 C 0.9419 0.66412 0.30958 0.0
C920 C 0.93613 0.56609 0.3114 0.0
C921 C 0.99294 0.66172 0.3153 0.0
C922 C 0.015 0.61269 0.31928 0.0
C923 C 0.009 0.51539 0.32133 0.0
C924 C 0.98184 0.46662 0.31908 0.0
C925 C 0.98691 0.56471 0.31741 0.0
C926 C 0.93163 0.46864 0.31283 0.0
C927 C 0.90882 0.51781 0.30916 0.0
H928 H 0.43907 0.89615 0.66534 0.0
H929 H 0.3658 0.04696 0.65609 0.0
H930 H 0.45322 0.08506 0.65106 0.0
H931 H 0.55063 0.07654 0.65041 0.0
H932 H 0.62335 0.9272 0.66145 0.0
H933 H 0.53565 0.88749 0.6646 0.0
C934 C 0.44176 0.93734 0.6621 0.0
C935 C 0.39526 0.96851 0.66104 0.0
C936 C 0.49224 0.95923 0.65958 0.0
C937 C 0.40043 0.02189 0.65696 0.0
C938 C 0.45056 0.04369 0.65411 0.0
C939 C 0.54752 0.03502 0.65332 0.0
C940 C 0.59408 1.00477 0.65553 0.0
C941 C 0.4968 0.01286 0.65552 0.0
C942 C 0.58865 0.95137 0.65956 0.0
C943 C 0.53837 0.92872 0.66141 0.0
H944 H 0.01205 0.10757 0.89164 0.0
H945 H 0.03986 0.11979 0.93579 0.0
H946 H 0.04301 0.02306 0.93763 0.0
H947 H 0.03679 0.9337 0.9268 0.0
H948 H 1.00326 0.92205 0.88287 0.0
H949 H 0.00502 0.01855 0.8809 0.0
C950 C 0.01869 0.08925 0.9017 0.0
C951 C 0.02623 0.12187 0.91353 0.0
C952 C 0.01988 0.03297 0.90274 0.0
C953 C 0.03478 0.09654 0.92642 0.0
C954 C 0.0364 0.04081 0.92751 0.0
C955 C 0.02937 0.95202 0.9168 0.0
C956 C 0.01903 0.91954 0.90506 0.0
C957 C 0.02895 0.0084 0.91575 0.0
C958 C 0.01115 0.9451 0.89216 0.0
C959 C 0.01184 1.00073 0.891 0.0
H960 H 0.94368 0.91638 0.07684 0.0
H961 H 0.90809 0.08344 0.08047 0.0
H962 H 1.00239 0.1039 0.08187 0.0
H963 H 0.09591 0.07533 0.08033 0.0
H964 H 0.13145 0.90795 0.07792 0.0
H965 H 0.03712 0.88709 0.07793 0.0
C966 C 0.95632 0.95727 0.07814 0.0
C967 C 0.91808 0.99831 0.07822 0.0
C968 C 0.01115 0.96893 0.07906 0.0
C969 C 0.93602 0.05092 0.08002 0.0
C970 C 0.99026 0.06274 0.08088 0.0
C971 C 0.08323 0.03418 0.08002 0.0
C972 C 0.12152 0.99345 0.07883 0.0
C973 C 0.02836 0.02223 0.08012 0.0
C974 C 0.10352 0.94042 0.07853 0.0
C975 C 0.04925 0.92834 0.07857 0.0
H976 H 0.51994 0.06568 0.80606 0.0
H977 H 0.51789 0.08828 0.85054 0.0
H978 H 0.5187 0.99242 0.85401 0.0
H979 H 0.51686 0.90099 0.84462 0.0
H980 H 0.51677 0.87787 0.80018 0.0
H981 H 0.51902 0.97391 0.79661 0.0
C982 C 0.51959 0.04996 0.81651 0.0
C983 C 0.51834 0.08533 0.82797 0.0
C984 C 0.51918 0.99396 0.81851 0.0
C985 C 0.51878 0.06296 0.84143 0.0
C986 C 0.51897 0.00771 0.84347 0.0
C987 C 0.5171 0.91678 0.83413 0.0
C988 C 0.51672 0.88131 0.82271 0.0
C989 C 0.51846 0.97266 0.83211 0.0
C990 C 0.51744 0.90338 0.80923 0.0
C991 C 0.51868 0.95871 0.80715 0.0
H992 H 0.85833 0.52904 0.16634 0.0
H993 H 0.82141 0.36191 0.16358 0.0
H994 H 0.91562 0.34046 0.16436 0.0
H995 H 0.00881 0.3685 0.16685 0.0
H996 H 0.046 0.53574 0.1686 0.0
H997 H 0.95223 0.55734 0.16729 0.0
C998 C 0.87078 0.48791 0.16568 0.0
C999 C 0.83216 0.44719 0.16501 0.0
C1000 C 0.92549 0.47567 0.16617 0.0
C1001 C 0.8497 0.39418 0.16426 0.0
C1002 C 0.90382 0.38182 0.16472 0.0
C1003 C 0.99667 0.4098 0.16694 0.0
C1004 C 0.03543 0.45025 0.16816 0.0
C1005 C 0.94214 0.42214 0.16589 0.0
C1006 C 0.01797 0.5034 0.16806 0.0
C1007 C 0.96393 0.51592 0.16717 0.0
H1008 H 0.43102 0.59174 0.40671 0.0
H1009 H 0.59616 0.62984 0.40115 0.0
H1010 H 0.61652 0.53564 0.39825 0.0
H1011 H 0.58883 0.4414 0.399 0.0
H1012 H 0.42373 0.40316 0.40453 0.0
H1013 H 0.4023 0.49775 0.40559 0.0
C1014 C 0.47141 0.57968 0.40466 0.0
C1015 C 0.51198 0.6185 0.4043 0.0
C1016 C 0.48307 0.52494 0.40307 0.0
C1017 C 0.56403 0.60138 0.40164 0.0
C1018 C 0.57578 0.54724 0.39997 0.0
C1019 C 0.54797 0.45358 0.4002 0.0
C1020 C 0.5081 0.41451 0.40181 0.0
C1021 C 0.53583 0.50848 0.40092 0.0
C1022 C 0.45549 0.43179 0.40342 0.0
C1023 C 0.44313 0.48614 0.40403 0.0
H1024 H 0.45121 0.50913 0.55432 0.0
H1025 H 0.42946 0.42463 0.59293 0.0
H1026 H 0.52508 0.41452 0.59527 0.0
H1027 H 0.61565 0.43059 0.58674 0.0
H1028 H 0.6386 0.51492 0.54814 0.0
H1029 H 0.54268 0.52431 0.54553 0.0
C1030 C 0.46715 0.48768 0.56312 0.0
C1031 C 0.43223 0.46715 0.57335 0.0
C1032 C 0.52296 0.48258 0.56455 0.0
C1033 C 0.45463 0.44065 0.58483 0.0
C1034 C 0.50965 0.43502 0.58623 0.0
C1035 C 0.59996 0.45145 0.57777 0.0
C1036 C 0.63527 0.47237 0.56772 0.0
C1037 C 0.54434 0.45622 0.57624 0.0
C1038 C 0.61318 0.49866 0.55614 0.0
C1039 C 0.55798 0.50383 0.5546 0.0
H1040 H 0.24706 0.29833 0.4084 0.0
H1041 H 0.35068 0.2208 0.37929 0.0
H1042 H 0.28714 0.23613 0.36046 0.0
H1043 H 0.20179 0.27048 0.35255 0.0
H1044 H 0.1002 0.35266 0.38147 0.0
H1045 H 0.16315 0.33636 0.4002 0.0
C1046 C 0.25521 0.2845 0.39794 0.0
C1047 C 0.30282 0.25821 0.39514 0.0
C1048 C 0.21911 0.29441 0.38719 0.0
C1049 C 0.31401 0.24123 0.38156 0.0
C1050 C 0.27783 0.24998 0.37085 0.0
C1051 C 0.1937 0.28565 0.36286 0.0
C1052 C 0.1461 0.31246 0.36559 0.0
C1053 C 0.23031 0.27668 0.37355 0.0
C1054 C 0.13609 0.3311 0.37912 0.0
C1055 C 0.17213 0.32198 0.38984 0.0
H1056 H 0.21192 0.72247 0.64772 0.0
H1057 H 0.31071 0.85471 0.63578 0.0
H1058 H 0.33852 0.80738 0.61494 0.0
H1059 H 0.33626 0.72781 0.60039 0.0
H1060 H 0.23806 0.59501 0.61207 0.0
H1061 H 0.20838 0.64296 0.6328 0.0
C1062 C 0.23955 0.7407 0.64054 0.0
C1063 C 0.25908 0.79193 0.64323 0.0
C1064 C 0.25556 0.71314 0.6286 0.0
C1065 C 0.29444 0.81562 0.6338 0.0
C1066 C 0.31072 0.78844 0.62195 0.0
C1067 C 0.30875 0.70929 0.60755 0.0
C1068 C 0.28966 0.65798 0.60484 0.0
C1069 C 0.29181 0.7371 0.61931 0.0
C1070 C 0.25304 0.63468 0.61398 0.0
C1071 C 0.23625 0.66196 0.62582 0.0
H1072 H 0.71227 0.84651 0.33298 0.0
H1073 H 0.8604 0.76858 0.34195 0.0
H1074 H 0.83426 0.75727 0.36616 0.0
H1075 H 0.76752 0.76662 0.38466 0.0
H1076 H 0.6182 0.84077 0.37525 0.0
H1077 H 0.6461 0.85586 0.35127 0.0
C1078 C 0.73864 0.82665 0.34019 0.0
C1079 C 0.78814 0.80856 0.33565 0.0
C1080 C 0.72301 0.8194 0.354 0.0
C1081 C 0.82234 0.78369 0.3452 0.0
C1082 C 0.80731 0.77684 0.35904 0.0
C1083 C 0.74154 0.78638 0.37732 0.0
C1084 C 0.69097 0.80216 0.38154 0.0
C1085 C 0.75763 0.79431 0.36353 0.0
C1086 C 0.65707 0.82752 0.37205 0.0
C1087 C 0.67304 0.83635 0.3584 0.0
H1088 H 0.81313 0.24503 0.63436 0.0
H1089 H 0.71604 0.11817 0.6183 0.0
H1090 H 0.72424 0.15439 0.59476 0.0
H1091 H 0.75416 0.22582 0.57916 0.0
H1092 H 0.85149 0.35235 0.59543 0.0
H1093 H 0.84786 0.31283 0.61857 0.0
C1094 C 0.79366 0.22554 0.62569 0.0
C1095 C 0.76354 0.17957 0.62799 0.0
C1096 C 0.79848 0.2466 0.61229 0.0
C1097 C 0.73951 0.15367 0.61669 0.0
C1098 C 0.74404 0.17443 0.60328 0.0
C1099 C 0.77531 0.24412 0.58773 0.0
C1100 C 0.80243 0.29221 0.58566 0.0
C1101 C 0.77288 0.22128 0.601 0.0
C1102 C 0.8294 0.31587 0.59686 0.0
C1103 C 0.82752 0.29324 0.61006 0.0
H1104 H 0.28559 0.29295 0.89697 0.0
H1105 H 0.15104 0.19422 0.88692 0.0
H1106 H 0.19175 0.16981 0.86489 0.0
H1107 H 0.26526 0.17735 0.84837 0.0
H1108 H 0.40181 0.27196 0.85925 0.0
H1109 H 0.3606 0.29689 0.8811 0.0
C1110 C 0.2654 0.26558 0.89007 0.0
C1111 C 0.21522 0.24583 0.89359 0.0
C1112 C 0.28928 0.25109 0.87752 0.0
C1113 C 0.18929 0.21093 0.88438 0.0
C1114 C 0.21269 0.19659 0.87181 0.0
C1115 C 0.28619 0.20293 0.85558 0.0
C1116 C 0.33619 0.22321 0.85206 0.0
C1117 C 0.26261 0.21658 0.86826 0.0
C1118 C 0.36269 0.25676 0.86149 0.0
C1119 C 0.33937 0.27075 0.87407 0.0
H1120 H 0.12733 0.67391 0.12045 0.0
H1121 H 0.27588 0.59128 0.12328 0.0
H1122 H 0.31522 0.65198 0.10624 0.0
H1123 H 0.3075 0.73001 0.091 0.0
H1124 H 0.16101 0.81689 0.08941 0.0
H1125 H 0.1203 0.75366 0.10558 0.0
C1126 C 0.16808 0.66923 0.11716 0.0
C1127 C 0.19881 0.62839 0.12288 0.0
C1128 C 0.19065 0.70522 0.10773 0.0
C1129 C 0.25186 0.62272 0.11889 0.0
C1130 C 0.2742 0.6573 0.1092 0.0
C1131 C 0.26664 0.7347 0.09419 0.0
C1132 C 0.2371 0.7776 0.08909 0.0
C1133 C 0.24406 0.69889 0.10363 0.0
C1134 C 0.18442 0.7842 0.09337 0.0
C1135 C 0.16116 0.74799 0.10252 0.0
H1136 H 0.76094 0.81173 0.88864 0.0
H1137 H 0.89651 0.71942 0.87598 0.0
H1138 H 0.85225 0.69607 0.85437 0.0
H1139 H 0.77597 0.70329 0.83882 0.0
H1140 H 0.643 0.80056 0.85075 0.0
H1141 H 0.68557 0.82069 0.87286 0.0
C1142 C 0.78107 0.78691 0.88112 0.0
C1143 C 0.83196 0.76739 0.88402 0.0
C1144 C 0.7559 0.77451 0.86855 0.0
C1145 C 0.85699 0.7344 0.87422 0.0
C1146 C 0.8319 0.72133 0.86176 0.0
C1147 C 0.75649 0.72931 0.84618 0.0
C1148 C 0.70631 0.75019 0.84311 0.0
C1149 C 0.78151 0.74144 0.85879 0.0
C1150 C 0.68126 0.78317 0.8529 0.0
C1151 C 0.70572 0.79503 0.86553 0.0
H1152 H 0.71666 0.12726 0.10998 0.0
H1153 H 0.81015 0.26109 0.09659 0.0
H1154 H 0.79889 0.30322 0.11936 0.0
H1155 H 0.75822 0.30377 0.14232 0.0
H1156 H 0.65806 0.17357 0.15509 0.0
H1157 H 0.67773 0.12683 0.13342 0.0
C1158 C 0.73526 0.1652 0.11219 0.0
C1159 C 0.76426 0.19128 0.10177 0.0
C1160 C 0.72739 0.18953 0.12511 0.0
C1161 C 0.78746 0.24079 0.10453 0.0
C1162 C 0.78107 0.26466 0.1175 0.0
C1163 C 0.74019 0.26542 0.14034 0.0
C1164 C 0.70588 0.24265 0.15019 0.0
C1165 C 0.75022 0.23982 0.12774 0.0
C1166 C 0.68459 0.19195 0.14768 0.0
C1167 C 0.69553 0.16542 0.13526 0.0
loop_
_geom_bond_atom_site_label_1
_geom_bond_atom_site_label_2
_geom_bond_distance
_geom_bond_site_symmetry_2
_ccdc_geom_bond_type
C0 C1 1.351 . S
C0 N3 1.368 . S
C0 H5 0.931 . S
C1 C0 1.351 . S
C1 N2 1.373 . S
C1 H29 0.930 . S
N2 C1 1.373 . S
N2 C4 1.340 . S
N3 C0 1.368 . S
N3 C4 1.321 . S
N3 Co6 2.135 1_655 S
C4 N2 1.340 . S
C4 N3 1.321 . S
C4 H28 0.930 . S
H5 C0 0.931 . S
Co6 N3 2.135 1_455 S
Co6 N9 2.121 . S
Co6 O14 2.055 1_455 S
Co6 O17 2.039 1_455 S
Co6 N20 2.140 . S
C7 O8 1.227 1_655 S
C7 O17 1.265 . S
O8 C7 1.227 1_455 S
N9 Co6 2.121 . S
N9 C11 1.375 . S
N9 C12 1.313 . S
C10 C11 1.338 . S
C10 N13 1.377 . S
C10 H30 0.930 . S
C11 N9 1.375 . S
C11 C10 1.338 . S
C11 H15 0.931 . S
C12 N9 1.313 . S
C12 N13 1.344 . S
C12 H16 0.930 . S
N13 C10 1.377 . S
N13 C12 1.344 . S
O14 Co6 2.055 1_655 S
O14 C18 1.253 1_655 S
H15 C11 0.931 . S
H16 C12 0.930 . S
O17 Co6 2.039 1_655 S
O17 C7 1.265 . S
C18 O14 1.253 1_455 S
C18 O19 1.227 . S
O19 C18 1.227 . S
N20 Co6 2.140 . S
N20 C23 1.346 . S
N20 C24 1.345 . S
C21 C22 1.387 . S
C21 C25 1.391 . S
C22 C21 1.387 . S
C22 C23 1.369 . S
C22 H31 0.929 . S
C23 N20 1.346 . S
C23 C22 1.369 . S
C23 H26 0.928 . S
C24 N20 1.345 . S
C24 C25 1.371 . S
C24 H27 0.931 . S
C25 C21 1.391 . S
C25 C24 1.371 . S
C25 H32 0.930 . S
H26 C23 0.928 . S
H27 C24 0.931 . S
H28 C4 0.930 . S
H29 C1 0.930 . S
H30 C10 0.930 . S
H31 C22 0.929 . S
H32 C25 0.930 . S
C33 C34 1.351 . S
C33 N36 1.368 . S
C33 H38 0.931 . S
C34 C33 1.351 . S
C34 N35 1.373 . S
C34 H62 0.930 . S
N35 C34 1.373 . S
N35 C37 1.340 . S
N36 C33 1.368 . S
N36 C37 1.321 . S
N36 Co39 2.135 1_545 S
C37 N35 1.340 . S
C37 N36 1.321 . S
C37 H61 0.930 . S
H38 C33 0.931 . S
Co39 N36 2.135 1_565 S
Co39 N42 2.121 . S
Co39 O47 2.055 1_565 S
Co39 O50 2.039 1_565 S
Co39 N53 2.140 . S
C40 O41 1.227 1_545 S
C40 O50 1.265 . S
O41 C40 1.227 1_565 S
N42 Co39 2.121 . S
N42 C44 1.375 . S
N42 C45 1.313 . S
C43 C44 1.338 . S
C43 N46 1.377 . S
C43 H63 0.930 . S
C44 N42 1.375 . S
C44 C43 1.338 . S
C44 H48 0.931 . S
C45 N42 1.313 . S
C45 N46 1.344 . S
C45 H49 0.930 . S
N46 C43 1.377 . S
N46 C45 1.344 . S
O47 Co39 2.055 1_545 S
O47 C51 1.253 1_545 S
H48 C44 0.931 . S
H49 C45 0.930 . S
O50 Co39 2.039 1_545 S
O50 C40 1.265 . S
C51 O47 1.253 1_565 S
C51 O52 1.227 . S
O52 C51 1.227 . S
N53 Co39 2.140 . S
N53 C56 1.346 . S
N53 C57 1.345 . S
C54 C55 1.387 . S
C54 C58 1.391 . S
C55 C54 1.387 . S
C55 C56 1.369 . S
C55 H64 0.929 . S
C56 N53 1.346 . S
C56 C55 1.369 . S
C56 H59 0.928 . S
C57 N53 1.345 . S
C57 C58 1.371 . S
C57 H60 0.931 . S
C58 C54 1.391 . S
C58 C57 1.371 . S
C58 H65 0.930 . S
H59 C56 0.928 . S
H60 C57 0.931 . S
H61 C37 0.930 . S
H62 C34 0.930 . S
H63 C43 0.930 . S
H64 C55 0.929 . S
H65 C58 0.930 . S
C66 C67 1.351 . S
C66 N69 1.368 . S
C66 H71 0.931 . S
C67 C66 1.351 . S
C67 N68 1.373 . S
C67 H95 0.930 . S
N68 C67 1.373 . S
N68 C70 1.340 . S
N69 C66 1.368 . S
N69 C70 1.321 . S
N69 Co72 2.135 1_455 S
C70 N68 1.340 . S
C70 N69 1.321 . S
C70 H94 0.930 . S
H71 C66 0.931 . S
Co72 N69 2.135 1_655 S
Co72 N75 2.121 . S
Co72 O80 2.055 1_655 S
Co72 O83 2.039 1_655 S
Co72 N86 2.140 . S
C73 O74 1.227 1_455 S
C73 O83 1.265 . S
O74 C73 1.227 1_655 S
N75 Co72 2.121 . S
N75 C77 1.375 . S
N75 C78 1.313 . S
C76 C77 1.338 . S
C76 N79 1.377 . S
C76 H96 0.930 . S
C77 N75 1.375 . S
C77 C76 1.338 . S
C77 H81 0.931 . S
C78 N75 1.313 . S
C78 N79 1.344 . S
C78 H82 0.930 . S
N79 C76 1.377 . S
N79 C78 1.344 . S
O80 Co72 2.055 1_455 S
O80 C84 1.253 1_455 S
H81 C77 0.931 . S
H82 C78 0.930 . S
O83 Co72 2.039 1_455 S
O83 C73 1.265 . S
C84 O80 1.253 1_655 S
C84 O85 1.227 . S
O85 C84 1.227 . S
N86 Co72 2.140 . S
N86 C89 1.346 . S
N86 C90 1.345 . S
C87 C88 1.387 . S
C87 C91 1.391 . S
C88 C87 1.387 . S
C88 C89 1.369 . S
C88 H97 0.929 . S
C89 N86 1.346 . S
C89 C88 1.369 . S
C89 H92 0.928 . S
C90 N86 1.345 . S
C90 C91 1.371 . S
C90 H93 0.931 . S
C91 C87 1.391 . S
C91 C90 1.371 . S
C91 H98 0.930 . S
H92 C89 0.928 . S
H93 C90 0.931 . S
H94 C70 0.930 . S
H95 C67 0.930 . S
H96 C76 0.930 . S
H97 C88 0.929 . S
H98 C91 0.930 . S
C99 C100 1.351 . S
C99 N102 1.368 . S
C99 H104 0.931 . S
C100 C99 1.351 . S
C100 N101 1.373 . S
C100 H128 0.930 . S
N101 C100 1.373 . S
N101 C103 1.340 . S
N102 C99 1.368 . S
N102 C103 1.321 . S
N102 Co105 2.135 1_565 S
C103 N101 1.340 . S
C103 N102 1.321 . S
C103 H127 0.930 . S
H104 C99 0.931 . S
Co105 N102 2.135 1_545 S
Co105 N108 2.121 . S
Co105 O113 2.055 1_545 S
Co105 O116 2.039 1_545 S
Co105 N119 2.140 . S
C106 O107 1.227 1_565 S
C106 O116 1.265 . S
O107 C106 1.227 1_545 S
N108 Co105 2.121 . S
N108 C110 1.375 . S
N108 C111 1.313 . S
C109 C110 1.338 . S
C109 N112 1.377 . S
C109 H129 0.930 . S
C110 N108 1.375 . S
C110 C109 1.338 . S
C110 H114 0.931 . S
C111 N108 1.313 . S
C111 N112 1.344 . S
C111 H115 0.930 . S
N112 C109 1.377 . S
N112 C111 1.344 . S
O113 Co105 2.055 1_565 S
O113 C117 1.253 1_565 S
H114 C110 0.931 . S
H115 C111 0.930 . S
O116 Co105 2.039 1_565 S
O116 C106 1.265 . S
C117 O113 1.253 1_545 S
C117 O118 1.227 . S
O118 C117 1.227 . S
N119 Co105 2.140 . S
N119 C122 1.346 . S
N119 C123 1.345 . S
C120 C121 1.387 . S
C120 C124 1.391 . S
C121 C120 1.387 . S
C121 C122 1.369 . S
C121 H130 0.929 . S
C122 N119 1.346 . S
C122 C121 1.369 . S
C122 H125 0.928 . S
C123 N119 1.345 . S
C123 C124 1.371 . S
C123 H126 0.931 . S
C124 C120 1.391 . S
C124 C123 1.371 . S
C124 H131 0.930 . S
H125 C122 0.928 . S
H126 C123 0.931 . S
H127 C103 0.930 . S
H128 C100 0.930 . S
H129 C109 0.930 . S
H130 C121 0.929 . S
H131 C124 0.930 . S
C132 C133 1.351 . S
C132 N135 1.368 . S
C132 H137 0.931 . S
C133 C132 1.351 . S
C133 N134 1.373 . S
C133 H161 0.930 . S
N134 C133 1.373 . S
N134 C136 1.340 . S
N135 C132 1.368 . S
N135 C136 1.321 . S
N135 Co138 2.135 1_655 S
C136 N134 1.340 . S
C136 N135 1.321 . S
C136 H160 0.930 . S
H137 C132 0.931 . S
Co138 N135 2.135 1_455 S
Co138 N141 2.121 . S
Co138 O146 2.055 1_455 S
Co138 O149 2.039 1_455 S
Co138 N152 2.140 . S
C139 O140 1.227 1_655 S
C139 O149 1.265 . S
O140 C139 1.227 1_455 S
N141 Co138 2.121 . S
N141 C143 1.375 . S
N141 C144 1.313 . S
C142 C143 1.338 . S
C142 N145 1.377 . S
C142 H162 0.930 . S
C143 N141 1.375 . S
C143 C142 1.338 . S
C143 H147 0.931 . S
C144 N141 1.313 . S
C144 N145 1.344 . S
C144 H148 0.930 . S
N145 C142 1.377 . S
N145 C144 1.344 . S
O146 Co138 2.055 1_655 S
O146 C150 1.253 1_655 S
H147 C143 0.931 . S
H148 C144 0.930 . S
O149 Co138 2.039 1_655 S
O149 C139 1.265 . S
C150 O146 1.253 1_455 S
C150 O151 1.227 . S
O151 C150 1.227 . S
N152 Co138 2.140 . S
N152 C155 1.346 . S
N152 C156 1.345 . S
C153 C154 1.387 . S
C153 C157 1.391 . S
C154 C153 1.387 . S
C154 C155 1.369 . S
C154 H163 0.929 . S
C155 N152 1.346 . S
C155 C154 1.369 . S
C155 H158 0.928 . S
C156 N152 1.345 . S
C156 C157 1.371 . S
C156 H159 0.931 . S
C157 C153 1.391 . S
C157 C156 1.371 . S
C157 H164 0.930 . S
H158 C155 0.928 . S
H159 C156 0.931 . S
H160 C136 0.930 . S
H161 C133 0.930 . S
H162 C142 0.930 . S
H163 C154 0.929 . S
H164 C157 0.930 . S
C165 C166 1.351 . S
C165 N168 1.368 . S
C165 H170 0.931 . S
C166 C165 1.351 . S
C166 N167 1.373 . S
C166 H194 0.930 . S
N167 C166 1.373 . S
N167 C169 1.340 . S
N168 C165 1.368 . S
N168 C169 1.321 . S
N168 Co171 2.135 1_545 S
C169 N167 1.340 . S
C169 N168 1.321 . S
C169 H193 0.930 . S
H170 C165 0.931 . S
Co171 N168 2.135 1_565 S
Co171 N174 2.121 . S
Co171 O179 2.055 1_565 S
Co171 O182 2.039 1_565 S
Co171 N185 2.140 . S
C172 O173 1.227 1_545 S
C172 O182 1.265 . S
O173 C172 1.227 1_565 S
N174 Co171 2.121 . S
N174 C176 1.375 . S
N174 C177 1.313 . S
C175 C176 1.338 . S
C175 N178 1.377 . S
C175 H195 0.930 . S
C176 N174 1.375 . S
C176 C175 1.338 . S
C176 H180 0.931 . S
C177 N174 1.313 . S
C177 N178 1.344 . S
C177 H181 0.930 . S
N178 C175 1.377 . S
N178 C177 1.344 . S
O179 Co171 2.055 1_545 S
O179 C183 1.253 1_545 S
H180 C176 0.931 . S
H181 C177 0.930 . S
O182 Co171 2.039 1_545 S
O182 C172 1.265 . S
C183 O179 1.253 1_565 S
C183 O184 1.227 . S
O184 C183 1.227 . S
N185 Co171 2.140 . S
N185 C188 1.346 . S
N185 C189 1.345 . S
C186 C187 1.387 . S
C186 C190 1.391 . S
C187 C186 1.387 . S
C187 C188 1.369 . S
C187 H196 0.929 . S
C188 N185 1.346 . S
C188 C187 1.369 . S
C188 H191 0.928 . S
C189 N185 1.345 . S
C189 C190 1.371 . S
C189 H192 0.931 . S
C190 C186 1.391 . S
C190 C189 1.371 . S
C190 H197 0.930 . S
H191 C188 0.928 . S
H192 C189 0.931 . S
H193 C169 0.930 . S
H194 C166 0.930 . S
H195 C175 0.930 . S
H196 C187 0.929 . S
H197 C190 0.930 . S
C198 C199 1.351 . S
C198 N201 1.368 . S
C198 H203 0.931 . S
C199 C198 1.351 . S
C199 N200 1.373 . S
C199 H227 0.930 . S
N200 C199 1.373 . S
N200 C202 1.340 . S
N201 C198 1.368 . S
N201 C202 1.321 . S
N201 Co204 2.135 1_455 S
C202 N200 1.340 . S
C202 N201 1.321 . S
C202 H226 0.930 . S
H203 C198 0.931 . S
Co204 N201 2.135 1_655 S
Co204 N207 2.121 . S
Co204 O212 2.055 1_655 S
Co204 O215 2.039 1_655 S
Co204 N218 2.140 . S
C205 O206 1.227 1_455 S
C205 O215 1.265 . S
O206 C205 1.227 1_655 S
N207 Co204 2.121 . S
N207 C209 1.375 . S
N207 C210 1.313 . S
C208 C209 1.338 . S
C208 N211 1.377 . S
C208 H228 0.930 . S
C209 N207 1.375 . S
C209 C208 1.338 . S
C209 H213 0.931 . S
C210 N207 1.313 . S
C210 N211 1.344 . S
C210 H214 0.930 . S
N211 C208 1.377 . S
N211 C210 1.344 . S
O212 Co204 2.055 1_455 S
O212 C216 1.253 1_455 S
H213 C209 0.931 . S
H214 C210 0.930 . S
O215 Co204 2.039 1_455 S
O215 C205 1.265 . S
C216 O212 1.253 1_655 S
C216 O217 1.227 . S
O217 C216 1.227 . S
N218 Co204 2.140 . S
N218 C221 1.346 . S
N218 C222 1.345 . S
C219 C220 1.387 . S
C219 C223 1.391 . S
C220 C219 1.387 . S
C220 C221 1.369 . S
C220 H229 0.929 . S
C221 N218 1.346 . S
C221 C220 1.369 . S
C221 H224 0.928 . S
C222 N218 1.345 . S
C222 C223 1.371 . S
C222 H225 0.931 . S
C223 C219 1.391 . S
C223 C222 1.371 . S
C223 H230 0.930 . S
H224 C221 0.928 . S
H225 C222 0.931 . S
H226 C202 0.930 . S
H227 C199 0.930 . S
H228 C208 0.930 . S
H229 C220 0.929 . S
H230 C223 0.930 . S
C231 C232 1.351 . S
C231 N234 1.368 . S
C231 H236 0.931 . S
C232 C231 1.351 . S
C232 N233 1.373 . S
C232 H260 0.930 . S
N233 C232 1.373 . S
N233 C235 1.340 . S
N234 C231 1.368 . S
N234 C235 1.321 . S
N234 Co237 2.135 1_565 S
C235 N233 1.340 . S
C235 N234 1.321 . S
C235 H259 0.930 . S
H236 C231 0.931 . S
Co237 N234 2.135 1_545 S
Co237 N240 2.121 . S
Co237 O245 2.055 1_545 S
Co237 O248 2.039 1_545 S
Co237 N251 2.140 . S
C238 O239 1.227 1_565 S
C238 O248 1.265 . S
O239 C238 1.227 1_545 S
N240 Co237 2.121 . S
N240 C242 1.375 . S
N240 C243 1.313 . S
C241 C242 1.338 . S
C241 N244 1.377 . S
C241 H261 0.930 . S
C242 N240 1.375 . S
C242 C241 1.338 . S
C242 H246 0.931 . S
C243 N240 1.313 . S
C243 N244 1.344 . S
C243 H247 0.930 . S
N244 C241 1.377 . S
N244 C243 1.344 . S
O245 Co237 2.055 1_565 S
O245 C249 1.253 1_565 S
H246 C242 0.931 . S
H247 C243 0.930 . S
O248 Co237 2.039 1_565 S
O248 C238 1.265 . S
C249 O245 1.253 1_545 S
C249 O250 1.227 . S
O250 C249 1.227 . S
N251 Co237 2.140 . S
N251 C254 1.346 . S
N251 C255 1.345 . S
C252 C253 1.387 . S
C252 C256 1.391 . S
C253 C252 1.387 . S
C253 C254 1.369 . S
C253 H262 0.929 . S
C254 N251 1.346 . S
C254 C253 1.369 . S
C254 H257 0.928 . S
C255 N251 1.345 . S
C255 C256 1.371 . S
C255 H258 0.931 . S
C256 C252 1.391 . S
C256 C255 1.371 . S
C256 H263 0.930 . S
H257 C254 0.928 . S
H258 C255 0.931 . S
H259 C235 0.930 . S
H260 C232 0.930 . S
H261 C241 0.930 . S
H262 C253 0.929 . S
H263 C256 0.930 . S
C264 C265 1.351 . S
C264 N267 1.368 . S
C264 H269 0.931 . S
C265 C264 1.351 . S
C265 N266 1.373 . S
C265 H293 0.930 . S
N266 C265 1.373 . S
N266 C268 1.340 . S
N267 C264 1.368 . S
N267 C268 1.321 . S
N267 Co270 2.135 . S
C268 N266 1.340 . S
C268 N267 1.321 . S
C268 H292 0.930 . S
H269 C264 0.931 . S
Co270 N267 2.135 . S
Co270 N273 2.121 . S
Co270 O278 2.055 . S
Co270 O281 2.039 . S
Co270 N284 2.140 . S
C271 O272 1.227 . S
C271 O281 1.265 . S
O272 C271 1.227 . S
N273 Co270 2.121 . S
N273 C275 1.375 . S
N273 C276 1.313 . S
C274 C275 1.338 . S
C274 N277 1.377 . S
C274 H294 0.930 . S
C275 N273 1.375 . S
C275 C274 1.338 . S
C275 H279 0.931 . S
C276 N273 1.313 . S
C276 N277 1.344 . S
C276 H280 0.930 . S
N277 C274 1.377 . S
N277 C276 1.344 . S
O278 Co270 2.055 . S
O278 C282 1.253 . S
H279 C275 0.931 . S
H280 C276 0.930 . S
O281 Co270 2.039 . S
O281 C271 1.265 . S
C282 O278 1.253 . S
C282 O283 1.227 . S
O283 C282 1.227 . S
N284 Co270 2.140 . S
N284 C287 1.346 . S
N284 C288 1.345 . S
C285 C286 1.387 . S
C285 C289 1.391 . S
C286 C285 1.387 . S
C286 C287 1.369 . S
C286 H295 0.929 . S
C287 N284 1.346 . S
C287 C286 1.369 . S
C287 H290 0.928 . S
C288 N284 1.345 . S
C288 C289 1.371 . S
C288 H291 0.931 . S
C289 C285 1.391 . S
C289 C288 1.371 . S
C289 H296 0.930 . S
H290 C287 0.928 . S
H291 C288 0.931 . S
H292 C268 0.930 . S
H293 C265 0.930 . S
H294 C274 0.930 . S
H295 C286 0.929 . S
H296 C289 0.930 . S
C297 C298 1.351 . S
C297 N300 1.368 . S
C297 H302 0.931 . S
C298 C297 1.351 . S
C298 N299 1.373 . S
C298 H326 0.930 . S
N299 C298 1.373 . S
N299 C301 1.340 . S
N300 C297 1.368 . S
N300 C301 1.321 . S
N300 Co303 2.135 . S
C301 N299 1.340 . S
C301 N300 1.321 . S
C301 H325 0.930 . S
H302 C297 0.931 . S
Co303 N300 2.135 . S
Co303 N306 2.121 . S
Co303 O311 2.055 . S
Co303 O314 2.039 . S
Co303 N317 2.140 . S
C304 O305 1.227 . S
C304 O314 1.265 . S
O305 C304 1.227 . S
N306 Co303 2.121 . S
N306 C308 1.375 . S
N306 C309 1.313 . S
C307 C308 1.338 . S
C307 N310 1.377 . S
C307 H327 0.930 . S
C308 N306 1.375 . S
C308 C307 1.338 . S
C308 H312 0.931 . S
C309 N306 1.313 . S
C309 N310 1.344 . S
C309 H313 0.930 . S
N310 C307 1.377 . S
N310 C309 1.344 . S
O311 Co303 2.055 . S
O311 C315 1.253 . S
H312 C308 0.931 . S
H313 C309 0.930 . S
O314 Co303 2.039 . S
O314 C304 1.265 . S
C315 O311 1.253 . S
C315 O316 1.227 . S
O316 C315 1.227 . S
N317 Co303 2.140 . S
N317 C320 1.346 . S
N317 C321 1.345 . S
C318 C319 1.387 . S
C318 C322 1.391 . S
C319 C318 1.387 . S
C319 C320 1.369 . S
C319 H328 0.929 . S
C320 N317 1.346 . S
C320 C319 1.369 . S
C320 H323 0.928 . S
C321 N317 1.345 . S
C321 C322 1.371 . S
C321 H324 0.931 . S
C322 C318 1.391 . S
C322 C321 1.371 . S
C322 H329 0.930 . S
H323 C320 0.928 . S
H324 C321 0.931 . S
H325 C301 0.930 . S
H326 C298 0.930 . S
H327 C307 0.930 . S
H328 C319 0.929 . S
H329 C322 0.930 . S
C330 C331 1.351 . S
C330 N333 1.368 . S
C330 H335 0.931 . S
C331 C330 1.351 . S
C331 N332 1.373 . S
C331 H359 0.930 . S
N332 C331 1.373 . S
N332 C334 1.340 . S
N333 C330 1.368 . S
N333 C334 1.321 . S
N333 Co336 2.135 . S
C334 N332 1.340 . S
C334 N333 1.321 . S
C334 H358 0.930 . S
H335 C330 0.931 . S
Co336 N333 2.135 . S
Co336 N339 2.121 . S
Co336 O344 2.055 . S
Co336 O347 2.039 . S
Co336 N350 2.140 . S
C337 O338 1.227 . S
C337 O347 1.265 . S
O338 C337 1.227 . S
N339 Co336 2.121 . S
N339 C341 1.375 . S
N339 C342 1.313 . S
C340 C341 1.338 . S
C340 N343 1.377 . S
C340 H360 0.930 . S
C341 N339 1.375 . S
C341 C340 1.338 . S
C341 H345 0.931 . S
C342 N339 1.313 . S
C342 N343 1.344 . S
C342 H346 0.930 . S
N343 C340 1.377 . S
N343 C342 1.344 . S
O344 Co336 2.055 . S
O344 C348 1.253 . S
H345 C341 0.931 . S
H346 C342 0.930 . S
O347 Co336 2.039 . S
O347 C337 1.265 . S
C348 O344 1.253 . S
C348 O349 1.227 . S
O349 C348 1.227 . S
N350 Co336 2.140 . S
N350 C353 1.346 . S
N350 C354 1.345 . S
C351 C352 1.387 . S
C351 C355 1.391 . S
C352 C351 1.387 . S
C352 C353 1.369 . S
C352 H361 0.929 . S
C353 N350 1.346 . S
C353 C352 1.369 . S
C353 H356 0.928 . S
C354 N350 1.345 . S
C354 C355 1.371 . S
C354 H357 0.931 . S
C355 C351 1.391 . S
C355 C354 1.371 . S
C355 H362 0.930 . S
H356 C353 0.928 . S
H357 C354 0.931 . S
H358 C334 0.930 . S
H359 C331 0.930 . S
H360 C340 0.930 . S
H361 C352 0.929 . S
H362 C355 0.930 . S
C363 C364 1.351 . S
C363 N366 1.368 . S
C363 H368 0.931 . S
C364 C363 1.351 . S
C364 N365 1.373 . S
C364 H392 0.930 . S
N365 C364 1.373 . S
N365 C367 1.340 . S
N366 C363 1.368 . S
N366 C367 1.321 . S
N366 Co369 2.135 . S
C367 N365 1.340 . S
C367 N366 1.321 . S
C367 H391 0.930 . S
H368 C363 0.931 . S
Co369 N366 2.135 . S
Co369 N372 2.121 . S
Co369 O377 2.055 . S
Co369 O380 2.039 . S
Co369 N383 2.140 . S
C370 O371 1.227 . S
C370 O380 1.265 . S
O371 C370 1.227 . S
N372 Co369 2.121 . S
N372 C374 1.375 . S
N372 C375 1.313 . S
C373 C374 1.338 . S
C373 N376 1.377 . S
C373 H393 0.930 . S
C374 N372 1.375 . S
C374 C373 1.338 . S
C374 H378 0.931 . S
C375 N372 1.313 . S
C375 N376 1.344 . S
C375 H379 0.930 . S
N376 C373 1.377 . S
N376 C375 1.344 . S
O377 Co369 2.055 . S
O377 C381 1.253 . S
H378 C374 0.931 . S
H379 C375 0.930 . S
O380 Co369 2.039 . S
O380 C370 1.265 . S
C381 O377 1.253 . S
C381 O382 1.227 . S
O382 C381 1.227 . S
N383 Co369 2.140 . S
N383 C386 1.346 . S
N383 C387 1.345 . S
C384 C385 1.387 . S
C384 C388 1.391 . S
C385 C384 1.387 . S
C385 C386 1.369 . S
C385 H394 0.929 . S
C386 N383 1.346 . S
C386 C385 1.369 . S
C386 H389 0.928 . S
C387 N383 1.345 . S
C387 C388 1.371 . S
C387 H390 0.931 . S
C388 C384 1.391 . S
C388 C387 1.371 . S
C388 H395 0.930 . S
H389 C386 0.928 . S
H390 C387 0.931 . S
H391 C367 0.930 . S
H392 C364 0.930 . S
H393 C373 0.930 . S
H394 C385 0.929 . S
H395 C388 0.930 . S
C396 C397 1.351 . S
C396 N399 1.368 . S
C396 H401 0.931 . S
C397 C396 1.351 . S
C397 N398 1.373 . S
C397 H425 0.930 . S
N398 C397 1.373 . S
N398 C400 1.340 . S
N399 C396 1.368 . S
N399 C400 1.321 . S
N399 Co402 2.135 . S
C400 N398 1.340 . S
C400 N399 1.321 . S
C400 H424 0.930 . S
H401 C396 0.931 . S
Co402 N399 2.135 . S
Co402 N405 2.121 . S
Co402 O410 2.055 . S
Co402 O413 2.039 . S
Co402 N416 2.140 . S
C403 O404 1.227 . S
C403 O413 1.265 . S
O404 C403 1.227 . S
N405 Co402 2.121 . S
N405 C407 1.375 . S
N405 C408 1.313 . S
C406 C407 1.338 . S
C406 N409 1.377 . S
C406 H426 0.930 . S
C407 N405 1.375 . S
C407 C406 1.338 . S
C407 H411 0.931 . S
C408 N405 1.313 . S
C408 N409 1.344 . S
C408 H412 0.930 . S
N409 C406 1.377 . S
N409 C408 1.344 . S
O410 Co402 2.055 . S
O410 C414 1.253 . S
H411 C407 0.931 . S
H412 C408 0.930 . S
O413 Co402 2.039 . S
O413 C403 1.265 . S
C414 O410 1.253 . S
C414 O415 1.227 . S
O415 C414 1.227 . S
N416 Co402 2.140 . S
N416 C419 1.346 . S
N416 C420 1.345 . S
C417 C418 1.387 . S
C417 C421 1.391 . S
C418 C417 1.387 . S
C418 C419 1.369 . S
C418 H427 0.929 . S
C419 N416 1.346 . S
C419 C418 1.369 . S
C419 H422 0.928 . S
C420 N416 1.345 . S
C420 C421 1.371 . S
C420 H423 0.931 . S
C421 C417 1.391 . S
C421 C420 1.371 . S
C421 H428 0.930 . S
H422 C419 0.928 . S
H423 C420 0.931 . S
H424 C400 0.930 . S
H425 C397 0.930 . S
H426 C406 0.930 . S
H427 C418 0.929 . S
H428 C421 0.930 . S
C429 C430 1.351 . S
C429 N432 1.368 . S
C429 H434 0.931 . S
C430 C429 1.351 . S
C430 N431 1.373 . S
C430 H458 0.930 . S
N431 C430 1.373 . S
N431 C433 1.340 . S
N432 C429 1.368 . S
N432 C433 1.321 . S
N432 Co435 2.135 . S
C433 N431 1.340 . S
C433 N432 1.321 . S
C433 H457 0.930 . S
H434 C429 0.931 . S
Co435 N432 2.135 . S
Co435 N438 2.121 . S
Co435 O443 2.055 . S
Co435 O446 2.039 . S
Co435 N449 2.140 . S
C436 O437 1.227 . S
C436 O446 1.265 . S
O437 C436 1.227 . S
N438 Co435 2.121 . S
N438 C440 1.375 . S
N438 C441 1.313 . S
C439 C440 1.338 . S
C439 N442 1.377 . S
C439 H459 0.930 . S
C440 N438 1.375 . S
C440 C439 1.338 . S
C440 H444 0.931 . S
C441 N438 1.313 . S
C441 N442 1.344 . S
C441 H445 0.930 . S
N442 C439 1.377 . S
N442 C441 1.344 . S
O443 Co435 2.055 . S
O443 C447 1.253 . S
H444 C440 0.931 . S
H445 C441 0.930 . S
O446 Co435 2.039 . S
O446 C436 1.265 . S
C447 O443 1.253 . S
C447 O448 1.227 . S
O448 C447 1.227 . S
N449 Co435 2.140 . S
N449 C452 1.346 . S
N449 C453 1.345 . S
C450 C451 1.387 . S
C450 C454 1.391 . S
C451 C450 1.387 . S
C451 C452 1.369 . S
C451 H460 0.929 . S
C452 N449 1.346 . S
C452 C451 1.369 . S
C452 H455 0.928 . S
C453 N449 1.345 . S
C453 C454 1.371 . S
C453 H456 0.931 . S
C454 C450 1.391 . S
C454 C453 1.371 . S
C454 H461 0.930 . S
H455 C452 0.928 . S
H456 C453 0.931 . S
H457 C433 0.930 . S
H458 C430 0.930 . S
H459 C439 0.930 . S
H460 C451 0.929 . S
H461 C454 0.930 . S
C462 C463 1.351 . S
C462 N465 1.368 . S
C462 H467 0.931 . S
C463 C462 1.351 . S
C463 N464 1.373 . S
C463 H491 0.930 . S
N464 C463 1.373 . S
N464 C466 1.340 . S
N465 C462 1.368 . S
N465 C466 1.321 . S
N465 Co468 2.135 . S
C466 N464 1.340 . S
C466 N465 1.321 . S
C466 H490 0.930 . S
H467 C462 0.931 . S
Co468 N465 2.135 . S
Co468 N471 2.121 . S
Co468 O476 2.055 . S
Co468 O479 2.039 . S
Co468 N482 2.140 . S
C469 O470 1.227 . S
C469 O479 1.265 . S
O470 C469 1.227 . S
N471 Co468 2.121 . S
N471 C473 1.375 . S
N471 C474 1.313 . S
C472 C473 1.338 . S
C472 N475 1.377 . S
C472 H492 0.930 . S
C473 N471 1.375 . S
C473 C472 1.338 . S
C473 H477 0.931 . S
C474 N471 1.313 . S
C474 N475 1.344 . S
C474 H478 0.930 . S
N475 C472 1.377 . S
N475 C474 1.344 . S
O476 Co468 2.055 . S
O476 C480 1.253 . S
H477 C473 0.931 . S
H478 C474 0.930 . S
O479 Co468 2.039 . S
O479 C469 1.265 . S
C480 O476 1.253 . S
C480 O481 1.227 . S
O481 C480 1.227 . S
N482 Co468 2.140 . S
N482 C485 1.346 . S
N482 C486 1.345 . S
C483 C484 1.387 . S
C483 C487 1.391 . S
C484 C483 1.387 . S
C484 C485 1.369 . S
C484 H493 0.929 . S
C485 N482 1.346 . S
C485 C484 1.369 . S
C485 H488 0.928 . S
C486 N482 1.345 . S
C486 C487 1.371 . S
C486 H489 0.931 . S
C487 C483 1.391 . S
C487 C486 1.371 . S
C487 H494 0.930 . S
H488 C485 0.928 . S
H489 C486 0.931 . S
H490 C466 0.930 . S
H491 C463 0.930 . S
H492 C472 0.930 . S
H493 C484 0.929 . S
H494 C487 0.930 . S
C495 C496 1.351 . S
C495 N498 1.368 . S
C495 H500 0.931 . S
C496 C495 1.351 . S
C496 N497 1.373 . S
C496 H524 0.930 . S
N497 C496 1.373 . S
N497 C499 1.340 . S
N498 C495 1.368 . S
N498 C499 1.321 . S
N498 Co501 2.135 . S
C499 N497 1.340 . S
C499 N498 1.321 . S
C499 H523 0.930 . S
H500 C495 0.931 . S
Co501 N498 2.135 . S
Co501 N504 2.121 . S
Co501 O509 2.055 . S
Co501 O512 2.039 . S
Co501 N515 2.140 . S
C502 O503 1.227 . S
C502 O512 1.265 . S
O503 C502 1.227 . S
N504 Co501 2.121 . S
N504 C506 1.375 . S
N504 C507 1.313 . S
C505 C506 1.338 . S
C505 N508 1.377 . S
C505 H525 0.930 . S
C506 N504 1.375 . S
C506 C505 1.338 . S
C506 H510 0.931 . S
C507 N504 1.313 . S
C507 N508 1.344 . S
C507 H511 0.930 . S
N508 C505 1.377 . S
N508 C507 1.344 . S
O509 Co501 2.055 . S
O509 C513 1.253 . S
H510 C506 0.931 . S
H511 C507 0.930 . S
O512 Co501 2.039 . S
O512 C502 1.265 . S
C513 O509 1.253 . S
C513 O514 1.227 . S
O514 C513 1.227 . S
N515 Co501 2.140 . S
N515 C518 1.346 . S
N515 C519 1.345 . S
C516 C517 1.387 . S
C516 C520 1.391 . S
C517 C516 1.387 . S
C517 C518 1.369 . S
C517 H526 0.929 . S
C518 N515 1.346 . S
C518 C517 1.369 . S
C518 H521 0.928 . S
C519 N515 1.345 . S
C519 C520 1.371 . S
C519 H522 0.931 . S
C520 C516 1.391 . S
C520 C519 1.371 . S
C520 H527 0.930 . S
H521 C518 0.928 . S
H522 C519 0.931 . S
H523 C499 0.930 . S
H524 C496 0.930 . S
H525 C505 0.930 . S
H526 C517 0.929 . S
H527 C520 0.930 . S
H528 C534 0.930 . S
H529 C537 0.930 . S
H530 C538 0.930 . S
H531 C539 0.930 . S
H532 C542 0.930 . S
H533 C543 0.930 . S
C534 H528 0.930 . S
C534 C535 1.355 . S
C534 C536 1.415 . S
C535 C534 1.355 . S
C535 C537 1.419 . S
C536 C534 1.415 . S
C536 C541 1.425 . S
C536 C543 1.409 . S
C537 H529 0.930 . S
C537 C535 1.419 . S
C537 C538 1.362 . S
C538 H530 0.930 . S
C538 C537 1.362 . S
C538 C541 1.409 . S
C539 H531 0.930 . S
C539 C540 1.355 . S
C539 C541 1.415 . S
C540 C539 1.355 . S
C540 C542 1.419 . S
C541 C536 1.425 . S
C541 C538 1.409 . S
C541 C539 1.415 . S
C542 H532 0.930 . S
C542 C540 1.419 . S
C542 C543 1.362 . S
C543 H533 0.930 . S
C543 C536 1.409 . S
C543 C542 1.362 . S
H544 C550 0.930 . S
H545 C553 0.930 . S
H546 C554 0.930 . S
H547 C555 0.930 . S
H548 C558 0.930 . S
H549 C559 0.930 . S
C550 H544 0.930 . S
C550 C551 1.355 . S
C550 C552 1.415 . S
C551 C550 1.355 . S
C551 C553 1.419 . S
C552 C550 1.415 . S
C552 C557 1.425 . S
C552 C559 1.409 . S
C553 H545 0.930 . S
C553 C551 1.419 . S
C553 C554 1.362 . S
C554 H546 0.930 . S
C554 C553 1.362 . S
C554 C557 1.409 . S
C555 H547 0.930 . S
C555 C556 1.355 . S
C555 C557 1.415 . S
C556 C555 1.355 . S
C556 C558 1.419 . S
C557 C552 1.425 . S
C557 C554 1.409 . S
C557 C555 1.415 . S
C558 H548 0.930 . S
C558 C556 1.419 . S
C558 C559 1.362 . S
C559 H549 0.930 . S
C559 C552 1.409 . S
C559 C558 1.362 . S
H560 C566 0.930 . S
H561 C569 0.930 . S
H562 C570 0.930 . S
H563 C571 0.930 . S
H564 C574 0.930 . S
H565 C575 0.930 . S
C566 H560 0.930 . S
C566 C567 1.355 . S
C566 C568 1.415 . S
C567 C566 1.355 . S
C567 C569 1.419 . S
C568 C566 1.415 . S
C568 C573 1.425 . S
C568 C575 1.409 . S
C569 H561 0.930 . S
C569 C567 1.419 . S
C569 C570 1.362 . S
C570 H562 0.930 . S
C570 C569 1.362 . S
C570 C573 1.409 . S
C571 H563 0.930 . S
C571 C572 1.355 . S
C571 C573 1.415 . S
C572 C571 1.355 . S
C572 C574 1.419 . S
C573 C568 1.425 . S
C573 C570 1.409 . S
C573 C571 1.415 . S
C574 H564 0.930 . S
C574 C572 1.419 . S
C574 C575 1.362 . S
C575 H565 0.930 . S
C575 C568 1.409 . S
C575 C574 1.362 . S
H576 C582 0.930 . S
H577 C585 0.930 . S
H578 C586 0.930 . S
H579 C587 0.930 . S
H580 C590 0.930 . S
H581 C591 0.930 . S
C582 H576 0.930 . S
C582 C583 1.355 . S
C582 C584 1.415 . S
C583 C582 1.355 . S
C583 C585 1.419 . S
C584 C582 1.415 . S
C584 C589 1.425 . S
C584 C591 1.409 . S
C585 H577 0.930 . S
C585 C583 1.419 . S
C585 C586 1.362 . S
C586 H578 0.930 . S
C586 C585 1.362 . S
C586 C589 1.409 . S
C587 H579 0.930 . S
C587 C588 1.355 . S
C587 C589 1.415 . S
C588 C587 1.355 . S
C588 C590 1.419 . S
C589 C584 1.425 . S
C589 C586 1.409 . S
C589 C587 1.415 . S
C590 H580 0.930 . S
C590 C588 1.419 . S
C590 C591 1.362 . S
C591 H581 0.930 . S
C591 C584 1.409 . S
C591 C590 1.362 . S
H592 C598 0.930 . S
H593 C601 0.930 . S
H594 C602 0.930 . S
H595 C603 0.930 . S
H596 C606 0.930 . S
H597 C607 0.930 . S
C598 H592 0.930 . S
C598 C599 1.355 . S
C598 C600 1.415 . S
C599 C598 1.355 . S
C599 C601 1.419 . S
C600 C598 1.415 . S
C600 C605 1.425 . S
C600 C607 1.409 1_554 S
C601 H593 0.930 . S
C601 C599 1.419 . S
C601 C602 1.362 . S
C602 H594 0.930 . S
C602 C601 1.362 . S
C602 C605 1.409 . S
C603 H595 0.930 . S
C603 C604 1.355 . S
C603 C605 1.415 1_556 S
C604 C603 1.355 . S
C604 C606 1.419 . S
C605 C600 1.425 . S
C605 C602 1.409 . S
C605 C603 1.415 1_554 S
C606 H596 0.930 . S
C606 C604 1.419 . S
C606 C607 1.362 . S
C607 H597 0.930 . S
C607 C600 1.409 1_556 S
C607 C606 1.362 . S
H608 C614 0.930 . S
H609 C617 0.930 . S
H610 C618 0.930 1_554 S
H611 C619 0.930 . S
H612 C622 0.930 . S
H613 C623 0.930 . S
C614 H608 0.930 . S
C614 C615 1.355 . S
C614 C616 1.415 . S
C615 C614 1.355 . S
C615 C617 1.419 . S
C616 C614 1.415 . S
C616 C621 1.425 1_556 S
C616 C623 1.409 . S
C617 H609 0.930 . S
C617 C615 1.419 . S
C617 C618 1.362 . S
C618 H610 0.930 1_556 S
C618 C617 1.362 . S
C618 C621 1.409 1_556 S
C619 H611 0.930 . S
C619 C620 1.355 . S
C619 C621 1.415 . S
C620 C619 1.355 . S
C620 C622 1.419 . S
C621 C616 1.425 1_554 S
C621 C618 1.409 1_554 S
C621 C619 1.415 . S
C622 H612 0.930 . S
C622 C620 1.419 . S
C622 C623 1.362 1_554 S
C623 H613 0.930 . S
C623 C616 1.409 . S
C623 C622 1.362 1_556 S
H624 C630 0.930 . S
H625 C633 0.930 . S
H626 C634 0.897 1_554 S
H627 C635 0.930 . S
H628 C638 0.930 . S
H629 C639 0.930 . S
C630 H624 0.930 . S
C630 C631 1.355 . S
C630 C632 1.415 . S
C631 C630 1.355 . S
C631 C633 1.419 . S
C632 C630 1.415 . S
C632 C637 1.425 1_556 S
C632 C639 1.409 1_556 S
C633 H625 0.930 . S
C633 C631 1.419 . S
C633 C634 1.435 . S
C634 H626 0.897 1_556 S
C634 C633 1.435 . S
C634 C637 1.374 1_556 S
C635 H627 0.930 . S
C635 C636 1.355 . S
C635 C637 1.415 . S
C636 C635 1.355 . S
C636 C638 1.419 . S
C637 C632 1.425 1_554 S
C637 C634 1.374 1_554 S
C637 C635 1.415 . S
C638 H628 0.930 . S
C638 C636 1.419 . S
C638 C639 1.362 . S
C639 H629 0.930 . S
C639 C632 1.409 1_554 S
C639 C638 1.362 . S
H640 C646 0.930 . S
H641 C649 0.930 . S
H642 C650 0.930 . S
H643 C651 0.930 . S
H644 C654 0.930 . S
H645 C655 0.930 . S
C646 H640 0.930 . S
C646 C647 1.355 . S
C646 C648 1.415 1_554 S
C647 C646 1.355 . S
C647 C649 1.419 . S
C648 C646 1.415 1_556 S
C648 C653 1.425 . S
C648 C655 1.409 . S
C649 H641 0.930 . S
C649 C647 1.419 . S
C649 C650 1.362 . S
C650 H642 0.930 . S
C650 C649 1.362 . S
C650 C653 1.409 1_554 S
C651 H643 0.930 . S
C651 C652 1.355 . S
C651 C653 1.415 . S
C652 C651 1.355 . S
C652 C654 1.419 . S
C653 C648 1.425 . S
C653 C650 1.409 1_556 S
C653 C651 1.415 . S
C654 H644 0.930 . S
C654 C652 1.419 . S
C654 C655 1.362 . S
C655 H645 0.930 . S
C655 C648 1.409 . S
C655 C654 1.362 . S
H656 C662 0.930 . S
H657 C665 0.930 . S
H658 C666 0.930 . S
H659 C667 0.930 . S
H660 C670 0.930 . S
H661 C671 0.930 . S
C662 H656 0.930 . S
C662 C663 1.355 . S
C662 C664 1.415 . S
C663 C662 1.355 . S
C663 C665 1.419 . S
C664 C662 1.415 . S
C664 C669 1.425 . S
C664 C671 1.409 . S
C665 H657 0.930 . S
C665 C663 1.419 . S
C665 C666 1.362 . S
C666 H658 0.930 . S
C666 C665 1.362 . S
C666 C669 1.409 . S
C667 H659 0.930 . S
C667 C668 1.355 . S
C667 C669 1.415 . S
C668 C667 1.355 . S
C668 C670 1.419 . S
C669 C664 1.425 . S
C669 C666 1.409 . S
C669 C667 1.415 . S
C670 H660 0.930 . S
C670 C668 1.419 . S
C670 C671 1.362 . S
C671 H661 0.930 . S
C671 C664 1.409 . S
C671 C670 1.362 . S
H672 C678 0.930 . S
H673 C681 0.930 . S
H674 C682 0.930 . S
H675 C683 0.930 . S
H676 C686 0.930 . S
H677 C687 0.930 . S
C678 H672 0.930 . S
C678 C679 1.355 . S
C678 C680 1.415 . S
C679 C678 1.355 . S
C679 C681 1.419 . S
C680 C678 1.415 . S
C680 C685 1.425 . S
C680 C687 1.409 . S
C681 H673 0.930 . S
C681 C679 1.419 . S
C681 C682 1.362 . S
C682 H674 0.930 . S
C682 C681 1.362 . S
C682 C685 1.409 . S
C683 H675 0.930 . S
C683 C684 1.355 . S
C683 C685 1.415 . S
C684 C683 1.355 . S
C684 C686 1.419 . S
C685 C680 1.425 . S
C685 C682 1.409 . S
C685 C683 1.415 . S
C686 H676 0.930 . S
C686 C684 1.419 . S
C686 C687 1.362 . S
C687 H677 0.930 . S
C687 C680 1.409 . S
C687 C686 1.362 . S
H688 C694 0.930 . S
H689 C697 0.930 . S
H690 C698 0.930 . S
H691 C699 0.930 . S
H692 C702 0.930 . S
H693 C703 0.930 . S
C694 H688 0.930 . S
C694 C695 1.355 . S
C694 C696 1.415 . S
C695 C694 1.355 . S
C695 C697 1.419 . S
C696 C694 1.415 . S
C696 C701 1.425 . S
C696 C703 1.409 . S
C697 H689 0.930 . S
C697 C695 1.419 . S
C697 C698 1.362 . S
C698 H690 0.930 . S
C698 C697 1.362 . S
C698 C701 1.409 . S
C699 H691 0.930 . S
C699 C700 1.355 . S
C699 C701 1.415 . S
C700 C699 1.355 . S
C700 C702 1.419 . S
C701 C696 1.425 . S
C701 C698 1.409 . S
C701 C699 1.415 . S
C702 H692 0.930 . S
C702 C700 1.419 . S
C702 C703 1.362 . S
C703 H693 0.930 . S
C703 C696 1.409 . S
C703 C702 1.362 . S
H704 C710 0.930 . S
H705 C713 0.930 . S
H706 C714 0.930 . S
H707 C715 0.930 . S
H708 C718 0.930 . S
H709 C719 0.930 . S
C710 H704 0.930 . S
C710 C711 1.355 . S
C710 C712 1.415 . S
C711 C710 1.355 . S
C711 C713 1.419 . S
C712 C710 1.415 . S
C712 C717 1.425 . S
C712 C719 1.409 . S
C713 H705 0.930 . S
C713 C711 1.419 . S
C713 C714 1.362 . S
C714 H706 0.930 . S
C714 C713 1.362 . S
C714 C717 1.409 . S
C715 H707 0.930 . S
C715 C716 1.355 . S
C715 C717 1.415 . S
C716 C715 1.355 . S
C716 C718 1.419 . S
C717 C712 1.425 . S
C717 C714 1.409 . S
C717 C715 1.415 . S
C718 H708 0.930 . S
C718 C716 1.419 . S
C718 C719 1.362 . S
C719 H709 0.930 . S
C719 C712 1.409 . S
C719 C718 1.362 . S
H720 C726 0.930 . S
H721 C729 0.930 . S
H722 C730 0.930 . S
H723 C731 0.930 . S
H724 C734 0.930 . S
H725 C735 0.930 . S
C726 H720 0.930 . S
C726 C727 1.355 . S
C726 C728 1.415 . S
C727 C726 1.355 . S
C727 C729 1.419 . S
C728 C726 1.415 . S
C728 C733 1.425 . S
C728 C735 1.409 . S
C729 H721 0.930 . S
C729 C727 1.419 . S
C729 C730 1.362 . S
C730 H722 0.930 . S
C730 C729 1.362 . S
C730 C733 1.409 . S
C731 H723 0.930 . S
C731 C732 1.355 . S
C731 C733 1.415 . S
C732 C731 1.355 . S
C732 C734 1.419 . S
C733 C728 1.425 . S
C733 C730 1.409 . S
C733 C731 1.415 . S
C734 H724 0.930 . S
C734 C732 1.419 . S
C734 C735 1.362 . S
C735 H725 0.930 . S
C735 C728 1.409 . S
C735 C734 1.362 . S
H736 C742 0.930 . S
H737 C745 0.930 . S
H738 C746 0.930 . S
H739 C747 0.930 . S
H740 C750 0.930 . S
H741 C751 0.930 . S
C742 H736 0.930 . S
C742 C743 1.355 . S
C742 C744 1.415 . S
C743 C742 1.355 . S
C743 C745 1.419 . S
C744 C742 1.415 . S
C744 C749 1.425 . S
C744 C751 1.409 . S
C745 H737 0.930 . S
C745 C743 1.419 . S
C745 C746 1.362 . S
C746 H738 0.930 . S
C746 C745 1.362 . S
C746 C749 1.409 . S
C747 H739 0.930 . S
C747 C748 1.355 . S
C747 C749 1.415 . S
C748 C747 1.355 . S
C748 C750 1.419 . S
C749 C744 1.425 . S
C749 C746 1.409 . S
C749 C747 1.415 . S
C750 H740 0.930 . S
C750 C748 1.419 . S
C750 C751 1.362 . S
C751 H741 0.930 . S
C751 C744 1.409 . S
C751 C750 1.362 . S
H752 C758 0.930 . S
H753 C761 0.930 . S
H754 C762 0.930 . S
H755 C763 0.930 . S
H756 C766 0.930 . S
H757 C767 0.930 . S
C758 H752 0.930 . S
C758 C759 1.355 . S
C758 C760 1.415 . S
C759 C758 1.355 . S
C759 C761 1.419 . S
C760 C758 1.415 . S
C760 C765 1.425 . S
C760 C767 1.409 . S
C761 H753 0.930 . S
C761 C759 1.419 . S
C761 C762 1.362 . S
C762 H754 0.930 . S
C762 C761 1.362 . S
C762 C765 1.409 . S
C763 H755 0.930 . S
C763 C764 1.355 . S
C763 C765 1.415 . S
C764 C763 1.355 . S
C764 C766 1.419 . S
C765 C760 1.425 . S
C765 C762 1.409 . S
C765 C763 1.415 . S
C766 H756 0.930 . S
C766 C764 1.419 . S
C766 C767 1.362 . S
C767 H757 0.930 . S
C767 C760 1.409 . S
C767 C766 1.362 . S
H768 C774 0.930 . S
H769 C777 0.930 . S
H770 C778 0.930 . S
H771 C779 0.930 . S
H772 C782 0.930 . S
H773 C783 0.930 . S
C774 H768 0.930 . S
C774 C775 1.355 . S
C774 C776 1.415 . S
C775 C774 1.355 . S
C775 C777 1.419 . S
C776 C774 1.415 . S
C776 C781 1.425 . S
C776 C783 1.409 . S
C777 H769 0.930 . S
C777 C775 1.419 . S
C777 C778 1.362 . S
C778 H770 0.930 . S
C778 C777 1.362 . S
C778 C781 1.409 . S
C779 H771 0.930 . S
C779 C780 1.355 . S
C779 C781 1.415 . S
C780 C779 1.355 . S
C780 C782 1.419 . S
C781 C776 1.425 . S
C781 C778 1.409 . S
C781 C779 1.415 . S
C782 H772 0.930 . S
C782 C780 1.419 . S
C782 C783 1.362 . S
C783 H773 0.930 . S
C783 C776 1.409 . S
C783 C782 1.362 . S
H784 C790 0.930 . S
H785 C793 0.930 . S
H786 C794 0.930 . S
H787 C795 0.930 . S
H788 C798 0.930 . S
H789 C799 0.930 . S
C790 H784 0.930 . S
C790 C791 1.355 1_655 S
C790 C792 1.415 . S
C791 C790 1.355 1_455 S
C791 C793 1.419 . S
C792 C790 1.415 . S
C792 C797 1.425 1_645 S
C792 C799 1.409 1_545 S
C793 H785 0.930 . S
C793 C791 1.419 . S
C793 C794 1.362 . S
C794 H786 0.930 . S
C794 C793 1.362 . S
C794 C797 1.409 1_545 S
C795 H787 0.930 . S
C795 C796 1.355 1_455 S
C795 C797 1.415 . S
C796 C795 1.355 1_655 S
C796 C798 1.419 . S
C797 C792 1.425 1_465 S
C797 C794 1.409 1_565 S
C797 C795 1.415 . S
C798 H788 0.930 . S
C798 C796 1.419 . S
C798 C799 1.362 . S
C799 H789 0.930 . S
C799 C792 1.409 1_565 S
C799 C798 1.362 . S
H800 C806 0.929 1_545 S
H801 C809 0.930 . S
H802 C810 0.930 . S
H803 C811 0.929 1_565 S
H804 C814 0.930 . S
H805 C815 0.930 . S
C806 H800 0.929 1_565 S
C806 C807 1.355 . S
C806 C808 1.415 1_565 S
C807 C806 1.355 . S
C807 C809 1.419 . S
C808 C806 1.415 1_545 S
C808 C813 1.425 1_445 S
C808 C815 1.409 1_455 S
C809 H801 0.930 . S
C809 C807 1.419 . S
C809 C810 1.362 . S
C810 H802 0.930 . S
C810 C809 1.362 . S
C810 C813 1.409 1_455 S
C811 H803 0.929 1_545 S
C811 C812 1.355 . S
C811 C813 1.415 1_545 S
C812 C811 1.355 . S
C812 C814 1.419 . S
C813 C808 1.425 1_665 S
C813 C810 1.409 1_655 S
C813 C811 1.415 1_565 S
C814 H804 0.930 . S
C814 C812 1.419 . S
C814 C815 1.362 . S
C815 H805 0.930 . S
C815 C808 1.409 1_655 S
C815 C814 1.362 . S
H816 C822 0.930 . S
H817 C825 0.930 . S
H818 C826 0.930 . S
H819 C827 0.930 . S
H820 C830 0.930 . S
H821 C831 0.930 . S
C822 H816 0.930 . S
C822 C823 1.355 1_655 S
C822 C824 1.415 . S
C823 C822 1.355 1_455 S
C823 C825 1.419 . S
C824 C822 1.415 . S
C824 C829 1.425 1_655 S
C824 C831 1.409 . S
C825 H817 0.930 . S
C825 C823 1.419 . S
C825 C826 1.362 . S
C826 H818 0.930 . S
C826 C825 1.362 . S
C826 C829 1.409 . S
C827 H819 0.930 . S
C827 C828 1.355 1_455 S
C827 C829 1.415 . S
C828 C827 1.355 1_655 S
C828 C830 1.419 . S
C829 C824 1.425 1_455 S
C829 C826 1.409 . S
C829 C827 1.415 . S
C830 H820 0.930 . S
C830 C828 1.419 . S
C830 C831 1.362 . S
C831 H821 0.930 . S
C831 C824 1.409 . S
C831 C830 1.362 . S
H832 C838 0.930 . S
H833 C841 0.930 . S
H834 C842 0.930 . S
H835 C843 0.930 . S
H836 C846 0.930 . S
H837 C847 0.930 . S
C838 H832 0.930 . S
C838 C839 1.355 1_545 S
C838 C840 1.415 . S
C839 C838 1.355 1_565 S
C839 C841 1.419 . S
C840 C838 1.415 . S
C840 C845 1.425 1_545 S
C840 C847 1.409 . S
C841 H833 0.930 . S
C841 C839 1.419 . S
C841 C842 1.362 . S
C842 H834 0.930 . S
C842 C841 1.362 . S
C842 C845 1.409 . S
C843 H835 0.930 . S
C843 C844 1.355 1_565 S
C843 C845 1.415 . S
C844 C843 1.355 1_545 S
C844 C846 1.419 . S
C845 C840 1.425 1_565 S
C845 C842 1.409 . S
C845 C843 1.415 . S
C846 H836 0.930 . S
C846 C844 1.419 . S
C846 C847 1.362 . S
C847 H837 0.930 . S
C847 C840 1.409 . S
C847 C846 1.362 . S
H848 C854 0.930 . S
H849 C857 0.930 . S
H850 C858 0.930 . S
H851 C859 0.930 . S
H852 C862 0.930 . S
H853 C863 0.930 . S
C854 H848 0.930 . S
C854 C855 1.355 . S
C854 C856 1.415 . S
C855 C854 1.355 . S
C855 C857 1.419 . S
C856 C854 1.415 . S
C856 C861 1.425 . S
C856 C863 1.409 . S
C857 H849 0.930 . S
C857 C855 1.419 . S
C857 C858 1.362 . S
C858 H850 0.930 . S
C858 C857 1.362 . S
C858 C861 1.409 . S
C859 H851 0.930 . S
C859 C860 1.355 . S
C859 C861 1.415 . S
C860 C859 1.355 . S
C860 C862 1.419 . S
C861 C856 1.425 . S
C861 C858 1.409 . S
C861 C859 1.415 . S
C862 H852 0.930 . S
C862 C860 1.419 . S
C862 C863 1.362 . S
C863 H853 0.930 . S
C863 C856 1.409 . S
C863 C862 1.362 . S
H864 C870 0.930 . S
H865 C873 0.930 . S
H866 C874 0.930 . S
H867 C875 0.930 . S
H868 C878 0.930 . S
H869 C879 0.930 . S
C870 H864 0.930 . S
C870 C871 1.355 . S
C870 C872 1.415 . S
C871 C870 1.355 . S
C871 C873 1.419 . S
C872 C870 1.415 . S
C872 C877 1.425 . S
C872 C879 1.409 . S
C873 H865 0.930 . S
C873 C871 1.419 . S
C873 C874 1.362 . S
C874 H866 0.930 . S
C874 C873 1.362 . S
C874 C877 1.409 . S
C875 H867 0.930 . S
C875 C876 1.355 . S
C875 C877 1.415 . S
C876 C875 1.355 . S
C876 C878 1.419 . S
C877 C872 1.425 . S
C877 C874 1.409 . S
C877 C875 1.415 . S
C878 H868 0.930 . S
C878 C876 1.419 . S
C878 C879 1.362 . S
C879 H869 0.930 . S
C879 C872 1.409 . S
C879 C878 1.362 . S
H880 C886 0.930 . S
H881 C889 0.930 . S
H882 C890 0.930 . S
H883 C891 0.930 . S
H884 C894 0.930 . S
H885 C895 0.930 . S
C886 H880 0.930 . S
C886 C887 1.355 . S
C886 C888 1.415 . S
C887 C886 1.355 . S
C887 C889 1.419 . S
C888 C886 1.415 . S
C888 C893 1.425 1_565 S
C888 C895 1.409 1_565 S
C889 H881 0.930 . S
C889 C887 1.419 . S
C889 C890 1.362 . S
C890 H882 0.930 . S
C890 C889 1.362 . S
C890 C893 1.409 1_565 S
C891 H883 0.930 . S
C891 C892 1.355 . S
C891 C893 1.415 . S
C892 C891 1.355 . S
C892 C894 1.419 . S
C893 C888 1.425 1_545 S
C893 C890 1.409 1_545 S
C893 C891 1.415 . S
C894 H884 0.930 . S
C894 C892 1.419 . S
C894 C895 1.362 . S
C895 H885 0.930 . S
C895 C888 1.409 1_545 S
C895 C894 1.362 . S
H896 C902 0.930 . S
H897 C905 0.930 . S
H898 C906 0.930 . S
H899 C907 0.930 . S
H900 C910 0.930 . S
H901 C911 0.930 . S
C902 H896 0.930 . S
C902 C903 1.355 . S
C902 C904 1.415 . S
C903 C902 1.355 . S
C903 C905 1.419 . S
C904 C902 1.415 . S
C904 C909 1.425 1_455 S
C904 C911 1.409 1_455 S
C905 H897 0.930 . S
C905 C903 1.419 . S
C905 C906 1.362 . S
C906 H898 0.930 . S
C906 C905 1.362 . S
C906 C909 1.409 1_455 S
C907 H899 0.930 . S
C907 C908 1.355 . S
C907 C909 1.415 . S
C908 C907 1.355 . S
C908 C910 1.419 . S
C909 C904 1.425 1_655 S
C909 C906 1.409 1_655 S
C909 C907 1.415 . S
C910 H900 0.930 . S
C910 C908 1.419 . S
C910 C911 1.362 . S
C911 H901 0.930 . S
C911 C904 1.409 1_655 S
C911 C910 1.362 . S
H912 C918 0.930 . S
H913 C921 0.930 . S
H914 C922 0.930 . S
H915 C923 0.930 . S
H916 C926 0.930 . S
H917 C927 0.930 . S
C918 H912 0.930 . S
C918 C919 1.355 . S
C918 C920 1.415 1_455 S
C919 C918 1.355 . S
C919 C921 1.419 . S
C920 C918 1.415 1_655 S
C920 C925 1.425 1_655 S
C920 C927 1.409 . S
C921 H913 0.930 . S
C921 C919 1.419 . S
C921 C922 1.362 . S
C922 H914 0.930 . S
C922 C921 1.362 . S
C922 C925 1.409 . S
C923 H915 0.930 . S
C923 C924 1.355 . S
C923 C925 1.415 1_655 S
C924 C923 1.355 . S
C924 C926 1.419 . S
C925 C920 1.425 1_455 S
C925 C922 1.409 . S
C925 C923 1.415 1_455 S
C926 H916 0.930 . S
C926 C924 1.419 . S
C926 C927 1.362 . S
C927 H917 0.930 . S
C927 C920 1.409 . S
C927 C926 1.362 . S
H928 C934 0.930 . S
H929 C937 0.930 . S
H930 C938 0.930 . S
H931 C939 0.930 . S
H932 C942 0.930 . S
H933 C943 0.930 . S
C934 H928 0.930 . S
C934 C935 1.355 1_565 S
C934 C936 1.415 . S
C935 C934 1.355 1_545 S
C935 C937 1.419 . S
C936 C934 1.415 . S
C936 C941 1.425 1_565 S
C936 C943 1.409 . S
C937 H929 0.930 . S
C937 C935 1.419 . S
C937 C938 1.362 . S
C938 H930 0.930 . S
C938 C937 1.362 . S
C938 C941 1.409 . S
C939 H931 0.930 . S
C939 C940 1.355 1_545 S
C939 C941 1.415 . S
C940 C939 1.355 1_565 S
C940 C942 1.419 . S
C941 C936 1.425 1_545 S
C941 C938 1.409 . S
C941 C939 1.415 . S
C942 H932 0.930 . S
C942 C940 1.419 . S
C942 C943 1.362 . S
C943 H933 0.930 . S
C943 C936 1.409 . S
C943 C942 1.362 . S
H944 C950 0.930 . S
H945 C953 0.930 . S
H946 C954 0.930 . S
H947 C955 0.930 . S
H948 C958 0.930 . S
H949 C959 0.930 . S
C950 H944 0.930 . S
C950 C951 1.355 1_455 S
C950 C952 1.415 . S
C951 C950 1.355 1_655 S
C951 C953 1.419 . S
C952 C950 1.415 . S
C952 C957 1.425 1_445 S
C952 C959 1.409 1_545 S
C953 H945 0.930 . S
C953 C951 1.419 . S
C953 C954 1.362 . S
C954 H946 0.930 . S
C954 C953 1.362 . S
C954 C957 1.409 1_545 S
C955 H947 0.930 . S
C955 C956 1.355 1_655 S
C955 C957 1.415 . S
C956 C955 1.355 1_455 S
C956 C958 1.419 . S
C957 C952 1.425 1_665 S
C957 C954 1.409 1_565 S
C957 C955 1.415 . S
C958 H948 0.930 . S
C958 C956 1.419 . S
C958 C959 1.362 . S
C959 H949 0.930 . S
C959 C952 1.409 1_565 S
C959 C958 1.362 . S
H960 C966 0.930 . S
H961 C969 0.930 . S
H962 C970 0.930 . S
H963 C971 0.930 . S
H964 C974 0.930 . S
H965 C975 0.930 . S
C966 H960 0.930 . S
C966 C967 1.355 . S
C966 C968 1.415 . S
C967 C966 1.355 . S
C967 C969 1.419 1_565 S
C968 C966 1.415 . S
C968 C973 1.425 1_665 S
C968 C975 1.409 1_655 S
C969 H961 0.930 . S
C969 C967 1.419 1_545 S
C969 C970 1.362 . S
C970 H962 0.930 . S
C970 C969 1.362 . S
C970 C973 1.409 1_655 S
C971 H963 0.930 . S
C971 C972 1.355 . S
C971 C973 1.415 . S
C972 C971 1.355 . S
C972 C974 1.419 1_545 S
C973 C968 1.425 1_445 S
C973 C970 1.409 1_455 S
C973 C971 1.415 . S
C974 H964 0.930 . S
C974 C972 1.419 1_565 S
C974 C975 1.362 . S
C975 H965 0.930 . S
C975 C968 1.409 1_455 S
C975 C974 1.362 . S
H976 C982 0.930 . S
H977 C985 0.930 . S
H978 C986 0.930 1_565 S
H979 C987 0.930 . S
H980 C990 0.930 . S
H981 C991 0.930 1_545 S
C982 H976 0.930 . S
C982 C983 1.355 . S
C982 C984 1.415 . S
C983 C982 1.355 . S
C983 C985 1.419 . S
C984 C982 1.415 . S
C984 C989 1.425 1_545 S
C984 C991 1.409 1_545 S
C985 H977 0.930 . S
C985 C983 1.419 . S
C985 C986 1.362 . S
C986 H978 0.930 1_545 S
C986 C985 1.362 . S
C986 C989 1.409 1_545 S
C987 H979 0.930 . S
C987 C988 1.355 . S
C987 C989 1.415 . S
C988 C987 1.355 . S
C988 C990 1.419 . S
C989 C984 1.425 1_565 S
C989 C986 1.409 1_565 S
C989 C987 1.415 . S
C990 H980 0.930 . S
C990 C988 1.419 . S
C990 C991 1.362 . S
C991 H981 0.930 1_565 S
C991 C984 1.409 1_565 S
C991 C990 1.362 . S
H992 C998 0.930 . S
H993 C1001 0.930 . S
H994 C1002 0.930 . S
H995 C1003 0.930 . S
H996 C1006 0.930 . S
H997 C1007 0.930 . S
C998 H992 0.930 . S
C998 C999 1.355 . S
C998 C1000 1.415 . S
C999 C998 1.355 . S
C999 C1001 1.419 . S
C1000 C998 1.415 . S
C1000 C1005 1.425 1_655 S
C1000 C1007 1.409 1_655 S
C1001 H993 0.930 . S
C1001 C999 1.419 . S
C1001 C1002 1.362 . S
C1002 H994 0.930 . S
C1002 C1001 1.362 . S
C1002 C1005 1.409 1_655 S
C1003 H995 0.930 . S
C1003 C1004 1.355 . S
C1003 C1005 1.415 . S
C1004 C1003 1.355 . S
C1004 C1006 1.419 . S
C1005 C1000 1.425 1_455 S
C1005 C1002 1.409 1_455 S
C1005 C1003 1.415 . S
C1006 H996 0.930 . S
C1006 C1004 1.419 . S
C1006 C1007 1.362 . S
C1007 H997 0.930 . S
C1007 C1000 1.409 1_455 S
C1007 C1006 1.362 . S
H1008 C1014 0.930 . S
H1009 C1017 0.930 . S
H1010 C1018 0.930 . S
H1011 C1019 0.930 . S
H1012 C1022 0.930 . S
H1013 C1023 0.930 . S
C1014 H1008 0.930 . S
C1014 C1015 1.355 . S
C1014 C1016 1.415 . S
C1015 C1014 1.355 . S
C1015 C1017 1.419 . S
C1016 C1014 1.415 . S
C1016 C1021 1.425 . S
C1016 C1023 1.409 . S
C1017 H1009 0.930 . S
C1017 C1015 1.419 . S
C1017 C1018 1.362 . S
C1018 H1010 0.930 . S
C1018 C1017 1.362 . S
C1018 C1021 1.409 . S
C1019 H1011 0.930 . S
C1019 C1020 1.355 . S
C1019 C1021 1.415 . S
C1020 C1019 1.355 . S
C1020 C1022 1.419 . S
C1021 C1016 1.425 . S
C1021 C1018 1.409 . S
C1021 C1019 1.415 . S
C1022 H1012 0.930 . S
C1022 C1020 1.419 . S
C1022 C1023 1.362 . S
C1023 H1013 0.930 . S
C1023 C1016 1.409 . S
C1023 C1022 1.362 . S
H1024 C1030 0.930 . S
H1025 C1033 0.930 . S
H1026 C1034 0.930 . S
H1027 C1035 0.930 . S
H1028 C1038 0.930 . S
H1029 C1039 0.930 . S
C1030 H1024 0.930 . S
C1030 C1031 1.355 . S
C1030 C1032 1.415 . S
C1031 C1030 1.355 . S
C1031 C1033 1.419 . S
C1032 C1030 1.415 . S
C1032 C1037 1.425 . S
C1032 C1039 1.409 . S
C1033 H1025 0.930 . S
C1033 C1031 1.419 . S
C1033 C1034 1.362 . S
C1034 H1026 0.930 . S
C1034 C1033 1.362 . S
C1034 C1037 1.409 . S
C1035 H1027 0.930 . S
C1035 C1036 1.355 . S
C1035 C1037 1.415 . S
C1036 C1035 1.355 . S
C1036 C1038 1.419 . S
C1037 C1032 1.425 . S
C1037 C1034 1.409 . S
C1037 C1035 1.415 . S
C1038 H1028 0.930 . S
C1038 C1036 1.419 . S
C1038 C1039 1.362 . S
C1039 H1029 0.930 . S
C1039 C1032 1.409 . S
C1039 C1038 1.362 . S
H1040 C1046 0.930 . S
H1041 C1049 0.930 . S
H1042 C1050 0.930 . S
H1043 C1051 0.930 . S
H1044 C1054 0.930 . S
H1045 C1055 0.930 . S
C1046 H1040 0.930 . S
C1046 C1047 1.355 . S
C1046 C1048 1.415 . S
C1047 C1046 1.355 . S
C1047 C1049 1.419 . S
C1048 C1046 1.415 . S
C1048 C1053 1.425 . S
C1048 C1055 1.409 . S
C1049 H1041 0.930 . S
C1049 C1047 1.419 . S
C1049 C1050 1.362 . S
C1050 H1042 0.930 . S
C1050 C1049 1.362 . S
C1050 C1053 1.409 . S
C1051 H1043 0.930 . S
C1051 C1052 1.355 . S
C1051 C1053 1.415 . S
C1052 C1051 1.355 . S
C1052 C1054 1.419 . S
C1053 C1048 1.425 . S
C1053 C1050 1.409 . S
C1053 C1051 1.415 . S
C1054 H1044 0.930 . S
C1054 C1052 1.419 . S
C1054 C1055 1.362 . S
C1055 H1045 0.930 . S
C1055 C1048 1.409 . S
C1055 C1054 1.362 . S
H1056 C1062 0.930 . S
H1057 C1065 0.930 . S
H1058 C1066 0.930 . S
H1059 C1067 0.930 . S
H1060 C1070 0.930 . S
H1061 C1071 0.930 . S
C1062 H1056 0.930 . S
C1062 C1063 1.355 . S
C1062 C1064 1.415 . S
C1063 C1062 1.355 . S
C1063 C1065 1.419 . S
C1064 C1062 1.415 . S
C1064 C1069 1.425 . S
C1064 C1071 1.409 . S
C1065 H1057 0.930 . S
C1065 C1063 1.419 . S
C1065 C1066 1.362 . S
C1066 H1058 0.930 . S
C1066 C1065 1.362 . S
C1066 C1069 1.409 . S
C1067 H1059 0.930 . S
C1067 C1068 1.355 . S
C1067 C1069 1.415 . S
C1068 C1067 1.355 . S
C1068 C1070 1.419 . S
C1069 C1064 1.425 . S
C1069 C1066 1.409 . S
C1069 C1067 1.415 . S
C1070 H1060 0.930 . S
C1070 C1068 1.419 . S
C1070 C1071 1.362 . S
C1071 H1061 0.930 . S
C1071 C1064 1.409 . S
C1071 C1070 1.362 . S
H1072 C1078 0.930 . S
H1073 C1081 0.930 . S
H1074 C1082 0.930 . S
H1075 C1083 0.930 . S
H1076 C1086 0.930 . S
H1077 C1087 0.930 . S
C1078 H1072 0.930 . S
C1078 C1079 1.355 . S
C1078 C1080 1.415 . S
C1079 C1078 1.355 . S
C1079 C1081 1.419 . S
C1080 C1078 1.415 . S
C1080 C1085 1.425 . S
C1080 C1087 1.409 . S
C1081 H1073 0.930 . S
C1081 C1079 1.419 . S
C1081 C1082 1.362 . S
C1082 H1074 0.930 . S
C1082 C1081 1.362 . S
C1082 C1085 1.409 . S
C1083 H1075 0.930 . S
C1083 C1084 1.355 . S
C1083 C1085 1.415 . S
C1084 C1083 1.355 . S
C1084 C1086 1.419 . S
C1085 C1080 1.425 . S
C1085 C1082 1.409 . S
C1085 C1083 1.415 . S
C1086 H1076 0.930 . S
C1086 C1084 1.419 . S
C1086 C1087 1.362 . S
C1087 H1077 0.930 . S
C1087 C1080 1.409 . S
C1087 C1086 1.362 . S
H1088 C1094 0.930 . S
H1089 C1097 0.930 . S
H1090 C1098 0.930 . S
H1091 C1099 0.930 . S
H1092 C1102 0.930 . S
H1093 C1103 0.930 . S
C1094 H1088 0.930 . S
C1094 C1095 1.355 . S
C1094 C1096 1.415 . S
C1095 C1094 1.355 . S
C1095 C1097 1.419 . S
C1096 C1094 1.415 . S
C1096 C1101 1.425 . S
C1096 C1103 1.409 . S
C1097 H1089 0.930 . S
C1097 C1095 1.419 . S
C1097 C1098 1.362 . S
C1098 H1090 0.930 . S
C1098 C1097 1.362 . S
C1098 C1101 1.409 . S
C1099 H1091 0.930 . S
C1099 C1100 1.355 . S
C1099 C1101 1.415 . S
C1100 C1099 1.355 . S
C1100 C1102 1.419 . S
C1101 C1096 1.425 . S
C1101 C1098 1.409 . S
C1101 C1099 1.415 . S
C1102 H1092 0.930 . S
C1102 C1100 1.419 . S
C1102 C1103 1.362 . S
C1103 H1093 0.930 . S
C1103 C1096 1.409 . S
C1103 C1102 1.362 . S
H1104 C1110 0.930 . S
H1105 C1113 0.930 . S
H1106 C1114 0.930 . S
H1107 C1115 0.930 . S
H1108 C1118 0.930 . S
H1109 C1119 0.930 . S
C1110 H1104 0.930 . S
C1110 C1111 1.355 . S
C1110 C1112 1.415 . S
C1111 C1110 1.355 . S
C1111 C1113 1.419 . S
C1112 C1110 1.415 . S
C1112 C1117 1.425 . S
C1112 C1119 1.409 . S
C1113 H1105 0.930 . S
C1113 C1111 1.419 . S
C1113 C1114 1.362 . S
C1114 H1106 0.930 . S
C1114 C1113 1.362 . S
C1114 C1117 1.409 . S
C1115 H1107 0.930 . S
C1115 C1116 1.355 . S
C1115 C1117 1.415 . S
C1116 C1115 1.355 . S
C1116 C1118 1.419 . S
C1117 C1112 1.425 . S
C1117 C1114 1.409 . S
C1117 C1115 1.415 . S
C1118 H1108 0.930 . S
C1118 C1116 1.419 . S
C1118 C1119 1.362 . S
C1119 H1109 0.930 . S
C1119 C1112 1.409 . S
C1119 C1118 1.362 . S
H1120 C1126 0.930 . S
H1121 C1129 0.930 . S
H1122 C1130 0.930 . S
H1123 C1131 0.930 . S
H1124 C1134 0.930 . S
H1125 C1135 0.930 . S
C1126 H1120 0.930 . S
C1126 C1127 1.355 . S
C1126 C1128 1.415 . S
C1127 C1126 1.355 . S
C1127 C1129 1.419 . S
C1128 C1126 1.415 . S
C1128 C1133 1.425 . S
C1128 C1135 1.409 . S
C1129 H1121 0.930 . S
C1129 C1127 1.419 . S
C1129 C1130 1.362 . S
C1130 H1122 0.930 . S
C1130 C1129 1.362 . S
C1130 C1133 1.409 . S
C1131 H1123 0.930 . S
C1131 C1132 1.355 . S
C1131 C1133 1.415 . S
C1132 C1131 1.355 . S
C1132 C1134 1.419 . S
C1133 C1128 1.425 . S
C1133 C1130 1.409 . S
C1133 C1131 1.415 . S
C1134 H1124 0.930 . S
C1134 C1132 1.419 . S
C1134 C1135 1.362 . S
C1135 H1125 0.930 . S
C1135 C1128 1.409 . S
C1135 C1134 1.362 . S
H1136 C1142 0.930 . S
H1137 C1145 0.930 . S
H1138 C1146 0.930 . S
H1139 C1147 0.930 . S
H1140 C1150 0.930 . S
H1141 C1151 0.930 . S
C1142 H1136 0.930 . S
C1142 C1143 1.355 . S
C1142 C1144 1.415 . S
C1143 C1142 1.355 . S
C1143 C1145 1.419 . S
C1144 C1142 1.415 . S
C1144 C1149 1.425 . S
C1144 C1151 1.409 . S
C1145 H1137 0.930 . S
C1145 C1143 1.419 . S
C1145 C1146 1.362 . S
C1146 H1138 0.930 . S
C1146 C1145 1.362 . S
C1146 C1149 1.409 . S
C1147 H1139 0.930 . S
C1147 C1148 1.355 . S
C1147 C1149 1.415 . S
C1148 C1147 1.355 . S
C1148 C1150 1.419 . S
C1149 C1144 1.425 . S
C1149 C1146 1.409 . S
C1149 C1147 1.415 . S
C1150 H1140 0.930 . S
C1150 C1148 1.419 . S
C1150 C1151 1.362 . S
C1151 H1141 0.930 . S
C1151 C1144 1.409 . S
C1151 C1150 1.362 . S
H1152 C1158 0.930 . S
H1153 C1161 0.930 . S
H1154 C1162 0.930 . S
H1155 C1163 0.930 . S
H1156 C1166 0.930 . S
H1157 C1167 0.930 . S
C1158 H1152 0.930 . S
C1158 C1159 1.355 . S
C1158 C1160 1.415 . S
C1159 C1158 1.355 . S
C1159 C1161 1.419 . S
C1160 C1158 1.415 . S
C1160 C1165 1.425 . S
C1160 C1167 1.409 . S
C1161 H1153 0.930 . S
C1161 C1159 1.419 . S
C1161 C1162 1.362 . S
C1162 H1154 0.930 . S
C1162 C1161 1.362 . S
C1162 C1165 1.409 . S
C1163 H1155 0.930 . S
C1163 C1164 1.355 . S
C1163 C1165 1.415 . S
C1164 C1163 1.355 . S
C1164 C1166 1.419 . S
C1165 C1160 1.425 . S
C1165 C1162 1.409 . S
C1165 C1163 1.415 . S
C1166 H1156 0.930 . S
C1166 C1164 1.419 . S
C1166 C1167 1.362 . S
C1167 H1157 0.930 . S
C1167 C1160 1.409 . S
C1167 C1166 1.362 . S
C535 C21 0.894 . S
C540 N365 0.863 . S
C551 N266 0.830 . S
C556 C54 0.879 . S
C567 N299 0.881 . S
C572 C87 0.894 . S
C583 N332 0.854 . S
C588 C120 0.800 . S
C599 N167 0.892 . S
C604 C153 0.860 . S
C615 N200 0.794 . S
C620 C186 0.774 . S
C631 C219 0.775 . S
C636 N233 0.814 . S
C647 C252 0.862 . S
C652 N134 0.892 . S
C663 C285 0.895 . S
C668 N101 0.874 . S
C679 C318 0.866 . S
C684 N2 0.815 . S
C695 N35 0.797 . S
C700 C351 0.774 . S
C711 C384 0.881 . S
C716 N68 0.892 . S
C727 N431 0.783 . S
C732 C417 0.782 . S
C743 N464 0.888 . S
C748 C450 0.849 . S
C759 N497 0.828 . S
C764 C483 0.877 . S
C775 C516 0.875 . S
C780 N398 0.825 . S
C791 C18 1.256 . S
C796 C84 1.234 . S
C807 C51 1.271 . S
C812 C117 1.237 . S
C823 C216 1.285 1_455 S
C828 C150 1.282 1_655 S
C839 C249 1.290 1_565 S
C844 C183 1.274 1_545 S
C855 C348 1.272 . S
C860 C282 1.290 . S
C871 C315 1.278 . S
C876 C381 1.288 . S
C887 C414 1.246 . S
C892 C480 1.237 . S
C903 C513 1.252 . S
C908 C447 1.287 . S
C919 C73 1.341 . S
C924 C7 1.414 . S
C935 C40 1.395 . S
C940 C106 1.399 . S
C951 C139 1.360 . S
C956 C205 1.415 . S
C967 C238 1.360 . S
C972 C172 1.299 . S
C983 C337 1.412 . S
C988 C271 1.374 . S
C999 C304 1.306 . S
C1004 C370 1.337 . S
C1015 C403 1.306 . S
C1020 C469 1.336 . S
C1031 C502 1.408 . S
C1036 C436 1.382 . S
C1047 N475 1.628 . S
C1052 N13 1.609 . S
C1063 N46 1.601 . S
C1068 N508 1.636 . S
C1079 N79 1.586 . S
C1084 N409 1.651 . S
C1095 N112 1.586 . S
C1100 N442 1.651 . S
C1111 N145 1.605 . S
C1116 N343 1.633 . S
C1127 N376 1.588 . S
C1132 N178 1.649 . S
C1143 N211 1.635 . S
C1148 N277 1.603 . S
C1159 N244 1.598 . S
C1164 N310 1.639 . S
