# Generated by pormake.
# Topology snk, (6)-cn, num edge types: 1
# Building blocks:
#     Node 0, Type 0, BuildingBlock: MIFKUJ_clean_sbu_0, # of connection points: 6
#     Node 1, Type 0, BuildingBlock: MIFKUJ_clean_sbu_0, # of connection points: 6
#     Node 2, Type 0, BuildingBlock: MIFKUJ_clean_sbu_0, # of connection points: 6
#     Node 3, Type 0, BuildingBlock: MIFKUJ_clean_sbu_0, # of connection points: 6
#     Node 4, Type 0, BuildingBlock: MIFKUJ_clean_sbu_0, # of connection points: 6
#     Node 5, Type 0, BuildingBlock: MIFKUJ_clean_sbu_0, # of connection points: 6
#     Node 6, Type 0, BuildingBlock: MIFKUJ_clean_sbu_0, # of connection points: 6
#     Node 7, Type 0, BuildingBlock: MIFKUJ_clean_sbu_0, # of connection points: 6
#     Edge 8, Type (0, 0), BuildingBlock: OJICUG_clean_linker_0, # of connection points: 2
#     Edge 9, Type (0, 0), BuildingBlock: OJICUG_clean_linker_0, # of connection points: 2
#     Edge 10, Type (0, 0), BuildingBlock: OJICUG_clean_linker_0, # of connection points: 2
#     Edge 11, Type (0, 0), BuildingBlock: OJICUG_clean_linker_0, # of connection points: 2
#     Edge 12, Type (0, 0), BuildingBlock: OJICUG_clean_linker_0, # of connection points: 2
#     Edge 13, Type (0, 0), BuildingBlock: OJICUG_clean_linker_0, # of connection points: 2
#     Edge 14, Type (0, 0), BuildingBlock: OJICUG_clean_linker_0, # of connection points: 2
#     Edge 15, Type (0, 0), BuildingBlock: OJICUG_clean_linker_0, # of connection points: 2
#     Edge 16, Type (0, 0), BuildingBlock: OJICUG_clean_linker_0, # of connection points: 2
#     Edge 17, Type (0, 0), BuildingBlock: OJICUG_clean_linker_0, # of connection points: 2
#     Edge 18, Type (0, 0), BuildingBlock: OJICUG_clean_linker_0, # of connection points: 2
#     Edge 19, Type (0, 0), BuildingBlock: OJICUG_clean_linker_0, # of connection points: 2
#     Edge 20, Type (0, 0), BuildingBlock: OJICUG_clean_linker_0, # of connection points: 2
#     Edge 21, Type (0, 0), BuildingBlock: OJICUG_clean_linker_0, # of connection points: 2
#     Edge 22, Type (0, 0), BuildingBlock: OJICUG_clean_linker_0, # of connection points: 2
#     Edge 23, Type (0, 0), BuildingBlock: OJICUG_clean_linker_0, # of connection points: 2
#     Edge 24, Type (0, 0), BuildingBlock: OJICUG_clean_linker_0, # of connection points: 2
#     Edge 25, Type (0, 0), BuildingBlock: OJICUG_clean_linker_0, # of connection points: 2
#     Edge 26, Type (0, 0), BuildingBlock: OJICUG_clean_linker_0, # of connection points: 2
#     Edge 27, Type (0, 0), BuildingBlock: OJICUG_clean_linker_0, # of connection points: 2
#     Edge 28, Type (0, 0), BuildingBlock: OJICUG_clean_linker_0, # of connection points: 2
#     Edge 29, Type (0, 0), BuildingBlock: OJICUG_clean_linker_0, # of connection points: 2
#     Edge 30, Type (0, 0), BuildingBlock: OJICUG_clean_linker_0, # of connection points: 2
#     Edge 31, Type (0, 0), BuildingBlock: OJICUG_clean_linker_0, # of connection points: 2
# Relax obj value: 0.045
# Max RMSD: 0.080
# Mean RMSD: 0.071
data_MOF--net-snk--node1-MIFKUJ_clean_sbu_0--edge1-OJICUG_clean_linker_0
_symmetry_space_group_name_H-M    P1
_symmetry_Int_Tables_number       1
_symmetry_cell_setting            triclinic
loop_
_symmetry_equiv_pos_as_xyz
'x, y, z'
_cell_length_a     30.991252
_cell_length_b     30.985193
_cell_length_c     14.498154
_cell_angle_alpha  98.393729
_cell_angle_beta   80.627693
_cell_angle_gamma 88.603059
loop_
_atom_site_label
_atom_site_type_symbol
_atom_site_fract_x
_atom_site_fract_y
_atom_site_fract_z
_atom_type_partial_charge
Zn0 Zn 1.00214 0.99976 0.40098 0.0
Zn1 Zn 0.01042 0.01411 0.62441 0.0
C2 C 0.92472 0.04576 0.38276 0.0
O3 O 0.9233 0.01084 0.32025 0.0
C4 C 0.09019 0.97058 0.61969 0.0
O5 O 0.09757 0.01089 0.65372 0.0
O6 O 0.00839 0.98321 0.25791 0.0
O7 O 0.0599 0.02454 0.42293 0.0
O8 O 0.03925 0.06333 0.56469 0.0
C9 C 0.016 0.01452 0.21031 0.0
O10 O 0.02248 0.05319 0.25526 0.0
O11 O 0.95534 0.04861 0.43178 0.0
C12 C 0.99982 0.99616 0.81348 0.0
O13 O 0.99374 0.95752 0.76786 0.0
O14 O 1.00555 0.02813 0.76725 0.0
O15 O 0.95132 0.99585 0.59658 0.0
O16 O 0.97791 0.94988 0.46791 0.0
O17 O 0.05352 0.96255 0.59398 0.0
C18 C 0.06505 0.05635 0.48563 0.0
C19 C 0.94908 0.9603 0.54181 0.0
Zn20 Zn 0.23759 0.73603 0.86355 0.0
Zn21 Zn 0.2508 0.74972 0.63814 0.0
C22 C 0.2846 0.65867 0.86277 0.0
O23 O 0.24445 0.64971 0.89689 0.0
C24 C 0.21528 0.83354 0.6422 0.0
O25 O 0.25687 0.83794 0.61025 0.0
O26 O 0.22291 0.74197 0.00609 0.0
O27 O 0.25244 0.79544 0.8331 0.0
O28 O 0.30035 0.77052 0.70608 0.0
C29 C 0.25451 0.75061 0.05098 0.0
O30 O 0.29274 0.75809 0.00343 0.0
O31 O 0.29125 0.6954 0.8351 0.0
C32 C 0.23621 0.74152 0.45164 0.0
O33 O 0.19721 0.73676 0.4993 0.0
O34 O 0.26835 0.74644 0.49637 0.0
O35 O 0.22431 0.69264 0.65686 0.0
O36 O 0.18998 0.70513 0.80561 0.0
O37 O 0.20335 0.79736 0.66688 0.0
C38 C 0.28891 0.79823 0.78055 0.0
C39 C 0.195 0.68373 0.72245 0.0
Zn40 Zn 0.53453 0.02423 0.10498 0.0
Zn41 Zn 0.4794 0.98433 0.86848 0.0
C42 C 0.59781 0.07509 0.19674 0.0
O43 O 0.59297 0.04677 0.25626 0.0
C44 C 0.39738 0.94094 0.87649 0.0
O45 O 0.37956 0.98025 0.90908 0.0
O46 O 0.51906 0.9997 0.22595 0.0
O47 O 0.47965 0.05569 0.08499 0.0
O48 O 0.44831 0.03569 0.95977 0.0
C49 C 0.5001 0.02514 0.29876 0.0
O50 O 0.48949 0.06557 0.29074 0.0
O51 O 0.57717 0.07117 0.12725 0.0
C52 C 0.49391 0.97448 0.66789 0.0
O53 O 0.49916 0.93325 0.67745 0.0
O54 O 0.48654 1.00325 0.74126 0.0
O55 O 0.53762 0.95673 0.88106 0.0
O56 O 0.568 0.97649 0.00795 0.0
O57 O 0.43876 0.9353 0.85881 0.0
C58 C 0.44949 0.06055 0.03708 0.0
C59 C 0.56843 0.95318 0.92804 0.0
Zn60 Zn 0.27064 0.2726 0.12064 0.0
Zn61 Zn 0.25614 0.23941 0.35121 0.0
C62 C 0.31885 0.3503 0.12391 0.0
O63 O 0.27886 0.36805 0.14266 0.0
C64 C 0.21262 0.16464 0.41762 0.0
O65 O 0.24066 0.16861 0.47677 0.0
O66 O 0.25556 0.2712 0.99316 0.0
O67 O 0.28723 0.20916 0.12649 0.0
O68 O 0.31274 0.22063 0.26025 0.0
C69 C 0.28581 0.26276 0.92199 0.0
O70 O 0.32586 0.25361 0.93466 0.0
O71 O 0.3243 0.30903 0.11647 0.0
C72 C 0.24557 0.26348 0.54892 0.0
O73 O 0.20503 0.27086 0.53722 0.0
O74 O 0.27447 0.25003 0.47722 0.0
O75 O 0.21818 0.29319 0.35013 0.0
O76 O 0.21909 0.30694 0.20478 0.0
O77 O 0.21481 0.18921 0.35398 0.0
C78 C 0.31444 0.19945 0.1778 0.0
C79 C 0.20388 0.31471 0.29251 0.0
Zn80 Zn 0.75679 0.2657 0.38767 0.0
Zn81 Zn 0.76749 0.27635 0.16052 0.0
C82 C 0.79672 0.18566 0.40687 0.0
O83 O 0.76119 0.187 0.47062 0.0
C84 C 0.73017 0.35844 0.15564 0.0
O85 O 0.77133 0.36272 0.12003 0.0
O86 O 0.74113 0.27371 0.53002 0.0
O87 O 0.78371 0.32153 0.35946 0.0
O88 O 0.81943 0.29943 0.21474 0.0
C89 C 0.77305 0.27886 0.57514 0.0
O90 O 0.81249 0.28181 0.5276 0.0
O91 O 0.80255 0.21598 0.35627 0.0
C92 C 0.7507 0.2656 0.97374 0.0
O93 O 0.71126 0.26256 0.0212 0.0
O94 O 0.78281 0.26955 0.01853 0.0
O95 O 0.74349 0.21982 0.19095 0.0
O96 O 0.70461 0.24466 0.33128 0.0
O97 O 0.71941 0.3234 0.18745 0.0
C98 C 0.81515 0.32478 0.29319 0.0
C99 C 0.71067 0.21765 0.25486 0.0
Zn100 Zn 0.76138 0.76781 0.62242 0.0
Zn101 Zn 0.75922 0.75209 0.84449 0.0
C102 C 0.80451 0.85006 0.62689 0.0
O103 O 0.76447 0.86645 0.63304 0.0
C104 C 0.71326 0.67257 0.85364 0.0
O105 O 0.75341 0.65557 0.84108 0.0
O106 O 0.74729 0.76729 0.49258 0.0
O107 O 0.78673 0.70718 0.62244 0.0
O108 O 0.81193 0.72002 0.75733 0.0
C109 C 0.77852 0.76164 0.42276 0.0
O110 O 0.81867 0.75509 0.43788 0.0
O111 O 0.81066 0.80937 0.6272 0.0
C112 C 0.74446 0.76649 0.04448 0.0
O113 O 0.70444 0.77437 0.02995 0.0
O114 O 0.77496 0.75702 0.97381 0.0
O115 O 0.73795 0.8133 0.83305 0.0
O116 O 0.70586 0.79243 0.71084 0.0
O117 O 0.70734 0.71324 0.85251 0.0
C118 C 0.81364 0.69829 0.6752 0.0
C119 C 0.7071 0.81818 0.78693 0.0
Zn120 Zn 0.50954 0.50326 0.87975 0.0
Zn121 Zn 0.51895 0.52317 0.10207 0.0
C122 C 0.42599 0.53847 0.88603 0.0
O123 O 0.42259 0.49692 0.85468 0.0
C124 C 0.60134 0.48561 0.10198 0.0
O125 O 0.60665 0.52707 0.13061 0.0
O126 O 0.51373 0.48831 0.73615 0.0
O127 O 0.56744 0.52732 0.90218 0.0
O128 O 0.54339 0.57272 0.03372 0.0
C129 C 0.51849 0.52091 0.69134 0.0
O130 O 0.52326 0.55948 0.73891 0.0
O131 O 0.46194 0.55103 0.90971 0.0
C132 C 0.50756 0.50638 0.29125 0.0
O133 O 0.50226 0.46788 0.24403 0.0
O134 O 0.51345 0.53872 0.24585 0.0
O135 O 0.46145 0.49896 0.07713 0.0
O136 O 0.4871 0.45296 0.9476 0.0
O137 O 0.56534 0.47453 0.0764 0.0
C138 C 0.57032 0.56285 0.95657 0.0
C139 C 0.4599 0.46262 0.02439 0.0
Zn140 Zn 0.01015 0.49974 0.59493 0.0
Zn141 Zn 1.00514 0.51003 0.37951 0.0
C142 C 0.08665 0.54023 0.63758 0.0
O143 O 0.08991 0.50484 0.67648 0.0
C144 C 0.92918 0.46655 0.34407 0.0
O145 O 0.92523 0.50002 0.29948 0.0
O146 O 1.0036 0.48513 0.72862 0.0
O147 O 0.95244 0.52941 0.58445 0.0
O148 O 0.97807 0.56439 0.46643 0.0
C149 C 0.9971 0.5167 0.79704 0.0
O150 O 0.99123 0.5565 0.77856 0.0
O151 O 0.0555 0.54504 0.5922 0.0
C152 C 0.01683 0.49075 0.17645 0.0
O153 O 0.0233 0.45111 0.19527 0.0
O154 O 0.01037 0.52251 0.24443 0.0
O155 O 0.06377 0.48314 0.39145 0.0
O156 O 0.03671 0.44592 0.50416 0.0
O157 O 0.96086 0.46386 0.38896 0.0
C158 C 0.95013 0.56166 0.53989 0.0
C159 C 0.06551 0.44977 0.43276 0.0
C160 C 0.1197 0.09089 0.37513 0.0
C161 C 0.10268 0.08416 0.46771 0.0
H162 H 0.16751 0.12246 0.28663 0.0
C163 C 0.12246 0.10359 0.54288 0.0
H164 H 0.10502 0.07631 0.31586 0.0
C165 C 0.15888 0.12877 0.52577 0.0
C166 C 0.1755 0.13608 0.4335 0.0
H167 H 0.11018 0.09883 0.61484 0.0
H168 H 0.17348 0.1433 0.58522 0.0
C169 C 0.15538 0.11723 0.35834 0.0
C170 C 0.16589 0.94437 0.62779 0.0
C171 C 0.12222 0.93501 0.62204 0.0
H172 H 0.22954 0.91948 0.63884 0.0
C173 C 0.10904 0.8921 0.62485 0.0
H174 H 0.17689 0.97721 0.6261 0.0
C175 C 0.139 0.8592 0.63422 0.0
C176 C 0.18277 0.86858 0.63921 0.0
H177 H 0.07542 0.88411 0.62162 0.0
H178 H 0.12809 0.82633 0.6359 0.0
C179 C 0.19596 0.91139 0.63543 0.0
C180 C 0.2989 0.87184 0.86825 0.0
C181 C 0.31683 0.8346 0.80488 0.0
H182 H 0.31031 0.93488 0.94011 0.0
C183 C 0.36152 0.83235 0.76624 0.0
H184 H 0.26447 0.87453 0.89896 0.0
C185 C 0.38787 0.86662 0.79103 0.0
C186 C 0.36982 0.90407 0.85365 0.0
H187 H 0.37622 0.80396 0.71758 0.0
H188 H 0.42225 0.86405 0.75995 0.0
C189 C 0.32507 0.90642 0.89177 0.0
C190 C 0.41375 0.12217 0.16104 0.0
C191 C 0.4148 0.09607 0.07262 0.0
H192 H 0.38158 0.17471 0.26342 0.0
C193 C 0.38236 0.10437 0.01888 0.0
H194 H 0.43809 0.11694 0.20453 0.0
C195 C 0.3499 0.13788 0.05261 0.0
C196 C 0.34885 0.16383 0.14123 0.0
H197 H 0.38205 0.08505 0.95044 0.0
H198 H 0.32556 0.14336 0.00921 0.0
C199 C 0.38121 0.15543 0.19495 0.0
C200 C 0.87247 0.94971 0.61799 0.0
C201 C 0.91246 0.93175 0.56427 0.0
H202 H 0.80684 0.93797 0.67905 0.0
C203 C 0.91713 0.88647 0.53383 0.0
H204 H 0.8679 0.98454 0.64231 0.0
C205 C 0.8825 0.85967 0.55704 0.0
C206 C 0.84222 0.87782 0.60907 0.0
H207 H 0.94767 0.87172 0.49289 0.0
H208 H 0.88689 0.82489 0.53215 0.0
C209 C 0.83753 0.9231 0.63908 0.0
C210 C 0.88235 0.09523 0.30646 0.0
C211 C 0.89314 0.08255 0.38938 0.0
H212 H 0.8439 0.13919 0.24716 0.0
C213 C 0.87306 0.10471 0.47771 0.0
H214 H 0.89782 0.07861 0.23756 0.0
C215 C 0.8414 0.13825 0.48307 0.0
C216 C 0.83067 0.15101 0.40015 0.0
H217 H 0.88097 0.09531 0.54234 0.0
H218 H 0.82552 0.1545 0.55198 0.0
C219 C 0.85184 0.12982 0.31179 0.0
C220 C 0.65983 0.16365 0.31808 0.0
C221 C 0.68059 0.18223 0.24092 0.0
H222 H 0.6179 0.11422 0.36401 0.0
C223 C 0.67369 0.16564 0.14932 0.0
H224 H 0.66496 0.17571 0.38927 0.0
C225 C 0.64622 0.13116 0.13506 0.0
C226 C 0.62618 0.11194 0.21191 0.0
H227 H 0.68935 0.17951 0.0887 0.0
H228 H 0.64131 0.11903 0.06375 0.0
C229 C 0.63326 0.12836 0.30352 0.0
C230 C 0.67191 0.88098 0.90854 0.0
C231 C 0.67241 0.8536 0.82191 0.0
H232 H 0.63912 0.93372 0.00977 0.0
C233 C 0.63901 0.86005 0.76944 0.0
H234 H 0.69706 0.87702 0.9509 0.0
C235 C 0.60573 0.89263 0.80317 0.0
C236 C 0.60487 0.91969 0.8904 0.0
H237 H 0.63835 0.83972 0.70229 0.0
H238 H 0.58043 0.8963 0.761 0.0
C239 C 0.6386 0.91358 0.94233 0.0
C240 C 0.64542 0.57342 0.87257 0.0
C241 C 0.60647 0.59147 0.93063 0.0
H242 H 0.70972 0.58488 0.80353 0.0
C243 C 0.60239 0.63677 0.96128 0.0
H244 H 0.64959 0.5386 0.84797 0.0
C245 C 0.63654 0.66348 0.93371 0.0
C246 C 0.67576 0.64519 0.87699 0.0
H247 H 0.57264 0.65158 0.00558 0.0
H248 H 0.63267 0.69828 0.95863 0.0
C249 C 0.67986 0.59989 0.84704 0.0
C250 C 0.70848 0.43361 0.13272 0.0
C251 C 0.6966 0.3912 0.1457 0.0
H252 H 0.68754 0.49671 0.10844 0.0
C253 C 0.65331 0.37961 0.14177 0.0
H254 H 0.74169 0.44334 0.1349 0.0
C255 C 0.62256 0.40987 0.12433 0.0
C256 C 0.63442 0.45242 0.11224 0.0
H257 H 0.64342 0.34694 0.1503 0.0
H258 H 0.58933 0.40021 0.12214 0.0
C259 C 0.67758 0.46406 0.11708 0.0
C260 C 0.88946 0.41604 0.24248 0.0
C261 C 0.9004 0.43006 0.33185 0.0
H262 H 0.855 0.37045 0.15948 0.0
C263 C 0.88418 0.40864 0.40809 0.0
H264 H 0.90211 0.43191 0.18251 0.0
C265 C 0.85618 0.37438 0.39561 0.0
C266 C 0.84543 0.36013 0.30596 0.0
H267 H 0.89241 0.41899 0.4775 0.0
H268 H 0.84324 0.35879 0.45576 0.0
C269 C 0.86279 0.38083 0.22923 0.0
C270 C 0.86447 0.63916 0.70376 0.0
C271 C 0.84787 0.6627 0.64024 0.0
H272 H 0.90907 0.58817 0.72157 0.0
C273 C 0.86493 0.65246 0.54321 0.0
H274 H 0.85192 0.64622 0.77888 0.0
C275 C 0.89847 0.62 0.51067 0.0
C276 C 0.91479 0.59622 0.57415 0.0
H277 H 0.85295 0.67017 0.4926 0.0
H278 H 0.9113 0.61315 0.43565 0.0
C279 C 0.8971 0.60585 0.67092 0.0
C280 C 0.35239 0.42284 0.13768 0.0
C281 C 0.35633 0.37797 0.1027 0.0
H282 H 0.38206 0.48448 0.14098 0.0
C283 C 0.39502 0.36074 0.04236 0.0
H284 H 0.32295 0.43706 0.18413 0.0
C285 C 0.42868 0.38818 0.01579 0.0
C286 C 0.42459 0.43312 0.05078 0.0
H287 H 0.39876 0.32632 0.01357 0.0
H288 H 0.45794 0.37422 0.96836 0.0
C289 C 0.38628 0.44999 0.11284 0.0
C290 C 0.34744 0.55547 0.8823 0.0
C291 C 0.3899 0.57002 0.88389 0.0
H292 H 0.28097 0.57217 0.87416 0.0
C293 C 0.39783 0.61398 0.87688 0.0
H294 H 0.34042 0.52173 0.88737 0.0
C295 C 0.36387 0.64274 0.86728 0.0
C296 C 0.32134 0.62812 0.86623 0.0
H297 H 0.43039 0.62591 0.87689 0.0
H298 H 0.37074 0.6765 0.86221 0.0
C299 C 0.31345 0.5843 0.87439 0.0
C300 C 0.15461 0.63843 0.61135 0.0
C301 C 0.16691 0.6473 0.7011 0.0
H302 H 0.11854 0.59773 0.52138 0.0
C303 C 0.15298 0.62052 0.76917 0.0
H304 H 0.16492 0.65874 0.55777 0.0
C305 C 0.12776 0.58494 0.74727 0.0
C306 C 0.11499 0.57645 0.65802 0.0
H307 H 0.16221 0.62663 0.83866 0.0
H308 H 0.11745 0.56461 0.80086 0.0
C309 C 0.12819 0.60368 0.5905 0.0
C310 C 0.15879 0.38025 0.27174 0.0
C311 C 0.1685 0.34935 0.32847 0.0
H312 H 0.11913 0.43623 0.26025 0.0
C313 C 0.144 0.3519 0.41999 0.0
H314 H 0.17702 0.3794 0.20104 0.0
C315 C 0.11045 0.38424 0.4536 0.0
C316 C 0.10096 0.41528 0.39708 0.0
H317 H 0.15042 0.32862 0.4656 0.0
H318 H 0.09219 0.38513 0.52429 0.0
C319 C 0.12566 0.41297 0.30586 0.0
C320 C 0.99802 0.96514 0.9646 0.0
C321 C 1.0033 1.00115 0.9154 0.0
H322 H 0.99815 0.94088 0.09569 0.0
C323 C 0.01352 0.04125 0.96372 0.0
H324 H 0.9903 0.93367 0.92951 0.0
C325 C 0.01828 0.04526 0.05891 0.0
C326 C 0.01291 0.00929 0.10818 0.0
H327 H 0.01804 0.06957 0.92798 0.0
H328 H 0.02596 0.07676 0.09396 0.0
C329 C 1.00273 0.96917 0.05986 0.0
C330 C 0.2817 0.7526 0.29755 0.0
C331 C 0.24139 0.74345 0.34891 0.0
H332 H 0.31735 0.76241 0.16351 0.0
C333 C 0.20525 0.73727 0.30169 0.0
H334 H 0.31009 0.75772 0.33185 0.0
C335 C 0.20931 0.74005 0.20532 0.0
C336 C 0.2496 0.74918 0.15388 0.0
H337 H 0.17364 0.73025 0.33912 0.0
H338 H 0.18088 0.73488 0.17116 0.0
C339 C 0.28574 0.75548 0.2011 0.0
C340 C 0.50634 0.95612 0.49145 0.0
C341 C 0.49469 0.98711 0.57336 0.0
H342 H 0.51694 0.94376 0.34018 0.0
C343 C 0.48312 0.03023 0.56424 0.0
H344 H 0.51525 0.92259 0.49619 0.0
C345 C 0.48367 0.04224 0.475 0.0
C346 C 0.4961 0.01147 0.39301 0.0
H347 H 0.47367 0.05481 0.62605 0.0
H348 H 0.4751 0.07587 0.47041 0.0
C349 C 0.50718 0.96821 0.4021 0.0
C350 C 0.23323 0.27523 0.81439 0.0
C351 C 0.27595 0.26408 0.82658 0.0
H352 H 0.19022 0.28418 0.7169 0.0
C353 C 0.30899 0.25442 0.74702 0.0
H354 H 0.20709 0.28307 0.8745 0.0
C355 C 0.29931 0.25517 0.65668 0.0
C356 C 0.25642 0.26562 0.64445 0.0
H357 H 0.34225 0.24591 0.75432 0.0
H358 H 0.32534 0.247 0.59645 0.0
C359 C 0.22357 0.27603 0.72414 0.0
C360 C 0.72054 0.26573 0.82376 0.0
C361 C 0.75669 0.26824 0.8714 0.0
H362 H 0.6972 0.26749 0.69321 0.0
C363 C 0.79806 0.27502 0.82113 0.0
H364 H 0.68815 0.26071 0.86048 0.0
C365 C 0.80317 0.27915 0.7253 0.0
C366 C 0.76704 0.27658 0.67763 0.0
H367 H 0.82652 0.27734 0.85583 0.0
H368 H 0.83557 0.28413 0.68853 0.0
C369 C 0.72566 0.26985 0.72792 0.0
C370 C 0.72726 0.77238 0.31047 0.0
C371 C 0.76989 0.76325 0.32608 0.0
H372 H 0.68584 0.78082 0.20939 0.0
C373 C 0.80425 0.756 0.24851 0.0
H374 H 0.70009 0.77826 0.36881 0.0
C375 C 0.79609 0.7575 0.15709 0.0
C376 C 0.7534 0.76637 0.14143 0.0
H377 H 0.83749 0.74899 0.25821 0.0
H378 H 0.82323 0.75148 0.09869 0.0
C379 C 0.71911 0.77396 0.21909 0.0
C380 C 0.50797 0.47679 0.53689 0.0
C381 C 0.51619 0.51681 0.58866 0.0
H382 H 0.49849 0.44225 0.40328 0.0
C383 C 0.52098 0.55367 0.54189 0.0
H384 H 0.5039 0.44782 0.57054 0.0
C385 C 0.51773 0.55059 0.44586 0.0
C386 C 0.50956 0.51057 0.39407 0.0
H387 H 0.52721 0.58513 0.57949 0.0
H388 H 0.52183 0.57956 0.41219 0.0
C389 C 0.50469 0.47372 0.44088 0.0
C390 C 0.01105 0.46787 0.91422 0.0
C391 C 1.00104 0.5097 0.89449 0.0
H392 H 0.02426 0.42915 0.01818 0.0
C393 C 0.9968 0.54534 0.96814 0.0
H394 H 0.01478 0.43974 0.85911 0.0
C395 C 1.00249 0.53933 0.05928 0.0
C396 C 0.01256 0.49752 0.07902 0.0
H397 H 0.98931 0.57806 0.95544 0.0
H398 H 0.99881 0.56749 0.11431 0.0
C399 C 0.01673 0.46186 0.00542 0.0
loop_
_geom_bond_atom_site_label_1
_geom_bond_atom_site_label_2
_geom_bond_distance
_geom_bond_site_symmetry_2
_ccdc_geom_bond_type
Zn0 O6 1.969 1_545 S
Zn0 O7 1.965 1_655 S
Zn0 O11 2.024 . S
Zn0 O16 1.969 1_545 S
Zn1 O8 1.969 1_565 S
Zn1 O14 1.969 1_565 S
Zn1 O15 1.965 1_455 S
Zn1 O17 2.024 . S
C2 O3 1.229 . S
C2 O11 1.058 . S
O3 C2 1.229 . S
C4 O5 1.229 . S
C4 O17 1.058 . S
O5 C4 1.229 . S
O6 Zn0 1.969 1_565 S
O6 C9 1.267 1_565 S
O7 Zn0 1.965 1_455 S
O7 C18 1.260 . S
O8 Zn1 1.969 1_545 S
O8 C18 1.258 . S
C9 O6 1.267 1_545 S
C9 O10 1.228 . S
O10 C9 1.228 . S
O11 Zn0 2.024 . S
O11 C2 1.058 . S
C12 O13 1.229 . S
C12 O14 1.267 1_565 S
O13 C12 1.229 . S
O14 Zn1 1.969 1_545 S
O14 C12 1.267 1_545 S
O15 Zn1 1.965 1_655 S
O15 C19 1.260 . S
O16 Zn0 1.969 1_565 S
O16 C19 1.258 . S
O17 Zn1 2.024 . S
O17 C4 1.058 . S
C18 O7 1.260 . S
C18 O8 1.258 . S
C19 O15 1.260 . S
C19 O16 1.258 . S
Zn20 O26 1.969 . S
Zn20 O27 1.965 . S
Zn20 O31 2.024 . S
Zn20 O36 1.969 . S
Zn21 O28 1.969 . S
Zn21 O34 1.969 . S
Zn21 O35 1.965 . S
Zn21 O37 2.024 . S
C22 O23 1.229 . S
C22 O31 1.058 . S
O23 C22 1.229 . S
C24 O25 1.229 . S
C24 O37 1.058 . S
O25 C24 1.229 . S
O26 Zn20 1.969 . S
O26 C29 1.267 1_556 S
O27 Zn20 1.965 . S
O27 C38 1.260 . S
O28 Zn21 1.969 . S
O28 C38 1.258 . S
C29 O26 1.267 1_554 S
C29 O30 1.228 . S
O30 C29 1.228 . S
O31 Zn20 2.024 . S
O31 C22 1.058 . S
C32 O33 1.228 . S
C32 O34 1.267 . S
O33 C32 1.228 . S
O34 Zn21 1.969 . S
O34 C32 1.267 . S
O35 Zn21 1.965 . S
O35 C39 1.260 . S
O36 Zn20 1.969 . S
O36 C39 1.258 . S
O37 Zn21 2.024 . S
O37 C24 1.058 . S
C38 O27 1.260 . S
C38 O28 1.258 . S
C39 O35 1.260 . S
C39 O36 1.258 . S
Zn40 O46 1.969 1_545 S
Zn40 O47 1.965 . S
Zn40 O51 2.024 . S
Zn40 O56 1.969 1_545 S
Zn41 O48 1.969 1_565 S
Zn41 O54 1.969 1_565 S
Zn41 O55 1.965 . S
Zn41 O57 2.024 . S
C42 O43 1.229 . S
C42 O51 1.058 . S
O43 C42 1.229 . S
C44 O45 1.229 . S
C44 O57 1.058 . S
O45 C44 1.229 . S
O46 Zn40 1.969 1_565 S
O46 C49 1.267 1_565 S
O47 Zn40 1.965 . S
O47 C58 1.260 . S
O48 Zn41 1.969 1_545 S
O48 C58 1.258 1_556 S
C49 O46 1.267 1_545 S
C49 O50 1.228 . S
O50 C49 1.228 . S
O51 Zn40 2.024 . S
O51 C42 1.058 . S
C52 O53 1.228 . S
C52 O54 1.267 1_565 S
O53 C52 1.228 . S
O54 Zn41 1.969 1_545 S
O54 C52 1.267 1_545 S
O55 Zn41 1.965 . S
O55 C59 1.260 . S
O56 Zn40 1.969 1_565 S
O56 C59 1.258 1_554 S
O57 Zn41 2.024 . S
O57 C44 1.058 . S
C58 O47 1.260 . S
C58 O48 1.258 1_554 S
C59 O55 1.260 . S
C59 O56 1.258 1_556 S
Zn60 O66 1.969 . S
Zn60 O67 1.965 . S
Zn60 O71 2.024 . S
Zn60 O76 1.969 . S
Zn61 O68 1.969 . S
Zn61 O74 1.969 . S
Zn61 O75 1.965 . S
Zn61 O77 2.024 . S
C62 O63 1.229 . S
C62 O71 1.058 . S
O63 C62 1.229 . S
C64 O65 1.229 . S
C64 O77 1.058 . S
O65 C64 1.229 . S
O66 Zn60 1.969 . S
O66 C69 1.267 1_554 S
O67 Zn60 1.965 . S
O67 C78 1.260 . S
O68 Zn61 1.969 . S
O68 C78 1.258 . S
C69 O66 1.267 1_556 S
C69 O70 1.228 . S
O70 C69 1.228 . S
O71 Zn60 2.024 . S
O71 C62 1.058 . S
C72 O73 1.228 . S
C72 O74 1.267 . S
O73 C72 1.228 . S
O74 Zn61 1.969 . S
O74 C72 1.267 . S
O75 Zn61 1.965 . S
O75 C79 1.260 . S
O76 Zn60 1.969 . S
O76 C79 1.258 . S
O77 Zn61 2.024 . S
O77 C64 1.058 . S
C78 O67 1.260 . S
C78 O68 1.258 . S
C79 O75 1.260 . S
C79 O76 1.258 . S
Zn80 O86 1.969 . S
Zn80 O87 1.965 . S
Zn80 O91 2.024 . S
Zn80 O96 1.969 . S
Zn81 O88 1.969 . S
Zn81 O94 1.969 . S
Zn81 O95 1.965 . S
Zn81 O97 2.024 . S
C82 O83 1.229 . S
C82 O91 1.058 . S
O83 C82 1.229 . S
C84 O85 1.229 . S
C84 O97 1.058 . S
O85 C84 1.229 . S
O86 Zn80 1.969 . S
O86 C89 1.267 . S
O87 Zn80 1.965 . S
O87 C98 1.260 . S
O88 Zn81 1.969 . S
O88 C98 1.258 . S
C89 O86 1.267 . S
C89 O90 1.228 . S
O90 C89 1.228 . S
O91 Zn80 2.024 . S
O91 C82 1.058 . S
C92 O93 1.228 . S
C92 O94 1.267 1_556 S
O93 C92 1.228 . S
O94 Zn81 1.969 . S
O94 C92 1.267 1_554 S
O95 Zn81 1.965 . S
O95 C99 1.260 . S
O96 Zn80 1.969 . S
O96 C99 1.258 . S
O97 Zn81 2.024 . S
O97 C84 1.058 . S
C98 O87 1.260 . S
C98 O88 1.258 . S
C99 O95 1.260 . S
C99 O96 1.258 . S
Zn100 O106 1.969 . S
Zn100 O107 1.965 . S
Zn100 O111 2.024 . S
Zn100 O116 1.969 . S
Zn101 O108 1.969 . S
Zn101 O114 1.969 . S
Zn101 O115 1.965 . S
Zn101 O117 2.024 . S
C102 O103 1.229 . S
C102 O111 1.058 . S
O103 C102 1.229 . S
C104 O105 1.229 . S
C104 O117 1.058 . S
O105 C104 1.229 . S
O106 Zn100 1.969 . S
O106 C109 1.267 . S
O107 Zn100 1.965 . S
O107 C118 1.260 . S
O108 Zn101 1.969 . S
O108 C118 1.258 . S
C109 O106 1.267 . S
C109 O110 1.228 . S
O110 C109 1.228 . S
O111 Zn100 2.024 . S
O111 C102 1.058 . S
C112 O113 1.228 . S
C112 O114 1.267 1_554 S
O113 C112 1.228 . S
O114 Zn101 1.969 . S
O114 C112 1.267 1_556 S
O115 Zn101 1.965 . S
O115 C119 1.260 . S
O116 Zn100 1.969 . S
O116 C119 1.258 . S
O117 Zn101 2.024 . S
O117 C104 1.058 . S
C118 O107 1.260 . S
C118 O108 1.258 . S
C119 O115 1.260 . S
C119 O116 1.258 . S
Zn120 O126 1.969 . S
Zn120 O127 1.965 . S
Zn120 O131 2.024 . S
Zn120 O136 1.969 . S
Zn121 O128 1.969 . S
Zn121 O134 1.969 . S
Zn121 O135 1.965 . S
Zn121 O137 2.024 . S
C122 O123 1.229 . S
C122 O131 1.058 . S
O123 C122 1.229 . S
C124 O125 1.229 . S
C124 O137 1.058 . S
O125 C124 1.229 . S
O126 Zn120 1.969 . S
O126 C129 1.267 . S
O127 Zn120 1.965 . S
O127 C138 1.260 . S
O128 Zn121 1.969 . S
O128 C138 1.258 1_554 S
C129 O126 1.267 . S
C129 O130 1.228 . S
O130 C129 1.228 . S
O131 Zn120 2.024 . S
O131 C122 1.058 . S
C132 O133 1.228 . S
C132 O134 1.267 . S
O133 C132 1.228 . S
O134 Zn121 1.969 . S
O134 C132 1.267 . S
O135 Zn121 1.965 . S
O135 C139 1.260 . S
O136 Zn120 1.969 . S
O136 C139 1.258 1_556 S
O137 Zn121 2.024 . S
O137 C124 1.058 . S
C138 O127 1.260 . S
C138 O128 1.258 1_556 S
C139 O135 1.260 . S
C139 O136 1.258 1_554 S
Zn140 O146 1.969 . S
Zn140 O147 1.965 1_455 S
Zn140 O151 2.024 . S
Zn140 O156 1.969 . S
Zn141 O148 1.969 . S
Zn141 O154 1.969 . S
Zn141 O155 1.965 1_655 S
Zn141 O157 2.024 . S
C142 O143 1.229 . S
C142 O151 1.058 . S
O143 C142 1.229 . S
C144 O145 1.229 . S
C144 O157 1.058 . S
O145 C144 1.229 . S
O146 Zn140 1.969 . S
O146 C149 1.267 . S
O147 Zn140 1.965 1_655 S
O147 C158 1.260 . S
O148 Zn141 1.969 . S
O148 C158 1.258 . S
C149 O146 1.267 . S
C149 O150 1.226 1_455 S
O150 C149 1.226 1_655 S
O151 Zn140 2.024 . S
O151 C142 1.058 . S
C152 O153 1.225 1_655 S
C152 O154 1.267 . S
O153 C152 1.225 1_455 S
O154 Zn141 1.969 . S
O154 C152 1.267 . S
O155 Zn141 1.965 1_455 S
O155 C159 1.260 . S
O156 Zn140 1.969 . S
O156 C159 1.258 . S
O157 Zn141 2.024 . S
O157 C144 1.058 . S
C158 O147 1.260 . S
C158 O148 1.258 . S
C159 O155 1.260 . S
C159 O156 1.258 . S
C160 C161 1.387 . S
C160 H164 0.950 . S
C160 C169 1.390 . S
C161 C160 1.387 . S
C161 C163 1.387 . S
H162 C169 0.950 . S
C163 C161 1.387 . S
C163 C165 1.390 . S
C163 H167 0.950 . S
H164 C160 0.950 . S
C165 C163 1.390 . S
C165 C166 1.387 . S
C165 H168 0.950 . S
C166 C165 1.387 . S
C166 C169 1.387 . S
H167 C163 0.950 . S
H168 C165 0.950 . S
C169 C160 1.390 . S
C169 H162 0.950 . S
C169 C166 1.387 . S
C170 C171 1.387 . S
C170 H174 0.950 . S
C170 C179 1.390 . S
C171 C170 1.387 . S
C171 C173 1.387 . S
H172 C179 0.950 . S
C173 C171 1.387 . S
C173 C175 1.390 . S
C173 H177 0.950 . S
H174 C170 0.950 . S
C175 C173 1.390 . S
C175 C176 1.387 . S
C175 H178 0.950 . S
C176 C175 1.387 . S
C176 C179 1.387 . S
H177 C173 0.950 . S
H178 C175 0.950 . S
C179 C170 1.390 . S
C179 H172 0.950 . S
C179 C176 1.387 . S
C180 C181 1.387 . S
C180 H184 0.950 . S
C180 C189 1.390 . S
C181 C180 1.387 . S
C181 C183 1.387 . S
H182 C189 0.950 . S
C183 C181 1.387 . S
C183 C185 1.390 . S
C183 H187 0.950 . S
H184 C180 0.950 . S
C185 C183 1.390 . S
C185 C186 1.387 . S
C185 H188 0.950 . S
C186 C185 1.387 . S
C186 C189 1.387 . S
H187 C183 0.950 . S
H188 C185 0.950 . S
C189 C180 1.390 . S
C189 H182 0.950 . S
C189 C186 1.387 . S
C190 C191 1.387 . S
C190 H194 0.950 . S
C190 C199 1.390 . S
C191 C190 1.387 . S
C191 C193 1.387 . S
H192 C199 0.950 . S
C193 C191 1.387 . S
C193 C195 1.390 . S
C193 H197 0.950 1_554 S
H194 C190 0.950 . S
C195 C193 1.390 . S
C195 C196 1.387 . S
C195 H198 0.950 . S
C196 C195 1.387 . S
C196 C199 1.387 . S
H197 C193 0.950 1_556 S
H198 C195 0.950 . S
C199 C190 1.390 . S
C199 H192 0.950 . S
C199 C196 1.387 . S
C200 C201 1.387 . S
C200 H204 0.950 . S
C200 C209 1.390 . S
C201 C200 1.387 . S
C201 C203 1.387 . S
H202 C209 0.950 . S
C203 C201 1.387 . S
C203 C205 1.390 . S
C203 H207 0.950 . S
H204 C200 0.950 . S
C205 C203 1.390 . S
C205 C206 1.387 . S
C205 H208 0.950 . S
C206 C205 1.387 . S
C206 C209 1.387 . S
H207 C203 0.950 . S
H208 C205 0.950 . S
C209 C200 1.390 . S
C209 H202 0.950 . S
C209 C206 1.387 . S
C210 C211 1.387 . S
C210 H214 0.950 . S
C210 C219 1.390 . S
C211 C210 1.387 . S
C211 C213 1.387 . S
H212 C219 0.950 . S
C213 C211 1.387 . S
C213 C215 1.390 . S
C213 H217 0.950 . S
H214 C210 0.950 . S
C215 C213 1.390 . S
C215 C216 1.387 . S
C215 H218 0.950 . S
C216 C215 1.387 . S
C216 C219 1.387 . S
H217 C213 0.950 . S
H218 C215 0.950 . S
C219 C210 1.390 . S
C219 H212 0.950 . S
C219 C216 1.387 . S
C220 C221 1.387 . S
C220 H224 0.950 . S
C220 C229 1.390 . S
C221 C220 1.387 . S
C221 C223 1.387 . S
H222 C229 0.950 . S
C223 C221 1.387 . S
C223 C225 1.390 . S
C223 H227 0.950 . S
H224 C220 0.950 . S
C225 C223 1.390 . S
C225 C226 1.387 . S
C225 H228 0.957 . S
C226 C225 1.387 . S
C226 C229 1.387 . S
H227 C223 0.950 . S
H228 C225 0.957 . S
C229 C220 1.390 . S
C229 H222 0.950 . S
C229 C226 1.387 . S
C230 C231 1.387 . S
C230 H234 0.950 . S
C230 C239 1.390 . S
C231 C230 1.387 . S
C231 C233 1.387 . S
H232 C239 0.950 1_554 S
C233 C231 1.387 . S
C233 C235 1.390 . S
C233 H237 0.950 . S
H234 C230 0.950 . S
C235 C233 1.390 . S
C235 C236 1.387 . S
C235 H238 0.950 . S
C236 C235 1.387 . S
C236 C239 1.387 . S
H237 C233 0.950 . S
H238 C235 0.950 . S
C239 C230 1.390 . S
C239 H232 0.950 1_556 S
C239 C236 1.387 . S
C240 C241 1.387 . S
C240 H244 0.950 . S
C240 C249 1.390 . S
C241 C240 1.387 . S
C241 C243 1.387 . S
H242 C249 0.950 . S
C243 C241 1.387 . S
C243 C245 1.390 . S
C243 H247 0.950 1_556 S
H244 C240 0.950 . S
C245 C243 1.390 . S
C245 C246 1.387 . S
C245 H248 0.945 1_556 S
C246 C245 1.387 . S
C246 C249 1.387 . S
H247 C243 0.950 1_554 S
H248 C245 0.945 1_554 S
C249 C240 1.390 . S
C249 H242 0.950 . S
C249 C246 1.387 . S
C250 C251 1.387 . S
C250 H254 0.950 . S
C250 C259 1.390 . S
C251 C250 1.387 . S
C251 C253 1.387 . S
H252 C259 0.950 . S
C253 C251 1.387 . S
C253 C255 1.390 . S
C253 H257 0.950 . S
H254 C250 0.950 . S
C255 C253 1.390 . S
C255 C256 1.387 . S
C255 H258 0.950 1_554 S
C256 C255 1.387 . S
C256 C259 1.387 . S
H257 C253 0.950 . S
H258 C255 0.950 1_556 S
C259 C250 1.390 . S
C259 H252 0.950 . S
C259 C256 1.387 . S
C260 C261 1.387 . S
C260 H264 0.950 . S
C260 C269 1.390 . S
C261 C260 1.387 . S
C261 C263 1.387 . S
H262 C269 0.950 . S
C263 C261 1.387 . S
C263 C265 1.390 . S
C263 H267 0.950 . S
H264 C260 0.950 . S
C265 C263 1.390 . S
C265 C266 1.387 . S
C265 H268 0.950 . S
C266 C265 1.387 . S
C266 C269 1.387 . S
H267 C263 0.950 . S
H268 C265 0.950 . S
C269 C260 1.390 . S
C269 H262 0.950 . S
C269 C266 1.387 . S
C270 C271 1.387 . S
C270 H274 0.950 . S
C270 C279 1.390 . S
C271 C270 1.387 . S
C271 C273 1.387 . S
H272 C279 0.950 . S
C273 C271 1.387 . S
C273 C275 1.390 . S
C273 H277 0.950 . S
H274 C270 0.950 . S
C275 C273 1.390 . S
C275 C276 1.387 . S
C275 H278 0.950 . S
C276 C275 1.387 . S
C276 C279 1.387 . S
H277 C273 0.950 . S
H278 C275 0.950 . S
C279 C270 1.390 . S
C279 H272 0.950 . S
C279 C276 1.387 . S
C280 C281 1.387 . S
C280 H284 0.950 . S
C280 C289 1.390 . S
C281 C280 1.387 . S
C281 C283 1.387 . S
H282 C289 0.950 . S
C283 C281 1.387 . S
C283 C285 1.390 . S
C283 H287 0.950 . S
H284 C280 0.950 . S
C285 C283 1.390 . S
C285 C286 1.387 . S
C285 H288 0.950 1_554 S
C286 C285 1.387 . S
C286 C289 1.387 . S
H287 C283 0.950 . S
H288 C285 0.950 1_556 S
C289 C280 1.390 . S
C289 H282 0.950 . S
C289 C286 1.387 . S
C290 C291 1.387 . S
C290 H294 0.950 . S
C290 C299 1.390 . S
C291 C290 1.387 . S
C291 C293 1.387 . S
H292 C299 0.950 . S
C293 C291 1.387 . S
C293 C295 1.390 . S
C293 H297 0.950 1_556 S
H294 C290 0.950 . S
C295 C293 1.390 . S
C295 C296 1.387 . S
C295 H298 0.950 . S
C296 C295 1.387 . S
C296 C299 1.387 . S
H297 C293 0.950 1_554 S
H298 C295 0.950 . S
C299 C290 1.390 . S
C299 H292 0.950 . S
C299 C296 1.387 . S
C300 C301 1.387 . S
C300 H304 0.950 . S
C300 C309 1.390 . S
C301 C300 1.387 . S
C301 C303 1.387 . S
H302 C309 0.950 . S
C303 C301 1.387 . S
C303 C305 1.390 . S
C303 H307 0.950 . S
H304 C300 0.950 . S
C305 C303 1.390 . S
C305 C306 1.387 . S
C305 H308 0.950 . S
C306 C305 1.387 . S
C306 C309 1.387 . S
H307 C303 0.950 . S
H308 C305 0.950 . S
C309 C300 1.390 . S
C309 H302 0.950 . S
C309 C306 1.387 . S
C310 C311 1.387 . S
C310 H314 0.950 . S
C310 C319 1.390 . S
C311 C310 1.387 . S
C311 C313 1.387 . S
H312 C319 0.950 . S
C313 C311 1.387 . S
C313 C315 1.390 . S
C313 H317 0.950 . S
H314 C310 0.950 . S
C315 C313 1.390 . S
C315 C316 1.387 . S
C315 H318 0.950 . S
C316 C315 1.387 . S
C316 C319 1.387 . S
H317 C313 0.950 . S
H318 C315 0.950 . S
C319 C310 1.390 . S
C319 H312 0.950 . S
C319 C316 1.387 . S
C320 C321 1.387 1_655 S
C320 H324 0.950 . S
C320 C329 1.390 1_546 S
C321 C320 1.387 1_455 S
C321 C323 1.387 . S
H322 C329 0.950 . S
C323 C321 1.387 . S
C323 C325 1.390 1_546 S
C323 H327 0.950 . S
H324 C320 0.950 . S
C325 C323 1.390 1_564 S
C325 C326 1.387 1_455 S
C325 H328 0.950 . S
C326 C325 1.387 1_655 S
C326 C329 1.387 . S
H327 C323 0.950 . S
H328 C325 0.950 . S
C329 C320 1.390 1_564 S
C329 H322 0.950 . S
C329 C326 1.387 . S
C330 C331 1.387 . S
C330 H334 0.950 . S
C330 C339 1.390 . S
C331 C330 1.387 . S
C331 C333 1.387 . S
H332 C339 0.950 . S
C333 C331 1.387 . S
C333 C335 1.390 . S
C333 H337 0.950 . S
H334 C330 0.950 . S
C335 C333 1.390 . S
C335 C336 1.387 . S
C335 H338 0.950 . S
C336 C335 1.387 . S
C336 C339 1.387 . S
H337 C333 0.950 . S
H338 C335 0.950 . S
C339 C330 1.390 . S
C339 H332 0.950 . S
C339 C336 1.387 . S
C340 C341 1.387 . S
C340 H344 0.950 . S
C340 C349 1.390 . S
C341 C340 1.387 . S
C341 C343 1.387 1_565 S
H342 C349 0.950 . S
C343 C341 1.387 1_545 S
C343 C345 1.390 . S
C343 H347 0.950 . S
H344 C340 0.950 . S
C345 C343 1.390 . S
C345 C346 1.387 . S
C345 H348 0.950 . S
C346 C345 1.387 . S
C346 C349 1.387 1_545 S
H347 C343 0.950 . S
H348 C345 0.950 . S
C349 C340 1.390 . S
C349 H342 0.950 . S
C349 C346 1.387 1_565 S
C350 C351 1.387 . S
C350 H354 0.950 . S
C350 C359 1.390 . S
C351 C350 1.387 . S
C351 C353 1.387 . S
H352 C359 0.950 . S
C353 C351 1.387 . S
C353 C355 1.390 . S
C353 H357 0.950 . S
H354 C350 0.950 . S
C355 C353 1.390 . S
C355 C356 1.387 . S
C355 H358 0.950 . S
C356 C355 1.387 . S
C356 C359 1.387 . S
H357 C353 0.950 . S
H358 C355 0.950 . S
C359 C350 1.390 . S
C359 H352 0.950 . S
C359 C356 1.387 . S
C360 C361 1.387 . S
C360 H364 0.950 . S
C360 C369 1.390 . S
C361 C360 1.387 . S
C361 C363 1.387 . S
H362 C369 0.950 . S
C363 C361 1.387 . S
C363 C365 1.390 . S
C363 H367 0.950 . S
H364 C360 0.950 . S
C365 C363 1.390 . S
C365 C366 1.387 . S
C365 H368 0.950 . S
C366 C365 1.387 . S
C366 C369 1.387 . S
H367 C363 0.950 . S
H368 C365 0.950 . S
C369 C360 1.390 . S
C369 H362 0.950 . S
C369 C366 1.387 . S
C370 C371 1.387 . S
C370 H374 0.950 . S
C370 C379 1.390 . S
C371 C370 1.387 . S
C371 C373 1.387 . S
H372 C379 0.950 . S
C373 C371 1.387 . S
C373 C375 1.390 . S
C373 H377 0.950 . S
H374 C370 0.950 . S
C375 C373 1.390 . S
C375 C376 1.387 . S
C375 H378 0.950 . S
C376 C375 1.387 . S
C376 C379 1.387 . S
H377 C373 0.950 . S
H378 C375 0.950 . S
C379 C370 1.390 . S
C379 H372 0.950 . S
C379 C376 1.387 . S
C380 C381 1.387 . S
C380 H384 0.950 . S
C380 C389 1.390 . S
C381 C380 1.387 . S
C381 C383 1.387 . S
H382 C389 0.950 . S
C383 C381 1.387 . S
C383 C385 1.390 . S
C383 H387 0.950 . S
H384 C380 0.950 . S
C385 C383 1.390 . S
C385 C386 1.387 . S
C385 H388 0.950 . S
C386 C385 1.387 . S
C386 C389 1.387 . S
H387 C383 0.950 . S
H388 C385 0.950 . S
C389 C380 1.390 . S
C389 H382 0.950 . S
C389 C386 1.387 . S
C390 C391 1.387 1_655 S
C390 H394 0.950 . S
C390 C399 1.390 1_556 S
C391 C390 1.387 1_455 S
C391 C393 1.387 . S
H392 C399 0.950 . S
C393 C391 1.387 . S
C393 C395 1.390 1_556 S
C393 H397 0.950 . S
H394 C390 0.950 . S
C395 C393 1.390 1_554 S
C395 C396 1.387 1_455 S
C395 H398 0.950 . S
C396 C395 1.387 1_655 S
C396 C399 1.387 . S
H397 C393 0.950 . S
H398 C395 0.950 . S
C399 C390 1.390 1_554 S
C399 H392 0.950 . S
C399 C396 1.387 . S
C161 C18 1.499 . S
C166 C64 1.440 . S
C171 C4 0.980 . S
C176 C24 0.979 . S
C181 C38 1.500 . S
C186 C44 1.445 . S
C191 C58 2.072 . S
C196 C78 2.072 . S
C201 C19 1.501 . S
C206 C102 1.444 . S
C211 C2 0.977 . S
C216 C82 0.977 . S
C221 C99 1.499 . S
C226 C42 1.442 . S
C231 C119 2.073 . S
C236 C59 2.074 . S
C241 C138 1.499 . S
C246 C104 1.444 . S
C251 C84 0.980 . S
C256 C124 0.978 . S
C261 C144 1.442 . S
C266 C98 1.503 . S
C271 C118 2.074 . S
C276 C158 2.074 . S
C281 C62 1.441 . S
C286 C139 1.500 . S
C291 C122 0.975 . S
C296 C22 0.974 . S
C301 C39 1.501 . S
C306 C142 1.440 . S
C311 C79 2.072 . S
C316 C159 2.072 . S
C321 C12 1.436 1_545 S
C326 C9 1.436 1_565 S
C331 C32 1.433 . S
C336 C29 1.433 . S
C341 C52 1.517 . S
C346 C49 1.517 . S
C351 C69 1.517 . S
C356 C72 1.517 . S
C361 C92 1.436 . S
C366 C89 1.436 . S
C371 C109 1.517 . S
C376 C112 1.517 . S
C381 C129 1.434 . S
C386 C132 1.434 . S
C391 C149 1.516 . S
C396 C152 1.516 . S
