# Generated by pormake.
# Topology zni, (4)-cn, num edge types: 1
# Building blocks:
#     Node 0, Type 0, BuildingBlock: KUFVIS_clean_sbu_0, # of connection points: 4
#     Node 1, Type 0, BuildingBlock: KUFVIS_clean_sbu_0, # of connection points: 4
#     Node 2, Type 0, BuildingBlock: KUFVIS_clean_sbu_0, # of connection points: 4
#     Node 3, Type 0, BuildingBlock: KUFVIS_clean_sbu_0, # of connection points: 4
#     Node 4, Type 0, BuildingBlock: KUFVIS_clean_sbu_0, # of connection points: 4
#     Node 5, Type 0, BuildingBlock: KUFVIS_clean_sbu_0, # of connection points: 4
#     Node 6, Type 0, BuildingBlock: KUFVIS_clean_sbu_0, # of connection points: 4
#     Node 7, Type 0, BuildingBlock: KUFVIS_clean_sbu_0, # of connection points: 4
#     Node 8, Type 0, BuildingBlock: KUFVIS_clean_sbu_0, # of connection points: 4
#     Node 9, Type 0, BuildingBlock: KUFVIS_clean_sbu_0, # of connection points: 4
#     Node 10, Type 0, BuildingBlock: KUFVIS_clean_sbu_0, # of connection points: 4
#     Node 11, Type 0, BuildingBlock: KUFVIS_clean_sbu_0, # of connection points: 4
#     Node 12, Type 0, BuildingBlock: KUFVIS_clean_sbu_0, # of connection points: 4
#     Node 13, Type 0, BuildingBlock: KUFVIS_clean_sbu_0, # of connection points: 4
#     Node 14, Type 0, BuildingBlock: KUFVIS_clean_sbu_0, # of connection points: 4
#     Node 15, Type 0, BuildingBlock: KUFVIS_clean_sbu_0, # of connection points: 4
#     Node 16, Type 0, BuildingBlock: KUFVIS_clean_sbu_0, # of connection points: 4
#     Node 17, Type 0, BuildingBlock: KUFVIS_clean_sbu_0, # of connection points: 4
#     Node 18, Type 0, BuildingBlock: KUFVIS_clean_sbu_0, # of connection points: 4
#     Node 19, Type 0, BuildingBlock: KUFVIS_clean_sbu_0, # of connection points: 4
#     Node 20, Type 0, BuildingBlock: KUFVIS_clean_sbu_0, # of connection points: 4
#     Node 21, Type 0, BuildingBlock: KUFVIS_clean_sbu_0, # of connection points: 4
#     Node 22, Type 0, BuildingBlock: KUFVIS_clean_sbu_0, # of connection points: 4
#     Node 23, Type 0, BuildingBlock: KUFVIS_clean_sbu_0, # of connection points: 4
#     Node 24, Type 0, BuildingBlock: KUFVIS_clean_sbu_0, # of connection points: 4
#     Node 25, Type 0, BuildingBlock: KUFVIS_clean_sbu_0, # of connection points: 4
#     Node 26, Type 0, BuildingBlock: KUFVIS_clean_sbu_0, # of connection points: 4
#     Node 27, Type 0, BuildingBlock: KUFVIS_clean_sbu_0, # of connection points: 4
#     Node 28, Type 0, BuildingBlock: KUFVIS_clean_sbu_0, # of connection points: 4
#     Node 29, Type 0, BuildingBlock: KUFVIS_clean_sbu_0, # of connection points: 4
#     Node 30, Type 0, BuildingBlock: KUFVIS_clean_sbu_0, # of connection points: 4
#     Node 31, Type 0, BuildingBlock: KUFVIS_clean_sbu_0, # of connection points: 4
#     Edge 32, Type (0, 0), BuildingBlock: CIFDUS_clean_linker_0, # of connection points: 2
#     Edge 33, Type (0, 0), BuildingBlock: CIFDUS_clean_linker_0, # of connection points: 2
#     Edge 34, Type (0, 0), BuildingBlock: CIFDUS_clean_linker_0, # of connection points: 2
#     Edge 35, Type (0, 0), BuildingBlock: CIFDUS_clean_linker_0, # of connection points: 2
#     Edge 36, Type (0, 0), BuildingBlock: CIFDUS_clean_linker_0, # of connection points: 2
#     Edge 37, Type (0, 0), BuildingBlock: CIFDUS_clean_linker_0, # of connection points: 2
#     Edge 38, Type (0, 0), BuildingBlock: CIFDUS_clean_linker_0, # of connection points: 2
#     Edge 39, Type (0, 0), BuildingBlock: CIFDUS_clean_linker_0, # of connection points: 2
#     Edge 40, Type (0, 0), BuildingBlock: CIFDUS_clean_linker_0, # of connection points: 2
#     Edge 41, Type (0, 0), BuildingBlock: CIFDUS_clean_linker_0, # of connection points: 2
#     Edge 42, Type (0, 0), BuildingBlock: CIFDUS_clean_linker_0, # of connection points: 2
#     Edge 43, Type (0, 0), BuildingBlock: CIFDUS_clean_linker_0, # of connection points: 2
#     Edge 44, Type (0, 0), BuildingBlock: CIFDUS_clean_linker_0, # of connection points: 2
#     Edge 45, Type (0, 0), BuildingBlock: CIFDUS_clean_linker_0, # of connection points: 2
#     Edge 46, Type (0, 0), BuildingBlock: CIFDUS_clean_linker_0, # of connection points: 2
#     Edge 47, Type (0, 0), BuildingBlock: CIFDUS_clean_linker_0, # of connection points: 2
#     Edge 48, Type (0, 0), BuildingBlock: CIFDUS_clean_linker_0, # of connection points: 2
#     Edge 49, Type (0, 0), BuildingBlock: CIFDUS_clean_linker_0, # of connection points: 2
#     Edge 50, Type (0, 0), BuildingBlock: CIFDUS_clean_linker_0, # of connection points: 2
#     Edge 51, Type (0, 0), BuildingBlock: CIFDUS_clean_linker_0, # of connection points: 2
#     Edge 52, Type (0, 0), BuildingBlock: CIFDUS_clean_linker_0, # of connection points: 2
#     Edge 53, Type (0, 0), BuildingBlock: CIFDUS_clean_linker_0, # of connection points: 2
#     Edge 54, Type (0, 0), BuildingBlock: CIFDUS_clean_linker_0, # of connection points: 2
#     Edge 55, Type (0, 0), BuildingBlock: CIFDUS_clean_linker_0, # of connection points: 2
#     Edge 56, Type (0, 0), BuildingBlock: CIFDUS_clean_linker_0, # of connection points: 2
#     Edge 57, Type (0, 0), BuildingBlock: CIFDUS_clean_linker_0, # of connection points: 2
#     Edge 58, Type (0, 0), BuildingBlock: CIFDUS_clean_linker_0, # of connection points: 2
#     Edge 59, Type (0, 0), BuildingBlock: CIFDUS_clean_linker_0, # of connection points: 2
#     Edge 60, Type (0, 0), BuildingBlock: CIFDUS_clean_linker_0, # of connection points: 2
#     Edge 61, Type (0, 0), BuildingBlock: CIFDUS_clean_linker_0, # of connection points: 2
#     Edge 62, Type (0, 0), BuildingBlock: CIFDUS_clean_linker_0, # of connection points: 2
#     Edge 63, Type (0, 0), BuildingBlock: CIFDUS_clean_linker_0, # of connection points: 2
#     Edge 64, Type (0, 0), BuildingBlock: CIFDUS_clean_linker_0, # of connection points: 2
#     Edge 65, Type (0, 0), BuildingBlock: CIFDUS_clean_linker_0, # of connection points: 2
#     Edge 66, Type (0, 0), BuildingBlock: CIFDUS_clean_linker_0, # of connection points: 2
#     Edge 67, Type (0, 0), BuildingBlock: CIFDUS_clean_linker_0, # of connection points: 2
#     Edge 68, Type (0, 0), BuildingBlock: CIFDUS_clean_linker_0, # of connection points: 2
#     Edge 69, Type (0, 0), BuildingBlock: CIFDUS_clean_linker_0, # of connection points: 2
#     Edge 70, Type (0, 0), BuildingBlock: CIFDUS_clean_linker_0, # of connection points: 2
#     Edge 71, Type (0, 0), BuildingBlock: CIFDUS_clean_linker_0, # of connection points: 2
#     Edge 72, Type (0, 0), BuildingBlock: CIFDUS_clean_linker_0, # of connection points: 2
#     Edge 73, Type (0, 0), BuildingBlock: CIFDUS_clean_linker_0, # of connection points: 2
#     Edge 74, Type (0, 0), BuildingBlock: CIFDUS_clean_linker_0, # of connection points: 2
#     Edge 75, Type (0, 0), BuildingBlock: CIFDUS_clean_linker_0, # of connection points: 2
#     Edge 76, Type (0, 0), BuildingBlock: CIFDUS_clean_linker_0, # of connection points: 2
#     Edge 77, Type (0, 0), BuildingBlock: CIFDUS_clean_linker_0, # of connection points: 2
#     Edge 78, Type (0, 0), BuildingBlock: CIFDUS_clean_linker_0, # of connection points: 2
#     Edge 79, Type (0, 0), BuildingBlock: CIFDUS_clean_linker_0, # of connection points: 2
#     Edge 80, Type (0, 0), BuildingBlock: CIFDUS_clean_linker_0, # of connection points: 2
#     Edge 81, Type (0, 0), BuildingBlock: CIFDUS_clean_linker_0, # of connection points: 2
#     Edge 82, Type (0, 0), BuildingBlock: CIFDUS_clean_linker_0, # of connection points: 2
#     Edge 83, Type (0, 0), BuildingBlock: CIFDUS_clean_linker_0, # of connection points: 2
#     Edge 84, Type (0, 0), BuildingBlock: CIFDUS_clean_linker_0, # of connection points: 2
#     Edge 85, Type (0, 0), BuildingBlock: CIFDUS_clean_linker_0, # of connection points: 2
#     Edge 86, Type (0, 0), BuildingBlock: CIFDUS_clean_linker_0, # of connection points: 2
#     Edge 87, Type (0, 0), BuildingBlock: CIFDUS_clean_linker_0, # of connection points: 2
#     Edge 88, Type (0, 0), BuildingBlock: CIFDUS_clean_linker_0, # of connection points: 2
#     Edge 89, Type (0, 0), BuildingBlock: CIFDUS_clean_linker_0, # of connection points: 2
#     Edge 90, Type (0, 0), BuildingBlock: CIFDUS_clean_linker_0, # of connection points: 2
#     Edge 91, Type (0, 0), BuildingBlock: CIFDUS_clean_linker_0, # of connection points: 2
#     Edge 92, Type (0, 0), BuildingBlock: CIFDUS_clean_linker_0, # of connection points: 2
#     Edge 93, Type (0, 0), BuildingBlock: CIFDUS_clean_linker_0, # of connection points: 2
#     Edge 94, Type (0, 0), BuildingBlock: CIFDUS_clean_linker_0, # of connection points: 2
#     Edge 95, Type (0, 0), BuildingBlock: CIFDUS_clean_linker_0, # of connection points: 2
# Relax obj value: 0.215
# Max RMSD: 0.099
# Mean RMSD: 0.099
data_MOF--net-zni--node1-KUFVIS_clean_sbu_0--edge1-CIFDUS_clean_linker_0
_symmetry_space_group_name_H-M    P1
_symmetry_Int_Tables_number       1
_symmetry_cell_setting            triclinic
loop_
_symmetry_equiv_pos_as_xyz
'x, y, z'
_cell_length_a     50.946578
_cell_length_b     50.9518
_cell_length_c     25.610685
_cell_angle_alpha  90.014709
_cell_angle_beta   90.038741
_cell_angle_gamma 89.993273
loop_
_atom_site_label
_atom_site_type_symbol
_atom_site_fract_x
_atom_site_fract_y
_atom_site_fract_z
_atom_type_partial_charge
Mn0 Mn 0.10191 0.10958 0.40848 0.0
Mn1 Mn 0.08403 0.05602 0.47662 0.0
C2 C 0.1295 0.09193 0.47204 0.0
C3 C 0.10315 0.15499 0.39899 0.0
C4 C 0.10169 0.05424 0.36346 0.0
O5 O 0.06223 0.10803 0.39663 0.0
O6 O 0.05222 0.07392 0.44924 0.0
C7 C 0.05781 0.08361 0.56405 0.0
N8 N 0.07637 0.06644 0.54677 0.0
C9 C 0.09223 0.05941 0.63422 0.0
C10 C 0.07307 0.07676 0.65297 0.0
C11 C 0.05586 0.08899 0.61769 0.0
C12 C 0.09327 0.05485 0.58032 0.0
H13 H 0.04475 0.09332 0.53705 0.0
C14 C 0.04565 0.09285 0.41888 0.0
O15 O 0.1061 0.1394 0.35929 0.0
O16 O 0.09859 0.1442 0.44394 0.0
N17 N 0.11317 0.03746 0.5062 0.0
C18 C 0.13186 0.02292 0.48151 0.0
C19 C 0.1509 0.0097 0.51119 0.0
C20 C 0.15057 0.01159 0.5659 0.0
C21 C 0.13119 0.02672 0.59047 0.0
C22 C 0.11253 0.0392 0.55889 0.0
H23 H 0.13227 0.02146 0.4395 0.0
O24 O 0.13907 0.10665 0.43536 0.0
O25 O 0.10453 0.0878 0.46871 0.0
O26 O 0.10699 0.07859 0.35945 0.0
O27 O 0.09252 0.04369 0.40501 0.0
C28 C 0.13009 0.03048 0.64495 0.0
C29 C 0.11073 0.04695 0.66677 0.0
H30 H 0.07163 0.08111 0.69428 0.0
H31 H 0.0412 0.10263 0.6318 0.0
H32 H 0.16588 0.99816 0.49192 0.0
H33 H 0.16548 0.00161 0.58862 0.0
H34 H 0.14438 0.02123 0.67031 0.0
H35 H 0.11044 0.05015 0.70858 0.0
Mn36 Mn 0.14696 0.85665 0.66009 0.0
Mn37 Mn 0.19299 0.82715 0.73362 0.0
C38 C 0.1646 0.87782 0.7323 0.0
C39 C 0.10251 0.86405 0.64493 0.0
C40 C 0.20389 0.8502 0.62636 0.0
O41 O 0.14389 0.81829 0.63838 0.0
O42 O 0.17244 0.80007 0.69526 0.0
C43 C 0.15726 0.80087 0.80833 0.0
N44 N 0.17762 0.81756 0.79905 0.0
C45 C 0.18149 0.82772 0.89053 0.0
C46 C 0.16082 0.81036 0.9011 0.0
C47 C 0.1486 0.79695 0.85979 0.0
C48 C 0.18934 0.83076 0.83847 0.0
H49 H 0.14754 0.79083 0.77666 0.0
C50 C 0.15498 0.79839 0.65922 0.0
O51 O 0.1198 0.86765 0.60825 0.0
O52 O 0.11104 0.85579 0.68958 0.0
N53 N 0.2136 0.85144 0.77341 0.0
C54 C 0.2318 0.86902 0.75627 0.0
C55 C 0.24538 0.88457 0.79263 0.0
C56 C 0.24008 0.88193 0.84619 0.0
C57 C 0.22122 0.86374 0.86293 0.0
C58 C 0.20855 0.84855 0.82493 0.0
H59 H 0.23585 0.87125 0.71515 0.0
O60 O 0.15328 0.89135 0.69578 0.0
O61 O 0.1654 0.85279 0.72411 0.0
O62 O 0.18102 0.8597 0.61849 0.0
O63 O 0.2103 0.83731 0.66738 0.0
C64 C 0.21404 0.86058 0.91568 0.0
C65 C 0.19411 0.84267 0.92945 0.0
H66 H 0.15391 0.80748 0.94069 0.0
H67 H 0.13242 0.78376 0.86756 0.0
H68 H 0.25981 0.89865 0.77939 0.0
H69 H 0.25038 0.89417 0.87406 0.0
H70 H 0.22339 0.87219 0.94588 0.0
H71 H 0.18837 0.84081 0.97 0.0
Mn72 Mn 0.39117 0.87942 0.89563 0.0
Mn73 Mn 0.41816 0.92906 0.96286 0.0
C74 C 0.37058 0.89602 0.96971 0.0
C75 C 0.38806 0.8342 0.88476 0.0
C76 C 0.39351 0.93512 0.85518 0.0
O77 O 0.4291 0.87952 0.87105 0.0
O78 O 0.44642 0.90887 0.92761 0.0
C79 C 0.44672 0.89828 0.04284 0.0
N80 N 0.42856 0.91689 0.03045 0.0
C81 C 0.41759 0.92321 0.12099 0.0
C82 C 0.43641 0.90435 0.13473 0.0
C83 C 0.45098 0.89179 0.09545 0.0
C84 C 0.41428 0.92895 0.06791 0.0
H85 H 0.45766 0.88827 0.01276 0.0
C86 C 0.4486 0.89138 0.89175 0.0
O87 O 0.38184 0.8502 0.84714 0.0
O88 O 0.39631 0.8445 0.92788 0.0
N89 N 0.39224 0.94924 0.99927 0.0
C90 C 0.37331 0.96524 0.97932 0.0
C91 C 0.35651 0.97878 0.01343 0.0
C92 C 0.3593 0.9757 0.06765 0.0
C93 C 0.37888 0.95907 0.08729 0.0
C94 C 0.39522 0.94628 0.05142 0.0
H95 H 0.37099 0.96762 0.93771 0.0
O96 O 0.35706 0.88316 0.93516 0.0
O97 O 0.39485 0.89948 0.95733 0.0
O98 O 0.38408 0.91198 0.85139 0.0
O99 O 0.40716 0.94306 0.89414 0.0
C100 C 0.38231 0.95408 0.14098 0.0
C101 C 0.40156 0.93606 0.1578 0.0
H102 H 0.43959 0.89912 0.17524 0.0
H103 H 0.46533 0.877 0.1057 0.0
H104 H 0.34136 0.99148 0.99795 0.0
H105 H 0.34611 0.98595 0.09381 0.0
H106 H 0.36985 0.96356 0.16961 0.0
H107 H 0.40362 0.93196 0.1991 0.0
Mn108 Mn 0.35368 0.1437 0.17548 0.0
Mn109 Mn 0.29934 0.16478 0.23669 0.0
C110 C 0.33771 0.12171 0.24883 0.0
C111 C 0.39905 0.14299 0.16499 0.0
C112 C 0.29922 0.14082 0.12804 0.0
O113 O 0.35085 0.18208 0.15298 0.0
O114 O 0.31744 0.1953 0.20496 0.0
C115 C 0.32381 0.19607 0.32115 0.0
N116 N 0.3081 0.17583 0.30595 0.0
C117 C 0.30073 0.16299 0.39519 0.0
C118 C 0.31668 0.18381 0.41177 0.0
C119 C 0.3283 0.20039 0.37457 0.0
C120 C 0.29692 0.15968 0.34143 0.0
H121 H 0.33304 0.20868 0.29269 0.0
C122 C 0.33623 0.19997 0.17283 0.0
O123 O 0.38322 0.13671 0.12732 0.0
O124 O 0.38851 0.15064 0.2085 0.0
N125 N 0.2813 0.1363 0.26977 0.0
C126 C 0.26822 0.11588 0.24731 0.0
C127 C 0.25592 0.09714 0.27919 0.0
C128 C 0.25719 0.09956 0.33376 0.0
C129 C 0.27082 0.1207 0.35601 0.0
C130 C 0.28251 0.1389 0.32227 0.0
H131 H 0.26723 0.11387 0.20541 0.0
O132 O 0.35201 0.1093 0.21483 0.0
O133 O 0.33196 0.1454 0.23545 0.0
O134 O 0.3232 0.13394 0.12827 0.0
O135 O 0.28837 0.15318 0.16578 0.0
C136 C 0.27385 0.12403 0.41031 0.0
C137 C 0.28892 0.14508 0.42988 0.0
H138 H 0.32034 0.1871 0.45293 0.0
H139 H 0.3408 0.21638 0.38704 0.0
H140 H 0.24554 0.08082 0.26172 0.0
H141 H 0.24789 0.08492 0.35821 0.0
H142 H 0.26515 0.11019 0.43734 0.0
H143 H 0.29156 0.14711 0.47165 0.0
Mn144 Mn 0.10835 0.88875 0.10413 0.0
Mn145 Mn 0.08559 0.93968 0.03451 0.0
C146 C 0.13008 0.90261 0.02925 0.0
C147 C 0.11002 0.84381 0.11868 0.0
C148 C 0.11035 0.9451 0.14198 0.0
O149 O 0.07023 0.8917 0.12793 0.0
O150 O 0.0559 0.9227 0.07146 0.0
C151 C 0.05389 0.91049 0.95691 0.0
N152 N 0.07386 0.92739 0.96788 0.0
C153 C 0.08526 0.9308 0.87695 0.0
C154 C 0.06467 0.91362 0.86465 0.0
C155 C 0.04895 0.90339 0.90484 0.0
C156 C 0.08919 0.93724 0.92954 0.0
H157 H 0.04197 0.90231 0.98772 0.0
C158 C 0.05197 0.90554 0.10737 0.0
O159 O 0.11638 0.86043 0.15504 0.0
O160 O 0.10161 0.8533 0.07486 0.0
N161 N 0.11306 0.95682 0.99656 0.0
C162 C 0.13329 0.97156 0.01529 0.0
C163 C 0.15118 0.98285 0.98017 0.0
C164 C 0.14811 0.97887 0.92623 0.0
C165 C 0.12713 0.96362 0.90787 0.0
C166 C 0.10978 0.95306 0.94469 0.0
H167 H 0.13578 0.97463 0.0567 0.0
O168 O 0.14271 0.8897 0.06502 0.0
O169 O 0.10606 0.90798 0.04103 0.0
O170 O 0.11755 0.92126 0.14646 0.0
O171 O 0.09785 0.95394 0.10233 0.0
C172 C 0.1232 0.95787 0.85461 0.0
C173 C 0.10237 0.94136 0.83918 0.0
H174 H 0.06093 0.90793 0.82457 0.0
H175 H 0.03316 0.88994 0.8957 0.0
H176 H 0.16738 0.99452 0.99466 0.0
H177 H 0.16212 0.98738 0.89931 0.0
H178 H 0.13641 0.96561 0.82528 0.0
H179 H 0.09987 0.93666 0.79824 0.0
Mn180 Mn 0.34853 0.8512 0.33423 0.0
Mn181 Mn 0.29919 0.82967 0.25793 0.0
C182 C 0.33266 0.87685 0.26597 0.0
C183 C 0.39361 0.85418 0.34922 0.0
C184 C 0.29134 0.84897 0.36902 0.0
O185 O 0.34825 0.81178 0.34838 0.0
O186 O 0.31719 0.79923 0.29065 0.0
C187 C 0.33142 0.80306 0.17754 0.0
N188 N 0.31305 0.82136 0.1905 0.0
C189 C 0.3091 0.83525 0.10101 0.0
C190 C 0.3278 0.8164 0.08667 0.0
C191 C 0.33907 0.8003 0.12515 0.0
C192 C 0.30228 0.83714 0.15385 0.0
H193 H 0.3403 0.79077 0.207 0.0
C194 C 0.33499 0.79411 0.32465 0.0
O195 O 0.37681 0.85749 0.38687 0.0
O196 O 0.38422 0.84854 0.30362 0.0
N197 N 0.28088 0.85749 0.22317 0.0
C198 C 0.26469 0.87604 0.24392 0.0
C199 C 0.25223 0.89411 0.21073 0.0
C200 C 0.25654 0.89294 0.15661 0.0
C201 C 0.27334 0.87372 0.13615 0.0
C202 C 0.28504 0.85609 0.17109 0.0
H203 H 0.26137 0.8771 0.28546 0.0
O204 O 0.34523 0.88773 0.30436 0.0
O205 O 0.32932 0.85183 0.27064 0.0
O206 O 0.31514 0.85557 0.37765 0.0
O207 O 0.2834 0.83868 0.32622 0.0
C208 C 0.27945 0.87179 0.08262 0.0
C209 C 0.29741 0.85265 0.0651 0.0
H210 H 0.33389 0.81433 0.04636 0.0
H211 H 0.3537 0.78587 0.11446 0.0
H212 H 0.2394 0.90897 0.22685 0.0
H213 H 0.24709 0.90706 0.13121 0.0
H214 H 0.27082 0.88524 0.05473 0.0
H215 H 0.30236 0.8517 0.02401 0.0
Mn216 Mn 0.39121 0.1082 0.61335 0.0
Mn217 Mn 0.41371 0.06009 0.53494 0.0
C218 C 0.36515 0.09129 0.54658 0.0
C219 C 0.38542 0.15232 0.63357 0.0
C220 C 0.39698 0.05112 0.64705 0.0
O221 O 0.43098 0.11011 0.62435 0.0
O222 O 0.44372 0.07947 0.56588 0.0
C223 C 0.43717 0.09401 0.45338 0.0
N224 N 0.42024 0.07452 0.46718 0.0
C225 C 0.40551 0.0697 0.37838 0.0
C226 C 0.42302 0.08949 0.36314 0.0
C227 C 0.43882 0.10178 0.40087 0.0
C228 C 0.40465 0.06285 0.43132 0.0
H229 H 0.44918 0.10369 0.48227 0.0
C230 C 0.44874 0.09757 0.59928 0.0
O231 O 0.38451 0.13425 0.6692 0.0
O232 O 0.39057 0.14486 0.58619 0.0
N233 N 0.38636 0.04045 0.50164 0.0
C234 C 0.36914 0.02313 0.52324 0.0
C235 C 0.3515 0.00953 0.49091 0.0
C236 C 0.35178 0.01383 0.43673 0.0
C237 C 0.36968 0.03175 0.41536 0.0
C238 C 0.38693 0.04458 0.44948 0.0
H239 H 0.36883 0.01974 0.56483 0.0
O240 O 0.35435 0.10299 0.58613 0.0
O241 O 0.39042 0.08946 0.5489 0.0
O242 O 0.38958 0.07459 0.65554 0.0
O243 O 0.40671 0.04338 0.60365 0.0
C244 C 0.37065 0.03785 0.36172 0.0
C245 C 0.38846 0.05691 0.34329 0.0
H246 H 0.42423 0.09564 0.32273 0.0
H247 H 0.45218 0.11727 0.38952 0.0
H248 H 0.33767 0.99581 0.50771 0.0
H249 H 0.33798 0.00347 0.41198 0.0
H250 H 0.35743 0.02838 0.33447 0.0
H251 H 0.38862 0.06186 0.30215 0.0
Mn252 Mn 0.14352 0.14081 0.84511 0.0
Mn253 Mn 0.19736 0.16114 0.78122 0.0
C254 C 0.15843 0.11837 0.77117 0.0
C255 C 0.09822 0.14032 0.85758 0.0
C256 C 0.19846 0.13763 0.89021 0.0
O257 O 0.14698 0.17924 0.86715 0.0
O258 O 0.17996 0.19185 0.81356 0.0
C259 C 0.17211 0.19239 0.69767 0.0
N260 N 0.18796 0.17215 0.71231 0.0
C261 C 0.19489 0.15955 0.6228 0.0
C262 C 0.17879 0.18037 0.60677 0.0
C263 C 0.1673 0.19681 0.64439 0.0
C264 C 0.19893 0.15608 0.67645 0.0
H265 H 0.16306 0.20496 0.72647 0.0
C266 C 0.16169 0.19686 0.84662 0.0
O267 O 0.1144 0.13409 0.89468 0.0
O268 O 0.10838 0.14796 0.81376 0.0
N269 N 0.21492 0.13254 0.74754 0.0
C270 C 0.22823 0.11216 0.76954 0.0
C271 C 0.24054 0.09359 0.73723 0.0
C272 C 0.23906 0.09619 0.6827 0.0
C273 C 0.22522 0.11731 0.66094 0.0
C274 C 0.21349 0.13529 0.6951 0.0
H275 H 0.22947 0.11009 0.81141 0.0
O276 O 0.14447 0.10629 0.80615 0.0
O277 O 0.16454 0.14208 0.78388 0.0
O278 O 0.17444 0.13089 0.891 0.0
O279 O 0.20902 0.14968 0.85176 0.0
C280 C 0.22204 0.12086 0.60673 0.0
C281 C 0.20674 0.14186 0.58768 0.0
H282 H 0.17493 0.18377 0.56573 0.0
H283 H 0.1547 0.2128 0.63235 0.0
H284 H 0.25112 0.0773 0.75432 0.0
H285 H 0.2484 0.08172 0.65791 0.0
H286 H 0.23079 0.10721 0.57937 0.0
H287 H 0.20396 0.14405 0.54597 0.0
Mn288 Mn 0.90108 0.90294 0.58994 0.0
Mn289 Mn 0.9226 0.95015 0.50854 0.0
C290 C 0.87572 0.91639 0.51891 0.0
C291 C 0.8964 0.85915 0.6143 0.0
C292 C 0.90487 0.96066 0.61978 0.0
O293 O 0.94077 0.90309 0.60256 0.0
O294 O 0.95312 0.93232 0.54084 0.0
C295 C 0.94781 0.91637 0.42884 0.0
N296 N 0.92983 0.93508 0.44162 0.0
C297 C 0.91502 0.93805 0.35253 0.0
C298 C 0.9335 0.91893 0.33838 0.0
C299 C 0.94989 0.90799 0.37675 0.0
C300 C 0.91376 0.94553 0.40511 0.0
H301 H 0.96038 0.9078 0.45822 0.0
C302 C 0.95836 0.91531 0.57628 0.0
O303 O 0.89447 0.87808 0.64792 0.0
O304 O 0.90226 0.86554 0.56664 0.0
N305 N 0.89445 0.9681 0.47413 0.0
C306 C 0.87633 0.9848 0.49481 0.0
C307 C 0.85808 0.99707 0.46173 0.0
C308 C 0.8587 0.99214 0.40777 0.0
C309 C 0.87751 0.97487 0.38737 0.0
C310 C 0.89525 0.96327 0.42223 0.0
H311 H 0.87583 0.98873 0.53621 0.0
O312 O 0.86459 0.90572 0.55927 0.0
O313 O 0.90067 0.91999 0.52382 0.0
O314 O 0.89737 0.93734 0.62924 0.0
O315 O 0.91504 0.96766 0.5763 0.0
C316 C 0.87893 0.96822 0.33402 0.0
C317 C 0.89754 0.94967 0.31668 0.0
H318 H 0.93512 0.91237 0.29826 0.0
H319 H 0.96409 0.8931 0.36619 0.0
H320 H 0.84356 0.0103 0.47778 0.0
H321 H 0.84447 0.00151 0.38244 0.0
H322 H 0.8654 0.9768 0.30619 0.0
H323 H 0.89804 0.94425 0.27578 0.0
Mn324 Mn 0.85193 0.1365 0.34381 0.0
Mn325 Mn 0.79998 0.16219 0.28079 0.0
C326 C 0.83236 0.11411 0.27467 0.0
C327 C 0.89728 0.13176 0.35225 0.0
C328 C 0.7976 0.14095 0.39169 0.0
O329 O 0.85339 0.17544 0.363 0.0
O330 O 0.82141 0.19121 0.3102 0.0
C331 C 0.82729 0.18902 0.1938 0.0
N332 N 0.80951 0.17096 0.21067 0.0
C333 C 0.79959 0.15803 0.12243 0.0
C334 C 0.81752 0.17676 0.10413 0.0
C335 C 0.83149 0.19226 0.14 0.0
C336 C 0.79605 0.15585 0.17649 0.0
H337 H 0.8384 0.20067 0.2212 0.0
C338 C 0.84053 0.19439 0.34231 0.0
O339 O 0.88155 0.12773 0.39131 0.0
O340 O 0.88671 0.13904 0.30849 0.0
N341 N 0.77864 0.13539 0.24997 0.0
C342 C 0.76371 0.11681 0.27403 0.0
C343 C 0.74927 0.09896 0.24367 0.0
C344 C 0.75037 0.10036 0.18893 0.0
C345 C 0.76592 0.11961 0.16503 0.0
C346 C 0.77968 0.13703 0.1973 0.0
H347 H 0.7629 0.11555 0.31607 0.0
O348 O 0.84609 0.10132 0.30901 0.0
O349 O 0.82996 0.13889 0.28407 0.0
O350 O 0.82079 0.13159 0.3928 0.0
O351 O 0.78813 0.15326 0.35242 0.0
C352 C 0.76883 0.12175 0.11048 0.0
C353 C 0.78568 0.14093 0.0892 0.0
H354 H 0.82106 0.17909 0.06269 0.0
H355 H 0.84562 0.20651 0.12621 0.0
H356 H 0.73741 0.08408 0.2624 0.0
H357 H 0.73941 0.08639 0.16566 0.0
H358 H 0.75851 0.10848 0.08456 0.0
H359 H 0.78811 0.14208 0.04725 0.0
Mn360 Mn 0.60321 0.1139 0.10996 0.0
Mn361 Mn 0.58192 0.06521 0.03226 0.0
C362 C 0.62828 0.10009 0.03824 0.0
C363 C 0.60727 0.15813 0.13125 0.0
C364 C 0.59941 0.05714 0.14461 0.0
O365 O 0.56353 0.11323 0.12371 0.0
O366 O 0.55139 0.08403 0.06166 0.0
C367 C 0.55783 0.09716 0.94833 0.0
N368 N 0.57535 0.07848 0.96363 0.0
C369 C 0.59074 0.07287 0.87551 0.0
C370 C 0.57269 0.09186 0.85874 0.0
C371 C 0.55625 0.10414 0.89537 0.0
C372 C 0.59156 0.06687 0.92885 0.0
H373 H 0.54529 0.10679 0.97641 0.0
C374 C 0.54603 0.10113 0.09686 0.0
O375 O 0.6098 0.13988 0.16615 0.0
O376 O 0.60102 0.15077 0.0844 0.0
N377 N 0.61029 0.04628 0.00092 0.0
C378 C 0.6282 0.03018 0.02405 0.0
C379 C 0.6466 0.01687 0.99299 0.0
C380 C 0.64631 0.02012 0.93852 0.0
C381 C 0.62769 0.0368 0.91559 0.0
C382 C 0.60982 0.04954 0.94852 0.0
H383 H 0.62839 0.02746 0.06584 0.0
O384 O 0.63947 0.11137 0.07792 0.0
O385 O 0.60356 0.09581 0.04485 0.0
O386 O 0.60795 0.08032 0.15133 0.0
O387 O 0.58862 0.04947 0.10213 0.0
C388 C 0.62655 0.04177 0.86151 0.0
C389 C 0.60825 0.05998 0.84153 0.0
H390 H 0.57146 0.09734 0.81794 0.0
H391 H 0.54243 0.11898 0.8828 0.0
H392 H 0.66095 0.00407 0.01098 0.0
H393 H 0.66062 0.00992 0.91473 0.0
H394 H 0.64014 0.03224 0.83508 0.0
H395 H 0.60805 0.06418 0.80008 0.0
Mn396 Mn 0.64368 0.85143 0.83549 0.0
Mn397 Mn 0.69151 0.82415 0.76379 0.0
C398 C 0.65715 0.87098 0.75788 0.0
C399 C 0.60007 0.85689 0.85846 0.0
C400 C 0.70006 0.84878 0.8702 0.0
O401 O 0.64448 0.81321 0.86032 0.0
O402 O 0.67237 0.79581 0.80079 0.0
C403 C 0.65952 0.79511 0.68642 0.0
N404 N 0.67795 0.81369 0.69728 0.0
C405 C 0.6817 0.82517 0.60643 0.0
C406 C 0.66294 0.80599 0.59424 0.0
C407 C 0.65177 0.79093 0.63444 0.0
C408 C 0.68873 0.82838 0.65892 0.0
H409 H 0.65063 0.78373 0.71726 0.0
C410 C 0.6558 0.79362 0.83836 0.0
O411 O 0.61898 0.86184 0.89083 0.0
O412 O 0.60642 0.84781 0.81274 0.0
N413 N 0.7104 0.85045 0.72583 0.0
C414 C 0.72657 0.86957 0.74451 0.0
C415 C 0.73887 0.88679 0.7094 0.0
C416 C 0.73441 0.88421 0.65552 0.0
C417 C 0.71763 0.86442 0.6372 0.0
C418 C 0.7061 0.84769 0.67401 0.0
H419 H 0.73 0.8717 0.78587 0.0
O420 O 0.6461 0.88506 0.79403 0.0
O421 O 0.6611 0.84682 0.77082 0.0
O422 O 0.67738 0.8588 0.87367 0.0
O423 O 0.70755 0.83466 0.83173 0.0
C424 C 0.71133 0.86113 0.58401 0.0
C425 C 0.69327 0.84161 0.56867 0.0
H426 H 0.65675 0.80285 0.55425 0.0
H427 H 0.63711 0.77625 0.62541 0.0
H428 H 0.7517 0.90209 0.72387 0.0
H429 H 0.74372 0.8977 0.62861 0.0
H430 H 0.71983 0.87388 0.5547 0.0
H431 H 0.68816 0.83963 0.5278 0.0
Mn432 Mn 0.8948 0.10438 0.90742 0.0
Mn433 Mn 0.91708 0.05894 0.99199 0.0
C434 C 0.86929 0.09123 0.97875 0.0
C435 C 0.88898 0.1475 0.87962 0.0
C436 C 0.90085 0.0465 0.88066 0.0
O437 O 0.93464 0.10536 0.89598 0.0
O438 O 0.94713 0.07755 0.96014 0.0
C439 C 0.94001 0.09471 0.07106 0.0
N440 N 0.92309 0.07499 0.05849 0.0
C441 C 0.90808 0.07187 0.14737 0.0
C442 C 0.92549 0.09201 0.16134 0.0
C443 C 0.94143 0.10355 0.12294 0.0
C444 C 0.90736 0.06405 0.09495 0.0
H445 H 0.95224 0.10371 0.04165 0.0
C446 C 0.95228 0.09418 0.92397 0.0
O447 O 0.88797 0.12787 0.84748 0.0
O448 O 0.89453 0.14223 0.928 0.0
N449 N 0.88936 0.04026 0.02611 0.0
C450 C 0.87217 0.02258 0.00552 0.0
C451 C 0.85446 0.00958 0.0386 0.0
C452 C 0.85471 0.01475 0.09249 0.0
C453 C 0.87259 0.03302 0.11279 0.0
C454 C 0.88978 0.04537 0.07792 0.0
H455 H 0.87204 0.01837 0.96421 0.0
O456 O 0.8582 0.10091 0.93733 0.0
O457 O 0.89434 0.08824 0.9746 0.0
O458 O 0.89247 0.06937 0.87012 0.0
O459 O 0.91094 0.04035 0.92474 0.0
C460 C 0.87364 0.03989 0.16607 0.0
C461 C 0.89118 0.0595 0.18326 0.0
H462 H 0.92662 0.09889 0.2013 0.0
H463 H 0.95478 0.11923 0.13334 0.0
H464 H 0.84068 0.99554 0.02262 0.0
H465 H 0.84094 0.00476 0.11783 0.0
H466 H 0.86055 0.0307 0.19394 0.0
H467 H 0.89132 0.0651 0.22406 0.0
Mn468 Mn 0.63962 0.15056 0.67349 0.0
Mn469 Mn 0.6933 0.17331 0.73562 0.0
C470 C 0.65931 0.12646 0.74016 0.0
C471 C 0.59423 0.14625 0.66542 0.0
C472 C 0.6942 0.1524 0.62464 0.0
O473 O 0.63881 0.18988 0.65711 0.0
O474 O 0.67332 0.2033 0.70584 0.0
C475 C 0.66684 0.20157 0.82193 0.0
N476 N 0.68397 0.18277 0.80552 0.0
C477 C 0.6929 0.16961 0.89404 0.0
C478 C 0.67558 0.18903 0.91186 0.0
C479 C 0.66245 0.20502 0.87562 0.0
C480 C 0.69661 0.16717 0.84006 0.0
H481 H 0.65642 0.21369 0.79426 0.0
C482 C 0.65342 0.20791 0.67643 0.0
O483 O 0.60984 0.14308 0.6259 0.0
O484 O 0.60491 0.15287 0.70955 0.0
N485 N 0.71342 0.14575 0.76709 0.0
C486 C 0.72777 0.12656 0.74348 0.0
C487 C 0.74154 0.10837 0.77427 0.0
C488 C 0.74035 0.11004 0.82896 0.0
C489 C 0.72538 0.1299 0.8524 0.0
C490 C 0.71232 0.14766 0.81972 0.0
H491 H 0.7286 0.12505 0.70148 0.0
O492 O 0.64497 0.11466 0.7054 0.0
O493 O 0.6622 0.15137 0.73275 0.0
O494 O 0.67017 0.14559 0.62334 0.0
O495 O 0.70494 0.16333 0.66424 0.0
C496 C 0.72234 0.13232 0.90688 0.0
C497 C 0.70605 0.15211 0.92767 0.0
H498 H 0.67193 0.19157 0.95322 0.0
H499 H 0.64884 0.21986 0.88905 0.0
H500 H 0.75292 0.09301 0.75588 0.0
H501 H 0.75076 0.09579 0.85256 0.0
H502 H 0.73209 0.11878 0.9331 0.0
H503 H 0.70348 0.15346 0.96957 0.0
Mn504 Mn 0.59738 0.88771 0.39787 0.0
Mn505 Mn 0.57676 0.93717 0.47485 0.0
C506 C 0.6244 0.90468 0.46297 0.0
C507 C 0.60313 0.84351 0.3784 0.0
C508 C 0.59155 0.94432 0.36104 0.0
O509 O 0.55742 0.88613 0.38984 0.0
O510 O 0.54586 0.91794 0.447 0.0
C511 C 0.55367 0.90536 0.56009 0.0
N512 N 0.57108 0.92394 0.54386 0.0
C513 C 0.58805 0.92907 0.63102 0.0
C514 C 0.57011 0.91021 0.64871 0.0
C515 C 0.55291 0.89824 0.61304 0.0
C516 C 0.58788 0.9354 0.57779 0.0
H517 H 0.54059 0.8959 0.53278 0.0
C518 C 0.54017 0.89933 0.41512 0.0
O519 O 0.60309 0.8614 0.34241 0.0
O520 O 0.59853 0.85112 0.42595 0.0
N521 N 0.60524 0.9565 0.50499 0.0
C522 C 0.62269 0.97278 0.48104 0.0
C523 C 0.64171 0.98584 0.51108 0.0
C524 C 0.64261 0.982 0.56537 0.0
C525 C 0.62449 0.9651 0.58915 0.0
C526 C 0.60582 0.95281 0.55727 0.0
H527 H 0.62215 0.97573 0.43933 0.0
O528 O 0.63465 0.89285 0.42296 0.0
O529 O 0.59915 0.90701 0.46147 0.0
O530 O 0.59862 0.9207 0.35375 0.0
O531 O 0.58279 0.95286 0.40466 0.0
C532 C 0.62466 0.95944 0.64301 0.0
C533 C 0.60651 0.94137 0.6639 0.0
H534 H 0.56961 0.9045 0.68945 0.0
H535 H 0.53919 0.88347 0.6263 0.0
H536 H 0.65571 0.99875 0.49241 0.0
H537 H 0.65748 0.9919 0.58833 0.0
H538 H 0.63897 0.96852 0.66856 0.0
H539 H 0.60718 0.93678 0.70517 0.0
Mn540 Mn 0.8533 0.8786 0.15146 0.0
Mn541 Mn 0.80528 0.84814 0.21738 0.0
C542 C 0.83411 0.89851 0.22374 0.0
C543 C 0.8974 0.88689 0.13665 0.0
C544 C 0.79935 0.86947 0.10709 0.0
O545 O 0.8571 0.83997 0.13024 0.0
O546 O 0.82891 0.82119 0.18745 0.0
C547 C 0.83533 0.82376 0.30373 0.0
N548 N 0.81613 0.84044 0.28725 0.0
C549 C 0.80592 0.85275 0.37567 0.0
C550 C 0.82537 0.83548 0.39358 0.0
C551 C 0.84018 0.82099 0.35742 0.0
C552 C 0.80181 0.85453 0.3217 0.0
H553 H 0.84701 0.81286 0.27608 0.0
C554 C 0.84708 0.81987 0.15281 0.0
O555 O 0.8799 0.89001 0.1004 0.0
O556 O 0.88937 0.87845 0.18177 0.0
N557 N 0.78204 0.87317 0.2486 0.0
C558 C 0.76533 0.89029 0.22484 0.0
C559 C 0.74973 0.90698 0.25549 0.0
C560 C 0.75148 0.90592 0.31019 0.0
C561 C 0.76884 0.88816 0.33378 0.0
C562 C 0.78375 0.87186 0.30124 0.0
H563 H 0.76396 0.89124 0.18283 0.0
O564 O 0.84589 0.9128 0.18886 0.0
O565 O 0.8333 0.87377 0.21305 0.0
O566 O 0.82085 0.88204 0.10639 0.0
O567 O 0.79199 0.85546 0.14587 0.0
C568 C 0.77237 0.88641 0.38825 0.0
C569 C 0.79092 0.86874 0.40918 0.0
H570 H 0.82939 0.83352 0.43493 0.0
H571 H 0.85545 0.80786 0.37091 0.0
H572 H 0.73644 0.9207 0.23699 0.0
H573 H 0.73957 0.91898 0.33368 0.0
H574 H 0.76119 0.89884 0.41438 0.0
H575 H 0.79375 0.86787 0.45106 0.0
Mn576 Mn 0.618 0.59764 0.90062 0.0
Mn577 Mn 0.58822 0.55331 0.9779 0.0
C578 C 0.63859 0.5824 0.97582 0.0
C579 C 0.62614 0.64098 0.87717 0.0
C580 C 0.61098 0.54022 0.87137 0.0
O581 O 0.57947 0.60016 0.8785 0.0
O582 O 0.56115 0.57344 0.93879 0.0
C583 C 0.56168 0.58946 0.05152 0.0
N584 N 0.57866 0.56929 0.04279 0.0
C585 C 0.58823 0.56565 0.13456 0.0
C586 C 0.5705 0.58608 0.14459 0.0
C587 C 0.55727 0.59812 0.10284 0.0
C588 C 0.59169 0.55774 0.08263 0.0
H589 H 0.55175 0.59903 0.01954 0.0
C590 C 0.55951 0.58996 0.90104 0.0
O591 O 0.62919 0.62184 0.84427 0.0
O592 O 0.61784 0.63499 0.92357 0.0
N593 N 0.61277 0.53332 0.01829 0.0
C594 C 0.6307 0.51533 0.00165 0.0
C595 C 0.64645 0.50227 0.03841 0.0
C596 C 0.64361 0.50783 0.09184 0.0
C597 C 0.62505 0.52644 0.10805 0.0
C598 C 0.60975 0.53867 0.06966 0.0
H599 H 0.63303 0.51105 0.96064 0.0
O600 O 0.65247 0.59236 0.93823 0.0
O601 O 0.61362 0.58124 0.96694 0.0
O602 O 0.6212 0.56263 0.86298 0.0
O603 O 0.5978 0.53474 0.91244 0.0
C604 C 0.62156 0.53376 0.16066 0.0
C605 C 0.60319 0.55337 0.1739 0.0
H606 H 0.56727 0.59301 0.18406 0.0
H607 H 0.54383 0.61415 0.11018 0.0
H608 H 0.66081 0.48801 0.02559 0.0
H609 H 0.65596 0.49788 0.12003 0.0
H610 H 0.6332 0.52472 0.19116 0.0
H611 H 0.60104 0.55919 0.21436 0.0
Mn612 Mn 0.65031 0.36569 0.13941 0.0
Mn613 Mn 0.69476 0.33508 0.21526 0.0
C614 C 0.66866 0.38685 0.2113 0.0
C615 C 0.60666 0.3754 0.12097 0.0
C616 C 0.70636 0.35467 0.10555 0.0
O617 O 0.64506 0.32702 0.12137 0.0
O618 O 0.67209 0.30845 0.1809 0.0
C619 C 0.65867 0.31284 0.29443 0.0
N620 N 0.67975 0.32811 0.28234 0.0
C621 C 0.68615 0.33954 0.37267 0.0
C622 C 0.66483 0.32352 0.38614 0.0
C623 C 0.65095 0.31024 0.34679 0.0
C624 C 0.69303 0.34126 0.31983 0.0
H625 H 0.64766 0.30296 0.2643 0.0
C626 C 0.65447 0.30704 0.14514 0.0
O627 O 0.62471 0.37703 0.08533 0.0
O628 O 0.61393 0.36781 0.16708 0.0
N629 N 0.71711 0.35927 0.25144 0.0
C630 C 0.73558 0.3758 0.23155 0.0
C631 C 0.75051 0.39144 0.26559 0.0
C632 C 0.74624 0.38999 0.31969 0.0
C633 C 0.72699 0.37298 0.33927 0.0
C634 C 0.71288 0.35769 0.30349 0.0
H635 H 0.7388 0.37715 0.19002 0.0
O636 O 0.65847 0.40055 0.17364 0.0
O637 O 0.66839 0.3618 0.20382 0.0
O638 O 0.68437 0.36595 0.09782 0.0
O639 O 0.7121 0.34216 0.14736 0.0
C640 C 0.72079 0.37111 0.39276 0.0
C641 C 0.70034 0.35445 0.40943 0.0
H642 H 0.65864 0.32168 0.42643 0.0
H643 H 0.63421 0.29817 0.35678 0.0
H644 H 0.76519 0.40467 0.25015 0.0
H645 H 0.75763 0.40227 0.34578 0.0
H646 H 0.7313 0.38277 0.4213 0.0
H647 H 0.69539 0.35359 0.45052 0.0
Mn648 Mn 0.87963 0.39164 0.37299 0.0
Mn649 Mn 0.90635 0.43876 0.4481 0.0
C650 C 0.85701 0.40827 0.44464 0.0
C651 C 0.87282 0.34746 0.35483 0.0
C652 C 0.88625 0.44818 0.33788 0.0
O653 O 0.91871 0.38939 0.35544 0.0
O654 O 0.93486 0.41818 0.41459 0.0
C655 C 0.9315 0.40542 0.52864 0.0
N656 N 0.91437 0.42488 0.51569 0.0
C657 C 0.90196 0.43074 0.60562 0.0
C658 C 0.91987 0.41113 0.61997 0.0
C659 C 0.93459 0.39831 0.58126 0.0
C660 C 0.89988 0.43713 0.55258 0.0
H661 H 0.94252 0.39519 0.49899 0.0
C662 C 0.93781 0.40057 0.37917 0.0
O663 O 0.87025 0.36531 0.31901 0.0
O664 O 0.88007 0.35521 0.40088 0.0
N665 N 0.88019 0.45917 0.48326 0.0
C666 C 0.86222 0.47602 0.46255 0.0
C667 C 0.84502 0.48955 0.49587 0.0
C668 C 0.84644 0.4856 0.55007 0.0
C669 C 0.86503 0.46809 0.5705 0.0
C670 C 0.88179 0.45531 0.53541 0.0
H671 H 0.86093 0.47901 0.42092 0.0
O672 O 0.84419 0.39712 0.40684 0.0
O673 O 0.88203 0.41006 0.43733 0.0
O674 O 0.8767 0.42536 0.33078 0.0
O675 O 0.89818 0.45509 0.37965 0.0
C676 C 0.86712 0.46232 0.62415 0.0
C677 C 0.88555 0.44364 0.6417 0.0
H678 H 0.92208 0.40538 0.66046 0.0
H679 H 0.94814 0.38286 0.59193 0.0
H680 H 0.83062 0.50292 0.47978 0.0
H681 H 0.83297 0.4959 0.5756 0.0
H682 H 0.85433 0.47181 0.65216 0.0
H683 H 0.88662 0.43899 0.68291 0.0
Mn684 Mn 0.86619 0.65025 0.65458 0.0
Mn685 Mn 0.81566 0.68011 0.71464 0.0
C686 C 0.84557 0.63064 0.72556 0.0
C687 C 0.91114 0.64303 0.64727 0.0
C688 C 0.81164 0.65506 0.60704 0.0
O689 O 0.86963 0.68831 0.6308 0.0
O690 O 0.83797 0.7071 0.68015 0.0
C691 C 0.84537 0.70869 0.79626 0.0
N692 N 0.82633 0.69118 0.78285 0.0
C693 C 0.81668 0.68237 0.87317 0.0
C694 C 0.83585 0.70069 0.88788 0.0
C695 C 0.85032 0.71382 0.84923 0.0
C696 C 0.81244 0.67825 0.81975 0.0
H697 H 0.85691 0.71844 0.76678 0.0
C698 C 0.85735 0.7084 0.64817 0.0
O699 O 0.89529 0.63872 0.60844 0.0
O700 O 0.90094 0.65208 0.69 0.0
N701 N 0.79344 0.65565 0.75036 0.0
C702 C 0.77754 0.63677 0.72987 0.0
C703 C 0.7625 0.62102 0.76343 0.0
C704 C 0.76405 0.62473 0.81768 0.0
C705 C 0.78069 0.64415 0.83792 0.0
C706 C 0.79496 0.65949 0.80253 0.0
H707 H 0.77651 0.63361 0.68829 0.0
O708 O 0.85865 0.61635 0.69265 0.0
O709 O 0.84452 0.65533 0.71417 0.0
O710 O 0.83476 0.64552 0.60606 0.0
O711 O 0.80266 0.66867 0.64508 0.0
C712 C 0.78424 0.64836 0.89184 0.0
C713 C 0.80226 0.66742 0.90946 0.0
H714 H 0.83997 0.70444 0.9287 0.0
H715 H 0.86543 0.72768 0.86027 0.0
H716 H 0.74986 0.60593 0.74752 0.0
H717 H 0.75265 0.61232 0.84346 0.0
H718 H 0.77357 0.6367 0.92012 0.0
H719 H 0.80523 0.67009 0.951 0.0
Mn720 Mn 0.60432 0.39669 0.5787 0.0
Mn721 Mn 0.58483 0.44667 0.50186 0.0
C722 C 0.62905 0.40933 0.50632 0.0
C723 C 0.60545 0.35194 0.59778 0.0
C724 C 0.60588 0.45406 0.61193 0.0
O725 O 0.5652 0.39993 0.5953 0.0
O726 O 0.55376 0.43068 0.53576 0.0
C727 C 0.55547 0.41617 0.42251 0.0
N728 N 0.57509 0.43324 0.4348 0.0
C729 C 0.58852 0.43609 0.34487 0.0
C730 C 0.56831 0.4187 0.33122 0.0
C731 C 0.55177 0.40864 0.37026 0.0
C732 C 0.59128 0.44284 0.3976 0.0
H733 H 0.54283 0.40821 0.45241 0.0
C734 C 0.54804 0.41372 0.57102 0.0
O735 O 0.61017 0.36951 0.6333 0.0
O736 O 0.599 0.36037 0.55178 0.0
N737 N 0.61359 0.46291 0.46615 0.0
C738 C 0.63344 0.47772 0.48625 0.0
C739 C 0.65209 0.48881 0.45245 0.0
C740 C 0.65013 0.48459 0.39839 0.0
C741 C 0.62957 0.46922 0.37859 0.0
C742 C 0.61148 0.4588 0.41415 0.0
H743 H 0.63505 0.48102 0.52775 0.0
O744 O 0.64016 0.39698 0.54477 0.0
O745 O 0.60466 0.41489 0.51393 0.0
O746 O 0.61181 0.4301 0.62 0.0
O747 O 0.59521 0.46229 0.56975 0.0
C748 C 0.62674 0.46326 0.32514 0.0
C749 C 0.60633 0.44657 0.30833 0.0
H750 H 0.56548 0.41275 0.291 0.0
H751 H 0.53626 0.39506 0.36009 0.0
H752 H 0.66797 0.50054 0.46805 0.0
H753 H 0.66469 0.49298 0.37249 0.0
H754 H 0.64052 0.47093 0.29678 0.0
H755 H 0.60471 0.44166 0.2673 0.0
Mn756 Mn 0.85119 0.35404 0.82206 0.0
Mn757 Mn 0.80884 0.32095 0.74583 0.0
C758 C 0.83772 0.37135 0.74251 0.0
C759 C 0.89371 0.36353 0.84865 0.0
C760 C 0.79366 0.34684 0.84824 0.0
O761 O 0.85352 0.31645 0.84954 0.0
O762 O 0.82904 0.29545 0.78873 0.0
C763 C 0.84662 0.29344 0.677 0.0
N764 N 0.82597 0.31017 0.68288 0.0
C765 C 0.824 0.31797 0.59024 0.0
C766 C 0.84499 0.30053 0.58317 0.0
C767 C 0.8564 0.28829 0.62677 0.0
C768 C 0.81499 0.32223 0.64122 0.0
H769 H 0.85572 0.28431 0.71042 0.0
C770 C 0.84468 0.29552 0.82813 0.0
O771 O 0.87372 0.36754 0.87896 0.0
O772 O 0.88908 0.35346 0.80298 0.0
N773 N 0.78902 0.34411 0.70198 0.0
C774 C 0.77048 0.36208 0.71582 0.0
C775 C 0.75779 0.37677 0.67688 0.0
C776 C 0.76429 0.37286 0.62415 0.0
C777 C 0.78348 0.35431 0.61083 0.0
C778 C 0.79532 0.34009 0.6513 0.0
H779 H 0.76547 0.36525 0.75626 0.0
O780 O 0.84661 0.38684 0.77874 0.0
O781 O 0.83626 0.34693 0.75561 0.0
O782 O 0.81551 0.35828 0.85579 0.0
O783 O 0.78912 0.33178 0.80932 0.0
C784 C 0.79185 0.34992 0.55912 0.0
C785 C 0.81214 0.33181 0.54885 0.0
H786 H 0.85274 0.29668 0.54453 0.0
H787 H 0.8728 0.27504 0.6217 0.0
H788 H 0.7431 0.39115 0.68749 0.0
H789 H 0.75466 0.38444 0.59428 0.0
H790 H 0.78317 0.36076 0.52708 0.0
H791 H 0.81877 0.329 0.50906 0.0
Mn792 Mn 0.89053 0.62484 0.10641 0.0
Mn793 Mn 0.91825 0.57835 0.03145 0.0
C794 C 0.87077 0.6118 0.02837 0.0
C795 C 0.88504 0.66859 0.12955 0.0
C796 C 0.89275 0.56726 0.13634 0.0
O797 O 0.92865 0.6243 0.13169 0.0
O798 O 0.946 0.59671 0.07175 0.0
C799 C 0.94765 0.61288 0.95912 0.0
N800 N 0.92957 0.5936 0.96701 0.0
C801 C 0.92063 0.5907 0.87488 0.0
C802 C 0.93944 0.61024 0.86573 0.0
C803 C 0.95292 0.62146 0.90808 0.0
C804 C 0.91621 0.58296 0.92661 0.0
H805 H 0.95777 0.62183 0.99157 0.0
C806 C 0.94821 0.61297 0.10982 0.0
O807 O 0.87997 0.64969 0.16199 0.0
O808 O 0.89409 0.66209 0.084 0.0
N809 N 0.89292 0.55997 0.98996 0.0
C810 C 0.87382 0.54304 0.00573 0.0
C811 C 0.85798 0.53064 0.96821 0.0
C812 C 0.86198 0.53572 0.91489 0.0
C813 C 0.88175 0.55324 0.89958 0.0
C814 C 0.89701 0.56491 0.93872 0.0
H815 H 0.87067 0.53902 0.04664 0.0
O816 O 0.85678 0.62251 0.06501 0.0
O817 O 0.89507 0.60813 0.04066 0.0
O818 O 0.88369 0.59026 0.14326 0.0
O819 O 0.90654 0.5607 0.09668 0.0
C820 C 0.88641 0.56015 0.84711 0.0
C821 C 0.90571 0.579 0.8348 0.0
H822 H 0.94344 0.61702 0.82644 0.0
H823 H 0.96724 0.63678 0.9014 0.0
H824 H 0.8427 0.51722 0.98034 0.0
H825 H 0.84957 0.5263 0.8861 0.0
H826 H 0.87482 0.55155 0.81603 0.0
H827 H 0.90867 0.58462 0.79443 0.0
Mn828 Mn 0.64501 0.63661 0.35151 0.0
Mn829 Mn 0.6904 0.66762 0.2796 0.0
C830 C 0.66048 0.61783 0.27447 0.0
C831 C 0.60138 0.62826 0.37184 0.0
C832 C 0.70107 0.64441 0.38694 0.0
O833 O 0.64247 0.6748 0.37583 0.0
O834 O 0.66839 0.69434 0.31541 0.0
C835 C 0.65614 0.69279 0.20066 0.0
N836 N 0.67631 0.67629 0.21248 0.0
C837 C 0.6819 0.66481 0.12196 0.0
C838 C 0.66149 0.68204 0.1088 0.0
C839 C 0.6485 0.69602 0.14836 0.0
C840 C 0.68878 0.66255 0.17474 0.0
H841 H 0.64571 0.70313 0.23098 0.0
C842 C 0.6517 0.6952 0.35302 0.0
O843 O 0.62006 0.62448 0.4055 0.0
O844 O 0.60797 0.63759 0.32656 0.0
N845 N 0.71187 0.64291 0.24276 0.0
C846 C 0.72949 0.62537 0.26234 0.0
C847 C 0.74347 0.60905 0.22801 0.0
C848 C 0.73917 0.61089 0.17396 0.0
C849 C 0.72089 0.62904 0.1547 0.0
C850 C 0.70771 0.64496 0.19077 0.0
H851 H 0.73281 0.62377 0.30383 0.0
O852 O 0.65036 0.60305 0.31055 0.0
O853 O 0.6624 0.64225 0.28718 0.0
O854 O 0.6793 0.63236 0.39096 0.0
O855 O 0.70699 0.65894 0.34794 0.0
C856 C 0.71471 0.63144 0.10128 0.0
C857 C 0.69517 0.64925 0.08493 0.0
H858 H 0.65535 0.68437 0.06856 0.0
H859 H 0.63247 0.70907 0.13861 0.0
H860 H 0.75746 0.595 0.24319 0.0
H861 H 0.7498 0.59807 0.14765 0.0
H862 H 0.72449 0.61929 0.07253 0.0
H863 H 0.69019 0.6505 0.04389 0.0
Mn864 Mn 0.39568 0.38743 0.09638 0.0
Mn865 Mn 0.41941 0.43887 0.02946 0.0
C866 C 0.37384 0.40314 0.02293 0.0
C867 C 0.39217 0.34255 0.1099 0.0
C868 C 0.39563 0.44315 0.13787 0.0
O869 O 0.4342 0.38876 0.1187 0.0
O870 O 0.44903 0.42031 0.06391 0.0
C871 C 0.44928 0.40999 0.9486 0.0
N872 N 0.4301 0.42745 0.96153 0.0
C873 C 0.418 0.43298 0.87132 0.0
C874 C 0.43784 0.41531 0.85702 0.0
C875 C 0.45349 0.40373 0.89586 0.0
C876 C 0.41477 0.43854 0.92449 0.0
H877 H 0.46108 0.40071 0.97833 0.0
C878 C 0.45273 0.40229 0.09821 0.0
O879 O 0.38703 0.35926 0.14677 0.0
O880 O 0.4006 0.35184 0.06586 0.0
N881 N 0.39208 0.45748 0.99377 0.0
C882 C 0.3724 0.47236 0.01427 0.0
C883 C 0.35456 0.48486 0.98065 0.0
C884 C 0.35711 0.48192 0.92635 0.0
C885 C 0.37748 0.46646 0.90614 0.0
C886 C 0.39482 0.45467 0.94154 0.0
H887 H 0.3703 0.47463 0.05596 0.0
O888 O 0.36106 0.39016 0.05835 0.0
O889 O 0.39813 0.40754 0.03432 0.0
O890 O 0.38791 0.41946 0.14066 0.0
O891 O 0.40817 0.45248 0.09877 0.0
C892 C 0.38079 0.46167 0.85234 0.0
C893 C 0.40094 0.44483 0.83497 0.0
H894 H 0.44101 0.41026 0.81642 0.0
H895 H 0.46866 0.38986 0.88519 0.0
H896 H 0.33882 0.49667 0.99655 0.0
H897 H 0.34314 0.49136 0.90057 0.0
H898 H 0.36758 0.47039 0.82408 0.0
H899 H 0.40292 0.44084 0.79361 0.0
Mn900 Mn 0.36263 0.62834 0.85101 0.0
Mn901 Mn 0.31054 0.64682 0.77847 0.0
C902 C 0.34563 0.6008 0.78633 0.0
C903 C 0.40741 0.62494 0.86883 0.0
C904 C 0.30713 0.63287 0.89337 0.0
O905 O 0.36229 0.66846 0.85873 0.0
O906 O 0.32982 0.67836 0.80165 0.0
C907 C 0.33827 0.66951 0.68737 0.0
N908 N 0.32093 0.65184 0.70739 0.0
C909 C 0.31127 0.63486 0.62181 0.0
C910 C 0.32882 0.65307 0.60023 0.0
C911 C 0.34249 0.67036 0.6332 0.0
C912 C 0.30798 0.63485 0.6761 0.0
H913 H 0.34888 0.68279 0.71257 0.0
C914 C 0.34851 0.68496 0.83252 0.0
O915 O 0.38977 0.62401 0.90512 0.0
O916 O 0.39917 0.62901 0.82141 0.0
N917 N 0.29096 0.61743 0.75295 0.0
C918 C 0.27625 0.59984 0.78025 0.0
C919 C 0.26201 0.58054 0.75318 0.0
C920 C 0.26293 0.57963 0.69838 0.0
C921 C 0.2782 0.59796 0.67112 0.0
C922 C 0.29196 0.61674 0.7002 0.0
H923 H 0.27535 0.60055 0.82234 0.0
O924 O 0.35889 0.59095 0.82502 0.0
O925 O 0.34195 0.6258 0.7892 0.0
O926 O 0.33075 0.62532 0.89764 0.0
O927 O 0.29746 0.64184 0.8509 0.0
C928 C 0.28074 0.59799 0.61632 0.0
C929 C 0.29731 0.6164 0.59169 0.0
H930 H 0.33222 0.65369 0.5585 0.0
H931 H 0.35627 0.68427 0.61689 0.0
H932 H 0.25032 0.56643 0.7745 0.0
H933 H 0.252 0.56465 0.67767 0.0
H934 H 0.27039 0.58366 0.59281 0.0
H935 H 0.29948 0.61592 0.54963 0.0
Mn936 Mn 0.11382 0.60252 0.60268 0.0
Mn937 Mn 0.09134 0.55249 0.52889 0.0
C938 C 0.13914 0.58512 0.53521 0.0
C939 C 0.11956 0.64676 0.62248 0.0
C940 C 0.10798 0.54652 0.64178 0.0
O941 O 0.07397 0.60399 0.61415 0.0
O942 O 0.06125 0.57256 0.55708 0.0
C943 C 0.06737 0.583 0.44268 0.0
N944 N 0.08483 0.56457 0.45934 0.0
C945 C 0.09967 0.55676 0.37149 0.0
C946 C 0.08164 0.57545 0.35336 0.0
C947 C 0.06551 0.58871 0.38916 0.0
C948 C 0.10066 0.55191 0.42528 0.0
H949 H 0.05504 0.59337 0.47007 0.0
C950 C 0.05624 0.59114 0.5894 0.0
O951 O 0.12062 0.62863 0.65781 0.0
O952 O 0.11414 0.63937 0.57505 0.0
N953 N 0.11917 0.53231 0.49867 0.0
C954 C 0.13684 0.51634 0.52283 0.0
C955 C 0.15502 0.50223 0.49266 0.0
C956 C 0.1548 0.50463 0.43801 0.0
C957 C 0.13644 0.52121 0.41401 0.0
C958 C 0.11872 0.53469 0.44608 0.0
H959 H 0.13707 0.51439 0.56479 0.0
O960 O 0.15041 0.59738 0.57365 0.0
O961 O 0.11401 0.58275 0.53953 0.0
O962 O 0.11625 0.56985 0.647 0.0
O963 O 0.09783 0.53775 0.5996 0.0
C964 C 0.13543 0.52537 0.35964 0.0
C965 C 0.11711 0.54319 0.33841 0.0
H966 H 0.08028 0.58004 0.31215 0.0
H967 H 0.05174 0.60336 0.37554 0.0
H968 H 0.16919 0.48954 0.51148 0.0
H969 H 0.16898 0.49385 0.41491 0.0
H970 H 0.14896 0.51531 0.33388 0.0
H971 H 0.11685 0.54659 0.29666 0.0
Mn972 Mn 0.13466 0.35932 0.35456 0.0
Mn973 Mn 0.18487 0.33892 0.27943 0.0
C974 C 0.15189 0.38637 0.28965 0.0
C975 C 0.08997 0.36384 0.37068 0.0
C976 C 0.19082 0.35392 0.39348 0.0
O977 O 0.1337 0.31941 0.3635 0.0
O978 O 0.16527 0.30802 0.30579 0.0
C979 C 0.1538 0.31648 0.19234 0.0
N980 N 0.17245 0.33354 0.2097 0.0
C981 C 0.17943 0.35016 0.12284 0.0
C982 C 0.16054 0.33253 0.10396 0.0
C983 C 0.14757 0.31572 0.13893 0.0
C984 C 0.18474 0.3501 0.17651 0.0
H985 H 0.14359 0.3037 0.21911 0.0
C986 C 0.14678 0.30226 0.3378 0.0
O987 O 0.10714 0.36479 0.40807 0.0
O988 O 0.09867 0.35923 0.32395 0.0
N989 N 0.20468 0.36741 0.25071 0.0
C990 C 0.22071 0.38473 0.27571 0.0
C991 C 0.23459 0.40346 0.24649 0.0
C992 C 0.23188 0.40416 0.19191 0.0
C993 C 0.21523 0.38617 0.16703 0.0
C994 C 0.20201 0.36785 0.19817 0.0
H995 H 0.22288 0.38428 0.31761 0.0
O996 O 0.13933 0.39655 0.32885 0.0
O997 O 0.15471 0.36122 0.29209 0.0
O998 O 0.16722 0.36138 0.39996 0.0
O999 O 0.19958 0.34469 0.3504 0.0
C1000 C 0.21072 0.38612 0.11273 0.0
C1001 C 0.19275 0.36819 0.09068 0.0
H1002 H 0.15557 0.332 0.06284 0.0
H1003 H 0.13275 0.30228 0.12475 0.0
H1004 H 0.24733 0.41736 0.26599 0.0
H1005 H 0.24247 0.41877 0.16956 0.0
H1006 H 0.22057 0.40013 0.0877 0.0
H1007 H 0.18902 0.36872 0.04905 0.0
Mn1008 Mn 0.39152 0.60517 0.40882 0.0
Mn1009 Mn 0.42056 0.5544 0.46993 0.0
C1010 C 0.37334 0.58708 0.48445 0.0
C1011 C 0.38533 0.65009 0.3972 0.0
C1012 C 0.39384 0.55009 0.36423 0.0
O1013 O 0.42936 0.60652 0.38187 0.0
O1014 O 0.44763 0.5755 0.43372 0.0
C1015 C 0.45091 0.58375 0.5495 0.0
N1016 N 0.43261 0.56524 0.53734 0.0
C1017 C 0.42461 0.5563 0.62824 0.0
C1018 C 0.44361 0.57502 0.64168 0.0
C1019 C 0.45675 0.58887 0.60212 0.0
C1020 C 0.41966 0.552 0.57512 0.0
H1021 H 0.46078 0.59471 0.51927 0.0
C1022 C 0.44927 0.59413 0.40011 0.0
O1023 O 0.3798 0.63331 0.36072 0.0
O1024 O 0.39526 0.64086 0.44012 0.0
N1025 N 0.3957 0.53334 0.5072 0.0
C1026 C 0.37628 0.51773 0.48788 0.0
C1027 C 0.36066 0.50312 0.52246 0.0
C1028 C 0.36517 0.5047 0.57649 0.0
C1029 C 0.38523 0.52095 0.59549 0.0
C1030 C 0.40028 0.53492 0.55913 0.0
H1031 H 0.3727 0.51646 0.44643 0.0
O1032 O 0.35856 0.59989 0.45186 0.0
O1033 O 0.39728 0.58435 0.46929 0.0
O1034 O 0.3843 0.57317 0.36367 0.0
O1035 O 0.40822 0.54127 0.40123 0.0
C1036 C 0.39037 0.52443 0.64911 0.0
C1037 C 0.40995 0.5422 0.66549 0.0
H1038 H 0.44803 0.57917 0.68223 0.0
H1039 H 0.47123 0.60356 0.61219 0.0
H1040 H 0.34514 0.49072 0.50751 0.0
H1041 H 0.35292 0.49359 0.60306 0.0
H1042 H 0.37896 0.514 0.67814 0.0
H1043 H 0.41331 0.54515 0.70684 0.0
Mn1044 Mn 0.14618 0.64199 0.16444 0.0
Mn1045 Mn 0.1981 0.66235 0.23497 0.0
C1046 C 0.16072 0.61793 0.23656 0.0
C1047 C 0.10161 0.63985 0.14464 0.0
C1048 C 0.20213 0.64193 0.12409 0.0
O1049 O 0.1484 0.68128 0.14775 0.0
O1050 O 0.1802 0.69322 0.20472 0.0
C1051 C 0.17014 0.69037 0.31966 0.0
N1052 N 0.18709 0.67123 0.30416 0.0
C1053 C 0.19395 0.65733 0.39293 0.0
C1054 C 0.17669 0.67699 0.40986 0.0
C1055 C 0.16466 0.69352 0.37304 0.0
C1056 C 0.19854 0.65503 0.33921 0.0
H1057 H 0.16075 0.70304 0.29148 0.0
C1058 C 0.16217 0.69869 0.17146 0.0
O1059 O 0.11962 0.63576 0.10998 0.0
O1060 O 0.10941 0.64619 0.19133 0.0
N1061 N 0.21617 0.63361 0.26704 0.0
C1062 C 0.23058 0.61428 0.24405 0.0
C1063 C 0.24348 0.59571 0.27543 0.0
C1064 C 0.24154 0.59727 0.33006 0.0
C1065 C 0.22658 0.61733 0.35284 0.0
C1066 C 0.21422 0.63532 0.31958 0.0
H1067 H 0.23225 0.61305 0.20211 0.0
O1068 O 0.14777 0.60638 0.1993 0.0
O1069 O 0.16588 0.64228 0.22759 0.0
O1070 O 0.17838 0.63471 0.12091 0.0
O1071 O 0.2117 0.65322 0.16439 0.0
C1072 C 0.22294 0.6198 0.40716 0.0
C1073 C 0.20646 0.63965 0.42717 0.0
H1074 H 0.17235 0.67943 0.45098 0.0
H1075 H 0.15117 0.70863 0.38577 0.0
H1076 H 0.25493 0.58023 0.25755 0.0
H1077 H 0.25139 0.58281 0.35411 0.0
H1078 H 0.23219 0.60614 0.43383 0.0
H1079 H 0.20329 0.64095 0.46891 0.0
Mn1080 Mn 0.10186 0.38552 0.91505 0.0
Mn1081 Mn 0.07191 0.4365 0.97296 0.0
C1082 C 0.11896 0.40394 0.99087 0.0
C1083 C 0.10802 0.34067 0.90585 0.0
C1084 C 0.10049 0.44021 0.86913 0.0
O1085 O 0.06467 0.38417 0.88527 0.0
O1086 O 0.04529 0.41543 0.9349 0.0
C1087 C 0.0398 0.4078 0.05054 0.0
N1088 N 0.0587 0.42588 0.03961 0.0
C1089 C 0.0663 0.43381 0.13104 0.0
C1090 C 0.04673 0.41547 0.14324 0.0
C1091 C 0.03346 0.40238 0.1028 0.0
C1092 C 0.07165 0.43853 0.07823 0.0
H1093 H 0.02984 0.39739 0.01964 0.0
C1094 C 0.04442 0.39672 0.90128 0.0
O1095 O 0.11433 0.35694 0.86895 0.0
O1096 O 0.09723 0.35033 0.94749 0.0
N1097 N 0.09636 0.45742 0.01172 0.0
C1098 C 0.11616 0.47287 0.99353 0.0
C1099 C 0.13186 0.48681 0.02909 0.0
C1100 C 0.1271 0.48466 0.08294 0.0
C1101 C 0.10665 0.46858 0.10076 0.0
C1102 C 0.09147 0.45538 0.06345 0.0
H1103 H 0.12003 0.47448 0.95222 0.0
O1104 O 0.1342 0.39098 0.95945 0.0
O1105 O 0.09516 0.40657 0.97452 0.0
O1106 O 0.10998 0.41712 0.86968 0.0
O1107 O 0.08552 0.44926 0.90497 0.0
C1108 C 0.10126 0.46452 0.1541 0.0
C1109 C 0.08116 0.44708 0.16923 0.0
H1110 H 0.04196 0.41104 0.1835 0.0
H1111 H 0.0185 0.38801 0.1119 0.0
H1112 H 0.1477 0.49907 0.01505 0.0
H1113 H 0.13946 0.49519 0.11026 0.0
H1114 H 0.1128 0.47431 0.18383 0.0
H1115 H 0.07753 0.44373 0.21037 0.0
Mn1116 Mn 0.35769 0.36248 0.65447 0.0
Mn1117 Mn 0.30863 0.33448 0.72191 0.0
C1118 C 0.33845 0.38432 0.72441 0.0
C1119 C 0.40246 0.36903 0.64344 0.0
C1120 C 0.30262 0.35583 0.61163 0.0
O1121 O 0.36055 0.32375 0.63485 0.0
O1122 O 0.33064 0.30647 0.69023 0.0
C1123 C 0.34004 0.30954 0.80566 0.0
N1124 N 0.32058 0.32631 0.79086 0.0
C1125 C 0.31255 0.33884 0.88006 0.0
C1126 C 0.33223 0.32142 0.89628 0.0
C1127 C 0.3461 0.30678 0.85888 0.0
C1128 C 0.30729 0.34068 0.82649 0.0
H1129 H 0.35105 0.29858 0.77703 0.0
C1130 C 0.34906 0.30421 0.65633 0.0
O1131 O 0.38606 0.37245 0.60516 0.0
O1132 O 0.3929 0.36131 0.68773 0.0
N1133 N 0.28667 0.36004 0.7551 0.0
C1134 C 0.26987 0.37757 0.73278 0.0
C1135 C 0.25505 0.39435 0.76476 0.0
C1136 C 0.2577 0.39298 0.81929 0.0
C1137 C 0.27516 0.37483 0.84138 0.0
C1138 C 0.2892 0.35841 0.80757 0.0
H1139 H 0.26784 0.37879 0.69091 0.0
O1140 O 0.351 0.39749 0.68896 0.0
O1141 O 0.3371 0.35937 0.71576 0.0
O1142 O 0.32542 0.36596 0.60821 0.0
O1143 O 0.29459 0.34304 0.6516 0.0
C1144 C 0.27971 0.37289 0.89552 0.0
C1145 C 0.29846 0.35498 0.91484 0.0
H1146 H 0.33716 0.31944 0.93724 0.0
H1147 H 0.36156 0.29356 0.87103 0.0
H1148 H 0.24171 0.40839 0.74741 0.0
H1149 H 0.24643 0.40615 0.8438 0.0
H1150 H 0.26925 0.38544 0.92259 0.0
H1151 H 0.30217 0.35405 0.95644 0.0
H1152 H 0.11169 0.0018 0.36017 0.0
H1153 H 0.10042 0.06962 0.26175 0.0
H1154 H 0.10411 0.04217 0.18401 0.0
H1155 H 0.10775 0.9985 0.14414 0.0
H1156 H 0.12065 0.93093 0.24268 0.0
H1157 H 0.1197 0.9588 0.31994 0.0
C1158 C 0.1102 0.01058 0.32172 0.0
C1159 C 0.10554 0.03764 0.31678 0.0
C1160 C 0.11274 0.99476 0.27711 0.0
C1161 C 0.10399 0.0488 0.26664 0.0
C1162 C 0.10605 0.03313 0.22213 0.0
C1163 C 0.11066 0.98991 0.18247 0.0
C1164 C 0.11399 0.96263 0.1875 0.0
C1165 C 0.11006 0.00603 0.22691 0.0
C1166 C 0.11806 0.95187 0.23748 0.0
C1167 C 0.11733 0.96776 0.28185 0.0
H1168 H 0.19508 0.85639 0.52272 0.0
H1169 H 0.25727 0.8495 0.63641 0.0
H1170 H 0.28997 0.85073 0.56676 0.0
H1171 H 0.30074 0.85102 0.47333 0.0
H1172 H 0.23825 0.8543 0.35962 0.0
H1173 H 0.20586 0.85736 0.42949 0.0
C1174 C 0.21581 0.85551 0.53231 0.0
C1175 C 0.22373 0.85297 0.58465 0.0
C1176 C 0.23445 0.85542 0.49202 0.0
C1177 C 0.25065 0.85144 0.5964 0.0
C1178 C 0.26936 0.85212 0.55661 0.0
C1179 C 0.28006 0.85272 0.46385 0.0
C1180 C 0.27194 0.85251 0.41135 0.0
C1181 C 0.26147 0.8537 0.50423 0.0
C1182 C 0.24503 0.85436 0.3997 0.0
C1183 C 0.22648 0.85611 0.43963 0.0
H1184 H 0.39063 0.99789 0.64292 0.0
H1185 H 0.39899 0.06277 0.75014 0.0
H1186 H 0.3972 0.03275 0.82395 0.0
H1187 H 0.39511 0.98815 0.85815 0.0
H1188 H 0.38493 0.92295 0.75252 0.0
H1189 H 0.3851 0.95305 0.67809 0.0
C1190 C 0.39199 0.0054 0.68245 0.0
C1191 C 0.39509 0.03248 0.691 0.0
C1192 C 0.39049 0.98803 0.72501 0.0
C1193 C 0.39653 0.042 0.74247 0.0
C1194 C 0.39555 0.02487 0.78476 0.0
C1195 C 0.39269 0.98052 0.81889 0.0
C1196 C 0.39019 0.95338 0.81085 0.0
C1197 C 0.39274 0.99786 0.77648 0.0
C1198 C 0.38679 0.94382 0.75977 0.0
C1199 C 0.38708 0.96099 0.71717 0.0
H1200 H 0.25175 0.13516 0.9009 0.0
H1201 H 0.1796 0.13188 0.98892 0.0
H1202 H 0.20424 0.13141 0.0704 0.0
H1203 H 0.24623 0.13539 0.11724 0.0
H1204 H 0.31847 0.13657 0.02941 0.0
H1205 H 0.29393 0.13423 0.9478 0.0
C1206 C 0.24146 0.13405 0.9379 0.0
C1207 C 0.21389 0.13379 0.93867 0.0
C1208 C 0.25577 0.13357 0.98489 0.0
C1209 C 0.20084 0.13204 0.98702 0.0
C1210 C 0.2149 0.13193 0.0338 0.0
C1211 C 0.25657 0.13488 0.08024 0.0
C1212 C 0.28409 0.13638 0.07947 0.0
C1213 C 0.24235 0.13323 0.03327 0.0
C1214 C 0.29726 0.13537 0.0312 0.0
C1215 C 0.28325 0.13417 0.98439 0.0
H1216 H 0.90254 0.95082 0.72382 0.0
H1217 H 0.90275 0.01419 0.61193 0.0
H1218 H 0.90024 0.04612 0.6831 0.0
H1219 H 0.89917 0.05597 0.77668 0.0
H1220 H 0.90162 0.99282 0.88893 0.0
H1221 H 0.90187 0.96073 0.81771 0.0
C1222 C 0.90181 0.97162 0.71491 0.0
C1223 C 0.90266 0.98012 0.66254 0.0
C1224 C 0.90093 0.98984 0.75601 0.0
C1225 C 0.90214 0.00714 0.65181 0.0
C1226 C 0.90069 0.02538 0.69248 0.0
C1227 C 0.89951 0.03517 0.7857 0.0
C1228 C 0.90017 0.02679 0.83814 0.0
C1229 C 0.90021 0.01694 0.74467 0.0
C1230 C 0.90109 -0.00022 0.84898 0.0
C1231 C 0.90122 0.98145 0.80828 0.0
H1232 H 0.74441 0.14365 0.40017 0.0
H1233 H 0.81503 0.13518 0.49179 0.0
H1234 H 0.78941 0.13777 0.57214 0.0
H1235 H 0.74711 0.14488 0.61661 0.0
H1236 H 0.67636 0.15113 0.52466 0.0
H1237 H 0.70184 0.14702 0.44451 0.0
C1238 C 0.75416 0.14215 0.43771 0.0
C1239 C 0.7816 0.1394 0.43988 0.0
C1240 C 0.73931 0.14346 0.48384 0.0
C1241 C 0.79391 0.1372 0.4889 0.0
C1242 C 0.7793 0.13885 0.53495 0.0
C1243 C 0.73729 0.14523 0.57903 0.0
C1244 C 0.70991 0.14849 0.57666 0.0
C1245 C 0.75202 0.14239 0.53293 0.0
C1246 C 0.69743 0.14859 0.52764 0.0
C1247 C 0.71198 0.1463 0.48171 0.0
H1248 H 0.59849 0.99746 0.36098 0.0
H1249 H 0.5878 0.93102 0.25864 0.0
H1250 H 0.58979 0.95971 0.1826 0.0
H1251 H 0.59391 0.00381 0.14479 0.0
H1252 H 0.60668 0.07002 0.24697 0.0
H1253 H 0.60487 0.04133 0.32286 0.0
C1254 C 0.59658 0.98931 0.32204 0.0
C1255 C 0.59292 0.96219 0.31557 0.0
C1256 C 0.59826 0.00586 0.27821 0.0
C1257 C 0.59074 0.95186 0.26476 0.0
C1258 C 0.59184 0.96824 0.22116 0.0
C1259 C 0.59641 0.01194 0.18363 0.0
C1260 C 0.60034 0.03905 0.18995 0.0
C1261 C 0.59555 0.99529 0.22737 0.0
C1262 C 0.60376 0.0492 0.24069 0.0
C1263 C 0.60258 0.03283 0.28432 0.0
H1264 H 0.75043 0.86671 0.87993 0.0
H1265 H 0.68519 0.83494 0.96634 0.0
H1266 H 0.70959 0.8392 0.04786 0.0
H1267 H 0.74929 0.85203 0.09479 0.0
H1268 H 0.81418 0.88577 0.00976 0.0
H1269 H 0.79004 0.88117 0.92809 0.0
C1270 C 0.7418 0.86059 0.91667 0.0
C1271 C 0.71627 0.85039 0.91747 0.0
C1272 C 0.75571 0.86375 0.96377 0.0
C1273 C 0.70494 0.84284 0.96516 0.0
C1274 C 0.7188 0.84532 0.01172 0.0
C1275 C 0.75811 0.85853 0.05848 0.0
C1276 C 0.7835 0.86918 0.05861 0.0
C1277 C 0.74415 0.85587 0.01157 0.0
C1278 C 0.79456 0.87763 0.01105 0.0
C1279 C 0.78085 0.87484 0.96412 0.0
H1280 H 0.60765 0.44406 0.71606 0.0
H1281 H 0.61336 0.50695 0.60377 0.0
H1282 H 0.6177 0.53881 0.67454 0.0
H1283 H 0.61729 0.54906 0.76794 0.0
H1284 H 0.60803 0.48675 0.88052 0.0
H1285 H 0.6078 0.45433 0.80995 0.0
C1286 C 0.61018 0.4647 0.70707 0.0
C1287 C 0.61031 0.47311 0.65469 0.0
C1288 C 0.6119 0.483 0.74799 0.0
C1289 C 0.61317 0.49997 0.64371 0.0
C1290 C 0.61565 0.5182 0.68416 0.0
C1291 C 0.61559 0.52835 0.77715 0.0
C1292 C 0.61283 0.52031 0.82944 0.0
C1293 C 0.61468 0.50997 0.7364 0.0
C1294 C 0.61017 0.49344 0.8406 0.0
C1295 C 0.61002 0.47492 0.80028 0.0
H1296 H 0.80237 0.35274 0.95113 0.0
H1297 H 0.74006 0.34636 0.83775 0.0
H1298 H 0.70735 0.35003 0.90767 0.0
H1299 H 0.69677 0.35381 0.00144 0.0
H1300 H 0.75962 0.35574 0.11442 0.0
H1301 H 0.79196 0.35521 0.0441 0.0
C1302 C 0.78161 0.35242 0.94163 0.0
C1303 C 0.77357 0.34963 0.88938 0.0
C1304 C 0.76311 0.35371 0.98196 0.0
C1305 C 0.74666 0.3486 0.87771 0.0
C1306 C 0.72802 0.3507 0.91763 0.0
C1307 C 0.71756 0.35437 0.01053 0.0
C1308 C 0.72584 0.35516 0.06297 0.0
C1309 C 0.73605 0.35313 0.96993 0.0
C1310 C 0.75279 0.35528 0.07438 0.0
C1311 C 0.77127 0.35495 0.03422 0.0
H1312 H 0.88433 0.50136 0.3438 0.0
H1313 H 0.88532 0.43725 0.23381 0.0
H1314 H 0.88701 0.46828 0.16115 0.0
H1315 H 0.89037 0.51383 0.12901 0.0
H1316 H 0.8866 0.57772 0.23944 0.0
H1317 H 0.88368 0.54666 0.31151 0.0
C1318 C 0.88472 0.49421 0.30391 0.0
C1319 C 0.88487 0.46709 0.29422 0.0
C1320 C 0.88527 0.51214 0.26231 0.0
C1321 C 0.88509 0.45808 0.2423 0.0
C1322 C 0.88619 0.4758 0.20071 0.0
C1323 C 0.88873 0.52089 0.16884 0.0
C1324 C 0.88884 0.54801 0.17882 0.0
C1325 C 0.88661 0.50289 0.21026 0.0
C1326 C 0.88643 0.55692 0.23061 0.0
C1327 C 0.88488 0.53918 0.27195 0.0
H1328 H 0.75473 0.64736 0.38805 0.0
H1329 H 0.68716 0.64017 0.48855 0.0
H1330 H 0.71521 0.64279 0.56544 0.0
H1331 H 0.75869 0.64906 0.60454 0.0
H1332 H 0.82692 0.65265 0.50529 0.0
H1333 H 0.79899 0.64946 0.42775 0.0
C1334 C 0.74625 0.64616 0.42681 0.0
C1335 C 0.71891 0.64366 0.43253 0.0
C1336 C 0.76259 0.64715 0.47115 0.0
C1337 C 0.70817 0.64191 0.48301 0.0
C1338 C 0.72417 0.64355 0.52709 0.0
C1339 C 0.76745 0.64895 0.56596 0.0
C1340 C 0.79477 0.65123 0.56063 0.0
C1341 C 0.75136 0.64646 0.52167 0.0
C1342 C 0.80589 0.65082 0.51038 0.0
C1343 C 0.78993 0.6491 0.46602 0.0
H1344 H 0.3904 0.49643 0.14262 0.0
H1345 H 0.3929 0.4268 0.23845 0.0
H1346 H 0.39134 0.45357 0.31719 0.0
H1347 H 0.39229 0.49686 0.35913 0.0
H1348 H 0.38727 0.56654 0.26403 0.0
H1349 H 0.38651 0.53973 0.18501 0.0
C1350 C 0.39037 0.48717 0.18076 0.0
C1351 C 0.39196 0.45972 0.18465 0.0
C1352 C 0.38908 0.50268 0.22611 0.0
C1353 C 0.3916 0.44792 0.23432 0.0
C1354 C 0.39083 0.4632 0.27946 0.0
C1355 C 0.39075 0.50612 0.32112 0.0
C1356 C 0.39004 0.53359 0.31741 0.0
C1357 C 0.39001 0.4906 0.27585 0.0
C1358 C 0.38774 0.54538 0.26794 0.0
C1359 C 0.38747 0.53008 0.22268 0.0
H1360 H 0.25561 0.63917 0.11732 0.0
H1361 H 0.185 0.63739 0.02408 0.0
H1362 H 0.21095 0.63407 0.94469 0.0
H1363 H 0.25375 0.63295 0.9009 0.0
H1364 H 0.32442 0.63285 0.99396 0.0
H1365 H 0.29849 0.63545 0.07364 0.0
C1366 C 0.24596 0.63798 0.07963 0.0
C1367 C 0.21845 0.63859 0.07678 0.0
C1368 C 0.261 0.63573 0.03382 0.0
C1369 C 0.20619 0.63679 0.02758 0.0
C1370 C 0.22099 0.635 0.98198 0.0
C1371 C 0.26344 0.6334 0.93862 0.0
C1372 C 0.29094 0.63279 0.94132 0.0
C1373 C 0.24842 0.63463 0.98454 0.0
C1374 C 0.30323 0.63315 0.99063 0.0
C1375 C 0.28843 0.63476 0.03635 0.0
H1376 H 0.1004 0.49335 0.86299 0.0
H1377 H 0.11116 0.42344 0.77038 0.0
H1378 H 0.11465 0.44996 0.69129 0.0
H1379 H 0.11242 0.49314 0.64771 0.0
H1380 H 0.10397 0.5629 0.74188 0.0
H1381 H 0.10183 0.53638 0.82074 0.0
C1382 C 0.10371 0.48396 0.82554 0.0
C1383 C 0.10536 0.45653 0.82252 0.0
C1384 C 0.10597 0.4993 0.78032 0.0
C1385 C 0.10994 0.44459 0.77379 0.0
C1386 C 0.11178 0.45972 0.72846 0.0
C1387 C 0.11023 0.50245 0.68555 0.0
C1388 C 0.10824 0.52987 0.68891 0.0
C1389 C 0.10946 0.48709 0.73113 0.0
C1390 C 0.10569 0.54178 0.73824 0.0
C1391 C 0.10436 0.52665 0.78343 0.0
H1392 H 0.24409 0.35912 0.39441 0.0
H1393 H 0.17683 0.35115 0.49557 0.0
H1394 H 0.20534 0.35143 0.57201 0.0
H1395 H 0.2494 0.3528 0.61025 0.0
H1396 H 0.31664 0.3631 0.50992 0.0
H1397 H 0.28813 0.36329 0.43326 0.0
C1398 C 0.23572 0.3575 0.4332 0.0
C1399 C 0.20843 0.35502 0.43926 0.0
C1400 C 0.2522 0.35814 0.4772 0.0
C1401 C 0.1978 0.3532 0.48982 0.0
C1402 C 0.21407 0.35328 0.5336 0.0
C1403 C 0.2578 0.35519 0.57163 0.0
C1404 C 0.28508 0.35781 0.56582 0.0
C1405 C 0.2413 0.3556 0.52776 0.0
C1406 C 0.29566 0.36117 0.51552 0.0
C1407 C 0.27939 0.36115 0.4716 0.0
H1408 H 0.12685 0.18054 0.3198 0.0
H1409 H 0.08875 0.19347 0.46788 0.0
H1410 H 0.09809 0.24054 0.46178 0.0
H1411 H 0.11854 0.27789 0.41516 0.0
H1412 H 0.15891 0.26324 0.26968 0.0
H1413 H 0.14729 0.21714 0.2742 0.0
C1414 C 0.12033 0.19369 0.3505 0.0
C1415 C 0.10698 0.18361 0.39398 0.0
C1416 C 0.12639 0.22047 0.34743 0.0
C1417 C 0.09901 0.20082 0.43386 0.0
C1418 C 0.1044 0.22771 0.43046 0.0
C1419 C 0.12473 0.2646 0.38447 0.0
C1420 C 0.13962 0.27414 0.34226 0.0
C1421 C 0.11833 0.23775 0.3876 0.0
C1422 C 0.14759 0.25656 0.30291 0.0
C1423 C 0.14089 0.23011 0.30525 0.0
H1424 H 0.98014 0.88322 0.65054 0.0
H1425 H 3e-05 0.932 0.51828 0.0
H1426 H 0.0458 0.91951 0.52627 0.0
H1427 H 0.08058 0.89477 0.57027 0.0
H1428 H 0.06157 0.84736 0.70449 0.0
H1429 H 0.01527 0.85909 0.69588 0.0
C1430 C 0.99448 0.89121 0.6236 0.0
C1431 C 0.98645 0.90856 0.58397 0.0
C1432 C 0.02104 0.88404 0.6284 0.0
C1433 C 0.00545 0.9187 0.54945 0.0
C1434 C 0.03175 0.91149 0.55373 0.0
C1435 C 0.06625 0.88685 0.59732 0.0
C1436 C 0.07442 0.87011 0.63764 0.0
C1437 C 0.03976 0.89411 0.59287 0.0
C1438 C 0.05572 0.86028 0.67296 0.0
C1439 C 0.02925 0.86701 0.66817 0.0
H1440 H 0.36181 0.80745 0.80969 0.0
H1441 H 0.40691 0.79666 0.95066 0.0
H1442 H 0.39943 0.74935 0.94672 0.0
H1443 H 0.37876 0.71102 0.90451 0.0
H1444 H 0.3322 0.72294 0.76537 0.0
H1445 H 0.34158 0.76954 0.76755 0.0
C1446 C 0.37019 0.79472 0.83926 0.0
C1447 C 0.3849 0.80551 0.88022 0.0
C1448 C 0.36542 0.76763 0.83738 0.0
C1449 C 0.39546 0.7888 0.91862 0.0
C1450 C 0.39117 0.76173 0.91649 0.0
C1451 C 0.37074 0.72381 0.87467 0.0
C1452 C 0.35471 0.71335 0.83512 0.0
C1453 C 0.37595 0.75092 0.87628 0.0
C1454 C 0.34444 0.73031 0.79671 0.0
C1455 C 0.34983 0.75708 0.79768 0.0
H1456 H 0.42413 0.11942 0.08549 0.0
H1457 H 0.4381 0.15796 0.23284 0.0
H1458 H 0.48525 0.14901 0.22489 0.0
H1459 H 0.52239 0.12887 0.1764 0.0
H1460 H 0.50618 0.08871 0.03109 0.0
H1461 H 0.46016 0.0996 0.03829 0.0
C1462 C 0.43746 0.1261 0.11575 0.0
C1463 C 0.42768 0.13944 0.15948 0.0
C1464 C 0.46422 0.12039 0.11152 0.0
C1465 C 0.44521 0.14771 0.1986 0.0
C1466 C 0.47214 0.14252 0.19415 0.0
C1467 C 0.50877 0.12254 0.1464 0.0
C1468 C 0.51792 0.10789 0.10345 0.0
C1469 C 0.48187 0.12864 0.15089 0.0
C1470 C 0.49989 0.09981 0.06491 0.0
C1471 C 0.47344 0.1061 0.06875 0.0
H1472 H 0.12537 0.72103 0.10673 0.0
H1473 H 0.18452 0.7401 0.2219 0.0
H1474 H 0.17211 0.78592 0.21835 0.0
H1475 H 0.14466 0.82089 0.18355 0.0
H1476 H 0.08726 0.80352 0.06474 0.0
H1477 H 0.09854 0.75682 0.06932 0.0
C1478 C 0.13567 0.73522 0.13073 0.0
C1479 C 0.15582 0.72689 0.16453 0.0
C1480 C 0.12855 0.76188 0.12847 0.0
C1481 C 0.16895 0.74571 0.19533 0.0
C1482 C 0.1618 0.77204 0.19366 0.0
C1483 C 0.13438 0.80683 0.15916 0.0
C1484 C 0.11495 0.81548 0.12447 0.0
C1485 C 0.14154 0.78031 0.16076 0.0
C1486 C 0.10219 0.79719 0.09213 0.0
C1487 C 0.10871 0.77054 0.09454 0.0
H1488 H 0.51663 0.86906 0.3399 0.0
H1489 H 0.50014 0.91372 0.47952 0.0
H1490 H 0.45398 0.90222 0.47348 0.0
H1491 H 0.41777 0.88045 0.42785 0.0
H1492 H 0.43325 0.83774 0.28578 0.0
H1493 H 0.4801 0.84728 0.2938 0.0
C1494 C 0.50295 0.87624 0.36902 0.0
C1495 C 0.512 0.8923 0.40995 0.0
C1496 C 0.47614 0.86981 0.36508 0.0
C1497 C 0.49387 0.90149 0.44725 0.0
C1498 C 0.46737 0.89484 0.44405 0.0
C1499 C 0.43145 0.87298 0.39899 0.0
C1500 C 0.4221 0.85829 0.35653 0.0
C1501 C 0.45825 0.87911 0.40309 0.0
C1502 C 0.43999 0.84908 0.31896 0.0
C1503 C 0.46679 0.85457 0.32343 0.0
H1504 H 0.39159 0.19553 0.57173 0.0
H1505 H 0.36445 0.17086 0.72369 0.0
H1506 H 0.35053 0.2155 0.74332 0.0
H1507 H 0.34494 0.26105 0.71695 0.0
H1508 H 0.37379 0.28715 0.56736 0.0
H1509 H 0.3881 0.24236 0.54706 0.0
C1510 C 0.38277 0.2 0.60922 0.0
C1511 C 0.37898 0.17988 0.64611 0.0
C1512 C 0.37498 0.22587 0.62055 0.0
C1513 C 0.36766 0.18597 0.69464 0.0
C1514 C 0.35958 0.21148 0.70587 0.0
C1515 C 0.35433 0.25701 0.67983 0.0
C1516 C 0.35808 0.27736 0.64354 0.0
C1517 C 0.36293 0.23149 0.66898 0.0
C1518 C 0.37064 0.2718 0.59594 0.0
C1519 C 0.3788 0.24621 0.58433 0.0
H1520 H 0.07378 0.11549 0.93648 0.0
H1521 H 0.05871 0.15546 0.79113 0.0
H1522 H 0.01184 0.14518 0.79859 0.0
H1523 H 0.9753 0.12335 0.84576 0.0
H1524 H 0.99251 0.08185 0.98909 0.0
H1525 H 0.03823 0.09409 0.98261 0.0
C1526 C 0.06025 0.12222 0.90662 0.0
C1527 C 0.06966 0.13633 0.86354 0.0
C1528 C 0.03364 0.11571 0.91049 0.0
C1529 C 0.05189 0.14464 0.82489 0.0
C1530 C 0.02511 0.13867 0.82903 0.0
C1531 C 0.98907 0.11699 0.87547 0.0
C1532 C 0.98027 0.10157 0.91763 0.0
C1533 C 0.01578 0.12394 0.87147 0.0
C1534 C 0.99851 0.09352 0.95583 0.0
C1535 C 0.02479 0.1006 0.95243 0.0
H1536 H 0.85213 0.7532 0.7036 0.0
H1537 H 0.88419 0.72293 0.55982 0.0
H1538 H 0.89976 0.76695 0.53665 0.0
H1539 H 0.90354 0.81433 0.55722 0.0
H1540 H 0.87359 0.84294 0.70432 0.0
H1541 H 0.8583 0.79911 0.72655 0.0
C1542 C 0.86252 0.75614 0.66715 0.0
C1543 C 0.86679 0.73484 0.6333 0.0
C1544 C 0.87198 0.78119 0.65487 0.0
C1545 C 0.88059 0.73903 0.58651 0.0
C1546 C 0.88951 0.76417 0.57329 0.0
C1547 C 0.89387 0.81088 0.59429 0.0
C1548 C 0.88964 0.83191 0.62896 0.0
C1549 C 0.88528 0.78544 0.6072 0.0
C1550 C 0.87717 0.82713 0.67695 0.0
C1551 C 0.86828 0.80208 0.68965 0.0
H1552 H 0.92252 0.10505 0.42836 0.0
H1553 H 0.93611 0.14814 0.28603 0.0
H1554 H 0.98338 0.14032 0.29393 0.0
H1555 H 0.02097 0.12104 0.34178 0.0
H1556 H 0.00605 0.07592 0.48147 0.0
H1557 H 0.95936 0.08469 0.47391 0.0
C1558 C 0.93583 0.11286 0.39919 0.0
C1559 C 0.92587 0.12737 0.35701 0.0
C1560 C 0.96282 0.10784 0.4034 0.0
C1561 C 0.94332 0.13699 0.31906 0.0
C1562 C 0.97035 0.13251 0.32354 0.0
C1563 C 0.00749 0.11314 0.37051 0.0
C1564 C 0.01715 0.0979 0.41217 0.0
C1565 C 0.98036 0.11793 0.3656 0.0
C1566 C 0.9993 0.08764 0.44883 0.0
C1567 C 0.97251 0.09269 0.44471 0.0
H1568 H 0.65386 0.26508 0.20939 0.0
H1569 H 0.62983 0.29017 0.0557 0.0
H1570 H 0.61178 0.24641 0.03837 0.0
H1571 H 0.60409 0.20062 0.06661 0.0
H1572 H 0.62663 0.17723 0.22244 0.0
H1573 H 0.64353 0.22108 0.23955 0.0
C1574 C 0.64466 0.26109 0.17204 0.0
C1575 C 0.64343 0.2808 0.1337 0.0
C1576 C 0.63385 0.23627 0.16294 0.0
C1577 C 0.63113 0.27529 0.0858 0.0
C1578 C 0.62078 0.25031 0.07593 0.0
C1579 C 0.61241 0.20524 0.1045 0.0
C1580 C 0.6142 0.18564 0.14311 0.0
C1581 C 0.62213 0.2306 0.11421 0.0
C1582 C 0.62499 0.19192 0.19204 0.0
C1583 C 0.63481 0.21696 0.20181 0.0
H1584 H 0.55584 0.84948 0.79995 0.0
H1585 H 0.58314 0.87902 0.94854 0.0
H1586 H 0.53892 0.89295 0.97063 0.0
H1587 H 0.49297 0.89757 0.94777 0.0
H1588 H 0.46416 0.86674 0.80159 0.0
H1589 H 0.50863 0.85267 0.77835 0.0
C1590 C 0.55203 0.8588 0.83727 0.0
C1591 C 0.57275 0.86326 0.87245 0.0
C1592 C 0.5264 0.86674 0.84999 0.0
C1593 C 0.56756 0.87533 0.92071 0.0
C1594 C 0.54228 0.88341 0.93338 0.0
C1595 C 0.49634 0.88788 0.91067 0.0
C1596 C 0.47534 0.88339 0.8763 0.0
C1597 C 0.52165 0.87941 0.89819 0.0
C1598 C 0.48006 0.87047 0.8287 0.0
C1599 C 0.50544 0.8624 0.81544 0.0
H1600 H 0.84565 0.24998 0.77432 0.0
H1601 H 0.86568 0.28324 0.9241 0.0
H1602 H 0.88195 0.24039 0.95337 0.0
H1603 H 0.88987 0.19315 0.9361 0.0
H1604 H 0.8714 0.16167 0.7838 0.0
H1605 H 0.85548 0.20436 0.75567 0.0
C1606 C 0.8535 0.24797 0.81347 0.0
C1607 C 0.85422 0.26977 0.84711 0.0
C1608 C 0.86331 0.22361 0.82944 0.0
C1609 C 0.86482 0.26675 0.89746 0.0
C1610 C 0.87415 0.24227 0.91417 0.0
C1611 C 0.88257 0.19573 0.89666 0.0
C1612 C 0.88177 0.1742 0.86219 0.0
C1613 C 0.87348 0.22053 0.88043 0.0
C1614 C 0.87228 0.17786 0.81116 0.0
C1615 C 0.86305 0.20226 0.79502 0.0
H1616 H 0.5701 0.12046 0.58714 0.0
H1617 H 0.55478 0.15885 0.73406 0.0
H1618 H 0.50808 0.14765 0.72675 0.0
H1619 H 0.47163 0.12618 0.67844 0.0
H1620 H 0.48904 0.08588 0.53398 0.0
H1621 H 0.53474 0.09853 0.5408 0.0
C1622 C 0.55655 0.12659 0.61745 0.0
C1623 C 0.56583 0.14067 0.66078 0.0
C1624 C 0.53003 0.11957 0.6136 0.0
C1625 C 0.54806 0.14808 0.70011 0.0
C1626 C 0.52138 0.14163 0.69599 0.0
C1627 C 0.48545 0.12018 0.64853 0.0
C1628 C 0.47672 0.10507 0.6058 0.0
C1629 C 0.51213 0.12724 0.65293 0.0
C1630 C 0.49501 0.09736 0.56753 0.0
C1631 C 0.52126 0.10467 0.57119 0.0
H1632 H 0.64931 0.73807 0.29173 0.0
H1633 H 0.63018 0.71088 0.44657 0.0
H1634 H 0.61267 0.75442 0.46841 0.0
H1635 H 0.60348 0.80057 0.44298 0.0
H1636 H 0.62057 0.8254 0.28531 0.0
H1637 H 0.63775 0.78215 0.26488 0.0
C1638 C 0.64132 0.74153 0.33033 0.0
C1639 C 0.64127 0.72131 0.36758 0.0
C1640 C 0.6307 0.76615 0.34193 0.0
C1641 C 0.63053 0.72617 0.41721 0.0
C1642 C 0.62049 0.75103 0.42965 0.0
C1643 C 0.61073 0.79639 0.40406 0.0
C1644 C 0.61081 0.81626 0.36582 0.0
C1645 C 0.62049 0.77121 0.39223 0.0
C1646 C 0.62022 0.81052 0.31551 0.0
C1647 C 0.63019 0.7858 0.30377 0.0
H1648 H 0.94029 0.87362 0.19512 0.0
H1649 H 0.91664 0.91453 0.05507 0.0
H1650 H 0.96219 0.92482 0.03562 0.0
H1651 H 0.00839 0.92129 0.05632 0.0
H1652 H 0.03356 0.87888 0.19345 0.0
H1653 H 0.98766 0.87015 0.21619 0.0
C1654 C 0.94518 0.88483 0.16048 0.0
C1655 C 0.92515 0.89321 0.12648 0.0
C1656 C 0.97159 0.89039 0.14896 0.0
C1657 C 0.9317 0.90768 0.08167 0.0
C1658 C 0.95774 0.91364 0.07053 0.0
C1659 C 0.00399 0.91026 0.09147 0.0
C1660 C 0.02443 0.90082 0.12318 0.0
C1661 C 0.97779 0.90494 0.10365 0.0
C1662 C 0.0182 0.88635 0.16826 0.0
C1663 C 0.99197 0.88135 0.18128 0.0
H1664 H 0.66426 0.74868 0.78472 0.0
H1665 H 0.63089 0.77787 0.92838 0.0
H1666 H 0.61873 0.73308 0.95334 0.0
H1667 H 0.61758 0.68556 0.93378 0.0
H1668 H 0.64985 0.65756 0.78815 0.0
H1669 H 0.66234 0.70213 0.76451 0.0
C1670 C 0.65443 0.74537 0.82169 0.0
C1671 C 0.64865 0.76666 0.85476 0.0
C1672 C 0.64718 0.71977 0.8353 0.0
C1673 C 0.6356 0.76187 0.90218 0.0
C1674 C 0.62864 0.73626 0.91645 0.0
C1675 C 0.62729 0.68925 0.89684 0.0
C1676 C 0.63278 0.66826 0.86278 0.0
C1677 C 0.63429 0.71506 0.88322 0.0
C1678 C 0.64532 0.67335 0.81501 0.0
C1679 C 0.65254 0.69883 0.80148 0.0
H1680 H 0.49622 0.41391 0.0422 0.0
H1681 H 0.47119 0.37619 0.18465 0.0
H1682 H 0.51684 0.36499 0.20491 0.0
H1683 H 0.56377 0.36539 0.18106 0.0
H1684 H 0.58774 0.40119 0.03594 0.0
H1685 H 0.5424 0.41357 0.01769 0.0
C1686 C 0.50065 0.40334 0.07788 0.0
C1687 C 0.48027 0.39601 0.11199 0.0
C1688 C 0.52672 0.3965 0.0886 0.0
C1689 C 0.48648 0.38206 0.15771 0.0
C1690 C 0.51256 0.37565 0.16928 0.0
C1691 C 0.55904 0.37591 0.14546 0.0
C1692 C 0.57908 0.38238 0.10988 0.0
C1693 C 0.53283 0.38266 0.13483 0.0
C1694 C 0.57267 0.39588 0.06382 0.0
C1695 C 0.54676 0.40303 0.05342 0.0
H1696 H 0.83176 0.23705 0.28221 0.0
H1697 H 0.86811 0.21304 0.42678 0.0
H1698 H 0.88154 0.25848 0.44352 0.0
H1699 H 0.88259 0.30508 0.4168 0.0
H1700 H 0.84797 0.32773 0.26958 0.0
H1701 H 0.83446 0.28253 0.25389 0.0
C1702 C 0.8426 0.24165 0.31748 0.0
C1703 C 0.84877 0.22169 0.35336 0.0
C1704 C 0.8507 0.26753 0.32617 0.0
C1705 C 0.8631 0.22805 0.39854 0.0
C1706 C 0.87077 0.25401 0.4081 0.0
C1707 C 0.8722 0.30006 0.38118 0.0
C1708 C 0.86625 0.31973 0.34442 0.0
C1709 C 0.86468 0.27391 0.37212 0.0
C1710 C 0.85288 0.31295 0.29838 0.0
C1711 C 0.84505 0.28713 0.28946 0.0
H1712 H 0.93488 0.61355 0.57371 0.0
H1713 H 0.95058 0.65785 0.71377 0.0
H1714 H 0.99713 0.64603 0.70861 0.0
H1715 H 0.03341 0.62261 0.66403 0.0
H1716 H 0.01584 0.57676 0.52626 0.0
H1717 H 0.97018 0.58963 0.53113 0.0
C1718 C 0.9485 0.62078 0.60295 0.0
C1719 C 0.93937 0.6367 0.64373 0.0
C1720 C 0.97498 0.6135 0.60036 0.0
C1721 C 0.95719 0.6456 0.68179 0.0
C1722 C 0.98379 0.63882 0.67891 0.0
C1723 C 0.01958 0.61543 0.63518 0.0
C1724 C 0.02826 0.59873 0.59492 0.0
C1725 C 0.99293 0.62268 0.63837 0.0
C1726 C 0.00992 0.58953 0.55796 0.0
C1727 C 0.98368 0.59693 0.56047 0.0
H1728 H 0.61996 0.22867 0.60303 0.0
H1729 H 0.67105 0.25029 0.73079 0.0
H1730 H 0.65914 0.29608 0.72008 0.0
H1731 H 0.63504 0.3304 0.67403 0.0
H1732 H 0.58616 0.31022 0.54255 0.0
H1733 H 0.59614 0.26362 0.55547 0.0
C1734 C 0.62848 0.2434 0.62848 0.0
C1735 C 0.64641 0.23586 0.66762 0.0
C1736 C 0.62183 0.27003 0.62172 0.0
C1737 C 0.65733 0.25534 0.70008 0.0
C1738 C 0.65045 0.28164 0.69421 0.0
C1739 C 0.62631 0.31578 0.64858 0.0
C1740 C 0.60969 0.32368 0.60778 0.0
C1741 C 0.63277 0.28922 0.65521 0.0
C1742 C 0.59893 0.30457 0.57446 0.0
C1743 C 0.6047 0.27794 0.58172 0.0
H1744 H 0.9978 0.40756 0.94651 0.0
H1745 H 0.03196 0.36708 0.81494 0.0
H1746 H 0.98816 0.35317 0.78664 0.0
H1747 H 0.94006 0.35255 0.79991 0.0
H1748 H 0.90718 0.39182 0.93429 0.0
H1749 H 0.95077 0.40604 0.96098 0.0
C1750 C 0.99579 0.39579 0.91145 0.0
C1751 C 0.01815 0.38853 0.88271 0.0
C1752 C 0.97078 0.38753 0.89608 0.0
C1753 C 0.01506 0.37298 0.83777 0.0
C1754 C 0.99004 0.36502 0.82159 0.0
C1755 C 0.9425 0.36417 0.83506 0.0
C1756 C 0.92042 0.37115 0.86503 0.0
C1757 C 0.96774 0.37215 0.85056 0.0
C1758 C 0.92384 0.38612 0.91059 0.0
C1759 C 0.94876 0.39434 0.92584 0.0
H1760 H 0.84328 0.77655 0.21283 0.0
H1761 H 0.8744 0.80376 0.06578 0.0
H1762 H 0.89002 0.75929 0.0462 0.0
H1763 H 0.89325 0.71232 0.07012 0.0
H1764 H 0.86271 0.68656 0.21886 0.0
H1765 H 0.84867 0.73109 0.23871 0.0
C1766 C 0.85348 0.77289 0.1764 0.0
C1767 C 0.85741 0.79342 0.14056 0.0
C1768 C 0.86258 0.74756 0.16583 0.0
C1769 C 0.87104 0.78828 0.09396 0.0
C1770 C 0.87994 0.76287 0.08277 0.0
C1771 C 0.88372 0.71653 0.10704 0.0
C1772 C 0.8789 0.69611 0.14284 0.0
C1773 C 0.87564 0.74231 0.11832 0.0
C1774 C 0.86663 0.70187 0.19057 0.0
C1775 C 0.8585 0.72732 0.20193 0.0
H1776 H 0.55708 0.63916 0.31556 0.0
H1777 H 0.5845 0.60036 0.45531 0.0
H1778 H 0.54009 0.58584 0.47459 0.0
H1779 H 0.49406 0.58374 0.45216 0.0
H1780 H 0.46479 0.62396 0.31567 0.0
H1781 H 0.50954 0.63824 0.29446 0.0
C1782 C 0.55326 0.62761 0.35028 0.0
C1783 C 0.57407 0.62083 0.38393 0.0
C1784 C 0.52749 0.61947 0.36154 0.0
C1785 C 0.56885 0.60594 0.42888 0.0
C1786 C 0.54347 0.59753 0.43987 0.0
C1787 C 0.49729 0.59556 0.41755 0.0
C1788 C 0.47606 0.6026 0.38534 0.0
C1789 C 0.52274 0.60409 0.40642 0.0
C1790 C 0.48079 0.6182 0.34107 0.0
C1791 C 0.50635 0.62638 0.329 0.0
H1792 H 0.35621 0.32182 0.17439 0.0
H1793 H 0.41312 0.3008 0.05715 0.0
H1794 H 0.40038 0.25452 0.06474 0.0
H1795 H 0.37294 0.22015 0.10549 0.0
H1796 H 0.31429 0.24288 0.21888 0.0
H1797 H 0.3276 0.28837 0.21121 0.0
C1798 C 0.36602 0.30706 0.15088 0.0
C1799 C 0.38585 0.31452 0.11597 0.0
C1800 C 0.35804 0.28084 0.15425 0.0
C1801 C 0.39795 0.29537 0.08471 0.0
C1802 C 0.39059 0.26898 0.08889 0.0
C1803 C 0.36292 0.23507 0.12818 0.0
C1804 C 0.34271 0.22789 0.16287 0.0
C1805 C 0.37057 0.26149 0.1235 0.0
C1806 C 0.3299 0.24762 0.19177 0.0
C1807 C 0.33757 0.27374 0.18772 0.0
H1808 H 0.45101 0.62831 0.80539 0.0
H1809 H 0.42617 0.60847 0.96181 0.0
H1810 H 0.47054 0.59566 0.98435 0.0
H1811 H 0.51588 0.58884 0.96023 0.0
H1812 H 0.54315 0.61051 0.80681 0.0
H1813 H 0.4984 0.62375 0.78252 0.0
C1814 C 0.45543 0.62136 0.84443 0.0
C1815 C 0.43518 0.6193 0.88171 0.0
C1816 C 0.48135 0.61418 0.85767 0.0
C1817 C 0.44125 0.61033 0.93224 0.0
C1818 C 0.46667 0.60288 0.94527 0.0
C1819 C 0.51218 0.59646 0.92139 0.0
C1820 C 0.53282 0.59846 0.88529 0.0
C1821 C 0.48676 0.60449 0.90828 0.0
C1822 C 0.52758 0.60872 0.83536 0.0
C1823 C 0.502 0.61627 0.82148 0.0
H1824 H 0.11452 0.69117 0.56233 0.0
H1825 H 0.13981 0.66385 0.71393 0.0
H1826 H 0.15337 0.70792 0.73752 0.0
H1827 H 0.1588 0.75388 0.71564 0.0
H1828 H 0.13188 0.78314 0.56692 0.0
H1829 H 0.11829 0.73872 0.54169 0.0
C1830 C 0.12288 0.69496 0.60054 0.0
C1831 C 0.12617 0.67418 0.6362 0.0
C1832 C 0.13048 0.72065 0.61437 0.0
C1833 C 0.13696 0.67941 0.68568 0.0
C1834 C 0.14483 0.70464 0.69928 0.0
C1835 C 0.15002 0.75063 0.67759 0.0
C1836 C 0.14657 0.77177 0.64309 0.0
C1837 C 0.14183 0.72533 0.66391 0.0
C1838 C 0.13479 0.76718 0.59423 0.0
C1839 C 0.12703 0.74178 0.57979 0.0
H1840 H 0.04848 0.35856 0.30374 0.0
H1841 H 0.06898 0.38345 0.45977 0.0
H1842 H 0.024 0.39752 0.47498 0.0
H1843 H 0.9795 0.40401 0.44377 0.0
H1844 H 0.95709 0.37708 0.29035 0.0
H1845 H 0.00234 0.36276 0.27406 0.0
C1846 C 0.043 0.36688 0.34117 0.0
C1847 C 0.06208 0.37002 0.38051 0.0
C1848 C 0.01691 0.37477 0.34994 0.0
C1849 C 0.05471 0.38073 0.42887 0.0
C1850 C 0.029 0.38891 0.43757 0.0
C1851 C 0.98438 0.39499 0.40669 0.0
C1852 C 0.96496 0.39181 0.36818 0.0
C1853 C 0.01006 0.38626 0.39826 0.0
C1854 C 0.9717 0.37981 0.32061 0.0
C1855 C 0.99754 0.37161 0.31133 0.0
H1856 H 0.3538 0.67183 0.32446 0.0
H1857 H 0.40248 0.6914 0.45668 0.0
H1858 H 0.39106 0.73786 0.44664 0.0
H1859 H 0.36716 0.7729 0.39967 0.0
H1860 H 0.31731 0.75194 0.2695 0.0
H1861 H 0.32914 0.70611 0.27982 0.0
C1862 C 0.36205 0.68626 0.35095 0.0
C1863 C 0.37914 0.67825 0.39091 0.0
C1864 C 0.35504 0.71272 0.34555 0.0
C1865 C 0.38934 0.69713 0.42541 0.0
C1866 C 0.38279 0.72367 0.41974 0.0
C1867 C 0.35881 0.75831 0.37371 0.0
C1868 C 0.34136 0.76605 0.33386 0.0
C1869 C 0.36561 0.7317 0.37992 0.0
C1870 C 0.33069 0.74674 0.30071 0.0
C1871 C 0.33752 0.72043 0.30636 0.0
H1872 H 0.99217 0.60784 0.05268 0.0
H1873 H 0.96495 0.63437 0.20319 0.0
H1874 H 0.01019 0.64565 0.22782 0.0
H1875 H 0.05786 0.6472 0.20603 0.0
H1876 H 0.08276 0.62222 0.05254 0.0
H1877 H 0.03791 0.61141 0.02964 0.0
C1878 C 0.99597 0.61605 0.09102 0.0
C1879 C 0.97521 0.62001 0.1262 0.0
C1880 C 0.02167 0.62292 0.10428 0.0
C1881 C 0.98062 0.63103 0.17539 0.0
C1882 C 0.00646 0.63749 0.18944 0.0
C1883 C 0.05337 0.63957 0.16753 0.0
C1884 C 0.07372 0.63545 0.1312 0.0
C1885 C 0.02721 0.63347 0.15413 0.0
C1886 C 0.06758 0.62561 0.08137 0.0
C1887 C 0.0419 0.61931 0.06815 0.0
H1888 H 0.12464 0.21791 0.91224 0.0
H1889 H 0.1861 0.23925 0.80381 0.0
H1890 H 0.17431 0.28512 0.81188 0.0
H1891 H 0.1458 0.31924 0.84648 0.0
H1892 H 0.08564 0.2995 0.95803 0.0
H1893 H 0.09757 0.25297 0.95165 0.0
C1894 C 0.13562 0.2326 0.89079 0.0
C1895 C 0.15611 0.22492 0.8572 0.0
C1896 C 0.1288 0.25924 0.89558 0.0
C1897 C 0.17019 0.24436 0.82991 0.0
C1898 C 0.16341 0.27072 0.83423 0.0
C1899 C 0.13519 0.30473 0.86917 0.0
C1900 C 0.11464 0.31261 0.90197 0.0
C1901 C 0.14254 0.27831 0.86625 0.0
C1902 C 0.10143 0.29376 0.93214 0.0
C1903 C 0.10829 0.26721 0.92859 0.0
H1904 H 0.42534 0.39841 0.56859 0.0
H1905 H 0.44267 0.35281 0.70619 0.0
H1906 H 0.48942 0.36292 0.69698 0.0
H1907 H 0.52543 0.38446 0.64884 0.0
H1908 H 0.50681 0.43164 0.51348 0.0
H1909 H 0.46063 0.42133 0.52327 0.0
C1910 C 0.43937 0.39056 0.59639 0.0
C1911 C 0.43068 0.37468 0.63758 0.0
C1912 C 0.46602 0.39687 0.59151 0.0
C1913 C 0.44897 0.36502 0.67392 0.0
C1914 C 0.47568 0.37081 0.66873 0.0
C1915 C 0.51126 0.39259 0.62167 0.0
C1916 C 0.51977 0.40874 0.58045 0.0
C1917 C 0.48445 0.38673 0.62759 0.0
C1918 C 0.50101 0.4192 0.54577 0.0
C1919 C 0.47449 0.41324 0.55108 0.0
H1920 H 0.11212 0.12243 0.54614 0.0
H1921 H 0.17272 0.06597 0.5138 0.0
H1922 H 0.18666 0.06732 0.60629 0.0
H1923 H 0.17957 0.08414 0.69792 0.0
H1924 H 0.12147 0.14467 0.72117 0.0
H1925 H 0.1079 0.14157 0.63119 0.0
C1926 C 0.12851 0.1105 0.55933 0.0
C1927 C 0.14097 0.09363 0.52437 0.0
C1928 C 0.13642 0.1118 0.61117 0.0
C1929 C 0.16264 0.0788 0.54088 0.0
C1930 C 0.17045 0.07952 0.59358 0.0
C1931 C 0.16399 0.0965 0.68289 0.0
C1932 C 0.1512 0.11431 0.71627 0.0
C1933 C 0.15712 0.0957 0.62946 0.0
C1934 C 0.1312 0.13046 0.69659 0.0
C1935 C 0.12361 0.12897 0.6449 0.0
H1936 H 0.13136 0.85994 0.80144 0.0
H1937 H 0.19269 0.91713 0.78202 0.0
H1938 H 0.18886 0.92948 0.87504 0.0
H1939 H 0.16773 0.9227 0.9627 0.0
H1940 H 0.10393 0.8673 0.97447 0.0
H1941 H 0.10945 0.85493 0.88383 0.0
C1942 C 0.14396 0.87509 0.81769 0.0
C1943 C 0.16274 0.88714 0.78617 0.0
C1944 C 0.14131 0.88211 0.86984 0.0
C1945 C 0.1784 0.90735 0.8065 0.0
C1946 C 0.17624 0.91427 0.85945 0.0
C1947 C 0.15524 0.90794 0.94504 0.0
C1948 C 0.13544 0.89591 0.97474 0.0
C1949 C 0.15787 0.90152 0.89174 0.0
C1950 C 0.11924 0.8768 0.95203 0.0
C1951 C 0.12225 0.8698 0.90024 0.0
H1952 H 0.33487 0.92047 0.03496 0.0
H1953 H 0.39431 0.8602 0.02702 0.0
H1954 H 0.3884 0.85027 0.11862 0.0
H1955 H 0.36657 0.85782 0.19996 0.0
H1956 H 0.30865 0.91877 0.21541 0.0
H1957 H 0.31431 0.93026 0.12226 0.0
C1958 C 0.34634 0.90522 0.0537 0.0
C1959 C 0.36498 0.89103 0.02476 0.0
C1960 C 0.34343 0.90007 0.10748 0.0
C1961 C 0.37988 0.87131 0.04883 0.0
C1962 C 0.37667 0.86571 0.10118 0.0
C1963 C 0.35525 0.87374 0.18296 0.0
C1964 C 0.33682 0.88704 0.21328 0.0
C1965 C 0.35861 0.87993 0.13066 0.0
C1966 C 0.32272 0.9081 0.19191 0.0
C1967 C 0.32587 0.91448 0.13886 0.0
H1968 H 0.37954 0.12592 0.47721 0.0
H1969 H 0.32395 0.06358 0.50133 0.0
H1970 H 0.31029 0.06651 0.40883 0.0
H1971 H 0.31725 0.08556 0.31899 0.0
H1972 H 0.37163 0.15002 0.30271 0.0
H1973 H 0.38337 0.14699 0.39387 0.0
C1974 C 0.36426 0.11309 0.46226 0.0
C1975 C 0.35322 0.09413 0.49483 0.0
C1976 C 0.35678 0.11494 0.41022 0.0
C1977 C 0.33293 0.07807 0.47611 0.0
C1978 C 0.32531 0.07967 0.42337 0.0
C1979 C 0.33163 0.09877 0.33579 0.0
C1980 C 0.34384 0.11777 0.30424 0.0
C1981 C 0.33768 0.09764 0.38957 0.0
C1982 C 0.36227 0.13503 0.32614 0.0
C1983 C 0.36883 0.13354 0.37839 0.0
H1984 H 0.86539 0.876 0.29123 0.0
H1985 H 0.80832 0.93793 0.27865 0.0
H1986 H 0.8136 0.94767 0.3727 0.0
H1987 H 0.83673 0.93896 0.458 0.0
H1988 H 0.89456 0.8771 0.46341 0.0
H1989 H 0.88615 0.86628 0.3729 0.0
C1990 C 0.85388 0.89151 0.30919 0.0
C1991 C 0.83624 0.90597 0.27892 0.0
C1992 C 0.85706 0.89676 0.36204 0.0
C1993 C 0.82192 0.92648 0.30182 0.0
C1994 C 0.82482 0.93184 0.35543 0.0
C1995 C 0.84701 0.9229 0.43922 0.0
C1996 C 0.86641 0.90896 0.4668 0.0
C1997 C 0.84253 0.91712 0.38601 0.0
C1998 C 0.8797 0.88816 0.4426 0.0
C1999 C 0.87506 0.88206 0.39082 0.0
H2000 H 0.83285 0.06788 0.04462 0.0
H2001 H 0.8852 0.13391 0.02765 0.0
H2002 H 0.87741 0.14686 0.11718 0.0
H2003 H 0.85947 0.13772 0.20168 0.0
H2004 H 0.8083 0.07167 0.22593 0.0
H2005 H 0.81198 0.06004 0.13247 0.0
C2006 C 0.84202 0.08531 0.06062 0.0
C2007 C 0.85972 0.09986 0.02998 0.0
C2008 C 0.83801 0.09235 0.11339 0.0
C2009 C 0.87158 0.12242 0.05069 0.0
C2010 C 0.86734 0.12974 0.10198 0.0
C2011 C 0.84886 0.12089 0.1864 0.0
C2012 C 0.83336 0.10578 0.21983 0.0
C2013 C 0.85125 0.11449 0.13386 0.0
C2014 C 0.82023 0.08364 0.20032 0.0
C2015 C 0.82222 0.07718 0.14703 0.0
H2016 H 0.63279 0.14853 0.81572 0.0
H2017 H 0.68389 0.08314 0.78477 0.0
H2018 H 0.68196 0.07038 0.87787 0.0
H2019 H 0.66326 0.07751 0.968 0.0
H2020 H 0.60968 0.14212 0.99057 0.0
H2021 H 0.61563 0.15602 0.9014 0.0
C2022 C 0.64363 0.1315 0.8294 0.0
C2023 C 0.65875 0.117 0.79428 0.0
C2024 C 0.64207 0.12434 0.88166 0.0
C2025 C 0.67225 0.09465 0.81172 0.0
C2026 C 0.67124 0.08753 0.86481 0.0
C2027 C 0.65328 0.09475 0.95318 0.0
C2028 C 0.63605 0.10881 0.98578 0.0
C2029 C 0.65597 0.10218 0.90025 0.0
C2030 C 0.62315 0.13112 0.96646 0.0
C2031 C 0.62628 0.13895 0.9152 0.0
H2032 H 0.60834 0.87176 0.53465 0.0
H2033 H 0.668 0.92965 0.50534 0.0
H2034 H 0.68358 0.92542 0.59641 0.0
H2035 H 0.67808 0.90597 0.68621 0.0
H2036 H 0.6189 0.84641 0.70837 0.0
H2037 H 0.60471 0.85104 0.61855 0.0
C2038 C 0.62486 0.88341 0.54817 0.0
C2039 C 0.63667 0.9014 0.51441 0.0
C2040 C 0.63344 0.8808 0.59947 0.0
C2041 C 0.65848 0.91589 0.53138 0.0
C2042 C 0.6672 0.91356 0.58333 0.0
C2043 C 0.66211 0.89419 0.67098 0.0
C2044 C 0.6495 0.87587 0.70351 0.0
C2045 C 0.65444 0.89637 0.61815 0.0
C2046 C 0.62886 0.86057 0.68382 0.0
C2047 C 0.62081 0.86307 0.63246 0.0
H2048 H 0.61851 0.61443 0.04563 0.0
H2049 H 0.67968 0.55709 0.02587 0.0
H2050 H 0.69191 0.56183 0.11879 0.0
H2051 H 0.68394 0.58249 0.20666 0.0
H2052 H 0.62248 0.64039 0.22033 0.0
H2053 H 0.61116 0.63485 0.12907 0.0
C2054 C 0.63446 0.60285 0.06178 0.0
C2055 C 0.64776 0.58498 0.02997 0.0
C2056 C 0.64112 0.60568 0.11422 0.0
C2057 C 0.66897 0.5707 0.05037 0.0
C2058 C 0.67581 0.57334 0.10334 0.0
C2059 C 0.66802 0.59361 0.18936 0.0
C2060 C 0.65417 0.61198 0.21974 0.0
C2061 C 0.66178 0.59064 0.13592 0.0
C2062 C 0.63353 0.62635 0.19736 0.0
C2063 C 0.62708 0.62329 0.14521 0.0
H2064 H 0.6689 0.42907 0.44406 0.0
H2065 H 0.60501 0.37348 0.44953 0.0
H2066 H 0.61144 0.36269 0.35841 0.0
H2067 H 0.63364 0.36953 0.27718 0.0
H2068 H 0.69686 0.42514 0.26467 0.0
H2069 H 0.69194 0.43622 0.3582 0.0
C2070 C 0.65676 0.41444 0.42506 0.0
C2071 C 0.63643 0.40214 0.45298 0.0
C2072 C 0.66013 0.40871 0.37156 0.0
C2073 C 0.62068 0.38321 0.42849 0.0
C2074 C 0.62418 0.37716 0.37638 0.0
C2075 C 0.6464 0.38409 0.29498 0.0
C2076 C 0.66586 0.39617 0.26511 0.0
C2077 C 0.64352 0.38998 0.34759 0.0
C2078 C 0.68188 0.41549 0.28765 0.0
C2079 C 0.67917 0.42159 0.34096 0.0
H2080 H 0.81322 0.40651 0.6762 0.0
H2081 H 0.87572 0.3496 0.68729 0.0
H2082 H 0.88603 0.35544 0.59559 0.0
H2083 H 0.87751 0.37587 0.51281 0.0
H2084 H 0.81545 0.4325 0.49563 0.0
H2085 H 0.804 0.42719 0.58883 0.0
C2086 C 0.82912 0.39566 0.65821 0.0
C2087 C 0.84355 0.37743 0.68783 0.0
C2088 C 0.83474 0.3988 0.60462 0.0
C2089 C 0.86422 0.36346 0.66475 0.0
C2090 C 0.87008 0.3667 0.61241 0.0
C2091 C 0.86148 0.38713 0.52954 0.0
C2092 C 0.8477 0.40495 0.49842 0.0
C2093 C 0.8554 0.3841 0.58209 0.0
C2094 C 0.82647 0.41887 0.51956 0.0
C2095 C 0.82011 0.41594 0.57269 0.0
H2096 H 0.83645 0.58878 0.95807 0.0
H2097 H 0.89312 0.65095 0.97752 0.0
H2098 H 0.88959 0.6623 0.88584 0.0
H2099 H 0.87284 0.65339 0.79984 0.0
H2100 H 0.8182 0.59035 0.77382 0.0
H2101 H 0.81872 0.57996 0.86806 0.0
C2102 C 0.84765 0.60493 0.94196 0.0
C2103 C 0.86518 0.61893 0.97401 0.0
C2104 C 0.84614 0.61093 0.88821 0.0
C2105 C 0.87968 0.63986 0.95324 0.0
C2106 C 0.8778 0.64628 0.90086 0.0
C2107 C 0.86085 0.63749 0.81491 0.0
C2108 C 0.84507 0.623 0.7808 0.0
C2109 C 0.86153 0.63169 0.86799 0.0
C2110 C 0.83024 0.60192 0.8 0.0
C2111 C 0.83046 0.59614 0.8537 0.0
H2112 H 0.3712 0.36464 0.79239 0.0
H2113 H 0.31119 0.42353 0.77684 0.0
H2114 H 0.31531 0.4341 0.87076 0.0
H2115 H 0.33647 0.42537 0.95797 0.0
H2116 H 0.39852 0.36779 0.96585 0.0
H2117 H 0.39269 0.35731 0.87439 0.0
C2118 C 0.35897 0.3798 0.80962 0.0
C2119 C 0.34056 0.39291 0.77881 0.0
C2120 C 0.36167 0.3857 0.86229 0.0
C2121 C 0.32529 0.41302 0.8006 0.0
C2122 C 0.32758 0.4189 0.85409 0.0
C2123 C 0.34847 0.41052 0.9393 0.0
C2124 C 0.36794 0.39738 0.96816 0.0
C2125 C 0.34563 0.40512 0.88554 0.0
C2126 C 0.3835 0.37816 0.94412 0.0
C2127 C 0.38031 0.37223 0.89184 0.0
H2128 H 0.37908 0.61914 0.71854 0.0
H2129 H 0.32058 0.55898 0.73687 0.0
H2130 H 0.32308 0.54915 0.64241 0.0
H2131 H 0.34014 0.561 0.55297 0.0
H2132 H 0.39842 0.62222 0.54109 0.0
H2133 H 0.39707 0.6291 0.63454 0.0
C2134 C 0.36708 0.6036 0.70194 0.0
C2135 C 0.34942 0.59006 0.73374 0.0
C2136 C 0.3681 0.59886 0.64859 0.0
C2137 C 0.33426 0.56968 0.71256 0.0
C2138 C 0.3355 0.56436 0.65866 0.0
C2139 C 0.35228 0.57587 0.57122 0.0
C2140 C 0.36936 0.59112 0.54055 0.0
C2141 C 0.35182 0.57946 0.62591 0.0
C2142 C 0.38515 0.61031 0.56415 0.0
C2143 C 0.38459 0.61412 0.61755 0.0
H2144 H 0.12078 0.61784 0.46584 0.0
H2145 H 0.18064 0.55921 0.48673 0.0
H2146 H 0.19195 0.56223 0.39301 0.0
H2147 H 0.18317 0.5816 0.30403 0.0
H2148 H 0.12309 0.64095 0.29015 0.0
H2149 H 0.11281 0.637 0.38197 0.0
C2150 C 0.13646 0.60581 0.44991 0.0
C2151 C 0.14962 0.58808 0.48223 0.0
C2152 C 0.14238 0.60748 0.39709 0.0
C2153 C 0.17022 0.57292 0.46197 0.0
C2154 C 0.17642 0.57449 0.40849 0.0
C2155 C 0.1677 0.5933 0.32139 0.0
C2156 C 0.15383 0.61152 0.29065 0.0
C2157 C 0.16228 0.59149 0.37537 0.0
C2158 C 0.13389 0.62675 0.31316 0.0
C2159 C 0.12818 0.62475 0.36573 0.0
H2160 H 0.11639 0.36996 0.22396 0.0
H2161 H 0.17762 0.42754 0.23979 0.0
H2162 H 0.1731 0.43889 0.14632 0.0
H2163 H 0.15371 0.42866 0.05803 0.0
H2164 H 0.09195 0.37081 0.04889 0.0
H2165 H 0.09517 0.36267 0.14178 0.0
C2166 C 0.12857 0.38524 0.20706 0.0
C2167 C 0.14765 0.39752 0.23763 0.0
C2168 C 0.1261 0.3911 0.15437 0.0
C2169 C 0.16297 0.4177 0.21624 0.0
C2170 C 0.16049 0.42396 0.16295 0.0
C2171 C 0.14107 0.4144 0.07682 0.0
C2172 C 0.12258 0.40035 0.04711 0.0
C2173 C 0.14263 0.41012 0.13116 0.0
C2174 C 0.10621 0.38187 0.0713 0.0
C2175 C 0.10792 0.37728 0.12435 0.0
loop_
_geom_bond_atom_site_label_1
_geom_bond_atom_site_label_2
_geom_bond_distance
_geom_bond_site_symmetry_2
_ccdc_geom_bond_type
Mn0 O5 2.095 . S
Mn0 O15 2.162 . S
Mn0 O16 2.297 . S
Mn0 O24 2.385 . S
Mn0 O25 2.209 . S
Mn0 O26 2.094 . S
Mn1 O6 2.121 . S
Mn1 N8 2.257 . S
Mn1 N17 2.282 . S
Mn1 O25 2.215 . S
Mn1 O27 2.117 . S
C2 O24 1.234 . S
C2 O25 1.283 . S
C3 O15 1.281 . S
C3 O16 1.236 . S
C4 O26 1.240 . S
C4 O27 1.264 . S
O5 Mn0 2.095 . S
O5 C14 1.250 . S
O6 Mn1 2.121 . S
O6 C14 1.258 . S
C7 N8 1.326 . S
C7 C11 1.460 . S
C7 H13 0.929 . S
N8 Mn1 2.257 . S
N8 C7 1.326 . S
N8 C12 1.362 . S
C9 C10 1.258 . S
C9 C12 1.431 . S
C9 C29 1.449 . S
C10 C9 1.258 . S
C10 C11 1.477 . S
C10 H30 0.931 . S
C11 C7 1.460 . S
C11 C10 1.477 . S
C11 H31 0.930 . S
C12 N8 1.362 . S
C12 C9 1.431 . S
C12 C22 1.476 . S
H13 C7 0.929 . S
C14 O5 1.250 . S
C14 O6 1.258 . S
O15 Mn0 2.162 . S
O15 C3 1.281 . S
O16 Mn0 2.297 . S
O16 C3 1.236 . S
N17 Mn1 2.282 . S
N17 C18 1.328 . S
N17 C22 1.318 . S
C18 N17 1.328 . S
C18 C19 1.457 . S
C18 H23 0.929 . S
C19 C18 1.457 . S
C19 C20 1.291 . S
C19 H32 0.931 . S
C20 C19 1.291 . S
C20 C21 1.373 . S
C20 H33 0.929 . S
C21 C20 1.373 . S
C21 C22 1.396 . S
C21 C28 1.403 . S
C22 C12 1.476 . S
C22 N17 1.318 . S
C22 C21 1.396 . S
H23 C18 0.929 . S
O24 Mn0 2.385 . S
O24 C2 1.234 . S
O25 Mn0 2.209 . S
O25 Mn1 2.215 . S
O25 C2 1.283 . S
O26 Mn0 2.094 . S
O26 C4 1.240 . S
O27 Mn1 2.117 . S
O27 C4 1.264 . S
C28 C21 1.403 . S
C28 C29 1.399 . S
C28 H34 0.929 . S
C29 C9 1.449 . S
C29 C28 1.399 . S
C29 H35 0.930 . S
H30 C10 0.931 . S
H31 C11 0.930 . S
H32 C19 0.931 . S
H33 C20 0.929 . S
H34 C28 0.929 . S
H35 C29 0.930 . S
Mn36 O41 2.095 . S
Mn36 O51 2.162 . S
Mn36 O52 2.297 . S
Mn36 O60 2.385 . S
Mn36 O61 2.209 . S
Mn36 O62 2.094 . S
Mn37 O42 2.121 . S
Mn37 N44 2.257 . S
Mn37 N53 2.282 . S
Mn37 O61 2.215 . S
Mn37 O63 2.117 . S
C38 O60 1.234 . S
C38 O61 1.283 . S
C39 O51 1.281 . S
C39 O52 1.236 . S
C40 O62 1.240 . S
C40 O63 1.264 . S
O41 Mn36 2.095 . S
O41 C50 1.250 . S
O42 Mn37 2.121 . S
O42 C50 1.258 . S
C43 N44 1.326 . S
C43 C47 1.460 . S
C43 H49 0.929 . S
N44 Mn37 2.257 . S
N44 C43 1.326 . S
N44 C48 1.362 . S
C45 C46 1.258 . S
C45 C48 1.431 . S
C45 C65 1.449 . S
C46 C45 1.258 . S
C46 C47 1.477 . S
C46 H66 0.931 . S
C47 C43 1.460 . S
C47 C46 1.477 . S
C47 H67 0.930 . S
C48 N44 1.362 . S
C48 C45 1.431 . S
C48 C58 1.476 . S
H49 C43 0.929 . S
C50 O41 1.250 . S
C50 O42 1.258 . S
O51 Mn36 2.162 . S
O51 C39 1.281 . S
O52 Mn36 2.297 . S
O52 C39 1.236 . S
N53 Mn37 2.282 . S
N53 C54 1.328 . S
N53 C58 1.318 . S
C54 N53 1.328 . S
C54 C55 1.457 . S
C54 H59 0.929 . S
C55 C54 1.457 . S
C55 C56 1.291 . S
C55 H68 0.931 . S
C56 C55 1.291 . S
C56 C57 1.373 . S
C56 H69 0.929 . S
C57 C56 1.373 . S
C57 C58 1.396 . S
C57 C64 1.403 . S
C58 C48 1.476 . S
C58 N53 1.318 . S
C58 C57 1.396 . S
H59 C54 0.929 . S
O60 Mn36 2.385 . S
O60 C38 1.234 . S
O61 Mn36 2.209 . S
O61 Mn37 2.215 . S
O61 C38 1.283 . S
O62 Mn36 2.094 . S
O62 C40 1.240 . S
O63 Mn37 2.117 . S
O63 C40 1.264 . S
C64 C57 1.403 . S
C64 C65 1.399 . S
C64 H70 0.929 . S
C65 C45 1.449 . S
C65 C64 1.399 . S
C65 H71 0.930 . S
H66 C46 0.931 . S
H67 C47 0.930 . S
H68 C55 0.931 . S
H69 C56 0.929 . S
H70 C64 0.929 . S
H71 C65 0.930 . S
Mn72 O77 2.095 . S
Mn72 O87 2.162 . S
Mn72 O88 2.297 . S
Mn72 O96 2.385 . S
Mn72 O97 2.209 . S
Mn72 O98 2.094 . S
Mn73 O78 2.121 . S
Mn73 N80 2.257 1_556 S
Mn73 N89 2.282 1_556 S
Mn73 O97 2.215 . S
Mn73 O99 2.117 . S
C74 O96 1.234 . S
C74 O97 1.283 . S
C75 O87 1.281 . S
C75 O88 1.236 . S
C76 O98 1.240 . S
C76 O99 1.264 . S
O77 Mn72 2.095 . S
O77 C86 1.250 . S
O78 Mn73 2.121 . S
O78 C86 1.258 . S
C79 N80 1.326 . S
C79 C83 1.460 . S
C79 H85 0.929 . S
N80 Mn73 2.257 1_554 S
N80 C79 1.326 . S
N80 C84 1.362 . S
C81 C82 1.258 . S
C81 C84 1.431 . S
C81 C101 1.449 . S
C82 C81 1.258 . S
C82 C83 1.477 . S
C82 H102 0.931 . S
C83 C79 1.460 . S
C83 C82 1.477 . S
C83 H103 0.930 . S
C84 N80 1.362 . S
C84 C81 1.431 . S
C84 C94 1.476 . S
H85 C79 0.929 . S
C86 O77 1.250 . S
C86 O78 1.258 . S
O87 Mn72 2.162 . S
O87 C75 1.281 . S
O88 Mn72 2.297 . S
O88 C75 1.236 . S
N89 Mn73 2.282 1_554 S
N89 C90 1.328 1_554 S
N89 C94 1.318 . S
C90 N89 1.328 1_556 S
C90 C91 1.457 1_556 S
C90 H95 0.929 . S
C91 C90 1.457 1_554 S
C91 C92 1.291 . S
C91 H104 0.931 . S
C92 C91 1.291 . S
C92 C93 1.373 . S
C92 H105 0.929 . S
C93 C92 1.373 . S
C93 C94 1.396 . S
C93 C100 1.403 . S
C94 C84 1.476 . S
C94 N89 1.318 . S
C94 C93 1.396 . S
H95 C90 0.929 . S
O96 Mn72 2.385 . S
O96 C74 1.234 . S
O97 Mn72 2.209 . S
O97 Mn73 2.215 . S
O97 C74 1.283 . S
O98 Mn72 2.094 . S
O98 C76 1.240 . S
O99 Mn73 2.117 . S
O99 C76 1.264 . S
C100 C93 1.403 . S
C100 C101 1.399 . S
C100 H106 0.929 . S
C101 C81 1.449 . S
C101 C100 1.399 . S
C101 H107 0.930 . S
H102 C82 0.931 . S
H103 C83 0.930 . S
H104 C91 0.931 . S
H105 C92 0.929 . S
H106 C100 0.929 . S
H107 C101 0.930 . S
Mn108 O113 2.095 . S
Mn108 O123 2.162 . S
Mn108 O124 2.297 . S
Mn108 O132 2.385 . S
Mn108 O133 2.209 . S
Mn108 O134 2.094 . S
Mn109 O114 2.121 . S
Mn109 N116 2.257 . S
Mn109 N125 2.282 . S
Mn109 O133 2.215 . S
Mn109 O135 2.117 . S
C110 O132 1.234 . S
C110 O133 1.283 . S
C111 O123 1.281 . S
C111 O124 1.236 . S
C112 O134 1.240 . S
C112 O135 1.264 . S
O113 Mn108 2.095 . S
O113 C122 1.250 . S
O114 Mn109 2.121 . S
O114 C122 1.258 . S
C115 N116 1.326 . S
C115 C119 1.460 . S
C115 H121 0.929 . S
N116 Mn109 2.257 . S
N116 C115 1.326 . S
N116 C120 1.362 . S
C117 C118 1.258 . S
C117 C120 1.431 . S
C117 C137 1.449 . S
C118 C117 1.258 . S
C118 C119 1.477 . S
C118 H138 0.931 . S
C119 C115 1.460 . S
C119 C118 1.477 . S
C119 H139 0.930 . S
C120 N116 1.362 . S
C120 C117 1.431 . S
C120 C130 1.476 . S
H121 C115 0.929 . S
C122 O113 1.250 . S
C122 O114 1.258 . S
O123 Mn108 2.162 . S
O123 C111 1.281 . S
O124 Mn108 2.297 . S
O124 C111 1.236 . S
N125 Mn109 2.282 . S
N125 C126 1.328 . S
N125 C130 1.318 . S
C126 N125 1.328 . S
C126 C127 1.457 . S
C126 H131 0.929 . S
C127 C126 1.457 . S
C127 C128 1.291 . S
C127 H140 0.931 . S
C128 C127 1.291 . S
C128 C129 1.373 . S
C128 H141 0.929 . S
C129 C128 1.373 . S
C129 C130 1.396 . S
C129 C136 1.403 . S
C130 C120 1.476 . S
C130 N125 1.318 . S
C130 C129 1.396 . S
H131 C126 0.929 . S
O132 Mn108 2.385 . S
O132 C110 1.234 . S
O133 Mn108 2.209 . S
O133 Mn109 2.215 . S
O133 C110 1.283 . S
O134 Mn108 2.094 . S
O134 C112 1.240 . S
O135 Mn109 2.117 . S
O135 C112 1.264 . S
C136 C129 1.403 . S
C136 C137 1.399 . S
C136 H142 0.929 . S
C137 C117 1.449 . S
C137 C136 1.399 . S
C137 H143 0.930 . S
H138 C118 0.931 . S
H139 C119 0.930 . S
H140 C127 0.931 . S
H141 C128 0.929 . S
H142 C136 0.929 . S
H143 C137 0.930 . S
Mn144 O149 2.095 . S
Mn144 O159 2.162 . S
Mn144 O160 2.297 . S
Mn144 O168 2.385 . S
Mn144 O169 2.209 . S
Mn144 O170 2.094 . S
Mn145 O150 2.121 . S
Mn145 N152 2.257 1_554 S
Mn145 N161 2.282 1_554 S
Mn145 O169 2.215 . S
Mn145 O171 2.117 . S
C146 O168 1.234 . S
C146 O169 1.283 . S
C147 O159 1.281 . S
C147 O160 1.236 . S
C148 O170 1.240 . S
C148 O171 1.264 . S
O149 Mn144 2.095 . S
O149 C158 1.250 . S
O150 Mn145 2.121 . S
O150 C158 1.258 . S
C151 N152 1.326 . S
C151 C155 1.460 . S
C151 H157 0.929 . S
N152 Mn145 2.257 1_556 S
N152 C151 1.326 . S
N152 C156 1.362 . S
C153 C154 1.258 . S
C153 C156 1.431 . S
C153 C173 1.449 . S
C154 C153 1.258 . S
C154 C155 1.477 . S
C154 H174 0.931 . S
C155 C151 1.460 . S
C155 C154 1.477 . S
C155 H175 0.930 . S
C156 N152 1.362 . S
C156 C153 1.431 . S
C156 C166 1.476 . S
H157 C151 0.929 . S
C158 O149 1.250 . S
C158 O150 1.258 . S
O159 Mn144 2.162 . S
O159 C147 1.281 . S
O160 Mn144 2.297 . S
O160 C147 1.236 . S
N161 Mn145 2.282 1_556 S
N161 C162 1.328 1_556 S
N161 C166 1.318 . S
C162 N161 1.328 1_554 S
C162 C163 1.457 1_554 S
C162 H167 0.929 . S
C163 C162 1.457 1_556 S
C163 C164 1.291 . S
C163 H176 0.931 . S
C164 C163 1.291 . S
C164 C165 1.373 . S
C164 H177 0.929 . S
C165 C164 1.373 . S
C165 C166 1.396 . S
C165 C172 1.403 . S
C166 C156 1.476 . S
C166 N161 1.318 . S
C166 C165 1.396 . S
H167 C162 0.929 . S
O168 Mn144 2.385 . S
O168 C146 1.234 . S
O169 Mn144 2.209 . S
O169 Mn145 2.215 . S
O169 C146 1.283 . S
O170 Mn144 2.094 . S
O170 C148 1.240 . S
O171 Mn145 2.117 . S
O171 C148 1.264 . S
C172 C165 1.403 . S
C172 C173 1.399 . S
C172 H178 0.929 . S
C173 C153 1.449 . S
C173 C172 1.399 . S
C173 H179 0.930 . S
H174 C154 0.931 . S
H175 C155 0.930 . S
H176 C163 0.931 . S
H177 C164 0.929 . S
H178 C172 0.929 . S
H179 C173 0.930 . S
Mn180 O185 2.095 . S
Mn180 O195 2.162 . S
Mn180 O196 2.297 . S
Mn180 O204 2.385 . S
Mn180 O205 2.209 . S
Mn180 O206 2.094 . S
Mn181 O186 2.121 . S
Mn181 N188 2.257 . S
Mn181 N197 2.282 . S
Mn181 O205 2.215 . S
Mn181 O207 2.117 . S
C182 O204 1.234 . S
C182 O205 1.283 . S
C183 O195 1.281 . S
C183 O196 1.236 . S
C184 O206 1.240 . S
C184 O207 1.264 . S
O185 Mn180 2.095 . S
O185 C194 1.250 . S
O186 Mn181 2.121 . S
O186 C194 1.258 . S
C187 N188 1.326 . S
C187 C191 1.460 . S
C187 H193 0.929 . S
N188 Mn181 2.257 . S
N188 C187 1.326 . S
N188 C192 1.362 . S
C189 C190 1.258 . S
C189 C192 1.431 . S
C189 C209 1.449 . S
C190 C189 1.258 . S
C190 C191 1.477 . S
C190 H210 0.931 . S
C191 C187 1.460 . S
C191 C190 1.477 . S
C191 H211 0.930 . S
C192 N188 1.362 . S
C192 C189 1.431 . S
C192 C202 1.476 . S
H193 C187 0.929 . S
C194 O185 1.250 . S
C194 O186 1.258 . S
O195 Mn180 2.162 . S
O195 C183 1.281 . S
O196 Mn180 2.297 . S
O196 C183 1.236 . S
N197 Mn181 2.282 . S
N197 C198 1.328 . S
N197 C202 1.318 . S
C198 N197 1.328 . S
C198 C199 1.457 . S
C198 H203 0.929 . S
C199 C198 1.457 . S
C199 C200 1.291 . S
C199 H212 0.931 . S
C200 C199 1.291 . S
C200 C201 1.373 . S
C200 H213 0.929 . S
C201 C200 1.373 . S
C201 C202 1.396 . S
C201 C208 1.403 . S
C202 C192 1.476 . S
C202 N197 1.318 . S
C202 C201 1.396 . S
H203 C198 0.929 . S
O204 Mn180 2.385 . S
O204 C182 1.234 . S
O205 Mn180 2.209 . S
O205 Mn181 2.215 . S
O205 C182 1.283 . S
O206 Mn180 2.094 . S
O206 C184 1.240 . S
O207 Mn181 2.117 . S
O207 C184 1.264 . S
C208 C201 1.403 . S
C208 C209 1.399 . S
C208 H214 0.929 . S
C209 C189 1.449 . S
C209 C208 1.399 . S
C209 H215 0.930 . S
H210 C190 0.931 . S
H211 C191 0.930 . S
H212 C199 0.931 . S
H213 C200 0.929 . S
H214 C208 0.929 . S
H215 C209 0.930 . S
Mn216 O221 2.095 . S
Mn216 O231 2.162 . S
Mn216 O232 2.297 . S
Mn216 O240 2.385 . S
Mn216 O241 2.209 . S
Mn216 O242 2.094 . S
Mn217 O222 2.121 . S
Mn217 N224 2.257 . S
Mn217 N233 2.282 . S
Mn217 O241 2.215 . S
Mn217 O243 2.117 . S
C218 O240 1.234 . S
C218 O241 1.283 . S
C219 O231 1.281 . S
C219 O232 1.236 . S
C220 O242 1.240 . S
C220 O243 1.264 . S
O221 Mn216 2.095 . S
O221 C230 1.250 . S
O222 Mn217 2.121 . S
O222 C230 1.258 . S
C223 N224 1.326 . S
C223 C227 1.460 . S
C223 H229 0.929 . S
N224 Mn217 2.257 . S
N224 C223 1.326 . S
N224 C228 1.362 . S
C225 C226 1.258 . S
C225 C228 1.431 . S
C225 C245 1.449 . S
C226 C225 1.258 . S
C226 C227 1.477 . S
C226 H246 0.931 . S
C227 C223 1.460 . S
C227 C226 1.477 . S
C227 H247 0.930 . S
C228 N224 1.362 . S
C228 C225 1.431 . S
C228 C238 1.476 . S
H229 C223 0.929 . S
C230 O221 1.250 . S
C230 O222 1.258 . S
O231 Mn216 2.162 . S
O231 C219 1.281 . S
O232 Mn216 2.297 . S
O232 C219 1.236 . S
N233 Mn217 2.282 . S
N233 C234 1.328 . S
N233 C238 1.318 . S
C234 N233 1.328 . S
C234 C235 1.457 . S
C234 H239 0.929 . S
C235 C234 1.457 . S
C235 C236 1.291 . S
C235 H248 0.931 . S
C236 C235 1.291 . S
C236 C237 1.373 . S
C236 H249 0.929 . S
C237 C236 1.373 . S
C237 C238 1.396 . S
C237 C244 1.403 . S
C238 C228 1.476 . S
C238 N233 1.318 . S
C238 C237 1.396 . S
H239 C234 0.929 . S
O240 Mn216 2.385 . S
O240 C218 1.234 . S
O241 Mn216 2.209 . S
O241 Mn217 2.215 . S
O241 C218 1.283 . S
O242 Mn216 2.094 . S
O242 C220 1.240 . S
O243 Mn217 2.117 . S
O243 C220 1.264 . S
C244 C237 1.403 . S
C244 C245 1.399 . S
C244 H250 0.929 . S
C245 C225 1.449 . S
C245 C244 1.399 . S
C245 H251 0.930 . S
H246 C226 0.931 . S
H247 C227 0.930 . S
H248 C235 0.931 . S
H249 C236 0.929 . S
H250 C244 0.929 . S
H251 C245 0.930 . S
Mn252 O257 2.095 . S
Mn252 O267 2.162 . S
Mn252 O268 2.297 . S
Mn252 O276 2.385 . S
Mn252 O277 2.209 . S
Mn252 O278 2.094 . S
Mn253 O258 2.121 . S
Mn253 N260 2.257 . S
Mn253 N269 2.282 . S
Mn253 O277 2.215 . S
Mn253 O279 2.117 . S
C254 O276 1.234 . S
C254 O277 1.283 . S
C255 O267 1.281 . S
C255 O268 1.236 . S
C256 O278 1.240 . S
C256 O279 1.264 . S
O257 Mn252 2.095 . S
O257 C266 1.250 . S
O258 Mn253 2.121 . S
O258 C266 1.258 . S
C259 N260 1.326 . S
C259 C263 1.460 . S
C259 H265 0.929 . S
N260 Mn253 2.257 . S
N260 C259 1.326 . S
N260 C264 1.362 . S
C261 C262 1.258 . S
C261 C264 1.431 . S
C261 C281 1.449 . S
C262 C261 1.258 . S
C262 C263 1.477 . S
C262 H282 0.931 . S
C263 C259 1.460 . S
C263 C262 1.477 . S
C263 H283 0.930 . S
C264 N260 1.362 . S
C264 C261 1.431 . S
C264 C274 1.476 . S
H265 C259 0.929 . S
C266 O257 1.250 . S
C266 O258 1.258 . S
O267 Mn252 2.162 . S
O267 C255 1.281 . S
O268 Mn252 2.297 . S
O268 C255 1.236 . S
N269 Mn253 2.282 . S
N269 C270 1.328 . S
N269 C274 1.318 . S
C270 N269 1.328 . S
C270 C271 1.457 . S
C270 H275 0.929 . S
C271 C270 1.457 . S
C271 C272 1.291 . S
C271 H284 0.931 . S
C272 C271 1.291 . S
C272 C273 1.373 . S
C272 H285 0.929 . S
C273 C272 1.373 . S
C273 C274 1.396 . S
C273 C280 1.403 . S
C274 C264 1.476 . S
C274 N269 1.318 . S
C274 C273 1.396 . S
H275 C270 0.929 . S
O276 Mn252 2.385 . S
O276 C254 1.234 . S
O277 Mn252 2.209 . S
O277 Mn253 2.215 . S
O277 C254 1.283 . S
O278 Mn252 2.094 . S
O278 C256 1.240 . S
O279 Mn253 2.117 . S
O279 C256 1.264 . S
C280 C273 1.403 . S
C280 C281 1.399 . S
C280 H286 0.929 . S
C281 C261 1.449 . S
C281 C280 1.399 . S
C281 H287 0.930 . S
H282 C262 0.931 . S
H283 C263 0.930 . S
H284 C271 0.931 . S
H285 C272 0.929 . S
H286 C280 0.929 . S
H287 C281 0.930 . S
Mn288 O293 2.095 . S
Mn288 O303 2.162 . S
Mn288 O304 2.297 . S
Mn288 O312 2.385 . S
Mn288 O313 2.209 . S
Mn288 O314 2.094 . S
Mn289 O294 2.121 . S
Mn289 N296 2.257 . S
Mn289 N305 2.282 . S
Mn289 O313 2.215 . S
Mn289 O315 2.117 . S
C290 O312 1.234 . S
C290 O313 1.283 . S
C291 O303 1.281 . S
C291 O304 1.236 . S
C292 O314 1.240 . S
C292 O315 1.264 . S
O293 Mn288 2.095 . S
O293 C302 1.250 . S
O294 Mn289 2.121 . S
O294 C302 1.258 . S
C295 N296 1.326 . S
C295 C299 1.460 . S
C295 H301 0.929 . S
N296 Mn289 2.257 . S
N296 C295 1.326 . S
N296 C300 1.362 . S
C297 C298 1.258 . S
C297 C300 1.431 . S
C297 C317 1.449 . S
C298 C297 1.258 . S
C298 C299 1.477 . S
C298 H318 0.931 . S
C299 C295 1.460 . S
C299 C298 1.477 . S
C299 H319 0.930 . S
C300 N296 1.362 . S
C300 C297 1.431 . S
C300 C310 1.476 . S
H301 C295 0.929 . S
C302 O293 1.250 . S
C302 O294 1.258 . S
O303 Mn288 2.162 . S
O303 C291 1.281 . S
O304 Mn288 2.297 . S
O304 C291 1.236 . S
N305 Mn289 2.282 . S
N305 C306 1.328 . S
N305 C310 1.318 . S
C306 N305 1.328 . S
C306 C307 1.457 . S
C306 H311 0.929 . S
C307 C306 1.457 . S
C307 C308 1.291 . S
C307 H320 0.931 . S
C308 C307 1.291 . S
C308 C309 1.373 . S
C308 H321 0.929 . S
C309 C308 1.373 . S
C309 C310 1.396 . S
C309 C316 1.403 . S
C310 C300 1.476 . S
C310 N305 1.318 . S
C310 C309 1.396 . S
H311 C306 0.929 . S
O312 Mn288 2.385 . S
O312 C290 1.234 . S
O313 Mn288 2.209 . S
O313 Mn289 2.215 . S
O313 C290 1.283 . S
O314 Mn288 2.094 . S
O314 C292 1.240 . S
O315 Mn289 2.117 . S
O315 C292 1.264 . S
C316 C309 1.403 . S
C316 C317 1.399 . S
C316 H322 0.929 . S
C317 C297 1.449 . S
C317 C316 1.399 . S
C317 H323 0.930 . S
H318 C298 0.931 . S
H319 C299 0.930 . S
H320 C307 0.931 . S
H321 C308 0.929 . S
H322 C316 0.929 . S
H323 C317 0.930 . S
Mn324 O329 2.095 . S
Mn324 O339 2.162 . S
Mn324 O340 2.297 . S
Mn324 O348 2.385 . S
Mn324 O349 2.209 . S
Mn324 O350 2.094 . S
Mn325 O330 2.121 . S
Mn325 N332 2.257 . S
Mn325 N341 2.282 . S
Mn325 O349 2.215 . S
Mn325 O351 2.117 . S
C326 O348 1.234 . S
C326 O349 1.283 . S
C327 O339 1.281 . S
C327 O340 1.236 . S
C328 O350 1.240 . S
C328 O351 1.264 . S
O329 Mn324 2.095 . S
O329 C338 1.250 . S
O330 Mn325 2.121 . S
O330 C338 1.258 . S
C331 N332 1.326 . S
C331 C335 1.460 . S
C331 H337 0.929 . S
N332 Mn325 2.257 . S
N332 C331 1.326 . S
N332 C336 1.362 . S
C333 C334 1.258 . S
C333 C336 1.431 . S
C333 C353 1.449 . S
C334 C333 1.258 . S
C334 C335 1.477 . S
C334 H354 0.931 . S
C335 C331 1.460 . S
C335 C334 1.477 . S
C335 H355 0.930 . S
C336 N332 1.362 . S
C336 C333 1.431 . S
C336 C346 1.476 . S
H337 C331 0.929 . S
C338 O329 1.250 . S
C338 O330 1.258 . S
O339 Mn324 2.162 . S
O339 C327 1.281 . S
O340 Mn324 2.297 . S
O340 C327 1.236 . S
N341 Mn325 2.282 . S
N341 C342 1.328 . S
N341 C346 1.318 . S
C342 N341 1.328 . S
C342 C343 1.457 . S
C342 H347 0.929 . S
C343 C342 1.457 . S
C343 C344 1.291 . S
C343 H356 0.931 . S
C344 C343 1.291 . S
C344 C345 1.373 . S
C344 H357 0.929 . S
C345 C344 1.373 . S
C345 C346 1.396 . S
C345 C352 1.403 . S
C346 C336 1.476 . S
C346 N341 1.318 . S
C346 C345 1.396 . S
H347 C342 0.929 . S
O348 Mn324 2.385 . S
O348 C326 1.234 . S
O349 Mn324 2.209 . S
O349 Mn325 2.215 . S
O349 C326 1.283 . S
O350 Mn324 2.094 . S
O350 C328 1.240 . S
O351 Mn325 2.117 . S
O351 C328 1.264 . S
C352 C345 1.403 . S
C352 C353 1.399 . S
C352 H358 0.929 . S
C353 C333 1.449 . S
C353 C352 1.399 . S
C353 H359 0.930 . S
H354 C334 0.931 . S
H355 C335 0.930 . S
H356 C343 0.931 . S
H357 C344 0.929 . S
H358 C352 0.929 . S
H359 C353 0.930 . S
Mn360 O365 2.095 . S
Mn360 O375 2.162 . S
Mn360 O376 2.297 . S
Mn360 O384 2.385 . S
Mn360 O385 2.209 . S
Mn360 O386 2.094 . S
Mn361 O366 2.121 . S
Mn361 N368 2.257 1_554 S
Mn361 N377 2.282 1_554 S
Mn361 O385 2.215 . S
Mn361 O387 2.117 . S
C362 O384 1.234 . S
C362 O385 1.283 . S
C363 O375 1.281 . S
C363 O376 1.236 . S
C364 O386 1.240 . S
C364 O387 1.264 . S
O365 Mn360 2.095 . S
O365 C374 1.250 . S
O366 Mn361 2.121 . S
O366 C374 1.258 . S
C367 N368 1.326 . S
C367 C371 1.460 . S
C367 H373 0.929 . S
N368 Mn361 2.257 1_556 S
N368 C367 1.326 . S
N368 C372 1.362 . S
C369 C370 1.258 . S
C369 C372 1.431 . S
C369 C389 1.449 . S
C370 C369 1.258 . S
C370 C371 1.477 . S
C370 H390 0.931 . S
C371 C367 1.460 . S
C371 C370 1.477 . S
C371 H391 0.930 . S
C372 N368 1.362 . S
C372 C369 1.431 . S
C372 C382 1.476 . S
H373 C367 0.929 . S
C374 O365 1.250 . S
C374 O366 1.258 . S
O375 Mn360 2.162 . S
O375 C363 1.281 . S
O376 Mn360 2.297 . S
O376 C363 1.236 . S
N377 Mn361 2.282 1_556 S
N377 C378 1.328 1_556 S
N377 C382 1.318 . S
C378 N377 1.328 1_554 S
C378 C379 1.457 1_554 S
C378 H383 0.929 . S
C379 C378 1.457 1_556 S
C379 C380 1.291 . S
C379 H392 0.931 . S
C380 C379 1.291 . S
C380 C381 1.373 . S
C380 H393 0.929 . S
C381 C380 1.373 . S
C381 C382 1.396 . S
C381 C388 1.403 . S
C382 C372 1.476 . S
C382 N377 1.318 . S
C382 C381 1.396 . S
H383 C378 0.929 . S
O384 Mn360 2.385 . S
O384 C362 1.234 . S
O385 Mn360 2.209 . S
O385 Mn361 2.215 . S
O385 C362 1.283 . S
O386 Mn360 2.094 . S
O386 C364 1.240 . S
O387 Mn361 2.117 . S
O387 C364 1.264 . S
C388 C381 1.403 . S
C388 C389 1.399 . S
C388 H394 0.929 . S
C389 C369 1.449 . S
C389 C388 1.399 . S
C389 H395 0.930 . S
H390 C370 0.931 . S
H391 C371 0.930 . S
H392 C379 0.931 . S
H393 C380 0.929 . S
H394 C388 0.929 . S
H395 C389 0.930 . S
Mn396 O401 2.095 . S
Mn396 O411 2.162 . S
Mn396 O412 2.297 . S
Mn396 O420 2.385 . S
Mn396 O421 2.209 . S
Mn396 O422 2.094 . S
Mn397 O402 2.121 . S
Mn397 N404 2.257 . S
Mn397 N413 2.282 . S
Mn397 O421 2.215 . S
Mn397 O423 2.117 . S
C398 O420 1.234 . S
C398 O421 1.283 . S
C399 O411 1.281 . S
C399 O412 1.236 . S
C400 O422 1.240 . S
C400 O423 1.264 . S
O401 Mn396 2.095 . S
O401 C410 1.250 . S
O402 Mn397 2.121 . S
O402 C410 1.258 . S
C403 N404 1.326 . S
C403 C407 1.460 . S
C403 H409 0.929 . S
N404 Mn397 2.257 . S
N404 C403 1.326 . S
N404 C408 1.362 . S
C405 C406 1.258 . S
C405 C408 1.431 . S
C405 C425 1.449 . S
C406 C405 1.258 . S
C406 C407 1.477 . S
C406 H426 0.931 . S
C407 C403 1.460 . S
C407 C406 1.477 . S
C407 H427 0.930 . S
C408 N404 1.362 . S
C408 C405 1.431 . S
C408 C418 1.476 . S
H409 C403 0.929 . S
C410 O401 1.250 . S
C410 O402 1.258 . S
O411 Mn396 2.162 . S
O411 C399 1.281 . S
O412 Mn396 2.297 . S
O412 C399 1.236 . S
N413 Mn397 2.282 . S
N413 C414 1.328 . S
N413 C418 1.318 . S
C414 N413 1.328 . S
C414 C415 1.457 . S
C414 H419 0.929 . S
C415 C414 1.457 . S
C415 C416 1.291 . S
C415 H428 0.931 . S
C416 C415 1.291 . S
C416 C417 1.373 . S
C416 H429 0.929 . S
C417 C416 1.373 . S
C417 C418 1.396 . S
C417 C424 1.403 . S
C418 C408 1.476 . S
C418 N413 1.318 . S
C418 C417 1.396 . S
H419 C414 0.929 . S
O420 Mn396 2.385 . S
O420 C398 1.234 . S
O421 Mn396 2.209 . S
O421 Mn397 2.215 . S
O421 C398 1.283 . S
O422 Mn396 2.094 . S
O422 C400 1.240 . S
O423 Mn397 2.117 . S
O423 C400 1.264 . S
C424 C417 1.403 . S
C424 C425 1.399 . S
C424 H430 0.929 . S
C425 C405 1.449 . S
C425 C424 1.399 . S
C425 H431 0.930 . S
H426 C406 0.931 . S
H427 C407 0.930 . S
H428 C415 0.931 . S
H429 C416 0.929 . S
H430 C424 0.929 . S
H431 C425 0.930 . S
Mn432 O437 2.095 . S
Mn432 O447 2.162 . S
Mn432 O448 2.297 . S
Mn432 O456 2.385 . S
Mn432 O457 2.209 . S
Mn432 O458 2.094 . S
Mn433 O438 2.121 . S
Mn433 N440 2.257 1_556 S
Mn433 N449 2.282 1_556 S
Mn433 O457 2.215 . S
Mn433 O459 2.117 . S
C434 O456 1.234 . S
C434 O457 1.283 . S
C435 O447 1.281 . S
C435 O448 1.236 . S
C436 O458 1.240 . S
C436 O459 1.264 . S
O437 Mn432 2.095 . S
O437 C446 1.250 . S
O438 Mn433 2.121 . S
O438 C446 1.258 . S
C439 N440 1.326 . S
C439 C443 1.460 . S
C439 H445 0.929 . S
N440 Mn433 2.257 1_554 S
N440 C439 1.326 . S
N440 C444 1.362 . S
C441 C442 1.258 . S
C441 C444 1.431 . S
C441 C461 1.449 . S
C442 C441 1.258 . S
C442 C443 1.477 . S
C442 H462 0.931 . S
C443 C439 1.460 . S
C443 C442 1.477 . S
C443 H463 0.930 . S
C444 N440 1.362 . S
C444 C441 1.431 . S
C444 C454 1.476 . S
H445 C439 0.929 . S
C446 O437 1.250 . S
C446 O438 1.258 . S
O447 Mn432 2.162 . S
O447 C435 1.281 . S
O448 Mn432 2.297 . S
O448 C435 1.236 . S
N449 Mn433 2.282 1_554 S
N449 C450 1.328 1_554 S
N449 C454 1.318 . S
C450 N449 1.328 1_556 S
C450 C451 1.457 1_556 S
C450 H455 0.929 . S
C451 C450 1.457 1_554 S
C451 C452 1.291 . S
C451 H464 0.931 . S
C452 C451 1.291 . S
C452 C453 1.373 . S
C452 H465 0.929 . S
C453 C452 1.373 . S
C453 C454 1.396 . S
C453 C460 1.403 . S
C454 C444 1.476 . S
C454 N449 1.318 . S
C454 C453 1.396 . S
H455 C450 0.929 . S
O456 Mn432 2.385 . S
O456 C434 1.234 . S
O457 Mn432 2.209 . S
O457 Mn433 2.215 . S
O457 C434 1.283 . S
O458 Mn432 2.094 . S
O458 C436 1.240 . S
O459 Mn433 2.117 . S
O459 C436 1.264 . S
C460 C453 1.403 . S
C460 C461 1.399 . S
C460 H466 0.929 . S
C461 C441 1.449 . S
C461 C460 1.399 . S
C461 H467 0.930 . S
H462 C442 0.931 . S
H463 C443 0.930 . S
H464 C451 0.931 . S
H465 C452 0.929 . S
H466 C460 0.929 . S
H467 C461 0.930 . S
Mn468 O473 2.095 . S
Mn468 O483 2.162 . S
Mn468 O484 2.297 . S
Mn468 O492 2.385 . S
Mn468 O493 2.209 . S
Mn468 O494 2.094 . S
Mn469 O474 2.121 . S
Mn469 N476 2.257 . S
Mn469 N485 2.282 . S
Mn469 O493 2.215 . S
Mn469 O495 2.117 . S
C470 O492 1.234 . S
C470 O493 1.283 . S
C471 O483 1.281 . S
C471 O484 1.236 . S
C472 O494 1.240 . S
C472 O495 1.264 . S
O473 Mn468 2.095 . S
O473 C482 1.250 . S
O474 Mn469 2.121 . S
O474 C482 1.258 . S
C475 N476 1.326 . S
C475 C479 1.460 . S
C475 H481 0.929 . S
N476 Mn469 2.257 . S
N476 C475 1.326 . S
N476 C480 1.362 . S
C477 C478 1.258 . S
C477 C480 1.431 . S
C477 C497 1.449 . S
C478 C477 1.258 . S
C478 C479 1.477 . S
C478 H498 0.931 . S
C479 C475 1.460 . S
C479 C478 1.477 . S
C479 H499 0.930 . S
C480 N476 1.362 . S
C480 C477 1.431 . S
C480 C490 1.476 . S
H481 C475 0.929 . S
C482 O473 1.250 . S
C482 O474 1.258 . S
O483 Mn468 2.162 . S
O483 C471 1.281 . S
O484 Mn468 2.297 . S
O484 C471 1.236 . S
N485 Mn469 2.282 . S
N485 C486 1.328 . S
N485 C490 1.318 . S
C486 N485 1.328 . S
C486 C487 1.457 . S
C486 H491 0.929 . S
C487 C486 1.457 . S
C487 C488 1.291 . S
C487 H500 0.931 . S
C488 C487 1.291 . S
C488 C489 1.373 . S
C488 H501 0.929 . S
C489 C488 1.373 . S
C489 C490 1.396 . S
C489 C496 1.403 . S
C490 C480 1.476 . S
C490 N485 1.318 . S
C490 C489 1.396 . S
H491 C486 0.929 . S
O492 Mn468 2.385 . S
O492 C470 1.234 . S
O493 Mn468 2.209 . S
O493 Mn469 2.215 . S
O493 C470 1.283 . S
O494 Mn468 2.094 . S
O494 C472 1.240 . S
O495 Mn469 2.117 . S
O495 C472 1.264 . S
C496 C489 1.403 . S
C496 C497 1.399 . S
C496 H502 0.929 . S
C497 C477 1.449 . S
C497 C496 1.399 . S
C497 H503 0.930 . S
H498 C478 0.931 . S
H499 C479 0.930 . S
H500 C487 0.931 . S
H501 C488 0.929 . S
H502 C496 0.929 . S
H503 C497 0.930 . S
Mn504 O509 2.095 . S
Mn504 O519 2.162 . S
Mn504 O520 2.297 . S
Mn504 O528 2.385 . S
Mn504 O529 2.209 . S
Mn504 O530 2.094 . S
Mn505 O510 2.121 . S
Mn505 N512 2.257 . S
Mn505 N521 2.282 . S
Mn505 O529 2.215 . S
Mn505 O531 2.117 . S
C506 O528 1.234 . S
C506 O529 1.283 . S
C507 O519 1.281 . S
C507 O520 1.236 . S
C508 O530 1.240 . S
C508 O531 1.264 . S
O509 Mn504 2.095 . S
O509 C518 1.250 . S
O510 Mn505 2.121 . S
O510 C518 1.258 . S
C511 N512 1.326 . S
C511 C515 1.460 . S
C511 H517 0.929 . S
N512 Mn505 2.257 . S
N512 C511 1.326 . S
N512 C516 1.362 . S
C513 C514 1.258 . S
C513 C516 1.431 . S
C513 C533 1.449 . S
C514 C513 1.258 . S
C514 C515 1.477 . S
C514 H534 0.931 . S
C515 C511 1.460 . S
C515 C514 1.477 . S
C515 H535 0.930 . S
C516 N512 1.362 . S
C516 C513 1.431 . S
C516 C526 1.476 . S
H517 C511 0.929 . S
C518 O509 1.250 . S
C518 O510 1.258 . S
O519 Mn504 2.162 . S
O519 C507 1.281 . S
O520 Mn504 2.297 . S
O520 C507 1.236 . S
N521 Mn505 2.282 . S
N521 C522 1.328 . S
N521 C526 1.318 . S
C522 N521 1.328 . S
C522 C523 1.457 . S
C522 H527 0.929 . S
C523 C522 1.457 . S
C523 C524 1.291 . S
C523 H536 0.931 . S
C524 C523 1.291 . S
C524 C525 1.373 . S
C524 H537 0.929 . S
C525 C524 1.373 . S
C525 C526 1.396 . S
C525 C532 1.403 . S
C526 C516 1.476 . S
C526 N521 1.318 . S
C526 C525 1.396 . S
H527 C522 0.929 . S
O528 Mn504 2.385 . S
O528 C506 1.234 . S
O529 Mn504 2.209 . S
O529 Mn505 2.215 . S
O529 C506 1.283 . S
O530 Mn504 2.094 . S
O530 C508 1.240 . S
O531 Mn505 2.117 . S
O531 C508 1.264 . S
C532 C525 1.403 . S
C532 C533 1.399 . S
C532 H538 0.929 . S
C533 C513 1.449 . S
C533 C532 1.399 . S
C533 H539 0.930 . S
H534 C514 0.931 . S
H535 C515 0.930 . S
H536 C523 0.931 . S
H537 C524 0.929 . S
H538 C532 0.929 . S
H539 C533 0.930 . S
Mn540 O545 2.095 . S
Mn540 O555 2.162 . S
Mn540 O556 2.297 . S
Mn540 O564 2.385 . S
Mn540 O565 2.209 . S
Mn540 O566 2.094 . S
Mn541 O546 2.121 . S
Mn541 N548 2.257 . S
Mn541 N557 2.282 . S
Mn541 O565 2.215 . S
Mn541 O567 2.117 . S
C542 O564 1.234 . S
C542 O565 1.283 . S
C543 O555 1.281 . S
C543 O556 1.236 . S
C544 O566 1.240 . S
C544 O567 1.264 . S
O545 Mn540 2.095 . S
O545 C554 1.250 . S
O546 Mn541 2.121 . S
O546 C554 1.258 . S
C547 N548 1.326 . S
C547 C551 1.460 . S
C547 H553 0.929 . S
N548 Mn541 2.257 . S
N548 C547 1.326 . S
N548 C552 1.362 . S
C549 C550 1.258 . S
C549 C552 1.431 . S
C549 C569 1.449 . S
C550 C549 1.258 . S
C550 C551 1.477 . S
C550 H570 0.931 . S
C551 C547 1.460 . S
C551 C550 1.477 . S
C551 H571 0.930 . S
C552 N548 1.362 . S
C552 C549 1.431 . S
C552 C562 1.476 . S
H553 C547 0.929 . S
C554 O545 1.250 . S
C554 O546 1.258 . S
O555 Mn540 2.162 . S
O555 C543 1.281 . S
O556 Mn540 2.297 . S
O556 C543 1.236 . S
N557 Mn541 2.282 . S
N557 C558 1.328 . S
N557 C562 1.318 . S
C558 N557 1.328 . S
C558 C559 1.457 . S
C558 H563 0.929 . S
C559 C558 1.457 . S
C559 C560 1.291 . S
C559 H572 0.931 . S
C560 C559 1.291 . S
C560 C561 1.373 . S
C560 H573 0.929 . S
C561 C560 1.373 . S
C561 C562 1.396 . S
C561 C568 1.403 . S
C562 C552 1.476 . S
C562 N557 1.318 . S
C562 C561 1.396 . S
H563 C558 0.929 . S
O564 Mn540 2.385 . S
O564 C542 1.234 . S
O565 Mn540 2.209 . S
O565 Mn541 2.215 . S
O565 C542 1.283 . S
O566 Mn540 2.094 . S
O566 C544 1.240 . S
O567 Mn541 2.117 . S
O567 C544 1.264 . S
C568 C561 1.403 . S
C568 C569 1.399 . S
C568 H574 0.929 . S
C569 C549 1.449 . S
C569 C568 1.399 . S
C569 H575 0.930 . S
H570 C550 0.931 . S
H571 C551 0.930 . S
H572 C559 0.931 . S
H573 C560 0.929 . S
H574 C568 0.929 . S
H575 C569 0.930 . S
Mn576 O581 2.095 . S
Mn576 O591 2.162 . S
Mn576 O592 2.297 . S
Mn576 O600 2.385 . S
Mn576 O601 2.209 . S
Mn576 O602 2.094 . S
Mn577 O582 2.121 . S
Mn577 N584 2.257 1_556 S
Mn577 N593 2.282 1_556 S
Mn577 O601 2.215 . S
Mn577 O603 2.117 . S
C578 O600 1.234 . S
C578 O601 1.283 . S
C579 O591 1.281 . S
C579 O592 1.236 . S
C580 O602 1.240 . S
C580 O603 1.264 . S
O581 Mn576 2.095 . S
O581 C590 1.250 . S
O582 Mn577 2.121 . S
O582 C590 1.258 . S
C583 N584 1.326 . S
C583 C587 1.460 . S
C583 H589 0.929 . S
N584 Mn577 2.257 1_554 S
N584 C583 1.326 . S
N584 C588 1.362 . S
C585 C586 1.258 . S
C585 C588 1.431 . S
C585 C605 1.449 . S
C586 C585 1.258 . S
C586 C587 1.477 . S
C586 H606 0.931 . S
C587 C583 1.460 . S
C587 C586 1.477 . S
C587 H607 0.930 . S
C588 N584 1.362 . S
C588 C585 1.431 . S
C588 C598 1.476 . S
H589 C583 0.929 . S
C590 O581 1.250 . S
C590 O582 1.258 . S
O591 Mn576 2.162 . S
O591 C579 1.281 . S
O592 Mn576 2.297 . S
O592 C579 1.236 . S
N593 Mn577 2.282 1_554 S
N593 C594 1.328 1_554 S
N593 C598 1.318 . S
C594 N593 1.328 1_556 S
C594 C595 1.457 1_556 S
C594 H599 0.929 . S
C595 C594 1.457 1_554 S
C595 C596 1.291 . S
C595 H608 0.931 . S
C596 C595 1.291 . S
C596 C597 1.373 . S
C596 H609 0.929 . S
C597 C596 1.373 . S
C597 C598 1.396 . S
C597 C604 1.403 . S
C598 C588 1.476 . S
C598 N593 1.318 . S
C598 C597 1.396 . S
H599 C594 0.929 . S
O600 Mn576 2.385 . S
O600 C578 1.234 . S
O601 Mn576 2.209 . S
O601 Mn577 2.215 . S
O601 C578 1.283 . S
O602 Mn576 2.094 . S
O602 C580 1.240 . S
O603 Mn577 2.117 . S
O603 C580 1.264 . S
C604 C597 1.403 . S
C604 C605 1.399 . S
C604 H610 0.929 . S
C605 C585 1.449 . S
C605 C604 1.399 . S
C605 H611 0.930 . S
H606 C586 0.931 . S
H607 C587 0.930 . S
H608 C595 0.931 . S
H609 C596 0.929 . S
H610 C604 0.929 . S
H611 C605 0.930 . S
Mn612 O617 2.095 . S
Mn612 O627 2.162 . S
Mn612 O628 2.297 . S
Mn612 O636 2.385 . S
Mn612 O637 2.209 . S
Mn612 O638 2.094 . S
Mn613 O618 2.121 . S
Mn613 N620 2.257 . S
Mn613 N629 2.282 . S
Mn613 O637 2.215 . S
Mn613 O639 2.117 . S
C614 O636 1.234 . S
C614 O637 1.283 . S
C615 O627 1.281 . S
C615 O628 1.236 . S
C616 O638 1.240 . S
C616 O639 1.264 . S
O617 Mn612 2.095 . S
O617 C626 1.250 . S
O618 Mn613 2.121 . S
O618 C626 1.258 . S
C619 N620 1.326 . S
C619 C623 1.460 . S
C619 H625 0.929 . S
N620 Mn613 2.257 . S
N620 C619 1.326 . S
N620 C624 1.362 . S
C621 C622 1.258 . S
C621 C624 1.431 . S
C621 C641 1.449 . S
C622 C621 1.258 . S
C622 C623 1.477 . S
C622 H642 0.931 . S
C623 C619 1.460 . S
C623 C622 1.477 . S
C623 H643 0.930 . S
C624 N620 1.362 . S
C624 C621 1.431 . S
C624 C634 1.476 . S
H625 C619 0.929 . S
C626 O617 1.250 . S
C626 O618 1.258 . S
O627 Mn612 2.162 . S
O627 C615 1.281 . S
O628 Mn612 2.297 . S
O628 C615 1.236 . S
N629 Mn613 2.282 . S
N629 C630 1.328 . S
N629 C634 1.318 . S
C630 N629 1.328 . S
C630 C631 1.457 . S
C630 H635 0.929 . S
C631 C630 1.457 . S
C631 C632 1.291 . S
C631 H644 0.931 . S
C632 C631 1.291 . S
C632 C633 1.373 . S
C632 H645 0.929 . S
C633 C632 1.373 . S
C633 C634 1.396 . S
C633 C640 1.403 . S
C634 C624 1.476 . S
C634 N629 1.318 . S
C634 C633 1.396 . S
H635 C630 0.929 . S
O636 Mn612 2.385 . S
O636 C614 1.234 . S
O637 Mn612 2.209 . S
O637 Mn613 2.215 . S
O637 C614 1.283 . S
O638 Mn612 2.094 . S
O638 C616 1.240 . S
O639 Mn613 2.117 . S
O639 C616 1.264 . S
C640 C633 1.403 . S
C640 C641 1.399 . S
C640 H646 0.929 . S
C641 C621 1.449 . S
C641 C640 1.399 . S
C641 H647 0.930 . S
H642 C622 0.931 . S
H643 C623 0.930 . S
H644 C631 0.931 . S
H645 C632 0.929 . S
H646 C640 0.929 . S
H647 C641 0.930 . S
Mn648 O653 2.095 . S
Mn648 O663 2.162 . S
Mn648 O664 2.297 . S
Mn648 O672 2.385 . S
Mn648 O673 2.209 . S
Mn648 O674 2.094 . S
Mn649 O654 2.121 . S
Mn649 N656 2.257 . S
Mn649 N665 2.282 . S
Mn649 O673 2.215 . S
Mn649 O675 2.117 . S
C650 O672 1.234 . S
C650 O673 1.283 . S
C651 O663 1.281 . S
C651 O664 1.236 . S
C652 O674 1.240 . S
C652 O675 1.264 . S
O653 Mn648 2.095 . S
O653 C662 1.250 . S
O654 Mn649 2.121 . S
O654 C662 1.258 . S
C655 N656 1.326 . S
C655 C659 1.460 . S
C655 H661 0.929 . S
N656 Mn649 2.257 . S
N656 C655 1.326 . S
N656 C660 1.362 . S
C657 C658 1.258 . S
C657 C660 1.431 . S
C657 C677 1.449 . S
C658 C657 1.258 . S
C658 C659 1.477 . S
C658 H678 0.931 . S
C659 C655 1.460 . S
C659 C658 1.477 . S
C659 H679 0.930 . S
C660 N656 1.362 . S
C660 C657 1.431 . S
C660 C670 1.476 . S
H661 C655 0.929 . S
C662 O653 1.250 . S
C662 O654 1.258 . S
O663 Mn648 2.162 . S
O663 C651 1.281 . S
O664 Mn648 2.297 . S
O664 C651 1.236 . S
N665 Mn649 2.282 . S
N665 C666 1.328 . S
N665 C670 1.318 . S
C666 N665 1.328 . S
C666 C667 1.457 . S
C666 H671 0.929 . S
C667 C666 1.457 . S
C667 C668 1.291 . S
C667 H680 0.931 . S
C668 C667 1.291 . S
C668 C669 1.373 . S
C668 H681 0.929 . S
C669 C668 1.373 . S
C669 C670 1.396 . S
C669 C676 1.403 . S
C670 C660 1.476 . S
C670 N665 1.318 . S
C670 C669 1.396 . S
H671 C666 0.929 . S
O672 Mn648 2.385 . S
O672 C650 1.234 . S
O673 Mn648 2.209 . S
O673 Mn649 2.215 . S
O673 C650 1.283 . S
O674 Mn648 2.094 . S
O674 C652 1.240 . S
O675 Mn649 2.117 . S
O675 C652 1.264 . S
C676 C669 1.403 . S
C676 C677 1.399 . S
C676 H682 0.929 . S
C677 C657 1.449 . S
C677 C676 1.399 . S
C677 H683 0.930 . S
H678 C658 0.931 . S
H679 C659 0.930 . S
H680 C667 0.931 . S
H681 C668 0.929 . S
H682 C676 0.929 . S
H683 C677 0.930 . S
Mn684 O689 2.095 . S
Mn684 O699 2.162 . S
Mn684 O700 2.297 . S
Mn684 O708 2.385 . S
Mn684 O709 2.209 . S
Mn684 O710 2.094 . S
Mn685 O690 2.121 . S
Mn685 N692 2.257 . S
Mn685 N701 2.282 . S
Mn685 O709 2.215 . S
Mn685 O711 2.117 . S
C686 O708 1.234 . S
C686 O709 1.283 . S
C687 O699 1.281 . S
C687 O700 1.236 . S
C688 O710 1.240 . S
C688 O711 1.264 . S
O689 Mn684 2.095 . S
O689 C698 1.250 . S
O690 Mn685 2.121 . S
O690 C698 1.258 . S
C691 N692 1.326 . S
C691 C695 1.460 . S
C691 H697 0.929 . S
N692 Mn685 2.257 . S
N692 C691 1.326 . S
N692 C696 1.362 . S
C693 C694 1.258 . S
C693 C696 1.431 . S
C693 C713 1.449 . S
C694 C693 1.258 . S
C694 C695 1.477 . S
C694 H714 0.931 . S
C695 C691 1.460 . S
C695 C694 1.477 . S
C695 H715 0.930 . S
C696 N692 1.362 . S
C696 C693 1.431 . S
C696 C706 1.476 . S
H697 C691 0.929 . S
C698 O689 1.250 . S
C698 O690 1.258 . S
O699 Mn684 2.162 . S
O699 C687 1.281 . S
O700 Mn684 2.297 . S
O700 C687 1.236 . S
N701 Mn685 2.282 . S
N701 C702 1.328 . S
N701 C706 1.318 . S
C702 N701 1.328 . S
C702 C703 1.457 . S
C702 H707 0.929 . S
C703 C702 1.457 . S
C703 C704 1.291 . S
C703 H716 0.931 . S
C704 C703 1.291 . S
C704 C705 1.373 . S
C704 H717 0.929 . S
C705 C704 1.373 . S
C705 C706 1.396 . S
C705 C712 1.403 . S
C706 C696 1.476 . S
C706 N701 1.318 . S
C706 C705 1.396 . S
H707 C702 0.929 . S
O708 Mn684 2.385 . S
O708 C686 1.234 . S
O709 Mn684 2.209 . S
O709 Mn685 2.215 . S
O709 C686 1.283 . S
O710 Mn684 2.094 . S
O710 C688 1.240 . S
O711 Mn685 2.117 . S
O711 C688 1.264 . S
C712 C705 1.403 . S
C712 C713 1.399 . S
C712 H718 0.929 . S
C713 C693 1.449 . S
C713 C712 1.399 . S
C713 H719 0.930 . S
H714 C694 0.931 . S
H715 C695 0.930 . S
H716 C703 0.931 . S
H717 C704 0.929 . S
H718 C712 0.929 . S
H719 C713 0.930 . S
Mn720 O725 2.095 . S
Mn720 O735 2.162 . S
Mn720 O736 2.297 . S
Mn720 O744 2.385 . S
Mn720 O745 2.209 . S
Mn720 O746 2.094 . S
Mn721 O726 2.121 . S
Mn721 N728 2.257 . S
Mn721 N737 2.282 . S
Mn721 O745 2.215 . S
Mn721 O747 2.117 . S
C722 O744 1.234 . S
C722 O745 1.283 . S
C723 O735 1.281 . S
C723 O736 1.236 . S
C724 O746 1.240 . S
C724 O747 1.264 . S
O725 Mn720 2.095 . S
O725 C734 1.250 . S
O726 Mn721 2.121 . S
O726 C734 1.258 . S
C727 N728 1.326 . S
C727 C731 1.460 . S
C727 H733 0.929 . S
N728 Mn721 2.257 . S
N728 C727 1.326 . S
N728 C732 1.362 . S
C729 C730 1.258 . S
C729 C732 1.431 . S
C729 C749 1.449 . S
C730 C729 1.258 . S
C730 C731 1.477 . S
C730 H750 0.931 . S
C731 C727 1.460 . S
C731 C730 1.477 . S
C731 H751 0.930 . S
C732 N728 1.362 . S
C732 C729 1.431 . S
C732 C742 1.476 . S
H733 C727 0.929 . S
C734 O725 1.250 . S
C734 O726 1.258 . S
O735 Mn720 2.162 . S
O735 C723 1.281 . S
O736 Mn720 2.297 . S
O736 C723 1.236 . S
N737 Mn721 2.282 . S
N737 C738 1.328 . S
N737 C742 1.318 . S
C738 N737 1.328 . S
C738 C739 1.457 . S
C738 H743 0.929 . S
C739 C738 1.457 . S
C739 C740 1.291 . S
C739 H752 0.931 . S
C740 C739 1.291 . S
C740 C741 1.373 . S
C740 H753 0.929 . S
C741 C740 1.373 . S
C741 C742 1.396 . S
C741 C748 1.403 . S
C742 C732 1.476 . S
C742 N737 1.318 . S
C742 C741 1.396 . S
H743 C738 0.929 . S
O744 Mn720 2.385 . S
O744 C722 1.234 . S
O745 Mn720 2.209 . S
O745 Mn721 2.215 . S
O745 C722 1.283 . S
O746 Mn720 2.094 . S
O746 C724 1.240 . S
O747 Mn721 2.117 . S
O747 C724 1.264 . S
C748 C741 1.403 . S
C748 C749 1.399 . S
C748 H754 0.929 . S
C749 C729 1.449 . S
C749 C748 1.399 . S
C749 H755 0.930 . S
H750 C730 0.931 . S
H751 C731 0.930 . S
H752 C739 0.931 . S
H753 C740 0.929 . S
H754 C748 0.929 . S
H755 C749 0.930 . S
Mn756 O761 2.095 . S
Mn756 O771 2.162 . S
Mn756 O772 2.297 . S
Mn756 O780 2.385 . S
Mn756 O781 2.209 . S
Mn756 O782 2.094 . S
Mn757 O762 2.121 . S
Mn757 N764 2.257 . S
Mn757 N773 2.282 . S
Mn757 O781 2.215 . S
Mn757 O783 2.117 . S
C758 O780 1.234 . S
C758 O781 1.283 . S
C759 O771 1.281 . S
C759 O772 1.236 . S
C760 O782 1.240 . S
C760 O783 1.264 . S
O761 Mn756 2.095 . S
O761 C770 1.250 . S
O762 Mn757 2.121 . S
O762 C770 1.258 . S
C763 N764 1.326 . S
C763 C767 1.460 . S
C763 H769 0.929 . S
N764 Mn757 2.257 . S
N764 C763 1.326 . S
N764 C768 1.362 . S
C765 C766 1.258 . S
C765 C768 1.431 . S
C765 C785 1.449 . S
C766 C765 1.258 . S
C766 C767 1.477 . S
C766 H786 0.931 . S
C767 C763 1.460 . S
C767 C766 1.477 . S
C767 H787 0.930 . S
C768 N764 1.362 . S
C768 C765 1.431 . S
C768 C778 1.476 . S
H769 C763 0.929 . S
C770 O761 1.250 . S
C770 O762 1.258 . S
O771 Mn756 2.162 . S
O771 C759 1.281 . S
O772 Mn756 2.297 . S
O772 C759 1.236 . S
N773 Mn757 2.282 . S
N773 C774 1.328 . S
N773 C778 1.318 . S
C774 N773 1.328 . S
C774 C775 1.457 . S
C774 H779 0.929 . S
C775 C774 1.457 . S
C775 C776 1.291 . S
C775 H788 0.931 . S
C776 C775 1.291 . S
C776 C777 1.373 . S
C776 H789 0.929 . S
C777 C776 1.373 . S
C777 C778 1.396 . S
C777 C784 1.403 . S
C778 C768 1.476 . S
C778 N773 1.318 . S
C778 C777 1.396 . S
H779 C774 0.929 . S
O780 Mn756 2.385 . S
O780 C758 1.234 . S
O781 Mn756 2.209 . S
O781 Mn757 2.215 . S
O781 C758 1.283 . S
O782 Mn756 2.094 . S
O782 C760 1.240 . S
O783 Mn757 2.117 . S
O783 C760 1.264 . S
C784 C777 1.403 . S
C784 C785 1.399 . S
C784 H790 0.929 . S
C785 C765 1.449 . S
C785 C784 1.399 . S
C785 H791 0.930 . S
H786 C766 0.931 . S
H787 C767 0.930 . S
H788 C775 0.931 . S
H789 C776 0.929 . S
H790 C784 0.929 . S
H791 C785 0.930 . S
Mn792 O797 2.095 . S
Mn792 O807 2.162 . S
Mn792 O808 2.297 . S
Mn792 O816 2.385 . S
Mn792 O817 2.209 . S
Mn792 O818 2.094 . S
Mn793 O798 2.121 . S
Mn793 N800 2.257 1_554 S
Mn793 N809 2.282 1_554 S
Mn793 O817 2.215 . S
Mn793 O819 2.117 . S
C794 O816 1.234 . S
C794 O817 1.283 . S
C795 O807 1.281 . S
C795 O808 1.236 . S
C796 O818 1.240 . S
C796 O819 1.264 . S
O797 Mn792 2.095 . S
O797 C806 1.250 . S
O798 Mn793 2.121 . S
O798 C806 1.258 . S
C799 N800 1.326 . S
C799 C803 1.460 . S
C799 H805 0.929 . S
N800 Mn793 2.257 1_556 S
N800 C799 1.326 . S
N800 C804 1.362 . S
C801 C802 1.258 . S
C801 C804 1.431 . S
C801 C821 1.449 . S
C802 C801 1.258 . S
C802 C803 1.477 . S
C802 H822 0.931 . S
C803 C799 1.460 . S
C803 C802 1.477 . S
C803 H823 0.930 . S
C804 N800 1.362 . S
C804 C801 1.431 . S
C804 C814 1.476 . S
H805 C799 0.929 . S
C806 O797 1.250 . S
C806 O798 1.258 . S
O807 Mn792 2.162 . S
O807 C795 1.281 . S
O808 Mn792 2.297 . S
O808 C795 1.236 . S
N809 Mn793 2.282 1_556 S
N809 C810 1.328 1_556 S
N809 C814 1.318 . S
C810 N809 1.328 1_554 S
C810 C811 1.457 1_554 S
C810 H815 0.929 . S
C811 C810 1.457 1_556 S
C811 C812 1.291 . S
C811 H824 0.931 . S
C812 C811 1.291 . S
C812 C813 1.373 . S
C812 H825 0.929 . S
C813 C812 1.373 . S
C813 C814 1.396 . S
C813 C820 1.403 . S
C814 C804 1.476 . S
C814 N809 1.318 . S
C814 C813 1.396 . S
H815 C810 0.929 . S
O816 Mn792 2.385 . S
O816 C794 1.234 . S
O817 Mn792 2.209 . S
O817 Mn793 2.215 . S
O817 C794 1.283 . S
O818 Mn792 2.094 . S
O818 C796 1.240 . S
O819 Mn793 2.117 . S
O819 C796 1.264 . S
C820 C813 1.403 . S
C820 C821 1.399 . S
C820 H826 0.929 . S
C821 C801 1.449 . S
C821 C820 1.399 . S
C821 H827 0.930 . S
H822 C802 0.931 . S
H823 C803 0.930 . S
H824 C811 0.931 . S
H825 C812 0.929 . S
H826 C820 0.929 . S
H827 C821 0.930 . S
Mn828 O833 2.095 . S
Mn828 O843 2.162 . S
Mn828 O844 2.297 . S
Mn828 O852 2.385 . S
Mn828 O853 2.209 . S
Mn828 O854 2.094 . S
Mn829 O834 2.121 . S
Mn829 N836 2.257 . S
Mn829 N845 2.282 . S
Mn829 O853 2.215 . S
Mn829 O855 2.117 . S
C830 O852 1.234 . S
C830 O853 1.283 . S
C831 O843 1.281 . S
C831 O844 1.236 . S
C832 O854 1.240 . S
C832 O855 1.264 . S
O833 Mn828 2.095 . S
O833 C842 1.250 . S
O834 Mn829 2.121 . S
O834 C842 1.258 . S
C835 N836 1.326 . S
C835 C839 1.460 . S
C835 H841 0.929 . S
N836 Mn829 2.257 . S
N836 C835 1.326 . S
N836 C840 1.362 . S
C837 C838 1.258 . S
C837 C840 1.431 . S
C837 C857 1.449 . S
C838 C837 1.258 . S
C838 C839 1.477 . S
C838 H858 0.931 . S
C839 C835 1.460 . S
C839 C838 1.477 . S
C839 H859 0.930 . S
C840 N836 1.362 . S
C840 C837 1.431 . S
C840 C850 1.476 . S
H841 C835 0.929 . S
C842 O833 1.250 . S
C842 O834 1.258 . S
O843 Mn828 2.162 . S
O843 C831 1.281 . S
O844 Mn828 2.297 . S
O844 C831 1.236 . S
N845 Mn829 2.282 . S
N845 C846 1.328 . S
N845 C850 1.318 . S
C846 N845 1.328 . S
C846 C847 1.457 . S
C846 H851 0.929 . S
C847 C846 1.457 . S
C847 C848 1.291 . S
C847 H860 0.931 . S
C848 C847 1.291 . S
C848 C849 1.373 . S
C848 H861 0.929 . S
C849 C848 1.373 . S
C849 C850 1.396 . S
C849 C856 1.403 . S
C850 C840 1.476 . S
C850 N845 1.318 . S
C850 C849 1.396 . S
H851 C846 0.929 . S
O852 Mn828 2.385 . S
O852 C830 1.234 . S
O853 Mn828 2.209 . S
O853 Mn829 2.215 . S
O853 C830 1.283 . S
O854 Mn828 2.094 . S
O854 C832 1.240 . S
O855 Mn829 2.117 . S
O855 C832 1.264 . S
C856 C849 1.403 . S
C856 C857 1.399 . S
C856 H862 0.929 . S
C857 C837 1.449 . S
C857 C856 1.399 . S
C857 H863 0.930 . S
H858 C838 0.931 . S
H859 C839 0.930 . S
H860 C847 0.931 . S
H861 C848 0.929 . S
H862 C856 0.929 . S
H863 C857 0.930 . S
Mn864 O869 2.095 . S
Mn864 O879 2.162 . S
Mn864 O880 2.297 . S
Mn864 O888 2.385 . S
Mn864 O889 2.209 . S
Mn864 O890 2.094 . S
Mn865 O870 2.121 . S
Mn865 N872 2.257 1_554 S
Mn865 N881 2.282 1_554 S
Mn865 O889 2.215 . S
Mn865 O891 2.117 . S
C866 O888 1.234 . S
C866 O889 1.283 . S
C867 O879 1.281 . S
C867 O880 1.236 . S
C868 O890 1.240 . S
C868 O891 1.264 . S
O869 Mn864 2.095 . S
O869 C878 1.250 . S
O870 Mn865 2.121 . S
O870 C878 1.258 . S
C871 N872 1.326 . S
C871 C875 1.460 . S
C871 H877 0.929 . S
N872 Mn865 2.257 1_556 S
N872 C871 1.326 . S
N872 C876 1.362 . S
C873 C874 1.258 . S
C873 C876 1.431 . S
C873 C893 1.449 . S
C874 C873 1.258 . S
C874 C875 1.477 . S
C874 H894 0.931 . S
C875 C871 1.460 . S
C875 C874 1.477 . S
C875 H895 0.930 . S
C876 N872 1.362 . S
C876 C873 1.431 . S
C876 C886 1.476 . S
H877 C871 0.929 . S
C878 O869 1.250 . S
C878 O870 1.258 . S
O879 Mn864 2.162 . S
O879 C867 1.281 . S
O880 Mn864 2.297 . S
O880 C867 1.236 . S
N881 Mn865 2.282 1_556 S
N881 C882 1.328 1_556 S
N881 C886 1.318 . S
C882 N881 1.328 1_554 S
C882 C883 1.457 1_554 S
C882 H887 0.929 . S
C883 C882 1.457 1_556 S
C883 C884 1.291 . S
C883 H896 0.931 . S
C884 C883 1.291 . S
C884 C885 1.373 . S
C884 H897 0.929 . S
C885 C884 1.373 . S
C885 C886 1.396 . S
C885 C892 1.403 . S
C886 C876 1.476 . S
C886 N881 1.318 . S
C886 C885 1.396 . S
H887 C882 0.929 . S
O888 Mn864 2.385 . S
O888 C866 1.234 . S
O889 Mn864 2.209 . S
O889 Mn865 2.215 . S
O889 C866 1.283 . S
O890 Mn864 2.094 . S
O890 C868 1.240 . S
O891 Mn865 2.117 . S
O891 C868 1.264 . S
C892 C885 1.403 . S
C892 C893 1.399 . S
C892 H898 0.929 . S
C893 C873 1.449 . S
C893 C892 1.399 . S
C893 H899 0.930 . S
H894 C874 0.931 . S
H895 C875 0.930 . S
H896 C883 0.931 . S
H897 C884 0.929 . S
H898 C892 0.929 . S
H899 C893 0.930 . S
Mn900 O905 2.095 . S
Mn900 O915 2.162 . S
Mn900 O916 2.297 . S
Mn900 O924 2.385 . S
Mn900 O925 2.209 . S
Mn900 O926 2.094 . S
Mn901 O906 2.121 . S
Mn901 N908 2.257 . S
Mn901 N917 2.282 . S
Mn901 O925 2.215 . S
Mn901 O927 2.117 . S
C902 O924 1.234 . S
C902 O925 1.283 . S
C903 O915 1.281 . S
C903 O916 1.236 . S
C904 O926 1.240 . S
C904 O927 1.264 . S
O905 Mn900 2.095 . S
O905 C914 1.250 . S
O906 Mn901 2.121 . S
O906 C914 1.258 . S
C907 N908 1.326 . S
C907 C911 1.460 . S
C907 H913 0.929 . S
N908 Mn901 2.257 . S
N908 C907 1.326 . S
N908 C912 1.362 . S
C909 C910 1.258 . S
C909 C912 1.431 . S
C909 C929 1.449 . S
C910 C909 1.258 . S
C910 C911 1.477 . S
C910 H930 0.931 . S
C911 C907 1.460 . S
C911 C910 1.477 . S
C911 H931 0.930 . S
C912 N908 1.362 . S
C912 C909 1.431 . S
C912 C922 1.476 . S
H913 C907 0.929 . S
C914 O905 1.250 . S
C914 O906 1.258 . S
O915 Mn900 2.162 . S
O915 C903 1.281 . S
O916 Mn900 2.297 . S
O916 C903 1.236 . S
N917 Mn901 2.282 . S
N917 C918 1.328 . S
N917 C922 1.318 . S
C918 N917 1.328 . S
C918 C919 1.457 . S
C918 H923 0.929 . S
C919 C918 1.457 . S
C919 C920 1.291 . S
C919 H932 0.931 . S
C920 C919 1.291 . S
C920 C921 1.373 . S
C920 H933 0.929 . S
C921 C920 1.373 . S
C921 C922 1.396 . S
C921 C928 1.403 . S
C922 C912 1.476 . S
C922 N917 1.318 . S
C922 C921 1.396 . S
H923 C918 0.929 . S
O924 Mn900 2.385 . S
O924 C902 1.234 . S
O925 Mn900 2.209 . S
O925 Mn901 2.215 . S
O925 C902 1.283 . S
O926 Mn900 2.094 . S
O926 C904 1.240 . S
O927 Mn901 2.117 . S
O927 C904 1.264 . S
C928 C921 1.403 . S
C928 C929 1.399 . S
C928 H934 0.929 . S
C929 C909 1.449 . S
C929 C928 1.399 . S
C929 H935 0.930 . S
H930 C910 0.931 . S
H931 C911 0.930 . S
H932 C919 0.931 . S
H933 C920 0.929 . S
H934 C928 0.929 . S
H935 C929 0.930 . S
Mn936 O941 2.095 . S
Mn936 O951 2.162 . S
Mn936 O952 2.297 . S
Mn936 O960 2.385 . S
Mn936 O961 2.209 . S
Mn936 O962 2.094 . S
Mn937 O942 2.121 . S
Mn937 N944 2.257 . S
Mn937 N953 2.282 . S
Mn937 O961 2.215 . S
Mn937 O963 2.117 . S
C938 O960 1.234 . S
C938 O961 1.283 . S
C939 O951 1.281 . S
C939 O952 1.236 . S
C940 O962 1.240 . S
C940 O963 1.264 . S
O941 Mn936 2.095 . S
O941 C950 1.250 . S
O942 Mn937 2.121 . S
O942 C950 1.258 . S
C943 N944 1.326 . S
C943 C947 1.460 . S
C943 H949 0.929 . S
N944 Mn937 2.257 . S
N944 C943 1.326 . S
N944 C948 1.362 . S
C945 C946 1.258 . S
C945 C948 1.431 . S
C945 C965 1.449 . S
C946 C945 1.258 . S
C946 C947 1.477 . S
C946 H966 0.931 . S
C947 C943 1.460 . S
C947 C946 1.477 . S
C947 H967 0.930 . S
C948 N944 1.362 . S
C948 C945 1.431 . S
C948 C958 1.476 . S
H949 C943 0.929 . S
C950 O941 1.250 . S
C950 O942 1.258 . S
O951 Mn936 2.162 . S
O951 C939 1.281 . S
O952 Mn936 2.297 . S
O952 C939 1.236 . S
N953 Mn937 2.282 . S
N953 C954 1.328 . S
N953 C958 1.318 . S
C954 N953 1.328 . S
C954 C955 1.457 . S
C954 H959 0.929 . S
C955 C954 1.457 . S
C955 C956 1.291 . S
C955 H968 0.931 . S
C956 C955 1.291 . S
C956 C957 1.373 . S
C956 H969 0.929 . S
C957 C956 1.373 . S
C957 C958 1.396 . S
C957 C964 1.403 . S
C958 C948 1.476 . S
C958 N953 1.318 . S
C958 C957 1.396 . S
H959 C954 0.929 . S
O960 Mn936 2.385 . S
O960 C938 1.234 . S
O961 Mn936 2.209 . S
O961 Mn937 2.215 . S
O961 C938 1.283 . S
O962 Mn936 2.094 . S
O962 C940 1.240 . S
O963 Mn937 2.117 . S
O963 C940 1.264 . S
C964 C957 1.403 . S
C964 C965 1.399 . S
C964 H970 0.929 . S
C965 C945 1.449 . S
C965 C964 1.399 . S
C965 H971 0.930 . S
H966 C946 0.931 . S
H967 C947 0.930 . S
H968 C955 0.931 . S
H969 C956 0.929 . S
H970 C964 0.929 . S
H971 C965 0.930 . S
Mn972 O977 2.095 . S
Mn972 O987 2.162 . S
Mn972 O988 2.297 . S
Mn972 O996 2.385 . S
Mn972 O997 2.209 . S
Mn972 O998 2.094 . S
Mn973 O978 2.121 . S
Mn973 N980 2.257 . S
Mn973 N989 2.282 . S
Mn973 O997 2.215 . S
Mn973 O999 2.117 . S
C974 O996 1.234 . S
C974 O997 1.283 . S
C975 O987 1.281 . S
C975 O988 1.236 . S
C976 O998 1.240 . S
C976 O999 1.264 . S
O977 Mn972 2.095 . S
O977 C986 1.250 . S
O978 Mn973 2.121 . S
O978 C986 1.258 . S
C979 N980 1.326 . S
C979 C983 1.460 . S
C979 H985 0.929 . S
N980 Mn973 2.257 . S
N980 C979 1.326 . S
N980 C984 1.362 . S
C981 C982 1.258 . S
C981 C984 1.431 . S
C981 C1001 1.449 . S
C982 C981 1.258 . S
C982 C983 1.477 . S
C982 H1002 0.931 . S
C983 C979 1.460 . S
C983 C982 1.477 . S
C983 H1003 0.930 . S
C984 N980 1.362 . S
C984 C981 1.431 . S
C984 C994 1.476 . S
H985 C979 0.929 . S
C986 O977 1.250 . S
C986 O978 1.258 . S
O987 Mn972 2.162 . S
O987 C975 1.281 . S
O988 Mn972 2.297 . S
O988 C975 1.236 . S
N989 Mn973 2.282 . S
N989 C990 1.328 . S
N989 C994 1.318 . S
C990 N989 1.328 . S
C990 C991 1.457 . S
C990 H995 0.929 . S
C991 C990 1.457 . S
C991 C992 1.291 . S
C991 H1004 0.931 . S
C992 C991 1.291 . S
C992 C993 1.373 . S
C992 H1005 0.929 . S
C993 C992 1.373 . S
C993 C994 1.396 . S
C993 C1000 1.403 . S
C994 C984 1.476 . S
C994 N989 1.318 . S
C994 C993 1.396 . S
H995 C990 0.929 . S
O996 Mn972 2.385 . S
O996 C974 1.234 . S
O997 Mn972 2.209 . S
O997 Mn973 2.215 . S
O997 C974 1.283 . S
O998 Mn972 2.094 . S
O998 C976 1.240 . S
O999 Mn973 2.117 . S
O999 C976 1.264 . S
C1000 C993 1.403 . S
C1000 C1001 1.399 . S
C1000 H1006 0.929 . S
C1001 C981 1.449 . S
C1001 C1000 1.399 . S
C1001 H1007 0.930 . S
H1002 C982 0.931 . S
H1003 C983 0.930 . S
H1004 C991 0.931 . S
H1005 C992 0.929 . S
H1006 C1000 0.929 . S
H1007 C1001 0.930 . S
Mn1008 O1013 2.095 . S
Mn1008 O1023 2.162 . S
Mn1008 O1024 2.297 . S
Mn1008 O1032 2.385 . S
Mn1008 O1033 2.209 . S
Mn1008 O1034 2.094 . S
Mn1009 O1014 2.121 . S
Mn1009 N1016 2.257 . S
Mn1009 N1025 2.282 . S
Mn1009 O1033 2.215 . S
Mn1009 O1035 2.117 . S
C1010 O1032 1.234 . S
C1010 O1033 1.283 . S
C1011 O1023 1.281 . S
C1011 O1024 1.236 . S
C1012 O1034 1.240 . S
C1012 O1035 1.264 . S
O1013 Mn1008 2.095 . S
O1013 C1022 1.250 . S
O1014 Mn1009 2.121 . S
O1014 C1022 1.258 . S
C1015 N1016 1.326 . S
C1015 C1019 1.460 . S
C1015 H1021 0.929 . S
N1016 Mn1009 2.257 . S
N1016 C1015 1.326 . S
N1016 C1020 1.362 . S
C1017 C1018 1.258 . S
C1017 C1020 1.431 . S
C1017 C1037 1.449 . S
C1018 C1017 1.258 . S
C1018 C1019 1.477 . S
C1018 H1038 0.931 . S
C1019 C1015 1.460 . S
C1019 C1018 1.477 . S
C1019 H1039 0.930 . S
C1020 N1016 1.362 . S
C1020 C1017 1.431 . S
C1020 C1030 1.476 . S
H1021 C1015 0.929 . S
C1022 O1013 1.250 . S
C1022 O1014 1.258 . S
O1023 Mn1008 2.162 . S
O1023 C1011 1.281 . S
O1024 Mn1008 2.297 . S
O1024 C1011 1.236 . S
N1025 Mn1009 2.282 . S
N1025 C1026 1.328 . S
N1025 C1030 1.318 . S
C1026 N1025 1.328 . S
C1026 C1027 1.457 . S
C1026 H1031 0.929 . S
C1027 C1026 1.457 . S
C1027 C1028 1.291 . S
C1027 H1040 0.931 . S
C1028 C1027 1.291 . S
C1028 C1029 1.373 . S
C1028 H1041 0.929 . S
C1029 C1028 1.373 . S
C1029 C1030 1.396 . S
C1029 C1036 1.403 . S
C1030 C1020 1.476 . S
C1030 N1025 1.318 . S
C1030 C1029 1.396 . S
H1031 C1026 0.929 . S
O1032 Mn1008 2.385 . S
O1032 C1010 1.234 . S
O1033 Mn1008 2.209 . S
O1033 Mn1009 2.215 . S
O1033 C1010 1.283 . S
O1034 Mn1008 2.094 . S
O1034 C1012 1.240 . S
O1035 Mn1009 2.117 . S
O1035 C1012 1.264 . S
C1036 C1029 1.403 . S
C1036 C1037 1.399 . S
C1036 H1042 0.929 . S
C1037 C1017 1.449 . S
C1037 C1036 1.399 . S
C1037 H1043 0.930 . S
H1038 C1018 0.931 . S
H1039 C1019 0.930 . S
H1040 C1027 0.931 . S
H1041 C1028 0.929 . S
H1042 C1036 0.929 . S
H1043 C1037 0.930 . S
Mn1044 O1049 2.095 . S
Mn1044 O1059 2.162 . S
Mn1044 O1060 2.297 . S
Mn1044 O1068 2.385 . S
Mn1044 O1069 2.209 . S
Mn1044 O1070 2.094 . S
Mn1045 O1050 2.121 . S
Mn1045 N1052 2.257 . S
Mn1045 N1061 2.282 . S
Mn1045 O1069 2.215 . S
Mn1045 O1071 2.117 . S
C1046 O1068 1.234 . S
C1046 O1069 1.283 . S
C1047 O1059 1.281 . S
C1047 O1060 1.236 . S
C1048 O1070 1.240 . S
C1048 O1071 1.264 . S
O1049 Mn1044 2.095 . S
O1049 C1058 1.250 . S
O1050 Mn1045 2.121 . S
O1050 C1058 1.258 . S
C1051 N1052 1.326 . S
C1051 C1055 1.460 . S
C1051 H1057 0.929 . S
N1052 Mn1045 2.257 . S
N1052 C1051 1.326 . S
N1052 C1056 1.362 . S
C1053 C1054 1.258 . S
C1053 C1056 1.431 . S
C1053 C1073 1.449 . S
C1054 C1053 1.258 . S
C1054 C1055 1.477 . S
C1054 H1074 0.931 . S
C1055 C1051 1.460 . S
C1055 C1054 1.477 . S
C1055 H1075 0.930 . S
C1056 N1052 1.362 . S
C1056 C1053 1.431 . S
C1056 C1066 1.476 . S
H1057 C1051 0.929 . S
C1058 O1049 1.250 . S
C1058 O1050 1.258 . S
O1059 Mn1044 2.162 . S
O1059 C1047 1.281 . S
O1060 Mn1044 2.297 . S
O1060 C1047 1.236 . S
N1061 Mn1045 2.282 . S
N1061 C1062 1.328 . S
N1061 C1066 1.318 . S
C1062 N1061 1.328 . S
C1062 C1063 1.457 . S
C1062 H1067 0.929 . S
C1063 C1062 1.457 . S
C1063 C1064 1.291 . S
C1063 H1076 0.931 . S
C1064 C1063 1.291 . S
C1064 C1065 1.373 . S
C1064 H1077 0.929 . S
C1065 C1064 1.373 . S
C1065 C1066 1.396 . S
C1065 C1072 1.403 . S
C1066 C1056 1.476 . S
C1066 N1061 1.318 . S
C1066 C1065 1.396 . S
H1067 C1062 0.929 . S
O1068 Mn1044 2.385 . S
O1068 C1046 1.234 . S
O1069 Mn1044 2.209 . S
O1069 Mn1045 2.215 . S
O1069 C1046 1.283 . S
O1070 Mn1044 2.094 . S
O1070 C1048 1.240 . S
O1071 Mn1045 2.117 . S
O1071 C1048 1.264 . S
C1072 C1065 1.403 . S
C1072 C1073 1.399 . S
C1072 H1078 0.929 . S
C1073 C1053 1.449 . S
C1073 C1072 1.399 . S
C1073 H1079 0.930 . S
H1074 C1054 0.931 . S
H1075 C1055 0.930 . S
H1076 C1063 0.931 . S
H1077 C1064 0.929 . S
H1078 C1072 0.929 . S
H1079 C1073 0.930 . S
Mn1080 O1085 2.095 . S
Mn1080 O1095 2.162 . S
Mn1080 O1096 2.297 . S
Mn1080 O1104 2.385 . S
Mn1080 O1105 2.209 . S
Mn1080 O1106 2.094 . S
Mn1081 O1086 2.121 . S
Mn1081 N1088 2.257 1_556 S
Mn1081 N1097 2.282 1_556 S
Mn1081 O1105 2.215 . S
Mn1081 O1107 2.117 . S
C1082 O1104 1.234 . S
C1082 O1105 1.283 . S
C1083 O1095 1.281 . S
C1083 O1096 1.236 . S
C1084 O1106 1.240 . S
C1084 O1107 1.264 . S
O1085 Mn1080 2.095 . S
O1085 C1094 1.250 . S
O1086 Mn1081 2.121 . S
O1086 C1094 1.258 . S
C1087 N1088 1.326 . S
C1087 C1091 1.460 . S
C1087 H1093 0.929 . S
N1088 Mn1081 2.257 1_554 S
N1088 C1087 1.326 . S
N1088 C1092 1.362 . S
C1089 C1090 1.258 . S
C1089 C1092 1.431 . S
C1089 C1109 1.449 . S
C1090 C1089 1.258 . S
C1090 C1091 1.477 . S
C1090 H1110 0.931 . S
C1091 C1087 1.460 . S
C1091 C1090 1.477 . S
C1091 H1111 0.930 . S
C1092 N1088 1.362 . S
C1092 C1089 1.431 . S
C1092 C1102 1.476 . S
H1093 C1087 0.929 . S
C1094 O1085 1.250 . S
C1094 O1086 1.258 . S
O1095 Mn1080 2.162 . S
O1095 C1083 1.281 . S
O1096 Mn1080 2.297 . S
O1096 C1083 1.236 . S
N1097 Mn1081 2.282 1_554 S
N1097 C1098 1.328 1_554 S
N1097 C1102 1.318 . S
C1098 N1097 1.328 1_556 S
C1098 C1099 1.457 1_556 S
C1098 H1103 0.929 . S
C1099 C1098 1.457 1_554 S
C1099 C1100 1.291 . S
C1099 H1112 0.931 . S
C1100 C1099 1.291 . S
C1100 C1101 1.373 . S
C1100 H1113 0.929 . S
C1101 C1100 1.373 . S
C1101 C1102 1.396 . S
C1101 C1108 1.403 . S
C1102 C1092 1.476 . S
C1102 N1097 1.318 . S
C1102 C1101 1.396 . S
H1103 C1098 0.929 . S
O1104 Mn1080 2.385 . S
O1104 C1082 1.234 . S
O1105 Mn1080 2.209 . S
O1105 Mn1081 2.215 . S
O1105 C1082 1.283 . S
O1106 Mn1080 2.094 . S
O1106 C1084 1.240 . S
O1107 Mn1081 2.117 . S
O1107 C1084 1.264 . S
C1108 C1101 1.403 . S
C1108 C1109 1.399 . S
C1108 H1114 0.929 . S
C1109 C1089 1.449 . S
C1109 C1108 1.399 . S
C1109 H1115 0.930 . S
H1110 C1090 0.931 . S
H1111 C1091 0.930 . S
H1112 C1099 0.931 . S
H1113 C1100 0.929 . S
H1114 C1108 0.929 . S
H1115 C1109 0.930 . S
Mn1116 O1121 2.095 . S
Mn1116 O1131 2.162 . S
Mn1116 O1132 2.297 . S
Mn1116 O1140 2.385 . S
Mn1116 O1141 2.209 . S
Mn1116 O1142 2.094 . S
Mn1117 O1122 2.121 . S
Mn1117 N1124 2.257 . S
Mn1117 N1133 2.282 . S
Mn1117 O1141 2.215 . S
Mn1117 O1143 2.117 . S
C1118 O1140 1.234 . S
C1118 O1141 1.283 . S
C1119 O1131 1.281 . S
C1119 O1132 1.236 . S
C1120 O1142 1.240 . S
C1120 O1143 1.264 . S
O1121 Mn1116 2.095 . S
O1121 C1130 1.250 . S
O1122 Mn1117 2.121 . S
O1122 C1130 1.258 . S
C1123 N1124 1.326 . S
C1123 C1127 1.460 . S
C1123 H1129 0.929 . S
N1124 Mn1117 2.257 . S
N1124 C1123 1.326 . S
N1124 C1128 1.362 . S
C1125 C1126 1.258 . S
C1125 C1128 1.431 . S
C1125 C1145 1.449 . S
C1126 C1125 1.258 . S
C1126 C1127 1.477 . S
C1126 H1146 0.931 . S
C1127 C1123 1.460 . S
C1127 C1126 1.477 . S
C1127 H1147 0.930 . S
C1128 N1124 1.362 . S
C1128 C1125 1.431 . S
C1128 C1138 1.476 . S
H1129 C1123 0.929 . S
C1130 O1121 1.250 . S
C1130 O1122 1.258 . S
O1131 Mn1116 2.162 . S
O1131 C1119 1.281 . S
O1132 Mn1116 2.297 . S
O1132 C1119 1.236 . S
N1133 Mn1117 2.282 . S
N1133 C1134 1.328 . S
N1133 C1138 1.318 . S
C1134 N1133 1.328 . S
C1134 C1135 1.457 . S
C1134 H1139 0.929 . S
C1135 C1134 1.457 . S
C1135 C1136 1.291 . S
C1135 H1148 0.931 . S
C1136 C1135 1.291 . S
C1136 C1137 1.373 . S
C1136 H1149 0.929 . S
C1137 C1136 1.373 . S
C1137 C1138 1.396 . S
C1137 C1144 1.403 . S
C1138 C1128 1.476 . S
C1138 N1133 1.318 . S
C1138 C1137 1.396 . S
H1139 C1134 0.929 . S
O1140 Mn1116 2.385 . S
O1140 C1118 1.234 . S
O1141 Mn1116 2.209 . S
O1141 Mn1117 2.215 . S
O1141 C1118 1.283 . S
O1142 Mn1116 2.094 . S
O1142 C1120 1.240 . S
O1143 Mn1117 2.117 . S
O1143 C1120 1.264 . S
C1144 C1137 1.403 . S
C1144 C1145 1.399 . S
C1144 H1150 0.929 . S
C1145 C1125 1.449 . S
C1145 C1144 1.399 . S
C1145 H1151 0.930 . S
H1146 C1126 0.931 . S
H1147 C1127 0.930 . S
H1148 C1135 0.931 . S
H1149 C1136 0.929 . S
H1150 C1144 0.929 . S
H1151 C1145 0.930 . S
H1152 C1158 0.930 . S
H1153 C1161 0.930 . S
H1154 C1162 0.930 . S
H1155 C1163 0.930 . S
H1156 C1166 0.930 . S
H1157 C1167 0.930 . S
C1158 H1152 0.930 . S
C1158 C1159 1.355 . S
C1158 C1160 1.415 1_545 S
C1159 C1158 1.355 . S
C1159 C1161 1.419 . S
C1160 C1158 1.415 1_565 S
C1160 C1165 1.425 1_565 S
C1160 C1167 1.409 . S
C1161 H1153 0.930 . S
C1161 C1159 1.419 . S
C1161 C1162 1.362 . S
C1162 H1154 0.930 . S
C1162 C1161 1.362 . S
C1162 C1165 1.409 . S
C1163 H1155 0.930 . S
C1163 C1164 1.355 . S
C1163 C1165 1.415 1_565 S
C1164 C1163 1.355 . S
C1164 C1166 1.419 . S
C1165 C1160 1.425 1_545 S
C1165 C1162 1.409 . S
C1165 C1163 1.415 1_545 S
C1166 H1156 0.930 . S
C1166 C1164 1.419 . S
C1166 C1167 1.362 . S
C1167 H1157 0.930 . S
C1167 C1160 1.409 . S
C1167 C1166 1.362 . S
H1168 C1174 0.930 . S
H1169 C1177 0.930 . S
H1170 C1178 0.930 . S
H1171 C1179 0.930 . S
H1172 C1182 0.930 . S
H1173 C1183 0.930 . S
C1174 H1168 0.930 . S
C1174 C1175 1.355 . S
C1174 C1176 1.415 . S
C1175 C1174 1.355 . S
C1175 C1177 1.419 . S
C1176 C1174 1.415 . S
C1176 C1181 1.425 . S
C1176 C1183 1.409 . S
C1177 H1169 0.930 . S
C1177 C1175 1.419 . S
C1177 C1178 1.362 . S
C1178 H1170 0.930 . S
C1178 C1177 1.362 . S
C1178 C1181 1.409 . S
C1179 H1171 0.930 . S
C1179 C1180 1.355 . S
C1179 C1181 1.415 . S
C1180 C1179 1.355 . S
C1180 C1182 1.419 . S
C1181 C1176 1.425 . S
C1181 C1178 1.409 . S
C1181 C1179 1.415 . S
C1182 H1172 0.930 . S
C1182 C1180 1.419 . S
C1182 C1183 1.362 . S
C1183 H1173 0.930 . S
C1183 C1176 1.409 . S
C1183 C1182 1.362 . S
H1184 C1190 0.930 . S
H1185 C1193 0.930 . S
H1186 C1194 0.930 . S
H1187 C1195 0.930 . S
H1188 C1198 0.930 . S
H1189 C1199 0.930 . S
C1190 H1184 0.930 . S
C1190 C1191 1.355 . S
C1190 C1192 1.415 1_545 S
C1191 C1190 1.355 . S
C1191 C1193 1.419 . S
C1192 C1190 1.415 1_565 S
C1192 C1197 1.425 1_565 S
C1192 C1199 1.409 . S
C1193 H1185 0.930 . S
C1193 C1191 1.419 . S
C1193 C1194 1.362 . S
C1194 H1186 0.930 . S
C1194 C1193 1.362 . S
C1194 C1197 1.409 . S
C1195 H1187 0.930 . S
C1195 C1196 1.355 . S
C1195 C1197 1.415 1_565 S
C1196 C1195 1.355 . S
C1196 C1198 1.419 . S
C1197 C1192 1.425 1_545 S
C1197 C1194 1.409 . S
C1197 C1195 1.415 1_545 S
C1198 H1188 0.930 . S
C1198 C1196 1.419 . S
C1198 C1199 1.362 . S
C1199 H1189 0.930 . S
C1199 C1192 1.409 . S
C1199 C1198 1.362 . S
H1200 C1206 0.930 . S
H1201 C1209 0.930 . S
H1202 C1210 0.930 . S
H1203 C1211 0.930 . S
H1204 C1214 0.930 . S
H1205 C1215 0.930 . S
C1206 H1200 0.930 . S
C1206 C1207 1.355 . S
C1206 C1208 1.415 . S
C1207 C1206 1.355 . S
C1207 C1209 1.419 . S
C1208 C1206 1.415 . S
C1208 C1213 1.425 1_556 S
C1208 C1215 1.409 . S
C1209 H1201 0.930 . S
C1209 C1207 1.419 . S
C1209 C1210 1.362 1_556 S
C1210 H1202 0.930 . S
C1210 C1209 1.362 1_554 S
C1210 C1213 1.409 . S
C1211 H1203 0.930 . S
C1211 C1212 1.355 . S
C1211 C1213 1.415 . S
C1212 C1211 1.355 . S
C1212 C1214 1.419 . S
C1213 C1208 1.425 1_554 S
C1213 C1210 1.409 . S
C1213 C1211 1.415 . S
C1214 H1204 0.930 . S
C1214 C1212 1.419 . S
C1214 C1215 1.362 1_554 S
C1215 H1205 0.930 . S
C1215 C1208 1.409 . S
C1215 C1214 1.362 1_556 S
H1216 C1222 0.930 . S
H1217 C1225 0.930 . S
H1218 C1226 0.930 . S
H1219 C1227 0.930 . S
H1220 C1230 0.930 . S
H1221 C1231 0.930 . S
C1222 H1216 0.930 . S
C1222 C1223 1.355 . S
C1222 C1224 1.415 . S
C1223 C1222 1.355 . S
C1223 C1225 1.419 . S
C1224 C1222 1.415 . S
C1224 C1229 1.425 1_565 S
C1224 C1231 1.409 . S
C1225 H1217 0.930 . S
C1225 C1223 1.419 . S
C1225 C1226 1.362 1_565 S
C1226 H1218 0.930 . S
C1226 C1225 1.362 1_545 S
C1226 C1229 1.409 . S
C1227 H1219 0.930 . S
C1227 C1228 1.355 . S
C1227 C1229 1.415 . S
C1228 C1227 1.355 . S
C1228 C1230 1.419 . S
C1229 C1224 1.425 1_545 S
C1229 C1226 1.409 . S
C1229 C1227 1.415 . S
C1230 H1220 0.930 . S
C1230 C1228 1.419 . S
C1230 C1231 1.362 1_545 S
C1231 H1221 0.930 . S
C1231 C1224 1.409 . S
C1231 C1230 1.362 1_565 S
H1232 C1238 0.930 . S
H1233 C1241 0.930 . S
H1234 C1242 0.930 . S
H1235 C1243 0.930 . S
H1236 C1246 0.930 . S
H1237 C1247 0.930 . S
C1238 H1232 0.930 . S
C1238 C1239 1.355 . S
C1238 C1240 1.415 . S
C1239 C1238 1.355 . S
C1239 C1241 1.419 . S
C1240 C1238 1.415 . S
C1240 C1245 1.425 . S
C1240 C1247 1.409 . S
C1241 H1233 0.930 . S
C1241 C1239 1.419 . S
C1241 C1242 1.362 . S
C1242 H1234 0.930 . S
C1242 C1241 1.362 . S
C1242 C1245 1.409 . S
C1243 H1235 0.930 . S
C1243 C1244 1.355 . S
C1243 C1245 1.415 . S
C1244 C1243 1.355 . S
C1244 C1246 1.419 . S
C1245 C1240 1.425 . S
C1245 C1242 1.409 . S
C1245 C1243 1.415 . S
C1246 H1236 0.930 . S
C1246 C1244 1.419 . S
C1246 C1247 1.362 . S
C1247 H1237 0.930 . S
C1247 C1240 1.409 . S
C1247 C1246 1.362 . S
H1248 C1254 0.930 . S
H1249 C1257 0.930 . S
H1250 C1258 0.930 . S
H1251 C1259 0.930 . S
H1252 C1262 0.930 . S
H1253 C1263 0.930 . S
C1254 H1248 0.930 . S
C1254 C1255 1.355 . S
C1254 C1256 1.429 . S
C1255 C1254 1.355 . S
C1255 C1257 1.419 . S
C1256 C1254 1.429 . S
C1256 C1261 1.424 1_565 S
C1256 C1263 1.396 1_565 S
C1257 H1249 0.930 . S
C1257 C1255 1.419 . S
C1257 C1258 1.362 . S
C1258 H1250 0.930 . S
C1258 C1257 1.362 . S
C1258 C1261 1.396 1_565 S
C1259 H1251 0.930 . S
C1259 C1260 1.355 . S
C1259 C1261 1.429 . S
C1260 C1259 1.355 . S
C1260 C1262 1.419 . S
C1261 C1256 1.424 1_545 S
C1261 C1258 1.396 1_545 S
C1261 C1259 1.429 . S
C1262 H1252 0.930 . S
C1262 C1260 1.419 . S
C1262 C1263 1.362 . S
C1263 H1253 0.930 . S
C1263 C1256 1.396 1_545 S
C1263 C1262 1.362 . S
H1264 C1270 0.930 . S
H1265 C1273 0.930 . S
H1266 C1274 0.930 . S
H1267 C1275 0.930 . S
H1268 C1278 0.930 . S
H1269 C1279 0.930 . S
C1270 H1264 0.930 . S
C1270 C1271 1.355 . S
C1270 C1272 1.415 . S
C1271 C1270 1.355 . S
C1271 C1273 1.419 . S
C1272 C1270 1.415 . S
C1272 C1277 1.425 1_556 S
C1272 C1279 1.409 . S
C1273 H1265 0.930 . S
C1273 C1271 1.419 . S
C1273 C1274 1.362 1_556 S
C1274 H1266 0.930 . S
C1274 C1273 1.362 1_554 S
C1274 C1277 1.409 . S
C1275 H1267 0.930 . S
C1275 C1276 1.355 . S
C1275 C1277 1.415 . S
C1276 C1275 1.355 . S
C1276 C1278 1.419 . S
C1277 C1272 1.425 1_554 S
C1277 C1274 1.409 . S
C1277 C1275 1.415 . S
C1278 H1268 0.930 . S
C1278 C1276 1.419 . S
C1278 C1279 1.362 1_554 S
C1279 H1269 0.930 . S
C1279 C1272 1.409 . S
C1279 C1278 1.362 1_556 S
H1280 C1286 0.930 . S
H1281 C1289 0.930 . S
H1282 C1290 0.930 . S
H1283 C1291 0.930 . S
H1284 C1294 0.930 . S
H1285 C1295 0.930 . S
C1286 H1280 0.930 . S
C1286 C1287 1.355 . S
C1286 C1288 1.415 . S
C1287 C1286 1.355 . S
C1287 C1289 1.419 . S
C1288 C1286 1.415 . S
C1288 C1293 1.425 . S
C1288 C1295 1.409 . S
C1289 H1281 0.930 . S
C1289 C1287 1.419 . S
C1289 C1290 1.362 . S
C1290 H1282 0.930 . S
C1290 C1289 1.362 . S
C1290 C1293 1.409 . S
C1291 H1283 0.930 . S
C1291 C1292 1.355 . S
C1291 C1293 1.415 . S
C1292 C1291 1.355 . S
C1292 C1294 1.419 . S
C1293 C1288 1.425 . S
C1293 C1290 1.409 . S
C1293 C1291 1.415 . S
C1294 H1284 0.930 . S
C1294 C1292 1.419 . S
C1294 C1295 1.362 . S
C1295 H1285 0.930 . S
C1295 C1288 1.409 . S
C1295 C1294 1.362 . S
H1296 C1302 0.930 . S
H1297 C1305 0.930 . S
H1298 C1306 0.930 . S
H1299 C1307 0.930 . S
H1300 C1310 0.930 . S
H1301 C1311 0.930 . S
C1302 H1296 0.930 . S
C1302 C1303 1.355 . S
C1302 C1304 1.415 1_556 S
C1303 C1302 1.355 . S
C1303 C1305 1.419 . S
C1304 C1302 1.415 1_554 S
C1304 C1309 1.425 1_554 S
C1304 C1311 1.409 . S
C1305 H1297 0.930 . S
C1305 C1303 1.419 . S
C1305 C1306 1.362 . S
C1306 H1298 0.930 . S
C1306 C1305 1.362 . S
C1306 C1309 1.409 . S
C1307 H1299 0.930 . S
C1307 C1308 1.355 . S
C1307 C1309 1.415 1_554 S
C1308 C1307 1.355 . S
C1308 C1310 1.419 . S
C1309 C1304 1.425 1_556 S
C1309 C1306 1.409 . S
C1309 C1307 1.415 1_556 S
C1310 H1300 0.930 . S
C1310 C1308 1.419 . S
C1310 C1311 1.362 . S
C1311 H1301 0.930 . S
C1311 C1304 1.409 . S
C1311 C1310 1.362 . S
H1312 C1318 0.930 . S
H1313 C1321 0.930 . S
H1314 C1322 0.930 . S
H1315 C1323 0.930 . S
H1316 C1326 0.930 . S
H1317 C1327 0.930 . S
C1318 H1312 0.930 . S
C1318 C1319 1.355 . S
C1318 C1320 1.415 . S
C1319 C1318 1.355 . S
C1319 C1321 1.419 . S
C1320 C1318 1.415 . S
C1320 C1325 1.425 . S
C1320 C1327 1.409 . S
C1321 H1313 0.930 . S
C1321 C1319 1.419 . S
C1321 C1322 1.362 . S
C1322 H1314 0.930 . S
C1322 C1321 1.362 . S
C1322 C1325 1.409 . S
C1323 H1315 0.930 . S
C1323 C1324 1.355 . S
C1323 C1325 1.415 . S
C1324 C1323 1.355 . S
C1324 C1326 1.419 . S
C1325 C1320 1.425 . S
C1325 C1322 1.409 . S
C1325 C1323 1.415 . S
C1326 H1316 0.930 . S
C1326 C1324 1.419 . S
C1326 C1327 1.362 . S
C1327 H1317 0.930 . S
C1327 C1320 1.409 . S
C1327 C1326 1.362 . S
H1328 C1334 0.930 . S
H1329 C1337 0.930 . S
H1330 C1338 0.930 . S
H1331 C1339 0.930 . S
H1332 C1342 0.930 . S
H1333 C1343 0.930 . S
C1334 H1328 0.930 . S
C1334 C1335 1.355 . S
C1334 C1336 1.415 . S
C1335 C1334 1.355 . S
C1335 C1337 1.419 . S
C1336 C1334 1.415 . S
C1336 C1341 1.425 . S
C1336 C1343 1.409 . S
C1337 H1329 0.930 . S
C1337 C1335 1.419 . S
C1337 C1338 1.362 . S
C1338 H1330 0.930 . S
C1338 C1337 1.362 . S
C1338 C1341 1.409 . S
C1339 H1331 0.930 . S
C1339 C1340 1.355 . S
C1339 C1341 1.415 . S
C1340 C1339 1.355 . S
C1340 C1342 1.419 . S
C1341 C1336 1.425 . S
C1341 C1338 1.409 . S
C1341 C1339 1.415 . S
C1342 H1332 0.930 . S
C1342 C1340 1.419 . S
C1342 C1343 1.362 . S
C1343 H1333 0.930 . S
C1343 C1336 1.409 . S
C1343 C1342 1.362 . S
H1344 C1350 0.930 . S
H1345 C1353 0.930 . S
H1346 C1354 0.930 . S
H1347 C1355 0.930 . S
H1348 C1358 0.930 . S
H1349 C1359 0.930 . S
C1350 H1344 0.930 . S
C1350 C1351 1.355 . S
C1350 C1352 1.415 . S
C1351 C1350 1.355 . S
C1351 C1353 1.419 . S
C1352 C1350 1.415 . S
C1352 C1357 1.425 . S
C1352 C1359 1.409 . S
C1353 H1345 0.930 . S
C1353 C1351 1.419 . S
C1353 C1354 1.362 . S
C1354 H1346 0.930 . S
C1354 C1353 1.362 . S
C1354 C1357 1.409 . S
C1355 H1347 0.930 . S
C1355 C1356 1.355 . S
C1355 C1357 1.415 . S
C1356 C1355 1.355 . S
C1356 C1358 1.419 . S
C1357 C1352 1.425 . S
C1357 C1354 1.409 . S
C1357 C1355 1.415 . S
C1358 H1348 0.930 . S
C1358 C1356 1.419 . S
C1358 C1359 1.362 . S
C1359 H1349 0.930 . S
C1359 C1352 1.409 . S
C1359 C1358 1.362 . S
H1360 C1366 0.930 . S
H1361 C1369 0.930 . S
H1362 C1370 0.930 . S
H1363 C1371 0.930 . S
H1364 C1374 0.930 . S
H1365 C1375 0.930 . S
C1366 H1360 0.930 . S
C1366 C1367 1.355 . S
C1366 C1368 1.415 . S
C1367 C1366 1.355 . S
C1367 C1369 1.419 . S
C1368 C1366 1.415 . S
C1368 C1373 1.425 1_554 S
C1368 C1375 1.409 1_554 S
C1369 H1361 0.930 . S
C1369 C1367 1.419 . S
C1369 C1370 1.362 . S
C1370 H1362 0.930 . S
C1370 C1369 1.362 . S
C1370 C1373 1.409 1_554 S
C1371 H1363 0.930 . S
C1371 C1372 1.355 . S
C1371 C1373 1.415 . S
C1372 C1371 1.355 . S
C1372 C1374 1.419 . S
C1373 C1368 1.425 1_556 S
C1373 C1370 1.409 1_556 S
C1373 C1371 1.415 . S
C1374 H1364 0.930 . S
C1374 C1372 1.419 . S
C1374 C1375 1.362 . S
C1375 H1365 0.930 . S
C1375 C1368 1.409 1_556 S
C1375 C1374 1.362 . S
H1376 C1382 0.930 . S
H1377 C1385 0.930 . S
H1378 C1386 0.930 . S
H1379 C1387 0.930 . S
H1380 C1390 0.930 . S
H1381 C1391 0.930 . S
C1382 H1376 0.930 . S
C1382 C1383 1.355 . S
C1382 C1384 1.415 . S
C1383 C1382 1.355 . S
C1383 C1385 1.419 . S
C1384 C1382 1.415 . S
C1384 C1389 1.425 . S
C1384 C1391 1.409 . S
C1385 H1377 0.930 . S
C1385 C1383 1.419 . S
C1385 C1386 1.362 . S
C1386 H1378 0.930 . S
C1386 C1385 1.362 . S
C1386 C1389 1.409 . S
C1387 H1379 0.930 . S
C1387 C1388 1.355 . S
C1387 C1389 1.415 . S
C1388 C1387 1.355 . S
C1388 C1390 1.419 . S
C1389 C1384 1.425 . S
C1389 C1386 1.409 . S
C1389 C1387 1.415 . S
C1390 H1380 0.930 . S
C1390 C1388 1.419 . S
C1390 C1391 1.362 . S
C1391 H1381 0.930 . S
C1391 C1384 1.409 . S
C1391 C1390 1.362 . S
H1392 C1398 0.930 . S
H1393 C1401 0.930 . S
H1394 C1402 0.930 . S
H1395 C1403 0.930 . S
H1396 C1406 0.930 . S
H1397 C1407 0.930 . S
C1398 H1392 0.930 . S
C1398 C1399 1.355 . S
C1398 C1400 1.415 . S
C1399 C1398 1.355 . S
C1399 C1401 1.419 . S
C1400 C1398 1.415 . S
C1400 C1405 1.425 . S
C1400 C1407 1.409 . S
C1401 H1393 0.930 . S
C1401 C1399 1.419 . S
C1401 C1402 1.362 . S
C1402 H1394 0.930 . S
C1402 C1401 1.362 . S
C1402 C1405 1.409 . S
C1403 H1395 0.930 . S
C1403 C1404 1.355 . S
C1403 C1405 1.415 . S
C1404 C1403 1.355 . S
C1404 C1406 1.419 . S
C1405 C1400 1.425 . S
C1405 C1402 1.409 . S
C1405 C1403 1.415 . S
C1406 H1396 0.930 . S
C1406 C1404 1.419 . S
C1406 C1407 1.362 . S
C1407 H1397 0.930 . S
C1407 C1400 1.409 . S
C1407 C1406 1.362 . S
H1408 C1414 0.930 . S
H1409 C1417 0.930 . S
H1410 C1418 0.930 . S
H1411 C1419 0.930 . S
H1412 C1422 0.930 . S
H1413 C1423 0.930 . S
C1414 H1408 0.930 . S
C1414 C1415 1.355 . S
C1414 C1416 1.415 . S
C1415 C1414 1.355 . S
C1415 C1417 1.419 . S
C1416 C1414 1.415 . S
C1416 C1421 1.425 . S
C1416 C1423 1.409 . S
C1417 H1409 0.930 . S
C1417 C1415 1.419 . S
C1417 C1418 1.362 . S
C1418 H1410 0.930 . S
C1418 C1417 1.362 . S
C1418 C1421 1.409 . S
C1419 H1411 0.930 . S
C1419 C1420 1.355 . S
C1419 C1421 1.415 . S
C1420 C1419 1.355 . S
C1420 C1422 1.419 . S
C1421 C1416 1.425 . S
C1421 C1418 1.409 . S
C1421 C1419 1.415 . S
C1422 H1412 0.930 . S
C1422 C1420 1.419 . S
C1422 C1423 1.362 . S
C1423 H1413 0.930 . S
C1423 C1416 1.409 . S
C1423 C1422 1.362 . S
H1424 C1430 0.930 . S
H1425 C1433 0.930 . S
H1426 C1434 0.930 1_455 S
H1427 C1435 0.930 . S
H1428 C1438 0.930 . S
H1429 C1439 0.930 . S
C1430 H1424 0.930 . S
C1430 C1431 1.355 . S
C1430 C1432 1.415 1_655 S
C1431 C1430 1.355 . S
C1431 C1433 1.419 . S
C1432 C1430 1.415 1_455 S
C1432 C1437 1.425 . S
C1432 C1439 1.409 . S
C1433 H1425 0.930 . S
C1433 C1431 1.419 . S
C1433 C1434 1.362 . S
C1434 H1426 0.930 1_655 S
C1434 C1433 1.362 . S
C1434 C1437 1.409 1_655 S
C1435 H1427 0.930 . S
C1435 C1436 1.355 . S
C1435 C1437 1.415 . S
C1436 C1435 1.355 . S
C1436 C1438 1.419 . S
C1437 C1432 1.425 . S
C1437 C1434 1.409 1_455 S
C1437 C1435 1.415 . S
C1438 H1428 0.930 . S
C1438 C1436 1.419 . S
C1438 C1439 1.362 . S
C1439 H1429 0.930 . S
C1439 C1432 1.409 . S
C1439 C1438 1.362 . S
H1440 C1446 0.930 . S
H1441 C1449 0.930 . S
H1442 C1450 0.930 . S
H1443 C1451 0.930 . S
H1444 C1454 0.930 . S
H1445 C1455 0.930 . S
C1446 H1440 0.930 . S
C1446 C1447 1.355 . S
C1446 C1448 1.415 . S
C1447 C1446 1.355 . S
C1447 C1449 1.419 . S
C1448 C1446 1.415 . S
C1448 C1453 1.425 . S
C1448 C1455 1.409 . S
C1449 H1441 0.930 . S
C1449 C1447 1.419 . S
C1449 C1450 1.362 . S
C1450 H1442 0.930 . S
C1450 C1449 1.362 . S
C1450 C1453 1.409 . S
C1451 H1443 0.930 . S
C1451 C1452 1.355 . S
C1451 C1453 1.415 . S
C1452 C1451 1.355 . S
C1452 C1454 1.419 . S
C1453 C1448 1.425 . S
C1453 C1450 1.409 . S
C1453 C1451 1.415 . S
C1454 H1444 0.930 . S
C1454 C1452 1.419 . S
C1454 C1455 1.362 . S
C1455 H1445 0.930 . S
C1455 C1448 1.409 . S
C1455 C1454 1.362 . S
H1456 C1462 0.930 . S
H1457 C1465 0.930 . S
H1458 C1466 0.930 . S
H1459 C1467 0.930 . S
H1460 C1470 0.930 . S
H1461 C1471 0.930 . S
C1462 H1456 0.930 . S
C1462 C1463 1.355 . S
C1462 C1464 1.415 . S
C1463 C1462 1.355 . S
C1463 C1465 1.419 . S
C1464 C1462 1.415 . S
C1464 C1469 1.425 . S
C1464 C1471 1.409 . S
C1465 H1457 0.930 . S
C1465 C1463 1.419 . S
C1465 C1466 1.362 . S
C1466 H1458 0.930 . S
C1466 C1465 1.362 . S
C1466 C1469 1.409 . S
C1467 H1459 0.930 . S
C1467 C1468 1.355 . S
C1467 C1469 1.415 . S
C1468 C1467 1.355 . S
C1468 C1470 1.419 . S
C1469 C1464 1.425 . S
C1469 C1466 1.409 . S
C1469 C1467 1.415 . S
C1470 H1460 0.930 . S
C1470 C1468 1.419 . S
C1470 C1471 1.362 . S
C1471 H1461 0.930 . S
C1471 C1464 1.409 . S
C1471 C1470 1.362 . S
H1472 C1478 0.930 . S
H1473 C1481 0.930 . S
H1474 C1482 0.930 . S
H1475 C1483 0.930 . S
H1476 C1486 0.930 . S
H1477 C1487 0.930 . S
C1478 H1472 0.930 . S
C1478 C1479 1.355 . S
C1478 C1480 1.415 . S
C1479 C1478 1.355 . S
C1479 C1481 1.419 . S
C1480 C1478 1.415 . S
C1480 C1485 1.425 . S
C1480 C1487 1.409 . S
C1481 H1473 0.930 . S
C1481 C1479 1.419 . S
C1481 C1482 1.362 . S
C1482 H1474 0.930 . S
C1482 C1481 1.362 . S
C1482 C1485 1.409 . S
C1483 H1475 0.930 . S
C1483 C1484 1.355 . S
C1483 C1485 1.415 . S
C1484 C1483 1.355 . S
C1484 C1486 1.419 . S
C1485 C1480 1.425 . S
C1485 C1482 1.409 . S
C1485 C1483 1.415 . S
C1486 H1476 0.930 . S
C1486 C1484 1.419 . S
C1486 C1487 1.362 . S
C1487 H1477 0.930 . S
C1487 C1480 1.409 . S
C1487 C1486 1.362 . S
H1488 C1494 0.930 . S
H1489 C1497 0.930 . S
H1490 C1498 0.930 . S
H1491 C1499 0.930 . S
H1492 C1502 0.930 . S
H1493 C1503 0.930 . S
C1494 H1488 0.930 . S
C1494 C1495 1.355 . S
C1494 C1496 1.415 . S
C1495 C1494 1.355 . S
C1495 C1497 1.419 . S
C1496 C1494 1.415 . S
C1496 C1501 1.425 . S
C1496 C1503 1.409 . S
C1497 H1489 0.930 . S
C1497 C1495 1.419 . S
C1497 C1498 1.362 . S
C1498 H1490 0.930 . S
C1498 C1497 1.362 . S
C1498 C1501 1.409 . S
C1499 H1491 0.930 . S
C1499 C1500 1.355 . S
C1499 C1501 1.415 . S
C1500 C1499 1.355 . S
C1500 C1502 1.419 . S
C1501 C1496 1.425 . S
C1501 C1498 1.409 . S
C1501 C1499 1.415 . S
C1502 H1492 0.930 . S
C1502 C1500 1.419 . S
C1502 C1503 1.362 . S
C1503 H1493 0.930 . S
C1503 C1496 1.409 . S
C1503 C1502 1.362 . S
H1504 C1510 0.930 . S
H1505 C1513 0.930 . S
H1506 C1514 0.930 . S
H1507 C1515 0.930 . S
H1508 C1518 0.930 . S
H1509 C1519 0.930 . S
C1510 H1504 0.930 . S
C1510 C1511 1.355 . S
C1510 C1512 1.415 . S
C1511 C1510 1.355 . S
C1511 C1513 1.419 . S
C1512 C1510 1.415 . S
C1512 C1517 1.425 . S
C1512 C1519 1.409 . S
C1513 H1505 0.930 . S
C1513 C1511 1.419 . S
C1513 C1514 1.362 . S
C1514 H1506 0.930 . S
C1514 C1513 1.362 . S
C1514 C1517 1.409 . S
C1515 H1507 0.930 . S
C1515 C1516 1.355 . S
C1515 C1517 1.415 . S
C1516 C1515 1.355 . S
C1516 C1518 1.419 . S
C1517 C1512 1.425 . S
C1517 C1514 1.409 . S
C1517 C1515 1.415 . S
C1518 H1508 0.930 . S
C1518 C1516 1.419 . S
C1518 C1519 1.362 . S
C1519 H1509 0.930 . S
C1519 C1512 1.409 . S
C1519 C1518 1.362 . S
H1520 C1526 0.930 . S
H1521 C1529 0.930 . S
H1522 C1530 0.930 . S
H1523 C1531 0.930 . S
H1524 C1534 0.930 . S
H1525 C1535 0.930 1_455 S
C1526 H1520 0.930 . S
C1526 C1527 1.355 . S
C1526 C1528 1.415 . S
C1527 C1526 1.355 . S
C1527 C1529 1.419 . S
C1528 C1526 1.415 . S
C1528 C1533 1.425 . S
C1528 C1535 1.409 1_455 S
C1529 H1521 0.930 . S
C1529 C1527 1.419 . S
C1529 C1530 1.362 . S
C1530 H1522 0.930 . S
C1530 C1529 1.362 . S
C1530 C1533 1.409 . S
C1531 H1523 0.930 . S
C1531 C1532 1.355 . S
C1531 C1533 1.415 1_655 S
C1532 C1531 1.355 . S
C1532 C1534 1.419 . S
C1533 C1528 1.425 . S
C1533 C1530 1.409 . S
C1533 C1531 1.415 1_455 S
C1534 H1524 0.930 . S
C1534 C1532 1.419 . S
C1534 C1535 1.362 . S
C1535 H1525 0.930 1_655 S
C1535 C1528 1.409 1_655 S
C1535 C1534 1.362 . S
H1536 C1542 0.930 . S
H1537 C1545 0.930 . S
H1538 C1546 0.930 . S
H1539 C1547 0.930 . S
H1540 C1550 0.930 . S
H1541 C1551 0.930 . S
C1542 H1536 0.930 . S
C1542 C1543 1.355 . S
C1542 C1544 1.415 . S
C1543 C1542 1.355 . S
C1543 C1545 1.419 . S
C1544 C1542 1.415 . S
C1544 C1549 1.425 . S
C1544 C1551 1.409 . S
C1545 H1537 0.930 . S
C1545 C1543 1.419 . S
C1545 C1546 1.362 . S
C1546 H1538 0.930 . S
C1546 C1545 1.362 . S
C1546 C1549 1.409 . S
C1547 H1539 0.930 . S
C1547 C1548 1.355 . S
C1547 C1549 1.415 . S
C1548 C1547 1.355 . S
C1548 C1550 1.419 . S
C1549 C1544 1.425 . S
C1549 C1546 1.409 . S
C1549 C1547 1.415 . S
C1550 H1540 0.930 . S
C1550 C1548 1.419 . S
C1550 C1551 1.362 . S
C1551 H1541 0.930 . S
C1551 C1544 1.409 . S
C1551 C1550 1.362 . S
H1552 C1558 0.930 . S
H1553 C1561 0.930 . S
H1554 C1562 0.930 . S
H1555 C1563 0.930 . S
H1556 C1566 0.930 . S
H1557 C1567 0.930 1_655 S
C1558 H1552 0.930 . S
C1558 C1559 1.355 . S
C1558 C1560 1.415 . S
C1559 C1558 1.355 . S
C1559 C1561 1.419 . S
C1560 C1558 1.415 . S
C1560 C1565 1.425 . S
C1560 C1567 1.409 1_655 S
C1561 H1553 0.930 . S
C1561 C1559 1.419 . S
C1561 C1562 1.362 . S
C1562 H1554 0.930 . S
C1562 C1561 1.362 . S
C1562 C1565 1.409 . S
C1563 H1555 0.930 . S
C1563 C1564 1.355 . S
C1563 C1565 1.415 1_455 S
C1564 C1563 1.355 . S
C1564 C1566 1.419 . S
C1565 C1560 1.425 . S
C1565 C1562 1.409 . S
C1565 C1563 1.415 1_655 S
C1566 H1556 0.930 . S
C1566 C1564 1.419 . S
C1566 C1567 1.362 . S
C1567 H1557 0.930 1_455 S
C1567 C1560 1.409 1_455 S
C1567 C1566 1.362 . S
H1568 C1574 0.930 . S
H1569 C1577 0.930 . S
H1570 C1578 0.930 . S
H1571 C1579 0.930 . S
H1572 C1582 0.930 . S
H1573 C1583 0.930 . S
C1574 H1568 0.930 . S
C1574 C1575 1.355 . S
C1574 C1576 1.415 . S
C1575 C1574 1.355 . S
C1575 C1577 1.419 . S
C1576 C1574 1.415 . S
C1576 C1581 1.425 . S
C1576 C1583 1.409 . S
C1577 H1569 0.930 . S
C1577 C1575 1.419 . S
C1577 C1578 1.362 . S
C1578 H1570 0.930 . S
C1578 C1577 1.362 . S
C1578 C1581 1.409 . S
C1579 H1571 0.930 . S
C1579 C1580 1.355 . S
C1579 C1581 1.415 . S
C1580 C1579 1.355 . S
C1580 C1582 1.419 . S
C1581 C1576 1.425 . S
C1581 C1578 1.409 . S
C1581 C1579 1.415 . S
C1582 H1572 0.930 . S
C1582 C1580 1.419 . S
C1582 C1583 1.362 . S
C1583 H1573 0.930 . S
C1583 C1576 1.409 . S
C1583 C1582 1.362 . S
H1584 C1590 0.930 . S
H1585 C1593 0.930 . S
H1586 C1594 0.930 . S
H1587 C1595 0.930 . S
H1588 C1598 0.930 . S
H1589 C1599 0.930 . S
C1590 H1584 0.930 . S
C1590 C1591 1.355 . S
C1590 C1592 1.415 . S
C1591 C1590 1.355 . S
C1591 C1593 1.419 . S
C1592 C1590 1.415 . S
C1592 C1597 1.425 . S
C1592 C1599 1.409 . S
C1593 H1585 0.930 . S
C1593 C1591 1.419 . S
C1593 C1594 1.362 . S
C1594 H1586 0.930 . S
C1594 C1593 1.362 . S
C1594 C1597 1.409 . S
C1595 H1587 0.930 . S
C1595 C1596 1.355 . S
C1595 C1597 1.415 . S
C1596 C1595 1.355 . S
C1596 C1598 1.419 . S
C1597 C1592 1.425 . S
C1597 C1594 1.409 . S
C1597 C1595 1.415 . S
C1598 H1588 0.930 . S
C1598 C1596 1.419 . S
C1598 C1599 1.362 . S
C1599 H1589 0.930 . S
C1599 C1592 1.409 . S
C1599 C1598 1.362 . S
H1600 C1606 0.930 . S
H1601 C1609 0.930 . S
H1602 C1610 0.930 . S
H1603 C1611 0.930 . S
H1604 C1614 0.930 . S
H1605 C1615 0.930 . S
C1606 H1600 0.930 . S
C1606 C1607 1.355 . S
C1606 C1608 1.415 . S
C1607 C1606 1.355 . S
C1607 C1609 1.419 . S
C1608 C1606 1.415 . S
C1608 C1613 1.425 . S
C1608 C1615 1.409 . S
C1609 H1601 0.930 . S
C1609 C1607 1.419 . S
C1609 C1610 1.362 . S
C1610 H1602 0.930 . S
C1610 C1609 1.362 . S
C1610 C1613 1.409 . S
C1611 H1603 0.930 . S
C1611 C1612 1.355 . S
C1611 C1613 1.415 . S
C1612 C1611 1.355 . S
C1612 C1614 1.419 . S
C1613 C1608 1.425 . S
C1613 C1610 1.409 . S
C1613 C1611 1.415 . S
C1614 H1604 0.930 . S
C1614 C1612 1.419 . S
C1614 C1615 1.362 . S
C1615 H1605 0.930 . S
C1615 C1608 1.409 . S
C1615 C1614 1.362 . S
H1616 C1622 0.930 . S
H1617 C1625 0.930 . S
H1618 C1626 0.930 . S
H1619 C1627 0.930 . S
H1620 C1630 0.930 . S
H1621 C1631 0.930 . S
C1622 H1616 0.930 . S
C1622 C1623 1.355 . S
C1622 C1624 1.415 . S
C1623 C1622 1.355 . S
C1623 C1625 1.419 . S
C1624 C1622 1.415 . S
C1624 C1629 1.425 . S
C1624 C1631 1.409 . S
C1625 H1617 0.930 . S
C1625 C1623 1.419 . S
C1625 C1626 1.362 . S
C1626 H1618 0.930 . S
C1626 C1625 1.362 . S
C1626 C1629 1.409 . S
C1627 H1619 0.930 . S
C1627 C1628 1.355 . S
C1627 C1629 1.415 . S
C1628 C1627 1.355 . S
C1628 C1630 1.419 . S
C1629 C1624 1.425 . S
C1629 C1626 1.409 . S
C1629 C1627 1.415 . S
C1630 H1620 0.930 . S
C1630 C1628 1.419 . S
C1630 C1631 1.362 . S
C1631 H1621 0.930 . S
C1631 C1624 1.409 . S
C1631 C1630 1.362 . S
H1632 C1638 0.930 . S
H1633 C1641 0.930 . S
H1634 C1642 0.930 . S
H1635 C1643 0.930 . S
H1636 C1646 0.930 . S
H1637 C1647 0.930 . S
C1638 H1632 0.930 . S
C1638 C1639 1.355 . S
C1638 C1640 1.415 . S
C1639 C1638 1.355 . S
C1639 C1641 1.419 . S
C1640 C1638 1.415 . S
C1640 C1645 1.425 . S
C1640 C1647 1.409 . S
C1641 H1633 0.930 . S
C1641 C1639 1.419 . S
C1641 C1642 1.362 . S
C1642 H1634 0.930 . S
C1642 C1641 1.362 . S
C1642 C1645 1.409 . S
C1643 H1635 0.930 . S
C1643 C1644 1.355 . S
C1643 C1645 1.415 . S
C1644 C1643 1.355 . S
C1644 C1646 1.419 . S
C1645 C1640 1.425 . S
C1645 C1642 1.409 . S
C1645 C1643 1.415 . S
C1646 H1636 0.930 . S
C1646 C1644 1.419 . S
C1646 C1647 1.362 . S
C1647 H1637 0.930 . S
C1647 C1640 1.409 . S
C1647 C1646 1.362 . S
H1648 C1654 0.930 . S
H1649 C1657 0.930 . S
H1650 C1658 0.930 . S
H1651 C1659 0.930 . S
H1652 C1662 0.930 . S
H1653 C1663 0.930 1_655 S
C1654 H1648 0.930 . S
C1654 C1655 1.355 . S
C1654 C1656 1.415 . S
C1655 C1654 1.355 . S
C1655 C1657 1.419 . S
C1656 C1654 1.415 . S
C1656 C1661 1.425 . S
C1656 C1663 1.409 1_655 S
C1657 H1649 0.930 . S
C1657 C1655 1.419 . S
C1657 C1658 1.362 . S
C1658 H1650 0.930 . S
C1658 C1657 1.362 . S
C1658 C1661 1.409 . S
C1659 H1651 0.930 . S
C1659 C1660 1.355 . S
C1659 C1661 1.415 1_455 S
C1660 C1659 1.355 . S
C1660 C1662 1.419 . S
C1661 C1656 1.425 . S
C1661 C1658 1.409 . S
C1661 C1659 1.415 1_655 S
C1662 H1652 0.930 . S
C1662 C1660 1.419 . S
C1662 C1663 1.362 . S
C1663 H1653 0.930 1_455 S
C1663 C1656 1.409 1_455 S
C1663 C1662 1.362 . S
H1664 C1670 0.930 . S
H1665 C1673 0.930 . S
H1666 C1674 0.930 . S
H1667 C1675 0.930 . S
H1668 C1678 0.930 . S
H1669 C1679 0.930 . S
C1670 H1664 0.930 . S
C1670 C1671 1.355 . S
C1670 C1672 1.415 . S
C1671 C1670 1.355 . S
C1671 C1673 1.419 . S
C1672 C1670 1.415 . S
C1672 C1677 1.425 . S
C1672 C1679 1.409 . S
C1673 H1665 0.930 . S
C1673 C1671 1.419 . S
C1673 C1674 1.362 . S
C1674 H1666 0.930 . S
C1674 C1673 1.362 . S
C1674 C1677 1.409 . S
C1675 H1667 0.930 . S
C1675 C1676 1.355 . S
C1675 C1677 1.415 . S
C1676 C1675 1.355 . S
C1676 C1678 1.419 . S
C1677 C1672 1.425 . S
C1677 C1674 1.409 . S
C1677 C1675 1.415 . S
C1678 H1668 0.930 . S
C1678 C1676 1.419 . S
C1678 C1679 1.362 . S
C1679 H1669 0.930 . S
C1679 C1672 1.409 . S
C1679 C1678 1.362 . S
H1680 C1686 0.930 . S
H1681 C1689 0.930 . S
H1682 C1690 0.930 . S
H1683 C1691 0.930 . S
H1684 C1694 0.930 . S
H1685 C1695 0.930 . S
C1686 H1680 0.930 . S
C1686 C1687 1.355 . S
C1686 C1688 1.415 . S
C1687 C1686 1.355 . S
C1687 C1689 1.419 . S
C1688 C1686 1.415 . S
C1688 C1693 1.425 . S
C1688 C1695 1.409 . S
C1689 H1681 0.930 . S
C1689 C1687 1.419 . S
C1689 C1690 1.362 . S
C1690 H1682 0.930 . S
C1690 C1689 1.362 . S
C1690 C1693 1.409 . S
C1691 H1683 0.930 . S
C1691 C1692 1.355 . S
C1691 C1693 1.415 . S
C1692 C1691 1.355 . S
C1692 C1694 1.419 . S
C1693 C1688 1.425 . S
C1693 C1690 1.409 . S
C1693 C1691 1.415 . S
C1694 H1684 0.930 . S
C1694 C1692 1.419 . S
C1694 C1695 1.362 . S
C1695 H1685 0.930 . S
C1695 C1688 1.409 . S
C1695 C1694 1.362 . S
H1696 C1702 0.930 . S
H1697 C1705 0.930 . S
H1698 C1706 0.930 . S
H1699 C1707 0.930 . S
H1700 C1710 0.930 . S
H1701 C1711 0.930 . S
C1702 H1696 0.930 . S
C1702 C1703 1.355 . S
C1702 C1704 1.415 . S
C1703 C1702 1.355 . S
C1703 C1705 1.419 . S
C1704 C1702 1.415 . S
C1704 C1709 1.425 . S
C1704 C1711 1.409 . S
C1705 H1697 0.930 . S
C1705 C1703 1.419 . S
C1705 C1706 1.362 . S
C1706 H1698 0.930 . S
C1706 C1705 1.362 . S
C1706 C1709 1.409 . S
C1707 H1699 0.930 . S
C1707 C1708 1.355 . S
C1707 C1709 1.415 . S
C1708 C1707 1.355 . S
C1708 C1710 1.419 . S
C1709 C1704 1.425 . S
C1709 C1706 1.409 . S
C1709 C1707 1.415 . S
C1710 H1700 0.930 . S
C1710 C1708 1.419 . S
C1710 C1711 1.362 . S
C1711 H1701 0.930 . S
C1711 C1704 1.409 . S
C1711 C1710 1.362 . S
H1712 C1718 0.930 . S
H1713 C1721 0.930 . S
H1714 C1722 0.930 . S
H1715 C1723 0.930 . S
H1716 C1726 0.930 . S
H1717 C1727 0.930 1_655 S
C1718 H1712 0.930 . S
C1718 C1719 1.355 . S
C1718 C1720 1.415 . S
C1719 C1718 1.355 . S
C1719 C1721 1.419 . S
C1720 C1718 1.415 . S
C1720 C1725 1.425 . S
C1720 C1727 1.409 1_655 S
C1721 H1713 0.930 . S
C1721 C1719 1.419 . S
C1721 C1722 1.362 . S
C1722 H1714 0.930 . S
C1722 C1721 1.362 . S
C1722 C1725 1.409 . S
C1723 H1715 0.930 . S
C1723 C1724 1.355 . S
C1723 C1725 1.415 1_455 S
C1724 C1723 1.355 . S
C1724 C1726 1.419 . S
C1725 C1720 1.425 . S
C1725 C1722 1.409 . S
C1725 C1723 1.415 1_655 S
C1726 H1716 0.930 . S
C1726 C1724 1.419 . S
C1726 C1727 1.362 . S
C1727 H1717 0.930 1_455 S
C1727 C1720 1.409 1_455 S
C1727 C1726 1.362 . S
H1728 C1734 0.930 . S
H1729 C1737 0.930 . S
H1730 C1738 0.930 . S
H1731 C1739 0.930 . S
H1732 C1742 0.930 . S
H1733 C1743 0.930 . S
C1734 H1728 0.930 . S
C1734 C1735 1.355 . S
C1734 C1736 1.415 . S
C1735 C1734 1.355 . S
C1735 C1737 1.419 . S
C1736 C1734 1.415 . S
C1736 C1741 1.425 . S
C1736 C1743 1.409 . S
C1737 H1729 0.930 . S
C1737 C1735 1.419 . S
C1737 C1738 1.362 . S
C1738 H1730 0.930 . S
C1738 C1737 1.362 . S
C1738 C1741 1.409 . S
C1739 H1731 0.930 . S
C1739 C1740 1.355 . S
C1739 C1741 1.415 . S
C1740 C1739 1.355 . S
C1740 C1742 1.419 . S
C1741 C1736 1.425 . S
C1741 C1738 1.409 . S
C1741 C1739 1.415 . S
C1742 H1732 0.930 . S
C1742 C1740 1.419 . S
C1742 C1743 1.362 . S
C1743 H1733 0.930 . S
C1743 C1736 1.409 . S
C1743 C1742 1.362 . S
H1744 C1750 0.930 . S
H1745 C1753 0.930 . S
H1746 C1754 0.930 1_655 S
H1747 C1755 0.930 . S
H1748 C1758 0.930 . S
H1749 C1759 0.930 . S
C1750 H1744 0.930 . S
C1750 C1751 1.355 . S
C1750 C1752 1.415 1_455 S
C1751 C1750 1.355 . S
C1751 C1753 1.419 . S
C1752 C1750 1.415 1_655 S
C1752 C1757 1.425 . S
C1752 C1759 1.409 . S
C1753 H1745 0.930 . S
C1753 C1751 1.419 . S
C1753 C1754 1.362 . S
C1754 H1746 0.930 1_455 S
C1754 C1753 1.362 . S
C1754 C1757 1.409 1_455 S
C1755 H1747 0.930 . S
C1755 C1756 1.355 . S
C1755 C1757 1.415 . S
C1756 C1755 1.355 . S
C1756 C1758 1.419 . S
C1757 C1752 1.425 . S
C1757 C1754 1.409 1_655 S
C1757 C1755 1.415 . S
C1758 H1748 0.930 . S
C1758 C1756 1.419 . S
C1758 C1759 1.362 . S
C1759 H1749 0.930 . S
C1759 C1752 1.409 . S
C1759 C1758 1.362 . S
H1760 C1766 0.930 . S
H1761 C1769 0.930 . S
H1762 C1770 0.930 . S
H1763 C1771 0.930 . S
H1764 C1774 0.930 . S
H1765 C1775 0.930 . S
C1766 H1760 0.930 . S
C1766 C1767 1.355 . S
C1766 C1768 1.415 . S
C1767 C1766 1.355 . S
C1767 C1769 1.419 . S
C1768 C1766 1.415 . S
C1768 C1773 1.425 . S
C1768 C1775 1.409 . S
C1769 H1761 0.930 . S
C1769 C1767 1.419 . S
C1769 C1770 1.362 . S
C1770 H1762 0.930 . S
C1770 C1769 1.362 . S
C1770 C1773 1.409 . S
C1771 H1763 0.930 . S
C1771 C1772 1.355 . S
C1771 C1773 1.415 . S
C1772 C1771 1.355 . S
C1772 C1774 1.419 . S
C1773 C1768 1.425 . S
C1773 C1770 1.409 . S
C1773 C1771 1.415 . S
C1774 H1764 0.930 . S
C1774 C1772 1.419 . S
C1774 C1775 1.362 . S
C1775 H1765 0.930 . S
C1775 C1768 1.409 . S
C1775 C1774 1.362 . S
H1776 C1782 0.930 . S
H1777 C1785 0.930 . S
H1778 C1786 0.930 . S
H1779 C1787 0.930 . S
H1780 C1790 0.930 . S
H1781 C1791 0.930 . S
C1782 H1776 0.930 . S
C1782 C1783 1.355 . S
C1782 C1784 1.415 . S
C1783 C1782 1.355 . S
C1783 C1785 1.419 . S
C1784 C1782 1.415 . S
C1784 C1789 1.425 . S
C1784 C1791 1.409 . S
C1785 H1777 0.930 . S
C1785 C1783 1.419 . S
C1785 C1786 1.362 . S
C1786 H1778 0.930 . S
C1786 C1785 1.362 . S
C1786 C1789 1.409 . S
C1787 H1779 0.930 . S
C1787 C1788 1.355 . S
C1787 C1789 1.415 . S
C1788 C1787 1.355 . S
C1788 C1790 1.419 . S
C1789 C1784 1.425 . S
C1789 C1786 1.409 . S
C1789 C1787 1.415 . S
C1790 H1780 0.930 . S
C1790 C1788 1.419 . S
C1790 C1791 1.362 . S
C1791 H1781 0.930 . S
C1791 C1784 1.409 . S
C1791 C1790 1.362 . S
H1792 C1798 0.930 . S
H1793 C1801 0.930 . S
H1794 C1802 0.930 . S
H1795 C1803 0.930 . S
H1796 C1806 0.930 . S
H1797 C1807 0.930 . S
C1798 H1792 0.930 . S
C1798 C1799 1.355 . S
C1798 C1800 1.415 . S
C1799 C1798 1.355 . S
C1799 C1801 1.419 . S
C1800 C1798 1.415 . S
C1800 C1805 1.425 . S
C1800 C1807 1.409 . S
C1801 H1793 0.930 . S
C1801 C1799 1.419 . S
C1801 C1802 1.362 . S
C1802 H1794 0.930 . S
C1802 C1801 1.362 . S
C1802 C1805 1.409 . S
C1803 H1795 0.930 . S
C1803 C1804 1.355 . S
C1803 C1805 1.415 . S
C1804 C1803 1.355 . S
C1804 C1806 1.419 . S
C1805 C1800 1.425 . S
C1805 C1802 1.409 . S
C1805 C1803 1.415 . S
C1806 H1796 0.930 . S
C1806 C1804 1.419 . S
C1806 C1807 1.362 . S
C1807 H1797 0.930 . S
C1807 C1800 1.409 . S
C1807 C1806 1.362 . S
H1808 C1814 0.930 . S
H1809 C1817 0.930 . S
H1810 C1818 0.930 . S
H1811 C1819 0.930 . S
H1812 C1822 0.930 . S
H1813 C1823 0.930 . S
C1814 H1808 0.930 . S
C1814 C1815 1.355 . S
C1814 C1816 1.415 . S
C1815 C1814 1.355 . S
C1815 C1817 1.419 . S
C1816 C1814 1.415 . S
C1816 C1821 1.425 . S
C1816 C1823 1.409 . S
C1817 H1809 0.930 . S
C1817 C1815 1.419 . S
C1817 C1818 1.362 . S
C1818 H1810 0.930 . S
C1818 C1817 1.362 . S
C1818 C1821 1.409 . S
C1819 H1811 0.930 . S
C1819 C1820 1.355 . S
C1819 C1821 1.415 . S
C1820 C1819 1.355 . S
C1820 C1822 1.419 . S
C1821 C1816 1.425 . S
C1821 C1818 1.409 . S
C1821 C1819 1.415 . S
C1822 H1812 0.930 . S
C1822 C1820 1.419 . S
C1822 C1823 1.362 . S
C1823 H1813 0.930 . S
C1823 C1816 1.409 . S
C1823 C1822 1.362 . S
H1824 C1830 0.930 . S
H1825 C1833 0.930 . S
H1826 C1834 0.930 . S
H1827 C1835 0.930 . S
H1828 C1838 0.930 . S
H1829 C1839 0.930 . S
C1830 H1824 0.930 . S
C1830 C1831 1.355 . S
C1830 C1832 1.415 . S
C1831 C1830 1.355 . S
C1831 C1833 1.419 . S
C1832 C1830 1.415 . S
C1832 C1837 1.425 . S
C1832 C1839 1.409 . S
C1833 H1825 0.930 . S
C1833 C1831 1.419 . S
C1833 C1834 1.362 . S
C1834 H1826 0.930 . S
C1834 C1833 1.362 . S
C1834 C1837 1.409 . S
C1835 H1827 0.930 . S
C1835 C1836 1.355 . S
C1835 C1837 1.415 . S
C1836 C1835 1.355 . S
C1836 C1838 1.419 . S
C1837 C1832 1.425 . S
C1837 C1834 1.409 . S
C1837 C1835 1.415 . S
C1838 H1828 0.930 . S
C1838 C1836 1.419 . S
C1838 C1839 1.362 . S
C1839 H1829 0.930 . S
C1839 C1832 1.409 . S
C1839 C1838 1.362 . S
H1840 C1846 0.930 . S
H1841 C1849 0.930 . S
H1842 C1850 0.930 . S
H1843 C1851 0.930 . S
H1844 C1854 0.930 . S
H1845 C1855 0.930 1_455 S
C1846 H1840 0.930 . S
C1846 C1847 1.355 . S
C1846 C1848 1.415 . S
C1847 C1846 1.355 . S
C1847 C1849 1.419 . S
C1848 C1846 1.415 . S
C1848 C1853 1.425 . S
C1848 C1855 1.409 1_455 S
C1849 H1841 0.930 . S
C1849 C1847 1.419 . S
C1849 C1850 1.362 . S
C1850 H1842 0.930 . S
C1850 C1849 1.362 . S
C1850 C1853 1.409 . S
C1851 H1843 0.930 . S
C1851 C1852 1.355 . S
C1851 C1853 1.415 1_655 S
C1852 C1851 1.355 . S
C1852 C1854 1.419 . S
C1853 C1848 1.425 . S
C1853 C1850 1.409 . S
C1853 C1851 1.415 1_455 S
C1854 H1844 0.930 . S
C1854 C1852 1.419 . S
C1854 C1855 1.362 . S
C1855 H1845 0.930 1_655 S
C1855 C1848 1.409 1_655 S
C1855 C1854 1.362 . S
H1856 C1862 0.930 . S
H1857 C1865 0.930 . S
H1858 C1866 0.930 . S
H1859 C1867 0.930 . S
H1860 C1870 0.930 . S
H1861 C1871 0.930 . S
C1862 H1856 0.930 . S
C1862 C1863 1.355 . S
C1862 C1864 1.415 . S
C1863 C1862 1.355 . S
C1863 C1865 1.419 . S
C1864 C1862 1.415 . S
C1864 C1869 1.425 . S
C1864 C1871 1.409 . S
C1865 H1857 0.930 . S
C1865 C1863 1.419 . S
C1865 C1866 1.362 . S
C1866 H1858 0.930 . S
C1866 C1865 1.362 . S
C1866 C1869 1.409 . S
C1867 H1859 0.930 . S
C1867 C1868 1.355 . S
C1867 C1869 1.415 . S
C1868 C1867 1.355 . S
C1868 C1870 1.419 . S
C1869 C1864 1.425 . S
C1869 C1866 1.409 . S
C1869 C1867 1.415 . S
C1870 H1860 0.930 . S
C1870 C1868 1.419 . S
C1870 C1871 1.362 . S
C1871 H1861 0.930 . S
C1871 C1864 1.409 . S
C1871 C1870 1.362 . S
H1872 C1878 0.930 . S
H1873 C1881 0.930 . S
H1874 C1882 0.930 1_455 S
H1875 C1883 0.930 . S
H1876 C1886 0.930 . S
H1877 C1887 0.930 . S
C1878 H1872 0.930 . S
C1878 C1879 1.355 . S
C1878 C1880 1.415 1_655 S
C1879 C1878 1.355 . S
C1879 C1881 1.419 . S
C1880 C1878 1.415 1_455 S
C1880 C1885 1.425 . S
C1880 C1887 1.409 . S
C1881 H1873 0.930 . S
C1881 C1879 1.419 . S
C1881 C1882 1.362 . S
C1882 H1874 0.930 1_655 S
C1882 C1881 1.362 . S
C1882 C1885 1.409 1_655 S
C1883 H1875 0.930 . S
C1883 C1884 1.355 . S
C1883 C1885 1.415 . S
C1884 C1883 1.355 . S
C1884 C1886 1.419 . S
C1885 C1880 1.425 . S
C1885 C1882 1.409 1_455 S
C1885 C1883 1.415 . S
C1886 H1876 0.930 . S
C1886 C1884 1.419 . S
C1886 C1887 1.362 . S
C1887 H1877 0.930 . S
C1887 C1880 1.409 . S
C1887 C1886 1.362 . S
H1888 C1894 0.930 . S
H1889 C1897 0.930 . S
H1890 C1898 0.930 . S
H1891 C1899 0.930 . S
H1892 C1902 0.930 . S
H1893 C1903 0.930 . S
C1894 H1888 0.930 . S
C1894 C1895 1.355 . S
C1894 C1896 1.415 . S
C1895 C1894 1.355 . S
C1895 C1897 1.419 . S
C1896 C1894 1.415 . S
C1896 C1901 1.425 . S
C1896 C1903 1.409 . S
C1897 H1889 0.930 . S
C1897 C1895 1.419 . S
C1897 C1898 1.362 . S
C1898 H1890 0.930 . S
C1898 C1897 1.362 . S
C1898 C1901 1.409 . S
C1899 H1891 0.930 . S
C1899 C1900 1.355 . S
C1899 C1901 1.415 . S
C1900 C1899 1.355 . S
C1900 C1902 1.419 . S
C1901 C1896 1.425 . S
C1901 C1898 1.409 . S
C1901 C1899 1.415 . S
C1902 H1892 0.930 . S
C1902 C1900 1.419 . S
C1902 C1903 1.362 . S
C1903 H1893 0.930 . S
C1903 C1896 1.409 . S
C1903 C1902 1.362 . S
H1904 C1910 0.930 . S
H1905 C1913 0.930 . S
H1906 C1914 0.930 . S
H1907 C1915 0.930 . S
H1908 C1918 0.930 . S
H1909 C1919 0.930 . S
C1910 H1904 0.930 . S
C1910 C1911 1.355 . S
C1910 C1912 1.415 . S
C1911 C1910 1.355 . S
C1911 C1913 1.419 . S
C1912 C1910 1.415 . S
C1912 C1917 1.425 . S
C1912 C1919 1.409 . S
C1913 H1905 0.930 . S
C1913 C1911 1.419 . S
C1913 C1914 1.362 . S
C1914 H1906 0.930 . S
C1914 C1913 1.362 . S
C1914 C1917 1.409 . S
C1915 H1907 0.930 . S
C1915 C1916 1.355 . S
C1915 C1917 1.415 . S
C1916 C1915 1.355 . S
C1916 C1918 1.419 . S
C1917 C1912 1.425 . S
C1917 C1914 1.409 . S
C1917 C1915 1.415 . S
C1918 H1908 0.930 . S
C1918 C1916 1.419 . S
C1918 C1919 1.362 . S
C1919 H1909 0.930 . S
C1919 C1912 1.409 . S
C1919 C1918 1.362 . S
H1920 C1926 0.930 . S
H1921 C1929 0.930 . S
H1922 C1930 0.930 . S
H1923 C1931 0.930 . S
H1924 C1934 0.930 . S
H1925 C1935 0.930 . S
C1926 H1920 0.930 . S
C1926 C1927 1.355 . S
C1926 C1928 1.415 . S
C1927 C1926 1.355 . S
C1927 C1929 1.419 . S
C1928 C1926 1.415 . S
C1928 C1933 1.425 . S
C1928 C1935 1.409 . S
C1929 H1921 0.930 . S
C1929 C1927 1.419 . S
C1929 C1930 1.362 . S
C1930 H1922 0.930 . S
C1930 C1929 1.362 . S
C1930 C1933 1.409 . S
C1931 H1923 0.930 . S
C1931 C1932 1.355 . S
C1931 C1933 1.415 . S
C1932 C1931 1.355 . S
C1932 C1934 1.419 . S
C1933 C1928 1.425 . S
C1933 C1930 1.409 . S
C1933 C1931 1.415 . S
C1934 H1924 0.930 . S
C1934 C1932 1.419 . S
C1934 C1935 1.362 . S
C1935 H1925 0.930 . S
C1935 C1928 1.409 . S
C1935 C1934 1.362 . S
H1936 C1942 0.930 . S
H1937 C1945 0.930 . S
H1938 C1946 0.930 . S
H1939 C1947 0.930 . S
H1940 C1950 0.930 . S
H1941 C1951 0.930 . S
C1942 H1936 0.930 . S
C1942 C1943 1.355 . S
C1942 C1944 1.415 . S
C1943 C1942 1.355 . S
C1943 C1945 1.419 . S
C1944 C1942 1.415 . S
C1944 C1949 1.425 . S
C1944 C1951 1.409 . S
C1945 H1937 0.930 . S
C1945 C1943 1.419 . S
C1945 C1946 1.362 . S
C1946 H1938 0.930 . S
C1946 C1945 1.362 . S
C1946 C1949 1.409 . S
C1947 H1939 0.930 . S
C1947 C1948 1.355 . S
C1947 C1949 1.415 . S
C1948 C1947 1.355 . S
C1948 C1950 1.419 . S
C1949 C1944 1.425 . S
C1949 C1946 1.409 . S
C1949 C1947 1.415 . S
C1950 H1940 0.930 . S
C1950 C1948 1.419 . S
C1950 C1951 1.362 . S
C1951 H1941 0.930 . S
C1951 C1944 1.409 . S
C1951 C1950 1.362 . S
H1952 C1958 0.930 . S
H1953 C1961 0.930 . S
H1954 C1962 0.930 . S
H1955 C1963 0.930 . S
H1956 C1966 0.930 . S
H1957 C1967 0.930 . S
C1958 H1952 0.930 . S
C1958 C1959 1.355 . S
C1958 C1960 1.415 . S
C1959 C1958 1.355 . S
C1959 C1961 1.419 . S
C1960 C1958 1.415 . S
C1960 C1965 1.425 . S
C1960 C1967 1.409 . S
C1961 H1953 0.930 . S
C1961 C1959 1.419 . S
C1961 C1962 1.362 . S
C1962 H1954 0.930 . S
C1962 C1961 1.362 . S
C1962 C1965 1.409 . S
C1963 H1955 0.930 . S
C1963 C1964 1.355 . S
C1963 C1965 1.415 . S
C1964 C1963 1.355 . S
C1964 C1966 1.419 . S
C1965 C1960 1.425 . S
C1965 C1962 1.409 . S
C1965 C1963 1.415 . S
C1966 H1956 0.930 . S
C1966 C1964 1.419 . S
C1966 C1967 1.362 . S
C1967 H1957 0.930 . S
C1967 C1960 1.409 . S
C1967 C1966 1.362 . S
H1968 C1974 0.930 . S
H1969 C1977 0.930 . S
H1970 C1978 0.930 . S
H1971 C1979 0.930 . S
H1972 C1982 0.930 . S
H1973 C1983 0.930 . S
C1974 H1968 0.930 . S
C1974 C1975 1.355 . S
C1974 C1976 1.415 . S
C1975 C1974 1.355 . S
C1975 C1977 1.419 . S
C1976 C1974 1.415 . S
C1976 C1981 1.425 . S
C1976 C1983 1.409 . S
C1977 H1969 0.930 . S
C1977 C1975 1.419 . S
C1977 C1978 1.362 . S
C1978 H1970 0.930 . S
C1978 C1977 1.362 . S
C1978 C1981 1.409 . S
C1979 H1971 0.930 . S
C1979 C1980 1.355 . S
C1979 C1981 1.415 . S
C1980 C1979 1.355 . S
C1980 C1982 1.419 . S
C1981 C1976 1.425 . S
C1981 C1978 1.409 . S
C1981 C1979 1.415 . S
C1982 H1972 0.930 . S
C1982 C1980 1.419 . S
C1982 C1983 1.362 . S
C1983 H1973 0.930 . S
C1983 C1976 1.409 . S
C1983 C1982 1.362 . S
H1984 C1990 0.930 . S
H1985 C1993 0.930 . S
H1986 C1994 0.930 . S
H1987 C1995 0.930 . S
H1988 C1998 0.930 . S
H1989 C1999 0.930 . S
C1990 H1984 0.930 . S
C1990 C1991 1.355 . S
C1990 C1992 1.415 . S
C1991 C1990 1.355 . S
C1991 C1993 1.419 . S
C1992 C1990 1.415 . S
C1992 C1997 1.425 . S
C1992 C1999 1.409 . S
C1993 H1985 0.930 . S
C1993 C1991 1.419 . S
C1993 C1994 1.362 . S
C1994 H1986 0.930 . S
C1994 C1993 1.362 . S
C1994 C1997 1.409 . S
C1995 H1987 0.930 . S
C1995 C1996 1.355 . S
C1995 C1997 1.415 . S
C1996 C1995 1.355 . S
C1996 C1998 1.419 . S
C1997 C1992 1.425 . S
C1997 C1994 1.409 . S
C1997 C1995 1.415 . S
C1998 H1988 0.930 . S
C1998 C1996 1.419 . S
C1998 C1999 1.362 . S
C1999 H1989 0.930 . S
C1999 C1992 1.409 . S
C1999 C1998 1.362 . S
H2000 C2006 0.930 . S
H2001 C2009 0.930 . S
H2002 C2010 0.930 . S
H2003 C2011 0.930 . S
H2004 C2014 0.930 . S
H2005 C2015 0.930 . S
C2006 H2000 0.930 . S
C2006 C2007 1.355 . S
C2006 C2008 1.415 . S
C2007 C2006 1.355 . S
C2007 C2009 1.419 . S
C2008 C2006 1.415 . S
C2008 C2013 1.425 . S
C2008 C2015 1.409 . S
C2009 H2001 0.930 . S
C2009 C2007 1.419 . S
C2009 C2010 1.362 . S
C2010 H2002 0.930 . S
C2010 C2009 1.362 . S
C2010 C2013 1.409 . S
C2011 H2003 0.930 . S
C2011 C2012 1.355 . S
C2011 C2013 1.415 . S
C2012 C2011 1.355 . S
C2012 C2014 1.419 . S
C2013 C2008 1.425 . S
C2013 C2010 1.409 . S
C2013 C2011 1.415 . S
C2014 H2004 0.930 . S
C2014 C2012 1.419 . S
C2014 C2015 1.362 . S
C2015 H2005 0.930 . S
C2015 C2008 1.409 . S
C2015 C2014 1.362 . S
H2016 C2022 0.930 . S
H2017 C2025 0.930 . S
H2018 C2026 0.930 . S
H2019 C2027 0.930 . S
H2020 C2030 0.930 . S
H2021 C2031 0.930 . S
C2022 H2016 0.930 . S
C2022 C2023 1.355 . S
C2022 C2024 1.415 . S
C2023 C2022 1.355 . S
C2023 C2025 1.419 . S
C2024 C2022 1.415 . S
C2024 C2029 1.425 . S
C2024 C2031 1.409 . S
C2025 H2017 0.930 . S
C2025 C2023 1.419 . S
C2025 C2026 1.362 . S
C2026 H2018 0.930 . S
C2026 C2025 1.362 . S
C2026 C2029 1.409 . S
C2027 H2019 0.930 . S
C2027 C2028 1.355 . S
C2027 C2029 1.415 . S
C2028 C2027 1.355 . S
C2028 C2030 1.419 . S
C2029 C2024 1.425 . S
C2029 C2026 1.409 . S
C2029 C2027 1.415 . S
C2030 H2020 0.930 . S
C2030 C2028 1.419 . S
C2030 C2031 1.362 . S
C2031 H2021 0.930 . S
C2031 C2024 1.409 . S
C2031 C2030 1.362 . S
H2032 C2038 0.930 . S
H2033 C2041 0.930 . S
H2034 C2042 0.930 . S
H2035 C2043 0.930 . S
H2036 C2046 0.930 . S
H2037 C2047 0.930 . S
C2038 H2032 0.930 . S
C2038 C2039 1.355 . S
C2038 C2040 1.415 . S
C2039 C2038 1.355 . S
C2039 C2041 1.419 . S
C2040 C2038 1.415 . S
C2040 C2045 1.425 . S
C2040 C2047 1.409 . S
C2041 H2033 0.930 . S
C2041 C2039 1.419 . S
C2041 C2042 1.362 . S
C2042 H2034 0.930 . S
C2042 C2041 1.362 . S
C2042 C2045 1.409 . S
C2043 H2035 0.930 . S
C2043 C2044 1.355 . S
C2043 C2045 1.415 . S
C2044 C2043 1.355 . S
C2044 C2046 1.419 . S
C2045 C2040 1.425 . S
C2045 C2042 1.409 . S
C2045 C2043 1.415 . S
C2046 H2036 0.930 . S
C2046 C2044 1.419 . S
C2046 C2047 1.362 . S
C2047 H2037 0.930 . S
C2047 C2040 1.409 . S
C2047 C2046 1.362 . S
H2048 C2054 0.930 . S
H2049 C2057 0.930 . S
H2050 C2058 0.930 . S
H2051 C2059 0.930 . S
H2052 C2062 0.930 . S
H2053 C2063 0.930 . S
C2054 H2048 0.930 . S
C2054 C2055 1.355 . S
C2054 C2056 1.415 . S
C2055 C2054 1.355 . S
C2055 C2057 1.419 . S
C2056 C2054 1.415 . S
C2056 C2061 1.425 . S
C2056 C2063 1.409 . S
C2057 H2049 0.930 . S
C2057 C2055 1.419 . S
C2057 C2058 1.362 . S
C2058 H2050 0.930 . S
C2058 C2057 1.362 . S
C2058 C2061 1.409 . S
C2059 H2051 0.930 . S
C2059 C2060 1.355 . S
C2059 C2061 1.415 . S
C2060 C2059 1.355 . S
C2060 C2062 1.419 . S
C2061 C2056 1.425 . S
C2061 C2058 1.409 . S
C2061 C2059 1.415 . S
C2062 H2052 0.930 . S
C2062 C2060 1.419 . S
C2062 C2063 1.362 . S
C2063 H2053 0.930 . S
C2063 C2056 1.409 . S
C2063 C2062 1.362 . S
H2064 C2070 0.930 . S
H2065 C2073 0.930 . S
H2066 C2074 0.930 . S
H2067 C2075 0.930 . S
H2068 C2078 0.930 . S
H2069 C2079 0.930 . S
C2070 H2064 0.930 . S
C2070 C2071 1.355 . S
C2070 C2072 1.415 . S
C2071 C2070 1.355 . S
C2071 C2073 1.419 . S
C2072 C2070 1.415 . S
C2072 C2077 1.425 . S
C2072 C2079 1.409 . S
C2073 H2065 0.930 . S
C2073 C2071 1.419 . S
C2073 C2074 1.362 . S
C2074 H2066 0.930 . S
C2074 C2073 1.362 . S
C2074 C2077 1.409 . S
C2075 H2067 0.930 . S
C2075 C2076 1.355 . S
C2075 C2077 1.415 . S
C2076 C2075 1.355 . S
C2076 C2078 1.419 . S
C2077 C2072 1.425 . S
C2077 C2074 1.409 . S
C2077 C2075 1.415 . S
C2078 H2068 0.930 . S
C2078 C2076 1.419 . S
C2078 C2079 1.362 . S
C2079 H2069 0.930 . S
C2079 C2072 1.409 . S
C2079 C2078 1.362 . S
H2080 C2086 0.930 . S
H2081 C2089 0.930 . S
H2082 C2090 0.930 . S
H2083 C2091 0.930 . S
H2084 C2094 0.930 . S
H2085 C2095 0.930 . S
C2086 H2080 0.930 . S
C2086 C2087 1.355 . S
C2086 C2088 1.415 . S
C2087 C2086 1.355 . S
C2087 C2089 1.419 . S
C2088 C2086 1.415 . S
C2088 C2093 1.425 . S
C2088 C2095 1.409 . S
C2089 H2081 0.930 . S
C2089 C2087 1.419 . S
C2089 C2090 1.362 . S
C2090 H2082 0.930 . S
C2090 C2089 1.362 . S
C2090 C2093 1.409 . S
C2091 H2083 0.930 . S
C2091 C2092 1.355 . S
C2091 C2093 1.415 . S
C2092 C2091 1.355 . S
C2092 C2094 1.419 . S
C2093 C2088 1.425 . S
C2093 C2090 1.409 . S
C2093 C2091 1.415 . S
C2094 H2084 0.930 . S
C2094 C2092 1.419 . S
C2094 C2095 1.362 . S
C2095 H2085 0.930 . S
C2095 C2088 1.409 . S
C2095 C2094 1.362 . S
H2096 C2102 0.930 . S
H2097 C2105 0.930 . S
H2098 C2106 0.930 . S
H2099 C2107 0.930 . S
H2100 C2110 0.930 . S
H2101 C2111 0.930 . S
C2102 H2096 0.930 . S
C2102 C2103 1.355 . S
C2102 C2104 1.415 . S
C2103 C2102 1.355 . S
C2103 C2105 1.419 . S
C2104 C2102 1.415 . S
C2104 C2109 1.425 . S
C2104 C2111 1.409 . S
C2105 H2097 0.930 . S
C2105 C2103 1.419 . S
C2105 C2106 1.362 . S
C2106 H2098 0.930 . S
C2106 C2105 1.362 . S
C2106 C2109 1.409 . S
C2107 H2099 0.930 . S
C2107 C2108 1.355 . S
C2107 C2109 1.415 . S
C2108 C2107 1.355 . S
C2108 C2110 1.419 . S
C2109 C2104 1.425 . S
C2109 C2106 1.409 . S
C2109 C2107 1.415 . S
C2110 H2100 0.930 . S
C2110 C2108 1.419 . S
C2110 C2111 1.362 . S
C2111 H2101 0.930 . S
C2111 C2104 1.409 . S
C2111 C2110 1.362 . S
H2112 C2118 0.930 . S
H2113 C2121 0.930 . S
H2114 C2122 0.930 . S
H2115 C2123 0.930 . S
H2116 C2126 0.930 . S
H2117 C2127 0.930 . S
C2118 H2112 0.930 . S
C2118 C2119 1.355 . S
C2118 C2120 1.415 . S
C2119 C2118 1.355 . S
C2119 C2121 1.419 . S
C2120 C2118 1.415 . S
C2120 C2125 1.425 . S
C2120 C2127 1.409 . S
C2121 H2113 0.930 . S
C2121 C2119 1.419 . S
C2121 C2122 1.362 . S
C2122 H2114 0.930 . S
C2122 C2121 1.362 . S
C2122 C2125 1.409 . S
C2123 H2115 0.930 . S
C2123 C2124 1.355 . S
C2123 C2125 1.415 . S
C2124 C2123 1.355 . S
C2124 C2126 1.419 . S
C2125 C2120 1.425 . S
C2125 C2122 1.409 . S
C2125 C2123 1.415 . S
C2126 H2116 0.930 . S
C2126 C2124 1.419 . S
C2126 C2127 1.362 . S
C2127 H2117 0.930 . S
C2127 C2120 1.409 . S
C2127 C2126 1.362 . S
H2128 C2134 0.930 . S
H2129 C2137 0.930 . S
H2130 C2138 0.930 . S
H2131 C2139 0.930 . S
H2132 C2142 0.930 . S
H2133 C2143 0.930 . S
C2134 H2128 0.930 . S
C2134 C2135 1.355 . S
C2134 C2136 1.415 . S
C2135 C2134 1.355 . S
C2135 C2137 1.419 . S
C2136 C2134 1.415 . S
C2136 C2141 1.425 . S
C2136 C2143 1.409 . S
C2137 H2129 0.930 . S
C2137 C2135 1.419 . S
C2137 C2138 1.362 . S
C2138 H2130 0.930 . S
C2138 C2137 1.362 . S
C2138 C2141 1.409 . S
C2139 H2131 0.930 . S
C2139 C2140 1.355 . S
C2139 C2141 1.415 . S
C2140 C2139 1.355 . S
C2140 C2142 1.419 . S
C2141 C2136 1.425 . S
C2141 C2138 1.409 . S
C2141 C2139 1.415 . S
C2142 H2132 0.930 . S
C2142 C2140 1.419 . S
C2142 C2143 1.362 . S
C2143 H2133 0.930 . S
C2143 C2136 1.409 . S
C2143 C2142 1.362 . S
H2144 C2150 0.930 . S
H2145 C2153 0.930 . S
H2146 C2154 0.930 . S
H2147 C2155 0.930 . S
H2148 C2158 0.930 . S
H2149 C2159 0.930 . S
C2150 H2144 0.930 . S
C2150 C2151 1.355 . S
C2150 C2152 1.415 . S
C2151 C2150 1.355 . S
C2151 C2153 1.419 . S
C2152 C2150 1.415 . S
C2152 C2157 1.425 . S
C2152 C2159 1.409 . S
C2153 H2145 0.930 . S
C2153 C2151 1.419 . S
C2153 C2154 1.362 . S
C2154 H2146 0.930 . S
C2154 C2153 1.362 . S
C2154 C2157 1.409 . S
C2155 H2147 0.930 . S
C2155 C2156 1.355 . S
C2155 C2157 1.415 . S
C2156 C2155 1.355 . S
C2156 C2158 1.419 . S
C2157 C2152 1.425 . S
C2157 C2154 1.409 . S
C2157 C2155 1.415 . S
C2158 H2148 0.930 . S
C2158 C2156 1.419 . S
C2158 C2159 1.362 . S
C2159 H2149 0.930 . S
C2159 C2152 1.409 . S
C2159 C2158 1.362 . S
H2160 C2166 0.930 . S
H2161 C2169 0.930 . S
H2162 C2170 0.930 . S
H2163 C2171 0.930 . S
H2164 C2174 0.930 . S
H2165 C2175 0.930 . S
C2166 H2160 0.930 . S
C2166 C2167 1.355 . S
C2166 C2168 1.415 . S
C2167 C2166 1.355 . S
C2167 C2169 1.419 . S
C2168 C2166 1.415 . S
C2168 C2173 1.425 . S
C2168 C2175 1.409 . S
C2169 H2161 0.930 . S
C2169 C2167 1.419 . S
C2169 C2170 1.362 . S
C2170 H2162 0.930 . S
C2170 C2169 1.362 . S
C2170 C2173 1.409 . S
C2171 H2163 0.930 . S
C2171 C2172 1.355 . S
C2171 C2173 1.415 . S
C2172 C2171 1.355 . S
C2172 C2174 1.419 . S
C2173 C2168 1.425 . S
C2173 C2170 1.409 . S
C2173 C2171 1.415 . S
C2174 H2164 0.930 . S
C2174 C2172 1.419 . S
C2174 C2175 1.362 . S
C2175 H2165 0.930 . S
C2175 C2168 1.409 . S
C2175 C2174 1.362 . S
C1159 C4 1.437 . S
C1164 C148 1.423 . S
C1175 C40 1.415 . S
C1180 C184 1.454 . S
C1191 C220 1.454 . S
C1196 C76 1.411 . S
C1207 C256 1.451 . S
C1212 C112 1.412 . S
C1223 C292 1.432 . S
C1228 C436 1.440 . S
C1239 C328 1.412 . S
C1244 C472 1.452 . S
C1255 C508 1.411 . S
C1260 C364 1.455 . S
C1271 C400 1.412 . S
C1276 C544 1.452 . S
C1287 C724 1.412 . S
C1292 C580 1.455 . S
C1303 C760 1.442 . S
C1308 C616 1.430 . S
C1319 C652 1.451 . S
C1324 C796 1.412 . S
C1335 C832 1.438 . S
C1340 C688 1.422 . S
C1351 C868 1.442 . S
C1356 C1012 1.419 . S
C1367 C1048 1.416 . S
C1372 C904 1.453 . S
C1383 C1084 1.411 . S
C1388 C940 1.454 . S
C1399 C976 1.423 . S
C1404 C1120 1.438 . S
C1415 C3 1.517 . S
C1420 C986 1.471 . S
C1431 C302 1.427 . S
C1436 C39 1.485 . S
C1447 C75 1.514 . S
C1452 C914 1.466 . S
C1463 C111 1.492 . S
C1468 C374 1.428 . S
C1479 C1058 1.419 . S
C1484 C147 1.484 . S
C1495 C518 1.422 . S
C1500 C183 1.484 . S
C1511 C219 1.526 . S
C1516 C1130 1.497 . S
C1527 C255 1.507 . S
C1532 C446 1.453 . S
C1543 C698 1.497 . S
C1548 C291 1.526 . S
C1559 C327 1.496 . S
C1564 C14 1.434 . S
C1575 C626 1.446 . S
C1580 C363 1.494 . S
C1591 C399 1.526 . S
C1596 C86 1.497 . S
C1607 C770 1.453 . S
C1612 C435 1.497 . S
C1623 C471 1.503 . S
C1628 C230 1.447 . S
C1639 C842 1.497 . S
C1644 C507 1.526 . S
C1655 C543 1.525 . S
C1660 C158 1.491 . S
C1671 C410 1.468 . S
C1676 C579 1.506 . S
C1687 C878 1.489 . S
C1692 C615 1.524 . S
C1703 C338 1.462 . S
C1708 C651 1.511 . S
C1719 C687 1.500 . S
C1724 C950 1.442 . S
C1735 C482 1.421 . S
C1740 C723 1.487 . S
C1751 C1094 1.488 . S
C1756 C759 1.524 . S
C1767 C554 1.491 . S
C1772 C795 1.520 . S
C1783 C831 1.523 . S
C1788 C1022 1.495 . S
C1799 C867 1.490 . S
C1804 C122 1.426 . S
C1815 C903 1.522 . S
C1820 C590 1.494 . S
C1831 C939 1.504 . S
C1836 C50 1.466 . S
C1847 C975 1.509 . S
C1852 C662 1.474 . S
C1863 C1011 1.486 . S
C1868 C194 1.420 . S
C1879 C806 1.497 . S
C1884 C1047 1.524 . S
C1895 C266 1.425 . S
C1900 C1083 1.484 . S
C1911 C1119 1.509 . S
C1916 C734 1.456 . S
C1927 C2 1.135 . S
C1932 C254 1.121 . S
C1943 C38 1.123 . S
C1948 C146 1.110 1_556 S
C1959 C74 1.128 1_554 S
C1964 C182 1.130 . S
C1975 C218 1.139 . S
C1980 C110 1.102 . S
C1991 C542 1.137 . S
C1996 C290 1.102 . S
C2007 C434 1.122 1_554 S
C2012 C326 1.135 . S
C2023 C470 1.141 . S
C2028 C362 1.110 1_556 S
C2039 C506 1.137 . S
C2044 C398 1.102 . S
C2055 C578 1.139 1_554 S
C2060 C830 1.102 . S
C2071 C722 1.102 . S
C2076 C614 1.139 . S
C2087 C758 1.107 . S
C2092 C650 1.142 . S
C2103 C794 1.109 1_556 S
C2108 C686 1.142 . S
C2119 C1118 1.132 . S
C2124 C866 1.104 1_556 S
C2135 C902 1.136 . S
C2140 C1010 1.120 . S
C2151 C938 1.140 . S
C2156 C1046 1.114 . S
C2167 C974 1.142 . S
C2172 C1082 1.104 1_554 S
