# Generated by pormake.
# Topology unj, (4)-cn, num edge types: 1
# Building blocks:
#     Node 0, Type 0, BuildingBlock: TATPOV_clean_sbu_0, # of connection points: 4
#     Node 1, Type 0, BuildingBlock: TATPOV_clean_sbu_0, # of connection points: 4
#     Node 2, Type 0, BuildingBlock: TATPOV_clean_sbu_0, # of connection points: 4
#     Node 3, Type 0, BuildingBlock: TATPOV_clean_sbu_0, # of connection points: 4
#     Node 4, Type 0, BuildingBlock: TATPOV_clean_sbu_0, # of connection points: 4
#     Node 5, Type 0, BuildingBlock: TATPOV_clean_sbu_0, # of connection points: 4
#     Edge 6, Type (0, 0), BuildingBlock: FUNLAD_clean_linker_0, # of connection points: 2
#     Edge 7, Type (0, 0), BuildingBlock: FUNLAD_clean_linker_0, # of connection points: 2
#     Edge 8, Type (0, 0), BuildingBlock: FUNLAD_clean_linker_0, # of connection points: 2
#     Edge 9, Type (0, 0), BuildingBlock: FUNLAD_clean_linker_0, # of connection points: 2
#     Edge 10, Type (0, 0), BuildingBlock: FUNLAD_clean_linker_0, # of connection points: 2
#     Edge 11, Type (0, 0), BuildingBlock: FUNLAD_clean_linker_0, # of connection points: 2
#     Edge 12, Type (0, 0), BuildingBlock: FUNLAD_clean_linker_0, # of connection points: 2
#     Edge 13, Type (0, 0), BuildingBlock: FUNLAD_clean_linker_0, # of connection points: 2
#     Edge 14, Type (0, 0), BuildingBlock: FUNLAD_clean_linker_0, # of connection points: 2
#     Edge 15, Type (0, 0), BuildingBlock: FUNLAD_clean_linker_0, # of connection points: 2
#     Edge 16, Type (0, 0), BuildingBlock: FUNLAD_clean_linker_0, # of connection points: 2
#     Edge 17, Type (0, 0), BuildingBlock: FUNLAD_clean_linker_0, # of connection points: 2
# Relax obj value: 0.021
# Max RMSD: 0.060
# Mean RMSD: 0.060
data_MOF--net-unj--node1-TATPOV_clean_sbu_0--edge1-FUNLAD_clean_linker_0
_symmetry_space_group_name_H-M    P1
_symmetry_Int_Tables_number       1
_symmetry_cell_setting            triclinic
loop_
_symmetry_equiv_pos_as_xyz
'x, y, z'
_cell_length_a     39.327655
_cell_length_b     39.578894
_cell_length_c     40.597749
_cell_angle_alpha  89.898121
_cell_angle_beta   90.038373
_cell_angle_gamma 119.91722
loop_
_atom_site_label
_atom_site_type_symbol
_atom_site_fract_x
_atom_site_fract_y
_atom_site_fract_z
_atom_type_partial_charge
Zn0 Zn 0.41438 0.15861 0.63151 0.0
Zn1 Zn 0.47103 0.20777 0.59004 0.0
O2 O 0.43924 0.23501 0.59835 0.0
O3 O 0.3891 0.19249 0.62793 0.0
O4 O 0.51046 0.24272 0.55651 0.0
O5 O 0.39964 0.11412 0.59989 0.0
O6 O 0.44234 0.15615 0.5646 0.0
C7 C 0.40696 0.22492 0.61302 0.0
C8 C 0.49284 0.19285 0.65871 0.0
O9 O 0.50319 0.20842 0.63027 0.0
O10 O 0.4568 0.17116 0.66543 0.0
C11 C 0.5397 0.2759 0.56306 0.0
O12 O 0.54599 0.28824 0.59369 0.0
C13 C 0.41577 0.12162 0.57181 0.0
Zn14 Zn 0.24277 0.41244 0.79135 0.0
Zn15 Zn 0.25426 0.47083 0.75124 0.0
O16 O 0.19432 0.43712 0.75525 0.0
O17 O 0.18425 0.38536 0.78335 0.0
O18 O 0.26013 0.51089 0.7174 0.0
O19 O 0.27782 0.40055 0.76378 0.0
O20 O 0.28248 0.44495 0.72839 0.0
C21 C 0.17088 0.40396 0.76775 0.0
C22 C 0.28161 0.48844 0.82275 0.0
O23 O 0.28032 0.50114 0.7941 0.0
O24 O 0.26679 0.45215 0.82762 0.0
C25 C 0.23781 0.52556 0.71766 0.0
O26 O 0.21272 0.51678 0.74197 0.0
C27 C 0.29035 0.41856 0.73679 0.0
Zn28 Zn 0.84001 0.25895 0.96386 0.0
Zn29 Zn 0.78606 0.25741 0.92289 0.0
O30 O 0.76575 0.19934 0.93181 0.0
O31 O 0.81306 0.20012 0.96136 0.0
O32 O 0.74716 0.2564 0.8902 0.0
O33 O 0.88312 0.29282 0.9322 0.0
O34 O 0.83777 0.28606 0.89671 0.0
C35 C 0.78027 0.18123 0.94691 0.0
C36 C 0.79716 0.29354 0.99158 0.0
O37 O 0.78117 0.28647 0.96318 0.0
O38 O 0.82261 0.28383 0.99816 0.0
C39 C 0.71043 0.23685 0.89533 0.0
O40 O 0.69751 0.21769 0.9232 0.0
C41 C 0.87369 0.29904 0.90397 0.0
Zn42 Zn 0.57551 0.81732 0.12667 0.0
Zn43 Zn 0.51534 0.77862 0.08545 0.0
O44 O 0.54095 0.74417 0.08839 0.0
O45 O 0.59328 0.77828 0.11915 0.0
O46 O 0.47349 0.75032 0.05121 0.0
O47 O 0.59777 0.86503 0.09825 0.0
O48 O 0.54894 0.8328 0.06373 0.0
C49 C 0.57203 0.74837 0.10198 0.0
C50 C 0.49922 0.79002 0.15699 0.0
O51 O 0.48618 0.77724 0.12819 0.0
O52 O 0.53585 0.80796 0.16236 0.0
C53 C 0.44939 0.71404 0.05391 0.0
O54 O 0.45038 0.69564 0.08055 0.0
C55 C 0.58052 0.86372 0.07157 0.0
Zn56 Zn 0.71628 0.56722 0.29382 0.0
Zn57 Zn 0.72066 0.51693 0.25222 0.0
O58 O 0.77834 0.55833 0.25931 0.0
O59 O 0.7752 0.60236 0.29014 0.0
O60 O 0.72431 0.48108 0.21926 0.0
O61 O 0.67933 0.57291 0.2629 0.0
O62 O 0.68701 0.53523 0.22741 0.0
C63 C 0.79535 0.59079 0.27447 0.0
C64 C 0.68766 0.4906 0.32176 0.0
O65 O 0.69541 0.48272 0.29325 0.0
O66 O 0.69438 0.5247 0.3282 0.0
C67 C 0.74725 0.46762 0.22395 0.0
O68 O 0.76759 0.47619 0.2514 0.0
C69 C 0.67224 0.5564 0.23507 0.0
Zn70 Zn 0.1531 0.74337 0.45814 0.0
Zn71 Zn 0.19633 0.72769 0.41642 0.0
O72 O 0.23063 0.78634 0.42628 0.0
O73 O 0.1943 0.80017 0.45859 0.0
O74 O 0.22838 0.71946 0.38183 0.0
O75 O 0.10937 0.72487 0.42548 0.0
O76 O 0.14417 0.71083 0.39155 0.0
C77 C 0.22586 0.81093 0.44289 0.0
C78 C 0.17549 0.6885 0.48395 0.0
O79 O 0.19285 0.69366 0.4563 0.0
O80 O 0.15639 0.70578 0.49011 0.0
C81 C 0.26548 0.7358 0.38431 0.0
O82 O 0.28256 0.7557 0.41108 0.0
C83 C 0.113 0.71193 0.39803 0.0
C84 C 0.38797 0.05155 0.5576 0.0
C85 C 0.40271 0.09022 0.54722 0.0
C86 C 0.37257 0.02122 0.53478 0.0
C87 C 0.37096 0.02892 0.50116 0.0
C88 C 0.38622 0.06762 0.49069 0.0
C89 C 0.40263 0.09816 0.51349 0.0
C90 C 0.34896 -0.00346 0.47778 0.0
C91 C 0.34876 0.96256 0.48015 0.0
C92 C 0.31848 0.92631 0.46424 0.0
C93 C 0.32719 0.89695 0.45629 0.0
C94 C 0.2973 0.85991 0.44691 0.0
C95 C 0.2581 0.85143 0.44639 0.0
H96 H 0.27164 0.94009 0.46827 0.0
C97 C 0.24963 0.88124 0.453 0.0
C98 C 0.27954 0.91842 0.46158 0.0
H99 H 0.21962 0.87542 0.45275 0.0
H100 H 0.38773 0.04468 0.58347 0.0
H101 H 0.36012 0.99159 0.54374 0.0
H102 H 0.38479 0.07415 0.46497 0.0
H103 H 0.41362 0.12776 0.50492 0.0
H104 H 0.33059 -4e-05 0.4596 0.0
H105 H 0.36974 0.96044 0.49623 0.0
H106 H 0.35691 0.90225 0.45851 0.0
H107 H 0.30455 0.83732 0.44213 0.0
C108 C 0.41686 0.29247 0.6113 0.0
C109 C 0.3915 0.25209 0.61465 0.0
C110 C 0.40322 0.31847 0.61714 0.0
C111 C 0.36383 0.30445 0.62589 0.0
C112 C 0.33795 0.2641 0.62696 0.0
C113 C 0.35174 0.23813 0.62182 0.0
C114 C 0.34962 0.33096 0.63669 0.0
C115 C 0.37105 0.36105 0.65699 0.0
C116 C 0.35318 0.38009 0.67593 0.0
C117 C 0.36107 0.38608 0.70975 0.0
C118 C 0.34112 0.39942 0.72935 0.0
C119 C 0.31393 0.40831 0.71527 0.0
H120 H 0.32068 0.38614 0.63539 0.0
C121 C 0.30773 0.40467 0.68109 0.0
C122 C 0.32686 0.39011 0.66155 0.0
H123 H 0.28682 0.41137 0.66976 0.0
H124 H 0.44763 0.30406 0.60565 0.0
H125 H 0.42364 0.3495 0.61556 0.0
H126 H 0.30742 0.25265 0.63349 0.0
H127 H 0.33144 0.20714 0.6242 0.0
H128 H 0.3189 0.32184 0.63254 0.0
H129 H 0.40025 0.36729 0.66422 0.0
H130 H 0.38134 0.37864 0.7213 0.0
H131 H 0.34655 0.40227 0.75565 0.0
C132 C 0.89841 0.31097 0.84587 0.0
C133 C 0.90473 0.32068 0.87945 0.0
C134 C 0.92954 0.32858 0.82344 0.0
C135 C 0.9671 0.35678 0.83428 0.0
C136 C 0.97264 0.36812 0.86743 0.0
C137 C 0.94193 0.34983 0.88992 0.0
C138 C 0.00182 0.37309 0.81243 0.0
C139 C 0.00837 0.35049 0.79164 0.0
C140 C 0.04827 0.3632 0.77895 0.0
C141 C 0.06215 0.33674 0.7798 0.0
C142 C 0.10184 0.34958 0.77445 0.0
C143 C 0.12815 0.38899 0.76739 0.0
H144 H 0.06375 0.42284 0.76801 0.0
C145 C 0.11353 0.41474 0.76356 0.0
C146 C 0.07393 0.40201 0.76952 0.0
H147 H 0.13305 0.44523 0.75792 0.0
H148 H 0.86991 0.2886 0.83722 0.0
H149 H 0.92442 0.31975 0.79785 0.0
H150 H 0.00131 0.3899 0.87629 0.0
H151 H 0.94743 0.35809 0.91564 0.0
H152 H 0.02555 0.4023 0.81796 0.0
H153 H 0.98626 0.31993 0.78897 0.0
H154 H 0.04283 0.30662 0.78677 0.0
H155 H 0.11219 0.32898 0.77716 0.0
C156 C 0.6369 0.92796 0.05494 0.0
C157 C 0.59827 0.89791 0.04929 0.0
C158 C 0.65448 0.96025 0.03416 0.0
C159 C 0.63388 0.96341 0.00713 0.0
C160 C 0.59501 0.93382 1.0017 0.0
C161 C 0.57745 0.90105 0.02237 0.0
C162 C 0.65196 -0.0012 0.98604 0.0
C163 C 0.69072 0.01795 0.97943 0.0
C164 C 0.71296 0.05823 0.96599 0.0
C165 C 0.75382 0.07865 0.9703 0.0
C166 C 0.77588 0.1182 0.9627 0.0
C167 C 0.75765 0.13829 0.95019 0.0
H168 H 0.66373 0.06294 0.94687 0.0
C169 C 0.71716 0.11739 0.94362 0.0
C170 C 0.69493 0.07771 0.9515 0.0
H171 H 0.70232 0.13201 0.93371 0.0
H172 H 0.65379 0.92662 0.07548 0.0
H173 H 0.68397 0.98316 0.03986 0.0
H174 H 0.57834 0.93594 0.98134 0.0
H175 H 0.54755 0.87846 0.0175 0.0
H176 H 0.63322 0.00991 0.97767 0.0
H177 H 0.70797 0.0048 0.98726 0.0
H178 H 0.76864 0.06441 0.98107 0.0
H179 H 0.80711 0.13331 0.96766 0.0
C180 C 0.65376 0.56263 0.17719 0.0
C181 C 0.64782 0.56309 0.21128 0.0
C182 C 0.63396 0.57397 0.15508 0.0
C183 C 0.60741 0.58522 0.16679 0.0
C184 C 0.5995 0.58293 0.20065 0.0
C185 C 0.61988 0.57249 0.22273 0.0
C186 C 0.5902 0.60292 0.14513 0.0
C187 C 0.61156 0.62904 0.12169 0.0
C188 C 0.60105 0.65804 0.1098 0.0
C189 C 0.6308 0.69715 0.1077 0.0
C190 C 0.6214 0.72652 0.10345 0.0
C191 C 0.58211 0.71719 0.10029 0.0
H192 H 0.53844 0.61835 0.10522 0.0
C193 C 0.55254 0.67783 0.0993 0.0
C194 C 0.56189 0.64841 0.10432 0.0
H195 H 0.52202 0.6699 0.09677 0.0
H196 H 0.67501 0.55528 0.16773 0.0
H197 H 0.64008 0.57483 0.12899 0.0
H198 H 0.57905 0.59129 0.21024 0.0
H199 H 0.61436 0.5726 0.24886 0.0
H200 H 0.56262 0.60048 0.15296 0.0
H201 H 0.641 0.63458 0.11636 0.0
H202 H 0.66119 0.70525 0.11165 0.0
H203 H 0.64478 0.75665 0.10393 0.0
C204 C 0.0519 0.70921 0.37776 0.0
C205 C 0.08078 0.69855 0.37374 0.0
C206 C 0.02033 0.69572 0.3561 0.0
C207 C 0.01673 0.67111 0.32977 0.0
C208 C 0.0456 0.66045 0.32559 0.0
C209 C 0.07766 0.67444 0.34716 0.0
C210 C 0.98108 0.65342 0.30875 0.0
C211 C 0.96105 0.6721 0.30212 0.0
C212 C 0.92 0.6526 0.28978 0.0
C213 C 0.89761 0.67051 0.2963 0.0
C214 C 0.85741 0.65111 0.28993 0.0
C215 C 0.83868 0.61344 0.27646 0.0
H216 H 0.91816 0.60158 0.26785 0.0
C217 C 0.8615 0.59657 0.26762 0.0
C218 C 0.9018 0.61592 0.27426 0.0
H219 H 0.84798 0.56771 0.25687 0.0
H220 H 0.05336 0.72772 0.39798 0.0
H221 H -0.00198 0.70347 0.36091 0.0
H222 H 0.04316 0.64103 0.3058 0.0
H223 H 0.09938 0.66558 0.34354 0.0
H224 H 0.96999 0.62356 0.30091 0.0
H225 H 0.97371 0.70239 0.30953 0.0
H226 H 0.91086 0.69891 0.30792 0.0
H227 H 0.8408 0.66517 0.29664 0.0
C228 C 0.55474 0.28961 0.50301 0.0
C229 C 0.56422 0.30152 0.53595 0.0
C230 C 0.57559 0.31488 0.47719 0.0
C231 C 0.60678 0.35266 0.48373 0.0
C232 C 0.6169 0.36409 0.5167 0.0
C233 C 0.59593 0.33884 0.54253 0.0
C234 C 0.62726 0.38205 0.45729 0.0
C235 C 0.62491 0.37365 0.42488 0.0
C236 C 0.64185 0.40421 0.3989 0.0
C237 C 0.6509 0.395 0.3679 0.0
C238 C 0.66572 0.42287 0.34267 0.0
C239 C 0.67144 0.46046 0.34791 0.0
H240 H 0.63898 0.44957 0.42687 0.0
C241 C 0.66183 0.46942 0.37879 0.0
C242 C 0.64705 0.44166 0.40389 0.0
H243 H 0.66545 0.49795 0.38363 0.0
H244 H 0.53037 0.26107 0.49705 0.0
H245 H 0.566 0.30493 0.45234 0.0
H246 H 0.64063 0.39304 0.52255 0.0
H247 H 0.60404 0.34892 0.56763 0.0
H248 H 0.6449 0.41216 0.46513 0.0
H249 H 0.61055 0.34356 0.41678 0.0
H250 H 0.64664 0.36619 0.36322 0.0
H251 H 0.67272 0.41498 0.31915 0.0
C252 C 0.20855 0.65415 0.50917 0.0
C253 C 0.17878 0.66397 0.50996 0.0
C254 C 0.21341 0.63404 0.53558 0.0
C255 C 0.18834 0.62318 0.56315 0.0
C256 C 0.15771 0.63166 0.56315 0.0
C257 C 0.15314 0.65203 0.53707 0.0
C258 C 0.1926 0.6029 0.59239 0.0
C259 C 0.22655 0.60506 0.6017 0.0
C260 C 0.23015 0.58629 0.63231 0.0
C261 C 0.25863 0.57484 0.63394 0.0
C262 C 0.26188 0.55598 0.66195 0.0
C263 C 0.23695 0.54857 0.68914 0.0
H264 H 0.18508 0.59011 0.66039 0.0
C265 C 0.20957 0.56152 0.68805 0.0
C266 C 0.20626 0.58025 0.66004 0.0
H267 H 0.1902 0.5567 0.70867 0.0
H268 H 0.22869 0.66283 0.48857 0.0
H269 H 0.23665 0.62702 0.53417 0.0
H270 H 0.13769 0.6233 0.58384 0.0
H271 H 0.12967 0.6588 0.53837 0.0
H272 H 0.16665 0.58669 0.60757 0.0
H273 H 0.25256 0.62068 0.58651 0.0
H274 H 0.27784 0.57969 0.61317 0.0
H275 H 0.28347 0.54659 0.66204 0.0
C276 C 0.69648 0.25308 0.839 0.0
C277 C 0.68262 0.23412 0.86945 0.0
C278 C 0.67028 0.24911 0.814 0.0
C279 C 0.62955 0.22587 0.81887 0.0
C280 C 0.61577 0.20786 0.84963 0.0
C281 C 0.64196 0.21177 0.87459 0.0
C282 C 0.60039 0.21983 0.79286 0.0
C283 C 0.60848 0.22401 0.76032 0.0
C284 C 0.57834 0.21567 0.73459 0.0
C285 C 0.59024 0.2336 0.70358 0.0
C286 C 0.56266 0.22618 0.67875 0.0
C287 C 0.52256 0.20036 0.68441 0.0
H288 H 0.52791 0.17353 0.76295 0.0
C289 C 0.51079 0.18185 0.71524 0.0
C290 C 0.53828 0.18923 0.73996 0.0
H291 H 0.48019 0.16141 0.72036 0.0
H292 H 0.72766 0.27086 0.83434 0.0
H293 H 0.68221 0.2646 0.79114 0.0
H294 H 0.58456 0.19011 0.85421 0.0
H295 H 0.63027 0.19693 0.8978 0.0
H296 H 0.57074 0.21041 0.80113 0.0
H297 H 0.63812 0.23381 0.75184 0.0
H298 H 0.62096 0.25371 0.69862 0.0
H299 H 0.57275 0.24083 0.65526 0.0
C300 C 0.31478 0.55569 0.84806 0.0
C301 C 0.30031 0.51536 0.85089 0.0
C302 C 0.3322 0.58034 0.87521 0.0
C303 C 0.33546 0.56498 0.90567 0.0
C304 C 0.32114 0.52478 0.90821 0.0
C305 C 0.30371 0.50031 0.88133 0.0
C306 C 0.35457 0.58925 0.93528 0.0
C307 C 0.36178 0.62596 0.93992 0.0
C308 C 0.38141 0.64846 0.9702 0.0
C309 C 0.40488 0.68916 0.96829 0.0
C310 C 0.42604 0.71074 0.99576 0.0
C311 C 0.42384 0.69203 0.02584 0.0
H312 H 0.35839 0.59894 1.00371 0.0
C313 C 0.39866 0.65156 0.02822 0.0
C314 C 0.37755 0.63004 1.0008 0.0
H315 H 0.39579 0.6363 0.05114 0.0
H316 H 0.31273 0.56821 0.82493 0.0
H317 H 0.34358 0.61125 0.87191 0.0
H318 H 0.32335 0.51207 0.93121 0.0
H319 H 0.29304 0.46944 0.88453 0.0
H320 H 0.36305 0.57568 0.95441 0.0
H321 H 0.35466 0.64063 0.92084 0.0
H322 H 0.40791 0.70417 0.94519 0.0
H323 H 0.44493 0.74195 0.99313 0.0
C324 C 0.80023 0.31547 0.04969 0.0
C325 C 0.78594 0.31249 0.01746 0.0
C326 C 0.79004 0.33312 0.07447 0.0
C327 C 0.76568 0.34887 0.06756 0.0
C328 C 0.75072 0.34523 0.0355 0.0
C329 C 0.76078 0.32729 0.01064 0.0
C330 C 0.75466 0.36837 0.09335 0.0
C331 C 0.77674 0.38501 0.12038 0.0
C332 C 0.76678 0.40461 0.14683 0.0
C333 C 0.78651 0.41169 0.1771 0.0
C334 C 0.77959 0.4314 0.20236 0.0
C335 C 0.75286 0.44475 0.19788 0.0
H336 H 0.72443 0.41375 0.11937 0.0
C337 C 0.73276 0.43741 0.16774 0.0
C338 C 0.73967 0.41765 0.14243 0.0
H339 H 0.71213 0.44753 0.16342 0.0
H340 H 0.81912 0.30378 0.05601 0.0
H341 H 0.8009 0.33365 0.09904 0.0
H342 H 0.7315 0.35665 0.02957 0.0
H343 H 0.74904 0.32522 0.98612 0.0
H344 H 0.72787 0.36931 0.08941 0.0
H345 H 0.80385 0.38448 0.12366 0.0
H346 H 0.80763 0.40212 0.1812 0.0
H347 H 0.79564 0.43662 0.22524 0.0
C348 C 0.33057 0.75826 0.3574 0.0
C349 C 0.28945 0.7362 0.35598 0.0
C350 C 0.35332 0.76167 0.32981 0.0
C351 C 0.33547 0.74265 0.30012 0.0
C352 C 0.29436 0.72014 0.29891 0.0
C353 C 0.27158 0.71682 0.32651 0.0
C354 C 0.3585 0.7475 0.26954 0.0
C355 C 0.39698 0.75867 0.26972 0.0
C356 C 0.42163 0.76671 0.23969 0.0
C357 C 0.46248 0.78875 0.2434 0.0
C358 C 0.48735 0.79683 0.21646 0.0
C359 C 0.47207 0.78281 0.18492 0.0
H360 H 0.37486 0.73497 0.20413 0.0
C361 C 0.43113 0.7608 0.18098 0.0
C362 C 0.4061 0.75276 0.20808 0.0
H363 H 0.41841 0.74929 0.15708 0.0
H364 H 0.3453 0.77392 0.37957 0.0
H365 H 0.38472 0.78041 0.33177 0.0
H366 H 0.27974 0.70538 0.27638 0.0
H367 H 0.23994 0.69969 0.32452 0.0
H368 H 0.34302 0.74211 0.2463 0.0
H369 H 0.41197 0.76326 0.29313 0.0
H370 H 0.47537 0.79986 0.26736 0.0
H371 H 0.51871 0.81381 0.22054 0.0
loop_
_geom_bond_atom_site_label_1
_geom_bond_atom_site_label_2
_geom_bond_distance
_geom_bond_site_symmetry_2
_ccdc_geom_bond_type
Zn0 O3 2.031 . S
Zn0 O5 2.049 . S
Zn0 O10 2.067 . S
Zn1 O2 1.962 . S
Zn1 O4 1.986 . S
Zn1 O6 1.996 . S
Zn1 O9 1.943 . S
O2 Zn1 1.962 . S
O2 C7 1.254 . S
O3 Zn0 2.031 . S
O3 C7 1.269 . S
O4 Zn1 1.986 . S
O4 C11 1.262 . S
O5 Zn0 2.049 . S
O5 C13 1.260 . S
O6 Zn1 1.996 . S
O6 C13 1.257 . S
C7 O2 1.254 . S
C7 O3 1.269 . S
C8 O9 1.249 . S
C8 O10 1.270 . S
O9 Zn1 1.943 . S
O9 C8 1.249 . S
O10 Zn0 2.067 . S
O10 C8 1.270 . S
C11 O4 1.262 . S
C11 O12 1.232 . S
O12 C11 1.232 . S
C13 O5 1.260 . S
C13 O6 1.257 . S
Zn14 O17 2.031 . S
Zn14 O19 2.049 . S
Zn14 O24 2.067 . S
Zn15 O16 1.962 . S
Zn15 O18 1.986 . S
Zn15 O20 1.996 . S
Zn15 O23 1.943 . S
O16 Zn15 1.962 . S
O16 C21 1.254 . S
O17 Zn14 2.031 . S
O17 C21 1.269 . S
O18 Zn15 1.986 . S
O18 C25 1.262 . S
O19 Zn14 2.049 . S
O19 C27 1.260 . S
O20 Zn15 1.996 . S
O20 C27 1.257 . S
C21 O16 1.254 . S
C21 O17 1.269 . S
C22 O23 1.249 . S
C22 O24 1.270 . S
O23 Zn15 1.943 . S
O23 C22 1.249 . S
O24 Zn14 2.067 . S
O24 C22 1.270 . S
C25 O18 1.262 . S
C25 O26 1.232 . S
O26 C25 1.232 . S
C27 O19 1.260 . S
C27 O20 1.257 . S
Zn28 O31 2.031 . S
Zn28 O33 2.049 . S
Zn28 O38 2.067 . S
Zn29 O30 1.962 . S
Zn29 O32 1.986 . S
Zn29 O34 1.996 . S
Zn29 O37 1.943 . S
O30 Zn29 1.962 . S
O30 C35 1.254 . S
O31 Zn28 2.031 . S
O31 C35 1.269 . S
O32 Zn29 1.986 . S
O32 C39 1.262 . S
O33 Zn28 2.049 . S
O33 C41 1.260 . S
O34 Zn29 1.996 . S
O34 C41 1.257 . S
C35 O30 1.254 . S
C35 O31 1.269 . S
C36 O37 1.249 . S
C36 O38 1.270 . S
O37 Zn29 1.943 . S
O37 C36 1.249 . S
O38 Zn28 2.067 . S
O38 C36 1.270 . S
C39 O32 1.262 . S
C39 O40 1.232 . S
O40 C39 1.232 . S
C41 O33 1.260 . S
C41 O34 1.257 . S
Zn42 O45 2.031 . S
Zn42 O47 2.049 . S
Zn42 O52 2.067 . S
Zn43 O44 1.962 . S
Zn43 O46 1.986 . S
Zn43 O48 1.996 . S
Zn43 O51 1.943 . S
O44 Zn43 1.962 . S
O44 C49 1.254 . S
O45 Zn42 2.031 . S
O45 C49 1.269 . S
O46 Zn43 1.986 . S
O46 C53 1.262 . S
O47 Zn42 2.049 . S
O47 C55 1.260 . S
O48 Zn43 1.996 . S
O48 C55 1.257 . S
C49 O44 1.254 . S
C49 O45 1.269 . S
C50 O51 1.249 . S
C50 O52 1.270 . S
O51 Zn43 1.943 . S
O51 C50 1.249 . S
O52 Zn42 2.067 . S
O52 C50 1.270 . S
C53 O46 1.262 . S
C53 O54 1.232 . S
O54 C53 1.232 . S
C55 O47 1.260 . S
C55 O48 1.257 . S
Zn56 O59 2.031 . S
Zn56 O61 2.049 . S
Zn56 O66 2.067 . S
Zn57 O58 1.962 . S
Zn57 O60 1.986 . S
Zn57 O62 1.996 . S
Zn57 O65 1.943 . S
O58 Zn57 1.962 . S
O58 C63 1.254 . S
O59 Zn56 2.031 . S
O59 C63 1.269 . S
O60 Zn57 1.986 . S
O60 C67 1.262 . S
O61 Zn56 2.049 . S
O61 C69 1.260 . S
O62 Zn57 1.996 . S
O62 C69 1.257 . S
C63 O58 1.254 . S
C63 O59 1.269 . S
C64 O65 1.249 . S
C64 O66 1.270 . S
O65 Zn57 1.943 . S
O65 C64 1.249 . S
O66 Zn56 2.067 . S
O66 C64 1.270 . S
C67 O60 1.262 . S
C67 O68 1.232 . S
O68 C67 1.232 . S
C69 O61 1.260 . S
C69 O62 1.257 . S
Zn70 O73 2.031 . S
Zn70 O75 2.049 . S
Zn70 O80 2.067 . S
Zn71 O72 1.962 . S
Zn71 O74 1.986 . S
Zn71 O76 1.996 . S
Zn71 O79 1.943 . S
O72 Zn71 1.962 . S
O72 C77 1.254 . S
O73 Zn70 2.031 . S
O73 C77 1.269 . S
O74 Zn71 1.986 . S
O74 C81 1.262 . S
O75 Zn70 2.049 . S
O75 C83 1.260 . S
O76 Zn71 1.996 . S
O76 C83 1.257 . S
C77 O72 1.254 . S
C77 O73 1.269 . S
C78 O79 1.249 . S
C78 O80 1.270 . S
O79 Zn71 1.943 . S
O79 C78 1.249 . S
O80 Zn70 2.067 . S
O80 C78 1.270 . S
C81 O74 1.262 . S
C81 O82 1.232 . S
O82 C81 1.232 . S
C83 O75 1.260 . S
C83 O76 1.257 . S
C84 C85 1.386 . S
C84 C86 1.383 . S
C84 H100 0.951 . S
C85 C84 1.386 . S
C85 C89 1.383 . S
C86 C84 1.383 . S
C86 C87 1.402 . S
C86 H101 0.951 . S
C87 C86 1.402 . S
C87 C88 1.375 . S
C87 C90 1.481 . S
C88 C87 1.375 . S
C88 C89 1.367 . S
C88 H102 0.951 . S
C89 C85 1.383 . S
C89 C88 1.367 . S
C89 H103 0.950 . S
C90 C87 1.481 . S
C90 C91 1.297 1_545 S
C90 H104 0.950 . S
C91 C90 1.297 1_565 S
C91 C92 1.479 . S
C91 H105 0.950 . S
C92 C91 1.479 . S
C92 C93 1.375 . S
C92 C98 1.404 . S
C93 C92 1.375 . S
C93 C94 1.369 . S
C93 H106 0.950 . S
C94 C93 1.369 . S
C94 C95 1.392 . S
C94 H107 0.951 . S
C95 C94 1.392 . S
C95 C97 1.384 . S
H96 C98 0.949 . S
C97 C95 1.384 . S
C97 C98 1.385 . S
C97 H99 0.950 . S
C98 C92 1.404 . S
C98 H96 0.949 . S
C98 C97 1.385 . S
H99 C97 0.950 . S
H100 C84 0.951 . S
H101 C86 0.951 . S
H102 C88 0.951 . S
H103 C89 0.950 . S
H104 C90 0.950 . S
H105 C91 0.950 . S
H106 C93 0.950 . S
H107 C94 0.951 . S
C108 C109 1.386 . S
C108 C110 1.383 . S
C108 H124 0.951 . S
C109 C108 1.386 . S
C109 C113 1.383 . S
C110 C108 1.383 . S
C110 C111 1.402 . S
C110 H125 0.951 . S
C111 C110 1.402 . S
C111 C112 1.375 . S
C111 C114 1.481 . S
C112 C111 1.375 . S
C112 C113 1.367 . S
C112 H126 0.951 . S
C113 C109 1.383 . S
C113 C112 1.367 . S
C113 H127 0.950 . S
C114 C111 1.481 . S
C114 C115 1.297 . S
C114 H128 0.950 . S
C115 C114 1.297 . S
C115 C116 1.479 . S
C115 H129 0.950 . S
C116 C115 1.479 . S
C116 C117 1.375 . S
C116 C122 1.404 . S
C117 C116 1.375 . S
C117 C118 1.369 . S
C117 H130 0.950 . S
C118 C117 1.369 . S
C118 C119 1.392 . S
C118 H131 0.951 . S
C119 C118 1.392 . S
C119 C121 1.384 . S
H120 C122 0.949 . S
C121 C119 1.384 . S
C121 C122 1.385 . S
C121 H123 0.950 . S
C122 C116 1.404 . S
C122 H120 0.949 . S
C122 C121 1.385 . S
H123 C121 0.950 . S
H124 C108 0.951 . S
H125 C110 0.951 . S
H126 C112 0.951 . S
H127 C113 0.950 . S
H128 C114 0.950 . S
H129 C115 0.950 . S
H130 C117 0.950 . S
H131 C118 0.951 . S
C132 C133 1.386 . S
C132 C134 1.383 . S
C132 H148 0.951 . S
C133 C132 1.386 . S
C133 C137 1.383 . S
C134 C132 1.383 . S
C134 C135 1.402 . S
C134 H149 0.951 . S
C135 C134 1.402 . S
C135 C136 1.375 . S
C135 C138 1.481 . S
C136 C135 1.375 . S
C136 C137 1.367 . S
C136 H150 0.951 . S
C137 C133 1.383 . S
C137 C136 1.367 . S
C137 H151 0.950 . S
C138 C135 1.481 . S
C138 C139 1.297 1_655 S
C138 H152 0.950 1_655 S
C139 C138 1.297 1_455 S
C139 C140 1.479 . S
C139 H153 0.950 1_455 S
C140 C139 1.479 . S
C140 C141 1.375 . S
C140 C146 1.404 . S
C141 C140 1.375 . S
C141 C142 1.369 . S
C141 H154 0.950 . S
C142 C141 1.369 . S
C142 C143 1.392 . S
C142 H155 0.951 . S
C143 C142 1.392 . S
C143 C145 1.384 . S
H144 C146 0.949 . S
C145 C143 1.384 . S
C145 C146 1.385 . S
C145 H147 0.950 . S
C146 C140 1.404 . S
C146 H144 0.949 . S
C146 C145 1.385 . S
H147 C145 0.950 . S
H148 C132 0.951 . S
H149 C134 0.951 . S
H150 C136 0.951 . S
H151 C137 0.950 . S
H152 C138 0.950 1_455 S
H153 C139 0.950 1_655 S
H154 C141 0.950 . S
H155 C142 0.951 . S
C156 C157 1.386 . S
C156 C158 1.383 . S
C156 H172 0.951 . S
C157 C156 1.386 . S
C157 C161 1.383 . S
C158 C156 1.383 . S
C158 C159 1.402 . S
C158 H173 0.951 . S
C159 C158 1.402 . S
C159 C160 1.375 . S
C159 C162 1.494 . S
C160 C159 1.375 . S
C160 C161 1.367 . S
C160 H174 0.951 . S
C161 C157 1.383 . S
C161 C160 1.367 . S
C161 H175 0.950 . S
C162 C159 1.494 . S
C162 C163 1.285 1_564 S
C162 H176 0.950 . S
C163 C162 1.285 1_546 S
C163 C164 1.479 . S
C163 H177 0.950 1_545 S
C164 C163 1.479 . S
C164 C165 1.375 . S
C164 C170 1.404 . S
C165 C164 1.375 . S
C165 C166 1.369 . S
C165 H178 0.950 . S
C166 C165 1.369 . S
C166 C167 1.392 . S
C166 H179 0.951 . S
C167 C166 1.392 . S
C167 C169 1.384 . S
H168 C170 0.949 . S
C169 C167 1.384 . S
C169 C170 1.385 . S
C169 H171 0.950 . S
C170 C164 1.404 . S
C170 H168 0.949 . S
C170 C169 1.385 . S
H171 C169 0.950 . S
H172 C156 0.951 . S
H173 C158 0.951 . S
H174 C160 0.951 . S
H175 C161 0.950 . S
H176 C162 0.950 . S
H177 C163 0.950 1_565 S
H178 C165 0.950 . S
H179 C166 0.951 . S
C180 C181 1.386 . S
C180 C182 1.383 . S
C180 H196 0.951 . S
C181 C180 1.386 . S
C181 C185 1.383 . S
C182 C180 1.383 . S
C182 C183 1.402 . S
C182 H197 0.951 . S
C183 C182 1.402 . S
C183 C184 1.375 . S
C183 C186 1.481 . S
C184 C183 1.375 . S
C184 C185 1.367 . S
C184 H198 0.951 . S
C185 C181 1.383 . S
C185 C184 1.367 . S
C185 H199 0.950 . S
C186 C183 1.481 . S
C186 C187 1.297 . S
C186 H200 0.950 . S
C187 C186 1.297 . S
C187 C188 1.479 . S
C187 H201 0.950 . S
C188 C187 1.479 . S
C188 C189 1.375 . S
C188 C194 1.404 . S
C189 C188 1.375 . S
C189 C190 1.369 . S
C189 H202 0.950 . S
C190 C189 1.369 . S
C190 C191 1.392 . S
C190 H203 0.951 . S
C191 C190 1.392 . S
C191 C193 1.384 . S
H192 C194 0.949 . S
C193 C191 1.384 . S
C193 C194 1.385 . S
C193 H195 0.950 . S
C194 C188 1.404 . S
C194 H192 0.949 . S
C194 C193 1.385 . S
H195 C193 0.950 . S
H196 C180 0.951 . S
H197 C182 0.951 . S
H198 C184 0.951 . S
H199 C185 0.950 . S
H200 C186 0.950 . S
H201 C187 0.950 . S
H202 C189 0.950 . S
H203 C190 0.951 . S
C204 C205 1.386 . S
C204 C206 1.383 . S
C204 H220 0.951 . S
C205 C204 1.386 . S
C205 C209 1.383 . S
C206 C204 1.383 . S
C206 C207 1.402 . S
C206 H221 0.951 . S
C207 C206 1.402 . S
C207 C208 1.375 . S
C207 C210 1.481 . S
C208 C207 1.375 . S
C208 C209 1.367 . S
C208 H222 0.951 . S
C209 C205 1.383 . S
C209 C208 1.367 . S
C209 H223 0.950 . S
C210 C207 1.481 . S
C210 C211 1.297 1_455 S
C210 H224 0.950 . S
C211 C210 1.297 1_655 S
C211 C212 1.479 . S
C211 H225 0.950 . S
C212 C211 1.479 . S
C212 C213 1.375 . S
C212 C218 1.404 . S
C213 C212 1.375 . S
C213 C214 1.369 . S
C213 H226 0.950 . S
C214 C213 1.369 . S
C214 C215 1.392 . S
C214 H227 0.951 . S
C215 C214 1.392 . S
C215 C217 1.384 . S
H216 C218 0.949 . S
C217 C215 1.384 . S
C217 C218 1.385 . S
C217 H219 0.950 . S
C218 C212 1.404 . S
C218 H216 0.949 . S
C218 C217 1.385 . S
H219 C217 0.950 . S
H220 C204 0.951 . S
H221 C206 0.951 . S
H222 C208 0.951 . S
H223 C209 0.950 . S
H224 C210 0.950 . S
H225 C211 0.950 . S
H226 C213 0.950 . S
H227 C214 0.951 . S
C228 C229 1.386 . S
C228 C230 1.383 . S
C228 H244 0.951 . S
C229 C228 1.386 . S
C229 C233 1.383 . S
C230 C228 1.383 . S
C230 C231 1.402 . S
C230 H245 0.951 . S
C231 C230 1.402 . S
C231 C232 1.375 . S
C231 C234 1.481 . S
C232 C231 1.375 . S
C232 C233 1.367 . S
C232 H246 0.951 . S
C233 C229 1.383 . S
C233 C232 1.367 . S
C233 H247 0.950 . S
C234 C231 1.481 . S
C234 C235 1.297 . S
C234 H248 0.950 . S
C235 C234 1.297 . S
C235 C236 1.479 . S
C235 H249 0.950 . S
C236 C235 1.479 . S
C236 C237 1.375 . S
C236 C242 1.404 . S
C237 C236 1.375 . S
C237 C238 1.369 . S
C237 H250 0.950 . S
C238 C237 1.369 . S
C238 C239 1.392 . S
C238 H251 0.951 . S
C239 C238 1.392 . S
C239 C241 1.384 . S
H240 C242 0.949 . S
C241 C239 1.384 . S
C241 C242 1.385 . S
C241 H243 0.950 . S
C242 C236 1.404 . S
C242 H240 0.949 . S
C242 C241 1.385 . S
H243 C241 0.950 . S
H244 C228 0.951 . S
H245 C230 0.951 . S
H246 C232 0.951 . S
H247 C233 0.950 . S
H248 C234 0.950 . S
H249 C235 0.950 . S
H250 C237 0.950 . S
H251 C238 0.951 . S
C252 C253 1.386 . S
C252 C254 1.383 . S
C252 H268 0.951 . S
C253 C252 1.386 . S
C253 C257 1.383 . S
C254 C252 1.383 . S
C254 C255 1.402 . S
C254 H269 0.951 . S
C255 C254 1.402 . S
C255 C256 1.375 . S
C255 C258 1.481 . S
C256 C255 1.375 . S
C256 C257 1.367 . S
C256 H270 0.951 . S
C257 C253 1.383 . S
C257 C256 1.367 . S
C257 H271 0.950 . S
C258 C255 1.481 . S
C258 C259 1.297 . S
C258 H272 0.950 . S
C259 C258 1.297 . S
C259 C260 1.479 . S
C259 H273 0.950 . S
C260 C259 1.479 . S
C260 C261 1.375 . S
C260 C266 1.404 . S
C261 C260 1.375 . S
C261 C262 1.369 . S
C261 H274 0.950 . S
C262 C261 1.369 . S
C262 C263 1.392 . S
C262 H275 0.951 . S
C263 C262 1.392 . S
C263 C265 1.384 . S
H264 C266 0.949 . S
C265 C263 1.384 . S
C265 C266 1.385 . S
C265 H267 0.950 . S
C266 C260 1.404 . S
C266 H264 0.949 . S
C266 C265 1.385 . S
H267 C265 0.950 . S
H268 C252 0.951 . S
H269 C254 0.951 . S
H270 C256 0.951 . S
H271 C257 0.950 . S
H272 C258 0.950 . S
H273 C259 0.950 . S
H274 C261 0.950 . S
H275 C262 0.951 . S
C276 C277 1.386 . S
C276 C278 1.383 . S
C276 H292 0.951 . S
C277 C276 1.386 . S
C277 C281 1.383 . S
C278 C276 1.383 . S
C278 C279 1.402 . S
C278 H293 0.951 . S
C279 C278 1.402 . S
C279 C280 1.375 . S
C279 C282 1.481 . S
C280 C279 1.375 . S
C280 C281 1.367 . S
C280 H294 0.951 . S
C281 C277 1.383 . S
C281 C280 1.367 . S
C281 H295 0.950 . S
C282 C279 1.481 . S
C282 C283 1.297 . S
C282 H296 0.950 . S
C283 C282 1.297 . S
C283 C284 1.479 . S
C283 H297 0.950 . S
C284 C283 1.479 . S
C284 C285 1.375 . S
C284 C290 1.404 . S
C285 C284 1.375 . S
C285 C286 1.369 . S
C285 H298 0.950 . S
C286 C285 1.369 . S
C286 C287 1.392 . S
C286 H299 0.951 . S
C287 C286 1.392 . S
C287 C289 1.384 . S
H288 C290 0.949 . S
C289 C287 1.384 . S
C289 C290 1.385 . S
C289 H291 0.950 . S
C290 C284 1.404 . S
C290 H288 0.949 . S
C290 C289 1.385 . S
H291 C289 0.950 . S
H292 C276 0.951 . S
H293 C278 0.951 . S
H294 C280 0.951 . S
H295 C281 0.950 . S
H296 C282 0.950 . S
H297 C283 0.950 . S
H298 C285 0.950 . S
H299 C286 0.951 . S
C300 C301 1.386 . S
C300 C302 1.383 . S
C300 H316 0.951 . S
C301 C300 1.386 . S
C301 C305 1.383 . S
C302 C300 1.383 . S
C302 C303 1.402 . S
C302 H317 0.951 . S
C303 C302 1.402 . S
C303 C304 1.375 . S
C303 C306 1.481 . S
C304 C303 1.375 . S
C304 C305 1.367 . S
C304 H318 0.951 . S
C305 C301 1.383 . S
C305 C304 1.367 . S
C305 H319 0.950 . S
C306 C303 1.481 . S
C306 C307 1.297 . S
C306 H320 0.950 . S
C307 C306 1.297 . S
C307 C308 1.479 . S
C307 H321 0.950 . S
C308 C307 1.479 . S
C308 C309 1.375 . S
C308 C314 1.404 . S
C309 C308 1.375 . S
C309 C310 1.369 . S
C309 H322 0.950 . S
C310 C309 1.369 . S
C310 C311 1.392 1_556 S
C310 H323 0.951 . S
C311 C310 1.392 1_554 S
C311 C313 1.384 . S
H312 C314 0.949 . S
C313 C311 1.384 . S
C313 C314 1.385 1_554 S
C313 H315 0.950 . S
C314 C308 1.404 . S
C314 H312 0.949 . S
C314 C313 1.385 1_556 S
H315 C313 0.950 . S
H316 C300 0.951 . S
H317 C302 0.951 . S
H318 C304 0.951 . S
H319 C305 0.950 . S
H320 C306 0.950 . S
H321 C307 0.950 . S
H322 C309 0.950 . S
H323 C310 0.951 . S
C324 C325 1.386 1_554 S
C324 C326 1.383 . S
C324 H340 0.951 . S
C325 C324 1.386 1_556 S
C325 C329 1.383 . S
C326 C324 1.383 . S
C326 C327 1.402 . S
C326 H341 0.951 . S
C327 C326 1.402 . S
C327 C328 1.375 . S
C327 C330 1.481 . S
C328 C327 1.375 . S
C328 C329 1.367 1_554 S
C328 H342 0.954 . S
C329 C325 1.383 . S
C329 C328 1.367 1_556 S
C329 H343 0.950 . S
C330 C327 1.481 . S
C330 C331 1.297 . S
C330 H344 0.950 . S
C331 C330 1.297 . S
C331 C332 1.479 . S
C331 H345 0.950 . S
C332 C331 1.479 . S
C332 C333 1.375 . S
C332 C338 1.404 . S
C333 C332 1.375 . S
C333 C334 1.369 . S
C333 H346 0.950 . S
C334 C333 1.369 . S
C334 C335 1.392 . S
C334 H347 0.951 . S
C335 C334 1.392 . S
C335 C337 1.384 . S
H336 C338 0.949 . S
C337 C335 1.384 . S
C337 C338 1.385 . S
C337 H339 0.950 . S
C338 C332 1.404 . S
C338 H336 0.949 . S
C338 C337 1.385 . S
H339 C337 0.950 . S
H340 C324 0.951 . S
H341 C326 0.951 . S
H342 C328 0.954 . S
H343 C329 0.950 . S
H344 C330 0.950 . S
H345 C331 0.950 . S
H346 C333 0.950 . S
H347 C334 0.951 . S
C348 C349 1.386 . S
C348 C350 1.383 . S
C348 H364 0.951 . S
C349 C348 1.386 . S
C349 C353 1.383 . S
C350 C348 1.383 . S
C350 C351 1.402 . S
C350 H365 0.951 . S
C351 C350 1.402 . S
C351 C352 1.375 . S
C351 C354 1.481 . S
C352 C351 1.375 . S
C352 C353 1.367 . S
C352 H366 0.951 . S
C353 C349 1.383 . S
C353 C352 1.367 . S
C353 H367 0.950 . S
C354 C351 1.481 . S
C354 C355 1.297 . S
C354 H368 0.950 . S
C355 C354 1.297 . S
C355 C356 1.479 . S
C355 H369 0.950 . S
C356 C355 1.479 . S
C356 C357 1.375 . S
C356 C362 1.404 . S
C357 C356 1.375 . S
C357 C358 1.369 . S
C357 H370 0.950 . S
C358 C357 1.369 . S
C358 C359 1.392 . S
C358 H371 0.951 . S
C359 C358 1.392 . S
C359 C361 1.384 . S
H360 C362 0.949 . S
C361 C359 1.384 . S
C361 C362 1.385 . S
C361 H363 0.950 . S
C362 C356 1.404 . S
C362 H360 0.949 . S
C362 C361 1.385 . S
H363 C361 0.950 . S
H364 C348 0.951 . S
H365 C350 0.951 . S
H366 C352 0.951 . S
H367 C353 0.950 . S
H368 C354 0.950 . S
H369 C355 0.950 . S
H370 C357 0.950 . S
H371 C358 0.951 . S
C85 C13 1.325 . S
C95 C77 1.390 . S
C109 C7 1.409 . S
C119 C27 1.397 . S
C133 C41 1.340 . S
C143 C21 1.413 . S
C157 C55 1.377 . S
C167 C35 1.405 . S
C181 C69 1.367 . S
C191 C49 1.410 . S
C205 C83 1.379 . S
C215 C63 1.396 . S
C229 C11 1.526 . S
C239 C64 1.460 . S
C253 C78 1.480 . S
C263 C25 1.513 . S
C277 C39 1.526 . S
C287 C8 1.510 . S
C301 C22 1.504 . S
C311 C53 1.533 . S
C325 C36 1.486 . S
C335 C67 1.507 . S
C349 C81 1.538 . S
C359 C50 1.529 . S
