# Generated by pormake.
# Topology neb, (4)-cn, num edge types: 1
# Building blocks:
#     Node 0, Type 0, BuildingBlock: QUQFOY_clean_sbu_3, # of connection points: 4
#     Node 1, Type 0, BuildingBlock: QUQFOY_clean_sbu_3, # of connection points: 4
#     Node 2, Type 0, BuildingBlock: QUQFOY_clean_sbu_3, # of connection points: 4
#     Node 3, Type 0, BuildingBlock: QUQFOY_clean_sbu_3, # of connection points: 4
#     Node 4, Type 0, BuildingBlock: QUQFOY_clean_sbu_3, # of connection points: 4
#     Node 5, Type 0, BuildingBlock: QUQFOY_clean_sbu_3, # of connection points: 4
#     Node 6, Type 0, BuildingBlock: QUQFOY_clean_sbu_3, # of connection points: 4
#     Node 7, Type 0, BuildingBlock: QUQFOY_clean_sbu_3, # of connection points: 4
#     Node 8, Type 0, BuildingBlock: QUQFOY_clean_sbu_3, # of connection points: 4
#     Node 9, Type 0, BuildingBlock: QUQFOY_clean_sbu_3, # of connection points: 4
#     Node 10, Type 0, BuildingBlock: QUQFOY_clean_sbu_3, # of connection points: 4
#     Node 11, Type 0, BuildingBlock: QUQFOY_clean_sbu_3, # of connection points: 4
#     Node 12, Type 0, BuildingBlock: QUQFOY_clean_sbu_3, # of connection points: 4
#     Node 13, Type 0, BuildingBlock: QUQFOY_clean_sbu_3, # of connection points: 4
#     Node 14, Type 0, BuildingBlock: QUQFOY_clean_sbu_3, # of connection points: 4
#     Node 15, Type 0, BuildingBlock: QUQFOY_clean_sbu_3, # of connection points: 4
#     Edge 16, Type (0, 0), None
#     Edge 17, Type (0, 0), None
#     Edge 18, Type (0, 0), None
#     Edge 19, Type (0, 0), None
#     Edge 20, Type (0, 0), None
#     Edge 21, Type (0, 0), None
#     Edge 22, Type (0, 0), None
#     Edge 23, Type (0, 0), None
#     Edge 24, Type (0, 0), None
#     Edge 25, Type (0, 0), None
#     Edge 26, Type (0, 0), None
#     Edge 27, Type (0, 0), None
#     Edge 28, Type (0, 0), None
#     Edge 29, Type (0, 0), None
#     Edge 30, Type (0, 0), None
#     Edge 31, Type (0, 0), None
#     Edge 32, Type (0, 0), None
#     Edge 33, Type (0, 0), None
#     Edge 34, Type (0, 0), None
#     Edge 35, Type (0, 0), None
#     Edge 36, Type (0, 0), None
#     Edge 37, Type (0, 0), None
#     Edge 38, Type (0, 0), None
#     Edge 39, Type (0, 0), None
#     Edge 40, Type (0, 0), None
#     Edge 41, Type (0, 0), None
#     Edge 42, Type (0, 0), None
#     Edge 43, Type (0, 0), None
#     Edge 44, Type (0, 0), None
#     Edge 45, Type (0, 0), None
#     Edge 46, Type (0, 0), None
#     Edge 47, Type (0, 0), None
# Relax obj value: 0.002
# Max RMSD: 0.022
# Mean RMSD: 0.022
data_MOF--net-neb--node1-QUQFOY_clean_sbu_3--edge1-none
_symmetry_space_group_name_H-M    P1
_symmetry_Int_Tables_number       1
_symmetry_cell_setting            triclinic
loop_
_symmetry_equiv_pos_as_xyz
'x, y, z'
_cell_length_a     22.656194
_cell_length_b     11.438243
_cell_length_c     36.794544
_cell_angle_alpha  89.992254
_cell_angle_beta   95.022533
_cell_angle_gamma 89.983493
loop_
_atom_site_label
_atom_site_type_symbol
_atom_site_fract_x
_atom_site_fract_y
_atom_site_fract_z
_atom_type_partial_charge
C0 C 0.17816 0.15879 0.46878 0.0
O1 O 0.21222 0.1088 0.44801 0.0
Cd2 Cd 0.17241 0.01439 0.39279 0.0
O3 O 0.12239 0.14457 0.46402 0.0
Cd4 Cd 0.05029 0.03097 0.42396 0.0
C5 C 0.07646 0.2325 0.3617 0.0
O6 O 0.103 0.85981 0.40074 0.0
O7 O 0.02022 0.9169 0.3717 0.0
O8 O 0.01634 0.93068 0.47691 0.0
C9 C 0.06161 0.84231 0.37563 0.0
O10 O 0.12504 0.17773 0.36032 0.0
C11 C -0.03696 -0.03501 0.47161 0.0
O12 O 0.0387 0.20201 0.3836 0.0
O13 O -0.04984 0.03269 0.44464 0.0
C14 C -0.04684 0.15882 0.74856 0.0
O15 O 0.91911 0.10893 0.76935 0.0
Cd16 Cd -0.04105 0.01453 0.82458 0.0
O17 O 0.00893 0.14456 0.75331 0.0
Cd18 Cd 0.08106 0.03099 0.79338 0.0
C19 C 0.05489 0.23253 0.85565 0.0
O20 O 0.02835 0.85989 0.81662 0.0
O21 O 0.11116 0.91681 0.84563 0.0
O22 O 0.11498 0.93071 0.74044 0.0
C23 C 0.06976 0.84229 0.84171 0.0
O24 O 0.00632 0.17781 0.85704 0.0
C25 C 0.16828 -0.035 0.74572 0.0
O26 O 0.09264 0.20201 0.83375 0.0
O27 O 0.18116 0.03267 0.77268 0.0
C28 C 0.70315 0.73402 0.49854 0.0
O29 O 0.66909 0.78401 0.51931 0.0
Cd30 Cd 0.7089 0.87843 0.57453 0.0
O31 O 0.75892 0.74824 0.5033 0.0
Cd32 Cd 0.83102 0.86184 0.54336 0.0
C33 C 0.80485 0.66031 0.60562 0.0
O34 O 0.77831 0.033 0.56658 0.0
O35 O 0.86109 -0.02409 0.59562 0.0
O36 O 0.86497 -0.03787 0.49041 0.0
C37 C 0.8197 0.05051 0.59169 0.0
O38 O 0.75627 0.71509 0.607 0.0
C39 C 0.91827 0.92782 0.49571 0.0
O40 O 0.84261 0.6908 0.58373 0.0
O41 O 0.93115 0.86012 0.52268 0.0
C42 C 0.92815 0.73399 0.21877 0.0
O43 O -0.0378 0.78389 0.19797 0.0
Cd44 Cd 0.92236 0.87828 0.14274 0.0
O45 O 0.87238 0.74825 0.21402 0.0
Cd46 Cd 0.80025 0.86182 0.17394 0.0
C47 C 0.82641 0.66028 0.11168 0.0
O48 O 0.85295 0.03292 0.1507 0.0
O49 O 0.77015 -0.024 0.12169 0.0
O50 O 0.76633 -0.0379 0.22689 0.0
C51 C 0.81155 0.05052 0.12561 0.0
O52 O 0.87499 0.715 0.11028 0.0
C53 C 0.71303 0.92781 0.2216 0.0
O54 O 0.78867 0.6908 0.13358 0.0
O55 O 0.70014 0.86014 0.19464 0.0
C56 C 0.17815 0.6588 0.96876 0.0
O57 O 0.21221 0.60882 0.94799 0.0
Cd58 Cd 0.17238 0.51439 0.89277 0.0
O59 O 0.12238 0.64456 0.964 0.0
Cd60 Cd 0.05028 0.53096 0.92395 0.0
C61 C 0.07643 0.73248 0.86169 0.0
O62 O 0.10298 0.3598 0.90072 0.0
O63 O 0.02019 0.41691 0.8717 0.0
O64 O 0.01634 0.43068 0.9769 0.0
C65 C 0.06156 0.3423 0.87563 0.0
O66 O 0.12501 0.67772 0.8603 0.0
C67 C -0.03697 0.46499 0.97161 0.0
O68 O 0.03868 0.70201 0.88359 0.0
O69 O -0.04985 0.5327 0.94464 0.0
C70 C -0.04684 0.65883 0.24858 0.0
O71 O 0.91912 0.60894 0.26937 0.0
Cd72 Cd -0.04103 0.51454 0.32461 0.0
O73 O 0.00894 0.64455 0.25332 0.0
Cd74 Cd 0.08107 0.53099 0.29339 0.0
C75 C 0.05493 0.73252 0.35566 0.0
O76 O 0.02837 0.35988 0.31664 0.0
O77 O 0.11119 0.41682 0.34564 0.0
O78 O 0.11498 0.4307 0.24044 0.0
C79 C 0.0698 0.34228 0.34172 0.0
O80 O 0.00636 0.6778 0.35707 0.0
C81 C 0.16828 0.465 0.24572 0.0
O82 O 0.09266 0.70201 0.33375 0.0
O83 O 0.18117 0.53267 0.27268 0.0
C84 C 0.70315 0.23401 -0.00143 0.0
O85 O 0.6691 0.28399 0.01934 0.0
Cd86 Cd 0.70893 0.37842 0.07455 0.0
O87 O 0.75893 0.24825 0.00332 0.0
Cd88 Cd 0.83103 0.36185 0.04337 0.0
C89 C 0.80488 0.16033 0.10564 0.0
O90 O 0.77833 0.53301 0.0666 0.0
O91 O 0.86112 0.4759 0.09563 0.0
O92 O 0.86497 0.46213 -0.00958 0.0
C93 C 0.81974 0.55051 0.09169 0.0
O94 O 0.7563 0.21509 0.10703 0.0
C95 C 0.91827 0.42782 -0.00429 0.0
O96 O 0.84263 0.1908 0.08373 0.0
O97 O 0.93115 0.36011 0.02268 0.0
C98 C 0.92814 0.23398 0.71874 0.0
O99 O -0.03781 0.28387 0.69795 0.0
Cd100 Cd 0.92234 0.37827 0.64272 0.0
O101 O 0.87237 0.24826 0.714 0.0
Cd102 Cd 0.80024 0.36183 0.67393 0.0
C103 C 0.82638 0.1603 0.61166 0.0
O104 O 0.85294 0.53293 0.65068 0.0
O105 O 0.77012 0.47599 0.62169 0.0
O106 O 0.76633 0.46211 0.72688 0.0
C107 C 0.81151 0.55053 0.62561 0.0
O108 O 0.87495 0.21501 0.61026 0.0
C109 C 0.71303 0.42782 0.7216 0.0
O110 O 0.78865 0.1908 0.63357 0.0
O111 O 0.70014 0.36014 0.69464 0.0
C112 C 0.67816 0.15879 0.96878 0.0
O113 O 0.71222 0.1088 0.94801 0.0
Cd114 Cd 0.67241 0.01438 0.89279 0.0
O115 O 0.62239 0.14457 0.96402 0.0
Cd116 Cd 0.55029 0.03096 0.92396 0.0
C117 C 0.57646 0.2325 0.8617 0.0
O118 O 0.60299 0.85981 0.90074 0.0
O119 O 0.52022 0.9169 0.8717 0.0
O120 O 0.51634 0.93068 0.97691 0.0
C121 C 0.5616 0.8423 0.87563 0.0
O122 O 0.62504 0.17772 0.86032 0.0
C123 C 0.46304 -0.03501 0.97161 0.0
O124 O 0.5387 0.202 0.88359 0.0
O125 O 0.45016 0.03269 0.94464 0.0
C126 C 0.45316 0.15882 0.24855 0.0
O127 O 0.41911 0.10893 0.26935 0.0
Cd128 Cd 0.45895 0.01453 0.32458 0.0
O129 O 0.50893 0.14456 0.25331 0.0
Cd130 Cd 0.58106 0.03099 0.29338 0.0
C131 C 0.55489 0.23253 0.35565 0.0
O132 O 0.52835 0.85989 0.31662 0.0
O133 O 0.61116 0.91681 0.34563 0.0
O134 O 0.61498 0.93071 0.24044 0.0
C135 C 0.56976 0.84229 0.34171 0.0
O136 O 0.50632 0.17781 0.35704 0.0
C137 C 0.66828 -0.035 0.24572 0.0
O138 O 0.59264 0.20201 0.33374 0.0
O139 O 0.68116 0.03267 0.27268 0.0
C140 C 0.20315 0.73402 -0.00146 0.0
O141 O 0.16909 0.78402 0.01931 0.0
Cd142 Cd 0.2089 0.87843 0.07453 0.0
O143 O 0.25892 0.74824 0.0033 0.0
Cd144 Cd 0.33102 0.86185 0.04336 0.0
C145 C 0.30485 0.66031 0.10562 0.0
O146 O 0.27831 0.033 0.06659 0.0
O147 O 0.36109 -0.02409 0.09562 0.0
O148 O 0.36496 -0.03787 -0.00959 0.0
C149 C 0.3197 0.05051 0.09169 0.0
O150 O 0.25627 0.71509 0.107 0.0
C151 C 0.41827 0.92782 -0.00429 0.0
O152 O 0.34261 0.69081 0.08373 0.0
O153 O 0.43115 0.86012 0.02268 0.0
C154 C 0.42815 0.73399 0.71877 0.0
O155 O 0.4622 0.78389 0.69797 0.0
Cd156 Cd 0.42236 0.87828 0.64274 0.0
O157 O 0.37238 0.74826 0.71402 0.0
Cd158 Cd 0.30025 0.86182 0.67394 0.0
C159 C 0.32641 0.66028 0.61168 0.0
O160 O 0.35296 0.03293 0.6507 0.0
O161 O 0.27015 -0.024 0.62169 0.0
O162 O 0.26633 -0.0379 0.72689 0.0
C163 C 0.31155 0.05052 0.62561 0.0
O164 O 0.37499 0.71501 0.61028 0.0
C165 C 0.21303 0.92782 0.7216 0.0
O166 O 0.28867 0.6908 0.63358 0.0
O167 O 0.20014 0.86014 0.69464 0.0
C168 C 0.67815 0.6588 0.46876 0.0
O169 O 0.71221 0.60882 0.44799 0.0
Cd170 Cd 0.67238 0.51439 0.39277 0.0
O171 O 0.62238 0.64456 0.464 0.0
Cd172 Cd 0.55028 0.53096 0.42395 0.0
C173 C 0.57643 0.73248 0.36168 0.0
O174 O 0.60298 0.3598 0.40072 0.0
O175 O 0.52019 0.41691 0.3717 0.0
O176 O 0.51634 0.43068 0.4769 0.0
C177 C 0.56156 0.3423 0.37563 0.0
O178 O 0.62501 0.67772 0.3603 0.0
C179 C 0.46303 0.46499 0.47161 0.0
O180 O 0.53868 0.70201 0.38359 0.0
O181 O 0.45016 0.5327 0.44464 0.0
C182 C 0.45316 0.65883 0.74858 0.0
O183 O 0.41912 0.60894 0.76937 0.0
Cd184 Cd 0.45897 0.51453 0.8246 0.0
O185 O 0.50894 0.64455 0.75332 0.0
Cd186 Cd 0.58107 0.53098 0.79339 0.0
C187 C 0.55493 0.73251 0.85566 0.0
O188 O 0.52837 0.35988 0.81664 0.0
O189 O 0.61119 0.41682 0.84563 0.0
O190 O 0.61498 0.4307 0.74044 0.0
C191 C 0.5698 0.34228 0.84172 0.0
O192 O 0.50636 0.6778 0.85707 0.0
C193 C 0.66828 0.46499 0.74572 0.0
O194 O 0.59266 0.70201 0.83375 0.0
O195 O 0.68117 0.53267 0.77268 0.0
C196 C 0.20315 0.23401 0.49857 0.0
O197 O 0.1691 0.284 0.51934 0.0
Cd198 Cd 0.20893 0.37842 0.57455 0.0
O199 O 0.25893 0.24825 0.50332 0.0
Cd200 Cd 0.33103 0.36185 0.54337 0.0
C201 C 0.30488 0.16033 0.60564 0.0
O202 O 0.27833 0.53301 0.5666 0.0
O203 O 0.36112 0.4759 0.59563 0.0
O204 O 0.36497 0.46214 0.49042 0.0
C205 C 0.31974 0.55052 0.59169 0.0
O206 O 0.2563 0.21509 0.60703 0.0
C207 C 0.41827 0.42782 0.49571 0.0
O208 O 0.34263 0.1908 0.58373 0.0
O209 O 0.43115 0.36012 0.52268 0.0
C210 C 0.42814 0.23398 0.21874 0.0
O211 O 0.46219 0.28387 0.19795 0.0
Cd212 Cd 0.42234 0.37828 0.14272 0.0
O213 O 0.37237 0.24826 0.214 0.0
Cd214 Cd 0.30024 0.36183 0.17393 0.0
C215 C 0.32638 0.1603 0.11166 0.0
O216 O 0.35294 0.53293 0.15068 0.0
O217 O 0.27012 0.476 0.12169 0.0
O218 O 0.26633 0.46211 0.22688 0.0
C219 C 0.31151 0.55053 0.12561 0.0
O220 O 0.37495 0.21501 0.11026 0.0
C221 C 0.21303 0.42782 0.2216 0.0
O222 O 0.28865 0.1908 0.13357 0.0
O223 O 0.20014 0.36014 0.19464 0.0
loop_
_geom_bond_atom_site_label_1
_geom_bond_atom_site_label_2
_geom_bond_distance
_geom_bond_site_symmetry_2
_ccdc_geom_bond_type
C0 O1 1.306 . S
C0 O3 1.160 . S
O1 C0 1.306 . S
O1 Cd2 2.228 . S
Cd2 O1 2.228 . S
Cd2 O6 2.273 1_545 S
Cd2 O10 2.277 . S
O3 C0 1.160 . S
O3 Cd4 2.203 . S
Cd4 O3 2.203 . S
Cd4 O6 2.411 1_545 S
Cd4 O7 2.333 1_545 S
Cd4 O8 2.352 1_545 S
Cd4 O12 2.277 . S
Cd4 O13 2.356 1_455 S
C5 O10 1.209 . S
C5 O12 1.226 . S
O6 Cd2 2.273 1_565 S
O6 Cd4 2.411 1_565 S
O6 C9 1.320 . S
O7 Cd4 2.333 1_565 S
O7 C9 1.214 . S
O8 Cd4 2.352 1_565 S
O8 C11 1.258 1_565 S
C9 O6 1.320 . S
C9 O7 1.214 . S
O10 Cd2 2.277 . S
O10 C5 1.209 . S
C11 O8 1.258 1_545 S
C11 O13 1.282 1_455 S
O12 Cd4 2.277 . S
O12 C5 1.226 . S
O13 Cd4 2.356 1_655 S
O13 C11 1.282 1_655 S
C14 O15 1.306 1_455 S
C14 O17 1.160 . S
O15 C14 1.306 1_655 S
O15 Cd16 2.228 . S
Cd16 O15 2.228 . S
Cd16 O20 2.273 1_645 S
Cd16 O24 2.277 1_655 S
O17 C14 1.160 . S
O17 Cd18 2.203 . S
Cd18 O17 2.203 . S
Cd18 O20 2.411 1_545 S
Cd18 O21 2.333 1_545 S
Cd18 O22 2.352 1_545 S
Cd18 O26 2.277 . S
Cd18 O27 2.356 . S
C19 O24 1.209 . S
C19 O26 1.226 . S
O20 Cd16 2.273 1_465 S
O20 Cd18 2.411 1_565 S
O20 C23 1.320 . S
O21 Cd18 2.333 1_565 S
O21 C23 1.214 . S
O22 Cd18 2.352 1_565 S
O22 C25 1.258 1_565 S
C23 O20 1.320 . S
C23 O21 1.214 . S
O24 Cd16 2.277 1_455 S
O24 C19 1.209 . S
C25 O22 1.258 1_545 S
C25 O27 1.282 . S
O26 Cd18 2.277 . S
O26 C19 1.226 . S
O27 Cd18 2.356 . S
O27 C25 1.282 . S
C28 O29 1.306 . S
C28 O31 1.160 . S
O29 C28 1.306 . S
O29 Cd30 2.228 . S
Cd30 O29 2.228 . S
Cd30 O34 2.273 1_565 S
Cd30 O38 2.277 . S
O31 C28 1.160 . S
O31 Cd32 2.203 . S
Cd32 O31 2.203 . S
Cd32 O34 2.411 1_565 S
Cd32 O35 2.333 1_565 S
Cd32 O36 2.352 1_565 S
Cd32 O40 2.277 . S
Cd32 O41 2.356 1_655 S
C33 O38 1.209 . S
C33 O40 1.226 . S
O34 Cd30 2.273 1_545 S
O34 Cd32 2.411 1_545 S
O34 C37 1.320 . S
O35 Cd32 2.333 1_545 S
O35 C37 1.214 . S
O36 Cd32 2.352 1_545 S
O36 C39 1.258 1_545 S
C37 O34 1.320 . S
C37 O35 1.214 . S
O38 Cd30 2.277 . S
O38 C33 1.209 . S
C39 O36 1.258 1_565 S
C39 O41 1.282 1_655 S
O40 Cd32 2.277 . S
O40 C33 1.226 . S
O41 Cd32 2.356 1_455 S
O41 C39 1.282 1_455 S
C42 O43 1.306 1_655 S
C42 O45 1.160 . S
O43 C42 1.306 1_455 S
O43 Cd44 2.228 . S
Cd44 O43 2.228 . S
Cd44 O48 2.273 1_465 S
Cd44 O52 2.277 1_455 S
O45 C42 1.160 . S
O45 Cd46 2.203 . S
Cd46 O45 2.203 . S
Cd46 O48 2.411 1_565 S
Cd46 O49 2.333 1_565 S
Cd46 O50 2.352 1_565 S
Cd46 O54 2.277 . S
Cd46 O55 2.356 . S
C47 O52 1.209 . S
C47 O54 1.226 . S
O48 Cd44 2.273 1_645 S
O48 Cd46 2.411 1_545 S
O48 C51 1.320 . S
O49 Cd46 2.333 1_545 S
O49 C51 1.214 . S
O50 Cd46 2.352 1_545 S
O50 C53 1.258 1_545 S
C51 O48 1.320 . S
C51 O49 1.214 . S
O52 Cd44 2.277 1_655 S
O52 C47 1.209 . S
C53 O50 1.258 1_565 S
C53 O55 1.282 . S
O54 Cd46 2.277 . S
O54 C47 1.226 . S
O55 Cd46 2.356 . S
O55 C53 1.282 . S
C56 O57 1.306 . S
C56 O59 1.160 . S
O57 C56 1.306 . S
O57 Cd58 2.228 . S
Cd58 O57 2.228 . S
Cd58 O62 2.273 . S
Cd58 O66 2.277 . S
O59 C56 1.160 . S
O59 Cd60 2.203 . S
Cd60 O59 2.203 . S
Cd60 O62 2.411 . S
Cd60 O63 2.333 . S
Cd60 O64 2.352 . S
Cd60 O68 2.277 . S
Cd60 O69 2.356 1_455 S
C61 O66 1.209 . S
C61 O68 1.226 . S
O62 Cd58 2.273 . S
O62 Cd60 2.411 . S
O62 C65 1.320 . S
O63 Cd60 2.333 . S
O63 C65 1.214 . S
O64 Cd60 2.352 . S
O64 C67 1.258 . S
C65 O62 1.320 . S
C65 O63 1.214 . S
O66 Cd58 2.277 . S
O66 C61 1.209 . S
C67 O64 1.258 . S
C67 O69 1.282 1_455 S
O68 Cd60 2.277 . S
O68 C61 1.226 . S
O69 Cd60 2.356 1_655 S
O69 C67 1.282 1_655 S
C70 O71 1.306 1_455 S
C70 O73 1.160 . S
O71 C70 1.306 1_655 S
O71 Cd72 2.228 . S
Cd72 O71 2.228 . S
Cd72 O76 2.273 1_655 S
Cd72 O80 2.277 1_655 S
O73 C70 1.160 . S
O73 Cd74 2.203 . S
Cd74 O73 2.203 . S
Cd74 O76 2.411 . S
Cd74 O77 2.333 . S
Cd74 O78 2.352 . S
Cd74 O82 2.277 . S
Cd74 O83 2.356 . S
C75 O80 1.209 . S
C75 O82 1.226 . S
O76 Cd72 2.273 1_455 S
O76 Cd74 2.411 . S
O76 C79 1.320 . S
O77 Cd74 2.333 . S
O77 C79 1.214 . S
O78 Cd74 2.352 . S
O78 C81 1.258 . S
C79 O76 1.320 . S
C79 O77 1.214 . S
O80 Cd72 2.277 1_455 S
O80 C75 1.209 . S
C81 O78 1.258 . S
C81 O83 1.282 . S
O82 Cd74 2.277 . S
O82 C75 1.226 . S
O83 Cd74 2.356 . S
O83 C81 1.282 . S
C84 O85 1.306 . S
C84 O87 1.160 . S
O85 C84 1.306 . S
O85 Cd86 2.228 . S
Cd86 O85 2.228 . S
Cd86 O90 2.273 . S
Cd86 O94 2.277 . S
O87 C84 1.160 . S
O87 Cd88 2.203 . S
Cd88 O87 2.203 . S
Cd88 O90 2.411 . S
Cd88 O91 2.333 . S
Cd88 O92 2.352 . S
Cd88 O96 2.277 . S
Cd88 O97 2.356 1_655 S
C89 O94 1.209 . S
C89 O96 1.226 . S
O90 Cd86 2.273 . S
O90 Cd88 2.411 . S
O90 C93 1.320 . S
O91 Cd88 2.333 . S
O91 C93 1.214 . S
O92 Cd88 2.352 . S
O92 C95 1.258 . S
C93 O90 1.320 . S
C93 O91 1.214 . S
O94 Cd86 2.277 . S
O94 C89 1.209 . S
C95 O92 1.258 . S
C95 O97 1.282 1_655 S
O96 Cd88 2.277 . S
O96 C89 1.226 . S
O97 Cd88 2.356 1_455 S
O97 C95 1.282 1_455 S
C98 O99 1.306 1_655 S
C98 O101 1.160 . S
O99 C98 1.306 1_455 S
O99 Cd100 2.228 . S
Cd100 O99 2.228 . S
Cd100 O104 2.273 1_455 S
Cd100 O108 2.277 1_455 S
O101 C98 1.160 . S
O101 Cd102 2.203 . S
Cd102 O101 2.203 . S
Cd102 O104 2.411 . S
Cd102 O105 2.333 . S
Cd102 O106 2.352 . S
Cd102 O110 2.277 . S
Cd102 O111 2.356 . S
C103 O108 1.209 . S
C103 O110 1.226 . S
O104 Cd100 2.273 1_655 S
O104 Cd102 2.411 . S
O104 C107 1.320 . S
O105 Cd102 2.333 . S
O105 C107 1.214 . S
O106 Cd102 2.352 . S
O106 C109 1.258 . S
C107 O104 1.320 . S
C107 O105 1.214 . S
O108 Cd100 2.277 1_655 S
O108 C103 1.209 . S
C109 O106 1.258 . S
C109 O111 1.282 . S
O110 Cd102 2.277 . S
O110 C103 1.226 . S
O111 Cd102 2.356 . S
O111 C109 1.282 . S
C112 O113 1.306 . S
C112 O115 1.160 . S
O113 C112 1.306 . S
O113 Cd114 2.228 . S
Cd114 O113 2.228 . S
Cd114 O118 2.273 1_545 S
Cd114 O122 2.277 . S
O115 C112 1.160 . S
O115 Cd116 2.203 . S
Cd116 O115 2.203 . S
Cd116 O118 2.411 1_545 S
Cd116 O119 2.333 1_545 S
Cd116 O120 2.352 1_545 S
Cd116 O124 2.277 . S
Cd116 O125 2.356 . S
C117 O122 1.209 . S
C117 O124 1.226 . S
O118 Cd114 2.273 1_565 S
O118 Cd116 2.411 1_565 S
O118 C121 1.320 . S
O119 Cd116 2.333 1_565 S
O119 C121 1.214 . S
O120 Cd116 2.352 1_565 S
O120 C123 1.258 1_565 S
C121 O118 1.320 . S
C121 O119 1.214 . S
O122 Cd114 2.277 . S
O122 C117 1.209 . S
C123 O120 1.258 1_545 S
C123 O125 1.282 . S
O124 Cd116 2.277 . S
O124 C117 1.226 . S
O125 Cd116 2.356 . S
O125 C123 1.282 . S
C126 O127 1.306 . S
C126 O129 1.160 . S
O127 C126 1.306 . S
O127 Cd128 2.228 . S
Cd128 O127 2.228 . S
Cd128 O132 2.273 1_545 S
Cd128 O136 2.277 . S
O129 C126 1.160 . S
O129 Cd130 2.203 . S
Cd130 O129 2.203 . S
Cd130 O132 2.411 1_545 S
Cd130 O133 2.333 1_545 S
Cd130 O134 2.352 1_545 S
Cd130 O138 2.277 . S
Cd130 O139 2.356 . S
C131 O136 1.209 . S
C131 O138 1.226 . S
O132 Cd128 2.273 1_565 S
O132 Cd130 2.411 1_565 S
O132 C135 1.320 . S
O133 Cd130 2.333 1_565 S
O133 C135 1.214 . S
O134 Cd130 2.352 1_565 S
O134 C137 1.258 1_565 S
C135 O132 1.320 . S
C135 O133 1.214 . S
O136 Cd128 2.277 . S
O136 C131 1.209 . S
C137 O134 1.258 1_545 S
C137 O139 1.282 . S
O138 Cd130 2.277 . S
O138 C131 1.226 . S
O139 Cd130 2.356 . S
O139 C137 1.282 . S
C140 O141 1.306 . S
C140 O143 1.160 . S
O141 C140 1.306 . S
O141 Cd142 2.228 . S
Cd142 O141 2.228 . S
Cd142 O146 2.273 1_565 S
Cd142 O150 2.277 . S
O143 C140 1.160 . S
O143 Cd144 2.203 . S
Cd144 O143 2.203 . S
Cd144 O146 2.411 1_565 S
Cd144 O147 2.333 1_565 S
Cd144 O148 2.352 1_565 S
Cd144 O152 2.277 . S
Cd144 O153 2.356 . S
C145 O150 1.209 . S
C145 O152 1.226 . S
O146 Cd142 2.273 1_545 S
O146 Cd144 2.411 1_545 S
O146 C149 1.320 . S
O147 Cd144 2.333 1_545 S
O147 C149 1.214 . S
O148 Cd144 2.352 1_545 S
O148 C151 1.258 1_545 S
C149 O146 1.320 . S
C149 O147 1.214 . S
O150 Cd142 2.277 . S
O150 C145 1.209 . S
C151 O148 1.258 1_565 S
C151 O153 1.282 . S
O152 Cd144 2.277 . S
O152 C145 1.226 . S
O153 Cd144 2.356 . S
O153 C151 1.282 . S
C154 O155 1.306 . S
C154 O157 1.160 . S
O155 C154 1.306 . S
O155 Cd156 2.228 . S
Cd156 O155 2.228 . S
Cd156 O160 2.273 1_565 S
Cd156 O164 2.277 . S
O157 C154 1.160 . S
O157 Cd158 2.203 . S
Cd158 O157 2.203 . S
Cd158 O160 2.411 1_565 S
Cd158 O161 2.333 1_565 S
Cd158 O162 2.352 1_565 S
Cd158 O166 2.277 . S
Cd158 O167 2.356 . S
C159 O164 1.209 . S
C159 O166 1.226 . S
O160 Cd156 2.273 1_545 S
O160 Cd158 2.411 1_545 S
O160 C163 1.320 . S
O161 Cd158 2.333 1_545 S
O161 C163 1.214 . S
O162 Cd158 2.352 1_545 S
O162 C165 1.258 1_545 S
C163 O160 1.320 . S
C163 O161 1.214 . S
O164 Cd156 2.277 . S
O164 C159 1.209 . S
C165 O162 1.258 1_565 S
C165 O167 1.282 . S
O166 Cd158 2.277 . S
O166 C159 1.226 . S
O167 Cd158 2.356 . S
O167 C165 1.282 . S
C168 O169 1.306 . S
C168 O171 1.160 . S
O169 C168 1.306 . S
O169 Cd170 2.228 . S
Cd170 O169 2.228 . S
Cd170 O174 2.273 . S
Cd170 O178 2.277 . S
O171 C168 1.160 . S
O171 Cd172 2.203 . S
Cd172 O171 2.203 . S
Cd172 O174 2.411 . S
Cd172 O175 2.333 . S
Cd172 O176 2.352 . S
Cd172 O180 2.277 . S
Cd172 O181 2.356 . S
C173 O178 1.209 . S
C173 O180 1.226 . S
O174 Cd170 2.273 . S
O174 Cd172 2.411 . S
O174 C177 1.320 . S
O175 Cd172 2.333 . S
O175 C177 1.214 . S
O176 Cd172 2.352 . S
O176 C179 1.258 . S
C177 O174 1.320 . S
C177 O175 1.214 . S
O178 Cd170 2.277 . S
O178 C173 1.209 . S
C179 O176 1.258 . S
C179 O181 1.282 . S
O180 Cd172 2.277 . S
O180 C173 1.226 . S
O181 Cd172 2.356 . S
O181 C179 1.282 . S
C182 O183 1.306 . S
C182 O185 1.160 . S
O183 C182 1.306 . S
O183 Cd184 2.228 . S
Cd184 O183 2.228 . S
Cd184 O188 2.273 . S
Cd184 O192 2.277 . S
O185 C182 1.160 . S
O185 Cd186 2.203 . S
Cd186 O185 2.203 . S
Cd186 O188 2.411 . S
Cd186 O189 2.333 . S
Cd186 O190 2.352 . S
Cd186 O194 2.277 . S
Cd186 O195 2.356 . S
C187 O192 1.209 . S
C187 O194 1.226 . S
O188 Cd184 2.273 . S
O188 Cd186 2.411 . S
O188 C191 1.320 . S
O189 Cd186 2.333 . S
O189 C191 1.214 . S
O190 Cd186 2.352 . S
O190 C193 1.258 . S
C191 O188 1.320 . S
C191 O189 1.214 . S
O192 Cd184 2.277 . S
O192 C187 1.209 . S
C193 O190 1.258 . S
C193 O195 1.282 . S
O194 Cd186 2.277 . S
O194 C187 1.226 . S
O195 Cd186 2.356 . S
O195 C193 1.282 . S
C196 O197 1.306 . S
C196 O199 1.160 . S
O197 C196 1.306 . S
O197 Cd198 2.228 . S
Cd198 O197 2.228 . S
Cd198 O202 2.273 . S
Cd198 O206 2.277 . S
O199 C196 1.160 . S
O199 Cd200 2.203 . S
Cd200 O199 2.203 . S
Cd200 O202 2.411 . S
Cd200 O203 2.333 . S
Cd200 O204 2.352 . S
Cd200 O208 2.277 . S
Cd200 O209 2.356 . S
C201 O206 1.209 . S
C201 O208 1.226 . S
O202 Cd198 2.273 . S
O202 Cd200 2.411 . S
O202 C205 1.320 . S
O203 Cd200 2.333 . S
O203 C205 1.214 . S
O204 Cd200 2.352 . S
O204 C207 1.258 . S
C205 O202 1.320 . S
C205 O203 1.214 . S
O206 Cd198 2.277 . S
O206 C201 1.209 . S
C207 O204 1.258 . S
C207 O209 1.282 . S
O208 Cd200 2.277 . S
O208 C201 1.226 . S
O209 Cd200 2.356 . S
O209 C207 1.282 . S
C210 O211 1.306 . S
C210 O213 1.160 . S
O211 C210 1.306 . S
O211 Cd212 2.228 . S
Cd212 O211 2.228 . S
Cd212 O216 2.273 . S
Cd212 O220 2.277 . S
O213 C210 1.160 . S
O213 Cd214 2.203 . S
Cd214 O213 2.203 . S
Cd214 O216 2.411 . S
Cd214 O217 2.333 . S
Cd214 O218 2.352 . S
Cd214 O222 2.277 . S
Cd214 O223 2.356 . S
C215 O220 1.209 . S
C215 O222 1.226 . S
O216 Cd212 2.273 . S
O216 Cd214 2.411 . S
O216 C219 1.320 . S
O217 Cd214 2.333 . S
O217 C219 1.214 . S
O218 Cd214 2.352 . S
O218 C221 1.258 . S
C219 O216 1.320 . S
C219 O217 1.214 . S
O220 Cd212 2.277 . S
O220 C215 1.209 . S
C221 O218 1.258 . S
C221 O223 1.282 . S
O222 Cd214 2.277 . S
O222 C215 1.226 . S
O223 Cd214 2.356 . S
O223 C221 1.282 . S
C196 C0 1.504 . S
C39 C11 1.510 1_665 S
C165 C25 1.510 1_565 S
C14 C98 1.504 1_455 S
C28 C168 1.504 . S
C137 C53 1.510 1_545 S
C42 C70 1.504 1_655 S
C140 C56 1.504 1_554 S
C67 C95 1.510 1_456 S
C221 C81 1.510 . S
C112 C84 1.504 1_556 S
C193 C109 1.510 . S
C123 C151 1.510 1_546 S
C210 C126 1.504 . S
C154 C182 1.504 . S
C207 C179 1.510 . S
C75 C9 1.448 . S
C5 C79 1.447 . S
C19 C65 1.447 . S
C61 C23 1.447 . S
C103 C37 1.448 . S
C107 C33 1.447 . S
C93 C47 1.448 . S
C51 C89 1.447 . S
C187 C121 1.447 . S
C117 C191 1.447 . S
C131 C177 1.448 . S
C173 C135 1.447 . S
C215 C149 1.448 . S
C219 C145 1.447 . S
C159 C205 1.448 . S
C201 C163 1.447 . S
