# Generated by pormake.
# Topology zfn, (5)-cn, num edge types: 1
# Building blocks:
#     Node 0, Type 0, BuildingBlock: XOMCOT_clean_sbu_0, # of connection points: 5
#     Node 1, Type 0, BuildingBlock: XOMCOT_clean_sbu_0, # of connection points: 5
#     Node 2, Type 0, BuildingBlock: XOMCOT_clean_sbu_0, # of connection points: 5
#     Node 3, Type 0, BuildingBlock: XOMCOT_clean_sbu_0, # of connection points: 5
#     Node 4, Type 0, BuildingBlock: XOMCOT_clean_sbu_0, # of connection points: 5
#     Node 5, Type 0, BuildingBlock: XOMCOT_clean_sbu_0, # of connection points: 5
#     Node 6, Type 0, BuildingBlock: XOMCOT_clean_sbu_0, # of connection points: 5
#     Node 7, Type 0, BuildingBlock: XOMCOT_clean_sbu_0, # of connection points: 5
#     Node 8, Type 0, BuildingBlock: XOMCOT_clean_sbu_0, # of connection points: 5
#     Node 9, Type 0, BuildingBlock: XOMCOT_clean_sbu_0, # of connection points: 5
#     Node 10, Type 0, BuildingBlock: XOMCOT_clean_sbu_0, # of connection points: 5
#     Node 11, Type 0, BuildingBlock: XOMCOT_clean_sbu_0, # of connection points: 5
#     Node 12, Type 0, BuildingBlock: XOMCOT_clean_sbu_0, # of connection points: 5
#     Node 13, Type 0, BuildingBlock: XOMCOT_clean_sbu_0, # of connection points: 5
#     Node 14, Type 0, BuildingBlock: XOMCOT_clean_sbu_0, # of connection points: 5
#     Node 15, Type 0, BuildingBlock: XOMCOT_clean_sbu_0, # of connection points: 5
#     Edge 16, Type (0, 0), BuildingBlock: XUDNAN_clean_linker_2, # of connection points: 2
#     Edge 17, Type (0, 0), BuildingBlock: XUDNAN_clean_linker_2, # of connection points: 2
#     Edge 18, Type (0, 0), BuildingBlock: XUDNAN_clean_linker_2, # of connection points: 2
#     Edge 19, Type (0, 0), BuildingBlock: XUDNAN_clean_linker_2, # of connection points: 2
#     Edge 20, Type (0, 0), BuildingBlock: XUDNAN_clean_linker_2, # of connection points: 2
#     Edge 21, Type (0, 0), BuildingBlock: XUDNAN_clean_linker_2, # of connection points: 2
#     Edge 22, Type (0, 0), BuildingBlock: XUDNAN_clean_linker_2, # of connection points: 2
#     Edge 23, Type (0, 0), BuildingBlock: XUDNAN_clean_linker_2, # of connection points: 2
#     Edge 24, Type (0, 0), BuildingBlock: XUDNAN_clean_linker_2, # of connection points: 2
#     Edge 25, Type (0, 0), BuildingBlock: XUDNAN_clean_linker_2, # of connection points: 2
#     Edge 26, Type (0, 0), BuildingBlock: XUDNAN_clean_linker_2, # of connection points: 2
#     Edge 27, Type (0, 0), BuildingBlock: XUDNAN_clean_linker_2, # of connection points: 2
#     Edge 28, Type (0, 0), BuildingBlock: XUDNAN_clean_linker_2, # of connection points: 2
#     Edge 29, Type (0, 0), BuildingBlock: XUDNAN_clean_linker_2, # of connection points: 2
#     Edge 30, Type (0, 0), BuildingBlock: XUDNAN_clean_linker_2, # of connection points: 2
#     Edge 31, Type (0, 0), BuildingBlock: XUDNAN_clean_linker_2, # of connection points: 2
#     Edge 32, Type (0, 0), BuildingBlock: XUDNAN_clean_linker_2, # of connection points: 2
#     Edge 33, Type (0, 0), BuildingBlock: XUDNAN_clean_linker_2, # of connection points: 2
#     Edge 34, Type (0, 0), BuildingBlock: XUDNAN_clean_linker_2, # of connection points: 2
#     Edge 35, Type (0, 0), BuildingBlock: XUDNAN_clean_linker_2, # of connection points: 2
#     Edge 36, Type (0, 0), BuildingBlock: XUDNAN_clean_linker_2, # of connection points: 2
#     Edge 37, Type (0, 0), BuildingBlock: XUDNAN_clean_linker_2, # of connection points: 2
#     Edge 38, Type (0, 0), BuildingBlock: XUDNAN_clean_linker_2, # of connection points: 2
#     Edge 39, Type (0, 0), BuildingBlock: XUDNAN_clean_linker_2, # of connection points: 2
#     Edge 40, Type (0, 0), BuildingBlock: XUDNAN_clean_linker_2, # of connection points: 2
#     Edge 41, Type (0, 0), BuildingBlock: XUDNAN_clean_linker_2, # of connection points: 2
#     Edge 42, Type (0, 0), BuildingBlock: XUDNAN_clean_linker_2, # of connection points: 2
#     Edge 43, Type (0, 0), BuildingBlock: XUDNAN_clean_linker_2, # of connection points: 2
#     Edge 44, Type (0, 0), BuildingBlock: XUDNAN_clean_linker_2, # of connection points: 2
#     Edge 45, Type (0, 0), BuildingBlock: XUDNAN_clean_linker_2, # of connection points: 2
#     Edge 46, Type (0, 0), BuildingBlock: XUDNAN_clean_linker_2, # of connection points: 2
#     Edge 47, Type (0, 0), BuildingBlock: XUDNAN_clean_linker_2, # of connection points: 2
#     Edge 48, Type (0, 0), BuildingBlock: XUDNAN_clean_linker_2, # of connection points: 2
#     Edge 49, Type (0, 0), BuildingBlock: XUDNAN_clean_linker_2, # of connection points: 2
#     Edge 50, Type (0, 0), BuildingBlock: XUDNAN_clean_linker_2, # of connection points: 2
#     Edge 51, Type (0, 0), BuildingBlock: XUDNAN_clean_linker_2, # of connection points: 2
#     Edge 52, Type (0, 0), BuildingBlock: XUDNAN_clean_linker_2, # of connection points: 2
#     Edge 53, Type (0, 0), BuildingBlock: XUDNAN_clean_linker_2, # of connection points: 2
#     Edge 54, Type (0, 0), BuildingBlock: XUDNAN_clean_linker_2, # of connection points: 2
#     Edge 55, Type (0, 0), BuildingBlock: XUDNAN_clean_linker_2, # of connection points: 2
# Relax obj value: 0.133
# Max RMSD: 0.137
# Mean RMSD: 0.137
data_MOF--net-zfn--node1-XOMCOT_clean_sbu_0--edge1-XUDNAN_clean_linker_2
_symmetry_space_group_name_H-M    P1
_symmetry_Int_Tables_number       1
_symmetry_cell_setting            triclinic
loop_
_symmetry_equiv_pos_as_xyz
'x, y, z'
_cell_length_a     75.202913
_cell_length_b     75.135292
_cell_length_c     17.551714
_cell_angle_alpha  89.981655
_cell_angle_beta   89.975325
_cell_angle_gamma 90.013257
loop_
_atom_site_label
_atom_site_type_symbol
_atom_site_fract_x
_atom_site_fract_y
_atom_site_fract_z
_atom_type_partial_charge
Co0 Co 0.01258 0.3404 0.18667 0.0
C1 C 0.01403 0.33799 0.35384 0.0
C2 C 0.03915 0.3466 0.30914 0.0
C3 C 0.04047 0.34538 0.38755 0.0
N4 N 0.02253 0.34197 0.28829 0.0
N5 N 0.02468 0.33984 0.41528 0.0
H6 H 0.00029 0.33375 0.3565 0.0
H7 H 0.04969 0.35026 0.27033 0.0
C8 C 0.03109 0.36825 0.09428 0.0
O9 O 0.0156 0.37243 0.06456 0.0
N10 N 0.00244 0.33833 0.08463 0.0
C11 C 0.98509 0.33636 0.06659 0.0
C12 C 0.98357 0.33318 0.98989 0.0
C13 C 0.01125 0.33583 0.018 0.0
N14 N -3e-05 0.33294 0.95934 0.0
C15 C 0.97975 0.35703 0.2283 0.0
C16 C 0.99261 0.39115 0.24777 0.0
C17 C 0.97449 0.38787 0.2597 0.0
C18 C 0.96817 0.3705 0.25065 0.0
C19 C 0.00384 0.37715 0.22637 0.0
N20 N -0.00281 0.36049 0.21243 0.0
H21 H 0.9746 0.34368 0.22591 0.0
H22 H 0.01792 0.37973 0.22339 0.0
H23 H 0.97415 0.3363 0.10599 0.0
H24 H 0.0256 0.3356 1.01291 0.0
O25 O -0.0027 0.32131 0.21959 0.0
O26 O 0.02433 0.31761 0.172 0.0
O27 O 0.03212 0.3563 0.14604 0.0
C28 C 0.00989 0.31049 0.19948 0.0
H29 H 0.05229 0.34777 0.42121 0.0
H30 H 0.97132 0.33091 0.95896 0.0
H31 H -0.00187 0.40429 0.25717 0.0
H32 H 0.95432 0.36729 0.26081 0.0
Co33 Co 0.15367 0.0247 0.6827 0.0
C34 C 0.15401 0.02795 0.85243 0.0
C35 C 0.14461 0.05153 0.79617 0.0
C36 C 0.14559 0.0549 0.87283 0.0
N37 N 0.14983 0.03467 0.7831 0.0
N38 N 0.15162 0.04016 0.90829 0.0
H39 H 0.15957 0.01482 0.86126 0.0
H40 H 0.14114 0.06109 0.75266 0.0
C41 C 0.12303 0.03819 0.58912 0.0
O42 O 0.12145 0.02245 0.5572 0.0
N43 N 0.15791 0.01546 0.58013 0.0
C44 C 0.16123 -0.00127 0.5558 0.0
C45 C 0.16345 -0.0011 0.47785 0.0
C46 C 0.15897 0.02559 0.51655 0.0
N47 N 0.16195 0.01581 0.45318 0.0
C48 C 0.14264 0.98879 0.71334 0.0
C49 C 0.10665 0.99578 0.72341 0.0
C50 C 0.11238 0.9781 0.71766 0.0
C51 C 0.13066 0.97463 0.71637 0.0
C52 C 0.11915 0.00953 0.71892 0.0
N53 N 0.13672 0.00586 0.70637 0.0
H54 H 0.15671 0.98596 0.71337 0.0
H55 H 0.11455 0.0231 0.723 0.0
H56 H 0.16248 0.98707 0.59093 0.0
H57 H 0.15714 0.03988 0.51671 0.0
O58 O 0.17547 0.01359 0.71752 0.0
O59 O 0.17327 0.04075 0.66868 0.0
O60 O 0.13457 0.04084 0.64128 0.0
C61 C 0.18326 0.02838 0.69774 0.0
H62 H 0.14256 0.06744 0.90024 0.0
H63 H 0.16633 0.98748 0.44234 0.0
H64 H 0.09263 -0.00103 0.72714 0.0
H65 H 0.13561 0.96109 0.71537 0.0
Co66 Co 0.47423 0.1585 0.17697 0.0
C67 C 0.47271 0.15909 0.34444 0.0
C68 C 0.4484 0.14872 0.29857 0.0
C69 C 0.44693 0.14938 0.37709 0.0
N70 N 0.46462 0.15476 0.27841 0.0
N71 N 0.4622 0.15605 0.40548 0.0
H72 H 0.48592 0.16474 0.34769 0.0
H73 H 0.43814 0.14467 0.25917 0.0
C74 C 0.46035 0.12752 0.08806 0.0
O75 O 0.47636 0.12498 0.06005 0.0
N76 N 0.48383 0.16307 0.0751 0.0
C77 C 0.49905 0.17193 0.05984 0.0
C78 C 0.50014 0.17525 0.98326 0.0
C79 C 0.47546 0.16195 1.00664 0.0
N80 N 0.48532 0.16902 0.94959 0.0
C81 C 0.50983 0.14332 0.19313 0.0
C82 C 0.49797 0.11039 0.2419 0.0
C83 C 0.51618 0.113 0.2312 0.0
C84 C 0.52217 0.12972 0.20704 0.0
C85 C 0.48615 0.12414 0.22585 0.0
N86 N 0.49199 0.14019 0.19876 0.0
H87 H 0.51477 0.15634 0.1799 0.0
H88 H 0.47216 0.12179 0.23529 0.0
H89 H 0.50821 0.17711 0.10156 0.0
H90 H 0.46204 0.1571 0.99913 0.0
O91 O 0.48614 0.17977 0.21429 0.0
O92 O 0.45897 0.17869 0.16516 0.0
O93 O 0.45741 0.14018 0.13495 0.0
C94 C 0.4715 0.1881 0.19632 0.0
H95 H 0.43526 0.14609 0.41035 0.0
H96 H 0.51079 0.18235 0.95493 0.0
H97 H 0.49286 0.09773 0.26178 0.0
H98 H 0.53626 0.13239 0.20092 0.0
Co99 Co 0.34016 0.47555 0.73692 0.0
C100 C 0.33893 0.47237 0.90834 0.0
C101 C 0.34301 0.4475 0.85146 0.0
C102 C 0.34098 0.44421 0.92779 0.0
N103 N 0.34224 0.46521 0.83871 0.0
N104 N 0.33836 0.45982 0.96365 0.0
H105 H 0.33544 0.48611 0.91817 0.0
H106 H 0.34391 0.43744 0.80767 0.0
C107 C 0.37078 0.45056 0.71851 0.0
O108 O 0.37756 0.45724 0.78132 0.0
N109 N 0.33747 0.485 0.63503 0.0
C110 C 0.3375 0.50215 0.61258 0.0
C111 C 0.33556 0.50269 0.53432 0.0
C112 C 0.33529 0.47539 0.57089 0.0
N113 N 0.33412 0.48583 0.50835 0.0
C114 C 0.36006 0.50367 0.80825 0.0
C115 C 0.3883 0.50333 0.70746 0.0
C116 C 0.38836 0.51571 0.76718 0.0
C117 C 0.37391 0.51584 0.81768 0.0
C118 C 0.37416 0.49141 0.70011 0.0
N119 N 0.36056 0.49119 0.75192 0.0
H120 H 0.34858 0.50491 0.84426 0.0
H121 H 0.37399 0.48261 0.65146 0.0
H122 H 0.33895 0.51343 0.65033 0.0
H123 H 0.33482 0.461 0.57011 0.0
O124 O 0.32175 0.49128 0.77218 0.0
O125 O 0.31722 0.46399 0.72772 0.0
O126 O 0.35577 0.45612 0.69383 0.0
C127 C 0.31059 0.47864 0.75552 0.0
H128 H 0.34081 0.43123 0.95448 0.0
H129 H 0.335 0.51456 0.49945 0.0
H130 H 0.39903 0.50289 0.66632 0.0
H131 H 0.37297 0.52569 0.86254 0.0
Co132 Co 0.01959 0.15227 0.308 0.0
C133 C 0.02034 0.1456 0.14036 0.0
C134 C 0.04561 0.15404 0.18345 0.0
C135 C 0.04693 0.15218 0.10555 0.0
N136 N 0.02899 0.14966 0.20546 0.0
N137 N 0.03101 0.14686 0.07855 0.0
H138 H 0.00637 0.14265 0.13717 0.0
H139 H 0.05599 0.15856 0.22146 0.0
C140 C 0.04891 0.12572 0.32231 0.0
O141 O 0.04338 0.1187 0.25797 0.0
N142 N 0.01008 0.15524 0.4097 0.0
C143 C 0.99273 0.15788 0.42536 0.0
C144 C 0.99013 0.1562 0.50243 0.0
C145 C 0.01788 0.1521 0.47783 0.0
N146 N 0.0059 0.15253 0.53522 0.0
C147 C 0.99004 0.13037 0.26084 0.0
C148 C -0.00153 0.10128 0.34973 0.0
C149 C 0.98258 0.10086 0.30795 0.0
C150 C 0.97844 0.11579 0.26309 0.0
C151 C 0.00922 0.11635 0.3483 0.0
N152 N 0.00557 0.13037 0.30118 0.0
H153 H 0.98599 0.14203 0.22943 0.0
H154 H 0.01998 0.11685 0.38859 0.0
H155 H 0.98245 0.15988 0.38318 0.0
H156 H 0.03169 0.14847 0.48502 0.0
O157 O 0.0023 0.16903 0.26989 0.0
O158 O 0.02927 0.17614 0.31074 0.0
O159 O 0.04089 0.13924 0.35032 0.0
C160 C 0.0141 0.18131 0.28273 0.0
H161 H 0.05868 0.1547 0.07157 0.0
H162 H 0.97751 0.15696 0.53193 0.0
H163 H 0.00255 0.09029 0.38546 0.0
H164 H 0.96601 0.11667 0.23226 0.0
Co165 Co 0.34004 0.0246 0.8398 0.0
C166 C 0.34627 0.02517 0.66907 0.0
C167 C 0.3494 0.05049 0.72367 0.0
C168 C 0.35208 0.05275 0.64711 0.0
N169 N 0.34632 0.03314 0.73844 0.0
N170 N 0.35014 0.03686 0.61275 0.0
H171 H 0.34311 0.0114 0.65888 0.0
H172 H 0.34928 0.06098 0.76584 0.0
C173 C 0.37416 0.04447 0.86396 0.0
O174 O 0.3811 0.03607 0.80537 0.0
N175 N 0.33349 0.01696 0.9414 0.0
C176 C 0.32804 0.00067 0.96353 0.0
C177 C 0.32836 -8e-05 0.04224 0.0
C178 C 0.33674 0.02593 1.00638 0.0
N179 N 0.33407 0.01577 0.06884 0.0
C180 C 0.35522 0.99137 0.78631 0.0
C181 C 0.38077 0.98932 0.89926 0.0
C182 C 0.37943 0.97549 0.84656 0.0
C183 C 0.36657 0.97658 0.78905 0.0
C184 C 0.36942 0.00386 0.89385 0.0
N185 N 0.35715 0.00511 0.8366 0.0
H186 H 0.34432 0.99125 0.74661 0.0
H187 H 0.37004 0.01371 0.93842 0.0
H188 H 0.32523 0.98976 0.92521 0.0
H189 H 0.34176 0.03939 1.00792 0.0
O190 O 0.31916 0.01285 0.79887 0.0
O191 O 0.32046 0.04087 0.83897 0.0
O192 O 0.35821 0.04124 0.88485 0.0
C193 C 0.31114 0.02804 0.80956 0.0
H194 H 0.35468 0.06524 0.61845 0.0
H195 H 0.32582 0.98825 0.07677 0.0
H196 H 0.39022 0.98868 0.94575 0.0
H197 H 0.36473 0.96572 0.74926 0.0
Co198 Co 0.47316 0.34317 0.37518 0.0
C199 C 0.47249 0.3437 0.2073 0.0
C200 C 0.44915 0.35617 0.25269 0.0
C201 C 0.44775 0.35571 0.1742 0.0
N202 N 0.46471 0.34865 0.27326 0.0
N203 N 0.46237 0.34769 0.14606 0.0
H204 H 0.48507 0.33675 0.20419 0.0
H205 H 0.43913 0.36095 0.29173 0.0
C206 C 0.45895 0.3736 0.46846 0.0
O207 O 0.47474 0.37581 0.49903 0.0
N208 N 0.48158 0.33694 0.47744 0.0
C209 C 0.4961 0.32698 0.49306 0.0
C210 C 0.49663 0.32326 0.56936 0.0
C211 C 0.47302 0.33832 0.54538 0.0
N212 N 0.48215 0.33037 0.60246 0.0
C213 C 0.50943 0.35588 0.36598 0.0
C214 C 0.5009 0.39042 0.3261 0.0
C215 C 0.51878 0.38584 0.33595 0.0
C216 C 0.52302 0.36832 0.35568 0.0
C217 C 0.48771 0.37766 0.33864 0.0
N218 N 0.49198 0.36076 0.36125 0.0
H219 H 0.51307 0.34225 0.37509 0.0
H220 H 0.47401 0.38136 0.32929 0.0
H221 H 0.5052 0.32154 0.45174 0.0
H222 H 0.45997 0.34409 0.55265 0.0
O223 O 0.4849 0.32216 0.3352 0.0
O224 O 0.4572 0.32324 0.37873 0.0
O225 O 0.4564 0.36149 0.41859 0.0
C226 C 0.46995 0.31394 0.34834 0.0
H227 H 0.43641 0.35993 0.14083 0.0
H228 H 0.50673 0.31547 0.59801 0.0
H229 H 0.49714 0.40376 0.30916 0.0
H230 H 0.53676 0.36414 0.36066 0.0
Co231 Co 0.15146 0.46937 0.83879 0.0
C232 C 0.15352 0.46607 0.66713 0.0
C233 C 0.15206 0.44106 0.72532 0.0
C234 C 0.15438 0.43779 0.6491 0.0
N235 N 0.15105 0.45878 0.73715 0.0
N236 N 0.15533 0.4535 0.61243 0.0
H237 H 0.1554 0.48005 0.65628 0.0
H238 H 0.15197 0.43109 0.76973 0.0
C239 C 0.12222 0.44263 0.85101 0.0
O240 O 0.11603 0.44875 0.78604 0.0
N241 N 0.1525 0.47902 0.94077 0.0
C242 C 0.15094 0.49608 0.96345 0.0
C243 C 0.15268 0.49668 0.04182 0.0
C244 C 0.15535 0.46956 1.00482 0.0
N245 N 0.15552 0.47998 0.06756 0.0
C246 C 0.13157 0.49674 0.76366 0.0
C247 C 0.10142 0.49467 0.85323 0.0
C248 C 0.10195 0.50708 0.79362 0.0
C249 C 0.11737 0.50814 0.74916 0.0
C250 C 0.11596 0.4834 0.86547 0.0
N251 N 0.13052 0.48397 0.81869 0.0
H252 H 0.14372 0.49885 0.73277 0.0
H253 H 0.11564 0.47453 0.91386 0.0
H254 H 0.14876 0.50726 0.92576 0.0
H255 H 0.15715 0.45527 1.00528 0.0
O256 O 0.16935 0.48603 0.80683 0.0
O257 O 0.17492 0.45911 0.85297 0.0
O258 O 0.13644 0.44918 0.87944 0.0
C259 C 0.18101 0.47411 0.82619 0.0
H260 H 0.15573 0.42482 0.62296 0.0
H261 H 0.15226 0.50852 0.07687 0.0
H262 H 0.08995 0.49372 0.89032 0.0
H263 H 0.11875 0.51817 0.70518 0.0
Co264 Co 0.97948 0.65622 0.8266 0.0
C265 C 0.97828 0.65087 0.65762 0.0
C266 C 0.95268 0.65695 0.70389 0.0
C267 C 0.95107 0.65525 0.62583 0.0
N268 N 0.96973 0.6539 0.72408 0.0
N269 N 0.96722 0.65131 0.59709 0.0
H270 H 0.99238 0.64917 0.65203 0.0
H271 H 0.94214 0.66033 0.74328 0.0
C272 C 0.95202 0.62772 0.84049 0.0
O273 O 0.9579 0.62107 0.77599 0.0
N274 N 0.98912 0.65888 0.92812 0.0
C275 C 0.00646 0.66148 0.94382 0.0
C276 C 0.00896 0.65999 0.02107 0.0
C277 C 0.98121 0.65601 0.99626 0.0
N278 N 0.99312 0.65652 0.05387 0.0
C279 C 0.00912 0.63623 0.76806 0.0
C280 C 0.00317 0.60554 0.8508 0.0
C281 C 0.01673 0.60568 0.79616 0.0
C282 C 0.01997 0.62145 0.75599 0.0
C283 C 0.99248 0.6206 0.86022 0.0
N284 N 0.99463 0.63525 0.81474 0.0
H285 H 0.01252 0.64854 0.74003 0.0
H286 H 0.98267 0.62044 0.90502 0.0
H287 H 0.01675 0.66342 0.90158 0.0
H288 H 0.96733 0.65258 1.00335 0.0
O289 O 0.99567 0.67423 0.79024 0.0
O290 O 0.96848 0.67945 0.83376 0.0
O291 O 0.95922 0.64166 0.86862 0.0
C292 C 0.98324 0.6857 0.80575 0.0
H293 H 0.93899 0.65675 0.59298 0.0
H294 H 0.02155 0.6608 0.05074 0.0
H295 H 0.0007 0.59385 0.88536 0.0
H296 H 0.03099 0.62244 0.71644 0.0
Co297 Co 0.83809 0.97387 0.32079 0.0
C298 C 0.84163 0.97048 0.15152 0.0
C299 C 0.84006 0.9453 0.20942 0.0
C300 C 0.84159 0.94218 0.13268 0.0
N301 N 0.84023 0.96298 0.22143 0.0
N302 N 0.84264 0.95795 0.09609 0.0
H303 H 0.84212 0.98469 0.14163 0.0
H304 H 0.83874 0.93535 0.25357 0.0
C305 C 0.86553 0.95576 0.41562 0.0
O306 O 0.86982 0.97165 0.44106 0.0
N307 N 0.83533 0.98402 0.42294 0.0
C308 C 0.83545 0.00104 0.44776 0.0
C309 C 0.83483 0.0011 0.52649 0.0
C310 C 0.83354 0.97417 0.48697 0.0
N311 N 0.83399 0.98413 0.551 0.0
C312 C 0.85739 0.0063 0.29177 0.0
C313 C 0.89054 0.99077 0.27864 0.0
C314 C 0.88925 0.00931 0.28292 0.0
C315 C 0.8724 0.01714 0.28536 0.0
C316 C 0.87512 0.98048 0.28336 0.0
N317 N 0.85905 0.98827 0.29829 0.0
H318 H 0.84445 0.01247 0.29316 0.0
H319 H 0.87626 0.96621 0.27822 0.0
H320 H 0.83627 0.01275 0.41262 0.0
H321 H 0.83287 0.95978 0.48678 0.0
O322 O 0.82025 0.98979 0.28243 0.0
O323 O 0.81475 0.96315 0.33177 0.0
O324 O 0.85321 0.95405 0.36571 0.0
C325 C 0.80865 0.97774 0.30116 0.0
H326 H 0.84163 0.92923 0.10572 0.0
H327 H 0.83593 0.01269 0.56281 0.0
H328 H 0.90337 0.98432 0.27378 0.0
H329 H 0.87091 0.03148 0.28616 0.0
Co330 Co 0.51611 0.83856 0.85225 0.0
C331 C 0.51303 0.84554 0.68731 0.0
C332 C 0.53912 0.85198 0.72791 0.0
C333 C 0.53883 0.85397 0.64971 0.0
N334 N 0.5229 0.84672 0.75133 0.0
N335 N 0.52242 0.84979 0.62396 0.0
H336 H 0.49949 0.84071 0.68718 0.0
H337 H 0.55058 0.85353 0.76446 0.0
C338 C 0.53299 0.86812 0.94345 0.0
O339 O 0.51729 0.87211 0.97163 0.0
N340 N 0.50937 0.82952 0.95414 0.0
C341 C 0.49721 0.81658 0.96748 0.0
C342 C 0.49455 0.81478 0.04438 0.0
C343 C 0.51466 0.83454 0.02509 0.0
N344 N 0.50538 0.8262 0.08065 0.0
C345 C 0.48098 0.8517 0.87671 0.0
C346 C 0.487 0.88655 0.83337 0.0
C347 C 0.47017 0.88171 0.86102 0.0
C348 C 0.46717 0.86395 0.88098 0.0
C349 C 0.50058 0.87378 0.83034 0.0
N350 N 0.49769 0.85679 0.85576 0.0
H351 H 0.47805 0.83802 0.88929 0.0
H352 H 0.51356 0.87769 0.80976 0.0
H353 H 0.48994 0.80932 0.92449 0.0
H354 H 0.52486 0.84412 0.03739 0.0
O355 O 0.50203 0.82048 0.8052 0.0
O356 O 0.5304 0.8172 0.83634 0.0
O357 O 0.53478 0.8549 0.89805 0.0
C358 C 0.51607 0.81046 0.80567 0.0
H359 H 0.55006 0.85775 0.61472 0.0
H360 H 0.48499 0.80607 0.07154 0.0
H361 H 0.48976 0.90012 0.81618 0.0
H362 H 0.45416 0.85948 0.89935 0.0
Co363 Co 0.66025 0.51687 0.38365 0.0
C364 C 0.66146 0.51883 0.21442 0.0
C365 C 0.64824 0.54158 0.26023 0.0
C366 C 0.64957 0.54364 0.1822 0.0
N367 N 0.65511 0.52563 0.28053 0.0
N368 N 0.65801 0.52932 0.15373 0.0
H369 H 0.66949 0.50697 0.21075 0.0
H370 H 0.64356 0.55163 0.29936 0.0
C371 C 0.62505 0.53462 0.40671 0.0
O372 O 0.61891 0.52596 0.34719 0.0
N373 N 0.66602 0.50835 0.48473 0.0
C374 C 0.67253 0.49206 0.50029 0.0
C375 C 0.67587 0.49092 0.57707 0.0
C376 C 0.66536 0.51694 0.55243 0.0
N377 N 0.67139 0.50653 0.60986 0.0
C378 C 0.64548 0.48543 0.31228 0.0
C379 C 0.61812 0.48076 0.41557 0.0
C380 C 0.61848 0.47029 0.34961 0.0
C381 C 0.63268 0.47235 0.29878 0.0
C382 C 0.63107 0.49387 0.42617 0.0
N383 N 0.64387 0.49687 0.37223 0.0
H384 H 0.65666 0.48625 0.27446 0.0
H385 H 0.63046 0.50201 0.47685 0.0
H386 H 0.67484 0.48177 0.45835 0.0
H387 H 0.66105 0.53059 0.55926 0.0
O388 O 0.68202 0.50625 0.34573 0.0
O389 O 0.67923 0.53386 0.38924 0.0
O390 O 0.64107 0.53235 0.4286 0.0
C391 C 0.68931 0.52168 0.35919 0.0
H392 H 0.6457 0.55526 0.14972 0.0
H393 H 0.6812 0.47946 0.60668 0.0
H394 H 0.60756 0.47932 0.45711 0.0
H395 H 0.63384 0.46396 0.24885 0.0
Co396 Co 0.97409 0.84357 0.68706 0.0
C397 C 0.97118 0.84285 0.85842 0.0
C398 C 0.94624 0.84706 0.80263 0.0
C399 C 0.94311 0.84501 0.87903 0.0
N400 N 0.9639 0.84626 0.78905 0.0
N401 N 0.95876 0.84228 0.91423 0.0
H402 H 0.9849 0.83917 0.86746 0.0
H403 H 0.93603 0.84774 0.75947 0.0
C404 C 0.94782 0.87269 0.66255 0.0
O405 O 0.9549 0.88072 0.72175 0.0
N406 N 0.98347 0.84011 0.58531 0.0
C407 C 0.00063 0.84011 0.56311 0.0
C408 C 0.00125 0.83799 0.48499 0.0
C409 C 0.97393 0.83772 0.52108 0.0
N410 N 0.98444 0.83646 0.45878 0.0
C411 C 0.00066 0.86648 0.75368 0.0
C412 C 0.00158 0.89051 0.63441 0.0
C413 C 0.01426 0.89187 0.69236 0.0
C414 C 0.01344 0.88001 0.75365 0.0
C415 C 0.98883 0.87705 0.63737 0.0
N416 N 0.98853 0.86506 0.69613 0.0
H417 H 0.00144 0.85649 0.79725 0.0
H418 H 0.9799 0.87558 0.5896 0.0
H419 H 0.01186 0.84181 0.60091 0.0
H420 H 0.95955 0.8373 0.5199 0.0
O421 O 0.99105 0.82666 0.72536 0.0
O422 O 0.96399 0.81987 0.68379 0.0
O423 O 0.95365 0.85747 0.64161 0.0
C424 C 0.97914 0.81452 0.71174 0.0
H425 H 0.93018 0.84473 0.90613 0.0
H426 H 0.01314 0.83748 0.4503 0.0
H427 H 0.00201 0.89931 0.58552 0.0
H428 H 0.02337 0.88038 0.79832 0.0
Co429 Co 0.65005 0.97459 0.19585 0.0
C430 C 0.652 0.97113 0.36728 0.0
C431 C 0.64719 0.94641 0.3104 0.0
C432 C 0.6493 0.94304 0.38666 0.0
N433 N 0.64832 0.9641 0.29771 0.0
N434 N 0.65234 0.95857 0.42251 0.0
H435 H 0.65592 0.98474 0.37719 0.0
H436 H 0.64595 0.93637 0.26667 0.0
C437 C 0.61952 0.94946 0.17725 0.0
O438 O 0.61254 0.95638 0.23919 0.0
N439 N 0.65242 0.98412 0.0939 0.0
C440 C 0.65233 0.00125 0.07126 0.0
C441 C 0.65432 0.00174 0.99297 0.0
C442 C 0.65467 0.97448 0.02986 0.0
N443 N 0.65584 0.98488 0.96717 0.0
C444 C 0.63024 0.00207 0.27094 0.0
C445 C 0.602 0.00306 0.17039 0.0
C446 C 0.6021 0.01465 0.23288 0.0
C447 C 0.61647 0.01411 0.28326 0.0
C448 C 0.61595 0.9909 0.1611 0.0
N449 N 0.6296 0.9901 0.21259 0.0
H450 H 0.64178 0.00301 0.30657 0.0
H451 H 0.61596 0.9824 0.11146 0.0
H452 H 0.65089 0.01255 0.10891 0.0
H453 H 0.65524 0.96009 0.02931 0.0
O454 O 0.66828 0.99055 0.23044 0.0
O455 O 0.67316 0.96336 0.18556 0.0
O456 O 0.63456 0.95501 0.15288 0.0
C457 C 0.6796 0.97813 0.21315 0.0
H458 H 0.64918 0.93004 0.41332 0.0
H459 H 0.65488 0.01359 0.958 0.0
H460 H 0.59128 0.0034 0.12924 0.0
H461 H 0.61736 0.02338 0.33038 0.0
Co462 Co 0.52017 0.6547 0.65057 0.0
C463 C 0.52689 0.66189 0.81621 0.0
C464 C 0.53719 0.63667 0.77961 0.0
C465 C 0.53897 0.6378 0.85737 0.0
N466 N 0.52957 0.65174 0.75334 0.0
N467 N 0.53248 0.65362 0.88031 0.0
H468 H 0.51984 0.67444 0.81631 0.0
H469 H 0.54013 0.62506 0.74558 0.0
C470 C 0.54195 0.62947 0.55019 0.0
O471 O 0.53102 0.63149 0.49269 0.0
N472 N 0.51043 0.65787 0.54856 0.0
C473 C 0.494 0.65323 0.52487 0.0
C474 C 0.49263 0.65658 0.44805 0.0
C475 C 0.51841 0.66508 0.48655 0.0
N476 N 0.50798 0.66392 0.42405 0.0
C477 C 0.49206 0.63818 0.73238 0.0
C478 C 0.49087 0.60645 0.65314 0.0
C479 C 0.47939 0.60888 0.71517 0.0
C480 C 0.48005 0.62503 0.75482 0.0
C481 C 0.5028 0.6199 0.63297 0.0
N482 N 0.50339 0.63554 0.67262 0.0
H483 H 0.49241 0.65051 0.76392 0.0
H484 H 0.51118 0.61763 0.58477 0.0
H485 H 0.48379 0.64737 0.56021 0.0
H486 H 0.53208 0.66961 0.48573 0.0
O487 O 0.50566 0.6744 0.68191 0.0
O488 O 0.53341 0.67673 0.63941 0.0
O489 O 0.53915 0.63739 0.61371 0.0
C490 C 0.51905 0.68452 0.66416 0.0
H491 H 0.54395 0.62747 0.89469 0.0
H492 H 0.48143 0.65331 0.41188 0.0
H493 H 0.49081 0.59415 0.62098 0.0
H494 H 0.47126 0.62758 0.80245 0.0
Co495 Co 0.844 0.52637 0.18601 0.0
C496 C 0.84339 0.52978 0.35546 0.0
C497 C 0.85014 0.55424 0.2989 0.0
C498 C 0.84886 0.55749 0.37571 0.0
N499 N 0.84673 0.53692 0.28603 0.0
N500 N 0.84453 0.54217 0.41133 0.0
H501 H 0.83932 0.51612 0.36441 0.0
H502 H 0.85264 0.56405 0.25513 0.0
C503 C 0.87409 0.54098 0.09303 0.0
O504 O 0.87638 0.52516 0.06272 0.0
N505 N 0.8409 0.51646 0.08396 0.0
C506 C 0.84092 0.49943 0.05939 0.0
C507 C 0.83885 0.49928 0.98127 0.0
C508 C 0.83833 0.52631 0.02037 0.0
N509 N 0.8373 0.51622 0.95669 0.0
C510 C 0.85628 0.49171 0.229 0.0
C511 C 0.89159 0.50065 0.24983 0.0
C512 C 0.88632 0.48296 0.26065 0.0
C513 C 0.86834 0.47861 0.25137 0.0
C514 C 0.87901 0.51339 0.22851 0.0
N515 N 0.86178 0.50865 0.2138 0.0
H516 H 0.84243 0.48814 0.22381 0.0
H517 H 0.88317 0.5271 0.22574 0.0
H518 H 0.8423 0.48776 0.09437 0.0
H519 H 0.83791 0.54071 0.02075 0.0
O520 O 0.82279 0.51419 0.22024 0.0
O521 O 0.82347 0.5412 0.1694 0.0
O522 O 0.86238 0.54339 0.14477 0.0
C523 C 0.81418 0.52842 0.19973 0.0
H524 H 0.85056 0.57027 0.40315 0.0
H525 H 0.83841 0.48756 0.94552 0.0
H526 H 0.90524 0.50467 0.25955 0.0
H527 H 0.86365 0.46515 0.2605 0.0
H528 H 0.97067 0.42083 0.19481 0.0
H529 H 0.94997 0.38697 0.37429 0.0
H530 H 0.92673 0.40922 0.40232 0.0
H531 H 0.961 0.46423 0.28997 0.0
H532 H 0.95482 0.47467 0.20138 0.0
H533 H 0.97124 0.4572 0.2021 0.0
H534 H 0.95269 0.43955 0.10331 0.0
H535 H 0.93619 0.45687 0.10262 0.0
H536 H 0.92981 0.4343 0.12416 0.0
H537 H 0.90387 0.43321 0.40114 0.0
H538 H 0.8832 0.45788 0.37268 0.0
H539 H 0.91866 0.47645 0.19462 0.0
C540 C 0.96155 0.41838 0.24142 0.0
C541 C 0.9621 0.40223 0.28255 0.0
C542 C 0.94969 0.39924 0.34192 0.0
C543 C 0.93652 0.41183 0.3585 0.0
C544 C 0.93599 0.4274 0.31547 0.0
C545 C 0.94825 0.43081 0.25853 0.0
C546 C 0.94385 0.44793 0.21689 0.0
C547 C 0.95861 0.46183 0.2283 0.0
C548 C 0.94043 0.44444 0.13173 0.0
C549 C 0.92695 0.4533 0.25786 0.0
C550 C 0.92275 0.44135 0.31499 0.0
C551 C 0.90714 0.44281 0.35735 0.0
C552 C 0.89544 0.45678 0.3405 0.0
C553 C 0.8994 0.46908 0.28179 0.0
C554 C 0.91549 0.46742 0.2408 0.0
H555 H 0.08312 0.96906 0.80441 0.0
H556 H 0.11248 0.95468 0.60081 0.0
H557 H 0.09029 0.93144 0.57179 0.0
H558 H 0.07086 0.92356 0.85507 0.0
H559 H 0.04922 0.92972 0.89052 0.0
H560 H 0.06735 0.94536 0.89525 0.0
H561 H 0.04852 0.96844 0.82099 0.0
H562 H 0.03038 0.95283 0.81558 0.0
H563 H 0.03931 0.96249 0.72967 0.0
H564 H 0.06435 0.91114 0.56054 0.0
H565 H 0.03756 0.89241 0.57491 0.0
H566 H 0.02571 0.91812 0.79016 0.0
C567 C 0.08485 0.96092 0.75406 0.0
C568 C 0.09948 0.96356 0.70479 0.0
C569 C 0.10143 0.95268 0.63951 0.0
C570 C 0.08886 0.93955 0.62236 0.0
C571 C 0.07453 0.93731 0.67166 0.0
C572 C 0.07256 0.94746 0.73682 0.0
C573 C 0.05614 0.94189 0.78104 0.0
C574 C 0.0612 0.9347 0.86016 0.0
C575 C 0.0428 0.95733 0.78715 0.0
C576 C 0.04911 0.92719 0.73002 0.0
C577 C 0.05986 0.92496 0.66682 0.0
C578 C 0.0559 0.91264 0.61004 0.0
C579 C 0.04064 0.90216 0.61842 0.0
C580 C 0.02967 0.9039 0.68348 0.0
C581 C 0.03397 0.91655 0.74007 0.0
H582 H 0.5896 0.03958 0.1321 0.0
H583 H 0.58276 0.01958 0.362 0.0
H584 H 0.56017 0.04279 0.38688 0.0
H585 H 0.58638 0.08567 0.18091 0.0
H586 H 0.57454 0.09196 0.09579 0.0
H587 H 0.58943 0.07319 0.09416 0.0
H588 H 0.564 0.05292 0.04533 0.0
H589 H 0.54907 0.07167 0.04607 0.0
H590 H 0.54345 0.05175 0.09806 0.0
H591 H 0.53844 0.06794 0.38678 0.0
H592 H 0.51905 0.0939 0.36225 0.0
H593 H 0.54102 0.09873 0.13477 0.0
C594 C 0.58311 0.03998 0.18718 0.0
C595 C 0.58772 0.02776 0.24506 0.0
C596 C 0.57931 0.02884 0.31705 0.0
C597 C 0.5665 0.04195 0.33162 0.0
C598 C 0.56242 0.05397 0.27381 0.0
C599 C 0.57048 0.05316 0.20306 0.0
C600 C 0.56409 0.06811 0.15188 0.0
C601 C 0.57953 0.08046 0.12939 0.0
C602 C 0.55458 0.06066 0.08116 0.0
C603 C 0.55116 0.0774 0.20486 0.0
C604 C 0.55034 0.06894 0.27474 0.0
C605 C 0.53902 0.07473 0.33246 0.0
C606 C 0.52808 0.08944 0.31811 0.0
C607 C 0.52871 0.0983 0.247 0.0
C608 C 0.54053 0.09231 0.19 0.0
H609 H 0.40538 0.53416 0.65321 0.0
H610 H 0.40418 0.52732 0.89881 0.0
H611 H 0.42761 0.55014 0.91222 0.0
H612 H 0.45315 0.54034 0.63711 0.0
H613 H 0.45121 0.55672 0.56249 0.0
H614 H 0.43456 0.53963 0.57232 0.0
H615 H 0.41005 0.56378 0.58137 0.0
H616 H 0.42662 0.58094 0.5718 0.0
H617 H 0.41184 0.58096 0.65266 0.0
H618 H 0.45061 0.57423 0.89904 0.0
H619 H 0.47194 0.59753 0.85993 0.0
H620 H 0.45834 0.58825 0.62294 0.0
C621 C 0.41022 0.53723 0.70978 0.0
C622 C 0.40294 0.52892 0.775 0.0
C623 C 0.40942 0.53364 0.84809 0.0
C624 C 0.42279 0.54651 0.85626 0.0
C625 C 0.42958 0.5545 0.79081 0.0
C626 C 0.42357 0.55001 0.71897 0.0
C627 C 0.43289 0.56078 0.65791 0.0
C628 C 0.44359 0.54864 0.60431 0.0
C629 C 0.41955 0.5723 0.61334 0.0
C630 C 0.44502 0.5721 0.70669 0.0
C631 C 0.44291 0.56829 0.78318 0.0
C632 C 0.45242 0.5773 0.83929 0.0
C633 C 0.46441 0.59057 0.81658 0.0
C634 C 0.4668 0.59469 0.73844 0.0
C635 C 0.45698 0.58524 0.68301 0.0
H636 H 0.90237 0.03573 0.18996 0.0
H637 H 0.91171 0.00777 0.40226 0.0
H638 H 0.9369 0.02783 0.43066 0.0
H639 H 0.94994 0.04293 0.14631 0.0
H640 H 0.94608 0.06451 0.10458 0.0
H641 H 0.92907 0.04764 0.09998 0.0
H642 H 0.90678 0.06931 0.16376 0.0
H643 H 0.92376 0.08616 0.1693 0.0
H644 H 0.91228 0.07917 0.25438 0.0
H645 H 0.95834 0.05275 0.44284 0.0
H646 H 0.97793 0.07855 0.43167 0.0
H647 H 0.95783 0.08834 0.2028 0.0
C648 C 0.90994 0.03376 0.24174 0.0
C649 C 0.90528 0.02027 0.29407 0.0
C650 C 0.9153 0.01798 0.36146 0.0
C651 C 0.92953 0.02934 0.37812 0.0
C652 C 0.93371 0.04267 0.326 0.0
C653 C 0.92451 0.04473 0.25841 0.0
C654 C 0.932 0.06005 0.21215 0.0
C655 C 0.93973 0.05338 0.13626 0.0
C656 C 0.91786 0.07453 0.19916 0.0
C657 C 0.94655 0.06651 0.26524 0.0
C658 C 0.94712 0.05637 0.33078 0.0
C659 C 0.95846 0.06046 0.39074 0.0
C660 C 0.96975 0.07514 0.38321 0.0
C661 C 0.97007 0.08543 0.3152 0.0
C662 C 0.95815 0.08093 0.25562 0.0
H663 H 0.45879 0.90752 0.7602 0.0
H664 H 0.44897 0.8856 0.98517 0.0
H665 H 0.42381 0.9062 1.00215 0.0
H666 H 0.44856 0.95319 0.80815 0.0
H667 H 0.43795 0.95792 0.71834 0.0
H668 H 0.45523 0.94137 0.72345 0.0
H669 H 0.43387 0.91811 0.66426 0.0
H670 H 0.41646 0.93455 0.6597 0.0
H671 H 0.41272 0.91385 0.70908 0.0
H672 H 0.4003 0.92912 0.99678 0.0
H673 H 0.37991 0.95414 0.97041 0.0
H674 H 0.40405 0.96129 0.74813 0.0
C675 C 0.4514 0.9072 0.81315 0.0
C676 C 0.45574 0.89491 0.87126 0.0
C677 C 0.44571 0.89476 0.9396 0.0
C678 C 0.43142 0.90641 0.94983 0.0
C679 C 0.42728 0.91814 0.89113 0.0
C680 C 0.43696 0.91872 0.8242 0.0
C681 C 0.42964 0.93277 0.77061 0.0
C682 C 0.44368 0.94717 0.7542 0.0
C683 C 0.42276 0.92431 0.69653 0.0
C684 C 0.41447 0.94006 0.8183 0.0
C685 C 0.41339 0.93135 0.88753 0.0
C686 C 0.40092 0.93599 0.94265 0.0
C687 C 0.38942 0.95016 0.92724 0.0
C688 C 0.39042 0.95943 0.85722 0.0
C689 C 0.40291 0.95416 0.80155 0.0
H690 H 0.60335 0.44515 0.44335 0.0
H691 H 0.60017 0.46778 0.2164 0.0
H692 H 0.57444 0.44845 0.18763 0.0
H693 H 0.59202 0.3999 0.38702 0.0
H694 H 0.5794 0.39552 0.47232 0.0
H695 H 0.59767 0.41102 0.47473 0.0
H696 H 0.57668 0.43539 0.52791 0.0
H697 H 0.55834 0.41998 0.5254 0.0
H698 H 0.55673 0.44099 0.47628 0.0
H699 H 0.54798 0.4281 0.18638 0.0
H700 H 0.52403 0.40609 0.20907 0.0
H701 H 0.54535 0.39545 0.43397 0.0
C702 C 0.59724 0.44595 0.38759 0.0
C703 C 0.6037 0.45792 0.33198 0.0
C704 C 0.59549 0.45856 0.25944 0.0
C705 C 0.58084 0.44771 0.24275 0.0
C706 C 0.5747 0.43615 0.29894 0.0
C707 C 0.58276 0.43501 0.36956 0.0
C708 C 0.57366 0.42128 0.41938 0.0
C709 C 0.58645 0.40603 0.43952 0.0
C710 C 0.56589 0.42994 0.4915 0.0
C711 C 0.5591 0.41505 0.36608 0.0
C712 C 0.55985 0.4239 0.29711 0.0
C713 C 0.54736 0.42095 0.23983 0.0
C714 C 0.53379 0.40852 0.25325 0.0
C715 C 0.53299 0.39909 0.32293 0.0
C716 C 0.54584 0.40237 0.37986 0.0
H717 H 0.03289 0.58378 0.90074 0.0
H718 H 0.02536 0.59164 0.65802 0.0
H719 H 0.04445 0.56561 0.63161 0.0
H720 H 0.07831 0.57237 0.89015 0.0
H721 H 0.0775 0.55594 0.96494 0.0
H722 H 0.06199 0.57418 0.96504 0.0
H723 H 0.03572 0.55188 0.96923 0.0
H724 H 0.05117 0.53354 0.96898 0.0
H725 H 0.03406 0.53483 0.89731 0.0
H726 H 0.06541 0.53992 0.63109 0.0
H727 H 0.088 0.51685 0.65616 0.0
H728 H 0.08253 0.5259 0.89927 0.0
C729 C 0.03503 0.5798 0.84215 0.0
C730 C 0.02763 0.58964 0.78132 0.0
C731 C 0.03101 0.58431 0.70532 0.0
C732 C 0.04172 0.56949 0.68982 0.0
C733 C 0.04895 0.56017 0.75097 0.0
C734 C 0.04582 0.56511 0.82563 0.0
C735 C 0.05616 0.55349 0.88058 0.0
C736 C 0.06927 0.56466 0.92794 0.0
C737 C 0.04352 0.5428 0.93206 0.0
C738 C 0.06582 0.54145 0.82505 0.0
C739 C 0.06131 0.54542 0.75065 0.0
C740 C 0.06899 0.53662 0.68911 0.0
C741 C 0.08187 0.52361 0.7039 0.0
C742 C 0.08703 0.51958 0.77961 0.0
C743 C 0.07865 0.52847 0.84088 0.0
H744 H 0.03528 0.38798 0.96438 0.0
H745 H 0.06359 0.36952 0.16484 0.0
H746 H 0.09051 0.38549 0.12166 0.0
H747 H 0.07268 0.38439 0.83395 0.0
H748 H 0.06645 0.40399 0.78109 0.0
H749 H 0.04964 0.39076 0.8273 0.0
H750 H 0.03851 0.41863 0.90002 0.0
H751 H 0.0553 0.43195 0.85424 0.0
H752 H 0.05397 0.4313 0.95674 0.0
H753 H 0.11387 0.40477 0.05951 0.0
H754 H 0.13204 0.42535 0.98202 0.0
H755 H 0.08862 0.43035 0.82042 0.0
C756 C 0.04713 0.38729 0.99929 0.0
C757 C 0.04731 0.37759 0.06826 0.0
C758 C 0.06315 0.37686 0.1118 0.0
C759 C 0.0785 0.38589 0.08773 0.0
C760 C 0.07785 0.39539 0.01956 0.0
C761 C 0.0626 0.39605 0.97573 0.0
C762 C 0.06534 0.40727 0.90502 0.0
C763 C 0.06342 0.39592 0.83255 0.0
C764 C 0.05252 0.42323 0.904 0.0
C765 C 0.08439 0.41317 0.91674 0.0
C766 C 0.0914 0.40613 0.98298 0.0
C767 C 0.10857 0.41023 1.00716 0.0
C768 C 0.11879 0.42194 0.96277 0.0
C769 C 0.11181 0.42939 0.89488 0.0
C770 C 0.09443 0.42475 0.87151 0.0
H771 H 0.10388 0.04056 0.45643 0.0
H772 H 0.11806 0.07022 0.65979 0.0
H773 H 0.10157 0.09623 0.61147 0.0
H774 H 0.10807 0.07707 0.32597 0.0
H775 H 0.08946 0.07039 0.26797 0.0
H776 H 0.10209 0.05389 0.31906 0.0
H777 H 0.07335 0.04268 0.38507 0.0
H778 H 0.0606 0.05902 0.33363 0.0
H779 H 0.05955 0.05826 0.43618 0.0
H780 H 0.08343 0.11899 0.54156 0.0
H781 H 0.0642 0.13661 0.4561 0.0
H782 H 0.06245 0.09236 0.2971 0.0
C783 C 0.10338 0.05247 0.49113 0.0
C784 C 0.11222 0.05334 0.56199 0.0
C785 C 0.11142 0.06924 0.60525 0.0
C786 C 0.1021 0.08411 0.57828 0.0
C787 C 0.09374 0.08289 0.50775 0.0
C788 C 0.09425 0.06748 0.4648 0.0
C789 C 0.0842 0.06972 0.39068 0.0
C790 C 0.09671 0.06765 0.32187 0.0
C791 C 0.06849 0.05665 0.38617 0.0
C792 C 0.07786 0.08875 0.399 0.0
C793 C 0.08352 0.09612 0.46687 0.0
C794 C 0.07896 0.11339 0.48808 0.0
C795 C 0.06805 0.12331 0.43911 0.0
C796 C 0.06187 0.11591 0.36976 0.0
C797 C 0.06709 0.09848 0.34927 0.0
H798 H 0.45906 0.10392 0.96832 0.0
H799 H 0.42798 0.12476 0.15691 0.0
H800 H 0.40287 0.10565 0.11994 0.0
H801 H 0.42273 0.10164 0.83517 0.0
H802 H 0.43026 0.08132 0.7912 0.0
H803 H 0.44611 0.09639 0.8331 0.0
H804 H 0.45815 0.07091 0.91824 0.0
H805 H 0.44235 0.05574 0.87661 0.0
H806 H 0.443 0.05873 0.97847 0.0
H807 H 0.38123 0.08464 0.06388 0.0
H808 H 0.36384 0.06297 0.99026 0.0
H809 H 0.40851 0.05557 0.83626 0.0
C810 C 0.44701 0.10437 1.00206 0.0
C811 C 0.44551 0.11579 0.06571 0.0
C812 C 0.42945 0.11615 0.10791 0.0
C813 C 0.4151 0.10533 0.08746 0.0
C814 C 0.41698 0.09428 0.02441 0.0
C815 C 0.43246 0.09372 0.98207 0.0
C816 C 0.43076 0.08085 0.91598 0.0
C817 C 0.43257 0.09064 0.83934 0.0
C818 C 0.44437 0.06566 0.92277 0.0
C819 C 0.41195 0.07419 0.92839 0.0
C820 C 0.4043 0.08216 0.99128 0.0
C821 C 0.38705 0.07828 0.01449 0.0
C822 C 0.37728 0.06591 0.97222 0.0
C823 C 0.3848 0.0575 0.9075 0.0
C824 C 0.40239 0.06174 0.88547 0.0
H825 H 0.40489 0.43884 0.74405 0.0
H826 H 0.36021 0.43324 0.58905 0.0
H827 H 0.37792 0.41285 0.50929 0.0
H828 H 0.43868 0.43939 0.60202 0.0
H829 H 0.45449 0.42682 0.65732 0.0
H830 H 0.43811 0.44036 0.70463 0.0
H831 H 0.42727 0.4129 0.78098 0.0
H832 H 0.44365 0.39926 0.73406 0.0
H833 H 0.42049 0.39312 0.73061 0.0
H834 H 0.40044 0.39354 0.44531 0.0
H835 H 0.42635 0.37642 0.40094 0.0
H836 H 0.45678 0.39494 0.59566 0.0
C837 C 0.39875 0.4332 0.69375 0.0
C838 C 0.38112 0.4376 0.673 0.0
C839 C 0.37367 0.43005 0.60629 0.0
C840 C 0.38362 0.41845 0.56056 0.0
C841 C 0.401 0.41455 0.58221 0.0
C842 C 0.40852 0.42164 0.64726 0.0
C843 C 0.42763 0.41556 0.65664 0.0
C844 C 0.44048 0.43148 0.65503 0.0
C845 C 0.42988 0.40456 0.72992 0.0
C846 C 0.4297 0.40407 0.5863 0.0
C847 C 0.41414 0.4036 0.54449 0.0
C848 C 0.4127 0.3938 0.47753 0.0
C849 C 0.42753 0.38412 0.45276 0.0
C850 C 0.44366 0.3844 0.4945 0.0
C851 C 0.44471 0.39458 0.56206 0.0
H852 H 0.89525 0.54287 0.96584 0.0
H853 H 0.87728 0.57362 0.16066 0.0
H854 H 0.89464 0.59939 0.11536 0.0
H855 H 0.93972 0.56036 0.95906 0.0
H856 H 0.94068 0.56064 0.85645 0.0
H857 H 0.92689 0.54458 0.90459 0.0
H858 H 0.89955 0.55554 0.82791 0.0
H859 H 0.91324 0.57171 0.77983 0.0
H860 H 0.89361 0.57878 0.83045 0.0
H861 H 0.91427 0.62166 0.0502 0.0
H862 H 0.9349 0.63891 0.96949 0.0
H863 H 0.9395 0.59391 0.81547 0.0
C864 C 0.89504 0.55499 0.99924 0.0
C865 C 0.88495 0.55621 0.06694 0.0
C866 C 0.88489 0.57237 0.10857 0.0
C867 C 0.89471 0.58709 0.08332 0.0
C868 C 0.90441 0.58548 0.0161 0.0
C869 C 0.90465 0.56986 0.97456 0.0
C870 C 0.91611 0.57168 0.904 0.0
C871 C 0.93178 0.55854 0.9062 0.0
C872 C 0.90496 0.56929 0.83126 0.0
C873 C 0.92238 0.59072 0.91272 0.0
C874 C 0.91548 0.59844 0.97776 0.0
C875 C 0.9197 0.6158 0.99891 0.0
C876 C 0.93143 0.62548 0.95268 0.0
C877 C 0.93876 0.6178 0.88597 0.0
C878 C 0.934 0.60023 0.86563 0.0
H879 H 0.93431 0.90608 0.68525 0.0
H880 H 0.92916 0.85957 0.5402 0.0
H881 H 0.90618 0.8751 0.46453 0.0
H882 H 0.88747 0.91908 0.68346 0.0
H883 H 0.89267 0.94249 0.68138 0.0
H884 H 0.90763 0.92711 0.72708 0.0
H885 H 0.9334 0.93844 0.64136 0.0
H886 H 0.91845 0.95374 0.59533 0.0
H887 H 0.93086 0.93795 0.53923 0.0
H888 H 0.88434 0.89642 0.40179 0.0
H889 H 0.86648 0.92195 0.35551 0.0
H890 H 0.88683 0.95426 0.54094 0.0
C891 C 0.92823 0.89904 0.63818 0.0
C892 C 0.93349 0.88156 0.61894 0.0
C893 C 0.92531 0.87294 0.55625 0.0
C894 C 0.91221 0.88164 0.513 0.0
C895 C 0.90745 0.89894 0.53322 0.0
C896 C 0.91522 0.90752 0.59441 0.0
C897 C 0.90845 0.92638 0.60231 0.0
C898 C 0.89846 0.9289 0.67805 0.0
C899 C 0.9237 0.93992 0.59403 0.0
C900 C 0.89588 0.92721 0.53525 0.0
C901 C 0.89527 0.91122 0.49649 0.0
C902 C 0.88468 0.90898 0.43192 0.0
C903 C 0.87457 0.92352 0.40609 0.0
C904 C 0.87534 0.94009 0.44439 0.0
C905 C 0.88604 0.94181 0.51007 0.0
H906 H 0.58565 0.93733 0.2033 0.0
H907 H 0.63109 0.93035 0.05358 0.0
H908 H 0.61435 0.90787 0.98004 0.0
H909 H 0.57121 0.89102 0.20444 0.0
H910 H 0.54795 0.89678 0.20442 0.0
H911 H 0.56391 0.91151 0.24774 0.0
H912 H 0.55285 0.93734 0.16185 0.0
H913 H 0.53691 0.92266 0.11823 0.0
H914 H 0.5527 0.9345 0.05985 0.0
H915 H 0.59228 0.88641 0.92125 0.0
H916 H 0.56633 0.86865 0.87962 0.0
H917 H 0.53529 0.89052 0.06593 0.0
C918 C 0.59218 0.93097 0.15552 0.0
C919 C 0.60973 0.93556 0.1345 0.0
C920 C 0.61768 0.92703 0.07098 0.0
C921 C 0.60829 0.91421 0.0289 0.0
C922 C 0.59096 0.91009 0.05094 0.0
C923 C 0.58298 0.91823 0.11274 0.0
C924 C 0.56399 0.91196 0.12288 0.0
C925 C 0.56164 0.90224 0.1994 0.0
C926 C 0.55084 0.92754 0.11521 0.0
C927 C 0.56244 0.8992 0.05652 0.0
C928 C 0.57818 0.89812 0.01616 0.0
C929 C 0.57989 0.88715 0.95249 0.0
C930 C 0.5651 0.8771 0.92929 0.0
C931 C 0.54876 0.87826 0.9692 0.0
C932 C 0.54754 0.88942 0.03379 0.0
H933 H 0.59453 0.54994 0.35296 0.0
H934 H 0.63078 0.55033 0.54534 0.0
H935 H 0.61329 0.57446 0.60482 0.0
H936 H 0.58887 0.59669 0.34217 0.0
H937 H 0.5657 0.59559 0.31625 0.0
H938 H 0.58044 0.57764 0.29122 0.0
H939 H 0.5599 0.5552 0.36103 0.0
H940 H 0.54503 0.57308 0.38575 0.0
H941 H 0.55412 0.55904 0.45936 0.0
H942 H 0.59202 0.59917 0.64172 0.0
H943 H 0.56876 0.62235 0.6525 0.0
H944 H 0.54734 0.60599 0.43367 0.0
C945 C 0.59867 0.55492 0.40807 0.0
C946 C 0.61397 0.54822 0.44467 0.0
C947 C 0.61909 0.55529 0.51625 0.0
C948 C 0.60924 0.56898 0.55052 0.0
C949 C 0.59437 0.57549 0.51228 0.0
C950 C 0.58911 0.56867 0.44265 0.0
C951 C 0.57301 0.57837 0.412 0.0
C952 C 0.57727 0.58762 0.33592 0.0
C953 C 0.55708 0.56566 0.40411 0.0
C954 C 0.57007 0.59175 0.47505 0.0
C955 C 0.58243 0.58986 0.53266 0.0
C956 C 0.58226 0.60077 0.59694 0.0
C957 C 0.56902 0.6139 0.60254 0.0
C958 C 0.55626 0.61604 0.54391 0.0
C959 C 0.55693 0.60481 0.47941 0.0
H960 H 0.03557 0.28462 0.21577 0.0
H961 H 0.97855 0.29277 0.20084 0.0
H962 H 0.97364 0.26054 0.21683 0.0
H963 H 0.03716 0.24188 0.11813 0.0
H964 H 0.05385 0.23274 0.18058 0.0
H965 H 0.05307 0.25637 0.16342 0.0
H966 H 0.05085 0.26208 0.3087 0.0
H967 H 0.05158 0.23848 0.32629 0.0
H968 H 0.03337 0.25155 0.36267 0.0
H969 H 0.9747 0.22775 0.23423 0.0
H970 H 0.98161 0.1962 0.25917 0.0
H971 H 0.03784 0.20903 0.27044 0.0
C972 C 0.02209 0.27953 0.21504 0.0
C973 C 0.00743 0.2911 0.20658 0.0
C974 C 0.98996 0.28409 0.20729 0.0
C975 C 0.98703 0.26582 0.2161 0.0
C976 C 0.00171 0.25475 0.22502 0.0
C977 C 0.0189 0.26129 0.22516 0.0
C978 C 0.03221 0.24651 0.23968 0.0
C979 C 0.04482 0.24424 0.17137 0.0
C980 C 0.04261 0.24986 0.31374 0.0
C981 C 0.0198 0.2307 0.24759 0.0
C982 C 0.00228 0.23578 0.23812 0.0
C983 C 0.98835 0.22359 0.24192 0.0
C984 C 0.99242 0.20571 0.25599 0.0
C985 C 0.01023 0.20021 0.26698 0.0
C986 C 0.02408 0.2129 0.26275 0.0
H987 H 0.28444 0.00322 0.79251 0.0
H988 H 0.29578 0.05977 0.77816 0.0
H989 H 0.26455 0.06565 0.74419 0.0
H990 H 0.25233 0.00131 0.63743 0.0
H991 H 0.23795 0.98573 0.68548 0.0
H992 H 0.26148 0.98567 0.70478 0.0
H993 H 0.2551 0.98977 0.8488 0.0
H994 H 0.23156 0.98985 0.82994 0.0
H995 H 0.24162 0.00823 0.87992 0.0
H996 H 0.23253 0.06566 0.7124 0.0
H997 H 0.20069 0.06 0.69062 0.0
H998 H 0.20912 0.00361 0.7313 0.0
C999 C 0.28032 0.01679 0.78146 0.0
C1000 C 0.29248 0.03105 0.78757 0.0
C1001 C 0.28663 0.04867 0.77392 0.0
C1002 C 0.26896 0.05215 0.75434 0.0
C1003 C 0.25724 0.03787 0.74937 0.0
C1004 C 0.26258 0.02055 0.76296 0.0
C1005 C 0.24698 0.00781 0.75707 0.0
C1006 C 0.24986 0.99434 0.69232 0.0
C1007 C 0.24362 -0.00164 0.83349 0.0
C1008 C 0.23211 0.02072 0.73821 0.0
C1009 C 0.23843 0.03795 0.73335 0.0
C1010 C 0.22738 0.05224 0.7161 0.0
C1011 C 0.20932 0.04888 0.70372 0.0
C1012 C 0.20245 0.03138 0.70943 0.0
C1013 C 0.21401 0.01713 0.7269 0.0
H1014 H 0.49513 0.28809 0.32118 0.0
H1015 H 0.43822 0.29771 0.3248 0.0
H1016 H 0.43282 0.26685 0.2835 0.0
H1017 H 0.49594 0.25918 0.15733 0.0
H1018 H 0.51251 0.24436 0.19579 0.0
H1019 H 0.51217 0.2674 0.22422 0.0
H1020 H 0.51011 0.25796 0.36597 0.0
H1021 H 0.51054 0.2349 0.338 0.0
H1022 H 0.49255 0.24318 0.39585 0.0
H1023 H 0.43338 0.23574 0.23841 0.0
H1024 H 0.43962 0.20478 0.20199 0.0
H1025 H 0.49615 0.21397 0.23398 0.0
C1026 C 0.48156 0.28365 0.31316 0.0
C1027 C 0.46707 0.29526 0.32593 0.0
C1028 C 0.44949 0.289 0.31563 0.0
C1029 C 0.44629 0.27153 0.29186 0.0
C1030 C 0.46081 0.26042 0.27957 0.0
C1031 C 0.47809 0.26608 0.29065 0.0
C1032 C 0.49119 0.2511 0.27571 0.0
C1033 C 0.50369 0.2558 0.20931 0.0
C1034 C 0.50172 0.24652 0.34821 0.0
C1035 C 0.47853 0.23621 0.25418 0.0
C1036 C 0.4611 0.24202 0.25609 0.0
C1037 C 0.44695 0.23097 0.23707 0.0
C1038 C 0.45066 0.21342 0.21616 0.0
C1039 C 0.46836 0.20697 0.21527 0.0
C1040 C 0.48249 0.21854 0.23451 0.0
H1041 H 0.28452 0.45294 0.7648 0.0
H1042 H 0.29321 0.51003 0.77311 0.0
H1043 H 0.26112 0.5148 0.79288 0.0
H1044 H 0.24237 0.45404 0.66699 0.0
H1045 H 0.23281 0.43604 0.72119 0.0
H1046 H 0.25649 0.43697 0.70634 0.0
H1047 H 0.26157 0.43573 0.85225 0.0
H1048 H 0.23789 0.43482 0.86756 0.0
H1049 H 0.25095 0.45197 0.91264 0.0
H1050 H 0.22835 0.51366 0.80719 0.0
H1051 H 0.19655 0.50662 0.82224 0.0
H1052 H 0.20864 0.45018 0.81244 0.0
C1053 C 0.27961 0.46643 0.77053 0.0
C1054 C 0.29131 0.48114 0.76711 0.0
C1055 C 0.28448 0.49858 0.77567 0.0
C1056 C 0.26627 0.50143 0.78678 0.0
C1057 C 0.25509 0.48669 0.79011 0.0
C1058 C 0.26144 0.46952 0.78286 0.0
C1059 C 0.24648 0.45606 0.7904 0.0
C1060 C 0.24442 0.44514 0.71684 0.0
C1061 C 0.2494 0.44393 0.85985 0.0
C1062 C 0.23075 0.46839 0.80241 0.0
C1063 C 0.23608 0.486 0.80143 0.0
C1064 C 0.22401 0.49994 0.80864 0.0
C1065 C 0.20598 0.49579 0.81697 0.0
C1066 C 0.20018 0.47787 0.81894 0.0
C1067 C 0.21276 0.46399 0.81206 0.0
H1068 H 0.95536 0.78698 0.72976 0.0
H1069 H 0.01173 0.79937 0.72657 0.0
H1070 H 0.01877 0.76778 0.74977 0.0
H1071 H 0.95801 0.75475 0.88237 0.0
H1072 H 0.9413 0.74029 0.84256 0.0
H1073 H 0.94057 0.76385 0.82364 0.0
H1074 H 0.94068 0.75758 0.67846 0.0
H1075 H 0.9414 0.73401 0.69693 0.0
H1076 H 0.95818 0.74419 0.63796 0.0
H1077 H 0.01986 0.73496 0.76887 0.0
H1078 H 0.01487 0.70291 0.79119 0.0
H1079 H 0.95783 0.71171 0.7898 0.0
C1080 C 0.96917 0.78299 0.73371 0.0
C1081 C 0.98302 0.79557 0.72604 0.0
C1082 C 0.00092 0.78994 0.73243 0.0
C1083 C 0.00506 0.77203 0.74539 0.0
C1084 C 0.99114 0.75995 0.75279 0.0
C1085 C 0.97355 0.76516 0.74792 0.0
C1086 C 0.96116 0.74949 0.76019 0.0
C1087 C 0.94958 0.75227 0.83143 0.0
C1088 C 0.94968 0.74612 0.68914 0.0
C1089 C 0.97456 0.73467 0.7721 0.0
C1090 C 0.99177 0.74101 0.76693 0.0
C1091 C 0.00645 0.72983 0.77359 0.0
C1092 C 0.00348 0.71166 0.78604 0.0
C1093 C 0.98599 0.70489 0.79263 0.0
C1094 C 0.97135 0.71658 0.78581 0.0
H1095 H 0.78169 0.95295 0.29018 0.0
H1096 H 0.79251 0.00969 0.28306 0.0
H1097 H 0.76078 0.01565 0.2598 0.0
H1098 H 0.7493 0.95326 0.13841 0.0
H1099 H 0.73521 0.93663 0.18135 0.0
H1100 H 0.75876 0.93661 0.20031 0.0
H1101 H 0.7525 0.93805 0.34535 0.0
H1102 H 0.72894 0.93802 0.32684 0.0
H1103 H 0.7387 0.95564 0.38257 0.0
H1104 H 0.72822 0.01577 0.24051 0.0
H1105 H 0.69635 0.00998 0.21988 0.0
H1106 H 0.70611 0.9531 0.23152 0.0
C1107 C 0.7773 0.96661 0.28419 0.0
C1108 C 0.78951 0.98088 0.28875 0.0
C1109 C 0.78338 -0.00144 0.27964 0.0
C1110 C 0.76538 0.0021 0.26656 0.0
C1111 C 0.75369 0.98778 0.26185 0.0
C1112 C 0.75934 0.97038 0.26982 0.0
C1113 C 0.74395 0.95751 0.2599 0.0
C1114 C 0.74699 0.94528 0.19087 0.0
C1115 C 0.74084 0.94667 0.33303 0.0
C1116 C 0.72881 0.97044 0.24556 0.0
C1117 C 0.73479 0.98783 0.2476 0.0
C1118 C 0.72336 0.00222 0.23831 0.0
C1119 C 0.70529 -0.00121 0.22678 0.0
C1120 C 0.69882 0.98111 0.22371 0.0
C1121 C 0.71077 0.96674 0.23274 0.0
H1122 H 0.54075 0.7829 0.81301 0.0
H1123 H 0.48915 0.79745 0.72062 0.0
H1124 H 0.48581 0.76757 0.66699 0.0
H1125 H 0.55402 0.75373 0.65267 0.0
H1126 H 0.56466 0.73761 0.71357 0.0
H1127 H 0.56394 0.7607 0.74127 0.0
H1128 H 0.54898 0.75193 0.86886 0.0
H1129 H 0.54965 0.72884 0.84155 0.0
H1130 H 0.52879 0.73898 0.86744 0.0
H1131 H 0.48619 0.73606 0.63376 0.0
H1132 H 0.49104 0.70383 0.61792 0.0
H1133 H 0.54283 0.70859 0.72459 0.0
C1134 C 0.5289 0.7798 0.78063 0.0
C1135 C 0.5152 0.79253 0.77129 0.0
C1136 C 0.4998 0.78795 0.72908 0.0
C1137 C 0.49777 0.771 0.69795 0.0
C1138 C 0.5113 0.75869 0.70893 0.0
C1139 C 0.52662 0.76277 0.74874 0.0
C1140 C 0.53865 0.74657 0.75435 0.0
C1141 C 0.55637 0.74985 0.71298 0.0
C1142 C 0.54169 0.74127 0.83802 0.0
C1143 C 0.52746 0.73279 0.71284 0.0
C1144 C 0.51175 0.74021 0.68721 0.0
C1145 C 0.49856 0.73011 0.65226 0.0
C1146 C 0.50139 0.71185 0.64374 0.0
C1147 C 0.51736 0.70394 0.66908 0.0
C1148 C 0.5307 0.71452 0.70314 0.0
H1149 H 0.78988 0.50243 0.23541 0.0
H1150 H 0.79545 0.5594 0.20156 0.0
H1151 H 0.76411 0.56366 0.23872 0.0
H1152 H 0.74444 0.49956 0.1611 0.0
H1153 H 0.73786 0.48276 0.22877 0.0
H1154 H 0.76066 0.48412 0.19781 0.0
H1155 H 0.77083 0.48673 0.33844 0.0
H1156 H 0.74805 0.48555 0.36977 0.0
H1157 H 0.76176 0.50413 0.39751 0.0
H1158 H 0.73315 0.56209 0.2882 0.0
H1159 H 0.70312 0.55453 0.33428 0.0
H1160 H 0.71668 0.49839 0.32921 0.0
C1161 C 0.78443 0.51577 0.23521 0.0
C1162 C 0.79506 0.5306 0.21577 0.0
C1163 C 0.7875 0.54785 0.21589 0.0
C1164 C 0.76974 0.55042 0.23722 0.0
C1165 C 0.75968 0.53557 0.25715 0.0
C1166 C 0.76661 0.51855 0.25517 0.0
C1167 C 0.7528 0.50489 0.27862 0.0
C1168 C 0.7487 0.49208 0.21263 0.0
C1169 C 0.75872 0.49473 0.35035 0.0
C1170 C 0.73712 0.51695 0.29529 0.0
C1171 C 0.74147 0.5346 0.28305 0.0
C1172 C 0.7295 0.54832 0.29725 0.0
C1173 C 0.71253 0.54389 0.32386 0.0
C1174 C 0.70761 0.52588 0.33514 0.0
C1175 C 0.72008 0.51225 0.32059 0.0
H1176 H 0.02304 0.35117 0.86852 0.0
H1177 H 0.9854 0.30753 0.87179 0.0
H1178 H 0.98912 0.30359 0.73304 0.0
H1179 H 0.00774 0.3698 0.69422 0.0
H1180 H 0.02945 0.37664 0.66187 0.0
H1181 H 0.02494 0.37479 0.76233 0.0
H1182 H 0.05179 0.35328 0.77558 0.0
H1183 H 0.05601 0.35493 0.67474 0.0
H1184 H 0.0526 0.33343 0.71791 0.0
H1185 H 0.99475 0.30586 0.59436 0.0
H1186 H 0.00279 0.31351 0.46222 0.0
H1187 H 0.03681 0.35595 0.54481 0.0
C1188 C 0.016 0.34052 0.83994 0.0
C1189 C 0.00404 0.32951 0.88058 0.0
C1190 C 0.99462 0.31603 0.84139 0.0
C1191 C 0.99668 0.3137 0.76277 0.0
C1192 C 0.00818 0.32502 0.72382 0.0
C1193 C 0.01777 0.33813 0.7608 0.0
C1194 C 0.02829 0.34921 0.70404 0.0
C1195 C 0.02225 0.36877 0.70572 0.0
C1196 C 0.04837 0.34761 0.71896 0.0
C1197 C 0.02305 0.34028 0.62964 0.0
C1198 C 0.01142 0.32637 0.64273 0.0
C1199 C 0.00396 0.31662 0.58332 0.0
C1200 C 0.00849 0.32116 0.50839 0.0
C1201 C 0.0204 0.33532 0.4931 0.0
C1202 C 0.02786 0.34491 0.55482 0.0
H1203 H 0.14804 0.0113 1.00192 0.0
H1204 H 0.16531 0.06635 0.99563 0.0
H1205 H 0.17082 0.06561 0.13384 0.0
H1206 H 0.12504 0.01416 0.17853 0.0
H1207 H 0.13141 0.99238 0.21184 0.0
H1208 H 0.12985 0.9967 0.11115 0.0
H1209 H 0.16241 0.98623 0.09313 0.0
H1210 H 0.16403 0.98182 0.19383 0.0
H1211 H 0.17983 0.99644 0.14849 0.0
H1212 H 0.17294 0.0597 0.2731 0.0
H1213 H 0.17224 0.04858 0.40526 0.0
H1214 H 0.15358 0.99732 0.32413 0.0
C1215 C 0.15327 0.02305 0.02965 0.0
C1216 C 0.15615 0.03892 0.98802 0.0
C1217 C 0.16276 0.05414 0.02646 0.0
C1218 C 0.16603 0.05383 0.10494 0.0
C1219 C 0.16269 0.03816 0.14468 0.0
C1220 C 0.15654 0.023 0.10857 0.0
C1221 C 0.15343 0.00815 0.16578 0.0
C1222 C 0.13376 0.00253 0.16687 0.0
C1223 C 0.16566 0.99222 0.14931 0.0
C1224 C 0.15864 0.01743 0.23938 0.0
C1225 C 0.16397 0.03472 0.22569 0.0
C1226 C 0.16888 0.04614 0.28458 0.0
C1227 C 0.16832 0.03974 0.35961 0.0
C1228 C 0.1629 0.02207 0.37542 0.0
C1229 C 0.15807 0.01079 0.31406 0.0
H1230 H 0.46677 0.14586 0.85916 0.0
H1231 H 0.49396 0.19679 0.85934 0.0
H1232 H 0.4898 0.1992 0.72083 0.0
H1233 H 0.48482 0.12999 0.68633 0.0
H1234 H 0.46484 0.11931 0.65276 0.0
H1235 H 0.46855 0.12191 0.75348 0.0
H1236 H 0.43853 0.13832 0.76704 0.0
H1237 H 0.4346 0.1357 0.66637 0.0
H1238 H 0.43405 0.15756 0.70864 0.0
H1239 H 0.48539 0.19523 0.58272 0.0
H1240 H 0.4789 0.18593 0.45093 0.0
H1241 H 0.45348 0.13802 0.5354 0.0
C1242 C 0.47148 0.15766 0.83004 0.0
C1243 C 0.48085 0.17108 0.87008 0.0
C1244 C 0.48703 0.18622 0.82985 0.0
C1245 C 0.48465 0.18776 0.75113 0.0
C1246 C 0.47589 0.17413 0.71297 0.0
C1247 C 0.46918 0.15944 0.75077 0.0
C1248 C 0.46083 0.14647 0.69468 0.0
C1249 C 0.47033 0.12835 0.69697 0.0
C1250 C 0.44081 0.1444 0.71011 0.0
C1251 C 0.46422 0.15607 0.61971 0.0
C1252 C 0.47295 0.17199 0.63206 0.0
C1253 C 0.47838 0.18289 0.57222 0.0
C1254 C 0.47477 0.17744 0.49757 0.0
C1255 C 0.46571 0.16129 0.48304 0.0
C1256 C 0.46024 0.15053 0.5451 0.0
H1257 H 0.34784 0.48736 0.05659 0.0
H1258 H 0.31944 0.43714 0.05157 0.0
H1259 H 0.31424 0.43919 0.18982 0.0
H1260 H 0.36985 0.48001 0.23217 0.0
H1261 H 0.3682 0.50265 0.26537 0.0
H1262 H 0.36864 0.49807 0.1647 0.0
H1263 H 0.33894 0.51504 0.1475 0.0
H1264 H 0.33844 0.51975 0.24818 0.0
H1265 H 0.31988 0.5087 0.20363 0.0
H1266 H 0.31363 0.44548 0.32881 0.0
H1267 H 0.31702 0.4561 0.46083 0.0
H1268 H 0.34579 0.50239 0.37893 0.0
C1269 C 0.34026 0.477 0.08458 0.0
C1270 C 0.33412 0.46204 0.04331 0.0
C1271 C 0.32448 0.44859 0.08208 0.0
C1272 C 0.32136 0.44969 0.16059 0.0
C1273 C 0.32792 0.46436 0.19993 0.0
C1274 C 0.33708 0.47786 0.16346 0.0
C1275 C 0.3433 0.49177 0.22032 0.0
C1276 C 0.36371 0.4932 0.22064 0.0
C1277 C 0.33462 0.50989 0.20392 0.0
C1278 C 0.33641 0.48382 0.29426 0.0
C1279 C 0.32752 0.46804 0.2809 0.0
C1280 C 0.32048 0.45788 0.34003 0.0
C1281 C 0.32259 0.46395 0.41497 0.0
C1282 C 0.33169 0.48006 0.43053 0.0
C1283 C 0.33856 0.49016 0.36896 0.0
H1284 H 0.03233 0.16364 0.62943 0.0
H1285 H 0.98505 0.13083 0.61816 0.0
H1286 H 0.98773 0.12411 0.75541 0.0
H1287 H 0.05642 0.13691 0.77347 0.0
H1288 H 0.0652 0.15625 0.82117 0.0
H1289 H 0.06071 0.157 0.72035 0.0
H1290 H 0.04049 0.18452 0.74058 0.0
H1291 H 0.04487 0.18382 0.84134 0.0
H1292 H 0.02228 0.18319 0.80721 0.0
H1293 H 0.99438 0.12228 0.8939 0.0
H1294 H 0.00414 0.12597 0.02678 0.0
H1295 H 0.04649 0.16112 0.95132 0.0
C1296 C 0.02282 0.15477 0.65595 0.0
C1297 C 0.00852 0.14767 0.61363 0.0
C1298 C 0.99603 0.13642 0.65002 0.0
C1299 C -0.00249 0.13247 0.7277 0.0
C1300 C 0.01152 0.13995 0.76839 0.0
C1301 C 0.02397 0.15089 0.73405 0.0
C1302 C 0.03695 0.15819 0.79236 0.0
C1303 C 0.05595 0.1517 0.77584 0.0
C1304 C 0.03608 0.17864 0.79555 0.0
C1305 C 0.02965 0.14988 0.86473 0.0
C1306 C 0.01511 0.13926 0.84929 0.0
C1307 C 0.00578 0.13054 0.90678 0.0
C1308 C 0.01135 0.13285 0.98229 0.0
C1309 C 0.02603 0.14394 1.00005 0.0
C1310 C 0.03537 0.15239 0.93997 0.0
H1311 H 0.31961 0.00331 0.20149 0.0
H1312 H 0.36102 0.03759 0.1108 0.0
H1313 H 0.37044 0.04507 0.24087 0.0
H1314 H 0.30798 0.03111 0.35916 0.0
H1315 H 0.30423 0.01303 0.42475 0.0
H1316 H 0.301 0.00966 0.32413 0.0
H1317 H 0.32312 0.98325 0.32721 0.0
H1318 H 0.32647 0.9866 0.42787 0.0
H1319 H 0.34524 0.98664 0.36396 0.0
H1320 H 0.37501 0.04972 0.37859 0.0
H1321 H 0.3738 0.05216 0.5185 0.0
H1322 H 0.32981 0.01487 0.52436 0.0
C1323 C 0.33073 0.01228 0.20922 0.0
C1324 C 0.33944 0.02 0.1457 0.0
C1325 C 0.35387 0.03179 0.15819 0.0
C1326 C 0.35947 0.03598 0.23201 0.0
C1327 C 0.35058 0.02826 0.29318 0.0
C1328 C 0.3365 0.01669 0.28298 0.0
C1329 C 0.32894 0.01081 0.35928 0.0
C1330 C 0.30938 0.0165 0.36728 0.0
C1331 C 0.33107 0.99062 0.3702 0.0
C1332 C 0.34084 0.02109 0.41363 0.0
C1333 C 0.35329 0.03094 0.37386 0.0
C1334 C 0.36539 0.04203 0.41046 0.0
C1335 C 0.36456 0.04337 0.48984 0.0
C1336 C 0.35173 0.03372 0.53209 0.0
C1337 C 0.33991 0.02218 0.49349 0.0
H1338 H 0.46554 0.35514 0.69163 0.0
H1339 H 0.48868 0.30227 0.6939 0.0
H1340 H 0.48485 0.30078 0.83293 0.0
H1341 H 0.48542 0.37042 0.86048 0.0
H1342 H 0.46647 0.38279 0.89451 0.0
H1343 H 0.46946 0.37928 0.79385 0.0
H1344 H 0.43817 0.36489 0.78491 0.0
H1345 H 0.43508 0.36879 0.88539 0.0
H1346 H 0.4326 0.34665 0.84722 0.0
H1347 H 0.4815 0.30583 0.97103 0.0
H1348 H 0.47653 0.31635 0.10231 0.0
H1349 H 0.45456 0.36568 0.0151 0.0
C1350 C 0.46937 0.34312 0.7214 0.0
C1351 C 0.47754 0.32886 0.68198 0.0
C1352 C 0.48265 0.31344 0.72298 0.0
C1353 C 0.48044 0.31243 0.80197 0.0
C1354 C 0.47294 0.32689 0.83952 0.0
C1355 C 0.46723 0.34187 0.80088 0.0
C1356 C 0.46022 0.35575 0.85628 0.0
C1357 C 0.47104 0.37308 0.85094 0.0
C1358 C 0.44033 0.35922 0.84265 0.0
C1359 C 0.46332 0.34634 0.93187 0.0
C1360 C 0.47066 0.3297 0.92042 0.0
C1361 C 0.47558 0.31875 0.98086 0.0
C1362 C 0.47287 0.3249 0.05522 0.0
C1363 C 0.46522 0.34182 0.06883 0.0
C1364 C 0.46027 0.35262 1.00617 0.0
H1365 H 0.1427 0.49529 0.19772 0.0
H1366 H 0.17527 0.45184 0.11386 0.0
H1367 H 0.17985 0.44141 0.24545 0.0
H1368 H 0.16837 0.50375 0.37147 0.0
H1369 H 0.14896 0.50839 0.42836 0.0
H1370 H 0.14879 0.51306 0.32763 0.0
H1371 H 0.1207 0.49347 0.31159 0.0
H1372 H 0.12077 0.48876 0.41218 0.0
H1373 H 0.12107 0.47073 0.34444 0.0
H1374 H 0.18017 0.43496 0.38436 0.0
H1375 H 0.17572 0.43247 0.52297 0.0
H1376 H 0.14298 0.47999 0.51996 0.0
C1377 C 0.15099 0.48374 0.20719 0.0
C1378 C 0.15859 0.47436 0.14517 0.0
C1379 C 0.16911 0.45911 0.16006 0.0
C1380 C 0.17191 0.45315 0.23475 0.0
C1381 C 0.16413 0.46258 0.29436 0.0
C1382 C 0.15388 0.47754 0.28169 0.0
C1383 C 0.1465 0.48477 0.35614 0.0
C1384 C 0.15358 0.50361 0.37181 0.0
C1385 C 0.12605 0.4844 0.35605 0.0
C1386 C 0.15408 0.47141 0.41238 0.0
C1387 C 0.16428 0.4588 0.37526 0.0
C1388 C 0.17225 0.44477 0.4141 0.0
C1389 C 0.16955 0.44341 0.49283 0.0
C1390 C 0.15894 0.45597 0.53233 0.0
C1391 C 0.15132 0.47031 0.49146 0.0
H1392 H 0.95146 0.66523 0.4697 0.0
H1393 H 0.99407 0.63056 0.54582 0.0
H1394 H 0.00401 0.62684 0.41326 0.0
H1395 H 0.94212 0.64093 0.29067 0.0
H1396 H 0.93774 0.66101 0.2377 0.0
H1397 H 0.93311 0.66017 0.33842 0.0
H1398 H 0.95307 0.68782 0.3596 0.0
H1399 H 0.95779 0.68873 0.25912 0.0
H1400 H 0.97578 0.68746 0.32672 0.0
H1401 H 0.01091 0.6286 0.27566 0.0
H1402 H 0.0139 0.63516 0.13848 0.0
H1403 H 0.9664 0.66772 0.14707 0.0
C1404 C 0.96267 0.65661 0.45828 0.0
C1405 C 0.97208 0.64831 0.51852 0.0
C1406 C 0.98685 0.63732 0.50107 0.0
C1407 C 0.99251 0.63499 0.42578 0.0
C1408 C 0.98319 0.6436 0.36805 0.0
C1409 C 0.96851 0.65408 0.38301 0.0
C1410 C 0.96139 0.66236 0.31013 0.0
C1411 C 0.94246 0.65572 0.29324 0.0
C1412 C 0.96206 0.6828 0.31417 0.0
C1413 C 0.97461 0.65518 0.25239 0.0
C1414 C 0.98701 0.64433 0.28736 0.0
C1415 C 0.00117 0.63689 0.24741 0.0
C1416 C 0.00282 0.64076 0.16974 0.0
C1417 C 0.99037 0.65188 0.13252 0.0
C1418 C 0.97592 0.65896 0.17417 0.0
H1419 H 0.82961 0.98506 1.00743 0.0
H1420 H 0.85993 0.93596 0.99971 0.0
H1421 H 0.86102 0.93771 0.85988 0.0
H1422 H 0.80326 0.97673 0.84304 0.0
H1423 H 0.80346 -0.00068 0.80847 0.0
H1424 H 0.80569 0.99497 0.90894 0.0
H1425 H 0.83519 0.01272 0.91182 0.0
H1426 H 0.83298 0.01727 0.81144 0.0
H1427 H 0.85286 0.0068 0.84717 0.0
H1428 H 0.85754 0.94347 0.7219 0.0
H1429 H 0.85134 0.95406 0.59213 0.0
H1430 H 0.82366 -7e-05 0.68447 0.0
C1431 C 0.83672 0.97487 0.97624 0.0
C1432 C 0.84454 0.96026 0.01472 0.0
C1433 C 0.85356 0.94709 0.97167 0.0
C1434 C 0.85433 0.94801 0.89212 0.0
C1435 C 0.84611 0.96225 0.85583 0.0
C1436 C 0.83762 0.97558 0.89614 0.0
C1437 C 0.82962 0.98922 0.84204 0.0
C1438 C 0.8093 0.99011 0.85119 0.0
C1439 C 0.83818 0.00759 0.85383 0.0
C1440 C 0.83479 0.98131 0.7654 0.0
C1441 C 0.84427 0.96573 0.77511 0.0
C1442 C 0.85018 0.95568 0.71349 0.0
C1443 C 0.84642 0.96174 0.63979 0.0
C1444 C 0.83687 0.97776 0.62776 0.0
C1445 C 0.83103 0.98768 0.69177 0.0
H1446 H 0.54314 0.84852 0.49462 0.0
H1447 H 0.48825 0.84755 0.5727 0.0
H1448 H 0.47831 0.84218 0.44167 0.0
H1449 H 0.53353 0.87152 0.31299 0.0
H1450 H 0.55014 0.85916 0.26133 0.0
H1451 H 0.55317 0.86368 0.36133 0.0
H1452 H 0.55692 0.82994 0.38724 0.0
H1453 H 0.5538 0.8253 0.28751 0.0
H1454 H 0.53974 0.81473 0.35735 0.0
H1455 H 0.47417 0.83471 0.30504 0.0
H1456 H 0.47598 0.8276 0.16827 0.0
H1457 H 0.53317 0.83491 0.17418 0.0
C1458 C 0.529 0.84751 0.48452 0.0
C1459 C 0.51657 0.84824 0.54545 0.0
C1460 C 0.49819 0.84666 0.52836 0.0
C1461 C 0.49234 0.84374 0.45362 0.0
C1462 C 0.50494 0.8427 0.39571 0.0
C1463 C 0.52287 0.8448 0.40981 0.0
C1464 C 0.5336 0.84285 0.33676 0.0
C1465 C 0.54317 0.86034 0.31695 0.0
C1466 C 0.54679 0.82728 0.3426 0.0
C1467 C 0.51889 0.83888 0.27996 0.0
C1468 C 0.50248 0.83888 0.31553 0.0
C1469 C 0.48692 0.83482 0.2764 0.0
C1470 C 0.4881 0.83064 0.19884 0.0
C1471 C 0.50471 0.83061 0.16064 0.0
C1472 C 0.52029 0.83497 0.20179 0.0
H1473 H 0.64064 0.53862 0.02316 0.0
H1474 H 0.68858 0.51348 0.10852 0.0
H1475 H 0.69795 0.5069 0.97704 0.0
H1476 H 0.63261 0.50778 0.87421 0.0
H1477 H 0.62471 0.52399 0.8065 0.0
H1478 H 0.62223 0.528 0.90707 0.0
H1479 H 0.639 0.55793 0.89307 0.0
H1480 H 0.64154 0.554 0.79233 0.0
H1481 H 0.66083 0.55821 0.85053 0.0
H1482 H 0.70141 0.50132 0.83862 0.0
H1483 H 0.69865 0.49678 0.70001 0.0
H1484 H 0.64875 0.52564 0.70011 0.0
C1485 C 0.65323 0.53199 1.01385 0.0
C1486 C 0.66383 0.52648 0.07625 0.0
C1487 C 0.6801 0.51759 0.06191 0.0
C1488 C 0.68562 0.51392 0.9873 0.0
C1489 C 0.67477 0.51926 0.92722 0.0
C1490 C 0.65893 0.52814 0.93934 0.0
C1491 C 0.6494 0.53155 0.86431 0.0
C1492 C 0.63116 0.52227 0.86297 0.0
C1493 C 0.64759 0.55162 0.84918 0.0
C1494 C 0.66224 0.52296 0.80847 0.0
C1495 C 0.67682 0.51607 0.84632 0.0
C1496 C 0.69014 0.50677 0.80825 0.0
C1497 C 0.68842 0.50419 0.72961 0.0
C1498 C 0.67353 0.51087 0.68938 0.0
C1499 C 0.6604 0.52065 0.72929 0.0
H1500 H 0.001 0.84861 0.3303 0.0
H1501 H 0.95492 0.81925 0.41002 0.0
H1502 H 0.94447 0.8161 0.27757 0.0
H1503 H 0.97857 0.87291 0.18576 0.0
H1504 H 0.99665 0.87221 0.1184 0.0
H1505 H 0.00119 0.87128 0.21904 0.0
H1506 H 0.01849 0.84181 0.20005 0.0
H1507 H 0.01399 0.84264 0.09926 0.0
H1508 H 0.00773 0.8233 0.1538 0.0
H1509 H 0.93834 0.81702 0.13842 0.0
H1510 H 0.93631 0.82271 1.00054 0.0
H1511 H 0.98621 0.8516 1.0079 0.0
C1512 C 0.98887 0.84128 0.31972 0.0
C1513 C 0.97878 0.83415 0.38076 0.0
C1514 C 0.96277 0.82497 0.36451 0.0
C1515 C 0.9568 0.823 0.28934 0.0
C1516 C 0.96696 0.83028 0.23072 0.0
C1517 C 0.98264 0.83926 0.24479 0.0
C1518 C 0.99055 0.84651 0.17134 0.0
C1519 C 0.99181 0.86694 0.17381 0.0
C1520 C 0.00877 0.83806 0.15517 0.0
C1521 C 0.97674 0.84037 0.11399 0.0
C1522 C 0.96333 0.83092 0.14972 0.0
C1523 C 0.94877 0.82435 0.10979 0.0
C1524 C 0.94768 0.82775 0.03149 0.0
C1525 C 0.96104 0.83768 0.99349 0.0
C1526 C 0.97592 0.8438 0.03529 0.0
H1527 H 0.64467 0.00148 0.83704 0.0
H1528 H 0.67274 0.95494 0.92046 0.0
H1529 H 0.67621 0.94416 0.78878 0.0
H1530 H 0.62064 0.97936 0.69077 0.0
H1531 H 0.62214 0.99733 0.623 0.0
H1532 H 0.62263 0.00201 0.72358 0.0
H1533 H 0.65257 0.01861 0.707 0.0
H1534 H 0.65217 0.01396 0.60627 0.0
H1535 H 0.67105 0.00734 0.66282 0.0
H1536 H 0.67565 0.93767 0.64977 0.0
H1537 H 0.67066 0.93558 0.51131 0.0
H1538 H 0.64314 0.98629 0.51488 0.0
C1539 C 0.65177 0.98916 0.82749 0.0
C1540 C 0.65839 0.97904 0.88945 0.0
C1541 C 0.66734 0.96282 0.87437 0.0
C1542 C 0.66951 0.95665 0.79959 0.0
C1543 C 0.6627 0.96683 0.74008 0.0
C1544 C 0.65402 0.98275 0.75292 0.0
C1545 C 0.64736 0.99071 0.67858 0.0
C1546 C 0.62698 0.99245 0.67904 0.0
C1547 C 0.65633 0.00873 0.66275 0.0
C1548 C 0.65348 0.97665 0.62221 0.0
C1549 C 0.66238 0.96307 0.65914 0.0
C1550 C 0.66877 0.94825 0.62017 0.0
C1551 C 0.66578 0.94714 0.54155 0.0
C1552 C 0.65647 0.96073 0.50229 0.0
C1553 C 0.65049 0.97582 0.54322 0.0
H1554 H 0.52041 0.6331 0.99552 0.0
H1555 H 0.538 0.68643 0.94047 0.0
H1556 H 0.53439 0.6952 0.0763 0.0
H1557 H 0.48657 0.64637 0.12884 0.0
H1558 H 0.4901 0.62751 0.1905 0.0
H1559 H 0.49465 0.62568 0.09009 0.0
H1560 H 0.52685 0.61555 0.12016 0.0
H1561 H 0.52243 0.61743 0.22068 0.0
H1562 H 0.54081 0.62938 0.17904 0.0
H1563 H 0.53021 0.69722 0.2221 0.0
H1564 H 0.52244 0.69331 0.35911 0.0
H1565 H 0.5056 0.63933 0.31322 0.0
C1566 C 0.52359 0.64659 1.01227 0.0
C1567 C 0.5297 0.65907 0.95811 0.0
C1568 C 0.53333 0.67672 0.98148 0.0
C1569 C 0.53139 0.68175 0.05838 0.0
C1570 C 0.52551 0.66901 0.1107 0.0
C1571 C 0.52139 0.65187 0.08808 0.0
C1572 C 0.5146 0.64081 0.15403 0.0
C1573 C 0.49534 0.63475 0.14001 0.0
C1574 C 0.52691 0.62485 0.16936 0.0
C1575 C 0.51562 0.65432 0.21773 0.0
C1576 C 0.52217 0.67046 0.19226 0.0
C1577 C 0.52487 0.68469 0.24224 0.0
C1578 C 0.52052 0.68239 0.31975 0.0
C1579 C 0.51324 0.66614 0.34583 0.0
C1580 C 0.51088 0.65197 0.2941 0.0
H1581 H 0.85194 0.51401 0.50479 0.0
H1582 H 0.82776 0.56637 0.49925 0.0
H1583 H 0.82231 0.56478 0.63753 0.0
H1584 H 0.82249 0.49493 0.65103 0.0
H1585 H 0.84008 0.48253 0.69629 0.0
H1586 H 0.84116 0.48722 0.59567 0.0
H1587 H 0.87199 0.50197 0.61412 0.0
H1588 H 0.87098 0.49737 0.71472 0.0
H1589 H 0.87438 0.51984 0.68187 0.0
H1590 H 0.8206 0.55833 0.7767 0.0
H1591 H 0.82256 0.54725 0.90857 0.0
H1592 H 0.8483 0.49917 0.82705 0.0
C1593 C 0.84526 0.52497 0.53273 0.0
C1594 C 0.84032 0.54036 0.49125 0.0
C1595 C 0.83184 0.55457 0.52996 0.0
C1596 C 0.8286 0.55375 0.60847 0.0
C1597 C 0.83392 0.5386 0.64803 0.0
C1598 C 0.84203 0.52443 0.61172 0.0
C1599 C 0.84706 0.51008 0.66878 0.0
C1600 C 0.8371 0.49266 0.65193 0.0
C1601 C 0.86731 0.50715 0.66992 0.0
C1602 C 0.84062 0.51849 0.74256 0.0
C1603 C 0.83302 0.53491 0.72904 0.0
C1604 C 0.82648 0.54545 0.78804 0.0
C1605 C 0.82777 0.53909 0.86299 0.0
C1606 C 0.83559 0.52233 0.87879 0.0
C1607 C 0.84201 0.51191 0.81723 0.0
loop_
_geom_bond_atom_site_label_1
_geom_bond_atom_site_label_2
_geom_bond_distance
_geom_bond_site_symmetry_2
_ccdc_geom_bond_type
Co0 N4 2.148 . S
Co0 N10 2.128 . S
Co0 N20 2.194 . S
Co0 O25 2.351 . S
Co0 O26 2.155 . S
Co0 O27 2.096 . S
C1 N4 1.301 . S
C1 N5 1.328 . S
C1 H6 0.930 . S
C2 C3 1.333 . S
C2 N4 1.317 . S
C2 H7 0.930 . S
C3 C2 1.333 . S
C3 N5 1.350 . S
C3 H29 0.931 . S
N4 Co0 2.148 . S
N4 C1 1.301 . S
N4 C2 1.317 . S
N5 C1 1.328 . S
N5 C3 1.350 . S
H6 C1 0.930 . S
H7 C2 0.930 . S
C8 O9 1.224 . S
C8 O27 1.247 . S
O9 C8 1.224 . S
N10 Co0 2.128 . S
N10 C11 1.355 1_554 S
N10 C13 1.311 1_554 S
C11 N10 1.355 1_556 S
C11 C12 1.363 . S
C11 H23 0.929 1_456 S
C12 C11 1.363 . S
C12 N14 1.375 . S
C12 H30 0.931 1_455 S
C13 N10 1.311 1_556 S
C13 N14 1.347 . S
C13 H24 0.929 . S
N14 C12 1.375 . S
N14 C13 1.347 . S
C15 C18 1.365 . S
C15 N20 1.328 1_655 S
C15 H21 0.929 . S
C16 C17 1.362 . S
C16 C19 1.378 1_655 S
C16 H31 0.929 . S
C17 C16 1.362 . S
C17 C18 1.366 . S
C18 C15 1.365 . S
C18 C17 1.366 . S
C18 H32 0.930 . S
C19 C16 1.378 1_455 S
C19 N20 1.315 . S
C19 H22 0.930 . S
N20 Co0 2.194 . S
N20 C15 1.328 1_455 S
N20 C19 1.315 . S
H21 C15 0.929 . S
H22 C19 0.930 . S
H23 C11 0.929 1_654 S
H24 C13 0.929 . S
O25 Co0 2.351 . S
O25 C28 1.244 . S
O26 Co0 2.155 . S
O26 C28 1.240 . S
O27 Co0 2.096 . S
O27 C8 1.247 . S
C28 O25 1.244 . S
C28 O26 1.240 . S
H29 C3 0.931 . S
H30 C12 0.931 1_655 S
H31 C16 0.929 . S
H32 C18 0.930 . S
Co33 N37 2.148 . S
Co33 N43 2.128 . S
Co33 N53 2.194 . S
Co33 O58 2.351 . S
Co33 O59 2.155 . S
Co33 O60 2.096 . S
C34 N37 1.301 . S
C34 N38 1.328 . S
C34 H39 0.930 . S
C35 C36 1.333 . S
C35 N37 1.317 . S
C35 H40 0.930 . S
C36 C35 1.333 . S
C36 N38 1.350 . S
C36 H62 0.931 . S
N37 Co33 2.148 . S
N37 C34 1.301 . S
N37 C35 1.317 . S
N38 C34 1.328 . S
N38 C36 1.350 . S
H39 C34 0.930 . S
H40 C35 0.930 . S
C41 O42 1.224 . S
C41 O60 1.247 . S
O42 C41 1.224 . S
N43 Co33 2.128 . S
N43 C44 1.355 . S
N43 C46 1.311 . S
C44 N43 1.355 . S
C44 C45 1.363 . S
C44 H56 0.929 1_545 S
C45 C44 1.363 . S
C45 N47 1.375 . S
C45 H63 0.931 1_545 S
C46 N43 1.311 . S
C46 N47 1.347 . S
C46 H57 0.929 . S
N47 C45 1.375 . S
N47 C46 1.347 . S
C48 C51 1.365 . S
C48 N53 1.328 1_565 S
C48 H54 0.929 . S
C49 C50 1.362 . S
C49 C52 1.378 1_565 S
C49 H64 0.929 . S
C50 C49 1.362 . S
C50 C51 1.366 . S
C51 C48 1.365 . S
C51 C50 1.366 . S
C51 H65 0.930 . S
C52 C49 1.378 1_545 S
C52 N53 1.315 . S
C52 H55 0.930 . S
N53 Co33 2.194 . S
N53 C48 1.328 1_545 S
N53 C52 1.315 . S
H54 C48 0.929 . S
H55 C52 0.930 . S
H56 C44 0.929 1_565 S
H57 C46 0.929 . S
O58 Co33 2.351 . S
O58 C61 1.244 . S
O59 Co33 2.155 . S
O59 C61 1.240 . S
O60 Co33 2.096 . S
O60 C41 1.247 . S
C61 O58 1.244 . S
C61 O59 1.240 . S
H62 C36 0.931 . S
H63 C45 0.931 1_565 S
H64 C49 0.929 . S
H65 C51 0.930 . S
Co66 N70 2.148 . S
Co66 N76 2.128 . S
Co66 N86 2.194 . S
Co66 O91 2.351 . S
Co66 O92 2.155 . S
Co66 O93 2.096 . S
C67 N70 1.301 . S
C67 N71 1.328 . S
C67 H72 0.930 . S
C68 C69 1.333 . S
C68 N70 1.317 . S
C68 H73 0.930 . S
C69 C68 1.333 . S
C69 N71 1.350 . S
C69 H95 0.931 . S
N70 Co66 2.148 . S
N70 C67 1.301 . S
N70 C68 1.317 . S
N71 C67 1.328 . S
N71 C69 1.350 . S
H72 C67 0.930 . S
H73 C68 0.930 . S
C74 O75 1.224 . S
C74 O93 1.247 . S
O75 C74 1.224 . S
N76 Co66 2.128 . S
N76 C77 1.355 1_554 S
N76 C79 1.311 1_554 S
C77 N76 1.355 1_556 S
C77 C78 1.363 . S
C77 H89 0.929 1_556 S
C78 C77 1.363 . S
C78 N80 1.375 . S
C78 H96 0.931 . S
C79 N76 1.311 1_556 S
C79 N80 1.347 . S
C79 H90 0.929 . S
N80 C78 1.375 . S
N80 C79 1.347 . S
C81 C84 1.365 . S
C81 N86 1.328 . S
C81 H87 0.929 . S
C82 C83 1.362 . S
C82 C85 1.378 . S
C82 H97 0.929 . S
C83 C82 1.362 . S
C83 C84 1.366 . S
C84 C81 1.365 . S
C84 C83 1.366 . S
C84 H98 0.930 . S
C85 C82 1.378 . S
C85 N86 1.315 . S
C85 H88 0.930 . S
N86 Co66 2.194 . S
N86 C81 1.328 . S
N86 C85 1.315 . S
H87 C81 0.929 . S
H88 C85 0.930 . S
H89 C77 0.929 1_554 S
H90 C79 0.929 . S
O91 Co66 2.351 . S
O91 C94 1.244 . S
O92 Co66 2.155 . S
O92 C94 1.240 . S
O93 Co66 2.096 . S
O93 C74 1.247 . S
C94 O91 1.244 . S
C94 O92 1.240 . S
H95 C69 0.931 . S
H96 C78 0.931 . S
H97 C82 0.929 . S
H98 C84 0.930 . S
Co99 N103 2.148 . S
Co99 N109 2.128 . S
Co99 N119 2.194 . S
Co99 O124 2.351 . S
Co99 O125 2.155 . S
Co99 O126 2.096 . S
C100 N103 1.301 . S
C100 N104 1.328 . S
C100 H105 0.930 . S
C101 C102 1.333 . S
C101 N103 1.317 . S
C101 H106 0.930 . S
C102 C101 1.333 . S
C102 N104 1.350 . S
C102 H128 0.931 . S
N103 Co99 2.148 . S
N103 C100 1.301 . S
N103 C101 1.317 . S
N104 C100 1.328 . S
N104 C102 1.350 . S
H105 C100 0.930 . S
H106 C101 0.930 . S
C107 O108 1.224 . S
C107 O126 1.247 . S
O108 C107 1.224 . S
N109 Co99 2.128 . S
N109 C110 1.355 . S
N109 C112 1.311 . S
C110 N109 1.355 . S
C110 C111 1.363 . S
C110 H122 0.929 . S
C111 C110 1.363 . S
C111 N113 1.375 . S
C111 H129 0.931 . S
C112 N109 1.311 . S
C112 N113 1.347 . S
C112 H123 0.929 . S
N113 C111 1.375 . S
N113 C112 1.347 . S
C114 C117 1.365 . S
C114 N119 1.328 . S
C114 H120 0.929 . S
C115 C116 1.362 . S
C115 C118 1.378 . S
C115 H130 0.929 . S
C116 C115 1.362 . S
C116 C117 1.366 . S
C117 C114 1.365 . S
C117 C116 1.366 . S
C117 H131 0.930 . S
C118 C115 1.378 . S
C118 N119 1.315 . S
C118 H121 0.930 . S
N119 Co99 2.194 . S
N119 C114 1.328 . S
N119 C118 1.315 . S
H120 C114 0.929 . S
H121 C118 0.930 . S
H122 C110 0.929 . S
H123 C112 0.929 . S
O124 Co99 2.351 . S
O124 C127 1.244 . S
O125 Co99 2.155 . S
O125 C127 1.240 . S
O126 Co99 2.096 . S
O126 C107 1.247 . S
C127 O124 1.244 . S
C127 O125 1.240 . S
H128 C102 0.931 . S
H129 C111 0.931 . S
H130 C115 0.929 . S
H131 C117 0.930 . S
Co132 N136 2.148 . S
Co132 N142 2.128 . S
Co132 N152 2.194 . S
Co132 O157 2.351 . S
Co132 O158 2.155 . S
Co132 O159 2.096 . S
C133 N136 1.301 . S
C133 N137 1.328 . S
C133 H138 0.930 . S
C134 C135 1.333 . S
C134 N136 1.317 . S
C134 H139 0.930 . S
C135 C134 1.333 . S
C135 N137 1.350 . S
C135 H161 0.931 . S
N136 Co132 2.148 . S
N136 C133 1.301 . S
N136 C134 1.317 . S
N137 C133 1.328 . S
N137 C135 1.350 . S
H138 C133 0.930 . S
H139 C134 0.930 . S
C140 O141 1.224 . S
C140 O159 1.247 . S
O141 C140 1.224 . S
N142 Co132 2.128 . S
N142 C143 1.355 . S
N142 C145 1.311 . S
C143 N142 1.355 . S
C143 C144 1.363 . S
C143 H155 0.929 1_455 S
C144 C143 1.363 . S
C144 N146 1.375 . S
C144 H162 0.931 1_455 S
C145 N142 1.311 . S
C145 N146 1.347 . S
C145 H156 0.929 . S
N146 C144 1.375 . S
N146 C145 1.347 . S
C147 C150 1.365 . S
C147 N152 1.328 1_655 S
C147 H153 0.929 . S
C148 C149 1.362 . S
C148 C151 1.378 1_655 S
C148 H163 0.929 . S
C149 C148 1.362 . S
C149 C150 1.366 . S
C150 C147 1.365 . S
C150 C149 1.366 . S
C150 H164 0.930 . S
C151 C148 1.378 1_455 S
C151 N152 1.315 . S
C151 H154 0.930 . S
N152 Co132 2.194 . S
N152 C147 1.328 1_455 S
N152 C151 1.315 . S
H153 C147 0.929 . S
H154 C151 0.930 . S
H155 C143 0.929 1_655 S
H156 C145 0.929 . S
O157 Co132 2.351 . S
O157 C160 1.244 . S
O158 Co132 2.155 . S
O158 C160 1.240 . S
O159 Co132 2.096 . S
O159 C140 1.247 . S
C160 O157 1.244 . S
C160 O158 1.240 . S
H161 C135 0.931 . S
H162 C144 0.931 1_655 S
H163 C148 0.929 . S
H164 C150 0.930 . S
Co165 N169 2.148 . S
Co165 N175 2.128 . S
Co165 N185 2.194 . S
Co165 O190 2.351 . S
Co165 O191 2.155 . S
Co165 O192 2.096 . S
C166 N169 1.301 . S
C166 N170 1.328 . S
C166 H171 0.930 . S
C167 C168 1.333 . S
C167 N169 1.317 . S
C167 H172 0.930 . S
C168 C167 1.333 . S
C168 N170 1.350 . S
C168 H194 0.931 . S
N169 Co165 2.148 . S
N169 C166 1.301 . S
N169 C167 1.317 . S
N170 C166 1.328 . S
N170 C168 1.350 . S
H171 C166 0.930 . S
H172 C167 0.930 . S
C173 O174 1.224 . S
C173 O192 1.247 . S
O174 C173 1.224 . S
N175 Co165 2.128 . S
N175 C176 1.355 1_556 S
N175 C178 1.311 1_556 S
C176 N175 1.355 1_554 S
C176 C177 1.363 . S
C176 H188 0.929 1_544 S
C177 C176 1.363 . S
C177 N179 1.375 . S
C177 H195 0.931 1_545 S
C178 N175 1.311 1_554 S
C178 N179 1.347 . S
C178 H189 0.929 . S
N179 C177 1.375 . S
N179 C178 1.347 . S
C180 C183 1.365 . S
C180 N185 1.328 1_565 S
C180 H186 0.929 . S
C181 C182 1.362 . S
C181 C184 1.378 1_565 S
C181 H196 0.929 . S
C182 C181 1.362 . S
C182 C183 1.366 . S
C183 C180 1.365 . S
C183 C182 1.366 . S
C183 H197 0.930 . S
C184 C181 1.378 1_545 S
C184 N185 1.315 . S
C184 H187 0.930 . S
N185 Co165 2.194 . S
N185 C180 1.328 1_545 S
N185 C184 1.315 . S
H186 C180 0.929 . S
H187 C184 0.930 . S
H188 C176 0.929 1_566 S
H189 C178 0.929 . S
O190 Co165 2.351 . S
O190 C193 1.244 . S
O191 Co165 2.155 . S
O191 C193 1.240 . S
O192 Co165 2.096 . S
O192 C173 1.247 . S
C193 O190 1.244 . S
C193 O191 1.240 . S
H194 C168 0.931 . S
H195 C177 0.931 1_565 S
H196 C181 0.929 . S
H197 C183 0.930 . S
Co198 N202 2.148 . S
Co198 N208 2.128 . S
Co198 N218 2.194 . S
Co198 O223 2.351 . S
Co198 O224 2.155 . S
Co198 O225 2.096 . S
C199 N202 1.301 . S
C199 N203 1.328 . S
C199 H204 0.930 . S
C200 C201 1.333 . S
C200 N202 1.317 . S
C200 H205 0.930 . S
C201 C200 1.333 . S
C201 N203 1.350 . S
C201 H227 0.931 . S
N202 Co198 2.148 . S
N202 C199 1.301 . S
N202 C200 1.317 . S
N203 C199 1.328 . S
N203 C201 1.350 . S
H204 C199 0.930 . S
H205 C200 0.930 . S
C206 O207 1.224 . S
C206 O225 1.247 . S
O207 C206 1.224 . S
N208 Co198 2.128 . S
N208 C209 1.355 . S
N208 C211 1.311 . S
C209 N208 1.355 . S
C209 C210 1.363 . S
C209 H221 0.929 . S
C210 C209 1.363 . S
C210 N212 1.375 . S
C210 H228 0.931 . S
C211 N208 1.311 . S
C211 N212 1.347 . S
C211 H222 0.929 . S
N212 C210 1.375 . S
N212 C211 1.347 . S
C213 C216 1.365 . S
C213 N218 1.328 . S
C213 H219 0.929 . S
C214 C215 1.362 . S
C214 C217 1.378 . S
C214 H229 0.929 . S
C215 C214 1.362 . S
C215 C216 1.366 . S
C216 C213 1.365 . S
C216 C215 1.366 . S
C216 H230 0.930 . S
C217 C214 1.378 . S
C217 N218 1.315 . S
C217 H220 0.930 . S
N218 Co198 2.194 . S
N218 C213 1.328 . S
N218 C217 1.315 . S
H219 C213 0.929 . S
H220 C217 0.930 . S
H221 C209 0.929 . S
H222 C211 0.929 . S
O223 Co198 2.351 . S
O223 C226 1.244 . S
O224 Co198 2.155 . S
O224 C226 1.240 . S
O225 Co198 2.096 . S
O225 C206 1.247 . S
C226 O223 1.244 . S
C226 O224 1.240 . S
H227 C201 0.931 . S
H228 C210 0.931 . S
H229 C214 0.929 . S
H230 C216 0.930 . S
Co231 N235 2.148 . S
Co231 N241 2.128 . S
Co231 N251 2.194 . S
Co231 O256 2.351 . S
Co231 O257 2.155 . S
Co231 O258 2.096 . S
C232 N235 1.301 . S
C232 N236 1.328 . S
C232 H237 0.930 . S
C233 C234 1.333 . S
C233 N235 1.317 . S
C233 H238 0.930 . S
C234 C233 1.333 . S
C234 N236 1.350 . S
C234 H260 0.931 . S
N235 Co231 2.148 . S
N235 C232 1.301 . S
N235 C233 1.317 . S
N236 C232 1.328 . S
N236 C234 1.350 . S
H237 C232 0.930 . S
H238 C233 0.930 . S
C239 O240 1.224 . S
C239 O258 1.247 . S
O240 C239 1.224 . S
N241 Co231 2.128 . S
N241 C242 1.355 1_556 S
N241 C244 1.311 1_556 S
C242 N241 1.355 1_554 S
C242 C243 1.363 . S
C242 H254 0.929 1_554 S
C243 C242 1.363 . S
C243 N245 1.375 . S
C243 H261 0.931 . S
C244 N241 1.311 1_554 S
C244 N245 1.347 . S
C244 H255 0.929 . S
N245 C243 1.375 . S
N245 C244 1.347 . S
C246 C249 1.365 . S
C246 N251 1.328 . S
C246 H252 0.929 . S
C247 C248 1.362 . S
C247 C250 1.378 . S
C247 H262 0.929 . S
C248 C247 1.362 . S
C248 C249 1.366 . S
C249 C246 1.365 . S
C249 C248 1.366 . S
C249 H263 0.930 . S
C250 C247 1.378 . S
C250 N251 1.315 . S
C250 H253 0.930 . S
N251 Co231 2.194 . S
N251 C246 1.328 . S
N251 C250 1.315 . S
H252 C246 0.929 . S
H253 C250 0.930 . S
H254 C242 0.929 1_556 S
H255 C244 0.929 . S
O256 Co231 2.351 . S
O256 C259 1.244 . S
O257 Co231 2.155 . S
O257 C259 1.240 . S
O258 Co231 2.096 . S
O258 C239 1.247 . S
C259 O256 1.244 . S
C259 O257 1.240 . S
H260 C234 0.931 . S
H261 C243 0.931 . S
H262 C247 0.929 . S
H263 C249 0.930 . S
Co264 N268 2.148 . S
Co264 N274 2.128 . S
Co264 N284 2.194 . S
Co264 O289 2.351 . S
Co264 O290 2.155 . S
Co264 O291 2.096 . S
C265 N268 1.301 . S
C265 N269 1.328 . S
C265 H270 0.930 . S
C266 C267 1.333 . S
C266 N268 1.317 . S
C266 H271 0.930 . S
C267 C266 1.333 . S
C267 N269 1.350 . S
C267 H293 0.931 . S
N268 Co264 2.148 . S
N268 C265 1.301 . S
N268 C266 1.317 . S
N269 C265 1.328 . S
N269 C267 1.350 . S
H270 C265 0.930 . S
H271 C266 0.930 . S
C272 O273 1.224 . S
C272 O291 1.247 . S
O273 C272 1.224 . S
N274 Co264 2.128 . S
N274 C275 1.355 1_556 S
N274 C277 1.311 1_556 S
C275 N274 1.355 1_554 S
C275 C276 1.363 . S
C275 H287 0.929 1_654 S
C276 C275 1.363 . S
C276 N278 1.375 . S
C276 H294 0.931 1_655 S
C277 N274 1.311 1_554 S
C277 N278 1.347 . S
C277 H288 0.929 . S
N278 C276 1.375 . S
N278 C277 1.347 . S
C279 C282 1.365 . S
C279 N284 1.328 1_455 S
C279 H285 0.929 . S
C280 C281 1.362 . S
C280 C283 1.378 1_455 S
C280 H295 0.929 . S
C281 C280 1.362 . S
C281 C282 1.366 . S
C282 C279 1.365 . S
C282 C281 1.366 . S
C282 H296 0.930 . S
C283 C280 1.378 1_655 S
C283 N284 1.315 . S
C283 H286 0.930 . S
N284 Co264 2.194 . S
N284 C279 1.328 1_655 S
N284 C283 1.315 . S
H285 C279 0.929 . S
H286 C283 0.930 . S
H287 C275 0.929 1_456 S
H288 C277 0.929 . S
O289 Co264 2.351 . S
O289 C292 1.244 . S
O290 Co264 2.155 . S
O290 C292 1.240 . S
O291 Co264 2.096 . S
O291 C272 1.247 . S
C292 O289 1.244 . S
C292 O290 1.240 . S
H293 C267 0.931 . S
H294 C276 0.931 1_455 S
H295 C280 0.929 . S
H296 C282 0.930 . S
Co297 N301 2.148 . S
Co297 N307 2.128 . S
Co297 N317 2.194 . S
Co297 O322 2.351 . S
Co297 O323 2.155 . S
Co297 O324 2.096 . S
C298 N301 1.301 . S
C298 N302 1.328 . S
C298 H303 0.930 . S
C299 C300 1.333 . S
C299 N301 1.317 . S
C299 H304 0.930 . S
C300 C299 1.333 . S
C300 N302 1.350 . S
C300 H326 0.931 . S
N301 Co297 2.148 . S
N301 C298 1.301 . S
N301 C299 1.317 . S
N302 C298 1.328 . S
N302 C300 1.350 . S
H303 C298 0.930 . S
H304 C299 0.930 . S
C305 O306 1.224 . S
C305 O324 1.247 . S
O306 C305 1.224 . S
N307 Co297 2.128 . S
N307 C308 1.355 . S
N307 C310 1.311 . S
C308 N307 1.355 . S
C308 C309 1.363 . S
C308 H320 0.929 1_565 S
C309 C308 1.363 . S
C309 N311 1.375 . S
C309 H327 0.931 1_565 S
C310 N307 1.311 . S
C310 N311 1.347 . S
C310 H321 0.929 . S
N311 C309 1.375 . S
N311 C310 1.347 . S
C312 C315 1.365 . S
C312 N317 1.328 1_545 S
C312 H318 0.929 . S
C313 C314 1.362 . S
C313 C316 1.378 1_545 S
C313 H328 0.929 . S
C314 C313 1.362 . S
C314 C315 1.366 . S
C315 C312 1.365 . S
C315 C314 1.366 . S
C315 H329 0.930 . S
C316 C313 1.378 1_565 S
C316 N317 1.315 . S
C316 H319 0.930 . S
N317 Co297 2.194 . S
N317 C312 1.328 1_565 S
N317 C316 1.315 . S
H318 C312 0.929 . S
H319 C316 0.930 . S
H320 C308 0.929 1_545 S
H321 C310 0.929 . S
O322 Co297 2.351 . S
O322 C325 1.244 . S
O323 Co297 2.155 . S
O323 C325 1.240 . S
O324 Co297 2.096 . S
O324 C305 1.247 . S
C325 O322 1.244 . S
C325 O323 1.240 . S
H326 C300 0.931 . S
H327 C309 0.931 1_545 S
H328 C313 0.929 . S
H329 C315 0.930 . S
Co330 N334 2.148 . S
Co330 N340 2.128 . S
Co330 N350 2.194 . S
Co330 O355 2.351 . S
Co330 O356 2.155 . S
Co330 O357 2.096 . S
C331 N334 1.301 . S
C331 N335 1.328 . S
C331 H336 0.930 . S
C332 C333 1.333 . S
C332 N334 1.317 . S
C332 H337 0.930 . S
C333 C332 1.333 . S
C333 N335 1.350 . S
C333 H359 0.931 . S
N334 Co330 2.148 . S
N334 C331 1.301 . S
N334 C332 1.317 . S
N335 C331 1.328 . S
N335 C333 1.350 . S
H336 C331 0.930 . S
H337 C332 0.930 . S
C338 O339 1.224 . S
C338 O357 1.247 . S
O339 C338 1.224 . S
N340 Co330 2.128 . S
N340 C341 1.355 1_556 S
N340 C343 1.311 1_556 S
C341 N340 1.355 1_554 S
C341 C342 1.363 . S
C341 H353 0.929 1_554 S
C342 C341 1.363 . S
C342 N344 1.375 . S
C342 H360 0.931 . S
C343 N340 1.311 1_554 S
C343 N344 1.347 . S
C343 H354 0.929 . S
N344 C342 1.375 . S
N344 C343 1.347 . S
C345 C348 1.365 . S
C345 N350 1.328 . S
C345 H351 0.929 . S
C346 C347 1.362 . S
C346 C349 1.378 . S
C346 H361 0.929 . S
C347 C346 1.362 . S
C347 C348 1.366 . S
C348 C345 1.365 . S
C348 C347 1.366 . S
C348 H362 0.930 . S
C349 C346 1.378 . S
C349 N350 1.315 . S
C349 H352 0.930 . S
N350 Co330 2.194 . S
N350 C345 1.328 . S
N350 C349 1.315 . S
H351 C345 0.929 . S
H352 C349 0.930 . S
H353 C341 0.929 1_556 S
H354 C343 0.929 . S
O355 Co330 2.351 . S
O355 C358 1.244 . S
O356 Co330 2.155 . S
O356 C358 1.240 . S
O357 Co330 2.096 . S
O357 C338 1.247 . S
C358 O355 1.244 . S
C358 O356 1.240 . S
H359 C333 0.931 . S
H360 C342 0.931 . S
H361 C346 0.929 . S
H362 C348 0.930 . S
Co363 N367 2.148 . S
Co363 N373 2.128 . S
Co363 N383 2.194 . S
Co363 O388 2.351 . S
Co363 O389 2.155 . S
Co363 O390 2.096 . S
C364 N367 1.301 . S
C364 N368 1.328 . S
C364 H369 0.930 . S
C365 C366 1.333 . S
C365 N367 1.317 . S
C365 H370 0.930 . S
C366 C365 1.333 . S
C366 N368 1.350 . S
C366 H392 0.931 . S
N367 Co363 2.148 . S
N367 C364 1.301 . S
N367 C365 1.317 . S
N368 C364 1.328 . S
N368 C366 1.350 . S
H369 C364 0.930 . S
H370 C365 0.930 . S
C371 O372 1.224 . S
C371 O390 1.247 . S
O372 C371 1.224 . S
N373 Co363 2.128 . S
N373 C374 1.355 . S
N373 C376 1.311 . S
C374 N373 1.355 . S
C374 C375 1.363 . S
C374 H386 0.929 . S
C375 C374 1.363 . S
C375 N377 1.375 . S
C375 H393 0.931 . S
C376 N373 1.311 . S
C376 N377 1.347 . S
C376 H387 0.929 . S
N377 C375 1.375 . S
N377 C376 1.347 . S
C378 C381 1.365 . S
C378 N383 1.328 . S
C378 H384 0.929 . S
C379 C380 1.362 . S
C379 C382 1.378 . S
C379 H394 0.929 . S
C380 C379 1.362 . S
C380 C381 1.366 . S
C381 C378 1.365 . S
C381 C380 1.366 . S
C381 H395 0.930 . S
C382 C379 1.378 . S
C382 N383 1.315 . S
C382 H385 0.930 . S
N383 Co363 2.194 . S
N383 C378 1.328 . S
N383 C382 1.315 . S
H384 C378 0.929 . S
H385 C382 0.930 . S
H386 C374 0.929 . S
H387 C376 0.929 . S
O388 Co363 2.351 . S
O388 C391 1.244 . S
O389 Co363 2.155 . S
O389 C391 1.240 . S
O390 Co363 2.096 . S
O390 C371 1.247 . S
C391 O388 1.244 . S
C391 O389 1.240 . S
H392 C366 0.931 . S
H393 C375 0.931 . S
H394 C379 0.929 . S
H395 C381 0.930 . S
Co396 N400 2.148 . S
Co396 N406 2.128 . S
Co396 N416 2.194 . S
Co396 O421 2.351 . S
Co396 O422 2.155 . S
Co396 O423 2.096 . S
C397 N400 1.301 . S
C397 N401 1.328 . S
C397 H402 0.930 . S
C398 C399 1.333 . S
C398 N400 1.317 . S
C398 H403 0.930 . S
C399 C398 1.333 . S
C399 N401 1.350 . S
C399 H425 0.931 . S
N400 Co396 2.148 . S
N400 C397 1.301 . S
N400 C398 1.317 . S
N401 C397 1.328 . S
N401 C399 1.350 . S
H402 C397 0.930 . S
H403 C398 0.930 . S
C404 O405 1.224 . S
C404 O423 1.247 . S
O405 C404 1.224 . S
N406 Co396 2.128 . S
N406 C407 1.355 . S
N406 C409 1.311 . S
C407 N406 1.355 . S
C407 C408 1.363 . S
C407 H419 0.929 1_655 S
C408 C407 1.363 . S
C408 N410 1.375 . S
C408 H426 0.931 1_655 S
C409 N406 1.311 . S
C409 N410 1.347 . S
C409 H420 0.929 . S
N410 C408 1.375 . S
N410 C409 1.347 . S
C411 C414 1.365 . S
C411 N416 1.328 1_455 S
C411 H417 0.929 . S
C412 C413 1.362 . S
C412 C415 1.378 1_455 S
C412 H427 0.929 . S
C413 C412 1.362 . S
C413 C414 1.366 . S
C414 C411 1.365 . S
C414 C413 1.366 . S
C414 H428 0.930 . S
C415 C412 1.378 1_655 S
C415 N416 1.315 . S
C415 H418 0.930 . S
N416 Co396 2.194 . S
N416 C411 1.328 1_655 S
N416 C415 1.315 . S
H417 C411 0.929 . S
H418 C415 0.930 . S
H419 C407 0.929 1_455 S
H420 C409 0.929 . S
O421 Co396 2.351 . S
O421 C424 1.244 . S
O422 Co396 2.155 . S
O422 C424 1.240 . S
O423 Co396 2.096 . S
O423 C404 1.247 . S
C424 O421 1.244 . S
C424 O422 1.240 . S
H425 C399 0.931 . S
H426 C408 0.931 1_455 S
H427 C412 0.929 . S
H428 C414 0.930 . S
Co429 N433 2.148 . S
Co429 N439 2.128 . S
Co429 N449 2.194 . S
Co429 O454 2.351 . S
Co429 O455 2.155 . S
Co429 O456 2.096 . S
C430 N433 1.301 . S
C430 N434 1.328 . S
C430 H435 0.930 . S
C431 C432 1.333 . S
C431 N433 1.317 . S
C431 H436 0.930 . S
C432 C431 1.333 . S
C432 N434 1.350 . S
C432 H458 0.931 . S
N433 Co429 2.148 . S
N433 C430 1.301 . S
N433 C431 1.317 . S
N434 C430 1.328 . S
N434 C432 1.350 . S
H435 C430 0.930 . S
H436 C431 0.930 . S
C437 O438 1.224 . S
C437 O456 1.247 . S
O438 C437 1.224 . S
N439 Co429 2.128 . S
N439 C440 1.355 1_554 S
N439 C442 1.311 1_554 S
C440 N439 1.355 1_556 S
C440 C441 1.363 . S
C440 H452 0.929 1_566 S
C441 C440 1.363 . S
C441 N443 1.375 . S
C441 H459 0.931 1_565 S
C442 N439 1.311 1_556 S
C442 N443 1.347 . S
C442 H453 0.929 . S
N443 C441 1.375 . S
N443 C442 1.347 . S
C444 C447 1.365 . S
C444 N449 1.328 1_545 S
C444 H450 0.929 . S
C445 C446 1.362 . S
C445 C448 1.378 1_545 S
C445 H460 0.929 . S
C446 C445 1.362 . S
C446 C447 1.366 . S
C447 C444 1.365 . S
C447 C446 1.366 . S
C447 H461 0.930 . S
C448 C445 1.378 1_565 S
C448 N449 1.315 . S
C448 H451 0.930 . S
N449 Co429 2.194 . S
N449 C444 1.328 1_565 S
N449 C448 1.315 . S
H450 C444 0.929 . S
H451 C448 0.930 . S
H452 C440 0.929 1_544 S
H453 C442 0.929 . S
O454 Co429 2.351 . S
O454 C457 1.244 . S
O455 Co429 2.155 . S
O455 C457 1.240 . S
O456 Co429 2.096 . S
O456 C437 1.247 . S
C457 O454 1.244 . S
C457 O455 1.240 . S
H458 C432 0.931 . S
H459 C441 0.931 1_545 S
H460 C445 0.929 . S
H461 C447 0.930 . S
Co462 N466 2.148 . S
Co462 N472 2.128 . S
Co462 N482 2.194 . S
Co462 O487 2.351 . S
Co462 O488 2.155 . S
Co462 O489 2.096 . S
C463 N466 1.301 . S
C463 N467 1.328 . S
C463 H468 0.930 . S
C464 C465 1.333 . S
C464 N466 1.317 . S
C464 H469 0.930 . S
C465 C464 1.333 . S
C465 N467 1.350 . S
C465 H491 0.931 . S
N466 Co462 2.148 . S
N466 C463 1.301 . S
N466 C464 1.317 . S
N467 C463 1.328 . S
N467 C465 1.350 . S
H468 C463 0.930 . S
H469 C464 0.930 . S
C470 O471 1.224 . S
C470 O489 1.247 . S
O471 C470 1.224 . S
N472 Co462 2.128 . S
N472 C473 1.355 . S
N472 C475 1.311 . S
C473 N472 1.355 . S
C473 C474 1.363 . S
C473 H485 0.929 . S
C474 C473 1.363 . S
C474 N476 1.375 . S
C474 H492 0.931 . S
C475 N472 1.311 . S
C475 N476 1.347 . S
C475 H486 0.929 . S
N476 C474 1.375 . S
N476 C475 1.347 . S
C477 C480 1.365 . S
C477 N482 1.328 . S
C477 H483 0.929 . S
C478 C479 1.362 . S
C478 C481 1.378 . S
C478 H493 0.929 . S
C479 C478 1.362 . S
C479 C480 1.366 . S
C480 C477 1.365 . S
C480 C479 1.366 . S
C480 H494 0.930 . S
C481 C478 1.378 . S
C481 N482 1.315 . S
C481 H484 0.930 . S
N482 Co462 2.194 . S
N482 C477 1.328 . S
N482 C481 1.315 . S
H483 C477 0.929 . S
H484 C481 0.930 . S
H485 C473 0.929 . S
H486 C475 0.929 . S
O487 Co462 2.351 . S
O487 C490 1.244 . S
O488 Co462 2.155 . S
O488 C490 1.240 . S
O489 Co462 2.096 . S
O489 C470 1.247 . S
C490 O487 1.244 . S
C490 O488 1.240 . S
H491 C465 0.931 . S
H492 C474 0.931 . S
H493 C478 0.929 . S
H494 C480 0.930 . S
Co495 N499 2.148 . S
Co495 N505 2.128 . S
Co495 N515 2.194 . S
Co495 O520 2.351 . S
Co495 O521 2.155 . S
Co495 O522 2.096 . S
C496 N499 1.301 . S
C496 N500 1.328 . S
C496 H501 0.930 . S
C497 C498 1.333 . S
C497 N499 1.317 . S
C497 H502 0.930 . S
C498 C497 1.333 . S
C498 N500 1.350 . S
C498 H524 0.931 . S
N499 Co495 2.148 . S
N499 C496 1.301 . S
N499 C497 1.317 . S
N500 C496 1.328 . S
N500 C498 1.350 . S
H501 C496 0.930 . S
H502 C497 0.930 . S
C503 O504 1.224 . S
C503 O522 1.247 . S
O504 C503 1.224 . S
N505 Co495 2.128 . S
N505 C506 1.355 1_554 S
N505 C508 1.311 1_554 S
C506 N505 1.355 1_556 S
C506 C507 1.363 . S
C506 H518 0.929 1_556 S
C507 C506 1.363 . S
C507 N509 1.375 . S
C507 H525 0.931 . S
C508 N505 1.311 1_556 S
C508 N509 1.347 . S
C508 H519 0.929 . S
N509 C507 1.375 . S
N509 C508 1.347 . S
C510 C513 1.365 . S
C510 N515 1.328 . S
C510 H516 0.929 . S
C511 C512 1.362 . S
C511 C514 1.378 . S
C511 H526 0.929 . S
C512 C511 1.362 . S
C512 C513 1.366 . S
C513 C510 1.365 . S
C513 C512 1.366 . S
C513 H527 0.930 . S
C514 C511 1.378 . S
C514 N515 1.315 . S
C514 H517 0.930 . S
N515 Co495 2.194 . S
N515 C510 1.328 . S
N515 C514 1.315 . S
H516 C510 0.929 . S
H517 C514 0.930 . S
H518 C506 0.929 1_554 S
H519 C508 0.929 . S
O520 Co495 2.351 . S
O520 C523 1.244 . S
O521 Co495 2.155 . S
O521 C523 1.240 . S
O522 Co495 2.096 . S
O522 C503 1.247 . S
C523 O520 1.244 . S
C523 O521 1.240 . S
H524 C498 0.931 . S
H525 C507 0.931 . S
H526 C511 0.929 . S
H527 C513 0.930 . S
H528 C540 0.930 . S
H529 C542 0.930 . S
H530 C543 0.930 . S
H531 C547 0.959 . S
H532 C547 0.959 . S
H533 C547 0.961 . S
H534 C548 0.960 . S
H535 C548 0.961 . S
H536 C548 0.959 . S
H537 C551 0.929 . S
H538 C552 0.931 . S
H539 C554 0.930 . S
C540 H528 0.930 . S
C540 C541 1.399 . S
C540 C545 1.399 . S
C541 C540 1.399 . S
C541 C542 1.376 . S
C542 H529 0.930 . S
C542 C541 1.376 . S
C542 C543 1.388 . S
C543 H530 0.930 . S
C543 C542 1.388 . S
C543 C544 1.390 . S
C544 C543 1.390 . S
C544 C545 1.394 . S
C544 C550 1.465 . S
C545 C540 1.399 . S
C545 C544 1.394 . S
C545 C546 1.516 . S
C546 C545 1.516 . S
C546 C547 1.502 . S
C546 C548 1.561 1_554 S
C546 C549 1.526 . S
C547 H531 0.959 . S
C547 H532 0.959 . S
C547 H533 0.961 . S
C547 C546 1.502 . S
C548 H534 0.960 . S
C548 H535 0.961 . S
C548 H536 0.959 . S
C548 C546 1.561 1_556 S
C549 C546 1.526 . S
C549 C550 1.396 . S
C549 C554 1.390 . S
C550 C544 1.465 . S
C550 C549 1.396 . S
C550 C551 1.399 . S
C551 H537 0.929 . S
C551 C550 1.399 . S
C551 C552 1.385 . S
C552 H538 0.931 . S
C552 C551 1.385 . S
C552 C553 1.389 . S
C553 C552 1.389 . S
C553 C554 1.387 . S
C554 H539 0.930 . S
C554 C549 1.390 . S
C554 C553 1.387 . S
H555 C567 0.930 . S
H556 C569 0.930 . S
H557 C570 0.930 . S
H558 C574 0.959 . S
H559 C574 0.959 . S
H560 C574 0.961 . S
H561 C575 0.960 . S
H562 C575 0.961 . S
H563 C575 0.959 . S
H564 C578 0.929 . S
H565 C579 0.931 . S
H566 C581 0.930 . S
C567 H555 0.930 . S
C567 C568 1.399 . S
C567 C572 1.399 . S
C568 C567 1.399 . S
C568 C569 1.376 . S
C569 H556 0.930 . S
C569 C568 1.376 . S
C569 C570 1.388 . S
C570 H557 0.930 . S
C570 C569 1.388 . S
C570 C571 1.390 . S
C571 C570 1.390 . S
C571 C572 1.394 . S
C571 C577 1.465 . S
C572 C567 1.399 . S
C572 C571 1.394 . S
C572 C573 1.516 . S
C573 C572 1.516 . S
C573 C574 1.502 . S
C573 C575 1.561 . S
C573 C576 1.526 . S
C574 H558 0.959 . S
C574 H559 0.959 . S
C574 H560 0.961 . S
C574 C573 1.502 . S
C575 H561 0.960 . S
C575 H562 0.961 . S
C575 H563 0.959 . S
C575 C573 1.561 . S
C576 C573 1.526 . S
C576 C577 1.396 . S
C576 C581 1.390 . S
C577 C571 1.465 . S
C577 C576 1.396 . S
C577 C578 1.399 . S
C578 H564 0.929 . S
C578 C577 1.399 . S
C578 C579 1.385 . S
C579 H565 0.931 . S
C579 C578 1.385 . S
C579 C580 1.389 . S
C580 C579 1.389 . S
C580 C581 1.387 . S
C581 H566 0.930 . S
C581 C576 1.390 . S
C581 C580 1.387 . S
H582 C594 0.930 . S
H583 C596 0.930 . S
H584 C597 0.930 . S
H585 C601 0.959 . S
H586 C601 0.959 1_556 S
H587 C601 0.961 1_556 S
H588 C602 0.960 . S
H589 C602 0.961 . S
H590 C602 0.959 1_554 S
H591 C605 0.929 . S
H592 C606 0.931 . S
H593 C608 0.930 . S
C594 H582 0.930 . S
C594 C595 1.399 . S
C594 C599 1.399 . S
C595 C594 1.399 . S
C595 C596 1.376 . S
C596 H583 0.930 . S
C596 C595 1.376 . S
C596 C597 1.388 . S
C597 H584 0.930 . S
C597 C596 1.388 . S
C597 C598 1.390 . S
C598 C597 1.390 . S
C598 C599 1.394 . S
C598 C604 1.465 . S
C599 C594 1.399 . S
C599 C598 1.394 . S
C599 C600 1.516 . S
C600 C599 1.516 . S
C600 C601 1.502 . S
C600 C602 1.561 1_554 S
C600 C603 1.526 . S
C601 H585 0.959 . S
C601 H586 0.959 1_554 S
C601 H587 0.961 1_554 S
C601 C600 1.502 . S
C602 H588 0.960 . S
C602 H589 0.961 . S
C602 H590 0.959 1_556 S
C602 C600 1.561 1_556 S
C603 C600 1.526 . S
C603 C604 1.396 . S
C603 C608 1.390 . S
C604 C598 1.465 . S
C604 C603 1.396 . S
C604 C605 1.399 . S
C605 H591 0.929 . S
C605 C604 1.399 . S
C605 C606 1.385 . S
C606 H592 0.931 . S
C606 C605 1.385 . S
C606 C607 1.389 . S
C607 C606 1.389 . S
C607 C608 1.387 . S
C608 H593 0.930 . S
C608 C603 1.390 . S
C608 C607 1.387 . S
H609 C621 0.930 . S
H610 C623 0.930 . S
H611 C624 0.930 . S
H612 C628 0.959 . S
H613 C628 0.959 . S
H614 C628 0.961 . S
H615 C629 0.960 . S
H616 C629 0.961 . S
H617 C629 0.959 . S
H618 C632 0.929 . S
H619 C633 0.931 . S
H620 C635 0.930 . S
C621 H609 0.930 . S
C621 C622 1.399 . S
C621 C626 1.399 . S
C622 C621 1.399 . S
C622 C623 1.376 . S
C623 H610 0.930 . S
C623 C622 1.376 . S
C623 C624 1.388 . S
C624 H611 0.930 . S
C624 C623 1.388 . S
C624 C625 1.390 . S
C625 C624 1.390 . S
C625 C626 1.394 . S
C625 C631 1.465 . S
C626 C621 1.399 . S
C626 C625 1.394 . S
C626 C627 1.516 . S
C627 C626 1.516 . S
C627 C628 1.502 . S
C627 C629 1.561 . S
C627 C630 1.526 . S
C628 H612 0.959 . S
C628 H613 0.959 . S
C628 H614 0.961 . S
C628 C627 1.502 . S
C629 H615 0.960 . S
C629 H616 0.961 . S
C629 H617 0.959 . S
C629 C627 1.561 . S
C630 C627 1.526 . S
C630 C631 1.396 . S
C630 C635 1.390 . S
C631 C625 1.465 . S
C631 C630 1.396 . S
C631 C632 1.399 . S
C632 H618 0.929 . S
C632 C631 1.399 . S
C632 C633 1.385 . S
C633 H619 0.931 . S
C633 C632 1.385 . S
C633 C634 1.389 . S
C634 C633 1.389 . S
C634 C635 1.387 . S
C635 H620 0.930 . S
C635 C630 1.390 . S
C635 C634 1.387 . S
H636 C648 0.930 . S
H637 C650 0.930 . S
H638 C651 0.930 . S
H639 C655 0.959 . S
H640 C655 0.959 . S
H641 C655 0.961 . S
H642 C656 0.960 . S
H643 C656 0.961 . S
H644 C656 0.959 . S
H645 C659 0.929 . S
H646 C660 0.931 . S
H647 C662 0.930 . S
C648 H636 0.930 . S
C648 C649 1.399 . S
C648 C653 1.399 . S
C649 C648 1.399 . S
C649 C650 1.376 . S
C650 H637 0.930 . S
C650 C649 1.376 . S
C650 C651 1.388 . S
C651 H638 0.930 . S
C651 C650 1.388 . S
C651 C652 1.390 . S
C652 C651 1.390 . S
C652 C653 1.394 . S
C652 C658 1.465 . S
C653 C648 1.399 . S
C653 C652 1.394 . S
C653 C654 1.516 . S
C654 C653 1.516 . S
C654 C655 1.502 . S
C654 C656 1.561 . S
C654 C657 1.526 . S
C655 H639 0.959 . S
C655 H640 0.959 . S
C655 H641 0.961 . S
C655 C654 1.502 . S
C656 H642 0.960 . S
C656 H643 0.961 . S
C656 H644 0.959 . S
C656 C654 1.561 . S
C657 C654 1.526 . S
C657 C658 1.396 . S
C657 C662 1.390 . S
C658 C652 1.465 . S
C658 C657 1.396 . S
C658 C659 1.399 . S
C659 H645 0.929 . S
C659 C658 1.399 . S
C659 C660 1.385 . S
C660 H646 0.931 . S
C660 C659 1.385 . S
C660 C661 1.389 . S
C661 C660 1.389 . S
C661 C662 1.387 . S
C662 H647 0.930 . S
C662 C657 1.390 . S
C662 C661 1.387 . S
H663 C675 0.930 . S
H664 C677 0.930 . S
H665 C678 0.930 . S
H666 C682 0.959 . S
H667 C682 0.959 . S
H668 C682 0.961 . S
H669 C683 0.960 . S
H670 C683 0.961 . S
H671 C683 0.959 . S
H672 C686 0.929 . S
H673 C687 0.931 . S
H674 C689 0.930 . S
C675 H663 0.930 . S
C675 C676 1.399 . S
C675 C680 1.399 . S
C676 C675 1.399 . S
C676 C677 1.376 . S
C677 H664 0.930 . S
C677 C676 1.376 . S
C677 C678 1.388 . S
C678 H665 0.930 . S
C678 C677 1.388 . S
C678 C679 1.390 . S
C679 C678 1.390 . S
C679 C680 1.394 . S
C679 C685 1.465 . S
C680 C675 1.399 . S
C680 C679 1.394 . S
C680 C681 1.516 . S
C681 C680 1.516 . S
C681 C682 1.502 . S
C681 C683 1.561 . S
C681 C684 1.526 . S
C682 H666 0.959 . S
C682 H667 0.959 . S
C682 H668 0.961 . S
C682 C681 1.502 . S
C683 H669 0.960 . S
C683 H670 0.961 . S
C683 H671 0.959 . S
C683 C681 1.561 . S
C684 C681 1.526 . S
C684 C685 1.396 . S
C684 C689 1.390 . S
C685 C679 1.465 . S
C685 C684 1.396 . S
C685 C686 1.399 . S
C686 H672 0.929 . S
C686 C685 1.399 . S
C686 C687 1.385 . S
C687 H673 0.931 . S
C687 C686 1.385 . S
C687 C688 1.389 . S
C688 C687 1.389 . S
C688 C689 1.387 . S
C689 H674 0.930 . S
C689 C684 1.390 . S
C689 C688 1.387 . S
H690 C702 0.930 . S
H691 C704 0.930 . S
H692 C705 0.930 . S
H693 C709 0.959 . S
H694 C709 0.959 . S
H695 C709 0.961 . S
H696 C710 0.960 . S
H697 C710 0.961 . S
H698 C710 0.959 . S
H699 C713 0.929 . S
H700 C714 0.931 . S
H701 C716 0.930 . S
C702 H690 0.930 . S
C702 C703 1.399 . S
C702 C707 1.399 . S
C703 C702 1.399 . S
C703 C704 1.376 . S
C704 H691 0.930 . S
C704 C703 1.376 . S
C704 C705 1.388 . S
C705 H692 0.930 . S
C705 C704 1.388 . S
C705 C706 1.390 . S
C706 C705 1.390 . S
C706 C707 1.394 . S
C706 C712 1.465 . S
C707 C702 1.399 . S
C707 C706 1.394 . S
C707 C708 1.516 . S
C708 C707 1.516 . S
C708 C709 1.502 . S
C708 C710 1.561 . S
C708 C711 1.526 . S
C709 H693 0.959 . S
C709 H694 0.959 . S
C709 H695 0.961 . S
C709 C708 1.502 . S
C710 H696 0.960 . S
C710 H697 0.961 . S
C710 H698 0.959 . S
C710 C708 1.561 . S
C711 C708 1.526 . S
C711 C712 1.396 . S
C711 C716 1.390 . S
C712 C706 1.465 . S
C712 C711 1.396 . S
C712 C713 1.399 . S
C713 H699 0.929 . S
C713 C712 1.399 . S
C713 C714 1.385 . S
C714 H700 0.931 . S
C714 C713 1.385 . S
C714 C715 1.389 . S
C715 C714 1.389 . S
C715 C716 1.387 . S
C716 H701 0.930 . S
C716 C711 1.390 . S
C716 C715 1.387 . S
H717 C729 0.930 . S
H718 C731 0.930 . S
H719 C732 0.930 . S
H720 C736 0.959 . S
H721 C736 0.959 1_554 S
H722 C736 0.961 1_554 S
H723 C737 0.960 1_554 S
H724 C737 0.961 1_554 S
H725 C737 0.959 . S
H726 C740 0.929 . S
H727 C741 0.931 . S
H728 C743 0.930 . S
C729 H717 0.930 . S
C729 C730 1.399 . S
C729 C734 1.399 . S
C730 C729 1.399 . S
C730 C731 1.376 . S
C731 H718 0.930 . S
C731 C730 1.376 . S
C731 C732 1.388 . S
C732 H719 0.930 . S
C732 C731 1.388 . S
C732 C733 1.390 . S
C733 C732 1.390 . S
C733 C734 1.394 . S
C733 C739 1.465 . S
C734 C729 1.399 . S
C734 C733 1.394 . S
C734 C735 1.516 . S
C735 C734 1.516 . S
C735 C736 1.502 . S
C735 C737 1.561 . S
C735 C738 1.526 . S
C736 H720 0.959 . S
C736 H721 0.959 1_556 S
C736 H722 0.961 1_556 S
C736 C735 1.502 . S
C737 H723 0.960 1_556 S
C737 H724 0.961 1_556 S
C737 H725 0.959 . S
C737 C735 1.561 . S
C738 C735 1.526 . S
C738 C739 1.396 . S
C738 C743 1.390 . S
C739 C733 1.465 . S
C739 C738 1.396 . S
C739 C740 1.399 . S
C740 H726 0.929 . S
C740 C739 1.399 . S
C740 C741 1.385 . S
C741 H727 0.931 . S
C741 C740 1.385 . S
C741 C742 1.389 . S
C742 C741 1.389 . S
C742 C743 1.387 . S
C743 H728 0.930 . S
C743 C738 1.390 . S
C743 C742 1.387 . S
H744 C756 0.930 . S
H745 C758 0.930 . S
H746 C759 0.930 . S
H747 C763 0.959 . S
H748 C763 0.959 . S
H749 C763 0.961 . S
H750 C764 0.960 . S
H751 C764 0.961 . S
H752 C764 0.959 . S
H753 C767 0.929 . S
H754 C768 0.931 . S
H755 C770 0.930 1_554 S
C756 H744 0.930 . S
C756 C757 1.399 . S
C756 C761 1.399 . S
C757 C756 1.399 . S
C757 C758 1.376 . S
C758 H745 0.930 . S
C758 C757 1.376 . S
C758 C759 1.388 1_554 S
C759 H746 0.930 . S
C759 C758 1.388 1_556 S
C759 C760 1.390 . S
C760 C759 1.390 . S
C760 C761 1.394 1_556 S
C760 C766 1.465 . S
C761 C756 1.399 . S
C761 C760 1.394 1_554 S
C761 C762 1.516 . S
C762 C761 1.516 . S
C762 C763 1.502 . S
C762 C764 1.561 . S
C762 C765 1.526 . S
C763 H747 0.959 . S
C763 H748 0.959 . S
C763 H749 0.961 . S
C763 C762 1.502 . S
C764 H750 0.960 . S
C764 H751 0.961 . S
C764 H752 0.959 . S
C764 C762 1.561 . S
C765 C762 1.526 . S
C765 C766 1.396 1_554 S
C765 C770 1.390 1_554 S
C766 C760 1.465 . S
C766 C765 1.396 1_556 S
C766 C767 1.399 . S
C767 H753 0.929 . S
C767 C766 1.399 . S
C767 C768 1.385 . S
C768 H754 0.931 . S
C768 C767 1.385 . S
C768 C769 1.389 . S
C769 C768 1.389 . S
C769 C770 1.387 . S
C770 H755 0.930 1_556 S
C770 C765 1.390 1_556 S
C770 C769 1.387 . S
H771 C783 0.930 . S
H772 C785 0.930 . S
H773 C786 0.930 . S
H774 C790 0.959 . S
H775 C790 0.959 . S
H776 C790 0.961 . S
H777 C791 0.960 . S
H778 C791 0.961 . S
H779 C791 0.959 . S
H780 C794 0.929 . S
H781 C795 0.931 . S
H782 C797 0.930 . S
C783 H771 0.930 . S
C783 C784 1.399 . S
C783 C788 1.399 . S
C784 C783 1.399 . S
C784 C785 1.376 . S
C785 H772 0.930 . S
C785 C784 1.376 . S
C785 C786 1.388 . S
C786 H773 0.930 . S
C786 C785 1.388 . S
C786 C787 1.390 . S
C787 C786 1.390 . S
C787 C788 1.394 . S
C787 C793 1.465 . S
C788 C783 1.399 . S
C788 C787 1.394 . S
C788 C789 1.516 . S
C789 C788 1.516 . S
C789 C790 1.502 . S
C789 C791 1.561 . S
C789 C792 1.526 . S
C790 H774 0.959 . S
C790 H775 0.959 . S
C790 H776 0.961 . S
C790 C789 1.502 . S
C791 H777 0.960 . S
C791 H778 0.961 . S
C791 H779 0.959 . S
C791 C789 1.561 . S
C792 C789 1.526 . S
C792 C793 1.396 . S
C792 C797 1.390 . S
C793 C787 1.465 . S
C793 C792 1.396 . S
C793 C794 1.399 . S
C794 H780 0.929 . S
C794 C793 1.399 . S
C794 C795 1.385 . S
C795 H781 0.931 . S
C795 C794 1.385 . S
C795 C796 1.389 . S
C796 C795 1.389 . S
C796 C797 1.387 . S
C797 H782 0.930 . S
C797 C792 1.390 . S
C797 C796 1.387 . S
H798 C810 0.930 1_556 S
H799 C812 0.930 . S
H800 C813 0.930 . S
H801 C817 0.959 . S
H802 C817 0.959 . S
H803 C817 0.961 . S
H804 C818 0.960 . S
H805 C818 0.961 . S
H806 C818 0.959 . S
H807 C821 0.929 . S
H808 C822 0.931 . S
H809 C824 0.930 . S
C810 H798 0.930 1_554 S
C810 C811 1.399 . S
C810 C815 1.399 1_554 S
C811 C810 1.399 . S
C811 C812 1.376 . S
C812 H799 0.930 . S
C812 C811 1.376 . S
C812 C813 1.388 . S
C813 H800 0.930 . S
C813 C812 1.388 . S
C813 C814 1.390 . S
C814 C813 1.390 . S
C814 C815 1.394 1_554 S
C814 C820 1.465 . S
C815 C810 1.399 1_556 S
C815 C814 1.394 1_556 S
C815 C816 1.516 . S
C816 C815 1.516 . S
C816 C817 1.502 . S
C816 C818 1.561 . S
C816 C819 1.526 . S
C817 H801 0.959 . S
C817 H802 0.959 . S
C817 H803 0.961 . S
C817 C816 1.502 . S
C818 H804 0.960 . S
C818 H805 0.961 . S
C818 H806 0.959 . S
C818 C816 1.561 . S
C819 C816 1.526 . S
C819 C820 1.396 1_556 S
C819 C824 1.390 . S
C820 C814 1.465 . S
C820 C819 1.396 1_554 S
C820 C821 1.399 . S
C821 H807 0.929 . S
C821 C820 1.399 . S
C821 C822 1.385 . S
C822 H808 0.931 . S
C822 C821 1.385 . S
C822 C823 1.389 1_554 S
C823 C822 1.389 1_556 S
C823 C824 1.387 . S
C824 H809 0.930 . S
C824 C819 1.390 . S
C824 C823 1.387 . S
H825 C837 0.930 . S
H826 C839 0.930 . S
H827 C840 0.930 . S
H828 C844 0.959 . S
H829 C844 0.959 . S
H830 C844 0.961 . S
H831 C845 0.960 . S
H832 C845 0.961 . S
H833 C845 0.959 . S
H834 C848 0.929 . S
H835 C849 0.931 . S
H836 C851 0.930 . S
C837 H825 0.930 . S
C837 C838 1.399 . S
C837 C842 1.399 . S
C838 C837 1.399 . S
C838 C839 1.376 . S
C839 H826 0.930 . S
C839 C838 1.376 . S
C839 C840 1.388 . S
C840 H827 0.930 . S
C840 C839 1.388 . S
C840 C841 1.390 . S
C841 C840 1.390 . S
C841 C842 1.394 . S
C841 C847 1.465 . S
C842 C837 1.399 . S
C842 C841 1.394 . S
C842 C843 1.516 . S
C843 C842 1.516 . S
C843 C844 1.502 . S
C843 C845 1.561 . S
C843 C846 1.526 . S
C844 H828 0.959 . S
C844 H829 0.959 . S
C844 H830 0.961 . S
C844 C843 1.502 . S
C845 H831 0.960 . S
C845 H832 0.961 . S
C845 H833 0.959 . S
C845 C843 1.561 . S
C846 C843 1.526 . S
C846 C847 1.396 . S
C846 C851 1.390 . S
C847 C841 1.465 . S
C847 C846 1.396 . S
C847 C848 1.399 . S
C848 H834 0.929 . S
C848 C847 1.399 . S
C848 C849 1.385 . S
C849 H835 0.931 . S
C849 C848 1.385 . S
C849 C850 1.389 . S
C850 C849 1.389 . S
C850 C851 1.387 . S
C851 H836 0.930 . S
C851 C846 1.390 . S
C851 C850 1.387 . S
H852 C864 0.930 1_556 S
H853 C866 0.930 . S
H854 C867 0.930 . S
H855 C871 0.959 . S
H856 C871 0.959 . S
H857 C871 0.961 . S
H858 C872 0.960 . S
H859 C872 0.961 . S
H860 C872 0.959 . S
H861 C875 0.929 . S
H862 C876 0.931 . S
H863 C878 0.930 . S
C864 H852 0.930 1_554 S
C864 C865 1.399 . S
C864 C869 1.399 1_554 S
C865 C864 1.399 . S
C865 C866 1.376 . S
C866 H853 0.930 . S
C866 C865 1.376 . S
C866 C867 1.388 . S
C867 H854 0.930 . S
C867 C866 1.388 . S
C867 C868 1.390 . S
C868 C867 1.390 . S
C868 C869 1.394 1_554 S
C868 C874 1.465 . S
C869 C864 1.399 1_556 S
C869 C868 1.394 1_556 S
C869 C870 1.516 . S
C870 C869 1.516 . S
C870 C871 1.502 . S
C870 C872 1.561 . S
C870 C873 1.526 . S
C871 H855 0.959 . S
C871 H856 0.959 . S
C871 H857 0.961 . S
C871 C870 1.502 . S
C872 H858 0.960 . S
C872 H859 0.961 . S
C872 H860 0.959 . S
C872 C870 1.561 . S
C873 C870 1.526 . S
C873 C874 1.396 1_556 S
C873 C878 1.390 . S
C874 C868 1.465 . S
C874 C873 1.396 1_554 S
C874 C875 1.399 . S
C875 H861 0.929 . S
C875 C874 1.399 . S
C875 C876 1.385 . S
C876 H862 0.931 . S
C876 C875 1.385 . S
C876 C877 1.389 1_554 S
C877 C876 1.389 1_556 S
C877 C878 1.387 . S
C878 H863 0.930 . S
C878 C873 1.390 . S
C878 C877 1.387 . S
H879 C891 0.930 . S
H880 C893 0.930 . S
H881 C894 0.930 . S
H882 C898 0.959 . S
H883 C898 0.959 . S
H884 C898 0.961 . S
H885 C899 0.960 . S
H886 C899 0.961 . S
H887 C899 0.959 . S
H888 C902 0.929 . S
H889 C903 0.931 . S
H890 C905 0.930 . S
C891 H879 0.930 . S
C891 C892 1.399 . S
C891 C896 1.399 . S
C892 C891 1.399 . S
C892 C893 1.376 . S
C893 H880 0.930 . S
C893 C892 1.376 . S
C893 C894 1.388 . S
C894 H881 0.930 . S
C894 C893 1.388 . S
C894 C895 1.390 . S
C895 C894 1.390 . S
C895 C896 1.394 . S
C895 C901 1.465 . S
C896 C891 1.399 . S
C896 C895 1.394 . S
C896 C897 1.516 . S
C897 C896 1.516 . S
C897 C898 1.502 . S
C897 C899 1.561 . S
C897 C900 1.526 . S
C898 H882 0.959 . S
C898 H883 0.959 . S
C898 H884 0.961 . S
C898 C897 1.502 . S
C899 H885 0.960 . S
C899 H886 0.961 . S
C899 H887 0.959 . S
C899 C897 1.561 . S
C900 C897 1.526 . S
C900 C901 1.396 . S
C900 C905 1.390 . S
C901 C895 1.465 . S
C901 C900 1.396 . S
C901 C902 1.399 . S
C902 H888 0.929 . S
C902 C901 1.399 . S
C902 C903 1.385 . S
C903 H889 0.931 . S
C903 C902 1.385 . S
C903 C904 1.389 . S
C904 C903 1.389 . S
C904 C905 1.387 . S
C905 H890 0.930 . S
C905 C900 1.390 . S
C905 C904 1.387 . S
H906 C918 0.930 . S
H907 C920 0.930 . S
H908 C921 0.930 . S
H909 C925 0.959 . S
H910 C925 0.959 . S
H911 C925 0.961 . S
H912 C926 0.960 . S
H913 C926 0.961 . S
H914 C926 0.959 . S
H915 C929 0.929 . S
H916 C930 0.931 . S
H917 C932 0.930 1_554 S
C918 H906 0.930 . S
C918 C919 1.399 . S
C918 C923 1.399 . S
C919 C918 1.399 . S
C919 C920 1.376 1_554 S
C920 H907 0.930 . S
C920 C919 1.376 1_556 S
C920 C921 1.388 . S
C921 H908 0.930 . S
C921 C920 1.388 . S
C921 C922 1.390 . S
C922 C921 1.390 . S
C922 C923 1.394 1_556 S
C922 C928 1.465 . S
C923 C918 1.399 . S
C923 C922 1.394 1_554 S
C923 C924 1.516 . S
C924 C923 1.516 . S
C924 C925 1.502 . S
C924 C926 1.561 . S
C924 C927 1.526 . S
C925 H909 0.959 . S
C925 H910 0.959 . S
C925 H911 0.961 . S
C925 C924 1.502 . S
C926 H912 0.960 . S
C926 H913 0.961 . S
C926 H914 0.959 . S
C926 C924 1.561 . S
C927 C924 1.526 . S
C927 C928 1.396 1_554 S
C927 C932 1.390 1_554 S
C928 C922 1.465 . S
C928 C927 1.396 1_556 S
C928 C929 1.399 . S
C929 H915 0.929 . S
C929 C928 1.399 . S
C929 C930 1.385 . S
C930 H916 0.931 . S
C930 C929 1.385 . S
C930 C931 1.389 . S
C931 C930 1.389 . S
C931 C932 1.387 . S
C932 H917 0.930 1_556 S
C932 C927 1.390 1_556 S
C932 C931 1.387 . S
H933 C945 0.930 . S
H934 C947 0.930 . S
H935 C948 0.930 . S
H936 C952 0.959 . S
H937 C952 0.959 . S
H938 C952 0.961 . S
H939 C953 0.960 . S
H940 C953 0.961 . S
H941 C953 0.959 . S
H942 C956 0.929 . S
H943 C957 0.931 . S
H944 C959 0.930 . S
C945 H933 0.930 . S
C945 C946 1.399 . S
C945 C950 1.399 . S
C946 C945 1.399 . S
C946 C947 1.376 . S
C947 H934 0.930 . S
C947 C946 1.376 . S
C947 C948 1.388 . S
C948 H935 0.930 . S
C948 C947 1.388 . S
C948 C949 1.390 . S
C949 C948 1.390 . S
C949 C950 1.394 . S
C949 C955 1.465 . S
C950 C945 1.399 . S
C950 C949 1.394 . S
C950 C951 1.516 . S
C951 C950 1.516 . S
C951 C952 1.502 . S
C951 C953 1.561 . S
C951 C954 1.526 . S
C952 H936 0.959 . S
C952 H937 0.959 . S
C952 H938 0.961 . S
C952 C951 1.502 . S
C953 H939 0.960 . S
C953 H940 0.961 . S
C953 H941 0.959 . S
C953 C951 1.561 . S
C954 C951 1.526 . S
C954 C955 1.396 . S
C954 C959 1.390 . S
C955 C949 1.465 . S
C955 C954 1.396 . S
C955 C956 1.399 . S
C956 H942 0.929 . S
C956 C955 1.399 . S
C956 C957 1.385 . S
C957 H943 0.931 . S
C957 C956 1.385 . S
C957 C958 1.389 . S
C958 C957 1.389 . S
C958 C959 1.387 . S
C959 H944 0.930 . S
C959 C954 1.390 . S
C959 C958 1.387 . S
H960 C972 0.930 . S
H961 C974 0.930 1_655 S
H962 C975 0.930 1_655 S
H963 C979 0.959 . S
H964 C979 0.959 . S
H965 C979 0.961 . S
H966 C980 0.960 . S
H967 C980 0.961 . S
H968 C980 0.959 . S
H969 C983 0.929 1_655 S
H970 C984 0.931 1_655 S
H971 C986 0.930 . S
C972 H960 0.930 . S
C972 C973 1.399 . S
C972 C977 1.399 . S
C973 C972 1.399 . S
C973 C974 1.376 . S
C974 H961 0.930 1_455 S
C974 C973 1.376 . S
C974 C975 1.388 . S
C975 H962 0.930 1_455 S
C975 C974 1.388 . S
C975 C976 1.390 . S
C976 C975 1.390 . S
C976 C977 1.394 . S
C976 C982 1.465 . S
C977 C972 1.399 . S
C977 C976 1.394 . S
C977 C978 1.516 . S
C978 C977 1.516 . S
C978 C979 1.502 . S
C978 C980 1.561 . S
C978 C981 1.526 . S
C979 H963 0.959 . S
C979 H964 0.959 . S
C979 H965 0.961 . S
C979 C978 1.502 . S
C980 H966 0.960 . S
C980 H967 0.961 . S
C980 H968 0.959 . S
C980 C978 1.561 . S
C981 C978 1.526 . S
C981 C982 1.396 . S
C981 C986 1.390 . S
C982 C976 1.465 . S
C982 C981 1.396 . S
C982 C983 1.399 . S
C983 H969 0.929 1_455 S
C983 C982 1.399 . S
C983 C984 1.385 . S
C984 H970 0.931 1_455 S
C984 C983 1.385 . S
C984 C985 1.389 . S
C985 C984 1.389 . S
C985 C986 1.387 . S
C986 H971 0.930 . S
C986 C981 1.390 . S
C986 C985 1.387 . S
H987 C999 0.930 1_565 S
H988 C1001 0.930 . S
H989 C1002 0.930 . S
H990 C1006 0.959 . S
H991 C1006 0.959 . S
H992 C1006 0.961 . S
H993 C1007 0.960 . S
H994 C1007 0.961 . S
H995 C1007 0.959 . S
H996 C1010 0.929 . S
H997 C1011 0.931 . S
H998 C1013 0.930 1_565 S
C999 H987 0.930 1_545 S
C999 C1000 1.399 . S
C999 C1004 1.399 . S
C1000 C999 1.399 . S
C1000 C1001 1.376 . S
C1001 H988 0.930 . S
C1001 C1000 1.376 . S
C1001 C1002 1.388 . S
C1002 H989 0.930 . S
C1002 C1001 1.388 . S
C1002 C1003 1.390 . S
C1003 C1002 1.390 . S
C1003 C1004 1.394 . S
C1003 C1009 1.465 . S
C1004 C999 1.399 . S
C1004 C1003 1.394 . S
C1004 C1005 1.516 1_545 S
C1005 C1004 1.516 1_565 S
C1005 C1006 1.502 . S
C1005 C1007 1.561 . S
C1005 C1008 1.526 1_565 S
C1006 H990 0.959 . S
C1006 H991 0.959 . S
C1006 H992 0.961 . S
C1006 C1005 1.502 . S
C1007 H993 0.960 . S
C1007 H994 0.961 . S
C1007 H995 0.959 . S
C1007 C1005 1.561 . S
C1008 C1005 1.526 1_545 S
C1008 C1009 1.396 . S
C1008 C1013 1.390 . S
C1009 C1003 1.465 . S
C1009 C1008 1.396 . S
C1009 C1010 1.399 . S
C1010 H996 0.929 . S
C1010 C1009 1.399 . S
C1010 C1011 1.385 . S
C1011 H997 0.931 . S
C1011 C1010 1.385 . S
C1011 C1012 1.389 . S
C1012 C1011 1.389 . S
C1012 C1013 1.387 . S
C1013 H998 0.930 1_545 S
C1013 C1008 1.390 . S
C1013 C1012 1.387 . S
H1014 C1026 0.930 . S
H1015 C1028 0.930 . S
H1016 C1029 0.930 . S
H1017 C1033 0.959 . S
H1018 C1033 0.959 . S
H1019 C1033 0.961 . S
H1020 C1034 0.960 . S
H1021 C1034 0.961 . S
H1022 C1034 0.959 . S
H1023 C1037 0.929 . S
H1024 C1038 0.931 . S
H1025 C1040 0.930 . S
C1026 H1014 0.930 . S
C1026 C1027 1.399 . S
C1026 C1031 1.399 . S
C1027 C1026 1.399 . S
C1027 C1028 1.376 . S
C1028 H1015 0.930 . S
C1028 C1027 1.376 . S
C1028 C1029 1.388 . S
C1029 H1016 0.930 . S
C1029 C1028 1.388 . S
C1029 C1030 1.390 . S
C1030 C1029 1.390 . S
C1030 C1031 1.394 . S
C1030 C1036 1.465 . S
C1031 C1026 1.399 . S
C1031 C1030 1.394 . S
C1031 C1032 1.516 . S
C1032 C1031 1.516 . S
C1032 C1033 1.502 . S
C1032 C1034 1.561 . S
C1032 C1035 1.526 . S
C1033 H1017 0.959 . S
C1033 H1018 0.959 . S
C1033 H1019 0.961 . S
C1033 C1032 1.502 . S
C1034 H1020 0.960 . S
C1034 H1021 0.961 . S
C1034 H1022 0.959 . S
C1034 C1032 1.561 . S
C1035 C1032 1.526 . S
C1035 C1036 1.396 . S
C1035 C1040 1.390 . S
C1036 C1030 1.465 . S
C1036 C1035 1.396 . S
C1036 C1037 1.399 . S
C1037 H1023 0.929 . S
C1037 C1036 1.399 . S
C1037 C1038 1.385 . S
C1038 H1024 0.931 . S
C1038 C1037 1.385 . S
C1038 C1039 1.389 . S
C1039 C1038 1.389 . S
C1039 C1040 1.387 . S
C1040 H1025 0.930 . S
C1040 C1035 1.390 . S
C1040 C1039 1.387 . S
H1041 C1053 0.930 . S
H1042 C1055 0.930 . S
H1043 C1056 0.930 . S
H1044 C1060 0.959 . S
H1045 C1060 0.959 . S
H1046 C1060 0.961 . S
H1047 C1061 0.960 . S
H1048 C1061 0.961 . S
H1049 C1061 0.959 . S
H1050 C1064 0.929 . S
H1051 C1065 0.931 . S
H1052 C1067 0.930 . S
C1053 H1041 0.930 . S
C1053 C1054 1.399 . S
C1053 C1058 1.399 . S
C1054 C1053 1.399 . S
C1054 C1055 1.376 . S
C1055 H1042 0.930 . S
C1055 C1054 1.376 . S
C1055 C1056 1.388 . S
C1056 H1043 0.930 . S
C1056 C1055 1.388 . S
C1056 C1057 1.390 . S
C1057 C1056 1.390 . S
C1057 C1058 1.394 . S
C1057 C1063 1.465 . S
C1058 C1053 1.399 . S
C1058 C1057 1.394 . S
C1058 C1059 1.516 . S
C1059 C1058 1.516 . S
C1059 C1060 1.502 . S
C1059 C1061 1.561 . S
C1059 C1062 1.526 . S
C1060 H1044 0.959 . S
C1060 H1045 0.959 . S
C1060 H1046 0.961 . S
C1060 C1059 1.502 . S
C1061 H1047 0.960 . S
C1061 H1048 0.961 . S
C1061 H1049 0.959 . S
C1061 C1059 1.561 . S
C1062 C1059 1.526 . S
C1062 C1063 1.396 . S
C1062 C1067 1.390 . S
C1063 C1057 1.465 . S
C1063 C1062 1.396 . S
C1063 C1064 1.399 . S
C1064 H1050 0.929 . S
C1064 C1063 1.399 . S
C1064 C1065 1.385 . S
C1065 H1051 0.931 . S
C1065 C1064 1.385 . S
C1065 C1066 1.389 . S
C1066 C1065 1.389 . S
C1066 C1067 1.387 . S
C1067 H1052 0.930 . S
C1067 C1062 1.390 . S
C1067 C1066 1.387 . S
H1068 C1080 0.930 . S
H1069 C1082 0.930 . S
H1070 C1083 0.930 . S
H1071 C1087 0.959 . S
H1072 C1087 0.959 . S
H1073 C1087 0.961 . S
H1074 C1088 0.960 . S
H1075 C1088 0.961 . S
H1076 C1088 0.960 . S
H1077 C1091 0.929 . S
H1078 C1092 0.931 . S
H1079 C1094 0.930 . S
C1080 H1068 0.930 . S
C1080 C1081 1.399 . S
C1080 C1085 1.399 . S
C1081 C1080 1.399 . S
C1081 C1082 1.376 . S
C1082 H1069 0.930 . S
C1082 C1081 1.376 . S
C1082 C1083 1.388 . S
C1083 H1070 0.930 . S
C1083 C1082 1.388 . S
C1083 C1084 1.390 . S
C1084 C1083 1.390 . S
C1084 C1085 1.394 . S
C1084 C1090 1.465 . S
C1085 C1080 1.399 . S
C1085 C1084 1.394 . S
C1085 C1086 1.516 . S
C1086 C1085 1.516 . S
C1086 C1087 1.502 . S
C1086 C1088 1.561 . S
C1086 C1089 1.526 . S
C1087 H1071 0.959 . S
C1087 H1072 0.959 . S
C1087 H1073 0.961 . S
C1087 C1086 1.502 . S
C1088 H1074 0.960 . S
C1088 H1075 0.961 . S
C1088 H1076 0.960 . S
C1088 C1086 1.561 . S
C1089 C1086 1.526 . S
C1089 C1090 1.396 . S
C1089 C1094 1.390 . S
C1090 C1084 1.465 . S
C1090 C1089 1.396 . S
C1090 C1091 1.399 . S
C1091 H1077 0.929 . S
C1091 C1090 1.399 . S
C1091 C1092 1.385 . S
C1092 H1078 0.931 . S
C1092 C1091 1.385 . S
C1092 C1093 1.389 . S
C1093 C1092 1.389 . S
C1093 C1094 1.387 . S
C1094 H1079 0.930 . S
C1094 C1089 1.390 . S
C1094 C1093 1.387 . S
H1095 C1107 0.930 . S
H1096 C1109 0.930 1_545 S
H1097 C1110 0.930 . S
H1098 C1114 0.959 . S
H1099 C1114 0.959 . S
H1100 C1114 0.961 . S
H1101 C1115 0.960 . S
H1102 C1115 0.961 . S
H1103 C1115 0.959 . S
H1104 C1118 0.929 . S
H1105 C1119 0.931 1_545 S
H1106 C1121 0.930 . S
C1107 H1095 0.930 . S
C1107 C1108 1.399 . S
C1107 C1112 1.399 . S
C1108 C1107 1.399 . S
C1108 C1109 1.376 . S
C1109 H1096 0.930 1_565 S
C1109 C1108 1.376 . S
C1109 C1110 1.388 1_565 S
C1110 H1097 0.930 . S
C1110 C1109 1.388 1_545 S
C1110 C1111 1.390 1_545 S
C1111 C1110 1.390 1_565 S
C1111 C1112 1.394 . S
C1111 C1117 1.465 . S
C1112 C1107 1.399 . S
C1112 C1111 1.394 . S
C1112 C1113 1.516 . S
C1113 C1112 1.516 . S
C1113 C1114 1.502 . S
C1113 C1115 1.561 . S
C1113 C1116 1.526 . S
C1114 H1098 0.959 . S
C1114 H1099 0.959 . S
C1114 H1100 0.961 . S
C1114 C1113 1.502 . S
C1115 H1101 0.960 . S
C1115 H1102 0.961 . S
C1115 H1103 0.959 . S
C1115 C1113 1.561 . S
C1116 C1113 1.526 . S
C1116 C1117 1.396 . S
C1116 C1121 1.390 . S
C1117 C1111 1.465 . S
C1117 C1116 1.396 . S
C1117 C1118 1.399 1_565 S
C1118 H1104 0.929 . S
C1118 C1117 1.399 1_545 S
C1118 C1119 1.385 1_545 S
C1119 H1105 0.931 1_565 S
C1119 C1118 1.385 1_565 S
C1119 C1120 1.389 . S
C1120 C1119 1.389 . S
C1120 C1121 1.387 . S
C1121 H1106 0.930 . S
C1121 C1116 1.390 . S
C1121 C1120 1.387 . S
H1122 C1134 0.930 . S
H1123 C1136 0.930 . S
H1124 C1137 0.930 . S
H1125 C1141 0.959 . S
H1126 C1141 0.959 . S
H1127 C1141 0.961 . S
H1128 C1142 0.960 . S
H1129 C1142 0.961 . S
H1130 C1142 0.959 . S
H1131 C1145 0.929 . S
H1132 C1146 0.931 . S
H1133 C1148 0.930 . S
C1134 H1122 0.930 . S
C1134 C1135 1.399 . S
C1134 C1139 1.399 . S
C1135 C1134 1.399 . S
C1135 C1136 1.376 . S
C1136 H1123 0.930 . S
C1136 C1135 1.376 . S
C1136 C1137 1.388 . S
C1137 H1124 0.930 . S
C1137 C1136 1.388 . S
C1137 C1138 1.390 . S
C1138 C1137 1.390 . S
C1138 C1139 1.394 . S
C1138 C1144 1.465 . S
C1139 C1134 1.399 . S
C1139 C1138 1.394 . S
C1139 C1140 1.516 . S
C1140 C1139 1.516 . S
C1140 C1141 1.502 . S
C1140 C1142 1.561 . S
C1140 C1143 1.526 . S
C1141 H1125 0.959 . S
C1141 H1126 0.959 . S
C1141 H1127 0.961 . S
C1141 C1140 1.502 . S
C1142 H1128 0.960 . S
C1142 H1129 0.961 . S
C1142 H1130 0.959 . S
C1142 C1140 1.561 . S
C1143 C1140 1.526 . S
C1143 C1144 1.396 . S
C1143 C1148 1.390 . S
C1144 C1138 1.465 . S
C1144 C1143 1.396 . S
C1144 C1145 1.399 . S
C1145 H1131 0.929 . S
C1145 C1144 1.399 . S
C1145 C1146 1.385 . S
C1146 H1132 0.931 . S
C1146 C1145 1.385 . S
C1146 C1147 1.389 . S
C1147 C1146 1.389 . S
C1147 C1148 1.387 . S
C1148 H1133 0.930 . S
C1148 C1143 1.390 . S
C1148 C1147 1.387 . S
H1149 C1161 0.930 . S
H1150 C1163 0.930 . S
H1151 C1164 0.930 . S
H1152 C1168 0.959 . S
H1153 C1168 0.959 . S
H1154 C1168 0.961 . S
H1155 C1169 0.960 . S
H1156 C1169 0.961 . S
H1157 C1169 0.959 . S
H1158 C1172 0.929 . S
H1159 C1173 0.931 . S
H1160 C1175 0.930 . S
C1161 H1149 0.930 . S
C1161 C1162 1.399 . S
C1161 C1166 1.399 . S
C1162 C1161 1.399 . S
C1162 C1163 1.376 . S
C1163 H1150 0.930 . S
C1163 C1162 1.376 . S
C1163 C1164 1.388 . S
C1164 H1151 0.930 . S
C1164 C1163 1.388 . S
C1164 C1165 1.390 . S
C1165 C1164 1.390 . S
C1165 C1166 1.394 . S
C1165 C1171 1.465 . S
C1166 C1161 1.399 . S
C1166 C1165 1.394 . S
C1166 C1167 1.516 . S
C1167 C1166 1.516 . S
C1167 C1168 1.502 . S
C1167 C1169 1.561 . S
C1167 C1170 1.526 . S
C1168 H1152 0.959 . S
C1168 H1153 0.959 . S
C1168 H1154 0.961 . S
C1168 C1167 1.502 . S
C1169 H1155 0.960 . S
C1169 H1156 0.961 . S
C1169 H1157 0.959 . S
C1169 C1167 1.561 . S
C1170 C1167 1.526 . S
C1170 C1171 1.396 . S
C1170 C1175 1.390 . S
C1171 C1165 1.465 . S
C1171 C1170 1.396 . S
C1171 C1172 1.399 . S
C1172 H1158 0.929 . S
C1172 C1171 1.399 . S
C1172 C1173 1.385 . S
C1173 H1159 0.931 . S
C1173 C1172 1.385 . S
C1173 C1174 1.389 . S
C1174 C1173 1.389 . S
C1174 C1175 1.387 . S
C1175 H1160 0.930 . S
C1175 C1170 1.390 . S
C1175 C1174 1.387 . S
H1176 C1188 0.930 . S
H1177 C1190 0.930 . S
H1178 C1191 0.940 . S
H1179 C1195 0.959 . S
H1180 C1195 0.959 . S
H1181 C1195 0.961 . S
H1182 C1196 0.960 . S
H1183 C1196 0.961 . S
H1184 C1196 0.959 . S
H1185 C1199 0.929 . S
H1186 C1200 0.931 . S
H1187 C1202 0.930 . S
C1188 H1176 0.930 . S
C1188 C1189 1.399 . S
C1188 C1193 1.399 . S
C1189 C1188 1.399 . S
C1189 C1190 1.376 . S
C1190 H1177 0.930 . S
C1190 C1189 1.376 . S
C1190 C1191 1.388 . S
C1191 H1178 0.940 . S
C1191 C1190 1.388 . S
C1191 C1192 1.390 . S
C1192 C1191 1.390 . S
C1192 C1193 1.394 . S
C1192 C1198 1.465 . S
C1193 C1188 1.399 . S
C1193 C1192 1.394 . S
C1193 C1194 1.516 . S
C1194 C1193 1.516 . S
C1194 C1195 1.502 . S
C1194 C1196 1.561 . S
C1194 C1197 1.526 . S
C1195 H1179 0.959 . S
C1195 H1180 0.959 . S
C1195 H1181 0.961 . S
C1195 C1194 1.502 . S
C1196 H1182 0.960 . S
C1196 H1183 0.961 . S
C1196 H1184 0.959 . S
C1196 C1194 1.561 . S
C1197 C1194 1.526 . S
C1197 C1198 1.396 . S
C1197 C1202 1.390 . S
C1198 C1192 1.465 . S
C1198 C1197 1.396 . S
C1198 C1199 1.399 . S
C1199 H1185 0.929 . S
C1199 C1198 1.399 . S
C1199 C1200 1.385 . S
C1200 H1186 0.931 . S
C1200 C1199 1.385 . S
C1200 C1201 1.389 . S
C1201 C1200 1.389 . S
C1201 C1202 1.387 . S
C1202 H1187 0.930 . S
C1202 C1197 1.390 . S
C1202 C1201 1.387 . S
H1203 C1215 0.930 . S
H1204 C1217 0.930 . S
H1205 C1218 0.930 . S
H1206 C1222 0.959 1_545 S
H1207 C1222 0.959 . S
H1208 C1222 0.961 . S
H1209 C1223 0.960 . S
H1210 C1223 0.961 . S
H1211 C1223 0.959 . S
H1212 C1226 0.929 . S
H1213 C1227 0.931 . S
H1214 C1229 0.976 . S
C1215 H1203 0.930 . S
C1215 C1216 1.399 . S
C1215 C1220 1.399 1_556 S
C1216 C1215 1.399 . S
C1216 C1217 1.376 . S
C1217 H1204 0.930 . S
C1217 C1216 1.376 . S
C1217 C1218 1.388 1_556 S
C1218 H1205 0.930 . S
C1218 C1217 1.388 1_554 S
C1218 C1219 1.390 . S
C1219 C1218 1.390 . S
C1219 C1220 1.394 . S
C1219 C1225 1.465 . S
C1220 C1215 1.399 1_554 S
C1220 C1219 1.394 . S
C1220 C1221 1.516 . S
C1221 C1220 1.516 . S
C1221 C1222 1.502 1_545 S
C1221 C1223 1.561 1_545 S
C1221 C1224 1.526 . S
C1222 H1206 0.959 1_565 S
C1222 H1207 0.959 . S
C1222 H1208 0.961 . S
C1222 C1221 1.502 1_565 S
C1223 H1209 0.960 . S
C1223 H1210 0.961 . S
C1223 H1211 0.959 . S
C1223 C1221 1.561 1_565 S
C1224 C1221 1.526 . S
C1224 C1225 1.396 . S
C1224 C1229 1.390 . S
C1225 C1219 1.465 . S
C1225 C1224 1.396 . S
C1225 C1226 1.399 . S
C1226 H1212 0.929 . S
C1226 C1225 1.399 . S
C1226 C1227 1.385 . S
C1227 H1213 0.931 . S
C1227 C1226 1.385 . S
C1227 C1228 1.389 . S
C1228 C1227 1.389 . S
C1228 C1229 1.387 . S
C1229 H1214 0.976 . S
C1229 C1224 1.390 . S
C1229 C1228 1.387 . S
H1230 C1242 0.930 . S
H1231 C1244 0.930 . S
H1232 C1245 0.930 . S
H1233 C1249 0.959 . S
H1234 C1249 0.959 . S
H1235 C1249 0.961 . S
H1236 C1250 0.960 . S
H1237 C1250 0.961 . S
H1238 C1250 0.959 . S
H1239 C1253 0.929 . S
H1240 C1254 0.931 . S
H1241 C1256 0.930 . S
C1242 H1230 0.930 . S
C1242 C1243 1.399 . S
C1242 C1247 1.399 . S
C1243 C1242 1.399 . S
C1243 C1244 1.376 . S
C1244 H1231 0.930 . S
C1244 C1243 1.376 . S
C1244 C1245 1.388 . S
C1245 H1232 0.930 . S
C1245 C1244 1.388 . S
C1245 C1246 1.390 . S
C1246 C1245 1.390 . S
C1246 C1247 1.394 . S
C1246 C1252 1.465 . S
C1247 C1242 1.399 . S
C1247 C1246 1.394 . S
C1247 C1248 1.516 . S
C1248 C1247 1.516 . S
C1248 C1249 1.502 . S
C1248 C1250 1.561 . S
C1248 C1251 1.526 . S
C1249 H1233 0.959 . S
C1249 H1234 0.959 . S
C1249 H1235 0.961 . S
C1249 C1248 1.502 . S
C1250 H1236 0.960 . S
C1250 H1237 0.961 . S
C1250 H1238 0.959 . S
C1250 C1248 1.561 . S
C1251 C1248 1.526 . S
C1251 C1252 1.396 . S
C1251 C1256 1.390 . S
C1252 C1246 1.465 . S
C1252 C1251 1.396 . S
C1252 C1253 1.399 . S
C1253 H1239 0.929 . S
C1253 C1252 1.399 . S
C1253 C1254 1.385 . S
C1254 H1240 0.931 . S
C1254 C1253 1.385 . S
C1254 C1255 1.389 . S
C1255 C1254 1.389 . S
C1255 C1256 1.387 . S
C1256 H1241 0.930 . S
C1256 C1251 1.390 . S
C1256 C1255 1.387 . S
H1257 C1269 0.930 . S
H1258 C1271 0.930 . S
H1259 C1272 0.930 . S
H1260 C1276 0.959 . S
H1261 C1276 0.959 . S
H1262 C1276 0.961 . S
H1263 C1277 0.960 . S
H1264 C1277 0.961 . S
H1265 C1277 0.959 . S
H1266 C1280 0.929 . S
H1267 C1281 0.931 . S
H1268 C1283 0.930 . S
C1269 H1257 0.930 . S
C1269 C1270 1.399 . S
C1269 C1274 1.399 1_556 S
C1270 C1269 1.399 . S
C1270 C1271 1.376 . S
C1271 H1258 0.930 . S
C1271 C1270 1.376 . S
C1271 C1272 1.388 1_556 S
C1272 H1259 0.930 . S
C1272 C1271 1.388 1_554 S
C1272 C1273 1.390 . S
C1273 C1272 1.390 . S
C1273 C1274 1.394 . S
C1273 C1279 1.465 . S
C1274 C1269 1.399 1_554 S
C1274 C1273 1.394 . S
C1274 C1275 1.516 . S
C1275 C1274 1.516 . S
C1275 C1276 1.502 . S
C1275 C1277 1.561 . S
C1275 C1278 1.526 . S
C1276 H1260 0.959 . S
C1276 H1261 0.959 . S
C1276 H1262 0.961 . S
C1276 C1275 1.502 . S
C1277 H1263 0.960 . S
C1277 H1264 0.961 . S
C1277 H1265 0.959 . S
C1277 C1275 1.561 . S
C1278 C1275 1.526 . S
C1278 C1279 1.396 . S
C1278 C1283 1.390 . S
C1279 C1273 1.465 . S
C1279 C1278 1.396 . S
C1279 C1280 1.399 . S
C1280 H1266 0.929 . S
C1280 C1279 1.399 . S
C1280 C1281 1.385 . S
C1281 H1267 0.931 . S
C1281 C1280 1.385 . S
C1281 C1282 1.389 . S
C1282 C1281 1.389 . S
C1282 C1283 1.387 . S
C1283 H1268 0.930 . S
C1283 C1278 1.390 . S
C1283 C1282 1.387 . S
H1284 C1296 0.930 . S
H1285 C1298 0.930 . S
H1286 C1299 0.930 . S
H1287 C1303 0.959 . S
H1288 C1303 0.959 . S
H1289 C1303 0.961 . S
H1290 C1304 0.960 . S
H1291 C1304 0.961 . S
H1292 C1304 0.959 . S
H1293 C1307 0.929 . S
H1294 C1308 0.931 . S
H1295 C1310 0.930 . S
C1296 H1284 0.930 . S
C1296 C1297 1.399 . S
C1296 C1301 1.399 . S
C1297 C1296 1.399 . S
C1297 C1298 1.376 . S
C1298 H1285 0.930 . S
C1298 C1297 1.376 . S
C1298 C1299 1.388 . S
C1299 H1286 0.930 . S
C1299 C1298 1.388 . S
C1299 C1300 1.390 . S
C1300 C1299 1.390 . S
C1300 C1301 1.394 . S
C1300 C1306 1.465 . S
C1301 C1296 1.399 . S
C1301 C1300 1.394 . S
C1301 C1302 1.516 . S
C1302 C1301 1.516 . S
C1302 C1303 1.502 . S
C1302 C1304 1.561 . S
C1302 C1305 1.526 . S
C1303 H1287 0.959 . S
C1303 H1288 0.959 . S
C1303 H1289 0.961 . S
C1303 C1302 1.502 . S
C1304 H1290 0.960 . S
C1304 H1291 0.961 . S
C1304 H1292 0.959 . S
C1304 C1302 1.561 . S
C1305 C1302 1.526 . S
C1305 C1306 1.396 . S
C1305 C1310 1.390 1_556 S
C1306 C1300 1.465 . S
C1306 C1305 1.396 . S
C1306 C1307 1.399 . S
C1307 H1293 0.929 . S
C1307 C1306 1.399 . S
C1307 C1308 1.385 1_556 S
C1308 H1294 0.931 . S
C1308 C1307 1.385 1_554 S
C1308 C1309 1.389 . S
C1309 C1308 1.389 . S
C1309 C1310 1.387 . S
C1310 H1295 0.930 . S
C1310 C1305 1.390 1_554 S
C1310 C1309 1.387 . S
H1311 C1323 0.930 . S
H1312 C1325 0.930 . S
H1313 C1326 0.930 . S
H1314 C1330 0.959 1_545 S
H1315 C1330 0.959 . S
H1316 C1330 0.961 . S
H1317 C1331 0.960 . S
H1318 C1331 0.961 . S
H1319 C1331 0.959 . S
H1320 C1334 0.929 . S
H1321 C1335 0.931 . S
H1322 C1337 0.930 . S
C1323 H1311 0.930 . S
C1323 C1324 1.399 . S
C1323 C1328 1.399 . S
C1324 C1323 1.399 . S
C1324 C1325 1.376 . S
C1325 H1312 0.930 . S
C1325 C1324 1.376 . S
C1325 C1326 1.388 . S
C1326 H1313 0.930 . S
C1326 C1325 1.388 . S
C1326 C1327 1.390 . S
C1327 C1326 1.390 . S
C1327 C1328 1.394 . S
C1327 C1333 1.465 . S
C1328 C1323 1.399 . S
C1328 C1327 1.394 . S
C1328 C1329 1.516 . S
C1329 C1328 1.516 . S
C1329 C1330 1.502 1_545 S
C1329 C1331 1.561 1_545 S
C1329 C1332 1.526 . S
C1330 H1314 0.959 1_565 S
C1330 H1315 0.959 . S
C1330 H1316 0.961 . S
C1330 C1329 1.502 1_565 S
C1331 H1317 0.960 . S
C1331 H1318 0.961 . S
C1331 H1319 0.959 . S
C1331 C1329 1.561 1_565 S
C1332 C1329 1.526 . S
C1332 C1333 1.396 . S
C1332 C1337 1.390 . S
C1333 C1327 1.465 . S
C1333 C1332 1.396 . S
C1333 C1334 1.399 . S
C1334 H1320 0.929 . S
C1334 C1333 1.399 . S
C1334 C1335 1.385 . S
C1335 H1321 0.931 . S
C1335 C1334 1.385 . S
C1335 C1336 1.389 . S
C1336 C1335 1.389 . S
C1336 C1337 1.387 . S
C1337 H1322 0.930 . S
C1337 C1332 1.390 . S
C1337 C1336 1.387 . S
H1338 C1350 0.930 . S
H1339 C1352 0.930 . S
H1340 C1353 0.930 . S
H1341 C1357 0.959 . S
H1342 C1357 0.959 . S
H1343 C1357 0.961 . S
H1344 C1358 0.960 . S
H1345 C1358 0.961 . S
H1346 C1358 0.959 . S
H1347 C1361 0.929 . S
H1348 C1362 0.931 . S
H1349 C1364 0.930 . S
C1350 H1338 0.930 . S
C1350 C1351 1.399 . S
C1350 C1355 1.399 . S
C1351 C1350 1.399 . S
C1351 C1352 1.376 . S
C1352 H1339 0.930 . S
C1352 C1351 1.376 . S
C1352 C1353 1.388 . S
C1353 H1340 0.930 . S
C1353 C1352 1.388 . S
C1353 C1354 1.390 . S
C1354 C1353 1.390 . S
C1354 C1355 1.394 . S
C1354 C1360 1.465 . S
C1355 C1350 1.399 . S
C1355 C1354 1.394 . S
C1355 C1356 1.516 . S
C1356 C1355 1.516 . S
C1356 C1357 1.502 . S
C1356 C1358 1.561 . S
C1356 C1359 1.526 . S
C1357 H1341 0.959 . S
C1357 H1342 0.959 . S
C1357 H1343 0.961 . S
C1357 C1356 1.502 . S
C1358 H1344 0.960 . S
C1358 H1345 0.961 . S
C1358 H1346 0.959 . S
C1358 C1356 1.561 . S
C1359 C1356 1.526 . S
C1359 C1360 1.396 . S
C1359 C1364 1.390 1_556 S
C1360 C1354 1.465 . S
C1360 C1359 1.396 . S
C1360 C1361 1.399 . S
C1361 H1347 0.929 . S
C1361 C1360 1.399 . S
C1361 C1362 1.385 1_556 S
C1362 H1348 0.931 . S
C1362 C1361 1.385 1_554 S
C1362 C1363 1.389 . S
C1363 C1362 1.389 . S
C1363 C1364 1.387 . S
C1364 H1349 0.930 . S
C1364 C1359 1.390 1_554 S
C1364 C1363 1.387 . S
H1365 C1377 0.930 . S
H1366 C1379 0.930 . S
H1367 C1380 0.930 . S
H1368 C1384 0.959 . S
H1369 C1384 0.959 . S
H1370 C1384 0.961 . S
H1371 C1385 0.960 . S
H1372 C1385 0.961 . S
H1373 C1385 0.959 . S
H1374 C1388 0.929 . S
H1375 C1389 0.931 . S
H1376 C1391 0.930 . S
C1377 H1365 0.930 . S
C1377 C1378 1.399 . S
C1377 C1382 1.399 . S
C1378 C1377 1.399 . S
C1378 C1379 1.376 . S
C1379 H1366 0.930 . S
C1379 C1378 1.376 . S
C1379 C1380 1.388 . S
C1380 H1367 0.930 . S
C1380 C1379 1.388 . S
C1380 C1381 1.390 . S
C1381 C1380 1.390 . S
C1381 C1382 1.394 . S
C1381 C1387 1.465 . S
C1382 C1377 1.399 . S
C1382 C1381 1.394 . S
C1382 C1383 1.516 . S
C1383 C1382 1.516 . S
C1383 C1384 1.502 . S
C1383 C1385 1.561 . S
C1383 C1386 1.526 . S
C1384 H1368 0.959 . S
C1384 H1369 0.959 . S
C1384 H1370 0.961 . S
C1384 C1383 1.502 . S
C1385 H1371 0.960 . S
C1385 H1372 0.961 . S
C1385 H1373 0.959 . S
C1385 C1383 1.561 . S
C1386 C1383 1.526 . S
C1386 C1387 1.396 . S
C1386 C1391 1.390 . S
C1387 C1381 1.465 . S
C1387 C1386 1.396 . S
C1387 C1388 1.399 . S
C1388 H1374 0.929 . S
C1388 C1387 1.399 . S
C1388 C1389 1.385 . S
C1389 H1375 0.931 . S
C1389 C1388 1.385 . S
C1389 C1390 1.389 . S
C1390 C1389 1.389 . S
C1390 C1391 1.387 . S
C1391 H1376 0.930 . S
C1391 C1386 1.390 . S
C1391 C1390 1.387 . S
H1392 C1404 0.930 . S
H1393 C1406 0.930 . S
H1394 C1407 0.930 1_455 S
H1395 C1411 0.959 . S
H1396 C1411 0.959 . S
H1397 C1411 0.961 . S
H1398 C1412 0.960 . S
H1399 C1412 0.961 . S
H1400 C1412 0.959 . S
H1401 C1415 0.929 1_455 S
H1402 C1416 0.915 1_455 S
H1403 C1418 0.930 . S
C1404 H1392 0.930 . S
C1404 C1405 1.399 . S
C1404 C1409 1.399 . S
C1405 C1404 1.399 . S
C1405 C1406 1.376 . S
C1406 H1393 0.930 . S
C1406 C1405 1.376 . S
C1406 C1407 1.388 . S
C1407 H1394 0.930 1_655 S
C1407 C1406 1.388 . S
C1407 C1408 1.390 . S
C1408 C1407 1.390 . S
C1408 C1409 1.394 . S
C1408 C1414 1.465 . S
C1409 C1404 1.399 . S
C1409 C1408 1.394 . S
C1409 C1410 1.516 . S
C1410 C1409 1.516 . S
C1410 C1411 1.502 . S
C1410 C1412 1.561 . S
C1410 C1413 1.526 . S
C1411 H1395 0.959 . S
C1411 H1396 0.959 . S
C1411 H1397 0.961 . S
C1411 C1410 1.502 . S
C1412 H1398 0.960 . S
C1412 H1399 0.961 . S
C1412 H1400 0.959 . S
C1412 C1410 1.561 . S
C1413 C1410 1.526 . S
C1413 C1414 1.396 . S
C1413 C1418 1.390 . S
C1414 C1408 1.465 . S
C1414 C1413 1.396 . S
C1414 C1415 1.399 . S
C1415 H1401 0.929 1_655 S
C1415 C1414 1.399 . S
C1415 C1416 1.385 . S
C1416 H1402 0.915 1_655 S
C1416 C1415 1.385 . S
C1416 C1417 1.389 . S
C1417 C1416 1.389 . S
C1417 C1418 1.387 . S
C1418 H1403 0.930 . S
C1418 C1413 1.390 . S
C1418 C1417 1.387 . S
H1419 C1431 0.930 . S
H1420 C1433 0.930 . S
H1421 C1434 0.930 . S
H1422 C1438 0.959 . S
H1423 C1438 0.959 . S
H1424 C1438 0.961 . S
H1425 C1439 0.960 . S
H1426 C1439 0.961 . S
H1427 C1439 0.959 . S
H1428 C1442 0.929 . S
H1429 C1443 0.931 . S
H1430 C1445 0.930 . S
C1431 H1419 0.930 . S
C1431 C1432 1.399 . S
C1431 C1436 1.399 1_554 S
C1432 C1431 1.399 . S
C1432 C1433 1.376 . S
C1433 H1420 0.930 . S
C1433 C1432 1.376 . S
C1433 C1434 1.388 1_554 S
C1434 H1421 0.930 . S
C1434 C1433 1.388 1_556 S
C1434 C1435 1.390 . S
C1435 C1434 1.390 . S
C1435 C1436 1.394 . S
C1435 C1441 1.465 . S
C1436 C1431 1.399 1_556 S
C1436 C1435 1.394 . S
C1436 C1437 1.516 . S
C1437 C1436 1.516 . S
C1437 C1438 1.502 . S
C1437 C1439 1.561 1_565 S
C1437 C1440 1.526 . S
C1438 H1422 0.959 . S
C1438 H1423 0.959 . S
C1438 H1424 0.961 . S
C1438 C1437 1.502 . S
C1439 H1425 0.960 . S
C1439 H1426 0.961 . S
C1439 H1427 0.959 . S
C1439 C1437 1.561 1_545 S
C1440 C1437 1.526 . S
C1440 C1441 1.396 . S
C1440 C1445 1.390 . S
C1441 C1435 1.465 . S
C1441 C1440 1.396 . S
C1441 C1442 1.399 . S
C1442 H1428 0.929 . S
C1442 C1441 1.399 . S
C1442 C1443 1.385 . S
C1443 H1429 0.931 . S
C1443 C1442 1.385 . S
C1443 C1444 1.389 . S
C1444 C1443 1.389 . S
C1444 C1445 1.387 . S
C1445 H1430 0.930 . S
C1445 C1440 1.390 . S
C1445 C1444 1.387 . S
H1446 C1458 0.930 . S
H1447 C1460 0.930 . S
H1448 C1461 0.930 . S
H1449 C1465 0.959 . S
H1450 C1465 0.959 . S
H1451 C1465 0.961 . S
H1452 C1466 0.960 . S
H1453 C1466 0.961 . S
H1454 C1466 0.959 . S
H1455 C1469 0.929 . S
H1456 C1470 0.931 . S
H1457 C1472 0.930 . S
C1458 H1446 0.930 . S
C1458 C1459 1.399 . S
C1458 C1463 1.399 . S
C1459 C1458 1.399 . S
C1459 C1460 1.376 . S
C1460 H1447 0.930 . S
C1460 C1459 1.376 . S
C1460 C1461 1.388 . S
C1461 H1448 0.930 . S
C1461 C1460 1.388 . S
C1461 C1462 1.390 . S
C1462 C1461 1.390 . S
C1462 C1463 1.394 . S
C1462 C1468 1.465 . S
C1463 C1458 1.399 . S
C1463 C1462 1.394 . S
C1463 C1464 1.516 . S
C1464 C1463 1.516 . S
C1464 C1465 1.502 . S
C1464 C1466 1.561 . S
C1464 C1467 1.526 . S
C1465 H1449 0.959 . S
C1465 H1450 0.959 . S
C1465 H1451 0.961 . S
C1465 C1464 1.502 . S
C1466 H1452 0.960 . S
C1466 H1453 0.961 . S
C1466 H1454 0.959 . S
C1466 C1464 1.561 . S
C1467 C1464 1.526 . S
C1467 C1468 1.396 . S
C1467 C1472 1.390 . S
C1468 C1462 1.465 . S
C1468 C1467 1.396 . S
C1468 C1469 1.399 . S
C1469 H1455 0.929 . S
C1469 C1468 1.399 . S
C1469 C1470 1.385 . S
C1470 H1456 0.931 . S
C1470 C1469 1.385 . S
C1470 C1471 1.389 . S
C1471 C1470 1.389 . S
C1471 C1472 1.387 . S
C1472 H1457 0.930 . S
C1472 C1467 1.390 . S
C1472 C1471 1.387 . S
H1473 C1485 0.930 . S
H1474 C1487 0.930 . S
H1475 C1488 0.930 . S
H1476 C1492 0.959 . S
H1477 C1492 0.959 . S
H1478 C1492 0.961 . S
H1479 C1493 0.960 . S
H1480 C1493 0.961 . S
H1481 C1493 0.959 . S
H1482 C1496 0.929 . S
H1483 C1497 0.931 . S
H1484 C1499 0.930 . S
C1485 H1473 0.930 . S
C1485 C1486 1.399 . S
C1485 C1490 1.399 1_554 S
C1486 C1485 1.399 . S
C1486 C1487 1.376 . S
C1487 H1474 0.930 . S
C1487 C1486 1.376 . S
C1487 C1488 1.388 1_554 S
C1488 H1475 0.930 . S
C1488 C1487 1.388 1_556 S
C1488 C1489 1.390 . S
C1489 C1488 1.390 . S
C1489 C1490 1.394 . S
C1489 C1495 1.465 . S
C1490 C1485 1.399 1_556 S
C1490 C1489 1.394 . S
C1490 C1491 1.516 . S
C1491 C1490 1.516 . S
C1491 C1492 1.502 . S
C1491 C1493 1.561 . S
C1491 C1494 1.526 . S
C1492 H1476 0.959 . S
C1492 H1477 0.959 . S
C1492 H1478 0.961 . S
C1492 C1491 1.502 . S
C1493 H1479 0.960 . S
C1493 H1480 0.961 . S
C1493 H1481 0.959 . S
C1493 C1491 1.561 . S
C1494 C1491 1.526 . S
C1494 C1495 1.396 . S
C1494 C1499 1.390 . S
C1495 C1489 1.465 . S
C1495 C1494 1.396 . S
C1495 C1496 1.399 . S
C1496 H1482 0.929 . S
C1496 C1495 1.399 . S
C1496 C1497 1.385 . S
C1497 H1483 0.931 . S
C1497 C1496 1.385 . S
C1497 C1498 1.389 . S
C1498 C1497 1.389 . S
C1498 C1499 1.387 . S
C1499 H1484 0.930 . S
C1499 C1494 1.390 . S
C1499 C1498 1.387 . S
H1500 C1512 0.930 . S
H1501 C1514 0.930 . S
H1502 C1515 0.930 . S
H1503 C1519 0.959 . S
H1504 C1519 0.959 . S
H1505 C1519 0.961 . S
H1506 C1520 0.960 . S
H1507 C1520 0.961 . S
H1508 C1520 0.959 . S
H1509 C1523 0.929 . S
H1510 C1524 0.931 . S
H1511 C1526 0.930 . S
C1512 H1500 0.930 . S
C1512 C1513 1.399 . S
C1512 C1517 1.399 . S
C1513 C1512 1.399 . S
C1513 C1514 1.376 . S
C1514 H1501 0.930 . S
C1514 C1513 1.376 . S
C1514 C1515 1.388 . S
C1515 H1502 0.930 . S
C1515 C1514 1.388 . S
C1515 C1516 1.390 . S
C1516 C1515 1.390 . S
C1516 C1517 1.394 . S
C1516 C1522 1.465 . S
C1517 C1512 1.399 . S
C1517 C1516 1.394 . S
C1517 C1518 1.516 . S
C1518 C1517 1.516 . S
C1518 C1519 1.502 . S
C1518 C1520 1.561 1_655 S
C1518 C1521 1.526 . S
C1519 H1503 0.959 . S
C1519 H1504 0.959 . S
C1519 H1505 0.961 . S
C1519 C1518 1.502 . S
C1520 H1506 0.960 . S
C1520 H1507 0.961 . S
C1520 H1508 0.959 . S
C1520 C1518 1.561 1_455 S
C1521 C1518 1.526 . S
C1521 C1522 1.396 . S
C1521 C1526 1.390 1_554 S
C1522 C1516 1.465 . S
C1522 C1521 1.396 . S
C1522 C1523 1.399 . S
C1523 H1509 0.929 . S
C1523 C1522 1.399 . S
C1523 C1524 1.385 1_554 S
C1524 H1510 0.931 . S
C1524 C1523 1.385 1_556 S
C1524 C1525 1.389 . S
C1525 C1524 1.389 . S
C1525 C1526 1.387 . S
C1526 H1511 0.930 . S
C1526 C1521 1.390 1_556 S
C1526 C1525 1.387 . S
H1527 C1539 0.985 . S
H1528 C1541 0.930 . S
H1529 C1542 0.930 . S
H1530 C1546 0.959 1_565 S
H1531 C1546 0.959 . S
H1532 C1546 0.961 . S
H1533 C1547 0.960 . S
H1534 C1547 0.961 . S
H1535 C1547 0.959 . S
H1536 C1550 0.929 . S
H1537 C1551 0.931 . S
H1538 C1553 0.930 . S
C1539 H1527 0.985 . S
C1539 C1540 1.399 . S
C1539 C1544 1.399 . S
C1540 C1539 1.399 . S
C1540 C1541 1.376 . S
C1541 H1528 0.930 . S
C1541 C1540 1.376 . S
C1541 C1542 1.388 . S
C1542 H1529 0.930 . S
C1542 C1541 1.388 . S
C1542 C1543 1.390 . S
C1543 C1542 1.390 . S
C1543 C1544 1.394 . S
C1543 C1549 1.465 . S
C1544 C1539 1.399 . S
C1544 C1543 1.394 . S
C1544 C1545 1.516 . S
C1545 C1544 1.516 . S
C1545 C1546 1.502 1_565 S
C1545 C1547 1.561 1_565 S
C1545 C1548 1.526 . S
C1546 H1530 0.959 1_545 S
C1546 H1531 0.959 . S
C1546 H1532 0.961 . S
C1546 C1545 1.502 1_545 S
C1547 H1533 0.960 . S
C1547 H1534 0.961 . S
C1547 H1535 0.959 . S
C1547 C1545 1.561 1_545 S
C1548 C1545 1.526 . S
C1548 C1549 1.396 . S
C1548 C1553 1.390 . S
C1549 C1543 1.465 . S
C1549 C1548 1.396 . S
C1549 C1550 1.399 . S
C1550 H1536 0.929 . S
C1550 C1549 1.399 . S
C1550 C1551 1.385 . S
C1551 H1537 0.931 . S
C1551 C1550 1.385 . S
C1551 C1552 1.389 . S
C1552 C1551 1.389 . S
C1552 C1553 1.387 . S
C1553 H1538 0.930 . S
C1553 C1548 1.390 . S
C1553 C1552 1.387 . S
H1554 C1566 0.930 . S
H1555 C1568 0.930 . S
H1556 C1569 0.930 . S
H1557 C1573 0.959 . S
H1558 C1573 0.959 . S
H1559 C1573 0.961 . S
H1560 C1574 0.960 . S
H1561 C1574 0.961 . S
H1562 C1574 0.959 . S
H1563 C1577 0.929 . S
H1564 C1578 0.931 . S
H1565 C1580 0.930 . S
C1566 H1554 0.930 . S
C1566 C1567 1.399 . S
C1566 C1571 1.399 1_556 S
C1567 C1566 1.399 . S
C1567 C1568 1.376 . S
C1568 H1555 0.930 . S
C1568 C1567 1.376 . S
C1568 C1569 1.388 1_556 S
C1569 H1556 0.930 . S
C1569 C1568 1.388 1_554 S
C1569 C1570 1.390 . S
C1570 C1569 1.390 . S
C1570 C1571 1.394 . S
C1570 C1576 1.465 . S
C1571 C1566 1.399 1_554 S
C1571 C1570 1.394 . S
C1571 C1572 1.516 . S
C1572 C1571 1.516 . S
C1572 C1573 1.502 . S
C1572 C1574 1.561 . S
C1572 C1575 1.526 . S
C1573 H1557 0.959 . S
C1573 H1558 0.959 . S
C1573 H1559 0.961 . S
C1573 C1572 1.502 . S
C1574 H1560 0.960 . S
C1574 H1561 0.961 . S
C1574 H1562 0.959 . S
C1574 C1572 1.561 . S
C1575 C1572 1.526 . S
C1575 C1576 1.396 . S
C1575 C1580 1.390 . S
C1576 C1570 1.465 . S
C1576 C1575 1.396 . S
C1576 C1577 1.399 . S
C1577 H1563 0.929 . S
C1577 C1576 1.399 . S
C1577 C1578 1.385 . S
C1578 H1564 0.931 . S
C1578 C1577 1.385 . S
C1578 C1579 1.389 . S
C1579 C1578 1.389 . S
C1579 C1580 1.387 . S
C1580 H1565 0.930 . S
C1580 C1575 1.390 . S
C1580 C1579 1.387 . S
H1581 C1593 0.930 . S
H1582 C1595 0.930 . S
H1583 C1596 0.930 . S
H1584 C1600 0.959 . S
H1585 C1600 0.959 . S
H1586 C1600 0.961 . S
H1587 C1601 0.960 . S
H1588 C1601 0.961 . S
H1589 C1601 0.959 . S
H1590 C1604 0.929 . S
H1591 C1605 0.931 . S
H1592 C1607 0.930 . S
C1593 H1581 0.930 . S
C1593 C1594 1.399 . S
C1593 C1598 1.399 . S
C1594 C1593 1.399 . S
C1594 C1595 1.376 . S
C1595 H1582 0.930 . S
C1595 C1594 1.376 . S
C1595 C1596 1.388 . S
C1596 H1583 0.930 . S
C1596 C1595 1.388 . S
C1596 C1597 1.390 . S
C1597 C1596 1.390 . S
C1597 C1598 1.394 . S
C1597 C1603 1.465 . S
C1598 C1593 1.399 . S
C1598 C1597 1.394 . S
C1598 C1599 1.516 . S
C1599 C1598 1.516 . S
C1599 C1600 1.502 . S
C1599 C1601 1.561 . S
C1599 C1602 1.526 . S
C1600 H1584 0.959 . S
C1600 H1585 0.959 . S
C1600 H1586 0.961 . S
C1600 C1599 1.502 . S
C1601 H1587 0.960 . S
C1601 H1588 0.961 . S
C1601 H1589 0.959 . S
C1601 C1599 1.561 . S
C1602 C1599 1.526 . S
C1602 C1603 1.396 . S
C1602 C1607 1.390 . S
C1603 C1597 1.465 . S
C1603 C1602 1.396 . S
C1603 C1604 1.399 . S
C1604 H1590 0.929 . S
C1604 C1603 1.399 . S
C1604 C1605 1.385 . S
C1605 H1591 0.931 . S
C1605 C1604 1.385 . S
C1605 C1606 1.389 . S
C1606 C1605 1.389 . S
C1606 C1607 1.387 . S
C1607 H1592 0.930 . S
C1607 C1602 1.390 . S
C1607 C1606 1.387 . S
C541 C17 1.525 . S
C553 C512 1.521 . S
C568 C50 1.503 . S
C580 C413 1.508 . S
C595 C446 1.497 . S
C607 C83 1.501 . S
C622 C116 1.518 . S
C634 C479 1.514 . S
C649 C314 1.522 . S
C661 C149 1.517 . S
C676 C347 1.525 . S
C688 C182 1.528 . S
C703 C380 1.497 . S
C715 C215 1.501 . S
C730 C281 1.500 . S
C742 C248 1.505 . S
C757 C8 1.376 . S
C769 C239 1.381 . S
C784 C41 1.347 . S
C796 C140 1.337 . S
C811 C74 1.340 . S
C823 C173 1.332 . S
C838 C107 1.369 . S
C850 C206 1.377 . S
C865 C503 1.381 . S
C877 C272 1.360 . S
C892 C404 1.331 . S
C904 C305 1.356 . S
C919 C437 1.334 . S
C931 C338 1.360 . S
C946 C371 1.327 . S
C958 C470 1.342 . S
C973 C28 1.012 . S
C985 C160 1.028 . S
C1000 C193 1.017 . S
C1012 C61 1.008 . S
C1027 C226 1.005 . S
C1039 C94 1.024 . S
C1054 C127 1.021 . S
C1066 C259 1.022 . S
C1081 C424 1.015 . S
C1093 C292 1.029 . S
C1108 C325 1.028 . S
C1120 C457 1.020 . S
C1135 C358 1.016 . S
C1147 C490 1.029 . S
C1162 C523 1.006 . S
C1174 C391 1.013 . S
C1189 N14 1.345 . S
C1201 N5 1.387 . S
C1216 N38 1.360 . S
C1228 N47 1.379 . S
C1243 N80 1.376 . S
C1255 N71 1.363 . S
C1270 N104 1.365 . S
C1282 N113 1.374 . S
C1297 N146 1.351 . S
C1309 N137 1.366 . S
C1324 N179 1.384 . S
C1336 N170 1.345 . S
C1351 N212 1.377 . S
C1363 N203 1.363 . S
C1378 N245 1.387 . S
C1390 N236 1.346 . S
C1405 N269 1.383 . S
C1417 N278 1.346 . S
C1432 N302 1.355 . S
C1444 N311 1.379 . S
C1459 N335 1.374 . S
C1471 N344 1.358 . S
C1486 N368 1.371 . S
C1498 N377 1.353 . S
C1513 N410 1.347 . S
C1525 N401 1.376 . S
C1540 N443 1.372 . S
C1552 N434 1.355 . S
C1567 N467 1.359 . S
C1579 N476 1.367 . S
C1594 N500 1.345 . S
C1606 N509 1.387 . S
