# Generated by pormake.
# Topology ukf, (4)-cn, num edge types: 1
# Building blocks:
#     Node 0, Type 0, BuildingBlock: GALJAG_clean_sbu_0, # of connection points: 4
#     Node 1, Type 0, BuildingBlock: GALJAG_clean_sbu_0, # of connection points: 4
#     Node 2, Type 0, BuildingBlock: GALJAG_clean_sbu_0, # of connection points: 4
#     Node 3, Type 0, BuildingBlock: GALJAG_clean_sbu_0, # of connection points: 4
#     Node 4, Type 0, BuildingBlock: GALJAG_clean_sbu_0, # of connection points: 4
#     Node 5, Type 0, BuildingBlock: GALJAG_clean_sbu_0, # of connection points: 4
#     Node 6, Type 0, BuildingBlock: GALJAG_clean_sbu_0, # of connection points: 4
#     Node 7, Type 0, BuildingBlock: GALJAG_clean_sbu_0, # of connection points: 4
#     Node 8, Type 0, BuildingBlock: GALJAG_clean_sbu_0, # of connection points: 4
#     Node 9, Type 0, BuildingBlock: GALJAG_clean_sbu_0, # of connection points: 4
#     Node 10, Type 0, BuildingBlock: GALJAG_clean_sbu_0, # of connection points: 4
#     Node 11, Type 0, BuildingBlock: GALJAG_clean_sbu_0, # of connection points: 4
#     Edge 12, Type (0, 0), BuildingBlock: KIFKEQ_clean_linker_1, # of connection points: 2
#     Edge 13, Type (0, 0), BuildingBlock: KIFKEQ_clean_linker_1, # of connection points: 2
#     Edge 14, Type (0, 0), BuildingBlock: KIFKEQ_clean_linker_1, # of connection points: 2
#     Edge 15, Type (0, 0), BuildingBlock: KIFKEQ_clean_linker_1, # of connection points: 2
#     Edge 16, Type (0, 0), BuildingBlock: KIFKEQ_clean_linker_1, # of connection points: 2
#     Edge 17, Type (0, 0), BuildingBlock: KIFKEQ_clean_linker_1, # of connection points: 2
#     Edge 18, Type (0, 0), BuildingBlock: KIFKEQ_clean_linker_1, # of connection points: 2
#     Edge 19, Type (0, 0), BuildingBlock: KIFKEQ_clean_linker_1, # of connection points: 2
#     Edge 20, Type (0, 0), BuildingBlock: KIFKEQ_clean_linker_1, # of connection points: 2
#     Edge 21, Type (0, 0), BuildingBlock: KIFKEQ_clean_linker_1, # of connection points: 2
#     Edge 22, Type (0, 0), BuildingBlock: KIFKEQ_clean_linker_1, # of connection points: 2
#     Edge 23, Type (0, 0), BuildingBlock: KIFKEQ_clean_linker_1, # of connection points: 2
#     Edge 24, Type (0, 0), BuildingBlock: KIFKEQ_clean_linker_1, # of connection points: 2
#     Edge 25, Type (0, 0), BuildingBlock: KIFKEQ_clean_linker_1, # of connection points: 2
#     Edge 26, Type (0, 0), BuildingBlock: KIFKEQ_clean_linker_1, # of connection points: 2
#     Edge 27, Type (0, 0), BuildingBlock: KIFKEQ_clean_linker_1, # of connection points: 2
#     Edge 28, Type (0, 0), BuildingBlock: KIFKEQ_clean_linker_1, # of connection points: 2
#     Edge 29, Type (0, 0), BuildingBlock: KIFKEQ_clean_linker_1, # of connection points: 2
#     Edge 30, Type (0, 0), BuildingBlock: KIFKEQ_clean_linker_1, # of connection points: 2
#     Edge 31, Type (0, 0), BuildingBlock: KIFKEQ_clean_linker_1, # of connection points: 2
#     Edge 32, Type (0, 0), BuildingBlock: KIFKEQ_clean_linker_1, # of connection points: 2
#     Edge 33, Type (0, 0), BuildingBlock: KIFKEQ_clean_linker_1, # of connection points: 2
#     Edge 34, Type (0, 0), BuildingBlock: KIFKEQ_clean_linker_1, # of connection points: 2
#     Edge 35, Type (0, 0), BuildingBlock: KIFKEQ_clean_linker_1, # of connection points: 2
# Relax obj value: 0.079
# Max RMSD: 0.071
# Mean RMSD: 0.071
data_MOF--net-ukf--node1-GALJAG_clean_sbu_0--edge1-KIFKEQ_clean_linker_1
_symmetry_space_group_name_H-M    P1
_symmetry_Int_Tables_number       1
_symmetry_cell_setting            triclinic
loop_
_symmetry_equiv_pos_as_xyz
'x, y, z'
_cell_length_a     32.004029
_cell_length_b     31.960671
_cell_length_c     69.900491
_cell_angle_alpha  90.015578
_cell_angle_beta   89.987876
_cell_angle_gamma 119.97639
loop_
_atom_site_label
_atom_site_type_symbol
_atom_site_fract_x
_atom_site_fract_y
_atom_site_fract_z
_atom_type_partial_charge
In0 In 0.41452 0.23048 0.06059 0.0
O1 O 0.43675 0.21584 0.08934 0.0
O2 O 0.37201 0.21934 0.08846 0.0
C3 C 0.48588 0.22941 0.04036 0.0
C4 C 0.44251 0.3258 0.06085 0.0
C5 C 0.33854 0.15259 0.04419 0.0
O6 O 0.47604 0.21438 0.05734 0.0
O7 O 0.45994 0.24523 0.03361 0.0
O8 O 0.3499 0.19534 0.03975 0.0
O9 O 0.3639 0.14964 0.0573 0.0
C10 C 0.40169 0.21358 0.0985 0.0
O11 O 0.40462 0.29507 0.0523 0.0
O12 O 0.46509 0.30828 0.06924 0.0
In13 In 0.18955 0.4107 0.39426 0.0
O14 O 0.11363 0.39946 0.38855 0.0
O15 O 0.16829 0.46796 0.39858 0.0
C16 C 0.1894 0.33468 0.3768 0.0
C17 C 0.18983 0.39345 0.43201 0.0
C18 C 0.26371 0.48289 0.37517 0.0
O19 O 0.16178 0.35017 0.37157 0.0
O20 O 0.21487 0.35594 0.39119 0.0
O21 O 0.26531 0.4767 0.39294 0.0
O22 O 0.22491 0.45271 0.36715 0.0
C23 C 0.12508 0.44211 0.39332 0.0
O24 O 0.22747 0.42204 0.42287 0.0
O25 O 0.15177 0.37306 0.42207 0.0
In26 In 0.78533 0.1874 0.7268 0.0
O27 O 0.72082 0.11177 0.7205 0.0
O28 O 0.70692 0.1656 0.73158 0.0
C29 C 0.86204 0.18772 0.70998 0.0
C30 C 0.80193 0.18835 0.76468 0.0
C31 C 0.78611 0.26005 0.70695 0.0
O32 O 0.8191 0.15816 0.70515 0.0
O33 O 0.86572 0.21503 0.72364 0.0
O34 O 0.79527 0.26315 0.72463 0.0
O35 O 0.77683 0.22055 0.69937 0.0
C36 C 0.68963 0.12279 0.72572 0.0
O37 O 0.81072 0.22577 0.7554 0.0
O38 O 0.78503 0.15015 0.75481 0.0
In39 In 0.60219 0.78141 0.06166 0.0
O40 O 0.61018 0.7171 0.05117 0.0
O41 O 0.55719 0.70412 0.07219 0.0
C42 C 0.67708 0.86048 0.04537 0.0
C43 C 0.61682 0.80013 0.0994 0.0
C44 C 0.52834 0.77898 0.04198 0.0
O45 O 0.66969 0.81833 0.04227 0.0
O46 O 0.64811 0.86238 0.05704 0.0
O47 O 0.53743 0.79275 0.05912 0.0
O48 O 0.55626 0.76614 0.03478 0.0
C49 C 0.57656 0.6866 0.06168 0.0
O50 O 0.58079 0.79637 0.09049 0.0
O51 O 0.64658 0.79492 0.08916 0.0
In52 In 0.83167 0.60573 0.39495 0.0
O53 O 0.90771 0.61731 0.38923 0.0
O54 O 0.85328 0.54876 0.39932 0.0
C55 C 0.83191 0.68208 0.37777 0.0
C56 C 0.83031 0.6223 0.43273 0.0
C57 C 0.75844 0.53364 0.37542 0.0
O58 O 0.86022 0.6673 0.37268 0.0
O59 O 0.80565 0.65989 0.39187 0.0
O60 O 0.75639 0.53912 0.39322 0.0
O61 O 0.79719 0.5645 0.36758 0.0
C62 C 0.89644 0.57472 0.394 0.0
O63 O 0.79286 0.59426 0.42337 0.0
O64 O 0.86875 0.64243 0.423 0.0
In65 In 0.2334 0.82658 0.72657 0.0
O66 O 0.29693 0.90441 0.72184 0.0
O67 O 0.31255 0.84881 0.72819 0.0
C68 C 0.15582 0.82538 0.71036 0.0
C69 C 0.21691 0.8211 0.76461 0.0
C70 C 0.2293 0.75269 0.70647 0.0
O71 O 0.1985 0.85445 0.70502 0.0
O72 O 0.15281 0.79894 0.72429 0.0
O73 O 0.22922 0.75346 0.72452 0.0
O74 O 0.23122 0.78906 0.69855 0.0
C75 C 0.32893 0.89283 0.72458 0.0
O76 O 0.21459 0.78675 0.75488 0.0
O77 O 0.22702 0.85864 0.75509 0.0
In78 In 0.7829 0.60161 0.61327 0.0
O79 O 0.80869 0.58981 0.58466 0.0
O80 O 0.78706 0.64294 0.58589 0.0
C81 C 0.78035 0.52692 0.63236 0.0
C82 C 0.68782 0.5735 0.61345 0.0
C83 C 0.86089 0.6767 0.63006 0.0
O84 O 0.79065 0.53435 0.61483 0.0
O85 O 0.77105 0.55684 0.64017 0.0
O86 O 0.81833 0.66665 0.63403 0.0
O87 O 0.86363 0.65034 0.61732 0.0
C88 C 0.80277 0.62088 0.57579 0.0
O89 O 0.71833 0.60947 0.62304 0.0
O90 O 0.70543 0.55279 0.60375 0.0
In91 In 0.18919 0.78045 0.9464 0.0
O92 O 0.22605 0.79278 0.91762 0.0
O93 O 0.15884 0.7913 0.91826 0.0
C94 C 0.26169 0.78266 0.96679 0.0
C95 C 0.12223 0.68509 0.94714 0.0
C96 C 0.19137 0.85807 0.96324 0.0
O97 O 0.26643 0.79555 0.94949 0.0
O98 O 0.22053 0.76898 0.9738 0.0
O99 O 0.1614 0.81525 0.96814 0.0
O100 O 0.21822 0.86124 0.94947 0.0
C101 C 0.1938 0.79564 0.90831 0.0
O102 O 0.11152 0.71719 0.95122 0.0
O103 O 0.16576 0.70133 0.94269 0.0
In104 In 0.41877 0.1912 0.28015 0.0
O105 O 0.44114 0.22681 0.25116 0.0
O106 O 0.37478 0.16012 0.25259 0.0
C107 C 0.49142 0.26302 0.30021 0.0
C108 C 0.44493 0.12248 0.28025 0.0
C109 C 0.34306 0.19438 0.29609 0.0
O110 O 0.48174 0.26825 0.28322 0.0
O111 O 0.46471 0.22152 0.30706 0.0
O112 O 0.35135 0.16037 0.29957 0.0
O113 O 0.37162 0.22501 0.28424 0.0
C114 C 0.40498 0.19461 0.24228 0.0
O115 O 0.41013 0.1184 0.29026 0.0
O116 O 0.4653 0.16019 0.27021 0.0
In117 In 0.2323 0.41092 0.61265 0.0
O118 O 0.20261 0.41945 0.58435 0.0
O119 O 0.23119 0.37187 0.58504 0.0
C120 C 0.23117 0.48378 0.63176 0.0
C121 C 0.32784 0.44072 0.61376 0.0
C122 C 0.15517 0.33417 0.62889 0.0
O123 O 0.23294 0.48284 0.61375 0.0
O124 O 0.2303 0.44836 0.64003 0.0
O125 O 0.19801 0.34617 0.63342 0.0
O126 O 0.15183 0.35938 0.61577 0.0
C127 C 0.21208 0.39111 0.57521 0.0
O128 O 0.2971 0.40328 0.62256 0.0
O129 O 0.31028 0.46216 0.60455 0.0
In130 In 0.82686 0.22818 0.94596 0.0
O131 O 0.9028 0.29288 0.95155 0.0
O132 O 0.84792 0.30678 0.94189 0.0
C133 C 0.82777 0.15264 0.96339 0.0
C134 C 0.82567 0.21103 0.90811 0.0
C135 C 0.75304 0.22607 0.96534 0.0
O136 O 0.85538 0.19585 0.9685 0.0
O137 O 0.80198 0.14811 0.94907 0.0
O138 O 0.75111 0.21831 0.94756 0.0
O139 O 0.79198 0.23472 0.97322 0.0
C140 C 0.89122 0.32411 0.94702 0.0
O141 O 0.78814 0.20118 0.9175 0.0
O142 O 0.86406 0.22916 0.91785 0.0
In143 In 0.60467 0.82663 0.28096 0.0
O144 O 0.58251 0.79025 0.25212 0.0
O145 O 0.64782 0.85798 0.25323 0.0
C146 C 0.53288 0.7542 0.30109 0.0
C147 C 0.5772 0.89436 0.28087 0.0
C148 C 0.68092 0.82473 0.29702 0.0
O149 O 0.54265 0.74918 0.28408 0.0
O150 O 0.55912 0.7958 0.30795 0.0
O151 O 0.67081 0.85724 0.30105 0.0
O152 O 0.65396 0.79507 0.28456 0.0
C153 C 0.61801 0.82286 0.24308 0.0
O154 O 0.61378 0.9003 0.2901 0.0
O155 O 0.55565 0.85526 0.27171 0.0
H156 H 0.24739 0.95241 0.95304 0.0
H157 H 0.15437 0.86149 0.99822 0.0
H158 H 0.27198 0.02347 0.97295 0.0
H159 H 0.17876 0.93295 0.01821 0.0
H160 H 0.29644 0.14888 0.00956 0.0
H161 H 0.24949 0.0773 0.9896 0.0
H162 H 0.25527 0.98732 0.03442 0.0
H163 H 0.30162 0.05844 0.05427 0.0
C164 C 0.23135 0.94771 0.9671 0.0
C165 C 0.1992 0.90127 0.97411 0.0
C166 C 0.24526 0.98855 0.97849 0.0
C167 C 0.22761 0.98397 0.99725 0.0
C168 C 0.19343 0.93769 0.0039 0.0
C169 C 0.17921 0.89677 0.99241 0.0
C170 C 0.28665 0.11366 0.01529 0.0
C171 C 0.30299 0.10933 0.03343 0.0
C172 C 0.26005 0.07269 0.00381 0.0
C173 C 0.24888 0.02655 0.01034 0.0
C174 C 0.26275 0.02212 0.02897 0.0
C175 C 0.28961 0.063 0.04034 0.0
H176 H 0.23982 0.29069 0.3875 0.0
H177 H 0.15748 0.30067 0.34061 0.0
H178 H 0.26571 0.24581 0.36728 0.0
H179 H 0.18318 0.25523 0.32029 0.0
H180 H 0.29382 0.14988 0.32893 0.0
H181 H 0.24451 0.17237 0.34849 0.0
H182 H 0.26253 0.27885 0.30629 0.0
H183 H 0.31124 0.25629 0.28685 0.0
C184 C 0.2263 0.28227 0.37298 0.0
C185 C 0.19693 0.29959 0.36561 0.0
C186 C 0.24095 0.25626 0.3614 0.0
C187 C 0.22687 0.24723 0.3421 0.0
C188 C 0.19511 0.26208 0.33504 0.0
C189 C 0.18012 0.28782 0.34671 0.0
C190 C 0.28626 0.17729 0.32367 0.0
C191 C 0.30667 0.20155 0.30642 0.0
C192 C 0.25829 0.19039 0.33491 0.0
C193 C 0.24976 0.22762 0.32902 0.0
C194 C 0.26786 0.24971 0.3112 0.0
C195 C 0.2961 0.23697 0.3001 0.0
H196 H 0.95634 0.24285 0.72013 0.0
H197 H 0.86476 0.14999 0.67505 0.0
H198 H 0.02704 0.26685 0.70016 0.0
H199 H 0.9359 0.17371 0.65499 0.0
H200 H 0.06105 0.29643 0.6188 0.0
H201 H 0.9902 0.24978 0.63868 0.0
H202 H 0.08055 0.2446 0.68344 0.0
H203 H 0.15187 0.29196 0.66346 0.0
C204 C 0.95142 0.22668 0.70609 0.0
C205 C 0.9049 0.19482 0.69911 0.0
C206 C 0.99206 0.24024 0.69465 0.0
C207 C 0.98722 0.2225 0.67589 0.0
C208 C 0.94085 0.18848 0.6693 0.0
C209 C 0.90011 0.17462 0.68082 0.0
C210 C 0.06575 0.28447 0.63272 0.0
C211 C 0.11212 0.29821 0.63961 0.0
C212 C 0.02502 0.25743 0.64411 0.0
C213 C 0.02962 0.24368 0.66274 0.0
C214 C 0.0758 0.25509 0.66923 0.0
C215 C 0.11663 0.28191 0.65774 0.0
H216 H 0.72598 0.86483 0.01248 0.0
H217 H 0.70789 0.95431 0.05411 0.0
H218 H 0.77429 0.9362 0.99255 0.0
H219 H 0.7557 0.02517 0.03432 0.0
H220 H 0.77727 0.05785 0.95304 0.0
H221 H 0.75194 0.98759 0.97354 0.0
H222 H 0.83513 0.08092 0.02012 0.0
H223 H 0.86034 0.15151 0.99954 0.0
C224 C 0.7332 0.89983 0.01756 0.0
C225 C 0.7129 0.90392 0.0348 0.0
C226 C 0.76059 0.94065 0.00611 0.0
C227 C 0.76869 0.98641 0.01179 0.0
C228 C 0.75068 0.99069 0.02958 0.0
C229 C 0.72298 0.94995 0.04089 0.0
C230 C 0.79107 0.06336 0.96753 0.0
C231 C 0.82051 0.11028 0.97471 0.0
C232 C 0.77672 0.023 0.97927 0.0
C233 C 0.79116 0.02859 0.99854 0.0
C234 C 0.82294 0.07542 0.0054 0.0
C235 C 0.83765 0.11584 0.99358 0.0
H236 H 0.72738 0.86715 0.33057 0.0
H237 H 0.71537 0.7652 0.28735 0.0
H238 H 0.77616 0.84429 0.35025 0.0
H239 H 0.76346 0.74218 0.30693 0.0
H240 H 0.86622 0.71865 0.34206 0.0
H241 H 0.8414 0.76499 0.32186 0.0
H242 H 0.75476 0.77008 0.3682 0.0
H243 H 0.77983 0.72441 0.38832 0.0
C244 C 0.73603 0.84067 0.32509 0.0
C245 C 0.71725 0.81772 0.30748 0.0
C246 C 0.76369 0.82734 0.33641 0.0
C247 C 0.77349 0.79114 0.33024 0.0
C248 C 0.75712 0.7705 0.31207 0.0
C249 C 0.72923 0.7835 0.30088 0.0
C250 C 0.84284 0.73074 0.34805 0.0
C251 C 0.82468 0.71755 0.36672 0.0
C252 C 0.82835 0.75699 0.33645 0.0
C253 C 0.79573 0.77092 0.34334 0.0
C254 C 0.78022 0.7604 0.36245 0.0
C255 C 0.7944 0.73392 0.37397 0.0
H256 H 0.95475 0.71231 0.62016 0.0
H257 H 0.86483 0.72012 0.66443 0.0
H258 H 0.02584 0.75916 0.6399 0.0
H259 H 0.93646 0.76758 0.6843 0.0
H260 H 0.15188 0.86149 0.67528 0.0
H261 H 0.0802 0.83672 0.65549 0.0
H262 H 0.9904 0.74553 0.70133 0.0
H263 H 0.06175 0.77052 0.72107 0.0
C264 C 0.9503 0.72498 0.63398 0.0
C265 C 0.90413 0.71225 0.64079 0.0
C266 C 0.99117 0.75214 0.64527 0.0
C267 C 0.98691 0.76698 0.66375 0.0
C268 C 0.94092 0.75632 0.6702 0.0
C269 C 0.89994 0.72943 0.65878 0.0
C270 C 0.11672 0.83705 0.68127 0.0
C271 C 0.11251 0.81767 0.69968 0.0
C272 C 0.07568 0.82261 0.66989 0.0
C273 C 0.02955 0.7888 0.67675 0.0
C274 C 0.02523 0.77192 0.69563 0.0
C275 C 0.06622 0.78606 0.70692 0.0
H276 H 0.75187 0.24575 1.00313 0.0
H277 H 0.6647 0.2059 0.95194 0.0
H278 H 0.68707 0.24658 0.02107 0.0
H279 H 0.59922 0.20559 0.97001 0.0
H280 H 0.54354 0.1937 0.05152 0.0
H281 H 0.60712 0.1915 0.03311 0.0
H282 H 0.57959 0.26145 0.98581 0.0
H283 H 0.51521 0.26259 0.00409 0.0
C284 C 0.7187 0.23688 0.99574 0.0
C285 C 0.71329 0.22575 0.97614 0.0
C286 C 0.68146 0.23708 0.00605 0.0
C287 C 0.63793 0.22602 0.99699 0.0
C288 C 0.63253 0.21482 0.97736 0.0
C289 C 0.66988 0.21472 0.96703 0.0
C290 C 0.55107 0.20855 0.03719 0.0
C291 C 0.52451 0.22836 0.02924 0.0
C292 C 0.58764 0.20752 0.02667 0.0
C293 C 0.59848 0.22639 0.00801 0.0
C294 C 0.57172 0.24607 1.00006 0.0
C295 C 0.53507 0.24701 0.01057 0.0
H296 H 0.35189 0.5507 0.38888 0.0
H297 H 0.26556 0.50463 0.33745 0.0
H298 H 0.41782 0.61615 0.37106 0.0
H299 H 0.3308 0.57053 0.31977 0.0
H300 H 0.47479 0.66108 0.28968 0.0
H301 H 0.41071 0.59522 0.30787 0.0
H302 H 0.4384 0.69206 0.35545 0.0
H303 H 0.50332 0.75767 0.33738 0.0
C304 C 0.34698 0.55469 0.37379 0.0
C305 C 0.30368 0.52255 0.36453 0.0
C306 C 0.38459 0.5923 0.36361 0.0
C307 C 0.37957 0.59851 0.34399 0.0
C308 C 0.33613 0.56632 0.33479 0.0
C309 C 0.29863 0.52872 0.34495 0.0
C310 C 0.4672 0.66825 0.30403 0.0
C311 C 0.49397 0.71448 0.31211 0.0
C312 C 0.43033 0.6306 0.31442 0.0
C313 C 0.41936 0.63842 0.3331 0.0
C314 C 0.44634 0.6847 0.34119 0.0
C315 C 0.4833 0.72235 0.3308 0.0
H316 H 0.75973 0.25767 0.66977 0.0
H317 H 0.81082 0.35046 0.7194 0.0
H318 H 0.7571 0.32147 0.65169 0.0
H319 H 0.80959 0.41492 0.70117 0.0
H320 H 0.80743 0.46332 0.61955 0.0
H321 H 0.80953 0.39913 0.63763 0.0
H322 H 0.7536 0.4357 0.68726 0.0
H323 H 0.75289 0.50071 0.66933 0.0
C324 C 0.77072 0.29187 0.67677 0.0
C325 C 0.78546 0.29914 0.69599 0.0
C326 C 0.76947 0.32852 0.66638 0.0
C327 C 0.78317 0.37334 0.67497 0.0
C328 C 0.79812 0.3806 0.6942 0.0
C329 C 0.79914 0.34382 0.70462 0.0
C330 C 0.79554 0.45754 0.63432 0.0
C331 C 0.78011 0.48703 0.64305 0.0
C332 C 0.7965 0.42062 0.64465 0.0
C333 C 0.78182 0.41232 0.66392 0.0
C334 C 0.76592 0.44163 0.67256 0.0
C335 C 0.76519 0.47866 0.66225 0.0
H336 H 0.35293 0.81017 0.95476 0.0
H337 H 0.25867 0.7548 0.00384 0.0
H338 H 0.41739 0.80927 0.97308 0.0
H339 H 0.32275 0.753 0.02204 0.0
H340 H 0.46518 0.80684 0.05439 0.0
H341 H 0.40093 0.80832 0.03618 0.0
H342 H 0.43745 0.75132 0.98689 0.0
H343 H 0.50231 0.75075 0.00501 0.0
C344 C 0.346 0.79773 0.96945 0.0
C345 C 0.30085 0.78262 0.97789 0.0
C346 C 0.38278 0.79692 0.9799 0.0
C347 C 0.37514 0.78099 0.999 0.0
C348 C 0.32996 0.76602 0.00743 0.0
C349 C 0.29319 0.76683 0.99698 0.0
C350 C 0.45941 0.79458 0.03968 0.0
C351 C 0.48874 0.77874 0.0311 0.0
C352 C 0.42247 0.7952 0.02927 0.0
C353 C 0.41414 0.77999 0.01009 0.0
C354 C 0.4434 0.7639 1.00156 0.0
C355 C 0.48033 0.76328 0.01197 0.0
H356 H 0.55006 0.3562 0.28896 0.0
H357 H 0.52081 0.25887 0.33644 0.0
H358 H 0.61387 0.42178 0.30737 0.0
H359 H 0.58547 0.32417 0.35472 0.0
H360 H 0.75787 0.51291 0.33763 0.0
H361 H 0.69352 0.44703 0.3196 0.0
H362 H 0.60517 0.39943 0.37053 0.0
H363 H 0.67022 0.46481 0.38869 0.0
C364 C 0.55748 0.34879 0.3033 0.0
C365 C 0.53051 0.30247 0.31127 0.0
C366 C 0.5942 0.38628 0.31382 0.0
C367 C 0.60482 0.3782 0.33251 0.0
C368 C 0.57778 0.33176 0.34046 0.0
C369 C 0.54096 0.29429 0.32995 0.0
C370 C 0.72469 0.48838 0.34497 0.0
C371 C 0.71901 0.49398 0.36456 0.0
C372 C 0.68771 0.45078 0.33462 0.0
C373 C 0.64415 0.41803 0.34361 0.0
C374 C 0.63851 0.42369 0.36323 0.0
C375 C 0.67561 0.46128 0.37361 0.0
H376 H 0.25527 0.57359 0.61882 0.0
H377 H 0.20415 0.48194 0.66871 0.0
H378 H 0.25526 0.6389 0.63687 0.0
H379 H 0.20147 0.54593 0.68652 0.0
H380 H 0.24935 0.68441 0.71943 0.0
H381 H 0.25059 0.62025 0.70115 0.0
H382 H 0.20609 0.66583 0.65058 0.0
H383 H 0.20754 0.73162 0.66876 0.0
C384 C 0.24354 0.56734 0.63361 0.0
C385 C 0.22995 0.52291 0.64242 0.0
C386 C 0.24318 0.6046 0.64394 0.0
C387 C 0.22842 0.59789 0.66322 0.0
C388 C 0.21409 0.55294 0.67186 0.0
C389 C 0.21527 0.51606 0.66163 0.0
C390 C 0.23982 0.6806 0.7044 0.0
C391 C 0.22839 0.71291 0.69549 0.0
C392 C 0.2402 0.64361 0.69392 0.0
C393 C 0.22828 0.63757 0.67434 0.0
C394 C 0.21633 0.66979 0.66551 0.0
C395 C 0.21678 0.70731 0.67595 0.0
H396 H 0.32745 0.20112 0.12206 0.0
H397 H 0.46721 0.21123 0.12241 0.0
H398 H 0.32448 0.19472 0.15714 0.0
H399 H 0.46424 0.20513 0.15712 0.0
H400 H 0.47126 0.25968 0.21776 0.0
H401 H 0.46665 0.262 0.18308 0.0
H402 H 0.32357 0.13722 0.18435 0.0
H403 H 0.32819 0.13461 0.2194 0.0
C404 C 0.3573 0.20169 0.1296 0.0
C405 C 0.39767 0.20697 0.1195 0.0
C406 C 0.3555 0.19784 0.14961 0.0
C407 C 0.39433 0.19987 0.15981 0.0
C408 C 0.43409 0.2041 0.14964 0.0
C409 C 0.43566 0.20741 0.12974 0.0
C410 C 0.43865 0.2328 0.21072 0.0
C411 C 0.40018 0.19676 0.22131 0.0
C412 C 0.43613 0.23405 0.19084 0.0
C413 C 0.39493 0.19956 0.18103 0.0
C414 C 0.3557 0.1643 0.19159 0.0
C415 C 0.35844 0.16271 0.21159 0.0
H416 H 0.26811 0.4189 0.45469 0.0
H417 H 0.11283 0.35155 0.45638 0.0
H418 H 0.26983 0.41142 0.48942 0.0
H419 H 0.11467 0.34454 0.49123 0.0
H420 H 0.1564 0.41362 0.5529 0.0
H421 H 0.14796 0.40765 0.51813 0.0
H422 H 0.24144 0.34653 0.51562 0.0
H423 H 0.24955 0.35202 0.55052 0.0
C424 C 0.23433 0.40217 0.46248 0.0
C425 C 0.19034 0.38596 0.45285 0.0
C426 C 0.23531 0.39763 0.48233 0.0
C427 C 0.19239 0.37742 0.493 0.0
C428 C 0.1483 0.36047 0.48335 0.0
C429 C 0.14725 0.36433 0.46343 0.0
C430 C 0.17468 0.39837 0.54495 0.0
C431 C 0.20375 0.38342 0.55439 0.0
C432 C 0.16964 0.39473 0.52506 0.0
C433 C 0.19413 0.37673 0.51419 0.0
C434 C 0.22239 0.3608 0.52367 0.0
C435 C 0.22684 0.36374 0.54361 0.0
H436 H 0.74707 0.15686 0.88574 0.0
H437 H 0.90183 0.24884 0.88328 0.0
H438 H 0.74437 0.14863 0.85094 0.0
H439 H 0.89898 0.24102 0.84838 0.0
H440 H 0.85413 0.26718 0.78722 0.0
H441 H 0.86264 0.26959 0.822 0.0
H442 H 0.77424 0.11428 0.82422 0.0
H443 H 0.76615 0.11174 0.78932 0.0
C444 C 0.78053 0.17502 0.87776 0.0
C445 C 0.82465 0.20359 0.8872 0.0
C446 C 0.779 0.17009 0.85787 0.0
C447 C 0.82145 0.19423 0.84698 0.0
C448 C 0.86569 0.22223 0.85644 0.0
C449 C 0.86733 0.22653 0.87639 0.0
C450 C 0.83688 0.23351 0.79512 0.0
C451 C 0.80937 0.18927 0.78558 0.0
C452 C 0.84199 0.23489 0.815 0.0
C453 C 0.81907 0.19213 0.82578 0.0
C454 C 0.79208 0.14779 0.81624 0.0
C455 C 0.78762 0.14634 0.79629 0.0
H456 H 0.55156 0.80174 0.12366 0.0
H457 H 0.69281 0.81531 0.12249 0.0
H458 H 0.55586 0.80896 0.15832 0.0
H459 H 0.69712 0.82287 0.15754 0.0
H460 H 0.69341 0.88393 0.21981 0.0
H461 H 0.69719 0.88063 0.18475 0.0
H462 H 0.55609 0.75296 0.18425 0.0
H463 H 0.55232 0.75593 0.21893 0.0
C464 C 0.58372 0.80659 0.1308 0.0
C465 C 0.62173 0.80763 0.12035 0.0
C466 C 0.58606 0.81054 0.15067 0.0
C467 C 0.62661 0.81604 0.16061 0.0
C468 C 0.66548 0.81875 0.15019 0.0
C469 C 0.66292 0.81425 0.13019 0.0
C470 C 0.66344 0.85505 0.21216 0.0
C471 C 0.62246 0.82037 0.2221 0.0
C472 C 0.6657 0.85307 0.19216 0.0
C473 C 0.62674 0.81679 0.18182 0.0
C474 C 0.58637 0.78168 0.19184 0.0
C475 C 0.58433 0.78332 0.21172 0.0
H476 H 0.7698 0.66452 0.5512 0.0
H477 H 0.85541 0.59458 0.55348 0.0
H478 H 0.77923 0.67102 0.51632 0.0
H479 H 0.86533 0.6017 0.51878 0.0
H480 H 0.90625 0.66106 0.45764 0.0
H481 H 0.90311 0.66714 0.4925 0.0
H482 H 0.74869 0.60598 0.48959 0.0
H483 H 0.75166 0.59926 0.45485 0.0
C484 C 0.79114 0.65118 0.54428 0.0
C485 C 0.81171 0.62887 0.55501 0.0
C486 C 0.79636 0.65471 0.52436 0.0
C487 C 0.823 0.63685 0.51489 0.0
C488 C 0.84497 0.61614 0.52573 0.0
C489 C 0.83906 0.61184 0.54556 0.0
C490 C 0.87173 0.64935 0.46445 0.0
C491 C 0.82916 0.62946 0.45357 0.0
C492 C 0.86994 0.6527 0.48436 0.0
C493 C 0.82566 0.63704 0.49371 0.0
C494 C 0.78334 0.61871 0.48274 0.0
C495 C 0.78503 0.6146 0.46288 0.0
H496 H 0.25718 0.78997 0.88413 0.0
H497 H 0.13668 0.81537 0.88505 0.0
H498 H 0.26073 0.79705 0.8494 0.0
H499 H 0.14066 0.82295 0.85004 0.0
H500 H 0.20881 0.88451 0.78871 0.0
H501 H 0.20149 0.87957 0.82372 0.0
H502 H 0.2034 0.7455 0.82265 0.0
H503 H 0.21021 0.75005 0.78791 0.0
C504 C 0.23158 0.79732 0.87692 0.0
C505 C 0.19651 0.80192 0.8873 0.0
C506 C 0.23351 0.80117 0.85702 0.0
C507 C 0.2008 0.81027 0.84705 0.0
C508 C 0.16639 0.81608 0.85742 0.0
C509 C 0.16401 0.81155 0.87739 0.0
C510 C 0.20734 0.85389 0.79599 0.0
C511 C 0.21027 0.81777 0.7856 0.0
C512 C 0.20297 0.85098 0.81597 0.0
C513 C 0.20222 0.81232 0.82586 0.0
C514 C 0.20442 0.77596 0.8154 0.0
C515 C 0.20812 0.7785 0.7955 0.0
H516 H 0.52841 0.62184 0.0899 0.0
H517 H 0.5846 0.63279 0.03283 0.0
H518 H 0.49549 0.53443 0.08932 0.0
H519 H 0.55028 0.54465 0.03209 0.0
H520 H 0.42331 0.37886 0.03506 0.0
H521 H 0.45777 0.46706 0.03465 0.0
H522 H 0.53629 0.47905 0.08644 0.0
H523 H 0.50313 0.39164 0.08662 0.0
C524 C 0.53379 0.60553 0.07724 0.0
C525 C 0.55928 0.63412 0.06144 0.0
C526 C 0.51492 0.55555 0.07692 0.0
C527 C 0.52015 0.53287 0.06063 0.0
C528 C 0.54551 0.56132 0.04477 0.0
C529 C 0.56544 0.61165 0.04525 0.0
C530 C 0.44778 0.40042 0.04636 0.0
C531 C 0.46046 0.37842 0.06089 0.0
C532 C 0.46774 0.45077 0.04604 0.0
C533 C 0.49975 0.47972 0.06049 0.0
C534 C 0.51166 0.45755 0.07516 0.0
C535 C 0.49267 0.40755 0.07524 0.0
H536 H 0.87815 0.48476 0.40391 0.0
H537 H 0.99117 0.62167 0.38256 0.0
H538 H 0.93299 0.45276 0.40315 0.0
H539 H 0.04609 0.58927 0.3814 0.0
H540 H 0.14385 0.53229 0.40313 0.0
H541 H 0.08905 0.56435 0.40273 0.0
H542 H 0.97516 0.42763 0.38147 0.0
H543 H 0.03006 0.39518 0.38227 0.0
C544 C 0.91473 0.50801 0.39896 0.0
C545 C 0.93036 0.55585 0.39334 0.0
C546 C 0.9461 0.48949 0.39838 0.0
C547 C 0.99399 0.51831 0.39217 0.0
C548 C 0.00961 0.5662 0.38648 0.0
C549 C 0.97813 0.58476 0.38706 0.0
C550 C 0.10711 0.50901 0.39836 0.0
C551 C 0.09125 0.46109 0.39278 0.0
C552 C 0.07575 0.52756 0.39799 0.0
C553 C 0.02765 0.4987 0.39203 0.0
C554 C 0.01182 0.45074 0.38636 0.0
C555 C 0.04329 0.43215 0.38673 0.0
H556 H 0.6182 0.13934 0.73771 0.0
H557 H 0.64171 0.03018 0.71178 0.0
H558 H 0.53141 0.0846 0.73666 0.0
H559 H 0.55454 0.97555 0.71025 0.0
H560 H 0.40107 0.87333 0.73132 0.0
H561 H 0.48756 0.92871 0.73099 0.0
H562 H 0.46314 0.04565 0.71549 0.0
H563 H 0.37592 0.98997 0.71631 0.0
C564 C 0.60479 0.10365 0.73168 0.0
C565 C 0.63687 0.08901 0.7249 0.0
C566 C 0.55492 0.07236 0.73093 0.0
C567 C 0.53576 0.02559 0.72334 0.0
C568 C 0.56796 0.01107 0.71643 0.0
C569 C 0.61794 0.0424 0.71723 0.0
C570 C 0.41406 0.91085 0.7278 0.0
C571 C 0.38157 0.92728 0.72387 0.0
C572 C 0.46381 0.9426 0.72747 0.0
C573 C 0.48256 0.99172 0.72315 0.0
C574 C 0.45001 0.00817 0.71909 0.0
C575 C 0.40003 0.97628 0.71946 0.0
H576 H 0.62227 0.52012 0.58618 0.0
H577 H 0.63484 0.58584 0.64143 0.0
H578 H 0.53501 0.48765 0.58674 0.0
H579 H 0.54688 0.5519 0.6422 0.0
H580 H 0.38044 0.42347 0.64045 0.0
H581 H 0.46844 0.45733 0.64105 0.0
H582 H 0.48119 0.5321 0.5881 0.0
H583 H 0.394 0.49967 0.58774 0.0
C584 C 0.60633 0.52757 0.59845 0.0
C585 C 0.63533 0.55569 0.61373 0.0
C586 C 0.55646 0.50898 0.59876 0.0
C587 C 0.53434 0.51711 0.61455 0.0
C588 C 0.56316 0.54491 0.62992 0.0
C589 C 0.61336 0.56458 0.62941 0.0
C590 C 0.40213 0.44708 0.62896 0.0
C591 C 0.38042 0.4589 0.61404 0.0
C592 C 0.45235 0.46665 0.62937 0.0
C593 C 0.48141 0.49734 0.61463 0.0
C594 C 0.45955 0.50849 0.59961 0.0
C595 C 0.4097 0.48993 0.59943 0.0
H596 H 0.13953 0.61267 0.93765 0.0
H597 H 0.02664 0.63834 0.95767 0.0
H598 H 0.08388 0.52611 0.93817 0.0
H599 H 0.97077 0.55107 0.95865 0.0
H600 H 0.8729 0.39576 0.93702 0.0
H601 H 0.9279 0.48266 0.9376 0.0
H602 H 0.04076 0.45926 0.9596 0.0
H603 H 0.98578 0.37199 0.95857 0.0
C604 C 0.10278 0.59978 0.94227 0.0
C605 C 0.08748 0.63244 0.9476 0.0
C606 C 0.07091 0.55 0.94271 0.0
C607 C 0.02281 0.5314 0.94854 0.0
C608 C 1.00743 0.56411 0.95389 0.0
C609 C 0.03944 0.61411 0.95341 0.0
C610 C 0.90947 0.40914 0.94199 0.0
C611 C 0.92506 0.37694 0.94768 0.0
C612 C 0.94093 0.45906 0.94247 0.0
C613 C 0.98884 0.47816 0.94866 0.0
C614 C 1.00431 0.44587 0.9545 0.0
C615 C 0.97278 0.39583 0.954 0.0
H616 H 0.59354 0.96384 0.30762 0.0
H617 H 0.52001 0.90276 0.25432 0.0
H618 H 0.55955 0.01794 0.30809 0.0
H619 H 0.48733 0.95739 0.25458 0.0
H620 H 0.49648 0.10865 0.25268 0.0
H621 H 0.52893 0.05381 0.25323 0.0
H622 H 0.46715 1.00352 0.30918 0.0
H623 H 0.43334 0.05776 0.30844 0.0
C624 C 0.57055 0.96232 0.29596 0.0
C625 C 0.55951 0.92922 0.28092 0.0
C626 C 0.55085 0.99291 0.2963 0.0
C627 C 0.52076 0.99165 0.28139 0.0
C628 C 0.51047 0.95913 0.26622 0.0
C629 C 0.5292 0.92791 0.2661 0.0
C630 C 0.4895 0.08567 0.26505 0.0
C631 C 0.46218 0.08728 0.28048 0.0
C632 C 0.50809 0.05434 0.26535 0.0
C633 C 0.50072 0.02469 0.28128 0.0
C634 C 0.47358 0.02631 0.29679 0.0
C635 C 0.45396 0.05697 0.2963 0.0
loop_
_geom_bond_atom_site_label_1
_geom_bond_atom_site_label_2
_geom_bond_distance
_geom_bond_site_symmetry_2
_ccdc_geom_bond_type
In0 O1 2.294 . S
In0 O2 2.326 . S
In0 O6 2.266 . S
In0 O7 2.326 . S
In0 O8 2.266 . S
In0 O9 2.326 . S
In0 O11 2.294 . S
In0 O12 2.326 . S
O1 In0 2.294 . S
O1 C10 1.240 . S
O2 In0 2.326 . S
O2 C10 1.252 . S
C3 O6 1.252 . S
C3 O7 1.260 . S
C4 O11 1.240 . S
C4 O12 1.252 . S
C5 O8 1.252 . S
C5 O9 1.260 . S
O6 In0 2.266 . S
O6 C3 1.252 . S
O7 In0 2.326 . S
O7 C3 1.260 . S
O8 In0 2.266 . S
O8 C5 1.252 . S
O9 In0 2.326 . S
O9 C5 1.260 . S
C10 O1 1.240 . S
C10 O2 1.252 . S
O11 In0 2.294 . S
O11 C4 1.240 . S
O12 In0 2.326 . S
O12 C4 1.252 . S
In13 O14 2.294 . S
In13 O15 2.326 . S
In13 O19 2.266 . S
In13 O20 2.326 . S
In13 O21 2.266 . S
In13 O22 2.326 . S
In13 O24 2.294 . S
In13 O25 2.326 . S
O14 In13 2.294 . S
O14 C23 1.240 . S
O15 In13 2.326 . S
O15 C23 1.252 . S
C16 O19 1.252 . S
C16 O20 1.260 . S
C17 O24 1.240 . S
C17 O25 1.252 . S
C18 O21 1.252 . S
C18 O22 1.260 . S
O19 In13 2.266 . S
O19 C16 1.252 . S
O20 In13 2.326 . S
O20 C16 1.260 . S
O21 In13 2.266 . S
O21 C18 1.252 . S
O22 In13 2.326 . S
O22 C18 1.260 . S
C23 O14 1.240 . S
C23 O15 1.252 . S
O24 In13 2.294 . S
O24 C17 1.240 . S
O25 In13 2.326 . S
O25 C17 1.252 . S
In26 O27 2.294 . S
In26 O28 2.326 . S
In26 O32 2.266 . S
In26 O33 2.326 . S
In26 O34 2.266 . S
In26 O35 2.326 . S
In26 O37 2.294 . S
In26 O38 2.326 . S
O27 In26 2.294 . S
O27 C36 1.240 . S
O28 In26 2.326 . S
O28 C36 1.252 . S
C29 O32 1.252 . S
C29 O33 1.260 . S
C30 O37 1.240 . S
C30 O38 1.252 . S
C31 O34 1.252 . S
C31 O35 1.260 . S
O32 In26 2.266 . S
O32 C29 1.252 . S
O33 In26 2.326 . S
O33 C29 1.260 . S
O34 In26 2.266 . S
O34 C31 1.252 . S
O35 In26 2.326 . S
O35 C31 1.260 . S
C36 O27 1.240 . S
C36 O28 1.252 . S
O37 In26 2.294 . S
O37 C30 1.240 . S
O38 In26 2.326 . S
O38 C30 1.252 . S
In39 O40 2.294 . S
In39 O41 2.326 . S
In39 O45 2.266 . S
In39 O46 2.326 . S
In39 O47 2.266 . S
In39 O48 2.326 . S
In39 O50 2.294 . S
In39 O51 2.326 . S
O40 In39 2.294 . S
O40 C49 1.240 . S
O41 In39 2.326 . S
O41 C49 1.252 . S
C42 O45 1.252 . S
C42 O46 1.260 . S
C43 O50 1.240 . S
C43 O51 1.252 . S
C44 O47 1.252 . S
C44 O48 1.260 . S
O45 In39 2.266 . S
O45 C42 1.252 . S
O46 In39 2.326 . S
O46 C42 1.260 . S
O47 In39 2.266 . S
O47 C44 1.252 . S
O48 In39 2.326 . S
O48 C44 1.260 . S
C49 O40 1.240 . S
C49 O41 1.252 . S
O50 In39 2.294 . S
O50 C43 1.240 . S
O51 In39 2.326 . S
O51 C43 1.252 . S
In52 O53 2.294 . S
In52 O54 2.326 . S
In52 O58 2.266 . S
In52 O59 2.326 . S
In52 O60 2.266 . S
In52 O61 2.326 . S
In52 O63 2.294 . S
In52 O64 2.326 . S
O53 In52 2.294 . S
O53 C62 1.240 . S
O54 In52 2.326 . S
O54 C62 1.252 . S
C55 O58 1.252 . S
C55 O59 1.260 . S
C56 O63 1.240 . S
C56 O64 1.252 . S
C57 O60 1.252 . S
C57 O61 1.260 . S
O58 In52 2.266 . S
O58 C55 1.252 . S
O59 In52 2.326 . S
O59 C55 1.260 . S
O60 In52 2.266 . S
O60 C57 1.252 . S
O61 In52 2.326 . S
O61 C57 1.260 . S
C62 O53 1.240 . S
C62 O54 1.252 . S
O63 In52 2.294 . S
O63 C56 1.240 . S
O64 In52 2.326 . S
O64 C56 1.252 . S
In65 O66 2.294 . S
In65 O67 2.326 . S
In65 O71 2.266 . S
In65 O72 2.326 . S
In65 O73 2.266 . S
In65 O74 2.326 . S
In65 O76 2.294 . S
In65 O77 2.326 . S
O66 In65 2.294 . S
O66 C75 1.240 . S
O67 In65 2.326 . S
O67 C75 1.252 . S
C68 O71 1.252 . S
C68 O72 1.260 . S
C69 O76 1.240 . S
C69 O77 1.252 . S
C70 O73 1.252 . S
C70 O74 1.260 . S
O71 In65 2.266 . S
O71 C68 1.252 . S
O72 In65 2.326 . S
O72 C68 1.260 . S
O73 In65 2.266 . S
O73 C70 1.252 . S
O74 In65 2.326 . S
O74 C70 1.260 . S
C75 O66 1.240 . S
C75 O67 1.252 . S
O76 In65 2.294 . S
O76 C69 1.240 . S
O77 In65 2.326 . S
O77 C69 1.252 . S
In78 O79 2.294 . S
In78 O80 2.326 . S
In78 O84 2.266 . S
In78 O85 2.326 . S
In78 O86 2.266 . S
In78 O87 2.326 . S
In78 O89 2.294 . S
In78 O90 2.326 . S
O79 In78 2.294 . S
O79 C88 1.240 . S
O80 In78 2.326 . S
O80 C88 1.252 . S
C81 O84 1.252 . S
C81 O85 1.260 . S
C82 O89 1.240 . S
C82 O90 1.252 . S
C83 O86 1.252 . S
C83 O87 1.260 . S
O84 In78 2.266 . S
O84 C81 1.252 . S
O85 In78 2.326 . S
O85 C81 1.260 . S
O86 In78 2.266 . S
O86 C83 1.252 . S
O87 In78 2.326 . S
O87 C83 1.260 . S
C88 O79 1.240 . S
C88 O80 1.252 . S
O89 In78 2.294 . S
O89 C82 1.240 . S
O90 In78 2.326 . S
O90 C82 1.252 . S
In91 O92 2.294 . S
In91 O93 2.326 . S
In91 O97 2.266 . S
In91 O98 2.326 . S
In91 O99 2.266 . S
In91 O100 2.326 . S
In91 O102 2.294 . S
In91 O103 2.326 . S
O92 In91 2.294 . S
O92 C101 1.240 . S
O93 In91 2.326 . S
O93 C101 1.252 . S
C94 O97 1.252 . S
C94 O98 1.260 . S
C95 O102 1.240 . S
C95 O103 1.252 . S
C96 O99 1.252 . S
C96 O100 1.260 . S
O97 In91 2.266 . S
O97 C94 1.252 . S
O98 In91 2.326 . S
O98 C94 1.260 . S
O99 In91 2.266 . S
O99 C96 1.252 . S
O100 In91 2.326 . S
O100 C96 1.260 . S
C101 O92 1.240 . S
C101 O93 1.252 . S
O102 In91 2.294 . S
O102 C95 1.240 . S
O103 In91 2.326 . S
O103 C95 1.252 . S
In104 O105 2.294 . S
In104 O106 2.326 . S
In104 O110 2.266 . S
In104 O111 2.326 . S
In104 O112 2.266 . S
In104 O113 2.326 . S
In104 O115 2.294 . S
In104 O116 2.326 . S
O105 In104 2.294 . S
O105 C114 1.240 . S
O106 In104 2.326 . S
O106 C114 1.252 . S
C107 O110 1.252 . S
C107 O111 1.260 . S
C108 O115 1.240 . S
C108 O116 1.252 . S
C109 O112 1.252 . S
C109 O113 1.260 . S
O110 In104 2.266 . S
O110 C107 1.252 . S
O111 In104 2.326 . S
O111 C107 1.260 . S
O112 In104 2.266 . S
O112 C109 1.252 . S
O113 In104 2.326 . S
O113 C109 1.260 . S
C114 O105 1.240 . S
C114 O106 1.252 . S
O115 In104 2.294 . S
O115 C108 1.240 . S
O116 In104 2.326 . S
O116 C108 1.252 . S
In117 O118 2.294 . S
In117 O119 2.326 . S
In117 O123 2.266 . S
In117 O124 2.326 . S
In117 O125 2.266 . S
In117 O126 2.326 . S
In117 O128 2.294 . S
In117 O129 2.326 . S
O118 In117 2.294 . S
O118 C127 1.240 . S
O119 In117 2.326 . S
O119 C127 1.252 . S
C120 O123 1.252 . S
C120 O124 1.260 . S
C121 O128 1.240 . S
C121 O129 1.252 . S
C122 O125 1.252 . S
C122 O126 1.260 . S
O123 In117 2.266 . S
O123 C120 1.252 . S
O124 In117 2.326 . S
O124 C120 1.260 . S
O125 In117 2.266 . S
O125 C122 1.252 . S
O126 In117 2.326 . S
O126 C122 1.260 . S
C127 O118 1.240 . S
C127 O119 1.252 . S
O128 In117 2.294 . S
O128 C121 1.240 . S
O129 In117 2.326 . S
O129 C121 1.252 . S
In130 O131 2.294 . S
In130 O132 2.326 . S
In130 O136 2.266 . S
In130 O137 2.326 . S
In130 O138 2.266 . S
In130 O139 2.326 . S
In130 O141 2.294 . S
In130 O142 2.326 . S
O131 In130 2.294 . S
O131 C140 1.240 . S
O132 In130 2.326 . S
O132 C140 1.252 . S
C133 O136 1.252 . S
C133 O137 1.260 . S
C134 O141 1.240 . S
C134 O142 1.252 . S
C135 O138 1.252 . S
C135 O139 1.260 . S
O136 In130 2.266 . S
O136 C133 1.252 . S
O137 In130 2.326 . S
O137 C133 1.260 . S
O138 In130 2.266 . S
O138 C135 1.252 . S
O139 In130 2.326 . S
O139 C135 1.260 . S
C140 O131 1.240 . S
C140 O132 1.252 . S
O141 In130 2.294 . S
O141 C134 1.240 . S
O142 In130 2.326 . S
O142 C134 1.252 . S
In143 O144 2.294 . S
In143 O145 2.326 . S
In143 O149 2.266 . S
In143 O150 2.326 . S
In143 O151 2.266 . S
In143 O152 2.326 . S
In143 O154 2.294 . S
In143 O155 2.326 . S
O144 In143 2.294 . S
O144 C153 1.240 . S
O145 In143 2.326 . S
O145 C153 1.252 . S
C146 O149 1.252 . S
C146 O150 1.260 . S
C147 O154 1.240 . S
C147 O155 1.252 . S
C148 O151 1.252 . S
C148 O152 1.260 . S
O149 In143 2.266 . S
O149 C146 1.252 . S
O150 In143 2.326 . S
O150 C146 1.260 . S
O151 In143 2.266 . S
O151 C148 1.252 . S
O152 In143 2.326 . S
O152 C148 1.260 . S
C153 O144 1.240 . S
C153 O145 1.252 . S
O154 In143 2.294 . S
O154 C147 1.240 . S
O155 In143 2.326 . S
O155 C147 1.252 . S
H156 C164 0.950 . S
H157 C169 0.950 . S
H158 C166 0.950 1_554 S
H159 C168 0.976 . S
H160 C170 0.950 . S
H161 C172 0.950 1_556 S
H162 C174 0.976 . S
H163 C175 0.950 . S
C164 H156 0.950 . S
C164 C165 1.386 . S
C164 C166 1.391 . S
C165 C164 1.386 . S
C165 C169 1.393 . S
C166 H158 0.950 1_556 S
C166 C164 1.391 . S
C166 C167 1.400 . S
C167 C166 1.400 . S
C167 C168 1.398 . S
C167 C173 1.491 1_566 S
C168 H159 0.976 . S
C168 C167 1.398 . S
C168 C169 1.391 . S
C169 H157 0.950 . S
C169 C165 1.393 . S
C169 C168 1.391 . S
C170 H160 0.950 . S
C170 C171 1.386 . S
C170 C172 1.391 . S
C171 C170 1.386 . S
C171 C175 1.393 . S
C172 H161 0.950 1_554 S
C172 C170 1.391 . S
C172 C173 1.400 . S
C173 C167 1.491 1_544 S
C173 C172 1.400 . S
C173 C174 1.398 . S
C174 H162 0.976 . S
C174 C173 1.398 . S
C174 C175 1.391 . S
C175 H163 0.950 . S
C175 C171 1.393 . S
C175 C174 1.391 . S
H176 C184 0.950 . S
H177 C189 0.950 . S
H178 C186 0.950 . S
H179 C188 0.950 . S
H180 C190 0.950 . S
H181 C192 0.950 . S
H182 C194 0.950 . S
H183 C195 0.950 . S
C184 H176 0.950 . S
C184 C185 1.386 . S
C184 C186 1.391 . S
C185 C184 1.386 . S
C185 C189 1.393 . S
C186 H178 0.950 . S
C186 C184 1.391 . S
C186 C187 1.400 . S
C187 C186 1.400 . S
C187 C188 1.398 . S
C187 C193 1.491 . S
C188 H179 0.950 . S
C188 C187 1.398 . S
C188 C189 1.391 . S
C189 H177 0.950 . S
C189 C185 1.393 . S
C189 C188 1.391 . S
C190 H180 0.950 . S
C190 C191 1.386 . S
C190 C192 1.391 . S
C191 C190 1.386 . S
C191 C195 1.393 . S
C192 H181 0.950 . S
C192 C190 1.391 . S
C192 C193 1.400 . S
C193 C187 1.491 . S
C193 C192 1.400 . S
C193 C194 1.398 . S
C194 H182 0.950 . S
C194 C193 1.398 . S
C194 C195 1.391 . S
C195 H183 0.950 . S
C195 C191 1.393 . S
C195 C194 1.391 . S
H196 C204 0.950 . S
H197 C209 0.950 . S
H198 C206 0.950 1_455 S
H199 C208 0.950 . S
H200 C210 0.950 . S
H201 C212 0.950 1_655 S
H202 C214 0.950 . S
H203 C215 0.950 . S
C204 H196 0.950 . S
C204 C205 1.386 . S
C204 C206 1.391 . S
C205 C204 1.386 . S
C205 C209 1.393 . S
C206 H198 0.950 1_655 S
C206 C204 1.391 . S
C206 C207 1.400 . S
C207 C206 1.400 . S
C207 C208 1.398 . S
C207 C213 1.491 1_655 S
C208 H199 0.950 . S
C208 C207 1.398 . S
C208 C209 1.391 . S
C209 H197 0.950 . S
C209 C205 1.393 . S
C209 C208 1.391 . S
C210 H200 0.950 . S
C210 C211 1.386 . S
C210 C212 1.391 . S
C211 C210 1.386 . S
C211 C215 1.393 . S
C212 H201 0.950 1_455 S
C212 C210 1.391 . S
C212 C213 1.400 . S
C213 C207 1.491 1_455 S
C213 C212 1.400 . S
C213 C214 1.398 . S
C214 H202 0.950 . S
C214 C213 1.398 . S
C214 C215 1.391 . S
C215 H203 0.950 . S
C215 C211 1.393 . S
C215 C214 1.391 . S
H216 C224 0.950 . S
H217 C229 0.950 . S
H218 C226 0.950 . S
H219 C228 0.950 . S
H220 C230 0.950 . S
H221 C232 0.950 . S
H222 C234 0.950 . S
H223 C235 0.950 . S
C224 H216 0.950 . S
C224 C225 1.386 . S
C224 C226 1.391 . S
C225 C224 1.386 . S
C225 C229 1.393 . S
C226 H218 0.950 . S
C226 C224 1.391 . S
C226 C227 1.400 . S
C227 C226 1.400 . S
C227 C228 1.398 . S
C227 C233 1.491 1_564 S
C228 H219 0.950 . S
C228 C227 1.398 . S
C228 C229 1.391 . S
C229 H217 0.950 . S
C229 C225 1.393 . S
C229 C228 1.391 . S
C230 H220 0.950 . S
C230 C231 1.386 . S
C230 C232 1.391 . S
C231 C230 1.386 . S
C231 C235 1.393 . S
C232 H221 0.950 . S
C232 C230 1.391 . S
C232 C233 1.400 . S
C233 C227 1.491 1_546 S
C233 C232 1.400 . S
C233 C234 1.398 . S
C234 H222 0.950 . S
C234 C233 1.398 . S
C234 C235 1.391 . S
C235 H223 0.950 . S
C235 C231 1.393 . S
C235 C234 1.391 . S
H236 C244 0.950 . S
H237 C249 0.950 . S
H238 C246 0.950 . S
H239 C248 0.950 . S
H240 C250 0.950 . S
H241 C252 0.950 . S
H242 C254 0.950 . S
H243 C255 0.950 . S
C244 H236 0.950 . S
C244 C245 1.386 . S
C244 C246 1.391 . S
C245 C244 1.386 . S
C245 C249 1.393 . S
C246 H238 0.950 . S
C246 C244 1.391 . S
C246 C247 1.400 . S
C247 C246 1.400 . S
C247 C248 1.398 . S
C247 C253 1.491 . S
C248 H239 0.950 . S
C248 C247 1.398 . S
C248 C249 1.391 . S
C249 H237 0.950 . S
C249 C245 1.393 . S
C249 C248 1.391 . S
C250 H240 0.950 . S
C250 C251 1.386 . S
C250 C252 1.391 . S
C251 C250 1.386 . S
C251 C255 1.393 . S
C252 H241 0.950 . S
C252 C250 1.391 . S
C252 C253 1.400 . S
C253 C247 1.491 . S
C253 C252 1.400 . S
C253 C254 1.398 . S
C254 H242 0.950 . S
C254 C253 1.398 . S
C254 C255 1.391 . S
C255 H243 0.950 . S
C255 C251 1.393 . S
C255 C254 1.391 . S
H256 C264 0.950 . S
H257 C269 0.950 . S
H258 C266 0.950 . S
H259 C268 0.950 1_455 S
H260 C270 0.950 . S
H261 C272 0.950 . S
H262 C274 0.950 1_655 S
H263 C275 0.950 . S
C264 H256 0.950 . S
C264 C265 1.386 . S
C264 C266 1.391 . S
C265 C264 1.386 . S
C265 C269 1.393 . S
C266 H258 0.950 . S
C266 C264 1.391 . S
C266 C267 1.400 . S
C267 C266 1.400 . S
C267 C268 1.398 . S
C267 C273 1.491 1_655 S
C268 H259 0.950 1_655 S
C268 C267 1.398 . S
C268 C269 1.391 . S
C269 H257 0.950 . S
C269 C265 1.393 . S
C269 C268 1.391 . S
C270 H260 0.950 . S
C270 C271 1.386 . S
C270 C272 1.391 . S
C271 C270 1.386 . S
C271 C275 1.393 . S
C272 H261 0.950 . S
C272 C270 1.391 . S
C272 C273 1.400 . S
C273 C267 1.491 1_455 S
C273 C272 1.400 . S
C273 C274 1.398 . S
C274 H262 0.950 1_455 S
C274 C273 1.398 . S
C274 C275 1.391 . S
C275 H263 0.950 . S
C275 C271 1.393 . S
C275 C274 1.391 . S
H276 C284 0.950 . S
H277 C289 0.950 . S
H278 C286 0.950 . S
H279 C288 0.950 . S
H280 C290 0.950 . S
H281 C292 0.950 . S
H282 C294 0.950 . S
H283 C295 0.950 . S
C284 H276 0.950 . S
C284 C285 1.386 . S
C284 C286 1.391 . S
C285 C284 1.386 . S
C285 C289 1.393 . S
C286 H278 0.950 . S
C286 C284 1.391 . S
C286 C287 1.400 . S
C287 C286 1.400 . S
C287 C288 1.398 . S
C287 C293 1.491 1_556 S
C288 H279 0.950 . S
C288 C287 1.398 . S
C288 C289 1.391 . S
C289 H277 0.950 . S
C289 C285 1.393 . S
C289 C288 1.391 . S
C290 H280 0.950 . S
C290 C291 1.386 . S
C290 C292 1.391 . S
C291 C290 1.386 . S
C291 C295 1.393 . S
C292 H281 0.950 . S
C292 C290 1.391 . S
C292 C293 1.400 . S
C293 C287 1.491 1_554 S
C293 C292 1.400 . S
C293 C294 1.398 . S
C294 H282 0.950 . S
C294 C293 1.398 . S
C294 C295 1.391 . S
C295 H283 0.950 . S
C295 C291 1.393 . S
C295 C294 1.391 . S
H296 C304 0.950 . S
H297 C309 0.950 . S
H298 C306 0.950 . S
H299 C308 0.950 . S
H300 C310 0.950 . S
H301 C312 0.950 . S
H302 C314 0.950 . S
H303 C315 0.950 . S
C304 H296 0.950 . S
C304 C305 1.386 . S
C304 C306 1.391 . S
C305 C304 1.386 . S
C305 C309 1.393 . S
C306 H298 0.950 . S
C306 C304 1.391 . S
C306 C307 1.400 . S
C307 C306 1.400 . S
C307 C308 1.398 . S
C307 C313 1.491 . S
C308 H299 0.950 . S
C308 C307 1.398 . S
C308 C309 1.391 . S
C309 H297 0.950 . S
C309 C305 1.393 . S
C309 C308 1.391 . S
C310 H300 0.950 . S
C310 C311 1.386 . S
C310 C312 1.391 . S
C311 C310 1.386 . S
C311 C315 1.393 . S
C312 H301 0.950 . S
C312 C310 1.391 . S
C312 C313 1.400 . S
C313 C307 1.491 . S
C313 C312 1.400 . S
C313 C314 1.398 . S
C314 H302 0.950 . S
C314 C313 1.398 . S
C314 C315 1.391 . S
C315 H303 0.950 . S
C315 C311 1.393 . S
C315 C314 1.391 . S
H316 C324 0.950 . S
H317 C329 0.950 . S
H318 C326 0.950 . S
H319 C328 0.950 . S
H320 C330 0.950 . S
H321 C332 0.950 . S
H322 C334 0.950 . S
H323 C335 0.950 . S
C324 H316 0.950 . S
C324 C325 1.386 . S
C324 C326 1.391 . S
C325 C324 1.386 . S
C325 C329 1.393 . S
C326 H318 0.950 . S
C326 C324 1.391 . S
C326 C327 1.400 . S
C327 C326 1.400 . S
C327 C328 1.398 . S
C327 C333 1.491 . S
C328 H319 0.950 . S
C328 C327 1.398 . S
C328 C329 1.391 . S
C329 H317 0.950 . S
C329 C325 1.393 . S
C329 C328 1.391 . S
C330 H320 0.950 . S
C330 C331 1.386 . S
C330 C332 1.391 . S
C331 C330 1.386 . S
C331 C335 1.393 . S
C332 H321 0.950 . S
C332 C330 1.391 . S
C332 C333 1.400 . S
C333 C327 1.491 . S
C333 C332 1.400 . S
C333 C334 1.398 . S
C334 H322 0.950 . S
C334 C333 1.398 . S
C334 C335 1.391 . S
C335 H323 0.950 . S
C335 C331 1.393 . S
C335 C334 1.391 . S
H336 C344 0.950 . S
H337 C349 0.950 . S
H338 C346 0.950 . S
H339 C348 0.950 . S
H340 C350 0.950 . S
H341 C352 0.950 . S
H342 C354 0.950 . S
H343 C355 0.950 . S
C344 H336 0.950 . S
C344 C345 1.386 . S
C344 C346 1.391 . S
C345 C344 1.386 . S
C345 C349 1.393 . S
C346 H338 0.950 . S
C346 C344 1.391 . S
C346 C347 1.400 . S
C347 C346 1.400 . S
C347 C348 1.398 1_556 S
C347 C353 1.491 1_556 S
C348 H339 0.950 . S
C348 C347 1.398 1_554 S
C348 C349 1.391 1_554 S
C349 H337 0.950 . S
C349 C345 1.393 . S
C349 C348 1.391 1_556 S
C350 H340 0.950 . S
C350 C351 1.386 . S
C350 C352 1.391 . S
C351 C350 1.386 . S
C351 C355 1.393 . S
C352 H341 0.950 . S
C352 C350 1.391 . S
C352 C353 1.400 . S
C353 C347 1.491 1_554 S
C353 C352 1.400 . S
C353 C354 1.398 1_554 S
C354 H342 0.950 . S
C354 C353 1.398 1_556 S
C354 C355 1.391 1_556 S
C355 H343 0.950 . S
C355 C351 1.393 . S
C355 C354 1.391 1_554 S
H356 C364 0.950 . S
H357 C369 0.950 . S
H358 C366 0.950 . S
H359 C368 0.950 . S
H360 C370 0.950 . S
H361 C372 0.950 . S
H362 C374 0.950 . S
H363 C375 0.950 . S
C364 H356 0.950 . S
C364 C365 1.386 . S
C364 C366 1.391 . S
C365 C364 1.386 . S
C365 C369 1.393 . S
C366 H358 0.950 . S
C366 C364 1.391 . S
C366 C367 1.400 . S
C367 C366 1.400 . S
C367 C368 1.398 . S
C367 C373 1.491 . S
C368 H359 0.950 . S
C368 C367 1.398 . S
C368 C369 1.391 . S
C369 H357 0.950 . S
C369 C365 1.393 . S
C369 C368 1.391 . S
C370 H360 0.950 . S
C370 C371 1.386 . S
C370 C372 1.391 . S
C371 C370 1.386 . S
C371 C375 1.393 . S
C372 H361 0.950 . S
C372 C370 1.391 . S
C372 C373 1.400 . S
C373 C367 1.491 . S
C373 C372 1.400 . S
C373 C374 1.398 . S
C374 H362 0.950 . S
C374 C373 1.398 . S
C374 C375 1.391 . S
C375 H363 0.950 . S
C375 C371 1.393 . S
C375 C374 1.391 . S
H376 C384 0.950 . S
H377 C389 0.950 . S
H378 C386 0.950 . S
H379 C388 0.950 . S
H380 C390 0.950 . S
H381 C392 0.950 . S
H382 C394 0.950 . S
H383 C395 0.950 . S
C384 H376 0.950 . S
C384 C385 1.386 . S
C384 C386 1.391 . S
C385 C384 1.386 . S
C385 C389 1.393 . S
C386 H378 0.950 . S
C386 C384 1.391 . S
C386 C387 1.400 . S
C387 C386 1.400 . S
C387 C388 1.398 . S
C387 C393 1.491 . S
C388 H379 0.950 . S
C388 C387 1.398 . S
C388 C389 1.391 . S
C389 H377 0.950 . S
C389 C385 1.393 . S
C389 C388 1.391 . S
C390 H380 0.950 . S
C390 C391 1.386 . S
C390 C392 1.391 . S
C391 C390 1.386 . S
C391 C395 1.393 . S
C392 H381 0.950 . S
C392 C390 1.391 . S
C392 C393 1.400 . S
C393 C387 1.491 . S
C393 C392 1.400 . S
C393 C394 1.398 . S
C394 H382 0.950 . S
C394 C393 1.398 . S
C394 C395 1.391 . S
C395 H383 0.950 . S
C395 C391 1.393 . S
C395 C394 1.391 . S
H396 C404 0.950 . S
H397 C409 0.950 . S
H398 C406 0.950 . S
H399 C408 0.950 . S
H400 C410 0.950 . S
H401 C412 0.950 . S
H402 C414 0.950 . S
H403 C415 0.950 . S
C404 H396 0.950 . S
C404 C405 1.386 . S
C404 C406 1.391 . S
C405 C404 1.386 . S
C405 C409 1.393 . S
C406 H398 0.950 . S
C406 C404 1.391 . S
C406 C407 1.400 . S
C407 C406 1.400 . S
C407 C408 1.398 . S
C407 C413 1.491 . S
C408 H399 0.950 . S
C408 C407 1.398 . S
C408 C409 1.391 . S
C409 H397 0.950 . S
C409 C405 1.393 . S
C409 C408 1.391 . S
C410 H400 0.950 . S
C410 C411 1.386 . S
C410 C412 1.391 . S
C411 C410 1.386 . S
C411 C415 1.393 . S
C412 H401 0.950 . S
C412 C410 1.391 . S
C412 C413 1.400 . S
C413 C407 1.491 . S
C413 C412 1.400 . S
C413 C414 1.398 . S
C414 H402 0.950 . S
C414 C413 1.398 . S
C414 C415 1.391 . S
C415 H403 0.950 . S
C415 C411 1.393 . S
C415 C414 1.391 . S
H416 C424 0.950 . S
H417 C429 0.950 . S
H418 C426 0.950 . S
H419 C428 0.950 . S
H420 C430 0.950 . S
H421 C432 0.950 . S
H422 C434 0.950 . S
H423 C435 0.950 . S
C424 H416 0.950 . S
C424 C425 1.386 . S
C424 C426 1.391 . S
C425 C424 1.386 . S
C425 C429 1.393 . S
C426 H418 0.950 . S
C426 C424 1.391 . S
C426 C427 1.400 . S
C427 C426 1.400 . S
C427 C428 1.398 . S
C427 C433 1.491 . S
C428 H419 0.950 . S
C428 C427 1.398 . S
C428 C429 1.391 . S
C429 H417 0.950 . S
C429 C425 1.393 . S
C429 C428 1.391 . S
C430 H420 0.950 . S
C430 C431 1.386 . S
C430 C432 1.391 . S
C431 C430 1.386 . S
C431 C435 1.393 . S
C432 H421 0.950 . S
C432 C430 1.391 . S
C432 C433 1.400 . S
C433 C427 1.491 . S
C433 C432 1.400 . S
C433 C434 1.398 . S
C434 H422 0.950 . S
C434 C433 1.398 . S
C434 C435 1.391 . S
C435 H423 0.950 . S
C435 C431 1.393 . S
C435 C434 1.391 . S
H436 C444 0.950 . S
H437 C449 0.950 . S
H438 C446 0.950 . S
H439 C448 0.950 . S
H440 C450 0.950 . S
H441 C452 0.950 . S
H442 C454 0.950 . S
H443 C455 0.950 . S
C444 H436 0.950 . S
C444 C445 1.386 . S
C444 C446 1.391 . S
C445 C444 1.386 . S
C445 C449 1.393 . S
C446 H438 0.950 . S
C446 C444 1.391 . S
C446 C447 1.400 . S
C447 C446 1.400 . S
C447 C448 1.398 . S
C447 C453 1.491 . S
C448 H439 0.950 . S
C448 C447 1.398 . S
C448 C449 1.391 . S
C449 H437 0.950 . S
C449 C445 1.393 . S
C449 C448 1.391 . S
C450 H440 0.950 . S
C450 C451 1.386 . S
C450 C452 1.391 . S
C451 C450 1.386 . S
C451 C455 1.393 . S
C452 H441 0.950 . S
C452 C450 1.391 . S
C452 C453 1.400 . S
C453 C447 1.491 . S
C453 C452 1.400 . S
C453 C454 1.398 . S
C454 H442 0.950 . S
C454 C453 1.398 . S
C454 C455 1.391 . S
C455 H443 0.950 . S
C455 C451 1.393 . S
C455 C454 1.391 . S
H456 C464 0.950 . S
H457 C469 0.950 . S
H458 C466 0.950 . S
H459 C468 0.950 . S
H460 C470 0.950 . S
H461 C472 0.950 . S
H462 C474 0.950 . S
H463 C475 0.950 . S
C464 H456 0.950 . S
C464 C465 1.386 . S
C464 C466 1.391 . S
C465 C464 1.386 . S
C465 C469 1.393 . S
C466 H458 0.950 . S
C466 C464 1.391 . S
C466 C467 1.400 . S
C467 C466 1.400 . S
C467 C468 1.398 . S
C467 C473 1.491 . S
C468 H459 0.950 . S
C468 C467 1.398 . S
C468 C469 1.391 . S
C469 H457 0.950 . S
C469 C465 1.393 . S
C469 C468 1.391 . S
C470 H460 0.950 . S
C470 C471 1.386 . S
C470 C472 1.391 . S
C471 C470 1.386 . S
C471 C475 1.393 . S
C472 H461 0.950 . S
C472 C470 1.391 . S
C472 C473 1.400 . S
C473 C467 1.491 . S
C473 C472 1.400 . S
C473 C474 1.398 . S
C474 H462 0.950 . S
C474 C473 1.398 . S
C474 C475 1.391 . S
C475 H463 0.950 . S
C475 C471 1.393 . S
C475 C474 1.391 . S
H476 C484 0.950 . S
H477 C489 0.950 . S
H478 C486 0.950 . S
H479 C488 0.950 . S
H480 C490 0.950 . S
H481 C492 0.950 . S
H482 C494 0.950 . S
H483 C495 0.950 . S
C484 H476 0.950 . S
C484 C485 1.386 . S
C484 C486 1.391 . S
C485 C484 1.386 . S
C485 C489 1.393 . S
C486 H478 0.950 . S
C486 C484 1.391 . S
C486 C487 1.400 . S
C487 C486 1.400 . S
C487 C488 1.398 . S
C487 C493 1.491 . S
C488 H479 0.950 . S
C488 C487 1.398 . S
C488 C489 1.391 . S
C489 H477 0.950 . S
C489 C485 1.393 . S
C489 C488 1.391 . S
C490 H480 0.950 . S
C490 C491 1.386 . S
C490 C492 1.391 . S
C491 C490 1.386 . S
C491 C495 1.393 . S
C492 H481 0.950 . S
C492 C490 1.391 . S
C492 C493 1.400 . S
C493 C487 1.491 . S
C493 C492 1.400 . S
C493 C494 1.398 . S
C494 H482 0.950 . S
C494 C493 1.398 . S
C494 C495 1.391 . S
C495 H483 0.950 . S
C495 C491 1.393 . S
C495 C494 1.391 . S
H496 C504 0.950 . S
H497 C509 0.950 . S
H498 C506 0.950 . S
H499 C508 0.950 . S
H500 C510 0.950 . S
H501 C512 0.950 . S
H502 C514 0.950 . S
H503 C515 0.950 . S
C504 H496 0.950 . S
C504 C505 1.386 . S
C504 C506 1.391 . S
C505 C504 1.386 . S
C505 C509 1.393 . S
C506 H498 0.950 . S
C506 C504 1.391 . S
C506 C507 1.400 . S
C507 C506 1.400 . S
C507 C508 1.398 . S
C507 C513 1.491 . S
C508 H499 0.950 . S
C508 C507 1.398 . S
C508 C509 1.391 . S
C509 H497 0.950 . S
C509 C505 1.393 . S
C509 C508 1.391 . S
C510 H500 0.950 . S
C510 C511 1.386 . S
C510 C512 1.391 . S
C511 C510 1.386 . S
C511 C515 1.393 . S
C512 H501 0.950 . S
C512 C510 1.391 . S
C512 C513 1.400 . S
C513 C507 1.491 . S
C513 C512 1.400 . S
C513 C514 1.398 . S
C514 H502 0.950 . S
C514 C513 1.398 . S
C514 C515 1.391 . S
C515 H503 0.950 . S
C515 C511 1.393 . S
C515 C514 1.391 . S
H516 C524 0.950 . S
H517 C529 0.950 . S
H518 C526 0.950 . S
H519 C528 0.950 . S
H520 C530 0.950 . S
H521 C532 0.950 . S
H522 C534 0.950 . S
H523 C535 0.950 . S
C524 H516 0.950 . S
C524 C525 1.386 . S
C524 C526 1.391 . S
C525 C524 1.386 . S
C525 C529 1.393 . S
C526 H518 0.950 . S
C526 C524 1.391 . S
C526 C527 1.400 . S
C527 C526 1.400 . S
C527 C528 1.398 . S
C527 C533 1.491 . S
C528 H519 0.950 . S
C528 C527 1.398 . S
C528 C529 1.391 . S
C529 H517 0.950 . S
C529 C525 1.393 . S
C529 C528 1.391 . S
C530 H520 0.950 . S
C530 C531 1.386 . S
C530 C532 1.391 . S
C531 C530 1.386 . S
C531 C535 1.393 . S
C532 H521 0.950 . S
C532 C530 1.391 . S
C532 C533 1.400 . S
C533 C527 1.491 . S
C533 C532 1.400 . S
C533 C534 1.398 . S
C534 H522 0.950 . S
C534 C533 1.398 . S
C534 C535 1.391 . S
C535 H523 0.950 . S
C535 C531 1.393 . S
C535 C534 1.391 . S
H536 C544 0.950 . S
H537 C549 0.950 . S
H538 C546 0.950 . S
H539 C548 0.950 1_455 S
H540 C550 0.950 . S
H541 C552 0.950 . S
H542 C554 0.950 1_655 S
H543 C555 0.950 . S
C544 H536 0.950 . S
C544 C545 1.386 . S
C544 C546 1.391 . S
C545 C544 1.386 . S
C545 C549 1.393 . S
C546 H538 0.950 . S
C546 C544 1.391 . S
C546 C547 1.400 . S
C547 C546 1.400 . S
C547 C548 1.398 . S
C547 C553 1.491 1_655 S
C548 H539 0.950 1_655 S
C548 C547 1.398 . S
C548 C549 1.391 . S
C549 H537 0.950 . S
C549 C545 1.393 . S
C549 C548 1.391 . S
C550 H540 0.950 . S
C550 C551 1.386 . S
C550 C552 1.391 . S
C551 C550 1.386 . S
C551 C555 1.393 . S
C552 H541 0.950 . S
C552 C550 1.391 . S
C552 C553 1.400 . S
C553 C547 1.491 1_455 S
C553 C552 1.400 . S
C553 C554 1.398 . S
C554 H542 0.950 1_455 S
C554 C553 1.398 . S
C554 C555 1.391 . S
C555 H543 0.950 . S
C555 C551 1.393 . S
C555 C554 1.391 . S
H556 C564 0.950 . S
H557 C569 0.950 . S
H558 C566 0.950 . S
H559 C568 0.950 . S
H560 C570 0.950 . S
H561 C572 0.950 . S
H562 C574 0.950 . S
H563 C575 0.950 . S
C564 H556 0.950 . S
C564 C565 1.386 . S
C564 C566 1.391 . S
C565 C564 1.386 . S
C565 C569 1.393 . S
C566 H558 0.950 . S
C566 C564 1.391 . S
C566 C567 1.400 . S
C567 C566 1.400 . S
C567 C568 1.398 1_545 S
C567 C573 1.491 1_545 S
C568 H559 0.950 . S
C568 C567 1.398 1_565 S
C568 C569 1.391 1_565 S
C569 H557 0.950 . S
C569 C565 1.393 . S
C569 C568 1.391 1_545 S
C570 H560 0.950 . S
C570 C571 1.386 . S
C570 C572 1.391 . S
C571 C570 1.386 . S
C571 C575 1.393 . S
C572 H561 0.950 . S
C572 C570 1.391 . S
C572 C573 1.400 . S
C573 C567 1.491 1_565 S
C573 C572 1.400 . S
C573 C574 1.398 1_565 S
C574 H562 0.950 . S
C574 C573 1.398 1_545 S
C574 C575 1.391 1_545 S
C575 H563 0.950 . S
C575 C571 1.393 . S
C575 C574 1.391 1_565 S
H576 C584 0.950 . S
H577 C589 0.950 . S
H578 C586 0.950 . S
H579 C588 0.950 . S
H580 C590 0.950 . S
H581 C592 0.950 . S
H582 C594 0.950 . S
H583 C595 0.950 . S
C584 H576 0.950 . S
C584 C585 1.386 . S
C584 C586 1.391 . S
C585 C584 1.386 . S
C585 C589 1.393 . S
C586 H578 0.950 . S
C586 C584 1.391 . S
C586 C587 1.400 . S
C587 C586 1.400 . S
C587 C588 1.398 . S
C587 C593 1.491 . S
C588 H579 0.950 . S
C588 C587 1.398 . S
C588 C589 1.391 . S
C589 H577 0.950 . S
C589 C585 1.393 . S
C589 C588 1.391 . S
C590 H580 0.950 . S
C590 C591 1.386 . S
C590 C592 1.391 . S
C591 C590 1.386 . S
C591 C595 1.393 . S
C592 H581 0.950 . S
C592 C590 1.391 . S
C592 C593 1.400 . S
C593 C587 1.491 . S
C593 C592 1.400 . S
C593 C594 1.398 . S
C594 H582 0.950 . S
C594 C593 1.398 . S
C594 C595 1.391 . S
C595 H583 0.950 . S
C595 C591 1.393 . S
C595 C594 1.391 . S
H596 C604 0.950 . S
H597 C609 0.950 . S
H598 C606 0.950 . S
H599 C608 0.950 1_655 S
H600 C610 0.950 . S
H601 C612 0.950 . S
H602 C614 0.950 1_455 S
H603 C615 0.950 . S
C604 H596 0.950 . S
C604 C605 1.386 . S
C604 C606 1.391 . S
C605 C604 1.386 . S
C605 C609 1.393 . S
C606 H598 0.950 . S
C606 C604 1.391 . S
C606 C607 1.400 . S
C607 C606 1.400 . S
C607 C608 1.398 . S
C607 C613 1.491 1_455 S
C608 H599 0.950 1_455 S
C608 C607 1.398 . S
C608 C609 1.391 . S
C609 H597 0.950 . S
C609 C605 1.393 . S
C609 C608 1.391 . S
C610 H600 0.950 . S
C610 C611 1.386 . S
C610 C612 1.391 . S
C611 C610 1.386 . S
C611 C615 1.393 . S
C612 H601 0.950 . S
C612 C610 1.391 . S
C612 C613 1.400 . S
C613 C607 1.491 1_655 S
C613 C612 1.400 . S
C613 C614 1.398 . S
C614 H602 0.950 1_655 S
C614 C613 1.398 . S
C614 C615 1.391 . S
C615 H603 0.950 . S
C615 C611 1.393 . S
C615 C614 1.391 . S
H616 C624 0.950 . S
H617 C629 0.950 . S
H618 C626 0.950 . S
H619 C628 0.950 . S
H620 C630 0.950 . S
H621 C632 0.950 . S
H622 C634 0.950 . S
H623 C635 0.950 . S
C624 H616 0.950 . S
C624 C625 1.386 . S
C624 C626 1.391 . S
C625 C624 1.386 . S
C625 C629 1.393 . S
C626 H618 0.950 . S
C626 C624 1.391 . S
C626 C627 1.400 . S
C627 C626 1.400 . S
C627 C628 1.398 . S
C627 C633 1.491 1_565 S
C628 H619 0.950 . S
C628 C627 1.398 . S
C628 C629 1.391 . S
C629 H617 0.950 . S
C629 C625 1.393 . S
C629 C628 1.391 . S
C630 H620 0.950 . S
C630 C631 1.386 . S
C630 C632 1.391 . S
C631 C630 1.386 . S
C631 C635 1.393 . S
C632 H621 0.950 . S
C632 C630 1.391 . S
C632 C633 1.400 . S
C633 C627 1.491 1_545 S
C633 C632 1.400 . S
C633 C634 1.398 . S
C634 H622 0.950 . S
C634 C633 1.398 . S
C634 C635 1.391 . S
C635 H623 0.950 . S
C635 C631 1.393 . S
C635 C634 1.391 . S
C165 C96 1.443 . S
C171 C5 1.451 . S
C185 C16 1.451 . S
C191 C109 1.444 . S
C205 C29 1.446 . S
C211 C122 1.437 . S
C225 C42 1.439 . S
C231 C133 1.442 . S
C245 C148 1.437 . S
C251 C55 1.452 . S
C265 C83 1.443 . S
C271 C68 1.451 . S
C285 C135 1.213 . S
C291 C3 1.213 . S
C305 C18 1.213 . S
C311 C146 1.215 . S
C325 C31 1.213 . S
C331 C81 1.213 . S
C345 C94 1.218 . S
C351 C44 1.220 . S
C365 C107 1.220 . S
C371 C57 1.219 . S
C385 C120 1.219 . S
C391 C70 1.220 . S
C405 C10 1.664 . S
C411 C114 1.669 . S
C425 C17 1.664 . S
C431 C127 1.673 . S
C445 C134 1.666 . S
C451 C30 1.673 . S
C465 C43 1.671 . S
C471 C153 1.671 . S
C485 C88 1.673 . S
C491 C56 1.665 . S
C505 C101 1.673 . S
C511 C69 1.666 . S
C525 C49 1.619 . S
C531 C4 1.619 . S
C545 C62 1.630 . S
C551 C23 1.630 . S
C565 C36 1.626 . S
C571 C75 1.625 . S
C585 C82 1.618 . S
C591 C121 1.618 . S
C605 C95 1.620 . S
C611 C140 1.620 . S
C625 C147 1.632 . S
C631 C108 1.632 . S
