# Generated by pormake.
# Topology ske, (6)-cn, num edge types: 1
# Building blocks:
#     Node 0, Type 0, BuildingBlock: KUMBOL_clean_sbu_0, # of connection points: 6
#     Node 1, Type 0, BuildingBlock: KUMBOL_clean_sbu_0, # of connection points: 6
#     Node 2, Type 0, BuildingBlock: KUMBOL_clean_sbu_0, # of connection points: 6
#     Node 3, Type 0, BuildingBlock: KUMBOL_clean_sbu_0, # of connection points: 6
#     Node 4, Type 0, BuildingBlock: KUMBOL_clean_sbu_0, # of connection points: 6
#     Node 5, Type 0, BuildingBlock: KUMBOL_clean_sbu_0, # of connection points: 6
#     Node 6, Type 0, BuildingBlock: KUMBOL_clean_sbu_0, # of connection points: 6
#     Node 7, Type 0, BuildingBlock: KUMBOL_clean_sbu_0, # of connection points: 6
#     Edge 8, Type (0, 0), BuildingBlock: EZIPEK_clean_linker_0, # of connection points: 2
#     Edge 9, Type (0, 0), BuildingBlock: EZIPEK_clean_linker_0, # of connection points: 2
#     Edge 10, Type (0, 0), BuildingBlock: EZIPEK_clean_linker_0, # of connection points: 2
#     Edge 11, Type (0, 0), BuildingBlock: EZIPEK_clean_linker_0, # of connection points: 2
#     Edge 12, Type (0, 0), BuildingBlock: EZIPEK_clean_linker_0, # of connection points: 2
#     Edge 13, Type (0, 0), BuildingBlock: EZIPEK_clean_linker_0, # of connection points: 2
#     Edge 14, Type (0, 0), BuildingBlock: EZIPEK_clean_linker_0, # of connection points: 2
#     Edge 15, Type (0, 0), BuildingBlock: EZIPEK_clean_linker_0, # of connection points: 2
#     Edge 16, Type (0, 0), BuildingBlock: EZIPEK_clean_linker_0, # of connection points: 2
#     Edge 17, Type (0, 0), BuildingBlock: EZIPEK_clean_linker_0, # of connection points: 2
#     Edge 18, Type (0, 0), BuildingBlock: EZIPEK_clean_linker_0, # of connection points: 2
#     Edge 19, Type (0, 0), BuildingBlock: EZIPEK_clean_linker_0, # of connection points: 2
#     Edge 20, Type (0, 0), BuildingBlock: EZIPEK_clean_linker_0, # of connection points: 2
#     Edge 21, Type (0, 0), BuildingBlock: EZIPEK_clean_linker_0, # of connection points: 2
#     Edge 22, Type (0, 0), BuildingBlock: EZIPEK_clean_linker_0, # of connection points: 2
#     Edge 23, Type (0, 0), BuildingBlock: EZIPEK_clean_linker_0, # of connection points: 2
#     Edge 24, Type (0, 0), BuildingBlock: EZIPEK_clean_linker_0, # of connection points: 2
#     Edge 25, Type (0, 0), BuildingBlock: EZIPEK_clean_linker_0, # of connection points: 2
#     Edge 26, Type (0, 0), BuildingBlock: EZIPEK_clean_linker_0, # of connection points: 2
#     Edge 27, Type (0, 0), BuildingBlock: EZIPEK_clean_linker_0, # of connection points: 2
#     Edge 28, Type (0, 0), BuildingBlock: EZIPEK_clean_linker_0, # of connection points: 2
#     Edge 29, Type (0, 0), BuildingBlock: EZIPEK_clean_linker_0, # of connection points: 2
#     Edge 30, Type (0, 0), BuildingBlock: EZIPEK_clean_linker_0, # of connection points: 2
#     Edge 31, Type (0, 0), BuildingBlock: EZIPEK_clean_linker_0, # of connection points: 2
# Relax obj value: 0.111
# Max RMSD: 0.193
# Mean RMSD: 0.188
data_MOF--net-ske--node1-KUMBOL_clean_sbu_0--edge1-EZIPEK_clean_linker_0
_symmetry_space_group_name_H-M    P1
_symmetry_Int_Tables_number       1
_symmetry_cell_setting            triclinic
loop_
_symmetry_equiv_pos_as_xyz
'x, y, z'
_cell_length_a     82.828836
_cell_length_b     22.345088
_cell_length_c     10.844089
_cell_angle_alpha  89.890866
_cell_angle_beta   90.30711
_cell_angle_gamma 115.71953
loop_
_atom_site_label
_atom_site_type_symbol
_atom_site_fract_x
_atom_site_fract_y
_atom_site_fract_z
_atom_type_partial_charge
Gd0 Gd 0.15603 0.27134 0.47616 0.0
Gd1 Gd 0.10666 0.18996 0.48744 0.0
C2 C 0.07655 0.05275 0.80593 0.0
C3 C 0.06353 0.94414 0.70771 0.0
C4 C 0.08158 0.04296 0.5888 0.0
C5 C 0.08445 0.08177 0.6928 0.0
C6 C 0.0709 0.97376 0.59445 0.0
C7 C 0.06637 0.98358 0.81336 0.0
C8 C 0.07859 0.09439 0.90692 0.0
C9 C 0.08754 0.16313 0.89163 0.0
N10 N 0.0942 0.1484 0.68183 0.0
C11 C 0.09497 0.18932 0.77704 0.0
H12 H 0.10135 0.24245 0.76415 0.0
C13 C 0.08528 0.03766 0.37381 0.0
N14 N 0.08903 0.07338 0.48116 0.0
C15 C 0.07479 0.96889 0.37474 0.0
C16 C 0.0677 0.93667 0.48571 0.0
H17 H 0.09037 0.06207 0.28743 0.0
H18 H 0.0603 0.96032 0.89961 0.0
H19 H 0.16147 0.19219 0.2278 0.0
H20 H 0.07279 0.07416 0.99558 0.0
H21 H 0.08867 0.196 0.96777 0.0
H22 H 0.05535 0.89101 0.71406 0.0
H23 H 0.17974 0.41514 0.63116 0.0
H24 H 0.18152 0.33257 0.93442 0.0
H25 H 0.1706 0.21729 1.01057 0.0
H26 H 0.1999 0.54093 0.14148 0.0
H27 H 0.07207 0.94086 0.28968 0.0
H28 H 0.0595 0.88348 0.48597 0.0
H29 H 0.19248 0.45373 0.98374 0.0
H30 H 0.19652 0.53419 0.58334 0.0
N31 N 0.16607 0.29074 0.27133 0.0
C32 C 0.17765 0.32163 0.02964 0.0
C33 C 0.17138 0.25647 0.07227 0.0
C34 C 0.17982 0.37246 0.11246 0.0
C35 C 0.17415 0.35529 0.2352 0.0
C36 C 0.1659 0.24207 0.19494 0.0
N37 N 0.17436 0.38548 0.44345 0.0
C38 C 0.17848 0.4043 0.32406 0.0
C39 C 0.19132 0.49829 0.50937 0.0
C40 C 0.19428 0.51913 0.38664 0.0
C41 C 0.18168 0.4307 0.53624 0.0
C42 C 0.18831 0.47175 0.29218 0.0
H43 H 0.20186 0.57146 0.36606 0.0
O44 O 0.18356 0.28392 0.45562 0.0
O45 O 0.13223 0.22799 0.60496 0.0
O46 O 0.11777 0.29841 0.54154 0.0
O47 O 0.14668 0.35162 0.46138 0.0
O48 O 0.15497 0.30261 0.67618 0.0
O49 O 0.1675 0.22375 0.60248 0.0
O50 O 0.08702 0.19233 0.35688 0.0
O51 O 0.13076 0.23018 0.36025 0.0
O52 O 0.14479 0.16293 0.42094 0.0
O53 O 0.11614 0.11044 0.5032 0.0
O54 O 0.10642 0.18448 0.27646 0.0
O55 O 0.08677 0.22456 0.54387 0.0
C56 C 0.13872 0.26202 0.70501 0.0
C57 C 0.19259 0.48931 0.16805 0.0
C58 C 0.18835 0.43968 0.07821 0.0
C59 C 0.18328 0.24946 0.55265 0.0
C60 C 0.19886 0.27897 0.6375 0.0
C61 C 0.20012 0.32885 0.72037 0.0
C62 C 0.21259 0.25741 0.63666 0.0
C63 C 0.22722 0.28515 0.71969 0.0
C64 C 0.21457 0.35644 0.80208 0.0
C65 C 0.22799 0.33454 0.80239 0.0
C66 C 0.13162 0.35157 0.50025 0.0
C67 C 0.12323 0.21542 0.25229 0.0
C68 C 0.07853 0.21084 0.4378 0.0
C69 C 0.05872 0.17305 0.43812 0.0
C70 C 0.05069 0.10435 0.4151 0.0
C71 C 0.04766 0.20593 0.45383 0.0
C72 C 0.02882 0.17033 0.44429 0.0
C73 C 0.03211 0.06922 0.40566 0.0
C74 C 0.02123 0.10197 0.41918 0.0
C75 C 0.13114 0.10976 0.46522 0.0
H76 H 0.1898 0.34602 0.72279 0.0
H77 H 0.21184 0.21902 0.57283 0.0
H78 H 0.21533 0.39476 0.86595 0.0
H79 H 0.23906 0.35635 0.86689 0.0
H80 H 0.05875 0.07786 0.4017 0.0
H81 H 0.05364 0.25894 0.47133 0.0
H82 H 0.02613 0.01648 0.38625 0.0
H83 H 1.00685 0.07404 0.40996 0.0
Gd84 Gd 0.85567 0.22378 0.50981 0.0
Gd85 Gd 0.9047 0.28991 0.52235 0.0
C86 C 0.92683 0.32723 0.91578 0.0
C87 C 0.94056 0.44766 0.9283 0.0
C88 C 0.92636 0.39193 0.73763 0.0
C89 C 0.92138 0.33084 0.7935 0.0
C90 C 0.93658 0.45102 0.80313 0.0
C91 C 0.93576 0.38579 0.98443 0.0
C92 C 0.92392 0.26517 0.96333 0.0
C93 C 0.91606 0.20892 0.88866 0.0
N94 N 0.91259 0.27508 0.72508 0.0
C95 C 0.91033 0.21472 0.76951 0.0
H96 H 0.90419 0.17066 0.71357 0.0
C97 C 0.93132 0.45117 0.55025 0.0
N98 N 0.92285 0.39331 0.61557 0.0
C99 C 0.94115 0.51125 0.61141 0.0
C100 C 0.94342 0.51138 0.73909 0.0
H101 H 0.93014 0.45065 0.45109 0.0
H102 H 0.93966 0.38385 0.07936 0.0
H103 H 0.85062 0.32136 0.29093 0.0
H104 H 0.9281 0.26038 0.05624 0.0
H105 H 0.91411 0.16085 0.92349 0.0
H106 H 0.94813 0.49252 0.9807 0.0
H107 H 0.82844 0.06615 0.60755 0.0
H108 H 0.83473 0.21151 0.95429 0.0
H109 H 0.84266 0.31555 0.07107 0.0
H110 H 0.82006 0.98931 0.08257 0.0
H111 H 0.94718 0.5572 0.55989 0.0
H112 H 0.9513 0.55784 0.78612 0.0
H113 H 0.82758 0.08997 0.95781 0.0
H114 H 0.81426 0.9532 0.5193 0.0
N115 N 0.84744 0.22153 0.30015 0.0
C116 C 0.83811 0.21358 0.05135 0.0
C117 C 0.84249 0.27226 0.1171 0.0
C118 C 0.837 0.15713 0.11378 0.0
C119 C 0.84131 0.16246 0.24065 0.0
C120 C 0.84713 0.27539 0.24211 0.0
N121 N 0.83823 0.11361 0.43493 0.0
C122 C 0.83678 0.10621 0.3108 0.0
C123 C 0.82073 -0.0043 0.45937 0.0
C124 C 0.82094 0.98694 0.33213 0.0
C125 C 0.8288 0.05982 0.50896 0.0
C126 C 0.82829 0.04278 0.25569 0.0
H127 H 0.81437 0.93734 0.29364 0.0
O128 O 0.83014 0.18603 0.60543 0.0
O129 O 0.87992 0.25845 0.63695 0.0
O130 O 0.89184 0.17681 0.51008 0.0
O131 O 0.8617 0.13824 0.55811 0.0
O132 O 0.85599 0.22436 0.72268 0.0
O133 O 0.84028 0.28171 0.51678 0.0
O134 O 0.92888 0.32918 0.41069 0.0
O135 O 0.88077 0.24916 0.38947 0.0
O136 O 0.8683 0.33442 0.47593 0.0
O137 O 0.89702 0.37332 0.55862 0.0
O138 O 0.90348 0.32935 0.33057 0.0
O139 O 0.92176 0.2381 0.51147 0.0
C140 C 0.87292 0.25046 0.74569 0.0
C141 C 0.82616 0.03752 0.12694 0.0
C142 C 0.83043 0.0948 0.0559 0.0
C143 C 0.8271 0.23689 0.57816 0.0
C144 C 0.8088 0.22239 0.53679 0.0
C145 C 0.80242 0.19301 0.42154 0.0
C146 C 0.79745 0.23724 0.61454 0.0
C147 C 0.77983 0.22282 0.57717 0.0
C148 C 0.78497 0.179 0.38401 0.0
C149 C 0.77372 0.19379 0.46121 0.0
C150 C 0.87604 0.12867 0.54028 0.0
C151 C 0.88751 0.28866 0.29612 0.0
C152 C 0.934 0.28425 0.446 0.0
C153 C 0.95283 0.30811 0.48984 0.0
C154 C 0.96096 0.36692 0.55908 0.0
C155 C 0.96285 0.27207 0.46378 0.0
C156 C 0.98065 0.29488 0.50769 0.0
C157 C 0.97851 0.38938 0.60218 0.0
C158 C 0.9883 0.35359 0.57699 0.0
C159 C 0.8831 0.38224 0.52025 0.0
H160 H 0.81088 0.18071 0.36095 0.0
H161 H 0.80227 0.25978 0.70394 0.0
H162 H 0.78013 0.15639 0.2949 0.0
H163 H 0.76021 0.18241 0.43083 0.0
H164 H 0.95388 0.39602 0.57999 0.0
H165 H 0.95687 0.22668 0.41026 0.0
H166 H 0.98454 0.43482 0.65539 0.0
H167 H 1.00192 0.37178 0.61136 0.0
Gd168 Gd 0.10851 0.69981 0.52003 0.0
Gd169 Gd 0.1575 0.76964 0.53185 0.0
C170 C 0.17316 0.80353 0.94061 0.0
C171 C 0.17951 0.91924 0.9698 0.0
C172 C 0.1717 0.86853 0.76609 0.0
C173 C 0.16917 0.8083 0.8152 0.0
C174 C 0.17769 0.92549 0.84216 0.0
C175 C 0.17745 0.85836 1.01888 0.0
C176 C 0.1737 0.74506 0.98176 0.0
C177 C 0.17126 0.69488 0.89707 0.0
N178 N 0.16509 0.75649 0.73691 0.0
C179 C 0.1674 0.70233 0.77383 0.0
H180 H 0.16681 0.66562 0.70765 0.0
C181 C 0.1788 0.93477 0.58761 0.0
N182 N 0.17085 0.87308 0.64163 0.0
C183 C 0.18424 0.9925 0.65863 0.0
C184 C 0.18308 0.98766 0.7867 0.0
H185 H 0.18048 0.93982 0.48875 0.0
H186 H 0.18002 0.85507 0.11614 0.0
H187 H 0.10659 0.79757 0.29472 0.0
H188 H 0.1768 0.7395 0.07708 0.0
H189 H 0.17261 0.65089 0.92618 0.0
H190 H 0.18371 0.96212 0.0299 0.0
H191 H 0.08765 0.54685 0.64538 0.0
H192 H 0.07768 0.67622 0.98963 0.0
H193 H 0.09407 0.78729 0.08406 0.0
H194 H 0.05654 0.45537 0.15043 0.0
H195 H 0.18956 0.04072 0.61452 0.0
H196 H 0.18759 0.03246 0.84175 0.0
H197 H 0.06403 0.55208 1.01447 0.0
H198 H 0.06788 0.4325 0.5784 0.0
N199 N 0.09766 0.69376 0.31789 0.0
C200 C 0.08308 0.68048 0.08214 0.0
C201 C 0.09232 0.74324 0.13512 0.0
C202 C 0.08014 0.6239 0.15169 0.0
C203 C 0.08737 0.63233 0.27199 0.0
C204 C 0.09952 0.74896 0.25396 0.0
N205 N 0.08911 0.58887 0.46685 0.0
C206 C 0.08288 0.57813 0.34897 0.0
C207 C 0.07207 0.47296 0.51281 0.0
C208 C 0.06633 0.46069 0.39021 0.0
C209 C 0.08324 0.5378 0.55049 0.0
C210 C 0.07146 0.5137 0.30706 0.0
H211 H 0.0576 0.41044 0.36151 0.0
O212 O 0.08635 0.67629 0.64713 0.0
O213 O 0.1324 0.74153 0.65356 0.0
O214 O 0.14532 0.65737 0.54341 0.0
O215 O 0.11593 0.61737 0.47261 0.0
O216 O 0.10978 0.66106 0.71119 0.0
O217 O 0.09183 0.75317 0.51127 0.0
O218 O 0.1851 0.82478 0.47352 0.0
O219 O 0.13342 0.73502 0.40444 0.0
O220 O 0.12106 0.81267 0.51455 0.0
O221 O 0.15118 0.85171 0.46605 0.0
O222 O 0.15765 0.77461 0.31983 0.0
O223 O 0.1737 0.71776 0.48522 0.0
C224 C 0.12568 0.7015 0.74651 0.0
C225 C 0.06518 0.50455 0.18475 0.0
C226 C 0.06949 0.55959 0.10722 0.0
C227 C 0.08081 0.71689 0.59567 0.0
C228 C 0.06141 0.69031 0.56652 0.0
C229 C 0.05163 0.62356 0.53152 0.0
C230 C 0.05247 0.73156 0.57386 0.0
C231 C 0.03398 0.7059 0.54646 0.0
C232 C 0.03339 0.59832 0.50402 0.0
C233 C 0.0246 0.63912 0.51131 0.0
C234 C 0.13016 0.60874 0.50356 0.0
C235 C 0.14071 0.74665 0.29614 0.0
C236 C 0.18806 0.7723 0.46339 0.0
C237 C 0.20514 0.77729 0.51506 0.0
C238 C 0.21024 0.79932 0.63644 0.0
C239 C 0.21678 0.76191 0.44098 0.0
C240 C 0.23339 0.76859 0.48816 0.0
C241 C 0.2266 0.80528 0.68372 0.0
C242 C 0.23812 0.79009 0.61021 0.0
C243 C 0.13673 0.86071 0.48265 0.0
H244 H 0.058 0.59057 0.52602 0.0
H245 H 0.0598 0.7831 0.60109 0.0
H246 H 0.02602 0.54678 0.47727 0.0
H247 H 0.01042 0.61855 0.48987 0.0
H248 H 0.20169 0.81256 0.69426 0.0
H249 H 0.21304 0.74539 0.34674 0.0
H250 H 0.23041 0.82224 0.77749 0.0
H251 H 0.2508 0.79545 0.64819 0.0
Gd252 Gd 0.90777 0.80485 0.5265 0.0
Gd253 Gd 0.85831 0.71338 0.54224 0.0
C254 C 0.82704 0.57526 0.85453 0.0
C255 C 0.81602 0.46635 0.75807 0.0
C256 C 0.83417 0.56582 0.64126 0.0
C257 C 0.83562 0.60465 0.74351 0.0
C258 C 0.82456 0.49611 0.64768 0.0
C259 C 0.81722 0.50588 0.86125 0.0
C260 C 0.82848 0.61662 0.95494 0.0
C261 C 0.83794 0.68543 0.94192 0.0
N262 N 0.84537 0.67138 0.73403 0.0
C263 C 0.84612 0.71207 0.8294 0.0
H264 H 0.85309 0.76522 0.81842 0.0
C265 C 0.84248 0.5598 0.43504 0.0
N266 N 0.84294 0.59632 0.53705 0.0
C267 C 0.83319 0.49046 0.43711 0.0
C268 C 0.82418 0.45844 0.54382 0.0
H269 H 0.84959 0.58373 0.35263 0.0
H270 H 0.81054 0.48232 0.94576 0.0
H271 H 0.91329 0.75065 0.25146 0.0
H272 H 0.82213 0.59607 0.04206 0.0
H273 H 0.83888 0.71796 1.0182 0.0
H274 H 0.80853 0.41287 0.76475 0.0
H275 H 0.92233 0.93575 0.7196 0.0
H276 H 0.93849 0.91752 1.0102 0.0
H277 H 0.92521 0.79619 0.04546 0.0
H278 H 0.95266 0.10353 0.28028 0.0
H279 H 0.83308 0.46173 0.35659 0.0
H280 H 0.81718 0.40471 0.54555 0.0
H281 H 0.94868 0.03224 0.09886 0.0
H282 H 0.93839 0.05806 0.70905 0.0
N283 N 0.91887 0.84475 0.32866 0.0
C284 C 0.93319 0.89775 0.10018 0.0
C285 C 0.92568 0.82925 0.11965 0.0
C286 C 0.93451 0.94004 0.19869 0.0
C287 C 0.92739 0.91162 0.31385 0.0
C288 C 0.9188 0.80361 0.23572 0.0
N289 N 0.92328 0.92215 0.52598 0.0
C290 C 0.92984 0.95167 0.41589 0.0
C291 C 0.93596 0.0287 0.62581 0.0
C292 C 0.94192 0.05983 0.5122 0.0
C293 C 0.92686 0.95939 0.63149 0.0
C294 C 0.93914 0.02131 0.40568 0.0
H295 H 0.94892 0.11347 0.50798 0.0
O296 O 0.92871 0.80925 0.65362 0.0
O297 O 0.88393 0.7636 0.65491 0.0
O298 O 0.86738 0.82231 0.58206 0.0
O299 O 0.89655 0.87988 0.51046 0.0
O300 O 0.90843 0.81224 0.73707 0.0
O301 O 0.92894 0.77854 0.46592 0.0
O302 O 0.83519 0.69602 0.4255 0.0
O303 O 0.88224 0.75408 0.41396 0.0
O304 O 0.89613 0.69295 0.48893 0.0
O305 O 0.87031 0.64568 0.60254 0.0
O306 O 0.85799 0.70185 0.33226 0.0
O307 O 0.84075 0.75996 0.58548 0.0
C308 C 0.89166 0.7797 0.76218 0.0
C309 C 0.94557 0.05007 0.29015 0.0
C310 C 0.94327 0.00949 0.18682 0.0
C311 C 0.93744 0.79308 0.5708 0.0
C312 C 0.95712 0.83308 0.56658 0.0
C313 C 0.96458 0.90275 0.56766 0.0
C314 C 0.96863 0.80148 0.56381 0.0
C315 C 0.98741 0.83943 0.56223 0.0
C316 C 0.98316 0.94032 0.56644 0.0
C317 C 0.99453 0.90898 0.56353 0.0
C318 C 0.88104 0.87741 0.54542 0.0
C319 C 0.87465 0.7355 0.30713 0.0
C320 C 0.82994 0.73268 0.49259 0.0
C321 C 0.81045 0.70702 0.5154 0.0
C322 C 0.80241 0.66384 0.61414 0.0
C323 C 0.79976 0.72692 0.43893 0.0
C324 C 0.78126 0.70413 0.46218 0.0
C325 C 0.78411 0.64105 0.63695 0.0
C326 C 0.7736 0.66115 0.56189 0.0
C327 C 0.88497 0.64406 0.56 0.0
H328 H 0.9561 0.92821 0.57057 0.0
H329 H 0.96304 0.74771 0.56322 0.0
H330 H 0.98875 0.99397 0.56863 0.0
H331 H 0.0089 0.9389 0.56312 0.0
H332 H 0.81026 0.64802 0.67417 0.0
H333 H 0.80581 0.76043 0.36252 0.0
H334 H 0.77805 0.60785 0.71358 0.0
H335 H 0.75945 0.64311 0.58145 0.0
Gd336 Gd 0.65807 0.77156 0.04752 0.0
Gd337 Gd 0.60891 0.69631 0.05948 0.0
C338 C 0.58317 0.60945 0.43064 0.0
C339 C 0.56862 0.49112 0.38679 0.0
C340 C 0.5845 0.57008 0.22508 0.0
C341 C 0.58928 0.62179 0.30776 0.0
C342 C 0.57352 0.50434 0.26233 0.0
C343 C 0.57345 0.54368 0.47096 0.0
C344 C 0.58618 0.66359 0.50729 0.0
C345 C 0.59424 0.72774 0.45883 0.0
N346 N 0.59847 0.68461 0.26491 0.0
C347 C 0.60017 0.73736 0.33651 0.0
H348 H 0.6065 0.78734 0.30106 0.0
C349 C 0.58133 0.53799 1.01614 0.0
N350 N 0.58917 0.58498 0.10536 0.0
C351 C 0.57056 0.47184 0.04811 0.0
C352 C 0.567 0.45458 0.17221 0.0
H353 H 0.58342 0.55174 0.92014 0.0
H354 H 0.56893 0.53316 0.56554 0.0
H355 H 0.66286 0.68506 0.80727 0.0
H356 H 0.5817 0.65631 0.60221 0.0
H357 H 0.59611 0.76993 0.51603 0.0
H358 H 0.56043 0.44083 0.41766 0.0
H359 H 0.68322 0.9144 0.19268 0.0
H360 H 0.68632 0.81899 0.50735 0.0
H361 H 0.67315 0.70485 0.59187 0.0
H362 H 0.7059 0.03239 0.69883 0.0
H363 H 0.56483 0.43444 0.97705 0.0
H364 H 0.55847 0.40348 0.1968 0.0
H365 H 0.69805 0.94183 0.54737 0.0
H366 H 0.70137 0.03271 0.14029 0.0
N367 N 0.66926 0.78642 0.84376 0.0
C368 C 0.68173 0.81053 0.602 0.0
C369 C 0.67437 0.74611 0.64954 0.0
C370 C 0.68411 0.86362 0.67972 0.0
C371 C 0.67789 0.84966 0.8021 0.0
C372 C 0.66841 0.73502 0.7718 0.0
N373 N 0.67787 0.88333 1.00582 0.0
C374 C 0.6824 0.90019 0.88657 0.0
C375 C 0.69592 -0.00394 0.06773 0.0
C376 C 0.6993 0.01514 0.94421 0.0
C377 C 0.68552 0.92919 0.09709 0.0
C378 C 0.69306 0.96658 0.85193 0.0
H379 H 0.70741 0.06679 0.92147 0.0
O380 O 0.67921 0.78852 0.1828 0.0
O381 O 0.63411 0.72404 0.1759 0.0
O382 O 0.62114 0.80614 0.1025 0.0
O383 O 0.64988 0.85425 1.01903 0.0
O384 O 0.65634 0.79992 0.24813 0.0
O385 O 0.67471 0.71825 0.0364 0.0
O386 O 0.58993 0.68796 0.9141 0.0
O387 O 0.63294 0.74376 0.93193 0.0
O388 O 0.64565 0.66219 0.9981 0.0
O389 O 0.61653 0.612 0.0765 0.0
O390 O 0.61066 0.66955 0.85695 0.0
O391 O 0.58925 0.73679 0.08339 0.0
C392 C 0.64039 0.75715 0.2769 0.0
C393 C 0.69793 0.98156 0.72778 0.0
C394 C 0.69345 0.93002 0.64158 0.0
C395 C 0.68486 0.74908 0.12963 0.0
C396 C 0.70447 0.77554 0.11188 0.0
C397 C 0.71296 0.82351 1.02082 0.0
C398 C 0.71491 0.75376 0.18687 0.0
C399 C 0.73368 0.78042 0.17086 0.0
C400 C 0.73149 0.84981 1.00491 0.0
C401 C 0.7418 0.82861 0.07945 0.0
C402 C 0.63519 0.85726 0.05823 0.0
C403 C 0.6268 0.71166 0.82973 0.0
C404 C 0.58141 0.71423 0.9781 0.0
C405 C 0.56148 0.67981 0.97504 0.0
C406 C 0.55258 0.61337 0.93564 0.0
C407 C 0.55118 0.71444 1.00353 0.0
C408 C 0.53229 0.68265 0.99252 0.0
C409 C 0.53394 0.58173 0.92686 0.0
C410 C 0.52384 0.61604 0.95483 0.0
C411 C 0.63109 0.60971 0.03297 0.0
H412 H 0.70528 0.84074 0.96203 0.0
H413 H 0.70852 0.71666 0.25748 0.0
H414 H 0.73789 0.88691 0.93448 0.0
H415 H 0.75616 0.84968 0.06571 0.0
H416 H 0.55996 0.58593 0.90892 0.0
H417 H 0.55779 0.76604 0.03186 0.0
H418 H 0.52731 0.5306 0.89645 0.0
H419 H 0.50938 0.59079 0.94606 0.0
Gd420 Gd 0.3586 0.72237 0.07318 0.0
Gd421 Gd 0.40772 0.79598 0.09278 0.0
C422 C 0.42836 0.84933 0.48893 0.0
C423 C 0.44102 0.96975 0.48655 0.0
C424 C 0.42815 0.90651 0.29949 0.0
C425 C 0.42352 0.8479 0.36345 0.0
C426 C 0.43772 0.96815 0.35915 0.0
C427 C 0.43638 0.91035 0.55138 0.0
C428 C 0.42571 0.78974 0.54645 0.0
C429 C 0.41904 0.73115 0.47779 0.0
N430 N 0.41572 0.78975 0.30044 0.0
C431 C 0.41411 0.73202 0.35438 0.0
H432 H 0.4088 0.68595 0.3039 0.0
C433 C 0.43419 0.95847 0.1047 0.0
N434 N 0.4253 0.90308 0.17585 0.0
C435 C 0.44343 0.02088 0.1594 0.0
C436 C 0.44474 0.02598 0.28764 0.0
H437 H 0.43393 0.95438 1.00568 0.0
H438 H 0.43976 0.91225 0.64843 0.0
H439 H 0.35431 0.80399 0.82317 0.0
H440 H 0.42928 0.78874 0.64247 0.0
H441 H 0.41736 0.685 0.52047 0.0
H442 H 0.44802 0.01663 0.53439 0.0
H443 H 0.33451 0.58217 0.22871 0.0
H444 H 0.32899 0.66354 0.53476 0.0
H445 H 0.34337 0.77972 0.60903 0.0
H446 H 0.30838 0.45464 0.74458 0.0
H447 H 0.44978 0.06478 0.1026 0.0
H448 H 0.45217 0.07423 0.32989 0.0
H449 H 0.31632 0.54164 0.58572 0.0
H450 H 0.31529 0.4637 0.18537 0.0
N451 N 0.34714 0.70305 0.86917 0.0
C452 C 0.33387 0.67395 0.62889 0.0
C453 C 0.34192 0.73953 0.67062 0.0
C454 C 0.33125 0.62246 0.71154 0.0
C455 C 0.3379 0.63895 0.83298 0.0
C456 C 0.34823 0.75314 0.79226 0.0
N457 N 0.33848 0.60976 0.03955 0.0
C458 C 0.33329 0.5904 0.92174 0.0
C459 C 0.3204 0.49871 0.11008 0.0
C460 C 0.31612 0.47711 0.98829 0.0
C461 C 0.33133 0.56585 0.1343 0.0
C462 C 0.32216 0.52351 0.89237 0.0
H463 H 0.30757 0.42519 0.96976 0.0
O464 O 0.33781 0.70963 0.20724 0.0
O465 O 0.38246 0.76966 0.20519 0.0
O466 O 0.39602 0.6831 0.1061 0.0
O467 O 0.36598 0.63776 0.04473 0.0
O468 O 0.36004 0.6943 0.27468 0.0
O469 O 0.34202 0.77543 0.05329 0.0
O470 O 0.43226 0.83442 0.98498 0.0
O471 O 0.38397 0.75162 0.96167 0.0
O472 O 0.37078 0.83113 1.01812 0.0
O473 O 0.3997 0.88033 0.0998 0.0
O474 O 0.40695 0.8201 0.88636 0.0
O475 O 0.42512 0.74543 0.0927 0.0
C476 C 0.37599 0.73644 0.30537 0.0
C477 C 0.31674 0.5059 0.76949 0.0
C478 C 0.32128 0.55541 0.67902 0.0
C479 C 0.332 0.74703 0.14785 0.0
C480 C 0.31239 0.71931 0.12859 0.0
C481 C 0.3042 0.67385 0.0328 0.0
C482 C 0.30166 0.73744 0.20676 0.0
C483 C 0.28291 0.70975 0.18911 0.0
C484 C 0.28567 0.64652 1.01528 0.0
C485 C 0.27506 0.66418 0.09299 0.0
C486 C 0.3809 0.63262 0.07125 0.0
C487 C 0.39055 0.78099 0.85828 0.0
C488 C 0.43739 0.79039 0.02537 0.0
C489 C 0.45615 0.81547 0.07066 0.0
C490 C 0.46352 0.87185 0.14682 0.0
C491 C 0.46684 0.78288 0.03903 0.0
C492 C 0.4846 0.80665 0.08403 0.0
C493 C 0.48106 0.89544 0.19076 0.0
C494 C 0.49155 0.86303 0.1599 0.0
C495 C 0.38548 0.8837 0.0514 0.0
H496 H 0.31211 0.65946 0.97144 0.0
H497 H 0.30781 0.77253 0.28106 0.0
H498 H 0.27951 0.61142 0.94119 0.0
H499 H 0.2607 0.64239 0.07811 0.0
H500 H 0.45581 0.89799 0.17268 0.0
H501 H 0.46139 0.73918 0.98069 0.0
H502 H 0.48653 0.93898 0.24933 0.0
H503 H 0.50512 0.88187 0.19534 0.0
Gd504 Gd 0.60726 0.19274 0.98593 0.0
Gd505 Gd 0.65705 0.27006 1.00493 0.0
C506 C 0.68791 0.40282 0.32814 0.0
C507 C 0.7023 0.51167 0.23191 0.0
C508 C 0.68377 0.41457 0.10992 0.0
C509 C 0.68007 0.37518 0.21367 0.0
C510 C 0.69496 0.48326 0.1174 0.0
C511 C 0.69882 0.47146 0.33708 0.0
C512 C 0.6849 0.36032 0.42918 0.0
C513 C 0.67491 0.292 0.413 0.0
N514 N 0.66937 0.30924 0.20145 0.0
C515 C 0.66747 0.26725 0.29729 0.0
H516 H 0.66008 0.21452 0.2846 0.0
C517 C 0.68026 0.42175 0.89476 0.0
N518 N 0.67619 0.3854 1.00134 0.0
C519 C 0.69124 0.49012 0.89752 0.0
C520 C 0.69847 0.52115 1.00949 0.0
H521 H 0.67471 0.39858 0.80775 0.0
H522 H 0.70484 0.49373 0.42439 0.0
H523 H 0.60441 0.26084 0.71823 0.0
H524 H 0.69064 0.37945 0.51884 0.0
H525 H 0.67293 0.25837 0.48949 0.0
H526 H 0.71086 0.56443 0.23983 0.0
H527 H 0.5887 0.05627 0.16294 0.0
H528 H 0.57647 0.10579 0.45789 0.0
H529 H 0.59204 0.22545 0.50866 0.0
H530 H 0.55771 0.9084 0.70299 0.0
H531 H 0.69408 0.51886 0.81327 0.0
H532 H 0.70684 0.57413 1.0113 0.0
H533 H 0.5639 0.98734 0.53107 0.0
H534 H 0.57022 0.93556 0.13753 0.0
N535 N 0.59643 0.16265 0.78359 0.0
C536 C 0.58184 0.12111 0.54987 0.0
C537 C 0.5906 0.18868 0.57818 0.0
C538 C 0.57944 0.0742 0.64221 0.0
C539 C 0.5867 0.09692 0.76036 0.0
C540 C 0.59764 0.20859 0.6967 0.0
N541 N 0.5893 0.07705 0.97105 0.0
C542 C 0.58293 0.05266 0.85722 0.0
C543 C 0.57379 0.96791 0.05785 0.0
C544 C 0.56792 0.94164 0.94042 0.0
C545 C 0.58425 0.03624 0.07198 0.0
C546 C 0.5722 0.98423 0.83852 0.0
H547 H 0.55978 0.88873 0.92989 0.0
O548 O 0.58473 0.18051 0.10155 0.0
O549 O 0.63109 0.22905 0.11636 0.0
O550 O 0.64502 0.16146 0.05307 0.0
O551 O 0.61628 0.11174 0.97039 0.0
O552 O 0.60636 0.18069 0.1951 0.0
O553 O 0.58988 0.23982 0.93594 0.0
O554 O 0.67733 0.26944 0.87869 0.0
O555 O 0.63299 0.2347 0.87561 0.0
O556 O 0.61911 0.30482 0.96864 0.0
O557 O 0.64925 0.35273 0.02701 0.0
O558 O 0.65752 0.2786 0.79469 0.0
O559 O 0.67443 0.22405 0.05836 0.0
C560 C 0.62314 0.21087 0.22239 0.0
C561 C 0.56581 0.96086 0.71955 0.0
C562 C 0.56939 0.00579 0.62158 0.0
C563 C 0.57892 0.21293 0.02719 0.0
C564 C 0.55948 0.18107 0.99791 0.0
C565 C 0.55045 0.112 0.98061 0.0
C566 C 0.54965 0.21924 0.99088 0.0
C567 C 0.53099 0.18822 0.96779 0.0
C568 C 0.53206 0.0814 0.95702 0.0
C569 C 0.52236 0.11912 0.95088 0.0
C570 C 0.63079 0.10878 1.01402 0.0
C571 C 0.64071 0.25036 0.76891 0.0
C572 C 0.68379 0.24118 0.95715 0.0
C573 C 0.70352 0.27135 0.96983 0.0
C574 C 0.71223 0.31885 0.06169 0.0
C575 C 0.71387 0.25338 0.88797 0.0
C576 C 0.73272 0.28305 0.8979 0.0
C577 C 0.73089 0.34827 0.07152 0.0
C578 C 0.74111 0.33064 0.99007 0.0
C579 C 0.63415 0.35622 1.00224 0.0
H580 H 0.55753 0.08138 0.98679 0.0
H581 H 0.55641 0.27256 1.00437 0.0
H582 H 0.52526 0.0281 0.94422 0.0
H583 H 0.50807 0.09438 0.93303 0.0
H584 H 0.70463 0.33324 0.12592 0.0
H585 H 0.70732 0.2168 0.81655 0.0
H586 H 0.73747 0.38494 0.14254 0.0
H587 H 0.75558 0.35403 0.99891 0.0
Gd588 Gd 0.40607 0.30298 0.96705 0.0
Gd589 Gd 0.35682 0.21556 0.97918 0.0
C590 C 0.32827 0.09047 0.31181 0.0
C591 C 0.31606 0.97826 0.22922 0.0
C592 C 0.33253 0.07287 0.09602 0.0
C593 C 0.33556 0.11563 0.19524 0.0
C594 C 0.32257 0.00374 0.11182 0.0
C595 C 0.31885 0.02153 0.32887 0.0
C596 C 0.33017 0.13549 0.40665 0.0
C597 C 0.33836 0.20357 0.38218 0.0
N598 N 0.34489 0.18203 0.17642 0.0
C599 C 0.34545 0.22605 0.26507 0.0
H600 H 0.35158 0.27863 0.24598 0.0
C601 C 0.33529 0.05891 0.88181 0.0
N602 N 0.33928 0.09902 0.98385 0.0
C603 C 0.32551 0.99012 0.89331 0.0
C604 C 0.31934 0.96233 1.00896 0.0
H605 H 0.34031 0.07938 0.79226 0.0
H606 H 0.31334 0.00127 0.41815 0.0
H607 H 0.41183 0.25142 0.69012 0.0
H608 H 0.32483 0.11821 0.49762 0.0
H609 H 0.33926 0.23872 0.45348 0.0
H610 H 0.30858 0.92526 0.24349 0.0
H611 H 0.41732 0.43151 0.16304 0.0
H612 H 0.43821 0.42155 0.45814 0.0
H613 H 0.42442 0.29966 0.48709 0.0
H614 H 0.45143 0.60407 0.73549 0.0
H615 H 0.32285 0.95849 0.813 0.0
H616 H 0.31191 0.90897 1.01745 0.0
H617 H 0.44835 0.53509 0.55206 0.0
H618 H 0.43341 0.55384 0.15785 0.0
N619 N 0.41734 0.3446 0.77125 0.0
C620 C 0.43255 0.4006 0.54673 0.0
C621 C 0.42477 0.33178 0.56265 0.0
C622 C 0.43362 0.44163 0.64687 0.0
C623 C 0.426 0.41174 0.75999 0.0
C624 C 0.41751 0.3046 0.67707 0.0
N625 N 0.42088 0.41989 0.97184 0.0
C626 C 0.42802 0.45063 0.86366 0.0
C627 C 0.432 0.52536 0.07453 0.0
C628 C 0.4392 0.55772 0.96377 0.0
C629 C 0.42293 0.45598 0.07722 0.0
C630 C 0.4373 0.52039 0.85655 0.0
H631 H 0.4462 0.61145 0.96208 0.0
O632 O 0.43062 0.32582 0.06962 0.0
O633 O 0.38225 0.26191 0.09568 0.0
O634 O 0.36921 0.32121 0.05075 0.0
O635 O 0.39347 0.37276 0.92731 0.0
O636 O 0.40678 0.31036 0.17775 0.0
O637 O 0.42417 0.26056 0.91069 0.0
O638 O 0.34542 0.26565 0.85817 0.0
O639 O 0.38082 0.25138 0.85226 0.0
O640 O 0.39711 0.19144 0.9617 0.0
O641 O 0.36623 0.1359 0.9925 0.0
O642 O 0.35639 0.19895 0.77086 0.0
O643 O 0.3299 0.20771 1.00937 0.0
C644 C 0.39004 0.27717 0.20261 0.0
C645 C 0.44437 0.5505 0.74304 0.0
C646 C 0.44254 0.51122 0.63846 0.0
C647 C 0.43601 0.29191 0.99607 0.0
C648 C 0.45508 0.32411 0.95869 0.0
C649 C 0.46289 0.39007 0.91682 0.0
C650 C 0.46581 0.28948 0.96841 0.0
C651 C 0.48411 0.32071 0.93578 0.0
C652 C 0.48093 0.42077 0.88342 0.0
C653 C 0.49148 0.38635 0.89257 0.0
C654 C 0.37939 0.37297 0.9832 0.0
C655 C 0.37317 0.23161 0.74586 0.0
C656 C 0.32987 0.24114 0.9114 0.0
C657 C 0.31395 0.21114 0.82976 0.0
C658 C 0.3118 0.15795 0.75223 0.0
C659 C 0.30072 0.23516 0.82899 0.0
C660 C 0.28554 0.20586 0.75115 0.0
C661 C 0.29682 0.12909 0.67528 0.0
C662 C 0.28377 0.1528 0.6746 0.0
C663 C 0.38219 0.13699 0.98266 0.0
H664 H 0.45513 0.4182 0.91115 0.0
H665 H 0.46002 0.23872 1.00173 0.0
H666 H 0.48678 0.47161 0.85097 0.0
H667 H 0.50546 0.41095 0.8665 0.0
H668 H 0.32169 0.1386 0.75105 0.0
H669 H 0.30218 0.2761 0.88858 0.0
H670 H 0.2953 0.08801 0.61607 0.0
H671 H 0.27222 0.12962 0.61443 0.0
C672 C 0.23969 0.20576 0.79037 0.0
C673 C 0.24197 0.26337 0.7226 0.0
C674 C 0.27309 0.28454 0.67538 0.0
C675 C 0.27108 0.22908 0.74885 0.0
N676 N 0.25361 0.14248 0.89091 0.0
N677 N 0.26124 0.36207 0.61165 0.0
C678 C 0.25466 0.19119 0.81031 0.0
C679 C 0.25882 0.30408 0.66842 0.0
N680 N 0.22312 0.16458 0.83474 0.0
N681 N 0.28842 0.31709 0.60867 0.0
H682 H 0.27369 0.3983 0.58444 0.0
H683 H 0.25086 0.37592 0.59753 0.0
H684 H 0.2993 0.30541 0.61402 0.0
H685 H 0.29002 0.35292 0.54231 0.0
H686 H 0.22 0.11813 0.87289 0.0
H687 H 0.21201 0.17473 0.82596 0.0
H688 H 0.2643 0.13065 0.90773 0.0
H689 H 0.24276 0.11734 0.94871 0.0
C690 C 0.74748 0.20969 0.83775 0.0
C691 C 0.74397 0.26525 0.81191 0.0
C692 C 0.76507 0.29592 0.63855 0.0
C693 C 0.76763 0.23784 0.65918 0.0
N694 N 0.75925 0.13376 0.76529 0.0
N695 N 0.74722 0.35597 0.6782 0.0
C696 C 0.75825 0.19307 0.75517 0.0
C697 C 0.75214 0.30686 0.70939 0.0
N698 N 0.74102 0.1741 0.94358 0.0
N699 N 0.77537 0.34157 0.55342 0.0
H700 H 0.73795 0.36576 0.72865 0.0
H701 H 0.75119 0.38353 0.59723 0.0
H702 H 0.78464 0.3345 0.49789 0.0
H703 H 0.77575 0.38853 0.54399 0.0
H704 H 0.74479 0.13797 0.97526 0.0
H705 H 0.73274 0.1837 1.00465 0.0
H706 H 0.75113 0.09566 0.82376 0.0
H707 H 0.76724 0.12041 0.70815 0.0
C708 C 0.26146 0.68352 0.36679 0.0
C709 C 0.27113 0.72742 0.27053 0.0
C710 C 0.25693 0.80062 0.32199 0.0
C711 C 0.24606 0.75366 0.41053 0.0
N712 N 0.23612 0.64619 0.50632 0.0
N713 N 0.27628 0.82263 0.14376 0.0
C714 C 0.24784 0.69392 0.43005 0.0
C715 C 0.26839 0.78469 0.24476 0.0
N716 N 0.26557 0.63258 0.39926 0.0
N717 N 0.2567 0.86132 0.31422 0.0
H718 H 0.28494 0.81304 0.08629 0.0
H719 H 0.27329 0.86067 0.11178 0.0
H720 H 0.24831 0.87446 0.36779 0.0
H721 H 0.26579 0.90049 0.26197 0.0
H722 H 0.2604 0.60296 0.47678 0.0
H723 H 0.27536 0.62327 0.35435 0.0
H724 H 0.23539 0.59864 0.51432 0.0
H725 H 0.22603 0.65212 0.55425 0.0
C726 C 0.74804 0.70298 0.21297 0.0
C727 C 0.74522 0.75883 0.24867 0.0
C728 C 0.7678 0.78369 0.41367 0.0
C729 C 0.7696 0.72496 0.38389 0.0
N730 N 0.75986 0.6239 0.26572 0.0
N731 N 0.75063 0.84801 0.39138 0.0
C732 C 0.75924 0.6832 0.28651 0.0
C733 C 0.75463 0.798 0.3515 0.0
N734 N 0.74052 0.67026 0.10598 0.0
N735 N 0.77892 0.82634 0.50023 0.0
H736 H 0.74121 0.86016 0.34744 0.0
H737 H 0.75554 0.87416 0.47304 0.0
H738 H 0.7884 0.81678 0.54945 0.0
H739 H 0.77972 0.87338 0.5172 0.0
H740 H 0.7436 0.63395 0.06706 0.0
H741 H 0.73205 0.68264 0.05097 0.0
H742 H 0.75101 0.58739 0.20711 0.0
H743 H 0.76851 0.60918 0.31333 0.0
C744 C 0.14495 0.97265 0.37969 0.0
C745 C 0.13845 0.92975 0.4821 0.0
C746 C 0.12809 0.00566 0.57811 0.0
C747 C 0.13274 0.04565 0.46933 0.0
N748 N 0.1422 0.05723 0.2565 0.0
N749 N 0.13372 0.92607 0.69924 0.0
C750 C 0.14047 0.02688 0.36799 0.0
C751 C 0.13264 0.95173 0.58701 0.0
N752 N 0.15648 0.9653 0.29832 0.0
N753 N 0.11904 0.01724 0.67305 0.0
H754 H 0.13948 0.89309 0.70864 0.0
H755 H 0.13177 0.9451 0.78257 0.0
H756 H 0.11618 0.05781 0.67946 0.0
H757 H 0.11317 0.98311 0.74382 0.0
H758 H 0.16311 -0.00012 0.22974 0.0
H759 H 0.16123 0.92943 0.30774 0.0
H760 H 0.14566 0.04042 0.1758 0.0
H761 H 0.1381 0.09429 0.24176 0.0
C762 C 0.87235 0.45955 0.621 0.0
C763 C 0.88381 0.44931 0.53524 0.0
C764 C 0.89965 0.569 0.50242 0.0
C765 C 0.88651 0.57915 0.57078 0.0
N766 N 0.86607 0.53712 0.74299 0.0
N767 N 0.90645 0.49407 0.37817 0.0
C768 C 0.87424 0.52514 0.64312 0.0
C769 C 0.89687 0.50391 0.47131 0.0
N770 N 0.8596 0.40659 0.68177 0.0
N771 N 0.91594 0.62056 0.48209 0.0
H772 H 0.90505 0.44717 0.35317 0.0
H773 H 0.91469 0.53214 0.31987 0.0
H774 H 0.91986 0.6643 0.53166 0.0
H775 H 0.9265 0.6154 0.43921 0.0
H776 H 0.84882 0.40839 0.72772 0.0
H777 H 0.85931 0.35955 0.68206 0.0
H778 H 0.85848 0.50114 0.80663 0.0
H779 H 0.86858 0.58437 0.77302 0.0
C780 C 0.88335 0.98141 0.43673 0.0
C781 C 0.87864 0.94012 0.54371 0.0
C782 C 0.86731 0.01474 0.6396 0.0
C783 C 0.87403 0.05883 0.53852 0.0
N784 N 0.87737 0.06157 0.32038 0.0
N785 N 0.86701 0.92124 0.75245 0.0
C786 C 0.87911 0.03623 0.43129 0.0
C787 C 0.87063 0.95732 0.64593 0.0
N788 N 0.89187 0.96936 0.33911 0.0
N789 N 0.8564 0.02386 0.72385 0.0
H790 H 0.8683 0.87742 0.76199 0.0
H791 H 0.86406 0.93748 0.83558 0.0
H792 H 0.85227 0.0614 0.71698 0.0
H793 H 0.8494 0.98937 0.79155 0.0
H794 H 0.89768 0.0038 0.26865 0.0
H795 H 0.89416 0.92755 0.3301 0.0
H796 H 0.87881 0.04215 0.23606 0.0
H797 H 0.87145 0.09422 0.3141 0.0
C798 C 0.12023 0.49325 0.40722 0.0
C799 C 0.12874 0.53964 0.50429 0.0
C800 C 0.13958 0.46323 0.59405 0.0
C801 C 0.13039 0.4156 0.50239 0.0
N802 N 0.10889 0.37928 0.33558 0.0
N803 N 0.13965 0.55302 0.71386 0.0
C804 C 0.11966 0.4286 0.41369 0.0
C805 C 0.13651 0.5202 0.60425 0.0
N806 N 0.11338 0.51099 0.30628 0.0
N807 N 0.15124 0.45451 0.67294 0.0
H808 H 0.13658 0.5928 0.72743 0.0
H809 H 0.14341 0.53639 0.79407 0.0
H810 H 0.15292 0.4112 0.67511 0.0
H811 H 0.1599 0.49197 0.73104 0.0
H812 H 0.10918 0.48212 0.22679 0.0
H813 H 0.11306 0.5566 0.2965 0.0
H814 H 0.09909 0.38303 0.27984 0.0
H815 H 0.10877 0.33245 0.33317 0.0
C816 C 0.62188 0.49815 0.93432 0.0
C817 C 0.63169 0.54481 0.02639 0.0
C818 C 0.64297 0.46781 0.10717 0.0
C819 C 0.63418 0.42285 1.00846 0.0
N820 N 0.61983 0.40666 0.80831 0.0
N821 N 0.65384 0.57923 0.18923 0.0
C822 C 0.62482 0.44101 0.91685 0.0
C823 C 0.64304 0.53138 0.10862 0.0
N824 N 0.60985 0.5085 0.86173 0.0
N825 N 0.6504 0.44916 0.20394 0.0
H826 H 0.65313 0.62422 0.20225 0.0
H827 H 0.66437 0.5762 0.2375 0.0
H828 H 0.65074 0.40354 0.21062 0.0
H829 H 0.65485 0.47672 0.28474 0.0
H830 H 0.60051 0.47193 0.8055 0.0
H831 H 0.60866 0.55278 0.86279 0.0
H832 H 0.61473 0.42219 0.73315 0.0
H833 H 0.6228 0.36726 0.78709 0.0
C834 C 0.39645 -0.00397 0.94779 0.0
C835 C 0.38548 0.95003 0.03735 0.0
C836 C 0.37421 0.03016 0.10123 0.0
C837 C 0.38345 0.07274 1.00124 0.0
N838 N 0.40087 0.0889 0.81531 0.0
N839 N 0.36256 0.92062 0.19269 0.0
C840 C 0.39402 0.054 0.92128 0.0
C841 C 0.37386 0.96616 0.11124 0.0
N842 N 0.40917 0.98445 0.88681 0.0
N843 N 0.36674 0.05219 0.19205 0.0
H844 H 0.3631 0.87592 0.21297 0.0
H845 H 0.35192 0.92553 0.23493 0.0
H846 H 0.36725 0.09944 0.19317 0.0
H847 H 0.36167 0.02641 0.27371 0.0
H848 H 0.41918 0.0202 0.83372 0.0
H849 H 0.4103 0.94009 0.89467 0.0
H850 H 0.40678 0.07274 0.74651 0.0
H851 H 0.39913 0.13053 0.78929 0.0
C852 C 0.36555 0.44528 0.0756 0.0
C853 C 0.37764 0.43756 0.99135 0.0
C854 C 0.39169 0.55872 0.95632 0.0
C855 C 0.38086 0.56654 0.05022 0.0
N856 N 0.35972 0.51763 0.21422 0.0
N857 N 0.39512 0.48486 0.80834 0.0
C858 C 0.36843 0.50988 0.11369 0.0
C859 C 0.38889 0.49377 0.9199 0.0
N860 N 0.35007 0.39204 0.10827 0.0
N861 N 0.40477 0.61311 0.90117 0.0
H862 H 0.39152 0.43839 0.76953 0.0
H863 H 0.40172 0.52311 0.74586 0.0
H864 H 0.40652 0.66152 0.91578 0.0
H865 H 0.41469 0.61056 0.84576 0.0
H866 H 0.34014 0.39593 0.16152 0.0
H867 H 0.34553 0.34624 0.06487 0.0
H868 H 0.35251 0.4792 0.27506 0.0
H869 H 0.36088 0.56373 0.2418 0.0
C870 C 0.64023 0.03053 0.12903 0.0
C871 C 0.63092 0.04227 0.02775 0.0
C872 C 0.62218 0.92761 0.9586 0.0
C873 C 0.63384 0.92081 0.04775 0.0
N874 N 0.65587 0.96952 0.20835 0.0
N875 N 0.61574 0.00246 0.83084 0.0
C876 C 0.64359 0.97367 0.12901 0.0
C877 C 0.62248 0.99083 0.93871 0.0
N878 N 0.64484 0.07083 0.23026 0.0
N879 N 0.61081 0.87387 0.8918 0.0
H880 H 0.61583 0.0475 0.8074 0.0
H881 H 0.61155 0.96882 0.75779 0.0
H882 H 0.61092 0.82754 0.89667 0.0
H883 H 0.60035 0.87417 0.83828 0.0
H884 H 0.64991 0.0603 0.31134 0.0
H885 H 0.64142 0.10992 0.24028 0.0
H886 H 0.66504 0.01 0.25808 0.0
H887 H 0.65773 0.92671 0.21756 0.0
C888 C 0.13311 0.29134 0.05776 0.0
C889 C 0.12953 0.22926 0.11525 0.0
C890 C 0.13214 0.18817 0.904 0.0
C891 C 0.13356 0.24706 0.84433 0.0
N892 N 0.13057 0.34833 0.87202 0.0
N893 N 0.11901 0.11194 0.07292 0.0
C894 C 0.13293 0.2972 0.92409 0.0
C895 C 0.12707 0.17584 0.03226 0.0
N896 N 0.13628 0.34496 0.13063 0.0
N897 N 0.13633 0.14435 0.84076 0.0
H898 H 0.11441 0.09977 0.1627 0.0
H899 H 0.11542 0.07134 1.01379 0.0
H900 H 0.14059 0.15226 0.74946 0.0
H901 H 0.1372 0.10391 0.88332 0.0
H902 H 0.14069 0.39304 0.09634 0.0
H903 H 0.13621 0.34205 0.22652 0.0
H904 H 0.12864 0.38427 0.92254 0.0
H905 H 0.12783 0.34843 0.77826 0.0
C906 C 0.88313 0.22104 0.09112 0.0
C907 C 0.88357 0.27756 0.15414 0.0
C908 C 0.88383 0.32547 0.94233 0.0
C909 C 0.88012 0.26397 0.88189 0.0
N910 N 0.87392 0.14949 0.91146 0.0
N911 N 0.88369 0.38483 0.13104 0.0
C912 C 0.87883 0.21074 0.961 0.0
C913 C 0.88402 0.33044 0.07642 0.0
N914 N 0.88883 0.18029 0.15146 0.0
N915 N 0.88747 0.38008 0.87124 0.0
H916 H 0.88262 0.38804 0.22612 0.0
H917 H 0.88226 0.42258 0.08286 0.0
H918 H 0.88766 0.37778 0.77566 0.0
H919 H 0.89212 0.42811 0.90595 0.0
H920 H 0.89072 0.14251 0.10702 0.0
H921 H 0.89392 0.19012 0.24111 0.0
H922 H 0.87067 0.10697 0.96488 0.0
H923 H 0.87302 0.14249 0.81662 0.0
C924 C 0.13293 0.78118 0.08116 0.0
C925 C 0.13377 0.73102 0.16026 0.0
C926 C 0.12805 0.661 0.97044 0.0
C927 C 0.12907 0.71331 0.88904 0.0
N928 N 0.12361 0.81009 0.88543 0.0
N929 N 0.13868 0.63247 0.15985 0.0
C930 C 0.12931 0.77037 0.94966 0.0
C931 C 0.13308 0.67356 0.0989 0.0
N932 N 0.13592 0.84077 0.13148 0.0
N933 N 0.12071 0.59699 0.92956 0.0
H934 H 0.14296 0.63998 0.2515 0.0
H935 H 0.14051 0.59451 0.11543 0.0
H936 H 0.1145 0.58314 0.84389 0.0
H937 H 0.11841 0.55687 0.98767 0.0
H938 H 0.13827 0.88301 0.0795 0.0
H939 H 0.13655 0.84745 0.22636 0.0
H940 H 0.12129 0.84782 0.92602 0.0
H941 H 0.11881 0.79922 0.79527 0.0
C942 C 0.8864 0.71022 0.96438 0.0
C943 C 0.88561 0.76496 0.89954 0.0
C944 C 0.88012 0.80425 0.10529 0.0
C945 C 0.88074 0.74967 0.17028 0.0
N946 N 0.88105 0.64299 0.15129 0.0
N947 N 0.8903 0.87826 0.92978 0.0
C948 C 0.88282 0.70048 0.09609 0.0
C949 C 0.88487 0.81584 0.97638 0.0
N950 N 0.89263 0.67126 0.90314 0.0
N951 N 0.87383 0.84366 0.16421 0.0
H952 H 0.89491 0.89063 0.83981 0.0
H953 H 0.892 0.91895 0.98442 0.0
H954 H 0.86959 0.83593 0.25572 0.0
H955 H 0.87124 0.87968 0.11848 0.0
H956 H 0.89585 0.63616 0.94628 0.0
H957 H 0.89609 0.67798 0.81017 0.0
H958 H 0.87986 0.60124 0.10225 0.0
H959 H 0.87967 0.63578 0.24646 0.0
C960 C 0.6378 0.79708 0.49892 0.0
C961 C 0.6352 0.7428 0.41738 0.0
C962 C 0.63084 0.67383 0.60885 0.0
C963 C 0.63246 0.72699 0.6901 0.0
N964 N 0.63699 0.84025 0.70485 0.0
N965 N 0.627 0.62593 0.40206 0.0
C966 C 0.636 0.789 0.63236 0.0
C967 C 0.63098 0.68022 0.47499 0.0
N968 N 0.64145 0.85719 0.44717 0.0
N969 N 0.63081 0.61818 0.66074 0.0
H970 H 0.62747 0.62869 0.30645 0.0
H971 H 0.6216 0.57742 0.43508 0.0
H972 H 0.6329 0.61564 0.75482 0.0
H973 H 0.63131 0.57922 0.61118 0.0
H974 H 0.64653 0.90196 0.49504 0.0
H975 H 0.63909 0.86145 0.35407 0.0
H976 H 0.63713 0.88422 0.67205 0.0
H977 H 0.63724 0.83798 0.80029 0.0
C978 C 0.38598 0.81989 0.63821 0.0
C979 C 0.38442 0.7665 0.71898 0.0
C980 C 0.37815 0.69597 0.52804 0.0
C981 C 0.38102 0.75054 0.4464 0.0
N982 N 0.38841 0.8668 0.43093 0.0
N983 N 0.37918 0.65257 0.73332 0.0
C984 C 0.3852 0.81311 0.50413 0.0
C985 C 0.38031 0.70417 0.66112 0.0
N986 N 0.38662 0.87612 0.69119 0.0
N987 N 0.37378 0.63523 0.47688 0.0
H988 H 0.37922 0.65524 0.82865 0.0
H989 H 0.37872 0.60819 0.70037 0.0
H990 H 0.3759 0.63029 0.38399 0.0
H991 H 0.36832 0.5906 0.52516 0.0
H992 H 0.38636 0.91595 0.64297 0.0
H993 H 0.38497 0.87877 0.78563 0.0
H994 H 0.39372 0.91549 0.46288 0.0
H995 H 0.38714 0.86345 0.33547 0.0
C996 C 0.62643 0.16767 0.44067 0.0
C997 C 0.62897 0.22244 0.3609 0.0
C998 C 0.63635 0.29255 0.55275 0.0
C999 C 0.63454 0.23835 0.63142 0.0
N1000 N 0.63389 0.12992 0.63378 0.0
N1001 N 0.62785 0.32801 0.36124 0.0
C1002 C 0.63116 0.17747 0.57041 0.0
C1003 C 0.63173 0.2826 0.42275 0.0
N1004 N 0.61806 0.1045 0.39566 0.0
N1005 N 0.64332 0.35524 0.6004 0.0
H1006 H 0.62332 0.32114 0.27007 0.0
H1007 H 0.62726 0.36864 0.40449 0.0
H1008 H 0.64699 0.36533 0.69278 0.0
H1009 H 0.64696 0.39749 0.54569 0.0
H1010 H 0.61381 0.0626 0.45194 0.0
H1011 H 0.61385 0.09396 0.30426 0.0
H1012 H 0.63364 0.08756 0.59189 0.0
H1013 H 0.63836 0.13659 0.72503 0.0
C1014 C 0.38523 0.20877 0.40395 0.0
C1015 C 0.38383 0.26215 0.33893 0.0
C1016 C 0.37857 0.30187 0.54546 0.0
C1017 C 0.37923 0.24672 0.60913 0.0
N1018 N 0.37788 0.13757 0.58502 0.0
N1019 N 0.38385 0.36937 0.35916 0.0
C1020 C 0.38099 0.1974 0.5338 0.0
C1021 C 0.38185 0.3114 0.41361 0.0
N1022 N 0.39222 0.17161 0.34453 0.0
N1023 N 0.37337 0.34298 0.60951 0.0
H1024 H 0.38549 0.37731 0.26436 0.0
H1025 H 0.38508 0.41113 0.40829 0.0
H1026 H 0.3708 0.33769 0.70377 0.0
H1027 H 0.37021 0.37869 0.56834 0.0
H1028 H 0.39569 0.13764 0.38972 0.0
H1029 H 0.39602 0.17888 0.25213 0.0
H1030 H 0.37689 0.09693 0.53299 0.0
H1031 H 0.37466 0.12676 0.67776 0.0
C1032 C 0.01545 0.24595 0.3666 0.0
C1033 C 0.01667 0.20341 0.4601 0.0
C1034 C 0.99182 0.21124 0.57127 0.0
C1035 C 0.99172 0.25835 0.48372 0.0
N1036 N 1.00473 0.32708 0.30601 0.0
N1037 N 0.00788 0.15288 0.66034 0.0
C1038 C 1.0039 0.27748 0.38347 0.0
C1039 C 1.00529 0.18783 0.56473 0.0
N1040 N 0.02483 0.25423 0.25951 0.0
N1041 N 0.97894 0.18867 0.66049 0.0
H1042 H 0.0178 0.13592 0.65988 0.0
H1043 H 1.00133 0.14556 0.74457 0.0
H1044 H 0.96913 0.20584 0.6696 0.0
H1045 H 0.97698 0.14902 0.71867 0.0
H1046 H 0.02304 0.27862 0.18246 0.0
H1047 H 0.03345 0.23222 0.24368 0.0
H1048 H 0.01483 0.34941 0.24128 0.0
H1049 H 0.9959 0.34897 0.31157 0.0
C1050 C 1.00617 0.79552 0.44438 0.0
C1051 C 0.99987 0.80709 0.55929 0.0
C1052 C 0.01724 0.75732 0.66794 0.0
C1053 C 0.02397 0.74766 0.5532 0.0
N1054 N 0.02779 0.76898 0.33519 0.0
N1055 N 1.00173 0.81029 0.78121 0.0
C1056 C 0.01931 0.77032 0.44225 0.0
C1057 C 1.00615 0.79146 0.6714 0.0
N1058 N 0.99922 0.80703 0.33714 0.0
N1059 N 0.0209 0.73153 0.7731 0.0
H1060 H 0.99316 0.83326 0.78758 0.0
H1061 H 0.0075 0.80751 0.86525 0.0
H1062 H 0.02937 0.70804 0.77479 0.0
H1063 H 0.01472 0.72966 0.85728 0.0
H1064 H 1.00168 0.79275 0.25061 0.0
H1065 H 0.98988 0.82674 0.33505 0.0
H1066 H 0.02643 0.79074 0.25327 0.0
H1067 H 0.03752 0.75113 0.33092 0.0
C1068 C 0.52005 0.76454 0.93285 0.0
C1069 C 0.52093 0.7179 1.01869 0.0
C1070 C 0.49606 0.72219 0.1354 0.0
C1071 C 0.49619 0.77273 0.05544 0.0
N1072 N 0.50996 0.84939 0.88881 0.0
N1073 N 0.51198 0.66066 0.2129 0.0
C1074 C 0.50869 0.7961 0.95729 0.0
C1075 C 0.50952 0.69903 0.12317 0.0
N1076 N 0.52947 0.77656 0.82524 0.0
N1077 N 0.48293 0.69575 0.22222 0.0
H1078 H 0.52187 0.64368 0.20781 0.0
H1079 H 0.50539 0.65065 0.29726 0.0
H1080 H 0.47309 0.7124 0.23556 0.0
H1081 H 0.48088 0.65386 0.27421 0.0
H1082 H 0.52775 0.80387 0.75266 0.0
H1083 H 0.53808 0.75515 0.80432 0.0
H1084 H 0.52029 0.87411 0.82674 0.0
H1085 H 0.50134 0.87183 0.90003 0.0
C1086 C 0.49978 0.25823 0.83847 0.0
C1087 C 0.49585 0.2856 0.94584 0.0
C1088 C 0.51525 0.25025 0.06886 0.0
C1089 C 0.52009 0.22682 0.95992 0.0
N1090 N 0.51962 0.21941 0.73823 0.0
N1091 N 0.502 0.3178 0.15926 0.0
C1092 C 0.5131 0.234 0.84383 0.0
C1093 C 0.50423 0.28455 0.05999 0.0
N1094 N 0.49044 0.25394 0.73193 0.0
N1095 N 0.52061 0.23744 0.18134 0.0
H1096 H 0.49367 0.34188 0.15728 0.0
H1097 H 0.50939 0.32572 0.24058 0.0
H1098 H 0.52884 0.2133 0.19169 0.0
H1099 H 0.51585 0.24633 0.26471 0.0
H1100 H 0.49122 0.22809 0.65419 0.0
H1101 H 0.4807 0.27163 0.72436 0.0
H1102 H 0.51648 0.22988 0.65016 0.0
H1103 H 0.5295 0.20228 0.7387 0.0
loop_
_geom_bond_atom_site_label_1
_geom_bond_atom_site_label_2
_geom_bond_distance
_geom_bond_site_symmetry_2
_ccdc_geom_bond_type
Gd0 N31 2.661 . S
Gd0 N37 2.601 . S
Gd0 O44 2.545 . S
Gd0 O45 2.606 . S
Gd0 O47 2.429 . S
Gd0 O48 2.545 . S
Gd0 O49 2.412 . S
Gd0 O51 2.362 . S
Gd0 O52 2.324 . S
Gd0 C59 2.828 . S
Gd1 N10 2.661 . S
Gd1 N14 2.601 . S
Gd1 O45 2.362 . S
Gd1 O46 2.324 . S
Gd1 O50 2.545 . S
Gd1 O51 2.606 . S
Gd1 O53 2.429 . S
Gd1 O54 2.545 . S
Gd1 O55 2.412 . S
Gd1 C68 2.828 . S
C2 C5 1.417 . S
C2 C7 1.431 . S
C2 C8 1.412 . S
C3 C6 1.437 . S
C3 C7 1.317 . S
C3 H22 0.929 . S
C4 C5 1.426 . S
C4 C6 1.413 . S
C4 N14 1.359 . S
C5 C2 1.417 . S
C5 C4 1.426 . S
C5 N10 1.350 . S
C6 C3 1.437 . S
C6 C4 1.413 . S
C6 C16 1.391 . S
C7 C2 1.431 . S
C7 C3 1.317 . S
C7 H18 0.930 1_556 S
C8 C2 1.412 . S
C8 C9 1.355 . S
C8 H20 0.930 . S
C9 C8 1.355 . S
C9 C11 1.402 . S
C9 H21 0.930 . S
N10 Gd1 2.661 . S
N10 C5 1.350 . S
N10 C11 1.307 . S
C11 C9 1.402 . S
C11 N10 1.307 . S
C11 H12 0.930 . S
H12 C11 0.930 . S
C13 N14 1.334 . S
C13 C15 1.402 . S
C13 H17 0.930 . S
N14 Gd1 2.601 . S
N14 C4 1.359 . S
N14 C13 1.334 . S
C15 C13 1.402 . S
C15 C16 1.364 . S
C15 H27 0.918 1_545 S
C16 C6 1.391 . S
C16 C15 1.364 . S
C16 H28 0.929 1_545 S
H17 C13 0.930 . S
H18 C7 0.930 1_554 S
H19 C36 0.930 . S
H20 C8 0.930 . S
H21 C9 0.930 . S
H22 C3 0.929 . S
H23 C41 0.930 . S
H24 C32 0.930 . S
H25 C33 0.930 . S
H26 C57 0.929 . S
H27 C15 0.918 1_565 S
H28 C16 0.929 1_565 S
H29 C58 0.930 . S
H30 C39 0.930 . S
N31 Gd0 2.661 . S
N31 C35 1.350 . S
N31 C36 1.307 . S
C32 H24 0.930 . S
C32 C33 1.355 1_556 S
C32 C34 1.412 1_556 S
C33 H25 0.930 . S
C33 C32 1.355 1_554 S
C33 C36 1.402 . S
C34 C32 1.412 1_554 S
C34 C35 1.417 . S
C34 C58 1.431 1_554 S
C35 N31 1.350 . S
C35 C34 1.417 . S
C35 C38 1.426 . S
C36 H19 0.930 . S
C36 N31 1.307 . S
C36 C33 1.402 . S
N37 Gd0 2.601 . S
N37 C38 1.359 . S
N37 C41 1.334 . S
C38 C35 1.426 . S
C38 N37 1.359 . S
C38 C42 1.413 . S
C39 H30 0.930 . S
C39 C40 1.359 . S
C39 C41 1.394 . S
C40 C39 1.359 . S
C40 C42 1.391 . S
C40 H43 0.929 . S
C41 H23 0.930 . S
C41 N37 1.334 . S
C41 C39 1.394 . S
C42 C38 1.413 . S
C42 C40 1.391 . S
C42 C57 1.437 1_554 S
H43 C40 0.929 . S
O44 Gd0 2.545 . S
O44 C59 1.258 . S
O45 Gd0 2.606 . S
O45 Gd1 2.362 . S
O45 C56 1.284 . S
O46 Gd1 2.324 . S
O46 C66 1.254 . S
O47 Gd0 2.429 . S
O47 C66 1.268 . S
O48 Gd0 2.545 . S
O48 C56 1.250 . S
O49 Gd0 2.412 . S
O49 C59 1.252 . S
O50 Gd1 2.545 . S
O50 C68 1.258 . S
O51 Gd0 2.362 . S
O51 Gd1 2.606 . S
O51 C67 1.284 . S
O52 Gd0 2.324 . S
O52 C75 1.254 . S
O53 Gd1 2.429 . S
O53 C75 1.268 . S
O54 Gd1 2.545 . S
O54 C67 1.250 . S
O55 Gd1 2.412 . S
O55 C68 1.252 . S
C56 O45 1.284 . S
C56 O48 1.250 . S
C57 H26 0.929 . S
C57 C42 1.437 1_556 S
C57 C58 1.317 . S
C58 H29 0.930 . S
C58 C34 1.431 1_556 S
C58 C57 1.317 . S
C59 Gd0 2.828 . S
C59 O44 1.258 . S
C59 O49 1.252 . S
C59 C60 1.497 . S
C60 C59 1.497 . S
C60 C61 1.395 . S
C60 C62 1.380 . S
C61 C60 1.395 . S
C61 C64 1.398 . S
C61 H76 0.930 . S
C62 C60 1.380 . S
C62 C63 1.391 . S
C62 H77 0.930 . S
C63 C62 1.391 . S
C63 C65 1.387 . S
C64 C61 1.398 . S
C64 C65 1.380 . S
C64 H78 0.930 . S
C65 C63 1.387 . S
C65 C64 1.380 . S
C65 H79 0.930 . S
C66 O46 1.254 . S
C66 O47 1.268 . S
C67 O51 1.284 . S
C67 O54 1.250 . S
C68 Gd1 2.828 . S
C68 O50 1.258 . S
C68 O55 1.252 . S
C68 C69 1.497 . S
C69 C68 1.497 . S
C69 C70 1.395 . S
C69 C71 1.380 . S
C70 C69 1.395 . S
C70 C73 1.398 . S
C70 H80 0.930 . S
C71 C69 1.380 . S
C71 C72 1.391 . S
C71 H81 0.930 . S
C72 C71 1.391 . S
C72 C74 1.387 . S
C73 C70 1.398 . S
C73 C74 1.380 . S
C73 H82 0.930 . S
C74 C72 1.387 . S
C74 C73 1.380 . S
C74 H83 0.930 . S
C75 O52 1.254 . S
C75 O53 1.268 . S
H76 C61 0.930 . S
H77 C62 0.930 . S
H78 C64 0.930 . S
H79 C65 0.930 . S
H80 C70 0.930 . S
H81 C71 0.930 . S
H82 C73 0.930 . S
H83 C74 0.930 . S
Gd84 N115 2.661 . S
Gd84 N121 2.601 . S
Gd84 O128 2.545 . S
Gd84 O129 2.606 . S
Gd84 O131 2.429 . S
Gd84 O132 2.545 . S
Gd84 O133 2.412 . S
Gd84 O135 2.362 . S
Gd84 O136 2.324 . S
Gd84 C143 2.828 . S
Gd85 N94 2.661 . S
Gd85 N98 2.601 . S
Gd85 O129 2.362 . S
Gd85 O130 2.324 . S
Gd85 O134 2.545 . S
Gd85 O135 2.606 . S
Gd85 O137 2.429 . S
Gd85 O138 2.545 . S
Gd85 O139 2.412 . S
Gd85 C152 2.828 . S
C86 C89 1.417 . S
C86 C91 1.431 . S
C86 C92 1.412 . S
C87 C90 1.437 . S
C87 C91 1.317 . S
C87 H106 0.929 . S
C88 C89 1.426 . S
C88 C90 1.413 . S
C88 N98 1.359 . S
C89 C86 1.417 . S
C89 C88 1.426 . S
C89 N94 1.350 . S
C90 C87 1.437 . S
C90 C88 1.413 . S
C90 C100 1.391 . S
C91 C86 1.431 . S
C91 C87 1.317 . S
C91 H102 0.930 1_556 S
C92 C86 1.412 . S
C92 C93 1.355 . S
C92 H104 0.930 . S
C93 C92 1.355 . S
C93 C95 1.402 . S
C93 H105 0.930 . S
N94 Gd85 2.661 . S
N94 C89 1.350 . S
N94 C95 1.307 . S
C95 C93 1.402 . S
C95 N94 1.307 . S
C95 H96 0.930 . S
H96 C95 0.930 . S
C97 N98 1.334 . S
C97 C99 1.394 . S
C97 H101 0.930 . S
N98 Gd85 2.601 . S
N98 C88 1.359 . S
N98 C97 1.334 . S
C99 C97 1.394 . S
C99 C100 1.359 . S
C99 H111 0.930 . S
C100 C90 1.391 . S
C100 C99 1.359 . S
C100 H112 0.929 . S
H101 C97 0.930 . S
H102 C91 0.930 1_554 S
H103 C120 0.930 . S
H104 C92 0.930 . S
H105 C93 0.930 . S
H106 C87 0.929 . S
H107 C125 0.930 . S
H108 C116 0.930 . S
H109 C117 0.930 . S
H110 C141 0.929 . S
H111 C99 0.930 . S
H112 C100 0.929 . S
H113 C142 0.930 . S
H114 C123 0.930 . S
N115 Gd84 2.661 . S
N115 C119 1.350 . S
N115 C120 1.307 . S
C116 H108 0.930 . S
C116 C117 1.355 1_556 S
C116 C118 1.412 1_556 S
C117 H109 0.930 . S
C117 C116 1.355 1_554 S
C117 C120 1.402 . S
C118 C116 1.412 1_554 S
C118 C119 1.417 . S
C118 C142 1.431 1_554 S
C119 N115 1.350 . S
C119 C118 1.417 . S
C119 C122 1.426 . S
C120 H103 0.930 . S
C120 N115 1.307 . S
C120 C117 1.402 . S
N121 Gd84 2.601 . S
N121 C122 1.359 . S
N121 C125 1.334 . S
C122 C119 1.426 . S
C122 N121 1.359 . S
C122 C126 1.413 . S
C123 H114 0.930 . S
C123 C124 1.359 1_565 S
C123 C125 1.394 1_565 S
C124 C123 1.359 1_545 S
C124 C126 1.391 . S
C124 H127 0.929 1_545 S
C125 H107 0.930 . S
C125 N121 1.334 . S
C125 C123 1.394 1_545 S
C126 C122 1.413 . S
C126 C124 1.391 . S
C126 C141 1.437 1_554 S
H127 C124 0.929 1_565 S
O128 Gd84 2.545 . S
O128 C143 1.258 . S
O129 Gd84 2.606 . S
O129 Gd85 2.362 . S
O129 C140 1.284 . S
O130 Gd85 2.324 . S
O130 C150 1.254 . S
O131 Gd84 2.429 . S
O131 C150 1.268 . S
O132 Gd84 2.545 . S
O132 C140 1.250 . S
O133 Gd84 2.412 . S
O133 C143 1.252 . S
O134 Gd85 2.545 . S
O134 C152 1.258 . S
O135 Gd84 2.362 . S
O135 Gd85 2.606 . S
O135 C151 1.284 . S
O136 Gd84 2.324 . S
O136 C159 1.254 . S
O137 Gd85 2.429 . S
O137 C159 1.268 . S
O138 Gd85 2.545 . S
O138 C151 1.250 . S
O139 Gd85 2.412 . S
O139 C152 1.252 . S
C140 O129 1.284 . S
C140 O132 1.250 . S
C141 H110 0.929 . S
C141 C126 1.437 1_556 S
C141 C142 1.317 . S
C142 H113 0.930 . S
C142 C118 1.431 1_556 S
C142 C141 1.317 . S
C143 Gd84 2.828 . S
C143 O128 1.258 . S
C143 O133 1.252 . S
C143 C144 1.497 . S
C144 C143 1.497 . S
C144 C145 1.395 . S
C144 C146 1.380 . S
C145 C144 1.395 . S
C145 C148 1.398 . S
C145 H160 0.930 . S
C146 C144 1.380 . S
C146 C147 1.391 . S
C146 H161 0.930 . S
C147 C146 1.391 . S
C147 C149 1.387 . S
C148 C145 1.398 . S
C148 C149 1.380 . S
C148 H162 0.930 . S
C149 C147 1.387 . S
C149 C148 1.380 . S
C149 H163 0.930 . S
C150 O130 1.254 . S
C150 O131 1.268 . S
C151 O135 1.284 . S
C151 O138 1.250 . S
C152 Gd85 2.828 . S
C152 O134 1.258 . S
C152 O139 1.252 . S
C152 C153 1.497 . S
C153 C152 1.497 . S
C153 C154 1.395 . S
C153 C155 1.380 . S
C154 C153 1.395 . S
C154 C157 1.398 . S
C154 H164 0.930 . S
C155 C153 1.380 . S
C155 C156 1.391 . S
C155 H165 0.930 . S
C156 C155 1.391 . S
C156 C158 1.387 . S
C157 C154 1.398 . S
C157 C158 1.380 . S
C157 H166 0.930 . S
C158 C156 1.387 . S
C158 C157 1.380 . S
C158 H167 0.930 . S
C159 O136 1.254 . S
C159 O137 1.268 . S
H160 C145 0.930 . S
H161 C146 0.930 . S
H162 C148 0.930 . S
H163 C149 0.930 . S
H164 C154 0.930 . S
H165 C155 0.930 . S
H166 C157 0.930 . S
H167 C158 0.930 . S
Gd168 N199 2.661 . S
Gd168 N205 2.601 . S
Gd168 O212 2.545 . S
Gd168 O213 2.606 . S
Gd168 O215 2.429 . S
Gd168 O216 2.545 . S
Gd168 O217 2.412 . S
Gd168 O219 2.362 . S
Gd168 O220 2.324 . S
Gd168 C227 2.828 . S
Gd169 N178 2.661 . S
Gd169 N182 2.601 . S
Gd169 O213 2.362 . S
Gd169 O214 2.324 . S
Gd169 O218 2.545 . S
Gd169 O219 2.606 . S
Gd169 O221 2.429 . S
Gd169 O222 2.545 . S
Gd169 O223 2.412 . S
Gd169 C236 2.828 . S
C170 C173 1.417 . S
C170 C175 1.431 1_556 S
C170 C176 1.412 1_556 S
C171 C174 1.437 1_554 S
C171 C175 1.317 . S
C171 H190 0.929 . S
C172 C173 1.426 . S
C172 C174 1.413 . S
C172 N182 1.359 . S
C173 C170 1.417 . S
C173 C172 1.426 . S
C173 N178 1.350 . S
C174 C171 1.437 1_556 S
C174 C172 1.413 . S
C174 C184 1.391 . S
C175 C170 1.431 1_554 S
C175 C171 1.317 . S
C175 H186 0.930 . S
C176 C170 1.412 1_554 S
C176 C177 1.355 1_554 S
C176 H188 0.930 . S
C177 C176 1.355 1_556 S
C177 C179 1.402 . S
C177 H189 0.930 . S
N178 Gd169 2.661 . S
N178 C173 1.350 . S
N178 C179 1.307 . S
C179 C177 1.402 . S
C179 N178 1.307 . S
C179 H180 0.930 . S
H180 C179 0.930 . S
C181 N182 1.334 . S
C181 C183 1.394 1_565 S
C181 H185 0.930 . S
N182 Gd169 2.601 . S
N182 C172 1.359 . S
N182 C181 1.334 . S
C183 C181 1.394 1_545 S
C183 C184 1.359 1_545 S
C183 H195 0.930 . S
C184 C174 1.391 . S
C184 C183 1.359 1_565 S
C184 H196 0.929 1_565 S
H185 C181 0.930 . S
H186 C175 0.930 . S
H187 C204 0.930 . S
H188 C176 0.930 . S
H189 C177 0.930 . S
H190 C171 0.929 . S
H191 C209 0.930 . S
H192 C200 0.930 . S
H193 C201 0.930 . S
H194 C225 0.929 . S
H195 C183 0.930 . S
H196 C184 0.929 1_545 S
H197 C226 0.930 1_556 S
H198 C207 0.930 . S
N199 Gd168 2.661 . S
N199 C203 1.350 . S
N199 C204 1.307 . S
C200 H192 0.930 . S
C200 C201 1.355 . S
C200 C202 1.412 . S
C201 H193 0.930 . S
C201 C200 1.355 . S
C201 C204 1.402 . S
C202 C200 1.412 . S
C202 C203 1.417 . S
C202 C226 1.431 . S
C203 N199 1.350 . S
C203 C202 1.417 . S
C203 C206 1.426 . S
C204 H187 0.930 . S
C204 N199 1.307 . S
C204 C201 1.402 . S
N205 Gd168 2.601 . S
N205 C206 1.359 . S
N205 C209 1.334 . S
C206 C203 1.426 . S
C206 N205 1.359 . S
C206 C210 1.413 . S
C207 H198 0.930 . S
C207 C208 1.359 . S
C207 C209 1.394 . S
C208 C207 1.359 . S
C208 C210 1.391 . S
C208 H211 0.929 . S
C209 H191 0.930 . S
C209 N205 1.334 . S
C209 C207 1.394 . S
C210 C206 1.413 . S
C210 C208 1.391 . S
C210 C225 1.437 . S
H211 C208 0.929 . S
O212 Gd168 2.545 . S
O212 C227 1.258 . S
O213 Gd168 2.606 . S
O213 Gd169 2.362 . S
O213 C224 1.284 . S
O214 Gd169 2.324 . S
O214 C234 1.254 . S
O215 Gd168 2.429 . S
O215 C234 1.268 . S
O216 Gd168 2.545 . S
O216 C224 1.250 . S
O217 Gd168 2.412 . S
O217 C227 1.252 . S
O218 Gd169 2.545 . S
O218 C236 1.258 . S
O219 Gd168 2.362 . S
O219 Gd169 2.606 . S
O219 C235 1.284 . S
O220 Gd168 2.324 . S
O220 C243 1.254 . S
O221 Gd169 2.429 . S
O221 C243 1.268 . S
O222 Gd169 2.545 . S
O222 C235 1.250 . S
O223 Gd169 2.412 . S
O223 C236 1.252 . S
C224 O213 1.284 . S
C224 O216 1.250 . S
C225 H194 0.929 . S
C225 C210 1.437 . S
C225 C226 1.317 . S
C226 H197 0.930 1_554 S
C226 C202 1.431 . S
C226 C225 1.317 . S
C227 Gd168 2.828 . S
C227 O212 1.258 . S
C227 O217 1.252 . S
C227 C228 1.497 . S
C228 C227 1.497 . S
C228 C229 1.395 . S
C228 C230 1.380 . S
C229 C228 1.395 . S
C229 C232 1.398 . S
C229 H244 0.930 . S
C230 C228 1.380 . S
C230 C231 1.391 . S
C230 H245 0.930 . S
C231 C230 1.391 . S
C231 C233 1.387 . S
C232 C229 1.398 . S
C232 C233 1.380 . S
C232 H246 0.930 . S
C233 C231 1.387 . S
C233 C232 1.380 . S
C233 H247 0.930 . S
C234 O214 1.254 . S
C234 O215 1.268 . S
C235 O219 1.284 . S
C235 O222 1.250 . S
C236 Gd169 2.828 . S
C236 O218 1.258 . S
C236 O223 1.252 . S
C236 C237 1.497 . S
C237 C236 1.497 . S
C237 C238 1.395 . S
C237 C239 1.380 . S
C238 C237 1.395 . S
C238 C241 1.398 . S
C238 H248 0.930 . S
C239 C237 1.380 . S
C239 C240 1.391 . S
C239 H249 0.930 . S
C240 C239 1.391 . S
C240 C242 1.387 . S
C241 C238 1.398 . S
C241 C242 1.380 . S
C241 H250 0.930 . S
C242 C240 1.387 . S
C242 C241 1.380 . S
C242 H251 0.930 . S
C243 O220 1.254 . S
C243 O221 1.268 . S
H244 C229 0.930 . S
H245 C230 0.930 . S
H246 C232 0.930 . S
H247 C233 0.930 . S
H248 C238 0.930 . S
H249 C239 0.930 . S
H250 C241 0.930 . S
H251 C242 0.930 . S
Gd252 N283 2.661 . S
Gd252 N289 2.601 . S
Gd252 O296 2.545 . S
Gd252 O297 2.606 . S
Gd252 O299 2.429 . S
Gd252 O300 2.545 . S
Gd252 O301 2.412 . S
Gd252 O303 2.362 . S
Gd252 O304 2.324 . S
Gd252 C311 2.828 . S
Gd253 N262 2.661 . S
Gd253 N266 2.601 . S
Gd253 O297 2.362 . S
Gd253 O298 2.324 . S
Gd253 O302 2.545 . S
Gd253 O303 2.606 . S
Gd253 O305 2.429 . S
Gd253 O306 2.545 . S
Gd253 O307 2.412 . S
Gd253 C320 2.828 . S
C254 C257 1.417 . S
C254 C259 1.431 1_556 S
C254 C260 1.412 1_556 S
C255 C258 1.437 1_554 S
C255 C259 1.317 . S
C255 H274 0.929 . S
C256 C257 1.426 . S
C256 C258 1.413 . S
C256 N266 1.359 . S
C257 C254 1.417 . S
C257 C256 1.426 . S
C257 N262 1.350 . S
C258 C255 1.437 1_556 S
C258 C256 1.413 . S
C258 C268 1.391 . S
C259 C254 1.431 1_554 S
C259 C255 1.317 . S
C259 H270 0.930 . S
C260 C254 1.412 1_554 S
C260 C261 1.355 1_554 S
C260 H272 0.930 . S
C261 C260 1.355 1_556 S
C261 C263 1.402 . S
C261 H273 0.930 . S
N262 Gd253 2.661 . S
N262 C257 1.350 . S
N262 C263 1.307 . S
C263 C261 1.402 . S
C263 N262 1.307 . S
C263 H264 0.930 . S
H264 C263 0.930 . S
C265 N266 1.334 . S
C265 C267 1.394 . S
C265 H269 0.930 . S
N266 Gd253 2.601 . S
N266 C256 1.359 . S
N266 C265 1.334 . S
C267 C265 1.394 . S
C267 C268 1.359 . S
C267 H279 0.930 . S
C268 C258 1.391 . S
C268 C267 1.359 . S
C268 H280 0.929 . S
H269 C265 0.930 . S
H270 C259 0.930 . S
H271 C288 0.930 . S
H272 C260 0.930 . S
H273 C261 0.930 . S
H274 C255 0.929 . S
H275 C293 0.930 . S
H276 C284 0.930 . S
H277 C285 0.930 . S
H278 C309 0.929 . S
H279 C267 0.930 . S
H280 C268 0.929 . S
H281 C310 0.930 1_556 S
H282 C291 0.918 1_545 S
N283 Gd252 2.661 . S
N283 C287 1.350 . S
N283 C288 1.307 . S
C284 H276 0.930 . S
C284 C285 1.355 . S
C284 C286 1.412 . S
C285 H277 0.930 . S
C285 C284 1.355 . S
C285 C288 1.402 . S
C286 C284 1.412 . S
C286 C287 1.417 . S
C286 C310 1.431 . S
C287 N283 1.350 . S
C287 C286 1.417 . S
C287 C290 1.426 . S
C288 H271 0.930 . S
C288 N283 1.307 . S
C288 C285 1.402 . S
N289 Gd252 2.601 . S
N289 C290 1.359 . S
N289 C293 1.334 . S
C290 C287 1.426 . S
C290 N289 1.359 . S
C290 C294 1.413 . S
C291 H282 0.918 1_565 S
C291 C292 1.364 . S
C291 C293 1.402 . S
C292 C291 1.364 . S
C292 C294 1.391 . S
C292 H295 0.929 1_565 S
C293 H275 0.930 . S
C293 N289 1.334 . S
C293 C291 1.402 . S
C294 C290 1.413 . S
C294 C292 1.391 . S
C294 C309 1.437 . S
H295 C292 0.929 1_545 S
O296 Gd252 2.545 . S
O296 C311 1.258 . S
O297 Gd252 2.606 . S
O297 Gd253 2.362 . S
O297 C308 1.284 . S
O298 Gd253 2.324 . S
O298 C318 1.254 . S
O299 Gd252 2.429 . S
O299 C318 1.268 . S
O300 Gd252 2.545 . S
O300 C308 1.250 . S
O301 Gd252 2.412 . S
O301 C311 1.252 . S
O302 Gd253 2.545 . S
O302 C320 1.258 . S
O303 Gd252 2.362 . S
O303 Gd253 2.606 . S
O303 C319 1.284 . S
O304 Gd252 2.324 . S
O304 C327 1.254 . S
O305 Gd253 2.429 . S
O305 C327 1.268 . S
O306 Gd253 2.545 . S
O306 C319 1.250 . S
O307 Gd253 2.412 . S
O307 C320 1.252 . S
C308 O297 1.284 . S
C308 O300 1.250 . S
C309 H278 0.929 . S
C309 C294 1.437 . S
C309 C310 1.317 . S
C310 H281 0.930 1_554 S
C310 C286 1.431 . S
C310 C309 1.317 . S
C311 Gd252 2.828 . S
C311 O296 1.258 . S
C311 O301 1.252 . S
C311 C312 1.497 . S
C312 C311 1.497 . S
C312 C313 1.395 . S
C312 C314 1.380 . S
C313 C312 1.395 . S
C313 C316 1.398 . S
C313 H328 0.930 . S
C314 C312 1.380 . S
C314 C315 1.391 . S
C314 H329 0.930 . S
C315 C314 1.391 . S
C315 C317 1.387 . S
C316 C313 1.398 . S
C316 C317 1.380 . S
C316 H330 0.930 . S
C317 C315 1.387 . S
C317 C316 1.380 . S
C317 H331 0.930 . S
C318 O298 1.254 . S
C318 O299 1.268 . S
C319 O303 1.284 . S
C319 O306 1.250 . S
C320 Gd253 2.828 . S
C320 O302 1.258 . S
C320 O307 1.252 . S
C320 C321 1.497 . S
C321 C320 1.497 . S
C321 C322 1.395 . S
C321 C323 1.380 . S
C322 C321 1.395 . S
C322 C325 1.398 . S
C322 H332 0.930 . S
C323 C321 1.380 . S
C323 C324 1.391 . S
C323 H333 0.930 . S
C324 C323 1.391 . S
C324 C326 1.387 . S
C325 C322 1.398 . S
C325 C326 1.380 . S
C325 H334 0.930 . S
C326 C324 1.387 . S
C326 C325 1.380 . S
C326 H335 0.930 . S
C327 O304 1.254 . S
C327 O305 1.268 . S
H328 C313 0.930 . S
H329 C314 0.930 . S
H330 C316 0.930 . S
H331 C317 0.930 . S
H332 C322 0.930 . S
H333 C323 0.930 . S
H334 C325 0.930 . S
H335 C326 0.930 . S
Gd336 N367 2.661 . S
Gd336 N373 2.601 . S
Gd336 O380 2.545 1_556 S
Gd336 O381 2.606 1_556 S
Gd336 O383 2.429 1_556 S
Gd336 O384 2.545 1_556 S
Gd336 O385 2.412 1_556 S
Gd336 O387 2.362 . S
Gd336 O388 2.324 . S
Gd336 C395 2.828 1_556 S
Gd337 N346 2.661 . S
Gd337 N350 2.601 . S
Gd337 O381 2.362 . S
Gd337 O382 2.324 . S
Gd337 O386 2.545 1_554 S
Gd337 O387 2.606 1_554 S
Gd337 O389 2.429 1_554 S
Gd337 O390 2.545 1_554 S
Gd337 O391 2.412 1_554 S
Gd337 C404 2.828 1_554 S
C338 C341 1.417 . S
C338 C343 1.431 . S
C338 C344 1.412 . S
C339 C342 1.437 . S
C339 C343 1.317 . S
C339 H358 0.929 . S
C340 C341 1.426 . S
C340 C342 1.413 . S
C340 N350 1.359 . S
C341 C338 1.417 . S
C341 C340 1.426 . S
C341 N346 1.350 . S
C342 C339 1.437 . S
C342 C340 1.413 . S
C342 C352 1.391 . S
C343 C338 1.431 . S
C343 C339 1.317 . S
C343 H354 0.930 . S
C344 C338 1.412 . S
C344 C345 1.355 . S
C344 H356 0.930 . S
C345 C344 1.355 . S
C345 C347 1.402 . S
C345 H357 0.930 . S
N346 Gd337 2.661 . S
N346 C341 1.350 . S
N346 C347 1.307 . S
C347 C345 1.402 . S
C347 N346 1.307 . S
C347 H348 0.930 . S
H348 C347 0.930 . S
C349 N350 1.334 . S
C349 C351 1.394 . S
C349 H353 0.930 . S
N350 Gd337 2.601 . S
N350 C340 1.359 . S
N350 C349 1.334 . S
C351 C349 1.394 . S
C351 C352 1.359 . S
C351 H363 0.930 . S
C352 C342 1.391 . S
C352 C351 1.359 . S
C352 H364 0.929 . S
H353 C349 0.930 . S
H354 C343 0.930 . S
H355 C372 0.930 . S
H356 C344 0.930 . S
H357 C345 0.930 . S
H358 C339 0.929 . S
H359 C377 0.930 . S
H360 C368 0.930 . S
H361 C369 0.930 . S
H362 C393 0.929 . S
H363 C351 0.930 . S
H364 C352 0.929 . S
H365 C394 0.930 . S
H366 C375 0.930 . S
N367 Gd336 2.661 . S
N367 C371 1.350 . S
N367 C372 1.307 . S
C368 H360 0.930 . S
C368 C369 1.355 . S
C368 C370 1.412 . S
C369 H361 0.930 . S
C369 C368 1.355 . S
C369 C372 1.402 . S
C370 C368 1.412 . S
C370 C371 1.417 . S
C370 C394 1.431 . S
C371 N367 1.350 . S
C371 C370 1.417 . S
C371 C374 1.426 . S
C372 H355 0.930 . S
C372 N367 1.307 . S
C372 C369 1.402 . S
N373 Gd336 2.601 . S
N373 C374 1.359 . S
N373 C377 1.334 . S
C374 C371 1.426 . S
C374 N373 1.359 . S
C374 C378 1.413 . S
C375 H366 0.930 . S
C375 C376 1.359 1_545 S
C375 C377 1.394 1_545 S
C376 C375 1.359 1_565 S
C376 C378 1.391 . S
C376 H379 0.929 1_565 S
C377 H359 0.930 . S
C377 N373 1.334 . S
C377 C375 1.394 1_565 S
C378 C374 1.413 . S
C378 C376 1.391 . S
C378 C393 1.437 . S
H379 C376 0.929 1_545 S
O380 Gd336 2.545 1_554 S
O380 C395 1.258 . S
O381 Gd336 2.606 1_554 S
O381 Gd337 2.362 . S
O381 C392 1.284 . S
O382 Gd337 2.324 . S
O382 C402 1.254 1_554 S
O383 Gd336 2.429 1_554 S
O383 C402 1.268 1_554 S
O384 Gd336 2.545 1_554 S
O384 C392 1.250 . S
O385 Gd336 2.412 1_554 S
O385 C395 1.252 . S
O386 Gd337 2.545 1_556 S
O386 C404 1.258 . S
O387 Gd336 2.362 . S
O387 Gd337 2.606 1_556 S
O387 C403 1.284 . S
O388 Gd336 2.324 . S
O388 C411 1.254 1_556 S
O389 Gd337 2.429 1_556 S
O389 C411 1.268 1_556 S
O390 Gd337 2.545 1_556 S
O390 C403 1.250 . S
O391 Gd337 2.412 1_556 S
O391 C404 1.252 . S
C392 O381 1.284 . S
C392 O384 1.250 . S
C393 H362 0.929 . S
C393 C378 1.437 . S
C393 C394 1.317 . S
C394 H365 0.930 . S
C394 C370 1.431 . S
C394 C393 1.317 . S
C395 Gd336 2.828 1_554 S
C395 O380 1.258 . S
C395 O385 1.252 . S
C395 C396 1.497 . S
C396 C395 1.497 . S
C396 C397 1.395 . S
C396 C398 1.380 . S
C397 C396 1.395 . S
C397 C400 1.398 . S
C397 H412 0.930 . S
C398 C396 1.380 . S
C398 C399 1.391 . S
C398 H413 0.930 . S
C399 C398 1.391 . S
C399 C401 1.387 . S
C400 C397 1.398 . S
C400 C401 1.380 . S
C400 H414 0.930 . S
C401 C399 1.387 . S
C401 C400 1.380 . S
C401 H415 0.930 . S
C402 O382 1.254 1_556 S
C402 O383 1.268 1_556 S
C403 O387 1.284 . S
C403 O390 1.250 . S
C404 Gd337 2.828 1_556 S
C404 O386 1.258 . S
C404 O391 1.252 . S
C404 C405 1.497 . S
C405 C404 1.497 . S
C405 C406 1.395 . S
C405 C407 1.380 . S
C406 C405 1.395 . S
C406 C409 1.398 . S
C406 H416 0.930 . S
C407 C405 1.380 . S
C407 C408 1.391 . S
C407 H417 0.930 . S
C408 C407 1.391 . S
C408 C410 1.387 . S
C409 C406 1.398 . S
C409 C410 1.380 . S
C409 H418 0.930 . S
C410 C408 1.387 . S
C410 C409 1.380 . S
C410 H419 0.930 . S
C411 O388 1.254 1_554 S
C411 O389 1.268 1_554 S
H412 C397 0.930 . S
H413 C398 0.930 . S
H414 C400 0.930 . S
H415 C401 0.930 . S
H416 C406 0.930 . S
H417 C407 0.930 . S
H418 C409 0.930 . S
H419 C410 0.930 . S
Gd420 N451 2.661 . S
Gd420 N457 2.601 . S
Gd420 O464 2.545 1_556 S
Gd420 O465 2.606 1_556 S
Gd420 O467 2.429 1_556 S
Gd420 O468 2.545 1_556 S
Gd420 O469 2.412 1_556 S
Gd420 O471 2.362 . S
Gd420 O472 2.324 . S
Gd420 C479 2.828 1_556 S
Gd421 N430 2.661 . S
Gd421 N434 2.601 . S
Gd421 O465 2.362 . S
Gd421 O466 2.324 . S
Gd421 O470 2.545 1_554 S
Gd421 O471 2.606 1_554 S
Gd421 O473 2.429 1_554 S
Gd421 O474 2.545 1_554 S
Gd421 O475 2.412 1_554 S
Gd421 C488 2.828 1_554 S
C422 C425 1.417 . S
C422 C427 1.431 . S
C422 C428 1.412 . S
C423 C426 1.437 . S
C423 C427 1.317 . S
C423 H442 0.929 . S
C424 C425 1.426 . S
C424 C426 1.413 . S
C424 N434 1.359 . S
C425 C422 1.417 . S
C425 C424 1.426 . S
C425 N430 1.350 . S
C426 C423 1.437 . S
C426 C424 1.413 . S
C426 C436 1.391 . S
C427 C422 1.431 . S
C427 C423 1.317 . S
C427 H438 0.930 . S
C428 C422 1.412 . S
C428 C429 1.355 . S
C428 H440 0.930 . S
C429 C428 1.355 . S
C429 C431 1.402 . S
C429 H441 0.930 . S
N430 Gd421 2.661 . S
N430 C425 1.350 . S
N430 C431 1.307 . S
C431 C429 1.402 . S
C431 N430 1.307 . S
C431 H432 0.930 . S
H432 C431 0.930 . S
C433 N434 1.334 . S
C433 C435 1.400 . S
C433 H437 0.930 . S
N434 Gd421 2.601 . S
N434 C424 1.359 . S
N434 C433 1.334 . S
C435 C433 1.400 . S
C435 C436 1.363 . S
C435 H447 0.920 1_565 S
C436 C426 1.391 . S
C436 C435 1.363 . S
C436 H448 0.929 1_565 S
H437 C433 0.930 . S
H438 C427 0.930 . S
H439 C456 0.930 . S
H440 C428 0.930 . S
H441 C429 0.930 . S
H442 C423 0.929 . S
H443 C461 0.930 . S
H444 C452 0.930 . S
H445 C453 0.930 . S
H446 C477 0.929 . S
H447 C435 0.920 1_545 S
H448 C436 0.929 1_545 S
H449 C478 0.930 . S
H450 C459 0.930 . S
N451 Gd420 2.661 . S
N451 C455 1.350 . S
N451 C456 1.307 . S
C452 H444 0.930 . S
C452 C453 1.355 . S
C452 C454 1.412 . S
C453 H445 0.930 . S
C453 C452 1.355 . S
C453 C456 1.402 . S
C454 C452 1.412 . S
C454 C455 1.417 . S
C454 C478 1.431 . S
C455 N451 1.350 . S
C455 C454 1.417 . S
C455 C458 1.426 . S
C456 H439 0.930 . S
C456 N451 1.307 . S
C456 C453 1.402 . S
N457 Gd420 2.601 . S
N457 C458 1.359 . S
N457 C461 1.334 . S
C458 C455 1.426 . S
C458 N457 1.359 . S
C458 C462 1.413 . S
C459 H450 0.930 . S
C459 C460 1.359 . S
C459 C461 1.394 . S
C460 C459 1.359 . S
C460 C462 1.391 . S
C460 H463 0.929 . S
C461 H443 0.930 . S
C461 N457 1.334 . S
C461 C459 1.394 . S
C462 C458 1.413 . S
C462 C460 1.391 . S
C462 C477 1.437 . S
H463 C460 0.929 . S
O464 Gd420 2.545 1_554 S
O464 C479 1.258 . S
O465 Gd420 2.606 1_554 S
O465 Gd421 2.362 . S
O465 C476 1.284 . S
O466 Gd421 2.324 . S
O466 C486 1.254 1_554 S
O467 Gd420 2.429 1_554 S
O467 C486 1.268 1_554 S
O468 Gd420 2.545 1_554 S
O468 C476 1.250 . S
O469 Gd420 2.412 1_554 S
O469 C479 1.252 . S
O470 Gd421 2.545 1_556 S
O470 C488 1.258 . S
O471 Gd420 2.362 . S
O471 Gd421 2.606 1_556 S
O471 C487 1.284 . S
O472 Gd420 2.324 . S
O472 C495 1.254 1_556 S
O473 Gd421 2.429 1_556 S
O473 C495 1.268 1_556 S
O474 Gd421 2.545 1_556 S
O474 C487 1.250 . S
O475 Gd421 2.412 1_556 S
O475 C488 1.252 . S
C476 O465 1.284 . S
C476 O468 1.250 . S
C477 H446 0.929 . S
C477 C462 1.437 . S
C477 C478 1.317 . S
C478 H449 0.930 . S
C478 C454 1.431 . S
C478 C477 1.317 . S
C479 Gd420 2.828 1_554 S
C479 O464 1.258 . S
C479 O469 1.252 . S
C479 C480 1.497 . S
C480 C479 1.497 . S
C480 C481 1.395 . S
C480 C482 1.380 . S
C481 C480 1.395 . S
C481 C484 1.398 . S
C481 H496 0.930 . S
C482 C480 1.380 . S
C482 C483 1.391 . S
C482 H497 0.930 . S
C483 C482 1.391 . S
C483 C485 1.387 . S
C484 C481 1.398 . S
C484 C485 1.380 . S
C484 H498 0.930 . S
C485 C483 1.387 . S
C485 C484 1.380 . S
C485 H499 0.930 . S
C486 O466 1.254 1_556 S
C486 O467 1.268 1_556 S
C487 O471 1.284 . S
C487 O474 1.250 . S
C488 Gd421 2.828 1_556 S
C488 O470 1.258 . S
C488 O475 1.252 . S
C488 C489 1.497 . S
C489 C488 1.497 . S
C489 C490 1.395 . S
C489 C491 1.380 . S
C490 C489 1.395 . S
C490 C493 1.398 . S
C490 H500 0.930 . S
C491 C489 1.380 . S
C491 C492 1.391 . S
C491 H501 0.930 . S
C492 C491 1.391 . S
C492 C494 1.387 . S
C493 C490 1.398 . S
C493 C494 1.380 . S
C493 H502 0.930 . S
C494 C492 1.387 . S
C494 C493 1.380 . S
C494 H503 0.930 . S
C495 O472 1.254 1_554 S
C495 O473 1.268 1_554 S
H496 C481 0.930 . S
H497 C482 0.930 . S
H498 C484 0.930 . S
H499 C485 0.930 . S
H500 C490 0.930 . S
H501 C491 0.930 . S
H502 C493 0.930 . S
H503 C494 0.930 . S
Gd504 N535 2.661 . S
Gd504 N541 2.601 . S
Gd504 O548 2.545 1_556 S
Gd504 O549 2.606 1_556 S
Gd504 O551 2.429 1_556 S
Gd504 O552 2.545 1_556 S
Gd504 O553 2.412 1_556 S
Gd504 O555 2.362 . S
Gd504 O556 2.324 . S
Gd504 C563 2.828 1_556 S
Gd505 N514 2.661 . S
Gd505 N518 2.601 . S
Gd505 O549 2.362 . S
Gd505 O550 2.324 . S
Gd505 O554 2.545 1_554 S
Gd505 O555 2.606 1_554 S
Gd505 O557 2.429 1_554 S
Gd505 O558 2.545 1_554 S
Gd505 O559 2.412 1_554 S
Gd505 C572 2.828 1_554 S
C506 C509 1.417 . S
C506 C511 1.431 . S
C506 C512 1.412 . S
C507 C510 1.437 . S
C507 C511 1.317 . S
C507 H526 0.929 . S
C508 C509 1.426 . S
C508 C510 1.413 . S
C508 N518 1.359 . S
C509 C506 1.417 . S
C509 C508 1.426 . S
C509 N514 1.350 . S
C510 C507 1.437 . S
C510 C508 1.413 . S
C510 C520 1.391 . S
C511 C506 1.431 . S
C511 C507 1.317 . S
C511 H522 0.930 . S
C512 C506 1.412 . S
C512 C513 1.355 . S
C512 H524 0.930 . S
C513 C512 1.355 . S
C513 C515 1.402 . S
C513 H525 0.930 . S
N514 Gd505 2.661 . S
N514 C509 1.350 . S
N514 C515 1.307 . S
C515 C513 1.402 . S
C515 N514 1.307 . S
C515 H516 0.930 . S
H516 C515 0.930 . S
C517 N518 1.334 . S
C517 C519 1.394 . S
C517 H521 0.930 . S
N518 Gd505 2.601 . S
N518 C508 1.359 . S
N518 C517 1.334 . S
C519 C517 1.394 . S
C519 C520 1.359 . S
C519 H531 0.930 . S
C520 C510 1.391 . S
C520 C519 1.359 . S
C520 H532 0.929 . S
H521 C517 0.930 . S
H522 C511 0.930 . S
H523 C540 0.930 . S
H524 C512 0.930 . S
H525 C513 0.930 . S
H526 C507 0.929 . S
H527 C545 0.930 . S
H528 C536 0.930 . S
H529 C537 0.930 . S
H530 C561 0.929 . S
H531 C519 0.930 . S
H532 C520 0.929 . S
H533 C562 0.930 . S
H534 C543 0.920 1_565 S
N535 Gd504 2.661 . S
N535 C539 1.350 . S
N535 C540 1.307 . S
C536 H528 0.930 . S
C536 C537 1.355 . S
C536 C538 1.412 . S
C537 H529 0.930 . S
C537 C536 1.355 . S
C537 C540 1.402 . S
C538 C536 1.412 . S
C538 C539 1.417 . S
C538 C562 1.431 . S
C539 N535 1.350 . S
C539 C538 1.417 . S
C539 C542 1.426 . S
C540 H523 0.930 . S
C540 N535 1.307 . S
C540 C537 1.402 . S
N541 Gd504 2.601 . S
N541 C542 1.359 . S
N541 C545 1.334 . S
C542 C539 1.426 . S
C542 N541 1.359 . S
C542 C546 1.413 . S
C543 H534 0.920 1_545 S
C543 C544 1.363 . S
C543 C545 1.400 . S
C544 C543 1.363 . S
C544 C546 1.391 . S
C544 H547 0.929 1_545 S
C545 H527 0.930 . S
C545 N541 1.334 . S
C545 C543 1.400 . S
C546 C542 1.413 . S
C546 C544 1.391 . S
C546 C561 1.437 . S
H547 C544 0.929 1_565 S
O548 Gd504 2.545 1_554 S
O548 C563 1.258 . S
O549 Gd504 2.606 1_554 S
O549 Gd505 2.362 . S
O549 C560 1.284 . S
O550 Gd505 2.324 . S
O550 C570 1.254 1_554 S
O551 Gd504 2.429 1_554 S
O551 C570 1.268 1_554 S
O552 Gd504 2.545 1_554 S
O552 C560 1.250 . S
O553 Gd504 2.412 1_554 S
O553 C563 1.252 . S
O554 Gd505 2.545 1_556 S
O554 C572 1.258 . S
O555 Gd504 2.362 . S
O555 Gd505 2.606 1_556 S
O555 C571 1.284 . S
O556 Gd504 2.324 . S
O556 C579 1.254 1_556 S
O557 Gd505 2.429 1_556 S
O557 C579 1.268 1_556 S
O558 Gd505 2.545 1_556 S
O558 C571 1.250 . S
O559 Gd505 2.412 1_556 S
O559 C572 1.252 . S
C560 O549 1.284 . S
C560 O552 1.250 . S
C561 H530 0.929 . S
C561 C546 1.437 . S
C561 C562 1.317 . S
C562 H533 0.930 . S
C562 C538 1.431 . S
C562 C561 1.317 . S
C563 Gd504 2.828 1_554 S
C563 O548 1.258 . S
C563 O553 1.252 . S
C563 C564 1.497 . S
C564 C563 1.497 . S
C564 C565 1.395 . S
C564 C566 1.380 . S
C565 C564 1.395 . S
C565 C568 1.398 . S
C565 H580 0.930 . S
C566 C564 1.380 . S
C566 C567 1.391 . S
C566 H581 0.930 . S
C567 C566 1.391 . S
C567 C569 1.387 . S
C568 C565 1.398 . S
C568 C569 1.380 . S
C568 H582 0.930 . S
C569 C567 1.387 . S
C569 C568 1.380 . S
C569 H583 0.930 . S
C570 O550 1.254 1_556 S
C570 O551 1.268 1_556 S
C571 O555 1.284 . S
C571 O558 1.250 . S
C572 Gd505 2.828 1_556 S
C572 O554 1.258 . S
C572 O559 1.252 . S
C572 C573 1.497 . S
C573 C572 1.497 . S
C573 C574 1.395 . S
C573 C575 1.380 . S
C574 C573 1.395 . S
C574 C577 1.398 . S
C574 H584 0.930 . S
C575 C573 1.380 . S
C575 C576 1.391 . S
C575 H585 0.930 . S
C576 C575 1.391 . S
C576 C578 1.387 . S
C577 C574 1.398 . S
C577 C578 1.380 . S
C577 H586 0.930 . S
C578 C576 1.387 . S
C578 C577 1.380 . S
C578 H587 0.930 . S
C579 O556 1.254 1_554 S
C579 O557 1.268 1_554 S
H580 C565 0.930 . S
H581 C566 0.930 . S
H582 C568 0.930 . S
H583 C569 0.930 . S
H584 C574 0.930 . S
H585 C575 0.930 . S
H586 C577 0.930 . S
H587 C578 0.930 . S
Gd588 N619 2.661 . S
Gd588 N625 2.601 . S
Gd588 O632 2.545 1_556 S
Gd588 O633 2.606 1_556 S
Gd588 O635 2.429 1_556 S
Gd588 O636 2.545 1_556 S
Gd588 O637 2.412 1_556 S
Gd588 O639 2.362 . S
Gd588 O640 2.324 . S
Gd588 C647 2.828 1_556 S
Gd589 N598 2.661 . S
Gd589 N602 2.601 . S
Gd589 O633 2.362 . S
Gd589 O634 2.324 . S
Gd589 O638 2.545 1_554 S
Gd589 O639 2.606 1_554 S
Gd589 O641 2.429 1_554 S
Gd589 O642 2.545 1_554 S
Gd589 O643 2.412 1_554 S
Gd589 C656 2.828 1_554 S
C590 C593 1.417 . S
C590 C595 1.431 . S
C590 C596 1.412 . S
C591 C594 1.437 . S
C591 C595 1.317 . S
C591 H610 0.929 . S
C592 C593 1.426 . S
C592 C594 1.413 . S
C592 N602 1.359 . S
C593 C590 1.417 . S
C593 C592 1.426 . S
C593 N598 1.350 . S
C594 C591 1.437 . S
C594 C592 1.413 . S
C594 C604 1.391 . S
C595 C590 1.431 . S
C595 C591 1.317 . S
C595 H606 0.930 . S
C596 C590 1.412 . S
C596 C597 1.355 . S
C596 H608 0.930 . S
C597 C596 1.355 . S
C597 C599 1.402 . S
C597 H609 0.930 . S
N598 Gd589 2.661 . S
N598 C593 1.350 . S
N598 C599 1.307 . S
C599 C597 1.402 . S
C599 N598 1.307 . S
C599 H600 0.930 . S
H600 C599 0.930 . S
C601 N602 1.334 . S
C601 C603 1.394 1_545 S
C601 H605 0.930 . S
N602 Gd589 2.601 . S
N602 C592 1.359 . S
N602 C601 1.334 . S
C603 C601 1.394 1_565 S
C603 C604 1.359 1_565 S
C603 H615 0.930 . S
C604 C594 1.391 . S
C604 C603 1.359 1_545 S
C604 H616 0.929 1_545 S
H605 C601 0.930 . S
H606 C595 0.930 . S
H607 C624 0.930 . S
H608 C596 0.930 . S
H609 C597 0.930 . S
H610 C591 0.929 . S
H611 C629 0.930 . S
H612 C620 0.930 . S
H613 C621 0.930 . S
H614 C645 0.929 . S
H615 C603 0.930 . S
H616 C604 0.929 1_565 S
H617 C646 0.930 . S
H618 C627 0.930 . S
N619 Gd588 2.661 . S
N619 C623 1.350 . S
N619 C624 1.307 . S
C620 H612 0.930 . S
C620 C621 1.355 . S
C620 C622 1.412 . S
C621 H613 0.930 . S
C621 C620 1.355 . S
C621 C624 1.402 . S
C622 C620 1.412 . S
C622 C623 1.417 . S
C622 C646 1.431 . S
C623 N619 1.350 . S
C623 C622 1.417 . S
C623 C626 1.426 . S
C624 H607 0.930 . S
C624 N619 1.307 . S
C624 C621 1.402 . S
N625 Gd588 2.601 . S
N625 C626 1.359 . S
N625 C629 1.334 . S
C626 C623 1.426 . S
C626 N625 1.359 . S
C626 C630 1.413 . S
C627 H618 0.930 . S
C627 C628 1.359 . S
C627 C629 1.394 . S
C628 C627 1.359 . S
C628 C630 1.391 . S
C628 H631 0.929 . S
C629 H611 0.930 . S
C629 N625 1.334 . S
C629 C627 1.394 . S
C630 C626 1.413 . S
C630 C628 1.391 . S
C630 C645 1.437 . S
H631 C628 0.929 . S
O632 Gd588 2.545 1_554 S
O632 C647 1.258 . S
O633 Gd588 2.606 1_554 S
O633 Gd589 2.362 . S
O633 C644 1.284 . S
O634 Gd589 2.324 . S
O634 C654 1.254 1_554 S
O635 Gd588 2.429 1_554 S
O635 C654 1.268 1_554 S
O636 Gd588 2.545 1_554 S
O636 C644 1.250 . S
O637 Gd588 2.412 1_554 S
O637 C647 1.252 . S
O638 Gd589 2.545 1_556 S
O638 C656 1.258 . S
O639 Gd588 2.362 . S
O639 Gd589 2.606 1_556 S
O639 C655 1.284 . S
O640 Gd588 2.324 . S
O640 C663 1.254 1_556 S
O641 Gd589 2.429 1_556 S
O641 C663 1.268 1_556 S
O642 Gd589 2.545 1_556 S
O642 C655 1.250 . S
O643 Gd589 2.412 1_556 S
O643 C656 1.252 . S
C644 O633 1.284 . S
C644 O636 1.250 . S
C645 H614 0.929 . S
C645 C630 1.437 . S
C645 C646 1.317 . S
C646 H617 0.930 . S
C646 C622 1.431 . S
C646 C645 1.317 . S
C647 Gd588 2.828 1_554 S
C647 O632 1.258 . S
C647 O637 1.252 . S
C647 C648 1.497 . S
C648 C647 1.497 . S
C648 C649 1.395 . S
C648 C650 1.380 . S
C649 C648 1.395 . S
C649 C652 1.398 . S
C649 H664 0.930 . S
C650 C648 1.380 . S
C650 C651 1.391 . S
C650 H665 0.930 . S
C651 C650 1.391 . S
C651 C653 1.387 . S
C652 C649 1.398 . S
C652 C653 1.380 . S
C652 H666 0.930 . S
C653 C651 1.387 . S
C653 C652 1.380 . S
C653 H667 0.930 . S
C654 O634 1.254 1_556 S
C654 O635 1.268 1_556 S
C655 O639 1.284 . S
C655 O642 1.250 . S
C656 Gd589 2.828 1_556 S
C656 O638 1.258 . S
C656 O643 1.252 . S
C656 C657 1.497 . S
C657 C656 1.497 . S
C657 C658 1.395 . S
C657 C659 1.380 . S
C658 C657 1.395 . S
C658 C661 1.398 . S
C658 H668 0.930 . S
C659 C657 1.380 . S
C659 C660 1.391 . S
C659 H669 0.930 . S
C660 C659 1.391 . S
C660 C662 1.387 . S
C661 C658 1.398 . S
C661 C662 1.380 . S
C661 H670 0.930 . S
C662 C660 1.387 . S
C662 C661 1.380 . S
C662 H671 0.930 . S
C663 O640 1.254 1_554 S
C663 O641 1.268 1_554 S
H664 C649 0.930 . S
H665 C650 0.930 . S
H666 C652 0.930 . S
H667 C653 0.930 . S
H668 C658 0.930 . S
H669 C659 0.930 . S
H670 C661 0.930 . S
H671 C662 0.930 . S
C672 C673 1.363 . S
C672 C678 1.379 . S
C672 N680 1.356 . S
C673 C672 1.363 . S
C673 C679 1.363 . S
C674 C675 1.363 . S
C674 C679 1.379 . S
C674 N681 1.356 . S
C675 C674 1.363 . S
C675 C678 1.363 . S
N676 C678 1.356 . S
N676 H688 0.984 . S
N676 H689 0.985 . S
N677 C679 1.356 . S
N677 H682 0.984 . S
N677 H683 0.985 . S
C678 C672 1.379 . S
C678 C675 1.363 . S
C678 N676 1.356 . S
C679 C673 1.363 . S
C679 C674 1.379 . S
C679 N677 1.356 . S
N680 C672 1.356 . S
N680 H686 0.984 . S
N680 H687 0.984 . S
N681 C674 1.356 . S
N681 H684 0.984 . S
N681 H685 0.985 . S
H682 N677 0.984 . S
H683 N677 0.985 . S
H684 N681 0.984 . S
H685 N681 0.985 . S
H686 N680 0.984 . S
H687 N680 0.984 . S
H688 N676 0.984 . S
H689 N676 0.985 . S
C690 C691 1.363 . S
C690 C696 1.379 . S
C690 N698 1.356 . S
C691 C690 1.363 . S
C691 C697 1.363 . S
C692 C693 1.363 . S
C692 C697 1.379 . S
C692 N699 1.356 . S
C693 C692 1.363 . S
C693 C696 1.363 . S
N694 C696 1.356 . S
N694 H706 0.984 . S
N694 H707 0.985 . S
N695 C697 1.356 . S
N695 H700 0.984 . S
N695 H701 0.985 . S
C696 C690 1.379 . S
C696 C693 1.363 . S
C696 N694 1.356 . S
C697 C691 1.363 . S
C697 C692 1.379 . S
C697 N695 1.356 . S
N698 C690 1.356 . S
N698 H704 0.984 . S
N698 H705 0.984 . S
N699 C692 1.356 . S
N699 H702 0.984 . S
N699 H703 0.985 . S
H700 N695 0.984 . S
H701 N695 0.985 . S
H702 N699 0.984 . S
H703 N699 0.985 . S
H704 N698 0.984 . S
H705 N698 0.984 . S
H706 N694 0.984 . S
H707 N694 0.985 . S
C708 C709 1.363 . S
C708 C714 1.379 . S
C708 N716 1.356 . S
C709 C708 1.363 . S
C709 C715 1.363 . S
C710 C711 1.363 . S
C710 C715 1.379 . S
C710 N717 1.356 . S
C711 C710 1.363 . S
C711 C714 1.363 . S
N712 C714 1.356 . S
N712 H724 0.984 . S
N712 H725 0.985 . S
N713 C715 1.356 . S
N713 H718 0.984 . S
N713 H719 0.985 . S
C714 C708 1.379 . S
C714 C711 1.363 . S
C714 N712 1.356 . S
C715 C709 1.363 . S
C715 C710 1.379 . S
C715 N713 1.356 . S
N716 C708 1.356 . S
N716 H722 0.984 . S
N716 H723 0.984 . S
N717 C710 1.356 . S
N717 H720 0.984 . S
N717 H721 0.985 . S
H718 N713 0.984 . S
H719 N713 0.985 . S
H720 N717 0.984 . S
H721 N717 0.985 . S
H722 N716 0.984 . S
H723 N716 0.984 . S
H724 N712 0.984 . S
H725 N712 0.985 . S
C726 C727 1.363 . S
C726 C732 1.379 . S
C726 N734 1.356 . S
C727 C726 1.363 . S
C727 C733 1.363 . S
C728 C729 1.363 . S
C728 C733 1.379 . S
C728 N735 1.356 . S
C729 C728 1.363 . S
C729 C732 1.363 . S
N730 C732 1.356 . S
N730 H742 0.984 . S
N730 H743 0.985 . S
N731 C733 1.356 . S
N731 H736 0.984 . S
N731 H737 0.985 . S
C732 C726 1.379 . S
C732 C729 1.363 . S
C732 N730 1.356 . S
C733 C727 1.363 . S
C733 C728 1.379 . S
C733 N731 1.356 . S
N734 C726 1.356 . S
N734 H740 0.984 . S
N734 H741 0.984 . S
N735 C728 1.356 . S
N735 H738 0.984 . S
N735 H739 0.985 . S
H736 N731 0.984 . S
H737 N731 0.985 . S
H738 N735 0.984 . S
H739 N735 0.985 . S
H740 N734 0.984 . S
H741 N734 0.984 . S
H742 N730 0.984 . S
H743 N730 0.985 . S
C744 C745 1.363 . S
C744 C750 1.379 1_565 S
C744 N752 1.356 . S
C745 C744 1.363 . S
C745 C751 1.363 . S
C746 C747 1.363 . S
C746 C751 1.379 1_545 S
C746 N753 1.356 . S
C747 C746 1.363 . S
C747 C750 1.363 . S
N748 C750 1.356 . S
N748 H760 0.984 . S
N748 H761 0.985 . S
N749 C751 1.356 . S
N749 H754 0.984 . S
N749 H755 0.985 . S
C750 C744 1.379 1_545 S
C750 C747 1.363 . S
C750 N748 1.356 . S
C751 C745 1.363 . S
C751 C746 1.379 1_565 S
C751 N749 1.356 . S
N752 C744 1.356 . S
N752 H758 0.984 . S
N752 H759 0.984 . S
N753 C746 1.356 . S
N753 H756 0.984 . S
N753 H757 0.985 . S
H754 N749 0.984 . S
H755 N749 0.985 . S
H756 N753 0.984 . S
H757 N753 0.985 . S
H758 N752 0.984 . S
H759 N752 0.984 . S
H760 N748 0.984 . S
H761 N748 0.985 . S
C762 C763 1.363 . S
C762 C768 1.379 . S
C762 N770 1.356 . S
C763 C762 1.363 . S
C763 C769 1.363 . S
C764 C765 1.363 . S
C764 C769 1.379 . S
C764 N771 1.356 . S
C765 C764 1.363 . S
C765 C768 1.363 . S
N766 C768 1.356 . S
N766 H778 0.984 . S
N766 H779 0.985 . S
N767 C769 1.356 . S
N767 H772 0.984 . S
N767 H773 0.985 . S
C768 C762 1.379 . S
C768 C765 1.363 . S
C768 N766 1.356 . S
C769 C763 1.363 . S
C769 C764 1.379 . S
C769 N767 1.356 . S
N770 C762 1.356 . S
N770 H776 0.984 . S
N770 H777 0.984 . S
N771 C764 1.356 . S
N771 H774 0.984 . S
N771 H775 0.985 . S
H772 N767 0.984 . S
H773 N767 0.985 . S
H774 N771 0.984 . S
H775 N771 0.985 . S
H776 N770 0.984 . S
H777 N770 0.984 . S
H778 N766 0.984 . S
H779 N766 0.985 . S
C780 C781 1.363 . S
C780 C786 1.379 1_565 S
C780 N788 1.356 . S
C781 C780 1.363 . S
C781 C787 1.363 . S
C782 C783 1.363 . S
C782 C787 1.379 1_545 S
C782 N789 1.356 . S
C783 C782 1.363 . S
C783 C786 1.363 . S
N784 C786 1.356 . S
N784 H796 0.984 . S
N784 H797 0.985 . S
N785 C787 1.356 . S
N785 H790 0.984 . S
N785 H791 0.985 . S
C786 C780 1.379 1_545 S
C786 C783 1.363 . S
C786 N784 1.356 . S
C787 C781 1.363 . S
C787 C782 1.379 1_565 S
C787 N785 1.356 . S
N788 C780 1.356 . S
N788 H794 0.984 . S
N788 H795 0.984 . S
N789 C782 1.356 . S
N789 H792 0.984 . S
N789 H793 0.985 . S
H790 N785 0.984 . S
H791 N785 0.985 . S
H792 N789 0.984 . S
H793 N789 0.985 . S
H794 N788 0.984 . S
H795 N788 0.984 . S
H796 N784 0.984 . S
H797 N784 0.985 . S
C798 C799 1.363 . S
C798 C804 1.379 . S
C798 N806 1.356 . S
C799 C798 1.363 . S
C799 C805 1.363 . S
C800 C801 1.363 . S
C800 C805 1.379 . S
C800 N807 1.356 . S
C801 C800 1.363 . S
C801 C804 1.363 . S
N802 C804 1.356 . S
N802 H814 0.984 . S
N802 H815 0.985 . S
N803 C805 1.356 . S
N803 H808 0.984 . S
N803 H809 0.985 . S
C804 C798 1.379 . S
C804 C801 1.363 . S
C804 N802 1.356 . S
C805 C799 1.363 . S
C805 C800 1.379 . S
C805 N803 1.356 . S
N806 C798 1.356 . S
N806 H812 0.984 . S
N806 H813 0.984 . S
N807 C800 1.356 . S
N807 H810 0.984 . S
N807 H811 0.985 . S
H808 N803 0.984 . S
H809 N803 0.985 . S
H810 N807 0.984 . S
H811 N807 0.985 . S
H812 N806 0.984 . S
H813 N806 0.984 . S
H814 N802 0.984 . S
H815 N802 0.985 . S
C816 C817 1.363 1_556 S
C816 C822 1.379 . S
C816 N824 1.356 . S
C817 C816 1.363 1_554 S
C817 C823 1.363 . S
C818 C819 1.363 . S
C818 C823 1.379 . S
C818 N825 1.356 . S
C819 C818 1.363 . S
C819 C822 1.363 1_554 S
N820 C822 1.356 . S
N820 H832 0.984 . S
N820 H833 0.985 . S
N821 C823 1.356 . S
N821 H826 0.984 . S
N821 H827 0.985 . S
C822 C816 1.379 . S
C822 C819 1.363 1_556 S
C822 N820 1.356 . S
C823 C817 1.363 . S
C823 C818 1.379 . S
C823 N821 1.356 . S
N824 C816 1.356 . S
N824 H830 0.984 . S
N824 H831 0.984 . S
N825 C818 1.356 . S
N825 H828 0.984 . S
N825 H829 0.985 . S
H826 N821 0.984 . S
H827 N821 0.985 . S
H828 N825 0.984 . S
H829 N825 0.985 . S
H830 N824 0.984 . S
H831 N824 0.984 . S
H832 N820 0.984 . S
H833 N820 0.985 . S
C834 C835 1.363 1_556 S
C834 C840 1.379 1_565 S
C834 N842 1.356 . S
C835 C834 1.363 1_554 S
C835 C841 1.363 . S
C836 C837 1.363 . S
C836 C841 1.379 1_545 S
C836 N843 1.356 . S
C837 C836 1.363 . S
C837 C840 1.363 1_554 S
N838 C840 1.356 . S
N838 H850 0.984 . S
N838 H851 0.985 . S
N839 C841 1.356 . S
N839 H844 0.984 . S
N839 H845 0.985 . S
C840 C834 1.379 1_545 S
C840 C837 1.363 1_556 S
C840 N838 1.356 . S
C841 C835 1.363 . S
C841 C836 1.379 1_565 S
C841 N839 1.356 . S
N842 C834 1.356 . S
N842 H848 0.984 . S
N842 H849 0.984 . S
N843 C836 1.356 . S
N843 H846 0.984 . S
N843 H847 0.985 . S
H844 N839 0.984 . S
H845 N839 0.985 . S
H846 N843 0.984 . S
H847 N843 0.985 . S
H848 N842 0.984 . S
H849 N842 0.984 . S
H850 N838 0.984 . S
H851 N838 0.985 . S
C852 C853 1.363 1_554 S
C852 C858 1.379 . S
C852 N860 1.356 . S
C853 C852 1.363 1_556 S
C853 C859 1.363 . S
C854 C855 1.363 . S
C854 C859 1.379 . S
C854 N861 1.356 . S
C855 C854 1.363 . S
C855 C858 1.363 1_556 S
N856 C858 1.356 . S
N856 H868 0.984 . S
N856 H869 0.985 . S
N857 C859 1.356 . S
N857 H862 0.984 . S
N857 H863 0.985 . S
C858 C852 1.379 . S
C858 C855 1.363 1_554 S
C858 N856 1.356 . S
C859 C853 1.363 . S
C859 C854 1.379 . S
C859 N857 1.356 . S
N860 C852 1.356 . S
N860 H866 0.984 . S
N860 H867 0.984 . S
N861 C854 1.356 . S
N861 H864 0.984 . S
N861 H865 0.985 . S
H862 N857 0.984 . S
H863 N857 0.985 . S
H864 N861 0.984 . S
H865 N861 0.985 . S
H866 N860 0.984 . S
H867 N860 0.984 . S
H868 N856 0.984 . S
H869 N856 0.985 . S
C870 C871 1.363 1_554 S
C870 C876 1.379 1_545 S
C870 N878 1.356 . S
C871 C870 1.363 1_556 S
C871 C877 1.363 . S
C872 C873 1.363 . S
C872 C877 1.379 1_565 S
C872 N879 1.356 . S
C873 C872 1.363 . S
C873 C876 1.363 1_556 S
N874 C876 1.356 . S
N874 H886 0.984 . S
N874 H887 0.985 . S
N875 C877 1.356 . S
N875 H880 0.984 . S
N875 H881 0.985 . S
C876 C870 1.379 1_565 S
C876 C873 1.363 1_554 S
C876 N874 1.356 . S
C877 C871 1.363 . S
C877 C872 1.379 1_545 S
C877 N875 1.356 . S
N878 C870 1.356 . S
N878 H884 0.984 . S
N878 H885 0.984 . S
N879 C872 1.356 . S
N879 H882 0.984 . S
N879 H883 0.985 . S
H880 N875 0.984 . S
H881 N875 0.985 . S
H882 N879 0.984 . S
H883 N879 0.985 . S
H884 N878 0.984 . S
H885 N878 0.984 . S
H886 N874 0.984 . S
H887 N874 0.985 . S
C888 C889 1.363 1_556 S
C888 C894 1.379 . S
C888 N896 1.356 1_556 S
C889 C888 1.363 1_554 S
C889 C895 1.363 . S
C890 C891 1.363 . S
C890 C895 1.379 1_556 S
C890 N897 1.356 . S
C891 C890 1.363 . S
C891 C894 1.363 . S
N892 C894 1.356 . S
N892 H904 0.984 . S
N892 H905 0.985 . S
N893 C895 1.356 . S
N893 H898 0.984 . S
N893 H899 0.985 . S
C894 C888 1.379 . S
C894 C891 1.363 . S
C894 N892 1.356 . S
C895 C889 1.363 . S
C895 C890 1.379 1_554 S
C895 N893 1.356 . S
N896 C888 1.356 1_554 S
N896 H902 0.984 1_554 S
N896 H903 0.984 . S
N897 C890 1.356 . S
N897 H900 0.984 . S
N897 H901 0.985 . S
H898 N893 0.984 . S
H899 N893 0.985 . S
H900 N897 0.984 . S
H901 N897 0.985 . S
H902 N896 0.984 1_556 S
H903 N896 0.984 . S
H904 N892 0.984 . S
H905 N892 0.985 . S
C906 C907 1.363 1_556 S
C906 C912 1.379 . S
C906 N914 1.356 1_556 S
C907 C906 1.363 1_554 S
C907 C913 1.363 . S
C908 C909 1.363 . S
C908 C913 1.379 1_556 S
C908 N915 1.356 . S
C909 C908 1.363 . S
C909 C912 1.363 . S
N910 C912 1.356 . S
N910 H922 0.984 . S
N910 H923 0.985 . S
N911 C913 1.356 . S
N911 H916 0.984 . S
N911 H917 0.985 . S
C912 C906 1.379 . S
C912 C909 1.363 . S
C912 N910 1.356 . S
C913 C907 1.363 . S
C913 C908 1.379 1_554 S
C913 N911 1.356 . S
N914 C906 1.356 1_554 S
N914 H920 0.984 1_554 S
N914 H921 0.984 . S
N915 C908 1.356 . S
N915 H918 0.984 . S
N915 H919 0.985 . S
H916 N911 0.984 . S
H917 N911 0.985 . S
H918 N915 0.984 . S
H919 N915 0.985 . S
H920 N914 0.984 1_556 S
H921 N914 0.984 . S
H922 N910 0.984 . S
H923 N910 0.985 . S
C924 C925 1.363 . S
C924 C930 1.379 . S
C924 N932 1.356 . S
C925 C924 1.363 . S
C925 C931 1.363 . S
C926 C927 1.363 . S
C926 C931 1.379 1_556 S
C926 N933 1.356 . S
C927 C926 1.363 . S
C927 C930 1.363 1_556 S
N928 C930 1.356 1_556 S
N928 H940 0.984 1_556 S
N928 H941 0.985 . S
N929 C931 1.356 . S
N929 H934 0.984 . S
N929 H935 0.985 . S
C930 C924 1.379 . S
C930 C927 1.363 1_554 S
C930 N928 1.356 1_554 S
C931 C925 1.363 . S
C931 C926 1.379 1_554 S
C931 N929 1.356 . S
N932 C924 1.356 . S
N932 H938 0.984 . S
N932 H939 0.984 . S
N933 C926 1.356 . S
N933 H936 0.984 . S
N933 H937 0.985 . S
H934 N929 0.984 . S
H935 N929 0.985 . S
H936 N933 0.984 . S
H937 N933 0.985 . S
H938 N932 0.984 . S
H939 N932 0.984 . S
H940 N928 0.984 1_554 S
H941 N928 0.985 . S
C942 C943 1.367 . S
C942 C948 1.371 1_556 S
C942 N950 1.362 . S
C943 C942 1.367 . S
C943 C949 1.363 1_556 S
C944 C945 1.363 . S
C944 C949 1.379 . S
C944 N951 1.356 . S
C945 C944 1.363 . S
C945 C948 1.363 . S
N946 C948 1.356 . S
N946 H958 0.984 . S
N946 H959 0.985 . S
N947 C949 1.356 1_556 S
N947 H952 0.984 . S
N947 H953 0.985 . S
C948 C942 1.371 1_554 S
C948 C945 1.363 . S
C948 N946 1.356 . S
C949 C943 1.363 1_554 S
C949 C944 1.379 . S
C949 N947 1.356 1_554 S
N950 C942 1.362 . S
N950 H956 0.984 . S
N950 H957 0.984 . S
N951 C944 1.356 . S
N951 H954 0.984 . S
N951 H955 0.985 . S
H952 N947 0.984 . S
H953 N947 0.985 . S
H954 N951 0.984 . S
H955 N951 0.985 . S
H956 N950 0.984 . S
H957 N950 0.984 . S
H958 N946 0.984 . S
H959 N946 0.985 . S
C960 C961 1.363 . S
C960 C966 1.379 . S
C960 N968 1.356 . S
C961 C960 1.363 . S
C961 C967 1.363 . S
C962 C963 1.363 . S
C962 C967 1.379 . S
C962 N969 1.356 . S
C963 C962 1.363 . S
C963 C966 1.363 . S
N964 C966 1.356 . S
N964 H976 0.984 . S
N964 H977 0.985 . S
N965 C967 1.356 . S
N965 H970 0.984 . S
N965 H971 0.985 . S
C966 C960 1.379 . S
C966 C963 1.363 . S
C966 N964 1.356 . S
C967 C961 1.363 . S
C967 C962 1.379 . S
C967 N965 1.356 . S
N968 C960 1.356 . S
N968 H974 0.984 . S
N968 H975 0.984 . S
N969 C962 1.356 . S
N969 H972 0.984 . S
N969 H973 0.985 . S
H970 N965 0.984 . S
H971 N965 0.985 . S
H972 N969 0.984 . S
H973 N969 0.985 . S
H974 N968 0.984 . S
H975 N968 0.984 . S
H976 N964 0.984 . S
H977 N964 0.985 . S
C978 C979 1.363 . S
C978 C984 1.379 . S
C978 N986 1.356 . S
C979 C978 1.363 . S
C979 C985 1.363 . S
C980 C981 1.363 . S
C980 C985 1.379 . S
C980 N987 1.356 . S
C981 C980 1.363 . S
C981 C984 1.363 . S
N982 C984 1.356 . S
N982 H994 0.984 . S
N982 H995 0.985 . S
N983 C985 1.356 . S
N983 H988 0.984 . S
N983 H989 0.985 . S
C984 C978 1.379 . S
C984 C981 1.363 . S
C984 N982 1.356 . S
C985 C979 1.363 . S
C985 C980 1.379 . S
C985 N983 1.356 . S
N986 C978 1.356 . S
N986 H992 0.984 . S
N986 H993 0.984 . S
N987 C980 1.356 . S
N987 H990 0.984 . S
N987 H991 0.985 . S
H988 N983 0.984 . S
H989 N983 0.985 . S
H990 N987 0.984 . S
H991 N987 0.985 . S
H992 N986 0.984 . S
H993 N986 0.984 . S
H994 N982 0.984 . S
H995 N982 0.985 . S
C996 C997 1.363 . S
C996 C1002 1.379 . S
C996 N1004 1.356 . S
C997 C996 1.363 . S
C997 C1003 1.363 . S
C998 C999 1.363 . S
C998 C1003 1.379 . S
C998 N1005 1.356 . S
C999 C998 1.363 . S
C999 C1002 1.363 . S
N1000 C1002 1.356 . S
N1000 H1012 0.984 . S
N1000 H1013 0.985 . S
N1001 C1003 1.356 . S
N1001 H1006 0.984 . S
N1001 H1007 0.985 . S
C1002 C996 1.379 . S
C1002 C999 1.363 . S
C1002 N1000 1.356 . S
C1003 C997 1.363 . S
C1003 C998 1.379 . S
C1003 N1001 1.356 . S
N1004 C996 1.356 . S
N1004 H1010 0.984 . S
N1004 H1011 0.984 . S
N1005 C998 1.356 . S
N1005 H1008 0.984 . S
N1005 H1009 0.985 . S
H1006 N1001 0.984 . S
H1007 N1001 0.985 . S
H1008 N1005 0.984 . S
H1009 N1005 0.985 . S
H1010 N1004 0.984 . S
H1011 N1004 0.984 . S
H1012 N1000 0.984 . S
H1013 N1000 0.985 . S
C1014 C1015 1.363 . S
C1014 C1020 1.379 . S
C1014 N1022 1.356 . S
C1015 C1014 1.363 . S
C1015 C1021 1.363 . S
C1016 C1017 1.363 . S
C1016 C1021 1.379 . S
C1016 N1023 1.356 . S
C1017 C1016 1.363 . S
C1017 C1020 1.363 . S
N1018 C1020 1.356 . S
N1018 H1030 0.984 . S
N1018 H1031 0.985 . S
N1019 C1021 1.356 . S
N1019 H1024 0.984 . S
N1019 H1025 0.985 . S
C1020 C1014 1.379 . S
C1020 C1017 1.363 . S
C1020 N1018 1.356 . S
C1021 C1015 1.363 . S
C1021 C1016 1.379 . S
C1021 N1019 1.356 . S
N1022 C1014 1.356 . S
N1022 H1028 0.984 . S
N1022 H1029 0.984 . S
N1023 C1016 1.356 . S
N1023 H1026 0.984 . S
N1023 H1027 0.985 . S
H1024 N1019 0.984 . S
H1025 N1019 0.985 . S
H1026 N1023 0.984 . S
H1027 N1023 0.985 . S
H1028 N1022 0.984 . S
H1029 N1022 0.984 . S
H1030 N1018 0.984 . S
H1031 N1018 0.985 . S
C1032 C1033 1.363 . S
C1032 C1038 1.379 1_455 S
C1032 N1040 1.356 . S
C1033 C1032 1.363 . S
C1033 C1039 1.363 . S
C1034 C1035 1.363 . S
C1034 C1039 1.379 1_655 S
C1034 N1041 1.356 . S
C1035 C1034 1.363 . S
C1035 C1038 1.363 . S
N1036 C1038 1.356 . S
N1036 H1048 0.984 1_554 S
N1036 H1049 0.985 . S
N1037 C1039 1.356 . S
N1037 H1042 0.984 . S
N1037 H1043 0.985 . S
C1038 C1032 1.379 1_655 S
C1038 C1035 1.363 . S
C1038 N1036 1.356 . S
C1039 C1033 1.363 . S
C1039 C1034 1.379 1_455 S
C1039 N1037 1.356 . S
N1040 C1032 1.356 . S
N1040 H1046 0.984 1_554 S
N1040 H1047 0.984 . S
N1041 C1034 1.356 . S
N1041 H1044 0.984 . S
N1041 H1045 0.985 . S
H1042 N1037 0.984 . S
H1043 N1037 0.985 . S
H1044 N1041 0.984 . S
H1045 N1041 0.985 . S
H1046 N1040 0.984 1_556 S
H1047 N1040 0.984 . S
H1048 N1036 0.984 1_556 S
H1049 N1036 0.985 . S
C1050 C1051 1.363 . S
C1050 C1056 1.379 1_655 S
C1050 N1058 1.356 . S
C1051 C1050 1.363 . S
C1051 C1057 1.363 . S
C1052 C1053 1.363 . S
C1052 C1057 1.379 1_455 S
C1052 N1059 1.356 . S
C1053 C1052 1.363 . S
C1053 C1056 1.363 . S
N1054 C1056 1.356 . S
N1054 H1066 0.984 . S
N1054 H1067 0.985 . S
N1055 C1057 1.356 . S
N1055 H1060 0.984 . S
N1055 H1061 0.985 1_556 S
C1056 C1050 1.379 1_455 S
C1056 C1053 1.363 . S
C1056 N1054 1.356 . S
C1057 C1051 1.363 . S
C1057 C1052 1.379 1_655 S
C1057 N1055 1.356 . S
N1058 C1050 1.356 . S
N1058 H1064 0.984 . S
N1058 H1065 0.984 . S
N1059 C1052 1.356 . S
N1059 H1062 0.984 . S
N1059 H1063 0.985 1_556 S
H1060 N1055 0.984 . S
H1061 N1055 0.985 1_554 S
H1062 N1059 0.984 . S
H1063 N1059 0.985 1_554 S
H1064 N1058 0.984 . S
H1065 N1058 0.984 . S
H1066 N1054 0.984 . S
H1067 N1054 0.985 . S
C1068 C1069 1.363 . S
C1068 C1074 1.379 . S
C1068 N1076 1.356 . S
C1069 C1068 1.363 . S
C1069 C1075 1.363 . S
C1070 C1071 1.363 . S
C1070 C1075 1.379 . S
C1070 N1077 1.356 . S
C1071 C1070 1.363 . S
C1071 C1074 1.363 . S
N1072 C1074 1.356 . S
N1072 H1084 0.984 . S
N1072 H1085 0.985 . S
N1073 C1075 1.356 . S
N1073 H1078 0.984 . S
N1073 H1079 0.985 . S
C1074 C1068 1.379 . S
C1074 C1071 1.363 . S
C1074 N1072 1.356 . S
C1075 C1069 1.363 . S
C1075 C1070 1.379 . S
C1075 N1073 1.356 . S
N1076 C1068 1.356 . S
N1076 H1082 0.984 . S
N1076 H1083 0.984 . S
N1077 C1070 1.356 . S
N1077 H1080 0.984 . S
N1077 H1081 0.985 . S
H1078 N1073 0.984 . S
H1079 N1073 0.985 . S
H1080 N1077 0.984 . S
H1081 N1077 0.985 . S
H1082 N1076 0.984 . S
H1083 N1076 0.984 . S
H1084 N1072 0.984 . S
H1085 N1072 0.985 . S
C1086 C1087 1.363 . S
C1086 C1092 1.379 . S
C1086 N1094 1.356 . S
C1087 C1086 1.363 . S
C1087 C1093 1.363 . S
C1088 C1089 1.363 . S
C1088 C1093 1.379 . S
C1088 N1095 1.356 . S
C1089 C1088 1.363 . S
C1089 C1092 1.363 . S
N1090 C1092 1.356 . S
N1090 H1102 0.984 . S
N1090 H1103 0.985 . S
N1091 C1093 1.356 . S
N1091 H1096 0.984 . S
N1091 H1097 0.985 . S
C1092 C1086 1.379 . S
C1092 C1089 1.363 . S
C1092 N1090 1.356 . S
C1093 C1087 1.363 . S
C1093 C1088 1.379 . S
C1093 N1091 1.356 . S
N1094 C1086 1.356 . S
N1094 H1100 0.984 . S
N1094 H1101 0.984 . S
N1095 C1088 1.356 . S
N1095 H1098 0.984 . S
N1095 H1099 0.985 . S
H1096 N1091 0.984 . S
H1097 N1091 0.985 . S
H1098 N1095 0.984 . S
H1099 N1095 0.985 . S
H1100 N1094 0.984 . S
H1101 N1094 0.984 . S
H1102 N1090 0.984 . S
H1103 N1090 0.985 . S
C673 C63 1.432 . S
C675 C660 1.431 . S
C691 C576 1.432 . S
C693 C147 1.431 . S
C709 C483 1.432 . S
C711 C240 1.431 . S
C727 C399 1.432 . S
C729 C324 1.431 . S
C745 C243 1.497 . S
C747 C75 1.614 . S
C763 C159 1.614 . S
C765 C327 1.497 . S
C781 C318 1.614 . S
C783 C150 1.497 . S
C799 C234 1.614 . S
C801 C66 1.497 . S
C817 C411 1.469 . S
C819 C579 1.470 . S
C835 C495 1.469 . S
C837 C663 1.470 . S
C853 C654 1.469 . S
C855 C486 1.470 . S
C871 C570 1.469 . S
C873 C402 1.470 . S
C889 C67 1.928 . S
C891 C56 1.928 . S
C907 C151 1.928 . S
C909 C140 1.928 . S
C925 C235 1.928 . S
C927 C224 1.928 . S
C943 C308 1.928 . S
C945 C319 1.928 . S
C961 C392 1.928 . S
C963 C403 1.928 . S
C979 C487 1.928 . S
C981 C476 1.928 . S
C997 C560 1.928 . S
C999 C571 1.928 . S
C1015 C644 1.928 . S
C1017 C655 1.928 . S
C1033 C72 1.701 . S
C1035 C156 1.701 . S
C1051 C315 1.701 . S
C1053 C231 1.701 . S
C1069 C408 1.702 . S
C1071 C492 1.702 . S
C1087 C651 1.702 . S
C1089 C567 1.702 . S
