# Generated by pormake.
# Topology cag, (4)-cn, num edge types: 1
# Building blocks:
#     Node 0, Type 0, BuildingBlock: QUQFOY_clean_sbu_3, # of connection points: 4
#     Node 1, Type 0, BuildingBlock: QUQFOY_clean_sbu_3, # of connection points: 4
#     Node 2, Type 0, BuildingBlock: QUQFOY_clean_sbu_3, # of connection points: 4
#     Node 3, Type 0, BuildingBlock: QUQFOY_clean_sbu_3, # of connection points: 4
#     Node 4, Type 0, BuildingBlock: QUQFOY_clean_sbu_3, # of connection points: 4
#     Node 5, Type 0, BuildingBlock: QUQFOY_clean_sbu_3, # of connection points: 4
#     Node 6, Type 0, BuildingBlock: QUQFOY_clean_sbu_3, # of connection points: 4
#     Node 7, Type 0, BuildingBlock: QUQFOY_clean_sbu_3, # of connection points: 4
#     Node 8, Type 0, BuildingBlock: QUQFOY_clean_sbu_3, # of connection points: 4
#     Node 9, Type 0, BuildingBlock: QUQFOY_clean_sbu_3, # of connection points: 4
#     Node 10, Type 0, BuildingBlock: QUQFOY_clean_sbu_3, # of connection points: 4
#     Node 11, Type 0, BuildingBlock: QUQFOY_clean_sbu_3, # of connection points: 4
#     Node 12, Type 0, BuildingBlock: QUQFOY_clean_sbu_3, # of connection points: 4
#     Node 13, Type 0, BuildingBlock: QUQFOY_clean_sbu_3, # of connection points: 4
#     Node 14, Type 0, BuildingBlock: QUQFOY_clean_sbu_3, # of connection points: 4
#     Node 15, Type 0, BuildingBlock: QUQFOY_clean_sbu_3, # of connection points: 4
#     Edge 16, Type (0, 0), BuildingBlock: ZUJKAS_clean_linker_0, # of connection points: 2
#     Edge 17, Type (0, 0), BuildingBlock: ZUJKAS_clean_linker_0, # of connection points: 2
#     Edge 18, Type (0, 0), BuildingBlock: ZUJKAS_clean_linker_0, # of connection points: 2
#     Edge 19, Type (0, 0), BuildingBlock: ZUJKAS_clean_linker_0, # of connection points: 2
#     Edge 20, Type (0, 0), BuildingBlock: ZUJKAS_clean_linker_0, # of connection points: 2
#     Edge 21, Type (0, 0), BuildingBlock: ZUJKAS_clean_linker_0, # of connection points: 2
#     Edge 22, Type (0, 0), BuildingBlock: ZUJKAS_clean_linker_0, # of connection points: 2
#     Edge 23, Type (0, 0), BuildingBlock: ZUJKAS_clean_linker_0, # of connection points: 2
#     Edge 24, Type (0, 0), BuildingBlock: ZUJKAS_clean_linker_0, # of connection points: 2
#     Edge 25, Type (0, 0), BuildingBlock: ZUJKAS_clean_linker_0, # of connection points: 2
#     Edge 26, Type (0, 0), BuildingBlock: ZUJKAS_clean_linker_0, # of connection points: 2
#     Edge 27, Type (0, 0), BuildingBlock: ZUJKAS_clean_linker_0, # of connection points: 2
#     Edge 28, Type (0, 0), BuildingBlock: ZUJKAS_clean_linker_0, # of connection points: 2
#     Edge 29, Type (0, 0), BuildingBlock: ZUJKAS_clean_linker_0, # of connection points: 2
#     Edge 30, Type (0, 0), BuildingBlock: ZUJKAS_clean_linker_0, # of connection points: 2
#     Edge 31, Type (0, 0), BuildingBlock: ZUJKAS_clean_linker_0, # of connection points: 2
#     Edge 32, Type (0, 0), BuildingBlock: ZUJKAS_clean_linker_0, # of connection points: 2
#     Edge 33, Type (0, 0), BuildingBlock: ZUJKAS_clean_linker_0, # of connection points: 2
#     Edge 34, Type (0, 0), BuildingBlock: ZUJKAS_clean_linker_0, # of connection points: 2
#     Edge 35, Type (0, 0), BuildingBlock: ZUJKAS_clean_linker_0, # of connection points: 2
#     Edge 36, Type (0, 0), BuildingBlock: ZUJKAS_clean_linker_0, # of connection points: 2
#     Edge 37, Type (0, 0), BuildingBlock: ZUJKAS_clean_linker_0, # of connection points: 2
#     Edge 38, Type (0, 0), BuildingBlock: ZUJKAS_clean_linker_0, # of connection points: 2
#     Edge 39, Type (0, 0), BuildingBlock: ZUJKAS_clean_linker_0, # of connection points: 2
#     Edge 40, Type (0, 0), BuildingBlock: ZUJKAS_clean_linker_0, # of connection points: 2
#     Edge 41, Type (0, 0), BuildingBlock: ZUJKAS_clean_linker_0, # of connection points: 2
#     Edge 42, Type (0, 0), BuildingBlock: ZUJKAS_clean_linker_0, # of connection points: 2
#     Edge 43, Type (0, 0), BuildingBlock: ZUJKAS_clean_linker_0, # of connection points: 2
#     Edge 44, Type (0, 0), BuildingBlock: ZUJKAS_clean_linker_0, # of connection points: 2
#     Edge 45, Type (0, 0), BuildingBlock: ZUJKAS_clean_linker_0, # of connection points: 2
#     Edge 46, Type (0, 0), BuildingBlock: ZUJKAS_clean_linker_0, # of connection points: 2
#     Edge 47, Type (0, 0), BuildingBlock: ZUJKAS_clean_linker_0, # of connection points: 2
# Relax obj value: 0.109
# Max RMSD: 0.143
# Mean RMSD: 0.143
data_MOF--net-cag--node1-QUQFOY_clean_sbu_3--edge1-ZUJKAS_clean_linker_0
_symmetry_space_group_name_H-M    P1
_symmetry_Int_Tables_number       1
_symmetry_cell_setting            triclinic
loop_
_symmetry_equiv_pos_as_xyz
'x, y, z'
_cell_length_a     57.74518
_cell_length_b     65.345018
_cell_length_c     54.717813
_cell_angle_alpha  90.00535
_cell_angle_beta   89.948156
_cell_angle_gamma 90.063998
loop_
_atom_site_label
_atom_site_type_symbol
_atom_site_fract_x
_atom_site_fract_y
_atom_site_fract_z
_atom_type_partial_charge
C0 C 0.33673 0.14645 0.05367 0.0
O1 O 0.33307 0.15163 0.03164 0.0
Cd2 Cd 0.29501 0.15214 0.01416 0.0
O3 O 0.31985 0.14217 0.0678 0.0
Cd4 Cd 0.27691 0.1412 0.06752 0.0
C5 C 0.27828 0.10267 0.0261 0.0
O6 O 0.27164 0.17142 0.04229 0.0
O7 O 0.24068 0.15402 0.0498 0.0
O8 O 0.28037 0.15464 0.10886 0.0
C9 C 0.24985 0.16979 0.04039 0.0
O10 O 0.28421 0.11597 0.01027 0.0
C11 C 0.26617 0.14212 0.11838 0.0
O12 O 0.27538 0.10769 0.04836 0.0
O13 O 0.25675 0.1292 0.10415 0.0
C14 C 0.15166 0.84309 0.55241 0.0
O15 O 0.15597 0.83848 0.53032 0.0
Cd16 Cd 0.19462 0.83621 0.51413 0.0
O17 O 0.16811 0.84616 0.56748 0.0
Cd18 Cd 0.21094 0.8457 0.56872 0.0
C19 C 0.21371 0.88456 0.52757 0.0
O20 O 0.21601 0.81589 0.5428 0.0
O21 O 0.24733 0.83216 0.55205 0.0
O22 O 0.20789 0.83108 0.60961 0.0
C23 C 0.2379 0.81692 0.54171 0.0
O24 O 0.20835 0.87163 0.51108 0.0
C25 C 0.2205 0.84454 0.61979 0.0
O26 O 0.21461 0.87926 0.54992 0.0
O27 O 0.22883 0.85842 0.6061 0.0
C28 C 0.33696 0.84262 0.94014 0.0
O29 O 0.33395 0.83867 0.96265 0.0
Cd30 Cd 0.29636 0.83974 0.9815 0.0
O31 O 0.31972 0.84654 0.92642 0.0
Cd32 Cd 0.27697 0.84868 0.9284 0.0
C33 C 0.28032 0.88884 0.96757 0.0
O34 O 0.27109 0.81985 0.9558 0.0
O35 O 0.24073 0.83792 0.94783 0.0
O36 O 0.2764 0.8325 0.88828 0.0
C37 C 0.24941 0.82229 0.95803 0.0
O38 O 0.28649 0.87616 0.98399 0.0
C39 C 0.26444 0.84637 0.8781 0.0
O40 O 0.27669 0.8829 0.94577 0.0
O41 O 0.25805 0.86124 0.89144 0.0
C42 C 0.15502 0.13787 0.44253 0.0
O43 O 0.15822 0.14219 0.46491 0.0
Cd44 Cd 0.19636 0.14515 0.48212 0.0
O45 O 0.17221 0.13554 0.4282 0.0
Cd46 Cd 0.21501 0.13735 0.42841 0.0
C47 C 0.21772 0.09766 0.46825 0.0
O48 O 0.21706 0.16733 0.45458 0.0
O49 O 0.24981 0.15317 0.44605 0.0
O50 O 0.20943 0.15083 0.38737 0.0
C51 C 0.23894 0.1678 0.45604 0.0
O52 O 0.21109 0.11002 0.48483 0.0
C53 C 0.2249 0.13983 0.37744 0.0
O54 O 0.21949 0.10354 0.44617 0.0
O55 O 0.23611 0.12783 0.39134 0.0
C56 C 0.57152 0.87297 0.86426 0.0
O57 O 0.57646 0.88668 0.84864 0.0
Cd58 Cd 0.61533 0.89908 0.84253 0.0
O59 O 0.58743 0.86476 0.87702 0.0
Cd60 Cd 0.6299 0.86684 0.88163 0.0
C61 C 0.62743 0.91647 0.89978 0.0
O62 O 0.6402 0.86964 0.83831 0.0
O63 O 0.66791 0.87423 0.86417 0.0
O64 O 0.63057 0.8299 0.88932 0.0
C65 C 0.66166 0.87225 0.84211 0.0
O66 O 0.62412 0.92128 0.87751 0.0
C67 C 0.64144 0.83139 0.90942 0.0
O68 O 0.62878 0.89779 0.9061 0.0
O69 O 0.64674 0.8493 0.91646 0.0
C70 C 0.91987 0.11444 0.36371 0.0
O71 O 0.91408 0.10149 0.34751 0.0
Cd72 Cd 0.8743 0.09177 0.34059 0.0
O73 O 0.90447 0.12337 0.37649 0.0
Cd74 Cd 0.86199 0.12419 0.38068 0.0
C75 C 0.86031 0.0742 0.39737 0.0
O76 O 0.85142 0.1225 0.33733 0.0
O77 O 0.82358 0.11911 0.3634 0.0
O78 O 0.86394 0.16106 0.38842 0.0
C79 C 0.82984 0.12092 0.3413 0.0
O80 O 0.86343 0.06968 0.37497 0.0
C81 C 0.85329 0.16015 0.40871 0.0
O82 O 0.86043 0.09277 0.40433 0.0
O83 O 0.84694 0.14254 0.41589 0.0
C84 C 0.5723 0.11197 0.12479 0.0
O85 O 0.57713 0.09795 0.14002 0.0
Cd86 Cd 0.61616 0.08583 0.14565 0.0
O87 O 0.58833 0.12051 0.11246 0.0
Cd88 Cd 0.63079 0.11863 0.10816 0.0
C89 C 0.62825 0.06961 0.08802 0.0
O90 O 0.64113 0.11518 0.15145 0.0
O91 O 0.66868 0.11071 0.12529 0.0
O92 O 0.63156 0.15576 0.10188 0.0
C93 C 0.66259 0.11275 0.14741 0.0
O94 O 0.62496 0.06424 0.11012 0.0
C95 C 0.64262 0.15482 0.08183 0.0
O96 O 0.62964 0.08844 0.08239 0.0
O97 O 0.64792 0.13711 0.07413 0.0
C98 C 0.91506 0.88058 0.61931 0.0
O99 O 0.90996 0.8944 0.63471 0.0
Cd100 Cd 0.8705 0.90512 0.64126 0.0
O101 O 0.89915 0.87144 0.60747 0.0
Cd102 Cd 0.85657 0.8713 0.6044 0.0
C103 C 0.85591 0.92014 0.58368 0.0
O104 O 0.84706 0.87498 0.64789 0.0
O105 O 0.8187 0.87781 0.6224 0.0
O106 O 0.85807 0.83411 0.59955 0.0
C107 C 0.82541 0.87653 0.64439 0.0
O108 O 0.85972 0.92574 0.6056 0.0
C109 C 0.84678 0.83389 0.57964 0.0
O110 O 0.85523 0.90124 0.57819 0.0
O111 O 0.84023 0.85107 0.57131 0.0
C112 C 0.83058 0.64154 0.05235 0.0
O113 O 0.82612 0.64645 0.03039 0.0
Cd114 Cd 0.78727 0.64829 0.01498 0.0
O115 O 0.81423 0.63802 0.06743 0.0
Cd116 Cd 0.77136 0.63804 0.06952 0.0
C117 C 0.76911 0.59945 0.02817 0.0
O118 O 0.76654 0.66836 0.04451 0.0
O119 O 0.73499 0.65245 0.05373 0.0
O120 O 0.77801 0.65105 0.1106 0.0
C121 C 0.74463 0.66774 0.0437 0.0
O122 O 0.77432 0.61263 0.01191 0.0
C123 C 0.76345 0.63934 0.12094 0.0
O124 O 0.768 0.60449 0.0506 0.0
O125 O 0.7523 0.62709 0.10728 0.0
C126 C 0.64988 0.33605 0.54751 0.0
O127 O 0.65484 0.3324 0.52531 0.0
Cd128 Cd 0.69371 0.33417 0.50956 0.0
O129 O 0.6658 0.34033 0.56279 0.0
Cd130 Cd 0.70842 0.344 0.56434 0.0
C131 C 0.70684 0.3837 0.52423 0.0
O132 O 0.71737 0.31529 0.53778 0.0
O133 O 0.74642 0.33425 0.54797 0.0
O134 O 0.70718 0.32881 0.6051 0.0
C135 C 0.73903 0.31838 0.53716 0.0
O136 O 0.7031 0.37075 0.50729 0.0
C137 C 0.71804 0.34335 0.61542 0.0
O138 O 0.70827 0.37798 0.54639 0.0
O139 O 0.72454 0.35806 0.6019 0.0
C140 C 0.83585 0.34364 0.93758 0.0
O141 O 0.83212 0.33961 0.95994 0.0
Cd142 Cd 0.79397 0.33864 0.97749 0.0
O143 O 0.819 0.34689 0.92307 0.0
Cd144 Cd 0.77609 0.34749 0.92387 0.0
C145 C 0.77563 0.38709 0.96405 0.0
O146 O 0.77107 0.31796 0.95036 0.0
O147 O 0.73996 0.33491 0.94227 0.0
O148 O 0.77718 0.33219 0.88323 0.0
C149 C 0.74926 0.31942 0.95216 0.0
O150 O 0.78133 0.37436 0.98059 0.0
C151 C 0.76443 0.34563 0.87328 0.0
O152 O 0.77378 0.38142 0.94189 0.0
O153 O 0.75696 0.35987 0.88696 0.0
C154 C 0.65311 0.64548 0.44416 0.0
O155 O 0.65655 0.64911 0.46667 0.0
Cd156 Cd 0.69456 0.64793 0.48449 0.0
O157 O 0.67007 0.64161 0.43 0.0
Cd158 Cd 0.7128 0.6389 0.4309 0.0
C159 C 0.70947 0.59869 0.46992 0.0
O160 O 0.71883 0.66797 0.45789 0.0
O161 O 0.74929 0.65023 0.44948 0.0
O162 O 0.71036 0.65345 0.38997 0.0
C163 C 0.74057 0.66583 0.4597 0.0
O164 O 0.70445 0.61147 0.48668 0.0
C165 C 0.72442 0.6409 0.3803 0.0
O166 O 0.71225 0.6046 0.44797 0.0
O167 O 0.73328 0.62751 0.39427 0.0
C168 C 0.07179 0.37436 0.86424 0.0
O169 O 0.07672 0.38807 0.84863 0.0
Cd170 Cd 0.11569 0.40044 0.84264 0.0
O171 O 0.08774 0.36607 0.87687 0.0
Cd172 Cd 0.13022 0.368 0.88133 0.0
C173 C 0.12753 0.4174 0.90012 0.0
O174 O 0.14116 0.37141 0.83815 0.0
O175 O 0.16828 0.37606 0.86472 0.0
O176 O 0.13144 0.33094 0.88815 0.0
C177 C 0.16251 0.37425 0.84249 0.0
O178 O 0.12431 0.42235 0.87788 0.0
C179 C 0.14196 0.33225 0.90847 0.0
O180 O 0.12889 0.39868 0.90628 0.0
O181 O 0.14675 0.35012 0.91605 0.0
C182 C 0.41965 0.61966 0.36161 0.0
O183 O 0.41584 0.60743 0.34406 0.0
Cd184 Cd 0.3778 0.59406 0.33715 0.0
O185 O 0.40292 0.6261 0.37468 0.0
Cd186 Cd 0.36011 0.62295 0.37614 0.0
C187 C 0.36457 0.57359 0.39281 0.0
O188 O 0.35081 0.62228 0.33247 0.0
O189 O 0.32394 0.612 0.35712 0.0
O190 O 0.35688 0.65971 0.38415 0.0
C191 C 0.3298 0.61726 0.3357 0.0
O192 O 0.3705 0.56987 0.37085 0.0
C193 C 0.34558 0.65762 0.40391 0.0
O194 O 0.36053 0.59178 0.39976 0.0
O195 O 0.34105 0.63946 0.4106 0.0
C196 C 0.06799 0.6133 0.12198 0.0
O197 O 0.07314 0.60025 0.13825 0.0
Cd198 Cd 0.11257 0.58948 0.14377 0.0
O199 O 0.08388 0.6216 0.10923 0.0
Cd200 Cd 0.12655 0.62071 0.10617 0.0
C201 C 0.12495 0.57196 0.08667 0.0
O202 O 0.13729 0.61912 0.14936 0.0
O203 O 0.16388 0.61058 0.12348 0.0
O204 O 0.127 0.65783 0.10051 0.0
C205 C 0.15845 0.61525 0.14522 0.0
O206 O 0.12189 0.56708 0.10897 0.0
C207 C 0.13838 0.65733 0.08065 0.0
O208 O 0.12583 0.59067 0.08041 0.0
O209 O 0.14408 0.6398 0.07268 0.0
C210 C 0.41613 0.3765 0.61813 0.0
O211 O 0.41362 0.39032 0.63421 0.0
Cd212 Cd 0.37665 0.40603 0.64123 0.0
O213 O 0.39867 0.36983 0.60636 0.0
Cd214 Cd 0.35616 0.37474 0.60509 0.0
C215 C 0.363 0.42301 0.58405 0.0
O216 O 0.34859 0.37918 0.64899 0.0
O217 O 0.32019 0.38537 0.62441 0.0
O218 O 0.35233 0.3377 0.60005 0.0
C219 C 0.32724 0.38313 0.64616 0.0
O220 O 0.3698 0.42781 0.60542 0.0
C221 C 0.34033 0.33881 0.58066 0.0
O222 O 0.35757 0.40466 0.57893 0.0
O223 O 0.33577 0.35661 0.57273 0.0
H224 H 0.26542 0.20465 0.01855 0.0
H225 H 0.24283 0.22992 -0.00403 0.0
H226 H 0.18075 0.19465 0.00838 0.0
H227 H 0.20321 0.16934 0.03137 0.0
H228 H 0.21605 0.22386 0.95393 0.0
H229 H 0.16307 0.25244 0.03174 0.0
H230 H 0.18884 0.23726 0.0361 0.0
H231 H 0.16232 0.22527 0.02665 0.0
C232 C 0.24695 0.20228 0.01658 0.0
C233 C 0.23607 0.18505 0.02682 0.0
C234 C 0.23408 0.21671 0.00363 0.0
C235 C 0.21012 0.21424 0.00074 0.0
C236 C 0.19918 0.19699 0.01077 0.0
H237 H 0.13446 0.29201 0.89681 0.0
H238 H 0.14831 0.26181 0.91896 0.0
C239 C 0.21205 0.18253 0.02379 0.0
C240 C 0.19683 0.22972 0.98691 0.0
H241 H 0.15592 0.26704 0.99308 0.0
C242 C 0.20276 0.23321 0.96239 0.0
C243 C 0.17962 0.24192 -0.00188 0.0
C244 C 0.17313 0.23923 0.02465 0.0
C245 C 0.19231 0.24892 0.94888 0.0
C246 C 0.17522 0.26122 0.96013 0.0
C247 C 0.16892 0.25745 0.9845 0.0
C248 C 0.16516 0.27917 0.94757 0.0
C249 C 0.20037 0.25278 0.92303 0.0
C250 C 0.16942 0.29884 0.95678 0.0
C251 C 0.16146 0.31605 0.94429 0.0
C252 C 0.14903 0.31391 0.92236 0.0
C253 C 0.14414 0.29415 0.91356 0.0
C254 C 0.1521 0.2769 0.92613 0.0
H255 H 0.21679 0.24465 0.91885 0.0
H256 H 0.18695 0.24728 0.91008 0.0
H257 H 0.20299 0.26939 0.91979 0.0
H258 H 0.17943 0.30089 0.97334 0.0
H259 H 0.16543 0.33105 0.95162 0.0
H260 H 0.35281 0.6982 0.39415 0.0
H261 H 0.33908 0.7276 0.41783 0.0
H262 H 0.30685 0.68672 0.4696 0.0
H263 H 0.32073 0.65732 0.44631 0.0
H264 H 0.29382 0.73769 0.42787 0.0
H265 H 0.34244 0.72585 0.51388 0.0
H266 H 0.34996 0.71305 0.48572 0.0
H267 H 0.32676 0.70347 0.5045 0.0
C268 C 0.34297 0.69548 0.41069 0.0
C269 C 0.33787 0.67545 0.41839 0.0
C270 C 0.33516 0.71228 0.42419 0.0
C271 C 0.32229 0.70932 0.44567 0.0
C272 C 0.31723 0.68934 0.4534 0.0
H273 H 0.22159 0.78407 0.51632 0.0
H274 H 0.24382 0.75944 0.49235 0.0
C275 C 0.32503 0.67255 0.43995 0.0
C276 C 0.31284 0.72704 0.45923 0.0
H277 H 0.30965 0.74837 0.51608 0.0
C278 C 0.2975 0.74019 0.44707 0.0
C279 C 0.31794 0.73045 0.48418 0.0
C280 C 0.33536 0.71758 0.49778 0.0
C281 C 0.28629 0.75611 0.45951 0.0
C282 C 0.29025 0.75868 0.48482 0.0
C283 C 0.30642 0.74616 0.49673 0.0
C284 C 0.27699 0.77367 0.49946 0.0
C285 C 0.27015 0.76994 0.44548 0.0
C286 C 0.28839 0.78949 0.51195 0.0
C287 C 0.27572 0.80356 0.52582 0.0
C288 C 0.25149 0.8019 0.52751 0.0
C289 C 0.24021 0.78583 0.51527 0.0
C290 C 0.25287 0.77182 0.50143 0.0
H291 H 0.27416 0.76986 0.42561 0.0
H292 H 0.25209 0.76446 0.44784 0.0
H293 H 0.27116 0.78593 0.45229 0.0
H294 H 0.30704 0.79105 0.51079 0.0
H295 H 0.28489 0.81574 0.53512 0.0
H296 H 0.20243 0.8229 0.96465 0.0
H297 H 0.17883 0.79815 0.98735 0.0
H298 H 0.24032 0.76392 0.00531 0.0
H299 H 0.264 0.78859 0.98294 0.0
H300 H 0.17483 0.75615 0.97856 0.0
H301 H 0.20833 0.77102 0.07168 0.0
H302 H 0.21274 0.78857 0.0466 0.0
H303 H 0.23097 0.76643 0.04986 0.0
C304 C 0.21093 0.81018 0.9736 0.0
C305 C 0.23508 0.80771 0.97208 0.0
C306 C 0.19743 0.79608 0.98653 0.0
C307 C 0.20789 0.77942 -0.00169 0.0
C308 C 0.23197 0.77692 -0.00321 0.0
H309 H 0.16288 0.6605 0.0382 0.0
H310 H 0.17631 0.69171 0.01816 0.0
C311 C 0.24546 0.79096 0.98386 0.0
C312 C 0.19369 0.76398 0.01121 0.0
H313 H 0.18841 0.73914 0.06574 0.0
C314 C 0.17753 0.7526 -0.00229 0.0
C315 C 0.19695 0.75964 0.03628 0.0
C316 C 0.21302 0.7722 0.05203 0.0
C317 C 0.16545 0.73622 0.00834 0.0
C318 C 0.16998 0.73096 0.03294 0.0
C319 C 0.18518 0.74306 0.04679 0.0
C320 C 0.16034 0.71223 0.04424 0.0
C321 C 0.14818 0.72456 0.99304 0.0
C322 C 0.1472 0.71341 0.06578 0.0
C323 C 0.13963 0.69557 0.0774 0.0
C324 C 0.14525 0.67625 0.06776 0.0
C325 C 0.15819 0.67515 0.04603 0.0
C326 C 0.16573 0.69297 0.03445 0.0
H327 H 0.14141 0.73411 0.97785 0.0
H328 H 0.15681 0.71102 0.98489 0.0
H329 H 0.13337 0.71913 0.00428 0.0
H330 H 0.14302 0.72815 0.07372 0.0
H331 H 0.12971 0.69691 0.09413 0.0
H332 H 0.31317 0.33699 0.53996 0.0
H333 H 0.29825 0.30642 0.51959 0.0
H334 H 0.33365 0.26826 0.57187 0.0
H335 H 0.3484 0.2988 0.59264 0.0
H336 H 0.32218 0.27378 0.49834 0.0
H337 H 0.26642 0.24803 0.57533 0.0
H338 H 0.27885 0.27336 0.574 0.0
H339 H 0.29638 0.25192 0.58289 0.0
C340 C 0.31778 0.3221 0.54716 0.0
C341 C 0.33183 0.3203 0.56801 0.0
C342 C 0.30928 0.30466 0.53546 0.0
C343 C 0.31462 0.28512 0.54443 0.0
C344 C 0.329 0.28323 0.56495 0.0
H345 H 0.28556 0.17222 0.4635 0.0
H346 H 0.30527 0.19996 0.48533 0.0
C347 C 0.33748 0.30068 0.57671 0.0
C348 C 0.30495 0.26681 0.53223 0.0
H349 H 0.26822 0.22648 0.54073 0.0
C350 C 0.31046 0.26336 0.50759 0.0
C351 C 0.2895 0.25341 0.54437 0.0
C352 C 0.28223 0.25688 0.57054 0.0
C353 C 0.30077 0.24692 0.49465 0.0
C354 C 0.28547 0.23343 0.50684 0.0
C355 C 0.28011 0.23679 0.53153 0.0
C356 C 0.27379 0.2164 0.49396 0.0
C357 C 0.3064 0.2445 0.46786 0.0
C358 C 0.24957 0.21626 0.4921 0.0
C359 C 0.23829 0.20042 0.47982 0.0
C360 C 0.25103 0.18438 0.46923 0.0
C361 C 0.27529 0.18443 0.47135 0.0
C362 C 0.28658 0.2003 0.4837 0.0
H363 H 0.31421 0.25861 0.46006 0.0
H364 H 0.31899 0.23184 0.46555 0.0
H365 H 0.29061 0.24064 0.45724 0.0
H366 H 0.2394 0.22853 0.49996 0.0
H367 H 0.21957 0.2008 0.47856 0.0
H368 H 0.76138 0.7016 0.0207 0.0
H369 H 0.73959 0.72738 -0.00189 0.0
H370 H 0.67603 0.69503 0.0133 0.0
H371 H 0.69773 0.66921 0.03632 0.0
H372 H 0.71163 0.72144 0.95701 0.0
H373 H 0.66191 0.75407 0.03494 0.0
H374 H 0.68694 0.73794 0.03925 0.0
H375 H 0.65963 0.72684 0.03084 0.0
C376 C 0.74275 0.69999 0.01936 0.0
C377 C 0.73126 0.68341 0.03035 0.0
C378 C 0.73034 0.71472 0.0064 0.0
C379 C 0.70621 0.7132 0.00424 0.0
C380 C 0.69462 0.69664 0.01511 0.0
H381 H 0.63225 0.79115 0.89927 0.0
H382 H 0.64531 0.76107 0.92217 0.0
C383 C 0.70705 0.68188 0.02815 0.0
C384 C 0.69345 0.72888 0.99018 0.0
H385 H 0.65469 0.76799 -0.00407 0.0
C386 C 0.69904 0.73153 0.96543 0.0
C387 C 0.67716 0.74205 0.00135 0.0
C388 C 0.67111 0.74028 0.0281 0.0
C389 C 0.68915 0.74733 0.9516 0.0
C390 C 0.67295 0.76058 0.96278 0.0
C391 C 0.66699 0.75767 0.98741 0.0
C392 C 0.66348 0.77855 0.94976 0.0
C393 C 0.69686 0.75022 0.92546 0.0
C394 C 0.66876 0.79829 0.95815 0.0
C395 C 0.66123 0.81544 0.94524 0.0
C396 C 0.64824 0.81317 0.9237 0.0
C397 C 0.64238 0.79338 0.9157 0.0
C398 C 0.64989 0.77619 0.92869 0.0
H399 H 0.71283 0.74142 0.92126 0.0
H400 H 0.68298 0.74485 0.913 0.0
H401 H 0.70016 0.76664 0.92152 0.0
H402 H 0.67919 0.80041 0.97441 0.0
H403 H 0.66595 0.83048 0.95194 0.0
H404 H 0.86328 0.19998 0.39725 0.0
H405 H 0.85116 0.23073 0.41947 0.0
H406 H 0.81799 0.19298 0.4739 0.0
H407 H 0.83027 0.1623 0.45212 0.0
H408 H 0.80657 0.24189 0.42776 0.0
H409 H 0.85211 0.23415 0.51605 0.0
H410 H 0.86027 0.21967 0.48928 0.0
H411 H 0.83666 0.21123 0.50832 0.0
C412 C 0.85371 0.19825 0.41416 0.0
C413 C 0.84768 0.17873 0.42292 0.0
C414 C 0.84684 0.21582 0.42683 0.0
C415 C 0.83399 0.21413 0.44852 0.0
C416 C 0.82839 0.19464 0.45753 0.0
H417 H 0.72713 0.28481 0.51046 0.0
H418 H 0.75278 0.26193 0.48791 0.0
C419 C 0.83525 0.17711 0.44493 0.0
C420 C 0.82436 0.23256 0.46053 0.0
H421 H 0.81769 0.2553 0.51624 0.0
C422 C 0.80935 0.24506 0.447 0.0
C423 C 0.82827 0.23689 0.48552 0.0
C424 C 0.84541 0.22489 0.50055 0.0
C425 C 0.79698 0.26095 0.45819 0.0
C426 C 0.79943 0.26416 0.4836 0.0
C427 C 0.81558 0.25257 0.49681 0.0
C428 C 0.78414 0.27838 0.49706 0.0
C429 C 0.78103 0.2739 0.44279 0.0
C430 C 0.79337 0.29492 0.51019 0.0
C431 C 0.77873 0.30803 0.52323 0.0
C432 C 0.75467 0.30463 0.52349 0.0
C433 C 0.74556 0.2879 0.51052 0.0
C434 C 0.76018 0.27488 0.49749 0.0
H435 H 0.78639 0.27384 0.42328 0.0
H436 H 0.76322 0.26756 0.44385 0.0
H437 H 0.7806 0.28996 0.4494 0.0
H438 H 0.81186 0.29774 0.51023 0.0
H439 H 0.78625 0.32075 0.53313 0.0
H440 H 0.76516 0.28514 0.97491 0.0
H441 H 0.7427 0.25968 -0.00258 0.0
H442 H 0.68016 0.29379 0.98363 0.0
H443 H 0.70251 0.31929 0.96069 0.0
H444 H 0.71492 0.26525 0.0389 0.0
H445 H 0.6643 0.23565 0.95991 0.0
H446 H 0.6898 0.25134 0.95612 0.0
H447 H 0.66283 0.26279 0.96502 0.0
C448 C 0.74662 0.28723 0.97659 0.0
C449 C 0.73558 0.30417 0.96592 0.0
C450 C 0.73383 0.27269 0.98951 0.0
C451 C 0.70977 0.27476 0.99196 0.0
C452 C 0.69868 0.29176 0.98159 0.0
H453 H 0.63397 0.1948 0.09379 0.0
H454 H 0.64758 0.22545 0.07229 0.0
C455 C 0.71147 0.30634 0.96859 0.0
C456 C 0.69655 0.25903 0.00551 0.0
H457 H 0.65685 0.22076 -0.00166 0.0
C458 C 0.70206 0.25561 0.03014 0.0
C459 C 0.67992 0.24646 0.99389 0.0
C460 C 0.67391 0.24905 0.96723 0.0
C461 C 0.69179 0.23961 0.04337 0.0
C462 C 0.6753 0.22693 0.0317 0.0
C463 C 0.66938 0.23064 0.00723 0.0
C464 C 0.66554 0.20867 0.04393 0.0
C465 C 0.69941 0.23587 0.06936 0.0
C466 C 0.67054 0.18917 0.03466 0.0
C467 C 0.66271 0.17169 0.04676 0.0
C468 C 0.64968 0.17341 0.06838 0.0
C469 C 0.64411 0.19299 0.07727 0.0
C470 C 0.65194 0.2105 0.06508 0.0
H471 H 0.71548 0.24441 0.07394 0.0
H472 H 0.68557 0.24095 0.08205 0.0
H473 H 0.70249 0.21931 0.07257 0.0
H474 H 0.68098 0.18745 0.01832 0.0
H475 H 0.66721 0.15684 0.03939 0.0
H476 H 0.85728 0.79484 0.59387 0.0
H477 H 0.84552 0.76288 0.57399 0.0
H478 H 0.81089 0.79736 0.51765 0.0
H479 H 0.82276 0.82927 0.53713 0.0
H480 H 0.80085 0.75018 0.56628 0.0
H481 H 0.84736 0.7556 0.4781 0.0
H482 H 0.85478 0.77123 0.50418 0.0
H483 H 0.83105 0.7783 0.48462 0.0
C484 C 0.8474 0.7956 0.57707 0.0
C485 C 0.84093 0.81457 0.56706 0.0
C486 C 0.84073 0.77734 0.56575 0.0
C487 C 0.82766 0.77777 0.54415 0.0
C488 C 0.82145 0.79669 0.53398 0.0
H489 H 0.72576 0.69936 0.48479 0.0
H490 H 0.7493 0.72432 0.5068 0.0
C491 C 0.82809 0.81491 0.54526 0.0
C492 C 0.81881 0.75858 0.53322 0.0
H493 H 0.81439 0.7329 0.47913 0.0
C494 C 0.80411 0.7462 0.54734 0.0
C495 C 0.82338 0.75323 0.50865 0.0
C496 C 0.84021 0.76518 0.49309 0.0
C497 C 0.79277 0.72927 0.53709 0.0
C498 C 0.79596 0.72488 0.51201 0.0
C499 C 0.81173 0.7365 0.49828 0.0
C500 C 0.78189 0.70923 0.49932 0.0
C501 C 0.77719 0.71646 0.55311 0.0
C502 C 0.79249 0.69271 0.48737 0.0
C503 C 0.77907 0.67844 0.47463 0.0
C504 C 0.75486 0.6806 0.47348 0.0
C505 C 0.74435 0.69722 0.48542 0.0
C506 C 0.75775 0.71142 0.49815 0.0
H507 H 0.78211 0.71774 0.57267 0.0
H508 H 0.75909 0.72194 0.55124 0.0
H509 H 0.77774 0.70009 0.54768 0.0
H510 H 0.81113 0.69089 0.4879 0.0
H511 H 0.78766 0.66582 0.46554 0.0
H512 H 0.28933 0.0852 0.98214 0.0
H513 H 0.28724 0.04895 0.97112 0.0
H514 H 0.25963 0.03478 0.04237 0.0
H515 H 0.26164 0.07095 0.05364 0.0
H516 H 0.31048 0.01646 -0.00186 0.0
H517 H 0.21503 0.00603 0.99257 0.0
H518 H 0.22875 0.03083 0.99033 0.0
H519 H 0.22557 0.01868 0.01957 0.0
C520 C 0.28257 0.07443 -0.0046 0.0
C521 C 0.27566 0.08098 0.01879 0.0
C522 C 0.28143 0.05374 0.98907 0.0
C523 C 0.2731 0.0393 0.00588 0.0
C524 C 0.26582 0.04578 0.02906 0.0
H525 H 0.29234 0.90807 0.01019 0.0
H526 H 0.29019 0.94468 0.0193 0.0
C527 C 0.26709 0.06643 0.03548 0.0
C528 C 0.27324 0.0173 -0.00033 0.0
H529 H 0.23805 0.976 0.99054 0.0
C530 C 0.29467 0.0076 -0.00361 0.0
C531 C 0.25254 0.00592 -0.00271 0.0
C532 C 0.22911 0.01586 -8e-05 0.0
C533 C 0.29596 0.98662 0.99118 0.0
C534 C 0.27529 0.97513 0.98936 0.0
C535 C 0.25384 0.9849 0.99218 0.0
C536 C 0.2757 0.95295 0.98424 0.0
C537 C 0.31939 0.97689 0.98747 0.0
C538 C 0.26782 0.94555 0.9617 0.0
C539 C 0.26907 0.92467 0.95638 0.0
C540 C 0.27804 0.91082 0.97364 0.0
C541 C 0.28538 0.9183 -0.00353 0.0
C542 C 0.28425 0.9392 0.0017 0.0
H543 H 0.33326 0.9885 0.98493 0.0
H544 H 0.32375 0.96751 0.00374 0.0
H545 H 0.31916 0.96659 0.97133 0.0
H546 H 0.26109 0.95598 0.94806 0.0
H547 H 0.26317 0.91943 0.93867 0.0
H548 H 0.21887 0.91728 0.55825 0.0
H549 H 0.22302 0.95328 0.54709 0.0
H550 H 0.22298 0.93686 0.47074 0.0
H551 H 0.21823 0.90082 0.48168 0.0
H552 H 0.25599 0.97426 0.52089 0.0
H553 H 0.17063 0.97807 0.47446 0.0
H554 H 0.17906 0.95667 0.49325 0.0
H555 H 0.18955 0.95879 0.46238 0.0
C556 C 0.21982 0.92128 0.53907 0.0
C557 C 0.21794 0.90618 0.52084 0.0
C558 C 0.22223 0.94188 0.53274 0.0
C559 C 0.22285 0.94776 0.5081 0.0
C560 C 0.22195 0.93268 0.48987 0.0
H561 H 0.22719 0.06626 0.43677 0.0
H562 H 0.23088 0.02992 0.44651 0.0
C563 C 0.21935 0.91208 0.49616 0.0
C564 C 0.2239 0.96973 0.50156 0.0
H565 H 0.19451 0.00742 0.47158 0.0
C566 C 0.24256 0.98153 0.51012 0.0
C567 C 0.20626 0.97918 0.48762 0.0
C568 C 0.18513 0.9676 0.47908 0.0
C569 C 0.24415 0.00252 0.50488 0.0
C570 C 0.22657 0.01188 0.49088 0.0
C571 C 0.20802 9e-05 0.48219 0.0
C572 C 0.22664 0.03402 0.48546 0.0
C573 C 0.26466 0.01453 0.51414 0.0
C574 C 0.22317 0.04832 0.50422 0.0
C575 C 0.22091 0.06911 0.49875 0.0
C576 C 0.22208 0.07593 0.47439 0.0
C577 C 0.22622 0.06156 0.45573 0.0
C578 C 0.22833 0.04079 0.46122 0.0
H579 H 0.27898 0.00436 0.52013 0.0
H580 H 0.27127 0.02504 0.49978 0.0
H581 H 0.25921 0.02396 0.53 0.0
H582 H 0.22148 0.04332 0.52301 0.0
H583 H 0.21774 0.07976 0.51355 0.0
H584 H 0.62733 0.95809 0.89327 0.0
H585 H 0.62991 0.98455 0.92483 0.0
H586 H 0.63396 0.93792 0.98042 0.0
H587 H 0.63183 0.91142 0.94912 0.0
H588 H 0.59993 0.99116 0.96313 0.0
H589 H 0.68807 0.97481 -0.00189 0.0
H590 H 0.67754 0.96461 0.96954 0.0
H591 H 0.66948 0.95278 -0.002 0.0
C592 C 0.62896 0.95346 0.91219 0.0
C593 C 0.62946 0.93263 0.91864 0.0
C594 C 0.63043 0.9686 0.93019 0.0
C595 C 0.63252 0.96319 0.95491 0.0
C596 C 0.63294 0.94243 0.96141 0.0
H597 H 0.62769 0.02783 0.09292 0.0
H598 H 0.62912 0.00223 0.06024 0.0
C599 C 0.63155 0.9273 0.94346 0.0
C600 C 0.63308 0.97919 0.97406 0.0
H601 H 0.66467 -0.00292 0.02231 0.0
C602 C 0.61417 0.99258 0.97594 0.0
C603 C 0.65167 0.98096 0.99076 0.0
C604 C 0.67295 0.96766 0.98891 0.0
C605 C 0.6131 0.0074 0.99444 0.0
C606 C 0.63155 0.00898 0.0113 0.0
C607 C 0.65053 -0.00429 0.00937 0.0
C608 C 0.63143 0.02443 0.03102 0.0
C609 C 0.59203 0.02097 -0.00382 0.0
C610 C 0.63267 0.04531 0.02534 0.0
C611 C 0.63192 0.05995 0.0439 0.0
C612 C 0.62993 0.05396 0.06852 0.0
C613 C 0.62913 0.03297 0.07417 0.0
C614 C 0.62998 0.01832 0.05555 0.0
H615 H 0.57735 0.01495 0.9852 0.0
H616 H 0.58633 0.02258 0.01547 0.0
H617 H 0.59645 0.03644 0.98921 0.0
H618 H 0.63414 0.05028 0.00651 0.0
H619 H 0.63268 0.07597 0.03888 0.0
H620 H 0.85702 0.07821 0.44697 0.0
H621 H 0.85351 0.05101 0.47734 0.0
H622 H 0.85214 0.00588 0.41985 0.0
H623 H 0.85612 0.03296 0.38926 0.0
H624 H 0.81969 0.02136 0.48424 0.0
H625 H 0.90497 0.98612 0.46322 0.0
H626 H 0.89678 0.01104 0.45198 0.0
H627 H 0.88587 0.9883 0.43748 0.0
C628 C 0.85596 0.06251 0.44072 0.0
C629 C 0.85708 0.05775 0.41567 0.0
C630 C 0.85391 0.04699 0.45813 0.0
C631 C 0.85295 0.02644 0.45085 0.0
C632 C 0.85336 0.02163 0.42586 0.0
H633 H 0.85005 0.91353 0.53473 0.0
H634 H 0.84722 0.93911 0.50232 0.0
C635 C 0.85553 0.03714 0.40841 0.0
C636 C 0.85186 0.01009 0.46954 0.0
H637 H 0.88148 0.96909 0.49216 0.0
C638 C 0.83318 0.00991 0.48598 0.0
C639 C 0.86952 -0.00478 0.47177 0.0
C640 C 0.89054 -0.00479 0.45534 0.0
C641 C 0.83163 -0.00484 0.50456 0.0
C642 C 0.84937 0.98041 0.50686 0.0
C643 C 0.86789 0.98043 0.49025 0.0
C644 C 0.84945 0.96507 0.52672 0.0
C645 C 0.81096 -0.00466 0.52143 0.0
C646 C 0.85165 0.97125 0.55117 0.0
C647 C 0.85335 0.95668 0.56977 0.0
C648 C 0.85295 0.93566 0.56421 0.0
C649 C 0.85041 0.92957 0.53968 0.0
C650 C 0.84878 0.94415 0.52112 0.0
H651 H 0.79632 0.00422 0.51363 0.0
H652 H 0.80494 0.97952 0.52532 0.0
H653 H 0.81595 0.00255 0.53902 0.0
H654 H 0.85261 0.98735 0.5558 0.0
H655 H 0.85534 0.96189 0.58844 0.0
H656 H 0.76686 0.41892 0.93297 0.0
H657 H 0.76251 0.4551 0.94332 0.0
H658 H 0.77135 0.44088 0.01967 0.0
H659 H 0.77572 0.40458 0.00958 0.0
H660 H 0.7328 0.46923 0.00655 0.0
H661 H 0.81862 0.49074 0.96786 0.0
H662 H 0.79998 0.47584 0.94844 0.0
H663 H 0.81133 0.46471 0.97592 0.0
C664 C 0.76778 0.42342 0.95199 0.0
C665 C 0.77181 0.40885 0.97044 0.0
C666 C 0.76534 0.44411 0.95784 0.0
C667 C 0.76686 0.45059 0.9822 0.0
C668 C 0.77021 0.4361 0.00074 0.0
H669 H 0.7631 0.56643 0.05826 0.0
H670 H 0.76055 0.53045 0.04659 0.0
C671 C 0.77276 0.41539 -0.00508 0.0
C672 C 0.76558 0.47259 0.98824 0.0
H673 H 0.79511 0.51754 0.98242 0.0
C674 C 0.74638 0.47985 0.00131 0.0
C675 C 0.78332 0.48629 0.98125 0.0
C676 C 0.8046 0.47908 0.96774 0.0
C677 C 0.74433 0.50065 0.0074 0.0
C678 C 0.76224 0.51435 0.00067 0.0
C679 C 0.78137 0.50703 0.98747 0.0
C680 C 0.76194 0.53624 0.00767 0.0
C681 C 0.72285 0.5078 0.02058 0.0
C682 C 0.76388 0.55145 0.98968 0.0
C683 C 0.76562 0.57204 -0.00371 0.0
C684 C 0.76552 0.57781 0.02105 0.0
C685 C 0.76309 0.56255 0.03902 0.0
C686 C 0.76147 0.54196 0.03238 0.0
H687 H 0.70814 0.49706 0.01781 0.0
H688 H 0.72645 0.50856 0.04048 0.0
H689 H 0.71755 0.52326 0.01432 0.0
H690 H 0.76439 0.54734 0.9705 0.0
H691 H 0.76744 0.58339 0.98198 0.0
H692 H 0.70788 0.40161 0.47892 0.0
H693 H 0.71014 0.43819 0.4695 0.0
H694 H 0.71273 0.45217 0.54644 0.0
H695 H 0.71048 0.41573 0.55613 0.0
H696 H 0.67858 0.47453 0.51764 0.0
H697 H 0.76732 0.47713 0.47804 0.0
H698 H 0.7483 0.45764 0.46633 0.0
H699 H 0.75761 0.45654 0.49758 0.0
C700 C 0.70908 0.41244 0.49385 0.0
C701 C 0.70902 0.40573 0.51828 0.0
C702 C 0.71047 0.43331 0.48841 0.0
C703 C 0.71182 0.44778 0.50729 0.0
C704 C 0.71182 0.44117 0.53165 0.0
H705 H 0.7078 0.58057 0.51504 0.0
H706 H 0.70894 0.54399 0.52432 0.0
C707 C 0.71055 0.42034 0.53711 0.0
C708 C 0.71227 0.4699 0.50174 0.0
H709 H 0.74525 0.50754 0.47605 0.0
C710 C 0.69316 0.48181 0.50863 0.0
C711 C 0.73128 0.4792 0.48986 0.0
C712 C 0.75241 0.46707 0.48263 0.0
C713 C 0.69241 0.50284 0.50364 0.0
C714 C 0.71156 0.51225 0.492 0.0
C715 C 0.73065 0.50029 0.48505 0.0
C716 C 0.71194 0.53444 0.48657 0.0
C717 C 0.67087 0.51467 0.51031 0.0
C718 C 0.71414 0.54121 0.46236 0.0
C719 C 0.71376 0.5621 0.457 0.0
C720 C 0.71119 0.57663 0.4758 0.0
C721 C 0.70959 0.56979 0.50011 0.0
C722 C 0.7101 0.54889 0.50545 0.0
H723 H 0.6557 0.50441 0.51282 0.0
H724 H 0.67382 0.52287 0.5278 0.0
H725 H 0.66661 0.52617 0.49607 0.0
H726 H 0.71572 0.5303 0.44754 0.0
H727 H 0.71509 0.56682 0.43808 0.0
H728 H 0.12964 0.57732 0.03741 0.0
H729 H 0.13167 0.551 0.00584 0.0
H730 H 0.12692 0.50402 0.06092 0.0
H731 H 0.12495 0.53027 0.09284 0.0
H732 H 0.16262 0.4983 0.0233 0.0
H733 H 0.07537 0.5149 0.98527 0.0
H734 H 0.09417 0.53666 0.98869 0.0
H735 H 0.08419 0.52322 0.01533 0.0
C736 C 0.12906 0.5614 0.04291 0.0
C737 C 0.12698 0.55591 0.06768 0.0
C738 C 0.13014 0.5464 0.0248 0.0
C739 C 0.12913 0.52564 0.03108 0.0
C740 C 0.12761 0.52001 0.05577 0.0
H741 H 0.13157 0.41211 0.94948 0.0
H742 H 0.13311 0.43848 0.981 0.0
C743 C 0.12645 0.53503 0.07394 0.0
C744 C 0.12949 0.50983 0.01178 0.0
H745 H 0.09857 0.49136 0.96345 0.0
C746 C 0.14862 0.49669 0.01024 0.0
C747 C 0.11121 0.50791 0.99476 0.0
C748 C 0.08995 0.52129 -0.0039 0.0
C749 C 0.15012 0.48181 0.9918 0.0
C750 C 0.13176 0.4798 0.97485 0.0
C751 C 0.11265 0.49298 0.97642 0.0
C752 C 0.13171 0.46385 0.95563 0.0
C753 C 0.17156 0.46868 0.99033 0.0
C754 C 0.1299 0.46937 0.93092 0.0
C755 C 0.12877 0.45431 0.91281 0.0
C756 C 0.12935 0.43345 0.91913 0.0
C757 C 0.13123 0.42802 0.94394 0.0
C758 C 0.13228 0.44308 0.962 0.0
H759 H 0.18646 0.47592 -0.00015 0.0
H760 H 0.16808 0.45375 -0.00072 0.0
H761 H 0.17652 0.46572 0.97104 0.0
H762 H 0.12929 0.48534 0.92565 0.0
H763 H 0.12731 0.45903 0.8939 0.0
H764 H 0.3909 0.53905 0.3961 0.0
H765 H 0.38935 0.51296 0.42817 0.0
H766 H 0.33114 0.54396 0.46109 0.0
H767 H 0.33374 0.57072 0.43006 0.0
H768 H 0.35904 0.5345 0.49462 0.0
H769 H 0.34867 0.46529 0.43768 0.0
H770 H 0.37457 0.4788 0.42962 0.0
H771 H 0.34673 0.49068 0.42502 0.0
C772 C 0.37765 0.5401 0.41007 0.0
C773 C 0.36243 0.55682 0.41066 0.0
C774 C 0.37664 0.52511 0.42829 0.0
C775 C 0.35983 0.5262 0.44687 0.0
C776 C 0.34428 0.54272 0.44702 0.0
H777 H 0.33335 0.42423 0.54547 0.0
H778 H 0.3315 0.44996 0.51311 0.0
C779 C 0.34573 0.55799 0.42926 0.0
C780 C 0.35924 0.51094 0.46702 0.0
H781 H 0.35968 0.45975 0.47933 0.0
C782 C 0.35892 0.51814 0.49122 0.0
C783 C 0.35872 0.48957 0.46273 0.0
C784 C 0.35693 0.48065 0.43735 0.0
C785 C 0.35828 0.50468 0.51117 0.0
C786 C 0.35923 0.48333 0.50689 0.0
C787 C 0.35928 0.4761 0.4827 0.0
C788 C 0.35991 0.46818 0.52715 0.0
C789 C 0.35595 0.5136 0.53651 0.0
C790 C 0.37649 0.46977 0.54586 0.0
C791 C 0.3771 0.45539 0.56476 0.0
C792 C 0.36169 0.43875 0.5648 0.0
C793 C 0.34543 0.43692 0.54585 0.0
C794 C 0.34441 0.45159 0.52733 0.0
H795 H 0.34744 0.52884 0.53603 0.0
H796 H 0.34574 0.50344 0.54869 0.0
H797 H 0.37344 0.51574 0.5445 0.0
H798 H 0.38918 0.48196 0.54571 0.0
H799 H 0.39005 0.45696 0.57895 0.0
H800 H 0.53341 0.09793 0.14829 0.0
H801 H 0.49297 0.10556 0.13824 0.0
H802 H 0.51547 0.14628 0.08098 0.0
H803 H 0.55585 0.1389 0.09082 0.0
H804 H 0.46962 0.14784 0.13324 0.0
H805 H 0.47257 0.10008 0.04902 0.0
H806 H 0.49266 0.09666 0.07398 0.0
H807 H 0.49596 0.11791 0.05351 0.0
C808 C 0.52977 0.10865 0.1337 0.0
C809 C 0.54788 0.11769 0.12025 0.0
C810 C 0.50668 0.113 0.12804 0.0
C811 C 0.50137 0.12631 0.10876 0.0
C812 C 0.51932 0.13584 0.09581 0.0
H813 H 0.37662 0.15809 0.03048 0.0
H814 H 0.41635 0.15438 0.04514 0.0
C815 C 0.54237 0.13161 0.1015 0.0
C816 C 0.47708 0.12965 0.10143 0.0
H817 H 0.43849 0.119 0.05605 0.0
C818 C 0.4627 0.14152 0.11643 0.0
C819 C 0.4683 0.1214 0.07945 0.0
C820 C 0.48305 0.10817 0.06305 0.0
C821 C 0.43971 0.14571 0.10972 0.0
C822 C 0.43087 0.13738 0.08773 0.0
C823 C 0.44531 0.12541 0.07285 0.0
C824 C 0.40667 0.14074 0.07972 0.0
C825 C 0.42533 0.15943 0.1259 0.0
C826 C 0.38804 0.13427 0.09428 0.0
C827 C 0.36529 0.13648 0.08603 0.0
C828 C 0.36077 0.14495 0.06288 0.0
C829 C 0.37948 0.15148 0.04837 0.0
C830 C 0.4022 0.14938 0.05672 0.0
H831 H 0.43636 0.16908 0.1379 0.0
H832 H 0.414 0.16957 0.11488 0.0
H833 H 0.41416 0.14984 0.13781 0.0
H834 H 0.3911 0.1271 0.11182 0.0
H835 H 0.3513 0.13116 0.0976 0.0
H836 H 0.95376 0.89461 0.64311 0.0
H837 H -0.00568 0.88727 0.63313 0.0
H838 H 0.97242 0.84807 0.57415 0.0
H839 H 0.93193 0.85513 0.58395 0.0
H840 H 0.01636 0.84394 0.62701 0.0
H841 H 0.01764 0.89464 0.5452 0.0
H842 H -0.00267 0.89814 0.56998 0.0
H843 H 0.9933 0.87763 0.54863 0.0
C844 C 0.95756 0.88434 0.6281 0.0
C845 C 0.93959 0.87552 0.61427 0.0
C846 C 0.98071 0.88016 0.62247 0.0
C847 C 0.98622 0.86728 0.60283 0.0
C848 C 0.96841 0.85817 0.58928 0.0
H849 H 0.11211 0.83414 0.52698 0.0
H850 H 0.07207 0.83904 0.54028 0.0
C851 C 0.9453 0.86221 0.59497 0.0
C852 C 0.0106 0.86359 0.59607 0.0
H853 H 0.05091 0.87468 0.55246 0.0
C854 C 0.02403 0.85069 0.61079 0.0
C855 C 0.02032 0.87236 0.57483 0.0
C856 C 0.00654 0.88658 0.55873 0.0
C857 C 0.04701 0.846 0.60453 0.0
C858 C 0.05684 0.85488 0.58331 0.0
C859 C 0.04333 0.86786 0.56868 0.0
C860 C 0.08113 0.85102 0.57589 0.0
C861 C 0.0603 0.83116 0.62031 0.0
C862 C 0.0995 0.8562 0.59147 0.0
C863 C 0.1224 0.85329 0.584 0.0
C864 C 0.12737 0.8454 0.56065 0.0
C865 C 0.1089 0.84025 0.54507 0.0
C866 C 0.08601 0.84304 0.55263 0.0
H867 H 0.0485 0.8214 0.63136 0.0
H868 H 0.07155 0.82111 0.60906 0.0
H869 H 0.07146 0.83987 0.63313 0.0
H870 H 0.09616 0.86286 0.60925 0.0
H871 H 0.1362 0.85758 0.59639 0.0
H872 H 0.37766 0.83242 0.96276 0.0
H873 H 0.41694 0.83545 0.94625 0.0
H874 H 0.38934 0.8575 0.87801 0.0
H875 H 0.35 0.8545 0.89421 0.0
H876 H 0.43582 0.81749 0.89857 0.0
H877 H 0.43618 0.90259 0.90504 0.0
H878 H 0.41672 0.8869 0.92289 0.0
H879 H 0.41149 0.89065 0.8909 0.0
C880 C 0.3799 0.83781 0.94419 0.0
C881 C 0.36068 0.84334 0.92986 0.0
C882 C 0.40234 0.83947 0.9348 0.0
C883 C 0.40592 0.84684 0.91104 0.0
C884 C 0.38684 0.85192 0.89647 0.0
H885 H 0.53316 0.8852 0.83869 0.0
H886 H 0.49265 0.87719 0.84767 0.0
C887 C 0.36439 0.85016 0.90577 0.0
C888 C 0.4297 0.84986 0.90178 0.0
H889 H 0.46943 0.88694 0.8888 0.0
C890 C 0.44322 0.83265 0.89634 0.0
C891 C 0.4391 0.86966 0.89878 0.0
C892 C 0.42527 0.88858 0.90481 0.0
C893 C 0.46608 0.83474 0.88791 0.0
C894 C 0.47573 0.85457 0.88551 0.0
C895 C 0.462 0.87176 0.89061 0.0
C896 C 0.50031 0.85791 0.87879 0.0
C897 C 0.47953 0.81572 0.88139 0.0
C898 C 0.51806 0.84971 0.89327 0.0
C899 C 0.5412 0.85414 0.8881 0.0
C900 C 0.54707 0.86713 0.86854 0.0
C901 C 0.52926 0.87515 0.85389 0.0
C902 C 0.5061 0.87059 0.85899 0.0
H903 H 0.46779 0.80283 0.87666 0.0
H904 H 0.49139 0.81852 0.86576 0.0
H905 H 0.49005 0.81094 0.89736 0.0
H906 H 0.514 0.84033 0.90902 0.0
H907 H 0.55445 0.84781 0.89988 0.0
H908 H 0.11419 0.14667 0.46575 0.0
H909 H 0.07491 0.14318 0.44943 0.0
H910 H 0.10259 0.12066 0.38138 0.0
H911 H 0.14194 0.12416 0.39738 0.0
H912 H 0.05816 0.16205 0.40096 0.0
H913 H 0.05283 0.07707 0.4076 0.0
H914 H 0.07231 0.09195 0.42639 0.0
H915 H 0.07865 0.08814 0.39464 0.0
C916 C 0.11196 0.14093 0.44733 0.0
C917 C 0.13121 0.13566 0.43288 0.0
C918 C 0.08952 0.139 0.43805 0.0
C919 C 0.08598 0.13157 0.41431 0.0
C920 C 0.10507 0.12629 0.39982 0.0
H921 H 0.95776 0.09968 0.33911 0.0
H922 H -0.00138 0.10505 0.34919 0.0
C923 C 0.12751 0.12835 0.409 0.0
C924 C 0.06225 0.12948 0.40464 0.0
H925 H 0.02066 0.0942 0.39101 0.0
C926 C 0.04991 0.14725 0.39871 0.0
C927 C 0.05178 0.11012 0.40154 0.0
C928 C 0.06442 0.09065 0.40795 0.0
C929 C 0.02717 0.14617 0.38977 0.0
C930 C 0.01638 0.12681 0.38735 0.0
C931 C 0.02895 0.10902 0.39288 0.0
C932 C 0.99175 0.12467 0.38023 0.0
C933 C 0.01506 0.16575 0.38275 0.0
C934 C 0.97437 0.13389 0.39435 0.0
C935 C 0.95108 0.13098 0.38856 0.0
C936 C 0.94465 0.11853 0.36871 0.0
C937 C 0.96211 0.10939 0.35448 0.0
C938 C 0.98546 0.11242 0.36023 0.0
H939 H 0.02767 0.17802 0.37814 0.0
H940 H 0.00339 0.16339 0.36687 0.0
H941 H 0.00451 0.17117 0.39842 0.0
H942 H 0.9788 0.14297 0.41024 0.0
H943 H 0.93811 0.13813 0.40003 0.0
H944 H 0.02947 0.60005 0.1467 0.0
H945 H 0.98885 0.60615 0.13601 0.0
H946 H 0.01031 0.6432 0.07487 0.0
H947 H 0.05088 0.63731 0.08534 0.0
H948 H 0.96482 0.64704 0.12791 0.0
H949 H 0.96777 0.59541 0.04704 0.0
H950 H 0.98839 0.59368 0.07177 0.0
H951 H 0.99072 0.61392 0.04974 0.0
C952 C 0.02556 0.60962 0.13108 0.0
C953 C 0.04343 0.6181 0.11679 0.0
C954 C 0.00237 0.61309 0.12504 0.0
C955 C -0.00328 0.62492 0.10454 0.0
C956 C 0.01443 0.63386 0.09063 0.0
H957 H 0.86981 0.65174 0.02697 0.0
H958 H 0.90997 0.6486 0.04053 0.0
C959 C 0.03758 0.63051 0.09671 0.0
C960 C 0.9723 0.62754 0.09723 0.0
H961 H 0.93335 0.6141 0.05324 0.0
C962 C 0.95783 0.63983 0.11164 0.0
C963 C 0.96344 0.61813 0.07596 0.0
C964 C 0.97826 0.60441 0.06024 0.0
C965 C 0.93467 0.64328 0.10505 0.0
C966 C 0.92572 0.63375 0.08381 0.0
C967 C 0.94026 0.62141 0.06948 0.0
C968 C 0.90131 0.63627 0.0761 0.0
C969 C 0.92021 0.65748 0.12053 0.0
C970 C 0.88313 0.63022 0.09152 0.0
C971 C 0.86016 0.63211 0.0839 0.0
C972 C 0.85493 0.63984 0.06054 0.0
C973 C 0.87321 0.64573 0.04506 0.0
C974 C 0.89618 0.64396 0.05278 0.0
H975 H 0.93118 0.6679 0.13165 0.0
H976 H 0.90846 0.66687 0.10905 0.0
H977 H 0.90946 0.64828 0.13327 0.0
H978 H 0.88671 0.62376 0.10935 0.0
H979 H 0.84652 0.62727 0.09621 0.0
H980 H 0.63276 0.34764 0.59198 0.0
H981 H 0.59228 0.35026 0.60427 0.0
H982 H 0.57096 0.32726 0.5339 0.0
H983 H 0.61149 0.32503 0.52117 0.0
H984 H 0.54803 0.36159 0.54633 0.0
H985 H 0.54556 0.30746 0.62411 0.0
H986 H 0.56802 0.32625 0.62732 0.0
H987 H 0.56924 0.30814 0.60256 0.0
C988 C 0.61951 0.34289 0.57918 0.0
C989 C 0.62539 0.33615 0.55556 0.0
C990 C 0.59635 0.34425 0.58633 0.0
C991 C 0.5786 0.33862 0.57016 0.0
C992 C 0.5844 0.33156 0.54672 0.0
H993 H 0.42832 0.35009 0.58152 0.0
H994 H 0.46735 0.33931 0.56987 0.0
C995 C 0.60758 0.33031 0.53948 0.0
C996 C 0.55403 0.34169 0.57706 0.0
H997 H 0.51391 0.33115 0.62126 0.0
C998 C 0.54048 0.35471 0.56252 0.0
C999 C 0.54421 0.33271 0.59822 0.0
C1000 C 0.55745 0.3177 0.61381 0.0
C1001 C 0.51763 0.35952 0.56901 0.0
C1002 C 0.50809 0.351 0.5905 0.0
C1003 C 0.52141 0.33771 0.60484 0.0
C1004 C 0.48444 0.35625 0.59862 0.0
C1005 C 0.50404 0.37417 0.55326 0.0
C1006 C 0.48121 0.36896 0.61897 0.0
C1007 C 0.45896 0.37523 0.62566 0.0
C1008 C 0.43956 0.36875 0.61218 0.0
C1009 C 0.44287 0.35543 0.59226 0.0
C1010 C 0.46514 0.34927 0.58553 0.0
H1011 H 0.51509 0.38184 0.53938 0.0
H1012 H 0.49017 0.36566 0.54359 0.0
H1013 H 0.49563 0.38606 0.56474 0.0
H1014 H 0.49597 0.37445 0.62929 0.0
H1015 H 0.45702 0.38542 0.64114 0.0
H1016 H 0.03305 0.38785 0.84014 0.0
H1017 H 0.99252 0.38083 0.85061 0.0
H1018 H 0.01456 0.34172 0.90956 0.0
H1019 H 0.05504 0.34848 0.89929 0.0
H1020 H 0.96881 0.33811 0.85831 0.0
H1021 H 0.97217 0.39027 0.93875 0.0
H1022 H 0.9919 0.39266 0.91326 0.0
H1023 H -0.00437 0.37241 0.93501 0.0
C1024 C 0.0293 0.37759 0.85518 0.0
C1025 C 0.04731 0.36884 0.86898 0.0
C1026 C 0.00616 0.37359 0.86108 0.0
C1027 C 0.0007 0.36091 0.88094 0.0
C1028 C 0.01854 0.35165 0.89425 0.0
H1029 H 0.87577 0.33377 0.96176 0.0
H1030 H 0.91552 0.33683 0.94685 0.0
C1031 C 0.04164 0.35553 0.88831 0.0
C1032 C 0.97637 0.35806 0.88854 0.0
H1033 H 0.93783 0.37141 0.933 0.0
C1034 C 0.96192 0.3454 0.87457 0.0
C1035 C 0.96765 0.36758 0.90981 0.0
C1036 C 0.98251 0.38161 0.9251 0.0
C1037 C 0.9389 0.34168 0.88164 0.0
C1038 C 0.9301 0.35129 0.9029 0.0
C1039 C 0.94462 0.36403 0.91675 0.0
C1040 C 0.90588 0.34841 0.91123 0.0
C1041 C 0.92446 0.32709 0.86665 0.0
C1042 C 0.88726 0.35397 0.89618 0.0
C1043 C 0.86449 0.35211 0.90459 0.0
C1044 C 0.85993 0.34492 0.92835 0.0
C1045 C 0.87865 0.33937 0.94338 0.0
C1046 C 0.90138 0.34111 0.93489 0.0
H1047 H 0.93545 0.31674 0.85546 0.0
H1048 H 0.91308 0.31763 0.87849 0.0
H1049 H 0.91334 0.33598 0.854 0.0
H1050 H 0.89033 0.36012 0.87809 0.0
H1051 H 0.8505 0.35666 0.89259 0.0
H1052 H 0.61278 0.65492 0.46809 0.0
H1053 H 0.57326 0.65288 0.45206 0.0
H1054 H 0.59981 0.63352 0.38214 0.0
H1055 H 0.63934 0.63548 0.39788 0.0
H1056 H 0.55357 0.67299 0.4075 0.0
H1057 H 0.55307 0.58784 0.40511 0.0
H1058 H 0.57337 0.60225 0.4234 0.0
H1059 H 0.57745 0.60026 0.39096 0.0
C1060 C 0.61024 0.6503 0.44928 0.0
C1061 C 0.62923 0.64522 0.43432 0.0
C1062 C 0.58767 0.6492 0.44015 0.0
C1063 C 0.58371 0.64287 0.41604 0.0
C1064 C 0.60258 0.63824 0.4009 0.0
H1065 H 0.45922 0.61085 0.33615 0.0
H1066 H 0.49911 0.6184 0.34802 0.0
C1067 C 0.62514 0.63941 0.40994 0.0
C1068 C 0.55981 0.64053 0.40687 0.0
H1069 H 0.52038 0.60465 0.38905 0.0
C1070 C 0.54624 0.65808 0.40345 0.0
C1071 C 0.55046 0.62105 0.40157 0.0
C1072 C 0.56421 0.60171 0.40557 0.0
C1073 C 0.52349 0.65666 0.39455 0.0
C1074 C 0.51402 0.63712 0.38949 0.0
C1075 C 0.5277 0.61961 0.39285 0.0
C1076 C 0.48979 0.63432 0.38128 0.0
C1077 C 0.51 0.67608 0.39021 0.0
C1078 C 0.4713 0.64086 0.39598 0.0
C1079 C 0.44847 0.63668 0.38919 0.0
C1080 C 0.4437 0.62561 0.36771 0.0
C1081 C 0.46226 0.61938 0.35281 0.0
C1082 C 0.48508 0.62367 0.35956 0.0
H1083 H 0.52166 0.68948 0.38791 0.0
H1084 H 0.49886 0.67474 0.37375 0.0
H1085 H 0.4987 0.67907 0.40623 0.0
H1086 H 0.47454 0.64867 0.4131 0.0
H1087 H 0.4346 0.6416 0.40116 0.0
H1088 H 0.23156 0.12199 0.14254 0.0
H1089 H 0.22342 0.12247 0.18644 0.0
H1090 H 0.28185 0.16254 0.19788 0.0
H1091 H 0.28958 0.1627 0.15399 0.0
H1092 H 0.24897 0.10979 0.22385 0.0
H1093 H 0.23226 0.19273 0.2344 0.0
H1094 H 0.23425 0.18057 0.20488 0.0
H1095 H 0.26011 0.18773 0.22117 0.0
C1096 C 0.24255 0.13102 0.15441 0.0
C1097 C 0.2611 0.14243 0.14483 0.0
C1098 C 0.2379 0.13127 0.17947 0.0
C1099 C 0.25176 0.14284 0.1954 0.0
C1100 C 0.27051 0.15398 0.18589 0.0
H1101 H 0.26134 0.12349 0.35224 0.0
H1102 H 0.26785 0.12427 0.30806 0.0
C1103 C 0.275 0.15394 0.16081 0.0
C1104 C 0.2471 0.14268 0.22204 0.0
H1105 H 0.23783 0.17376 0.27121 0.0
C1106 C 0.24637 0.12377 0.23419 0.0
C1107 C 0.24337 0.16091 0.23545 0.0
C1108 C 0.24229 0.1816 0.22326 0.0
C1109 C 0.24241 0.12259 0.25945 0.0
C1110 C 0.23982 0.14088 0.27304 0.0
C1111 C 0.24014 0.15977 0.26082 0.0
C1112 C 0.23629 0.14078 0.29988 0.0
C1113 C 0.24056 0.10174 0.27117 0.0
C1114 C 0.21689 0.15052 0.31006 0.0
C1115 C 0.21339 0.15046 0.33531 0.0
C1116 C 0.22917 0.14056 0.35085 0.0
C1117 C 0.24877 0.13107 0.34068 0.0
C1118 C 0.25241 0.13136 0.31543 0.0
H1119 H 0.2359 0.08978 0.25758 0.0
H1120 H 0.25756 0.09754 0.27916 0.0
H1121 H 0.2274 0.10163 0.28597 0.0
H1122 H 0.2043 0.15798 0.29842 0.0
H1123 H 0.19812 0.1579 0.3426 0.0
H1124 H 0.27478 0.81591 0.84573 0.0
H1125 H 0.2667 0.81514 0.80187 0.0
H1126 H 0.23362 0.87412 0.80705 0.0
H1127 H 0.24129 0.87489 0.85101 0.0
H1128 H 0.20883 0.84605 0.77909 0.0
H1129 H 0.30109 0.84929 0.75066 0.0
H1130 H 0.29439 0.82873 0.77127 0.0
H1131 H 0.2918 0.85478 0.78148 0.0
C1132 C 0.26574 0.8287 0.83755 0.0
C1133 C 0.25879 0.84552 0.85179 0.0
C1134 C 0.26126 0.82828 0.81248 0.0
C1135 C 0.24994 0.84474 0.80119 0.0
C1136 C 0.2425 0.86133 0.81543 0.0
H1137 H 0.24509 0.87233 0.64654 0.0
H1138 H 0.2516 0.87231 0.6907 0.0
C1139 C 0.24692 0.86174 0.84052 0.0
C1140 C 0.24583 0.84467 0.7745 0.0
H1141 H 0.27347 0.84333 0.71937 0.0
C1142 C 0.22294 0.84549 0.766 0.0
C1143 C 0.26432 0.84422 0.75753 0.0
C1144 C 0.2893 0.8444 0.76563 0.0
C1145 C 0.218 0.8456 0.7409 0.0
C1146 C 0.23646 0.84452 0.72394 0.0
C1147 C 0.25936 0.84396 0.73245 0.0
C1148 C 0.23244 0.84437 0.69724 0.0
C1149 C 0.19311 0.84727 0.73276 0.0
C1150 C 0.21978 0.8285 0.68628 0.0
C1151 C 0.21597 0.82849 0.66107 0.0
C1152 C 0.22493 0.84428 0.64637 0.0
C1153 C 0.23793 0.85997 0.65737 0.0
C1154 C 0.24167 0.85999 0.68258 0.0
H1155 H 0.18179 0.85323 0.74757 0.0
H1156 H 0.19151 0.85746 0.71661 0.0
H1157 H 0.18666 0.83187 0.72757 0.0
H1158 H 0.21293 0.81606 0.69721 0.0
H1159 H 0.206 0.81612 0.65311 0.0
H1160 H 0.70865 0.87585 0.84536 0.0
H1161 H 0.73663 0.87715 0.81185 0.0
H1162 H 0.68098 0.87254 0.75961 0.0
H1163 H 0.65286 0.87087 0.79306 0.0
H1164 H 0.71735 0.84622 0.74983 0.0
H1165 H 0.74976 0.92504 0.76619 0.0
H1166 H 0.75138 0.90866 0.79248 0.0
H1167 H 0.72357 0.91538 0.7801 0.0
C1168 C 0.70234 0.87521 0.82674 0.0
C1169 C 0.67854 0.87334 0.82184 0.0
C1170 C 0.71835 0.87608 0.80761 0.0
C1171 C 0.71084 0.8753 0.78326 0.0
C1172 C 0.6871 0.87329 0.7783 0.0
H1173 H 0.77824 0.87732 0.64171 0.0
H1174 H 0.75057 0.87687 0.67556 0.0
C1175 C 0.67107 0.87236 0.79742 0.0
C1176 C 0.72779 0.8759 0.76296 0.0
H1177 H 0.77051 0.90501 0.73728 0.0
C1178 C 0.72889 0.85912 0.74699 0.0
C1179 C 0.74285 0.89273 0.75937 0.0
C1180 C 0.74175 0.91157 0.77529 0.0
C1181 C 0.7449 0.85858 0.72771 0.0
C1182 C 0.75997 0.87538 0.72418 0.0
C1183 C 0.75893 0.89214 0.74014 0.0
C1184 C 0.77676 0.87593 0.70378 0.0
C1185 C 0.74585 0.83991 0.71151 0.0
C1186 C 0.80062 0.876 0.70852 0.0
C1187 C 0.8165 0.87628 0.68922 0.0
C1188 C 0.80873 0.87667 0.66489 0.0
C1189 C 0.78478 0.87695 0.66025 0.0
C1190 C 0.76894 0.87659 0.67954 0.0
H1191 H 0.73696 0.82658 0.71994 0.0
H1192 H 0.73714 0.84335 0.69391 0.0
H1193 H 0.76407 0.83563 0.70747 0.0
H1194 H 0.80694 0.87561 0.72715 0.0
H1195 H 0.83484 0.87613 0.69337 0.0
H1196 H 0.83837 0.12086 0.29211 0.0
H1197 H 0.80987 0.11967 0.25896 0.0
H1198 H 0.75449 0.11847 0.31185 0.0
H1199 H 0.78276 0.11972 0.34506 0.0
H1200 H 0.77487 0.08849 0.25154 0.0
H1201 H 0.73739 0.16602 0.26479 0.0
H1202 H 0.76516 0.15871 0.27717 0.0
H1203 H 0.73893 0.15046 0.29183 0.0
C1204 C 0.82012 0.12044 0.29667 0.0
C1205 C 0.8128 0.12044 0.32118 0.0
C1206 C 0.8039 0.11974 0.27774 0.0
C1207 C 0.78013 0.11923 0.28302 0.0
C1208 C 0.77277 0.11918 0.30744 0.0
H1209 H 0.65445 0.11529 0.19655 0.0
H1210 H 0.68315 0.11596 0.22946 0.0
C1211 C 0.78895 0.1198 0.32636 0.0
C1212 C 0.76298 0.11818 0.26302 0.0
H1213 H 0.71823 0.14417 0.23677 0.0
C1214 C 0.76254 0.10068 0.24818 0.0
C1215 C 0.7469 0.13409 0.25887 0.0
C1216 C 0.74713 0.15348 0.27384 0.0
C1217 C 0.7461 0.09849 0.22949 0.0
C1218 C 0.73004 0.11444 0.22526 0.0
C1219 C 0.73053 0.13196 0.24011 0.0
C1220 C 0.71273 0.11339 0.20536 0.0
C1221 C 0.74573 0.07892 0.21484 0.0
C1222 C 0.71989 0.11186 0.18092 0.0
C1223 C 0.70356 0.11138 0.16212 0.0
C1224 C 0.67977 0.11264 0.16741 0.0
C1225 C 0.67264 0.11425 0.1919 0.0
C1226 C 0.689 0.11466 0.21071 0.0
H1227 H 0.75458 0.06625 0.22461 0.0
H1228 H 0.7277 0.07413 0.2107 0.0
H1229 H 0.75492 0.08143 0.19728 0.0
H1230 H 0.73813 0.11134 0.17635 0.0
H1231 H 0.70961 0.11029 0.14342 0.0
H1232 H 0.7593 0.62113 0.35627 0.0
H1233 H 0.76774 0.62187 0.31245 0.0
H1234 H 0.70948 0.66202 0.30092 0.0
H1235 H 0.7015 0.66196 0.34477 0.0
H1236 H 0.74253 0.60913 0.27521 0.0
H1237 H 0.75876 0.69206 0.26403 0.0
H1238 H 0.75671 0.6801 0.29366 0.0
H1239 H 0.73089 0.6871 0.27722 0.0
C1240 C 0.74843 0.63027 0.34441 0.0
C1241 C 0.72984 0.6416 0.35394 0.0
C1242 C 0.75326 0.63067 0.31938 0.0
C1243 C 0.7395 0.64229 0.30344 0.0
C1244 C 0.72075 0.65343 0.31293 0.0
H1245 H 0.72816 0.62209 0.1471 0.0
H1246 H 0.72265 0.62276 0.19142 0.0
C1247 C 0.71611 0.65326 0.33798 0.0
C1248 C 0.74413 0.64204 0.27678 0.0
H1249 H 0.75274 0.67294 0.22732 0.0
C1250 C 0.74495 0.62308 0.26476 0.0
C1251 C 0.74765 0.66022 0.26322 0.0
C1252 C 0.74871 0.68099 0.27524 0.0
C1253 C 0.74873 0.62179 0.23948 0.0
C1254 C 0.75101 0.64003 0.22572 0.0
C1255 C 0.75066 0.65898 0.23782 0.0
C1256 C 0.75405 0.63983 0.19881 0.0
C1257 C 0.7507 0.60089 0.22792 0.0
C1258 C 0.77303 0.64988 0.18814 0.0
C1259 C 0.77594 0.64989 0.16281 0.0
C1260 C 0.75998 0.63974 0.14767 0.0
C1261 C 0.74086 0.62985 0.15834 0.0
C1262 C 0.7378 0.63009 0.18367 0.0
H1263 H 0.75582 0.58911 0.24152 0.0
H1264 H 0.73361 0.59638 0.22037 0.0
H1265 H 0.76356 0.60086 0.21283 0.0
H1266 H 0.78573 0.65758 0.19946 0.0
H1267 H 0.79085 0.65763 0.15511 0.0
H1268 H 0.70702 0.31358 0.64857 0.0
H1269 H 0.71443 0.31377 0.69259 0.0
H1270 H 0.74657 0.37316 0.68636 0.0
H1271 H 0.73956 0.37298 0.64229 0.0
H1272 H 0.77203 0.34575 0.71418 0.0
H1273 H 0.68014 0.34777 0.74403 0.0
H1274 H 0.68696 0.32717 0.72353 0.0
H1275 H 0.6889 0.35317 0.71302 0.0
C1276 C 0.71564 0.32669 0.65657 0.0
C1277 C 0.72264 0.3433 0.64198 0.0
C1278 C 0.71972 0.32683 0.68174 0.0
C1279 C 0.73071 0.34362 0.69275 0.0
C1280 C 0.73796 0.3601 0.6782 0.0
H1281 H 0.73878 0.37295 0.84698 0.0
H1282 H 0.73082 0.37233 0.80306 0.0
C1283 C 0.73392 0.35997 0.65304 0.0
C1284 C 0.73513 0.34387 0.71938 0.0
H1285 H 0.70833 0.3426 0.77499 0.0
C1286 C 0.75812 0.3451 0.7275 0.0
C1287 C 0.7169 0.34327 0.73665 0.0
C1288 C 0.69181 0.34297 0.72894 0.0
C1289 C 0.76343 0.3455 0.7525 0.0
C1290 C 0.74524 0.34428 0.76978 0.0
C1291 C 0.72222 0.34332 0.76166 0.0
C1292 C 0.74975 0.34433 0.79638 0.0
C1293 C 0.78841 0.34759 0.7602 0.0
C1294 C 0.76271 0.3286 0.80718 0.0
C1295 C 0.76734 0.32893 0.83223 0.0
C1296 C 0.75894 0.34494 0.84693 0.0
C1297 C 0.74555 0.36045 0.83613 0.0
C1298 C 0.74096 0.36011 0.81107 0.0
H1299 H 0.79943 0.35352 0.74512 0.0
H1300 H 0.79008 0.358 0.77615 0.0
H1301 H 0.79515 0.33234 0.76557 0.0
H1302 H 0.76925 0.31607 0.79622 0.0
H1303 H 0.77758 0.31669 0.84003 0.0
H1304 H 0.28039 0.38816 0.64463 0.0
H1305 H 0.25329 0.38809 0.67888 0.0
H1306 H 0.31009 0.38047 0.7292 0.0
H1307 H 0.33738 0.38009 0.69489 0.0
H1308 H 0.27448 0.35375 0.73795 0.0
H1309 H 0.2402 0.43254 0.7286 0.0
H1310 H 0.238 0.41796 0.70092 0.0
H1311 H 0.2661 0.4241 0.7131 0.0
C1312 C 0.28717 0.38665 0.66299 0.0
C1313 C 0.31104 0.38417 0.66707 0.0
C1314 C 0.27165 0.38675 0.68257 0.0
C1315 C 0.27971 0.38463 0.70661 0.0
C1316 C 0.30354 0.38226 0.71078 0.0
H1317 H 0.20944 0.37721 0.84705 0.0
H1318 H 0.23819 0.37968 0.81433 0.0
C1319 C 0.3191 0.38207 0.69117 0.0
C1320 C 0.2631 0.38382 0.72725 0.0
H1321 H 0.21903 0.40998 0.75476 0.0
C1322 C 0.26251 0.36612 0.74178 0.0
C1323 C 0.24748 0.39998 0.73217 0.0
C1324 C 0.24808 0.4198 0.71803 0.0
C1325 C 0.24631 0.36394 0.76074 0.0
C1326 C 0.23047 0.37994 0.76535 0.0
C1327 C 0.23116 0.39771 0.75101 0.0
C1328 C 0.21305 0.37851 0.78509 0.0
C1329 C 0.24589 0.34436 0.77536 0.0
C1330 C 0.18941 0.37735 0.7794 0.0
C1331 C 0.17292 0.37589 0.79804 0.0
C1332 C 0.17984 0.3758 0.82267 0.0
C1333 C 0.20356 0.3772 0.82826 0.0
C1334 C 0.22002 0.37854 0.80962 0.0
H1335 H 0.25611 0.33203 0.76647 0.0
H1336 H 0.25336 0.34725 0.79371 0.0
H1337 H 0.22782 0.33892 0.77791 0.0
H1338 H 0.18375 0.37739 0.76053 0.0
H1339 H 0.15477 0.3749 0.79317 0.0
H1340 H 0.32889 0.64245 0.29608 0.0
H1341 H 0.29933 0.6438 0.26404 0.0
H1342 H 0.26439 0.59223 0.29696 0.0
H1343 H 0.29293 0.59189 0.3299 0.0
H1344 H 0.28669 0.62018 0.23017 0.0
H1345 H 0.21082 0.6287 0.29063 0.0
H1346 H 0.24001 0.63017 0.30207 0.0
H1347 H 0.22607 0.60568 0.29797 0.0
C1348 C 0.31479 0.63149 0.29646 0.0
C1349 C 0.31296 0.61722 0.31552 0.0
C1350 C 0.29792 0.63226 0.27818 0.0
C1351 C 0.27919 0.61847 0.27839 0.0
C1352 C 0.27804 0.60359 0.29689 0.0
H1353 H 0.19715 0.59182 0.14922 0.0
H1354 H 0.22628 0.5929 0.18158 0.0
C1355 C 0.2945 0.60325 0.31556 0.0
C1356 C 0.26121 0.61935 0.25897 0.0
H1357 H 0.20282 0.61825 0.24948 0.0
C1358 C 0.26834 0.62 0.23443 0.0
C1359 C 0.23721 0.61964 0.2644 0.0
C1360 C 0.22812 0.62126 0.29021 0.0
C1361 C 0.25225 0.62047 0.21524 0.0
C1362 C 0.22829 0.61911 0.22066 0.0
C1363 C 0.22115 0.61892 0.2452 0.0
C1364 C 0.21029 0.61798 0.20127 0.0
C1365 C 0.26122 0.62298 0.18949 0.0
C1366 C 0.19082 0.63087 0.2022 0.0
C1367 C 0.17365 0.62963 0.18427 0.0
C1368 C 0.1759 0.6158 0.16481 0.0
C1369 C 0.19522 0.60281 0.1639 0.0
C1370 C 0.21201 0.6036 0.18225 0.0
H1371 H 0.27814 0.63111 0.18929 0.0
H1372 H 0.26402 0.60765 0.18128 0.0
H1373 H 0.24889 0.63164 0.1779 0.0
H1374 H 0.18896 0.64203 0.21671 0.0
H1375 H 0.15892 0.63985 0.1853 0.0
loop_
_geom_bond_atom_site_label_1
_geom_bond_atom_site_label_2
_geom_bond_distance
_geom_bond_site_symmetry_2
_ccdc_geom_bond_type
C0 O1 1.306 . S
C0 O3 1.160 . S
O1 C0 1.306 . S
O1 Cd2 2.228 . S
Cd2 O1 2.228 . S
Cd2 O6 2.273 . S
Cd2 O10 2.277 . S
O3 C0 1.160 . S
O3 Cd4 2.203 . S
Cd4 O3 2.203 . S
Cd4 O6 2.411 . S
Cd4 O7 2.333 . S
Cd4 O8 2.352 . S
Cd4 O12 2.277 . S
Cd4 O13 2.356 . S
C5 O10 1.209 . S
C5 O12 1.226 . S
O6 Cd2 2.273 . S
O6 Cd4 2.411 . S
O6 C9 1.320 . S
O7 Cd4 2.333 . S
O7 C9 1.214 . S
O8 Cd4 2.352 . S
O8 C11 1.258 . S
C9 O6 1.320 . S
C9 O7 1.214 . S
O10 Cd2 2.277 . S
O10 C5 1.209 . S
C11 O8 1.258 . S
C11 O13 1.282 . S
O12 Cd4 2.277 . S
O12 C5 1.226 . S
O13 Cd4 2.356 . S
O13 C11 1.282 . S
C14 O15 1.306 . S
C14 O17 1.160 . S
O15 C14 1.306 . S
O15 Cd16 2.228 . S
Cd16 O15 2.228 . S
Cd16 O20 2.273 . S
Cd16 O24 2.277 . S
O17 C14 1.160 . S
O17 Cd18 2.203 . S
Cd18 O17 2.203 . S
Cd18 O20 2.411 . S
Cd18 O21 2.333 . S
Cd18 O22 2.352 . S
Cd18 O26 2.277 . S
Cd18 O27 2.356 . S
C19 O24 1.209 . S
C19 O26 1.226 . S
O20 Cd16 2.273 . S
O20 Cd18 2.411 . S
O20 C23 1.320 . S
O21 Cd18 2.333 . S
O21 C23 1.214 . S
O22 Cd18 2.352 . S
O22 C25 1.258 . S
C23 O20 1.320 . S
C23 O21 1.214 . S
O24 Cd16 2.277 . S
O24 C19 1.209 . S
C25 O22 1.258 . S
C25 O27 1.282 . S
O26 Cd18 2.277 . S
O26 C19 1.226 . S
O27 Cd18 2.356 . S
O27 C25 1.282 . S
C28 O29 1.306 . S
C28 O31 1.160 . S
O29 C28 1.306 . S
O29 Cd30 2.228 . S
Cd30 O29 2.228 . S
Cd30 O34 2.273 . S
Cd30 O38 2.277 . S
O31 C28 1.160 . S
O31 Cd32 2.203 . S
Cd32 O31 2.203 . S
Cd32 O34 2.411 . S
Cd32 O35 2.333 . S
Cd32 O36 2.352 . S
Cd32 O40 2.277 . S
Cd32 O41 2.356 . S
C33 O38 1.209 . S
C33 O40 1.226 . S
O34 Cd30 2.273 . S
O34 Cd32 2.411 . S
O34 C37 1.320 . S
O35 Cd32 2.333 . S
O35 C37 1.214 . S
O36 Cd32 2.352 . S
O36 C39 1.258 . S
C37 O34 1.320 . S
C37 O35 1.214 . S
O38 Cd30 2.277 . S
O38 C33 1.209 . S
C39 O36 1.258 . S
C39 O41 1.282 . S
O40 Cd32 2.277 . S
O40 C33 1.226 . S
O41 Cd32 2.356 . S
O41 C39 1.282 . S
C42 O43 1.306 . S
C42 O45 1.160 . S
O43 C42 1.306 . S
O43 Cd44 2.228 . S
Cd44 O43 2.228 . S
Cd44 O48 2.273 . S
Cd44 O52 2.277 . S
O45 C42 1.160 . S
O45 Cd46 2.203 . S
Cd46 O45 2.203 . S
Cd46 O48 2.411 . S
Cd46 O49 2.333 . S
Cd46 O50 2.352 . S
Cd46 O54 2.277 . S
Cd46 O55 2.356 . S
C47 O52 1.209 . S
C47 O54 1.226 . S
O48 Cd44 2.273 . S
O48 Cd46 2.411 . S
O48 C51 1.320 . S
O49 Cd46 2.333 . S
O49 C51 1.214 . S
O50 Cd46 2.352 . S
O50 C53 1.258 . S
C51 O48 1.320 . S
C51 O49 1.214 . S
O52 Cd44 2.277 . S
O52 C47 1.209 . S
C53 O50 1.258 . S
C53 O55 1.282 . S
O54 Cd46 2.277 . S
O54 C47 1.226 . S
O55 Cd46 2.356 . S
O55 C53 1.282 . S
C56 O57 1.306 . S
C56 O59 1.160 . S
O57 C56 1.306 . S
O57 Cd58 2.228 . S
Cd58 O57 2.228 . S
Cd58 O62 2.273 . S
Cd58 O66 2.277 . S
O59 C56 1.160 . S
O59 Cd60 2.203 . S
Cd60 O59 2.203 . S
Cd60 O62 2.411 . S
Cd60 O63 2.333 . S
Cd60 O64 2.352 . S
Cd60 O68 2.277 . S
Cd60 O69 2.356 . S
C61 O66 1.209 . S
C61 O68 1.226 . S
O62 Cd58 2.273 . S
O62 Cd60 2.411 . S
O62 C65 1.320 . S
O63 Cd60 2.333 . S
O63 C65 1.214 . S
O64 Cd60 2.352 . S
O64 C67 1.258 . S
C65 O62 1.320 . S
C65 O63 1.214 . S
O66 Cd58 2.277 . S
O66 C61 1.209 . S
C67 O64 1.258 . S
C67 O69 1.282 . S
O68 Cd60 2.277 . S
O68 C61 1.226 . S
O69 Cd60 2.356 . S
O69 C67 1.282 . S
C70 O71 1.306 . S
C70 O73 1.160 . S
O71 C70 1.306 . S
O71 Cd72 2.228 . S
Cd72 O71 2.228 . S
Cd72 O76 2.273 . S
Cd72 O80 2.277 . S
O73 C70 1.160 . S
O73 Cd74 2.203 . S
Cd74 O73 2.203 . S
Cd74 O76 2.411 . S
Cd74 O77 2.333 . S
Cd74 O78 2.352 . S
Cd74 O82 2.277 . S
Cd74 O83 2.356 . S
C75 O80 1.209 . S
C75 O82 1.226 . S
O76 Cd72 2.273 . S
O76 Cd74 2.411 . S
O76 C79 1.320 . S
O77 Cd74 2.333 . S
O77 C79 1.214 . S
O78 Cd74 2.352 . S
O78 C81 1.258 . S
C79 O76 1.320 . S
C79 O77 1.214 . S
O80 Cd72 2.277 . S
O80 C75 1.209 . S
C81 O78 1.258 . S
C81 O83 1.282 . S
O82 Cd74 2.277 . S
O82 C75 1.226 . S
O83 Cd74 2.356 . S
O83 C81 1.282 . S
C84 O85 1.306 . S
C84 O87 1.160 . S
O85 C84 1.306 . S
O85 Cd86 2.228 . S
Cd86 O85 2.228 . S
Cd86 O90 2.273 . S
Cd86 O94 2.277 . S
O87 C84 1.160 . S
O87 Cd88 2.203 . S
Cd88 O87 2.203 . S
Cd88 O90 2.411 . S
Cd88 O91 2.333 . S
Cd88 O92 2.352 . S
Cd88 O96 2.277 . S
Cd88 O97 2.356 . S
C89 O94 1.209 . S
C89 O96 1.226 . S
O90 Cd86 2.273 . S
O90 Cd88 2.411 . S
O90 C93 1.320 . S
O91 Cd88 2.333 . S
O91 C93 1.214 . S
O92 Cd88 2.352 . S
O92 C95 1.258 . S
C93 O90 1.320 . S
C93 O91 1.214 . S
O94 Cd86 2.277 . S
O94 C89 1.209 . S
C95 O92 1.258 . S
C95 O97 1.282 . S
O96 Cd88 2.277 . S
O96 C89 1.226 . S
O97 Cd88 2.356 . S
O97 C95 1.282 . S
C98 O99 1.306 . S
C98 O101 1.160 . S
O99 C98 1.306 . S
O99 Cd100 2.228 . S
Cd100 O99 2.228 . S
Cd100 O104 2.273 . S
Cd100 O108 2.277 . S
O101 C98 1.160 . S
O101 Cd102 2.203 . S
Cd102 O101 2.203 . S
Cd102 O104 2.411 . S
Cd102 O105 2.333 . S
Cd102 O106 2.352 . S
Cd102 O110 2.277 . S
Cd102 O111 2.356 . S
C103 O108 1.209 . S
C103 O110 1.226 . S
O104 Cd100 2.273 . S
O104 Cd102 2.411 . S
O104 C107 1.320 . S
O105 Cd102 2.333 . S
O105 C107 1.214 . S
O106 Cd102 2.352 . S
O106 C109 1.258 . S
C107 O104 1.320 . S
C107 O105 1.214 . S
O108 Cd100 2.277 . S
O108 C103 1.209 . S
C109 O106 1.258 . S
C109 O111 1.282 . S
O110 Cd102 2.277 . S
O110 C103 1.226 . S
O111 Cd102 2.356 . S
O111 C109 1.282 . S
C112 O113 1.306 . S
C112 O115 1.160 . S
O113 C112 1.306 . S
O113 Cd114 2.228 . S
Cd114 O113 2.228 . S
Cd114 O118 2.273 . S
Cd114 O122 2.277 . S
O115 C112 1.160 . S
O115 Cd116 2.203 . S
Cd116 O115 2.203 . S
Cd116 O118 2.411 . S
Cd116 O119 2.333 . S
Cd116 O120 2.352 . S
Cd116 O124 2.277 . S
Cd116 O125 2.356 . S
C117 O122 1.209 . S
C117 O124 1.226 . S
O118 Cd114 2.273 . S
O118 Cd116 2.411 . S
O118 C121 1.320 . S
O119 Cd116 2.333 . S
O119 C121 1.214 . S
O120 Cd116 2.352 . S
O120 C123 1.258 . S
C121 O118 1.320 . S
C121 O119 1.214 . S
O122 Cd114 2.277 . S
O122 C117 1.209 . S
C123 O120 1.258 . S
C123 O125 1.282 . S
O124 Cd116 2.277 . S
O124 C117 1.226 . S
O125 Cd116 2.356 . S
O125 C123 1.282 . S
C126 O127 1.306 . S
C126 O129 1.160 . S
O127 C126 1.306 . S
O127 Cd128 2.228 . S
Cd128 O127 2.228 . S
Cd128 O132 2.273 . S
Cd128 O136 2.277 . S
O129 C126 1.160 . S
O129 Cd130 2.203 . S
Cd130 O129 2.203 . S
Cd130 O132 2.411 . S
Cd130 O133 2.333 . S
Cd130 O134 2.352 . S
Cd130 O138 2.277 . S
Cd130 O139 2.356 . S
C131 O136 1.209 . S
C131 O138 1.226 . S
O132 Cd128 2.273 . S
O132 Cd130 2.411 . S
O132 C135 1.320 . S
O133 Cd130 2.333 . S
O133 C135 1.214 . S
O134 Cd130 2.352 . S
O134 C137 1.258 . S
C135 O132 1.320 . S
C135 O133 1.214 . S
O136 Cd128 2.277 . S
O136 C131 1.209 . S
C137 O134 1.258 . S
C137 O139 1.282 . S
O138 Cd130 2.277 . S
O138 C131 1.226 . S
O139 Cd130 2.356 . S
O139 C137 1.282 . S
C140 O141 1.306 . S
C140 O143 1.160 . S
O141 C140 1.306 . S
O141 Cd142 2.228 . S
Cd142 O141 2.228 . S
Cd142 O146 2.273 . S
Cd142 O150 2.277 . S
O143 C140 1.160 . S
O143 Cd144 2.203 . S
Cd144 O143 2.203 . S
Cd144 O146 2.411 . S
Cd144 O147 2.333 . S
Cd144 O148 2.352 . S
Cd144 O152 2.277 . S
Cd144 O153 2.356 . S
C145 O150 1.209 . S
C145 O152 1.226 . S
O146 Cd142 2.273 . S
O146 Cd144 2.411 . S
O146 C149 1.320 . S
O147 Cd144 2.333 . S
O147 C149 1.214 . S
O148 Cd144 2.352 . S
O148 C151 1.258 . S
C149 O146 1.320 . S
C149 O147 1.214 . S
O150 Cd142 2.277 . S
O150 C145 1.209 . S
C151 O148 1.258 . S
C151 O153 1.282 . S
O152 Cd144 2.277 . S
O152 C145 1.226 . S
O153 Cd144 2.356 . S
O153 C151 1.282 . S
C154 O155 1.306 . S
C154 O157 1.160 . S
O155 C154 1.306 . S
O155 Cd156 2.228 . S
Cd156 O155 2.228 . S
Cd156 O160 2.273 . S
Cd156 O164 2.277 . S
O157 C154 1.160 . S
O157 Cd158 2.203 . S
Cd158 O157 2.203 . S
Cd158 O160 2.411 . S
Cd158 O161 2.333 . S
Cd158 O162 2.352 . S
Cd158 O166 2.277 . S
Cd158 O167 2.356 . S
C159 O164 1.209 . S
C159 O166 1.226 . S
O160 Cd156 2.273 . S
O160 Cd158 2.411 . S
O160 C163 1.320 . S
O161 Cd158 2.333 . S
O161 C163 1.214 . S
O162 Cd158 2.352 . S
O162 C165 1.258 . S
C163 O160 1.320 . S
C163 O161 1.214 . S
O164 Cd156 2.277 . S
O164 C159 1.209 . S
C165 O162 1.258 . S
C165 O167 1.282 . S
O166 Cd158 2.277 . S
O166 C159 1.226 . S
O167 Cd158 2.356 . S
O167 C165 1.282 . S
C168 O169 1.306 . S
C168 O171 1.160 . S
O169 C168 1.306 . S
O169 Cd170 2.228 . S
Cd170 O169 2.228 . S
Cd170 O174 2.273 . S
Cd170 O178 2.277 . S
O171 C168 1.160 . S
O171 Cd172 2.203 . S
Cd172 O171 2.203 . S
Cd172 O174 2.411 . S
Cd172 O175 2.333 . S
Cd172 O176 2.352 . S
Cd172 O180 2.277 . S
Cd172 O181 2.356 . S
C173 O178 1.209 . S
C173 O180 1.226 . S
O174 Cd170 2.273 . S
O174 Cd172 2.411 . S
O174 C177 1.320 . S
O175 Cd172 2.333 . S
O175 C177 1.214 . S
O176 Cd172 2.352 . S
O176 C179 1.258 . S
C177 O174 1.320 . S
C177 O175 1.214 . S
O178 Cd170 2.277 . S
O178 C173 1.209 . S
C179 O176 1.258 . S
C179 O181 1.282 . S
O180 Cd172 2.277 . S
O180 C173 1.226 . S
O181 Cd172 2.356 . S
O181 C179 1.282 . S
C182 O183 1.306 . S
C182 O185 1.160 . S
O183 C182 1.306 . S
O183 Cd184 2.228 . S
Cd184 O183 2.228 . S
Cd184 O188 2.273 . S
Cd184 O192 2.277 . S
O185 C182 1.160 . S
O185 Cd186 2.203 . S
Cd186 O185 2.203 . S
Cd186 O188 2.411 . S
Cd186 O189 2.333 . S
Cd186 O190 2.352 . S
Cd186 O194 2.277 . S
Cd186 O195 2.356 . S
C187 O192 1.209 . S
C187 O194 1.226 . S
O188 Cd184 2.273 . S
O188 Cd186 2.411 . S
O188 C191 1.320 . S
O189 Cd186 2.333 . S
O189 C191 1.214 . S
O190 Cd186 2.352 . S
O190 C193 1.258 . S
C191 O188 1.320 . S
C191 O189 1.214 . S
O192 Cd184 2.277 . S
O192 C187 1.209 . S
C193 O190 1.258 . S
C193 O195 1.282 . S
O194 Cd186 2.277 . S
O194 C187 1.226 . S
O195 Cd186 2.356 . S
O195 C193 1.282 . S
C196 O197 1.306 . S
C196 O199 1.160 . S
O197 C196 1.306 . S
O197 Cd198 2.228 . S
Cd198 O197 2.228 . S
Cd198 O202 2.273 . S
Cd198 O206 2.277 . S
O199 C196 1.160 . S
O199 Cd200 2.203 . S
Cd200 O199 2.203 . S
Cd200 O202 2.411 . S
Cd200 O203 2.333 . S
Cd200 O204 2.352 . S
Cd200 O208 2.277 . S
Cd200 O209 2.356 . S
C201 O206 1.209 . S
C201 O208 1.226 . S
O202 Cd198 2.273 . S
O202 Cd200 2.411 . S
O202 C205 1.320 . S
O203 Cd200 2.333 . S
O203 C205 1.214 . S
O204 Cd200 2.352 . S
O204 C207 1.258 . S
C205 O202 1.320 . S
C205 O203 1.214 . S
O206 Cd198 2.277 . S
O206 C201 1.209 . S
C207 O204 1.258 . S
C207 O209 1.282 . S
O208 Cd200 2.277 . S
O208 C201 1.226 . S
O209 Cd200 2.356 . S
O209 C207 1.282 . S
C210 O211 1.306 . S
C210 O213 1.160 . S
O211 C210 1.306 . S
O211 Cd212 2.228 . S
Cd212 O211 2.228 . S
Cd212 O216 2.273 . S
Cd212 O220 2.277 . S
O213 C210 1.160 . S
O213 Cd214 2.203 . S
Cd214 O213 2.203 . S
Cd214 O216 2.411 . S
Cd214 O217 2.333 . S
Cd214 O218 2.352 . S
Cd214 O222 2.277 . S
Cd214 O223 2.356 . S
C215 O220 1.209 . S
C215 O222 1.226 . S
O216 Cd212 2.273 . S
O216 Cd214 2.411 . S
O216 C219 1.320 . S
O217 Cd214 2.333 . S
O217 C219 1.214 . S
O218 Cd214 2.352 . S
O218 C221 1.258 . S
C219 O216 1.320 . S
C219 O217 1.214 . S
O220 Cd212 2.277 . S
O220 C215 1.209 . S
C221 O218 1.258 . S
C221 O223 1.282 . S
O222 Cd214 2.277 . S
O222 C215 1.226 . S
O223 Cd214 2.356 . S
O223 C221 1.282 . S
H224 C232 0.929 . S
H225 C234 0.930 . S
H226 C236 0.930 . S
H227 C239 0.929 . S
H228 C242 0.930 . S
H229 C244 0.960 . S
H230 C244 0.960 . S
H231 C244 0.960 . S
C232 H224 0.929 . S
C232 C233 1.377 . S
C232 C234 1.384 . S
C233 C232 1.377 . S
C233 C239 1.390 . S
C234 H225 0.930 . S
C234 C232 1.384 . S
C234 C235 1.372 . S
C235 C234 1.372 . S
C235 C236 1.400 . S
C235 C240 1.490 . S
C236 H226 0.930 . S
C236 C235 1.400 . S
C236 C239 1.386 . S
H237 C253 0.930 . S
H238 C254 0.931 . S
C239 H227 0.929 . S
C239 C233 1.390 . S
C239 C236 1.386 . S
C240 C235 1.490 . S
C240 C242 1.395 1_554 S
C240 C243 1.403 . S
H241 C247 0.930 1_554 S
C242 H228 0.930 . S
C242 C240 1.395 1_556 S
C242 C245 1.403 . S
C243 C240 1.403 . S
C243 C244 1.524 . S
C243 C247 1.400 1_554 S
C244 H229 0.960 . S
C244 H230 0.960 . S
C244 H231 0.960 . S
C244 C243 1.524 . S
C245 C242 1.403 . S
C245 C246 1.392 . S
C245 C249 1.495 . S
C246 C245 1.392 . S
C246 C247 1.385 . S
C246 C248 1.478 . S
C247 H241 0.930 1_556 S
C247 C243 1.400 1_556 S
C247 C246 1.385 . S
C248 C246 1.478 . S
C248 C250 1.381 . S
C248 C254 1.383 . S
C249 C245 1.495 . S
C249 H255 0.959 . S
C249 H256 0.961 . S
C249 H257 0.960 . S
C250 C248 1.381 . S
C250 C251 1.394 . S
C250 H258 0.930 . S
C251 C250 1.394 . S
C251 C252 1.383 . S
C251 H259 0.929 . S
C252 C251 1.383 . S
C252 C253 1.377 . S
C253 H237 0.930 . S
C253 C252 1.377 . S
C253 C254 1.379 . S
C254 H238 0.931 . S
C254 C248 1.383 . S
C254 C253 1.379 . S
H255 C249 0.959 . S
H256 C249 0.961 . S
H257 C249 0.960 . S
H258 C250 0.930 . S
H259 C251 0.929 . S
H260 C268 0.929 . S
H261 C270 0.930 . S
H262 C272 0.930 . S
H263 C275 0.929 . S
H264 C278 0.930 . S
H265 C280 0.960 . S
H266 C280 0.960 . S
H267 C280 0.960 . S
C268 H260 0.929 . S
C268 C269 1.377 . S
C268 C270 1.384 . S
C269 C268 1.377 . S
C269 C275 1.390 . S
C270 H261 0.930 . S
C270 C268 1.384 . S
C270 C271 1.372 . S
C271 C270 1.372 . S
C271 C272 1.400 . S
C271 C276 1.490 . S
C272 H262 0.930 . S
C272 C271 1.400 . S
C272 C275 1.386 . S
H273 C289 0.930 . S
H274 C290 0.931 . S
C275 H263 0.929 . S
C275 C269 1.390 . S
C275 C272 1.386 . S
C276 C271 1.490 . S
C276 C278 1.395 . S
C276 C279 1.403 . S
H277 C283 0.930 . S
C278 H264 0.930 . S
C278 C276 1.395 . S
C278 C281 1.403 . S
C279 C276 1.403 . S
C279 C280 1.524 . S
C279 C283 1.400 . S
C280 H265 0.960 . S
C280 H266 0.960 . S
C280 H267 0.960 . S
C280 C279 1.524 . S
C281 C278 1.403 . S
C281 C282 1.392 . S
C281 C285 1.495 . S
C282 C281 1.392 . S
C282 C283 1.385 . S
C282 C284 1.478 . S
C283 H277 0.930 . S
C283 C279 1.400 . S
C283 C282 1.385 . S
C284 C282 1.478 . S
C284 C286 1.381 . S
C284 C290 1.383 . S
C285 C281 1.495 . S
C285 H291 0.959 . S
C285 H292 0.961 . S
C285 H293 0.960 . S
C286 C284 1.381 . S
C286 C287 1.394 . S
C286 H294 0.930 . S
C287 C286 1.394 . S
C287 C288 1.383 . S
C287 H295 0.929 . S
C288 C287 1.383 . S
C288 C289 1.377 . S
C289 H273 0.930 . S
C289 C288 1.377 . S
C289 C290 1.379 . S
C290 H274 0.931 . S
C290 C284 1.383 . S
C290 C289 1.379 . S
H291 C285 0.959 . S
H292 C285 0.961 . S
H293 C285 0.960 . S
H294 C286 0.930 . S
H295 C287 0.929 . S
H296 C304 0.929 . S
H297 C306 0.930 . S
H298 C308 0.930 1_554 S
H299 C311 0.929 . S
H300 C314 0.930 . S
H301 C316 0.960 . S
H302 C316 0.960 . S
H303 C316 0.960 . S
C304 H296 0.929 . S
C304 C305 1.377 . S
C304 C306 1.384 . S
C305 C304 1.377 . S
C305 C311 1.390 . S
C306 H297 0.930 . S
C306 C304 1.384 . S
C306 C307 1.372 . S
C307 C306 1.372 . S
C307 C308 1.400 . S
C307 C312 1.490 . S
C308 H298 0.930 1_556 S
C308 C307 1.400 . S
C308 C311 1.386 . S
H309 C325 0.930 . S
H310 C326 0.931 . S
C311 H299 0.929 . S
C311 C305 1.390 . S
C311 C308 1.386 . S
C312 C307 1.490 . S
C312 C314 1.395 . S
C312 C315 1.403 1_556 S
H313 C319 0.930 . S
C314 H300 0.930 . S
C314 C312 1.395 . S
C314 C317 1.403 . S
C315 C312 1.403 1_554 S
C315 C316 1.524 . S
C315 C319 1.400 . S
C316 H301 0.960 . S
C316 H302 0.960 . S
C316 H303 0.960 . S
C316 C315 1.524 . S
C317 C314 1.403 . S
C317 C318 1.392 1_556 S
C317 C321 1.495 . S
C318 C317 1.392 1_554 S
C318 C319 1.385 . S
C318 C320 1.478 . S
C319 H313 0.930 . S
C319 C315 1.400 . S
C319 C318 1.385 . S
C320 C318 1.478 . S
C320 C322 1.381 . S
C320 C326 1.383 . S
C321 C317 1.495 . S
C321 H327 0.959 . S
C321 H328 0.961 . S
C321 H329 0.960 . S
C322 C320 1.381 . S
C322 C323 1.394 . S
C322 H330 0.930 . S
C323 C322 1.394 . S
C323 C324 1.383 . S
C323 H331 0.929 . S
C324 C323 1.383 . S
C324 C325 1.377 . S
C325 H309 0.930 . S
C325 C324 1.377 . S
C325 C326 1.379 . S
C326 H310 0.931 . S
C326 C320 1.383 . S
C326 C325 1.379 . S
H327 C321 0.959 . S
H328 C321 0.961 . S
H329 C321 0.960 . S
H330 C322 0.930 . S
H331 C323 0.929 . S
H332 C340 0.929 . S
H333 C342 0.930 . S
H334 C344 0.930 . S
H335 C347 0.929 . S
H336 C350 0.930 . S
H337 C352 0.960 . S
H338 C352 0.960 . S
H339 C352 0.960 . S
C340 H332 0.929 . S
C340 C341 1.377 . S
C340 C342 1.384 . S
C341 C340 1.377 . S
C341 C347 1.390 . S
C342 H333 0.930 . S
C342 C340 1.384 . S
C342 C343 1.372 . S
C343 C342 1.372 . S
C343 C344 1.400 . S
C343 C348 1.490 . S
C344 H334 0.930 . S
C344 C343 1.400 . S
C344 C347 1.386 . S
H345 C361 0.930 . S
H346 C362 0.931 . S
C347 H335 0.929 . S
C347 C341 1.390 . S
C347 C344 1.386 . S
C348 C343 1.490 . S
C348 C350 1.395 . S
C348 C351 1.403 . S
H349 C355 0.930 . S
C350 H336 0.930 . S
C350 C348 1.395 . S
C350 C353 1.403 . S
C351 C348 1.403 . S
C351 C352 1.524 . S
C351 C355 1.400 . S
C352 H337 0.960 . S
C352 H338 0.960 . S
C352 H339 0.960 . S
C352 C351 1.524 . S
C353 C350 1.403 . S
C353 C354 1.392 . S
C353 C357 1.495 . S
C354 C353 1.392 . S
C354 C355 1.385 . S
C354 C356 1.478 . S
C355 H349 0.930 . S
C355 C351 1.400 . S
C355 C354 1.385 . S
C356 C354 1.478 . S
C356 C358 1.381 . S
C356 C362 1.383 . S
C357 C353 1.495 . S
C357 H363 0.959 . S
C357 H364 0.961 . S
C357 H365 0.960 . S
C358 C356 1.381 . S
C358 C359 1.394 . S
C358 H366 0.930 . S
C359 C358 1.394 . S
C359 C360 1.383 . S
C359 H367 0.929 . S
C360 C359 1.383 . S
C360 C361 1.377 . S
C361 H345 0.930 . S
C361 C360 1.377 . S
C361 C362 1.379 . S
C362 H346 0.931 . S
C362 C356 1.383 . S
C362 C361 1.379 . S
H363 C357 0.959 . S
H364 C357 0.961 . S
H365 C357 0.960 . S
H366 C358 0.930 . S
H367 C359 0.929 . S
H368 C376 0.929 . S
H369 C378 0.930 . S
H370 C380 0.930 . S
H371 C383 0.929 . S
H372 C386 0.930 . S
H373 C388 0.960 . S
H374 C388 0.960 . S
H375 C388 0.960 . S
C376 H368 0.929 . S
C376 C377 1.377 . S
C376 C378 1.384 . S
C377 C376 1.377 . S
C377 C383 1.390 . S
C378 H369 0.930 . S
C378 C376 1.384 . S
C378 C379 1.372 . S
C379 C378 1.372 . S
C379 C380 1.400 . S
C379 C384 1.490 . S
C380 H370 0.930 . S
C380 C379 1.400 . S
C380 C383 1.386 . S
H381 C397 0.930 . S
H382 C398 0.931 . S
C383 H371 0.929 . S
C383 C377 1.390 . S
C383 C380 1.386 . S
C384 C379 1.490 . S
C384 C386 1.395 1_554 S
C384 C387 1.403 . S
H385 C391 0.930 . S
C386 H372 0.930 . S
C386 C384 1.395 1_556 S
C386 C389 1.403 . S
C387 C384 1.403 . S
C387 C388 1.524 . S
C387 C391 1.400 . S
C388 H373 0.960 . S
C388 H374 0.960 . S
C388 H375 0.960 . S
C388 C387 1.524 . S
C389 C386 1.403 . S
C389 C390 1.392 . S
C389 C393 1.495 . S
C390 C389 1.392 . S
C390 C391 1.385 1_556 S
C390 C392 1.478 . S
C391 H385 0.930 . S
C391 C387 1.400 . S
C391 C390 1.385 1_554 S
C392 C390 1.478 . S
C392 C394 1.381 . S
C392 C398 1.383 . S
C393 C389 1.495 . S
C393 H399 0.959 . S
C393 H400 0.961 . S
C393 H401 0.960 . S
C394 C392 1.381 . S
C394 C395 1.394 . S
C394 H402 0.930 . S
C395 C394 1.394 . S
C395 C396 1.383 . S
C395 H403 0.929 . S
C396 C395 1.383 . S
C396 C397 1.377 . S
C397 H381 0.930 . S
C397 C396 1.377 . S
C397 C398 1.379 . S
C398 H382 0.931 . S
C398 C392 1.383 . S
C398 C397 1.379 . S
H399 C393 0.959 . S
H400 C393 0.961 . S
H401 C393 0.960 . S
H402 C394 0.930 . S
H403 C395 0.929 . S
H404 C412 0.929 . S
H405 C414 0.930 . S
H406 C416 0.930 . S
H407 C419 0.929 . S
H408 C422 0.930 . S
H409 C424 0.960 . S
H410 C424 0.960 . S
H411 C424 0.960 . S
C412 H404 0.929 . S
C412 C413 1.377 . S
C412 C414 1.384 . S
C413 C412 1.377 . S
C413 C419 1.390 . S
C414 H405 0.930 . S
C414 C412 1.384 . S
C414 C415 1.372 . S
C415 C414 1.372 . S
C415 C416 1.400 . S
C415 C420 1.490 . S
C416 H406 0.930 . S
C416 C415 1.400 . S
C416 C419 1.386 . S
H417 C433 0.930 . S
H418 C434 0.931 . S
C419 H407 0.929 . S
C419 C413 1.390 . S
C419 C416 1.386 . S
C420 C415 1.490 . S
C420 C422 1.395 . S
C420 C423 1.403 . S
H421 C427 0.930 . S
C422 H408 0.930 . S
C422 C420 1.395 . S
C422 C425 1.403 . S
C423 C420 1.403 . S
C423 C424 1.524 . S
C423 C427 1.400 . S
C424 H409 0.960 . S
C424 H410 0.960 . S
C424 H411 0.960 . S
C424 C423 1.524 . S
C425 C422 1.403 . S
C425 C426 1.392 . S
C425 C429 1.495 . S
C426 C425 1.392 . S
C426 C427 1.385 . S
C426 C428 1.478 . S
C427 H421 0.930 . S
C427 C423 1.400 . S
C427 C426 1.385 . S
C428 C426 1.478 . S
C428 C430 1.381 . S
C428 C434 1.383 . S
C429 C425 1.495 . S
C429 H435 0.959 . S
C429 H436 0.961 . S
C429 H437 0.960 . S
C430 C428 1.381 . S
C430 C431 1.394 . S
C430 H438 0.930 . S
C431 C430 1.394 . S
C431 C432 1.383 . S
C431 H439 0.929 . S
C432 C431 1.383 . S
C432 C433 1.377 . S
C433 H417 0.930 . S
C433 C432 1.377 . S
C433 C434 1.379 . S
C434 H418 0.931 . S
C434 C428 1.383 . S
C434 C433 1.379 . S
H435 C429 0.959 . S
H436 C429 0.961 . S
H437 C429 0.960 . S
H438 C430 0.930 . S
H439 C431 0.929 . S
H440 C448 0.929 . S
H441 C450 0.930 . S
H442 C452 0.930 1_554 S
H443 C455 0.929 . S
H444 C458 0.930 . S
H445 C460 0.960 . S
H446 C460 0.960 1_556 S
H447 C460 0.960 . S
C448 H440 0.929 . S
C448 C449 1.377 . S
C448 C450 1.384 . S
C449 C448 1.377 . S
C449 C455 1.390 . S
C450 H441 0.930 . S
C450 C448 1.384 . S
C450 C451 1.372 . S
C451 C450 1.372 . S
C451 C452 1.400 . S
C451 C456 1.490 . S
C452 H442 0.930 1_556 S
C452 C451 1.400 . S
C452 C455 1.386 . S
H453 C469 0.930 . S
H454 C470 0.931 . S
C455 H443 0.929 . S
C455 C449 1.390 . S
C455 C452 1.386 . S
C456 C451 1.490 . S
C456 C458 1.395 . S
C456 C459 1.403 1_556 S
H457 C463 0.930 . S
C458 H444 0.930 . S
C458 C456 1.395 . S
C458 C461 1.403 1_556 S
C459 C456 1.403 1_554 S
C459 C460 1.524 . S
C459 C463 1.400 . S
C460 H445 0.960 . S
C460 H446 0.960 1_554 S
C460 H447 0.960 . S
C460 C459 1.524 . S
C461 C458 1.403 1_554 S
C461 C462 1.392 . S
C461 C465 1.495 . S
C462 C461 1.392 . S
C462 C463 1.385 . S
C462 C464 1.478 . S
C463 H457 0.930 . S
C463 C459 1.400 . S
C463 C462 1.385 . S
C464 C462 1.478 . S
C464 C466 1.381 . S
C464 C470 1.383 . S
C465 C461 1.495 . S
C465 H471 0.959 1_554 S
C465 H472 0.961 . S
C465 H473 0.944 1_554 S
C466 C464 1.381 . S
C466 C467 1.394 . S
C466 H474 0.930 . S
C467 C466 1.394 . S
C467 C468 1.383 . S
C467 H475 0.929 . S
C468 C467 1.383 . S
C468 C469 1.377 . S
C469 H453 0.930 . S
C469 C468 1.377 . S
C469 C470 1.379 . S
C470 H454 0.931 . S
C470 C464 1.383 . S
C470 C469 1.379 . S
H471 C465 0.959 1_556 S
H472 C465 0.961 . S
H473 C465 0.944 1_556 S
H474 C466 0.930 . S
H475 C467 0.929 . S
H476 C484 0.929 . S
H477 C486 0.930 . S
H478 C488 0.930 . S
H479 C491 0.929 . S
H480 C494 0.930 . S
H481 C496 0.960 . S
H482 C496 0.960 . S
H483 C496 0.960 . S
C484 H476 0.929 . S
C484 C485 1.377 . S
C484 C486 1.384 . S
C485 C484 1.377 . S
C485 C491 1.390 . S
C486 H477 0.930 . S
C486 C484 1.384 . S
C486 C487 1.372 . S
C487 C486 1.372 . S
C487 C488 1.400 . S
C487 C492 1.490 . S
C488 H478 0.930 . S
C488 C487 1.400 . S
C488 C491 1.386 . S
H489 C505 0.930 . S
H490 C506 0.931 . S
C491 H479 0.929 . S
C491 C485 1.390 . S
C491 C488 1.386 . S
C492 C487 1.490 . S
C492 C494 1.395 . S
C492 C495 1.403 . S
H493 C499 0.930 . S
C494 H480 0.930 . S
C494 C492 1.395 . S
C494 C497 1.403 . S
C495 C492 1.403 . S
C495 C496 1.524 . S
C495 C499 1.400 . S
C496 H481 0.960 . S
C496 H482 0.960 . S
C496 H483 0.960 . S
C496 C495 1.524 . S
C497 C494 1.403 . S
C497 C498 1.392 . S
C497 C501 1.495 . S
C498 C497 1.392 . S
C498 C499 1.385 . S
C498 C500 1.478 . S
C499 H493 0.930 . S
C499 C495 1.400 . S
C499 C498 1.385 . S
C500 C498 1.478 . S
C500 C502 1.381 . S
C500 C506 1.383 . S
C501 C497 1.495 . S
C501 H507 0.959 . S
C501 H508 0.961 . S
C501 H509 0.960 . S
C502 C500 1.381 . S
C502 C503 1.394 . S
C502 H510 0.930 . S
C503 C502 1.394 . S
C503 C504 1.383 . S
C503 H511 0.929 . S
C504 C503 1.383 . S
C504 C505 1.377 . S
C505 H489 0.930 . S
C505 C504 1.377 . S
C505 C506 1.379 . S
C506 H490 0.931 . S
C506 C500 1.383 . S
C506 C505 1.379 . S
H507 C501 0.959 . S
H508 C501 0.961 . S
H509 C501 0.960 . S
H510 C502 0.930 . S
H511 C503 0.929 . S
H512 C520 0.929 . S
H513 C522 0.930 1_556 S
H514 C524 0.930 . S
H515 C527 0.929 . S
H516 C530 0.930 . S
H517 C532 0.960 . S
H518 C532 0.960 . S
H519 C532 0.960 1_554 S
C520 H512 0.929 . S
C520 C521 1.377 . S
C520 C522 1.384 . S
C521 C520 1.377 . S
C521 C527 1.390 . S
C522 H513 0.930 1_554 S
C522 C520 1.384 . S
C522 C523 1.372 . S
C523 C522 1.372 . S
C523 C524 1.400 . S
C523 C528 1.490 . S
C524 H514 0.930 . S
C524 C523 1.400 . S
C524 C527 1.386 . S
H525 C541 0.930 . S
H526 C542 0.931 1_554 S
C527 H515 0.929 . S
C527 C521 1.390 . S
C527 C524 1.386 . S
C528 C523 1.490 . S
C528 C530 1.395 . S
C528 C531 1.403 1_554 S
H529 C535 0.930 . S
C530 H516 0.930 . S
C530 C528 1.395 . S
C530 C533 1.403 1_545 S
C531 C528 1.403 1_556 S
C531 C532 1.524 . S
C531 C535 1.400 1_545 S
C532 H517 0.960 . S
C532 H518 0.960 . S
C532 H519 0.960 1_556 S
C532 C531 1.524 . S
C533 C530 1.403 1_565 S
C533 C534 1.392 1_554 S
C533 C537 1.495 . S
C534 C533 1.392 1_556 S
C534 C535 1.385 . S
C534 C536 1.478 . S
C535 H529 0.930 . S
C535 C531 1.400 1_565 S
C535 C534 1.385 . S
C536 C534 1.478 . S
C536 C538 1.381 . S
C536 C542 1.383 . S
C537 C533 1.495 . S
C537 H543 0.959 . S
C537 H544 0.961 . S
C537 H545 0.960 1_554 S
C538 C536 1.381 . S
C538 C539 1.394 . S
C538 H546 0.930 . S
C539 C538 1.394 . S
C539 C540 1.383 . S
C539 H547 0.929 . S
C540 C539 1.383 . S
C540 C541 1.377 . S
C541 H525 0.930 . S
C541 C540 1.377 . S
C541 C542 1.379 . S
C542 H526 0.931 1_556 S
C542 C536 1.383 . S
C542 C541 1.379 . S
H543 C537 0.959 . S
H544 C537 0.961 . S
H545 C537 0.960 1_556 S
H546 C538 0.930 . S
H547 C539 0.929 . S
H548 C556 0.929 . S
H549 C558 0.930 . S
H550 C560 0.930 . S
H551 C563 0.929 . S
H552 C566 0.930 . S
H553 C568 0.960 . S
H554 C568 0.960 . S
H555 C568 0.960 . S
C556 H548 0.929 . S
C556 C557 1.377 . S
C556 C558 1.384 . S
C557 C556 1.377 . S
C557 C563 1.390 . S
C558 H549 0.930 . S
C558 C556 1.384 . S
C558 C559 1.372 . S
C559 C558 1.372 . S
C559 C560 1.400 . S
C559 C564 1.490 . S
C560 H550 0.930 . S
C560 C559 1.400 . S
C560 C563 1.386 . S
H561 C577 0.930 . S
H562 C578 0.931 . S
C563 H551 0.929 . S
C563 C557 1.390 . S
C563 C560 1.386 . S
C564 C559 1.490 . S
C564 C566 1.395 . S
C564 C567 1.403 . S
H565 C571 0.930 . S
C566 H552 0.930 . S
C566 C564 1.395 . S
C566 C569 1.403 1_565 S
C567 C564 1.403 . S
C567 C568 1.524 . S
C567 C571 1.400 1_565 S
C568 H553 0.960 . S
C568 H554 0.960 . S
C568 H555 0.960 . S
C568 C567 1.524 . S
C569 C566 1.403 1_545 S
C569 C570 1.392 . S
C569 C573 1.495 . S
C570 C569 1.392 . S
C570 C571 1.385 . S
C570 C572 1.478 . S
C571 H565 0.930 . S
C571 C567 1.400 1_545 S
C571 C570 1.385 . S
C572 C570 1.478 . S
C572 C574 1.381 . S
C572 C578 1.383 . S
C573 C569 1.495 . S
C573 H579 0.959 . S
C573 H580 0.961 . S
C573 H581 0.960 . S
C574 C572 1.381 . S
C574 C575 1.394 . S
C574 H582 0.930 . S
C575 C574 1.394 . S
C575 C576 1.383 . S
C575 H583 0.929 . S
C576 C575 1.383 . S
C576 C577 1.377 . S
C577 H561 0.930 . S
C577 C576 1.377 . S
C577 C578 1.379 . S
C578 H562 0.931 . S
C578 C572 1.383 . S
C578 C577 1.379 . S
H579 C573 0.959 . S
H580 C573 0.961 . S
H581 C573 0.960 . S
H582 C574 0.930 . S
H583 C575 0.929 . S
H584 C592 0.929 . S
H585 C594 0.930 . S
H586 C596 0.930 . S
H587 C599 0.929 . S
H588 C602 0.930 . S
H589 C604 0.960 1_554 S
H590 C604 0.960 . S
H591 C604 0.960 1_554 S
C592 H584 0.929 . S
C592 C593 1.377 . S
C592 C594 1.384 . S
C593 C592 1.377 . S
C593 C599 1.390 . S
C594 H585 0.930 . S
C594 C592 1.384 . S
C594 C595 1.372 . S
C595 C594 1.372 . S
C595 C596 1.400 . S
C595 C600 1.490 . S
C596 H586 0.930 . S
C596 C595 1.400 . S
C596 C599 1.386 . S
H597 C613 0.930 . S
H598 C614 0.931 . S
C599 H587 0.929 . S
C599 C593 1.390 . S
C599 C596 1.386 . S
C600 C595 1.490 . S
C600 C602 1.395 . S
C600 C603 1.403 . S
H601 C607 0.930 . S
C602 H588 0.930 . S
C602 C600 1.395 . S
C602 C605 1.403 1_565 S
C603 C600 1.403 . S
C603 C604 1.524 . S
C603 C607 1.400 1_566 S
C604 H589 0.960 1_556 S
C604 H590 0.960 . S
C604 H591 0.960 1_556 S
C604 C603 1.524 . S
C605 C602 1.403 1_545 S
C605 C606 1.392 1_556 S
C605 C609 1.495 . S
C606 C605 1.392 1_554 S
C606 C607 1.385 . S
C606 C608 1.478 . S
C607 H601 0.930 . S
C607 C603 1.400 1_544 S
C607 C606 1.385 . S
C608 C606 1.478 . S
C608 C610 1.381 . S
C608 C614 1.383 . S
C609 C605 1.495 . S
C609 H615 0.959 . S
C609 H616 0.961 1_556 S
C609 H617 0.960 . S
C610 C608 1.381 . S
C610 C611 1.394 . S
C610 H618 0.930 . S
C611 C610 1.394 . S
C611 C612 1.383 . S
C611 H619 0.929 . S
C612 C611 1.383 . S
C612 C613 1.377 . S
C613 H597 0.930 . S
C613 C612 1.377 . S
C613 C614 1.379 . S
C614 H598 0.931 . S
C614 C608 1.383 . S
C614 C613 1.379 . S
H615 C609 0.959 . S
H616 C609 0.961 1_554 S
H617 C609 0.960 . S
H618 C610 0.930 . S
H619 C611 0.929 . S
H620 C628 0.929 . S
H621 C630 0.930 . S
H622 C632 0.930 . S
H623 C635 0.929 . S
H624 C638 0.930 . S
H625 C640 0.960 1_565 S
H626 C640 0.960 . S
H627 C640 0.960 . S
C628 H620 0.929 . S
C628 C629 1.377 . S
C628 C630 1.384 . S
C629 C628 1.377 . S
C629 C635 1.390 . S
C630 H621 0.930 . S
C630 C628 1.384 . S
C630 C631 1.372 . S
C631 C630 1.372 . S
C631 C632 1.400 . S
C631 C636 1.490 . S
C632 H622 0.930 . S
C632 C631 1.400 . S
C632 C635 1.386 . S
H633 C649 0.930 . S
H634 C650 0.931 . S
C635 H623 0.929 . S
C635 C629 1.390 . S
C635 C632 1.386 . S
C636 C631 1.490 . S
C636 C638 1.395 . S
C636 C639 1.403 . S
H637 C643 0.930 . S
C638 H624 0.930 . S
C638 C636 1.395 . S
C638 C641 1.403 1_545 S
C639 C636 1.403 . S
C639 C640 1.524 . S
C639 C643 1.400 1_545 S
C640 H625 0.960 1_545 S
C640 H626 0.960 . S
C640 H627 0.960 . S
C640 C639 1.524 . S
C641 C638 1.403 1_565 S
C641 C642 1.392 . S
C641 C645 1.495 . S
C642 C641 1.392 . S
C642 C643 1.385 . S
C642 C644 1.478 . S
C643 H637 0.930 . S
C643 C639 1.400 1_565 S
C643 C642 1.385 . S
C644 C642 1.478 . S
C644 C646 1.381 . S
C644 C650 1.383 . S
C645 C641 1.495 . S
C645 H651 0.959 1_565 S
C645 H652 0.961 . S
C645 H653 0.960 . S
C646 C644 1.381 . S
C646 C647 1.394 . S
C646 H654 0.930 . S
C647 C646 1.394 . S
C647 C648 1.383 . S
C647 H655 0.929 . S
C648 C647 1.383 . S
C648 C649 1.377 . S
C649 H633 0.930 . S
C649 C648 1.377 . S
C649 C650 1.379 . S
C650 H634 0.931 . S
C650 C644 1.383 . S
C650 C649 1.379 . S
H651 C645 0.959 1_545 S
H652 C645 0.961 . S
H653 C645 0.960 . S
H654 C646 0.930 . S
H655 C647 0.929 . S
H656 C664 0.929 . S
H657 C666 0.930 . S
H658 C668 0.930 . S
H659 C671 0.929 . S
H660 C674 0.930 . S
H661 C676 0.960 . S
H662 C676 0.960 . S
H663 C676 0.960 . S
C664 H656 0.929 . S
C664 C665 1.377 . S
C664 C666 1.384 . S
C665 C664 1.377 . S
C665 C671 1.390 . S
C666 H657 0.930 . S
C666 C664 1.384 . S
C666 C667 1.372 . S
C667 C666 1.372 . S
C667 C668 1.400 . S
C667 C672 1.490 . S
C668 H658 0.930 . S
C668 C667 1.400 . S
C668 C671 1.386 . S
H669 C685 0.930 . S
H670 C686 0.931 . S
C671 H659 0.929 . S
C671 C665 1.390 . S
C671 C668 1.386 . S
C672 C667 1.490 . S
C672 C674 1.395 1_556 S
C672 C675 1.403 . S
H673 C679 0.930 . S
C674 H660 0.930 . S
C674 C672 1.395 1_554 S
C674 C677 1.403 . S
C675 C672 1.403 . S
C675 C676 1.524 . S
C675 C679 1.400 . S
C676 H661 0.960 . S
C676 H662 0.960 . S
C676 H663 0.960 . S
C676 C675 1.524 . S
C677 C674 1.403 . S
C677 C678 1.392 . S
C677 C681 1.495 . S
C678 C677 1.392 . S
C678 C679 1.385 1_554 S
C678 C680 1.478 . S
C679 H673 0.930 . S
C679 C675 1.400 . S
C679 C678 1.385 1_556 S
C680 C678 1.478 . S
C680 C682 1.381 . S
C680 C686 1.383 . S
C681 C677 1.495 . S
C681 H687 0.959 . S
C681 H688 0.961 . S
C681 H689 0.960 . S
C682 C680 1.381 . S
C682 C683 1.394 . S
C682 H690 0.930 . S
C683 C682 1.394 . S
C683 C684 1.383 . S
C683 H691 0.929 . S
C684 C683 1.383 . S
C684 C685 1.377 . S
C685 H669 0.930 . S
C685 C684 1.377 . S
C685 C686 1.379 . S
C686 H670 0.931 . S
C686 C680 1.383 . S
C686 C685 1.379 . S
H687 C681 0.959 . S
H688 C681 0.961 . S
H689 C681 0.960 . S
H690 C682 0.930 . S
H691 C683 0.929 . S
H692 C700 0.929 . S
H693 C702 0.930 . S
H694 C704 0.930 . S
H695 C707 0.929 . S
H696 C710 0.930 . S
H697 C712 0.960 . S
H698 C712 0.960 . S
H699 C712 0.960 . S
C700 H692 0.929 . S
C700 C701 1.377 . S
C700 C702 1.384 . S
C701 C700 1.377 . S
C701 C707 1.390 . S
C702 H693 0.930 . S
C702 C700 1.384 . S
C702 C703 1.372 . S
C703 C702 1.372 . S
C703 C704 1.400 . S
C703 C708 1.490 . S
C704 H694 0.930 . S
C704 C703 1.400 . S
C704 C707 1.386 . S
H705 C721 0.930 . S
H706 C722 0.931 . S
C707 H695 0.929 . S
C707 C701 1.390 . S
C707 C704 1.386 . S
C708 C703 1.490 . S
C708 C710 1.395 . S
C708 C711 1.403 . S
H709 C715 0.930 . S
C710 H696 0.930 . S
C710 C708 1.395 . S
C710 C713 1.403 . S
C711 C708 1.403 . S
C711 C712 1.524 . S
C711 C715 1.400 . S
C712 H697 0.960 . S
C712 H698 0.960 . S
C712 H699 0.960 . S
C712 C711 1.524 . S
C713 C710 1.403 . S
C713 C714 1.392 . S
C713 C717 1.495 . S
C714 C713 1.392 . S
C714 C715 1.385 . S
C714 C716 1.478 . S
C715 H709 0.930 . S
C715 C711 1.400 . S
C715 C714 1.385 . S
C716 C714 1.478 . S
C716 C718 1.381 . S
C716 C722 1.383 . S
C717 C713 1.495 . S
C717 H723 0.959 . S
C717 H724 0.961 . S
C717 H725 0.960 . S
C718 C716 1.381 . S
C718 C719 1.394 . S
C718 H726 0.930 . S
C719 C718 1.394 . S
C719 C720 1.383 . S
C719 H727 0.929 . S
C720 C719 1.383 . S
C720 C721 1.377 . S
C721 H705 0.930 . S
C721 C720 1.377 . S
C721 C722 1.379 . S
C722 H706 0.931 . S
C722 C716 1.383 . S
C722 C721 1.379 . S
H723 C717 0.959 . S
H724 C717 0.961 . S
H725 C717 0.960 . S
H726 C718 0.930 . S
H727 C719 0.929 . S
H728 C736 0.929 . S
H729 C738 0.930 . S
H730 C740 0.930 . S
H731 C743 0.929 . S
H732 C746 0.930 . S
H733 C748 0.960 . S
H734 C748 0.960 . S
H735 C748 0.960 1_554 S
C736 H728 0.929 . S
C736 C737 1.377 . S
C736 C738 1.384 . S
C737 C736 1.377 . S
C737 C743 1.390 . S
C738 H729 0.930 . S
C738 C736 1.384 . S
C738 C739 1.372 . S
C739 C738 1.372 . S
C739 C740 1.400 . S
C739 C744 1.490 . S
C740 H730 0.930 . S
C740 C739 1.400 . S
C740 C743 1.386 . S
H741 C757 0.930 . S
H742 C758 0.931 . S
C743 H731 0.929 . S
C743 C737 1.390 . S
C743 C740 1.386 . S
C744 C739 1.490 . S
C744 C746 1.395 . S
C744 C747 1.403 1_554 S
H745 C751 0.930 . S
C746 H732 0.930 . S
C746 C744 1.395 . S
C746 C749 1.403 . S
C747 C744 1.403 1_556 S
C747 C748 1.524 . S
C747 C751 1.400 . S
C748 H733 0.960 . S
C748 H734 0.960 . S
C748 H735 0.960 1_556 S
C748 C747 1.524 . S
C749 C746 1.403 . S
C749 C750 1.392 1_554 S
C749 C753 1.495 . S
C750 C749 1.392 1_556 S
C750 C751 1.385 . S
C750 C752 1.478 . S
C751 H745 0.930 . S
C751 C747 1.400 . S
C751 C750 1.385 . S
C752 C750 1.478 . S
C752 C754 1.381 . S
C752 C758 1.383 . S
C753 C749 1.495 . S
C753 H759 0.959 . S
C753 H760 0.961 . S
C753 H761 0.960 1_554 S
C754 C752 1.381 . S
C754 C755 1.394 . S
C754 H762 0.930 . S
C755 C754 1.394 . S
C755 C756 1.383 . S
C755 H763 0.929 . S
C756 C755 1.383 . S
C756 C757 1.377 . S
C757 H741 0.930 . S
C757 C756 1.377 . S
C757 C758 1.379 . S
C758 H742 0.931 . S
C758 C752 1.383 . S
C758 C757 1.379 . S
H759 C753 0.959 . S
H760 C753 0.961 . S
H761 C753 0.960 1_556 S
H762 C754 0.930 . S
H763 C755 0.929 . S
H764 C772 0.929 . S
H765 C774 0.930 . S
H766 C776 0.930 . S
H767 C779 0.929 . S
H768 C782 0.930 . S
H769 C784 0.960 . S
H770 C784 0.960 . S
H771 C784 0.960 . S
C772 H764 0.929 . S
C772 C773 1.377 . S
C772 C774 1.384 . S
C773 C772 1.377 . S
C773 C779 1.390 . S
C774 H765 0.930 . S
C774 C772 1.384 . S
C774 C775 1.372 . S
C775 C774 1.372 . S
C775 C776 1.400 . S
C775 C780 1.490 . S
C776 H766 0.930 . S
C776 C775 1.400 . S
C776 C779 1.386 . S
H777 C793 0.930 . S
H778 C794 0.931 . S
C779 H767 0.929 . S
C779 C773 1.390 . S
C779 C776 1.386 . S
C780 C775 1.490 . S
C780 C782 1.395 . S
C780 C783 1.403 . S
H781 C787 0.930 . S
C782 H768 0.930 . S
C782 C780 1.395 . S
C782 C785 1.403 . S
C783 C780 1.403 . S
C783 C784 1.524 . S
C783 C787 1.400 . S
C784 H769 0.960 . S
C784 H770 0.960 . S
C784 H771 0.960 . S
C784 C783 1.524 . S
C785 C782 1.403 . S
C785 C786 1.392 . S
C785 C789 1.495 . S
C786 C785 1.392 . S
C786 C787 1.385 . S
C786 C788 1.478 . S
C787 H781 0.930 . S
C787 C783 1.400 . S
C787 C786 1.385 . S
C788 C786 1.478 . S
C788 C790 1.381 . S
C788 C794 1.383 . S
C789 C785 1.495 . S
C789 H795 0.959 . S
C789 H796 0.961 . S
C789 H797 0.960 . S
C790 C788 1.381 . S
C790 C791 1.394 . S
C790 H798 0.930 . S
C791 C790 1.394 . S
C791 C792 1.383 . S
C791 H799 0.929 . S
C792 C791 1.383 . S
C792 C793 1.377 . S
C793 H777 0.930 . S
C793 C792 1.377 . S
C793 C794 1.379 . S
C794 H778 0.931 . S
C794 C788 1.383 . S
C794 C793 1.379 . S
H795 C789 0.959 . S
H796 C789 0.961 . S
H797 C789 0.960 . S
H798 C790 0.930 . S
H799 C791 0.929 . S
H800 C808 0.929 . S
H801 C810 0.930 . S
H802 C812 0.930 . S
H803 C815 0.929 . S
H804 C818 0.930 . S
H805 C820 0.960 . S
H806 C820 0.960 . S
H807 C820 0.960 . S
C808 H800 0.929 . S
C808 C809 1.377 . S
C808 C810 1.384 . S
C809 C808 1.377 . S
C809 C815 1.390 . S
C810 H801 0.930 . S
C810 C808 1.384 . S
C810 C811 1.372 . S
C811 C810 1.372 . S
C811 C812 1.400 . S
C811 C816 1.490 . S
C812 H802 0.930 . S
C812 C811 1.400 . S
C812 C815 1.386 . S
H813 C829 0.930 . S
H814 C830 0.931 . S
C815 H803 0.929 . S
C815 C809 1.390 . S
C815 C812 1.386 . S
C816 C811 1.490 . S
C816 C818 1.395 . S
C816 C819 1.403 . S
H817 C823 0.930 . S
C818 H804 0.930 . S
C818 C816 1.395 . S
C818 C821 1.403 . S
C819 C816 1.403 . S
C819 C820 1.524 . S
C819 C823 1.400 . S
C820 H805 0.960 . S
C820 H806 0.960 . S
C820 H807 0.960 . S
C820 C819 1.524 . S
C821 C818 1.403 . S
C821 C822 1.392 . S
C821 C825 1.495 . S
C822 C821 1.392 . S
C822 C823 1.385 . S
C822 C824 1.478 . S
C823 H817 0.930 . S
C823 C819 1.400 . S
C823 C822 1.385 . S
C824 C822 1.478 . S
C824 C826 1.381 . S
C824 C830 1.383 . S
C825 C821 1.495 . S
C825 H831 0.959 . S
C825 H832 0.961 . S
C825 H833 0.960 . S
C826 C824 1.381 . S
C826 C827 1.394 . S
C826 H834 0.930 . S
C827 C826 1.394 . S
C827 C828 1.383 . S
C827 H835 0.929 . S
C828 C827 1.383 . S
C828 C829 1.377 . S
C829 H813 0.930 . S
C829 C828 1.377 . S
C829 C830 1.379 . S
C830 H814 0.931 . S
C830 C824 1.383 . S
C830 C829 1.379 . S
H831 C825 0.959 . S
H832 C825 0.961 . S
H833 C825 0.960 . S
H834 C826 0.930 . S
H835 C827 0.929 . S
H836 C844 0.929 . S
H837 C846 0.930 . S
H838 C848 0.930 . S
H839 C851 0.929 . S
H840 C854 0.908 1_655 S
H841 C856 0.960 1_455 S
H842 C856 0.960 . S
H843 C856 0.960 . S
C844 H836 0.929 . S
C844 C845 1.377 . S
C844 C846 1.384 . S
C845 C844 1.377 . S
C845 C851 1.390 . S
C846 H837 0.930 . S
C846 C844 1.384 . S
C846 C847 1.372 . S
C847 C846 1.372 . S
C847 C848 1.400 . S
C847 C852 1.490 . S
C848 H838 0.930 . S
C848 C847 1.400 . S
C848 C851 1.386 . S
H849 C865 0.930 . S
H850 C866 0.931 . S
C851 H839 0.929 . S
C851 C845 1.390 . S
C851 C848 1.386 . S
C852 C847 1.490 . S
C852 C854 1.377 1_655 S
C852 C855 1.403 1_655 S
H853 C859 0.930 . S
C854 H840 0.908 1_455 S
C854 C852 1.377 1_455 S
C854 C857 1.444 . S
C855 C852 1.403 1_455 S
C855 C856 1.524 1_455 S
C855 C859 1.400 . S
C856 H841 0.960 1_655 S
C856 H842 0.960 . S
C856 H843 0.960 . S
C856 C855 1.524 1_655 S
C857 C854 1.444 . S
C857 C858 1.392 . S
C857 C861 1.495 . S
C858 C857 1.392 . S
C858 C859 1.385 . S
C858 C860 1.478 . S
C859 H853 0.930 . S
C859 C855 1.400 . S
C859 C858 1.385 . S
C860 C858 1.478 . S
C860 C862 1.381 . S
C860 C866 1.383 . S
C861 C857 1.495 . S
C861 H867 0.959 . S
C861 H868 0.961 . S
C861 H869 0.960 . S
C862 C860 1.381 . S
C862 C863 1.394 . S
C862 H870 0.930 . S
C863 C862 1.394 . S
C863 C864 1.383 . S
C863 H871 0.929 . S
C864 C863 1.383 . S
C864 C865 1.377 . S
C865 H849 0.930 . S
C865 C864 1.377 . S
C865 C866 1.379 . S
C866 H850 0.931 . S
C866 C860 1.383 . S
C866 C865 1.379 . S
H867 C861 0.959 . S
H868 C861 0.961 . S
H869 C861 0.960 . S
H870 C862 0.930 . S
H871 C863 0.929 . S
H872 C880 0.929 . S
H873 C882 0.930 . S
H874 C884 0.930 . S
H875 C887 0.929 . S
H876 C890 0.930 . S
H877 C892 0.960 . S
H878 C892 0.960 . S
H879 C892 0.960 . S
C880 H872 0.929 . S
C880 C881 1.377 . S
C880 C882 1.384 . S
C881 C880 1.377 . S
C881 C887 1.390 . S
C882 H873 0.930 . S
C882 C880 1.384 . S
C882 C883 1.372 . S
C883 C882 1.372 . S
C883 C884 1.400 . S
C883 C888 1.490 . S
C884 H874 0.930 . S
C884 C883 1.400 . S
C884 C887 1.386 . S
H885 C901 0.930 . S
H886 C902 0.931 . S
C887 H875 0.929 . S
C887 C881 1.390 . S
C887 C884 1.386 . S
C888 C883 1.490 . S
C888 C890 1.395 . S
C888 C891 1.403 . S
H889 C895 0.930 . S
C890 H876 0.930 . S
C890 C888 1.395 . S
C890 C893 1.403 . S
C891 C888 1.403 . S
C891 C892 1.524 . S
C891 C895 1.400 . S
C892 H877 0.960 . S
C892 H878 0.960 . S
C892 H879 0.960 . S
C892 C891 1.524 . S
C893 C890 1.403 . S
C893 C894 1.392 . S
C893 C897 1.495 . S
C894 C893 1.392 . S
C894 C895 1.385 . S
C894 C896 1.478 . S
C895 H889 0.930 . S
C895 C891 1.400 . S
C895 C894 1.385 . S
C896 C894 1.478 . S
C896 C898 1.381 . S
C896 C902 1.383 . S
C897 C893 1.495 . S
C897 H903 0.959 . S
C897 H904 0.961 . S
C897 H905 0.960 . S
C898 C896 1.381 . S
C898 C899 1.394 . S
C898 H906 0.930 . S
C899 C898 1.394 . S
C899 C900 1.383 . S
C899 H907 0.929 . S
C900 C899 1.383 . S
C900 C901 1.377 . S
C901 H885 0.930 . S
C901 C900 1.377 . S
C901 C902 1.379 . S
C902 H886 0.931 . S
C902 C896 1.383 . S
C902 C901 1.379 . S
H903 C897 0.959 . S
H904 C897 0.961 . S
H905 C897 0.960 . S
H906 C898 0.930 . S
H907 C899 0.929 . S
H908 C916 0.929 . S
H909 C918 0.930 . S
H910 C920 0.930 . S
H911 C923 0.929 . S
H912 C926 0.930 . S
H913 C928 0.960 . S
H914 C928 0.960 . S
H915 C928 0.960 . S
C916 H908 0.929 . S
C916 C917 1.377 . S
C916 C918 1.384 . S
C917 C916 1.377 . S
C917 C923 1.390 . S
C918 H909 0.930 . S
C918 C916 1.384 . S
C918 C919 1.372 . S
C919 C918 1.372 . S
C919 C920 1.400 . S
C919 C924 1.490 . S
C920 H910 0.930 . S
C920 C919 1.400 . S
C920 C923 1.386 . S
H921 C937 0.930 . S
H922 C938 0.931 . S
C923 H911 0.929 . S
C923 C917 1.390 . S
C923 C920 1.386 . S
C924 C919 1.490 . S
C924 C926 1.395 . S
C924 C927 1.403 . S
H925 C931 0.935 . S
C926 H912 0.930 . S
C926 C924 1.395 . S
C926 C929 1.403 . S
C927 C924 1.403 . S
C927 C928 1.524 . S
C927 C931 1.392 1_455 S
C928 H913 0.960 . S
C928 H914 0.960 . S
C928 H915 0.960 . S
C928 C927 1.524 . S
C929 C926 1.403 . S
C929 C930 1.392 1_455 S
C929 C933 1.495 1_455 S
C930 C929 1.392 1_655 S
C930 C931 1.389 . S
C930 C932 1.478 . S
C931 H925 0.935 . S
C931 C927 1.392 1_655 S
C931 C930 1.389 . S
C932 C930 1.478 . S
C932 C934 1.381 . S
C932 C938 1.383 . S
C933 C929 1.495 1_655 S
C933 H939 0.959 1_655 S
C933 H940 0.961 . S
C933 H941 0.960 . S
C934 C932 1.381 . S
C934 C935 1.394 . S
C934 H942 0.930 . S
C935 C934 1.394 . S
C935 C936 1.383 . S
C935 H943 0.929 . S
C936 C935 1.383 . S
C936 C937 1.377 . S
C937 H921 0.930 . S
C937 C936 1.377 . S
C937 C938 1.379 . S
C938 H922 0.931 . S
C938 C932 1.383 . S
C938 C937 1.379 . S
H939 C933 0.959 1_455 S
H940 C933 0.961 . S
H941 C933 0.960 . S
H942 C934 0.930 . S
H943 C935 0.929 . S
H944 C952 0.929 . S
H945 C954 0.930 . S
H946 C956 0.930 . S
H947 C959 0.929 . S
H948 C962 0.930 1_455 S
H949 C964 0.960 1_655 S
H950 C964 0.960 . S
H951 C964 0.960 . S
C952 H944 0.929 . S
C952 C953 1.377 . S
C952 C954 1.384 . S
C953 C952 1.377 . S
C953 C959 1.390 . S
C954 H945 0.930 . S
C954 C952 1.384 . S
C954 C955 1.372 . S
C955 C954 1.372 . S
C955 C956 1.400 . S
C955 C960 1.490 . S
C956 H946 0.930 . S
C956 C955 1.400 . S
C956 C959 1.386 . S
H957 C973 0.930 . S
H958 C974 0.931 . S
C959 H947 0.929 . S
C959 C953 1.390 . S
C959 C956 1.386 . S
C960 C955 1.490 . S
C960 C962 1.395 1_455 S
C960 C963 1.403 1_455 S
H961 C967 0.930 . S
C962 H948 0.930 1_655 S
C962 C960 1.395 1_655 S
C962 C965 1.403 . S
C963 C960 1.403 1_655 S
C963 C964 1.524 1_655 S
C963 C967 1.400 . S
C964 H949 0.960 1_455 S
C964 H950 0.960 . S
C964 H951 0.960 . S
C964 C963 1.524 1_455 S
C965 C962 1.403 . S
C965 C966 1.392 . S
C965 C969 1.495 . S
C966 C965 1.392 . S
C966 C967 1.385 . S
C966 C968 1.478 . S
C967 H961 0.930 . S
C967 C963 1.400 . S
C967 C966 1.385 . S
C968 C966 1.478 . S
C968 C970 1.381 . S
C968 C974 1.383 . S
C969 C965 1.495 . S
C969 H975 0.959 . S
C969 H976 0.961 . S
C969 H977 0.960 . S
C970 C968 1.381 . S
C970 C971 1.394 . S
C970 H978 0.930 . S
C971 C970 1.394 . S
C971 C972 1.383 . S
C971 H979 0.929 . S
C972 C971 1.383 . S
C972 C973 1.377 . S
C973 H957 0.930 . S
C973 C972 1.377 . S
C973 C974 1.379 . S
C974 H958 0.931 . S
C974 C968 1.383 . S
C974 C973 1.379 . S
H975 C969 0.959 . S
H976 C969 0.961 . S
H977 C969 0.960 . S
H978 C970 0.930 . S
H979 C971 0.929 . S
H980 C988 0.929 . S
H981 C990 0.930 . S
H982 C992 0.930 . S
H983 C995 0.929 . S
H984 C998 0.930 . S
H985 C1000 0.960 . S
H986 C1000 0.960 . S
H987 C1000 0.960 . S
C988 H980 0.929 . S
C988 C989 1.377 . S
C988 C990 1.384 . S
C989 C988 1.377 . S
C989 C995 1.390 . S
C990 H981 0.930 . S
C990 C988 1.384 . S
C990 C991 1.372 . S
C991 C990 1.372 . S
C991 C992 1.400 . S
C991 C996 1.490 . S
C992 H982 0.930 . S
C992 C991 1.400 . S
C992 C995 1.386 . S
H993 C1009 0.930 . S
H994 C1010 0.931 . S
C995 H983 0.929 . S
C995 C989 1.390 . S
C995 C992 1.386 . S
C996 C991 1.490 . S
C996 C998 1.395 . S
C996 C999 1.403 . S
H997 C1003 0.930 . S
C998 H984 0.930 . S
C998 C996 1.395 . S
C998 C1001 1.403 . S
C999 C996 1.403 . S
C999 C1000 1.524 . S
C999 C1003 1.400 . S
C1000 H985 0.960 . S
C1000 H986 0.960 . S
C1000 H987 0.960 . S
C1000 C999 1.524 . S
C1001 C998 1.403 . S
C1001 C1002 1.392 . S
C1001 C1005 1.495 . S
C1002 C1001 1.392 . S
C1002 C1003 1.385 . S
C1002 C1004 1.478 . S
C1003 H997 0.930 . S
C1003 C999 1.400 . S
C1003 C1002 1.385 . S
C1004 C1002 1.478 . S
C1004 C1006 1.381 . S
C1004 C1010 1.383 . S
C1005 C1001 1.495 . S
C1005 H1011 0.959 . S
C1005 H1012 0.961 . S
C1005 H1013 0.960 . S
C1006 C1004 1.381 . S
C1006 C1007 1.394 . S
C1006 H1014 0.930 . S
C1007 C1006 1.394 . S
C1007 C1008 1.383 . S
C1007 H1015 0.929 . S
C1008 C1007 1.383 . S
C1008 C1009 1.377 . S
C1009 H993 0.930 . S
C1009 C1008 1.377 . S
C1009 C1010 1.379 . S
C1010 H994 0.931 . S
C1010 C1004 1.383 . S
C1010 C1009 1.379 . S
H1011 C1005 0.959 . S
H1012 C1005 0.961 . S
H1013 C1005 0.960 . S
H1014 C1006 0.930 . S
H1015 C1007 0.929 . S
H1016 C1024 0.929 . S
H1017 C1026 0.930 . S
H1018 C1028 0.930 . S
H1019 C1031 0.929 . S
H1020 C1034 0.930 1_455 S
H1021 C1036 0.960 1_655 S
H1022 C1036 0.960 . S
H1023 C1036 0.960 . S
C1024 H1016 0.929 . S
C1024 C1025 1.377 . S
C1024 C1026 1.384 . S
C1025 C1024 1.377 . S
C1025 C1031 1.390 . S
C1026 H1017 0.930 . S
C1026 C1024 1.384 . S
C1026 C1027 1.372 . S
C1027 C1026 1.372 . S
C1027 C1028 1.400 . S
C1027 C1032 1.490 . S
C1028 H1018 0.930 . S
C1028 C1027 1.400 . S
C1028 C1031 1.386 . S
H1029 C1045 0.930 . S
H1030 C1046 0.931 . S
C1031 H1019 0.929 . S
C1031 C1025 1.390 . S
C1031 C1028 1.386 . S
C1032 C1027 1.490 . S
C1032 C1034 1.395 1_455 S
C1032 C1035 1.403 1_455 S
H1033 C1039 0.930 . S
C1034 H1020 0.930 1_655 S
C1034 C1032 1.395 1_655 S
C1034 C1037 1.403 . S
C1035 C1032 1.403 1_655 S
C1035 C1036 1.524 1_655 S
C1035 C1039 1.400 . S
C1036 H1021 0.960 1_455 S
C1036 H1022 0.960 . S
C1036 H1023 0.960 . S
C1036 C1035 1.524 1_455 S
C1037 C1034 1.403 . S
C1037 C1038 1.392 . S
C1037 C1041 1.495 . S
C1038 C1037 1.392 . S
C1038 C1039 1.385 . S
C1038 C1040 1.478 . S
C1039 H1033 0.930 . S
C1039 C1035 1.400 . S
C1039 C1038 1.385 . S
C1040 C1038 1.478 . S
C1040 C1042 1.381 . S
C1040 C1046 1.383 . S
C1041 C1037 1.495 . S
C1041 H1047 0.959 . S
C1041 H1048 0.961 . S
C1041 H1049 0.960 . S
C1042 C1040 1.381 . S
C1042 C1043 1.394 . S
C1042 H1050 0.930 . S
C1043 C1042 1.394 . S
C1043 C1044 1.383 . S
C1043 H1051 0.929 . S
C1044 C1043 1.383 . S
C1044 C1045 1.377 . S
C1045 H1029 0.930 . S
C1045 C1044 1.377 . S
C1045 C1046 1.379 . S
C1046 H1030 0.931 . S
C1046 C1040 1.383 . S
C1046 C1045 1.379 . S
H1047 C1041 0.959 . S
H1048 C1041 0.961 . S
H1049 C1041 0.960 . S
H1050 C1042 0.930 . S
H1051 C1043 0.929 . S
H1052 C1060 0.929 . S
H1053 C1062 0.930 . S
H1054 C1064 0.930 . S
H1055 C1067 0.929 . S
H1056 C1070 0.930 . S
H1057 C1072 0.960 . S
H1058 C1072 0.960 . S
H1059 C1072 0.960 . S
C1060 H1052 0.929 . S
C1060 C1061 1.377 . S
C1060 C1062 1.384 . S
C1061 C1060 1.377 . S
C1061 C1067 1.390 . S
C1062 H1053 0.930 . S
C1062 C1060 1.384 . S
C1062 C1063 1.372 . S
C1063 C1062 1.372 . S
C1063 C1064 1.400 . S
C1063 C1068 1.490 . S
C1064 H1054 0.930 . S
C1064 C1063 1.400 . S
C1064 C1067 1.386 . S
H1065 C1081 0.930 . S
H1066 C1082 0.931 . S
C1067 H1055 0.929 . S
C1067 C1061 1.390 . S
C1067 C1064 1.386 . S
C1068 C1063 1.490 . S
C1068 C1070 1.395 . S
C1068 C1071 1.403 . S
H1069 C1075 0.930 . S
C1070 H1056 0.930 . S
C1070 C1068 1.395 . S
C1070 C1073 1.403 . S
C1071 C1068 1.403 . S
C1071 C1072 1.524 . S
C1071 C1075 1.400 . S
C1072 H1057 0.960 . S
C1072 H1058 0.960 . S
C1072 H1059 0.960 . S
C1072 C1071 1.524 . S
C1073 C1070 1.403 . S
C1073 C1074 1.392 . S
C1073 C1077 1.495 . S
C1074 C1073 1.392 . S
C1074 C1075 1.385 . S
C1074 C1076 1.478 . S
C1075 H1069 0.930 . S
C1075 C1071 1.400 . S
C1075 C1074 1.385 . S
C1076 C1074 1.478 . S
C1076 C1078 1.381 . S
C1076 C1082 1.383 . S
C1077 C1073 1.495 . S
C1077 H1083 0.959 . S
C1077 H1084 0.961 . S
C1077 H1085 0.960 . S
C1078 C1076 1.381 . S
C1078 C1079 1.394 . S
C1078 H1086 0.930 . S
C1079 C1078 1.394 . S
C1079 C1080 1.383 . S
C1079 H1087 0.929 . S
C1080 C1079 1.383 . S
C1080 C1081 1.377 . S
C1081 H1065 0.930 . S
C1081 C1080 1.377 . S
C1081 C1082 1.379 . S
C1082 H1066 0.931 . S
C1082 C1076 1.383 . S
C1082 C1081 1.379 . S
H1083 C1077 0.959 . S
H1084 C1077 0.961 . S
H1085 C1077 0.960 . S
H1086 C1078 0.930 . S
H1087 C1079 0.929 . S
H1088 C1096 0.929 . S
H1089 C1098 0.930 . S
H1090 C1100 0.930 . S
H1091 C1103 0.929 . S
H1092 C1106 0.930 . S
H1093 C1108 0.960 . S
H1094 C1108 0.960 . S
H1095 C1108 0.960 . S
C1096 H1088 0.929 . S
C1096 C1097 1.377 . S
C1096 C1098 1.384 . S
C1097 C1096 1.377 . S
C1097 C1103 1.390 . S
C1098 H1089 0.930 . S
C1098 C1096 1.384 . S
C1098 C1099 1.372 . S
C1099 C1098 1.372 . S
C1099 C1100 1.400 . S
C1099 C1104 1.490 . S
C1100 H1090 0.930 . S
C1100 C1099 1.400 . S
C1100 C1103 1.386 . S
H1101 C1117 0.930 . S
H1102 C1118 0.931 . S
C1103 H1091 0.929 . S
C1103 C1097 1.390 . S
C1103 C1100 1.386 . S
C1104 C1099 1.490 . S
C1104 C1106 1.395 . S
C1104 C1107 1.403 . S
H1105 C1111 0.930 . S
C1106 H1092 0.930 . S
C1106 C1104 1.395 . S
C1106 C1109 1.403 . S
C1107 C1104 1.403 . S
C1107 C1108 1.524 . S
C1107 C1111 1.400 . S
C1108 H1093 0.960 . S
C1108 H1094 0.960 . S
C1108 H1095 0.960 . S
C1108 C1107 1.524 . S
C1109 C1106 1.403 . S
C1109 C1110 1.392 . S
C1109 C1113 1.495 . S
C1110 C1109 1.392 . S
C1110 C1111 1.385 . S
C1110 C1112 1.478 . S
C1111 H1105 0.930 . S
C1111 C1107 1.400 . S
C1111 C1110 1.385 . S
C1112 C1110 1.478 . S
C1112 C1114 1.381 . S
C1112 C1118 1.383 . S
C1113 C1109 1.495 . S
C1113 H1119 0.959 . S
C1113 H1120 0.961 . S
C1113 H1121 0.960 . S
C1114 C1112 1.381 . S
C1114 C1115 1.394 . S
C1114 H1122 0.930 . S
C1115 C1114 1.394 . S
C1115 C1116 1.383 . S
C1115 H1123 0.929 . S
C1116 C1115 1.383 . S
C1116 C1117 1.377 . S
C1117 H1101 0.930 . S
C1117 C1116 1.377 . S
C1117 C1118 1.379 . S
C1118 H1102 0.931 . S
C1118 C1112 1.383 . S
C1118 C1117 1.379 . S
H1119 C1113 0.959 . S
H1120 C1113 0.961 . S
H1121 C1113 0.960 . S
H1122 C1114 0.930 . S
H1123 C1115 0.929 . S
H1124 C1132 0.929 . S
H1125 C1134 0.930 . S
H1126 C1136 0.930 . S
H1127 C1139 0.929 . S
H1128 C1142 0.930 . S
H1129 C1144 0.960 . S
H1130 C1144 0.960 . S
H1131 C1144 0.960 . S
C1132 H1124 0.929 . S
C1132 C1133 1.377 . S
C1132 C1134 1.384 . S
C1133 C1132 1.377 . S
C1133 C1139 1.390 . S
C1134 H1125 0.930 . S
C1134 C1132 1.384 . S
C1134 C1135 1.372 . S
C1135 C1134 1.372 . S
C1135 C1136 1.400 . S
C1135 C1140 1.490 . S
C1136 H1126 0.930 . S
C1136 C1135 1.400 . S
C1136 C1139 1.386 . S
H1137 C1153 0.930 . S
H1138 C1154 0.931 . S
C1139 H1127 0.929 . S
C1139 C1133 1.390 . S
C1139 C1136 1.386 . S
C1140 C1135 1.490 . S
C1140 C1142 1.395 . S
C1140 C1143 1.403 . S
H1141 C1147 0.930 . S
C1142 H1128 0.930 . S
C1142 C1140 1.395 . S
C1142 C1145 1.403 . S
C1143 C1140 1.403 . S
C1143 C1144 1.524 . S
C1143 C1147 1.400 . S
C1144 H1129 0.960 . S
C1144 H1130 0.960 . S
C1144 H1131 0.960 . S
C1144 C1143 1.524 . S
C1145 C1142 1.403 . S
C1145 C1146 1.392 . S
C1145 C1149 1.495 . S
C1146 C1145 1.392 . S
C1146 C1147 1.385 . S
C1146 C1148 1.478 . S
C1147 H1141 0.930 . S
C1147 C1143 1.400 . S
C1147 C1146 1.385 . S
C1148 C1146 1.478 . S
C1148 C1150 1.381 . S
C1148 C1154 1.383 . S
C1149 C1145 1.495 . S
C1149 H1155 0.959 . S
C1149 H1156 0.961 . S
C1149 H1157 0.960 . S
C1150 C1148 1.381 . S
C1150 C1151 1.394 . S
C1150 H1158 0.930 . S
C1151 C1150 1.394 . S
C1151 C1152 1.383 . S
C1151 H1159 0.929 . S
C1152 C1151 1.383 . S
C1152 C1153 1.377 . S
C1153 H1137 0.930 . S
C1153 C1152 1.377 . S
C1153 C1154 1.379 . S
C1154 H1138 0.931 . S
C1154 C1148 1.383 . S
C1154 C1153 1.379 . S
H1155 C1149 0.959 . S
H1156 C1149 0.961 . S
H1157 C1149 0.960 . S
H1158 C1150 0.930 . S
H1159 C1151 0.929 . S
H1160 C1168 0.929 . S
H1161 C1170 0.930 . S
H1162 C1172 0.930 . S
H1163 C1175 0.929 . S
H1164 C1178 0.930 . S
H1165 C1180 0.960 . S
H1166 C1180 0.960 . S
H1167 C1180 0.960 . S
C1168 H1160 0.929 . S
C1168 C1169 1.377 . S
C1168 C1170 1.384 . S
C1169 C1168 1.377 . S
C1169 C1175 1.390 . S
C1170 H1161 0.930 . S
C1170 C1168 1.384 . S
C1170 C1171 1.372 . S
C1171 C1170 1.372 . S
C1171 C1172 1.400 . S
C1171 C1176 1.490 . S
C1172 H1162 0.930 . S
C1172 C1171 1.400 . S
C1172 C1175 1.386 . S
H1173 C1189 0.930 . S
H1174 C1190 0.931 . S
C1175 H1163 0.929 . S
C1175 C1169 1.390 . S
C1175 C1172 1.386 . S
C1176 C1171 1.490 . S
C1176 C1178 1.395 . S
C1176 C1179 1.403 . S
H1177 C1183 0.930 . S
C1178 H1164 0.930 . S
C1178 C1176 1.395 . S
C1178 C1181 1.403 . S
C1179 C1176 1.403 . S
C1179 C1180 1.524 . S
C1179 C1183 1.400 . S
C1180 H1165 0.960 . S
C1180 H1166 0.960 . S
C1180 H1167 0.960 . S
C1180 C1179 1.524 . S
C1181 C1178 1.403 . S
C1181 C1182 1.392 . S
C1181 C1185 1.495 . S
C1182 C1181 1.392 . S
C1182 C1183 1.385 . S
C1182 C1184 1.478 . S
C1183 H1177 0.930 . S
C1183 C1179 1.400 . S
C1183 C1182 1.385 . S
C1184 C1182 1.478 . S
C1184 C1186 1.381 . S
C1184 C1190 1.383 . S
C1185 C1181 1.495 . S
C1185 H1191 0.959 . S
C1185 H1192 0.961 . S
C1185 H1193 0.960 . S
C1186 C1184 1.381 . S
C1186 C1187 1.394 . S
C1186 H1194 0.930 . S
C1187 C1186 1.394 . S
C1187 C1188 1.383 . S
C1187 H1195 0.929 . S
C1188 C1187 1.383 . S
C1188 C1189 1.377 . S
C1189 H1173 0.930 . S
C1189 C1188 1.377 . S
C1189 C1190 1.379 . S
C1190 H1174 0.931 . S
C1190 C1184 1.383 . S
C1190 C1189 1.379 . S
H1191 C1185 0.959 . S
H1192 C1185 0.961 . S
H1193 C1185 0.960 . S
H1194 C1186 0.930 . S
H1195 C1187 0.929 . S
H1196 C1204 0.929 . S
H1197 C1206 0.930 . S
H1198 C1208 0.930 . S
H1199 C1211 0.929 . S
H1200 C1214 0.930 . S
H1201 C1216 0.960 . S
H1202 C1216 0.960 . S
H1203 C1216 0.960 . S
C1204 H1196 0.929 . S
C1204 C1205 1.377 . S
C1204 C1206 1.384 . S
C1205 C1204 1.377 . S
C1205 C1211 1.390 . S
C1206 H1197 0.930 . S
C1206 C1204 1.384 . S
C1206 C1207 1.372 . S
C1207 C1206 1.372 . S
C1207 C1208 1.400 . S
C1207 C1212 1.490 . S
C1208 H1198 0.930 . S
C1208 C1207 1.400 . S
C1208 C1211 1.386 . S
H1209 C1225 0.930 . S
H1210 C1226 0.931 . S
C1211 H1199 0.929 . S
C1211 C1205 1.390 . S
C1211 C1208 1.386 . S
C1212 C1207 1.490 . S
C1212 C1214 1.395 . S
C1212 C1215 1.403 . S
H1213 C1219 0.930 . S
C1214 H1200 0.930 . S
C1214 C1212 1.395 . S
C1214 C1217 1.403 . S
C1215 C1212 1.403 . S
C1215 C1216 1.524 . S
C1215 C1219 1.400 . S
C1216 H1201 0.960 . S
C1216 H1202 0.960 . S
C1216 H1203 0.960 . S
C1216 C1215 1.524 . S
C1217 C1214 1.403 . S
C1217 C1218 1.392 . S
C1217 C1221 1.495 . S
C1218 C1217 1.392 . S
C1218 C1219 1.385 . S
C1218 C1220 1.478 . S
C1219 H1213 0.930 . S
C1219 C1215 1.400 . S
C1219 C1218 1.385 . S
C1220 C1218 1.478 . S
C1220 C1222 1.381 . S
C1220 C1226 1.383 . S
C1221 C1217 1.495 . S
C1221 H1227 0.959 . S
C1221 H1228 0.961 . S
C1221 H1229 0.960 . S
C1222 C1220 1.381 . S
C1222 C1223 1.394 . S
C1222 H1230 0.930 . S
C1223 C1222 1.394 . S
C1223 C1224 1.383 . S
C1223 H1231 0.929 . S
C1224 C1223 1.383 . S
C1224 C1225 1.377 . S
C1225 H1209 0.930 . S
C1225 C1224 1.377 . S
C1225 C1226 1.379 . S
C1226 H1210 0.931 . S
C1226 C1220 1.383 . S
C1226 C1225 1.379 . S
H1227 C1221 0.959 . S
H1228 C1221 0.961 . S
H1229 C1221 0.960 . S
H1230 C1222 0.930 . S
H1231 C1223 0.929 . S
H1232 C1240 0.929 . S
H1233 C1242 0.930 . S
H1234 C1244 0.930 . S
H1235 C1247 0.929 . S
H1236 C1250 0.930 . S
H1237 C1252 0.960 . S
H1238 C1252 0.960 . S
H1239 C1252 0.960 . S
C1240 H1232 0.929 . S
C1240 C1241 1.377 . S
C1240 C1242 1.384 . S
C1241 C1240 1.377 . S
C1241 C1247 1.390 . S
C1242 H1233 0.930 . S
C1242 C1240 1.384 . S
C1242 C1243 1.372 . S
C1243 C1242 1.372 . S
C1243 C1244 1.400 . S
C1243 C1248 1.490 . S
C1244 H1234 0.930 . S
C1244 C1243 1.400 . S
C1244 C1247 1.386 . S
H1245 C1261 0.930 . S
H1246 C1262 0.931 . S
C1247 H1235 0.929 . S
C1247 C1241 1.390 . S
C1247 C1244 1.386 . S
C1248 C1243 1.490 . S
C1248 C1250 1.395 . S
C1248 C1251 1.403 . S
H1249 C1255 0.930 . S
C1250 H1236 0.930 . S
C1250 C1248 1.395 . S
C1250 C1253 1.403 . S
C1251 C1248 1.403 . S
C1251 C1252 1.524 . S
C1251 C1255 1.400 . S
C1252 H1237 0.960 . S
C1252 H1238 0.960 . S
C1252 H1239 0.960 . S
C1252 C1251 1.524 . S
C1253 C1250 1.403 . S
C1253 C1254 1.392 . S
C1253 C1257 1.495 . S
C1254 C1253 1.392 . S
C1254 C1255 1.385 . S
C1254 C1256 1.478 . S
C1255 H1249 0.930 . S
C1255 C1251 1.400 . S
C1255 C1254 1.385 . S
C1256 C1254 1.478 . S
C1256 C1258 1.381 . S
C1256 C1262 1.383 . S
C1257 C1253 1.495 . S
C1257 H1263 0.959 . S
C1257 H1264 0.961 . S
C1257 H1265 0.960 . S
C1258 C1256 1.381 . S
C1258 C1259 1.394 . S
C1258 H1266 0.930 . S
C1259 C1258 1.394 . S
C1259 C1260 1.383 . S
C1259 H1267 0.929 . S
C1260 C1259 1.383 . S
C1260 C1261 1.377 . S
C1261 H1245 0.930 . S
C1261 C1260 1.377 . S
C1261 C1262 1.379 . S
C1262 H1246 0.931 . S
C1262 C1256 1.383 . S
C1262 C1261 1.379 . S
H1263 C1257 0.959 . S
H1264 C1257 0.961 . S
H1265 C1257 0.960 . S
H1266 C1258 0.930 . S
H1267 C1259 0.929 . S
H1268 C1276 0.929 . S
H1269 C1278 0.930 . S
H1270 C1280 0.930 . S
H1271 C1283 0.929 . S
H1272 C1286 0.930 . S
H1273 C1288 0.960 . S
H1274 C1288 0.960 . S
H1275 C1288 0.960 . S
C1276 H1268 0.929 . S
C1276 C1277 1.377 . S
C1276 C1278 1.384 . S
C1277 C1276 1.377 . S
C1277 C1283 1.390 . S
C1278 H1269 0.930 . S
C1278 C1276 1.384 . S
C1278 C1279 1.372 . S
C1279 C1278 1.372 . S
C1279 C1280 1.400 . S
C1279 C1284 1.490 . S
C1280 H1270 0.930 . S
C1280 C1279 1.400 . S
C1280 C1283 1.386 . S
H1281 C1297 0.930 . S
H1282 C1298 0.931 . S
C1283 H1271 0.929 . S
C1283 C1277 1.390 . S
C1283 C1280 1.386 . S
C1284 C1279 1.490 . S
C1284 C1286 1.395 . S
C1284 C1287 1.403 . S
H1285 C1291 0.930 . S
C1286 H1272 0.930 . S
C1286 C1284 1.395 . S
C1286 C1289 1.403 . S
C1287 C1284 1.403 . S
C1287 C1288 1.524 . S
C1287 C1291 1.400 . S
C1288 H1273 0.960 . S
C1288 H1274 0.960 . S
C1288 H1275 0.960 . S
C1288 C1287 1.524 . S
C1289 C1286 1.403 . S
C1289 C1290 1.392 . S
C1289 C1293 1.495 . S
C1290 C1289 1.392 . S
C1290 C1291 1.385 . S
C1290 C1292 1.478 . S
C1291 H1285 0.930 . S
C1291 C1287 1.400 . S
C1291 C1290 1.385 . S
C1292 C1290 1.478 . S
C1292 C1294 1.381 . S
C1292 C1298 1.383 . S
C1293 C1289 1.495 . S
C1293 H1299 0.959 . S
C1293 H1300 0.961 . S
C1293 H1301 0.960 . S
C1294 C1292 1.381 . S
C1294 C1295 1.394 . S
C1294 H1302 0.930 . S
C1295 C1294 1.394 . S
C1295 C1296 1.383 . S
C1295 H1303 0.929 . S
C1296 C1295 1.383 . S
C1296 C1297 1.377 . S
C1297 H1281 0.930 . S
C1297 C1296 1.377 . S
C1297 C1298 1.379 . S
C1298 H1282 0.931 . S
C1298 C1292 1.383 . S
C1298 C1297 1.379 . S
H1299 C1293 0.959 . S
H1300 C1293 0.961 . S
H1301 C1293 0.960 . S
H1302 C1294 0.930 . S
H1303 C1295 0.929 . S
H1304 C1312 0.929 . S
H1305 C1314 0.930 . S
H1306 C1316 0.930 . S
H1307 C1319 0.929 . S
H1308 C1322 0.930 . S
H1309 C1324 0.960 . S
H1310 C1324 0.960 . S
H1311 C1324 0.960 . S
C1312 H1304 0.929 . S
C1312 C1313 1.377 . S
C1312 C1314 1.384 . S
C1313 C1312 1.377 . S
C1313 C1319 1.390 . S
C1314 H1305 0.930 . S
C1314 C1312 1.384 . S
C1314 C1315 1.372 . S
C1315 C1314 1.372 . S
C1315 C1316 1.400 . S
C1315 C1320 1.490 . S
C1316 H1306 0.930 . S
C1316 C1315 1.400 . S
C1316 C1319 1.386 . S
H1317 C1333 0.930 . S
H1318 C1334 0.931 . S
C1319 H1307 0.929 . S
C1319 C1313 1.390 . S
C1319 C1316 1.386 . S
C1320 C1315 1.490 . S
C1320 C1322 1.395 . S
C1320 C1323 1.403 . S
H1321 C1327 0.930 . S
C1322 H1308 0.930 . S
C1322 C1320 1.395 . S
C1322 C1325 1.403 . S
C1323 C1320 1.403 . S
C1323 C1324 1.524 . S
C1323 C1327 1.400 . S
C1324 H1309 0.960 . S
C1324 H1310 0.960 . S
C1324 H1311 0.960 . S
C1324 C1323 1.524 . S
C1325 C1322 1.403 . S
C1325 C1326 1.392 . S
C1325 C1329 1.495 . S
C1326 C1325 1.392 . S
C1326 C1327 1.385 . S
C1326 C1328 1.478 . S
C1327 H1321 0.930 . S
C1327 C1323 1.400 . S
C1327 C1326 1.385 . S
C1328 C1326 1.478 . S
C1328 C1330 1.381 . S
C1328 C1334 1.383 . S
C1329 C1325 1.495 . S
C1329 H1335 0.959 . S
C1329 H1336 0.961 . S
C1329 H1337 0.960 . S
C1330 C1328 1.381 . S
C1330 C1331 1.394 . S
C1330 H1338 0.930 . S
C1331 C1330 1.394 . S
C1331 C1332 1.383 . S
C1331 H1339 0.929 . S
C1332 C1331 1.383 . S
C1332 C1333 1.377 . S
C1333 H1317 0.930 . S
C1333 C1332 1.377 . S
C1333 C1334 1.379 . S
C1334 H1318 0.931 . S
C1334 C1328 1.383 . S
C1334 C1333 1.379 . S
H1335 C1329 0.959 . S
H1336 C1329 0.961 . S
H1337 C1329 0.960 . S
H1338 C1330 0.930 . S
H1339 C1331 0.929 . S
H1340 C1348 0.929 . S
H1341 C1350 0.930 . S
H1342 C1352 0.930 . S
H1343 C1355 0.929 . S
H1344 C1358 0.930 . S
H1345 C1360 0.960 . S
H1346 C1360 0.960 . S
H1347 C1360 0.960 . S
C1348 H1340 0.929 . S
C1348 C1349 1.377 . S
C1348 C1350 1.384 . S
C1349 C1348 1.377 . S
C1349 C1355 1.390 . S
C1350 H1341 0.930 . S
C1350 C1348 1.384 . S
C1350 C1351 1.372 . S
C1351 C1350 1.372 . S
C1351 C1352 1.400 . S
C1351 C1356 1.490 . S
C1352 H1342 0.930 . S
C1352 C1351 1.400 . S
C1352 C1355 1.386 . S
H1353 C1369 0.930 . S
H1354 C1370 0.931 . S
C1355 H1343 0.929 . S
C1355 C1349 1.390 . S
C1355 C1352 1.386 . S
C1356 C1351 1.490 . S
C1356 C1358 1.395 . S
C1356 C1359 1.403 . S
H1357 C1363 0.930 . S
C1358 H1344 0.930 . S
C1358 C1356 1.395 . S
C1358 C1361 1.403 . S
C1359 C1356 1.403 . S
C1359 C1360 1.524 . S
C1359 C1363 1.400 . S
C1360 H1345 0.960 . S
C1360 H1346 0.960 . S
C1360 H1347 0.960 . S
C1360 C1359 1.524 . S
C1361 C1358 1.403 . S
C1361 C1362 1.392 . S
C1361 C1365 1.495 . S
C1362 C1361 1.392 . S
C1362 C1363 1.385 . S
C1362 C1364 1.478 . S
C1363 H1357 0.930 . S
C1363 C1359 1.400 . S
C1363 C1362 1.385 . S
C1364 C1362 1.478 . S
C1364 C1366 1.381 . S
C1364 C1370 1.383 . S
C1365 C1361 1.495 . S
C1365 H1371 0.959 . S
C1365 H1372 0.961 . S
C1365 H1373 0.960 . S
C1366 C1364 1.381 . S
C1366 C1367 1.394 . S
C1366 H1374 0.930 . S
C1367 C1366 1.394 . S
C1367 C1368 1.383 . S
C1367 H1375 0.929 . S
C1368 C1367 1.383 . S
C1368 C1369 1.377 . S
C1369 H1353 0.930 . S
C1369 C1368 1.377 . S
C1369 C1370 1.379 . S
C1370 H1354 0.931 . S
C1370 C1364 1.383 . S
C1370 C1369 1.379 . S
H1371 C1365 0.959 . S
H1372 C1365 0.961 . S
H1373 C1365 0.960 . S
H1374 C1366 0.930 . S
H1375 C1367 0.929 . S
C233 C9 1.490 . S
C252 C179 1.474 . S
C269 C193 1.481 . S
C288 C23 1.494 . S
C305 C37 1.492 . S
C324 C207 1.463 . S
C341 C221 1.478 . S
C360 C51 1.482 . S
C377 C121 1.490 . S
C396 C67 1.483 . S
C413 C81 1.480 . S
C432 C135 1.494 . S
C449 C149 1.490 . S
C468 C95 1.463 . S
C485 C109 1.482 . S
C504 C163 1.491 . S
C521 C5 1.422 . S
C540 C33 1.418 . S
C557 C19 1.419 . S
C576 C47 1.430 . S
C593 C61 1.681 . S
C612 C89 1.670 . S
C629 C75 1.677 . S
C648 C103 1.681 . S
C665 C145 1.417 . S
C684 C117 1.408 . S
C701 C131 1.421 . S
C720 C159 1.424 . S
C737 C201 1.677 . S
C756 C173 1.673 . S
C773 C187 1.681 . S
C792 C215 1.685 . S
C809 C84 1.474 . S
C828 C0 1.487 . S
C845 C98 1.474 . S
C864 C14 1.492 . S
C881 C28 1.479 . S
C900 C56 1.490 . S
C917 C42 1.478 . S
C936 C70 1.489 . S
C953 C196 1.474 . S
C972 C112 1.480 . S
C989 C126 1.484 . S
C1008 C210 1.472 . S
C1025 C168 1.474 . S
C1044 C140 1.487 . S
C1061 C154 1.479 . S
C1080 C182 1.489 . S
C1097 C11 1.106 . S
C1116 C53 1.093 . S
C1133 C39 1.108 . S
C1152 C25 1.103 . S
C1169 C65 1.826 . S
C1188 C107 1.817 . S
C1205 C79 1.826 . S
C1224 C93 1.821 . S
C1241 C165 1.107 . S
C1260 C123 1.096 . S
C1277 C137 1.108 . S
C1296 C151 1.104 . S
C1313 C219 1.826 . S
C1332 C177 1.817 . S
C1349 C191 1.826 . S
C1368 C205 1.820 . S
