# Generated by pormake.
# Topology uoe, (4)-cn, num edge types: 1
# Building blocks:
#     Node 0, Type 0, BuildingBlock: NAWXER_clean_sbu_0, # of connection points: 4
#     Node 1, Type 0, BuildingBlock: NAWXER_clean_sbu_0, # of connection points: 4
#     Node 2, Type 0, BuildingBlock: NAWXER_clean_sbu_0, # of connection points: 4
#     Node 3, Type 0, BuildingBlock: NAWXER_clean_sbu_0, # of connection points: 4
#     Node 4, Type 0, BuildingBlock: NAWXER_clean_sbu_0, # of connection points: 4
#     Node 5, Type 0, BuildingBlock: NAWXER_clean_sbu_0, # of connection points: 4
#     Node 6, Type 0, BuildingBlock: NAWXER_clean_sbu_0, # of connection points: 4
#     Node 7, Type 0, BuildingBlock: NAWXER_clean_sbu_0, # of connection points: 4
#     Node 8, Type 0, BuildingBlock: NAWXER_clean_sbu_0, # of connection points: 4
#     Node 9, Type 0, BuildingBlock: NAWXER_clean_sbu_0, # of connection points: 4
#     Node 10, Type 0, BuildingBlock: NAWXER_clean_sbu_0, # of connection points: 4
#     Node 11, Type 0, BuildingBlock: NAWXER_clean_sbu_0, # of connection points: 4
#     Node 12, Type 0, BuildingBlock: NAWXER_clean_sbu_0, # of connection points: 4
#     Node 13, Type 0, BuildingBlock: NAWXER_clean_sbu_0, # of connection points: 4
#     Node 14, Type 0, BuildingBlock: NAWXER_clean_sbu_0, # of connection points: 4
#     Node 15, Type 0, BuildingBlock: NAWXER_clean_sbu_0, # of connection points: 4
#     Node 16, Type 0, BuildingBlock: NAWXER_clean_sbu_0, # of connection points: 4
#     Node 17, Type 0, BuildingBlock: NAWXER_clean_sbu_0, # of connection points: 4
#     Node 18, Type 0, BuildingBlock: NAWXER_clean_sbu_0, # of connection points: 4
#     Node 19, Type 0, BuildingBlock: NAWXER_clean_sbu_0, # of connection points: 4
#     Node 20, Type 0, BuildingBlock: NAWXER_clean_sbu_0, # of connection points: 4
#     Node 21, Type 0, BuildingBlock: NAWXER_clean_sbu_0, # of connection points: 4
#     Node 22, Type 0, BuildingBlock: NAWXER_clean_sbu_0, # of connection points: 4
#     Node 23, Type 0, BuildingBlock: NAWXER_clean_sbu_0, # of connection points: 4
#     Node 24, Type 0, BuildingBlock: NAWXER_clean_sbu_0, # of connection points: 4
#     Node 25, Type 0, BuildingBlock: NAWXER_clean_sbu_0, # of connection points: 4
#     Node 26, Type 0, BuildingBlock: NAWXER_clean_sbu_0, # of connection points: 4
#     Node 27, Type 0, BuildingBlock: NAWXER_clean_sbu_0, # of connection points: 4
#     Node 28, Type 0, BuildingBlock: NAWXER_clean_sbu_0, # of connection points: 4
#     Node 29, Type 0, BuildingBlock: NAWXER_clean_sbu_0, # of connection points: 4
#     Node 30, Type 0, BuildingBlock: NAWXER_clean_sbu_0, # of connection points: 4
#     Node 31, Type 0, BuildingBlock: NAWXER_clean_sbu_0, # of connection points: 4
#     Edge 32, Type (0, 0), BuildingBlock: XIVTED_clean_linker_0, # of connection points: 2
#     Edge 33, Type (0, 0), BuildingBlock: XIVTED_clean_linker_0, # of connection points: 2
#     Edge 34, Type (0, 0), BuildingBlock: XIVTED_clean_linker_0, # of connection points: 2
#     Edge 35, Type (0, 0), BuildingBlock: XIVTED_clean_linker_0, # of connection points: 2
#     Edge 36, Type (0, 0), BuildingBlock: XIVTED_clean_linker_0, # of connection points: 2
#     Edge 37, Type (0, 0), BuildingBlock: XIVTED_clean_linker_0, # of connection points: 2
#     Edge 38, Type (0, 0), BuildingBlock: XIVTED_clean_linker_0, # of connection points: 2
#     Edge 39, Type (0, 0), BuildingBlock: XIVTED_clean_linker_0, # of connection points: 2
#     Edge 40, Type (0, 0), BuildingBlock: XIVTED_clean_linker_0, # of connection points: 2
#     Edge 41, Type (0, 0), BuildingBlock: XIVTED_clean_linker_0, # of connection points: 2
#     Edge 42, Type (0, 0), BuildingBlock: XIVTED_clean_linker_0, # of connection points: 2
#     Edge 43, Type (0, 0), BuildingBlock: XIVTED_clean_linker_0, # of connection points: 2
#     Edge 44, Type (0, 0), BuildingBlock: XIVTED_clean_linker_0, # of connection points: 2
#     Edge 45, Type (0, 0), BuildingBlock: XIVTED_clean_linker_0, # of connection points: 2
#     Edge 46, Type (0, 0), BuildingBlock: XIVTED_clean_linker_0, # of connection points: 2
#     Edge 47, Type (0, 0), BuildingBlock: XIVTED_clean_linker_0, # of connection points: 2
#     Edge 48, Type (0, 0), BuildingBlock: XIVTED_clean_linker_0, # of connection points: 2
#     Edge 49, Type (0, 0), BuildingBlock: XIVTED_clean_linker_0, # of connection points: 2
#     Edge 50, Type (0, 0), BuildingBlock: XIVTED_clean_linker_0, # of connection points: 2
#     Edge 51, Type (0, 0), BuildingBlock: XIVTED_clean_linker_0, # of connection points: 2
#     Edge 52, Type (0, 0), BuildingBlock: XIVTED_clean_linker_0, # of connection points: 2
#     Edge 53, Type (0, 0), BuildingBlock: XIVTED_clean_linker_0, # of connection points: 2
#     Edge 54, Type (0, 0), BuildingBlock: XIVTED_clean_linker_0, # of connection points: 2
#     Edge 55, Type (0, 0), BuildingBlock: XIVTED_clean_linker_0, # of connection points: 2
#     Edge 56, Type (0, 0), BuildingBlock: XIVTED_clean_linker_0, # of connection points: 2
#     Edge 57, Type (0, 0), BuildingBlock: XIVTED_clean_linker_0, # of connection points: 2
#     Edge 58, Type (0, 0), BuildingBlock: XIVTED_clean_linker_0, # of connection points: 2
#     Edge 59, Type (0, 0), BuildingBlock: XIVTED_clean_linker_0, # of connection points: 2
#     Edge 60, Type (0, 0), BuildingBlock: XIVTED_clean_linker_0, # of connection points: 2
#     Edge 61, Type (0, 0), BuildingBlock: XIVTED_clean_linker_0, # of connection points: 2
#     Edge 62, Type (0, 0), BuildingBlock: XIVTED_clean_linker_0, # of connection points: 2
#     Edge 63, Type (0, 0), BuildingBlock: XIVTED_clean_linker_0, # of connection points: 2
#     Edge 64, Type (0, 0), BuildingBlock: XIVTED_clean_linker_0, # of connection points: 2
#     Edge 65, Type (0, 0), BuildingBlock: XIVTED_clean_linker_0, # of connection points: 2
#     Edge 66, Type (0, 0), BuildingBlock: XIVTED_clean_linker_0, # of connection points: 2
#     Edge 67, Type (0, 0), BuildingBlock: XIVTED_clean_linker_0, # of connection points: 2
#     Edge 68, Type (0, 0), BuildingBlock: XIVTED_clean_linker_0, # of connection points: 2
#     Edge 69, Type (0, 0), BuildingBlock: XIVTED_clean_linker_0, # of connection points: 2
#     Edge 70, Type (0, 0), BuildingBlock: XIVTED_clean_linker_0, # of connection points: 2
#     Edge 71, Type (0, 0), BuildingBlock: XIVTED_clean_linker_0, # of connection points: 2
#     Edge 72, Type (0, 0), BuildingBlock: XIVTED_clean_linker_0, # of connection points: 2
#     Edge 73, Type (0, 0), BuildingBlock: XIVTED_clean_linker_0, # of connection points: 2
#     Edge 74, Type (0, 0), BuildingBlock: XIVTED_clean_linker_0, # of connection points: 2
#     Edge 75, Type (0, 0), BuildingBlock: XIVTED_clean_linker_0, # of connection points: 2
#     Edge 76, Type (0, 0), BuildingBlock: XIVTED_clean_linker_0, # of connection points: 2
#     Edge 77, Type (0, 0), BuildingBlock: XIVTED_clean_linker_0, # of connection points: 2
#     Edge 78, Type (0, 0), BuildingBlock: XIVTED_clean_linker_0, # of connection points: 2
#     Edge 79, Type (0, 0), BuildingBlock: XIVTED_clean_linker_0, # of connection points: 2
#     Edge 80, Type (0, 0), BuildingBlock: XIVTED_clean_linker_0, # of connection points: 2
#     Edge 81, Type (0, 0), BuildingBlock: XIVTED_clean_linker_0, # of connection points: 2
#     Edge 82, Type (0, 0), BuildingBlock: XIVTED_clean_linker_0, # of connection points: 2
#     Edge 83, Type (0, 0), BuildingBlock: XIVTED_clean_linker_0, # of connection points: 2
#     Edge 84, Type (0, 0), BuildingBlock: XIVTED_clean_linker_0, # of connection points: 2
#     Edge 85, Type (0, 0), BuildingBlock: XIVTED_clean_linker_0, # of connection points: 2
#     Edge 86, Type (0, 0), BuildingBlock: XIVTED_clean_linker_0, # of connection points: 2
#     Edge 87, Type (0, 0), BuildingBlock: XIVTED_clean_linker_0, # of connection points: 2
#     Edge 88, Type (0, 0), BuildingBlock: XIVTED_clean_linker_0, # of connection points: 2
#     Edge 89, Type (0, 0), BuildingBlock: XIVTED_clean_linker_0, # of connection points: 2
#     Edge 90, Type (0, 0), BuildingBlock: XIVTED_clean_linker_0, # of connection points: 2
#     Edge 91, Type (0, 0), BuildingBlock: XIVTED_clean_linker_0, # of connection points: 2
#     Edge 92, Type (0, 0), BuildingBlock: XIVTED_clean_linker_0, # of connection points: 2
#     Edge 93, Type (0, 0), BuildingBlock: XIVTED_clean_linker_0, # of connection points: 2
#     Edge 94, Type (0, 0), BuildingBlock: XIVTED_clean_linker_0, # of connection points: 2
#     Edge 95, Type (0, 0), BuildingBlock: XIVTED_clean_linker_0, # of connection points: 2
# Relax obj value: 0.105
# Max RMSD: 0.239
# Mean RMSD: 0.239
data_MOF--net-uoe--node1-NAWXER_clean_sbu_0--edge1-XIVTED_clean_linker_0
_symmetry_space_group_name_H-M    P1
_symmetry_Int_Tables_number       1
_symmetry_cell_setting            triclinic
loop_
_symmetry_equiv_pos_as_xyz
'x, y, z'
_cell_length_a     74.283699
_cell_length_b     74.280377
_cell_length_c     29.061415
_cell_angle_alpha  89.996128
_cell_angle_beta   90.002554
_cell_angle_gamma 89.989315
loop_
_atom_site_label
_atom_site_type_symbol
_atom_site_fract_x
_atom_site_fract_y
_atom_site_fract_z
_atom_type_partial_charge
C0 C 0.11899 0.44737 0.08251 0.0
C1 C 0.06332 0.47846 0.04629 0.0
O2 O 0.12147 0.46447 0.08077 0.0
Zn3 Zn 0.10534 0.48768 0.06122 0.0
O4 O 0.10422 0.44087 0.06815 0.0
Zn5 Zn 0.09198 0.46314 0.05624 0.0
O6 O 0.10215 0.47286 0.99141 0.0
O7 O 0.11601 0.49822 0.00787 0.0
O8 O 0.06647 0.46166 0.04619 0.0
O9 O 0.07647 0.48954 0.05063 0.0
O10 O 0.10721 0.50159 0.11584 0.0
O11 O 0.0927 0.47575 0.12407 0.0
C12 C 0.11107 0.48674 0.9783 0.0
C13 C 0.09894 0.49041 0.14129 0.0
C14 C 0.77533 0.81403 0.29464 0.0
C15 C 0.80573 0.87018 0.32993 0.0
O16 O 0.76414 0.8271 0.29884 0.0
Zn17 Zn 0.76561 0.85599 0.30901 0.0
O18 O 0.79211 0.81731 0.2944 0.0
Zn19 Zn 0.79032 0.84289 0.30397 0.0
O20 O 0.77778 0.8436 0.37198 0.0
O21 O 0.75176 0.85779 0.36387 0.0
O22 O 0.81243 0.85548 0.31569 0.0
O23 O 0.7886 0.87243 0.32816 0.0
O24 O 0.75485 0.86639 0.25553 0.0
O25 O 0.78031 0.85275 0.23891 0.0
C26 C 0.76308 0.8497 0.38933 0.0
C27 C 0.7663 0.86147 0.22583 0.0
C28 C 0.40285 0.51298 0.6397 0.0
C29 C 0.3912 0.51606 0.47603 0.0
O30 O 0.40892 0.5277 0.62235 0.0
Zn31 Zn 0.40959 0.5402 0.55413 0.0
O32 O 0.39476 0.50167 0.61423 0.0
Zn33 Zn 0.39654 0.51552 0.55938 0.0
O34 O 0.42549 0.51412 0.54944 0.0
O35 O 0.43509 0.54215 0.54466 0.0
O36 O 0.38621 0.50469 0.50583 0.0
O37 O 0.3999 0.53009 0.48906 0.0
O38 O 0.39703 0.56231 0.5654 0.0
O39 O 0.3801 0.53854 0.57863 0.0
C40 C 0.43848 0.5254 0.54519 0.0
C41 C 0.38238 0.55567 0.58007 0.0
C42 C 0.74128 0.14922 0.88809 0.0
C43 C 0.73673 0.13889 0.72475 0.0
O44 O 0.72701 0.15661 0.87173 0.0
Zn45 Zn 0.71389 0.15795 0.80434 0.0
O46 O 0.75164 0.1402 0.86208 0.0
Zn47 Zn 0.73783 0.14362 0.80797 0.0
O48 O 0.74063 0.17267 0.79883 0.0
O49 O 0.71297 0.18344 0.79541 0.0
O50 O 0.74792 0.13308 0.75401 0.0
O51 O 0.7232 0.1482 0.73848 0.0
O52 O 0.69124 0.14633 0.81637 0.0
O53 O 0.71425 0.12817 0.82713 0.0
C54 C 0.72985 0.18614 0.7952 0.0
C55 C 0.69727 0.13122 0.82963 0.0
C56 C 0.09928 0.51105 0.47973 0.0
C57 C 0.11119 0.51498 0.64282 0.0
O58 O 0.0929 0.52567 0.49686 0.0
Zn59 Zn 0.09201 0.53837 0.5646 0.0
O60 O 0.10767 0.49997 0.50524 0.0
Zn61 Zn 0.10561 0.51393 0.55981 0.0
O62 O 0.07676 0.51185 0.56991 0.0
O63 O 0.06646 0.53964 0.5742 0.0
O64 O 0.11629 0.50353 0.61333 0.0
O65 O 0.10216 0.52876 0.62958 0.0
O66 O 0.10406 0.56072 0.55246 0.0
O67 O 0.1215 0.53724 0.54008 0.0
C68 C 0.06348 0.5228 0.57393 0.0
C69 C 0.11886 0.55431 0.53809 0.0
C70 C 0.73669 0.86253 0.89047 0.0
C71 C 0.73988 0.8507 0.72695 0.0
O72 O 0.72271 0.85377 0.87735 0.0
Zn73 Zn 0.71268 0.84398 0.81236 0.0
O74 O 0.74809 0.86756 0.86077 0.0
Zn75 Zn 0.73733 0.85714 0.80722 0.0
O76 O 0.71428 0.87352 0.78794 0.0
O77 O 0.69054 0.85651 0.80078 0.0
O78 O 0.75118 0.85888 0.75228 0.0
O79 O 0.7252 0.84461 0.7444 0.0
O80 O 0.7109 0.81845 0.82202 0.0
O81 O 0.73887 0.82823 0.81765 0.0
C82 C 0.69716 0.87121 0.78633 0.0
C83 C 0.72768 0.81516 0.82191 0.0
C84 C 0.38163 0.44657 0.03645 0.0
C85 C 0.43799 0.47642 0.07212 0.0
O86 O 0.3795 0.46372 0.03809 0.0
Zn87 Zn 0.39612 0.48657 0.05747 0.0
O88 O 0.39626 0.43979 0.05088 0.0
Zn89 Zn 0.40903 0.46178 0.06249 0.0
O90 O 0.39936 0.47189 0.12762 0.0
O91 O 0.38581 0.4974 0.11104 0.0
O92 O 0.43454 0.45968 0.07215 0.0
O93 O 0.42504 0.48776 0.06788 0.0
O94 O 0.39451 0.5005 0.00266 0.0
O95 O 0.40851 0.47438 -0.00551 0.0
C96 C 0.39075 0.48596 0.14075 0.0
C97 C 0.40256 0.48915 0.97719 0.0
C98 C 0.77242 0.18721 0.31982 0.0
C99 C 0.80494 0.1324 0.28373 0.0
O100 O 0.76165 0.17375 0.31601 0.0
Zn101 Zn 0.76444 0.14475 0.30613 0.0
O102 O 0.7893 0.18452 0.31936 0.0
Zn103 Zn 0.78839 0.15905 0.30983 0.0
O104 O 0.77516 0.15797 0.24257 0.0
O105 O 0.75053 0.14155 0.2521 0.0
O106 O 0.81102 0.14746 0.29718 0.0
O107 O 0.78797 0.12937 0.28641 0.0
O108 O 0.75445 0.134 0.35991 0.0
O109 O 0.7792 0.14904 0.37558 0.0
C110 C 0.76085 0.15065 0.22619 0.0
C111 C 0.76569 0.13968 0.3892 0.0
C112 C 0.90152 0.51154 0.97296 0.0
C113 C 0.88909 0.51406 0.13606 0.0
O114 O 0.89362 0.49995 -0.00198 0.0
Zn115 Zn 0.89484 0.51369 0.05312 0.0
O116 O 0.90715 0.52635 0.99065 0.0
Zn117 Zn 0.9073 0.53879 0.05867 0.0
O118 O 0.93287 0.54107 0.06874 0.0
O119 O 0.92363 0.51292 0.06408 0.0
O120 O 0.89749 0.52833 0.12337 0.0
O121 O 0.88456 0.50256 0.1061 0.0
O122 O 0.87788 0.53621 0.03422 0.0
O123 O 0.894 0.56061 0.04674 0.0
C124 C 0.93647 0.52434 0.06859 0.0
C125 C 0.87953 0.5534 0.0325 0.0
C126 C 0.23573 0.14075 0.89097 0.0
C127 C 0.24012 0.15045 0.72725 0.0
O128 O 0.24692 0.13495 0.86173 0.0
Zn129 Zn 0.23661 0.14507 0.80743 0.0
O130 O 0.22201 0.14976 0.87709 0.0
Zn131 Zn 0.21246 0.1589 0.81079 0.0
O132 O 0.19004 0.14682 0.7992 0.0
O133 O 0.21335 0.12908 0.78825 0.0
O134 O 0.22568 0.15763 0.74327 0.0
O135 O 0.25059 0.14172 0.75364 0.0
O136 O 0.23879 0.17428 0.81564 0.0
O137 O 0.21088 0.18436 0.81901 0.0
C138 C 0.19632 0.13183 0.78588 0.0
C139 C 0.22768 0.18749 0.81896 0.0
C140 C 0.61264 0.48719 0.64334 0.0
C141 C 0.60135 0.49159 0.48056 0.0
O142 O 0.61821 0.49834 0.61372 0.0
Zn143 Zn 0.60747 0.48812 0.56026 0.0
O144 O 0.60337 0.47355 0.63014 0.0
Zn145 Zn 0.59343 0.46407 0.56464 0.0
O146 O 0.60516 0.44152 0.55208 0.0
O147 O 0.62299 0.46469 0.54019 0.0
O148 O 0.59421 0.47722 0.49712 0.0
O149 O 0.61046 0.50201 0.50623 0.0
O150 O 0.57841 0.49066 0.5699 0.0
O151 O 0.56803 0.46287 0.57435 0.0
C152 C 0.62007 0.44769 0.53783 0.0
C153 C 0.5651 0.47971 0.574 0.0
C154 C 0.26148 0.84989 0.22638 0.0
C155 C 0.26529 0.86083 0.3896 0.0
O156 O 0.25106 0.85897 0.25208 0.0
Zn157 Zn 0.26474 0.85581 0.30639 0.0
O158 O 0.27573 0.84257 0.24313 0.0
Zn159 Zn 0.28862 0.84156 0.31115 0.0
O160 O 0.28967 0.81614 0.3207 0.0
O161 O 0.26198 0.82678 0.31622 0.0
O162 O 0.27891 0.85145 0.37671 0.0
O163 O 0.25437 0.86659 0.35965 0.0
O164 O 0.28838 0.87116 0.28714 0.0
O165 O 0.31133 0.85311 0.29961 0.0
C166 C 0.2728 0.81337 0.3205 0.0
C167 C 0.30536 0.86811 0.28536 0.0
C168 C 0.90139 0.48926 0.63532 0.0
C169 C 0.88911 0.48628 0.47214 0.0
O170 O 0.89294 0.50049 0.61034 0.0
Zn171 Zn 0.89475 0.48678 0.55527 0.0
O172 O 0.90766 0.47471 0.61757 0.0
Zn173 Zn 0.90826 0.46233 0.54939 0.0
O174 O 0.9338 0.46098 0.53947 0.0
O175 O 0.92359 0.48878 0.54472 0.0
O176 O 0.89813 0.47239 0.48475 0.0
O177 O 0.88399 0.49749 0.50219 0.0
O178 O 0.87884 0.46347 0.57479 0.0
O179 O 0.8961 0.43998 0.5611 0.0
C180 C 0.93683 0.4778 0.54018 0.0
C181 C 0.8814 0.44638 0.57621 0.0
C182 C 0.26193 0.15211 0.38981 0.0
C183 C 0.26618 0.14185 0.22627 0.0
O184 O 0.25148 0.14324 0.36371 0.0
Zn185 Zn 0.26534 0.14652 0.3097 0.0
O186 O 0.2763 0.15934 0.37349 0.0
Zn187 Zn 0.2894 0.16049 0.30577 0.0
O188 O 0.29075 0.18592 0.29693 0.0
O189 O 0.26292 0.17566 0.30099 0.0
O190 O 0.27986 0.15099 0.2398 0.0
O191 O 0.25504 0.13613 0.25574 0.0
O192 O 0.28876 0.13082 0.32912 0.0
O193 O 0.31194 0.14865 0.31752 0.0
C194 C 0.27393 0.18894 0.29724 0.0
C195 C 0.30578 0.13369 0.33135 0.0
C196 C 0.61219 0.51474 0.97947 0.0
C197 C 0.60163 0.51081 0.14259 0.0
O198 O 0.61776 0.5036 0.00912 0.0
Zn199 Zn 0.60723 0.51398 0.06257 0.0
O200 O 0.60299 0.52843 -0.00735 0.0
Zn201 Zn 0.59318 0.53803 0.05826 0.0
O202 O 0.60494 0.56063 0.07006 0.0
O203 O 0.62286 0.53749 0.08147 0.0
O204 O 0.59436 0.52511 0.12602 0.0
O205 O 0.61053 0.50029 0.11673 0.0
O206 O 0.57814 0.51139 0.05364 0.0
O207 O 0.56773 0.53915 0.04913 0.0
C208 C 0.61996 0.5545 0.08367 0.0
C209 C 0.56481 0.52231 0.04965 0.0
C210 C 0.22778 0.8153 0.79535 0.0
C211 C 0.19653 0.87087 0.83036 0.0
O212 O 0.21098 0.81845 0.79554 0.0
Zn213 Zn 0.21265 0.84387 0.80467 0.0
O214 O 0.23891 0.82848 0.79922 0.0
Zn215 Zn 0.23681 0.85763 0.80874 0.0
O216 O 0.25076 0.86059 0.86265 0.0
O217 O 0.22579 0.84472 0.87239 0.0
O218 O 0.21358 0.87357 0.82833 0.0
O219 O 0.19025 0.85598 0.81637 0.0
O220 O 0.22242 0.85328 0.73872 0.0
O221 O 0.24724 0.86806 0.75509 0.0
C222 C 0.24026 0.85176 0.88871 0.0
C223 C 0.23618 0.86235 0.72541 0.0
C224 C 0.56393 0.97745 0.5427 0.0
C225 C 0.61988 0.947 0.57992 0.0
O226 O 0.57698 0.98863 0.54759 0.0
Zn227 Zn 0.60579 0.98717 0.55934 0.0
O228 O 0.56721 0.96067 0.5427 0.0
Zn229 Zn 0.59271 0.96251 0.5533 0.0
O230 O 0.59294 0.97486 0.62161 0.0
O231 O 0.60714 0.00091 0.6145 0.0
O232 O 0.60528 0.94038 0.56482 0.0
O233 O 0.62213 0.96414 0.5788 0.0
O234 O 0.61654 0.99811 0.5065 0.0
O235 O 0.60285 0.9728 0.48873 0.0
C236 C 0.59889 0.98954 0.63944 0.0
C237 C 0.61168 0.98684 0.47631 0.0
C238 C 0.27311 0.31452 0.79733 0.0
C239 C 0.30472 0.36998 0.83123 0.0
O240 O 0.26204 0.32774 0.8012 0.0
Zn241 Zn 0.26434 0.35689 0.81008 0.0
O242 O 0.28991 0.31762 0.79704 0.0
Zn243 Zn 0.28844 0.34305 0.80599 0.0
O244 O 0.27543 0.34419 0.87383 0.0
O245 O 0.2505 0.36012 0.86396 0.0
O246 O 0.31093 0.35501 0.81753 0.0
O247 O 0.28768 0.37276 0.82918 0.0
O248 O 0.25391 0.36732 0.75655 0.0
O249 O 0.27879 0.35264 0.74014 0.0
C250 C 0.26103 0.35138 0.89011 0.0
C251 C 0.26504 0.36175 0.7269 0.0
C252 C 0.88941 0.01458 0.97656 0.0
C253 C 0.89946 0.01091 0.13981 0.0
O254 O 0.89852 0.02832 0.98978 0.0
Zn255 Zn 0.90814 0.03801 0.05544 0.0
O256 O 0.88382 0.00344 0.00618 0.0
Zn257 Zn 0.89415 0.01394 0.05969 0.0
O258 O 0.87838 0.03743 0.07793 0.0
O259 O 0.89628 0.0606 0.06678 0.0
O260 O 0.89066 1.00033 0.11389 0.0
O261 O 0.90676 0.02519 0.12327 0.0
O262 O 0.93362 0.03915 0.04686 0.0
O263 O 0.92327 0.01138 0.05154 0.0
C264 C 0.88123 0.05445 0.08004 0.0
C265 C 0.93659 0.02233 0.04773 0.0
C266 C 0.23315 0.64101 0.22416 0.0
C267 C 0.23875 0.6484 0.38902 0.0
O268 O 0.22042 0.65099 0.23956 0.0
Zn269 Zn 0.21096 0.65854 0.30705 0.0
O270 O 0.24357 0.63321 0.25226 0.0
Zn271 Zn 0.23454 0.64356 0.3084 0.0
O272 O 0.21101 0.62841 0.32782 0.0
O273 O 0.18819 0.64681 0.31798 0.0
O274 O 0.2487 0.63931 0.36208 0.0
O275 O 0.22456 0.65624 0.37361 0.0
O276 O 0.21006 0.68401 0.30164 0.0
O277 O 0.23769 0.67292 0.30166 0.0
C278 C 0.19409 0.63158 0.33062 0.0
C279 C 0.22697 0.68654 0.30032 0.0
C280 C 0.56468 0.02477 0.07421 0.0
C281 C 0.62078 0.05468 0.03606 0.0
O282 O 0.57762 0.01347 0.06927 0.0
Zn283 Zn 0.60643 0.01466 0.05724 0.0
O284 O 0.56807 0.04152 0.07402 0.0
Zn285 Zn 0.59354 0.03945 0.06316 0.0
O286 O 0.59355 0.02698 -0.00499 0.0
O287 O 0.60758 0.00084 0.00216 0.0
O288 O 0.60626 0.06146 0.0512 0.0
O289 O 0.6229 0.03753 0.03743 0.0
O290 O 0.61714 0.00372 0.11014 0.0
O291 O 0.60364 0.02915 0.12773 0.0
C292 C 0.59935 0.01224 0.97722 0.0
C293 C 0.61236 0.01506 0.14026 0.0
C294 C 0.24042 0.35201 0.22776 0.0
C295 C 0.23673 0.36286 0.3909 0.0
O296 O 0.22599 0.34504 0.24445 0.0
Zn297 Zn 0.21302 0.34431 0.31219 0.0
O298 O 0.25102 0.36091 0.2534 0.0
Zn299 Zn 0.23726 0.35802 0.3077 0.0
O300 O 0.23932 0.3289 0.31708 0.0
O301 O 0.2114 0.31889 0.32153 0.0
O302 O 0.24785 0.3684 0.36117 0.0
O303 O 0.2229 0.35386 0.37776 0.0
O304 O 0.19064 0.35649 0.30051 0.0
O305 O 0.21404 0.37402 0.28871 0.0
C306 C 0.2282 0.31573 0.32116 0.0
C307 C 0.19699 0.37139 0.28673 0.0
C308 C 0.88915 0.98709 0.6405 0.0
C309 C 0.89988 0.99142 0.4776 0.0
O310 O 0.89853 0.97354 0.62723 0.0
Zn311 Zn 0.9084 0.9641 0.56164 0.0
O312 O 0.88339 0.99817 0.61094 0.0
Zn313 Zn 0.89407 0.988 0.55742 0.0
O314 O 0.87871 0.96438 0.53806 0.0
O315 O 0.89684 0.94142 0.54961 0.0
O316 O 0.89074 0.00177 0.50337 0.0
O317 O 0.90723 0.97715 0.49411 0.0
O318 O 0.93386 0.96322 0.57078 0.0
O319 O 0.92314 0.99088 0.56651 0.0
C320 C 0.88179 0.94741 0.53584 0.0
C321 C 0.93659 0.9801 0.57036 0.0
C322 C 0.3067 0.63323 0.78566 0.0
C323 C 0.27417 0.68854 0.81413 0.0
O324 O 0.28976 0.63015 0.78852 0.0
Zn325 Zn 0.26627 0.64559 0.80741 0.0
O326 O 0.31265 0.6485 0.7978 0.0
Zn327 Zn 0.28992 0.66033 0.80822 0.0
O328 O 0.28055 0.65297 0.876 0.0
O329 O 0.25715 0.6355 0.86367 0.0
O330 O 0.29104 0.68579 0.81291 0.0
O331 O 0.2633 0.67504 0.81312 0.0
O332 O 0.25209 0.64103 0.75409 0.0
O333 O 0.27639 0.6576 0.74153 0.0
C334 C 0.26773 0.64315 0.89161 0.0
C335 C 0.26216 0.64971 0.72656 0.0
C336 C 0.38222 0.05659 0.53672 0.0
C337 C 0.43701 0.02306 0.56527 0.0
O338 O 0.3976 0.06236 0.54857 0.0
Zn339 Zn 0.40911 0.03945 0.55961 0.0
O340 O 0.37889 0.03972 0.54003 0.0
Zn341 Zn 0.3939 0.01602 0.55907 0.0
O342 O 0.38371 0.0072 0.61546 0.0
O343 O 0.40167 0.03027 0.62745 0.0
O344 O 0.42327 0.01248 0.56458 0.0
O345 O 0.43462 0.03998 0.56405 0.0
O346 O 0.4062 0.02582 0.49332 0.0
O347 O 0.3891 0.00186 0.50579 0.0
C348 C 0.39163 0.01766 0.64323 0.0
C349 C 0.39808 0.01172 0.47837 0.0
C350 C 0.73519 0.64051 0.3926 0.0
C351 C 0.73956 0.65076 0.2296 0.0
O352 O 0.74637 0.63482 0.36321 0.0
Zn353 Zn 0.73618 0.64531 0.30954 0.0
O354 O 0.72159 0.64978 0.37912 0.0
Zn355 Zn 0.71219 0.65952 0.31332 0.0
O356 O 0.68956 0.6478 0.30129 0.0
O357 O 0.71266 0.62977 0.29054 0.0
O358 O 0.72526 0.65813 0.24587 0.0
O359 O 0.74997 0.64182 0.25565 0.0
O360 O 0.73894 0.67439 0.31803 0.0
O361 O 0.71125 0.68503 0.32202 0.0
C362 C 0.69567 0.63272 0.28804 0.0
C363 C 0.72811 0.68782 0.32162 0.0
C364 C 0.11988 0.94717 0.03706 0.0
C365 C 0.06348 0.97685 0.07368 0.0
O366 O 0.10536 0.94033 0.05199 0.0
Zn367 Zn 0.09249 0.96228 0.0637 0.0
O368 O 0.12191 0.96433 0.03842 0.0
Zn369 Zn 0.10524 0.98712 0.05784 0.0
O370 O 0.11574 0.99817 0.11079 0.0
O371 O 0.10243 0.97263 0.12834 0.0
O372 O 0.07637 0.98822 0.06892 0.0
O373 O 0.067 0.96012 0.07404 0.0
O374 O 0.09266 0.97469 -0.00453 0.0
O375 O 0.10655 0.00091 0.00281 0.0
C376 C 0.11104 0.98679 0.14088 0.0
C377 C 0.09846 0.98945 0.97777 0.0
C378 C 0.76862 0.35844 0.89206 0.0
C379 C 0.76383 0.35102 0.72681 0.0
O380 O 0.75792 0.36579 0.86381 0.0
Zn381 Zn 0.76737 0.35566 0.80785 0.0
O382 O 0.78169 0.34886 0.87684 0.0
Zn383 Zn 0.79147 0.34141 0.80958 0.0
O384 O 0.81395 0.35373 0.79943 0.0
O385 O 0.79065 0.3715 0.78876 0.0
O386 O 0.7784 0.344 0.74255 0.0
O387 O 0.75303 0.359 0.75396 0.0
O388 O 0.76499 0.32642 0.81457 0.0
O389 O 0.79275 0.31578 0.81442 0.0
C390 C 0.80767 0.36877 0.7864 0.0
C391 C 0.77589 0.31297 0.81576 0.0
C392 C 0.39968 0.98891 0.14086 0.0
C393 C 0.39307 0.98344 0.9759 0.0
O394 O 0.39081 0.99895 0.11364 0.0
Zn395 Zn 0.39542 0.98489 0.06006 0.0
O396 O 0.40761 0.97474 0.12564 0.0
Zn397 Zn 0.41035 0.96125 0.05918 0.0
O398 O 0.43585 0.96044 0.05455 0.0
O399 O 0.4248 0.98807 0.05446 0.0
O400 O 0.40292 0.97063 0.99153 0.0
O401 O 0.38536 0.99399 0.00379 0.0
O402 O 0.38012 0.96133 0.0786 0.0
O403 O 0.39857 0.93846 0.06995 0.0
C404 C 0.43841 0.97734 0.05351 0.0
C405 C 0.38325 0.94441 0.08172 0.0
C406 C 0.75832 0.6511 0.89176 0.0
C407 C 0.76214 0.64025 0.72891 0.0
O408 O 0.74756 0.64242 0.86606 0.0
Zn409 Zn 0.76136 0.64523 0.81182 0.0
O410 O 0.77285 0.65787 0.87519 0.0
Zn411 Zn 0.78593 0.65859 0.80787 0.0
O412 O 0.78763 0.68413 0.79881 0.0
O413 O 0.75966 0.67425 0.80258 0.0
O414 O 0.77609 0.64902 0.74226 0.0
O415 O 0.75075 0.63503 0.75838 0.0
O416 O 0.78425 0.62887 0.83042 0.0
O417 O 0.80813 0.64591 0.82023 0.0
C418 C 0.77084 0.68737 0.79888 0.0
C419 C 0.80135 0.63106 0.83309 0.0
C420 C 0.09901 0.01213 0.64015 0.0
C421 C 0.11142 0.01486 0.47693 0.0
O422 O 0.10724 1.00075 0.61514 0.0
Zn423 Zn 0.10577 0.0145 0.56004 0.0
O424 O 0.09306 0.02682 0.6224 0.0
Zn425 Zn 0.09272 0.03921 0.55422 0.0
O426 O 0.0672 0.0411 0.5441 0.0
O427 O 0.0769 0.01311 0.54906 0.0
O428 O 0.10267 0.02893 0.48954 0.0
O429 O 0.11632 0.00356 0.507 0.0
O430 O 0.12219 0.03748 0.57932 0.0
O431 O 0.10538 0.0613 0.5658 0.0
C432 C 0.06387 0.02433 0.54443 0.0
C433 C 0.11999 0.05461 0.58064 0.0
C434 C 0.69414 0.3697 0.32922 0.0
C435 C 0.72608 0.31396 0.30002 0.0
O436 O 0.68791 0.35467 0.31603 0.0
Zn437 Zn 0.71043 0.34236 0.30615 0.0
O438 O 0.71117 0.37243 0.32717 0.0
Zn439 Zn 0.7345 0.35665 0.3084 0.0
O440 O 0.74407 0.36688 0.25271 0.0
O441 O 0.72039 0.3499 0.23909 0.0
O442 O 0.73696 0.32743 0.30146 0.0
O443 O 0.70921 0.31674 0.3011 0.0
O444 O 0.72334 0.34485 0.37341 0.0
O445 O 0.7487 0.35992 0.36255 0.0
C446 C 0.73347 0.35955 0.22422 0.0
C447 C 0.73786 0.35187 0.38944 0.0
H448 H 0.96748 0.54451 0.07126 0.0
H449 H 0.03212 0.45884 0.04163 0.0
H450 H 0.94857 0.4896 0.06567 0.0
H451 H 0.05169 0.51344 0.05134 0.0
H452 H 0.00135 0.47006 0.04862 0.0
H453 H 0.99843 0.53354 0.06426 0.0
C454 C 0.96983 0.53015 0.069 0.0
C455 C 0.95537 0.51797 0.06903 0.0
C456 C 0.01236 0.47961 0.04906 0.0
C457 C 0.99075 0.50533 0.06043 0.0
C458 C 0.02995 0.47321 0.04482 0.0
C459 C 0.04455 0.4852 0.04593 0.0
C460 C 0.00928 0.49815 0.05449 0.0
C461 C 0.04087 0.50369 0.05028 0.0
C462 C 0.9875 0.52389 0.06477 0.0
C463 C 0.95925 0.4995 0.0658 0.0
N464 N 0.02362 0.50958 0.05455 0.0
N465 N 0.97653 0.49377 0.06147 0.0
H466 H 0.79507 0.78278 0.2911 0.0
H467 H 0.70898 0.71927 0.3265 0.0
H468 H 0.74044 0.80238 0.29948 0.0
H469 H 0.76322 0.69896 0.31395 0.0
H470 H 0.72048 0.74985 0.31812 0.0
H471 H 0.7838 0.75198 0.29893 0.0
C472 C 0.7807 0.78061 0.29415 0.0
C473 C 0.76869 0.79522 0.29467 0.0
C474 C 0.72989 0.73873 0.31735 0.0
C475 C 0.75573 0.76 0.3042 0.0
C476 C 0.72333 0.72123 0.32236 0.0
C477 C 0.73514 0.70648 0.32092 0.0
C478 C 0.74841 0.74156 0.3108 0.0
C479 C 0.75361 0.7099 0.31535 0.0
C480 C 0.77428 0.76302 0.29884 0.0
C481 C 0.75022 0.79157 0.29888 0.0
N482 N 0.75967 0.72707 0.31035 0.0
N483 N 0.74433 0.77436 0.30367 0.0
H484 H 0.4695 0.54541 0.54086 0.0
H485 H 0.53389 0.46029 0.58053 0.0
H486 H 0.45046 0.49065 0.55179 0.0
H487 H 0.55359 0.51465 0.56538 0.0
H488 H 0.50318 0.4714 0.57193 0.0
H489 H 0.50039 0.53453 0.54955 0.0
C490 C 0.47181 0.53109 0.54465 0.0
C491 C 0.45734 0.51893 0.54562 0.0
C492 C 0.5142 0.48093 0.57066 0.0
C493 C 0.49266 0.50642 0.55616 0.0
C494 C 0.53176 0.4746 0.5758 0.0
C495 C 0.54637 0.48655 0.57363 0.0
C496 C 0.51116 0.49936 0.56321 0.0
C497 C 0.54275 0.50494 0.56735 0.0
C498 C 0.48945 0.5249 0.54983 0.0
C499 C 0.46117 0.50053 0.55079 0.0
N500 N 0.52551 0.51078 0.56219 0.0
N501 N 0.47843 0.49486 0.55605 0.0
H502 H 0.76511 0.19702 0.79833 0.0
H503 H 0.74069 0.30196 0.8132 0.0
H504 H 0.71085 0.21774 0.79208 0.0
H505 H 0.79507 0.28143 0.81603 0.0
H506 H 0.7295 0.27115 0.80649 0.0
H507 H 0.77637 0.22784 0.80422 0.0
C508 C 0.75556 0.20804 0.79782 0.0
C509 C 0.73699 0.20476 0.79474 0.0
C510 C 0.74388 0.27338 0.8087 0.0
C511 C 0.7498 0.24011 0.80196 0.0
C512 C 0.75028 0.29098 0.81275 0.0
C513 C 0.76886 0.29432 0.81519 0.0
C514 C 0.75612 0.25897 0.80708 0.0
C515 C 0.78064 0.27952 0.81427 0.0
C516 C 0.762 0.22565 0.80137 0.0
C517 C 0.72527 0.2196 0.79438 0.0
N518 N 0.77407 0.26252 0.81019 0.0
N519 N 0.73187 0.2366 0.79812 0.0
H520 H 0.05236 0.48769 0.56957 0.0
H521 H 0.948 0.51289 0.5445 0.0
H522 H 0.03198 0.5421 0.57495 0.0
H523 H 0.96831 0.45846 0.53908 0.0
H524 H 0.97871 0.52384 0.55452 0.0
H525 H 0.02165 0.4767 0.55951 0.0
C526 C 0.04142 0.49733 0.56911 0.0
C527 C 0.04479 0.51587 0.57308 0.0
C528 C 0.97647 0.50951 0.55092 0.0
C529 C 0.00955 0.50335 0.56095 0.0
C530 C 0.95892 0.50323 0.54495 0.0
C531 C 0.95553 0.4847 0.54098 0.0
C532 C 0.99079 0.49718 0.55306 0.0
C533 C 0.97026 0.47285 0.54195 0.0
C534 C 0.02388 0.49104 0.5631 0.0
C535 C 0.03005 0.5277 0.57207 0.0
N536 N 0.98723 0.47929 0.54808 0.0
N537 N 0.0131 0.52124 0.56592 0.0
H538 H 0.7359 0.69911 0.80251 0.0
H539 H 0.7626 0.80339 0.819 0.0
H540 H 0.79063 0.71855 0.79686 0.0
H541 H 0.70785 0.78401 0.82439 0.0
H542 H 0.77313 0.77237 0.8121 0.0
H543 H 0.72536 0.73011 0.80987 0.0
C544 C 0.74571 0.70989 0.80241 0.0
C545 C 0.7642 0.70618 0.79905 0.0
C546 C 0.75881 0.77489 0.81498 0.0
C547 C 0.75219 0.74176 0.808 0.0
C548 C 0.75278 0.79261 0.81914 0.0
C549 C 0.73429 0.79634 0.82225 0.0
C550 C 0.74628 0.76074 0.81383 0.0
C551 C 0.72222 0.78179 0.82212 0.0
C552 C 0.73967 0.72761 0.80684 0.0
C553 C 0.77626 0.72074 0.7993 0.0
N554 N 0.72842 0.76465 0.8178 0.0
N555 N 0.77005 0.73787 0.80386 0.0
H556 H 0.53358 0.54173 0.04334 0.0
H557 H 0.469 0.45634 0.07665 0.0
H558 H 0.5533 0.48732 0.05745 0.0
H559 H 0.45005 0.51118 0.06746 0.0
H560 H 0.49995 0.46726 0.06996 0.0
H561 H 0.50285 0.53054 0.05052 0.0
C562 C 0.53146 0.5274 0.04759 0.0
C563 C 0.54608 0.51546 0.0498 0.0
C564 C 0.48902 0.47691 0.06962 0.0
C565 C 0.51082 0.50254 0.05854 0.0
C566 C 0.47133 0.47069 0.07364 0.0
C567 C 0.45687 0.48285 0.07258 0.0
C568 C 0.49228 0.49542 0.06437 0.0
C569 C 0.46074 0.50129 0.06846 0.0
C570 C 0.51388 0.52102 0.05191 0.0
C571 C 0.54245 0.49703 0.05546 0.0
N572 N 0.47804 0.50698 0.06433 0.0
N573 N 0.52519 0.49114 0.05977 0.0
H574 H 0.76131 0.30303 0.30281 0.0
H575 H 0.73714 0.19804 0.31733 0.0
H576 H 0.707 0.28238 0.2996 0.0
H577 H 0.79137 0.21883 0.32317 0.0
H578 H 0.72581 0.22885 0.3118 0.0
H579 H 0.77258 0.27225 0.30957 0.0
C580 C 0.75175 0.29203 0.3032 0.0
C581 C 0.73317 0.29532 0.30062 0.0
C582 C 0.74019 0.22668 0.31448 0.0
C583 C 0.74599 0.26 0.30879 0.0
C584 C 0.74667 0.20908 0.31784 0.0
C585 C 0.76526 0.20581 0.32067 0.0
C586 C 0.75236 0.24115 0.31384 0.0
C587 C 0.77694 0.22068 0.32105 0.0
C588 C 0.75819 0.27444 0.30726 0.0
C589 C 0.72143 0.2805 0.30146 0.0
N590 N 0.77031 0.23767 0.31749 0.0
N591 N 0.72803 0.26351 0.30556 0.0
H592 H 0.29286 0.28348 0.7906 0.0
H593 H 0.20788 0.21852 0.82499 0.0
H594 H 0.23826 0.30265 0.80482 0.0
H595 H 0.26252 0.19939 0.8116 0.0
H596 H 0.21878 0.24941 0.81825 0.0
H597 H 0.28193 0.2526 0.79711 0.0
C598 C 0.27854 0.28121 0.79474 0.0
C599 C 0.26646 0.29572 0.79718 0.0
C600 C 0.2284 0.23847 0.81694 0.0
C601 C 0.25387 0.26031 0.80512 0.0
C602 C 0.22219 0.2208 0.82097 0.0
C603 C 0.2343 0.2063 0.81885 0.0
C604 C 0.24686 0.24171 0.81065 0.0
C605 C 0.25269 0.21013 0.81351 0.0
C606 C 0.27232 0.26355 0.79864 0.0
C607 C 0.24807 0.29191 0.80267 0.0
N608 N 0.25839 0.22745 0.80945 0.0
N609 N 0.24236 0.27458 0.8066 0.0
H610 H 0.23764 0.80234 0.31639 0.0
H611 H 0.26225 0.69737 0.30508 0.0
H612 H 0.29195 0.78188 0.32502 0.0
H613 H 0.20802 0.71811 0.29766 0.0
H614 H 0.27348 0.72821 0.31182 0.0
H615 H 0.22655 0.77148 0.31062 0.0
C616 C 0.24723 0.79136 0.31746 0.0
C617 C 0.26577 0.79473 0.32115 0.0
C618 C 0.25913 0.726 0.30857 0.0
C619 C 0.25316 0.75932 0.31406 0.0
C620 C 0.25271 0.70839 0.30451 0.0
C621 C 0.23416 0.70512 0.3008 0.0
C622 C 0.24691 0.74045 0.30895 0.0
C623 C 0.22244 0.71996 0.30046 0.0
C624 C 0.24089 0.77373 0.31396 0.0
C625 C 0.27755 0.77994 0.32222 0.0
N626 N 0.229 0.73694 0.30459 0.0
N627 N 0.27105 0.7629 0.31852 0.0
H628 H 0.29352 0.22005 0.29051 0.0
H629 H 0.20844 0.28468 0.32756 0.0
H630 H 0.23905 0.20063 0.3055 0.0
H631 H 0.26302 0.30389 0.3136 0.0
H632 H 0.21939 0.2538 0.32034 0.0
H633 H 0.28249 0.25086 0.29785 0.0
C634 C 0.27921 0.22226 0.29499 0.0
C635 C 0.26719 0.2077 0.29742 0.0
C636 C 0.22898 0.26477 0.31904 0.0
C637 C 0.25449 0.24302 0.30634 0.0
C638 C 0.22275 0.28242 0.32336 0.0
C639 C 0.23482 0.29693 0.32117 0.0
C640 C 0.24743 0.26157 0.31237 0.0
C641 C 0.25321 0.29315 0.31556 0.0
C642 C 0.27293 0.23987 0.29938 0.0
C643 C 0.2488 0.21142 0.30334 0.0
N644 N 0.25894 0.27585 0.3112 0.0
N645 N 0.24303 0.2287 0.30776 0.0
H646 H 0.2936 0.71975 0.81817 0.0
H647 H 0.20797 0.78424 0.78958 0.0
H648 H 0.23907 0.70003 0.80787 0.0
H649 H 0.26267 0.80344 0.80017 0.0
H650 H 0.21902 0.75333 0.79481 0.0
H651 H 0.28237 0.75046 0.81175 0.0
C652 C 0.27923 0.72187 0.81482 0.0
C653 C 0.26726 0.70724 0.81357 0.0
C654 C 0.22861 0.7643 0.79581 0.0
C655 C 0.2543 0.74252 0.80581 0.0
C656 C 0.22232 0.78198 0.79265 0.0
C657 C 0.23441 0.7965 0.79449 0.0
C658 C 0.24713 0.76109 0.80092 0.0
C659 C 0.25285 0.7927 0.79858 0.0
C660 C 0.27283 0.73945 0.81101 0.0
C661 C 0.24879 0.71087 0.80912 0.0
N662 N 0.25863 0.77538 0.80181 0.0
N663 N 0.24288 0.72815 0.80528 0.0
H664 H 0.44764 0.98763 0.56043 0.0
H665 H 0.55241 0.0124 0.54251 0.0
H666 H 0.46868 0.04177 0.566 0.0
H667 H 0.5326 0.95776 0.5412 0.0
H668 H 0.52154 0.02325 0.5483 0.0
H669 H 0.47843 0.97623 0.55242 0.0
C670 C 0.45871 0.99711 0.56033 0.0
C671 C 0.45554 0.0157 0.56394 0.0
C672 C 0.52391 0.00888 0.54656 0.0
C673 C 0.49077 0.00276 0.55427 0.0
C674 C 0.54156 0.00266 0.54304 0.0
C675 C 0.54515 0.98412 0.54146 0.0
C676 C 0.50964 0.9965 0.54862 0.0
C677 C 0.53049 0.97217 0.54231 0.0
C678 C 0.47628 0.9906 0.55554 0.0
C679 C 0.47043 0.02735 0.56335 0.0
N680 N 0.51338 0.97856 0.54603 0.0
N681 N 0.48734 0.02069 0.5585 0.0
H682 H 0.96779 0.04181 0.04203 0.0
H683 H 0.03252 0.95669 0.07835 0.0
H684 H 0.94817 0.98739 0.05655 0.0
H685 H 0.05131 0.01157 0.06867 0.0
H686 H 0.00154 0.96751 0.07103 0.0
H687 H 0.99851 0.03072 0.05037 0.0
C688 C 0.96993 0.02749 0.04661 0.0
C689 C 0.95533 0.01552 0.04858 0.0
C690 C 0.01245 0.97718 0.07073 0.0
C691 C 0.99059 0.00273 0.05867 0.0
C692 C 0.03014 0.97102 0.07513 0.0
C693 C 0.04458 0.98323 0.07408 0.0
C694 C 0.00914 0.99567 0.06511 0.0
C695 C 0.04065 0.00164 0.06966 0.0
C696 C 0.98751 0.02118 0.0516 0.0
C697 C 0.959 0.99712 0.05472 0.0
N698 N 0.02334 0.00728 0.06515 0.0
N699 N 0.97625 0.99129 0.05967 0.0
H700 H 0.53353 0.0447 0.07783 0.0
H701 H 0.46988 0.9583 0.05127 0.0
H702 H 0.55287 0.98991 0.07295 0.0
H703 H 0.44941 0.01262 0.05935 0.0
H704 H 0.50038 0.96993 0.05882 0.0
H705 H 0.50262 0.03345 0.07251 0.0
C706 C 0.53129 0.03031 0.07609 0.0
C707 C 0.54585 0.01824 0.07574 0.0
C708 C 0.48925 0.97934 0.05885 0.0
C709 C 0.51052 0.00531 0.06913 0.0
C710 C 0.47179 0.97271 0.05435 0.0
C711 C 0.45702 0.98449 0.05464 0.0
C712 C 0.49206 0.99794 0.06373 0.0
C713 C 0.46039 0.00303 0.05883 0.0
C714 C 0.51364 0.02391 0.07284 0.0
C715 C 0.54211 0.99974 0.07328 0.0
N716 N 0.47756 0.00918 0.0633 0.0
N717 N 0.52485 0.99387 0.06987 0.0
H718 H 0.05218 0.98943 0.54732 0.0
H719 H 0.94767 0.01527 0.56387 0.0
H720 H 0.03264 0.04414 0.54221 0.0
H721 H 0.96807 0.96099 0.5743 0.0
H722 H 0.97855 0.02623 0.5556 0.0
H723 H 0.02127 0.97884 0.55487 0.0
C724 C 0.04138 0.99923 0.54736 0.0
C725 C 0.04506 0.01773 0.54418 0.0
C726 C 0.97626 0.01193 0.5599 0.0
C727 C 0.00952 0.00565 0.55336 0.0
C728 C 0.95863 0.00566 0.56486 0.0
C729 C 0.95524 0.98716 0.5698 0.0
C730 C 0.99062 0.99961 0.55976 0.0
C731 C 0.97001 0.97536 0.57061 0.0
C732 C 0.02371 0.99316 0.55192 0.0
C733 C 0.03047 0.02976 0.54453 0.0
N734 N 0.98701 0.98177 0.56547 0.0
N735 N 0.01335 0.02352 0.54923 0.0
H736 H 0.10852 0.46301 0.90628 0.0
H737 H 0.10828 0.53869 0.71482 0.0
H738 H 0.1204 0.51855 0.93777 0.0
H739 H 0.12075 0.48326 0.68347 0.0
H740 H 0.11079 0.53168 0.797 0.0
H741 H 0.11107 0.47004 0.82413 0.0
C742 C 0.11181 0.47663 0.89594 0.0
C743 C 0.11421 0.49022 0.92887 0.0
C744 C 0.11316 0.52112 0.77202 0.0
C745 C 0.11685 0.49838 0.83523 0.0
C746 C 0.11169 0.5251 0.7252 0.0
C747 C 0.11427 0.51153 0.69229 0.0
C748 C 0.11686 0.50339 0.78596 0.0
C749 C 0.11869 0.49415 0.70765 0.0
C750 C 0.1133 0.48062 0.84913 0.0
C751 C 0.11847 0.50764 0.91356 0.0
N752 N 0.11961 0.49052 0.7534 0.0
N753 N 0.11943 0.51128 0.86782 0.0
H754 H 0.71326 0.85962 0.96309 0.0
H755 H 0.78974 0.85869 0.15312 0.0
H756 H 0.76874 0.87135 0.93065 0.0
H757 H 0.73434 0.87069 0.18584 0.0
H758 H 0.78242 0.86125 0.07109 0.0
H759 H 0.72062 0.86162 0.04515 0.0
C760 C 0.72694 0.86276 0.9732 0.0
C761 C 0.7404 0.8653 0.93999 0.0
C762 C 0.77194 0.86349 0.09633 0.0
C763 C 0.74896 0.8673 0.03359 0.0
C764 C 0.77609 0.86199 0.14309 0.0
C765 C 0.76263 0.86446 0.17636 0.0
C766 C 0.75414 0.86712 0.08282 0.0
C767 C 0.74516 0.86873 0.16139 0.0
C768 C 0.73112 0.86393 0.01998 0.0
C769 C 0.75791 0.86935 0.95506 0.0
N770 N 0.74136 0.86971 0.11573 0.0
N771 N 0.76174 0.87 0.00075 0.0
H772 H 0.39367 0.4626 0.21361 0.0
H773 H 0.39409 0.53937 0.40309 0.0
H774 H 0.38193 0.51805 0.18073 0.0
H775 H 0.38223 0.48398 0.43624 0.0
H776 H 0.39176 0.53191 0.32111 0.0
H777 H 0.3916 0.47006 0.29563 0.0
C778 C 0.39052 0.47629 0.22361 0.0
C779 C 0.38799 0.48972 0.19027 0.0
C780 C 0.38951 0.52145 0.34642 0.0
C781 C 0.3859 0.49838 0.28384 0.0
C782 C 0.39086 0.52569 0.39315 0.0
C783 C 0.38836 0.51229 0.42655 0.0
C784 C 0.38599 0.50362 0.33304 0.0
C785 C 0.38421 0.49476 0.4117 0.0
C786 C 0.38931 0.48053 0.27037 0.0
C787 C 0.38393 0.50725 0.20522 0.0
N788 N 0.38336 0.49089 0.36605 0.0
N789 N 0.38323 0.51112 0.25088 0.0
H790 H 0.71326 0.14268 0.65244 0.0
H791 H 0.78917 0.14348 0.46154 0.0
H792 H 0.76854 0.12972 0.68418 0.0
H793 H 0.73404 0.12994 0.42969 0.0
H794 H 0.78198 0.1412 0.54376 0.0
H795 H 0.72051 0.14078 0.57022 0.0
C796 C 0.72686 0.1393 0.64213 0.0
C797 C 0.7403 0.13634 0.67515 0.0
C798 C 0.77154 0.13857 0.51863 0.0
C799 C 0.74873 0.13449 0.58154 0.0
C800 C 0.77562 0.1399 0.47182 0.0
C801 C 0.7622 0.13689 0.43876 0.0
C802 C 0.75384 0.1346 0.53236 0.0
C803 C 0.74484 0.1323 0.45398 0.0
C804 C 0.73098 0.13819 0.5953 0.0
C805 C 0.75773 0.13202 0.65989 0.0
N806 N 0.7411 0.13151 0.49967 0.0
N807 N 0.7615 0.13145 0.61419 0.0
H808 H 0.88023 0.48183 0.17511 0.0
H809 H 0.87929 0.51826 0.43311 0.0
H810 H 0.89137 0.53727 0.20943 0.0
H811 H 0.8923 0.46323 0.39875 0.0
H812 H 0.87709 0.52525 0.35109 0.0
H813 H 0.87802 0.47483 0.25708 0.0
C814 C 0.882 0.49259 0.19984 0.0
C815 C 0.88608 0.51018 0.18538 0.0
C816 C 0.8803 0.51163 0.36159 0.0
C817 C 0.88347 0.50219 0.27918 0.0
C818 C 0.88146 0.50757 0.40836 0.0
C819 C 0.88606 0.49012 0.42281 0.0
C820 C 0.88348 0.49808 0.329 0.0
C821 C 0.88881 0.47687 0.38913 0.0
C822 C 0.88082 0.48854 0.24659 0.0
C823 C 0.88829 0.52353 0.21905 0.0
N824 N 0.88746 0.48112 0.34373 0.0
N825 N 0.88695 0.51927 0.26445 0.0
H826 H 0.21254 0.14494 0.96386 0.0
H827 H 0.28933 0.14569 0.15319 0.0
H828 H 0.26772 0.13193 0.93115 0.0
H829 H 0.23421 0.13271 0.18649 0.0
H830 H 0.28175 0.14361 0.07115 0.0
H831 H 0.22012 0.14341 0.04598 0.0
C832 C 0.22619 0.14164 0.97393 0.0
C833 C 0.2395 0.13853 0.94064 0.0
C834 C 0.27139 0.14107 0.09654 0.0
C835 C 0.2483 0.13711 0.03415 0.0
C836 C 0.27569 0.14229 0.14327 0.0
C837 C 0.2624 0.13934 0.1767 0.0
C838 C 0.2536 0.13729 0.08326 0.0
C839 C 0.24491 0.135 0.1619 0.0
C840 C 0.2305 0.14074 0.0207 0.0
C841 C 0.257 0.13434 0.95562 0.0
N842 N 0.24097 0.1343 0.1163 0.0
N843 N 0.26095 0.13395 0.00125 0.0
H844 H 0.62177 0.4828 0.94027 0.0
H845 H 0.62236 0.51906 0.68271 0.0
H846 H 0.60865 0.53784 0.90617 0.0
H847 H 0.60887 0.46409 0.71654 0.0
H848 H 0.62416 0.52603 0.76477 0.0
H849 H 0.62384 0.47583 0.85827 0.0
C850 C 0.61953 0.49349 0.91556 0.0
C851 C 0.61497 0.51095 0.93006 0.0
C852 C 0.62092 0.51243 0.75414 0.0
C853 C 0.61743 0.503 0.83632 0.0
C854 C 0.62 0.50838 0.70738 0.0
C855 C 0.61539 0.49095 0.69277 0.0
C856 C 0.61753 0.4989 0.78657 0.0
C857 C 0.61238 0.47771 0.72631 0.0
C858 C 0.62062 0.48944 0.86882 0.0
C859 C 0.61212 0.5242 0.89646 0.0
N860 N 0.61353 0.48195 0.77175 0.0
N861 N 0.61344 0.51996 0.85105 0.0
H862 H 0.26833 0.87146 0.68653 0.0
H863 H 0.23325 0.87062 0.42795 0.0
H864 H 0.21339 0.85832 0.65157 0.0
H865 H 0.28799 0.85697 0.4637 0.0
H866 H 0.2259 0.8727 0.50975 0.0
H867 H 0.27568 0.87275 0.60464 0.0
C868 C 0.25774 0.86906 0.66165 0.0
C869 C 0.24019 0.86473 0.67593 0.0
C870 C 0.23953 0.86936 0.49961 0.0
C871 C 0.24859 0.8663 0.58223 0.0
C872 C 0.2438 0.86827 0.45298 0.0
C873 C 0.26128 0.86357 0.43896 0.0
C874 C 0.2529 0.86604 0.53254 0.0
C875 C 0.27434 0.86056 0.47299 0.0
C876 C 0.26201 0.8697 0.61496 0.0
C877 C 0.22708 0.86164 0.64208 0.0
N878 N 0.26989 0.8619 0.51829 0.0
N879 N 0.23154 0.86254 0.59671 0.0
H880 H 0.62161 0.98288 0.17917 0.0
H881 H 0.62123 0.01896 0.43761 0.0
H882 H 0.60967 0.03812 0.21384 0.0
H883 H 0.60898 0.96383 0.40262 0.0
H884 H 0.62363 0.02606 0.35568 0.0
H885 H 0.62364 0.97577 0.26116 0.0
C886 C 0.61964 0.99358 0.20398 0.0
C887 C 0.61538 0.01113 0.1896 0.0
C888 C 0.62054 0.01239 0.36602 0.0
C889 C 0.61777 0.00303 0.28342 0.0
C890 C 0.61926 0.00828 0.41274 0.0
C891 C 0.61481 0.99076 0.42701 0.0
C892 C 0.61764 0.99885 0.33326 0.0
C893 C 0.61234 0.97752 0.39316 0.0
C894 C 0.6207 0.98946 0.25074 0.0
C895 C 0.61289 0.02441 0.22338 0.0
N896 N 0.6138 0.98183 0.3478 0.0
N897 N 0.61414 0.02008 0.26877 0.0
H898 H 0.2689 0.3718 0.42992 0.0
H899 H 0.23313 0.37154 0.68792 0.0
H900 H 0.21378 0.35927 0.46445 0.0
H901 H 0.28798 0.35786 0.6533 0.0
H902 H 0.22604 0.37363 0.60602 0.0
H903 H 0.27611 0.37328 0.5119 0.0
C904 C 0.25825 0.36958 0.45472 0.0
C905 C 0.24069 0.36536 0.44033 0.0
C906 C 0.23964 0.37027 0.61642 0.0
C907 C 0.24891 0.36712 0.53405 0.0
C908 C 0.24375 0.36918 0.66312 0.0
C909 C 0.26119 0.36446 0.67747 0.0
C910 C 0.2531 0.36694 0.58378 0.0
C911 C 0.27436 0.36146 0.64373 0.0
C912 C 0.26243 0.37032 0.50145 0.0
C913 C 0.22749 0.3625 0.47405 0.0
N914 N 0.27005 0.36279 0.59835 0.0
N915 N 0.23186 0.36347 0.51943 0.0
H916 H 0.88016 0.98256 0.93736 0.0
H917 H 0.87914 0.01886 0.67994 0.0
H918 H 0.8928 0.03771 0.90332 0.0
H919 H 0.89324 0.96402 0.71361 0.0
H920 H 0.87733 0.02579 0.76201 0.0
H921 H 0.87816 0.97558 0.85535 0.0
C922 C 0.88231 0.99326 0.91266 0.0
C923 C 0.88672 0.01076 0.92717 0.0
C924 C 0.8807 0.01223 0.75134 0.0
C925 C 0.88434 0.0028 0.83345 0.0
C926 C 0.88164 0.0082 0.70457 0.0
C927 C 0.88642 0.99082 0.68993 0.0
C928 C 0.88426 0.99872 0.78372 0.0
C929 C 0.8896 0.9776 0.72343 0.0
C930 C 0.88126 0.98921 0.86592 0.0
C931 C 0.88945 0.02404 0.8936 0.0
N932 N 0.88843 0.98182 0.76887 0.0
N933 N 0.88818 0.0198 0.84819 0.0
H934 H 0.27319 0.66912 0.95644 0.0
H935 H 0.24673 0.61259 0.1754 0.0
H936 H 0.25361 0.61485 0.93972 0.0
H937 H 0.2289 0.66754 0.16034 0.0
H938 H 0.25562 0.61247 0.09381 0.0
H939 H 0.26397 0.6682 0.03763 0.0
C940 C 0.26724 0.65693 0.97008 0.0
C941 C 0.26417 0.64202 0.94151 0.0
C942 C 0.24965 0.62447 0.10848 0.0
C943 C 0.25379 0.64088 0.03388 0.0
C944 C 0.24457 0.62456 0.1548 0.0
C945 C 0.23694 0.64005 0.17435 0.0
C946 C 0.24765 0.64018 0.08219 0.0
C947 C 0.23453 0.65526 0.14635 0.0
C948 C 0.26184 0.65649 0.01612 0.0
C949 C 0.25618 0.62662 0.9607 0.0
N950 N 0.24012 0.65504 0.10179 0.0
N951 N 0.25138 0.62637 0.00588 0.0
H952 H 0.41914 0.97785 0.91141 0.0
H953 H 0.36303 0.00468 0.69213 0.0
H954 H 0.36496 0.99778 0.92753 0.0
H955 H 0.41821 0.02178 0.70702 0.0
H956 H 0.36275 0.99597 0.77381 0.0
H957 H 0.41843 0.98711 0.83025 0.0
C958 C 0.407 0.98389 0.89764 0.0
C959 C 0.39206 0.98704 0.92602 0.0
C960 C 0.37484 0.00175 0.7591 0.0
C961 C 0.39116 0.99747 0.83371 0.0
C962 C 0.37501 0.00672 0.71273 0.0
C963 C 0.39062 0.01408 0.6931 0.0
C964 C 0.39056 0.00358 0.78537 0.0
C965 C 0.40584 0.01635 0.72108 0.0
C966 C 0.40669 0.98932 0.85163 0.0
C967 C 0.37675 0.99514 0.90669 0.0
N968 N 0.40553 0.01086 0.76572 0.0
N969 N 0.37662 0.99997 0.86152 0.0
H970 H 0.76686 0.63039 0.43234 0.0
H971 H 0.73006 0.63144 0.68931 0.0
H972 H 0.71202 0.64468 0.46548 0.0
H973 H 0.78546 0.64327 0.65598 0.0
H974 H 0.7232 0.6296 0.60724 0.0
H975 H 0.77363 0.62841 0.51444 0.0
C976 C 0.75617 0.63291 0.45686 0.0
C977 C 0.73883 0.63777 0.44206 0.0
C978 C 0.73686 0.63249 0.61798 0.0
C979 C 0.74655 0.63543 0.5359 0.0
C980 C 0.74085 0.63344 0.66476 0.0
C981 C 0.75838 0.63758 0.67949 0.0
C982 C 0.75055 0.63539 0.58568 0.0
C983 C 0.77176 0.64013 0.64609 0.0
C984 C 0.76011 0.63187 0.50365 0.0
C985 C 0.72557 0.64096 0.47542 0.0
N986 N 0.76758 0.63896 0.60063 0.0
N987 N 0.7297 0.6397 0.5209 0.0
H988 H 0.12078 0.98273 0.43799 0.0
H989 H 0.12027 0.01897 0.17972 0.0
H990 H 0.10853 0.03792 0.40341 0.0
H991 H 0.1085 0.9637 0.21444 0.0
H992 H 0.12256 0.02603 0.26167 0.0
H993 H 0.12287 0.97567 0.35599 0.0
C994 C 0.11875 0.99343 0.41319 0.0
C995 C 0.11439 0.01096 0.42759 0.0
C996 C 0.1196 0.01234 0.25127 0.0
C997 C 0.11686 0.0029 0.33378 0.0
C998 C 0.11838 0.00825 0.20453 0.0
C999 C 0.11411 0.9907 0.19019 0.0
C1000 C 0.1168 0.99875 0.28396 0.0
C1001 C 0.11173 0.97741 0.22397 0.0
C1002 C 0.11985 0.98933 0.36643 0.0
C1003 C 0.11183 0.02423 0.39384 0.0
N1004 N 0.11312 0.98171 0.26934 0.0
N1005 N 0.11311 0.01993 0.34845 0.0
H1006 H 0.74742 0.38805 0.17653 0.0
H1007 H 0.77433 0.33255 0.95686 0.0
H1008 H 0.72903 0.33339 0.15952 0.0
H1009 H 0.75386 0.3865 0.94004 0.0
H1010 H 0.76494 0.33326 0.03791 0.0
H1011 H 0.75635 0.38852 0.09494 0.0
C1012 C 0.74515 0.37622 0.1555 0.0
C1013 C 0.73735 0.36071 0.17449 0.0
C1014 C 0.76266 0.34496 0.01641 0.0
C1015 C 0.74811 0.36096 0.08238 0.0
C1016 C 0.76815 0.34464 0.97045 0.0
C1017 C 0.76488 0.35951 0.94189 0.0
C1018 C 0.75432 0.36042 0.03413 0.0
C1019 C 0.75659 0.37476 0.96102 0.0
C1020 C 0.75025 0.37651 0.1092 0.0
C1021 C 0.7348 0.34568 0.14597 0.0
N1022 N 0.75172 0.37491 0.00617 0.0
N1023 N 0.74043 0.34608 0.10144 0.0
H1024 H 0.10313 0.47898 0.43478 0.0
H1025 H 0.10237 0.5225 0.18625 0.0
H1026 H 0.09126 0.53521 0.41223 0.0
H1027 H 0.09141 0.4661 0.20883 0.0
H1028 H 0.10073 0.52752 0.26932 0.0
H1029 H 0.10128 0.47389 0.35173 0.0
C1030 C 0.10008 0.49022 0.41235 0.0
C1031 C 0.09739 0.50754 0.43022 0.0
C1032 C 0.09855 0.51409 0.25597 0.0
C1033 C 0.09542 0.50186 0.33569 0.0
C1034 C 0.09956 0.51121 0.2087 0.0
C1035 C 0.09707 0.49386 0.19082 0.0
C1036 C 0.09535 0.49946 0.28542 0.0
C1037 C 0.09337 0.47969 0.22129 0.0
C1038 C 0.09895 0.4873 0.3651 0.0
C1039 C 0.09338 0.52163 0.39979 0.0
N1040 N 0.0928 0.48277 0.26727 0.0
N1041 N 0.09269 0.51852 0.35385 0.0
H1042 H 0.71552 0.84265 0.65984 0.0
H1043 H 0.78752 0.84218 0.45671 0.0
H1044 H 0.77188 0.85415 0.68136 0.0
H1045 H 0.73106 0.85311 0.43478 0.0
H1046 H 0.78195 0.84074 0.53957 0.0
H1047 H 0.72111 0.84067 0.57709 0.0
C1048 C 0.72909 0.84463 0.64718 0.0
C1049 C 0.74326 0.84867 0.67736 0.0
C1050 C 0.7708 0.84339 0.51652 0.0
C1051 C 0.7497 0.84632 0.58313 0.0
C1052 C 0.77393 0.84413 0.46931 0.0
C1053 C 0.75972 0.84787 0.43898 0.0
C1054 C 0.75332 0.84614 0.53331 0.0
C1055 C 0.7424 0.85034 0.45708 0.0
C1056 C 0.73223 0.84357 0.60003 0.0
C1057 C 0.76056 0.85115 0.65916 0.0
N1058 N 0.73967 0.84941 0.50319 0.0
N1059 N 0.76332 0.84991 0.61311 0.0
H1060 H 0.41053 0.5373 0.70728 0.0
H1061 H 0.41034 0.46486 0.90963 0.0
H1062 H 0.3995 0.4809 0.68489 0.0
H1063 H 0.39931 0.52127 0.93202 0.0
H1064 H 0.41216 0.47061 0.8269 0.0
H1065 H 0.4122 0.53157 0.79007 0.0
C1066 C 0.4086 0.52369 0.71976 0.0
C1067 C 0.40477 0.50955 0.68932 0.0
C1068 C 0.4094 0.48171 0.85002 0.0
C1069 C 0.40676 0.50296 0.78357 0.0
C1070 C 0.40844 0.47848 0.89717 0.0
C1071 C 0.40457 0.49261 0.9276 0.0
C1072 C 0.40673 0.49923 0.83338 0.0
C1073 C 0.40218 0.50998 0.90964 0.0
C1074 C 0.40948 0.52047 0.76693 0.0
C1075 C 0.40234 0.4922 0.70728 0.0
N1076 N 0.40332 0.51281 0.8636 0.0
N1077 N 0.4034 0.48937 0.75334 0.0
H1078 H 0.76771 0.17874 0.1683 0.0
H1079 H 0.75643 0.12347 0.94169 0.0
H1080 H 0.74592 0.12492 0.17226 0.0
H1081 H 0.73433 0.17718 0.94631 0.0
H1082 H 0.76071 0.12452 0.02532 0.0
H1083 H 0.76283 0.17932 0.08446 0.0
C1084 C 0.76186 0.16712 0.15146 0.0
C1085 C 0.75711 0.15178 0.1768 0.0
C1086 C 0.75502 0.13607 0.00778 0.0
C1087 C 0.7521 0.1522 0.08214 0.0
C1088 C 0.7527 0.13555 0.96032 0.0
C1089 C 0.745 0.15026 0.9375 0.0
C1090 C 0.75007 0.15158 0.03207 0.0
C1091 C 0.74022 0.16556 0.96301 0.0
C1092 C 0.75906 0.16749 0.10401 0.0
C1093 C 0.74959 0.13703 0.15377 0.0
N1094 N 0.74299 0.16591 0.00921 0.0
N1095 N 0.74754 0.13749 0.10744 0.0
H1096 H 0.91006 0.46488 0.70184 0.0
H1097 H 0.90889 0.53629 0.90628 0.0
H1098 H 0.89755 0.52109 0.68141 0.0
H1099 H 0.89899 0.47957 0.92693 0.0
H1100 H 0.91079 0.53098 0.82339 0.0
H1101 H 0.91206 0.47028 0.78466 0.0
C1102 C 0.90788 0.47838 0.71476 0.0
C1103 C 0.90352 0.49256 0.68488 0.0
C1104 C 0.90828 0.51972 0.84618 0.0
C1105 C 0.90589 0.49878 0.77915 0.0
C1106 C 0.90727 0.5227 0.8934 0.0
C1107 C 0.90367 0.50834 0.92336 0.0
C1108 C 0.90592 0.50224 0.82901 0.0
C1109 C 0.90163 0.49102 0.9049 0.0
C1110 C 0.90895 0.48142 0.76194 0.0
C1111 C 0.90079 0.50977 0.70338 0.0
N1112 N 0.9028 0.48844 0.85878 0.0
N1113 N 0.90203 0.51242 0.74946 0.0
H1114 H 0.25583 0.12482 0.67442 0.0
H1115 H 0.26871 0.18007 0.4483 0.0
H1116 H 0.23314 0.17825 0.66844 0.0
H1117 H 0.24694 0.12625 0.44318 0.0
H1118 H 0.26326 0.18059 0.53196 0.0
H1119 H 0.26085 0.1259 0.59107 0.0
C1120 C 0.25211 0.13684 0.65555 0.0
C1121 C 0.24404 0.15146 0.67791 0.0
C1122 C 0.25965 0.16877 0.51219 0.0
C1123 C 0.24999 0.15285 0.58365 0.0
C1124 C 0.26278 0.16842 0.46485 0.0
C1125 C 0.25817 0.15312 0.43922 0.0
C1126 C 0.25249 0.15348 0.53369 0.0
C1127 C 0.25052 0.13834 0.46189 0.0
C1128 C 0.25487 0.13738 0.60824 0.0
C1129 C 0.23931 0.16669 0.65209 0.0
N1130 N 0.24814 0.13877 0.50812 0.0
N1131 N 0.24251 0.16709 0.60606 0.0
H1132 H 0.6274 0.49564 0.19589 0.0
H1133 H 0.57308 0.48451 0.42344 0.0
H1134 H 0.57387 0.51814 0.20118 0.0
H1135 H 0.62672 0.5068 0.42609 0.0
H1136 H 0.57213 0.48944 0.33963 0.0
H1137 H 0.62656 0.49152 0.27955 0.0
C1138 C 0.61541 0.49949 0.21468 0.0
C1139 C 0.60068 0.50724 0.19205 0.0
C1140 C 0.58399 0.49331 0.35891 0.0
C1141 C 0.5996 0.50237 0.28664 0.0
C1142 C 0.58458 0.49048 0.40632 0.0
C1143 C 0.59999 0.49533 0.43126 0.0
C1144 C 0.59914 0.50042 0.3367 0.0
C1145 C 0.61457 0.50303 0.4079 0.0
C1146 C 0.61501 0.49727 0.26215 0.0
C1147 C 0.58549 0.51219 0.21776 0.0
N1148 N 0.61391 0.50509 0.36161 0.0
N1149 N 0.58525 0.50951 0.26399 0.0
H1150 H 0.25631 0.87705 0.94187 0.0
H1151 H 0.26833 0.82181 0.16816 0.0
H1152 H 0.23284 0.82394 0.94727 0.0
H1153 H 0.24668 0.8757 0.17258 0.0
H1154 H 0.26303 0.82122 0.08439 0.0
H1155 H 0.26124 0.87578 0.0252 0.0
C1156 C 0.2524 0.86506 0.9606 0.0
C1157 C 0.24413 0.85059 0.93807 0.0
C1158 C 0.25941 0.83307 0.10405 0.0
C1159 C 0.24999 0.849 0.03236 0.0
C1160 C 0.26245 0.83345 0.15144 0.0
C1161 C 0.25784 0.84881 0.1769 0.0
C1162 C 0.25233 0.84836 0.08236 0.0
C1163 C 0.25026 0.86357 0.15402 0.0
C1164 C 0.25511 0.86441 0.0079 0.0
C1165 C 0.23916 0.83539 0.96374 0.0
N1166 N 0.24797 0.8631 0.10777 0.0
N1167 N 0.24232 0.83489 0.0098 0.0
H1168 H 0.59089 0.96502 0.70632 0.0
H1169 H 0.59118 0.03673 0.91042 0.0
H1170 H 0.60197 0.02149 0.68535 0.0
H1171 H 0.60232 0.98026 0.93133 0.0
H1172 H 0.58907 0.03126 0.82761 0.0
H1173 H 0.58902 0.97046 0.7892 0.0
C1174 C 0.59278 0.97858 0.71913 0.0
C1175 C 0.5967 0.99282 0.68906 0.0
C1176 C 0.5919 0.02008 0.85043 0.0
C1177 C 0.59448 0.99909 0.78343 0.0
C1178 C 0.59303 0.02315 0.89762 0.0
C1179 C 0.59704 0.00892 0.92765 0.0
C1180 C 0.59455 0.00262 0.83333 0.0
C1181 C 0.59935 0.99162 0.90927 0.0
C1182 C 0.59178 0.98164 0.76635 0.0
C1183 C 0.59906 0.01012 0.70744 0.0
N1184 N 0.59806 0.98894 0.86318 0.0
N1185 N 0.5979 0.01278 0.75355 0.0
H1186 H 0.23319 0.32371 0.17078 0.0
H1187 H 0.24549 0.3772 0.94246 0.0
H1188 H 0.25579 0.37722 0.1731 0.0
H1189 H 0.26837 0.32386 0.94963 0.0
H1190 H 0.24091 0.37658 0.02595 0.0
H1191 H 0.23848 0.32249 0.08711 0.0
C1192 C 0.23928 0.33513 0.15361 0.0
C1193 C 0.24414 0.35057 0.17843 0.0
C1194 C 0.24684 0.36502 0.00901 0.0
C1195 C 0.24966 0.34942 0.08401 0.0
C1196 C 0.24935 0.3653 0.96163 0.0
C1197 C 0.25733 0.35056 0.93956 0.0
C1198 C 0.2519 0.34972 0.034 0.0
C1199 C 0.26225 0.33549 0.96576 0.0
C1200 C 0.24233 0.33439 0.10629 0.0
C1201 C 0.252 0.36505 0.15501 0.0
N1202 N 0.2593 0.33536 0.01191 0.0
N1203 N 0.25429 0.36424 0.1088 0.0
H1204 H 0.92813 0.98462 0.42029 0.0
H1205 H 0.87358 0.99584 0.19294 0.0
H1206 H 0.87426 0.00636 0.42338 0.0
H1207 H 0.92716 0.0182 0.19852 0.0
H1208 H 0.87438 0.99166 0.27658 0.0
H1209 H 0.92897 0.98965 0.33654 0.0
C1210 C 0.91655 0.99049 0.40327 0.0
C1211 C 0.90112 0.99517 0.4283 0.0
C1212 C 0.88595 0.99739 0.25925 0.0
C1213 C 0.90184 1.00037 0.33381 0.0
C1214 C 0.88557 0.99966 0.2118 0.0
C1215 C 0.90033 0.00738 0.18927 0.0
C1216 C 0.90136 0.00243 0.28381 0.0
C1217 C 0.91551 0.01228 0.21503 0.0
C1218 C 0.91707 0.99337 0.35589 0.0
C1219 C 0.88643 0.00273 0.40509 0.0
N1220 N 0.91574 0.00956 0.26124 0.0
N1221 N 0.88704 0.00487 0.35882 0.0
H1222 H 0.2471 0.62292 0.67578 0.0
H1223 H 0.23353 0.67682 0.44671 0.0
H1224 H 0.26826 0.67685 0.66534 0.0
H1225 H 0.25322 0.62219 0.44295 0.0
H1226 H 0.23946 0.67767 0.52996 0.0
H1227 H 0.242 0.62284 0.5923 0.0
C1228 C 0.25048 0.63479 0.65592 0.0
C1229 C 0.25809 0.64992 0.67712 0.0
C1230 C 0.24252 0.66557 0.51066 0.0
C1231 C 0.2521 0.64997 0.58263 0.0
C1232 C 0.23912 0.66505 0.46349 0.0
C1233 C 0.24299 0.64943 0.43828 0.0
C1234 C 0.24924 0.65018 0.53263 0.0
C1235 C 0.25022 0.63452 0.46131 0.0
C1236 C 0.2477 0.63467 0.60851 0.0
C1237 C 0.26242 0.66492 0.65 0.0
N1238 N 0.25289 0.63516 0.5075 0.0
N1239 N 0.25918 0.66466 0.60398 0.0
H1240 H 0.42744 0.9832 0.20019 0.0
H1241 H 0.3714 0.99711 0.42622 0.0
H1242 H 0.37303 0.00334 0.19338 0.0
H1243 H 0.42588 0.01703 0.41895 0.0
H1244 H 0.37199 0.99196 0.34272 0.0
H1245 H 0.42748 0.9887 0.28362 0.0
C1246 C 0.41555 0.98881 0.21634 0.0
C1247 C 0.40024 0.99295 0.19023 0.0
C1248 C 0.38379 0.99739 0.35965 0.0
C1249 C 0.40005 0.99869 0.28475 0.0
C1250 C 0.38353 1.00019 0.40706 0.0
C1251 C 0.39862 0.0075 0.4291 0.0
C1252 C 0.39942 0.00146 0.33472 0.0
C1253 C 0.41397 0.01145 0.40292 0.0
C1254 C 0.41561 0.99195 0.26362 0.0
C1255 C 0.38513 1.00016 0.21247 0.0
N1256 N 0.41406 0.00821 0.35693 0.0
N1257 N 0.38531 0.0026 0.25876 0.0
H1258 H 0.75462 0.62487 0.17646 0.0
H1259 H 0.76596 0.67917 0.94888 0.0
H1260 H 0.7326 0.67861 0.17114 0.0
H1261 H 0.743 0.62582 0.94623 0.0
H1262 H 0.76133 0.68007 0.03279 0.0
H1263 H 0.75876 0.62569 0.09279 0.0
C1264 C 0.75088 0.6369 0.15766 0.0
C1265 C 0.74324 0.65169 0.18024 0.0
C1266 C 0.75725 0.66828 0.01349 0.0
C1267 C 0.74815 0.65275 0.08573 0.0
C1268 C 0.7599 0.66773 0.96604 0.0
C1269 C 0.75475 0.65242 0.9411 0.0
C1270 C 0.75002 0.65319 0.03571 0.0
C1271 C 0.74698 0.63789 0.96446 0.0
C1272 C 0.75313 0.63729 0.1102 0.0
C1273 C 0.73845 0.66693 0.15457 0.0
N1274 N 0.74508 0.63851 0.0108 0.0
N1275 N 0.74113 0.66716 0.10836 0.0
H1276 H 0.09072 0.96487 0.91087 0.0
H1277 H 0.09072 0.03659 0.70687 0.0
H1278 H 0.10135 0.02143 0.93195 0.0
H1279 H 0.10225 0.98018 0.68606 0.0
H1280 H 0.08858 0.03111 0.78966 0.0
H1281 H 0.0889 0.97031 0.828 0.0
C1282 C 0.09252 0.97846 0.89809 0.0
C1283 C 0.09631 0.99273 0.92817 0.0
C1284 C 0.09151 0.01995 0.76686 0.0
C1285 C 0.09415 0.99898 0.83383 0.0
C1286 C 0.09266 0.02303 0.71969 0.0
C1287 C 0.09678 0.00882 0.68971 0.0
C1288 C 0.09426 0.00251 0.78397 0.0
C1289 C 0.0992 0.99153 0.7081 0.0
C1290 C 0.09155 0.98151 0.85087 0.0
C1291 C 0.09856 0.01004 0.90984 0.0
N1292 N 0.09788 0.98885 0.75417 0.0
N1293 N 0.09743 0.0127 0.86373 0.0
H1294 H 0.7876 0.34438 0.65737 0.0
H1295 H 0.71402 0.34502 0.4586 0.0
H1296 H 0.73156 0.35605 0.68323 0.0
H1297 H 0.77009 0.35668 0.43331 0.0
H1298 H 0.72024 0.3442 0.54121 0.0
H1299 H 0.78134 0.344 0.57478 0.0
C1300 C 0.77396 0.34676 0.64567 0.0
C1301 C 0.76006 0.35028 0.6771 0.0
C1302 C 0.73115 0.34693 0.51751 0.0
C1303 C 0.75286 0.34976 0.58295 0.0
C1304 C 0.72766 0.34731 0.47043 0.0
C1305 C 0.74158 0.35095 0.43915 0.0
C1306 C 0.74874 0.34991 0.5333 0.0
C1307 C 0.75897 0.35391 0.45632 0.0
C1308 C 0.77044 0.34663 0.59859 0.0
C1309 C 0.74266 0.35337 0.66009 0.0
N1310 N 0.76209 0.35325 0.50233 0.0
N1311 N 0.73952 0.35295 0.61406 0.0
H1312 H 0.11538 0.41167 0.10384 0.0
H1313 H 0.20578 0.40469 0.25193 0.0
H1314 H 0.15162 0.45663 0.12059 0.0
H1315 H 0.16166 0.36709 0.2624 0.0
H1316 H 0.18753 0.42328 0.20014 0.0
H1317 H 0.1342 0.39396 0.1556 0.0
C1318 C 0.12744 0.41776 0.11782 0.0
C1319 C 0.13187 0.43572 0.1078 0.0
C1320 C 0.18182 0.41104 0.21415 0.0
C1321 C 0.15342 0.41549 0.16783 0.0
C1322 C 0.19218 0.40046 0.24394 0.0
C1323 C 0.18527 0.38427 0.26165 0.0
C1324 C 0.16451 0.40527 0.20149 0.0
C1325 C 0.16758 0.37946 0.24978 0.0
C1326 C 0.1381 0.40767 0.1478 0.0
C1327 C 0.14766 0.44285 0.12728 0.0
N1328 N 0.15791 0.3898 0.22017 0.0
N1329 N 0.15785 0.43273 0.15645 0.0
H1330 H 0.88656 0.91193 0.51332 0.0
H1331 H 0.79616 0.90311 0.36558 0.0
H1332 H 0.84871 0.95569 0.49892 0.0
H1333 H 0.84114 0.86656 0.35439 0.0
H1334 H 0.81392 0.92188 0.41798 0.0
H1335 H 0.86819 0.89387 0.46128 0.0
C1336 C 0.87424 0.91768 0.49981 0.0
C1337 C 0.86922 0.93541 0.51056 0.0
C1338 C 0.81993 0.90983 0.40369 0.0
C1339 C 0.84819 0.91479 0.4502 0.0
C1340 C 0.80984 0.89916 0.37354 0.0
C1341 C 0.81714 0.8832 0.35543 0.0
C1342 C 0.83737 0.90441 0.4163 0.0
C1343 C 0.83493 0.87874 0.3673 0.0
C1344 C 0.86384 0.90739 0.46967 0.0
C1345 C 0.85312 0.9421 0.49167 0.0
N1346 N 0.84434 0.88918 0.39724 0.0
N1347 N 0.84321 0.9318 0.46232 0.0
H1348 H 0.3499 0.54616 0.61848 0.0
H1349 H 0.34201 0.63784 0.76137 0.0
H1350 H 0.38597 0.59129 0.60225 0.0
H1351 H 0.29833 0.59967 0.75203 0.0
H1352 H 0.35972 0.619 0.70965 0.0
H1353 H 0.33159 0.56424 0.67129 0.0
C1354 C 0.35383 0.55994 0.62541 0.0
C1355 C 0.36952 0.56719 0.60578 0.0
C1356 C 0.3463 0.61468 0.71911 0.0
C1357 C 0.34887 0.58777 0.66709 0.0
C1358 C 0.33622 0.62536 0.74908 0.0
C1359 C 0.3186 0.62039 0.76107 0.0
C1360 C 0.3388 0.59883 0.70106 0.0
C1361 C 0.31185 0.60406 0.74374 0.0
C1362 C 0.34343 0.5702 0.65581 0.0
C1363 C 0.374 0.5851 0.61637 0.0
N1364 N 0.32193 0.59389 0.71449 0.0
N1365 N 0.36383 0.59468 0.64656 0.0
H1366 H 0.66186 0.13588 0.85284 0.0
H1367 H 0.65338 0.04497 -0.00137 0.0
H1368 H 0.70566 0.09799 0.86544 0.0
H1369 H 0.61725 0.09018 0.01252 0.0
H1370 H 0.67194 0.06281 0.94588 0.0
H1371 H 0.64396 0.11732 0.90478 0.0
C1372 C 0.66764 0.12351 0.86592 0.0
C1373 C 0.68535 0.11854 0.85473 0.0
C1374 C 0.66003 0.06885 0.96083 0.0
C1375 C 0.66491 0.09729 0.91497 0.0
C1376 C 0.64948 0.05872 0.99117 0.0
C1377 C 0.6337 0.06607 0.01017 0.0
C1378 C 0.65466 0.08638 0.94892 0.0
C1379 C 0.62929 0.08393 -0.00107 0.0
C1380 C 0.65745 0.113 0.896 0.0
C1381 C 0.69209 0.10237 0.87306 0.0
N1382 N 0.6396 0.09338 0.96879 0.0
N1383 N 0.68188 0.09235 0.90238 0.0
H1384 H 0.15885 0.63645 0.3555 0.0
H1385 H 0.15163 0.54522 0.5008 0.0
H1386 H 0.20236 0.59808 0.36461 0.0
H1387 H 0.11458 0.58971 0.5142 0.0
H1388 H 0.16974 0.56328 0.44764 0.0
H1389 H 0.14116 0.61777 0.40775 0.0
C1390 C 0.1646 0.62396 0.36785 0.0
C1391 C 0.18217 0.61888 0.35562 0.0
C1392 C 0.15773 0.56912 0.46256 0.0
C1393 C 0.16203 0.59752 0.41623 0.0
C1394 C 0.14743 0.55886 0.49317 0.0
C1395 C 0.13153 0.56594 0.51213 0.0
C1396 C 0.152 0.58651 0.4504 0.0
C1397 C 0.12674 0.58367 0.50063 0.0
C1398 C 0.15454 0.61338 0.39811 0.0
C1399 C 0.18889 0.60255 0.37306 0.0
N1400 N 0.13683 0.59326 0.47027 0.0
N1401 N 0.17884 0.59249 0.40259 0.0
H1402 H 0.61646 0.91125 0.6008 0.0
H1403 H 0.70641 0.90423 0.75047 0.0
H1404 H 0.65231 0.95644 0.61886 0.0
H1405 H 0.6618 0.86726 0.76203 0.0
H1406 H 0.6884 0.92281 0.69802 0.0
H1407 H 0.63518 0.89362 0.65297 0.0
C1408 C 0.62842 0.91741 0.61515 0.0
C1409 C 0.63276 0.93541 0.60539 0.0
C1410 C 0.68253 0.91071 0.71243 0.0
C1411 C 0.6542 0.91527 0.66588 0.0
C1412 C 0.69276 0.90015 0.74258 0.0
C1413 C 0.68563 0.88413 0.76081 0.0
C1414 C 0.66516 0.90509 0.69989 0.0
C1415 C 0.66789 0.87949 0.74904 0.0
C1416 C 0.63901 0.90737 0.64536 0.0
C1417 C 0.64843 0.94263 0.62534 0.0
N1418 N 0.65836 0.8898 0.71905 0.0
N1419 N 0.65856 0.93255 0.65473 0.0
H1420 H 0.34033 0.36582 0.85277 0.0
H1421 H 0.34881 0.45626 0.00014 0.0
H1422 H 0.29599 0.40289 0.86857 0.0
H1423 H 0.38508 0.4111 0.01267 0.0
H1424 H 0.33003 0.43843 0.94781 0.0
H1425 H 0.35826 0.3844 0.90454 0.0
C1426 C 0.33442 0.37802 0.86653 0.0
C1427 C 0.31657 0.38274 0.85627 0.0
C1428 C 0.34202 0.43241 0.9624 0.0
C1429 C 0.33706 0.40403 0.91633 0.0
C1430 C 0.3527 0.44253 -0.00751 0.0
C1431 C 0.36858 0.43519 0.01095 0.0
C1432 C 0.34738 0.41491 0.95018 0.0
C1433 C 0.37297 0.41735 -0.00052 0.0
C1434 C 0.34464 0.38854 0.89652 0.0
C1435 C 0.30968 0.39871 0.87545 0.0
N1436 N 0.36254 0.40792 0.96956 0.0
N1437 N 0.31992 0.40875 0.90466 0.0
H1438 H 0.84037 0.13693 0.26031 0.0
H1439 H 0.84782 0.04591 0.11435 0.0
H1440 H 0.79637 0.09929 0.24763 0.0
H1441 H 0.88571 0.0898 0.1043 0.0
H1442 H 0.82928 0.06424 0.16592 0.0
H1443 H 0.85822 0.11822 0.20851 0.0
C1444 C 0.83453 0.12459 0.24722 0.0
C1445 C 0.8168 0.11971 0.25842 0.0
C1446 C 0.84157 0.0699 0.15207 0.0
C1447 C 0.83716 0.0983 0.19833 0.0
C1448 C 0.85212 0.05948 0.12237 0.0
C1449 C 0.86839 0.06629 0.10486 0.0
C1450 C 0.84741 0.08718 0.16479 0.0
C1451 C 0.87329 0.08396 0.11678 0.0
C1452 C 0.84469 0.11399 0.21723 0.0
C1453 C 0.80997 0.10359 0.24004 0.0
N1454 N 0.86295 0.0937 0.14626 0.0
N1455 N 0.82014 0.09349 0.21082 0.0
H1456 H 0.84797 0.54198 -0.00664 0.0
H1457 H 0.79076 0.59855 0.86845 0.0
H1458 H 0.88058 0.5895 0.01219 0.0
H1459 H 0.83715 0.63319 0.85605 0.0
H1460 H 0.80785 0.57891 0.91919 0.0
H1461 H 0.82837 0.55889 0.94211 0.0
C1462 C 0.85079 0.55611 0.98758 0.0
C1463 C 0.86594 0.56432 0.00748 0.0
C1464 C 0.81453 0.59051 0.90461 0.0
C1465 C 0.84333 0.58399 0.9486 0.0
C1466 C 0.8047 0.60182 0.87553 0.0
C1467 C 0.81252 0.61754 0.85762 0.0
C1468 C 0.83241 0.5949 0.91594 0.0
C1469 C 0.83057 0.62117 0.86872 0.0
C1470 C 0.8395 0.56583 0.9582 0.0
C1471 C 0.86901 0.58261 -0.00202 0.0
N1472 N 0.83982 0.61003 0.89741 0.0
N1473 N 0.8579 0.59176 0.96899 0.0
H1474 H 0.15282 0.04516 0.61721 0.0
H1475 H 0.1607 0.13581 0.76403 0.0
H1476 H 0.11628 0.09008 0.60431 0.0
H1477 H 0.20521 0.09888 0.74891 0.0
H1478 H 0.1429 0.11708 0.71229 0.0
H1479 H 0.17144 0.06314 0.66957 0.0
C1480 C 0.14884 0.05887 0.62479 0.0
C1481 C 0.13293 0.0661 0.6062 0.0
C1482 C 0.15653 0.11301 0.72046 0.0
C1483 C 0.15395 0.08655 0.66701 0.0
C1484 C 0.16668 0.12362 0.75043 0.0
C1485 C 0.18454 0.11897 0.76087 0.0
C1486 C 0.1642 0.09753 0.70085 0.0
C1487 C 0.1915 0.10301 0.74188 0.0
C1488 C 0.15943 0.06908 0.6549 0.0
C1489 C 0.12842 0.08392 0.61759 0.0
N1490 N 0.18134 0.09288 0.71269 0.0
N1491 N 0.13876 0.09343 0.64752 0.0
H1492 H 0.65869 0.3656 0.35303 0.0
H1493 H 0.65308 0.45626 0.50113 0.0
H1494 H 0.70308 0.40285 0.36438 0.0
H1495 H 0.61511 0.4125 0.51278 0.0
H1496 H 0.67092 0.43808 0.44764 0.0
H1497 H 0.64128 0.38445 0.40551 0.0
C1498 C 0.66469 0.3779 0.36591 0.0
C1499 C 0.68243 0.3826 0.35424 0.0
C1500 C 0.65876 0.43242 0.46224 0.0
C1501 C 0.66258 0.40414 0.41513 0.0
C1502 C 0.64862 0.44275 0.49304 0.0
C1503 C 0.63255 0.43592 0.51163 0.0
C1504 C 0.6527 0.41521 0.44949 0.0
C1505 C 0.62741 0.41834 0.49953 0.0
C1506 C 0.65479 0.38856 0.39631 0.0
C1507 C 0.68947 0.39867 0.37237 0.0
N1508 N 0.63736 0.40868 0.46899 0.0
N1509 N 0.67956 0.40882 0.40202 0.0
H1510 H 0.34909 0.95254 0.11121 0.0
H1511 H 0.34111 0.86362 0.26525 0.0
H1512 H 0.38823 0.90957 0.11012 0.0
H1513 H 0.29697 0.90067 0.2459 0.0
H1514 H 0.35942 0.88179 0.21328 0.0
H1515 H 0.33017 0.93461 0.16268 0.0
C1516 C 0.3536 0.93923 0.12118 0.0
C1517 C 0.37031 0.93258 0.10622 0.0
C1518 C 0.34576 0.88601 0.22057 0.0
C1519 C 0.34887 0.91215 0.16608 0.0
C1520 C 0.33533 0.87572 0.25066 0.0
C1521 C 0.31743 0.88058 0.26004 0.0
C1522 C 0.33832 0.90137 0.19973 0.0
C1523 C 0.3107 0.8964 0.23978 0.0
C1524 C 0.34282 0.92905 0.15083 0.0
C1525 C 0.37545 0.91526 0.12057 0.0
N1526 N 0.32112 0.90618 0.21049 0.0
N1527 N 0.36486 0.90574 0.14997 0.0
H1528 H 0.84304 0.36462 0.76188 0.0
H1529 H 0.84873 0.45535 0.61428 0.0
H1530 H 0.79867 0.40195 0.75137 0.0
H1531 H 0.88591 0.41102 0.60015 0.0
H1532 H 0.83093 0.43727 0.66814 0.0
H1533 H 0.86029 0.38339 0.70894 0.0
C1534 C 0.837 0.37691 0.74909 0.0
C1535 C 0.81932 0.38166 0.76113 0.0
C1536 C 0.8429 0.43147 0.6529 0.0
C1537 C 0.83899 0.40312 0.69972 0.0
C1538 C 0.85302 0.44173 0.6219 0.0
C1539 C 0.86886 0.43471 0.60251 0.0
C1540 C 0.84878 0.41413 0.66508 0.0
C1541 C 0.87379 0.41701 0.61402 0.0
C1542 C 0.84682 0.38754 0.71842 0.0
C1543 C 0.81224 0.39774 0.7431 0.0
N1544 N 0.86389 0.40742 0.64479 0.0
N1545 N 0.82207 0.40786 0.71319 0.0
H1546 H 0.34805 0.04882 0.50667 0.0
H1547 H 0.34154 0.13767 0.35187 0.0
H1548 H 0.38766 0.09134 0.50817 0.0
H1549 H 0.29687 0.10124 0.37075 0.0
H1550 H 0.35949 0.1193 0.40422 0.0
H1551 H 0.32947 0.06691 0.45472 0.0
C1552 C 0.35273 0.06207 0.49669 0.0
C1553 C 0.36948 0.06854 0.51191 0.0
C1554 C 0.34579 0.11526 0.39674 0.0
C1555 C 0.34843 0.08915 0.4515 0.0
C1556 C 0.33556 0.12566 0.36644 0.0
C1557 C 0.31762 0.12104 0.35681 0.0
C1558 C 0.3381 0.10003 0.41757 0.0
C1559 C 0.31064 0.10533 0.37705 0.0
C1560 C 0.34215 0.07234 0.46677 0.0
C1561 C 0.37485 0.08578 0.49753 0.0
N1562 N 0.32087 0.09543 0.40657 0.0
N1563 N 0.36445 0.09539 0.46786 0.0
H1564 H 0.65327 0.54601 0.11866 0.0
H1565 H 0.66021 0.63709 0.26467 0.0
H1566 H 0.61526 0.58979 0.1082 0.0
H1567 H 0.70433 0.59956 0.25243 0.0
H1568 H 0.64245 0.61827 0.21294 0.0
H1569 H 0.67162 0.56436 0.17065 0.0
C1570 C 0.6489 0.55957 0.12669 0.0
C1571 C 0.63267 0.56634 0.10891 0.0
C1572 C 0.65598 0.61409 0.22175 0.0
C1573 C 0.65341 0.58725 0.16933 0.0
C1574 C 0.66609 0.62475 0.25171 0.0
C1575 C 0.68384 0.61995 0.26298 0.0
C1576 C 0.66358 0.5984 0.20297 0.0
C1577 C 0.69072 0.60381 0.24477 0.0
C1578 C 0.65934 0.56999 0.15663 0.0
C1579 C 0.62767 0.58398 0.12087 0.0
N1580 N 0.6806 0.59365 0.21558 0.0
N1581 N 0.6379 0.59373 0.15058 0.0
H1582 H 0.16091 0.8668 0.85189 0.0
H1583 H 0.15263 0.95693 0.0005 0.0
H1584 H 0.20539 0.90365 0.86831 0.0
H1585 H 0.11644 0.91172 0.01299 0.0
H1586 H 0.17135 0.93918 0.94784 0.0
H1587 H 0.14305 0.8853 0.90402 0.0
C1588 C 0.16687 0.87893 0.86587 0.0
C1589 C 0.18474 0.88362 0.85567 0.0
C1590 C 0.15939 0.93313 0.96249 0.0
C1591 C 0.16433 0.90482 0.91612 0.0
C1592 C 0.14874 0.94321 -0.00723 0.0
C1593 C 0.13291 0.93583 0.01133 0.0
C1594 C 0.15404 0.91565 0.95018 0.0
C1595 C 0.12852 0.918 -0.00025 0.0
C1596 C 0.15669 0.88941 0.89605 0.0
C1597 C 0.19168 0.8995 0.87513 0.0
N1598 N 0.13891 0.90861 0.96965 0.0
N1599 N 0.18148 0.90951 0.90452 0.0
loop_
_geom_bond_atom_site_label_1
_geom_bond_atom_site_label_2
_geom_bond_distance
_geom_bond_site_symmetry_2
_ccdc_geom_bond_type
C0 O2 1.247 . S
C0 O4 1.258 . S
C1 O8 1.247 . S
C1 O9 1.258 . S
O2 C0 1.247 . S
O2 Zn3 2.028 . S
Zn3 O2 2.028 . S
Zn3 O7 2.035 . S
Zn3 O9 2.035 . S
Zn3 O10 2.028 . S
O4 C0 1.258 . S
O4 Zn5 2.035 . S
Zn5 O4 2.035 . S
Zn5 O6 2.028 . S
Zn5 O8 2.028 . S
Zn5 O11 2.035 . S
O6 Zn5 2.028 . S
O6 C12 1.236 1_554 S
O7 Zn3 2.035 . S
O7 C12 1.248 1_554 S
O8 C1 1.247 . S
O8 Zn5 2.028 . S
O9 C1 1.258 . S
O9 Zn3 2.035 . S
O10 Zn3 2.028 . S
O10 C13 1.247 . S
O11 Zn5 2.035 . S
O11 C13 1.258 . S
C12 O6 1.236 1_556 S
C12 O7 1.248 1_556 S
C13 O10 1.247 . S
C13 O11 1.258 . S
C14 O16 1.247 . S
C14 O18 1.258 . S
C15 O22 1.247 . S
C15 O23 1.258 . S
O16 C14 1.247 . S
O16 Zn17 2.028 . S
Zn17 O16 2.028 . S
Zn17 O21 2.035 . S
Zn17 O23 2.035 . S
Zn17 O24 2.028 . S
O18 C14 1.258 . S
O18 Zn19 2.035 . S
Zn19 O18 2.035 . S
Zn19 O20 2.028 . S
Zn19 O22 2.028 . S
Zn19 O25 2.035 . S
O20 Zn19 2.028 . S
O20 C26 1.247 . S
O21 Zn17 2.035 . S
O21 C26 1.258 . S
O22 C15 1.247 . S
O22 Zn19 2.028 . S
O23 C15 1.258 . S
O23 Zn17 2.035 . S
O24 Zn17 2.028 . S
O24 C27 1.247 . S
O25 Zn19 2.035 . S
O25 C27 1.258 . S
C26 O20 1.247 . S
C26 O21 1.258 . S
C27 O24 1.247 . S
C27 O25 1.258 . S
C28 O30 1.247 . S
C28 O32 1.258 . S
C29 O36 1.247 . S
C29 O37 1.258 . S
O30 C28 1.247 . S
O30 Zn31 2.028 . S
Zn31 O30 2.028 . S
Zn31 O35 2.035 . S
Zn31 O37 2.035 . S
Zn31 O38 2.028 . S
O32 C28 1.258 . S
O32 Zn33 2.035 . S
Zn33 O32 2.035 . S
Zn33 O34 2.028 . S
Zn33 O36 2.028 . S
Zn33 O39 2.035 . S
O34 Zn33 2.028 . S
O34 C40 1.247 . S
O35 Zn31 2.035 . S
O35 C40 1.258 . S
O36 C29 1.247 . S
O36 Zn33 2.028 . S
O37 C29 1.258 . S
O37 Zn31 2.035 . S
O38 Zn31 2.028 . S
O38 C41 1.247 . S
O39 Zn33 2.035 . S
O39 C41 1.258 . S
C40 O34 1.247 . S
C40 O35 1.258 . S
C41 O38 1.247 . S
C41 O39 1.258 . S
C42 O44 1.247 . S
C42 O46 1.258 . S
C43 O50 1.247 . S
C43 O51 1.258 . S
O44 C42 1.247 . S
O44 Zn45 2.028 . S
Zn45 O44 2.028 . S
Zn45 O49 2.035 . S
Zn45 O51 2.035 . S
Zn45 O52 2.028 . S
O46 C42 1.258 . S
O46 Zn47 2.035 . S
Zn47 O46 2.035 . S
Zn47 O48 2.028 . S
Zn47 O50 2.028 . S
Zn47 O53 2.035 . S
O48 Zn47 2.028 . S
O48 C54 1.247 . S
O49 Zn45 2.035 . S
O49 C54 1.258 . S
O50 C43 1.247 . S
O50 Zn47 2.028 . S
O51 C43 1.258 . S
O51 Zn45 2.035 . S
O52 Zn45 2.028 . S
O52 C55 1.247 . S
O53 Zn47 2.035 . S
O53 C55 1.258 . S
C54 O48 1.247 . S
C54 O49 1.258 . S
C55 O52 1.247 . S
C55 O53 1.258 . S
C56 O58 1.247 . S
C56 O60 1.258 . S
C57 O64 1.247 . S
C57 O65 1.258 . S
O58 C56 1.247 . S
O58 Zn59 2.028 . S
Zn59 O58 2.028 . S
Zn59 O63 2.035 . S
Zn59 O65 2.035 . S
Zn59 O66 2.028 . S
O60 C56 1.258 . S
O60 Zn61 2.035 . S
Zn61 O60 2.035 . S
Zn61 O62 2.028 . S
Zn61 O64 2.028 . S
Zn61 O67 2.035 . S
O62 Zn61 2.028 . S
O62 C68 1.247 . S
O63 Zn59 2.035 . S
O63 C68 1.258 . S
O64 C57 1.247 . S
O64 Zn61 2.028 . S
O65 C57 1.258 . S
O65 Zn59 2.035 . S
O66 Zn59 2.028 . S
O66 C69 1.247 . S
O67 Zn61 2.035 . S
O67 C69 1.258 . S
C68 O62 1.247 . S
C68 O63 1.258 . S
C69 O66 1.247 . S
C69 O67 1.258 . S
C70 O72 1.247 . S
C70 O74 1.258 . S
C71 O78 1.247 . S
C71 O79 1.258 . S
O72 C70 1.247 . S
O72 Zn73 2.028 . S
Zn73 O72 2.028 . S
Zn73 O77 2.035 . S
Zn73 O79 2.035 . S
Zn73 O80 2.028 . S
O74 C70 1.258 . S
O74 Zn75 2.035 . S
Zn75 O74 2.035 . S
Zn75 O76 2.028 . S
Zn75 O78 2.028 . S
Zn75 O81 2.035 . S
O76 Zn75 2.028 . S
O76 C82 1.247 . S
O77 Zn73 2.035 . S
O77 C82 1.258 . S
O78 C71 1.247 . S
O78 Zn75 2.028 . S
O79 C71 1.258 . S
O79 Zn73 2.035 . S
O80 Zn73 2.028 . S
O80 C83 1.247 . S
O81 Zn75 2.035 . S
O81 C83 1.258 . S
C82 O76 1.247 . S
C82 O77 1.258 . S
C83 O80 1.247 . S
C83 O81 1.258 . S
C84 O86 1.247 . S
C84 O88 1.258 . S
C85 O92 1.247 . S
C85 O93 1.258 . S
O86 C84 1.247 . S
O86 Zn87 2.028 . S
Zn87 O86 2.028 . S
Zn87 O91 2.035 . S
Zn87 O93 2.035 . S
Zn87 O94 2.028 1_554 S
O88 C84 1.258 . S
O88 Zn89 2.035 . S
Zn89 O88 2.035 . S
Zn89 O90 2.028 . S
Zn89 O92 2.028 . S
Zn89 O95 2.035 1_554 S
O90 Zn89 2.028 . S
O90 C96 1.247 . S
O91 Zn87 2.035 . S
O91 C96 1.258 . S
O92 C85 1.247 . S
O92 Zn89 2.028 . S
O93 C85 1.258 . S
O93 Zn87 2.035 . S
O94 Zn87 2.028 1_556 S
O94 C97 1.247 . S
O95 Zn89 2.035 1_556 S
O95 C97 1.258 . S
C96 O90 1.247 . S
C96 O91 1.258 . S
C97 O94 1.247 . S
C97 O95 1.258 . S
C98 O100 1.247 . S
C98 O102 1.258 . S
C99 O106 1.247 . S
C99 O107 1.258 . S
O100 C98 1.247 . S
O100 Zn101 2.028 . S
Zn101 O100 2.028 . S
Zn101 O105 2.035 . S
Zn101 O107 2.035 . S
Zn101 O108 2.028 . S
O102 C98 1.258 . S
O102 Zn103 2.035 . S
Zn103 O102 2.035 . S
Zn103 O104 2.028 . S
Zn103 O106 2.028 . S
Zn103 O109 2.035 . S
O104 Zn103 2.028 . S
O104 C110 1.247 . S
O105 Zn101 2.035 . S
O105 C110 1.258 . S
O106 C99 1.247 . S
O106 Zn103 2.028 . S
O107 C99 1.258 . S
O107 Zn101 2.035 . S
O108 Zn101 2.028 . S
O108 C111 1.247 . S
O109 Zn103 2.035 . S
O109 C111 1.258 . S
C110 O104 1.247 . S
C110 O105 1.258 . S
C111 O108 1.247 . S
C111 O109 1.258 . S
C112 O114 1.247 . S
C112 O116 1.258 . S
C113 O120 1.247 . S
C113 O121 1.258 . S
O114 C112 1.247 . S
O114 Zn115 2.028 1_556 S
Zn115 O114 2.028 1_554 S
Zn115 O119 2.035 . S
Zn115 O121 2.035 . S
Zn115 O122 2.028 . S
O116 C112 1.258 . S
O116 Zn117 2.035 1_556 S
Zn117 O116 2.035 1_554 S
Zn117 O118 2.028 . S
Zn117 O120 2.028 . S
Zn117 O123 2.035 . S
O118 Zn117 2.028 . S
O118 C124 1.247 . S
O119 Zn115 2.035 . S
O119 C124 1.258 . S
O120 C113 1.247 . S
O120 Zn117 2.028 . S
O121 C113 1.258 . S
O121 Zn115 2.035 . S
O122 Zn115 2.028 . S
O122 C125 1.247 . S
O123 Zn117 2.035 . S
O123 C125 1.258 . S
C124 O118 1.247 . S
C124 O119 1.258 . S
C125 O122 1.247 . S
C125 O123 1.258 . S
C126 O128 1.247 . S
C126 O130 1.258 . S
C127 O134 1.247 . S
C127 O135 1.258 . S
O128 C126 1.247 . S
O128 Zn129 2.028 . S
Zn129 O128 2.028 . S
Zn129 O133 2.035 . S
Zn129 O135 2.035 . S
Zn129 O136 2.028 . S
O130 C126 1.258 . S
O130 Zn131 2.035 . S
Zn131 O130 2.035 . S
Zn131 O132 2.028 . S
Zn131 O134 2.028 . S
Zn131 O137 2.035 . S
O132 Zn131 2.028 . S
O132 C138 1.247 . S
O133 Zn129 2.035 . S
O133 C138 1.258 . S
O134 C127 1.247 . S
O134 Zn131 2.028 . S
O135 C127 1.258 . S
O135 Zn129 2.035 . S
O136 Zn129 2.028 . S
O136 C139 1.247 . S
O137 Zn131 2.035 . S
O137 C139 1.258 . S
C138 O132 1.247 . S
C138 O133 1.258 . S
C139 O136 1.247 . S
C139 O137 1.258 . S
C140 O142 1.247 . S
C140 O144 1.258 . S
C141 O148 1.247 . S
C141 O149 1.258 . S
O142 C140 1.247 . S
O142 Zn143 2.028 . S
Zn143 O142 2.028 . S
Zn143 O147 2.035 . S
Zn143 O149 2.035 . S
Zn143 O150 2.028 . S
O144 C140 1.258 . S
O144 Zn145 2.035 . S
Zn145 O144 2.035 . S
Zn145 O146 2.028 . S
Zn145 O148 2.028 . S
Zn145 O151 2.035 . S
O146 Zn145 2.028 . S
O146 C152 1.247 . S
O147 Zn143 2.035 . S
O147 C152 1.258 . S
O148 C141 1.247 . S
O148 Zn145 2.028 . S
O149 C141 1.258 . S
O149 Zn143 2.035 . S
O150 Zn143 2.028 . S
O150 C153 1.247 . S
O151 Zn145 2.035 . S
O151 C153 1.258 . S
C152 O146 1.247 . S
C152 O147 1.258 . S
C153 O150 1.247 . S
C153 O151 1.258 . S
C154 O156 1.247 . S
C154 O158 1.258 . S
C155 O162 1.247 . S
C155 O163 1.258 . S
O156 C154 1.247 . S
O156 Zn157 2.028 . S
Zn157 O156 2.028 . S
Zn157 O161 2.035 . S
Zn157 O163 2.035 . S
Zn157 O164 2.028 . S
O158 C154 1.258 . S
O158 Zn159 2.035 . S
Zn159 O158 2.035 . S
Zn159 O160 2.028 . S
Zn159 O162 2.028 . S
Zn159 O165 2.035 . S
O160 Zn159 2.028 . S
O160 C166 1.247 . S
O161 Zn157 2.035 . S
O161 C166 1.258 . S
O162 C155 1.247 . S
O162 Zn159 2.028 . S
O163 C155 1.258 . S
O163 Zn157 2.035 . S
O164 Zn157 2.028 . S
O164 C167 1.247 . S
O165 Zn159 2.035 . S
O165 C167 1.258 . S
C166 O160 1.247 . S
C166 O161 1.258 . S
C167 O164 1.247 . S
C167 O165 1.258 . S
C168 O170 1.247 . S
C168 O172 1.258 . S
C169 O176 1.247 . S
C169 O177 1.258 . S
O170 C168 1.247 . S
O170 Zn171 2.028 . S
Zn171 O170 2.028 . S
Zn171 O175 2.035 . S
Zn171 O177 2.035 . S
Zn171 O178 2.028 . S
O172 C168 1.258 . S
O172 Zn173 2.035 . S
Zn173 O172 2.035 . S
Zn173 O174 2.028 . S
Zn173 O176 2.028 . S
Zn173 O179 2.035 . S
O174 Zn173 2.028 . S
O174 C180 1.247 . S
O175 Zn171 2.035 . S
O175 C180 1.258 . S
O176 C169 1.247 . S
O176 Zn173 2.028 . S
O177 C169 1.258 . S
O177 Zn171 2.035 . S
O178 Zn171 2.028 . S
O178 C181 1.247 . S
O179 Zn173 2.035 . S
O179 C181 1.258 . S
C180 O174 1.247 . S
C180 O175 1.258 . S
C181 O178 1.247 . S
C181 O179 1.258 . S
C182 O184 1.247 . S
C182 O186 1.258 . S
C183 O190 1.247 . S
C183 O191 1.258 . S
O184 C182 1.247 . S
O184 Zn185 2.028 . S
Zn185 O184 2.028 . S
Zn185 O189 2.035 . S
Zn185 O191 2.035 . S
Zn185 O192 2.028 . S
O186 C182 1.258 . S
O186 Zn187 2.035 . S
Zn187 O186 2.035 . S
Zn187 O188 2.028 . S
Zn187 O190 2.028 . S
Zn187 O193 2.035 . S
O188 Zn187 2.028 . S
O188 C194 1.247 . S
O189 Zn185 2.035 . S
O189 C194 1.258 . S
O190 C183 1.247 . S
O190 Zn187 2.028 . S
O191 C183 1.258 . S
O191 Zn185 2.035 . S
O192 Zn185 2.028 . S
O192 C195 1.247 . S
O193 Zn187 2.035 . S
O193 C195 1.258 . S
C194 O188 1.247 . S
C194 O189 1.258 . S
C195 O192 1.247 . S
C195 O193 1.258 . S
C196 O198 1.237 1_556 S
C196 O200 1.247 1_556 S
C197 O204 1.247 . S
C197 O205 1.258 . S
O198 C196 1.237 1_554 S
O198 Zn199 2.028 . S
Zn199 O198 2.028 . S
Zn199 O203 2.035 . S
Zn199 O205 2.035 . S
Zn199 O206 2.028 . S
O200 C196 1.247 1_554 S
O200 Zn201 2.035 . S
Zn201 O200 2.035 . S
Zn201 O202 2.028 . S
Zn201 O204 2.028 . S
Zn201 O207 2.035 . S
O202 Zn201 2.028 . S
O202 C208 1.247 . S
O203 Zn199 2.035 . S
O203 C208 1.258 . S
O204 C197 1.247 . S
O204 Zn201 2.028 . S
O205 C197 1.258 . S
O205 Zn199 2.035 . S
O206 Zn199 2.028 . S
O206 C209 1.247 . S
O207 Zn201 2.035 . S
O207 C209 1.258 . S
C208 O202 1.247 . S
C208 O203 1.258 . S
C209 O206 1.247 . S
C209 O207 1.258 . S
C210 O212 1.247 . S
C210 O214 1.258 . S
C211 O218 1.247 . S
C211 O219 1.258 . S
O212 C210 1.247 . S
O212 Zn213 2.028 . S
Zn213 O212 2.028 . S
Zn213 O217 2.035 . S
Zn213 O219 2.035 . S
Zn213 O220 2.028 . S
O214 C210 1.258 . S
O214 Zn215 2.035 . S
Zn215 O214 2.035 . S
Zn215 O216 2.028 . S
Zn215 O218 2.028 . S
Zn215 O221 2.035 . S
O216 Zn215 2.028 . S
O216 C222 1.247 . S
O217 Zn213 2.035 . S
O217 C222 1.258 . S
O218 C211 1.247 . S
O218 Zn215 2.028 . S
O219 C211 1.258 . S
O219 Zn213 2.035 . S
O220 Zn213 2.028 . S
O220 C223 1.247 . S
O221 Zn215 2.035 . S
O221 C223 1.258 . S
C222 O216 1.247 . S
C222 O217 1.258 . S
C223 O220 1.247 . S
C223 O221 1.258 . S
C224 O226 1.247 . S
C224 O228 1.258 1_545 S
C225 O232 1.247 . S
C225 O233 1.258 . S
O226 C224 1.247 . S
O226 Zn227 2.028 . S
Zn227 O226 2.028 . S
Zn227 O231 2.035 . S
Zn227 O233 2.035 1_545 S
Zn227 O234 2.028 . S
O228 C224 1.258 1_565 S
O228 Zn229 2.035 . S
Zn229 O228 2.035 . S
Zn229 O230 2.028 . S
Zn229 O232 2.028 . S
Zn229 O235 2.035 . S
O230 Zn229 2.028 . S
O230 C236 1.247 . S
O231 Zn227 2.035 . S
O231 C236 1.258 1_545 S
O232 C225 1.247 . S
O232 Zn229 2.028 . S
O233 C225 1.258 . S
O233 Zn227 2.035 1_565 S
O234 Zn227 2.028 . S
O234 C237 1.247 1_545 S
O235 Zn229 2.035 . S
O235 C237 1.258 . S
C236 O230 1.247 . S
C236 O231 1.258 1_565 S
C237 O234 1.247 1_565 S
C237 O235 1.258 . S
C238 O240 1.247 . S
C238 O242 1.258 . S
C239 O246 1.247 . S
C239 O247 1.258 . S
O240 C238 1.247 . S
O240 Zn241 2.028 . S
Zn241 O240 2.028 . S
Zn241 O245 2.035 . S
Zn241 O247 2.035 . S
Zn241 O248 2.028 . S
O242 C238 1.258 . S
O242 Zn243 2.035 . S
Zn243 O242 2.035 . S
Zn243 O244 2.028 . S
Zn243 O246 2.028 . S
Zn243 O249 2.035 . S
O244 Zn243 2.028 . S
O244 C250 1.247 . S
O245 Zn241 2.035 . S
O245 C250 1.258 . S
O246 C239 1.247 . S
O246 Zn243 2.028 . S
O247 C239 1.258 . S
O247 Zn241 2.035 . S
O248 Zn241 2.028 . S
O248 C251 1.247 . S
O249 Zn243 2.035 . S
O249 C251 1.258 . S
C250 O244 1.247 . S
C250 O245 1.258 . S
C251 O248 1.247 . S
C251 O249 1.258 . S
C252 O254 1.235 1_556 S
C252 O256 1.248 1_546 S
C253 O260 1.247 1_545 S
C253 O261 1.258 . S
O254 C252 1.235 1_554 S
O254 Zn255 2.028 . S
Zn255 O254 2.028 . S
Zn255 O259 2.035 . S
Zn255 O261 2.035 . S
Zn255 O262 2.028 . S
O256 C252 1.248 1_564 S
O256 Zn257 2.035 . S
Zn257 O256 2.035 . S
Zn257 O258 2.028 1_565 S
Zn257 O260 2.028 . S
Zn257 O263 2.035 . S
O258 Zn257 2.028 1_545 S
O258 C264 1.247 . S
O259 Zn255 2.035 . S
O259 C264 1.258 . S
O260 C253 1.247 1_565 S
O260 Zn257 2.028 . S
O261 C253 1.258 . S
O261 Zn255 2.035 . S
O262 Zn255 2.028 . S
O262 C265 1.247 1_545 S
O263 Zn257 2.035 . S
O263 C265 1.258 . S
C264 O258 1.247 . S
C264 O259 1.258 . S
C265 O262 1.247 1_565 S
C265 O263 1.258 . S
C266 O268 1.247 . S
C266 O270 1.258 . S
C267 O274 1.247 . S
C267 O275 1.258 . S
O268 C266 1.247 . S
O268 Zn269 2.028 . S
Zn269 O268 2.028 . S
Zn269 O273 2.035 . S
Zn269 O275 2.035 . S
Zn269 O276 2.028 . S
O270 C266 1.258 . S
O270 Zn271 2.035 . S
Zn271 O270 2.035 . S
Zn271 O272 2.028 . S
Zn271 O274 2.028 . S
Zn271 O277 2.035 . S
O272 Zn271 2.028 . S
O272 C278 1.247 . S
O273 Zn269 2.035 . S
O273 C278 1.258 . S
O274 C267 1.247 . S
O274 Zn271 2.028 . S
O275 C267 1.258 . S
O275 Zn269 2.035 . S
O276 Zn269 2.028 . S
O276 C279 1.247 . S
O277 Zn271 2.035 . S
O277 C279 1.258 . S
C278 O272 1.247 . S
C278 O273 1.258 . S
C279 O276 1.247 . S
C279 O277 1.258 . S
C280 O282 1.247 . S
C280 O284 1.258 1_565 S
C281 O288 1.247 . S
C281 O289 1.258 . S
O282 C280 1.247 . S
O282 Zn283 2.028 . S
Zn283 O282 2.028 . S
Zn283 O287 2.035 1_554 S
Zn283 O289 2.035 1_565 S
Zn283 O290 2.028 . S
O284 C280 1.258 1_545 S
O284 Zn285 2.035 . S
Zn285 O284 2.035 . S
Zn285 O286 2.028 1_554 S
Zn285 O288 2.028 . S
Zn285 O291 2.035 . S
O286 Zn285 2.028 1_556 S
O286 C292 1.247 . S
O287 Zn283 2.035 1_556 S
O287 C292 1.258 1_565 S
O288 C281 1.247 . S
O288 Zn285 2.028 . S
O289 C281 1.258 . S
O289 Zn283 2.035 1_545 S
O290 Zn283 2.028 . S
O290 C293 1.247 1_565 S
O291 Zn285 2.035 . S
O291 C293 1.258 . S
C292 O286 1.247 . S
C292 O287 1.258 1_545 S
C293 O290 1.247 1_545 S
C293 O291 1.258 . S
C294 O296 1.247 . S
C294 O298 1.258 . S
C295 O302 1.247 . S
C295 O303 1.258 . S
O296 C294 1.247 . S
O296 Zn297 2.028 . S
Zn297 O296 2.028 . S
Zn297 O301 2.035 . S
Zn297 O303 2.035 . S
Zn297 O304 2.028 . S
O298 C294 1.258 . S
O298 Zn299 2.035 . S
Zn299 O298 2.035 . S
Zn299 O300 2.028 . S
Zn299 O302 2.028 . S
Zn299 O305 2.035 . S
O300 Zn299 2.028 . S
O300 C306 1.247 . S
O301 Zn297 2.035 . S
O301 C306 1.258 . S
O302 C295 1.247 . S
O302 Zn299 2.028 . S
O303 C295 1.258 . S
O303 Zn297 2.035 . S
O304 Zn297 2.028 . S
O304 C307 1.247 . S
O305 Zn299 2.035 . S
O305 C307 1.258 . S
C306 O300 1.247 . S
C306 O301 1.258 . S
C307 O304 1.247 . S
C307 O305 1.258 . S
C308 O310 1.247 . S
C308 O312 1.258 1_565 S
C309 O316 1.247 1_565 S
C309 O317 1.258 . S
O310 C308 1.247 . S
O310 Zn311 2.028 . S
Zn311 O310 2.028 . S
Zn311 O315 2.035 . S
Zn311 O317 2.035 . S
Zn311 O318 2.028 . S
O312 C308 1.258 1_545 S
O312 Zn313 2.035 . S
Zn313 O312 2.035 . S
Zn313 O314 2.028 1_545 S
Zn313 O316 2.028 . S
Zn313 O319 2.035 . S
O314 Zn313 2.028 1_565 S
O314 C320 1.247 . S
O315 Zn311 2.035 . S
O315 C320 1.258 . S
O316 C309 1.247 1_545 S
O316 Zn313 2.028 . S
O317 C309 1.258 . S
O317 Zn311 2.035 . S
O318 Zn311 2.028 . S
O318 C321 1.247 1_565 S
O319 Zn313 2.035 . S
O319 C321 1.258 . S
C320 O314 1.247 . S
C320 O315 1.258 . S
C321 O318 1.247 1_545 S
C321 O319 1.258 . S
C322 O324 1.247 . S
C322 O326 1.258 . S
C323 O330 1.247 . S
C323 O331 1.258 . S
O324 C322 1.247 . S
O324 Zn325 2.028 . S
Zn325 O324 2.028 . S
Zn325 O329 2.035 . S
Zn325 O331 2.035 . S
Zn325 O332 2.028 . S
O326 C322 1.258 . S
O326 Zn327 2.035 . S
Zn327 O326 2.035 . S
Zn327 O328 2.028 . S
Zn327 O330 2.028 . S
Zn327 O333 2.035 . S
O328 Zn327 2.028 . S
O328 C334 1.247 . S
O329 Zn325 2.035 . S
O329 C334 1.258 . S
O330 C323 1.247 . S
O330 Zn327 2.028 . S
O331 C323 1.258 . S
O331 Zn325 2.035 . S
O332 Zn325 2.028 . S
O332 C335 1.247 . S
O333 Zn327 2.035 . S
O333 C335 1.258 . S
C334 O328 1.247 . S
C334 O329 1.258 . S
C335 O332 1.247 . S
C335 O333 1.258 . S
C336 O338 1.247 . S
C336 O340 1.258 . S
C337 O344 1.247 . S
C337 O345 1.258 1_565 S
O338 C336 1.247 . S
O338 Zn339 2.028 . S
Zn339 O338 2.028 . S
Zn339 O343 2.035 . S
Zn339 O345 2.035 . S
Zn339 O346 2.028 . S
O340 C336 1.258 . S
O340 Zn341 2.035 1_545 S
Zn341 O340 2.035 1_565 S
Zn341 O342 2.028 . S
Zn341 O344 2.028 . S
Zn341 O347 2.035 . S
O342 Zn341 2.028 . S
O342 C348 1.247 1_565 S
O343 Zn339 2.035 . S
O343 C348 1.258 . S
O344 C337 1.247 . S
O344 Zn341 2.028 . S
O345 C337 1.258 1_545 S
O345 Zn339 2.035 . S
O346 Zn339 2.028 . S
O346 C349 1.247 . S
O347 Zn341 2.035 . S
O347 C349 1.258 1_565 S
C348 O342 1.247 1_545 S
C348 O343 1.258 . S
C349 O346 1.247 . S
C349 O347 1.258 1_545 S
C350 O352 1.247 . S
C350 O354 1.258 . S
C351 O358 1.247 . S
C351 O359 1.258 . S
O352 C350 1.247 . S
O352 Zn353 2.028 . S
Zn353 O352 2.028 . S
Zn353 O357 2.035 . S
Zn353 O359 2.035 . S
Zn353 O360 2.028 . S
O354 C350 1.258 . S
O354 Zn355 2.035 . S
Zn355 O354 2.035 . S
Zn355 O356 2.028 . S
Zn355 O358 2.028 . S
Zn355 O361 2.035 . S
O356 Zn355 2.028 . S
O356 C362 1.247 . S
O357 Zn353 2.035 . S
O357 C362 1.258 . S
O358 C351 1.247 . S
O358 Zn355 2.028 . S
O359 C351 1.258 . S
O359 Zn353 2.035 . S
O360 Zn353 2.028 . S
O360 C363 1.247 . S
O361 Zn355 2.035 . S
O361 C363 1.258 . S
C362 O356 1.247 . S
C362 O357 1.258 . S
C363 O360 1.247 . S
C363 O361 1.258 . S
C364 O366 1.247 . S
C364 O368 1.258 . S
C365 O372 1.247 . S
C365 O373 1.258 1_545 S
O366 C364 1.247 . S
O366 Zn367 2.028 . S
Zn367 O366 2.028 . S
Zn367 O371 2.035 . S
Zn367 O373 2.035 . S
Zn367 O374 2.028 1_554 S
O368 C364 1.258 . S
O368 Zn369 2.035 1_565 S
Zn369 O368 2.035 1_545 S
Zn369 O370 2.028 . S
Zn369 O372 2.028 . S
Zn369 O375 2.035 1_554 S
O370 Zn369 2.028 . S
O370 C376 1.247 1_545 S
O371 Zn367 2.035 . S
O371 C376 1.258 . S
O372 C365 1.247 . S
O372 Zn369 2.028 . S
O373 C365 1.258 1_565 S
O373 Zn367 2.035 . S
O374 Zn367 2.028 1_556 S
O374 C377 1.247 . S
O375 Zn369 2.035 1_556 S
O375 C377 1.258 1_545 S
C376 O370 1.247 1_565 S
C376 O371 1.258 . S
C377 O374 1.247 . S
C377 O375 1.258 1_565 S
C378 O380 1.247 . S
C378 O382 1.258 . S
C379 O386 1.247 . S
C379 O387 1.258 . S
O380 C378 1.247 . S
O380 Zn381 2.028 . S
Zn381 O380 2.028 . S
Zn381 O385 2.035 . S
Zn381 O387 2.035 . S
Zn381 O388 2.028 . S
O382 C378 1.258 . S
O382 Zn383 2.035 . S
Zn383 O382 2.035 . S
Zn383 O384 2.028 . S
Zn383 O386 2.028 . S
Zn383 O389 2.035 . S
O384 Zn383 2.028 . S
O384 C390 1.247 . S
O385 Zn381 2.035 . S
O385 C390 1.258 . S
O386 C379 1.247 . S
O386 Zn383 2.028 . S
O387 C379 1.258 . S
O387 Zn381 2.035 . S
O388 Zn381 2.028 . S
O388 C391 1.247 . S
O389 Zn383 2.035 . S
O389 C391 1.258 . S
C390 O384 1.247 . S
C390 O385 1.258 . S
C391 O388 1.247 . S
C391 O389 1.258 . S
C392 O394 1.247 1_565 S
C392 O396 1.258 . S
C393 O400 1.235 1_556 S
C393 O401 1.248 1_566 S
O394 C392 1.247 1_545 S
O394 Zn395 2.028 . S
Zn395 O394 2.028 . S
Zn395 O399 2.035 . S
Zn395 O401 2.035 . S
Zn395 O402 2.028 1_545 S
O396 C392 1.258 . S
O396 Zn397 2.035 . S
Zn397 O396 2.035 . S
Zn397 O398 2.028 . S
Zn397 O400 2.028 . S
Zn397 O403 2.035 . S
O398 Zn397 2.028 . S
O398 C404 1.247 1_565 S
O399 Zn395 2.035 . S
O399 C404 1.258 . S
O400 C393 1.235 1_554 S
O400 Zn397 2.028 . S
O401 C393 1.248 1_544 S
O401 Zn395 2.035 . S
O402 Zn395 2.028 1_565 S
O402 C405 1.247 . S
O403 Zn397 2.035 . S
O403 C405 1.258 . S
C404 O398 1.247 1_545 S
C404 O399 1.258 . S
C405 O402 1.247 . S
C405 O403 1.258 . S
C406 O408 1.247 . S
C406 O410 1.258 . S
C407 O414 1.247 . S
C407 O415 1.258 . S
O408 C406 1.247 . S
O408 Zn409 2.028 . S
Zn409 O408 2.028 . S
Zn409 O413 2.035 . S
Zn409 O415 2.035 . S
Zn409 O416 2.028 . S
O410 C406 1.258 . S
O410 Zn411 2.035 . S
Zn411 O410 2.035 . S
Zn411 O412 2.028 . S
Zn411 O414 2.028 . S
Zn411 O417 2.035 . S
O412 Zn411 2.028 . S
O412 C418 1.247 . S
O413 Zn409 2.035 . S
O413 C418 1.258 . S
O414 C407 1.247 . S
O414 Zn411 2.028 . S
O415 C407 1.258 . S
O415 Zn409 2.035 . S
O416 Zn409 2.028 . S
O416 C419 1.247 . S
O417 Zn411 2.035 . S
O417 C419 1.258 . S
C418 O412 1.247 . S
C418 O413 1.258 . S
C419 O416 1.247 . S
C419 O417 1.258 . S
C420 O422 1.247 1_545 S
C420 O424 1.258 . S
C421 O428 1.247 . S
C421 O429 1.258 1_545 S
O422 C420 1.247 1_565 S
O422 Zn423 2.028 . S
Zn423 O422 2.028 . S
Zn423 O427 2.035 . S
Zn423 O429 2.035 . S
Zn423 O430 2.028 1_565 S
O424 C420 1.258 . S
O424 Zn425 2.035 . S
Zn425 O424 2.035 . S
Zn425 O426 2.028 . S
Zn425 O428 2.028 . S
Zn425 O431 2.035 . S
O426 Zn425 2.028 . S
O426 C432 1.247 1_545 S
O427 Zn423 2.035 . S
O427 C432 1.258 . S
O428 C421 1.247 . S
O428 Zn425 2.028 . S
O429 C421 1.258 1_565 S
O429 Zn423 2.035 . S
O430 Zn423 2.028 1_545 S
O430 C433 1.247 . S
O431 Zn425 2.035 . S
O431 C433 1.258 . S
C432 O426 1.247 1_565 S
C432 O427 1.258 . S
C433 O430 1.247 . S
C433 O431 1.258 . S
C434 O436 1.247 . S
C434 O438 1.258 . S
C435 O442 1.247 . S
C435 O443 1.258 . S
O436 C434 1.247 . S
O436 Zn437 2.028 . S
Zn437 O436 2.028 . S
Zn437 O441 2.035 . S
Zn437 O443 2.035 . S
Zn437 O444 2.028 . S
O438 C434 1.258 . S
O438 Zn439 2.035 . S
Zn439 O438 2.035 . S
Zn439 O440 2.028 . S
Zn439 O442 2.028 . S
Zn439 O445 2.035 . S
O440 Zn439 2.028 . S
O440 C446 1.247 . S
O441 Zn437 2.035 . S
O441 C446 1.258 . S
O442 C435 1.247 . S
O442 Zn439 2.028 . S
O443 C435 1.258 . S
O443 Zn437 2.035 . S
O444 Zn437 2.028 . S
O444 C447 1.247 . S
O445 Zn439 2.035 . S
O445 C447 1.258 . S
C446 O440 1.247 . S
C446 O441 1.258 . S
C447 O444 1.247 . S
C447 O445 1.258 . S
H448 C454 0.930 . S
H449 C458 0.930 . S
H450 C463 0.929 . S
H451 C461 0.929 . S
H452 C456 0.929 . S
H453 C462 0.929 . S
C454 H448 0.930 . S
C454 C455 1.367 . S
C454 C462 1.378 . S
C455 C454 1.367 . S
C455 C463 1.433 . S
C456 H452 0.929 . S
C456 C458 1.378 . S
C456 C460 1.350 . S
C457 C460 1.463 1_655 S
C457 C462 1.350 . S
C457 N465 1.427 . S
C458 H449 0.930 . S
C458 C456 1.378 . S
C458 C459 1.367 . S
C459 C458 1.367 . S
C459 C461 1.433 . S
C460 C456 1.350 . S
C460 C457 1.463 1_455 S
C460 N464 1.427 . S
C461 H451 0.929 . S
C461 C459 1.433 . S
C461 N464 1.384 . S
C462 H453 0.929 . S
C462 C454 1.378 . S
C462 C457 1.350 . S
C463 H450 0.929 . S
C463 C455 1.433 . S
C463 N465 1.384 . S
N464 C460 1.427 . S
N464 C461 1.384 . S
N465 C457 1.427 . S
N465 C463 1.384 . S
H466 C472 0.930 . S
H467 C476 0.930 . S
H468 C481 0.929 . S
H469 C479 0.929 . S
H470 C474 0.929 . S
H471 C480 0.929 . S
C472 H466 0.930 . S
C472 C473 1.367 . S
C472 C480 1.378 . S
C473 C472 1.367 . S
C473 C481 1.433 . S
C474 H470 0.929 . S
C474 C476 1.378 . S
C474 C478 1.350 . S
C475 C478 1.463 . S
C475 C480 1.350 . S
C475 N483 1.427 . S
C476 H467 0.930 . S
C476 C474 1.378 . S
C476 C477 1.367 . S
C477 C476 1.367 . S
C477 C479 1.433 . S
C478 C474 1.350 . S
C478 C475 1.463 . S
C478 N482 1.427 . S
C479 H469 0.929 . S
C479 C477 1.433 . S
C479 N482 1.384 . S
C480 H471 0.929 . S
C480 C472 1.378 . S
C480 C475 1.350 . S
C481 H468 0.929 . S
C481 C473 1.433 . S
C481 N483 1.384 . S
N482 C478 1.427 . S
N482 C479 1.384 . S
N483 C475 1.427 . S
N483 C481 1.384 . S
H484 C490 0.930 . S
H485 C494 0.930 . S
H486 C499 0.929 . S
H487 C497 0.929 . S
H488 C492 0.929 . S
H489 C498 0.929 . S
C490 H484 0.930 . S
C490 C491 1.367 . S
C490 C498 1.378 . S
C491 C490 1.367 . S
C491 C499 1.433 . S
C492 H488 0.929 . S
C492 C494 1.378 . S
C492 C496 1.350 . S
C493 C496 1.463 . S
C493 C498 1.350 . S
C493 N501 1.427 . S
C494 H485 0.930 . S
C494 C492 1.378 . S
C494 C495 1.367 . S
C495 C494 1.367 . S
C495 C497 1.433 . S
C496 C492 1.350 . S
C496 C493 1.463 . S
C496 N500 1.427 . S
C497 H487 0.929 . S
C497 C495 1.433 . S
C497 N500 1.384 . S
C498 H489 0.929 . S
C498 C490 1.378 . S
C498 C493 1.350 . S
C499 H486 0.929 . S
C499 C491 1.433 . S
C499 N501 1.384 . S
N500 C496 1.427 . S
N500 C497 1.384 . S
N501 C493 1.427 . S
N501 C499 1.384 . S
H502 C508 0.930 . S
H503 C512 0.930 . S
H504 C517 0.929 . S
H505 C515 0.929 . S
H506 C510 0.929 . S
H507 C516 0.929 . S
C508 H502 0.930 . S
C508 C509 1.367 . S
C508 C516 1.378 . S
C509 C508 1.367 . S
C509 C517 1.433 . S
C510 H506 0.929 . S
C510 C512 1.378 . S
C510 C514 1.350 . S
C511 C514 1.463 . S
C511 C516 1.350 . S
C511 N519 1.427 . S
C512 H503 0.930 . S
C512 C510 1.378 . S
C512 C513 1.367 . S
C513 C512 1.367 . S
C513 C515 1.433 . S
C514 C510 1.350 . S
C514 C511 1.463 . S
C514 N518 1.427 . S
C515 H505 0.929 . S
C515 C513 1.433 . S
C515 N518 1.384 . S
C516 H507 0.929 . S
C516 C508 1.378 . S
C516 C511 1.350 . S
C517 H504 0.929 . S
C517 C509 1.433 . S
C517 N519 1.384 . S
N518 C514 1.427 . S
N518 C515 1.384 . S
N519 C511 1.427 . S
N519 C517 1.384 . S
H520 C526 0.930 . S
H521 C530 0.930 . S
H522 C535 0.929 . S
H523 C533 0.929 . S
H524 C528 0.929 . S
H525 C534 0.929 . S
C526 H520 0.930 . S
C526 C527 1.367 . S
C526 C534 1.378 . S
C527 C526 1.367 . S
C527 C535 1.433 . S
C528 H524 0.929 . S
C528 C530 1.378 . S
C528 C532 1.350 . S
C529 C532 1.463 1_455 S
C529 C534 1.350 . S
C529 N537 1.427 . S
C530 H521 0.930 . S
C530 C528 1.378 . S
C530 C531 1.367 . S
C531 C530 1.367 . S
C531 C533 1.433 . S
C532 C528 1.350 . S
C532 C529 1.463 1_655 S
C532 N536 1.427 . S
C533 H523 0.929 . S
C533 C531 1.433 . S
C533 N536 1.384 . S
C534 H525 0.929 . S
C534 C526 1.378 . S
C534 C529 1.350 . S
C535 H522 0.929 . S
C535 C527 1.433 . S
C535 N537 1.384 . S
N536 C532 1.427 . S
N536 C533 1.384 . S
N537 C529 1.427 . S
N537 C535 1.384 . S
H538 C544 0.930 . S
H539 C548 0.930 . S
H540 C553 0.929 . S
H541 C551 0.929 . S
H542 C546 0.929 . S
H543 C552 0.929 . S
C544 H538 0.930 . S
C544 C545 1.367 . S
C544 C552 1.378 . S
C545 C544 1.367 . S
C545 C553 1.433 . S
C546 H542 0.929 . S
C546 C548 1.378 . S
C546 C550 1.350 . S
C547 C550 1.463 . S
C547 C552 1.350 . S
C547 N555 1.427 . S
C548 H539 0.930 . S
C548 C546 1.378 . S
C548 C549 1.367 . S
C549 C548 1.367 . S
C549 C551 1.433 . S
C550 C546 1.350 . S
C550 C547 1.463 . S
C550 N554 1.427 . S
C551 H541 0.929 . S
C551 C549 1.433 . S
C551 N554 1.384 . S
C552 H543 0.929 . S
C552 C544 1.378 . S
C552 C547 1.350 . S
C553 H540 0.929 . S
C553 C545 1.433 . S
C553 N555 1.384 . S
N554 C550 1.427 . S
N554 C551 1.384 . S
N555 C547 1.427 . S
N555 C553 1.384 . S
H556 C562 0.930 . S
H557 C566 0.930 . S
H558 C571 0.929 . S
H559 C569 0.929 . S
H560 C564 0.929 . S
H561 C570 0.929 . S
C562 H556 0.930 . S
C562 C563 1.367 . S
C562 C570 1.378 . S
C563 C562 1.367 . S
C563 C571 1.433 . S
C564 H560 0.929 . S
C564 C566 1.378 . S
C564 C568 1.350 . S
C565 C568 1.463 . S
C565 C570 1.350 . S
C565 N573 1.427 . S
C566 H557 0.930 . S
C566 C564 1.378 . S
C566 C567 1.367 . S
C567 C566 1.367 . S
C567 C569 1.433 . S
C568 C564 1.350 . S
C568 C565 1.463 . S
C568 N572 1.427 . S
C569 H559 0.929 . S
C569 C567 1.433 . S
C569 N572 1.384 . S
C570 H561 0.929 . S
C570 C562 1.378 . S
C570 C565 1.350 . S
C571 H558 0.929 . S
C571 C563 1.433 . S
C571 N573 1.384 . S
N572 C568 1.427 . S
N572 C569 1.384 . S
N573 C565 1.427 . S
N573 C571 1.384 . S
H574 C580 0.930 . S
H575 C584 0.930 . S
H576 C589 0.929 . S
H577 C587 0.929 . S
H578 C582 0.929 . S
H579 C588 0.929 . S
C580 H574 0.930 . S
C580 C581 1.367 . S
C580 C588 1.378 . S
C581 C580 1.367 . S
C581 C589 1.433 . S
C582 H578 0.929 . S
C582 C584 1.378 . S
C582 C586 1.350 . S
C583 C586 1.463 . S
C583 C588 1.350 . S
C583 N591 1.427 . S
C584 H575 0.930 . S
C584 C582 1.378 . S
C584 C585 1.367 . S
C585 C584 1.367 . S
C585 C587 1.433 . S
C586 C582 1.350 . S
C586 C583 1.463 . S
C586 N590 1.427 . S
C587 H577 0.929 . S
C587 C585 1.433 . S
C587 N590 1.384 . S
C588 H579 0.929 . S
C588 C580 1.378 . S
C588 C583 1.350 . S
C589 H576 0.929 . S
C589 C581 1.433 . S
C589 N591 1.384 . S
N590 C586 1.427 . S
N590 C587 1.384 . S
N591 C583 1.427 . S
N591 C589 1.384 . S
H592 C598 0.930 . S
H593 C602 0.930 . S
H594 C607 0.929 . S
H595 C605 0.929 . S
H596 C600 0.929 . S
H597 C606 0.929 . S
C598 H592 0.930 . S
C598 C599 1.367 . S
C598 C606 1.378 . S
C599 C598 1.367 . S
C599 C607 1.433 . S
C600 H596 0.929 . S
C600 C602 1.378 . S
C600 C604 1.350 . S
C601 C604 1.463 . S
C601 C606 1.350 . S
C601 N609 1.427 . S
C602 H593 0.930 . S
C602 C600 1.378 . S
C602 C603 1.367 . S
C603 C602 1.367 . S
C603 C605 1.433 . S
C604 C600 1.350 . S
C604 C601 1.463 . S
C604 N608 1.427 . S
C605 H595 0.929 . S
C605 C603 1.433 . S
C605 N608 1.384 . S
C606 H597 0.929 . S
C606 C598 1.378 . S
C606 C601 1.350 . S
C607 H594 0.929 . S
C607 C599 1.433 . S
C607 N609 1.384 . S
N608 C604 1.427 . S
N608 C605 1.384 . S
N609 C601 1.427 . S
N609 C607 1.384 . S
H610 C616 0.930 . S
H611 C620 0.930 . S
H612 C625 0.929 . S
H613 C623 0.929 . S
H614 C618 0.929 . S
H615 C624 0.929 . S
C616 H610 0.930 . S
C616 C617 1.367 . S
C616 C624 1.378 . S
C617 C616 1.367 . S
C617 C625 1.433 . S
C618 H614 0.929 . S
C618 C620 1.378 . S
C618 C622 1.350 . S
C619 C622 1.463 . S
C619 C624 1.350 . S
C619 N627 1.427 . S
C620 H611 0.930 . S
C620 C618 1.378 . S
C620 C621 1.367 . S
C621 C620 1.367 . S
C621 C623 1.433 . S
C622 C618 1.350 . S
C622 C619 1.463 . S
C622 N626 1.427 . S
C623 H613 0.929 . S
C623 C621 1.433 . S
C623 N626 1.384 . S
C624 H615 0.929 . S
C624 C616 1.378 . S
C624 C619 1.350 . S
C625 H612 0.929 . S
C625 C617 1.433 . S
C625 N627 1.384 . S
N626 C622 1.427 . S
N626 C623 1.384 . S
N627 C619 1.427 . S
N627 C625 1.384 . S
H628 C634 0.930 . S
H629 C638 0.930 . S
H630 C643 0.929 . S
H631 C641 0.929 . S
H632 C636 0.929 . S
H633 C642 0.929 . S
C634 H628 0.930 . S
C634 C635 1.367 . S
C634 C642 1.378 . S
C635 C634 1.367 . S
C635 C643 1.433 . S
C636 H632 0.929 . S
C636 C638 1.378 . S
C636 C640 1.350 . S
C637 C640 1.463 . S
C637 C642 1.350 . S
C637 N645 1.427 . S
C638 H629 0.930 . S
C638 C636 1.378 . S
C638 C639 1.367 . S
C639 C638 1.367 . S
C639 C641 1.433 . S
C640 C636 1.350 . S
C640 C637 1.463 . S
C640 N644 1.427 . S
C641 H631 0.929 . S
C641 C639 1.433 . S
C641 N644 1.384 . S
C642 H633 0.929 . S
C642 C634 1.378 . S
C642 C637 1.350 . S
C643 H630 0.929 . S
C643 C635 1.433 . S
C643 N645 1.384 . S
N644 C640 1.427 . S
N644 C641 1.384 . S
N645 C637 1.427 . S
N645 C643 1.384 . S
H646 C652 0.930 . S
H647 C656 0.930 . S
H648 C661 0.929 . S
H649 C659 0.929 . S
H650 C654 0.929 . S
H651 C660 0.929 . S
C652 H646 0.930 . S
C652 C653 1.367 . S
C652 C660 1.378 . S
C653 C652 1.367 . S
C653 C661 1.433 . S
C654 H650 0.929 . S
C654 C656 1.378 . S
C654 C658 1.350 . S
C655 C658 1.463 . S
C655 C660 1.350 . S
C655 N663 1.427 . S
C656 H647 0.930 . S
C656 C654 1.378 . S
C656 C657 1.367 . S
C657 C656 1.367 . S
C657 C659 1.433 . S
C658 C654 1.350 . S
C658 C655 1.463 . S
C658 N662 1.427 . S
C659 H649 0.929 . S
C659 C657 1.433 . S
C659 N662 1.384 . S
C660 H651 0.929 . S
C660 C652 1.378 . S
C660 C655 1.350 . S
C661 H648 0.929 . S
C661 C653 1.433 . S
C661 N663 1.384 . S
N662 C658 1.427 . S
N662 C659 1.384 . S
N663 C655 1.427 . S
N663 C661 1.384 . S
H664 C670 0.930 . S
H665 C674 0.930 . S
H666 C679 0.936 . S
H667 C677 0.936 . S
H668 C672 0.929 . S
H669 C678 0.929 . S
C670 H664 0.930 . S
C670 C671 1.367 . S
C670 C678 1.378 . S
C671 C670 1.367 . S
C671 C679 1.423 1_565 S
C672 H668 0.929 . S
C672 C674 1.378 . S
C672 C676 1.350 . S
C673 C676 1.463 1_565 S
C673 C678 1.350 . S
C673 N681 1.427 1_565 S
C674 H665 0.930 . S
C674 C672 1.378 . S
C674 C675 1.367 . S
C675 C674 1.367 . S
C675 C677 1.423 1_545 S
C676 C672 1.350 . S
C676 C673 1.463 1_545 S
C676 N680 1.427 1_545 S
C677 H667 0.936 . S
C677 C675 1.423 1_565 S
C677 N680 1.388 . S
C678 H669 0.929 . S
C678 C670 1.378 . S
C678 C673 1.350 . S
C679 H666 0.936 . S
C679 C671 1.423 1_545 S
C679 N681 1.388 . S
N680 C676 1.427 1_565 S
N680 C677 1.388 . S
N681 C673 1.427 1_545 S
N681 C679 1.388 . S
H682 C688 0.930 . S
H683 C692 0.930 . S
H684 C697 0.929 . S
H685 C695 0.929 . S
H686 C690 0.929 . S
H687 C696 0.929 . S
C688 H682 0.930 . S
C688 C689 1.367 1_545 S
C688 C696 1.378 . S
C689 C688 1.367 1_565 S
C689 C697 1.433 . S
C690 H686 0.929 . S
C690 C692 1.378 . S
C690 C694 1.313 1_565 S
C691 C694 1.457 1_665 S
C691 C696 1.314 1_565 S
C691 N699 1.472 . S
C692 H683 0.930 . S
C692 C690 1.378 . S
C692 C693 1.367 1_565 S
C693 C692 1.367 1_545 S
C693 C695 1.433 . S
C694 C690 1.313 1_545 S
C694 C691 1.457 1_445 S
C694 N698 1.473 . S
C695 H685 0.929 . S
C695 C693 1.433 . S
C695 N698 1.384 . S
C696 H687 0.929 . S
C696 C688 1.378 . S
C696 C691 1.314 1_545 S
C697 H684 0.929 . S
C697 C689 1.433 . S
C697 N699 1.384 . S
N698 C694 1.473 . S
N698 C695 1.384 . S
N699 C691 1.472 . S
N699 C697 1.384 . S
H700 C706 0.930 . S
H701 C710 0.930 . S
H702 C715 0.929 . S
H703 C713 0.929 . S
H704 C708 0.929 . S
H705 C714 0.929 . S
C706 H700 0.930 . S
C706 C707 1.367 1_545 S
C706 C714 1.378 . S
C707 C706 1.367 1_565 S
C707 C715 1.433 . S
C708 H704 0.929 . S
C708 C710 1.378 . S
C708 C712 1.315 1_565 S
C709 C712 1.457 1_565 S
C709 C714 1.314 1_565 S
C709 N717 1.472 . S
C710 H701 0.930 . S
C710 C708 1.378 . S
C710 C711 1.367 1_565 S
C711 C710 1.367 1_545 S
C711 C713 1.433 . S
C712 C708 1.315 1_545 S
C712 C709 1.457 1_545 S
C712 N716 1.471 . S
C713 H703 0.929 . S
C713 C711 1.433 . S
C713 N716 1.384 . S
C714 H705 0.929 . S
C714 C706 1.378 . S
C714 C709 1.314 1_545 S
C715 H702 0.929 . S
C715 C707 1.433 . S
C715 N717 1.384 . S
N716 C712 1.471 . S
N716 C713 1.384 . S
N717 C709 1.472 . S
N717 C715 1.384 . S
H718 C724 0.930 . S
H719 C728 0.930 . S
H720 C733 0.929 . S
H721 C731 0.929 . S
H722 C726 0.929 . S
H723 C732 0.929 . S
C724 H718 0.930 . S
C724 C725 1.367 . S
C724 C732 1.378 . S
C725 C724 1.367 . S
C725 C733 1.433 1_565 S
C726 H722 0.929 . S
C726 C728 1.378 . S
C726 C730 1.350 . S
C727 C730 1.463 1_465 S
C727 C732 1.350 . S
C727 N735 1.427 1_565 S
C728 H719 0.930 . S
C728 C726 1.378 . S
C728 C729 1.367 . S
C729 C728 1.367 . S
C729 C731 1.433 1_545 S
C730 C726 1.350 . S
C730 C727 1.463 1_645 S
C730 N734 1.427 1_545 S
C731 H721 0.929 . S
C731 C729 1.433 1_565 S
C731 N734 1.384 . S
C732 H723 0.929 . S
C732 C724 1.378 . S
C732 C727 1.350 . S
C733 H720 0.929 . S
C733 C725 1.433 1_545 S
C733 N735 1.384 . S
N734 C730 1.427 1_565 S
N734 C731 1.384 . S
N735 C727 1.427 1_545 S
N735 C733 1.384 . S
H736 C742 0.930 . S
H737 C746 0.930 . S
H738 C751 0.929 . S
H739 C749 0.929 . S
H740 C744 0.929 . S
H741 C750 0.929 . S
C742 H736 0.930 . S
C742 C743 1.367 . S
C742 C750 1.378 . S
C743 C742 1.367 . S
C743 C751 1.433 . S
C744 H740 0.929 . S
C744 C746 1.378 . S
C744 C748 1.350 . S
C745 C748 1.463 . S
C745 C750 1.350 . S
C745 N753 1.427 . S
C746 H737 0.930 . S
C746 C744 1.378 . S
C746 C747 1.367 . S
C747 C746 1.367 . S
C747 C749 1.433 . S
C748 C744 1.350 . S
C748 C745 1.463 . S
C748 N752 1.427 . S
C749 H739 0.929 . S
C749 C747 1.433 . S
C749 N752 1.384 . S
C750 H741 0.929 . S
C750 C742 1.378 . S
C750 C745 1.350 . S
C751 H738 0.929 . S
C751 C743 1.433 . S
C751 N753 1.384 . S
N752 C748 1.427 . S
N752 C749 1.384 . S
N753 C745 1.427 . S
N753 C751 1.384 . S
H754 C760 0.930 . S
H755 C764 0.930 . S
H756 C769 0.929 . S
H757 C767 0.929 . S
H758 C762 0.929 . S
H759 C768 0.929 . S
C760 H754 0.930 . S
C760 C761 1.367 . S
C760 C768 1.378 1_556 S
C761 C760 1.367 . S
C761 C769 1.433 . S
C762 H758 0.929 . S
C762 C764 1.378 . S
C762 C766 1.350 . S
C763 C766 1.463 . S
C763 C768 1.350 . S
C763 N771 1.427 . S
C764 H755 0.930 . S
C764 C762 1.378 . S
C764 C765 1.367 . S
C765 C764 1.367 . S
C765 C767 1.433 . S
C766 C762 1.350 . S
C766 C763 1.463 . S
C766 N770 1.427 . S
C767 H757 0.929 . S
C767 C765 1.433 . S
C767 N770 1.384 . S
C768 H759 0.929 . S
C768 C760 1.378 1_554 S
C768 C763 1.350 . S
C769 H756 0.929 . S
C769 C761 1.433 . S
C769 N771 1.384 1_556 S
N770 C766 1.427 . S
N770 C767 1.384 . S
N771 C763 1.427 . S
N771 C769 1.384 1_554 S
H772 C778 0.930 . S
H773 C782 0.930 . S
H774 C787 0.929 . S
H775 C785 0.929 . S
H776 C780 0.929 . S
H777 C786 0.929 . S
C778 H772 0.930 . S
C778 C779 1.367 . S
C778 C786 1.378 . S
C779 C778 1.367 . S
C779 C787 1.433 . S
C780 H776 0.929 . S
C780 C782 1.378 . S
C780 C784 1.350 . S
C781 C784 1.463 . S
C781 C786 1.350 . S
C781 N789 1.427 . S
C782 H773 0.930 . S
C782 C780 1.378 . S
C782 C783 1.367 . S
C783 C782 1.367 . S
C783 C785 1.433 . S
C784 C780 1.350 . S
C784 C781 1.463 . S
C784 N788 1.427 . S
C785 H775 0.929 . S
C785 C783 1.433 . S
C785 N788 1.384 . S
C786 H777 0.929 . S
C786 C778 1.378 . S
C786 C781 1.350 . S
C787 H774 0.929 . S
C787 C779 1.433 . S
C787 N789 1.384 . S
N788 C784 1.427 . S
N788 C785 1.384 . S
N789 C781 1.427 . S
N789 C787 1.384 . S
H790 C796 0.930 . S
H791 C800 0.930 . S
H792 C805 0.929 . S
H793 C803 0.929 . S
H794 C798 0.929 . S
H795 C804 0.929 . S
C796 H790 0.930 . S
C796 C797 1.367 . S
C796 C804 1.378 . S
C797 C796 1.367 . S
C797 C805 1.433 . S
C798 H794 0.929 . S
C798 C800 1.378 . S
C798 C802 1.350 . S
C799 C802 1.463 . S
C799 C804 1.350 . S
C799 N807 1.427 . S
C800 H791 0.930 . S
C800 C798 1.378 . S
C800 C801 1.367 . S
C801 C800 1.367 . S
C801 C803 1.433 . S
C802 C798 1.350 . S
C802 C799 1.463 . S
C802 N806 1.427 . S
C803 H793 0.929 . S
C803 C801 1.433 . S
C803 N806 1.384 . S
C804 H795 0.929 . S
C804 C796 1.378 . S
C804 C799 1.350 . S
C805 H792 0.929 . S
C805 C797 1.433 . S
C805 N807 1.384 . S
N806 C802 1.427 . S
N806 C803 1.384 . S
N807 C799 1.427 . S
N807 C805 1.384 . S
H808 C814 0.930 . S
H809 C818 0.930 . S
H810 C823 0.929 . S
H811 C821 0.929 . S
H812 C816 0.929 . S
H813 C822 0.929 . S
C814 H808 0.930 . S
C814 C815 1.367 . S
C814 C822 1.378 . S
C815 C814 1.367 . S
C815 C823 1.433 . S
C816 H812 0.929 . S
C816 C818 1.378 . S
C816 C820 1.350 . S
C817 C820 1.463 . S
C817 C822 1.350 . S
C817 N825 1.427 . S
C818 H809 0.930 . S
C818 C816 1.378 . S
C818 C819 1.367 . S
C819 C818 1.367 . S
C819 C821 1.433 . S
C820 C816 1.350 . S
C820 C817 1.463 . S
C820 N824 1.427 . S
C821 H811 0.929 . S
C821 C819 1.433 . S
C821 N824 1.384 . S
C822 H813 0.929 . S
C822 C814 1.378 . S
C822 C817 1.350 . S
C823 H810 0.929 . S
C823 C815 1.433 . S
C823 N825 1.384 . S
N824 C820 1.427 . S
N824 C821 1.384 . S
N825 C817 1.427 . S
N825 C823 1.384 . S
H826 C832 0.930 . S
H827 C836 0.930 . S
H828 C841 0.929 . S
H829 C839 0.929 . S
H830 C834 0.929 . S
H831 C840 0.929 . S
C832 H826 0.930 . S
C832 C833 1.367 . S
C832 C840 1.378 1_556 S
C833 C832 1.367 . S
C833 C841 1.433 . S
C834 H830 0.929 . S
C834 C836 1.378 . S
C834 C838 1.350 . S
C835 C838 1.463 . S
C835 C840 1.350 . S
C835 N843 1.427 . S
C836 H827 0.930 . S
C836 C834 1.378 . S
C836 C837 1.367 . S
C837 C836 1.367 . S
C837 C839 1.433 . S
C838 C834 1.350 . S
C838 C835 1.463 . S
C838 N842 1.427 . S
C839 H829 0.929 . S
C839 C837 1.433 . S
C839 N842 1.384 . S
C840 H831 0.929 . S
C840 C832 1.378 1_554 S
C840 C835 1.350 . S
C841 H828 0.929 . S
C841 C833 1.433 . S
C841 N843 1.384 1_556 S
N842 C838 1.427 . S
N842 C839 1.384 . S
N843 C835 1.427 . S
N843 C841 1.384 1_554 S
H844 C850 0.930 . S
H845 C854 0.930 . S
H846 C859 0.929 . S
H847 C857 0.929 . S
H848 C852 0.929 . S
H849 C858 0.929 . S
C850 H844 0.930 . S
C850 C851 1.367 . S
C850 C858 1.378 . S
C851 C850 1.367 . S
C851 C859 1.433 . S
C852 H848 0.929 . S
C852 C854 1.378 . S
C852 C856 1.350 . S
C853 C856 1.463 . S
C853 C858 1.350 . S
C853 N861 1.427 . S
C854 H845 0.930 . S
C854 C852 1.378 . S
C854 C855 1.367 . S
C855 C854 1.367 . S
C855 C857 1.433 . S
C856 C852 1.350 . S
C856 C853 1.463 . S
C856 N860 1.427 . S
C857 H847 0.929 . S
C857 C855 1.433 . S
C857 N860 1.384 . S
C858 H849 0.929 . S
C858 C850 1.378 . S
C858 C853 1.350 . S
C859 H846 0.929 . S
C859 C851 1.433 . S
C859 N861 1.384 . S
N860 C856 1.427 . S
N860 C857 1.384 . S
N861 C853 1.427 . S
N861 C859 1.384 . S
H862 C868 0.930 . S
H863 C872 0.930 . S
H864 C877 0.929 . S
H865 C875 0.929 . S
H866 C870 0.929 . S
H867 C876 0.929 . S
C868 H862 0.930 . S
C868 C869 1.367 . S
C868 C876 1.378 . S
C869 C868 1.367 . S
C869 C877 1.433 . S
C870 H866 0.929 . S
C870 C872 1.378 . S
C870 C874 1.350 . S
C871 C874 1.463 . S
C871 C876 1.350 . S
C871 N879 1.427 . S
C872 H863 0.930 . S
C872 C870 1.378 . S
C872 C873 1.367 . S
C873 C872 1.367 . S
C873 C875 1.433 . S
C874 C870 1.350 . S
C874 C871 1.463 . S
C874 N878 1.427 . S
C875 H865 0.929 . S
C875 C873 1.433 . S
C875 N878 1.384 . S
C876 H867 0.929 . S
C876 C868 1.378 . S
C876 C871 1.350 . S
C877 H864 0.929 . S
C877 C869 1.433 . S
C877 N879 1.384 . S
N878 C874 1.427 . S
N878 C875 1.384 . S
N879 C871 1.427 . S
N879 C877 1.384 . S
H880 C886 0.930 . S
H881 C890 0.930 . S
H882 C895 0.929 . S
H883 C893 0.929 . S
H884 C888 0.929 . S
H885 C894 0.929 . S
C886 H880 0.930 . S
C886 C887 1.367 1_565 S
C886 C894 1.378 . S
C887 C886 1.367 1_545 S
C887 C895 1.433 . S
C888 H884 0.929 . S
C888 C890 1.378 . S
C888 C892 1.350 1_545 S
C889 C892 1.463 1_545 S
C889 C894 1.350 1_545 S
C889 N897 1.427 . S
C890 H881 0.930 . S
C890 C888 1.378 . S
C890 C891 1.367 1_545 S
C891 C890 1.367 1_565 S
C891 C893 1.433 . S
C892 C888 1.350 1_565 S
C892 C889 1.463 1_565 S
C892 N896 1.427 . S
C893 H883 0.929 . S
C893 C891 1.433 . S
C893 N896 1.384 . S
C894 H885 0.929 . S
C894 C886 1.378 . S
C894 C889 1.350 1_565 S
C895 H882 0.929 . S
C895 C887 1.433 . S
C895 N897 1.384 . S
N896 C892 1.427 . S
N896 C893 1.384 . S
N897 C889 1.427 . S
N897 C895 1.384 . S
H898 C904 0.930 . S
H899 C908 0.930 . S
H900 C913 0.929 . S
H901 C911 0.929 . S
H902 C906 0.929 . S
H903 C912 0.929 . S
C904 H898 0.930 . S
C904 C905 1.367 . S
C904 C912 1.378 . S
C905 C904 1.367 . S
C905 C913 1.433 . S
C906 H902 0.929 . S
C906 C908 1.378 . S
C906 C910 1.350 . S
C907 C910 1.463 . S
C907 C912 1.350 . S
C907 N915 1.427 . S
C908 H899 0.930 . S
C908 C906 1.378 . S
C908 C909 1.367 . S
C909 C908 1.367 . S
C909 C911 1.433 . S
C910 C906 1.350 . S
C910 C907 1.463 . S
C910 N914 1.427 . S
C911 H901 0.929 . S
C911 C909 1.433 . S
C911 N914 1.384 . S
C912 H903 0.929 . S
C912 C904 1.378 . S
C912 C907 1.350 . S
C913 H900 0.929 . S
C913 C905 1.433 . S
C913 N915 1.384 . S
N914 C910 1.427 . S
N914 C911 1.384 . S
N915 C907 1.427 . S
N915 C913 1.384 . S
H916 C922 0.930 . S
H917 C926 0.930 . S
H918 C931 0.929 . S
H919 C929 0.929 . S
H920 C924 0.929 . S
H921 C930 0.929 . S
C922 H916 0.930 . S
C922 C923 1.367 1_565 S
C922 C930 1.378 . S
C923 C922 1.367 1_545 S
C923 C931 1.433 . S
C924 H920 0.929 . S
C924 C926 1.378 . S
C924 C928 1.350 1_545 S
C925 C928 1.463 1_545 S
C925 C930 1.350 1_545 S
C925 N933 1.427 . S
C926 H917 0.930 . S
C926 C924 1.378 . S
C926 C927 1.367 1_545 S
C927 C926 1.367 1_565 S
C927 C929 1.433 . S
C928 C924 1.350 1_565 S
C928 C925 1.463 1_565 S
C928 N932 1.427 . S
C929 H919 0.929 . S
C929 C927 1.433 . S
C929 N932 1.384 . S
C930 H921 0.929 . S
C930 C922 1.378 . S
C930 C925 1.350 1_565 S
C931 H918 0.929 . S
C931 C923 1.433 . S
C931 N933 1.384 . S
N932 C928 1.427 . S
N932 C929 1.384 . S
N933 C925 1.427 . S
N933 C931 1.384 . S
H934 C940 0.930 . S
H935 C944 0.930 . S
H936 C949 0.929 . S
H937 C947 0.929 . S
H938 C942 0.929 . S
H939 C948 0.929 . S
C940 H934 0.930 . S
C940 C941 1.367 . S
C940 C948 1.378 1_556 S
C941 C940 1.367 . S
C941 C949 1.433 . S
C942 H938 0.929 . S
C942 C944 1.378 . S
C942 C946 1.350 . S
C943 C946 1.463 . S
C943 C948 1.350 . S
C943 N951 1.427 . S
C944 H935 0.930 . S
C944 C942 1.378 . S
C944 C945 1.367 . S
C945 C944 1.367 . S
C945 C947 1.433 . S
C946 C942 1.350 . S
C946 C943 1.463 . S
C946 N950 1.427 . S
C947 H937 0.929 . S
C947 C945 1.433 . S
C947 N950 1.384 . S
C948 H939 0.929 . S
C948 C940 1.378 1_554 S
C948 C943 1.350 . S
C949 H936 0.929 . S
C949 C941 1.433 . S
C949 N951 1.384 1_556 S
N950 C946 1.427 . S
N950 C947 1.384 . S
N951 C943 1.427 . S
N951 C949 1.384 1_554 S
H952 C958 0.930 1_545 S
H953 C962 0.930 1_565 S
H954 C967 0.929 . S
H955 C965 0.929 . S
H956 C960 0.929 . S
H957 C966 0.929 . S
C958 H952 0.930 1_565 S
C958 C959 1.367 . S
C958 C966 1.378 1_565 S
C959 C958 1.367 . S
C959 C967 1.433 . S
C960 H956 0.929 . S
C960 C962 1.378 1_565 S
C960 C964 1.350 1_565 S
C961 C964 1.463 1_565 S
C961 C966 1.350 1_565 S
C961 N969 1.427 . S
C962 H953 0.930 1_545 S
C962 C960 1.378 1_545 S
C962 C963 1.367 . S
C963 C962 1.367 . S
C963 C965 1.433 . S
C964 C960 1.350 1_545 S
C964 C961 1.463 1_545 S
C964 N968 1.427 . S
C965 H955 0.929 . S
C965 C963 1.433 . S
C965 N968 1.384 . S
C966 H957 0.929 . S
C966 C958 1.378 1_545 S
C966 C961 1.350 1_545 S
C967 H954 0.929 . S
C967 C959 1.433 . S
C967 N969 1.384 . S
N968 C964 1.427 . S
N968 C965 1.384 . S
N969 C961 1.427 . S
N969 C967 1.384 . S
H970 C976 0.930 . S
H971 C980 0.930 . S
H972 C985 0.929 . S
H973 C983 0.929 . S
H974 C978 0.929 . S
H975 C984 0.929 . S
C976 H970 0.930 . S
C976 C977 1.367 . S
C976 C984 1.378 . S
C977 C976 1.367 . S
C977 C985 1.433 . S
C978 H974 0.929 . S
C978 C980 1.378 . S
C978 C982 1.350 . S
C979 C982 1.463 . S
C979 C984 1.350 . S
C979 N987 1.427 . S
C980 H971 0.930 . S
C980 C978 1.378 . S
C980 C981 1.367 . S
C981 C980 1.367 . S
C981 C983 1.433 . S
C982 C978 1.350 . S
C982 C979 1.463 . S
C982 N986 1.427 . S
C983 H973 0.929 . S
C983 C981 1.433 . S
C983 N986 1.384 . S
C984 H975 0.929 . S
C984 C976 1.378 . S
C984 C979 1.350 . S
C985 H972 0.929 . S
C985 C977 1.433 . S
C985 N987 1.384 . S
N986 C982 1.427 . S
N986 C983 1.384 . S
N987 C979 1.427 . S
N987 C985 1.384 . S
H988 C994 0.930 . S
H989 C998 0.930 . S
H990 C1003 0.929 . S
H991 C1001 0.929 . S
H992 C996 0.929 . S
H993 C1002 0.929 . S
C994 H988 0.930 . S
C994 C995 1.367 1_565 S
C994 C1002 1.378 . S
C995 C994 1.367 1_545 S
C995 C1003 1.433 . S
C996 H992 0.929 . S
C996 C998 1.378 . S
C996 C1000 1.350 1_545 S
C997 C1000 1.463 1_545 S
C997 C1002 1.350 1_545 S
C997 N1005 1.427 . S
C998 H989 0.930 . S
C998 C996 1.378 . S
C998 C999 1.367 1_545 S
C999 C998 1.367 1_565 S
C999 C1001 1.433 . S
C1000 C996 1.350 1_565 S
C1000 C997 1.463 1_565 S
C1000 N1004 1.427 . S
C1001 H991 0.929 . S
C1001 C999 1.433 . S
C1001 N1004 1.384 . S
C1002 H993 0.929 . S
C1002 C994 1.378 . S
C1002 C997 1.350 1_565 S
C1003 H990 0.929 . S
C1003 C995 1.433 . S
C1003 N1005 1.384 . S
N1004 C1000 1.427 . S
N1004 C1001 1.384 . S
N1005 C997 1.427 . S
N1005 C1003 1.384 . S
H1006 C1012 0.930 . S
H1007 C1016 0.930 . S
H1008 C1021 0.929 . S
H1009 C1019 0.929 . S
H1010 C1014 0.929 . S
H1011 C1020 0.929 . S
C1012 H1006 0.930 . S
C1012 C1013 1.367 . S
C1012 C1020 1.378 . S
C1013 C1012 1.367 . S
C1013 C1021 1.433 . S
C1014 H1010 0.929 . S
C1014 C1016 1.378 1_554 S
C1014 C1018 1.350 . S
C1015 C1018 1.463 . S
C1015 C1020 1.350 . S
C1015 N1023 1.427 . S
C1016 H1007 0.930 . S
C1016 C1014 1.378 1_556 S
C1016 C1017 1.367 . S
C1017 C1016 1.367 . S
C1017 C1019 1.433 . S
C1018 C1014 1.350 . S
C1018 C1015 1.463 . S
C1018 N1022 1.427 . S
C1019 H1009 0.929 . S
C1019 C1017 1.433 . S
C1019 N1022 1.384 1_556 S
C1020 H1011 0.929 . S
C1020 C1012 1.378 . S
C1020 C1015 1.350 . S
C1021 H1008 0.929 . S
C1021 C1013 1.433 . S
C1021 N1023 1.384 . S
N1022 C1018 1.427 . S
N1022 C1019 1.384 1_554 S
N1023 C1015 1.427 . S
N1023 C1021 1.384 . S
H1024 C1030 0.930 . S
H1025 C1034 0.930 . S
H1026 C1039 0.929 . S
H1027 C1037 0.929 . S
H1028 C1032 0.929 . S
H1029 C1038 0.929 . S
C1030 H1024 0.930 . S
C1030 C1031 1.367 . S
C1030 C1038 1.378 . S
C1031 C1030 1.367 . S
C1031 C1039 1.433 . S
C1032 H1028 0.929 . S
C1032 C1034 1.378 . S
C1032 C1036 1.350 . S
C1033 C1036 1.463 . S
C1033 C1038 1.350 . S
C1033 N1041 1.427 . S
C1034 H1025 0.930 . S
C1034 C1032 1.378 . S
C1034 C1035 1.367 . S
C1035 C1034 1.367 . S
C1035 C1037 1.433 . S
C1036 C1032 1.350 . S
C1036 C1033 1.463 . S
C1036 N1040 1.427 . S
C1037 H1027 0.929 . S
C1037 C1035 1.433 . S
C1037 N1040 1.384 . S
C1038 H1029 0.929 . S
C1038 C1030 1.378 . S
C1038 C1033 1.350 . S
C1039 H1026 0.929 . S
C1039 C1031 1.433 . S
C1039 N1041 1.384 . S
N1040 C1036 1.427 . S
N1040 C1037 1.384 . S
N1041 C1033 1.427 . S
N1041 C1039 1.384 . S
H1042 C1048 0.930 . S
H1043 C1052 0.930 . S
H1044 C1057 0.929 . S
H1045 C1055 0.929 . S
H1046 C1050 0.929 . S
H1047 C1056 0.929 . S
C1048 H1042 0.930 . S
C1048 C1049 1.367 . S
C1048 C1056 1.378 . S
C1049 C1048 1.367 . S
C1049 C1057 1.433 . S
C1050 H1046 0.929 . S
C1050 C1052 1.378 . S
C1050 C1054 1.350 . S
C1051 C1054 1.463 . S
C1051 C1056 1.350 . S
C1051 N1059 1.427 . S
C1052 H1043 0.930 . S
C1052 C1050 1.378 . S
C1052 C1053 1.367 . S
C1053 C1052 1.367 . S
C1053 C1055 1.433 . S
C1054 C1050 1.350 . S
C1054 C1051 1.463 . S
C1054 N1058 1.427 . S
C1055 H1045 0.929 . S
C1055 C1053 1.433 . S
C1055 N1058 1.384 . S
C1056 H1047 0.929 . S
C1056 C1048 1.378 . S
C1056 C1051 1.350 . S
C1057 H1044 0.929 . S
C1057 C1049 1.433 . S
C1057 N1059 1.384 . S
N1058 C1054 1.427 . S
N1058 C1055 1.384 . S
N1059 C1051 1.427 . S
N1059 C1057 1.384 . S
H1060 C1066 0.930 . S
H1061 C1070 0.930 . S
H1062 C1075 0.929 . S
H1063 C1073 0.929 . S
H1064 C1068 0.929 . S
H1065 C1074 0.929 . S
C1066 H1060 0.930 . S
C1066 C1067 1.367 . S
C1066 C1074 1.378 . S
C1067 C1066 1.367 . S
C1067 C1075 1.433 . S
C1068 H1064 0.929 . S
C1068 C1070 1.378 . S
C1068 C1072 1.350 . S
C1069 C1072 1.463 . S
C1069 C1074 1.350 . S
C1069 N1077 1.427 . S
C1070 H1061 0.930 . S
C1070 C1068 1.378 . S
C1070 C1071 1.367 . S
C1071 C1070 1.367 . S
C1071 C1073 1.433 . S
C1072 C1068 1.350 . S
C1072 C1069 1.463 . S
C1072 N1076 1.427 . S
C1073 H1063 0.929 . S
C1073 C1071 1.433 . S
C1073 N1076 1.384 . S
C1074 H1065 0.929 . S
C1074 C1066 1.378 . S
C1074 C1069 1.350 . S
C1075 H1062 0.929 . S
C1075 C1067 1.433 . S
C1075 N1077 1.384 . S
N1076 C1072 1.427 . S
N1076 C1073 1.384 . S
N1077 C1069 1.427 . S
N1077 C1075 1.384 . S
H1078 C1084 0.930 . S
H1079 C1088 0.930 . S
H1080 C1093 0.929 . S
H1081 C1091 0.929 . S
H1082 C1086 0.929 . S
H1083 C1092 0.929 . S
C1084 H1078 0.930 . S
C1084 C1085 1.367 . S
C1084 C1092 1.378 . S
C1085 C1084 1.367 . S
C1085 C1093 1.433 . S
C1086 H1082 0.929 . S
C1086 C1088 1.378 1_554 S
C1086 C1090 1.350 . S
C1087 C1090 1.463 . S
C1087 C1092 1.350 . S
C1087 N1095 1.427 . S
C1088 H1079 0.930 . S
C1088 C1086 1.378 1_556 S
C1088 C1089 1.367 . S
C1089 C1088 1.367 . S
C1089 C1091 1.433 . S
C1090 C1086 1.350 . S
C1090 C1087 1.463 . S
C1090 N1094 1.427 . S
C1091 H1081 0.929 . S
C1091 C1089 1.433 . S
C1091 N1094 1.384 1_556 S
C1092 H1083 0.929 . S
C1092 C1084 1.378 . S
C1092 C1087 1.350 . S
C1093 H1080 0.929 . S
C1093 C1085 1.433 . S
C1093 N1095 1.384 . S
N1094 C1090 1.427 . S
N1094 C1091 1.384 1_554 S
N1095 C1087 1.427 . S
N1095 C1093 1.384 . S
H1096 C1102 0.930 . S
H1097 C1106 0.930 . S
H1098 C1111 0.929 . S
H1099 C1109 0.929 . S
H1100 C1104 0.929 . S
H1101 C1110 0.929 . S
C1102 H1096 0.930 . S
C1102 C1103 1.367 . S
C1102 C1110 1.378 . S
C1103 C1102 1.367 . S
C1103 C1111 1.433 . S
C1104 H1100 0.929 . S
C1104 C1106 1.378 . S
C1104 C1108 1.350 . S
C1105 C1108 1.463 . S
C1105 C1110 1.350 . S
C1105 N1113 1.427 . S
C1106 H1097 0.930 . S
C1106 C1104 1.378 . S
C1106 C1107 1.367 . S
C1107 C1106 1.367 . S
C1107 C1109 1.433 . S
C1108 C1104 1.350 . S
C1108 C1105 1.463 . S
C1108 N1112 1.427 . S
C1109 H1099 0.929 . S
C1109 C1107 1.433 . S
C1109 N1112 1.384 . S
C1110 H1101 0.929 . S
C1110 C1102 1.378 . S
C1110 C1105 1.350 . S
C1111 H1098 0.929 . S
C1111 C1103 1.433 . S
C1111 N1113 1.384 . S
N1112 C1108 1.427 . S
N1112 C1109 1.384 . S
N1113 C1105 1.427 . S
N1113 C1111 1.384 . S
H1114 C1120 0.930 . S
H1115 C1124 0.930 . S
H1116 C1129 0.929 . S
H1117 C1127 0.929 . S
H1118 C1122 0.929 . S
H1119 C1128 0.929 . S
C1120 H1114 0.930 . S
C1120 C1121 1.367 . S
C1120 C1128 1.378 . S
C1121 C1120 1.367 . S
C1121 C1129 1.433 . S
C1122 H1118 0.929 . S
C1122 C1124 1.378 . S
C1122 C1126 1.350 . S
C1123 C1126 1.463 . S
C1123 C1128 1.350 . S
C1123 N1131 1.427 . S
C1124 H1115 0.930 . S
C1124 C1122 1.378 . S
C1124 C1125 1.367 . S
C1125 C1124 1.367 . S
C1125 C1127 1.433 . S
C1126 C1122 1.350 . S
C1126 C1123 1.463 . S
C1126 N1130 1.427 . S
C1127 H1117 0.929 . S
C1127 C1125 1.433 . S
C1127 N1130 1.384 . S
C1128 H1119 0.929 . S
C1128 C1120 1.378 . S
C1128 C1123 1.350 . S
C1129 H1116 0.929 . S
C1129 C1121 1.433 . S
C1129 N1131 1.384 . S
N1130 C1126 1.427 . S
N1130 C1127 1.384 . S
N1131 C1123 1.427 . S
N1131 C1129 1.384 . S
H1132 C1138 0.930 . S
H1133 C1142 0.930 . S
H1134 C1147 0.929 . S
H1135 C1145 0.929 . S
H1136 C1140 0.929 . S
H1137 C1146 0.929 . S
C1138 H1132 0.930 . S
C1138 C1139 1.367 . S
C1138 C1146 1.378 . S
C1139 C1138 1.367 . S
C1139 C1147 1.433 . S
C1140 H1136 0.929 . S
C1140 C1142 1.378 . S
C1140 C1144 1.350 . S
C1141 C1144 1.463 . S
C1141 C1146 1.350 . S
C1141 N1149 1.427 . S
C1142 H1133 0.930 . S
C1142 C1140 1.378 . S
C1142 C1143 1.367 . S
C1143 C1142 1.367 . S
C1143 C1145 1.433 . S
C1144 C1140 1.350 . S
C1144 C1141 1.463 . S
C1144 N1148 1.427 . S
C1145 H1135 0.929 . S
C1145 C1143 1.433 . S
C1145 N1148 1.384 . S
C1146 H1137 0.929 . S
C1146 C1138 1.378 . S
C1146 C1141 1.350 . S
C1147 H1134 0.929 . S
C1147 C1139 1.433 . S
C1147 N1149 1.384 . S
N1148 C1144 1.427 . S
N1148 C1145 1.384 . S
N1149 C1141 1.427 . S
N1149 C1147 1.384 . S
H1150 C1156 0.930 . S
H1151 C1160 0.930 . S
H1152 C1165 0.929 . S
H1153 C1163 0.929 . S
H1154 C1158 0.929 . S
H1155 C1164 0.929 . S
C1156 H1150 0.930 . S
C1156 C1157 1.367 . S
C1156 C1164 1.378 1_556 S
C1157 C1156 1.367 . S
C1157 C1165 1.433 . S
C1158 H1154 0.929 . S
C1158 C1160 1.378 . S
C1158 C1162 1.350 . S
C1159 C1162 1.463 . S
C1159 C1164 1.350 . S
C1159 N1167 1.427 . S
C1160 H1151 0.930 . S
C1160 C1158 1.378 . S
C1160 C1161 1.367 . S
C1161 C1160 1.367 . S
C1161 C1163 1.433 . S
C1162 C1158 1.350 . S
C1162 C1159 1.463 . S
C1162 N1166 1.427 . S
C1163 H1153 0.929 . S
C1163 C1161 1.433 . S
C1163 N1166 1.384 . S
C1164 H1155 0.929 . S
C1164 C1156 1.378 1_554 S
C1164 C1159 1.350 . S
C1165 H1152 0.929 . S
C1165 C1157 1.433 . S
C1165 N1167 1.384 1_556 S
N1166 C1162 1.427 . S
N1166 C1163 1.384 . S
N1167 C1159 1.427 . S
N1167 C1165 1.384 1_554 S
H1168 C1174 0.930 . S
H1169 C1178 0.930 . S
H1170 C1183 0.929 . S
H1171 C1181 0.929 . S
H1172 C1176 0.929 . S
H1173 C1182 0.929 . S
C1174 H1168 0.930 . S
C1174 C1175 1.367 . S
C1174 C1182 1.378 . S
C1175 C1174 1.367 . S
C1175 C1183 1.433 1_565 S
C1176 H1172 0.929 . S
C1176 C1178 1.378 . S
C1176 C1180 1.350 . S
C1177 C1180 1.463 1_565 S
C1177 C1182 1.350 . S
C1177 N1185 1.427 1_565 S
C1178 H1169 0.930 . S
C1178 C1176 1.378 . S
C1178 C1179 1.367 . S
C1179 C1178 1.367 . S
C1179 C1181 1.433 1_545 S
C1180 C1176 1.350 . S
C1180 C1177 1.463 1_545 S
C1180 N1184 1.427 1_545 S
C1181 H1171 0.929 . S
C1181 C1179 1.433 1_565 S
C1181 N1184 1.384 . S
C1182 H1173 0.929 . S
C1182 C1174 1.378 . S
C1182 C1177 1.350 . S
C1183 H1170 0.929 . S
C1183 C1175 1.433 1_545 S
C1183 N1185 1.384 . S
N1184 C1180 1.427 1_565 S
N1184 C1181 1.384 . S
N1185 C1177 1.427 1_545 S
N1185 C1183 1.384 . S
H1186 C1192 0.930 . S
H1187 C1196 0.930 . S
H1188 C1201 0.929 . S
H1189 C1199 0.929 . S
H1190 C1194 0.929 . S
H1191 C1200 0.929 . S
C1192 H1186 0.930 . S
C1192 C1193 1.367 . S
C1192 C1200 1.378 . S
C1193 C1192 1.367 . S
C1193 C1201 1.433 . S
C1194 H1190 0.929 . S
C1194 C1196 1.378 1_554 S
C1194 C1198 1.350 . S
C1195 C1198 1.463 . S
C1195 C1200 1.350 . S
C1195 N1203 1.427 . S
C1196 H1187 0.930 . S
C1196 C1194 1.378 1_556 S
C1196 C1197 1.367 . S
C1197 C1196 1.367 . S
C1197 C1199 1.433 . S
C1198 C1194 1.350 . S
C1198 C1195 1.463 . S
C1198 N1202 1.427 . S
C1199 H1189 0.929 . S
C1199 C1197 1.433 . S
C1199 N1202 1.384 1_556 S
C1200 H1191 0.929 . S
C1200 C1192 1.378 . S
C1200 C1195 1.350 . S
C1201 H1188 0.929 . S
C1201 C1193 1.433 . S
C1201 N1203 1.384 . S
N1202 C1198 1.427 . S
N1202 C1199 1.384 1_554 S
N1203 C1195 1.427 . S
N1203 C1201 1.384 . S
H1204 C1210 0.930 . S
H1205 C1214 0.930 . S
H1206 C1219 0.929 . S
H1207 C1217 0.929 . S
H1208 C1212 0.929 . S
H1209 C1218 0.929 . S
C1210 H1204 0.930 . S
C1210 C1211 1.367 1_545 S
C1210 C1218 1.378 . S
C1211 C1210 1.367 1_565 S
C1211 C1219 1.433 . S
C1212 H1208 0.929 . S
C1212 C1214 1.378 . S
C1212 C1216 1.350 1_565 S
C1213 C1216 1.463 1_565 S
C1213 C1218 1.350 1_565 S
C1213 N1221 1.427 . S
C1214 H1205 0.930 . S
C1214 C1212 1.378 . S
C1214 C1215 1.367 1_565 S
C1215 C1214 1.367 1_545 S
C1215 C1217 1.433 . S
C1216 C1212 1.350 1_545 S
C1216 C1213 1.463 1_545 S
C1216 N1220 1.427 . S
C1217 H1207 0.929 . S
C1217 C1215 1.433 . S
C1217 N1220 1.384 . S
C1218 H1209 0.929 . S
C1218 C1210 1.378 . S
C1218 C1213 1.350 1_545 S
C1219 H1206 0.929 . S
C1219 C1211 1.433 . S
C1219 N1221 1.384 . S
N1220 C1216 1.427 . S
N1220 C1217 1.384 . S
N1221 C1213 1.427 . S
N1221 C1219 1.384 . S
H1222 C1228 0.930 . S
H1223 C1232 0.930 . S
H1224 C1237 0.929 . S
H1225 C1235 0.929 . S
H1226 C1230 0.929 . S
H1227 C1236 0.929 . S
C1228 H1222 0.930 . S
C1228 C1229 1.367 . S
C1228 C1236 1.378 . S
C1229 C1228 1.367 . S
C1229 C1237 1.433 . S
C1230 H1226 0.929 . S
C1230 C1232 1.378 . S
C1230 C1234 1.350 . S
C1231 C1234 1.463 . S
C1231 C1236 1.350 . S
C1231 N1239 1.427 . S
C1232 H1223 0.930 . S
C1232 C1230 1.378 . S
C1232 C1233 1.367 . S
C1233 C1232 1.367 . S
C1233 C1235 1.433 . S
C1234 C1230 1.350 . S
C1234 C1231 1.463 . S
C1234 N1238 1.427 . S
C1235 H1225 0.929 . S
C1235 C1233 1.433 . S
C1235 N1238 1.384 . S
C1236 H1227 0.929 . S
C1236 C1228 1.378 . S
C1236 C1231 1.350 . S
C1237 H1224 0.929 . S
C1237 C1229 1.433 . S
C1237 N1239 1.384 . S
N1238 C1234 1.427 . S
N1238 C1235 1.384 . S
N1239 C1231 1.427 . S
N1239 C1237 1.384 . S
H1240 C1246 0.930 . S
H1241 C1250 0.930 . S
H1242 C1255 0.929 . S
H1243 C1253 0.929 . S
H1244 C1248 0.929 . S
H1245 C1254 0.929 . S
C1246 H1240 0.930 . S
C1246 C1247 1.367 . S
C1246 C1254 1.378 . S
C1247 C1246 1.367 . S
C1247 C1255 1.433 1_565 S
C1248 H1244 0.929 . S
C1248 C1250 1.378 . S
C1248 C1252 1.350 . S
C1249 C1252 1.463 1_565 S
C1249 C1254 1.350 . S
C1249 N1257 1.427 1_565 S
C1250 H1241 0.930 . S
C1250 C1248 1.378 . S
C1250 C1251 1.367 . S
C1251 C1250 1.367 . S
C1251 C1253 1.433 1_545 S
C1252 C1248 1.350 . S
C1252 C1249 1.463 1_545 S
C1252 N1256 1.427 1_545 S
C1253 H1243 0.929 . S
C1253 C1251 1.433 1_565 S
C1253 N1256 1.384 . S
C1254 H1245 0.929 . S
C1254 C1246 1.378 . S
C1254 C1249 1.350 . S
C1255 H1242 0.929 . S
C1255 C1247 1.433 1_545 S
C1255 N1257 1.384 . S
N1256 C1252 1.427 1_565 S
N1256 C1253 1.384 . S
N1257 C1249 1.427 1_545 S
N1257 C1255 1.384 . S
H1258 C1264 0.930 . S
H1259 C1268 0.930 . S
H1260 C1273 0.929 . S
H1261 C1271 0.929 . S
H1262 C1266 0.929 . S
H1263 C1272 0.929 . S
C1264 H1258 0.930 . S
C1264 C1265 1.367 . S
C1264 C1272 1.378 . S
C1265 C1264 1.367 . S
C1265 C1273 1.433 . S
C1266 H1262 0.929 . S
C1266 C1268 1.378 1_554 S
C1266 C1270 1.350 . S
C1267 C1270 1.463 . S
C1267 C1272 1.350 . S
C1267 N1275 1.427 . S
C1268 H1259 0.930 . S
C1268 C1266 1.378 1_556 S
C1268 C1269 1.367 . S
C1269 C1268 1.367 . S
C1269 C1271 1.433 . S
C1270 C1266 1.350 . S
C1270 C1267 1.463 . S
C1270 N1274 1.427 . S
C1271 H1261 0.929 . S
C1271 C1269 1.433 . S
C1271 N1274 1.384 1_556 S
C1272 H1263 0.929 . S
C1272 C1264 1.378 . S
C1272 C1267 1.350 . S
C1273 H1260 0.929 . S
C1273 C1265 1.433 . S
C1273 N1275 1.384 . S
N1274 C1270 1.427 . S
N1274 C1271 1.384 1_554 S
N1275 C1267 1.427 . S
N1275 C1273 1.384 . S
H1276 C1282 0.930 . S
H1277 C1286 0.930 . S
H1278 C1291 0.929 . S
H1279 C1289 0.929 . S
H1280 C1284 0.929 . S
H1281 C1290 0.929 . S
C1282 H1276 0.930 . S
C1282 C1283 1.367 . S
C1282 C1290 1.378 . S
C1283 C1282 1.367 . S
C1283 C1291 1.433 1_565 S
C1284 H1280 0.929 . S
C1284 C1286 1.378 . S
C1284 C1288 1.350 . S
C1285 C1288 1.463 1_565 S
C1285 C1290 1.350 . S
C1285 N1293 1.427 1_565 S
C1286 H1277 0.930 . S
C1286 C1284 1.378 . S
C1286 C1287 1.367 . S
C1287 C1286 1.367 . S
C1287 C1289 1.433 1_545 S
C1288 C1284 1.350 . S
C1288 C1285 1.463 1_545 S
C1288 N1292 1.427 1_545 S
C1289 H1279 0.929 . S
C1289 C1287 1.433 1_565 S
C1289 N1292 1.384 . S
C1290 H1281 0.929 . S
C1290 C1282 1.378 . S
C1290 C1285 1.350 . S
C1291 H1278 0.929 . S
C1291 C1283 1.433 1_545 S
C1291 N1293 1.384 . S
N1292 C1288 1.427 1_565 S
N1292 C1289 1.384 . S
N1293 C1285 1.427 1_545 S
N1293 C1291 1.384 . S
H1294 C1300 0.930 . S
H1295 C1304 0.930 . S
H1296 C1309 0.929 . S
H1297 C1307 0.929 . S
H1298 C1302 0.929 . S
H1299 C1308 0.929 . S
C1300 H1294 0.930 . S
C1300 C1301 1.367 . S
C1300 C1308 1.378 . S
C1301 C1300 1.367 . S
C1301 C1309 1.433 . S
C1302 H1298 0.929 . S
C1302 C1304 1.378 . S
C1302 C1306 1.350 . S
C1303 C1306 1.463 . S
C1303 C1308 1.350 . S
C1303 N1311 1.427 . S
C1304 H1295 0.930 . S
C1304 C1302 1.378 . S
C1304 C1305 1.367 . S
C1305 C1304 1.367 . S
C1305 C1307 1.433 . S
C1306 C1302 1.350 . S
C1306 C1303 1.463 . S
C1306 N1310 1.427 . S
C1307 H1297 0.929 . S
C1307 C1305 1.433 . S
C1307 N1310 1.384 . S
C1308 H1299 0.929 . S
C1308 C1300 1.378 . S
C1308 C1303 1.350 . S
C1309 H1296 0.929 . S
C1309 C1301 1.433 . S
C1309 N1311 1.384 . S
N1310 C1306 1.427 . S
N1310 C1307 1.384 . S
N1311 C1303 1.427 . S
N1311 C1309 1.384 . S
H1312 C1318 0.930 . S
H1313 C1322 0.930 . S
H1314 C1327 0.929 . S
H1315 C1325 0.929 . S
H1316 C1320 0.929 . S
H1317 C1326 0.929 . S
C1318 H1312 0.930 . S
C1318 C1319 1.367 . S
C1318 C1326 1.378 . S
C1319 C1318 1.367 . S
C1319 C1327 1.433 . S
C1320 H1316 0.929 . S
C1320 C1322 1.378 . S
C1320 C1324 1.350 . S
C1321 C1324 1.463 . S
C1321 C1326 1.350 . S
C1321 N1329 1.427 . S
C1322 H1313 0.930 . S
C1322 C1320 1.378 . S
C1322 C1323 1.367 . S
C1323 C1322 1.367 . S
C1323 C1325 1.433 . S
C1324 C1320 1.350 . S
C1324 C1321 1.463 . S
C1324 N1328 1.427 . S
C1325 H1315 0.929 . S
C1325 C1323 1.433 . S
C1325 N1328 1.384 . S
C1326 H1317 0.929 . S
C1326 C1318 1.378 . S
C1326 C1321 1.350 . S
C1327 H1314 0.929 . S
C1327 C1319 1.433 . S
C1327 N1329 1.384 . S
N1328 C1324 1.427 . S
N1328 C1325 1.384 . S
N1329 C1321 1.427 . S
N1329 C1327 1.384 . S
H1330 C1336 0.930 . S
H1331 C1340 0.930 . S
H1332 C1345 0.929 . S
H1333 C1343 0.929 . S
H1334 C1338 0.929 . S
H1335 C1344 0.929 . S
C1336 H1330 0.930 . S
C1336 C1337 1.367 . S
C1336 C1344 1.378 . S
C1337 C1336 1.367 . S
C1337 C1345 1.433 . S
C1338 H1334 0.929 . S
C1338 C1340 1.378 . S
C1338 C1342 1.350 . S
C1339 C1342 1.463 . S
C1339 C1344 1.350 . S
C1339 N1347 1.427 . S
C1340 H1331 0.930 . S
C1340 C1338 1.378 . S
C1340 C1341 1.367 . S
C1341 C1340 1.367 . S
C1341 C1343 1.433 . S
C1342 C1338 1.350 . S
C1342 C1339 1.463 . S
C1342 N1346 1.427 . S
C1343 H1333 0.929 . S
C1343 C1341 1.433 . S
C1343 N1346 1.384 . S
C1344 H1335 0.929 . S
C1344 C1336 1.378 . S
C1344 C1339 1.350 . S
C1345 H1332 0.929 . S
C1345 C1337 1.433 . S
C1345 N1347 1.384 . S
N1346 C1342 1.427 . S
N1346 C1343 1.384 . S
N1347 C1339 1.427 . S
N1347 C1345 1.384 . S
H1348 C1354 0.930 . S
H1349 C1358 0.930 . S
H1350 C1363 0.929 . S
H1351 C1361 0.929 . S
H1352 C1356 0.929 . S
H1353 C1362 0.929 . S
C1354 H1348 0.930 . S
C1354 C1355 1.367 . S
C1354 C1362 1.378 . S
C1355 C1354 1.367 . S
C1355 C1363 1.433 . S
C1356 H1352 0.929 . S
C1356 C1358 1.378 . S
C1356 C1360 1.350 . S
C1357 C1360 1.463 . S
C1357 C1362 1.350 . S
C1357 N1365 1.427 . S
C1358 H1349 0.930 . S
C1358 C1356 1.378 . S
C1358 C1359 1.367 . S
C1359 C1358 1.367 . S
C1359 C1361 1.433 . S
C1360 C1356 1.350 . S
C1360 C1357 1.463 . S
C1360 N1364 1.427 . S
C1361 H1351 0.929 . S
C1361 C1359 1.433 . S
C1361 N1364 1.384 . S
C1362 H1353 0.929 . S
C1362 C1354 1.378 . S
C1362 C1357 1.350 . S
C1363 H1350 0.929 . S
C1363 C1355 1.433 . S
C1363 N1365 1.384 . S
N1364 C1360 1.427 . S
N1364 C1361 1.384 . S
N1365 C1357 1.427 . S
N1365 C1363 1.384 . S
H1366 C1372 0.930 . S
H1367 C1376 0.930 . S
H1368 C1381 0.929 . S
H1369 C1379 0.929 . S
H1370 C1374 0.930 . S
H1371 C1380 0.929 . S
C1372 H1366 0.930 . S
C1372 C1373 1.367 . S
C1372 C1380 1.378 . S
C1373 C1372 1.367 . S
C1373 C1381 1.433 . S
C1374 H1370 0.930 . S
C1374 C1376 1.380 . S
C1374 C1378 1.346 1_554 S
C1375 C1378 1.463 . S
C1375 C1380 1.350 . S
C1375 N1383 1.427 . S
C1376 H1367 0.930 . S
C1376 C1374 1.380 . S
C1376 C1377 1.370 . S
C1377 C1376 1.370 . S
C1377 C1379 1.426 1_554 S
C1378 C1374 1.346 1_556 S
C1378 C1375 1.463 . S
C1378 N1382 1.427 . S
C1379 H1369 0.929 . S
C1379 C1377 1.426 1_556 S
C1379 N1382 1.384 . S
C1380 H1371 0.929 . S
C1380 C1372 1.378 . S
C1380 C1375 1.350 . S
C1381 H1368 0.929 . S
C1381 C1373 1.433 . S
C1381 N1383 1.384 . S
N1382 C1378 1.427 . S
N1382 C1379 1.384 . S
N1383 C1375 1.427 . S
N1383 C1381 1.384 . S
H1384 C1390 0.930 . S
H1385 C1394 0.930 . S
H1386 C1399 0.929 . S
H1387 C1397 0.929 . S
H1388 C1392 0.929 . S
H1389 C1398 0.929 . S
C1390 H1384 0.930 . S
C1390 C1391 1.367 . S
C1390 C1398 1.378 . S
C1391 C1390 1.367 . S
C1391 C1399 1.433 . S
C1392 H1388 0.929 . S
C1392 C1394 1.378 . S
C1392 C1396 1.350 . S
C1393 C1396 1.463 . S
C1393 C1398 1.350 . S
C1393 N1401 1.427 . S
C1394 H1385 0.930 . S
C1394 C1392 1.378 . S
C1394 C1395 1.367 . S
C1395 C1394 1.367 . S
C1395 C1397 1.433 . S
C1396 C1392 1.350 . S
C1396 C1393 1.463 . S
C1396 N1400 1.427 . S
C1397 H1387 0.929 . S
C1397 C1395 1.433 . S
C1397 N1400 1.384 . S
C1398 H1389 0.929 . S
C1398 C1390 1.378 . S
C1398 C1393 1.350 . S
C1399 H1386 0.929 . S
C1399 C1391 1.433 . S
C1399 N1401 1.384 . S
N1400 C1396 1.427 . S
N1400 C1397 1.384 . S
N1401 C1393 1.427 . S
N1401 C1399 1.384 . S
H1402 C1408 0.930 . S
H1403 C1412 0.930 . S
H1404 C1417 0.929 . S
H1405 C1415 0.929 . S
H1406 C1410 0.929 . S
H1407 C1416 0.929 . S
C1408 H1402 0.930 . S
C1408 C1409 1.367 . S
C1408 C1416 1.378 . S
C1409 C1408 1.367 . S
C1409 C1417 1.433 . S
C1410 H1406 0.929 . S
C1410 C1412 1.378 . S
C1410 C1414 1.350 . S
C1411 C1414 1.463 . S
C1411 C1416 1.350 . S
C1411 N1419 1.427 . S
C1412 H1403 0.930 . S
C1412 C1410 1.378 . S
C1412 C1413 1.367 . S
C1413 C1412 1.367 . S
C1413 C1415 1.433 . S
C1414 C1410 1.350 . S
C1414 C1411 1.463 . S
C1414 N1418 1.427 . S
C1415 H1405 0.929 . S
C1415 C1413 1.433 . S
C1415 N1418 1.384 . S
C1416 H1407 0.929 . S
C1416 C1408 1.378 . S
C1416 C1411 1.350 . S
C1417 H1404 0.929 . S
C1417 C1409 1.433 . S
C1417 N1419 1.384 . S
N1418 C1414 1.427 . S
N1418 C1415 1.384 . S
N1419 C1411 1.427 . S
N1419 C1417 1.384 . S
H1420 C1426 0.930 . S
H1421 C1430 0.930 . S
H1422 C1435 0.929 . S
H1423 C1433 0.929 . S
H1424 C1428 0.929 . S
H1425 C1434 0.929 . S
C1426 H1420 0.930 . S
C1426 C1427 1.367 . S
C1426 C1434 1.378 . S
C1427 C1426 1.367 . S
C1427 C1435 1.433 . S
C1428 H1424 0.929 . S
C1428 C1430 1.378 . S
C1428 C1432 1.350 . S
C1429 C1432 1.463 . S
C1429 C1434 1.350 . S
C1429 N1437 1.427 . S
C1430 H1421 0.930 . S
C1430 C1428 1.378 . S
C1430 C1431 1.369 . S
C1431 C1430 1.369 . S
C1431 C1433 1.435 . S
C1432 C1428 1.350 . S
C1432 C1429 1.463 . S
C1432 N1436 1.427 . S
C1433 H1423 0.929 . S
C1433 C1431 1.435 . S
C1433 N1436 1.384 . S
C1434 H1425 0.929 . S
C1434 C1426 1.378 . S
C1434 C1429 1.350 . S
C1435 H1422 0.929 . S
C1435 C1427 1.433 . S
C1435 N1437 1.384 . S
N1436 C1432 1.427 . S
N1436 C1433 1.384 . S
N1437 C1429 1.427 . S
N1437 C1435 1.384 . S
H1438 C1444 0.930 . S
H1439 C1448 0.930 . S
H1440 C1453 0.929 . S
H1441 C1451 0.929 . S
H1442 C1446 0.929 . S
H1443 C1452 0.929 . S
C1444 H1438 0.930 . S
C1444 C1445 1.367 . S
C1444 C1452 1.378 . S
C1445 C1444 1.367 . S
C1445 C1453 1.433 . S
C1446 H1442 0.929 . S
C1446 C1448 1.378 . S
C1446 C1450 1.350 . S
C1447 C1450 1.463 . S
C1447 C1452 1.350 . S
C1447 N1455 1.427 . S
C1448 H1439 0.930 . S
C1448 C1446 1.378 . S
C1448 C1449 1.367 . S
C1449 C1448 1.367 . S
C1449 C1451 1.433 . S
C1450 C1446 1.350 . S
C1450 C1447 1.463 . S
C1450 N1454 1.427 . S
C1451 H1441 0.929 . S
C1451 C1449 1.433 . S
C1451 N1454 1.384 . S
C1452 H1443 0.929 . S
C1452 C1444 1.378 . S
C1452 C1447 1.350 . S
C1453 H1440 0.929 . S
C1453 C1445 1.433 . S
C1453 N1455 1.384 . S
N1454 C1450 1.427 . S
N1454 C1451 1.384 . S
N1455 C1447 1.427 . S
N1455 C1453 1.384 . S
H1456 C1462 0.930 . S
H1457 C1466 0.930 . S
H1458 C1471 0.929 . S
H1459 C1469 0.929 . S
H1460 C1464 0.929 . S
H1461 C1470 0.929 . S
C1462 H1456 0.930 . S
C1462 C1463 1.367 . S
C1462 C1470 1.378 . S
C1463 C1462 1.367 . S
C1463 C1471 1.433 1_556 S
C1464 H1460 0.929 . S
C1464 C1466 1.378 . S
C1464 C1468 1.350 . S
C1465 C1468 1.463 . S
C1465 C1470 1.350 . S
C1465 N1473 1.427 1_556 S
C1466 H1457 0.930 . S
C1466 C1464 1.378 . S
C1466 C1467 1.367 . S
C1467 C1466 1.367 . S
C1467 C1469 1.433 . S
C1468 C1464 1.350 . S
C1468 C1465 1.463 . S
C1468 N1472 1.427 . S
C1469 H1459 0.929 . S
C1469 C1467 1.433 . S
C1469 N1472 1.384 . S
C1470 H1461 0.929 . S
C1470 C1462 1.378 . S
C1470 C1465 1.350 . S
C1471 H1458 0.929 . S
C1471 C1463 1.433 1_554 S
C1471 N1473 1.384 . S
N1472 C1468 1.427 . S
N1472 C1469 1.384 . S
N1473 C1465 1.427 1_554 S
N1473 C1471 1.384 . S
H1474 C1480 0.930 . S
H1475 C1484 0.930 . S
H1476 C1489 0.929 . S
H1477 C1487 0.929 . S
H1478 C1482 0.929 . S
H1479 C1488 0.929 . S
C1480 H1474 0.930 . S
C1480 C1481 1.367 . S
C1480 C1488 1.378 . S
C1481 C1480 1.367 . S
C1481 C1489 1.433 . S
C1482 H1478 0.929 . S
C1482 C1484 1.378 . S
C1482 C1486 1.350 . S
C1483 C1486 1.463 . S
C1483 C1488 1.350 . S
C1483 N1491 1.427 . S
C1484 H1475 0.930 . S
C1484 C1482 1.378 . S
C1484 C1485 1.367 . S
C1485 C1484 1.367 . S
C1485 C1487 1.433 . S
C1486 C1482 1.350 . S
C1486 C1483 1.463 . S
C1486 N1490 1.427 . S
C1487 H1477 0.929 . S
C1487 C1485 1.433 . S
C1487 N1490 1.384 . S
C1488 H1479 0.929 . S
C1488 C1480 1.378 . S
C1488 C1483 1.350 . S
C1489 H1476 0.929 . S
C1489 C1481 1.433 . S
C1489 N1491 1.384 . S
N1490 C1486 1.427 . S
N1490 C1487 1.384 . S
N1491 C1483 1.427 . S
N1491 C1489 1.384 . S
H1492 C1498 0.930 . S
H1493 C1502 0.930 . S
H1494 C1507 0.929 . S
H1495 C1505 0.929 . S
H1496 C1500 0.929 . S
H1497 C1506 0.929 . S
C1498 H1492 0.930 . S
C1498 C1499 1.367 . S
C1498 C1506 1.378 . S
C1499 C1498 1.367 . S
C1499 C1507 1.433 . S
C1500 H1496 0.929 . S
C1500 C1502 1.378 . S
C1500 C1504 1.350 . S
C1501 C1504 1.463 . S
C1501 C1506 1.350 . S
C1501 N1509 1.427 . S
C1502 H1493 0.930 . S
C1502 C1500 1.378 . S
C1502 C1503 1.367 . S
C1503 C1502 1.367 . S
C1503 C1505 1.433 . S
C1504 C1500 1.350 . S
C1504 C1501 1.463 . S
C1504 N1508 1.427 . S
C1505 H1495 0.929 . S
C1505 C1503 1.433 . S
C1505 N1508 1.384 . S
C1506 H1497 0.929 . S
C1506 C1498 1.378 . S
C1506 C1501 1.350 . S
C1507 H1494 0.929 . S
C1507 C1499 1.433 . S
C1507 N1509 1.384 . S
N1508 C1504 1.427 . S
N1508 C1505 1.384 . S
N1509 C1501 1.427 . S
N1509 C1507 1.384 . S
H1510 C1516 0.930 . S
H1511 C1520 0.930 . S
H1512 C1525 0.929 . S
H1513 C1523 0.929 . S
H1514 C1518 0.929 . S
H1515 C1524 0.929 . S
C1516 H1510 0.930 . S
C1516 C1517 1.367 . S
C1516 C1524 1.378 . S
C1517 C1516 1.367 . S
C1517 C1525 1.433 . S
C1518 H1514 0.929 . S
C1518 C1520 1.378 . S
C1518 C1522 1.350 . S
C1519 C1522 1.463 . S
C1519 C1524 1.350 . S
C1519 N1527 1.427 . S
C1520 H1511 0.930 . S
C1520 C1518 1.378 . S
C1520 C1521 1.367 . S
C1521 C1520 1.367 . S
C1521 C1523 1.433 . S
C1522 C1518 1.350 . S
C1522 C1519 1.463 . S
C1522 N1526 1.427 . S
C1523 H1513 0.929 . S
C1523 C1521 1.433 . S
C1523 N1526 1.384 . S
C1524 H1515 0.929 . S
C1524 C1516 1.378 . S
C1524 C1519 1.350 . S
C1525 H1512 0.929 . S
C1525 C1517 1.433 . S
C1525 N1527 1.384 . S
N1526 C1522 1.427 . S
N1526 C1523 1.384 . S
N1527 C1519 1.427 . S
N1527 C1525 1.384 . S
H1528 C1534 0.930 . S
H1529 C1538 0.930 . S
H1530 C1543 0.929 . S
H1531 C1541 0.929 . S
H1532 C1536 0.929 . S
H1533 C1542 0.929 . S
C1534 H1528 0.930 . S
C1534 C1535 1.367 . S
C1534 C1542 1.378 . S
C1535 C1534 1.367 . S
C1535 C1543 1.433 . S
C1536 H1532 0.929 . S
C1536 C1538 1.378 . S
C1536 C1540 1.350 . S
C1537 C1540 1.463 . S
C1537 C1542 1.350 . S
C1537 N1545 1.427 . S
C1538 H1529 0.930 . S
C1538 C1536 1.378 . S
C1538 C1539 1.367 . S
C1539 C1538 1.367 . S
C1539 C1541 1.433 . S
C1540 C1536 1.350 . S
C1540 C1537 1.463 . S
C1540 N1544 1.427 . S
C1541 H1531 0.929 . S
C1541 C1539 1.433 . S
C1541 N1544 1.384 . S
C1542 H1533 0.929 . S
C1542 C1534 1.378 . S
C1542 C1537 1.350 . S
C1543 H1530 0.929 . S
C1543 C1535 1.433 . S
C1543 N1545 1.384 . S
N1544 C1540 1.427 . S
N1544 C1541 1.384 . S
N1545 C1537 1.427 . S
N1545 C1543 1.384 . S
H1546 C1552 0.930 . S
H1547 C1556 0.930 . S
H1548 C1561 0.929 . S
H1549 C1559 0.929 . S
H1550 C1554 0.929 . S
H1551 C1560 0.929 . S
C1552 H1546 0.930 . S
C1552 C1553 1.367 . S
C1552 C1560 1.378 . S
C1553 C1552 1.367 . S
C1553 C1561 1.433 . S
C1554 H1550 0.929 . S
C1554 C1556 1.378 . S
C1554 C1558 1.350 . S
C1555 C1558 1.463 . S
C1555 C1560 1.350 . S
C1555 N1563 1.427 . S
C1556 H1547 0.930 . S
C1556 C1554 1.378 . S
C1556 C1557 1.367 . S
C1557 C1556 1.367 . S
C1557 C1559 1.433 . S
C1558 C1554 1.350 . S
C1558 C1555 1.463 . S
C1558 N1562 1.427 . S
C1559 H1549 0.929 . S
C1559 C1557 1.433 . S
C1559 N1562 1.384 . S
C1560 H1551 0.929 . S
C1560 C1552 1.378 . S
C1560 C1555 1.350 . S
C1561 H1548 0.929 . S
C1561 C1553 1.433 . S
C1561 N1563 1.384 . S
N1562 C1558 1.427 . S
N1562 C1559 1.384 . S
N1563 C1555 1.427 . S
N1563 C1561 1.384 . S
H1564 C1570 0.930 . S
H1565 C1574 0.930 . S
H1566 C1579 0.929 . S
H1567 C1577 0.929 . S
H1568 C1572 0.929 . S
H1569 C1578 0.929 . S
C1570 H1564 0.930 . S
C1570 C1571 1.367 . S
C1570 C1578 1.378 . S
C1571 C1570 1.367 . S
C1571 C1579 1.433 . S
C1572 H1568 0.929 . S
C1572 C1574 1.378 . S
C1572 C1576 1.350 . S
C1573 C1576 1.463 . S
C1573 C1578 1.350 . S
C1573 N1581 1.427 . S
C1574 H1565 0.930 . S
C1574 C1572 1.378 . S
C1574 C1575 1.367 . S
C1575 C1574 1.367 . S
C1575 C1577 1.433 . S
C1576 C1572 1.350 . S
C1576 C1573 1.463 . S
C1576 N1580 1.427 . S
C1577 H1567 0.929 . S
C1577 C1575 1.433 . S
C1577 N1580 1.384 . S
C1578 H1569 0.929 . S
C1578 C1570 1.378 . S
C1578 C1573 1.350 . S
C1579 H1566 0.929 . S
C1579 C1571 1.433 . S
C1579 N1581 1.384 . S
N1580 C1576 1.427 . S
N1580 C1577 1.384 . S
N1581 C1573 1.427 . S
N1581 C1579 1.384 . S
H1582 C1588 0.930 . S
H1583 C1592 0.930 . S
H1584 C1597 0.929 . S
H1585 C1595 0.929 . S
H1586 C1590 0.929 . S
H1587 C1596 0.929 . S
C1588 H1582 0.930 . S
C1588 C1589 1.367 . S
C1588 C1596 1.378 . S
C1589 C1588 1.367 . S
C1589 C1597 1.433 . S
C1590 H1586 0.929 . S
C1590 C1592 1.378 . S
C1590 C1594 1.350 1_554 S
C1591 C1594 1.463 . S
C1591 C1596 1.350 . S
C1591 N1599 1.427 . S
C1592 H1583 0.930 . S
C1592 C1590 1.378 . S
C1592 C1593 1.371 . S
C1593 C1592 1.371 . S
C1593 C1595 1.426 1_554 S
C1594 C1590 1.350 1_556 S
C1594 C1591 1.463 . S
C1594 N1598 1.427 . S
C1595 H1585 0.929 . S
C1595 C1593 1.426 1_556 S
C1595 N1598 1.384 . S
C1596 H1587 0.929 . S
C1596 C1588 1.378 . S
C1596 C1591 1.350 . S
C1597 H1584 0.929 . S
C1597 C1589 1.433 . S
C1597 N1599 1.384 . S
N1598 C1594 1.427 . S
N1598 C1595 1.384 . S
N1599 C1591 1.427 . S
N1599 C1597 1.384 . S
C455 C124 1.984 . S
C459 C1 1.984 . S
C473 C14 1.994 . S
C477 C363 1.994 . S
C491 C40 1.992 . S
C495 C153 1.992 . S
C509 C54 1.992 . S
C513 C391 1.992 . S
C527 C68 1.998 . S
C531 C180 1.995 . S
C545 C418 1.993 . S
C549 C83 1.993 . S
C563 C209 1.987 . S
C567 C85 1.984 . S
C581 C435 1.999 . S
C585 C98 1.999 . S
C599 C238 1.993 . S
C603 C139 1.993 . S
C617 C166 1.994 . S
C621 C279 1.994 . S
C635 C194 1.984 . S
C639 C306 1.988 . S
C653 C323 1.991 . S
C657 C210 1.991 . S
C671 C337 1.997 . S
C675 C224 1.997 . S
C689 C265 1.986 . S
C693 C365 1.990 . S
C707 C280 1.990 . S
C711 C404 1.987 . S
C725 C432 1.994 . S
C729 C321 1.994 . S
C743 C12 1.885 . S
C747 C57 1.861 . S
C761 C70 1.862 . S
C765 C27 1.861 . S
C779 C96 1.863 . S
C783 C29 1.861 . S
C797 C43 1.862 . S
C801 C111 1.861 . S
C815 C113 1.859 . S
C819 C169 1.858 . S
C833 C126 1.861 . S
C837 C183 1.862 . S
C851 C196 1.881 . S
C855 C140 1.857 . S
C869 C223 1.859 . S
C873 C155 1.860 . S
C887 C293 1.857 . S
C891 C237 1.858 . S
C905 C295 1.858 . S
C909 C251 1.858 . S
C923 C252 1.884 . S
C927 C308 1.860 . S
C941 C334 1.860 . S
C945 C266 1.859 . S
C959 C393 1.885 . S
C963 C348 1.858 . S
C977 C350 1.858 . S
C981 C407 1.860 . S
C995 C421 1.859 . S
C999 C376 1.857 . S
C1013 C446 1.858 . S
C1017 C378 1.859 . S
C1031 C56 0.561 . S
C1035 C13 0.563 . S
C1049 C71 0.571 . S
C1053 C26 0.572 . S
C1067 C28 0.573 . S
C1071 C97 0.572 . S
C1085 C110 0.562 . S
C1089 C42 0.565 . S
C1103 C168 0.570 . S
C1107 C112 0.572 . S
C1121 C127 0.571 . S
C1125 C182 0.569 . S
C1139 C197 0.566 . S
C1143 C141 0.563 . S
C1157 C222 0.571 . S
C1161 C154 0.568 . S
C1175 C236 0.572 . S
C1179 C292 0.570 . S
C1193 C294 0.568 . S
C1197 C250 0.571 . S
C1211 C309 0.563 . S
C1215 C253 0.566 . S
C1229 C335 0.568 . S
C1233 C267 0.565 . S
C1247 C392 0.571 . S
C1251 C349 0.572 . S
C1265 C351 0.565 . S
C1269 C406 0.563 . S
C1283 C377 0.570 . S
C1287 C420 0.573 . S
C1301 C379 0.571 . S
C1305 C447 0.572 . S
C1319 C0 2.043 . S
C1323 C307 2.047 . S
C1337 C320 2.043 . S
C1341 C15 2.046 . S
C1355 C41 2.044 . S
C1359 C322 2.044 . S
C1373 C55 2.045 . S
C1377 C281 2.050 . S
C1391 C278 2.043 . S
C1395 C69 2.045 . S
C1409 C225 2.043 . S
C1413 C82 2.051 . S
C1427 C239 2.041 . S
C1431 C84 2.046 1_556 S
C1445 C99 2.041 . S
C1449 C264 2.047 . S
C1463 C125 2.045 1_556 S
C1467 C419 2.044 . S
C1481 C433 2.051 . S
C1485 C138 2.042 . S
C1499 C434 2.045 . S
C1503 C152 2.048 . S
C1517 C405 2.050 . S
C1521 C167 2.047 . S
C1535 C390 2.041 . S
C1539 C181 2.046 . S
C1553 C336 2.049 . S
C1557 C195 2.044 . S
C1571 C208 2.048 . S
C1575 C362 2.041 . S
C1589 C211 2.048 . S
C1593 C364 2.050 . S
