# Generated by pormake.
# Topology snw, (6)-cn, num edge types: 1
# Building blocks:
#     Node 0, Type 0, BuildingBlock: IZENUY_clean_sbu_0, # of connection points: 6
#     Node 1, Type 0, BuildingBlock: IZENUY_clean_sbu_0, # of connection points: 6
#     Node 2, Type 0, BuildingBlock: IZENUY_clean_sbu_0, # of connection points: 6
#     Node 3, Type 0, BuildingBlock: IZENUY_clean_sbu_0, # of connection points: 6
#     Node 4, Type 0, BuildingBlock: IZENUY_clean_sbu_0, # of connection points: 6
#     Node 5, Type 0, BuildingBlock: IZENUY_clean_sbu_0, # of connection points: 6
#     Node 6, Type 0, BuildingBlock: IZENUY_clean_sbu_0, # of connection points: 6
#     Node 7, Type 0, BuildingBlock: IZENUY_clean_sbu_0, # of connection points: 6
#     Edge 8, Type (0, 0), BuildingBlock: AJUNOK_clean_linker_0, # of connection points: 2
#     Edge 9, Type (0, 0), BuildingBlock: AJUNOK_clean_linker_0, # of connection points: 2
#     Edge 10, Type (0, 0), BuildingBlock: AJUNOK_clean_linker_0, # of connection points: 2
#     Edge 11, Type (0, 0), BuildingBlock: AJUNOK_clean_linker_0, # of connection points: 2
#     Edge 12, Type (0, 0), BuildingBlock: AJUNOK_clean_linker_0, # of connection points: 2
#     Edge 13, Type (0, 0), BuildingBlock: AJUNOK_clean_linker_0, # of connection points: 2
#     Edge 14, Type (0, 0), BuildingBlock: AJUNOK_clean_linker_0, # of connection points: 2
#     Edge 15, Type (0, 0), BuildingBlock: AJUNOK_clean_linker_0, # of connection points: 2
#     Edge 16, Type (0, 0), BuildingBlock: AJUNOK_clean_linker_0, # of connection points: 2
#     Edge 17, Type (0, 0), BuildingBlock: AJUNOK_clean_linker_0, # of connection points: 2
#     Edge 18, Type (0, 0), BuildingBlock: AJUNOK_clean_linker_0, # of connection points: 2
#     Edge 19, Type (0, 0), BuildingBlock: AJUNOK_clean_linker_0, # of connection points: 2
#     Edge 20, Type (0, 0), BuildingBlock: AJUNOK_clean_linker_0, # of connection points: 2
#     Edge 21, Type (0, 0), BuildingBlock: AJUNOK_clean_linker_0, # of connection points: 2
#     Edge 22, Type (0, 0), BuildingBlock: AJUNOK_clean_linker_0, # of connection points: 2
#     Edge 23, Type (0, 0), BuildingBlock: AJUNOK_clean_linker_0, # of connection points: 2
#     Edge 24, Type (0, 0), BuildingBlock: AJUNOK_clean_linker_0, # of connection points: 2
#     Edge 25, Type (0, 0), BuildingBlock: AJUNOK_clean_linker_0, # of connection points: 2
#     Edge 26, Type (0, 0), BuildingBlock: AJUNOK_clean_linker_0, # of connection points: 2
#     Edge 27, Type (0, 0), BuildingBlock: AJUNOK_clean_linker_0, # of connection points: 2
#     Edge 28, Type (0, 0), BuildingBlock: AJUNOK_clean_linker_0, # of connection points: 2
#     Edge 29, Type (0, 0), BuildingBlock: AJUNOK_clean_linker_0, # of connection points: 2
#     Edge 30, Type (0, 0), BuildingBlock: AJUNOK_clean_linker_0, # of connection points: 2
#     Edge 31, Type (0, 0), BuildingBlock: AJUNOK_clean_linker_0, # of connection points: 2
# Relax obj value: 0.015
# Max RMSD: 0.047
# Mean RMSD: 0.047
data_MOF--net-snw--node1-IZENUY_clean_sbu_0--edge1-AJUNOK_clean_linker_0
_symmetry_space_group_name_H-M    P1
_symmetry_Int_Tables_number       1
_symmetry_cell_setting            triclinic
loop_
_symmetry_equiv_pos_as_xyz
'x, y, z'
_cell_length_a     15.24927
_cell_length_b     15.242598
_cell_length_c     54.495499
_cell_angle_alpha  90.116407
_cell_angle_beta   89.966553
_cell_angle_gamma 90.007726
loop_
_atom_site_label
_atom_site_type_symbol
_atom_site_fract_x
_atom_site_fract_y
_atom_site_fract_z
_atom_type_partial_charge
Fe0 Fe 0.03082 0.27225 0.15144 0.0
Fe1 Fe 0.12966 0.27266 0.10233 0.0
O2 O 0.02978 0.27079 0.11887 0.0
Fe3 Fe 0.92902 0.26747 0.10277 0.0
O4 O 0.89385 0.3703 0.11656 0.0
O5 O 0.92936 0.3355 0.15439 0.0
O6 O 0.0894 0.37562 0.15235 0.0
C7 C 0.16202 0.38883 0.14199 0.0
C8 C 0.89844 0.15548 0.14361 0.0
O9 O 0.18883 0.33859 0.12507 0.0
C10 C 0.02599 0.15341 0.07497 0.0
O11 O 0.13247 0.2092 0.15419 0.0
O12 O 0.16506 0.17063 0.11639 0.0
O13 O 0.87125 0.20271 0.12609 0.0
O14 O 0.97233 0.1691 0.15319 0.0
C15 C 0.03151 0.3854 0.07464 0.0
O16 O 0.08907 0.20702 0.07654 0.0
O17 O 0.9578 0.16434 0.0878 0.0
C18 C 0.17042 0.15814 0.13924 0.0
O19 O 0.10033 0.37481 0.08719 0.0
O20 O 0.96826 0.33202 0.07658 0.0
C21 C 0.89002 0.38486 0.13935 0.0
Fe22 Fe 0.02704 0.86968 0.35357 0.0
Fe23 Fe 0.02473 0.76687 0.40183 0.0
O24 O 0.02681 0.76821 0.36931 0.0
Fe25 Fe 0.02868 0.66807 0.35283 0.0
O26 O 0.13084 0.69644 0.33782 0.0
O27 O 0.09512 0.83122 0.3278 0.0
O28 O 0.12803 0.90403 0.36861 0.0
C29 C 0.13688 0.90954 0.39159 0.0
C30 C 0.91432 0.77508 0.32453 0.0
O31 O 0.08457 0.86981 0.40567 0.0
C32 C 0.91403 0.62531 0.38945 0.0
O33 O 0.95822 0.92609 0.37646 0.0
O34 O 0.92036 0.82273 0.40253 0.0
O35 O 0.96336 0.70849 0.32683 0.0
O36 O 0.9266 0.84262 0.3375 0.0
C37 C 0.14366 0.63806 0.3931 0.0
O38 O 0.96451 0.66349 0.4044 0.0
O39 O 0.92612 0.63248 0.36665 0.0
C40 C 0.90748 0.89689 0.39303 0.0
O41 O 0.129 0.71119 0.40307 0.0
O42 O 0.09497 0.60994 0.37589 0.0
C43 C 0.14427 0.76474 0.32534 0.0
Fe44 Fe 0.63097 0.77646 0.60313 0.0
Fe45 Fe 0.42927 0.76528 0.60372 0.0
O46 O 0.53063 0.77157 0.61948 0.0
Fe47 Fe 0.5316 0.77321 0.652 0.0
O48 O 0.63098 0.83819 0.65479 0.0
O49 O 0.65986 0.88064 0.61735 0.0
O50 O 0.58677 0.83994 0.57735 0.0
C51 C 0.51704 0.8842 0.57488 0.0
C52 C 0.66761 0.66135 0.64284 0.0
O53 O 0.4498 0.86725 0.58753 0.0
C54 C 0.39738 0.65297 0.64172 0.0
O55 O 0.60947 0.67316 0.58759 0.0
O56 O 0.47185 0.69967 0.57804 0.0
O57 O 0.59373 0.67109 0.65304 0.0
O58 O 0.69293 0.71335 0.62611 0.0
C59 C 0.39559 0.88489 0.64261 0.0
O60 O 0.40141 0.66241 0.61874 0.0
O61 O 0.43226 0.70864 0.65573 0.0
C62 C 0.5416 0.65556 0.57527 0.0
O63 O 0.36865 0.83046 0.62664 0.0
O64 O 0.46975 0.87551 0.65262 0.0
C65 C 0.6643 0.89276 0.64022 0.0
Fe66 Fe 0.52908 0.36853 0.85295 0.0
Fe67 Fe 0.53233 0.26787 0.9018 0.0
O68 O 0.53033 0.26769 0.86915 0.0
Fe69 Fe 0.52966 0.16663 0.85305 0.0
O70 O 0.59547 0.20623 0.82712 0.0
O71 O 0.6293 0.34235 0.83652 0.0
O72 O 0.59863 0.42628 0.87538 0.0
C73 C 0.65035 0.39776 0.89178 0.0
C74 C 0.41376 0.26 0.82492 0.0
O75 O 0.63647 0.32533 0.90231 0.0
C76 C 0.41267 0.13833 0.89283 0.0
O77 O 0.42839 0.40256 0.86816 0.0
O78 O 0.47231 0.37018 0.90526 0.0
O79 O 0.42809 0.19252 0.83758 0.0
O80 O 0.46028 0.32834 0.82753 0.0
C81 C 0.64369 0.12709 0.89006 0.0
O82 O 0.42823 0.21047 0.90339 0.0
O83 O 0.4626 0.10935 0.87604 0.0
C84 C 0.41881 0.40741 0.89112 0.0
O85 O 0.59279 0.16549 0.90479 0.0
O86 O 0.63183 0.1328 0.86724 0.0
C87 C 0.64326 0.2734 0.82431 0.0
Fe88 Fe 0.13053 0.77078 0.97018 0.0
Fe89 Fe 0.9289 0.76735 0.96956 0.0
O90 O 0.03044 0.76847 0.9537 0.0
Fe91 Fe 0.03188 0.76745 0.9211 0.0
O92 O 0.13507 0.70821 0.91832 0.0
O93 O 0.167 0.66936 0.95591 0.0
O94 O 0.0908 0.70381 0.99594 0.0
C95 C 0.02424 0.65481 0.99835 0.0
C96 C 0.15998 0.88803 0.93045 0.0
O97 O 0.9566 0.667 0.9855 0.0
C98 C 0.89064 0.87898 0.93175 0.0
O99 O 0.10134 0.87183 0.98562 0.0
O100 O 0.96648 0.83557 0.99543 0.0
O101 O 0.08775 0.87231 0.92004 0.0
O102 O 0.18827 0.83906 0.94749 0.0
C103 C 0.90262 0.64796 0.92998 0.0
O104 O 0.89397 0.86819 0.95469 0.0
O105 O 0.92911 0.82645 0.91751 0.0
C106 C 0.03305 0.88437 0.99818 0.0
O107 O 0.87304 0.69797 0.94669 0.0
O108 O 0.97588 0.66262 0.92001 0.0
C109 C 0.1734 0.65755 0.93307 0.0
Fe110 Fe 0.53202 0.67006 0.22003 0.0
Fe111 Fe 0.52489 0.87114 0.22089 0.0
O112 O 0.5294 0.77141 0.20423 0.0
Fe113 Fe 0.53133 0.77288 0.17171 0.0
O114 O 0.47076 0.6704 0.16814 0.0
O115 O 0.43055 0.63427 0.20542 0.0
O116 O 0.46535 0.70778 0.24601 0.0
C117 C 0.41252 0.77127 0.24834 0.0
C118 C 0.64891 0.64222 0.1801 0.0
O119 O 0.42249 0.84006 0.23574 0.0
C120 C 0.64127 0.91468 0.18456 0.0
O121 O 0.63342 0.69944 0.23566 0.0
O122 O 0.59009 0.83101 0.2468 0.0
O123 O 0.63573 0.71645 0.17068 0.0
O124 O 0.59947 0.61362 0.19697 0.0
C125 C 0.41203 0.90224 0.18025 0.0
O126 O 0.62725 0.90888 0.20732 0.0
O127 O 0.59215 0.87576 0.16937 0.0
C128 C 0.6436 0.76783 0.24851 0.0
O129 O 0.45895 0.92937 0.19789 0.0
O130 O 0.4271 0.82922 0.17026 0.0
C131 C 0.41933 0.63053 0.18246 0.0
Fe132 Fe 0.62761 0.26562 0.47066 0.0
Fe133 Fe 0.42638 0.27415 0.47122 0.0
O134 O 0.52641 0.26903 0.45478 0.0
Fe135 Fe 0.52502 0.26735 0.42222 0.0
O136 O 0.62456 0.20141 0.41893 0.0
O137 O 0.65677 0.16181 0.45648 0.0
O138 O 0.58541 0.20151 0.49675 0.0
C139 C 0.51645 0.15587 0.49935 0.0
C140 C 0.66109 0.37912 0.43015 0.0
O141 O 0.4488 0.17197 0.48687 0.0
C142 C 0.39037 0.38727 0.43383 0.0
O143 O 0.60596 0.36887 0.48611 0.0
O144 O 0.47026 0.33943 0.49684 0.0
O145 O 0.58653 0.36839 0.42066 0.0
O146 O 0.68758 0.32946 0.44732 0.0
C147 C 0.39003 0.1563 0.43202 0.0
O148 O 0.39698 0.37708 0.4567 0.0
O149 O 0.42528 0.33308 0.41923 0.0
C150 C 0.53923 0.38519 0.499 0.0
O151 O 0.36456 0.20915 0.44858 0.0
O152 O 0.46332 0.16609 0.42169 0.0
C153 C 0.6615 0.1493 0.43365 0.0
Fe154 Fe 0.02741 0.16968 0.71986 0.0
Fe155 Fe 0.03291 0.37115 0.72119 0.0
O156 O 0.03014 0.27159 0.70439 0.0
Fe157 Fe 0.03029 0.27378 0.67188 0.0
O158 O 0.96624 0.17372 0.66814 0.0
O159 O 0.92406 0.14057 0.70541 0.0
O160 O 0.96341 0.21008 0.74601 0.0
C161 C 0.9149 0.27682 0.74859 0.0
C162 C 0.14404 0.13852 0.68029 0.0
O163 O 0.93011 0.34624 0.73669 0.0
C164 C 0.14737 0.40932 0.68407 0.0
O165 O 0.13027 0.19221 0.73541 0.0
O166 O 0.09789 0.32697 0.74671 0.0
O167 O 0.13336 0.21306 0.67063 0.0
O168 O 0.09122 0.11054 0.69643 0.0
C169 C 0.91705 0.40826 0.68168 0.0
O170 O 0.13598 0.40283 0.70694 0.0
O171 O 0.09422 0.37414 0.66933 0.0
C172 C 0.14529 0.25901 0.74849 0.0
O173 O 0.96849 0.43325 0.69858 0.0
O174 O 0.92745 0.33485 0.67125 0.0
C175 C 0.91278 0.13706 0.6825 0.0
C176 C 0.10374 0.50186 0.04896 0.0
C177 C 0.02768 0.4551 0.05554 0.0
C178 C 0.10197 0.56583 1.03047 0.0
C179 C 0.02404 0.58607 1.01776 0.0
H180 H 0.1656 0.48848 0.05797 0.0
H181 H 0.16259 0.59931 1.02603 0.0
S182 S 0.80536 0.48595 1.02889 0.0
N183 N 0.87109 0.4362 0.04846 0.0
N184 N 0.86794 0.55561 1.01377 0.0
C185 C 0.94719 0.54052 1.02438 0.0
C186 C 0.94895 0.47548 0.04323 0.0
C187 C 0.76035 0.69551 0.27405 0.0
C188 C 0.71356 0.7716 0.26755 0.0
C189 C 0.82472 0.69733 0.29246 0.0
C190 C 0.84535 0.77534 0.30516 0.0
H191 H 0.74665 0.63359 0.26505 0.0
H192 H 0.85818 0.63667 0.29684 0.0
S193 S 0.74517 0.9941 0.29428 0.0
N194 N 0.69496 0.9283 0.27475 0.0
N195 N 0.81511 0.93151 0.30928 0.0
C196 C 0.79972 0.8522 0.29865 0.0
C197 C 0.73428 0.8504 0.27989 0.0
C198 C 0.46496 0.55139 0.54686 0.0
C199 C 0.54406 0.58605 0.55604 0.0
C200 C 0.46434 0.48691 0.52848 0.0
C201 C 0.54278 0.45473 0.51821 0.0
H202 H 0.40257 0.5738 0.55403 0.0
H203 H 0.40152 0.46256 0.52216 0.0
S204 S 0.76803 0.5245 0.53542 0.0
N205 N 0.70332 0.58354 0.55327 0.0
N206 N 0.70221 0.46301 0.51859 0.0
C207 C 0.62253 0.48918 0.52707 0.0
C208 C 0.62317 0.55438 0.54602 0.0
C209 C 0.74742 0.35237 0.79613 0.0
C210 C 0.71252 0.27291 0.80504 0.0
C211 C 0.81155 0.35336 0.7776 0.0
C212 C 0.84442 0.27492 0.76748 0.0
H213 H 0.72459 0.41455 0.80336 0.0
H214 H 0.83641 0.41615 0.77144 0.0
S215 S 0.77535 0.04909 0.78438 0.0
N216 N 0.71609 0.11356 0.80221 0.0
N217 N 0.83634 0.1154 0.76763 0.0
C218 C 0.81015 0.195 0.77624 0.0
C219 C 0.74442 0.19401 0.79492 0.0
C220 C 0.31151 0.33607 0.7959 0.0
C221 C 0.3454 0.25738 0.80546 0.0
C222 C 0.24727 0.33568 0.77749 0.0
C223 C 0.21486 0.2566 0.7676 0.0
H224 H 0.33414 0.39875 0.80285 0.0
H225 H 0.22318 0.39817 0.77088 0.0
S226 S 0.28364 0.03217 0.78569 0.0
N227 N 0.34264 0.0978 0.80326 0.0
N228 N 0.22251 0.09722 0.76861 0.0
C229 C 0.24889 0.17732 0.77676 0.0
C230 C 0.31375 0.17767 0.79571 0.0
C231 C 0.28837 0.83983 0.27208 0.0
C232 C 0.34409 0.76765 0.26792 0.0
C233 C 0.22476 0.83848 0.29073 0.0
C234 C 0.2138 0.76485 0.30606 0.0
H235 H 0.29386 0.89824 0.2609 0.0
H236 H 0.18366 0.89586 0.29303 0.0
S237 S 0.34299 0.55831 0.30298 0.0
N238 N 0.38366 0.61984 0.28086 0.0
N239 N 0.26497 0.6177 0.31579 0.0
C240 C 0.26916 0.69216 0.30213 0.0
C241 C 0.33385 0.69343 0.28312 0.0
C242 C 0.59267 0.05453 0.52855 0.0
C243 C 0.51387 0.08632 0.51848 0.0
C244 C 0.59273 0.98941 0.54668 0.0
C245 C 0.51397 0.95375 0.55578 0.0
H246 H 0.65522 0.07964 0.52226 0.0
H247 H 0.65533 0.96735 0.55375 0.0
S248 S 0.28931 1.01359 0.53554 0.0
N249 N 0.35446 0.07637 0.51893 0.0
N250 N 0.35471 0.95465 0.55312 0.0
C251 C 0.43453 0.98496 0.54595 0.0
C252 C 0.43445 0.0508 0.52726 0.0
C253 C 0.95349 0.03634 0.04933 0.0
C254 C 0.02948 0.08334 0.05587 0.0
C255 C 0.95519 0.97257 1.03067 0.0
C256 C 0.03294 0.95292 1.01775 0.0
H257 H 0.89178 0.04947 0.05848 0.0
H258 H 0.89469 0.93878 1.02628 0.0
S259 S 0.25148 0.05376 1.02875 0.0
N260 N 0.18591 0.10281 0.04856 0.0
N261 N 0.18886 0.98415 1.01357 0.0
C262 C 0.10973 0.99867 1.02436 0.0
C263 C 0.10806 0.06333 0.04338 0.0
C264 C 0.31477 0.03294 0.1836 0.0
C265 C 0.34609 0.96229 0.16949 0.0
C266 C 0.25725 0.09479 0.17368 0.0
C267 C 0.22923 0.08935 0.14911 0.0
H268 H 0.3353 0.0411 0.2025 0.0
H269 H 0.236 0.14832 0.18536 0.0
S270 S 0.28913 0.91509 0.10448 0.0
N271 N 0.34253 0.88866 0.12977 0.0
N272 N 0.2346 1.00571 0.11107 0.0
C273 C 0.2587 0.01822 0.13483 0.0
C274 C 0.31685 0.95443 0.14504 0.0
C275 C 0.27009 1.00538 0.3878 0.0
C276 C 0.2028 0.96999 0.40244 0.0
C277 C 0.33194 0.0638 0.39764 0.0
C278 C 0.3281 0.09 0.4224 0.0
H279 H 0.27504 0.98806 0.36856 0.0
H280 H 0.38183 0.09025 0.38557 0.0
S281 S 0.16827 1.01356 0.46899 0.0
N282 N 0.13873 0.96329 0.44346 0.0
N283 N 0.2544 0.0735 0.46163 0.0
C284 C 0.26232 0.05417 0.43735 0.0
C285 C 0.19991 0.99406 0.42747 0.0
C286 C 0.18433 0.99053 0.66447 0.0
C287 C 0.20966 0.07698 0.67008 0.0
C288 C 0.24484 0.92948 0.6553 0.0
C289 C 0.33367 0.95169 0.65212 0.0
H290 H 0.11684 0.9701 0.66696 0.0
H291 H 0.22213 0.86378 0.6511 0.0
S292 S 0.43376 0.16902 0.66454 0.0
N293 N 0.32917 0.18219 0.67165 0.0
N294 N 0.44414 0.06609 0.65538 0.0
C295 C 0.36019 0.03766 0.65791 0.0
C296 C 0.29783 0.10072 0.6666 0.0
C297 C 0.27282 1.00507 0.93659 0.0
C298 C 0.21809 0.95733 0.92061 0.0
C299 C 0.33307 0.06678 0.92756 0.0
C300 C 0.34234 0.08087 0.90221 0.0
H301 H 0.26949 0.99412 0.95621 0.0
H302 H 0.37499 0.10111 0.94044 0.0
S303 S 0.21293 0.97534 0.85273 0.0
N304 N 0.17457 0.93149 0.87827 0.0
N305 N 0.29006 0.04499 0.86133 0.0
C306 C 0.28714 0.0348 0.88608 0.0
C307 C 0.2243 0.97372 0.89528 0.0
C308 C 0.76956 0.98838 0.93565 0.0
C309 C 0.83254 0.94633 0.92098 0.0
C310 C 0.7099 0.04754 0.92546 0.0
C311 C 0.71076 0.06717 0.90018 0.0
H312 H 0.7648 0.97414 0.95508 0.0
H313 H 0.66162 0.0768 0.93755 0.0
S314 S 0.8688 0.98172 0.8542 0.0
N315 N 0.89684 0.93348 0.88012 0.0
N316 N 0.78409 0.04454 0.86103 0.0
C317 C 0.77536 0.02796 0.88542 0.0
C318 C 0.83638 0.96769 0.8958 0.0
C319 C 0.8494 0.05586 0.6469 0.0
C320 C 0.84415 0.08016 0.67185 0.0
C321 C 0.78882 0.99804 0.63644 0.0
C322 C 0.72071 0.96225 0.65054 0.0
H323 H 0.90222 0.07968 0.6354 0.0
H324 H 0.79745 0.97891 0.61743 0.0
S325 S 0.67032 1.01424 0.71571 0.0
N326 N 0.76021 0.07057 0.7097 0.0
N327 N 0.64576 0.96201 0.69005 0.0
C328 C 0.71191 0.98938 0.67517 0.0
C329 C 0.7738 0.04818 0.68584 0.0
C330 C 0.80841 0.02596 0.38938 0.0
C331 C 0.84 0.95577 0.40351 0.0
C332 C 0.7493 0.08674 0.39918 0.0
C333 C 0.72013 0.08056 0.42364 0.0
H334 H 0.83004 0.03456 0.37059 0.0
H335 H 0.72802 0.14023 0.38756 0.0
S336 S 0.78028 0.90679 0.46816 0.0
N337 N 0.83544 0.88154 0.44304 0.0
N338 N 0.72459 0.99653 0.46152 0.0
C339 C 0.74972 1.00964 0.43788 0.0
C340 C 0.80941 0.947 0.42779 0.0
C341 C 0.70554 1.00138 0.15024 0.0
C342 C 0.70986 0.97433 0.17491 0.0
C343 C 0.76778 0.05846 0.14033 0.0
C344 C 0.83779 0.09037 0.15452 0.0
H345 H 0.65272 0.97946 0.13844 0.0
H346 H 0.76056 0.07801 0.12133 0.0
S347 S 0.88148 0.0371 0.21989 0.0
N348 N 0.79134 0.98198 0.21321 0.0
N349 N 0.90923 0.0892 0.19449 0.0
C350 C 0.84434 0.06253 0.1791 0.0
C351 C 0.78008 1.00478 0.18932 0.0
C352 C 0.7661 0.44859 0.66699 0.0
C353 C 0.85386 0.47225 0.67149 0.0
C354 C 0.70521 0.51053 0.6582 0.0
C355 C 0.73098 0.59716 0.6529 0.0
H356 H 0.7441 0.38235 0.67073 0.0
H357 H 0.63801 0.4902 0.65514 0.0
S358 S 0.95363 0.691 0.66104 0.0
N359 N 0.96326 0.58802 0.67 0.0
N360 N 0.8502 0.70302 0.65274 0.0
C361 C 0.81882 0.62097 0.65703 0.0
C362 C 0.87991 0.55885 0.66652 0.0
C363 C 0.7947 0.5264 0.93568 0.0
C364 C 0.84462 0.57926 0.91981 0.0
C365 C 0.73455 0.46489 0.92645 0.0
C366 C 0.72034 0.45617 0.90105 0.0
H367 H 0.80184 0.53309 0.95538 0.0
H368 H 0.69655 0.42629 0.93931 0.0
S369 S 0.83524 0.57817 0.8518 0.0
N370 N 0.87784 0.61699 0.87749 0.0
N371 N 0.76245 0.50377 0.86019 0.0
C372 C 0.77049 0.50795 0.885 0.0
C373 C 0.83333 0.56885 0.89437 0.0
C374 C 0.74757 0.51297 0.18372 0.0
C375 C 0.71519 0.58234 0.1694 0.0
C376 C 0.8049 0.45067 0.17387 0.0
C377 C 0.83155 0.45428 0.14914 0.0
H378 H 0.72792 0.50621 0.20274 0.0
H379 H 0.827 0.39813 0.18571 0.0
S380 S 0.76788 0.62449 0.10392 0.0
N381 N 0.71587 0.65275 0.12933 0.0
N382 N 0.82345 0.5348 0.1107 0.0
C383 C 0.80092 0.52415 0.13465 0.0
C384 C 0.74302 0.58846 0.14481 0.0
C385 C 0.85622 0.53111 0.42319 0.0
C386 C 0.8472 0.56397 0.39918 0.0
C387 C 0.79542 0.47208 0.43302 0.0
C388 C 0.7223 0.44418 0.41939 0.0
H389 H 0.91154 0.55007 0.43449 0.0
H390 H 0.80592 0.44824 0.4515 0.0
S391 S 0.66652 0.51317 0.35588 0.0
N392 N 0.75845 0.56582 0.36215 0.0
N393 N 0.64332 0.45534 0.38064 0.0
C394 C 0.71147 0.47765 0.39546 0.0
C395 C 0.77417 0.5372 0.38534 0.0
C396 C 0.30005 0.44687 0.39958 0.0
C397 C 0.33152 0.45544 0.42375 0.0
C398 C 0.24077 0.50721 0.38976 0.0
C399 C 0.21112 0.57926 0.40358 0.0
H400 H 0.31971 0.39189 0.38821 0.0
H401 H 0.21749 0.49674 0.3712 0.0
S402 S 0.27829 0.63522 0.46729 0.0
N403 N 0.33202 0.54393 0.46094 0.0
N404 N 0.22079 0.65813 0.44245 0.0
C405 C 0.24422 0.59045 0.42754 0.0
C406 C 0.30418 0.5283 0.43764 0.0
C407 C 0.22384 0.47602 0.17699 0.0
C408 C 0.22256 0.45593 0.15178 0.0
C409 C 0.28729 0.53286 0.18682 0.0
C410 C 0.35101 0.57243 0.17174 0.0
H411 H 0.17732 0.44547 0.18934 0.0
H412 H 0.28674 0.5452 0.2064 0.0
S413 S 0.36975 0.54653 0.10396 0.0
N414 N 0.2863 0.48355 0.11171 0.0
N415 N 0.40477 0.59068 0.12982 0.0
C416 C 0.34799 0.55499 0.14627 0.0
C417 C 0.28403 0.49667 0.1364 0.0
C418 C 0.25148 0.58946 0.89756 0.0
C419 C 0.23308 0.59004 0.92293 0.0
C420 C 0.30973 0.52884 0.88729 0.0
C421 C 0.3521 0.46633 0.90197 0.0
H422 H 0.22182 0.63721 0.88543 0.0
H423 H 0.32301 0.53249 0.86779 0.0
S424 S 0.32016 0.43401 0.96904 0.0
N425 N 0.25744 0.5187 0.96222 0.0
N426 N 0.3668 0.40425 0.94299 0.0
C427 C 0.33208 0.46405 0.92726 0.0
C428 C 0.27272 0.526 0.93772 0.0
C429 C 0.2197 0.48138 0.64832 0.0
C430 C 0.21652 0.46685 0.67387 0.0
C431 C 0.28027 0.53925 0.63795 0.0
C432 C 0.3402 0.58513 0.65269 0.0
H433 H 0.17375 0.44924 0.6361 0.0
H434 H 0.27824 0.5498 0.6183 0.0
S435 S 0.36621 0.56322 0.72029 0.0
N436 N 0.28343 0.49793 0.71344 0.0
N437 N 0.39793 0.60656 0.69402 0.0
C438 C 0.34055 0.56836 0.67817 0.0
C439 C 0.2786 0.50936 0.68874 0.0
loop_
_geom_bond_atom_site_label_1
_geom_bond_atom_site_label_2
_geom_bond_distance
_geom_bond_site_symmetry_2
_ccdc_geom_bond_type
Fe0 O2 1.918 . S
Fe0 O5 1.997 1_455 S
Fe0 O6 2.002 . S
Fe0 O11 1.976 . S
Fe0 O14 1.996 1_455 S
Fe1 O2 1.918 . S
Fe1 O9 1.997 . S
Fe1 O12 1.996 . S
Fe1 O16 1.976 . S
Fe1 O19 2.002 . S
O2 Fe0 1.918 . S
O2 Fe1 1.918 . S
O2 Fe3 1.918 1_455 S
Fe3 O2 1.918 1_655 S
Fe3 O4 2.002 . S
Fe3 O13 1.976 . S
Fe3 O17 1.996 . S
Fe3 O20 1.997 . S
O4 Fe3 2.002 . S
O4 C21 1.295 . S
O5 Fe0 1.997 1_655 S
O5 C21 1.235 . S
O6 Fe0 2.002 . S
O6 C7 1.295 . S
C7 O6 1.295 . S
C7 O9 1.235 . S
C8 O13 1.287 . S
C8 O14 1.255 . S
O9 Fe1 1.997 . S
O9 C7 1.235 . S
C10 O16 1.287 . S
C10 O17 1.255 1_455 S
O11 Fe0 1.976 . S
O11 C18 1.287 . S
O12 Fe1 1.996 . S
O12 C18 1.255 . S
O13 Fe3 1.976 . S
O13 C8 1.287 . S
O14 Fe0 1.996 1_655 S
O14 C8 1.255 . S
C15 O19 1.295 . S
C15 O20 1.235 1_455 S
O16 Fe1 1.976 . S
O16 C10 1.287 . S
O17 Fe3 1.996 . S
O17 C10 1.255 1_655 S
C18 O11 1.287 . S
C18 O12 1.255 . S
O19 Fe1 2.002 . S
O19 C15 1.295 . S
O20 Fe3 1.997 . S
O20 C15 1.235 1_655 S
C21 O4 1.295 . S
C21 O5 1.235 . S
Fe22 O24 1.918 . S
Fe22 O27 1.997 . S
Fe22 O28 2.002 . S
Fe22 O33 1.976 1_455 S
Fe22 O36 1.996 1_455 S
Fe23 O24 1.918 . S
Fe23 O31 1.997 . S
Fe23 O34 1.996 1_455 S
Fe23 O38 1.976 1_455 S
Fe23 O41 2.002 . S
O24 Fe22 1.918 . S
O24 Fe23 1.918 . S
O24 Fe25 1.918 . S
Fe25 O24 1.918 . S
Fe25 O26 2.002 . S
Fe25 O35 1.976 1_455 S
Fe25 O39 1.996 1_455 S
Fe25 O42 1.997 . S
O26 Fe25 2.002 . S
O26 C43 1.295 . S
O27 Fe22 1.997 . S
O27 C43 1.235 . S
O28 Fe22 2.002 . S
O28 C29 1.295 . S
C29 O28 1.295 . S
C29 O31 1.235 . S
C30 O35 1.287 . S
C30 O36 1.255 . S
O31 Fe23 1.997 . S
O31 C29 1.235 . S
C32 O38 1.287 . S
C32 O39 1.255 . S
O33 Fe22 1.976 1_655 S
O33 C40 1.287 . S
O34 Fe23 1.996 1_655 S
O34 C40 1.255 . S
O35 Fe25 1.976 1_655 S
O35 C30 1.287 . S
O36 Fe22 1.996 1_655 S
O36 C30 1.255 . S
C37 O41 1.295 . S
C37 O42 1.235 . S
O38 Fe23 1.976 1_655 S
O38 C32 1.287 . S
O39 Fe25 1.996 1_655 S
O39 C32 1.255 . S
C40 O33 1.287 . S
C40 O34 1.255 . S
O41 Fe23 2.002 . S
O41 C37 1.295 . S
O42 Fe25 1.997 . S
O42 C37 1.235 . S
C43 O26 1.295 . S
C43 O27 1.235 . S
Fe44 O46 1.918 . S
Fe44 O49 1.997 . S
Fe44 O50 2.002 . S
Fe44 O55 1.976 . S
Fe44 O58 1.996 . S
Fe45 O46 1.918 . S
Fe45 O53 1.997 . S
Fe45 O56 1.996 . S
Fe45 O60 1.976 . S
Fe45 O63 2.002 . S
O46 Fe44 1.918 . S
O46 Fe45 1.918 . S
O46 Fe47 1.918 . S
Fe47 O46 1.918 . S
Fe47 O48 2.002 . S
Fe47 O57 1.976 . S
Fe47 O61 1.996 . S
Fe47 O64 1.997 . S
O48 Fe47 2.002 . S
O48 C65 1.295 . S
O49 Fe44 1.997 . S
O49 C65 1.235 . S
O50 Fe44 2.002 . S
O50 C51 1.295 . S
C51 O50 1.295 . S
C51 O53 1.235 . S
C52 O57 1.287 . S
C52 O58 1.255 . S
O53 Fe45 1.997 . S
O53 C51 1.235 . S
C54 O60 1.287 . S
C54 O61 1.255 . S
O55 Fe44 1.976 . S
O55 C62 1.287 . S
O56 Fe45 1.996 . S
O56 C62 1.255 . S
O57 Fe47 1.976 . S
O57 C52 1.287 . S
O58 Fe44 1.996 . S
O58 C52 1.255 . S
C59 O63 1.295 . S
C59 O64 1.235 . S
O60 Fe45 1.976 . S
O60 C54 1.287 . S
O61 Fe47 1.996 . S
O61 C54 1.255 . S
C62 O55 1.287 . S
C62 O56 1.255 . S
O63 Fe45 2.002 . S
O63 C59 1.295 . S
O64 Fe47 1.997 . S
O64 C59 1.235 . S
C65 O48 1.295 . S
C65 O49 1.235 . S
Fe66 O68 1.918 . S
Fe66 O71 1.997 . S
Fe66 O72 2.002 . S
Fe66 O77 1.976 . S
Fe66 O80 1.996 . S
Fe67 O68 1.918 . S
Fe67 O75 1.997 . S
Fe67 O78 1.996 . S
Fe67 O82 1.976 . S
Fe67 O85 2.002 . S
O68 Fe66 1.918 . S
O68 Fe67 1.918 . S
O68 Fe69 1.918 . S
Fe69 O68 1.918 . S
Fe69 O70 2.002 . S
Fe69 O79 1.976 . S
Fe69 O83 1.996 . S
Fe69 O86 1.997 . S
O70 Fe69 2.002 . S
O70 C87 1.295 . S
O71 Fe66 1.997 . S
O71 C87 1.235 . S
O72 Fe66 2.002 . S
O72 C73 1.295 . S
C73 O72 1.295 . S
C73 O75 1.235 . S
C74 O79 1.287 . S
C74 O80 1.255 . S
O75 Fe67 1.997 . S
O75 C73 1.235 . S
C76 O82 1.287 . S
C76 O83 1.255 . S
O77 Fe66 1.976 . S
O77 C84 1.287 . S
O78 Fe67 1.996 . S
O78 C84 1.255 . S
O79 Fe69 1.976 . S
O79 C74 1.287 . S
O80 Fe66 1.996 . S
O80 C74 1.255 . S
C81 O85 1.295 . S
C81 O86 1.235 . S
O82 Fe67 1.976 . S
O82 C76 1.287 . S
O83 Fe69 1.996 . S
O83 C76 1.255 . S
C84 O77 1.287 . S
C84 O78 1.255 . S
O85 Fe67 2.002 . S
O85 C81 1.295 . S
O86 Fe69 1.997 . S
O86 C81 1.235 . S
C87 O70 1.295 . S
C87 O71 1.235 . S
Fe88 O90 1.918 . S
Fe88 O93 1.997 . S
Fe88 O94 2.002 . S
Fe88 O99 1.976 . S
Fe88 O102 1.996 . S
Fe89 O90 1.918 1_655 S
Fe89 O97 1.997 . S
Fe89 O100 1.996 . S
Fe89 O104 1.976 . S
Fe89 O107 2.002 . S
O90 Fe88 1.918 . S
O90 Fe89 1.918 1_455 S
O90 Fe91 1.918 . S
Fe91 O90 1.918 . S
Fe91 O92 2.002 . S
Fe91 O101 1.976 . S
Fe91 O105 1.996 1_455 S
Fe91 O108 1.997 1_455 S
O92 Fe91 2.002 . S
O92 C109 1.295 . S
O93 Fe88 1.997 . S
O93 C109 1.235 . S
O94 Fe88 2.002 . S
O94 C95 1.295 . S
C95 O94 1.295 . S
C95 O97 1.235 1_455 S
C96 O101 1.287 . S
C96 O102 1.255 . S
O97 Fe89 1.997 . S
O97 C95 1.235 1_655 S
C98 O104 1.287 . S
C98 O105 1.255 . S
O99 Fe88 1.976 . S
O99 C106 1.287 . S
O100 Fe89 1.996 . S
O100 C106 1.255 1_655 S
O101 Fe91 1.976 . S
O101 C96 1.287 . S
O102 Fe88 1.996 . S
O102 C96 1.255 . S
C103 O107 1.295 . S
C103 O108 1.235 . S
O104 Fe89 1.976 . S
O104 C98 1.287 . S
O105 Fe91 1.996 1_655 S
O105 C98 1.255 . S
C106 O99 1.287 . S
C106 O100 1.255 1_455 S
O107 Fe89 2.002 . S
O107 C103 1.295 . S
O108 Fe91 1.997 1_655 S
O108 C103 1.235 . S
C109 O92 1.295 . S
C109 O93 1.235 . S
Fe110 O112 1.918 . S
Fe110 O115 1.997 . S
Fe110 O116 2.002 . S
Fe110 O121 1.976 . S
Fe110 O124 1.996 . S
Fe111 O112 1.918 . S
Fe111 O119 1.997 . S
Fe111 O122 1.996 . S
Fe111 O126 1.976 . S
Fe111 O129 2.002 . S
O112 Fe110 1.918 . S
O112 Fe111 1.918 . S
O112 Fe113 1.918 . S
Fe113 O112 1.918 . S
Fe113 O114 2.002 . S
Fe113 O123 1.976 . S
Fe113 O127 1.996 . S
Fe113 O130 1.997 . S
O114 Fe113 2.002 . S
O114 C131 1.295 . S
O115 Fe110 1.997 . S
O115 C131 1.235 . S
O116 Fe110 2.002 . S
O116 C117 1.295 . S
C117 O116 1.295 . S
C117 O119 1.235 . S
C118 O123 1.287 . S
C118 O124 1.255 . S
O119 Fe111 1.997 . S
O119 C117 1.235 . S
C120 O126 1.287 . S
C120 O127 1.255 . S
O121 Fe110 1.976 . S
O121 C128 1.287 . S
O122 Fe111 1.996 . S
O122 C128 1.255 . S
O123 Fe113 1.976 . S
O123 C118 1.287 . S
O124 Fe110 1.996 . S
O124 C118 1.255 . S
C125 O129 1.295 . S
C125 O130 1.235 . S
O126 Fe111 1.976 . S
O126 C120 1.287 . S
O127 Fe113 1.996 . S
O127 C120 1.255 . S
C128 O121 1.287 . S
C128 O122 1.255 . S
O129 Fe111 2.002 . S
O129 C125 1.295 . S
O130 Fe113 1.997 . S
O130 C125 1.235 . S
C131 O114 1.295 . S
C131 O115 1.235 . S
Fe132 O134 1.918 . S
Fe132 O137 1.997 . S
Fe132 O138 2.002 . S
Fe132 O143 1.976 . S
Fe132 O146 1.996 . S
Fe133 O134 1.918 . S
Fe133 O141 1.997 . S
Fe133 O144 1.996 . S
Fe133 O148 1.976 . S
Fe133 O151 2.002 . S
O134 Fe132 1.918 . S
O134 Fe133 1.918 . S
O134 Fe135 1.918 . S
Fe135 O134 1.918 . S
Fe135 O136 2.002 . S
Fe135 O145 1.976 . S
Fe135 O149 1.996 . S
Fe135 O152 1.997 . S
O136 Fe135 2.002 . S
O136 C153 1.295 . S
O137 Fe132 1.997 . S
O137 C153 1.235 . S
O138 Fe132 2.002 . S
O138 C139 1.295 . S
C139 O138 1.295 . S
C139 O141 1.235 . S
C140 O145 1.287 . S
C140 O146 1.255 . S
O141 Fe133 1.997 . S
O141 C139 1.235 . S
C142 O148 1.287 . S
C142 O149 1.255 . S
O143 Fe132 1.976 . S
O143 C150 1.287 . S
O144 Fe133 1.996 . S
O144 C150 1.255 . S
O145 Fe135 1.976 . S
O145 C140 1.287 . S
O146 Fe132 1.996 . S
O146 C140 1.255 . S
C147 O151 1.295 . S
C147 O152 1.235 . S
O148 Fe133 1.976 . S
O148 C142 1.287 . S
O149 Fe135 1.996 . S
O149 C142 1.255 . S
C150 O143 1.287 . S
C150 O144 1.255 . S
O151 Fe133 2.002 . S
O151 C147 1.295 . S
O152 Fe135 1.997 . S
O152 C147 1.235 . S
C153 O136 1.295 . S
C153 O137 1.235 . S
Fe154 O156 1.918 . S
Fe154 O159 1.997 1_455 S
Fe154 O160 2.002 1_455 S
Fe154 O165 1.976 . S
Fe154 O168 1.996 . S
Fe155 O156 1.918 . S
Fe155 O163 1.997 1_455 S
Fe155 O166 1.996 . S
Fe155 O170 1.976 . S
Fe155 O173 2.002 1_455 S
O156 Fe154 1.918 . S
O156 Fe155 1.918 . S
O156 Fe157 1.918 . S
Fe157 O156 1.918 . S
Fe157 O158 2.002 1_455 S
Fe157 O167 1.976 . S
Fe157 O171 1.996 . S
Fe157 O174 1.997 1_455 S
O158 Fe157 2.002 1_655 S
O158 C175 1.295 . S
O159 Fe154 1.997 1_655 S
O159 C175 1.235 . S
O160 Fe154 2.002 1_655 S
O160 C161 1.295 . S
C161 O160 1.295 . S
C161 O163 1.235 . S
C162 O167 1.287 . S
C162 O168 1.255 . S
O163 Fe155 1.997 1_655 S
O163 C161 1.235 . S
C164 O170 1.287 . S
C164 O171 1.255 . S
O165 Fe154 1.976 . S
O165 C172 1.287 . S
O166 Fe155 1.996 . S
O166 C172 1.255 . S
O167 Fe157 1.976 . S
O167 C162 1.287 . S
O168 Fe154 1.996 . S
O168 C162 1.255 . S
C169 O173 1.295 . S
C169 O174 1.235 . S
O170 Fe155 1.976 . S
O170 C164 1.287 . S
O171 Fe157 1.996 . S
O171 C164 1.255 . S
C172 O165 1.287 . S
C172 O166 1.255 . S
O173 Fe155 2.002 1_655 S
O173 C169 1.295 . S
O174 Fe157 1.997 1_655 S
O174 C169 1.235 . S
C175 O158 1.295 . S
C175 O159 1.235 . S
C176 C177 1.369 . S
C176 C178 1.419 1_554 S
C176 H180 0.930 . S
C177 C176 1.369 . S
C177 C186 1.457 1_455 S
C178 C176 1.419 1_556 S
C178 C179 1.363 . S
C178 H181 0.929 . S
C179 C178 1.363 . S
C179 C185 1.428 1_455 S
H180 C176 0.930 . S
H181 C178 0.929 . S
S182 N183 1.613 . S
S182 N184 1.610 . S
N183 S182 1.613 . S
N183 C186 1.347 1_556 S
N184 S182 1.610 . S
N184 C185 1.351 . S
C185 C179 1.428 1_655 S
C185 N184 1.351 . S
C185 C186 1.405 1_556 S
C186 C177 1.457 1_655 S
C186 N183 1.347 1_554 S
C186 C185 1.405 1_554 S
C187 C188 1.369 . S
C187 C189 1.419 . S
C187 H191 0.930 . S
C188 C187 1.369 . S
C188 C197 1.429 . S
C189 C187 1.419 . S
C189 C190 1.363 . S
C189 H192 0.929 . S
C190 C189 1.363 . S
C190 C196 1.428 . S
H191 C187 0.930 . S
H192 C189 0.929 . S
S193 N194 1.613 . S
S193 N195 1.610 . S
N194 S193 1.613 . S
N194 C197 1.350 . S
N195 S193 1.610 . S
N195 C196 1.351 . S
C196 C190 1.428 . S
C196 N195 1.351 . S
C196 C197 1.434 . S
C197 C188 1.429 . S
C197 N194 1.350 . S
C197 C196 1.434 . S
C198 C199 1.369 . S
C198 C200 1.419 . S
C198 H202 0.930 . S
C199 C198 1.369 . S
C199 C208 1.429 . S
C200 C198 1.419 . S
C200 C201 1.363 . S
C200 H203 0.929 . S
C201 C200 1.363 . S
C201 C207 1.428 . S
H202 C198 0.930 . S
H203 C200 0.929 . S
S204 N205 1.613 . S
S204 N206 1.610 . S
N205 S204 1.613 . S
N205 C208 1.350 . S
N206 S204 1.610 . S
N206 C207 1.351 . S
C207 C201 1.428 . S
C207 N206 1.351 . S
C207 C208 1.434 . S
C208 C199 1.429 . S
C208 N205 1.350 . S
C208 C207 1.434 . S
C209 C210 1.369 . S
C209 C211 1.419 . S
C209 H213 0.930 . S
C210 C209 1.369 . S
C210 C219 1.429 . S
C211 C209 1.419 . S
C211 C212 1.363 . S
C211 H214 0.929 . S
C212 C211 1.363 . S
C212 C218 1.428 . S
H213 C209 0.930 . S
H214 C211 0.929 . S
S215 N216 1.613 . S
S215 N217 1.610 . S
N216 S215 1.613 . S
N216 C219 1.350 . S
N217 S215 1.610 . S
N217 C218 1.351 . S
C218 C212 1.428 . S
C218 N217 1.351 . S
C218 C219 1.434 . S
C219 C210 1.429 . S
C219 N216 1.350 . S
C219 C218 1.434 . S
C220 C221 1.369 . S
C220 C222 1.419 . S
C220 H224 0.930 . S
C221 C220 1.369 . S
C221 C230 1.429 . S
C222 C220 1.419 . S
C222 C223 1.363 . S
C222 H225 0.929 . S
C223 C222 1.363 . S
C223 C229 1.428 . S
H224 C220 0.930 . S
H225 C222 0.929 . S
S226 N227 1.613 . S
S226 N228 1.610 . S
N227 S226 1.613 . S
N227 C230 1.350 . S
N228 S226 1.610 . S
N228 C229 1.351 . S
C229 C223 1.428 . S
C229 N228 1.351 . S
C229 C230 1.434 . S
C230 C221 1.429 . S
C230 N227 1.350 . S
C230 C229 1.434 . S
C231 C232 1.369 . S
C231 C233 1.419 . S
C231 H235 0.930 . S
C232 C231 1.369 . S
C232 C241 1.429 . S
C233 C231 1.419 . S
C233 C234 1.363 . S
C233 H236 0.929 . S
C234 C233 1.363 . S
C234 C240 1.428 . S
H235 C231 0.930 . S
H236 C233 0.929 . S
S237 N238 1.613 . S
S237 N239 1.610 . S
N238 S237 1.613 . S
N238 C241 1.350 . S
N239 S237 1.610 . S
N239 C240 1.351 . S
C240 C234 1.428 . S
C240 N239 1.351 . S
C240 C241 1.434 . S
C241 C232 1.429 . S
C241 N238 1.350 . S
C241 C240 1.434 . S
C242 C243 1.369 1_565 S
C242 C244 1.419 . S
C242 H246 0.930 . S
C243 C242 1.369 1_545 S
C243 C252 1.429 . S
C244 C242 1.419 . S
C244 C245 1.363 . S
C244 H247 0.929 . S
C245 C244 1.363 . S
C245 C251 1.428 1_565 S
H246 C242 0.930 . S
H247 C244 0.929 . S
S248 N249 1.613 . S
S248 N250 1.610 . S
N249 S248 1.613 . S
N249 C252 1.350 . S
N250 S248 1.610 . S
N250 C251 1.351 . S
C251 C245 1.428 1_545 S
C251 N250 1.351 . S
C251 C252 1.434 . S
C252 C243 1.429 . S
C252 N249 1.350 . S
C252 C251 1.434 . S
C253 C254 1.369 1_665 S
C253 C255 1.419 . S
C253 H257 0.930 . S
C254 C253 1.369 1_445 S
C254 C263 1.429 1_554 S
C255 C253 1.419 . S
C255 C256 1.363 1_654 S
C255 H258 0.929 . S
C256 C255 1.363 1_456 S
C256 C262 1.428 1_565 S
H257 C253 0.930 . S
H258 C255 0.929 . S
S259 N260 1.613 . S
S259 N261 1.610 . S
N260 S259 1.613 . S
N260 C263 1.350 . S
N261 S259 1.610 . S
N261 C262 1.351 . S
C262 C256 1.428 1_545 S
C262 N261 1.351 . S
C262 C263 1.434 . S
C263 C254 1.429 1_556 S
C263 N260 1.350 . S
C263 C262 1.434 . S
C264 C265 1.369 1_545 S
C264 C266 1.419 . S
C264 H268 0.930 . S
C265 C264 1.369 1_565 S
C265 C274 1.429 . S
C266 C264 1.419 . S
C266 C267 1.363 . S
C266 H269 0.929 . S
C267 C266 1.363 . S
C267 C273 1.428 . S
H268 C264 0.930 . S
H269 C266 0.929 . S
S270 N271 1.613 . S
S270 N272 1.613 . S
N271 S270 1.613 . S
N271 C274 1.350 . S
N272 S270 1.613 . S
N272 C273 1.351 1_565 S
C273 C267 1.428 . S
C273 N272 1.351 1_545 S
C273 C274 1.434 1_545 S
C274 C265 1.429 . S
C274 N271 1.350 . S
C274 C273 1.434 1_565 S
C275 C276 1.369 1_545 S
C275 C277 1.419 . S
C275 H279 0.930 . S
C276 C275 1.369 1_565 S
C276 C285 1.429 . S
C277 C275 1.419 . S
C277 C278 1.363 . S
C277 H280 0.929 . S
C278 C277 1.363 . S
C278 C284 1.428 1_545 S
H279 C275 0.930 . S
H280 C277 0.929 . S
S281 N282 1.613 . S
S281 N283 1.610 . S
N282 S281 1.613 . S
N282 C285 1.350 . S
N283 S281 1.610 . S
N283 C284 1.351 . S
C284 C278 1.428 1_565 S
C284 N283 1.351 . S
C284 C285 1.434 . S
C285 C276 1.429 . S
C285 N282 1.350 . S
C285 C284 1.434 . S
C286 C287 1.369 1_565 S
C286 C288 1.419 . S
C286 H290 0.930 . S
C287 C286 1.369 1_545 S
C287 C296 1.429 . S
C288 C286 1.419 . S
C288 C289 1.363 . S
C288 H291 0.929 . S
C289 C288 1.363 . S
C289 C295 1.428 1_565 S
H290 C286 0.930 . S
H291 C288 0.929 . S
S292 N293 1.613 . S
S292 N294 1.610 . S
N293 S292 1.613 . S
N293 C296 1.350 . S
N294 S292 1.610 . S
N294 C295 1.351 . S
C295 C289 1.428 1_545 S
C295 N294 1.351 . S
C295 C296 1.434 . S
C296 C287 1.429 . S
C296 N293 1.350 . S
C296 C295 1.434 . S
C297 C298 1.369 . S
C297 C299 1.419 1_565 S
C297 H301 0.930 . S
C298 C297 1.369 . S
C298 C307 1.429 . S
C299 C297 1.419 1_545 S
C299 C300 1.363 . S
C299 H302 0.929 . S
C300 C299 1.363 . S
C300 C306 1.428 1_545 S
H301 C297 0.930 . S
H302 C299 0.929 . S
S303 N304 1.613 . S
S303 N305 1.610 . S
N304 S303 1.613 . S
N304 C307 1.350 . S
N305 S303 1.610 . S
N305 C306 1.351 . S
C306 C300 1.428 1_565 S
C306 N305 1.351 . S
C306 C307 1.434 . S
C307 C298 1.429 . S
C307 N304 1.350 . S
C307 C306 1.434 . S
C308 C309 1.369 . S
C308 C310 1.419 . S
C308 H312 0.930 . S
C309 C308 1.369 . S
C309 C318 1.429 . S
C310 C308 1.419 . S
C310 C311 1.363 1_565 S
C310 H313 0.929 1_565 S
C311 C310 1.363 1_545 S
C311 C317 1.428 . S
H312 C308 0.930 . S
H313 C310 0.929 1_545 S
S314 N315 1.613 1_545 S
S314 N316 1.610 . S
N315 S314 1.613 1_565 S
N315 C318 1.350 . S
N316 S314 1.610 . S
N316 C317 1.351 . S
C317 C311 1.428 . S
C317 N316 1.351 . S
C317 C318 1.434 1_545 S
C318 C309 1.429 . S
C318 N315 1.350 . S
C318 C317 1.434 1_565 S
C319 C320 1.369 . S
C319 C321 1.419 1_545 S
C319 H323 0.930 . S
C320 C319 1.369 . S
C320 C329 1.429 . S
C321 C319 1.419 1_565 S
C321 C322 1.363 . S
C321 H324 0.929 . S
C322 C321 1.363 . S
C322 C328 1.428 . S
H323 C319 0.930 . S
H324 C321 0.929 . S
S325 N326 1.613 . S
S325 N327 1.610 1_545 S
N326 S325 1.613 . S
N326 C329 1.350 . S
N327 S325 1.610 1_565 S
N327 C328 1.351 . S
C328 C322 1.428 . S
C328 N327 1.351 . S
C328 C329 1.434 1_565 S
C329 C320 1.429 . S
C329 N326 1.350 . S
C329 C328 1.434 1_545 S
C330 C331 1.369 . S
C330 C332 1.419 1_565 S
C330 H334 0.930 . S
C331 C330 1.369 . S
C331 C340 1.429 . S
C332 C330 1.419 1_545 S
C332 C333 1.363 . S
C332 H335 0.929 . S
C333 C332 1.363 . S
C333 C339 1.428 . S
H334 C330 0.930 . S
H335 C332 0.929 . S
S336 N337 1.613 1_545 S
S336 N338 1.610 . S
N337 S336 1.613 1_565 S
N337 C340 1.350 . S
N338 S336 1.610 . S
N338 C339 1.351 . S
C339 C333 1.428 . S
C339 N338 1.351 . S
C339 C340 1.434 1_545 S
C340 C331 1.429 . S
C340 N337 1.350 . S
C340 C339 1.434 1_565 S
C341 C342 1.369 . S
C341 C343 1.419 . S
C341 H345 0.930 . S
C342 C341 1.369 . S
C342 C351 1.429 1_565 S
C343 C341 1.419 . S
C343 C344 1.363 1_565 S
C343 H346 0.929 . S
C344 C343 1.363 1_545 S
C344 C350 1.428 . S
H345 C341 0.930 . S
H346 C343 0.929 . S
S347 N348 1.613 . S
S347 N349 1.610 . S
N348 S347 1.613 . S
N348 C351 1.350 . S
N349 S347 1.610 . S
N349 C350 1.351 . S
C350 C344 1.428 . S
C350 N349 1.351 . S
C350 C351 1.434 . S
C351 C342 1.429 1_545 S
C351 N348 1.350 . S
C351 C350 1.434 . S
C352 C353 1.369 . S
C352 C354 1.419 . S
C352 H356 0.930 . S
C353 C352 1.369 . S
C353 C362 1.429 . S
C354 C352 1.419 . S
C354 C355 1.363 . S
C354 H357 0.929 . S
C355 C354 1.363 . S
C355 C361 1.428 . S
H356 C352 0.930 . S
H357 C354 0.929 . S
S358 N359 1.613 . S
S358 N360 1.610 . S
N359 S358 1.613 . S
N359 C362 1.350 . S
N360 S358 1.610 . S
N360 C361 1.351 . S
C361 C355 1.428 . S
C361 N360 1.351 . S
C361 C362 1.434 . S
C362 C353 1.429 . S
C362 N359 1.350 . S
C362 C361 1.434 . S
C363 C364 1.369 . S
C363 C365 1.419 . S
C363 H367 0.930 . S
C364 C363 1.369 . S
C364 C373 1.429 . S
C365 C363 1.419 . S
C365 C366 1.363 . S
C365 H368 0.929 . S
C366 C365 1.363 . S
C366 C372 1.428 . S
H367 C363 0.930 . S
H368 C365 0.929 . S
S369 N370 1.613 . S
S369 N371 1.610 . S
N370 S369 1.613 . S
N370 C373 1.350 . S
N371 S369 1.610 . S
N371 C372 1.351 . S
C372 C366 1.428 . S
C372 N371 1.351 . S
C372 C373 1.434 . S
C373 C364 1.429 . S
C373 N370 1.350 . S
C373 C372 1.434 . S
C374 C375 1.369 . S
C374 C376 1.419 . S
C374 H378 0.930 . S
C375 C374 1.369 . S
C375 C384 1.429 . S
C376 C374 1.419 . S
C376 C377 1.363 . S
C376 H379 0.929 . S
C377 C376 1.363 . S
C377 C383 1.428 . S
H378 C374 0.930 . S
H379 C376 0.929 . S
S380 N381 1.613 . S
S380 N382 1.610 . S
N381 S380 1.613 . S
N381 C384 1.350 . S
N382 S380 1.610 . S
N382 C383 1.351 . S
C383 C377 1.428 . S
C383 N382 1.351 . S
C383 C384 1.434 . S
C384 C375 1.429 . S
C384 N381 1.350 . S
C384 C383 1.434 . S
C385 C386 1.369 . S
C385 C387 1.419 . S
C385 H389 0.930 . S
C386 C385 1.369 . S
C386 C395 1.429 . S
C387 C385 1.419 . S
C387 C388 1.363 . S
C387 H390 0.929 . S
C388 C387 1.363 . S
C388 C394 1.428 . S
H389 C385 0.930 . S
H390 C387 0.929 . S
S391 N392 1.613 . S
S391 N393 1.610 . S
N392 S391 1.613 . S
N392 C395 1.350 . S
N393 S391 1.610 . S
N393 C394 1.351 . S
C394 C388 1.428 . S
C394 N393 1.351 . S
C394 C395 1.434 . S
C395 C386 1.429 . S
C395 N392 1.350 . S
C395 C394 1.434 . S
C396 C397 1.369 . S
C396 C398 1.419 . S
C396 H400 0.930 . S
C397 C396 1.369 . S
C397 C406 1.429 . S
C398 C396 1.419 . S
C398 C399 1.363 . S
C398 H401 0.929 . S
C399 C398 1.363 . S
C399 C405 1.428 . S
H400 C396 0.930 . S
H401 C398 0.929 . S
S402 N403 1.613 . S
S402 N404 1.610 . S
N403 S402 1.613 . S
N403 C406 1.350 . S
N404 S402 1.610 . S
N404 C405 1.351 . S
C405 C399 1.428 . S
C405 N404 1.351 . S
C405 C406 1.434 . S
C406 C397 1.429 . S
C406 N403 1.350 . S
C406 C405 1.434 . S
C407 C408 1.369 . S
C407 C409 1.419 . S
C407 H411 0.930 . S
C408 C407 1.369 . S
C408 C417 1.429 . S
C409 C407 1.419 . S
C409 C410 1.363 . S
C409 H412 0.929 . S
C410 C409 1.363 . S
C410 C416 1.428 . S
H411 C407 0.930 . S
H412 C409 0.929 . S
S413 N414 1.613 . S
S413 N415 1.610 . S
N414 S413 1.613 . S
N414 C417 1.350 . S
N415 S413 1.610 . S
N415 C416 1.351 . S
C416 C410 1.428 . S
C416 N415 1.351 . S
C416 C417 1.434 . S
C417 C408 1.429 . S
C417 N414 1.350 . S
C417 C416 1.434 . S
C418 C419 1.369 . S
C418 C420 1.419 . S
C418 H422 0.930 . S
C419 C418 1.369 . S
C419 C428 1.429 . S
C420 C418 1.419 . S
C420 C421 1.363 . S
C420 H423 0.929 . S
C421 C420 1.363 . S
C421 C427 1.428 . S
H422 C418 0.930 . S
H423 C420 0.929 . S
S424 N425 1.613 . S
S424 N426 1.610 . S
N425 S424 1.613 . S
N425 C428 1.350 . S
N426 S424 1.610 . S
N426 C427 1.351 . S
C427 C421 1.428 . S
C427 N426 1.351 . S
C427 C428 1.434 . S
C428 C419 1.429 . S
C428 N425 1.350 . S
C428 C427 1.434 . S
C429 C430 1.369 . S
C429 C431 1.419 . S
C429 H433 0.930 . S
C430 C429 1.369 . S
C430 C439 1.429 . S
C431 C429 1.419 . S
C431 C432 1.363 . S
C431 H434 0.929 . S
C432 C431 1.363 . S
C432 C438 1.428 . S
H433 C429 0.930 . S
H434 C431 0.929 . S
S435 N436 1.613 . S
S435 N437 1.610 . S
N436 S435 1.613 . S
N436 C439 1.350 . S
N437 S435 1.610 . S
N437 C438 1.351 . S
C438 C432 1.428 . S
C438 N437 1.351 . S
C438 C439 1.434 . S
C439 C430 1.429 . S
C439 N436 1.350 . S
C439 C438 1.434 . S
C177 C15 1.602 . S
C179 C95 1.605 . S
C188 C128 1.524 . S
C190 C30 1.524 . S
C199 C62 1.524 . S
C201 C150 1.524 . S
C210 C87 1.605 . S
C212 C161 1.602 . S
C221 C74 1.525 . S
C223 C172 1.525 . S
C232 C117 1.602 . S
C234 C43 1.605 . S
C243 C139 1.602 . S
C245 C51 1.605 . S
C254 C10 1.524 . S
C256 C106 1.524 . S
C265 C125 1.415 . S
C267 C18 1.426 . S
C276 C29 1.468 . S
C278 C147 1.469 . S
C287 C162 1.426 . S
C289 C59 1.418 . S
C298 C96 1.374 . S
C300 C76 1.375 . S
C309 C98 1.424 . S
C311 C81 1.417 . S
C320 C175 1.467 . S
C322 C65 1.465 . S
C331 C40 1.423 . S
C333 C153 1.416 . S
C342 C120 1.373 . S
C344 C8 1.373 . S
C353 C169 1.415 . S
C355 C52 1.426 . S
C364 C103 1.466 . S
C366 C73 1.467 . S
C375 C118 1.426 . S
C377 C21 1.418 . S
C386 C32 1.375 . S
C388 C140 1.375 . S
C397 C142 1.424 . S
C399 C37 1.415 . S
C408 C7 1.467 . S
C410 C131 1.465 . S
C419 C109 1.415 . S
C421 C84 1.423 . S
C430 C164 1.372 . S
C432 C54 1.373 . S
