# Generated by pormake.
# Topology afw, (4)-cn, num edge types: 1
# Building blocks:
#     Node 0, Type 0, BuildingBlock: ICAMEG_clean_sbu_1, # of connection points: 4
#     Node 1, Type 0, BuildingBlock: ICAMEG_clean_sbu_1, # of connection points: 4
#     Node 2, Type 0, BuildingBlock: ICAMEG_clean_sbu_1, # of connection points: 4
#     Node 3, Type 0, BuildingBlock: ICAMEG_clean_sbu_1, # of connection points: 4
#     Node 4, Type 0, BuildingBlock: ICAMEG_clean_sbu_1, # of connection points: 4
#     Node 5, Type 0, BuildingBlock: ICAMEG_clean_sbu_1, # of connection points: 4
#     Node 6, Type 0, BuildingBlock: ICAMEG_clean_sbu_1, # of connection points: 4
#     Node 7, Type 0, BuildingBlock: ICAMEG_clean_sbu_1, # of connection points: 4
#     Node 8, Type 0, BuildingBlock: ICAMEG_clean_sbu_1, # of connection points: 4
#     Edge 9, Type (0, 0), BuildingBlock: OJICUG_clean_linker_0, # of connection points: 2
#     Edge 10, Type (0, 0), BuildingBlock: OJICUG_clean_linker_0, # of connection points: 2
#     Edge 11, Type (0, 0), BuildingBlock: OJICUG_clean_linker_0, # of connection points: 2
#     Edge 12, Type (0, 0), BuildingBlock: OJICUG_clean_linker_0, # of connection points: 2
#     Edge 13, Type (0, 0), BuildingBlock: OJICUG_clean_linker_0, # of connection points: 2
#     Edge 14, Type (0, 0), BuildingBlock: OJICUG_clean_linker_0, # of connection points: 2
#     Edge 15, Type (0, 0), BuildingBlock: OJICUG_clean_linker_0, # of connection points: 2
#     Edge 16, Type (0, 0), BuildingBlock: OJICUG_clean_linker_0, # of connection points: 2
#     Edge 17, Type (0, 0), BuildingBlock: OJICUG_clean_linker_0, # of connection points: 2
#     Edge 18, Type (0, 0), BuildingBlock: OJICUG_clean_linker_0, # of connection points: 2
#     Edge 19, Type (0, 0), BuildingBlock: OJICUG_clean_linker_0, # of connection points: 2
#     Edge 20, Type (0, 0), BuildingBlock: OJICUG_clean_linker_0, # of connection points: 2
#     Edge 21, Type (0, 0), BuildingBlock: OJICUG_clean_linker_0, # of connection points: 2
#     Edge 22, Type (0, 0), BuildingBlock: OJICUG_clean_linker_0, # of connection points: 2
#     Edge 23, Type (0, 0), BuildingBlock: OJICUG_clean_linker_0, # of connection points: 2
#     Edge 24, Type (0, 0), BuildingBlock: OJICUG_clean_linker_0, # of connection points: 2
#     Edge 25, Type (0, 0), BuildingBlock: OJICUG_clean_linker_0, # of connection points: 2
#     Edge 26, Type (0, 0), BuildingBlock: OJICUG_clean_linker_0, # of connection points: 2
# Relax obj value: 0.098
# Max RMSD: 0.142
# Mean RMSD: 0.142
data_MOF--net-afw--node1-ICAMEG_clean_sbu_1--edge1-OJICUG_clean_linker_0
_symmetry_space_group_name_H-M    P1
_symmetry_Int_Tables_number       1
_symmetry_cell_setting            triclinic
loop_
_symmetry_equiv_pos_as_xyz
'x, y, z'
_cell_length_a     34.536271
_cell_length_b     34.342858
_cell_length_c     26.341675
_cell_angle_alpha  89.69334
_cell_angle_beta   90.127503
_cell_angle_gamma 120.29924
loop_
_atom_site_label
_atom_site_type_symbol
_atom_site_fract_x
_atom_site_fract_y
_atom_site_fract_z
_atom_type_partial_charge
Co0 Co 0.00792 0.19108 0.10473 0.0
Co1 Co 0.00426 0.19634 0.97309 0.0
O2 O 0.00715 0.22133 0.04117 0.0
C3 C 0.93095 0.2052 0.12344 0.0
O4 O 0.9174 0.19411 0.07637 0.0
C5 C 0.08337 0.26869 0.92 0.0
O6 O 0.09679 0.23932 0.91485 0.0
O7 O 0.0544 0.18524 0.99026 0.0
O8 O 0.04909 0.17378 0.07439 0.0
H9 H 0.00131 0.08317 0.85057 0.0
H10 H 0.02776 0.2855 0.10754 0.0
O11 O 0.96676 0.20732 0.13889 0.0
H12 H 0.1632 0.29002 0.17528 0.0
H13 H 0.01484 0.17574 0.29448 0.0
H14 H 0.00332 0.1044 0.12887 0.0
H15 H 0.09792 0.21802 0.14853 0.0
H16 H 0.01422 0.21373 0.21503 0.0
O17 O 0.04818 0.25839 0.94595 0.0
H18 H 0.00551 0.11598 0.93482 0.0
H19 H -0.00442 0.22316 0.86709 0.0
H20 H 0.00422 0.06545 0.20736 0.0
H21 H 0.09216 0.35824 0.13432 0.0
H22 H 0.01 0.10114 0.29095 0.0
H23 H 0.16051 0.36078 0.16842 0.0
O24 O 0.95547 0.13273 0.08228 0.0
H25 H 0.92779 0.28776 0.96578 0.0
H26 H 0.91256 0.14004 0.92896 0.0
H27 H 0.8494 0.15223 0.91079 0.0
H28 H 0.85684 0.22659 0.92907 0.0
H29 H 0.98997 0.27394 0.98389 0.0
H30 H 0.99142 0.19155 0.78207 0.0
H31 H -0.00577 0.12103 0.77342 0.0
O32 O 0.96061 0.13456 0.99729 0.0
C33 C 0.06601 0.17432 0.03156 0.0
C34 C 5e-05 0.11391 0.85384 0.0
C35 C -0.00551 0.17474 0.8154 0.0
N36 N 0.00079 0.17146 0.90595 0.0
C37 C 0.0024 0.13267 0.90146 0.0
C38 C -0.00311 0.19249 0.86365 0.0
C39 C -0.00393 0.13517 0.81058 0.0
C40 C 0.05732 0.28634 0.1226 0.0
N41 N 0.05901 0.24756 0.12664 0.0
C42 C 0.09371 0.32762 0.13759 0.0
C43 C 0.13206 0.32903 0.15667 0.0
C44 C 0.1336 0.28934 0.1605 0.0
C45 C 0.09658 0.24868 0.14513 0.0
C46 C 0.01237 0.15988 0.25828 0.0
C47 C 0.00607 0.12028 0.16507 0.0
C48 C 0.0119 0.18118 0.21315 0.0
N49 N 0.00899 0.16144 0.16728 0.0
C50 C 0.00646 0.098 0.2094 0.0
C51 C 0.00967 0.11803 0.25628 0.0
C52 C 0.94317 0.11416 0.0388 0.0
C53 C 0.92419 0.25526 0.95749 0.0
C54 C 0.916 0.17241 0.93728 0.0
C55 C 0.88016 0.17916 0.92674 0.0
C56 C 0.88437 0.2209 0.93697 0.0
N57 N 0.95503 0.20634 0.95721 0.0
C58 C 0.95935 0.2473 0.96747 0.0
Co59 Co 0.82207 0.84327 0.95414 0.0
Co60 Co 0.82603 0.83788 0.08517 0.0
O61 O 0.79654 0.81373 0.01967 0.0
C62 C 0.7494 0.85066 0.90477 0.0
O63 O 0.77792 0.89414 0.90075 0.0
C64 C 0.83075 0.76196 0.13162 0.0
O65 O 0.87443 0.78887 0.13279 0.0
O66 O 0.88313 0.84419 0.05889 0.0
O67 O 0.88357 0.8611 0.97652 0.0
H68 H 0.95282 0.94612 0.19668 0.0
H69 H 0.74679 0.74877 0.95588 0.0
O70 O 0.7604 0.82555 0.92933 0.0
H71 H 0.87119 0.74316 0.87149 0.0
H72 H 0.82989 0.85448 0.76284 0.0
H73 H 0.9005 0.93069 0.92339 0.0
H74 H 0.8808 0.81547 0.90111 0.0
H75 H 0.79787 0.81771 0.84506 0.0
O76 O 0.80591 0.77497 0.11028 0.0
H77 H 0.91424 0.91463 0.11549 0.0
H78 H 0.80055 0.81281 0.19422 0.0
H79 H 0.93357 0.96864 0.84204 0.0
H80 H 0.73556 0.67578 0.92621 0.0
H81 H 0.89823 0.9305 0.76098 0.0
H82 H 0.79806 0.67266 0.88373 0.0
O83 O 0.83074 0.90182 0.97998 0.0
H84 H 0.65948 0.75652 0.11359 0.0
H85 H 0.8018 0.89894 0.13946 0.0
H86 H 0.73115 0.89215 0.16972 0.0
H87 H 0.65932 0.82044 0.15708 0.0
H88 H 0.7309 0.76498 0.08335 0.0
H89 H 0.83797 0.8432 0.27629 0.0
H90 H 0.91465 0.91034 0.27786 0.0
O91 O 0.84613 0.90055 0.06261 0.0
C92 C 0.90263 0.85717 0.0159 0.0
C93 C 0.9194 0.91687 0.19651 0.0
C94 C 0.85494 0.8591 0.24117 0.0
N95 N 0.85516 0.86193 0.15005 0.0
C96 C 0.89736 0.89888 0.15064 0.0
C97 C 0.83392 0.84205 0.19459 0.0
C98 C 0.89796 0.89677 0.24203 0.0
C99 C 0.77404 0.74774 0.93706 0.0
N100 N 0.81427 0.78643 0.92992 0.0
C101 C 0.76753 0.70629 0.92051 0.0
C102 C 0.80263 0.70455 0.89674 0.0
C103 C 0.84367 0.74409 0.8899 0.0
C104 C 0.84896 0.78494 0.90694 0.0
C105 C 0.8456 0.87144 0.79791 0.0
C106 C 0.88486 0.91385 0.88832 0.0
C107 C 0.82764 0.85078 0.84459 0.0
N108 N 0.84722 0.87204 0.88908 0.0
C109 C 0.90378 0.93552 0.84235 0.0
C110 C 0.88393 0.9141 0.79689 0.0
C111 C 0.84392 0.92088 0.02314 0.0
C112 C 0.69057 0.7879 0.11944 0.0
C113 C 0.77068 0.86776 0.13344 0.0
C114 C 0.73078 0.86405 0.15085 0.0
C115 C 0.6905 0.8238 0.14378 0.0
N116 N 0.77052 0.83231 0.10986 0.0
C117 C 0.73113 0.79284 0.10254 0.0
Co118 Co 0.17044 0.00456 0.08283 0.0
Co119 Co 0.17685 0.01866 0.95189 0.0
O120 O 0.20077 0.01157 0.01727 0.0
C121 C 0.26029 0.08328 0.10602 0.0
O122 O 0.26101 0.10135 0.06171 0.0
C123 C 0.1884 0.94032 0.92984 0.0
O124 O 0.17237 0.92326 0.97487 0.0
O125 O 0.11606 0.96571 0.96661 0.0
O126 O 0.11165 0.96422 0.05155 0.0
H127 H 0.06411 0.02887 0.84018 0.0
H128 H 0.24625 0.98783 0.07626 0.0
O129 O 0.22819 0.0445 0.11799 0.0
H130 H 0.11791 0.84422 0.13575 0.0
H131 H 0.15036 0.98149 0.27223 0.0
H132 H 0.08777 0.00413 0.11381 0.0
H133 H 0.10945 0.91034 0.11973 0.0
H134 H 0.1884 0.98993 0.19036 0.0
O135 O 0.19396 0.97841 0.91672 0.0
H136 H 0.09479 0.01984 0.92111 0.0
H137 H 0.2089 0.03296 0.8444 0.0
H138 H 0.04844 0.9954 0.19477 0.0
H139 H 0.25638 0.92265 0.09223 0.0
H140 H 0.07976 0.984 0.27476 0.0
H141 H 0.19186 0.85017 0.12209 0.0
O142 O 0.16324 0.05777 0.06823 0.0
H143 H 0.34494 0.10011 0.94138 0.0
H144 H 0.21039 0.11313 0.91605 0.0
H145 H 0.28519 0.17918 0.89996 0.0
H146 H 0.35313 0.17288 0.91255 0.0
H147 H 0.26944 0.03496 0.95739 0.0
H148 H 0.17923 0.04172 0.76257 0.0
H149 H 0.10642 0.03989 0.76013 0.0
O150 O 0.15905 0.05925 0.98337 0.0
C151 C 0.09441 0.95029 0.00809 0.0
C152 C 0.09592 0.02983 0.84075 0.0
C153 C 0.16051 0.037 0.7972 0.0
N154 N 0.15372 0.02611 0.88757 0.0
C155 C 0.11353 0.02483 0.88649 0.0
C156 C 0.17709 0.03191 0.84365 0.0
C157 C 0.11966 0.03598 0.79586 0.0
C158 C 0.21811 0.95646 0.08955 0.0
N159 N 0.17731 0.9529 0.09709 0.0
C160 C 0.22401 0.91965 0.09839 0.0
C161 C 0.18778 0.87898 0.11508 0.0
C162 C 0.14627 0.87561 0.12271 0.0
C163 C 0.14161 0.91311 0.11339 0.0
C164 C 0.13636 0.98637 0.23762 0.0
C165 C 0.10151 0.99894 0.1484 0.0
C166 C 0.15781 0.99128 0.19115 0.0
N167 N 0.14021 0.99728 0.14726 0.0
C168 C 0.07913 0.99413 0.19415 0.0
C169 C 0.09673 0.98777 0.23902 0.0
C170 C 0.1567 0.07335 0.02701 0.0
C171 C 0.31558 0.10324 0.93564 0.0
C172 C 0.23978 0.11015 0.92178 0.0
C173 C 0.28206 0.14764 0.91249 0.0
C174 C 0.32016 0.14408 0.91953 0.0
N175 N 0.23557 0.07018 0.93746 0.0
C176 C 0.27277 0.06644 0.94448 0.0
Co177 Co 0.67201 0.52698 0.30613 0.0
Co178 Co 0.66687 0.51548 0.43718 0.0
O179 O 0.67028 0.54881 0.3746 0.0
C180 C 0.75263 0.60277 0.25952 0.0
O181 O 0.76764 0.57467 0.2544 0.0
C182 C 0.59122 0.5325 0.45057 0.0
O183 O 0.58086 0.52412 0.40233 0.0
O184 O 0.61526 0.45879 0.4099 0.0
O185 O 0.62825 0.46386 0.32605 0.0
H186 H 0.65502 0.38433 0.53606 0.0
H187 H 0.65447 0.60246 0.3172 0.0
O188 O 0.716 0.59038 0.28337 0.0
H189 H 0.52019 0.48168 0.23267 0.0
H190 H 0.67033 0.52982 0.11458 0.0
H191 H 0.67842 0.44981 0.2666 0.0
H192 H 0.58344 0.47074 0.25491 0.0
H193 H 0.66848 0.55746 0.20025 0.0
O194 O 0.62464 0.53144 0.46893 0.0
H195 H 0.65941 0.42711 0.4587 0.0
H196 H 0.66682 0.53322 0.5482 0.0
H197 H 0.68026 0.42097 0.18168 0.0
H198 H 0.59219 0.61504 0.29505 0.0
H199 H 0.67622 0.46108 0.1049 0.0
H200 H 0.52438 0.55432 0.25259 0.0
O201 O 0.7222 0.51705 0.32661 0.0
H202 H 0.75179 0.68118 0.47575 0.0
H203 H 0.75348 0.53873 0.48778 0.0
H204 H 0.81781 0.60879 0.52029 0.0
H205 H 0.81715 0.68067 0.51455 0.0
H206 H 0.68835 0.61036 0.44321 0.0
H207 H 0.66214 0.4914 0.62651 0.0
H208 H 0.65639 0.41648 0.62075 0.0
O209 O 0.70917 0.49858 0.40904 0.0
C210 C 0.60704 0.44189 0.3654 0.0
C211 C 0.65764 0.417 0.53908 0.0
C212 C 0.66158 0.47706 0.58983 0.0
N213 N 0.66365 0.48276 0.49887 0.0
C214 C 0.66023 0.44144 0.4954 0.0
C215 C 0.6641 0.50054 0.54534 0.0
C216 C 0.65837 0.43504 0.58657 0.0
C217 C 0.62528 0.57605 0.29825 0.0
N218 N 0.62275 0.53602 0.28712 0.0
C219 C 0.59003 0.58329 0.28601 0.0
C220 C 0.55196 0.54918 0.26227 0.0
C221 C 0.54957 0.5084 0.25113 0.0
C222 C 0.58544 0.50234 0.26399 0.0
C223 C 0.6721 0.51205 0.14775 0.0
C224 C 0.67662 0.46746 0.2334 0.0
C225 C 0.67108 0.52754 0.19636 0.0
N226 N 0.67333 0.50528 0.23846 0.0
C227 C 0.67768 0.45096 0.1854 0.0
C228 C 0.67541 0.47348 0.14234 0.0
C229 C 0.73019 0.50293 0.36803 0.0
C230 C 0.75244 0.65006 0.47854 0.0
C231 C 0.75306 0.56989 0.48481 0.0
C232 C 0.78952 0.60945 0.50347 0.0
C233 C 0.78912 0.64976 0.50027 0.0
N234 N 0.71713 0.57043 0.46371 0.0
C235 C 0.71657 0.60985 0.4603 0.0
Co236 Co 0.49616 0.17527 0.27011 0.0
Co237 Co 0.4878 0.1652 0.40145 0.0
O238 O 0.46508 0.14251 0.33268 0.0
C239 C 0.40328 0.15762 0.25199 0.0
O240 O 0.39936 0.16541 0.2999 0.0
C241 C 0.49253 0.09066 0.45139 0.0
O242 O 0.5357 0.11909 0.45627 0.0
O243 O 0.54835 0.17517 0.38306 0.0
O244 O 0.55496 0.19253 0.30025 0.0
H245 H 0.60077 0.27319 0.52631 0.0
H246 H 0.42259 0.08036 0.26413 0.0
O247 O 0.43855 0.15902 0.23591 0.0
H248 H 0.5549 0.08119 0.19283 0.0
H249 H 0.51909 0.19763 0.08091 0.0
H250 H 0.5777 0.26349 0.24921 0.0
H251 H 0.56033 0.15155 0.2232 0.0
H252 H 0.48046 0.15643 0.15891 0.0
O253 O 0.46814 0.10217 0.42621 0.0
H254 H 0.57104 0.2431 0.44134 0.0
H255 H 0.45234 0.13634 0.50714 0.0
H256 H 0.61756 0.30563 0.17219 0.0
H257 H 0.41551 0.00922 0.23371 0.0
H258 H 0.58826 0.27271 0.08726 0.0
H259 H 0.48202 0.00936 0.19781 0.0
O260 O 0.501 0.23229 0.2956 0.0
H261 H 0.31954 0.0767 0.40925 0.0
H262 H 0.45471 0.22187 0.44927 0.0
H263 H 0.38011 0.21087 0.46911 0.0
H264 H 0.31185 0.13778 0.44926 0.0
H265 H 0.39484 0.08935 0.38948 0.0
H266 H 0.48088 0.16522 0.59284 0.0
H267 H 0.55559 0.23414 0.60284 0.0
O268 O 0.50745 0.22793 0.37991 0.0
C269 C 0.57111 0.18885 0.34208 0.0
C270 C 0.56817 0.24312 0.52246 0.0
C271 C 0.50088 0.18253 0.55979 0.0
N272 N 0.50999 0.18797 0.46918 0.0
C273 C 0.55113 0.2259 0.47442 0.0
C274 C 0.48491 0.16632 0.51115 0.0
C275 C 0.5428 0.2212 0.56537 0.0
C276 C 0.45161 0.0807 0.24831 0.0
N277 N 0.49178 0.12008 0.24532 0.0
C278 C 0.44743 0.04031 0.23126 0.0
C279 C 0.48477 0.0404 0.21117 0.0
C280 C 0.52568 0.08069 0.2084 0.0
C281 C 0.5286 0.12042 0.22583 0.0
C282 C 0.53221 0.2123 0.11771 0.0
C283 C 0.56482 0.24881 0.21241 0.0
C284 C 0.51042 0.18918 0.16203 0.0
N285 N 0.5269 0.20741 0.20864 0.0
C286 C 0.58751 0.2729 0.16892 0.0
C287 C 0.57103 0.25442 0.12129 0.0
C288 C 0.50909 0.2496 0.33991 0.0
C289 C 0.34904 0.10865 0.41824 0.0
C290 C 0.4252 0.19009 0.44019 0.0
C291 C 0.38303 0.18399 0.4517 0.0
C292 C 0.34474 0.14296 0.4406 0.0
N293 N 0.42916 0.1562 0.41844 0.0
C294 C 0.39176 0.11594 0.40732 0.0
Co295 Co 0.84642 0.35279 0.2919 0.0
Co296 Co 0.83833 0.33719 0.42258 0.0
O297 O 0.86946 0.34482 0.35738 0.0
C298 C 0.8578 0.27456 0.26855 0.0
O299 O 0.84108 0.25664 0.31307 0.0
C300 C 0.9278 0.41553 0.4469 0.0
O301 O 0.92831 0.43397 0.40291 0.0
O302 O 0.83158 0.39072 0.40851 0.0
O303 O 0.82825 0.39296 0.32363 0.0
H304 H 0.7159 0.32791 0.53385 0.0
H305 H 0.93892 0.36907 0.2986 0.0
O306 O 0.86392 0.31304 0.25635 0.0
H307 H 0.95529 0.51372 0.24191 0.0
H308 H 0.85038 0.37779 0.10278 0.0
H309 H 0.76456 0.35408 0.26061 0.0
H310 H 0.88033 0.44756 0.25689 0.0
H311 H 0.87949 0.36839 0.1847 0.0
O312 O 0.89587 0.37651 0.45847 0.0
H313 H 0.75572 0.33713 0.45314 0.0
H314 H 0.8551 0.32101 0.52991 0.0
H315 H 0.73443 0.36373 0.17959 0.0
H316 H 0.01458 0.43432 0.2837 0.0
H317 H 0.77744 0.37566 0.0999 0.0
H318 H 0.02309 0.50731 0.25523 0.0
O319 O 0.78565 0.29968 0.30562 0.0
H320 H 0.92303 0.254 0.43225 0.0
H321 H 0.77612 0.24249 0.457 0.0
H322 H 0.7837 0.17575 0.47228 0.0
H323 H 0.85761 0.18128 0.45999 0.0
H324 H 0.91384 0.31985 0.41703 0.0
H325 H 0.81653 0.312 0.61153 0.0
H326 H 0.74632 0.31526 0.61382 0.0
O327 O 0.7797 0.29753 0.39044 0.0
C328 C 0.82542 0.40664 0.36733 0.0
C329 C 0.74641 0.32631 0.53334 0.0
C330 C 0.80292 0.31743 0.57693 0.0
N331 N 0.80757 0.32935 0.48672 0.0
C332 C 0.76907 0.33141 0.48772 0.0
C333 C 0.82466 0.32265 0.53061 0.0
C334 C 0.76352 0.31925 0.57819 0.0
C335 C 0.94239 0.40066 0.2859 0.0
N336 N 0.90527 0.40447 0.27848 0.0
C337 C 0.9853 0.43752 0.27766 0.0
C338 C 0.99005 0.47847 0.26175 0.0
C339 C 0.95202 0.4821 0.2543 0.0
C340 C 0.90965 0.44455 0.26299 0.0
C341 C 0.83137 0.37269 0.13726 0.0
C342 C 0.78361 0.35951 0.22615 0.0
C343 C 0.84764 0.36724 0.18376 0.0
N344 N 0.82389 0.36095 0.22749 0.0
C345 C 0.76632 0.36484 0.18036 0.0
C346 C 0.79044 0.3715 0.13567 0.0
C347 C 0.76323 0.28402 0.3466 0.0
C348 C 0.89068 0.25119 0.43785 0.0
C349 C 0.80833 0.24513 0.45137 0.0
C350 C 0.81246 0.20725 0.46022 0.0
C351 C 0.85394 0.21039 0.45335 0.0
N352 N 0.84455 0.28506 0.43629 0.0
C353 C 0.88532 0.28839 0.42945 0.0
Co354 Co 0.33743 0.85368 0.76844 0.0
Co355 Co 0.33519 0.86183 0.63694 0.0
O356 O 0.33709 0.88525 0.70568 0.0
C357 C 0.26047 0.86796 0.78689 0.0
O358 O 0.24803 0.85843 0.7393 0.0
C359 C 0.41408 0.93541 0.58526 0.0
O360 O 0.42799 0.90645 0.57993 0.0
O361 O 0.38581 0.85156 0.65393 0.0
O362 O 0.37955 0.83773 0.73764 0.0
H363 H 0.33581 0.75217 0.51178 0.0
H364 H 0.35646 0.94779 0.77375 0.0
O365 O 0.29549 0.86873 0.80297 0.0
H366 H 0.49148 0.95197 0.84237 0.0
H367 H 0.34213 0.83414 0.95774 0.0
H368 H 0.33366 0.76702 0.79013 0.0
H369 H 0.42697 0.88037 0.81338 0.0
H370 H 0.34204 0.8737 0.87938 0.0
O371 O 0.37866 0.92453 0.61108 0.0
H372 H 0.33863 0.78319 0.59677 0.0
H373 H 0.3265 0.88995 0.53157 0.0
H374 H 0.33404 0.72652 0.86751 0.0
H375 H 0.42007 0.02013 0.80281 0.0
H376 H 0.33829 0.76009 0.9521 0.0
H377 H 0.48821 0.02251 0.83736 0.0
O378 O 0.28556 0.79552 0.74437 0.0
H379 H 0.25663 0.95126 0.63189 0.0
H380 H 0.24394 0.80518 0.59175 0.0
H381 H 0.18016 0.81652 0.5741 0.0
H382 H 0.18632 0.89005 0.59406 0.0
H383 H 0.31944 0.9383 0.64945 0.0
H384 H 0.32368 0.86014 0.44584 0.0
H385 H 0.3283 0.79074 0.43554 0.0
O386 O 0.29212 0.79942 0.65955 0.0
C387 C 0.39732 0.84 0.69482 0.0
C388 C 0.33375 0.78244 0.51576 0.0
C389 C 0.32694 0.84302 0.47876 0.0
N390 N 0.33271 0.83834 0.56921 0.0
C391 C 0.33532 0.80017 0.56381 0.0
C392 C 0.32856 0.85975 0.52741 0.0
C393 C 0.32954 0.80409 0.47301 0.0
C394 C 0.38593 0.94855 0.78899 0.0
N395 N 0.38793 0.90989 0.79201 0.0
C396 C 0.42187 0.98961 0.80526 0.0
C397 C 0.46011 0.99093 0.8246 0.0
C398 C 0.46198 0.95137 0.82739 0.0
C399 C 0.4254 0.91094 0.81074 0.0
C400 C 0.34033 0.8192 0.9211 0.0
C401 C 0.33574 0.78198 0.82677 0.0
C402 C 0.34015 0.84139 0.87658 0.0
N403 N 0.33809 0.82282 0.83015 0.0
C404 C 0.33584 0.75882 0.87047 0.0
C405 C 0.33819 0.77766 0.91791 0.0
C406 C 0.27423 0.7779 0.70034 0.0
C407 C 0.25359 0.91913 0.62286 0.0
C408 C 0.24683 0.83719 0.60079 0.0
C409 C 0.21064 0.84347 0.59055 0.0
C410 C 0.21413 0.88474 0.60171 0.0
N411 N 0.28549 0.87115 0.62135 0.0
C412 C 0.28911 0.91167 0.63251 0.0
Co413 Co 0.16508 0.51074 0.60821 0.0
Co414 Co 0.15908 0.50073 0.73953 0.0
O415 O 0.13514 0.47801 0.67111 0.0
C416 C 0.07132 0.4915 0.59215 0.0
O417 O 0.0673 0.49796 0.64047 0.0
C418 C 0.1636 0.42537 0.78805 0.0
O419 O 0.20692 0.45329 0.7925 0.0
O420 O 0.21938 0.51052 0.71976 0.0
O421 O 0.22431 0.52811 0.6371 0.0
H422 H 0.27386 0.60832 0.86317 0.0
H423 H 0.09177 0.41566 0.60354 0.0
O424 O 0.10698 0.49432 0.57519 0.0
H425 H 0.22263 0.4171 0.52694 0.0
H426 H 0.18538 0.53364 0.41876 0.0
H427 H 0.24615 0.5991 0.58661 0.0
H428 H 0.22837 0.48734 0.55822 0.0
H429 H 0.14785 0.49217 0.49705 0.0
O430 O 0.13935 0.43755 0.76372 0.0
H431 H 0.24295 0.57848 0.77848 0.0
H432 H 0.12513 0.47161 0.8456 0.0
H433 H 0.28495 0.64149 0.50928 0.0
H434 H 0.08432 0.34462 0.57221 0.0
H435 H 0.25455 0.60877 0.42457 0.0
H436 H 0.15011 0.34505 0.53365 0.0
O437 O 0.16996 0.56754 0.63441 0.0
H438 H 0.99094 0.41288 0.75088 0.0
H439 H 0.12719 0.55782 0.78877 0.0
H440 H 0.05307 0.54723 0.81047 0.0
H441 H 0.98427 0.47427 0.79169 0.0
H442 H 0.06573 0.42511 0.72921 0.0
H443 H 0.15485 0.50022 0.93103 0.0
H444 H 0.22972 0.56909 0.94022 0.0
O445 O 0.17873 0.56362 0.71834 0.0
C446 C 0.24135 0.52445 0.67828 0.0
C447 C 0.2412 0.57827 0.85967 0.0
C448 C 0.17441 0.51761 0.89775 0.0
N449 N 0.18229 0.52329 0.80701 0.0
C450 C 0.22351 0.5612 0.8118 0.0
C451 C 0.15777 0.50154 0.84926 0.0
C452 C 0.21642 0.55624 0.90288 0.0
C453 C 0.12048 0.41613 0.58662 0.0
N454 N 0.16047 0.45563 0.58272 0.0
C455 C 0.11609 0.37579 0.56904 0.0
C456 C 0.15302 0.37605 0.54745 0.0
C457 C 0.19373 0.41645 0.54371 0.0
C458 C 0.19687 0.45612 0.56172 0.0
C459 C 0.19897 0.54822 0.45545 0.0
C460 C 0.23281 0.5845 0.54991 0.0
C461 C 0.1778 0.52495 0.49994 0.0
N462 N 0.1949 0.54306 0.54644 0.0
C463 C 0.25489 0.60873 0.50624 0.0
C464 C 0.2378 0.59037 0.45873 0.0
C465 C 0.17918 0.58507 0.67861 0.0
C466 C 0.02068 0.44477 0.75941 0.0
C467 C 0.09743 0.52607 0.78016 0.0
C468 C 0.05554 0.52022 0.79272 0.0
C469 C 0.01696 0.47925 0.78223 0.0
N470 N 0.10082 0.49202 0.75795 0.0
C471 C 0.06313 0.45182 0.74744 0.0
Co472 Co 0.51397 0.68037 0.74007 0.0
Co473 Co 0.5118 0.69029 0.60927 0.0
O474 O 0.54003 0.6859 0.67225 0.0
C475 C 0.60107 0.76369 0.76422 0.0
O476 O 0.5926 0.78689 0.73076 0.0
C477 C 0.52198 0.61154 0.58777 0.0
O478 O 0.50699 0.59606 0.63357 0.0
O479 O 0.45286 0.63744 0.62926 0.0
O480 O 0.45284 0.6388 0.71435 0.0
H481 H 0.3904 0.69371 0.50726 0.0
H482 H 0.58947 0.66364 0.72655 0.0
O483 O 0.57474 0.7214 0.76921 0.0
H484 H 0.46518 0.52142 0.79501 0.0
H485 H 0.50878 0.66349 0.93048 0.0
H486 H 0.4336 0.68037 0.77963 0.0
H487 H 0.45563 0.58711 0.78072 0.0
H488 H 0.54026 0.66936 0.84498 0.0
O489 O 0.52759 0.64936 0.57337 0.0
H490 H 0.42711 0.68877 0.58545 0.0
H491 H 0.53649 0.70073 0.49933 0.0
H492 H 0.40078 0.67426 0.86436 0.0
H493 H 0.60057 0.59885 0.74061 0.0
H494 H 0.43844 0.66576 0.94056 0.0
H495 H 0.5381 0.52707 0.77497 0.0
O496 O 0.50455 0.73236 0.72652 0.0
H497 H 0.67873 0.77359 0.58415 0.0
H498 H 0.54125 0.78291 0.56992 0.0
H499 H 0.61412 0.84896 0.54684 0.0
H500 H 0.68353 0.84449 0.55377 0.0
H501 H 0.60513 0.70845 0.60726 0.0
H502 H 0.50078 0.70544 0.42014 0.0
H503 H 0.42729 0.7021 0.42383 0.0
O504 O 0.49514 0.73125 0.64211 0.0
C505 C 0.43343 0.62331 0.67213 0.0
C506 C 0.42249 0.69534 0.50516 0.0
C507 C 0.48442 0.70187 0.45628 0.0
N508 N 0.48405 0.69477 0.54702 0.0
C509 C 0.44351 0.69267 0.54933 0.0
C510 C 0.50443 0.69909 0.50123 0.0
C511 C 0.44319 0.7 0.45837 0.0
C512 C 0.56225 0.63262 0.7419 0.0
N513 N 0.52204 0.62924 0.75301 0.0
C514 C 0.56868 0.59601 0.74962 0.0
C515 C 0.5336 0.55573 0.76883 0.0
C516 C 0.49266 0.55252 0.78005 0.0
C517 C 0.48743 0.58981 0.77177 0.0
C518 C 0.49203 0.66714 0.89756 0.0
C519 C 0.4501 0.67648 0.81255 0.0
C520 C 0.50978 0.6706 0.84905 0.0
N521 N 0.48871 0.67501 0.80728 0.0
C522 C 0.43139 0.67312 0.86046 0.0
C523 C 0.45256 0.66839 0.90319 0.0
C524 C 0.495 0.74633 0.68596 0.0
C525 C 0.64872 0.77592 0.58088 0.0
C526 C 0.5713 0.78078 0.57329 0.0
C527 C 0.61247 0.81825 0.56002 0.0
C528 C 0.65139 0.81571 0.56389 0.0
N529 N 0.56895 0.74183 0.58977 0.0
C530 C 0.60696 0.73913 0.59378 0.0
C531 C 0.13106 0.11893 0.0752 0.0
C532 C 0.14144 0.10655 0.02883 0.0
H533 H 0.09988 0.15084 0.11245 0.0
C534 C 0.13262 0.12256 0.98332 0.0
H535 H 0.13768 0.10756 0.11088 0.0
C536 C 0.1106 0.14721 0.98404 0.0
C537 C 0.0971 0.15657 0.03029 0.0
H538 H 0.14064 0.11418 0.94675 0.0
H539 H 0.1021 0.15676 0.94828 0.0
C540 C 0.10925 0.14377 0.07593 0.0
C541 C 0.87421 0.99103 0.07542 0.0
C542 C 0.86181 0.97009 0.02754 0.0
H543 H 0.90896 0.05278 0.11675 0.0
C544 C 0.87119 0.99726 0.9841 0.0
H545 H 0.8673 0.97125 0.10986 0.0
C546 C 0.89532 0.04424 0.98815 0.0
C547 C 0.91043 0.06514 0.03576 0.0
H548 H 0.86201 0.98237 0.94669 0.0
H549 H 0.90388 0.06407 0.95357 0.0
C550 C 0.89811 0.03797 0.0795 0.0
C551 C 0.97604 0.87628 0.0553 0.0
C552 C 0.95106 0.87288 0.01187 0.0
H553 H 0.04083 0.90267 0.08794 0.0
C554 C 0.97365 0.88909 0.96515 0.0
H555 H 0.95985 0.86389 0.09175 0.0
C556 C 0.02045 0.91152 0.96283 0.0
C557 C 0.04552 0.91817 0.00718 0.0
H558 H 0.95542 0.88661 0.93067 0.0
H559 H 0.03688 0.92594 0.92697 0.0
C560 C 0.02269 0.89862 0.05297 0.0
C561 C 0.79505 0.4483 0.41492 0.0
C562 C 0.80948 0.43926 0.36914 0.0
H563 H 0.75907 0.47593 0.45053 0.0
C564 C 0.80332 0.45734 0.32362 0.0
H565 H 0.79944 0.43517 0.4506 0.0
C566 C 0.77996 0.48066 0.32339 0.0
C567 C 0.76232 0.48645 0.36867 0.0
H568 H 0.81441 0.45146 0.28755 0.0
H569 H 0.77366 0.49187 0.28741 0.0
C570 C 0.77172 0.47165 0.41469 0.0
C571 C 0.53348 0.31759 0.39459 0.0
C572 C 0.52612 0.29855 0.34572 0.0
H573 H 0.56431 0.37763 0.43928 0.0
C574 C 0.54031 0.32742 0.30335 0.0
H575 H 0.52276 0.29645 0.42823 0.0
C576 C 0.56431 0.37416 0.30983 0.0
C577 C 0.57453 0.39313 0.35883 0.0
H578 H 0.53513 0.31403 0.26522 0.0
H579 H 0.57666 0.3953 0.27628 0.0
C580 C 0.55734 0.36431 0.40107 0.0
C581 C 0.64272 0.21163 0.38872 0.0
C582 C 0.61982 0.20541 0.34278 0.0
H583 H 0.70606 0.24075 0.42589 0.0
C584 C 0.64467 0.21967 0.29721 0.0
H585 H 0.62471 0.20089 0.4244 0.0
C586 C 0.69142 0.24269 0.29792 0.0
C587 C 0.71439 0.25198 0.34421 0.0
H588 H 0.6282 0.21509 0.26091 0.0
H589 H 0.70942 0.25528 0.26244 0.0
C590 C 0.6895 0.23464 0.38942 0.0
C591 C 0.44275 0.8113 0.7379 0.0
C592 C 0.42991 0.82415 0.69282 0.0
H593 H 0.47383 0.77698 0.77129 0.0
C594 C 0.44472 0.8171 0.64615 0.0
H595 H 0.43237 0.81663 0.77471 0.0
C596 C 0.46872 0.79447 0.64435 0.0
C597 C 0.47836 0.77833 0.68919 0.0
H598 H 0.43576 0.8268 0.6108 0.0
H599 H 0.47758 0.78761 0.60742 0.0
C600 C 0.46673 0.78862 0.73609 0.0
C601 C 0.22929 0.70896 0.6472 0.0
C602 C 0.24229 0.72878 0.69561 0.0
H603 H 0.19889 0.64819 0.6037 0.0
C604 C 0.22879 0.70055 0.73852 0.0
H605 H 0.23874 0.72959 0.61317 0.0
C606 C 0.20582 0.65371 0.73296 0.0
C607 C 0.19575 0.63396 0.68435 0.0
H608 H 0.238 0.71452 0.77634 0.0
H609 H 0.19789 0.63312 0.76688 0.0
C610 C 0.20629 0.66212 0.64163 0.0
C611 C 0.31308 0.55305 0.63049 0.0
C612 C 0.29017 0.54156 0.67735 0.0
H613 H 0.37602 0.58734 0.59195 0.0
C614 C 0.31512 0.55173 0.72235 0.0
H615 H 0.29509 0.54555 0.59489 0.0
C616 C 0.36198 0.576 0.72052 0.0
C617 C 0.38473 0.59048 0.67364 0.0
H618 H 0.29862 0.54326 0.75899 0.0
H619 H 0.38022 0.58527 0.75606 0.0
C620 C 0.35973 0.57715 0.62865 0.0
C621 C 0.14834 0.32753 0.86996 0.0
C622 C 0.10431 0.3099 0.88797 0.0
H623 H 0.20155 0.3778 0.82422 0.0
C624 C 0.07933 0.32962 0.87142 0.0
H625 H 0.16829 0.31284 0.88173 0.0
C626 C 0.09793 0.36598 0.83725 0.0
C627 C 0.14221 0.38396 0.81976 0.0
H628 H 0.04507 0.31636 0.88401 0.0
H629 H 0.07796 0.38064 0.82546 0.0
C630 C 0.16726 0.36449 0.83673 0.0
C631 C 0.70127 0.85491 0.83578 0.0
C632 C 0.70941 0.82922 0.87148 0.0
H633 H 0.66105 0.85445 0.77336 0.0
C634 C 0.68157 0.78211 0.87152 0.0
H635 H 0.72233 0.89127 0.83443 0.0
C636 C 0.64695 0.7611 0.83627 0.0
C637 C 0.63909 0.78661 0.80007 0.0
H638 H 0.68698 0.76121 0.89819 0.0
H639 H 0.62645 0.72467 0.83739 0.0
C640 C 0.66644 0.8338 0.80041 0.0
C641 C 0.2157 0.90495 0.8057 0.0
C642 C 0.23613 0.88089 0.82257 0.0
H643 H 0.1849 0.94311 0.827 0.0
C644 C 0.23696 0.87282 0.87495 0.0
H645 H 0.21479 0.91175 0.76563 0.0
C646 C 0.21919 0.89002 0.91004 0.0
C647 C 0.20133 0.91649 0.89334 0.0
H648 H 0.25238 0.85409 0.88888 0.0
H649 H 0.22147 0.88453 0.95021 0.0
C650 C 0.19892 0.92306 0.84086 0.0
C651 C 0.32143 0.11764 0.23162 0.0
C652 C 0.36606 0.14398 0.21576 0.0
H653 H 0.25288 0.07733 0.20878 0.0
C654 C 0.3754 0.15365 0.16367 0.0
H655 H 0.31337 0.10957 0.27142 0.0
C656 C 0.34082 0.13585 0.12784 0.0
C657 C 0.29648 0.1072 0.14345 0.0
H658 H 0.40965 0.17415 0.1505 0.0
H659 H 0.34901 0.14272 0.0879 0.0
C660 C 0.28697 0.09898 0.1957 0.0
C661 C 0.90741 0.20878 0.21179 0.0
C662 C 0.90627 0.21728 0.15958 0.0
H663 H 0.89183 0.21941 0.28749 0.0
C664 C 0.88516 0.24086 0.14341 0.0
H665 H 0.92333 0.19037 0.22515 0.0
C666 C 0.86805 0.25819 0.17914 0.0
C667 C 0.8708 0.25124 0.23147 0.0
H668 H 0.884 0.24793 0.10347 0.0
H669 H 0.85355 0.27797 0.16587 0.0
C670 C 0.88929 0.22516 0.24745 0.0
C671 C 0.81725 0.6632 0.21044 0.0
C672 C 0.7733 0.64485 0.229 0.0
H673 H 0.86981 0.71451 0.165 0.0
C674 C 0.748 0.66473 0.21428 0.0
H675 H 0.83746 0.64845 0.22081 0.0
C676 C 0.76612 0.70185 0.18127 0.0
C677 C 0.8102 0.72037 0.16296 0.0
H678 H 0.7138 0.651 0.22735 0.0
H679 H 0.74584 0.71652 0.17083 0.0
C680 C 0.83566 0.70083 0.17819 0.0
C681 C 0.98936 0.4492 0.57234 0.0
C682 C 0.0337 0.47732 0.5564 0.0
H683 H 0.92101 0.40712 0.54965 0.0
C684 C 0.04258 0.48811 0.50445 0.0
H685 H 0.98169 0.44021 0.61203 0.0
C686 C 0.0079 0.46975 0.4688 0.0
C687 C 0.96393 0.43945 0.48439 0.0
H688 H 0.0766 0.50993 0.49123 0.0
H689 H 0.01578 0.47762 0.42893 0.0
C690 C 0.95482 0.43003 0.53655 0.0
C691 C 0.56557 0.53847 0.53685 0.0
C692 C 0.56698 0.54695 0.48433 0.0
H693 H 0.5494 0.55172 0.61093 0.0
C694 C 0.54957 0.57329 0.46581 0.0
H695 H 0.57866 0.51802 0.55203 0.0
C696 C 0.53366 0.59322 0.49963 0.0
C697 C 0.53407 0.58632 0.55235 0.0
H698 H 0.55048 0.58046 0.42558 0.0
H699 H 0.52199 0.61492 0.48458 0.0
C700 C 0.54879 0.55761 0.57056 0.0
C701 C 0.40901 0.99542 0.53589 0.0
C702 C 0.43454 0.97651 0.5531 0.0
H703 H 0.40681 0.04542 0.48877 0.0
C704 C 0.47864 0.99451 0.5352 0.0
H705 H 0.37468 0.98183 0.54839 0.0
C706 C 0.49707 0.03098 0.50134 0.0
C707 C 0.47148 0.04961 0.48364 0.0
H708 H 0.499 0.98041 0.54745 0.0
H709 H 0.53142 0.04456 0.48891 0.0
C710 C 0.42715 0.03134 0.5011 0.0
loop_
_geom_bond_atom_site_label_1
_geom_bond_atom_site_label_2
_geom_bond_distance
_geom_bond_site_symmetry_2
_ccdc_geom_bond_type
Co0 O2 2.143 . S
Co0 O8 2.074 . S
Co0 O11 2.093 1_455 S
Co0 O24 2.097 1_455 S
Co0 N41 2.151 . S
Co0 N49 2.214 . S
Co1 O2 2.160 1_556 S
Co1 O7 2.058 . S
Co1 O17 2.057 . S
Co1 O32 2.037 1_455 S
Co1 N36 2.145 1_455 S
Co1 N57 2.257 1_455 S
O2 Co0 2.143 . S
O2 Co1 2.160 1_554 S
C3 O4 1.278 . S
C3 O11 1.224 . S
O4 C3 1.278 . S
C5 O6 1.245 . S
C5 O17 1.232 . S
O6 C5 1.245 . S
O7 Co1 2.058 . S
O7 C33 1.269 1_556 S
O8 Co0 2.074 . S
O8 C33 1.257 . S
H9 C34 0.930 . S
H10 C40 0.930 . S
O11 Co0 2.093 1_655 S
O11 C3 1.224 . S
H12 C44 0.929 . S
H13 C46 0.930 . S
H14 C47 0.930 . S
H15 C45 0.929 . S
H16 C48 0.928 . S
O17 Co1 2.057 . S
O17 C5 1.232 . S
H18 C37 0.929 . S
H19 C38 0.929 . S
H20 C50 0.931 . S
H21 C42 0.929 . S
H22 C51 0.930 . S
H23 C43 0.931 . S
O24 Co0 2.097 1_655 S
O24 C52 1.214 . S
H25 C53 0.929 . S
H26 C54 0.929 . S
H27 C55 0.930 . S
H28 C56 0.929 . S
H29 C58 0.930 . S
H30 C35 0.930 1_455 S
H31 C39 0.930 . S
O32 Co1 2.037 1_655 S
O32 C52 1.234 1_556 S
C33 O7 1.269 1_554 S
C33 O8 1.257 . S
C34 H9 0.930 . S
C34 C37 1.388 . S
C34 C39 1.418 . S
C35 H30 0.930 1_655 S
C35 C38 1.404 1_655 S
C35 C39 1.353 . S
N36 Co1 2.145 1_655 S
N36 C37 1.397 . S
N36 C38 1.334 1_655 S
C37 H18 0.929 . S
C37 C34 1.388 . S
C37 N36 1.397 . S
C38 H19 0.929 . S
C38 C35 1.404 1_455 S
C38 N36 1.334 1_455 S
C39 H31 0.930 . S
C39 C34 1.418 . S
C39 C35 1.353 . S
C40 H10 0.930 . S
C40 N41 1.330 . S
C40 C42 1.446 . S
N41 Co0 2.151 . S
N41 C40 1.330 . S
N41 C45 1.418 . S
C42 H21 0.929 . S
C42 C40 1.446 . S
C42 C43 1.332 . S
C43 H23 0.931 . S
C43 C42 1.332 . S
C43 C44 1.267 . S
C44 H12 0.929 . S
C44 C43 1.267 . S
C44 C45 1.251 . S
C45 H15 0.929 . S
C45 N41 1.418 . S
C45 C44 1.251 . S
C46 H13 0.930 . S
C46 C48 1.406 . S
C46 C51 1.261 . S
C47 H14 0.930 . S
C47 N49 1.325 . S
C47 C50 1.357 . S
C48 H16 0.928 . S
C48 C46 1.406 . S
C48 N49 1.261 . S
N49 Co0 2.214 . S
N49 C47 1.325 . S
N49 C48 1.261 . S
C50 H20 0.931 . S
C50 C47 1.357 . S
C50 C51 1.312 . S
C51 H22 0.930 . S
C51 C46 1.261 . S
C51 C50 1.312 . S
C52 O24 1.214 . S
C52 O32 1.234 1_554 S
C53 H25 0.929 . S
C53 C56 1.391 . S
C53 C58 1.391 . S
C54 H26 0.929 . S
C54 C55 1.390 . S
C54 N57 1.391 . S
C55 H27 0.930 . S
C55 C54 1.390 . S
C55 C56 1.392 . S
C56 H28 0.929 . S
C56 C53 1.391 . S
C56 C55 1.392 . S
N57 Co1 2.257 1_655 S
N57 C54 1.391 . S
N57 C58 1.388 . S
C58 H29 0.930 . S
C58 C53 1.391 . S
C58 N57 1.388 . S
Co59 O61 2.143 1_556 S
Co59 O67 2.074 . S
Co59 O70 2.093 . S
Co59 O83 2.097 . S
Co59 N100 2.151 . S
Co59 N108 2.214 . S
Co60 O61 2.160 . S
Co60 O66 2.058 . S
Co60 O76 2.057 . S
Co60 O91 2.037 . S
Co60 N95 2.145 . S
Co60 N116 2.257 . S
O61 Co59 2.143 1_554 S
O61 Co60 2.160 . S
C62 O63 1.278 . S
C62 O70 1.224 . S
O63 C62 1.278 . S
C64 O65 1.245 . S
C64 O76 1.232 . S
O65 C64 1.245 . S
O66 Co60 2.058 . S
O66 C92 1.269 . S
O67 Co59 2.074 . S
O67 C92 1.257 1_556 S
H68 C93 0.930 . S
H69 C99 0.930 . S
O70 Co59 2.093 . S
O70 C62 1.224 . S
H71 C103 0.929 . S
H72 C105 0.930 . S
H73 C106 0.930 . S
H74 C104 0.929 . S
H75 C107 0.928 . S
O76 Co60 2.057 . S
O76 C64 1.232 . S
H77 C96 0.929 . S
H78 C97 0.929 . S
H79 C109 0.931 . S
H80 C101 0.929 . S
H81 C110 0.930 . S
H82 C102 0.931 . S
O83 Co59 2.097 . S
O83 C111 1.214 1_556 S
H84 C112 0.929 . S
H85 C113 0.929 . S
H86 C114 0.930 . S
H87 C115 0.929 . S
H88 C117 0.930 . S
H89 C94 0.930 . S
H90 C98 0.930 . S
O91 Co60 2.037 . S
O91 C111 1.234 . S
C92 O66 1.269 . S
C92 O67 1.257 1_554 S
C93 H68 0.930 . S
C93 C96 1.388 . S
C93 C98 1.418 . S
C94 H89 0.930 . S
C94 C97 1.404 . S
C94 C98 1.353 . S
N95 Co60 2.145 . S
N95 C96 1.397 . S
N95 C97 1.334 . S
C96 H77 0.929 . S
C96 C93 1.388 . S
C96 N95 1.397 . S
C97 H78 0.929 . S
C97 C94 1.404 . S
C97 N95 1.334 . S
C98 H90 0.930 . S
C98 C93 1.418 . S
C98 C94 1.353 . S
C99 H69 0.930 . S
C99 N100 1.330 . S
C99 C101 1.446 . S
N100 Co59 2.151 . S
N100 C99 1.330 . S
N100 C104 1.418 . S
C101 H80 0.929 . S
C101 C99 1.446 . S
C101 C102 1.332 . S
C102 H82 0.931 . S
C102 C101 1.332 . S
C102 C103 1.267 . S
C103 H71 0.929 . S
C103 C102 1.267 . S
C103 C104 1.251 . S
C104 H74 0.929 . S
C104 N100 1.418 . S
C104 C103 1.251 . S
C105 H72 0.930 . S
C105 C107 1.406 . S
C105 C110 1.261 . S
C106 H73 0.930 . S
C106 N108 1.325 . S
C106 C109 1.357 . S
C107 H75 0.928 . S
C107 C105 1.406 . S
C107 N108 1.261 . S
N108 Co59 2.214 . S
N108 C106 1.325 . S
N108 C107 1.261 . S
C109 H79 0.931 . S
C109 C106 1.357 . S
C109 C110 1.312 . S
C110 H81 0.930 . S
C110 C105 1.261 . S
C110 C109 1.312 . S
C111 O83 1.214 1_554 S
C111 O91 1.234 . S
C112 H84 0.929 . S
C112 C115 1.391 . S
C112 C117 1.391 . S
C113 H85 0.929 . S
C113 C114 1.390 . S
C113 N116 1.391 . S
C114 H86 0.930 . S
C114 C113 1.390 . S
C114 C115 1.392 . S
C115 H87 0.929 . S
C115 C112 1.391 . S
C115 C114 1.392 . S
N116 Co60 2.257 . S
N116 C113 1.391 . S
N116 C117 1.388 . S
C117 H88 0.930 . S
C117 C112 1.391 . S
C117 N116 1.388 . S
Co118 O120 2.143 . S
Co118 O126 2.074 1_545 S
Co118 O129 2.093 . S
Co118 O142 2.097 . S
Co118 N159 2.151 1_545 S
Co118 N167 2.214 . S
Co119 O120 2.160 1_556 S
Co119 O125 2.058 1_545 S
Co119 O135 2.057 1_545 S
Co119 O150 2.037 . S
Co119 N154 2.145 . S
Co119 N175 2.257 . S
O120 Co118 2.143 . S
O120 Co119 2.160 1_554 S
C121 O122 1.278 . S
C121 O129 1.224 . S
O122 C121 1.278 . S
C123 O124 1.245 . S
C123 O135 1.232 . S
O124 C123 1.245 . S
O125 Co119 2.058 1_565 S
O125 C151 1.269 1_556 S
O126 Co118 2.074 1_565 S
O126 C151 1.257 . S
H127 C152 0.930 . S
H128 C158 0.930 . S
O129 Co118 2.093 . S
O129 C121 1.224 . S
H130 C162 0.929 . S
H131 C164 0.931 . S
H132 C165 0.930 . S
H133 C163 0.929 . S
H134 C166 0.928 . S
O135 Co119 2.057 1_565 S
O135 C123 1.232 . S
H136 C155 0.929 . S
H137 C156 0.929 . S
H138 C168 0.931 . S
H139 C160 0.929 . S
H140 C169 0.930 . S
H141 C161 0.931 . S
O142 Co118 2.097 . S
O142 C170 1.214 . S
H143 C171 0.929 . S
H144 C172 0.929 . S
H145 C173 0.930 . S
H146 C174 0.929 . S
H147 C176 0.930 . S
H148 C153 0.930 . S
H149 C157 0.930 . S
O150 Co119 2.037 . S
O150 C170 1.234 1_556 S
C151 O125 1.269 1_554 S
C151 O126 1.257 . S
C152 H127 0.930 . S
C152 C155 1.388 . S
C152 C157 1.418 . S
C153 H148 0.930 . S
C153 C156 1.404 . S
C153 C157 1.353 . S
N154 Co119 2.145 . S
N154 C155 1.397 . S
N154 C156 1.334 . S
C155 H136 0.929 . S
C155 C152 1.388 . S
C155 N154 1.397 . S
C156 H137 0.929 . S
C156 C153 1.404 . S
C156 N154 1.334 . S
C157 H149 0.930 . S
C157 C152 1.418 . S
C157 C153 1.353 . S
C158 H128 0.930 . S
C158 N159 1.330 . S
C158 C160 1.446 . S
N159 Co118 2.151 1_565 S
N159 C158 1.330 . S
N159 C163 1.418 . S
C160 H139 0.929 . S
C160 C158 1.446 . S
C160 C161 1.332 . S
C161 H141 0.931 . S
C161 C160 1.332 . S
C161 C162 1.267 . S
C162 H130 0.929 . S
C162 C161 1.267 . S
C162 C163 1.251 . S
C163 H133 0.929 . S
C163 N159 1.418 . S
C163 C162 1.251 . S
C164 H131 0.931 . S
C164 C166 1.406 . S
C164 C169 1.261 . S
C165 H132 0.930 . S
C165 N167 1.325 . S
C165 C168 1.357 . S
C166 H134 0.928 . S
C166 C164 1.406 . S
C166 N167 1.261 . S
N167 Co118 2.214 . S
N167 C165 1.325 . S
N167 C166 1.261 . S
C168 H138 0.931 . S
C168 C165 1.357 . S
C168 C169 1.312 . S
C169 H140 0.930 . S
C169 C164 1.261 . S
C169 C168 1.312 . S
C170 O142 1.214 . S
C170 O150 1.234 1_554 S
C171 H143 0.929 . S
C171 C174 1.391 . S
C171 C176 1.391 . S
C172 H144 0.929 . S
C172 C173 1.390 . S
C172 N175 1.391 . S
C173 H145 0.930 . S
C173 C172 1.390 . S
C173 C174 1.392 . S
C174 H146 0.929 . S
C174 C171 1.391 . S
C174 C173 1.392 . S
N175 Co119 2.257 . S
N175 C172 1.391 . S
N175 C176 1.388 . S
C176 H147 0.930 . S
C176 C171 1.391 . S
C176 N175 1.388 . S
Co177 O179 2.143 . S
Co177 O185 2.074 . S
Co177 O188 2.093 . S
Co177 O201 2.097 . S
Co177 N218 2.151 . S
Co177 N226 2.214 . S
Co178 O179 2.160 . S
Co178 O184 2.058 . S
Co178 O194 2.057 . S
Co178 O209 2.037 . S
Co178 N213 2.145 . S
Co178 N234 2.257 . S
O179 Co177 2.143 . S
O179 Co178 2.160 . S
C180 O181 1.278 . S
C180 O188 1.224 . S
O181 C180 1.278 . S
C182 O183 1.245 . S
C182 O194 1.232 . S
O183 C182 1.245 . S
O184 Co178 2.058 . S
O184 C210 1.269 . S
O185 Co177 2.074 . S
O185 C210 1.257 . S
H186 C211 0.930 . S
H187 C217 0.930 . S
O188 Co177 2.093 . S
O188 C180 1.224 . S
H189 C221 0.929 . S
H190 C223 0.930 . S
H191 C224 0.930 . S
H192 C222 0.929 . S
H193 C225 0.928 . S
O194 Co178 2.057 . S
O194 C182 1.232 . S
H195 C214 0.929 . S
H196 C215 0.929 . S
H197 C227 0.931 . S
H198 C219 0.929 . S
H199 C228 0.930 . S
H200 C220 0.931 . S
O201 Co177 2.097 . S
O201 C229 1.214 . S
H202 C230 0.929 . S
H203 C231 0.929 . S
H204 C232 0.930 . S
H205 C233 0.929 . S
H206 C235 0.930 . S
H207 C212 0.930 . S
H208 C216 0.930 . S
O209 Co178 2.037 . S
O209 C229 1.234 . S
C210 O184 1.269 . S
C210 O185 1.257 . S
C211 H186 0.930 . S
C211 C214 1.388 . S
C211 C216 1.418 . S
C212 H207 0.930 . S
C212 C215 1.404 . S
C212 C216 1.353 . S
N213 Co178 2.145 . S
N213 C214 1.397 . S
N213 C215 1.334 . S
C214 H195 0.929 . S
C214 C211 1.388 . S
C214 N213 1.397 . S
C215 H196 0.929 . S
C215 C212 1.404 . S
C215 N213 1.334 . S
C216 H208 0.930 . S
C216 C211 1.418 . S
C216 C212 1.353 . S
C217 H187 0.930 . S
C217 N218 1.330 . S
C217 C219 1.446 . S
N218 Co177 2.151 . S
N218 C217 1.330 . S
N218 C222 1.418 . S
C219 H198 0.929 . S
C219 C217 1.446 . S
C219 C220 1.332 . S
C220 H200 0.931 . S
C220 C219 1.332 . S
C220 C221 1.267 . S
C221 H189 0.929 . S
C221 C220 1.267 . S
C221 C222 1.251 . S
C222 H192 0.929 . S
C222 N218 1.418 . S
C222 C221 1.251 . S
C223 H190 0.930 . S
C223 C225 1.406 . S
C223 C228 1.261 . S
C224 H191 0.930 . S
C224 N226 1.325 . S
C224 C227 1.357 . S
C225 H193 0.928 . S
C225 C223 1.406 . S
C225 N226 1.261 . S
N226 Co177 2.214 . S
N226 C224 1.325 . S
N226 C225 1.261 . S
C227 H197 0.931 . S
C227 C224 1.357 . S
C227 C228 1.312 . S
C228 H199 0.930 . S
C228 C223 1.261 . S
C228 C227 1.312 . S
C229 O201 1.214 . S
C229 O209 1.234 . S
C230 H202 0.929 . S
C230 C233 1.391 . S
C230 C235 1.391 . S
C231 H203 0.929 . S
C231 C232 1.390 . S
C231 N234 1.391 . S
C232 H204 0.930 . S
C232 C231 1.390 . S
C232 C233 1.392 . S
C233 H205 0.929 . S
C233 C230 1.391 . S
C233 C232 1.392 . S
N234 Co178 2.257 . S
N234 C231 1.391 . S
N234 C235 1.388 . S
C235 H206 0.930 . S
C235 C230 1.391 . S
C235 N234 1.388 . S
Co236 O238 2.143 . S
Co236 O244 2.074 . S
Co236 O247 2.093 . S
Co236 O260 2.097 . S
Co236 N277 2.151 . S
Co236 N285 2.214 . S
Co237 O238 2.160 . S
Co237 O243 2.058 . S
Co237 O253 2.057 . S
Co237 O268 2.037 . S
Co237 N272 2.145 . S
Co237 N293 2.257 . S
O238 Co236 2.143 . S
O238 Co237 2.160 . S
C239 O240 1.278 . S
C239 O247 1.224 . S
O240 C239 1.278 . S
C241 O242 1.245 . S
C241 O253 1.232 . S
O242 C241 1.245 . S
O243 Co237 2.058 . S
O243 C269 1.269 . S
O244 Co236 2.074 . S
O244 C269 1.257 . S
H245 C270 0.930 . S
H246 C276 0.930 . S
O247 Co236 2.093 . S
O247 C239 1.224 . S
H248 C280 0.929 . S
H249 C282 0.930 . S
H250 C283 0.930 . S
H251 C281 0.929 . S
H252 C284 0.928 . S
O253 Co237 2.057 . S
O253 C241 1.232 . S
H254 C273 0.929 . S
H255 C274 0.929 . S
H256 C286 0.931 . S
H257 C278 0.929 . S
H258 C287 0.930 . S
H259 C279 0.931 . S
O260 Co236 2.097 . S
O260 C288 1.214 . S
H261 C289 0.929 . S
H262 C290 0.929 . S
H263 C291 0.930 . S
H264 C292 0.929 . S
H265 C294 0.930 . S
H266 C271 0.930 . S
H267 C275 0.930 . S
O268 Co237 2.037 . S
O268 C288 1.234 . S
C269 O243 1.269 . S
C269 O244 1.257 . S
C270 H245 0.930 . S
C270 C273 1.388 . S
C270 C275 1.418 . S
C271 H266 0.930 . S
C271 C274 1.404 . S
C271 C275 1.353 . S
N272 Co237 2.145 . S
N272 C273 1.397 . S
N272 C274 1.334 . S
C273 H254 0.929 . S
C273 C270 1.388 . S
C273 N272 1.397 . S
C274 H255 0.929 . S
C274 C271 1.404 . S
C274 N272 1.334 . S
C275 H267 0.930 . S
C275 C270 1.418 . S
C275 C271 1.353 . S
C276 H246 0.930 . S
C276 N277 1.330 . S
C276 C278 1.446 . S
N277 Co236 2.151 . S
N277 C276 1.330 . S
N277 C281 1.418 . S
C278 H257 0.929 . S
C278 C276 1.446 . S
C278 C279 1.332 . S
C279 H259 0.931 . S
C279 C278 1.332 . S
C279 C280 1.267 . S
C280 H248 0.929 . S
C280 C279 1.267 . S
C280 C281 1.251 . S
C281 H251 0.929 . S
C281 N277 1.418 . S
C281 C280 1.251 . S
C282 H249 0.930 . S
C282 C284 1.406 . S
C282 C287 1.261 . S
C283 H250 0.930 . S
C283 N285 1.325 . S
C283 C286 1.357 . S
C284 H252 0.928 . S
C284 C282 1.406 . S
C284 N285 1.261 . S
N285 Co236 2.214 . S
N285 C283 1.325 . S
N285 C284 1.261 . S
C286 H256 0.931 . S
C286 C283 1.357 . S
C286 C287 1.312 . S
C287 H258 0.930 . S
C287 C282 1.261 . S
C287 C286 1.312 . S
C288 O260 1.214 . S
C288 O268 1.234 . S
C289 H261 0.929 . S
C289 C292 1.391 . S
C289 C294 1.391 . S
C290 H262 0.929 . S
C290 C291 1.390 . S
C290 N293 1.391 . S
C291 H263 0.930 . S
C291 C290 1.390 . S
C291 C292 1.392 . S
C292 H264 0.929 . S
C292 C289 1.391 . S
C292 C291 1.392 . S
N293 Co237 2.257 . S
N293 C290 1.391 . S
N293 C294 1.388 . S
C294 H265 0.930 . S
C294 C289 1.391 . S
C294 N293 1.388 . S
Co295 O297 2.143 . S
Co295 O303 2.074 . S
Co295 O306 2.093 . S
Co295 O319 2.097 . S
Co295 N336 2.151 . S
Co295 N344 2.214 . S
Co296 O297 2.160 . S
Co296 O302 2.058 . S
Co296 O312 2.057 . S
Co296 O327 2.037 . S
Co296 N331 2.145 . S
Co296 N352 2.257 . S
O297 Co295 2.143 . S
O297 Co296 2.160 . S
C298 O299 1.278 . S
C298 O306 1.224 . S
O299 C298 1.278 . S
C300 O301 1.245 . S
C300 O312 1.232 . S
O301 C300 1.245 . S
O302 Co296 2.058 . S
O302 C328 1.269 . S
O303 Co295 2.074 . S
O303 C328 1.257 . S
H304 C329 0.930 . S
H305 C335 0.930 . S
O306 Co295 2.093 . S
O306 C298 1.224 . S
H307 C339 0.929 . S
H308 C341 0.930 . S
H309 C342 0.930 . S
H310 C340 0.929 . S
H311 C343 0.928 . S
O312 Co296 2.057 . S
O312 C300 1.232 . S
H313 C332 0.929 . S
H314 C333 0.929 . S
H315 C345 0.931 . S
H316 C337 0.929 1_455 S
H317 C346 0.930 . S
H318 C338 0.931 . S
O319 Co295 2.097 . S
O319 C347 1.214 . S
H320 C348 0.929 . S
H321 C349 0.929 . S
H322 C350 0.930 . S
H323 C351 0.929 . S
H324 C353 0.930 . S
H325 C330 0.930 . S
H326 C334 0.930 . S
O327 Co296 2.037 . S
O327 C347 1.234 . S
C328 O302 1.269 . S
C328 O303 1.257 . S
C329 H304 0.930 . S
C329 C332 1.388 . S
C329 C334 1.418 . S
C330 H325 0.930 . S
C330 C333 1.404 . S
C330 C334 1.353 . S
N331 Co296 2.145 . S
N331 C332 1.397 . S
N331 C333 1.334 . S
C332 H313 0.929 . S
C332 C329 1.388 . S
C332 N331 1.397 . S
C333 H314 0.929 . S
C333 C330 1.404 . S
C333 N331 1.334 . S
C334 H326 0.930 . S
C334 C329 1.418 . S
C334 C330 1.353 . S
C335 H305 0.930 . S
C335 N336 1.330 . S
C335 C337 1.446 . S
N336 Co295 2.151 . S
N336 C335 1.330 . S
N336 C340 1.418 . S
C337 H316 0.929 1_655 S
C337 C335 1.446 . S
C337 C338 1.332 . S
C338 H318 0.931 . S
C338 C337 1.332 . S
C338 C339 1.267 . S
C339 H307 0.929 . S
C339 C338 1.267 . S
C339 C340 1.251 . S
C340 H310 0.929 . S
C340 N336 1.418 . S
C340 C339 1.251 . S
C341 H308 0.930 . S
C341 C343 1.406 . S
C341 C346 1.261 . S
C342 H309 0.930 . S
C342 N344 1.325 . S
C342 C345 1.357 . S
C343 H311 0.928 . S
C343 C341 1.406 . S
C343 N344 1.261 . S
N344 Co295 2.214 . S
N344 C342 1.325 . S
N344 C343 1.261 . S
C345 H315 0.931 . S
C345 C342 1.357 . S
C345 C346 1.312 . S
C346 H317 0.930 . S
C346 C341 1.261 . S
C346 C345 1.312 . S
C347 O319 1.214 . S
C347 O327 1.234 . S
C348 H320 0.929 . S
C348 C351 1.391 . S
C348 C353 1.391 . S
C349 H321 0.929 . S
C349 C350 1.390 . S
C349 N352 1.391 . S
C350 H322 0.930 . S
C350 C349 1.390 . S
C350 C351 1.392 . S
C351 H323 0.929 . S
C351 C348 1.391 . S
C351 C350 1.392 . S
N352 Co296 2.257 . S
N352 C349 1.391 . S
N352 C353 1.388 . S
C353 H324 0.930 . S
C353 C348 1.391 . S
C353 N352 1.388 . S
Co354 O356 2.143 . S
Co354 O362 2.074 . S
Co354 O365 2.093 . S
Co354 O378 2.097 . S
Co354 N395 2.151 . S
Co354 N403 2.214 . S
Co355 O356 2.160 . S
Co355 O361 2.058 . S
Co355 O371 2.057 . S
Co355 O386 2.037 . S
Co355 N390 2.145 . S
Co355 N411 2.257 . S
O356 Co354 2.143 . S
O356 Co355 2.160 . S
C357 O358 1.278 . S
C357 O365 1.224 . S
O358 C357 1.278 . S
C359 O360 1.245 . S
C359 O371 1.232 . S
O360 C359 1.245 . S
O361 Co355 2.058 . S
O361 C387 1.269 . S
O362 Co354 2.074 . S
O362 C387 1.257 . S
H363 C388 0.930 . S
H364 C394 0.930 . S
O365 Co354 2.093 . S
O365 C357 1.224 . S
H366 C398 0.929 . S
H367 C400 0.930 . S
H368 C401 0.930 . S
H369 C399 0.929 . S
H370 C402 0.928 . S
O371 Co355 2.057 . S
O371 C359 1.232 . S
H372 C391 0.929 . S
H373 C392 0.929 . S
H374 C404 0.931 . S
H375 C396 0.929 1_545 S
H376 C405 0.930 . S
H377 C397 0.931 . S
O378 Co354 2.097 . S
O378 C406 1.214 . S
H379 C407 0.929 . S
H380 C408 0.929 . S
H381 C409 0.930 . S
H382 C410 0.929 . S
H383 C412 0.930 . S
H384 C389 0.930 . S
H385 C393 0.930 . S
O386 Co355 2.037 . S
O386 C406 1.234 . S
C387 O361 1.269 . S
C387 O362 1.257 . S
C388 H363 0.930 . S
C388 C391 1.388 . S
C388 C393 1.418 . S
C389 H384 0.930 . S
C389 C392 1.404 . S
C389 C393 1.353 . S
N390 Co355 2.145 . S
N390 C391 1.397 . S
N390 C392 1.334 . S
C391 H372 0.929 . S
C391 C388 1.388 . S
C391 N390 1.397 . S
C392 H373 0.929 . S
C392 C389 1.404 . S
C392 N390 1.334 . S
C393 H385 0.930 . S
C393 C388 1.418 . S
C393 C389 1.353 . S
C394 H364 0.930 . S
C394 N395 1.330 . S
C394 C396 1.446 . S
N395 Co354 2.151 . S
N395 C394 1.330 . S
N395 C399 1.418 . S
C396 H375 0.929 1_565 S
C396 C394 1.446 . S
C396 C397 1.332 . S
C397 H377 0.931 . S
C397 C396 1.332 . S
C397 C398 1.267 . S
C398 H366 0.929 . S
C398 C397 1.267 . S
C398 C399 1.251 . S
C399 H369 0.929 . S
C399 N395 1.418 . S
C399 C398 1.251 . S
C400 H367 0.930 . S
C400 C402 1.406 . S
C400 C405 1.261 . S
C401 H368 0.930 . S
C401 N403 1.325 . S
C401 C404 1.357 . S
C402 H370 0.928 . S
C402 C400 1.406 . S
C402 N403 1.261 . S
N403 Co354 2.214 . S
N403 C401 1.325 . S
N403 C402 1.261 . S
C404 H374 0.931 . S
C404 C401 1.357 . S
C404 C405 1.312 . S
C405 H376 0.930 . S
C405 C400 1.261 . S
C405 C404 1.312 . S
C406 O378 1.214 . S
C406 O386 1.234 . S
C407 H379 0.929 . S
C407 C410 1.391 . S
C407 C412 1.391 . S
C408 H380 0.929 . S
C408 C409 1.390 . S
C408 N411 1.391 . S
C409 H381 0.930 . S
C409 C408 1.390 . S
C409 C410 1.392 . S
C410 H382 0.929 . S
C410 C407 1.391 . S
C410 C409 1.392 . S
N411 Co355 2.257 . S
N411 C408 1.391 . S
N411 C412 1.388 . S
C412 H383 0.930 . S
C412 C407 1.391 . S
C412 N411 1.388 . S
Co413 O415 2.143 . S
Co413 O421 2.074 . S
Co413 O424 2.093 . S
Co413 O437 2.097 . S
Co413 N454 2.151 . S
Co413 N462 2.214 . S
Co414 O415 2.160 . S
Co414 O420 2.058 . S
Co414 O430 2.057 . S
Co414 O445 2.037 . S
Co414 N449 2.145 . S
Co414 N470 2.257 . S
O415 Co413 2.143 . S
O415 Co414 2.160 . S
C416 O417 1.278 . S
C416 O424 1.224 . S
O417 C416 1.278 . S
C418 O419 1.245 . S
C418 O430 1.232 . S
O419 C418 1.245 . S
O420 Co414 2.058 . S
O420 C446 1.269 . S
O421 Co413 2.074 . S
O421 C446 1.257 . S
H422 C447 0.930 . S
H423 C453 0.930 . S
O424 Co413 2.093 . S
O424 C416 1.224 . S
H425 C457 0.929 . S
H426 C459 0.930 . S
H427 C460 0.930 . S
H428 C458 0.929 . S
H429 C461 0.928 . S
O430 Co414 2.057 . S
O430 C418 1.232 . S
H431 C450 0.929 . S
H432 C451 0.929 . S
H433 C463 0.931 . S
H434 C455 0.929 . S
H435 C464 0.930 . S
H436 C456 0.931 . S
O437 Co413 2.097 . S
O437 C465 1.214 . S
H438 C466 0.929 1_655 S
H439 C467 0.929 . S
H440 C468 0.930 . S
H441 C469 0.929 1_655 S
H442 C471 0.930 . S
H443 C448 0.930 . S
H444 C452 0.930 . S
O445 Co414 2.037 . S
O445 C465 1.234 . S
C446 O420 1.269 . S
C446 O421 1.257 . S
C447 H422 0.930 . S
C447 C450 1.388 . S
C447 C452 1.418 . S
C448 H443 0.930 . S
C448 C451 1.404 . S
C448 C452 1.353 . S
N449 Co414 2.145 . S
N449 C450 1.397 . S
N449 C451 1.334 . S
C450 H431 0.929 . S
C450 C447 1.388 . S
C450 N449 1.397 . S
C451 H432 0.929 . S
C451 C448 1.404 . S
C451 N449 1.334 . S
C452 H444 0.930 . S
C452 C447 1.418 . S
C452 C448 1.353 . S
C453 H423 0.930 . S
C453 N454 1.330 . S
C453 C455 1.446 . S
N454 Co413 2.151 . S
N454 C453 1.330 . S
N454 C458 1.418 . S
C455 H434 0.929 . S
C455 C453 1.446 . S
C455 C456 1.332 . S
C456 H436 0.931 . S
C456 C455 1.332 . S
C456 C457 1.267 . S
C457 H425 0.929 . S
C457 C456 1.267 . S
C457 C458 1.251 . S
C458 H428 0.929 . S
C458 N454 1.418 . S
C458 C457 1.251 . S
C459 H426 0.930 . S
C459 C461 1.406 . S
C459 C464 1.261 . S
C460 H427 0.930 . S
C460 N462 1.325 . S
C460 C463 1.357 . S
C461 H429 0.928 . S
C461 C459 1.406 . S
C461 N462 1.261 . S
N462 Co413 2.214 . S
N462 C460 1.325 . S
N462 C461 1.261 . S
C463 H433 0.931 . S
C463 C460 1.357 . S
C463 C464 1.312 . S
C464 H435 0.930 . S
C464 C459 1.261 . S
C464 C463 1.312 . S
C465 O437 1.214 . S
C465 O445 1.234 . S
C466 H438 0.929 1_455 S
C466 C469 1.391 . S
C466 C471 1.391 . S
C467 H439 0.929 . S
C467 C468 1.390 . S
C467 N470 1.391 . S
C468 H440 0.930 . S
C468 C467 1.390 . S
C468 C469 1.392 . S
C469 H441 0.929 1_455 S
C469 C466 1.391 . S
C469 C468 1.392 . S
N470 Co414 2.257 . S
N470 C467 1.391 . S
N470 C471 1.388 . S
C471 H442 0.930 . S
C471 C466 1.391 . S
C471 N470 1.388 . S
Co472 O474 2.143 . S
Co472 O480 2.074 . S
Co472 O483 2.093 . S
Co472 O496 2.097 . S
Co472 N513 2.151 . S
Co472 N521 2.214 . S
Co473 O474 2.160 . S
Co473 O479 2.058 . S
Co473 O489 2.057 . S
Co473 O504 2.037 . S
Co473 N508 2.145 . S
Co473 N529 2.257 . S
O474 Co472 2.143 . S
O474 Co473 2.160 . S
C475 O476 1.278 . S
C475 O483 1.224 . S
O476 C475 1.278 . S
C477 O478 1.245 . S
C477 O489 1.232 . S
O478 C477 1.245 . S
O479 Co473 2.058 . S
O479 C505 1.269 . S
O480 Co472 2.074 . S
O480 C505 1.257 . S
H481 C506 0.930 . S
H482 C512 0.930 . S
O483 Co472 2.093 . S
O483 C475 1.224 . S
H484 C516 0.929 . S
H485 C518 0.930 . S
H486 C519 0.930 . S
H487 C517 0.929 . S
H488 C520 0.928 . S
O489 Co473 2.057 . S
O489 C477 1.232 . S
H490 C509 0.929 . S
H491 C510 0.929 . S
H492 C522 0.931 . S
H493 C514 0.929 . S
H494 C523 0.930 . S
H495 C515 0.931 . S
O496 Co472 2.097 . S
O496 C524 1.214 . S
H497 C525 0.929 . S
H498 C526 0.929 . S
H499 C527 0.930 . S
H500 C528 0.929 . S
H501 C530 0.930 . S
H502 C507 0.930 . S
H503 C511 0.930 . S
O504 Co473 2.037 . S
O504 C524 1.234 . S
C505 O479 1.269 . S
C505 O480 1.257 . S
C506 H481 0.930 . S
C506 C509 1.388 . S
C506 C511 1.418 . S
C507 H502 0.930 . S
C507 C510 1.404 . S
C507 C511 1.353 . S
N508 Co473 2.145 . S
N508 C509 1.397 . S
N508 C510 1.334 . S
C509 H490 0.929 . S
C509 C506 1.388 . S
C509 N508 1.397 . S
C510 H491 0.929 . S
C510 C507 1.404 . S
C510 N508 1.334 . S
C511 H503 0.930 . S
C511 C506 1.418 . S
C511 C507 1.353 . S
C512 H482 0.930 . S
C512 N513 1.330 . S
C512 C514 1.446 . S
N513 Co472 2.151 . S
N513 C512 1.330 . S
N513 C517 1.418 . S
C514 H493 0.929 . S
C514 C512 1.446 . S
C514 C515 1.332 . S
C515 H495 0.931 . S
C515 C514 1.332 . S
C515 C516 1.267 . S
C516 H484 0.929 . S
C516 C515 1.267 . S
C516 C517 1.251 . S
C517 H487 0.929 . S
C517 N513 1.418 . S
C517 C516 1.251 . S
C518 H485 0.930 . S
C518 C520 1.406 . S
C518 C523 1.261 . S
C519 H486 0.930 . S
C519 N521 1.325 . S
C519 C522 1.357 . S
C520 H488 0.928 . S
C520 C518 1.406 . S
C520 N521 1.261 . S
N521 Co472 2.214 . S
N521 C519 1.325 . S
N521 C520 1.261 . S
C522 H492 0.931 . S
C522 C519 1.357 . S
C522 C523 1.312 . S
C523 H494 0.930 . S
C523 C518 1.261 . S
C523 C522 1.312 . S
C524 O496 1.214 . S
C524 O504 1.234 . S
C525 H497 0.929 . S
C525 C528 1.391 . S
C525 C530 1.391 . S
C526 H498 0.929 . S
C526 C527 1.390 . S
C526 N529 1.391 . S
C527 H499 0.930 . S
C527 C526 1.390 . S
C527 C528 1.392 . S
C528 H500 0.929 . S
C528 C525 1.391 . S
C528 C527 1.392 . S
N529 Co473 2.257 . S
N529 C526 1.391 . S
N529 C530 1.388 . S
C530 H501 0.930 . S
C530 C525 1.391 . S
C530 N529 1.388 . S
C531 C532 1.387 . S
C531 H535 0.950 . S
C531 C540 1.390 . S
C532 C531 1.387 . S
C532 C534 1.387 1_554 S
H533 C540 0.950 . S
C534 C532 1.387 1_556 S
C534 C536 1.390 . S
C534 H538 0.950 . S
H535 C531 0.950 . S
C536 C534 1.390 . S
C536 C537 1.387 1_556 S
C536 H539 0.950 . S
C537 C536 1.387 1_554 S
C537 C540 1.387 . S
H538 C534 0.950 . S
H539 C536 0.950 . S
C540 C531 1.390 . S
C540 H533 0.950 . S
C540 C537 1.387 . S
C541 C542 1.387 . S
C541 H545 0.950 . S
C541 C550 1.390 1_565 S
C542 C541 1.387 . S
C542 C544 1.387 . S
H543 C550 0.950 . S
C544 C542 1.387 . S
C544 C546 1.390 1_565 S
C544 H548 0.950 . S
H545 C541 0.950 . S
C546 C544 1.390 1_545 S
C546 C547 1.387 . S
C546 H549 0.950 . S
C547 C546 1.387 . S
C547 C550 1.387 . S
H548 C544 0.950 . S
H549 C546 0.950 . S
C550 C541 1.390 1_545 S
C550 H543 0.950 . S
C550 C547 1.387 . S
C551 C552 1.387 . S
C551 H555 0.950 . S
C551 C560 1.390 1_655 S
C552 C551 1.387 . S
C552 C554 1.387 1_554 S
H553 C560 0.950 . S
C554 C552 1.387 1_556 S
C554 C556 1.390 1_655 S
C554 H558 0.950 . S
H555 C551 0.950 . S
C556 C554 1.390 1_455 S
C556 C557 1.387 1_556 S
C556 H559 0.950 . S
C557 C556 1.387 1_554 S
C557 C560 1.387 . S
H558 C554 0.950 . S
H559 C556 0.950 . S
C560 C551 1.390 1_455 S
C560 H553 0.950 . S
C560 C557 1.387 . S
C561 C562 1.387 . S
C561 H565 0.950 . S
C561 C570 1.390 . S
C562 C561 1.387 . S
C562 C564 1.387 . S
H563 C570 0.950 . S
C564 C562 1.387 . S
C564 C566 1.390 . S
C564 H568 0.950 . S
H565 C561 0.950 . S
C566 C564 1.390 . S
C566 C567 1.387 . S
C566 H569 0.950 . S
C567 C566 1.387 . S
C567 C570 1.387 . S
H568 C564 0.950 . S
H569 C566 0.950 . S
C570 C561 1.390 . S
C570 H563 0.950 . S
C570 C567 1.387 . S
C571 C572 1.387 . S
C571 H575 0.950 . S
C571 C580 1.390 . S
C572 C571 1.387 . S
C572 C574 1.387 . S
H573 C580 0.950 . S
C574 C572 1.387 . S
C574 C576 1.390 . S
C574 H578 0.950 . S
H575 C571 0.950 . S
C576 C574 1.390 . S
C576 C577 1.387 . S
C576 H579 0.950 . S
C577 C576 1.387 . S
C577 C580 1.387 . S
H578 C574 0.950 . S
H579 C576 0.950 . S
C580 C571 1.390 . S
C580 H573 0.950 . S
C580 C577 1.387 . S
C581 C582 1.387 . S
C581 H585 0.950 . S
C581 C590 1.390 . S
C582 C581 1.387 . S
C582 C584 1.387 . S
H583 C590 0.950 . S
C584 C582 1.387 . S
C584 C586 1.390 . S
C584 H588 0.950 . S
H585 C581 0.950 . S
C586 C584 1.390 . S
C586 C587 1.387 . S
C586 H589 0.950 . S
C587 C586 1.387 . S
C587 C590 1.387 . S
H588 C584 0.950 . S
H589 C586 0.950 . S
C590 C581 1.390 . S
C590 H583 0.950 . S
C590 C587 1.387 . S
C591 C592 1.387 . S
C591 H595 0.950 . S
C591 C600 1.390 . S
C592 C591 1.387 . S
C592 C594 1.387 . S
H593 C600 0.950 . S
C594 C592 1.387 . S
C594 C596 1.390 . S
C594 H598 0.950 . S
H595 C591 0.950 . S
C596 C594 1.390 . S
C596 C597 1.387 . S
C596 H599 0.950 . S
C597 C596 1.387 . S
C597 C600 1.387 . S
H598 C594 0.950 . S
H599 C596 0.950 . S
C600 C591 1.390 . S
C600 H593 0.950 . S
C600 C597 1.387 . S
C601 C602 1.387 . S
C601 H605 0.950 . S
C601 C610 1.390 . S
C602 C601 1.387 . S
C602 C604 1.387 . S
H603 C610 0.950 . S
C604 C602 1.387 . S
C604 C606 1.390 . S
C604 H608 0.950 . S
H605 C601 0.950 . S
C606 C604 1.390 . S
C606 C607 1.387 . S
C606 H609 0.950 . S
C607 C606 1.387 . S
C607 C610 1.387 . S
H608 C604 0.950 . S
H609 C606 0.950 . S
C610 C601 1.390 . S
C610 H603 0.950 . S
C610 C607 1.387 . S
C611 C612 1.387 . S
C611 H615 0.950 . S
C611 C620 1.390 . S
C612 C611 1.387 . S
C612 C614 1.387 . S
H613 C620 0.950 . S
C614 C612 1.387 . S
C614 C616 1.390 . S
C614 H618 0.950 . S
H615 C611 0.950 . S
C616 C614 1.390 . S
C616 C617 1.387 . S
C616 H619 0.950 . S
C617 C616 1.387 . S
C617 C620 1.387 . S
H618 C614 0.950 . S
H619 C616 0.950 . S
C620 C611 1.390 . S
C620 H613 0.950 . S
C620 C617 1.387 . S
C621 C622 1.387 . S
C621 H625 0.950 . S
C621 C630 1.390 . S
C622 C621 1.387 . S
C622 C624 1.387 . S
H623 C630 0.950 . S
C624 C622 1.387 . S
C624 C626 1.390 . S
C624 H628 0.950 . S
H625 C621 0.950 . S
C626 C624 1.390 . S
C626 C627 1.387 . S
C626 H629 0.950 . S
C627 C626 1.387 . S
C627 C630 1.387 . S
H628 C624 0.950 . S
H629 C626 0.950 . S
C630 C621 1.390 . S
C630 H623 0.950 . S
C630 C627 1.387 . S
C631 C632 1.387 . S
C631 H635 0.950 . S
C631 C640 1.390 . S
C632 C631 1.387 . S
C632 C634 1.387 . S
H633 C640 0.950 . S
C634 C632 1.387 . S
C634 C636 1.390 . S
C634 H638 0.950 . S
H635 C631 0.950 . S
C636 C634 1.390 . S
C636 C637 1.387 . S
C636 H639 0.950 . S
C637 C636 1.387 . S
C637 C640 1.387 . S
H638 C634 0.950 . S
H639 C636 0.950 . S
C640 C631 1.390 . S
C640 H633 0.950 . S
C640 C637 1.387 . S
C641 C642 1.387 . S
C641 H645 0.950 . S
C641 C650 1.390 . S
C642 C641 1.387 . S
C642 C644 1.387 . S
H643 C650 0.950 1_545 S
C644 C642 1.387 . S
C644 C646 1.390 . S
C644 H648 0.950 . S
H645 C641 0.950 . S
C646 C644 1.390 . S
C646 C647 1.387 . S
C646 H649 0.950 . S
C647 C646 1.387 . S
C647 C650 1.387 . S
H648 C644 0.950 . S
H649 C646 0.950 . S
C650 C641 1.390 . S
C650 H643 0.950 1_565 S
C650 C647 1.387 . S
C651 C652 1.387 . S
C651 H655 0.950 . S
C651 C660 1.390 . S
C652 C651 1.387 . S
C652 C654 1.387 . S
H653 C660 0.950 . S
C654 C652 1.387 . S
C654 C656 1.390 . S
C654 H658 0.950 . S
H655 C651 0.950 . S
C656 C654 1.390 . S
C656 C657 1.387 . S
C656 H659 0.950 . S
C657 C656 1.387 . S
C657 C660 1.387 . S
H658 C654 0.950 . S
H659 C656 0.950 . S
C660 C651 1.390 . S
C660 H653 0.950 . S
C660 C657 1.387 . S
C661 C662 1.387 . S
C661 H665 0.950 . S
C661 C670 1.390 . S
C662 C661 1.387 . S
C662 C664 1.387 . S
H663 C670 0.950 . S
C664 C662 1.387 . S
C664 C666 1.390 . S
C664 H668 0.950 . S
H665 C661 0.950 . S
C666 C664 1.390 . S
C666 C667 1.387 . S
C666 H669 0.950 . S
C667 C666 1.387 . S
C667 C670 1.387 . S
H668 C664 0.950 . S
H669 C666 0.950 . S
C670 C661 1.390 . S
C670 H663 0.950 . S
C670 C667 1.387 . S
C671 C672 1.387 . S
C671 H675 0.950 . S
C671 C680 1.390 . S
C672 C671 1.387 . S
C672 C674 1.387 . S
H673 C680 0.950 . S
C674 C672 1.387 . S
C674 C676 1.390 . S
C674 H678 0.950 . S
H675 C671 0.950 . S
C676 C674 1.390 . S
C676 C677 1.387 . S
C676 H679 0.950 . S
C677 C676 1.387 . S
C677 C680 1.387 . S
H678 C674 0.950 . S
H679 C676 0.950 . S
C680 C671 1.390 . S
C680 H673 0.950 . S
C680 C677 1.387 . S
C681 C682 1.387 . S
C681 H685 0.950 1_455 S
C681 C690 1.390 1_455 S
C682 C681 1.387 . S
C682 C684 1.387 . S
H683 C690 0.950 . S
C684 C682 1.387 . S
C684 C686 1.390 . S
C684 H688 0.950 . S
H685 C681 0.950 1_655 S
C686 C684 1.390 . S
C686 C687 1.387 1_455 S
C686 H689 0.950 . S
C687 C686 1.387 1_655 S
C687 C690 1.387 . S
H688 C684 0.950 . S
H689 C686 0.950 . S
C690 C681 1.390 1_655 S
C690 H683 0.950 . S
C690 C687 1.387 . S
C691 C692 1.387 . S
C691 H695 0.950 . S
C691 C700 1.390 . S
C692 C691 1.387 . S
C692 C694 1.387 . S
H693 C700 0.950 . S
C694 C692 1.387 . S
C694 C696 1.390 . S
C694 H698 0.950 . S
H695 C691 0.950 . S
C696 C694 1.390 . S
C696 C697 1.387 . S
C696 H699 0.950 . S
C697 C696 1.387 . S
C697 C700 1.387 . S
H698 C694 0.950 . S
H699 C696 0.950 . S
C700 C691 1.390 . S
C700 H693 0.950 . S
C700 C697 1.387 . S
C701 C702 1.387 . S
C701 H705 0.950 . S
C701 C710 1.390 1_565 S
C702 C701 1.387 . S
C702 C704 1.388 . S
H703 C710 0.950 . S
C704 C702 1.388 . S
C704 C706 1.391 1_565 S
C704 H708 0.949 . S
H705 C701 0.950 . S
C706 C704 1.391 1_545 S
C706 C707 1.387 . S
C706 H709 0.950 . S
C707 C706 1.387 . S
C707 C710 1.387 . S
H708 C704 0.949 . S
H709 C706 0.950 . S
C710 C701 1.390 1_545 S
C710 H703 0.950 . S
C710 C707 1.387 . S
C532 C170 1.322 . S
C537 C33 1.316 . S
C542 C111 1.323 . S
C547 C52 1.323 . S
C552 C92 1.315 . S
C557 C151 1.317 . S
C562 C328 1.314 . S
C567 C229 1.323 . S
C572 C288 1.321 . S
C577 C210 1.314 . S
C582 C269 1.315 . S
C587 C347 1.323 . S
C592 C387 1.316 . S
C597 C524 1.321 . S
C602 C406 1.322 . S
C607 C465 1.322 . S
C612 C446 1.315 . S
C617 C505 1.313 . S
C622 C5 1.499 . S
C627 C418 1.499 . S
C632 C62 1.490 . S
C637 C475 1.491 . S
C642 C357 1.489 . S
C647 C123 1.500 . S
C652 C239 1.489 . S
C657 C121 1.488 . S
C662 C3 1.491 . S
C667 C298 1.491 . S
C672 C180 1.490 . S
C677 C64 1.500 . S
C682 C416 1.489 . S
C687 C300 1.499 . S
C692 C182 1.499 . S
C697 C477 1.500 . S
C702 C359 1.500 . S
C707 C241 1.500 . S
