# Generated by pormake.
# Topology ukh, (4)-cn, num edge types: 1
# Building blocks:
#     Node 0, Type 0, BuildingBlock: TATPOV_clean_sbu_0, # of connection points: 4
#     Node 1, Type 0, BuildingBlock: TATPOV_clean_sbu_0, # of connection points: 4
#     Node 2, Type 0, BuildingBlock: TATPOV_clean_sbu_0, # of connection points: 4
#     Node 3, Type 0, BuildingBlock: TATPOV_clean_sbu_0, # of connection points: 4
#     Node 4, Type 0, BuildingBlock: TATPOV_clean_sbu_0, # of connection points: 4
#     Node 5, Type 0, BuildingBlock: TATPOV_clean_sbu_0, # of connection points: 4
#     Node 6, Type 0, BuildingBlock: TATPOV_clean_sbu_0, # of connection points: 4
#     Node 7, Type 0, BuildingBlock: TATPOV_clean_sbu_0, # of connection points: 4
#     Node 8, Type 0, BuildingBlock: TATPOV_clean_sbu_0, # of connection points: 4
#     Node 9, Type 0, BuildingBlock: TATPOV_clean_sbu_0, # of connection points: 4
#     Node 10, Type 0, BuildingBlock: TATPOV_clean_sbu_0, # of connection points: 4
#     Node 11, Type 0, BuildingBlock: TATPOV_clean_sbu_0, # of connection points: 4
#     Edge 12, Type (0, 0), BuildingBlock: UVAHIK_clean_linker_0, # of connection points: 2
#     Edge 13, Type (0, 0), BuildingBlock: UVAHIK_clean_linker_0, # of connection points: 2
#     Edge 14, Type (0, 0), BuildingBlock: UVAHIK_clean_linker_0, # of connection points: 2
#     Edge 15, Type (0, 0), BuildingBlock: UVAHIK_clean_linker_0, # of connection points: 2
#     Edge 16, Type (0, 0), BuildingBlock: UVAHIK_clean_linker_0, # of connection points: 2
#     Edge 17, Type (0, 0), BuildingBlock: UVAHIK_clean_linker_0, # of connection points: 2
#     Edge 18, Type (0, 0), BuildingBlock: UVAHIK_clean_linker_0, # of connection points: 2
#     Edge 19, Type (0, 0), BuildingBlock: UVAHIK_clean_linker_0, # of connection points: 2
#     Edge 20, Type (0, 0), BuildingBlock: UVAHIK_clean_linker_0, # of connection points: 2
#     Edge 21, Type (0, 0), BuildingBlock: UVAHIK_clean_linker_0, # of connection points: 2
#     Edge 22, Type (0, 0), BuildingBlock: UVAHIK_clean_linker_0, # of connection points: 2
#     Edge 23, Type (0, 0), BuildingBlock: UVAHIK_clean_linker_0, # of connection points: 2
#     Edge 24, Type (0, 0), BuildingBlock: UVAHIK_clean_linker_0, # of connection points: 2
#     Edge 25, Type (0, 0), BuildingBlock: UVAHIK_clean_linker_0, # of connection points: 2
#     Edge 26, Type (0, 0), BuildingBlock: UVAHIK_clean_linker_0, # of connection points: 2
#     Edge 27, Type (0, 0), BuildingBlock: UVAHIK_clean_linker_0, # of connection points: 2
#     Edge 28, Type (0, 0), BuildingBlock: UVAHIK_clean_linker_0, # of connection points: 2
#     Edge 29, Type (0, 0), BuildingBlock: UVAHIK_clean_linker_0, # of connection points: 2
#     Edge 30, Type (0, 0), BuildingBlock: UVAHIK_clean_linker_0, # of connection points: 2
#     Edge 31, Type (0, 0), BuildingBlock: UVAHIK_clean_linker_0, # of connection points: 2
#     Edge 32, Type (0, 0), BuildingBlock: UVAHIK_clean_linker_0, # of connection points: 2
#     Edge 33, Type (0, 0), BuildingBlock: UVAHIK_clean_linker_0, # of connection points: 2
#     Edge 34, Type (0, 0), BuildingBlock: UVAHIK_clean_linker_0, # of connection points: 2
#     Edge 35, Type (0, 0), BuildingBlock: UVAHIK_clean_linker_0, # of connection points: 2
# Relax obj value: 0.153
# Max RMSD: 0.200
# Mean RMSD: 0.200
data_MOF--net-ukh--node1-TATPOV_clean_sbu_0--edge1-UVAHIK_clean_linker_0
_symmetry_space_group_name_H-M    P1
_symmetry_Int_Tables_number       1
_symmetry_cell_setting            triclinic
loop_
_symmetry_equiv_pos_as_xyz
'x, y, z'
_cell_length_a     39.535165
_cell_length_b     39.52319
_cell_length_c     83.108746
_cell_angle_alpha  90.011276
_cell_angle_beta   89.99274
_cell_angle_gamma 120.00392
loop_
_atom_site_label
_atom_site_type_symbol
_atom_site_fract_x
_atom_site_fract_y
_atom_site_fract_z
_atom_type_partial_charge
Zn0 Zn 0.36488 0.24475 0.02367 0.0
Zn1 Zn 0.33122 0.20507 0.05087 0.0
O2 O 0.34868 0.1703 0.03911 0.0
O3 O 0.37594 0.20252 0.0168 0.0
O4 O 0.3102 0.17829 0.0722 0.0
O5 O 0.40456 0.29093 0.03639 0.0
O6 O 0.37336 0.25976 0.05832 0.0
C7 C 0.36557 0.17294 0.0257 0.0
C8 C 0.28254 0.2209 0.0269 0.0
O9 O 0.28486 0.20509 0.03991 0.0
O10 O 0.31252 0.23987 0.01814 0.0
C11 C 0.29688 0.19356 0.08196 0.0
O12 O 0.29539 0.22464 0.07741 0.0
C13 C 0.40035 0.29016 0.0515 0.0
Zn14 Zn 0.11662 0.37459 0.36351 0.0
Zn15 Zn 0.11318 0.33892 0.39183 0.0
O16 O 0.16697 0.35366 0.3823 0.0
O17 O 0.17173 0.38592 0.36003 0.0
O18 O 0.11279 0.31697 0.41376 0.0
O19 O 0.10624 0.41348 0.37505 0.0
O20 O 0.10191 0.3827 0.39768 0.0
C21 C 0.18624 0.37222 0.36987 0.0
C22 C 0.0555 0.29236 0.36539 0.0
O23 O 0.06821 0.29435 0.37964 0.0
O24 O 0.0712 0.32204 0.35625 0.0
C25 C 0.12888 0.29701 0.41731 0.0
O26 O 0.1466 0.28845 0.406 0.0
C27 C 0.10014 0.40971 0.39007 0.0
Zn28 Zn 0.75463 0.12549 0.69638 0.0
Zn29 Zn 0.78169 0.11784 0.72537 0.0
O30 O 0.82151 0.1735 0.7177 0.0
O31 O 0.79771 0.1815 0.69498 0.0
O32 O 0.79888 0.11436 0.7479 0.0
O33 O 0.70295 0.11224 0.70634 0.0
O34 O 0.72525 0.10455 0.7295 0.0
C35 C 0.82386 0.19477 0.70574 0.0
C36 C 0.77635 0.06471 0.6979 0.0
O37 O 0.78422 0.07509 0.71257 0.0
O38 O 0.76412 0.08186 0.68866 0.0
C39 C 0.83358 0.1339 0.75325 0.0
O40 O 0.86176 0.15743 0.74351 0.0
C41 C 0.69778 0.10353 0.72114 0.0
Zn42 Zn 0.62575 0.73667 0.0305 0.0
Zn43 Zn 0.65862 0.76574 0.05949 0.0
O44 O 0.64283 0.80505 0.05118 0.0
O45 O 0.61528 0.78118 0.02771 0.0
O46 O 0.67802 0.78381 0.08199 0.0
O47 O 0.58575 0.68596 0.04088 0.0
O48 O 0.61512 0.70979 0.064 0.0
C49 C 0.6262 0.8074 0.03841 0.0
C50 C 0.70788 0.75864 0.03299 0.0
O51 O 0.70491 0.76824 0.04735 0.0
O52 O 0.67861 0.7446 0.02364 0.0
C53 C 0.70638 0.81675 0.0862 0.0
O54 O 0.72652 0.84295 0.07514 0.0
C55 C 0.58867 0.68186 0.05583 0.0
Zn56 Zn 0.87581 0.62483 0.36011 0.0
Zn57 Zn 0.87248 0.65846 0.38789 0.0
O58 O 0.81918 0.64066 0.37699 0.0
O59 O 0.821 0.61142 0.35473 0.0
O60 O 0.86834 0.67959 0.40945 0.0
O61 O 0.88615 0.58693 0.37239 0.0
O62 O 0.88595 0.6167 0.39473 0.0
C63 C 0.80305 0.62256 0.36399 0.0
C64 C 0.93338 0.70769 0.36274 0.0
O65 O 0.91788 0.70479 0.37649 0.0
O66 O 0.92075 0.67812 0.3536 0.0
C67 C 0.89797 0.69424 0.41868 0.0
O68 O 0.93063 0.69693 0.41349 0.0
C69 C 0.89015 0.59064 0.38751 0.0
Zn70 Zn 0.24411 0.88093 0.69003 0.0
Zn71 Zn 0.21449 0.8798 0.71948 0.0
O72 O 0.17525 0.82623 0.70973 0.0
O73 O 0.19989 0.82651 0.68592 0.0
O74 O 0.1966 0.87736 0.74236 0.0
O75 O 0.2949 0.89034 0.69981 0.0
O76 O 0.27057 0.89202 0.72339 0.0
C77 C 0.17329 0.80947 0.69636 0.0
C78 C 0.22174 0.94031 0.69507 0.0
O79 O 0.212 0.92548 0.70909 0.0
O80 O 0.2359 0.92665 0.68498 0.0
C81 C 0.166 0.87706 0.74726 0.0
O82 O 0.14173 0.87808 0.73674 0.0
C83 C 0.29874 0.8951 0.7149 0.0
Zn84 Zn 0.73516 0.63186 0.64095 0.0
Zn85 Zn 0.76999 0.66563 0.61292 0.0
O86 O 0.80693 0.64874 0.62321 0.0
O87 O 0.77748 0.61944 0.64572 0.0
O88 O 0.79261 0.68595 0.59092 0.0
O89 O 0.68642 0.59288 0.6293 0.0
O90 O 0.71466 0.62266 0.60673 0.0
C91 C 0.80602 0.63084 0.63613 0.0
C92 C 0.75907 0.7145 0.63848 0.0
O93 O 0.77099 0.71193 0.62452 0.0
O94 O 0.74299 0.6848 0.64758 0.0
C95 C 0.82839 0.70164 0.58698 0.0
O96 O 0.85445 0.70709 0.59801 0.0
C97 C 0.68517 0.59617 0.6142 0.0
Zn98 Zn 0.10836 0.73775 0.97242 0.0
Zn99 Zn 0.10261 0.76735 0.9439 0.0
O100 O 0.15823 0.8064 0.95192 0.0
O101 O 0.16337 0.78202 0.975 0.0
O102 O 0.09994 0.78648 0.92171 0.0
O103 O 0.09718 0.68745 0.96159 0.0
O104 O 0.08981 0.71142 0.93883 0.0
C105 C 0.17798 0.8085 0.96439 0.0
C106 C 0.04792 0.75946 0.97129 0.0
O107 O 0.05949 0.76935 0.95684 0.0
O108 O 0.06387 0.74534 0.9802 0.0
C109 C 0.11583 0.82205 0.91741 0.0
O110 O 0.13486 0.84969 0.9281 0.0
C111 C 0.08907 0.68348 0.94673 0.0
Zn112 Zn 0.35633 0.11535 0.30827 0.0
Zn113 Zn 0.32194 0.10997 0.27943 0.0
O114 O 0.33653 0.16466 0.28805 0.0
O115 O 0.36825 0.17085 0.31065 0.0
O116 O 0.30165 0.1077 0.25691 0.0
O117 O 0.39566 0.104 0.29789 0.0
O118 O 0.36617 0.09848 0.27479 0.0
C119 C 0.35509 0.18483 0.30031 0.0
C120 C 0.27413 0.05424 0.30623 0.0
O121 O 0.27668 0.06573 0.29173 0.0
O122 O 0.30342 0.07078 0.31555 0.0
C123 C 0.28781 0.12833 0.25145 0.0
O124 O 0.28418 0.15265 0.2611 0.0
C125 C 0.39273 0.09713 0.28293 0.0
Zn126 Zn 0.24781 0.36994 0.6429 0.0
Zn127 Zn 0.21178 0.33309 0.61526 0.0
O128 O 0.17548 0.35057 0.62543 0.0
O129 O 0.2058 0.38337 0.64724 0.0
O130 O 0.18632 0.31 0.59396 0.0
O131 O 0.29576 0.40702 0.63021 0.0
O132 O 0.26642 0.37527 0.60809 0.0
C133 C 0.17679 0.37023 0.63783 0.0
C134 C 0.22421 0.28705 0.64158 0.0
O135 O 0.21211 0.28853 0.62754 0.0
O136 O 0.23996 0.31731 0.6504 0.0
C137 C 0.20017 0.29383 0.58497 0.0
O138 O 0.22975 0.29051 0.59019 0.0
C139 C 0.29626 0.40232 0.61516 0.0
Zn140 Zn 0.87532 0.24578 0.98141 0.0
Zn141 Zn 0.86987 0.20683 0.95398 0.0
O142 O 0.81755 0.17168 0.96553 0.0
O143 O 0.82179 0.20318 0.98798 0.0
O144 O 0.86436 0.18054 0.93256 0.0
O145 O 0.88214 0.29232 0.96881 0.0
O146 O 0.88221 0.26156 0.94676 0.0
C147 C 0.80291 0.17384 0.97891 0.0
C148 C 0.93391 0.22201 0.97809 0.0
O149 O 0.91611 0.20668 0.96497 0.0
O150 O 0.92267 0.24063 0.98695 0.0
C151 C 0.89285 0.196 0.92276 0.0
O152 O 0.9254 0.22707 0.92732 0.0
C153 C 0.8856 0.29183 0.95369 0.0
Zn154 Zn 0.63213 0.88674 0.31038 0.0
Zn155 Zn 0.66536 0.8895 0.28162 0.0
O156 O 0.6494 0.83467 0.29046 0.0
O157 O 0.62189 0.83214 0.31382 0.0
O158 O 0.68574 0.8902 0.25935 0.0
O159 O 0.592 0.89639 0.29954 0.0
O160 O 0.62173 0.90144 0.27654 0.0
C161 C 0.63275 0.8163 0.30334 0.0
C162 C 0.71389 0.94738 0.30786 0.0
O163 O 0.71122 0.93417 0.29365 0.0
O164 O 0.68456 0.93228 0.31718 0.0
C165 C 0.70821 0.87726 0.25536 0.0
O166 O 0.72075 0.86249 0.26645 0.0
C167 C 0.59502 0.90286 0.28454 0.0
C168 C 0.53034 0.61473 0.05552 0.0
C169 C 0.56392 0.64335 0.06341 0.0
C170 C 0.5103 0.57653 0.06135 0.0
C171 C 0.53207 0.50873 0.08084 0.0
H172 H 0.42017 0.4394 0.07746 0.0
C173 C 0.40818 0.33412 0.07457 0.0
C174 C 0.42382 0.32631 0.0608 0.0
C175 C 0.42661 0.37161 0.08128 0.0
C176 C 0.45139 0.45836 0.07887 0.0
H177 H 0.60151 0.655 0.08417 0.0
H178 H 0.56679 0.58781 0.09417 0.0
H179 H 0.44673 0.51003 0.07764 0.0
H180 H 0.47261 0.3502 0.0442 0.0
H181 H 0.5051 0.41523 0.05606 0.0
H182 H 0.53691 0.4571 0.0809 0.0
C183 C 0.55599 0.59513 0.08352 0.0
C184 C 0.46656 0.49874 0.07884 0.0
C185 C 0.57574 0.63355 0.0778 0.0
C186 C 0.45983 0.35552 0.05475 0.0
C187 C 0.47856 0.39267 0.06162 0.0
C188 C 0.51693 0.46835 0.08069 0.0
C189 C 0.5237 0.56608 0.0751 0.0
C190 C 0.50712 0.52427 0.07914 0.0
C191 C 0.46133 0.40151 0.07453 0.0
C192 C 0.47657 0.44287 0.07902 0.0
H193 H 0.52041 0.62146 0.04446 0.0
H194 H 0.48573 0.55465 0.05452 0.0
H195 H 0.56348 0.52773 0.081 0.0
H196 H 0.38039 0.31212 0.07946 0.0
H197 H 0.41283 0.37772 0.09125 0.0
C198 C 0.06414 0.42037 0.41246 0.0
C199 C 0.08651 0.43384 0.39831 0.0
C200 C 0.04485 0.43922 0.41848 0.0
C201 C 0.03606 0.52798 0.41494 0.0
H202 H 0.92439 0.45544 0.41511 0.0
C203 C 0.89898 0.53266 0.38979 0.0
C204 C 0.90408 0.56761 0.39637 0.0
C205 C 0.91807 0.5144 0.39647 0.0
C206 C 0.9555 0.476 0.41542 0.0
H207 H 0.10909 0.47945 0.38021 0.0
H208 H 0.07591 0.51256 0.39082 0.0
H209 H 0.96969 0.43041 0.41542 0.0
H210 H 0.93112 0.60962 0.41571 0.0
H211 H 0.96541 0.57802 0.42718 0.0
H212 H 0.0218 0.5735 0.41386 0.0
C213 C 0.07305 0.48739 0.39723 0.0
C214 C 0.98144 0.46173 0.4157 0.0
C215 C 0.09183 0.46826 0.39107 0.0
C216 C 0.92664 0.58264 0.4104 0.0
C217 C 0.94635 0.5647 0.41693 0.0
C218 C 0.01011 0.54226 0.41483 0.0
C219 C 0.04821 0.47222 0.41062 0.0
C220 C 0.02191 0.48755 0.41469 0.0
C221 C 0.94309 0.53104 0.40973 0.0
C222 C 0.9696 0.51633 0.41429 0.0
H223 H 0.05954 0.39391 0.41831 0.0
H224 H 0.02598 0.42707 0.42887 0.0
H225 H 0.06713 0.54847 0.41426 0.0
H226 H 0.8816 0.52033 0.37903 0.0
H227 H 0.91531 0.48869 0.39057 0.0
C228 C 0.34674 0.92857 0.73713 0.0
C229 C 0.33728 0.90848 0.72236 0.0
C230 C 0.38511 0.9471 0.74286 0.0
C231 C 0.48139 0.95483 0.73819 0.0
H232 H 0.52324 0.06658 0.74241 0.0
C233 C 0.63096 0.09521 0.72062 0.0
C234 C 0.65844 0.08783 0.72812 0.0
C235 C 0.59194 0.07514 0.72543 0.0
C236 C 0.51186 0.03537 0.74156 0.0
H237 H 0.35977 0.88946 0.70267 0.0
H238 H 0.42658 0.92125 0.71282 0.0
H239 H 0.45258 0.02286 0.74085 0.0
H240 H 0.66718 0.05539 0.74714 0.0
H241 H 0.59849 0.01949 0.75528 0.0
H242 H 0.54076 0.96755 0.73809 0.0
C243 C 0.40442 0.92288 0.7199 0.0
C244 C 0.47151 0.01036 0.74075 0.0
C245 C 0.36625 0.90491 0.71403 0.0
C246 C 0.64662 0.0617 0.74116 0.0
C247 C 0.60738 0.04107 0.74578 0.0
C248 C 0.52172 0.97979 0.73923 0.0
C249 C 0.41444 0.94519 0.73408 0.0
C250 C 0.45604 0.97005 0.73844 0.0
C251 C 0.57957 0.0469 0.73766 0.0
C252 C 0.53732 0.0204 0.74029 0.0
H253 H 0.32503 0.93183 0.74382 0.0
H254 H 0.39215 0.96405 0.75385 0.0
H255 H 0.4701 0.92383 0.73647 0.0
H256 H 0.6393 0.11533 0.71059 0.0
H257 H 0.57101 0.07994 0.71888 0.0
C258 C 0.61944 0.53642 0.61255 0.0
C259 C 0.64815 0.57147 0.60559 0.0
C260 C 0.58212 0.51608 0.6059 0.0
C261 C 0.51474 0.53799 0.58638 0.0
H262 H 0.44737 0.42552 0.58827 0.0
C263 C 0.34108 0.41111 0.59226 0.0
C264 C 0.33293 0.42598 0.60618 0.0
C265 C 0.37853 0.4303 0.58552 0.0
C266 C 0.46576 0.45692 0.58725 0.0
H267 H 0.66116 0.6115 0.58563 0.0
H268 H 0.59528 0.57623 0.57419 0.0
H269 H 0.51815 0.45355 0.58814 0.0
H270 H 0.3563 0.4741 0.62314 0.0
H271 H 0.42126 0.5078 0.61129 0.0
H272 H 0.46236 0.54144 0.58669 0.0
C273 C 0.60191 0.56447 0.58473 0.0
C274 C 0.50625 0.47293 0.5873 0.0
C275 C 0.63955 0.58454 0.59126 0.0
C276 C 0.36185 0.46185 0.61247 0.0
C277 C 0.39896 0.48131 0.60559 0.0
C278 C 0.47425 0.52199 0.58648 0.0
C279 C 0.57259 0.53064 0.59226 0.0
C280 C 0.53106 0.51364 0.58764 0.0
C281 C 0.40808 0.46503 0.59242 0.0
C282 C 0.44947 0.48139 0.5877 0.0
H283 H 0.62534 0.52552 0.62354 0.0
H284 H 0.56002 0.49033 0.61208 0.0
H285 H 0.53314 0.56948 0.5867 0.0
H286 H 0.31929 0.38346 0.58716 0.0
H287 H 0.38484 0.41721 0.57535 0.0
C288 C 0.89222 0.35764 0.95085 0.0
C289 C 0.89803 0.32806 0.94446 0.0
C290 C 0.91006 0.39459 0.9438 0.0
C291 C 0.00056 0.45946 0.92442 0.0
H292 H 0.95762 0.52876 0.92384 0.0
C293 C 0.05109 0.63465 0.92525 0.0
C294 C 0.07479 0.64498 0.93905 0.0
C295 C 0.03181 0.59605 0.91972 0.0
C296 C 0.97004 0.50977 0.92355 0.0
H297 H 0.92496 0.31307 0.92509 0.0
H298 H 0.95704 0.37827 0.91296 0.0
H299 H 0.91367 0.45818 0.92487 0.0
H300 H 0.09952 0.62394 0.95705 0.0
H301 H 0.06634 0.55687 0.94732 0.0
H302 H 0.05697 0.51115 0.92424 0.0
C303 C 0.93841 0.37262 0.92335 0.0
C304 C 0.94488 0.46941 0.92424 0.0
C305 C 0.91996 0.33536 0.93026 0.0
C306 C 0.08123 0.61678 0.94646 0.0
C307 C 0.06246 0.57842 0.9408 0.0
C308 C 0.02573 0.49983 0.92389 0.0
C309 C 0.93452 0.40286 0.93035 0.0
C310 C 0.95996 0.444 0.92538 0.0
C311 C 0.0365 0.56738 0.92773 0.0
C312 C 0.0107 0.52537 0.92415 0.0
H313 H 0.87529 0.35275 0.96173 0.0
H314 H 0.90685 0.41742 0.94955 0.0
H315 H 0.01301 0.44057 0.92538 0.0
H316 H 0.0456 0.65579 0.91928 0.0
H317 H 0.01206 0.58828 0.90959 0.0
C318 C 0.45259 0.09111 0.28286 0.0
C319 C 0.41778 0.0838 0.27534 0.0
C320 C 0.47326 0.07348 0.27718 0.0
C321 C 0.45322 0.98253 0.25976 0.0
H322 H 0.56601 0.02999 0.26037 0.0
C323 C 0.58249 0.93867 0.26266 0.0
C324 C 0.56996 0.91587 0.27673 0.0
C325 C 0.56212 0.95659 0.25684 0.0
C326 C 0.53449 0.01633 0.25979 0.0
H327 H 0.37842 0.05411 0.25544 0.0
H328 H 0.41425 0.02244 0.24575 0.0
H329 H 0.53652 0.07153 0.26001 0.0
H330 H 0.52475 0.89139 0.29497 0.0
H331 H 0.48892 0.92212 0.28467 0.0
H332 H 0.4512 0.92736 0.26067 0.0
C333 C 0.42556 0.04208 0.25595 0.0
C334 C 0.51767 0.04009 0.25968 0.0
C335 C 0.4052 0.06028 0.26147 0.0
C336 C 0.53521 0.909 0.28417 0.0
C337 C 0.51454 0.92635 0.2782 0.0
C338 C 0.47005 0.95877 0.26007 0.0
C339 C 0.45923 0.04778 0.26401 0.0
C340 C 0.47691 0.02339 0.26028 0.0
C341 C 0.52851 0.95134 0.2648 0.0
C342 C 0.51081 0.9755 0.26069 0.0
H343 H 0.4631 0.10928 0.29351 0.0
H344 H 0.49892 0.07808 0.28373 0.0
H345 H 0.4217 0.9689 0.26033 0.0
H346 H 0.60921 0.94449 0.25667 0.0
H347 H 0.57339 0.97567 0.24647 0.0
C348 C 0.26892 0.15358 0.22736 0.0
C349 C 0.27953 0.1275 0.23401 0.0
C350 C 0.2647 0.15516 0.2107 0.0
C351 C 0.29872 0.13377 0.17286 0.0
H352 H 0.22056 0.15254 0.15331 0.0
C353 C 0.29124 0.14781 0.10412 0.0
C354 C 0.28686 0.17911 0.09872 0.0
C355 C 0.2852 0.13665 0.12031 0.0
C356 C 0.24269 0.1475 0.1586 0.0
H357 H 0.29224 0.08136 0.2284 0.0
H358 H 0.28449 0.08387 0.19944 0.0
H359 H 0.21915 0.14189 0.18232 0.0
H360 H 0.27124 0.22225 0.10602 0.0
H361 H 0.26117 0.20311 0.13421 0.0
H362 H 0.32279 0.14015 0.14928 0.0
C363 C 0.28013 0.10361 0.20706 0.0
C364 C 0.24189 0.14141 0.17522 0.0
C365 C 0.28437 0.10204 0.22368 0.0
C366 C 0.27492 0.19804 0.10976 0.0
C367 C 0.2689 0.18689 0.12594 0.0
C368 C 0.29954 0.13988 0.15627 0.0
C369 C 0.27098 0.13068 0.20033 0.0
C370 C 0.27013 0.13484 0.18256 0.0
C371 C 0.27462 0.15651 0.13147 0.0
C372 C 0.27179 0.14721 0.14895 0.0
H373 H 0.26496 0.17359 0.23496 0.0
H374 H 0.25795 0.17658 0.20592 0.0
H375 H 0.32133 0.12947 0.17814 0.0
H376 H 0.30019 0.13245 0.09592 0.0
H377 H 0.28926 0.11272 0.12412 0.0
C378 C 0.11044 0.29503 0.44627 0.0
C379 C 0.12993 0.28615 0.4343 0.0
C380 C 0.1137 0.28759 0.46246 0.0
C381 C 0.18035 0.27764 0.49016 0.0
H382 H 0.0944 0.2439 0.52024 0.0
C383 C 0.20237 0.26635 0.55805 0.0
C384 C 0.186 0.28277 0.56823 0.0
C385 C 0.19184 0.25955 0.54181 0.0
C386 C 0.11873 0.25351 0.512 0.0
H387 H 0.16704 0.26119 0.42992 0.0
H388 H 0.17262 0.24809 0.45823 0.0
H389 H 0.08257 0.24484 0.49145 0.0
H390 H 0.14452 0.30345 0.56946 0.0
H391 H 0.12661 0.29212 0.54115 0.0
H392 H 0.21676 0.2874 0.51066 0.0
C393 C 0.15515 0.2612 0.45507 0.0
C394 C 0.11195 0.25401 0.49551 0.0
C395 C 0.15179 0.26854 0.43884 0.0
C396 C 0.15772 0.29079 0.56196 0.0
C397 C 0.14726 0.28406 0.54572 0.0
C398 C 0.18715 0.27721 0.50663 0.0
C399 C 0.13657 0.27115 0.46708 0.0
C400 C 0.14281 0.26673 0.48442 0.0
C401 C 0.16474 0.26905 0.53537 0.0
C402 C 0.15656 0.26577 0.51778 0.0
H403 H 0.09329 0.30855 0.4432 0.0
H404 H 0.09938 0.29604 0.4714 0.0
H405 H 0.20488 0.28812 0.48197 0.0
H406 H 0.22402 0.25956 0.56252 0.0
H407 H 0.20538 0.24735 0.53423 0.0
C408 C 0.87821 0.15822 0.77721 0.0
C409 C 0.84123 0.13274 0.77064 0.0
C410 C 0.88431 0.15953 0.79383 0.0
C411 C 0.82973 0.13836 0.83192 0.0
H412 H 0.92668 0.15577 0.85096 0.0
C413 C 0.85243 0.15066 0.90057 0.0
C414 C 0.88822 0.18182 0.90595 0.0
C415 C 0.84704 0.13982 0.88434 0.0
C416 C 0.89951 0.1511 0.84581 0.0
H417 H 0.78215 0.08732 0.77637 0.0
H418 H 0.79296 0.08928 0.80528 0.0
H419 H 0.91677 0.14559 0.82195 0.0
H420 H 0.9469 0.225 0.8986 0.0
H421 H 0.93735 0.20637 0.87033 0.0
H422 H 0.81269 0.14457 0.85565 0.0
C423 C 0.81705 0.10882 0.79762 0.0
C424 C 0.89384 0.14529 0.82919 0.0
C425 C 0.81093 0.10756 0.78102 0.0
C426 C 0.91893 0.2009 0.89486 0.0
C427 C 0.91354 0.19005 0.87865 0.0
C428 C 0.83538 0.14415 0.8485 0.0
C429 C 0.8536 0.13533 0.80427 0.0
C430 C 0.85901 0.13921 0.82203 0.0
C431 C 0.8773 0.15986 0.87313 0.0
C432 C 0.87047 0.15097 0.85564 0.0
H433 H 0.90219 0.17802 0.76956 0.0
H434 H 0.91274 0.18054 0.79855 0.0
H435 H 0.80283 0.13447 0.82679 0.0
H436 H 0.82824 0.13518 0.90881 0.0
H437 H 0.81895 0.11602 0.88053 0.0
C438 C 0.74531 0.86234 0.10868 0.0
C439 C 0.71535 0.82557 0.10352 0.0
C440 C 0.75231 0.87078 0.12512 0.0
C441 C 0.73132 0.82369 0.16548 0.0
H442 H 0.7456 0.92297 0.18035 0.0
C443 C 0.74055 0.86026 0.23324 0.0
C444 C 0.71798 0.87682 0.23817 0.0
C445 C 0.74742 0.85772 0.21688 0.0
C446 C 0.74163 0.8951 0.1764 0.0
H447 H 0.66976 0.76861 0.11163 0.0
H448 H 0.68154 0.78344 0.1401 0.0
H449 H 0.74369 0.91034 0.15157 0.0
H450 H 0.68589 0.90472 0.22975 0.0
H451 H 0.69732 0.89975 0.20138 0.0
H452 H 0.72729 0.80768 0.19028 0.0
C453 C 0.70008 0.80564 0.13152 0.0
C454 C 0.74101 0.88803 0.15988 0.0
C455 C 0.69311 0.79724 0.11515 0.0
C456 C 0.70339 0.89175 0.22641 0.0
C457 C 0.71023 0.88919 0.2101 0.0
C458 C 0.73186 0.83072 0.18199 0.0
C459 C 0.72956 0.84258 0.13674 0.0
C460 C 0.73493 0.85189 0.15422 0.0
C461 C 0.73191 0.87172 0.2051 0.0
C462 C 0.73612 0.86617 0.18765 0.0
H463 H 0.76308 0.88478 0.10003 0.0
H464 H 0.77549 0.8994 0.12873 0.0
H465 H 0.72723 0.79577 0.16153 0.0
H466 H 0.75237 0.84865 0.24199 0.0
H467 H 0.76463 0.8445 0.21344 0.0
C468 C 0.81148 0.70353 0.55807 0.0
C469 C 0.83981 0.71053 0.56984 0.0
C470 C 0.82136 0.70882 0.54177 0.0
C471 C 0.89353 0.70946 0.5137 0.0
H472 H 0.84593 0.74782 0.48338 0.0
C473 C 0.92725 0.71918 0.44587 0.0
C474 C 0.89483 0.7047 0.43552 0.0
C475 C 0.92358 0.72581 0.46213 0.0
C476 C 0.8593 0.73686 0.49169 0.0
H477 H 0.90112 0.73003 0.5737 0.0
H478 H 0.91845 0.73959 0.5452 0.0
H479 H 0.83449 0.74933 0.51217 0.0
H480 H 0.83342 0.68714 0.43404 0.0
H481 H 0.82694 0.69835 0.46243 0.0
H482 H 0.91771 0.69626 0.49325 0.0
C483 C 0.88843 0.72945 0.54861 0.0
C484 C 0.85276 0.73773 0.50819 0.0
C485 C 0.87854 0.72418 0.56495 0.0
C486 C 0.85898 0.6983 0.44168 0.0
C487 C 0.85532 0.70493 0.45795 0.0
C488 C 0.90007 0.7086 0.49722 0.0
C489 C 0.85982 0.72127 0.53681 0.0
C490 C 0.86937 0.72354 0.51938 0.0
C491 C 0.88742 0.71813 0.46843 0.0
C492 C 0.88264 0.72182 0.48599 0.0
H493 H 0.78135 0.69302 0.5614 0.0
H494 H 0.79849 0.7018 0.53302 0.0
H495 H 0.90627 0.69772 0.52194 0.0
H496 H 0.95537 0.72468 0.4415 0.0
H497 H 0.94903 0.73659 0.46981 0.0
C498 C 0.09601 0.80196 0.88881 0.0
C499 C 0.11535 0.83185 0.90023 0.0
C500 C 0.09802 0.81071 0.87243 0.0
C501 C 0.16121 0.88585 0.84334 0.0
H502 H 0.07535 0.82533 0.81406 0.0
C503 C 0.18534 0.87591 0.77582 0.0
C504 C 0.15827 0.87563 0.76478 0.0
C505 C 0.17838 0.87425 0.79234 0.0
C506 C 0.09948 0.84287 0.82207 0.0
H507 H 0.15073 0.89458 0.90341 0.0
H508 H 0.15396 0.9099 0.87478 0.0
H509 H 0.06469 0.81633 0.84304 0.0
H510 H 0.10265 0.87363 0.76249 0.0
H511 H 0.0905 0.87082 0.79146 0.0
H512 H 0.19604 0.91231 0.8224 0.0
C513 C 0.13769 0.8796 0.87851 0.0
C514 C 0.09349 0.83741 0.83868 0.0
C515 C 0.13567 0.87084 0.89492 0.0
C516 C 0.12406 0.87382 0.77067 0.0
C517 C 0.11703 0.87206 0.78726 0.0
C518 C 0.1672 0.89129 0.82675 0.0
C519 C 0.11938 0.84958 0.86705 0.0
C520 C 0.12448 0.8583 0.84951 0.0
C521 C 0.14415 0.87227 0.79828 0.0
C522 C 0.13663 0.86929 0.81591 0.0
H523 H 0.08004 0.7716 0.89245 0.0
H524 H 0.08398 0.78681 0.86395 0.0
H525 H 0.18583 0.90222 0.85129 0.0
H526 H 0.21198 0.87719 0.77173 0.0
H527 H 0.19956 0.87376 0.80046 0.0
C528 C 0.2341 0.87346 0.95596 0.0
C529 C 0.21577 0.84422 0.96768 0.0
C530 C 0.26577 0.90993 0.9601 0.0
C531 C 0.33127 0.9668 0.99482 0.0
H532 H 0.31838 0.04991 0.97661 0.0
C533 C 0.35323 0.10434 0.02809 0.0
C534 C 0.36846 0.13943 0.01937 0.0
C535 C 0.34868 0.07049 0.02072 0.0
C536 C 0.32301 0.02723 0.98162 0.0
H537 H 0.21818 0.82932 0.99263 0.0
H538 H 0.27152 0.89276 0.99998 0.0
H539 H 0.28424 0.98551 0.96467 0.0
H540 H 0.39439 0.16733 0.99658 0.0
H541 H 0.38576 0.10815 0.98375 0.0
H542 H 0.36754 0.00856 0.01267 0.0
C543 C 0.26255 0.88779 0.9875 0.0
C544 C 0.30354 0.99015 0.9747 0.0
C545 C 0.23149 0.85123 0.98329 0.0
C546 C 0.38208 0.14071 0.00361 0.0
C547 C 0.3772 0.10685 0.99622 0.0
C548 C 0.35016 0.00385 0.00194 0.0
C549 C 0.27922 0.91816 0.97612 0.0
C550 C 0.30631 0.95902 0.98151 0.0
C551 C 0.35906 0.07115 0.0045 0.0
C552 C 0.34531 0.03407 0.99564 0.0
H553 H 0.22302 0.86876 0.94376 0.0
H554 H 0.27857 0.93217 0.95087 0.0
H555 H 0.335 0.94391 1.00017 0.0
H556 H 0.3427 0.10242 0.04028 0.0
H557 H 0.33442 0.04324 0.02735 0.0
C558 C 0.23123 0.34522 0.3722 0.0
C559 C 0.22275 0.37275 0.36551 0.0
C560 C 0.26018 0.33926 0.36545 0.0
C561 C 0.30543 0.34869 0.32583 0.0
H562 H 0.35504 0.29962 0.3486 0.0
C563 C 0.38323 0.2479 0.31536 0.0
C564 C 0.35678 0.22228 0.30385 0.0
C565 C 0.37947 0.27885 0.32137 0.0
C566 C 0.3423 0.31406 0.34195 0.0
H567 H 0.24085 0.41866 0.34767 0.0
H568 H 0.29232 0.40924 0.33627 0.0
H569 H 0.32822 0.3333 0.36367 0.0
H570 H 0.30755 0.21075 0.2887 0.0
H571 H 0.30001 0.26365 0.29951 0.0
H572 H 0.31956 0.32949 0.3041 0.0
C573 C 0.27564 0.39118 0.34632 0.0
C574 C 0.32633 0.33292 0.35067 0.0
C575 C 0.24632 0.39678 0.35294 0.0
C576 C 0.32842 0.23003 0.29755 0.0
C577 C 0.32425 0.26061 0.30374 0.0
C578 C 0.32189 0.33029 0.31709 0.0
C579 C 0.28168 0.36109 0.35199 0.0
C580 C 0.30614 0.34893 0.34277 0.0
C581 C 0.34875 0.28445 0.3162 0.0
C582 C 0.33899 0.31122 0.32507 0.0
H583 H 0.21361 0.32623 0.38189 0.0
H584 H 0.26364 0.31559 0.37011 0.0
H585 H 0.29003 0.3605 0.31925 0.0
H586 H 0.40578 0.24296 0.32027 0.0
H587 H 0.39955 0.29726 0.33062 0.0
C588 C 0.85946 0.2595 0.69193 0.0
C589 C 0.85963 0.23274 0.70301 0.0
C590 C 0.89453 0.29096 0.68646 0.0
C591 C 0.00356 0.33996 0.69108 0.0
H592 H 0.00079 0.34464 0.64453 0.0
C593 C 0.14492 0.3981 0.65518 0.0
C594 C 0.14233 0.37326 0.64253 0.0
C595 C 0.11116 0.39521 0.66188 0.0
C596 C 0.00216 0.3438 0.65753 0.0
H597 H 0.8964 0.2198 0.71811 0.0
H598 H 0.9574 0.27342 0.70821 0.0
H599 H 0.94014 0.31313 0.65951 0.0
H600 H 0.10255 0.32816 0.62616 0.0
H601 H 0.04387 0.32216 0.63807 0.0
H602 H 0.06549 0.36721 0.68896 0.0
C603 C 0.93043 0.27097 0.70389 0.0
C604 C 0.96724 0.32621 0.6662 0.0
C605 C 0.89533 0.23992 0.70956 0.0
C606 C 0.10556 0.34768 0.6359 0.0
C607 C 0.0718 0.34445 0.64272 0.0
C608 C 0.03847 0.35699 0.68238 0.0
C609 C 0.93053 0.29587 0.69173 0.0
C610 C 0.96742 0.32252 0.68305 0.0
C611 C 0.07407 0.3671 0.6562 0.0
C612 C 0.0381 0.35755 0.66544 0.0
H613 H 0.83227 0.25501 0.68686 0.0
H614 H 0.89341 0.3102 0.67747 0.0
H615 H 0.00491 0.3386 0.70406 0.0
H616 H 0.17294 0.41855 0.6604 0.0
H617 H 0.11409 0.41382 0.67197 0.0
C618 C 0.6167 0.85055 0.01926 0.0
C619 C 0.6241 0.84306 0.03501 0.0
C620 C 0.62202 0.88708 0.01511 0.0
C621 C 0.68099 0.989 0.02872 0.0
H622 H 0.63725 0.00807 0.99032 0.0
C623 C 0.7536 0.14057 1.00073 0.0
C624 C 0.76643 0.14001 0.98498 0.0
C625 C 0.72449 0.10634 0.00784 0.0
C626 C 0.6494 0.00318 1.00117 0.0
H627 H 0.6389 0.86667 0.05917 0.0
H628 H 0.64655 0.93003 0.05212 0.0
H629 H 0.60524 0.94289 0.00233 0.0
H630 H 0.75594 0.1039 0.96383 0.0
H631 H 0.70492 0.0441 0.97629 0.0
H632 H 0.72539 0.04906 0.0274 0.0
C633 C 0.63822 0.90819 0.04277 0.0
C634 C 0.63129 0.96584 0.00801 0.0
C635 C 0.63357 0.87176 0.04687 0.0
C636 C 0.74696 0.10527 0.97601 0.0
C637 C 0.71757 0.07106 0.98311 0.0
C638 C 0.69858 0.02636 0.02206 0.0
C639 C 0.63426 0.91692 0.02668 0.0
C640 C 0.64783 0.95787 0.02149 0.0
C641 C 0.70733 0.07097 0.99932 0.0
C642 C 0.68382 0.03347 0.00789 0.0
H643 H 0.60923 0.82906 0.00981 0.0
H644 H 0.61904 0.89249 0.00257 0.0
H645 H 0.69513 0.98422 0.03891 0.0
H646 H 0.76762 0.16691 0.00794 0.0
H647 H 0.71681 0.1071 0.0203 0.0
C648 C 0.62273 0.76437 0.32297 0.0
C649 C 0.63018 0.77849 0.3071 0.0
C650 C 0.62702 0.73271 0.3274 0.0
C651 C 0.68268 0.68572 0.31422 0.0
H652 H 0.63844 0.62593 0.35329 0.0
C653 C 0.75148 0.6043 0.34301 0.0
C654 C 0.76608 0.61956 0.35838 0.0
C655 C 0.72243 0.60962 0.33598 0.0
C656 C 0.65068 0.64209 0.34225 0.0
H657 H 0.6442 0.76807 0.28306 0.0
H658 H 0.64998 0.71152 0.29061 0.0
H659 H 0.60812 0.66029 0.34088 0.0
H660 H 0.75854 0.6485 0.37912 0.0
H661 H 0.70752 0.65754 0.36682 0.0
H662 H 0.72541 0.66786 0.31573 0.0
C663 C 0.64241 0.72595 0.29982 0.0
C664 C 0.63358 0.66204 0.33518 0.0
C665 C 0.63884 0.75822 0.29544 0.0
C666 C 0.74818 0.63669 0.36721 0.0
C667 C 0.71881 0.64169 0.36021 0.0
C668 C 0.6992 0.66518 0.3211 0.0
C669 C 0.63822 0.71383 0.31601 0.0
C670 C 0.65042 0.68556 0.32146 0.0
C671 C 0.70706 0.62985 0.34425 0.0
C672 C 0.68428 0.6444 0.33549 0.0
H673 H 0.6159 0.77922 0.33227 0.0
H674 H 0.62398 0.72486 0.34 0.0
H675 H 0.69704 0.70382 0.30385 0.0
H676 H 0.76422 0.59048 0.33593 0.0
H677 H 0.71354 0.59988 0.32372 0.0
C678 C 0.13054 0.76086 0.67579 0.0
C679 C 0.13759 0.77261 0.69199 0.0
C680 C 0.09399 0.7309 0.67091 0.0
C681 C 0.99166 0.68631 0.68428 0.0
H682 H 0.97307 0.63135 0.64367 0.0
C683 C 0.84018 0.61136 0.65622 0.0
C684 C 0.84033 0.62781 0.64118 0.0
C685 C 0.87467 0.61576 0.66271 0.0
C686 C 0.97785 0.64622 0.6551 0.0
H687 H 0.11313 0.75935 0.71603 0.0
H688 H 0.04974 0.70568 0.70765 0.0
H689 H 0.03797 0.66174 0.65588 0.0
H690 H 0.87612 0.65831 0.62048 0.0
H691 H 0.93646 0.66578 0.63186 0.0
H692 H 0.93169 0.67108 0.6834 0.0
C693 C 0.07194 0.72079 0.69857 0.0
C694 C 0.01503 0.66387 0.66208 0.0
C695 C 0.10839 0.75137 0.70342 0.0
C696 C 0.87504 0.64555 0.63213 0.0
C697 C 0.90957 0.64966 0.63861 0.0
C698 C 0.95445 0.66806 0.67747 0.0
C699 C 0.06367 0.71138 0.68214 0.0
C700 C 0.02282 0.68552 0.67645 0.0
C701 C 0.90995 0.63629 0.65425 0.0
C702 C 0.94751 0.64901 0.66257 0.0
H703 H 0.15242 0.77649 0.66664 0.0
H704 H 0.08898 0.72506 0.65815 0.0
H705 H 0.9963 0.70314 0.69516 0.0
H706 H 0.81388 0.59707 0.66344 0.0
H707 H 0.87416 0.60484 0.67472 0.0
C708 C 0.97863 0.19459 0.97441 0.0
C709 C 0.96785 0.21827 0.98309 0.0
C710 C 0.01073 0.19124 0.97924 0.0
C711 C 0.07612 0.20827 0.01416 0.0
H712 H 0.14646 0.20846 0.98162 0.0
C713 C 0.24338 0.23809 0.00847 0.0
C714 C 0.24494 0.21736 0.02192 0.0
C715 C 0.20815 0.23514 0.00371 0.0
C716 C 0.12724 0.2086 0.99087 0.0
H717 H 0.98251 0.25715 0.0036 0.0
H718 H 0.03876 0.25202 0.01176 0.0
H719 H 0.08801 0.20977 0.97346 0.0
H720 H 0.21052 0.17694 0.04085 0.0
H721 H 0.14879 0.17127 0.03238 0.0
H722 H 0.11619 0.20876 0.03157 0.0
C723 C 0.02199 0.23531 1.00145 0.0
C724 C 0.09341 0.20882 0.98618 0.0
C725 C 0.98985 0.23848 0.99668 0.0
C726 C 0.21036 0.19342 0.03047 0.0
C727 C 0.17501 0.19031 0.02566 0.0
C728 C 0.11005 0.20825 0.01885 0.0
C729 C 0.03285 0.21165 0.9928 0.0
C730 C 0.06765 0.2091 0.99777 0.0
C731 C 0.17351 0.21121 0.01223 0.0
C732 C 0.13626 0.20887 0.00726 0.0
H733 H 0.96219 0.17847 0.96393 0.0
H734 H 0.018 0.1724 0.97242 0.0
H735 H 0.05662 0.20786 0.0234 0.0
H736 H 0.26948 0.25697 1.00164 0.0
H737 H 0.20826 0.25223 0.99351 0.0
C738 C 0.75714 0.9888 0.33016 0.0
C739 C 0.751 0.9808 0.31361 0.0
C740 C 0.79136 0.02112 0.33571 0.0
C741 C 0.89208 0.09574 0.32338 0.0
H742 H 0.88323 0.15221 0.35981 0.0
C743 C 0.01338 0.25003 0.34292 0.0
C744 C 0.0221 0.25545 0.35944 0.0
C745 C 0.98147 0.21547 0.3373 0.0
C746 C 0.88618 0.13651 0.34972 0.0
H747 H 0.77611 0.00021 0.28989 0.0
H748 H 0.8354 0.0575 0.29953 0.0
H749 H 0.82535 0.09431 0.34984 0.0
H750 H 0.00426 0.22877 0.38303 0.0
H751 H 0.94806 0.16863 0.37319 0.0
H752 H 0.95293 0.13907 0.32306 0.0
C753 C 0.81418 0.03828 0.30827 0.0
C754 C 0.85306 0.10321 0.34402 0.0
C755 C 0.78009 0.00554 0.30273 0.0
C756 C -0.00167 0.22549 0.37023 0.0
C757 C 0.96609 0.19115 0.36462 0.0
C758 C 0.92515 0.12941 0.32897 0.0
C759 C 0.82009 0.04666 0.32484 0.0
C760 C 0.85556 0.08225 0.33082 0.0
C761 C 0.95733 0.18587 0.34811 0.0
C762 C 0.9225 0.15 0.34223 0.0
H763 H 0.73549 0.97002 0.33888 0.0
H764 H 0.79524 0.02601 0.34856 0.0
H765 H 0.89529 0.08008 0.31335 0.0
H766 H 0.03121 0.27249 0.33429 0.0
H767 H 0.97517 0.21223 0.32452 0.0
C768 C 0.76039 0.75751 0.66078 0.0
C769 C 0.76402 0.75211 0.6443 0.0
C770 C 0.76437 0.79256 0.66643 0.0
C771 C 0.80067 0.89617 0.65502 0.0
H772 H 0.73386 0.89091 0.69026 0.0
C773 C 0.77879 0.02464 0.67504 0.0
C774 C 0.77987 0.0315 0.69169 0.0
C775 C 0.77975 0.99199 0.66918 0.0
C776 C 0.75297 0.89285 0.68052 0.0
H777 H 0.77487 0.77936 0.62079 0.0
H778 H 0.78054 0.84024 0.63058 0.0
H779 H 0.72887 0.83102 0.67988 0.0
H780 H 0.78353 0.00983 0.71523 0.0
H781 H 0.7846 0.95244 0.70496 0.0
H782 H 0.82374 0.95818 0.65545 0.0
C783 C 0.77551 0.81769 0.63921 0.0
C784 C 0.75024 0.85854 0.67458 0.0
C785 C 0.77203 0.7827 0.63357 0.0
C786 C 0.78267 0.00539 0.70234 0.0
C787 C 0.78308 0.97245 0.69648 0.0
C788 C 0.80301 0.9305 0.66085 0.0
C789 C 0.77152 0.82298 0.65572 0.0
C790 C 0.77421 0.85971 0.66181 0.0
C791 C 0.78127 0.96526 0.67986 0.0
C792 C 0.77932 0.92914 0.67371 0.0
H793 H 0.7547 0.7347 0.66939 0.0
H794 H 0.76206 0.79582 0.67925 0.0
H795 H 0.81999 0.89833 0.64534 0.0
H796 H 0.77678 0.04429 0.66651 0.0
H797 H 0.7781 0.987 0.65631 0.0
C798 C 0.7513 0.76137 0.01054 0.0
C799 C 0.74537 0.76346 0.02711 0.0
C800 C 0.78612 0.76477 0.00489 0.0
C801 C 0.86497 0.74797 0.01683 0.0
H802 H 0.91993 0.8133 0.9802 0.0
C803 C 0.00933 0.76243 0.99452 0.0
C804 C 0.01561 0.76401 0.97783 0.0
C805 C 0.97822 0.76546 1.00081 0.0
C806 C 0.9047 0.79453 0.99031 0.0
H807 H 0.77153 0.77114 0.05074 0.0
H808 H 0.83229 0.77642 0.04083 0.0
H809 H 0.86215 0.81304 0.99074 0.0
H810 H 0.99434 0.77036 0.95463 0.0
H811 H 0.93918 0.77435 0.96555 0.0
H812 H 0.90634 0.72827 0.01616 0.0
C813 C 0.80989 0.77227 0.03226 0.0
C814 C 0.87174 0.79457 0.99638 0.0
C815 C 0.77522 0.76941 0.03791 0.0
C816 C 0.99035 0.76918 0.96755 0.0
C817 C 0.95885 0.7717 0.97384 0.0
C818 C 0.89761 0.74755 0.01065 0.0
C819 C 0.81559 0.76985 0.0157 0.0
C820 C 0.85152 0.77121 0.00967 0.0
C821 C 0.95222 0.76961 0.99056 0.0
C822 C 0.91789 0.77076 0.99728 0.0
H823 H 0.72896 0.75697 0.00189 0.0
H824 H 0.78961 0.76245 0.99208 0.0
H825 H 0.84958 0.72925 0.02694 0.0
H826 H 0.02855 0.75893 0.00278 0.0
H827 H 0.97465 0.76463 0.01374 0.0
C828 C 0.97694 0.7516 0.341 0.0
C829 C 0.96636 0.74552 0.35734 0.0
C830 C 0.00854 0.78692 0.33584 0.0
C831 C 0.101 0.86782 0.34951 0.0
H832 H 0.09313 0.92203 0.31207 0.0
C833 C 0.23087 0.01455 0.32891 0.0
C834 C 0.23717 0.02114 0.31229 0.0
C835 C 0.19656 0.98269 0.33471 0.0
C836 C 0.09602 0.90704 0.32242 0.0
H837 H 0.98053 0.77181 0.38109 0.0
H838 H 0.03638 0.83344 0.37206 0.0
H839 H 0.0355 0.86295 0.32163 0.0
H840 H 0.21233 -0.00043 0.2887 0.0
H841 H 0.15306 0.94318 0.29876 0.0
H842 H 0.16164 0.91071 0.35004 0.0
C843 C 0.01996 0.8108 0.36328 0.0
C844 C 0.06293 0.87332 0.32793 0.0
C845 C 0.98794 0.77564 0.36841 0.0
C846 C 0.20823 0.99538 0.30158 0.0
C847 C 0.17411 0.96316 0.30738 0.0
C848 C 0.13421 0.9012 0.34388 0.0
C849 C 0.03055 0.81671 0.34694 0.0
C850 C 0.06516 0.85335 0.34149 0.0
C851 C 0.16791 0.95626 0.32403 0.0
C852 C 0.13222 0.92123 0.33023 0.0
H853 H 0.96081 0.72903 0.33215 0.0
H854 H 0.0163 0.79061 0.3232 0.0
H855 H 0.10361 0.85265 0.35987 0.0
H856 H 0.25243 0.03411 0.33749 0.0
H857 H 0.19251 0.97889 0.34761 0.0
C858 C 0.21777 0.98341 0.67407 0.0
C859 C 0.21701 0.97381 0.69041 0.0
C860 C 0.21461 0.01571 0.66953 0.0
C861 C 0.23518 0.11101 0.68355 0.0
H862 H 0.16609 0.10453 0.64907 0.0
C863 C 0.22415 0.24521 0.66419 0.0
C864 C 0.22008 0.25001 0.64769 0.0
C865 C 0.22079 0.2105 0.67 0.0
C866 C 0.18592 0.10701 0.65858 0.0
H867 H 0.21201 0.99037 0.71479 0.0
H868 H 0.20728 0.04753 0.70681 0.0
H869 H 0.16541 0.04551 0.65817 0.0
H870 H 0.20937 0.22217 0.6243 0.0
H871 H 0.20487 0.16215 0.63431 0.0
H872 H 0.25695 0.17254 0.68361 0.0
C873 C 0.21011 0.02976 0.69757 0.0
C874 C 0.18531 0.07314 0.66384 0.0
C875 C 0.21265 0.99702 0.70212 0.0
C876 C 0.21243 0.21928 0.63711 0.0
C877 C 0.20958 0.18473 0.64288 0.0
C878 C 0.2362 0.14498 0.67815 0.0
C879 C 0.21117 0.03942 0.68123 0.0
C880 C 0.21009 0.07487 0.67631 0.0
C881 C 0.2138 0.1799 0.65941 0.0
C882 C 0.21174 0.14348 0.66552 0.0
H883 H 0.22093 0.96602 0.66475 0.0
H884 H 0.21584 0.02271 0.65687 0.0
H885 H 0.25495 0.11321 0.69304 0.0
H886 H 0.22968 0.26821 0.67269 0.0
H887 H 0.22344 0.20762 0.68282 0.0
loop_
_geom_bond_atom_site_label_1
_geom_bond_atom_site_label_2
_geom_bond_distance
_geom_bond_site_symmetry_2
_ccdc_geom_bond_type
Zn0 O3 2.031 . S
Zn0 O5 2.049 . S
Zn0 O10 2.067 . S
Zn1 O2 1.962 . S
Zn1 O4 1.986 . S
Zn1 O6 1.996 . S
Zn1 O9 1.943 . S
O2 Zn1 1.962 . S
O2 C7 1.254 . S
O3 Zn0 2.031 . S
O3 C7 1.269 . S
O4 Zn1 1.986 . S
O4 C11 1.262 . S
O5 Zn0 2.049 . S
O5 C13 1.260 . S
O6 Zn1 1.996 . S
O6 C13 1.257 . S
C7 O2 1.254 . S
C7 O3 1.269 . S
C8 O9 1.249 . S
C8 O10 1.270 . S
O9 Zn1 1.943 . S
O9 C8 1.249 . S
O10 Zn0 2.067 . S
O10 C8 1.270 . S
C11 O4 1.262 . S
C11 O12 1.232 . S
O12 C11 1.232 . S
C13 O5 1.260 . S
C13 O6 1.257 . S
Zn14 O17 2.031 . S
Zn14 O19 2.049 . S
Zn14 O24 2.067 . S
Zn15 O16 1.962 . S
Zn15 O18 1.986 . S
Zn15 O20 1.996 . S
Zn15 O23 1.943 . S
O16 Zn15 1.962 . S
O16 C21 1.254 . S
O17 Zn14 2.031 . S
O17 C21 1.269 . S
O18 Zn15 1.986 . S
O18 C25 1.262 . S
O19 Zn14 2.049 . S
O19 C27 1.260 . S
O20 Zn15 1.996 . S
O20 C27 1.257 . S
C21 O16 1.254 . S
C21 O17 1.269 . S
C22 O23 1.249 . S
C22 O24 1.270 . S
O23 Zn15 1.943 . S
O23 C22 1.249 . S
O24 Zn14 2.067 . S
O24 C22 1.270 . S
C25 O18 1.262 . S
C25 O26 1.232 . S
O26 C25 1.232 . S
C27 O19 1.260 . S
C27 O20 1.257 . S
Zn28 O31 2.031 . S
Zn28 O33 2.049 . S
Zn28 O38 2.067 . S
Zn29 O30 1.962 . S
Zn29 O32 1.986 . S
Zn29 O34 1.996 . S
Zn29 O37 1.943 . S
O30 Zn29 1.962 . S
O30 C35 1.254 . S
O31 Zn28 2.031 . S
O31 C35 1.269 . S
O32 Zn29 1.986 . S
O32 C39 1.262 . S
O33 Zn28 2.049 . S
O33 C41 1.260 . S
O34 Zn29 1.996 . S
O34 C41 1.257 . S
C35 O30 1.254 . S
C35 O31 1.269 . S
C36 O37 1.249 . S
C36 O38 1.270 . S
O37 Zn29 1.943 . S
O37 C36 1.249 . S
O38 Zn28 2.067 . S
O38 C36 1.270 . S
C39 O32 1.262 . S
C39 O40 1.232 . S
O40 C39 1.232 . S
C41 O33 1.260 . S
C41 O34 1.257 . S
Zn42 O45 2.031 . S
Zn42 O47 2.049 . S
Zn42 O52 2.067 . S
Zn43 O44 1.962 . S
Zn43 O46 1.986 . S
Zn43 O48 1.996 . S
Zn43 O51 1.943 . S
O44 Zn43 1.962 . S
O44 C49 1.254 . S
O45 Zn42 2.031 . S
O45 C49 1.269 . S
O46 Zn43 1.986 . S
O46 C53 1.262 . S
O47 Zn42 2.049 . S
O47 C55 1.260 . S
O48 Zn43 1.996 . S
O48 C55 1.257 . S
C49 O44 1.254 . S
C49 O45 1.269 . S
C50 O51 1.249 . S
C50 O52 1.270 . S
O51 Zn43 1.943 . S
O51 C50 1.249 . S
O52 Zn42 2.067 . S
O52 C50 1.270 . S
C53 O46 1.262 . S
C53 O54 1.232 . S
O54 C53 1.232 . S
C55 O47 1.260 . S
C55 O48 1.257 . S
Zn56 O59 2.031 . S
Zn56 O61 2.049 . S
Zn56 O66 2.067 . S
Zn57 O58 1.962 . S
Zn57 O60 1.986 . S
Zn57 O62 1.996 . S
Zn57 O65 1.943 . S
O58 Zn57 1.962 . S
O58 C63 1.254 . S
O59 Zn56 2.031 . S
O59 C63 1.269 . S
O60 Zn57 1.986 . S
O60 C67 1.262 . S
O61 Zn56 2.049 . S
O61 C69 1.260 . S
O62 Zn57 1.996 . S
O62 C69 1.257 . S
C63 O58 1.254 . S
C63 O59 1.269 . S
C64 O65 1.249 . S
C64 O66 1.270 . S
O65 Zn57 1.943 . S
O65 C64 1.249 . S
O66 Zn56 2.067 . S
O66 C64 1.270 . S
C67 O60 1.262 . S
C67 O68 1.232 . S
O68 C67 1.232 . S
C69 O61 1.260 . S
C69 O62 1.257 . S
Zn70 O73 2.031 . S
Zn70 O75 2.049 . S
Zn70 O80 2.067 . S
Zn71 O72 1.962 . S
Zn71 O74 1.986 . S
Zn71 O76 1.996 . S
Zn71 O79 1.943 . S
O72 Zn71 1.962 . S
O72 C77 1.254 . S
O73 Zn70 2.031 . S
O73 C77 1.269 . S
O74 Zn71 1.986 . S
O74 C81 1.262 . S
O75 Zn70 2.049 . S
O75 C83 1.260 . S
O76 Zn71 1.996 . S
O76 C83 1.257 . S
C77 O72 1.254 . S
C77 O73 1.269 . S
C78 O79 1.249 . S
C78 O80 1.270 . S
O79 Zn71 1.943 . S
O79 C78 1.249 . S
O80 Zn70 2.067 . S
O80 C78 1.270 . S
C81 O74 1.262 . S
C81 O82 1.232 . S
O82 C81 1.232 . S
C83 O75 1.260 . S
C83 O76 1.257 . S
Zn84 O87 2.031 . S
Zn84 O89 2.049 . S
Zn84 O94 2.067 . S
Zn85 O86 1.962 . S
Zn85 O88 1.986 . S
Zn85 O90 1.996 . S
Zn85 O93 1.943 . S
O86 Zn85 1.962 . S
O86 C91 1.254 . S
O87 Zn84 2.031 . S
O87 C91 1.269 . S
O88 Zn85 1.986 . S
O88 C95 1.262 . S
O89 Zn84 2.049 . S
O89 C97 1.260 . S
O90 Zn85 1.996 . S
O90 C97 1.257 . S
C91 O86 1.254 . S
C91 O87 1.269 . S
C92 O93 1.249 . S
C92 O94 1.270 . S
O93 Zn85 1.943 . S
O93 C92 1.249 . S
O94 Zn84 2.067 . S
O94 C92 1.270 . S
C95 O88 1.262 . S
C95 O96 1.232 . S
O96 C95 1.232 . S
C97 O89 1.260 . S
C97 O90 1.257 . S
Zn98 O101 2.031 . S
Zn98 O103 2.049 . S
Zn98 O108 2.067 . S
Zn99 O100 1.962 . S
Zn99 O102 1.986 . S
Zn99 O104 1.996 . S
Zn99 O107 1.943 . S
O100 Zn99 1.962 . S
O100 C105 1.254 . S
O101 Zn98 2.031 . S
O101 C105 1.269 . S
O102 Zn99 1.986 . S
O102 C109 1.262 . S
O103 Zn98 2.049 . S
O103 C111 1.260 . S
O104 Zn99 1.996 . S
O104 C111 1.257 . S
C105 O100 1.254 . S
C105 O101 1.269 . S
C106 O107 1.249 . S
C106 O108 1.270 . S
O107 Zn99 1.943 . S
O107 C106 1.249 . S
O108 Zn98 2.067 . S
O108 C106 1.270 . S
C109 O102 1.262 . S
C109 O110 1.232 . S
O110 C109 1.232 . S
C111 O103 1.260 . S
C111 O104 1.257 . S
Zn112 O115 2.031 . S
Zn112 O117 2.049 . S
Zn112 O122 2.067 . S
Zn113 O114 1.962 . S
Zn113 O116 1.986 . S
Zn113 O118 1.996 . S
Zn113 O121 1.943 . S
O114 Zn113 1.962 . S
O114 C119 1.254 . S
O115 Zn112 2.031 . S
O115 C119 1.269 . S
O116 Zn113 1.986 . S
O116 C123 1.262 . S
O117 Zn112 2.049 . S
O117 C125 1.260 . S
O118 Zn113 1.996 . S
O118 C125 1.257 . S
C119 O114 1.254 . S
C119 O115 1.269 . S
C120 O121 1.249 . S
C120 O122 1.270 . S
O121 Zn113 1.943 . S
O121 C120 1.249 . S
O122 Zn112 2.067 . S
O122 C120 1.270 . S
C123 O116 1.262 . S
C123 O124 1.232 . S
O124 C123 1.232 . S
C125 O117 1.260 . S
C125 O118 1.257 . S
Zn126 O129 2.031 . S
Zn126 O131 2.049 . S
Zn126 O136 2.067 . S
Zn127 O128 1.962 . S
Zn127 O130 1.986 . S
Zn127 O132 1.996 . S
Zn127 O135 1.943 . S
O128 Zn127 1.962 . S
O128 C133 1.254 . S
O129 Zn126 2.031 . S
O129 C133 1.269 . S
O130 Zn127 1.986 . S
O130 C137 1.262 . S
O131 Zn126 2.049 . S
O131 C139 1.260 . S
O132 Zn127 1.996 . S
O132 C139 1.257 . S
C133 O128 1.254 . S
C133 O129 1.269 . S
C134 O135 1.249 . S
C134 O136 1.270 . S
O135 Zn127 1.943 . S
O135 C134 1.249 . S
O136 Zn126 2.067 . S
O136 C134 1.270 . S
C137 O130 1.262 . S
C137 O138 1.232 . S
O138 C137 1.232 . S
C139 O131 1.260 . S
C139 O132 1.257 . S
Zn140 O143 2.031 . S
Zn140 O145 2.049 . S
Zn140 O150 2.067 . S
Zn141 O142 1.962 . S
Zn141 O144 1.986 . S
Zn141 O146 1.996 . S
Zn141 O149 1.943 . S
O142 Zn141 1.962 . S
O142 C147 1.254 . S
O143 Zn140 2.031 . S
O143 C147 1.269 . S
O144 Zn141 1.986 . S
O144 C151 1.262 . S
O145 Zn140 2.049 . S
O145 C153 1.260 . S
O146 Zn141 1.996 . S
O146 C153 1.257 . S
C147 O142 1.254 . S
C147 O143 1.269 . S
C148 O149 1.249 . S
C148 O150 1.270 . S
O149 Zn141 1.943 . S
O149 C148 1.249 . S
O150 Zn140 2.067 . S
O150 C148 1.270 . S
C151 O144 1.262 . S
C151 O152 1.232 . S
O152 C151 1.232 . S
C153 O145 1.260 . S
C153 O146 1.257 . S
Zn154 O157 2.031 . S
Zn154 O159 2.049 . S
Zn154 O164 2.067 . S
Zn155 O156 1.962 . S
Zn155 O158 1.986 . S
Zn155 O160 1.996 . S
Zn155 O163 1.943 . S
O156 Zn155 1.962 . S
O156 C161 1.254 . S
O157 Zn154 2.031 . S
O157 C161 1.269 . S
O158 Zn155 1.986 . S
O158 C165 1.262 . S
O159 Zn154 2.049 . S
O159 C167 1.260 . S
O160 Zn155 1.996 . S
O160 C167 1.257 . S
C161 O156 1.254 . S
C161 O157 1.269 . S
C162 O163 1.249 . S
C162 O164 1.270 . S
O163 Zn155 1.943 . S
O163 C162 1.249 . S
O164 Zn154 2.067 . S
O164 C162 1.270 . S
C165 O158 1.262 . S
C165 O166 1.232 . S
O166 C165 1.232 . S
C167 O159 1.260 . S
C167 O160 1.257 . S
C168 C169 1.349 . S
C168 C170 1.327 . S
C168 H193 0.950 . S
C169 C168 1.349 . S
C169 C185 1.349 . S
C170 C168 1.327 . S
C170 C189 1.429 . S
C170 H194 0.950 . S
C171 C188 1.574 . S
C171 C190 1.368 . S
C171 H195 0.949 . S
H172 C176 0.949 . S
C173 C174 1.349 . S
C173 C175 1.327 . S
C173 H196 0.950 . S
C174 C173 1.349 . S
C174 C186 1.349 . S
C175 C173 1.327 . S
C175 C191 1.429 . S
C175 H197 0.950 . S
C176 H172 0.949 . S
C176 C184 1.574 . S
C176 C192 1.368 . S
H177 C185 0.950 . S
H178 C183 0.950 . S
H179 C184 0.949 . S
H180 C186 0.950 . S
H181 C187 0.950 . S
H182 C188 0.949 . S
C183 H178 0.950 . S
C183 C185 1.327 . S
C183 C189 1.429 . S
C184 C176 1.574 . S
C184 H179 0.949 . S
C184 C190 1.368 . S
C185 C169 1.349 . S
C185 H177 0.950 . S
C185 C183 1.327 . S
C186 C174 1.349 . S
C186 H180 0.950 . S
C186 C187 1.327 . S
C187 H181 0.950 . S
C187 C186 1.327 . S
C187 C191 1.429 . S
C188 C171 1.574 . S
C188 H182 0.949 . S
C188 C192 1.368 . S
C189 C170 1.429 . S
C189 C183 1.429 . S
C189 C190 1.523 . S
C190 C171 1.368 . S
C190 C184 1.368 . S
C190 C189 1.523 . S
C191 C175 1.429 . S
C191 C187 1.429 . S
C191 C192 1.523 . S
C192 C176 1.368 . S
C192 C188 1.368 . S
C192 C191 1.523 . S
H193 C168 0.950 . S
H194 C170 0.950 . S
H195 C171 0.949 . S
H196 C173 0.950 . S
H197 C175 0.950 . S
C198 C199 1.349 . S
C198 C200 1.327 . S
C198 H223 0.950 . S
C199 C198 1.349 . S
C199 C215 1.349 . S
C200 C198 1.327 . S
C200 C219 1.429 . S
C200 H224 0.950 . S
C201 C218 1.574 . S
C201 C220 1.368 1_655 S
C201 H225 0.949 . S
H202 C206 0.949 . S
C203 C204 1.349 . S
C203 C205 1.327 . S
C203 H226 0.950 . S
C204 C203 1.349 . S
C204 C216 1.349 . S
C205 C203 1.327 . S
C205 C221 1.429 . S
C205 H227 0.950 . S
C206 H202 0.949 . S
C206 C214 1.574 . S
C206 C222 1.368 1_455 S
H207 C215 0.950 . S
H208 C213 0.950 . S
H209 C214 0.949 . S
H210 C216 0.950 . S
H211 C217 0.950 . S
H212 C218 0.949 . S
C213 H208 0.950 . S
C213 C215 1.327 . S
C213 C219 1.429 . S
C214 C206 1.574 . S
C214 H209 0.949 . S
C214 C220 1.368 . S
C215 C199 1.349 . S
C215 H207 0.950 . S
C215 C213 1.327 . S
C216 C204 1.349 . S
C216 H210 0.950 . S
C216 C217 1.327 . S
C217 H211 0.950 . S
C217 C216 1.327 . S
C217 C221 1.429 . S
C218 C201 1.574 . S
C218 H212 0.949 . S
C218 C222 1.368 . S
C219 C200 1.429 . S
C219 C213 1.429 . S
C219 C220 1.523 . S
C220 C201 1.368 1_455 S
C220 C214 1.368 . S
C220 C219 1.523 . S
C221 C205 1.429 . S
C221 C217 1.429 . S
C221 C222 1.523 . S
C222 C206 1.368 1_655 S
C222 C218 1.368 . S
C222 C221 1.523 . S
H223 C198 0.950 . S
H224 C200 0.950 . S
H225 C201 0.949 . S
H226 C203 0.950 . S
H227 C205 0.950 . S
C228 C229 1.349 . S
C228 C230 1.327 . S
C228 H253 0.950 . S
C229 C228 1.349 . S
C229 C245 1.349 . S
C230 C228 1.327 . S
C230 C249 1.429 . S
C230 H254 0.950 . S
C231 C248 1.574 . S
C231 C250 1.368 1_545 S
C231 H255 0.949 . S
H232 C236 0.949 . S
C233 C234 1.349 . S
C233 C235 1.327 . S
C233 H256 0.950 . S
C234 C233 1.349 . S
C234 C246 1.349 . S
C235 C233 1.327 . S
C235 C251 1.429 . S
C235 H257 0.950 . S
C236 H232 0.949 . S
C236 C244 1.574 . S
C236 C252 1.368 1_565 S
H237 C245 0.950 . S
H238 C243 0.950 . S
H239 C244 0.949 . S
H240 C246 0.950 . S
H241 C247 0.950 . S
H242 C248 0.949 . S
C243 H238 0.950 . S
C243 C245 1.327 . S
C243 C249 1.429 . S
C244 C236 1.574 . S
C244 H239 0.949 . S
C244 C250 1.368 . S
C245 C229 1.349 . S
C245 H237 0.950 . S
C245 C243 1.327 . S
C246 C234 1.349 . S
C246 H240 0.950 . S
C246 C247 1.327 . S
C247 H241 0.950 . S
C247 C246 1.327 . S
C247 C251 1.429 . S
C248 C231 1.574 . S
C248 H242 0.949 . S
C248 C252 1.368 . S
C249 C230 1.429 . S
C249 C243 1.429 . S
C249 C250 1.523 . S
C250 C231 1.368 1_565 S
C250 C244 1.368 . S
C250 C249 1.523 . S
C251 C235 1.429 . S
C251 C247 1.429 . S
C251 C252 1.523 . S
C252 C236 1.368 1_545 S
C252 C248 1.368 . S
C252 C251 1.523 . S
H253 C228 0.950 . S
H254 C230 0.950 . S
H255 C231 0.949 . S
H256 C233 0.950 . S
H257 C235 0.950 . S
C258 C259 1.349 . S
C258 C260 1.327 . S
C258 H283 0.950 . S
C259 C258 1.349 . S
C259 C275 1.349 . S
C260 C258 1.327 . S
C260 C279 1.429 . S
C260 H284 0.950 . S
C261 C278 1.574 . S
C261 C280 1.368 . S
C261 H285 0.949 . S
H262 C266 0.949 . S
C263 C264 1.349 . S
C263 C265 1.327 . S
C263 H286 0.950 . S
C264 C263 1.349 . S
C264 C276 1.349 . S
C265 C263 1.327 . S
C265 C281 1.429 . S
C265 H287 0.950 . S
C266 H262 0.949 . S
C266 C274 1.574 . S
C266 C282 1.368 . S
H267 C275 0.950 . S
H268 C273 0.950 . S
H269 C274 0.949 . S
H270 C276 0.950 . S
H271 C277 0.950 . S
H272 C278 0.949 . S
C273 H268 0.950 . S
C273 C275 1.327 . S
C273 C279 1.429 . S
C274 C266 1.574 . S
C274 H269 0.949 . S
C274 C280 1.368 . S
C275 C259 1.349 . S
C275 H267 0.950 . S
C275 C273 1.327 . S
C276 C264 1.349 . S
C276 H270 0.950 . S
C276 C277 1.327 . S
C277 H271 0.950 . S
C277 C276 1.327 . S
C277 C281 1.429 . S
C278 C261 1.574 . S
C278 H272 0.949 . S
C278 C282 1.368 . S
C279 C260 1.429 . S
C279 C273 1.429 . S
C279 C280 1.523 . S
C280 C261 1.368 . S
C280 C274 1.368 . S
C280 C279 1.523 . S
C281 C265 1.429 . S
C281 C277 1.429 . S
C281 C282 1.523 . S
C282 C266 1.368 . S
C282 C278 1.368 . S
C282 C281 1.523 . S
H283 C258 0.950 . S
H284 C260 0.950 . S
H285 C261 0.949 . S
H286 C263 0.950 . S
H287 C265 0.950 . S
C288 C289 1.349 . S
C288 C290 1.327 . S
C288 H313 0.950 . S
C289 C288 1.349 . S
C289 C305 1.349 . S
C290 C288 1.327 . S
C290 C309 1.429 . S
C290 H314 0.950 . S
C291 C308 1.574 . S
C291 C310 1.368 . S
C291 H315 0.949 . S
H292 C296 0.949 . S
C293 C294 1.349 . S
C293 C295 1.327 . S
C293 H316 0.950 . S
C294 C293 1.349 . S
C294 C306 1.349 . S
C295 C293 1.327 . S
C295 C311 1.429 . S
C295 H317 0.950 . S
C296 H292 0.949 . S
C296 C304 1.574 . S
C296 C312 1.368 . S
H297 C305 0.950 . S
H298 C303 0.950 . S
H299 C304 0.949 . S
H300 C306 0.950 . S
H301 C307 0.950 . S
H302 C308 0.949 . S
C303 H298 0.950 . S
C303 C305 1.327 . S
C303 C309 1.429 . S
C304 C296 1.574 . S
C304 H299 0.949 . S
C304 C310 1.368 1_455 S
C305 C289 1.349 . S
C305 H297 0.950 . S
C305 C303 1.327 . S
C306 C294 1.349 . S
C306 H300 0.950 . S
C306 C307 1.327 . S
C307 H301 0.950 . S
C307 C306 1.327 . S
C307 C311 1.429 . S
C308 C291 1.574 . S
C308 H302 0.949 . S
C308 C312 1.368 1_655 S
C309 C290 1.429 . S
C309 C303 1.429 . S
C309 C310 1.523 . S
C310 C291 1.368 . S
C310 C304 1.368 1_655 S
C310 C309 1.523 . S
C311 C295 1.429 . S
C311 C307 1.429 . S
C311 C312 1.523 . S
C312 C296 1.368 . S
C312 C308 1.368 1_455 S
C312 C311 1.523 . S
H313 C288 0.950 . S
H314 C290 0.950 . S
H315 C291 0.949 . S
H316 C293 0.950 . S
H317 C295 0.950 . S
C318 C319 1.349 . S
C318 C320 1.327 . S
C318 H343 0.950 . S
C319 C318 1.349 . S
C319 C335 1.349 . S
C320 C318 1.327 . S
C320 C339 1.429 . S
C320 H344 0.950 . S
C321 C338 1.574 . S
C321 C340 1.368 . S
C321 H345 0.949 . S
H322 C326 0.949 . S
C323 C324 1.349 . S
C323 C325 1.327 . S
C323 H346 0.950 . S
C324 C323 1.349 . S
C324 C336 1.349 . S
C325 C323 1.327 . S
C325 C341 1.429 . S
C325 H347 0.950 . S
C326 H322 0.949 . S
C326 C334 1.574 . S
C326 C342 1.368 . S
H327 C335 0.950 . S
H328 C333 0.950 . S
H329 C334 0.949 . S
H330 C336 0.950 . S
H331 C337 0.950 . S
H332 C338 0.949 . S
C333 H328 0.950 . S
C333 C335 1.327 . S
C333 C339 1.429 . S
C334 C326 1.574 . S
C334 H329 0.949 . S
C334 C340 1.368 1_565 S
C335 C319 1.349 . S
C335 H327 0.950 . S
C335 C333 1.327 . S
C336 C324 1.349 . S
C336 H330 0.950 . S
C336 C337 1.327 . S
C337 H331 0.950 . S
C337 C336 1.327 . S
C337 C341 1.429 . S
C338 C321 1.574 . S
C338 H332 0.949 . S
C338 C342 1.368 1_545 S
C339 C320 1.429 . S
C339 C333 1.429 . S
C339 C340 1.523 . S
C340 C321 1.368 . S
C340 C334 1.368 1_545 S
C340 C339 1.523 . S
C341 C325 1.429 . S
C341 C337 1.429 . S
C341 C342 1.523 . S
C342 C326 1.368 . S
C342 C338 1.368 1_565 S
C342 C341 1.523 . S
H343 C318 0.950 . S
H344 C320 0.950 . S
H345 C321 0.949 . S
H346 C323 0.950 . S
H347 C325 0.950 . S
C348 C349 1.349 . S
C348 C350 1.327 . S
C348 H373 0.950 . S
C349 C348 1.349 . S
C349 C365 1.349 . S
C350 C348 1.327 . S
C350 C369 1.429 . S
C350 H374 0.950 . S
C351 C368 1.574 . S
C351 C370 1.368 . S
C351 H375 0.949 . S
H352 C356 0.949 . S
C353 C354 1.349 . S
C353 C355 1.327 . S
C353 H376 0.950 . S
C354 C353 1.349 . S
C354 C366 1.349 . S
C355 C353 1.327 . S
C355 C371 1.429 . S
C355 H377 0.950 . S
C356 H352 0.949 . S
C356 C364 1.574 . S
C356 C372 1.368 . S
H357 C365 0.950 . S
H358 C363 0.950 . S
H359 C364 0.949 . S
H360 C366 0.950 . S
H361 C367 0.950 . S
H362 C368 0.949 . S
C363 H358 0.950 . S
C363 C365 1.327 . S
C363 C369 1.429 . S
C364 C356 1.574 . S
C364 H359 0.949 . S
C364 C370 1.368 . S
C365 C349 1.349 . S
C365 H357 0.950 . S
C365 C363 1.327 . S
C366 C354 1.349 . S
C366 H360 0.950 . S
C366 C367 1.327 . S
C367 H361 0.950 . S
C367 C366 1.327 . S
C367 C371 1.429 . S
C368 C351 1.574 . S
C368 H362 0.949 . S
C368 C372 1.368 . S
C369 C350 1.429 . S
C369 C363 1.429 . S
C369 C370 1.523 . S
C370 C351 1.368 . S
C370 C364 1.368 . S
C370 C369 1.523 . S
C371 C355 1.429 . S
C371 C367 1.429 . S
C371 C372 1.523 . S
C372 C356 1.368 . S
C372 C368 1.368 . S
C372 C371 1.523 . S
H373 C348 0.950 . S
H374 C350 0.950 . S
H375 C351 0.949 . S
H376 C353 0.950 . S
H377 C355 0.950 . S
C378 C379 1.349 . S
C378 C380 1.327 . S
C378 H403 0.950 . S
C379 C378 1.349 . S
C379 C395 1.349 . S
C380 C378 1.327 . S
C380 C399 1.429 . S
C380 H404 0.950 . S
C381 C398 1.574 . S
C381 C400 1.368 . S
C381 H405 0.949 . S
H382 C386 0.949 . S
C383 C384 1.349 . S
C383 C385 1.327 . S
C383 H406 0.950 . S
C384 C383 1.349 . S
C384 C396 1.349 . S
C385 C383 1.327 . S
C385 C401 1.429 . S
C385 H407 0.950 . S
C386 H382 0.949 . S
C386 C394 1.574 . S
C386 C402 1.368 . S
H387 C395 0.950 . S
H388 C393 0.950 . S
H389 C394 0.949 . S
H390 C396 0.950 . S
H391 C397 0.950 . S
H392 C398 0.949 . S
C393 H388 0.950 . S
C393 C395 1.327 . S
C393 C399 1.429 . S
C394 C386 1.574 . S
C394 H389 0.949 . S
C394 C400 1.368 . S
C395 C379 1.349 . S
C395 H387 0.950 . S
C395 C393 1.327 . S
C396 C384 1.349 . S
C396 H390 0.950 . S
C396 C397 1.327 . S
C397 H391 0.950 . S
C397 C396 1.327 . S
C397 C401 1.429 . S
C398 C381 1.574 . S
C398 H392 0.949 . S
C398 C402 1.368 . S
C399 C380 1.429 . S
C399 C393 1.429 . S
C399 C400 1.523 . S
C400 C381 1.368 . S
C400 C394 1.368 . S
C400 C399 1.523 . S
C401 C385 1.429 . S
C401 C397 1.429 . S
C401 C402 1.523 . S
C402 C386 1.368 . S
C402 C398 1.368 . S
C402 C401 1.523 . S
H403 C378 0.950 . S
H404 C380 0.950 . S
H405 C381 0.949 . S
H406 C383 0.950 . S
H407 C385 0.950 . S
C408 C409 1.349 . S
C408 C410 1.327 . S
C408 H433 0.950 . S
C409 C408 1.349 . S
C409 C425 1.349 . S
C410 C408 1.327 . S
C410 C429 1.429 . S
C410 H434 0.950 . S
C411 C428 1.574 . S
C411 C430 1.368 . S
C411 H435 0.949 . S
H412 C416 0.949 . S
C413 C414 1.349 . S
C413 C415 1.327 . S
C413 H436 0.950 . S
C414 C413 1.349 . S
C414 C426 1.349 . S
C415 C413 1.327 . S
C415 C431 1.429 . S
C415 H437 0.950 . S
C416 H412 0.949 . S
C416 C424 1.574 . S
C416 C432 1.368 . S
H417 C425 0.950 . S
H418 C423 0.950 . S
H419 C424 0.949 . S
H420 C426 0.950 . S
H421 C427 0.950 . S
H422 C428 0.949 . S
C423 H418 0.950 . S
C423 C425 1.327 . S
C423 C429 1.429 . S
C424 C416 1.574 . S
C424 H419 0.949 . S
C424 C430 1.368 . S
C425 C409 1.349 . S
C425 H417 0.950 . S
C425 C423 1.327 . S
C426 C414 1.349 . S
C426 H420 0.950 . S
C426 C427 1.327 . S
C427 H421 0.950 . S
C427 C426 1.327 . S
C427 C431 1.429 . S
C428 C411 1.574 . S
C428 H422 0.949 . S
C428 C432 1.368 . S
C429 C410 1.429 . S
C429 C423 1.429 . S
C429 C430 1.523 . S
C430 C411 1.368 . S
C430 C424 1.368 . S
C430 C429 1.523 . S
C431 C415 1.429 . S
C431 C427 1.429 . S
C431 C432 1.523 . S
C432 C416 1.368 . S
C432 C428 1.368 . S
C432 C431 1.523 . S
H433 C408 0.950 . S
H434 C410 0.950 . S
H435 C411 0.949 . S
H436 C413 0.950 . S
H437 C415 0.950 . S
C438 C439 1.349 . S
C438 C440 1.327 . S
C438 H463 0.950 . S
C439 C438 1.349 . S
C439 C455 1.349 . S
C440 C438 1.327 . S
C440 C459 1.429 . S
C440 H464 0.950 . S
C441 C458 1.574 . S
C441 C460 1.368 . S
C441 H465 0.949 . S
H442 C446 0.949 . S
C443 C444 1.349 . S
C443 C445 1.327 . S
C443 H466 0.950 . S
C444 C443 1.349 . S
C444 C456 1.349 . S
C445 C443 1.327 . S
C445 C461 1.429 . S
C445 H467 0.950 . S
C446 H442 0.949 . S
C446 C454 1.574 . S
C446 C462 1.368 . S
H447 C455 0.950 . S
H448 C453 0.950 . S
H449 C454 0.949 . S
H450 C456 0.950 . S
H451 C457 0.950 . S
H452 C458 0.949 . S
C453 H448 0.950 . S
C453 C455 1.327 . S
C453 C459 1.429 . S
C454 C446 1.574 . S
C454 H449 0.949 . S
C454 C460 1.368 . S
C455 C439 1.349 . S
C455 H447 0.950 . S
C455 C453 1.327 . S
C456 C444 1.349 . S
C456 H450 0.950 . S
C456 C457 1.327 . S
C457 H451 0.950 . S
C457 C456 1.327 . S
C457 C461 1.429 . S
C458 C441 1.574 . S
C458 H452 0.949 . S
C458 C462 1.368 . S
C459 C440 1.429 . S
C459 C453 1.429 . S
C459 C460 1.523 . S
C460 C441 1.368 . S
C460 C454 1.368 . S
C460 C459 1.523 . S
C461 C445 1.429 . S
C461 C457 1.429 . S
C461 C462 1.523 . S
C462 C446 1.368 . S
C462 C458 1.368 . S
C462 C461 1.523 . S
H463 C438 0.950 . S
H464 C440 0.950 . S
H465 C441 0.949 . S
H466 C443 0.950 . S
H467 C445 0.950 . S
C468 C469 1.349 . S
C468 C470 1.327 . S
C468 H493 0.950 . S
C469 C468 1.349 . S
C469 C485 1.349 . S
C470 C468 1.327 . S
C470 C489 1.429 . S
C470 H494 0.950 . S
C471 C488 1.574 . S
C471 C490 1.368 . S
C471 H495 0.949 . S
H472 C476 0.949 . S
C473 C474 1.349 . S
C473 C475 1.327 . S
C473 H496 0.950 . S
C474 C473 1.349 . S
C474 C486 1.349 . S
C475 C473 1.327 . S
C475 C491 1.429 . S
C475 H497 0.950 . S
C476 H472 0.949 . S
C476 C484 1.574 . S
C476 C492 1.368 . S
H477 C485 0.950 . S
H478 C483 0.950 . S
H479 C484 0.949 . S
H480 C486 0.950 . S
H481 C487 0.950 . S
H482 C488 0.949 . S
C483 H478 0.950 . S
C483 C485 1.327 . S
C483 C489 1.429 . S
C484 C476 1.574 . S
C484 H479 0.949 . S
C484 C490 1.368 . S
C485 C469 1.349 . S
C485 H477 0.950 . S
C485 C483 1.327 . S
C486 C474 1.349 . S
C486 H480 0.950 . S
C486 C487 1.327 . S
C487 H481 0.950 . S
C487 C486 1.327 . S
C487 C491 1.429 . S
C488 C471 1.574 . S
C488 H482 0.949 . S
C488 C492 1.368 . S
C489 C470 1.429 . S
C489 C483 1.429 . S
C489 C490 1.523 . S
C490 C471 1.368 . S
C490 C484 1.368 . S
C490 C489 1.523 . S
C491 C475 1.429 . S
C491 C487 1.429 . S
C491 C492 1.523 . S
C492 C476 1.368 . S
C492 C488 1.368 . S
C492 C491 1.523 . S
H493 C468 0.950 . S
H494 C470 0.950 . S
H495 C471 0.949 . S
H496 C473 0.950 . S
H497 C475 0.950 . S
C498 C499 1.349 . S
C498 C500 1.327 . S
C498 H523 0.950 . S
C499 C498 1.349 . S
C499 C515 1.349 . S
C500 C498 1.327 . S
C500 C519 1.429 . S
C500 H524 0.950 . S
C501 C518 1.574 . S
C501 C520 1.368 . S
C501 H525 0.949 . S
H502 C506 0.949 . S
C503 C504 1.349 . S
C503 C505 1.327 . S
C503 H526 0.950 . S
C504 C503 1.349 . S
C504 C516 1.349 . S
C505 C503 1.327 . S
C505 C521 1.429 . S
C505 H527 0.950 . S
C506 H502 0.949 . S
C506 C514 1.574 . S
C506 C522 1.368 . S
H507 C515 0.950 . S
H508 C513 0.950 . S
H509 C514 0.949 . S
H510 C516 0.950 . S
H511 C517 0.950 . S
H512 C518 0.949 . S
C513 H508 0.950 . S
C513 C515 1.327 . S
C513 C519 1.429 . S
C514 C506 1.574 . S
C514 H509 0.949 . S
C514 C520 1.368 . S
C515 C499 1.349 . S
C515 H507 0.950 . S
C515 C513 1.327 . S
C516 C504 1.349 . S
C516 H510 0.950 . S
C516 C517 1.327 . S
C517 H511 0.950 . S
C517 C516 1.327 . S
C517 C521 1.429 . S
C518 C501 1.574 . S
C518 H512 0.949 . S
C518 C522 1.368 . S
C519 C500 1.429 . S
C519 C513 1.429 . S
C519 C520 1.523 . S
C520 C501 1.368 . S
C520 C514 1.368 . S
C520 C519 1.523 . S
C521 C505 1.429 . S
C521 C517 1.429 . S
C521 C522 1.523 . S
C522 C506 1.368 . S
C522 C518 1.368 . S
C522 C521 1.523 . S
H523 C498 0.950 . S
H524 C500 0.950 . S
H525 C501 0.949 . S
H526 C503 0.950 . S
H527 C505 0.950 . S
C528 C529 1.349 . S
C528 C530 1.327 . S
C528 H553 0.950 . S
C529 C528 1.349 . S
C529 C545 1.349 . S
C530 C528 1.327 . S
C530 C549 1.429 . S
C530 H554 0.950 . S
C531 C548 1.574 1_565 S
C531 C550 1.368 1_554 S
C531 H555 0.949 . S
H532 C536 0.949 . S
C533 C534 1.349 . S
C533 C535 1.327 . S
C533 H556 0.950 . S
C534 C533 1.349 . S
C534 C546 1.349 . S
C535 C533 1.327 . S
C535 C551 1.429 . S
C535 H557 0.950 . S
C536 H532 0.949 . S
C536 C544 1.574 1_545 S
C536 C552 1.368 1_556 S
H537 C545 0.950 . S
H538 C543 0.950 . S
H539 C544 0.949 . S
H540 C546 0.950 . S
H541 C547 0.950 . S
H542 C548 0.949 . S
C543 H538 0.950 . S
C543 C545 1.327 . S
C543 C549 1.429 . S
C544 C536 1.574 1_565 S
C544 H539 0.949 . S
C544 C550 1.368 . S
C545 C529 1.349 . S
C545 H537 0.950 . S
C545 C543 1.327 . S
C546 C534 1.349 . S
C546 H540 0.950 . S
C546 C547 1.327 . S
C547 H541 0.950 . S
C547 C546 1.327 . S
C547 C551 1.429 . S
C548 C531 1.574 1_545 S
C548 H542 0.949 . S
C548 C552 1.368 . S
C549 C530 1.429 . S
C549 C543 1.429 . S
C549 C550 1.523 . S
C550 C531 1.368 1_556 S
C550 C544 1.368 . S
C550 C549 1.523 . S
C551 C535 1.429 . S
C551 C547 1.429 . S
C551 C552 1.523 . S
C552 C536 1.368 1_554 S
C552 C548 1.368 . S
C552 C551 1.523 . S
H553 C528 0.950 . S
H554 C530 0.950 . S
H555 C531 0.949 . S
H556 C533 0.950 . S
H557 C535 0.950 . S
C558 C559 1.349 . S
C558 C560 1.327 . S
C558 H583 0.950 . S
C559 C558 1.349 . S
C559 C575 1.349 . S
C560 C558 1.327 . S
C560 C579 1.429 . S
C560 H584 0.950 . S
C561 C578 1.574 . S
C561 C580 1.368 . S
C561 H585 0.949 . S
H562 C566 0.949 . S
C563 C564 1.349 . S
C563 C565 1.327 . S
C563 H586 0.950 . S
C564 C563 1.349 . S
C564 C576 1.349 . S
C565 C563 1.327 . S
C565 C581 1.429 . S
C565 H587 0.950 . S
C566 H562 0.949 . S
C566 C574 1.574 . S
C566 C582 1.368 . S
H567 C575 0.950 . S
H568 C573 0.950 . S
H569 C574 0.949 . S
H570 C576 0.950 . S
H571 C577 0.950 . S
H572 C578 0.949 . S
C573 H568 0.950 . S
C573 C575 1.327 . S
C573 C579 1.429 . S
C574 C566 1.574 . S
C574 H569 0.949 . S
C574 C580 1.368 . S
C575 C559 1.349 . S
C575 H567 0.950 . S
C575 C573 1.327 . S
C576 C564 1.349 . S
C576 H570 0.950 . S
C576 C577 1.327 . S
C577 H571 0.950 . S
C577 C576 1.327 . S
C577 C581 1.429 . S
C578 C561 1.574 . S
C578 H572 0.949 . S
C578 C582 1.368 . S
C579 C560 1.429 . S
C579 C573 1.429 . S
C579 C580 1.523 . S
C580 C561 1.368 . S
C580 C574 1.368 . S
C580 C579 1.523 . S
C581 C565 1.429 . S
C581 C577 1.429 . S
C581 C582 1.523 . S
C582 C566 1.368 . S
C582 C578 1.368 . S
C582 C581 1.523 . S
H583 C558 0.950 . S
H584 C560 0.950 . S
H585 C561 0.949 . S
H586 C563 0.950 . S
H587 C565 0.950 . S
C588 C589 1.349 . S
C588 C590 1.327 . S
C588 H613 0.950 . S
C589 C588 1.349 . S
C589 C605 1.349 . S
C590 C588 1.327 . S
C590 C609 1.429 . S
C590 H614 0.950 . S
C591 C608 1.574 1_655 S
C591 C610 1.368 . S
C591 H615 0.949 . S
H592 C596 0.949 . S
C593 C594 1.349 . S
C593 C595 1.327 . S
C593 H616 0.950 . S
C594 C593 1.349 . S
C594 C606 1.349 . S
C595 C593 1.327 . S
C595 C611 1.429 . S
C595 H617 0.950 . S
C596 H592 0.949 . S
C596 C604 1.574 1_455 S
C596 C612 1.368 . S
H597 C605 0.950 . S
H598 C603 0.950 . S
H599 C604 0.949 . S
H600 C606 0.950 . S
H601 C607 0.950 . S
H602 C608 0.949 . S
C603 H598 0.950 . S
C603 C605 1.327 . S
C603 C609 1.429 . S
C604 C596 1.574 1_655 S
C604 H599 0.949 . S
C604 C610 1.368 . S
C605 C589 1.349 . S
C605 H597 0.950 . S
C605 C603 1.327 . S
C606 C594 1.349 . S
C606 H600 0.950 . S
C606 C607 1.327 . S
C607 H601 0.950 . S
C607 C606 1.327 . S
C607 C611 1.429 . S
C608 C591 1.574 1_455 S
C608 H602 0.949 . S
C608 C612 1.368 . S
C609 C590 1.429 . S
C609 C603 1.429 . S
C609 C610 1.523 . S
C610 C591 1.368 . S
C610 C604 1.368 . S
C610 C609 1.523 . S
C611 C595 1.429 . S
C611 C607 1.429 . S
C611 C612 1.523 . S
C612 C596 1.368 . S
C612 C608 1.368 . S
C612 C611 1.523 . S
H613 C588 0.950 . S
H614 C590 0.950 . S
H615 C591 0.949 . S
H616 C593 0.950 . S
H617 C595 0.950 . S
C618 C619 1.349 . S
C618 C620 1.327 . S
C618 H643 0.950 . S
C619 C618 1.349 . S
C619 C635 1.349 . S
C620 C618 1.327 . S
C620 C639 1.429 . S
C620 H644 0.950 1_554 S
C621 C638 1.574 1_565 S
C621 C640 1.368 . S
C621 H645 0.949 . S
H622 C626 0.949 . S
C623 C624 1.349 . S
C623 C625 1.327 . S
C623 H646 0.950 . S
C624 C623 1.349 . S
C624 C636 1.349 . S
C625 C623 1.327 . S
C625 C641 1.429 . S
C625 H647 0.950 1_556 S
C626 H622 0.949 . S
C626 C634 1.574 1_545 S
C626 C642 1.368 . S
H627 C635 0.950 . S
H628 C633 0.950 . S
H629 C634 0.949 . S
H630 C636 0.950 . S
H631 C637 0.950 . S
H632 C638 0.949 . S
C633 H628 0.950 . S
C633 C635 1.327 . S
C633 C639 1.429 . S
C634 C626 1.574 1_565 S
C634 H629 0.949 . S
C634 C640 1.368 1_556 S
C635 C619 1.349 . S
C635 H627 0.950 . S
C635 C633 1.327 . S
C636 C624 1.349 . S
C636 H630 0.950 . S
C636 C637 1.327 . S
C637 H631 0.950 . S
C637 C636 1.327 . S
C637 C641 1.429 . S
C638 C621 1.574 1_545 S
C638 H632 0.949 . S
C638 C642 1.368 1_554 S
C639 C620 1.429 . S
C639 C633 1.429 . S
C639 C640 1.523 . S
C640 C621 1.368 . S
C640 C634 1.368 1_554 S
C640 C639 1.523 . S
C641 C625 1.429 . S
C641 C637 1.429 . S
C641 C642 1.523 . S
C642 C626 1.368 . S
C642 C638 1.368 1_556 S
C642 C641 1.523 . S
H643 C618 0.950 . S
H644 C620 0.950 1_556 S
H645 C621 0.949 . S
H646 C623 0.950 . S
H647 C625 0.950 1_554 S
C648 C649 1.349 . S
C648 C650 1.327 . S
C648 H673 0.950 . S
C649 C648 1.349 . S
C649 C665 1.349 . S
C650 C648 1.327 . S
C650 C669 1.429 . S
C650 H674 0.950 . S
C651 C668 1.574 . S
C651 C670 1.368 . S
C651 H675 0.949 . S
H652 C656 0.949 . S
C653 C654 1.349 . S
C653 C655 1.327 . S
C653 H676 0.950 . S
C654 C653 1.349 . S
C654 C666 1.349 . S
C655 C653 1.327 . S
C655 C671 1.429 . S
C655 H677 0.950 . S
C656 H652 0.949 . S
C656 C664 1.574 . S
C656 C672 1.368 . S
H657 C665 0.950 . S
H658 C663 0.950 . S
H659 C664 0.949 . S
H660 C666 0.950 . S
H661 C667 0.950 . S
H662 C668 0.949 . S
C663 H658 0.950 . S
C663 C665 1.327 . S
C663 C669 1.429 . S
C664 C656 1.574 . S
C664 H659 0.949 . S
C664 C670 1.368 . S
C665 C649 1.349 . S
C665 H657 0.950 . S
C665 C663 1.327 . S
C666 C654 1.349 . S
C666 H660 0.950 . S
C666 C667 1.327 . S
C667 H661 0.950 . S
C667 C666 1.327 . S
C667 C671 1.429 . S
C668 C651 1.574 . S
C668 H662 0.949 . S
C668 C672 1.368 . S
C669 C650 1.429 . S
C669 C663 1.429 . S
C669 C670 1.523 . S
C670 C651 1.368 . S
C670 C664 1.368 . S
C670 C669 1.523 . S
C671 C655 1.429 . S
C671 C667 1.429 . S
C671 C672 1.523 . S
C672 C656 1.368 . S
C672 C668 1.368 . S
C672 C671 1.523 . S
H673 C648 0.950 . S
H674 C650 0.950 . S
H675 C651 0.949 . S
H676 C653 0.950 . S
H677 C655 0.950 . S
C678 C679 1.349 . S
C678 C680 1.327 . S
C678 H703 0.950 . S
C679 C678 1.349 . S
C679 C695 1.349 . S
C680 C678 1.327 . S
C680 C699 1.429 . S
C680 H704 0.950 . S
C681 C698 1.574 1_455 S
C681 C700 1.368 . S
C681 H705 0.949 . S
H682 C686 0.949 . S
C683 C684 1.349 . S
C683 C685 1.327 . S
C683 H706 0.950 . S
C684 C683 1.349 . S
C684 C696 1.349 . S
C685 C683 1.327 . S
C685 C701 1.429 . S
C685 H707 0.950 . S
C686 H682 0.949 . S
C686 C694 1.574 1_655 S
C686 C702 1.368 . S
H687 C695 0.950 . S
H688 C693 0.950 . S
H689 C694 0.949 . S
H690 C696 0.950 . S
H691 C697 0.950 . S
H692 C698 0.949 . S
C693 H688 0.950 . S
C693 C695 1.327 . S
C693 C699 1.429 . S
C694 C686 1.574 1_455 S
C694 H689 0.949 . S
C694 C700 1.368 . S
C695 C679 1.349 . S
C695 H687 0.950 . S
C695 C693 1.327 . S
C696 C684 1.349 . S
C696 H690 0.950 . S
C696 C697 1.327 . S
C697 H691 0.950 . S
C697 C696 1.327 . S
C697 C701 1.429 . S
C698 C681 1.574 1_655 S
C698 H692 0.949 . S
C698 C702 1.368 . S
C699 C680 1.429 . S
C699 C693 1.429 . S
C699 C700 1.523 . S
C700 C681 1.368 . S
C700 C694 1.368 . S
C700 C699 1.523 . S
C701 C685 1.429 . S
C701 C697 1.429 . S
C701 C702 1.523 . S
C702 C686 1.368 . S
C702 C698 1.368 . S
C702 C701 1.523 . S
H703 C678 0.950 . S
H704 C680 0.950 . S
H705 C681 0.949 . S
H706 C683 0.950 . S
H707 C685 0.950 . S
C708 C709 1.346 1_455 S
C708 C710 1.331 . S
C708 H733 0.949 1_455 S
C709 C708 1.346 1_655 S
C709 C725 1.349 1_655 S
C710 C708 1.331 . S
C710 C729 1.429 . S
C710 H734 0.950 . S
C711 C728 1.574 . S
C711 C730 1.368 1_554 S
C711 H735 0.949 . S
H712 C716 0.949 . S
C713 C714 1.349 . S
C713 C715 1.327 . S
C713 H736 0.950 . S
C714 C713 1.349 . S
C714 C726 1.349 . S
C715 C713 1.327 . S
C715 C731 1.429 . S
C715 H737 0.950 . S
C716 H712 0.949 . S
C716 C724 1.574 . S
C716 C732 1.368 1_556 S
H717 C725 0.950 . S
H718 C723 0.950 . S
H719 C724 0.949 . S
H720 C726 0.950 . S
H721 C727 0.950 . S
H722 C728 0.949 . S
C723 H718 0.950 . S
C723 C725 1.327 . S
C723 C729 1.429 . S
C724 C716 1.574 . S
C724 H719 0.949 . S
C724 C730 1.368 . S
C725 C709 1.349 1_455 S
C725 H717 0.950 . S
C725 C723 1.327 . S
C726 C714 1.349 . S
C726 H720 0.950 . S
C726 C727 1.327 . S
C727 H721 0.950 . S
C727 C726 1.327 . S
C727 C731 1.429 . S
C728 C711 1.574 . S
C728 H722 0.949 . S
C728 C732 1.368 . S
C729 C710 1.429 . S
C729 C723 1.429 . S
C729 C730 1.523 . S
C730 C711 1.368 1_556 S
C730 C724 1.368 . S
C730 C729 1.523 . S
C731 C715 1.429 . S
C731 C727 1.429 . S
C731 C732 1.523 . S
C732 C716 1.368 1_554 S
C732 C728 1.368 . S
C732 C731 1.523 . S
H733 C708 0.949 1_655 S
H734 C710 0.950 . S
H735 C711 0.949 . S
H736 C713 0.950 . S
H737 C715 0.950 . S
C738 C739 1.349 1_545 S
C738 C740 1.327 . S
C738 H763 0.950 . S
C739 C738 1.349 1_565 S
C739 C755 1.349 . S
C740 C738 1.327 . S
C740 C759 1.429 . S
C740 H764 0.950 . S
C741 C758 1.574 . S
C741 C760 1.368 . S
C741 H765 0.949 . S
H742 C746 0.949 . S
C743 C744 1.355 1_655 S
C743 C745 1.336 . S
C743 H766 0.935 1_655 S
C744 C743 1.355 1_455 S
C744 C756 1.349 1_455 S
C745 C743 1.336 . S
C745 C761 1.429 . S
C745 H767 0.950 . S
C746 H742 0.949 . S
C746 C754 1.574 . S
C746 C762 1.368 . S
H747 C755 0.950 . S
H748 C753 0.950 . S
H749 C754 0.949 . S
H750 C756 0.950 . S
H751 C757 0.950 . S
H752 C758 0.949 . S
C753 H748 0.950 . S
C753 C755 1.327 1_545 S
C753 C759 1.429 . S
C754 C746 1.574 . S
C754 H749 0.949 . S
C754 C760 1.368 . S
C755 C739 1.349 . S
C755 H747 0.950 . S
C755 C753 1.327 1_565 S
C756 C744 1.349 1_655 S
C756 H750 0.950 . S
C756 C757 1.327 . S
C757 H751 0.950 . S
C757 C756 1.327 . S
C757 C761 1.429 . S
C758 C741 1.574 . S
C758 H752 0.949 . S
C758 C762 1.368 . S
C759 C740 1.429 . S
C759 C753 1.429 . S
C759 C760 1.523 . S
C760 C741 1.368 . S
C760 C754 1.368 . S
C760 C759 1.523 . S
C761 C745 1.429 . S
C761 C757 1.429 . S
C761 C762 1.523 . S
C762 C746 1.368 . S
C762 C758 1.368 . S
C762 C761 1.523 . S
H763 C738 0.950 . S
H764 C740 0.950 . S
H765 C741 0.949 . S
H766 C743 0.935 1_455 S
H767 C745 0.950 . S
C768 C769 1.349 . S
C768 C770 1.327 . S
C768 H793 0.950 . S
C769 C768 1.349 . S
C769 C785 1.349 . S
C770 C768 1.327 . S
C770 C789 1.429 . S
C770 H794 0.950 . S
C771 C788 1.574 . S
C771 C790 1.368 . S
C771 H795 0.949 . S
H772 C776 0.949 . S
C773 C774 1.349 . S
C773 C775 1.327 1_545 S
C773 H796 0.950 . S
C774 C773 1.349 . S
C774 C786 1.349 1_545 S
C775 C773 1.327 1_565 S
C775 C791 1.429 . S
C775 H797 0.950 . S
C776 H772 0.949 . S
C776 C784 1.574 . S
C776 C792 1.368 . S
H777 C785 0.950 . S
H778 C783 0.950 . S
H779 C784 0.949 . S
H780 C786 0.950 . S
H781 C787 0.950 . S
H782 C788 0.949 . S
C783 H778 0.950 . S
C783 C785 1.327 . S
C783 C789 1.429 . S
C784 C776 1.574 . S
C784 H779 0.949 . S
C784 C790 1.368 . S
C785 C769 1.349 . S
C785 H777 0.950 . S
C785 C783 1.327 . S
C786 C774 1.349 1_565 S
C786 H780 0.950 . S
C786 C787 1.327 . S
C787 H781 0.950 . S
C787 C786 1.327 . S
C787 C791 1.429 . S
C788 C771 1.574 . S
C788 H782 0.949 . S
C788 C792 1.368 . S
C789 C770 1.429 . S
C789 C783 1.429 . S
C789 C790 1.523 . S
C790 C771 1.368 . S
C790 C784 1.368 . S
C790 C789 1.523 . S
C791 C775 1.429 . S
C791 C787 1.429 . S
C791 C792 1.523 . S
C792 C776 1.368 . S
C792 C788 1.368 . S
C792 C791 1.523 . S
H793 C768 0.950 . S
H794 C770 0.950 . S
H795 C771 0.949 . S
H796 C773 0.950 . S
H797 C775 0.950 . S
C798 C799 1.349 . S
C798 C800 1.327 . S
C798 H823 0.950 . S
C799 C798 1.349 . S
C799 C815 1.349 . S
C800 C798 1.327 . S
C800 C819 1.429 . S
C800 H824 0.950 . S
C801 C818 1.574 . S
C801 C820 1.368 . S
C801 H825 0.949 . S
H802 C806 0.949 . S
C803 C804 1.349 . S
C803 C805 1.327 1_455 S
C803 H826 0.950 . S
C804 C803 1.349 . S
C804 C816 1.349 1_455 S
C805 C803 1.327 1_655 S
C805 C821 1.429 . S
C805 H827 0.950 . S
C806 H802 0.949 . S
C806 C814 1.574 . S
C806 C822 1.368 . S
H807 C815 0.950 . S
H808 C813 0.950 . S
H809 C814 0.949 . S
H810 C816 0.950 . S
H811 C817 0.950 . S
H812 C818 0.949 . S
C813 H808 0.950 . S
C813 C815 1.327 . S
C813 C819 1.429 . S
C814 C806 1.574 . S
C814 H809 0.949 . S
C814 C820 1.368 1_556 S
C815 C799 1.349 . S
C815 H807 0.950 . S
C815 C813 1.327 . S
C816 C804 1.349 1_655 S
C816 H810 0.950 . S
C816 C817 1.327 . S
C817 H811 0.950 . S
C817 C816 1.327 . S
C817 C821 1.429 . S
C818 C801 1.574 . S
C818 H812 0.949 . S
C818 C822 1.368 1_554 S
C819 C800 1.429 . S
C819 C813 1.429 . S
C819 C820 1.523 . S
C820 C801 1.368 . S
C820 C814 1.368 1_554 S
C820 C819 1.523 . S
C821 C805 1.429 . S
C821 C817 1.429 . S
C821 C822 1.523 . S
C822 C806 1.368 . S
C822 C818 1.368 1_556 S
C822 C821 1.523 . S
H823 C798 0.950 . S
H824 C800 0.950 . S
H825 C801 0.949 . S
H826 C803 0.950 . S
H827 C805 0.950 . S
C828 C829 1.349 . S
C828 C830 1.327 1_655 S
C828 H853 0.950 . S
C829 C828 1.349 . S
C829 C845 1.349 1_655 S
C830 C828 1.327 1_455 S
C830 C849 1.429 . S
C830 H854 0.950 . S
C831 C848 1.574 . S
C831 C850 1.368 . S
C831 H855 0.949 . S
H832 C836 0.949 . S
C833 C834 1.349 . S
C833 C835 1.327 1_545 S
C833 H856 0.950 . S
C834 C833 1.349 . S
C834 C846 1.349 1_545 S
C835 C833 1.327 1_565 S
C835 C851 1.429 . S
C835 H857 0.950 . S
C836 H832 0.949 . S
C836 C844 1.574 . S
C836 C852 1.368 . S
H837 C845 0.950 . S
H838 C843 0.950 . S
H839 C844 0.949 . S
H840 C846 0.950 . S
H841 C847 0.950 . S
H842 C848 0.949 . S
C843 H838 0.950 . S
C843 C845 1.327 . S
C843 C849 1.429 . S
C844 C836 1.574 . S
C844 H839 0.949 . S
C844 C850 1.368 . S
C845 C829 1.349 1_455 S
C845 H837 0.950 . S
C845 C843 1.327 . S
C846 C834 1.349 1_565 S
C846 H840 0.950 . S
C846 C847 1.327 . S
C847 H841 0.950 . S
C847 C846 1.327 . S
C847 C851 1.429 . S
C848 C831 1.574 . S
C848 H842 0.949 . S
C848 C852 1.368 . S
C849 C830 1.429 . S
C849 C843 1.429 . S
C849 C850 1.523 . S
C850 C831 1.368 . S
C850 C844 1.368 . S
C850 C849 1.523 . S
C851 C835 1.429 . S
C851 C847 1.429 . S
C851 C852 1.523 . S
C852 C836 1.368 . S
C852 C848 1.368 . S
C852 C851 1.523 . S
H853 C828 0.950 . S
H854 C830 0.950 . S
H855 C831 0.949 . S
H856 C833 0.950 . S
H857 C835 0.950 . S
C858 C859 1.349 . S
C858 C860 1.327 1_565 S
C858 H883 0.950 . S
C859 C858 1.349 . S
C859 C875 1.349 1_565 S
C860 C858 1.327 1_545 S
C860 C879 1.429 . S
C860 H884 0.950 . S
C861 C878 1.574 . S
C861 C880 1.368 . S
C861 H885 0.949 . S
H862 C866 0.949 . S
C863 C864 1.349 . S
C863 C865 1.327 . S
C863 H886 0.950 . S
C864 C863 1.349 . S
C864 C876 1.349 . S
C865 C863 1.327 . S
C865 C881 1.429 . S
C865 H887 0.950 . S
C866 H862 0.949 . S
C866 C874 1.574 . S
C866 C882 1.368 . S
H867 C875 0.950 . S
H868 C873 0.950 . S
H869 C874 0.949 . S
H870 C876 0.950 . S
H871 C877 0.950 . S
H872 C878 0.949 . S
C873 H868 0.950 . S
C873 C875 1.327 . S
C873 C879 1.429 . S
C874 C866 1.574 . S
C874 H869 0.949 . S
C874 C880 1.368 . S
C875 C859 1.349 1_545 S
C875 H867 0.950 . S
C875 C873 1.327 . S
C876 C864 1.349 . S
C876 H870 0.950 . S
C876 C877 1.327 . S
C877 H871 0.950 . S
C877 C876 1.327 . S
C877 C881 1.429 . S
C878 C861 1.574 . S
C878 H872 0.949 . S
C878 C882 1.368 . S
C879 C860 1.429 . S
C879 C873 1.429 . S
C879 C880 1.523 . S
C880 C861 1.368 . S
C880 C874 1.368 . S
C880 C879 1.523 . S
C881 C865 1.429 . S
C881 C877 1.429 . S
C881 C882 1.523 . S
C882 C866 1.368 . S
C882 C878 1.368 . S
C882 C881 1.523 . S
H883 C858 0.950 . S
H884 C860 0.950 . S
H885 C861 0.949 . S
H886 C863 0.950 . S
H887 C865 0.950 . S
C169 C55 1.261 . S
C174 C13 1.261 . S
C199 C27 1.261 . S
C204 C69 1.261 . S
C229 C83 1.261 . S
C234 C41 1.261 . S
C259 C97 1.261 . S
C264 C139 1.261 . S
C289 C153 1.261 . S
C294 C111 1.261 . S
C319 C125 1.261 . S
C324 C167 1.261 . S
C349 C123 1.548 . S
C354 C11 1.548 . S
C379 C25 1.548 . S
C384 C137 1.548 . S
C409 C39 1.548 . S
C414 C151 1.548 . S
C439 C53 1.548 . S
C444 C165 1.548 . S
C469 C95 1.548 . S
C474 C67 1.548 . S
C499 C109 1.548 . S
C504 C81 1.548 . S
C529 C105 0.745 . S
C534 C7 0.745 . S
C559 C21 0.745 . S
C564 C119 0.745 . S
C589 C35 0.745 . S
C594 C133 0.745 . S
C619 C49 0.746 . S
C624 C147 0.746 . S
C649 C161 0.745 . S
C654 C63 0.745 . S
C679 C77 0.745 . S
C684 C91 0.745 . S
C709 C148 1.236 . S
C714 C8 1.236 . S
C739 C162 1.237 . S
C744 C22 1.237 . S
C769 C92 1.236 . S
C774 C36 1.236 . S
C799 C50 1.236 . S
C804 C106 1.236 . S
C829 C64 1.236 . S
C834 C120 1.236 . S
C859 C78 1.236 . S
C864 C134 1.236 . S
