# Generated by pormake.
# Topology upc, (4)-cn, num edge types: 1
# Building blocks:
#     Node 0, Type 0, BuildingBlock: ESEHIV_clean_sbu_0, # of connection points: 4
#     Node 1, Type 0, BuildingBlock: ESEHIV_clean_sbu_0, # of connection points: 4
#     Node 2, Type 0, BuildingBlock: ESEHIV_clean_sbu_0, # of connection points: 4
#     Node 3, Type 0, BuildingBlock: ESEHIV_clean_sbu_0, # of connection points: 4
#     Node 4, Type 0, BuildingBlock: ESEHIV_clean_sbu_0, # of connection points: 4
#     Node 5, Type 0, BuildingBlock: ESEHIV_clean_sbu_0, # of connection points: 4
#     Node 6, Type 0, BuildingBlock: ESEHIV_clean_sbu_0, # of connection points: 4
#     Node 7, Type 0, BuildingBlock: ESEHIV_clean_sbu_0, # of connection points: 4
#     Node 8, Type 0, BuildingBlock: ESEHIV_clean_sbu_0, # of connection points: 4
#     Node 9, Type 0, BuildingBlock: ESEHIV_clean_sbu_0, # of connection points: 4
#     Node 10, Type 0, BuildingBlock: ESEHIV_clean_sbu_0, # of connection points: 4
#     Node 11, Type 0, BuildingBlock: ESEHIV_clean_sbu_0, # of connection points: 4
#     Node 12, Type 0, BuildingBlock: ESEHIV_clean_sbu_0, # of connection points: 4
#     Node 13, Type 0, BuildingBlock: ESEHIV_clean_sbu_0, # of connection points: 4
#     Node 14, Type 0, BuildingBlock: ESEHIV_clean_sbu_0, # of connection points: 4
#     Node 15, Type 0, BuildingBlock: ESEHIV_clean_sbu_0, # of connection points: 4
#     Edge 16, Type (0, 0), BuildingBlock: AJUNOK_clean_linker_0, # of connection points: 2
#     Edge 17, Type (0, 0), BuildingBlock: AJUNOK_clean_linker_0, # of connection points: 2
#     Edge 18, Type (0, 0), BuildingBlock: AJUNOK_clean_linker_0, # of connection points: 2
#     Edge 19, Type (0, 0), BuildingBlock: AJUNOK_clean_linker_0, # of connection points: 2
#     Edge 20, Type (0, 0), BuildingBlock: AJUNOK_clean_linker_0, # of connection points: 2
#     Edge 21, Type (0, 0), BuildingBlock: AJUNOK_clean_linker_0, # of connection points: 2
#     Edge 22, Type (0, 0), BuildingBlock: AJUNOK_clean_linker_0, # of connection points: 2
#     Edge 23, Type (0, 0), BuildingBlock: AJUNOK_clean_linker_0, # of connection points: 2
#     Edge 24, Type (0, 0), BuildingBlock: AJUNOK_clean_linker_0, # of connection points: 2
#     Edge 25, Type (0, 0), BuildingBlock: AJUNOK_clean_linker_0, # of connection points: 2
#     Edge 26, Type (0, 0), BuildingBlock: AJUNOK_clean_linker_0, # of connection points: 2
#     Edge 27, Type (0, 0), BuildingBlock: AJUNOK_clean_linker_0, # of connection points: 2
#     Edge 28, Type (0, 0), BuildingBlock: AJUNOK_clean_linker_0, # of connection points: 2
#     Edge 29, Type (0, 0), BuildingBlock: AJUNOK_clean_linker_0, # of connection points: 2
#     Edge 30, Type (0, 0), BuildingBlock: AJUNOK_clean_linker_0, # of connection points: 2
#     Edge 31, Type (0, 0), BuildingBlock: AJUNOK_clean_linker_0, # of connection points: 2
#     Edge 32, Type (0, 0), BuildingBlock: AJUNOK_clean_linker_0, # of connection points: 2
#     Edge 33, Type (0, 0), BuildingBlock: AJUNOK_clean_linker_0, # of connection points: 2
#     Edge 34, Type (0, 0), BuildingBlock: AJUNOK_clean_linker_0, # of connection points: 2
#     Edge 35, Type (0, 0), BuildingBlock: AJUNOK_clean_linker_0, # of connection points: 2
#     Edge 36, Type (0, 0), BuildingBlock: AJUNOK_clean_linker_0, # of connection points: 2
#     Edge 37, Type (0, 0), BuildingBlock: AJUNOK_clean_linker_0, # of connection points: 2
#     Edge 38, Type (0, 0), BuildingBlock: AJUNOK_clean_linker_0, # of connection points: 2
#     Edge 39, Type (0, 0), BuildingBlock: AJUNOK_clean_linker_0, # of connection points: 2
#     Edge 40, Type (0, 0), BuildingBlock: AJUNOK_clean_linker_0, # of connection points: 2
#     Edge 41, Type (0, 0), BuildingBlock: AJUNOK_clean_linker_0, # of connection points: 2
#     Edge 42, Type (0, 0), BuildingBlock: AJUNOK_clean_linker_0, # of connection points: 2
#     Edge 43, Type (0, 0), BuildingBlock: AJUNOK_clean_linker_0, # of connection points: 2
#     Edge 44, Type (0, 0), BuildingBlock: AJUNOK_clean_linker_0, # of connection points: 2
#     Edge 45, Type (0, 0), BuildingBlock: AJUNOK_clean_linker_0, # of connection points: 2
#     Edge 46, Type (0, 0), BuildingBlock: AJUNOK_clean_linker_0, # of connection points: 2
#     Edge 47, Type (0, 0), BuildingBlock: AJUNOK_clean_linker_0, # of connection points: 2
# Relax obj value: 0.174
# Max RMSD: 0.226
# Mean RMSD: 0.192
data_MOF--net-upc--node1-ESEHIV_clean_sbu_0--edge1-AJUNOK_clean_linker_0
_symmetry_space_group_name_H-M    P1
_symmetry_Int_Tables_number       1
_symmetry_cell_setting            triclinic
loop_
_symmetry_equiv_pos_as_xyz
'x, y, z'
_cell_length_a     24.584917
_cell_length_b     30.06593
_cell_length_c     34.128914
_cell_angle_alpha  88.433384
_cell_angle_beta   89.635151
_cell_angle_gamma 90.347316
loop_
_atom_site_label
_atom_site_type_symbol
_atom_site_fract_x
_atom_site_fract_y
_atom_site_fract_z
_atom_type_partial_charge
Cu0 Cu 0.14834 0.65901 0.17066 0.0
N1 N 0.08217 0.6838 0.18359 0.0
N2 N 1.0203 0.7185 0.219 0.0
C3 C 0.07262 0.70621 0.21619 0.0
C4 C 0.99588 0.70438 0.18634 0.0
C5 C 0.03428 0.68217 0.16465 0.0
O6 O 0.20488 0.70438 0.18278 0.0
C7 C 0.1415 0.60021 0.23787 0.0
O8 O 0.14702 0.63695 0.25743 0.0
H9 H 0.10394 0.71459 0.23695 0.0
H10 H 1.02789 0.66627 0.13699 0.0
N11 N 0.14372 0.64815 0.11717 0.0
N12 N 0.11599 0.61484 0.06304 0.0
C13 C 0.1296 0.60932 0.10113 0.0
C14 C 0.13837 0.67922 0.0883 0.0
C15 C 0.12146 0.65876 0.05485 0.0
C16 C 0.23982 0.71957 0.15779 0.0
O17 O 0.24487 0.6995 0.1243 0.0
H18 H 0.12456 0.57847 0.11792 0.0
H19 H 0.14248 0.71467 0.09216 0.0
O20 O 0.14794 0.60215 0.20069 0.0
H21 H 0.9538 0.71012 0.17868 0.0
H22 H 0.11107 0.67513 0.02728 0.0
Cu23 Cu 0.92088 0.15095 0.14105 0.0
N24 N 0.87683 0.10163 0.15064 0.0
N25 N 0.82765 0.0553 0.18858 0.0
C26 C 0.84315 0.09773 0.18156 0.0
C27 C 0.85228 1.03125 0.16098 0.0
C28 C 0.88262 0.06016 0.13729 0.0
O29 O 0.87769 0.20259 0.1574 0.0
C30 C 0.98684 0.12621 0.2069 0.0
O31 O 0.94315 0.13416 0.22785 0.0
H32 H 0.83511 0.12463 0.20123 0.0
H33 H 0.91101 0.05104 0.11458 0.0
N34 N 0.93875 0.1522 0.08778 0.0
N35 N 0.97846 0.13134 0.03206 0.0
C36 C 0.97753 0.12701 0.07157 0.0
C37 C 0.91352 0.17274 0.05754 0.0
C38 C 0.93811 0.16014 0.02318 0.0
C39 C 0.87591 0.24117 0.14089 0.0
O40 O 0.91068 0.25117 0.11258 0.0
H41 H 1.00216 0.10394 0.08851 0.0
H42 H 0.87838 0.19394 0.0601 0.0
O43 O 0.98711 0.13699 0.1705 0.0
H44 H 0.85243 0.99528 0.16032 0.0
H45 H 0.92621 0.17046 0.99388 0.0
Cu46 Cu 0.44046 0.95474 0.1546 0.0
N47 N 0.50553 0.92528 0.1631 0.0
N48 N 0.56164 0.87324 0.18636 0.0
C49 C 0.51077 0.88249 0.17434 0.0
C50 C 0.58976 0.91176 0.1822 0.0
C51 C 0.55502 0.94383 0.16741 0.0
O52 O 0.38046 0.91014 0.15715 0.0
C53 C 0.45894 1.00078 0.22547 0.0
O54 O 0.46559 0.96074 0.24098 0.0
H55 H 0.47674 0.8597 0.17753 0.0
H56 H 0.5639 0.97894 0.16325 0.0
N57 N 0.44404 0.97796 0.10335 0.0
N58 N 0.47226 1.01677 0.05029 0.0
C59 C 0.47284 1.01357 0.08981 0.0
C60 C 0.42468 0.95823 0.07133 0.0
C61 C 0.44222 0.98203 0.0385 0.0
C62 C 0.3668 0.88307 0.18517 0.0
O63 O 0.38884 0.88758 0.2198 0.0
H64 H 0.49632 1.03507 0.10829 0.0
H65 H 0.40157 0.92749 0.07179 0.0
O66 O 0.44129 1.00473 0.19045 0.0
H67 H 0.63103 0.91709 0.19199 0.0
H68 H 0.43514 0.97369 0.00829 0.0
Cu69 Cu 0.63348 0.44348 0.1408 0.0
N70 N 0.67407 0.49558 0.14314 0.0
N71 N 0.73187 0.54044 0.17322 0.0
C72 C 0.72101 0.49844 0.16274 0.0
C73 C 0.6905 0.56518 0.15909 0.0
C74 C 0.65495 0.53741 0.14029 0.0
O75 O 0.68498 0.39343 0.14267 0.0
C76 C 0.58723 0.46662 0.21427 0.0
O77 O 0.63778 0.46861 0.22636 0.0
H78 H 0.74206 0.46951 0.17448 0.0
H79 H 0.61483 0.54621 0.13008 0.0
N80 N 0.59807 0.44294 0.0928 0.0
N81 N 0.5463 0.46374 0.04209 0.0
C82 C 0.56312 0.4735 0.07845 0.0
C83 C 0.60344 0.41272 0.06473 0.0
C84 C 0.57175 0.42559 0.03329 0.0
C85 C 0.6982 0.36658 0.17054 0.0
O86 O 0.67359 0.36904 0.20467 0.0
H87 H 0.55188 0.5031 0.09378 0.0
H88 H 0.62939 0.38383 0.06675 0.0
O89 O 0.57733 0.4495 0.18125 0.0
H90 H 0.68335 0.59966 0.1658 0.0
H91 H 0.56829 0.40859 1.00586 0.0
Cu92 Cu 0.13879 0.93793 0.34915 0.0
N93 N 0.07363 0.90884 0.33906 0.0
N94 N 1.01451 0.85754 0.32012 0.0
C95 C 0.06662 0.86629 0.3294 0.0
C96 C 0.98769 0.89617 0.32345 0.0
C97 C 1.02427 0.92776 0.33557 0.0
O98 O 0.20059 0.89578 0.34486 0.0
C99 C 0.1222 0.98879 0.27841 0.0
O100 O 0.11598 0.94977 0.26256 0.0
H101 H 0.09974 0.84311 0.32608 0.0
H102 H 1.01616 0.96271 0.33918 0.0
N103 N 0.13049 0.95947 0.39957 0.0
N104 N 0.08343 0.99165 0.44725 0.0
C105 C 0.09082 0.98815 0.40828 0.0
C106 C 0.15061 0.94532 0.43431 0.0
C107 C 0.12169 0.96537 0.46387 0.0
C108 C 0.20139 0.86063 0.36692 0.0
O109 O 0.16111 0.85357 0.39183 0.0
H110 H 0.0664 1.00481 0.38619 0.0
H111 H 0.1818 0.92041 0.43807 0.0
O112 O 0.13867 0.99037 0.31371 0.0
H113 H 0.94565 0.90165 0.31551 0.0
H114 H 0.1262 0.95899 0.49505 0.0
Cu115 Cu 0.64677 0.14913 0.37609 0.0
N116 N 0.68602 0.09725 0.37105 0.0
N117 N 0.73414 1.04919 0.33687 0.0
C118 C 0.72636 0.09225 0.34499 0.0
C119 C 0.69756 1.02601 0.35888 0.0
C120 C 0.66807 0.05586 0.38031 0.0
O121 O 0.69578 0.19949 0.36107 0.0
C122 C 0.58972 0.13084 0.30636 0.0
O123 O 0.63752 0.13817 0.28994 0.0
H124 H 0.74398 0.11977 0.32802 0.0
H125 H 0.63185 1.04843 0.39747 0.0
N126 N 0.62529 0.15095 0.42858 0.0
N127 N 0.58395 0.13236 0.48527 0.0
C128 C 0.58277 0.12946 0.44581 0.0
C129 C 0.65445 0.16751 0.45808 0.0
C130 C 0.62871 0.15656 0.49297 0.0
C131 C 0.69527 0.23737 0.37716 0.0
O132 O 0.65564 0.24616 0.40167 0.0
H133 H 0.55284 0.11082 0.4298 0.0
H134 H 0.69329 0.18425 0.45455 0.0
O135 O 0.58361 0.13896 0.34263 0.0
H136 H 0.68884 0.99087 0.35633 0.0
H137 H 0.64333 0.16333 0.52199 0.0
Cu138 Cu 0.44611 0.65731 0.35524 0.0
N139 N 0.50534 0.69189 0.33906 0.0
N140 N 0.55668 0.73553 0.30007 0.0
C141 C 0.50784 0.71571 0.30534 0.0
C142 C 0.58581 0.7248 0.33223 0.0
C143 C 0.55406 0.69739 0.35621 0.0
O144 O 0.38 0.69441 0.34954 0.0
C145 C 0.45501 0.60087 0.28822 0.0
O146 O 0.44616 0.63696 0.26673 0.0
H147 H 0.47387 0.71937 0.28552 0.0
H148 H 0.56573 0.68276 0.38415 0.0
N149 N 0.45764 0.63901 0.40716 0.0
N150 N 0.49743 0.6038 0.45766 0.0
C151 C 0.50044 0.61462 0.41916 0.0
C152 C 0.42618 0.64372 0.43918 0.0
C153 C 0.45076 0.62196 0.47053 0.0
C154 C 0.37869 0.73077 0.36817 0.0
O155 O 0.42003 0.74059 0.39061 0.0
H156 H 0.53262 0.60407 0.39976 0.0
H157 H 0.38787 0.66122 0.43961 0.0
O158 O 0.45072 0.60265 0.32536 0.0
H159 H 0.62684 0.73606 0.33794 0.0
H160 H 0.43569 0.61982 0.5004 0.0
Cu161 Cu 0.93369 0.44597 0.37831 0.0
N162 N 0.88853 0.49116 0.35993 0.0
N163 N 0.84523 0.53232 0.315 0.0
C164 C 0.86713 0.4925 0.32391 0.0
C165 C 0.85109 0.55687 0.34713 0.0
C166 C 0.87854 0.53138 0.37487 0.0
O167 O 0.8925 0.38935 0.37671 0.0
C168 C 1.00745 0.46065 0.31257 0.0
O169 O 0.96808 0.44624 0.29035 0.0
H170 H 0.86882 0.46516 0.30406 0.0
H171 H 0.89231 0.54214 0.40311 0.0
N172 N 0.9471 0.4544 0.43141 0.0
N173 N 0.97152 0.4833 0.4884 0.0
C174 C 0.97054 0.48924 0.44897 0.0
C175 C 0.93365 0.42534 0.46058 0.0
C176 C 0.94879 0.44293 0.49568 0.0
C177 C 0.8722 0.36743 0.34874 0.0
O178 O 0.88498 0.37837 0.31233 0.0
H179 H 0.98576 0.51857 0.43327 0.0
H180 H 0.91423 0.39343 0.45654 0.0
O181 O 1.00282 0.4558 0.34974 0.0
H182 H 0.83862 0.59115 0.34964 0.0
H183 H 0.94424 0.42684 0.52428 0.0
Cu184 Cu 0.8979 0.44906 0.88895 0.0
N185 N 0.93192 0.43733 0.84126 0.0
N186 N 0.9421 0.4044 0.78369 0.0
C187 C 0.90684 0.42021 0.81024 0.0
C188 C 0.99176 0.41336 0.79818 0.0
C189 C 0.98542 0.43412 0.83353 0.0
O190 O 0.85504 0.39663 0.9061 0.0
C191 C 0.83746 0.51572 0.85061 0.0
O192 O 0.81414 0.48334 0.83178 0.0
H193 H 0.86381 0.41263 0.81011 0.0
H194 H 1.0173 0.44161 0.85407 0.0
N195 N 0.95106 0.45533 0.92708 0.0
N196 N 1.00833 0.48513 0.96991 0.0
C197 C 0.97567 0.49283 0.93869 0.0
C198 C 0.96852 0.42285 0.95163 0.0
C199 C 1.0035 0.44108 0.97819 0.0
C200 C 0.81369 0.37742 0.89159 0.0
O201 O 0.78844 0.39629 0.86178 0.0
H202 H 0.9688 0.52519 0.925 0.0
H203 H 0.95509 0.38856 0.95114 0.0
O204 O 0.86224 0.50606 0.88227 0.0
H205 H 1.02951 0.40017 0.78699 0.0
H206 H 1.02151 0.42346 1.00287 0.0
Cu207 Cu 0.09932 0.97257 0.85304 0.0
N208 N 0.03714 0.95973 0.82514 0.0
N209 N 0.96363 0.97372 0.78914 0.0
C210 C 1.00288 0.99097 0.81164 0.0
C211 C 0.97412 0.92975 0.78798 0.0
C212 C 1.01958 0.92112 0.81054 0.0
O213 O 0.07855 1.01774 0.88972 0.0
C214 C 0.20194 1.00216 0.82132 0.0
O215 O 0.21924 1.00026 0.85766 0.0
H216 H 1.00878 1.02612 0.81637 0.0
H217 H 0.03958 0.88942 0.81477 0.0
N218 N 0.12348 0.92117 0.87881 0.0
N219 N 0.17298 0.8614 0.89424 0.0
C220 C 0.16806 0.89751 0.87024 0.0
C221 C 0.09938 0.89939 0.90925 0.0
C222 C 0.12999 0.86249 0.91896 0.0
C223 C 0.09787 1.02249 0.92384 0.0
O224 O 0.13864 0.99751 0.93549 0.0
H225 H 0.19602 0.90626 0.8466 0.0
H226 H 0.06232 0.90985 0.92346 0.0
O227 O 0.15241 0.99319 0.81446 0.0
H228 H 0.95153 0.90591 0.77121 0.0
H229 H 0.12188 0.83889 0.94283 0.0
Cu230 Cu 0.70369 0.15585 0.86401 0.0
N231 N 0.70068 0.19303 0.81935 0.0
N232 N 0.72937 0.23678 0.76931 0.0
C233 C 0.74387 0.21168 0.80078 0.0
C234 C 0.67464 0.23274 0.76761 0.0
C235 C 0.65713 0.20522 0.79819 0.0
O236 O 0.77375 0.15856 0.89063 0.0
C237 C 0.70863 0.08589 0.81066 0.0
O238 O 0.74066 0.1135 0.79091 0.0
H239 H 0.78459 0.2098 0.81226 0.0
H240 H 0.61553 0.19627 0.80549 0.0
N241 N 0.64859 0.16365 0.90122 0.0
N242 N 0.59285 0.13789 0.94907 0.0
C243 C 0.6162 0.12991 0.91401 0.0
C244 C 0.64457 0.19478 0.92868 0.0
C245 C 0.60985 0.17916 0.958 0.0
C246 C 0.80442 0.18547 0.90902 0.0
O247 O 0.84955 0.16873 0.92344 0.0
H248 H 0.61264 0.09902 0.89876 0.0
H249 H 0.66871 0.22487 0.9293 0.0
O250 O 0.69185 0.09659 0.84443 0.0
H251 H 0.64878 0.2516 0.74778 0.0
H252 H 0.60137 0.19545 0.98525 0.0
Cu253 Cu 0.42045 0.6241 0.86081 0.0
N254 N 0.48152 0.63257 0.82989 0.0
N255 N 0.54179 0.61287 0.78479 0.0
C256 C 0.5076 0.5987 0.81352 0.0
C257 C 0.53819 0.65769 0.78388 0.0
C258 C 0.50038 0.6698 0.81164 0.0
O259 O 0.43892 0.57949 0.90023 0.0
C260 C 0.31879 0.58979 0.83258 0.0
O261 O 0.3019 0.58791 0.8692 0.0
H262 H 0.49945 0.56421 0.82146 0.0
H263 H 0.48504 0.7029 0.81627 0.0
N264 N 0.39911 0.67775 0.88172 0.0
N265 N 0.34873 0.7371 0.89445 0.0
C266 C 0.3502 0.69704 0.87765 0.0
C267 C 0.42985 0.70665 0.90145 0.0
C268 C 0.39884 0.74348 0.90926 0.0
C269 C 0.42861 0.58133 0.93667 0.0
O270 O 0.39942 0.61428 0.94976 0.0
H271 H 0.31704 0.68271 0.86145 0.0
H272 H 0.47207 0.70154 0.90897 0.0
O273 O 0.36658 0.60349 0.82472 0.0
H274 H 0.55869 0.67982 0.76296 0.0
H275 H 0.41205 0.77272 0.92447 0.0
Cu276 Cu 0.82433 0.13087 0.61402 0.0
N277 N 0.8561 0.18405 0.62969 0.0
N278 N 0.87617 0.2451 0.66268 0.0
C279 C 0.83939 0.21232 0.65735 0.0
C280 C 0.91574 0.2385 0.63599 0.0
C281 C 0.90355 0.20073 0.61597 0.0
O282 O 0.74848 0.14274 0.60398 0.0
C283 C 0.8384 0.09033 0.68923 0.0
O284 O 0.82253 0.12902 0.7017 0.0
H285 H 0.80179 0.20848 0.67366 0.0
H286 H 0.92833 0.18567 0.59371 0.0
N287 N 0.85688 0.11624 0.56666 0.0
N288 N 0.91214 0.08738 0.52202 0.0
C289 C 0.89896 0.08869 0.56046 0.0
C290 C 0.8437 0.13329 0.53117 0.0
C291 C 0.87767 0.11556 0.50357 0.0
C292 C 0.71832 0.16059 0.62939 0.0
O293 O 0.72376 0.148 0.6663 0.0
H294 H 0.91922 0.06986 0.58352 0.0
H295 H 0.812 0.15738 0.52582 0.0
O296 O 0.83865 0.08365 0.65258 0.0
H297 H 0.95247 0.25835 0.6327 0.0
H298 H 0.87768 0.12341 0.47242 0.0
Cu299 Cu 0.44809 0.96076 0.65844 0.0
N300 N 0.51103 0.94834 0.6863 0.0
N301 N 0.58207 0.96173 0.72448 0.0
C302 C 0.54728 0.97886 0.69782 0.0
C303 C 0.56742 0.91871 0.72991 0.0
C304 C 0.52346 0.91048 0.70614 0.0
O305 O 0.46645 0.99706 0.61238 0.0
C306 C 0.35044 0.99881 0.68837 0.0
O307 O 0.33068 0.99321 0.65315 0.0
H308 H 0.54545 1.01377 0.68929 0.0
H309 H 0.5 0.87997 0.70532 0.0
N310 N 0.41611 0.90801 0.64268 0.0
N311 N 0.355 0.85362 0.63602 0.0
C312 C 0.36912 0.88995 0.65606 0.0
C313 C 0.43284 0.88189 0.61366 0.0
C314 C 0.39526 0.84812 0.60957 0.0
C315 C 0.47257 1.03905 0.61261 0.0
O316 O 0.46358 0.05993 0.64532 0.0
H317 H 0.34561 0.90339 0.67982 0.0
H318 H 0.46904 0.88777 0.59604 0.0
O319 O 0.39986 0.98929 0.6949 0.0
H320 H 0.58552 0.89561 0.75086 0.0
H321 H 0.39633 0.82252 0.58788 0.0
Cu322 Cu 0.70067 0.43144 0.63995 0.0
N323 N 0.77074 0.42496 0.66062 0.0
N324 N 0.82048 0.39107 0.70755 0.0
C325 C 0.78611 0.38594 0.67719 0.0
C326 C 0.82827 0.43541 0.70939 0.0
C327 C 0.79859 0.45605 0.67992 0.0
O328 O 0.67116 0.37193 0.63592 0.0
C329 C 0.66443 0.50617 0.67827 0.0
O330 O 0.70119 0.52583 0.65559 0.0
H331 H 0.76454 0.3551 0.67231 0.0
H332 H 0.79164 0.49124 0.67662 0.0
N333 N 0.69594 0.46183 0.59169 0.0
N334 N 0.65539 0.50037 0.54317 0.0
C335 C 0.65011 0.48191 0.57949 0.0
C336 C 0.73219 0.46804 0.56235 0.0
C337 C 0.70724 0.49192 0.53233 0.0
C338 C 0.68697 0.3488 0.60746 0.0
O339 O 0.71799 0.36787 0.58034 0.0
H340 H 0.61405 0.48372 0.59765 0.0
H341 H 0.77347 0.45578 0.56263 0.0
O342 O 0.65758 0.4643 0.67659 0.0
H343 H 0.84818 0.4519 0.73324 0.0
H344 H 0.72571 0.50185 0.50456 0.0
Cu345 Cu 0.06955 0.6422 0.67751 0.0
N346 N 1.01188 0.65764 0.7097 0.0
N347 N 0.94552 0.64637 0.75376 0.0
C348 C 0.97288 0.62959 0.72319 0.0
C349 C 0.96831 0.68643 0.75993 0.0
C350 C 1.00914 0.69345 0.73246 0.0
O351 O 0.0433 0.60257 0.63766 0.0
C352 C 0.16737 0.59903 0.70367 0.0
O353 O 0.18303 0.60013 0.66678 0.0
H354 H 0.96835 0.5958 0.71342 0.0
H355 H 0.03782 0.72089 0.73131 0.0
N356 N 0.10061 0.69382 0.65556 0.0
N357 N 0.15904 0.74952 0.64321 0.0
C358 C 0.15113 0.70969 0.66153 0.0
C359 C 0.07588 0.7245 0.63256 0.0
C360 C 0.11195 0.75896 0.6248 0.0
C361 C 0.06342 0.60024 0.60332 0.0
O362 O 0.10607 0.62484 0.59376 0.0
H363 H 0.18107 0.69302 0.6797 0.0
H364 H 0.03436 0.72208 0.62253 0.0
O365 O 0.12069 0.61366 0.71257 0.0
H366 H 0.95852 0.70765 0.78407 0.0
H367 H 0.10434 0.78844 0.6068 0.0
C368 C 0.27833 0.77825 0.20247 0.0
C369 C 0.27153 0.76166 0.16453 0.0
C370 C 0.30834 0.81766 0.20884 0.0
C371 C 0.33193 0.84293 0.17753 0.0
H372 H 0.26106 0.76031 0.22759 0.0
H373 H 0.31318 0.82834 0.23867 0.0
S374 S 0.3246 0.81518 0.07223 0.0
N375 N 0.29041 0.77467 0.09502 0.0
N376 N 0.34537 0.8483 0.10693 0.0
C377 C 0.32448 0.82714 0.13942 0.0
C378 C 0.29477 0.78676 0.13297 0.0
C379 C 0.82473 0.31235 0.12744 0.0
C380 C 0.83149 0.27323 0.15063 0.0
C381 C 0.78165 0.3419 0.13405 0.0
C382 C 0.7434 0.33416 0.16446 0.0
H383 H 0.8525 0.32011 0.10343 0.0
H384 H 0.77856 0.37128 0.11512 0.0
S385 S 0.74118 0.23619 0.23313 0.0
N386 N 0.79494 0.22811 0.20505 0.0
N387 N 0.71475 0.28384 0.2177 0.0
C388 C 0.74973 0.29538 0.18811 0.0
C389 C 0.7934 0.26495 0.18113 0.0
C390 C 0.26975 0.81261 0.33136 0.0
C391 C 0.24733 0.82819 0.36657 0.0
C392 C 0.3105 0.77942 0.33162 0.0
C393 C 0.33104 0.7614 0.36713 0.0
H394 H 0.25507 0.82557 0.30349 0.0
H395 H 0.32701 0.76871 0.30395 0.0
S396 S 0.28665 0.79118 0.46709 0.0
N397 N 0.24883 0.82245 0.43769 0.0
N398 N 0.32586 0.76194 0.43812 0.0
C399 C 0.30911 0.777 0.40229 0.0
C400 C 0.26717 0.80981 0.40204 0.0
C401 C 0.81788 0.29913 0.33072 0.0
C402 C 0.82886 0.33312 0.3573 0.0
C403 C 0.77546 0.26793 0.33759 0.0
C404 C 0.74087 0.27025 0.37057 0.0
H405 H 0.84245 0.2964 0.30445 0.0
H406 H 0.76935 0.24205 0.31664 0.0
S407 S 0.75246 0.35258 0.44954 0.0
N408 N 0.80203 0.3663 0.41863 0.0
N409 N 0.72181 0.3092 0.43067 0.0
C410 C 0.75158 0.30404 0.39742 0.0
C411 C 0.79555 0.33501 0.39099 0.0
C412 C 0.76324 0.30497 0.88248 0.0
C413 C 0.80129 0.33011 0.90344 0.0
C414 C 0.75963 0.25837 0.88761 0.0
C415 C 0.79539 0.23469 0.91227 0.0
H416 H 0.73751 0.32102 0.86075 0.0
H417 H 0.72962 0.24097 0.87141 0.0
S418 S 0.88948 0.28602 0.98337 0.0
N419 N 0.86531 0.32857 0.95755 0.0
N420 N 0.86018 0.24148 0.96553 0.0
C421 C 0.82842 0.26007 0.9371 0.0
C422 C 0.83119 0.30753 0.93282 0.0
C423 C 0.31349 0.81357 0.88835 0.0
C424 C 0.30401 0.76775 0.89462 0.0
C425 C 0.27041 0.84389 0.88784 0.0
C426 C 0.21643 0.82955 0.89421 0.0
H427 H 0.35445 0.82594 0.88328 0.0
H428 H 0.27941 0.87892 0.88299 0.0
S429 S 0.17001 0.71309 0.9118 0.0
N430 N 0.23676 0.70948 0.90735 0.0
N431 N 0.15574 0.76648 0.90617 0.0
C432 C 0.2064 0.78384 0.9005 0.0
C433 C 0.2502 0.75293 0.90068 0.0
C434 C 0.66832 0.27763 0.64528 0.0
C435 C 0.68192 0.29963 0.60956 0.0
C436 C 0.67561 0.2316 0.65043 0.0
C437 C 0.69704 0.20588 0.62017 0.0
H438 H 0.65537 0.29636 0.67031 0.0
H439 H 0.66774 0.21671 0.67917 0.0
S440 S 0.73071 0.24679 0.51901 0.0
N441 N 0.71045 0.29142 0.54185 0.0
N442 N 0.72558 0.2055 0.55165 0.0
C443 C 0.70619 0.22702 0.58328 0.0
C444 C 0.69836 0.27374 0.57799 0.0
C445 C 0.25879 0.75592 0.63741 0.0
C446 C 0.20796 0.77601 0.64303 0.0
C447 C 0.30672 0.78146 0.63542 0.0
C448 C 0.30556 0.82785 0.63974 0.0
H449 H 0.26128 0.72035 0.63362 0.0
H450 H 0.34502 0.76485 0.63053 0.0
S451 S 0.18274 0.89595 0.65715 0.0
N452 N 0.15932 0.84453 0.65448 0.0
N453 N 0.24919 0.89266 0.65065 0.0
C454 C 0.255 0.84816 0.6463 0.0
C455 C 0.20623 0.8222 0.6479 0.0
C456 C 0.05622 0.49454 0.25365 0.0
C457 C 0.05019 0.49094 0.29478 0.0
C458 C 0.08873 0.52804 0.23555 0.0
C459 C 0.11631 0.55992 0.25769 0.0
H460 H 0.03387 0.47235 0.23505 0.0
H461 H 0.08979 0.53031 0.20382 0.0
S462 S 0.11825 0.56331 0.36646 0.0
N463 N 0.07828 0.52063 0.35716 0.0
N464 N 0.13859 0.58349 0.32331 0.0
C465 C 0.11295 0.55534 0.29889 0.0
C466 C 0.08023 0.52095 0.31735 0.0
C467 C 0.03661 0.09304 0.26473 0.0
C468 C 1.02987 0.09662 0.22379 0.0
C469 C 0.06992 0.06013 0.28202 0.0
C470 C 0.097 1.02871 0.25915 0.0
H471 H 1.0144 0.11487 0.28375 0.0
H472 H 0.07171 0.05768 0.31371 0.0
S473 S 0.09618 1.02512 0.15055 0.0
N474 N 0.05646 0.06743 0.16071 0.0
N475 N 0.11753 1.00505 0.19324 0.0
C476 C 0.09251 1.03304 0.21814 0.0
C477 C 0.05947 0.06711 0.20046 0.0
C478 C 0.51652 0.07202 0.30622 0.0
C479 C 0.54851 0.10385 0.28538 0.0
C480 C 0.48536 1.04017 0.2866 0.0
C481 C 0.48369 1.03952 0.24537 0.0
H482 H 0.51809 0.06989 0.33793 0.0
H483 H 0.46384 1.01487 0.30391 0.0
S484 S 0.55722 0.11746 0.1771 0.0
N485 N 0.57466 0.1338 0.22111 0.0
N486 N 0.51504 0.07507 0.18443 0.0
C487 C 0.51309 0.07272 0.22423 0.0
C488 C 0.54575 0.10451 0.24417 0.0
C489 C 0.54911 0.50218 0.27421 0.0
C490 C 0.5456 0.49452 0.23378 0.0
C491 C 0.51688 0.53451 0.29212 0.0
C492 C 0.48075 0.56143 0.27015 0.0
H493 H 0.5784 0.48408 0.29195 0.0
H494 H 0.52271 0.54014 0.32304 0.0
S495 S 0.45455 0.5537 0.16368 0.0
N496 N 0.50079 0.51525 0.17269 0.0
N497 N 0.44158 0.57659 0.2061 0.0
C498 C 0.47543 0.55301 0.23001 0.0
C499 C 0.50741 0.51945 0.21192 0.0
C500 C 0.922 0.61664 0.81976 0.0
C501 C 0.90995 0.62131 0.77971 0.0
C502 C 0.89463 0.58497 0.84369 0.0
C503 C 0.85424 0.55687 0.82833 0.0
H504 H 0.95529 0.63538 0.83198 0.0
H505 H 0.90793 0.58056 0.87374 0.0
S506 S 0.80111 0.56354 0.72684 0.0
N507 N 0.85073 0.60066 0.72694 0.0
N508 N 0.7981 0.5415 0.77163 0.0
C509 C 0.83851 0.56457 0.7891 0.0
C510 C 0.86684 0.59654 0.76483 0.0
C511 C 0.91472 0.98865 0.72728 0.0
C512 C 0.9248 0.99895 0.7665 0.0
C513 C 0.88445 1.01737 0.7029 0.0
C514 C 0.86336 0.0575 0.71686 0.0
H515 H 0.93273 0.95943 0.71479 0.0
H516 H 0.87955 1.00886 0.67248 0.0
S517 S 0.8736 0.09677 0.81897 0.0
N518 N 0.9065 1.04909 0.81948 0.0
N519 N 0.85216 0.10425 0.77356 0.0
C520 C 0.87099 0.06688 0.75669 0.0
C521 C 0.90107 1.03732 0.78152 0.0
C522 C 0.68777 1.04621 0.7492 0.0
C523 C 0.68289 1.04834 0.79029 0.0
C524 C 0.65617 1.01648 0.728 0.0
C525 C 0.6196 0.98706 0.74709 0.0
H526 H 0.71406 0.0692 0.73291 0.0
H527 H 0.65906 1.0173 0.69631 0.0
S528 S 0.59395 0.97661 0.85403 0.0
N529 N 0.64037 1.01636 0.84935 0.0
N530 N 0.58161 0.96015 0.80916 0.0
C531 C 0.61632 0.98699 0.78816 0.0
C532 C 0.6479 1.01767 0.80985 0.0
C533 C 0.65165 0.57417 0.71736 0.0
C534 C 0.63177 0.53279 0.70534 0.0
C535 C 0.62221 0.59995 0.74348 0.0
C536 C 0.57123 0.58576 0.75791 0.0
H537 H 0.69044 0.58678 0.70671 0.0
H538 H 0.63962 0.6311 0.7527 0.0
S539 S 0.49693 0.48341 0.73026 0.0
N540 N 0.55589 0.48052 0.70709 0.0
N541 N 0.49916 0.53004 0.75463 0.0
C542 C 0.5497 0.54529 0.74478 0.0
C543 C 0.58027 0.51858 0.71882 0.0
C544 C 0.97634 0.78813 0.23647 0.0
C545 C 0.99967 0.74739 0.24807 0.0
C546 C 0.97508 0.82359 0.26224 0.0
C547 C 0.99722 0.81889 0.30001 0.0
H548 H 0.96468 0.79407 0.20624 0.0
H549 H 0.96233 0.85597 0.25121 0.0
S550 S 0.05005 0.71564 0.3468 0.0
N551 N 0.03513 0.70167 0.30162 0.0
N552 N 0.03333 0.76857 0.34998 0.0
C553 C 1.01385 0.7767 0.31334 0.0
C554 C 1.01486 0.74075 0.28731 0.0
C555 C 0.83877 1.04279 0.25896 0.0
C556 C 0.80634 1.03942 0.2254 0.0
C557 C 0.81535 1.04118 0.29642 0.0
C558 C 0.75904 1.03563 0.30126 0.0
H559 H 0.88172 0.05052 0.2559 0.0
H560 H 0.84053 1.04788 0.32154 0.0
S561 S 0.65755 1.0219 0.22273 0.0
N562 N 0.71628 1.02755 0.19918 0.0
N563 N 0.67195 1.02384 0.26989 0.0
C564 C 0.72689 1.02862 0.26809 0.0
C565 C 0.75071 1.03069 0.22995 0.0
C566 C 0.59563 0.80695 0.27651 0.0
C567 C 0.571 0.76592 0.26855 0.0
C568 C 0.59763 0.84124 0.24788 0.0
C569 C 0.57512 0.83525 0.21058 0.0
H570 H 0.60926 0.81378 0.30586 0.0
H571 H 0.6124 0.87366 0.25607 0.0
S572 S 0.51726 0.73089 0.17295 0.0
N573 N 0.53231 0.71872 0.21909 0.0
N574 N 0.5357 0.78337 0.16536 0.0
C575 C 0.55572 0.79293 0.20119 0.0
C576 C 0.55369 0.75817 0.23021 0.0
C577 C 0.74226 0.56655 0.24039 0.0
C578 C 0.76577 0.55058 0.2058 0.0
C579 C 0.77032 0.5639 0.27602 0.0
C580 C 0.82239 0.54513 0.27787 0.0
H581 H 0.70039 0.57751 0.24052 0.0
H582 H 0.74966 0.5732 0.30266 0.0
S583 S 0.90506 0.50682 0.19426 0.0
N584 N 0.84623 0.52119 0.17464 0.0
N585 N 0.89957 0.51709 0.24142 0.0
C586 C 0.84811 0.53321 0.24285 0.0
C587 C 0.81957 0.5357 0.20681 0.0
C588 C 0.90378 0.33099 0.67934 0.0
C589 C 0.87941 0.27875 0.69249 0.0
C590 C 0.92649 0.36842 0.713 0.0
C591 C 0.92917 0.36481 0.76354 0.0
H592 H 0.90721 0.34001 0.64853 0.0
H593 H 0.94039 0.39987 0.70031 0.0
S594 S 0.90122 0.27063 0.84791 0.0
N595 N 0.88086 0.24165 0.80939 0.0
N596 N 0.92042 0.32235 0.834 0.0
C597 C 0.91254 0.32203 0.79495 0.0
C598 C 0.88763 0.27355 0.7808 0.0
C599 C 0.25683 1.00498 0.71695 0.0
C600 C 0.31349 1.00732 0.72199 0.0
C601 C 0.22116 1.00547 0.74911 0.0
C602 C 0.24052 1.00831 0.78778 0.0
H603 H 0.23975 1.00074 0.6881 0.0
H604 H 0.17804 1.00187 0.74355 0.0
S605 S 0.38509 1.02122 0.81653 0.0
N606 N 0.38715 1.01724 0.76841 0.0
N607 N 0.32012 1.01789 0.8288 0.0
C608 C 0.29692 1.01344 0.79306 0.0
C609 C 0.33334 1.01301 0.76023 0.0
C610 C 0.74157 0.31706 0.7662 0.0
C611 C 0.7599 0.27484 0.75536 0.0
C612 C 0.77074 0.35687 0.75991 0.0
C613 C 0.82114 0.35979 0.74038 0.0
H614 H 0.70205 0.31959 0.78015 0.0
H615 H 0.74883 0.38744 0.76475 0.0
S616 S 0.92865 0.22796 0.73341 0.0
N617 N 0.84676 0.2265 0.7381 0.0
N618 N 0.93423 0.29636 0.73446 0.0
C619 C 0.8521 0.31931 0.73916 0.0
C620 C 0.81296 0.2714 0.74086 0.0
C621 C 0.22416 0.58664 0.80642 0.0
C622 C 0.28042 0.58348 0.79983 0.0
C623 C 0.18772 0.58899 0.77506 0.0
C624 C 0.20601 0.58821 0.73581 0.0
H625 H 0.20821 0.58972 0.83587 0.0
H626 H 0.14501 0.59343 0.78177 0.0
S627 S 0.34884 0.57243 0.70319 0.0
N628 N 0.3523 0.57376 0.75143 0.0
N629 N 0.28384 0.57843 0.6925 0.0
C630 C 0.26182 0.58154 0.72895 0.0
C631 C 0.29899 0.57917 0.76094 0.0
C632 C 0.04414 0.59325 0.01701 0.0
C633 C 0.09089 0.58235 0.03865 0.0
C634 C 1.0178 0.56153 0.99435 0.0
C635 C 0.03751 0.51776 0.99214 0.0
H636 H 1.02697 0.62625 0.01846 0.0
H637 H 0.98098 0.57119 0.97924 0.0
S638 S 0.16219 0.47425 0.04037 0.0
N639 N 0.15766 0.526 0.05499 0.0
N640 N 0.10956 0.46655 0.01144 0.0
C641 C 0.08532 0.50694 0.01284 0.0
C642 C 0.11162 0.53917 0.03632 0.0
C643 C 1.01795 0.0689 0.94218 0.0
C644 C 0.0701 0.05263 0.95135 0.0
C645 C 0.98884 0.09497 0.96837 0.0
C646 C 1.0106 0.10623 1.00485 0.0
H647 H 0.9986 0.06056 0.91489 0.0
H648 H 0.94826 0.10532 0.96028 0.0
S649 S 0.14763 0.07567 0.04165 0.0
N650 N 0.14354 0.05172 0.9988 0.0
N651 N 0.08934 0.10171 0.04756 0.0
C652 C 0.06339 0.09135 0.01397 0.0
C653 C 0.09298 0.0644 0.98736 0.0
C654 C 0.49472 0.09295 0.02632 0.0
C655 C 0.50347 1.04689 0.02552 0.0
C656 C 0.52375 0.12241 1.00107 0.0
C657 C 0.56304 0.10685 0.9745 0.0
H658 H 0.46453 0.10604 0.04608 0.0
H659 H 0.51497 0.1576 1.00204 0.0
S660 S 0.60568 0.98896 0.96581 0.0
N661 N 0.5561 0.98706 0.99867 0.0
N662 N 0.61261 1.04192 0.95255 0.0
C663 C 0.57333 0.06067 0.97474 0.0
C664 C 0.54308 1.03086 0.99995 0.0
C665 C 0.49855 0.52317 0.95062 0.0
C666 C 0.45516 0.5492 0.96411 0.0
C667 C 0.52726 0.49479 0.9761 0.0
C668 C 0.51383 0.49113 0.01614 0.0
H669 H 0.51157 0.52549 0.92025 0.0
H670 H 0.56135 0.47655 0.96455 0.0
S671 S 0.3998 0.54784 0.06551 0.0
N672 N 0.39767 0.56693 0.01973 0.0
N673 N 0.4514 0.51294 0.06755 0.0
C674 C 0.46944 0.51571 0.02987 0.0
C675 C 0.44017 0.54483 1.00388 0.0
C676 C 0.04804 1.03484 0.50258 0.0
C677 C 0.03949 1.01414 0.46661 0.0
C678 C 1.00601 0.05809 0.52105 0.0
C679 C 0.95416 0.06154 0.50406 0.0
H680 H 0.08777 1.03384 0.51605 0.0
H681 H 1.01443 0.07443 0.54825 0.0
S682 S 0.90835 1.00794 0.41338 0.0
N683 N 0.97314 0.99455 0.41717 0.0
N684 N 0.89512 1.03899 0.45138 0.0
C685 C 0.94459 1.03973 0.46891 0.0
C686 C 0.98699 1.01583 0.45031 0.0
C687 C 0.5371 0.13127 0.54931 0.0
C688 C 0.55 0.10996 0.51431 0.0
C689 C 0.51007 0.10862 0.58023 0.0
C690 C 0.4953 0.06347 0.5776 0.0
H691 H 0.5491 0.1656 0.55308 0.0
H692 H 0.50233 0.12639 0.60685 0.0
S693 S 0.51852 0.99274 0.49145 0.0
N694 N 0.54496 1.04152 0.4783 0.0
N695 N 0.49379 0.99879 0.53606 0.0
C696 C 0.5064 1.04214 0.54212 0.0
C697 C 0.53379 0.06539 0.51057 0.0
C698 C 0.63088 0.56 0.49508 0.0
C699 C 0.6149 0.52539 0.52141 0.0
C700 C 0.5923 0.58549 0.47446 0.0
C701 C 0.53623 0.57777 0.4797 0.0
H702 H 0.67353 0.56795 0.49078 0.0
H703 H 0.60633 0.61191 0.45462 0.0
S704 S 0.47252 0.4886 0.54167 0.0
N705 N 0.53846 0.48254 0.54875 0.0
N706 N 0.46643 0.53164 0.51096 0.0
C707 C 0.51952 0.54307 0.50539 0.0
C708 C 0.5587 0.51659 0.52598 0.0
C709 C 0.04062 0.5379 0.50893 0.0
C710 C 0.9928 0.51332 0.51689 0.0
C711 C 0.06311 0.56583 0.53699 0.0
C712 C 0.03851 0.57047 0.5741 0.0
H713 H 0.06139 0.53482 0.48108 0.0
H714 H 0.10033 0.58365 0.52953 0.0
S715 S 0.90966 0.5161 0.60796 0.0
N716 N 0.9195 0.49759 0.5634 0.0
N717 N 0.96165 0.54946 0.61625 0.0
C718 C 0.98988 0.54669 0.58202 0.0
C719 C 0.96709 0.51829 0.55343 0.0
loop_
_geom_bond_atom_site_label_1
_geom_bond_atom_site_label_2
_geom_bond_distance
_geom_bond_site_symmetry_2
_ccdc_geom_bond_type
Cu0 N1 1.999 . S
Cu0 O6 1.974 . S
Cu0 N11 1.985 . S
Cu0 O20 1.959 . S
N1 Cu0 1.999 . S
N1 C3 1.263 . S
N1 C5 1.389 . S
N2 C3 1.358 . S
N2 C4 1.400 . S
C3 N1 1.263 . S
C3 N2 1.358 . S
C3 H9 0.930 . S
C4 N2 1.400 . S
C4 C5 1.351 . S
C4 H21 0.930 . S
C5 N1 1.389 . S
C5 C4 1.351 . S
C5 H10 0.930 . S
O6 Cu0 1.974 . S
O6 C16 1.282 . S
C7 O8 1.261 . S
C7 O20 1.251 . S
O8 C7 1.261 . S
H9 C3 0.930 . S
H10 C5 0.930 . S
N11 Cu0 1.985 . S
N11 C13 1.335 . S
N11 C14 1.390 . S
N12 C13 1.345 . S
N12 C15 1.336 . S
C13 N11 1.335 . S
C13 N12 1.345 . S
C13 H18 0.930 . S
C14 N11 1.390 . S
C14 C15 1.346 . S
C14 H19 0.930 . S
C15 N12 1.336 . S
C15 C14 1.346 . S
C15 H22 0.929 . S
C16 O6 1.282 . S
C16 O17 1.216 . S
O17 C16 1.216 . S
H18 C13 0.930 . S
H19 C14 0.930 . S
O20 Cu0 1.959 . S
O20 C7 1.251 . S
H21 C4 0.930 . S
H22 C15 0.929 . S
Cu23 N24 1.999 . S
Cu23 O29 1.974 . S
Cu23 N34 1.985 . S
Cu23 O43 1.959 . S
N24 Cu23 1.999 . S
N24 C26 1.263 . S
N24 C28 1.389 . S
N25 C26 1.358 . S
N25 C27 1.400 . S
C26 N24 1.263 . S
C26 N25 1.358 . S
C26 H32 0.930 . S
C27 N25 1.400 . S
C27 C28 1.351 . S
C27 H44 0.930 . S
C28 N24 1.389 . S
C28 C27 1.351 . S
C28 H33 0.930 . S
O29 Cu23 1.974 . S
O29 C39 1.282 . S
C30 O31 1.258 1_655 S
C30 O43 1.251 . S
O31 C30 1.258 1_455 S
H32 C26 0.930 . S
H33 C28 0.930 . S
N34 Cu23 1.985 . S
N34 C36 1.335 . S
N34 C37 1.390 . S
N35 C36 1.345 1_455 S
N35 C38 1.336 1_455 S
C36 N34 1.335 . S
C36 N35 1.345 1_655 S
C36 H41 0.930 . S
C37 N34 1.390 . S
C37 C38 1.346 . S
C37 H42 0.930 . S
C38 N35 1.336 1_655 S
C38 C37 1.346 . S
C38 H45 0.929 1_554 S
C39 O29 1.282 . S
C39 O40 1.216 . S
O40 C39 1.216 . S
H41 C36 0.930 . S
H42 C37 0.930 . S
O43 Cu23 1.959 . S
O43 C30 1.251 . S
H44 C27 0.930 . S
H45 C38 0.929 1_556 S
Cu46 N47 1.999 . S
Cu46 O52 1.974 . S
Cu46 N57 1.985 . S
Cu46 O66 1.959 . S
N47 Cu46 1.999 . S
N47 C49 1.263 . S
N47 C51 1.389 . S
N48 C49 1.358 . S
N48 C50 1.400 . S
C49 N47 1.263 . S
C49 N48 1.358 . S
C49 H55 0.930 . S
C50 N48 1.400 . S
C50 C51 1.351 . S
C50 H67 0.930 . S
C51 N47 1.389 . S
C51 C50 1.351 . S
C51 H56 0.930 . S
O52 Cu46 1.974 . S
O52 C62 1.282 . S
C53 O54 1.261 . S
C53 O66 1.251 . S
O54 C53 1.261 . S
H55 C49 0.930 . S
H56 C51 0.930 . S
N57 Cu46 1.985 . S
N57 C59 1.335 . S
N57 C60 1.390 . S
N58 C59 1.345 . S
N58 C61 1.336 . S
C59 N57 1.335 . S
C59 N58 1.345 . S
C59 H64 0.930 . S
C60 N57 1.390 . S
C60 C61 1.346 . S
C60 H65 0.930 . S
C61 N58 1.336 . S
C61 C60 1.346 . S
C61 H68 0.929 . S
C62 O52 1.282 . S
C62 O63 1.216 . S
O63 C62 1.216 . S
H64 C59 0.930 . S
H65 C60 0.930 . S
O66 Cu46 1.959 . S
O66 C53 1.251 . S
H67 C50 0.930 . S
H68 C61 0.929 . S
Cu69 N70 1.999 . S
Cu69 O75 1.974 . S
Cu69 N80 1.985 . S
Cu69 O89 1.959 . S
N70 Cu69 1.999 . S
N70 C72 1.263 . S
N70 C74 1.389 . S
N71 C72 1.358 . S
N71 C73 1.400 . S
C72 N70 1.263 . S
C72 N71 1.358 . S
C72 H78 0.930 . S
C73 N71 1.400 . S
C73 C74 1.351 . S
C73 H90 0.930 . S
C74 N70 1.389 . S
C74 C73 1.351 . S
C74 H79 0.930 . S
O75 Cu69 1.974 . S
O75 C85 1.282 . S
C76 O77 1.261 . S
C76 O89 1.251 . S
O77 C76 1.261 . S
H78 C72 0.930 . S
H79 C74 0.930 . S
N80 Cu69 1.985 . S
N80 C82 1.335 . S
N80 C83 1.390 . S
N81 C82 1.345 . S
N81 C84 1.336 . S
C82 N80 1.335 . S
C82 N81 1.345 . S
C82 H87 0.930 . S
C83 N80 1.390 . S
C83 C84 1.346 . S
C83 H88 0.930 . S
C84 N81 1.336 . S
C84 C83 1.346 . S
C84 H91 0.929 1_554 S
C85 O75 1.282 . S
C85 O86 1.216 . S
O86 C85 1.216 . S
H87 C82 0.930 . S
H88 C83 0.930 . S
O89 Cu69 1.959 . S
O89 C76 1.251 . S
H90 C73 0.930 . S
H91 C84 0.929 1_556 S
Cu92 N93 1.999 . S
Cu92 O98 1.974 . S
Cu92 N103 1.985 . S
Cu92 O112 1.959 . S
N93 Cu92 1.999 . S
N93 C95 1.263 . S
N93 C97 1.389 . S
N94 C95 1.358 . S
N94 C96 1.400 . S
C95 N93 1.263 . S
C95 N94 1.358 . S
C95 H101 0.930 . S
C96 N94 1.400 . S
C96 C97 1.351 . S
C96 H113 0.930 . S
C97 N93 1.389 . S
C97 C96 1.351 . S
C97 H102 0.930 . S
O98 Cu92 1.974 . S
O98 C108 1.282 . S
C99 O100 1.261 . S
C99 O112 1.251 . S
O100 C99 1.261 . S
H101 C95 0.930 . S
H102 C97 0.930 . S
N103 Cu92 1.985 . S
N103 C105 1.335 . S
N103 C106 1.390 . S
N104 C105 1.345 . S
N104 C107 1.336 . S
C105 N103 1.335 . S
C105 N104 1.345 . S
C105 H110 0.930 . S
C106 N103 1.390 . S
C106 C107 1.346 . S
C106 H111 0.930 . S
C107 N104 1.336 . S
C107 C106 1.346 . S
C107 H114 0.929 . S
C108 O98 1.282 . S
C108 O109 1.216 . S
O109 C108 1.216 . S
H110 C105 0.930 . S
H111 C106 0.930 . S
O112 Cu92 1.959 . S
O112 C99 1.251 . S
H113 C96 0.930 . S
H114 C107 0.929 . S
Cu115 N116 1.999 . S
Cu115 O121 1.974 . S
Cu115 N126 1.985 . S
Cu115 O135 1.959 . S
N116 Cu115 1.999 . S
N116 C118 1.263 . S
N116 C120 1.389 . S
N117 C118 1.358 . S
N117 C119 1.400 . S
C118 N116 1.263 . S
C118 N117 1.358 . S
C118 H124 0.930 . S
C119 N117 1.400 . S
C119 C120 1.351 . S
C119 H136 0.930 . S
C120 N116 1.389 . S
C120 C119 1.351 . S
C120 H125 0.930 . S
O121 Cu115 1.974 . S
O121 C131 1.282 . S
C122 O123 1.261 . S
C122 O135 1.251 . S
O123 C122 1.261 . S
H124 C118 0.930 . S
H125 C120 0.930 . S
N126 Cu115 1.985 . S
N126 C128 1.335 . S
N126 C129 1.390 . S
N127 C128 1.345 . S
N127 C130 1.336 . S
C128 N126 1.335 . S
C128 N127 1.345 . S
C128 H133 0.930 . S
C129 N126 1.390 . S
C129 C130 1.346 . S
C129 H134 0.930 . S
C130 N127 1.336 . S
C130 C129 1.346 . S
C130 H137 0.929 . S
C131 O121 1.282 . S
C131 O132 1.216 . S
O132 C131 1.216 . S
H133 C128 0.930 . S
H134 C129 0.930 . S
O135 Cu115 1.959 . S
O135 C122 1.251 . S
H136 C119 0.930 . S
H137 C130 0.929 . S
Cu138 N139 1.999 . S
Cu138 O144 1.974 . S
Cu138 N149 1.985 . S
Cu138 O158 1.959 . S
N139 Cu138 1.999 . S
N139 C141 1.263 . S
N139 C143 1.389 . S
N140 C141 1.358 . S
N140 C142 1.400 . S
C141 N139 1.263 . S
C141 N140 1.358 . S
C141 H147 0.930 . S
C142 N140 1.400 . S
C142 C143 1.351 . S
C142 H159 0.930 . S
C143 N139 1.389 . S
C143 C142 1.351 . S
C143 H148 0.930 . S
O144 Cu138 1.974 . S
O144 C154 1.282 . S
C145 O146 1.261 . S
C145 O158 1.251 . S
O146 C145 1.261 . S
H147 C141 0.930 . S
H148 C143 0.930 . S
N149 Cu138 1.985 . S
N149 C151 1.335 . S
N149 C152 1.390 . S
N150 C151 1.345 . S
N150 C153 1.336 . S
C151 N149 1.335 . S
C151 N150 1.345 . S
C151 H156 0.930 . S
C152 N149 1.390 . S
C152 C153 1.346 . S
C152 H157 0.930 . S
C153 N150 1.336 . S
C153 C152 1.346 . S
C153 H160 0.929 . S
C154 O144 1.282 . S
C154 O155 1.216 . S
O155 C154 1.216 . S
H156 C151 0.930 . S
H157 C152 0.930 . S
O158 Cu138 1.959 . S
O158 C145 1.251 . S
H159 C142 0.930 . S
H160 C153 0.929 . S
Cu161 N162 1.999 . S
Cu161 O167 1.974 . S
Cu161 N172 1.985 . S
Cu161 O181 1.959 . S
N162 Cu161 1.999 . S
N162 C164 1.263 . S
N162 C166 1.389 . S
N163 C164 1.358 . S
N163 C165 1.400 . S
C164 N162 1.263 . S
C164 N163 1.358 . S
C164 H170 0.930 . S
C165 N163 1.400 . S
C165 C166 1.351 . S
C165 H182 0.930 . S
C166 N162 1.389 . S
C166 C165 1.351 . S
C166 H171 0.930 . S
O167 Cu161 1.974 . S
O167 C177 1.282 . S
C168 O169 1.258 1_655 S
C168 O181 1.251 . S
O169 C168 1.258 1_455 S
H170 C164 0.930 . S
H171 C166 0.930 . S
N172 Cu161 1.985 . S
N172 C174 1.335 . S
N172 C175 1.390 . S
N173 C174 1.345 1_455 S
N173 C176 1.336 1_455 S
C174 N172 1.335 . S
C174 N173 1.345 1_655 S
C174 H179 0.930 . S
C175 N172 1.390 . S
C175 C176 1.346 . S
C175 H180 0.930 . S
C176 N173 1.336 1_655 S
C176 C175 1.346 . S
C176 H183 0.929 . S
C177 O167 1.282 . S
C177 O178 1.216 . S
O178 C177 1.216 . S
H179 C174 0.930 . S
H180 C175 0.930 . S
O181 Cu161 1.959 . S
O181 C168 1.251 . S
H182 C165 0.930 . S
H183 C176 0.929 . S
Cu184 N185 1.999 . S
Cu184 O190 1.974 . S
Cu184 N195 1.985 . S
Cu184 O204 1.959 . S
N185 Cu184 1.999 . S
N185 C187 1.263 . S
N185 C189 1.389 . S
N186 C187 1.358 . S
N186 C188 1.400 . S
C187 N185 1.263 . S
C187 N186 1.358 . S
C187 H193 0.930 . S
C188 N186 1.400 . S
C188 C189 1.351 . S
C188 H205 0.930 . S
C189 N185 1.389 . S
C189 C188 1.351 . S
C189 H194 0.930 . S
O190 Cu184 1.974 . S
O190 C200 1.282 . S
C191 O192 1.261 . S
C191 O204 1.251 . S
O192 C191 1.261 . S
H193 C187 0.930 . S
H194 C189 0.930 . S
N195 Cu184 1.985 . S
N195 C197 1.335 . S
N195 C198 1.390 . S
N196 C197 1.345 . S
N196 C199 1.336 . S
C197 N195 1.335 . S
C197 N196 1.345 . S
C197 H202 0.930 . S
C198 N195 1.390 . S
C198 C199 1.346 . S
C198 H203 0.930 . S
C199 N196 1.336 . S
C199 C198 1.346 . S
C199 H206 0.929 1_556 S
C200 O190 1.282 . S
C200 O201 1.216 . S
O201 C200 1.216 . S
H202 C197 0.930 . S
H203 C198 0.930 . S
O204 Cu184 1.959 . S
O204 C191 1.251 . S
H205 C188 0.930 . S
H206 C199 0.929 1_554 S
Cu207 N208 1.999 . S
Cu207 O213 1.974 . S
Cu207 N218 1.985 . S
Cu207 O227 1.959 . S
N208 Cu207 1.999 . S
N208 C210 1.263 . S
N208 C212 1.389 . S
N209 C210 1.358 1_655 S
N209 C211 1.400 . S
C210 N208 1.263 . S
C210 N209 1.358 1_455 S
C210 H216 0.930 . S
C211 N209 1.400 . S
C211 C212 1.351 1_655 S
C211 H228 0.930 . S
C212 N208 1.389 . S
C212 C211 1.351 1_455 S
C212 H217 0.930 . S
O213 Cu207 1.974 . S
O213 C223 1.282 . S
C214 O215 1.261 . S
C214 O227 1.251 . S
O215 C214 1.261 . S
H216 C210 0.930 . S
H217 C212 0.930 . S
N218 Cu207 1.985 . S
N218 C220 1.335 . S
N218 C221 1.390 . S
N219 C220 1.345 . S
N219 C222 1.336 . S
C220 N218 1.335 . S
C220 N219 1.345 . S
C220 H225 0.930 . S
C221 N218 1.390 . S
C221 C222 1.346 . S
C221 H226 0.930 . S
C222 N219 1.336 . S
C222 C221 1.346 . S
C222 H229 0.929 . S
C223 O213 1.282 . S
C223 O224 1.216 . S
O224 C223 1.216 . S
H225 C220 0.930 . S
H226 C221 0.930 . S
O227 Cu207 1.959 . S
O227 C214 1.251 . S
H228 C211 0.930 . S
H229 C222 0.929 . S
Cu230 N231 1.999 . S
Cu230 O236 1.974 . S
Cu230 N241 1.985 . S
Cu230 O250 1.959 . S
N231 Cu230 1.999 . S
N231 C233 1.263 . S
N231 C235 1.389 . S
N232 C233 1.358 . S
N232 C234 1.400 . S
C233 N231 1.263 . S
C233 N232 1.358 . S
C233 H239 0.930 . S
C234 N232 1.400 . S
C234 C235 1.351 . S
C234 H251 0.930 . S
C235 N231 1.389 . S
C235 C234 1.351 . S
C235 H240 0.930 . S
O236 Cu230 1.974 . S
O236 C246 1.282 . S
C237 O238 1.261 . S
C237 O250 1.251 . S
O238 C237 1.261 . S
H239 C233 0.930 . S
H240 C235 0.930 . S
N241 Cu230 1.985 . S
N241 C243 1.335 . S
N241 C244 1.390 . S
N242 C243 1.345 . S
N242 C245 1.336 . S
C243 N241 1.335 . S
C243 N242 1.345 . S
C243 H248 0.930 . S
C244 N241 1.390 . S
C244 C245 1.346 . S
C244 H249 0.930 . S
C245 N242 1.336 . S
C245 C244 1.346 . S
C245 H252 0.929 1_556 S
C246 O236 1.282 . S
C246 O247 1.216 . S
O247 C246 1.216 . S
H248 C243 0.930 . S
H249 C244 0.930 . S
O250 Cu230 1.959 . S
O250 C237 1.251 . S
H251 C234 0.930 . S
H252 C245 0.929 1_554 S
Cu253 N254 1.999 . S
Cu253 O259 1.974 . S
Cu253 N264 1.985 . S
Cu253 O273 1.959 . S
N254 Cu253 1.999 . S
N254 C256 1.263 . S
N254 C258 1.389 . S
N255 C256 1.358 . S
N255 C257 1.400 . S
C256 N254 1.263 . S
C256 N255 1.358 . S
C256 H262 0.930 . S
C257 N255 1.400 . S
C257 C258 1.351 . S
C257 H274 0.930 . S
C258 N254 1.389 . S
C258 C257 1.351 . S
C258 H263 0.930 . S
O259 Cu253 1.974 . S
O259 C269 1.282 . S
C260 O261 1.261 . S
C260 O273 1.251 . S
O261 C260 1.261 . S
H262 C256 0.930 . S
H263 C258 0.930 . S
N264 Cu253 1.985 . S
N264 C266 1.335 . S
N264 C267 1.390 . S
N265 C266 1.345 . S
N265 C268 1.336 . S
C266 N264 1.335 . S
C266 N265 1.345 . S
C266 H271 0.930 . S
C267 N264 1.390 . S
C267 C268 1.346 . S
C267 H272 0.930 . S
C268 N265 1.336 . S
C268 C267 1.346 . S
C268 H275 0.929 . S
C269 O259 1.282 . S
C269 O270 1.216 . S
O270 C269 1.216 . S
H271 C266 0.930 . S
H272 C267 0.930 . S
O273 Cu253 1.959 . S
O273 C260 1.251 . S
H274 C257 0.930 . S
H275 C268 0.929 . S
Cu276 N277 1.999 . S
Cu276 O282 1.974 . S
Cu276 N287 1.985 . S
Cu276 O296 1.959 . S
N277 Cu276 1.999 . S
N277 C279 1.263 . S
N277 C281 1.389 . S
N278 C279 1.358 . S
N278 C280 1.400 . S
C279 N277 1.263 . S
C279 N278 1.358 . S
C279 H285 0.930 . S
C280 N278 1.400 . S
C280 C281 1.351 . S
C280 H297 0.930 . S
C281 N277 1.389 . S
C281 C280 1.351 . S
C281 H286 0.930 . S
O282 Cu276 1.974 . S
O282 C292 1.282 . S
C283 O284 1.261 . S
C283 O296 1.251 . S
O284 C283 1.261 . S
H285 C279 0.930 . S
H286 C281 0.930 . S
N287 Cu276 1.985 . S
N287 C289 1.335 . S
N287 C290 1.390 . S
N288 C289 1.345 . S
N288 C291 1.336 . S
C289 N287 1.335 . S
C289 N288 1.345 . S
C289 H294 0.930 . S
C290 N287 1.390 . S
C290 C291 1.346 . S
C290 H295 0.930 . S
C291 N288 1.336 . S
C291 C290 1.346 . S
C291 H298 0.929 . S
C292 O282 1.282 . S
C292 O293 1.216 . S
O293 C292 1.216 . S
H294 C289 0.930 . S
H295 C290 0.930 . S
O296 Cu276 1.959 . S
O296 C283 1.251 . S
H297 C280 0.930 . S
H298 C291 0.929 . S
Cu299 N300 1.999 . S
Cu299 O305 1.974 . S
Cu299 N310 1.985 . S
Cu299 O319 1.959 . S
N300 Cu299 1.999 . S
N300 C302 1.263 . S
N300 C304 1.389 . S
N301 C302 1.358 . S
N301 C303 1.400 . S
C302 N300 1.263 . S
C302 N301 1.358 . S
C302 H308 0.930 . S
C303 N301 1.400 . S
C303 C304 1.351 . S
C303 H320 0.930 . S
C304 N300 1.389 . S
C304 C303 1.351 . S
C304 H309 0.930 . S
O305 Cu299 1.974 . S
O305 C315 1.282 . S
C306 O307 1.261 . S
C306 O319 1.251 . S
O307 C306 1.261 . S
H308 C302 0.930 . S
H309 C304 0.930 . S
N310 Cu299 1.985 . S
N310 C312 1.335 . S
N310 C313 1.390 . S
N311 C312 1.345 . S
N311 C314 1.336 . S
C312 N310 1.335 . S
C312 N311 1.345 . S
C312 H317 0.930 . S
C313 N310 1.390 . S
C313 C314 1.346 . S
C313 H318 0.930 . S
C314 N311 1.336 . S
C314 C313 1.346 . S
C314 H321 0.929 . S
C315 O305 1.282 . S
C315 O316 1.216 . S
O316 C315 1.216 . S
H317 C312 0.930 . S
H318 C313 0.930 . S
O319 Cu299 1.959 . S
O319 C306 1.251 . S
H320 C303 0.930 . S
H321 C314 0.929 . S
Cu322 N323 1.999 . S
Cu322 O328 1.974 . S
Cu322 N333 1.985 . S
Cu322 O342 1.959 . S
N323 Cu322 1.999 . S
N323 C325 1.263 . S
N323 C327 1.389 . S
N324 C325 1.358 . S
N324 C326 1.400 . S
C325 N323 1.263 . S
C325 N324 1.358 . S
C325 H331 0.930 . S
C326 N324 1.400 . S
C326 C327 1.351 . S
C326 H343 0.930 . S
C327 N323 1.389 . S
C327 C326 1.351 . S
C327 H332 0.930 . S
O328 Cu322 1.974 . S
O328 C338 1.282 . S
C329 O330 1.261 . S
C329 O342 1.251 . S
O330 C329 1.261 . S
H331 C325 0.930 . S
H332 C327 0.930 . S
N333 Cu322 1.985 . S
N333 C335 1.335 . S
N333 C336 1.390 . S
N334 C335 1.345 . S
N334 C337 1.336 . S
C335 N333 1.335 . S
C335 N334 1.345 . S
C335 H340 0.930 . S
C336 N333 1.390 . S
C336 C337 1.346 . S
C336 H341 0.930 . S
C337 N334 1.336 . S
C337 C336 1.346 . S
C337 H344 0.929 . S
C338 O328 1.282 . S
C338 O339 1.216 . S
O339 C338 1.216 . S
H340 C335 0.930 . S
H341 C336 0.930 . S
O342 Cu322 1.959 . S
O342 C329 1.251 . S
H343 C326 0.930 . S
H344 C337 0.929 . S
Cu345 N346 1.999 . S
Cu345 O351 1.974 . S
Cu345 N356 1.985 . S
Cu345 O365 1.959 . S
N346 Cu345 1.999 . S
N346 C348 1.263 . S
N346 C350 1.389 . S
N347 C348 1.358 1_655 S
N347 C349 1.400 . S
C348 N346 1.263 . S
C348 N347 1.358 1_455 S
C348 H354 0.930 . S
C349 N347 1.400 . S
C349 C350 1.351 1_655 S
C349 H366 0.930 . S
C350 N346 1.389 . S
C350 C349 1.351 1_455 S
C350 H355 0.930 . S
O351 Cu345 1.974 . S
O351 C361 1.282 . S
C352 O353 1.261 . S
C352 O365 1.251 . S
O353 C352 1.261 . S
H354 C348 0.930 . S
H355 C350 0.930 . S
N356 Cu345 1.985 . S
N356 C358 1.335 . S
N356 C359 1.390 . S
N357 C358 1.345 . S
N357 C360 1.336 . S
C358 N356 1.335 . S
C358 N357 1.345 . S
C358 H363 0.930 . S
C359 N356 1.390 . S
C359 C360 1.346 . S
C359 H364 0.930 . S
C360 N357 1.336 . S
C360 C359 1.346 . S
C360 H367 0.929 . S
C361 O351 1.282 . S
C361 O362 1.216 . S
O362 C361 1.216 . S
H363 C358 0.930 . S
H364 C359 0.930 . S
O365 Cu345 1.959 . S
O365 C352 1.251 . S
H366 C349 0.930 . S
H367 C360 0.929 . S
C368 C369 1.369 . S
C368 C370 1.419 . S
C368 H372 0.930 . S
C369 C368 1.369 . S
C369 C378 1.429 . S
C370 C368 1.419 . S
C370 C371 1.363 . S
C370 H373 0.929 . S
C371 C370 1.363 . S
C371 C377 1.428 . S
H372 C368 0.930 . S
H373 C370 0.929 . S
S374 N375 1.613 . S
S374 N376 1.610 . S
N375 S374 1.613 . S
N375 C378 1.350 . S
N376 S374 1.610 . S
N376 C377 1.351 . S
C377 C371 1.428 . S
C377 N376 1.351 . S
C377 C378 1.434 . S
C378 C369 1.429 . S
C378 N375 1.350 . S
C378 C377 1.434 . S
C379 C380 1.369 . S
C379 C381 1.419 . S
C379 H383 0.930 . S
C380 C379 1.369 . S
C380 C389 1.429 . S
C381 C379 1.419 . S
C381 C382 1.363 . S
C381 H384 0.929 . S
C382 C381 1.363 . S
C382 C388 1.428 . S
H383 C379 0.930 . S
H384 C381 0.929 . S
S385 N386 1.613 . S
S385 N387 1.610 . S
N386 S385 1.613 . S
N386 C389 1.350 . S
N387 S385 1.610 . S
N387 C388 1.351 . S
C388 C382 1.428 . S
C388 N387 1.351 . S
C388 C389 1.434 . S
C389 C380 1.429 . S
C389 N386 1.350 . S
C389 C388 1.434 . S
C390 C391 1.369 . S
C390 C392 1.419 . S
C390 H394 0.930 . S
C391 C390 1.369 . S
C391 C400 1.429 . S
C392 C390 1.419 . S
C392 C393 1.363 . S
C392 H395 0.929 . S
C393 C392 1.363 . S
C393 C399 1.428 . S
H394 C390 0.930 . S
H395 C392 0.929 . S
S396 N397 1.613 . S
S396 N398 1.610 . S
N397 S396 1.613 . S
N397 C400 1.350 . S
N398 S396 1.610 . S
N398 C399 1.351 . S
C399 C393 1.428 . S
C399 N398 1.351 . S
C399 C400 1.434 . S
C400 C391 1.429 . S
C400 N397 1.350 . S
C400 C399 1.434 . S
C401 C402 1.369 . S
C401 C403 1.419 . S
C401 H405 0.930 . S
C402 C401 1.369 . S
C402 C411 1.429 . S
C403 C401 1.419 . S
C403 C404 1.363 . S
C403 H406 0.929 . S
C404 C403 1.363 . S
C404 C410 1.428 . S
H405 C401 0.930 . S
H406 C403 0.929 . S
S407 N408 1.613 . S
S407 N409 1.610 . S
N408 S407 1.613 . S
N408 C411 1.350 . S
N409 S407 1.610 . S
N409 C410 1.351 . S
C410 C404 1.428 . S
C410 N409 1.351 . S
C410 C411 1.434 . S
C411 C402 1.429 . S
C411 N408 1.350 . S
C411 C410 1.434 . S
C412 C413 1.369 . S
C412 C414 1.419 . S
C412 H416 0.930 . S
C413 C412 1.369 . S
C413 C422 1.429 . S
C414 C412 1.419 . S
C414 C415 1.363 . S
C414 H417 0.929 . S
C415 C414 1.363 . S
C415 C421 1.428 . S
H416 C412 0.930 . S
H417 C414 0.929 . S
S418 N419 1.613 . S
S418 N420 1.610 . S
N419 S418 1.613 . S
N419 C422 1.350 . S
N420 S418 1.610 . S
N420 C421 1.351 . S
C421 C415 1.428 . S
C421 N420 1.351 . S
C421 C422 1.434 . S
C422 C413 1.429 . S
C422 N419 1.350 . S
C422 C421 1.434 . S
C423 C424 1.369 . S
C423 C425 1.419 . S
C423 H427 0.930 . S
C424 C423 1.369 . S
C424 C433 1.429 . S
C425 C423 1.419 . S
C425 C426 1.363 . S
C425 H428 0.929 . S
C426 C425 1.363 . S
C426 C432 1.428 . S
H427 C423 0.930 . S
H428 C425 0.929 . S
S429 N430 1.613 . S
S429 N431 1.610 . S
N430 S429 1.613 . S
N430 C433 1.350 . S
N431 S429 1.610 . S
N431 C432 1.351 . S
C432 C426 1.428 . S
C432 N431 1.351 . S
C432 C433 1.434 . S
C433 C424 1.429 . S
C433 N430 1.350 . S
C433 C432 1.434 . S
C434 C435 1.369 . S
C434 C436 1.419 . S
C434 H438 0.930 . S
C435 C434 1.369 . S
C435 C444 1.429 . S
C436 C434 1.419 . S
C436 C437 1.363 . S
C436 H439 0.929 . S
C437 C436 1.363 . S
C437 C443 1.428 . S
H438 C434 0.930 . S
H439 C436 0.929 . S
S440 N441 1.613 . S
S440 N442 1.610 . S
N441 S440 1.613 . S
N441 C444 1.350 . S
N442 S440 1.610 . S
N442 C443 1.351 . S
C443 C437 1.428 . S
C443 N442 1.351 . S
C443 C444 1.434 . S
C444 C435 1.429 . S
C444 N441 1.350 . S
C444 C443 1.434 . S
C445 C446 1.369 . S
C445 C447 1.419 . S
C445 H449 0.930 . S
C446 C445 1.369 . S
C446 C455 1.429 . S
C447 C445 1.419 . S
C447 C448 1.363 . S
C447 H450 0.929 . S
C448 C447 1.363 . S
C448 C454 1.428 . S
H449 C445 0.930 . S
H450 C447 0.929 . S
S451 N452 1.613 . S
S451 N453 1.610 . S
N452 S451 1.613 . S
N452 C455 1.350 . S
N453 S451 1.610 . S
N453 C454 1.351 . S
C454 C448 1.428 . S
C454 N453 1.351 . S
C454 C455 1.434 . S
C455 C446 1.429 . S
C455 N452 1.350 . S
C455 C454 1.434 . S
C456 C457 1.369 . S
C456 C458 1.419 . S
C456 H460 0.930 1_455 S
C457 C456 1.369 . S
C457 C466 1.429 . S
C458 C456 1.419 . S
C458 C459 1.363 . S
C458 H461 0.929 . S
C459 C458 1.363 . S
C459 C465 1.428 . S
H460 C456 0.930 1_655 S
H461 C458 0.929 . S
S462 N463 1.613 . S
S462 N464 1.610 . S
N463 S462 1.613 . S
N463 C466 1.350 . S
N464 S462 1.610 . S
N464 C465 1.351 . S
C465 C459 1.428 . S
C465 N464 1.351 . S
C465 C466 1.434 . S
C466 C457 1.429 . S
C466 N463 1.350 . S
C466 C465 1.434 . S
C467 C468 1.369 . S
C467 C469 1.419 . S
C467 H471 0.926 1_455 S
C468 C467 1.369 . S
C468 C477 1.429 . S
C469 C467 1.419 . S
C469 C470 1.363 . S
C469 H472 0.929 . S
C470 C469 1.363 . S
C470 C476 1.428 1_545 S
H471 C467 0.926 1_655 S
H472 C469 0.929 . S
S473 N474 1.613 1_565 S
S473 N475 1.610 . S
N474 S473 1.613 1_545 S
N474 C477 1.350 . S
N475 S473 1.610 . S
N475 C476 1.351 . S
C476 C470 1.428 1_565 S
C476 N475 1.351 . S
C476 C477 1.434 1_565 S
C477 C468 1.429 . S
C477 N474 1.350 . S
C477 C476 1.434 1_545 S
C478 C479 1.369 . S
C478 C480 1.419 1_545 S
C478 H482 0.930 . S
C479 C478 1.369 . S
C479 C488 1.429 . S
C480 C478 1.419 1_565 S
C480 C481 1.363 1_565 S
C480 H483 0.929 . S
C481 C480 1.363 1_545 S
C481 C487 1.428 . S
H482 C478 0.930 . S
H483 C480 0.929 . S
S484 N485 1.613 . S
S484 N486 1.610 . S
N485 S484 1.613 . S
N485 C488 1.350 . S
N486 S484 1.610 . S
N486 C487 1.351 . S
C487 C481 1.428 . S
C487 N486 1.351 . S
C487 C488 1.434 . S
C488 C479 1.429 . S
C488 N485 1.350 . S
C488 C487 1.434 . S
C489 C490 1.369 . S
C489 C491 1.419 . S
C489 H493 0.930 . S
C490 C489 1.369 . S
C490 C499 1.429 . S
C491 C489 1.419 . S
C491 C492 1.363 . S
C491 H494 0.929 . S
C492 C491 1.363 . S
C492 C498 1.428 . S
H493 C489 0.930 . S
H494 C491 0.929 . S
S495 N496 1.613 . S
S495 N497 1.610 . S
N496 S495 1.613 . S
N496 C499 1.350 . S
N497 S495 1.610 . S
N497 C498 1.351 . S
C498 C492 1.428 . S
C498 N497 1.351 . S
C498 C499 1.434 . S
C499 C490 1.429 . S
C499 N496 1.350 . S
C499 C498 1.434 . S
C500 C501 1.369 . S
C500 C502 1.419 . S
C500 H504 0.930 1_655 S
C501 C500 1.369 . S
C501 C510 1.429 . S
C502 C500 1.419 . S
C502 C503 1.363 . S
C502 H505 0.929 . S
C503 C502 1.363 . S
C503 C509 1.428 . S
H504 C500 0.930 1_455 S
H505 C502 0.929 . S
S506 N507 1.613 . S
S506 N508 1.610 . S
N507 S506 1.613 . S
N507 C510 1.350 . S
N508 S506 1.610 . S
N508 C509 1.351 . S
C509 C503 1.428 . S
C509 N508 1.351 . S
C509 C510 1.434 . S
C510 C501 1.429 . S
C510 N507 1.350 . S
C510 C509 1.434 . S
C511 C512 1.369 . S
C511 C513 1.419 . S
C511 H515 0.930 1_655 S
C512 C511 1.369 . S
C512 C521 1.429 1_545 S
C513 C511 1.419 . S
C513 C514 1.363 . S
C513 H516 0.929 . S
C514 C513 1.363 . S
C514 C520 1.428 . S
H515 C511 0.930 1_455 S
H516 C513 0.929 . S
S517 N518 1.613 . S
S517 N519 1.618 . S
N518 S517 1.613 . S
N518 C521 1.350 . S
N519 S517 1.618 . S
N519 C520 1.347 1_565 S
C520 C514 1.428 . S
C520 N519 1.347 1_545 S
C520 C521 1.434 1_545 S
C521 C512 1.429 1_565 S
C521 N518 1.350 . S
C521 C520 1.434 1_565 S
C522 C523 1.369 . S
C522 C524 1.419 . S
C522 H526 0.930 . S
C523 C522 1.369 . S
C523 C532 1.429 . S
C524 C522 1.419 . S
C524 C525 1.363 . S
C524 H527 0.929 . S
C525 C524 1.363 . S
C525 C531 1.428 1_545 S
H526 C522 0.930 . S
H527 C524 0.929 . S
S528 N529 1.617 . S
S528 N530 1.610 . S
N529 S528 1.617 . S
N529 C532 1.348 1_565 S
N530 S528 1.610 . S
N530 C531 1.351 . S
C531 C525 1.428 1_565 S
C531 N530 1.351 . S
C531 C532 1.434 1_565 S
C532 C523 1.429 . S
C532 N529 1.348 1_545 S
C532 C531 1.434 1_545 S
C533 C534 1.369 . S
C533 C535 1.419 . S
C533 H537 0.930 . S
C534 C533 1.369 . S
C534 C543 1.429 . S
C535 C533 1.419 . S
C535 C536 1.363 . S
C535 H538 0.929 . S
C536 C535 1.363 . S
C536 C542 1.428 . S
H537 C533 0.930 . S
H538 C535 0.929 . S
S539 N540 1.613 . S
S539 N541 1.610 . S
N540 S539 1.613 . S
N540 C543 1.350 . S
N541 S539 1.610 . S
N541 C542 1.351 . S
C542 C536 1.428 . S
C542 N541 1.351 . S
C542 C543 1.434 . S
C543 C534 1.429 . S
C543 N540 1.350 . S
C543 C542 1.434 . S
C544 C545 1.369 . S
C544 C546 1.419 . S
C544 H548 0.930 . S
C545 C544 1.369 . S
C545 C554 1.429 . S
C546 C544 1.419 . S
C546 C547 1.363 . S
C546 H549 0.929 . S
C547 C546 1.363 . S
C547 C553 1.428 . S
H548 C544 0.930 . S
H549 C546 0.929 . S
S550 N551 1.613 . S
S550 N552 1.610 . S
N551 S550 1.613 . S
N551 C554 1.350 . S
N552 S550 1.610 . S
N552 C553 1.351 . S
C553 C547 1.428 . S
C553 N552 1.351 . S
C553 C554 1.434 . S
C554 C545 1.429 . S
C554 N551 1.350 . S
C554 C553 1.434 . S
C555 C556 1.369 . S
C555 C557 1.419 . S
C555 H559 0.930 . S
C556 C555 1.369 . S
C556 C565 1.429 . S
C557 C555 1.419 . S
C557 C558 1.363 . S
C557 H560 0.929 . S
C558 C557 1.363 . S
C558 C564 1.428 . S
H559 C555 0.930 . S
H560 C557 0.929 . S
S561 N562 1.613 . S
S561 N563 1.610 . S
N562 S561 1.613 . S
N562 C565 1.350 . S
N563 S561 1.610 . S
N563 C564 1.351 . S
C564 C558 1.428 . S
C564 N563 1.351 . S
C564 C565 1.434 . S
C565 C556 1.429 . S
C565 N562 1.350 . S
C565 C564 1.434 . S
C566 C567 1.369 . S
C566 C568 1.419 . S
C566 H570 0.930 . S
C567 C566 1.369 . S
C567 C576 1.429 . S
C568 C566 1.419 . S
C568 C569 1.363 . S
C568 H571 0.929 . S
C569 C568 1.363 . S
C569 C575 1.428 . S
H570 C566 0.930 . S
H571 C568 0.929 . S
S572 N573 1.613 . S
S572 N574 1.610 . S
N573 S572 1.613 . S
N573 C576 1.350 . S
N574 S572 1.610 . S
N574 C575 1.351 . S
C575 C569 1.428 . S
C575 N574 1.351 . S
C575 C576 1.434 . S
C576 C567 1.429 . S
C576 N573 1.350 . S
C576 C575 1.434 . S
C577 C578 1.369 . S
C577 C579 1.419 . S
C577 H581 0.930 . S
C578 C577 1.369 . S
C578 C587 1.429 . S
C579 C577 1.419 . S
C579 C580 1.363 . S
C579 H582 0.929 . S
C580 C579 1.363 . S
C580 C586 1.428 . S
H581 C577 0.930 . S
H582 C579 0.929 . S
S583 N584 1.613 . S
S583 N585 1.610 . S
N584 S583 1.613 . S
N584 C587 1.350 . S
N585 S583 1.610 . S
N585 C586 1.351 . S
C586 C580 1.428 . S
C586 N585 1.351 . S
C586 C587 1.434 . S
C587 C578 1.429 . S
C587 N584 1.350 . S
C587 C586 1.434 . S
C588 C589 1.369 . S
C588 C590 1.419 . S
C588 H592 0.930 . S
C589 C588 1.369 . S
C589 C598 1.429 . S
C590 C588 1.419 . S
C590 C591 1.363 . S
C590 H593 0.929 . S
C591 C590 1.363 . S
C591 C597 1.428 . S
H592 C588 0.930 . S
H593 C590 0.929 . S
S594 N595 1.613 . S
S594 N596 1.610 . S
N595 S594 1.613 . S
N595 C598 1.350 . S
N596 S594 1.610 . S
N596 C597 1.351 . S
C597 C591 1.428 . S
C597 N596 1.351 . S
C597 C598 1.434 . S
C598 C589 1.429 . S
C598 N595 1.350 . S
C598 C597 1.434 . S
C599 C600 1.369 . S
C599 C601 1.419 . S
C599 H603 0.930 . S
C600 C599 1.369 . S
C600 C609 1.429 . S
C601 C599 1.419 . S
C601 C602 1.363 . S
C601 H604 0.929 . S
C602 C601 1.363 . S
C602 C608 1.428 . S
H603 C599 0.930 . S
H604 C601 0.929 . S
S605 N606 1.613 . S
S605 N607 1.610 . S
N606 S605 1.613 . S
N606 C609 1.350 . S
N607 S605 1.610 . S
N607 C608 1.351 . S
C608 C602 1.428 . S
C608 N607 1.351 . S
C608 C609 1.434 . S
C609 C600 1.429 . S
C609 N606 1.350 . S
C609 C608 1.434 . S
C610 C611 1.369 . S
C610 C612 1.419 . S
C610 H614 0.930 . S
C611 C610 1.369 . S
C611 C620 1.429 . S
C612 C610 1.419 . S
C612 C613 1.363 . S
C612 H615 0.929 . S
C613 C612 1.363 . S
C613 C619 1.428 . S
H614 C610 0.930 . S
H615 C612 0.929 . S
S616 N617 1.613 . S
S616 N618 1.610 . S
N617 S616 1.613 . S
N617 C620 1.350 . S
N618 S616 1.610 . S
N618 C619 1.351 . S
C619 C613 1.428 . S
C619 N618 1.351 . S
C619 C620 1.434 . S
C620 C611 1.429 . S
C620 N617 1.350 . S
C620 C619 1.434 . S
C621 C622 1.369 . S
C621 C623 1.419 . S
C621 H625 0.930 . S
C622 C621 1.369 . S
C622 C631 1.429 . S
C623 C621 1.419 . S
C623 C624 1.363 . S
C623 H626 0.929 . S
C624 C623 1.363 . S
C624 C630 1.428 . S
H625 C621 0.930 . S
H626 C623 0.929 . S
S627 N628 1.613 . S
S627 N629 1.610 . S
N628 S627 1.613 . S
N628 C631 1.350 . S
N629 S627 1.610 . S
N629 C630 1.351 . S
C630 C624 1.428 . S
C630 N629 1.351 . S
C630 C631 1.434 . S
C631 C622 1.429 . S
C631 N628 1.350 . S
C631 C630 1.434 . S
C632 C633 1.369 1_556 S
C632 C634 1.419 1_455 S
C632 H636 0.930 . S
C633 C632 1.369 1_554 S
C633 C642 1.429 . S
C634 C632 1.419 1_655 S
C634 C635 1.363 1_556 S
C634 H637 0.929 . S
C635 C634 1.363 1_554 S
C635 C641 1.428 . S
H636 C632 0.930 . S
H637 C634 0.929 . S
S638 N639 1.613 1_655 S
S638 N640 1.610 . S
N639 S638 1.613 1_455 S
N639 C642 1.350 . S
N640 S638 1.610 . S
N640 C641 1.351 . S
C641 C635 1.428 . S
C641 N640 1.351 . S
C641 C642 1.434 1_655 S
C642 C633 1.429 . S
C642 N639 1.350 . S
C642 C641 1.434 1_455 S
C643 C644 1.369 1_645 S
C643 C645 1.419 . S
C643 H647 0.930 . S
C644 C643 1.369 1_465 S
C644 C653 1.429 . S
C645 C643 1.419 . S
C645 C646 1.363 1_655 S
C645 H648 0.929 . S
C646 C645 1.363 1_455 S
C646 C652 1.433 . S
H647 C643 0.930 . S
H648 C645 0.929 . S
S649 N650 1.613 1_554 S
S649 N651 1.610 1_565 S
N650 S649 1.613 1_556 S
N650 C653 1.350 . S
N651 S649 1.610 1_545 S
N651 C652 1.331 1_554 S
C652 C646 1.433 . S
C652 N651 1.331 1_556 S
C652 C653 1.449 1_545 S
C653 C644 1.429 . S
C653 N650 1.350 . S
C653 C652 1.449 1_565 S
C654 C655 1.369 . S
C654 C656 1.419 . S
C654 H658 0.930 . S
C655 C654 1.369 . S
C655 C664 1.429 1_544 S
C656 C654 1.419 . S
C656 C657 1.382 . S
C656 H659 0.929 . S
C657 C656 1.382 . S
C657 C663 1.426 1_554 S
H658 C654 0.930 . S
H659 C656 0.929 . S
S660 N661 1.613 . S
S660 N662 1.610 . S
N661 S660 1.613 . S
N661 C664 1.350 . S
N662 S660 1.610 . S
N662 C663 1.345 1_565 S
C663 C657 1.426 1_556 S
C663 N662 1.345 1_545 S
C663 C664 1.430 1_545 S
C664 C655 1.429 1_566 S
C664 N661 1.350 . S
C664 C663 1.430 1_565 S
C665 C666 1.369 . S
C665 C667 1.419 . S
C665 H669 0.930 . S
C666 C665 1.369 . S
C666 C675 1.429 . S
C667 C665 1.419 . S
C667 C668 1.363 . S
C667 H670 0.929 . S
C668 C667 1.363 . S
C668 C674 1.426 1_556 S
H669 C665 0.930 . S
H670 C667 0.929 . S
S671 N672 1.613 1_554 S
S671 N673 1.610 . S
N672 S671 1.613 1_556 S
N672 C675 1.350 . S
N673 S671 1.610 . S
N673 C674 1.360 . S
C674 C668 1.426 1_554 S
C674 N673 1.360 . S
C674 C675 1.427 1_554 S
C675 C666 1.429 . S
C675 N672 1.350 . S
C675 C674 1.427 1_556 S
C676 C677 1.369 . S
C676 C678 1.419 1_455 S
C676 H680 0.930 . S
C677 C676 1.369 . S
C677 C686 1.414 1_445 S
C678 C676 1.419 1_655 S
C678 C679 1.363 . S
C678 H681 0.929 . S
C679 C678 1.363 . S
C679 C685 1.428 1_545 S
H680 C676 0.930 . S
H681 C678 0.929 . S
S682 N683 1.613 . S
S682 N684 1.610 . S
N683 S682 1.613 . S
N683 C686 1.350 . S
N684 S682 1.610 . S
N684 C685 1.351 . S
C685 C679 1.428 1_565 S
C685 N684 1.351 . S
C685 C686 1.451 . S
C686 C677 1.414 1_665 S
C686 N683 1.350 . S
C686 C685 1.451 . S
C687 C688 1.369 . S
C687 C689 1.419 . S
C687 H691 0.930 . S
C688 C687 1.369 . S
C688 C697 1.429 . S
C689 C687 1.419 . S
C689 C690 1.363 1_545 S
C689 H692 0.929 . S
C690 C689 1.363 1_565 S
C690 C696 1.428 . S
H691 C687 0.930 . S
H692 C689 0.929 . S
S693 N694 1.613 1_565 S
S693 N695 1.610 . S
N694 S693 1.613 1_545 S
N694 C697 1.350 . S
N695 S693 1.610 . S
N695 C696 1.351 . S
C696 C690 1.428 . S
C696 N695 1.351 . S
C696 C697 1.434 1_565 S
C697 C688 1.429 . S
C697 N694 1.350 . S
C697 C696 1.434 1_545 S
C698 C699 1.369 . S
C698 C700 1.419 . S
C698 H702 0.930 . S
C699 C698 1.369 . S
C699 C708 1.429 . S
C700 C698 1.419 . S
C700 C701 1.363 . S
C700 H703 0.929 . S
C701 C700 1.363 . S
C701 C707 1.428 . S
H702 C698 0.930 . S
H703 C700 0.929 . S
S704 N705 1.613 . S
S704 N706 1.610 . S
N705 S704 1.613 . S
N705 C708 1.350 . S
N706 S704 1.610 . S
N706 C707 1.351 . S
C707 C701 1.428 . S
C707 N706 1.351 . S
C707 C708 1.434 . S
C708 C699 1.429 . S
C708 N705 1.350 . S
C708 C707 1.434 . S
C709 C710 1.369 . S
C709 C711 1.419 . S
C709 H713 0.930 . S
C710 C709 1.369 . S
C710 C719 1.429 1_455 S
C711 C709 1.419 . S
C711 C712 1.363 . S
C711 H714 0.929 . S
C712 C711 1.363 . S
C712 C718 1.428 1_455 S
H713 C709 0.930 . S
H714 C711 0.929 . S
S715 N716 1.613 . S
S715 N717 1.610 . S
N716 S715 1.613 . S
N716 C719 1.350 . S
N717 S715 1.610 . S
N717 C718 1.351 . S
C718 C712 1.428 1_655 S
C718 N717 1.351 . S
C718 C719 1.434 . S
C719 C710 1.429 1_655 S
C719 N716 1.350 . S
C719 C718 1.434 . S
C369 C16 2.067 . S
C371 C62 2.065 . S
C380 C39 2.161 . S
C382 C85 2.162 . S
C391 C108 2.070 . S
C393 C154 2.069 . S
C402 C177 2.164 . S
C404 C131 2.164 . S
C413 C200 1.580 . S
C415 C246 1.587 . S
C424 N265 1.361 . S
C426 N219 1.362 . S
C435 C338 1.587 . S
C437 C292 1.586 . S
C446 N357 1.362 . S
C448 N311 1.361 . S
C457 C168 2.285 1_455 S
C459 C7 2.308 . S
C468 C30 2.286 1_455 S
C470 C99 2.306 1_545 S
C479 C122 2.281 . S
C481 C53 2.310 1_545 S
C490 C76 2.287 . S
C492 C145 2.306 . S
C501 N347 1.538 . S
C503 C191 1.686 . S
C512 N209 1.533 1_545 S
C514 C283 1.689 . S
C523 C237 1.692 . S
C525 N301 1.530 1_545 S
C534 C329 1.690 . S
C536 N255 1.532 . S
C545 N2 1.128 . S
C547 N94 1.122 . S
C556 N25 0.920 . S
C558 N117 0.928 . S
C567 N140 1.137 . S
C569 N48 1.128 . S
C578 N71 0.932 . S
C580 N163 0.934 . S
C589 N278 1.125 . S
C591 N186 1.121 . S
C600 C306 1.344 . S
C602 C214 1.339 . S
C611 N232 1.132 . S
C613 N324 1.130 . S
C622 C260 1.342 . S
C624 C352 1.342 . S
C633 N12 2.242 . S
C635 N196 2.256 1_554 S
C644 C223 1.961 . S
C646 N35 2.098 1_556 S
C655 N58 2.240 1_545 S
C657 N242 2.249 1_554 S
C666 C269 1.961 . S
C668 N81 2.097 1_556 S
C677 N104 2.241 1_545 S
C679 N288 2.257 . S
C688 N127 2.095 . S
C690 C315 1.964 . S
C699 N334 2.252 . S
C701 N150 2.245 . S
C710 N173 2.093 . S
C712 C361 1.965 . S
