# Generated by pormake.
# Topology vbn, (6)-cn, num edge types: 1
# Building blocks:
#     Node 0, Type 0, BuildingBlock: IZENUY_clean_sbu_0, # of connection points: 6
#     Node 1, Type 0, BuildingBlock: IZENUY_clean_sbu_0, # of connection points: 6
#     Node 2, Type 0, BuildingBlock: IZENUY_clean_sbu_0, # of connection points: 6
#     Node 3, Type 0, BuildingBlock: IZENUY_clean_sbu_0, # of connection points: 6
#     Node 4, Type 0, BuildingBlock: IZENUY_clean_sbu_0, # of connection points: 6
#     Node 5, Type 0, BuildingBlock: IZENUY_clean_sbu_0, # of connection points: 6
#     Node 6, Type 0, BuildingBlock: IZENUY_clean_sbu_0, # of connection points: 6
#     Node 7, Type 0, BuildingBlock: IZENUY_clean_sbu_0, # of connection points: 6
#     Edge 8, Type (0, 0), BuildingBlock: TEMPAE_clean_linker_10, # of connection points: 2
#     Edge 9, Type (0, 0), BuildingBlock: TEMPAE_clean_linker_10, # of connection points: 2
#     Edge 10, Type (0, 0), BuildingBlock: TEMPAE_clean_linker_10, # of connection points: 2
#     Edge 11, Type (0, 0), BuildingBlock: TEMPAE_clean_linker_10, # of connection points: 2
#     Edge 12, Type (0, 0), BuildingBlock: TEMPAE_clean_linker_10, # of connection points: 2
#     Edge 13, Type (0, 0), BuildingBlock: TEMPAE_clean_linker_10, # of connection points: 2
#     Edge 14, Type (0, 0), BuildingBlock: TEMPAE_clean_linker_10, # of connection points: 2
#     Edge 15, Type (0, 0), BuildingBlock: TEMPAE_clean_linker_10, # of connection points: 2
#     Edge 16, Type (0, 0), BuildingBlock: TEMPAE_clean_linker_10, # of connection points: 2
#     Edge 17, Type (0, 0), BuildingBlock: TEMPAE_clean_linker_10, # of connection points: 2
#     Edge 18, Type (0, 0), BuildingBlock: TEMPAE_clean_linker_10, # of connection points: 2
#     Edge 19, Type (0, 0), BuildingBlock: TEMPAE_clean_linker_10, # of connection points: 2
#     Edge 20, Type (0, 0), BuildingBlock: TEMPAE_clean_linker_10, # of connection points: 2
#     Edge 21, Type (0, 0), BuildingBlock: TEMPAE_clean_linker_10, # of connection points: 2
#     Edge 22, Type (0, 0), BuildingBlock: TEMPAE_clean_linker_10, # of connection points: 2
#     Edge 23, Type (0, 0), BuildingBlock: TEMPAE_clean_linker_10, # of connection points: 2
#     Edge 24, Type (0, 0), BuildingBlock: TEMPAE_clean_linker_10, # of connection points: 2
#     Edge 25, Type (0, 0), BuildingBlock: TEMPAE_clean_linker_10, # of connection points: 2
#     Edge 26, Type (0, 0), BuildingBlock: TEMPAE_clean_linker_10, # of connection points: 2
#     Edge 27, Type (0, 0), BuildingBlock: TEMPAE_clean_linker_10, # of connection points: 2
#     Edge 28, Type (0, 0), BuildingBlock: TEMPAE_clean_linker_10, # of connection points: 2
#     Edge 29, Type (0, 0), BuildingBlock: TEMPAE_clean_linker_10, # of connection points: 2
#     Edge 30, Type (0, 0), BuildingBlock: TEMPAE_clean_linker_10, # of connection points: 2
#     Edge 31, Type (0, 0), BuildingBlock: TEMPAE_clean_linker_10, # of connection points: 2
# Relax obj value: 0.241
# Max RMSD: 0.242
# Mean RMSD: 0.242
data_MOF--net-vbn--node1-IZENUY_clean_sbu_0--edge1-TEMPAE_clean_linker_10
_symmetry_space_group_name_H-M    P1
_symmetry_Int_Tables_number       1
_symmetry_cell_setting            triclinic
loop_
_symmetry_equiv_pos_as_xyz
'x, y, z'
_cell_length_a     25.784241
_cell_length_b     28.337271
_cell_length_c     46.684085
_cell_angle_alpha  90.089838
_cell_angle_beta   89.991457
_cell_angle_gamma 90.303233
loop_
_atom_site_label
_atom_site_type_symbol
_atom_site_fract_x
_atom_site_fract_y
_atom_site_fract_z
_atom_type_partial_charge
Fe0 Fe 0.43486 0.35527 0.40543 0.0
Fe1 Fe 0.39365 0.28652 0.45002 0.0
O2 O 0.38832 0.31316 0.41621 0.0
Fe3 Fe 0.33631 0.29838 0.39324 0.0
O4 O 0.31339 0.35814 0.39408 0.0
O5 O 0.38863 0.39015 0.38379 0.0
O6 O 0.41751 0.39349 0.4344 0.0
C7 C 0.42146 0.38246 0.4603 0.0
C8 C 0.42343 0.30622 0.35599 0.0
O9 O 0.42311 0.33929 0.46774 0.0
C10 C 0.35833 0.21156 0.41354 0.0
O11 O 0.48909 0.32911 0.42633 0.0
O12 O 0.45577 0.26226 0.44085 0.0
O13 O 0.37448 0.30792 0.35977 0.0
O14 O 0.45408 0.31876 0.37561 0.0
C15 C 0.28994 0.2991 0.44894 0.0
O16 O 0.36461 0.2295 0.43834 0.0
O17 O 0.35632 0.23763 0.39174 0.0
C18 C 0.49474 0.28838 0.43732 0.0
O19 O 0.33213 0.30949 0.46087 0.0
O20 O 0.28925 0.28614 0.42278 0.0
C21 C 0.34006 0.39397 0.38792 0.0
Fe22 Fe 0.17927 0.21292 0.89914 0.0
Fe23 Fe 0.07084 0.17351 0.91332 0.0
O24 O 0.1256 0.2087 0.92286 0.0
Fe25 Fe 0.1262 0.23702 0.9568 0.0
O26 O 0.19497 0.23188 0.96293 0.0
O27 O 0.22596 0.19265 0.92612 0.0
O28 O 0.17451 0.15116 0.8874 0.0
C29 C 0.15388 0.11633 0.9002 0.0
C30 C 0.16873 0.30594 0.92156 0.0
O31 O 0.11112 0.12083 0.91319 0.0
C32 C 0.02282 0.24954 0.93671 0.0
O33 O 0.13792 0.23421 0.86979 0.0
O34 O 0.07804 0.18004 0.87482 0.0
O35 O 0.13548 0.29545 0.94066 0.0
O36 O 0.19252 0.27454 0.90751 0.0
C37 C 0.08264 0.15061 0.96967 0.0
O38 O 0.02785 0.22469 0.91415 0.0
O39 O 0.05657 0.24828 0.95647 0.0
C40 C 0.09884 0.21222 0.86023 0.0
O41 O 0.0523 0.15989 0.94962 0.0
O42 O 0.11894 0.17936 0.97534 0.0
C43 C 0.22974 0.2072 0.95165 0.0
Fe44 Fe 0.93309 0.17174 0.61788 0.0
Fe45 Fe 0.89197 0.23994 0.5733 0.0
O46 O 0.88728 0.21419 0.60743 0.0
Fe47 Fe 0.83662 0.2301 0.63092 0.0
O48 O 0.81235 0.17039 0.63131 0.0
O49 O 0.88735 0.13796 0.64053 0.0
O50 O 0.91343 0.13318 0.58941 0.0
C51 C 0.91782 0.14362 0.56344 0.0
C52 C 0.92568 0.22212 0.66714 0.0
O53 O 0.92023 0.18668 0.55577 0.0
C54 C 0.85879 0.31612 0.60925 0.0
O55 O 0.98702 0.19714 0.59624 0.0
O56 O 0.95482 0.26417 0.58161 0.0
O57 O 0.87642 0.222 0.66405 0.0
O58 O 0.95448 0.20835 0.64705 0.0
C59 C 0.78817 0.22767 0.57562 0.0
O60 O 0.86397 0.29743 0.58459 0.0
O61 O 0.85777 0.2907 0.63132 0.0
C62 C 0.99336 0.23789 0.58532 0.0
O63 O 0.82983 0.2168 0.56339 0.0
O64 O 0.78849 0.24132 0.60169 0.0
C65 C 0.83857 0.13448 0.63734 0.0
Fe66 Fe 0.57896 0.34082 0.11433 0.0
Fe67 Fe 0.62186 0.27404 0.0691 0.0
O68 O 0.62808 0.30272 0.10246 0.0
Fe69 Fe 0.6835 0.2937 0.12377 0.0
O70 O 0.70056 0.35493 0.12195 0.0
O71 O 0.62364 0.38144 0.13375 0.0
O72 O 0.58919 0.37849 0.08412 0.0
C73 C 0.57986 0.3656 0.05896 0.0
C74 C 0.60039 0.2962 0.16411 0.0
O75 O 0.58378 0.32234 0.052 0.0
C76 C 0.66824 0.2046 0.10516 0.0
O77 O 0.52555 0.3079 0.09609 0.0
O78 O 0.56398 0.24388 0.08085 0.0
O79 O 0.64851 0.30112 0.15851 0.0
O80 O 0.56674 0.30479 0.14537 0.0
C81 C 0.72333 0.29818 0.06665 0.0
O82 O 0.65868 0.22074 0.08026 0.0
O83 O 0.66938 0.2318 0.12645 0.0
C84 C 0.52293 0.26609 0.08605 0.0
O85 O 0.67908 0.30292 0.05575 0.0
O86 O 0.72807 0.28504 0.09265 0.0
C87 C 0.67181 0.38841 0.12937 0.0
Fe88 Fe 0.58951 0.67086 0.61747 0.0
Fe89 Fe 0.62677 0.74448 0.57474 0.0
O90 O 0.63452 0.71489 0.60764 0.0
Fe91 Fe 0.68755 0.72852 0.63009 0.0
O92 O 0.71112 0.66897 0.62798 0.0
O93 O 0.63689 0.63411 0.63688 0.0
O94 O 0.60588 0.63662 0.58643 0.0
C95 C 0.5954 0.65019 0.56159 0.0
C96 C 0.60227 0.71472 0.66861 0.0
O97 O 0.59442 0.69406 0.55605 0.0
C98 C 0.66565 0.81664 0.61208 0.0
O99 O 0.53388 0.69952 0.5992 0.0
O100 O 0.56561 0.76817 0.5864 0.0
O101 O 0.65096 0.71753 0.66394 0.0
O102 O 0.57135 0.70249 0.64912 0.0
C103 C 0.73019 0.7296 0.57352 0.0
O104 O 0.65783 0.80028 0.58705 0.0
O105 O 0.66765 0.78916 0.63317 0.0
C106 C 0.52705 0.74149 0.59027 0.0
O107 O 0.68704 0.72176 0.56185 0.0
O108 O 0.73275 0.74162 0.59985 0.0
C109 C 0.68558 0.63211 0.63319 0.0
Fe110 Fe 0.93212 0.8478 0.11577 0.0
Fe111 Fe 0.88602 0.77734 0.07384 0.0
O112 O 0.88379 0.80606 0.10721 0.0
Fe113 Fe 0.8332 0.79364 0.13153 0.0
O114 O 0.81227 0.8539 0.13085 0.0
O115 O 0.88898 0.8857 0.13731 0.0
O116 O 0.91383 0.88396 0.08595 0.0
C117 C 0.91984 0.87071 0.0606 0.0
C118 C 0.92366 0.80337 0.16687 0.0
O119 O 0.91896 0.82693 0.05462 0.0
C120 C 0.84784 0.70559 0.11155 0.0
O121 O 0.98396 0.81744 0.09508 0.0
O122 O 0.94672 0.75063 0.08315 0.0
O123 O 0.87438 0.80253 0.16409 0.0
O124 O 0.95235 0.81409 0.14609 0.0
C125 C 0.78357 0.79573 0.07661 0.0
O126 O 0.85353 0.72262 0.08655 0.0
O127 O 0.85063 0.7322 0.1331 0.0
C128 C 0.98717 0.77526 0.08575 0.0
O129 O 0.8255 0.80307 0.0635 0.0
O130 O 0.78385 0.78298 0.10285 0.0
C131 C 0.84015 0.88969 0.1351 0.0
Fe132 Fe 0.09004 0.85422 0.41005 0.0
Fe133 Fe 0.12778 0.78177 0.4531 0.0
O134 O 0.13511 0.81081 0.41997 0.0
Fe135 Fe 0.18771 0.79724 0.39733 0.0
O136 O 0.21145 0.85702 0.39883 0.0
O137 O 0.13703 0.89091 0.39004 0.0
O138 O 0.10709 0.88921 0.44075 0.0
C139 C 0.09645 0.87611 0.46569 0.0
C140 C 0.10171 0.80945 0.35921 0.0
O141 O 0.09563 0.83233 0.47157 0.0
C142 C 0.16625 0.70933 0.41603 0.0
O143 O 0.03473 0.82547 0.42876 0.0
O144 O 0.0664 0.75728 0.44194 0.0
O145 O 0.15052 0.80721 0.36357 0.0
O146 O 0.07126 0.82171 0.37884 0.0
C147 C 0.23122 0.79723 0.4538 0.0
O148 O 0.15874 0.72596 0.44102 0.0
O149 O 0.16755 0.7365 0.39479 0.0
C150 C 0.02786 0.78356 0.43786 0.0
O151 O 0.18826 0.80531 0.46553 0.0
O152 O 0.2334 0.78502 0.42748 0.0
C153 C 0.18581 0.89342 0.39324 0.0
Fe154 Fe 0.38084 0.73177 0.95359 0.0
Fe155 Fe 0.33054 0.72043 0.89455 0.0
O156 O 0.3797 0.7058 0.91933 0.0
Fe157 Fe 0.4272 0.66395 0.91031 0.0
O158 O 0.4061 0.62569 0.93846 0.0
O159 O 0.40949 0.67963 0.97197 0.0
O160 O 0.31894 0.70664 0.96185 0.0
C161 C 0.27803 0.71497 0.94822 0.0
C162 C 0.48308 0.7325 0.94367 0.0
O163 O 0.27992 0.7299 0.9225 0.0
C164 C 0.42273 0.71258 0.86049 0.0
O165 O 0.35146 0.78827 0.94177 0.0
O166 O 0.34935 0.78185 0.89492 0.0
O167 O 0.47871 0.69132 0.93292 0.0
O168 O 0.44345 0.75771 0.94684 0.0
C169 C 0.33527 0.62439 0.88879 0.0
O170 O 0.37331 0.7133 0.86251 0.0
O171 O 0.45009 0.69996 0.8814 0.0
C172 C 0.34636 0.80697 0.91716 0.0
O173 O 0.30792 0.66016 0.89341 0.0
O174 O 0.3842 0.62853 0.88691 0.0
C175 C 0.40761 0.63652 0.96444 0.0
C176 C 0.26757 0.94114 0.39493 0.0
C177 C 0.21328 0.93956 0.39236 0.0
C178 C 0.29421 0.98413 0.39793 0.0
C179 C 0.26601 0.02678 0.3983 0.0
C180 C 0.21139 0.02567 0.39485 0.0
C181 C 0.18564 0.98206 0.39192 0.0
C182 C 0.35244 0.9838 0.40149 0.0
C183 C 0.18001 0.07051 0.395 0.0
C184 C 0.32469 0.13545 0.43402 0.0
C185 C 0.34128 0.16174 0.41026 0.0
C186 C 0.3009 0.09106 0.43049 0.0
C187 C 0.29366 0.07253 0.40254 0.0
C188 C 0.31222 0.09801 0.37859 0.0
C189 C 0.33588 0.14217 0.38273 0.0
C190 C 0.28197 0.06469 0.45658 0.0
C191 C 0.30554 0.07937 0.34848 0.0
H192 H 0.2894 0.90857 0.39533 0.0
H193 H 0.14373 0.98122 0.39016 0.0
H194 H 0.37097 1.0064 0.38498 0.0
H195 H 0.36301 0.99871 0.4227 0.0
H196 H 0.3688 0.94771 0.39981 0.0
H197 H 0.13812 0.06377 0.39109 0.0
H198 H 0.18432 0.08857 0.41597 0.0
H199 H 0.19468 0.09506 0.37833 0.0
H200 H 0.32844 0.15029 0.45534 0.0
H201 H 0.34879 0.16206 0.36422 0.0
H202 H 0.29831 0.02855 0.45687 0.0
H203 H 0.23913 0.06104 0.45575 0.0
H204 H 0.2927 0.08284 0.47686 0.0
H205 H 0.32251 0.0436 0.34663 0.0
H206 H 0.32404 0.10262 0.33224 0.0
H207 H 0.26363 0.07611 0.3434 0.0
C208 C 0.19928 0.36826 0.88807 0.0
C209 C 0.18423 0.35554 0.91593 0.0
C210 C 0.22192 0.41234 0.88229 0.0
C211 C 0.23058 0.44454 0.90499 0.0
C212 C 0.21398 0.43257 0.93308 0.0
C213 C 0.19052 0.38827 0.9382 0.0
C214 C 0.23794 0.42384 0.85196 0.0
C215 C 0.22292 0.46581 0.95789 0.0
C216 C 0.3381 0.53637 0.89533 0.0
C217 C 0.30969 0.57721 0.88918 0.0
C218 C 0.3129 0.493 0.90057 0.0
C219 C 0.25798 0.49022 0.89931 0.0
C220 C 0.22928 0.53096 0.89217 0.0
C221 C 0.25539 0.57385 0.88731 0.0
C222 C 0.3451 0.45027 0.90769 0.0
C223 C 0.17084 0.52948 0.89014 0.0
H224 H 0.19428 0.34309 0.87075 0.0
H225 H 0.17956 0.37837 0.9598 0.0
H226 H 0.22138 0.45819 0.84533 0.0
H227 H 0.28076 0.42723 0.85076 0.0
H228 H 0.22524 0.39634 0.83645 0.0
H229 H 0.20728 0.45164 0.97834 0.0
H230 H 0.26511 0.47246 0.96051 0.0
H231 H 0.20444 0.50032 0.95352 0.0
H232 H 0.37995 0.53863 0.89718 0.0
H233 H 0.23298 0.60518 0.88264 0.0
H234 H 0.3436 0.42496 0.88956 0.0
H235 H 0.32927 0.43187 0.92677 0.0
H236 H 0.38634 0.4596 0.91182 0.0
H237 H 0.1585 0.50212 0.8745 0.0
H238 H 0.15432 0.5639 0.8835 0.0
H239 H 0.15406 0.51964 0.91119 0.0
C240 C 0.68556 0.54332 0.63368 0.0
C241 C 0.71305 0.58615 0.63288 0.0
C242 C 0.71115 0.50003 0.62982 0.0
C243 C 0.76545 0.4996 0.62499 0.0
C244 C 0.79349 0.54259 0.62477 0.0
C245 C 0.76706 0.58521 0.62879 0.0
C246 C 0.67997 0.4548 0.63039 0.0
C247 C 0.85136 0.54369 0.61968 0.0
C248 C 0.83786 0.38592 0.6398 0.0
C249 C 0.84156 0.36579 0.61235 0.0
C250 C 0.81377 0.4296 0.64413 0.0
C251 C 0.7931 0.45415 0.62042 0.0
C252 C 0.79861 0.43512 0.59249 0.0
C253 C 0.82279 0.39113 0.58877 0.0
C254 C 0.80891 0.44869 0.67424 0.0
C255 C 0.77751 0.46054 0.56663 0.0
H256 H 0.64386 0.54364 0.63658 0.0
H257 H 0.78881 0.61803 0.62803 0.0
H258 H 0.68307 0.43659 0.60941 0.0
H259 H 0.69577 0.43061 0.64685 0.0
H260 H 0.63831 0.46103 0.63507 0.0
H261 H 0.86757 0.58007 0.62047 0.0
H262 H 0.87141 0.52197 0.63598 0.0
H263 H 0.86027 0.52818 0.59842 0.0
H264 H 0.85243 0.36678 0.65818 0.0
H265 H 0.82515 0.37581 0.56752 0.0
H266 H 0.76733 0.4516 0.68009 0.0
H267 H 0.82594 0.48466 0.67553 0.0
H268 H 0.82843 0.42594 0.69027 0.0
H269 H 0.73472 0.46331 0.56834 0.0
H270 H 0.78711 0.44221 0.54627 0.0
H271 H 0.79329 0.49701 0.56574 0.0
C272 C 0.69776 0.13983 0.13724 0.0
C273 C 0.68863 0.15622 0.10929 0.0
C274 C 0.7231 0.09706 0.14219 0.0
C275 C 0.7392 0.06938 0.11865 0.0
C276 C 0.7288 0.08479 0.09036 0.0
C277 C 0.70368 0.12817 0.08598 0.0
C278 C 0.73347 0.08193 0.17268 0.0
C279 C 0.74485 0.05575 0.06474 0.0
C280 C 0.84459 0.97804 0.13117 0.0
C281 C 0.8151 0.93664 0.1343 0.0
C282 C 0.82045 0.02162 0.12604 0.0
C283 C 0.76566 0.02368 0.12389 0.0
C284 C 0.73575 0.98221 0.12763 0.0
C285 C 0.76075 0.93937 0.13293 0.0
C286 C 0.85356 0.06529 0.12241 0.0
C287 C 0.67728 0.98288 0.12543 0.0
H288 H 0.6861 0.16104 0.15546 0.0
H289 H 0.69704 0.14061 0.06436 0.0
H290 H 0.71476 0.0473 0.1769 0.0
H291 H 0.77577 0.07746 0.176 0.0
H292 H 0.71888 0.10783 0.18861 0.0
H293 H 0.73296 0.07214 0.04418 0.0
H294 H 0.78758 0.05136 0.06463 0.0
H295 H 0.72739 0.01995 0.06608 0.0
H296 H 0.88655 0.9762 0.13183 0.0
H297 H 0.73751 0.90761 0.13523 0.0
H298 H 0.8415 0.0928 0.13795 0.0
H299 H 0.84799 0.08002 0.10063 0.0
H300 H 0.89548 0.05802 0.12553 0.0
H301 H 0.66096 1.0072 0.1417 0.0
H302 H 0.65973 0.94737 0.12857 0.0
H303 H 0.66551 0.99626 0.10409 0.0
C304 C 0.84061 0.04585 0.63574 0.0
C305 C 0.81214 0.08778 0.6378 0.0
C306 C 0.81547 1.00211 0.63182 0.0
C307 C 0.7606 1.00024 0.63001 0.0
C308 C 0.73168 0.04227 0.63283 0.0
C309 C 0.75773 0.0854 0.63671 0.0
C310 C 0.84767 0.958 0.62899 0.0
C311 C 0.67319 0.04188 0.63097 0.0
C312 C 0.69876 0.89406 0.59287 0.0
C313 C 0.68425 0.86592 0.61628 0.0
C314 C 0.72319 0.93809 0.597 0.0
C315 C 0.7333 0.95437 0.6252 0.0
C316 C 0.71729 0.92683 0.64887 0.0
C317 C 0.69286 0.88315 0.64414 0.0
C318 C 0.73932 0.96668 0.5712 0.0
C319 C 0.72719 0.94291 0.67925 0.0
H320 H 0.88262 0.04736 0.63617 0.0
H321 H 0.7353 0.11756 0.63816 0.0
H322 H 0.83654 0.93236 0.64587 0.0
H323 H 0.84006 0.94088 0.60801 0.0
H324 H 0.88991 0.96541 0.63075 0.0
H325 H 0.65635 0.07751 0.63416 0.0
H326 H 0.66086 0.02842 0.60969 0.0
H327 H 0.6567 0.01773 0.64732 0.0
H328 H 0.69258 0.88106 0.57128 0.0
H329 H 0.6817 0.86185 0.66242 0.0
H330 H 0.78207 0.97132 0.57105 0.0
H331 H 0.72201 1.0024 0.5723 0.0
H332 H 0.72738 0.94975 0.55073 0.0
H333 H 0.76953 0.94676 0.68288 0.0
H334 H 0.71132 0.91783 0.69533 0.0
H335 H 0.70954 0.97802 0.68291 0.0
C336 C 0.81341 0.64125 0.1431 0.0
C337 C 0.8255 0.65758 0.11546 0.0
C338 C 0.78653 0.59863 0.14726 0.0
C339 C 0.77173 0.57122 0.12325 0.0
C340 C 0.78468 0.58689 0.09532 0.0
C341 C 0.81133 0.62989 0.09175 0.0
C342 C 0.77354 0.58313 0.17738 0.0
C343 C 0.77009 0.55831 0.06918 0.0
C344 C 0.75012 0.43986 0.13285 0.0
C345 C 0.69579 0.43593 0.13187 0.0
C346 C 0.77507 0.48368 0.13058 0.0
C347 C 0.74511 0.52496 0.12742 0.0
C348 C 0.69017 0.52167 0.12763 0.0
C349 C 0.66607 0.47708 0.12986 0.0
C350 C 0.83367 0.48554 0.1305 0.0
C351 C 0.65696 0.56505 0.12451 0.0
H352 H 0.824 0.6623 0.16163 0.0
H353 H 0.82017 0.64223 0.07032 0.0
H354 H 0.73101 0.57822 0.17959 0.0
H355 H 0.79184 0.54861 0.18193 0.0
H356 H 0.78683 0.609 0.19375 0.0
H357 H 0.78264 0.57553 0.04895 0.0
H358 H 0.78804 0.52286 0.07036 0.0
H359 H 0.72745 0.55301 0.06845 0.0
H360 H 0.7735 0.40831 0.13455 0.0
H361 H 0.62417 0.47431 0.12885 0.0
H362 H 0.84783 0.51007 0.14734 0.0
H363 H 0.84767 0.49925 0.10962 0.0
H364 H 0.85125 0.45035 0.13416 0.0
H365 H 0.66814 0.59188 0.14074 0.0
H366 H 0.61498 0.55695 0.12689 0.0
H367 H 0.6634 0.58103 0.10311 0.0
C368 C 0.25985 0.4428 0.38999 0.0
C369 C 0.31421 0.44069 0.38824 0.0
C370 C 0.2342 0.48562 0.39467 0.0
C371 C 0.26343 0.52772 0.39751 0.0
C372 C 0.31824 0.52619 0.39508 0.0
C373 C 0.34302 0.48266 0.39045 0.0
C374 C 0.17578 0.4856 0.39722 0.0
C375 C 0.35072 0.57044 0.39779 0.0
C376 C 0.19392 0.64338 0.38394 0.0
C377 C 0.18564 0.66046 0.41185 0.0
C378 C 0.21922 0.60044 0.37904 0.0
C379 C 0.23633 0.57335 0.40259 0.0
C380 C 0.22665 0.58945 0.43086 0.0
C381 C 0.20146 0.63286 0.43517 0.0
C382 C 0.22866 0.58457 0.34858 0.0
C383 C 0.24381 0.56122 0.45654 0.0
H384 H 0.23713 0.4106 0.38842 0.0
H385 H 0.38499 0.48133 0.38951 0.0
H386 H 0.16427 0.49928 0.41857 0.0
H387 H 0.15875 0.50938 0.38093 0.0
H388 H 0.15872 0.44981 0.39441 0.0
H389 H 0.39293 0.56313 0.39632 0.0
H390 H 0.34011 0.59563 0.38061 0.0
H391 H 0.34282 0.58806 0.41856 0.0
H392 H 0.18178 0.66426 0.36572 0.0
H393 H 0.1956 0.6458 0.45679 0.0
H394 H 0.21066 0.54944 0.34492 0.0
H395 H 0.27091 0.58085 0.34476 0.0
H396 H 0.21277 0.60968 0.33261 0.0
H397 H 0.22644 0.52533 0.45573 0.0
H398 H 0.23268 0.57818 0.47709 0.0
H399 H 0.28655 0.55695 0.45617 0.0
C400 C 0.15746 0.02926 0.91071 0.0
C401 C 0.18204 0.07068 0.90121 0.0
C402 C 0.18526 0.98696 0.91388 0.0
C403 C 0.23914 0.98615 0.90776 0.0
C404 C 0.26415 0.0279 0.89831 0.0
C405 C 0.23531 0.06943 0.89494 0.0
C406 C 0.15692 0.94311 0.92372 0.0
C407 C 0.32163 0.02888 0.89207 0.0
C408 C 0.31917 0.88495 0.93832 0.0
C409 C 0.32396 0.85512 0.91444 0.0
C410 C 0.29243 0.92808 0.93641 0.0
C411 C 0.26906 0.94131 0.91014 0.0
C412 C 0.27447 0.91172 0.8859 0.0
C413 C 0.30222 0.86943 0.88825 0.0
C414 C 0.28854 0.95918 0.96259 0.0
C415 C 0.24966 0.92409 0.85759 0.0
H416 H 0.11644 0.02984 0.9157 0.0
H417 H 0.25496 0.10137 0.88807 0.0
H418 H 0.16076 0.91487 0.90737 0.0
H419 H 0.17446 0.92974 0.9438 0.0
H420 H 0.11503 0.94959 0.92759 0.0
H421 H 0.33562 0.06461 0.88592 0.0
H422 H 0.34357 0.01711 0.9112 0.0
H423 H 0.3307 1.00401 0.87443 0.0
H424 H 0.33566 0.87429 0.95865 0.0
H425 H 0.3052 0.8467 0.86963 0.0
H426 H 0.24739 0.9623 0.96923 0.0
H427 H 0.30272 0.99527 0.95757 0.0
H428 H 0.3112 0.94521 0.98092 0.0
H429 H 0.2071 0.9275 0.86036 0.0
H430 H 0.25722 0.89717 0.8408 0.0
H431 H 0.26448 0.95866 0.84994 0.0
C432 C 0.4194 0.46666 0.47407 0.0
C433 C 0.4372 0.42089 0.47972 0.0
C434 C 0.44266 0.50611 0.48686 0.0
C435 C 0.48474 0.49957 0.50582 0.0
C436 C 0.50115 0.45327 0.51281 0.0
C437 C 0.47701 0.41429 0.49966 0.0
C438 C 0.4237 0.5548 0.47905 0.0
C439 C 0.5456 0.445 0.53321 0.0
C440 C 0.58115 0.59989 0.51811 0.0
C441 C 0.5643 0.61689 0.5446 0.0
C442 C 0.55492 0.56204 0.50482 0.0
C443 C 0.51125 0.54126 0.51853 0.0
C444 C 0.49309 0.55993 0.54471 0.0
C445 C 0.5199 0.59744 0.55741 0.0
C446 C 0.57481 0.54329 0.47664 0.0
C447 C 0.44651 0.53919 0.55989 0.0
H448 H 0.38867 0.47172 0.45851 0.0
H449 H 0.49141 0.379 0.50362 0.0
H450 H 0.4143 0.57523 0.49864 0.0
H451 H 0.45479 0.57432 0.46759 0.0
H452 H 0.38877 0.55355 0.46514 0.0
H453 H 0.55219 0.40687 0.53726 0.0
H454 H 0.58172 0.46052 0.52427 0.0
H455 H 0.53803 0.46284 0.55396 0.0
H456 H 0.61578 0.6148 0.50847 0.0
H457 H 0.50711 0.6107 0.57802 0.0
H458 H 0.54316 0.54282 0.46054 0.0
H459 H 0.588 0.50636 0.47938 0.0
H460 H 0.6076 0.56467 0.46816 0.0
H461 H 0.41247 0.53853 0.54537 0.0
H462 H 0.4361 0.55933 0.57948 0.0
H463 H 0.45465 0.50216 0.56606 0.0
C464 C 0.99717 0.8971 0.03327 0.0
C465 C 0.94594 0.90512 0.04197 0.0
C466 C 0.02846 0.93442 0.02329 0.0
C467 C 1.00738 0.98038 0.02131 0.0
C468 C 0.95493 0.98806 0.02908 0.0
C469 C 0.92517 0.95047 0.03972 0.0
C470 C 0.08442 0.92504 0.0158 0.0
C471 C 0.93027 0.03611 0.02643 0.0
C472 C 0.08195 0.09624 0.01287 0.0
C473 C 0.07497 0.1041 0.98354 0.0
C474 C 0.06351 0.05405 0.02551 0.0
C475 C 0.03777 0.01967 1.00831 0.0
C476 C 0.03486 0.02609 0.97843 0.0
C477 C 0.05338 0.06795 0.96656 0.0
C478 C 0.06869 0.04752 0.05742 0.0
C479 C 1.00777 0.99082 0.95912 0.0
H480 H 0.01377 0.86233 0.03602 0.0
H481 H 0.88599 0.95677 0.04724 0.0
H482 H 0.09188 0.93381 0.99302 0.0
H483 H 0.11014 0.94797 0.02892 0.0
H484 H 0.09521 0.88766 0.01946 0.0
H485 H 0.88904 0.03603 0.03337 0.0
H486 H 0.95188 0.0622 0.03961 0.0
H487 H 0.93217 0.04822 1.00385 0.0
H488 H 0.09876 0.12386 0.02606 0.0
H489 H 0.04797 0.0734 0.94381 0.0
H490 H 0.08037 0.01083 0.06248 0.0
H491 H 0.03064 0.0538 0.0678 0.0
H492 H 0.0975 0.07238 0.06682 0.0
H493 H 0.0217 0.95455 0.96329 0.0
H494 H 0.01379 0.99878 0.93606 0.0
H495 H 0.96548 0.99125 0.96357 0.0
C496 C 0.97499 0.11155 0.52503 0.0
C497 C 0.93429 0.10492 0.54447 0.0
C498 C 0.99989 0.07259 0.51254 0.0
C499 C 0.98331 0.02622 0.51964 0.0
C500 C 0.9404 0.01959 0.53809 0.0
C501 C 0.91645 0.05903 0.55028 0.0
C502 C 0.04527 0.081 0.49272 0.0
C503 C 0.92119 0.97083 0.54599 0.0
C504 C 0.02076 0.92821 0.46884 0.0
C505 C 0.0647 0.90935 0.48222 0.0
C506 C 0.99332 0.96549 0.48111 0.0
C507 C 0.01035 0.98459 0.50745 0.0
C508 C 0.05352 0.9644 0.52174 0.0
C509 C 0.08039 0.92674 0.50887 0.0
C510 C 0.9473 0.98554 0.46531 0.0
C511 C 0.07223 0.98362 0.55009 0.0
H512 H 0.98949 0.14691 0.52098 0.0
H513 H 0.88511 0.05393 0.56549 0.0
H514 H 0.08091 0.06571 0.50216 0.0
H515 H 0.03848 0.06302 0.47191 0.0
H516 H 0.05225 0.11914 0.48868 0.0
H517 H 0.88566 0.97194 0.55944 0.0
H518 H 0.91268 0.94994 0.52642 0.0
H519 H 0.95182 0.95187 0.55798 0.0
H520 H 0.00879 0.91466 0.44812 0.0
H521 H 0.11464 0.9123 0.51899 0.0
H522 H 0.9556 0.02259 0.4591 0.0
H523 H 0.9127 0.98594 0.47943 0.0
H524 H 0.93769 0.96508 0.44568 0.0
H525 H 0.08554 0.02064 0.54737 0.0
H526 H 0.10465 0.96263 0.55906 0.0
H527 H 0.03992 0.98395 0.56579 0.0
C528 C 0.46147 0.60294 1.00365 0.0
C529 C 0.42088 0.59784 0.98399 0.0
C530 C 0.48452 0.56299 0.01598 0.0
C531 C 0.46624 0.51732 1.0084 0.0
C532 C 0.42283 0.5124 0.99014 0.0
C533 C 0.40075 0.55275 0.97813 0.0
C534 C 0.53005 0.56953 0.03596 0.0
C535 C 0.40167 0.46455 0.9817 0.0
C536 C 0.56215 0.41646 0.01631 0.0
C537 C 0.54679 0.39788 0.04268 0.0
C538 C 0.53522 0.45478 1.00435 0.0
C539 C 0.4927 0.47465 0.0194 0.0
C540 C 0.47574 0.45417 0.04532 0.0
C541 C 0.50286 0.41591 0.05654 0.0
C542 C 0.5533 0.47513 0.9762 0.0
C543 C 0.43028 0.47384 0.06182 0.0
H544 H 0.47757 0.63772 1.00779 0.0
H545 H 0.36946 0.54887 0.96274 0.0
H546 H 0.52311 0.55024 0.05628 0.0
H547 H 0.56543 0.55449 0.02604 0.0
H548 H 0.53755 0.6073 0.04098 0.0
H549 H 0.3621 0.46715 0.97249 0.0
H550 H 0.42753 0.44865 0.96536 0.0
H551 H 0.40024 0.44019 1.00025 0.0
H552 H 0.59639 0.40264 1.00582 0.0
H553 H 0.49106 0.40125 0.077 0.0
H554 H 0.56718 0.51188 0.97949 0.0
H555 H 0.52048 0.47649 0.96085 0.0
H556 H 0.58517 0.45424 0.96652 0.0
H557 H 0.43897 0.51061 0.06856 0.0
H558 H 0.42105 0.45267 0.0812 0.0
H559 H 0.39534 0.47495 0.04799 0.0
C560 C 0.599 0.3176 0.21616 0.0
C561 C 0.58147 0.28883 0.19371 0.0
C562 C 0.57338 0.31769 0.24284 0.0
C563 C 0.53015 0.28734 0.24735 0.0
C564 C 0.51441 0.25626 0.22518 0.0
C565 C 0.53963 0.25803 0.1985 0.0
C566 C 0.59081 0.3521 0.26564 0.0
C567 C 0.46982 0.2222 0.22928 0.0
C568 C 0.48927 0.26749 0.32493 0.0
C569 C 0.44603 0.29703 0.3274 0.0
C570 C 0.51584 0.26265 0.29879 0.0
C571 C 0.50009 0.28948 0.27477 0.0
C572 C 0.45597 0.31903 0.27712 0.0
C573 C 0.42895 0.32185 0.30331 0.0
C574 C 0.5613 0.22942 0.29703 0.0
C575 C 0.43854 0.34912 0.25231 0.0
H576 H 0.63065 0.34211 0.21229 0.0
H577 H 0.52585 0.23597 0.18105 0.0
H578 H 0.55914 0.3774 0.27022 0.0
H579 H 0.59928 0.33319 0.28587 0.0
H580 H 0.62592 0.3723 0.25915 0.0
H581 H 0.46597 0.19708 0.2111 0.0
H582 H 0.47505 0.20181 0.24934 0.0
H583 H 0.43303 0.24203 0.23134 0.0
H584 H 0.50259 0.24841 0.34364 0.0
H585 H 0.39611 0.34536 0.30536 0.0
H586 H 0.59755 0.24975 0.29334 0.0
H587 H 0.55637 0.20497 0.27862 0.0
H588 H 0.56594 0.20827 0.31687 0.0
H589 H 0.47039 0.37339 0.24588 0.0
H590 H 0.40378 0.37042 0.25761 0.0
H591 H 0.42942 0.32657 0.23352 0.0
C592 C 0.07653 0.2651 0.81849 0.0
C593 C 0.07817 0.22013 0.83093 0.0
C594 C 0.05076 0.27239 0.79215 0.0
C595 C 0.02702 0.23366 0.77781 0.0
C596 C 0.02991 0.18811 0.79008 0.0
C597 C 0.05499 0.18205 0.81643 0.0
C598 C 0.04803 0.32155 0.77994 0.0
C599 C 1.00647 0.1455 0.77536 0.0
C600 C 0.92204 0.24058 0.72028 0.0
C601 C 0.95089 0.23181 0.69536 0.0
C602 C 0.94667 0.24466 0.7472 0.0
C603 C 1.00129 0.23936 0.74929 0.0
C604 C 0.03067 0.23298 0.72403 0.0
C605 C 1.0053 0.22966 0.69752 0.0
C606 C 0.91399 0.25234 0.77358 0.0
C607 C 0.08877 0.22647 0.72509 0.0
H608 H 0.09374 0.29474 0.82979 0.0
H609 H 0.05628 0.14711 0.82583 0.0
H610 H 0.06553 0.32232 0.75824 0.0
H611 H 1.00688 0.33217 0.77763 0.0
H612 H 0.06833 0.3479 0.79363 0.0
H613 H 0.01238 0.11246 0.78768 0.0
H614 H 0.96421 0.15065 0.77232 0.0
H615 H 0.02395 0.14104 0.75381 0.0
H616 H 0.88017 0.24282 0.71891 0.0
H617 H 0.0284 0.22355 0.67849 0.0
H618 H 0.93149 0.2801 0.78736 0.0
H619 H 0.91247 0.21933 0.7863 0.0
H620 H 0.87367 0.26267 0.76813 0.0
H621 H 0.10722 0.25467 0.73813 0.0
H622 H 0.10658 0.22666 0.70342 0.0
H623 H 0.09775 0.19228 0.73548 0.0
C624 C 0.42602 0.74174 0.80927 0.0
C625 C 0.44983 0.71962 0.83263 0.0
C626 C 0.45229 0.74657 0.78289 0.0
C627 C 0.50297 0.72788 0.77967 0.0
C628 C 0.52735 0.70635 0.80336 0.0
C629 C 0.50082 0.70292 0.82945 0.0
C630 C 0.42539 0.77059 0.75825 0.0
C631 C 0.58064 0.68476 0.80082 0.0
C632 C 0.54433 0.68355 0.70649 0.0
C633 C 0.58055 0.71777 0.69786 0.0
C634 C 0.51872 0.68677 0.73287 0.0
C635 C 0.52856 0.72587 0.75099 0.0
C636 C 0.5651 0.76078 0.7424 0.0
C637 C 0.59126 0.75601 0.71599 0.0
C638 C 0.48145 0.64794 0.74143 0.0
C639 C 0.57596 0.80335 0.76092 0.0
H640 H 0.38694 0.75514 0.81156 0.0
H641 H 0.5198 0.68556 0.84724 0.0
H642 H 0.45146 0.79733 0.74843 0.0
H643 H 0.41588 0.74424 0.74143 0.0
H644 H 0.38895 0.78811 0.76504 0.0
H645 H 0.59541 0.67165 0.82168 0.0
H646 H 0.57929 0.65474 0.78553 0.0
H647 H 0.60871 0.71092 0.79223 0.0
H648 H 0.53605 0.6539 0.69245 0.0
H649 H 0.61861 0.78286 0.7091 0.0
H650 H 0.4423 0.66274 0.7452 0.0
H651 H 0.49436 0.63161 0.76179 0.0
H652 H 0.47829 0.61985 0.72488 0.0
H653 H 0.53926 0.82226 0.76544 0.0
H654 H 0.60372 0.82828 0.7507 0.0
H655 H 0.59213 0.79209 0.78182 0.0
C656 C 0.99823 0.82019 0.19924 0.0
C657 C 0.94936 0.79888 0.19524 0.0
C658 C 0.02432 0.81777 0.22547 0.0
C659 C 1.00168 0.79269 0.24846 0.0
C660 C 0.95297 0.76992 0.2445 0.0
C661 C 0.927 0.77375 0.21798 0.0
C662 C 0.07529 0.84382 0.22886 0.0
C663 C 0.92803 0.74218 0.26841 0.0
C664 C 0.09286 0.76885 0.31136 0.0
C665 C 0.07909 0.80521 0.33018 0.0
C666 C 0.06661 0.76299 0.28504 0.0
C667 C 0.02676 0.79495 0.27726 0.0
C668 C 0.01356 0.83207 0.29613 0.0
C669 C 0.03946 0.83641 0.32236 0.0
C670 C 0.08121 0.72257 0.26563 0.0
C671 C 0.97263 0.86789 0.28845 0.0
H672 H 0.01585 0.84007 0.18194 0.0
H673 H 0.88958 0.75686 0.21498 0.0
H674 H 0.07106 0.87224 0.24506 0.0
H675 H 0.10573 0.81955 0.2367 0.0
H676 H 0.08879 0.85994 0.20849 0.0
H677 H 0.89305 0.72254 0.2611 0.0
H678 H 0.95615 0.71675 0.2775 0.0
H679 H 0.91656 0.76645 0.28594 0.0
H680 H 0.12291 0.7443 0.31757 0.0
H681 H 0.02883 0.86471 0.33685 0.0
H682 H 0.09704 0.73642 0.2452 0.0
H683 H 0.04623 0.70133 0.2603 0.0
H684 H 0.11057 0.69912 0.27552 0.0
H685 H 0.98413 0.8869 0.26866 0.0
H686 H 0.96647 0.89425 0.30574 0.0
H687 H 0.9352 0.84988 0.28401 0.0
C688 C 0.57911 0.31215 0.46042 0.0
C689 C 0.54144 0.27745 0.45472 0.0
C690 C 0.61809 0.30459 0.48099 0.0
C691 C 0.61907 0.26156 0.49645 0.0
C692 C 0.58177 0.22617 0.49042 0.0
C693 C 0.54396 0.23428 0.46945 0.0
C694 C 0.65786 0.34284 0.48643 0.0
C695 C 0.58114 0.17995 0.50653 0.0
C696 C 0.74567 0.21892 0.52796 0.0
C697 C 0.74193 0.23288 0.55684 0.0
C698 C 0.70641 0.22873 0.50822 0.0
C699 C 0.66112 0.25197 0.51753 0.0
C700 C 0.65586 0.2647 0.54681 0.0
C701 C 0.69659 0.25533 0.56614 0.0
C702 C 0.71401 0.21504 0.47719 0.0
C703 C 0.60747 0.2886 0.55759 0.0
H704 H 0.57725 0.34579 0.44946 0.0
H705 H 0.51506 0.20718 0.46536 0.0
H706 H 0.6552 0.35505 0.50897 0.0
H707 H 0.6975 0.32867 0.48326 0.0
H708 H 0.65261 0.37372 0.47211 0.0
H709 H 0.54802 0.15696 0.50022 0.0
H710 H 0.61766 0.16051 0.50256 0.0
H711 H 0.5788 0.18674 0.52992 0.0
H712 H 0.78026 0.20127 0.52038 0.0
H713 H 0.69333 0.26638 0.5883 0.0
H714 H 0.71085 0.24672 0.46337 0.0
H715 H 0.6832 0.18996 0.47041 0.0
H716 H 0.75228 0.19838 0.47328 0.0
H717 H 0.60269 0.32311 0.54677 0.0
H718 H 0.60848 0.29459 0.58111 0.0
H719 H 0.57285 0.26683 0.55231 0.0
C720 C 0.97107 0.30924 0.96234 0.0
C721 C 0.97194 0.26822 0.94548 0.0
C722 C 0.92908 0.31908 0.98045 0.0
C723 C 0.88696 0.28697 0.98183 0.0
C724 C 0.88555 0.24768 0.96295 0.0
C725 C 0.92813 0.23881 0.94488 0.0
C726 C 0.93196 0.36171 0.99985 0.0
C727 C 0.84108 0.21286 0.96354 0.0
C728 C 0.81398 0.27513 0.05258 0.0
C729 C 0.76823 0.29976 0.04673 0.0
C730 C 0.85319 0.27113 0.03172 0.0
C731 C 0.84658 0.29252 1.00448 0.0
C732 C 0.80135 0.31891 0.99892 0.0
C733 C 0.76285 0.3222 0.02005 0.0
C734 C 0.9011 0.24289 0.03854 0.0
C735 C 0.79295 0.34262 0.97035 0.0
H736 H 1.00524 0.33172 0.96305 0.0
H737 H 0.92912 0.20656 0.93236 0.0
H738 H 0.89483 0.38129 0.99957 0.0
H739 H 0.93876 0.35004 0.02221 0.0
H740 H 0.9638 0.3862 0.99362 0.0
H741 H 0.84282 0.18747 0.94541 0.0
H742 H 0.84217 0.19269 0.98389 0.0
H743 H 0.80342 0.23156 0.96277 0.0
H744 H 0.8183 0.25745 0.07301 0.0
H745 H 0.72774 0.34162 0.01538 0.0
H746 H 0.93632 0.26493 0.03536 0.0
H747 H 0.90392 0.2124 0.02368 0.0
H748 H 0.90097 0.22944 0.06088 0.0
H749 H 0.82609 0.36631 0.96531 0.0
H750 H 0.75667 0.36357 0.96987 0.0
H751 H 0.791 0.31558 0.95316 0.0
C752 C 0.07709 0.21365 0.56222 0.0
C753 C 0.04072 0.24887 0.56846 0.0
C754 C 0.11676 0.22149 0.54207 0.0
C755 C 0.11991 0.26546 0.52771 0.0
C756 C 0.08407 0.30144 0.5344 0.0
C757 C 0.04534 0.29289 0.55483 0.0
C758 C 0.1548 0.18248 0.53581 0.0
C759 C 0.08593 0.34872 0.5195 0.0
C760 C 0.24868 0.30552 0.49707 0.0
C761 C 0.24395 0.29372 0.46789 0.0
C762 C 0.20893 0.29594 0.51663 0.0
C763 C 0.16238 0.275 0.50686 0.0
C764 C 0.15633 0.2643 0.47734 0.0
C765 C 0.1974 0.27351 0.45817 0.0
C766 C 0.21727 0.30746 0.54794 0.0
C767 C 0.10669 0.24274 0.46611 0.0
H768 H 0.07357 0.17937 0.57232 0.0
H769 H 0.01742 0.32036 0.55941 0.0
H770 H 0.15191 0.1719 0.51298 0.0
H771 H 0.19503 0.19523 0.53948 0.0
H772 H 0.14788 0.15082 0.54931 0.0
H773 H 0.05417 0.37243 0.5265 0.0
H774 H 0.12354 0.36651 0.52382 0.0
H775 H 0.08303 0.34364 0.49597 0.0
H776 H 0.28428 0.32134 0.50498 0.0
H777 H 0.19338 0.26416 0.43576 0.0
H778 H 0.21273 0.27504 0.56102 0.0
H779 H 0.18762 0.33293 0.55536 0.0
H780 H 0.25628 0.32279 0.55214 0.0
H781 H 0.09987 0.20794 0.47632 0.0
H782 H 0.10747 0.23784 0.4425 0.0
H783 H 0.07332 0.26553 0.47174 0.0
C784 C 0.47278 0.20345 0.06008 0.0
C785 C 0.47526 0.24963 0.07107 0.0
C786 C 0.43431 0.18999 0.04034 0.0
C787 C 0.39716 0.2234 0.03137 0.0
C788 C 0.39783 0.26938 0.04344 0.0
C789 C 0.43673 0.28188 0.06321 0.0
C790 C 0.43476 0.14057 0.02819 0.0
C791 C 0.35862 0.30601 0.03465 0.0
C792 C 0.32541 0.21346 0.96013 0.0
C793 C 0.27619 0.19913 0.96939 0.0
C794 C 0.36624 0.21931 0.97993 0.0
C795 C 0.35731 0.21047 1.00948 0.0
C796 C 0.30866 0.19254 0.01839 0.0
C797 C 0.26876 0.18721 0.99826 0.0
C798 C 0.41778 0.23805 0.96955 0.0
C799 C 0.29742 0.18225 0.04952 0.0
H800 H 0.50238 0.17823 0.06599 0.0
H801 H 0.43848 0.31773 0.07129 0.0
H802 H 0.3962 0.12362 0.03092 0.0
H803 H 0.44279 0.14202 1.00485 0.0
H804 H 0.4645 0.11803 0.0385 0.0
H805 H 0.3636 0.33973 0.04654 0.0
H806 H 0.36234 0.31332 1.01139 0.0
H807 H 0.31872 0.29252 0.03839 0.0
H808 H 0.33091 0.22346 0.93792 0.0
H809 H 0.23048 0.17636 1.00542 0.0
H810 H 0.44997 0.21656 0.97824 0.0
H811 H 0.42337 0.2747 0.97743 0.0
H812 H 0.42038 0.23824 0.9458 0.0
H813 H 0.32858 0.16037 0.05895 0.0
H814 H 0.25973 0.16369 0.05246 0.0
H815 H 0.29629 0.21588 0.06172 0.0
C816 C 0.47464 0.79715 0.56079 0.0
C817 C 0.47882 0.75324 0.57453 0.0
C818 C 0.43569 0.80557 0.54052 0.0
C819 C 0.39925 0.76959 0.53418 0.0
C820 C 0.40153 0.72601 0.54895 0.0
C821 C 0.44132 0.71832 0.56894 0.0
C822 C 0.43466 0.85246 0.52517 0.0
C823 C 0.36274 0.68705 0.54312 0.0
C824 C 0.27148 0.80738 0.50192 0.0
C825 C 0.27686 0.7939 0.47306 0.0
C826 C 0.31084 0.79941 0.52191 0.0
C827 C 0.35757 0.77837 0.51285 0.0
C828 C 0.36435 0.76623 0.48359 0.0
C829 C 0.32372 0.77391 0.464 0.0
C830 C 0.30181 0.81249 0.55291 0.0
C831 C 0.41418 0.74445 0.47312 0.0
H832 H 0.50332 0.82443 0.56491 0.0
H833 H 0.44423 0.68423 0.57929 0.0
H834 H 0.43891 0.84675 0.50176 0.0
H835 H 0.39683 0.87001 0.52864 0.0
H836 H 0.46604 0.87665 0.53247 0.0
H837 H 0.36902 0.65576 0.55698 0.0
H838 H 0.32276 0.70016 0.5466 0.0
H839 H 0.3655 0.67574 0.52041 0.0
H840 H 0.23566 0.8232 0.50925 0.0
H841 H 0.32822 0.76333 0.44182 0.0
H842 H 0.33183 0.83797 0.5602 0.0
H843 H 0.30516 0.78063 0.56657 0.0
H844 H 0.26304 0.82837 0.55647 0.0
H845 H 0.44763 0.76728 0.47902 0.0
H846 H 0.4143 0.73911 0.44954 0.0
H847 H 0.42005 0.70981 0.48364 0.0
C848 C 0.07699 0.7897 0.0668 0.0
C849 C 0.03262 0.76101 0.0684 0.0
C850 C 0.11578 0.78075 0.04639 0.0
C851 C 0.1095 0.74272 0.02691 0.0
C852 C 0.06555 0.71299 0.0289 0.0
C853 C 0.02818 0.72198 0.04988 0.0
C854 C 0.16331 0.81205 0.04554 0.0
C855 C 0.05716 0.6725 1.00826 0.0
C856 C 0.18909 0.74659 0.95831 0.0
C857 C 0.22997 0.71643 0.96539 0.0
C858 C 0.14868 0.75477 0.97792 0.0
C859 C 0.14988 0.73265 1.00515 0.0
C860 C 0.18985 0.70062 1.01179 0.0
C861 C 0.22891 0.69243 0.99169 0.0
C862 C 0.10587 0.78843 0.96997 0.0
C863 C 0.19273 0.67652 0.04061 0.0
H864 H 0.08073 0.81989 0.08096 0.0
H865 H 0.9941 0.69948 0.05078 0.0
H866 H 0.19819 0.79088 0.05063 0.0
H867 H 0.1689 0.82666 0.02372 0.0
H868 H 0.16088 0.8418 0.061 0.0
H869 H 0.02031 0.65319 1.0124 0.0
H870 H 0.05651 0.68598 0.98596 0.0
H871 H 0.08966 0.64715 1.00976 0.0
H872 H 0.18991 0.76542 0.93812 0.0
H873 H 0.26018 0.66865 0.99718 0.0
H874 H 0.10855 0.82053 0.98352 0.0
H875 H 0.06742 0.77199 0.97406 0.0
H876 H 0.10793 0.79926 0.94714 0.0
H877 H 0.19608 0.70342 0.05782 0.0
H878 H 0.22629 0.65224 0.04223 0.0
H879 H 0.15672 0.65605 0.0447 0.0
C880 C 0.97466 0.72765 0.46711 0.0
C881 C 0.97941 0.77158 0.45342 0.0
C882 C 0.93527 0.71912 0.48716 0.0
C883 C 0.89914 0.75508 0.49338 0.0
C884 C 0.90204 0.79867 0.47864 0.0
C885 C 0.94213 0.8064 0.45881 0.0
C886 C 0.93345 0.67219 0.50246 0.0
C887 C 0.86368 0.83765 0.48441 0.0
C888 C 0.77037 0.71866 0.52547 0.0
C889 C 0.77591 0.73238 0.55429 0.0
C890 C 0.81013 0.72586 0.50557 0.0
C891 C 0.8573 0.74646 0.51467 0.0
C892 C 0.8642 0.75879 0.5439 0.0
C893 C 0.82323 0.75178 0.56341 0.0
C894 C 0.80104 0.71255 0.4746 0.0
C895 C 0.91446 0.78017 0.55439 0.0
H896 H 1.0032 0.70046 0.46312 0.0
H897 H 0.94547 0.8405 0.44848 0.0
H898 H 0.93797 0.67779 0.52586 0.0
H899 H 0.89527 0.65487 0.49905 0.0
H900 H 0.96433 0.64784 0.49505 0.0
H901 H 0.87048 0.86897 0.47059 0.0
H902 H 0.82356 0.82459 0.4808 0.0
H903 H 0.86637 0.84891 0.50713 0.0
H904 H 0.73418 0.70323 0.51813 0.0
H905 H 0.82786 0.76248 0.58557 0.0
H906 H 0.83085 0.6871 0.46736 0.0
H907 H 0.80468 0.74434 0.46087 0.0
H908 H 0.76213 0.69656 0.47106 0.0
H909 H 0.94744 0.75706 0.54854 0.0
H910 H 0.91462 0.78557 0.57797 0.0
H911 H 0.9211 0.81474 0.54384 0.0
C912 C 0.69174 0.76821 0.06815 0.0
C913 C 0.73596 0.79276 0.05883 0.0
C914 C 0.65005 0.75952 0.04933 0.0
C915 C 0.653 0.77551 0.02058 0.0
C916 C 0.69676 0.80164 1.01143 0.0
C917 C 0.73731 0.8103 0.03068 0.0
C918 C 0.60347 0.73223 0.05995 0.0
C919 C 0.70163 0.81911 0.98097 0.0
C920 C 0.57097 0.71377 0.96383 0.0
C921 C 0.53004 0.74569 0.96036 0.0
C922 C 0.61138 0.72307 0.9833 0.0
C923 C 0.61057 0.76503 0.99987 0.0
C924 C 0.57011 0.79785 0.99596 0.0
C925 C 0.53073 0.78805 0.97609 0.0
C926 C 0.65451 0.68763 0.9865 0.0
C927 C 0.56765 0.84284 0.01331 0.0
H928 H 0.69043 0.75438 0.08977 0.0
H929 H 0.77109 0.82969 0.02328 0.0
H930 H 0.56748 0.75239 0.05577 0.0
H931 H 0.60012 0.69835 0.04814 0.0
H932 H 0.60585 0.72449 0.08323 0.0
H933 H 0.73806 0.83935 0.97736 0.0
H934 H 0.70078 0.78871 0.96596 0.0
H935 H 0.66833 0.84201 0.97551 0.0
H936 H 0.57073 0.68088 0.95195 0.0
H937 H 0.49937 0.81304 0.97367 0.0
H938 H 0.65494 0.67369 1.00868 0.0
H939 H 0.69257 0.70499 0.9827 0.0
H940 H 0.65035 0.6575 0.97141 0.0
H941 H 0.56638 0.8343 0.03649 0.0
H942 H 0.5332 0.86447 1.00793 0.0
H943 H 0.60302 0.86444 1.00962 0.0
loop_
_geom_bond_atom_site_label_1
_geom_bond_atom_site_label_2
_geom_bond_distance
_geom_bond_site_symmetry_2
_ccdc_geom_bond_type
Fe0 O2 1.918 . S
Fe0 O5 1.997 . S
Fe0 O6 2.002 . S
Fe0 O11 1.976 . S
Fe0 O14 1.996 . S
Fe1 O2 1.918 . S
Fe1 O9 1.997 . S
Fe1 O12 1.996 . S
Fe1 O16 1.976 . S
Fe1 O19 2.002 . S
O2 Fe0 1.918 . S
O2 Fe1 1.918 . S
O2 Fe3 1.918 . S
Fe3 O2 1.918 . S
Fe3 O4 2.002 . S
Fe3 O13 1.976 . S
Fe3 O17 1.996 . S
Fe3 O20 1.997 . S
O4 Fe3 2.002 . S
O4 C21 1.295 . S
O5 Fe0 1.997 . S
O5 C21 1.235 . S
O6 Fe0 2.002 . S
O6 C7 1.295 . S
C7 O6 1.295 . S
C7 O9 1.235 . S
C8 O13 1.287 . S
C8 O14 1.255 . S
O9 Fe1 1.997 . S
O9 C7 1.235 . S
C10 O16 1.287 . S
C10 O17 1.255 . S
O11 Fe0 1.976 . S
O11 C18 1.287 . S
O12 Fe1 1.996 . S
O12 C18 1.255 . S
O13 Fe3 1.976 . S
O13 C8 1.287 . S
O14 Fe0 1.996 . S
O14 C8 1.255 . S
C15 O19 1.295 . S
C15 O20 1.235 . S
O16 Fe1 1.976 . S
O16 C10 1.287 . S
O17 Fe3 1.996 . S
O17 C10 1.255 . S
C18 O11 1.287 . S
C18 O12 1.255 . S
O19 Fe1 2.002 . S
O19 C15 1.295 . S
O20 Fe3 1.997 . S
O20 C15 1.235 . S
C21 O4 1.295 . S
C21 O5 1.235 . S
Fe22 O24 1.918 . S
Fe22 O27 1.997 . S
Fe22 O28 2.002 . S
Fe22 O33 1.976 . S
Fe22 O36 1.996 . S
Fe23 O24 1.918 . S
Fe23 O31 1.997 . S
Fe23 O34 1.996 . S
Fe23 O38 1.976 . S
Fe23 O41 2.002 . S
O24 Fe22 1.918 . S
O24 Fe23 1.918 . S
O24 Fe25 1.918 . S
Fe25 O24 1.918 . S
Fe25 O26 2.002 . S
Fe25 O35 1.976 . S
Fe25 O39 1.996 . S
Fe25 O42 1.997 . S
O26 Fe25 2.002 . S
O26 C43 1.295 . S
O27 Fe22 1.997 . S
O27 C43 1.235 . S
O28 Fe22 2.002 . S
O28 C29 1.295 . S
C29 O28 1.295 . S
C29 O31 1.235 . S
C30 O35 1.287 . S
C30 O36 1.255 . S
O31 Fe23 1.997 . S
O31 C29 1.235 . S
C32 O38 1.287 1_655 S
C32 O39 1.255 1_655 S
O33 Fe22 1.976 . S
O33 C40 1.287 . S
O34 Fe23 1.996 . S
O34 C40 1.255 . S
O35 Fe25 1.976 . S
O35 C30 1.287 . S
O36 Fe22 1.996 . S
O36 C30 1.255 . S
C37 O41 1.295 . S
C37 O42 1.235 . S
O38 Fe23 1.976 . S
O38 C32 1.287 1_455 S
O39 Fe25 1.996 . S
O39 C32 1.255 1_455 S
C40 O33 1.287 . S
C40 O34 1.255 . S
O41 Fe23 2.002 . S
O41 C37 1.295 . S
O42 Fe25 1.997 . S
O42 C37 1.235 . S
C43 O26 1.295 . S
C43 O27 1.235 . S
Fe44 O46 1.918 . S
Fe44 O49 1.997 . S
Fe44 O50 2.002 . S
Fe44 O55 1.976 . S
Fe44 O58 1.996 . S
Fe45 O46 1.918 . S
Fe45 O53 1.997 . S
Fe45 O56 1.996 . S
Fe45 O60 1.976 . S
Fe45 O63 2.002 . S
O46 Fe44 1.918 . S
O46 Fe45 1.918 . S
O46 Fe47 1.918 . S
Fe47 O46 1.918 . S
Fe47 O48 2.002 . S
Fe47 O57 1.976 . S
Fe47 O61 1.996 . S
Fe47 O64 1.997 . S
O48 Fe47 2.002 . S
O48 C65 1.295 . S
O49 Fe44 1.997 . S
O49 C65 1.235 . S
O50 Fe44 2.002 . S
O50 C51 1.295 . S
C51 O50 1.295 . S
C51 O53 1.235 . S
C52 O57 1.287 . S
C52 O58 1.255 . S
O53 Fe45 1.997 . S
O53 C51 1.235 . S
C54 O60 1.287 . S
C54 O61 1.255 . S
O55 Fe44 1.976 . S
O55 C62 1.287 1_655 S
O56 Fe45 1.996 . S
O56 C62 1.255 1_655 S
O57 Fe47 1.976 . S
O57 C52 1.287 . S
O58 Fe44 1.996 . S
O58 C52 1.255 . S
C59 O63 1.295 . S
C59 O64 1.235 . S
O60 Fe45 1.976 . S
O60 C54 1.287 . S
O61 Fe47 1.996 . S
O61 C54 1.255 . S
C62 O55 1.287 1_455 S
C62 O56 1.255 1_455 S
O63 Fe45 2.002 . S
O63 C59 1.295 . S
O64 Fe47 1.997 . S
O64 C59 1.235 . S
C65 O48 1.295 . S
C65 O49 1.235 . S
Fe66 O68 1.918 . S
Fe66 O71 1.997 . S
Fe66 O72 2.002 . S
Fe66 O77 1.976 . S
Fe66 O80 1.996 . S
Fe67 O68 1.918 . S
Fe67 O75 1.997 . S
Fe67 O78 1.996 . S
Fe67 O82 1.976 . S
Fe67 O85 2.002 . S
O68 Fe66 1.918 . S
O68 Fe67 1.918 . S
O68 Fe69 1.918 . S
Fe69 O68 1.918 . S
Fe69 O70 2.002 . S
Fe69 O79 1.976 . S
Fe69 O83 1.996 . S
Fe69 O86 1.997 . S
O70 Fe69 2.002 . S
O70 C87 1.295 . S
O71 Fe66 1.997 . S
O71 C87 1.235 . S
O72 Fe66 2.002 . S
O72 C73 1.295 . S
C73 O72 1.295 . S
C73 O75 1.235 . S
C74 O79 1.287 . S
C74 O80 1.255 . S
O75 Fe67 1.997 . S
O75 C73 1.235 . S
C76 O82 1.287 . S
C76 O83 1.255 . S
O77 Fe66 1.976 . S
O77 C84 1.287 . S
O78 Fe67 1.996 . S
O78 C84 1.255 . S
O79 Fe69 1.976 . S
O79 C74 1.287 . S
O80 Fe66 1.996 . S
O80 C74 1.255 . S
C81 O85 1.295 . S
C81 O86 1.235 . S
O82 Fe67 1.976 . S
O82 C76 1.287 . S
O83 Fe69 1.996 . S
O83 C76 1.255 . S
C84 O77 1.287 . S
C84 O78 1.255 . S
O85 Fe67 2.002 . S
O85 C81 1.295 . S
O86 Fe69 1.997 . S
O86 C81 1.235 . S
C87 O70 1.295 . S
C87 O71 1.235 . S
Fe88 O90 1.918 . S
Fe88 O93 1.997 . S
Fe88 O94 2.002 . S
Fe88 O99 1.976 . S
Fe88 O102 1.996 . S
Fe89 O90 1.918 . S
Fe89 O97 1.997 . S
Fe89 O100 1.996 . S
Fe89 O104 1.976 . S
Fe89 O107 2.002 . S
O90 Fe88 1.918 . S
O90 Fe89 1.918 . S
O90 Fe91 1.918 . S
Fe91 O90 1.918 . S
Fe91 O92 2.002 . S
Fe91 O101 1.976 . S
Fe91 O105 1.996 . S
Fe91 O108 1.997 . S
O92 Fe91 2.002 . S
O92 C109 1.295 . S
O93 Fe88 1.997 . S
O93 C109 1.235 . S
O94 Fe88 2.002 . S
O94 C95 1.295 . S
C95 O94 1.295 . S
C95 O97 1.235 . S
C96 O101 1.287 . S
C96 O102 1.255 . S
O97 Fe89 1.997 . S
O97 C95 1.235 . S
C98 O104 1.287 . S
C98 O105 1.255 . S
O99 Fe88 1.976 . S
O99 C106 1.287 . S
O100 Fe89 1.996 . S
O100 C106 1.255 . S
O101 Fe91 1.976 . S
O101 C96 1.287 . S
O102 Fe88 1.996 . S
O102 C96 1.255 . S
C103 O107 1.295 . S
C103 O108 1.235 . S
O104 Fe89 1.976 . S
O104 C98 1.287 . S
O105 Fe91 1.996 . S
O105 C98 1.255 . S
C106 O99 1.287 . S
C106 O100 1.255 . S
O107 Fe89 2.002 . S
O107 C103 1.295 . S
O108 Fe91 1.997 . S
O108 C103 1.235 . S
C109 O92 1.295 . S
C109 O93 1.235 . S
Fe110 O112 1.918 . S
Fe110 O115 1.997 . S
Fe110 O116 2.002 . S
Fe110 O121 1.976 . S
Fe110 O124 1.996 . S
Fe111 O112 1.918 . S
Fe111 O119 1.997 . S
Fe111 O122 1.996 . S
Fe111 O126 1.976 . S
Fe111 O129 2.002 . S
O112 Fe110 1.918 . S
O112 Fe111 1.918 . S
O112 Fe113 1.918 . S
Fe113 O112 1.918 . S
Fe113 O114 2.002 . S
Fe113 O123 1.976 . S
Fe113 O127 1.996 . S
Fe113 O130 1.997 . S
O114 Fe113 2.002 . S
O114 C131 1.295 . S
O115 Fe110 1.997 . S
O115 C131 1.235 . S
O116 Fe110 2.002 . S
O116 C117 1.295 . S
C117 O116 1.295 . S
C117 O119 1.235 . S
C118 O123 1.287 . S
C118 O124 1.255 . S
O119 Fe111 1.997 . S
O119 C117 1.235 . S
C120 O126 1.287 . S
C120 O127 1.255 . S
O121 Fe110 1.976 . S
O121 C128 1.287 1_655 S
O122 Fe111 1.996 . S
O122 C128 1.255 1_655 S
O123 Fe113 1.976 . S
O123 C118 1.287 . S
O124 Fe110 1.996 . S
O124 C118 1.255 . S
C125 O129 1.295 . S
C125 O130 1.235 . S
O126 Fe111 1.976 . S
O126 C120 1.287 . S
O127 Fe113 1.996 . S
O127 C120 1.255 . S
C128 O121 1.287 1_455 S
C128 O122 1.255 1_455 S
O129 Fe111 2.002 . S
O129 C125 1.295 . S
O130 Fe113 1.997 . S
O130 C125 1.235 . S
C131 O114 1.295 . S
C131 O115 1.235 . S
Fe132 O134 1.918 . S
Fe132 O137 1.997 . S
Fe132 O138 2.002 . S
Fe132 O143 1.976 . S
Fe132 O146 1.996 . S
Fe133 O134 1.918 . S
Fe133 O141 1.997 . S
Fe133 O144 1.996 . S
Fe133 O148 1.976 . S
Fe133 O151 2.002 . S
O134 Fe132 1.918 . S
O134 Fe133 1.918 . S
O134 Fe135 1.918 . S
Fe135 O134 1.918 . S
Fe135 O136 2.002 . S
Fe135 O145 1.976 . S
Fe135 O149 1.996 . S
Fe135 O152 1.997 . S
O136 Fe135 2.002 . S
O136 C153 1.295 . S
O137 Fe132 1.997 . S
O137 C153 1.235 . S
O138 Fe132 2.002 . S
O138 C139 1.295 . S
C139 O138 1.295 . S
C139 O141 1.235 . S
C140 O145 1.287 . S
C140 O146 1.255 . S
O141 Fe133 1.997 . S
O141 C139 1.235 . S
C142 O148 1.287 . S
C142 O149 1.255 . S
O143 Fe132 1.976 . S
O143 C150 1.287 1_455 S
O144 Fe133 1.996 . S
O144 C150 1.255 1_455 S
O145 Fe135 1.976 . S
O145 C140 1.287 . S
O146 Fe132 1.996 . S
O146 C140 1.255 . S
C147 O151 1.295 . S
C147 O152 1.235 . S
O148 Fe133 1.976 . S
O148 C142 1.287 . S
O149 Fe135 1.996 . S
O149 C142 1.255 . S
C150 O143 1.287 1_655 S
C150 O144 1.255 1_655 S
O151 Fe133 2.002 . S
O151 C147 1.295 . S
O152 Fe135 1.997 . S
O152 C147 1.235 . S
C153 O136 1.295 . S
C153 O137 1.235 . S
Fe154 O156 1.918 . S
Fe154 O159 1.997 . S
Fe154 O160 2.002 . S
Fe154 O165 1.976 . S
Fe154 O168 1.996 . S
Fe155 O156 1.918 . S
Fe155 O163 1.997 . S
Fe155 O166 1.996 . S
Fe155 O170 1.976 . S
Fe155 O173 2.002 . S
O156 Fe154 1.918 . S
O156 Fe155 1.918 . S
O156 Fe157 1.918 . S
Fe157 O156 1.918 . S
Fe157 O158 2.002 . S
Fe157 O167 1.976 . S
Fe157 O171 1.996 . S
Fe157 O174 1.997 . S
O158 Fe157 2.002 . S
O158 C175 1.295 . S
O159 Fe154 1.997 . S
O159 C175 1.235 . S
O160 Fe154 2.002 . S
O160 C161 1.295 . S
C161 O160 1.295 . S
C161 O163 1.235 . S
C162 O167 1.287 . S
C162 O168 1.255 . S
O163 Fe155 1.997 . S
O163 C161 1.235 . S
C164 O170 1.287 . S
C164 O171 1.255 . S
O165 Fe154 1.976 . S
O165 C172 1.287 . S
O166 Fe155 1.996 . S
O166 C172 1.255 . S
O167 Fe157 1.976 . S
O167 C162 1.287 . S
O168 Fe154 1.996 . S
O168 C162 1.255 . S
C169 O173 1.295 . S
C169 O174 1.235 . S
O170 Fe155 1.976 . S
O170 C164 1.287 . S
O171 Fe157 1.996 . S
O171 C164 1.255 . S
C172 O165 1.287 . S
C172 O166 1.255 . S
O173 Fe155 2.002 . S
O173 C169 1.295 . S
O174 Fe157 1.997 . S
O174 C169 1.235 . S
C175 O158 1.295 . S
C175 O159 1.235 . S
C176 C177 1.391 . S
C176 C178 1.394 1_565 S
C176 H192 0.931 . S
C177 C176 1.391 . S
C177 C181 1.376 . S
C178 C176 1.394 1_545 S
C178 C179 1.369 . S
C178 C182 1.531 . S
C179 C178 1.369 . S
C179 C180 1.410 . S
C179 C187 1.503 . S
C180 C179 1.410 . S
C180 C181 1.392 1_545 S
C180 C183 1.511 . S
C181 C177 1.376 . S
C181 C180 1.392 1_565 S
C181 H193 0.929 . S
C182 C178 1.531 . S
C182 H194 0.960 . S
C182 H195 0.962 . S
C182 H196 0.960 . S
C183 C180 1.511 . S
C183 H197 0.961 . S
C183 H198 0.961 . S
C183 H199 0.961 . S
C184 C185 1.370 . S
C184 C186 1.363 . S
C184 H200 0.931 . S
C185 C184 1.370 . S
C185 C189 1.408 . S
C186 C184 1.363 . S
C186 C187 1.370 . S
C186 C190 1.524 . S
C187 C179 1.503 . S
C187 C186 1.370 . S
C187 C188 1.403 . S
C188 C187 1.403 . S
C188 C189 1.404 . S
C188 C191 1.539 . S
C189 C185 1.408 . S
C189 C188 1.404 . S
C189 H201 0.930 . S
C190 C186 1.524 . S
C190 H202 0.956 . S
C190 H203 0.961 . S
C190 H204 0.961 . S
C191 C188 1.539 . S
C191 H205 0.958 . S
C191 H206 0.961 . S
C191 H207 0.960 . S
H192 C176 0.931 . S
H193 C181 0.929 . S
H194 C182 0.960 . S
H195 C182 0.962 . S
H196 C182 0.960 . S
H197 C183 0.961 . S
H198 C183 0.961 . S
H199 C183 0.961 . S
H200 C184 0.931 . S
H201 C189 0.930 . S
H202 C190 0.956 . S
H203 C190 0.961 . S
H204 C190 0.961 . S
H205 C191 0.958 . S
H206 C191 0.961 . S
H207 C191 0.960 . S
C208 C209 1.391 . S
C208 C210 1.394 . S
C208 H224 0.931 . S
C209 C208 1.391 . S
C209 C213 1.376 . S
C210 C208 1.394 . S
C210 C211 1.369 . S
C210 C214 1.531 . S
C211 C210 1.369 . S
C211 C212 1.410 . S
C211 C219 1.503 . S
C212 C211 1.410 . S
C212 C213 1.392 . S
C212 C215 1.511 . S
C213 C209 1.376 . S
C213 C212 1.392 . S
C213 H225 0.929 . S
C214 C210 1.531 . S
C214 H226 0.960 . S
C214 H227 0.962 . S
C214 H228 0.960 . S
C215 C212 1.511 . S
C215 H229 0.961 . S
C215 H230 0.961 . S
C215 H231 0.961 . S
C216 C217 1.370 . S
C216 C218 1.363 . S
C216 H232 0.931 . S
C217 C216 1.370 . S
C217 C221 1.408 . S
C218 C216 1.363 . S
C218 C219 1.370 . S
C218 C222 1.524 . S
C219 C211 1.503 . S
C219 C218 1.370 . S
C219 C220 1.403 . S
C220 C219 1.403 . S
C220 C221 1.404 . S
C220 C223 1.539 . S
C221 C217 1.408 . S
C221 C220 1.404 . S
C221 H233 0.930 . S
C222 C218 1.524 . S
C222 H234 0.956 . S
C222 H235 0.961 . S
C222 H236 0.961 . S
C223 C220 1.539 . S
C223 H237 0.958 . S
C223 H238 0.961 . S
C223 H239 0.960 . S
H224 C208 0.931 . S
H225 C213 0.929 . S
H226 C214 0.960 . S
H227 C214 0.962 . S
H228 C214 0.960 . S
H229 C215 0.961 . S
H230 C215 0.961 . S
H231 C215 0.961 . S
H232 C216 0.931 . S
H233 C221 0.930 . S
H234 C222 0.956 . S
H235 C222 0.961 . S
H236 C222 0.961 . S
H237 C223 0.958 . S
H238 C223 0.961 . S
H239 C223 0.960 . S
C240 C241 1.391 . S
C240 C242 1.394 . S
C240 H256 0.931 . S
C241 C240 1.391 . S
C241 C245 1.376 . S
C242 C240 1.394 . S
C242 C243 1.369 . S
C242 C246 1.531 . S
C243 C242 1.369 . S
C243 C244 1.410 . S
C243 C251 1.503 . S
C244 C243 1.410 . S
C244 C245 1.392 . S
C244 C247 1.511 . S
C245 C241 1.376 . S
C245 C244 1.392 . S
C245 H257 0.929 . S
C246 C242 1.531 . S
C246 H258 0.960 . S
C246 H259 0.962 . S
C246 H260 0.960 . S
C247 C244 1.511 . S
C247 H261 0.961 . S
C247 H262 0.961 . S
C247 H263 0.961 . S
C248 C249 1.370 . S
C248 C250 1.363 . S
C248 H264 0.931 . S
C249 C248 1.370 . S
C249 C253 1.408 . S
C250 C248 1.363 . S
C250 C251 1.370 . S
C250 C254 1.524 . S
C251 C243 1.503 . S
C251 C250 1.370 . S
C251 C252 1.403 . S
C252 C251 1.403 . S
C252 C253 1.404 . S
C252 C255 1.539 . S
C253 C249 1.408 . S
C253 C252 1.404 . S
C253 H265 0.930 . S
C254 C250 1.524 . S
C254 H266 0.956 . S
C254 H267 0.961 . S
C254 H268 0.961 . S
C255 C252 1.539 . S
C255 H269 0.958 . S
C255 H270 0.961 . S
C255 H271 0.960 . S
H256 C240 0.931 . S
H257 C245 0.929 . S
H258 C246 0.960 . S
H259 C246 0.962 . S
H260 C246 0.960 . S
H261 C247 0.961 . S
H262 C247 0.961 . S
H263 C247 0.961 . S
H264 C248 0.931 . S
H265 C253 0.930 . S
H266 C254 0.956 . S
H267 C254 0.961 . S
H268 C254 0.961 . S
H269 C255 0.958 . S
H270 C255 0.961 . S
H271 C255 0.960 . S
C272 C273 1.391 . S
C272 C274 1.394 . S
C272 H288 0.931 . S
C273 C272 1.391 . S
C273 C277 1.376 . S
C274 C272 1.394 . S
C274 C275 1.369 . S
C274 C278 1.531 . S
C275 C274 1.369 . S
C275 C276 1.410 . S
C275 C283 1.503 . S
C276 C275 1.410 . S
C276 C277 1.392 . S
C276 C279 1.511 . S
C277 C273 1.376 . S
C277 C276 1.392 . S
C277 H289 0.929 . S
C278 C274 1.531 . S
C278 H290 0.960 . S
C278 H291 0.962 . S
C278 H292 0.960 . S
C279 C276 1.511 . S
C279 H293 0.961 . S
C279 H294 0.961 . S
C279 H295 0.961 . S
C280 C281 1.370 . S
C280 C282 1.363 1_565 S
C280 H296 0.931 . S
C281 C280 1.370 . S
C281 C285 1.408 . S
C282 C280 1.363 1_545 S
C282 C283 1.370 . S
C282 C286 1.524 . S
C283 C275 1.503 . S
C283 C282 1.370 . S
C283 C284 1.403 . S
C284 C283 1.403 . S
C284 C285 1.404 1_545 S
C284 C287 1.539 . S
C285 C281 1.408 . S
C285 C284 1.404 1_565 S
C285 H297 0.930 . S
C286 C282 1.524 . S
C286 H298 0.956 . S
C286 H299 0.961 . S
C286 H300 0.961 . S
C287 C284 1.539 . S
C287 H301 0.958 . S
C287 H302 0.961 1_545 S
C287 H303 0.960 . S
H288 C272 0.931 . S
H289 C277 0.929 . S
H290 C278 0.960 . S
H291 C278 0.962 . S
H292 C278 0.960 . S
H293 C279 0.961 . S
H294 C279 0.961 . S
H295 C279 0.961 . S
H296 C280 0.931 . S
H297 C285 0.930 . S
H298 C286 0.956 . S
H299 C286 0.961 . S
H300 C286 0.961 . S
H301 C287 0.958 . S
H302 C287 0.961 1_565 S
H303 C287 0.960 . S
C304 C305 1.391 . S
C304 C306 1.394 1_545 S
C304 H320 0.931 . S
C305 C304 1.391 . S
C305 C309 1.376 . S
C306 C304 1.394 1_565 S
C306 C307 1.369 . S
C306 C310 1.531 . S
C307 C306 1.369 . S
C307 C308 1.410 1_565 S
C307 C315 1.503 . S
C308 C307 1.410 1_545 S
C308 C309 1.392 . S
C308 C311 1.511 . S
C309 C305 1.376 . S
C309 C308 1.392 . S
C309 H321 0.929 . S
C310 C306 1.531 . S
C310 H322 0.960 . S
C310 H323 0.962 . S
C310 H324 0.960 . S
C311 C308 1.511 . S
C311 H325 0.961 . S
C311 H326 0.961 1_545 S
C311 H327 0.961 . S
C312 C313 1.370 . S
C312 C314 1.363 . S
C312 H328 0.931 . S
C313 C312 1.370 . S
C313 C317 1.408 . S
C314 C312 1.363 . S
C314 C315 1.370 . S
C314 C318 1.524 . S
C315 C307 1.503 . S
C315 C314 1.370 . S
C315 C316 1.403 . S
C316 C315 1.403 . S
C316 C317 1.404 . S
C316 C319 1.539 . S
C317 C313 1.408 . S
C317 C316 1.404 . S
C317 H329 0.930 . S
C318 C314 1.524 . S
C318 H330 0.956 . S
C318 H331 0.961 . S
C318 H332 0.961 . S
C319 C316 1.539 . S
C319 H333 0.958 . S
C319 H334 0.961 . S
C319 H335 0.960 . S
H320 C304 0.931 . S
H321 C309 0.929 . S
H322 C310 0.960 . S
H323 C310 0.962 . S
H324 C310 0.960 . S
H325 C311 0.961 . S
H326 C311 0.961 1_565 S
H327 C311 0.961 . S
H328 C312 0.931 . S
H329 C317 0.930 . S
H330 C318 0.956 . S
H331 C318 0.961 . S
H332 C318 0.961 . S
H333 C319 0.958 . S
H334 C319 0.961 . S
H335 C319 0.960 . S
C336 C337 1.391 . S
C336 C338 1.394 . S
C336 H352 0.931 . S
C337 C336 1.391 . S
C337 C341 1.376 . S
C338 C336 1.394 . S
C338 C339 1.369 . S
C338 C342 1.531 . S
C339 C338 1.369 . S
C339 C340 1.410 . S
C339 C347 1.503 . S
C340 C339 1.410 . S
C340 C341 1.392 . S
C340 C343 1.511 . S
C341 C337 1.376 . S
C341 C340 1.392 . S
C341 H353 0.929 . S
C342 C338 1.531 . S
C342 H354 0.960 . S
C342 H355 0.962 . S
C342 H356 0.960 . S
C343 C340 1.511 . S
C343 H357 0.961 . S
C343 H358 0.961 . S
C343 H359 0.961 . S
C344 C345 1.370 . S
C344 C346 1.363 . S
C344 H360 0.931 . S
C345 C344 1.370 . S
C345 C349 1.408 . S
C346 C344 1.363 . S
C346 C347 1.370 . S
C346 C350 1.524 . S
C347 C339 1.503 . S
C347 C346 1.370 . S
C347 C348 1.403 . S
C348 C347 1.403 . S
C348 C349 1.404 . S
C348 C351 1.539 . S
C349 C345 1.408 . S
C349 C348 1.404 . S
C349 H361 0.930 . S
C350 C346 1.524 . S
C350 H362 0.956 . S
C350 H363 0.961 . S
C350 H364 0.961 . S
C351 C348 1.539 . S
C351 H365 0.958 . S
C351 H366 0.961 . S
C351 H367 0.960 . S
H352 C336 0.931 . S
H353 C341 0.929 . S
H354 C342 0.960 . S
H355 C342 0.962 . S
H356 C342 0.960 . S
H357 C343 0.961 . S
H358 C343 0.961 . S
H359 C343 0.961 . S
H360 C344 0.931 . S
H361 C349 0.930 . S
H362 C350 0.956 . S
H363 C350 0.961 . S
H364 C350 0.961 . S
H365 C351 0.958 . S
H366 C351 0.961 . S
H367 C351 0.960 . S
C368 C369 1.391 . S
C368 C370 1.394 . S
C368 H384 0.931 . S
C369 C368 1.391 . S
C369 C373 1.376 . S
C370 C368 1.394 . S
C370 C371 1.369 . S
C370 C374 1.531 . S
C371 C370 1.369 . S
C371 C372 1.410 . S
C371 C379 1.503 . S
C372 C371 1.410 . S
C372 C373 1.392 . S
C372 C375 1.511 . S
C373 C369 1.376 . S
C373 C372 1.392 . S
C373 H385 0.929 . S
C374 C370 1.531 . S
C374 H386 0.960 . S
C374 H387 0.962 . S
C374 H388 0.960 . S
C375 C372 1.511 . S
C375 H389 0.961 . S
C375 H390 0.961 . S
C375 H391 0.961 . S
C376 C377 1.370 . S
C376 C378 1.363 . S
C376 H392 0.931 . S
C377 C376 1.370 . S
C377 C381 1.408 . S
C378 C376 1.363 . S
C378 C379 1.370 . S
C378 C382 1.524 . S
C379 C371 1.503 . S
C379 C378 1.370 . S
C379 C380 1.403 . S
C380 C379 1.403 . S
C380 C381 1.404 . S
C380 C383 1.539 . S
C381 C377 1.408 . S
C381 C380 1.404 . S
C381 H393 0.930 . S
C382 C378 1.524 . S
C382 H394 0.956 . S
C382 H395 0.961 . S
C382 H396 0.961 . S
C383 C380 1.539 . S
C383 H397 0.958 . S
C383 H398 0.961 . S
C383 H399 0.960 . S
H384 C368 0.931 . S
H385 C373 0.929 . S
H386 C374 0.960 . S
H387 C374 0.962 . S
H388 C374 0.960 . S
H389 C375 0.961 . S
H390 C375 0.961 . S
H391 C375 0.961 . S
H392 C376 0.931 . S
H393 C381 0.930 . S
H394 C382 0.956 . S
H395 C382 0.961 . S
H396 C382 0.961 . S
H397 C383 0.958 . S
H398 C383 0.961 . S
H399 C383 0.960 . S
C400 C401 1.391 . S
C400 C402 1.394 1_545 S
C400 H416 0.931 . S
C401 C400 1.391 . S
C401 C405 1.376 . S
C402 C400 1.394 1_565 S
C402 C403 1.369 . S
C402 C406 1.531 . S
C403 C402 1.369 . S
C403 C404 1.410 . S
C403 C411 1.503 . S
C404 C403 1.410 . S
C404 C405 1.392 1_565 S
C404 C407 1.511 . S
C405 C401 1.376 . S
C405 C404 1.392 1_545 S
C405 H417 0.929 . S
C406 C402 1.531 . S
C406 H418 0.960 . S
C406 H419 0.962 . S
C406 H420 0.960 . S
C407 C404 1.511 . S
C407 H421 0.961 1_565 S
C407 H422 0.961 . S
C407 H423 0.961 . S
C408 C409 1.370 . S
C408 C410 1.363 . S
C408 H424 0.931 . S
C409 C408 1.370 . S
C409 C413 1.408 . S
C410 C408 1.363 . S
C410 C411 1.370 . S
C410 C414 1.524 . S
C411 C403 1.503 . S
C411 C410 1.370 . S
C411 C412 1.403 . S
C412 C411 1.403 . S
C412 C413 1.404 . S
C412 C415 1.539 . S
C413 C409 1.408 . S
C413 C412 1.404 . S
C413 H425 0.930 . S
C414 C410 1.524 . S
C414 H426 0.956 . S
C414 H427 0.961 . S
C414 H428 0.961 . S
C415 C412 1.539 . S
C415 H429 0.958 . S
C415 H430 0.961 . S
C415 H431 0.960 . S
H416 C400 0.931 . S
H417 C405 0.929 . S
H418 C406 0.960 . S
H419 C406 0.962 . S
H420 C406 0.960 . S
H421 C407 0.961 1_545 S
H422 C407 0.961 . S
H423 C407 0.961 . S
H424 C408 0.931 . S
H425 C413 0.930 . S
H426 C414 0.956 . S
H427 C414 0.961 . S
H428 C414 0.961 . S
H429 C415 0.958 . S
H430 C415 0.961 . S
H431 C415 0.960 . S
C432 C433 1.391 . S
C432 C434 1.394 . S
C432 H448 0.931 . S
C433 C432 1.391 . S
C433 C437 1.376 . S
C434 C432 1.394 . S
C434 C435 1.369 . S
C434 C438 1.531 . S
C435 C434 1.369 . S
C435 C436 1.410 . S
C435 C443 1.503 . S
C436 C435 1.410 . S
C436 C437 1.392 . S
C436 C439 1.511 . S
C437 C433 1.376 . S
C437 C436 1.392 . S
C437 H449 0.929 . S
C438 C434 1.531 . S
C438 H450 0.960 . S
C438 H451 0.962 . S
C438 H452 0.960 . S
C439 C436 1.511 . S
C439 H453 0.961 . S
C439 H454 0.961 . S
C439 H455 0.961 . S
C440 C441 1.370 . S
C440 C442 1.363 . S
C440 H456 0.931 . S
C441 C440 1.370 . S
C441 C445 1.408 . S
C442 C440 1.363 . S
C442 C443 1.370 . S
C442 C446 1.524 . S
C443 C435 1.503 . S
C443 C442 1.370 . S
C443 C444 1.403 . S
C444 C443 1.403 . S
C444 C445 1.404 . S
C444 C447 1.539 . S
C445 C441 1.408 . S
C445 C444 1.404 . S
C445 H457 0.930 . S
C446 C442 1.524 . S
C446 H458 0.956 . S
C446 H459 0.961 . S
C446 H460 0.961 . S
C447 C444 1.539 . S
C447 H461 0.958 . S
C447 H462 0.961 . S
C447 H463 0.960 . S
H448 C432 0.931 . S
H449 C437 0.929 . S
H450 C438 0.960 . S
H451 C438 0.962 . S
H452 C438 0.960 . S
H453 C439 0.961 . S
H454 C439 0.961 . S
H455 C439 0.961 . S
H456 C440 0.931 . S
H457 C445 0.930 . S
H458 C446 0.956 . S
H459 C446 0.961 . S
H460 C446 0.961 . S
H461 C447 0.958 . S
H462 C447 0.961 . S
H463 C447 0.960 . S
C464 C465 1.391 . S
C464 C466 1.394 1_655 S
C464 H480 0.931 1_655 S
C465 C464 1.391 . S
C465 C469 1.376 . S
C466 C464 1.394 1_455 S
C466 C467 1.364 1_454 S
C466 C470 1.531 . S
C467 C466 1.364 1_656 S
C467 C468 1.411 . S
C467 C475 1.506 1_665 S
C468 C467 1.411 . S
C468 C469 1.392 1_556 S
C468 C471 1.511 1_565 S
C469 C465 1.376 . S
C469 C468 1.392 1_554 S
C469 H481 0.929 . S
C470 C466 1.531 . S
C470 H482 0.960 . S
C470 H483 0.962 . S
C470 H484 0.960 . S
C471 C468 1.511 1_545 S
C471 H485 0.961 . S
C471 H486 0.961 . S
C471 H487 0.961 1_545 S
C472 C473 1.350 1_554 S
C472 C474 1.370 . S
C472 H488 0.946 . S
C473 C472 1.350 1_556 S
C473 C477 1.408 . S
C474 C472 1.370 . S
C474 C475 1.370 1_554 S
C474 C478 1.524 1_455 S
C475 C467 1.506 1_445 S
C475 C474 1.370 1_556 S
C475 C476 1.403 . S
C476 C475 1.403 . S
C476 C477 1.404 . S
C476 C479 1.539 1_545 S
C477 C473 1.408 . S
C477 C476 1.404 . S
C477 H489 0.930 . S
C478 C474 1.524 1_655 S
C478 H490 0.956 1_655 S
C478 H491 0.961 . S
C478 H492 0.961 . S
C479 C476 1.539 1_565 S
C479 H493 0.958 . S
C479 H494 0.961 . S
C479 H495 0.960 . S
H480 C464 0.931 1_455 S
H481 C469 0.929 . S
H482 C470 0.960 . S
H483 C470 0.962 . S
H484 C470 0.960 . S
H485 C471 0.961 . S
H486 C471 0.961 . S
H487 C471 0.961 1_565 S
H488 C472 0.946 . S
H489 C477 0.930 . S
H490 C478 0.956 1_455 S
H491 C478 0.961 . S
H492 C478 0.961 . S
H493 C479 0.958 . S
H494 C479 0.961 . S
H495 C479 0.960 . S
C496 C497 1.391 . S
C496 C498 1.394 1_655 S
C496 H512 0.931 . S
C497 C496 1.391 . S
C497 C501 1.376 . S
C498 C496 1.394 1_455 S
C498 C499 1.369 1_455 S
C498 C502 1.531 . S
C499 C498 1.369 1_655 S
C499 C500 1.410 . S
C499 C507 1.503 1_645 S
C500 C499 1.410 . S
C500 C501 1.392 . S
C500 C503 1.511 1_545 S
C501 C497 1.376 . S
C501 C500 1.392 . S
C501 H513 0.929 . S
C502 C498 1.531 . S
C502 H514 0.960 . S
C502 H515 0.962 . S
C502 H516 0.960 . S
C503 C500 1.511 1_565 S
C503 H517 0.961 . S
C503 H518 0.961 . S
C503 H519 0.961 . S
C504 C505 1.370 . S
C504 C506 1.363 . S
C504 H520 0.931 . S
C505 C504 1.370 . S
C505 C509 1.408 . S
C506 C504 1.363 . S
C506 C507 1.370 . S
C506 C510 1.524 1_455 S
C507 C499 1.503 1_465 S
C507 C506 1.370 . S
C507 C508 1.403 . S
C508 C507 1.403 . S
C508 C509 1.404 . S
C508 C511 1.539 . S
C509 C505 1.408 . S
C509 C508 1.404 . S
C509 H521 0.930 . S
C510 C506 1.524 1_655 S
C510 H522 0.956 1_565 S
C510 H523 0.961 . S
C510 H524 0.961 . S
C511 C508 1.539 . S
C511 H525 0.958 . S
C511 H526 0.961 . S
C511 H527 0.960 . S
H512 C496 0.931 . S
H513 C501 0.929 . S
H514 C502 0.960 . S
H515 C502 0.962 . S
H516 C502 0.960 . S
H517 C503 0.961 . S
H518 C503 0.961 . S
H519 C503 0.961 . S
H520 C504 0.931 . S
H521 C509 0.930 . S
H522 C510 0.956 1_545 S
H523 C510 0.961 . S
H524 C510 0.961 . S
H525 C511 0.958 . S
H526 C511 0.961 . S
H527 C511 0.960 . S
C528 C529 1.391 1_554 S
C528 C530 1.394 . S
C528 H544 0.931 . S
C529 C528 1.391 1_556 S
C529 C533 1.376 . S
C530 C528 1.394 . S
C530 C531 1.369 1_554 S
C530 C534 1.531 . S
C531 C530 1.369 1_556 S
C531 C532 1.410 . S
C531 C539 1.503 1_556 S
C532 C531 1.410 . S
C532 C533 1.392 . S
C532 C535 1.511 . S
C533 C529 1.376 . S
C533 C532 1.392 . S
C533 H545 0.929 . S
C534 C530 1.531 . S
C534 H546 0.960 . S
C534 H547 0.962 . S
C534 H548 0.960 . S
C535 C532 1.511 . S
C535 H549 0.961 . S
C535 H550 0.961 . S
C535 H551 0.961 . S
C536 C537 1.370 . S
C536 C538 1.363 1_554 S
C536 H552 0.934 . S
C537 C536 1.370 . S
C537 C541 1.408 . S
C538 C536 1.363 1_556 S
C538 C539 1.370 1_556 S
C538 C542 1.524 . S
C539 C531 1.503 1_554 S
C539 C538 1.370 1_554 S
C539 C540 1.403 . S
C540 C539 1.403 . S
C540 C541 1.404 . S
C540 C543 1.539 . S
C541 C537 1.408 . S
C541 C540 1.404 . S
C541 H553 0.930 . S
C542 C538 1.524 . S
C542 H554 0.956 . S
C542 H555 0.961 . S
C542 H556 0.961 . S
C543 C540 1.539 . S
C543 H557 0.958 . S
C543 H558 0.961 . S
C543 H559 0.960 . S
H544 C528 0.931 . S
H545 C533 0.929 . S
H546 C534 0.960 . S
H547 C534 0.962 . S
H548 C534 0.960 . S
H549 C535 0.961 . S
H550 C535 0.961 . S
H551 C535 0.961 . S
H552 C536 0.934 . S
H553 C541 0.930 . S
H554 C542 0.956 . S
H555 C542 0.961 . S
H556 C542 0.961 . S
H557 C543 0.958 . S
H558 C543 0.961 . S
H559 C543 0.960 . S
C560 C561 1.391 . S
C560 C562 1.394 . S
C560 H576 0.931 . S
C561 C560 1.391 . S
C561 C565 1.376 . S
C562 C560 1.394 . S
C562 C563 1.369 . S
C562 C566 1.531 . S
C563 C562 1.369 . S
C563 C564 1.410 . S
C563 C571 1.503 . S
C564 C563 1.410 . S
C564 C565 1.392 . S
C564 C567 1.511 . S
C565 C561 1.376 . S
C565 C564 1.392 . S
C565 H577 0.929 . S
C566 C562 1.531 . S
C566 H578 0.960 . S
C566 H579 0.962 . S
C566 H580 0.960 . S
C567 C564 1.511 . S
C567 H581 0.961 . S
C567 H582 0.961 . S
C567 H583 0.961 . S
C568 C569 1.370 . S
C568 C570 1.363 . S
C568 H584 0.931 . S
C569 C568 1.370 . S
C569 C573 1.408 . S
C570 C568 1.363 . S
C570 C571 1.370 . S
C570 C574 1.524 . S
C571 C563 1.503 . S
C571 C570 1.370 . S
C571 C572 1.403 . S
C572 C571 1.403 . S
C572 C573 1.404 . S
C572 C575 1.539 . S
C573 C569 1.408 . S
C573 C572 1.404 . S
C573 H585 0.930 . S
C574 C570 1.524 . S
C574 H586 0.956 . S
C574 H587 0.961 . S
C574 H588 0.961 . S
C575 C572 1.539 . S
C575 H589 0.958 . S
C575 H590 0.961 . S
C575 H591 0.960 . S
H576 C560 0.931 . S
H577 C565 0.929 . S
H578 C566 0.960 . S
H579 C566 0.962 . S
H580 C566 0.960 . S
H581 C567 0.961 . S
H582 C567 0.961 . S
H583 C567 0.961 . S
H584 C568 0.931 . S
H585 C573 0.930 . S
H586 C574 0.956 . S
H587 C574 0.961 . S
H588 C574 0.961 . S
H589 C575 0.958 . S
H590 C575 0.961 . S
H591 C575 0.960 . S
C592 C593 1.391 . S
C592 C594 1.394 . S
C592 H608 0.931 . S
C593 C592 1.391 . S
C593 C597 1.376 . S
C594 C592 1.394 . S
C594 C595 1.369 . S
C594 C598 1.531 . S
C595 C594 1.369 . S
C595 C596 1.410 . S
C595 C603 1.503 1_455 S
C596 C595 1.410 . S
C596 C597 1.392 . S
C596 C599 1.511 1_455 S
C597 C593 1.376 . S
C597 C596 1.392 . S
C597 H609 0.929 . S
C598 C594 1.531 . S
C598 H610 0.960 . S
C598 H611 0.962 . S
C598 H612 0.960 . S
C599 C596 1.511 1_655 S
C599 H613 0.961 . S
C599 H614 0.961 . S
C599 H615 0.965 . S
C600 C601 1.370 . S
C600 C602 1.363 . S
C600 H616 0.931 . S
C601 C600 1.370 . S
C601 C605 1.408 . S
C602 C600 1.363 . S
C602 C603 1.370 . S
C602 C606 1.524 . S
C603 C595 1.503 1_655 S
C603 C602 1.370 . S
C603 C604 1.403 1_655 S
C604 C603 1.403 1_455 S
C604 C605 1.404 1_455 S
C604 C607 1.539 . S
C605 C601 1.408 . S
C605 C604 1.404 1_655 S
C605 H617 0.923 1_655 S
C606 C602 1.524 . S
C606 H618 0.956 . S
C606 H619 0.961 . S
C606 H620 0.961 . S
C607 C604 1.539 . S
C607 H621 0.958 . S
C607 H622 0.961 . S
C607 H623 0.960 . S
H608 C592 0.931 . S
H609 C597 0.929 . S
H610 C598 0.960 . S
H611 C598 0.962 . S
H612 C598 0.960 . S
H613 C599 0.961 . S
H614 C599 0.961 . S
H615 C599 0.965 . S
H616 C600 0.931 . S
H617 C605 0.923 1_455 S
H618 C606 0.956 . S
H619 C606 0.961 . S
H620 C606 0.961 . S
H621 C607 0.958 . S
H622 C607 0.961 . S
H623 C607 0.960 . S
C624 C625 1.391 . S
C624 C626 1.394 . S
C624 H640 0.931 . S
C625 C624 1.391 . S
C625 C629 1.376 . S
C626 C624 1.394 . S
C626 C627 1.369 . S
C626 C630 1.531 . S
C627 C626 1.369 . S
C627 C628 1.410 . S
C627 C635 1.503 . S
C628 C627 1.410 . S
C628 C629 1.392 . S
C628 C631 1.511 . S
C629 C625 1.376 . S
C629 C628 1.392 . S
C629 H641 0.929 . S
C630 C626 1.531 . S
C630 H642 0.960 . S
C630 H643 0.962 . S
C630 H644 0.960 . S
C631 C628 1.511 . S
C631 H645 0.961 . S
C631 H646 0.961 . S
C631 H647 0.961 . S
C632 C633 1.370 . S
C632 C634 1.363 . S
C632 H648 0.931 . S
C633 C632 1.370 . S
C633 C637 1.408 . S
C634 C632 1.363 . S
C634 C635 1.370 . S
C634 C638 1.524 . S
C635 C627 1.503 . S
C635 C634 1.370 . S
C635 C636 1.403 . S
C636 C635 1.403 . S
C636 C637 1.404 . S
C636 C639 1.539 . S
C637 C633 1.408 . S
C637 C636 1.404 . S
C637 H649 0.930 . S
C638 C634 1.524 . S
C638 H650 0.956 . S
C638 H651 0.961 . S
C638 H652 0.961 . S
C639 C636 1.539 . S
C639 H653 0.958 . S
C639 H654 0.961 . S
C639 H655 0.960 . S
H640 C624 0.931 . S
H641 C629 0.929 . S
H642 C630 0.960 . S
H643 C630 0.962 . S
H644 C630 0.960 . S
H645 C631 0.961 . S
H646 C631 0.961 . S
H647 C631 0.961 . S
H648 C632 0.931 . S
H649 C637 0.930 . S
H650 C638 0.956 . S
H651 C638 0.961 . S
H652 C638 0.961 . S
H653 C639 0.958 . S
H654 C639 0.961 . S
H655 C639 0.960 . S
C656 C657 1.391 . S
C656 C658 1.394 1_655 S
C656 H672 0.931 1_655 S
C657 C656 1.391 . S
C657 C661 1.376 . S
C658 C656 1.394 1_455 S
C658 C659 1.369 1_455 S
C658 C662 1.531 . S
C659 C658 1.369 1_655 S
C659 C660 1.410 . S
C659 C667 1.503 1_655 S
C660 C659 1.410 . S
C660 C661 1.392 . S
C660 C663 1.511 . S
C661 C657 1.376 . S
C661 C660 1.392 . S
C661 H673 0.929 . S
C662 C658 1.531 . S
C662 H674 0.960 . S
C662 H675 0.962 . S
C662 H676 0.960 . S
C663 C660 1.511 . S
C663 H677 0.961 . S
C663 H678 0.961 . S
C663 H679 0.961 . S
C664 C665 1.370 . S
C664 C666 1.363 . S
C664 H680 0.931 . S
C665 C664 1.370 . S
C665 C669 1.408 . S
C666 C664 1.363 . S
C666 C667 1.370 . S
C666 C670 1.524 . S
C667 C659 1.503 1_455 S
C667 C666 1.370 . S
C667 C668 1.403 . S
C668 C667 1.403 . S
C668 C669 1.404 . S
C668 C671 1.539 1_455 S
C669 C665 1.408 . S
C669 C668 1.404 . S
C669 H681 0.930 . S
C670 C666 1.524 . S
C670 H682 0.956 . S
C670 H683 0.961 1_455 S
C670 H684 0.961 . S
C671 C668 1.539 1_655 S
C671 H685 0.958 1_655 S
C671 H686 0.961 . S
C671 H687 0.960 . S
H672 C656 0.931 1_455 S
H673 C661 0.929 . S
H674 C662 0.960 . S
H675 C662 0.962 . S
H676 C662 0.960 . S
H677 C663 0.961 . S
H678 C663 0.961 . S
H679 C663 0.961 . S
H680 C664 0.931 . S
H681 C669 0.930 . S
H682 C670 0.956 . S
H683 C670 0.961 1_655 S
H684 C670 0.961 . S
H685 C671 0.958 1_455 S
H686 C671 0.961 . S
H687 C671 0.960 . S
C688 C689 1.391 . S
C688 C690 1.394 . S
C688 H704 0.931 . S
C689 C688 1.391 . S
C689 C693 1.376 . S
C690 C688 1.394 . S
C690 C691 1.369 . S
C690 C694 1.531 . S
C691 C690 1.369 . S
C691 C692 1.410 . S
C691 C699 1.503 . S
C692 C691 1.410 . S
C692 C693 1.392 . S
C692 C695 1.511 . S
C693 C689 1.376 . S
C693 C692 1.392 . S
C693 H705 0.929 . S
C694 C690 1.531 . S
C694 H706 0.960 . S
C694 H707 0.962 . S
C694 H708 0.960 . S
C695 C692 1.511 . S
C695 H709 0.961 . S
C695 H710 0.961 . S
C695 H711 0.961 . S
C696 C697 1.370 . S
C696 C698 1.363 . S
C696 H712 0.931 . S
C697 C696 1.370 . S
C697 C701 1.408 . S
C698 C696 1.363 . S
C698 C699 1.370 . S
C698 C702 1.524 . S
C699 C691 1.503 . S
C699 C698 1.370 . S
C699 C700 1.403 . S
C700 C699 1.403 . S
C700 C701 1.404 . S
C700 C703 1.539 . S
C701 C697 1.408 . S
C701 C700 1.404 . S
C701 H713 0.930 . S
C702 C698 1.524 . S
C702 H714 0.956 . S
C702 H715 0.961 . S
C702 H716 0.961 . S
C703 C700 1.539 . S
C703 H717 0.958 . S
C703 H718 0.961 . S
C703 H719 0.960 . S
H704 C688 0.931 . S
H705 C693 0.929 . S
H706 C694 0.960 . S
H707 C694 0.962 . S
H708 C694 0.960 . S
H709 C695 0.961 . S
H710 C695 0.961 . S
H711 C695 0.961 . S
H712 C696 0.931 . S
H713 C701 0.930 . S
H714 C702 0.956 . S
H715 C702 0.961 . S
H716 C702 0.961 . S
H717 C703 0.958 . S
H718 C703 0.961 . S
H719 C703 0.960 . S
C720 C721 1.391 . S
C720 C722 1.394 . S
C720 H736 0.931 . S
C721 C720 1.391 . S
C721 C725 1.376 . S
C722 C720 1.394 . S
C722 C723 1.369 . S
C722 C726 1.531 . S
C723 C722 1.369 . S
C723 C724 1.410 . S
C723 C731 1.503 . S
C724 C723 1.410 . S
C724 C725 1.392 . S
C724 C727 1.511 . S
C725 C721 1.376 . S
C725 C724 1.392 . S
C725 H737 0.929 . S
C726 C722 1.531 . S
C726 H738 0.960 . S
C726 H739 0.962 . S
C726 H740 0.960 . S
C727 C724 1.511 . S
C727 H741 0.961 . S
C727 H742 0.961 1_556 S
C727 H743 0.961 . S
C728 C729 1.370 . S
C728 C730 1.363 . S
C728 H744 0.931 . S
C729 C728 1.370 . S
C729 C733 1.408 . S
C730 C728 1.363 . S
C730 C731 1.370 1_554 S
C730 C734 1.524 . S
C731 C723 1.503 . S
C731 C730 1.370 1_556 S
C731 C732 1.403 . S
C732 C731 1.403 . S
C732 C733 1.404 1_556 S
C732 C735 1.539 . S
C733 C729 1.408 . S
C733 C732 1.404 1_554 S
C733 H745 0.930 . S
C734 C730 1.524 . S
C734 H746 0.956 . S
C734 H747 0.961 . S
C734 H748 0.961 . S
C735 C732 1.539 . S
C735 H749 0.958 . S
C735 H750 0.961 . S
C735 H751 0.960 . S
H736 C720 0.931 . S
H737 C725 0.929 . S
H738 C726 0.960 . S
H739 C726 0.962 . S
H740 C726 0.960 . S
H741 C727 0.961 . S
H742 C727 0.961 1_554 S
H743 C727 0.961 . S
H744 C728 0.931 . S
H745 C733 0.930 . S
H746 C734 0.956 . S
H747 C734 0.961 . S
H748 C734 0.961 . S
H749 C735 0.958 . S
H750 C735 0.961 . S
H751 C735 0.960 . S
C752 C753 1.391 . S
C752 C754 1.394 . S
C752 H768 0.931 . S
C753 C752 1.391 . S
C753 C757 1.376 . S
C754 C752 1.394 . S
C754 C755 1.369 . S
C754 C758 1.531 . S
C755 C754 1.369 . S
C755 C756 1.410 . S
C755 C763 1.503 . S
C756 C755 1.410 . S
C756 C757 1.392 . S
C756 C759 1.511 . S
C757 C753 1.376 . S
C757 C756 1.392 . S
C757 H769 0.929 . S
C758 C754 1.531 . S
C758 H770 0.960 . S
C758 H771 0.962 . S
C758 H772 0.960 . S
C759 C756 1.511 . S
C759 H773 0.961 . S
C759 H774 0.961 . S
C759 H775 0.961 . S
C760 C761 1.370 . S
C760 C762 1.363 . S
C760 H776 0.931 . S
C761 C760 1.370 . S
C761 C765 1.408 . S
C762 C760 1.363 . S
C762 C763 1.370 . S
C762 C766 1.524 . S
C763 C755 1.503 . S
C763 C762 1.370 . S
C763 C764 1.403 . S
C764 C763 1.403 . S
C764 C765 1.404 . S
C764 C767 1.539 . S
C765 C761 1.408 . S
C765 C764 1.404 . S
C765 H777 0.930 . S
C766 C762 1.524 . S
C766 H778 0.956 . S
C766 H779 0.961 . S
C766 H780 0.961 . S
C767 C764 1.539 . S
C767 H781 0.958 . S
C767 H782 0.961 . S
C767 H783 0.960 . S
H768 C752 0.931 . S
H769 C757 0.929 . S
H770 C758 0.960 . S
H771 C758 0.962 . S
H772 C758 0.960 . S
H773 C759 0.961 . S
H774 C759 0.961 . S
H775 C759 0.961 . S
H776 C760 0.931 . S
H777 C765 0.930 . S
H778 C766 0.956 . S
H779 C766 0.961 . S
H780 C766 0.961 . S
H781 C767 0.958 . S
H782 C767 0.961 . S
H783 C767 0.960 . S
C784 C785 1.391 . S
C784 C786 1.394 . S
C784 H800 0.931 . S
C785 C784 1.391 . S
C785 C789 1.376 . S
C786 C784 1.394 . S
C786 C787 1.369 . S
C786 C790 1.531 . S
C787 C786 1.369 . S
C787 C788 1.410 . S
C787 C795 1.503 . S
C788 C787 1.410 . S
C788 C789 1.392 . S
C788 C791 1.511 . S
C789 C785 1.376 . S
C789 C788 1.392 . S
C789 H801 0.929 . S
C790 C786 1.531 . S
C790 H802 0.960 . S
C790 H803 0.962 . S
C790 H804 0.960 . S
C791 C788 1.511 . S
C791 H805 0.967 . S
C791 H806 0.961 1_554 S
C791 H807 0.961 . S
C792 C793 1.370 . S
C792 C794 1.363 . S
C792 H808 0.931 . S
C793 C792 1.370 . S
C793 C797 1.408 . S
C794 C792 1.363 . S
C794 C795 1.370 1_556 S
C794 C798 1.524 . S
C795 C787 1.503 . S
C795 C794 1.370 1_554 S
C795 C796 1.403 . S
C796 C795 1.403 . S
C796 C797 1.404 1_554 S
C796 C799 1.539 . S
C797 C793 1.408 . S
C797 C796 1.404 1_556 S
C797 H809 0.930 . S
C798 C794 1.524 . S
C798 H810 0.956 . S
C798 H811 0.961 . S
C798 H812 0.961 . S
C799 C796 1.539 . S
C799 H813 0.958 . S
C799 H814 0.961 . S
C799 H815 0.960 . S
H800 C784 0.931 . S
H801 C789 0.929 . S
H802 C790 0.960 . S
H803 C790 0.962 . S
H804 C790 0.960 . S
H805 C791 0.967 . S
H806 C791 0.961 1_556 S
H807 C791 0.961 . S
H808 C792 0.931 . S
H809 C797 0.930 . S
H810 C798 0.956 . S
H811 C798 0.961 . S
H812 C798 0.961 . S
H813 C799 0.958 . S
H814 C799 0.961 . S
H815 C799 0.960 . S
C816 C817 1.391 . S
C816 C818 1.394 . S
C816 H832 0.931 . S
C817 C816 1.391 . S
C817 C821 1.376 . S
C818 C816 1.394 . S
C818 C819 1.369 . S
C818 C822 1.531 . S
C819 C818 1.369 . S
C819 C820 1.410 . S
C819 C827 1.503 . S
C820 C819 1.410 . S
C820 C821 1.392 . S
C820 C823 1.511 . S
C821 C817 1.376 . S
C821 C820 1.392 . S
C821 H833 0.929 . S
C822 C818 1.531 . S
C822 H834 0.960 . S
C822 H835 0.962 . S
C822 H836 0.960 . S
C823 C820 1.511 . S
C823 H837 0.961 . S
C823 H838 0.961 . S
C823 H839 0.961 . S
C824 C825 1.370 . S
C824 C826 1.363 . S
C824 H840 0.931 . S
C825 C824 1.370 . S
C825 C829 1.408 . S
C826 C824 1.363 . S
C826 C827 1.370 . S
C826 C830 1.524 . S
C827 C819 1.503 . S
C827 C826 1.370 . S
C827 C828 1.403 . S
C828 C827 1.403 . S
C828 C829 1.404 . S
C828 C831 1.539 . S
C829 C825 1.408 . S
C829 C828 1.404 . S
C829 H841 0.930 . S
C830 C826 1.524 . S
C830 H842 0.956 . S
C830 H843 0.961 . S
C830 H844 0.961 . S
C831 C828 1.539 . S
C831 H845 0.958 . S
C831 H846 0.961 . S
C831 H847 0.960 . S
H832 C816 0.931 . S
H833 C821 0.929 . S
H834 C822 0.960 . S
H835 C822 0.962 . S
H836 C822 0.960 . S
H837 C823 0.961 . S
H838 C823 0.961 . S
H839 C823 0.961 . S
H840 C824 0.931 . S
H841 C829 0.930 . S
H842 C830 0.956 . S
H843 C830 0.961 . S
H844 C830 0.961 . S
H845 C831 0.958 . S
H846 C831 0.961 . S
H847 C831 0.960 . S
C848 C849 1.391 . S
C848 C850 1.394 . S
C848 H864 0.931 . S
C849 C848 1.391 . S
C849 C853 1.376 . S
C850 C848 1.394 . S
C850 C851 1.369 . S
C850 C854 1.531 . S
C851 C850 1.369 . S
C851 C852 1.410 . S
C851 C859 1.503 . S
C852 C851 1.410 . S
C852 C853 1.392 . S
C852 C855 1.511 1_554 S
C853 C849 1.376 . S
C853 C852 1.392 . S
C853 H865 0.929 . S
C854 C850 1.531 . S
C854 H866 0.960 . S
C854 H867 0.962 . S
C854 H868 0.960 . S
C855 C852 1.511 1_556 S
C855 H869 0.961 . S
C855 H870 0.961 . S
C855 H871 0.961 . S
C856 C857 1.370 . S
C856 C858 1.363 . S
C856 H872 0.931 . S
C857 C856 1.370 . S
C857 C861 1.408 . S
C858 C856 1.363 . S
C858 C859 1.370 1_556 S
C858 C862 1.524 1_556 S
C859 C851 1.503 . S
C859 C858 1.370 1_554 S
C859 C860 1.403 1_554 S
C860 C859 1.403 1_556 S
C860 C861 1.404 . S
C860 C863 1.539 . S
C861 C857 1.408 . S
C861 C860 1.404 . S
C861 H873 0.930 . S
C862 C858 1.524 1_554 S
C862 H874 0.956 . S
C862 H875 0.963 . S
C862 H876 0.961 1_554 S
C863 C860 1.539 . S
C863 H877 0.958 1_556 S
C863 H878 0.961 . S
C863 H879 0.960 1_556 S
H864 C848 0.931 . S
H865 C853 0.929 . S
H866 C854 0.960 . S
H867 C854 0.962 . S
H868 C854 0.960 . S
H869 C855 0.961 . S
H870 C855 0.961 . S
H871 C855 0.961 . S
H872 C856 0.931 . S
H873 C861 0.930 . S
H874 C862 0.956 . S
H875 C862 0.963 . S
H876 C862 0.961 1_556 S
H877 C863 0.958 1_554 S
H878 C863 0.961 . S
H879 C863 0.960 1_554 S
C880 C881 1.391 . S
C880 C882 1.394 . S
C880 H896 0.931 . S
C881 C880 1.391 . S
C881 C885 1.376 . S
C882 C880 1.394 . S
C882 C883 1.369 . S
C882 C886 1.531 . S
C883 C882 1.369 . S
C883 C884 1.410 . S
C883 C891 1.503 . S
C884 C883 1.410 . S
C884 C885 1.392 . S
C884 C887 1.511 . S
C885 C881 1.376 . S
C885 C884 1.392 . S
C885 H897 0.929 . S
C886 C882 1.531 . S
C886 H898 0.960 . S
C886 H899 0.962 . S
C886 H900 0.960 . S
C887 C884 1.511 . S
C887 H901 0.961 . S
C887 H902 0.961 . S
C887 H903 0.961 . S
C888 C889 1.370 . S
C888 C890 1.363 . S
C888 H904 0.931 . S
C889 C888 1.370 . S
C889 C893 1.408 . S
C890 C888 1.363 . S
C890 C891 1.370 . S
C890 C894 1.524 . S
C891 C883 1.503 . S
C891 C890 1.370 . S
C891 C892 1.403 . S
C892 C891 1.403 . S
C892 C893 1.404 . S
C892 C895 1.539 . S
C893 C889 1.408 . S
C893 C892 1.404 . S
C893 H905 0.930 . S
C894 C890 1.524 . S
C894 H906 0.956 . S
C894 H907 0.961 . S
C894 H908 0.961 . S
C895 C892 1.539 . S
C895 H909 0.958 . S
C895 H910 0.961 . S
C895 H911 0.960 . S
H896 C880 0.931 . S
H897 C885 0.929 . S
H898 C886 0.960 . S
H899 C886 0.962 . S
H900 C886 0.960 . S
H901 C887 0.961 . S
H902 C887 0.961 . S
H903 C887 0.961 . S
H904 C888 0.931 . S
H905 C893 0.930 . S
H906 C894 0.956 . S
H907 C894 0.961 . S
H908 C894 0.961 . S
H909 C895 0.958 . S
H910 C895 0.961 . S
H911 C895 0.960 . S
C912 C913 1.391 . S
C912 C914 1.394 . S
C912 H928 0.931 . S
C913 C912 1.391 . S
C913 C917 1.376 . S
C914 C912 1.394 . S
C914 C915 1.369 . S
C914 C918 1.531 . S
C915 C914 1.369 . S
C915 C916 1.410 . S
C915 C923 1.503 1_554 S
C916 C915 1.410 . S
C916 C917 1.392 . S
C916 C919 1.511 . S
C917 C913 1.376 . S
C917 C916 1.392 . S
C917 H929 0.929 . S
C918 C914 1.531 . S
C918 H930 0.960 . S
C918 H931 0.962 1_554 S
C918 H932 0.960 . S
C919 C916 1.511 . S
C919 H933 0.961 . S
C919 H934 0.961 1_554 S
C919 H935 0.961 . S
C920 C921 1.370 . S
C920 C922 1.363 . S
C920 H936 0.931 . S
C921 C920 1.370 . S
C921 C925 1.408 . S
C922 C920 1.363 . S
C922 C923 1.370 . S
C922 C926 1.524 . S
C923 C915 1.503 1_556 S
C923 C922 1.370 . S
C923 C924 1.403 . S
C924 C923 1.403 . S
C924 C925 1.404 . S
C924 C927 1.539 1_556 S
C925 C921 1.408 . S
C925 C924 1.404 . S
C925 H937 0.930 . S
C926 C922 1.524 . S
C926 H938 0.956 . S
C926 H939 0.961 . S
C926 H940 0.961 . S
C927 C924 1.539 1_554 S
C927 H941 0.958 . S
C927 H942 0.961 . S
C927 H943 0.960 . S
H928 C912 0.931 . S
H929 C917 0.929 . S
H930 C918 0.960 . S
H931 C918 0.962 1_556 S
H932 C918 0.960 . S
H933 C919 0.961 . S
H934 C919 0.961 1_556 S
H935 C919 0.961 . S
H936 C920 0.931 . S
H937 C925 0.930 . S
H938 C926 0.956 . S
H939 C926 0.961 . S
H940 C926 0.961 . S
H941 C927 0.958 . S
H942 C927 0.961 . S
H943 C927 0.960 . S
C177 C153 1.568 . S
C185 C10 1.532 . S
C209 C30 1.557 . S
C217 C169 1.550 . S
C241 C109 1.536 . S
C249 C54 1.543 . S
C273 C76 1.544 . S
C281 C131 1.561 . S
C305 C65 1.559 . S
C313 C98 1.548 . S
C337 C120 1.525 . S
C345 C87 1.563 . S
C369 C21 1.546 . S
C377 C142 1.532 . S
C401 C29 1.567 . S
C409 C172 1.533 . S
C433 C7 1.033 . S
C441 C95 0.967 . S
C465 C117 1.017 . S
C473 C37 0.970 . S
C497 C51 0.929 . S
C505 C139 1.008 . S
C529 C175 1.032 . S
C537 C73 0.968 . S
C561 C74 1.539 . S
C569 C8 1.550 . S
C593 C40 1.554 . S
C601 C52 1.546 . S
C625 C164 1.557 . S
C633 C96 1.555 . S
C657 C118 1.543 . S
C665 C140 1.547 . S
C689 C18 1.463 . S
C697 C59 1.495 . S
C721 C32 1.504 . S
C729 C81 1.497 . S
C753 C62 1.435 . S
C761 C15 1.510 . S
C785 C84 1.501 . S
C793 C43 1.495 . S
C817 C106 1.443 . S
C825 C147 1.513 . S
C849 C128 1.471 . S
C857 C161 1.516 . S
C881 C150 1.467 . S
C889 C103 1.516 . S
C913 C125 1.508 . S
C921 C162 1.460 . S
