# Generated by pormake.
# Topology ukc, (4)-cn, num edge types: 1
# Building blocks:
#     Node 0, Type 0, BuildingBlock: CEKHIL_clean_sbu_0, # of connection points: 4
#     Node 1, Type 0, BuildingBlock: CEKHIL_clean_sbu_0, # of connection points: 4
#     Node 2, Type 0, BuildingBlock: CEKHIL_clean_sbu_0, # of connection points: 4
#     Node 3, Type 0, BuildingBlock: CEKHIL_clean_sbu_0, # of connection points: 4
#     Node 4, Type 0, BuildingBlock: CEKHIL_clean_sbu_0, # of connection points: 4
#     Node 5, Type 0, BuildingBlock: CEKHIL_clean_sbu_0, # of connection points: 4
#     Node 6, Type 0, BuildingBlock: CEKHIL_clean_sbu_0, # of connection points: 4
#     Node 7, Type 0, BuildingBlock: CEKHIL_clean_sbu_0, # of connection points: 4
#     Node 8, Type 0, BuildingBlock: CEKHIL_clean_sbu_0, # of connection points: 4
#     Node 9, Type 0, BuildingBlock: CEKHIL_clean_sbu_0, # of connection points: 4
#     Node 10, Type 0, BuildingBlock: CEKHIL_clean_sbu_0, # of connection points: 4
#     Node 11, Type 0, BuildingBlock: CEKHIL_clean_sbu_0, # of connection points: 4
#     Node 12, Type 0, BuildingBlock: CEKHIL_clean_sbu_0, # of connection points: 4
#     Node 13, Type 0, BuildingBlock: CEKHIL_clean_sbu_0, # of connection points: 4
#     Node 14, Type 0, BuildingBlock: CEKHIL_clean_sbu_0, # of connection points: 4
#     Node 15, Type 0, BuildingBlock: CEKHIL_clean_sbu_0, # of connection points: 4
#     Node 16, Type 0, BuildingBlock: CEKHIL_clean_sbu_0, # of connection points: 4
#     Node 17, Type 0, BuildingBlock: CEKHIL_clean_sbu_0, # of connection points: 4
#     Node 18, Type 0, BuildingBlock: CEKHIL_clean_sbu_0, # of connection points: 4
#     Node 19, Type 0, BuildingBlock: CEKHIL_clean_sbu_0, # of connection points: 4
#     Node 20, Type 0, BuildingBlock: CEKHIL_clean_sbu_0, # of connection points: 4
#     Node 21, Type 0, BuildingBlock: CEKHIL_clean_sbu_0, # of connection points: 4
#     Node 22, Type 0, BuildingBlock: CEKHIL_clean_sbu_0, # of connection points: 4
#     Node 23, Type 0, BuildingBlock: CEKHIL_clean_sbu_0, # of connection points: 4
#     Node 24, Type 0, BuildingBlock: CEKHIL_clean_sbu_0, # of connection points: 4
#     Node 25, Type 0, BuildingBlock: CEKHIL_clean_sbu_0, # of connection points: 4
#     Node 26, Type 0, BuildingBlock: CEKHIL_clean_sbu_0, # of connection points: 4
#     Node 27, Type 0, BuildingBlock: CEKHIL_clean_sbu_0, # of connection points: 4
#     Node 28, Type 0, BuildingBlock: CEKHIL_clean_sbu_0, # of connection points: 4
#     Node 29, Type 0, BuildingBlock: CEKHIL_clean_sbu_0, # of connection points: 4
#     Node 30, Type 0, BuildingBlock: CEKHIL_clean_sbu_0, # of connection points: 4
#     Node 31, Type 0, BuildingBlock: CEKHIL_clean_sbu_0, # of connection points: 4
#     Edge 32, Type (0, 0), BuildingBlock: MIFKUJ_clean_linker_0, # of connection points: 2
#     Edge 33, Type (0, 0), BuildingBlock: MIFKUJ_clean_linker_0, # of connection points: 2
#     Edge 34, Type (0, 0), BuildingBlock: MIFKUJ_clean_linker_0, # of connection points: 2
#     Edge 35, Type (0, 0), BuildingBlock: MIFKUJ_clean_linker_0, # of connection points: 2
#     Edge 36, Type (0, 0), BuildingBlock: MIFKUJ_clean_linker_0, # of connection points: 2
#     Edge 37, Type (0, 0), BuildingBlock: MIFKUJ_clean_linker_0, # of connection points: 2
#     Edge 38, Type (0, 0), BuildingBlock: MIFKUJ_clean_linker_0, # of connection points: 2
#     Edge 39, Type (0, 0), BuildingBlock: MIFKUJ_clean_linker_0, # of connection points: 2
#     Edge 40, Type (0, 0), BuildingBlock: MIFKUJ_clean_linker_0, # of connection points: 2
#     Edge 41, Type (0, 0), BuildingBlock: MIFKUJ_clean_linker_0, # of connection points: 2
#     Edge 42, Type (0, 0), BuildingBlock: MIFKUJ_clean_linker_0, # of connection points: 2
#     Edge 43, Type (0, 0), BuildingBlock: MIFKUJ_clean_linker_0, # of connection points: 2
#     Edge 44, Type (0, 0), BuildingBlock: MIFKUJ_clean_linker_0, # of connection points: 2
#     Edge 45, Type (0, 0), BuildingBlock: MIFKUJ_clean_linker_0, # of connection points: 2
#     Edge 46, Type (0, 0), BuildingBlock: MIFKUJ_clean_linker_0, # of connection points: 2
#     Edge 47, Type (0, 0), BuildingBlock: MIFKUJ_clean_linker_0, # of connection points: 2
#     Edge 48, Type (0, 0), BuildingBlock: MIFKUJ_clean_linker_0, # of connection points: 2
#     Edge 49, Type (0, 0), BuildingBlock: MIFKUJ_clean_linker_0, # of connection points: 2
#     Edge 50, Type (0, 0), BuildingBlock: MIFKUJ_clean_linker_0, # of connection points: 2
#     Edge 51, Type (0, 0), BuildingBlock: MIFKUJ_clean_linker_0, # of connection points: 2
#     Edge 52, Type (0, 0), BuildingBlock: MIFKUJ_clean_linker_0, # of connection points: 2
#     Edge 53, Type (0, 0), BuildingBlock: MIFKUJ_clean_linker_0, # of connection points: 2
#     Edge 54, Type (0, 0), BuildingBlock: MIFKUJ_clean_linker_0, # of connection points: 2
#     Edge 55, Type (0, 0), BuildingBlock: MIFKUJ_clean_linker_0, # of connection points: 2
#     Edge 56, Type (0, 0), BuildingBlock: MIFKUJ_clean_linker_0, # of connection points: 2
#     Edge 57, Type (0, 0), BuildingBlock: MIFKUJ_clean_linker_0, # of connection points: 2
#     Edge 58, Type (0, 0), BuildingBlock: MIFKUJ_clean_linker_0, # of connection points: 2
#     Edge 59, Type (0, 0), BuildingBlock: MIFKUJ_clean_linker_0, # of connection points: 2
#     Edge 60, Type (0, 0), BuildingBlock: MIFKUJ_clean_linker_0, # of connection points: 2
#     Edge 61, Type (0, 0), BuildingBlock: MIFKUJ_clean_linker_0, # of connection points: 2
#     Edge 62, Type (0, 0), BuildingBlock: MIFKUJ_clean_linker_0, # of connection points: 2
#     Edge 63, Type (0, 0), BuildingBlock: MIFKUJ_clean_linker_0, # of connection points: 2
#     Edge 64, Type (0, 0), BuildingBlock: MIFKUJ_clean_linker_0, # of connection points: 2
#     Edge 65, Type (0, 0), BuildingBlock: MIFKUJ_clean_linker_0, # of connection points: 2
#     Edge 66, Type (0, 0), BuildingBlock: MIFKUJ_clean_linker_0, # of connection points: 2
#     Edge 67, Type (0, 0), BuildingBlock: MIFKUJ_clean_linker_0, # of connection points: 2
#     Edge 68, Type (0, 0), BuildingBlock: MIFKUJ_clean_linker_0, # of connection points: 2
#     Edge 69, Type (0, 0), BuildingBlock: MIFKUJ_clean_linker_0, # of connection points: 2
#     Edge 70, Type (0, 0), BuildingBlock: MIFKUJ_clean_linker_0, # of connection points: 2
#     Edge 71, Type (0, 0), BuildingBlock: MIFKUJ_clean_linker_0, # of connection points: 2
#     Edge 72, Type (0, 0), BuildingBlock: MIFKUJ_clean_linker_0, # of connection points: 2
#     Edge 73, Type (0, 0), BuildingBlock: MIFKUJ_clean_linker_0, # of connection points: 2
#     Edge 74, Type (0, 0), BuildingBlock: MIFKUJ_clean_linker_0, # of connection points: 2
#     Edge 75, Type (0, 0), BuildingBlock: MIFKUJ_clean_linker_0, # of connection points: 2
#     Edge 76, Type (0, 0), BuildingBlock: MIFKUJ_clean_linker_0, # of connection points: 2
#     Edge 77, Type (0, 0), BuildingBlock: MIFKUJ_clean_linker_0, # of connection points: 2
#     Edge 78, Type (0, 0), BuildingBlock: MIFKUJ_clean_linker_0, # of connection points: 2
#     Edge 79, Type (0, 0), BuildingBlock: MIFKUJ_clean_linker_0, # of connection points: 2
#     Edge 80, Type (0, 0), BuildingBlock: MIFKUJ_clean_linker_0, # of connection points: 2
#     Edge 81, Type (0, 0), BuildingBlock: MIFKUJ_clean_linker_0, # of connection points: 2
#     Edge 82, Type (0, 0), BuildingBlock: MIFKUJ_clean_linker_0, # of connection points: 2
#     Edge 83, Type (0, 0), BuildingBlock: MIFKUJ_clean_linker_0, # of connection points: 2
#     Edge 84, Type (0, 0), BuildingBlock: MIFKUJ_clean_linker_0, # of connection points: 2
#     Edge 85, Type (0, 0), BuildingBlock: MIFKUJ_clean_linker_0, # of connection points: 2
#     Edge 86, Type (0, 0), BuildingBlock: MIFKUJ_clean_linker_0, # of connection points: 2
#     Edge 87, Type (0, 0), BuildingBlock: MIFKUJ_clean_linker_0, # of connection points: 2
#     Edge 88, Type (0, 0), BuildingBlock: MIFKUJ_clean_linker_0, # of connection points: 2
#     Edge 89, Type (0, 0), BuildingBlock: MIFKUJ_clean_linker_0, # of connection points: 2
#     Edge 90, Type (0, 0), BuildingBlock: MIFKUJ_clean_linker_0, # of connection points: 2
#     Edge 91, Type (0, 0), BuildingBlock: MIFKUJ_clean_linker_0, # of connection points: 2
#     Edge 92, Type (0, 0), BuildingBlock: MIFKUJ_clean_linker_0, # of connection points: 2
#     Edge 93, Type (0, 0), BuildingBlock: MIFKUJ_clean_linker_0, # of connection points: 2
#     Edge 94, Type (0, 0), BuildingBlock: MIFKUJ_clean_linker_0, # of connection points: 2
#     Edge 95, Type (0, 0), BuildingBlock: MIFKUJ_clean_linker_0, # of connection points: 2
# Relax obj value: 0.049
# Max RMSD: 0.067
# Mean RMSD: 0.067
data_MOF--net-ukc--node1-CEKHIL_clean_sbu_0--edge1-MIFKUJ_clean_linker_0
_symmetry_space_group_name_H-M    P1
_symmetry_Int_Tables_number       1
_symmetry_cell_setting            triclinic
loop_
_symmetry_equiv_pos_as_xyz
'x, y, z'
_cell_length_a     57.802837
_cell_length_b     57.805313
_cell_length_c     111.56722
_cell_angle_alpha  89.997893
_cell_angle_beta   89.998895
_cell_angle_gamma 89.998414
loop_
_atom_site_label
_atom_site_type_symbol
_atom_site_fract_x
_atom_site_fract_y
_atom_site_fract_z
_atom_type_partial_charge
Co0 Co 0.11198 0.38949 0.04343 0.0
O1 O 0.13834 0.40876 0.03929 0.0
O2 O 0.12834 0.37688 0.02971 0.0
C3 C 0.1193 0.38831 0.06341 0.0
O4 O 0.08715 0.36426 0.0451 0.0
Co5 Co 0.07283 0.40488 0.0609 0.0
O6 O 0.06551 0.37143 0.06141 0.0
C7 C 0.07247 0.42101 0.03559 0.0
C8 C 0.14296 0.3938 0.03095 0.0
C9 C 0.07186 0.35816 0.05292 0.0
O10 O 0.09064 0.40898 0.03296 0.0
O11 O 0.06373 0.42219 0.04611 0.0
O12 O 0.13016 0.37455 0.05612 0.0
O13 O 0.10579 0.40316 0.05838 0.0
Co14 Co 0.8645 0.86225 0.29265 0.0
O15 O 0.84581 0.88955 0.28979 0.0
O16 O 0.87518 0.87873 0.27848 0.0
C17 C 0.86943 0.86851 0.31256 0.0
O18 O 0.88876 0.83626 0.293 0.0
Co19 Co 0.84902 0.82328 0.31025 0.0
O20 O 0.88112 0.81187 0.3082 0.0
C21 C 0.8264 0.82803 0.2866 0.0
C22 C 0.85919 0.89397 0.28073 0.0
C23 C 0.89417 0.81891 0.29975 0.0
O24 O 0.84215 0.84233 0.28299 0.0
O25 O 0.82502 0.82072 0.29741 0.0
O26 O 0.88241 0.8792 0.30482 0.0
O27 O 0.85317 0.85606 0.30803 0.0
Co28 Co 0.39852 0.62095 0.54372 0.0
O29 O 0.37203 0.60108 0.54085 0.0
O30 O 0.38145 0.63107 0.52965 0.0
C31 C 0.39233 0.62537 0.56368 0.0
O32 O 0.42326 0.64648 0.54401 0.0
Co33 Co 0.43859 0.60747 0.56121 0.0
O34 O 0.45023 0.63904 0.55808 0.0
C35 C 0.43712 0.58741 0.53676 0.0
C36 C 0.36692 0.61444 0.53187 0.0
C37 C 0.44159 0.65192 0.54998 0.0
O38 O 0.41943 0.59988 0.53379 0.0
O39 O 0.44582 0.58708 0.5473 0.0
O40 O 0.38087 0.63779 0.556 0.0
O41 O 0.40556 0.60978 0.55911 0.0
Co42 Co 0.64385 0.14328 0.79213 0.0
O43 O 0.66257 0.11595 0.7893 0.0
O44 O 0.63307 0.12668 0.77806 0.0
C45 C 0.63895 0.13747 0.81209 0.0
O46 O 0.61939 0.16898 0.79244 0.0
Co47 Co 0.65948 0.18284 0.80929 0.0
O48 O 0.62856 0.1963 0.80605 0.0
C49 C 0.68213 0.17714 0.78582 0.0
C50 C 0.64908 0.11147 0.78028 0.0
C51 C 0.61493 0.18778 0.79823 0.0
O52 O 0.66602 0.16316 0.78229 0.0
O53 O 0.68387 0.18438 0.79662 0.0
O54 O 0.62611 0.12647 0.8044 0.0
O55 O 0.6552 0.14988 0.8075 0.0
Co56 Co 0.11186 0.61299 0.46092 0.0
O57 O 0.13921 0.59487 0.46444 0.0
O58 O 0.12746 0.62469 0.47516 0.0
C59 C 0.1191 0.61706 0.44104 0.0
O60 O 0.08554 0.63675 0.45973 0.0
Co61 Co 0.07426 0.59548 0.44302 0.0
O62 O 0.06333 0.62799 0.4438 0.0
C63 C 0.07736 0.57514 0.46729 0.0
C64 C 0.14302 0.6088 0.47335 0.0
C65 C 0.06923 0.64166 0.45223 0.0
O66 O 0.09165 0.59107 0.47069 0.0
O67 O 0.07054 0.57278 0.45644 0.0
O68 O 0.12919 0.63053 0.44876 0.0
O69 O 0.10679 0.60072 0.44561 0.0
Co70 Co 0.64147 0.85663 0.70959 0.0
O71 O 0.66081 0.88327 0.71291 0.0
O72 O 0.63163 0.87203 0.72424 0.0
C73 C 0.63609 0.86495 0.6899 0.0
O74 O 0.61655 0.83127 0.70888 0.0
Co75 Co 0.65505 0.81897 0.69089 0.0
O76 O 0.6225 0.80886 0.69271 0.0
C77 C 0.6785 0.8204 0.71451 0.0
C78 C 0.64777 0.88719 0.72217 0.0
C79 C 0.61013 0.81515 0.70158 0.0
O80 O 0.66377 0.83537 0.71855 0.0
O81 O 0.67889 0.8137 0.70358 0.0
O82 O 0.62357 0.87511 0.69802 0.0
O83 O 0.65212 0.85163 0.69396 0.0
Co84 Co 0.3988 0.38933 0.96114 0.0
O85 O 0.37163 0.40792 0.96457 0.0
O86 O 0.38296 0.37793 0.97532 0.0
C87 C 0.3918 0.38515 0.94127 0.0
O88 O 0.4246 0.36498 0.96022 0.0
Co89 Co 0.4372 0.40535 0.94337 0.0
O90 O 0.45009 0.37389 0.94567 0.0
C91 C 0.433 0.4274 0.96717 0.0
C92 C 0.36764 0.39402 0.97348 0.0
C93 C 0.44252 0.36027 0.95375 0.0
O94 O 0.4191 0.41135 0.97083 0.0
O95 O 0.43976 0.42917 0.95628 0.0
O96 O 0.38142 0.37188 0.94899 0.0
O97 O 0.4044 0.40129 0.94581 0.0
Co98 Co 0.86475 0.14827 0.20917 0.0
O99 O 0.84552 0.12156 0.21236 0.0
O100 O 0.87446 0.1328 0.22387 0.0
C101 C 0.86989 0.13977 0.1895 0.0
O102 O 0.88964 0.17371 0.20843 0.0
Co103 Co 0.85158 0.18569 0.19019 0.0
O104 O 0.88471 0.19405 0.19144 0.0
C105 C 0.82878 0.18565 0.21411 0.0
C106 C 0.85851 0.11753 0.22161 0.0
C107 C 0.89669 0.1886 0.2006 0.0
O108 O 0.84247 0.16964 0.21809 0.0
O109 O 0.82889 0.19256 0.2032 0.0
O110 O 0.88264 0.12977 0.19757 0.0
O111 O 0.85401 0.15319 0.19359 0.0
Co112 Co 0.89503 0.6143 0.96246 0.0
O113 O 0.86873 0.59462 0.96596 0.0
O114 O 0.87845 0.62538 0.97652 0.0
C115 C 0.88789 0.61705 0.94251 0.0
O116 O 0.91971 0.63986 0.96134 0.0
Co117 Co 0.93443 0.60035 0.9448 0.0
O118 O 0.94045 0.63406 0.94456 0.0
C119 C 0.93479 0.58249 0.96977 0.0
C120 C 0.86386 0.60861 0.97471 0.0
C121 C 0.93429 0.64676 0.95333 0.0
O122 O 0.91642 0.5941 0.97255 0.0
O123 O 0.94371 0.58219 0.95927 0.0
O124 O 0.8768 0.63012 0.95005 0.0
O125 O 0.90146 0.60194 0.94727 0.0
Co126 Co 0.14101 0.14851 0.71148 0.0
O127 O 0.15933 0.12096 0.71417 0.0
O128 O 0.13006 0.13182 0.72555 0.0
C129 C 0.1364 0.14276 0.69152 0.0
O130 O 0.11688 0.17461 0.71114 0.0
Co131 Co 0.15739 0.18781 0.69431 0.0
O132 O 0.12628 0.20113 0.69715 0.0
C133 C 0.17977 0.18171 0.71787 0.0
C134 C 0.14586 0.11645 0.72318 0.0
C135 C 0.11254 0.19313 0.70506 0.0
O136 O 0.16345 0.16795 0.72137 0.0
O137 O 0.18161 0.189 0.70708 0.0
O138 O 0.12312 0.13208 0.69913 0.0
O139 O 0.15268 0.15496 0.6962 0.0
Co140 Co 0.60637 0.389 0.462 0.0
O141 O 0.63285 0.40856 0.46517 0.0
O142 O 0.62263 0.37872 0.47635 0.0
C143 C 0.61393 0.38507 0.44216 0.0
O144 O 0.58143 0.36361 0.46114 0.0
Co145 Co 0.5676 0.40256 0.44383 0.0
O146 O 0.56045 0.36912 0.44442 0.0
C147 C 0.56693 0.42185 0.46851 0.0
C148 C 0.63743 0.39514 0.47418 0.0
C149 C 0.56645 0.3567 0.45332 0.0
O150 O 0.58497 0.41004 0.47163 0.0
O151 O 0.55852 0.42183 0.4579 0.0
O152 O 0.62469 0.37225 0.44993 0.0
O153 O 0.6004 0.40053 0.44661 0.0
Co154 Co 0.36768 0.85945 0.21113 0.0
O155 O 0.34873 0.88661 0.21377 0.0
O156 O 0.37752 0.87592 0.22549 0.0
C157 C 0.37328 0.86611 0.19127 0.0
O158 O 0.39221 0.83366 0.21095 0.0
Co159 Co 0.35335 0.82061 0.19321 0.0
O160 O 0.38634 0.81157 0.19463 0.0
C161 C 0.3299 0.8244 0.21674 0.0
C162 C 0.36164 0.89113 0.22299 0.0
C163 C 0.39875 0.81786 0.2035 0.0
O164 O 0.34504 0.83923 0.2205 0.0
O165 O 0.32924 0.81691 0.20594 0.0
O166 O 0.38592 0.87672 0.19918 0.0
O167 O 0.35702 0.85339 0.1956 0.0
Co168 Co 0.89452 0.39253 0.54325 0.0
O169 O 0.86663 0.41059 0.54095 0.0
O170 O 0.8776 0.38191 0.5292 0.0
C171 C 0.88966 0.38683 0.56321 0.0
O172 O 0.92092 0.36881 0.54311 0.0
Co173 Co 0.93421 0.40918 0.56008 0.0
O174 O 0.94792 0.37836 0.55681 0.0
C175 C 0.92756 0.4315 0.53661 0.0
C176 C 0.86209 0.39742 0.53183 0.0
C177 C 0.93981 0.36468 0.5489 0.0
O178 O 0.91347 0.41532 0.53332 0.0
O179 O 0.9353 0.43344 0.5473 0.0
O180 O 0.8787 0.37396 0.55553 0.0
O181 O 0.90139 0.4036 0.55864 0.0
Co182 Co 0.36541 0.14678 0.29308 0.0
O183 O 0.34572 0.12054 0.28954 0.0
O184 O 0.37519 0.1315 0.27836 0.0
C185 C 0.37036 0.13747 0.31261 0.0
O186 O 0.39074 0.1717 0.29406 0.0
Co187 Co 0.35293 0.18392 0.3122 0.0
O188 O 0.38632 0.19136 0.31129 0.0
C189 C 0.33196 0.18643 0.28787 0.0
C190 C 0.35889 0.11646 0.28036 0.0
C191 C 0.39817 0.18598 0.30208 0.0
O192 O 0.34379 0.1688 0.28418 0.0
O193 O 0.33255 0.19387 0.29868 0.0
O194 O 0.38302 0.12771 0.30444 0.0
O195 O 0.35452 0.15129 0.3088 0.0
Co196 Co 0.60732 0.617 0.04464 0.0
O197 O 0.63483 0.59837 0.04219 0.0
O198 O 0.62424 0.62733 0.03055 0.0
C199 C 0.61251 0.6224 0.0646 0.0
O200 O 0.58143 0.64133 0.04457 0.0
Co201 Co 0.56741 0.60162 0.06169 0.0
O202 O 0.55439 0.63268 0.05841 0.0
C203 C 0.57396 0.57821 0.03845 0.0
C204 C 0.63945 0.61147 0.03305 0.0
C205 C 0.56275 0.64605 0.05043 0.0
O206 O 0.5879 0.59431 0.03486 0.0
O207 O 0.56641 0.57688 0.04921 0.0
O208 O 0.62367 0.63517 0.05694 0.0
O209 O 0.60034 0.60603 0.05999 0.0
Co210 Co 0.14014 0.85959 0.79278 0.0
O211 O 0.1585 0.88705 0.78982 0.0
O212 O 0.12877 0.87614 0.77878 0.0
C213 C 0.136 0.86536 0.81276 0.0
O214 O 0.11601 0.83353 0.79336 0.0
Co215 Co 0.15713 0.82036 0.80986 0.0
O216 O 0.12586 0.80718 0.80734 0.0
C217 C 0.17864 0.82626 0.7861 0.0
C218 C 0.14474 0.89146 0.78091 0.0
C219 C 0.11187 0.81507 0.79952 0.0
O220 O 0.16219 0.83998 0.78273 0.0
O221 O 0.18091 0.81908 0.79688 0.0
O222 O 0.12269 0.87621 0.80523 0.0
O223 O 0.15218 0.85316 0.80798 0.0
Co224 Co 0.6126 0.89437 0.54194 0.0
O225 O 0.6388 0.91373 0.53763 0.0
O226 O 0.62862 0.8819 0.52806 0.0
C227 C 0.62047 0.89277 0.56185 0.0
O228 O 0.5879 0.86907 0.54379 0.0
Co229 Co 0.57409 0.91019 0.5598 0.0
O230 O 0.56319 0.87784 0.5587 0.0
C231 C 0.57299 0.92624 0.53451 0.0
C232 C 0.64327 0.89881 0.52925 0.0
C233 C 0.57064 0.86407 0.55066 0.0
O234 O 0.59081 0.91386 0.53167 0.0
O235 O 0.56501 0.92786 0.54517 0.0
O236 O 0.63122 0.87928 0.5544 0.0
O237 O 0.60691 0.9078 0.55701 0.0
Co238 Co 0.37088 0.35734 0.79317 0.0
O239 O 0.35223 0.38485 0.79084 0.0
O240 O 0.38077 0.37411 0.77895 0.0
C241 C 0.37709 0.36274 0.81304 0.0
O242 O 0.3951 0.33133 0.79297 0.0
Co243 Co 0.35577 0.31771 0.81046 0.0
O244 O 0.3871 0.30519 0.80736 0.0
C245 C 0.33187 0.32395 0.78735 0.0
C246 C 0.36507 0.3894 0.78158 0.0
C247 C 0.40016 0.31305 0.7991 0.0
O248 O 0.34788 0.33786 0.78365 0.0
O249 O 0.33074 0.31646 0.79813 0.0
O250 O 0.3895 0.37386 0.80521 0.0
O251 O 0.36048 0.35055 0.80866 0.0
Co252 Co 0.89863 0.11625 0.04157 0.0
O253 O 0.87299 0.09618 0.03728 0.0
O254 O 0.88274 0.12787 0.02747 0.0
C255 C 0.89015 0.11797 0.06139 0.0
O256 O 0.92266 0.14224 0.04337 0.0
Co257 Co 0.9371 0.10268 0.05987 0.0
O258 O 0.94329 0.13635 0.06017 0.0
C259 C 0.93909 0.08502 0.03484 0.0
C260 C 0.86839 0.11072 0.02872 0.0
C261 C 0.93712 0.14912 0.05144 0.0
O262 O 0.92106 0.09682 0.03168 0.0
O263 O 0.94694 0.08442 0.04556 0.0
O264 O 0.87929 0.13115 0.05382 0.0
O265 O 0.90434 0.10336 0.05671 0.0
Co266 Co 0.13816 0.64921 0.29295 0.0
O267 O 0.15708 0.62193 0.29052 0.0
O268 O 0.12843 0.63244 0.27867 0.0
C269 C 0.13227 0.64322 0.31284 0.0
O270 O 0.11364 0.67503 0.29289 0.0
Co271 Co 0.15269 0.68858 0.31051 0.0
O272 O 0.12032 0.69906 0.30837 0.0
C273 C 0.17635 0.68372 0.28715 0.0
C274 C 0.14427 0.61726 0.28128 0.0
C275 C 0.10764 0.69203 0.29976 0.0
O276 O 0.16092 0.66913 0.28347 0.0
O277 O 0.17716 0.69134 0.29792 0.0
O278 O 0.11979 0.63228 0.30497 0.0
O279 O 0.14864 0.65574 0.30846 0.0
Co280 Co 0.61111 0.11572 0.9604 0.0
O281 O 0.63826 0.09702 0.96369 0.0
O282 O 0.6275 0.12731 0.97437 0.0
C283 C 0.61743 0.1197 0.94043 0.0
O284 O 0.58535 0.14013 0.95958 0.0
Co285 Co 0.5721 0.09902 0.94316 0.0
O286 O 0.55886 0.13028 0.94568 0.0
C287 C 0.5773 0.07762 0.96699 0.0
C288 C 0.64262 0.11105 0.97248 0.0
C289 C 0.56687 0.14432 0.95345 0.0
O290 O 0.59102 0.09403 0.9704 0.0
O291 O 0.57037 0.07528 0.95617 0.0
O292 O 0.62822 0.13287 0.94804 0.0
O293 O 0.60496 0.10361 0.94513 0.0
Co294 Co 0.13939 0.36123 0.21158 0.0
O295 O 0.15981 0.38689 0.21525 0.0
O296 O 0.12933 0.37723 0.22602 0.0
C297 C 0.13585 0.36986 0.19181 0.0
O298 O 0.11321 0.3372 0.21041 0.0
Co299 Co 0.15131 0.32282 0.19297 0.0
O300 O 0.11757 0.317 0.19334 0.0
C301 C 0.1712 0.32064 0.21756 0.0
C302 C 0.14624 0.39165 0.22419 0.0
C303 C 0.10556 0.323 0.20239 0.0
O304 O 0.1597 0.3387 0.22098 0.0
O305 O 0.17087 0.31288 0.20681 0.0
O306 O 0.12337 0.38064 0.19972 0.0
O307 O 0.15081 0.35558 0.19611 0.0
Co308 Co 0.8998 0.88712 0.4607 0.0
O309 O 0.87436 0.90783 0.46448 0.0
O310 O 0.88357 0.87685 0.47499 0.0
C311 C 0.89142 0.88414 0.44088 0.0
O312 O 0.92349 0.86066 0.45956 0.0
Co313 Co 0.93862 0.89842 0.44221 0.0
O314 O 0.9443 0.86465 0.44267 0.0
C315 C 0.94032 0.91877 0.46674 0.0
C316 C 0.86945 0.89405 0.47332 0.0
C317 C 0.93788 0.85281 0.4517 0.0
O318 O 0.92243 0.90705 0.47022 0.0
O319 O 0.94799 0.91846 0.45597 0.0
O320 O 0.88036 0.87157 0.44866 0.0
O321 O 0.90585 0.89875 0.44533 0.0
Co322 Co 0.36605 0.64604 0.71182 0.0
O323 O 0.34798 0.61841 0.71471 0.0
O324 O 0.37704 0.62989 0.72605 0.0
C325 C 0.371 0.63966 0.69192 0.0
O326 O 0.38978 0.67251 0.71131 0.0
Co327 Co 0.34931 0.68438 0.69414 0.0
O328 O 0.38119 0.69647 0.69606 0.0
C329 C 0.32718 0.67944 0.71787 0.0
C330 C 0.36141 0.61429 0.72378 0.0
C331 C 0.39463 0.68985 0.70445 0.0
O332 O 0.34334 0.6656 0.72147 0.0
O333 O 0.32539 0.68651 0.70704 0.0
O334 O 0.38429 0.62937 0.69966 0.0
O335 O 0.3545 0.65177 0.69645 0.0
Co336 Co 0.39244 0.1153 0.46096 0.0
O337 O 0.36619 0.09538 0.46424 0.0
O338 O 0.37616 0.1254 0.4753 0.0
C339 C 0.38466 0.1191 0.4411 0.0
O340 O 0.41702 0.14095 0.46024 0.0
Co341 Co 0.43132 0.10327 0.44263 0.0
O342 O 0.43773 0.13691 0.44331 0.0
C343 C 0.43257 0.0833 0.46724 0.0
C344 C 0.3615 0.10879 0.47326 0.0
C345 C 0.43164 0.14863 0.45245 0.0
O346 O 0.4142 0.09448 0.47049 0.0
O347 O 0.44093 0.08394 0.45662 0.0
O348 O 0.37393 0.13193 0.44889 0.0
O349 O 0.39849 0.1039 0.44554 0.0
Co350 Co 0.64094 0.64517 0.21241 0.0
O351 O 0.65968 0.61788 0.21499 0.0
O352 O 0.63134 0.62902 0.22693 0.0
C353 C 0.63475 0.63844 0.19264 0.0
O354 O 0.61667 0.67119 0.21224 0.0
Co355 Co 0.65544 0.68366 0.19427 0.0
O356 O 0.62247 0.69279 0.19572 0.0
C357 C 0.67905 0.67999 0.21774 0.0
C358 C 0.647 0.61364 0.22433 0.0
C359 C 0.61013 0.68679 0.20467 0.0
O360 O 0.66386 0.66531 0.22158 0.0
O361 O 0.6797 0.68734 0.20692 0.0
O362 O 0.62225 0.62794 0.20066 0.0
O363 O 0.65128 0.65097 0.19683 0.0
Co364 Co 0.10996 0.88721 0.96093 0.0
O365 O 0.1358 0.90722 0.96496 0.0
O366 O 0.12566 0.87619 0.97522 0.0
C367 C 0.11852 0.88431 0.94114 0.0
O368 O 0.08561 0.86144 0.95948 0.0
Co369 Co 0.07178 0.90037 0.94238 0.0
O370 O 0.06472 0.86687 0.94272 0.0
C371 C 0.0699 0.91932 0.96716 0.0
C372 C 0.14017 0.89314 0.97375 0.0
C373 C 0.07079 0.85445 0.95161 0.0
O374 O 0.08773 0.90741 0.9705 0.0
O375 O 0.06214 0.91952 0.95641 0.0
O376 O 0.12916 0.87138 0.94891 0.0
O377 O 0.10451 0.89935 0.94559 0.0
Co378 Co 0.86702 0.36081 0.71155 0.0
O379 O 0.84806 0.38777 0.71498 0.0
O380 O 0.87854 0.37711 0.72554 0.0
C381 C 0.87074 0.36734 0.69158 0.0
O382 O 0.89174 0.33538 0.71064 0.0
Co383 Co 0.85105 0.32167 0.69421 0.0
O384 O 0.88264 0.3091 0.69652 0.0
C385 C 0.82955 0.32626 0.71808 0.0
C386 C 0.86215 0.39212 0.72376 0.0
C387 C 0.89642 0.31717 0.70439 0.0
O388 O 0.84563 0.34034 0.72153 0.0
O389 O 0.82743 0.3193 0.70725 0.0
O390 O 0.88385 0.37825 0.69918 0.0
O391 O 0.85488 0.3546 0.6963 0.0
Co392 Co 0.39647 0.89191 0.04301 0.0
O393 O 0.36925 0.91055 0.03973 0.0
O394 O 0.38006 0.88025 0.02907 0.0
C395 C 0.39033 0.88806 0.06299 0.0
O396 O 0.42215 0.86745 0.04381 0.0
Co397 Co 0.43575 0.90831 0.06014 0.0
O398 O 0.4485 0.87677 0.05786 0.0
C399 C 0.43044 0.92979 0.03632 0.0
C400 C 0.36487 0.89644 0.03096 0.0
C401 C 0.44043 0.8629 0.05002 0.0
O402 O 0.41653 0.91352 0.03294 0.0
O403 O 0.43757 0.93202 0.04712 0.0
O404 O 0.37943 0.87487 0.05543 0.0
O405 O 0.40282 0.90408 0.05824 0.0
Co406 Co 0.86648 0.64712 0.79432 0.0
O407 O 0.84754 0.62012 0.79099 0.0
O408 O 0.87735 0.63124 0.78005 0.0
C409 C 0.87115 0.63999 0.81417 0.0
O410 O 0.89117 0.67263 0.79503 0.0
Co411 Co 0.85161 0.68573 0.81221 0.0
O412 O 0.88302 0.6984 0.80955 0.0
C413 C 0.82898 0.68224 0.78849 0.0
C414 C 0.86119 0.61604 0.78198 0.0
C415 C 0.89626 0.69062 0.80136 0.0
O416 O 0.84443 0.6677 0.78478 0.0
O417 O 0.8278 0.68921 0.79936 0.0
O418 O 0.88403 0.62947 0.80633 0.0
O419 O 0.85507 0.65286 0.80977 0.0
Co420 Co 0.10615 0.11778 0.54379 0.0
O421 O 0.1325 0.09779 0.54085 0.0
O422 O 0.12246 0.12708 0.52931 0.0
C423 C 0.11356 0.12335 0.56356 0.0
O424 O 0.0814 0.14335 0.54414 0.0
Co425 Co 0.06729 0.10518 0.56214 0.0
O426 O 0.05622 0.13701 0.5592 0.0
C427 C 0.06771 0.08314 0.53814 0.0
C428 C 0.13718 0.11065 0.53163 0.0
C429 C 0.06392 0.1494 0.55064 0.0
O430 O 0.08468 0.09604 0.53456 0.0
O431 O 0.06007 0.0832 0.5489 0.0
O432 O 0.12453 0.13535 0.55552 0.0
O433 O 0.10011 0.1075 0.55943 0.0
Co434 Co 0.64092 0.35813 0.29443 0.0
O435 O 0.6604 0.38452 0.29079 0.0
O436 O 0.63058 0.37346 0.27987 0.0
C437 C 0.63647 0.36681 0.31413 0.0
O438 O 0.61573 0.33311 0.29547 0.0
Co439 Co 0.65407 0.32065 0.31336 0.0
O440 O 0.62094 0.31219 0.31224 0.0
C441 C 0.67636 0.32042 0.28931 0.0
C442 C 0.64691 0.38852 0.28172 0.0
C443 C 0.60877 0.31804 0.30322 0.0
O444 O 0.6626 0.33639 0.28537 0.0
O445 O 0.67651 0.31368 0.30025 0.0
O446 O 0.62366 0.37696 0.30613 0.0
O447 O 0.65213 0.35321 0.30995 0.0
H448 H 0.97999 0.58582 0.97526 0.0
H449 H 0.00327 0.5584 0.98674 0.0
H450 H 0.94168 0.51974 0.99548 0.0
H451 H 0.91813 0.54791 0.98427 0.0
H452 H 0.97144 0.5193 0.01392 0.0
H453 H 0.97719 0.50415 0.97169 0.0
H454 H 0.98447 0.51406 0.95052 0.0
H455 H 0.05448 0.53257 0.95911 0.0
H456 H 0.04752 0.52306 0.98036 0.0
H457 H 0.02745 0.41686 0.02988 0.0
H458 H 0.00399 0.44385 0.01821 0.0
H459 H 0.06526 0.48307 0.00952 0.0
H460 H 0.08897 0.45535 0.02093 0.0
H461 H 0.03551 0.48303 0.99099 0.0
H462 H 0.0297 0.49838 0.03323 0.0
H463 H 0.02243 0.48847 0.0544 0.0
H464 H 0.95254 0.46956 0.04579 0.0
H465 H 0.95949 0.47906 0.02453 0.0
C466 C 0.97136 0.5718 0.97991 0.0
C467 C 0.9473 0.56894 0.97892 0.0
C468 C 0.9847 0.55599 0.98636 0.0
C469 C 0.97436 0.53656 0.99167 0.0
C470 C 0.95008 0.53448 0.99136 0.0
C471 C 0.93661 0.55062 0.98504 0.0
C472 C 0.98908 0.51798 0.99696 0.0
C473 C 0.98522 0.51115 0.00885 0.0
C474 C 0.00746 0.50762 0.99044 0.0
C475 C 0.01177 0.51307 0.97763 0.0
C476 C 0.99409 0.51045 0.96908 0.0
C477 C 0.99817 0.51599 0.95706 0.0
C478 C 0.01991 0.52398 0.95348 0.0
C479 C 0.03764 0.52639 0.9619 0.0
C480 C 0.03365 0.52091 0.97393 0.0
C481 C 0.03598 0.43087 0.02517 0.0
C482 C 0.05998 0.43403 0.02624 0.0
C483 C 0.02254 0.44644 0.01863 0.0
C484 C 0.03272 0.46592 0.01328 0.0
C485 C 0.05697 0.46827 0.01365 0.0
C486 C 0.07054 0.45239 0.02008 0.0
C487 C 0.01788 0.48436 0.00796 0.0
C488 C 0.02171 0.49116 0.99606 0.0
C489 C 0.99948 0.49469 0.01447 0.0
C490 C 0.99518 0.48925 0.02728 0.0
C491 C 0.01282 0.49198 0.03584 0.0
C492 C 0.00875 0.48645 0.04786 0.0
C493 C 0.98705 0.47834 0.05143 0.0
C494 C 0.96934 0.47582 0.04301 0.0
C495 C 0.97333 0.4813 0.03098 0.0
H496 H 0.98394 0.47405 0.06074 0.0
H497 H 0.02303 0.52827 0.94417 0.0
H498 H 0.67329 0.6913 0.24152 0.0
H499 H 0.69875 0.71633 0.25353 0.0
H500 H 0.74788 0.71844 0.22445 0.0
H501 H 0.72275 0.69357 0.21254 0.0
H502 H 0.76979 0.71651 0.24592 0.0
H503 H 0.7087 0.76088 0.22752 0.0
H504 H 0.66804 0.7706 0.2231 0.0
H505 H 0.65516 0.78175 0.26056 0.0
H506 H 0.6957 0.77176 0.26522 0.0
H507 H 0.83307 0.81654 0.26289 0.0
H508 H 0.80781 0.79176 0.25063 0.0
H509 H 0.75738 0.79061 0.27912 0.0
H510 H 0.78224 0.81531 0.29124 0.0
H511 H 0.73616 0.79207 0.25783 0.0
H512 H 0.79688 0.74755 0.27635 0.0
H513 H 0.83736 0.73741 0.28096 0.0
H514 H 0.85081 0.7262 0.24356 0.0
H515 H 0.81045 0.7366 0.23871 0.0
C516 C 0.68981 0.6966 0.23785 0.0
C517 C 0.69596 0.69061 0.22607 0.0
C518 C 0.70424 0.71107 0.24466 0.0
C519 C 0.72505 0.7196 0.2398 0.0
C520 C 0.7319 0.71221 0.22838 0.0
C521 C 0.71748 0.698 0.22157 0.0
C522 C 0.73901 0.73748 0.24613 0.0
C523 C 0.76249 0.7331 0.24843 0.0
C524 C 0.72946 0.75909 0.24951 0.0
C525 C 0.70516 0.76533 0.24673 0.0
C526 C 0.69716 0.76525 0.23482 0.0
C527 C 0.67414 0.77082 0.23227 0.0
C528 C 0.65901 0.77672 0.24155 0.0
C529 C 0.66689 0.77714 0.25339 0.0
C530 C 0.68989 0.77153 0.25599 0.0
C531 C 0.81631 0.81153 0.26636 0.0
C532 C 0.80971 0.81773 0.27805 0.0
C533 C 0.80199 0.79718 0.25942 0.0
C534 C 0.78087 0.78893 0.26405 0.0
C535 C 0.77359 0.79659 0.27536 0.0
C536 C 0.78787 0.81071 0.28229 0.0
C537 C 0.76697 0.7711 0.25764 0.0
C538 C 0.74349 0.77549 0.25532 0.0
C539 C 0.77651 0.74948 0.25426 0.0
C540 C 0.80073 0.7431 0.25715 0.0
C541 C 0.80852 0.7431 0.2691 0.0
C542 C 0.83143 0.73728 0.27176 0.0
C543 C 0.84666 0.73123 0.26255 0.0
C544 C 0.839 0.73093 0.25067 0.0
C545 C 0.81611 0.73678 0.24797 0.0
H546 H 0.86439 0.72672 0.26463 0.0
H547 H 0.64119 0.78102 0.23956 0.0
H548 H 0.58411 0.45066 0.48611 0.0
H549 H 0.56175 0.4789 0.4979 0.0
H550 H 0.49849 0.45285 0.4824 0.0
H551 H 0.52065 0.42539 0.47049 0.0
H552 H 0.49864 0.49749 0.48067 0.0
H553 H 0.51418 0.44331 0.51239 0.0
H554 H 0.53861 0.41918 0.52552 0.0
H555 H 0.5739 0.47982 0.53816 0.0
H556 H 0.54987 0.5043 0.52499 0.0
H557 H 0.41896 0.55843 0.51947 0.0
H558 H 0.4407 0.52979 0.50759 0.0
H559 H 0.50471 0.55579 0.52227 0.0
H560 H 0.4832 0.58369 0.53421 0.0
H561 H 0.50373 0.51086 0.52446 0.0
H562 H 0.48819 0.56494 0.49254 0.0
H563 H 0.46351 0.58893 0.47948 0.0
H564 H 0.42785 0.52817 0.46727 0.0
H565 H 0.45215 0.50384 0.48038 0.0
C566 C 0.56542 0.45072 0.48546 0.0
C567 C 0.55412 0.43594 0.47737 0.0
C568 C 0.55262 0.46686 0.49216 0.0
C569 C 0.52835 0.46812 0.49101 0.0
C570 C 0.51714 0.45248 0.48336 0.0
C571 C 0.52984 0.43668 0.47661 0.0
C572 C 0.51451 0.48634 0.49719 0.0
C573 C 0.49956 0.50019 0.49028 0.0
C574 C 0.51597 0.49029 0.50968 0.0
C575 C 0.53039 0.4756 0.51761 0.0
C576 C 0.52727 0.45148 0.5179 0.0
C577 C 0.54102 0.43775 0.52536 0.0
C578 C 0.55784 0.44795 0.53264 0.0
C579 C 0.56089 0.47193 0.5325 0.0
C580 C 0.5472 0.48575 0.52505 0.0
C581 C 0.43768 0.55828 0.5199 0.0
C582 C 0.4494 0.57317 0.52777 0.0
C583 C 0.45011 0.5419 0.51316 0.0
C584 C 0.47441 0.5405 0.51409 0.0
C585 C 0.48603 0.55627 0.52149 0.0
C586 C 0.4737 0.57232 0.52826 0.0
C587 C 0.48792 0.52202 0.50793 0.0
C588 C 0.5028 0.50812 0.51485 0.0
C589 C 0.48637 0.51801 0.49546 0.0
C590 C 0.47183 0.5326 0.48754 0.0
C591 C 0.47497 0.55672 0.48714 0.0
C592 C 0.46107 0.57037 0.47972 0.0
C593 C 0.44408 0.56009 0.47258 0.0
C594 C 0.441 0.53611 0.47282 0.0
C595 C 0.45484 0.52238 0.48024 0.0
H596 H 0.43333 0.57069 0.46684 0.0
H597 H 0.56847 0.43729 0.53841 0.0
H598 H 0.78446 0.3162 0.71434 0.0
H599 H 0.75963 0.29135 0.72639 0.0
H600 H 0.81297 0.28643 0.75331 0.0
H601 H 0.83816 0.31148 0.74111 0.0
H602 H 0.79704 0.24388 0.74648 0.0
H603 H 0.76286 0.31476 0.75929 0.0
H604 H 0.74535 0.3534 0.75703 0.0
H605 H 0.68929 0.32404 0.73687 0.0
H606 H 0.70665 0.28524 0.73887 0.0
H607 H 0.72723 0.1869 0.78983 0.0
H608 H 0.75244 0.21164 0.77791 0.0
H609 H 0.69973 0.21665 0.75066 0.0
H610 H 0.6742 0.1917 0.76271 0.0
H611 H 0.71547 0.25923 0.75779 0.0
H612 H 0.74981 0.18832 0.74496 0.0
H613 H 0.76737 0.14972 0.74727 0.0
H614 H 0.82317 0.17918 0.76757 0.0
H615 H 0.80577 0.21795 0.76553 0.0
C616 C 0.79072 0.31032 0.72298 0.0
C617 C 0.81325 0.31584 0.7268 0.0
C618 C 0.77647 0.2961 0.72987 0.0
C619 C 0.78436 0.28698 0.74078 0.0
C620 C 0.80651 0.29328 0.74492 0.0
C621 C 0.82079 0.30779 0.73802 0.0
C622 C 0.77006 0.26952 0.74725 0.0
C623 C 0.77934 0.24737 0.74917 0.0
C624 C 0.74669 0.27379 0.75037 0.0
C625 C 0.73618 0.2971 0.74914 0.0
C626 C 0.7469 0.31656 0.75429 0.0
C627 C 0.73698 0.33849 0.75307 0.0
C628 C 0.71625 0.34118 0.74679 0.0
C629 C 0.70537 0.32193 0.74173 0.0
C630 C 0.71522 0.29996 0.74291 0.0
C631 C 0.72121 0.19275 0.78114 0.0
C632 C 0.69875 0.1873 0.77718 0.0
C633 C 0.73567 0.20692 0.77433 0.0
C634 C 0.72804 0.21606 0.76338 0.0
C635 C 0.70599 0.20979 0.7591 0.0
C636 C 0.69152 0.19533 0.7659 0.0
C637 C 0.74244 0.23358 0.75701 0.0
C638 C 0.73318 0.25574 0.75511 0.0
C639 C 0.76583 0.22933 0.75393 0.0
C640 C 0.77636 0.20603 0.75518 0.0
C641 C 0.76572 0.18656 0.75001 0.0
C642 C 0.77567 0.16464 0.75125 0.0
C643 C 0.79634 0.16199 0.75759 0.0
C644 C 0.80714 0.18126 0.76267 0.0
C645 C 0.79726 0.20321 0.76146 0.0
H646 H 0.80402 0.14501 0.75854 0.0
H647 H 0.70859 0.35817 0.74586 0.0
H648 H 0.9361 0.47718 0.53968 0.0
H649 H 0.96072 0.50191 0.52733 0.0
H650 H 0.968 0.44681 0.50154 0.0
H651 H 0.94296 0.42196 0.5139 0.0
H652 H 0.01033 0.46454 0.50955 0.0
H653 H 0.93963 0.49384 0.49358 0.0
H654 H 0.90021 0.51005 0.49414 0.0
H655 H 0.92542 0.56999 0.51274 0.0
H656 H 0.96498 0.55397 0.51245 0.0
H657 H 0.06772 0.52968 0.46434 0.0
H658 H 0.04257 0.50556 0.4767 0.0
H659 H 0.03563 0.56123 0.50218 0.0
H660 H 0.0612 0.58552 0.4898 0.0
H661 H 0.99314 0.54342 0.49446 0.0
H662 H 0.0638 0.51424 0.51041 0.0
H663 H 0.10325 0.49808 0.50988 0.0
H664 H 0.07813 0.43795 0.49142 0.0
H665 H 0.03855 0.45391 0.49167 0.0
C666 C 0.94237 0.47057 0.5312 0.0
C667 C 0.93751 0.44769 0.52771 0.0
C668 C 0.95649 0.4847 0.52416 0.0
C669 C 0.96629 0.47622 0.51353 0.0
C670 C 0.96062 0.45371 0.50972 0.0
C671 C 0.94612 0.43962 0.5167 0.0
C672 C 0.98385 0.49028 0.50702 0.0
C673 C 0.00647 0.48162 0.50605 0.0
C674 C 0.97903 0.51291 0.50286 0.0
C675 C 0.95525 0.52258 0.5031 0.0
C676 C 0.93675 0.51037 0.4979 0.0
C677 C 0.91438 0.51955 0.49814 0.0
C678 C 0.9103 0.54101 0.5035 0.0
C679 C 0.9286 0.55335 0.50861 0.0
C680 C 0.95101 0.54424 0.50839 0.0
C681 C 0.06134 0.53659 0.47274 0.0
C682 C 0.06651 0.55945 0.47614 0.0
C683 C 0.04693 0.52279 0.47979 0.0
C684 C 0.03715 0.53157 0.49036 0.0
C685 C 0.04299 0.5541 0.49405 0.0
C686 C 0.05778 0.56787 0.48706 0.0
C687 C 0.01961 0.51765 0.49696 0.0
C688 C 0.99699 0.52634 0.49796 0.0
C689 C 0.02443 0.49505 0.50116 0.0
C690 C 0.04823 0.48539 0.50095 0.0
C691 C 0.06671 0.49767 0.50613 0.0
C692 C 0.08909 0.48853 0.50591 0.0
C693 C 0.0932 0.46703 0.5006 0.0
C694 C 0.07492 0.45461 0.49552 0.0
C695 C 0.0525 0.46369 0.49571 0.0
H696 H 0.11054 0.45997 0.50044 0.0
H697 H 0.89297 0.54809 0.50368 0.0
H698 H 0.67736 0.81639 0.73925 0.0
H699 H 0.70323 0.79283 0.7518 0.0
H700 H 0.74349 0.77496 0.7206 0.0
H701 H 0.718 0.79809 0.70813 0.0
H702 H 0.73347 0.73707 0.73296 0.0
H703 H 0.76415 0.81231 0.74162 0.0
H704 H 0.76279 0.85307 0.7481 0.0
H705 H 0.73857 0.83208 0.78282 0.0
H706 H 0.73948 0.79119 0.77649 0.0
H707 H 0.83152 0.68615 0.76377 0.0
H708 H 0.80594 0.70928 0.75081 0.0
H709 H 0.76335 0.72602 0.78133 0.0
H710 H 0.78841 0.70321 0.79418 0.0
H711 H 0.77505 0.76452 0.76913 0.0
H712 H 0.74437 0.68904 0.76023 0.0
H713 H 0.74639 0.64837 0.75364 0.0
H714 H 0.77141 0.67001 0.71918 0.0
H715 H 0.76983 0.71082 0.72562 0.0
C716 C 0.69194 0.80774 0.73512 0.0
C717 C 0.69543 0.80903 0.72266 0.0
C718 C 0.7067 0.79422 0.74229 0.0
C719 C 0.72527 0.78195 0.73712 0.0
C720 C 0.72918 0.78398 0.72478 0.0
C721 C 0.71454 0.79734 0.71767 0.0
C722 C 0.74033 0.76638 0.74438 0.0
C723 C 0.74277 0.74317 0.74079 0.0
C724 C 0.75222 0.77415 0.7547 0.0
C725 C 0.75163 0.79871 0.75853 0.0
C726 C 0.75833 0.8164 0.7506 0.0
C727 C 0.75768 0.83952 0.75425 0.0
C728 C 0.75053 0.84517 0.76585 0.0
C729 C 0.74407 0.82769 0.77383 0.0
C730 C 0.74466 0.80453 0.77022 0.0
C731 C 0.81646 0.69442 0.76764 0.0
C732 C 0.8122 0.69297 0.78004 0.0
C733 C 0.8019 0.7077 0.76025 0.0
C734 C 0.78282 0.7196 0.76513 0.0
C735 C 0.77808 0.71729 0.77738 0.0
C736 C 0.79248 0.70412 0.78471 0.0
C737 C 0.76811 0.73522 0.75773 0.0
C738 C 0.76575 0.75844 0.76128 0.0
C739 C 0.75636 0.72747 0.74737 0.0
C740 C 0.75724 0.70297 0.74346 0.0
C741 C 0.75049 0.68512 0.75128 0.0
C742 C 0.75152 0.66204 0.74757 0.0
C743 C 0.7591 0.6566 0.73601 0.0
C744 C 0.76558 0.67424 0.72814 0.0
C745 C 0.76461 0.69735 0.73181 0.0
H746 H 0.75989 0.63873 0.73316 0.0
H747 H 0.75004 0.86308 0.76867 0.0
H748 H 0.44357 0.42139 0.9911 0.0
H749 H 0.46775 0.447 0.00348 0.0
H750 H 0.47047 0.49653 0.97459 0.0
H751 H 0.44674 0.47117 0.96227 0.0
H752 H 0.5128 0.48765 0.98244 0.0
H753 H 0.43964 0.50703 1.00026 0.0
H754 H 0.40244 0.49903 0.01025 0.0
H755 H 0.43835 0.46882 0.04009 0.0
H756 H 0.47578 0.47637 0.03019 0.0
H757 H 0.56401 0.58345 0.01442 0.0
H758 H 0.54042 0.55723 0.00209 0.0
H759 H 0.53807 0.50823 0.03123 0.0
H760 H 0.56121 0.53424 0.04351 0.0
H761 H 0.49571 0.51652 0.02332 0.0
H762 H 0.56891 0.49741 0.00557 0.0
H763 H 0.6061 0.50533 0.99555 0.0
H764 H 0.57014 0.53497 0.96558 0.0
H765 H 0.53273 0.52751 0.9755 0.0
C766 C 0.44887 0.438 0.98754 0.0
C767 C 0.44336 0.44418 0.97569 0.0
C768 C 0.46278 0.45259 0.99458 0.0
C769 C 0.47114 0.47365 0.98993 0.0
C770 C 0.46453 0.48029 0.97834 0.0
C771 C 0.45083 0.46578 0.97133 0.0
C772 C 0.48772 0.48837 0.99674 0.0
C773 C 0.50893 0.49419 0.99133 0.0
C774 C 0.48297 0.49651 0.00844 0.0
C775 C 0.4605 0.49204 0.01443 0.0
C776 C 0.4396 0.49851 0.00891 0.0
C777 C 0.41847 0.49409 0.01456 0.0
C778 C 0.41802 0.48336 0.02578 0.0
C779 C 0.43872 0.4771 0.03139 0.0
C780 C 0.45989 0.48146 0.02577 0.0
C781 C 0.55897 0.56681 0.01805 0.0
C782 C 0.56436 0.56098 0.02995 0.0
C783 C 0.54539 0.55187 0.01103 0.0
C784 C 0.53725 0.53079 0.01578 0.0
C785 C 0.54384 0.52447 0.02741 0.0
C786 C 0.55721 0.53934 0.0344 0.0
C787 C 0.52079 0.51583 0.00902 0.0
C788 C 0.4996 0.50997 0.01444 0.0
C789 C 0.52556 0.50765 0.99733 0.0
C790 C 0.54803 0.51213 0.99134 0.0
C791 C 0.56894 0.5058 0.99689 0.0
C792 C 0.59006 0.51017 0.99122 0.0
C793 C 0.59049 0.52071 0.97995 0.0
C794 C 0.56979 0.52684 0.97431 0.0
C795 C 0.54862 0.52253 0.97995 0.0
H796 H 0.60686 0.52407 0.97557 0.0
H797 H 0.40165 0.47995 0.03015 0.0
H798 H 0.82246 0.18047 0.23867 0.0
H799 H 0.79654 0.20323 0.25163 0.0
H800 H 0.77261 0.24147 0.22086 0.0
H801 H 0.79789 0.21923 0.20801 0.0
H802 H 0.78322 0.27031 0.239 0.0
H803 H 0.73921 0.20058 0.23309 0.0
H804 H 0.73218 0.15852 0.2336 0.0
H805 H 0.74206 0.1582 0.27174 0.0
H806 H 0.74947 0.20025 0.27143 0.0
H807 H 0.68258 0.32568 0.26474 0.0
H808 H 0.70846 0.30296 0.25173 0.0
H809 H 0.73233 0.26447 0.28244 0.0
H810 H 0.70707 0.28662 0.29532 0.0
H811 H 0.72173 0.2358 0.2643 0.0
H812 H 0.76577 0.30551 0.27022 0.0
H813 H 0.77275 0.34758 0.26972 0.0
H814 H 0.76281 0.34795 0.23158 0.0
H815 H 0.75546 0.30589 0.23188 0.0
C816 C 0.81156 0.19361 0.23468 0.0
C817 C 0.81245 0.19794 0.22227 0.0
C818 C 0.79676 0.20662 0.24208 0.0
C819 C 0.78268 0.22415 0.2372 0.0
C820 C 0.78341 0.22823 0.22485 0.0
C821 C 0.79794 0.21529 0.2175 0.0
C822 C 0.76715 0.23856 0.24478 0.0
C823 C 0.76964 0.26276 0.24445 0.0
C824 C 0.7496 0.22876 0.25201 0.0
C825 C 0.74517 0.2035 0.25222 0.0
C826 C 0.74009 0.19151 0.24157 0.0
C827 C 0.736 0.16768 0.24183 0.0
C828 C 0.73675 0.15568 0.25269 0.0
C829 C 0.74153 0.16751 0.26333 0.0
C830 C 0.74567 0.19134 0.26312 0.0
C831 C 0.69344 0.31247 0.26871 0.0
C832 C 0.69255 0.30806 0.2811 0.0
C833 C 0.70822 0.2995 0.26127 0.0
C834 C 0.72229 0.28192 0.26612 0.0
C835 C 0.72155 0.27775 0.27846 0.0
C836 C 0.70702 0.29064 0.28584 0.0
C837 C 0.73781 0.26754 0.25852 0.0
C838 C 0.73531 0.24335 0.25885 0.0
C839 C 0.75536 0.27734 0.25129 0.0
C840 C 0.75979 0.30261 0.25109 0.0
C841 C 0.76487 0.3146 0.26174 0.0
C842 C 0.76893 0.33843 0.26149 0.0
C843 C 0.76815 0.35044 0.25063 0.0
C844 C 0.76337 0.33863 0.23999 0.0
C845 C 0.75926 0.31479 0.24019 0.0
H846 H 0.7713 0.3689 0.25046 0.0
H847 H 0.73356 0.13723 0.25287 0.0
H848 H 0.33764 0.31149 0.76374 0.0
H849 H 0.31121 0.28745 0.7518 0.0
H850 H 0.26087 0.29 0.78034 0.0
H851 H 0.28728 0.31341 0.79229 0.0
H852 H 0.2672 0.24707 0.77396 0.0
H853 H 0.25284 0.31811 0.75298 0.0
H854 H 0.26315 0.35338 0.74175 0.0
H855 H 0.29375 0.31199 0.714 0.0
H856 H 0.2839 0.27647 0.72515 0.0
H857 H 0.17279 0.19446 0.74138 0.0
H858 H 0.19863 0.21871 0.75357 0.0
H859 H 0.25033 0.21579 0.72572 0.0
H860 H 0.22461 0.19208 0.71354 0.0
H861 H 0.24283 0.25914 0.73184 0.0
H862 H 0.25728 0.18808 0.75302 0.0
H863 H 0.24676 0.15294 0.76431 0.0
H864 H 0.21554 0.19465 0.79174 0.0
H865 H 0.22561 0.23004 0.78054 0.0
C866 C 0.32068 0.30745 0.76729 0.0
C867 C 0.31455 0.31428 0.77894 0.0
C868 C 0.30559 0.29361 0.76049 0.0
C869 C 0.28402 0.28674 0.76519 0.0
C870 C 0.27745 0.29479 0.77655 0.0
C871 C 0.29253 0.30833 0.78334 0.0
C872 C 0.26885 0.26999 0.75873 0.0
C873 C 0.26161 0.2499 0.7648 0.0
C874 C 0.26193 0.27331 0.74669 0.0
C875 C 0.26783 0.29464 0.73996 0.0
C876 C 0.26193 0.31654 0.74453 0.0
C877 C 0.26766 0.33657 0.73817 0.0
C878 C 0.27915 0.33493 0.72719 0.0
C879 C 0.28488 0.31324 0.72252 0.0
C880 C 0.27921 0.29315 0.72885 0.0
C881 C 0.18992 0.19846 0.73805 0.0
C882 C 0.19664 0.19144 0.7265 0.0
C883 C 0.20466 0.21242 0.74498 0.0
C884 C 0.22642 0.21928 0.74052 0.0
C885 C 0.23358 0.21102 0.72931 0.0
C886 C 0.21889 0.19731 0.72239 0.0
C887 C 0.24123 0.23621 0.74706 0.0
C888 C 0.24839 0.25634 0.74101 0.0
C889 C 0.24803 0.23295 0.75912 0.0
C890 C 0.24199 0.2117 0.76588 0.0
C891 C 0.24801 0.18975 0.76141 0.0
C892 C 0.24216 0.16979 0.76781 0.0
C893 C 0.23043 0.17156 0.77872 0.0
C894 C 0.22459 0.1933 0.78328 0.0
C895 C 0.23038 0.21332 0.77692 0.0
H896 H 0.22592 0.15608 0.78366 0.0
H897 H 0.28357 0.35046 0.72228 0.0
H898 H 0.17106 0.69459 0.26324 0.0
H899 H 0.1973 0.71841 0.25105 0.0
H900 H 0.24645 0.71974 0.28015 0.0
H901 H 0.22025 0.69658 0.29233 0.0
H902 H 0.23975 0.76183 0.27256 0.0
H903 H 0.25582 0.68886 0.25356 0.0
H904 H 0.24615 0.65256 0.24308 0.0
H905 H 0.21642 0.69126 0.21406 0.0
H906 H 0.22565 0.7278 0.22445 0.0
H907 H 0.33513 0.81344 0.24065 0.0
H908 H 0.30899 0.7894 0.25278 0.0
H909 H 0.26008 0.78767 0.22357 0.0
H910 H 0.28621 0.811 0.21144 0.0
H911 H 0.26666 0.74576 0.23122 0.0
H912 H 0.25049 0.81871 0.25019 0.0
H913 H 0.26006 0.85504 0.26067 0.0
H914 H 0.28984 0.81645 0.28971 0.0
H915 H 0.28071 0.77988 0.27933 0.0
C916 C 0.18771 0.6995 0.26689 0.0
C917 C 0.19355 0.69376 0.27875 0.0
C918 C 0.20269 0.7132 0.25995 0.0
C919 C 0.2239 0.72105 0.26469 0.0
C920 C 0.23015 0.7142 0.27631 0.0
C921 C 0.21518 0.7008 0.28324 0.0
C922 C 0.2391 0.73741 0.25795 0.0
C923 C 0.24587 0.75814 0.26357 0.0
C924 C 0.24671 0.73299 0.24612 0.0
C925 C 0.24122 0.71105 0.23984 0.0
C926 C 0.24706 0.68962 0.24499 0.0
C927 C 0.24169 0.66901 0.23906 0.0
C928 C 0.23062 0.66961 0.22793 0.0
C929 C 0.22496 0.69082 0.22269 0.0
C930 C 0.23028 0.71149 0.22859 0.0
C931 C 0.31856 0.80837 0.23696 0.0
C932 C 0.31277 0.81406 0.22508 0.0
C933 C 0.30363 0.79455 0.24387 0.0
C934 C 0.28251 0.78656 0.23909 0.0
C935 C 0.27631 0.79332 0.22745 0.0
C936 C 0.29124 0.80681 0.22054 0.0
C937 C 0.26731 0.77019 0.24582 0.0
C938 C 0.26054 0.74945 0.24021 0.0
C939 C 0.25969 0.7746 0.25766 0.0
C940 C 0.26512 0.79657 0.26393 0.0
C941 C 0.25924 0.81798 0.25877 0.0
C942 C 0.26455 0.83861 0.2647 0.0
C943 C 0.27561 0.83806 0.27583 0.0
C944 C 0.28131 0.81686 0.28108 0.0
C945 C 0.27605 0.79617 0.27518 0.0
H946 H 0.27971 0.85405 0.28041 0.0
H947 H 0.22648 0.65363 0.22335 0.0
H948 H 0.30777 0.17126 0.26794 0.0
H949 H 0.28005 0.19384 0.25593 0.0
H950 H 0.29564 0.25455 0.27695 0.0
H951 H 0.32252 0.23218 0.28901 0.0
H952 H 0.25131 0.25106 0.27508 0.0
H953 H 0.31489 0.24659 0.24722 0.0
H954 H 0.34416 0.22686 0.2348 0.0
H955 H 0.29047 0.19112 0.21571 0.0
H956 H 0.26088 0.21044 0.22812 0.0
H957 H 0.19534 0.336 0.23748 0.0
H958 H 0.22273 0.31336 0.24966 0.0
H959 H 0.20626 0.25229 0.22913 0.0
H960 H 0.1796 0.27467 0.21693 0.0
H961 H 0.251 0.256 0.23074 0.0
H962 H 0.18744 0.26069 0.25864 0.0
H963 H 0.15827 0.28063 0.27104 0.0
H964 H 0.21217 0.31624 0.29005 0.0
H965 H 0.24165 0.29672 0.27765 0.0
C966 C 0.30543 0.18948 0.26986 0.0
C967 C 0.31719 0.19985 0.27948 0.0
C968 C 0.2896 0.2024 0.26301 0.0
C969 C 0.28565 0.22599 0.26554 0.0
C970 C 0.29808 0.2364 0.27488 0.0
C971 C 0.31354 0.22353 0.28176 0.0
C972 C 0.26817 0.23994 0.25883 0.0
C973 C 0.25145 0.25233 0.26538 0.0
C974 C 0.26793 0.24134 0.24617 0.0
C975 C 0.28569 0.22978 0.23868 0.0
C976 C 0.30934 0.2344 0.24043 0.0
C977 C 0.32598 0.22331 0.23339 0.0
C978 C 0.31918 0.2077 0.2245 0.0
C979 C 0.29571 0.20319 0.22261 0.0
C980 C 0.279 0.21422 0.22964 0.0
C981 C 0.19736 0.31769 0.23572 0.0
C982 C 0.18545 0.3072 0.22618 0.0
C983 C 0.21303 0.30474 0.24267 0.0
C984 C 0.21669 0.28105 0.24029 0.0
C985 C 0.20404 0.27052 0.23107 0.0
C986 C 0.1887 0.28339 0.22411 0.0
C987 C 0.23416 0.26712 0.247 0.0
C988 C 0.25088 0.25474 0.24044 0.0
C989 C 0.23443 0.26575 0.25966 0.0
C990 C 0.21673 0.27743 0.26714 0.0
C991 C 0.19306 0.27291 0.2654 0.0
C992 C 0.17647 0.2841 0.27244 0.0
C993 C 0.18336 0.29974 0.2813 0.0
C994 C 0.20685 0.30415 0.28317 0.0
C995 C 0.22351 0.29302 0.27615 0.0
H996 H 0.17049 0.30839 0.28674 0.0
H997 H 0.3321 0.19914 0.21905 0.0
H998 H 0.22385 0.81666 0.78979 0.0
H999 H 0.24892 0.79238 0.77758 0.0
H1000 H 0.19574 0.78784 0.75055 0.0
H1001 H 0.17029 0.81228 0.76292 0.0
H1002 H 0.21171 0.74531 0.75708 0.0
H1003 H 0.24591 0.81654 0.74487 0.0
H1004 H 0.26331 0.85516 0.74746 0.0
H1005 H 0.31921 0.82541 0.76757 0.0
H1006 H 0.30198 0.78663 0.76526 0.0
H1007 H 0.28219 0.68945 0.71368 0.0
H1008 H 0.25681 0.71395 0.72563 0.0
H1009 H 0.30904 0.71826 0.75316 0.0
H1010 H 0.33476 0.69356 0.74108 0.0
H1011 H 0.29341 0.76102 0.74618 0.0
H1012 H 0.25891 0.68975 0.75843 0.0
H1013 H 0.24142 0.6512 0.75575 0.0
H1014 H 0.18598 0.68118 0.73538 0.0
H1015 H 0.20332 0.71989 0.73779 0.0
C1016 C 0.21767 0.811 0.7811 0.0
C1017 C 0.1951 0.8164 0.7773 0.0
C1018 C 0.23207 0.79711 0.77411 0.0
C1019 C 0.22428 0.78824 0.76313 0.0
C1020 C 0.20212 0.7945 0.75901 0.0
C1021 C 0.18769 0.80866 0.766 0.0
C1022 C 0.23868 0.771 0.75658 0.0
C1023 C 0.22944 0.74889 0.75449 0.0
C1024 C 0.26208 0.77538 0.75357 0.0
C1025 C 0.27253 0.79868 0.75498 0.0
C1026 C 0.26181 0.81825 0.74993 0.0
C1027 C 0.27167 0.84017 0.75133 0.0
C1028 C 0.29232 0.84274 0.7577 0.0
C1029 C 0.3032 0.82339 0.76265 0.0
C1030 C 0.29341 0.80143 0.76129 0.0
C1031 C 0.28808 0.69512 0.72243 0.0
C1032 C 0.31046 0.68956 0.72646 0.0
C1033 C 0.27351 0.70913 0.72926 0.0
C1034 C 0.28097 0.718 0.7403 0.0
C1035 C 0.30293 0.71161 0.74465 0.0
C1036 C 0.31751 0.69731 0.73782 0.0
C1037 C 0.26646 0.73533 0.74671 0.0
C1038 C 0.27568 0.75746 0.74877 0.0
C1039 C 0.24303 0.73098 0.74967 0.0
C1040 C 0.23254 0.70771 0.7482 0.0
C1041 C 0.24309 0.68811 0.75329 0.0
C1042 C 0.23318 0.66623 0.75184 0.0
C1043 C 0.21263 0.66373 0.74538 0.0
C1044 C 0.20192 0.68313 0.74038 0.0
C1045 C 0.21176 0.70506 0.74179 0.0
H1046 H 0.20498 0.64678 0.74427 0.0
H1047 H 0.29992 0.85973 0.75877 0.0
H1048 H 0.52675 0.92653 0.53212 0.0
H1049 H 0.50323 0.95246 0.51998 0.0
H1050 H 0.56504 0.98129 0.50427 0.0
H1051 H 0.58889 0.95502 0.51658 0.0
H1052 H 0.53578 0.01472 0.51318 0.0
H1053 H 0.52852 0.94936 0.48732 0.0
H1054 H 0.52112 0.90858 0.48212 0.0
H1055 H 0.45146 0.91463 0.4951 0.0
H1056 H 0.45853 0.95538 0.50054 0.0
H1057 H 0.47896 0.08089 0.4689 0.0
H1058 H 0.50213 0.05395 0.48059 0.0
H1059 H 0.44014 0.02643 0.49672 0.0
H1060 H 0.41657 0.05374 0.48487 0.0
H1061 H 0.46928 0.99221 0.48758 0.0
H1062 H 0.47654 0.0574 0.51352 0.0
H1063 H 0.4839 0.09813 0.51884 0.0
H1064 H 0.55354 0.0923 0.50579 0.0
H1065 H 0.5465 0.0516 0.50024 0.0
C1066 C 0.53534 0.93802 0.52587 0.0
C1067 C 0.55963 0.93875 0.52525 0.0
C1068 C 0.52186 0.95282 0.51891 0.0
C1069 C 0.53231 0.96881 0.51117 0.0
C1070 C 0.55661 0.96903 0.51017 0.0
C1071 C 0.57021 0.95393 0.5171 0.0
C1072 C 0.51769 0.9863 0.50495 0.0
C1073 C 0.52152 0.00981 0.50739 0.0
C1074 C 0.49851 0.97988 0.49777 0.0
C1075 C 0.49413 0.9554 0.49444 0.0
C1076 C 0.51167 0.94196 0.48915 0.0
C1077 C 0.50753 0.91885 0.48615 0.0
C1078 C 0.48585 0.909 0.48831 0.0
C1079 C 0.46825 0.92227 0.49344 0.0
C1080 C 0.47231 0.94539 0.49648 0.0
C1081 C 0.47022 0.06937 0.47509 0.0
C1082 C 0.44594 0.06939 0.47597 0.0
C1083 C 0.48353 0.054 0.48179 0.0
C1084 C 0.47294 0.03818 0.48957 0.0
C1085 C 0.44868 0.03853 0.49078 0.0
C1086 C 0.43525 0.05423 0.48411 0.0
C1087 C 0.48742 0.02061 0.4958 0.0
C1088 C 0.48356 0.9971 0.49336 0.0
C1089 C 0.50657 0.02702 0.503 0.0
C1090 C 0.51092 0.05149 0.50637 0.0
C1091 C 0.49337 0.06485 0.51169 0.0
C1092 C 0.49749 0.08792 0.51477 0.0
C1093 C 0.51916 0.09781 0.51263 0.0
C1094 C 0.53676 0.08462 0.50744 0.0
C1095 C 0.53272 0.06154 0.50434 0.0
H1096 H 0.52232 0.11569 0.51501 0.0
H1097 H 0.48269 0.8911 0.48598 0.0
H1098 H 0.08647 0.94593 0.98583 0.0
H1099 H 0.06431 0.9745 0.9975 0.0
H1100 H 1.00171 0.95329 0.9795 0.0
H1101 H 0.02368 0.92543 0.96777 0.0
H1102 H 0.00489 0.99821 0.97873 0.0
H1103 H 0.01295 0.94036 0.00949 0.0
H1104 H 0.03422 0.91371 0.02278 0.0
H1105 H 0.07099 0.97101 0.03817 0.0
H1106 H 0.05014 0.99799 0.02486 0.0
H1107 H 0.92258 0.05862 0.01608 0.0
H1108 H 0.94492 0.03044 0.00425 0.0
H1109 H 0.00751 0.05222 0.02206 0.0
H1110 H 0.98538 0.07974 0.03394 0.0
H1111 H 0.00442 0.00712 0.02291 0.0
H1112 H 0.99616 0.06498 0.99218 0.0
H1113 H 0.97479 0.09157 0.9789 0.0
H1114 H 0.93825 0.03416 0.96348 0.0
H1115 H 0.9592 0.00724 0.97678 0.0
C1116 C 0.06792 0.9471 0.98459 0.0
C1117 C 0.05683 0.93358 0.97586 0.0
C1118 C 0.05525 0.96345 0.99122 0.0
C1119 C 0.03128 0.96618 0.98933 0.0
C1120 C 0.02016 0.95178 0.98103 0.0
C1121 C 0.03276 0.93576 0.97437 0.0
C1122 C 0.01774 0.98465 0.99547 0.0
C1123 C 0.00459 0.99996 0.98841 0.0
C1124 C 0.01766 0.98735 0.00807 0.0
C1125 C 0.03016 0.97116 0.0161 0.0
C1126 C 0.0257 0.94726 0.01565 0.0
C1127 C 0.03765 0.9321 0.02319 0.0
C1128 C 0.05399 0.94065 0.03129 0.0
C1129 C 0.05836 0.9644 0.03188 0.0
C1130 C 0.04647 0.97964 0.02435 0.0
C1131 C 0.94117 0.05769 0.01723 0.0
C1132 C 0.95223 0.07125 0.02596 0.0
C1133 C 0.95393 0.04155 0.01051 0.0
C1134 C 0.97795 0.03907 0.01232 0.0
C1135 C 0.98903 0.05356 0.02059 0.0
C1136 C 0.97635 0.06938 0.02733 0.0
C1137 C 0.99157 0.02067 0.00617 0.0
C1138 C 0.00473 0.00537 0.01323 0.0
C1139 C 0.99164 0.01797 0.99358 0.0
C1140 C 0.97907 0.03412 0.98556 0.0
C1141 C 0.98343 0.05804 0.98602 0.0
C1142 C 0.97143 0.07317 0.97848 0.0
C1143 C 0.95513 0.06457 0.97037 0.0
C1144 C 0.95085 0.0408 0.96977 0.0
C1145 C 0.9628 0.0256 0.9773 0.0
H1146 H 0.94585 0.07631 0.96454 0.0
H1147 H 0.06323 0.92889 0.03713 0.0
H1148 H 0.56932 0.03197 0.96368 0.0
H1149 H 0.54472 0.00674 0.97571 0.0
H1150 H 0.53606 0.06124 1.00173 0.0
H1151 H 0.56137 0.08653 0.98976 0.0
H1152 H 0.53794 0.01925 0.01251 0.0
H1153 H 0.49567 0.05221 0.97964 0.0
H1154 H 0.48838 0.06183 0.95844 0.0
H1155 H 0.48652 0.98955 0.9496 0.0
H1156 H 0.49413 0.97951 0.97073 0.0
H1157 H 0.43838 0.97544 0.03964 0.0
H1158 H 0.46294 1.00069 0.0276 0.0
H1159 H 0.47157 0.94621 1.00156 0.0
H1160 H 0.44628 0.92091 0.01354 0.0
H1161 H 0.4697 0.98819 0.99079 0.0
H1162 H 0.51198 0.95522 0.02365 0.0
H1163 H 0.51927 0.94559 0.04485 0.0
H1164 H 0.52113 0.01787 0.0537 0.0
H1165 H 0.51351 0.02792 0.03257 0.0
C1166 C 0.56264 0.03841 0.97212 0.0
C1167 C 0.56717 0.06126 0.97576 0.0
C1168 C 0.5484 0.02403 0.97893 0.0
C1169 C 0.53792 0.03229 0.98944 0.0
C1170 C 0.54376 0.05455 0.99359 0.0
C1171 C 0.55834 0.06894 0.9868 0.0
C1172 C 0.51998 0.01811 0.99563 0.0
C1173 C 0.52287 0.01274 0.0078 0.0
C1174 C 0.5005 0.00912 0.98944 0.0
C1175 C 0.49567 0.01512 0.97675 0.0
C1176 C 0.49385 0.03837 0.97316 0.0
C1177 C 0.48965 0.0439 0.96116 0.0
C1178 C 0.48704 0.02631 0.95267 0.0
C1179 C 0.48857 1.00316 0.95618 0.0
C1180 C 0.49281 0.99754 0.96817 0.0
C1181 C 0.44504 0.96901 0.03119 0.0
C1182 C 0.44051 0.94616 0.02754 0.0
C1183 C 0.45927 0.9834 0.02437 0.0
C1184 C 0.46972 0.97515 0.01386 0.0
C1185 C 0.46388 0.95289 0.00971 0.0
C1186 C 0.44932 0.93849 0.0165 0.0
C1187 C 0.48766 0.98933 0.00766 0.0
C1188 C 0.48477 0.9947 0.9955 0.0
C1189 C 0.50715 0.99832 0.01386 0.0
C1190 C 0.51198 0.99231 0.02654 0.0
C1191 C 0.5138 0.96906 0.03013 0.0
C1192 C 0.51801 0.96352 0.04213 0.0
C1193 C 0.52061 0.98111 0.05062 0.0
C1194 C 0.51908 0.00426 0.04711 0.0
C1195 C 0.51484 0.00989 0.03513 0.0
H1196 H 0.52386 0.97679 0.05991 0.0
H1197 H 0.48379 0.03063 0.94339 0.0
H1198 H 0.08351 0.06217 0.5173 0.0
H1199 H 0.06246 0.03372 0.50497 0.0
H1200 H 1.0025 0.04147 0.52765 0.0
H1201 H 0.02321 0.06919 0.53992 0.0
H1202 H 0.01061 0.99749 0.52441 0.0
H1203 H 0.00535 0.06478 0.49905 0.0
H1204 H 0.02058 0.09744 0.48721 0.0
H1205 H 0.05846 0.05019 0.46492 0.0
H1206 H 0.04368 0.01725 0.47673 0.0
H1207 H 0.92538 0.93988 0.48768 0.0
H1208 H 0.94727 0.96766 0.5 0.0
H1209 H 0.00688 0.95834 0.47724 0.0
H1210 H 0.98536 0.93118 0.46498 0.0
H1211 H 0.99943 1.00278 0.48046 0.0
H1212 H 0.00414 0.93542 0.50576 0.0
H1213 H 0.98866 0.90289 0.5176 0.0
H1214 H 0.9515 0.95047 0.54003 0.0
H1215 H 0.96654 0.98329 0.52822 0.0
C1216 C 0.06577 0.05793 0.51953 0.0
C1217 C 0.05518 0.06776 0.52967 0.0
C1218 C 0.05374 0.04167 0.51251 0.0
C1219 C 0.03086 0.03532 0.51542 0.0
C1220 C 0.02017 0.04578 0.52529 0.0
C1221 C 0.03211 0.06172 0.5323 0.0
C1222 C 0.01789 0.01743 0.50852 0.0
C1223 C 0.00799 0.9988 0.51481 0.0
C1224 C 0.01474 0.01881 0.49597 0.0
C1225 C 0.02361 0.03858 0.48885 0.0
C1226 C 0.01708 0.06137 0.49168 0.0
C1227 C 0.0256 0.07993 0.48497 0.0
C1228 C 0.04054 0.0759 0.47535 0.0
C1229 C 0.04693 0.05329 0.47239 0.0
C1230 C 0.03847 0.03467 0.47909 0.0
C1231 C 0.94324 0.94357 0.48543 0.0
C1232 C 0.9535 0.93347 0.47528 0.0
C1233 C 0.95574 0.95946 0.49245 0.0
C1234 C 0.97875 0.96522 0.4895 0.0
C1235 C 0.98913 0.95447 0.47963 0.0
C1236 C 0.97672 0.93884 0.47264 0.0
C1237 C 0.9921 0.98288 0.49636 0.0
C1238 C 1.00208 1.00146 0.49006 0.0
C1239 C 0.99528 0.98148 0.50891 0.0
C1240 C 0.98627 0.96178 0.51603 0.0
C1241 C 0.99252 0.93893 0.51316 0.0
C1242 C 0.98385 0.92044 0.51988 0.0
C1243 C 0.96905 0.92461 0.52954 0.0
C1244 C 0.96294 0.94727 0.53253 0.0
C1245 C 0.97154 0.96582 0.52583 0.0
H1246 H 0.96236 0.91027 0.53473 0.0
H1247 H 0.04712 0.09028 0.47016 0.0
H1248 H 0.94482 0.17479 0.03105 0.0
H1249 H 0.96671 0.21115 0.02943 0.0
H1250 H 0.97646 0.21167 0.06774 0.0
H1251 H 0.95504 0.17541 0.06941 0.0
H1252 H 0.96332 0.25521 0.0579 0.0
H1253 H 0.01867 0.19311 0.05106 0.0
H1254 H 0.03328 0.15877 0.04035 0.0
H1255 H 0.03561 0.19743 0.00751 0.0
H1256 H 0.02068 0.23194 0.018 0.0
H1257 H 0.05218 0.33248 0.07063 0.0
H1258 H 0.02879 0.29761 0.0686 0.0
H1259 H 0.03947 0.29851 0.03032 0.0
H1260 H 0.06386 0.33306 0.0324 0.0
H1261 H 0.03962 0.2558 0.03751 0.0
H1262 H 0.98791 0.31852 0.04367 0.0
H1263 H 0.97204 0.35341 0.05337 0.0
H1264 H 0.96044 0.31506 0.08578 0.0
H1265 H 0.97654 0.28 0.07633 0.0
C1266 C 0.95142 0.18282 0.03913 0.0
C1267 C 0.94827 0.17216 0.05035 0.0
C1268 C 0.96401 0.2035 0.03818 0.0
C1269 C 0.97334 0.21402 0.04846 0.0
C1270 C 0.96945 0.20385 0.05969 0.0
C1271 C 0.95725 0.18307 0.06062 0.0
C1272 C 0.98773 0.23529 0.04765 0.0
C1273 C 0.98006 0.25534 0.0535 0.0
C1274 C 0.0092 0.23569 0.04155 0.0
C1275 C 0.01831 0.21501 0.03528 0.0
C1276 C 0.02211 0.19423 0.04153 0.0
C1277 C 0.03048 0.17475 0.03551 0.0
C1278 C 0.0353 0.17589 0.02325 0.0
C1279 C 0.03182 0.19655 0.017 0.0
C1280 C 0.02342 0.21608 0.02298 0.0
C1281 C 0.04972 0.32516 0.06178 0.0
C1282 C 0.05971 0.33566 0.05166 0.0
C1283 C 0.03618 0.30528 0.06061 0.0
C1284 C 0.03169 0.29574 0.04926 0.0
C1285 C 0.04246 0.30562 0.03917 0.0
C1286 C 0.05643 0.32535 0.04037 0.0
C1287 C 0.0155 0.27573 0.04803 0.0
C1288 C 0.02278 0.25589 0.04179 0.0
C1289 C 0.99342 0.27565 0.0536 0.0
C1290 C 0.98359 0.29666 0.05931 0.0
C1291 C 0.98211 0.31755 0.05289 0.0
C1292 C 0.97306 0.33736 0.05834 0.0
C1293 C 0.96528 0.33646 0.07019 0.0
C1294 C 0.96648 0.31573 0.0766 0.0
C1295 C 0.97554 0.29588 0.0712 0.0
H1296 H 0.95828 0.35181 0.0744 0.0
H1297 H 0.04178 0.16079 0.0186 0.0
H1298 H 0.07591 0.68598 0.28143 0.0
H1299 H 0.03987 0.7076 0.27813 0.0
H1300 H 0.05279 0.74738 0.31013 0.0
H1301 H 0.08862 0.72639 0.31338 0.0
H1302 H 1.00092 0.7123 0.29067 0.0
H1303 H 0.03475 0.80174 0.30736 0.0
H1304 H 0.07106 0.82414 0.30715 0.0
H1305 H 0.09414 0.78643 0.27622 0.0
H1306 H 0.05784 0.76404 0.27613 0.0
H1307 H 0.91114 0.782 0.31233 0.0
H1308 H 0.94678 0.76063 0.30901 0.0
H1309 H 0.96318 0.80471 0.27902 0.0
H1310 H 0.92737 0.82659 0.28236 0.0
H1311 H 1.00053 0.79811 0.29245 0.0
H1312 H 0.94522 0.74919 0.27434 0.0
H1313 H 0.90886 0.72718 0.27253 0.0
H1314 H 0.92879 0.68438 0.30224 0.0
H1315 H 0.96513 0.70636 0.30436 0.0
C1316 C 0.0711 0.69937 0.28774 0.0
C1317 C 0.08539 0.70448 0.29762 0.0
C1318 C 0.05045 0.71171 0.28585 0.0
C1319 C 0.04375 0.72946 0.29375 0.0
C1320 C 0.05777 0.7342 0.30372 0.0
C1321 C 0.07831 0.72201 0.3056 0.0
C1322 C 0.02199 0.74293 0.29186 0.0
C1323 C 1.00086 0.73106 0.29099 0.0
C1324 C 0.02183 0.76747 0.2919 0.0
C1325 C 0.04361 0.7811 0.2918 0.0
C1326 C 0.0475 0.79832 0.30047 0.0
C1327 C 0.0681 0.81099 0.30041 0.0
C1328 C 0.08491 0.80667 0.2917 0.0
C1329 C 0.08113 0.78971 0.28299 0.0
C1330 C 0.06056 0.777 0.283 0.0
C1331 C 0.92218 0.78723 0.30498 0.0
C1332 C 0.91619 0.80607 0.29759 0.0
C1333 C 0.94259 0.77482 0.30305 0.0
C1334 C 0.95757 0.78074 0.29364 0.0
C1335 C 0.95186 0.7997 0.2863 0.0
C1336 C 0.93134 0.81219 0.28823 0.0
C1337 C 0.97944 0.76745 0.29181 0.0
C1338 C 1.00059 0.77936 0.29199 0.0
C1339 C 0.97962 0.74299 0.29083 0.0
C1340 C 0.95786 0.72954 0.28955 0.0
C1341 C 0.94179 0.73518 0.28054 0.0
C1342 C 0.92118 0.7227 0.27945 0.0
C1343 C 0.9165 0.70442 0.28728 0.0
C1344 C 0.93244 0.69855 0.29619 0.0
C1345 C 0.95307 0.711 0.29733 0.0
H1346 H 0.90053 0.69478 0.28642 0.0
H1347 H 0.10086 0.81649 0.29168 0.0
H1348 H 0.48717 0.65642 0.54519 0.0
H1349 H 0.50931 0.69208 0.54272 0.0
H1350 H 0.44672 0.73201 0.54702 0.0
H1351 H 0.42429 0.69599 0.54867 0.0
H1352 H 0.4726 0.75354 0.53211 0.0
H1353 H 0.487 0.72068 0.57063 0.0
H1354 H 0.49792 0.69027 0.58501 0.0
H1355 H 0.56608 0.6873 0.56981 0.0
H1356 H 0.55539 0.71737 0.55512 0.0
H1357 H 0.52602 0.85456 0.5568 0.0
H1358 H 0.50483 0.81837 0.55423 0.0
H1359 H 0.5651 0.78698 0.53834 0.0
H1360 H 0.58647 0.82353 0.54063 0.0
H1361 H 0.54175 0.76132 0.55818 0.0
H1362 H 0.5256 0.79789 0.5203 0.0
H1363 H 0.51287 0.8301 0.5074 0.0
H1364 H 0.44573 0.82861 0.52385 0.0
H1365 H 0.45818 0.79661 0.53699 0.0
C1366 C 0.47812 0.67283 0.54541 0.0
C1367 C 0.45409 0.67354 0.54719 0.0
C1368 C 0.4908 0.69324 0.5441 0.0
C1369 C 0.4799 0.7149 0.54507 0.0
C1370 C 0.45565 0.71559 0.54632 0.0
C1371 C 0.44281 0.69504 0.54727 0.0
C1372 C 0.49393 0.73663 0.54533 0.0
C1373 C 0.48757 0.75524 0.53791 0.0
C1374 C 0.51372 0.739 0.55279 0.0
C1375 C 0.52031 0.72111 0.56169 0.0
C1376 C 0.50427 0.71344 0.5703 0.0
C1377 C 0.51043 0.69626 0.57852 0.0
C1378 C 0.53268 0.68683 0.57833 0.0
C1379 C 0.54884 0.6946 0.56993 0.0
C1380 C 0.54274 0.7117 0.56165 0.0
C1381 C 0.53484 0.84001 0.55273 0.0
C1382 C 0.55801 0.84193 0.54895 0.0
C1383 C 0.52262 0.81936 0.55122 0.0
C1384 C 0.53335 0.80005 0.54605 0.0
C1385 C 0.5565 0.80175 0.54232 0.0
C1386 C 0.56866 0.82262 0.54361 0.0
C1387 C 0.52041 0.77795 0.54496 0.0
C1388 C 0.5269 0.7594 0.55231 0.0
C1389 C 0.50049 0.77588 0.53767 0.0
C1390 C 0.4929 0.79498 0.5297 0.0
C1391 C 0.50818 0.80456 0.52124 0.0
C1392 C 0.501 0.82276 0.51387 0.0
C1393 C 0.47852 0.83144 0.51483 0.0
C1394 C 0.46315 0.82189 0.52313 0.0
C1395 C 0.47025 0.8037 0.53053 0.0
H1396 H 0.473 0.84554 0.50912 0.0
H1397 H 0.5374 0.67354 0.58471 0.0
H1398 H 0.57115 0.17016 0.79738 0.0
H1399 H 0.53487 0.19178 0.79566 0.0
H1400 H 0.57354 0.25521 0.79141 0.0
H1401 H 0.60961 0.23374 0.79414 0.0
H1402 H 0.54158 0.26475 0.80487 0.0
H1403 H 0.54102 0.22445 0.76747 0.0
H1404 H 0.54314 0.19088 0.75387 0.0
H1405 H 0.48368 0.16089 0.77092 0.0
H1406 H 0.48137 0.19414 0.78472 0.0
H1407 H 0.44005 0.32935 0.78856 0.0
H1408 H 0.4769 0.30865 0.78611 0.0
H1409 H 0.44646 0.24745 0.80157 0.0
H1410 H 0.40989 0.26795 0.80418 0.0
H1411 H 0.47428 0.23865 0.78086 0.0
H1412 H 0.47776 0.28008 0.81882 0.0
H1413 H 0.47593 0.31531 0.83126 0.0
H1414 H 0.53125 0.34546 0.81087 0.0
H1415 H 0.53318 0.31051 0.7982 0.0
C1416 C 0.57179 0.18868 0.79594 0.0
C1417 C 0.59311 0.2003 0.79584 0.0
C1418 C 0.55104 0.20109 0.79487 0.0
C1419 C 0.55121 0.22526 0.79317 0.0
C1420 C 0.5727 0.23667 0.79275 0.0
C1421 C 0.59336 0.22439 0.79424 0.0
C1422 C 0.52915 0.23886 0.79249 0.0
C1423 C 0.52714 0.25916 0.79939 0.0
C1424 C 0.50988 0.23168 0.78552 0.0
C1425 C 0.51115 0.21171 0.77719 0.0
C1426 C 0.52849 0.21063 0.76836 0.0
C1427 C 0.52971 0.19167 0.76061 0.0
C1428 C 0.51359 0.17374 0.76154 0.0
C1429 C 0.49617 0.17478 0.77021 0.0
C1430 C 0.49488 0.19369 0.77799 0.0
C1431 C 0.44116 0.31142 0.79132 0.0
C1432 C 0.42205 0.30038 0.79664 0.0
C1433 C 0.46223 0.29964 0.78994 0.0
C1434 C 0.46445 0.27652 0.79371 0.0
C1435 C 0.44515 0.26525 0.79859 0.0
C1436 C 0.42427 0.27707 0.80013 0.0
C1437 C 0.48707 0.26426 0.79317 0.0
C1438 C 0.48904 0.24424 0.78613 0.0
C1439 C 0.50646 0.27192 0.79979 0.0
C1440 C 0.50544 0.2928 0.80749 0.0
C1441 C 0.48941 0.29429 0.81693 0.0
C1442 C 0.48837 0.3142 0.82403 0.0
C1443 C 0.50342 0.33264 0.82183 0.0
C1444 C 0.51958 0.33118 0.81255 0.0
C1445 C 0.52066 0.31133 0.80541 0.0
H1446 H 0.50259 0.34803 0.82734 0.0
H1447 H 0.51457 0.15907 0.75554 0.0
H1448 H 0.95221 0.82298 0.43437 0.0
H1449 H 0.97286 0.78635 0.4369 0.0
H1450 H 0.96982 0.79423 0.47528 0.0
H1451 H 0.94844 0.83078 0.47282 0.0
H1452 H 0.0171 0.78398 0.46315 0.0
H1453 H 0.93911 0.75616 0.46744 0.0
H1454 H 0.89812 0.75241 0.46165 0.0
H1455 H 0.91818 0.72258 0.42797 0.0
H1456 H 0.95933 0.7265 0.43349 0.0
H1457 H 0.06765 0.67146 0.47153 0.0
H1458 H 0.0443 0.70666 0.47357 0.0
H1459 H 0.01823 0.69713 0.43767 0.0
H1460 H 0.04088 0.66186 0.4357 0.0
H1461 H 0.98406 0.70813 0.45134 0.0
H1462 H 0.0605 0.73857 0.44528 0.0
H1463 H 0.10207 0.74381 0.44944 0.0
H1464 H 0.08609 0.76999 0.4845 0.0
H1465 H 0.0444 0.76462 0.48059 0.0
C1466 C 0.95572 0.81683 0.44336 0.0
C1467 C 0.94866 0.82975 0.4534 0.0
C1468 C 0.96752 0.7959 0.44479 0.0
C1469 C 0.97292 0.78764 0.45627 0.0
C1470 C 0.96582 0.80036 0.46635 0.0
C1471 C 0.95349 0.82111 0.46493 0.0
C1472 C 0.98641 0.7659 0.45756 0.0
C1473 C 0.00981 0.76727 0.46084 0.0
C1474 C 0.97704 0.7443 0.45417 0.0
C1475 C 0.95231 0.74183 0.45084 0.0
C1476 C 0.93479 0.74901 0.45876 0.0
C1477 C 0.91153 0.7468 0.45553 0.0
C1478 C 0.90555 0.73731 0.44444 0.0
C1479 C 0.92284 0.72995 0.43656 0.0
C1480 C 0.94614 0.73214 0.43973 0.0
C1481 C 0.05703 0.67694 0.46406 0.0
C1482 C 0.05614 0.66372 0.45347 0.0
C1483 C 0.0437 0.69713 0.46522 0.0
C1484 C 0.0295 0.70473 0.45575 0.0
C1485 C 0.02885 0.69165 0.44515 0.0
C1486 C 0.04193 0.67144 0.44403 0.0
C1487 C 0.01504 0.72607 0.45679 0.0
C1488 C 0.9914 0.72469 0.45387 0.0
C1489 C 0.02433 0.74773 0.46032 0.0
C1490 C 0.04936 0.75092 0.4627 0.0
C1491 C 0.06587 0.74525 0.45392 0.0
C1492 C 0.08945 0.74828 0.45622 0.0
C1493 C 0.09672 0.75715 0.46724 0.0
C1494 C 0.08043 0.76307 0.47597 0.0
C1495 C 0.05682 0.76005 0.47372 0.0
H1496 H 0.11499 0.75949 0.46901 0.0
H1497 H 0.88753 0.73562 0.44196 0.0
H1498 H 0.58953 0.78351 0.68685 0.0
H1499 H 0.55341 0.76279 0.68982 0.0
H1500 H 0.54372 0.79718 0.72376 0.0
H1501 H 0.57996 0.81852 0.72074 0.0
H1502 H 0.53967 0.73247 0.70561 0.0
H1503 H 0.485 0.80245 0.72889 0.0
H1504 H 0.48249 0.84499 0.73033 0.0
H1505 H 0.51277 0.85152 0.69534 0.0
H1506 H 0.51519 0.80904 0.69365 0.0
H1507 H 0.43035 0.68097 0.72028 0.0
H1508 H 0.46676 0.70241 0.72242 0.0
H1509 H 0.44512 0.74961 0.69467 0.0
H1510 H 0.40887 0.7287 0.69259 0.0
H1511 H 0.46516 0.77307 0.71218 0.0
H1512 H 0.48263 0.70475 0.68895 0.0
H1513 H 0.48455 0.66276 0.68513 0.0
H1514 H 0.52798 0.65392 0.71602 0.0
H1515 H 0.52606 0.69585 0.7201 0.0
C1516 C 0.57982 0.78679 0.69498 0.0
C1517 C 0.58778 0.80281 0.70355 0.0
C1518 C 0.55912 0.77477 0.69668 0.0
C1519 C 0.5457 0.77836 0.707 0.0
C1520 C 0.55359 0.79424 0.71565 0.0
C1521 C 0.57436 0.80643 0.71392 0.0
C1522 C 0.52341 0.76558 0.70844 0.0
C1523 C 0.52342 0.74137 0.70716 0.0
C1524 C 0.50208 0.77706 0.71037 0.0
C1525 C 0.50054 0.8026 0.71122 0.0
C1526 C 0.49107 0.81298 0.72151 0.0
C1527 C 0.48967 0.83707 0.72236 0.0
C1528 C 0.49755 0.85095 0.71295 0.0
C1529 C 0.50676 0.84076 0.70264 0.0
C1530 C 0.50818 0.81668 0.70174 0.0
C1531 C 0.43328 0.69598 0.71468 0.0
C1532 C 0.41661 0.70295 0.70622 0.0
C1533 C 0.45416 0.70821 0.7159 0.0
C1534 C 0.45881 0.7276 0.70865 0.0
C1535 C 0.44198 0.73481 0.70041 0.0
C1536 C 0.42122 0.72267 0.69918 0.0
C1537 C 0.48143 0.74003 0.70921 0.0
C1538 C 0.48148 0.76414 0.71087 0.0
C1539 C 0.50277 0.72853 0.70736 0.0
C1540 C 0.50397 0.70336 0.70491 0.0
C1541 C 0.49244 0.69381 0.69498 0.0
C1542 C 0.49355 0.67004 0.69276 0.0
C1543 C 0.50632 0.65567 0.70035 0.0
C1544 C 0.51806 0.66506 0.71016 0.0
C1545 C 0.51697 0.68883 0.71243 0.0
H1546 H 0.50716 0.63726 0.69862 0.0
H1547 H 0.49646 0.8696 0.71363 0.0
H1548 H 0.52043 0.15111 0.95191 0.0
H1549 H 0.4991 0.18732 0.95379 0.0
H1550 H 0.56298 0.22373 0.96054 0.0
H1551 H 0.58427 0.18704 0.95937 0.0
H1552 H 0.5321 0.24255 0.97344 0.0
H1553 H 0.53394 0.22303 0.932 0.0
H1554 H 0.529 0.19877 0.914 0.0
H1555 H 0.45597 0.19448 0.92069 0.0
H1556 H 0.46052 0.21848 0.93882 0.0
H1557 H 0.48828 0.35159 0.94988 0.0
H1558 H 0.50878 0.3147 0.95182 0.0
H1559 H 0.4457 0.28167 0.96324 0.0
H1560 H 0.42511 0.31881 0.96168 0.0
H1561 H 0.4756 0.26189 0.94149 0.0
H1562 H 0.47675 0.28436 0.98347 0.0
H1563 H 0.4847 0.3116 0.99997 0.0
H1564 H 0.55641 0.3138 0.98998 0.0
H1565 H 0.5488 0.28684 0.97329 0.0
C1566 C 0.52993 0.16682 0.95387 0.0
C1567 C 0.55407 0.16626 0.95538 0.0
C1568 C 0.51771 0.1876 0.95486 0.0
C1569 C 0.5294 0.20855 0.95695 0.0
C1570 C 0.55348 0.20791 0.95885 0.0
C1571 C 0.56567 0.18694 0.95817 0.0
C1572 C 0.51649 0.23101 0.95692 0.0
C1573 C 0.51993 0.24677 0.96637 0.0
C1574 C 0.50045 0.23677 0.94775 0.0
C1575 C 0.49762 0.22236 0.93684 0.0
C1576 C 0.51686 0.21678 0.92968 0.0
C1577 C 0.51412 0.20309 0.91944 0.0
C1578 C 0.4922 0.19504 0.91622 0.0
C1579 C 0.47295 0.20071 0.92321 0.0
C1580 C 0.47559 0.21436 0.93346 0.0
C1581 C 0.47878 0.33653 0.95291 0.0
C1582 C 0.45505 0.33812 0.95563 0.0
C1583 C 0.49055 0.3155 0.95404 0.0
C1584 C 0.47876 0.29551 0.95768 0.0
C1585 C 0.4551 0.29697 0.96045 0.0
C1586 C 0.4434 0.31817 0.9596 0.0
C1587 C 0.49106 0.27296 0.95803 0.0
C1588 C 0.48764 0.25739 0.94857 0.0
C1589 C 0.50754 0.2677 0.96699 0.0
C1590 C 0.51215 0.28379 0.97705 0.0
C1591 C 0.49416 0.29085 0.98471 0.0
C1592 C 0.49862 0.30619 0.99412 0.0
C1593 C 0.52103 0.31448 0.996 0.0
C1594 C 0.53905 0.30739 0.9885 0.0
C1595 C 0.53468 0.29207 0.97907 0.0
H1596 H 0.52445 0.32635 0.00329 0.0
H1597 H 0.49012 0.18445 0.90829 0.0
H1598 H 0.08242 0.31279 0.22329 0.0
H1599 H 0.04618 0.29079 0.22536 0.0
H1600 H 0.04071 0.28628 0.1869 0.0
H1601 H 0.07691 0.30771 0.18477 0.0
H1602 H 0.99849 0.29845 0.19892 0.0
H1603 H 0.06069 0.24198 0.20081 0.0
H1604 H 0.09636 0.22536 0.20935 0.0
H1605 H 0.06275 0.21756 0.24344 0.0
H1606 H 0.02696 0.23447 0.23513 0.0
H1607 H 0.92228 0.21068 0.18362 0.0
H1608 H 0.95684 0.23408 0.18635 0.0
H1609 H 0.95641 0.21884 0.22419 0.0
H1610 H 0.92174 0.19472 0.22146 0.0
H1611 H 1.00001 0.21902 0.2158 0.0
H1612 H 0.93675 0.27113 0.21395 0.0
H1613 H 0.90079 0.28833 0.20609 0.0
H1614 H 0.93545 0.3059 0.17329 0.0
H1615 H 0.97154 0.2885 0.18088 0.0
C1616 C 0.07332 0.30733 0.21529 0.0
C1617 C 0.08256 0.31193 0.20387 0.0
C1618 C 0.05271 0.29466 0.21649 0.0
C1619 C 0.04082 0.28678 0.20628 0.0
C1620 C 0.04959 0.29216 0.19489 0.0
C1621 C 0.07032 0.30437 0.1937 0.0
C1622 C 0.01956 0.2724 0.20729 0.0
C1623 C 0.99882 0.28105 0.20257 0.0
C1624 C 0.01981 0.24999 0.21242 0.0
C1625 C 0.04127 0.23977 0.21739 0.0
C1626 C 0.06098 0.23693 0.21015 0.0
C1627 C 0.0812 0.22742 0.21494 0.0
C1628 C 0.08185 0.22048 0.22694 0.0
C1629 C 0.06224 0.22299 0.23415 0.0
C1630 C 0.04199 0.23253 0.22941 0.0
C1631 C 0.9295 0.21217 0.19255 0.0
C1632 C 0.91899 0.20102 0.20235 0.0
C1633 C 0.94928 0.22569 0.1941 0.0
C1634 C 0.95895 0.2288 0.20553 0.0
C1635 C 0.94916 0.2169 0.2153 0.0
C1636 C 0.92936 0.2031 0.21372 0.0
C1637 C 0.97897 0.24483 0.20712 0.0
C1638 C 0.99949 0.23654 0.21233 0.0
C1639 C 0.97847 0.26775 0.20257 0.0
C1640 C 0.95683 0.27836 0.19797 0.0
C1641 C 0.93667 0.27852 0.20503 0.0
C1642 C 0.91626 0.28833 0.20063 0.0
C1643 C 0.91582 0.29817 0.18919 0.0
C1644 C 0.93581 0.29827 0.18214 0.0
C1645 C 0.95626 0.28846 0.1865 0.0
H1646 H 0.90001 0.30575 0.1858 0.0
H1647 H 0.09751 0.21311 0.23063 0.0
H1648 H 0.95018 0.67427 0.9354 0.0
H1649 H 0.9736 0.70917 0.93711 0.0
H1650 H 0.9693 0.7053 0.97566 0.0
H1651 H 0.94494 0.67058 0.97396 0.0
H1652 H 0.96812 0.74915 0.96893 0.0
H1653 H 0.01795 0.68589 0.96032 0.0
H1654 H 0.03172 0.65112 0.94969 0.0
H1655 H 0.03928 0.69052 0.9173 0.0
H1656 H 0.02525 0.72547 0.92769 0.0
H1657 H 0.06435 0.8293 0.97231 0.0
H1658 H 0.04192 0.79342 0.97465 0.0
H1659 H 0.02847 0.79258 0.93664 0.0
H1660 H 0.05049 0.82829 0.93426 0.0
H1661 H 0.04151 0.74933 0.94583 0.0
H1662 H 0.98817 0.81192 0.95497 0.0
H1663 H 0.97533 0.84621 0.96632 0.0
H1664 H 0.9765 0.80688 0.99897 0.0
H1665 H 0.98967 0.77242 0.98782 0.0
C1666 C 0.954 0.68096 0.94426 0.0
C1667 C 0.94593 0.66951 0.95456 0.0
C1668 C 0.96754 0.70087 0.94523 0.0
C1669 C 0.97389 0.70954 0.95652 0.0
C1670 C 0.96485 0.69885 0.96685 0.0
C1671 C 0.9509 0.67904 0.96587 0.0
C1672 C 0.99049 0.72926 0.9574 0.0
C1673 C 0.98436 0.74898 0.96405 0.0
C1674 C 0.01175 0.72921 0.95105 0.0
C1675 C 0.02039 0.70827 0.94477 0.0
C1676 C 0.02242 0.68711 0.95091 0.0
C1677 C 0.03028 0.66737 0.94493 0.0
C1678 C 0.03633 0.6686 0.93282 0.0
C1679 C 0.03458 0.68959 0.92668 0.0
C1680 C 0.0267 0.70938 0.93261 0.0
C1681 C 0.0568 0.82131 0.96445 0.0
C1682 C 0.05914 0.83171 0.95311 0.0
C1683 C 0.04389 0.8009 0.96581 0.0
C1684 C 0.03337 0.79042 0.95583 0.0
C1685 C 0.03638 0.80037 0.94447 0.0
C1686 C 0.04894 0.82084 0.94313 0.0
C1687 C 0.01882 0.76931 0.95707 0.0
C1688 C 0.02541 0.74931 0.95083 0.0
C1689 C 0.99821 0.76903 0.96392 0.0
C1690 C 0.99017 0.78969 0.97059 0.0
C1691 C 0.98589 0.81064 0.96459 0.0
C1692 C 0.97851 0.8301 0.97098 0.0
C1693 C 0.97517 0.82875 0.98336 0.0
C1694 C 0.97914 0.80791 0.98938 0.0
C1695 C 0.98655 0.78842 0.98303 0.0
H1696 H 0.96946 0.84382 0.98829 0.0
H1697 H 0.04241 0.6533 0.9282 0.0
H1698 H 0.90551 0.27146 0.70058 0.0
H1699 H 0.94241 0.25118 0.7028 0.0
H1700 H 0.97482 0.31448 0.7144 0.0
H1701 H 0.93767 0.33489 0.71249 0.0
H1702 H 0.9973 0.28802 0.69433 0.0
H1703 H 0.96827 0.27852 0.73459 0.0
H1704 H 0.93902 0.26737 0.7496 0.0
H1705 H 0.94014 0.1975 0.73656 0.0
H1706 H 0.96916 0.20831 0.72134 0.0
H1707 H 0.10653 0.23971 0.7056 0.0
H1708 H 0.07038 0.26122 0.70744 0.0
H1709 H 0.03265 0.19694 0.71005 0.0
H1710 H 0.06921 0.17543 0.70905 0.0
H1711 H 0.01243 0.22508 0.72354 0.0
H1712 H 0.03672 0.2324 0.68266 0.0
H1713 H 0.06265 0.24153 0.66574 0.0
H1714 H 0.06749 0.31198 0.67761 0.0
H1715 H 0.04156 0.30332 0.6946 0.0
C1716 C 0.92043 0.28107 0.70369 0.0
C1717 C 0.91865 0.30482 0.70635 0.0
C1718 C 0.94149 0.26941 0.70499 0.0
C1719 C 0.96133 0.2813 0.70879 0.0
C1720 C 0.95967 0.30498 0.71149 0.0
C1721 C 0.93844 0.31659 0.71043 0.0
C1722 C 0.98393 0.26908 0.70938 0.0
C1723 C 1.00084 0.27453 0.70085 0.0
C1724 C 0.98807 0.25084 0.71756 0.0
C1725 C 0.97073 0.24429 0.72675 0.0
C1726 C 0.96213 0.26083 0.73485 0.0
C1727 C 0.94562 0.25456 0.74341 0.0
C1728 C 0.93768 0.23175 0.74401 0.0
C1729 C 0.94629 0.21516 0.73607 0.0
C1730 C 0.96278 0.22135 0.72749 0.0
C1731 C 0.09052 0.23019 0.70669 0.0
C1732 C 0.09066 0.2059 0.70713 0.0
C1733 C 0.06977 0.2425 0.70761 0.0
C1734 C 0.04849 0.23082 0.70849 0.0
C1735 C 0.0487 0.20649 0.70931 0.0
C1736 C 0.06961 0.19416 0.70874 0.0
C1737 C 0.02614 0.24396 0.70844 0.0
C1738 C 0.00913 0.23864 0.71704 0.0
C1739 C 0.02161 0.26196 0.70009 0.0
C1740 C 0.03742 0.26715 0.68997 0.0
C1741 C 0.04346 0.2498 0.68171 0.0
C1742 C 0.05812 0.25489 0.6721 0.0
C1743 C 0.06683 0.27726 0.67065 0.0
C1744 C 0.06079 0.29464 0.67877 0.0
C1745 C 0.04606 0.28967 0.68837 0.0
H1746 H 0.07819 0.28115 0.6632 0.0
H1747 H 0.9249 0.22693 0.75065 0.0
H1748 H 0.54192 0.33301 0.43649 0.0
H1749 H 0.51879 0.29827 0.43909 0.0
H1750 H 0.53974 0.29419 0.47613 0.0
H1751 H 0.56343 0.3292 0.47355 0.0
H1752 H 0.53822 0.25129 0.46584 0.0
H1753 H 0.48686 0.31461 0.46952 0.0
H1754 H 0.4687 0.35189 0.46435 0.0
H1755 H 0.44454 0.32339 0.43109 0.0
H1756 H 0.46286 0.28602 0.43597 0.0
H1757 H 0.44346 0.16927 0.47377 0.0
H1758 H 0.46606 0.20498 0.47652 0.0
H1759 H 0.46812 0.21468 0.43822 0.0
H1760 H 0.44624 0.17887 0.43541 0.0
H1761 H 0.45615 0.25584 0.45292 0.0
H1762 H 0.51268 0.19367 0.44915 0.0
H1763 H 0.53022 0.15659 0.45522 0.0
H1764 H 0.54312 0.18375 0.49042 0.0
H1765 H 0.52531 0.22091 0.48459 0.0
C1766 C 0.54177 0.32477 0.44521 0.0
C1767 C 0.55435 0.33416 0.45487 0.0
C1768 C 0.52842 0.30487 0.44669 0.0
C1769 C 0.52703 0.29388 0.45788 0.0
C1770 C 0.54038 0.30249 0.46743 0.0
C1771 C 0.55392 0.32249 0.46594 0.0
C1772 C 0.51115 0.27377 0.45944 0.0
C1773 C 0.52017 0.25242 0.46325 0.0
C1774 C 0.48753 0.27512 0.45607 0.0
C1775 C 0.47638 0.29754 0.45309 0.0
C1776 C 0.47782 0.31633 0.46106 0.0
C1777 C 0.46747 0.33748 0.45819 0.0
C1778 C 0.45551 0.34002 0.44739 0.0
C1779 C 0.45382 0.3214 0.43945 0.0
C1780 C 0.46416 0.30022 0.44227 0.0
C1781 C 0.44853 0.17919 0.46596 0.0
C1782 C 0.44311 0.17128 0.45437 0.0
C1783 C 0.46152 0.19948 0.46754 0.0
C1784 C 0.46882 0.2124 0.45756 0.0
C1785 C 0.46267 0.20496 0.44603 0.0
C1786 C 0.4502 0.18448 0.44444 0.0
C1787 C 0.48342 0.23339 0.45897 0.0
C1788 C 0.47411 0.25487 0.45571 0.0
C1789 C 0.5066 0.2322 0.46301 0.0
C1790 C 0.51738 0.20994 0.46649 0.0
C1791 C 0.51903 0.19165 0.45822 0.0
C1792 C 0.52907 0.17064 0.46161 0.0
C1793 C 0.5377 0.16779 0.47321 0.0
C1794 C 0.53637 0.18597 0.48144 0.0
C1795 C 0.52632 0.20701 0.4781 0.0
H1796 H 0.54547 0.15151 0.47582 0.0
H1797 H 0.4475 0.3564 0.44519 0.0
H1798 H 0.42509 0.79716 0.18642 0.0
H1799 H 0.46033 0.77473 0.189 0.0
H1800 H 0.4585 0.78765 0.22707 0.0
H1801 H 0.42335 0.81111 0.22443 0.0
H1802 H 0.50177 0.78854 0.21979 0.0
H1803 H 0.44064 0.73472 0.21492 0.0
H1804 H 0.40594 0.71716 0.20584 0.0
H1805 H 0.44352 0.7047 0.17328 0.0
H1806 H 0.47837 0.72249 0.1821 0.0
H1807 H 0.58585 0.69468 0.22556 0.0
H1808 H 0.54945 0.71643 0.2278 0.0
H1809 H 0.54707 0.72714 0.18958 0.0
H1810 H 0.58335 0.70602 0.1873 0.0
H1811 H 0.50434 0.71143 0.20028 0.0
H1812 H 0.56474 0.76926 0.2058 0.0
H1813 H 0.59898 0.78537 0.21601 0.0
H1814 H 0.56149 0.78768 0.24921 0.0
H1815 H 0.52712 0.77121 0.23923 0.0
C1816 C 0.43217 0.79535 0.19536 0.0
C1817 C 0.42119 0.80572 0.20524 0.0
C1818 C 0.45233 0.78236 0.19684 0.0
C1819 C 0.46182 0.77881 0.20828 0.0
C1820 C 0.45145 0.7899 0.21815 0.0
C1821 C 0.43135 0.80331 0.21664 0.0
C1822 C 0.48231 0.76327 0.20977 0.0
C1823 C 0.50212 0.77151 0.21572 0.0
C1824 C 0.48297 0.74093 0.2045 0.0
C1825 C 0.46208 0.73009 0.19916 0.0
C1826 C 0.44147 0.72837 0.2058 0.0
C1827 C 0.42178 0.71836 0.2007 0.0
C1828 C 0.42252 0.70986 0.18898 0.0
C1829 C 0.44297 0.7113 0.18235 0.0
C1830 C 0.46271 0.72132 0.1874 0.0
C1831 C 0.57747 0.70159 0.21765 0.0
C1832 C 0.58755 0.6987 0.20626 0.0
C1833 C 0.55675 0.71408 0.21894 0.0
C1834 C 0.54561 0.72349 0.20886 0.0
C1835 C 0.55537 0.72008 0.19749 0.0
C1836 C 0.57618 0.70805 0.19621 0.0
C1837 C 0.52381 0.73703 0.20995 0.0
C1838 C 0.50377 0.72834 0.2045 0.0
C1839 C 0.52286 0.75868 0.21585 0.0
C1840 C 0.54346 0.76874 0.22181 0.0
C1841 C 0.56387 0.77299 0.21531 0.0
C1842 C 0.58328 0.78223 0.22104 0.0
C1843 C 0.58243 0.78748 0.23326 0.0
C1844 C 0.56214 0.78356 0.23976 0.0
C1845 C 0.54268 0.77428 0.23406 0.0
H1846 H 0.59747 0.79465 0.23769 0.0
H1847 H 0.40725 0.70211 0.18505 0.0
H1848 H 0.92249 0.32217 0.54271 0.0
H1849 H 0.94401 0.28562 0.541 0.0
H1850 H 0.00784 0.32183 0.5478 0.0
H1851 H 0.98644 0.35819 0.54992 0.0
H1852 H 0.00578 0.28441 0.52723 0.0
H1853 H 0.99273 0.29961 0.56985 0.0
H1854 H 0.96759 0.30904 0.58703 0.0
H1855 H 0.92607 0.24904 0.57979 0.0
H1856 H 0.95079 0.23949 0.56243 0.0
H1857 H 0.08161 0.19063 0.54235 0.0
H1858 H 0.06095 0.2275 0.54021 0.0
H1859 H 0.99728 0.19396 0.55061 0.0
H1860 H 0.01806 0.15771 0.55337 0.0
H1861 H 0.99891 0.23103 0.56187 0.0
H1862 H 0.01111 0.21312 0.5205 0.0
H1863 H 0.03333 0.20295 0.50238 0.0
H1864 H 0.07267 0.26565 0.50563 0.0
H1865 H 0.05088 0.27606 0.52387 0.0
C1866 C 0.94113 0.32237 0.54367 0.0
C1867 C 0.95277 0.34301 0.54651 0.0
C1868 C 0.95339 0.30151 0.5427 0.0
C1869 C 0.97751 0.30108 0.54426 0.0
C1870 C 0.98926 0.32183 0.54652 0.0
C1871 C 0.97699 0.34254 0.54779 0.0
C1872 C 0.99026 0.27879 0.5445 0.0
C1873 C 0.00451 0.27273 0.53482 0.0
C1874 C 0.98811 0.26342 0.55427 0.0
C1875 C 0.97342 0.26901 0.56477 0.0
C1876 C 0.9781 0.28857 0.57185 0.0
C1877 C 0.96396 0.29391 0.58163 0.0
C1878 C 0.94519 0.27969 0.58447 0.0
C1879 C 0.94058 0.26006 0.57756 0.0
C1880 C 0.95465 0.25467 0.56775 0.0
C1881 C 0.06317 0.19117 0.54406 0.0
C1882 C 0.05149 0.17132 0.54809 0.0
C1883 C 0.0513 0.21223 0.54278 0.0
C1884 C 0.02738 0.21366 0.54516 0.0
C1885 C 0.0157 0.19355 0.54881 0.0
C1886 C 0.02761 0.17275 0.55035 0.0
C1887 C 0.01457 0.23614 0.54449 0.0
C1888 C 1.00028 0.24241 0.55417 0.0
C1889 C 0.01638 0.25144 0.53458 0.0
C1890 C 0.02952 0.24525 0.52362 0.0
C1891 C 0.02462 0.22466 0.5174 0.0
C1892 C 0.03712 0.21886 0.5071 0.0
C1893 C 0.05444 0.23361 0.50288 0.0
C1894 C 0.05927 0.25422 0.50893 0.0
C1895 C 0.04684 0.26009 0.51924 0.0
H1896 H 0.06409 0.2291 0.4949 0.0
H1897 H 0.93426 0.28385 0.59205 0.0
H1898 H 0.42743 0.2002 0.3196 0.0
H1899 H 0.46258 0.2231 0.31755 0.0
H1900 H 0.45492 0.22246 0.27908 0.0
H1901 H 0.41997 0.19848 0.28111 0.0
H1902 H 0.49909 0.2199 0.28439 0.0
H1903 H 0.43857 0.27038 0.29638 0.0
H1904 H 0.40543 0.28399 0.30837 0.0
H1905 H 0.44831 0.28663 0.33977 0.0
H1906 H 0.48165 0.27272 0.328 0.0
H1907 H 0.58263 0.31396 0.28262 0.0
H1908 H 0.54615 0.29259 0.28013 0.0
H1909 H 0.54732 0.27429 0.31758 0.0
H1910 H 0.58354 0.29528 0.32013 0.0
H1911 H 0.50425 0.2901 0.30985 0.0
H1912 H 0.56388 0.23585 0.2971 0.0
H1913 H 0.59642 0.22351 0.2843 0.0
H1914 H 0.55379 0.23073 0.253 0.0
H1915 H 0.52108 0.24342 0.26562 0.0
C1916 C 0.43331 0.20476 0.31068 0.0
C1917 C 0.42078 0.19775 0.30052 0.0
C1918 C 0.45337 0.21801 0.30952 0.0
C1919 C 0.46109 0.22522 0.29818 0.0
C1920 C 0.44923 0.21735 0.28794 0.0
C1921 C 0.42928 0.20362 0.2891 0.0
C1922 C 0.4812 0.24136 0.2972 0.0
C1923 C 0.49999 0.23547 0.2898 0.0
C1924 C 0.48255 0.2618 0.3042 0.0
C1925 C 0.46258 0.27036 0.31131 0.0
C1926 C 0.44091 0.27373 0.30586 0.0
C1927 C 0.42208 0.28152 0.31261 0.0
C1928 C 0.42475 0.28614 0.32483 0.0
C1929 C 0.44627 0.28304 0.3303 0.0
C1930 C 0.46514 0.27523 0.32359 0.0
C1931 C 0.57503 0.30549 0.29033 0.0
C1932 C 0.5861 0.30628 0.30157 0.0
C1933 C 0.55425 0.29319 0.28888 0.0
C1934 C 0.54408 0.28171 0.29866 0.0
C1935 C 0.55484 0.28297 0.30991 0.0
C1936 C 0.57563 0.29495 0.31133 0.0
C1937 C 0.52229 0.26821 0.29738 0.0
C1938 C 0.50314 0.27469 0.30433 0.0
C1939 C 0.52052 0.2486 0.28983 0.0
C1940 C 0.54014 0.24084 0.28228 0.0
C1941 C 0.56151 0.23499 0.28748 0.0
C1942 C 0.57997 0.2279 0.28026 0.0
C1943 C 0.5772 0.22641 0.26784 0.0
C1944 C 0.55593 0.23194 0.26262 0.0
C1945 C 0.53742 0.23907 0.2698 0.0
H1946 H 0.59151 0.22092 0.26227 0.0
H1947 H 0.41016 0.29215 0.33004 0.0
H1948 H 0.48621 0.85387 0.05371 0.0
H1949 H 0.50642 0.81687 0.05164 0.0
H1950 H 0.4429 0.78431 0.04048 0.0
H1951 H 0.42259 0.82154 0.04221 0.0
H1952 H 0.47062 0.76281 0.06106 0.0
H1953 H 0.47706 0.78956 0.02009 0.0
H1954 H 0.48723 0.81805 0.00451 0.0
H1955 H 0.55792 0.81748 0.01633 0.0
H1956 H 0.54809 0.78923 0.03211 0.0
H1957 H 0.51624 0.6527 0.05005 0.0
H1958 H 0.49523 0.68907 0.04789 0.0
H1959 H 0.55994 0.72564 0.0441 0.0
H1960 H 0.58096 0.68882 0.04549 0.0
H1961 H 0.5309 0.74572 0.03065 0.0
H1962 H 0.5272 0.72262 0.07162 0.0
H1963 H 0.51972 0.69681 0.08878 0.0
H1964 H 0.44775 0.69369 0.07937 0.0
H1965 H 0.45487 0.71926 0.06204 0.0
C1966 C 0.47655 0.83889 0.05072 0.0
C1967 C 0.45277 0.84065 0.04813 0.0
C1968 C 0.48815 0.81778 0.04951 0.0
C1969 C 0.47617 0.79788 0.04589 0.0
C1970 C 0.45246 0.79952 0.04326 0.0
C1971 C 0.44091 0.82079 0.04421 0.0
C1972 C 0.48831 0.77524 0.04539 0.0
C1973 C 0.4835 0.75883 0.05429 0.0
C1974 C 0.50583 0.77058 0.03688 0.0
C1975 C 0.51178 0.78745 0.02736 0.0
C1976 C 0.49473 0.79567 0.01944 0.0
C1977 C 0.50044 0.81174 0.01056 0.0
C1978 C 0.52319 0.81962 0.00945 0.0
C1979 C 0.54029 0.81139 0.01721 0.0
C1980 C 0.53466 0.79533 0.02611 0.0
C1981 C 0.52597 0.66848 0.04863 0.0
C1982 C 0.55025 0.66796 0.04803 0.0
C1983 C 0.51395 0.68934 0.04749 0.0
C1984 C 0.52592 0.71038 0.04622 0.0
C1985 C 0.5502 0.70976 0.04516 0.0
C1986 C 0.56224 0.68872 0.04595 0.0
C1987 C 0.51313 0.7329 0.04631 0.0
C1988 C 0.51791 0.74945 0.0374 0.0
C1989 C 0.49598 0.73801 0.05504 0.0
C1990 C 0.49161 0.72267 0.06546 0.0
C1991 C 0.50981 0.71631 0.07316 0.0
C1992 C 0.50563 0.70173 0.08293 0.0
C1993 C 0.48329 0.69357 0.08515 0.0
C1994 C 0.46506 0.70001 0.07762 0.0
C1995 C 0.46915 0.71455 0.06784 0.0
H1996 H 0.48009 0.68229 0.09271 0.0
H1997 H 0.52758 0.83206 0.00256 0.0
H1998 H 0.90504 0.73651 0.80461 0.0
H1999 H 0.94187 0.7569 0.80216 0.0
H2000 H 0.97457 0.69332 0.79123 0.0
H2001 H 0.93747 0.67282 0.7933 0.0
H2002 H 0.99471 0.72419 0.8126 0.0
H2003 H 0.97187 0.7233 0.77072 0.0
H2004 H 0.94454 0.73034 0.75415 0.0
H2005 H 0.94222 0.80253 0.76314 0.0
H2006 H 0.96927 0.79583 0.7799 0.0
H2007 H 0.10524 0.76864 0.80126 0.0
H2008 H 0.06905 0.74721 0.79965 0.0
H2009 H 0.03243 0.81084 0.79258 0.0
H2010 H 0.06908 0.83224 0.79351 0.0
H2011 H 0.01357 0.7793 0.77993 0.0
H2012 H 0.03364 0.78289 0.82134 0.0
H2013 H 0.05811 0.77859 0.83931 0.0
H2014 H 0.06241 0.70537 0.83331 0.0
H2015 H 0.03819 0.70924 0.81521 0.0
C2016 C 0.92001 0.72687 0.80157 0.0
C2017 C 0.91835 0.70302 0.79916 0.0
C2018 C 0.94101 0.73858 0.80015 0.0
C2019 C 0.96089 0.72662 0.7965 0.0
C2020 C 0.95936 0.70285 0.79402 0.0
C2021 C 0.93817 0.69119 0.79516 0.0
C2022 C 0.98343 0.73888 0.79591 0.0
C2023 C 0.9991 0.73592 0.80536 0.0
C2024 C 0.98856 0.75495 0.78674 0.0
C2025 C 0.97238 0.75901 0.77664 0.0
C2026 C 0.96534 0.74062 0.76924 0.0
C2027 C 0.94994 0.74456 0.7598 0.0
C2028 C 0.94159 0.76685 0.75761 0.0
C2029 C 0.94867 0.78526 0.76485 0.0
C2030 C 0.96405 0.78141 0.77432 0.0
C2031 C 0.0895 0.77806 0.79927 0.0
C2032 C 0.08998 0.80217 0.79761 0.0
C2033 C 0.06873 0.76579 0.79844 0.0
C2034 C 0.04774 0.77739 0.79635 0.0
C2035 C 0.04829 0.80142 0.79428 0.0
C2036 C 0.06924 0.81367 0.79482 0.0
C2037 C 0.02531 0.76446 0.79659 0.0
C2038 C 0.00946 0.76744 0.78715 0.0
C2039 C 0.01971 0.74878 0.80597 0.0
C2040 C 0.03429 0.74639 0.81685 0.0
C2041 C 0.03994 0.76589 0.8238 0.0
C2042 C 0.05374 0.76353 0.83402 0.0
C2043 C 0.06186 0.74174 0.83743 0.0
C2044 C 0.05614 0.72224 0.83065 0.0
C2045 C 0.04236 0.7245 0.82041 0.0
H2046 H 0.07254 0.73996 0.84534 0.0
H2047 H 0.92968 0.76987 0.75029 0.0
H2048 H 0.33776 0.43063 0.97547 0.0
H2049 H 0.29994 0.43141 0.98549 0.0
H2050 H 0.30929 0.36063 0.99658 0.0
H2051 H 0.3474 0.35991 0.98689 0.0
H2052 H 0.26468 0.37299 0.9839 0.0
H2053 H 0.31389 0.39585 0.01709 0.0
H2054 H 0.34348 0.42037 0.02669 0.0
H2055 H 0.30104 0.48038 0.02111 0.0
H2056 H 0.27133 0.45625 0.01132 0.0
H2057 H 0.16679 0.35776 0.02112 0.0
H2058 H 0.20485 0.35849 0.01168 0.0
H2059 H 0.20683 0.43283 0.01534 0.0
H2060 H 0.1694 0.4318 0.02564 0.0
H2061 H 0.24633 0.4196 0.01999 0.0
H2062 H 0.1976 0.40048 0.987 0.0
H2063 H 0.16774 0.37921 0.97569 0.0
H2064 H 0.20777 0.31685 0.97841 0.0
H2065 H 0.23775 0.33769 0.98986 0.0
C2066 C 0.3319 0.41532 0.98018 0.0
C2067 C 0.34566 0.39523 0.98042 0.0
C2068 C 0.31026 0.41579 0.98588 0.0
C2069 C 0.30173 0.39606 0.99176 0.0
C2070 C 0.3155 0.37604 0.99209 0.0
C2071 C 0.33735 0.37572 0.98661 0.0
C2072 C 0.2782 0.39611 0.99726 0.0
C2073 C 0.26066 0.38293 0.99189 0.0
C2074 C 0.27275 0.40982 0.00736 0.0
C2075 C 0.29051 0.42428 0.01336 0.0
C2076 C 0.31096 0.41431 0.01781 0.0
C2077 C 0.32774 0.42813 0.02331 0.0
C2078 C 0.32418 0.45193 0.02448 0.0
C2079 C 0.30379 0.46195 0.02019 0.0
C2080 C 0.28697 0.4482 0.01467 0.0
C2081 C 0.17523 0.37429 0.01978 0.0
C2082 C 0.16496 0.39475 0.02403 0.0
C2083 C 0.19705 0.37475 0.01429 0.0
C2084 C 0.20885 0.39579 0.01247 0.0
C2085 C 0.19833 0.41631 0.01658 0.0
C2086 C 0.1768 0.41576 0.02241 0.0
C2087 C 0.23238 0.3963 0.0067 0.0
C2088 C 0.25006 0.40964 0.01198 0.0
C2089 C 0.2378 0.38321 0.99628 0.0
C2090 C 0.21982 0.37061 0.98939 0.0
C2091 C 0.19996 0.3822 0.98525 0.0
C2092 C 0.18303 0.37022 0.97881 0.0
C2093 C 0.18583 0.34668 0.97636 0.0
C2094 C 0.20561 0.33508 0.98033 0.0
C2095 C 0.22259 0.34697 0.98678 0.0
H2096 H 0.17269 0.33744 0.97137 0.0
H2097 H 0.33719 0.4626 0.02873 0.0
H2098 H 0.84259 0.07641 0.21319 0.0
H2099 H 0.84229 0.03897 0.22319 0.0
H2100 H 0.86951 0.07062 0.25527 0.0
H2101 H 0.87146 0.10799 0.24486 0.0
H2102 H 0.88913 0.03252 0.25351 0.0
H2103 H 0.80855 0.05171 0.25058 0.0
H2104 H 0.77249 0.06337 0.2404 0.0
H2105 H 0.7761 1.00309 0.21799 0.0
H2106 H 0.81231 0.99121 0.22794 0.0
H2107 H 0.82594 0.92746 0.28285 0.0
H2108 H 0.82474 0.96544 0.27319 0.0
H2109 H 0.88729 0.94923 0.25388 0.0
H2110 H 0.88864 0.91118 0.26357 0.0
H2111 H 0.82131 0.98025 0.25064 0.0
H2112 H 0.92003 0.99758 0.25148 0.0
H2113 H 0.95395 0.98766 0.26391 0.0
H2114 H 0.9099 0.97838 0.29453 0.0
H2115 H 0.8758 0.98845 0.28231 0.0
C2116 C 0.84832 0.07547 0.22242 0.0
C2117 C 0.85679 0.09528 0.22827 0.0
C2118 C 0.84801 0.05395 0.22819 0.0
C2119 C 0.85528 0.05174 0.24018 0.0
C2120 C 0.8637 0.07164 0.24606 0.0
C2121 C 0.86468 0.09309 0.24014 0.0
C2122 C 0.85463 0.02866 0.24641 0.0
C2123 C 0.87422 0.02122 0.25285 0.0
C2124 C 0.83515 0.01369 0.24584 0.0
C2125 C 0.81322 0.02067 0.23995 0.0
C2126 C 0.8017 0.041 0.24344 0.0
C2127 C 0.78123 0.04765 0.23772 0.0
C2128 C 0.77204 0.03401 0.22854 0.0
C2129 C 0.78325 0.01365 0.22509 0.0
C2130 C 0.80372 0.00693 0.23079 0.0
C2131 C 0.83936 0.93186 0.27647 0.0
C2132 C 0.85741 0.91621 0.27401 0.0
C2133 C 0.83863 0.95364 0.27093 0.0
C2134 C 0.85606 0.96044 0.26289 0.0
C2135 C 0.8738 0.9446 0.26018 0.0
C2136 C 0.87447 0.92275 0.26567 0.0
C2137 C 0.85585 0.98419 0.25751 0.0
C2138 C 0.83615 0.99167 0.25125 0.0
C2139 C 0.87492 0.99945 0.25854 0.0
C2140 C 0.89537 0.99354 0.26594 0.0
C2141 C 0.91762 0.99348 0.26087 0.0
C2142 C 0.93686 0.98782 0.26787 0.0
C2143 C 0.93407 0.98232 0.27999 0.0
C2144 C 0.91203 0.98254 0.28513 0.0
C2145 C 0.89274 0.98818 0.27817 0.0
H2146 H 0.94899 0.97795 0.28539 0.0
H2147 H 0.75621 0.03919 0.22411 0.0
H2148 H 0.17799 0.57724 0.47111 0.0
H2149 H 0.21542 0.57686 0.48128 0.0
H2150 H 0.19602 0.63778 0.50119 0.0
H2151 H 0.15829 0.63805 0.49114 0.0
H2152 H 0.24986 0.60635 0.48091 0.0
H2153 H 0.22406 0.63813 0.52825 0.0
H2154 H 0.19068 0.63638 0.54201 0.0
H2155 H 0.16781 0.5735 0.52529 0.0
H2156 H 0.2012 0.57471 0.51154 0.0
H2157 H 0.35031 0.64143 0.51352 0.0
H2158 H 0.31239 0.63923 0.50379 0.0
H2159 H 0.29499 0.58 0.5255 0.0
H2160 H 0.33273 0.58232 0.53536 0.0
H2161 H 0.25956 0.60884 0.52505 0.0
H2162 H 0.30875 0.57471 0.49541 0.0
H2163 H 0.34218 0.57253 0.48172 0.0
H2164 H 0.31826 0.63301 0.46313 0.0
H2165 H 0.28484 0.63574 0.47682 0.0
C2166 C 0.18153 0.59044 0.47775 0.0
C2167 C 0.16501 0.60764 0.48033 0.0
C2168 C 0.20307 0.59028 0.48352 0.0
C2169 C 0.2087 0.60723 0.49207 0.0
C2170 C 0.19211 0.62429 0.49477 0.0
C2171 C 0.17049 0.62445 0.489 0.0
C2172 C 0.23209 0.60727 0.49788 0.0
C2173 C 0.25192 0.60695 0.49057 0.0
C2174 C 0.23502 0.60769 0.51049 0.0
C2175 C 0.215 0.60667 0.51879 0.0
C2176 C 0.21194 0.62389 0.52754 0.0
C2177 C 0.19302 0.623 0.53533 0.0
C2178 C 0.17709 0.60488 0.5345 0.0
C2179 C 0.18011 0.58757 0.52589 0.0
C2180 C 0.19901 0.58837 0.51809 0.0
C2181 C 0.33852 0.62779 0.51615 0.0
C2182 C 0.34468 0.612 0.5252 0.0
C2183 C 0.31679 0.62653 0.51056 0.0
C2184 C 0.30071 0.60936 0.51383 0.0
C2185 C 0.30695 0.59346 0.5228 0.0
C2186 C 0.32865 0.59471 0.52839 0.0
C2187 C 0.27731 0.60819 0.50808 0.0
C2188 C 0.25749 0.60834 0.51539 0.0
C2189 C 0.27438 0.60718 0.49547 0.0
C2190 C 0.29442 0.60556 0.48721 0.0
C2191 C 0.31072 0.58765 0.48846 0.0
C2192 C 0.32965 0.58629 0.48069 0.0
C2193 C 0.33237 0.60265 0.47158 0.0
C2194 C 0.31614 0.62037 0.4702 0.0
C2195 C 0.29719 0.62182 0.47795 0.0
H2196 H 0.34704 0.60158 0.46557 0.0
H2197 H 0.16245 0.60423 0.54053 0.0
H2198 H 0.62034 0.09528 0.76259 0.0
H2199 H 0.62082 0.05715 0.75303 0.0
H2200 H 0.68187 0.03903 0.77317 0.0
H2201 H 0.68117 0.07692 0.78294 0.0
H2202 H 0.64913 0.03425 0.73905 0.0
H2203 H 0.68149 0.98172 0.77993 0.0
H2204 H 0.68045 0.98363 0.80201 0.0
H2205 H 0.61804 0.02382 0.80049 0.0
H2206 H 0.61854 0.02188 0.7784 0.0
H2207 H 0.67952 0.92192 0.71935 0.0
H2208 H 0.68061 0.95947 0.72941 0.0
H2209 H 0.62144 0.94009 0.7507 0.0
H2210 H 0.62047 0.90227 0.74077 0.0
H2211 H 0.65135 0.96347 0.76418 0.0
H2212 H 0.61578 0.97516 0.72597 0.0
H2213 H 0.61255 0.97313 0.70395 0.0
H2214 H 0.67377 0.01461 0.70031 0.0
H2215 H 0.67755 0.01662 0.72232 0.0
C2216 C 0.63398 0.08325 0.76492 0.0
C2217 C 0.65065 0.08919 0.77359 0.0
C2218 C 0.63425 0.0614 0.75943 0.0
C2219 C 0.65116 0.04491 0.76248 0.0
C2220 C 0.66832 0.05115 0.77081 0.0
C2221 C 0.668 0.07295 0.77634 0.0
C2222 C 0.65058 0.02115 0.7571 0.0
C2223 C 0.64971 0.01882 0.74457 0.0
C2224 C 0.65084 1.00082 0.76423 0.0
C2225 C 0.65021 1.00184 0.77751 0.0
C2226 C 0.6675 0.99089 0.78431 0.0
C2227 C 0.66701 0.99199 0.79683 0.0
C2228 C 0.64923 0.00391 0.80265 0.0
C2229 C 0.63185 0.01467 0.79597 0.0
C2230 C 0.63224 0.01359 0.78345 0.0
C2231 C 0.66687 0.9255 0.72627 0.0
C2232 C 0.64984 0.90903 0.72921 0.0
C2233 C 0.66743 0.9471 0.73198 0.0
C2234 C 0.65087 0.95291 0.7407 0.0
C2235 C 0.63439 0.93615 0.74399 0.0
C2236 C 0.63384 0.91449 0.73829 0.0
C2237 C 0.65035 0.97661 0.74614 0.0
C2238 C 0.65095 0.97892 0.75867 0.0
C2239 C 0.64934 0.99692 0.73902 0.0
C2240 C 0.64707 0.99585 0.72579 0.0
C2241 C 0.62865 0.98371 0.72047 0.0
C2242 C 0.6267 0.98258 0.70799 0.0
C2243 C 0.64298 0.99369 0.70074 0.0
C2244 C 0.6612 0.00599 0.70595 0.0
C2245 C 0.66324 0.00714 0.71842 0.0
H2246 H 0.64145 0.99279 0.69108 0.0
H2247 H 0.6489 0.00476 0.81234 0.0
H2248 H 0.65282 0.63414 0.01253 0.0
H2249 H 0.6903 0.63216 0.00232 0.0
H2250 H 0.71452 0.58334 0.02874 0.0
H2251 H 0.67692 0.58466 0.03869 0.0
H2252 H 0.7314 0.64393 0.00816 0.0
H2253 H 0.75544 0.54795 0.01768 0.0
H2254 H 0.73596 0.51022 0.01994 0.0
H2255 H 0.67883 0.53456 0.99882 0.0
H2256 H 0.6981 0.5723 0.9963 0.0
H2257 H 0.85082 0.6314 0.99528 0.0
H2258 H 0.81305 0.63046 0.00523 0.0
H2259 H 0.78829 0.58197 0.97877 0.0
H2260 H 0.82625 0.58205 0.96918 0.0
H2261 H 0.77067 0.57003 0.99839 0.0
H2262 H 0.77552 0.64306 0.9785 0.0
H2263 H 0.79235 0.68093 0.97324 0.0
H2264 H 0.78699 0.70269 0.00994 0.0
H2265 H 0.77039 0.66482 0.01544 0.0
C2266 C 0.66604 0.62277 0.01607 0.0
C2267 C 0.66174 0.60943 0.02639 0.0
C2268 C 0.68757 0.62174 0.01026 0.0
C2269 C 0.70539 0.60743 0.01463 0.0
C2270 C 0.70107 0.59415 0.02496 0.0
C2271 C 0.67949 0.59499 0.0307 0.0
C2272 C 0.72858 0.60679 0.00858 0.0
C2273 C 0.73993 0.62773 0.00603 0.0
C2274 C 0.73977 0.58575 0.00552 0.0
C2275 C 0.72812 0.56303 0.00692 0.0
C2276 C 0.73876 0.54521 0.01349 0.0
C2277 C 0.72775 0.52383 0.01482 0.0
C2278 C 0.70614 0.52002 0.00956 0.0
C2279 C 0.69553 0.53756 0.00293 0.0
C2280 C 0.70647 0.55896 1.00156 0.0
C2281 C 0.83739 0.62035 0.99166 0.0
C2282 C 0.84161 0.60683 0.98141 0.0
C2283 C 0.81566 0.61997 0.9973 0.0
C2284 C 0.79741 0.60652 0.99265 0.0
C2285 C 0.80189 0.59255 0.98259 0.0
C2286 C 0.82369 0.59262 0.97709 0.0
C2287 C 0.77363 0.60718 0.99809 0.0
C2288 C 0.76217 0.58623 1.00054 0.0
C2289 C 0.762 0.62823 1.00066 0.0
C2290 C 0.77193 0.65103 0.99739 0.0
C2291 C 0.77808 0.65587 0.98546 0.0
C2292 C 0.78755 0.67734 0.98244 0.0
C2293 C 0.79079 0.69419 0.99126 0.0
C2294 C 0.7845 0.68961 0.00312 0.0
C2295 C 0.77504 0.66816 0.00619 0.0
H2296 H 0.79813 0.7108 0.9889 0.0
H2297 H 0.69764 0.50346 0.01061 0.0
H2298 H 0.11889 0.90561 0.76155 0.0
H2299 H 0.12 0.94321 0.75139 0.0
H2300 H 0.17403 0.96574 0.77537 0.0
H2301 H 0.17344 0.92811 0.78528 0.0
H2302 H 0.11066 0.98496 0.7582 0.0
H2303 H 0.20896 0.0049 0.76231 0.0
H2304 H 0.24609 0.98385 0.76241 0.0
H2305 H 0.21515 0.92813 0.74265 0.0
H2306 H 0.17794 0.94898 0.74229 0.0
H2307 H 0.12577 0.10416 0.74464 0.0
H2308 H 0.12662 0.06623 0.75445 0.0
H2309 H 0.16871 0.03947 0.72566 0.0
H2310 H 0.16889 0.07752 0.71623 0.0
H2311 H 0.18364 0.02133 0.7444 0.0
H2312 H 0.10684 0.02959 0.72885 0.0
H2313 H 0.06883 0.04818 0.72597 0.0
H2314 H 0.05529 0.04317 0.76372 0.0
H2315 H 0.09335 0.02479 0.76684 0.0
C2316 C 0.1312 0.91848 0.76456 0.0
C2317 C 0.14619 0.91372 0.77419 0.0
C2318 C 0.13173 0.94007 0.75879 0.0
C2319 C 0.14724 0.95743 0.76249 0.0
C2320 C 0.1622 0.95264 0.77212 0.0
C2321 C 0.1618 0.93104 0.77783 0.0
C2322 C 0.14751 0.98064 0.75649 0.0
C2323 C 0.12664 0.99288 0.75518 0.0
C2324 C 0.16823 0.991 0.7523 0.0
C2325 C 0.1906 0.97841 0.75239 0.0
C2326 C 0.21011 0.98819 0.75796 0.0
C2327 C 0.23116 0.97629 0.75806 0.0
C2328 C 0.23296 0.95463 0.75258 0.0
C2329 C 0.21371 0.94486 0.74694 0.0
C2330 C 0.19263 0.9567 0.74679 0.0
C2331 C 0.13537 0.09022 0.74047 0.0
C2332 C 0.14726 0.09392 0.72964 0.0
C2333 C 0.13569 0.06841 0.74604 0.0
C2334 C 0.14734 0.04959 0.74073 0.0
C2335 C 0.15957 0.05351 0.73002 0.0
C2336 C 0.15964 0.07537 0.72459 0.0
C2337 C 0.14679 0.02583 0.74619 0.0
C2338 C 0.16763 0.01348 0.74742 0.0
C2339 C 0.12594 0.01506 0.74994 0.0
C2340 C 0.10303 0.02603 0.74809 0.0
C2341 C 0.09581 0.03259 0.73654 0.0
C2342 C 0.07426 0.04307 0.73486 0.0
C2343 C 0.05968 0.04691 0.74466 0.0
C2344 C 0.06661 0.04022 0.75615 0.0
C2345 C 0.08816 0.02975 0.75787 0.0
H2346 H 0.043 0.05503 0.74334 0.0
H2347 H 0.24927 0.94544 0.75268 0.0
H2348 H 0.82221 0.41776 0.53965 0.0
H2349 H 0.78419 0.41784 0.52994 0.0
H2350 H 0.81253 0.38068 0.49986 0.0
H2351 H 0.85061 0.37988 0.5097 0.0
H2352 H 0.78128 0.42468 0.49558 0.0
H2353 H 0.78506 0.34936 0.5154 0.0
H2354 H 0.79121 0.32464 0.53314 0.0
H2355 H 0.73696 0.36039 0.5518 0.0
H2356 H 0.73074 0.38556 0.53423 0.0
H2357 H 0.67961 0.39777 0.4639 0.0
H2358 H 0.7174 0.39811 0.47358 0.0
H2359 H 0.68424 0.39758 0.50828 0.0
H2360 H 0.64631 0.39482 0.49842 0.0
H2361 H 0.71866 0.37398 0.5109 0.0
H2362 H 0.71277 0.44875 0.49322 0.0
H2363 H 0.7062 0.47777 0.47737 0.0
H2364 H 0.76286 0.44991 0.45709 0.0
H2365 H 0.76959 0.42054 0.47275 0.0
C2366 C 0.82045 0.40973 0.53092 0.0
C2367 C 0.8395 0.39884 0.52544 0.0
C2368 C 0.79865 0.40974 0.52541 0.0
C2369 C 0.79549 0.39923 0.51419 0.0
C2370 C 0.81459 0.3889 0.50852 0.0
C2371 C 0.83632 0.38844 0.51416 0.0
C2372 C 0.77214 0.39873 0.50851 0.0
C2373 C 0.76761 0.4134 0.49879 0.0
C2374 C 0.75404 0.38481 0.51306 0.0
C2375 C 0.75761 0.36949 0.52355 0.0
C2376 C 0.77459 0.35208 0.52333 0.0
C2377 C 0.77806 0.33796 0.53334 0.0
C2378 C 0.76453 0.34098 0.5436 0.0
C2379 C 0.74745 0.35809 0.54386 0.0
C2380 C 0.74393 0.37227 0.53387 0.0
C2381 C 0.68043 0.39782 0.47361 0.0
C2382 C 0.66005 0.39655 0.48042 0.0
C2383 C 0.70212 0.39827 0.47918 0.0
C2384 C 0.70407 0.39871 0.49176 0.0
C2385 C 0.68353 0.39738 0.49858 0.0
C2386 C 0.66178 0.39595 0.49297 0.0
C2387 C 0.72744 0.39991 0.49772 0.0
C2388 C 0.73209 0.3854 0.50758 0.0
C2389 C 0.74547 0.41461 0.49353 0.0
C2390 C 0.74155 0.43232 0.48411 0.0
C2391 C 0.72374 0.44873 0.48534 0.0
C2392 C 0.72 0.46525 0.4764 0.0
C2393 C 0.73407 0.46564 0.46621 0.0
C2394 C 0.75196 0.44956 0.46497 0.0
C2395 C 0.75576 0.433 0.47389 0.0
H2396 H 0.73114 0.47844 0.4593 0.0
H2397 H 0.76724 0.33004 0.55135 0.0
H2398 H 0.32976 0.08017 0.28469 0.0
H2399 H 0.32958 0.04214 0.27521 0.0
H2400 H 0.3833 0.06432 0.25095 0.0
H2401 H 0.38406 0.1023 0.26072 0.0
H2402 H 0.32035 0.02501 0.25476 0.0
H2403 H 0.41819 0.0194 0.24343 0.0
H2404 H 0.4554 0.03419 0.2511 0.0
H2405 H 0.42583 0.04185 0.28619 0.0
H2406 H 0.38856 0.02684 0.27876 0.0
H2407 H 0.33773 0.92961 0.21612 0.0
H2408 H 0.33659 0.96741 0.22578 0.0
H2409 H 0.37945 0.94151 0.25446 0.0
H2410 H 0.38153 0.90378 0.24444 0.0
H2411 H 0.39378 0.9818 0.24954 0.0
H2412 H 0.31814 0.95252 0.25719 0.0
H2413 H 0.28023 0.93525 0.25241 0.0
H2414 H 0.26409 0.99309 0.22975 0.0
H2415 H 0.30204 0.01056 0.23427 0.0
C2416 C 0.34143 0.07708 0.27727 0.0
C2417 C 0.357 0.09436 0.27352 0.0
C2418 C 0.3413 0.05523 0.27182 0.0
C2419 C 0.35668 0.05 0.26244 0.0
C2420 C 0.37159 0.06758 0.25833 0.0
C2421 C 0.37188 0.08943 0.26386 0.0
C2422 C 0.35729 0.02609 0.25719 0.0
C2423 C 0.33645 0.01564 0.25359 0.0
C2424 C 0.37813 0.01335 0.25592 0.0
C2425 C 0.40052 0.02224 0.26049 0.0
C2426 C 0.41966 0.02418 0.25278 0.0
C2427 C 0.44076 0.03261 0.25709 0.0
C2428 C 0.44295 0.03903 0.26911 0.0
C2429 C 0.42408 0.03696 0.27687 0.0
C2430 C 0.40296 0.02852 0.27261 0.0
C2431 C 0.34675 0.93184 0.22455 0.0
C2432 C 0.35959 0.91353 0.22954 0.0
C2433 C 0.34601 0.95355 0.23012 0.0
C2434 C 0.35759 0.95748 0.24102 0.0
C2435 C 0.37032 0.93911 0.24608 0.0
C2436 C 0.37139 0.91744 0.24038 0.0
C2437 C 0.35685 0.98081 0.24695 0.0
C2438 C 0.37767 0.99118 0.25067 0.0
C2439 C 0.33589 0.99316 0.24871 0.0
C2440 C 0.31302 0.98274 0.24599 0.0
C2441 C 0.30657 0.96148 0.25112 0.0
C2442 C 0.28506 0.95167 0.24847 0.0
C2443 C 0.26979 0.96304 0.24076 0.0
C2444 C 0.27596 0.98428 0.23571 0.0
C2445 C 0.29745 0.99416 0.23833 0.0
H2446 H 0.25315 0.95541 0.23871 0.0
H2447 H 0.45929 0.04556 0.27243 0.0
H2448 H 0.84808 0.86141 0.48724 0.0
H2449 H 0.80975 0.86363 0.49658 0.0
H2450 H 0.80254 0.93398 0.48437 0.0
H2451 H 0.84068 0.93171 0.47474 0.0
H2452 H 0.78813 0.92443 0.50964 0.0
H2453 H 0.77629 0.89726 0.46895 0.0
H2454 H 0.7836 0.87098 0.45196 0.0
H2455 H 0.76206 0.81301 0.47329 0.0
H2456 H 0.75496 0.83893 0.49047 0.0
H2457 H 0.66899 0.93684 0.52309 0.0
H2458 H 0.70675 0.93766 0.51317 0.0
H2459 H 0.70622 0.86306 0.51113 0.0
H2460 H 0.6677 0.86248 0.52013 0.0
H2461 H 0.72547 0.87573 0.49274 0.0
H2462 H 0.7386 0.899 0.5334 0.0
H2463 H 0.73342 0.9223 0.55173 0.0
H2464 H 0.75475 0.98332 0.53276 0.0
H2465 H 0.7598 0.96042 0.51428 0.0
C2466 C 0.8385 0.87747 0.48667 0.0
C2467 C 0.8475 0.89639 0.48023 0.0
C2468 C 0.81652 0.87867 0.49197 0.0
C2469 C 0.80318 0.89893 0.49113 0.0
C2470 C 0.8125 0.91817 0.48515 0.0
C2471 C 0.83431 0.91684 0.47964 0.0
C2472 C 0.77916 0.89966 0.49606 0.0
C2473 C 0.77431 0.91402 0.50588 0.0
C2474 C 0.7613 0.88554 0.4914 0.0
C2475 C 0.76531 0.87001 0.48103 0.0
C2476 C 0.77329 0.87889 0.47005 0.0
C2477 C 0.77737 0.86406 0.46038 0.0
C2478 C 0.77335 0.84033 0.46155 0.0
C2479 C 0.76519 0.83139 0.47239 0.0
C2480 C 0.76112 0.84614 0.4821 0.0
C2481 C 0.67685 0.92067 0.52036 0.0
C2482 C 0.66533 0.89961 0.52238 0.0
C2483 C 0.69866 0.92109 0.51482 0.0
C2484 C 0.71001 0.90038 0.51165 0.0
C2485 C 0.69815 0.87937 0.51344 0.0
C2486 C 0.67602 0.87901 0.51861 0.0
C2487 C 0.73413 0.90044 0.50653 0.0
C2488 C 0.73911 0.88621 0.49661 0.0
C2489 C 0.75229 0.91424 0.51133 0.0
C2490 C 0.74934 0.92804 0.52243 0.0
C2491 C 0.74205 0.91741 0.53312 0.0
C2492 C 0.73915 0.93054 0.54354 0.0
C2493 C 0.74369 0.95428 0.5434 0.0
C2494 C 0.7512 0.96493 0.53285 0.0
C2495 C 0.7541 0.95189 0.52241 0.0
H2496 H 0.74143 0.96442 0.55147 0.0
H2497 H 0.77652 0.82888 0.45405 0.0
H2498 H 0.38471 0.60131 0.74425 0.0
H2499 H 0.3842 0.56344 0.75415 0.0
H2500 H 0.33562 0.53844 0.7278 0.0
H2501 H 0.33539 0.57636 0.71822 0.0
H2502 H 0.32371 0.52131 0.74771 0.0
H2503 H 0.39624 0.52581 0.72724 0.0
H2504 H 0.43406 0.54249 0.72176 0.0
H2505 H 0.45673 0.53679 0.75829 0.0
H2506 H 0.41891 0.52033 0.76402 0.0
H2507 H 0.38713 0.40277 0.76088 0.0
H2508 H 0.38523 0.44043 0.75084 0.0
H2509 H 0.33765 0.46481 0.77783 0.0
H2510 H 0.33888 0.42705 0.78761 0.0
H2511 H 0.39763 0.48143 0.75677 0.0
H2512 H 0.30232 0.50619 0.76729 0.0
H2513 H 0.2645 0.48707 0.76995 0.0
H2514 H 0.28734 0.42991 0.7484 0.0
H2515 H 0.32516 0.44882 0.74548 0.0
C2516 C 0.37375 0.5878 0.74064 0.0
C2517 C 0.36012 0.59193 0.73042 0.0
C2518 C 0.37361 0.56603 0.74626 0.0
C2519 C 0.36019 0.54773 0.74164 0.0
C2520 C 0.34615 0.5521 0.7316 0.0
C2521 C 0.34606 0.57388 0.72609 0.0
C2522 C 0.36087 0.52398 0.74709 0.0
C2523 C 0.33992 0.51268 0.74971 0.0
C2524 C 0.38192 0.51221 0.74949 0.0
C2525 C 0.40467 0.52207 0.74608 0.0
C2526 C 0.40924 0.52827 0.73412 0.0
C2527 C 0.43068 0.53766 0.73097 0.0
C2528 C 0.44777 0.54076 0.73968 0.0
C2529 C 0.44346 0.53441 0.75156 0.0
C2530 C 0.42204 0.52504 0.75476 0.0
C2531 C 0.37604 0.41607 0.76459 0.0
C2532 C 0.36302 0.41176 0.77501 0.0
C2533 C 0.37506 0.4377 0.75887 0.0
C2534 C 0.36111 0.45561 0.76345 0.0
C2535 C 0.34817 0.45129 0.7739 0.0
C2536 C 0.34894 0.42962 0.77953 0.0
C2537 C 0.36047 0.47888 0.75749 0.0
C2538 C 0.38143 0.4901 0.7548 0.0
C2539 C 0.33943 0.49026 0.75466 0.0
C2540 C 0.31665 0.47883 0.75628 0.0
C2541 C 0.29924 0.48958 0.76309 0.0
C2542 C 0.27781 0.47877 0.76464 0.0
C2543 C 0.27355 0.45725 0.75938 0.0
C2544 C 0.29069 0.44653 0.75251 0.0
C2545 C 0.31213 0.45728 0.75092 0.0
H2546 H 0.25695 0.44891 0.7606 0.0
H2547 H 0.46436 0.54803 0.73722 0.0
H2548 H 0.84686 0.14512 0.0161 0.0
H2549 H 0.8086 0.14395 0.00662 0.0
H2550 H 0.80198 0.07194 0.01597 0.0
H2551 H 0.83999 0.07314 0.02579 0.0
H2552 H 0.78827 0.08661 0.99056 0.0
H2553 H 0.77503 0.10356 0.03269 0.0
H2554 H 0.78149 0.12585 0.05123 0.0
H2555 H 0.7591 0.1879 0.03353 0.0
H2556 H 0.75285 0.16601 0.01482 0.0
H2557 H 0.66972 0.07303 0.97656 0.0
H2558 H 0.70755 0.07157 0.98636 0.0
H2559 H 0.70443 0.14527 0.99246 0.0
H2560 H 0.66586 0.14634 0.98346 0.0
H2561 H 0.72409 0.12915 0.0102 0.0
H2562 H 0.73783 0.11604 0.96848 0.0
H2563 H 0.7334 0.09718 0.94878 0.0
H2564 H 0.757 0.03286 0.96366 0.0
H2565 H 0.7613 0.05127 0.98349 0.0
C2566 C 0.83742 0.12894 0.01601 0.0
C2567 C 0.84653 0.1092 0.0217 0.0
C2568 C 0.8155 0.12833 0.01062 0.0
C2569 C 0.80237 0.10788 0.01062 0.0
C2570 C 0.8118 0.0879 0.01586 0.0
C2571 C 0.83353 0.08862 0.02147 0.0
C2572 C 0.77845 0.10766 0.00559 0.0
C2573 C 0.77412 0.09564 0.99491 0.0
C2574 C 0.76018 0.12009 0.01105 0.0
C2575 C 0.76371 0.13319 0.02232 0.0
C2576 C 0.77169 0.12199 0.03272 0.0
C2577 C 0.77527 0.13454 0.04327 0.0
C2578 C 0.77077 0.15829 0.04355 0.0
C2579 C 0.76261 0.16951 0.0333 0.0
C2580 C 0.75903 0.15704 0.02272 0.0
C2581 C 0.67703 0.08886 0.98013 0.0
C2582 C 0.66479 0.1098 0.97923 0.0
C2583 C 0.69886 0.08809 0.98562 0.0
C2584 C 0.70948 0.10842 0.9899 0.0
C2585 C 0.6969 0.12927 0.98924 0.0
C2586 C 0.67477 0.1299 0.98408 0.0
C2587 C 0.73358 0.10808 0.995 0.0
C2588 C 0.73806 0.12004 0.00575 0.0
C2589 C 0.75216 0.09608 0.98941 0.0
C2590 C 0.74966 0.08498 0.9775 0.0
C2591 C 0.74193 0.09784 0.96757 0.0
C2592 C 0.73946 0.08724 0.95638 0.0
C2593 C 0.74485 0.06383 0.95498 0.0
C2594 C 0.75279 0.05098 0.96476 0.0
C2595 C 0.75527 0.0615 0.97598 0.0
H2596 H 0.74293 0.05565 0.94631 0.0
H2597 H 0.77356 0.16798 0.05173 0.0
H2598 H 0.16733 0.57849 0.28853 0.0
H2599 H 0.16859 0.54068 0.27888 0.0
H2600 H 0.12776 0.56712 0.24954 0.0
H2601 H 0.12548 0.60483 0.25955 0.0
H2602 H 0.11264 0.52721 0.25408 0.0
H2603 H 0.18932 0.55509 0.24791 0.0
H2604 H 0.22719 0.57161 0.25342 0.0
H2605 H 0.24062 0.51339 0.27629 0.0
H2606 H 0.20269 0.49666 0.27103 0.0
H2607 H 0.17658 0.42716 0.22016 0.0
H2608 H 0.1772 0.46531 0.22956 0.0
H2609 H 0.12168 0.44471 0.25308 0.0
H2610 H 0.12052 0.40667 0.24343 0.0
H2611 H 0.18556 0.48261 0.25021 0.0
H2612 H 0.08704 0.49021 0.25966 0.0
H2613 H 0.05015 0.47614 0.25125 0.0
H2614 H 0.08218 0.46772 0.21679 0.0
H2615 H 0.11915 0.48203 0.22496 0.0
C2616 C 0.15878 0.57636 0.27996 0.0
C2617 C 0.14643 0.59482 0.27478 0.0
C2618 C 0.1596 0.55464 0.27439 0.0
C2619 C 0.14863 0.55086 0.2633 0.0
C2620 C 0.13642 0.56939 0.25807 0.0
C2621 C 0.13523 0.59105 0.26376 0.0
C2622 C 0.14938 0.5275 0.25738 0.0
C2623 C 0.12864 0.51754 0.25326 0.0
C2624 C 0.17022 0.51476 0.256 0.0
C2625 C 0.19307 0.52473 0.25915 0.0
C2626 C 0.20029 0.54589 0.25417 0.0
C2627 C 0.22177 0.55528 0.25724 0.0
C2628 C 0.23628 0.54358 0.26522 0.0
C2629 C 0.22935 0.52244 0.27012 0.0
C2630 C 0.20788 0.51299 0.26709 0.0
C2631 C 0.16461 0.43063 0.22741 0.0
C2632 C 0.14842 0.41379 0.23098 0.0
C2633 C 0.165 0.45255 0.2328 0.0
C2634 C 0.14923 0.45826 0.24194 0.0
C2635 C 0.1337 0.44108 0.24588 0.0
C2636 C 0.13318 0.41919 0.24041 0.0
C2637 C 0.14879 0.48225 0.2471 0.0
C2638 C 0.16957 0.4923 0.25108 0.0
C2639 C 0.12813 0.49539 0.24797 0.0
C2640 C 0.10592 0.48694 0.24296 0.0
C2641 C 0.08618 0.48542 0.25028 0.0
C2642 C 0.06526 0.4774 0.24556 0.0
C2643 C 0.06384 0.47096 0.23351 0.0
C2644 C 0.08332 0.47262 0.22614 0.0
C2645 C 0.10427 0.48066 0.23081 0.0
H2646 H 0.04764 0.46475 0.22987 0.0
H2647 H 0.2529 0.55088 0.26759 0.0
H2648 H 0.17282 0.08075 0.53622 0.0
H2649 H 0.21083 0.07932 0.52667 0.0
H2650 H 0.19 0.13316 0.50217 0.0
H2651 H 0.15209 0.13509 0.51193 0.0
H2652 H 0.22748 0.06939 0.50592 0.0
H2653 H 0.23559 0.16723 0.49489 0.0
H2654 H 0.222 0.20471 0.50281 0.0
H2655 H 0.21416 0.17477 0.5378 0.0
H2656 H 0.228 0.13723 0.53013 0.0
H2657 H 0.32275 0.08488 0.46673 0.0
H2658 H 0.28518 0.08413 0.47666 0.0
H2659 H 0.3123 0.1267 0.50516 0.0
H2660 H 0.3497 0.1285 0.49484 0.0
H2661 H 0.27253 0.14169 0.50063 0.0
H2662 H 0.29994 0.06503 0.50774 0.0
H2663 H 0.31595 0.02673 0.50262 0.0
H2664 H 0.25703 0.01278 0.48032 0.0
H2665 H 0.2408 0.05112 0.4852 0.0
C2666 C 0.17622 0.09218 0.52874 0.0
C2667 C 0.15935 0.10811 0.5249 0.0
C2668 C 0.19805 0.09133 0.52325 0.0
C2669 C 0.20363 0.10637 0.51378 0.0
C2670 C 0.18645 0.12168 0.50962 0.0
C2671 C 0.16465 0.12265 0.51516 0.0
C2672 C 0.2275 0.10631 0.50847 0.0
C2673 C 0.23728 0.08523 0.50474 0.0
C2674 C 0.24076 0.1268 0.50719 0.0
C2675 C 0.23258 0.14936 0.51189 0.0
C2676 C 0.23103 0.16867 0.50428 0.0
C2677 C 0.22328 0.18992 0.50872 0.0
C2678 C 0.21714 0.1921 0.52079 0.0
C2679 C 0.21883 0.17304 0.52844 0.0
C2680 C 0.2266 0.15177 0.52405 0.0
C2681 C 0.32083 0.09389 0.47518 0.0
C2682 C 0.33936 0.10662 0.48002 0.0
C2683 C 0.29925 0.09336 0.48092 0.0
C2684 C 0.29571 0.10502 0.49184 0.0
C2685 C 0.31436 0.11753 0.49676 0.0
C2686 C 0.33585 0.11844 0.49089 0.0
C2687 C 0.27247 0.10477 0.4979 0.0
C2688 C 0.26277 0.12581 0.50177 0.0
C2689 C 0.2596 0.08413 0.49967 0.0
C2690 C 0.26926 0.06102 0.49676 0.0
C2691 C 0.29047 0.05385 0.50169 0.0
C2692 C 0.29958 0.03213 0.49884 0.0
C2693 C 0.28754 0.01736 0.49113 0.0
C2694 C 0.26634 0.02425 0.48628 0.0
C2695 C 0.25717 0.04596 0.4891 0.0
H2696 H 0.29462 1.00055 0.48893 0.0
H2697 H 0.21113 0.20855 0.5242 0.0
H2698 H 0.61654 0.40551 0.26497 0.0
H2699 H 0.61743 0.4434 0.2551 0.0
H2700 H 0.6815 0.45941 0.27306 0.0
H2701 H 0.68073 0.42163 0.28293 0.0
H2702 H 0.61596 0.48641 0.26458 0.0
H2703 H 0.71419 0.49293 0.25555 0.0
H2704 H 0.74685 0.46718 0.25049 0.0
H2705 H 0.69997 0.41918 0.23397 0.0
H2706 H 0.66709 0.44469 0.23888 0.0
H2707 H 0.63593 0.60371 0.2478 0.0
H2708 H 0.63782 0.566 0.25785 0.0
H2709 H 0.66207 0.53481 0.225 0.0
H2710 H 0.66194 0.57262 0.21535 0.0
H2711 H 0.68293 0.51459 0.24095 0.0
H2712 H 0.60139 0.53277 0.23727 0.0
H2713 H 0.5663 0.55635 0.24038 0.0
H2714 H 0.57521 0.55157 0.27851 0.0
H2715 H 0.61047 0.52816 0.27562 0.0
C2716 C 0.63099 0.41697 0.2667 0.0
C2717 C 0.64861 0.41043 0.27472 0.0
C2718 C 0.63138 0.43873 0.26111 0.0
C2719 C 0.64954 0.45436 0.26329 0.0
C2720 C 0.6674 0.44766 0.27111 0.0
C2721 C 0.66693 0.42599 0.27676 0.0
C2722 C 0.6496 0.47784 0.25762 0.0
C2723 C 0.63059 0.49258 0.25939 0.0
C2724 C 0.66849 0.48592 0.25072 0.0
C2725 C 0.68821 0.47062 0.24768 0.0
C2726 C 0.71089 0.47691 0.25081 0.0
C2727 C 0.72942 0.46234 0.24799 0.0
C2728 C 0.72548 0.44153 0.24194 0.0
C2729 C 0.70299 0.43526 0.23869 0.0
C2730 C 0.68441 0.44973 0.24152 0.0
C2731 C 0.64186 0.5888 0.2428 0.0
C2732 C 0.6488 0.59117 0.23079 0.0
C2733 C 0.64272 0.56711 0.2485 0.0
C2734 C 0.64956 0.54711 0.24217 0.0
C2735 C 0.65676 0.54971 0.2302 0.0
C2736 C 0.65663 0.57144 0.22464 0.0
C2737 C 0.64915 0.52345 0.24782 0.0
C2738 C 0.66821 0.5086 0.24611 0.0
C2739 C 0.62996 0.51505 0.25449 0.0
C2740 C 0.60865 0.52891 0.25622 0.0
C2741 C 0.5959 0.53684 0.24631 0.0
C2742 C 0.57599 0.55016 0.24804 0.0
C2743 C 0.56856 0.5555 0.25963 0.0
C2744 C 0.58099 0.54745 0.26953 0.0
C2745 C 0.60092 0.53414 0.26786 0.0
H2746 H 0.55315 0.56583 0.26095 0.0
H2747 H 0.73985 0.43029 0.23976 0.0
H2748 H 0.16209 0.85903 0.98633 0.0
H2749 H 0.19989 0.8607 0.99604 0.0
H2750 H 0.20515 0.93324 0.98724 0.0
H2751 H 0.1679 0.93114 0.97685 0.0
H2752 H 0.24411 0.91665 0.98348 0.0
H2753 H 0.19458 0.90988 0.01734 0.0
H2754 H 0.16362 0.89383 0.03007 0.0
H2755 H 0.20025 0.82938 0.03251 0.0
H2756 H 0.2313 0.84495 0.01966 0.0
H2757 H 0.33514 0.93317 0.02876 0.0
H2758 H 0.29706 0.93377 0.01896 0.0
H2759 H 0.30558 0.86238 0.00879 0.0
H2760 H 0.34395 0.86185 0.01821 0.0
H2761 H 0.2602 0.87993 0.02278 0.0
H2762 H 0.30954 0.8899 0.98758 0.0
H2763 H 0.34027 0.90975 0.9762 0.0
H2764 H 0.30259 0.97362 0.97842 0.0
H2765 H 0.27178 0.9542 0.98997 0.0
C2766 C 0.17116 0.87542 0.9866 0.0
C2767 C 0.16187 0.89499 0.98088 0.0
C2768 C 0.19284 0.87641 0.99223 0.0
C2769 C 0.20551 0.89722 0.99264 0.0
C2770 C 0.19595 0.91692 0.9871 0.0
C2771 C 0.17451 0.91577 0.98121 0.0
C2772 C 0.22904 0.89818 0.99839 0.0
C2773 C 0.24736 0.90886 0.99216 0.0
C2774 C 0.23379 0.88797 0.00971 0.0
C2775 C 0.21516 0.87852 0.01744 0.0
C2776 C 0.19595 0.89223 0.02052 0.0
C2777 C 0.1784 0.88323 0.02777 0.0
C2778 C 0.17994 0.86058 0.03207 0.0
C2779 C 0.19907 0.84691 0.02916 0.0
C2780 C 0.21666 0.85582 0.02191 0.0
C2781 C 0.32903 0.91769 0.0243 0.0
C2782 C 0.34265 0.89749 0.02422 0.0
C2783 C 0.30726 0.91805 0.01873 0.0
C2784 C 0.29845 0.8981 0.01318 0.0
C2785 C 0.31203 0.87796 0.01303 0.0
C2786 C 0.33402 0.87774 0.01835 0.0
C2787 C 0.27485 0.89808 0.00779 0.0
C2788 C 0.25665 0.88769 0.01412 0.0
C2789 C 0.27007 0.90904 0.99674 0.0
C2790 C 0.28852 0.92067 0.98977 0.0
C2791 C 0.30794 0.90823 0.98576 0.0
C2792 C 0.32533 0.91939 0.97925 0.0
C2793 C 0.32342 0.94295 0.97663 0.0
C2794 C 0.30407 0.95539 0.98048 0.0
C2795 C 0.28663 0.94431 0.987 0.0
H2796 H 0.33691 0.95156 0.97158 0.0
H2797 H 0.16633 0.85364 0.03769 0.0
H2798 H 0.89736 0.41516 0.73484 0.0
H2799 H 0.89615 0.45305 0.74446 0.0
H2800 H 0.82247 0.45653 0.73832 0.0
H2801 H 0.82409 0.41929 0.72786 0.0
H2802 H 0.83684 0.49591 0.73448 0.0
H2803 H 0.85088 0.44607 0.76762 0.0
H2804 H 0.86997 0.41547 0.77943 0.0
H2805 H 0.93343 0.45407 0.77914 0.0
H2806 H 0.9148 0.48479 0.7672 0.0
H2807 H 0.82437 0.58633 0.78007 0.0
H2808 H 0.82328 0.54857 0.76996 0.0
H2809 H 0.89402 0.55763 0.75873 0.0
H2810 H 0.89501 0.59567 0.76847 0.0
H2811 H 0.87959 0.51245 0.77205 0.0
H2812 H 0.86156 0.56261 0.73819 0.0
H2813 H 0.8386 0.59292 0.72817 0.0
H2814 H 0.77708 0.55209 0.73242 0.0
H2815 H 0.79965 0.52168 0.74264 0.0
C2816 C 0.88085 0.4239 0.73566 0.0
C2817 C 0.86079 0.4141 0.73068 0.0
C2818 C 0.88011 0.44561 0.74125 0.0
C2819 C 0.8591 0.45778 0.74245 0.0
C2820 C 0.83896 0.44775 0.73758 0.0
C2821 C 0.83984 0.42632 0.73166 0.0
C2822 C 0.85831 0.48117 0.74837 0.0
C2823 C 0.84596 0.49924 0.7428 0.0
C2824 C 0.87022 0.48605 0.75923 0.0
C2825 C 0.8815 0.46763 0.76641 0.0
C2826 C 0.86895 0.44796 0.77 0.0
C2827 C 0.87968 0.4306 0.77673 0.0
C2828 C 0.90291 0.4328 0.78001 0.0
C2829 C 0.91544 0.45238 0.77659 0.0
C2830 C 0.9048 0.46978 0.76985 0.0
C2831 C 0.83959 0.58042 0.77531 0.0
C2832 C 0.85975 0.59408 0.77504 0.0
C2833 C 0.83895 0.55882 0.76956 0.0
C2834 C 0.85859 0.55024 0.76363 0.0
C2835 C 0.87867 0.5639 0.76327 0.0
C2836 C 0.87916 0.58571 0.76878 0.0
C2837 C 0.85842 0.52677 0.75808 0.0
C2838 C 0.8705 0.50881 0.76376 0.0
C2839 C 0.84573 0.52183 0.74755 0.0
C2840 C 0.83224 0.54 0.7413 0.0
C2841 C 0.8431 0.56019 0.73709 0.0
C2842 C 0.83017 0.57737 0.73135 0.0
C2843 C 0.80638 0.57447 0.7297 0.0
C2844 C 0.7955 0.55434 0.73373 0.0
C2845 C 0.80836 0.53712 0.73949 0.0
H2846 H 0.7964 0.58779 0.72526 0.0
H2847 H 0.91118 0.41934 0.78521 0.0
H2848 H 0.09795 0.41544 0.07998 0.0
H2849 H 0.09933 0.41213 0.10176 0.0
H2850 H 0.1443 0.35289 0.09868 0.0
H2851 H 0.14283 0.35599 0.07674 0.0
H2852 H 0.11028 0.34615 0.11549 0.0
H2853 H 0.16628 0.40472 0.10627 0.0
H2854 H 0.18062 0.44078 0.09711 0.0
H2855 H 0.13035 0.47995 0.11689 0.0
H2856 H 0.11548 0.44405 0.12605 0.0
H2857 H 0.15579 0.34408 0.17424 0.0
H2858 H 0.15062 0.34744 0.15264 0.0
H2859 H 0.10308 0.40402 0.15792 0.0
H2860 H 0.10806 0.40064 0.17975 0.0
H2861 H 0.13659 0.41258 0.14017 0.0
H2862 H 0.08195 0.35387 0.15023 0.0
H2863 H 0.0687 0.31778 0.15979 0.0
H2864 H 0.11692 0.27874 0.13863 0.0
H2865 H 0.1308 0.31466 0.1291 0.0
C2866 C 0.10816 0.40168 0.08391 0.0
C2867 C 0.12038 0.38603 0.07663 0.0
C2868 C 0.10897 0.39986 0.09638 0.0
C2869 C 0.12211 0.38243 0.10188 0.0
C2870 C 0.13408 0.36652 0.09464 0.0
C2871 C 0.13331 0.36836 0.08211 0.0
C2872 C 0.12342 0.381 0.11517 0.0
C2873 C 0.1163 0.36056 0.12088 0.0
C2874 C 0.13069 0.40004 0.12223 0.0
C2875 C 0.13961 0.42166 0.11675 0.0
C2876 C 0.15815 0.421 0.10859 0.0
C2877 C 0.1664 0.44141 0.10341 0.0
C2878 C 0.15636 0.46264 0.10639 0.0
C2879 C 0.13808 0.46349 0.11457 0.0
C2880 C 0.12975 0.44312 0.11977 0.0
C2881 C 0.14412 0.3572 0.17086 0.0
C2882 C 0.13224 0.37205 0.17872 0.0
C2883 C 0.14116 0.35905 0.15849 0.0
C2884 C 0.12632 0.37583 0.15367 0.0
C2885 C 0.11456 0.39089 0.16147 0.0
C2886 C 0.11736 0.3889 0.17391 0.0
C2887 C 0.12356 0.37771 0.14048 0.0
C2888 C 0.13043 0.39822 0.13478 0.0
C2889 C 0.1161 0.35872 0.13344 0.0
C2890 C 0.10756 0.33701 0.13902 0.0
C2891 C 0.08987 0.33761 0.14768 0.0
C2892 C 0.08222 0.31718 0.15309 0.0
C2893 C 0.09199 0.29598 0.14984 0.0
C2894 C 0.10938 0.29518 0.14115 0.0
C2895 C 0.11714 0.31557 0.13574 0.0
H2896 H 0.08606 0.28018 0.15404 0.0
H2897 H 0.16277 0.47843 0.10237 0.0
H2898 H 0.91631 0.90607 0.42365 0.0
H2899 H 0.91324 0.90204 0.40201 0.0
H2900 H 0.85893 0.85158 0.40647 0.0
H2901 H 0.8623 0.85517 0.42836 0.0
H2902 H 0.88908 0.83868 0.38905 0.0
H2903 H 0.84628 0.90722 0.39855 0.0
H2904 H 0.83969 0.9455 0.40769 0.0
H2905 H 0.89578 0.97385 0.38718 0.0
H2906 H 0.90292 0.93565 0.37803 0.0
H2907 H 0.84584 0.84492 0.32973 0.0
H2908 H 0.851 0.84655 0.35138 0.0
H2909 H 0.90666 0.8955 0.34693 0.0
H2910 H 0.90147 0.89405 0.32508 0.0
H2911 H 0.87607 0.90885 0.3643 0.0
H2912 H 0.91812 0.84015 0.3544 0.0
H2913 H 0.92396 0.80193 0.34507 0.0
H2914 H 0.86861 0.77381 0.36619 0.0
H2915 H 0.86215 0.81197 0.37551 0.0
C2916 C 0.90371 0.89403 0.42008 0.0
C2917 C 0.88944 0.88101 0.42774 0.0
C2918 C 0.90192 0.89184 0.40767 0.0
C2919 C 0.88559 0.87682 0.40258 0.0
C2920 C 0.8716 0.86337 0.41019 0.0
C2921 C 0.87348 0.86548 0.42269 0.0
C2922 C 0.88317 0.87546 0.38933 0.0
C2923 C 0.88589 0.85396 0.38365 0.0
C2924 C 0.87959 0.89549 0.38224 0.0
C2925 C 0.87526 0.91852 0.38769 0.0
C2926 C 0.85732 0.92158 0.39605 0.0
C2927 C 0.85347 0.94327 0.40123 0.0
C2928 C 0.86734 0.96208 0.39804 0.0
C2929 C 0.88506 0.95926 0.38965 0.0
C2930 C 0.88901 0.9376 0.38446 0.0
C2931 C 0.85929 0.85596 0.33331 0.0
C2932 C 0.87331 0.86932 0.32567 0.0
C2933 C 0.86227 0.85679 0.34571 0.0
C2934 C 0.87938 0.87093 0.35078 0.0
C2935 C 0.8934 0.8844 0.3432 0.0
C2936 C 0.89046 0.88351 0.33073 0.0
C2937 C 0.88203 0.8721 0.36402 0.0
C2938 C 0.87931 0.89357 0.3697 0.0
C2939 C 0.88553 0.85203 0.37109 0.0
C2940 C 0.88952 0.82899 0.36558 0.0
C2941 C 0.90707 0.82586 0.35699 0.0
C2942 C 0.91051 0.8042 0.35171 0.0
C2943 C 0.89663 0.78547 0.35502 0.0
C2944 C 0.87932 0.78834 0.36363 0.0
C2945 C 0.87578 0.80998 0.36892 0.0
H2946 H 0.89932 0.76871 0.35092 0.0
H2947 H 0.86433 0.97886 0.40205 0.0
H2948 H 0.34456 0.65973 0.67471 0.0
H2949 H 0.34946 0.65793 0.65305 0.0
H2950 H 0.41027 0.61556 0.65756 0.0
H2951 H 0.40556 0.61747 0.67945 0.0
H2952 H 0.41664 0.64926 0.64061 0.0
H2953 H 0.36045 0.59105 0.64897 0.0
H2954 H 0.32481 0.57464 0.65764 0.0
H2955 H 0.28386 0.62276 0.63741 0.0
H2956 H 0.31929 0.63969 0.62874 0.0
H2957 H 0.42049 0.60675 0.58069 0.0
H2958 H 0.41806 0.61121 0.60239 0.0
H2959 H 0.35925 0.65641 0.59823 0.0
H2960 H 0.36171 0.65218 0.57635 0.0
H2961 H 0.35225 0.62132 0.615 0.0
H2962 H 0.40967 0.67869 0.60622 0.0
H2963 H 0.44595 0.69449 0.59794 0.0
H2964 H 0.48529 0.64644 0.61905 0.0
H2965 H 0.44925 0.63006 0.6273 0.0
C2966 C 0.35903 0.65003 0.67113 0.0
C2967 C 0.37463 0.63863 0.6788 0.0
C2968 C 0.36174 0.64895 0.65873 0.0
C2969 C 0.38003 0.63636 0.65367 0.0
C2970 C 0.39596 0.62531 0.66128 0.0
C2971 C 0.39323 0.62635 0.67376 0.0
C2972 C 0.38232 0.63483 0.64043 0.0
C2973 C 0.40271 0.64282 0.63501 0.0
C2974 C 0.36392 0.62692 0.63311 0.0
C2975 C 0.34255 0.61679 0.6383 0.0
C2976 C 0.34386 0.59827 0.64645 0.0
C2977 C 0.32369 0.58885 0.65135 0.0
C2978 C 0.30209 0.59769 0.6481 0.0
C2979 C 0.30061 0.61595 0.63993 0.0
C2980 C 0.32073 0.62545 0.63501 0.0
C2981 C 0.40714 0.61783 0.58435 0.0
C2982 C 0.39128 0.62915 0.57679 0.0
C2983 C 0.40585 0.62041 0.59677 0.0
C2984 C 0.38859 0.63426 0.60193 0.0
C2985 C 0.37276 0.64569 0.59442 0.0
C2986 C 0.3742 0.64331 0.58194 0.0
C2987 C 0.38654 0.63584 0.61517 0.0
C2988 C 0.36617 0.6278 0.62059 0.0
C2989 C 0.40505 0.64351 0.62247 0.0
C2990 C 0.42673 0.65299 0.6173 0.0
C2991 C 0.42604 0.67129 0.60899 0.0
C2992 C 0.44657 0.68039 0.60432 0.0
C2993 C 0.46789 0.67145 0.60797 0.0
C2994 C 0.46875 0.65333 0.61624 0.0
C2995 C 0.44828 0.64414 0.62091 0.0
H2996 H 0.48378 0.67862 0.60445 0.0
H2997 H 0.28649 0.59037 0.6519 0.0
H2998 H 0.60781 0.11098 0.82464 0.0
H2999 H 0.60296 0.10904 0.84646 0.0
H3000 H 0.65642 0.16044 0.85089 0.0
H3001 H 0.66166 0.16204 0.82923 0.0
H3002 H 0.66308 0.12657 0.86609 0.0
H3003 H 0.59822 0.17324 0.85456 0.0
H3004 H 0.56275 0.18283 0.84333 0.0
H3005 H 0.52859 0.12354 0.85831 0.0
H3006 H 0.56398 0.1134 0.8695 0.0
H3007 H 0.64373 0.15088 0.92787 0.0
H3008 H 0.64618 0.15523 0.90603 0.0
H3009 H 0.59617 0.10054 0.90154 0.0
H3010 H 0.59355 0.09619 0.92327 0.0
H3011 H 0.58745 0.13653 0.88647 0.0
H3012 H 0.65295 0.0898 0.89769 0.0
H3013 H 0.6885 0.0807 0.90897 0.0
H3014 H 0.72149 0.14114 0.89453 0.0
H3015 H 0.686 0.15078 0.88329 0.0
C3016 C 0.61843 0.12192 0.83028 0.0
C3017 C 0.6351 0.13666 0.8252 0.0
C3018 C 0.6156 0.12088 0.84275 0.0
C3019 C 0.6292 0.13475 0.85035 0.0
C3020 C 0.64574 0.14954 0.84525 0.0
C3021 C 0.64866 0.15049 0.83283 0.0
C3022 C 0.62675 0.13353 0.86362 0.0
C3023 C 0.64657 0.12908 0.87054 0.0
C3024 C 0.60517 0.13633 0.86945 0.0
C3025 C 0.58383 0.14243 0.86277 0.0
C3026 C 0.5832 0.16214 0.85538 0.0
C3027 C 0.5631 0.1677 0.84904 0.0
C3028 C 0.54345 0.15377 0.85008 0.0
C3029 C 0.54384 0.13429 0.8575 0.0
C3030 C 0.56391 0.12865 0.86385 0.0
C3031 C 0.6332 0.13986 0.92222 0.0
C3032 C 0.61854 0.12312 0.92729 0.0
C3033 C 0.63465 0.14232 0.90975 0.0
C3034 C 0.6215 0.12806 0.90214 0.0
C3035 C 0.60646 0.11173 0.90722 0.0
C3036 C 0.60506 0.10922 0.91965 0.0
C3037 C 0.62377 0.12968 0.88889 0.0
C3038 C 0.60394 0.13412 0.88199 0.0
C3039 C 0.64535 0.12698 0.88306 0.0
C3040 C 0.66674 0.12114 0.88975 0.0
C3041 C 0.66773 0.10125 0.897 0.0
C3042 C 0.68787 0.09597 0.90337 0.0
C3043 C 0.70722 0.11037 0.90249 0.0
C3044 C 0.70648 0.13003 0.89521 0.0
C3045 C 0.68636 0.1354 0.88884 0.0
H3046 H 0.7228 0.10626 0.90743 0.0
H3047 H 0.5279 0.1581 0.84516 0.0
H3048 H 0.15005 0.67152 0.32997 0.0
H3049 H 0.14589 0.6685 0.35162 0.0
H3050 H 0.10193 0.60878 0.34721 0.0
H3051 H 0.10542 0.61227 0.32533 0.0
H3052 H 0.08617 0.63551 0.36494 0.0
H3053 H 0.16025 0.6036 0.35452 0.0
H3054 H 0.19884 0.60342 0.34509 0.0
H3055 H 0.21872 0.66232 0.36617 0.0
H3056 H 0.18012 0.66303 0.37561 0.0
H3057 H 0.09899 0.59088 0.42366 0.0
H3058 H 0.0999 0.59689 0.40204 0.0
H3059 H 0.14165 0.658 0.40697 0.0
H3060 H 0.14106 0.65188 0.42875 0.0
H3061 H 0.15816 0.63121 0.38908 0.0
H3062 H 0.08429 0.66205 0.40011 0.0
H3063 H 0.04597 0.66138 0.40982 0.0
H3064 H 0.02577 0.6039 0.3878 0.0
H3065 H 0.06413 0.60395 0.3781 0.0
C3066 C 0.13933 0.65782 0.33357 0.0
C3067 C 0.12821 0.642 0.32593 0.0
C3068 C 0.13707 0.65605 0.34599 0.0
C3069 C 0.12405 0.63808 0.3511 0.0
C3070 C 0.1122 0.62271 0.34349 0.0
C3071 C 0.11422 0.62468 0.33099 0.0
C3072 C 0.12341 0.6351 0.36436 0.0
C3073 C 0.10191 0.63427 0.3702 0.0
C3074 C 0.14394 0.634 0.37129 0.0
C3075 C 0.16723 0.63348 0.3657 0.0
C3076 C 0.1728 0.6166 0.35709 0.0
C3077 C 0.19468 0.61639 0.35175 0.0
C3078 C 0.2112 0.63288 0.35501 0.0
C3079 C 0.20589 0.64957 0.36364 0.0
C3080 C 0.18403 0.64987 0.369 0.0
C3081 C 0.10834 0.60566 0.42018 0.0
C3082 C 0.1199 0.62097 0.42793 0.0
C3083 C 0.10875 0.60912 0.40779 0.0
C3084 C 0.12056 0.62808 0.40287 0.0
C3085 C 0.13235 0.6433 0.41058 0.0
C3086 C 0.13197 0.63981 0.42301 0.0
C3087 C 0.12095 0.63164 0.38966 0.0
C3088 C 0.14242 0.63254 0.38383 0.0
C3089 C 0.10039 0.63272 0.38276 0.0
C3090 C 0.07717 0.63289 0.38844 0.0
C3091 C 0.07173 0.64917 0.39739 0.0
C3092 C 0.05 0.64891 0.40289 0.0
C3093 C 0.03346 0.63258 0.39944 0.0
C3094 C 0.03861 0.61652 0.39047 0.0
C3095 C 0.06034 0.61667 0.38496 0.0
H3096 H 0.01665 0.6324 0.40371 0.0
H3097 H 0.22813 0.6327 0.35086 0.0
H3098 H 0.65756 0.84147 0.67199 0.0
H3099 H 0.6533 0.84666 0.65047 0.0
H3100 H 0.60233 0.89991 0.65648 0.0
H3101 H 0.60619 0.89442 0.67825 0.0
H3102 H 0.58992 0.87179 0.63801 0.0
H3103 H 0.65751 0.9143 0.64913 0.0
H3104 H 0.69543 0.92058 0.65871 0.0
H3105 H 0.72529 0.86725 0.63684 0.0
H3106 H 0.68745 0.86043 0.62723 0.0
H3107 H 0.59698 0.91718 0.57884 0.0
H3108 H 0.59845 0.91245 0.60056 0.0
H3109 H 0.64804 0.85724 0.59652 0.0
H3110 H 0.64673 0.86196 0.57467 0.0
H3111 H 0.66051 0.88781 0.61408 0.0
H3112 H 0.59234 0.84539 0.60304 0.0
H3113 H 0.55442 0.83999 0.59331 0.0
H3114 H 0.52557 0.89421 0.61496 0.0
H3115 H 0.56344 0.9002 0.62468 0.0
C3116 C 0.64533 0.85423 0.66878 0.0
C3117 C 0.63231 0.86766 0.67685 0.0
C3118 C 0.64299 0.85724 0.65644 0.0
C3119 C 0.62783 0.87398 0.65184 0.0
C3120 C 0.61424 0.88698 0.65984 0.0
C3121 C 0.61648 0.88386 0.67226 0.0
C3122 C 0.62664 0.87798 0.63868 0.0
C3123 C 0.60529 0.87565 0.6328 0.0
C3124 C 0.64677 0.88259 0.63182 0.0
C3125 C 0.66959 0.88672 0.63753 0.0
C3126 C 0.67212 0.9038 0.64642 0.0
C3127 C 0.69361 0.90747 0.65185 0.0
C3128 C 0.71275 0.89428 0.6484 0.0
C3129 C 0.71045 0.87744 0.6395 0.0
C3130 C 0.68899 0.87368 0.63406 0.0
C3131 C 0.60819 0.90398 0.58255 0.0
C3132 C 0.62169 0.88987 0.57503 0.0
C3133 C 0.60893 0.90125 0.59498 0.0
C3134 C 0.62314 0.88431 0.60017 0.0
C3135 C 0.63689 0.87038 0.5927 0.0
C3136 C 0.6361 0.87306 0.58023 0.0
C3137 C 0.62386 0.8814 0.6134 0.0
C3138 C 0.64514 0.88398 0.61929 0.0
C3139 C 0.60365 0.87714 0.62025 0.0
C3140 C 0.5808 0.87339 0.61451 0.0
C3141 C 0.57796 0.85628 0.60566 0.0
C3142 C 0.55647 0.8531 0.60015 0.0
C3143 C 0.53761 0.86678 0.60349 0.0
C3144 C 0.5402 0.88364 0.61237 0.0
C3145 C 0.56167 0.88693 0.61789 0.0
H3146 H 0.52099 0.86429 0.59922 0.0
H3147 H 0.72937 0.89715 0.65262 0.0
H3148 H 0.36296 0.33158 0.82973 0.0
H3149 H 0.36752 0.33362 0.85139 0.0
H3150 H 0.4048 0.39792 0.84772 0.0
H3151 H 0.40117 0.39532 0.82583 0.0
H3152 H 0.42361 0.37303 0.86481 0.0
H3153 H 0.34542 0.39531 0.85544 0.0
H3154 H 0.30681 0.39058 0.84635 0.0
H3155 H 0.296 0.32865 0.86686 0.0
H3156 H 0.33468 0.33286 0.87596 0.0
H3157 H 0.40841 0.4136 0.92393 0.0
H3158 H 0.40716 0.40814 0.90229 0.0
H3159 H 0.37202 0.34295 0.90716 0.0
H3160 H 0.37267 0.34868 0.92897 0.0
H3161 H 0.35256 0.3671 0.88959 0.0
H3162 H 0.43047 0.34609 0.89967 0.0
H3163 H 0.46879 0.35168 0.90894 0.0
H3164 H 0.47997 0.41203 0.88726 0.0
H3165 H 0.44156 0.40701 0.87798 0.0
C3166 C 0.3723 0.34607 0.8335 0.0
C3167 C 0.38153 0.36342 0.82608 0.0
C3168 C 0.37477 0.3473 0.84593 0.0
C3169 C 0.38594 0.36625 0.85126 0.0
C3170 C 0.39595 0.3832 0.84384 0.0
C3171 C 0.39386 0.38173 0.83134 0.0
C3172 C 0.38663 0.36857 0.86455 0.0
C3173 C 0.40804 0.37202 0.87021 0.0
C3174 C 0.36638 0.36671 0.87167 0.0
C3175 C 0.34302 0.3643 0.8663 0.0
C3176 C 0.33486 0.38062 0.85796 0.0
C3177 C 0.31296 0.37803 0.85281 0.0
C3178 C 0.29898 0.35929 0.856 0.0
C3179 C 0.30685 0.34314 0.86438 0.0
C3180 C 0.32875 0.34563 0.86955 0.0
C3181 C 0.40044 0.39805 0.92042 0.0
C3182 C 0.39072 0.3815 0.92816 0.0
C3183 C 0.39986 0.3949 0.90803 0.0
C3184 C 0.38991 0.37492 0.90308 0.0
C3185 C 0.37992 0.35845 0.91078 0.0
C3186 C 0.38031 0.36171 0.92323 0.0
C3187 C 0.38953 0.3716 0.88985 0.0
C3188 C 0.36816 0.368 0.8842 0.0
C3189 C 0.40979 0.37342 0.88276 0.0
C3190 C 0.43305 0.37626 0.8882 0.0
C3191 C 0.44104 0.36063 0.89693 0.0
C3192 C 0.46279 0.36369 0.90218 0.0
C3193 C 0.47679 0.38222 0.89871 0.0
C3194 C 0.4691 0.39769 0.88995 0.0
C3195 C 0.44736 0.39473 0.88468 0.0
H3196 H 0.49361 0.38457 0.90279 0.0
H3197 H 0.28204 0.35732 0.852 0.0
H3198 H 0.9026 0.11376 0.17759 0.0
H3199 H 0.90724 0.10989 0.15577 0.0
H3200 H 0.85015 0.15679 0.15027 0.0
H3201 H 0.84525 0.16043 0.17183 0.0
H3202 H 0.84594 0.12022 0.13613 0.0
H3203 H 0.90588 0.17415 0.14642 0.0
H3204 H 0.94039 0.18781 0.15731 0.0
H3205 H 0.98007 0.13146 0.14294 0.0
H3206 H 0.94566 0.11724 0.13211 0.0
H3207 H 0.8612 0.14648 0.07415 0.0
H3208 H 0.85878 0.15037 0.09603 0.0
H3209 H 0.91315 0.09987 0.10011 0.0
H3210 H 0.91559 0.09584 0.07839 0.0
H3211 H 0.91939 0.13745 0.11493 0.0
H3212 H 0.85881 0.08392 0.10457 0.0
H3213 H 0.82402 0.07087 0.09372 0.0
H3214 H 0.7853 0.12771 0.10826 0.0
H3215 H 0.81997 0.14129 0.11908 0.0
C3216 C 0.89112 0.12325 0.1717 0.0
C3217 C 0.87359 0.1374 0.17643 0.0
C3218 C 0.89381 0.12109 0.15925 0.0
C3219 C 0.87908 0.13315 0.15138 0.0
C3220 C 0.86165 0.14726 0.15615 0.0
C3221 C 0.85896 0.14939 0.1685 0.0
C3222 C 0.88141 0.13104 0.13816 0.0
C3223 C 0.86195 0.12423 0.1315 0.0
C3224 C 0.90238 0.13589 0.13212 0.0
C3225 C 0.92313 0.14448 0.13856 0.0
C3226 C 0.92191 0.16456 0.14566 0.0
C3227 C 0.94146 0.17242 0.15181 0.0
C3228 C 0.96239 0.16048 0.15084 0.0
C3229 C 0.96383 0.14067 0.14369 0.0
C3230 C 0.94431 0.1327 0.13754 0.0
C3231 C 0.87263 0.13626 0.07972 0.0
C3232 C 0.88853 0.12083 0.07454 0.0
C3233 C 0.87123 0.13846 0.09221 0.0
C3234 C 0.88574 0.12531 0.09969 0.0
C3235 C 0.90185 0.11022 0.09451 0.0
C3236 C 0.90314 0.10789 0.08208 0.0
C3237 C 0.88387 0.12683 0.11294 0.0
C3238 C 0.90341 0.13345 0.1196 0.0
C3239 C 0.86293 0.12194 0.11899 0.0
C3240 C 0.84205 0.11376 0.11254 0.0
C3241 C 0.84292 0.09375 0.10538 0.0
C3242 C 0.82322 0.08623 0.09925 0.0
C3243 C 0.80248 0.09849 0.10027 0.0
C3244 C 0.80139 0.11826 0.10746 0.0
C3245 C 0.82106 0.12586 0.1136 0.0
H3246 H 0.78724 0.09264 0.09552 0.0
H3247 H 0.97751 0.16659 0.15561 0.0
H3248 H 0.90393 0.61473 0.82631 0.0
H3249 H 0.90881 0.61166 0.84811 0.0
H3250 H 0.85144 0.65831 0.85335 0.0
H3251 H 0.84669 0.66166 0.83171 0.0
H3252 H 0.88631 0.66866 0.86835 0.0
H3253 H 0.84501 0.59955 0.85637 0.0
H3254 H 0.83946 0.56359 0.84482 0.0
H3255 H 0.9024 0.53595 0.8594 0.0
H3256 H 0.90848 0.57187 0.87093 0.0
H3257 H 0.85974 0.64613 0.92961 0.0
H3258 H 0.85835 0.6507 0.90776 0.0
H3259 H 0.91298 0.60034 0.90398 0.0
H3260 H 0.91393 0.59522 0.92564 0.0
H3261 H 0.88121 0.59199 0.88813 0.0
H3262 H 0.92237 0.65954 0.90071 0.0
H3263 H 0.92885 0.69518 0.91238 0.0
H3264 H 0.86824 0.72574 0.89673 0.0
H3265 H 0.86118 0.69012 0.88511 0.0
C3266 C 0.89244 0.62438 0.83212 0.0
C3267 C 0.87487 0.63835 0.82728 0.0
C3268 C 0.89519 0.62257 0.84458 0.0
C3269 C 0.88033 0.63459 0.85239 0.0
C3270 C 0.86312 0.64889 0.84753 0.0
C3271 C 0.86038 0.65071 0.83513 0.0
C3272 C 0.88221 0.63199 0.86562 0.0
C3273 C 0.88499 0.65191 0.87269 0.0
C3274 C 0.88104 0.61012 0.87129 0.0
C3275 C 0.87731 0.58847 0.86442 0.0
C3276 C 0.85775 0.58586 0.85705 0.0
C3277 C 0.85449 0.56548 0.85052 0.0
C3278 C 0.8706 0.54752 0.85135 0.0
C3279 C 0.88996 0.54988 0.85875 0.0
C3280 C 0.89331 0.57024 0.86529 0.0
C3281 C 0.87145 0.63608 0.9241 0.0
C3282 C 0.88697 0.62037 0.92936 0.0
C3283 C 0.87074 0.63878 0.91162 0.0
C3284 C 0.88576 0.62604 0.90419 0.0
C3285 C 0.90121 0.61035 0.90948 0.0
C3286 C 0.90178 0.60751 0.9219 0.0
C3287 C 0.88521 0.62867 0.89091 0.0
C3288 C 0.88266 0.60875 0.88382 0.0
C3289 C 0.88679 0.65053 0.88524 0.0
C3290 C 0.89112 0.67207 0.89212 0.0
C3291 C 0.91033 0.6738 0.89982 0.0
C3292 C 0.91412 0.69401 0.90642 0.0
C3293 C 0.89894 0.7127 0.90531 0.0
C3294 C 0.87997 0.71124 0.89758 0.0
C3295 C 0.87607 0.69105 0.89098 0.0
H3296 H 0.9019 0.72833 0.91043 0.0
H3297 H 0.86805 0.53176 0.84628 0.0
H3298 H 0.14547 0.14996 0.57548 0.0
H3299 H 0.14898 0.15523 0.59727 0.0
H3300 H 0.0888 0.1124 0.60271 0.0
H3301 H 0.0854 0.10681 0.58111 0.0
H3302 H 0.08893 0.1526 0.61703 0.0
H3303 H 0.13908 0.08893 0.60654 0.0
H3304 H 0.17075 0.07001 0.59545 0.0
H3305 H 0.21894 0.12005 0.60908 0.0
H3306 H 0.18745 0.13948 0.62013 0.0
H3307 H 0.10122 0.12219 0.67883 0.0
H3308 H 0.09688 0.1206 0.65694 0.0
H3309 H 0.16021 0.15926 0.65277 0.0
H3310 H 0.16464 0.16089 0.67449 0.0
H3311 H 0.15878 0.12258 0.63769 0.0
H3312 H 0.11002 0.18517 0.64904 0.0
H3313 H 0.07912 0.20433 0.6605 0.0
H3314 H 0.02884 0.15829 0.64522 0.0
H3315 H 0.05965 0.13832 0.63392 0.0
C3316 C 0.13292 0.14183 0.58133 0.0
C3317 C 0.11522 0.12792 0.57659 0.0
C3318 C 0.13496 0.14481 0.59376 0.0
C3319 C 0.11918 0.13412 0.60159 0.0
C3320 C 0.10111 0.12084 0.59683 0.0
C3321 C 0.09926 0.11761 0.58447 0.0
C3322 C 0.12193 0.13586 0.61478 0.0
C3323 C 0.10409 0.14586 0.62157 0.0
C3324 C 0.14192 0.12748 0.62066 0.0
C3325 C 0.16087 0.11582 0.61404 0.0
C3326 C 0.15639 0.09603 0.60708 0.0
C3327 C 0.17431 0.08519 0.60082 0.0
C3328 C 0.19683 0.09387 0.60152 0.0
C3329 C 0.20148 0.11338 0.60852 0.0
C3330 C 0.18361 0.1243 0.61479 0.0
C3331 C 0.11416 0.13035 0.67323 0.0
C3332 C 0.13322 0.1417 0.67838 0.0
C3333 C 0.11166 0.12949 0.66074 0.0
C3334 C 0.1282 0.13991 0.65323 0.0
C3335 C 0.14728 0.15107 0.65838 0.0
C3336 C 0.14971 0.15206 0.67082 0.0
C3337 C 0.12574 0.13925 0.63998 0.0
C3338 C 0.14363 0.12942 0.63317 0.0
C3339 C 0.10586 0.14794 0.63409 0.0
C3340 C 0.0872 0.16006 0.64074 0.0
C3341 C 0.09242 0.17897 0.64821 0.0
C3342 C 0.0749 0.19001 0.65466 0.0
C3343 C 0.052 0.18257 0.65359 0.0
C3344 C 0.04659 0.16403 0.64605 0.0
C3345 C 0.06409 0.15281 0.63963 0.0
H3346 H 0.03846 0.19117 0.6586 0.0
H3347 H 0.21069 0.08545 0.59667 0.0
H3348 H 0.58757 0.40538 0.42494 0.0
H3349 H 0.59046 0.40094 0.40328 0.0
H3350 H 0.64698 0.35303 0.40783 0.0
H3351 H 0.64406 0.35725 0.42971 0.0
H3352 H 0.65545 0.38786 0.39072 0.0
H3353 H 0.59644 0.33262 0.40006 0.0
H3354 H 0.56006 0.31934 0.40932 0.0
H3355 H 0.52178 0.36841 0.38831 0.0
H3356 H 0.558 0.38232 0.37909 0.0
H3357 H 0.66168 0.34658 0.33173 0.0
H3358 H 0.65644 0.3495 0.3533 0.0
H3359 H 0.59776 0.39444 0.34799 0.0
H3360 H 0.60278 0.39136 0.32614 0.0
H3361 H 0.58981 0.36142 0.36551 0.0
H3362 H 0.64808 0.41729 0.35647 0.0
H3363 H 0.68424 0.43198 0.34756 0.0
H3364 H 0.72351 0.38306 0.36817 0.0
H3365 H 0.68754 0.36783 0.37708 0.0
C3366 C 0.60054 0.39374 0.42138 0.0
C3367 C 0.61556 0.38159 0.42905 0.0
C3368 C 0.60211 0.3912 0.40898 0.0
C3369 C 0.6188 0.37653 0.40395 0.0
C3370 C 0.63393 0.36439 0.41155 0.0
C3371 C 0.63221 0.36676 0.42402 0.0
C3372 C 0.62071 0.37449 0.39074 0.0
C3373 C 0.64125 0.38171 0.38521 0.0
C3374 C 0.60185 0.36723 0.38356 0.0
C3375 C 0.57998 0.35867 0.38896 0.0
C3376 C 0.58029 0.34072 0.39748 0.0
C3377 C 0.55969 0.33306 0.40271 0.0
C3378 C 0.53863 0.34306 0.39942 0.0
C3379 C 0.53812 0.3607 0.39086 0.0
C3380 C 0.55868 0.36847 0.38562 0.0
C3381 C 0.6476 0.35709 0.3351 0.0
C3382 C 0.63269 0.36885 0.32721 0.0
C3383 C 0.64469 0.35879 0.34746 0.0
C3384 C 0.62691 0.37242 0.35227 0.0
C3385 C 0.61166 0.38388 0.34445 0.0
C3386 C 0.61458 0.38219 0.332 0.0
C3387 C 0.62464 0.37466 0.36548 0.0
C3388 C 0.60402 0.36754 0.37101 0.0
C3389 C 0.64339 0.38214 0.37268 0.0
C3390 C 0.66508 0.39128 0.36736 0.0
C3391 C 0.66441 0.40953 0.35903 0.0
C3392 C 0.68487 0.41798 0.35399 0.0
C3393 C 0.70615 0.40842 0.35727 0.0
C3394 C 0.70701 0.39043 0.36562 0.0
C3395 C 0.68659 0.38189 0.37068 0.0
H3396 H 0.72198 0.41499 0.35336 0.0
H3397 H 0.5227 0.33711 0.40349 0.0
H3398 H 0.41535 0.91084 0.07998 0.0
H3399 H 0.41386 0.90592 0.10169 0.0
H3400 H 0.36221 0.85267 0.09759 0.0
H3401 H 0.3636 0.85752 0.07574 0.0
H3402 H 0.35066 0.88447 0.11493 0.0
H3403 H 0.41659 0.83826 0.1047 0.0
H3404 H 0.4543 0.83026 0.09525 0.0
H3405 H 0.48584 0.88368 0.11642 0.0
H3406 H 0.44821 0.89227 0.12587 0.0
H3407 H 0.35083 0.84221 0.17383 0.0
H3408 H 0.35547 0.84542 0.15222 0.0
H3409 H 0.40881 0.89671 0.1572 0.0
H3410 H 0.40452 0.89324 0.17905 0.0
H3411 H 0.42004 0.86634 0.13941 0.0
H3412 H 0.35452 0.91304 0.14945 0.0
H3413 H 0.31684 0.92187 0.15874 0.0
H3414 H 0.28465 0.86851 0.1378 0.0
H3415 H 0.32222 0.85913 0.12849 0.0
C3416 C 0.40373 0.89798 0.08367 0.0
C3417 C 0.38961 0.88452 0.07613 0.0
C3418 C 0.40298 0.89514 0.09609 0.0
C3419 C 0.38809 0.87878 0.10127 0.0
C3420 C 0.37388 0.86535 0.09378 0.0
C3421 C 0.37472 0.8681 0.08131 0.0
C3422 C 0.38696 0.87622 0.11451 0.0
C3423 C 0.36575 0.88015 0.12027 0.0
C3424 C 0.40682 0.87131 0.12151 0.0
C3425 C 0.42952 0.86606 0.11591 0.0
C3426 C 0.43152 0.84843 0.10728 0.0
C3427 C 0.45289 0.84377 0.10193 0.0
C3428 C 0.47244 0.85649 0.10521 0.0
C3429 C 0.47067 0.87386 0.11388 0.0
C3430 C 0.44933 0.87862 0.11924 0.0
C3431 C 0.36366 0.85413 0.17038 0.0
C3432 C 0.37721 0.86761 0.17817 0.0
C3433 C 0.36622 0.856 0.15798 0.0
C3434 C 0.38219 0.8716 0.15305 0.0
C3435 C 0.39629 0.88463 0.1608 0.0
C3436 C 0.39379 0.88268 0.17327 0.0
C3437 C 0.38369 0.87446 0.13982 0.0
C3438 C 0.40495 0.87065 0.13407 0.0
C3439 C 0.36389 0.87959 0.13281 0.0
C3440 C 0.34124 0.88525 0.13835 0.0
C3441 C 0.33944 0.90307 0.14689 0.0
C3442 C 0.3181 0.90819 0.15215 0.0
C3443 C 0.29838 0.89572 0.14888 0.0
C3444 C 0.29995 0.87814 0.14033 0.0
C3445 C 0.32126 0.87292 0.13505 0.0
H3446 H 0.28186 0.89971 0.15296 0.0
H3447 H 0.48897 0.85285 0.10106 0.0
H3448 H 0.84789 0.3425 0.67458 0.0
H3449 H 0.85282 0.34395 0.65289 0.0
H3450 H 0.90564 0.3961 0.65698 0.0
H3451 H 0.90117 0.39427 0.67883 0.0
H3452 H 0.84551 0.37718 0.63756 0.0
H3453 H 0.94432 0.39244 0.63388 0.0
H3454 H 0.98002 0.38307 0.645 0.0
H3455 H 0.94718 0.32322 0.66018 0.0
H3456 H 0.91141 0.33204 0.64903 0.0
H3457 H 0.91365 0.41001 0.58045 0.0
H3458 H 0.91157 0.40488 0.60214 0.0
H3459 H 0.86271 0.34922 0.59742 0.0
H3460 H 0.86459 0.35439 0.57562 0.0
H3461 H 0.92117 0.36889 0.61702 0.0
H3462 H 0.82315 0.35217 0.62033 0.0
H3463 H 0.78733 0.3609 0.60918 0.0
H3464 H 0.81848 0.42241 0.59486 0.0
H3465 H 0.85436 0.41421 0.60604 0.0
C3466 C 0.86069 0.35419 0.67089 0.0
C3467 C 0.8742 0.36824 0.67843 0.0
C3468 C 0.86342 0.35505 0.65846 0.0
C3469 C 0.87971 0.36999 0.65326 0.0
C3470 C 0.89322 0.38413 0.66077 0.0
C3471 C 0.89059 0.38316 0.67325 0.0
C3472 C 0.882 0.37108 0.63997 0.0
C3473 C 0.86203 0.37502 0.63309 0.0
C3474 C 0.90359 0.3687 0.63408 0.0
C3475 C 0.92511 0.36306 0.64071 0.0
C3476 C 0.94475 0.37723 0.63956 0.0
C3477 C 0.96499 0.37202 0.64587 0.0
C3478 C 0.96584 0.35261 0.65332 0.0
C3479 C 0.94647 0.33831 0.65444 0.0
C3480 C 0.9262 0.34342 0.64814 0.0
C3481 C 0.90252 0.39658 0.584 0.0
C3482 C 0.88916 0.38269 0.57631 0.0
C3483 C 0.90144 0.39362 0.59642 0.0
C3484 C 0.88683 0.37683 0.60143 0.0
C3485 C 0.87389 0.3625 0.59376 0.0
C3486 C 0.87502 0.36542 0.58131 0.0
C3487 C 0.88468 0.37493 0.61468 0.0
C3488 C 0.90467 0.37091 0.62154 0.0
C3489 C 0.8631 0.37711 0.62056 0.0
C3490 C 0.84151 0.38241 0.61392 0.0
C3491 C 0.82231 0.36759 0.61483 0.0
C3492 C 0.80201 0.37244 0.6085 0.0
C3493 C 0.80066 0.39215 0.60128 0.0
C3494 C 0.81958 0.4071 0.60041 0.0
C3495 C 0.83991 0.40234 0.60674 0.0
H3496 H 0.78494 0.39586 0.59638 0.0
H3497 H 0.98152 0.34862 0.6582 0.0
H3498 H 0.40354 0.15752 0.32643 0.0
H3499 H 0.40641 0.15633 0.34835 0.0
H3500 H 0.34877 0.1088 0.34959 0.0
H3501 H 0.34511 0.11129 0.32775 0.0
H3502 H 0.34273 0.13799 0.36604 0.0
H3503 H 0.40857 0.0926 0.35419 0.0
H3504 H 0.44507 0.0845 0.34354 0.0
H3505 H 0.47774 0.14146 0.36153 0.0
H3506 H 0.44134 0.15006 0.3722 0.0
H3507 H 0.40094 0.09035 0.42391 0.0
H3508 H 0.39888 0.09485 0.40227 0.0
H3509 H 0.36338 0.15997 0.40672 0.0
H3510 H 0.36476 0.15511 0.4286 0.0
H3511 H 0.41643 0.12376 0.38754 0.0
H3512 H 0.32791 0.16923 0.38264 0.0
H3513 H 0.29045 0.17178 0.39318 0.0
H3514 H 0.30154 0.10455 0.40852 0.0
H3515 H 0.3389 0.1015 0.39796 0.0
C3516 C 0.39171 0.14667 0.33143 0.0
C3517 C 0.37428 0.13427 0.3255 0.0
C3518 C 0.39336 0.14591 0.34395 0.0
C3519 C 0.37797 0.13224 0.3507 0.0
C3520 C 0.36082 0.11954 0.34465 0.0
C3521 C 0.35886 0.12074 0.33218 0.0
C3522 C 0.37927 0.13151 0.36406 0.0
C3523 C 0.35889 0.13488 0.37072 0.0
C3524 C 0.40025 0.12731 0.37026 0.0
C3525 C 0.42217 0.12211 0.3639 0.0
C3526 C 0.4235 0.10349 0.35582 0.0
C3527 C 0.44417 0.09879 0.34979 0.0
C3528 C 0.46369 0.11249 0.35183 0.0
C3529 C 0.4626 0.13088 0.35994 0.0
C3530 C 0.44196 0.13566 0.36599 0.0
C3531 C 0.39262 0.10564 0.42032 0.0
C3532 C 0.38293 0.12235 0.42797 0.0
C3533 C 0.39155 0.10824 0.4079 0.0
C3534 C 0.38091 0.12769 0.40279 0.0
C3535 C 0.37139 0.14462 0.41042 0.0
C3536 C 0.37222 0.14187 0.42292 0.0
C3537 C 0.37984 0.12986 0.38949 0.0
C3538 C 0.4003 0.12696 0.38285 0.0
C3539 C 0.35881 0.13369 0.3833 0.0
C3540 C 0.33631 0.13529 0.38963 0.0
C3541 C 0.32232 0.15499 0.38825 0.0
C3542 C 0.30111 0.15651 0.39422 0.0
C3543 C 0.29366 0.13838 0.40155 0.0
C3544 C 0.30737 0.11863 0.40288 0.0
C3545 C 0.32857 0.117 0.39691 0.0
H3546 H 0.27725 0.1396 0.40618 0.0
H3547 H 0.47968 0.10883 0.34715 0.0
H3548 H 0.65616 0.66302 0.1751 0.0
H3549 H 0.64942 0.66144 0.15358 0.0
H3550 H 0.59605 0.61034 0.15895 0.0
H3551 H 0.60273 0.61185 0.1807 0.0
H3552 H 0.62684 0.59852 0.14093 0.0
H3553 H 0.58123 0.66409 0.1518 0.0
H3554 H 0.57351 0.70154 0.16158 0.0
H3555 H 0.62572 0.73381 0.1399 0.0
H3556 H 0.63408 0.69644 0.13015 0.0
H3557 H 0.58713 0.59991 0.08145 0.0
H3558 H 0.58873 0.60424 0.10313 0.0
H3559 H 0.64054 0.65744 0.09937 0.0
H3560 H 0.6387 0.65348 0.07745 0.0
H3561 H 0.60889 0.66832 0.11673 0.0
H3562 H 0.65613 0.60284 0.10679 0.0
H3563 H 0.66508 0.56532 0.09735 0.0
H3564 H 0.61065 0.53303 0.11751 0.0
H3565 H 0.60116 0.57045 0.12694 0.0
C3566 C 0.64285 0.65152 0.17176 0.0
C3567 C 0.62991 0.63759 0.17962 0.0
C3568 C 0.63898 0.65072 0.15943 0.0
C3569 C 0.62208 0.63597 0.15466 0.0
C3570 C 0.60913 0.62192 0.16246 0.0
C3571 C 0.61291 0.62283 0.17487 0.0
C3572 C 0.61864 0.63482 0.14148 0.0
C3573 C 0.62248 0.61368 0.13566 0.0
C3574 C 0.61363 0.65478 0.13459 0.0
C3575 C 0.60842 0.67739 0.14031 0.0
C3576 C 0.59119 0.67913 0.14918 0.0
C3577 C 0.58669 0.70035 0.15471 0.0
C3578 C 0.59915 0.72003 0.15138 0.0
C3579 C 0.6161 0.71854 0.14248 0.0
C3580 C 0.62072 0.69734 0.13694 0.0
C3581 C 0.5988 0.61266 0.08519 0.0
C3582 C 0.61294 0.62625 0.07772 0.0
C3583 C 0.59974 0.61505 0.09762 0.0
C3584 C 0.61503 0.63087 0.1029 0.0
C3585 C 0.62867 0.64504 0.09548 0.0
C3586 C 0.62766 0.64273 0.08297 0.0
C3587 C 0.61713 0.63201 0.11618 0.0
C3588 C 0.6131 0.65314 0.12201 0.0
C3589 C 0.62205 0.61205 0.1231 0.0
C3590 C 0.62779 0.5895 0.11748 0.0
C3591 C 0.64595 0.58778 0.10914 0.0
C3592 C 0.65114 0.56652 0.1038 0.0
C3593 C 0.6384 0.54682 0.10681 0.0
C3594 C 0.62048 0.54831 0.11518 0.0
C3595 C 0.6152 0.56954 0.12053 0.0
H3596 H 0.64244 0.53037 0.10266 0.0
H3597 H 0.59564 0.73645 0.15567 0.0
H3598 H 0.15935 0.84044 0.8295 0.0
H3599 H 0.15523 0.84184 0.85122 0.0
H3600 H 0.10196 0.89369 0.84767 0.0
H3601 H 0.10563 0.89192 0.82577 0.0
H3602 H 0.16297 0.87544 0.86638 0.0
H3603 H 0.06412 0.88933 0.8713 0.0
H3604 H 0.02811 0.8797 0.86053 0.0
H3605 H 0.06112 0.82065 0.84465 0.0
H3606 H 0.09717 0.82962 0.85551 0.0
H3607 H 0.09528 0.90771 0.92378 0.0
H3608 H 0.09778 0.90269 0.90213 0.0
H3609 H 0.14779 0.84809 0.90699 0.0
H3610 H 0.14545 0.85313 0.92881 0.0
H3611 H 0.0883 0.86626 0.88776 0.0
H3612 H 0.18643 0.85098 0.88346 0.0
H3613 H 0.22259 0.86049 0.89414 0.0
H3614 H 0.19107 0.92174 0.90854 0.0
H3615 H 0.15485 0.91275 0.89783 0.0
C3616 C 0.14661 0.85204 0.83331 0.0
C3617 C 0.13276 0.86605 0.82591 0.0
C3618 C 0.14435 0.85288 0.84575 0.0
C3619 C 0.1282 0.86774 0.85111 0.0
C3620 C 0.1143 0.8818 0.84374 0.0
C3621 C 0.11646 0.88085 0.83124 0.0
C3622 C 0.12647 0.86884 0.8644 0.0
C3623 C 0.14668 0.87309 0.87105 0.0
C3624 C 0.10517 0.86619 0.87052 0.0
C3625 C 0.08343 0.86032 0.86413 0.0
C3626 C 0.06365 0.87422 0.86556 0.0
C3627 C 0.04323 0.86886 0.85944 0.0
C3628 C 0.04235 0.8496 0.85189 0.0
C3629 C 0.06185 0.83558 0.85049 0.0
C3630 C 0.08228 0.8408 0.85662 0.0
C3631 C 0.10682 0.89458 0.92028 0.0
C3632 C 0.12024 0.88084 0.92802 0.0
C3633 C 0.10814 0.89169 0.90788 0.0
C3634 C 0.12304 0.87512 0.90292 0.0
C3635 C 0.13634 0.86116 0.91062 0.0
C3636 C 0.13497 0.86402 0.92308 0.0
C3637 C 0.12479 0.87288 0.88968 0.0
C3638 C 0.10459 0.86846 0.88306 0.0
C3639 C 0.1461 0.87529 0.88357 0.0
C3640 C 0.16786 0.88103 0.88996 0.0
C3641 C 0.18725 0.8665 0.88888 0.0
C3642 C 0.20775 0.8718 0.89494 0.0
C3643 C 0.2091 0.89166 0.90205 0.0
C3644 C 0.18997 0.90631 0.90308 0.0
C3645 C 0.16944 0.90111 0.89703 0.0
H3646 H 0.22498 0.89572 0.90674 0.0
H3647 H 0.02654 0.84552 0.84714 0.0
loop_
_geom_bond_atom_site_label_1
_geom_bond_atom_site_label_2
_geom_bond_distance
_geom_bond_site_symmetry_2
_ccdc_geom_bond_type
Co0 O1 2.216 . S
Co0 O2 2.091 . S
Co0 O4 2.004 . S
Co0 O10 2.021 . S
Co0 O12 2.137 . S
Co0 O13 2.244 . S
O1 Co0 2.216 . S
O1 C8 1.247 . S
O2 Co0 2.091 . S
O2 C8 1.261 . S
C3 O12 1.247 . S
C3 O13 1.272 . S
O4 Co0 2.004 . S
O4 C9 1.259 . S
Co5 O6 2.061 . S
Co5 O11 2.052 . S
Co5 O13 2.135 . S
O6 Co5 2.061 . S
O6 C9 1.235 . S
C7 O10 1.238 . S
C7 O11 1.241 . S
C8 O1 1.247 . S
C8 O2 1.261 . S
C9 O4 1.259 . S
C9 O6 1.235 . S
O10 Co0 2.021 . S
O10 C7 1.238 . S
O11 Co5 2.052 . S
O11 C7 1.241 . S
O12 Co0 2.137 . S
O12 C3 1.247 . S
O13 Co0 2.244 . S
O13 C3 1.272 . S
O13 Co5 2.135 . S
Co14 O15 2.216 . S
Co14 O16 2.091 . S
Co14 O18 2.004 . S
Co14 O24 2.021 . S
Co14 O26 2.137 . S
Co14 O27 2.244 . S
O15 Co14 2.216 . S
O15 C22 1.247 . S
O16 Co14 2.091 . S
O16 C22 1.261 . S
C17 O26 1.247 . S
C17 O27 1.272 . S
O18 Co14 2.004 . S
O18 C23 1.259 . S
Co19 O20 2.061 . S
Co19 O25 2.052 . S
Co19 O27 2.135 . S
O20 Co19 2.061 . S
O20 C23 1.235 . S
C21 O24 1.238 . S
C21 O25 1.241 . S
C22 O15 1.247 . S
C22 O16 1.261 . S
C23 O18 1.259 . S
C23 O20 1.235 . S
O24 Co14 2.021 . S
O24 C21 1.238 . S
O25 Co19 2.052 . S
O25 C21 1.241 . S
O26 Co14 2.137 . S
O26 C17 1.247 . S
O27 Co14 2.244 . S
O27 C17 1.272 . S
O27 Co19 2.135 . S
Co28 O29 2.216 . S
Co28 O30 2.091 . S
Co28 O32 2.004 . S
Co28 O38 2.021 . S
Co28 O40 2.137 . S
Co28 O41 2.244 . S
O29 Co28 2.216 . S
O29 C36 1.247 . S
O30 Co28 2.091 . S
O30 C36 1.261 . S
C31 O40 1.247 . S
C31 O41 1.272 . S
O32 Co28 2.004 . S
O32 C37 1.259 . S
Co33 O34 2.061 . S
Co33 O39 2.052 . S
Co33 O41 2.135 . S
O34 Co33 2.061 . S
O34 C37 1.235 . S
C35 O38 1.238 . S
C35 O39 1.241 . S
C36 O29 1.247 . S
C36 O30 1.261 . S
C37 O32 1.259 . S
C37 O34 1.235 . S
O38 Co28 2.021 . S
O38 C35 1.238 . S
O39 Co33 2.052 . S
O39 C35 1.241 . S
O40 Co28 2.137 . S
O40 C31 1.247 . S
O41 Co28 2.244 . S
O41 C31 1.272 . S
O41 Co33 2.135 . S
Co42 O43 2.216 . S
Co42 O44 2.091 . S
Co42 O46 2.004 . S
Co42 O52 2.021 . S
Co42 O54 2.137 . S
Co42 O55 2.244 . S
O43 Co42 2.216 . S
O43 C50 1.247 . S
O44 Co42 2.091 . S
O44 C50 1.261 . S
C45 O54 1.247 . S
C45 O55 1.272 . S
O46 Co42 2.004 . S
O46 C51 1.259 . S
Co47 O48 2.061 . S
Co47 O53 2.052 . S
Co47 O55 2.135 . S
O48 Co47 2.061 . S
O48 C51 1.235 . S
C49 O52 1.238 . S
C49 O53 1.241 . S
C50 O43 1.247 . S
C50 O44 1.261 . S
C51 O46 1.259 . S
C51 O48 1.235 . S
O52 Co42 2.021 . S
O52 C49 1.238 . S
O53 Co47 2.052 . S
O53 C49 1.241 . S
O54 Co42 2.137 . S
O54 C45 1.247 . S
O55 Co42 2.244 . S
O55 C45 1.272 . S
O55 Co47 2.135 . S
Co56 O57 2.216 . S
Co56 O58 2.091 . S
Co56 O60 2.004 . S
Co56 O66 2.021 . S
Co56 O68 2.137 . S
Co56 O69 2.244 . S
O57 Co56 2.216 . S
O57 C64 1.247 . S
O58 Co56 2.091 . S
O58 C64 1.261 . S
C59 O68 1.247 . S
C59 O69 1.272 . S
O60 Co56 2.004 . S
O60 C65 1.259 . S
Co61 O62 2.061 . S
Co61 O67 2.052 . S
Co61 O69 2.135 . S
O62 Co61 2.061 . S
O62 C65 1.235 . S
C63 O66 1.238 . S
C63 O67 1.241 . S
C64 O57 1.247 . S
C64 O58 1.261 . S
C65 O60 1.259 . S
C65 O62 1.235 . S
O66 Co56 2.021 . S
O66 C63 1.238 . S
O67 Co61 2.052 . S
O67 C63 1.241 . S
O68 Co56 2.137 . S
O68 C59 1.247 . S
O69 Co56 2.244 . S
O69 C59 1.272 . S
O69 Co61 2.135 . S
Co70 O71 2.216 . S
Co70 O72 2.091 . S
Co70 O74 2.004 . S
Co70 O80 2.021 . S
Co70 O82 2.137 . S
Co70 O83 2.244 . S
O71 Co70 2.216 . S
O71 C78 1.247 . S
O72 Co70 2.091 . S
O72 C78 1.261 . S
C73 O82 1.247 . S
C73 O83 1.272 . S
O74 Co70 2.004 . S
O74 C79 1.259 . S
Co75 O76 2.061 . S
Co75 O81 2.052 . S
Co75 O83 2.135 . S
O76 Co75 2.061 . S
O76 C79 1.235 . S
C77 O80 1.238 . S
C77 O81 1.241 . S
C78 O71 1.247 . S
C78 O72 1.261 . S
C79 O74 1.259 . S
C79 O76 1.235 . S
O80 Co70 2.021 . S
O80 C77 1.238 . S
O81 Co75 2.052 . S
O81 C77 1.241 . S
O82 Co70 2.137 . S
O82 C73 1.247 . S
O83 Co70 2.244 . S
O83 C73 1.272 . S
O83 Co75 2.135 . S
Co84 O85 2.216 . S
Co84 O86 2.091 . S
Co84 O88 2.004 . S
Co84 O94 2.021 . S
Co84 O96 2.137 . S
Co84 O97 2.244 . S
O85 Co84 2.216 . S
O85 C92 1.247 . S
O86 Co84 2.091 . S
O86 C92 1.261 . S
C87 O96 1.247 . S
C87 O97 1.272 . S
O88 Co84 2.004 . S
O88 C93 1.259 . S
Co89 O90 2.061 . S
Co89 O95 2.052 . S
Co89 O97 2.135 . S
O90 Co89 2.061 . S
O90 C93 1.235 . S
C91 O94 1.238 . S
C91 O95 1.241 . S
C92 O85 1.247 . S
C92 O86 1.261 . S
C93 O88 1.259 . S
C93 O90 1.235 . S
O94 Co84 2.021 . S
O94 C91 1.238 . S
O95 Co89 2.052 . S
O95 C91 1.241 . S
O96 Co84 2.137 . S
O96 C87 1.247 . S
O97 Co84 2.244 . S
O97 C87 1.272 . S
O97 Co89 2.135 . S
Co98 O99 2.216 . S
Co98 O100 2.091 . S
Co98 O102 2.004 . S
Co98 O108 2.021 . S
Co98 O110 2.137 . S
Co98 O111 2.244 . S
O99 Co98 2.216 . S
O99 C106 1.247 . S
O100 Co98 2.091 . S
O100 C106 1.261 . S
C101 O110 1.247 . S
C101 O111 1.272 . S
O102 Co98 2.004 . S
O102 C107 1.259 . S
Co103 O104 2.061 . S
Co103 O109 2.052 . S
Co103 O111 2.135 . S
O104 Co103 2.061 . S
O104 C107 1.235 . S
C105 O108 1.238 . S
C105 O109 1.241 . S
C106 O99 1.247 . S
C106 O100 1.261 . S
C107 O102 1.259 . S
C107 O104 1.235 . S
O108 Co98 2.021 . S
O108 C105 1.238 . S
O109 Co103 2.052 . S
O109 C105 1.241 . S
O110 Co98 2.137 . S
O110 C101 1.247 . S
O111 Co98 2.244 . S
O111 C101 1.272 . S
O111 Co103 2.135 . S
Co112 O113 2.216 . S
Co112 O114 2.091 . S
Co112 O116 2.004 . S
Co112 O122 2.021 . S
Co112 O124 2.137 . S
Co112 O125 2.244 . S
O113 Co112 2.216 . S
O113 C120 1.247 . S
O114 Co112 2.091 . S
O114 C120 1.261 . S
C115 O124 1.247 . S
C115 O125 1.272 . S
O116 Co112 2.004 . S
O116 C121 1.259 . S
Co117 O118 2.061 . S
Co117 O123 2.052 . S
Co117 O125 2.135 . S
O118 Co117 2.061 . S
O118 C121 1.235 . S
C119 O122 1.238 . S
C119 O123 1.241 . S
C120 O113 1.247 . S
C120 O114 1.261 . S
C121 O116 1.259 . S
C121 O118 1.235 . S
O122 Co112 2.021 . S
O122 C119 1.238 . S
O123 Co117 2.052 . S
O123 C119 1.241 . S
O124 Co112 2.137 . S
O124 C115 1.247 . S
O125 Co112 2.244 . S
O125 C115 1.272 . S
O125 Co117 2.135 . S
Co126 O127 2.216 . S
Co126 O128 2.091 . S
Co126 O130 2.004 . S
Co126 O136 2.021 . S
Co126 O138 2.137 . S
Co126 O139 2.244 . S
O127 Co126 2.216 . S
O127 C134 1.247 . S
O128 Co126 2.091 . S
O128 C134 1.261 . S
C129 O138 1.247 . S
C129 O139 1.272 . S
O130 Co126 2.004 . S
O130 C135 1.259 . S
Co131 O132 2.061 . S
Co131 O137 2.052 . S
Co131 O139 2.135 . S
O132 Co131 2.061 . S
O132 C135 1.235 . S
C133 O136 1.238 . S
C133 O137 1.241 . S
C134 O127 1.247 . S
C134 O128 1.261 . S
C135 O130 1.259 . S
C135 O132 1.235 . S
O136 Co126 2.021 . S
O136 C133 1.238 . S
O137 Co131 2.052 . S
O137 C133 1.241 . S
O138 Co126 2.137 . S
O138 C129 1.247 . S
O139 Co126 2.244 . S
O139 C129 1.272 . S
O139 Co131 2.135 . S
Co140 O141 2.216 . S
Co140 O142 2.091 . S
Co140 O144 2.004 . S
Co140 O150 2.021 . S
Co140 O152 2.137 . S
Co140 O153 2.244 . S
O141 Co140 2.216 . S
O141 C148 1.247 . S
O142 Co140 2.091 . S
O142 C148 1.261 . S
C143 O152 1.247 . S
C143 O153 1.272 . S
O144 Co140 2.004 . S
O144 C149 1.259 . S
Co145 O146 2.061 . S
Co145 O151 2.052 . S
Co145 O153 2.135 . S
O146 Co145 2.061 . S
O146 C149 1.235 . S
C147 O150 1.238 . S
C147 O151 1.241 . S
C148 O141 1.247 . S
C148 O142 1.261 . S
C149 O144 1.259 . S
C149 O146 1.235 . S
O150 Co140 2.021 . S
O150 C147 1.238 . S
O151 Co145 2.052 . S
O151 C147 1.241 . S
O152 Co140 2.137 . S
O152 C143 1.247 . S
O153 Co140 2.244 . S
O153 C143 1.272 . S
O153 Co145 2.135 . S
Co154 O155 2.216 . S
Co154 O156 2.091 . S
Co154 O158 2.004 . S
Co154 O164 2.021 . S
Co154 O166 2.137 . S
Co154 O167 2.244 . S
O155 Co154 2.216 . S
O155 C162 1.247 . S
O156 Co154 2.091 . S
O156 C162 1.261 . S
C157 O166 1.247 . S
C157 O167 1.272 . S
O158 Co154 2.004 . S
O158 C163 1.259 . S
Co159 O160 2.061 . S
Co159 O165 2.052 . S
Co159 O167 2.135 . S
O160 Co159 2.061 . S
O160 C163 1.235 . S
C161 O164 1.238 . S
C161 O165 1.241 . S
C162 O155 1.247 . S
C162 O156 1.261 . S
C163 O158 1.259 . S
C163 O160 1.235 . S
O164 Co154 2.021 . S
O164 C161 1.238 . S
O165 Co159 2.052 . S
O165 C161 1.241 . S
O166 Co154 2.137 . S
O166 C157 1.247 . S
O167 Co154 2.244 . S
O167 C157 1.272 . S
O167 Co159 2.135 . S
Co168 O169 2.216 . S
Co168 O170 2.091 . S
Co168 O172 2.004 . S
Co168 O178 2.021 . S
Co168 O180 2.137 . S
Co168 O181 2.244 . S
O169 Co168 2.216 . S
O169 C176 1.247 . S
O170 Co168 2.091 . S
O170 C176 1.261 . S
C171 O180 1.247 . S
C171 O181 1.272 . S
O172 Co168 2.004 . S
O172 C177 1.259 . S
Co173 O174 2.061 . S
Co173 O179 2.052 . S
Co173 O181 2.135 . S
O174 Co173 2.061 . S
O174 C177 1.235 . S
C175 O178 1.238 . S
C175 O179 1.241 . S
C176 O169 1.247 . S
C176 O170 1.261 . S
C177 O172 1.259 . S
C177 O174 1.235 . S
O178 Co168 2.021 . S
O178 C175 1.238 . S
O179 Co173 2.052 . S
O179 C175 1.241 . S
O180 Co168 2.137 . S
O180 C171 1.247 . S
O181 Co168 2.244 . S
O181 C171 1.272 . S
O181 Co173 2.135 . S
Co182 O183 2.216 . S
Co182 O184 2.091 . S
Co182 O186 2.004 . S
Co182 O192 2.021 . S
Co182 O194 2.137 . S
Co182 O195 2.244 . S
O183 Co182 2.216 . S
O183 C190 1.247 . S
O184 Co182 2.091 . S
O184 C190 1.261 . S
C185 O194 1.247 . S
C185 O195 1.272 . S
O186 Co182 2.004 . S
O186 C191 1.259 . S
Co187 O188 2.061 . S
Co187 O193 2.052 . S
Co187 O195 2.135 . S
O188 Co187 2.061 . S
O188 C191 1.235 . S
C189 O192 1.238 . S
C189 O193 1.241 . S
C190 O183 1.247 . S
C190 O184 1.261 . S
C191 O186 1.259 . S
C191 O188 1.235 . S
O192 Co182 2.021 . S
O192 C189 1.238 . S
O193 Co187 2.052 . S
O193 C189 1.241 . S
O194 Co182 2.137 . S
O194 C185 1.247 . S
O195 Co182 2.244 . S
O195 C185 1.272 . S
O195 Co187 2.135 . S
Co196 O197 2.216 . S
Co196 O198 2.091 . S
Co196 O200 2.004 . S
Co196 O206 2.021 . S
Co196 O208 2.137 . S
Co196 O209 2.244 . S
O197 Co196 2.216 . S
O197 C204 1.247 . S
O198 Co196 2.091 . S
O198 C204 1.261 . S
C199 O208 1.247 . S
C199 O209 1.272 . S
O200 Co196 2.004 . S
O200 C205 1.259 . S
Co201 O202 2.061 . S
Co201 O207 2.052 . S
Co201 O209 2.135 . S
O202 Co201 2.061 . S
O202 C205 1.235 . S
C203 O206 1.238 . S
C203 O207 1.241 . S
C204 O197 1.247 . S
C204 O198 1.261 . S
C205 O200 1.259 . S
C205 O202 1.235 . S
O206 Co196 2.021 . S
O206 C203 1.238 . S
O207 Co201 2.052 . S
O207 C203 1.241 . S
O208 Co196 2.137 . S
O208 C199 1.247 . S
O209 Co196 2.244 . S
O209 C199 1.272 . S
O209 Co201 2.135 . S
Co210 O211 2.216 . S
Co210 O212 2.091 . S
Co210 O214 2.004 . S
Co210 O220 2.021 . S
Co210 O222 2.137 . S
Co210 O223 2.244 . S
O211 Co210 2.216 . S
O211 C218 1.247 . S
O212 Co210 2.091 . S
O212 C218 1.261 . S
C213 O222 1.247 . S
C213 O223 1.272 . S
O214 Co210 2.004 . S
O214 C219 1.259 . S
Co215 O216 2.061 . S
Co215 O221 2.052 . S
Co215 O223 2.135 . S
O216 Co215 2.061 . S
O216 C219 1.235 . S
C217 O220 1.238 . S
C217 O221 1.241 . S
C218 O211 1.247 . S
C218 O212 1.261 . S
C219 O214 1.259 . S
C219 O216 1.235 . S
O220 Co210 2.021 . S
O220 C217 1.238 . S
O221 Co215 2.052 . S
O221 C217 1.241 . S
O222 Co210 2.137 . S
O222 C213 1.247 . S
O223 Co210 2.244 . S
O223 C213 1.272 . S
O223 Co215 2.135 . S
Co224 O225 2.216 . S
Co224 O226 2.091 . S
Co224 O228 2.004 . S
Co224 O234 2.021 . S
Co224 O236 2.137 . S
Co224 O237 2.244 . S
O225 Co224 2.216 . S
O225 C232 1.247 . S
O226 Co224 2.091 . S
O226 C232 1.261 . S
C227 O236 1.247 . S
C227 O237 1.272 . S
O228 Co224 2.004 . S
O228 C233 1.259 . S
Co229 O230 2.061 . S
Co229 O235 2.052 . S
Co229 O237 2.135 . S
O230 Co229 2.061 . S
O230 C233 1.235 . S
C231 O234 1.238 . S
C231 O235 1.241 . S
C232 O225 1.247 . S
C232 O226 1.261 . S
C233 O228 1.259 . S
C233 O230 1.235 . S
O234 Co224 2.021 . S
O234 C231 1.238 . S
O235 Co229 2.052 . S
O235 C231 1.241 . S
O236 Co224 2.137 . S
O236 C227 1.247 . S
O237 Co224 2.244 . S
O237 C227 1.272 . S
O237 Co229 2.135 . S
Co238 O239 2.216 . S
Co238 O240 2.091 . S
Co238 O242 2.004 . S
Co238 O248 2.021 . S
Co238 O250 2.137 . S
Co238 O251 2.244 . S
O239 Co238 2.216 . S
O239 C246 1.247 . S
O240 Co238 2.091 . S
O240 C246 1.261 . S
C241 O250 1.247 . S
C241 O251 1.272 . S
O242 Co238 2.004 . S
O242 C247 1.259 . S
Co243 O244 2.061 . S
Co243 O249 2.052 . S
Co243 O251 2.135 . S
O244 Co243 2.061 . S
O244 C247 1.235 . S
C245 O248 1.238 . S
C245 O249 1.241 . S
C246 O239 1.247 . S
C246 O240 1.261 . S
C247 O242 1.259 . S
C247 O244 1.235 . S
O248 Co238 2.021 . S
O248 C245 1.238 . S
O249 Co243 2.052 . S
O249 C245 1.241 . S
O250 Co238 2.137 . S
O250 C241 1.247 . S
O251 Co238 2.244 . S
O251 C241 1.272 . S
O251 Co243 2.135 . S
Co252 O253 2.216 . S
Co252 O254 2.091 . S
Co252 O256 2.004 . S
Co252 O262 2.021 . S
Co252 O264 2.137 . S
Co252 O265 2.244 . S
O253 Co252 2.216 . S
O253 C260 1.247 . S
O254 Co252 2.091 . S
O254 C260 1.261 . S
C255 O264 1.247 . S
C255 O265 1.272 . S
O256 Co252 2.004 . S
O256 C261 1.259 . S
Co257 O258 2.061 . S
Co257 O263 2.052 . S
Co257 O265 2.135 . S
O258 Co257 2.061 . S
O258 C261 1.235 . S
C259 O262 1.238 . S
C259 O263 1.241 . S
C260 O253 1.247 . S
C260 O254 1.261 . S
C261 O256 1.259 . S
C261 O258 1.235 . S
O262 Co252 2.021 . S
O262 C259 1.238 . S
O263 Co257 2.052 . S
O263 C259 1.241 . S
O264 Co252 2.137 . S
O264 C255 1.247 . S
O265 Co252 2.244 . S
O265 C255 1.272 . S
O265 Co257 2.135 . S
Co266 O267 2.216 . S
Co266 O268 2.091 . S
Co266 O270 2.004 . S
Co266 O276 2.021 . S
Co266 O278 2.137 . S
Co266 O279 2.244 . S
O267 Co266 2.216 . S
O267 C274 1.247 . S
O268 Co266 2.091 . S
O268 C274 1.261 . S
C269 O278 1.247 . S
C269 O279 1.272 . S
O270 Co266 2.004 . S
O270 C275 1.259 . S
Co271 O272 2.061 . S
Co271 O277 2.052 . S
Co271 O279 2.135 . S
O272 Co271 2.061 . S
O272 C275 1.235 . S
C273 O276 1.238 . S
C273 O277 1.241 . S
C274 O267 1.247 . S
C274 O268 1.261 . S
C275 O270 1.259 . S
C275 O272 1.235 . S
O276 Co266 2.021 . S
O276 C273 1.238 . S
O277 Co271 2.052 . S
O277 C273 1.241 . S
O278 Co266 2.137 . S
O278 C269 1.247 . S
O279 Co266 2.244 . S
O279 C269 1.272 . S
O279 Co271 2.135 . S
Co280 O281 2.216 . S
Co280 O282 2.091 . S
Co280 O284 2.004 . S
Co280 O290 2.021 . S
Co280 O292 2.137 . S
Co280 O293 2.244 . S
O281 Co280 2.216 . S
O281 C288 1.247 . S
O282 Co280 2.091 . S
O282 C288 1.261 . S
C283 O292 1.247 . S
C283 O293 1.272 . S
O284 Co280 2.004 . S
O284 C289 1.259 . S
Co285 O286 2.061 . S
Co285 O291 2.052 . S
Co285 O293 2.135 . S
O286 Co285 2.061 . S
O286 C289 1.235 . S
C287 O290 1.238 . S
C287 O291 1.241 . S
C288 O281 1.247 . S
C288 O282 1.261 . S
C289 O284 1.259 . S
C289 O286 1.235 . S
O290 Co280 2.021 . S
O290 C287 1.238 . S
O291 Co285 2.052 . S
O291 C287 1.241 . S
O292 Co280 2.137 . S
O292 C283 1.247 . S
O293 Co280 2.244 . S
O293 C283 1.272 . S
O293 Co285 2.135 . S
Co294 O295 2.216 . S
Co294 O296 2.091 . S
Co294 O298 2.004 . S
Co294 O304 2.021 . S
Co294 O306 2.137 . S
Co294 O307 2.244 . S
O295 Co294 2.216 . S
O295 C302 1.247 . S
O296 Co294 2.091 . S
O296 C302 1.261 . S
C297 O306 1.247 . S
C297 O307 1.272 . S
O298 Co294 2.004 . S
O298 C303 1.259 . S
Co299 O300 2.061 . S
Co299 O305 2.052 . S
Co299 O307 2.135 . S
O300 Co299 2.061 . S
O300 C303 1.235 . S
C301 O304 1.238 . S
C301 O305 1.241 . S
C302 O295 1.247 . S
C302 O296 1.261 . S
C303 O298 1.259 . S
C303 O300 1.235 . S
O304 Co294 2.021 . S
O304 C301 1.238 . S
O305 Co299 2.052 . S
O305 C301 1.241 . S
O306 Co294 2.137 . S
O306 C297 1.247 . S
O307 Co294 2.244 . S
O307 C297 1.272 . S
O307 Co299 2.135 . S
Co308 O309 2.216 . S
Co308 O310 2.091 . S
Co308 O312 2.004 . S
Co308 O318 2.021 . S
Co308 O320 2.137 . S
Co308 O321 2.244 . S
O309 Co308 2.216 . S
O309 C316 1.247 . S
O310 Co308 2.091 . S
O310 C316 1.261 . S
C311 O320 1.247 . S
C311 O321 1.272 . S
O312 Co308 2.004 . S
O312 C317 1.259 . S
Co313 O314 2.061 . S
Co313 O319 2.052 . S
Co313 O321 2.135 . S
O314 Co313 2.061 . S
O314 C317 1.235 . S
C315 O318 1.238 . S
C315 O319 1.241 . S
C316 O309 1.247 . S
C316 O310 1.261 . S
C317 O312 1.259 . S
C317 O314 1.235 . S
O318 Co308 2.021 . S
O318 C315 1.238 . S
O319 Co313 2.052 . S
O319 C315 1.241 . S
O320 Co308 2.137 . S
O320 C311 1.247 . S
O321 Co308 2.244 . S
O321 C311 1.272 . S
O321 Co313 2.135 . S
Co322 O323 2.216 . S
Co322 O324 2.091 . S
Co322 O326 2.004 . S
Co322 O332 2.021 . S
Co322 O334 2.137 . S
Co322 O335 2.244 . S
O323 Co322 2.216 . S
O323 C330 1.247 . S
O324 Co322 2.091 . S
O324 C330 1.261 . S
C325 O334 1.247 . S
C325 O335 1.272 . S
O326 Co322 2.004 . S
O326 C331 1.259 . S
Co327 O328 2.061 . S
Co327 O333 2.052 . S
Co327 O335 2.135 . S
O328 Co327 2.061 . S
O328 C331 1.235 . S
C329 O332 1.238 . S
C329 O333 1.241 . S
C330 O323 1.247 . S
C330 O324 1.261 . S
C331 O326 1.259 . S
C331 O328 1.235 . S
O332 Co322 2.021 . S
O332 C329 1.238 . S
O333 Co327 2.052 . S
O333 C329 1.241 . S
O334 Co322 2.137 . S
O334 C325 1.247 . S
O335 Co322 2.244 . S
O335 C325 1.272 . S
O335 Co327 2.135 . S
Co336 O337 2.216 . S
Co336 O338 2.091 . S
Co336 O340 2.004 . S
Co336 O346 2.021 . S
Co336 O348 2.137 . S
Co336 O349 2.244 . S
O337 Co336 2.216 . S
O337 C344 1.247 . S
O338 Co336 2.091 . S
O338 C344 1.261 . S
C339 O348 1.247 . S
C339 O349 1.272 . S
O340 Co336 2.004 . S
O340 C345 1.259 . S
Co341 O342 2.061 . S
Co341 O347 2.052 . S
Co341 O349 2.135 . S
O342 Co341 2.061 . S
O342 C345 1.235 . S
C343 O346 1.238 . S
C343 O347 1.241 . S
C344 O337 1.247 . S
C344 O338 1.261 . S
C345 O340 1.259 . S
C345 O342 1.235 . S
O346 Co336 2.021 . S
O346 C343 1.238 . S
O347 Co341 2.052 . S
O347 C343 1.241 . S
O348 Co336 2.137 . S
O348 C339 1.247 . S
O349 Co336 2.244 . S
O349 C339 1.272 . S
O349 Co341 2.135 . S
Co350 O351 2.216 . S
Co350 O352 2.091 . S
Co350 O354 2.004 . S
Co350 O360 2.021 . S
Co350 O362 2.137 . S
Co350 O363 2.244 . S
O351 Co350 2.216 . S
O351 C358 1.247 . S
O352 Co350 2.091 . S
O352 C358 1.261 . S
C353 O362 1.247 . S
C353 O363 1.272 . S
O354 Co350 2.004 . S
O354 C359 1.259 . S
Co355 O356 2.061 . S
Co355 O361 2.052 . S
Co355 O363 2.135 . S
O356 Co355 2.061 . S
O356 C359 1.235 . S
C357 O360 1.238 . S
C357 O361 1.241 . S
C358 O351 1.247 . S
C358 O352 1.261 . S
C359 O354 1.259 . S
C359 O356 1.235 . S
O360 Co350 2.021 . S
O360 C357 1.238 . S
O361 Co355 2.052 . S
O361 C357 1.241 . S
O362 Co350 2.137 . S
O362 C353 1.247 . S
O363 Co350 2.244 . S
O363 C353 1.272 . S
O363 Co355 2.135 . S
Co364 O365 2.216 . S
Co364 O366 2.091 . S
Co364 O368 2.004 . S
Co364 O374 2.021 . S
Co364 O376 2.137 . S
Co364 O377 2.244 . S
O365 Co364 2.216 . S
O365 C372 1.247 . S
O366 Co364 2.091 . S
O366 C372 1.261 . S
C367 O376 1.247 . S
C367 O377 1.272 . S
O368 Co364 2.004 . S
O368 C373 1.259 . S
Co369 O370 2.061 . S
Co369 O375 2.052 . S
Co369 O377 2.135 . S
O370 Co369 2.061 . S
O370 C373 1.235 . S
C371 O374 1.238 . S
C371 O375 1.241 . S
C372 O365 1.247 . S
C372 O366 1.261 . S
C373 O368 1.259 . S
C373 O370 1.235 . S
O374 Co364 2.021 . S
O374 C371 1.238 . S
O375 Co369 2.052 . S
O375 C371 1.241 . S
O376 Co364 2.137 . S
O376 C367 1.247 . S
O377 Co364 2.244 . S
O377 C367 1.272 . S
O377 Co369 2.135 . S
Co378 O379 2.216 . S
Co378 O380 2.091 . S
Co378 O382 2.004 . S
Co378 O388 2.021 . S
Co378 O390 2.137 . S
Co378 O391 2.244 . S
O379 Co378 2.216 . S
O379 C386 1.247 . S
O380 Co378 2.091 . S
O380 C386 1.261 . S
C381 O390 1.247 . S
C381 O391 1.272 . S
O382 Co378 2.004 . S
O382 C387 1.259 . S
Co383 O384 2.061 . S
Co383 O389 2.052 . S
Co383 O391 2.135 . S
O384 Co383 2.061 . S
O384 C387 1.235 . S
C385 O388 1.238 . S
C385 O389 1.241 . S
C386 O379 1.247 . S
C386 O380 1.261 . S
C387 O382 1.259 . S
C387 O384 1.235 . S
O388 Co378 2.021 . S
O388 C385 1.238 . S
O389 Co383 2.052 . S
O389 C385 1.241 . S
O390 Co378 2.137 . S
O390 C381 1.247 . S
O391 Co378 2.244 . S
O391 C381 1.272 . S
O391 Co383 2.135 . S
Co392 O393 2.216 . S
Co392 O394 2.091 . S
Co392 O396 2.004 . S
Co392 O402 2.021 . S
Co392 O404 2.137 . S
Co392 O405 2.244 . S
O393 Co392 2.216 . S
O393 C400 1.247 . S
O394 Co392 2.091 . S
O394 C400 1.261 . S
C395 O404 1.247 . S
C395 O405 1.272 . S
O396 Co392 2.004 . S
O396 C401 1.259 . S
Co397 O398 2.061 . S
Co397 O403 2.052 . S
Co397 O405 2.135 . S
O398 Co397 2.061 . S
O398 C401 1.235 . S
C399 O402 1.238 . S
C399 O403 1.241 . S
C400 O393 1.247 . S
C400 O394 1.261 . S
C401 O396 1.259 . S
C401 O398 1.235 . S
O402 Co392 2.021 . S
O402 C399 1.238 . S
O403 Co397 2.052 . S
O403 C399 1.241 . S
O404 Co392 2.137 . S
O404 C395 1.247 . S
O405 Co392 2.244 . S
O405 C395 1.272 . S
O405 Co397 2.135 . S
Co406 O407 2.216 . S
Co406 O408 2.091 . S
Co406 O410 2.004 . S
Co406 O416 2.021 . S
Co406 O418 2.137 . S
Co406 O419 2.244 . S
O407 Co406 2.216 . S
O407 C414 1.247 . S
O408 Co406 2.091 . S
O408 C414 1.261 . S
C409 O418 1.247 . S
C409 O419 1.272 . S
O410 Co406 2.004 . S
O410 C415 1.259 . S
Co411 O412 2.061 . S
Co411 O417 2.052 . S
Co411 O419 2.135 . S
O412 Co411 2.061 . S
O412 C415 1.235 . S
C413 O416 1.238 . S
C413 O417 1.241 . S
C414 O407 1.247 . S
C414 O408 1.261 . S
C415 O410 1.259 . S
C415 O412 1.235 . S
O416 Co406 2.021 . S
O416 C413 1.238 . S
O417 Co411 2.052 . S
O417 C413 1.241 . S
O418 Co406 2.137 . S
O418 C409 1.247 . S
O419 Co406 2.244 . S
O419 C409 1.272 . S
O419 Co411 2.135 . S
Co420 O421 2.216 . S
Co420 O422 2.091 . S
Co420 O424 2.004 . S
Co420 O430 2.021 . S
Co420 O432 2.137 . S
Co420 O433 2.244 . S
O421 Co420 2.216 . S
O421 C428 1.247 . S
O422 Co420 2.091 . S
O422 C428 1.261 . S
C423 O432 1.247 . S
C423 O433 1.272 . S
O424 Co420 2.004 . S
O424 C429 1.259 . S
Co425 O426 2.061 . S
Co425 O431 2.052 . S
Co425 O433 2.135 . S
O426 Co425 2.061 . S
O426 C429 1.235 . S
C427 O430 1.238 . S
C427 O431 1.241 . S
C428 O421 1.247 . S
C428 O422 1.261 . S
C429 O424 1.259 . S
C429 O426 1.235 . S
O430 Co420 2.021 . S
O430 C427 1.238 . S
O431 Co425 2.052 . S
O431 C427 1.241 . S
O432 Co420 2.137 . S
O432 C423 1.247 . S
O433 Co420 2.244 . S
O433 C423 1.272 . S
O433 Co425 2.135 . S
Co434 O435 2.216 . S
Co434 O436 2.091 . S
Co434 O438 2.004 . S
Co434 O444 2.021 . S
Co434 O446 2.137 . S
Co434 O447 2.244 . S
O435 Co434 2.216 . S
O435 C442 1.247 . S
O436 Co434 2.091 . S
O436 C442 1.261 . S
C437 O446 1.247 . S
C437 O447 1.272 . S
O438 Co434 2.004 . S
O438 C443 1.259 . S
Co439 O440 2.061 . S
Co439 O445 2.052 . S
Co439 O447 2.135 . S
O440 Co439 2.061 . S
O440 C443 1.235 . S
C441 O444 1.238 . S
C441 O445 1.241 . S
C442 O435 1.247 . S
C442 O436 1.261 . S
C443 O438 1.259 . S
C443 O440 1.235 . S
O444 Co434 2.021 . S
O444 C441 1.238 . S
O445 Co439 2.052 . S
O445 C441 1.241 . S
O446 Co434 2.137 . S
O446 C437 1.247 . S
O447 Co434 2.244 . S
O447 C437 1.272 . S
O447 Co439 2.135 . S
H448 C466 0.951 . S
H449 C468 0.951 . S
H450 C470 0.950 . S
H451 C471 0.950 . S
H452 C473 0.950 . S
H453 C476 0.950 1_655 S
H454 C477 0.950 . S
H455 C479 0.950 . S
H456 C480 0.950 . S
H457 C481 0.951 . S
H458 C483 0.951 . S
H459 C485 0.950 . S
H460 C486 0.950 . S
H461 C488 0.950 . S
H462 C491 0.950 1_455 S
H463 C492 0.950 . S
H464 C494 0.950 . S
H465 C495 0.950 . S
C466 H448 0.951 . S
C466 C467 1.366 . S
C466 C468 1.388 . S
C467 C466 1.366 . S
C467 C471 1.385 . S
C468 H449 0.951 . S
C468 C466 1.388 . S
C468 C469 1.366 . S
C469 C468 1.366 . S
C469 C470 1.414 . S
C469 C472 1.499 . S
C470 H450 0.950 . S
C470 C469 1.414 . S
C470 C471 1.374 . S
C471 H451 0.950 . S
C471 C467 1.385 . S
C471 C470 1.374 . S
C472 C469 1.499 . S
C472 C473 1.373 1_556 S
C472 C474 1.389 1_655 S
C473 H452 0.950 . S
C473 C472 1.373 1_554 S
C473 C489 1.377 . S
C474 C472 1.389 1_455 S
C474 C475 1.524 . S
C474 C488 1.377 . S
C475 C474 1.524 . S
C475 C476 1.397 . S
C475 C480 1.363 . S
C476 H453 0.950 1_455 S
C476 C475 1.397 . S
C476 C477 1.334 . S
C477 H454 0.950 . S
C477 C476 1.334 . S
C477 C478 1.287 . S
C478 C477 1.287 . S
C478 C479 1.524 . S
C478 H497 0.913 . S
C479 H455 0.950 . S
C479 C478 1.524 . S
C479 C480 1.415 . S
C480 H456 0.950 . S
C480 C475 1.363 . S
C480 C479 1.415 . S
C481 H457 0.951 . S
C481 C482 1.366 . S
C481 C483 1.388 . S
C482 C481 1.366 . S
C482 C486 1.385 . S
C483 H458 0.951 . S
C483 C481 1.388 . S
C483 C484 1.366 . S
C484 C483 1.366 . S
C484 C485 1.414 . S
C484 C487 1.499 . S
C485 H459 0.950 . S
C485 C484 1.414 . S
C485 C486 1.374 . S
C486 H460 0.950 . S
C486 C482 1.385 . S
C486 C485 1.374 . S
C487 C484 1.499 . S
C487 C488 1.373 1_554 S
C487 C489 1.389 1_455 S
C488 H461 0.950 . S
C488 C474 1.377 . S
C488 C487 1.373 1_556 S
C489 C473 1.377 . S
C489 C487 1.389 1_655 S
C489 C490 1.524 . S
C490 C489 1.524 . S
C490 C491 1.397 . S
C490 C495 1.363 . S
C491 H462 0.950 1_655 S
C491 C490 1.397 . S
C491 C492 1.334 . S
C492 H463 0.950 . S
C492 C491 1.334 . S
C492 C493 1.287 . S
C493 C492 1.287 . S
C493 C494 1.524 . S
C493 H496 0.999 . S
C494 H464 0.950 . S
C494 C493 1.524 . S
C494 C495 1.415 . S
C495 H465 0.950 . S
C495 C490 1.363 . S
C495 C494 1.415 . S
H496 C493 0.999 . S
H497 C478 0.913 . S
H498 C516 0.951 . S
H499 C518 0.951 . S
H500 C520 0.950 . S
H501 C521 0.950 . S
H502 C523 0.950 . S
H503 C526 0.950 . S
H504 C527 0.950 . S
H505 C529 0.950 . S
H506 C530 0.950 . S
H507 C531 0.951 . S
H508 C533 0.951 . S
H509 C535 0.950 . S
H510 C536 0.950 . S
H511 C538 0.950 . S
H512 C541 0.950 . S
H513 C542 0.950 . S
H514 C544 0.950 . S
H515 C545 0.950 . S
C516 H498 0.951 . S
C516 C517 1.366 . S
C516 C518 1.388 . S
C517 C516 1.366 . S
C517 C521 1.385 . S
C518 H499 0.951 . S
C518 C516 1.388 . S
C518 C519 1.366 . S
C519 C518 1.366 . S
C519 C520 1.414 . S
C519 C522 1.499 . S
C520 H500 0.950 . S
C520 C519 1.414 . S
C520 C521 1.374 . S
C521 H501 0.950 . S
C521 C517 1.385 . S
C521 C520 1.374 . S
C522 C519 1.499 . S
C522 C523 1.373 . S
C522 C524 1.389 . S
C523 H502 0.950 . S
C523 C522 1.373 . S
C523 C539 1.377 . S
C524 C522 1.389 . S
C524 C525 1.524 . S
C524 C538 1.377 . S
C525 C524 1.524 . S
C525 C526 1.397 . S
C525 C530 1.363 . S
C526 H503 0.950 . S
C526 C525 1.397 . S
C526 C527 1.334 . S
C527 H504 0.950 . S
C527 C526 1.334 . S
C527 C528 1.287 . S
C528 C527 1.287 . S
C528 C529 1.524 . S
C528 H547 0.913 . S
C529 H505 0.950 . S
C529 C528 1.524 . S
C529 C530 1.415 . S
C530 H506 0.950 . S
C530 C525 1.363 . S
C530 C529 1.415 . S
C531 H507 0.951 . S
C531 C532 1.366 . S
C531 C533 1.388 . S
C532 C531 1.366 . S
C532 C536 1.385 . S
C533 H508 0.951 . S
C533 C531 1.388 . S
C533 C534 1.366 . S
C534 C533 1.366 . S
C534 C535 1.414 . S
C534 C537 1.499 . S
C535 H509 0.950 . S
C535 C534 1.414 . S
C535 C536 1.374 . S
C536 H510 0.950 . S
C536 C532 1.385 . S
C536 C535 1.374 . S
C537 C534 1.499 . S
C537 C538 1.373 . S
C537 C539 1.389 . S
C538 H511 0.950 . S
C538 C524 1.377 . S
C538 C537 1.373 . S
C539 C523 1.377 . S
C539 C537 1.389 . S
C539 C540 1.524 . S
C540 C539 1.524 . S
C540 C541 1.397 . S
C540 C545 1.363 . S
C541 H512 0.950 . S
C541 C540 1.397 . S
C541 C542 1.334 . S
C542 H513 0.950 . S
C542 C541 1.334 . S
C542 C543 1.287 . S
C543 C542 1.287 . S
C543 C544 1.524 . S
C543 H546 0.999 . S
C544 H514 0.950 . S
C544 C543 1.524 . S
C544 C545 1.415 . S
C545 H515 0.950 . S
C545 C540 1.363 . S
C545 C544 1.415 . S
H546 C543 0.999 . S
H547 C528 0.913 . S
H548 C566 0.951 . S
H549 C568 0.951 . S
H550 C570 0.950 . S
H551 C571 0.950 . S
H552 C573 0.950 . S
H553 C576 0.950 . S
H554 C577 0.950 . S
H555 C579 0.950 . S
H556 C580 0.950 . S
H557 C581 0.951 . S
H558 C583 0.951 . S
H559 C585 0.950 . S
H560 C586 0.950 . S
H561 C588 0.950 . S
H562 C591 0.950 . S
H563 C592 0.950 . S
H564 C594 0.950 . S
H565 C595 0.950 . S
C566 H548 0.951 . S
C566 C567 1.366 . S
C566 C568 1.388 . S
C567 C566 1.366 . S
C567 C571 1.385 . S
C568 H549 0.951 . S
C568 C566 1.388 . S
C568 C569 1.366 . S
C569 C568 1.366 . S
C569 C570 1.414 . S
C569 C572 1.499 . S
C570 H550 0.950 . S
C570 C569 1.414 . S
C570 C571 1.374 . S
C571 H551 0.950 . S
C571 C567 1.385 . S
C571 C570 1.374 . S
C572 C569 1.499 . S
C572 C573 1.373 . S
C572 C574 1.389 . S
C573 H552 0.950 . S
C573 C572 1.373 . S
C573 C589 1.377 . S
C574 C572 1.389 . S
C574 C575 1.524 . S
C574 C588 1.377 . S
C575 C574 1.524 . S
C575 C576 1.397 . S
C575 C580 1.363 . S
C576 H553 0.950 . S
C576 C575 1.397 . S
C576 C577 1.334 . S
C577 H554 0.950 . S
C577 C576 1.334 . S
C577 C578 1.287 . S
C578 C577 1.287 . S
C578 C579 1.524 . S
C578 H597 0.913 . S
C579 H555 0.950 . S
C579 C578 1.524 . S
C579 C580 1.415 . S
C580 H556 0.950 . S
C580 C575 1.363 . S
C580 C579 1.415 . S
C581 H557 0.951 . S
C581 C582 1.366 . S
C581 C583 1.388 . S
C582 C581 1.366 . S
C582 C586 1.385 . S
C583 H558 0.951 . S
C583 C581 1.388 . S
C583 C584 1.366 . S
C584 C583 1.366 . S
C584 C585 1.414 . S
C584 C587 1.499 . S
C585 H559 0.950 . S
C585 C584 1.414 . S
C585 C586 1.374 . S
C586 H560 0.950 . S
C586 C582 1.385 . S
C586 C585 1.374 . S
C587 C584 1.499 . S
C587 C588 1.373 . S
C587 C589 1.389 . S
C588 H561 0.950 . S
C588 C574 1.377 . S
C588 C587 1.373 . S
C589 C573 1.377 . S
C589 C587 1.389 . S
C589 C590 1.524 . S
C590 C589 1.524 . S
C590 C591 1.397 . S
C590 C595 1.363 . S
C591 H562 0.950 . S
C591 C590 1.397 . S
C591 C592 1.334 . S
C592 H563 0.950 . S
C592 C591 1.334 . S
C592 C593 1.287 . S
C593 C592 1.287 . S
C593 C594 1.524 . S
C593 H596 0.999 . S
C594 H564 0.950 . S
C594 C593 1.524 . S
C594 C595 1.415 . S
C595 H565 0.950 . S
C595 C590 1.363 . S
C595 C594 1.415 . S
H596 C593 0.999 . S
H597 C578 0.913 . S
H598 C616 0.951 . S
H599 C618 0.951 . S
H600 C620 0.950 . S
H601 C621 0.950 . S
H602 C623 0.950 . S
H603 C626 0.950 . S
H604 C627 0.950 . S
H605 C629 0.950 . S
H606 C630 0.950 . S
H607 C631 0.951 . S
H608 C633 0.951 . S
H609 C635 0.950 . S
H610 C636 0.950 . S
H611 C638 0.950 . S
H612 C641 0.950 . S
H613 C642 0.950 . S
H614 C644 0.950 . S
H615 C645 0.950 . S
C616 H598 0.951 . S
C616 C617 1.366 . S
C616 C618 1.388 . S
C617 C616 1.366 . S
C617 C621 1.385 . S
C618 H599 0.951 . S
C618 C616 1.388 . S
C618 C619 1.366 . S
C619 C618 1.366 . S
C619 C620 1.414 . S
C619 C622 1.499 . S
C620 H600 0.950 . S
C620 C619 1.414 . S
C620 C621 1.374 . S
C621 H601 0.950 . S
C621 C617 1.385 . S
C621 C620 1.374 . S
C622 C619 1.499 . S
C622 C623 1.373 . S
C622 C624 1.389 . S
C623 H602 0.950 . S
C623 C622 1.373 . S
C623 C639 1.377 . S
C624 C622 1.389 . S
C624 C625 1.524 . S
C624 C638 1.377 . S
C625 C624 1.524 . S
C625 C626 1.397 . S
C625 C630 1.363 . S
C626 H603 0.950 . S
C626 C625 1.397 . S
C626 C627 1.334 . S
C627 H604 0.950 . S
C627 C626 1.334 . S
C627 C628 1.287 . S
C628 C627 1.287 . S
C628 C629 1.524 . S
C628 H647 0.913 . S
C629 H605 0.950 . S
C629 C628 1.524 . S
C629 C630 1.415 . S
C630 H606 0.950 . S
C630 C625 1.363 . S
C630 C629 1.415 . S
C631 H607 0.951 . S
C631 C632 1.366 . S
C631 C633 1.388 . S
C632 C631 1.366 . S
C632 C636 1.385 . S
C633 H608 0.951 . S
C633 C631 1.388 . S
C633 C634 1.366 . S
C634 C633 1.366 . S
C634 C635 1.414 . S
C634 C637 1.499 . S
C635 H609 0.950 . S
C635 C634 1.414 . S
C635 C636 1.374 . S
C636 H610 0.950 . S
C636 C632 1.385 . S
C636 C635 1.374 . S
C637 C634 1.499 . S
C637 C638 1.373 . S
C637 C639 1.389 . S
C638 H611 0.950 . S
C638 C624 1.377 . S
C638 C637 1.373 . S
C639 C623 1.377 . S
C639 C637 1.389 . S
C639 C640 1.524 . S
C640 C639 1.524 . S
C640 C641 1.397 . S
C640 C645 1.363 . S
C641 H612 0.950 . S
C641 C640 1.397 . S
C641 C642 1.334 . S
C642 H613 0.950 . S
C642 C641 1.334 . S
C642 C643 1.287 . S
C643 C642 1.287 . S
C643 C644 1.524 . S
C643 H646 0.999 . S
C644 H614 0.950 . S
C644 C643 1.524 . S
C644 C645 1.415 . S
C645 H615 0.950 . S
C645 C640 1.363 . S
C645 C644 1.415 . S
H646 C643 0.999 . S
H647 C628 0.913 . S
H648 C666 0.951 . S
H649 C668 0.951 . S
H650 C670 0.950 . S
H651 C671 0.950 . S
H652 C673 0.950 . S
H653 C676 0.950 . S
H654 C677 0.950 . S
H655 C679 0.950 . S
H656 C680 0.950 . S
H657 C681 0.951 . S
H658 C683 0.951 . S
H659 C685 0.950 . S
H660 C686 0.950 . S
H661 C688 0.950 . S
H662 C691 0.950 . S
H663 C692 0.950 . S
H664 C694 0.950 . S
H665 C695 0.950 . S
C666 H648 0.951 . S
C666 C667 1.366 . S
C666 C668 1.388 . S
C667 C666 1.366 . S
C667 C671 1.385 . S
C668 H649 0.951 . S
C668 C666 1.388 . S
C668 C669 1.366 . S
C669 C668 1.366 . S
C669 C670 1.414 . S
C669 C672 1.499 . S
C670 H650 0.950 . S
C670 C669 1.414 . S
C670 C671 1.374 . S
C671 H651 0.950 . S
C671 C667 1.385 . S
C671 C670 1.374 . S
C672 C669 1.499 . S
C672 C673 1.373 1_655 S
C672 C674 1.389 . S
C673 H652 0.950 . S
C673 C672 1.373 1_455 S
C673 C689 1.377 . S
C674 C672 1.389 . S
C674 C675 1.524 . S
C674 C688 1.377 . S
C675 C674 1.524 . S
C675 C676 1.397 . S
C675 C680 1.363 . S
C676 H653 0.950 . S
C676 C675 1.397 . S
C676 C677 1.334 . S
C677 H654 0.950 . S
C677 C676 1.334 . S
C677 C678 1.287 . S
C678 C677 1.287 . S
C678 C679 1.524 . S
C678 H697 0.913 . S
C679 H655 0.950 . S
C679 C678 1.524 . S
C679 C680 1.415 . S
C680 H656 0.950 . S
C680 C675 1.363 . S
C680 C679 1.415 . S
C681 H657 0.951 . S
C681 C682 1.366 . S
C681 C683 1.388 . S
C682 C681 1.366 . S
C682 C686 1.385 . S
C683 H658 0.951 . S
C683 C681 1.388 . S
C683 C684 1.366 . S
C684 C683 1.366 . S
C684 C685 1.414 . S
C684 C687 1.499 . S
C685 H659 0.950 . S
C685 C684 1.414 . S
C685 C686 1.374 . S
C686 H660 0.950 . S
C686 C682 1.385 . S
C686 C685 1.374 . S
C687 C684 1.499 . S
C687 C688 1.373 1_455 S
C687 C689 1.389 . S
C688 H661 0.950 . S
C688 C674 1.377 . S
C688 C687 1.373 1_655 S
C689 C673 1.377 . S
C689 C687 1.389 . S
C689 C690 1.524 . S
C690 C689 1.524 . S
C690 C691 1.397 . S
C690 C695 1.363 . S
C691 H662 0.950 . S
C691 C690 1.397 . S
C691 C692 1.334 . S
C692 H663 0.950 . S
C692 C691 1.334 . S
C692 C693 1.287 . S
C693 C692 1.287 . S
C693 C694 1.524 . S
C693 H696 0.999 . S
C694 H664 0.950 . S
C694 C693 1.524 . S
C694 C695 1.415 . S
C695 H665 0.950 . S
C695 C690 1.363 . S
C695 C694 1.415 . S
H696 C693 0.999 . S
H697 C678 0.913 . S
H698 C716 0.951 . S
H699 C718 0.951 . S
H700 C720 0.950 . S
H701 C721 0.950 . S
H702 C723 0.950 . S
H703 C726 0.950 . S
H704 C727 0.950 . S
H705 C729 0.950 . S
H706 C730 0.950 . S
H707 C731 0.951 . S
H708 C733 0.951 . S
H709 C735 0.950 . S
H710 C736 0.950 . S
H711 C738 0.950 . S
H712 C741 0.950 . S
H713 C742 0.950 . S
H714 C744 0.950 . S
H715 C745 0.950 . S
C716 H698 0.951 . S
C716 C717 1.366 . S
C716 C718 1.388 . S
C717 C716 1.366 . S
C717 C721 1.385 . S
C718 H699 0.951 . S
C718 C716 1.388 . S
C718 C719 1.366 . S
C719 C718 1.366 . S
C719 C720 1.414 . S
C719 C722 1.499 . S
C720 H700 0.950 . S
C720 C719 1.414 . S
C720 C721 1.374 . S
C721 H701 0.950 . S
C721 C717 1.385 . S
C721 C720 1.374 . S
C722 C719 1.499 . S
C722 C723 1.373 . S
C722 C724 1.389 . S
C723 H702 0.950 . S
C723 C722 1.373 . S
C723 C739 1.377 . S
C724 C722 1.389 . S
C724 C725 1.524 . S
C724 C738 1.377 . S
C725 C724 1.524 . S
C725 C726 1.397 . S
C725 C730 1.363 . S
C726 H703 0.950 . S
C726 C725 1.397 . S
C726 C727 1.334 . S
C727 H704 0.950 . S
C727 C726 1.334 . S
C727 C728 1.287 . S
C728 C727 1.287 . S
C728 C729 1.524 . S
C728 H747 0.913 . S
C729 H705 0.950 . S
C729 C728 1.524 . S
C729 C730 1.415 . S
C730 H706 0.950 . S
C730 C725 1.363 . S
C730 C729 1.415 . S
C731 H707 0.951 . S
C731 C732 1.366 . S
C731 C733 1.388 . S
C732 C731 1.366 . S
C732 C736 1.385 . S
C733 H708 0.951 . S
C733 C731 1.388 . S
C733 C734 1.366 . S
C734 C733 1.366 . S
C734 C735 1.414 . S
C734 C737 1.499 . S
C735 H709 0.950 . S
C735 C734 1.414 . S
C735 C736 1.374 . S
C736 H710 0.950 . S
C736 C732 1.385 . S
C736 C735 1.374 . S
C737 C734 1.499 . S
C737 C738 1.373 . S
C737 C739 1.389 . S
C738 H711 0.950 . S
C738 C724 1.377 . S
C738 C737 1.373 . S
C739 C723 1.377 . S
C739 C737 1.389 . S
C739 C740 1.524 . S
C740 C739 1.524 . S
C740 C741 1.397 . S
C740 C745 1.363 . S
C741 H712 0.950 . S
C741 C740 1.397 . S
C741 C742 1.334 . S
C742 H713 0.950 . S
C742 C741 1.334 . S
C742 C743 1.287 . S
C743 C742 1.287 . S
C743 C744 1.524 . S
C743 H746 0.999 . S
C744 H714 0.950 . S
C744 C743 1.524 . S
C744 C745 1.415 . S
C745 H715 0.950 . S
C745 C740 1.363 . S
C745 C744 1.415 . S
H746 C743 0.999 . S
H747 C728 0.913 . S
H748 C766 0.951 . S
H749 C768 0.951 1_554 S
H750 C770 0.950 . S
H751 C771 0.950 . S
H752 C773 0.950 . S
H753 C776 0.950 1_556 S
H754 C777 0.950 . S
H755 C779 0.950 . S
H756 C780 0.950 . S
H757 C781 0.951 . S
H758 C783 0.951 1_556 S
H759 C785 0.950 . S
H760 C786 0.950 . S
H761 C788 0.950 . S
H762 C791 0.950 1_554 S
H763 C792 0.950 . S
H764 C794 0.950 . S
H765 C795 0.950 . S
C766 H748 0.951 . S
C766 C767 1.366 . S
C766 C768 1.388 . S
C767 C766 1.366 . S
C767 C771 1.385 . S
C768 H749 0.951 1_556 S
C768 C766 1.388 . S
C768 C769 1.366 . S
C769 C768 1.366 . S
C769 C770 1.414 . S
C769 C772 1.499 . S
C770 H750 0.950 . S
C770 C769 1.414 . S
C770 C771 1.374 . S
C771 H751 0.950 . S
C771 C767 1.385 . S
C771 C770 1.374 . S
C772 C769 1.499 . S
C772 C773 1.373 . S
C772 C774 1.389 1_556 S
C773 H752 0.950 . S
C773 C772 1.373 . S
C773 C789 1.377 . S
C774 C772 1.389 1_554 S
C774 C775 1.524 . S
C774 C788 1.377 . S
C775 C774 1.524 . S
C775 C776 1.397 . S
C775 C780 1.363 . S
C776 H753 0.950 1_554 S
C776 C775 1.397 . S
C776 C777 1.334 . S
C777 H754 0.950 . S
C777 C776 1.334 . S
C777 C778 1.287 . S
C778 C777 1.287 . S
C778 C779 1.524 . S
C778 H797 0.913 . S
C779 H755 0.950 . S
C779 C778 1.524 . S
C779 C780 1.415 . S
C780 H756 0.950 . S
C780 C775 1.363 . S
C780 C779 1.415 . S
C781 H757 0.951 . S
C781 C782 1.366 . S
C781 C783 1.388 . S
C782 C781 1.366 . S
C782 C786 1.385 . S
C783 H758 0.951 1_554 S
C783 C781 1.388 . S
C783 C784 1.366 . S
C784 C783 1.366 . S
C784 C785 1.414 . S
C784 C787 1.499 . S
C785 H759 0.950 . S
C785 C784 1.414 . S
C785 C786 1.374 . S
C786 H760 0.950 . S
C786 C782 1.385 . S
C786 C785 1.374 . S
C787 C784 1.499 . S
C787 C788 1.373 . S
C787 C789 1.389 1_554 S
C788 H761 0.950 . S
C788 C774 1.377 . S
C788 C787 1.373 . S
C789 C773 1.377 . S
C789 C787 1.389 1_556 S
C789 C790 1.524 . S
C790 C789 1.524 . S
C790 C791 1.397 . S
C790 C795 1.363 . S
C791 H762 0.950 1_556 S
C791 C790 1.397 . S
C791 C792 1.334 . S
C792 H763 0.950 . S
C792 C791 1.334 . S
C792 C793 1.287 . S
C793 C792 1.287 . S
C793 C794 1.524 . S
C793 H796 0.999 . S
C794 H764 0.950 . S
C794 C793 1.524 . S
C794 C795 1.415 . S
C795 H765 0.950 . S
C795 C790 1.363 . S
C795 C794 1.415 . S
H796 C793 0.999 . S
H797 C778 0.913 . S
H798 C816 0.951 . S
H799 C818 0.951 . S
H800 C820 0.950 . S
H801 C821 0.950 . S
H802 C823 0.950 . S
H803 C826 0.950 . S
H804 C827 0.950 . S
H805 C829 0.950 . S
H806 C830 0.950 . S
H807 C831 0.951 . S
H808 C833 0.951 . S
H809 C835 0.950 . S
H810 C836 0.950 . S
H811 C838 0.950 . S
H812 C841 0.950 . S
H813 C842 0.950 . S
H814 C844 0.950 . S
H815 C845 0.950 . S
C816 H798 0.951 . S
C816 C817 1.366 . S
C816 C818 1.388 . S
C817 C816 1.366 . S
C817 C821 1.385 . S
C818 H799 0.951 . S
C818 C816 1.388 . S
C818 C819 1.366 . S
C819 C818 1.366 . S
C819 C820 1.414 . S
C819 C822 1.499 . S
C820 H800 0.950 . S
C820 C819 1.414 . S
C820 C821 1.374 . S
C821 H801 0.950 . S
C821 C817 1.385 . S
C821 C820 1.374 . S
C822 C819 1.499 . S
C822 C823 1.373 . S
C822 C824 1.389 . S
C823 H802 0.950 . S
C823 C822 1.373 . S
C823 C839 1.377 . S
C824 C822 1.389 . S
C824 C825 1.524 . S
C824 C838 1.377 . S
C825 C824 1.524 . S
C825 C826 1.397 . S
C825 C830 1.363 . S
C826 H803 0.950 . S
C826 C825 1.397 . S
C826 C827 1.334 . S
C827 H804 0.950 . S
C827 C826 1.334 . S
C827 C828 1.287 . S
C828 C827 1.287 . S
C828 C829 1.524 . S
C828 H847 0.913 . S
C829 H805 0.950 . S
C829 C828 1.524 . S
C829 C830 1.415 . S
C830 H806 0.950 . S
C830 C825 1.363 . S
C830 C829 1.415 . S
C831 H807 0.951 . S
C831 C832 1.366 . S
C831 C833 1.388 . S
C832 C831 1.366 . S
C832 C836 1.385 . S
C833 H808 0.951 . S
C833 C831 1.388 . S
C833 C834 1.366 . S
C834 C833 1.366 . S
C834 C835 1.414 . S
C834 C837 1.499 . S
C835 H809 0.950 . S
C835 C834 1.414 . S
C835 C836 1.374 . S
C836 H810 0.950 . S
C836 C832 1.385 . S
C836 C835 1.374 . S
C837 C834 1.499 . S
C837 C838 1.373 . S
C837 C839 1.389 . S
C838 H811 0.950 . S
C838 C824 1.377 . S
C838 C837 1.373 . S
C839 C823 1.377 . S
C839 C837 1.389 . S
C839 C840 1.524 . S
C840 C839 1.524 . S
C840 C841 1.397 . S
C840 C845 1.363 . S
C841 H812 0.950 . S
C841 C840 1.397 . S
C841 C842 1.334 . S
C842 H813 0.950 . S
C842 C841 1.334 . S
C842 C843 1.287 . S
C843 C842 1.287 . S
C843 C844 1.524 . S
C843 H846 0.999 . S
C844 H814 0.950 . S
C844 C843 1.524 . S
C844 C845 1.415 . S
C845 H815 0.950 . S
C845 C840 1.363 . S
C845 C844 1.415 . S
H846 C843 0.999 . S
H847 C828 0.913 . S
H848 C866 0.951 . S
H849 C868 0.951 . S
H850 C870 0.950 . S
H851 C871 0.950 . S
H852 C873 0.950 . S
H853 C876 0.950 . S
H854 C877 0.950 . S
H855 C879 0.950 . S
H856 C880 0.950 . S
H857 C881 0.951 . S
H858 C883 0.951 . S
H859 C885 0.950 . S
H860 C886 0.950 . S
H861 C888 0.950 . S
H862 C891 0.950 . S
H863 C892 0.950 . S
H864 C894 0.950 . S
H865 C895 0.950 . S
C866 H848 0.951 . S
C866 C867 1.366 . S
C866 C868 1.388 . S
C867 C866 1.366 . S
C867 C871 1.385 . S
C868 H849 0.951 . S
C868 C866 1.388 . S
C868 C869 1.366 . S
C869 C868 1.366 . S
C869 C870 1.414 . S
C869 C872 1.499 . S
C870 H850 0.950 . S
C870 C869 1.414 . S
C870 C871 1.374 . S
C871 H851 0.950 . S
C871 C867 1.385 . S
C871 C870 1.374 . S
C872 C869 1.499 . S
C872 C873 1.373 . S
C872 C874 1.389 . S
C873 H852 0.950 . S
C873 C872 1.373 . S
C873 C889 1.377 . S
C874 C872 1.389 . S
C874 C875 1.524 . S
C874 C888 1.377 . S
C875 C874 1.524 . S
C875 C876 1.397 . S
C875 C880 1.363 . S
C876 H853 0.950 . S
C876 C875 1.397 . S
C876 C877 1.334 . S
C877 H854 0.950 . S
C877 C876 1.334 . S
C877 C878 1.287 . S
C878 C877 1.287 . S
C878 C879 1.524 . S
C878 H897 0.913 . S
C879 H855 0.950 . S
C879 C878 1.524 . S
C879 C880 1.415 . S
C880 H856 0.950 . S
C880 C875 1.363 . S
C880 C879 1.415 . S
C881 H857 0.951 . S
C881 C882 1.366 . S
C881 C883 1.388 . S
C882 C881 1.366 . S
C882 C886 1.385 . S
C883 H858 0.951 . S
C883 C881 1.388 . S
C883 C884 1.366 . S
C884 C883 1.366 . S
C884 C885 1.414 . S
C884 C887 1.499 . S
C885 H859 0.950 . S
C885 C884 1.414 . S
C885 C886 1.374 . S
C886 H860 0.950 . S
C886 C882 1.385 . S
C886 C885 1.374 . S
C887 C884 1.499 . S
C887 C888 1.373 . S
C887 C889 1.389 . S
C888 H861 0.950 . S
C888 C874 1.377 . S
C888 C887 1.373 . S
C889 C873 1.377 . S
C889 C887 1.389 . S
C889 C890 1.524 . S
C890 C889 1.524 . S
C890 C891 1.397 . S
C890 C895 1.363 . S
C891 H862 0.950 . S
C891 C890 1.397 . S
C891 C892 1.334 . S
C892 H863 0.950 . S
C892 C891 1.334 . S
C892 C893 1.287 . S
C893 C892 1.287 . S
C893 C894 1.524 . S
C893 H896 0.999 . S
C894 H864 0.950 . S
C894 C893 1.524 . S
C894 C895 1.415 . S
C895 H865 0.950 . S
C895 C890 1.363 . S
C895 C894 1.415 . S
H896 C893 0.999 . S
H897 C878 0.913 . S
H898 C916 0.951 . S
H899 C918 0.951 . S
H900 C920 0.950 . S
H901 C921 0.950 . S
H902 C923 0.950 . S
H903 C926 0.950 . S
H904 C927 0.950 . S
H905 C929 0.950 . S
H906 C930 0.950 . S
H907 C931 0.951 . S
H908 C933 0.951 . S
H909 C935 0.950 . S
H910 C936 0.950 . S
H911 C938 0.950 . S
H912 C941 0.950 . S
H913 C942 0.950 . S
H914 C944 0.950 . S
H915 C945 0.950 . S
C916 H898 0.951 . S
C916 C917 1.366 . S
C916 C918 1.388 . S
C917 C916 1.366 . S
C917 C921 1.385 . S
C918 H899 0.951 . S
C918 C916 1.388 . S
C918 C919 1.366 . S
C919 C918 1.366 . S
C919 C920 1.414 . S
C919 C922 1.499 . S
C920 H900 0.950 . S
C920 C919 1.414 . S
C920 C921 1.374 . S
C921 H901 0.950 . S
C921 C917 1.385 . S
C921 C920 1.374 . S
C922 C919 1.499 . S
C922 C923 1.373 . S
C922 C924 1.389 . S
C923 H902 0.950 . S
C923 C922 1.373 . S
C923 C939 1.377 . S
C924 C922 1.389 . S
C924 C925 1.524 . S
C924 C938 1.377 . S
C925 C924 1.524 . S
C925 C926 1.397 . S
C925 C930 1.363 . S
C926 H903 0.950 . S
C926 C925 1.397 . S
C926 C927 1.334 . S
C927 H904 0.950 . S
C927 C926 1.334 . S
C927 C928 1.287 . S
C928 C927 1.287 . S
C928 C929 1.524 . S
C928 H947 0.913 . S
C929 H905 0.950 . S
C929 C928 1.524 . S
C929 C930 1.415 . S
C930 H906 0.950 . S
C930 C925 1.363 . S
C930 C929 1.415 . S
C931 H907 0.951 . S
C931 C932 1.366 . S
C931 C933 1.388 . S
C932 C931 1.366 . S
C932 C936 1.385 . S
C933 H908 0.951 . S
C933 C931 1.388 . S
C933 C934 1.366 . S
C934 C933 1.366 . S
C934 C935 1.414 . S
C934 C937 1.499 . S
C935 H909 0.950 . S
C935 C934 1.414 . S
C935 C936 1.374 . S
C936 H910 0.950 . S
C936 C932 1.385 . S
C936 C935 1.374 . S
C937 C934 1.499 . S
C937 C938 1.373 . S
C937 C939 1.389 . S
C938 H911 0.950 . S
C938 C924 1.377 . S
C938 C937 1.373 . S
C939 C923 1.377 . S
C939 C937 1.389 . S
C939 C940 1.524 . S
C940 C939 1.524 . S
C940 C941 1.397 . S
C940 C945 1.363 . S
C941 H912 0.950 . S
C941 C940 1.397 . S
C941 C942 1.334 . S
C942 H913 0.950 . S
C942 C941 1.334 . S
C942 C943 1.287 . S
C943 C942 1.287 . S
C943 C944 1.524 . S
C943 H946 0.999 . S
C944 H914 0.950 . S
C944 C943 1.524 . S
C944 C945 1.415 . S
C945 H915 0.950 . S
C945 C940 1.363 . S
C945 C944 1.415 . S
H946 C943 0.999 . S
H947 C928 0.913 . S
H948 C966 0.951 . S
H949 C968 0.951 . S
H950 C970 0.950 . S
H951 C971 0.950 . S
H952 C973 0.950 . S
H953 C976 0.950 . S
H954 C977 0.950 . S
H955 C979 0.950 . S
H956 C980 0.950 . S
H957 C981 0.951 . S
H958 C983 0.951 . S
H959 C985 0.950 . S
H960 C986 0.950 . S
H961 C988 0.950 . S
H962 C991 0.950 . S
H963 C992 0.950 . S
H964 C994 0.950 . S
H965 C995 0.950 . S
C966 H948 0.951 . S
C966 C967 1.366 . S
C966 C968 1.388 . S
C967 C966 1.366 . S
C967 C971 1.385 . S
C968 H949 0.951 . S
C968 C966 1.388 . S
C968 C969 1.366 . S
C969 C968 1.366 . S
C969 C970 1.414 . S
C969 C972 1.499 . S
C970 H950 0.950 . S
C970 C969 1.414 . S
C970 C971 1.374 . S
C971 H951 0.950 . S
C971 C967 1.385 . S
C971 C970 1.374 . S
C972 C969 1.499 . S
C972 C973 1.373 . S
C972 C974 1.389 . S
C973 H952 0.950 . S
C973 C972 1.373 . S
C973 C989 1.377 . S
C974 C972 1.389 . S
C974 C975 1.524 . S
C974 C988 1.377 . S
C975 C974 1.524 . S
C975 C976 1.397 . S
C975 C980 1.363 . S
C976 H953 0.950 . S
C976 C975 1.397 . S
C976 C977 1.334 . S
C977 H954 0.950 . S
C977 C976 1.334 . S
C977 C978 1.287 . S
C978 C977 1.287 . S
C978 C979 1.524 . S
C978 H997 0.913 . S
C979 H955 0.950 . S
C979 C978 1.524 . S
C979 C980 1.415 . S
C980 H956 0.950 . S
C980 C975 1.363 . S
C980 C979 1.415 . S
C981 H957 0.951 . S
C981 C982 1.366 . S
C981 C983 1.388 . S
C982 C981 1.366 . S
C982 C986 1.385 . S
C983 H958 0.951 . S
C983 C981 1.388 . S
C983 C984 1.366 . S
C984 C983 1.366 . S
C984 C985 1.414 . S
C984 C987 1.499 . S
C985 H959 0.950 . S
C985 C984 1.414 . S
C985 C986 1.374 . S
C986 H960 0.950 . S
C986 C982 1.385 . S
C986 C985 1.374 . S
C987 C984 1.499 . S
C987 C988 1.373 . S
C987 C989 1.389 . S
C988 H961 0.950 . S
C988 C974 1.377 . S
C988 C987 1.373 . S
C989 C973 1.377 . S
C989 C987 1.389 . S
C989 C990 1.524 . S
C990 C989 1.524 . S
C990 C991 1.397 . S
C990 C995 1.363 . S
C991 H962 0.950 . S
C991 C990 1.397 . S
C991 C992 1.334 . S
C992 H963 0.950 . S
C992 C991 1.334 . S
C992 C993 1.287 . S
C993 C992 1.287 . S
C993 C994 1.524 . S
C993 H996 0.999 . S
C994 H964 0.950 . S
C994 C993 1.524 . S
C994 C995 1.415 . S
C995 H965 0.950 . S
C995 C990 1.363 . S
C995 C994 1.415 . S
H996 C993 0.999 . S
H997 C978 0.913 . S
H998 C1016 0.951 . S
H999 C1018 0.951 . S
H1000 C1020 0.950 . S
H1001 C1021 0.950 . S
H1002 C1023 0.950 . S
H1003 C1026 0.950 . S
H1004 C1027 0.950 . S
H1005 C1029 0.950 . S
H1006 C1030 0.950 . S
H1007 C1031 0.951 . S
H1008 C1033 0.951 . S
H1009 C1035 0.950 . S
H1010 C1036 0.950 . S
H1011 C1038 0.950 . S
H1012 C1041 0.950 . S
H1013 C1042 0.950 . S
H1014 C1044 0.950 . S
H1015 C1045 0.950 . S
C1016 H998 0.951 . S
C1016 C1017 1.366 . S
C1016 C1018 1.388 . S
C1017 C1016 1.366 . S
C1017 C1021 1.385 . S
C1018 H999 0.951 . S
C1018 C1016 1.388 . S
C1018 C1019 1.366 . S
C1019 C1018 1.366 . S
C1019 C1020 1.414 . S
C1019 C1022 1.499 . S
C1020 H1000 0.950 . S
C1020 C1019 1.414 . S
C1020 C1021 1.374 . S
C1021 H1001 0.950 . S
C1021 C1017 1.385 . S
C1021 C1020 1.374 . S
C1022 C1019 1.499 . S
C1022 C1023 1.373 . S
C1022 C1024 1.389 . S
C1023 H1002 0.950 . S
C1023 C1022 1.373 . S
C1023 C1039 1.377 . S
C1024 C1022 1.389 . S
C1024 C1025 1.524 . S
C1024 C1038 1.377 . S
C1025 C1024 1.524 . S
C1025 C1026 1.397 . S
C1025 C1030 1.363 . S
C1026 H1003 0.950 . S
C1026 C1025 1.397 . S
C1026 C1027 1.334 . S
C1027 H1004 0.950 . S
C1027 C1026 1.334 . S
C1027 C1028 1.287 . S
C1028 C1027 1.287 . S
C1028 C1029 1.524 . S
C1028 H1047 0.913 . S
C1029 H1005 0.950 . S
C1029 C1028 1.524 . S
C1029 C1030 1.415 . S
C1030 H1006 0.950 . S
C1030 C1025 1.363 . S
C1030 C1029 1.415 . S
C1031 H1007 0.951 . S
C1031 C1032 1.366 . S
C1031 C1033 1.388 . S
C1032 C1031 1.366 . S
C1032 C1036 1.385 . S
C1033 H1008 0.951 . S
C1033 C1031 1.388 . S
C1033 C1034 1.366 . S
C1034 C1033 1.366 . S
C1034 C1035 1.414 . S
C1034 C1037 1.499 . S
C1035 H1009 0.950 . S
C1035 C1034 1.414 . S
C1035 C1036 1.374 . S
C1036 H1010 0.950 . S
C1036 C1032 1.385 . S
C1036 C1035 1.374 . S
C1037 C1034 1.499 . S
C1037 C1038 1.373 . S
C1037 C1039 1.389 . S
C1038 H1011 0.950 . S
C1038 C1024 1.377 . S
C1038 C1037 1.373 . S
C1039 C1023 1.377 . S
C1039 C1037 1.389 . S
C1039 C1040 1.524 . S
C1040 C1039 1.524 . S
C1040 C1041 1.397 . S
C1040 C1045 1.363 . S
C1041 H1012 0.950 . S
C1041 C1040 1.397 . S
C1041 C1042 1.334 . S
C1042 H1013 0.950 . S
C1042 C1041 1.334 . S
C1042 C1043 1.287 . S
C1043 C1042 1.287 . S
C1043 C1044 1.524 . S
C1043 H1046 0.999 . S
C1044 H1014 0.950 . S
C1044 C1043 1.524 . S
C1044 C1045 1.415 . S
C1045 H1015 0.950 . S
C1045 C1040 1.363 . S
C1045 C1044 1.415 . S
H1046 C1043 0.999 . S
H1047 C1028 0.913 . S
H1048 C1066 0.951 . S
H1049 C1068 0.951 . S
H1050 C1070 0.950 . S
H1051 C1071 0.950 . S
H1052 C1073 0.950 . S
H1053 C1076 0.950 . S
H1054 C1077 0.950 . S
H1055 C1079 0.950 . S
H1056 C1080 0.950 . S
H1057 C1081 0.951 . S
H1058 C1083 0.951 . S
H1059 C1085 0.950 . S
H1060 C1086 0.950 . S
H1061 C1088 0.950 . S
H1062 C1091 0.950 . S
H1063 C1092 0.950 . S
H1064 C1094 0.950 . S
H1065 C1095 0.950 . S
C1066 H1048 0.951 . S
C1066 C1067 1.366 . S
C1066 C1068 1.388 . S
C1067 C1066 1.366 . S
C1067 C1071 1.385 . S
C1068 H1049 0.951 . S
C1068 C1066 1.388 . S
C1068 C1069 1.366 . S
C1069 C1068 1.366 . S
C1069 C1070 1.414 . S
C1069 C1072 1.499 . S
C1070 H1050 0.950 . S
C1070 C1069 1.414 . S
C1070 C1071 1.374 . S
C1071 H1051 0.950 . S
C1071 C1067 1.385 . S
C1071 C1070 1.374 . S
C1072 C1069 1.499 . S
C1072 C1073 1.373 1_565 S
C1072 C1074 1.389 . S
C1073 H1052 0.950 . S
C1073 C1072 1.373 1_545 S
C1073 C1089 1.377 . S
C1074 C1072 1.389 . S
C1074 C1075 1.524 . S
C1074 C1088 1.377 . S
C1075 C1074 1.524 . S
C1075 C1076 1.397 . S
C1075 C1080 1.363 . S
C1076 H1053 0.950 . S
C1076 C1075 1.397 . S
C1076 C1077 1.334 . S
C1077 H1054 0.950 . S
C1077 C1076 1.334 . S
C1077 C1078 1.287 . S
C1078 C1077 1.287 . S
C1078 C1079 1.524 . S
C1078 H1097 0.913 . S
C1079 H1055 0.950 . S
C1079 C1078 1.524 . S
C1079 C1080 1.415 . S
C1080 H1056 0.950 . S
C1080 C1075 1.363 . S
C1080 C1079 1.415 . S
C1081 H1057 0.951 . S
C1081 C1082 1.366 . S
C1081 C1083 1.388 . S
C1082 C1081 1.366 . S
C1082 C1086 1.385 . S
C1083 H1058 0.951 . S
C1083 C1081 1.388 . S
C1083 C1084 1.366 . S
C1084 C1083 1.366 . S
C1084 C1085 1.414 . S
C1084 C1087 1.499 . S
C1085 H1059 0.950 . S
C1085 C1084 1.414 . S
C1085 C1086 1.374 . S
C1086 H1060 0.950 . S
C1086 C1082 1.385 . S
C1086 C1085 1.374 . S
C1087 C1084 1.499 . S
C1087 C1088 1.373 1_545 S
C1087 C1089 1.389 . S
C1088 H1061 0.950 . S
C1088 C1074 1.377 . S
C1088 C1087 1.373 1_565 S
C1089 C1073 1.377 . S
C1089 C1087 1.389 . S
C1089 C1090 1.524 . S
C1090 C1089 1.524 . S
C1090 C1091 1.397 . S
C1090 C1095 1.363 . S
C1091 H1062 0.950 . S
C1091 C1090 1.397 . S
C1091 C1092 1.334 . S
C1092 H1063 0.950 . S
C1092 C1091 1.334 . S
C1092 C1093 1.287 . S
C1093 C1092 1.287 . S
C1093 C1094 1.524 . S
C1093 H1096 0.999 . S
C1094 H1064 0.950 . S
C1094 C1093 1.524 . S
C1094 C1095 1.415 . S
C1095 H1065 0.950 . S
C1095 C1090 1.363 . S
C1095 C1094 1.415 . S
H1096 C1093 0.999 . S
H1097 C1078 0.913 . S
H1098 C1116 0.951 . S
H1099 C1118 0.951 . S
H1100 C1120 0.950 . S
H1101 C1121 0.950 . S
H1102 C1123 0.950 . S
H1103 C1126 0.950 . S
H1104 C1127 0.950 . S
H1105 C1129 0.950 . S
H1106 C1130 0.950 1_545 S
H1107 C1131 0.951 . S
H1108 C1133 0.951 . S
H1109 C1135 0.950 . S
H1110 C1136 0.950 . S
H1111 C1138 0.950 . S
H1112 C1141 0.950 . S
H1113 C1142 0.950 . S
H1114 C1144 0.950 . S
H1115 C1145 0.950 1_565 S
C1116 H1098 0.951 . S
C1116 C1117 1.366 . S
C1116 C1118 1.388 . S
C1117 C1116 1.366 . S
C1117 C1121 1.385 . S
C1118 H1099 0.951 . S
C1118 C1116 1.388 . S
C1118 C1119 1.366 . S
C1119 C1118 1.366 . S
C1119 C1120 1.414 . S
C1119 C1122 1.499 . S
C1120 H1100 0.950 . S
C1120 C1119 1.414 . S
C1120 C1121 1.374 . S
C1121 H1101 0.950 . S
C1121 C1117 1.385 . S
C1121 C1120 1.374 . S
C1122 C1119 1.499 . S
C1122 C1123 1.373 1_455 S
C1122 C1124 1.389 1_556 S
C1123 H1102 0.950 . S
C1123 C1122 1.373 1_655 S
C1123 C1139 1.377 1_565 S
C1124 C1122 1.389 1_554 S
C1124 C1125 1.524 . S
C1124 C1138 1.377 1_565 S
C1125 C1124 1.524 . S
C1125 C1126 1.397 . S
C1125 C1130 1.363 . S
C1126 H1103 0.950 . S
C1126 C1125 1.397 . S
C1126 C1127 1.334 . S
C1127 H1104 0.950 . S
C1127 C1126 1.334 . S
C1127 C1128 1.287 . S
C1128 C1127 1.287 . S
C1128 C1129 1.524 . S
C1128 H1147 0.913 . S
C1129 H1105 0.950 . S
C1129 C1128 1.524 . S
C1129 C1130 1.415 . S
C1130 H1106 0.950 1_565 S
C1130 C1125 1.363 . S
C1130 C1129 1.415 . S
C1131 H1107 0.951 . S
C1131 C1132 1.366 . S
C1131 C1133 1.388 . S
C1132 C1131 1.366 . S
C1132 C1136 1.385 . S
C1133 H1108 0.951 . S
C1133 C1131 1.388 . S
C1133 C1134 1.366 . S
C1134 C1133 1.366 . S
C1134 C1135 1.414 . S
C1134 C1137 1.499 . S
C1135 H1109 0.950 . S
C1135 C1134 1.414 . S
C1135 C1136 1.374 . S
C1136 H1110 0.950 . S
C1136 C1132 1.385 . S
C1136 C1135 1.374 . S
C1137 C1134 1.499 . S
C1137 C1138 1.373 1_655 S
C1137 C1139 1.389 1_554 S
C1138 H1111 0.950 . S
C1138 C1124 1.377 1_545 S
C1138 C1137 1.373 1_455 S
C1139 C1123 1.377 1_545 S
C1139 C1137 1.389 1_556 S
C1139 C1140 1.524 . S
C1140 C1139 1.524 . S
C1140 C1141 1.397 . S
C1140 C1145 1.363 . S
C1141 H1112 0.950 . S
C1141 C1140 1.397 . S
C1141 C1142 1.334 . S
C1142 H1113 0.950 . S
C1142 C1141 1.334 . S
C1142 C1143 1.287 . S
C1143 C1142 1.287 . S
C1143 C1144 1.524 . S
C1143 H1146 0.999 . S
C1144 H1114 0.950 . S
C1144 C1143 1.524 . S
C1144 C1145 1.415 . S
C1145 H1115 0.950 1_545 S
C1145 C1140 1.363 . S
C1145 C1144 1.415 . S
H1146 C1143 0.999 . S
H1147 C1128 0.913 . S
H1148 C1166 0.951 . S
H1149 C1168 0.951 . S
H1150 C1170 0.950 . S
H1151 C1171 0.950 . S
H1152 C1173 0.950 . S
H1153 C1176 0.950 . S
H1154 C1177 0.950 . S
H1155 C1179 0.950 . S
H1156 C1180 0.950 . S
H1157 C1181 0.951 . S
H1158 C1183 0.951 . S
H1159 C1185 0.950 . S
H1160 C1186 0.950 . S
H1161 C1188 0.950 . S
H1162 C1191 0.950 . S
H1163 C1192 0.950 . S
H1164 C1194 0.950 . S
H1165 C1195 0.950 . S
C1166 H1148 0.951 . S
C1166 C1167 1.366 . S
C1166 C1168 1.388 . S
C1167 C1166 1.366 . S
C1167 C1171 1.385 . S
C1168 H1149 0.951 . S
C1168 C1166 1.388 . S
C1168 C1169 1.366 . S
C1169 C1168 1.366 . S
C1169 C1170 1.414 . S
C1169 C1172 1.499 . S
C1170 H1150 0.950 . S
C1170 C1169 1.414 . S
C1170 C1171 1.374 . S
C1171 H1151 0.950 . S
C1171 C1167 1.385 . S
C1171 C1170 1.374 . S
C1172 C1169 1.499 . S
C1172 C1173 1.373 1_556 S
C1172 C1174 1.389 1_545 S
C1173 H1152 0.950 . S
C1173 C1172 1.373 1_554 S
C1173 C1189 1.377 . S
C1174 C1172 1.389 1_565 S
C1174 C1175 1.524 . S
C1174 C1188 1.377 . S
C1175 C1174 1.524 . S
C1175 C1176 1.397 1_565 S
C1175 C1180 1.363 . S
C1176 H1153 0.950 . S
C1176 C1175 1.397 1_545 S
C1176 C1177 1.334 . S
C1177 H1154 0.950 . S
C1177 C1176 1.334 . S
C1177 C1178 1.287 1_545 S
C1178 C1177 1.287 1_565 S
C1178 C1179 1.524 . S
C1178 H1197 0.913 . S
C1179 H1155 0.950 . S
C1179 C1178 1.524 . S
C1179 C1180 1.415 . S
C1180 H1156 0.950 . S
C1180 C1175 1.363 . S
C1180 C1179 1.415 . S
C1181 H1157 0.951 . S
C1181 C1182 1.366 . S
C1181 C1183 1.388 . S
C1182 C1181 1.366 . S
C1182 C1186 1.385 . S
C1183 H1158 0.951 . S
C1183 C1181 1.388 . S
C1183 C1184 1.366 . S
C1184 C1183 1.366 . S
C1184 C1185 1.414 . S
C1184 C1187 1.499 . S
C1185 H1159 0.950 . S
C1185 C1184 1.414 . S
C1185 C1186 1.374 . S
C1186 H1160 0.950 . S
C1186 C1182 1.385 . S
C1186 C1185 1.374 . S
C1187 C1184 1.499 . S
C1187 C1188 1.373 1_554 S
C1187 C1189 1.389 1_565 S
C1188 H1161 0.950 . S
C1188 C1174 1.377 . S
C1188 C1187 1.373 1_556 S
C1189 C1173 1.377 . S
C1189 C1187 1.389 1_545 S
C1189 C1190 1.524 . S
C1190 C1189 1.524 . S
C1190 C1191 1.397 1_545 S
C1190 C1195 1.363 . S
C1191 H1162 0.950 . S
C1191 C1190 1.397 1_565 S
C1191 C1192 1.334 . S
C1192 H1163 0.950 . S
C1192 C1191 1.334 . S
C1192 C1193 1.287 1_565 S
C1193 C1192 1.287 1_545 S
C1193 C1194 1.524 . S
C1193 H1196 0.999 . S
C1194 H1164 0.950 . S
C1194 C1193 1.524 . S
C1194 C1195 1.415 . S
C1195 H1165 0.950 . S
C1195 C1190 1.363 . S
C1195 C1194 1.415 . S
H1196 C1193 0.999 . S
H1197 C1178 0.913 . S
H1198 C1216 0.951 . S
H1199 C1218 0.951 . S
H1200 C1220 0.950 . S
H1201 C1221 0.950 . S
H1202 C1223 0.950 . S
H1203 C1226 0.950 . S
H1204 C1227 0.950 . S
H1205 C1229 0.950 . S
H1206 C1230 0.950 . S
H1207 C1231 0.951 . S
H1208 C1233 0.951 . S
H1209 C1235 0.950 . S
H1210 C1236 0.950 . S
H1211 C1238 0.950 . S
H1212 C1241 0.950 . S
H1213 C1242 0.950 . S
H1214 C1244 0.950 . S
H1215 C1245 0.950 . S
C1216 H1198 0.951 . S
C1216 C1217 1.366 . S
C1216 C1218 1.388 . S
C1217 C1216 1.366 . S
C1217 C1221 1.385 . S
C1218 H1199 0.951 . S
C1218 C1216 1.388 . S
C1218 C1219 1.366 . S
C1219 C1218 1.366 . S
C1219 C1220 1.414 . S
C1219 C1222 1.499 . S
C1220 H1200 0.950 . S
C1220 C1219 1.414 . S
C1220 C1221 1.374 . S
C1221 H1201 0.950 . S
C1221 C1217 1.385 . S
C1221 C1220 1.374 . S
C1222 C1219 1.499 . S
C1222 C1223 1.367 1_545 S
C1222 C1224 1.389 . S
C1223 H1202 0.950 . S
C1223 C1222 1.367 1_565 S
C1223 C1239 1.382 1_455 S
C1224 C1222 1.389 . S
C1224 C1225 1.524 . S
C1224 C1238 1.382 1_455 S
C1225 C1224 1.524 . S
C1225 C1226 1.397 . S
C1225 C1230 1.363 . S
C1226 H1203 0.950 . S
C1226 C1225 1.397 . S
C1226 C1227 1.334 . S
C1227 H1204 0.950 . S
C1227 C1226 1.334 . S
C1227 C1228 1.287 . S
C1228 C1227 1.287 . S
C1228 C1229 1.524 . S
C1228 H1247 0.913 . S
C1229 H1205 0.950 . S
C1229 C1228 1.524 . S
C1229 C1230 1.415 . S
C1230 H1206 0.950 . S
C1230 C1225 1.363 . S
C1230 C1229 1.415 . S
C1231 H1207 0.951 . S
C1231 C1232 1.366 . S
C1231 C1233 1.388 . S
C1232 C1231 1.366 . S
C1232 C1236 1.385 . S
C1233 H1208 0.951 . S
C1233 C1231 1.388 . S
C1233 C1234 1.366 . S
C1234 C1233 1.366 . S
C1234 C1235 1.414 . S
C1234 C1237 1.499 . S
C1235 H1209 0.950 . S
C1235 C1234 1.414 . S
C1235 C1236 1.374 . S
C1236 H1210 0.950 . S
C1236 C1232 1.385 . S
C1236 C1235 1.374 . S
C1237 C1234 1.499 . S
C1237 C1238 1.367 1_565 S
C1237 C1239 1.389 . S
C1238 H1211 0.950 . S
C1238 C1224 1.382 1_655 S
C1238 C1237 1.367 1_545 S
C1239 C1223 1.382 1_655 S
C1239 C1237 1.389 . S
C1239 C1240 1.524 . S
C1240 C1239 1.524 . S
C1240 C1241 1.397 . S
C1240 C1245 1.363 . S
C1241 H1212 0.950 . S
C1241 C1240 1.397 . S
C1241 C1242 1.334 . S
C1242 H1213 0.950 . S
C1242 C1241 1.334 . S
C1242 C1243 1.287 . S
C1243 C1242 1.287 . S
C1243 C1244 1.524 . S
C1243 H1246 0.999 . S
C1244 H1214 0.950 . S
C1244 C1243 1.524 . S
C1244 C1245 1.415 . S
C1245 H1215 0.950 . S
C1245 C1240 1.363 . S
C1245 C1244 1.415 . S
H1246 C1243 0.999 . S
H1247 C1228 0.913 . S
H1248 C1266 0.951 . S
H1249 C1268 0.951 . S
H1250 C1270 0.950 . S
H1251 C1271 0.950 . S
H1252 C1273 0.950 . S
H1253 C1276 0.950 . S
H1254 C1277 0.950 . S
H1255 C1279 0.950 1_556 S
H1256 C1280 0.950 . S
H1257 C1281 0.951 . S
H1258 C1283 0.951 . S
H1259 C1285 0.950 . S
H1260 C1286 0.950 . S
H1261 C1288 0.950 . S
H1262 C1291 0.950 . S
H1263 C1292 0.950 . S
H1264 C1294 0.950 . S
H1265 C1295 0.950 . S
C1266 H1248 0.951 . S
C1266 C1267 1.366 . S
C1266 C1268 1.388 . S
C1267 C1266 1.366 . S
C1267 C1271 1.385 . S
C1268 H1249 0.951 . S
C1268 C1266 1.388 . S
C1268 C1269 1.366 . S
C1269 C1268 1.366 . S
C1269 C1270 1.414 . S
C1269 C1272 1.499 . S
C1270 H1250 0.950 . S
C1270 C1269 1.414 . S
C1270 C1271 1.374 . S
C1271 H1251 0.950 . S
C1271 C1267 1.385 . S
C1271 C1270 1.374 . S
C1272 C1269 1.499 . S
C1272 C1273 1.373 . S
C1272 C1274 1.389 1_655 S
C1273 H1252 0.950 . S
C1273 C1272 1.373 . S
C1273 C1289 1.377 . S
C1274 C1272 1.389 1_455 S
C1274 C1275 1.524 . S
C1274 C1288 1.377 . S
C1275 C1274 1.524 . S
C1275 C1276 1.397 . S
C1275 C1280 1.363 . S
C1276 H1253 0.950 . S
C1276 C1275 1.397 . S
C1276 C1277 1.334 . S
C1277 H1254 0.950 . S
C1277 C1276 1.334 . S
C1277 C1278 1.287 . S
C1278 C1277 1.287 . S
C1278 C1279 1.524 . S
C1278 H1297 0.913 . S
C1279 H1255 0.950 1_554 S
C1279 C1278 1.524 . S
C1279 C1280 1.415 . S
C1280 H1256 0.950 . S
C1280 C1275 1.363 . S
C1280 C1279 1.415 . S
C1281 H1257 0.951 . S
C1281 C1282 1.366 . S
C1281 C1283 1.388 . S
C1282 C1281 1.366 . S
C1282 C1286 1.385 . S
C1283 H1258 0.951 . S
C1283 C1281 1.388 . S
C1283 C1284 1.366 . S
C1284 C1283 1.366 . S
C1284 C1285 1.414 . S
C1284 C1287 1.499 . S
C1285 H1259 0.950 . S
C1285 C1284 1.414 . S
C1285 C1286 1.374 . S
C1286 H1260 0.950 . S
C1286 C1282 1.385 . S
C1286 C1285 1.374 . S
C1287 C1284 1.499 . S
C1287 C1288 1.373 . S
C1287 C1289 1.389 1_455 S
C1288 H1261 0.950 . S
C1288 C1274 1.377 . S
C1288 C1287 1.373 . S
C1289 C1273 1.377 . S
C1289 C1287 1.389 1_655 S
C1289 C1290 1.524 . S
C1290 C1289 1.524 . S
C1290 C1291 1.397 . S
C1290 C1295 1.363 . S
C1291 H1262 0.950 . S
C1291 C1290 1.397 . S
C1291 C1292 1.334 . S
C1292 H1263 0.950 . S
C1292 C1291 1.334 . S
C1292 C1293 1.287 . S
C1293 C1292 1.287 . S
C1293 C1294 1.524 . S
C1293 H1296 0.999 . S
C1294 H1264 0.950 . S
C1294 C1293 1.524 . S
C1294 C1295 1.415 . S
C1295 H1265 0.950 . S
C1295 C1290 1.363 . S
C1295 C1294 1.415 . S
H1296 C1293 0.999 . S
H1297 C1278 0.913 . S
H1298 C1316 0.951 . S
H1299 C1318 0.951 . S
H1300 C1320 0.950 . S
H1301 C1321 0.950 . S
H1302 C1323 0.950 1_655 S
H1303 C1326 0.950 . S
H1304 C1327 0.950 . S
H1305 C1329 0.950 . S
H1306 C1330 0.950 . S
H1307 C1331 0.951 . S
H1308 C1333 0.951 . S
H1309 C1335 0.950 . S
H1310 C1336 0.950 . S
H1311 C1338 0.950 1_455 S
H1312 C1341 0.950 . S
H1313 C1342 0.950 . S
H1314 C1344 0.950 . S
H1315 C1345 0.950 . S
C1316 H1298 0.951 . S
C1316 C1317 1.366 . S
C1316 C1318 1.388 . S
C1317 C1316 1.366 . S
C1317 C1321 1.385 . S
C1318 H1299 0.951 . S
C1318 C1316 1.388 . S
C1318 C1319 1.366 . S
C1319 C1318 1.366 . S
C1319 C1320 1.414 . S
C1319 C1322 1.499 . S
C1320 H1300 0.950 . S
C1320 C1319 1.414 . S
C1320 C1321 1.374 . S
C1321 H1301 0.950 . S
C1321 C1317 1.385 . S
C1321 C1320 1.374 . S
C1322 C1319 1.499 . S
C1322 C1323 1.375 . S
C1322 C1324 1.389 . S
C1323 H1302 0.950 1_455 S
C1323 C1322 1.375 . S
C1323 C1339 1.374 1_455 S
C1324 C1322 1.389 . S
C1324 C1325 1.524 . S
C1324 C1338 1.376 1_455 S
C1325 C1324 1.524 . S
C1325 C1326 1.397 . S
C1325 C1330 1.363 . S
C1326 H1303 0.950 . S
C1326 C1325 1.397 . S
C1326 C1327 1.334 . S
C1327 H1304 0.950 . S
C1327 C1326 1.334 . S
C1327 C1328 1.287 . S
C1328 C1327 1.287 . S
C1328 C1329 1.524 . S
C1328 H1347 0.913 . S
C1329 H1305 0.950 . S
C1329 C1328 1.524 . S
C1329 C1330 1.415 . S
C1330 H1306 0.950 . S
C1330 C1325 1.363 . S
C1330 C1329 1.415 . S
C1331 H1307 0.951 . S
C1331 C1332 1.366 . S
C1331 C1333 1.388 . S
C1332 C1331 1.366 . S
C1332 C1336 1.385 . S
C1333 H1308 0.951 . S
C1333 C1331 1.388 . S
C1333 C1334 1.366 . S
C1334 C1333 1.366 . S
C1334 C1335 1.414 . S
C1334 C1337 1.499 . S
C1335 H1309 0.950 . S
C1335 C1334 1.414 . S
C1335 C1336 1.374 . S
C1336 H1310 0.950 . S
C1336 C1332 1.385 . S
C1336 C1335 1.374 . S
C1337 C1334 1.499 . S
C1337 C1338 1.374 . S
C1337 C1339 1.389 . S
C1338 H1311 0.950 1_655 S
C1338 C1324 1.376 1_655 S
C1338 C1337 1.374 . S
C1339 C1323 1.374 1_655 S
C1339 C1337 1.389 . S
C1339 C1340 1.524 . S
C1340 C1339 1.524 . S
C1340 C1341 1.397 . S
C1340 C1345 1.363 . S
C1341 H1312 0.950 . S
C1341 C1340 1.397 . S
C1341 C1342 1.334 . S
C1342 H1313 0.950 . S
C1342 C1341 1.334 . S
C1342 C1343 1.287 . S
C1343 C1342 1.287 . S
C1343 C1344 1.524 . S
C1343 H1346 0.999 . S
C1344 H1314 0.950 . S
C1344 C1343 1.524 . S
C1344 C1345 1.415 . S
C1345 H1315 0.950 . S
C1345 C1340 1.363 . S
C1345 C1344 1.415 . S
H1346 C1343 0.999 . S
H1347 C1328 0.913 . S
H1348 C1366 0.951 . S
H1349 C1368 0.951 . S
H1350 C1370 0.950 . S
H1351 C1371 0.950 . S
H1352 C1373 0.950 . S
H1353 C1376 0.950 . S
H1354 C1377 0.950 . S
H1355 C1379 0.950 . S
H1356 C1380 0.950 . S
H1357 C1381 0.951 . S
H1358 C1383 0.951 . S
H1359 C1385 0.950 . S
H1360 C1386 0.950 . S
H1361 C1388 0.950 . S
H1362 C1391 0.950 . S
H1363 C1392 0.950 . S
H1364 C1394 0.950 . S
H1365 C1395 0.950 . S
C1366 H1348 0.951 . S
C1366 C1367 1.366 . S
C1366 C1368 1.388 . S
C1367 C1366 1.366 . S
C1367 C1371 1.385 . S
C1368 H1349 0.951 . S
C1368 C1366 1.388 . S
C1368 C1369 1.366 . S
C1369 C1368 1.366 . S
C1369 C1370 1.414 . S
C1369 C1372 1.499 . S
C1370 H1350 0.950 . S
C1370 C1369 1.414 . S
C1370 C1371 1.374 . S
C1371 H1351 0.950 . S
C1371 C1367 1.385 . S
C1371 C1370 1.374 . S
C1372 C1369 1.499 . S
C1372 C1373 1.373 . S
C1372 C1374 1.389 . S
C1373 H1352 0.950 . S
C1373 C1372 1.373 . S
C1373 C1389 1.377 . S
C1374 C1372 1.389 . S
C1374 C1375 1.524 . S
C1374 C1388 1.377 . S
C1375 C1374 1.524 . S
C1375 C1376 1.397 . S
C1375 C1380 1.363 . S
C1376 H1353 0.950 . S
C1376 C1375 1.397 . S
C1376 C1377 1.334 . S
C1377 H1354 0.950 . S
C1377 C1376 1.334 . S
C1377 C1378 1.287 . S
C1378 C1377 1.287 . S
C1378 C1379 1.524 . S
C1378 H1397 0.913 . S
C1379 H1355 0.950 . S
C1379 C1378 1.524 . S
C1379 C1380 1.415 . S
C1380 H1356 0.950 . S
C1380 C1375 1.363 . S
C1380 C1379 1.415 . S
C1381 H1357 0.951 . S
C1381 C1382 1.366 . S
C1381 C1383 1.388 . S
C1382 C1381 1.366 . S
C1382 C1386 1.385 . S
C1383 H1358 0.951 . S
C1383 C1381 1.388 . S
C1383 C1384 1.366 . S
C1384 C1383 1.366 . S
C1384 C1385 1.414 . S
C1384 C1387 1.499 . S
C1385 H1359 0.950 . S
C1385 C1384 1.414 . S
C1385 C1386 1.374 . S
C1386 H1360 0.950 . S
C1386 C1382 1.385 . S
C1386 C1385 1.374 . S
C1387 C1384 1.499 . S
C1387 C1388 1.373 . S
C1387 C1389 1.389 . S
C1388 H1361 0.950 . S
C1388 C1374 1.377 . S
C1388 C1387 1.373 . S
C1389 C1373 1.377 . S
C1389 C1387 1.389 . S
C1389 C1390 1.524 . S
C1390 C1389 1.524 . S
C1390 C1391 1.397 . S
C1390 C1395 1.363 . S
C1391 H1362 0.950 . S
C1391 C1390 1.397 . S
C1391 C1392 1.334 . S
C1392 H1363 0.950 . S
C1392 C1391 1.334 . S
C1392 C1393 1.287 . S
C1393 C1392 1.287 . S
C1393 C1394 1.524 . S
C1393 H1396 0.999 . S
C1394 H1364 0.950 . S
C1394 C1393 1.524 . S
C1394 C1395 1.415 . S
C1395 H1365 0.950 . S
C1395 C1390 1.363 . S
C1395 C1394 1.415 . S
H1396 C1393 0.999 . S
H1397 C1378 0.913 . S
H1398 C1416 0.951 . S
H1399 C1418 0.951 . S
H1400 C1420 0.950 . S
H1401 C1421 0.950 . S
H1402 C1423 0.950 . S
H1403 C1426 0.950 . S
H1404 C1427 0.950 . S
H1405 C1429 0.950 . S
H1406 C1430 0.950 . S
H1407 C1431 0.951 . S
H1408 C1433 0.951 . S
H1409 C1435 0.950 . S
H1410 C1436 0.950 . S
H1411 C1438 0.950 . S
H1412 C1441 0.950 . S
H1413 C1442 0.950 . S
H1414 C1444 0.950 . S
H1415 C1445 0.950 . S
C1416 H1398 0.951 . S
C1416 C1417 1.366 . S
C1416 C1418 1.388 . S
C1417 C1416 1.366 . S
C1417 C1421 1.385 . S
C1418 H1399 0.951 . S
C1418 C1416 1.388 . S
C1418 C1419 1.366 . S
C1419 C1418 1.366 . S
C1419 C1420 1.414 . S
C1419 C1422 1.499 . S
C1420 H1400 0.950 . S
C1420 C1419 1.414 . S
C1420 C1421 1.374 . S
C1421 H1401 0.950 . S
C1421 C1417 1.385 . S
C1421 C1420 1.374 . S
C1422 C1419 1.499 . S
C1422 C1423 1.373 . S
C1422 C1424 1.389 . S
C1423 H1402 0.950 . S
C1423 C1422 1.373 . S
C1423 C1439 1.377 . S
C1424 C1422 1.389 . S
C1424 C1425 1.524 . S
C1424 C1438 1.377 . S
C1425 C1424 1.524 . S
C1425 C1426 1.397 . S
C1425 C1430 1.363 . S
C1426 H1403 0.950 . S
C1426 C1425 1.397 . S
C1426 C1427 1.334 . S
C1427 H1404 0.950 . S
C1427 C1426 1.334 . S
C1427 C1428 1.287 . S
C1428 C1427 1.287 . S
C1428 C1429 1.524 . S
C1428 H1447 0.913 . S
C1429 H1405 0.950 . S
C1429 C1428 1.524 . S
C1429 C1430 1.415 . S
C1430 H1406 0.950 . S
C1430 C1425 1.363 . S
C1430 C1429 1.415 . S
C1431 H1407 0.951 . S
C1431 C1432 1.366 . S
C1431 C1433 1.388 . S
C1432 C1431 1.366 . S
C1432 C1436 1.385 . S
C1433 H1408 0.951 . S
C1433 C1431 1.388 . S
C1433 C1434 1.366 . S
C1434 C1433 1.366 . S
C1434 C1435 1.414 . S
C1434 C1437 1.499 . S
C1435 H1409 0.950 . S
C1435 C1434 1.414 . S
C1435 C1436 1.374 . S
C1436 H1410 0.950 . S
C1436 C1432 1.385 . S
C1436 C1435 1.374 . S
C1437 C1434 1.499 . S
C1437 C1438 1.373 . S
C1437 C1439 1.389 . S
C1438 H1411 0.950 . S
C1438 C1424 1.377 . S
C1438 C1437 1.373 . S
C1439 C1423 1.377 . S
C1439 C1437 1.389 . S
C1439 C1440 1.524 . S
C1440 C1439 1.524 . S
C1440 C1441 1.397 . S
C1440 C1445 1.363 . S
C1441 H1412 0.950 . S
C1441 C1440 1.397 . S
C1441 C1442 1.334 . S
C1442 H1413 0.950 . S
C1442 C1441 1.334 . S
C1442 C1443 1.287 . S
C1443 C1442 1.287 . S
C1443 C1444 1.524 . S
C1443 H1446 0.999 . S
C1444 H1414 0.950 . S
C1444 C1443 1.524 . S
C1444 C1445 1.415 . S
C1445 H1415 0.950 . S
C1445 C1440 1.363 . S
C1445 C1444 1.415 . S
H1446 C1443 0.999 . S
H1447 C1428 0.913 . S
H1448 C1466 0.951 . S
H1449 C1468 0.951 . S
H1450 C1470 0.950 . S
H1451 C1471 0.950 . S
H1452 C1473 0.950 . S
H1453 C1476 0.950 . S
H1454 C1477 0.950 . S
H1455 C1479 0.950 . S
H1456 C1480 0.950 . S
H1457 C1481 0.951 . S
H1458 C1483 0.951 . S
H1459 C1485 0.950 . S
H1460 C1486 0.950 . S
H1461 C1488 0.950 . S
H1462 C1491 0.950 . S
H1463 C1492 0.950 . S
H1464 C1494 0.950 . S
H1465 C1495 0.950 . S
C1466 H1448 0.951 . S
C1466 C1467 1.366 . S
C1466 C1468 1.388 . S
C1467 C1466 1.366 . S
C1467 C1471 1.385 . S
C1468 H1449 0.951 . S
C1468 C1466 1.388 . S
C1468 C1469 1.366 . S
C1469 C1468 1.366 . S
C1469 C1470 1.414 . S
C1469 C1472 1.499 . S
C1470 H1450 0.950 . S
C1470 C1469 1.414 . S
C1470 C1471 1.374 . S
C1471 H1451 0.950 . S
C1471 C1467 1.385 . S
C1471 C1470 1.374 . S
C1472 C1469 1.499 . S
C1472 C1473 1.373 1_655 S
C1472 C1474 1.389 . S
C1473 H1452 0.950 . S
C1473 C1472 1.373 1_455 S
C1473 C1489 1.377 . S
C1474 C1472 1.389 . S
C1474 C1475 1.524 . S
C1474 C1488 1.377 . S
C1475 C1474 1.524 . S
C1475 C1476 1.397 . S
C1475 C1480 1.363 . S
C1476 H1453 0.950 . S
C1476 C1475 1.397 . S
C1476 C1477 1.334 . S
C1477 H1454 0.950 . S
C1477 C1476 1.334 . S
C1477 C1478 1.287 . S
C1478 C1477 1.287 . S
C1478 C1479 1.524 . S
C1478 H1497 0.913 . S
C1479 H1455 0.950 . S
C1479 C1478 1.524 . S
C1479 C1480 1.415 . S
C1480 H1456 0.950 . S
C1480 C1475 1.363 . S
C1480 C1479 1.415 . S
C1481 H1457 0.951 . S
C1481 C1482 1.366 . S
C1481 C1483 1.388 . S
C1482 C1481 1.366 . S
C1482 C1486 1.385 . S
C1483 H1458 0.951 . S
C1483 C1481 1.388 . S
C1483 C1484 1.366 . S
C1484 C1483 1.366 . S
C1484 C1485 1.414 . S
C1484 C1487 1.499 . S
C1485 H1459 0.950 . S
C1485 C1484 1.414 . S
C1485 C1486 1.374 . S
C1486 H1460 0.950 . S
C1486 C1482 1.385 . S
C1486 C1485 1.374 . S
C1487 C1484 1.499 . S
C1487 C1488 1.373 1_455 S
C1487 C1489 1.389 . S
C1488 H1461 0.950 . S
C1488 C1474 1.377 . S
C1488 C1487 1.373 1_655 S
C1489 C1473 1.377 . S
C1489 C1487 1.389 . S
C1489 C1490 1.524 . S
C1490 C1489 1.524 . S
C1490 C1491 1.397 . S
C1490 C1495 1.363 . S
C1491 H1462 0.950 . S
C1491 C1490 1.397 . S
C1491 C1492 1.334 . S
C1492 H1463 0.950 . S
C1492 C1491 1.334 . S
C1492 C1493 1.287 . S
C1493 C1492 1.287 . S
C1493 C1494 1.524 . S
C1493 H1496 0.999 . S
C1494 H1464 0.950 . S
C1494 C1493 1.524 . S
C1494 C1495 1.415 . S
C1495 H1465 0.950 . S
C1495 C1490 1.363 . S
C1495 C1494 1.415 . S
H1496 C1493 0.999 . S
H1497 C1478 0.913 . S
H1498 C1516 0.951 . S
H1499 C1518 0.951 . S
H1500 C1520 0.950 . S
H1501 C1521 0.950 . S
H1502 C1523 0.950 . S
H1503 C1526 0.950 . S
H1504 C1527 0.950 . S
H1505 C1529 0.950 . S
H1506 C1530 0.950 . S
H1507 C1531 0.951 . S
H1508 C1533 0.951 . S
H1509 C1535 0.950 . S
H1510 C1536 0.950 . S
H1511 C1538 0.950 . S
H1512 C1541 0.950 . S
H1513 C1542 0.950 . S
H1514 C1544 0.950 . S
H1515 C1545 0.950 . S
C1516 H1498 0.951 . S
C1516 C1517 1.366 . S
C1516 C1518 1.388 . S
C1517 C1516 1.366 . S
C1517 C1521 1.385 . S
C1518 H1499 0.951 . S
C1518 C1516 1.388 . S
C1518 C1519 1.366 . S
C1519 C1518 1.366 . S
C1519 C1520 1.414 . S
C1519 C1522 1.499 . S
C1520 H1500 0.950 . S
C1520 C1519 1.414 . S
C1520 C1521 1.374 . S
C1521 H1501 0.950 . S
C1521 C1517 1.385 . S
C1521 C1520 1.374 . S
C1522 C1519 1.499 . S
C1522 C1523 1.373 . S
C1522 C1524 1.389 . S
C1523 H1502 0.950 . S
C1523 C1522 1.373 . S
C1523 C1539 1.377 . S
C1524 C1522 1.389 . S
C1524 C1525 1.524 . S
C1524 C1538 1.377 . S
C1525 C1524 1.524 . S
C1525 C1526 1.397 . S
C1525 C1530 1.363 . S
C1526 H1503 0.950 . S
C1526 C1525 1.397 . S
C1526 C1527 1.334 . S
C1527 H1504 0.950 . S
C1527 C1526 1.334 . S
C1527 C1528 1.287 . S
C1528 C1527 1.287 . S
C1528 C1529 1.524 . S
C1528 H1547 0.913 . S
C1529 H1505 0.950 . S
C1529 C1528 1.524 . S
C1529 C1530 1.415 . S
C1530 H1506 0.950 . S
C1530 C1525 1.363 . S
C1530 C1529 1.415 . S
C1531 H1507 0.951 . S
C1531 C1532 1.366 . S
C1531 C1533 1.388 . S
C1532 C1531 1.366 . S
C1532 C1536 1.385 . S
C1533 H1508 0.951 . S
C1533 C1531 1.388 . S
C1533 C1534 1.366 . S
C1534 C1533 1.366 . S
C1534 C1535 1.414 . S
C1534 C1537 1.499 . S
C1535 H1509 0.950 . S
C1535 C1534 1.414 . S
C1535 C1536 1.374 . S
C1536 H1510 0.950 . S
C1536 C1532 1.385 . S
C1536 C1535 1.374 . S
C1537 C1534 1.499 . S
C1537 C1538 1.373 . S
C1537 C1539 1.389 . S
C1538 H1511 0.950 . S
C1538 C1524 1.377 . S
C1538 C1537 1.373 . S
C1539 C1523 1.377 . S
C1539 C1537 1.389 . S
C1539 C1540 1.524 . S
C1540 C1539 1.524 . S
C1540 C1541 1.397 . S
C1540 C1545 1.363 . S
C1541 H1512 0.950 . S
C1541 C1540 1.397 . S
C1541 C1542 1.334 . S
C1542 H1513 0.950 . S
C1542 C1541 1.334 . S
C1542 C1543 1.287 . S
C1543 C1542 1.287 . S
C1543 C1544 1.524 . S
C1543 H1546 0.999 . S
C1544 H1514 0.950 . S
C1544 C1543 1.524 . S
C1544 C1545 1.415 . S
C1545 H1515 0.950 . S
C1545 C1540 1.363 . S
C1545 C1544 1.415 . S
H1546 C1543 0.999 . S
H1547 C1528 0.913 . S
H1548 C1566 0.951 . S
H1549 C1568 0.951 . S
H1550 C1570 0.950 . S
H1551 C1571 0.950 . S
H1552 C1573 0.950 . S
H1553 C1576 0.950 . S
H1554 C1577 0.950 . S
H1555 C1579 0.950 . S
H1556 C1580 0.950 . S
H1557 C1581 0.951 . S
H1558 C1583 0.951 . S
H1559 C1585 0.950 . S
H1560 C1586 0.950 . S
H1561 C1588 0.950 . S
H1562 C1591 0.950 . S
H1563 C1592 0.941 1_554 S
H1564 C1594 0.950 . S
H1565 C1595 0.950 . S
C1566 H1548 0.951 . S
C1566 C1567 1.366 . S
C1566 C1568 1.388 . S
C1567 C1566 1.366 . S
C1567 C1571 1.385 . S
C1568 H1549 0.951 . S
C1568 C1566 1.388 . S
C1568 C1569 1.366 . S
C1569 C1568 1.366 . S
C1569 C1570 1.414 . S
C1569 C1572 1.499 . S
C1570 H1550 0.950 . S
C1570 C1569 1.414 . S
C1570 C1571 1.374 . S
C1571 H1551 0.950 . S
C1571 C1567 1.385 . S
C1571 C1570 1.374 . S
C1572 C1569 1.499 . S
C1572 C1573 1.373 . S
C1572 C1574 1.389 . S
C1573 H1552 0.950 . S
C1573 C1572 1.373 . S
C1573 C1589 1.377 . S
C1574 C1572 1.389 . S
C1574 C1575 1.524 . S
C1574 C1588 1.377 . S
C1575 C1574 1.524 . S
C1575 C1576 1.397 . S
C1575 C1580 1.363 . S
C1576 H1553 0.950 . S
C1576 C1575 1.397 . S
C1576 C1577 1.334 . S
C1577 H1554 0.950 . S
C1577 C1576 1.334 . S
C1577 C1578 1.287 . S
C1578 C1577 1.287 . S
C1578 C1579 1.524 . S
C1578 H1597 0.913 . S
C1579 H1555 0.950 . S
C1579 C1578 1.524 . S
C1579 C1580 1.415 . S
C1580 H1556 0.950 . S
C1580 C1575 1.363 . S
C1580 C1579 1.415 . S
C1581 H1557 0.951 . S
C1581 C1582 1.366 . S
C1581 C1583 1.388 . S
C1582 C1581 1.366 . S
C1582 C1586 1.385 . S
C1583 H1558 0.951 . S
C1583 C1581 1.388 . S
C1583 C1584 1.366 . S
C1584 C1583 1.366 . S
C1584 C1585 1.414 . S
C1584 C1587 1.499 . S
C1585 H1559 0.950 . S
C1585 C1584 1.414 . S
C1585 C1586 1.374 . S
C1586 H1560 0.950 . S
C1586 C1582 1.385 . S
C1586 C1585 1.374 . S
C1587 C1584 1.499 . S
C1587 C1588 1.373 . S
C1587 C1589 1.389 . S
C1588 H1561 0.950 . S
C1588 C1574 1.377 . S
C1588 C1587 1.373 . S
C1589 C1573 1.377 . S
C1589 C1587 1.389 . S
C1589 C1590 1.524 . S
C1590 C1589 1.524 . S
C1590 C1591 1.397 . S
C1590 C1595 1.363 . S
C1591 H1562 0.950 . S
C1591 C1590 1.397 . S
C1591 C1592 1.334 . S
C1592 H1563 0.941 1_556 S
C1592 C1591 1.334 . S
C1592 C1593 1.287 . S
C1593 C1592 1.287 . S
C1593 C1594 1.524 . S
C1593 H1596 0.999 1_556 S
C1594 H1564 0.950 . S
C1594 C1593 1.524 . S
C1594 C1595 1.415 . S
C1595 H1565 0.950 . S
C1595 C1590 1.363 . S
C1595 C1594 1.415 . S
H1596 C1593 0.999 1_554 S
H1597 C1578 0.913 . S
H1598 C1616 0.951 . S
H1599 C1618 0.951 . S
H1600 C1620 0.950 . S
H1601 C1621 0.950 . S
H1602 C1623 0.950 . S
H1603 C1626 0.950 . S
H1604 C1627 0.950 . S
H1605 C1629 0.950 . S
H1606 C1630 0.950 . S
H1607 C1631 0.951 . S
H1608 C1633 0.951 . S
H1609 C1635 0.950 . S
H1610 C1636 0.950 . S
H1611 C1638 0.950 . S
H1612 C1641 0.950 . S
H1613 C1642 0.950 . S
H1614 C1644 0.950 . S
H1615 C1645 0.950 . S
C1616 H1598 0.951 . S
C1616 C1617 1.366 . S
C1616 C1618 1.388 . S
C1617 C1616 1.366 . S
C1617 C1621 1.385 . S
C1618 H1599 0.951 . S
C1618 C1616 1.388 . S
C1618 C1619 1.366 . S
C1619 C1618 1.366 . S
C1619 C1620 1.414 . S
C1619 C1622 1.499 . S
C1620 H1600 0.950 . S
C1620 C1619 1.414 . S
C1620 C1621 1.374 . S
C1621 H1601 0.950 . S
C1621 C1617 1.385 . S
C1621 C1620 1.374 . S
C1622 C1619 1.499 . S
C1622 C1623 1.404 . S
C1622 C1624 1.389 . S
C1623 H1602 0.950 . S
C1623 C1622 1.404 . S
C1623 C1639 1.345 1_455 S
C1624 C1622 1.389 . S
C1624 C1625 1.524 . S
C1624 C1638 1.346 1_455 S
C1625 C1624 1.524 . S
C1625 C1626 1.397 . S
C1625 C1630 1.363 . S
C1626 H1603 0.950 . S
C1626 C1625 1.397 . S
C1626 C1627 1.334 . S
C1627 H1604 0.950 . S
C1627 C1626 1.334 . S
C1627 C1628 1.287 . S
C1628 C1627 1.287 . S
C1628 C1629 1.524 . S
C1628 H1647 0.913 . S
C1629 H1605 0.950 . S
C1629 C1628 1.524 . S
C1629 C1630 1.415 . S
C1630 H1606 0.950 . S
C1630 C1625 1.363 . S
C1630 C1629 1.415 . S
C1631 H1607 0.951 . S
C1631 C1632 1.366 . S
C1631 C1633 1.388 . S
C1632 C1631 1.366 . S
C1632 C1636 1.385 . S
C1633 H1608 0.951 . S
C1633 C1631 1.388 . S
C1633 C1634 1.366 . S
C1634 C1633 1.366 . S
C1634 C1635 1.414 . S
C1634 C1637 1.499 . S
C1635 H1609 0.950 . S
C1635 C1634 1.414 . S
C1635 C1636 1.374 . S
C1636 H1610 0.950 . S
C1636 C1632 1.385 . S
C1636 C1635 1.374 . S
C1637 C1634 1.499 . S
C1637 C1638 1.403 . S
C1637 C1639 1.389 . S
C1638 H1611 0.950 . S
C1638 C1624 1.346 1_655 S
C1638 C1637 1.403 . S
C1639 C1623 1.345 1_655 S
C1639 C1637 1.389 . S
C1639 C1640 1.524 . S
C1640 C1639 1.524 . S
C1640 C1641 1.397 . S
C1640 C1645 1.363 . S
C1641 H1612 0.950 . S
C1641 C1640 1.397 . S
C1641 C1642 1.334 . S
C1642 H1613 0.950 . S
C1642 C1641 1.334 . S
C1642 C1643 1.287 . S
C1643 C1642 1.287 . S
C1643 C1644 1.524 . S
C1643 H1646 0.999 . S
C1644 H1614 0.950 . S
C1644 C1643 1.524 . S
C1644 C1645 1.415 . S
C1645 H1615 0.950 . S
C1645 C1640 1.363 . S
C1645 C1644 1.415 . S
H1646 C1643 0.999 . S
H1647 C1628 0.913 . S
H1648 C1666 0.951 . S
H1649 C1668 0.951 . S
H1650 C1670 0.950 . S
H1651 C1671 0.950 . S
H1652 C1673 0.950 . S
H1653 C1676 0.950 . S
H1654 C1677 0.950 . S
H1655 C1679 0.950 . S
H1656 C1680 0.950 . S
H1657 C1681 0.951 . S
H1658 C1683 0.951 . S
H1659 C1685 0.950 . S
H1660 C1686 0.950 . S
H1661 C1688 0.950 . S
H1662 C1691 0.950 . S
H1663 C1692 0.950 . S
H1664 C1694 0.950 1_554 S
H1665 C1695 0.950 . S
C1666 H1648 0.951 . S
C1666 C1667 1.366 . S
C1666 C1668 1.388 . S
C1667 C1666 1.366 . S
C1667 C1671 1.385 . S
C1668 H1649 0.951 . S
C1668 C1666 1.388 . S
C1668 C1669 1.366 . S
C1669 C1668 1.366 . S
C1669 C1670 1.414 . S
C1669 C1672 1.499 . S
C1670 H1650 0.950 . S
C1670 C1669 1.414 . S
C1670 C1671 1.374 . S
C1671 H1651 0.950 . S
C1671 C1667 1.385 . S
C1671 C1670 1.374 . S
C1672 C1669 1.499 . S
C1672 C1673 1.373 . S
C1672 C1674 1.389 1_655 S
C1673 H1652 0.950 . S
C1673 C1672 1.373 . S
C1673 C1689 1.377 . S
C1674 C1672 1.389 1_455 S
C1674 C1675 1.524 . S
C1674 C1688 1.377 . S
C1675 C1674 1.524 . S
C1675 C1676 1.397 . S
C1675 C1680 1.363 . S
C1676 H1653 0.950 . S
C1676 C1675 1.397 . S
C1676 C1677 1.334 . S
C1677 H1654 0.950 . S
C1677 C1676 1.334 . S
C1677 C1678 1.287 . S
C1678 C1677 1.287 . S
C1678 C1679 1.524 . S
C1678 H1697 0.913 . S
C1679 H1655 0.950 . S
C1679 C1678 1.524 . S
C1679 C1680 1.415 . S
C1680 H1656 0.950 . S
C1680 C1675 1.363 . S
C1680 C1679 1.415 . S
C1681 H1657 0.951 . S
C1681 C1682 1.366 . S
C1681 C1683 1.388 . S
C1682 C1681 1.366 . S
C1682 C1686 1.385 . S
C1683 H1658 0.951 . S
C1683 C1681 1.388 . S
C1683 C1684 1.366 . S
C1684 C1683 1.366 . S
C1684 C1685 1.414 . S
C1684 C1687 1.499 . S
C1685 H1659 0.950 . S
C1685 C1684 1.414 . S
C1685 C1686 1.374 . S
C1686 H1660 0.950 . S
C1686 C1682 1.385 . S
C1686 C1685 1.374 . S
C1687 C1684 1.499 . S
C1687 C1688 1.373 . S
C1687 C1689 1.389 1_455 S
C1688 H1661 0.950 . S
C1688 C1674 1.377 . S
C1688 C1687 1.373 . S
C1689 C1673 1.377 . S
C1689 C1687 1.389 1_655 S
C1689 C1690 1.524 . S
C1690 C1689 1.524 . S
C1690 C1691 1.397 . S
C1690 C1695 1.363 . S
C1691 H1662 0.950 . S
C1691 C1690 1.397 . S
C1691 C1692 1.334 . S
C1692 H1663 0.950 . S
C1692 C1691 1.334 . S
C1692 C1693 1.287 . S
C1693 C1692 1.287 . S
C1693 C1694 1.524 . S
C1693 H1696 0.999 . S
C1694 H1664 0.950 1_556 S
C1694 C1693 1.524 . S
C1694 C1695 1.415 . S
C1695 H1665 0.950 . S
C1695 C1690 1.363 . S
C1695 C1694 1.415 . S
H1696 C1693 0.999 . S
H1697 C1678 0.913 . S
H1698 C1716 0.951 . S
H1699 C1718 0.951 . S
H1700 C1720 0.950 . S
H1701 C1721 0.950 . S
H1702 C1723 0.953 . S
H1703 C1726 0.950 . S
H1704 C1727 0.950 . S
H1705 C1729 0.950 . S
H1706 C1730 0.950 . S
H1707 C1731 0.951 . S
H1708 C1733 0.951 . S
H1709 C1735 0.950 . S
H1710 C1736 0.950 . S
H1711 C1738 0.953 . S
H1712 C1741 0.950 . S
H1713 C1742 0.950 . S
H1714 C1744 0.950 . S
H1715 C1745 0.950 . S
C1716 H1698 0.951 . S
C1716 C1717 1.366 . S
C1716 C1718 1.388 . S
C1717 C1716 1.366 . S
C1717 C1721 1.385 . S
C1718 H1699 0.951 . S
C1718 C1716 1.388 . S
C1718 C1719 1.366 . S
C1719 C1718 1.366 . S
C1719 C1720 1.414 . S
C1719 C1722 1.499 . S
C1720 H1700 0.950 . S
C1720 C1719 1.414 . S
C1720 C1721 1.374 . S
C1721 H1701 0.950 . S
C1721 C1717 1.385 . S
C1721 C1720 1.374 . S
C1722 C1719 1.499 . S
C1722 C1723 1.414 . S
C1722 C1724 1.389 . S
C1723 H1702 0.953 . S
C1723 C1722 1.414 . S
C1723 C1739 1.335 1_655 S
C1724 C1722 1.389 . S
C1724 C1725 1.524 . S
C1724 C1738 1.336 1_655 S
C1725 C1724 1.524 . S
C1725 C1726 1.397 . S
C1725 C1730 1.363 . S
C1726 H1703 0.950 . S
C1726 C1725 1.397 . S
C1726 C1727 1.334 . S
C1727 H1704 0.950 . S
C1727 C1726 1.334 . S
C1727 C1728 1.287 . S
C1728 C1727 1.287 . S
C1728 C1729 1.524 . S
C1728 H1747 0.913 . S
C1729 H1705 0.950 . S
C1729 C1728 1.524 . S
C1729 C1730 1.415 . S
C1730 H1706 0.950 . S
C1730 C1725 1.363 . S
C1730 C1729 1.415 . S
C1731 H1707 0.951 . S
C1731 C1732 1.366 . S
C1731 C1733 1.388 . S
C1732 C1731 1.366 . S
C1732 C1736 1.385 . S
C1733 H1708 0.951 . S
C1733 C1731 1.388 . S
C1733 C1734 1.366 . S
C1734 C1733 1.366 . S
C1734 C1735 1.414 . S
C1734 C1737 1.499 . S
C1735 H1709 0.950 . S
C1735 C1734 1.414 . S
C1735 C1736 1.374 . S
C1736 H1710 0.950 . S
C1736 C1732 1.385 . S
C1736 C1735 1.374 . S
C1737 C1734 1.499 . S
C1737 C1738 1.413 . S
C1737 C1739 1.389 . S
C1738 H1711 0.953 . S
C1738 C1724 1.336 1_455 S
C1738 C1737 1.413 . S
C1739 C1723 1.335 1_455 S
C1739 C1737 1.389 . S
C1739 C1740 1.524 . S
C1740 C1739 1.524 . S
C1740 C1741 1.397 . S
C1740 C1745 1.363 . S
C1741 H1712 0.950 . S
C1741 C1740 1.397 . S
C1741 C1742 1.334 . S
C1742 H1713 0.950 . S
C1742 C1741 1.334 . S
C1742 C1743 1.287 . S
C1743 C1742 1.287 . S
C1743 C1744 1.524 . S
C1743 H1746 0.999 . S
C1744 H1714 0.950 . S
C1744 C1743 1.524 . S
C1744 C1745 1.415 . S
C1745 H1715 0.950 . S
C1745 C1740 1.363 . S
C1745 C1744 1.415 . S
H1746 C1743 0.999 . S
H1747 C1728 0.913 . S
H1748 C1766 0.951 . S
H1749 C1768 0.951 . S
H1750 C1770 0.950 . S
H1751 C1771 0.950 . S
H1752 C1773 0.950 . S
H1753 C1776 0.950 . S
H1754 C1777 0.950 . S
H1755 C1779 0.950 . S
H1756 C1780 0.950 . S
H1757 C1781 0.951 . S
H1758 C1783 0.951 . S
H1759 C1785 0.950 . S
H1760 C1786 0.950 . S
H1761 C1788 0.950 . S
H1762 C1791 0.950 . S
H1763 C1792 0.950 . S
H1764 C1794 0.950 . S
H1765 C1795 0.950 . S
C1766 H1748 0.951 . S
C1766 C1767 1.366 . S
C1766 C1768 1.388 . S
C1767 C1766 1.366 . S
C1767 C1771 1.385 . S
C1768 H1749 0.951 . S
C1768 C1766 1.388 . S
C1768 C1769 1.366 . S
C1769 C1768 1.366 . S
C1769 C1770 1.414 . S
C1769 C1772 1.499 . S
C1770 H1750 0.950 . S
C1770 C1769 1.414 . S
C1770 C1771 1.374 . S
C1771 H1751 0.950 . S
C1771 C1767 1.385 . S
C1771 C1770 1.374 . S
C1772 C1769 1.499 . S
C1772 C1773 1.373 . S
C1772 C1774 1.389 . S
C1773 H1752 0.950 . S
C1773 C1772 1.373 . S
C1773 C1789 1.377 . S
C1774 C1772 1.389 . S
C1774 C1775 1.524 . S
C1774 C1788 1.377 . S
C1775 C1774 1.524 . S
C1775 C1776 1.397 . S
C1775 C1780 1.363 . S
C1776 H1753 0.950 . S
C1776 C1775 1.397 . S
C1776 C1777 1.334 . S
C1777 H1754 0.950 . S
C1777 C1776 1.334 . S
C1777 C1778 1.287 . S
C1778 C1777 1.287 . S
C1778 C1779 1.524 . S
C1778 H1797 0.913 . S
C1779 H1755 0.950 . S
C1779 C1778 1.524 . S
C1779 C1780 1.415 . S
C1780 H1756 0.950 . S
C1780 C1775 1.363 . S
C1780 C1779 1.415 . S
C1781 H1757 0.951 . S
C1781 C1782 1.366 . S
C1781 C1783 1.388 . S
C1782 C1781 1.366 . S
C1782 C1786 1.385 . S
C1783 H1758 0.951 . S
C1783 C1781 1.388 . S
C1783 C1784 1.366 . S
C1784 C1783 1.366 . S
C1784 C1785 1.414 . S
C1784 C1787 1.499 . S
C1785 H1759 0.950 . S
C1785 C1784 1.414 . S
C1785 C1786 1.374 . S
C1786 H1760 0.950 . S
C1786 C1782 1.385 . S
C1786 C1785 1.374 . S
C1787 C1784 1.499 . S
C1787 C1788 1.373 . S
C1787 C1789 1.389 . S
C1788 H1761 0.950 . S
C1788 C1774 1.377 . S
C1788 C1787 1.373 . S
C1789 C1773 1.377 . S
C1789 C1787 1.389 . S
C1789 C1790 1.524 . S
C1790 C1789 1.524 . S
C1790 C1791 1.397 . S
C1790 C1795 1.363 . S
C1791 H1762 0.950 . S
C1791 C1790 1.397 . S
C1791 C1792 1.334 . S
C1792 H1763 0.950 . S
C1792 C1791 1.334 . S
C1792 C1793 1.287 . S
C1793 C1792 1.287 . S
C1793 C1794 1.524 . S
C1793 H1796 0.999 . S
C1794 H1764 0.950 . S
C1794 C1793 1.524 . S
C1794 C1795 1.415 . S
C1795 H1765 0.950 . S
C1795 C1790 1.363 . S
C1795 C1794 1.415 . S
H1796 C1793 0.999 . S
H1797 C1778 0.913 . S
H1798 C1816 0.951 . S
H1799 C1818 0.951 . S
H1800 C1820 0.950 . S
H1801 C1821 0.950 . S
H1802 C1823 0.950 . S
H1803 C1826 0.950 . S
H1804 C1827 0.950 . S
H1805 C1829 0.950 . S
H1806 C1830 0.950 . S
H1807 C1831 0.951 . S
H1808 C1833 0.951 . S
H1809 C1835 0.950 . S
H1810 C1836 0.950 . S
H1811 C1838 0.950 . S
H1812 C1841 0.950 . S
H1813 C1842 0.950 . S
H1814 C1844 0.950 . S
H1815 C1845 0.950 . S
C1816 H1798 0.951 . S
C1816 C1817 1.366 . S
C1816 C1818 1.388 . S
C1817 C1816 1.366 . S
C1817 C1821 1.385 . S
C1818 H1799 0.951 . S
C1818 C1816 1.388 . S
C1818 C1819 1.366 . S
C1819 C1818 1.366 . S
C1819 C1820 1.414 . S
C1819 C1822 1.499 . S
C1820 H1800 0.950 . S
C1820 C1819 1.414 . S
C1820 C1821 1.374 . S
C1821 H1801 0.950 . S
C1821 C1817 1.385 . S
C1821 C1820 1.374 . S
C1822 C1819 1.499 . S
C1822 C1823 1.373 . S
C1822 C1824 1.389 . S
C1823 H1802 0.950 . S
C1823 C1822 1.373 . S
C1823 C1839 1.377 . S
C1824 C1822 1.389 . S
C1824 C1825 1.524 . S
C1824 C1838 1.377 . S
C1825 C1824 1.524 . S
C1825 C1826 1.397 . S
C1825 C1830 1.363 . S
C1826 H1803 0.950 . S
C1826 C1825 1.397 . S
C1826 C1827 1.334 . S
C1827 H1804 0.950 . S
C1827 C1826 1.334 . S
C1827 C1828 1.287 . S
C1828 C1827 1.287 . S
C1828 C1829 1.524 . S
C1828 H1847 0.913 . S
C1829 H1805 0.950 . S
C1829 C1828 1.524 . S
C1829 C1830 1.415 . S
C1830 H1806 0.950 . S
C1830 C1825 1.363 . S
C1830 C1829 1.415 . S
C1831 H1807 0.951 . S
C1831 C1832 1.366 . S
C1831 C1833 1.388 . S
C1832 C1831 1.366 . S
C1832 C1836 1.385 . S
C1833 H1808 0.951 . S
C1833 C1831 1.388 . S
C1833 C1834 1.366 . S
C1834 C1833 1.366 . S
C1834 C1835 1.414 . S
C1834 C1837 1.499 . S
C1835 H1809 0.950 . S
C1835 C1834 1.414 . S
C1835 C1836 1.374 . S
C1836 H1810 0.950 . S
C1836 C1832 1.385 . S
C1836 C1835 1.374 . S
C1837 C1834 1.499 . S
C1837 C1838 1.373 . S
C1837 C1839 1.389 . S
C1838 H1811 0.950 . S
C1838 C1824 1.377 . S
C1838 C1837 1.373 . S
C1839 C1823 1.377 . S
C1839 C1837 1.389 . S
C1839 C1840 1.524 . S
C1840 C1839 1.524 . S
C1840 C1841 1.397 . S
C1840 C1845 1.363 . S
C1841 H1812 0.950 . S
C1841 C1840 1.397 . S
C1841 C1842 1.334 . S
C1842 H1813 0.950 . S
C1842 C1841 1.334 . S
C1842 C1843 1.287 . S
C1843 C1842 1.287 . S
C1843 C1844 1.524 . S
C1843 H1846 0.999 . S
C1844 H1814 0.950 . S
C1844 C1843 1.524 . S
C1844 C1845 1.415 . S
C1845 H1815 0.950 . S
C1845 C1840 1.363 . S
C1845 C1844 1.415 . S
H1846 C1843 0.999 . S
H1847 C1828 0.913 . S
H1848 C1866 0.951 . S
H1849 C1868 0.951 . S
H1850 C1870 0.952 . S
H1851 C1871 0.950 . S
H1852 C1873 0.950 . S
H1853 C1876 0.950 . S
H1854 C1877 0.950 . S
H1855 C1879 0.950 . S
H1856 C1880 0.950 . S
H1857 C1881 0.951 . S
H1858 C1883 0.951 . S
H1859 C1885 0.952 . S
H1860 C1886 0.950 . S
H1861 C1888 0.950 . S
H1862 C1891 0.950 . S
H1863 C1892 0.950 . S
H1864 C1894 0.950 . S
H1865 C1895 0.950 . S
C1866 H1848 0.951 . S
C1866 C1867 1.366 . S
C1866 C1868 1.388 . S
C1867 C1866 1.366 . S
C1867 C1871 1.385 . S
C1868 H1849 0.951 . S
C1868 C1866 1.388 . S
C1868 C1869 1.366 . S
C1869 C1868 1.366 . S
C1869 C1870 1.414 . S
C1869 C1872 1.499 . S
C1870 H1850 0.952 . S
C1870 C1869 1.414 . S
C1870 C1871 1.374 . S
C1871 H1851 0.950 . S
C1871 C1867 1.385 . S
C1871 C1870 1.374 . S
C1872 C1869 1.499 . S
C1872 C1873 1.371 1_655 S
C1872 C1874 1.389 . S
C1873 H1852 0.950 . S
C1873 C1872 1.371 1_455 S
C1873 C1889 1.379 . S
C1874 C1872 1.389 . S
C1874 C1875 1.524 . S
C1874 C1888 1.379 . S
C1875 C1874 1.524 . S
C1875 C1876 1.397 . S
C1875 C1880 1.363 . S
C1876 H1853 0.950 . S
C1876 C1875 1.397 . S
C1876 C1877 1.334 . S
C1877 H1854 0.950 . S
C1877 C1876 1.334 . S
C1877 C1878 1.287 . S
C1878 C1877 1.287 . S
C1878 C1879 1.524 . S
C1878 H1897 0.913 . S
C1879 H1855 0.950 . S
C1879 C1878 1.524 . S
C1879 C1880 1.415 . S
C1880 H1856 0.950 . S
C1880 C1875 1.363 . S
C1880 C1879 1.415 . S
C1881 H1857 0.951 . S
C1881 C1882 1.366 . S
C1881 C1883 1.388 . S
C1882 C1881 1.366 . S
C1882 C1886 1.385 . S
C1883 H1858 0.951 . S
C1883 C1881 1.388 . S
C1883 C1884 1.366 . S
C1884 C1883 1.366 . S
C1884 C1885 1.414 . S
C1884 C1887 1.499 . S
C1885 H1859 0.952 . S
C1885 C1884 1.414 . S
C1885 C1886 1.374 . S
C1886 H1860 0.950 . S
C1886 C1882 1.385 . S
C1886 C1885 1.374 . S
C1887 C1884 1.499 . S
C1887 C1888 1.371 1_455 S
C1887 C1889 1.389 . S
C1888 H1861 0.950 . S
C1888 C1874 1.379 . S
C1888 C1887 1.371 1_655 S
C1889 C1873 1.379 . S
C1889 C1887 1.389 . S
C1889 C1890 1.524 . S
C1890 C1889 1.524 . S
C1890 C1891 1.397 . S
C1890 C1895 1.363 . S
C1891 H1862 0.950 . S
C1891 C1890 1.397 . S
C1891 C1892 1.334 . S
C1892 H1863 0.950 . S
C1892 C1891 1.334 . S
C1892 C1893 1.287 . S
C1893 C1892 1.287 . S
C1893 C1894 1.524 . S
C1893 H1896 0.999 . S
C1894 H1864 0.950 . S
C1894 C1893 1.524 . S
C1894 C1895 1.415 . S
C1895 H1865 0.950 . S
C1895 C1890 1.363 . S
C1895 C1894 1.415 . S
H1896 C1893 0.999 . S
H1897 C1878 0.913 . S
H1898 C1916 0.951 . S
H1899 C1918 0.951 . S
H1900 C1920 0.950 . S
H1901 C1921 0.950 . S
H1902 C1923 0.950 . S
H1903 C1926 0.950 . S
H1904 C1927 0.950 . S
H1905 C1929 0.950 . S
H1906 C1930 0.950 . S
H1907 C1931 0.951 . S
H1908 C1933 0.951 . S
H1909 C1935 0.950 . S
H1910 C1936 0.950 . S
H1911 C1938 0.950 . S
H1912 C1941 0.950 . S
H1913 C1942 0.950 . S
H1914 C1944 0.950 . S
H1915 C1945 0.950 . S
C1916 H1898 0.951 . S
C1916 C1917 1.366 . S
C1916 C1918 1.388 . S
C1917 C1916 1.366 . S
C1917 C1921 1.385 . S
C1918 H1899 0.951 . S
C1918 C1916 1.388 . S
C1918 C1919 1.366 . S
C1919 C1918 1.366 . S
C1919 C1920 1.414 . S
C1919 C1922 1.499 . S
C1920 H1900 0.950 . S
C1920 C1919 1.414 . S
C1920 C1921 1.374 . S
C1921 H1901 0.950 . S
C1921 C1917 1.385 . S
C1921 C1920 1.374 . S
C1922 C1919 1.499 . S
C1922 C1923 1.373 . S
C1922 C1924 1.389 . S
C1923 H1902 0.950 . S
C1923 C1922 1.373 . S
C1923 C1939 1.377 . S
C1924 C1922 1.389 . S
C1924 C1925 1.524 . S
C1924 C1938 1.377 . S
C1925 C1924 1.524 . S
C1925 C1926 1.397 . S
C1925 C1930 1.363 . S
C1926 H1903 0.950 . S
C1926 C1925 1.397 . S
C1926 C1927 1.334 . S
C1927 H1904 0.950 . S
C1927 C1926 1.334 . S
C1927 C1928 1.287 . S
C1928 C1927 1.287 . S
C1928 C1929 1.524 . S
C1928 H1947 0.913 . S
C1929 H1905 0.950 . S
C1929 C1928 1.524 . S
C1929 C1930 1.415 . S
C1930 H1906 0.950 . S
C1930 C1925 1.363 . S
C1930 C1929 1.415 . S
C1931 H1907 0.951 . S
C1931 C1932 1.366 . S
C1931 C1933 1.388 . S
C1932 C1931 1.366 . S
C1932 C1936 1.385 . S
C1933 H1908 0.951 . S
C1933 C1931 1.388 . S
C1933 C1934 1.366 . S
C1934 C1933 1.366 . S
C1934 C1935 1.414 . S
C1934 C1937 1.499 . S
C1935 H1909 0.950 . S
C1935 C1934 1.414 . S
C1935 C1936 1.374 . S
C1936 H1910 0.950 . S
C1936 C1932 1.385 . S
C1936 C1935 1.374 . S
C1937 C1934 1.499 . S
C1937 C1938 1.373 . S
C1937 C1939 1.389 . S
C1938 H1911 0.950 . S
C1938 C1924 1.377 . S
C1938 C1937 1.373 . S
C1939 C1923 1.377 . S
C1939 C1937 1.389 . S
C1939 C1940 1.524 . S
C1940 C1939 1.524 . S
C1940 C1941 1.397 . S
C1940 C1945 1.363 . S
C1941 H1912 0.950 . S
C1941 C1940 1.397 . S
C1941 C1942 1.334 . S
C1942 H1913 0.950 . S
C1942 C1941 1.334 . S
C1942 C1943 1.287 . S
C1943 C1942 1.287 . S
C1943 C1944 1.524 . S
C1943 H1946 0.999 . S
C1944 H1914 0.950 . S
C1944 C1943 1.524 . S
C1944 C1945 1.415 . S
C1945 H1915 0.950 . S
C1945 C1940 1.363 . S
C1945 C1944 1.415 . S
H1946 C1943 0.999 . S
H1947 C1928 0.913 . S
H1948 C1966 0.951 . S
H1949 C1968 0.951 . S
H1950 C1970 0.950 . S
H1951 C1971 0.950 . S
H1952 C1973 0.950 . S
H1953 C1976 0.950 . S
H1954 C1977 0.950 . S
H1955 C1979 0.950 . S
H1956 C1980 0.950 . S
H1957 C1981 0.951 . S
H1958 C1983 0.951 . S
H1959 C1985 0.950 . S
H1960 C1986 0.950 . S
H1961 C1988 0.950 . S
H1962 C1991 0.950 . S
H1963 C1992 0.950 . S
H1964 C1994 0.950 . S
H1965 C1995 0.950 . S
C1966 H1948 0.951 . S
C1966 C1967 1.366 . S
C1966 C1968 1.388 . S
C1967 C1966 1.366 . S
C1967 C1971 1.385 . S
C1968 H1949 0.951 . S
C1968 C1966 1.388 . S
C1968 C1969 1.366 . S
C1969 C1968 1.366 . S
C1969 C1970 1.414 . S
C1969 C1972 1.499 . S
C1970 H1950 0.950 . S
C1970 C1969 1.414 . S
C1970 C1971 1.374 . S
C1971 H1951 0.950 . S
C1971 C1967 1.385 . S
C1971 C1970 1.374 . S
C1972 C1969 1.499 . S
C1972 C1973 1.373 . S
C1972 C1974 1.389 . S
C1973 H1952 0.950 . S
C1973 C1972 1.373 . S
C1973 C1989 1.377 . S
C1974 C1972 1.389 . S
C1974 C1975 1.524 . S
C1974 C1988 1.377 . S
C1975 C1974 1.524 . S
C1975 C1976 1.397 . S
C1975 C1980 1.363 . S
C1976 H1953 0.950 . S
C1976 C1975 1.397 . S
C1976 C1977 1.334 . S
C1977 H1954 0.950 . S
C1977 C1976 1.334 . S
C1977 C1978 1.287 . S
C1978 C1977 1.287 . S
C1978 C1979 1.524 . S
C1978 H1997 0.913 . S
C1979 H1955 0.950 . S
C1979 C1978 1.524 . S
C1979 C1980 1.415 . S
C1980 H1956 0.950 . S
C1980 C1975 1.363 . S
C1980 C1979 1.415 . S
C1981 H1957 0.951 . S
C1981 C1982 1.366 . S
C1981 C1983 1.388 . S
C1982 C1981 1.366 . S
C1982 C1986 1.385 . S
C1983 H1958 0.951 . S
C1983 C1981 1.388 . S
C1983 C1984 1.366 . S
C1984 C1983 1.366 . S
C1984 C1985 1.414 . S
C1984 C1987 1.499 . S
C1985 H1959 0.950 . S
C1985 C1984 1.414 . S
C1985 C1986 1.374 . S
C1986 H1960 0.950 . S
C1986 C1982 1.385 . S
C1986 C1985 1.374 . S
C1987 C1984 1.499 . S
C1987 C1988 1.373 . S
C1987 C1989 1.389 . S
C1988 H1961 0.950 . S
C1988 C1974 1.377 . S
C1988 C1987 1.373 . S
C1989 C1973 1.377 . S
C1989 C1987 1.389 . S
C1989 C1990 1.524 . S
C1990 C1989 1.524 . S
C1990 C1991 1.397 . S
C1990 C1995 1.363 . S
C1991 H1962 0.950 . S
C1991 C1990 1.397 . S
C1991 C1992 1.334 . S
C1992 H1963 0.950 . S
C1992 C1991 1.334 . S
C1992 C1993 1.287 . S
C1993 C1992 1.287 . S
C1993 C1994 1.524 . S
C1993 H1996 0.999 . S
C1994 H1964 0.950 . S
C1994 C1993 1.524 . S
C1994 C1995 1.415 . S
C1995 H1965 0.950 . S
C1995 C1990 1.363 . S
C1995 C1994 1.415 . S
H1996 C1993 0.999 . S
H1997 C1978 0.913 . S
H1998 C2016 0.951 . S
H1999 C2018 0.951 . S
H2000 C2020 0.950 . S
H2001 C2021 0.950 . S
H2002 C2023 0.950 . S
H2003 C2026 0.950 . S
H2004 C2027 0.950 . S
H2005 C2029 0.950 . S
H2006 C2030 0.950 . S
H2007 C2031 0.951 . S
H2008 C2033 0.951 . S
H2009 C2035 0.950 . S
H2010 C2036 0.950 . S
H2011 C2038 0.950 . S
H2012 C2041 0.950 . S
H2013 C2042 0.950 . S
H2014 C2044 0.950 . S
H2015 C2045 0.950 . S
C2016 H1998 0.951 . S
C2016 C2017 1.366 . S
C2016 C2018 1.388 . S
C2017 C2016 1.366 . S
C2017 C2021 1.385 . S
C2018 H1999 0.951 . S
C2018 C2016 1.388 . S
C2018 C2019 1.366 . S
C2019 C2018 1.366 . S
C2019 C2020 1.414 . S
C2019 C2022 1.499 . S
C2020 H2000 0.950 . S
C2020 C2019 1.414 . S
C2020 C2021 1.374 . S
C2021 H2001 0.950 . S
C2021 C2017 1.385 . S
C2021 C2020 1.374 . S
C2022 C2019 1.499 . S
C2022 C2023 1.373 . S
C2022 C2024 1.389 . S
C2023 H2002 0.950 . S
C2023 C2022 1.373 . S
C2023 C2039 1.377 1_655 S
C2024 C2022 1.389 . S
C2024 C2025 1.524 . S
C2024 C2038 1.377 1_655 S
C2025 C2024 1.524 . S
C2025 C2026 1.397 . S
C2025 C2030 1.363 . S
C2026 H2003 0.950 . S
C2026 C2025 1.397 . S
C2026 C2027 1.334 . S
C2027 H2004 0.950 . S
C2027 C2026 1.334 . S
C2027 C2028 1.287 . S
C2028 C2027 1.287 . S
C2028 C2029 1.524 . S
C2028 H2047 0.913 . S
C2029 H2005 0.950 . S
C2029 C2028 1.524 . S
C2029 C2030 1.415 . S
C2030 H2006 0.950 . S
C2030 C2025 1.363 . S
C2030 C2029 1.415 . S
C2031 H2007 0.951 . S
C2031 C2032 1.366 . S
C2031 C2033 1.388 . S
C2032 C2031 1.366 . S
C2032 C2036 1.385 . S
C2033 H2008 0.951 . S
C2033 C2031 1.388 . S
C2033 C2034 1.366 . S
C2034 C2033 1.366 . S
C2034 C2035 1.414 . S
C2034 C2037 1.499 . S
C2035 H2009 0.950 . S
C2035 C2034 1.414 . S
C2035 C2036 1.374 . S
C2036 H2010 0.950 . S
C2036 C2032 1.385 . S
C2036 C2035 1.374 . S
C2037 C2034 1.499 . S
C2037 C2038 1.373 . S
C2037 C2039 1.389 . S
C2038 H2011 0.950 . S
C2038 C2024 1.377 1_455 S
C2038 C2037 1.373 . S
C2039 C2023 1.377 1_455 S
C2039 C2037 1.389 . S
C2039 C2040 1.524 . S
C2040 C2039 1.524 . S
C2040 C2041 1.397 . S
C2040 C2045 1.363 . S
C2041 H2012 0.950 . S
C2041 C2040 1.397 . S
C2041 C2042 1.334 . S
C2042 H2013 0.950 . S
C2042 C2041 1.334 . S
C2042 C2043 1.287 . S
C2043 C2042 1.287 . S
C2043 C2044 1.524 . S
C2043 H2046 0.999 . S
C2044 H2014 0.950 . S
C2044 C2043 1.524 . S
C2044 C2045 1.415 . S
C2045 H2015 0.950 . S
C2045 C2040 1.363 . S
C2045 C2044 1.415 . S
H2046 C2043 0.999 . S
H2047 C2028 0.913 . S
H2048 C2066 0.951 . S
H2049 C2068 0.951 . S
H2050 C2070 0.950 . S
H2051 C2071 0.950 . S
H2052 C2073 0.950 . S
H2053 C2076 0.950 . S
H2054 C2077 0.950 . S
H2055 C2079 0.950 . S
H2056 C2080 0.962 . S
H2057 C2081 0.951 . S
H2058 C2083 0.951 . S
H2059 C2085 0.950 . S
H2060 C2086 0.950 . S
H2061 C2088 0.950 . S
H2062 C2091 0.950 . S
H2063 C2092 0.950 . S
H2064 C2094 0.950 . S
H2065 C2095 0.962 . S
C2066 H2048 0.951 . S
C2066 C2067 1.366 . S
C2066 C2068 1.388 . S
C2067 C2066 1.366 . S
C2067 C2071 1.385 . S
C2068 H2049 0.951 . S
C2068 C2066 1.388 . S
C2068 C2069 1.366 . S
C2069 C2068 1.366 . S
C2069 C2070 1.414 . S
C2069 C2072 1.499 . S
C2070 H2050 0.950 . S
C2070 C2069 1.414 . S
C2070 C2071 1.374 . S
C2071 H2051 0.950 . S
C2071 C2067 1.385 . S
C2071 C2070 1.374 . S
C2072 C2069 1.499 . S
C2072 C2073 1.373 . S
C2072 C2074 1.389 1_556 S
C2073 H2052 0.950 . S
C2073 C2072 1.373 . S
C2073 C2089 1.377 . S
C2074 C2072 1.389 1_554 S
C2074 C2075 1.524 . S
C2074 C2088 1.377 . S
C2075 C2074 1.524 . S
C2075 C2076 1.397 . S
C2075 C2080 1.363 . S
C2076 H2053 0.950 . S
C2076 C2075 1.397 . S
C2076 C2077 1.334 . S
C2077 H2054 0.950 . S
C2077 C2076 1.334 . S
C2077 C2078 1.287 . S
C2078 C2077 1.287 . S
C2078 C2079 1.524 . S
C2078 H2097 0.913 . S
C2079 H2055 0.950 . S
C2079 C2078 1.524 . S
C2079 C2080 1.415 . S
C2080 H2056 0.962 . S
C2080 C2075 1.363 . S
C2080 C2079 1.415 . S
C2081 H2057 0.951 . S
C2081 C2082 1.366 . S
C2081 C2083 1.388 . S
C2082 C2081 1.366 . S
C2082 C2086 1.385 . S
C2083 H2058 0.951 . S
C2083 C2081 1.388 . S
C2083 C2084 1.366 . S
C2084 C2083 1.366 . S
C2084 C2085 1.414 . S
C2084 C2087 1.499 . S
C2085 H2059 0.950 . S
C2085 C2084 1.414 . S
C2085 C2086 1.374 . S
C2086 H2060 0.950 . S
C2086 C2082 1.385 . S
C2086 C2085 1.374 . S
C2087 C2084 1.499 . S
C2087 C2088 1.373 . S
C2087 C2089 1.389 1_554 S
C2088 H2061 0.950 . S
C2088 C2074 1.377 . S
C2088 C2087 1.373 . S
C2089 C2073 1.377 . S
C2089 C2087 1.389 1_556 S
C2089 C2090 1.524 . S
C2090 C2089 1.524 . S
C2090 C2091 1.397 . S
C2090 C2095 1.363 . S
C2091 H2062 0.950 . S
C2091 C2090 1.397 . S
C2091 C2092 1.334 . S
C2092 H2063 0.950 . S
C2092 C2091 1.334 . S
C2092 C2093 1.287 . S
C2093 C2092 1.287 . S
C2093 C2094 1.524 . S
C2093 H2096 0.999 . S
C2094 H2064 0.950 . S
C2094 C2093 1.524 . S
C2094 C2095 1.415 . S
C2095 H2065 0.962 . S
C2095 C2090 1.363 . S
C2095 C2094 1.415 . S
H2096 C2093 0.999 . S
H2097 C2078 0.913 . S
H2098 C2116 0.951 . S
H2099 C2118 0.951 . S
H2100 C2120 0.950 . S
H2101 C2121 0.950 . S
H2102 C2123 0.950 . S
H2103 C2126 0.950 . S
H2104 C2127 0.950 . S
H2105 C2129 0.950 . S
H2106 C2130 0.950 . S
H2107 C2131 0.951 . S
H2108 C2133 0.951 . S
H2109 C2135 0.950 . S
H2110 C2136 0.950 . S
H2111 C2138 0.950 . S
H2112 C2141 0.950 . S
H2113 C2142 0.950 . S
H2114 C2144 0.950 . S
H2115 C2145 0.950 . S
C2116 H2098 0.951 . S
C2116 C2117 1.366 . S
C2116 C2118 1.388 . S
C2117 C2116 1.366 . S
C2117 C2121 1.385 . S
C2118 H2099 0.951 . S
C2118 C2116 1.388 . S
C2118 C2119 1.366 . S
C2119 C2118 1.366 . S
C2119 C2120 1.414 . S
C2119 C2122 1.499 . S
C2120 H2100 0.950 . S
C2120 C2119 1.414 . S
C2120 C2121 1.374 . S
C2121 H2101 0.950 . S
C2121 C2117 1.385 . S
C2121 C2120 1.374 . S
C2122 C2119 1.499 . S
C2122 C2123 1.373 . S
C2122 C2124 1.389 . S
C2123 H2102 0.950 . S
C2123 C2122 1.373 . S
C2123 C2139 1.377 1_545 S
C2124 C2122 1.389 . S
C2124 C2125 1.524 . S
C2124 C2138 1.377 1_545 S
C2125 C2124 1.524 . S
C2125 C2126 1.397 . S
C2125 C2130 1.363 1_545 S
C2126 H2103 0.950 . S
C2126 C2125 1.397 . S
C2126 C2127 1.334 . S
C2127 H2104 0.950 . S
C2127 C2126 1.334 . S
C2127 C2128 1.287 . S
C2128 C2127 1.287 . S
C2128 C2129 1.524 1_545 S
C2128 H2147 0.913 . S
C2129 H2105 0.950 . S
C2129 C2128 1.524 1_565 S
C2129 C2130 1.415 . S
C2130 H2106 0.950 . S
C2130 C2125 1.363 1_565 S
C2130 C2129 1.415 . S
C2131 H2107 0.951 . S
C2131 C2132 1.366 . S
C2131 C2133 1.388 . S
C2132 C2131 1.366 . S
C2132 C2136 1.385 . S
C2133 H2108 0.951 . S
C2133 C2131 1.388 . S
C2133 C2134 1.366 . S
C2134 C2133 1.366 . S
C2134 C2135 1.414 . S
C2134 C2137 1.499 . S
C2135 H2109 0.950 . S
C2135 C2134 1.414 . S
C2135 C2136 1.374 . S
C2136 H2110 0.950 . S
C2136 C2132 1.385 . S
C2136 C2135 1.374 . S
C2137 C2134 1.499 . S
C2137 C2138 1.373 . S
C2137 C2139 1.389 . S
C2138 H2111 0.950 . S
C2138 C2124 1.377 1_565 S
C2138 C2137 1.373 . S
C2139 C2123 1.377 1_565 S
C2139 C2137 1.389 . S
C2139 C2140 1.524 . S
C2140 C2139 1.524 . S
C2140 C2141 1.397 . S
C2140 C2145 1.363 1_565 S
C2141 H2112 0.950 . S
C2141 C2140 1.397 . S
C2141 C2142 1.334 . S
C2142 H2113 0.950 . S
C2142 C2141 1.334 . S
C2142 C2143 1.287 . S
C2143 C2142 1.287 . S
C2143 C2144 1.524 1_565 S
C2143 H2146 0.999 . S
C2144 H2114 0.950 . S
C2144 C2143 1.524 1_545 S
C2144 C2145 1.415 . S
C2145 H2115 0.950 . S
C2145 C2140 1.363 1_545 S
C2145 C2144 1.415 . S
H2146 C2143 0.999 . S
H2147 C2128 0.913 . S
H2148 C2166 0.951 . S
H2149 C2168 0.951 . S
H2150 C2170 0.950 . S
H2151 C2171 0.950 . S
H2152 C2173 0.950 . S
H2153 C2176 0.950 . S
H2154 C2177 0.950 . S
H2155 C2179 0.950 . S
H2156 C2180 0.950 . S
H2157 C2181 0.951 . S
H2158 C2183 0.951 . S
H2159 C2185 0.950 . S
H2160 C2186 0.950 . S
H2161 C2188 0.950 . S
H2162 C2191 0.950 . S
H2163 C2192 0.950 . S
H2164 C2194 0.950 . S
H2165 C2195 0.950 . S
C2166 H2148 0.951 . S
C2166 C2167 1.366 . S
C2166 C2168 1.388 . S
C2167 C2166 1.366 . S
C2167 C2171 1.385 . S
C2168 H2149 0.951 . S
C2168 C2166 1.388 . S
C2168 C2169 1.366 . S
C2169 C2168 1.366 . S
C2169 C2170 1.414 . S
C2169 C2172 1.499 . S
C2170 H2150 0.950 . S
C2170 C2169 1.414 . S
C2170 C2171 1.374 . S
C2171 H2151 0.950 . S
C2171 C2167 1.385 . S
C2171 C2170 1.374 . S
C2172 C2169 1.499 . S
C2172 C2173 1.373 . S
C2172 C2174 1.389 . S
C2173 H2152 0.950 . S
C2173 C2172 1.373 . S
C2173 C2189 1.377 . S
C2174 C2172 1.389 . S
C2174 C2175 1.524 . S
C2174 C2188 1.377 . S
C2175 C2174 1.524 . S
C2175 C2176 1.397 . S
C2175 C2180 1.363 . S
C2176 H2153 0.950 . S
C2176 C2175 1.397 . S
C2176 C2177 1.334 . S
C2177 H2154 0.950 . S
C2177 C2176 1.334 . S
C2177 C2178 1.287 . S
C2178 C2177 1.287 . S
C2178 C2179 1.524 . S
C2178 H2197 0.913 . S
C2179 H2155 0.950 . S
C2179 C2178 1.524 . S
C2179 C2180 1.415 . S
C2180 H2156 0.950 . S
C2180 C2175 1.363 . S
C2180 C2179 1.415 . S
C2181 H2157 0.951 . S
C2181 C2182 1.366 . S
C2181 C2183 1.388 . S
C2182 C2181 1.366 . S
C2182 C2186 1.385 . S
C2183 H2158 0.951 . S
C2183 C2181 1.388 . S
C2183 C2184 1.366 . S
C2184 C2183 1.366 . S
C2184 C2185 1.414 . S
C2184 C2187 1.499 . S
C2185 H2159 0.950 . S
C2185 C2184 1.414 . S
C2185 C2186 1.374 . S
C2186 H2160 0.950 . S
C2186 C2182 1.385 . S
C2186 C2185 1.374 . S
C2187 C2184 1.499 . S
C2187 C2188 1.373 . S
C2187 C2189 1.389 . S
C2188 H2161 0.950 . S
C2188 C2174 1.377 . S
C2188 C2187 1.373 . S
C2189 C2173 1.377 . S
C2189 C2187 1.389 . S
C2189 C2190 1.524 . S
C2190 C2189 1.524 . S
C2190 C2191 1.397 . S
C2190 C2195 1.363 . S
C2191 H2162 0.950 . S
C2191 C2190 1.397 . S
C2191 C2192 1.334 . S
C2192 H2163 0.950 . S
C2192 C2191 1.334 . S
C2192 C2193 1.287 . S
C2193 C2192 1.287 . S
C2193 C2194 1.524 . S
C2193 H2196 0.999 . S
C2194 H2164 0.950 . S
C2194 C2193 1.524 . S
C2194 C2195 1.415 . S
C2195 H2165 0.950 . S
C2195 C2190 1.363 . S
C2195 C2194 1.415 . S
H2196 C2193 0.999 . S
H2197 C2178 0.913 . S
H2198 C2216 0.951 . S
H2199 C2218 0.951 . S
H2200 C2220 0.950 . S
H2201 C2221 0.950 . S
H2202 C2223 0.950 . S
H2203 C2226 0.950 . S
H2204 C2227 0.950 . S
H2205 C2229 0.950 . S
H2206 C2230 0.950 . S
H2207 C2231 0.951 . S
H2208 C2233 0.951 . S
H2209 C2235 0.950 . S
H2210 C2236 0.950 . S
H2211 C2238 0.950 . S
H2212 C2241 0.950 . S
H2213 C2242 0.950 . S
H2214 C2244 0.950 . S
H2215 C2245 0.950 . S
C2216 H2198 0.951 . S
C2216 C2217 1.366 . S
C2216 C2218 1.388 . S
C2217 C2216 1.366 . S
C2217 C2221 1.385 . S
C2218 H2199 0.951 . S
C2218 C2216 1.388 . S
C2218 C2219 1.366 . S
C2219 C2218 1.366 . S
C2219 C2220 1.414 . S
C2219 C2222 1.499 . S
C2220 H2200 0.950 . S
C2220 C2219 1.414 . S
C2220 C2221 1.374 . S
C2221 H2201 0.950 . S
C2221 C2217 1.385 . S
C2221 C2220 1.374 . S
C2222 C2219 1.499 . S
C2222 C2223 1.373 . S
C2222 C2224 1.385 1_545 S
C2223 H2202 0.950 . S
C2223 C2222 1.373 . S
C2223 C2239 1.381 . S
C2224 C2222 1.385 1_565 S
C2224 C2225 1.525 . S
C2224 C2238 1.381 . S
C2225 C2224 1.525 . S
C2225 C2226 1.397 1_565 S
C2225 C2230 1.363 . S
C2226 H2203 0.950 . S
C2226 C2225 1.397 1_545 S
C2226 C2227 1.334 . S
C2227 H2204 0.950 . S
C2227 C2226 1.334 . S
C2227 C2228 1.287 1_545 S
C2228 C2227 1.287 1_565 S
C2228 C2229 1.524 . S
C2228 H2247 0.913 . S
C2229 H2205 0.950 . S
C2229 C2228 1.524 . S
C2229 C2230 1.415 . S
C2230 H2206 0.950 . S
C2230 C2225 1.363 . S
C2230 C2229 1.415 . S
C2231 H2207 0.951 . S
C2231 C2232 1.366 . S
C2231 C2233 1.388 . S
C2232 C2231 1.366 . S
C2232 C2236 1.385 . S
C2233 H2208 0.951 . S
C2233 C2231 1.388 . S
C2233 C2234 1.366 . S
C2234 C2233 1.366 . S
C2234 C2235 1.414 . S
C2234 C2237 1.499 . S
C2235 H2209 0.950 . S
C2235 C2234 1.414 . S
C2235 C2236 1.374 . S
C2236 H2210 0.950 . S
C2236 C2232 1.385 . S
C2236 C2235 1.374 . S
C2237 C2234 1.499 . S
C2237 C2238 1.373 . S
C2237 C2239 1.385 1_565 S
C2238 H2211 0.950 . S
C2238 C2224 1.381 . S
C2238 C2237 1.373 . S
C2239 C2223 1.381 . S
C2239 C2237 1.385 1_545 S
C2239 C2240 1.525 . S
C2240 C2239 1.525 . S
C2240 C2241 1.397 1_545 S
C2240 C2245 1.363 . S
C2241 H2212 0.950 . S
C2241 C2240 1.397 1_565 S
C2241 C2242 1.334 . S
C2242 H2213 0.950 . S
C2242 C2241 1.334 . S
C2242 C2243 1.287 1_565 S
C2243 C2242 1.287 1_545 S
C2243 C2244 1.524 . S
C2243 H2246 0.999 . S
C2244 H2214 0.950 . S
C2244 C2243 1.524 . S
C2244 C2245 1.415 . S
C2245 H2215 0.950 . S
C2245 C2240 1.363 . S
C2245 C2244 1.415 . S
H2246 C2243 0.999 . S
H2247 C2228 0.913 . S
H2248 C2266 0.951 . S
H2249 C2268 0.951 1_556 S
H2250 C2270 0.950 . S
H2251 C2271 0.950 . S
H2252 C2273 0.950 . S
H2253 C2276 0.950 . S
H2254 C2277 0.950 . S
H2255 C2279 0.950 . S
H2256 C2280 0.950 . S
H2257 C2281 0.951 . S
H2258 C2283 0.951 1_554 S
H2259 C2285 0.950 . S
H2260 C2286 0.950 . S
H2261 C2288 0.950 . S
H2262 C2291 0.950 . S
H2263 C2292 0.950 . S
H2264 C2294 0.950 . S
H2265 C2295 0.950 . S
C2266 H2248 0.951 . S
C2266 C2267 1.366 . S
C2266 C2268 1.388 . S
C2267 C2266 1.366 . S
C2267 C2271 1.385 . S
C2268 H2249 0.951 1_554 S
C2268 C2266 1.388 . S
C2268 C2269 1.366 . S
C2269 C2268 1.366 . S
C2269 C2270 1.414 . S
C2269 C2272 1.499 . S
C2270 H2250 0.950 . S
C2270 C2269 1.414 . S
C2270 C2271 1.374 . S
C2271 H2251 0.950 . S
C2271 C2267 1.385 . S
C2271 C2270 1.374 . S
C2272 C2269 1.499 . S
C2272 C2273 1.373 . S
C2272 C2274 1.337 1_554 S
C2273 H2252 0.950 . S
C2273 C2272 1.373 . S
C2273 C2289 1.426 . S
C2274 C2272 1.337 1_556 S
C2274 C2275 1.533 . S
C2274 C2288 1.426 . S
C2275 C2274 1.533 . S
C2275 C2276 1.397 1_556 S
C2275 C2280 1.363 . S
C2276 H2253 0.950 . S
C2276 C2275 1.397 1_554 S
C2276 C2277 1.334 . S
C2277 H2254 0.950 . S
C2277 C2276 1.334 . S
C2277 C2278 1.200 1_554 S
C2278 C2277 1.200 1_556 S
C2278 C2279 1.616 . S
C2278 H2297 0.913 . S
C2279 H2255 0.950 . S
C2279 C2278 1.616 . S
C2279 C2280 1.415 . S
C2280 H2256 0.950 . S
C2280 C2275 1.363 . S
C2280 C2279 1.415 . S
C2281 H2257 0.951 . S
C2281 C2282 1.366 . S
C2281 C2283 1.388 . S
C2282 C2281 1.366 . S
C2282 C2286 1.385 . S
C2283 H2258 0.951 1_556 S
C2283 C2281 1.388 . S
C2283 C2284 1.366 . S
C2284 C2283 1.366 . S
C2284 C2285 1.414 . S
C2284 C2287 1.499 . S
C2285 H2259 0.950 . S
C2285 C2284 1.414 . S
C2285 C2286 1.374 . S
C2286 H2260 0.950 . S
C2286 C2282 1.385 . S
C2286 C2285 1.374 . S
C2287 C2284 1.499 . S
C2287 C2288 1.373 . S
C2287 C2289 1.337 1_556 S
C2288 H2261 0.950 . S
C2288 C2274 1.426 . S
C2288 C2287 1.373 . S
C2289 C2273 1.426 . S
C2289 C2287 1.337 1_554 S
C2289 C2290 1.533 . S
C2290 C2289 1.533 . S
C2290 C2291 1.397 1_554 S
C2290 C2295 1.363 . S
C2291 H2262 0.950 . S
C2291 C2290 1.397 1_556 S
C2291 C2292 1.334 . S
C2292 H2263 0.950 . S
C2292 C2291 1.334 . S
C2292 C2293 1.200 1_556 S
C2293 C2292 1.200 1_554 S
C2293 C2294 1.616 . S
C2293 H2296 1.009 . S
C2294 H2264 0.950 . S
C2294 C2293 1.616 . S
C2294 C2295 1.415 . S
C2295 H2265 0.950 . S
C2295 C2290 1.363 . S
C2295 C2294 1.415 . S
H2296 C2293 1.009 . S
H2297 C2278 0.913 . S
H2298 C2316 0.951 . S
H2299 C2318 0.951 . S
H2300 C2320 0.950 . S
H2301 C2321 0.950 . S
H2302 C2323 0.950 . S
H2303 C2326 0.950 . S
H2304 C2327 0.950 . S
H2305 C2329 0.950 . S
H2306 C2330 0.950 . S
H2307 C2331 0.951 . S
H2308 C2333 0.951 . S
H2309 C2335 0.950 . S
H2310 C2336 0.950 . S
H2311 C2338 0.950 . S
H2312 C2341 0.950 . S
H2313 C2342 0.950 . S
H2314 C2344 0.950 . S
H2315 C2345 0.950 . S
C2316 H2298 0.951 . S
C2316 C2317 1.366 . S
C2316 C2318 1.388 . S
C2317 C2316 1.366 . S
C2317 C2321 1.385 . S
C2318 H2299 0.951 . S
C2318 C2316 1.388 . S
C2318 C2319 1.366 . S
C2319 C2318 1.366 . S
C2319 C2320 1.414 . S
C2319 C2322 1.499 . S
C2320 H2300 0.950 . S
C2320 C2319 1.414 . S
C2320 C2321 1.374 . S
C2321 H2301 0.950 . S
C2321 C2317 1.385 . S
C2321 C2320 1.374 . S
C2322 C2319 1.499 . S
C2322 C2323 1.373 . S
C2322 C2324 1.389 . S
C2323 H2302 0.950 . S
C2323 C2322 1.373 . S
C2323 C2339 1.377 1_565 S
C2324 C2322 1.389 . S
C2324 C2325 1.524 . S
C2324 C2338 1.377 1_565 S
C2325 C2324 1.524 . S
C2325 C2326 1.397 . S
C2325 C2330 1.363 . S
C2326 H2303 0.950 . S
C2326 C2325 1.397 . S
C2326 C2327 1.334 . S
C2327 H2304 0.950 . S
C2327 C2326 1.334 . S
C2327 C2328 1.287 . S
C2328 C2327 1.287 . S
C2328 C2329 1.524 . S
C2328 H2347 0.913 . S
C2329 H2305 0.950 . S
C2329 C2328 1.524 . S
C2329 C2330 1.415 . S
C2330 H2306 0.950 . S
C2330 C2325 1.363 . S
C2330 C2329 1.415 . S
C2331 H2307 0.951 . S
C2331 C2332 1.366 . S
C2331 C2333 1.388 . S
C2332 C2331 1.366 . S
C2332 C2336 1.385 . S
C2333 H2308 0.951 . S
C2333 C2331 1.388 . S
C2333 C2334 1.366 . S
C2334 C2333 1.366 . S
C2334 C2335 1.414 . S
C2334 C2337 1.499 . S
C2335 H2309 0.950 . S
C2335 C2334 1.414 . S
C2335 C2336 1.374 . S
C2336 H2310 0.950 . S
C2336 C2332 1.385 . S
C2336 C2335 1.374 . S
C2337 C2334 1.499 . S
C2337 C2338 1.373 . S
C2337 C2339 1.389 . S
C2338 H2311 0.950 . S
C2338 C2324 1.377 1_545 S
C2338 C2337 1.373 . S
C2339 C2323 1.377 1_545 S
C2339 C2337 1.389 . S
C2339 C2340 1.524 . S
C2340 C2339 1.524 . S
C2340 C2341 1.397 . S
C2340 C2345 1.363 . S
C2341 H2312 0.950 . S
C2341 C2340 1.397 . S
C2341 C2342 1.334 . S
C2342 H2313 0.950 . S
C2342 C2341 1.334 . S
C2342 C2343 1.287 . S
C2343 C2342 1.287 . S
C2343 C2344 1.524 . S
C2343 H2346 0.999 . S
C2344 H2314 0.950 . S
C2344 C2343 1.524 . S
C2344 C2345 1.415 . S
C2345 H2315 0.950 . S
C2345 C2340 1.363 . S
C2345 C2344 1.415 . S
H2346 C2343 0.999 . S
H2347 C2328 0.913 . S
H2348 C2366 0.951 . S
H2349 C2368 0.951 . S
H2350 C2370 0.950 . S
H2351 C2371 0.950 . S
H2352 C2373 0.950 . S
H2353 C2376 0.950 . S
H2354 C2377 0.950 . S
H2355 C2379 0.950 . S
H2356 C2380 0.950 . S
H2357 C2381 0.951 . S
H2358 C2383 0.951 . S
H2359 C2385 0.950 . S
H2360 C2386 0.950 . S
H2361 C2388 0.950 . S
H2362 C2391 0.950 . S
H2363 C2392 0.950 . S
H2364 C2394 0.950 . S
H2365 C2395 0.950 . S
C2366 H2348 0.951 . S
C2366 C2367 1.366 . S
C2366 C2368 1.388 . S
C2367 C2366 1.366 . S
C2367 C2371 1.385 . S
C2368 H2349 0.951 . S
C2368 C2366 1.388 . S
C2368 C2369 1.366 . S
C2369 C2368 1.366 . S
C2369 C2370 1.414 . S
C2369 C2372 1.499 . S
C2370 H2350 0.950 . S
C2370 C2369 1.414 . S
C2370 C2371 1.374 . S
C2371 H2351 0.950 . S
C2371 C2367 1.385 . S
C2371 C2370 1.374 . S
C2372 C2369 1.499 . S
C2372 C2373 1.373 . S
C2372 C2374 1.389 . S
C2373 H2352 0.950 . S
C2373 C2372 1.373 . S
C2373 C2389 1.377 . S
C2374 C2372 1.389 . S
C2374 C2375 1.524 . S
C2374 C2388 1.377 . S
C2375 C2374 1.524 . S
C2375 C2376 1.397 . S
C2375 C2380 1.363 . S
C2376 H2353 0.950 . S
C2376 C2375 1.397 . S
C2376 C2377 1.334 . S
C2377 H2354 0.950 . S
C2377 C2376 1.334 . S
C2377 C2378 1.287 . S
C2378 C2377 1.287 . S
C2378 C2379 1.524 . S
C2378 H2397 0.913 . S
C2379 H2355 0.950 . S
C2379 C2378 1.524 . S
C2379 C2380 1.415 . S
C2380 H2356 0.950 . S
C2380 C2375 1.363 . S
C2380 C2379 1.415 . S
C2381 H2357 0.951 . S
C2381 C2382 1.366 . S
C2381 C2383 1.388 . S
C2382 C2381 1.366 . S
C2382 C2386 1.385 . S
C2383 H2358 0.951 . S
C2383 C2381 1.388 . S
C2383 C2384 1.366 . S
C2384 C2383 1.366 . S
C2384 C2385 1.414 . S
C2384 C2387 1.499 . S
C2385 H2359 0.950 . S
C2385 C2384 1.414 . S
C2385 C2386 1.374 . S
C2386 H2360 0.950 . S
C2386 C2382 1.385 . S
C2386 C2385 1.374 . S
C2387 C2384 1.499 . S
C2387 C2388 1.373 . S
C2387 C2389 1.389 . S
C2388 H2361 0.950 . S
C2388 C2374 1.377 . S
C2388 C2387 1.373 . S
C2389 C2373 1.377 . S
C2389 C2387 1.389 . S
C2389 C2390 1.524 . S
C2390 C2389 1.524 . S
C2390 C2391 1.397 . S
C2390 C2395 1.363 . S
C2391 H2362 0.950 . S
C2391 C2390 1.397 . S
C2391 C2392 1.334 . S
C2392 H2363 0.950 . S
C2392 C2391 1.334 . S
C2392 C2393 1.287 . S
C2393 C2392 1.287 . S
C2393 C2394 1.524 . S
C2393 H2396 0.999 . S
C2394 H2364 0.950 . S
C2394 C2393 1.524 . S
C2394 C2395 1.415 . S
C2395 H2365 0.950 . S
C2395 C2390 1.363 . S
C2395 C2394 1.415 . S
H2396 C2393 0.999 . S
H2397 C2378 0.913 . S
H2398 C2416 0.951 . S
H2399 C2418 0.951 . S
H2400 C2420 0.950 . S
H2401 C2421 0.950 . S
H2402 C2423 0.950 . S
H2403 C2426 0.950 . S
H2404 C2427 0.950 . S
H2405 C2429 0.950 . S
H2406 C2430 0.950 . S
H2407 C2431 0.951 . S
H2408 C2433 0.951 . S
H2409 C2435 0.950 . S
H2410 C2436 0.950 . S
H2411 C2438 0.950 . S
H2412 C2441 0.950 . S
H2413 C2442 0.950 . S
H2414 C2444 0.950 . S
H2415 C2445 0.950 . S
C2416 H2398 0.951 . S
C2416 C2417 1.366 . S
C2416 C2418 1.388 . S
C2417 C2416 1.366 . S
C2417 C2421 1.385 . S
C2418 H2399 0.951 . S
C2418 C2416 1.388 . S
C2418 C2419 1.366 . S
C2419 C2418 1.366 . S
C2419 C2420 1.414 . S
C2419 C2422 1.499 . S
C2420 H2400 0.950 . S
C2420 C2419 1.414 . S
C2420 C2421 1.374 . S
C2421 H2401 0.950 . S
C2421 C2417 1.385 . S
C2421 C2420 1.374 . S
C2422 C2419 1.499 . S
C2422 C2423 1.373 . S
C2422 C2424 1.389 . S
C2423 H2402 0.950 . S
C2423 C2422 1.373 . S
C2423 C2439 1.377 1_545 S
C2424 C2422 1.389 . S
C2424 C2425 1.524 . S
C2424 C2438 1.377 1_545 S
C2425 C2424 1.524 . S
C2425 C2426 1.397 . S
C2425 C2430 1.363 1_545 S
C2426 H2403 0.950 . S
C2426 C2425 1.397 . S
C2426 C2427 1.334 . S
C2427 H2404 0.950 . S
C2427 C2426 1.334 . S
C2427 C2428 1.287 . S
C2428 C2427 1.287 . S
C2428 C2429 1.524 1_545 S
C2428 H2447 0.913 . S
C2429 H2405 0.950 . S
C2429 C2428 1.524 1_565 S
C2429 C2430 1.415 . S
C2430 H2406 0.950 . S
C2430 C2425 1.363 1_565 S
C2430 C2429 1.415 . S
C2431 H2407 0.951 . S
C2431 C2432 1.366 . S
C2431 C2433 1.388 . S
C2432 C2431 1.366 . S
C2432 C2436 1.385 . S
C2433 H2408 0.951 . S
C2433 C2431 1.388 . S
C2433 C2434 1.366 . S
C2434 C2433 1.366 . S
C2434 C2435 1.414 . S
C2434 C2437 1.499 . S
C2435 H2409 0.950 . S
C2435 C2434 1.414 . S
C2435 C2436 1.374 . S
C2436 H2410 0.950 . S
C2436 C2432 1.385 . S
C2436 C2435 1.374 . S
C2437 C2434 1.499 . S
C2437 C2438 1.373 . S
C2437 C2439 1.389 . S
C2438 H2411 0.950 . S
C2438 C2424 1.377 1_565 S
C2438 C2437 1.373 . S
C2439 C2423 1.377 1_565 S
C2439 C2437 1.389 . S
C2439 C2440 1.524 . S
C2440 C2439 1.524 . S
C2440 C2441 1.397 . S
C2440 C2445 1.363 1_565 S
C2441 H2412 0.950 . S
C2441 C2440 1.397 . S
C2441 C2442 1.334 . S
C2442 H2413 0.950 . S
C2442 C2441 1.334 . S
C2442 C2443 1.287 . S
C2443 C2442 1.287 . S
C2443 C2444 1.524 1_565 S
C2443 H2446 0.999 . S
C2444 H2414 0.950 . S
C2444 C2443 1.524 1_545 S
C2444 C2445 1.415 . S
C2445 H2415 0.950 . S
C2445 C2440 1.363 1_545 S
C2445 C2444 1.415 . S
H2446 C2443 0.999 . S
H2447 C2428 0.913 . S
H2448 C2466 0.951 . S
H2449 C2468 0.951 . S
H2450 C2470 0.950 . S
H2451 C2471 0.950 . S
H2452 C2473 0.950 . S
H2453 C2476 0.950 . S
H2454 C2477 0.950 . S
H2455 C2479 0.950 . S
H2456 C2480 0.950 . S
H2457 C2481 0.951 . S
H2458 C2483 0.951 . S
H2459 C2485 0.950 . S
H2460 C2486 0.950 . S
H2461 C2488 0.950 . S
H2462 C2491 0.950 . S
H2463 C2492 0.950 . S
H2464 C2494 0.950 . S
H2465 C2495 0.950 . S
C2466 H2448 0.951 . S
C2466 C2467 1.366 . S
C2466 C2468 1.388 . S
C2467 C2466 1.366 . S
C2467 C2471 1.385 . S
C2468 H2449 0.951 . S
C2468 C2466 1.388 . S
C2468 C2469 1.366 . S
C2469 C2468 1.366 . S
C2469 C2470 1.414 . S
C2469 C2472 1.499 . S
C2470 H2450 0.950 . S
C2470 C2469 1.414 . S
C2470 C2471 1.374 . S
C2471 H2451 0.950 . S
C2471 C2467 1.385 . S
C2471 C2470 1.374 . S
C2472 C2469 1.499 . S
C2472 C2473 1.373 . S
C2472 C2474 1.389 . S
C2473 H2452 0.950 . S
C2473 C2472 1.373 . S
C2473 C2489 1.377 . S
C2474 C2472 1.389 . S
C2474 C2475 1.524 . S
C2474 C2488 1.377 . S
C2475 C2474 1.524 . S
C2475 C2476 1.397 . S
C2475 C2480 1.363 . S
C2476 H2453 0.950 . S
C2476 C2475 1.397 . S
C2476 C2477 1.334 . S
C2477 H2454 0.950 . S
C2477 C2476 1.334 . S
C2477 C2478 1.287 . S
C2478 C2477 1.287 . S
C2478 C2479 1.524 . S
C2478 H2497 0.913 . S
C2479 H2455 0.950 . S
C2479 C2478 1.524 . S
C2479 C2480 1.415 . S
C2480 H2456 0.950 . S
C2480 C2475 1.363 . S
C2480 C2479 1.415 . S
C2481 H2457 0.951 . S
C2481 C2482 1.366 . S
C2481 C2483 1.388 . S
C2482 C2481 1.366 . S
C2482 C2486 1.385 . S
C2483 H2458 0.951 . S
C2483 C2481 1.388 . S
C2483 C2484 1.366 . S
C2484 C2483 1.366 . S
C2484 C2485 1.414 . S
C2484 C2487 1.499 . S
C2485 H2459 0.950 . S
C2485 C2484 1.414 . S
C2485 C2486 1.374 . S
C2486 H2460 0.950 . S
C2486 C2482 1.385 . S
C2486 C2485 1.374 . S
C2487 C2484 1.499 . S
C2487 C2488 1.373 . S
C2487 C2489 1.389 . S
C2488 H2461 0.950 . S
C2488 C2474 1.377 . S
C2488 C2487 1.373 . S
C2489 C2473 1.377 . S
C2489 C2487 1.389 . S
C2489 C2490 1.524 . S
C2490 C2489 1.524 . S
C2490 C2491 1.397 . S
C2490 C2495 1.363 . S
C2491 H2462 0.950 . S
C2491 C2490 1.397 . S
C2491 C2492 1.334 . S
C2492 H2463 0.950 . S
C2492 C2491 1.334 . S
C2492 C2493 1.287 . S
C2493 C2492 1.287 . S
C2493 C2494 1.524 . S
C2493 H2496 0.999 . S
C2494 H2464 0.950 . S
C2494 C2493 1.524 . S
C2494 C2495 1.415 . S
C2495 H2465 0.950 . S
C2495 C2490 1.363 . S
C2495 C2494 1.415 . S
H2496 C2493 0.999 . S
H2497 C2478 0.913 . S
H2498 C2516 0.951 . S
H2499 C2518 0.951 . S
H2500 C2520 0.950 . S
H2501 C2521 0.950 . S
H2502 C2523 0.950 . S
H2503 C2526 0.950 . S
H2504 C2527 0.950 . S
H2505 C2529 0.950 . S
H2506 C2530 0.950 . S
H2507 C2531 0.951 . S
H2508 C2533 0.951 . S
H2509 C2535 0.950 . S
H2510 C2536 0.950 . S
H2511 C2538 0.950 . S
H2512 C2541 0.950 . S
H2513 C2542 0.950 . S
H2514 C2544 0.950 . S
H2515 C2545 0.950 . S
C2516 H2498 0.951 . S
C2516 C2517 1.366 . S
C2516 C2518 1.388 . S
C2517 C2516 1.366 . S
C2517 C2521 1.385 . S
C2518 H2499 0.951 . S
C2518 C2516 1.388 . S
C2518 C2519 1.366 . S
C2519 C2518 1.366 . S
C2519 C2520 1.414 . S
C2519 C2522 1.499 . S
C2520 H2500 0.950 . S
C2520 C2519 1.414 . S
C2520 C2521 1.374 . S
C2521 H2501 0.950 . S
C2521 C2517 1.385 . S
C2521 C2520 1.374 . S
C2522 C2519 1.499 . S
C2522 C2523 1.373 . S
C2522 C2524 1.389 . S
C2523 H2502 0.950 . S
C2523 C2522 1.373 . S
C2523 C2539 1.377 . S
C2524 C2522 1.389 . S
C2524 C2525 1.524 . S
C2524 C2538 1.377 . S
C2525 C2524 1.524 . S
C2525 C2526 1.397 . S
C2525 C2530 1.363 . S
C2526 H2503 0.950 . S
C2526 C2525 1.397 . S
C2526 C2527 1.334 . S
C2527 H2504 0.950 . S
C2527 C2526 1.334 . S
C2527 C2528 1.287 . S
C2528 C2527 1.287 . S
C2528 C2529 1.524 . S
C2528 H2547 0.913 . S
C2529 H2505 0.950 . S
C2529 C2528 1.524 . S
C2529 C2530 1.415 . S
C2530 H2506 0.950 . S
C2530 C2525 1.363 . S
C2530 C2529 1.415 . S
C2531 H2507 0.951 . S
C2531 C2532 1.366 . S
C2531 C2533 1.388 . S
C2532 C2531 1.366 . S
C2532 C2536 1.385 . S
C2533 H2508 0.951 . S
C2533 C2531 1.388 . S
C2533 C2534 1.366 . S
C2534 C2533 1.366 . S
C2534 C2535 1.414 . S
C2534 C2537 1.499 . S
C2535 H2509 0.950 . S
C2535 C2534 1.414 . S
C2535 C2536 1.374 . S
C2536 H2510 0.950 . S
C2536 C2532 1.385 . S
C2536 C2535 1.374 . S
C2537 C2534 1.499 . S
C2537 C2538 1.373 . S
C2537 C2539 1.389 . S
C2538 H2511 0.950 . S
C2538 C2524 1.377 . S
C2538 C2537 1.373 . S
C2539 C2523 1.377 . S
C2539 C2537 1.389 . S
C2539 C2540 1.524 . S
C2540 C2539 1.524 . S
C2540 C2541 1.397 . S
C2540 C2545 1.363 . S
C2541 H2512 0.950 . S
C2541 C2540 1.397 . S
C2541 C2542 1.334 . S
C2542 H2513 0.950 . S
C2542 C2541 1.334 . S
C2542 C2543 1.287 . S
C2543 C2542 1.287 . S
C2543 C2544 1.524 . S
C2543 H2546 0.999 . S
C2544 H2514 0.950 . S
C2544 C2543 1.524 . S
C2544 C2545 1.415 . S
C2545 H2515 0.950 . S
C2545 C2540 1.363 . S
C2545 C2544 1.415 . S
H2546 C2543 0.999 . S
H2547 C2528 0.913 . S
H2548 C2566 0.951 . S
H2549 C2568 0.951 . S
H2550 C2570 0.950 . S
H2551 C2571 0.950 . S
H2552 C2573 0.950 . S
H2553 C2576 0.950 . S
H2554 C2577 0.950 . S
H2555 C2579 0.950 . S
H2556 C2580 0.950 . S
H2557 C2581 0.951 . S
H2558 C2583 0.951 . S
H2559 C2585 0.950 . S
H2560 C2586 0.950 . S
H2561 C2588 0.950 . S
H2562 C2591 0.950 . S
H2563 C2592 0.950 . S
H2564 C2594 0.950 . S
H2565 C2595 0.950 . S
C2566 H2548 0.951 . S
C2566 C2567 1.366 . S
C2566 C2568 1.388 . S
C2567 C2566 1.366 . S
C2567 C2571 1.385 . S
C2568 H2549 0.951 . S
C2568 C2566 1.388 . S
C2568 C2569 1.366 . S
C2569 C2568 1.366 . S
C2569 C2570 1.414 . S
C2569 C2572 1.499 . S
C2570 H2550 0.950 . S
C2570 C2569 1.414 . S
C2570 C2571 1.374 . S
C2571 H2551 0.950 . S
C2571 C2567 1.385 . S
C2571 C2570 1.374 . S
C2572 C2569 1.499 . S
C2572 C2573 1.377 . S
C2572 C2574 1.389 . S
C2573 H2552 0.950 . S
C2573 C2572 1.377 . S
C2573 C2589 1.373 1_554 S
C2574 C2572 1.389 . S
C2574 C2575 1.524 . S
C2574 C2588 1.373 1_554 S
C2575 C2574 1.524 . S
C2575 C2576 1.397 . S
C2575 C2580 1.363 . S
C2576 H2553 0.950 . S
C2576 C2575 1.397 . S
C2576 C2577 1.334 . S
C2577 H2554 0.950 . S
C2577 C2576 1.334 . S
C2577 C2578 1.287 . S
C2578 C2577 1.287 . S
C2578 C2579 1.524 . S
C2578 H2597 0.913 . S
C2579 H2555 0.950 . S
C2579 C2578 1.524 . S
C2579 C2580 1.415 . S
C2580 H2556 0.950 . S
C2580 C2575 1.363 . S
C2580 C2579 1.415 . S
C2581 H2557 0.951 . S
C2581 C2582 1.366 . S
C2581 C2583 1.388 . S
C2582 C2581 1.366 . S
C2582 C2586 1.385 . S
C2583 H2558 0.951 . S
C2583 C2581 1.388 . S
C2583 C2584 1.366 . S
C2584 C2583 1.366 . S
C2584 C2585 1.414 . S
C2584 C2587 1.499 . S
C2585 H2559 0.950 . S
C2585 C2584 1.414 . S
C2585 C2586 1.374 . S
C2586 H2560 0.950 . S
C2586 C2582 1.385 . S
C2586 C2585 1.374 . S
C2587 C2584 1.499 . S
C2587 C2588 1.377 . S
C2587 C2589 1.389 . S
C2588 H2561 0.950 . S
C2588 C2574 1.373 1_556 S
C2588 C2587 1.377 . S
C2589 C2573 1.373 1_556 S
C2589 C2587 1.389 . S
C2589 C2590 1.524 . S
C2590 C2589 1.524 . S
C2590 C2591 1.397 . S
C2590 C2595 1.363 . S
C2591 H2562 0.950 . S
C2591 C2590 1.397 . S
C2591 C2592 1.334 . S
C2592 H2563 0.950 . S
C2592 C2591 1.334 . S
C2592 C2593 1.287 . S
C2593 C2592 1.287 . S
C2593 C2594 1.524 . S
C2593 H2596 0.999 . S
C2594 H2564 0.950 . S
C2594 C2593 1.524 . S
C2594 C2595 1.415 . S
C2595 H2565 0.950 . S
C2595 C2590 1.363 . S
C2595 C2594 1.415 . S
H2596 C2593 0.999 . S
H2597 C2578 0.913 . S
H2598 C2616 0.951 . S
H2599 C2618 0.951 . S
H2600 C2620 0.950 . S
H2601 C2621 0.950 . S
H2602 C2623 0.950 . S
H2603 C2626 0.950 . S
H2604 C2627 0.950 . S
H2605 C2629 0.950 . S
H2606 C2630 0.950 . S
H2607 C2631 0.951 . S
H2608 C2633 0.951 . S
H2609 C2635 0.950 . S
H2610 C2636 0.950 . S
H2611 C2638 0.950 . S
H2612 C2641 0.950 . S
H2613 C2642 0.950 . S
H2614 C2644 0.950 . S
H2615 C2645 0.950 . S
C2616 H2598 0.951 . S
C2616 C2617 1.366 . S
C2616 C2618 1.388 . S
C2617 C2616 1.366 . S
C2617 C2621 1.385 . S
C2618 H2599 0.951 . S
C2618 C2616 1.388 . S
C2618 C2619 1.366 . S
C2619 C2618 1.366 . S
C2619 C2620 1.414 . S
C2619 C2622 1.499 . S
C2620 H2600 0.950 . S
C2620 C2619 1.414 . S
C2620 C2621 1.374 . S
C2621 H2601 0.950 . S
C2621 C2617 1.385 . S
C2621 C2620 1.374 . S
C2622 C2619 1.499 . S
C2622 C2623 1.373 . S
C2622 C2624 1.389 . S
C2623 H2602 0.950 . S
C2623 C2622 1.373 . S
C2623 C2639 1.377 . S
C2624 C2622 1.389 . S
C2624 C2625 1.524 . S
C2624 C2638 1.377 . S
C2625 C2624 1.524 . S
C2625 C2626 1.397 . S
C2625 C2630 1.363 . S
C2626 H2603 0.950 . S
C2626 C2625 1.397 . S
C2626 C2627 1.334 . S
C2627 H2604 0.950 . S
C2627 C2626 1.334 . S
C2627 C2628 1.287 . S
C2628 C2627 1.287 . S
C2628 C2629 1.524 . S
C2628 H2647 0.913 . S
C2629 H2605 0.950 . S
C2629 C2628 1.524 . S
C2629 C2630 1.415 . S
C2630 H2606 0.950 . S
C2630 C2625 1.363 . S
C2630 C2629 1.415 . S
C2631 H2607 0.951 . S
C2631 C2632 1.366 . S
C2631 C2633 1.388 . S
C2632 C2631 1.366 . S
C2632 C2636 1.385 . S
C2633 H2608 0.951 . S
C2633 C2631 1.388 . S
C2633 C2634 1.366 . S
C2634 C2633 1.366 . S
C2634 C2635 1.414 . S
C2634 C2637 1.499 . S
C2635 H2609 0.950 . S
C2635 C2634 1.414 . S
C2635 C2636 1.374 . S
C2636 H2610 0.950 . S
C2636 C2632 1.385 . S
C2636 C2635 1.374 . S
C2637 C2634 1.499 . S
C2637 C2638 1.373 . S
C2637 C2639 1.389 . S
C2638 H2611 0.950 . S
C2638 C2624 1.377 . S
C2638 C2637 1.373 . S
C2639 C2623 1.377 . S
C2639 C2637 1.389 . S
C2639 C2640 1.524 . S
C2640 C2639 1.524 . S
C2640 C2641 1.397 . S
C2640 C2645 1.363 . S
C2641 H2612 0.950 . S
C2641 C2640 1.397 . S
C2641 C2642 1.334 . S
C2642 H2613 0.950 . S
C2642 C2641 1.334 . S
C2642 C2643 1.287 . S
C2643 C2642 1.287 . S
C2643 C2644 1.524 . S
C2643 H2646 0.999 . S
C2644 H2614 0.950 . S
C2644 C2643 1.524 . S
C2644 C2645 1.415 . S
C2645 H2615 0.950 . S
C2645 C2640 1.363 . S
C2645 C2644 1.415 . S
H2646 C2643 0.999 . S
H2647 C2628 0.913 . S
H2648 C2666 0.951 . S
H2649 C2668 0.951 . S
H2650 C2670 0.950 . S
H2651 C2671 0.950 . S
H2652 C2673 0.950 . S
H2653 C2676 0.950 . S
H2654 C2677 0.950 . S
H2655 C2679 0.950 . S
H2656 C2680 0.950 . S
H2657 C2681 0.951 . S
H2658 C2683 0.951 . S
H2659 C2685 0.950 . S
H2660 C2686 0.950 . S
H2661 C2688 0.950 . S
H2662 C2691 0.950 . S
H2663 C2692 0.950 . S
H2664 C2694 0.950 . S
H2665 C2695 0.950 . S
C2666 H2648 0.951 . S
C2666 C2667 1.366 . S
C2666 C2668 1.388 . S
C2667 C2666 1.366 . S
C2667 C2671 1.385 . S
C2668 H2649 0.951 . S
C2668 C2666 1.388 . S
C2668 C2669 1.366 . S
C2669 C2668 1.366 . S
C2669 C2670 1.414 . S
C2669 C2672 1.499 . S
C2670 H2650 0.950 . S
C2670 C2669 1.414 . S
C2670 C2671 1.374 . S
C2671 H2651 0.950 . S
C2671 C2667 1.385 . S
C2671 C2670 1.374 . S
C2672 C2669 1.499 . S
C2672 C2673 1.373 . S
C2672 C2674 1.389 . S
C2673 H2652 0.950 . S
C2673 C2672 1.373 . S
C2673 C2689 1.377 . S
C2674 C2672 1.389 . S
C2674 C2675 1.524 . S
C2674 C2688 1.377 . S
C2675 C2674 1.524 . S
C2675 C2676 1.397 . S
C2675 C2680 1.363 . S
C2676 H2653 0.950 . S
C2676 C2675 1.397 . S
C2676 C2677 1.334 . S
C2677 H2654 0.950 . S
C2677 C2676 1.334 . S
C2677 C2678 1.287 . S
C2678 C2677 1.287 . S
C2678 C2679 1.524 . S
C2678 H2697 0.913 . S
C2679 H2655 0.950 . S
C2679 C2678 1.524 . S
C2679 C2680 1.415 . S
C2680 H2656 0.950 . S
C2680 C2675 1.363 . S
C2680 C2679 1.415 . S
C2681 H2657 0.951 . S
C2681 C2682 1.366 . S
C2681 C2683 1.388 . S
C2682 C2681 1.366 . S
C2682 C2686 1.385 . S
C2683 H2658 0.951 . S
C2683 C2681 1.388 . S
C2683 C2684 1.366 . S
C2684 C2683 1.366 . S
C2684 C2685 1.414 . S
C2684 C2687 1.499 . S
C2685 H2659 0.950 . S
C2685 C2684 1.414 . S
C2685 C2686 1.374 . S
C2686 H2660 0.950 . S
C2686 C2682 1.385 . S
C2686 C2685 1.374 . S
C2687 C2684 1.499 . S
C2687 C2688 1.373 . S
C2687 C2689 1.389 . S
C2688 H2661 0.950 . S
C2688 C2674 1.377 . S
C2688 C2687 1.373 . S
C2689 C2673 1.377 . S
C2689 C2687 1.389 . S
C2689 C2690 1.524 . S
C2690 C2689 1.524 . S
C2690 C2691 1.397 . S
C2690 C2695 1.363 . S
C2691 H2662 0.950 . S
C2691 C2690 1.397 . S
C2691 C2692 1.334 . S
C2692 H2663 0.950 . S
C2692 C2691 1.334 . S
C2692 C2693 1.287 . S
C2693 C2692 1.287 . S
C2693 C2694 1.524 . S
C2693 H2696 0.999 . S
C2694 H2664 0.950 . S
C2694 C2693 1.524 . S
C2694 C2695 1.415 . S
C2695 H2665 0.950 . S
C2695 C2690 1.363 . S
C2695 C2694 1.415 . S
H2696 C2693 0.999 . S
H2697 C2678 0.913 . S
H2698 C2716 0.951 . S
H2699 C2718 0.951 . S
H2700 C2720 0.950 . S
H2701 C2721 0.950 . S
H2702 C2723 0.950 . S
H2703 C2726 0.950 . S
H2704 C2727 0.950 . S
H2705 C2729 0.950 . S
H2706 C2730 0.950 . S
H2707 C2731 0.951 . S
H2708 C2733 0.951 . S
H2709 C2735 0.950 . S
H2710 C2736 0.950 . S
H2711 C2738 0.950 . S
H2712 C2741 0.950 . S
H2713 C2742 0.950 . S
H2714 C2744 0.950 . S
H2715 C2745 0.950 . S
C2716 H2698 0.951 . S
C2716 C2717 1.366 . S
C2716 C2718 1.388 . S
C2717 C2716 1.366 . S
C2717 C2721 1.385 . S
C2718 H2699 0.951 . S
C2718 C2716 1.388 . S
C2718 C2719 1.366 . S
C2719 C2718 1.366 . S
C2719 C2720 1.414 . S
C2719 C2722 1.499 . S
C2720 H2700 0.950 . S
C2720 C2719 1.414 . S
C2720 C2721 1.374 . S
C2721 H2701 0.950 . S
C2721 C2717 1.385 . S
C2721 C2720 1.374 . S
C2722 C2719 1.499 . S
C2722 C2723 1.373 . S
C2722 C2724 1.389 . S
C2723 H2702 0.950 . S
C2723 C2722 1.373 . S
C2723 C2739 1.377 . S
C2724 C2722 1.389 . S
C2724 C2725 1.524 . S
C2724 C2738 1.377 . S
C2725 C2724 1.524 . S
C2725 C2726 1.397 . S
C2725 C2730 1.363 . S
C2726 H2703 0.950 . S
C2726 C2725 1.397 . S
C2726 C2727 1.334 . S
C2727 H2704 0.950 . S
C2727 C2726 1.334 . S
C2727 C2728 1.287 . S
C2728 C2727 1.287 . S
C2728 C2729 1.524 . S
C2728 H2747 0.913 . S
C2729 H2705 0.950 . S
C2729 C2728 1.524 . S
C2729 C2730 1.415 . S
C2730 H2706 0.950 . S
C2730 C2725 1.363 . S
C2730 C2729 1.415 . S
C2731 H2707 0.951 . S
C2731 C2732 1.366 . S
C2731 C2733 1.388 . S
C2732 C2731 1.366 . S
C2732 C2736 1.385 . S
C2733 H2708 0.951 . S
C2733 C2731 1.388 . S
C2733 C2734 1.366 . S
C2734 C2733 1.366 . S
C2734 C2735 1.414 . S
C2734 C2737 1.499 . S
C2735 H2709 0.950 . S
C2735 C2734 1.414 . S
C2735 C2736 1.374 . S
C2736 H2710 0.950 . S
C2736 C2732 1.385 . S
C2736 C2735 1.374 . S
C2737 C2734 1.499 . S
C2737 C2738 1.373 . S
C2737 C2739 1.389 . S
C2738 H2711 0.950 . S
C2738 C2724 1.377 . S
C2738 C2737 1.373 . S
C2739 C2723 1.377 . S
C2739 C2737 1.389 . S
C2739 C2740 1.524 . S
C2740 C2739 1.524 . S
C2740 C2741 1.397 . S
C2740 C2745 1.363 . S
C2741 H2712 0.950 . S
C2741 C2740 1.397 . S
C2741 C2742 1.334 . S
C2742 H2713 0.950 . S
C2742 C2741 1.334 . S
C2742 C2743 1.287 . S
C2743 C2742 1.287 . S
C2743 C2744 1.524 . S
C2743 H2746 0.999 . S
C2744 H2714 0.950 . S
C2744 C2743 1.524 . S
C2744 C2745 1.415 . S
C2745 H2715 0.950 . S
C2745 C2740 1.363 . S
C2745 C2744 1.415 . S
H2746 C2743 0.999 . S
H2747 C2728 0.913 . S
H2748 C2766 0.951 . S
H2749 C2768 0.951 . S
H2750 C2770 0.950 . S
H2751 C2771 0.950 . S
H2752 C2773 0.950 . S
H2753 C2776 0.950 . S
H2754 C2777 0.950 . S
H2755 C2779 0.950 . S
H2756 C2780 0.950 . S
H2757 C2781 0.951 . S
H2758 C2783 0.951 . S
H2759 C2785 0.950 . S
H2760 C2786 0.950 . S
H2761 C2788 0.950 . S
H2762 C2791 0.950 . S
H2763 C2792 0.950 . S
H2764 C2794 0.950 . S
H2765 C2795 0.950 . S
C2766 H2748 0.951 . S
C2766 C2767 1.366 . S
C2766 C2768 1.388 . S
C2767 C2766 1.366 . S
C2767 C2771 1.385 . S
C2768 H2749 0.951 . S
C2768 C2766 1.388 . S
C2768 C2769 1.366 . S
C2769 C2768 1.366 . S
C2769 C2770 1.414 . S
C2769 C2772 1.499 . S
C2770 H2750 0.950 . S
C2770 C2769 1.414 . S
C2770 C2771 1.374 . S
C2771 H2751 0.950 . S
C2771 C2767 1.385 . S
C2771 C2770 1.374 . S
C2772 C2769 1.499 . S
C2772 C2773 1.373 . S
C2772 C2774 1.389 1_556 S
C2773 H2752 0.950 . S
C2773 C2772 1.373 . S
C2773 C2789 1.377 . S
C2774 C2772 1.389 1_554 S
C2774 C2775 1.524 . S
C2774 C2788 1.377 . S
C2775 C2774 1.524 . S
C2775 C2776 1.397 . S
C2775 C2780 1.363 . S
C2776 H2753 0.950 . S
C2776 C2775 1.397 . S
C2776 C2777 1.334 . S
C2777 H2754 0.950 . S
C2777 C2776 1.334 . S
C2777 C2778 1.287 . S
C2778 C2777 1.287 . S
C2778 C2779 1.524 . S
C2778 H2797 0.913 . S
C2779 H2755 0.950 . S
C2779 C2778 1.524 . S
C2779 C2780 1.415 . S
C2780 H2756 0.950 . S
C2780 C2775 1.363 . S
C2780 C2779 1.415 . S
C2781 H2757 0.951 . S
C2781 C2782 1.366 . S
C2781 C2783 1.388 . S
C2782 C2781 1.366 . S
C2782 C2786 1.385 . S
C2783 H2758 0.951 . S
C2783 C2781 1.388 . S
C2783 C2784 1.366 . S
C2784 C2783 1.366 . S
C2784 C2785 1.414 . S
C2784 C2787 1.499 . S
C2785 H2759 0.950 . S
C2785 C2784 1.414 . S
C2785 C2786 1.374 . S
C2786 H2760 0.950 . S
C2786 C2782 1.385 . S
C2786 C2785 1.374 . S
C2787 C2784 1.499 . S
C2787 C2788 1.373 . S
C2787 C2789 1.389 1_554 S
C2788 H2761 0.950 . S
C2788 C2774 1.377 . S
C2788 C2787 1.373 . S
C2789 C2773 1.377 . S
C2789 C2787 1.389 1_556 S
C2789 C2790 1.524 . S
C2790 C2789 1.524 . S
C2790 C2791 1.397 . S
C2790 C2795 1.363 . S
C2791 H2762 0.950 . S
C2791 C2790 1.397 . S
C2791 C2792 1.334 . S
C2792 H2763 0.950 . S
C2792 C2791 1.334 . S
C2792 C2793 1.287 . S
C2793 C2792 1.287 . S
C2793 C2794 1.524 . S
C2793 H2796 0.999 . S
C2794 H2764 0.950 . S
C2794 C2793 1.524 . S
C2794 C2795 1.415 . S
C2795 H2765 0.950 . S
C2795 C2790 1.363 . S
C2795 C2794 1.415 . S
H2796 C2793 0.999 . S
H2797 C2778 0.913 . S
H2798 C2816 0.951 . S
H2799 C2818 0.951 . S
H2800 C2820 0.950 . S
H2801 C2821 0.950 . S
H2802 C2823 0.950 . S
H2803 C2826 0.950 . S
H2804 C2827 0.950 . S
H2805 C2829 0.950 . S
H2806 C2830 0.950 . S
H2807 C2831 0.951 . S
H2808 C2833 0.951 . S
H2809 C2835 0.950 . S
H2810 C2836 0.950 . S
H2811 C2838 0.950 . S
H2812 C2841 0.950 . S
H2813 C2842 0.950 . S
H2814 C2844 0.950 . S
H2815 C2845 0.950 . S
C2816 H2798 0.951 . S
C2816 C2817 1.366 . S
C2816 C2818 1.388 . S
C2817 C2816 1.366 . S
C2817 C2821 1.385 . S
C2818 H2799 0.951 . S
C2818 C2816 1.388 . S
C2818 C2819 1.366 . S
C2819 C2818 1.366 . S
C2819 C2820 1.414 . S
C2819 C2822 1.499 . S
C2820 H2800 0.950 . S
C2820 C2819 1.414 . S
C2820 C2821 1.374 . S
C2821 H2801 0.950 . S
C2821 C2817 1.385 . S
C2821 C2820 1.374 . S
C2822 C2819 1.499 . S
C2822 C2823 1.373 . S
C2822 C2824 1.389 . S
C2823 H2802 0.950 . S
C2823 C2822 1.373 . S
C2823 C2839 1.377 . S
C2824 C2822 1.389 . S
C2824 C2825 1.524 . S
C2824 C2838 1.377 . S
C2825 C2824 1.524 . S
C2825 C2826 1.397 . S
C2825 C2830 1.363 . S
C2826 H2803 0.950 . S
C2826 C2825 1.397 . S
C2826 C2827 1.334 . S
C2827 H2804 0.950 . S
C2827 C2826 1.334 . S
C2827 C2828 1.287 . S
C2828 C2827 1.287 . S
C2828 C2829 1.524 . S
C2828 H2847 0.913 . S
C2829 H2805 0.950 . S
C2829 C2828 1.524 . S
C2829 C2830 1.415 . S
C2830 H2806 0.950 . S
C2830 C2825 1.363 . S
C2830 C2829 1.415 . S
C2831 H2807 0.951 . S
C2831 C2832 1.366 . S
C2831 C2833 1.388 . S
C2832 C2831 1.366 . S
C2832 C2836 1.385 . S
C2833 H2808 0.951 . S
C2833 C2831 1.388 . S
C2833 C2834 1.366 . S
C2834 C2833 1.366 . S
C2834 C2835 1.414 . S
C2834 C2837 1.499 . S
C2835 H2809 0.950 . S
C2835 C2834 1.414 . S
C2835 C2836 1.374 . S
C2836 H2810 0.950 . S
C2836 C2832 1.385 . S
C2836 C2835 1.374 . S
C2837 C2834 1.499 . S
C2837 C2838 1.373 . S
C2837 C2839 1.389 . S
C2838 H2811 0.950 . S
C2838 C2824 1.377 . S
C2838 C2837 1.373 . S
C2839 C2823 1.377 . S
C2839 C2837 1.389 . S
C2839 C2840 1.524 . S
C2840 C2839 1.524 . S
C2840 C2841 1.397 . S
C2840 C2845 1.363 . S
C2841 H2812 0.950 . S
C2841 C2840 1.397 . S
C2841 C2842 1.334 . S
C2842 H2813 0.950 . S
C2842 C2841 1.334 . S
C2842 C2843 1.287 . S
C2843 C2842 1.287 . S
C2843 C2844 1.524 . S
C2843 H2846 0.999 . S
C2844 H2814 0.950 . S
C2844 C2843 1.524 . S
C2844 C2845 1.415 . S
C2845 H2815 0.950 . S
C2845 C2840 1.363 . S
C2845 C2844 1.415 . S
H2846 C2843 0.999 . S
H2847 C2828 0.913 . S
H2848 C2866 0.951 . S
H2849 C2868 0.951 . S
H2850 C2870 0.950 . S
H2851 C2871 0.950 . S
H2852 C2873 0.950 . S
H2853 C2876 0.950 . S
H2854 C2877 0.950 . S
H2855 C2879 0.950 . S
H2856 C2880 0.950 . S
H2857 C2881 0.951 . S
H2858 C2883 0.951 . S
H2859 C2885 0.950 . S
H2860 C2886 0.950 . S
H2861 C2888 0.950 . S
H2862 C2891 0.950 . S
H2863 C2892 0.950 . S
H2864 C2894 0.950 . S
H2865 C2895 0.950 . S
C2866 H2848 0.951 . S
C2866 C2867 1.366 . S
C2866 C2868 1.388 . S
C2867 C2866 1.366 . S
C2867 C2871 1.385 . S
C2868 H2849 0.951 . S
C2868 C2866 1.388 . S
C2868 C2869 1.366 . S
C2869 C2868 1.366 . S
C2869 C2870 1.414 . S
C2869 C2872 1.499 . S
C2870 H2850 0.950 . S
C2870 C2869 1.414 . S
C2870 C2871 1.374 . S
C2871 H2851 0.950 . S
C2871 C2867 1.385 . S
C2871 C2870 1.374 . S
C2872 C2869 1.499 . S
C2872 C2873 1.373 . S
C2872 C2874 1.389 . S
C2873 H2852 0.950 . S
C2873 C2872 1.373 . S
C2873 C2889 1.377 . S
C2874 C2872 1.389 . S
C2874 C2875 1.524 . S
C2874 C2888 1.377 . S
C2875 C2874 1.524 . S
C2875 C2876 1.397 . S
C2875 C2880 1.363 . S
C2876 H2853 0.950 . S
C2876 C2875 1.397 . S
C2876 C2877 1.334 . S
C2877 H2854 0.950 . S
C2877 C2876 1.334 . S
C2877 C2878 1.287 . S
C2878 C2877 1.287 . S
C2878 C2879 1.524 . S
C2878 H2897 0.913 . S
C2879 H2855 0.950 . S
C2879 C2878 1.524 . S
C2879 C2880 1.415 . S
C2880 H2856 0.950 . S
C2880 C2875 1.363 . S
C2880 C2879 1.415 . S
C2881 H2857 0.951 . S
C2881 C2882 1.366 . S
C2881 C2883 1.388 . S
C2882 C2881 1.366 . S
C2882 C2886 1.385 . S
C2883 H2858 0.951 . S
C2883 C2881 1.388 . S
C2883 C2884 1.366 . S
C2884 C2883 1.366 . S
C2884 C2885 1.414 . S
C2884 C2887 1.499 . S
C2885 H2859 0.950 . S
C2885 C2884 1.414 . S
C2885 C2886 1.374 . S
C2886 H2860 0.950 . S
C2886 C2882 1.385 . S
C2886 C2885 1.374 . S
C2887 C2884 1.499 . S
C2887 C2888 1.373 . S
C2887 C2889 1.389 . S
C2888 H2861 0.950 . S
C2888 C2874 1.377 . S
C2888 C2887 1.373 . S
C2889 C2873 1.377 . S
C2889 C2887 1.389 . S
C2889 C2890 1.524 . S
C2890 C2889 1.524 . S
C2890 C2891 1.397 . S
C2890 C2895 1.363 . S
C2891 H2862 0.950 . S
C2891 C2890 1.397 . S
C2891 C2892 1.334 . S
C2892 H2863 0.950 . S
C2892 C2891 1.334 . S
C2892 C2893 1.287 . S
C2893 C2892 1.287 . S
C2893 C2894 1.524 . S
C2893 H2896 0.999 . S
C2894 H2864 0.950 . S
C2894 C2893 1.524 . S
C2894 C2895 1.415 . S
C2895 H2865 0.950 . S
C2895 C2890 1.363 . S
C2895 C2894 1.415 . S
H2896 C2893 0.999 . S
H2897 C2878 0.913 . S
H2898 C2916 0.951 . S
H2899 C2918 0.951 . S
H2900 C2920 0.950 . S
H2901 C2921 0.950 . S
H2902 C2923 0.950 . S
H2903 C2926 0.950 . S
H2904 C2927 0.950 . S
H2905 C2929 0.950 . S
H2906 C2930 0.950 . S
H2907 C2931 0.951 . S
H2908 C2933 0.951 . S
H2909 C2935 0.950 . S
H2910 C2936 0.950 . S
H2911 C2938 0.950 . S
H2912 C2941 0.950 . S
H2913 C2942 0.950 . S
H2914 C2944 0.950 . S
H2915 C2945 0.950 . S
C2916 H2898 0.951 . S
C2916 C2917 1.366 . S
C2916 C2918 1.388 . S
C2917 C2916 1.366 . S
C2917 C2921 1.385 . S
C2918 H2899 0.951 . S
C2918 C2916 1.388 . S
C2918 C2919 1.366 . S
C2919 C2918 1.366 . S
C2919 C2920 1.414 . S
C2919 C2922 1.499 . S
C2920 H2900 0.950 . S
C2920 C2919 1.414 . S
C2920 C2921 1.374 . S
C2921 H2901 0.950 . S
C2921 C2917 1.385 . S
C2921 C2920 1.374 . S
C2922 C2919 1.499 . S
C2922 C2923 1.373 . S
C2922 C2924 1.389 . S
C2923 H2902 0.950 . S
C2923 C2922 1.373 . S
C2923 C2939 1.377 . S
C2924 C2922 1.389 . S
C2924 C2925 1.524 . S
C2924 C2938 1.377 . S
C2925 C2924 1.524 . S
C2925 C2926 1.397 . S
C2925 C2930 1.363 . S
C2926 H2903 0.950 . S
C2926 C2925 1.397 . S
C2926 C2927 1.334 . S
C2927 H2904 0.950 . S
C2927 C2926 1.334 . S
C2927 C2928 1.287 . S
C2928 C2927 1.287 . S
C2928 C2929 1.524 . S
C2928 H2947 0.913 . S
C2929 H2905 0.950 . S
C2929 C2928 1.524 . S
C2929 C2930 1.415 . S
C2930 H2906 0.950 . S
C2930 C2925 1.363 . S
C2930 C2929 1.415 . S
C2931 H2907 0.951 . S
C2931 C2932 1.366 . S
C2931 C2933 1.388 . S
C2932 C2931 1.366 . S
C2932 C2936 1.385 . S
C2933 H2908 0.951 . S
C2933 C2931 1.388 . S
C2933 C2934 1.366 . S
C2934 C2933 1.366 . S
C2934 C2935 1.414 . S
C2934 C2937 1.499 . S
C2935 H2909 0.950 . S
C2935 C2934 1.414 . S
C2935 C2936 1.374 . S
C2936 H2910 0.950 . S
C2936 C2932 1.385 . S
C2936 C2935 1.374 . S
C2937 C2934 1.499 . S
C2937 C2938 1.373 . S
C2937 C2939 1.389 . S
C2938 H2911 0.950 . S
C2938 C2924 1.377 . S
C2938 C2937 1.373 . S
C2939 C2923 1.377 . S
C2939 C2937 1.389 . S
C2939 C2940 1.524 . S
C2940 C2939 1.524 . S
C2940 C2941 1.397 . S
C2940 C2945 1.363 . S
C2941 H2912 0.950 . S
C2941 C2940 1.397 . S
C2941 C2942 1.334 . S
C2942 H2913 0.950 . S
C2942 C2941 1.334 . S
C2942 C2943 1.287 . S
C2943 C2942 1.287 . S
C2943 C2944 1.524 . S
C2943 H2946 0.999 . S
C2944 H2914 0.950 . S
C2944 C2943 1.524 . S
C2944 C2945 1.415 . S
C2945 H2915 0.950 . S
C2945 C2940 1.363 . S
C2945 C2944 1.415 . S
H2946 C2943 0.999 . S
H2947 C2928 0.913 . S
H2948 C2966 0.951 . S
H2949 C2968 0.951 . S
H2950 C2970 0.950 . S
H2951 C2971 0.950 . S
H2952 C2973 0.950 . S
H2953 C2976 0.950 . S
H2954 C2977 0.950 . S
H2955 C2979 0.950 . S
H2956 C2980 0.950 . S
H2957 C2981 0.951 . S
H2958 C2983 0.951 . S
H2959 C2985 0.950 . S
H2960 C2986 0.950 . S
H2961 C2988 0.950 . S
H2962 C2991 0.950 . S
H2963 C2992 0.950 . S
H2964 C2994 0.950 . S
H2965 C2995 0.950 . S
C2966 H2948 0.951 . S
C2966 C2967 1.366 . S
C2966 C2968 1.388 . S
C2967 C2966 1.366 . S
C2967 C2971 1.385 . S
C2968 H2949 0.951 . S
C2968 C2966 1.388 . S
C2968 C2969 1.366 . S
C2969 C2968 1.366 . S
C2969 C2970 1.414 . S
C2969 C2972 1.499 . S
C2970 H2950 0.950 . S
C2970 C2969 1.414 . S
C2970 C2971 1.374 . S
C2971 H2951 0.950 . S
C2971 C2967 1.385 . S
C2971 C2970 1.374 . S
C2972 C2969 1.499 . S
C2972 C2973 1.373 . S
C2972 C2974 1.389 . S
C2973 H2952 0.950 . S
C2973 C2972 1.373 . S
C2973 C2989 1.377 . S
C2974 C2972 1.389 . S
C2974 C2975 1.524 . S
C2974 C2988 1.377 . S
C2975 C2974 1.524 . S
C2975 C2976 1.397 . S
C2975 C2980 1.363 . S
C2976 H2953 0.950 . S
C2976 C2975 1.397 . S
C2976 C2977 1.334 . S
C2977 H2954 0.950 . S
C2977 C2976 1.334 . S
C2977 C2978 1.287 . S
C2978 C2977 1.287 . S
C2978 C2979 1.524 . S
C2978 H2997 0.913 . S
C2979 H2955 0.950 . S
C2979 C2978 1.524 . S
C2979 C2980 1.415 . S
C2980 H2956 0.950 . S
C2980 C2975 1.363 . S
C2980 C2979 1.415 . S
C2981 H2957 0.951 . S
C2981 C2982 1.366 . S
C2981 C2983 1.388 . S
C2982 C2981 1.366 . S
C2982 C2986 1.385 . S
C2983 H2958 0.951 . S
C2983 C2981 1.388 . S
C2983 C2984 1.366 . S
C2984 C2983 1.366 . S
C2984 C2985 1.414 . S
C2984 C2987 1.499 . S
C2985 H2959 0.950 . S
C2985 C2984 1.414 . S
C2985 C2986 1.374 . S
C2986 H2960 0.950 . S
C2986 C2982 1.385 . S
C2986 C2985 1.374 . S
C2987 C2984 1.499 . S
C2987 C2988 1.373 . S
C2987 C2989 1.389 . S
C2988 H2961 0.950 . S
C2988 C2974 1.377 . S
C2988 C2987 1.373 . S
C2989 C2973 1.377 . S
C2989 C2987 1.389 . S
C2989 C2990 1.524 . S
C2990 C2989 1.524 . S
C2990 C2991 1.397 . S
C2990 C2995 1.363 . S
C2991 H2962 0.950 . S
C2991 C2990 1.397 . S
C2991 C2992 1.334 . S
C2992 H2963 0.950 . S
C2992 C2991 1.334 . S
C2992 C2993 1.287 . S
C2993 C2992 1.287 . S
C2993 C2994 1.524 . S
C2993 H2996 0.999 . S
C2994 H2964 0.950 . S
C2994 C2993 1.524 . S
C2994 C2995 1.415 . S
C2995 H2965 0.950 . S
C2995 C2990 1.363 . S
C2995 C2994 1.415 . S
H2996 C2993 0.999 . S
H2997 C2978 0.913 . S
H2998 C3016 0.951 . S
H2999 C3018 0.951 . S
H3000 C3020 0.950 . S
H3001 C3021 0.950 . S
H3002 C3023 0.950 . S
H3003 C3026 0.950 . S
H3004 C3027 0.950 . S
H3005 C3029 0.950 . S
H3006 C3030 0.950 . S
H3007 C3031 0.951 . S
H3008 C3033 0.951 . S
H3009 C3035 0.950 . S
H3010 C3036 0.950 . S
H3011 C3038 0.950 . S
H3012 C3041 0.950 . S
H3013 C3042 0.950 . S
H3014 C3044 0.950 . S
H3015 C3045 0.950 . S
C3016 H2998 0.951 . S
C3016 C3017 1.366 . S
C3016 C3018 1.388 . S
C3017 C3016 1.366 . S
C3017 C3021 1.385 . S
C3018 H2999 0.951 . S
C3018 C3016 1.388 . S
C3018 C3019 1.366 . S
C3019 C3018 1.366 . S
C3019 C3020 1.414 . S
C3019 C3022 1.499 . S
C3020 H3000 0.950 . S
C3020 C3019 1.414 . S
C3020 C3021 1.374 . S
C3021 H3001 0.950 . S
C3021 C3017 1.385 . S
C3021 C3020 1.374 . S
C3022 C3019 1.499 . S
C3022 C3023 1.373 . S
C3022 C3024 1.389 . S
C3023 H3002 0.950 . S
C3023 C3022 1.373 . S
C3023 C3039 1.377 . S
C3024 C3022 1.389 . S
C3024 C3025 1.524 . S
C3024 C3038 1.377 . S
C3025 C3024 1.524 . S
C3025 C3026 1.397 . S
C3025 C3030 1.363 . S
C3026 H3003 0.950 . S
C3026 C3025 1.397 . S
C3026 C3027 1.334 . S
C3027 H3004 0.950 . S
C3027 C3026 1.334 . S
C3027 C3028 1.287 . S
C3028 C3027 1.287 . S
C3028 C3029 1.524 . S
C3028 H3047 0.913 . S
C3029 H3005 0.950 . S
C3029 C3028 1.524 . S
C3029 C3030 1.415 . S
C3030 H3006 0.950 . S
C3030 C3025 1.363 . S
C3030 C3029 1.415 . S
C3031 H3007 0.951 . S
C3031 C3032 1.366 . S
C3031 C3033 1.388 . S
C3032 C3031 1.366 . S
C3032 C3036 1.385 . S
C3033 H3008 0.951 . S
C3033 C3031 1.388 . S
C3033 C3034 1.366 . S
C3034 C3033 1.366 . S
C3034 C3035 1.414 . S
C3034 C3037 1.499 . S
C3035 H3009 0.950 . S
C3035 C3034 1.414 . S
C3035 C3036 1.374 . S
C3036 H3010 0.950 . S
C3036 C3032 1.385 . S
C3036 C3035 1.374 . S
C3037 C3034 1.499 . S
C3037 C3038 1.373 . S
C3037 C3039 1.389 . S
C3038 H3011 0.950 . S
C3038 C3024 1.377 . S
C3038 C3037 1.373 . S
C3039 C3023 1.377 . S
C3039 C3037 1.389 . S
C3039 C3040 1.524 . S
C3040 C3039 1.524 . S
C3040 C3041 1.397 . S
C3040 C3045 1.363 . S
C3041 H3012 0.950 . S
C3041 C3040 1.397 . S
C3041 C3042 1.334 . S
C3042 H3013 0.950 . S
C3042 C3041 1.334 . S
C3042 C3043 1.287 . S
C3043 C3042 1.287 . S
C3043 C3044 1.524 . S
C3043 H3046 0.999 . S
C3044 H3014 0.950 . S
C3044 C3043 1.524 . S
C3044 C3045 1.415 . S
C3045 H3015 0.950 . S
C3045 C3040 1.363 . S
C3045 C3044 1.415 . S
H3046 C3043 0.999 . S
H3047 C3028 0.913 . S
H3048 C3066 0.951 . S
H3049 C3068 0.951 . S
H3050 C3070 0.950 . S
H3051 C3071 0.950 . S
H3052 C3073 0.950 . S
H3053 C3076 0.950 . S
H3054 C3077 0.950 . S
H3055 C3079 0.950 . S
H3056 C3080 0.950 . S
H3057 C3081 0.951 . S
H3058 C3083 0.951 . S
H3059 C3085 0.950 . S
H3060 C3086 0.950 . S
H3061 C3088 0.950 . S
H3062 C3091 0.950 . S
H3063 C3092 0.950 . S
H3064 C3094 0.950 . S
H3065 C3095 0.950 . S
C3066 H3048 0.951 . S
C3066 C3067 1.366 . S
C3066 C3068 1.388 . S
C3067 C3066 1.366 . S
C3067 C3071 1.385 . S
C3068 H3049 0.951 . S
C3068 C3066 1.388 . S
C3068 C3069 1.366 . S
C3069 C3068 1.366 . S
C3069 C3070 1.414 . S
C3069 C3072 1.499 . S
C3070 H3050 0.950 . S
C3070 C3069 1.414 . S
C3070 C3071 1.374 . S
C3071 H3051 0.950 . S
C3071 C3067 1.385 . S
C3071 C3070 1.374 . S
C3072 C3069 1.499 . S
C3072 C3073 1.373 . S
C3072 C3074 1.389 . S
C3073 H3052 0.950 . S
C3073 C3072 1.373 . S
C3073 C3089 1.377 . S
C3074 C3072 1.389 . S
C3074 C3075 1.524 . S
C3074 C3088 1.377 . S
C3075 C3074 1.524 . S
C3075 C3076 1.397 . S
C3075 C3080 1.363 . S
C3076 H3053 0.950 . S
C3076 C3075 1.397 . S
C3076 C3077 1.334 . S
C3077 H3054 0.950 . S
C3077 C3076 1.334 . S
C3077 C3078 1.287 . S
C3078 C3077 1.287 . S
C3078 C3079 1.524 . S
C3078 H3097 0.913 . S
C3079 H3055 0.950 . S
C3079 C3078 1.524 . S
C3079 C3080 1.415 . S
C3080 H3056 0.950 . S
C3080 C3075 1.363 . S
C3080 C3079 1.415 . S
C3081 H3057 0.951 . S
C3081 C3082 1.366 . S
C3081 C3083 1.388 . S
C3082 C3081 1.366 . S
C3082 C3086 1.385 . S
C3083 H3058 0.951 . S
C3083 C3081 1.388 . S
C3083 C3084 1.366 . S
C3084 C3083 1.366 . S
C3084 C3085 1.414 . S
C3084 C3087 1.499 . S
C3085 H3059 0.950 . S
C3085 C3084 1.414 . S
C3085 C3086 1.374 . S
C3086 H3060 0.950 . S
C3086 C3082 1.385 . S
C3086 C3085 1.374 . S
C3087 C3084 1.499 . S
C3087 C3088 1.373 . S
C3087 C3089 1.389 . S
C3088 H3061 0.950 . S
C3088 C3074 1.377 . S
C3088 C3087 1.373 . S
C3089 C3073 1.377 . S
C3089 C3087 1.389 . S
C3089 C3090 1.524 . S
C3090 C3089 1.524 . S
C3090 C3091 1.397 . S
C3090 C3095 1.363 . S
C3091 H3062 0.950 . S
C3091 C3090 1.397 . S
C3091 C3092 1.334 . S
C3092 H3063 0.950 . S
C3092 C3091 1.334 . S
C3092 C3093 1.287 . S
C3093 C3092 1.287 . S
C3093 C3094 1.524 . S
C3093 H3096 0.999 . S
C3094 H3064 0.950 . S
C3094 C3093 1.524 . S
C3094 C3095 1.415 . S
C3095 H3065 0.950 . S
C3095 C3090 1.363 . S
C3095 C3094 1.415 . S
H3096 C3093 0.999 . S
H3097 C3078 0.913 . S
H3098 C3116 0.951 . S
H3099 C3118 0.951 . S
H3100 C3120 0.950 . S
H3101 C3121 0.950 . S
H3102 C3123 0.950 . S
H3103 C3126 0.950 . S
H3104 C3127 0.950 . S
H3105 C3129 0.950 . S
H3106 C3130 0.950 . S
H3107 C3131 0.951 . S
H3108 C3133 0.951 . S
H3109 C3135 0.950 . S
H3110 C3136 0.950 . S
H3111 C3138 0.950 . S
H3112 C3141 0.950 . S
H3113 C3142 0.950 . S
H3114 C3144 0.950 . S
H3115 C3145 0.950 . S
C3116 H3098 0.951 . S
C3116 C3117 1.366 . S
C3116 C3118 1.388 . S
C3117 C3116 1.366 . S
C3117 C3121 1.385 . S
C3118 H3099 0.951 . S
C3118 C3116 1.388 . S
C3118 C3119 1.366 . S
C3119 C3118 1.366 . S
C3119 C3120 1.414 . S
C3119 C3122 1.499 . S
C3120 H3100 0.950 . S
C3120 C3119 1.414 . S
C3120 C3121 1.374 . S
C3121 H3101 0.950 . S
C3121 C3117 1.385 . S
C3121 C3120 1.374 . S
C3122 C3119 1.499 . S
C3122 C3123 1.373 . S
C3122 C3124 1.389 . S
C3123 H3102 0.950 . S
C3123 C3122 1.373 . S
C3123 C3139 1.377 . S
C3124 C3122 1.389 . S
C3124 C3125 1.524 . S
C3124 C3138 1.377 . S
C3125 C3124 1.524 . S
C3125 C3126 1.397 . S
C3125 C3130 1.363 . S
C3126 H3103 0.950 . S
C3126 C3125 1.397 . S
C3126 C3127 1.334 . S
C3127 H3104 0.950 . S
C3127 C3126 1.334 . S
C3127 C3128 1.287 . S
C3128 C3127 1.287 . S
C3128 C3129 1.524 . S
C3128 H3147 0.913 . S
C3129 H3105 0.950 . S
C3129 C3128 1.524 . S
C3129 C3130 1.415 . S
C3130 H3106 0.950 . S
C3130 C3125 1.363 . S
C3130 C3129 1.415 . S
C3131 H3107 0.951 . S
C3131 C3132 1.366 . S
C3131 C3133 1.388 . S
C3132 C3131 1.366 . S
C3132 C3136 1.385 . S
C3133 H3108 0.951 . S
C3133 C3131 1.388 . S
C3133 C3134 1.366 . S
C3134 C3133 1.366 . S
C3134 C3135 1.414 . S
C3134 C3137 1.499 . S
C3135 H3109 0.950 . S
C3135 C3134 1.414 . S
C3135 C3136 1.374 . S
C3136 H3110 0.950 . S
C3136 C3132 1.385 . S
C3136 C3135 1.374 . S
C3137 C3134 1.499 . S
C3137 C3138 1.373 . S
C3137 C3139 1.389 . S
C3138 H3111 0.950 . S
C3138 C3124 1.377 . S
C3138 C3137 1.373 . S
C3139 C3123 1.377 . S
C3139 C3137 1.389 . S
C3139 C3140 1.524 . S
C3140 C3139 1.524 . S
C3140 C3141 1.397 . S
C3140 C3145 1.363 . S
C3141 H3112 0.950 . S
C3141 C3140 1.397 . S
C3141 C3142 1.334 . S
C3142 H3113 0.950 . S
C3142 C3141 1.334 . S
C3142 C3143 1.287 . S
C3143 C3142 1.287 . S
C3143 C3144 1.524 . S
C3143 H3146 0.999 . S
C3144 H3114 0.950 . S
C3144 C3143 1.524 . S
C3144 C3145 1.415 . S
C3145 H3115 0.950 . S
C3145 C3140 1.363 . S
C3145 C3144 1.415 . S
H3146 C3143 0.999 . S
H3147 C3128 0.913 . S
H3148 C3166 0.951 . S
H3149 C3168 0.951 . S
H3150 C3170 0.950 . S
H3151 C3171 0.950 . S
H3152 C3173 0.950 . S
H3153 C3176 0.950 . S
H3154 C3177 0.950 . S
H3155 C3179 0.950 . S
H3156 C3180 0.950 . S
H3157 C3181 0.951 . S
H3158 C3183 0.951 . S
H3159 C3185 0.950 . S
H3160 C3186 0.950 . S
H3161 C3188 0.950 . S
H3162 C3191 0.950 . S
H3163 C3192 0.950 . S
H3164 C3194 0.950 . S
H3165 C3195 0.950 . S
C3166 H3148 0.951 . S
C3166 C3167 1.366 . S
C3166 C3168 1.388 . S
C3167 C3166 1.366 . S
C3167 C3171 1.385 . S
C3168 H3149 0.951 . S
C3168 C3166 1.388 . S
C3168 C3169 1.366 . S
C3169 C3168 1.366 . S
C3169 C3170 1.414 . S
C3169 C3172 1.499 . S
C3170 H3150 0.950 . S
C3170 C3169 1.414 . S
C3170 C3171 1.374 . S
C3171 H3151 0.950 . S
C3171 C3167 1.385 . S
C3171 C3170 1.374 . S
C3172 C3169 1.499 . S
C3172 C3173 1.373 . S
C3172 C3174 1.389 . S
C3173 H3152 0.950 . S
C3173 C3172 1.373 . S
C3173 C3189 1.377 . S
C3174 C3172 1.389 . S
C3174 C3175 1.524 . S
C3174 C3188 1.377 . S
C3175 C3174 1.524 . S
C3175 C3176 1.397 . S
C3175 C3180 1.363 . S
C3176 H3153 0.950 . S
C3176 C3175 1.397 . S
C3176 C3177 1.334 . S
C3177 H3154 0.950 . S
C3177 C3176 1.334 . S
C3177 C3178 1.287 . S
C3178 C3177 1.287 . S
C3178 C3179 1.524 . S
C3178 H3197 0.913 . S
C3179 H3155 0.950 . S
C3179 C3178 1.524 . S
C3179 C3180 1.415 . S
C3180 H3156 0.950 . S
C3180 C3175 1.363 . S
C3180 C3179 1.415 . S
C3181 H3157 0.951 . S
C3181 C3182 1.366 . S
C3181 C3183 1.388 . S
C3182 C3181 1.366 . S
C3182 C3186 1.385 . S
C3183 H3158 0.951 . S
C3183 C3181 1.388 . S
C3183 C3184 1.366 . S
C3184 C3183 1.366 . S
C3184 C3185 1.414 . S
C3184 C3187 1.499 . S
C3185 H3159 0.950 . S
C3185 C3184 1.414 . S
C3185 C3186 1.374 . S
C3186 H3160 0.950 . S
C3186 C3182 1.385 . S
C3186 C3185 1.374 . S
C3187 C3184 1.499 . S
C3187 C3188 1.373 . S
C3187 C3189 1.389 . S
C3188 H3161 0.950 . S
C3188 C3174 1.377 . S
C3188 C3187 1.373 . S
C3189 C3173 1.377 . S
C3189 C3187 1.389 . S
C3189 C3190 1.524 . S
C3190 C3189 1.524 . S
C3190 C3191 1.397 . S
C3190 C3195 1.363 . S
C3191 H3162 0.950 . S
C3191 C3190 1.397 . S
C3191 C3192 1.334 . S
C3192 H3163 0.950 . S
C3192 C3191 1.334 . S
C3192 C3193 1.287 . S
C3193 C3192 1.287 . S
C3193 C3194 1.524 . S
C3193 H3196 0.999 . S
C3194 H3164 0.950 . S
C3194 C3193 1.524 . S
C3194 C3195 1.415 . S
C3195 H3165 0.950 . S
C3195 C3190 1.363 . S
C3195 C3194 1.415 . S
H3196 C3193 0.999 . S
H3197 C3178 0.913 . S
H3198 C3216 0.951 . S
H3199 C3218 0.951 . S
H3200 C3220 0.950 . S
H3201 C3221 0.950 . S
H3202 C3223 0.950 . S
H3203 C3226 0.950 . S
H3204 C3227 0.950 . S
H3205 C3229 0.950 . S
H3206 C3230 0.950 . S
H3207 C3231 0.951 . S
H3208 C3233 0.951 . S
H3209 C3235 0.950 . S
H3210 C3236 0.950 . S
H3211 C3238 0.950 . S
H3212 C3241 0.950 . S
H3213 C3242 0.950 . S
H3214 C3244 0.950 . S
H3215 C3245 0.950 . S
C3216 H3198 0.951 . S
C3216 C3217 1.366 . S
C3216 C3218 1.388 . S
C3217 C3216 1.366 . S
C3217 C3221 1.385 . S
C3218 H3199 0.951 . S
C3218 C3216 1.388 . S
C3218 C3219 1.366 . S
C3219 C3218 1.366 . S
C3219 C3220 1.414 . S
C3219 C3222 1.499 . S
C3220 H3200 0.950 . S
C3220 C3219 1.414 . S
C3220 C3221 1.374 . S
C3221 H3201 0.950 . S
C3221 C3217 1.385 . S
C3221 C3220 1.374 . S
C3222 C3219 1.499 . S
C3222 C3223 1.373 . S
C3222 C3224 1.389 . S
C3223 H3202 0.950 . S
C3223 C3222 1.373 . S
C3223 C3239 1.377 . S
C3224 C3222 1.389 . S
C3224 C3225 1.524 . S
C3224 C3238 1.377 . S
C3225 C3224 1.524 . S
C3225 C3226 1.397 . S
C3225 C3230 1.363 . S
C3226 H3203 0.950 . S
C3226 C3225 1.397 . S
C3226 C3227 1.334 . S
C3227 H3204 0.950 . S
C3227 C3226 1.334 . S
C3227 C3228 1.287 . S
C3228 C3227 1.287 . S
C3228 C3229 1.524 . S
C3228 H3247 0.913 . S
C3229 H3205 0.950 . S
C3229 C3228 1.524 . S
C3229 C3230 1.415 . S
C3230 H3206 0.950 . S
C3230 C3225 1.363 . S
C3230 C3229 1.415 . S
C3231 H3207 0.951 . S
C3231 C3232 1.366 . S
C3231 C3233 1.388 . S
C3232 C3231 1.366 . S
C3232 C3236 1.385 . S
C3233 H3208 0.951 . S
C3233 C3231 1.388 . S
C3233 C3234 1.366 . S
C3234 C3233 1.366 . S
C3234 C3235 1.414 . S
C3234 C3237 1.499 . S
C3235 H3209 0.950 . S
C3235 C3234 1.414 . S
C3235 C3236 1.374 . S
C3236 H3210 0.950 . S
C3236 C3232 1.385 . S
C3236 C3235 1.374 . S
C3237 C3234 1.499 . S
C3237 C3238 1.373 . S
C3237 C3239 1.389 . S
C3238 H3211 0.950 . S
C3238 C3224 1.377 . S
C3238 C3237 1.373 . S
C3239 C3223 1.377 . S
C3239 C3237 1.389 . S
C3239 C3240 1.524 . S
C3240 C3239 1.524 . S
C3240 C3241 1.397 . S
C3240 C3245 1.363 . S
C3241 H3212 0.950 . S
C3241 C3240 1.397 . S
C3241 C3242 1.334 . S
C3242 H3213 0.950 . S
C3242 C3241 1.334 . S
C3242 C3243 1.287 . S
C3243 C3242 1.287 . S
C3243 C3244 1.524 . S
C3243 H3246 0.999 . S
C3244 H3214 0.950 . S
C3244 C3243 1.524 . S
C3244 C3245 1.415 . S
C3245 H3215 0.950 . S
C3245 C3240 1.363 . S
C3245 C3244 1.415 . S
H3246 C3243 0.999 . S
H3247 C3228 0.913 . S
H3248 C3266 0.951 . S
H3249 C3268 0.951 . S
H3250 C3270 0.950 . S
H3251 C3271 0.950 . S
H3252 C3273 0.950 . S
H3253 C3276 0.950 . S
H3254 C3277 0.950 . S
H3255 C3279 0.950 . S
H3256 C3280 0.950 . S
H3257 C3281 0.951 . S
H3258 C3283 0.951 . S
H3259 C3285 0.950 . S
H3260 C3286 0.950 . S
H3261 C3288 0.950 . S
H3262 C3291 0.950 . S
H3263 C3292 0.950 . S
H3264 C3294 0.950 . S
H3265 C3295 0.950 . S
C3266 H3248 0.951 . S
C3266 C3267 1.366 . S
C3266 C3268 1.388 . S
C3267 C3266 1.366 . S
C3267 C3271 1.385 . S
C3268 H3249 0.951 . S
C3268 C3266 1.388 . S
C3268 C3269 1.366 . S
C3269 C3268 1.366 . S
C3269 C3270 1.414 . S
C3269 C3272 1.499 . S
C3270 H3250 0.950 . S
C3270 C3269 1.414 . S
C3270 C3271 1.374 . S
C3271 H3251 0.950 . S
C3271 C3267 1.385 . S
C3271 C3270 1.374 . S
C3272 C3269 1.499 . S
C3272 C3273 1.373 . S
C3272 C3274 1.389 . S
C3273 H3252 0.950 . S
C3273 C3272 1.373 . S
C3273 C3289 1.377 . S
C3274 C3272 1.389 . S
C3274 C3275 1.524 . S
C3274 C3288 1.377 . S
C3275 C3274 1.524 . S
C3275 C3276 1.397 . S
C3275 C3280 1.363 . S
C3276 H3253 0.950 . S
C3276 C3275 1.397 . S
C3276 C3277 1.334 . S
C3277 H3254 0.950 . S
C3277 C3276 1.334 . S
C3277 C3278 1.287 . S
C3278 C3277 1.287 . S
C3278 C3279 1.524 . S
C3278 H3297 0.913 . S
C3279 H3255 0.950 . S
C3279 C3278 1.524 . S
C3279 C3280 1.415 . S
C3280 H3256 0.950 . S
C3280 C3275 1.363 . S
C3280 C3279 1.415 . S
C3281 H3257 0.951 . S
C3281 C3282 1.366 . S
C3281 C3283 1.388 . S
C3282 C3281 1.366 . S
C3282 C3286 1.385 . S
C3283 H3258 0.951 . S
C3283 C3281 1.388 . S
C3283 C3284 1.366 . S
C3284 C3283 1.366 . S
C3284 C3285 1.414 . S
C3284 C3287 1.499 . S
C3285 H3259 0.950 . S
C3285 C3284 1.414 . S
C3285 C3286 1.374 . S
C3286 H3260 0.950 . S
C3286 C3282 1.385 . S
C3286 C3285 1.374 . S
C3287 C3284 1.499 . S
C3287 C3288 1.373 . S
C3287 C3289 1.389 . S
C3288 H3261 0.950 . S
C3288 C3274 1.377 . S
C3288 C3287 1.373 . S
C3289 C3273 1.377 . S
C3289 C3287 1.389 . S
C3289 C3290 1.524 . S
C3290 C3289 1.524 . S
C3290 C3291 1.397 . S
C3290 C3295 1.363 . S
C3291 H3262 0.950 . S
C3291 C3290 1.397 . S
C3291 C3292 1.334 . S
C3292 H3263 0.950 . S
C3292 C3291 1.334 . S
C3292 C3293 1.287 . S
C3293 C3292 1.287 . S
C3293 C3294 1.524 . S
C3293 H3296 0.999 . S
C3294 H3264 0.950 . S
C3294 C3293 1.524 . S
C3294 C3295 1.415 . S
C3295 H3265 0.950 . S
C3295 C3290 1.363 . S
C3295 C3294 1.415 . S
H3296 C3293 0.999 . S
H3297 C3278 0.913 . S
H3298 C3316 0.951 . S
H3299 C3318 0.951 . S
H3300 C3320 0.950 . S
H3301 C3321 0.950 . S
H3302 C3323 0.950 . S
H3303 C3326 0.950 . S
H3304 C3327 0.950 . S
H3305 C3329 0.950 . S
H3306 C3330 0.950 . S
H3307 C3331 0.951 . S
H3308 C3333 0.951 . S
H3309 C3335 0.950 . S
H3310 C3336 0.950 . S
H3311 C3338 0.950 . S
H3312 C3341 0.950 . S
H3313 C3342 0.950 . S
H3314 C3344 0.950 . S
H3315 C3345 0.950 . S
C3316 H3298 0.951 . S
C3316 C3317 1.366 . S
C3316 C3318 1.388 . S
C3317 C3316 1.366 . S
C3317 C3321 1.385 . S
C3318 H3299 0.951 . S
C3318 C3316 1.388 . S
C3318 C3319 1.366 . S
C3319 C3318 1.366 . S
C3319 C3320 1.414 . S
C3319 C3322 1.499 . S
C3320 H3300 0.950 . S
C3320 C3319 1.414 . S
C3320 C3321 1.374 . S
C3321 H3301 0.950 . S
C3321 C3317 1.385 . S
C3321 C3320 1.374 . S
C3322 C3319 1.499 . S
C3322 C3323 1.373 . S
C3322 C3324 1.389 . S
C3323 H3302 0.950 . S
C3323 C3322 1.373 . S
C3323 C3339 1.377 . S
C3324 C3322 1.389 . S
C3324 C3325 1.524 . S
C3324 C3338 1.377 . S
C3325 C3324 1.524 . S
C3325 C3326 1.397 . S
C3325 C3330 1.363 . S
C3326 H3303 0.950 . S
C3326 C3325 1.397 . S
C3326 C3327 1.334 . S
C3327 H3304 0.950 . S
C3327 C3326 1.334 . S
C3327 C3328 1.287 . S
C3328 C3327 1.287 . S
C3328 C3329 1.524 . S
C3328 H3347 0.913 . S
C3329 H3305 0.950 . S
C3329 C3328 1.524 . S
C3329 C3330 1.415 . S
C3330 H3306 0.950 . S
C3330 C3325 1.363 . S
C3330 C3329 1.415 . S
C3331 H3307 0.951 . S
C3331 C3332 1.366 . S
C3331 C3333 1.388 . S
C3332 C3331 1.366 . S
C3332 C3336 1.385 . S
C3333 H3308 0.951 . S
C3333 C3331 1.388 . S
C3333 C3334 1.366 . S
C3334 C3333 1.366 . S
C3334 C3335 1.414 . S
C3334 C3337 1.499 . S
C3335 H3309 0.950 . S
C3335 C3334 1.414 . S
C3335 C3336 1.374 . S
C3336 H3310 0.950 . S
C3336 C3332 1.385 . S
C3336 C3335 1.374 . S
C3337 C3334 1.499 . S
C3337 C3338 1.373 . S
C3337 C3339 1.389 . S
C3338 H3311 0.950 . S
C3338 C3324 1.377 . S
C3338 C3337 1.373 . S
C3339 C3323 1.377 . S
C3339 C3337 1.389 . S
C3339 C3340 1.524 . S
C3340 C3339 1.524 . S
C3340 C3341 1.397 . S
C3340 C3345 1.363 . S
C3341 H3312 0.950 . S
C3341 C3340 1.397 . S
C3341 C3342 1.334 . S
C3342 H3313 0.950 . S
C3342 C3341 1.334 . S
C3342 C3343 1.287 . S
C3343 C3342 1.287 . S
C3343 C3344 1.524 . S
C3343 H3346 0.999 . S
C3344 H3314 0.950 . S
C3344 C3343 1.524 . S
C3344 C3345 1.415 . S
C3345 H3315 0.950 . S
C3345 C3340 1.363 . S
C3345 C3344 1.415 . S
H3346 C3343 0.999 . S
H3347 C3328 0.913 . S
H3348 C3366 0.951 . S
H3349 C3368 0.951 . S
H3350 C3370 0.950 . S
H3351 C3371 0.950 . S
H3352 C3373 0.950 . S
H3353 C3376 0.950 . S
H3354 C3377 0.950 . S
H3355 C3379 0.950 . S
H3356 C3380 0.950 . S
H3357 C3381 0.951 . S
H3358 C3383 0.951 . S
H3359 C3385 0.950 . S
H3360 C3386 0.950 . S
H3361 C3388 0.950 . S
H3362 C3391 0.950 . S
H3363 C3392 0.950 . S
H3364 C3394 0.950 . S
H3365 C3395 0.950 . S
C3366 H3348 0.951 . S
C3366 C3367 1.366 . S
C3366 C3368 1.388 . S
C3367 C3366 1.366 . S
C3367 C3371 1.385 . S
C3368 H3349 0.951 . S
C3368 C3366 1.388 . S
C3368 C3369 1.366 . S
C3369 C3368 1.366 . S
C3369 C3370 1.414 . S
C3369 C3372 1.499 . S
C3370 H3350 0.950 . S
C3370 C3369 1.414 . S
C3370 C3371 1.374 . S
C3371 H3351 0.950 . S
C3371 C3367 1.385 . S
C3371 C3370 1.374 . S
C3372 C3369 1.499 . S
C3372 C3373 1.373 . S
C3372 C3374 1.389 . S
C3373 H3352 0.950 . S
C3373 C3372 1.373 . S
C3373 C3389 1.377 . S
C3374 C3372 1.389 . S
C3374 C3375 1.524 . S
C3374 C3388 1.377 . S
C3375 C3374 1.524 . S
C3375 C3376 1.397 . S
C3375 C3380 1.363 . S
C3376 H3353 0.950 . S
C3376 C3375 1.397 . S
C3376 C3377 1.334 . S
C3377 H3354 0.950 . S
C3377 C3376 1.334 . S
C3377 C3378 1.287 . S
C3378 C3377 1.287 . S
C3378 C3379 1.524 . S
C3378 H3397 0.913 . S
C3379 H3355 0.950 . S
C3379 C3378 1.524 . S
C3379 C3380 1.415 . S
C3380 H3356 0.950 . S
C3380 C3375 1.363 . S
C3380 C3379 1.415 . S
C3381 H3357 0.951 . S
C3381 C3382 1.366 . S
C3381 C3383 1.388 . S
C3382 C3381 1.366 . S
C3382 C3386 1.385 . S
C3383 H3358 0.951 . S
C3383 C3381 1.388 . S
C3383 C3384 1.366 . S
C3384 C3383 1.366 . S
C3384 C3385 1.414 . S
C3384 C3387 1.499 . S
C3385 H3359 0.950 . S
C3385 C3384 1.414 . S
C3385 C3386 1.374 . S
C3386 H3360 0.950 . S
C3386 C3382 1.385 . S
C3386 C3385 1.374 . S
C3387 C3384 1.499 . S
C3387 C3388 1.373 . S
C3387 C3389 1.389 . S
C3388 H3361 0.950 . S
C3388 C3374 1.377 . S
C3388 C3387 1.373 . S
C3389 C3373 1.377 . S
C3389 C3387 1.389 . S
C3389 C3390 1.524 . S
C3390 C3389 1.524 . S
C3390 C3391 1.397 . S
C3390 C3395 1.363 . S
C3391 H3362 0.950 . S
C3391 C3390 1.397 . S
C3391 C3392 1.334 . S
C3392 H3363 0.950 . S
C3392 C3391 1.334 . S
C3392 C3393 1.287 . S
C3393 C3392 1.287 . S
C3393 C3394 1.524 . S
C3393 H3396 0.999 . S
C3394 H3364 0.950 . S
C3394 C3393 1.524 . S
C3394 C3395 1.415 . S
C3395 H3365 0.950 . S
C3395 C3390 1.363 . S
C3395 C3394 1.415 . S
H3396 C3393 0.999 . S
H3397 C3378 0.913 . S
H3398 C3416 0.951 . S
H3399 C3418 0.951 . S
H3400 C3420 0.950 . S
H3401 C3421 0.950 . S
H3402 C3423 0.950 . S
H3403 C3426 0.950 . S
H3404 C3427 0.950 . S
H3405 C3429 0.950 . S
H3406 C3430 0.950 . S
H3407 C3431 0.951 . S
H3408 C3433 0.951 . S
H3409 C3435 0.950 . S
H3410 C3436 0.950 . S
H3411 C3438 0.950 . S
H3412 C3441 0.950 . S
H3413 C3442 0.950 . S
H3414 C3444 0.950 . S
H3415 C3445 0.950 . S
C3416 H3398 0.951 . S
C3416 C3417 1.366 . S
C3416 C3418 1.388 . S
C3417 C3416 1.366 . S
C3417 C3421 1.385 . S
C3418 H3399 0.951 . S
C3418 C3416 1.388 . S
C3418 C3419 1.366 . S
C3419 C3418 1.366 . S
C3419 C3420 1.414 . S
C3419 C3422 1.499 . S
C3420 H3400 0.950 . S
C3420 C3419 1.414 . S
C3420 C3421 1.374 . S
C3421 H3401 0.950 . S
C3421 C3417 1.385 . S
C3421 C3420 1.374 . S
C3422 C3419 1.499 . S
C3422 C3423 1.373 . S
C3422 C3424 1.389 . S
C3423 H3402 0.950 . S
C3423 C3422 1.373 . S
C3423 C3439 1.377 . S
C3424 C3422 1.389 . S
C3424 C3425 1.524 . S
C3424 C3438 1.377 . S
C3425 C3424 1.524 . S
C3425 C3426 1.397 . S
C3425 C3430 1.363 . S
C3426 H3403 0.950 . S
C3426 C3425 1.397 . S
C3426 C3427 1.334 . S
C3427 H3404 0.950 . S
C3427 C3426 1.334 . S
C3427 C3428 1.287 . S
C3428 C3427 1.287 . S
C3428 C3429 1.524 . S
C3428 H3447 0.913 . S
C3429 H3405 0.950 . S
C3429 C3428 1.524 . S
C3429 C3430 1.415 . S
C3430 H3406 0.950 . S
C3430 C3425 1.363 . S
C3430 C3429 1.415 . S
C3431 H3407 0.951 . S
C3431 C3432 1.366 . S
C3431 C3433 1.388 . S
C3432 C3431 1.366 . S
C3432 C3436 1.385 . S
C3433 H3408 0.951 . S
C3433 C3431 1.388 . S
C3433 C3434 1.366 . S
C3434 C3433 1.366 . S
C3434 C3435 1.414 . S
C3434 C3437 1.499 . S
C3435 H3409 0.950 . S
C3435 C3434 1.414 . S
C3435 C3436 1.374 . S
C3436 H3410 0.950 . S
C3436 C3432 1.385 . S
C3436 C3435 1.374 . S
C3437 C3434 1.499 . S
C3437 C3438 1.373 . S
C3437 C3439 1.389 . S
C3438 H3411 0.950 . S
C3438 C3424 1.377 . S
C3438 C3437 1.373 . S
C3439 C3423 1.377 . S
C3439 C3437 1.389 . S
C3439 C3440 1.524 . S
C3440 C3439 1.524 . S
C3440 C3441 1.397 . S
C3440 C3445 1.363 . S
C3441 H3412 0.950 . S
C3441 C3440 1.397 . S
C3441 C3442 1.334 . S
C3442 H3413 0.950 . S
C3442 C3441 1.334 . S
C3442 C3443 1.287 . S
C3443 C3442 1.287 . S
C3443 C3444 1.524 . S
C3443 H3446 0.999 . S
C3444 H3414 0.950 . S
C3444 C3443 1.524 . S
C3444 C3445 1.415 . S
C3445 H3415 0.950 . S
C3445 C3440 1.363 . S
C3445 C3444 1.415 . S
H3446 C3443 0.999 . S
H3447 C3428 0.913 . S
H3448 C3466 0.951 . S
H3449 C3468 0.951 . S
H3450 C3470 0.950 . S
H3451 C3471 0.950 . S
H3452 C3473 0.950 . S
H3453 C3476 0.950 . S
H3454 C3477 0.950 . S
H3455 C3479 0.950 . S
H3456 C3480 0.950 . S
H3457 C3481 0.951 . S
H3458 C3483 0.951 . S
H3459 C3485 0.950 . S
H3460 C3486 0.950 . S
H3461 C3488 0.950 . S
H3462 C3491 0.950 . S
H3463 C3492 0.950 . S
H3464 C3494 0.950 . S
H3465 C3495 0.950 . S
C3466 H3448 0.951 . S
C3466 C3467 1.366 . S
C3466 C3468 1.388 . S
C3467 C3466 1.366 . S
C3467 C3471 1.385 . S
C3468 H3449 0.951 . S
C3468 C3466 1.388 . S
C3468 C3469 1.366 . S
C3469 C3468 1.366 . S
C3469 C3470 1.414 . S
C3469 C3472 1.499 . S
C3470 H3450 0.950 . S
C3470 C3469 1.414 . S
C3470 C3471 1.374 . S
C3471 H3451 0.950 . S
C3471 C3467 1.385 . S
C3471 C3470 1.374 . S
C3472 C3469 1.499 . S
C3472 C3473 1.373 . S
C3472 C3474 1.389 . S
C3473 H3452 0.950 . S
C3473 C3472 1.373 . S
C3473 C3489 1.377 . S
C3474 C3472 1.389 . S
C3474 C3475 1.524 . S
C3474 C3488 1.377 . S
C3475 C3474 1.524 . S
C3475 C3476 1.397 . S
C3475 C3480 1.363 . S
C3476 H3453 0.950 . S
C3476 C3475 1.397 . S
C3476 C3477 1.334 . S
C3477 H3454 0.950 . S
C3477 C3476 1.334 . S
C3477 C3478 1.287 . S
C3478 C3477 1.287 . S
C3478 C3479 1.524 . S
C3478 H3497 0.913 . S
C3479 H3455 0.950 . S
C3479 C3478 1.524 . S
C3479 C3480 1.415 . S
C3480 H3456 0.950 . S
C3480 C3475 1.363 . S
C3480 C3479 1.415 . S
C3481 H3457 0.951 . S
C3481 C3482 1.366 . S
C3481 C3483 1.388 . S
C3482 C3481 1.366 . S
C3482 C3486 1.385 . S
C3483 H3458 0.951 . S
C3483 C3481 1.388 . S
C3483 C3484 1.366 . S
C3484 C3483 1.366 . S
C3484 C3485 1.414 . S
C3484 C3487 1.499 . S
C3485 H3459 0.950 . S
C3485 C3484 1.414 . S
C3485 C3486 1.374 . S
C3486 H3460 0.950 . S
C3486 C3482 1.385 . S
C3486 C3485 1.374 . S
C3487 C3484 1.499 . S
C3487 C3488 1.373 . S
C3487 C3489 1.389 . S
C3488 H3461 0.950 . S
C3488 C3474 1.377 . S
C3488 C3487 1.373 . S
C3489 C3473 1.377 . S
C3489 C3487 1.389 . S
C3489 C3490 1.524 . S
C3490 C3489 1.524 . S
C3490 C3491 1.397 . S
C3490 C3495 1.363 . S
C3491 H3462 0.950 . S
C3491 C3490 1.397 . S
C3491 C3492 1.334 . S
C3492 H3463 0.950 . S
C3492 C3491 1.334 . S
C3492 C3493 1.287 . S
C3493 C3492 1.287 . S
C3493 C3494 1.524 . S
C3493 H3496 0.999 . S
C3494 H3464 0.950 . S
C3494 C3493 1.524 . S
C3494 C3495 1.415 . S
C3495 H3465 0.950 . S
C3495 C3490 1.363 . S
C3495 C3494 1.415 . S
H3496 C3493 0.999 . S
H3497 C3478 0.913 . S
H3498 C3516 0.951 . S
H3499 C3518 0.951 . S
H3500 C3520 0.950 . S
H3501 C3521 0.950 . S
H3502 C3523 0.950 . S
H3503 C3526 0.950 . S
H3504 C3527 0.950 . S
H3505 C3529 0.950 . S
H3506 C3530 0.950 . S
H3507 C3531 0.951 . S
H3508 C3533 0.951 . S
H3509 C3535 0.950 . S
H3510 C3536 0.950 . S
H3511 C3538 0.950 . S
H3512 C3541 0.950 . S
H3513 C3542 0.950 . S
H3514 C3544 0.950 . S
H3515 C3545 0.950 . S
C3516 H3498 0.951 . S
C3516 C3517 1.366 . S
C3516 C3518 1.388 . S
C3517 C3516 1.366 . S
C3517 C3521 1.385 . S
C3518 H3499 0.951 . S
C3518 C3516 1.388 . S
C3518 C3519 1.366 . S
C3519 C3518 1.366 . S
C3519 C3520 1.414 . S
C3519 C3522 1.499 . S
C3520 H3500 0.950 . S
C3520 C3519 1.414 . S
C3520 C3521 1.374 . S
C3521 H3501 0.950 . S
C3521 C3517 1.385 . S
C3521 C3520 1.374 . S
C3522 C3519 1.499 . S
C3522 C3523 1.373 . S
C3522 C3524 1.389 . S
C3523 H3502 0.950 . S
C3523 C3522 1.373 . S
C3523 C3539 1.377 . S
C3524 C3522 1.389 . S
C3524 C3525 1.524 . S
C3524 C3538 1.377 . S
C3525 C3524 1.524 . S
C3525 C3526 1.397 . S
C3525 C3530 1.363 . S
C3526 H3503 0.950 . S
C3526 C3525 1.397 . S
C3526 C3527 1.334 . S
C3527 H3504 0.950 . S
C3527 C3526 1.334 . S
C3527 C3528 1.287 . S
C3528 C3527 1.287 . S
C3528 C3529 1.524 . S
C3528 H3547 0.913 . S
C3529 H3505 0.950 . S
C3529 C3528 1.524 . S
C3529 C3530 1.415 . S
C3530 H3506 0.950 . S
C3530 C3525 1.363 . S
C3530 C3529 1.415 . S
C3531 H3507 0.951 . S
C3531 C3532 1.366 . S
C3531 C3533 1.388 . S
C3532 C3531 1.366 . S
C3532 C3536 1.385 . S
C3533 H3508 0.951 . S
C3533 C3531 1.388 . S
C3533 C3534 1.366 . S
C3534 C3533 1.366 . S
C3534 C3535 1.414 . S
C3534 C3537 1.499 . S
C3535 H3509 0.950 . S
C3535 C3534 1.414 . S
C3535 C3536 1.374 . S
C3536 H3510 0.950 . S
C3536 C3532 1.385 . S
C3536 C3535 1.374 . S
C3537 C3534 1.499 . S
C3537 C3538 1.373 . S
C3537 C3539 1.389 . S
C3538 H3511 0.950 . S
C3538 C3524 1.377 . S
C3538 C3537 1.373 . S
C3539 C3523 1.377 . S
C3539 C3537 1.389 . S
C3539 C3540 1.524 . S
C3540 C3539 1.524 . S
C3540 C3541 1.397 . S
C3540 C3545 1.363 . S
C3541 H3512 0.950 . S
C3541 C3540 1.397 . S
C3541 C3542 1.334 . S
C3542 H3513 0.950 . S
C3542 C3541 1.334 . S
C3542 C3543 1.287 . S
C3543 C3542 1.287 . S
C3543 C3544 1.524 . S
C3543 H3546 0.999 . S
C3544 H3514 0.950 . S
C3544 C3543 1.524 . S
C3544 C3545 1.415 . S
C3545 H3515 0.950 . S
C3545 C3540 1.363 . S
C3545 C3544 1.415 . S
H3546 C3543 0.999 . S
H3547 C3528 0.913 . S
H3548 C3566 0.951 . S
H3549 C3568 0.951 . S
H3550 C3570 0.950 . S
H3551 C3571 0.950 . S
H3552 C3573 0.950 . S
H3553 C3576 0.950 . S
H3554 C3577 0.950 . S
H3555 C3579 0.950 . S
H3556 C3580 0.950 . S
H3557 C3581 0.951 . S
H3558 C3583 0.951 . S
H3559 C3585 0.950 . S
H3560 C3586 0.950 . S
H3561 C3588 0.950 . S
H3562 C3591 0.950 . S
H3563 C3592 0.950 . S
H3564 C3594 0.950 . S
H3565 C3595 0.950 . S
C3566 H3548 0.951 . S
C3566 C3567 1.366 . S
C3566 C3568 1.388 . S
C3567 C3566 1.366 . S
C3567 C3571 1.385 . S
C3568 H3549 0.951 . S
C3568 C3566 1.388 . S
C3568 C3569 1.366 . S
C3569 C3568 1.366 . S
C3569 C3570 1.414 . S
C3569 C3572 1.499 . S
C3570 H3550 0.950 . S
C3570 C3569 1.414 . S
C3570 C3571 1.374 . S
C3571 H3551 0.950 . S
C3571 C3567 1.385 . S
C3571 C3570 1.374 . S
C3572 C3569 1.499 . S
C3572 C3573 1.373 . S
C3572 C3574 1.389 . S
C3573 H3552 0.950 . S
C3573 C3572 1.373 . S
C3573 C3589 1.377 . S
C3574 C3572 1.389 . S
C3574 C3575 1.524 . S
C3574 C3588 1.377 . S
C3575 C3574 1.524 . S
C3575 C3576 1.397 . S
C3575 C3580 1.363 . S
C3576 H3553 0.950 . S
C3576 C3575 1.397 . S
C3576 C3577 1.334 . S
C3577 H3554 0.950 . S
C3577 C3576 1.334 . S
C3577 C3578 1.287 . S
C3578 C3577 1.287 . S
C3578 C3579 1.524 . S
C3578 H3597 0.913 . S
C3579 H3555 0.950 . S
C3579 C3578 1.524 . S
C3579 C3580 1.415 . S
C3580 H3556 0.950 . S
C3580 C3575 1.363 . S
C3580 C3579 1.415 . S
C3581 H3557 0.951 . S
C3581 C3582 1.366 . S
C3581 C3583 1.388 . S
C3582 C3581 1.366 . S
C3582 C3586 1.385 . S
C3583 H3558 0.951 . S
C3583 C3581 1.388 . S
C3583 C3584 1.366 . S
C3584 C3583 1.366 . S
C3584 C3585 1.414 . S
C3584 C3587 1.499 . S
C3585 H3559 0.950 . S
C3585 C3584 1.414 . S
C3585 C3586 1.374 . S
C3586 H3560 0.950 . S
C3586 C3582 1.385 . S
C3586 C3585 1.374 . S
C3587 C3584 1.499 . S
C3587 C3588 1.373 . S
C3587 C3589 1.389 . S
C3588 H3561 0.950 . S
C3588 C3574 1.377 . S
C3588 C3587 1.373 . S
C3589 C3573 1.377 . S
C3589 C3587 1.389 . S
C3589 C3590 1.524 . S
C3590 C3589 1.524 . S
C3590 C3591 1.397 . S
C3590 C3595 1.363 . S
C3591 H3562 0.950 . S
C3591 C3590 1.397 . S
C3591 C3592 1.334 . S
C3592 H3563 0.950 . S
C3592 C3591 1.334 . S
C3592 C3593 1.287 . S
C3593 C3592 1.287 . S
C3593 C3594 1.524 . S
C3593 H3596 0.999 . S
C3594 H3564 0.950 . S
C3594 C3593 1.524 . S
C3594 C3595 1.415 . S
C3595 H3565 0.950 . S
C3595 C3590 1.363 . S
C3595 C3594 1.415 . S
H3596 C3593 0.999 . S
H3597 C3578 0.913 . S
H3598 C3616 0.951 . S
H3599 C3618 0.951 . S
H3600 C3620 0.950 . S
H3601 C3621 0.950 . S
H3602 C3623 0.950 . S
H3603 C3626 0.950 . S
H3604 C3627 0.950 . S
H3605 C3629 0.950 . S
H3606 C3630 0.950 . S
H3607 C3631 0.951 . S
H3608 C3633 0.951 . S
H3609 C3635 0.950 . S
H3610 C3636 0.950 . S
H3611 C3638 0.950 . S
H3612 C3641 0.950 . S
H3613 C3642 0.950 . S
H3614 C3644 0.950 . S
H3615 C3645 0.950 . S
C3616 H3598 0.951 . S
C3616 C3617 1.366 . S
C3616 C3618 1.388 . S
C3617 C3616 1.366 . S
C3617 C3621 1.385 . S
C3618 H3599 0.951 . S
C3618 C3616 1.388 . S
C3618 C3619 1.366 . S
C3619 C3618 1.366 . S
C3619 C3620 1.414 . S
C3619 C3622 1.499 . S
C3620 H3600 0.950 . S
C3620 C3619 1.414 . S
C3620 C3621 1.374 . S
C3621 H3601 0.950 . S
C3621 C3617 1.385 . S
C3621 C3620 1.374 . S
C3622 C3619 1.499 . S
C3622 C3623 1.373 . S
C3622 C3624 1.389 . S
C3623 H3602 0.950 . S
C3623 C3622 1.373 . S
C3623 C3639 1.377 . S
C3624 C3622 1.389 . S
C3624 C3625 1.524 . S
C3624 C3638 1.377 . S
C3625 C3624 1.524 . S
C3625 C3626 1.397 . S
C3625 C3630 1.363 . S
C3626 H3603 0.950 . S
C3626 C3625 1.397 . S
C3626 C3627 1.334 . S
C3627 H3604 0.950 . S
C3627 C3626 1.334 . S
C3627 C3628 1.287 . S
C3628 C3627 1.287 . S
C3628 C3629 1.524 . S
C3628 H3647 0.913 . S
C3629 H3605 0.950 . S
C3629 C3628 1.524 . S
C3629 C3630 1.415 . S
C3630 H3606 0.950 . S
C3630 C3625 1.363 . S
C3630 C3629 1.415 . S
C3631 H3607 0.951 . S
C3631 C3632 1.366 . S
C3631 C3633 1.388 . S
C3632 C3631 1.366 . S
C3632 C3636 1.385 . S
C3633 H3608 0.951 . S
C3633 C3631 1.388 . S
C3633 C3634 1.366 . S
C3634 C3633 1.366 . S
C3634 C3635 1.414 . S
C3634 C3637 1.499 . S
C3635 H3609 0.950 . S
C3635 C3634 1.414 . S
C3635 C3636 1.374 . S
C3636 H3610 0.950 . S
C3636 C3632 1.385 . S
C3636 C3635 1.374 . S
C3637 C3634 1.499 . S
C3637 C3638 1.373 . S
C3637 C3639 1.389 . S
C3638 H3611 0.950 . S
C3638 C3624 1.377 . S
C3638 C3637 1.373 . S
C3639 C3623 1.377 . S
C3639 C3637 1.389 . S
C3639 C3640 1.524 . S
C3640 C3639 1.524 . S
C3640 C3641 1.397 . S
C3640 C3645 1.363 . S
C3641 H3612 0.950 . S
C3641 C3640 1.397 . S
C3641 C3642 1.334 . S
C3642 H3613 0.950 . S
C3642 C3641 1.334 . S
C3642 C3643 1.287 . S
C3643 C3642 1.287 . S
C3643 C3644 1.524 . S
C3643 H3646 0.999 . S
C3644 H3614 0.950 . S
C3644 C3643 1.524 . S
C3644 C3645 1.415 . S
C3645 H3615 0.950 . S
C3645 C3640 1.363 . S
C3645 C3644 1.415 . S
H3646 C3643 0.999 . S
H3647 C3628 0.913 . S
C467 C119 1.495 . S
C482 C7 1.495 . S
C517 C357 1.495 . S
C532 C21 1.495 . S
C567 C147 1.495 . S
C582 C35 1.495 . S
C617 C385 1.494 . S
C632 C49 1.494 . S
C667 C175 1.494 . S
C682 C63 1.494 . S
C717 C77 1.494 . S
C732 C413 1.494 . S
C767 C91 1.494 . S
C782 C203 1.494 . S
C817 C105 1.495 . S
C832 C441 1.495 . S
C867 C245 1.494 . S
C882 C133 1.494 . S
C917 C273 1.494 . S
C932 C161 1.494 . S
C967 C189 1.494 . S
C982 C301 1.494 . S
C1017 C217 1.494 . S
C1032 C329 1.494 . S
C1067 C231 1.494 . S
C1082 C343 1.494 . S
C1117 C371 1.494 . S
C1132 C259 1.494 . S
C1167 C287 1.495 . S
C1182 C399 1.495 . S
C1217 C427 1.495 . S
C1232 C315 1.495 . S
C1267 C261 1.603 . S
C1282 C9 1.603 . S
C1317 C275 1.603 . S
C1332 C23 1.603 . S
C1367 C37 1.603 . S
C1382 C233 1.603 . S
C1417 C51 1.603 . S
C1432 C247 1.603 . S
C1467 C317 1.603 . S
C1482 C65 1.603 . S
C1517 C79 1.603 . S
C1532 C331 1.603 . S
C1567 C289 1.603 . S
C1582 C93 1.603 . S
C1617 C303 1.603 . S
C1632 C107 1.603 . S
C1667 C121 1.603 . S
C1682 C373 1.603 . S
C1717 C387 1.603 . S
C1732 C135 1.603 . S
C1767 C149 1.603 . S
C1782 C345 1.603 . S
C1817 C163 1.603 . S
C1832 C359 1.603 . S
C1867 C177 1.603 . S
C1882 C429 1.603 . S
C1917 C191 1.603 . S
C1932 C443 1.603 . S
C1967 C401 1.603 . S
C1982 C205 1.603 . S
C2017 C415 1.603 . S
C2032 C219 1.603 . S
C2067 C92 1.563 . S
C2082 C8 1.563 . S
C2117 C106 1.563 . S
C2132 C22 1.563 . S
C2167 C64 1.563 . S
C2182 C36 1.563 . S
C2217 C50 1.563 . S
C2232 C78 1.563 . S
C2267 C204 1.563 . S
C2282 C120 1.563 . S
C2317 C218 1.563 . S
C2332 C134 1.563 . S
C2367 C176 1.563 . S
C2382 C148 1.563 . S
C2417 C190 1.563 . S
C2432 C162 1.562 . S
C2467 C316 1.563 . S
C2482 C232 1.563 . S
C2517 C330 1.563 . S
C2532 C246 1.563 . S
C2567 C260 1.563 . S
C2582 C288 1.563 . S
C2617 C274 1.563 . S
C2632 C302 1.563 . S
C2667 C428 1.563 . S
C2682 C344 1.563 . S
C2717 C442 1.563 . S
C2732 C358 1.563 . S
C2767 C372 1.563 . S
C2782 C400 1.563 . S
C2817 C386 1.563 . S
C2832 C414 1.563 . S
C2867 C3 1.367 . S
C2882 C297 1.368 . S
C2917 C311 1.367 . S
C2932 C17 1.367 . S
C2967 C325 1.367 . S
C2982 C31 1.368 . S
C3017 C45 1.368 . S
C3032 C283 1.367 . S
C3067 C269 1.367 . S
C3082 C59 1.367 . S
C3117 C73 1.367 . S
C3132 C227 1.367 . S
C3167 C241 1.367 . S
C3182 C87 1.367 . S
C3217 C101 1.367 . S
C3232 C255 1.367 . S
C3267 C409 1.367 . S
C3282 C115 1.368 . S
C3317 C423 1.367 . S
C3332 C129 1.367 . S
C3367 C143 1.368 . S
C3382 C437 1.367 . S
C3417 C395 1.367 . S
C3432 C157 1.367 . S
C3467 C381 1.368 . S
C3482 C171 1.367 . S
C3517 C185 1.367 . S
C3532 C339 1.367 . S
C3567 C353 1.367 . S
C3582 C199 1.367 . S
C3617 C213 1.368 . S
C3632 C367 1.367 . S
