# Generated by pormake.
# Topology lcs-e, (6)-cn, num edge types: 1
# Building blocks:
#     Node 0, Type 0, BuildingBlock: CIFDUS_clean_sbu_1, # of connection points: 6
#     Node 1, Type 0, BuildingBlock: CIFDUS_clean_sbu_1, # of connection points: 6
#     Node 2, Type 0, BuildingBlock: CIFDUS_clean_sbu_1, # of connection points: 6
#     Node 3, Type 0, BuildingBlock: CIFDUS_clean_sbu_1, # of connection points: 6
#     Node 4, Type 0, BuildingBlock: CIFDUS_clean_sbu_1, # of connection points: 6
#     Node 5, Type 0, BuildingBlock: CIFDUS_clean_sbu_1, # of connection points: 6
#     Node 6, Type 0, BuildingBlock: CIFDUS_clean_sbu_1, # of connection points: 6
#     Node 7, Type 0, BuildingBlock: CIFDUS_clean_sbu_1, # of connection points: 6
#     Node 8, Type 0, BuildingBlock: CIFDUS_clean_sbu_1, # of connection points: 6
#     Node 9, Type 0, BuildingBlock: CIFDUS_clean_sbu_1, # of connection points: 6
#     Node 10, Type 0, BuildingBlock: CIFDUS_clean_sbu_1, # of connection points: 6
#     Node 11, Type 0, BuildingBlock: CIFDUS_clean_sbu_1, # of connection points: 6
#     Node 12, Type 0, BuildingBlock: CIFDUS_clean_sbu_1, # of connection points: 6
#     Node 13, Type 0, BuildingBlock: CIFDUS_clean_sbu_1, # of connection points: 6
#     Node 14, Type 0, BuildingBlock: CIFDUS_clean_sbu_1, # of connection points: 6
#     Node 15, Type 0, BuildingBlock: CIFDUS_clean_sbu_1, # of connection points: 6
#     Node 16, Type 0, BuildingBlock: CIFDUS_clean_sbu_1, # of connection points: 6
#     Node 17, Type 0, BuildingBlock: CIFDUS_clean_sbu_1, # of connection points: 6
#     Node 18, Type 0, BuildingBlock: CIFDUS_clean_sbu_1, # of connection points: 6
#     Node 19, Type 0, BuildingBlock: CIFDUS_clean_sbu_1, # of connection points: 6
#     Node 20, Type 0, BuildingBlock: CIFDUS_clean_sbu_1, # of connection points: 6
#     Node 21, Type 0, BuildingBlock: CIFDUS_clean_sbu_1, # of connection points: 6
#     Node 22, Type 0, BuildingBlock: CIFDUS_clean_sbu_1, # of connection points: 6
#     Node 23, Type 0, BuildingBlock: CIFDUS_clean_sbu_1, # of connection points: 6
#     Node 24, Type 0, BuildingBlock: CIFDUS_clean_sbu_1, # of connection points: 6
#     Node 25, Type 0, BuildingBlock: CIFDUS_clean_sbu_1, # of connection points: 6
#     Node 26, Type 0, BuildingBlock: CIFDUS_clean_sbu_1, # of connection points: 6
#     Node 27, Type 0, BuildingBlock: CIFDUS_clean_sbu_1, # of connection points: 6
#     Node 28, Type 0, BuildingBlock: CIFDUS_clean_sbu_1, # of connection points: 6
#     Node 29, Type 0, BuildingBlock: CIFDUS_clean_sbu_1, # of connection points: 6
#     Node 30, Type 0, BuildingBlock: CIFDUS_clean_sbu_1, # of connection points: 6
#     Node 31, Type 0, BuildingBlock: CIFDUS_clean_sbu_1, # of connection points: 6
#     Node 32, Type 0, BuildingBlock: CIFDUS_clean_sbu_1, # of connection points: 6
#     Node 33, Type 0, BuildingBlock: CIFDUS_clean_sbu_1, # of connection points: 6
#     Node 34, Type 0, BuildingBlock: CIFDUS_clean_sbu_1, # of connection points: 6
#     Node 35, Type 0, BuildingBlock: CIFDUS_clean_sbu_1, # of connection points: 6
#     Node 36, Type 0, BuildingBlock: CIFDUS_clean_sbu_1, # of connection points: 6
#     Node 37, Type 0, BuildingBlock: CIFDUS_clean_sbu_1, # of connection points: 6
#     Node 38, Type 0, BuildingBlock: CIFDUS_clean_sbu_1, # of connection points: 6
#     Node 39, Type 0, BuildingBlock: CIFDUS_clean_sbu_1, # of connection points: 6
#     Node 40, Type 0, BuildingBlock: CIFDUS_clean_sbu_1, # of connection points: 6
#     Node 41, Type 0, BuildingBlock: CIFDUS_clean_sbu_1, # of connection points: 6
#     Node 42, Type 0, BuildingBlock: CIFDUS_clean_sbu_1, # of connection points: 6
#     Node 43, Type 0, BuildingBlock: CIFDUS_clean_sbu_1, # of connection points: 6
#     Node 44, Type 0, BuildingBlock: CIFDUS_clean_sbu_1, # of connection points: 6
#     Node 45, Type 0, BuildingBlock: CIFDUS_clean_sbu_1, # of connection points: 6
#     Node 46, Type 0, BuildingBlock: CIFDUS_clean_sbu_1, # of connection points: 6
#     Node 47, Type 0, BuildingBlock: CIFDUS_clean_sbu_1, # of connection points: 6
#     Edge 48, Type (0, 0), None
#     Edge 49, Type (0, 0), None
#     Edge 50, Type (0, 0), None
#     Edge 51, Type (0, 0), None
#     Edge 52, Type (0, 0), None
#     Edge 53, Type (0, 0), None
#     Edge 54, Type (0, 0), None
#     Edge 55, Type (0, 0), None
#     Edge 56, Type (0, 0), None
#     Edge 57, Type (0, 0), None
#     Edge 58, Type (0, 0), None
#     Edge 59, Type (0, 0), None
#     Edge 60, Type (0, 0), None
#     Edge 61, Type (0, 0), None
#     Edge 62, Type (0, 0), None
#     Edge 63, Type (0, 0), None
#     Edge 64, Type (0, 0), None
#     Edge 65, Type (0, 0), None
#     Edge 66, Type (0, 0), None
#     Edge 67, Type (0, 0), None
#     Edge 68, Type (0, 0), None
#     Edge 69, Type (0, 0), None
#     Edge 70, Type (0, 0), None
#     Edge 71, Type (0, 0), None
#     Edge 72, Type (0, 0), None
#     Edge 73, Type (0, 0), None
#     Edge 74, Type (0, 0), None
#     Edge 75, Type (0, 0), None
#     Edge 76, Type (0, 0), None
#     Edge 77, Type (0, 0), None
#     Edge 78, Type (0, 0), None
#     Edge 79, Type (0, 0), None
#     Edge 80, Type (0, 0), None
#     Edge 81, Type (0, 0), None
#     Edge 82, Type (0, 0), None
#     Edge 83, Type (0, 0), None
#     Edge 84, Type (0, 0), None
#     Edge 85, Type (0, 0), None
#     Edge 86, Type (0, 0), None
#     Edge 87, Type (0, 0), None
#     Edge 88, Type (0, 0), None
#     Edge 89, Type (0, 0), None
#     Edge 90, Type (0, 0), None
#     Edge 91, Type (0, 0), None
#     Edge 92, Type (0, 0), None
#     Edge 93, Type (0, 0), None
#     Edge 94, Type (0, 0), None
#     Edge 95, Type (0, 0), None
#     Edge 96, Type (0, 0), None
#     Edge 97, Type (0, 0), None
#     Edge 98, Type (0, 0), None
#     Edge 99, Type (0, 0), None
#     Edge 100, Type (0, 0), None
#     Edge 101, Type (0, 0), None
#     Edge 102, Type (0, 0), None
#     Edge 103, Type (0, 0), None
#     Edge 104, Type (0, 0), None
#     Edge 105, Type (0, 0), None
#     Edge 106, Type (0, 0), None
#     Edge 107, Type (0, 0), None
#     Edge 108, Type (0, 0), None
#     Edge 109, Type (0, 0), None
#     Edge 110, Type (0, 0), None
#     Edge 111, Type (0, 0), None
#     Edge 112, Type (0, 0), None
#     Edge 113, Type (0, 0), None
#     Edge 114, Type (0, 0), None
#     Edge 115, Type (0, 0), None
#     Edge 116, Type (0, 0), None
#     Edge 117, Type (0, 0), None
#     Edge 118, Type (0, 0), None
#     Edge 119, Type (0, 0), None
#     Edge 120, Type (0, 0), None
#     Edge 121, Type (0, 0), None
#     Edge 122, Type (0, 0), None
#     Edge 123, Type (0, 0), None
#     Edge 124, Type (0, 0), None
#     Edge 125, Type (0, 0), None
#     Edge 126, Type (0, 0), None
#     Edge 127, Type (0, 0), None
#     Edge 128, Type (0, 0), None
#     Edge 129, Type (0, 0), None
#     Edge 130, Type (0, 0), None
#     Edge 131, Type (0, 0), None
#     Edge 132, Type (0, 0), None
#     Edge 133, Type (0, 0), None
#     Edge 134, Type (0, 0), None
#     Edge 135, Type (0, 0), None
#     Edge 136, Type (0, 0), None
#     Edge 137, Type (0, 0), None
#     Edge 138, Type (0, 0), None
#     Edge 139, Type (0, 0), None
#     Edge 140, Type (0, 0), None
#     Edge 141, Type (0, 0), None
#     Edge 142, Type (0, 0), None
#     Edge 143, Type (0, 0), None
#     Edge 144, Type (0, 0), None
#     Edge 145, Type (0, 0), None
#     Edge 146, Type (0, 0), None
#     Edge 147, Type (0, 0), None
#     Edge 148, Type (0, 0), None
#     Edge 149, Type (0, 0), None
#     Edge 150, Type (0, 0), None
#     Edge 151, Type (0, 0), None
#     Edge 152, Type (0, 0), None
#     Edge 153, Type (0, 0), None
#     Edge 154, Type (0, 0), None
#     Edge 155, Type (0, 0), None
#     Edge 156, Type (0, 0), None
#     Edge 157, Type (0, 0), None
#     Edge 158, Type (0, 0), None
#     Edge 159, Type (0, 0), None
#     Edge 160, Type (0, 0), None
#     Edge 161, Type (0, 0), None
#     Edge 162, Type (0, 0), None
#     Edge 163, Type (0, 0), None
#     Edge 164, Type (0, 0), None
#     Edge 165, Type (0, 0), None
#     Edge 166, Type (0, 0), None
#     Edge 167, Type (0, 0), None
#     Edge 168, Type (0, 0), None
#     Edge 169, Type (0, 0), None
#     Edge 170, Type (0, 0), None
#     Edge 171, Type (0, 0), None
#     Edge 172, Type (0, 0), None
#     Edge 173, Type (0, 0), None
#     Edge 174, Type (0, 0), None
#     Edge 175, Type (0, 0), None
#     Edge 176, Type (0, 0), None
#     Edge 177, Type (0, 0), None
#     Edge 178, Type (0, 0), None
#     Edge 179, Type (0, 0), None
#     Edge 180, Type (0, 0), None
#     Edge 181, Type (0, 0), None
#     Edge 182, Type (0, 0), None
#     Edge 183, Type (0, 0), None
#     Edge 184, Type (0, 0), None
#     Edge 185, Type (0, 0), None
#     Edge 186, Type (0, 0), None
#     Edge 187, Type (0, 0), None
#     Edge 188, Type (0, 0), None
#     Edge 189, Type (0, 0), None
#     Edge 190, Type (0, 0), None
#     Edge 191, Type (0, 0), None
# Relax obj value: 0.375
# Max RMSD: 0.254
# Mean RMSD: 0.254
data_MOF--net-lcs-e--node1-CIFDUS_clean_sbu_1--edge1-none
_symmetry_space_group_name_H-M    P1
_symmetry_Int_Tables_number       1
_symmetry_cell_setting            triclinic
loop_
_symmetry_equiv_pos_as_xyz
'x, y, z'
_cell_length_a     27.072196
_cell_length_b     27.042356
_cell_length_c     27.039434
_cell_angle_alpha  89.99704
_cell_angle_beta   90.007216
_cell_angle_gamma 90.003204
loop_
_atom_site_label
_atom_site_type_symbol
_atom_site_fract_x
_atom_site_fract_y
_atom_site_fract_z
_atom_type_partial_charge
O0 O 0.99438 0.3034 0.2653 0.0
Mn1 Mn 0.03426 0.37183 0.28585 0.0
O2 O 0.03117 0.2776 0.1951 0.0
Mn3 Mn 0.09064 0.29687 0.21434 0.0
O4 O 0.08351 0.42727 0.30379 0.0
O5 O 0.99217 0.38467 0.34825 0.0
Mn6 Mn 0.98896 0.45034 0.35263 0.0
O7 O 0.99387 0.43134 0.24773 0.0
O8 O 0.05052 0.47699 0.36016 0.0
O9 O 0.07691 0.32382 0.32728 0.0
O10 O 0.11077 0.26936 0.27409 0.0
O11 O 0.95465 0.43268 0.40507 0.0
O12 O 0.95388 0.47795 0.30474 0.0
C13 C 0.11747 0.36816 0.20209 0.0
C14 C 0.0057 0.26848 0.23285 0.0
C15 C 0.08773 0.45895 0.33821 0.0
C16 C 0.96558 0.38892 0.3886 0.0
C17 C 0.97003 0.47169 0.26201 0.0
C18 C 0.10311 0.28564 0.31777 0.0
O19 O 0.07791 0.3591 0.22681 0.0
O20 O 0.13522 0.33104 0.17751 0.0
O21 O 0.93494 0.74331 0.49418 0.0
Mn22 Mn 0.87582 0.78288 0.53385 0.0
O23 O 0.9809 0.79937 0.45099 0.0
Mn24 Mn 0.95556 0.8508 0.48388 0.0
O25 O 0.82869 0.82689 0.57402 0.0
O26 O 0.86051 0.72578 0.57971 0.0
Mn27 Mn 0.79747 0.71652 0.59109 0.0
O28 O 0.80808 0.76371 0.49293 0.0
O29 O 0.77223 0.7774 0.60985 0.0
O30 O 0.93198 0.80193 0.58204 0.0
O31 O 0.9801 0.85911 0.54676 0.0
O32 O 0.82787 0.67767 0.63616 0.0
O33 O 0.77661 0.69783 0.53241 0.0
C34 C 0.88704 0.88225 0.46619 0.0
C35 C 0.97453 0.7568 0.46849 0.0
C36 C 0.78999 0.81997 0.60005 0.0
C37 C 0.86657 0.70089 0.61996 0.0
C38 C 0.7703 0.73575 0.50632 0.0
C39 C 0.96204 0.8381 0.58481 0.0
O40 O 0.89131 0.84149 0.49057 0.0
O41 O 0.92789 0.90203 0.45085 0.0
O42 O 0.49592 0.68646 0.7643 0.0
Mn43 Mn 0.45703 0.61694 0.78299 0.0
O44 O 0.45809 0.71481 0.69576 0.0
Mn45 Mn 0.39935 0.69166 0.71197 0.0
O46 O 0.40931 0.55935 0.79974 0.0
O47 O 0.49875 0.60302 0.84411 0.0
Mn48 Mn 0.50259 0.53783 0.85223 0.0
O49 O 0.49934 0.55874 0.74506 0.0
O50 O 0.43977 0.51456 0.86157 0.0
O51 O 0.41363 0.66386 0.82487 0.0
O52 O 0.37675 0.71657 0.77183 0.0
O53 O 0.53736 0.56121 0.90333 0.0
O54 O 0.5351 0.50876 0.80275 0.0
C55 C 0.37591 0.61975 0.69752 0.0
C56 C 0.48258 0.72299 0.73442 0.0
C57 C 0.40338 0.53182 0.83748 0.0
C58 C 0.52434 0.6035 0.88476 0.0
C59 C 0.52186 0.51745 0.75918 0.0
C60 C 0.38632 0.7013 0.8155 0.0
O61 O 0.41447 0.62983 0.72331 0.0
O62 O 0.35795 0.65647 0.67246 0.0
O63 O 0.55537 0.24804 -0.00405 0.0
Mn64 Mn 0.61596 0.20766 0.03262 0.0
O65 O 0.50926 0.19254 0.9519 0.0
Mn66 Mn 0.5369 0.14038 0.98117 0.0
O67 O 0.66335 0.1615 0.0691 0.0
O68 O 0.63146 0.26177 0.08175 0.0
Mn69 Mn 0.69465 0.26943 0.09411 0.0
O70 O 0.68326 0.23127 0.99291 0.0
O71 O 0.72011 0.20734 0.10849 0.0
O72 O 0.56128 0.18517 0.08092 0.0
O73 O 0.51459 0.12775 0.04417 0.0
O74 O 0.66447 0.30521 0.14174 0.0
O75 O 0.71587 0.29394 0.03767 0.0
C76 C 0.60499 0.11048 0.961 0.0
C77 C 0.5154 0.23454 0.97071 0.0
C78 C 0.70128 0.16581 0.09649 0.0
C79 C 0.62528 0.28487 0.12302 0.0
C80 C 0.7208 0.25954 0.00696 0.0
C81 C 0.53091 0.14927 0.08272 0.0
O82 O 0.60098 0.15077 0.98646 0.0
O83 O 0.56409 0.0915 0.9448 0.0
O84 O 0.993 0.68616 0.22988 0.0
Mn85 Mn 0.03248 0.6179 0.20767 0.0
O86 O 0.03387 0.71544 0.29676 0.0
Mn87 Mn 0.09145 0.69511 0.27395 0.0
O88 O 0.0807 0.56218 0.18751 0.0
O89 O 0.98836 0.60354 0.14877 0.0
Mn90 Mn 0.9834 0.53899 0.13943 0.0
O91 O 0.99373 0.5578 0.24657 0.0
O92 O 0.04608 0.51559 0.12884 0.0
O93 O 0.07254 0.66506 0.1635 0.0
O94 O 0.10755 0.72199 0.21285 0.0
O95 O 0.94761 0.56423 0.0897 0.0
O96 O 0.95223 0.51095 0.18995 0.0
C97 C 0.11934 0.6247 0.2871 0.0
C98 C 0.00539 0.72229 0.26075 0.0
C99 C 0.08385 0.53237 0.1512 0.0
C100 C 0.96237 0.60579 0.10859 0.0
C101 C 0.96988 0.51727 0.2323 0.0
C102 C 0.09859 0.70375 0.17028 0.0
O103 O 0.07839 0.63236 0.26431 0.0
O104 O 0.1385 0.66282 0.309 0.0
O105 O 0.5567 0.74386 0.5001 0.0
Mn106 Mn 0.61425 0.78279 0.45788 0.0
O107 O 0.50688 0.80143 0.53646 0.0
Mn108 Mn 0.53523 0.852 0.50455 0.0
O109 O 0.66022 0.82596 0.41575 0.0
O110 O 0.62783 0.724 0.41371 0.0
Mn111 Mn 0.69006 0.71508 0.39856 0.0
O112 O 0.68357 0.7641 0.49685 0.0
O113 O 0.71353 0.77568 0.37647 0.0
O114 O 0.55652 0.79999 0.41044 0.0
O115 O 0.51267 0.86226 0.4414 0.0
O116 O 0.65691 0.67453 0.35677 0.0
O117 O 0.71507 0.69847 0.4563 0.0
C118 C 0.60189 0.88402 0.52552 0.0
C119 C 0.51595 0.75771 0.52364 0.0
C120 C 0.69745 0.81856 0.38788 0.0
C121 C 0.6193 0.69866 0.3742 0.0
C122 C 0.7213 0.73613 0.48285 0.0
C123 C 0.52959 0.83821 0.40476 0.0
O124 O 0.60009 0.84327 0.50025 0.0
O125 O 0.56006 0.90276 0.53948 0.0
O126 O 0.49555 0.30438 0.72276 0.0
Mn127 Mn 0.45573 0.37362 0.70558 0.0
O128 O 0.46249 0.27991 0.79486 0.0
Mn129 Mn 0.40188 0.30035 0.78124 0.0
O130 O 0.40682 0.43062 0.69123 0.0
O131 O 0.49525 0.3865 0.64133 0.0
Mn132 Mn 0.49704 0.45255 0.63697 0.0
O133 O 0.49935 0.43165 0.74222 0.0
O134 O 0.43492 0.47812 0.63088 0.0
O135 O 0.41044 0.32552 0.6665 0.0
O136 O 0.37674 0.27382 0.72277 0.0
O137 O 0.52949 0.43529 0.58311 0.0
O138 O 0.53313 0.48147 0.68384 0.0
C139 C 0.37755 0.37255 0.79432 0.0
C140 C 0.4843 0.2695 0.75513 0.0
C141 C 0.3994 0.45945 0.6549 0.0
C142 C 0.52037 0.39131 0.60005 0.0
C143 C 0.52162 0.47281 0.72776 0.0
C144 C 0.38413 0.28787 0.67818 0.0
O145 O 0.41526 0.36203 0.76732 0.0
O146 O 0.36183 0.33644 0.82162 0.0
O147 O 0.93538 0.248 0.99301 0.0
Mn148 Mn 0.87375 0.20736 0.9583 0.0
O149 O 0.97798 0.19435 0.04258 0.0
Mn150 Mn 0.95231 0.14103 0.01369 0.0
O151 O 0.82546 0.16055 0.92333 0.0
O152 O 0.85772 0.25957 0.90726 0.0
Mn153 Mn 0.79422 0.26827 0.89714 0.0
O154 O 0.80753 0.23208 -0.00146 0.0
O155 O 0.76734 0.20634 0.88567 0.0
O156 O 0.9276 0.18238 0.9107 0.0
O157 O 0.97614 0.12867 0.95105 0.0
O158 O 0.82314 0.30257 0.84774 0.0
O159 O 0.7753 0.2944 0.95368 0.0
C160 C 0.88219 0.11297 0.03114 0.0
C161 C 0.97439 0.23473 0.01986 0.0
C162 C 0.78677 0.16489 0.89687 0.0
C163 C 0.86281 0.28266 0.86586 0.0
C164 C 0.7699 0.25969 0.98393 0.0
C165 C 0.95995 0.14821 0.91133 0.0
O166 O 0.88893 0.15295 0.00633 0.0
O167 O 0.92178 0.09263 0.04885 0.0
O168 O 0.27059 0.99423 0.30534 0.0
Mn169 Mn 0.28677 0.03533 0.37387 0.0
O170 O 0.19777 0.02553 0.2823 0.0
Mn171 Mn 0.21007 0.08726 0.30005 0.0
O172 O 0.30016 0.08569 0.4296 0.0
O173 O 0.35241 -0.00381 0.38707 0.0
Mn174 Mn 0.35294 0.99478 0.45362 0.0
O175 O 0.24929 0.99221 0.43215 0.0
O176 O 0.35571 0.05626 0.4816 0.0
O177 O 0.32503 0.0806 0.32477 0.0
O178 O 0.26799 0.113 0.27288 0.0
O179 O 0.40891 0.96446 0.44003 0.0
O180 O 0.30665 0.95647 0.48109 0.0
C181 C 0.19676 0.11331 0.37152 0.0
C182 C 0.23795 0.00525 0.27085 0.0
C183 C 0.33407 0.09233 0.46125 0.0
C184 C 0.3939 0.9715 0.39499 0.0
C185 C 0.26289 0.96877 0.47291 0.0
C186 C 0.31271 0.10644 0.28685 0.0
O187 O 0.22482 0.07597 0.36196 0.0
O188 O 0.1688 0.12713 0.33517 0.0
O189 O 0.24396 0.99216 0.5584 0.0
Mn190 Mn 0.20532 0.03424 0.61662 0.0
O191 O 0.18773 0.95423 0.50955 0.0
Mn192 Mn 0.13977 0.99099 0.53633 0.0
O193 O 0.16513 0.07831 0.66491 0.0
O194 O 0.2661 0.07578 0.62962 0.0
Mn195 Mn 0.27881 0.08895 0.6916 0.0
O196 O 0.22248 0.99353 0.68517 0.0
O197 O 0.21993 0.11345 0.71723 0.0
O198 O 0.19042 0.08408 0.5606 0.0
O199 O 0.13545 0.05264 0.50874 0.0
O200 O 0.32001 0.12906 0.6569 0.0
O201 O 0.29256 0.02858 0.71189 0.0
C202 C 0.10009 0.96884 0.5969 0.0
C203 C 0.23104 0.96822 0.51769 0.0
C204 C 0.17581 0.10511 0.70254 0.0
C205 C 0.29355 0.11348 0.6201 0.0
C206 C 0.25295 0.0062 0.72121 0.0
C207 C 0.15609 0.08944 0.52903 0.0
O208 O 0.14124 0.99418 0.6026 0.0
O209 O 0.08488 0.9592 0.55242 0.0
O210 O 0.24423 0.99419 0.93448 0.0
Mn211 Mn 0.20471 0.95521 0.87445 0.0
O212 O 0.19041 0.04175 0.97692 0.0
Mn213 Mn 0.14118 0.00358 0.95524 0.0
O214 O 0.16358 0.91376 0.82468 0.0
O215 O 0.26347 0.91149 0.8597 0.0
Mn216 Mn 0.2767 0.90226 0.79705 0.0
O217 O 0.2229 -0.00191 0.80797 0.0
O218 O 0.21744 0.88169 0.76944 0.0
O219 O 0.18608 0.90489 0.9286 0.0
O220 O 0.1404 0.94284 0.98569 0.0
O221 O 0.31576 0.85816 0.8289 0.0
O222 O 0.2928 0.96341 0.78137 0.0
C223 C 0.10192 0.02172 0.89232 0.0
C224 C 0.23197 0.02187 0.97293 0.0
C225 C 0.17369 0.88883 0.7856 0.0
C226 C 0.29032 0.87288 0.86673 0.0
C227 C 0.25324 0.9858 0.77195 0.0
C228 C 0.1557 0.90388 0.96451 0.0
O229 O 0.14284 -0.00374 0.88976 0.0
O230 O 0.08587 0.03394 0.93586 0.0
O231 O 0.2483 0.99414 0.05796 0.0
Mn232 Mn 0.28691 0.95399 0.11784 0.0
O233 O 0.30348 0.0396 0.01528 0.0
Mn234 Mn 0.35084 -0.00069 0.03717 0.0
O235 O 0.32636 0.91125 0.16801 0.0
O236 O 0.22689 0.91131 0.1322 0.0
Mn237 Mn 0.21233 0.9046 0.19489 0.0
O238 O 0.27044 -0.00249 0.18433 0.0
O239 O 0.27087 0.88306 0.22386 0.0
O240 O 0.30324 0.90293 0.06385 0.0
O241 O 0.34929 0.93888 0.00622 0.0
O242 O 0.17286 0.86024 0.16382 0.0
O243 O 0.1976 0.96706 0.20739 0.0
C244 C 0.39187 0.01873 0.09776 0.0
C245 C 0.26122 0.0215 0.01954 0.0
C246 C 0.31503 0.88785 0.20775 0.0
C247 C 0.19946 0.87281 0.12604 0.0
C248 C 0.23756 0.98776 0.21868 0.0
C249 C 0.33353 0.90058 0.02807 0.0
O250 O 0.35067 0.9936 0.10304 0.0
O251 O 0.40745 0.02824 0.05335 0.0
O252 O 0.43045 0.25095 -0.00416 0.0
Mn253 Mn 0.37068 0.28912 0.0353 0.0
O254 O 0.47463 0.30645 0.95224 0.0
Mn255 Mn 0.45054 0.35315 0.99151 0.0
O256 O 0.32048 0.32847 0.07795 0.0
O257 O 0.35769 0.22895 0.07765 0.0
Mn258 Mn 0.29594 0.21393 0.08924 0.0
O259 O 0.30459 0.26996 0.99296 0.0
O260 O 0.26837 0.27268 0.11212 0.0
O261 O 0.42366 0.30612 0.08663 0.0
O262 O 0.48086 0.35331 0.05201 0.0
O263 O 0.33121 0.1752 0.13141 0.0
O264 O 0.28058 0.19871 0.02754 0.0
C265 C 0.3924 0.39453 0.96913 0.0
C266 C 0.46974 0.26428 0.97023 0.0
C267 C 0.28301 0.31704 0.10468 0.0
C268 C 0.36763 0.20166 0.11518 0.0
C269 C 0.26998 0.23805 0.00526 0.0
C270 C 0.45956 0.33595 0.08981 0.0
O271 O 0.38439 0.35364 0.99478 0.0
O272 O 0.43738 0.40922 0.96135 0.0
O273 O 0.98368 0.93557 0.24461 0.0
Mn274 Mn 0.95625 0.87205 0.20138 0.0
O275 O 0.04672 0.96816 0.20145 0.0
Mn276 Mn 0.01777 0.95231 0.14488 0.0
O277 O 0.92615 0.82074 0.15446 0.0
O278 O 0.90102 0.85547 0.24971 0.0
Mn279 Mn 0.89755 0.79167 0.26177 0.0
O280 O -0.00216 0.80841 0.22991 0.0
O281 O 0.89258 0.76061 0.20111 0.0
O282 O 0.91013 0.92354 0.17018 0.0
O283 O 0.95731 0.98231 0.13515 0.0
O284 O 0.84538 0.81577 0.29461 0.0
O285 O 0.95322 0.77977 0.29346 0.0
C286 C 0.03377 0.88724 0.10812 0.0
C287 C 0.0142 0.97219 0.23403 0.0
C288 C 0.90088 0.78123 0.15961 0.0
C289 C 0.86114 0.85709 0.27601 0.0
C290 C 0.98459 0.77275 0.26033 0.0
C291 C 0.91549 0.96317 0.14514 0.0
O292 O 0.00649 0.88834 0.14759 0.0
O293 O 0.05344 0.92867 0.09417 0.0
O294 O 0.05903 0.74053 0.4948 0.0
Mn295 Mn 0.11811 0.70336 0.53631 0.0
O296 O 0.01529 0.68414 0.45193 0.0
Mn297 Mn 0.03846 0.63825 0.49309 0.0
O298 O 0.16841 0.66515 0.58033 0.0
O299 O 0.13086 0.76499 0.57669 0.0
Mn300 Mn 0.19262 0.78015 0.58788 0.0
O301 O 0.18404 0.72033 0.49335 0.0
O302 O 0.22001 0.72226 0.61311 0.0
O303 O 0.06418 0.68829 0.58745 0.0
O304 O 0.00721 0.64063 0.55317 0.0
O305 O 0.15731 0.82074 0.62828 0.0
O306 O 0.20863 0.79221 0.52571 0.0
C307 C 0.09785 0.59665 0.47315 0.0
C308 C 0.02032 0.72697 0.46845 0.0
C309 C 0.20617 0.67754 0.60632 0.0
C310 C 0.12106 0.79308 0.61372 0.0
C311 C 0.21903 0.75194 0.50493 0.0
C312 C 0.02903 0.65755 0.59088 0.0
O313 O 0.10454 0.63823 0.4977 0.0
O314 O 0.05316 0.58108 0.46519 0.0
O315 O -0.00471 0.68404 0.74674 0.0
Mn316 Mn 0.95648 0.62415 0.7076 0.0
O317 O 0.93991 0.72925 0.79086 0.0
Mn318 Mn 0.88975 0.70381 0.75666 0.0
O319 O 0.91382 0.57569 0.66673 0.0
O320 O 0.01455 0.60979 0.66342 0.0
Mn321 Mn 0.0257 0.54755 0.6496 0.0
O322 O 0.97676 0.55712 0.74849 0.0
O323 O 0.96544 0.52213 0.62916 0.0
O324 O 0.9372 0.67918 0.65854 0.0
O325 O 0.88348 0.7305 0.69462 0.0
O326 O 0.06406 0.58155 0.60631 0.0
O327 O 0.04331 0.52712 0.70887 0.0
C328 C 0.85568 0.63762 0.77546 0.0
C329 C 0.98184 0.72385 0.77201 0.0
C330 C 0.92224 0.53814 0.63926 0.0
C331 C 0.04002 0.61883 0.62446 0.0
C332 C 0.0051 0.51994 0.73428 0.0
C333 C 0.90316 0.71155 0.65638 0.0
O334 O 0.89636 0.63887 0.7501 0.0
O335 O 0.83747 0.6797 0.78958 0.0
O336 O 0.18254 0.2501 0.49495 0.0
Mn337 Mn 0.12468 0.20784 0.45633 0.0
O338 O 0.23254 0.28537 0.43757 0.0
Mn339 Mn 0.20407 0.25089 0.389 0.0
O340 O 0.07794 0.16469 0.41486 0.0
O341 O 0.11155 0.16487 0.51627 0.0
Mn342 Mn 0.04942 0.15046 0.5268 0.0
O343 O 0.05541 0.24735 0.47477 0.0
O344 O 0.02463 0.12756 0.46687 0.0
O345 O 0.18136 0.15878 0.44076 0.0
O346 O 0.22896 0.18851 0.38112 0.0
O347 O 0.08303 0.10899 0.5673 0.0
O348 O 0.02694 0.20931 0.54317 0.0
C349 C 0.14259 0.27435 0.35176 0.0
C350 C 0.22364 0.27296 0.48127 0.0
C351 C 0.0405 0.13737 0.42349 0.0
C352 C 0.12033 0.12589 0.54235 0.0
C353 C 0.01896 0.23439 0.50488 0.0
C354 C 0.21061 0.15235 0.40455 0.0
O355 O 0.13815 0.24866 0.3928 0.0
O356 O 0.18657 0.28485 0.33583 0.0
O357 O 0.49537 0.30661 0.24525 0.0
Mn358 Mn 0.5353 0.36694 0.20746 0.0
O359 O 0.54854 0.26369 0.29321 0.0
Mn360 Mn 0.59849 0.28614 0.25646 0.0
O361 O 0.5773 0.41651 0.16739 0.0
O362 O 0.47721 0.38187 0.16308 0.0
Mn363 Mn 0.46531 0.44436 0.15122 0.0
O364 O 0.5155 0.43309 0.24989 0.0
O365 O 0.52519 0.47016 0.13035 0.0
O366 O 0.5553 0.31343 0.15706 0.0
O367 O 0.60065 0.25625 0.19552 0.0
O368 O 0.42583 0.41159 0.10823 0.0
O369 O 0.44855 0.46251 0.21135 0.0
C370 C 0.63768 0.34922 0.27481 0.0
C371 C 0.50736 0.26781 0.27253 0.0
C372 C 0.56848 0.4542 0.14017 0.0
C373 C 0.45036 0.37388 0.12475 0.0
C374 C 0.48729 0.47027 0.2357 0.0
C375 C 0.58534 0.27724 0.15644 0.0
O376 O 0.59679 0.35162 0.24922 0.0
O377 O 0.65328 0.30573 0.28773 0.0
O378 O 0.43596 0.74276 0.97678 0.0
Mn379 Mn 0.36902 0.7833 0.95455 0.0
O380 O 0.46348 0.78261 0.04476 0.0
Mn381 Mn 0.44441 0.8417 0.02464 0.0
O382 O 0.31573 0.8337 0.93497 0.0
O383 O 0.3562 0.74076 0.89128 0.0
Mn384 Mn 0.2903 0.73747 0.89052 0.0
O385 O 0.30884 0.74525 0.99371 0.0
O386 O 0.26144 0.79832 0.88475 0.0
O387 O 0.41787 0.82382 0.91274 0.0
O388 O 0.47108 0.86153 0.96449 0.0
O389 O 0.30415 0.70384 0.8369 0.0
O390 O 0.26454 0.70116 0.93851 0.0
C391 C 0.37317 0.86751 0.03788 0.0
C392 C 0.47154 0.75571 0.00781 0.0
C393 C 0.28117 0.83638 0.90346 0.0
C394 C 0.34885 0.71387 0.85114 0.0
C395 C 0.26926 0.72 0.98027 0.0
C396 C 0.45484 0.85184 0.92123 0.0
O397 O 0.38228 0.8282 0.01273 0.0
O398 O 0.41037 0.88595 0.06177 0.0
O399 O 0.97688 0.43334 0.74185 0.0
Mn400 Mn 0.95447 0.36789 0.78394 0.0
O401 O 0.04234 0.46341 0.7829 0.0
Mn402 Mn 0.02229 0.44577 0.84224 0.0
O403 O 0.93167 0.31526 0.83376 0.0
O404 O 0.89399 0.35287 0.74053 0.0
Mn405 Mn 0.89276 0.28772 0.73225 0.0
O406 O 0.99494 0.30651 0.74858 0.0
O407 O 0.88964 0.2571 0.79285 0.0
O408 O 0.91137 0.41779 0.82188 0.0
O409 O 0.96172 0.4721 0.86015 0.0
O410 O 0.83873 0.30702 0.69993 0.0
O411 O 0.94359 0.26701 0.69618 0.0
C412 C 0.03623 0.37532 0.86963 0.0
C413 C 0.00485 0.47055 0.75654 0.0
C414 C 0.90332 0.27775 0.83274 0.0
C415 C 0.85359 0.35038 0.71414 0.0
C416 C 0.98302 0.26854 0.72018 0.0
C417 C 0.91897 0.45525 0.84963 0.0
O418 O 0.01078 0.38313 0.83035 0.0
O419 O 0.05941 0.41327 0.88748 0.0
O420 O 0.30898 0.25019 0.49944 0.0
Mn421 Mn 0.3671 0.20759 0.537 0.0
O422 O 0.25987 0.28603 0.5567 0.0
Mn423 Mn 0.28757 0.24851 0.60332 0.0
O424 O 0.41558 0.16303 0.57595 0.0
O425 O 0.37918 0.1667 0.47539 0.0
Mn426 Mn 0.44073 0.15291 0.46169 0.0
O427 O 0.43554 0.24811 0.51954 0.0
O428 O 0.46645 0.12721 0.52019 0.0
O429 O 0.31166 0.1572 0.55133 0.0
O430 O 0.26004 0.18697 0.60718 0.0
O431 O 0.40498 0.11376 0.4204 0.0
O432 O 0.46057 0.21361 0.44847 0.0
C433 C 0.34622 0.27206 0.64378 0.0
C434 C 0.26814 0.27331 0.51306 0.0
C435 C 0.45244 0.13558 0.56458 0.0
C436 C 0.36881 0.1295 0.44756 0.0
C437 C 0.47079 0.23547 0.48818 0.0
C438 C 0.2801 0.15083 0.58539 0.0
O439 O 0.35397 0.24709 0.6024 0.0
O440 O 0.30132 0.27966 0.65874 0.0
O441 O 0.51564 0.557 0.24423 0.0
Mn442 Mn 0.53278 0.62542 0.28461 0.0
O443 O 0.44762 0.52748 0.28139 0.0
Mn444 Mn 0.46152 0.54968 0.34096 0.0
O445 O 0.5481 0.68229 0.33326 0.0
O446 O 0.59482 0.64032 0.24427 0.0
Mn447 Mn 0.59993 0.70583 0.23886 0.0
O448 O 0.49436 0.6834 0.24241 0.0
O449 O 0.60447 0.73265 0.30099 0.0
O450 O 0.57427 0.57795 0.3281 0.0
O451 O 0.52099 0.52538 0.36491 0.0
O452 O 0.65369 0.68389 0.20717 0.0
O453 O 0.55078 0.73143 0.20291 0.0
C454 C 0.44608 0.62099 0.36472 0.0
C455 C 0.487 0.51984 0.25792 0.0
C456 C 0.58353 0.71279 0.33802 0.0
C457 C 0.63605 0.64101 0.21948 0.0
C458 C 0.50768 0.72383 0.2181 0.0
C459 C 0.56469 0.54047 0.35539 0.0
O460 O 0.47278 0.61164 0.32655 0.0
O461 O 0.42046 0.58406 0.38138 0.0
O462 O 0.05571 0.74224 0.0116 0.0
Mn463 Mn 0.12276 0.78233 0.03543 0.0
O464 O 0.02618 0.78501 0.94602 0.0
Mn465 Mn 0.04566 0.84251 0.96981 0.0
O466 O 0.17643 0.83183 0.0571 0.0
O467 O 0.13641 0.73812 0.09594 0.0
Mn468 Mn 0.20157 0.73401 0.10153 0.0
O469 O 0.18358 0.74541 -0.00415 0.0
O470 O 0.22661 0.79611 0.11181 0.0
O471 O 0.0744 0.82016 0.0794 0.0
O472 O 0.01894 0.85858 0.03106 0.0
O473 O 0.18144 0.69766 0.15231 0.0
O474 O 0.22877 0.70161 0.05143 0.0
C475 C 0.1157 0.87073 0.95605 0.0
C476 C 0.01963 0.75536 0.98106 0.0
C477 C 0.20871 0.83426 0.09113 0.0
C478 C 0.13837 0.71103 0.13602 0.0
C479 C 0.22341 0.72034 0.00954 0.0
C480 C 0.03675 0.84761 0.07335 0.0
O481 O 0.10847 0.82983 0.97947 0.0
O482 O 0.07733 0.88945 0.93426 0.0
O483 O 0.73742 0.99399 0.6827 0.0
Mn484 Mn 0.70575 0.95239 0.62042 0.0
O485 O 0.79278 0.94508 0.72046 0.0
Mn486 Mn 0.76036 0.89244 0.69991 0.0
O487 O 0.66955 0.90786 0.57032 0.0
O488 O 0.6563 0.0058 0.60495 0.0
Mn489 Mn 0.64801 0.0184 0.5419 0.0
O490 O 0.7471 0.97818 0.55521 0.0
O491 O 0.63734 0.9577 0.51185 0.0
O492 O 0.65738 0.92655 0.6727 0.0
O493 O 0.69996 0.88463 0.72983 0.0
O494 O 0.59774 0.0508 0.57203 0.0
O495 O 0.70598 0.04547 0.52849 0.0
C496 C 0.78158 0.85518 0.63848 0.0
C497 C 0.76392 0.98093 0.72154 0.0
C498 C 0.64438 0.91519 0.53101 0.0
C499 C 0.61565 0.02948 0.61103 0.0
C500 C 0.73556 0.0107 0.52062 0.0
C501 C 0.65953 0.8989 0.7107 0.0
O502 O 0.75265 0.89389 0.63493 0.0
O503 O 0.79681 0.84137 0.68188 0.0
O504 O 0.75756 0.99368 0.30865 0.0
Mn505 Mn 0.78556 0.95024 0.37147 0.0
O506 O 0.6959 0.95017 0.27548 0.0
Mn507 Mn 0.72728 0.89532 0.29152 0.0
O508 O 0.81882 0.90473 0.42262 0.0
O509 O 0.83815 0.00082 0.38803 0.0
Mn510 Mn 0.84251 0.01428 0.45137 0.0
O511 O 0.74358 0.97768 0.43532 0.0
O512 O 0.84924 0.95376 0.48275 0.0
O513 O 0.83278 0.92144 0.31981 0.0
O514 O 0.78684 0.88791 0.25963 0.0
O515 O 0.8945 0.04639 0.42479 0.0
O516 O 0.78537 0.04434 0.46157 0.0
C517 C 0.70642 0.85539 0.35101 0.0
C518 C 0.72842 0.98249 0.27135 0.0
C519 C 0.84327 0.91162 0.46252 0.0
C520 C 0.87837 0.02601 0.38451 0.0
C521 C 0.75478 0.0106 0.46944 0.0
C522 C 0.82829 0.89773 0.27935 0.0
O523 O 0.73665 0.89308 0.35616 0.0
O524 O 0.69001 0.84422 0.30729 0.0
O525 O 0.75768 -0.00398 0.1852 0.0
Mn526 Mn 0.78416 0.03936 0.12114 0.0
O527 O 0.69583 0.03986 0.21939 0.0
Mn528 Mn 0.72236 0.09658 0.20096 0.0
O529 O 0.81323 0.08773 0.07027 0.0
O530 O 0.84135 0.99304 0.10465 0.0
Mn531 Mn 0.84372 0.98187 0.04051 0.0
O532 O 0.74339 0.00894 0.05747 0.0
O533 O 0.84598 0.04252 0.00897 0.0
O534 O 0.82967 0.07106 0.17252 0.0
O535 O 0.78311 0.11043 0.22884 0.0
O536 O 0.89741 0.95039 0.06282 0.0
O537 O 0.78998 0.94698 0.02781 0.0
C538 C 0.70344 0.13033 0.13543 0.0
C539 C 0.72871 0.00766 0.22289 0.0
C540 C 0.83841 0.08359 0.03061 0.0
C541 C 0.88184 0.96737 0.10491 0.0
C542 C 0.75567 0.97733 0.02238 0.0
C543 C 0.82481 0.09804 0.21079 0.0
O544 O 0.73212 0.09181 0.13692 0.0
O545 O 0.68365 0.14446 0.17674 0.0
O546 O 0.74663 0.0084 0.93634 0.0
Mn547 Mn 0.70625 0.03633 0.87093 0.0
O548 O 0.70129 0.94511 0.96665 0.0
Mn549 Mn 0.64585 0.97591 0.95088 0.0
O550 O 0.65895 0.06391 0.81853 0.0
O551 O 0.75549 0.09155 0.85594 0.0
Mn552 Mn 0.76314 0.09801 0.79163 0.0
O553 O 0.73691 0.99446 0.80794 0.0
O554 O 0.70167 0.11091 0.76535 0.0
O555 O 0.67304 0.08348 0.92031 0.0
O556 O 0.63881 0.03746 0.98028 0.0
O557 O 0.8015 0.14614 0.81546 0.0
O558 O 0.79192 0.044 0.76904 0.0
C559 C 0.6116 0.96378 0.88288 0.0
C560 C 0.73437 0.97707 0.97198 0.0
C561 C 0.66118 0.09443 0.7828 0.0
C562 C 0.78379 0.13038 0.85717 0.0
C563 C 0.76359 0.00758 0.76895 0.0
C564 C 0.64737 0.07888 0.95955 0.0
O565 O 0.65369 0.98574 0.88712 0.0
O566 O 0.59357 0.94498 0.92313 0.0
O567 O 0.55727 0.74779 0.97737 0.0
Mn568 Mn 0.62167 0.7055 0.95337 0.0
O569 O 0.5302 0.70793 0.04475 0.0
Mn570 Mn 0.54209 0.64907 0.01913 0.0
O571 O 0.67473 0.65789 0.92799 0.0
O572 O 0.63737 0.75228 0.89704 0.0
Mn573 Mn 0.70131 0.76264 0.89146 0.0
O574 O 0.6832 0.7382 0.99469 0.0
O575 O 0.73041 0.70153 0.88444 0.0
O576 O 0.57173 0.66937 0.90862 0.0
O577 O 0.51216 0.63893 0.95838 0.0
O578 O 0.67601 0.79658 0.84032 0.0
O579 O 0.71966 0.79475 0.94537 0.0
C580 C 0.61015 0.615 0.03042 0.0
C581 C 0.52194 0.73543 0.00834 0.0
C582 C 0.71171 0.66084 0.89901 0.0
C583 C 0.63487 0.77896 0.85747 0.0
C584 C 0.72108 0.766 0.98153 0.0
C585 C 0.53155 0.64555 0.91593 0.0
O586 O 0.60528 0.6557 0.00642 0.0
O587 O 0.5708 0.5984 0.05208 0.0
O588 O 0.01851 0.05682 0.74378 0.0
Mn589 Mn 0.03831 0.12272 0.78673 0.0
O590 O 0.94736 0.03271 0.77772 0.0
Mn591 Mn 0.96706 0.04527 0.83872 0.0
O592 O 0.05793 0.17608 0.83678 0.0
O593 O 0.10109 0.13606 0.74371 0.0
Mn594 Mn 0.10025 0.20178 0.7382 0.0
O595 O -0.00164 0.18342 0.74914 0.0
O596 O 0.10326 0.23281 0.79843 0.0
O597 O 0.07947 0.0727 0.8275 0.0
O598 O 0.02623 0.01552 0.85694 0.0
O599 O 0.15496 0.18784 0.70603 0.0
O600 O 0.05174 0.22378 0.69987 0.0
C601 C 0.95371 0.1124 0.87287 0.0
C602 C 0.98573 0.02245 0.75391 0.0
C603 C 0.08766 0.21232 0.83753 0.0
C604 C 0.14104 0.14311 0.71654 0.0
C605 C 0.01085 0.22128 0.72086 0.0
C606 C 0.06974 0.03295 0.85146 0.0
O607 O 0.98079 0.10836 0.83354 0.0
O608 O 0.9287 0.07346 0.88533 0.0
O609 O 0.93226 0.24323 0.47594 0.0
Mn610 Mn 0.86572 0.28549 0.45665 0.0
O611 O 0.9605 0.27997 0.54443 0.0
Mn612 Mn 0.94441 0.34011 0.52523 0.0
O613 O 0.81078 0.33434 0.43664 0.0
O614 O 0.84991 0.24261 0.39797 0.0
Mn615 Mn 0.78573 0.2344 0.38992 0.0
O616 O 0.80574 0.24691 0.4959 0.0
O617 O 0.75839 0.29649 0.38485 0.0
O618 O 0.91441 0.32552 0.41362 0.0
O619 O 0.97223 0.35679 0.46494 0.0
O620 O 0.81283 0.20285 0.33759 0.0
O621 O 0.76337 0.19932 0.441 0.0
C622 C 0.87567 0.3716 0.53826 0.0
C623 C 0.96881 0.25581 0.5056 0.0
C624 C 0.77739 0.33535 0.40342 0.0
C625 C 0.85376 0.21797 0.35738 0.0
C626 C 0.76725 0.2197 0.48247 0.0
C627 C 0.95437 0.3494 0.42192 0.0
O628 O 0.88132 0.33126 0.51362 0.0
O629 O 0.91429 0.38728 0.56189 0.0
O630 O 0.49068 0.80948 0.76504 0.0
Mn631 Mn 0.53381 0.87413 0.78868 0.0
O632 O 0.53036 0.78188 0.69813 0.0
Mn633 Mn 0.58907 0.79376 0.72348 0.0
O634 O 0.58254 0.92633 0.81474 0.0
O635 O 0.48807 0.89043 0.84675 0.0
Mn636 Mn 0.47816 0.95505 0.84761 0.0
O637 O 0.50158 0.93626 0.74648 0.0
O638 O 0.53872 0.9859 0.85209 0.0
O639 O 0.56859 0.82357 0.83321 0.0
O640 O 0.60028 0.76409 0.78412 0.0
O641 O 0.44502 0.93448 0.90107 0.0
O642 O 0.44381 0.97229 0.79429 0.0
C643 C 0.62427 0.86011 0.70933 0.0
C644 C 0.50324 0.77356 0.73467 0.0
C645 C 0.5795 0.9653 0.84114 0.0
C646 C 0.46134 0.8917 0.88682 0.0
C647 C 0.47111 0.97298 0.75702 0.0
C648 C 0.59284 0.78363 0.82636 0.0
O649 O 0.58458 0.85733 0.73574 0.0
O650 O 0.63867 0.81976 0.68779 0.0
O651 O -0.00311 0.18332 0.26651 0.0
Mn652 Mn 0.95357 0.11965 0.29164 0.0
O653 O 0.95842 0.20776 0.19786 0.0
Mn654 Mn 0.90041 0.20006 0.22694 0.0
O655 O 0.90606 0.06771 0.31909 0.0
O656 O 0.00142 0.10395 0.34943 0.0
Mn657 Mn 0.01131 0.03939 0.34721 0.0
O658 O 0.98299 0.05716 0.24842 0.0
O659 O 0.95158 0.00719 0.35255 0.0
O660 O 0.91982 0.17087 0.33656 0.0
O661 O 0.89383 0.23249 0.28687 0.0
O662 O 0.04682 0.05581 0.39969 0.0
O663 O 0.04464 0.02473 0.29288 0.0
C664 C 0.86057 0.13652 0.21356 0.0
C665 C 0.98702 0.21692 0.23295 0.0
C666 C 0.91029 0.0274 0.34306 0.0
C667 C 0.03084 0.09945 0.38776 0.0
C668 C 0.01398 0.02107 0.2587 0.0
C669 C 0.89779 0.21208 0.32912 0.0
O670 O 0.90002 0.13659 0.24085 0.0
O671 O 0.84816 0.17793 0.19283 0.0
O672 O 0.49293 0.18373 0.72179 0.0
Mn673 Mn 0.53703 0.11904 0.70105 0.0
O674 O 0.52633 0.2069 0.79329 0.0
Mn675 Mn 0.58738 0.1974 0.77222 0.0
O676 O 0.58687 0.0667 0.67834 0.0
O677 O 0.49351 0.10463 0.6391 0.0
Mn678 Mn 0.4852 0.03938 0.64227 0.0
O679 O 0.50224 0.05745 0.74191 0.0
O680 O 0.54428 0.00584 0.64281 0.0
O681 O 0.57576 0.17037 0.65979 0.0
O682 O 0.6028 0.22868 0.71325 0.0
O683 O 0.45409 0.05289 0.58659 0.0
O684 O 0.4463 0.02214 0.69226 0.0
C685 C 0.62382 0.13148 0.78523 0.0
C686 C 0.50246 0.21765 0.7551 0.0
C687 C 0.58471 0.02699 0.65324 0.0
C688 C 0.46606 0.0976 0.59943 0.0
C689 C 0.4716 0.02126 0.73076 0.0
C690 C 0.59847 0.21079 0.66981 0.0
O691 O 0.58507 0.13438 0.75729 0.0
O692 O 0.6355 0.17095 0.80976 0.0
O693 O 0.0591 0.25005 0.99269 0.0
Mn694 Mn 0.11915 0.28916 0.95454 0.0
O695 O 0.01837 0.30396 0.04114 0.0
Mn696 Mn 0.03897 0.35172 0.00122 0.0
O697 O 0.16917 0.32959 0.91302 0.0
O698 O 0.13395 0.23033 0.91105 0.0
Mn699 Mn 0.19643 0.21607 0.90224 0.0
O700 O 0.18435 0.27017 -0.00209 0.0
O701 O 0.22536 0.27546 0.8832 0.0
O702 O 0.06618 0.30714 0.90361 0.0
O703 O 0.00716 0.34997 0.9413 0.0
O704 O 0.16415 0.17947 0.85614 0.0
O705 O 0.20835 0.19864 0.96411 0.0
C706 C 0.09811 0.39312 0.02135 0.0
C707 C 0.021 0.26299 0.02015 0.0
C708 C 0.20851 0.31924 0.88873 0.0
C709 C 0.12663 0.20468 0.8718 0.0
C710 C 0.21873 0.23771 0.98695 0.0
C711 C 0.02873 0.33527 0.90247 0.0
O712 O 0.10461 0.35245 0.99541 0.0
O713 O 0.05349 0.40797 0.03094 0.0
O714 O 0.43113 0.73996 0.50025 0.0
Mn715 Mn 0.37188 0.70326 0.45808 0.0
O716 O 0.47886 0.68247 0.53814 0.0
Mn717 Mn 0.44995 0.63893 0.49819 0.0
O718 O 0.32187 0.66485 0.41334 0.0
O719 O 0.36119 0.76475 0.4166 0.0
Mn720 Mn 0.30018 0.7806 0.40328 0.0
O721 O 0.30507 0.72146 0.49909 0.0
O722 O 0.27455 0.72302 0.37573 0.0
O723 O 0.42509 0.68896 0.4064 0.0
O724 O 0.47961 0.63822 0.43731 0.0
O725 O 0.33746 0.82277 0.36633 0.0
O726 O 0.28006 0.79196 0.46438 0.0
C727 C 0.39197 0.59331 0.51228 0.0
C728 C 0.47139 0.72618 0.5245 0.0
C729 C 0.28656 0.67801 0.38424 0.0
C730 C 0.37285 0.79405 0.38101 0.0
C731 C 0.2697 0.75174 0.48529 0.0
C732 C 0.45865 0.65739 0.4006 0.0
O733 O 0.38335 0.6408 0.50377 0.0
O734 O 0.4373 0.5782 0.51665 0.0
O735 O 0.74571 0.50338 0.93538 0.0
Mn736 Mn 0.78753 0.53541 0.87282 0.0
O737 O 0.79309 0.44468 0.97021 0.0
Mn738 Mn 0.84644 0.47834 0.95266 0.0
O739 O 0.83201 0.57125 0.82224 0.0
O740 O 0.73462 0.58591 0.85646 0.0
Mn741 Mn 0.72177 0.59076 0.79306 0.0
O742 O 0.7633 0.4928 0.80815 0.0
O743 O 0.78218 0.60172 0.76274 0.0
O744 O 0.81371 0.58336 0.92539 0.0
O745 O 0.85225 0.53868 0.98365 0.0
O746 O 0.68725 0.64096 0.81988 0.0
O747 O 0.69572 0.53213 0.78131 0.0
C748 C 0.88453 0.4612 0.88925 0.0
C749 C 0.75705 0.47339 0.97228 0.0
C750 C 0.82465 0.59527 0.78211 0.0
C751 C 0.70919 0.62609 0.85983 0.0
C752 C 0.7319 0.50458 0.7729 0.0
C753 C 0.84074 0.57974 0.96381 0.0
O754 O 0.84507 0.48877 0.8882 0.0
O755 O 0.8988 0.44419 0.93179 0.0
O756 O 0.74341 0.50388 0.05765 0.0
Mn757 Mn 0.70212 0.53746 0.11973 0.0
O758 O 0.69495 0.44623 0.02311 0.0
Mn759 Mn 0.64322 0.48228 0.04061 0.0
O760 O 0.65894 0.57531 0.17031 0.0
O761 O 0.75666 0.58683 0.13511 0.0
Mn762 Mn 0.77035 0.5914 0.19832 0.0
O763 O 0.72479 0.49473 0.18481 0.0
O764 O 0.71052 0.60516 0.22875 0.0
O765 O 0.6778 0.5858 0.06683 0.0
O766 O 0.63952 0.5419 0.00814 0.0
O767 O 0.80628 0.64035 0.171 0.0
O768 O 0.79408 0.53171 0.21012 0.0
C769 C 0.6033 0.46374 0.10144 0.0
C770 C 0.73184 0.4737 0.02107 0.0
C771 C 0.66752 0.59923 0.21033 0.0
C772 C 0.78299 0.6265 0.13146 0.0
C773 C 0.75696 0.50574 0.21952 0.0
C774 C 0.65128 0.58272 0.02811 0.0
O775 O 0.6425 0.49194 0.10542 0.0
O776 O 0.58981 0.44879 0.05784 0.0
O777 O 0.74259 0.49443 0.43334 0.0
Mn778 Mn 0.70297 0.45679 0.37248 0.0
O779 O 0.68844 0.54108 0.47591 0.0
Mn780 Mn 0.64022 0.5043 0.45114 0.0
O781 O 0.6615 0.41581 0.3229 0.0
O782 O 0.7608 0.41096 0.35909 0.0
Mn783 Mn 0.77397 0.40144 0.29639 0.0
O784 O 0.72442 0.49819 0.30564 0.0
O785 O 0.71443 0.38242 0.26778 0.0
O786 O 0.68294 0.40675 0.42591 0.0
O787 O 0.63462 0.4438 0.48087 0.0
O788 O 0.81127 0.35579 0.32797 0.0
O789 O 0.79429 0.46139 0.28028 0.0
C790 C 0.6003 0.52739 0.39277 0.0
C791 C 0.72963 0.52092 0.47238 0.0
C792 C 0.67091 0.38977 0.28448 0.0
C793 C 0.78652 0.37137 0.36596 0.0
C794 C 0.75664 0.48669 0.27081 0.0
C795 C 0.65183 0.40514 0.46093 0.0
O796 O 0.64011 0.50006 0.38523 0.0
O797 O 0.58654 0.53786 0.43756 0.0
O798 O 0.74539 0.49446 0.55816 0.0
Mn799 Mn 0.78522 0.45734 0.61916 0.0
O800 O 0.79896 0.54229 0.51586 0.0
Mn801 Mn 0.84823 0.50664 0.5403 0.0
O802 O 0.82767 0.41733 0.66836 0.0
O803 O 0.72799 0.41145 0.63276 0.0
Mn804 Mn 0.7159 0.39905 0.69519 0.0
O805 O 0.76281 0.49789 0.68629 0.0
O806 O 0.77609 0.38072 0.72261 0.0
O807 O 0.80647 0.40779 0.56556 0.0
O808 O 0.85457 0.44601 0.51081 0.0
O809 O 0.67973 0.35353 0.6618 0.0
O810 O 0.69506 0.45812 0.71364 0.0
C811 C 0.88689 0.52814 0.60088 0.0
C812 C 0.7582 0.52108 0.51913 0.0
C813 C 0.81926 0.39014 0.70611 0.0
C814 C 0.70345 0.37162 0.62428 0.0
C815 C 0.73218 0.48463 0.72207 0.0
C816 C 0.83755 0.40698 0.53039 0.0
O817 O 0.84698 0.50085 0.60594 0.0
O818 O 0.90121 0.54072 0.55681 0.0
O819 O 0.49086 0.18271 0.24489 0.0
Mn820 Mn 0.45224 0.12304 0.20434 0.0
O821 O 0.43502 0.22662 0.28821 0.0
Mn822 Mn 0.38833 0.20282 0.2483 0.0
O823 O 0.41307 0.07306 0.16116 0.0
O824 O 0.51233 0.10941 0.16083 0.0
Mn825 Mn 0.52692 0.04667 0.15454 0.0
O826 O 0.46913 0.05632 0.24742 0.0
O827 O 0.46858 0.01744 0.1326 0.0
O828 O 0.43642 0.17704 0.15335 0.0
O829 O 0.3878 0.23324 0.18774 0.0
O830 O 0.56678 0.07717 0.11029 0.0
O831 O 0.54216 0.03389 0.21687 0.0
C832 C 0.34662 0.14449 0.27018 0.0
C833 C 0.47771 0.22153 0.27155 0.0
C834 C 0.42442 0.03352 0.13743 0.0
C835 C 0.54001 0.11506 0.12221 0.0
C836 C 0.50253 0.02238 0.23802 0.0
C837 C 0.40556 0.21212 0.14998 0.0
O838 O 0.38757 0.13666 0.24467 0.0
O839 O 0.33201 0.18953 0.27808 0.0
O840 O -0.00218 0.80941 0.7465 0.0
Mn841 Mn 0.03609 0.86822 0.70492 0.0
O842 O 0.05473 0.76313 0.78661 0.0
Mn843 Mn 0.10206 0.78932 0.74941 0.0
O844 O 0.07655 0.91652 0.66122 0.0
O845 O 0.97626 0.8811 0.66158 0.0
Mn846 Mn 0.9632 0.94364 0.65124 0.0
O847 O 0.01805 0.93624 0.74587 0.0
O848 O 0.02233 0.97138 0.62942 0.0
O849 O 0.05186 0.81243 0.65559 0.0
O850 O 0.10719 0.76142 0.68803 0.0
O851 O 0.92423 0.911 0.60748 0.0
O852 O 0.9466 0.96095 0.71208 0.0
C853 C 0.14023 0.84972 0.77218 0.0
C854 C 0.0117 0.76958 0.77138 0.0
C855 C 0.06626 0.95532 0.63602 0.0
C856 C 0.95014 0.87352 0.62235 0.0
C857 C 0.98565 0.97102 0.73507 0.0
C858 C 0.08602 0.78066 0.65098 0.0
O859 O 0.09955 0.85524 0.74609 0.0
O860 O 0.15609 0.80547 0.78191 0.0
O861 O 0.46961 0.93588 0.24539 0.0
Mn862 Mn 0.45411 0.86731 0.28651 0.0
O863 O 0.54287 0.95885 0.27571 0.0
Mn864 Mn 0.53045 0.94147 0.33761 0.0
O865 O 0.44117 0.81087 0.33612 0.0
O866 O 0.38906 0.85414 0.24785 0.0
Mn867 Mn 0.38643 0.78794 0.24561 0.0
O868 O 0.49083 0.80931 0.24257 0.0
O869 O 0.38364 0.76044 0.3073 0.0
O870 O 0.41571 0.9159 0.33206 0.0
O871 O 0.47239 0.96899 0.36291 0.0
O872 O 0.33095 0.80406 0.21528 0.0
O873 O 0.43261 0.7608 0.20716 0.0
C874 C 0.54375 0.87058 0.36509 0.0
C875 C 0.50263 0.9702 0.25546 0.0
C876 C 0.40656 0.78005 0.34305 0.0
C877 C 0.34746 0.84842 0.22325 0.0
C878 C 0.47653 0.76884 0.219 0.0
C879 C 0.42775 0.95448 0.35697 0.0
O880 O 0.51612 0.87929 0.32714 0.0
O881 O 0.5716 0.90722 0.37837 0.0
O882 O 0.80673 0.73795 0.99423 0.0
Mn883 Mn 0.86867 0.70606 0.03591 0.0
O884 O 0.76964 0.79458 0.04372 0.0
Mn885 Mn 0.78928 0.7648 0.0986 0.0
O886 O 0.91792 0.67203 0.08262 0.0
O887 O 0.88562 0.65399 0.98506 0.0
Mn888 Mn 0.94925 0.64739 0.97421 0.0
O889 O 0.93349 0.7474 0.01043 0.0
O890 O 0.97875 0.64035 0.03563 0.0
O891 O 0.81558 0.65917 0.06259 0.0
O892 O 0.76215 0.70304 0.10875 0.0
O893 O 0.92202 0.59524 0.9426 0.0
O894 O 0.96258 0.70449 0.94561 0.0
C895 C 0.85806 0.78048 0.12937 0.0
C896 C 0.76873 0.76585 0.00742 0.0
C897 C 0.95813 0.64798 0.07728 0.0
C898 C 0.88185 0.6123 0.96234 0.0
C899 C 0.96956 0.73419 0.98049 0.0
C900 C 0.77983 0.66227 0.09303 0.0
O901 O 0.8527 0.7548 0.08973 0.0
O902 O 0.81816 0.7993 0.14803 0.0
O903 O 0.55709 0.2435 0.51925 0.0
Mn904 Mn 0.62323 0.28672 0.53653 0.0
O905 O 0.53211 0.27648 0.44781 0.0
Mn906 Mn 0.54492 0.33828 0.46443 0.0
O907 O 0.6778 0.33683 0.55379 0.0
O908 O 0.63922 0.24651 0.59817 0.0
Mn909 Mn 0.70427 0.23885 0.60146 0.0
O910 O 0.68258 0.24712 0.49767 0.0
O911 O 0.73447 0.29976 0.60088 0.0
O912 O 0.57404 0.3285 0.57752 0.0
O913 O 0.51649 0.35693 0.52406 0.0
O914 O 0.6832 0.20952 0.6569 0.0
O915 O 0.72427 0.19974 0.55251 0.0
C916 C 0.61409 0.36963 0.45238 0.0
C917 C 0.522 0.25448 0.48749 0.0
C918 C 0.71318 0.33835 0.58473 0.0
C919 C 0.64028 0.22175 0.63935 0.0
C920 C 0.72067 0.21951 0.51086 0.0
C921 C 0.53385 0.35152 0.56763 0.0
O922 O 0.6077 0.32992 0.47766 0.0
O923 O 0.57614 0.3847 0.4274 0.0
O924 O 0.24516 0.49468 0.18385 0.0
Mn925 Mn 0.20449 0.45563 0.12445 0.0
O926 O 0.28899 0.43938 0.22822 0.0
Mn927 Mn 0.25015 0.39141 0.20474 0.0
O928 O 0.16153 0.41569 0.07497 0.0
O929 O 0.16145 0.51574 0.11082 0.0
Mn930 Mn 0.15298 0.52938 0.04816 0.0
O931 O 0.2469 0.47255 0.05698 0.0
O932 O 0.13033 0.47078 0.02033 0.0
O933 O 0.15422 0.43907 0.17931 0.0
O934 O 0.18939 0.38961 0.23465 0.0
O935 O 0.11009 0.56995 0.07967 0.0
O936 O 0.21441 0.54406 0.03202 0.0
C937 C 0.26993 0.35071 0.14405 0.0
C938 C 0.27194 0.482 0.2228 0.0
C939 C 0.1368 0.42666 0.03598 0.0
C940 C 0.12301 0.54329 0.11737 0.0
C941 C 0.23584 0.5042 0.02163 0.0
C942 C 0.1514 0.40687 0.21343 0.0
O943 O 0.24462 0.39188 0.13879 0.0
O944 O 0.28046 0.33565 0.1884 0.0
O945 O 0.24164 0.49465 0.8076 0.0
Mn946 Mn 0.28487 0.45697 0.86578 0.0
O947 O 0.20546 0.43714 0.75856 0.0
Mn948 Mn 0.24218 0.38929 0.78576 0.0
O949 O 0.32957 0.41748 0.91423 0.0
O950 O 0.32599 0.51842 0.87836 0.0
Mn951 Mn 0.33715 0.53176 0.94061 0.0
O952 O 0.24397 0.47275 0.93468 0.0
O953 O 0.36191 0.4733 0.96732 0.0
O954 O 0.33393 0.44281 0.80889 0.0
O955 O 0.30429 0.38453 0.75944 0.0
O956 O 0.37764 0.57339 0.90682 0.0
O957 O 0.27617 0.54453 0.95994 0.0
C958 C 0.22089 0.35155 0.84823 0.0
C959 C 0.21805 0.48094 0.76687 0.0
C960 C 0.35472 0.42884 0.95284 0.0
C961 C 0.36397 0.54602 0.8699 0.0
C962 C 0.25524 0.5043 0.97018 0.0
C963 C 0.34036 0.4069 0.77924 0.0
O964 O 0.24564 0.39305 0.85176 0.0
O965 O 0.21066 0.33476 0.80445 0.0
O966 O 0.2421 0.49927 0.68166 0.0
Mn967 Mn 0.28518 0.53625 0.62304 0.0
O968 O 0.20403 0.55605 0.72928 0.0
Mn969 Mn 0.24391 0.60182 0.70321 0.0
O970 O 0.33065 0.57347 0.57225 0.0
O971 O 0.3242 0.47345 0.61153 0.0
Mn972 Mn 0.33582 0.45719 0.55017 0.0
O973 O 0.24343 0.52063 0.55524 0.0
O974 O 0.36301 0.51413 0.52257 0.0
O975 O 0.33577 0.54973 0.67839 0.0
O976 O 0.30465 0.6021 0.73285 0.0
O977 O 0.37407 0.41559 0.58697 0.0
O978 O 0.27365 0.44743 0.53237 0.0
C979 C 0.22267 0.64372 0.64446 0.0
C980 C 0.21762 0.51251 0.72184 0.0
C981 C 0.35639 0.55944 0.53461 0.0
C982 C 0.36045 0.44471 0.62246 0.0
C983 C 0.25487 0.48836 0.52065 0.0
C984 C 0.34124 0.5827 0.71127 0.0
O985 O 0.2469 0.60203 0.63664 0.0
O986 O 0.21517 0.65862 0.68949 0.0
O987 O 0.24518 0.49959 0.30769 0.0
Mn988 Mn 0.20525 0.538 0.36778 0.0
O989 O 0.29028 0.5543 0.26447 0.0
Mn990 Mn 0.2498 0.6009 0.28776 0.0
O991 O 0.16214 0.57636 0.41885 0.0
O992 O 0.16337 0.47709 0.3806 0.0
Mn993 Mn 0.15503 0.46119 0.4427 0.0
O994 O 0.24856 0.52089 0.43407 0.0
O995 O 0.13068 0.51893 0.47115 0.0
O996 O 0.15366 0.55507 0.3146 0.0
O997 O 0.19001 0.59913 0.25593 0.0
O998 O 0.11374 0.42031 0.40913 0.0
O999 O 0.21746 0.44828 0.4568 0.0
C1000 C 0.27044 0.64372 0.34614 0.0
C1001 C 0.27229 0.51201 0.26904 0.0
C1002 C 0.13676 0.56368 0.45702 0.0
C1003 C 0.12645 0.4482 0.37233 0.0
C1004 C 0.2375 0.48848 0.4685 0.0
C1005 C 0.15161 0.58431 0.27796 0.0
O1006 O 0.24516 0.60268 0.35406 0.0
O1007 O 0.27848 0.65798 0.30097 0.0
loop_
_geom_bond_atom_site_label_1
_geom_bond_atom_site_label_2
_geom_bond_distance
_geom_bond_site_symmetry_2
_ccdc_geom_bond_type
O0 Mn1 2.163 1_655 S
O0 C14 1.244 . S
Mn1 O0 2.163 1_455 S
Mn1 O4 2.160 . S
Mn1 O5 2.221 1_455 S
Mn1 O7 2.163 . S
Mn1 O9 2.160 . S
Mn1 O19 2.221 . S
O2 Mn3 2.087 . S
O2 C14 1.256 1_455 S
Mn3 O2 2.087 . S
Mn3 O10 2.089 . S
Mn3 O19 2.290 . S
Mn3 O20 2.251 . S
O4 Mn1 2.160 . S
O4 C15 1.239 . S
O5 Mn1 2.221 1_655 S
O5 Mn6 2.290 . S
O5 C16 1.278 . S
Mn6 O5 2.290 . S
Mn6 O8 2.089 1_655 S
Mn6 O11 2.251 . S
Mn6 O12 2.087 . S
O7 Mn1 2.163 . S
O7 C17 1.244 1_455 S
O8 Mn6 2.089 1_455 S
O8 C15 1.256 . S
O9 Mn1 2.160 . S
O9 C18 1.239 . S
O10 Mn3 2.089 . S
O10 C18 1.256 . S
O11 Mn6 2.251 . S
O11 C16 1.241 . S
O12 Mn6 2.087 . S
O12 C17 1.256 . S
C13 O19 1.278 . S
C13 O20 1.241 . S
C14 O0 1.244 . S
C14 O2 1.256 1_655 S
C15 O4 1.239 . S
C15 O8 1.256 . S
C16 O5 1.278 . S
C16 O11 1.241 . S
C17 O7 1.244 1_655 S
C17 O12 1.256 . S
C18 O9 1.239 . S
C18 O10 1.256 . S
O19 Mn1 2.221 . S
O19 Mn3 2.290 . S
O19 C13 1.278 . S
O20 Mn3 2.251 . S
O20 C13 1.241 . S
O21 Mn22 2.163 . S
O21 C35 1.244 . S
Mn22 O21 2.163 . S
Mn22 O25 2.160 . S
Mn22 O26 2.221 . S
Mn22 O28 2.163 . S
Mn22 O30 2.160 . S
Mn22 O40 2.221 . S
O23 Mn24 2.087 . S
O23 C35 1.256 . S
Mn24 O23 2.087 . S
Mn24 O31 2.089 . S
Mn24 O40 2.290 . S
Mn24 O41 2.251 . S
O25 Mn22 2.160 . S
O25 C36 1.239 . S
O26 Mn22 2.221 . S
O26 Mn27 2.290 . S
O26 C37 1.278 . S
Mn27 O26 2.290 . S
Mn27 O29 2.089 . S
Mn27 O32 2.251 . S
Mn27 O33 2.087 . S
O28 Mn22 2.163 . S
O28 C38 1.244 . S
O29 Mn27 2.089 . S
O29 C36 1.256 . S
O30 Mn22 2.160 . S
O30 C39 1.239 . S
O31 Mn24 2.089 . S
O31 C39 1.256 . S
O32 Mn27 2.251 . S
O32 C37 1.241 . S
O33 Mn27 2.087 . S
O33 C38 1.256 . S
C34 O40 1.278 . S
C34 O41 1.241 . S
C35 O21 1.244 . S
C35 O23 1.256 . S
C36 O25 1.239 . S
C36 O29 1.256 . S
C37 O26 1.278 . S
C37 O32 1.241 . S
C38 O28 1.244 . S
C38 O33 1.256 . S
C39 O30 1.239 . S
C39 O31 1.256 . S
O40 Mn22 2.221 . S
O40 Mn24 2.290 . S
O40 C34 1.278 . S
O41 Mn24 2.251 . S
O41 C34 1.241 . S
O42 Mn43 2.163 . S
O42 C56 1.244 . S
Mn43 O42 2.163 . S
Mn43 O46 2.160 . S
Mn43 O47 2.221 . S
Mn43 O49 2.163 . S
Mn43 O51 2.160 . S
Mn43 O61 2.221 . S
O44 Mn45 2.087 . S
O44 C56 1.256 . S
Mn45 O44 2.087 . S
Mn45 O52 2.089 . S
Mn45 O61 2.290 . S
Mn45 O62 2.251 . S
O46 Mn43 2.160 . S
O46 C57 1.239 . S
O47 Mn43 2.221 . S
O47 Mn48 2.290 . S
O47 C58 1.278 . S
Mn48 O47 2.290 . S
Mn48 O50 2.089 . S
Mn48 O53 2.251 . S
Mn48 O54 2.087 . S
O49 Mn43 2.163 . S
O49 C59 1.244 . S
O50 Mn48 2.089 . S
O50 C57 1.256 . S
O51 Mn43 2.160 . S
O51 C60 1.239 . S
O52 Mn45 2.089 . S
O52 C60 1.256 . S
O53 Mn48 2.251 . S
O53 C58 1.241 . S
O54 Mn48 2.087 . S
O54 C59 1.256 . S
C55 O61 1.278 . S
C55 O62 1.241 . S
C56 O42 1.244 . S
C56 O44 1.256 . S
C57 O46 1.239 . S
C57 O50 1.256 . S
C58 O47 1.278 . S
C58 O53 1.241 . S
C59 O49 1.244 . S
C59 O54 1.256 . S
C60 O51 1.239 . S
C60 O52 1.256 . S
O61 Mn43 2.221 . S
O61 Mn45 2.290 . S
O61 C55 1.278 . S
O62 Mn45 2.251 . S
O62 C55 1.241 . S
O63 Mn64 2.163 . S
O63 C77 1.244 1_554 S
Mn64 O63 2.163 . S
Mn64 O67 2.160 . S
Mn64 O68 2.221 . S
Mn64 O70 2.163 1_554 S
Mn64 O72 2.160 . S
Mn64 O82 2.221 1_554 S
O65 Mn66 2.087 . S
O65 C77 1.256 . S
Mn66 O65 2.087 . S
Mn66 O73 2.089 1_556 S
Mn66 O82 2.290 . S
Mn66 O83 2.251 . S
O67 Mn64 2.160 . S
O67 C78 1.239 . S
O68 Mn64 2.221 . S
O68 Mn69 2.290 . S
O68 C79 1.278 . S
Mn69 O68 2.290 . S
Mn69 O71 2.089 . S
Mn69 O74 2.251 . S
Mn69 O75 2.087 . S
O70 Mn64 2.163 1_556 S
O70 C80 1.244 . S
O71 Mn69 2.089 . S
O71 C78 1.256 . S
O72 Mn64 2.160 . S
O72 C81 1.239 . S
O73 Mn66 2.089 1_554 S
O73 C81 1.256 . S
O74 Mn69 2.251 . S
O74 C79 1.241 . S
O75 Mn69 2.087 . S
O75 C80 1.256 1_554 S
C76 O82 1.278 . S
C76 O83 1.241 . S
C77 O63 1.244 1_556 S
C77 O65 1.256 . S
C78 O67 1.239 . S
C78 O71 1.256 . S
C79 O68 1.278 . S
C79 O74 1.241 . S
C80 O70 1.244 . S
C80 O75 1.256 1_556 S
C81 O72 1.239 . S
C81 O73 1.256 . S
O82 Mn64 2.221 1_556 S
O82 Mn66 2.290 . S
O82 C76 1.278 . S
O83 Mn66 2.251 . S
O83 C76 1.241 . S
O84 Mn85 2.163 1_655 S
O84 C98 1.244 . S
Mn85 O84 2.163 1_455 S
Mn85 O88 2.160 . S
Mn85 O89 2.221 1_455 S
Mn85 O91 2.163 . S
Mn85 O93 2.160 . S
Mn85 O103 2.221 . S
O86 Mn87 2.087 . S
O86 C98 1.256 1_455 S
Mn87 O86 2.087 . S
Mn87 O94 2.089 . S
Mn87 O103 2.290 . S
Mn87 O104 2.251 . S
O88 Mn85 2.160 . S
O88 C99 1.239 . S
O89 Mn85 2.221 1_655 S
O89 Mn90 2.290 . S
O89 C100 1.278 . S
Mn90 O89 2.290 . S
Mn90 O92 2.089 1_655 S
Mn90 O95 2.251 . S
Mn90 O96 2.087 . S
O91 Mn85 2.163 . S
O91 C101 1.244 1_455 S
O92 Mn90 2.089 1_455 S
O92 C99 1.256 . S
O93 Mn85 2.160 . S
O93 C102 1.239 . S
O94 Mn87 2.089 . S
O94 C102 1.256 . S
O95 Mn90 2.251 . S
O95 C100 1.241 . S
O96 Mn90 2.087 . S
O96 C101 1.256 . S
C97 O103 1.278 . S
C97 O104 1.241 . S
C98 O84 1.244 . S
C98 O86 1.256 1_655 S
C99 O88 1.239 . S
C99 O92 1.256 . S
C100 O89 1.278 . S
C100 O95 1.241 . S
C101 O91 1.244 1_655 S
C101 O96 1.256 . S
C102 O93 1.239 . S
C102 O94 1.256 . S
O103 Mn85 2.221 . S
O103 Mn87 2.290 . S
O103 C97 1.278 . S
O104 Mn87 2.251 . S
O104 C97 1.241 . S
O105 Mn106 2.163 . S
O105 C119 1.244 . S
Mn106 O105 2.163 . S
Mn106 O109 2.160 . S
Mn106 O110 2.221 . S
Mn106 O112 2.163 . S
Mn106 O114 2.160 . S
Mn106 O124 2.221 . S
O107 Mn108 2.087 . S
O107 C119 1.256 . S
Mn108 O107 2.087 . S
Mn108 O115 2.089 . S
Mn108 O124 2.290 . S
Mn108 O125 2.251 . S
O109 Mn106 2.160 . S
O109 C120 1.239 . S
O110 Mn106 2.221 . S
O110 Mn111 2.290 . S
O110 C121 1.278 . S
Mn111 O110 2.290 . S
Mn111 O113 2.089 . S
Mn111 O116 2.251 . S
Mn111 O117 2.087 . S
O112 Mn106 2.163 . S
O112 C122 1.244 . S
O113 Mn111 2.089 . S
O113 C120 1.256 . S
O114 Mn106 2.160 . S
O114 C123 1.239 . S
O115 Mn108 2.089 . S
O115 C123 1.256 . S
O116 Mn111 2.251 . S
O116 C121 1.241 . S
O117 Mn111 2.087 . S
O117 C122 1.256 . S
C118 O124 1.278 . S
C118 O125 1.241 . S
C119 O105 1.244 . S
C119 O107 1.256 . S
C120 O109 1.239 . S
C120 O113 1.256 . S
C121 O110 1.278 . S
C121 O116 1.241 . S
C122 O112 1.244 . S
C122 O117 1.256 . S
C123 O114 1.239 . S
C123 O115 1.256 . S
O124 Mn106 2.221 . S
O124 Mn108 2.290 . S
O124 C118 1.278 . S
O125 Mn108 2.251 . S
O125 C118 1.241 . S
O126 Mn127 2.163 . S
O126 C140 1.244 . S
Mn127 O126 2.163 . S
Mn127 O130 2.160 . S
Mn127 O131 2.221 . S
Mn127 O133 2.163 . S
Mn127 O135 2.160 . S
Mn127 O145 2.221 . S
O128 Mn129 2.087 . S
O128 C140 1.256 . S
Mn129 O128 2.087 . S
Mn129 O136 2.089 . S
Mn129 O145 2.290 . S
Mn129 O146 2.251 . S
O130 Mn127 2.160 . S
O130 C141 1.239 . S
O131 Mn127 2.221 . S
O131 Mn132 2.290 . S
O131 C142 1.278 . S
Mn132 O131 2.290 . S
Mn132 O134 2.089 . S
Mn132 O137 2.251 . S
Mn132 O138 2.087 . S
O133 Mn127 2.163 . S
O133 C143 1.244 . S
O134 Mn132 2.089 . S
O134 C141 1.256 . S
O135 Mn127 2.160 . S
O135 C144 1.239 . S
O136 Mn129 2.089 . S
O136 C144 1.256 . S
O137 Mn132 2.251 . S
O137 C142 1.241 . S
O138 Mn132 2.087 . S
O138 C143 1.256 . S
C139 O145 1.278 . S
C139 O146 1.241 . S
C140 O126 1.244 . S
C140 O128 1.256 . S
C141 O130 1.239 . S
C141 O134 1.256 . S
C142 O131 1.278 . S
C142 O137 1.241 . S
C143 O133 1.244 . S
C143 O138 1.256 . S
C144 O135 1.239 . S
C144 O136 1.256 . S
O145 Mn127 2.221 . S
O145 Mn129 2.290 . S
O145 C139 1.278 . S
O146 Mn129 2.251 . S
O146 C139 1.241 . S
O147 Mn148 2.163 . S
O147 C161 1.244 1_556 S
Mn148 O147 2.163 . S
Mn148 O151 2.160 . S
Mn148 O152 2.221 . S
Mn148 O154 2.163 1_556 S
Mn148 O156 2.160 . S
Mn148 O166 2.221 1_556 S
O149 Mn150 2.087 . S
O149 C161 1.256 . S
Mn150 O149 2.087 . S
Mn150 O157 2.089 1_554 S
Mn150 O166 2.290 . S
Mn150 O167 2.251 . S
O151 Mn148 2.160 . S
O151 C162 1.239 . S
O152 Mn148 2.221 . S
O152 Mn153 2.290 . S
O152 C163 1.278 . S
Mn153 O152 2.290 . S
Mn153 O155 2.089 . S
Mn153 O158 2.251 . S
Mn153 O159 2.087 . S
O154 Mn148 2.163 1_554 S
O154 C164 1.244 . S
O155 Mn153 2.089 . S
O155 C162 1.256 . S
O156 Mn148 2.160 . S
O156 C165 1.239 . S
O157 Mn150 2.089 1_556 S
O157 C165 1.256 . S
O158 Mn153 2.251 . S
O158 C163 1.241 . S
O159 Mn153 2.087 . S
O159 C164 1.256 1_556 S
C160 O166 1.278 . S
C160 O167 1.241 . S
C161 O147 1.244 1_554 S
C161 O149 1.256 . S
C162 O151 1.239 . S
C162 O155 1.256 . S
C163 O152 1.278 . S
C163 O158 1.241 . S
C164 O154 1.244 . S
C164 O159 1.256 1_554 S
C165 O156 1.239 . S
C165 O157 1.256 . S
O166 Mn148 2.221 1_554 S
O166 Mn150 2.290 . S
O166 C160 1.278 . S
O167 Mn150 2.251 . S
O167 C160 1.241 . S
O168 Mn169 2.163 1_565 S
O168 C182 1.244 . S
Mn169 O168 2.163 1_545 S
Mn169 O172 2.160 . S
Mn169 O173 2.221 1_545 S
Mn169 O175 2.163 . S
Mn169 O177 2.160 . S
Mn169 O187 2.221 . S
O170 Mn171 2.087 . S
O170 C182 1.256 1_545 S
Mn171 O170 2.087 . S
Mn171 O178 2.089 . S
Mn171 O187 2.290 . S
Mn171 O188 2.251 . S
O172 Mn169 2.160 . S
O172 C183 1.239 . S
O173 Mn169 2.221 1_565 S
O173 Mn174 2.290 . S
O173 C184 1.278 . S
Mn174 O173 2.290 . S
Mn174 O176 2.089 1_565 S
Mn174 O179 2.251 . S
Mn174 O180 2.087 . S
O175 Mn169 2.163 . S
O175 C185 1.244 1_545 S
O176 Mn174 2.089 1_545 S
O176 C183 1.256 . S
O177 Mn169 2.160 . S
O177 C186 1.239 . S
O178 Mn171 2.089 . S
O178 C186 1.256 . S
O179 Mn174 2.251 . S
O179 C184 1.241 . S
O180 Mn174 2.087 . S
O180 C185 1.256 . S
C181 O187 1.278 . S
C181 O188 1.241 . S
C182 O168 1.244 . S
C182 O170 1.256 1_565 S
C183 O172 1.239 . S
C183 O176 1.256 . S
C184 O173 1.278 . S
C184 O179 1.241 . S
C185 O175 1.244 1_565 S
C185 O180 1.256 . S
C186 O177 1.239 . S
C186 O178 1.256 . S
O187 Mn169 2.221 . S
O187 Mn171 2.290 . S
O187 C181 1.278 . S
O188 Mn171 2.251 . S
O188 C181 1.241 . S
O189 Mn190 2.163 . S
O189 C203 1.244 1_545 S
Mn190 O189 2.163 . S
Mn190 O193 2.160 . S
Mn190 O194 2.221 . S
Mn190 O196 2.163 1_545 S
Mn190 O198 2.160 . S
Mn190 O208 2.221 1_545 S
O191 Mn192 2.087 . S
O191 C203 1.256 . S
Mn192 O191 2.087 . S
Mn192 O199 2.089 1_565 S
Mn192 O208 2.290 . S
Mn192 O209 2.251 . S
O193 Mn190 2.160 . S
O193 C204 1.239 . S
O194 Mn190 2.221 . S
O194 Mn195 2.290 . S
O194 C205 1.278 . S
Mn195 O194 2.290 . S
Mn195 O197 2.089 . S
Mn195 O200 2.251 . S
Mn195 O201 2.087 . S
O196 Mn190 2.163 1_565 S
O196 C206 1.244 . S
O197 Mn195 2.089 . S
O197 C204 1.256 . S
O198 Mn190 2.160 . S
O198 C207 1.239 . S
O199 Mn192 2.089 1_545 S
O199 C207 1.256 . S
O200 Mn195 2.251 . S
O200 C205 1.241 . S
O201 Mn195 2.087 . S
O201 C206 1.256 1_545 S
C202 O208 1.278 . S
C202 O209 1.241 . S
C203 O189 1.244 1_565 S
C203 O191 1.256 . S
C204 O193 1.239 . S
C204 O197 1.256 . S
C205 O194 1.278 . S
C205 O200 1.241 . S
C206 O196 1.244 . S
C206 O201 1.256 1_565 S
C207 O198 1.239 . S
C207 O199 1.256 . S
O208 Mn190 2.221 1_565 S
O208 Mn192 2.290 . S
O208 C202 1.278 . S
O209 Mn192 2.251 . S
O209 C202 1.241 . S
O210 Mn211 2.163 . S
O210 C224 1.244 1_565 S
Mn211 O210 2.163 . S
Mn211 O214 2.160 . S
Mn211 O215 2.221 . S
Mn211 O217 2.163 1_565 S
Mn211 O219 2.160 . S
Mn211 O229 2.221 1_565 S
O212 Mn213 2.087 . S
O212 C224 1.256 . S
Mn213 O212 2.087 . S
Mn213 O220 2.089 1_545 S
Mn213 O229 2.290 . S
Mn213 O230 2.251 . S
O214 Mn211 2.160 . S
O214 C225 1.239 . S
O215 Mn211 2.221 . S
O215 Mn216 2.290 . S
O215 C226 1.278 . S
Mn216 O215 2.290 . S
Mn216 O218 2.089 . S
Mn216 O221 2.251 . S
Mn216 O222 2.087 . S
O217 Mn211 2.163 1_545 S
O217 C227 1.244 . S
O218 Mn216 2.089 . S
O218 C225 1.256 . S
O219 Mn211 2.160 . S
O219 C228 1.239 . S
O220 Mn213 2.089 1_565 S
O220 C228 1.256 . S
O221 Mn216 2.251 . S
O221 C226 1.241 . S
O222 Mn216 2.087 . S
O222 C227 1.256 1_565 S
C223 O229 1.278 . S
C223 O230 1.241 . S
C224 O210 1.244 1_545 S
C224 O212 1.256 . S
C225 O214 1.239 . S
C225 O218 1.256 . S
C226 O215 1.278 . S
C226 O221 1.241 . S
C227 O217 1.244 . S
C227 O222 1.256 1_545 S
C228 O219 1.239 . S
C228 O220 1.256 . S
O229 Mn211 2.221 1_545 S
O229 Mn213 2.290 . S
O229 C223 1.278 . S
O230 Mn213 2.251 . S
O230 C223 1.241 . S
O231 Mn232 2.163 . S
O231 C245 1.244 1_565 S
Mn232 O231 2.163 . S
Mn232 O235 2.160 . S
Mn232 O236 2.221 . S
Mn232 O238 2.163 1_565 S
Mn232 O240 2.160 . S
Mn232 O250 2.221 1_565 S
O233 Mn234 2.087 . S
O233 C245 1.256 . S
Mn234 O233 2.087 . S
Mn234 O241 2.089 1_545 S
Mn234 O250 2.290 . S
Mn234 O251 2.251 . S
O235 Mn232 2.160 . S
O235 C246 1.239 . S
O236 Mn232 2.221 . S
O236 Mn237 2.290 . S
O236 C247 1.278 . S
Mn237 O236 2.290 . S
Mn237 O239 2.089 . S
Mn237 O242 2.251 . S
Mn237 O243 2.087 . S
O238 Mn232 2.163 1_545 S
O238 C248 1.244 . S
O239 Mn237 2.089 . S
O239 C246 1.256 . S
O240 Mn232 2.160 . S
O240 C249 1.239 . S
O241 Mn234 2.089 1_565 S
O241 C249 1.256 . S
O242 Mn237 2.251 . S
O242 C247 1.241 . S
O243 Mn237 2.087 . S
O243 C248 1.256 1_565 S
C244 O250 1.278 . S
C244 O251 1.241 . S
C245 O231 1.244 1_545 S
C245 O233 1.256 . S
C246 O235 1.239 . S
C246 O239 1.256 . S
C247 O236 1.278 . S
C247 O242 1.241 . S
C248 O238 1.244 . S
C248 O243 1.256 1_545 S
C249 O240 1.239 . S
C249 O241 1.256 . S
O250 Mn232 2.221 1_545 S
O250 Mn234 2.290 . S
O250 C244 1.278 . S
O251 Mn234 2.251 . S
O251 C244 1.241 . S
O252 Mn253 2.163 . S
O252 C266 1.244 1_554 S
Mn253 O252 2.163 . S
Mn253 O256 2.160 . S
Mn253 O257 2.221 . S
Mn253 O259 2.163 1_554 S
Mn253 O261 2.160 . S
Mn253 O271 2.221 1_554 S
O254 Mn255 2.087 . S
O254 C266 1.256 . S
Mn255 O254 2.087 . S
Mn255 O262 2.089 1_556 S
Mn255 O271 2.290 . S
Mn255 O272 2.251 . S
O256 Mn253 2.160 . S
O256 C267 1.239 . S
O257 Mn253 2.221 . S
O257 Mn258 2.290 . S
O257 C268 1.278 . S
Mn258 O257 2.290 . S
Mn258 O260 2.089 . S
Mn258 O263 2.251 . S
Mn258 O264 2.087 . S
O259 Mn253 2.163 1_556 S
O259 C269 1.244 . S
O260 Mn258 2.089 . S
O260 C267 1.256 . S
O261 Mn253 2.160 . S
O261 C270 1.239 . S
O262 Mn255 2.089 1_554 S
O262 C270 1.256 . S
O263 Mn258 2.251 . S
O263 C268 1.241 . S
O264 Mn258 2.087 . S
O264 C269 1.256 1_554 S
C265 O271 1.278 . S
C265 O272 1.241 . S
C266 O252 1.244 1_556 S
C266 O254 1.256 . S
C267 O256 1.239 . S
C267 O260 1.256 . S
C268 O257 1.278 . S
C268 O263 1.241 . S
C269 O259 1.244 . S
C269 O264 1.256 1_556 S
C270 O261 1.239 . S
C270 O262 1.256 . S
O271 Mn253 2.221 1_556 S
O271 Mn255 2.290 . S
O271 C265 1.278 . S
O272 Mn255 2.251 . S
O272 C265 1.241 . S
O273 Mn274 2.163 . S
O273 C287 1.244 1_655 S
Mn274 O273 2.163 . S
Mn274 O277 2.160 . S
Mn274 O278 2.221 . S
Mn274 O280 2.163 1_655 S
Mn274 O282 2.160 . S
Mn274 O292 2.221 1_655 S
O275 Mn276 2.087 . S
O275 C287 1.256 . S
Mn276 O275 2.087 . S
Mn276 O283 2.089 1_455 S
Mn276 O292 2.290 . S
Mn276 O293 2.251 . S
O277 Mn274 2.160 . S
O277 C288 1.239 . S
O278 Mn274 2.221 . S
O278 Mn279 2.290 . S
O278 C289 1.278 . S
Mn279 O278 2.290 . S
Mn279 O281 2.089 . S
Mn279 O284 2.251 . S
Mn279 O285 2.087 . S
O280 Mn274 2.163 1_455 S
O280 C290 1.244 . S
O281 Mn279 2.089 . S
O281 C288 1.256 . S
O282 Mn274 2.160 . S
O282 C291 1.239 . S
O283 Mn276 2.089 1_655 S
O283 C291 1.256 . S
O284 Mn279 2.251 . S
O284 C289 1.241 . S
O285 Mn279 2.087 . S
O285 C290 1.256 1_655 S
C286 O292 1.278 . S
C286 O293 1.241 . S
C287 O273 1.244 1_455 S
C287 O275 1.256 . S
C288 O277 1.239 . S
C288 O281 1.256 . S
C289 O278 1.278 . S
C289 O284 1.241 . S
C290 O280 1.244 . S
C290 O285 1.256 1_455 S
C291 O282 1.239 . S
C291 O283 1.256 . S
O292 Mn274 2.221 1_455 S
O292 Mn276 2.290 . S
O292 C286 1.278 . S
O293 Mn276 2.251 . S
O293 C286 1.241 . S
O294 Mn295 2.163 . S
O294 C308 1.244 . S
Mn295 O294 2.163 . S
Mn295 O298 2.160 . S
Mn295 O299 2.221 . S
Mn295 O301 2.163 . S
Mn295 O303 2.160 . S
Mn295 O313 2.221 . S
O296 Mn297 2.087 . S
O296 C308 1.256 . S
Mn297 O296 2.087 . S
Mn297 O304 2.089 . S
Mn297 O313 2.290 . S
Mn297 O314 2.251 . S
O298 Mn295 2.160 . S
O298 C309 1.239 . S
O299 Mn295 2.221 . S
O299 Mn300 2.290 . S
O299 C310 1.278 . S
Mn300 O299 2.290 . S
Mn300 O302 2.089 . S
Mn300 O305 2.251 . S
Mn300 O306 2.087 . S
O301 Mn295 2.163 . S
O301 C311 1.244 . S
O302 Mn300 2.089 . S
O302 C309 1.256 . S
O303 Mn295 2.160 . S
O303 C312 1.239 . S
O304 Mn297 2.089 . S
O304 C312 1.256 . S
O305 Mn300 2.251 . S
O305 C310 1.241 . S
O306 Mn300 2.087 . S
O306 C311 1.256 . S
C307 O313 1.278 . S
C307 O314 1.241 . S
C308 O294 1.244 . S
C308 O296 1.256 . S
C309 O298 1.239 . S
C309 O302 1.256 . S
C310 O299 1.278 . S
C310 O305 1.241 . S
C311 O301 1.244 . S
C311 O306 1.256 . S
C312 O303 1.239 . S
C312 O304 1.256 . S
O313 Mn295 2.221 . S
O313 Mn297 2.290 . S
O313 C307 1.278 . S
O314 Mn297 2.251 . S
O314 C307 1.241 . S
O315 Mn316 2.163 1_455 S
O315 C329 1.244 . S
Mn316 O315 2.163 1_655 S
Mn316 O319 2.160 . S
Mn316 O320 2.221 1_655 S
Mn316 O322 2.163 . S
Mn316 O324 2.160 . S
Mn316 O334 2.221 . S
O317 Mn318 2.087 . S
O317 C329 1.256 1_655 S
Mn318 O317 2.087 . S
Mn318 O325 2.089 . S
Mn318 O334 2.290 . S
Mn318 O335 2.251 . S
O319 Mn316 2.160 . S
O319 C330 1.239 . S
O320 Mn316 2.221 1_455 S
O320 Mn321 2.290 . S
O320 C331 1.278 . S
Mn321 O320 2.290 . S
Mn321 O323 2.089 1_455 S
Mn321 O326 2.251 . S
Mn321 O327 2.087 . S
O322 Mn316 2.163 . S
O322 C332 1.244 1_655 S
O323 Mn321 2.089 1_655 S
O323 C330 1.256 . S
O324 Mn316 2.160 . S
O324 C333 1.239 . S
O325 Mn318 2.089 . S
O325 C333 1.256 . S
O326 Mn321 2.251 . S
O326 C331 1.241 . S
O327 Mn321 2.087 . S
O327 C332 1.256 . S
C328 O334 1.278 . S
C328 O335 1.241 . S
C329 O315 1.244 . S
C329 O317 1.256 1_455 S
C330 O319 1.239 . S
C330 O323 1.256 . S
C331 O320 1.278 . S
C331 O326 1.241 . S
C332 O322 1.244 1_455 S
C332 O327 1.256 . S
C333 O324 1.239 . S
C333 O325 1.256 . S
O334 Mn316 2.221 . S
O334 Mn318 2.290 . S
O334 C328 1.278 . S
O335 Mn318 2.251 . S
O335 C328 1.241 . S
O336 Mn337 2.163 . S
O336 C350 1.244 . S
Mn337 O336 2.163 . S
Mn337 O340 2.160 . S
Mn337 O341 2.221 . S
Mn337 O343 2.163 . S
Mn337 O345 2.160 . S
Mn337 O355 2.221 . S
O338 Mn339 2.087 . S
O338 C350 1.256 . S
Mn339 O338 2.087 . S
Mn339 O346 2.089 . S
Mn339 O355 2.290 . S
Mn339 O356 2.251 . S
O340 Mn337 2.160 . S
O340 C351 1.239 . S
O341 Mn337 2.221 . S
O341 Mn342 2.290 . S
O341 C352 1.278 . S
Mn342 O341 2.290 . S
Mn342 O344 2.089 . S
Mn342 O347 2.251 . S
Mn342 O348 2.087 . S
O343 Mn337 2.163 . S
O343 C353 1.244 . S
O344 Mn342 2.089 . S
O344 C351 1.256 . S
O345 Mn337 2.160 . S
O345 C354 1.239 . S
O346 Mn339 2.089 . S
O346 C354 1.256 . S
O347 Mn342 2.251 . S
O347 C352 1.241 . S
O348 Mn342 2.087 . S
O348 C353 1.256 . S
C349 O355 1.278 . S
C349 O356 1.241 . S
C350 O336 1.244 . S
C350 O338 1.256 . S
C351 O340 1.239 . S
C351 O344 1.256 . S
C352 O341 1.278 . S
C352 O347 1.241 . S
C353 O343 1.244 . S
C353 O348 1.256 . S
C354 O345 1.239 . S
C354 O346 1.256 . S
O355 Mn337 2.221 . S
O355 Mn339 2.290 . S
O355 C349 1.278 . S
O356 Mn339 2.251 . S
O356 C349 1.241 . S
O357 Mn358 2.163 . S
O357 C371 1.244 . S
Mn358 O357 2.163 . S
Mn358 O361 2.160 . S
Mn358 O362 2.221 . S
Mn358 O364 2.163 . S
Mn358 O366 2.160 . S
Mn358 O376 2.221 . S
O359 Mn360 2.087 . S
O359 C371 1.256 . S
Mn360 O359 2.087 . S
Mn360 O367 2.089 . S
Mn360 O376 2.290 . S
Mn360 O377 2.251 . S
O361 Mn358 2.160 . S
O361 C372 1.239 . S
O362 Mn358 2.221 . S
O362 Mn363 2.290 . S
O362 C373 1.278 . S
Mn363 O362 2.290 . S
Mn363 O365 2.089 . S
Mn363 O368 2.251 . S
Mn363 O369 2.087 . S
O364 Mn358 2.163 . S
O364 C374 1.244 . S
O365 Mn363 2.089 . S
O365 C372 1.256 . S
O366 Mn358 2.160 . S
O366 C375 1.239 . S
O367 Mn360 2.089 . S
O367 C375 1.256 . S
O368 Mn363 2.251 . S
O368 C373 1.241 . S
O369 Mn363 2.087 . S
O369 C374 1.256 . S
C370 O376 1.278 . S
C370 O377 1.241 . S
C371 O357 1.244 . S
C371 O359 1.256 . S
C372 O361 1.239 . S
C372 O365 1.256 . S
C373 O362 1.278 . S
C373 O368 1.241 . S
C374 O364 1.244 . S
C374 O369 1.256 . S
C375 O366 1.239 . S
C375 O367 1.256 . S
O376 Mn358 2.221 . S
O376 Mn360 2.290 . S
O376 C370 1.278 . S
O377 Mn360 2.251 . S
O377 C370 1.241 . S
O378 Mn379 2.163 . S
O378 C392 1.244 1_556 S
Mn379 O378 2.163 . S
Mn379 O382 2.160 . S
Mn379 O383 2.221 . S
Mn379 O385 2.163 1_556 S
Mn379 O387 2.160 . S
Mn379 O397 2.221 1_556 S
O380 Mn381 2.087 . S
O380 C392 1.256 . S
Mn381 O380 2.087 . S
Mn381 O388 2.089 1_554 S
Mn381 O397 2.290 . S
Mn381 O398 2.251 . S
O382 Mn379 2.160 . S
O382 C393 1.239 . S
O383 Mn379 2.221 . S
O383 Mn384 2.290 . S
O383 C394 1.278 . S
Mn384 O383 2.290 . S
Mn384 O386 2.089 . S
Mn384 O389 2.251 . S
Mn384 O390 2.087 . S
O385 Mn379 2.163 1_554 S
O385 C395 1.244 . S
O386 Mn384 2.089 . S
O386 C393 1.256 . S
O387 Mn379 2.160 . S
O387 C396 1.239 . S
O388 Mn381 2.089 1_556 S
O388 C396 1.256 . S
O389 Mn384 2.251 . S
O389 C394 1.241 . S
O390 Mn384 2.087 . S
O390 C395 1.256 1_556 S
C391 O397 1.278 . S
C391 O398 1.241 . S
C392 O378 1.244 1_554 S
C392 O380 1.256 . S
C393 O382 1.239 . S
C393 O386 1.256 . S
C394 O383 1.278 . S
C394 O389 1.241 . S
C395 O385 1.244 . S
C395 O390 1.256 1_554 S
C396 O387 1.239 . S
C396 O388 1.256 . S
O397 Mn379 2.221 1_554 S
O397 Mn381 2.290 . S
O397 C391 1.278 . S
O398 Mn381 2.251 . S
O398 C391 1.241 . S
O399 Mn400 2.163 . S
O399 C413 1.244 1_655 S
Mn400 O399 2.163 . S
Mn400 O403 2.160 . S
Mn400 O404 2.221 . S
Mn400 O406 2.163 1_655 S
Mn400 O408 2.160 . S
Mn400 O418 2.221 1_655 S
O401 Mn402 2.087 . S
O401 C413 1.256 . S
Mn402 O401 2.087 . S
Mn402 O409 2.089 1_455 S
Mn402 O418 2.290 . S
Mn402 O419 2.251 . S
O403 Mn400 2.160 . S
O403 C414 1.239 . S
O404 Mn400 2.221 . S
O404 Mn405 2.290 . S
O404 C415 1.278 . S
Mn405 O404 2.290 . S
Mn405 O407 2.089 . S
Mn405 O410 2.251 . S
Mn405 O411 2.087 . S
O406 Mn400 2.163 1_455 S
O406 C416 1.244 . S
O407 Mn405 2.089 . S
O407 C414 1.256 . S
O408 Mn400 2.160 . S
O408 C417 1.239 . S
O409 Mn402 2.089 1_655 S
O409 C417 1.256 . S
O410 Mn405 2.251 . S
O410 C415 1.241 . S
O411 Mn405 2.087 . S
O411 C416 1.256 1_655 S
C412 O418 1.278 . S
C412 O419 1.241 . S
C413 O399 1.244 1_455 S
C413 O401 1.256 . S
C414 O403 1.239 . S
C414 O407 1.256 . S
C415 O404 1.278 . S
C415 O410 1.241 . S
C416 O406 1.244 . S
C416 O411 1.256 1_455 S
C417 O408 1.239 . S
C417 O409 1.256 . S
O418 Mn400 2.221 1_455 S
O418 Mn402 2.290 . S
O418 C412 1.278 . S
O419 Mn402 2.251 . S
O419 C412 1.241 . S
O420 Mn421 2.163 . S
O420 C434 1.244 . S
Mn421 O420 2.163 . S
Mn421 O424 2.160 . S
Mn421 O425 2.221 . S
Mn421 O427 2.163 . S
Mn421 O429 2.160 . S
Mn421 O439 2.221 . S
O422 Mn423 2.087 . S
O422 C434 1.256 . S
Mn423 O422 2.087 . S
Mn423 O430 2.089 . S
Mn423 O439 2.290 . S
Mn423 O440 2.251 . S
O424 Mn421 2.160 . S
O424 C435 1.239 . S
O425 Mn421 2.221 . S
O425 Mn426 2.290 . S
O425 C436 1.278 . S
Mn426 O425 2.290 . S
Mn426 O428 2.089 . S
Mn426 O431 2.251 . S
Mn426 O432 2.087 . S
O427 Mn421 2.163 . S
O427 C437 1.244 . S
O428 Mn426 2.089 . S
O428 C435 1.256 . S
O429 Mn421 2.160 . S
O429 C438 1.239 . S
O430 Mn423 2.089 . S
O430 C438 1.256 . S
O431 Mn426 2.251 . S
O431 C436 1.241 . S
O432 Mn426 2.087 . S
O432 C437 1.256 . S
C433 O439 1.278 . S
C433 O440 1.241 . S
C434 O420 1.244 . S
C434 O422 1.256 . S
C435 O424 1.239 . S
C435 O428 1.256 . S
C436 O425 1.278 . S
C436 O431 1.241 . S
C437 O427 1.244 . S
C437 O432 1.256 . S
C438 O429 1.239 . S
C438 O430 1.256 . S
O439 Mn421 2.221 . S
O439 Mn423 2.290 . S
O439 C433 1.278 . S
O440 Mn423 2.251 . S
O440 C433 1.241 . S
O441 Mn442 2.163 . S
O441 C455 1.244 . S
Mn442 O441 2.163 . S
Mn442 O445 2.160 . S
Mn442 O446 2.221 . S
Mn442 O448 2.163 . S
Mn442 O450 2.160 . S
Mn442 O460 2.221 . S
O443 Mn444 2.087 . S
O443 C455 1.256 . S
Mn444 O443 2.087 . S
Mn444 O451 2.089 . S
Mn444 O460 2.290 . S
Mn444 O461 2.251 . S
O445 Mn442 2.160 . S
O445 C456 1.239 . S
O446 Mn442 2.221 . S
O446 Mn447 2.290 . S
O446 C457 1.278 . S
Mn447 O446 2.290 . S
Mn447 O449 2.089 . S
Mn447 O452 2.251 . S
Mn447 O453 2.087 . S
O448 Mn442 2.163 . S
O448 C458 1.244 . S
O449 Mn447 2.089 . S
O449 C456 1.256 . S
O450 Mn442 2.160 . S
O450 C459 1.239 . S
O451 Mn444 2.089 . S
O451 C459 1.256 . S
O452 Mn447 2.251 . S
O452 C457 1.241 . S
O453 Mn447 2.087 . S
O453 C458 1.256 . S
C454 O460 1.278 . S
C454 O461 1.241 . S
C455 O441 1.244 . S
C455 O443 1.256 . S
C456 O445 1.239 . S
C456 O449 1.256 . S
C457 O446 1.278 . S
C457 O452 1.241 . S
C458 O448 1.244 . S
C458 O453 1.256 . S
C459 O450 1.239 . S
C459 O451 1.256 . S
O460 Mn442 2.221 . S
O460 Mn444 2.290 . S
O460 C454 1.278 . S
O461 Mn444 2.251 . S
O461 C454 1.241 . S
O462 Mn463 2.163 . S
O462 C476 1.244 1_554 S
Mn463 O462 2.163 . S
Mn463 O466 2.160 . S
Mn463 O467 2.221 . S
Mn463 O469 2.163 1_554 S
Mn463 O471 2.160 . S
Mn463 O481 2.221 1_554 S
O464 Mn465 2.087 . S
O464 C476 1.256 . S
Mn465 O464 2.087 . S
Mn465 O472 2.089 1_556 S
Mn465 O481 2.290 . S
Mn465 O482 2.251 . S
O466 Mn463 2.160 . S
O466 C477 1.239 . S
O467 Mn463 2.221 . S
O467 Mn468 2.290 . S
O467 C478 1.278 . S
Mn468 O467 2.290 . S
Mn468 O470 2.089 . S
Mn468 O473 2.251 . S
Mn468 O474 2.087 . S
O469 Mn463 2.163 1_556 S
O469 C479 1.244 . S
O470 Mn468 2.089 . S
O470 C477 1.256 . S
O471 Mn463 2.160 . S
O471 C480 1.239 . S
O472 Mn465 2.089 1_554 S
O472 C480 1.256 . S
O473 Mn468 2.251 . S
O473 C478 1.241 . S
O474 Mn468 2.087 . S
O474 C479 1.256 1_554 S
C475 O481 1.278 . S
C475 O482 1.241 . S
C476 O462 1.244 1_556 S
C476 O464 1.256 . S
C477 O466 1.239 . S
C477 O470 1.256 . S
C478 O467 1.278 . S
C478 O473 1.241 . S
C479 O469 1.244 . S
C479 O474 1.256 1_556 S
C480 O471 1.239 . S
C480 O472 1.256 . S
O481 Mn463 2.221 1_556 S
O481 Mn465 2.290 . S
O481 C475 1.278 . S
O482 Mn465 2.251 . S
O482 C475 1.241 . S
O483 Mn484 2.163 1_545 S
O483 C497 1.244 . S
Mn484 O483 2.163 1_565 S
Mn484 O487 2.160 . S
Mn484 O488 2.221 1_565 S
Mn484 O490 2.163 . S
Mn484 O492 2.160 . S
Mn484 O502 2.221 . S
O485 Mn486 2.087 . S
O485 C497 1.256 1_565 S
Mn486 O485 2.087 . S
Mn486 O493 2.089 . S
Mn486 O502 2.290 . S
Mn486 O503 2.251 . S
O487 Mn484 2.160 . S
O487 C498 1.239 . S
O488 Mn484 2.221 1_545 S
O488 Mn489 2.290 . S
O488 C499 1.278 . S
Mn489 O488 2.290 . S
Mn489 O491 2.089 1_545 S
Mn489 O494 2.251 . S
Mn489 O495 2.087 . S
O490 Mn484 2.163 . S
O490 C500 1.244 1_565 S
O491 Mn489 2.089 1_565 S
O491 C498 1.256 . S
O492 Mn484 2.160 . S
O492 C501 1.239 . S
O493 Mn486 2.089 . S
O493 C501 1.256 . S
O494 Mn489 2.251 . S
O494 C499 1.241 . S
O495 Mn489 2.087 . S
O495 C500 1.256 . S
C496 O502 1.278 . S
C496 O503 1.241 . S
C497 O483 1.244 . S
C497 O485 1.256 1_545 S
C498 O487 1.239 . S
C498 O491 1.256 . S
C499 O488 1.278 . S
C499 O494 1.241 . S
C500 O490 1.244 1_545 S
C500 O495 1.256 . S
C501 O492 1.239 . S
C501 O493 1.256 . S
O502 Mn484 2.221 . S
O502 Mn486 2.290 . S
O502 C496 1.278 . S
O503 Mn486 2.251 . S
O503 C496 1.241 . S
O504 Mn505 2.163 1_545 S
O504 C518 1.244 . S
Mn505 O504 2.163 1_565 S
Mn505 O508 2.160 . S
Mn505 O509 2.221 1_565 S
Mn505 O511 2.163 . S
Mn505 O513 2.160 . S
Mn505 O523 2.221 . S
O506 Mn507 2.087 . S
O506 C518 1.256 1_565 S
Mn507 O506 2.087 . S
Mn507 O514 2.089 . S
Mn507 O523 2.290 . S
Mn507 O524 2.251 . S
O508 Mn505 2.160 . S
O508 C519 1.239 . S
O509 Mn505 2.221 1_545 S
O509 Mn510 2.290 . S
O509 C520 1.278 . S
Mn510 O509 2.290 . S
Mn510 O512 2.089 1_545 S
Mn510 O515 2.251 . S
Mn510 O516 2.087 . S
O511 Mn505 2.163 . S
O511 C521 1.244 1_565 S
O512 Mn510 2.089 1_565 S
O512 C519 1.256 . S
O513 Mn505 2.160 . S
O513 C522 1.239 . S
O514 Mn507 2.089 . S
O514 C522 1.256 . S
O515 Mn510 2.251 . S
O515 C520 1.241 . S
O516 Mn510 2.087 . S
O516 C521 1.256 . S
C517 O523 1.278 . S
C517 O524 1.241 . S
C518 O504 1.244 . S
C518 O506 1.256 1_545 S
C519 O508 1.239 . S
C519 O512 1.256 . S
C520 O509 1.278 . S
C520 O515 1.241 . S
C521 O511 1.244 1_545 S
C521 O516 1.256 . S
C522 O513 1.239 . S
C522 O514 1.256 . S
O523 Mn505 2.221 . S
O523 Mn507 2.290 . S
O523 C517 1.278 . S
O524 Mn507 2.251 . S
O524 C517 1.241 . S
O525 Mn526 2.163 1_565 S
O525 C539 1.244 . S
Mn526 O525 2.163 1_545 S
Mn526 O529 2.160 . S
Mn526 O530 2.221 1_545 S
Mn526 O532 2.163 . S
Mn526 O534 2.160 . S
Mn526 O544 2.221 . S
O527 Mn528 2.087 . S
O527 C539 1.256 1_545 S
Mn528 O527 2.087 . S
Mn528 O535 2.089 . S
Mn528 O544 2.290 . S
Mn528 O545 2.251 . S
O529 Mn526 2.160 . S
O529 C540 1.239 . S
O530 Mn526 2.221 1_565 S
O530 Mn531 2.290 . S
O530 C541 1.278 . S
Mn531 O530 2.290 . S
Mn531 O533 2.089 1_565 S
Mn531 O536 2.251 . S
Mn531 O537 2.087 . S
O532 Mn526 2.163 . S
O532 C542 1.244 1_545 S
O533 Mn531 2.089 1_545 S
O533 C540 1.256 . S
O534 Mn526 2.160 . S
O534 C543 1.239 . S
O535 Mn528 2.089 . S
O535 C543 1.256 . S
O536 Mn531 2.251 . S
O536 C541 1.241 . S
O537 Mn531 2.087 . S
O537 C542 1.256 . S
C538 O544 1.278 . S
C538 O545 1.241 . S
C539 O525 1.244 . S
C539 O527 1.256 1_565 S
C540 O529 1.239 . S
C540 O533 1.256 . S
C541 O530 1.278 . S
C541 O536 1.241 . S
C542 O532 1.244 1_565 S
C542 O537 1.256 . S
C543 O534 1.239 . S
C543 O535 1.256 . S
O544 Mn526 2.221 . S
O544 Mn528 2.290 . S
O544 C538 1.278 . S
O545 Mn528 2.251 . S
O545 C538 1.241 . S
O546 Mn547 2.163 . S
O546 C560 1.244 1_545 S
Mn547 O546 2.163 . S
Mn547 O550 2.160 . S
Mn547 O551 2.221 . S
Mn547 O553 2.163 1_545 S
Mn547 O555 2.160 . S
Mn547 O565 2.221 1_545 S
O548 Mn549 2.087 . S
O548 C560 1.256 . S
Mn549 O548 2.087 . S
Mn549 O556 2.089 1_565 S
Mn549 O565 2.290 . S
Mn549 O566 2.251 . S
O550 Mn547 2.160 . S
O550 C561 1.239 . S
O551 Mn547 2.221 . S
O551 Mn552 2.290 . S
O551 C562 1.278 . S
Mn552 O551 2.290 . S
Mn552 O554 2.089 . S
Mn552 O557 2.251 . S
Mn552 O558 2.087 . S
O553 Mn547 2.163 1_565 S
O553 C563 1.244 . S
O554 Mn552 2.089 . S
O554 C561 1.256 . S
O555 Mn547 2.160 . S
O555 C564 1.239 . S
O556 Mn549 2.089 1_545 S
O556 C564 1.256 . S
O557 Mn552 2.251 . S
O557 C562 1.241 . S
O558 Mn552 2.087 . S
O558 C563 1.256 1_545 S
C559 O565 1.278 . S
C559 O566 1.241 . S
C560 O546 1.244 1_565 S
C560 O548 1.256 . S
C561 O550 1.239 . S
C561 O554 1.256 . S
C562 O551 1.278 . S
C562 O557 1.241 . S
C563 O553 1.244 . S
C563 O558 1.256 1_565 S
C564 O555 1.239 . S
C564 O556 1.256 . S
O565 Mn547 2.221 1_565 S
O565 Mn549 2.290 . S
O565 C559 1.278 . S
O566 Mn549 2.251 . S
O566 C559 1.241 . S
O567 Mn568 2.163 . S
O567 C581 1.244 1_556 S
Mn568 O567 2.163 . S
Mn568 O571 2.160 . S
Mn568 O572 2.221 . S
Mn568 O574 2.163 1_556 S
Mn568 O576 2.160 . S
Mn568 O586 2.221 1_556 S
O569 Mn570 2.087 . S
O569 C581 1.256 . S
Mn570 O569 2.087 . S
Mn570 O577 2.089 1_554 S
Mn570 O586 2.290 . S
Mn570 O587 2.251 . S
O571 Mn568 2.160 . S
O571 C582 1.239 . S
O572 Mn568 2.221 . S
O572 Mn573 2.290 . S
O572 C583 1.278 . S
Mn573 O572 2.290 . S
Mn573 O575 2.089 . S
Mn573 O578 2.251 . S
Mn573 O579 2.087 . S
O574 Mn568 2.163 1_554 S
O574 C584 1.244 . S
O575 Mn573 2.089 . S
O575 C582 1.256 . S
O576 Mn568 2.160 . S
O576 C585 1.239 . S
O577 Mn570 2.089 1_556 S
O577 C585 1.256 . S
O578 Mn573 2.251 . S
O578 C583 1.241 . S
O579 Mn573 2.087 . S
O579 C584 1.256 1_556 S
C580 O586 1.278 . S
C580 O587 1.241 . S
C581 O567 1.244 1_554 S
C581 O569 1.256 . S
C582 O571 1.239 . S
C582 O575 1.256 . S
C583 O572 1.278 . S
C583 O578 1.241 . S
C584 O574 1.244 . S
C584 O579 1.256 1_554 S
C585 O576 1.239 . S
C585 O577 1.256 . S
O586 Mn568 2.221 1_554 S
O586 Mn570 2.290 . S
O586 C580 1.278 . S
O587 Mn570 2.251 . S
O587 C580 1.241 . S
O588 Mn589 2.163 . S
O588 C602 1.244 1_455 S
Mn589 O588 2.163 . S
Mn589 O592 2.160 . S
Mn589 O593 2.221 . S
Mn589 O595 2.163 1_455 S
Mn589 O597 2.160 . S
Mn589 O607 2.221 1_455 S
O590 Mn591 2.087 . S
O590 C602 1.256 . S
Mn591 O590 2.087 . S
Mn591 O598 2.089 1_655 S
Mn591 O607 2.290 . S
Mn591 O608 2.251 . S
O592 Mn589 2.160 . S
O592 C603 1.239 . S
O593 Mn589 2.221 . S
O593 Mn594 2.290 . S
O593 C604 1.278 . S
Mn594 O593 2.290 . S
Mn594 O596 2.089 . S
Mn594 O599 2.251 . S
Mn594 O600 2.087 . S
O595 Mn589 2.163 1_655 S
O595 C605 1.244 . S
O596 Mn594 2.089 . S
O596 C603 1.256 . S
O597 Mn589 2.160 . S
O597 C606 1.239 . S
O598 Mn591 2.089 1_455 S
O598 C606 1.256 . S
O599 Mn594 2.251 . S
O599 C604 1.241 . S
O600 Mn594 2.087 . S
O600 C605 1.256 1_455 S
C601 O607 1.278 . S
C601 O608 1.241 . S
C602 O588 1.244 1_655 S
C602 O590 1.256 . S
C603 O592 1.239 . S
C603 O596 1.256 . S
C604 O593 1.278 . S
C604 O599 1.241 . S
C605 O595 1.244 . S
C605 O600 1.256 1_655 S
C606 O597 1.239 . S
C606 O598 1.256 . S
O607 Mn589 2.221 1_655 S
O607 Mn591 2.290 . S
O607 C601 1.278 . S
O608 Mn591 2.251 . S
O608 C601 1.241 . S
O609 Mn610 2.163 . S
O609 C623 1.244 . S
Mn610 O609 2.163 . S
Mn610 O613 2.160 . S
Mn610 O614 2.221 . S
Mn610 O616 2.163 . S
Mn610 O618 2.160 . S
Mn610 O628 2.221 . S
O611 Mn612 2.087 . S
O611 C623 1.256 . S
Mn612 O611 2.087 . S
Mn612 O619 2.089 . S
Mn612 O628 2.290 . S
Mn612 O629 2.251 . S
O613 Mn610 2.160 . S
O613 C624 1.239 . S
O614 Mn610 2.221 . S
O614 Mn615 2.290 . S
O614 C625 1.278 . S
Mn615 O614 2.290 . S
Mn615 O617 2.089 . S
Mn615 O620 2.251 . S
Mn615 O621 2.087 . S
O616 Mn610 2.163 . S
O616 C626 1.244 . S
O617 Mn615 2.089 . S
O617 C624 1.256 . S
O618 Mn610 2.160 . S
O618 C627 1.239 . S
O619 Mn612 2.089 . S
O619 C627 1.256 . S
O620 Mn615 2.251 . S
O620 C625 1.241 . S
O621 Mn615 2.087 . S
O621 C626 1.256 . S
C622 O628 1.278 . S
C622 O629 1.241 . S
C623 O609 1.244 . S
C623 O611 1.256 . S
C624 O613 1.239 . S
C624 O617 1.256 . S
C625 O614 1.278 . S
C625 O620 1.241 . S
C626 O616 1.244 . S
C626 O621 1.256 . S
C627 O618 1.239 . S
C627 O619 1.256 . S
O628 Mn610 2.221 . S
O628 Mn612 2.290 . S
O628 C622 1.278 . S
O629 Mn612 2.251 . S
O629 C622 1.241 . S
O630 Mn631 2.163 . S
O630 C644 1.244 . S
Mn631 O630 2.163 . S
Mn631 O634 2.160 . S
Mn631 O635 2.221 . S
Mn631 O637 2.163 . S
Mn631 O639 2.160 . S
Mn631 O649 2.221 . S
O632 Mn633 2.087 . S
O632 C644 1.256 . S
Mn633 O632 2.087 . S
Mn633 O640 2.089 . S
Mn633 O649 2.290 . S
Mn633 O650 2.251 . S
O634 Mn631 2.160 . S
O634 C645 1.239 . S
O635 Mn631 2.221 . S
O635 Mn636 2.290 . S
O635 C646 1.278 . S
Mn636 O635 2.290 . S
Mn636 O638 2.089 . S
Mn636 O641 2.251 . S
Mn636 O642 2.087 . S
O637 Mn631 2.163 . S
O637 C647 1.244 . S
O638 Mn636 2.089 . S
O638 C645 1.256 . S
O639 Mn631 2.160 . S
O639 C648 1.239 . S
O640 Mn633 2.089 . S
O640 C648 1.256 . S
O641 Mn636 2.251 . S
O641 C646 1.241 . S
O642 Mn636 2.087 . S
O642 C647 1.256 . S
C643 O649 1.278 . S
C643 O650 1.241 . S
C644 O630 1.244 . S
C644 O632 1.256 . S
C645 O634 1.239 . S
C645 O638 1.256 . S
C646 O635 1.278 . S
C646 O641 1.241 . S
C647 O637 1.244 . S
C647 O642 1.256 . S
C648 O639 1.239 . S
C648 O640 1.256 . S
O649 Mn631 2.221 . S
O649 Mn633 2.290 . S
O649 C643 1.278 . S
O650 Mn633 2.251 . S
O650 C643 1.241 . S
O651 Mn652 2.163 1_455 S
O651 C665 1.244 . S
Mn652 O651 2.163 1_655 S
Mn652 O655 2.160 . S
Mn652 O656 2.221 1_655 S
Mn652 O658 2.163 . S
Mn652 O660 2.160 . S
Mn652 O670 2.221 . S
O653 Mn654 2.087 . S
O653 C665 1.256 1_655 S
Mn654 O653 2.087 . S
Mn654 O661 2.089 . S
Mn654 O670 2.290 . S
Mn654 O671 2.251 . S
O655 Mn652 2.160 . S
O655 C666 1.239 . S
O656 Mn652 2.221 1_455 S
O656 Mn657 2.290 . S
O656 C667 1.278 . S
Mn657 O656 2.290 . S
Mn657 O659 2.089 1_455 S
Mn657 O662 2.251 . S
Mn657 O663 2.087 . S
O658 Mn652 2.163 . S
O658 C668 1.244 1_655 S
O659 Mn657 2.089 1_655 S
O659 C666 1.256 . S
O660 Mn652 2.160 . S
O660 C669 1.239 . S
O661 Mn654 2.089 . S
O661 C669 1.256 . S
O662 Mn657 2.251 . S
O662 C667 1.241 . S
O663 Mn657 2.087 . S
O663 C668 1.256 . S
C664 O670 1.278 . S
C664 O671 1.241 . S
C665 O651 1.244 . S
C665 O653 1.256 1_455 S
C666 O655 1.239 . S
C666 O659 1.256 . S
C667 O656 1.278 . S
C667 O662 1.241 . S
C668 O658 1.244 1_455 S
C668 O663 1.256 . S
C669 O660 1.239 . S
C669 O661 1.256 . S
O670 Mn652 2.221 . S
O670 Mn654 2.290 . S
O670 C664 1.278 . S
O671 Mn654 2.251 . S
O671 C664 1.241 . S
O672 Mn673 2.163 . S
O672 C686 1.244 . S
Mn673 O672 2.163 . S
Mn673 O676 2.160 . S
Mn673 O677 2.221 . S
Mn673 O679 2.163 . S
Mn673 O681 2.160 . S
Mn673 O691 2.221 . S
O674 Mn675 2.087 . S
O674 C686 1.256 . S
Mn675 O674 2.087 . S
Mn675 O682 2.089 . S
Mn675 O691 2.290 . S
Mn675 O692 2.251 . S
O676 Mn673 2.160 . S
O676 C687 1.239 . S
O677 Mn673 2.221 . S
O677 Mn678 2.290 . S
O677 C688 1.278 . S
Mn678 O677 2.290 . S
Mn678 O680 2.089 . S
Mn678 O683 2.251 . S
Mn678 O684 2.087 . S
O679 Mn673 2.163 . S
O679 C689 1.244 . S
O680 Mn678 2.089 . S
O680 C687 1.256 . S
O681 Mn673 2.160 . S
O681 C690 1.239 . S
O682 Mn675 2.089 . S
O682 C690 1.256 . S
O683 Mn678 2.251 . S
O683 C688 1.241 . S
O684 Mn678 2.087 . S
O684 C689 1.256 . S
C685 O691 1.278 . S
C685 O692 1.241 . S
C686 O672 1.244 . S
C686 O674 1.256 . S
C687 O676 1.239 . S
C687 O680 1.256 . S
C688 O677 1.278 . S
C688 O683 1.241 . S
C689 O679 1.244 . S
C689 O684 1.256 . S
C690 O681 1.239 . S
C690 O682 1.256 . S
O691 Mn673 2.221 . S
O691 Mn675 2.290 . S
O691 C685 1.278 . S
O692 Mn675 2.251 . S
O692 C685 1.241 . S
O693 Mn694 2.163 . S
O693 C707 1.244 1_556 S
Mn694 O693 2.163 . S
Mn694 O697 2.160 . S
Mn694 O698 2.221 . S
Mn694 O700 2.163 1_556 S
Mn694 O702 2.160 . S
Mn694 O712 2.221 1_556 S
O695 Mn696 2.087 . S
O695 C707 1.256 . S
Mn696 O695 2.087 . S
Mn696 O703 2.089 1_554 S
Mn696 O712 2.290 . S
Mn696 O713 2.251 . S
O697 Mn694 2.160 . S
O697 C708 1.239 . S
O698 Mn694 2.221 . S
O698 Mn699 2.290 . S
O698 C709 1.278 . S
Mn699 O698 2.290 . S
Mn699 O701 2.089 . S
Mn699 O704 2.251 . S
Mn699 O705 2.087 . S
O700 Mn694 2.163 1_554 S
O700 C710 1.244 . S
O701 Mn699 2.089 . S
O701 C708 1.256 . S
O702 Mn694 2.160 . S
O702 C711 1.239 . S
O703 Mn696 2.089 1_556 S
O703 C711 1.256 . S
O704 Mn699 2.251 . S
O704 C709 1.241 . S
O705 Mn699 2.087 . S
O705 C710 1.256 1_556 S
C706 O712 1.278 . S
C706 O713 1.241 . S
C707 O693 1.244 1_554 S
C707 O695 1.256 . S
C708 O697 1.239 . S
C708 O701 1.256 . S
C709 O698 1.278 . S
C709 O704 1.241 . S
C710 O700 1.244 . S
C710 O705 1.256 1_554 S
C711 O702 1.239 . S
C711 O703 1.256 . S
O712 Mn694 2.221 1_554 S
O712 Mn696 2.290 . S
O712 C706 1.278 . S
O713 Mn696 2.251 . S
O713 C706 1.241 . S
O714 Mn715 2.163 . S
O714 C728 1.244 . S
Mn715 O714 2.163 . S
Mn715 O718 2.160 . S
Mn715 O719 2.221 . S
Mn715 O721 2.163 . S
Mn715 O723 2.160 . S
Mn715 O733 2.221 . S
O716 Mn717 2.087 . S
O716 C728 1.256 . S
Mn717 O716 2.087 . S
Mn717 O724 2.089 . S
Mn717 O733 2.290 . S
Mn717 O734 2.251 . S
O718 Mn715 2.160 . S
O718 C729 1.239 . S
O719 Mn715 2.221 . S
O719 Mn720 2.290 . S
O719 C730 1.278 . S
Mn720 O719 2.290 . S
Mn720 O722 2.089 . S
Mn720 O725 2.251 . S
Mn720 O726 2.087 . S
O721 Mn715 2.163 . S
O721 C731 1.244 . S
O722 Mn720 2.089 . S
O722 C729 1.256 . S
O723 Mn715 2.160 . S
O723 C732 1.239 . S
O724 Mn717 2.089 . S
O724 C732 1.256 . S
O725 Mn720 2.251 . S
O725 C730 1.241 . S
O726 Mn720 2.087 . S
O726 C731 1.256 . S
C727 O733 1.278 . S
C727 O734 1.241 . S
C728 O714 1.244 . S
C728 O716 1.256 . S
C729 O718 1.239 . S
C729 O722 1.256 . S
C730 O719 1.278 . S
C730 O725 1.241 . S
C731 O721 1.244 . S
C731 O726 1.256 . S
C732 O723 1.239 . S
C732 O724 1.256 . S
O733 Mn715 2.221 . S
O733 Mn717 2.290 . S
O733 C727 1.278 . S
O734 Mn717 2.251 . S
O734 C727 1.241 . S
O735 Mn736 2.163 . S
O735 C749 1.244 . S
Mn736 O735 2.163 . S
Mn736 O739 2.160 . S
Mn736 O740 2.221 . S
Mn736 O742 2.163 . S
Mn736 O744 2.160 . S
Mn736 O754 2.221 . S
O737 Mn738 2.087 . S
O737 C749 1.256 . S
Mn738 O737 2.087 . S
Mn738 O745 2.089 . S
Mn738 O754 2.290 . S
Mn738 O755 2.251 . S
O739 Mn736 2.160 . S
O739 C750 1.239 . S
O740 Mn736 2.221 . S
O740 Mn741 2.290 . S
O740 C751 1.278 . S
Mn741 O740 2.290 . S
Mn741 O743 2.089 . S
Mn741 O746 2.251 . S
Mn741 O747 2.087 . S
O742 Mn736 2.163 . S
O742 C752 1.244 . S
O743 Mn741 2.089 . S
O743 C750 1.256 . S
O744 Mn736 2.160 . S
O744 C753 1.239 . S
O745 Mn738 2.089 . S
O745 C753 1.256 . S
O746 Mn741 2.251 . S
O746 C751 1.241 . S
O747 Mn741 2.087 . S
O747 C752 1.256 . S
C748 O754 1.278 . S
C748 O755 1.241 . S
C749 O735 1.244 . S
C749 O737 1.256 . S
C750 O739 1.239 . S
C750 O743 1.256 . S
C751 O740 1.278 . S
C751 O746 1.241 . S
C752 O742 1.244 . S
C752 O747 1.256 . S
C753 O744 1.239 . S
C753 O745 1.256 . S
O754 Mn736 2.221 . S
O754 Mn738 2.290 . S
O754 C748 1.278 . S
O755 Mn738 2.251 . S
O755 C748 1.241 . S
O756 Mn757 2.163 . S
O756 C770 1.244 . S
Mn757 O756 2.163 . S
Mn757 O760 2.160 . S
Mn757 O761 2.221 . S
Mn757 O763 2.163 . S
Mn757 O765 2.160 . S
Mn757 O775 2.221 . S
O758 Mn759 2.087 . S
O758 C770 1.256 . S
Mn759 O758 2.087 . S
Mn759 O766 2.089 . S
Mn759 O775 2.290 . S
Mn759 O776 2.251 . S
O760 Mn757 2.160 . S
O760 C771 1.239 . S
O761 Mn757 2.221 . S
O761 Mn762 2.290 . S
O761 C772 1.278 . S
Mn762 O761 2.290 . S
Mn762 O764 2.089 . S
Mn762 O767 2.251 . S
Mn762 O768 2.087 . S
O763 Mn757 2.163 . S
O763 C773 1.244 . S
O764 Mn762 2.089 . S
O764 C771 1.256 . S
O765 Mn757 2.160 . S
O765 C774 1.239 . S
O766 Mn759 2.089 . S
O766 C774 1.256 . S
O767 Mn762 2.251 . S
O767 C772 1.241 . S
O768 Mn762 2.087 . S
O768 C773 1.256 . S
C769 O775 1.278 . S
C769 O776 1.241 . S
C770 O756 1.244 . S
C770 O758 1.256 . S
C771 O760 1.239 . S
C771 O764 1.256 . S
C772 O761 1.278 . S
C772 O767 1.241 . S
C773 O763 1.244 . S
C773 O768 1.256 . S
C774 O765 1.239 . S
C774 O766 1.256 . S
O775 Mn757 2.221 . S
O775 Mn759 2.290 . S
O775 C769 1.278 . S
O776 Mn759 2.251 . S
O776 C769 1.241 . S
O777 Mn778 2.163 . S
O777 C791 1.244 . S
Mn778 O777 2.163 . S
Mn778 O781 2.160 . S
Mn778 O782 2.221 . S
Mn778 O784 2.163 . S
Mn778 O786 2.160 . S
Mn778 O796 2.221 . S
O779 Mn780 2.087 . S
O779 C791 1.256 . S
Mn780 O779 2.087 . S
Mn780 O787 2.089 . S
Mn780 O796 2.290 . S
Mn780 O797 2.251 . S
O781 Mn778 2.160 . S
O781 C792 1.239 . S
O782 Mn778 2.221 . S
O782 Mn783 2.290 . S
O782 C793 1.278 . S
Mn783 O782 2.290 . S
Mn783 O785 2.089 . S
Mn783 O788 2.251 . S
Mn783 O789 2.087 . S
O784 Mn778 2.163 . S
O784 C794 1.244 . S
O785 Mn783 2.089 . S
O785 C792 1.256 . S
O786 Mn778 2.160 . S
O786 C795 1.239 . S
O787 Mn780 2.089 . S
O787 C795 1.256 . S
O788 Mn783 2.251 . S
O788 C793 1.241 . S
O789 Mn783 2.087 . S
O789 C794 1.256 . S
C790 O796 1.278 . S
C790 O797 1.241 . S
C791 O777 1.244 . S
C791 O779 1.256 . S
C792 O781 1.239 . S
C792 O785 1.256 . S
C793 O782 1.278 . S
C793 O788 1.241 . S
C794 O784 1.244 . S
C794 O789 1.256 . S
C795 O786 1.239 . S
C795 O787 1.256 . S
O796 Mn778 2.221 . S
O796 Mn780 2.290 . S
O796 C790 1.278 . S
O797 Mn780 2.251 . S
O797 C790 1.241 . S
O798 Mn799 2.163 . S
O798 C812 1.244 . S
Mn799 O798 2.163 . S
Mn799 O802 2.160 . S
Mn799 O803 2.221 . S
Mn799 O805 2.163 . S
Mn799 O807 2.160 . S
Mn799 O817 2.221 . S
O800 Mn801 2.087 . S
O800 C812 1.256 . S
Mn801 O800 2.087 . S
Mn801 O808 2.089 . S
Mn801 O817 2.290 . S
Mn801 O818 2.251 . S
O802 Mn799 2.160 . S
O802 C813 1.239 . S
O803 Mn799 2.221 . S
O803 Mn804 2.290 . S
O803 C814 1.278 . S
Mn804 O803 2.290 . S
Mn804 O806 2.089 . S
Mn804 O809 2.251 . S
Mn804 O810 2.087 . S
O805 Mn799 2.163 . S
O805 C815 1.244 . S
O806 Mn804 2.089 . S
O806 C813 1.256 . S
O807 Mn799 2.160 . S
O807 C816 1.239 . S
O808 Mn801 2.089 . S
O808 C816 1.256 . S
O809 Mn804 2.251 . S
O809 C814 1.241 . S
O810 Mn804 2.087 . S
O810 C815 1.256 . S
C811 O817 1.278 . S
C811 O818 1.241 . S
C812 O798 1.244 . S
C812 O800 1.256 . S
C813 O802 1.239 . S
C813 O806 1.256 . S
C814 O803 1.278 . S
C814 O809 1.241 . S
C815 O805 1.244 . S
C815 O810 1.256 . S
C816 O807 1.239 . S
C816 O808 1.256 . S
O817 Mn799 2.221 . S
O817 Mn801 2.290 . S
O817 C811 1.278 . S
O818 Mn801 2.251 . S
O818 C811 1.241 . S
O819 Mn820 2.163 . S
O819 C833 1.244 . S
Mn820 O819 2.163 . S
Mn820 O823 2.160 . S
Mn820 O824 2.221 . S
Mn820 O826 2.163 . S
Mn820 O828 2.160 . S
Mn820 O838 2.221 . S
O821 Mn822 2.087 . S
O821 C833 1.256 . S
Mn822 O821 2.087 . S
Mn822 O829 2.089 . S
Mn822 O838 2.290 . S
Mn822 O839 2.251 . S
O823 Mn820 2.160 . S
O823 C834 1.239 . S
O824 Mn820 2.221 . S
O824 Mn825 2.290 . S
O824 C835 1.278 . S
Mn825 O824 2.290 . S
Mn825 O827 2.089 . S
Mn825 O830 2.251 . S
Mn825 O831 2.087 . S
O826 Mn820 2.163 . S
O826 C836 1.244 . S
O827 Mn825 2.089 . S
O827 C834 1.256 . S
O828 Mn820 2.160 . S
O828 C837 1.239 . S
O829 Mn822 2.089 . S
O829 C837 1.256 . S
O830 Mn825 2.251 . S
O830 C835 1.241 . S
O831 Mn825 2.087 . S
O831 C836 1.256 . S
C832 O838 1.278 . S
C832 O839 1.241 . S
C833 O819 1.244 . S
C833 O821 1.256 . S
C834 O823 1.239 . S
C834 O827 1.256 . S
C835 O824 1.278 . S
C835 O830 1.241 . S
C836 O826 1.244 . S
C836 O831 1.256 . S
C837 O828 1.239 . S
C837 O829 1.256 . S
O838 Mn820 2.221 . S
O838 Mn822 2.290 . S
O838 C832 1.278 . S
O839 Mn822 2.251 . S
O839 C832 1.241 . S
O840 Mn841 2.163 1_655 S
O840 C854 1.244 . S
Mn841 O840 2.163 1_455 S
Mn841 O844 2.160 . S
Mn841 O845 2.221 1_455 S
Mn841 O847 2.163 . S
Mn841 O849 2.160 . S
Mn841 O859 2.221 . S
O842 Mn843 2.087 . S
O842 C854 1.256 1_455 S
Mn843 O842 2.087 . S
Mn843 O850 2.089 . S
Mn843 O859 2.290 . S
Mn843 O860 2.251 . S
O844 Mn841 2.160 . S
O844 C855 1.239 . S
O845 Mn841 2.221 1_655 S
O845 Mn846 2.290 . S
O845 C856 1.278 . S
Mn846 O845 2.290 . S
Mn846 O848 2.089 1_655 S
Mn846 O851 2.251 . S
Mn846 O852 2.087 . S
O847 Mn841 2.163 . S
O847 C857 1.244 1_455 S
O848 Mn846 2.089 1_455 S
O848 C855 1.256 . S
O849 Mn841 2.160 . S
O849 C858 1.239 . S
O850 Mn843 2.089 . S
O850 C858 1.256 . S
O851 Mn846 2.251 . S
O851 C856 1.241 . S
O852 Mn846 2.087 . S
O852 C857 1.256 . S
C853 O859 1.278 . S
C853 O860 1.241 . S
C854 O840 1.244 . S
C854 O842 1.256 1_655 S
C855 O844 1.239 . S
C855 O848 1.256 . S
C856 O845 1.278 . S
C856 O851 1.241 . S
C857 O847 1.244 1_655 S
C857 O852 1.256 . S
C858 O849 1.239 . S
C858 O850 1.256 . S
O859 Mn841 2.221 . S
O859 Mn843 2.290 . S
O859 C853 1.278 . S
O860 Mn843 2.251 . S
O860 C853 1.241 . S
O861 Mn862 2.163 . S
O861 C875 1.244 . S
Mn862 O861 2.163 . S
Mn862 O865 2.160 . S
Mn862 O866 2.221 . S
Mn862 O868 2.163 . S
Mn862 O870 2.160 . S
Mn862 O880 2.221 . S
O863 Mn864 2.087 . S
O863 C875 1.256 . S
Mn864 O863 2.087 . S
Mn864 O871 2.089 . S
Mn864 O880 2.290 . S
Mn864 O881 2.251 . S
O865 Mn862 2.160 . S
O865 C876 1.239 . S
O866 Mn862 2.221 . S
O866 Mn867 2.290 . S
O866 C877 1.278 . S
Mn867 O866 2.290 . S
Mn867 O869 2.089 . S
Mn867 O872 2.251 . S
Mn867 O873 2.087 . S
O868 Mn862 2.163 . S
O868 C878 1.244 . S
O869 Mn867 2.089 . S
O869 C876 1.256 . S
O870 Mn862 2.160 . S
O870 C879 1.239 . S
O871 Mn864 2.089 . S
O871 C879 1.256 . S
O872 Mn867 2.251 . S
O872 C877 1.241 . S
O873 Mn867 2.087 . S
O873 C878 1.256 . S
C874 O880 1.278 . S
C874 O881 1.241 . S
C875 O861 1.244 . S
C875 O863 1.256 . S
C876 O865 1.239 . S
C876 O869 1.256 . S
C877 O866 1.278 . S
C877 O872 1.241 . S
C878 O868 1.244 . S
C878 O873 1.256 . S
C879 O870 1.239 . S
C879 O871 1.256 . S
O880 Mn862 2.221 . S
O880 Mn864 2.290 . S
O880 C874 1.278 . S
O881 Mn864 2.251 . S
O881 C874 1.241 . S
O882 Mn883 2.163 1_556 S
O882 C896 1.244 . S
Mn883 O882 2.163 1_554 S
Mn883 O886 2.160 . S
Mn883 O887 2.221 1_554 S
Mn883 O889 2.163 . S
Mn883 O891 2.160 . S
Mn883 O901 2.221 . S
O884 Mn885 2.087 . S
O884 C896 1.256 1_554 S
Mn885 O884 2.087 . S
Mn885 O892 2.089 . S
Mn885 O901 2.290 . S
Mn885 O902 2.251 . S
O886 Mn883 2.160 . S
O886 C897 1.239 . S
O887 Mn883 2.221 1_556 S
O887 Mn888 2.290 . S
O887 C898 1.278 . S
Mn888 O887 2.290 . S
Mn888 O890 2.089 1_556 S
Mn888 O893 2.251 . S
Mn888 O894 2.087 . S
O889 Mn883 2.163 . S
O889 C899 1.244 1_554 S
O890 Mn888 2.089 1_554 S
O890 C897 1.256 . S
O891 Mn883 2.160 . S
O891 C900 1.239 . S
O892 Mn885 2.089 . S
O892 C900 1.256 . S
O893 Mn888 2.251 . S
O893 C898 1.241 . S
O894 Mn888 2.087 . S
O894 C899 1.256 . S
C895 O901 1.278 . S
C895 O902 1.241 . S
C896 O882 1.244 . S
C896 O884 1.256 1_556 S
C897 O886 1.239 . S
C897 O890 1.256 . S
C898 O887 1.278 . S
C898 O893 1.241 . S
C899 O889 1.244 1_556 S
C899 O894 1.256 . S
C900 O891 1.239 . S
C900 O892 1.256 . S
O901 Mn883 2.221 . S
O901 Mn885 2.290 . S
O901 C895 1.278 . S
O902 Mn885 2.251 . S
O902 C895 1.241 . S
O903 Mn904 2.163 . S
O903 C917 1.244 . S
Mn904 O903 2.163 . S
Mn904 O907 2.160 . S
Mn904 O908 2.221 . S
Mn904 O910 2.163 . S
Mn904 O912 2.160 . S
Mn904 O922 2.221 . S
O905 Mn906 2.087 . S
O905 C917 1.256 . S
Mn906 O905 2.087 . S
Mn906 O913 2.089 . S
Mn906 O922 2.290 . S
Mn906 O923 2.251 . S
O907 Mn904 2.160 . S
O907 C918 1.239 . S
O908 Mn904 2.221 . S
O908 Mn909 2.290 . S
O908 C919 1.278 . S
Mn909 O908 2.290 . S
Mn909 O911 2.089 . S
Mn909 O914 2.251 . S
Mn909 O915 2.087 . S
O910 Mn904 2.163 . S
O910 C920 1.244 . S
O911 Mn909 2.089 . S
O911 C918 1.256 . S
O912 Mn904 2.160 . S
O912 C921 1.239 . S
O913 Mn906 2.089 . S
O913 C921 1.256 . S
O914 Mn909 2.251 . S
O914 C919 1.241 . S
O915 Mn909 2.087 . S
O915 C920 1.256 . S
C916 O922 1.278 . S
C916 O923 1.241 . S
C917 O903 1.244 . S
C917 O905 1.256 . S
C918 O907 1.239 . S
C918 O911 1.256 . S
C919 O908 1.278 . S
C919 O914 1.241 . S
C920 O910 1.244 . S
C920 O915 1.256 . S
C921 O912 1.239 . S
C921 O913 1.256 . S
O922 Mn904 2.221 . S
O922 Mn906 2.290 . S
O922 C916 1.278 . S
O923 Mn906 2.251 . S
O923 C916 1.241 . S
O924 Mn925 2.163 . S
O924 C938 1.244 . S
Mn925 O924 2.163 . S
Mn925 O928 2.160 . S
Mn925 O929 2.221 . S
Mn925 O931 2.163 . S
Mn925 O933 2.160 . S
Mn925 O943 2.221 . S
O926 Mn927 2.087 . S
O926 C938 1.256 . S
Mn927 O926 2.087 . S
Mn927 O934 2.089 . S
Mn927 O943 2.290 . S
Mn927 O944 2.251 . S
O928 Mn925 2.160 . S
O928 C939 1.239 . S
O929 Mn925 2.221 . S
O929 Mn930 2.290 . S
O929 C940 1.278 . S
Mn930 O929 2.290 . S
Mn930 O932 2.089 . S
Mn930 O935 2.251 . S
Mn930 O936 2.087 . S
O931 Mn925 2.163 . S
O931 C941 1.244 . S
O932 Mn930 2.089 . S
O932 C939 1.256 . S
O933 Mn925 2.160 . S
O933 C942 1.239 . S
O934 Mn927 2.089 . S
O934 C942 1.256 . S
O935 Mn930 2.251 . S
O935 C940 1.241 . S
O936 Mn930 2.087 . S
O936 C941 1.256 . S
C937 O943 1.278 . S
C937 O944 1.241 . S
C938 O924 1.244 . S
C938 O926 1.256 . S
C939 O928 1.239 . S
C939 O932 1.256 . S
C940 O929 1.278 . S
C940 O935 1.241 . S
C941 O931 1.244 . S
C941 O936 1.256 . S
C942 O933 1.239 . S
C942 O934 1.256 . S
O943 Mn925 2.221 . S
O943 Mn927 2.290 . S
O943 C937 1.278 . S
O944 Mn927 2.251 . S
O944 C937 1.241 . S
O945 Mn946 2.163 . S
O945 C959 1.244 . S
Mn946 O945 2.163 . S
Mn946 O949 2.160 . S
Mn946 O950 2.221 . S
Mn946 O952 2.163 . S
Mn946 O954 2.160 . S
Mn946 O964 2.221 . S
O947 Mn948 2.087 . S
O947 C959 1.256 . S
Mn948 O947 2.087 . S
Mn948 O955 2.089 . S
Mn948 O964 2.290 . S
Mn948 O965 2.251 . S
O949 Mn946 2.160 . S
O949 C960 1.239 . S
O950 Mn946 2.221 . S
O950 Mn951 2.290 . S
O950 C961 1.278 . S
Mn951 O950 2.290 . S
Mn951 O953 2.089 . S
Mn951 O956 2.251 . S
Mn951 O957 2.087 . S
O952 Mn946 2.163 . S
O952 C962 1.244 . S
O953 Mn951 2.089 . S
O953 C960 1.256 . S
O954 Mn946 2.160 . S
O954 C963 1.239 . S
O955 Mn948 2.089 . S
O955 C963 1.256 . S
O956 Mn951 2.251 . S
O956 C961 1.241 . S
O957 Mn951 2.087 . S
O957 C962 1.256 . S
C958 O964 1.278 . S
C958 O965 1.241 . S
C959 O945 1.244 . S
C959 O947 1.256 . S
C960 O949 1.239 . S
C960 O953 1.256 . S
C961 O950 1.278 . S
C961 O956 1.241 . S
C962 O952 1.244 . S
C962 O957 1.256 . S
C963 O954 1.239 . S
C963 O955 1.256 . S
O964 Mn946 2.221 . S
O964 Mn948 2.290 . S
O964 C958 1.278 . S
O965 Mn948 2.251 . S
O965 C958 1.241 . S
O966 Mn967 2.163 . S
O966 C980 1.244 . S
Mn967 O966 2.163 . S
Mn967 O970 2.160 . S
Mn967 O971 2.221 . S
Mn967 O973 2.163 . S
Mn967 O975 2.160 . S
Mn967 O985 2.221 . S
O968 Mn969 2.087 . S
O968 C980 1.256 . S
Mn969 O968 2.087 . S
Mn969 O976 2.089 . S
Mn969 O985 2.290 . S
Mn969 O986 2.251 . S
O970 Mn967 2.160 . S
O970 C981 1.239 . S
O971 Mn967 2.221 . S
O971 Mn972 2.290 . S
O971 C982 1.278 . S
Mn972 O971 2.290 . S
Mn972 O974 2.089 . S
Mn972 O977 2.251 . S
Mn972 O978 2.087 . S
O973 Mn967 2.163 . S
O973 C983 1.244 . S
O974 Mn972 2.089 . S
O974 C981 1.256 . S
O975 Mn967 2.160 . S
O975 C984 1.239 . S
O976 Mn969 2.089 . S
O976 C984 1.256 . S
O977 Mn972 2.251 . S
O977 C982 1.241 . S
O978 Mn972 2.087 . S
O978 C983 1.256 . S
C979 O985 1.278 . S
C979 O986 1.241 . S
C980 O966 1.244 . S
C980 O968 1.256 . S
C981 O970 1.239 . S
C981 O974 1.256 . S
C982 O971 1.278 . S
C982 O977 1.241 . S
C983 O973 1.244 . S
C983 O978 1.256 . S
C984 O975 1.239 . S
C984 O976 1.256 . S
O985 Mn967 2.221 . S
O985 Mn969 2.290 . S
O985 C979 1.278 . S
O986 Mn969 2.251 . S
O986 C979 1.241 . S
O987 Mn988 2.163 . S
O987 C1001 1.244 . S
Mn988 O987 2.163 . S
Mn988 O991 2.160 . S
Mn988 O992 2.221 . S
Mn988 O994 2.163 . S
Mn988 O996 2.160 . S
Mn988 O1006 2.221 . S
O989 Mn990 2.087 . S
O989 C1001 1.256 . S
Mn990 O989 2.087 . S
Mn990 O997 2.089 . S
Mn990 O1006 2.290 . S
Mn990 O1007 2.251 . S
O991 Mn988 2.160 . S
O991 C1002 1.239 . S
O992 Mn988 2.221 . S
O992 Mn993 2.290 . S
O992 C1003 1.278 . S
Mn993 O992 2.290 . S
Mn993 O995 2.089 . S
Mn993 O998 2.251 . S
Mn993 O999 2.087 . S
O994 Mn988 2.163 . S
O994 C1004 1.244 . S
O995 Mn993 2.089 . S
O995 C1002 1.256 . S
O996 Mn988 2.160 . S
O996 C1005 1.239 . S
O997 Mn990 2.089 . S
O997 C1005 1.256 . S
O998 Mn993 2.251 . S
O998 C1003 1.241 . S
O999 Mn993 2.087 . S
O999 C1004 1.256 . S
C1000 O1006 1.278 . S
C1000 O1007 1.241 . S
C1001 O987 1.244 . S
C1001 O989 1.256 . S
C1002 O991 1.239 . S
C1002 O995 1.256 . S
C1003 O992 1.278 . S
C1003 O998 1.241 . S
C1004 O994 1.244 . S
C1004 O999 1.256 . S
C1005 O996 1.239 . S
C1005 O997 1.256 . S
O1006 Mn988 2.221 . S
O1006 Mn990 2.290 . S
O1006 C1000 1.278 . S
O1007 Mn990 2.251 . S
O1007 C1000 1.241 . S
C17 C101 1.788 . S
C38 C122 1.788 . S
C143 C59 1.788 . S
C164 C80 1.788 1_554 S
C185 C203 1.788 . S
C206 C227 1.788 1_565 S
C245 C224 1.788 1_554 S
C248 C182 1.788 1_545 S
C266 C77 1.788 . S
C161 C707 1.788 1_655 S
C98 C290 1.788 1_655 S
C119 C728 1.788 . S
C35 C308 1.788 1_655 S
C665 C14 1.788 1_455 S
C644 C56 1.788 . S
C413 C332 1.788 . S
C350 C434 1.788 . S
C374 C455 1.788 . S
C395 C479 1.788 1_554 S
C521 C500 1.788 . S
C518 C539 1.788 1_545 S
C560 C542 1.788 1_556 S
C497 C563 1.788 1_545 S
C392 C581 1.788 . S
C899 C476 1.788 1_655 S
C605 C416 1.788 1_655 S
C437 C917 1.788 . S
C623 C353 1.788 1_655 S
C329 C854 1.788 1_455 S
C371 C833 1.788 . S
C689 C647 1.788 1_545 S
C710 C269 1.788 1_554 S
C668 C287 1.788 1_545 S
C731 C311 1.788 . S
C749 C770 1.788 1_556 S
C773 C794 1.788 . S
C812 C791 1.788 . S
C752 C815 1.788 . S
C140 C686 1.788 . S
C875 C836 1.788 1_565 S
C896 C584 1.788 1_556 S
C602 C857 1.788 1_545 S
C920 C626 1.788 . S
C941 C962 1.788 1_554 S
C959 C980 1.788 . S
C983 C1004 1.788 . S
C1001 C938 1.788 . S
C878 C458 1.788 . S
C18 C349 1.461 . S
C856 C39 1.461 . S
C60 C394 1.461 . S
C81 C835 1.461 . S
C102 C478 1.461 . S
C123 C874 1.461 . S
C144 C433 1.461 . S
C601 C165 1.461 . S
C186 C832 1.461 . S
C207 C352 1.461 . S
C225 C853 1.461 . S
C391 C249 1.461 . S
C877 C246 1.461 . S
C436 C183 1.461 . S
C204 C604 1.461 . S
C475 C228 1.461 . S
C937 C267 1.461 . S
C562 C162 1.461 . S
C99 C940 1.461 . S
C120 C517 1.461 . S
C291 C541 1.461 . S
C979 C309 1.461 . S
C15 C1003 1.461 . S
C57 C961 1.461 . S
C37 C333 1.461 . S
C351 C667 1.461 . S
C375 C79 1.461 . S
C396 C646 1.461 . S
C163 C414 1.461 . S
C688 C435 1.461 . S
C121 C456 1.461 . S
C480 C286 1.461 . S
C501 C643 1.461 . S
C34 C519 1.461 . S
C543 C664 1.461 . S
C76 C564 1.461 . S
C685 C561 1.461 . S
C498 C118 1.461 . S
C522 C289 1.461 . S
C160 C540 1.461 . S
C582 C751 1.461 . S
C247 C477 1.461 . S
C748 C417 1.461 . S
C438 C205 1.461 . S
C606 C223 1.461 . S
C793 C624 1.461 . S
C330 C811 1.461 . S
C769 C372 1.461 . S
C583 C648 1.461 . S
C270 C373 1.461 . S
C625 C669 1.461 . S
C312 C331 1.461 . S
C690 C919 1.461 . S
C412 C711 1.461 . S
C288 C895 1.461 . S
C454 C732 1.461 . S
C750 C328 1.461 . S
C774 C580 1.461 . S
C792 C370 1.461 . S
C622 C816 1.461 . S
C415 C813 1.461 . S
C753 C898 1.461 . S
C457 C771 1.461 . S
C795 C916 1.461 . S
C36 C496 1.461 . S
C1000 C729 1.461 . S
C687 C499 1.461 . S
C708 C958 1.461 . S
C982 C141 1.461 . S
C538 C78 1.461 . S
C645 C559 1.461 . S
C520 C666 1.461 . S
C268 C837 1.461 . S
C585 C58 1.461 . S
C310 C858 1.461 . S
C627 C16 1.461 . S
C876 C730 1.461 . S
C100 C897 1.461 . S
C709 C603 1.461 . S
C142 C921 1.461 . S
C13 C942 1.461 . S
C960 C265 1.461 . S
C55 C984 1.461 . S
C307 C1002 1.461 . S
C97 C1005 1.461 . S
C706 C939 1.461 . S
C963 C139 1.461 . S
C727 C981 1.461 . S
C181 C354 1.461 . S
C918 C814 1.461 . S
C879 C184 1.461 . S
C772 C900 1.461 . S
C459 C790 1.461 . S
C393 C226 1.461 . S
C244 C834 1.461 . S
C202 C855 1.461 . S
