# Generated by pormake.
# Topology cdl, (4)-cn, num edge types: 1
# Building blocks:
#     Node 0, Type 0, BuildingBlock: KOZSID_clean_sbu_0, # of connection points: 4
#     Node 1, Type 0, BuildingBlock: KOZSID_clean_sbu_0, # of connection points: 4
#     Node 2, Type 0, BuildingBlock: KOZSID_clean_sbu_0, # of connection points: 4
#     Node 3, Type 0, BuildingBlock: KOZSID_clean_sbu_0, # of connection points: 4
#     Edge 4, Type (0, 0), BuildingBlock: UVAHIK_clean_linker_0, # of connection points: 2
#     Edge 5, Type (0, 0), BuildingBlock: UVAHIK_clean_linker_0, # of connection points: 2
#     Edge 6, Type (0, 0), BuildingBlock: UVAHIK_clean_linker_0, # of connection points: 2
#     Edge 7, Type (0, 0), BuildingBlock: UVAHIK_clean_linker_0, # of connection points: 2
#     Edge 8, Type (0, 0), BuildingBlock: UVAHIK_clean_linker_0, # of connection points: 2
#     Edge 9, Type (0, 0), BuildingBlock: UVAHIK_clean_linker_0, # of connection points: 2
#     Edge 10, Type (0, 0), BuildingBlock: UVAHIK_clean_linker_0, # of connection points: 2
#     Edge 11, Type (0, 0), BuildingBlock: UVAHIK_clean_linker_0, # of connection points: 2
# Relax obj value: 0.000
# Max RMSD: 0.021
# Mean RMSD: 0.020
data_MOF--net-cdl--node1-KOZSID_clean_sbu_0--edge1-UVAHIK_clean_linker_0
_symmetry_space_group_name_H-M    P1
_symmetry_Int_Tables_number       1
_symmetry_cell_setting            triclinic
loop_
_symmetry_equiv_pos_as_xyz
'x, y, z'
_cell_length_a     21.124112
_cell_length_b     24.089377
_cell_length_c     90.58132
_cell_angle_alpha  107.71552
_cell_angle_beta   106.22789
_cell_angle_gamma 83.958132
loop_
_atom_site_label
_atom_site_type_symbol
_atom_site_fract_x
_atom_site_fract_y
_atom_site_fract_z
_atom_type_partial_charge
C0 C 0.16298 0.14346 0.15512 0.0
C1 C 0.225 0.14675 0.16583 0.0
C2 C 0.26985 0.13783 0.157 0.0
C3 C 0.23294 0.1293 0.14147 0.0
N4 N 0.16707 0.13297 0.13982 0.0
Co5 Co 0.09543 0.1196 0.11922 0.0
N6 N 0.16163 0.10215 0.10614 0.0
C7 C 0.22813 0.10143 0.11168 0.0
C8 C 0.26055 0.09066 0.09991 0.0
C9 C 0.21195 0.08502 0.08601 0.0
C10 C 0.15243 0.0925 0.09015 0.0
N11 N 0.02379 0.1059 0.09865 0.0
C12 C 0.02789 0.09531 0.08338 0.0
C13 C 0.96608 0.08918 0.07254 0.0
C14 C 0.92113 0.09747 0.08132 0.0
C15 C 0.95793 0.10789 0.09693 0.0
N16 N 0.02919 0.13744 0.13226 0.0
C17 C 0.9627 0.13914 0.12672 0.0
C18 C 0.93026 0.15255 0.13856 0.0
C19 C 0.97883 0.159 0.15249 0.0
C20 C 0.0383 0.1487 0.14829 0.0
N21 N 0.09562 0.20339 0.12038 0.0
C22 C 0.09575 0.32098 0.12063 0.0
C23 C 0.03671 0.29254 0.11717 0.0
C24 C 0.03776 0.23436 0.11711 0.0
C25 C 0.15476 0.28958 0.12417 0.0
C26 C 0.15357 0.2315 0.12402 0.0
N27 N 0.09525 0.03575 0.11805 0.0
C28 C 0.0365 0.95016 0.11498 0.0
C29 C 0.09548 0.91808 0.11776 0.0
C30 C 0.15426 0.94582 0.12048 0.0
C31 C 0.15302 1.00402 0.12055 0.0
C32 C 0.03751 0.00831 0.11517 0.0
H33 H 0.19955 0.02241 0.12276 0.0
H34 H 0.99092 0.03029 0.11312 0.0
H35 H 0.99106 0.21532 0.11427 0.0
H36 H 0.20021 0.21009 0.12672 0.0
C37 C 0.25863 0.11447 0.12811 0.0
C38 C 0.10176 0.14744 0.15989 0.0
C39 C 0.0887 0.09354 0.07864 0.0
C40 C 0.9321 0.12429 0.11028 0.0
H41 H 0.23686 0.15342 0.17865 0.0
H42 H 0.32303 0.13602 0.16134 0.0
H43 H 0.31326 0.08894 0.10132 0.0
H44 H 0.21958 0.07774 0.07424 0.0
H45 H 0.9547 0.08101 0.05965 0.0
H46 H 0.86793 0.09777 0.0769 0.0
H47 H 0.87755 0.15573 0.13719 0.0
H48 H 0.9713 0.16887 0.16437 0.0
H49 H 0.98959 0.31509 0.11462 0.0
H50 H 0.20192 0.30923 0.12675 0.0
H51 H 0.98961 0.93096 0.11298 0.0
H52 H 0.20126 0.92267 0.12244 0.0
C53 C 0.19369 0.15321 0.64318 0.0
C54 C 0.22462 0.20658 0.64957 0.0
C55 C 0.17598 0.24839 0.65078 0.0
C56 C 0.11842 0.21831 0.64503 0.0
N57 N 0.12731 0.15969 0.64048 0.0
Co58 Co 0.05714 0.09936 0.63054 0.0
N59 N 0.98552 0.16098 0.63143 0.0
C60 C 0.9928 0.21943 0.63707 0.0
C61 C 0.93436 0.25036 0.63669 0.0
C62 C 0.8869 0.2092 0.63074 0.0
C63 C 0.91942 0.15541 0.62786 0.0
N64 N 0.98702 0.0391 0.62028 0.0
C65 C 0.92063 0.04549 0.61746 0.0
C66 C 0.88964 0.99223 0.61037 0.0
C67 C 0.93831 0.95058 0.60884 0.0
C68 C 0.99594 0.98062 0.61507 0.0
N69 N 0.12871 0.03771 0.62998 0.0
C70 C 0.12134 0.97924 0.62489 0.0
C71 C 0.17984 0.94819 0.62591 0.0
C72 C 0.22743 0.98924 0.63181 0.0
C73 C 0.19493 0.04309 0.63398 0.0
N74 N 0.0559 0.09653 0.65215 0.0
C75 C 0.05131 0.09277 0.68267 0.0
C76 C 0.04723 0.04189 0.66989 0.0
C77 C 0.0499 0.0447 0.6549 0.0
C78 C 0.05784 0.14556 0.67987 0.0
C79 C 0.05972 0.14646 0.66466 0.0
N80 N 0.05832 0.10218 0.60892 0.0
C81 C 0.06566 0.05302 0.58183 0.0
C82 C 0.06157 0.10609 0.57833 0.0
C83 C 0.05591 0.15718 0.59043 0.0
C84 C 0.05445 0.15425 0.60549 0.0
C85 C 0.06398 0.05207 0.59705 0.0
H86 H 0.05058 0.19477 0.61417 0.0
H87 H 0.06742 0.01023 0.59891 0.0
H88 H 0.04646 1.00436 0.64572 0.0
H89 H 0.0641 0.18815 0.66333 0.0
C90 C 0.05526 0.24383 0.64324 0.0
C91 C 0.22894 0.09785 0.63895 0.0
C92 C 0.88559 0.10039 0.62248 0.0
C93 C 0.05898 0.95496 0.61779 0.0
H94 H 0.27683 0.21458 0.65268 0.0
H95 H 0.18179 0.29517 0.65497 0.0
H96 H 0.92723 0.29718 0.64065 0.0
H97 H 0.83437 0.21762 0.62904 0.0
H98 H 0.83745 0.98407 0.60713 0.0
H99 H 0.93249 0.90381 0.60438 0.0
H100 H 0.18696 0.90132 0.62225 0.0
H101 H 0.28004 0.98063 0.63386 0.0
H102 H 0.04104 0.9999 0.67131 0.0
H103 H 0.06218 0.18621 0.6894 0.0
H104 H 0.06935 0.01213 0.57281 0.0
H105 H 0.05358 0.19948 0.5884 0.0
C106 C 0.10757 0.13463 0.91668 0.0
C107 C 0.16875 0.14057 0.92778 0.0
C108 C 0.21475 0.13292 0.91931 0.0
C109 C 0.17914 0.12299 0.90361 0.0
N110 N 0.11308 0.12479 0.90154 0.0
Co111 Co 0.04292 0.11092 0.88071 0.0
N112 N 0.11071 0.09391 0.86808 0.0
C113 C 0.17709 0.09417 0.874 0.0
C114 C 0.2109 0.08339 0.8625 0.0
C115 C 0.16344 0.0764 0.84839 0.0
C116 C 0.10302 0.08301 0.85209 0.0
N117 N 0.97273 0.0969 0.85988 0.0
C118 C 0.97818 0.08515 0.84467 0.0
C119 C 0.91688 0.07859 0.8336 0.0
C120 C 0.87096 0.08783 0.84215 0.0
C121 C 0.90666 0.09912 0.85786 0.0
N122 N 0.97517 0.12798 0.89336 0.0
C123 C 0.90881 0.12881 0.88751 0.0
C124 C 0.87517 0.13962 0.89906 0.0
C125 C 0.92279 0.14521 0.91312 0.0
C126 C 0.98298 0.1376 0.90931 0.0
N127 N 0.04266 0.19487 0.88191 0.0
C128 C 0.04208 0.31266 0.88225 0.0
C129 C 0.98322 0.28391 0.87874 0.0
C130 C 0.98464 0.22565 0.87865 0.0
C131 C 0.10125 0.28151 0.88579 0.0
C132 C 0.10041 0.22334 0.88559 0.0
N133 N 0.04314 0.02709 0.87952 0.0
C134 C 0.98448 0.94077 0.87584 0.0
C135 C 0.04362 0.90943 0.87923 0.0
C136 C 0.10252 0.93793 0.88256 0.0
C137 C 0.10116 0.99616 0.88263 0.0
C138 C 0.98536 0.99891 0.87603 0.0
H139 H 0.14772 0.01532 0.88533 0.0
H140 H 0.93862 0.0203 0.87348 0.0
H141 H 0.93805 0.20644 0.87579 0.0
H142 H 0.14719 0.20223 0.88828 0.0
C143 C 0.20627 0.10817 0.8905 0.0
C144 C 0.04596 0.1361 0.92103 0.0
C145 C 0.03987 0.0817 0.84015 0.0
C146 C 0.87956 0.11461 0.87101 0.0
H147 H 0.17902 0.14832 0.94063 0.0
H148 H 0.26784 0.1329 0.92398 0.0
H149 H 0.26378 0.08247 0.86423 0.0
H150 H 0.1726 0.06881 0.83676 0.0
H151 H 0.90644 0.06906 0.82069 0.0
H152 H 0.81786 0.08753 0.83749 0.0
H153 H 0.8223 0.14112 0.89738 0.0
H154 H 0.91406 0.15236 0.92478 0.0
H155 H 0.93599 0.30627 0.87617 0.0
H156 H 0.14828 0.30144 0.88841 0.0
H157 H 0.93746 0.92102 0.87337 0.0
H158 H 0.1497 0.91539 0.88501 0.0
C159 C 0.21507 0.18644 0.38182 0.0
C160 C 0.24465 0.24042 0.3882 0.0
C161 C 0.19498 0.28125 0.38935 0.0
C162 C 0.13821 0.25002 0.38359 0.0
N163 N 0.14861 0.19159 0.3791 0.0
Co164 Co 0.08014 0.1298 0.36922 0.0
N165 N 0.00694 0.19002 0.36962 0.0
C166 C 0.01267 0.24867 0.37493 0.0
C167 C 0.95343 0.27848 0.37409 0.0
C168 C 0.90705 0.23638 0.36815 0.0
C169 C 0.94097 0.18319 0.36575 0.0
N170 N 0.01168 0.06804 0.35917 0.0
C171 C 0.94514 0.07313 0.35617 0.0
C172 C 0.91559 0.01919 0.3494 0.0
C173 C 0.96533 0.97842 0.34826 0.0
C174 C 0.02214 0.00965 0.35438 0.0
N175 N 0.15331 0.06959 0.36899 0.0
C176 C 0.14759 0.01093 0.36404 0.0
C177 C 0.20688 0.98113 0.36509 0.0
C178 C 0.25324 0.02321 0.37081 0.0
C179 C 0.21927 0.07637 0.37286 0.0
N180 N 0.07886 0.12783 0.39091 0.0
C181 C 0.07584 0.12495 0.4216 0.0
C182 C 0.07718 0.07351 0.40928 0.0
C183 C 0.07845 0.07593 0.39417 0.0
C184 C 0.07581 0.17788 0.41827 0.0
C185 C 0.07746 0.17831 0.403 0.0
N186 N 0.08149 0.13175 0.34754 0.0
C187 C 0.09105 0.08177 0.32068 0.0
C188 C 0.08645 0.13449 0.31695 0.0
C189 C 0.0792 0.18582 0.32884 0.0
C190 C 0.07713 0.18348 0.34391 0.0
C191 C 0.08821 0.08139 0.33586 0.0
H192 H 0.07215 0.22417 0.35243 0.0
H193 H 0.09211 0.03979 0.33789 0.0
H194 H 0.07864 0.03519 0.3853 0.0
H195 H 0.07748 0.22005 0.40127 0.0
C196 C 0.07446 0.27433 0.38135 0.0
C197 C 0.25155 0.13183 0.37753 0.0
C198 C 0.90853 0.12758 0.36061 0.0
C199 C 0.08585 0.98529 0.35712 0.0
H200 H 0.29657 0.24945 0.39129 0.0
H201 H 0.19958 0.32816 0.39341 0.0
H202 H 0.94506 0.3252 0.37774 0.0
H203 H 0.85429 0.24382 0.36615 0.0
H204 H 0.8636 0.01008 0.34608 0.0
H205 H 0.96074 0.93152 0.34403 0.0
H206 H 0.21527 0.93439 0.36156 0.0
H207 H 0.306 0.01574 0.37281 0.0
H208 H 0.07624 0.03139 0.41121 0.0
H209 H 0.07542 0.21895 0.42747 0.0
H210 H 0.09779 0.04076 0.31201 0.0
H211 H 0.07445 0.2278 0.32652 0.0
C212 C 0.14343 0.42145 0.13172 0.0
C213 C 0.09575 0.3826 0.12039 0.0
C214 C 0.1436 0.47914 0.13141 0.0
C215 C 0.08182 0.5745 0.1048 0.0
H216 H 0.1208 0.69885 0.14482 0.0
C217 C 0.04722 0.81793 0.1069 0.0
C218 C 0.09577 0.85646 0.11797 0.0
C219 C 0.04737 0.76016 0.10717 0.0
C220 C 0.11051 0.6646 0.13353 0.0
H221 H 0.01124 0.37424 0.09973 0.0
H222 H 0.01041 0.47509 0.09949 0.0
H223 H 0.12067 0.59835 0.14536 0.0
H224 H 0.18218 0.86431 0.13816 0.0
H225 H 0.1832 0.76336 0.13842 0.0
H226 H 0.07143 0.64084 0.09299 0.0
C227 C 0.04828 0.46076 0.1085 0.0
C228 C 0.11048 0.6069 0.13384 0.0
C229 C 0.04821 0.40304 0.10877 0.0
C230 C 0.14447 0.83571 0.12933 0.0
C231 C 0.14459 0.77797 0.12961 0.0
C232 C 0.08174 0.63221 0.1045 0.0
C233 C 0.09601 0.49958 0.1198 0.0
C234 C 0.09613 0.56107 0.11948 0.0
C235 C 0.09603 0.73946 0.11854 0.0
C236 C 0.0961 0.678 0.11886 0.0
H237 H 0.18039 0.40749 0.14095 0.0
H238 H 0.18158 0.50757 0.14019 0.0
H239 H 0.07163 0.54029 0.09351 0.0
H240 H 0.00934 0.83223 0.09789 0.0
H241 H 0.00883 0.73189 0.09857 0.0
C242 C 0.30842 0.08508 0.62237 0.0
C243 C 0.29711 0.09716 0.63757 0.0
C244 C 0.37246 0.08465 0.62089 0.0
C245 C 0.53845 0.13956 0.64363 0.0
H246 H 0.59336 0.02104 0.60938 0.0
C247 C 0.80804 0.11073 0.63944 0.0
C248 C 0.81802 0.10001 0.62415 0.0
C249 C 0.74454 0.11024 0.64118 0.0
C250 C 0.57851 0.05478 0.6189 0.0
H251 H 0.34222 0.11732 0.66309 0.0
H252 H 0.45505 0.11621 0.66058 0.0
H253 H 0.48243 0.01955 0.61238 0.0
H254 H 0.77105 0.0814 0.59874 0.0
H255 H 0.65925 0.08069 0.60171 0.0
H256 H 0.63458 0.17475 0.65014 0.0
C257 C 0.41457 0.10792 0.64982 0.0
C258 C 0.51501 0.05392 0.62063 0.0
C259 C 0.35039 0.1083 0.65128 0.0
C260 C 0.76395 0.0893 0.61061 0.0
C261 C 0.70037 0.08865 0.61233 0.0
C262 C 0.60198 0.14038 0.64191 0.0
C263 C 0.42627 0.09618 0.6346 0.0
C264 C 0.49421 0.0964 0.63298 0.0
C265 C 0.69002 0.09904 0.62764 0.0
C266 C 0.62262 0.09808 0.6295 0.0
H267 H 0.26755 0.07644 0.61168 0.0
H268 H 0.37973 0.07621 0.60902 0.0
H269 H 0.52357 0.1734 0.65312 0.0
H270 H 0.84952 0.11907 0.64999 0.0
H271 H 0.73824 0.11776 0.6531 0.0
C272 C 0.089 0.41338 0.89349 0.0
C273 C 0.04178 0.37435 0.88206 0.0
C274 C 0.08912 0.47109 0.89319 0.0
C275 C 0.02936 0.56587 0.86642 0.0
H276 H 0.06533 0.69074 0.90635 0.0
C277 C 0.99635 0.80886 0.86806 0.0
C278 C 0.04384 0.84777 0.87943 0.0
C279 C 0.99613 0.75118 0.86836 0.0
C280 C 0.05594 0.65635 0.89509 0.0
H281 H 0.95793 0.36566 0.86124 0.0
H282 H 0.95711 0.46653 0.86097 0.0
H283 H 0.06465 0.59036 0.90695 0.0
H284 H 0.12805 0.8563 0.90016 0.0
H285 H 0.12861 0.75546 0.90046 0.0
H286 H 0.02061 0.63188 0.85457 0.0
C287 C 0.99462 0.45233 0.87006 0.0
C288 C 0.05554 0.59873 0.89543 0.0
C289 C 0.99456 0.39461 0.87035 0.0
C290 C 0.09121 0.82743 0.8911 0.0
C291 C 0.09101 0.76974 0.8914 0.0
C292 C 0.02973 0.62349 0.86608 0.0
C293 C 0.04196 0.49131 0.88146 0.0
C294 C 0.04226 0.55272 0.8811 0.0
C295 C 0.04343 0.73088 0.88005 0.0
C296 C 0.04304 0.66949 0.88041 0.0
H297 H 0.12568 0.39953 0.90278 0.0
H298 H 0.12675 0.49968 0.90205 0.0
H299 H 0.02 0.53149 0.85516 0.0
H300 H 0.95954 0.8228 0.8588 0.0
H301 H 0.95832 0.72268 0.85954 0.0
C302 C 0.32926 0.11994 0.36054 0.0
C303 C 0.31907 0.13241 0.37586 0.0
C304 C 0.39286 0.11949 0.35878 0.0
C305 C 0.55991 0.17355 0.38086 0.0
H306 H 0.61305 0.05156 0.347 0.0
C307 C 0.82962 0.13866 0.37725 0.0
C308 C 0.84065 0.12655 0.36202 0.0
C309 C 0.76568 0.13927 0.37881 0.0
C310 C 0.5987 0.08627 0.35639 0.0
H311 H 0.36571 0.15349 0.40132 0.0
H312 H 0.47771 0.15243 0.39833 0.0
H313 H 0.50177 0.0529 0.35008 0.0
H314 H 0.79513 0.10616 0.33652 0.0
H315 H 0.68248 0.10735 0.33915 0.0
H316 H 0.65686 0.20687 0.38719 0.0
C317 C 0.4367 0.14385 0.38768 0.0
C318 C 0.53499 0.08704 0.35816 0.0
C319 C 0.37298 0.14424 0.38943 0.0
C320 C 0.78722 0.11509 0.34834 0.0
C321 C 0.72313 0.1156 0.34988 0.0
C322 C 0.62361 0.17276 0.3791 0.0
C323 C 0.44732 0.13139 0.37233 0.0
C324 C 0.51494 0.13065 0.37043 0.0
C325 C 0.71169 0.12789 0.36515 0.0
C326 C 0.64374 0.12905 0.36687 0.0
H327 H 0.28788 0.11069 0.34997 0.0
H328 H 0.39932 0.11046 0.34681 0.0
H329 H 0.5456 0.20825 0.39026 0.0
H330 H 0.8706 0.14764 0.38792 0.0
H331 H 0.75857 0.14812 0.3907 0.0
C332 C 0.03362 0.18028 0.94895 0.0
C333 C 0.04783 0.13151 0.93709 0.0
C334 C 0.03738 0.17596 0.96422 0.0
C335 C 0.11319 0.08675 0.99162 0.0
H336 H 0.98005 0.162 0.01363 0.0
C337 C 0.09905 0.04859 0.05058 0.0
C338 C 0.08529 0.09758 0.06244 0.0
C339 C 0.09449 0.05253 0.03523 0.0
C340 C 0.01802 0.14126 0.00772 0.0
H341 H 0.07718 0.04038 0.93156 0.0
H342 H 0.0833 0.03229 0.95823 0.0
H343 H 0.97166 0.16935 0.98688 0.0
H344 H 0.05575 0.18866 0.06789 0.0
H345 H 0.04821 0.19607 0.04108 0.0
H346 H 0.15959 0.05871 0.01245 0.0
C347 C 0.06982 0.07401 0.95588 0.0
C348 C 0.01321 0.14548 0.99239 0.0
C349 C 0.06595 0.0784 0.94062 0.0
C350 C 0.06662 0.15047 0.05882 0.0
C351 C 0.06195 0.15448 0.04349 0.0
C352 C 0.11801 0.08254 0.00694 0.0
C353 C 0.05575 0.12279 0.96787 0.0
C354 C 0.06074 0.11827 0.98416 0.0
C355 C 0.07576 0.10553 0.0315 0.0
C356 C 0.0705 0.10978 0.01518 0.0
H357 H 0.02016 0.22174 0.94642 0.0
H358 H 0.02708 0.21449 0.97325 0.0
H359 H 0.1512 0.06605 0.98571 0.0
H360 H 0.11296 0.0073 0.05318 0.0
H361 H 0.1046 0.01386 0.02622 0.0
C362 C 0.03341 0.16208 0.44621 0.0
C363 C 0.07451 0.12333 0.43777 0.0
C364 C 0.03198 0.1603 0.46139 0.0
C365 C 0.07223 0.06416 0.48793 0.0
H366 H 0.06366 0.20838 0.52135 0.0
C367 C 0.10593 0.07085 0.55396 0.0
C368 C 0.06317 0.10816 0.5622 0.0
C369 C 0.10731 0.07273 0.53879 0.0
C370 C 0.06537 0.16771 0.51209 0.0
H371 H 0.14721 0.05305 0.43877 0.0
H372 H 0.14507 0.05017 0.4653 0.0
H373 H 0.06622 0.21171 0.49488 0.0
H374 H 0.98762 0.17611 0.56079 0.0
H375 H 0.99024 0.17951 0.53434 0.0
H376 H 0.07167 0.02021 0.50518 0.0
C377 C 0.11299 0.08122 0.46006 0.0
C378 C 0.06679 0.16961 0.49692 0.0
C379 C 0.11428 0.08289 0.44487 0.0
C380 C 0.02189 0.14742 0.5549 0.0
C381 C 0.02335 0.14936 0.53973 0.0
C382 C 0.07097 0.06228 0.50311 0.0
C383 C 0.07175 0.11984 0.4685 0.0
C384 C 0.07022 0.11785 0.48465 0.0
C385 C 0.06604 0.11202 0.5315 0.0
C386 C 0.0675 0.11403 0.51537 0.0
H387 H 0.00149 0.19318 0.44096 0.0
H388 H -0.00111 0.19005 0.46745 0.0
H389 H 0.0738 0.02346 0.47868 0.0
H390 H 0.13914 0.04074 0.55935 0.0
H391 H 0.14145 0.04398 0.53286 0.0
C392 C 0.12159 0.18083 0.29915 0.0
C393 C 0.08913 0.13588 0.30082 0.0
C394 C 0.12373 0.18227 0.28399 0.0
C395 C 0.04107 0.12322 0.24064 0.0
H396 H 0.19897 0.17374 0.23503 0.0
C397 C 0.07949 0.09723 0.17826 0.0
C398 C 0.10332 0.14587 0.17624 0.0
C399 C 0.07846 0.09614 0.19351 0.0
C400 C 0.15438 0.15998 0.23645 0.0
H401 H 0.03308 0.05733 0.2877 0.0
H402 H 0.03897 0.05862 0.2614 0.0
H403 H 0.19616 0.17093 0.26154 0.0
H404 H 0.1442 0.23158 0.18828 0.0
H405 H 0.14346 0.22954 0.21515 0.0
H406 H -0.00015 0.11137 0.21547 0.0
C407 C 0.06176 0.09345 0.27178 0.0
C408 C 0.15263 0.15851 0.25165 0.0
C409 C 0.05921 0.09224 0.28693 0.0
C410 C 0.12635 0.19341 0.18967 0.0
C411 C 0.12597 0.19213 0.20497 0.0
C412 C 0.04308 0.12421 0.22544 0.0
C413 C 0.09386 0.13859 0.2701 0.0
C414 C 0.0959 0.14015 0.25394 0.0
C415 C 0.10164 0.14359 0.20703 0.0
C416 C 0.09971 0.14263 0.22319 0.0
H417 H 0.14595 0.21476 0.30958 0.0
H418 H 0.14822 0.21808 0.28316 0.0
H419 H 0.99611 0.10991 0.24199 0.0
H420 H 0.06138 0.06022 0.16799 0.0
H421 H 0.06 0.05797 0.19476 0.0
C422 C 0.07893 0.04436 0.70477 0.0
C423 C 0.04876 0.09077 0.69877 0.0
C424 C 0.07645 0.0424 0.71986 0.0
C425 C 0.98565 0.10459 0.75117 0.0
H426 H 0.13835 0.04681 0.77818 0.0
C427 C 0.0151 0.13033 0.81836 0.0
C428 C 0.03819 0.08104 0.82361 0.0
C429 C 0.01446 0.13046 0.8029 0.0
C430 C 0.09513 0.06255 0.7707 0.0
H431 H 0.9916 0.1713 0.70399 0.0
H432 H 0.98963 0.16911 0.73051 0.0
H433 H 0.14184 0.05007 0.75179 0.0
H434 H 0.0772 0.99294 0.81699 0.0
H435 H 0.07719 0.99326 0.78993 0.0
H436 H 0.93973 0.11826 0.77035 0.0
C437 C 0.01418 0.13355 0.72343 0.0
C438 C 0.09698 0.06429 0.75555 0.0
C439 C 0.01618 0.13526 0.70828 0.0
C440 C 0.05983 0.03155 0.81316 0.0
C441 C 0.05994 0.03187 0.79776 0.0
C442 C 0.9841 0.10339 0.7664 0.0
C443 C 0.04423 0.08705 0.72941 0.0
C444 C 0.04222 0.08524 0.74557 0.0
C445 C 0.03743 0.08141 0.7925 0.0
C446 C 0.03877 0.08226 0.7763 0.0
H447 H 0.10519 0.00968 0.6979 0.0
H448 H 0.09941 0.0055 0.72395 0.0
H449 H 0.94213 0.12003 0.74373 0.0
H450 H -0.00187 0.16887 0.82628 0.0
H451 H -0.0027 0.16935 0.7992 0.0
loop_
_geom_bond_atom_site_label_1
_geom_bond_atom_site_label_2
_geom_bond_distance
_geom_bond_site_symmetry_2
_ccdc_geom_bond_type
C0 C1 1.443 . S
C0 N4 1.376 . S
C0 C38 1.389 . S
C1 C0 1.443 . S
C1 C2 1.340 . S
C1 H41 0.951 . S
C2 C1 1.340 . S
C2 C3 1.439 . S
C2 H42 0.950 . S
C3 C2 1.439 . S
C3 N4 1.374 . S
C3 C37 1.395 . S
N4 C0 1.376 . S
N4 C3 1.374 . S
N4 Co5 2.008 . S
Co5 N4 2.008 . S
Co5 N6 1.995 . S
Co5 N11 2.008 . S
Co5 N16 1.995 . S
Co5 N21 2.282 . S
Co5 N27 2.282 . S
N6 Co5 1.995 . S
N6 C7 1.376 . S
N6 C10 1.383 . S
C7 N6 1.376 . S
C7 C8 1.446 . S
C7 C37 1.391 . S
C8 C7 1.446 . S
C8 C9 1.339 . S
C8 H43 0.949 . S
C9 C8 1.339 . S
C9 C10 1.439 . S
C9 H44 0.950 . S
C10 N6 1.383 . S
C10 C9 1.439 . S
C10 C39 1.392 . S
N11 Co5 2.008 . S
N11 C12 1.376 . S
N11 C15 1.374 1_455 S
C12 N11 1.376 . S
C12 C13 1.443 1_455 S
C12 C39 1.389 . S
C13 C12 1.443 1_655 S
C13 C14 1.340 . S
C13 H45 0.951 . S
C14 C13 1.340 . S
C14 C15 1.439 . S
C14 H46 0.950 . S
C15 N11 1.374 1_655 S
C15 C14 1.439 . S
C15 C40 1.395 . S
N16 Co5 1.995 . S
N16 C17 1.376 1_455 S
N16 C20 1.383 . S
C17 N16 1.376 1_655 S
C17 C18 1.446 . S
C17 C40 1.391 . S
C18 C17 1.446 . S
C18 C19 1.339 . S
C18 H47 0.949 . S
C19 C18 1.339 . S
C19 C20 1.439 1_655 S
C19 H48 0.950 . S
C20 N16 1.383 . S
C20 C19 1.439 1_455 S
C20 C38 1.392 . S
N21 Co5 2.282 . S
N21 C24 1.332 . S
N21 C26 1.332 . S
C22 C23 1.386 . S
C22 C25 1.388 . S
C23 C22 1.386 . S
C23 C24 1.382 . S
C23 H49 0.950 . S
C24 N21 1.332 . S
C24 C23 1.382 . S
C24 H35 0.952 . S
C25 C22 1.388 . S
C25 C26 1.382 . S
C25 H50 0.950 . S
C26 N21 1.332 . S
C26 C25 1.382 . S
C26 H36 0.948 . S
N27 Co5 2.282 . S
N27 C31 1.332 1_545 S
N27 C32 1.332 1_545 S
C28 C29 1.388 . S
C28 C32 1.382 . S
C28 H51 0.950 . S
C29 C28 1.388 . S
C29 C30 1.386 . S
C30 C29 1.386 . S
C30 C31 1.382 . S
C30 H52 0.950 . S
C31 N27 1.332 1_565 S
C31 C30 1.382 . S
C31 H33 0.952 1_565 S
C32 N27 1.332 1_565 S
C32 C28 1.382 . S
C32 H34 0.948 1_565 S
H33 C31 0.952 1_545 S
H34 C32 0.948 1_545 S
H35 C24 0.952 . S
H36 C26 0.948 . S
C37 C3 1.395 . S
C37 C7 1.391 . S
C38 C0 1.389 . S
C38 C20 1.392 . S
C39 C10 1.392 . S
C39 C12 1.389 . S
C40 C15 1.395 . S
C40 C17 1.391 . S
H41 C1 0.951 . S
H42 C2 0.950 . S
H43 C8 0.949 . S
H44 C9 0.950 . S
H45 C13 0.951 . S
H46 C14 0.950 . S
H47 C18 0.949 . S
H48 C19 0.950 . S
H49 C23 0.950 . S
H50 C25 0.950 . S
H51 C28 0.950 . S
H52 C30 0.950 . S
C53 C54 1.443 . S
C53 N57 1.376 . S
C53 C91 1.389 . S
C54 C53 1.443 . S
C54 C55 1.340 . S
C54 H94 0.951 . S
C55 C54 1.340 . S
C55 C56 1.439 . S
C55 H95 0.950 . S
C56 C55 1.439 . S
C56 N57 1.374 . S
C56 C90 1.395 . S
N57 C53 1.376 . S
N57 C56 1.374 . S
N57 Co58 2.008 . S
Co58 N57 2.008 . S
Co58 N59 1.995 1_455 S
Co58 N64 2.008 1_455 S
Co58 N69 1.995 . S
Co58 N74 2.282 . S
Co58 N80 2.282 . S
N59 Co58 1.995 1_655 S
N59 C60 1.376 . S
N59 C63 1.383 . S
C60 N59 1.376 . S
C60 C61 1.446 . S
C60 C90 1.391 1_655 S
C61 C60 1.446 . S
C61 C62 1.339 . S
C61 H96 0.949 . S
C62 C61 1.339 . S
C62 C63 1.439 . S
C62 H97 0.950 . S
C63 N59 1.383 . S
C63 C62 1.439 . S
C63 C92 1.392 . S
N64 Co58 2.008 1_655 S
N64 C65 1.376 . S
N64 C68 1.374 1_645 S
C65 N64 1.376 . S
C65 C66 1.443 1_545 S
C65 C92 1.389 . S
C66 C65 1.443 1_565 S
C66 C67 1.340 . S
C66 H98 0.951 . S
C67 C66 1.340 . S
C67 C68 1.439 1_655 S
C67 H99 0.950 . S
C68 N64 1.374 1_465 S
C68 C67 1.439 1_455 S
C68 C93 1.395 . S
N69 Co58 1.995 . S
N69 C70 1.376 1_545 S
N69 C73 1.383 . S
C70 N69 1.376 1_565 S
C70 C71 1.446 . S
C70 C93 1.391 . S
C71 C70 1.446 . S
C71 C72 1.339 . S
C71 H100 0.949 . S
C72 C71 1.339 . S
C72 C73 1.439 1_565 S
C72 H101 0.950 . S
C73 N69 1.383 . S
C73 C72 1.439 1_545 S
C73 C91 1.392 . S
N74 Co58 2.282 . S
N74 C77 1.332 . S
N74 C79 1.332 . S
C75 C76 1.386 . S
C75 C78 1.388 . S
C76 C75 1.386 . S
C76 C77 1.382 . S
C76 H102 0.950 . S
C77 N74 1.332 . S
C77 C76 1.382 . S
C77 H88 0.952 . S
C78 C75 1.388 . S
C78 C79 1.382 . S
C78 H103 0.950 . S
C79 N74 1.332 . S
C79 C78 1.382 . S
C79 H89 0.948 . S
N80 Co58 2.282 . S
N80 C84 1.332 . S
N80 C85 1.332 . S
C81 C82 1.388 . S
C81 C85 1.382 . S
C81 H104 0.950 . S
C82 C81 1.388 . S
C82 C83 1.386 . S
C83 C82 1.386 . S
C83 C84 1.382 . S
C83 H105 0.950 . S
C84 N80 1.332 . S
C84 C83 1.382 . S
C84 H86 0.952 . S
C85 N80 1.332 . S
C85 C81 1.382 . S
C85 H87 0.948 . S
H86 C84 0.952 . S
H87 C85 0.948 . S
H88 C77 0.952 . S
H89 C79 0.948 . S
C90 C56 1.395 . S
C90 C60 1.391 1_455 S
C91 C53 1.389 . S
C91 C73 1.392 . S
C92 C63 1.392 . S
C92 C65 1.389 . S
C93 C68 1.395 . S
C93 C70 1.391 . S
H94 C54 0.951 . S
H95 C55 0.950 . S
H96 C61 0.949 . S
H97 C62 0.950 . S
H98 C66 0.951 . S
H99 C67 0.950 . S
H100 C71 0.949 . S
H101 C72 0.950 . S
H102 C76 0.950 . S
H103 C78 0.950 . S
H104 C81 0.950 . S
H105 C83 0.950 . S
C106 C107 1.443 . S
C106 N110 1.376 . S
C106 C144 1.389 . S
C107 C106 1.443 . S
C107 C108 1.340 . S
C107 H147 0.951 . S
C108 C107 1.340 . S
C108 C109 1.439 . S
C108 H148 0.950 . S
C109 C108 1.439 . S
C109 N110 1.374 . S
C109 C143 1.395 . S
N110 C106 1.376 . S
N110 C109 1.374 . S
N110 Co111 2.008 . S
Co111 N110 2.008 . S
Co111 N112 1.995 . S
Co111 N117 2.008 1_455 S
Co111 N122 1.995 1_455 S
Co111 N127 2.282 . S
Co111 N133 2.282 . S
N112 Co111 1.995 . S
N112 C113 1.376 . S
N112 C116 1.383 . S
C113 N112 1.376 . S
C113 C114 1.446 . S
C113 C143 1.391 . S
C114 C113 1.446 . S
C114 C115 1.339 . S
C114 H149 0.949 . S
C115 C114 1.339 . S
C115 C116 1.439 . S
C115 H150 0.950 . S
C116 N112 1.383 . S
C116 C115 1.439 . S
C116 C145 1.392 . S
N117 Co111 2.008 1_655 S
N117 C118 1.376 . S
N117 C121 1.374 . S
C118 N117 1.376 . S
C118 C119 1.443 . S
C118 C145 1.389 1_655 S
C119 C118 1.443 . S
C119 C120 1.340 . S
C119 H151 0.951 . S
C120 C119 1.340 . S
C120 C121 1.439 . S
C120 H152 0.950 . S
C121 N117 1.374 . S
C121 C120 1.439 . S
C121 C146 1.395 . S
N122 Co111 1.995 1_655 S
N122 C123 1.376 . S
N122 C126 1.383 . S
C123 N122 1.376 . S
C123 C124 1.446 . S
C123 C146 1.391 . S
C124 C123 1.446 . S
C124 C125 1.339 . S
C124 H153 0.949 . S
C125 C124 1.339 . S
C125 C126 1.439 . S
C125 H154 0.950 . S
C126 N122 1.383 . S
C126 C125 1.439 . S
C126 C144 1.392 1_655 S
N127 Co111 2.282 . S
N127 C130 1.332 1_455 S
N127 C132 1.332 . S
C128 C129 1.386 1_455 S
C128 C131 1.388 . S
C129 C128 1.386 1_655 S
C129 C130 1.382 . S
C129 H155 0.950 . S
C130 N127 1.332 1_655 S
C130 C129 1.382 . S
C130 H141 0.952 . S
C131 C128 1.388 . S
C131 C132 1.382 . S
C131 H156 0.950 . S
C132 N127 1.332 . S
C132 C131 1.382 . S
C132 H142 0.948 . S
N133 Co111 2.282 . S
N133 C137 1.332 1_545 S
N133 C138 1.332 1_445 S
C134 C135 1.388 1_655 S
C134 C138 1.382 . S
C134 H157 0.950 . S
C135 C134 1.388 1_455 S
C135 C136 1.386 . S
C136 C135 1.386 . S
C136 C137 1.382 . S
C136 H158 0.950 . S
C137 N133 1.332 1_565 S
C137 C136 1.382 . S
C137 H139 0.952 . S
C138 N133 1.332 1_665 S
C138 C134 1.382 . S
C138 H140 0.948 1_565 S
H139 C137 0.952 . S
H140 C138 0.948 1_545 S
H141 C130 0.952 . S
H142 C132 0.948 . S
C143 C109 1.395 . S
C143 C113 1.391 . S
C144 C106 1.389 . S
C144 C126 1.392 1_455 S
C145 C116 1.392 . S
C145 C118 1.389 1_455 S
C146 C121 1.395 . S
C146 C123 1.391 . S
H147 C107 0.951 . S
H148 C108 0.950 . S
H149 C114 0.949 . S
H150 C115 0.950 . S
H151 C119 0.951 . S
H152 C120 0.950 . S
H153 C124 0.949 . S
H154 C125 0.950 . S
H155 C129 0.950 . S
H156 C131 0.950 . S
H157 C134 0.950 . S
H158 C136 0.950 . S
C159 C160 1.443 . S
C159 N163 1.376 . S
C159 C197 1.389 . S
C160 C159 1.443 . S
C160 C161 1.340 . S
C160 H200 0.951 . S
C161 C160 1.340 . S
C161 C162 1.439 . S
C161 H201 0.950 . S
C162 C161 1.439 . S
C162 N163 1.374 . S
C162 C196 1.395 . S
N163 C159 1.376 . S
N163 C162 1.374 . S
N163 Co164 2.008 . S
Co164 N163 2.008 . S
Co164 N165 1.995 . S
Co164 N170 2.008 . S
Co164 N175 1.995 . S
Co164 N180 2.282 . S
Co164 N186 2.282 . S
N165 Co164 1.995 . S
N165 C166 1.376 . S
N165 C169 1.383 1_455 S
C166 N165 1.376 . S
C166 C167 1.446 1_455 S
C166 C196 1.391 . S
C167 C166 1.446 1_655 S
C167 C168 1.339 . S
C167 H202 0.949 . S
C168 C167 1.339 . S
C168 C169 1.439 . S
C168 H203 0.950 . S
C169 N165 1.383 1_655 S
C169 C168 1.439 . S
C169 C198 1.392 . S
N170 Co164 2.008 . S
N170 C171 1.376 1_455 S
N170 C174 1.374 . S
C171 N170 1.376 1_655 S
C171 C172 1.443 . S
C171 C198 1.389 . S
C172 C171 1.443 . S
C172 C173 1.340 1_545 S
C172 H204 0.951 . S
C173 C172 1.340 1_565 S
C173 C174 1.439 1_665 S
C173 H205 0.950 . S
C174 N170 1.374 . S
C174 C173 1.439 1_445 S
C174 C199 1.395 1_545 S
N175 Co164 1.995 . S
N175 C176 1.376 . S
N175 C179 1.383 . S
C176 N175 1.376 . S
C176 C177 1.446 1_545 S
C176 C199 1.391 1_545 S
C177 C176 1.446 1_565 S
C177 C178 1.339 1_565 S
C177 H206 0.949 . S
C178 C177 1.339 1_545 S
C178 C179 1.439 . S
C178 H207 0.950 . S
C179 N175 1.383 . S
C179 C178 1.439 . S
C179 C197 1.392 . S
N180 Co164 2.282 . S
N180 C183 1.332 . S
N180 C185 1.332 . S
C181 C182 1.386 . S
C181 C184 1.388 . S
C182 C181 1.386 . S
C182 C183 1.382 . S
C182 H208 0.950 . S
C183 N180 1.332 . S
C183 C182 1.382 . S
C183 H194 0.952 . S
C184 C181 1.388 . S
C184 C185 1.382 . S
C184 H209 0.950 . S
C185 N180 1.332 . S
C185 C184 1.382 . S
C185 H195 0.948 . S
N186 Co164 2.282 . S
N186 C190 1.332 . S
N186 C191 1.332 . S
C187 C188 1.388 . S
C187 C191 1.382 . S
C187 H210 0.950 . S
C188 C187 1.388 . S
C188 C189 1.386 . S
C189 C188 1.386 . S
C189 C190 1.382 . S
C189 H211 0.950 . S
C190 N186 1.332 . S
C190 C189 1.382 . S
C190 H192 0.952 . S
C191 N186 1.332 . S
C191 C187 1.382 . S
C191 H193 0.948 . S
H192 C190 0.952 . S
H193 C191 0.948 . S
H194 C183 0.952 . S
H195 C185 0.948 . S
C196 C162 1.395 . S
C196 C166 1.391 . S
C197 C159 1.389 . S
C197 C179 1.392 . S
C198 C169 1.392 . S
C198 C171 1.389 . S
C199 C174 1.395 1_565 S
C199 C176 1.391 1_565 S
H200 C160 0.951 . S
H201 C161 0.950 . S
H202 C167 0.949 . S
H203 C168 0.950 . S
H204 C172 0.951 . S
H205 C173 0.950 . S
H206 C177 0.949 . S
H207 C178 0.950 . S
H208 C182 0.950 . S
H209 C184 0.950 . S
H210 C187 0.950 . S
H211 C189 0.950 . S
C212 C213 1.349 . S
C212 C214 1.327 . S
C212 H237 0.950 . S
C213 C212 1.349 . S
C213 C229 1.349 . S
C214 C212 1.327 . S
C214 C233 1.429 . S
C214 H238 0.950 . S
C215 C232 1.574 . S
C215 C234 1.368 . S
C215 H239 0.949 . S
H216 C220 0.949 . S
C217 C218 1.349 . S
C217 C219 1.327 . S
C217 H240 0.950 . S
C218 C217 1.349 . S
C218 C230 1.349 . S
C219 C217 1.327 . S
C219 C235 1.429 . S
C219 H241 0.950 . S
C220 H216 0.949 . S
C220 C228 1.574 . S
C220 C236 1.368 . S
H221 C229 0.950 . S
H222 C227 0.950 . S
H223 C228 0.949 . S
H224 C230 0.950 . S
H225 C231 0.950 . S
H226 C232 0.949 . S
C227 H222 0.950 . S
C227 C229 1.327 . S
C227 C233 1.429 . S
C228 C220 1.574 . S
C228 H223 0.949 . S
C228 C234 1.368 . S
C229 C213 1.349 . S
C229 H221 0.950 . S
C229 C227 1.327 . S
C230 C218 1.349 . S
C230 H224 0.950 . S
C230 C231 1.327 . S
C231 H225 0.950 . S
C231 C230 1.327 . S
C231 C235 1.429 . S
C232 C215 1.574 . S
C232 H226 0.949 . S
C232 C236 1.368 . S
C233 C214 1.429 . S
C233 C227 1.429 . S
C233 C234 1.523 . S
C234 C215 1.368 . S
C234 C228 1.368 . S
C234 C233 1.523 . S
C235 C219 1.429 . S
C235 C231 1.429 . S
C235 C236 1.523 . S
C236 C220 1.368 . S
C236 C232 1.368 . S
C236 C235 1.523 . S
H237 C212 0.950 . S
H238 C214 0.950 . S
H239 C215 0.949 . S
H240 C217 0.950 . S
H241 C219 0.950 . S
C242 C243 1.349 . S
C242 C244 1.327 . S
C242 H267 0.950 . S
C243 C242 1.349 . S
C243 C259 1.349 . S
C244 C242 1.327 . S
C244 C263 1.429 . S
C244 H268 0.950 . S
C245 C262 1.574 . S
C245 C264 1.368 . S
C245 H269 0.949 . S
H246 C250 0.949 . S
C247 C248 1.349 . S
C247 C249 1.327 . S
C247 H270 0.950 . S
C248 C247 1.349 . S
C248 C260 1.349 . S
C249 C247 1.327 . S
C249 C265 1.429 . S
C249 H271 0.950 . S
C250 H246 0.949 . S
C250 C258 1.574 . S
C250 C266 1.368 . S
H251 C259 0.950 . S
H252 C257 0.950 . S
H253 C258 0.949 . S
H254 C260 0.950 . S
H255 C261 0.950 . S
H256 C262 0.949 . S
C257 H252 0.950 . S
C257 C259 1.327 . S
C257 C263 1.429 . S
C258 C250 1.574 . S
C258 H253 0.949 . S
C258 C264 1.368 . S
C259 C243 1.349 . S
C259 H251 0.950 . S
C259 C257 1.327 . S
C260 C248 1.349 . S
C260 H254 0.950 . S
C260 C261 1.327 . S
C261 H255 0.950 . S
C261 C260 1.327 . S
C261 C265 1.429 . S
C262 C245 1.574 . S
C262 H256 0.949 . S
C262 C266 1.368 . S
C263 C244 1.429 . S
C263 C257 1.429 . S
C263 C264 1.523 . S
C264 C245 1.368 . S
C264 C258 1.368 . S
C264 C263 1.523 . S
C265 C249 1.429 . S
C265 C261 1.429 . S
C265 C266 1.523 . S
C266 C250 1.368 . S
C266 C262 1.368 . S
C266 C265 1.523 . S
H267 C242 0.950 . S
H268 C244 0.950 . S
H269 C245 0.949 . S
H270 C247 0.950 . S
H271 C249 0.950 . S
C272 C273 1.349 . S
C272 C274 1.327 . S
C272 H297 0.950 . S
C273 C272 1.349 . S
C273 C289 1.349 . S
C274 C272 1.327 . S
C274 C293 1.429 . S
C274 H298 0.950 . S
C275 C292 1.574 . S
C275 C294 1.368 . S
C275 H299 0.949 1_455 S
H276 C280 0.949 . S
C277 C278 1.349 . S
C277 C279 1.327 . S
C277 H300 0.950 1_455 S
C278 C277 1.349 . S
C278 C290 1.349 . S
C279 C277 1.327 . S
C279 C295 1.429 . S
C279 H301 0.950 1_455 S
C280 H276 0.949 . S
C280 C288 1.574 . S
C280 C296 1.368 . S
H281 C289 0.950 1_655 S
H282 C287 0.950 1_655 S
H283 C288 0.949 . S
H284 C290 0.950 . S
H285 C291 0.950 . S
H286 C292 0.949 1_655 S
C287 H282 0.950 1_455 S
C287 C289 1.327 . S
C287 C293 1.429 . S
C288 C280 1.574 . S
C288 H283 0.949 . S
C288 C294 1.368 . S
C289 C273 1.349 . S
C289 H281 0.950 1_455 S
C289 C287 1.327 . S
C290 C278 1.349 . S
C290 H284 0.950 . S
C290 C291 1.327 . S
C291 H285 0.950 . S
C291 C290 1.327 . S
C291 C295 1.429 . S
C292 C275 1.574 . S
C292 H286 0.949 1_455 S
C292 C296 1.368 . S
C293 C274 1.429 . S
C293 C287 1.429 . S
C293 C294 1.523 . S
C294 C275 1.368 . S
C294 C288 1.368 . S
C294 C293 1.523 . S
C295 C279 1.429 . S
C295 C291 1.429 . S
C295 C296 1.523 . S
C296 C280 1.368 . S
C296 C292 1.368 . S
C296 C295 1.523 . S
H297 C272 0.950 . S
H298 C274 0.950 . S
H299 C275 0.949 1_655 S
H300 C277 0.950 1_655 S
H301 C279 0.950 1_655 S
C302 C303 1.349 . S
C302 C304 1.327 . S
C302 H327 0.950 . S
C303 C302 1.349 . S
C303 C319 1.349 . S
C304 C302 1.327 . S
C304 C323 1.429 . S
C304 H328 0.950 . S
C305 C322 1.574 . S
C305 C324 1.368 . S
C305 H329 0.949 . S
H306 C310 0.949 . S
C307 C308 1.349 . S
C307 C309 1.327 . S
C307 H330 0.950 . S
C308 C307 1.349 . S
C308 C320 1.349 . S
C309 C307 1.327 . S
C309 C325 1.429 . S
C309 H331 0.950 . S
C310 H306 0.949 . S
C310 C318 1.574 . S
C310 C326 1.368 . S
H311 C319 0.950 . S
H312 C317 0.950 . S
H313 C318 0.949 . S
H314 C320 0.950 . S
H315 C321 0.950 . S
H316 C322 0.949 . S
C317 H312 0.950 . S
C317 C319 1.327 . S
C317 C323 1.429 . S
C318 C310 1.574 . S
C318 H313 0.949 . S
C318 C324 1.368 . S
C319 C303 1.349 . S
C319 H311 0.950 . S
C319 C317 1.327 . S
C320 C308 1.349 . S
C320 H314 0.950 . S
C320 C321 1.327 . S
C321 H315 0.950 . S
C321 C320 1.327 . S
C321 C325 1.429 . S
C322 C305 1.574 . S
C322 H316 0.949 . S
C322 C326 1.368 . S
C323 C304 1.429 . S
C323 C317 1.429 . S
C323 C324 1.523 . S
C324 C305 1.368 . S
C324 C318 1.368 . S
C324 C323 1.523 . S
C325 C309 1.429 . S
C325 C321 1.429 . S
C325 C326 1.523 . S
C326 C310 1.368 . S
C326 C322 1.368 . S
C326 C325 1.523 . S
H327 C302 0.950 . S
H328 C304 0.950 . S
H329 C305 0.949 . S
H330 C307 0.950 . S
H331 C309 0.950 . S
C332 C333 1.349 . S
C332 C334 1.327 . S
C332 H357 0.950 1_455 S
C333 C332 1.349 . S
C333 C349 1.349 . S
C334 C332 1.327 . S
C334 C353 1.429 . S
C334 H358 0.955 . S
C335 C352 1.574 1_556 S
C335 C354 1.368 . S
C335 H359 0.949 . S
H336 C340 0.949 . S
C337 C338 1.349 . S
C337 C339 1.327 . S
C337 H360 0.950 . S
C338 C337 1.349 . S
C338 C350 1.349 . S
C339 C337 1.327 . S
C339 C355 1.429 . S
C339 H361 0.950 . S
C340 H336 0.949 . S
C340 C348 1.574 1_554 S
C340 C356 1.368 . S
H341 C349 0.950 . S
H342 C347 0.950 . S
H343 C348 0.949 . S
H344 C350 0.950 . S
H345 C351 0.950 . S
H346 C352 0.949 . S
C347 H342 0.950 . S
C347 C349 1.327 . S
C347 C353 1.429 . S
C348 C340 1.574 1_556 S
C348 H343 0.949 . S
C348 C354 1.368 . S
C349 C333 1.349 . S
C349 H341 0.950 . S
C349 C347 1.327 . S
C350 C338 1.349 . S
C350 H344 0.950 . S
C350 C351 1.327 . S
C351 H345 0.950 . S
C351 C350 1.327 . S
C351 C355 1.429 . S
C352 C335 1.574 1_554 S
C352 H346 0.949 . S
C352 C356 1.368 . S
C353 C334 1.429 . S
C353 C347 1.429 . S
C353 C354 1.523 . S
C354 C335 1.368 . S
C354 C348 1.368 . S
C354 C353 1.523 . S
C355 C339 1.429 . S
C355 C351 1.429 . S
C355 C356 1.523 . S
C356 C340 1.368 . S
C356 C352 1.368 . S
C356 C355 1.523 . S
H357 C332 0.950 1_655 S
H358 C334 0.955 . S
H359 C335 0.949 . S
H360 C337 0.950 . S
H361 C339 0.950 . S
C362 C363 1.349 . S
C362 C364 1.327 . S
C362 H387 0.950 . S
C363 C362 1.349 . S
C363 C379 1.349 . S
C364 C362 1.327 . S
C364 C383 1.429 . S
C364 H388 0.950 . S
C365 C382 1.574 . S
C365 C384 1.368 . S
C365 H389 0.949 . S
H366 C370 0.949 . S
C367 C368 1.349 . S
C367 C369 1.327 . S
C367 H390 0.950 . S
C368 C367 1.349 . S
C368 C380 1.349 . S
C369 C367 1.327 . S
C369 C385 1.429 . S
C369 H391 0.950 . S
C370 H366 0.949 . S
C370 C378 1.574 . S
C370 C386 1.368 . S
H371 C379 0.950 . S
H372 C377 0.950 . S
H373 C378 0.949 . S
H374 C380 0.950 . S
H375 C381 0.950 . S
H376 C382 0.949 . S
C377 H372 0.950 . S
C377 C379 1.327 . S
C377 C383 1.429 . S
C378 C370 1.574 . S
C378 H373 0.949 . S
C378 C384 1.368 . S
C379 C363 1.349 . S
C379 H371 0.950 . S
C379 C377 1.327 . S
C380 C368 1.349 . S
C380 H374 0.950 . S
C380 C381 1.327 . S
C381 H375 0.950 . S
C381 C380 1.327 . S
C381 C385 1.429 . S
C382 C365 1.574 . S
C382 H376 0.949 . S
C382 C386 1.368 . S
C383 C364 1.429 . S
C383 C377 1.429 . S
C383 C384 1.523 . S
C384 C365 1.368 . S
C384 C378 1.368 . S
C384 C383 1.523 . S
C385 C369 1.429 . S
C385 C381 1.429 . S
C385 C386 1.523 . S
C386 C370 1.368 . S
C386 C382 1.368 . S
C386 C385 1.523 . S
H387 C362 0.950 . S
H388 C364 0.950 . S
H389 C365 0.949 . S
H390 C367 0.950 . S
H391 C369 0.950 . S
C392 C393 1.349 . S
C392 C394 1.327 . S
C392 H417 0.950 . S
C393 C392 1.349 . S
C393 C409 1.349 . S
C394 C392 1.327 . S
C394 C413 1.429 . S
C394 H418 0.950 . S
C395 C412 1.574 . S
C395 C414 1.368 . S
C395 H419 0.949 . S
H396 C400 0.949 . S
C397 C398 1.349 . S
C397 C399 1.327 . S
C397 H420 0.950 . S
C398 C397 1.349 . S
C398 C410 1.349 . S
C399 C397 1.327 . S
C399 C415 1.429 . S
C399 H421 0.950 . S
C400 H396 0.949 . S
C400 C408 1.574 . S
C400 C416 1.368 . S
H401 C409 0.950 . S
H402 C407 0.950 . S
H403 C408 0.949 . S
H404 C410 0.950 . S
H405 C411 0.950 . S
H406 C412 0.949 . S
C407 H402 0.950 . S
C407 C409 1.327 . S
C407 C413 1.429 . S
C408 C400 1.574 . S
C408 H403 0.949 . S
C408 C414 1.368 . S
C409 C393 1.349 . S
C409 H401 0.950 . S
C409 C407 1.327 . S
C410 C398 1.349 . S
C410 H404 0.950 . S
C410 C411 1.327 . S
C411 H405 0.950 . S
C411 C410 1.327 . S
C411 C415 1.429 . S
C412 C395 1.574 . S
C412 H406 0.949 . S
C412 C416 1.368 . S
C413 C394 1.429 . S
C413 C407 1.429 . S
C413 C414 1.523 . S
C414 C395 1.368 . S
C414 C408 1.368 . S
C414 C413 1.523 . S
C415 C399 1.429 . S
C415 C411 1.429 . S
C415 C416 1.523 . S
C416 C400 1.368 . S
C416 C412 1.368 . S
C416 C415 1.523 . S
H417 C392 0.950 . S
H418 C394 0.950 . S
H419 C395 0.949 . S
H420 C397 0.950 . S
H421 C399 0.950 . S
C422 C423 1.349 . S
C422 C424 1.327 . S
C422 H447 0.950 . S
C423 C422 1.349 . S
C423 C439 1.349 . S
C424 C422 1.327 . S
C424 C443 1.429 . S
C424 H448 0.950 . S
C425 C442 1.574 . S
C425 C444 1.368 . S
C425 H449 0.949 1_455 S
H426 C430 0.949 . S
C427 C428 1.349 . S
C427 C429 1.327 . S
C427 H450 0.950 1_455 S
C428 C427 1.349 . S
C428 C440 1.349 . S
C429 C427 1.327 . S
C429 C445 1.429 . S
C429 H451 0.950 1_455 S
C430 H426 0.949 . S
C430 C438 1.574 . S
C430 C446 1.368 . S
H431 C439 0.950 1_655 S
H432 C437 0.950 1_655 S
H433 C438 0.949 . S
H434 C440 0.950 . S
H435 C441 0.950 . S
H436 C442 0.949 1_655 S
C437 H432 0.950 1_455 S
C437 C439 1.327 . S
C437 C443 1.429 . S
C438 C430 1.574 . S
C438 H433 0.949 . S
C438 C444 1.368 . S
C439 C423 1.349 . S
C439 H431 0.950 1_455 S
C439 C437 1.327 . S
C440 C428 1.349 . S
C440 H434 0.950 . S
C440 C441 1.327 . S
C441 H435 0.950 . S
C441 C440 1.327 . S
C441 C445 1.429 . S
C442 C425 1.574 . S
C442 H436 0.949 1_455 S
C442 C446 1.368 . S
C443 C424 1.429 . S
C443 C437 1.429 . S
C443 C444 1.523 . S
C444 C425 1.368 . S
C444 C438 1.368 . S
C444 C443 1.523 . S
C445 C429 1.429 . S
C445 C441 1.429 . S
C445 C446 1.523 . S
C446 C430 1.368 . S
C446 C442 1.368 . S
C446 C445 1.523 . S
H447 C422 0.950 . S
H448 C424 0.950 . S
H449 C425 0.949 1_655 S
H450 C427 0.950 1_655 S
H451 C429 0.950 1_655 S
C213 C22 1.500 . S
C218 C29 1.500 . S
C243 C91 1.500 . S
C248 C92 1.500 . S
C273 C128 1.500 . S
C278 C135 1.500 . S
C303 C197 1.500 . S
C308 C198 1.500 . S
C333 C144 1.509 . S
C338 C39 1.509 . S
C363 C181 1.505 . S
C368 C82 1.505 . S
C393 C188 1.506 . S
C398 C38 1.506 . S
C423 C75 1.506 . S
C428 C145 1.506 . S
