# Generated by pormake.
# Topology umd, (4)-cn, num edge types: 1
# Building blocks:
#     Node 0, Type 0, BuildingBlock: QUQFOY_clean_sbu_3, # of connection points: 4
#     Node 1, Type 0, BuildingBlock: QUQFOY_clean_sbu_3, # of connection points: 4
#     Node 2, Type 0, BuildingBlock: QUQFOY_clean_sbu_3, # of connection points: 4
#     Node 3, Type 0, BuildingBlock: QUQFOY_clean_sbu_3, # of connection points: 4
#     Node 4, Type 0, BuildingBlock: QUQFOY_clean_sbu_3, # of connection points: 4
#     Node 5, Type 0, BuildingBlock: QUQFOY_clean_sbu_3, # of connection points: 4
#     Node 6, Type 0, BuildingBlock: QUQFOY_clean_sbu_3, # of connection points: 4
#     Node 7, Type 0, BuildingBlock: QUQFOY_clean_sbu_3, # of connection points: 4
#     Node 8, Type 0, BuildingBlock: QUQFOY_clean_sbu_3, # of connection points: 4
#     Node 9, Type 0, BuildingBlock: QUQFOY_clean_sbu_3, # of connection points: 4
#     Node 10, Type 0, BuildingBlock: QUQFOY_clean_sbu_3, # of connection points: 4
#     Node 11, Type 0, BuildingBlock: QUQFOY_clean_sbu_3, # of connection points: 4
#     Node 12, Type 0, BuildingBlock: QUQFOY_clean_sbu_3, # of connection points: 4
#     Node 13, Type 0, BuildingBlock: QUQFOY_clean_sbu_3, # of connection points: 4
#     Node 14, Type 0, BuildingBlock: QUQFOY_clean_sbu_3, # of connection points: 4
#     Node 15, Type 0, BuildingBlock: QUQFOY_clean_sbu_3, # of connection points: 4
#     Edge 16, Type (0, 0), BuildingBlock: EYOCIG_clean_linker_4, # of connection points: 2
#     Edge 17, Type (0, 0), BuildingBlock: EYOCIG_clean_linker_4, # of connection points: 2
#     Edge 18, Type (0, 0), BuildingBlock: EYOCIG_clean_linker_4, # of connection points: 2
#     Edge 19, Type (0, 0), BuildingBlock: EYOCIG_clean_linker_4, # of connection points: 2
#     Edge 20, Type (0, 0), BuildingBlock: EYOCIG_clean_linker_4, # of connection points: 2
#     Edge 21, Type (0, 0), BuildingBlock: EYOCIG_clean_linker_4, # of connection points: 2
#     Edge 22, Type (0, 0), BuildingBlock: EYOCIG_clean_linker_4, # of connection points: 2
#     Edge 23, Type (0, 0), BuildingBlock: EYOCIG_clean_linker_4, # of connection points: 2
#     Edge 24, Type (0, 0), BuildingBlock: EYOCIG_clean_linker_4, # of connection points: 2
#     Edge 25, Type (0, 0), BuildingBlock: EYOCIG_clean_linker_4, # of connection points: 2
#     Edge 26, Type (0, 0), BuildingBlock: EYOCIG_clean_linker_4, # of connection points: 2
#     Edge 27, Type (0, 0), BuildingBlock: EYOCIG_clean_linker_4, # of connection points: 2
#     Edge 28, Type (0, 0), BuildingBlock: EYOCIG_clean_linker_4, # of connection points: 2
#     Edge 29, Type (0, 0), BuildingBlock: EYOCIG_clean_linker_4, # of connection points: 2
#     Edge 30, Type (0, 0), BuildingBlock: EYOCIG_clean_linker_4, # of connection points: 2
#     Edge 31, Type (0, 0), BuildingBlock: EYOCIG_clean_linker_4, # of connection points: 2
#     Edge 32, Type (0, 0), BuildingBlock: EYOCIG_clean_linker_4, # of connection points: 2
#     Edge 33, Type (0, 0), BuildingBlock: EYOCIG_clean_linker_4, # of connection points: 2
#     Edge 34, Type (0, 0), BuildingBlock: EYOCIG_clean_linker_4, # of connection points: 2
#     Edge 35, Type (0, 0), BuildingBlock: EYOCIG_clean_linker_4, # of connection points: 2
#     Edge 36, Type (0, 0), BuildingBlock: EYOCIG_clean_linker_4, # of connection points: 2
#     Edge 37, Type (0, 0), BuildingBlock: EYOCIG_clean_linker_4, # of connection points: 2
#     Edge 38, Type (0, 0), BuildingBlock: EYOCIG_clean_linker_4, # of connection points: 2
#     Edge 39, Type (0, 0), BuildingBlock: EYOCIG_clean_linker_4, # of connection points: 2
#     Edge 40, Type (0, 0), BuildingBlock: EYOCIG_clean_linker_4, # of connection points: 2
#     Edge 41, Type (0, 0), BuildingBlock: EYOCIG_clean_linker_4, # of connection points: 2
#     Edge 42, Type (0, 0), BuildingBlock: EYOCIG_clean_linker_4, # of connection points: 2
#     Edge 43, Type (0, 0), BuildingBlock: EYOCIG_clean_linker_4, # of connection points: 2
#     Edge 44, Type (0, 0), BuildingBlock: EYOCIG_clean_linker_4, # of connection points: 2
#     Edge 45, Type (0, 0), BuildingBlock: EYOCIG_clean_linker_4, # of connection points: 2
#     Edge 46, Type (0, 0), BuildingBlock: EYOCIG_clean_linker_4, # of connection points: 2
#     Edge 47, Type (0, 0), BuildingBlock: EYOCIG_clean_linker_4, # of connection points: 2
# Relax obj value: 0.098
# Max RMSD: 0.236
# Mean RMSD: 0.236
data_MOF--net-umd--node1-QUQFOY_clean_sbu_3--edge1-EYOCIG_clean_linker_4
_symmetry_space_group_name_H-M    P1
_symmetry_Int_Tables_number       1
_symmetry_cell_setting            triclinic
loop_
_symmetry_equiv_pos_as_xyz
'x, y, z'
_cell_length_a     33.041722
_cell_length_b     33.123794
_cell_length_c     47.820365
_cell_angle_alpha  90.014636
_cell_angle_beta   90.034249
_cell_angle_gamma 89.95843
loop_
_atom_site_label
_atom_site_type_symbol
_atom_site_fract_x
_atom_site_fract_y
_atom_site_fract_z
_atom_type_partial_charge
C0 C 0.18802 0.47969 0.14602 0.0
O1 O 0.18742 0.51323 0.13329 0.0
Cd2 Cd 0.16648 0.5164 0.08489 0.0
O3 O 0.18125 0.44691 0.13307 0.0
Cd4 Cd 0.16877 0.42344 0.08474 0.0
C5 C 0.07596 0.46627 0.08824 0.0
O6 O 0.20499 0.47256 0.05461 0.0
O7 O 0.15972 0.43407 0.03528 0.0
O8 O 0.22602 0.37817 0.09044 0.0
C9 C 0.18781 0.45973 0.03253 0.0
O10 O 0.09456 0.49947 0.08471 0.0
C11 C 0.20676 0.34582 0.08573 0.0
O12 O 0.09506 0.43297 0.09061 0.0
O13 O 0.16905 0.34875 0.08082 0.0
C14 C 0.46912 0.18665 0.64586 0.0
O15 O 0.43552 0.18614 0.63307 0.0
Cd16 Cd 0.43245 0.16521 0.58468 0.0
O17 O 0.502 0.17981 0.63297 0.0
Cd18 Cd 0.52567 0.16735 0.5847 0.0
C19 C 0.48271 0.07484 0.5882 0.0
O20 O 0.4765 0.20351 0.55446 0.0
O21 O 0.51515 0.15828 0.53522 0.0
O22 O 0.57094 0.22446 0.59047 0.0
C23 C 0.48941 0.18633 0.53241 0.0
O24 O 0.44944 0.09345 0.5846 0.0
C25 C 0.60342 0.20527 0.58582 0.0
O26 O 0.5161 0.09383 0.5906 0.0
O27 O 0.60057 0.16765 0.58092 0.0
C28 C 0.76183 0.46739 0.14587 0.0
O29 O 0.76242 0.4339 0.13306 0.0
Cd30 Cd 0.7833 0.43094 0.08466 0.0
O31 O 0.76859 0.50023 0.133 0.0
Cd32 Cd 0.78102 0.52392 0.08474 0.0
C33 C 0.87383 0.48105 0.08818 0.0
O34 O 0.74477 0.47493 0.05448 0.0
O35 O 0.79004 0.51347 0.03525 0.0
O36 O 0.72381 0.56922 0.09049 0.0
C37 C 0.76193 0.48783 0.03244 0.0
O38 O 0.85522 0.44786 0.08455 0.0
C39 C 0.7431 0.60157 0.08585 0.0
O40 O 0.85473 0.51434 0.09062 0.0
O41 O 0.7808 0.59863 0.08097 0.0
C42 C 0.48088 0.76141 0.64593 0.0
O43 O 0.51453 0.76191 0.63324 0.0
Cd44 Cd 0.51778 0.78284 0.58486 0.0
O45 O 0.44805 0.76828 0.63295 0.0
Cd46 Cd 0.42457 0.78076 0.58462 0.0
C47 C 0.46758 0.87325 0.58824 0.0
O48 O 0.47382 0.74455 0.55451 0.0
O49 O 0.43524 0.78976 0.53517 0.0
O50 O 0.37928 0.72367 0.59031 0.0
C51 C 0.46099 0.76171 0.53242 0.0
O52 O 0.50085 0.85461 0.58473 0.0
C53 C 0.34681 0.74286 0.58561 0.0
O54 O 0.43417 0.85428 0.59055 0.0
O55 O 0.34967 0.78048 0.5807 0.0
C56 C 0.1882 0.46763 0.2851 0.0
O57 O 0.18771 0.43411 0.29787 0.0
Cd58 Cd 0.16683 0.43102 0.34626 0.0
O59 O 0.18136 0.50042 0.29803 0.0
Cd60 Cd 0.16888 0.52398 0.34632 0.0
C61 C 0.07619 0.48105 0.34281 0.0
O62 O 0.20523 0.47497 0.37653 0.0
O63 O 0.15984 0.51344 0.39579 0.0
O64 O 0.22599 0.56935 0.34063 0.0
C65 C 0.18801 0.48781 0.39859 0.0
O66 O 0.09486 0.44787 0.34639 0.0
C67 C 0.20663 0.60167 0.3453 0.0
O68 O 0.0952 0.51436 0.34042 0.0
O69 O 0.16893 0.59868 0.35018 0.0
C70 C 0.48113 0.18653 0.78494 0.0
O71 O 0.51476 0.18583 0.79769 0.0
Cd72 Cd 0.5179 0.16492 0.84607 0.0
O73 O 0.44825 0.17984 0.79787 0.0
Cd74 Cd 0.42467 0.1674 0.84616 0.0
C75 C 0.46742 0.07475 0.84262 0.0
O76 O 0.474 0.20343 0.87633 0.0
O77 O 0.43532 0.15837 0.89563 0.0
O78 O 0.37934 0.22455 0.84048 0.0
C79 C 0.46112 0.18632 0.8984 0.0
O80 O 0.50075 0.09322 0.84619 0.0
C81 C 0.34689 0.20537 0.84515 0.0
O82 O 0.43408 0.09387 0.84024 0.0
O83 O 0.34979 0.16774 0.85003 0.0
C84 C 0.76198 0.47912 0.28497 0.0
O85 O 0.76247 0.51266 0.29772 0.0
Cd86 Cd 0.78338 0.51591 0.34612 0.0
O87 O 0.76886 0.44635 0.29791 0.0
Cd88 Cd 0.78147 0.42291 0.34623 0.0
C89 C 0.87409 0.466 0.34276 0.0
O90 O 0.74501 0.47195 0.37634 0.0
O91 O 0.79041 0.4336 0.39571 0.0
O92 O 0.72448 0.37739 0.34053 0.0
C93 C 0.76221 0.4592 0.39844 0.0
O94 O 0.85537 0.49916 0.34631 0.0
C95 C 0.74391 0.34513 0.34524 0.0
O96 O 0.85513 0.43266 0.34038 0.0
O97 O 0.78161 0.34821 0.35015 0.0
C98 C 0.46822 0.76131 0.78497 0.0
O99 O 0.43457 0.76192 0.79767 0.0
Cd100 Cd 0.43139 0.78284 0.84605 0.0
O101 O 0.50106 0.76806 0.79795 0.0
Cd102 Cd 0.52456 0.78048 0.84627 0.0
C103 C 0.48173 0.87308 0.84267 0.0
O104 O 0.47528 0.7444 0.8764 0.0
O105 O 0.51389 0.78954 0.89572 0.0
O106 O 0.56992 0.72336 0.8406 0.0
C107 C 0.48814 0.76154 0.89848 0.0
O108 O 0.44842 0.85457 0.8462 0.0
C109 C 0.60235 0.74255 0.84532 0.0
O110 O 0.51509 0.85399 0.84035 0.0
O111 O 0.59943 0.78017 0.85023 0.0
C112 C 0.76166 0.46822 0.78495 0.0
O113 O 0.76225 0.43467 0.79767 0.0
Cd114 Cd 0.78321 0.43147 0.84607 0.0
O115 O 0.76845 0.50099 0.79791 0.0
Cd116 Cd 0.78095 0.52443 0.84624 0.0
C117 C 0.87374 0.48158 0.84271 0.0
O118 O 0.74471 0.47531 0.87636 0.0
O119 O 0.79 0.51377 0.8957 0.0
O120 O 0.72374 0.56975 0.84056 0.0
C121 C 0.7619 0.48811 0.89845 0.0
O122 O 0.85514 0.44838 0.84624 0.0
C123 C 0.74302 0.60208 0.84528 0.0
O124 O 0.85465 0.51489 0.84035 0.0
O125 O 0.78073 0.59912 0.85019 0.0
C126 C 0.48081 0.76123 0.28496 0.0
O127 O 0.51446 0.76179 0.29767 0.0
Cd128 Cd 0.51769 0.78277 0.34605 0.0
O129 O 0.44798 0.76804 0.29792 0.0
Cd130 Cd 0.4245 0.78049 0.34623 0.0
C131 C 0.46729 0.87306 0.34261 0.0
O132 O 0.47385 0.74442 0.37639 0.0
O133 O 0.43521 0.78961 0.39568 0.0
O134 O 0.37931 0.7233 0.34055 0.0
C135 C 0.46099 0.7616 0.39846 0.0
O136 O 0.5006 0.8545 0.34615 0.0
C137 C 0.34682 0.74244 0.34526 0.0
O138 O 0.43392 0.85402 0.34028 0.0
O139 O 0.34962 0.78007 0.35015 0.0
C140 C 0.18797 0.48007 0.7851 0.0
O141 O 0.18741 0.51358 0.79788 0.0
Cd142 Cd 0.16646 0.51666 0.84627 0.0
O143 O 0.18114 0.44727 0.79799 0.0
Cd144 Cd 0.16859 0.42368 0.84626 0.0
C145 C 0.07586 0.46668 0.84275 0.0
O146 O 0.20492 0.47266 0.87649 0.0
O147 O 0.15959 0.4342 0.89574 0.0
O148 O 0.22571 0.37827 0.84054 0.0
C149 C 0.18773 0.45982 0.89854 0.0
O150 O 0.09451 0.49985 0.84636 0.0
C151 C 0.20638 0.34596 0.84519 0.0
O152 O 0.09491 0.43336 0.84035 0.0
O153 O 0.16867 0.34897 0.85007 0.0
C154 C 0.46944 0.18656 0.2849 0.0
O155 O 0.4358 0.18615 0.29761 0.0
Cd156 Cd 0.43252 0.16519 0.34598 0.0
O157 O 0.50226 0.17959 0.29787 0.0
Cd158 Cd 0.52571 0.16701 0.34619 0.0
C159 C 0.48245 0.07465 0.34257 0.0
O160 O 0.47659 0.20335 0.37634 0.0
O161 O 0.51502 0.158 0.39564 0.0
O162 O 0.5712 0.22394 0.34054 0.0
C163 C 0.48938 0.18614 0.39841 0.0
O164 O 0.44923 0.09336 0.3461 0.0
C165 C 0.60359 0.20464 0.34524 0.0
O166 O 0.5159 0.09353 0.34025 0.0
O167 O 0.6006 0.16702 0.35013 0.0
C168 C 0.76169 0.48021 0.64588 0.0
O169 O 0.76217 0.5137 0.63308 0.0
Cd170 Cd 0.78315 0.5167 0.5847 0.0
O171 O 0.76861 0.44739 0.633 0.0
Cd172 Cd 0.78124 0.42373 0.58474 0.0
C173 C 0.87387 0.46682 0.58826 0.0
O174 O 0.74484 0.47262 0.55446 0.0
O175 O 0.79029 0.43416 0.53527 0.0
O176 O 0.72419 0.3783 0.59046 0.0
C177 C 0.76209 0.45974 0.53243 0.0
O178 O 0.85515 0.49997 0.58463 0.0
C179 C 0.74361 0.34599 0.58584 0.0
O180 O 0.8549 0.43349 0.59068 0.0
O181 O 0.78131 0.34902 0.58098 0.0
C182 C 0.46834 0.76124 0.1459 0.0
O183 O 0.43472 0.76194 0.13316 0.0
Cd184 Cd 0.4316 0.78287 0.08477 0.0
O185 O 0.50122 0.76792 0.13297 0.0
Cd186 Cd 0.52483 0.78031 0.08469 0.0
C187 C 0.48215 0.873 0.08824 0.0
O188 O 0.47548 0.74433 0.05451 0.0
O189 O 0.51423 0.78934 0.03522 0.0
O190 O 0.57007 0.72309 0.09042 0.0
C191 C 0.48839 0.76141 0.03244 0.0
O192 O 0.44881 0.85456 0.08467 0.0
C193 C 0.60255 0.74222 0.08576 0.0
O194 O 0.51547 0.85385 0.09061 0.0
O195 O 0.59971 0.77984 0.08085 0.0
C196 C 0.18804 0.46823 0.64601 0.0
O197 O 0.18745 0.43469 0.63327 0.0
Cd198 Cd 0.16653 0.43153 0.58487 0.0
O199 O 0.18125 0.50103 0.63308 0.0
Cd200 Cd 0.16873 0.52454 0.58476 0.0
C201 C 0.07598 0.48172 0.58826 0.0
O202 O 0.20505 0.47539 0.55465 0.0
O203 O 0.15976 0.51387 0.53529 0.0
O204 O 0.22586 0.56991 0.59047 0.0
C205 C 0.18788 0.48819 0.53256 0.0
O206 O 0.0946 0.44851 0.58471 0.0
C207 C 0.20651 0.60222 0.58574 0.0
O208 O 0.09504 0.51501 0.59064 0.0
O209 O 0.16881 0.59923 0.58083 0.0
C210 C 0.48178 0.18652 0.14586 0.0
O211 O 0.51539 0.18585 0.13311 0.0
Cd212 Cd 0.51841 0.16486 0.08473 0.0
O213 O 0.44889 0.17981 0.13293 0.0
Cd214 Cd 0.42523 0.16734 0.08464 0.0
C215 C 0.46797 0.07468 0.08821 0.0
O216 O 0.47448 0.20335 0.05445 0.0
O217 O 0.43576 0.15824 0.03517 0.0
O218 O 0.37993 0.22452 0.09034 0.0
C219 C 0.46154 0.18622 0.03239 0.0
O220 O 0.50129 0.09315 0.08464 0.0
C221 C 0.34747 0.20535 0.08566 0.0
O222 O 0.43464 0.09381 0.09058 0.0
O223 O 0.35034 0.16772 0.08078 0.0
C224 C -0.00388 0.47079 0.09 0.0
C225 C 0.03246 0.46701 0.08936 0.0
C226 C 0.95367 0.47651 0.08999 0.0
C227 C 0.91732 0.48029 0.08933 0.0
C228 C 0.47225 0.95288 0.59004 0.0
C229 C 0.46838 0.91664 0.58938 0.0
C230 C 0.47808 -0.00479 0.59003 0.0
C231 C 0.48193 0.03145 0.58936 0.0
C232 C -0.00364 0.47645 0.341 0.0
C233 C 0.03269 0.48026 0.34167 0.0
C234 C 0.95392 0.47068 0.341 0.0
C235 C 0.91759 0.46685 0.34164 0.0
C236 C 0.47734 0.95273 0.84085 0.0
C237 C 0.48105 0.91647 0.84152 0.0
C238 C 0.47174 -0.00491 0.84083 0.0
C239 C 0.46806 0.03136 0.84149 0.0
C240 C 0.95358 0.47704 0.84092 0.0
C241 C 0.91723 0.48083 0.84158 0.0
C242 C -0.00397 0.47131 0.84093 0.0
C243 C 0.03237 0.4675 0.8416 0.0
C244 C 0.47764 -0.00498 0.34076 0.0
C245 C 0.48155 0.03126 0.34142 0.0
C246 C 0.47182 0.95269 0.34076 0.0
C247 C 0.468 0.91645 0.34144 0.0
C248 C 0.9537 0.47149 0.59007 0.0
C249 C 0.91736 0.46767 0.58941 0.0
C250 C -0.00386 0.47722 0.59007 0.0
C251 C 0.03248 0.48099 0.58941 0.0
C252 C 0.47229 -0.00497 0.09005 0.0
C253 C 0.46861 0.03129 0.08937 0.0
C254 C 0.47788 0.95266 0.09005 0.0
C255 C 0.48154 0.91639 0.08939 0.0
C256 C 0.1973 0.47157 0.23027 0.0
C257 C 0.19328 0.46866 0.25527 0.0
C258 C 0.19726 0.47567 0.20085 0.0
C259 C 0.19317 0.47861 0.17585 0.0
C260 C 0.47304 0.19579 0.70069 0.0
C261 C 0.47013 0.19175 0.6757 0.0
C262 C 0.47714 0.19576 0.73012 0.0
C263 C 0.48007 0.19167 0.75512 0.0
C264 C 0.75271 0.47116 0.20071 0.0
C265 C 0.75675 0.46833 0.17571 0.0
C266 C 0.75275 0.47516 0.23014 0.0
C267 C 0.75682 0.47804 0.25514 0.0
C268 C 0.47239 0.75217 0.73015 0.0
C269 C 0.46935 0.75621 0.75514 0.0
C270 C 0.47666 0.75219 0.70074 0.0
C271 C 0.47972 0.75626 0.67575 0.0
C272 C 0.75246 0.47225 0.73012 0.0
C273 C 0.75653 0.46931 0.75512 0.0
C274 C 0.75246 0.47634 0.7007 0.0
C275 C 0.75654 0.47923 0.67571 0.0
C276 C 0.47664 0.75204 0.23014 0.0
C277 C 0.47967 0.7561 0.25513 0.0
C278 C 0.47242 0.75205 0.20072 0.0
C279 C 0.46943 0.75611 0.17573 0.0
C280 C 0.1972 0.4762 0.73028 0.0
C281 C 0.19312 0.47907 0.75527 0.0
C282 C 0.19721 0.47217 0.70085 0.0
C283 C 0.19316 0.46929 0.67585 0.0
C284 C 0.4736 0.19576 0.23009 0.0
C285 C 0.47058 0.1917 0.25508 0.0
C286 C 0.47779 0.19575 0.20068 0.0
C287 C 0.48075 0.19167 0.17568 0.0
C288 C 0.20438 0.47824 0.95077 0.0
C289 C 0.19973 0.47248 0.92606 0.0
C290 C 0.2044 0.47823 -0.01967 0.0
C291 C 0.19978 0.47244 0.00503 0.0
C292 C 0.47091 0.2028 0.45062 0.0
C293 C 0.4767 0.19815 0.42591 0.0
C294 C 0.47091 0.20284 0.48017 0.0
C295 C 0.4767 0.19824 0.50488 0.0
C296 C 0.74531 0.46949 -0.01981 0.0
C297 C 0.74995 0.4752 0.00491 0.0
C298 C 0.74531 0.46955 0.95064 0.0
C299 C 0.74993 0.47537 0.92594 0.0
C300 C 0.47958 0.74512 0.48023 0.0
C301 C 0.47375 0.74975 0.50493 0.0
C302 C 0.47958 0.74509 0.45067 0.0
C303 C 0.47377 0.74968 0.42597 0.0
C304 C 0.20461 0.46946 0.45083 0.0
C305 C 0.2 0.47517 0.42611 0.0
C306 C 0.20456 0.46955 0.48038 0.0
C307 C 0.19989 0.47541 0.50508 0.0
C308 C 0.47985 0.20278 0.9506 0.0
C309 C 0.47397 0.19819 0.9259 0.0
C310 C 0.47995 0.20276 -0.01984 0.0
C311 C 0.47421 0.19814 0.00487 0.0
C312 C 0.7455 0.47782 0.45061 0.0
C313 C 0.75018 0.47196 0.42592 0.0
C314 C 0.74547 0.47795 0.48017 0.0
C315 C 0.75009 0.4723 0.50489 0.0
C316 C 0.46969 0.74495 -0.01976 0.0
C317 C 0.47555 0.74953 0.00494 0.0
C318 C 0.46964 0.74496 0.95068 0.0
C319 C 0.47541 0.74958 0.92597 0.0
C320 C 0.24989 0.27868 0.08548 0.0
C321 C 0.22781 0.30776 0.0852 0.0
C322 C 0.2802 0.24843 0.08547 0.0
C323 C 0.30934 0.22638 0.08517 0.0
C324 C 0.7008 0.2787 0.58566 0.0
C325 C 0.72275 0.30786 0.58536 0.0
C326 C 0.67061 0.24838 0.58566 0.0
C327 C 0.64153 0.22629 0.58534 0.0
C328 C 0.70004 0.66876 0.08564 0.0
C329 C 0.72208 0.63965 0.08535 0.0
C330 C 0.66977 0.69905 0.08562 0.0
C331 C 0.64066 0.72114 0.0853 0.0
C332 C 0.24941 0.66945 0.58546 0.0
C333 C 0.22744 0.64031 0.5852 0.0
C334 C 0.27961 0.69977 0.58542 0.0
C335 C 0.3087 0.72185 0.58511 0.0
C336 C 0.27968 0.69925 0.3455 0.0
C337 C 0.30874 0.72137 0.34578 0.0
C338 C 0.2495 0.66892 0.34551 0.0
C339 C 0.22754 0.63977 0.3458 0.0
C340 C 0.27962 0.24844 0.84537 0.0
C341 C 0.30875 0.22638 0.84565 0.0
C342 C 0.24934 0.27872 0.84537 0.0
C343 C 0.22732 0.30785 0.84568 0.0
C344 C 0.67091 0.24753 0.34549 0.0
C345 C 0.64178 0.22552 0.34577 0.0
C346 C 0.70113 0.27783 0.34549 0.0
C347 C 0.72308 0.30698 0.34577 0.0
C348 C 0.69995 0.66926 0.84554 0.0
C349 C 0.72202 0.64016 0.84581 0.0
C350 C 0.66965 0.69951 0.84555 0.0
C351 C 0.6405 0.72155 0.84583 0.0
loop_
_geom_bond_atom_site_label_1
_geom_bond_atom_site_label_2
_geom_bond_distance
_geom_bond_site_symmetry_2
_ccdc_geom_bond_type
C0 O1 1.306 . S
C0 O3 1.160 . S
O1 C0 1.306 . S
O1 Cd2 2.228 . S
Cd2 O1 2.228 . S
Cd2 O6 2.273 . S
Cd2 O10 2.277 . S
O3 C0 1.160 . S
O3 Cd4 2.203 . S
Cd4 O3 2.203 . S
Cd4 O6 2.411 . S
Cd4 O7 2.333 . S
Cd4 O8 2.352 . S
Cd4 O12 2.277 . S
Cd4 O13 2.356 . S
C5 O10 1.209 . S
C5 O12 1.226 . S
O6 Cd2 2.273 . S
O6 Cd4 2.411 . S
O6 C9 1.320 . S
O7 Cd4 2.333 . S
O7 C9 1.214 . S
O8 Cd4 2.352 . S
O8 C11 1.258 . S
C9 O6 1.320 . S
C9 O7 1.214 . S
O10 Cd2 2.277 . S
O10 C5 1.209 . S
C11 O8 1.258 . S
C11 O13 1.282 . S
O12 Cd4 2.277 . S
O12 C5 1.226 . S
O13 Cd4 2.356 . S
O13 C11 1.282 . S
C14 O15 1.306 . S
C14 O17 1.160 . S
O15 C14 1.306 . S
O15 Cd16 2.228 . S
Cd16 O15 2.228 . S
Cd16 O20 2.273 . S
Cd16 O24 2.277 . S
O17 C14 1.160 . S
O17 Cd18 2.203 . S
Cd18 O17 2.203 . S
Cd18 O20 2.411 . S
Cd18 O21 2.333 . S
Cd18 O22 2.352 . S
Cd18 O26 2.277 . S
Cd18 O27 2.356 . S
C19 O24 1.209 . S
C19 O26 1.226 . S
O20 Cd16 2.273 . S
O20 Cd18 2.411 . S
O20 C23 1.320 . S
O21 Cd18 2.333 . S
O21 C23 1.214 . S
O22 Cd18 2.352 . S
O22 C25 1.258 . S
C23 O20 1.320 . S
C23 O21 1.214 . S
O24 Cd16 2.277 . S
O24 C19 1.209 . S
C25 O22 1.258 . S
C25 O27 1.282 . S
O26 Cd18 2.277 . S
O26 C19 1.226 . S
O27 Cd18 2.356 . S
O27 C25 1.282 . S
C28 O29 1.306 . S
C28 O31 1.160 . S
O29 C28 1.306 . S
O29 Cd30 2.228 . S
Cd30 O29 2.228 . S
Cd30 O34 2.273 . S
Cd30 O38 2.277 . S
O31 C28 1.160 . S
O31 Cd32 2.203 . S
Cd32 O31 2.203 . S
Cd32 O34 2.411 . S
Cd32 O35 2.333 . S
Cd32 O36 2.352 . S
Cd32 O40 2.277 . S
Cd32 O41 2.356 . S
C33 O38 1.209 . S
C33 O40 1.226 . S
O34 Cd30 2.273 . S
O34 Cd32 2.411 . S
O34 C37 1.320 . S
O35 Cd32 2.333 . S
O35 C37 1.214 . S
O36 Cd32 2.352 . S
O36 C39 1.258 . S
C37 O34 1.320 . S
C37 O35 1.214 . S
O38 Cd30 2.277 . S
O38 C33 1.209 . S
C39 O36 1.258 . S
C39 O41 1.282 . S
O40 Cd32 2.277 . S
O40 C33 1.226 . S
O41 Cd32 2.356 . S
O41 C39 1.282 . S
C42 O43 1.306 . S
C42 O45 1.160 . S
O43 C42 1.306 . S
O43 Cd44 2.228 . S
Cd44 O43 2.228 . S
Cd44 O48 2.273 . S
Cd44 O52 2.277 . S
O45 C42 1.160 . S
O45 Cd46 2.203 . S
Cd46 O45 2.203 . S
Cd46 O48 2.411 . S
Cd46 O49 2.333 . S
Cd46 O50 2.352 . S
Cd46 O54 2.277 . S
Cd46 O55 2.356 . S
C47 O52 1.209 . S
C47 O54 1.226 . S
O48 Cd44 2.273 . S
O48 Cd46 2.411 . S
O48 C51 1.320 . S
O49 Cd46 2.333 . S
O49 C51 1.214 . S
O50 Cd46 2.352 . S
O50 C53 1.258 . S
C51 O48 1.320 . S
C51 O49 1.214 . S
O52 Cd44 2.277 . S
O52 C47 1.209 . S
C53 O50 1.258 . S
C53 O55 1.282 . S
O54 Cd46 2.277 . S
O54 C47 1.226 . S
O55 Cd46 2.356 . S
O55 C53 1.282 . S
C56 O57 1.306 . S
C56 O59 1.160 . S
O57 C56 1.306 . S
O57 Cd58 2.228 . S
Cd58 O57 2.228 . S
Cd58 O62 2.273 . S
Cd58 O66 2.277 . S
O59 C56 1.160 . S
O59 Cd60 2.203 . S
Cd60 O59 2.203 . S
Cd60 O62 2.411 . S
Cd60 O63 2.333 . S
Cd60 O64 2.352 . S
Cd60 O68 2.277 . S
Cd60 O69 2.356 . S
C61 O66 1.209 . S
C61 O68 1.226 . S
O62 Cd58 2.273 . S
O62 Cd60 2.411 . S
O62 C65 1.320 . S
O63 Cd60 2.333 . S
O63 C65 1.214 . S
O64 Cd60 2.352 . S
O64 C67 1.258 . S
C65 O62 1.320 . S
C65 O63 1.214 . S
O66 Cd58 2.277 . S
O66 C61 1.209 . S
C67 O64 1.258 . S
C67 O69 1.282 . S
O68 Cd60 2.277 . S
O68 C61 1.226 . S
O69 Cd60 2.356 . S
O69 C67 1.282 . S
C70 O71 1.306 . S
C70 O73 1.160 . S
O71 C70 1.306 . S
O71 Cd72 2.228 . S
Cd72 O71 2.228 . S
Cd72 O76 2.273 . S
Cd72 O80 2.277 . S
O73 C70 1.160 . S
O73 Cd74 2.203 . S
Cd74 O73 2.203 . S
Cd74 O76 2.411 . S
Cd74 O77 2.333 . S
Cd74 O78 2.352 . S
Cd74 O82 2.277 . S
Cd74 O83 2.356 . S
C75 O80 1.209 . S
C75 O82 1.226 . S
O76 Cd72 2.273 . S
O76 Cd74 2.411 . S
O76 C79 1.320 . S
O77 Cd74 2.333 . S
O77 C79 1.214 . S
O78 Cd74 2.352 . S
O78 C81 1.258 . S
C79 O76 1.320 . S
C79 O77 1.214 . S
O80 Cd72 2.277 . S
O80 C75 1.209 . S
C81 O78 1.258 . S
C81 O83 1.282 . S
O82 Cd74 2.277 . S
O82 C75 1.226 . S
O83 Cd74 2.356 . S
O83 C81 1.282 . S
C84 O85 1.306 . S
C84 O87 1.160 . S
O85 C84 1.306 . S
O85 Cd86 2.228 . S
Cd86 O85 2.228 . S
Cd86 O90 2.273 . S
Cd86 O94 2.277 . S
O87 C84 1.160 . S
O87 Cd88 2.203 . S
Cd88 O87 2.203 . S
Cd88 O90 2.411 . S
Cd88 O91 2.333 . S
Cd88 O92 2.352 . S
Cd88 O96 2.277 . S
Cd88 O97 2.356 . S
C89 O94 1.209 . S
C89 O96 1.226 . S
O90 Cd86 2.273 . S
O90 Cd88 2.411 . S
O90 C93 1.320 . S
O91 Cd88 2.333 . S
O91 C93 1.214 . S
O92 Cd88 2.352 . S
O92 C95 1.258 . S
C93 O90 1.320 . S
C93 O91 1.214 . S
O94 Cd86 2.277 . S
O94 C89 1.209 . S
C95 O92 1.258 . S
C95 O97 1.282 . S
O96 Cd88 2.277 . S
O96 C89 1.226 . S
O97 Cd88 2.356 . S
O97 C95 1.282 . S
C98 O99 1.306 . S
C98 O101 1.160 . S
O99 C98 1.306 . S
O99 Cd100 2.228 . S
Cd100 O99 2.228 . S
Cd100 O104 2.273 . S
Cd100 O108 2.277 . S
O101 C98 1.160 . S
O101 Cd102 2.203 . S
Cd102 O101 2.203 . S
Cd102 O104 2.411 . S
Cd102 O105 2.333 . S
Cd102 O106 2.352 . S
Cd102 O110 2.277 . S
Cd102 O111 2.356 . S
C103 O108 1.209 . S
C103 O110 1.226 . S
O104 Cd100 2.273 . S
O104 Cd102 2.411 . S
O104 C107 1.320 . S
O105 Cd102 2.333 . S
O105 C107 1.214 . S
O106 Cd102 2.352 . S
O106 C109 1.258 . S
C107 O104 1.320 . S
C107 O105 1.214 . S
O108 Cd100 2.277 . S
O108 C103 1.209 . S
C109 O106 1.258 . S
C109 O111 1.282 . S
O110 Cd102 2.277 . S
O110 C103 1.226 . S
O111 Cd102 2.356 . S
O111 C109 1.282 . S
C112 O113 1.306 . S
C112 O115 1.160 . S
O113 C112 1.306 . S
O113 Cd114 2.228 . S
Cd114 O113 2.228 . S
Cd114 O118 2.273 . S
Cd114 O122 2.277 . S
O115 C112 1.160 . S
O115 Cd116 2.203 . S
Cd116 O115 2.203 . S
Cd116 O118 2.411 . S
Cd116 O119 2.333 . S
Cd116 O120 2.352 . S
Cd116 O124 2.277 . S
Cd116 O125 2.356 . S
C117 O122 1.209 . S
C117 O124 1.226 . S
O118 Cd114 2.273 . S
O118 Cd116 2.411 . S
O118 C121 1.320 . S
O119 Cd116 2.333 . S
O119 C121 1.214 . S
O120 Cd116 2.352 . S
O120 C123 1.258 . S
C121 O118 1.320 . S
C121 O119 1.214 . S
O122 Cd114 2.277 . S
O122 C117 1.209 . S
C123 O120 1.258 . S
C123 O125 1.282 . S
O124 Cd116 2.277 . S
O124 C117 1.226 . S
O125 Cd116 2.356 . S
O125 C123 1.282 . S
C126 O127 1.306 . S
C126 O129 1.160 . S
O127 C126 1.306 . S
O127 Cd128 2.228 . S
Cd128 O127 2.228 . S
Cd128 O132 2.273 . S
Cd128 O136 2.277 . S
O129 C126 1.160 . S
O129 Cd130 2.203 . S
Cd130 O129 2.203 . S
Cd130 O132 2.411 . S
Cd130 O133 2.333 . S
Cd130 O134 2.352 . S
Cd130 O138 2.277 . S
Cd130 O139 2.356 . S
C131 O136 1.209 . S
C131 O138 1.226 . S
O132 Cd128 2.273 . S
O132 Cd130 2.411 . S
O132 C135 1.320 . S
O133 Cd130 2.333 . S
O133 C135 1.214 . S
O134 Cd130 2.352 . S
O134 C137 1.258 . S
C135 O132 1.320 . S
C135 O133 1.214 . S
O136 Cd128 2.277 . S
O136 C131 1.209 . S
C137 O134 1.258 . S
C137 O139 1.282 . S
O138 Cd130 2.277 . S
O138 C131 1.226 . S
O139 Cd130 2.356 . S
O139 C137 1.282 . S
C140 O141 1.306 . S
C140 O143 1.160 . S
O141 C140 1.306 . S
O141 Cd142 2.228 . S
Cd142 O141 2.228 . S
Cd142 O146 2.273 . S
Cd142 O150 2.277 . S
O143 C140 1.160 . S
O143 Cd144 2.203 . S
Cd144 O143 2.203 . S
Cd144 O146 2.411 . S
Cd144 O147 2.333 . S
Cd144 O148 2.352 . S
Cd144 O152 2.277 . S
Cd144 O153 2.356 . S
C145 O150 1.209 . S
C145 O152 1.226 . S
O146 Cd142 2.273 . S
O146 Cd144 2.411 . S
O146 C149 1.320 . S
O147 Cd144 2.333 . S
O147 C149 1.214 . S
O148 Cd144 2.352 . S
O148 C151 1.258 . S
C149 O146 1.320 . S
C149 O147 1.214 . S
O150 Cd142 2.277 . S
O150 C145 1.209 . S
C151 O148 1.258 . S
C151 O153 1.282 . S
O152 Cd144 2.277 . S
O152 C145 1.226 . S
O153 Cd144 2.356 . S
O153 C151 1.282 . S
C154 O155 1.306 . S
C154 O157 1.160 . S
O155 C154 1.306 . S
O155 Cd156 2.228 . S
Cd156 O155 2.228 . S
Cd156 O160 2.273 . S
Cd156 O164 2.277 . S
O157 C154 1.160 . S
O157 Cd158 2.203 . S
Cd158 O157 2.203 . S
Cd158 O160 2.411 . S
Cd158 O161 2.333 . S
Cd158 O162 2.352 . S
Cd158 O166 2.277 . S
Cd158 O167 2.356 . S
C159 O164 1.209 . S
C159 O166 1.226 . S
O160 Cd156 2.273 . S
O160 Cd158 2.411 . S
O160 C163 1.320 . S
O161 Cd158 2.333 . S
O161 C163 1.214 . S
O162 Cd158 2.352 . S
O162 C165 1.258 . S
C163 O160 1.320 . S
C163 O161 1.214 . S
O164 Cd156 2.277 . S
O164 C159 1.209 . S
C165 O162 1.258 . S
C165 O167 1.282 . S
O166 Cd158 2.277 . S
O166 C159 1.226 . S
O167 Cd158 2.356 . S
O167 C165 1.282 . S
C168 O169 1.306 . S
C168 O171 1.160 . S
O169 C168 1.306 . S
O169 Cd170 2.228 . S
Cd170 O169 2.228 . S
Cd170 O174 2.273 . S
Cd170 O178 2.277 . S
O171 C168 1.160 . S
O171 Cd172 2.203 . S
Cd172 O171 2.203 . S
Cd172 O174 2.411 . S
Cd172 O175 2.333 . S
Cd172 O176 2.352 . S
Cd172 O180 2.277 . S
Cd172 O181 2.356 . S
C173 O178 1.209 . S
C173 O180 1.226 . S
O174 Cd170 2.273 . S
O174 Cd172 2.411 . S
O174 C177 1.320 . S
O175 Cd172 2.333 . S
O175 C177 1.214 . S
O176 Cd172 2.352 . S
O176 C179 1.258 . S
C177 O174 1.320 . S
C177 O175 1.214 . S
O178 Cd170 2.277 . S
O178 C173 1.209 . S
C179 O176 1.258 . S
C179 O181 1.282 . S
O180 Cd172 2.277 . S
O180 C173 1.226 . S
O181 Cd172 2.356 . S
O181 C179 1.282 . S
C182 O183 1.306 . S
C182 O185 1.160 . S
O183 C182 1.306 . S
O183 Cd184 2.228 . S
Cd184 O183 2.228 . S
Cd184 O188 2.273 . S
Cd184 O192 2.277 . S
O185 C182 1.160 . S
O185 Cd186 2.203 . S
Cd186 O185 2.203 . S
Cd186 O188 2.411 . S
Cd186 O189 2.333 . S
Cd186 O190 2.352 . S
Cd186 O194 2.277 . S
Cd186 O195 2.356 . S
C187 O192 1.209 . S
C187 O194 1.226 . S
O188 Cd184 2.273 . S
O188 Cd186 2.411 . S
O188 C191 1.320 . S
O189 Cd186 2.333 . S
O189 C191 1.214 . S
O190 Cd186 2.352 . S
O190 C193 1.258 . S
C191 O188 1.320 . S
C191 O189 1.214 . S
O192 Cd184 2.277 . S
O192 C187 1.209 . S
C193 O190 1.258 . S
C193 O195 1.282 . S
O194 Cd186 2.277 . S
O194 C187 1.226 . S
O195 Cd186 2.356 . S
O195 C193 1.282 . S
C196 O197 1.306 . S
C196 O199 1.160 . S
O197 C196 1.306 . S
O197 Cd198 2.228 . S
Cd198 O197 2.228 . S
Cd198 O202 2.273 . S
Cd198 O206 2.277 . S
O199 C196 1.160 . S
O199 Cd200 2.203 . S
Cd200 O199 2.203 . S
Cd200 O202 2.411 . S
Cd200 O203 2.333 . S
Cd200 O204 2.352 . S
Cd200 O208 2.277 . S
Cd200 O209 2.356 . S
C201 O206 1.209 . S
C201 O208 1.226 . S
O202 Cd198 2.273 . S
O202 Cd200 2.411 . S
O202 C205 1.320 . S
O203 Cd200 2.333 . S
O203 C205 1.214 . S
O204 Cd200 2.352 . S
O204 C207 1.258 . S
C205 O202 1.320 . S
C205 O203 1.214 . S
O206 Cd198 2.277 . S
O206 C201 1.209 . S
C207 O204 1.258 . S
C207 O209 1.282 . S
O208 Cd200 2.277 . S
O208 C201 1.226 . S
O209 Cd200 2.356 . S
O209 C207 1.282 . S
C210 O211 1.306 . S
C210 O213 1.160 . S
O211 C210 1.306 . S
O211 Cd212 2.228 . S
Cd212 O211 2.228 . S
Cd212 O216 2.273 . S
Cd212 O220 2.277 . S
O213 C210 1.160 . S
O213 Cd214 2.203 . S
Cd214 O213 2.203 . S
Cd214 O216 2.411 . S
Cd214 O217 2.333 . S
Cd214 O218 2.352 . S
Cd214 O222 2.277 . S
Cd214 O223 2.356 . S
C215 O220 1.209 . S
C215 O222 1.226 . S
O216 Cd212 2.273 . S
O216 Cd214 2.411 . S
O216 C219 1.320 . S
O217 Cd214 2.333 . S
O217 C219 1.214 . S
O218 Cd214 2.352 . S
O218 C221 1.258 . S
C219 O216 1.320 . S
C219 O217 1.214 . S
O220 Cd212 2.277 . S
O220 C215 1.209 . S
C221 O218 1.258 . S
C221 O223 1.282 . S
O222 Cd214 2.277 . S
O222 C215 1.226 . S
O223 Cd214 2.356 . S
O223 C221 1.282 . S
C224 C225 1.170 . S
C224 C226 1.380 1_455 S
C225 C224 1.170 . S
C226 C224 1.380 1_655 S
C226 C227 1.170 . S
C227 C226 1.170 . S
C228 C229 1.170 . S
C228 C230 1.380 1_565 S
C229 C228 1.170 . S
C230 C228 1.380 1_545 S
C230 C231 1.170 . S
C231 C230 1.170 . S
C232 C233 1.170 . S
C232 C234 1.380 1_455 S
C233 C232 1.170 . S
C234 C232 1.380 1_655 S
C234 C235 1.170 . S
C235 C234 1.170 . S
C236 C237 1.170 . S
C236 C238 1.380 1_565 S
C237 C236 1.170 . S
C238 C236 1.380 1_545 S
C238 C239 1.170 . S
C239 C238 1.170 . S
C240 C241 1.170 . S
C240 C242 1.380 1_655 S
C241 C240 1.170 . S
C242 C240 1.380 1_455 S
C242 C243 1.170 . S
C243 C242 1.170 . S
C244 C245 1.170 . S
C244 C246 1.380 1_545 S
C245 C244 1.170 . S
C246 C244 1.380 1_565 S
C246 C247 1.170 . S
C247 C246 1.170 . S
C248 C249 1.170 . S
C248 C250 1.380 1_655 S
C249 C248 1.170 . S
C250 C248 1.380 1_455 S
C250 C251 1.170 . S
C251 C250 1.170 . S
C252 C253 1.170 . S
C252 C254 1.380 1_545 S
C253 C252 1.170 . S
C254 C252 1.380 1_565 S
C254 C255 1.170 . S
C255 C254 1.170 . S
C256 C257 1.170 . S
C256 C258 1.380 . S
C257 C256 1.170 . S
C258 C256 1.380 . S
C258 C259 1.170 . S
C259 C258 1.170 . S
C260 C261 1.170 . S
C260 C262 1.380 . S
C261 C260 1.170 . S
C262 C260 1.380 . S
C262 C263 1.170 . S
C263 C262 1.170 . S
C264 C265 1.170 . S
C264 C266 1.380 . S
C265 C264 1.170 . S
C266 C264 1.380 . S
C266 C267 1.170 . S
C267 C266 1.170 . S
C268 C269 1.170 . S
C268 C270 1.380 . S
C269 C268 1.170 . S
C270 C268 1.380 . S
C270 C271 1.170 . S
C271 C270 1.170 . S
C272 C273 1.170 . S
C272 C274 1.380 . S
C273 C272 1.170 . S
C274 C272 1.380 . S
C274 C275 1.170 . S
C275 C274 1.170 . S
C276 C277 1.170 . S
C276 C278 1.380 . S
C277 C276 1.170 . S
C278 C276 1.380 . S
C278 C279 1.170 . S
C279 C278 1.170 . S
C280 C281 1.170 . S
C280 C282 1.380 . S
C281 C280 1.170 . S
C282 C280 1.380 . S
C282 C283 1.170 . S
C283 C282 1.170 . S
C284 C285 1.170 . S
C284 C286 1.380 . S
C285 C284 1.170 . S
C286 C284 1.380 . S
C286 C287 1.170 . S
C287 C286 1.170 . S
C288 C289 1.170 . S
C288 C290 1.380 1_556 S
C289 C288 1.170 . S
C290 C288 1.380 1_554 S
C290 C291 1.170 . S
C291 C290 1.170 . S
C292 C293 1.170 . S
C292 C294 1.380 . S
C293 C292 1.170 . S
C294 C292 1.380 . S
C294 C295 1.170 . S
C295 C294 1.170 . S
C296 C297 1.170 . S
C296 C298 1.380 1_554 S
C297 C296 1.170 . S
C298 C296 1.380 1_556 S
C298 C299 1.170 . S
C299 C298 1.170 . S
C300 C301 1.170 . S
C300 C302 1.380 . S
C301 C300 1.170 . S
C302 C300 1.380 . S
C302 C303 1.170 . S
C303 C302 1.170 . S
C304 C305 1.170 . S
C304 C306 1.380 . S
C305 C304 1.170 . S
C306 C304 1.380 . S
C306 C307 1.170 . S
C307 C306 1.170 . S
C308 C309 1.170 . S
C308 C310 1.380 1_556 S
C309 C308 1.170 . S
C310 C308 1.380 1_554 S
C310 C311 1.170 . S
C311 C310 1.170 . S
C312 C313 1.170 . S
C312 C314 1.380 . S
C313 C312 1.170 . S
C314 C312 1.380 . S
C314 C315 1.170 . S
C315 C314 1.170 . S
C316 C317 1.170 . S
C316 C318 1.380 1_554 S
C317 C316 1.170 . S
C318 C316 1.380 1_556 S
C318 C319 1.170 . S
C319 C318 1.170 . S
C320 C321 1.170 . S
C320 C322 1.380 . S
C321 C320 1.170 . S
C322 C320 1.380 . S
C322 C323 1.170 . S
C323 C322 1.170 . S
C324 C325 1.170 . S
C324 C326 1.380 . S
C325 C324 1.170 . S
C326 C324 1.380 . S
C326 C327 1.170 . S
C327 C326 1.170 . S
C328 C329 1.170 . S
C328 C330 1.380 . S
C329 C328 1.170 . S
C330 C328 1.380 . S
C330 C331 1.170 . S
C331 C330 1.170 . S
C332 C333 1.170 . S
C332 C334 1.380 . S
C333 C332 1.170 . S
C334 C332 1.380 . S
C334 C335 1.170 . S
C335 C334 1.170 . S
C336 C337 1.170 . S
C336 C338 1.380 . S
C337 C336 1.170 . S
C338 C336 1.380 . S
C338 C339 1.170 . S
C339 C338 1.170 . S
C340 C341 1.170 . S
C340 C342 1.380 . S
C341 C340 1.170 . S
C342 C340 1.380 . S
C342 C343 1.170 . S
C343 C342 1.170 . S
C344 C345 1.170 . S
C344 C346 1.380 . S
C345 C344 1.170 . S
C346 C344 1.380 . S
C346 C347 1.170 . S
C347 C346 1.170 . S
C348 C349 1.170 . S
C348 C350 1.380 . S
C349 C348 1.170 . S
C350 C348 1.380 . S
C350 C351 1.170 . S
C351 C350 1.170 . S
C225 C5 1.398 . S
C227 C33 1.405 . S
C229 C47 1.392 . S
C231 C19 1.410 . S
C233 C61 1.394 . S
C235 C89 1.408 . S
C237 C103 1.387 . S
C239 C75 1.412 . S
C241 C117 1.407 . S
C243 C145 1.386 . S
C245 C159 1.399 . S
C247 C131 1.408 . S
C249 C173 1.398 . S
C251 C201 1.408 . S
C253 C215 1.406 . S
C255 C187 1.401 . S
C257 C56 1.494 . S
C259 C0 1.466 . S
C261 C14 1.482 . S
C263 C70 1.509 . S
C265 C28 1.509 . S
C267 C84 1.481 . S
C269 C98 1.491 . S
C271 C42 1.466 . S
C273 C112 1.476 . S
C275 C168 1.506 . S
C277 C126 1.470 . S
C279 C182 1.500 . S
C281 C140 1.494 . S
C283 C196 1.474 . S
C285 C154 1.471 . S
C287 C210 1.498 . S
C289 C149 1.291 . S
C291 C9 1.288 . S
C293 C163 1.295 . S
C295 C23 1.289 . S
C297 C37 1.296 . S
C299 C121 1.308 . S
C301 C51 1.294 . S
C303 C135 1.289 . S
C305 C65 1.299 . S
C307 C205 1.312 . S
C309 C79 1.329 . S
C311 C219 1.321 . S
C313 C93 1.294 . S
C315 C177 1.305 . S
C317 C191 1.321 . S
C319 C107 1.329 . S
C321 C11 1.405 . S
C323 C221 1.403 . S
C325 C179 1.404 . S
C327 C25 1.405 . S
C329 C39 1.405 . S
C331 C193 1.405 . S
C333 C207 1.405 . S
C335 C53 1.405 . S
C337 C137 1.399 . S
C339 C67 1.400 . S
C341 C81 1.402 . S
C343 C151 1.404 . S
C345 C165 1.403 . S
C347 C95 1.401 . S
C349 C123 1.403 . S
C351 C109 1.405 . S
