# Generated by pormake.
# Topology smc, (6)-cn, num edge types: 1
# Building blocks:
#     Node 0, Type 0, BuildingBlock: CUWYAW_clean_sbu_0, # of connection points: 6
#     Node 1, Type 0, BuildingBlock: CUWYAW_clean_sbu_0, # of connection points: 6
#     Node 2, Type 0, BuildingBlock: CUWYAW_clean_sbu_0, # of connection points: 6
#     Node 3, Type 0, BuildingBlock: CUWYAW_clean_sbu_0, # of connection points: 6
#     Node 4, Type 0, BuildingBlock: CUWYAW_clean_sbu_0, # of connection points: 6
#     Node 5, Type 0, BuildingBlock: CUWYAW_clean_sbu_0, # of connection points: 6
#     Node 6, Type 0, BuildingBlock: CUWYAW_clean_sbu_0, # of connection points: 6
#     Node 7, Type 0, BuildingBlock: CUWYAW_clean_sbu_0, # of connection points: 6
#     Node 8, Type 0, BuildingBlock: CUWYAW_clean_sbu_0, # of connection points: 6
#     Edge 9, Type (0, 0), BuildingBlock: EZIPEK_clean_linker_0, # of connection points: 2
#     Edge 10, Type (0, 0), BuildingBlock: EZIPEK_clean_linker_0, # of connection points: 2
#     Edge 11, Type (0, 0), BuildingBlock: EZIPEK_clean_linker_0, # of connection points: 2
#     Edge 12, Type (0, 0), BuildingBlock: EZIPEK_clean_linker_0, # of connection points: 2
#     Edge 13, Type (0, 0), BuildingBlock: EZIPEK_clean_linker_0, # of connection points: 2
#     Edge 14, Type (0, 0), BuildingBlock: EZIPEK_clean_linker_0, # of connection points: 2
#     Edge 15, Type (0, 0), BuildingBlock: EZIPEK_clean_linker_0, # of connection points: 2
#     Edge 16, Type (0, 0), BuildingBlock: EZIPEK_clean_linker_0, # of connection points: 2
#     Edge 17, Type (0, 0), BuildingBlock: EZIPEK_clean_linker_0, # of connection points: 2
#     Edge 18, Type (0, 0), BuildingBlock: EZIPEK_clean_linker_0, # of connection points: 2
#     Edge 19, Type (0, 0), BuildingBlock: EZIPEK_clean_linker_0, # of connection points: 2
#     Edge 20, Type (0, 0), BuildingBlock: EZIPEK_clean_linker_0, # of connection points: 2
#     Edge 21, Type (0, 0), BuildingBlock: EZIPEK_clean_linker_0, # of connection points: 2
#     Edge 22, Type (0, 0), BuildingBlock: EZIPEK_clean_linker_0, # of connection points: 2
#     Edge 23, Type (0, 0), BuildingBlock: EZIPEK_clean_linker_0, # of connection points: 2
#     Edge 24, Type (0, 0), BuildingBlock: EZIPEK_clean_linker_0, # of connection points: 2
#     Edge 25, Type (0, 0), BuildingBlock: EZIPEK_clean_linker_0, # of connection points: 2
#     Edge 26, Type (0, 0), BuildingBlock: EZIPEK_clean_linker_0, # of connection points: 2
#     Edge 27, Type (0, 0), BuildingBlock: EZIPEK_clean_linker_0, # of connection points: 2
#     Edge 28, Type (0, 0), BuildingBlock: EZIPEK_clean_linker_0, # of connection points: 2
#     Edge 29, Type (0, 0), BuildingBlock: EZIPEK_clean_linker_0, # of connection points: 2
#     Edge 30, Type (0, 0), BuildingBlock: EZIPEK_clean_linker_0, # of connection points: 2
#     Edge 31, Type (0, 0), BuildingBlock: EZIPEK_clean_linker_0, # of connection points: 2
#     Edge 32, Type (0, 0), BuildingBlock: EZIPEK_clean_linker_0, # of connection points: 2
#     Edge 33, Type (0, 0), BuildingBlock: EZIPEK_clean_linker_0, # of connection points: 2
#     Edge 34, Type (0, 0), BuildingBlock: EZIPEK_clean_linker_0, # of connection points: 2
#     Edge 35, Type (0, 0), BuildingBlock: EZIPEK_clean_linker_0, # of connection points: 2
# Relax obj value: 0.207
# Max RMSD: 0.344
# Mean RMSD: 0.344
data_MOF--net-smc--node1-CUWYAW_clean_sbu_0--edge1-EZIPEK_clean_linker_0
_symmetry_space_group_name_H-M    P1
_symmetry_Int_Tables_number       1
_symmetry_cell_setting            triclinic
loop_
_symmetry_equiv_pos_as_xyz
'x, y, z'
_cell_length_a     31.544269
_cell_length_b     31.537196
_cell_length_c     28.898437
_cell_angle_alpha  89.61068
_cell_angle_beta   90.302485
_cell_angle_gamma 119.92299
loop_
_atom_site_label
_atom_site_type_symbol
_atom_site_fract_x
_atom_site_fract_y
_atom_site_fract_z
_atom_type_partial_charge
C0 C 0.92717 0.29897 0.01941 0.0
Eu1 Eu 0.99496 0.39162 0.01539 0.0
C2 C 0.87288 0.27304 0.01611 0.0
C3 C 0.84539 0.2244 0.03147 0.0
C4 C 0.79407 0.20055 0.03242 0.0
C5 C 0.76906 0.22472 0.0176 0.0
C6 C 0.79652 0.2735 1.00234 0.0
C7 C 0.84789 0.29763 1.00233 0.0
C8 C 0.04327 0.43557 0.0961 0.0
C9 C 0.9546 0.46736 0.01931 0.0
C10 C 0.11566 0.58683 0.99075 0.0
Eu11 Eu 0.06223 0.49178 0.99603 0.0
C12 C 0.14577 0.64116 0.98881 0.0
C13 C 0.1741 0.6655 0.94963 0.0
C14 C 0.20396 0.7167 0.94918 0.0
C15 C 0.20575 0.74447 0.98776 0.0
C16 C 0.17592 0.72028 0.02605 0.0
C17 C 0.14654 0.66929 0.02668 0.0
C18 C 1.01763 0.43588 0.91738 0.0
C19 C 0.11245 0.43026 0.99251 0.0
O20 O 0.94512 0.32694 0.05541 0.0
O21 O 0.95262 0.31985 0.98209 0.0
O22 O 0.99632 0.40966 0.09132 0.0
O23 O 0.06203 0.44361 0.05585 0.0
O24 O 0.94248 0.42178 0.01059 0.0
O25 O 1.00061 0.50077 0.02278 0.0
O26 O 0.09148 0.56364 0.02791 0.0
O27 O 0.11176 0.55827 0.95644 0.0
O28 O 0.06361 0.46783 0.92184 0.0
O29 O 0.99699 0.43518 0.95504 0.0
O30 O 0.12012 0.4731 0.00556 0.0
O31 O 0.06647 0.39236 0.98934 0.0
H32 H 0.86369 0.20499 0.04337 0.0
H33 H 0.77376 0.16296 0.04432 0.0
H34 H 0.77817 0.29299 0.99085 0.0
H35 H 0.86797 0.33563 0.99203 0.0
H36 H 0.17406 0.64492 0.91976 0.0
H37 H 0.22698 0.73442 0.91944 0.0
H38 H 0.17702 0.74083 0.05638 0.0
H39 H 0.12506 0.65187 0.05731 0.0
C40 C 0.75406 0.63596 0.02824 0.0
Eu41 Eu 0.66407 0.6196 0.02376 0.0
C42 C 0.78013 0.60798 0.024 0.0
C43 C 0.82006 0.61976 0.05337 0.0
C44 C 0.84484 0.59333 0.0517 0.0
C45 C 0.83015 0.55446 0.02063 0.0
C46 C 0.78988 0.54218 0.99136 0.0
C47 C 0.76488 0.56863 0.99314 0.0
C48 C 0.62269 0.63465 0.09836 0.0
C49 C 0.58395 0.50382 0.02103 0.0
C50 C 0.47194 0.54868 0.97141 0.0
Eu51 Eu 0.56581 0.59128 0.98844 0.0
C52 C 0.41909 0.53289 0.96945 0.0
C53 C 0.38845 0.49363 0.9406 0.0
C54 C 0.33755 0.47365 0.9415 0.0
C55 C 0.31608 0.49287 0.97093 0.0
C56 C 0.3469 0.53315 0.99902 0.0
C57 C 0.39797 0.55276 0.99855 0.0
C58 C 0.63708 0.61641 0.92171 0.0
C59 C 0.6318 0.70292 0.00421 0.0
O60 O 0.72517 0.62469 0.06382 0.0
O61 O 0.73503 0.64353 0.99103 0.0
O62 O 0.66444 0.63677 0.09631 0.0
O63 O 0.59892 0.61972 0.05985 0.0
O64 O 0.62833 0.53712 0.03387 0.0
O65 O 0.55403 0.51599 1.00153 0.0
O66 O 0.4904 0.53997 0.0084 0.0
O67 O 0.50442 0.58348 0.945 0.0
O68 O 0.60134 0.62543 0.919 0.0
O69 O 0.62999 0.58955 0.95688 0.0
O70 O 0.58635 0.66711 0.00575 0.0
O71 O 0.66913 0.69419 0.00547 0.0
H72 H 0.83205 0.64949 0.07783 0.0
H73 H 0.87577 0.60342 0.07451 0.0
H74 H 0.77801 0.5123 0.96712 0.0
H75 H 0.73372 0.55831 0.97059 0.0
H76 H 0.40385 0.47731 0.91828 0.0
H77 H 0.31477 0.44251 0.91981 0.0
H78 H 0.33128 0.54852 0.0222 0.0
H79 H 0.42078 0.58267 0.0215 0.0
C80 C 0.41658 0.13322 0.03364 0.0
Eu81 Eu 0.44056 0.06523 0.02187 0.0
C82 C 0.44433 0.18797 0.03289 0.0
C83 C 0.47328 0.21501 0.07087 0.0
C84 C 0.49841 0.26638 0.0702 0.0
C85 C 0.49514 0.29199 0.03166 0.0
C86 C 0.4668 0.26525 0.99353 0.0
C87 C 0.44168 0.21387 0.99414 0.0
C88 C 0.44185 1.01602 0.09906 0.0
C89 C 0.55653 0.10556 0.01997 0.0
C90 C 0.51501 0.94441 0.99282 0.0
Eu91 Eu 0.47394 0.99848 0.99595 0.0
C92 C 0.53748 0.91258 0.99249 0.0
C93 C 0.57287 0.91931 0.95941 0.0
C94 C 0.59514 0.89028 0.96045 0.0
C95 C 0.58193 0.85336 0.99413 0.0
C96 C 0.54645 0.84652 0.02709 0.0
C97 C 0.52471 0.87596 0.02646 0.0
C98 C 0.44982 0.03851 0.92103 0.0
C99 C 0.36135 0.9455 0.99725 0.0
O100 O 0.42567 0.11146 0.06751 0.0
O101 O 0.41184 0.11096 0.99465 0.0
O102 O 0.46454 0.06322 0.09536 0.0
O103 O 0.4294 0.99833 0.05856 0.0
O104 O 0.52276 0.11771 0.01214 0.0
O105 O 0.54378 0.05956 0.0245 0.0
O106 O 0.49021 0.94561 0.02839 0.0
O107 O 0.51725 0.97242 0.95811 0.0
O108 O 0.44221 0.99408 0.92312 0.0
O109 O 0.47383 0.0612 0.95676 0.0
O110 O 0.39872 0.93865 0.99494 0.0
O111 O 0.36758 0.99043 0.00435 0.0
H112 H 0.4764 0.19656 0.10134 0.0
H113 H 0.52008 0.28621 0.09998 0.0
H114 H 0.46379 0.28421 0.9634 0.0
H115 H 0.41987 0.19437 0.96431 0.0
H116 H 0.5837 0.9473 0.93297 0.0
H117 H 0.62227 0.89614 0.93457 0.0
H118 H 0.53547 0.81822 0.05327 0.0
H119 H 0.49768 0.86986 0.05254 0.0
C120 C 0.59504 0.64356 0.32111 0.0
Eu121 Eu 0.66609 0.73253 0.33808 0.0
C122 C 0.54067 0.61635 0.32788 0.0
C123 C 0.51891 0.59487 0.37061 0.0
C124 C 0.46763 0.56844 0.37535 0.0
C125 C 0.43697 0.56299 0.33758 0.0
C126 C 0.45862 0.58512 0.29525 0.0
C127 C 0.50966 0.61126 0.29042 0.0
C128 C 0.7087 0.76404 0.42025 0.0
C129 C 0.62501 0.80703 0.35847 0.0
C130 C 0.78131 0.93097 0.29919 0.0
Eu131 Eu 0.72526 0.83717 0.31787 0.0
C132 C 0.81626 0.98308 0.3113 0.0
C133 C 0.85929 1.00962 0.2852 0.0
C134 C 0.88928 0.06041 0.29077 0.0
C135 C 0.87677 0.08615 0.32232 0.0
C136 C 0.83412 0.05956 0.34899 0.0
C137 C 0.80432 1.00867 0.34368 0.0
C138 C 0.67722 0.77487 0.24334 0.0
C139 C 0.78531 0.78195 0.32505 0.0
O140 O 0.61151 0.67944 0.29127 0.0
O141 O 0.6239 0.65446 0.35721 0.0
O142 O 0.67143 0.72149 0.41224 0.0
O143 O 0.71956 0.79416 0.38546 0.0
O144 O 0.61393 0.76344 0.34312 0.0
O145 O 0.6709 0.83991 0.36394 0.0
O146 O 0.73616 0.911 0.31355 0.0
O147 O 0.79625 0.89923 0.29542 0.0
O148 O 0.67599 0.81458 0.25097 0.0
O149 O 0.7014 0.77131 0.27559 0.0
O150 O 0.78734 0.82448 0.32706 0.0
O151 O 0.7421 0.74021 0.32217 0.0
H152 H 0.54142 0.59802 0.40026 0.0
H153 H 0.45181 0.55158 0.40832 0.0
H154 H 0.43589 0.58138 0.26558 0.0
H155 H 0.52489 0.62716 0.25698 0.0
H156 H 0.86904 0.99125 0.25936 0.0
H157 H 0.9219 0.07981 0.26982 0.0
H158 H 0.82367 0.07836 0.37369 0.0
H159 H 0.77125 0.98963 0.36407 0.0
C160 C 0.41931 0.97224 0.38626 0.0
Eu161 Eu 0.33153 0.95519 0.36292 0.0
C162 C 0.44881 0.94831 0.37818 0.0
C163 C 0.4768 0.94585 0.41459 0.0
C164 C 0.50376 0.92199 0.40919 0.0
C165 C 0.50679 0.9025 0.36605 0.0
C166 C 0.47255 0.89914 0.33195 0.0
C167 C 0.44517 0.92291 0.33738 0.0
C168 C 0.27752 0.95938 0.43573 0.0
C169 C 0.25518 0.84154 0.35651 0.0
C170 C 0.14371 0.88291 0.30957 0.0
Eu171 Eu 0.23769 0.92772 0.32849 0.0
C172 C 0.09196 0.87074 0.31511 0.0
C173 C 0.06599 0.87335 0.27648 0.0
C174 C 1.01536 0.85512 0.2788 0.0
C175 C 0.98956 0.83346 0.31973 0.0
C176 C 1.01545 0.83126 0.35854 0.0
C177 C 0.06608 0.84974 0.35632 0.0
C178 C 0.30451 0.94677 0.25774 0.0
C179 C 0.3006 0.03968 0.33534 0.0
O180 O 0.38047 0.94708 0.4114 0.0
O181 O 0.41108 0.9939 0.3517 0.0
O182 O 0.29978 0.93439 0.43545 0.0
O183 O 0.27528 0.9707 0.39398 0.0
O184 O 0.3011 0.87393 0.34822 0.0
O185 O 0.22388 0.85678 0.36054 0.0
O186 O 0.16351 0.86933 0.34191 0.0
O187 O 0.1756 0.92256 0.28792 0.0
O188 O 0.26892 0.95584 0.25651 0.0
O189 O 0.30083 0.92317 0.29471 0.0
O190 O 0.2555 1.00393 0.34101 0.0
O191 O 0.33779 0.03047 0.33911 0.0
H192 H 0.47713 0.96169 0.44785 0.0
H193 H 0.52177 0.91876 0.43977 0.0
H194 H 0.46482 0.87718 0.30137 0.0
H195 H 0.42038 0.92048 0.31007 0.0
H196 H 0.08471 0.88844 0.24403 0.0
H197 H 0.99624 0.85767 0.2486 0.0
H198 H 0.99636 0.81523 0.39063 0.0
H199 H 0.08469 0.84653 0.38659 0.0
C200 C 0.09062 0.47125 0.37631 0.0
Eu201 Eu 0.11121 0.40171 0.35928 0.0
C202 C 0.11557 0.5253 0.36993 0.0
C203 C 0.09899 0.55241 0.39469 0.0
C204 C 0.12389 0.60373 0.39209 0.0
C205 C 0.1658 0.62907 0.36442 0.0
C206 C 0.1828 0.60214 0.33996 0.0
C207 C 0.15847 0.55085 0.34339 0.0
C208 C 0.1145 0.35328 0.43772 0.0
C209 C 0.2245 0.43821 0.35171 0.0
C210 C 0.17661 0.27561 0.32755 0.0
Eu211 Eu 0.13764 0.3316 0.33439 0.0
C212 C 0.1983 0.24316 0.32446 0.0
C213 C 0.23331 0.25101 0.29046 0.0
C214 C 0.25614 0.22247 0.2897 0.0
C215 C 0.24398 0.18498 0.3225 0.0
C216 C 0.20864 0.1768 0.35617 0.0
C217 C 0.1863 0.2057 0.35731 0.0
C218 C 0.11681 0.37331 0.25819 0.0
C219 C 1.02493 0.28665 0.33749 0.0
O220 O 0.11173 0.45616 0.40556 0.0
O221 O 0.07441 0.44308 0.33986 0.0
O222 O 0.14005 0.39977 0.4304 0.0
O223 O 0.09714 0.33409 0.39864 0.0
O224 O 0.19182 0.45093 0.34079 0.0
O225 O 0.20917 0.3924 0.36208 0.0
O226 O 0.15356 0.27709 0.36437 0.0
O227 O 0.1773 0.30353 0.29357 0.0
O228 O 0.10235 0.32712 0.26371 0.0
O229 O 0.14262 0.39569 0.29318 0.0
O230 O 0.05982 0.2757 0.33864 0.0
O231 O 0.03499 0.33315 0.34153 0.0
H232 H 0.06708 0.53385 0.41668 0.0
H233 H 0.11042 0.62373 0.41166 0.0
H234 H 0.21529 0.6209 0.31874 0.0
H235 H 0.17382 0.53144 0.32596 0.0
H236 H 0.24377 0.27985 0.26497 0.0
H237 H 0.28334 0.2296 0.26347 0.0
H238 H 0.19862 0.14819 0.38186 0.0
H239 H 0.15974 0.19884 0.38413 0.0
C240 C 0.2676 0.97161 0.68419 0.0
Eu241 Eu 0.33279 0.06475 0.67961 0.0
C242 C 0.21305 0.9449 0.68642 0.0
C243 C 0.18902 0.91608 0.72548 0.0
C244 C 0.1378 0.89149 0.72879 0.0
C245 C 0.10943 0.89545 0.69324 0.0
C246 C 0.13332 0.92495 0.65457 0.0
C247 C 0.18448 0.94925 0.65117 0.0
C248 C 0.38247 0.10723 0.75966 0.0
C249 C 0.28964 0.13816 0.68806 0.0
C250 C 0.44421 0.25884 0.6533 0.0
Eu251 Eu 0.3962 0.16372 0.66163 0.0
C252 C 0.48347 0.31074 0.65358 0.0
C253 C 0.52078 0.32988 0.62007 0.0
C254 C 0.55442 0.38023 0.61837 0.0
C255 C 0.5509 0.41209 0.64982 0.0
C256 C 0.51365 0.39305 0.68306 0.0
C257 C 0.48021 0.34293 0.68483 0.0
C258 C 0.34949 0.10964 0.5829 0.0
C259 C 0.44902 0.10539 0.6511 0.0
O260 O 0.28875 0.99383 0.64556 0.0
O261 O 0.28998 0.99809 0.72019 0.0
O262 O 0.33535 0.08236 0.75563 0.0
O263 O 0.40091 0.11644 0.71931 0.0
O264 O 0.27824 0.09327 0.67641 0.0
O265 O 0.33554 0.17065 0.69417 0.0
O266 O 0.42247 0.23634 0.69159 0.0
O267 O 0.44203 0.22934 0.62068 0.0
O268 O 0.3953 0.14114 0.5872 0.0
O269 O 0.32985 0.10758 0.62141 0.0
O270 O 0.4561 0.14705 0.66751 0.0
O271 O 0.40306 0.06779 0.64716 0.0
H272 H 0.20995 0.91233 0.75343 0.0
H273 H 0.12022 0.86861 0.75871 0.0
H274 H 0.11221 0.92817 0.62646 0.0
H275 H 0.20161 0.97106 0.6208 0.0
H276 H 0.52384 0.30608 0.59511 0.0
H277 H 0.58363 0.39425 0.5931 0.0
H278 H 0.51098 0.417 0.70814 0.0
H279 H 0.45137 0.32938 0.71046 0.0
C280 C 0.09805 0.31889 0.68177 0.0
Eu281 Eu 1.00573 0.29479 0.68282 0.0
C282 C 0.12347 0.28963 0.6802 0.0
C283 C 0.15929 0.29783 0.71367 0.0
C284 C 0.18248 0.26967 0.71457 0.0
C285 C 0.17042 0.23243 0.68204 0.0
C286 C 0.13419 0.22365 0.64875 0.0
C287 C 0.11079 0.25178 0.64792 0.0
C288 C 0.95821 0.29602 0.76161 0.0
C289 C 0.93065 0.17736 0.68843 0.0
C290 C 0.80708 0.21873 0.6549 0.0
Eu291 Eu 0.90198 0.25836 0.65974 0.0
C292 C 0.75291 0.19614 0.65221 0.0
C293 C 0.72716 0.17042 0.6125 0.0
C294 C 0.67621 0.14989 0.60963 0.0
C295 C 0.64994 0.15504 0.64618 0.0
C296 C 0.67553 0.18066 0.68592 0.0
C297 C 0.72644 0.20073 0.68903 0.0
C298 C 0.96311 0.27576 0.5845 0.0
C299 C 0.96431 0.37355 0.66195 0.0
O300 O 0.0744 0.32023 0.64485 0.0
O301 O 0.07374 0.31409 0.7196 0.0
O302 O 0.98754 0.27846 0.75874 0.0
O303 O 0.94966 0.30494 0.72043 0.0
O304 O 0.97681 0.2125 0.68644 0.0
O305 O 0.8952 0.18743 0.68411 0.0
O306 O 0.83097 0.2298 0.69422 0.0
O307 O 0.8347 0.22888 0.61823 0.0
O308 O 0.92694 0.28434 0.58525 0.0
O309 O 0.96266 0.25528 0.62245 0.0
O310 O 0.92007 0.33544 0.66274 0.0
O311 O 1.00377 0.3676 0.66469 0.0
H312 H 0.16928 0.32611 0.7394 0.0
H313 H 0.21027 0.27725 0.7405 0.0
H314 H 0.12427 0.1952 0.62323 0.0
H315 H 0.08276 0.2438 0.62215 0.0
H316 H 0.74643 0.16625 0.58356 0.0
H317 H 0.65731 0.13072 0.57848 0.0
H318 H 0.65614 0.18563 0.71429 0.0
H319 H 0.74523 0.22062 0.71993 0.0
C320 C 0.7715 0.81009 0.66607 0.0
Eu321 Eu 0.78063 0.73198 0.67607 0.0
C322 C 0.79674 0.86337 0.67557 0.0
C323 C 0.82442 0.88427 0.71592 0.0
C324 C 0.84919 0.93536 0.72206 0.0
C325 C 0.84681 0.9662 0.68789 0.0
C326 C 0.81946 0.94513 0.64762 0.0
C327 C 0.79476 0.89436 0.64156 0.0
C328 C 0.75254 0.68028 0.75281 0.0
C329 C 0.8969 0.77078 0.6956 0.0
C330 C 0.85049 0.6199 0.63014 0.0
Eu331 Eu 0.81689 0.67743 0.65779 0.0
C332 C 0.87034 0.58646 0.63944 0.0
C333 C 0.86411 0.55191 0.60564 0.0
C334 C 0.88542 0.52225 0.61089 0.0
C335 C 0.91367 0.52642 0.65014 0.0
C336 C 0.91978 0.56081 0.68427 0.0
C337 C 0.89846 0.59064 0.67894 0.0
C338 C 0.7955 0.72019 0.58029 0.0
C339 C 0.7087 0.61328 0.6636 0.0
O340 O 0.79311 0.79633 0.63642 0.0
O341 O 0.75207 0.77893 0.70023 0.0
O342 O 0.73296 0.70395 0.73471 0.0
O343 O 0.79365 0.6893 0.73253 0.0
O344 O 0.86483 0.78277 0.68065 0.0
O345 O 0.88194 0.72468 0.70042 0.0
O346 O 0.87782 0.66618 0.63948 0.0
O347 O 0.80423 0.6047 0.63682 0.0
O348 O 0.83874 0.73018 0.59325 0.0
O349 O 0.76831 0.69388 0.61145 0.0
O350 O 0.74836 0.61258 0.67348 0.0
O351 O 0.71171 0.65669 0.65548 0.0
H352 H 0.82721 0.86128 0.74236 0.0
H353 H 0.87039 0.9509 0.75326 0.0
H354 H 0.81735 0.9681 0.6207 0.0
H355 H 0.77426 0.87919 0.6099 0.0
H356 H 0.84306 0.54821 0.57466 0.0
H357 H 0.87957 0.49573 0.58438 0.0
H358 H 0.94076 0.56424 0.71521 0.0
H359 H 0.90419 0.61709 0.70547 0.0
C360 C 0.23294 0.46971 0.93608 0.0
C361 C 0.26129 0.46891 0.97425 0.0
C362 C 0.18686 0.42913 0.02175 0.0
C363 C 0.15808 0.42832 0.98341 0.0
N364 N 0.15208 0.43897 0.90188 0.0
N365 N 0.26282 0.43667 0.0498 0.0
C366 C 0.18075 0.44528 0.9397 0.0
C367 C 0.23741 0.44499 0.01591 0.0
N368 N 0.256 0.4963 0.8974 0.0
N369 N 0.16634 0.41737 0.06461 0.0
H370 H 0.29967 0.44703 0.04667 0.0
H371 H 0.24629 0.41541 0.07907 0.0
H372 H 0.12915 0.40361 0.06917 0.0
H373 H 0.18629 0.42384 0.09516 0.0
H374 H 0.23795 0.50273 0.87039 0.0
H375 H 0.29395 0.51554 0.8939 0.0
H376 H 0.16537 0.44718 0.86818 0.0
H377 H 0.11398 0.42082 0.90405 0.0
C378 C 0.59391 0.78802 0.95644 0.0
C379 C 0.60378 0.82059 0.99392 0.0
C380 C 0.64799 0.78469 0.03402 0.0
C381 C 0.63755 0.7523 0.99652 0.0
N382 N 0.61675 0.73517 0.91635 0.0
N383 N 0.649 0.85721 0.06393 0.0
C384 C 0.61601 0.75832 0.95577 0.0
C385 C 0.6338 0.8213 0.03136 0.0
N386 N 0.56099 0.78299 0.9229 0.0
N387 N 0.67005 0.77929 0.07258 0.0
H388 H 0.63978 0.88469 0.06254 0.0
H389 H 0.6737 0.86221 0.09023 0.0
H390 H 0.68242 0.75417 0.0741 0.0
H391 H 0.67471 0.79823 0.10324 0.0
H392 H 0.54851 0.75594 0.89766 0.0
H393 H 0.54245 0.80262 0.92273 0.0
H394 H 0.60455 0.74032 0.88436 0.0
H395 H 0.63554 0.7158 0.91493 0.0
C396 C 0.27909 0.88307 0.96367 0.0
C397 C 0.31356 0.89875 1.00049 0.0
C398 C 0.28009 0.81303 0.02537 0.0
C399 C 0.24322 0.79768 0.9912 0.0
N400 N 0.20293 0.81612 0.93166 0.0
N401 N 0.33965 0.87858 0.07215 0.0
C402 C 0.24145 0.83258 0.96141 0.0
C403 C 0.31107 0.86362 0.03342 0.0
N404 N 0.28419 0.91559 0.92973 0.0
N405 N 0.28811 0.77935 0.04793 0.0
H406 H 0.36502 0.91493 0.0782 0.0
H407 H 0.3352 0.85546 0.09991 0.0
H408 H 0.26799 0.74192 0.04132 0.0
H409 H 0.31821 0.78885 0.06932 0.0
H410 H 0.26461 0.90563 0.89882 0.0
H411 H 0.31036 0.95263 0.9316 0.0
H412 H 0.19603 0.83852 0.90994 0.0
H413 H 0.19603 0.83852 0.90994 0.0
C414 C 0.56279 0.37435 0.00369 0.0
C415 C 0.52057 0.34685 0.03153 0.0
C416 C 0.52724 0.42356 0.05949 0.0
C417 C 0.56601 0.4506 0.02791 0.0
N418 N 0.61723 0.45173 0.96582 0.0
N419 N 0.45881 0.34477 0.08188 0.0
C420 C 0.58312 0.42603 0.99909 0.0
C421 C 0.50193 0.37137 0.05858 0.0
N422 N 0.58415 0.35114 0.98247 0.0
N423 N 0.51526 0.44798 0.09103 0.0
H424 H 0.43919 0.30663 0.08213 0.0
H425 H 0.44036 0.36029 0.09793 0.0
H426 H 0.53311 0.4861 0.09266 0.0
H427 H 0.49091 0.43082 0.11817 0.0
H428 H 0.61777 0.36954 0.96569 0.0
H429 H 0.57027 0.31347 0.98496 0.0
H430 H 0.62689 0.43529 0.94 0.0
H431 H 0.63358 0.48959 0.96195 0.0
C432 C 0.63696 0.13738 0.9793 0.0
C433 C 0.61002 0.14183 0.01642 0.0
C434 C 0.68695 0.20639 0.05058 0.0
C435 C 0.71409 0.19796 0.01618 0.0
N436 N 0.71536 0.15388 0.94884 0.0
N437 N 0.60852 0.17844 0.08859 0.0
C438 C 0.68912 0.16308 0.98078 0.0
C439 C 0.63477 0.17627 0.05211 0.0
N440 N 0.61241 0.10973 0.94167 0.0
N441 N 0.71115 0.24311 0.08191 0.0
H442 H 0.57043 0.15787 0.09006 0.0
H443 H 0.62422 0.19844 0.11851 0.0
H444 H 0.74919 0.26397 0.08352 0.0
H445 H 0.69376 0.25501 0.10457 0.0
H446 H 0.62944 0.10866 0.91131 0.0
H447 H 0.57436 0.09115 0.93897 0.0
H448 H 0.69985 0.12435 0.92625 0.0
H449 H 0.75338 0.17429 0.9464 0.0
C450 C 0.88419 0.47327 0.05377 0.0
C451 C 0.91782 0.48388 0.01714 0.0
C452 C 0.89341 0.53998 0.98239 0.0
C453 C 0.85836 0.52799 0.01799 0.0
N454 N 0.81447 0.47768 0.08339 0.0
N455 N 0.9471 0.51875 0.94148 0.0
C456 C 0.85193 0.49283 0.05242 0.0
C457 C 0.92016 0.51468 0.9799 0.0
N458 N 0.88455 0.4462 0.09075 0.0
N459 N 0.90266 0.57707 0.95202 0.0
H460 H 0.9668 0.50046 0.93814 0.0
H461 H 0.94627 0.53638 0.91118 0.0
H462 H 0.88346 0.59606 0.9522 0.0
H463 H 0.93184 0.59164 0.92892 0.0
H464 H 0.86518 0.4418 0.12115 0.0
H465 H 0.90679 0.43044 0.09221 0.0
H466 H 0.80458 0.44878 0.10647 0.0
H467 H 0.7906 0.49158 0.08359 0.0
C468 C 0.85015 0.75958 0.30036 0.0
C469 C 0.83439 0.78491 0.32995 0.0
C470 C 0.9202 0.84163 0.35158 0.0
C471 C 0.93595 0.8159 0.32316 0.0
N472 N 0.91576 0.74476 0.27734 0.0
N473 N 0.85465 0.83935 0.39557 0.0
C474 C 0.90083 0.77315 0.29952 0.0
C475 C 0.86956 0.82233 0.35938 0.0
N476 N 0.81736 0.72359 0.27213 0.0
N477 N 0.95348 0.88615 0.3694 0.0
H478 H 0.81808 0.82674 0.40304 0.0
H479 H 0.87842 0.8622 0.42106 0.0
H480 H 0.99105 0.9025 0.36379 0.0
H481 H 0.94345 0.90916 0.38578 0.0
H482 H 0.82742 0.70929 0.24466 0.0
H483 H 0.77986 0.70846 0.27577 0.0
H484 H 0.89176 0.71059 0.26347 0.0
H485 H 0.95232 0.75364 0.276 0.0
C486 C 0.29937 0.15704 0.35891 0.0
C487 C 0.26813 0.15419 0.32186 0.0
C488 C 0.28224 0.09228 0.28493 0.0
C489 C 0.3056 0.08864 0.32554 0.0
N490 N 0.33863 0.11876 0.40061 0.0
N491 N 0.226 0.11518 0.25113 0.0
C492 C 0.31541 0.12197 0.3621 0.0
C493 C 0.25909 0.12124 0.28485 0.0
N494 N 0.31438 0.19383 0.39055 0.0
N495 N 0.28195 0.06724 0.24648 0.0
H496 H 0.20726 0.13461 0.25032 0.0
H497 H 0.21388 0.08788 0.22618 0.0
H498 H 0.30042 0.04752 0.24583 0.0
H499 H 0.26867 0.07058 0.21441 0.0
H500 H 0.34031 0.20056 0.41613 0.0
H501 H 0.30391 0.22039 0.38885 0.0
H502 H 0.34062 0.13631 0.43159 0.0
H503 H 0.35522 0.09736 0.40094 0.0
C504 C 0.95987 0.21258 0.37564 0.0
C505 C 0.97464 0.24327 0.33611 0.0
C506 C 0.91572 0.17297 0.28977 0.0
C507 C 0.90853 0.14079 0.32762 0.0
N508 N 0.9311 0.13084 0.40532 0.0
N509 N 0.96793 0.25277 0.25445 0.0
C510 C 0.93212 0.16087 0.37048 0.0
C511 C 0.95237 0.22357 0.29288 0.0
N512 N 0.97327 0.23326 0.4183 0.0
N513 N 0.88706 0.15543 0.25121 0.0
H514 H 0.99292 0.29022 0.2564 0.0
H515 H 0.95778 0.23956 0.2209 0.0
H516 H 0.85942 0.11903 0.24815 0.0
H517 H 0.88764 0.17782 0.22426 0.0
H518 H 0.9603 0.21325 0.44888 0.0
H519 H 0.99267 0.2712 0.42237 0.0
H520 H 0.95215 0.14391 0.43528 0.0
H521 H 0.91317 0.09286 0.40243 0.0
C522 C 0.24866 0.76517 0.39288 0.0
C523 C 0.23676 0.78765 0.35624 0.0
C524 C 0.17808 0.7063 0.32528 0.0
C525 C 0.19148 0.68384 0.36077 0.0
N526 N 0.24477 0.69148 0.42407 0.0
N527 N 0.19774 0.7804 0.28246 0.0
C528 C 0.22848 0.71324 0.39323 0.0
C529 C 0.20359 0.75836 0.32097 0.0
N530 N 0.27748 0.79324 0.42849 0.0
N531 N 0.14 0.67785 0.29636 0.0
H532 H 0.21628 0.81827 0.27778 0.0
H533 H 0.1782 0.76132 0.2533 0.0
H534 H 0.12147 0.6397 0.29746 0.0
H535 H 0.12444 0.69187 0.27346 0.0
H536 H 0.28297 0.77883 0.45896 0.0
H537 H 0.29346 0.83125 0.42899 0.0
H538 H 0.27515 0.71085 0.44532 0.0
H539 H 0.23005 0.65365 0.42606 0.0
C540 C 0.30283 0.51703 0.37144 0.0
C541 C 0.27838 0.47264 0.34615 0.0
C542 C 0.3579 0.48592 0.31851 0.0
C543 C 0.38225 0.53187 0.3412 0.0
N544 N 0.37715 0.59523 0.3826 0.0
N545 N 0.2821 0.422 0.28586 0.0
C546 C 0.35445 0.54862 0.36576 0.0
C547 C 0.30582 0.45913 0.31693 0.0
N548 N 0.27718 0.52816 0.40228 0.0
N549 N 0.38451 0.467 0.29955 0.0
H550 H 0.24418 0.40313 0.28187 0.0
H551 H 0.30012 0.41362 0.26053 0.0
H552 H 0.42265 0.48518 0.30016 0.0
H553 H 0.36877 0.43137 0.2871 0.0
H554 H 0.29361 0.55712 0.42545 0.0
H555 H 0.23959 0.50619 0.40725 0.0
H556 H 0.35838 0.61159 0.39633 0.0
H557 H 0.41469 0.61909 0.3794 0.0
C558 C 0.57806 0.89058 0.39366 0.0
C559 C 0.54187 0.88221 0.35975 0.0
C560 C 0.55825 0.82082 0.32421 0.0
C561 C 0.5884 0.82404 0.36251 0.0
N562 N 0.61906 0.85673 0.43831 0.0
N563 N 0.53393 0.86844 0.27752 0.0
C564 C 0.59546 0.85711 0.3987 0.0
C565 C 0.54076 0.85466 0.32047 0.0
N566 N 0.60237 0.9348 0.41526 0.0
N567 N 0.54697 0.78678 0.29038 0.0
H568 H 0.53553 0.90196 0.27209 0.0
H569 H 0.53652 0.85234 0.24708 0.0
H570 H 0.55872 0.76133 0.29034 0.0
H571 H 0.52142 0.7807 0.26449 0.0
H572 H 0.63216 0.94454 0.4372 0.0
H573 H 0.59742 0.964 0.4056 0.0
H574 H 0.62178 0.87771 0.46712 0.0
H575 H 0.63102 0.83164 0.44392 0.0
C576 C 0.56138 0.09243 0.66381 0.0
C577 C 0.59615 0.13647 0.64133 0.0
C578 C 0.52896 0.14596 0.60967 0.0
C579 C 0.49471 0.1054 0.63644 0.0
N580 N 0.47586 0.02991 0.67319 0.0
N581 N 0.61349 0.20733 0.59519 0.0
C582 C 0.51018 0.07554 0.65898 0.0
C583 C 0.57998 0.16344 0.61427 0.0
N584 N 0.57742 0.06783 0.69128 0.0
N585 N 0.51191 0.1665 0.57837 0.0
H586 H 0.65117 0.22144 0.59754 0.0
H587 H 0.60438 0.23173 0.57997 0.0
H588 H 0.47467 0.15158 0.57224 0.0
H589 H 0.53379 0.19371 0.5548 0.0
H590 H 0.5547 0.03926 0.7133 0.0
H591 H 0.61427 0.07798 0.69416 0.0
H592 H 0.48413 1.00422 0.68676 0.0
H593 H 0.43873 1.01607 0.6667 0.0
C594 C 0.93065 0.42252 0.69822 0.0
C595 C 0.96505 0.4217 0.66686 0.0
C596 C 0.97375 0.49691 0.63065 0.0
C597 C 0.93342 0.49204 0.65707 0.0
N598 N 0.86899 0.44517 0.71171 0.0
N599 N 1.02305 0.46123 0.60583 0.0
C600 C 0.91101 0.45377 0.68999 0.0
C601 C 0.98812 0.46023 0.63409 0.0
N602 N 0.91691 0.3933 0.7366 0.0
N603 N 0.99867 0.53706 0.60287 0.0
H604 H 0.03762 0.43836 0.61133 0.0
H605 H 0.03717 0.48399 0.57705 0.0
H606 H 0.98897 0.5641 0.59968 0.0
H607 H 1.03066 0.54542 0.58536 0.0
H608 H 0.89608 0.39561 0.76329 0.0
H609 H 0.93111 0.37065 0.74403 0.0
H610 H 0.84764 0.41401 0.7316 0.0
H611 H 0.85274 0.46663 0.70651 0.0
C612 C 0.65874 0.52818 0.69544 0.0
C613 C 0.66322 0.56411 0.66213 0.0
C614 C 0.59065 0.50001 0.62183 0.0
C615 C 0.58988 0.46432 0.65258 0.0
N616 N 0.62937 0.44286 0.71238 0.0
N617 N 0.63814 0.58115 0.58837 0.0
C618 C 0.6256 0.47803 0.6876 0.0
C619 C 0.63014 0.54939 0.62405 0.0
N620 N 0.68582 0.54162 0.73531 0.0
N621 N 0.55351 0.48673 0.59063 0.0
H622 H 0.6668 0.61715 0.58784 0.0
H623 H 0.61876 0.57065 0.55733 0.0
H624 H 0.52501 0.45073 0.58725 0.0
H625 H 0.54907 0.51181 0.57057 0.0
H626 H 0.67864 0.51797 0.76327 0.0
H627 H 0.71238 0.57721 0.743 0.0
H628 H 0.65883 0.45049 0.73403 0.0
H629 H 0.60574 0.40544 0.70806 0.0
C630 C 0.85439 0.04316 0.72277 0.0
C631 C 0.87328 1.02073 0.69332 0.0
C632 C 0.93499 0.10187 0.66399 0.0
C633 C 0.91666 0.12455 0.69421 0.0
N634 N 0.86834 0.11715 0.76133 0.0
N635 N 0.93821 0.02879 0.64409 0.0
C636 C 0.87921 0.09518 0.72636 0.0
C637 C 0.91574 0.05021 0.66656 0.0
N638 N 0.81155 1.0149 0.74594 0.0
N639 N 0.96882 0.12888 0.631 0.0
H640 H 0.92506 0.99117 0.64509 0.0
H641 H 0.97218 0.04852 0.62812 0.0
H642 H 0.98585 0.16673 0.62872 0.0
H643 H 0.97808 0.11346 0.60391 0.0
H644 H 0.79285 0.02928 0.76351 0.0
H645 H 0.7926 0.97677 0.74472 0.0
H646 H 0.84469 0.09788 0.78838 0.0
H647 H 0.88712 0.15497 0.76611 0.0
C648 C 0.97947 0.79986 0.65946 0.0
C649 C 0.95089 0.8061 0.69382 0.0
C650 C 1.02628 0.87554 0.72508 0.0
C651 C 0.05474 0.86492 0.69414 0.0
N652 N 0.05811 0.81042 0.63797 0.0
N653 N 0.94722 0.84776 0.76172 0.0
C654 C 1.03119 0.8252 0.6631 0.0
C655 C 0.97435 0.84357 0.72725 0.0
N656 N 0.95733 0.77145 0.62175 0.0
N657 N 0.04875 0.91684 0.75142 0.0
H658 H 0.90924 0.82583 0.76337 0.0
H659 H 0.96244 0.87068 0.7901 0.0
H660 H 0.08645 0.94071 0.75071 0.0
H661 H 1.02986 0.92943 0.77124 0.0
H662 H 0.97638 0.76961 0.59321 0.0
H663 H 0.91989 0.75445 0.61657 0.0
H664 H 0.04243 0.77825 0.61876 0.0
H665 H 0.09614 0.82746 0.63983 0.0
C666 C 0.25985 0.18913 0.64697 0.0
C667 C 0.25395 0.15638 0.6838 0.0
C668 C 0.1879 0.16782 0.71553 0.0
C669 C 0.19769 0.20456 0.68162 0.0
N670 N 0.24775 0.25498 0.61874 0.0
N671 N 0.21529 0.11734 0.75534 0.0
C672 C 0.23478 0.21628 0.64817 0.0
C673 C 0.21846 0.14619 0.71853 0.0
N674 N 0.28871 0.19353 0.61005 0.0
N675 N 0.14873 0.15297 0.74432 0.0
H676 H 0.23607 0.10002 0.75776 0.0
H677 H 0.19442 0.11287 0.78467 0.0
H678 H 0.12599 0.16818 0.74322 0.0
H679 H 0.13643 0.12318 0.76673 0.0
H680 H 0.2902 0.21229 0.57976 0.0
H681 H 0.30778 0.17457 0.60776 0.0
H682 H 0.27843 0.26929 0.59748 0.0
H683 H 0.23025 0.27564 0.61816 0.0
C684 C 0.104 0.43995 0.215 0.0
C685 C 0.10567 0.39522 0.21489 0.0
C686 C 0.06715 0.3781 0.13712 0.0
C687 C 0.06626 0.42288 0.13662 0.0
N688 N 0.08941 0.49937 0.17322 0.0
N689 N 0.10802 0.33538 0.16518 0.0
C690 C 0.08631 0.45457 0.17514 0.0
C691 C 0.09238 0.36806 0.173 0.0
N692 N 0.11922 0.46894 0.25305 0.0
N693 N 0.04451 0.34476 0.1027 0.0
H694 H 0.13181 0.33132 0.18752 0.0
H695 H 0.10371 0.31803 0.13352 0.0
H696 H 1.03074 0.35224 0.07296 0.0
H697 H 0.03817 0.30903 0.10465 0.0
H698 H 0.1111 0.49657 0.25917 0.0
H699 H 0.13978 0.46512 0.279 0.0
H700 H 0.10806 0.52704 0.19726 0.0
H701 H 0.07576 0.5103 0.14545 0.0
C702 C 0.6708 0.70202 0.20213 0.0
C703 C 0.65482 0.73683 0.20502 0.0
C704 C 0.59795 0.69194 0.13998 0.0
C705 C 0.61364 0.65674 0.14097 0.0
N706 N 0.64438 0.61689 0.19074 0.0
N707 N 0.59355 0.75739 0.18065 0.0
C708 C 0.64135 0.65734 0.17951 0.0
C709 C 0.61515 0.72957 0.17527 0.0
N710 N 0.7165 0.71305 0.2161 0.0
N711 N 0.56682 0.68934 0.10595 0.0
H712 H 0.60468 0.78457 0.20554 0.0
H713 H 0.56233 0.7511 0.16256 0.0
H714 H 0.54962 0.65894 0.08442 0.0
H715 H 0.55841 0.71684 0.0994 0.0
H716 H 0.72962 0.68892 0.21091 0.0
H717 H 0.74347 0.74843 0.22484 0.0
H718 H 0.66396 0.61594 0.21961 0.0
H719 H 0.62351 0.58376 0.17345 0.0
C720 C 0.35529 0.97462 0.13462 0.0
C721 C 0.40676 0.99379 0.13986 0.0
C722 C 0.392 0.98868 0.22359 0.0
C723 C 0.34036 0.95861 0.2178 0.0
N724 N 0.27479 0.91593 0.16286 0.0
N725 N 0.4728 1.0139 0.19346 0.0
C726 C 0.32276 0.94847 0.17167 0.0
C727 C 0.42452 0.99797 0.18566 0.0
N728 N 0.33771 0.98739 0.0973 0.0
N729 N 0.40982 1.01571 0.26241 0.0
H730 H 0.49775 0.02228 0.16657 0.0
H731 H 0.48649 1.01479 0.22662 0.0
H732 H 0.38619 1.01828 0.28543 0.0
H733 H 0.44673 0.04142 0.26699 0.0
H734 H 0.30064 0.97564 0.09275 0.0
H735 H 0.3611 1.01722 0.07696 0.0
H736 H 0.26152 0.90584 0.12919 0.0
H737 H 0.25008 0.89575 0.18903 0.0
C738 C 0.45139 0.05714 0.83421 0.0
C739 C 0.43628 0.06012 0.87967 0.0
C740 C 0.39544 0.10316 0.84608 0.0
C741 C 0.40542 0.09496 0.80038 0.0
N742 N 0.4234 0.04153 0.75539 0.0
N743 N 0.37121 0.06335 0.91964 0.0
C744 C 0.42876 0.06634 0.79525 0.0
C745 C 0.40267 0.07776 0.88359 0.0
N746 N 0.48596 0.04389 0.82755 0.0
N747 N 0.37638 0.13288 0.85402 0.0
H748 H 0.37058 0.03904 0.9441 0.0
H749 H 0.3426 0.07087 0.92177 0.0
H750 H 0.36999 0.1516 0.82745 0.0
H751 H 0.37123 0.1418 0.88745 0.0
H752 H 0.50005 0.04432 0.79483 0.0
H753 H 0.50333 0.03688 0.85493 0.0
H754 H 0.43396 1.01513 0.75312 0.0
H755 H 0.40089 0.04058 0.72858 0.0
C756 C 1.02278 0.41612 0.83294 0.0
C757 C 0.99544 0.40309 0.87463 0.0
C758 C 0.93767 0.32267 0.83864 0.0
C759 C 0.96945 0.33333 0.80012 0.0
N760 N 0.04655 0.39048 0.76432 0.0
N761 N 0.91447 0.35289 0.90558 0.0
C762 C 1.01297 0.3802 0.79834 0.0
C763 C 0.9493 0.35867 0.87449 0.0
N764 N 0.05526 0.4643 0.82401 0.0
N765 N 0.89694 0.27743 0.84177 0.0
H766 H 0.91916 0.38064 0.92783 0.0
H767 H 0.87869 0.32382 0.90496 0.0
H768 H 0.88666 0.25139 0.81565 0.0
H769 H 0.87532 0.26449 0.87131 0.0
H770 H 0.07268 0.47701 0.79225 0.0
H771 H 0.05894 0.49243 0.8454 0.0
H772 H 0.08169 0.4208 0.76501 0.0
H773 H 0.04105 0.36681 0.73744 0.0
C774 C 0.67678 0.61927 0.79831 0.0
C775 C 0.7287 0.65348 0.79763 0.0
C776 C 0.72124 0.66472 0.88087 0.0
C777 C 0.6718 0.62507 0.88195 0.0
N778 N 0.6089 0.5558 0.84132 0.0
N779 N 0.80082 0.7018 0.84342 0.0
C780 C 0.65235 0.59881 0.84076 0.0
C781 C 0.75129 0.6728 0.84086 0.0
N782 N 0.64877 0.6095 0.75943 0.0
N783 N 0.73817 0.69827 0.91541 0.0
H784 H 0.82335 0.70927 0.81467 0.0
H785 H 0.81928 0.71418 0.87483 0.0
H786 H 0.71583 0.69655 0.94229 0.0
H787 H 0.77212 0.73023 0.91442 0.0
H788 H 0.6107 0.58838 0.7599 0.0
H789 H 0.66213 0.62656 0.72797 0.0
H790 H 0.59513 0.53367 0.81212 0.0
H791 H 0.58965 0.5402 0.87184 0.0
C792 C 0.77261 0.74591 0.45612 0.0
C793 C 0.74163 0.76682 0.45992 0.0
C794 C 0.74132 0.75294 0.54366 0.0
C795 C 0.78004 0.74125 0.54004 0.0
N796 N 0.84079 0.74142 0.48853 0.0
N797 N 0.70538 0.79916 0.51114 0.0
C798 C 0.7996 0.74445 0.49515 0.0
C799 C 0.72992 0.77422 0.50504 0.0
N800 N 0.77125 0.72063 0.41769 0.0
N801 N 0.71237 0.74101 0.5819 0.0
H802 H 0.69604 0.81425 0.48335 0.0
H803 H 0.69913 0.80884 0.5438 0.0
H804 H 0.71641 0.7245 0.61124 0.0
H805 H 0.68099 0.74412 0.58289 0.0
H806 H 0.79173 0.70312 0.41442 0.0
H807 H 0.74312 0.7093 0.39383 0.0
H808 H 0.85677 0.74654 0.45591 0.0
H809 H 0.86132 0.73851 0.51532 0.0
C810 C 0.34347 0.03811 0.47398 0.0
C811 C 0.29376 0.99931 0.47241 0.0
C812 C 0.27677 0.03897 0.53841 0.0
C813 C 0.32737 0.0751 0.54169 0.0
N814 N 0.39962 0.12159 0.49521 0.0
N815 N 0.21344 0.96167 0.50573 0.0
C816 C 0.35835 0.07804 0.5049 0.0
C817 C 0.26045 0.99972 0.50523 0.0
N818 N 0.37728 0.03805 0.44499 0.0
N819 N 0.24356 0.04514 0.56319 0.0
H820 H 0.20035 0.93356 0.48144 0.0
H821 H 0.18854 0.95616 0.53181 0.0
H822 H 0.25347 0.0756 0.58385 0.0
H823 H 0.20591 0.02391 0.55856 0.0
H824 H 0.41489 0.05938 0.45036 0.0
H825 H 0.36763 1.01663 0.41575 0.0
H826 H 0.42213 0.12711 0.46689 0.0
H827 H 0.40655 0.15461 0.50964 0.0
C828 C 1.02115 0.26456 0.52924 0.0
C829 C 1.0038 0.29497 0.54814 0.0
C830 C 0.07191 0.36502 0.50799 0.0
C831 C 0.08344 0.33399 0.48185 0.0
N832 N 0.07028 0.2529 0.47077 0.0
N833 N 1.0082 0.374 0.54329 0.0
C834 C 0.05863 0.28332 0.49386 0.0
C835 C 1.02743 0.34481 0.5335 0.0
N836 N 1.00052 0.2171 0.5437 0.0
N837 N 0.10488 0.41375 0.51211 0.0
H838 H 0.97756 0.36364 0.56365 0.0
H839 H 1.02109 0.40802 0.52734 0.0
H840 H 0.14132 0.42898 0.50226 0.0
H841 H 0.09864 0.43697 0.53293 0.0
H842 H 1.01492 0.19453 0.53636 0.0
H843 H 0.96928 0.20057 0.56425 0.0
H844 H 0.05035 0.21492 0.4732 0.0
H845 H 0.09949 0.26601 0.44766 0.0
loop_
_geom_bond_atom_site_label_1
_geom_bond_atom_site_label_2
_geom_bond_distance
_geom_bond_site_symmetry_2
_ccdc_geom_bond_type
C0 Eu1 2.835 . S
C0 C2 1.500 . S
C0 O20 1.257 1_554 S
C0 O21 1.260 . S
Eu1 C0 2.835 . S
Eu1 O20 2.473 1_554 S
Eu1 O21 2.480 . S
Eu1 O22 2.430 . S
Eu1 O23 2.670 1_655 S
Eu1 O24 2.394 . S
Eu1 O29 2.355 1_554 S
Eu1 O31 2.374 1_654 S
C2 C0 1.500 . S
C2 C3 1.377 . S
C2 C7 1.377 1_554 S
C3 C2 1.377 . S
C3 C4 1.395 . S
C3 H32 0.931 . S
C4 C3 1.395 . S
C4 C5 1.383 . S
C4 H33 0.931 . S
C5 C4 1.383 . S
C5 C6 1.394 1_554 S
C6 C5 1.394 1_556 S
C6 C7 1.378 . S
C6 H34 0.931 . S
C7 C2 1.377 1_556 S
C7 C6 1.378 . S
C7 H35 0.931 . S
C8 O22 1.259 1_455 S
C8 O23 1.270 . S
C9 O24 1.251 . S
C9 O25 1.251 . S
C10 Eu11 2.835 . S
C10 C12 1.500 . S
C10 O26 1.257 1_556 S
C10 O27 1.260 . S
Eu11 C10 2.835 . S
Eu11 O23 2.355 1_556 S
Eu11 O25 2.374 1_456 S
Eu11 O26 2.473 1_556 S
Eu11 O27 2.480 . S
Eu11 O28 2.430 . S
Eu11 O29 2.670 1_455 S
Eu11 O30 2.394 . S
C12 C10 1.500 . S
C12 C13 1.377 . S
C12 C17 1.377 1_556 S
C13 C12 1.377 . S
C13 C14 1.395 . S
C13 H36 0.931 . S
C14 C13 1.395 . S
C14 C15 1.383 . S
C14 H37 0.931 . S
C15 C14 1.383 . S
C15 C16 1.394 1_556 S
C16 C15 1.394 1_554 S
C16 C17 1.378 . S
C16 H38 0.931 . S
C17 C12 1.377 1_554 S
C17 C16 1.378 . S
C17 H39 0.931 . S
C18 O28 1.259 1_655 S
C18 O29 1.270 . S
C19 O30 1.251 . S
C19 O31 1.251 . S
O20 C0 1.257 1_556 S
O20 Eu1 2.473 1_556 S
O21 C0 1.260 . S
O21 Eu1 2.480 . S
O22 Eu1 2.430 . S
O22 C8 1.259 1_655 S
O23 Eu1 2.670 1_455 S
O23 C8 1.270 . S
O23 Eu11 2.355 1_554 S
O24 Eu1 2.394 . S
O24 C9 1.251 . S
O25 C9 1.251 . S
O25 Eu11 2.374 1_654 S
O26 C10 1.257 1_554 S
O26 Eu11 2.473 1_554 S
O27 C10 1.260 . S
O27 Eu11 2.480 . S
O28 Eu11 2.430 . S
O28 C18 1.259 1_455 S
O29 Eu1 2.355 1_556 S
O29 Eu11 2.670 1_655 S
O29 C18 1.270 . S
O30 Eu11 2.394 . S
O30 C19 1.251 . S
O31 Eu1 2.374 1_456 S
O31 C19 1.251 . S
H32 C3 0.931 . S
H33 C4 0.931 . S
H34 C6 0.931 . S
H35 C7 0.931 . S
H36 C13 0.931 . S
H37 C14 0.931 . S
H38 C16 0.931 . S
H39 C17 0.931 . S
C40 Eu41 2.835 . S
C40 C42 1.500 . S
C40 O60 1.257 1_554 S
C40 O61 1.260 . S
Eu41 C40 2.835 . S
Eu41 O60 2.473 1_554 S
Eu41 O61 2.480 . S
Eu41 O62 2.430 . S
Eu41 O63 2.670 . S
Eu41 O64 2.394 . S
Eu41 O69 2.355 1_554 S
Eu41 O71 2.374 1_554 S
C42 C40 1.500 . S
C42 C43 1.377 . S
C42 C47 1.377 1_554 S
C43 C42 1.377 . S
C43 C44 1.395 . S
C43 H72 0.931 . S
C44 C43 1.395 . S
C44 C45 1.383 . S
C44 H73 0.931 . S
C45 C44 1.383 . S
C45 C46 1.394 1_554 S
C46 C45 1.394 1_556 S
C46 C47 1.378 . S
C46 H74 0.931 . S
C47 C42 1.377 1_556 S
C47 C46 1.378 . S
C47 H75 0.931 . S
C48 O62 1.259 . S
C48 O63 1.270 . S
C49 O64 1.251 . S
C49 O65 1.251 . S
C50 Eu51 2.835 . S
C50 C52 1.500 . S
C50 O66 1.257 1_556 S
C50 O67 1.260 . S
Eu51 C50 2.835 . S
Eu51 O63 2.355 1_556 S
Eu51 O65 2.374 1_556 S
Eu51 O66 2.473 1_556 S
Eu51 O67 2.480 . S
Eu51 O68 2.430 . S
Eu51 O69 2.670 . S
Eu51 O70 2.394 . S
C52 C50 1.500 . S
C52 C53 1.377 . S
C52 C57 1.377 1_556 S
C53 C52 1.377 . S
C53 C54 1.395 . S
C53 H76 0.931 . S
C54 C53 1.395 . S
C54 C55 1.383 . S
C54 H77 0.931 . S
C55 C54 1.383 . S
C55 C56 1.394 1_556 S
C56 C55 1.394 1_554 S
C56 C57 1.378 . S
C56 H78 0.931 . S
C57 C52 1.377 1_554 S
C57 C56 1.378 . S
C57 H79 0.931 . S
C58 O68 1.259 . S
C58 O69 1.270 . S
C59 O70 1.251 . S
C59 O71 1.251 . S
O60 C40 1.257 1_556 S
O60 Eu41 2.473 1_556 S
O61 C40 1.260 . S
O61 Eu41 2.480 . S
O62 Eu41 2.430 . S
O62 C48 1.259 . S
O63 Eu41 2.670 . S
O63 C48 1.270 . S
O63 Eu51 2.355 1_554 S
O64 Eu41 2.394 . S
O64 C49 1.251 . S
O65 C49 1.251 . S
O65 Eu51 2.374 1_554 S
O66 C50 1.257 1_554 S
O66 Eu51 2.473 1_554 S
O67 C50 1.260 . S
O67 Eu51 2.480 . S
O68 Eu51 2.430 . S
O68 C58 1.259 . S
O69 Eu41 2.355 1_556 S
O69 Eu51 2.670 . S
O69 C58 1.270 . S
O70 Eu51 2.394 . S
O70 C59 1.251 . S
O71 Eu41 2.374 1_556 S
O71 C59 1.251 . S
H72 C43 0.931 . S
H73 C44 0.931 . S
H74 C46 0.931 . S
H75 C47 0.931 . S
H76 C53 0.931 . S
H77 C54 0.931 . S
H78 C56 0.931 . S
H79 C57 0.931 . S
C80 Eu81 2.835 . S
C80 C82 1.500 . S
C80 O100 1.257 1_554 S
C80 O101 1.260 . S
Eu81 C80 2.835 . S
Eu81 O100 2.473 1_554 S
Eu81 O101 2.480 . S
Eu81 O102 2.430 . S
Eu81 O103 2.670 1_545 S
Eu81 O104 2.394 . S
Eu81 O109 2.355 1_554 S
Eu81 O111 2.374 1_544 S
C82 C80 1.500 . S
C82 C83 1.377 . S
C82 C87 1.377 1_554 S
C83 C82 1.377 . S
C83 C84 1.395 . S
C83 H112 0.931 . S
C84 C83 1.395 . S
C84 C85 1.383 . S
C84 H113 0.931 . S
C85 C84 1.383 . S
C85 C86 1.394 1_554 S
C86 C85 1.394 1_556 S
C86 C87 1.378 . S
C86 H114 0.931 . S
C87 C82 1.377 1_556 S
C87 C86 1.378 . S
C87 H115 0.931 . S
C88 O102 1.271 . S
C88 O103 1.265 1_545 S
C89 O104 1.251 . S
C89 O105 1.251 . S
C90 Eu91 2.835 . S
C90 C92 1.500 . S
C90 O106 1.257 1_556 S
C90 O107 1.260 . S
Eu91 C90 2.835 . S
Eu91 O103 2.355 1_556 S
Eu91 O105 2.374 1_566 S
Eu91 O106 2.473 1_556 S
Eu91 O107 2.480 . S
Eu91 O108 2.430 . S
Eu91 O109 2.670 1_565 S
Eu91 O110 2.394 . S
C92 C90 1.500 . S
C92 C93 1.377 . S
C92 C97 1.377 1_556 S
C93 C92 1.377 . S
C93 C94 1.395 . S
C93 H116 0.931 . S
C94 C93 1.395 . S
C94 C95 1.383 . S
C94 H117 0.931 . S
C95 C94 1.383 . S
C95 C96 1.394 1_556 S
C96 C95 1.394 1_554 S
C96 C97 1.378 . S
C96 H118 0.931 . S
C97 C92 1.377 1_554 S
C97 C96 1.378 . S
C97 H119 0.931 . S
C98 O108 1.259 1_545 S
C98 O109 1.270 . S
C99 O110 1.251 . S
C99 O111 1.251 . S
O100 C80 1.257 1_556 S
O100 Eu81 2.473 1_556 S
O101 C80 1.260 . S
O101 Eu81 2.480 . S
O102 Eu81 2.430 . S
O102 C88 1.271 . S
O103 Eu81 2.670 1_565 S
O103 C88 1.265 1_565 S
O103 Eu91 2.355 1_554 S
O104 Eu81 2.394 . S
O104 C89 1.251 . S
O105 C89 1.251 . S
O105 Eu91 2.374 1_544 S
O106 C90 1.257 1_554 S
O106 Eu91 2.473 1_554 S
O107 C90 1.260 . S
O107 Eu91 2.480 . S
O108 Eu91 2.430 . S
O108 C98 1.259 1_565 S
O109 Eu81 2.355 1_556 S
O109 Eu91 2.670 1_545 S
O109 C98 1.270 . S
O110 Eu91 2.394 . S
O110 C99 1.251 . S
O111 Eu81 2.374 1_566 S
O111 C99 1.251 . S
H112 C83 0.931 . S
H113 C84 0.931 . S
H114 C86 0.931 . S
H115 C87 0.931 . S
H116 C93 0.931 . S
H117 C94 0.931 . S
H118 C96 0.931 . S
H119 C97 0.931 . S
C120 Eu121 2.835 . S
C120 C122 1.500 . S
C120 O140 1.257 . S
C120 O141 1.260 . S
Eu121 C120 2.835 . S
Eu121 O140 2.473 . S
Eu121 O141 2.480 . S
Eu121 O142 2.430 . S
Eu121 O143 2.670 . S
Eu121 O144 2.394 . S
Eu121 O149 2.355 . S
Eu121 O151 2.374 . S
C122 C120 1.500 . S
C122 C123 1.377 . S
C122 C127 1.377 . S
C123 C122 1.377 . S
C123 C124 1.395 . S
C123 H152 0.931 . S
C124 C123 1.395 . S
C124 C125 1.383 . S
C124 H153 0.931 . S
C125 C124 1.383 . S
C125 C126 1.394 . S
C126 C125 1.394 . S
C126 C127 1.378 . S
C126 H154 0.931 . S
C127 C122 1.377 . S
C127 C126 1.378 . S
C127 H155 0.931 . S
C128 O142 1.259 . S
C128 O143 1.270 . S
C129 O144 1.251 . S
C129 O145 1.251 . S
C130 Eu131 2.835 . S
C130 C132 1.500 . S
C130 O146 1.257 . S
C130 O147 1.260 . S
Eu131 C130 2.835 . S
Eu131 O143 2.355 . S
Eu131 O145 2.374 . S
Eu131 O146 2.473 . S
Eu131 O147 2.480 . S
Eu131 O148 2.430 . S
Eu131 O149 2.670 . S
Eu131 O150 2.394 . S
C132 C130 1.500 . S
C132 C133 1.377 . S
C132 C137 1.377 . S
C133 C132 1.377 . S
C133 C134 1.395 1_565 S
C133 H156 0.931 . S
C134 C133 1.395 1_545 S
C134 C135 1.383 . S
C134 H157 0.931 . S
C135 C134 1.383 . S
C135 C136 1.394 . S
C136 C135 1.394 . S
C136 C137 1.378 1_545 S
C136 H158 0.931 . S
C137 C132 1.377 . S
C137 C136 1.378 1_565 S
C137 H159 0.931 . S
C138 O148 1.259 . S
C138 O149 1.270 . S
C139 O150 1.251 . S
C139 O151 1.251 . S
O140 C120 1.257 . S
O140 Eu121 2.473 . S
O141 C120 1.260 . S
O141 Eu121 2.480 . S
O142 Eu121 2.430 . S
O142 C128 1.259 . S
O143 Eu121 2.670 . S
O143 C128 1.270 . S
O143 Eu131 2.355 . S
O144 Eu121 2.394 . S
O144 C129 1.251 . S
O145 C129 1.251 . S
O145 Eu131 2.374 . S
O146 C130 1.257 . S
O146 Eu131 2.473 . S
O147 C130 1.260 . S
O147 Eu131 2.480 . S
O148 Eu131 2.430 . S
O148 C138 1.259 . S
O149 Eu121 2.355 . S
O149 Eu131 2.670 . S
O149 C138 1.270 . S
O150 Eu131 2.394 . S
O150 C139 1.251 . S
O151 Eu121 2.374 . S
O151 C139 1.251 . S
H152 C123 0.931 . S
H153 C124 0.931 . S
H154 C126 0.931 . S
H155 C127 0.931 . S
H156 C133 0.931 . S
H157 C134 0.931 . S
H158 C136 0.931 . S
H159 C137 0.931 . S
C160 Eu161 2.835 . S
C160 C162 1.500 . S
C160 O180 1.257 . S
C160 O181 1.260 . S
Eu161 C160 2.835 . S
Eu161 O180 2.473 . S
Eu161 O181 2.480 . S
Eu161 O182 2.430 . S
Eu161 O183 2.670 . S
Eu161 O184 2.394 . S
Eu161 O189 2.355 . S
Eu161 O191 2.374 . S
C162 C160 1.500 . S
C162 C163 1.377 . S
C162 C167 1.377 . S
C163 C162 1.377 . S
C163 C164 1.395 . S
C163 H192 0.931 . S
C164 C163 1.395 . S
C164 C165 1.383 . S
C164 H193 0.931 . S
C165 C164 1.383 . S
C165 C166 1.394 . S
C166 C165 1.394 . S
C166 C167 1.378 . S
C166 H194 0.931 . S
C167 C162 1.377 . S
C167 C166 1.378 . S
C167 H195 0.931 . S
C168 O182 1.259 . S
C168 O183 1.270 . S
C169 O184 1.251 . S
C169 O185 1.251 . S
C170 Eu171 2.835 . S
C170 C172 1.500 . S
C170 O186 1.257 . S
C170 O187 1.260 . S
Eu171 C170 2.835 . S
Eu171 O183 2.355 . S
Eu171 O185 2.374 . S
Eu171 O186 2.473 . S
Eu171 O187 2.480 . S
Eu171 O188 2.430 . S
Eu171 O189 2.670 . S
Eu171 O190 2.394 . S
C172 C170 1.500 . S
C172 C173 1.377 . S
C172 C177 1.377 . S
C173 C172 1.377 . S
C173 C174 1.395 1_455 S
C173 H196 0.931 . S
C174 C173 1.395 1_655 S
C174 C175 1.383 . S
C174 H197 0.931 . S
C175 C174 1.383 . S
C175 C176 1.394 . S
C176 C175 1.394 . S
C176 C177 1.378 1_655 S
C176 H198 0.931 . S
C177 C172 1.377 . S
C177 C176 1.378 1_455 S
C177 H199 0.931 . S
C178 O188 1.259 . S
C178 O189 1.270 . S
C179 O190 1.251 . S
C179 O191 1.251 . S
O180 C160 1.257 . S
O180 Eu161 2.473 . S
O181 C160 1.260 . S
O181 Eu161 2.480 . S
O182 Eu161 2.430 . S
O182 C168 1.259 . S
O183 Eu161 2.670 . S
O183 C168 1.270 . S
O183 Eu171 2.355 . S
O184 Eu161 2.394 . S
O184 C169 1.251 . S
O185 C169 1.251 . S
O185 Eu171 2.374 . S
O186 C170 1.257 . S
O186 Eu171 2.473 . S
O187 C170 1.260 . S
O187 Eu171 2.480 . S
O188 Eu171 2.430 . S
O188 C178 1.259 . S
O189 Eu161 2.355 . S
O189 Eu171 2.670 . S
O189 C178 1.270 . S
O190 Eu171 2.394 . S
O190 C179 1.251 . S
O191 Eu161 2.374 . S
O191 C179 1.251 . S
H192 C163 0.931 . S
H193 C164 0.931 . S
H194 C166 0.931 . S
H195 C167 0.931 . S
H196 C173 0.931 . S
H197 C174 0.931 . S
H198 C176 0.931 . S
H199 C177 0.931 . S
C200 Eu201 2.835 . S
C200 C202 1.500 . S
C200 O220 1.257 . S
C200 O221 1.260 . S
Eu201 C200 2.835 . S
Eu201 O220 2.473 . S
Eu201 O221 2.480 . S
Eu201 O222 2.430 . S
Eu201 O223 2.670 . S
Eu201 O224 2.394 . S
Eu201 O229 2.355 . S
Eu201 O231 2.374 . S
C202 C200 1.500 . S
C202 C203 1.377 . S
C202 C207 1.377 . S
C203 C202 1.377 . S
C203 C204 1.395 . S
C203 H232 0.931 . S
C204 C203 1.395 . S
C204 C205 1.383 . S
C204 H233 0.931 . S
C205 C204 1.383 . S
C205 C206 1.394 . S
C206 C205 1.394 . S
C206 C207 1.378 . S
C206 H234 0.931 . S
C207 C202 1.377 . S
C207 C206 1.378 . S
C207 H235 0.931 . S
C208 O222 1.259 . S
C208 O223 1.270 . S
C209 O224 1.251 . S
C209 O225 1.251 . S
C210 Eu211 2.835 . S
C210 C212 1.500 . S
C210 O226 1.257 . S
C210 O227 1.260 . S
Eu211 C210 2.835 . S
Eu211 O223 2.355 . S
Eu211 O225 2.374 . S
Eu211 O226 2.473 . S
Eu211 O227 2.480 . S
Eu211 O228 2.430 . S
Eu211 O229 2.670 . S
Eu211 O230 2.394 . S
C212 C210 1.500 . S
C212 C213 1.377 . S
C212 C217 1.377 . S
C213 C212 1.377 . S
C213 C214 1.395 . S
C213 H236 0.931 . S
C214 C213 1.395 . S
C214 C215 1.383 . S
C214 H237 0.931 . S
C215 C214 1.383 . S
C215 C216 1.394 . S
C216 C215 1.394 . S
C216 C217 1.378 . S
C216 H238 0.931 . S
C217 C212 1.377 . S
C217 C216 1.378 . S
C217 H239 0.931 . S
C218 O228 1.259 . S
C218 O229 1.270 . S
C219 O230 1.251 . S
C219 O231 1.251 . S
O220 C200 1.257 . S
O220 Eu201 2.473 . S
O221 C200 1.260 . S
O221 Eu201 2.480 . S
O222 Eu201 2.430 . S
O222 C208 1.259 . S
O223 Eu201 2.670 . S
O223 C208 1.270 . S
O223 Eu211 2.355 . S
O224 Eu201 2.394 . S
O224 C209 1.251 . S
O225 C209 1.251 . S
O225 Eu211 2.374 . S
O226 C210 1.257 . S
O226 Eu211 2.473 . S
O227 C210 1.260 . S
O227 Eu211 2.480 . S
O228 Eu211 2.430 . S
O228 C218 1.259 . S
O229 Eu201 2.355 . S
O229 Eu211 2.670 . S
O229 C218 1.270 . S
O230 Eu211 2.394 . S
O230 C219 1.251 . S
O231 Eu201 2.374 . S
O231 C219 1.251 . S
H232 C203 0.931 . S
H233 C204 0.931 . S
H234 C206 0.931 . S
H235 C207 0.931 . S
H236 C213 0.931 . S
H237 C214 0.931 . S
H238 C216 0.931 . S
H239 C217 0.931 . S
C240 Eu241 2.835 1_565 S
C240 C242 1.500 . S
C240 O260 1.257 1_565 S
C240 O261 1.260 . S
Eu241 C240 2.835 1_545 S
Eu241 O260 2.473 . S
Eu241 O261 2.480 1_545 S
Eu241 O262 2.430 . S
Eu241 O263 2.670 . S
Eu241 O264 2.394 . S
Eu241 O269 2.355 . S
Eu241 O271 2.374 . S
C242 C240 1.500 . S
C242 C243 1.377 . S
C242 C247 1.377 . S
C243 C242 1.377 . S
C243 C244 1.395 . S
C243 H272 0.931 . S
C244 C243 1.395 . S
C244 C245 1.383 . S
C244 H273 0.931 . S
C245 C244 1.383 . S
C245 C246 1.394 . S
C246 C245 1.394 . S
C246 C247 1.378 . S
C246 H274 0.931 . S
C247 C242 1.377 . S
C247 C246 1.378 . S
C247 H275 0.931 . S
C248 O262 1.259 . S
C248 O263 1.270 . S
C249 O264 1.251 . S
C249 O265 1.251 . S
C250 Eu251 2.835 . S
C250 C252 1.500 . S
C250 O266 1.257 . S
C250 O267 1.260 . S
Eu251 C250 2.835 . S
Eu251 O263 2.355 . S
Eu251 O265 2.374 . S
Eu251 O266 2.473 . S
Eu251 O267 2.480 . S
Eu251 O268 2.430 . S
Eu251 O269 2.670 . S
Eu251 O270 2.394 . S
C252 C250 1.500 . S
C252 C253 1.377 . S
C252 C257 1.377 . S
C253 C252 1.377 . S
C253 C254 1.395 . S
C253 H276 0.931 . S
C254 C253 1.395 . S
C254 C255 1.383 . S
C254 H277 0.931 . S
C255 C254 1.383 . S
C255 C256 1.394 . S
C256 C255 1.394 . S
C256 C257 1.378 . S
C256 H278 0.931 . S
C257 C252 1.377 . S
C257 C256 1.378 . S
C257 H279 0.931 . S
C258 O268 1.259 . S
C258 O269 1.270 . S
C259 O270 1.251 . S
C259 O271 1.251 . S
O260 C240 1.257 1_545 S
O260 Eu241 2.473 . S
O261 C240 1.260 . S
O261 Eu241 2.480 1_565 S
O262 Eu241 2.430 . S
O262 C248 1.259 . S
O263 Eu241 2.670 . S
O263 C248 1.270 . S
O263 Eu251 2.355 . S
O264 Eu241 2.394 . S
O264 C249 1.251 . S
O265 C249 1.251 . S
O265 Eu251 2.374 . S
O266 C250 1.257 . S
O266 Eu251 2.473 . S
O267 C250 1.260 . S
O267 Eu251 2.480 . S
O268 Eu251 2.430 . S
O268 C258 1.259 . S
O269 Eu241 2.355 . S
O269 Eu251 2.670 . S
O269 C258 1.270 . S
O270 Eu251 2.394 . S
O270 C259 1.251 . S
O271 Eu241 2.374 . S
O271 C259 1.251 . S
H272 C243 0.931 . S
H273 C244 0.931 . S
H274 C246 0.931 . S
H275 C247 0.931 . S
H276 C253 0.931 . S
H277 C254 0.931 . S
H278 C256 0.931 . S
H279 C257 0.931 . S
C280 Eu281 2.835 1_455 S
C280 C282 1.500 . S
C280 O300 1.257 . S
C280 O301 1.260 . S
Eu281 C280 2.835 1_655 S
Eu281 O300 2.473 1_655 S
Eu281 O301 2.480 1_655 S
Eu281 O302 2.430 . S
Eu281 O303 2.670 . S
Eu281 O304 2.394 . S
Eu281 O309 2.355 . S
Eu281 O311 2.374 . S
C282 C280 1.500 . S
C282 C283 1.377 . S
C282 C287 1.377 . S
C283 C282 1.377 . S
C283 C284 1.395 . S
C283 H312 0.931 . S
C284 C283 1.395 . S
C284 C285 1.383 . S
C284 H313 0.931 . S
C285 C284 1.383 . S
C285 C286 1.394 . S
C286 C285 1.394 . S
C286 C287 1.378 . S
C286 H314 0.931 . S
C287 C282 1.377 . S
C287 C286 1.378 . S
C287 H315 0.931 . S
C288 O302 1.259 . S
C288 O303 1.270 . S
C289 O304 1.251 . S
C289 O305 1.251 . S
C290 Eu291 2.835 . S
C290 C292 1.500 . S
C290 O306 1.257 . S
C290 O307 1.260 . S
Eu291 C290 2.835 . S
Eu291 O303 2.355 . S
Eu291 O305 2.374 . S
Eu291 O306 2.473 . S
Eu291 O307 2.480 . S
Eu291 O308 2.430 . S
Eu291 O309 2.670 . S
Eu291 O310 2.394 . S
C292 C290 1.500 . S
C292 C293 1.377 . S
C292 C297 1.377 . S
C293 C292 1.377 . S
C293 C294 1.395 . S
C293 H316 0.931 . S
C294 C293 1.395 . S
C294 C295 1.383 . S
C294 H317 0.931 . S
C295 C294 1.383 . S
C295 C296 1.394 . S
C296 C295 1.394 . S
C296 C297 1.378 . S
C296 H318 0.931 . S
C297 C292 1.377 . S
C297 C296 1.378 . S
C297 H319 0.931 . S
C298 O308 1.259 . S
C298 O309 1.270 . S
C299 O310 1.251 . S
C299 O311 1.251 . S
O300 C280 1.257 . S
O300 Eu281 2.473 1_455 S
O301 C280 1.260 . S
O301 Eu281 2.480 1_455 S
O302 Eu281 2.430 . S
O302 C288 1.259 . S
O303 Eu281 2.670 . S
O303 C288 1.270 . S
O303 Eu291 2.355 . S
O304 Eu281 2.394 . S
O304 C289 1.251 . S
O305 C289 1.251 . S
O305 Eu291 2.374 . S
O306 C290 1.257 . S
O306 Eu291 2.473 . S
O307 C290 1.260 . S
O307 Eu291 2.480 . S
O308 Eu291 2.430 . S
O308 C298 1.259 . S
O309 Eu281 2.355 . S
O309 Eu291 2.670 . S
O309 C298 1.270 . S
O310 Eu291 2.394 . S
O310 C299 1.251 . S
O311 Eu281 2.374 . S
O311 C299 1.251 . S
H312 C283 0.931 . S
H313 C284 0.931 . S
H314 C286 0.931 . S
H315 C287 0.931 . S
H316 C293 0.931 . S
H317 C294 0.931 . S
H318 C296 0.931 . S
H319 C297 0.931 . S
C320 Eu321 2.835 . S
C320 C322 1.500 . S
C320 O340 1.257 . S
C320 O341 1.260 . S
Eu321 C320 2.835 . S
Eu321 O340 2.473 . S
Eu321 O341 2.480 . S
Eu321 O342 2.430 . S
Eu321 O343 2.670 . S
Eu321 O344 2.394 . S
Eu321 O349 2.355 . S
Eu321 O351 2.374 . S
C322 C320 1.500 . S
C322 C323 1.377 . S
C322 C327 1.377 . S
C323 C322 1.377 . S
C323 C324 1.395 . S
C323 H352 0.931 . S
C324 C323 1.395 . S
C324 C325 1.383 . S
C324 H353 0.931 . S
C325 C324 1.383 . S
C325 C326 1.394 . S
C326 C325 1.394 . S
C326 C327 1.378 . S
C326 H354 0.931 . S
C327 C322 1.377 . S
C327 C326 1.378 . S
C327 H355 0.931 . S
C328 O342 1.259 . S
C328 O343 1.270 . S
C329 O344 1.251 . S
C329 O345 1.251 . S
C330 Eu331 2.835 . S
C330 C332 1.500 . S
C330 O346 1.257 . S
C330 O347 1.260 . S
Eu331 C330 2.835 . S
Eu331 O343 2.355 . S
Eu331 O345 2.374 . S
Eu331 O346 2.473 . S
Eu331 O347 2.480 . S
Eu331 O348 2.430 . S
Eu331 O349 2.670 . S
Eu331 O350 2.394 . S
C332 C330 1.500 . S
C332 C333 1.377 . S
C332 C337 1.377 . S
C333 C332 1.377 . S
C333 C334 1.395 . S
C333 H356 0.931 . S
C334 C333 1.395 . S
C334 C335 1.383 . S
C334 H357 0.931 . S
C335 C334 1.383 . S
C335 C336 1.394 . S
C336 C335 1.394 . S
C336 C337 1.378 . S
C336 H358 0.931 . S
C337 C332 1.377 . S
C337 C336 1.378 . S
C337 H359 0.931 . S
C338 O348 1.259 . S
C338 O349 1.270 . S
C339 O350 1.251 . S
C339 O351 1.251 . S
O340 C320 1.257 . S
O340 Eu321 2.473 . S
O341 C320 1.260 . S
O341 Eu321 2.480 . S
O342 Eu321 2.430 . S
O342 C328 1.259 . S
O343 Eu321 2.670 . S
O343 C328 1.270 . S
O343 Eu331 2.355 . S
O344 Eu321 2.394 . S
O344 C329 1.251 . S
O345 C329 1.251 . S
O345 Eu331 2.374 . S
O346 C330 1.257 . S
O346 Eu331 2.473 . S
O347 C330 1.260 . S
O347 Eu331 2.480 . S
O348 Eu331 2.430 . S
O348 C338 1.259 . S
O349 Eu321 2.355 . S
O349 Eu331 2.670 . S
O349 C338 1.270 . S
O350 Eu331 2.394 . S
O350 C339 1.251 . S
O351 Eu321 2.374 . S
O351 C339 1.251 . S
H352 C323 0.931 . S
H353 C324 0.931 . S
H354 C326 0.931 . S
H355 C327 0.931 . S
H356 C333 0.931 . S
H357 C334 0.931 . S
H358 C336 0.931 . S
H359 C337 0.931 . S
C360 C361 1.363 . S
C360 C366 1.379 . S
C360 N368 1.356 . S
C361 C360 1.363 . S
C361 C367 1.363 1_556 S
C362 C363 1.363 1_554 S
C362 C367 1.379 . S
C362 N369 1.356 . S
C363 C362 1.363 1_556 S
C363 C366 1.363 . S
N364 C366 1.356 . S
N364 H376 0.984 . S
N364 H377 0.985 . S
N365 C367 1.356 . S
N365 H370 0.984 . S
N365 H371 0.985 . S
C366 C360 1.379 . S
C366 C363 1.363 . S
C366 N364 1.356 . S
C367 C361 1.363 1_554 S
C367 C362 1.379 . S
C367 N365 1.356 . S
N368 C360 1.356 . S
N368 H374 0.984 . S
N368 H375 0.984 . S
N369 C362 1.356 . S
N369 H372 0.984 . S
N369 H373 0.985 . S
H370 N365 0.984 . S
H371 N365 0.985 . S
H372 N369 0.984 . S
H373 N369 0.985 . S
H374 N368 0.984 . S
H375 N368 0.984 . S
H376 N364 0.984 . S
H377 N364 0.985 . S
C378 C379 1.363 . S
C378 C384 1.379 . S
C378 N386 1.356 . S
C379 C378 1.363 . S
C379 C385 1.363 1_556 S
C380 C381 1.363 1_554 S
C380 C385 1.379 . S
C380 N387 1.356 . S
C381 C380 1.363 1_556 S
C381 C384 1.363 . S
N382 C384 1.356 . S
N382 H394 0.984 . S
N382 H395 0.985 . S
N383 C385 1.356 . S
N383 H388 0.984 . S
N383 H389 0.985 . S
C384 C378 1.379 . S
C384 C381 1.363 . S
C384 N382 1.356 . S
C385 C379 1.363 1_554 S
C385 C380 1.379 . S
C385 N383 1.356 . S
N386 C378 1.356 . S
N386 H392 0.984 . S
N386 H393 0.984 . S
N387 C380 1.356 . S
N387 H390 0.984 . S
N387 H391 0.985 . S
H388 N383 0.984 . S
H389 N383 0.985 . S
H390 N387 0.984 . S
H391 N387 0.985 . S
H392 N386 0.984 . S
H393 N386 0.984 . S
H394 N382 0.984 . S
H395 N382 0.985 . S
C396 C397 1.363 . S
C396 C402 1.379 . S
C396 N404 1.356 . S
C397 C396 1.363 . S
C397 C403 1.363 1_556 S
C398 C399 1.363 1_554 S
C398 C403 1.379 . S
C398 N405 1.356 . S
C399 C398 1.363 1_556 S
C399 C402 1.363 . S
N400 C402 1.356 . S
N400 H412 0.984 . S
N400 H413 0.985 . S
N401 C403 1.356 . S
N401 H406 0.984 . S
N401 H407 0.985 . S
C402 C396 1.379 . S
C402 C399 1.363 . S
C402 N400 1.356 . S
C403 C397 1.363 1_554 S
C403 C398 1.379 . S
C403 N401 1.356 . S
N404 C396 1.356 . S
N404 H410 0.984 . S
N404 H411 0.984 . S
N405 C398 1.356 . S
N405 H408 0.984 . S
N405 H409 0.985 . S
H406 N401 0.984 . S
H407 N401 0.985 . S
H408 N405 0.984 . S
H409 N405 0.985 . S
H410 N404 0.984 . S
H411 N404 0.984 . S
H412 N400 0.984 . S
H413 N400 0.985 . S
C414 C415 1.363 1_556 S
C414 C420 1.379 . S
C414 N422 1.356 . S
C415 C414 1.363 1_554 S
C415 C421 1.363 . S
C416 C417 1.363 . S
C416 C421 1.379 . S
C416 N423 1.356 . S
C417 C416 1.363 . S
C417 C420 1.363 1_554 S
N418 C420 1.356 . S
N418 H430 0.984 . S
N418 H431 0.985 . S
N419 C421 1.356 . S
N419 H424 0.984 . S
N419 H425 0.985 . S
C420 C414 1.379 . S
C420 C417 1.363 1_556 S
C420 N418 1.356 . S
C421 C415 1.363 . S
C421 C416 1.379 . S
C421 N419 1.356 . S
N422 C414 1.356 . S
N422 H428 0.984 . S
N422 H429 0.984 . S
N423 C416 1.356 . S
N423 H426 0.984 . S
N423 H427 0.985 . S
H424 N419 0.984 . S
H425 N419 0.985 . S
H426 N423 0.984 . S
H427 N423 0.985 . S
H428 N422 0.984 . S
H429 N422 0.984 . S
H430 N418 0.984 . S
H431 N418 0.985 . S
C432 C433 1.363 1_556 S
C432 C438 1.379 . S
C432 N440 1.356 . S
C433 C432 1.363 1_554 S
C433 C439 1.363 . S
C434 C435 1.363 . S
C434 C439 1.379 . S
C434 N441 1.356 . S
C435 C434 1.363 . S
C435 C438 1.363 1_554 S
N436 C438 1.356 . S
N436 H448 0.984 . S
N436 H449 0.985 . S
N437 C439 1.356 . S
N437 H442 0.984 . S
N437 H443 0.985 . S
C438 C432 1.379 . S
C438 C435 1.363 1_556 S
C438 N436 1.356 . S
C439 C433 1.363 . S
C439 C434 1.379 . S
C439 N437 1.356 . S
N440 C432 1.356 . S
N440 H446 0.984 . S
N440 H447 0.984 . S
N441 C434 1.356 . S
N441 H444 0.984 . S
N441 H445 0.985 . S
H442 N437 0.984 . S
H443 N437 0.985 . S
H444 N441 0.984 . S
H445 N441 0.985 . S
H446 N440 0.984 . S
H447 N440 0.984 . S
H448 N436 0.984 . S
H449 N436 0.985 . S
C450 C451 1.363 . S
C450 C456 1.379 . S
C450 N458 1.356 . S
C451 C450 1.363 . S
C451 C457 1.363 1_554 S
C452 C453 1.363 1_556 S
C452 C457 1.379 . S
C452 N459 1.356 . S
C453 C452 1.363 1_554 S
C453 C456 1.363 . S
N454 C456 1.356 . S
N454 H466 0.984 . S
N454 H467 0.985 . S
N455 C457 1.356 . S
N455 H460 0.984 . S
N455 H461 0.985 . S
C456 C450 1.379 . S
C456 C453 1.363 . S
C456 N454 1.356 . S
C457 C451 1.363 1_556 S
C457 C452 1.379 . S
C457 N455 1.356 . S
N458 C450 1.356 . S
N458 H464 0.984 . S
N458 H465 0.984 . S
N459 C452 1.356 . S
N459 H462 0.984 . S
N459 H463 0.985 . S
H460 N455 0.984 . S
H461 N455 0.985 . S
H462 N459 0.984 . S
H463 N459 0.985 . S
H464 N458 0.984 . S
H465 N458 0.984 . S
H466 N454 0.984 . S
H467 N454 0.985 . S
C468 C469 1.363 . S
C468 C474 1.379 . S
C468 N476 1.356 . S
C469 C468 1.363 . S
C469 C475 1.363 . S
C470 C471 1.363 . S
C470 C475 1.379 . S
C470 N477 1.356 . S
C471 C470 1.363 . S
C471 C474 1.363 . S
N472 C474 1.356 . S
N472 H484 0.984 . S
N472 H485 0.985 . S
N473 C475 1.356 . S
N473 H478 0.984 . S
N473 H479 0.985 . S
C474 C468 1.379 . S
C474 C471 1.363 . S
C474 N472 1.356 . S
C475 C469 1.363 . S
C475 C470 1.379 . S
C475 N473 1.356 . S
N476 C468 1.356 . S
N476 H482 0.984 . S
N476 H483 0.984 . S
N477 C470 1.356 . S
N477 H480 0.984 . S
N477 H481 0.985 . S
H478 N473 0.984 . S
H479 N473 0.985 . S
H480 N477 0.984 . S
H481 N477 0.985 . S
H482 N476 0.984 . S
H483 N476 0.984 . S
H484 N472 0.984 . S
H485 N472 0.985 . S
C486 C487 1.363 . S
C486 C492 1.379 . S
C486 N494 1.356 . S
C487 C486 1.363 . S
C487 C493 1.363 . S
C488 C489 1.363 1_565 S
C488 C493 1.379 1_565 S
C488 N495 1.356 . S
C489 C488 1.363 1_545 S
C489 C492 1.363 . S
N490 C492 1.356 . S
N490 H502 0.984 . S
N490 H503 0.985 . S
N491 C493 1.356 . S
N491 H496 0.984 . S
N491 H497 0.985 1_545 S
C492 C486 1.379 . S
C492 C489 1.363 . S
C492 N490 1.356 . S
C493 C487 1.363 . S
C493 C488 1.379 1_545 S
C493 N491 1.356 . S
N494 C486 1.356 . S
N494 H500 0.984 . S
N494 H501 0.984 . S
N495 C488 1.356 . S
N495 H498 0.984 . S
N495 H499 0.985 . S
H496 N491 0.984 . S
H497 N491 0.985 1_565 S
H498 N495 0.984 . S
H499 N495 0.985 . S
H500 N494 0.984 . S
H501 N494 0.984 . S
H502 N490 0.984 . S
H503 N490 0.985 . S
C504 C505 1.363 . S
C504 C510 1.379 . S
C504 N512 1.356 . S
C505 C504 1.363 . S
C505 C511 1.363 1_455 S
C506 C507 1.363 . S
C506 C511 1.379 . S
C506 N513 1.356 . S
C507 C506 1.363 . S
C507 C510 1.363 1_655 S
N508 C510 1.356 . S
N508 H520 0.984 . S
N508 H521 0.985 1_455 S
N509 C511 1.356 . S
N509 H514 0.984 . S
N509 H515 0.985 . S
C510 C504 1.379 . S
C510 C507 1.363 1_455 S
C510 N508 1.356 . S
C511 C505 1.363 1_655 S
C511 C506 1.379 . S
C511 N509 1.356 . S
N512 C504 1.356 . S
N512 H518 0.984 . S
N512 H519 0.984 . S
N513 C506 1.356 . S
N513 H516 0.984 . S
N513 H517 0.985 . S
H514 N509 0.984 . S
H515 N509 0.985 . S
H516 N513 0.984 . S
H517 N513 0.985 . S
H518 N512 0.984 . S
H519 N512 0.984 . S
H520 N508 0.984 . S
H521 N508 0.985 1_655 S
C522 C523 1.363 . S
C522 C528 1.379 . S
C522 N530 1.356 . S
C523 C522 1.363 . S
C523 C529 1.363 . S
C524 C525 1.363 . S
C524 C529 1.379 . S
C524 N531 1.356 . S
C525 C524 1.363 . S
C525 C528 1.363 . S
N526 C528 1.356 . S
N526 H538 0.984 . S
N526 H539 0.985 . S
N527 C529 1.356 . S
N527 H532 0.984 . S
N527 H533 0.985 . S
C528 C522 1.379 . S
C528 C525 1.363 . S
C528 N526 1.356 . S
C529 C523 1.363 . S
C529 C524 1.379 . S
C529 N527 1.356 . S
N530 C522 1.356 . S
N530 H536 0.984 . S
N530 H537 0.984 . S
N531 C524 1.356 . S
N531 H534 0.984 . S
N531 H535 0.985 . S
H532 N527 0.984 . S
H533 N527 0.985 . S
H534 N531 0.984 . S
H535 N531 0.985 . S
H536 N530 0.984 . S
H537 N530 0.984 . S
H538 N526 0.984 . S
H539 N526 0.985 . S
C540 C541 1.363 . S
C540 C546 1.379 . S
C540 N548 1.356 . S
C541 C540 1.363 . S
C541 C547 1.363 . S
C542 C543 1.363 . S
C542 C547 1.379 . S
C542 N549 1.356 . S
C543 C542 1.363 . S
C543 C546 1.363 . S
N544 C546 1.356 . S
N544 H556 0.984 . S
N544 H557 0.985 . S
N545 C547 1.356 . S
N545 H550 0.984 . S
N545 H551 0.985 . S
C546 C540 1.379 . S
C546 C543 1.363 . S
C546 N544 1.356 . S
C547 C541 1.363 . S
C547 C542 1.379 . S
C547 N545 1.356 . S
N548 C540 1.356 . S
N548 H554 0.984 . S
N548 H555 0.984 . S
N549 C542 1.356 . S
N549 H552 0.984 . S
N549 H553 0.985 . S
H550 N545 0.984 . S
H551 N545 0.985 . S
H552 N549 0.984 . S
H553 N549 0.985 . S
H554 N548 0.984 . S
H555 N548 0.984 . S
H556 N544 0.984 . S
H557 N544 0.985 . S
C558 C559 1.363 . S
C558 C564 1.379 . S
C558 N566 1.356 . S
C559 C558 1.363 . S
C559 C565 1.363 . S
C560 C561 1.363 . S
C560 C565 1.379 . S
C560 N567 1.356 . S
C561 C560 1.363 . S
C561 C564 1.363 . S
N562 C564 1.356 . S
N562 H574 0.984 . S
N562 H575 0.985 . S
N563 C565 1.356 . S
N563 H568 0.984 . S
N563 H569 0.985 . S
C564 C558 1.379 . S
C564 C561 1.363 . S
C564 N562 1.356 . S
C565 C559 1.363 . S
C565 C560 1.379 . S
C565 N563 1.356 . S
N566 C558 1.356 . S
N566 H572 0.984 . S
N566 H573 0.984 . S
N567 C560 1.356 . S
N567 H570 0.984 . S
N567 H571 0.985 . S
H568 N563 0.984 . S
H569 N563 0.985 . S
H570 N567 0.984 . S
H571 N567 0.985 . S
H572 N566 0.984 . S
H573 N566 0.984 . S
H574 N562 0.984 . S
H575 N562 0.985 . S
C576 C577 1.363 . S
C576 C582 1.379 . S
C576 N584 1.356 . S
C577 C576 1.363 . S
C577 C583 1.363 . S
C578 C579 1.363 . S
C578 C583 1.379 . S
C578 N585 1.356 . S
C579 C578 1.363 . S
C579 C582 1.363 . S
N580 C582 1.356 . S
N580 H592 0.984 . S
N580 H593 0.985 . S
N581 C583 1.356 . S
N581 H586 0.984 . S
N581 H587 0.985 . S
C582 C576 1.379 . S
C582 C579 1.363 . S
C582 N580 1.356 . S
C583 C577 1.363 . S
C583 C578 1.379 . S
C583 N581 1.356 . S
N584 C576 1.356 . S
N584 H590 0.984 . S
N584 H591 0.984 . S
N585 C578 1.356 . S
N585 H588 0.984 . S
N585 H589 0.985 . S
H586 N581 0.984 . S
H587 N581 0.985 . S
H588 N585 0.984 . S
H589 N585 0.985 . S
H590 N584 0.984 . S
H591 N584 0.984 . S
H592 N580 0.984 . S
H593 N580 0.985 . S
C594 C595 1.363 . S
C594 C600 1.379 . S
C594 N602 1.356 . S
C595 C594 1.363 . S
C595 C601 1.363 . S
C596 C597 1.363 . S
C596 C601 1.379 . S
C596 N603 1.356 . S
C597 C596 1.363 . S
C597 C600 1.363 . S
N598 C600 1.356 . S
N598 H610 0.984 . S
N598 H611 0.985 . S
N599 C601 1.356 . S
N599 H604 0.984 . S
N599 H605 0.985 . S
C600 C594 1.379 . S
C600 C597 1.363 . S
C600 N598 1.356 . S
C601 C595 1.363 . S
C601 C596 1.379 . S
C601 N599 1.356 . S
N602 C594 1.356 . S
N602 H608 0.984 . S
N602 H609 0.984 . S
N603 C596 1.356 . S
N603 H606 0.984 . S
N603 H607 0.985 . S
H604 N599 0.984 . S
H605 N599 0.985 . S
H606 N603 0.984 . S
H607 N603 0.985 . S
H608 N602 0.984 . S
H609 N602 0.984 . S
H610 N598 0.984 . S
H611 N598 0.985 . S
C612 C613 1.363 . S
C612 C618 1.379 . S
C612 N620 1.356 . S
C613 C612 1.363 . S
C613 C619 1.363 . S
C614 C615 1.363 . S
C614 C619 1.379 . S
C614 N621 1.356 . S
C615 C614 1.363 . S
C615 C618 1.363 . S
N616 C618 1.356 . S
N616 H628 0.984 . S
N616 H629 0.985 . S
N617 C619 1.356 . S
N617 H622 0.984 . S
N617 H623 0.985 . S
C618 C612 1.379 . S
C618 C615 1.363 . S
C618 N616 1.356 . S
C619 C613 1.363 . S
C619 C614 1.379 . S
C619 N617 1.356 . S
N620 C612 1.356 . S
N620 H626 0.984 . S
N620 H627 0.984 . S
N621 C614 1.356 . S
N621 H624 0.984 . S
N621 H625 0.985 . S
H622 N617 0.984 . S
H623 N617 0.985 . S
H624 N621 0.984 . S
H625 N621 0.985 . S
H626 N620 0.984 . S
H627 N620 0.984 . S
H628 N616 0.984 . S
H629 N616 0.985 . S
C630 C631 1.363 1_545 S
C630 C636 1.379 . S
C630 N638 1.356 1_545 S
C631 C630 1.363 1_565 S
C631 C637 1.363 1_565 S
C632 C633 1.363 . S
C632 C637 1.379 . S
C632 N639 1.356 . S
C633 C632 1.363 . S
C633 C636 1.363 . S
N634 C636 1.356 . S
N634 H646 0.984 . S
N634 H647 0.985 . S
N635 C637 1.356 1_565 S
N635 H640 0.984 . S
N635 H641 0.985 . S
C636 C630 1.379 . S
C636 C633 1.363 . S
C636 N634 1.356 . S
C637 C631 1.363 1_545 S
C637 C632 1.379 . S
C637 N635 1.356 1_545 S
N638 C630 1.356 1_565 S
N638 H644 0.984 1_565 S
N638 H645 0.984 . S
N639 C632 1.356 . S
N639 H642 0.984 . S
N639 H643 0.985 . S
H640 N635 0.984 . S
H641 N635 0.985 . S
H642 N639 0.984 . S
H643 N639 0.985 . S
H644 N638 0.984 1_545 S
H645 N638 0.984 . S
H646 N634 0.984 . S
H647 N634 0.985 . S
C648 C649 1.363 . S
C648 C654 1.379 . S
C648 N656 1.356 . S
C649 C648 1.363 . S
C649 C655 1.363 . S
C650 C651 1.363 1_655 S
C650 C655 1.379 . S
C650 N657 1.356 1_655 S
C651 C650 1.363 1_455 S
C651 C654 1.363 1_455 S
N652 C654 1.356 1_455 S
N652 H664 0.984 . S
N652 H665 0.985 . S
N653 C655 1.356 . S
N653 H658 0.984 . S
N653 H659 0.985 . S
C654 C648 1.379 . S
C654 C651 1.363 1_655 S
C654 N652 1.356 1_655 S
C655 C649 1.363 . S
C655 C650 1.379 . S
C655 N653 1.356 . S
N656 C648 1.356 . S
N656 H662 0.984 . S
N656 H663 0.984 . S
N657 C650 1.356 1_455 S
N657 H660 0.984 . S
N657 H661 0.985 . S
H658 N653 0.984 . S
H659 N653 0.985 . S
H660 N657 0.984 . S
H661 N657 0.985 . S
H662 N656 0.984 . S
H663 N656 0.984 . S
H664 N652 0.984 . S
H665 N652 0.985 . S
C666 C667 1.363 . S
C666 C672 1.379 . S
C666 N674 1.356 . S
C667 C666 1.363 . S
C667 C673 1.363 . S
C668 C669 1.363 . S
C668 C673 1.379 . S
C668 N675 1.356 . S
C669 C668 1.363 . S
C669 C672 1.363 . S
N670 C672 1.356 . S
N670 H682 0.984 . S
N670 H683 0.985 . S
N671 C673 1.356 . S
N671 H676 0.984 . S
N671 H677 0.985 . S
C672 C666 1.379 . S
C672 C669 1.363 . S
C672 N670 1.356 . S
C673 C667 1.363 . S
C673 C668 1.379 . S
C673 N671 1.356 . S
N674 C666 1.356 . S
N674 H680 0.984 . S
N674 H681 0.984 . S
N675 C668 1.356 . S
N675 H678 0.984 . S
N675 H679 0.985 . S
H676 N671 0.984 . S
H677 N671 0.985 . S
H678 N675 0.984 . S
H679 N675 0.985 . S
H680 N674 0.984 . S
H681 N674 0.984 . S
H682 N670 0.984 . S
H683 N670 0.985 . S
C684 C685 1.363 . S
C684 C690 1.379 . S
C684 N692 1.356 . S
C685 C684 1.363 . S
C685 C691 1.363 . S
C686 C687 1.363 . S
C686 C691 1.379 . S
C686 N693 1.356 . S
C687 C686 1.363 . S
C687 C690 1.363 . S
N688 C690 1.356 . S
N688 H700 0.984 . S
N688 H701 0.985 . S
N689 C691 1.356 . S
N689 H694 0.984 . S
N689 H695 0.985 . S
C690 C684 1.379 . S
C690 C687 1.363 . S
C690 N688 1.356 . S
C691 C685 1.363 . S
C691 C686 1.379 . S
C691 N689 1.356 . S
N692 C684 1.356 . S
N692 H698 0.984 . S
N692 H699 0.984 . S
N693 C686 1.356 . S
N693 H696 0.984 . S
N693 H697 0.985 . S
H694 N689 0.984 . S
H695 N689 0.985 . S
H696 N693 0.984 . S
H697 N693 0.985 . S
H698 N692 0.984 . S
H699 N692 0.984 . S
H700 N688 0.984 . S
H701 N688 0.985 . S
C702 C703 1.363 . S
C702 C708 1.379 . S
C702 N710 1.356 . S
C703 C702 1.363 . S
C703 C709 1.363 . S
C704 C705 1.363 . S
C704 C709 1.379 . S
C704 N711 1.356 . S
C705 C704 1.363 . S
C705 C708 1.363 . S
N706 C708 1.356 . S
N706 H718 0.984 . S
N706 H719 0.985 . S
N707 C709 1.356 . S
N707 H712 0.984 . S
N707 H713 0.985 . S
C708 C702 1.379 . S
C708 C705 1.363 . S
C708 N706 1.356 . S
C709 C703 1.363 . S
C709 C704 1.379 . S
C709 N707 1.356 . S
N710 C702 1.356 . S
N710 H716 0.984 . S
N710 H717 0.984 . S
N711 C704 1.356 . S
N711 H714 0.984 . S
N711 H715 0.985 . S
H712 N707 0.984 . S
H713 N707 0.985 . S
H714 N711 0.984 . S
H715 N711 0.985 . S
H716 N710 0.984 . S
H717 N710 0.984 . S
H718 N706 0.984 . S
H719 N706 0.985 . S
C720 C721 1.363 . S
C720 C726 1.379 . S
C720 N728 1.356 . S
C721 C720 1.363 . S
C721 C727 1.363 . S
C722 C723 1.363 . S
C722 C727 1.379 . S
C722 N729 1.356 . S
C723 C722 1.363 . S
C723 C726 1.363 . S
N724 C726 1.356 . S
N724 H736 0.984 . S
N724 H737 0.985 . S
N725 C727 1.356 . S
N725 H730 0.984 . S
N725 H731 0.985 . S
C726 C720 1.379 . S
C726 C723 1.363 . S
C726 N724 1.356 . S
C727 C721 1.363 . S
C727 C722 1.379 . S
C727 N725 1.356 . S
N728 C720 1.356 . S
N728 H734 0.984 . S
N728 H735 0.984 . S
N729 C722 1.356 . S
N729 H732 0.984 . S
N729 H733 0.985 . S
H730 N725 0.984 . S
H731 N725 0.985 . S
H732 N729 0.984 . S
H733 N729 0.985 . S
H734 N728 0.984 . S
H735 N728 0.984 . S
H736 N724 0.984 . S
H737 N724 0.985 . S
C738 C739 1.363 . S
C738 C744 1.379 . S
C738 N746 1.356 . S
C739 C738 1.363 . S
C739 C745 1.363 . S
C740 C741 1.363 . S
C740 C745 1.379 . S
C740 N747 1.356 . S
C741 C740 1.363 . S
C741 C744 1.363 . S
N742 C744 1.356 . S
N742 H754 0.984 . S
N742 H755 0.985 . S
N743 C745 1.356 . S
N743 H748 0.984 . S
N743 H749 0.985 . S
C744 C738 1.379 . S
C744 C741 1.363 . S
C744 N742 1.356 . S
C745 C739 1.363 . S
C745 C740 1.379 . S
C745 N743 1.356 . S
N746 C738 1.356 . S
N746 H752 0.984 . S
N746 H753 0.984 . S
N747 C740 1.356 . S
N747 H750 0.984 . S
N747 H751 0.985 . S
H748 N743 0.984 . S
H749 N743 0.985 . S
H750 N747 0.984 . S
H751 N747 0.985 . S
H752 N746 0.984 . S
H753 N746 0.984 . S
H754 N742 0.984 . S
H755 N742 0.985 . S
C756 C757 1.363 . S
C756 C762 1.379 . S
C756 N764 1.356 . S
C757 C756 1.363 . S
C757 C763 1.363 . S
C758 C759 1.363 . S
C758 C763 1.379 . S
C758 N765 1.356 . S
C759 C758 1.363 . S
C759 C762 1.363 . S
N760 C762 1.356 . S
N760 H772 0.984 . S
N760 H773 0.985 . S
N761 C763 1.356 . S
N761 H766 0.984 . S
N761 H767 0.985 . S
C762 C756 1.379 . S
C762 C759 1.363 . S
C762 N760 1.356 . S
C763 C757 1.363 . S
C763 C758 1.379 . S
C763 N761 1.356 . S
N764 C756 1.356 . S
N764 H770 0.984 1_655 S
N764 H771 0.984 1_655 S
N765 C758 1.356 . S
N765 H768 0.984 . S
N765 H769 0.985 . S
H766 N761 0.984 . S
H767 N761 0.985 . S
H768 N765 0.984 . S
H769 N765 0.985 . S
H770 N764 0.984 1_455 S
H771 N764 0.984 1_455 S
H772 N760 0.984 . S
H773 N760 0.985 . S
C774 C775 1.363 . S
C774 C780 1.379 . S
C774 N782 1.356 . S
C775 C774 1.363 . S
C775 C781 1.363 . S
C776 C777 1.363 . S
C776 C781 1.379 . S
C776 N783 1.356 . S
C777 C776 1.363 . S
C777 C780 1.363 . S
N778 C780 1.356 . S
N778 H790 0.984 . S
N778 H791 0.985 . S
N779 C781 1.356 . S
N779 H784 0.984 . S
N779 H785 0.985 . S
C780 C774 1.379 . S
C780 C777 1.363 . S
C780 N778 1.356 . S
C781 C775 1.363 . S
C781 C776 1.379 . S
C781 N779 1.356 . S
N782 C774 1.356 . S
N782 H788 0.984 . S
N782 H789 0.984 . S
N783 C776 1.356 . S
N783 H786 0.984 . S
N783 H787 0.985 . S
H784 N779 0.984 . S
H785 N779 0.985 . S
H786 N783 0.984 . S
H787 N783 0.985 . S
H788 N782 0.984 . S
H789 N782 0.984 . S
H790 N778 0.984 . S
H791 N778 0.985 . S
C792 C793 1.363 . S
C792 C798 1.379 . S
C792 N800 1.356 . S
C793 C792 1.363 . S
C793 C799 1.363 . S
C794 C795 1.363 . S
C794 C799 1.379 . S
C794 N801 1.356 . S
C795 C794 1.363 . S
C795 C798 1.363 . S
N796 C798 1.356 . S
N796 H808 0.984 . S
N796 H809 0.985 . S
N797 C799 1.356 . S
N797 H802 0.984 . S
N797 H803 0.985 . S
C798 C792 1.379 . S
C798 C795 1.363 . S
C798 N796 1.356 . S
C799 C793 1.363 . S
C799 C794 1.379 . S
C799 N797 1.356 . S
N800 C792 1.356 . S
N800 H806 0.984 . S
N800 H807 0.984 . S
N801 C794 1.356 . S
N801 H804 0.984 . S
N801 H805 0.985 . S
H802 N797 0.984 . S
H803 N797 0.985 . S
H804 N801 0.984 . S
H805 N801 0.985 . S
H806 N800 0.984 . S
H807 N800 0.984 . S
H808 N796 0.984 . S
H809 N796 0.985 . S
C810 C811 1.363 . S
C810 C816 1.379 1_565 S
C810 N818 1.356 . S
C811 C810 1.363 . S
C811 C817 1.363 . S
C812 C813 1.363 . S
C812 C817 1.379 1_545 S
C812 N819 1.356 . S
C813 C812 1.363 . S
C813 C816 1.363 . S
N814 C816 1.356 . S
N814 H826 0.984 . S
N814 H827 0.985 . S
N815 C817 1.356 . S
N815 H820 0.984 . S
N815 H821 0.985 . S
C816 C810 1.379 1_545 S
C816 C813 1.363 . S
C816 N814 1.356 . S
C817 C811 1.363 . S
C817 C812 1.379 1_565 S
C817 N815 1.356 . S
N818 C810 1.356 . S
N818 H824 0.984 . S
N818 H825 0.984 . S
N819 C812 1.356 . S
N819 H822 0.984 . S
N819 H823 0.985 . S
H820 N815 0.984 . S
H821 N815 0.985 . S
H822 N819 0.984 . S
H823 N819 0.985 . S
H824 N818 0.984 . S
H825 N818 0.984 . S
H826 N814 0.984 . S
H827 N814 0.985 . S
C828 C829 1.363 . S
C828 C834 1.379 1_655 S
C828 N836 1.356 . S
C829 C828 1.363 . S
C829 C835 1.363 . S
C830 C831 1.363 . S
C830 C835 1.379 1_455 S
C830 N837 1.356 . S
C831 C830 1.363 . S
C831 C834 1.363 . S
N832 C834 1.356 . S
N832 H844 0.984 . S
N832 H845 0.985 . S
N833 C835 1.356 . S
N833 H838 0.984 . S
N833 H839 0.985 . S
C834 C828 1.379 1_455 S
C834 C831 1.363 . S
C834 N832 1.356 . S
C835 C829 1.363 . S
C835 C830 1.379 1_655 S
C835 N833 1.356 . S
N836 C828 1.356 . S
N836 H842 0.984 . S
N836 H843 0.984 . S
N837 C830 1.356 . S
N837 H840 0.984 . S
N837 H841 0.985 . S
H838 N833 0.984 . S
H839 N833 0.985 . S
H840 N837 0.984 . S
H841 N837 0.985 . S
H842 N836 0.984 . S
H843 N836 0.984 . S
H844 N832 0.984 . S
H845 N832 0.985 . S
C361 C55 1.713 . S
C363 C19 1.770 . S
C379 C95 1.713 . S
C381 C59 1.770 . S
C397 C99 1.770 . S
C399 C15 1.713 . S
C415 C85 1.526 . S
C417 C49 1.475 . S
C433 C89 1.475 . S
C435 C5 1.526 . S
C451 C9 1.475 . S
C453 C45 1.526 . S
C469 C139 1.770 . S
C471 C175 1.713 . S
C487 C215 1.713 . S
C489 C179 1.770 1_545 S
C505 C219 1.770 . S
C507 C135 1.713 . S
C523 C169 1.475 . S
C525 C205 1.526 . S
C541 C209 1.475 . S
C543 C125 1.526 . S
C559 C165 1.526 . S
C561 C129 1.475 . S
C577 C295 1.713 . S
C579 C259 1.770 . S
C595 C299 1.770 . S
C597 C335 1.713 . S
C613 C339 1.770 . S
C615 C255 1.713 . S
C631 C325 1.526 . S
C633 C289 1.475 . S
C649 C329 1.475 . S
C651 C245 1.526 . S
C667 C249 1.475 . S
C669 C285 1.526 . S
C685 C218 2.707 . S
C687 C8 2.235 . S
C703 C138 2.707 . S
C705 C48 2.235 . S
C721 C88 2.233 1_565 S
C723 C178 2.707 . S
C739 C98 2.707 . S
C741 C248 2.235 . S
C757 C18 2.707 . S
C759 C288 2.235 . S
C775 C328 2.235 . S
C777 C58 2.707 . S
C793 C128 2.235 . S
C795 C338 2.707 . S
C811 C168 2.235 . S
C813 C258 2.707 . S
C829 C298 2.707 . S
C831 C208 2.235 . S
