# Generated by pormake.
# Topology rob, (6)-cn, num edge types: 1
# Building blocks:
#     Node 0, Type 0, BuildingBlock: BETFAJ_clean_sbu_0, # of connection points: 6
#     Node 1, Type 0, BuildingBlock: BETFAJ_clean_sbu_0, # of connection points: 6
#     Node 2, Type 0, BuildingBlock: BETFAJ_clean_sbu_0, # of connection points: 6
#     Node 3, Type 0, BuildingBlock: BETFAJ_clean_sbu_0, # of connection points: 6
#     Edge 4, Type (0, 0), BuildingBlock: FUNLAD_clean_linker_1, # of connection points: 2
#     Edge 5, Type (0, 0), BuildingBlock: FUNLAD_clean_linker_1, # of connection points: 2
#     Edge 6, Type (0, 0), BuildingBlock: FUNLAD_clean_linker_1, # of connection points: 2
#     Edge 7, Type (0, 0), BuildingBlock: FUNLAD_clean_linker_1, # of connection points: 2
#     Edge 8, Type (0, 0), BuildingBlock: FUNLAD_clean_linker_1, # of connection points: 2
#     Edge 9, Type (0, 0), BuildingBlock: FUNLAD_clean_linker_1, # of connection points: 2
#     Edge 10, Type (0, 0), BuildingBlock: FUNLAD_clean_linker_1, # of connection points: 2
#     Edge 11, Type (0, 0), BuildingBlock: FUNLAD_clean_linker_1, # of connection points: 2
#     Edge 12, Type (0, 0), BuildingBlock: FUNLAD_clean_linker_1, # of connection points: 2
#     Edge 13, Type (0, 0), BuildingBlock: FUNLAD_clean_linker_1, # of connection points: 2
#     Edge 14, Type (0, 0), BuildingBlock: FUNLAD_clean_linker_1, # of connection points: 2
#     Edge 15, Type (0, 0), BuildingBlock: FUNLAD_clean_linker_1, # of connection points: 2
# Relax obj value: 0.147
# Max RMSD: 0.192
# Mean RMSD: 0.192
data_MOF--net-rob--node1-BETFAJ_clean_sbu_0--edge1-FUNLAD_clean_linker_1
_symmetry_space_group_name_H-M    P1
_symmetry_Int_Tables_number       1
_symmetry_cell_setting            triclinic
loop_
_symmetry_equiv_pos_as_xyz
'x, y, z'
_cell_length_a     16.968222
_cell_length_b     25.269934
_cell_length_c     38.613936
_cell_angle_alpha  89.740305
_cell_angle_beta   125.47112
_cell_angle_gamma 90.048979
loop_
_atom_site_label
_atom_site_type_symbol
_atom_site_fract_x
_atom_site_fract_y
_atom_site_fract_z
_atom_type_partial_charge
Sm0 Sm 0.17512 0.29713 1.0006 0.0
Sm1 Sm 0.33451 0.24938 1.00096 0.0
C2 C 0.04415 0.3233 0.01475 0.0
C3 C 0.02694 0.31771 0.048 0.0
C4 C 0.07293 0.27825 0.07957 0.0
C5 C 0.05561 0.27425 0.11092 0.0
C6 C 0.99244 0.31004 0.11148 0.0
C7 C 0.94608 0.34892 0.0794 0.0
C8 C 0.96326 0.35278 0.04815 0.0
C9 C 0.27971 0.37146 0.98948 0.0
C10 C 0.37501 0.25971 0.0923 0.0
C11 C 0.46618 0.23143 0.9857 0.0
C12 C 0.47347 0.23945 0.94966 0.0
C13 C 0.53775 0.20852 0.94662 0.0
C14 C 0.54302 0.21419 0.91187 0.0
C15 C 0.48351 0.25105 0.87914 0.0
C16 C 0.42071 0.28274 0.88298 0.0
C17 C 0.4154 0.27692 0.91769 0.0
C18 C 0.23321 0.17431 0.0126 0.0
C19 C 0.12463 0.27322 0.90862 0.0
O20 O 0.03937 0.28029 0.9949 0.0
O21 O 0.11487 0.3544 0.02332 0.0
O22 O 0.31652 0.33345 0.01604 0.0
O23 O 0.1862 0.37095 0.96836 0.0
O24 O 0.28294 0.27281 0.07083 0.0
O25 O 0.41837 0.25194 0.07343 0.0
O26 O 0.46457 0.2741 1.00434 0.0
O27 O 0.40436 0.19576 0.98047 0.0
O28 O 0.19434 0.21276 0.98637 0.0
O29 O 0.32629 0.1736 0.0317 0.0
O30 O 0.21763 0.26261 0.92929 0.0
O31 O 0.08537 0.28525 0.92859 0.0
H32 H 0.12234 0.25064 0.08003 0.0
H33 H 0.092 0.24313 0.13442 0.0
H34 H 0.89695 0.37698 0.07873 0.0
H35 H 0.92687 0.38345 0.02407 0.0
H36 H 0.58337 0.17945 0.97101 0.0
H37 H 0.59315 0.18901 0.91096 0.0
H38 H 0.37375 0.3114 0.85849 0.0
H39 H 0.36509 0.30128 0.91928 0.0
Sm40 Sm 0.67215 0.79845 1.00531 0.0
Sm41 Sm 0.85603 0.75503 0.01116 0.0
C42 C 0.53881 0.81381 0.01972 0.0
C43 C 0.53392 0.80831 0.05661 0.0
C44 C 0.60264 0.77821 0.09251 0.0
C45 C 0.59976 0.77558 0.12807 0.0
C46 C 0.52808 0.80316 0.1285 0.0
C47 C 0.45845 0.83227 0.09206 0.0
C48 C 0.46164 0.83506 0.05664 0.0
C49 C 0.77428 0.87344 0.99451 0.0
C50 C 0.88067 0.77466 0.09992 0.0
C51 C 0.99919 0.75668 1.00165 0.0
C52 C 1.01097 0.75207 0.96648 0.0
C53 C 0.95044 0.77985 0.92792 0.0
C54 C 0.96554 0.7772 0.89587 0.0
C55 C 0.04087 0.74592 0.90124 0.0
C56 C 0.10077 0.71806 0.93984 0.0
C57 C 0.08619 0.72117 0.97202 0.0
C58 C 0.74482 0.66954 0.00629 0.0
C59 C 0.64522 0.77495 0.91705 0.0
O60 O 0.54575 0.77002 1.00356 0.0
O61 O 0.59514 0.8514 0.02237 0.0
O62 O 0.81184 0.83541 0.02121 0.0
O63 O 0.68063 0.87377 0.97407 0.0
O64 O 0.78852 0.78836 0.07686 0.0
O65 O 0.92756 0.76136 0.08325 0.0
O66 O 0.95514 0.79911 1.0017 0.0
O67 O 0.97532 0.71402 0.01295 0.0
O68 O 0.7276 0.71834 0.0059 0.0
O69 O 0.82529 0.66479 0.00965 0.0
O70 O 0.73973 0.76719 0.93943 0.0
O71 O 0.59825 0.78312 0.93441 0.0
H72 H 0.65873 0.75683 0.09312 0.0
H73 H 0.65301 0.75143 0.15476 0.0
H74 H 0.40182 0.85353 0.09114 0.0
H75 H 0.40789 0.85849 0.02932 0.0
H76 H 0.89158 0.80403 0.92255 0.0
H77 H 0.91766 0.79989 0.8672 0.0
H78 H 0.15951 0.69371 0.94525 0.0
H79 H 0.13428 0.69959 1.00146 0.0
Sm80 Sm 0.37025 0.77879 0.51469 0.0
Sm81 Sm 0.18715 0.72436 0.50628 0.0
C82 C 0.52027 0.78297 0.51011 0.0
C83 C 0.53426 0.78659 0.47562 0.0
C84 C 0.47372 0.75886 0.43733 0.0
C85 C 0.49008 0.76034 0.4057 0.0
C86 C 0.56678 0.79035 0.41123 0.0
C87 C 0.62679 0.81824 0.44957 0.0
C88 C 0.61085 0.81633 0.48139 0.0
C89 C 0.23857 0.8566 0.50048 0.0
C90 C 0.17033 0.74458 0.41965 0.0
C91 C 0.05269 0.70396 0.51928 0.0
C92 C 0.04322 0.71177 0.55485 0.0
C93 C 0.12461 0.71054 0.59749 0.0
C94 C 0.11457 0.71686 0.63086 0.0
C95 C 0.02251 0.72458 0.62237 0.0
C96 C 0.94146 0.72601 0.57959 0.0
C97 C 0.95169 0.7199 0.54628 0.0
C98 C 0.32149 0.65684 0.51105 0.0
C99 C 0.38013 0.76454 0.60069 0.0
O100 O 0.48267 0.73881 0.5121 0.0
O101 O 0.48641 0.82485 0.51738 0.0
O102 O 0.2304 0.80708 0.50296 0.0
O103 O 0.31965 0.86613 0.50523 0.0
O104 O 0.26264 0.75865 0.44333 0.0
O105 O 0.12072 0.733 0.43533 0.0
O106 O 0.05152 0.74663 0.49954 0.0
O107 O 0.11698 0.66918 0.52551 0.0
O108 O 0.33863 0.69966 0.53107 0.0
O109 O 0.22931 0.64602 0.48902 0.0
O110 O 0.29031 0.74722 0.57632 0.0
O111 O 0.43162 0.77766 0.58605 0.0
H112 H 0.41405 0.73546 0.43193 0.0
H113 H 0.44234 0.73748 0.37732 0.0
H114 H 0.68658 0.84163 0.45504 0.0
H115 H 0.65888 0.83784 0.51068 0.0
H116 H 0.19612 0.70397 0.60515 0.0
H117 H 0.17911 0.71447 0.66306 0.0
H118 H 0.86957 0.73173 0.57183 0.0
H119 H 0.88778 0.72107 0.51373 0.0
Sm120 Sm 0.84441 0.26415 0.50481 0.0
Sm121 Sm 0.65573 0.21681 0.49465 0.0
C122 C 0.98048 0.2847 0.49286 0.0
C123 C 0.98791 0.28186 0.45651 0.0
C124 C 0.07658 0.26893 0.46362 0.0
C125 C 0.08466 0.26593 0.42955 0.0
C126 C 1.00447 0.27611 0.38759 0.0
C127 C 0.91505 0.28829 0.38048 0.0
C128 C 0.90704 0.29121 0.41459 0.0
C129 C 0.72057 0.33571 0.50481 0.0
C130 C 0.64586 0.23459 0.40895 0.0
C131 C 0.512 0.21673 0.50353 0.0
C132 C 0.50797 0.20717 0.54032 0.0
C133 C 0.58736 0.18471 0.57796 0.0
C134 C 0.58825 0.18119 0.61441 0.0
C135 C 0.5104 0.20052 0.61432 0.0
C136 C 0.42962 0.22178 0.57609 0.0
C137 C 0.4288 0.22524 0.53957 0.0
C138 C 0.77413 0.13395 0.50349 0.0
C139 C 0.86446 0.23396 0.59006 0.0
O140 O 0.97475 0.23955 0.50803 0.0
O141 O 0.92238 0.32079 0.49062 0.0
O142 O 0.6971 0.29509 0.48192 0.0
O143 O 0.81432 0.34151 0.52846 0.0
O144 O 0.73918 0.24533 0.434 0.0
O145 O 0.59224 0.22522 0.42322 0.0
O146 O 0.55925 0.25935 0.50644 0.0
O147 O 0.53165 0.17609 0.48868 0.0
O148 O 0.78954 0.18303 0.50364 0.0
O149 O 0.69285 0.12748 0.49918 0.0
O150 O 0.76883 0.23193 0.56669 0.0
O151 O 0.9141 0.23948 0.57374 0.0
H152 H 0.13977 0.26113 0.49559 0.0
H153 H 0.15421 0.25592 0.4361 0.0
H154 H 0.85063 0.2948 0.3487 0.0
H155 H 0.83742 0.30066 0.40813 0.0
H156 H 0.64973 0.17094 0.57948 0.0
H157 H 0.65131 0.16443 0.64315 0.0
H158 H 0.36694 0.23592 0.57407 0.0
H159 H 0.36698 0.24297 0.51093 0.0
H160 H 0.72321 0.58422 0.00965 0.0
C161 C 0.69063 0.6226 0.00637 0.0
H162 H 0.57444 0.66164 1.00102 0.0
H163 H 0.42851 0.40706 0.94985 0.0
H164 H 0.44388 0.41924 0.89177 0.0
H165 H 0.50713 0.50267 0.88357 0.0
H166 H 0.55766 0.57404 0.93396 0.0
C167 C 0.60662 0.62366 1.00293 0.0
C168 C 0.55981 0.57361 1.00533 0.0
C169 C 0.52596 0.53269 0.97449 0.0
C170 C 0.48429 0.4852 0.97793 0.0
C171 C 0.4568 0.44445 0.94791 0.0
C172 C 0.46571 0.45081 0.91449 0.0
C173 C 0.50174 0.49771 0.90999 0.0
C174 C 0.53132 0.53827 0.93942 0.0
H175 H 0.28815 0.44404 0.95973 0.0
C176 C 0.33204 0.41714 0.98638 0.0
H177 H 0.47072 0.40439 0.04299 0.0
H178 H 0.61424 0.64261 0.06983 0.0
H179 H 0.59258 0.63175 0.12615 0.0
H180 H 0.51573 0.55159 0.13052 0.0
H181 H 0.45984 0.48158 0.07852 0.0
C182 C 0.42676 0.42905 0.01484 0.0
C183 C 0.47178 0.47891 0.01111 0.0
C184 C 0.50415 0.52014 0.0415 0.0
C185 C 0.5478 0.56709 0.03865 0.0
C186 C 0.5797 0.60669 0.06997 0.0
C187 C 0.56799 0.60091 0.10262 0.0
C188 C 0.52477 0.55574 0.10509 0.0
C189 C 0.49315 0.51577 0.07504 0.0
H190 H 0.47267 0.63493 0.53633 0.0
C191 C 0.39839 0.621 0.51676 0.0
H192 H 0.30558 0.55844 0.47954 0.0
H193 H 0.5721 0.44376 0.43849 0.0
H194 H 0.44599 0.47986 0.36974 0.0
H195 H 0.32416 0.54142 0.36212 0.0
H196 H 0.32835 0.56777 0.42338 0.0
C197 C 0.38012 0.57189 0.49988 0.0
C198 C 0.45749 0.53526 0.50555 0.0
C199 C 0.45383 0.51902 0.46942 0.0
C200 C 0.52335 0.4823 0.47371 0.0
C201 C 0.51954 0.46952 0.43709 0.0
C202 C 0.44792 0.49043 0.39736 0.0
C203 C 0.37939 0.52515 0.39307 0.0
C204 C 0.38238 0.53972 0.42855 0.0
H205 H 0.57258 0.36225 0.48061 0.0
C206 C 0.64826 0.3737 0.50091 0.0
H207 H 0.74668 0.43319 0.54041 0.0
H208 H 0.48309 0.55313 0.58135 0.0
H209 H 0.60855 0.51657 0.65006 0.0
H210 H 0.72915 0.45411 0.65758 0.0
H211 H 0.72475 0.42751 0.59631 0.0
C212 C 0.67102 0.42188 0.51947 0.0
C213 C 0.59603 0.46025 0.51415 0.0
C214 C 0.59995 0.47669 0.55032 0.0
C215 C 0.53068 0.51362 0.54604 0.0
C216 C 0.53499 0.52684 0.5827 0.0
C217 C 0.60634 0.50576 0.62241 0.0
C218 C 0.67421 0.47055 0.62664 0.0
C219 C 0.67108 0.45581 0.59116 0.0
H220 H 0.22825 0.10333 0.04461 0.0
C221 C 0.18268 0.12986 0.01787 0.0
H222 H 0.04107 0.1427 0.96305 0.0
H223 H 0.92279 0.89967 0.95283 0.0
H224 H 0.94219 0.90422 0.89545 0.0
H225 H 1.00744 0.98438 0.88402 0.0
H226 H 0.05456 0.06054 0.93013 0.0
C227 C 0.08738 0.11861 0.99134 0.0
C228 C 0.04476 0.07009 0.99786 0.0
C229 C 1.01489 0.02604 0.97012 0.0
C230 C 0.97549 0.97976 0.97633 0.0
C231 C 0.95051 0.93607 0.94899 0.0
C232 C 0.96185 0.93804 0.91606 0.0
C233 C 0.99871 0.98318 0.90965 0.0
C234 C 0.02528 0.02667 0.9363 0.0
H235 H 0.78149 0.94197 0.96099 0.0
C236 C 0.82596 0.91671 0.98874 0.0
H237 H 0.96511 0.90643 0.04564 0.0
H238 H 0.08764 0.14747 0.05545 0.0
H239 H 0.06839 0.14291 0.11287 0.0
H240 H 1.00185 0.06308 0.12396 0.0
H241 H 0.9536 0.98717 0.07759 0.0
C242 C 0.92052 0.92905 0.01635 0.0
C243 C 0.96375 0.97739 0.00991 0.0
C244 C 0.9938 0.02142 0.03771 0.0
C245 C 0.03345 0.06764 0.03155 0.0
C246 C 0.05928 0.11119 0.05912 0.0
C247 C 0.0481 0.10922 0.0921 0.0
C248 C 1.01055 0.06425 0.09833 0.0
C249 C 0.98336 0.02087 0.07151 0.0
H250 H 0.81551 0.04992 0.51286 0.0
C251 C 0.83297 0.0882 0.50602 0.0
H252 H 0.91812 0.12751 0.49041 0.0
H253 H 0.24466 0.94917 0.56914 0.0
H254 H 0.33042 0.02231 0.61706 0.0
H255 H 0.24411 0.10421 0.6112 0.0
H256 H 0.07217 0.11322 0.55801 0.0
C257 C 0.89921 0.08974 0.49727 0.0
C258 C 0.95143 0.04027 0.49857 0.0
C259 C 0.05297 0.03547 0.52921 0.0
C260 C 0.10319 0.98845 0.5317 0.0
C261 C 0.2035 0.98446 0.56442 0.0
C262 C 0.25358 0.026 0.59253 0.0
C263 C 0.20515 0.07204 0.58935 0.0
C264 C 0.10612 0.07677 0.55844 0.0
H265 H 0.18904 0.93911 0.48865 0.0
C266 C 0.17383 0.90036 0.49579 0.0
H267 H 0.08876 0.85922 0.51072 0.0
H268 H 0.75928 0.03711 0.43262 0.0
H269 H 0.67379 0.96475 0.38365 0.0
H270 H 0.75996 0.8836 0.38828 0.0
H271 H 0.93236 0.87395 0.44225 0.0
C272 C 0.10606 0.89733 0.50361 0.0
C273 C 0.05278 0.94626 0.50246 0.0
C274 C 0.95116 0.95111 0.47169 0.0
C275 C 0.90085 0.99803 0.46942 0.0
C276 C 0.80049 1.00204 0.43687 0.0
C277 C 0.75057 0.96092 0.40824 0.0
C278 C 0.79909 0.91518 0.41086 0.0
C279 C 0.89813 0.91017 0.44203 0.0
H280 H 0.64944 0.25847 0.35572 0.0
C281 C 0.60434 0.23851 0.36334 0.0
H282 H 0.47129 0.19929 0.33723 0.0
H283 H 0.28115 0.31991 0.16013 0.0
H284 H 0.18667 0.35241 0.18394 0.0
H285 H 0.22747 0.32761 0.25449 0.0
H286 H 0.36225 0.2697 0.30122 0.0
C287 C 0.51944 0.21872 0.33125 0.0
C288 C 0.48874 0.22779 0.28662 0.0
C289 C 0.40827 0.2608 0.25896 0.0
C290 C 0.3873 0.27653 0.21888 0.0
C291 C 0.30424 0.3084 0.19169 0.0
C292 C 0.24823 0.32702 0.20476 0.0
C293 C 0.27096 0.31306 0.24437 0.0
C294 C 0.34901 0.27982 0.27101 0.0
H295 H 0.44829 0.2044 0.14624 0.0
C296 C 0.4242 0.24511 0.13729 0.0
H297 H 0.40126 0.31878 0.15428 0.0
H298 H 0.63704 0.15614 0.32775 0.0
H299 H 0.75071 0.13544 0.31071 0.0
H300 H 0.73389 0.17677 0.24871 0.0
H301 H 0.60223 0.23714 0.20279 0.0
C302 C 0.42633 0.27849 0.16488 0.0
C303 C 0.44979 0.2612 0.20721 0.0
C304 C 0.53305 0.22998 0.23603 0.0
C305 C 0.54846 0.21042 0.27417 0.0
C306 C 0.62591 0.17473 0.29992 0.0
C307 C 0.69124 0.1623 0.29039 0.0
C308 C 0.68152 0.18533 0.25539 0.0
C309 C 0.6041 0.21912 0.22867 0.0
H310 H 0.45301 0.81351 0.15969 0.0
C311 C 0.52131 0.80162 0.16547 0.0
H312 H 0.66445 0.77634 0.21302 0.0
H313 H 0.51736 0.8763 0.32632 0.0
H314 H 0.52222 0.96106 0.29823 0.0
H315 H 0.55753 0.96687 0.24474 0.0
H316 H 0.58644 0.88763 0.2184 0.0
C317 C 0.59468 0.78803 0.20554 0.0
C318 C 0.58169 0.78546 0.24074 0.0
C319 C 0.56842 0.83224 0.25708 0.0
C320 C 0.55224 0.829 0.28943 0.0
C321 C 0.53382 0.87629 0.30317 0.0
C322 C 0.53574 0.92533 0.28707 0.0
C323 C 0.55531 0.92859 0.25685 0.0
C324 C 0.57133 0.88275 0.24186 0.0
H325 H 0.65251 0.81455 0.387 0.0
C326 C 0.58735 0.79379 0.37836 0.0
H327 H 0.46514 0.75209 0.3285 0.0
H328 H 0.60824 0.68833 0.218 0.0
H329 H 0.61249 0.60368 0.24882 0.0
H330 H 0.59078 0.59821 0.30661 0.0
H331 H 0.56438 0.67736 0.33389 0.0
C332 C 0.52965 0.77425 0.33853 0.0
C333 C 0.55308 0.77902 0.30669 0.0
C334 C 0.56969 0.73248 0.29132 0.0
C335 C 0.58373 0.73569 0.25836 0.0
C336 C 0.59842 0.68833 0.24331 0.0
C337 C 0.60084 0.63941 0.26065 0.0
C338 C 0.58848 0.63633 0.29314 0.0
C339 C 0.57304 0.68212 0.3084 0.0
H340 H 0.55828 0.82004 0.85751 0.0
C341 C 0.59406 0.78229 0.87093 0.0
H342 H 0.63879 0.70967 0.86228 0.0
H343 H 0.36307 0.84358 0.67399 0.0
H344 H 0.24374 0.85688 0.68894 0.0
H345 H 0.27052 0.82045 0.75442 0.0
H346 H 0.41662 0.77212 0.80545 0.0
C347 C 0.60265 0.7469 0.84734 0.0
C348 C 0.57513 0.75891 0.80345 0.0
C349 C 0.48451 0.78252 0.7719 0.0
C350 C 0.46496 0.79891 0.73228 0.0
C351 C 0.37862 0.82741 0.70335 0.0
C352 C 0.30989 0.8356 0.71164 0.0
C353 C 0.32507 0.81536 0.74854 0.0
C354 C 0.41058 0.78862 0.77814 0.0
H355 H 0.38192 0.74046 0.65528 0.0
C356 C 0.42142 0.76391 0.64633 0.0
H357 H 0.54142 0.81435 0.66953 0.0
H358 H 0.75623 0.71283 0.85514 0.0
H359 H 0.85883 0.68521 0.83424 0.0
H360 H 0.81414 0.70424 0.76219 0.0
H361 H 0.66683 0.75132 0.71089 0.0
C362 C 0.49888 0.79102 0.67679 0.0
C363 C 0.52982 0.78544 0.72169 0.0
C364 C 0.61758 0.75912 0.75204 0.0
C365 C 0.64137 0.74677 0.79317 0.0
C366 C 0.7312 0.72145 0.82286 0.0
C367 C 0.79185 0.70573 0.81144 0.0
C368 C 0.76693 0.71646 0.77097 0.0
C369 C 0.68172 0.74344 0.74172 0.0
H370 H 0.57349 0.17278 0.68017 0.0
C371 C 0.51726 0.19784 0.65476 0.0
H372 H 0.41074 0.25525 0.63955 0.0
H373 H 0.45767 0.13339 0.80387 0.0
H374 H 0.3956 0.0555 0.75939 0.0
H375 H 0.37154 0.05453 0.69005 0.0
H376 H 0.40849 0.13171 0.66448 0.0
C377 C 0.4629 0.22691 0.66282 0.0
C378 C 0.47991 0.2263 0.70554 0.0
C379 C 0.45941 0.1805 0.72045 0.0
C380 C 0.47418 0.18089 0.76078 0.0
C381 C 0.44986 0.1351 0.77402 0.0
C382 C 0.41361 0.09011 0.74869 0.0
C383 C 0.39999 0.08959 0.70961 0.0
C384 C 0.42199 0.13417 0.69541 0.0
H385 H 0.42941 0.28478 0.81578 0.0
C386 C 0.48 0.25611 0.8395 0.0
H387 H 0.57815 0.1948 0.85145 0.0
H388 H 0.52306 0.32154 0.68635 0.0
H389 H 0.59026 0.39846 0.73182 0.0
H390 H 0.62555 0.3972 0.80343 0.0
H391 H 0.59238 0.31931 0.82972 0.0
C392 C 0.52962 0.22537 0.82976 0.0
C393 C 0.51102 0.22672 0.78674 0.0
C394 C 0.5326 0.27231 0.77205 0.0
C395 C 0.51488 0.27248 0.73111 0.0
C396 C 0.53549 0.31897 0.71713 0.0
C397 C 0.5744 0.36344 0.74298 0.0
C398 C 0.59415 0.36275 0.78327 0.0
C399 C 0.57399 0.31782 0.79785 0.0
H400 H 0.89221 0.7994 0.1568 0.0
C401 C 0.92906 0.77665 0.14626 0.0
H402 H 0.04692 0.72547 0.16631 0.0
H403 H 0.27768 0.81213 0.3568 0.0
H404 H 0.37723 0.84372 0.33516 0.0
H405 H 0.32754 0.83147 0.26176 0.0
H406 H 0.17622 0.78824 0.20922 0.0
C407 C 1.00789 0.74875 0.1754 0.0
C408 C 0.0426 0.75044 0.221 0.0
C409 C 0.13188 0.7749 0.25172 0.0
C410 C 0.15965 0.7826 0.29401 0.0
C411 C 0.25042 0.80656 0.32391 0.0
C412 C 0.30919 0.82455 0.31203 0.0
C413 C 0.28121 0.81772 0.27071 0.0
C414 C 0.19405 0.79289 0.24086 0.0
H415 H 0.09089 0.69939 0.35998 0.0
C416 C 0.12394 0.73741 0.3738 0.0
H417 H 0.16048 0.81304 0.3653 0.0
H418 H 0.87617 0.69259 0.17291 0.0
H419 H 0.76438 0.67107 0.19084 0.0
H420 H 0.79729 0.69948 0.25913 0.0
H421 H 0.94412 0.74662 0.31063 0.0
C422 C 0.12762 0.77543 0.3502 0.0
C423 C 0.09661 0.76707 0.30539 0.0
C424 C 1.00531 0.74435 0.27388 0.0
C425 C 0.98137 0.73305 0.2327 0.0
C426 C 0.89489 0.70506 0.2036 0.0
C427 C 0.83034 0.69224 0.21354 0.0
C428 C 0.84919 0.70785 0.25209 0.0
C429 C 0.93498 0.73403 0.28182 0.0
H430 H 0.08042 0.25153 0.35896 0.0
C431 C 0.01679 0.27221 0.35233 0.0
H432 H 0.8957 0.31845 0.3064 0.0
H433 H 0.06842 0.38143 0.20426 0.0
H434 H 0.09068 0.46302 0.24136 0.0
H435 H 0.05995 0.46727 0.29635 0.0
H436 H 1.00706 0.38961 0.31467 0.0
C437 C 0.95623 0.29428 0.31348 0.0
C438 C 0.97493 0.29104 0.2801 0.0
C439 C 1.00341 0.33702 0.2688 0.0
C440 C 0.01989 0.33468 0.23655 0.0
C441 C 0.05207 0.38096 0.22744 0.0
C442 C 0.06593 0.42814 0.24878 0.0
C443 C 0.04874 0.43052 0.27978 0.0
C444 C 0.01811 0.38564 0.28988 0.0
H445 H 0.91454 0.33419 0.13927 0.0
C446 C 0.97301 0.30926 0.1447 0.0
H447 H 0.0845 0.25669 0.18887 0.0
H448 H 0.91576 0.19623 0.29204 0.0
H449 H 0.89283 0.11433 0.25489 0.0
H450 H 0.92192 0.10998 0.19935 0.0
H451 H 0.97347 0.18763 0.1804 0.0
C452 C 0.02622 0.28266 0.18196 0.0
C453 C 1.00636 0.28634 0.21501 0.0
C454 C 0.97782 0.24039 0.22636 0.0
C455 C 0.96167 0.24278 0.2587 0.0
C456 C 0.93058 0.19654 0.26832 0.0
C457 C 0.91677 0.14925 0.24711 0.0
C458 C 0.93308 0.14681 0.21582 0.0
C459 C 0.96301 0.19169 0.20537 0.0
H460 H 0.96103 0.19283 0.65127 0.0
C461 C 0.91706 0.22808 0.63633 0.0
H462 H 0.86417 0.29908 0.6435 0.0
H463 H 0.88845 0.23871 0.80731 0.0
H464 H 0.71952 0.26067 0.75653 0.0
H465 H 0.65471 0.28208 0.68202 0.0
H466 H 0.75689 0.2785 0.65757 0.0
C467 C 0.90896 0.26433 0.6595 0.0
C468 C 0.95186 0.25649 0.70577 0.0
C469 C 0.89092 0.25966 0.71984 0.0
C470 C 0.92928 0.25012 0.76337 0.0
C471 C 0.86492 0.24936 0.77552 0.0
C472 C 0.76715 0.26107 0.74644 0.0
C473 C 0.73057 0.27266 0.7045 0.0
C474 C 0.79078 0.27106 0.69098 0.0
H475 H 1.01667 0.30723 0.84515 0.0
C476 C 0.06508 0.27392 0.86176 0.0
H477 H 0.12095 0.20217 0.85782 0.0
H478 H 0.09436 0.25586 0.69227 0.0
H479 H 0.25827 0.22375 0.74109 0.0
H480 H 0.31821 0.19619 0.81379 0.0
H481 H 0.22027 0.20719 0.83978 0.0
C482 C 0.07394 0.23556 0.84007 0.0
C483 C 0.02948 0.23936 0.79335 0.0
C484 C 0.08922 0.2333 0.77885 0.0
C485 C 0.05157 0.24414 0.73557 0.0
C486 C 0.116 0.2433 0.72342 0.0
C487 C 0.21109 0.22597 0.75141 0.0
C488 C 0.24545 0.21133 0.79254 0.0
C489 C 0.18713 0.2169 0.80679 0.0
H490 H 0.93312 0.72601 0.64744 0.0
C491 C 1.00694 0.72938 0.65674 0.0
H492 H 0.15146 0.74499 0.70878 0.0
H493 H 0.04079 0.8567 0.82135 0.0
H494 H 0.07171 0.93366 0.79323 0.0
H495 H 0.09469 0.92475 0.73603 0.0
H496 H 0.08721 0.83873 0.70665 0.0
C497 C 0.07755 0.73838 0.69818 0.0
C498 C 0.05668 0.74364 0.73083 0.0
C499 C 0.05974 0.79417 0.7474 0.0
C500 C 0.04467 0.79937 0.77995 0.0
C501 C 0.04995 0.85043 0.79618 0.0
C502 C 0.06799 0.89498 0.78042 0.0
C503 C 0.08109 0.88996 0.74826 0.0
C504 C 0.0769 0.84031 0.73178 0.0
H505 H 0.12311 0.71789 0.87629 0.0
C506 C 0.05996 0.74071 0.86793 0.0
H507 H 0.94116 0.78514 0.81839 0.0
H508 H 0.05035 0.64077 0.7079 0.0
H509 H 1.01383 0.56389 0.734 0.0
H510 H 0.97963 0.57311 0.78764 0.0
H511 H 0.98297 0.65894 0.81594 0.0
C512 C 1.00346 0.76093 0.8281 0.0
C513 C 0.02568 0.75407 0.79592 0.0
C514 C 0.02155 0.70344 0.77897 0.0
C515 C 0.03826 0.69824 0.74687 0.0
C516 C 0.03623 0.64713 0.73151 0.0
C517 C 1.01559 0.60262 0.7463 0.0
C518 C 0.99657 0.6078 0.77658 0.0
C519 C 0.99935 0.65743 0.79279 0.0
loop_
_geom_bond_atom_site_label_1
_geom_bond_atom_site_label_2
_geom_bond_distance
_geom_bond_site_symmetry_2
_ccdc_geom_bond_type
Sm0 C2 2.846 1_556 S
Sm0 O20 2.543 1_556 S
Sm0 O21 2.450 1_556 S
Sm0 O22 2.681 . S
Sm0 O23 2.464 1_556 S
Sm0 O24 2.396 1_556 S
Sm0 O28 2.386 1_556 S
Sm0 O31 2.408 . S
Sm1 C11 2.846 1_554 S
Sm1 O22 2.386 1_554 S
Sm1 O25 2.408 . S
Sm1 O26 2.543 1_554 S
Sm1 O27 2.450 1_554 S
Sm1 O28 2.681 . S
Sm1 O29 2.464 1_554 S
Sm1 O30 2.396 1_554 S
C2 Sm0 2.846 1_554 S
C2 C3 1.506 . S
C2 O20 1.261 . S
C2 O21 1.242 . S
C3 C2 1.506 . S
C3 C4 1.358 . S
C3 C8 1.382 . S
C4 C3 1.358 . S
C4 C5 1.385 . S
C4 H32 0.930 . S
C5 C4 1.385 . S
C5 C6 1.395 . S
C5 H33 0.929 . S
C6 C5 1.395 . S
C6 C7 1.335 . S
C7 C6 1.335 . S
C7 C8 1.398 . S
C7 H34 0.930 . S
C8 C3 1.382 . S
C8 C7 1.398 . S
C8 H35 0.929 . S
C9 O22 1.271 1_554 S
C9 O23 1.251 . S
C10 O24 1.252 . S
C10 O25 1.272 . S
C11 Sm1 2.846 1_556 S
C11 C12 1.506 . S
C11 O26 1.261 . S
C11 O27 1.242 . S
C12 C11 1.506 . S
C12 C13 1.358 . S
C12 C17 1.382 . S
C13 C12 1.358 . S
C13 C14 1.385 . S
C13 H36 0.930 . S
C14 C13 1.385 . S
C14 C15 1.395 . S
C14 H37 0.929 . S
C15 C14 1.395 . S
C15 C16 1.335 . S
C16 C15 1.335 . S
C16 C17 1.398 . S
C16 H38 0.930 . S
C17 C12 1.382 . S
C17 C16 1.398 . S
C17 H39 0.929 . S
C18 O28 1.271 1_556 S
C18 O29 1.251 . S
C19 O30 1.252 . S
C19 O31 1.272 . S
O20 Sm0 2.543 1_554 S
O20 C2 1.261 . S
O21 Sm0 2.450 1_554 S
O21 C2 1.242 . S
O22 Sm0 2.681 . S
O22 Sm1 2.386 1_556 S
O22 C9 1.271 1_556 S
O23 Sm0 2.464 1_554 S
O23 C9 1.251 . S
O24 Sm0 2.396 1_554 S
O24 C10 1.252 . S
O25 Sm1 2.408 . S
O25 C10 1.272 . S
O26 Sm1 2.543 1_556 S
O26 C11 1.261 . S
O27 Sm1 2.450 1_556 S
O27 C11 1.242 . S
O28 Sm0 2.386 1_554 S
O28 Sm1 2.681 . S
O28 C18 1.271 1_554 S
O29 Sm1 2.464 1_556 S
O29 C18 1.251 . S
O30 Sm1 2.396 1_556 S
O30 C19 1.252 . S
O31 Sm0 2.408 . S
O31 C19 1.272 . S
H32 C4 0.930 . S
H33 C5 0.929 . S
H34 C7 0.930 . S
H35 C8 0.929 . S
H36 C13 0.930 . S
H37 C14 0.929 . S
H38 C16 0.930 . S
H39 C17 0.929 . S
Sm40 C42 2.846 1_556 S
Sm40 O60 2.543 1_556 S
Sm40 O61 2.450 1_556 S
Sm40 O62 2.681 . S
Sm40 O63 2.464 1_556 S
Sm40 O64 2.396 1_556 S
Sm40 O68 2.386 1_556 S
Sm40 O71 2.408 . S
Sm41 C51 2.846 1_554 S
Sm41 O62 2.386 1_554 S
Sm41 O65 2.408 . S
Sm41 O66 2.543 1_554 S
Sm41 O67 2.450 1_554 S
Sm41 O68 2.681 . S
Sm41 O69 2.464 1_554 S
Sm41 O70 2.396 1_554 S
C42 Sm40 2.846 1_554 S
C42 C43 1.506 . S
C42 O60 1.261 . S
C42 O61 1.242 . S
C43 C42 1.506 . S
C43 C44 1.358 . S
C43 C48 1.382 . S
C44 C43 1.358 . S
C44 C45 1.385 . S
C44 H72 0.930 . S
C45 C44 1.385 . S
C45 C46 1.395 . S
C45 H73 0.929 . S
C46 C45 1.395 . S
C46 C47 1.335 . S
C47 C46 1.335 . S
C47 C48 1.398 . S
C47 H74 0.930 . S
C48 C43 1.382 . S
C48 C47 1.398 . S
C48 H75 0.929 . S
C49 O62 1.271 1_554 S
C49 O63 1.251 . S
C50 O64 1.252 . S
C50 O65 1.272 . S
C51 Sm41 2.846 1_556 S
C51 C52 1.506 . S
C51 O66 1.261 . S
C51 O67 1.242 . S
C52 C51 1.506 . S
C52 C53 1.358 . S
C52 C57 1.382 . S
C53 C52 1.358 . S
C53 C54 1.385 . S
C53 H76 0.930 . S
C54 C53 1.385 . S
C54 C55 1.395 . S
C54 H77 0.929 . S
C55 C54 1.395 . S
C55 C56 1.335 . S
C56 C55 1.335 . S
C56 C57 1.398 . S
C56 H78 0.930 . S
C57 C52 1.382 . S
C57 C56 1.398 . S
C57 H79 0.929 . S
C58 O68 1.271 1_556 S
C58 O69 1.251 . S
C59 O70 1.252 . S
C59 O71 1.272 . S
O60 Sm40 2.543 1_554 S
O60 C42 1.261 . S
O61 Sm40 2.450 1_554 S
O61 C42 1.242 . S
O62 Sm40 2.681 . S
O62 Sm41 2.386 1_556 S
O62 C49 1.271 1_556 S
O63 Sm40 2.464 1_554 S
O63 C49 1.251 . S
O64 Sm40 2.396 1_554 S
O64 C50 1.252 . S
O65 Sm41 2.408 . S
O65 C50 1.272 . S
O66 Sm41 2.543 1_556 S
O66 C51 1.261 . S
O67 Sm41 2.450 1_556 S
O67 C51 1.242 . S
O68 Sm40 2.386 1_554 S
O68 Sm41 2.681 . S
O68 C58 1.271 1_554 S
O69 Sm41 2.464 1_556 S
O69 C58 1.251 . S
O70 Sm41 2.396 1_556 S
O70 C59 1.252 . S
O71 Sm40 2.408 . S
O71 C59 1.272 . S
H72 C44 0.930 . S
H73 C45 0.929 . S
H74 C47 0.930 . S
H75 C48 0.929 . S
H76 C53 0.930 . S
H77 C54 0.929 . S
H78 C56 0.930 . S
H79 C57 0.929 . S
Sm80 C82 2.846 . S
Sm80 O100 2.543 . S
Sm80 O101 2.450 . S
Sm80 O102 2.681 . S
Sm80 O103 2.464 . S
Sm80 O104 2.396 . S
Sm80 O108 2.386 . S
Sm80 O111 2.408 . S
Sm81 C91 2.846 . S
Sm81 O102 2.386 . S
Sm81 O105 2.408 . S
Sm81 O106 2.543 . S
Sm81 O107 2.450 . S
Sm81 O108 2.681 . S
Sm81 O109 2.464 . S
Sm81 O110 2.396 . S
C82 Sm80 2.846 . S
C82 C83 1.506 . S
C82 O100 1.261 . S
C82 O101 1.242 . S
C83 C82 1.506 . S
C83 C84 1.358 . S
C83 C88 1.382 . S
C84 C83 1.358 . S
C84 C85 1.385 . S
C84 H112 0.930 . S
C85 C84 1.385 . S
C85 C86 1.395 . S
C85 H113 0.929 . S
C86 C85 1.395 . S
C86 C87 1.335 . S
C87 C86 1.335 . S
C87 C88 1.398 . S
C87 H114 0.930 . S
C88 C83 1.382 . S
C88 C87 1.398 . S
C88 H115 0.929 . S
C89 O102 1.271 . S
C89 O103 1.251 . S
C90 O104 1.252 . S
C90 O105 1.272 . S
C91 Sm81 2.846 . S
C91 C92 1.506 . S
C91 O106 1.261 . S
C91 O107 1.242 . S
C92 C91 1.506 . S
C92 C93 1.358 . S
C92 C97 1.382 . S
C93 C92 1.358 . S
C93 C94 1.385 . S
C93 H116 0.930 . S
C94 C93 1.385 . S
C94 C95 1.395 . S
C94 H117 0.929 . S
C95 C94 1.395 . S
C95 C96 1.335 . S
C96 C95 1.335 . S
C96 C97 1.398 . S
C96 H118 0.930 . S
C97 C92 1.382 . S
C97 C96 1.398 . S
C97 H119 0.929 . S
C98 O108 1.271 . S
C98 O109 1.251 . S
C99 O110 1.252 . S
C99 O111 1.272 . S
O100 Sm80 2.543 . S
O100 C82 1.261 . S
O101 Sm80 2.450 . S
O101 C82 1.242 . S
O102 Sm80 2.681 . S
O102 Sm81 2.386 . S
O102 C89 1.271 . S
O103 Sm80 2.464 . S
O103 C89 1.251 . S
O104 Sm80 2.396 . S
O104 C90 1.252 . S
O105 Sm81 2.408 . S
O105 C90 1.272 . S
O106 Sm81 2.543 . S
O106 C91 1.261 . S
O107 Sm81 2.450 . S
O107 C91 1.242 . S
O108 Sm80 2.386 . S
O108 Sm81 2.681 . S
O108 C98 1.271 . S
O109 Sm81 2.464 . S
O109 C98 1.251 . S
O110 Sm81 2.396 . S
O110 C99 1.252 . S
O111 Sm80 2.408 . S
O111 C99 1.272 . S
H112 C84 0.930 . S
H113 C85 0.929 . S
H114 C87 0.930 . S
H115 C88 0.929 . S
H116 C93 0.930 . S
H117 C94 0.929 . S
H118 C96 0.930 . S
H119 C97 0.929 . S
Sm120 C122 2.846 . S
Sm120 O140 2.543 . S
Sm120 O141 2.450 . S
Sm120 O142 2.681 . S
Sm120 O143 2.464 . S
Sm120 O144 2.396 . S
Sm120 O148 2.386 . S
Sm120 O151 2.408 . S
Sm121 C131 2.846 . S
Sm121 O142 2.386 . S
Sm121 O145 2.408 . S
Sm121 O146 2.543 . S
Sm121 O147 2.450 . S
Sm121 O148 2.681 . S
Sm121 O149 2.464 . S
Sm121 O150 2.396 . S
C122 Sm120 2.846 . S
C122 C123 1.506 . S
C122 O140 1.261 . S
C122 O141 1.242 . S
C123 C122 1.506 . S
C123 C124 1.358 . S
C123 C128 1.382 . S
C124 C123 1.358 . S
C124 C125 1.385 . S
C124 H152 0.930 . S
C125 C124 1.385 . S
C125 C126 1.395 . S
C125 H153 0.929 . S
C126 C125 1.395 . S
C126 C127 1.335 . S
C127 C126 1.335 . S
C127 C128 1.398 . S
C127 H154 0.930 . S
C128 C123 1.382 . S
C128 C127 1.398 . S
C128 H155 0.929 . S
C129 O142 1.271 . S
C129 O143 1.251 . S
C130 O144 1.252 . S
C130 O145 1.272 . S
C131 Sm121 2.846 . S
C131 C132 1.506 . S
C131 O146 1.261 . S
C131 O147 1.242 . S
C132 C131 1.506 . S
C132 C133 1.358 . S
C132 C137 1.382 . S
C133 C132 1.358 . S
C133 C134 1.385 . S
C133 H156 0.930 . S
C134 C133 1.385 . S
C134 C135 1.395 . S
C134 H157 0.929 . S
C135 C134 1.395 . S
C135 C136 1.335 . S
C136 C135 1.335 . S
C136 C137 1.398 . S
C136 H158 0.930 . S
C137 C132 1.382 . S
C137 C136 1.398 . S
C137 H159 0.929 . S
C138 O148 1.271 . S
C138 O149 1.251 . S
C139 O150 1.252 . S
C139 O151 1.272 . S
O140 Sm120 2.543 . S
O140 C122 1.261 . S
O141 Sm120 2.450 . S
O141 C122 1.242 . S
O142 Sm120 2.681 . S
O142 Sm121 2.386 . S
O142 C129 1.271 . S
O143 Sm120 2.464 . S
O143 C129 1.251 . S
O144 Sm120 2.396 . S
O144 C130 1.252 . S
O145 Sm121 2.408 . S
O145 C130 1.272 . S
O146 Sm121 2.543 . S
O146 C131 1.261 . S
O147 Sm121 2.450 . S
O147 C131 1.242 . S
O148 Sm120 2.386 . S
O148 Sm121 2.681 . S
O148 C138 1.271 . S
O149 Sm121 2.464 . S
O149 C138 1.251 . S
O150 Sm121 2.396 . S
O150 C139 1.252 . S
O151 Sm120 2.408 . S
O151 C139 1.272 . S
H152 C124 0.930 . S
H153 C125 0.929 . S
H154 C127 0.930 . S
H155 C128 0.929 . S
H156 C133 0.930 . S
H157 C134 0.929 . S
H158 C136 0.930 . S
H159 C137 0.929 . S
H160 C161 0.951 1_554 S
C161 H160 0.951 1_556 S
C161 C167 1.265 . S
H162 C167 0.950 . S
H163 C171 0.949 . S
H164 C172 0.950 . S
H165 C173 0.951 . S
H166 C174 0.951 . S
C167 C161 1.265 . S
C167 H162 0.950 . S
C167 C168 1.478 . S
C168 C167 1.478 . S
C168 C169 1.397 . S
C168 C185 1.394 1_556 S
C169 C168 1.397 . S
C169 C170 1.438 . S
C169 C174 1.429 . S
C170 C169 1.438 . S
C170 C171 1.428 . S
C170 C183 1.394 1_556 S
C171 H163 0.949 . S
C171 C170 1.428 . S
C171 C172 1.345 . S
C172 H164 0.950 . S
C172 C171 1.345 . S
C172 C173 1.424 . S
C173 H165 0.951 . S
C173 C172 1.424 . S
C173 C174 1.347 . S
C174 H166 0.951 . S
C174 C169 1.429 . S
C174 C173 1.347 . S
H175 C176 0.951 1_556 S
C176 H175 0.951 1_554 S
C176 C182 1.265 . S
H177 C182 0.950 . S
H178 C186 0.949 . S
H179 C187 0.950 . S
H180 C188 0.951 . S
H181 C189 0.951 . S
C182 C176 1.265 . S
C182 H177 0.950 . S
C182 C183 1.478 . S
C183 C170 1.394 1_554 S
C183 C182 1.478 . S
C183 C184 1.397 . S
C184 C183 1.397 . S
C184 C185 1.438 . S
C184 C189 1.429 . S
C185 C168 1.394 1_554 S
C185 C184 1.438 . S
C185 C186 1.428 . S
C186 H178 0.949 . S
C186 C185 1.428 . S
C186 C187 1.345 . S
C187 H179 0.950 . S
C187 C186 1.345 . S
C187 C188 1.424 . S
C188 H180 0.951 . S
C188 C187 1.424 . S
C188 C189 1.347 . S
C189 H181 0.951 . S
C189 C184 1.429 . S
C189 C188 1.347 . S
H190 C191 0.951 . S
C191 H190 0.951 . S
C191 C197 1.265 . S
H192 C197 0.950 . S
H193 C201 0.949 . S
H194 C202 0.950 . S
H195 C203 0.951 . S
H196 C204 0.951 . S
C197 C191 1.265 . S
C197 H192 0.950 . S
C197 C198 1.478 . S
C198 C197 1.478 . S
C198 C199 1.397 . S
C198 C215 1.394 . S
C199 C198 1.397 . S
C199 C200 1.438 . S
C199 C204 1.429 . S
C200 C199 1.438 . S
C200 C201 1.428 . S
C200 C213 1.394 . S
C201 H193 0.949 . S
C201 C200 1.428 . S
C201 C202 1.345 . S
C202 H194 0.950 . S
C202 C201 1.345 . S
C202 C203 1.424 . S
C203 H195 0.951 . S
C203 C202 1.424 . S
C203 C204 1.347 . S
C204 H196 0.951 . S
C204 C199 1.429 . S
C204 C203 1.347 . S
H205 C206 0.951 . S
C206 H205 0.951 . S
C206 C212 1.265 . S
H207 C212 0.950 . S
H208 C216 0.949 . S
H209 C217 0.950 . S
H210 C218 0.951 . S
H211 C219 0.951 . S
C212 C206 1.265 . S
C212 H207 0.950 . S
C212 C213 1.478 . S
C213 C200 1.394 . S
C213 C212 1.478 . S
C213 C214 1.397 . S
C214 C213 1.397 . S
C214 C215 1.438 . S
C214 C219 1.429 . S
C215 C198 1.394 . S
C215 C214 1.438 . S
C215 C216 1.428 . S
C216 H208 0.949 . S
C216 C215 1.428 . S
C216 C217 1.345 . S
C217 H209 0.950 . S
C217 C216 1.345 . S
C217 C218 1.424 . S
C218 H210 0.951 . S
C218 C217 1.424 . S
C218 C219 1.347 . S
C219 H211 0.951 . S
C219 C214 1.429 . S
C219 C218 1.347 . S
H220 C221 0.951 1_554 S
C221 H220 0.951 1_556 S
C221 C227 1.265 . S
H222 C227 0.950 . S
H223 C231 0.949 . S
H224 C232 0.950 . S
H225 C233 0.951 . S
H226 C234 0.951 . S
C227 C221 1.265 . S
C227 H222 0.950 . S
C227 C228 1.478 . S
C228 C227 1.478 . S
C228 C229 1.397 1_455 S
C228 C245 1.394 1_556 S
C229 C228 1.397 1_655 S
C229 C230 1.438 1_545 S
C229 C234 1.429 . S
C230 C229 1.438 1_565 S
C230 C231 1.428 . S
C230 C243 1.394 1_556 S
C231 H223 0.949 . S
C231 C230 1.428 . S
C231 C232 1.345 . S
C232 H224 0.950 . S
C232 C231 1.345 . S
C232 C233 1.424 . S
C233 H225 0.951 . S
C233 C232 1.424 . S
C233 C234 1.347 1_565 S
C234 H226 0.951 . S
C234 C229 1.429 . S
C234 C233 1.347 1_545 S
H235 C236 0.951 1_556 S
C236 H235 0.951 1_554 S
C236 C242 1.265 . S
H237 C242 0.950 . S
H238 C246 0.949 . S
H239 C247 0.950 . S
H240 C248 0.951 . S
H241 C249 0.951 . S
C242 C236 1.265 . S
C242 H237 0.950 . S
C242 C243 1.478 . S
C243 C230 1.394 1_554 S
C243 C242 1.478 . S
C243 C244 1.397 1_655 S
C244 C243 1.397 1_455 S
C244 C245 1.438 1_565 S
C244 C249 1.429 . S
C245 C228 1.394 1_554 S
C245 C244 1.438 1_545 S
C245 C246 1.428 . S
C246 H238 0.949 . S
C246 C245 1.428 . S
C246 C247 1.345 . S
C247 H239 0.950 . S
C247 C246 1.345 . S
C247 C248 1.424 . S
C248 H240 0.951 . S
C248 C247 1.424 . S
C248 C249 1.347 1_545 S
C249 H241 0.951 . S
C249 C244 1.429 . S
C249 C248 1.347 1_565 S
H250 C251 0.951 . S
C251 H250 0.951 . S
C251 C257 1.265 . S
H252 C257 0.950 . S
H253 C261 0.949 . S
H254 C262 0.950 . S
H255 C263 0.951 . S
H256 C264 0.951 . S
C257 C251 1.265 . S
C257 H252 0.950 . S
C257 C258 1.478 . S
C258 C257 1.478 . S
C258 C259 1.397 1_655 S
C258 C275 1.394 . S
C259 C258 1.397 1_455 S
C259 C260 1.438 1_545 S
C259 C264 1.429 . S
C260 C259 1.438 1_565 S
C260 C261 1.428 . S
C260 C273 1.394 . S
C261 H253 0.949 . S
C261 C260 1.428 . S
C261 C262 1.345 1_565 S
C262 H254 0.950 . S
C262 C261 1.345 1_545 S
C262 C263 1.424 . S
C263 H255 0.951 . S
C263 C262 1.424 . S
C263 C264 1.347 . S
C264 H256 0.951 . S
C264 C259 1.429 . S
C264 C263 1.347 . S
H265 C266 0.951 . S
C266 H265 0.951 . S
C266 C272 1.265 . S
H267 C272 0.950 . S
H268 C276 0.949 . S
H269 C277 0.950 . S
H270 C278 0.951 . S
H271 C279 0.951 . S
C272 C266 1.265 . S
C272 H267 0.950 . S
C272 C273 1.478 . S
C273 C260 1.394 . S
C273 C272 1.478 . S
C273 C274 1.397 1_455 S
C274 C273 1.397 1_655 S
C274 C275 1.438 1_565 S
C274 C279 1.429 . S
C275 C258 1.394 . S
C275 C274 1.438 1_545 S
C275 C276 1.428 . S
C276 H268 0.949 . S
C276 C275 1.428 . S
C276 C277 1.345 1_545 S
C277 H269 0.950 . S
C277 C276 1.345 1_565 S
C277 C278 1.424 . S
C278 H270 0.951 . S
C278 C277 1.424 . S
C278 C279 1.347 . S
C279 H271 0.951 . S
C279 C274 1.429 . S
C279 C278 1.347 . S
H280 C281 0.951 . S
C281 H280 0.951 . S
C281 C287 1.265 . S
H282 C287 0.950 . S
H283 C291 0.949 . S
H284 C292 0.950 . S
H285 C293 0.951 . S
H286 C294 0.951 . S
C287 C281 1.265 . S
C287 H282 0.950 . S
C287 C288 1.478 . S
C288 C287 1.478 . S
C288 C289 1.397 . S
C288 C305 1.394 . S
C289 C288 1.397 . S
C289 C290 1.438 . S
C289 C294 1.429 . S
C290 C289 1.438 . S
C290 C291 1.428 . S
C290 C303 1.394 . S
C291 H283 0.949 . S
C291 C290 1.428 . S
C291 C292 1.345 . S
C292 H284 0.950 . S
C292 C291 1.345 . S
C292 C293 1.424 . S
C293 H285 0.951 . S
C293 C292 1.424 . S
C293 C294 1.347 . S
C294 H286 0.951 . S
C294 C289 1.429 . S
C294 C293 1.347 . S
H295 C296 0.951 . S
C296 H295 0.951 . S
C296 C302 1.265 . S
H297 C302 0.950 . S
H298 C306 0.949 . S
H299 C307 0.950 . S
H300 C308 0.951 . S
H301 C309 0.951 . S
C302 C296 1.265 . S
C302 H297 0.950 . S
C302 C303 1.478 . S
C303 C290 1.394 . S
C303 C302 1.478 . S
C303 C304 1.397 . S
C304 C303 1.397 . S
C304 C305 1.438 . S
C304 C309 1.429 . S
C305 C288 1.394 . S
C305 C304 1.438 . S
C305 C306 1.428 . S
C306 H298 0.949 . S
C306 C305 1.428 . S
C306 C307 1.345 . S
C307 H299 0.950 . S
C307 C306 1.345 . S
C307 C308 1.424 . S
C308 H300 0.951 . S
C308 C307 1.424 . S
C308 C309 1.347 . S
C309 H301 0.951 . S
C309 C304 1.429 . S
C309 C308 1.347 . S
H310 C311 0.951 . S
C311 H310 0.951 . S
C311 C317 1.265 . S
H312 C317 0.950 . S
H313 C321 0.949 . S
H314 C322 0.950 . S
H315 C323 0.951 . S
H316 C324 0.951 . S
C317 C311 1.265 . S
C317 H312 0.950 . S
C317 C318 1.478 . S
C318 C317 1.478 . S
C318 C319 1.397 . S
C318 C335 1.394 . S
C319 C318 1.397 . S
C319 C320 1.438 . S
C319 C324 1.429 . S
C320 C319 1.438 . S
C320 C321 1.428 . S
C320 C333 1.394 . S
C321 H313 0.949 . S
C321 C320 1.428 . S
C321 C322 1.345 . S
C322 H314 0.950 . S
C322 C321 1.345 . S
C322 C323 1.424 . S
C323 H315 0.951 . S
C323 C322 1.424 . S
C323 C324 1.347 . S
C324 H316 0.951 . S
C324 C319 1.429 . S
C324 C323 1.347 . S
H325 C326 0.951 . S
C326 H325 0.951 . S
C326 C332 1.265 . S
H327 C332 0.950 . S
H328 C336 0.949 . S
H329 C337 0.950 . S
H330 C338 0.951 . S
H331 C339 0.951 . S
C332 C326 1.265 . S
C332 H327 0.950 . S
C332 C333 1.478 . S
C333 C320 1.394 . S
C333 C332 1.478 . S
C333 C334 1.397 . S
C334 C333 1.397 . S
C334 C335 1.438 . S
C334 C339 1.429 . S
C335 C318 1.394 . S
C335 C334 1.438 . S
C335 C336 1.428 . S
C336 H328 0.949 . S
C336 C335 1.428 . S
C336 C337 1.345 . S
C337 H329 0.950 . S
C337 C336 1.345 . S
C337 C338 1.424 . S
C338 H330 0.951 . S
C338 C337 1.424 . S
C338 C339 1.347 . S
C339 H331 0.951 . S
C339 C334 1.429 . S
C339 C338 1.347 . S
H340 C341 0.951 . S
C341 H340 0.951 . S
C341 C347 1.265 . S
H342 C347 0.950 . S
H343 C351 0.949 . S
H344 C352 0.950 . S
H345 C353 0.951 . S
H346 C354 0.951 . S
C347 C341 1.265 . S
C347 H342 0.950 . S
C347 C348 1.478 . S
C348 C347 1.478 . S
C348 C349 1.397 . S
C348 C365 1.394 . S
C349 C348 1.397 . S
C349 C350 1.438 . S
C349 C354 1.429 . S
C350 C349 1.438 . S
C350 C351 1.428 . S
C350 C363 1.394 . S
C351 H343 0.949 . S
C351 C350 1.428 . S
C351 C352 1.345 . S
C352 H344 0.950 . S
C352 C351 1.345 . S
C352 C353 1.424 . S
C353 H345 0.951 . S
C353 C352 1.424 . S
C353 C354 1.347 . S
C354 H346 0.951 . S
C354 C349 1.429 . S
C354 C353 1.347 . S
H355 C356 0.951 . S
C356 H355 0.951 . S
C356 C362 1.265 . S
H357 C362 0.950 . S
H358 C366 0.949 . S
H359 C367 0.950 . S
H360 C368 0.951 . S
H361 C369 0.951 . S
C362 C356 1.265 . S
C362 H357 0.950 . S
C362 C363 1.478 . S
C363 C350 1.394 . S
C363 C362 1.478 . S
C363 C364 1.397 . S
C364 C363 1.397 . S
C364 C365 1.438 . S
C364 C369 1.429 . S
C365 C348 1.394 . S
C365 C364 1.438 . S
C365 C366 1.428 . S
C366 H358 0.949 . S
C366 C365 1.428 . S
C366 C367 1.345 . S
C367 H359 0.950 . S
C367 C366 1.345 . S
C367 C368 1.424 . S
C368 H360 0.951 . S
C368 C367 1.424 . S
C368 C369 1.347 . S
C369 H361 0.951 . S
C369 C364 1.429 . S
C369 C368 1.347 . S
H370 C371 0.951 . S
C371 H370 0.951 . S
C371 C377 1.265 . S
H372 C377 0.950 . S
H373 C381 0.949 . S
H374 C382 0.950 . S
H375 C383 0.955 . S
H376 C384 0.951 . S
C377 C371 1.265 . S
C377 H372 0.950 . S
C377 C378 1.478 . S
C378 C377 1.478 . S
C378 C379 1.397 . S
C378 C395 1.394 . S
C379 C378 1.397 . S
C379 C380 1.438 . S
C379 C384 1.429 . S
C380 C379 1.438 . S
C380 C381 1.428 . S
C380 C393 1.394 . S
C381 H373 0.949 . S
C381 C380 1.428 . S
C381 C382 1.345 . S
C382 H374 0.950 . S
C382 C381 1.345 . S
C382 C383 1.424 . S
C383 H375 0.955 . S
C383 C382 1.424 . S
C383 C384 1.347 . S
C384 H376 0.951 . S
C384 C379 1.429 . S
C384 C383 1.347 . S
H385 C386 0.951 . S
C386 H385 0.951 . S
C386 C392 1.265 . S
H387 C392 0.950 . S
H388 C396 0.949 . S
H389 C397 0.950 . S
H390 C398 0.951 . S
H391 C399 0.951 . S
C392 C386 1.265 . S
C392 H387 0.950 . S
C392 C393 1.478 . S
C393 C380 1.394 . S
C393 C392 1.478 . S
C393 C394 1.397 . S
C394 C393 1.397 . S
C394 C395 1.438 . S
C394 C399 1.429 . S
C395 C378 1.394 . S
C395 C394 1.438 . S
C395 C396 1.428 . S
C396 H388 0.949 . S
C396 C395 1.428 . S
C396 C397 1.345 . S
C397 H389 0.950 . S
C397 C396 1.345 . S
C397 C398 1.424 . S
C398 H390 0.951 . S
C398 C397 1.424 . S
C398 C399 1.347 . S
C399 H391 0.951 . S
C399 C394 1.429 . S
C399 C398 1.347 . S
H400 C401 0.951 . S
C401 H400 0.951 . S
C401 C407 1.265 . S
H402 C407 0.950 1_455 S
H403 C411 0.949 . S
H404 C412 0.950 . S
H405 C413 0.951 . S
H406 C414 0.951 . S
C407 C401 1.265 . S
C407 H402 0.950 1_655 S
C407 C408 1.478 . S
C408 C407 1.478 . S
C408 C409 1.397 1_655 S
C408 C425 1.394 . S
C409 C408 1.397 1_455 S
C409 C410 1.438 . S
C409 C414 1.429 . S
C410 C409 1.438 . S
C410 C411 1.428 . S
C410 C423 1.394 . S
C411 H403 0.949 . S
C411 C410 1.428 . S
C411 C412 1.345 . S
C412 H404 0.950 . S
C412 C411 1.345 . S
C412 C413 1.424 . S
C413 H405 0.951 . S
C413 C412 1.424 . S
C413 C414 1.347 . S
C414 H406 0.951 . S
C414 C409 1.429 . S
C414 C413 1.347 . S
H415 C416 0.951 . S
C416 H415 0.951 . S
C416 C422 1.265 . S
H417 C422 0.950 1_655 S
H418 C426 0.949 . S
H419 C427 0.950 . S
H420 C428 0.951 . S
H421 C429 0.951 . S
C422 C416 1.265 . S
C422 H417 0.950 1_455 S
C422 C423 1.478 . S
C423 C410 1.394 . S
C423 C422 1.478 . S
C423 C424 1.397 1_455 S
C424 C423 1.397 1_655 S
C424 C425 1.438 . S
C424 C429 1.429 . S
C425 C408 1.394 . S
C425 C424 1.438 . S
C425 C426 1.428 . S
C426 H418 0.949 . S
C426 C425 1.428 . S
C426 C427 1.345 . S
C427 H419 0.950 . S
C427 C426 1.345 . S
C427 C428 1.424 . S
C428 H420 0.951 . S
C428 C427 1.424 . S
C428 C429 1.347 . S
C429 H421 0.951 . S
C429 C424 1.429 . S
C429 C428 1.347 . S
H430 C431 0.951 . S
C431 H430 0.951 . S
C431 C437 1.265 . S
H432 C437 0.950 1_455 S
H433 C441 0.949 . S
H434 C442 0.950 . S
H435 C443 0.951 . S
H436 C444 0.951 . S
C437 C431 1.265 . S
C437 H432 0.950 1_655 S
C437 C438 1.478 . S
C438 C437 1.478 . S
C438 C439 1.397 1_655 S
C438 C455 1.394 . S
C439 C438 1.397 1_455 S
C439 C440 1.438 . S
C439 C444 1.429 . S
C440 C439 1.438 . S
C440 C441 1.428 . S
C440 C453 1.394 . S
C441 H433 0.949 . S
C441 C440 1.428 . S
C441 C442 1.345 . S
C442 H434 0.950 . S
C442 C441 1.345 . S
C442 C443 1.424 . S
C443 H435 0.951 . S
C443 C442 1.424 . S
C443 C444 1.347 . S
C444 H436 0.951 . S
C444 C439 1.429 . S
C444 C443 1.347 . S
H445 C446 0.951 . S
C446 H445 0.951 . S
C446 C452 1.265 . S
H447 C452 0.950 1_655 S
H448 C456 0.949 . S
H449 C457 0.950 . S
H450 C458 0.951 . S
H451 C459 0.951 . S
C452 C446 1.265 . S
C452 H447 0.950 1_455 S
C452 C453 1.478 . S
C453 C440 1.394 . S
C453 C452 1.478 . S
C453 C454 1.397 1_455 S
C454 C453 1.397 1_655 S
C454 C455 1.438 . S
C454 C459 1.429 . S
C455 C438 1.394 . S
C455 C454 1.438 . S
C455 C456 1.428 . S
C456 H448 0.949 . S
C456 C455 1.428 . S
C456 C457 1.345 . S
C457 H449 0.950 . S
C457 C456 1.345 . S
C457 C458 1.424 . S
C458 H450 0.951 . S
C458 C457 1.424 . S
C458 C459 1.347 . S
C459 H451 0.951 . S
C459 C454 1.429 . S
C459 C458 1.347 . S
H460 C461 0.951 . S
C461 H460 0.951 . S
C461 C467 1.265 . S
H462 C467 0.950 1_455 S
H463 C471 0.949 . S
H464 C472 0.950 . S
H465 C473 0.951 . S
H466 C474 0.951 . S
C467 C461 1.265 . S
C467 H462 0.950 1_655 S
C467 C468 1.478 . S
C468 C467 1.478 . S
C468 C469 1.397 1_655 S
C468 C485 1.394 . S
C469 C468 1.397 1_455 S
C469 C470 1.438 . S
C469 C474 1.429 . S
C470 C469 1.438 . S
C470 C471 1.428 . S
C470 C483 1.394 . S
C471 H463 0.949 . S
C471 C470 1.428 . S
C471 C472 1.345 . S
C472 H464 0.950 . S
C472 C471 1.345 . S
C472 C473 1.424 . S
C473 H465 0.951 . S
C473 C472 1.424 . S
C473 C474 1.347 . S
C474 H466 0.951 . S
C474 C469 1.429 . S
C474 C473 1.347 . S
H475 C476 0.951 . S
C476 H475 0.951 . S
C476 C482 1.265 . S
H477 C482 0.950 1_655 S
H478 C486 0.949 . S
H479 C487 0.950 . S
H480 C488 0.951 . S
H481 C489 0.951 . S
C482 C476 1.265 . S
C482 H477 0.950 1_455 S
C482 C483 1.478 . S
C483 C470 1.394 . S
C483 C482 1.478 . S
C483 C484 1.397 1_455 S
C484 C483 1.397 1_655 S
C484 C485 1.438 . S
C484 C489 1.429 . S
C485 C468 1.394 . S
C485 C484 1.438 . S
C485 C486 1.428 . S
C486 H478 0.949 . S
C486 C485 1.428 . S
C486 C487 1.345 . S
C487 H479 0.950 . S
C487 C486 1.345 . S
C487 C488 1.424 . S
C488 H480 0.951 . S
C488 C487 1.424 . S
C488 C489 1.347 . S
C489 H481 0.951 . S
C489 C484 1.429 . S
C489 C488 1.347 . S
H490 C491 0.951 1_655 S
C491 H490 0.951 1_455 S
C491 C497 1.265 . S
H492 C497 0.950 . S
H493 C501 0.949 1_655 S
H494 C502 0.950 . S
H495 C503 0.951 . S
H496 C504 0.951 . S
C497 C491 1.265 . S
C497 H492 0.950 . S
C497 C498 1.478 . S
C498 C497 1.478 . S
C498 C499 1.397 . S
C498 C515 1.394 1_455 S
C499 C498 1.397 . S
C499 C500 1.438 . S
C499 C504 1.429 . S
C500 C499 1.438 . S
C500 C501 1.428 . S
C500 C513 1.394 1_455 S
C501 H493 0.949 1_455 S
C501 C500 1.428 . S
C501 C502 1.345 . S
C502 H494 0.950 . S
C502 C501 1.345 . S
C502 C503 1.424 . S
C503 H495 0.951 . S
C503 C502 1.424 . S
C503 C504 1.347 . S
C504 H496 0.951 . S
C504 C499 1.429 . S
C504 C503 1.347 . S
H505 C506 0.951 1_455 S
C506 H505 0.951 1_655 S
C506 C512 1.265 . S
H507 C512 0.950 . S
H508 C516 0.949 1_455 S
H509 C517 0.950 . S
H510 C518 0.951 . S
H511 C519 0.951 . S
C512 C506 1.265 . S
C512 H507 0.950 . S
C512 C513 1.478 . S
C513 C500 1.394 1_655 S
C513 C512 1.478 . S
C513 C514 1.397 . S
C514 C513 1.397 . S
C514 C515 1.438 . S
C514 C519 1.429 . S
C515 C498 1.394 1_655 S
C515 C514 1.438 . S
C515 C516 1.428 . S
C516 H508 0.949 1_655 S
C516 C515 1.428 . S
C516 C517 1.345 . S
C517 H509 0.950 . S
C517 C516 1.345 . S
C517 C518 1.424 . S
C518 H510 0.951 . S
C518 C517 1.424 . S
C518 C519 1.347 . S
C519 H511 0.951 . S
C519 C514 1.429 . S
C519 C518 1.347 . S
C161 C58 1.542 . S
C176 C9 1.542 . S
C191 C98 1.575 . S
C206 C129 1.575 . S
C221 C18 1.542 . S
C236 C49 1.543 . S
C251 C138 1.552 . S
C266 C89 1.552 . S
C281 C130 1.670 . S
C296 C10 1.668 . S
C311 C46 1.000 . S
C326 C86 0.999 . S
C341 C59 1.671 . S
C356 C99 1.675 . S
C371 C135 0.945 . S
C386 C15 0.954 . S
C401 C50 1.670 . S
C416 C90 1.668 . S
C431 C126 0.943 . S
C446 C6 0.988 . S
C461 C139 1.668 . S
C476 C19 1.677 . S
C491 C95 1.005 . S
C506 C55 1.001 . S
