# Generated by pormake.
# Topology umo, (4)-cn, num edge types: 1
# Building blocks:
#     Node 0, Type 0, BuildingBlock: QUQFOY_clean_sbu_1, # of connection points: 4
#     Node 1, Type 0, BuildingBlock: QUQFOY_clean_sbu_1, # of connection points: 4
#     Node 2, Type 0, BuildingBlock: QUQFOY_clean_sbu_1, # of connection points: 4
#     Node 3, Type 0, BuildingBlock: QUQFOY_clean_sbu_1, # of connection points: 4
#     Node 4, Type 0, BuildingBlock: QUQFOY_clean_sbu_1, # of connection points: 4
#     Node 5, Type 0, BuildingBlock: QUQFOY_clean_sbu_1, # of connection points: 4
#     Node 6, Type 0, BuildingBlock: QUQFOY_clean_sbu_1, # of connection points: 4
#     Node 7, Type 0, BuildingBlock: QUQFOY_clean_sbu_1, # of connection points: 4
#     Node 8, Type 0, BuildingBlock: QUQFOY_clean_sbu_1, # of connection points: 4
#     Node 9, Type 0, BuildingBlock: QUQFOY_clean_sbu_1, # of connection points: 4
#     Node 10, Type 0, BuildingBlock: QUQFOY_clean_sbu_1, # of connection points: 4
#     Node 11, Type 0, BuildingBlock: QUQFOY_clean_sbu_1, # of connection points: 4
#     Edge 12, Type (0, 0), BuildingBlock: UVAHIK_clean_linker_0, # of connection points: 2
#     Edge 13, Type (0, 0), BuildingBlock: UVAHIK_clean_linker_0, # of connection points: 2
#     Edge 14, Type (0, 0), BuildingBlock: UVAHIK_clean_linker_0, # of connection points: 2
#     Edge 15, Type (0, 0), BuildingBlock: UVAHIK_clean_linker_0, # of connection points: 2
#     Edge 16, Type (0, 0), BuildingBlock: UVAHIK_clean_linker_0, # of connection points: 2
#     Edge 17, Type (0, 0), BuildingBlock: UVAHIK_clean_linker_0, # of connection points: 2
#     Edge 18, Type (0, 0), BuildingBlock: UVAHIK_clean_linker_0, # of connection points: 2
#     Edge 19, Type (0, 0), BuildingBlock: UVAHIK_clean_linker_0, # of connection points: 2
#     Edge 20, Type (0, 0), BuildingBlock: UVAHIK_clean_linker_0, # of connection points: 2
#     Edge 21, Type (0, 0), BuildingBlock: UVAHIK_clean_linker_0, # of connection points: 2
#     Edge 22, Type (0, 0), BuildingBlock: UVAHIK_clean_linker_0, # of connection points: 2
#     Edge 23, Type (0, 0), BuildingBlock: UVAHIK_clean_linker_0, # of connection points: 2
#     Edge 24, Type (0, 0), BuildingBlock: UVAHIK_clean_linker_0, # of connection points: 2
#     Edge 25, Type (0, 0), BuildingBlock: UVAHIK_clean_linker_0, # of connection points: 2
#     Edge 26, Type (0, 0), BuildingBlock: UVAHIK_clean_linker_0, # of connection points: 2
#     Edge 27, Type (0, 0), BuildingBlock: UVAHIK_clean_linker_0, # of connection points: 2
#     Edge 28, Type (0, 0), BuildingBlock: UVAHIK_clean_linker_0, # of connection points: 2
#     Edge 29, Type (0, 0), BuildingBlock: UVAHIK_clean_linker_0, # of connection points: 2
#     Edge 30, Type (0, 0), BuildingBlock: UVAHIK_clean_linker_0, # of connection points: 2
#     Edge 31, Type (0, 0), BuildingBlock: UVAHIK_clean_linker_0, # of connection points: 2
#     Edge 32, Type (0, 0), BuildingBlock: UVAHIK_clean_linker_0, # of connection points: 2
#     Edge 33, Type (0, 0), BuildingBlock: UVAHIK_clean_linker_0, # of connection points: 2
#     Edge 34, Type (0, 0), BuildingBlock: UVAHIK_clean_linker_0, # of connection points: 2
#     Edge 35, Type (0, 0), BuildingBlock: UVAHIK_clean_linker_0, # of connection points: 2
# Relax obj value: 0.084
# Max RMSD: 0.133
# Mean RMSD: 0.133
data_MOF--net-umo--node1-QUQFOY_clean_sbu_1--edge1-UVAHIK_clean_linker_0
_symmetry_space_group_name_H-M    P1
_symmetry_Int_Tables_number       1
_symmetry_cell_setting            triclinic
loop_
_symmetry_equiv_pos_as_xyz
'x, y, z'
_cell_length_a     67.080856
_cell_length_b     67.122765
_cell_length_c     49.222531
_cell_angle_alpha  90.023112
_cell_angle_beta   89.997832
_cell_angle_gamma 119.99077
loop_
_atom_site_label
_atom_site_type_symbol
_atom_site_fract_x
_atom_site_fract_y
_atom_site_fract_z
_atom_type_partial_charge
O0 O 0.15747 0.55926 0.4314 0.0
Cd1 Cd 0.15576 0.56506 0.3908 0.0
Cd2 Cd 0.1947 0.56158 0.38999 0.0
O3 O 0.18786 0.55469 0.4312 0.0
O4 O 0.12485 0.56204 0.38709 0.0
O5 O 0.13427 0.53864 0.36652 0.0
C6 C 0.11895 0.54437 0.37184 0.0
C7 C 0.20656 0.54162 0.3612 0.0
C8 C 0.17191 0.55571 0.44403 0.0
C9 C 0.19944 0.60772 0.37698 0.0
O10 O 0.20914 0.5958 0.38043 0.0
O11 O 0.17774 0.5986 0.37906 0.0
O12 O 0.21937 0.55426 0.38081 0.0
O13 O 0.18623 0.53911 0.35886 0.0
O14 O 0.59357 0.15599 0.59817 0.0
Cd15 Cd 0.59091 0.15814 0.55692 0.0
Cd16 Cd 0.63271 0.1945 0.56413 0.0
O17 O 0.62985 0.18279 0.60389 0.0
O18 O 0.56321 0.12829 0.54759 0.0
O19 O 0.59804 0.13821 0.53268 0.0
C20 C 0.57642 0.12308 0.53412 0.0
C21 C 0.66233 0.20277 0.53341 0.0
C22 C 0.61081 0.16715 0.61365 0.0
C23 C 0.59483 0.20366 0.54822 0.0
O24 O 0.61541 0.21201 0.55655 0.0
O25 O 0.58211 0.18211 0.54486 0.0
O26 O 0.66549 0.21592 0.55404 0.0
O27 O 0.64277 0.1839 0.53143 0.0
O28 O 0.43551 0.58985 0.76174 0.0
Cd29 Cd 0.43116 0.58792 0.72046 0.0
Cd30 Cd 0.4356 0.62919 0.72832 0.0
O31 O 0.44442 0.62589 0.76795 0.0
O32 O 0.43451 0.56111 0.71015 0.0
O33 O 0.45864 0.59652 0.69633 0.0
C34 C 0.45285 0.57506 0.69701 0.0
C35 C 0.45658 0.6605 0.69951 0.0
C36 C 0.4412 0.60686 0.77748 0.0
C37 C 0.38894 0.59071 0.71199 0.0
O38 O 0.40079 0.61127 0.7205 0.0
O39 O 0.39822 0.57842 0.70837 0.0
O40 O 0.44594 0.66214 0.72048 0.0
O41 O 0.45659 0.64142 0.6959 0.0
O42 O 0.84476 0.44724 0.93892 0.0
Cd43 Cd 0.84752 0.44018 0.89907 0.0
Cd44 Cd 0.80709 0.44064 0.89546 0.0
O45 O 0.81184 0.44712 0.93701 0.0
O46 O 0.87956 0.44591 0.89759 0.0
O47 O 0.86771 0.46546 0.87287 0.0
C48 C 0.88424 0.46206 0.88033 0.0
C49 C 0.79494 0.45979 0.86582 0.0
C50 C 0.82865 0.44862 0.95066 0.0
C51 C 0.80596 0.39587 0.88422 0.0
O52 O 0.79511 0.40687 0.88524 0.0
O53 O 0.82746 0.40594 0.88881 0.0
O54 O 0.78163 0.4463 0.88456 0.0
O55 O 0.81578 0.46352 0.86479 0.0
O56 O 0.39872 0.84123 0.10611 0.0
Cd57 Cd 0.40698 0.84344 0.06568 0.0
Cd58 Cd 0.36588 0.80288 0.06482 0.0
O59 O 0.3649 0.80934 0.10597 0.0
O60 O 0.43496 0.87443 0.06389 0.0
O61 O 0.40314 0.86576 0.04151 0.0
C62 C 0.42393 0.88086 0.04816 0.0
C63 C 0.33529 0.79181 0.03446 0.0
C64 C 0.38116 0.82607 0.11875 0.0
C65 C 0.4086 0.80076 0.05223 0.0
O66 O 0.38694 0.78979 0.05573 0.0
O67 O 0.41992 0.82255 0.05408 0.0
O68 O 0.33438 0.7784 0.05377 0.0
O69 O 0.3531 0.81223 0.03334 0.0
O70 O 0.55953 0.39936 0.26735 0.0
Cd71 Cd 0.56597 0.4079 0.22704 0.0
Cd72 Cd 0.56577 0.36705 0.22593 0.0
O73 O 0.55809 0.36577 0.26701 0.0
O74 O 0.5627 0.43573 0.22517 0.0
O75 O 0.53998 0.40396 0.20248 0.0
C76 C 0.54543 0.42466 0.20918 0.0
C77 C 0.54597 0.33654 0.19549 0.0
C78 C 0.55726 0.38181 0.27987 0.0
C79 C 0.61064 0.41002 0.21423 0.0
O80 O 0.60001 0.38831 0.21718 0.0
O81 O 0.6 0.42117 0.21612 0.0
O82 O 0.55884 0.33569 0.2144 0.0
O83 O 0.54332 0.35434 0.19474 0.0
O84 O 0.4413 0.84434 0.40786 0.0
Cd85 Cd 0.43506 0.84663 0.44818 0.0
Cd86 Cd 0.43863 0.80785 0.45047 0.0
O87 O 0.44562 0.81382 0.40916 0.0
O88 O 0.43809 0.87758 0.4507 0.0
O89 O 0.46123 0.86848 0.47251 0.0
C90 C 0.45562 0.88373 0.4663 0.0
C91 C 0.45884 0.79731 0.48056 0.0
C92 C 0.44486 0.82967 0.3958 0.0
C93 C 0.39237 0.80323 0.46263 0.0
O94 O 0.40438 0.79354 0.45994 0.0
O95 O 0.40142 0.82484 0.45978 0.0
O96 O 0.44621 0.78374 0.46143 0.0
O97 O 0.46122 0.81763 0.48158 0.0
O98 O 0.60271 0.44706 0.56705 0.0
Cd99 Cd 0.59378 0.44038 0.60722 0.0
Cd100 Cd 0.63475 0.44127 0.60916 0.0
O101 O 0.63658 0.4491 0.56807 0.0
O102 O 0.56585 0.4435 0.6089 0.0
O103 O 0.59741 0.46609 0.63204 0.0
C104 C 0.57673 0.46062 0.62514 0.0
C105 C 0.66429 0.46087 0.64074 0.0
C106 C 0.62052 0.44961 0.55486 0.0
C107 C 0.5921 0.39598 0.61985 0.0
O108 O 0.61385 0.40693 0.61736 0.0
O109 O 0.58065 0.40632 0.61775 0.0
O110 O 0.66603 0.44863 0.62166 0.0
O111 O 0.64627 0.46317 0.64089 0.0
O112 O 0.15824 0.60401 0.73157 0.0
Cd113 Cd 0.15521 0.59345 0.77117 0.0
Cd114 Cd 0.19662 0.6326 0.77489 0.0
O115 O 0.19213 0.6357 0.73362 0.0
O116 O 0.12286 0.56766 0.77185 0.0
O117 O 0.13516 0.59837 0.7979 0.0
C118 C 0.1184 0.57886 0.78974 0.0
C119 C 0.20732 0.66209 0.80678 0.0
C120 C 0.17482 0.62116 0.71993 0.0
C121 C 0.19571 0.58792 0.78416 0.0
O122 O 0.20765 0.60973 0.78347 0.0
O123 O 0.17408 0.57772 0.78039 0.0
O124 O 0.22149 0.66302 0.78843 0.0
O125 O 0.1865 0.64489 0.80611 0.0
O126 O 0.5645 0.15133 0.91225 0.0
Cd127 Cd 0.56919 0.15359 0.95349 0.0
Cd128 Cd 0.56098 0.18823 0.94718 0.0
O129 O 0.55274 0.17649 0.90731 0.0
O130 O 0.56637 0.12374 0.96419 0.0
O131 O 0.54184 0.13474 0.9776 0.0
C132 C 0.54789 0.11924 0.97715 0.0
C133 C 0.53952 0.19795 0.9761 0.0
C134 C 0.55741 0.16184 0.89712 0.0
C135 C 0.60908 0.19973 0.96274 0.0
O136 O 0.59568 0.20686 0.95498 0.0
O137 O 0.6017 0.17835 0.96552 0.0
O138 O 0.54959 0.21006 0.95483 0.0
O139 O 0.54012 0.17918 0.9798 0.0
O140 O 0.40989 0.56093 0.07544 0.0
Cd141 Cd 0.41322 0.56633 0.11654 0.0
Cd142 Cd 0.37141 0.56106 0.11034 0.0
O143 O 0.37356 0.55158 0.07064 0.0
O144 O 0.44067 0.56369 0.12576 0.0
O145 O 0.40586 0.5396 0.14141 0.0
C146 C 0.42737 0.54564 0.13972 0.0
C147 C 0.34152 0.54045 0.14108 0.0
C148 C 0.39239 0.55478 0.0604 0.0
C149 C 0.40997 0.60833 0.12445 0.0
O150 O 0.38914 0.596 0.11704 0.0
O151 O 0.42269 0.59947 0.12765 0.0
O152 O 0.33874 0.5505 0.12024 0.0
O153 O 0.36087 0.54073 0.14336 0.0
O154 O 0.8422 0.40051 0.23885 0.0
Cd155 Cd 0.84362 0.40827 0.27936 0.0
Cd156 Cd 0.80333 0.36755 0.27993 0.0
O157 O 0.81019 0.36679 0.23889 0.0
O158 O 0.87492 0.43556 0.2834 0.0
O159 O 0.86418 0.40274 0.30462 0.0
C160 C 0.88 0.4236 0.29939 0.0
C161 C 0.79192 0.33647 0.30965 0.0
C162 C 0.827 0.383 0.22615 0.0
C163 C 0.80093 0.41017 0.29186 0.0
O164 O 0.78998 0.38848 0.28874 0.0
O165 O 0.82274 0.42143 0.29014 0.0
O166 O 0.7787 0.33593 0.2903 0.0
O167 O 0.8123 0.35429 0.31131 0.0
C168 C 0.20818 0.6467 0.39191 0.0
C169 C 0.21415 0.63293 0.37629 0.0
C170 C 0.22506 0.66891 0.39955 0.0
C171 C 0.26542 0.71735 0.41227 0.0
H172 H 0.31906 0.71347 0.43334 0.0
C173 C 0.35337 0.79376 0.44686 0.0
C174 C 0.36716 0.78845 0.46339 0.0
C175 C 0.33125 0.77652 0.43941 0.0
C176 C 0.3041 0.71479 0.42805 0.0
H177 H 0.24138 0.63248 0.35318 0.0
H178 H 0.27053 0.67159 0.36527 0.0
H179 H 0.28809 0.68183 0.40932 0.0
H180 H 0.3677 0.76214 0.48826 0.0
H181 H 0.32873 0.73241 0.47651 0.0
H182 H 0.28167 0.75044 0.43176 0.0
C183 C 0.25314 0.66498 0.37268 0.0
C184 C 0.2865 0.69679 0.41363 0.0
C185 C 0.23643 0.64269 0.3655 0.0
C186 C 0.35747 0.76657 0.47524 0.0
C187 C 0.33526 0.74952 0.46826 0.0
C188 C 0.2832 0.73554 0.42682 0.0
C189 C 0.24802 0.67769 0.39133 0.0
C190 C 0.267 0.69784 0.40538 0.0
C191 C 0.32258 0.75388 0.44874 0.0
C192 C 0.3027 0.73437 0.43495 0.0
H193 H 0.19111 0.63952 0.40059 0.0
H194 H 0.22052 0.67827 0.41384 0.0
H195 H 0.25056 0.71862 0.40629 0.0
H196 H 0.3605 0.81051 0.43736 0.0
H197 H 0.32192 0.78049 0.42444 0.0
C198 C 0.59899 0.24238 0.54185 0.0
C199 C 0.5848 0.21878 0.54692 0.0
C200 C 0.59096 0.25763 0.54678 0.0
C201 C 0.55819 0.26598 0.5964 0.0
H202 H 0.5659 0.31683 0.55155 0.0
C203 C 0.56 0.35834 0.604 0.0
C204 C 0.58011 0.37066 0.61959 0.0
C205 C 0.55244 0.33556 0.59654 0.0
C206 C 0.56317 0.30246 0.56417 0.0
H207 H 0.55072 0.19239 0.55957 0.0
H208 H 0.53698 0.21932 0.56911 0.0
H209 H 0.56815 0.28483 0.5308 0.0
H210 H 0.60664 0.36829 0.64198 0.0
H211 H 0.59283 0.32816 0.6299 0.0
H212 H 0.55536 0.28465 0.63017 0.0
C213 C 0.55411 0.22584 0.56087 0.0
C214 C 0.56455 0.28428 0.55233 0.0
C215 C 0.56195 0.2105 0.55529 0.0
C216 C 0.59108 0.35914 0.62999 0.0
C217 C 0.58317 0.33621 0.62311 0.0
C218 C 0.55734 0.28442 0.60835 0.0
C219 C 0.56881 0.24956 0.55741 0.0
C220 C 0.56265 0.2662 0.56848 0.0
C221 C 0.5645 0.32465 0.60525 0.0
C222 C 0.5604 0.30306 0.59241 0.0
H223 H 0.61667 0.24917 0.53544 0.0
H224 H 0.60265 0.2759 0.54416 0.0
H225 H 0.55697 0.25232 0.60928 0.0
H226 H 0.55135 0.36688 0.59549 0.0
H227 H 0.53803 0.32692 0.58271 0.0
C228 C 0.19969 0.55509 0.76735 0.0
C229 C 0.20786 0.57471 0.78391 0.0
C230 C 0.21429 0.54674 0.75997 0.0
C231 C 0.25776 0.55627 0.72839 0.0
H232 H 0.30182 0.54993 0.77316 0.0
C233 C 0.3537 0.59381 0.70602 0.0
C234 C 0.3637 0.58011 0.71086 0.0
C235 C 0.33033 0.58519 0.71102 0.0
C236 C 0.28935 0.55117 0.76035 0.0
H237 H 0.23658 0.59932 0.80823 0.0
H238 H 0.26178 0.58421 0.79614 0.0
H239 H 0.26766 0.54773 0.79416 0.0
H240 H 0.35697 0.5463 0.72332 0.0
H241 H 0.31612 0.53152 0.733 0.0
H242 H 0.28054 0.56185 0.69502 0.0
C243 C 0.24428 0.57551 0.78855 0.0
C244 C 0.26991 0.54998 0.77237 0.0
C245 C 0.22989 0.58419 0.79542 0.0
C246 C 0.34963 0.55716 0.71918 0.0
C247 C 0.32635 0.54873 0.72485 0.0
C248 C 0.27743 0.55795 0.71648 0.0
C249 C 0.237 0.55752 0.76964 0.0
C250 C 0.25433 0.55321 0.7566 0.0
C251 C 0.31671 0.56291 0.72153 0.0
C252 C 0.2937 0.55609 0.73252 0.0
H253 H 0.18282 0.54753 0.75804 0.0
H254 H 0.20834 0.53283 0.74538 0.0
H255 H 0.24614 0.55913 0.71586 0.0
H256 H 0.3642 0.61156 0.69968 0.0
H257 H 0.32328 0.5965 0.70854 0.0
C258 C 0.77195 0.3599 0.86815 0.0
C259 C 0.79234 0.37062 0.88333 0.0
C260 C 0.75498 0.3374 0.87413 0.0
C261 C 0.71652 0.30541 0.90984 0.0
H262 H 0.72147 0.25567 0.94299 0.0
C263 C 0.64149 0.23927 0.97062 0.0
C264 C 0.63392 0.21633 0.96365 0.0
C265 C 0.66366 0.2565 0.96384 0.0
C266 C 0.71985 0.26942 0.93371 0.0
H267 H 0.81218 0.3657 0.91461 0.0
H268 H 0.78218 0.32675 0.92591 0.0
H269 H 0.7547 0.28652 0.9192 0.0
H270 H 0.64409 0.19301 0.94648 0.0
H271 H 0.68271 0.22327 0.9338 0.0
H272 H 0.68183 0.28845 0.92361 0.0
C273 C 0.77935 0.33536 0.90901 0.0
C274 C 0.73887 0.28709 0.92015 0.0
C275 C 0.79659 0.35772 0.90252 0.0
C276 C 0.64959 0.21061 0.95218 0.0
C277 C 0.6717 0.22795 0.94488 0.0
C278 C 0.69767 0.28787 0.9232 0.0
C279 C 0.75781 0.32555 0.89602 0.0
C280 C 0.73741 0.30536 0.90813 0.0
C281 C 0.67846 0.25118 0.9493 0.0
C282 C 0.69913 0.26982 0.93564 0.0
H283 H 0.7684 0.36949 0.85308 0.0
H284 H 0.73889 0.33001 0.86303 0.0
H285 H 0.7148 0.31939 0.90147 0.0
H286 H 0.62977 0.24406 0.97972 0.0
H287 H 0.66865 0.27418 0.96836 0.0
C288 C 0.44181 0.79592 0.06521 0.0
C289 C 0.42082 0.78764 0.0513 0.0
C290 C 0.45002 0.78104 0.0717 0.0
C291 C 0.44424 0.72443 0.05997 0.0
H292 H 0.43907 0.71705 0.13834 0.0
C293 C 0.40645 0.64329 0.13041 0.0
C294 C 0.4202 0.63351 0.12459 0.0
C295 C 0.41432 0.66637 0.12446 0.0
C296 C 0.44111 0.71925 0.11652 0.0
H297 H 0.39331 0.75818 0.03071 0.0
H298 H 0.40814 0.73242 0.04117 0.0
H299 H 0.44028 0.75072 0.11739 0.0
H300 H 0.45336 0.64035 0.10929 0.0
H301 H 0.46675 0.68064 0.09794 0.0
H302 H 0.44404 0.6924 0.05908 0.0
C303 C 0.41803 0.75027 0.04739 0.0
C304 C 0.4419 0.73849 0.10454 0.0
C305 C 0.40952 0.76497 0.04145 0.0
C306 C 0.44251 0.64755 0.11425 0.0
C307 C 0.45014 0.6705 0.10762 0.0
C308 C 0.44397 0.70544 0.072 0.0
C309 C 0.43768 0.75788 0.06373 0.0
C310 C 0.44259 0.74076 0.07612 0.0
C311 C 0.43582 0.67986 0.112 0.0
C312 C 0.44153 0.70231 0.10027 0.0
H313 H 0.45078 0.81328 0.07321 0.0
H314 H 0.46521 0.78723 0.08433 0.0
H315 H 0.44462 0.72579 0.03802 0.0
H316 H 0.38916 0.63279 0.13827 0.0
H317 H 0.40292 0.67322 0.12779 0.0
C318 C 0.76483 0.4111 0.30081 0.0
C319 C 0.78784 0.42246 0.29214 0.0
C320 C 0.75048 0.41994 0.29437 0.0
C321 C 0.7251 0.44629 0.28158 0.0
H322 H 0.72156 0.44577 0.20284 0.0
C323 C 0.64834 0.44366 0.22753 0.0
C324 C 0.63603 0.42243 0.21401 0.0
C325 C 0.67141 0.45227 0.23459 0.0
C326 C 0.72266 0.44649 0.22481 0.0
H327 H 0.8144 0.45285 0.27177 0.0
H328 H 0.78903 0.46791 0.25984 0.0
H329 H 0.7543 0.44595 0.22502 0.0
H330 H 0.63871 0.39483 0.19475 0.0
H331 H 0.6792 0.41028 0.20625 0.0
H332 H 0.69286 0.44563 0.28137 0.0
C333 C 0.78225 0.45236 0.27189 0.0
C334 C 0.74139 0.44671 0.23751 0.0
C335 C 0.79675 0.44379 0.27886 0.0
C336 C 0.6478 0.41122 0.20519 0.0
C337 C 0.67097 0.42009 0.21172 0.0
C338 C 0.70659 0.44653 0.26889 0.0
C339 C 0.75881 0.44003 0.27871 0.0
C340 C 0.74227 0.44565 0.26598 0.0
C341 C 0.68262 0.44007 0.22762 0.0
C342 C 0.70476 0.44567 0.24041 0.0
H343 H 0.75754 0.39465 0.31107 0.0
H344 H 0.73242 0.41003 0.29972 0.0
H345 H 0.7254 0.44541 0.30355 0.0
H346 H 0.63967 0.4526 0.23474 0.0
H347 H 0.68009 0.46773 0.24682 0.0
C348 C 0.19653 0.62881 0.67626 0.0
C349 C 0.17551 0.62108 0.68989 0.0
C350 C 0.19682 0.62253 0.64917 0.0
C351 C 0.15918 0.57588 0.60174 0.0
H352 H 0.2058 0.6122 0.54833 0.0
C353 C 0.15206 0.55254 0.48803 0.0
C354 C 0.1721 0.55683 0.47407 0.0
C355 C 0.15309 0.55875 0.51529 0.0
C356 C 0.19287 0.60174 0.5632 0.0
H357 H 0.13845 0.60277 0.68512 0.0
H358 H 0.13894 0.59278 0.63768 0.0
H359 H 0.20622 0.62901 0.59251 0.0
H360 H 0.20876 0.56988 0.47819 0.0
H361 H 0.21055 0.58079 0.52599 0.0
H362 H 0.14558 0.5488 0.57222 0.0
C363 C 0.1552 0.60283 0.6481 0.0
C364 C 0.19305 0.6114 0.58849 0.0
C365 C 0.15491 0.60884 0.6752 0.0
C366 C 0.19298 0.56617 0.48844 0.0
C367 C 0.19407 0.5727 0.51569 0.0
C368 C 0.15891 0.56631 0.57643 0.0
C369 C 0.1761 0.60861 0.63514 0.0
C370 C 0.17607 0.59866 0.60802 0.0
C371 C 0.17423 0.56964 0.52915 0.0
C372 C 0.17564 0.57917 0.55681 0.0
H373 H 0.21269 0.63806 0.68712 0.0
H374 H 0.21325 0.62732 0.63989 0.0
H375 H 0.14621 0.56527 0.61649 0.0
H376 H 0.13573 0.54541 0.47748 0.0
H377 H 0.13752 0.55622 0.52504 0.0
C378 C 0.58621 0.1457 0.6533 0.0
C379 C 0.60729 0.16356 0.64341 0.0
C380 C 0.58074 0.14429 0.68082 0.0
C381 C 0.57567 0.13895 0.74163 0.0
H382 H 0.5931 0.19602 0.77944 0.0
C383 C 0.5625 0.14225 0.85676 0.0
C384 C 0.55779 0.15897 0.86725 0.0
C385 C 0.56712 0.14186 0.8292 0.0
C386 C 0.58781 0.1799 0.76908 0.0
H387 H 0.63969 0.19328 0.65512 0.0
H388 H 0.63038 0.19043 0.70354 0.0
H389 H 0.60546 0.19709 0.73265 0.0
H390 H 0.55301 0.18763 0.85655 0.0
H391 H 0.56046 0.18654 0.80808 0.0
H392 H 0.55735 0.12172 0.77761 0.0
C393 C 0.61784 0.17783 0.68975 0.0
C394 C 0.59528 0.18053 0.74237 0.0
C395 C 0.62332 0.1793 0.66204 0.0
C396 C 0.55655 0.17451 0.84916 0.0
C397 C 0.56113 0.17407 0.82143 0.0
C398 C 0.56807 0.13832 0.7682 0.0
C399 C 0.59625 0.16059 0.69937 0.0
C400 C 0.58931 0.16004 0.72828 0.0
C401 C 0.56702 0.15807 0.81123 0.0
C402 C 0.57409 0.15878 0.78235 0.0
H403 H 0.57341 0.13324 0.6396 0.0
H404 H 0.56387 0.13093 0.6873 0.0
H405 H 0.5709 0.12281 0.73158 0.0
H406 H 0.5636 0.12997 0.87005 0.0
H407 H 0.57179 0.12942 0.82227 0.0
C408 C 0.37838 0.5531 0.01245 0.0
C409 C 0.39546 0.55492 0.03052 0.0
C410 C 0.38326 0.55765 0.98469 0.0
C411 C 0.43201 0.59225 0.93997 0.0
H412 H 0.39287 0.55412 0.88145 0.0
C413 C 0.44277 0.61978 0.82594 0.0
C414 C 0.44074 0.60302 0.80722 0.0
C415 C 0.4383 0.61437 0.8536 0.0
C416 C 0.40397 0.56492 0.89762 0.0
H417 H 0.43058 0.56145 0.03315 0.0
H418 H 0.43894 0.56944 0.98509 0.0
H419 H 0.3817 0.54229 0.92865 0.0
H420 H 0.43375 0.56784 0.8033 0.0
H421 H 0.4259 0.55856 0.85121 0.0
H422 H 0.45423 0.61495 0.90896 0.0
C423 C 0.42193 0.56483 0.99241 0.0
C424 C 0.39749 0.55821 0.92457 0.0
C425 C 0.41703 0.56006 0.01995 0.0
C426 C 0.43532 0.58117 0.81702 0.0
C427 C 0.43064 0.57574 0.84447 0.0
C428 C 0.43832 0.59913 0.91303 0.0
C429 C 0.40535 0.56429 0.97463 0.0
C430 C 0.4116 0.57168 0.946 0.0
C431 C 0.43151 0.59207 0.86294 0.0
C432 C 0.4245 0.58539 0.89159 0.0
H433 H 0.36162 0.54922 0.01989 0.0
H434 H 0.37013 0.55704 0.97135 0.0
H435 H 0.44308 0.60309 0.95615 0.0
H436 H 0.44686 0.63674 0.8191 0.0
H437 H 0.43916 0.62731 0.86748 0.0
C438 C 0.84741 0.39895 0.18223 0.0
C439 C 0.82703 0.3839 0.1961 0.0
C440 C 0.8468 0.40433 0.15495 0.0
C441 C 0.80842 0.40987 0.10697 0.0
H442 H 0.85451 0.41803 0.05382 0.0
C443 C 0.80656 0.43477 0.99411 0.0
C444 C 0.82777 0.44741 0.98067 0.0
C445 C 0.8058 0.42779 0.02111 0.0
C446 C 0.84172 0.41624 0.06853 0.0
H447 H 0.79015 0.36167 0.19175 0.0
H448 H 0.78909 0.37113 0.14395 0.0
H449 H 0.85416 0.4016 0.09801 0.0
H450 H 0.86479 0.46461 0.98568 0.0
H451 H 0.86352 0.45344 0.03296 0.0
H452 H 0.79625 0.42495 0.07772 0.0
C453 C 0.80552 0.37883 0.15434 0.0
C454 C 0.84142 0.40661 0.09379 0.0
C455 C 0.80617 0.37319 0.18159 0.0
C456 C 0.84818 0.45473 0.99546 0.0
C457 C 0.84743 0.44802 0.02246 0.0
C458 C 0.80882 0.41969 0.08173 0.0
C459 C 0.82574 0.39498 0.14099 0.0
C460 C 0.82488 0.40345 0.11337 0.0
C461 C 0.82624 0.43355 0.03523 0.0
C462 C 0.82563 0.42321 0.06226 0.0
H463 H 0.86374 0.4075 0.19286 0.0
H464 H 0.86267 0.41688 0.14528 0.0
H465 H 0.79566 0.40797 0.12181 0.0
H466 H 0.79054 0.42867 0.98317 0.0
H467 H 0.78916 0.41666 0.03024 0.0
C468 C 0.39614 0.84684 0.1626 0.0
C469 C 0.38215 0.82613 0.14877 0.0
C470 C 0.4022 0.8467 0.18971 0.0
C471 C 0.39068 0.80947 0.2508 0.0
H472 H 0.45441 0.85408 0.26677 0.0
C473 C 0.43403 0.80809 0.35178 0.0
C474 C 0.44409 0.82917 0.36576 0.0
C475 C 0.42786 0.80696 0.32439 0.0
C476 C 0.43658 0.84154 0.26261 0.0
H477 H 0.36238 0.78907 0.15296 0.0
H478 H 0.37327 0.78871 0.20016 0.0
H479 H 0.43872 0.8537 0.22205 0.0
H480 H 0.45712 0.86578 0.36158 0.0
H481 H 0.447 0.86391 0.31372 0.0
H482 H 0.38883 0.79719 0.29146 0.0
C483 C 0.37935 0.80514 0.19026 0.0
C484 C 0.42747 0.84143 0.23706 0.0
C485 C 0.373 0.80533 0.16318 0.0
C486 C 0.44944 0.8493 0.35132 0.0
C487 C 0.44362 0.84822 0.32391 0.0
C488 C 0.3999 0.80944 0.27632 0.0
C489 C 0.39476 0.8258 0.20354 0.0
C490 C 0.4043 0.82561 0.23088 0.0
C491 C 0.43203 0.82695 0.31041 0.0
C492 C 0.42289 0.82564 0.28257 0.0
H493 H 0.40334 0.86316 0.15206 0.0
H494 H 0.41345 0.86299 0.19951 0.0
H495 H 0.37276 0.79716 0.24692 0.0
H496 H 0.42949 0.79226 0.36243 0.0
H497 H 0.41917 0.79037 0.31438 0.0
C498 C 0.55145 0.39677 0.32377 0.0
C499 C 0.55789 0.38255 0.30991 0.0
C500 C 0.55729 0.40237 0.35105 0.0
C501 C 0.60249 0.41094 0.39857 0.0
H502 H 0.56315 0.4162 0.45229 0.0
C503 C 0.62962 0.4371 0.51098 0.0
C504 C 0.61989 0.44849 0.52484 0.0
C505 C 0.62338 0.42994 0.48404 0.0
C506 C 0.57453 0.41524 0.43741 0.0
H507 H 0.57432 0.36193 0.31423 0.0
H508 H 0.58461 0.3718 0.36204 0.0
H509 H 0.54731 0.39908 0.40825 0.0
H510 H 0.59787 0.46335 0.52061 0.0
H511 H 0.58789 0.45193 0.47338 0.0
H512 H 0.62987 0.42758 0.42743 0.0
C513 C 0.57511 0.37867 0.35166 0.0
C514 C 0.56534 0.4052 0.41225 0.0
C515 C 0.56895 0.37279 0.32441 0.0
C516 C 0.60552 0.45445 0.5105 0.0
C517 C 0.59954 0.44758 0.48354 0.0
C518 C 0.61176 0.42118 0.42369 0.0
C519 C 0.56996 0.39409 0.36499 0.0
C520 C 0.57923 0.40304 0.39249 0.0
C521 C 0.6075 0.43428 0.47036 0.0
C522 C 0.59794 0.42364 0.44338 0.0
H523 H 0.54296 0.40459 0.31311 0.0
H524 H 0.55311 0.41432 0.36072 0.0
H525 H 0.61372 0.40984 0.38356 0.0
H526 H 0.64055 0.43205 0.52157 0.0
H527 H 0.62987 0.41974 0.47461 0.0
C528 C 0.91276 0.41962 0.3178 0.0
C529 C 0.90353 0.43361 0.31046 0.0
C530 C 0.93584 0.42958 0.32584 0.0
C531 C 0.98334 0.48178 0.35487 0.0
H532 H 0.02429 0.46758 0.31438 0.0
C533 C 0.08075 0.54049 0.36207 0.0
C534 C 0.09493 0.53065 0.36224 0.0
C535 C 0.05741 0.52721 0.35589 0.0
C536 C 0.01308 0.47149 0.32623 0.0
H537 H 0.91087 0.46882 0.30661 0.0
H538 H 0.95078 0.48608 0.32143 0.0
H539 H 0.98287 0.44605 0.30539 0.0
H540 H 0.09595 0.49929 0.3554 0.0
H541 H 0.05486 0.47577 0.34526 0.0
H542 H 0.01313 0.50693 0.376 0.0
C543 C 0.94033 0.4675 0.32067 0.0
C544 C 0.98938 0.45916 0.32104 0.0
C545 C 0.91752 0.45761 0.31212 0.0
C546 C 0.08542 0.50735 0.35527 0.0
C547 C 0.06188 0.4939 0.34944 0.0
C548 C 0.0069 0.49386 0.36034 0.0
C549 C 0.9498 0.45363 0.32728 0.0
C550 C 0.9744 0.46457 0.33492 0.0
C551 C 0.04749 0.50359 0.35018 0.0
C552 C 0.02219 0.48931 0.34562 0.0
H553 H 0.90238 0.40107 0.31651 0.0
H554 H 0.94279 0.41855 0.33093 0.0
H555 H 0.97209 0.48608 0.36608 0.0
H556 H 0.08765 0.55848 0.36706 0.0
H557 H 0.0471 0.5355 0.35581 0.0
C558 C 0.49233 0.91719 0.48373 0.0
C559 C 0.46939 0.90794 0.4752 0.0
C560 C 0.50596 0.94081 0.48892 0.0
C561 C 0.50822 0.99604 0.47291 0.0
H562 H 0.5525 0.02052 0.53176 0.0
C563 C 0.54325 0.08664 0.51704 0.0
C564 C 0.56695 0.09988 0.52227 0.0
C565 C 0.53357 0.06381 0.50865 0.0
C566 C 0.54043 0.0139 0.515 0.0
H567 H 0.44237 0.91586 0.46687 0.0
H568 H 0.46569 0.95661 0.47681 0.0
H569 H 0.53076 0.97898 0.52393 0.0
H570 H 0.59922 0.0998 0.52244 0.0
H571 H 0.58208 0.05945 0.50819 0.0
H572 H 0.51724 0.03089 0.46473 0.0
C573 C 0.47354 0.94596 0.47856 0.0
C574 C 0.52797 0.99012 0.5105 0.0
C575 C 0.46007 0.92251 0.47311 0.0
C576 C 0.58092 0.09 0.51835 0.0
C577 C 0.57112 0.06694 0.51042 0.0
C578 C 0.52045 0.01971 0.47761 0.0
C579 C 0.49683 0.95555 0.48586 0.0
C580 C 0.51137 0.98087 0.48971 0.0
C581 C 0.54732 0.05361 0.50573 0.0
C582 C 0.53639 0.02884 0.49895 0.0
H583 H 0.5 0.90636 0.48539 0.0
H584 H 0.52384 0.9476 0.49442 0.0
H585 H 0.49609 0.98964 0.45621 0.0
H586 H 0.53207 0.0938 0.5199 0.0
H587 H 0.51515 0.05388 0.50537 0.0
C588 C 0.49105 0.58121 0.68111 0.0
C589 C 0.46725 0.56658 0.68465 0.0
C590 C 0.50496 0.57227 0.67265 0.0
C591 C 0.50354 0.52335 0.63773 0.0
H592 H 0.5543 0.53347 0.68452 0.0
C593 C 0.542 0.46447 0.63151 0.0
C594 C 0.56589 0.47401 0.63414 0.0
C595 C 0.53164 0.47755 0.63719 0.0
C596 C 0.54046 0.53076 0.67095 0.0
H597 H 0.43921 0.53142 0.68106 0.0
H598 H 0.46332 0.51601 0.6656 0.0
H599 H 0.53356 0.55419 0.69316 0.0
H600 H 0.59767 0.50458 0.64551 0.0
H601 H 0.57959 0.52777 0.65496 0.0
H602 H 0.51026 0.50008 0.61541 0.0
C603 C 0.47128 0.53429 0.66958 0.0
C604 C 0.5286 0.54263 0.67592 0.0
C605 C 0.4575 0.5431 0.6785 0.0
C606 C 0.57918 0.49676 0.64342 0.0
C607 C 0.56881 0.51002 0.64884 0.0
C608 C 0.51551 0.51172 0.63257 0.0
C609 C 0.49518 0.54868 0.66704 0.0
C610 C 0.50969 0.5386 0.65973 0.0
C611 C 0.54494 0.50066 0.64529 0.0
C612 C 0.53373 0.51478 0.64954 0.0
H613 H 0.49902 0.59935 0.6859 0.0
H614 H 0.52335 0.58371 0.67073 0.0
H615 H 0.4892 0.52016 0.62474 0.0
H616 H 0.53125 0.44689 0.6247 0.0
H617 H 0.51314 0.46951 0.63505 0.0
C618 C 0.08939 0.58079 0.8204 0.0
C619 C 0.09456 0.5697 0.79965 0.0
C620 C 0.06662 0.57201 0.8291 0.0
C621 C 0.00635 0.53399 0.80744 0.0
H622 H 0.99287 0.52607 0.88455 0.0
C623 C 0.91346 0.49348 0.8504 0.0
C624 C 0.90808 0.4766 0.87041 0.0
C625 C 0.93626 0.50741 0.84178 0.0
C626 C 0.99639 0.52824 0.86294 0.0
H627 H 0.07992 0.54078 0.77172 0.0
H628 H 0.04049 0.52557 0.7869 0.0
H629 H 0.03286 0.54586 0.86925 0.0
H630 H 0.92238 0.46115 0.89708 0.0
H631 H 0.96187 0.48529 0.88204 0.0
H632 H 0.96988 0.51572 0.80111 0.0
C633 C 0.05389 0.54113 0.79629 0.0
C634 C 0.01927 0.53975 0.85421 0.0
C635 C 0.07656 0.54976 0.78777 0.0
C636 C 0.9259 0.47397 0.88161 0.0
C637 C 0.9486 0.48795 0.87318 0.0
C638 C 0.98347 0.5226 0.81618 0.0
C639 C 0.04864 0.55214 0.81701 0.0
C640 C 0.02449 0.54229 0.82635 0.0
C641 C 0.95407 0.50485 0.85323 0.0
C642 C 0.97825 0.51915 0.84401 0.0
H643 H 0.10289 0.59622 0.8299 0.0
H644 H 0.06305 0.58088 0.84508 0.0
H645 H 0.00987 0.53594 0.78583 0.0
H646 H 0.90011 0.49594 0.84144 0.0
H647 H 0.93999 0.52035 0.8264 0.0
C648 C 0.5433 0.08264 0.99566 0.0
C649 C 0.53353 0.09635 0.98951 0.0
C650 C 0.52952 0.06005 0.00458 0.0
C651 C 0.47213 0.01114 0.99822 0.0
H652 H 0.49044 0.98679 0.05859 0.0
C653 C 0.42144 0.91467 0.03042 0.0
C654 C 0.43474 0.90514 0.03945 0.0
C655 C 0.43182 0.93832 0.02518 0.0
C656 C 0.4852 0.99322 0.04147 0.0
H657 H 0.50174 0.09735 0.98827 0.0
H658 H 0.47744 0.05742 1.00342 0.0
H659 H 0.51159 0.02792 0.04931 0.0
H660 H 0.46941 0.9126 0.04871 0.0
H661 H 0.4875 0.95336 0.03872 0.0
H662 H 0.44633 0.97633 0.98963 0.0
C663 C 0.49583 0.06436 1.00151 0.0
C664 C 0.49723 0.01682 0.03633 0.0
C665 C 0.50973 0.08719 0.99306 0.0
C666 C 0.45864 0.91947 0.04208 0.0
C667 C 0.469 0.94293 0.0366 0.0
C668 C 0.46021 0.98742 1.00317 0.0
C669 C 0.50561 0.05055 0.00711 0.0
C670 C 0.49108 0.02596 0.01438 0.0
C671 C 0.4557 0.9528 0.02869 0.0
C672 C 0.46693 0.97812 0.02453 0.0
H673 H 0.56159 0.08924 0.99311 0.0
H674 H 0.53748 0.04972 0.00855 0.0
H675 H 0.46717 0.01777 0.98102 0.0
H676 H 0.40295 0.90404 0.02834 0.0
H677 H 0.42103 0.94534 0.0192 0.0
C678 C 0.42229 0.50805 0.15631 0.0
C679 C 0.43656 0.53177 0.15187 0.0
C680 C 0.43178 0.49457 0.16451 0.0
C681 C 0.48215 0.49737 0.19728 0.0
H682 H 0.47092 0.44568 0.15157 0.0
C683 C 0.54142 0.45923 0.20238 0.0
C684 C 0.53185 0.43531 0.2003 0.0
C685 C 0.52817 0.46946 0.19689 0.0
C686 C 0.47396 0.4598 0.16484 0.0
H687 H 0.47168 0.56015 0.15361 0.0
H688 H 0.48809 0.53679 0.16865 0.0
H689 H 0.44969 0.46598 0.14345 0.0
H690 H 0.50104 0.40334 0.19012 0.0
H691 H 0.47758 0.42117 0.18105 0.0
H692 H 0.50622 0.49133 0.21885 0.0
C693 C 0.46966 0.52857 0.16555 0.0
C694 C 0.4618 0.4714 0.16017 0.0
C695 C 0.46028 0.54191 0.15687 0.0
C696 C 0.50889 0.42185 0.19176 0.0
C697 C 0.49548 0.43208 0.18656 0.0
C698 C 0.49407 0.48564 0.20217 0.0
C699 C 0.45559 0.50472 0.16897 0.0
C700 C 0.46618 0.49061 0.17598 0.0
C701 C 0.50487 0.456 0.18956 0.0
C702 C 0.49059 0.46708 0.18558 0.0
H703 H 0.40397 0.49978 0.15241 0.0
H704 H 0.42059 0.47622 0.16713 0.0
H705 H 0.48563 0.51195 0.20998 0.0
H706 H 0.55915 0.47011 0.20862 0.0
H707 H 0.53624 0.48798 0.19859 0.0
C708 C 0.23604 0.53148 0.34624 0.0
C709 C 0.21605 0.5325 0.34058 0.0
C710 C 0.24731 0.52654 0.32568 0.0
C711 C 0.24242 0.50724 0.25313 0.0
H712 H 0.30895 0.54449 0.25597 0.0
C713 C 0.30266 0.53006 0.15959 0.0
C714 C 0.32409 0.53136 0.16312 0.0
C715 C 0.28773 0.52528 0.18161 0.0
C716 C 0.29041 0.53366 0.25503 0.0
H717 H 0.19162 0.52815 0.30909 0.0
H718 H 0.2116 0.52024 0.273 0.0
H719 H 0.28615 0.54533 0.29374 0.0
H720 H 0.34605 0.5274 0.19234 0.0
H721 H 0.32004 0.51917 0.2308 0.0
H722 H 0.24695 0.49651 0.21361 0.0
C723 C 0.21841 0.52275 0.29343 0.0
C724 C 0.27725 0.53406 0.2768 0.0
C725 C 0.20693 0.52735 0.31415 0.0
C726 C 0.3297 0.52654 0.18889 0.0
C727 C 0.31486 0.52199 0.21098 0.0
C728 C 0.25564 0.50705 0.23116 0.0
C729 C 0.23913 0.5229 0.29875 0.0
C730 C 0.25303 0.52102 0.27614 0.0
C731 C 0.29398 0.5219 0.20774 0.0
C732 C 0.27979 0.5204 0.23178 0.0
H733 H 0.24339 0.53516 0.36647 0.0
H734 H 0.2628 0.52616 0.33084 0.0
H735 H 0.22387 0.49668 0.25196 0.0
H736 H 0.29778 0.53365 0.14001 0.0
H737 H 0.27184 0.52546 0.17844 0.0
C738 C 0.79266 0.32249 0.35675 0.0
C739 C 0.78295 0.31816 0.33061 0.0
C740 C 0.78181 0.30658 0.37778 0.0
C741 C 0.72367 0.25869 0.39614 0.0
H742 H 0.75571 0.25266 0.45835 0.0
C743 C 0.67351 0.19977 0.48557 0.0
C744 C 0.6795 0.21063 0.51109 0.0
C745 C 0.68794 0.20972 0.4631 0.0
C746 C 0.74654 0.25416 0.44107 0.0
H747 H 0.7552 0.29302 0.30553 0.0
H748 H 0.73689 0.2649 0.34168 0.0
H749 H 0.77774 0.27564 0.41931 0.0
H750 H 0.70614 0.23962 0.53337 0.0
H751 H 0.73137 0.25681 0.49426 0.0
H752 H 0.69253 0.23735 0.41792 0.0
C753 C 0.75236 0.28093 0.3464 0.0
C754 C 0.75916 0.26742 0.41871 0.0
C755 C 0.76299 0.29698 0.32554 0.0
C756 C 0.70097 0.23082 0.514 0.0
C757 C 0.71549 0.24065 0.49158 0.0
C758 C 0.71111 0.24527 0.41829 0.0
C759 C 0.76114 0.28581 0.37306 0.0
C760 C 0.7479 0.27016 0.39606 0.0
C761 C 0.70879 0.23063 0.46568 0.0
C762 C 0.72236 0.24308 0.44119 0.0
H763 H 0.80796 0.33872 0.36134 0.0
H764 H 0.78907 0.31114 0.39799 0.0
H765 H 0.71428 0.26072 0.3795 0.0
H766 H 0.65712 0.1842 0.48259 0.0
H767 H 0.68244 0.20143 0.44347 0.0
C768 C 0.46928 0.70087 0.68487 0.0
C769 C 0.46615 0.67903 0.67879 0.0
C770 C 0.47467 0.71722 0.66436 0.0
C771 C 0.49139 0.72986 0.59083 0.0
H772 H 0.45852 0.76355 0.59631 0.0
C773 C 0.46737 0.76757 0.49897 0.0
C774 C 0.46803 0.78871 0.50218 0.0
C775 C 0.47239 0.75744 0.52079 0.0
C776 C 0.46815 0.7546 0.59462 0.0
H777 H 0.46722 0.65759 0.64656 0.0
H778 H 0.47588 0.68571 0.61068 0.0
H779 H 0.45754 0.7398 0.63404 0.0
H780 H 0.47561 0.81635 0.53052 0.0
H781 H 0.48421 0.79855 0.56872 0.0
H782 H 0.50095 0.74396 0.55067 0.0
C783 C 0.47471 0.69054 0.63134 0.0
C784 C 0.46767 0.74096 0.61636 0.0
C785 C 0.46965 0.67431 0.65196 0.0
C786 C 0.47497 0.80007 0.52735 0.0
C787 C 0.47973 0.7898 0.54928 0.0
C788 C 0.49164 0.74333 0.56893 0.0
C789 C 0.47668 0.71203 0.63712 0.0
C790 C 0.47903 0.72814 0.61471 0.0
C791 C 0.47795 0.7681 0.54642 0.0
C792 C 0.47979 0.75565 0.57047 0.0
H793 H 0.4669 0.70512 0.7054 0.0
H794 H 0.47668 0.73375 0.66983 0.0
H795 H 0.5007 0.72062 0.58889 0.0
H796 H 0.46211 0.75837 0.47985 0.0
H797 H 0.47071 0.74067 0.51793 0.0
C798 C 0.76529 0.46925 0.8496 0.0
C799 C 0.78562 0.46866 0.84472 0.0
C800 C 0.75438 0.47415 0.82858 0.0
C801 C 0.76092 0.49374 0.75588 0.0
H802 H 0.69431 0.45689 0.75692 0.0
C803 C 0.70229 0.46998 0.66074 0.0
C804 C 0.68129 0.46976 0.66322 0.0
C805 C 0.71677 0.47478 0.68322 0.0
C806 C 0.71288 0.46759 0.75648 0.0
H807 H 0.81092 0.47358 0.81418 0.0
H808 H 0.79153 0.48127 0.77724 0.0
H809 H 0.71626 0.45591 0.79557 0.0
H810 H 0.65955 0.47545 0.69101 0.0
H811 H 0.68472 0.48352 0.73039 0.0
H812 H 0.75726 0.50433 0.7159 0.0
C813 C 0.78421 0.47857 0.79742 0.0
C814 C 0.72556 0.46713 0.77877 0.0
C815 C 0.79536 0.47408 0.81862 0.0
C816 C 0.67562 0.47553 0.68839 0.0
C817 C 0.68995 0.48 0.71099 0.0
C818 C 0.7482 0.49393 0.73338 0.0
C819 C 0.76322 0.4781 0.80193 0.0
C820 C 0.7498 0.48004 0.77877 0.0
C821 C 0.71042 0.47915 0.70878 0.0
C822 C 0.72404 0.48071 0.73337 0.0
H823 H 0.75747 0.46535 0.86958 0.0
H824 H 0.73867 0.4743 0.83317 0.0
H825 H 0.77949 0.50424 0.7552 0.0
H826 H 0.70717 0.46563 0.64162 0.0
H827 H 0.73235 0.47386 0.6809 0.0
C828 C 0.32292 0.79237 0.98652 0.0
C829 C 0.31758 0.78293 0.01277 0.0
C830 C 0.30771 0.78143 0.96489 0.0
C831 C 0.25954 0.72341 0.94602 0.0
H832 H 0.25761 0.7552 0.88119 0.0
C833 C 0.20327 0.67405 0.85385 0.0
C834 C 0.21551 0.67909 0.82925 0.0
C835 C 0.21285 0.6884 0.87649 0.0
C836 C 0.25795 0.74611 0.89921 0.0
H837 H 0.2914 0.75565 0.03737 0.0
H838 H 0.2644 0.73726 1.00014 0.0
H839 H 0.27908 0.7774 0.92092 0.0
H840 H 0.24676 0.70387 0.80868 0.0
H841 H 0.26323 0.72909 0.848 0.0
H842 H 0.23836 0.69217 0.92426 0.0
C843 C 0.28071 0.75253 0.99582 0.0
C844 C 0.27037 0.75882 0.92197 0.0
C845 C 0.2961 0.76321 0.0173 0.0
C846 C 0.23691 0.69948 0.82734 0.0
C847 C 0.24632 0.71399 0.84985 0.0
C848 C 0.24688 0.71077 0.92345 0.0
C849 C 0.28661 0.76098 0.96909 0.0
C850 C 0.27168 0.74766 0.94559 0.0
C851 C 0.2347 0.70828 0.87488 0.0
C852 C 0.24623 0.72194 0.89964 0.0
H853 H 0.33943 0.80746 0.98235 0.0
H854 H 0.3131 0.78844 0.94469 0.0
H855 H 0.26045 0.71405 0.96342 0.0
H856 H 0.18678 0.65846 0.85601 0.0
H857 H 0.20342 0.68366 0.89547 0.0
C858 C 0.53723 0.2982 0.17704 0.0
C859 C 0.53646 0.31864 0.174 0.0
C860 C 0.53139 0.28271 0.15543 0.0
C861 C 0.53247 0.28254 0.08139 0.0
H862 H 0.49955 0.21617 0.08901 0.0
C863 C 0.52692 0.22558 0.99127 0.0
C864 C 0.53031 0.20701 0.99717 0.0
C865 C 0.52237 0.23697 0.01206 0.0
C866 C 0.50895 0.23467 0.08653 0.0
H867 H 0.528 0.33834 0.14616 0.0
H868 H 0.518 0.31135 0.1083 0.0
H869 H 0.50132 0.24022 0.12725 0.0
H870 H 0.53046 0.18511 0.02941 0.0
H871 H 0.52321 0.20529 0.06573 0.0
H872 H 0.54116 0.27733 0.04134 0.0
C873 C 0.52317 0.30737 0.12745 0.0
C874 C 0.50985 0.24844 0.10845 0.0
C875 C 0.52875 0.32275 0.1492 0.0
C876 C 0.52779 0.19928 0.02415 0.0
C877 C 0.52357 0.21088 0.04503 0.0
C878 C 0.53179 0.26883 0.05962 0.0
C879 C 0.5249 0.28741 0.13015 0.0
C880 C 0.52187 0.27256 0.10623 0.0
C881 C 0.52147 0.23033 0.03938 0.0
C882 C 0.52027 0.24468 0.06193 0.0
H883 H 0.54306 0.29449 0.19589 0.0
H884 H 0.53307 0.2676 0.15814 0.0
H885 H 0.54219 0.30107 0.07914 0.0
H886 H 0.52857 0.23185 0.97065 0.0
H887 H 0.52021 0.25143 0.00673 0.0
loop_
_geom_bond_atom_site_label_1
_geom_bond_atom_site_label_2
_geom_bond_distance
_geom_bond_site_symmetry_2
_ccdc_geom_bond_type
O0 Cd1 2.223 . S
O0 C8 1.315 . S
Cd1 O0 2.223 . S
Cd1 O4 2.297 . S
Cd1 O5 2.439 . S
Cd1 O11 2.240 . S
Cd2 O3 2.240 . S
Cd2 O10 2.223 . S
Cd2 O12 2.297 . S
Cd2 O13 2.439 . S
O3 Cd2 2.240 . S
O3 C8 1.279 . S
O4 Cd1 2.297 . S
O4 C6 1.247 . S
O5 Cd1 2.439 . S
O5 C6 1.208 . S
C6 O4 1.247 . S
C6 O5 1.208 . S
C7 O12 1.247 . S
C7 O13 1.208 . S
C8 O0 1.315 . S
C8 O3 1.279 . S
C9 O10 1.315 . S
C9 O11 1.279 . S
O10 Cd2 2.223 . S
O10 C9 1.315 . S
O11 Cd1 2.240 . S
O11 C9 1.279 . S
O12 Cd2 2.297 . S
O12 C7 1.247 . S
O13 Cd2 2.439 . S
O13 C7 1.208 . S
O14 Cd15 2.223 . S
O14 C22 1.315 . S
Cd15 O14 2.223 . S
Cd15 O18 2.297 . S
Cd15 O19 2.439 . S
Cd15 O25 2.240 . S
Cd16 O17 2.240 . S
Cd16 O24 2.223 . S
Cd16 O26 2.297 . S
Cd16 O27 2.439 . S
O17 Cd16 2.240 . S
O17 C22 1.279 . S
O18 Cd15 2.297 . S
O18 C20 1.247 . S
O19 Cd15 2.439 . S
O19 C20 1.208 . S
C20 O18 1.247 . S
C20 O19 1.208 . S
C21 O26 1.247 . S
C21 O27 1.208 . S
C22 O14 1.315 . S
C22 O17 1.279 . S
C23 O24 1.315 . S
C23 O25 1.279 . S
O24 Cd16 2.223 . S
O24 C23 1.315 . S
O25 Cd15 2.240 . S
O25 C23 1.279 . S
O26 Cd16 2.297 . S
O26 C21 1.247 . S
O27 Cd16 2.439 . S
O27 C21 1.208 . S
O28 Cd29 2.223 . S
O28 C36 1.315 . S
Cd29 O28 2.223 . S
Cd29 O32 2.297 . S
Cd29 O33 2.439 . S
Cd29 O39 2.240 . S
Cd30 O31 2.240 . S
Cd30 O38 2.223 . S
Cd30 O40 2.297 . S
Cd30 O41 2.439 . S
O31 Cd30 2.240 . S
O31 C36 1.279 . S
O32 Cd29 2.297 . S
O32 C34 1.247 . S
O33 Cd29 2.439 . S
O33 C34 1.208 . S
C34 O32 1.247 . S
C34 O33 1.208 . S
C35 O40 1.247 . S
C35 O41 1.208 . S
C36 O28 1.315 . S
C36 O31 1.279 . S
C37 O38 1.315 . S
C37 O39 1.279 . S
O38 Cd30 2.223 . S
O38 C37 1.315 . S
O39 Cd29 2.240 . S
O39 C37 1.279 . S
O40 Cd30 2.297 . S
O40 C35 1.247 . S
O41 Cd30 2.439 . S
O41 C35 1.208 . S
O42 Cd43 2.223 . S
O42 C50 1.315 . S
Cd43 O42 2.223 . S
Cd43 O46 2.297 . S
Cd43 O47 2.439 . S
Cd43 O53 2.240 . S
Cd44 O45 2.240 . S
Cd44 O52 2.223 . S
Cd44 O54 2.297 . S
Cd44 O55 2.439 . S
O45 Cd44 2.240 . S
O45 C50 1.279 . S
O46 Cd43 2.297 . S
O46 C48 1.247 . S
O47 Cd43 2.439 . S
O47 C48 1.208 . S
C48 O46 1.247 . S
C48 O47 1.208 . S
C49 O54 1.247 . S
C49 O55 1.208 . S
C50 O42 1.315 . S
C50 O45 1.279 . S
C51 O52 1.315 . S
C51 O53 1.279 . S
O52 Cd44 2.223 . S
O52 C51 1.315 . S
O53 Cd43 2.240 . S
O53 C51 1.279 . S
O54 Cd44 2.297 . S
O54 C49 1.247 . S
O55 Cd44 2.439 . S
O55 C49 1.208 . S
O56 Cd57 2.223 . S
O56 C64 1.315 . S
Cd57 O56 2.223 . S
Cd57 O60 2.297 . S
Cd57 O61 2.439 . S
Cd57 O67 2.240 . S
Cd58 O59 2.240 . S
Cd58 O66 2.223 . S
Cd58 O68 2.297 . S
Cd58 O69 2.439 . S
O59 Cd58 2.240 . S
O59 C64 1.279 . S
O60 Cd57 2.297 . S
O60 C62 1.247 . S
O61 Cd57 2.439 . S
O61 C62 1.208 . S
C62 O60 1.247 . S
C62 O61 1.208 . S
C63 O68 1.247 . S
C63 O69 1.208 . S
C64 O56 1.315 . S
C64 O59 1.279 . S
C65 O66 1.315 . S
C65 O67 1.279 . S
O66 Cd58 2.223 . S
O66 C65 1.315 . S
O67 Cd57 2.240 . S
O67 C65 1.279 . S
O68 Cd58 2.297 . S
O68 C63 1.247 . S
O69 Cd58 2.439 . S
O69 C63 1.208 . S
O70 Cd71 2.223 . S
O70 C78 1.315 . S
Cd71 O70 2.223 . S
Cd71 O74 2.297 . S
Cd71 O75 2.439 . S
Cd71 O81 2.240 . S
Cd72 O73 2.240 . S
Cd72 O80 2.223 . S
Cd72 O82 2.297 . S
Cd72 O83 2.439 . S
O73 Cd72 2.240 . S
O73 C78 1.279 . S
O74 Cd71 2.297 . S
O74 C76 1.247 . S
O75 Cd71 2.439 . S
O75 C76 1.208 . S
C76 O74 1.247 . S
C76 O75 1.208 . S
C77 O82 1.247 . S
C77 O83 1.208 . S
C78 O70 1.315 . S
C78 O73 1.279 . S
C79 O80 1.315 . S
C79 O81 1.279 . S
O80 Cd72 2.223 . S
O80 C79 1.315 . S
O81 Cd71 2.240 . S
O81 C79 1.279 . S
O82 Cd72 2.297 . S
O82 C77 1.247 . S
O83 Cd72 2.439 . S
O83 C77 1.208 . S
O84 Cd85 2.223 . S
O84 C92 1.315 . S
Cd85 O84 2.223 . S
Cd85 O88 2.297 . S
Cd85 O89 2.439 . S
Cd85 O95 2.240 . S
Cd86 O87 2.240 . S
Cd86 O94 2.223 . S
Cd86 O96 2.297 . S
Cd86 O97 2.439 . S
O87 Cd86 2.240 . S
O87 C92 1.279 . S
O88 Cd85 2.297 . S
O88 C90 1.247 . S
O89 Cd85 2.439 . S
O89 C90 1.208 . S
C90 O88 1.247 . S
C90 O89 1.208 . S
C91 O96 1.247 . S
C91 O97 1.208 . S
C92 O84 1.315 . S
C92 O87 1.279 . S
C93 O94 1.315 . S
C93 O95 1.279 . S
O94 Cd86 2.223 . S
O94 C93 1.315 . S
O95 Cd85 2.240 . S
O95 C93 1.279 . S
O96 Cd86 2.297 . S
O96 C91 1.247 . S
O97 Cd86 2.439 . S
O97 C91 1.208 . S
O98 Cd99 2.223 . S
O98 C106 1.315 . S
Cd99 O98 2.223 . S
Cd99 O102 2.297 . S
Cd99 O103 2.439 . S
Cd99 O109 2.240 . S
Cd100 O101 2.240 . S
Cd100 O108 2.223 . S
Cd100 O110 2.297 . S
Cd100 O111 2.439 . S
O101 Cd100 2.240 . S
O101 C106 1.279 . S
O102 Cd99 2.297 . S
O102 C104 1.247 . S
O103 Cd99 2.439 . S
O103 C104 1.208 . S
C104 O102 1.247 . S
C104 O103 1.208 . S
C105 O110 1.247 . S
C105 O111 1.208 . S
C106 O98 1.315 . S
C106 O101 1.279 . S
C107 O108 1.315 . S
C107 O109 1.279 . S
O108 Cd100 2.223 . S
O108 C107 1.315 . S
O109 Cd99 2.240 . S
O109 C107 1.279 . S
O110 Cd100 2.297 . S
O110 C105 1.247 . S
O111 Cd100 2.439 . S
O111 C105 1.208 . S
O112 Cd113 2.223 . S
O112 C120 1.315 . S
Cd113 O112 2.223 . S
Cd113 O116 2.297 . S
Cd113 O117 2.439 . S
Cd113 O123 2.240 . S
Cd114 O115 2.240 . S
Cd114 O122 2.223 . S
Cd114 O124 2.297 . S
Cd114 O125 2.439 . S
O115 Cd114 2.240 . S
O115 C120 1.279 . S
O116 Cd113 2.297 . S
O116 C118 1.247 . S
O117 Cd113 2.439 . S
O117 C118 1.208 . S
C118 O116 1.247 . S
C118 O117 1.208 . S
C119 O124 1.247 . S
C119 O125 1.208 . S
C120 O112 1.315 . S
C120 O115 1.279 . S
C121 O122 1.315 . S
C121 O123 1.279 . S
O122 Cd114 2.223 . S
O122 C121 1.315 . S
O123 Cd113 2.240 . S
O123 C121 1.279 . S
O124 Cd114 2.297 . S
O124 C119 1.247 . S
O125 Cd114 2.439 . S
O125 C119 1.208 . S
O126 Cd127 2.223 . S
O126 C134 1.315 . S
Cd127 O126 2.223 . S
Cd127 O130 2.297 . S
Cd127 O131 2.439 . S
Cd127 O137 2.240 . S
Cd128 O129 2.240 . S
Cd128 O136 2.223 . S
Cd128 O138 2.297 . S
Cd128 O139 2.439 . S
O129 Cd128 2.240 . S
O129 C134 1.279 . S
O130 Cd127 2.297 . S
O130 C132 1.247 . S
O131 Cd127 2.439 . S
O131 C132 1.208 . S
C132 O130 1.247 . S
C132 O131 1.208 . S
C133 O138 1.247 . S
C133 O139 1.208 . S
C134 O126 1.315 . S
C134 O129 1.279 . S
C135 O136 1.315 . S
C135 O137 1.279 . S
O136 Cd128 2.223 . S
O136 C135 1.315 . S
O137 Cd127 2.240 . S
O137 C135 1.279 . S
O138 Cd128 2.297 . S
O138 C133 1.247 . S
O139 Cd128 2.439 . S
O139 C133 1.208 . S
O140 Cd141 2.223 . S
O140 C148 1.315 . S
Cd141 O140 2.223 . S
Cd141 O144 2.297 . S
Cd141 O145 2.439 . S
Cd141 O151 2.240 . S
Cd142 O143 2.240 . S
Cd142 O150 2.223 . S
Cd142 O152 2.297 . S
Cd142 O153 2.439 . S
O143 Cd142 2.240 . S
O143 C148 1.279 . S
O144 Cd141 2.297 . S
O144 C146 1.247 . S
O145 Cd141 2.439 . S
O145 C146 1.208 . S
C146 O144 1.247 . S
C146 O145 1.208 . S
C147 O152 1.247 . S
C147 O153 1.208 . S
C148 O140 1.315 . S
C148 O143 1.279 . S
C149 O150 1.315 . S
C149 O151 1.279 . S
O150 Cd142 2.223 . S
O150 C149 1.315 . S
O151 Cd141 2.240 . S
O151 C149 1.279 . S
O152 Cd142 2.297 . S
O152 C147 1.247 . S
O153 Cd142 2.439 . S
O153 C147 1.208 . S
O154 Cd155 2.223 . S
O154 C162 1.315 . S
Cd155 O154 2.223 . S
Cd155 O158 2.297 . S
Cd155 O159 2.439 . S
Cd155 O165 2.240 . S
Cd156 O157 2.240 . S
Cd156 O164 2.223 . S
Cd156 O166 2.297 . S
Cd156 O167 2.439 . S
O157 Cd156 2.240 . S
O157 C162 1.279 . S
O158 Cd155 2.297 . S
O158 C160 1.247 . S
O159 Cd155 2.439 . S
O159 C160 1.208 . S
C160 O158 1.247 . S
C160 O159 1.208 . S
C161 O166 1.247 . S
C161 O167 1.208 . S
C162 O154 1.315 . S
C162 O157 1.279 . S
C163 O164 1.315 . S
C163 O165 1.279 . S
O164 Cd156 2.223 . S
O164 C163 1.315 . S
O165 Cd155 2.240 . S
O165 C163 1.279 . S
O166 Cd156 2.297 . S
O166 C161 1.247 . S
O167 Cd156 2.439 . S
O167 C161 1.208 . S
C168 C169 1.349 . S
C168 C170 1.327 . S
C168 H193 0.950 . S
C169 C168 1.349 . S
C169 C185 1.349 . S
C170 C168 1.327 . S
C170 C189 1.429 . S
C170 H194 0.950 . S
C171 C188 1.574 . S
C171 C190 1.368 . S
C171 H195 0.949 . S
H172 C176 0.949 . S
C173 C174 1.349 . S
C173 C175 1.327 . S
C173 H196 0.950 . S
C174 C173 1.349 . S
C174 C186 1.349 . S
C175 C173 1.327 . S
C175 C191 1.429 . S
C175 H197 0.950 . S
C176 H172 0.949 . S
C176 C184 1.574 . S
C176 C192 1.368 . S
H177 C185 0.950 . S
H178 C183 0.950 . S
H179 C184 0.949 . S
H180 C186 0.950 . S
H181 C187 0.950 . S
H182 C188 0.949 . S
C183 H178 0.950 . S
C183 C185 1.327 . S
C183 C189 1.429 . S
C184 C176 1.574 . S
C184 H179 0.949 . S
C184 C190 1.368 . S
C185 C169 1.349 . S
C185 H177 0.950 . S
C185 C183 1.327 . S
C186 C174 1.349 . S
C186 H180 0.950 . S
C186 C187 1.327 . S
C187 H181 0.950 . S
C187 C186 1.327 . S
C187 C191 1.429 . S
C188 C171 1.574 . S
C188 H182 0.949 . S
C188 C192 1.368 . S
C189 C170 1.429 . S
C189 C183 1.429 . S
C189 C190 1.523 . S
C190 C171 1.368 . S
C190 C184 1.368 . S
C190 C189 1.523 . S
C191 C175 1.429 . S
C191 C187 1.429 . S
C191 C192 1.523 . S
C192 C176 1.368 . S
C192 C188 1.368 . S
C192 C191 1.523 . S
H193 C168 0.950 . S
H194 C170 0.950 . S
H195 C171 0.949 . S
H196 C173 0.950 . S
H197 C175 0.950 . S
C198 C199 1.349 . S
C198 C200 1.327 . S
C198 H223 0.950 . S
C199 C198 1.349 . S
C199 C215 1.349 . S
C200 C198 1.327 . S
C200 C219 1.429 . S
C200 H224 0.950 . S
C201 C218 1.574 . S
C201 C220 1.368 . S
C201 H225 0.949 . S
H202 C206 0.949 . S
C203 C204 1.349 . S
C203 C205 1.327 . S
C203 H226 0.950 . S
C204 C203 1.349 . S
C204 C216 1.349 . S
C205 C203 1.327 . S
C205 C221 1.429 . S
C205 H227 0.950 . S
C206 H202 0.949 . S
C206 C214 1.574 . S
C206 C222 1.368 . S
H207 C215 0.950 . S
H208 C213 0.950 . S
H209 C214 0.949 . S
H210 C216 0.950 . S
H211 C217 0.950 . S
H212 C218 0.949 . S
C213 H208 0.950 . S
C213 C215 1.327 . S
C213 C219 1.429 . S
C214 C206 1.574 . S
C214 H209 0.949 . S
C214 C220 1.368 . S
C215 C199 1.349 . S
C215 H207 0.950 . S
C215 C213 1.327 . S
C216 C204 1.349 . S
C216 H210 0.950 . S
C216 C217 1.327 . S
C217 H211 0.950 . S
C217 C216 1.327 . S
C217 C221 1.429 . S
C218 C201 1.574 . S
C218 H212 0.949 . S
C218 C222 1.368 . S
C219 C200 1.429 . S
C219 C213 1.429 . S
C219 C220 1.523 . S
C220 C201 1.368 . S
C220 C214 1.368 . S
C220 C219 1.523 . S
C221 C205 1.429 . S
C221 C217 1.429 . S
C221 C222 1.523 . S
C222 C206 1.368 . S
C222 C218 1.368 . S
C222 C221 1.523 . S
H223 C198 0.950 . S
H224 C200 0.950 . S
H225 C201 0.949 . S
H226 C203 0.950 . S
H227 C205 0.950 . S
C228 C229 1.349 . S
C228 C230 1.327 . S
C228 H253 0.950 . S
C229 C228 1.349 . S
C229 C245 1.349 . S
C230 C228 1.327 . S
C230 C249 1.429 . S
C230 H254 0.950 . S
C231 C248 1.574 . S
C231 C250 1.368 . S
C231 H255 0.949 . S
H232 C236 0.949 . S
C233 C234 1.349 . S
C233 C235 1.327 . S
C233 H256 0.950 . S
C234 C233 1.349 . S
C234 C246 1.349 . S
C235 C233 1.327 . S
C235 C251 1.429 . S
C235 H257 0.950 . S
C236 H232 0.949 . S
C236 C244 1.574 . S
C236 C252 1.368 . S
H237 C245 0.950 . S
H238 C243 0.950 . S
H239 C244 0.949 . S
H240 C246 0.950 . S
H241 C247 0.950 . S
H242 C248 0.949 . S
C243 H238 0.950 . S
C243 C245 1.327 . S
C243 C249 1.429 . S
C244 C236 1.574 . S
C244 H239 0.949 . S
C244 C250 1.368 . S
C245 C229 1.349 . S
C245 H237 0.950 . S
C245 C243 1.327 . S
C246 C234 1.349 . S
C246 H240 0.950 . S
C246 C247 1.327 . S
C247 H241 0.950 . S
C247 C246 1.327 . S
C247 C251 1.429 . S
C248 C231 1.574 . S
C248 H242 0.949 . S
C248 C252 1.368 . S
C249 C230 1.429 . S
C249 C243 1.429 . S
C249 C250 1.523 . S
C250 C231 1.368 . S
C250 C244 1.368 . S
C250 C249 1.523 . S
C251 C235 1.429 . S
C251 C247 1.429 . S
C251 C252 1.523 . S
C252 C236 1.368 . S
C252 C248 1.368 . S
C252 C251 1.523 . S
H253 C228 0.950 . S
H254 C230 0.950 . S
H255 C231 0.949 . S
H256 C233 0.950 . S
H257 C235 0.950 . S
C258 C259 1.349 . S
C258 C260 1.327 . S
C258 H283 0.950 . S
C259 C258 1.349 . S
C259 C275 1.349 . S
C260 C258 1.327 . S
C260 C279 1.429 . S
C260 H284 0.950 . S
C261 C278 1.574 . S
C261 C280 1.368 . S
C261 H285 0.949 . S
H262 C266 0.949 . S
C263 C264 1.349 . S
C263 C265 1.327 . S
C263 H286 0.950 . S
C264 C263 1.349 . S
C264 C276 1.349 . S
C265 C263 1.327 . S
C265 C281 1.429 . S
C265 H287 0.950 . S
C266 H262 0.949 . S
C266 C274 1.574 . S
C266 C282 1.368 . S
H267 C275 0.950 . S
H268 C273 0.950 . S
H269 C274 0.949 . S
H270 C276 0.950 . S
H271 C277 0.950 . S
H272 C278 0.949 . S
C273 H268 0.950 . S
C273 C275 1.327 . S
C273 C279 1.429 . S
C274 C266 1.574 . S
C274 H269 0.949 . S
C274 C280 1.368 . S
C275 C259 1.349 . S
C275 H267 0.950 . S
C275 C273 1.327 . S
C276 C264 1.349 . S
C276 H270 0.950 . S
C276 C277 1.327 . S
C277 H271 0.950 . S
C277 C276 1.327 . S
C277 C281 1.429 . S
C278 C261 1.574 . S
C278 H272 0.949 . S
C278 C282 1.368 . S
C279 C260 1.429 . S
C279 C273 1.429 . S
C279 C280 1.523 . S
C280 C261 1.368 . S
C280 C274 1.368 . S
C280 C279 1.523 . S
C281 C265 1.429 . S
C281 C277 1.429 . S
C281 C282 1.523 . S
C282 C266 1.368 . S
C282 C278 1.368 . S
C282 C281 1.523 . S
H283 C258 0.950 . S
H284 C260 0.950 . S
H285 C261 0.949 . S
H286 C263 0.950 . S
H287 C265 0.950 . S
C288 C289 1.349 . S
C288 C290 1.327 . S
C288 H313 0.950 . S
C289 C288 1.349 . S
C289 C305 1.349 . S
C290 C288 1.327 . S
C290 C309 1.429 . S
C290 H314 0.950 . S
C291 C308 1.574 . S
C291 C310 1.368 . S
C291 H315 0.949 . S
H292 C296 0.949 . S
C293 C294 1.349 . S
C293 C295 1.327 . S
C293 H316 0.950 . S
C294 C293 1.349 . S
C294 C306 1.349 . S
C295 C293 1.327 . S
C295 C311 1.429 . S
C295 H317 0.950 . S
C296 H292 0.949 . S
C296 C304 1.574 . S
C296 C312 1.368 . S
H297 C305 0.950 . S
H298 C303 0.950 . S
H299 C304 0.949 . S
H300 C306 0.950 . S
H301 C307 0.950 . S
H302 C308 0.949 . S
C303 H298 0.950 . S
C303 C305 1.327 . S
C303 C309 1.429 . S
C304 C296 1.574 . S
C304 H299 0.949 . S
C304 C310 1.368 . S
C305 C289 1.349 . S
C305 H297 0.950 . S
C305 C303 1.327 . S
C306 C294 1.349 . S
C306 H300 0.950 . S
C306 C307 1.327 . S
C307 H301 0.950 . S
C307 C306 1.327 . S
C307 C311 1.429 . S
C308 C291 1.574 . S
C308 H302 0.949 . S
C308 C312 1.368 . S
C309 C290 1.429 . S
C309 C303 1.429 . S
C309 C310 1.523 . S
C310 C291 1.368 . S
C310 C304 1.368 . S
C310 C309 1.523 . S
C311 C295 1.429 . S
C311 C307 1.429 . S
C311 C312 1.523 . S
C312 C296 1.368 . S
C312 C308 1.368 . S
C312 C311 1.523 . S
H313 C288 0.950 . S
H314 C290 0.950 . S
H315 C291 0.949 . S
H316 C293 0.950 . S
H317 C295 0.950 . S
C318 C319 1.349 . S
C318 C320 1.327 . S
C318 H343 0.950 . S
C319 C318 1.349 . S
C319 C335 1.349 . S
C320 C318 1.327 . S
C320 C339 1.429 . S
C320 H344 0.950 . S
C321 C338 1.574 . S
C321 C340 1.368 . S
C321 H345 0.949 . S
H322 C326 0.949 . S
C323 C324 1.349 . S
C323 C325 1.327 . S
C323 H346 0.950 . S
C324 C323 1.349 . S
C324 C336 1.349 . S
C325 C323 1.327 . S
C325 C341 1.429 . S
C325 H347 0.950 . S
C326 H322 0.949 . S
C326 C334 1.574 . S
C326 C342 1.368 . S
H327 C335 0.950 . S
H328 C333 0.950 . S
H329 C334 0.949 . S
H330 C336 0.950 . S
H331 C337 0.950 . S
H332 C338 0.949 . S
C333 H328 0.950 . S
C333 C335 1.327 . S
C333 C339 1.429 . S
C334 C326 1.574 . S
C334 H329 0.949 . S
C334 C340 1.368 . S
C335 C319 1.349 . S
C335 H327 0.950 . S
C335 C333 1.327 . S
C336 C324 1.349 . S
C336 H330 0.950 . S
C336 C337 1.327 . S
C337 H331 0.950 . S
C337 C336 1.327 . S
C337 C341 1.429 . S
C338 C321 1.574 . S
C338 H332 0.949 . S
C338 C342 1.368 . S
C339 C320 1.429 . S
C339 C333 1.429 . S
C339 C340 1.523 . S
C340 C321 1.368 . S
C340 C334 1.368 . S
C340 C339 1.523 . S
C341 C325 1.429 . S
C341 C337 1.429 . S
C341 C342 1.523 . S
C342 C326 1.368 . S
C342 C338 1.368 . S
C342 C341 1.523 . S
H343 C318 0.950 . S
H344 C320 0.950 . S
H345 C321 0.949 . S
H346 C323 0.950 . S
H347 C325 0.950 . S
C348 C349 1.349 . S
C348 C350 1.327 . S
C348 H373 0.950 . S
C349 C348 1.349 . S
C349 C365 1.349 . S
C350 C348 1.327 . S
C350 C369 1.429 . S
C350 H374 0.950 . S
C351 C368 1.574 . S
C351 C370 1.368 . S
C351 H375 0.949 . S
H352 C356 0.949 . S
C353 C354 1.349 . S
C353 C355 1.327 . S
C353 H376 0.950 . S
C354 C353 1.349 . S
C354 C366 1.349 . S
C355 C353 1.327 . S
C355 C371 1.429 . S
C355 H377 0.950 . S
C356 H352 0.949 . S
C356 C364 1.574 . S
C356 C372 1.368 . S
H357 C365 0.950 . S
H358 C363 0.950 . S
H359 C364 0.949 . S
H360 C366 0.950 . S
H361 C367 0.950 . S
H362 C368 0.949 . S
C363 H358 0.950 . S
C363 C365 1.327 . S
C363 C369 1.429 . S
C364 C356 1.574 . S
C364 H359 0.949 . S
C364 C370 1.368 . S
C365 C349 1.349 . S
C365 H357 0.950 . S
C365 C363 1.327 . S
C366 C354 1.349 . S
C366 H360 0.950 . S
C366 C367 1.327 . S
C367 H361 0.950 . S
C367 C366 1.327 . S
C367 C371 1.429 . S
C368 C351 1.574 . S
C368 H362 0.949 . S
C368 C372 1.368 . S
C369 C350 1.429 . S
C369 C363 1.429 . S
C369 C370 1.523 . S
C370 C351 1.368 . S
C370 C364 1.368 . S
C370 C369 1.523 . S
C371 C355 1.429 . S
C371 C367 1.429 . S
C371 C372 1.523 . S
C372 C356 1.368 . S
C372 C368 1.368 . S
C372 C371 1.523 . S
H373 C348 0.950 . S
H374 C350 0.950 . S
H375 C351 0.949 . S
H376 C353 0.950 . S
H377 C355 0.950 . S
C378 C379 1.349 . S
C378 C380 1.327 . S
C378 H403 0.950 . S
C379 C378 1.349 . S
C379 C395 1.349 . S
C380 C378 1.327 . S
C380 C399 1.429 . S
C380 H404 0.950 . S
C381 C398 1.574 . S
C381 C400 1.368 . S
C381 H405 0.949 . S
H382 C386 0.949 . S
C383 C384 1.349 . S
C383 C385 1.327 . S
C383 H406 0.950 . S
C384 C383 1.349 . S
C384 C396 1.349 . S
C385 C383 1.327 . S
C385 C401 1.429 . S
C385 H407 0.950 . S
C386 H382 0.949 . S
C386 C394 1.574 . S
C386 C402 1.368 . S
H387 C395 0.950 . S
H388 C393 0.950 . S
H389 C394 0.949 . S
H390 C396 0.950 . S
H391 C397 0.950 . S
H392 C398 0.949 . S
C393 H388 0.950 . S
C393 C395 1.327 . S
C393 C399 1.429 . S
C394 C386 1.574 . S
C394 H389 0.949 . S
C394 C400 1.368 . S
C395 C379 1.349 . S
C395 H387 0.950 . S
C395 C393 1.327 . S
C396 C384 1.349 . S
C396 H390 0.950 . S
C396 C397 1.327 . S
C397 H391 0.950 . S
C397 C396 1.327 . S
C397 C401 1.429 . S
C398 C381 1.574 . S
C398 H392 0.949 . S
C398 C402 1.368 . S
C399 C380 1.429 . S
C399 C393 1.429 . S
C399 C400 1.523 . S
C400 C381 1.368 . S
C400 C394 1.368 . S
C400 C399 1.523 . S
C401 C385 1.429 . S
C401 C397 1.429 . S
C401 C402 1.523 . S
C402 C386 1.368 . S
C402 C398 1.368 . S
C402 C401 1.523 . S
H403 C378 0.950 . S
H404 C380 0.950 . S
H405 C381 0.949 . S
H406 C383 0.950 . S
H407 C385 0.950 . S
C408 C409 1.349 . S
C408 C410 1.327 1_554 S
C408 H433 0.950 . S
C409 C408 1.349 . S
C409 C425 1.349 . S
C410 C408 1.327 1_556 S
C410 C429 1.429 . S
C410 H434 0.950 . S
C411 C428 1.574 . S
C411 C430 1.368 . S
C411 H435 0.949 . S
H412 C416 0.949 . S
C413 C414 1.349 . S
C413 C415 1.327 . S
C413 H436 0.950 . S
C414 C413 1.349 . S
C414 C426 1.349 . S
C415 C413 1.327 . S
C415 C431 1.429 . S
C415 H437 0.950 . S
C416 H412 0.949 . S
C416 C424 1.574 . S
C416 C432 1.368 . S
H417 C425 0.950 . S
H418 C423 0.950 . S
H419 C424 0.949 . S
H420 C426 0.950 . S
H421 C427 0.950 . S
H422 C428 0.949 . S
C423 H418 0.950 . S
C423 C425 1.327 1_556 S
C423 C429 1.429 . S
C424 C416 1.574 . S
C424 H419 0.949 . S
C424 C430 1.368 . S
C425 C409 1.349 . S
C425 H417 0.950 . S
C425 C423 1.327 1_554 S
C426 C414 1.349 . S
C426 H420 0.950 . S
C426 C427 1.327 . S
C427 H421 0.950 . S
C427 C426 1.327 . S
C427 C431 1.429 . S
C428 C411 1.574 . S
C428 H422 0.949 . S
C428 C432 1.368 . S
C429 C410 1.429 . S
C429 C423 1.429 . S
C429 C430 1.523 . S
C430 C411 1.368 . S
C430 C424 1.368 . S
C430 C429 1.523 . S
C431 C415 1.429 . S
C431 C427 1.429 . S
C431 C432 1.523 . S
C432 C416 1.368 . S
C432 C428 1.368 . S
C432 C431 1.523 . S
H433 C408 0.950 . S
H434 C410 0.950 . S
H435 C411 0.949 . S
H436 C413 0.950 . S
H437 C415 0.950 . S
C438 C439 1.349 . S
C438 C440 1.327 . S
C438 H463 0.950 . S
C439 C438 1.349 . S
C439 C455 1.349 . S
C440 C438 1.327 . S
C440 C459 1.429 . S
C440 H464 0.950 . S
C441 C458 1.574 . S
C441 C460 1.368 . S
C441 H465 0.949 . S
H442 C446 0.949 . S
C443 C444 1.349 . S
C443 C445 1.327 1_556 S
C443 H466 0.950 . S
C444 C443 1.349 . S
C444 C456 1.349 . S
C445 C443 1.327 1_554 S
C445 C461 1.429 . S
C445 H467 0.950 . S
C446 H442 0.949 . S
C446 C454 1.574 . S
C446 C462 1.368 . S
H447 C455 0.950 . S
H448 C453 0.950 . S
H449 C454 0.949 . S
H450 C456 0.950 . S
H451 C457 0.950 . S
H452 C458 0.949 . S
C453 H448 0.950 . S
C453 C455 1.327 . S
C453 C459 1.429 . S
C454 C446 1.574 . S
C454 H449 0.949 . S
C454 C460 1.368 . S
C455 C439 1.349 . S
C455 H447 0.950 . S
C455 C453 1.327 . S
C456 C444 1.349 . S
C456 H450 0.950 . S
C456 C457 1.327 1_556 S
C457 H451 0.950 . S
C457 C456 1.327 1_554 S
C457 C461 1.429 . S
C458 C441 1.574 . S
C458 H452 0.949 . S
C458 C462 1.368 . S
C459 C440 1.429 . S
C459 C453 1.429 . S
C459 C460 1.523 . S
C460 C441 1.368 . S
C460 C454 1.368 . S
C460 C459 1.523 . S
C461 C445 1.429 . S
C461 C457 1.429 . S
C461 C462 1.523 . S
C462 C446 1.368 . S
C462 C458 1.368 . S
C462 C461 1.523 . S
H463 C438 0.950 . S
H464 C440 0.950 . S
H465 C441 0.949 . S
H466 C443 0.950 . S
H467 C445 0.950 . S
C468 C469 1.349 . S
C468 C470 1.327 . S
C468 H493 0.950 . S
C469 C468 1.349 . S
C469 C485 1.349 . S
C470 C468 1.327 . S
C470 C489 1.429 . S
C470 H494 0.950 . S
C471 C488 1.574 . S
C471 C490 1.368 . S
C471 H495 0.949 . S
H472 C476 0.949 . S
C473 C474 1.349 . S
C473 C475 1.327 . S
C473 H496 0.950 . S
C474 C473 1.349 . S
C474 C486 1.349 . S
C475 C473 1.327 . S
C475 C491 1.429 . S
C475 H497 0.950 . S
C476 H472 0.949 . S
C476 C484 1.574 . S
C476 C492 1.368 . S
H477 C485 0.950 . S
H478 C483 0.950 . S
H479 C484 0.949 . S
H480 C486 0.950 . S
H481 C487 0.950 . S
H482 C488 0.949 . S
C483 H478 0.950 . S
C483 C485 1.327 . S
C483 C489 1.429 . S
C484 C476 1.574 . S
C484 H479 0.949 . S
C484 C490 1.368 . S
C485 C469 1.349 . S
C485 H477 0.950 . S
C485 C483 1.327 . S
C486 C474 1.349 . S
C486 H480 0.950 . S
C486 C487 1.327 . S
C487 H481 0.950 . S
C487 C486 1.327 . S
C487 C491 1.429 . S
C488 C471 1.574 . S
C488 H482 0.949 . S
C488 C492 1.368 . S
C489 C470 1.429 . S
C489 C483 1.429 . S
C489 C490 1.523 . S
C490 C471 1.368 . S
C490 C484 1.368 . S
C490 C489 1.523 . S
C491 C475 1.429 . S
C491 C487 1.429 . S
C491 C492 1.523 . S
C492 C476 1.368 . S
C492 C488 1.368 . S
C492 C491 1.523 . S
H493 C468 0.950 . S
H494 C470 0.950 . S
H495 C471 0.949 . S
H496 C473 0.950 . S
H497 C475 0.950 . S
C498 C499 1.349 . S
C498 C500 1.327 . S
C498 H523 0.950 . S
C499 C498 1.349 . S
C499 C515 1.349 . S
C500 C498 1.327 . S
C500 C519 1.429 . S
C500 H524 0.950 . S
C501 C518 1.574 . S
C501 C520 1.368 . S
C501 H525 0.949 . S
H502 C506 0.949 . S
C503 C504 1.349 . S
C503 C505 1.327 . S
C503 H526 0.950 . S
C504 C503 1.349 . S
C504 C516 1.349 . S
C505 C503 1.327 . S
C505 C521 1.429 . S
C505 H527 0.950 . S
C506 H502 0.949 . S
C506 C514 1.574 . S
C506 C522 1.368 . S
H507 C515 0.950 . S
H508 C513 0.950 . S
H509 C514 0.949 . S
H510 C516 0.950 . S
H511 C517 0.950 . S
H512 C518 0.949 . S
C513 H508 0.950 . S
C513 C515 1.327 . S
C513 C519 1.429 . S
C514 C506 1.574 . S
C514 H509 0.949 . S
C514 C520 1.368 . S
C515 C499 1.349 . S
C515 H507 0.950 . S
C515 C513 1.327 . S
C516 C504 1.349 . S
C516 H510 0.950 . S
C516 C517 1.327 . S
C517 H511 0.950 . S
C517 C516 1.327 . S
C517 C521 1.429 . S
C518 C501 1.574 . S
C518 H512 0.949 . S
C518 C522 1.368 . S
C519 C500 1.429 . S
C519 C513 1.429 . S
C519 C520 1.523 . S
C520 C501 1.368 . S
C520 C514 1.368 . S
C520 C519 1.523 . S
C521 C505 1.429 . S
C521 C517 1.429 . S
C521 C522 1.523 . S
C522 C506 1.368 . S
C522 C518 1.368 . S
C522 C521 1.523 . S
H523 C498 0.950 . S
H524 C500 0.950 . S
H525 C501 0.949 . S
H526 C503 0.950 . S
H527 C505 0.950 . S
C528 C529 1.349 . S
C528 C530 1.327 . S
C528 H553 0.950 . S
C529 C528 1.349 . S
C529 C545 1.349 . S
C530 C528 1.327 . S
C530 C549 1.429 . S
C530 H554 0.950 . S
C531 C548 1.574 1_655 S
C531 C550 1.368 . S
C531 H555 0.949 . S
H532 C536 0.949 . S
C533 C534 1.349 . S
C533 C535 1.327 . S
C533 H556 0.950 . S
C534 C533 1.349 . S
C534 C546 1.349 . S
C535 C533 1.327 . S
C535 C551 1.429 . S
C535 H557 0.950 . S
C536 H532 0.949 . S
C536 C544 1.574 1_455 S
C536 C552 1.368 . S
H537 C545 0.950 . S
H538 C543 0.950 . S
H539 C544 0.949 . S
H540 C546 0.950 . S
H541 C547 0.950 . S
H542 C548 0.949 . S
C543 H538 0.950 . S
C543 C545 1.327 . S
C543 C549 1.429 . S
C544 C536 1.574 1_655 S
C544 H539 0.949 . S
C544 C550 1.368 . S
C545 C529 1.349 . S
C545 H537 0.950 . S
C545 C543 1.327 . S
C546 C534 1.349 . S
C546 H540 0.950 . S
C546 C547 1.327 . S
C547 H541 0.950 . S
C547 C546 1.327 . S
C547 C551 1.429 . S
C548 C531 1.574 1_455 S
C548 H542 0.949 . S
C548 C552 1.368 . S
C549 C530 1.429 . S
C549 C543 1.429 . S
C549 C550 1.523 . S
C550 C531 1.368 . S
C550 C544 1.368 . S
C550 C549 1.523 . S
C551 C535 1.429 . S
C551 C547 1.429 . S
C551 C552 1.523 . S
C552 C536 1.368 . S
C552 C548 1.368 . S
C552 C551 1.523 . S
H553 C528 0.950 . S
H554 C530 0.950 . S
H555 C531 0.949 . S
H556 C533 0.950 . S
H557 C535 0.950 . S
C558 C559 1.349 . S
C558 C560 1.327 . S
C558 H583 0.950 . S
C559 C558 1.349 . S
C559 C575 1.349 . S
C560 C558 1.327 . S
C560 C579 1.429 . S
C560 H584 0.950 . S
C561 C578 1.574 1_565 S
C561 C580 1.368 . S
C561 H585 0.949 . S
H562 C566 0.949 . S
C563 C564 1.349 . S
C563 C565 1.327 . S
C563 H586 0.950 . S
C564 C563 1.349 . S
C564 C576 1.349 . S
C565 C563 1.327 . S
C565 C581 1.429 . S
C565 H587 0.950 . S
C566 H562 0.949 . S
C566 C574 1.574 1_545 S
C566 C582 1.368 . S
H567 C575 0.950 . S
H568 C573 0.950 . S
H569 C574 0.949 . S
H570 C576 0.950 . S
H571 C577 0.950 . S
H572 C578 0.949 . S
C573 H568 0.950 . S
C573 C575 1.327 . S
C573 C579 1.429 . S
C574 C566 1.574 1_565 S
C574 H569 0.949 . S
C574 C580 1.368 . S
C575 C559 1.349 . S
C575 H567 0.950 . S
C575 C573 1.327 . S
C576 C564 1.349 . S
C576 H570 0.950 . S
C576 C577 1.327 . S
C577 H571 0.950 . S
C577 C576 1.327 . S
C577 C581 1.429 . S
C578 C561 1.574 1_545 S
C578 H572 0.949 . S
C578 C582 1.368 . S
C579 C560 1.429 . S
C579 C573 1.429 . S
C579 C580 1.523 . S
C580 C561 1.368 . S
C580 C574 1.368 . S
C580 C579 1.523 . S
C581 C565 1.429 . S
C581 C577 1.429 . S
C581 C582 1.523 . S
C582 C566 1.368 . S
C582 C578 1.368 . S
C582 C581 1.523 . S
H583 C558 0.950 . S
H584 C560 0.950 . S
H585 C561 0.949 . S
H586 C563 0.950 . S
H587 C565 0.950 . S
C588 C589 1.349 . S
C588 C590 1.327 . S
C588 H613 0.950 . S
C589 C588 1.349 . S
C589 C605 1.349 . S
C590 C588 1.327 . S
C590 C609 1.429 . S
C590 H614 0.950 . S
C591 C608 1.574 . S
C591 C610 1.368 . S
C591 H615 0.949 . S
H592 C596 0.949 . S
C593 C594 1.349 . S
C593 C595 1.327 . S
C593 H616 0.950 . S
C594 C593 1.349 . S
C594 C606 1.349 . S
C595 C593 1.327 . S
C595 C611 1.429 . S
C595 H617 0.950 . S
C596 H592 0.949 . S
C596 C604 1.574 . S
C596 C612 1.368 . S
H597 C605 0.950 . S
H598 C603 0.950 . S
H599 C604 0.949 . S
H600 C606 0.950 . S
H601 C607 0.950 . S
H602 C608 0.949 . S
C603 H598 0.950 . S
C603 C605 1.327 . S
C603 C609 1.429 . S
C604 C596 1.574 . S
C604 H599 0.949 . S
C604 C610 1.368 . S
C605 C589 1.349 . S
C605 H597 0.950 . S
C605 C603 1.327 . S
C606 C594 1.349 . S
C606 H600 0.950 . S
C606 C607 1.327 . S
C607 H601 0.950 . S
C607 C606 1.327 . S
C607 C611 1.429 . S
C608 C591 1.574 . S
C608 H602 0.949 . S
C608 C612 1.368 . S
C609 C590 1.429 . S
C609 C603 1.429 . S
C609 C610 1.523 . S
C610 C591 1.368 . S
C610 C604 1.368 . S
C610 C609 1.523 . S
C611 C595 1.429 . S
C611 C607 1.429 . S
C611 C612 1.523 . S
C612 C596 1.368 . S
C612 C608 1.368 . S
C612 C611 1.523 . S
H613 C588 0.950 . S
H614 C590 0.950 . S
H615 C591 0.949 . S
H616 C593 0.950 . S
H617 C595 0.950 . S
C618 C619 1.349 . S
C618 C620 1.327 . S
C618 H643 0.950 . S
C619 C618 1.349 . S
C619 C635 1.349 . S
C620 C618 1.327 . S
C620 C639 1.429 . S
C620 H644 0.950 . S
C621 C638 1.574 1_455 S
C621 C640 1.368 . S
C621 H645 0.949 . S
H622 C626 0.949 . S
C623 C624 1.349 . S
C623 C625 1.327 . S
C623 H646 0.950 . S
C624 C623 1.349 . S
C624 C636 1.349 . S
C625 C623 1.327 . S
C625 C641 1.429 . S
C625 H647 0.950 . S
C626 H622 0.949 . S
C626 C634 1.574 1_655 S
C626 C642 1.368 . S
H627 C635 0.950 . S
H628 C633 0.950 . S
H629 C634 0.949 . S
H630 C636 0.950 . S
H631 C637 0.950 . S
H632 C638 0.949 . S
C633 H628 0.950 . S
C633 C635 1.327 . S
C633 C639 1.429 . S
C634 C626 1.574 1_455 S
C634 H629 0.949 . S
C634 C640 1.368 . S
C635 C619 1.349 . S
C635 H627 0.950 . S
C635 C633 1.327 . S
C636 C624 1.349 . S
C636 H630 0.950 . S
C636 C637 1.327 . S
C637 H631 0.950 . S
C637 C636 1.327 . S
C637 C641 1.429 . S
C638 C621 1.574 1_655 S
C638 H632 0.949 . S
C638 C642 1.368 . S
C639 C620 1.429 . S
C639 C633 1.429 . S
C639 C640 1.523 . S
C640 C621 1.368 . S
C640 C634 1.368 . S
C640 C639 1.523 . S
C641 C625 1.429 . S
C641 C637 1.429 . S
C641 C642 1.523 . S
C642 C626 1.368 . S
C642 C638 1.368 . S
C642 C641 1.523 . S
H643 C618 0.950 . S
H644 C620 0.950 . S
H645 C621 0.949 . S
H646 C623 0.950 . S
H647 C625 0.950 . S
C648 C649 1.349 . S
C648 C650 1.327 . S
C648 H673 0.950 . S
C649 C648 1.349 . S
C649 C665 1.349 . S
C650 C648 1.327 . S
C650 C669 1.429 . S
C650 H674 0.950 1_556 S
C651 C668 1.574 1_545 S
C651 C670 1.368 . S
C651 H675 0.949 . S
H652 C656 0.949 . S
C653 C654 1.349 . S
C653 C655 1.327 . S
C653 H676 0.946 1_554 S
C654 C653 1.349 . S
C654 C666 1.349 . S
C655 C653 1.327 . S
C655 C671 1.429 . S
C655 H677 0.950 1_554 S
C656 H652 0.949 . S
C656 C664 1.574 1_565 S
C656 C672 1.368 . S
H657 C665 0.950 . S
H658 C663 0.950 . S
H659 C664 0.949 . S
H660 C666 0.950 . S
H661 C667 0.950 . S
H662 C668 0.949 . S
C663 H658 0.950 . S
C663 C665 1.327 . S
C663 C669 1.429 . S
C664 C656 1.574 1_545 S
C664 H659 0.949 . S
C664 C670 1.368 1_554 S
C665 C649 1.349 . S
C665 H657 0.950 . S
C665 C663 1.327 . S
C666 C654 1.349 . S
C666 H660 0.950 . S
C666 C667 1.327 . S
C667 H661 0.950 . S
C667 C666 1.327 . S
C667 C671 1.429 . S
C668 C651 1.574 1_565 S
C668 H662 0.949 . S
C668 C672 1.368 1_556 S
C669 C650 1.429 . S
C669 C663 1.429 . S
C669 C670 1.523 . S
C670 C651 1.368 . S
C670 C664 1.368 1_556 S
C670 C669 1.523 . S
C671 C655 1.429 . S
C671 C667 1.429 . S
C671 C672 1.523 . S
C672 C656 1.368 . S
C672 C668 1.368 1_554 S
C672 C671 1.523 . S
H673 C648 0.950 . S
H674 C650 0.950 1_554 S
H675 C651 0.949 . S
H676 C653 0.946 1_556 S
H677 C655 0.950 1_556 S
C678 C679 1.349 . S
C678 C680 1.327 . S
C678 H703 0.950 . S
C679 C678 1.349 . S
C679 C695 1.349 . S
C680 C678 1.327 . S
C680 C699 1.429 . S
C680 H704 0.950 . S
C681 C698 1.574 . S
C681 C700 1.368 . S
C681 H705 0.949 . S
H682 C686 0.949 . S
C683 C684 1.349 . S
C683 C685 1.327 . S
C683 H706 0.950 . S
C684 C683 1.349 . S
C684 C696 1.349 . S
C685 C683 1.327 . S
C685 C701 1.429 . S
C685 H707 0.950 . S
C686 H682 0.949 . S
C686 C694 1.574 . S
C686 C702 1.368 . S
H687 C695 0.950 . S
H688 C693 0.950 . S
H689 C694 0.949 . S
H690 C696 0.950 . S
H691 C697 0.950 . S
H692 C698 0.949 . S
C693 H688 0.950 . S
C693 C695 1.327 . S
C693 C699 1.429 . S
C694 C686 1.574 . S
C694 H689 0.949 . S
C694 C700 1.368 . S
C695 C679 1.349 . S
C695 H687 0.950 . S
C695 C693 1.327 . S
C696 C684 1.349 . S
C696 H690 0.950 . S
C696 C697 1.327 . S
C697 H691 0.950 . S
C697 C696 1.327 . S
C697 C701 1.429 . S
C698 C681 1.574 . S
C698 H692 0.949 . S
C698 C702 1.368 . S
C699 C680 1.429 . S
C699 C693 1.429 . S
C699 C700 1.523 . S
C700 C681 1.368 . S
C700 C694 1.368 . S
C700 C699 1.523 . S
C701 C685 1.429 . S
C701 C697 1.429 . S
C701 C702 1.523 . S
C702 C686 1.368 . S
C702 C698 1.368 . S
C702 C701 1.523 . S
H703 C678 0.950 . S
H704 C680 0.950 . S
H705 C681 0.949 . S
H706 C683 0.950 . S
H707 C685 0.950 . S
C708 C709 1.349 . S
C708 C710 1.327 . S
C708 H733 0.950 . S
C709 C708 1.349 . S
C709 C725 1.349 . S
C710 C708 1.327 . S
C710 C729 1.429 . S
C710 H734 0.950 . S
C711 C728 1.574 . S
C711 C730 1.368 . S
C711 H735 0.949 . S
H712 C716 0.949 . S
C713 C714 1.349 . S
C713 C715 1.327 . S
C713 H736 0.950 . S
C714 C713 1.349 . S
C714 C726 1.349 . S
C715 C713 1.327 . S
C715 C731 1.429 . S
C715 H737 0.950 . S
C716 H712 0.949 . S
C716 C724 1.574 . S
C716 C732 1.368 . S
H717 C725 0.950 . S
H718 C723 0.950 . S
H719 C724 0.949 . S
H720 C726 0.950 . S
H721 C727 0.950 . S
H722 C728 0.949 . S
C723 H718 0.950 . S
C723 C725 1.327 . S
C723 C729 1.429 . S
C724 C716 1.574 . S
C724 H719 0.949 . S
C724 C730 1.368 . S
C725 C709 1.349 . S
C725 H717 0.950 . S
C725 C723 1.327 . S
C726 C714 1.349 . S
C726 H720 0.950 . S
C726 C727 1.327 . S
C727 H721 0.950 . S
C727 C726 1.327 . S
C727 C731 1.429 . S
C728 C711 1.574 . S
C728 H722 0.949 . S
C728 C732 1.368 . S
C729 C710 1.429 . S
C729 C723 1.429 . S
C729 C730 1.523 . S
C730 C711 1.368 . S
C730 C724 1.368 . S
C730 C729 1.523 . S
C731 C715 1.429 . S
C731 C727 1.429 . S
C731 C732 1.523 . S
C732 C716 1.368 . S
C732 C728 1.368 . S
C732 C731 1.523 . S
H733 C708 0.950 . S
H734 C710 0.950 . S
H735 C711 0.949 . S
H736 C713 0.950 . S
H737 C715 0.950 . S
C738 C739 1.349 . S
C738 C740 1.327 . S
C738 H763 0.950 . S
C739 C738 1.349 . S
C739 C755 1.349 . S
C740 C738 1.327 . S
C740 C759 1.429 . S
C740 H764 0.950 . S
C741 C758 1.574 . S
C741 C760 1.368 . S
C741 H765 0.949 . S
H742 C746 0.949 . S
C743 C744 1.349 . S
C743 C745 1.327 . S
C743 H766 0.950 . S
C744 C743 1.349 . S
C744 C756 1.349 . S
C745 C743 1.327 . S
C745 C761 1.429 . S
C745 H767 0.950 . S
C746 H742 0.949 . S
C746 C754 1.574 . S
C746 C762 1.368 . S
H747 C755 0.950 . S
H748 C753 0.950 . S
H749 C754 0.949 . S
H750 C756 0.950 . S
H751 C757 0.950 . S
H752 C758 0.949 . S
C753 H748 0.950 . S
C753 C755 1.327 . S
C753 C759 1.429 . S
C754 C746 1.574 . S
C754 H749 0.949 . S
C754 C760 1.368 . S
C755 C739 1.349 . S
C755 H747 0.950 . S
C755 C753 1.327 . S
C756 C744 1.349 . S
C756 H750 0.950 . S
C756 C757 1.327 . S
C757 H751 0.950 . S
C757 C756 1.327 . S
C757 C761 1.429 . S
C758 C741 1.574 . S
C758 H752 0.949 . S
C758 C762 1.368 . S
C759 C740 1.429 . S
C759 C753 1.429 . S
C759 C760 1.523 . S
C760 C741 1.368 . S
C760 C754 1.368 . S
C760 C759 1.523 . S
C761 C745 1.429 . S
C761 C757 1.429 . S
C761 C762 1.523 . S
C762 C746 1.368 . S
C762 C758 1.368 . S
C762 C761 1.523 . S
H763 C738 0.950 . S
H764 C740 0.950 . S
H765 C741 0.949 . S
H766 C743 0.950 . S
H767 C745 0.950 . S
C768 C769 1.349 . S
C768 C770 1.327 . S
C768 H793 0.950 . S
C769 C768 1.349 . S
C769 C785 1.349 . S
C770 C768 1.327 . S
C770 C789 1.429 . S
C770 H794 0.950 . S
C771 C788 1.574 . S
C771 C790 1.368 . S
C771 H795 0.949 . S
H772 C776 0.949 . S
C773 C774 1.349 . S
C773 C775 1.327 . S
C773 H796 0.950 . S
C774 C773 1.349 . S
C774 C786 1.349 . S
C775 C773 1.327 . S
C775 C791 1.429 . S
C775 H797 0.950 . S
C776 H772 0.949 . S
C776 C784 1.574 . S
C776 C792 1.368 . S
H777 C785 0.950 . S
H778 C783 0.950 . S
H779 C784 0.949 . S
H780 C786 0.950 . S
H781 C787 0.950 . S
H782 C788 0.949 . S
C783 H778 0.950 . S
C783 C785 1.327 . S
C783 C789 1.429 . S
C784 C776 1.574 . S
C784 H779 0.949 . S
C784 C790 1.368 . S
C785 C769 1.349 . S
C785 H777 0.950 . S
C785 C783 1.327 . S
C786 C774 1.349 . S
C786 H780 0.950 . S
C786 C787 1.327 . S
C787 H781 0.950 . S
C787 C786 1.327 . S
C787 C791 1.429 . S
C788 C771 1.574 . S
C788 H782 0.949 . S
C788 C792 1.368 . S
C789 C770 1.429 . S
C789 C783 1.429 . S
C789 C790 1.523 . S
C790 C771 1.368 . S
C790 C784 1.368 . S
C790 C789 1.523 . S
C791 C775 1.429 . S
C791 C787 1.429 . S
C791 C792 1.523 . S
C792 C776 1.368 . S
C792 C788 1.368 . S
C792 C791 1.523 . S
H793 C768 0.950 . S
H794 C770 0.950 . S
H795 C771 0.949 . S
H796 C773 0.950 . S
H797 C775 0.950 . S
C798 C799 1.349 . S
C798 C800 1.327 . S
C798 H823 0.950 . S
C799 C798 1.349 . S
C799 C815 1.349 . S
C800 C798 1.327 . S
C800 C819 1.429 . S
C800 H824 0.950 . S
C801 C818 1.574 . S
C801 C820 1.368 . S
C801 H825 0.949 . S
H802 C806 0.949 . S
C803 C804 1.349 . S
C803 C805 1.327 . S
C803 H826 0.950 . S
C804 C803 1.349 . S
C804 C816 1.349 . S
C805 C803 1.327 . S
C805 C821 1.429 . S
C805 H827 0.950 . S
C806 H802 0.949 . S
C806 C814 1.574 . S
C806 C822 1.368 . S
H807 C815 0.950 . S
H808 C813 0.950 . S
H809 C814 0.949 . S
H810 C816 0.950 . S
H811 C817 0.950 . S
H812 C818 0.949 . S
C813 H808 0.950 . S
C813 C815 1.327 . S
C813 C819 1.429 . S
C814 C806 1.574 . S
C814 H809 0.949 . S
C814 C820 1.368 . S
C815 C799 1.349 . S
C815 H807 0.950 . S
C815 C813 1.327 . S
C816 C804 1.349 . S
C816 H810 0.950 . S
C816 C817 1.327 . S
C817 H811 0.950 . S
C817 C816 1.327 . S
C817 C821 1.429 . S
C818 C801 1.574 . S
C818 H812 0.949 . S
C818 C822 1.368 . S
C819 C800 1.429 . S
C819 C813 1.429 . S
C819 C820 1.523 . S
C820 C801 1.368 . S
C820 C814 1.368 . S
C820 C819 1.523 . S
C821 C805 1.429 . S
C821 C817 1.429 . S
C821 C822 1.523 . S
C822 C806 1.368 . S
C822 C818 1.368 . S
C822 C821 1.523 . S
H823 C798 0.950 . S
H824 C800 0.950 . S
H825 C801 0.949 . S
H826 C803 0.950 . S
H827 C805 0.950 . S
C828 C829 1.349 . S
C828 C830 1.327 . S
C828 H853 0.950 . S
C829 C828 1.349 . S
C829 C845 1.349 . S
C830 C828 1.327 . S
C830 C849 1.429 . S
C830 H854 0.950 . S
C831 C848 1.574 . S
C831 C850 1.368 . S
C831 H855 0.949 . S
H832 C836 0.949 . S
C833 C834 1.349 . S
C833 C835 1.327 . S
C833 H856 0.950 . S
C834 C833 1.349 . S
C834 C846 1.349 . S
C835 C833 1.327 . S
C835 C851 1.429 . S
C835 H857 0.950 . S
C836 H832 0.949 . S
C836 C844 1.574 . S
C836 C852 1.368 . S
H837 C845 0.950 1_554 S
H838 C843 0.950 . S
H839 C844 0.949 . S
H840 C846 0.950 . S
H841 C847 0.950 . S
H842 C848 0.949 . S
C843 H838 0.950 . S
C843 C845 1.327 . S
C843 C849 1.429 . S
C844 C836 1.574 . S
C844 H839 0.949 . S
C844 C850 1.368 . S
C845 C829 1.349 . S
C845 H837 0.950 1_556 S
C845 C843 1.327 . S
C846 C834 1.349 . S
C846 H840 0.950 . S
C846 C847 1.327 . S
C847 H841 0.950 . S
C847 C846 1.327 . S
C847 C851 1.429 . S
C848 C831 1.574 . S
C848 H842 0.949 . S
C848 C852 1.368 . S
C849 C830 1.429 . S
C849 C843 1.429 . S
C849 C850 1.523 . S
C850 C831 1.368 . S
C850 C844 1.368 . S
C850 C849 1.523 . S
C851 C835 1.429 . S
C851 C847 1.429 . S
C851 C852 1.523 . S
C852 C836 1.368 . S
C852 C848 1.368 . S
C852 C851 1.523 . S
H853 C828 0.950 . S
H854 C830 0.950 . S
H855 C831 0.949 . S
H856 C833 0.950 . S
H857 C835 0.950 . S
C858 C859 1.349 . S
C858 C860 1.327 . S
C858 H883 0.950 . S
C859 C858 1.349 . S
C859 C875 1.349 . S
C860 C858 1.327 . S
C860 C879 1.429 . S
C860 H884 0.950 . S
C861 C878 1.574 . S
C861 C880 1.368 . S
C861 H885 0.949 . S
H862 C866 0.949 . S
C863 C864 1.349 . S
C863 C865 1.327 . S
C863 H886 0.950 1_554 S
C864 C863 1.349 . S
C864 C876 1.349 . S
C865 C863 1.327 . S
C865 C881 1.429 . S
C865 H887 0.950 . S
C866 H862 0.949 . S
C866 C874 1.574 . S
C866 C882 1.368 . S
H867 C875 0.950 . S
H868 C873 0.950 . S
H869 C874 0.949 . S
H870 C876 0.950 . S
H871 C877 0.950 . S
H872 C878 0.949 . S
C873 H868 0.950 . S
C873 C875 1.327 . S
C873 C879 1.429 . S
C874 C866 1.574 . S
C874 H869 0.949 . S
C874 C880 1.368 . S
C875 C859 1.349 . S
C875 H867 0.950 . S
C875 C873 1.327 . S
C876 C864 1.349 . S
C876 H870 0.950 . S
C876 C877 1.327 . S
C877 H871 0.950 . S
C877 C876 1.327 . S
C877 C881 1.429 . S
C878 C861 1.574 . S
C878 H872 0.949 . S
C878 C882 1.368 . S
C879 C860 1.429 . S
C879 C873 1.429 . S
C879 C880 1.523 . S
C880 C861 1.368 . S
C880 C874 1.368 . S
C880 C879 1.523 . S
C881 C865 1.429 . S
C881 C877 1.429 . S
C881 C882 1.523 . S
C882 C866 1.368 . S
C882 C878 1.368 . S
C882 C881 1.523 . S
H883 C858 0.950 . S
H884 C860 0.950 . S
H885 C861 0.949 . S
H886 C863 0.950 1_556 S
H887 C865 0.950 . S
C169 C9 0.830 . S
C174 C93 0.830 . S
C199 C23 0.830 . S
C204 C107 0.830 . S
C229 C121 0.830 . S
C234 C37 0.830 . S
C259 C51 0.830 . S
C264 C135 0.830 . S
C289 C65 0.830 . S
C294 C149 0.830 . S
C319 C163 0.830 . S
C324 C79 0.830 . S
C349 C120 1.636 . S
C354 C8 1.636 . S
C379 C22 1.636 . S
C384 C134 1.636 . S
C409 C148 1.636 . S
C414 C36 1.636 . S
C439 C162 1.636 . S
C444 C50 1.636 . S
C469 C64 1.636 . S
C474 C92 1.636 . S
C499 C78 1.636 . S
C504 C106 1.636 . S
C529 C160 1.355 . S
C534 C6 1.355 . S
C559 C90 1.355 . S
C564 C20 1.355 . S
C589 C34 1.355 . S
C594 C104 1.355 . S
C619 C118 1.355 . S
C624 C48 1.355 . S
C649 C132 1.355 . S
C654 C62 1.355 . S
C679 C146 1.356 . S
C684 C76 1.356 . S
C709 C7 1.222 . S
C714 C147 1.222 . S
C739 C161 1.222 . S
C744 C21 1.222 . S
C769 C35 1.222 . S
C774 C91 1.222 . S
C799 C49 1.222 . S
C804 C105 1.222 . S
C829 C63 1.222 1_556 S
C834 C119 1.222 . S
C859 C77 1.222 . S
C864 C133 1.222 1_554 S
