# Generated by pormake.
# Topology bcs, (6)-cn, num edge types: 1
# Building blocks:
#     Node 0, Type 0, BuildingBlock: BETGAK_clean_sbu_0, # of connection points: 6
#     Node 1, Type 0, BuildingBlock: BETGAK_clean_sbu_0, # of connection points: 6
#     Node 2, Type 0, BuildingBlock: BETGAK_clean_sbu_0, # of connection points: 6
#     Node 3, Type 0, BuildingBlock: BETGAK_clean_sbu_0, # of connection points: 6
#     Node 4, Type 0, BuildingBlock: BETGAK_clean_sbu_0, # of connection points: 6
#     Node 5, Type 0, BuildingBlock: BETGAK_clean_sbu_0, # of connection points: 6
#     Node 6, Type 0, BuildingBlock: BETGAK_clean_sbu_0, # of connection points: 6
#     Node 7, Type 0, BuildingBlock: BETGAK_clean_sbu_0, # of connection points: 6
#     Node 8, Type 0, BuildingBlock: BETGAK_clean_sbu_0, # of connection points: 6
#     Node 9, Type 0, BuildingBlock: BETGAK_clean_sbu_0, # of connection points: 6
#     Node 10, Type 0, BuildingBlock: BETGAK_clean_sbu_0, # of connection points: 6
#     Node 11, Type 0, BuildingBlock: BETGAK_clean_sbu_0, # of connection points: 6
#     Node 12, Type 0, BuildingBlock: BETGAK_clean_sbu_0, # of connection points: 6
#     Node 13, Type 0, BuildingBlock: BETGAK_clean_sbu_0, # of connection points: 6
#     Node 14, Type 0, BuildingBlock: BETGAK_clean_sbu_0, # of connection points: 6
#     Node 15, Type 0, BuildingBlock: BETGAK_clean_sbu_0, # of connection points: 6
#     Edge 16, Type (0, 0), BuildingBlock: UVAHIK_clean_linker_0, # of connection points: 2
#     Edge 17, Type (0, 0), BuildingBlock: UVAHIK_clean_linker_0, # of connection points: 2
#     Edge 18, Type (0, 0), BuildingBlock: UVAHIK_clean_linker_0, # of connection points: 2
#     Edge 19, Type (0, 0), BuildingBlock: UVAHIK_clean_linker_0, # of connection points: 2
#     Edge 20, Type (0, 0), BuildingBlock: UVAHIK_clean_linker_0, # of connection points: 2
#     Edge 21, Type (0, 0), BuildingBlock: UVAHIK_clean_linker_0, # of connection points: 2
#     Edge 22, Type (0, 0), BuildingBlock: UVAHIK_clean_linker_0, # of connection points: 2
#     Edge 23, Type (0, 0), BuildingBlock: UVAHIK_clean_linker_0, # of connection points: 2
#     Edge 24, Type (0, 0), BuildingBlock: UVAHIK_clean_linker_0, # of connection points: 2
#     Edge 25, Type (0, 0), BuildingBlock: UVAHIK_clean_linker_0, # of connection points: 2
#     Edge 26, Type (0, 0), BuildingBlock: UVAHIK_clean_linker_0, # of connection points: 2
#     Edge 27, Type (0, 0), BuildingBlock: UVAHIK_clean_linker_0, # of connection points: 2
#     Edge 28, Type (0, 0), BuildingBlock: UVAHIK_clean_linker_0, # of connection points: 2
#     Edge 29, Type (0, 0), BuildingBlock: UVAHIK_clean_linker_0, # of connection points: 2
#     Edge 30, Type (0, 0), BuildingBlock: UVAHIK_clean_linker_0, # of connection points: 2
#     Edge 31, Type (0, 0), BuildingBlock: UVAHIK_clean_linker_0, # of connection points: 2
#     Edge 32, Type (0, 0), BuildingBlock: UVAHIK_clean_linker_0, # of connection points: 2
#     Edge 33, Type (0, 0), BuildingBlock: UVAHIK_clean_linker_0, # of connection points: 2
#     Edge 34, Type (0, 0), BuildingBlock: UVAHIK_clean_linker_0, # of connection points: 2
#     Edge 35, Type (0, 0), BuildingBlock: UVAHIK_clean_linker_0, # of connection points: 2
#     Edge 36, Type (0, 0), BuildingBlock: UVAHIK_clean_linker_0, # of connection points: 2
#     Edge 37, Type (0, 0), BuildingBlock: UVAHIK_clean_linker_0, # of connection points: 2
#     Edge 38, Type (0, 0), BuildingBlock: UVAHIK_clean_linker_0, # of connection points: 2
#     Edge 39, Type (0, 0), BuildingBlock: UVAHIK_clean_linker_0, # of connection points: 2
#     Edge 40, Type (0, 0), BuildingBlock: UVAHIK_clean_linker_0, # of connection points: 2
#     Edge 41, Type (0, 0), BuildingBlock: UVAHIK_clean_linker_0, # of connection points: 2
#     Edge 42, Type (0, 0), BuildingBlock: UVAHIK_clean_linker_0, # of connection points: 2
#     Edge 43, Type (0, 0), BuildingBlock: UVAHIK_clean_linker_0, # of connection points: 2
#     Edge 44, Type (0, 0), BuildingBlock: UVAHIK_clean_linker_0, # of connection points: 2
#     Edge 45, Type (0, 0), BuildingBlock: UVAHIK_clean_linker_0, # of connection points: 2
#     Edge 46, Type (0, 0), BuildingBlock: UVAHIK_clean_linker_0, # of connection points: 2
#     Edge 47, Type (0, 0), BuildingBlock: UVAHIK_clean_linker_0, # of connection points: 2
#     Edge 48, Type (0, 0), BuildingBlock: UVAHIK_clean_linker_0, # of connection points: 2
#     Edge 49, Type (0, 0), BuildingBlock: UVAHIK_clean_linker_0, # of connection points: 2
#     Edge 50, Type (0, 0), BuildingBlock: UVAHIK_clean_linker_0, # of connection points: 2
#     Edge 51, Type (0, 0), BuildingBlock: UVAHIK_clean_linker_0, # of connection points: 2
#     Edge 52, Type (0, 0), BuildingBlock: UVAHIK_clean_linker_0, # of connection points: 2
#     Edge 53, Type (0, 0), BuildingBlock: UVAHIK_clean_linker_0, # of connection points: 2
#     Edge 54, Type (0, 0), BuildingBlock: UVAHIK_clean_linker_0, # of connection points: 2
#     Edge 55, Type (0, 0), BuildingBlock: UVAHIK_clean_linker_0, # of connection points: 2
#     Edge 56, Type (0, 0), BuildingBlock: UVAHIK_clean_linker_0, # of connection points: 2
#     Edge 57, Type (0, 0), BuildingBlock: UVAHIK_clean_linker_0, # of connection points: 2
#     Edge 58, Type (0, 0), BuildingBlock: UVAHIK_clean_linker_0, # of connection points: 2
#     Edge 59, Type (0, 0), BuildingBlock: UVAHIK_clean_linker_0, # of connection points: 2
#     Edge 60, Type (0, 0), BuildingBlock: UVAHIK_clean_linker_0, # of connection points: 2
#     Edge 61, Type (0, 0), BuildingBlock: UVAHIK_clean_linker_0, # of connection points: 2
#     Edge 62, Type (0, 0), BuildingBlock: UVAHIK_clean_linker_0, # of connection points: 2
#     Edge 63, Type (0, 0), BuildingBlock: UVAHIK_clean_linker_0, # of connection points: 2
# Relax obj value: 0.156
# Max RMSD: 0.240
# Mean RMSD: 0.189
data_MOF--net-bcs--node1-BETGAK_clean_sbu_0--edge1-UVAHIK_clean_linker_0
_symmetry_space_group_name_H-M    P1
_symmetry_Int_Tables_number       1
_symmetry_cell_setting            triclinic
loop_
_symmetry_equiv_pos_as_xyz
'x, y, z'
_cell_length_a     53.323275
_cell_length_b     55.332411
_cell_length_c     47.951938
_cell_angle_alpha  89.687787
_cell_angle_beta   95.975874
_cell_angle_gamma 116.788299
loop_
_atom_site_label
_atom_site_type_symbol
_atom_site_fract_x
_atom_site_fract_y
_atom_site_fract_z
_atom_type_partial_charge
La0 La 0.0542 0.01785 0.03004 0.0
La1 La 1.01357 0.99831 0.98024 0.0
C2 C 0.08784 0.02133 0.07239 0.0
C3 C 0.11251 0.01602 0.0742 0.0
C4 C 0.12641 0.01815 0.0503 0.0
C5 C 0.14712 0.00932 0.05049 0.0
C6 C 0.15419 0.99806 0.07452 0.0
C7 C 0.14103 0.997 0.09881 0.0
C8 C 0.12027 0.00587 0.0986 0.0
C9 C 0.06823 0.05073 0.98798 0.0
C10 C 0.05889 0.97819 0.98431 0.0
C11 C 0.97984 0.9944 0.93781 0.0
C12 C 0.95367 0.9972 0.93612 0.0
C13 C 0.93903 0.99283 0.95983 0.0
C14 C 0.91656 0.99922 0.95984 0.0
C15 C 0.90847 0.0103 0.93623 0.0
C16 C 0.92246 0.01358 0.91209 0.0
C17 C 0.94495 0.00711 0.91208 0.0
C18 C 0.99931 0.96573 0.0227 0.0
C19 C 1.00871 0.03797 0.02594 0.0
O20 O 0.08989 0.04211 0.05795 0.0
O21 O 0.06357 0.99999 0.06579 0.0
O22 O 0.07239 0.05857 0.01413 0.0
O23 O 0.05765 0.02525 0.98615 0.0
O24 O 0.06413 0.98728 0.01084 0.0
O25 O 0.04215 0.98399 0.9663 0.0
O26 O 0.97935 0.97352 0.95107 0.0
O27 O 1.00287 0.01665 0.94565 0.0
O28 O 0.99487 0.95769 0.99659 0.0
O29 O 1.01012 0.99118 0.02413 0.0
O30 O 1.00284 0.02818 0.99961 0.0
O31 O 1.02621 0.03303 0.04385 0.0
H32 H 0.12053 0.02572 0.03112 0.0
H33 H 0.15704 0.01062 0.03157 0.0
H34 H 0.14572 0.98806 0.11753 0.0
H35 H 0.1095 1.00379 0.11708 0.0
H36 H 0.94565 0.98543 0.97875 0.0
H37 H 0.90606 0.99624 0.97865 0.0
H38 H 0.91702 0.02246 0.89371 0.0
H39 H 0.95625 0.01089 0.89375 0.0
La40 La 0.31679 0.73015 0.27225 0.0
La41 La 0.27117 0.74112 0.24068 0.0
C42 C 0.35143 0.72537 0.30892 0.0
C43 C 0.35044 0.70415 0.32773 0.0
C44 C 0.32716 0.67834 0.32499 0.0
C45 C 0.32749 0.65755 0.34143 0.0
C46 C 0.35106 0.66237 0.36088 0.0
C47 C 0.37385 0.68859 0.36419 0.0
C48 C 0.37353 0.70931 0.34769 0.0
C49 C 0.28546 0.69508 0.23051 0.0
C50 C 0.25552 0.70739 0.29316 0.0
C51 C 0.23731 0.74545 0.20273 0.0
C52 C 0.24047 0.7665 0.18288 0.0
C53 C 0.26587 0.79055 0.18435 0.0
C54 C 0.26831 0.81143 0.1667 0.0
C55 C 0.24535 0.80855 0.14733 0.0
C56 C 0.22029 0.78396 0.14524 0.0
C57 C 0.21788 0.76308 0.16295 0.0
C58 C 0.30139 0.77585 0.28273 0.0
C59 C 0.33321 0.76598 0.22108 0.0
O60 O 0.34944 0.71935 0.28219 0.0
O61 O 0.3356 0.73691 0.31402 0.0
O62 O 0.3118 0.70147 0.23777 0.0
O63 O 0.27754 0.70644 0.24758 0.0
O64 O 0.28293 0.71539 0.29994 0.0
O65 O 0.24533 0.71083 0.26794 0.0
O66 O 0.23928 0.75269 0.22912 0.0
O67 O 0.25205 0.73242 0.19905 0.0
O68 O 0.27533 0.7699 0.27434 0.0
O69 O 0.31014 0.76488 0.26599 0.0
O70 O 0.3058 0.75764 0.21394 0.0
O71 O 0.3429 0.76149 0.24605 0.0
H72 H 0.30909 0.67415 0.30968 0.0
H73 H 0.30958 0.6376 0.33859 0.0
H74 H 0.39248 0.69284 0.37869 0.0
H75 H 0.39165 0.72916 0.34996 0.0
H76 H 0.28357 0.79342 0.19961 0.0
H77 H 0.28793 0.83004 0.16858 0.0
H78 H 0.20214 0.7813 0.13076 0.0
H79 H 0.19817 0.74456 0.16159 0.0
La80 La 0.51989 0.00685 0.53573 0.0
La81 La 0.53451 0.99761 0.47919 0.0
C82 C 0.52142 0.02261 0.58519 0.0
C83 C 0.51477 0.04359 0.59644 0.0
C84 C 0.48688 0.03709 0.60088 0.0
C85 C 0.47949 0.05749 0.60682 0.0
C86 C 0.49988 0.08482 0.60873 0.0
C87 C 0.52816 0.0912 0.60619 0.0
C88 C 0.53558 0.07073 0.60028 0.0
C89 C 0.48096 0.96472 0.50592 0.0
C90 C 0.49969 0.03238 0.48477 0.0
C91 C 0.5336 0.98187 0.42987 0.0
C92 C 0.54065 0.96109 0.41898 0.0
C93 C 0.56333 0.96884 0.40285 0.0
C94 C 0.57383 0.95065 0.39697 0.0
C95 C 0.56176 0.92439 0.40714 0.0
C96 C 0.53782 0.91608 0.42153 0.0
C97 C 0.52735 0.93424 0.42736 0.0
C98 C 0.57336 0.03985 0.50922 0.0
C99 C 0.55466 0.97205 0.53005 0.0
O100 O 0.50003 1.00134 0.57236 0.0
O101 O 0.54363 0.03136 0.57142 0.0
O102 O 0.47528 0.97963 0.52241 0.0
O103 O 0.5072 0.97272 0.50782 0.0
O104 O 0.50522 0.03329 0.51251 0.0
O105 O 0.50763 0.01832 0.46836 0.0
O106 O 0.555 1.00294 0.44294 0.0
O107 O 0.51113 0.97322 0.44328 0.0
O108 O 0.57909 0.02504 0.49265 0.0
O109 O 0.54711 0.03173 0.50714 0.0
O110 O 0.54889 0.97097 0.50235 0.0
O111 O 0.5469 0.98626 0.54644 0.0
H112 H 0.47041 0.01635 0.59847 0.0
H113 H 0.45745 0.05187 0.60846 0.0
H114 H 0.54441 0.11205 0.60807 0.0
H115 H 0.55739 0.07628 0.59764 0.0
H116 H 0.5739 0.98942 0.39611 0.0
H117 H 0.59241 0.95767 0.38593 0.0
H118 H 0.5278 0.8958 0.42916 0.0
H119 H 0.50966 0.9275 0.43951 0.0
La120 La 0.27653 0.24039 0.73925 0.0
La121 La 0.26656 0.28722 0.75861 0.0
C122 C 0.27935 0.20533 0.7086 0.0
C123 C 0.29959 0.20778 0.68906 0.0
C124 C 0.32514 0.23161 0.68956 0.0
C125 C 0.34505 0.23365 0.67181 0.0
C126 C 0.33979 0.21179 0.65342 0.0
C127 C 0.31367 0.18831 0.65232 0.0
C128 C 0.2937 0.18636 0.67002 0.0
C129 C 0.31416 0.27338 0.77859 0.0
C130 C 0.30149 0.29713 0.70769 0.0
C131 C 0.26596 0.32391 0.7888 0.0
C132 C 0.25338 0.3245 0.81442 0.0
C133 C 0.24291 0.34329 0.8175 0.0
C134 C 0.22877 0.34273 0.84056 0.0
C135 C 0.2247 0.3232 0.86082 0.0
C136 C 0.23588 0.30483 0.85809 0.0
C137 C 0.25035 0.30564 0.83516 0.0
C138 C 0.22981 0.25467 0.71847 0.0
C139 C 0.24074 0.23 0.7892 0.0
O140 O 0.28973 0.21037 0.73511 0.0
O141 O 0.26348 0.21727 0.70126 0.0
O142 O 0.30745 0.24779 0.77641 0.0
O143 O 0.30186 0.27946 0.75817 0.0
O144 O 0.29495 0.27092 0.70768 0.0
O145 O 0.29472 0.30887 0.72759 0.0
O146 O 0.24799 0.3125 0.76643 0.0
O147 O 0.2862 0.31655 0.79158 0.0
O148 O 0.237 0.28043 0.7204 0.0
O149 O 0.24136 0.24831 0.73931 0.0
O150 O 0.24908 0.25661 0.79075 0.0
O151 O 0.24599 0.21844 0.76798 0.0
H152 H 0.32995 0.24842 0.70411 0.0
H153 H 0.36485 0.25204 0.67298 0.0
H154 H 0.30918 0.17095 0.63871 0.0
H155 H 0.274 0.1679 0.66934 0.0
H156 H 0.24505 0.35796 0.80169 0.0
H157 H 0.22002 0.3569 0.84193 0.0
H158 H 0.23314 0.28969 0.87349 0.0
H159 H 0.25873 0.29125 0.8334 0.0
La160 La 0.04972 0.99256 0.5146 0.0
La161 La 1.00148 1.0036 0.48843 0.0
C162 C 0.08731 0.98797 0.54804 0.0
C163 C 0.09149 0.9687 0.56751 0.0
C164 C 0.0803 0.94089 0.56022 0.0
C165 C 0.08743 0.92378 0.5775 0.0
C166 C 0.10589 0.93399 0.60255 0.0
C167 C 0.11627 0.96168 0.61016 0.0
C168 C 0.10921 0.97876 0.59284 0.0
C169 C 1.01841 0.9602 0.47145 0.0
C170 C 0.98905 0.9644 0.53865 0.0
C171 C 0.96444 0.00914 0.45504 0.0
C172 C 0.9608 0.02959 0.43692 0.0
C173 C 0.96795 0.05587 0.44741 0.0
C174 C 0.96144 0.07376 0.43083 0.0
C175 C 0.94768 0.06592 0.40328 0.0
C176 C 0.94134 0.03988 0.39261 0.0
C177 C 0.94773 0.02197 0.40923 0.0
C178 C 0.03371 0.03669 0.531 0.0
C179 C 0.06225 0.0317 0.46441 0.0
O180 O 0.08237 0.98119 0.5212 0.0
O181 O 0.07208 0.99954 0.55526 0.0
O182 O 0.04475 0.9664 0.47845 0.0
O183 O 1.00971 0.96941 0.4901 0.0
O184 O 1.01663 0.97178 0.5426 0.0
O185 O 0.97757 0.9715 0.51614 0.0
O186 O 0.968 0.01389 0.48223 0.0
O187 O 0.98049 0.99869 0.44735 0.0
O188 O 1.00725 0.03028 0.52451 0.0
O189 O 0.04165 0.02687 0.51228 0.0
O190 O 0.03466 0.02432 0.4604 0.0
O191 O 0.07365 0.02456 0.48692 0.0
H192 H 0.06654 0.93246 0.54085 0.0
H193 H 0.07861 0.90255 0.57108 0.0
H194 H 0.13075 0.97046 0.62903 0.0
H195 H 0.11833 1.00013 0.59888 0.0
H196 H 0.97809 0.06248 0.46863 0.0
H197 H 0.96711 0.09374 0.4397 0.0
H198 H 0.93052 0.03292 0.37167 0.0
H199 H 0.94176 1.00179 0.40065 0.0
La200 La 0.22627 0.74053 0.81791 0.0
La201 La 0.24209 0.73094 0.76181 0.0
C202 C 0.21963 0.7621 0.86109 0.0
C203 C 0.20735 0.7802 0.86843 0.0
C204 C 0.18203 0.77816 0.85413 0.0
C205 C 0.17027 0.79473 0.86255 0.0
C206 C 0.1837 0.81384 0.88529 0.0
C207 C 0.20933 0.81612 0.89913 0.0
C208 C 0.22095 0.79946 0.89082 0.0
C209 C 0.18961 0.6967 0.78795 0.0
C210 C 0.21138 0.76721 0.76214 0.0
C211 C 0.24589 0.70772 0.71872 0.0
C212 C 0.2634 0.69488 0.71197 0.0
C213 C 0.29001 0.70238 0.72709 0.0
C214 C 0.30689 0.69064 0.71985 0.0
C215 C 0.29723 0.67098 0.69766 0.0
C216 C 0.27022 0.66296 0.68313 0.0
C217 C 0.25346 0.67492 0.6902 0.0
C218 C 0.27873 0.77562 0.78955 0.0
C219 C 0.26053 0.70654 0.81773 0.0
O220 O 0.20205 0.73773 0.85074 0.0
O221 O 0.24239 0.77294 0.84816 0.0
O222 O 0.19443 0.69734 0.81509 0.0
O223 O 0.20401 0.71974 0.7794 0.0
O224 O 0.21607 0.76818 0.79007 0.0
O225 O 0.21613 0.7503 0.74667 0.0
O226 O 0.25926 0.73401 0.7239 0.0
O227 O 0.22778 0.69526 0.73669 0.0
O228 O 0.27457 0.77295 0.76237 0.0
O229 O 0.26475 0.75313 0.79982 0.0
O230 O 0.25703 0.70676 0.78981 0.0
O231 O 0.25219 0.72059 0.83361 0.0
H232 H 0.17121 0.76363 0.83661 0.0
H233 H 0.15073 0.79267 0.85116 0.0
H234 H 0.22013 0.83036 0.91688 0.0
H235 H 0.24047 0.80139 0.90219 0.0
H236 H 0.29783 0.71751 0.74427 0.0
H237 H 0.32749 0.6969 0.73159 0.0
H238 H 0.26237 0.64796 0.66584 0.0
H239 H 0.23286 0.6688 0.67849 0.0
La240 La 0.54279 0.98708 0.9923 0.0
La241 La 0.51081 0.01945 0.01741 0.0
C242 C 0.55792 0.95387 0.96995 0.0
C243 C 0.57713 0.94525 0.95472 0.0
C244 C 0.60133 0.94419 0.96881 0.0
C245 C 0.61667 0.93264 0.9558 0.0
C246 C 0.60869 0.92114 0.92786 0.0
C247 C 0.58458 0.92254 0.91375 0.0
C248 C 0.56928 0.93412 0.92678 0.0
C249 C 0.57396 0.03011 0.02607 0.0
C250 C 0.54783 0.04192 0.9675 0.0
C251 C 0.48838 0.04397 0.04386 0.0
C252 C 0.47395 0.05794 0.05953 0.0
C253 C 0.44442 0.04522 0.06128 0.0
C254 C 0.43064 0.05829 0.07449 0.0
C255 C 0.44546 0.08504 0.08684 0.0
C256 C 0.47515 0.09766 0.08519 0.0
C257 C 0.48892 0.08454 0.07193 0.0
C258 C 0.48736 0.98855 0.97065 0.0
C259 C 0.50655 0.96495 0.04395 0.0
O260 O 0.56514 0.96339 0.99617 0.0
O261 O 0.54156 0.9633 0.95649 0.0
O262 O 0.58345 0.02081 0.00714 0.0
O263 O 0.54836 0.01402 0.0276 0.0
O264 O 0.54606 0.01758 0.96189 0.0
O265 O 0.53946 0.04821 0.99044 0.0
O266 O 0.47453 0.01923 0.03258 0.0
O267 O 0.51557 0.05464 0.04096 0.0
O268 O 0.4844 0.00983 0.97671 0.0
O269 O 0.50119 0.98421 0.99107 0.0
O270 O 0.50471 0.98792 0.04729 0.0
O271 O 0.51795 0.95967 0.02284 0.0
H272 H 0.60828 0.95188 0.99039 0.0
H273 H 0.63499 0.93281 0.968 0.0
H274 H 0.57669 0.91391 0.8926 0.0
H275 H 0.55058 0.93362 0.91501 0.0
H276 H 0.43162 0.02489 0.0522 0.0
H277 H 0.40808 0.04697 0.07515 0.0
H278 H 0.48805 0.11815 0.09371 0.0
H279 H 0.51152 0.09555 0.07116 0.0
La280 La 0.2975 0.25509 0.28445 0.0
La281 La 0.25929 0.2529 0.23132 0.0
C282 C 0.31755 0.2375 0.32581 0.0
C283 C 0.33308 0.221 0.33374 0.0
C284 C 0.36285 0.23264 0.33757 0.0
C285 C 0.37694 0.21758 0.34818 0.0
C286 C 0.36178 0.19038 0.35554 0.0
C287 C 0.33198 0.17877 0.35131 0.0
C288 C 0.31796 0.19377 0.3407 0.0
C289 C 0.32012 0.29592 0.25108 0.0
C290 C 0.29911 0.22342 0.22691 0.0
C291 C 0.23615 0.26743 0.1897 0.0
C292 C 0.21996 0.2833 0.18166 0.0
C293 C 0.19105 0.26988 0.17139 0.0
C294 C 0.17654 0.28436 0.16033 0.0
C295 C 0.19048 0.31285 0.15887 0.0
C296 C 0.21931 0.32629 0.16969 0.0
C297 C 0.23379 0.31181 0.18081 0.0
C298 C 0.23718 0.21301 0.26591 0.0
C299 C 0.25868 0.28562 0.28862 0.0
O300 O 0.33113 0.2617 0.31609 0.0
O301 O 0.29177 0.2246 0.31312 0.0
O302 O 0.3271 0.29738 0.27812 0.0
O303 O 0.30366 0.27144 0.24376 0.0
O304 O 0.30556 0.22865 0.25468 0.0
O305 O 0.28219 0.23241 0.21262 0.0
O306 O 0.22354 0.24427 0.20165 0.0
O307 O 0.26263 0.28086 0.20028 0.0
O308 O 0.23124 0.21007 0.23872 0.0
O309 O 0.25334 0.23765 0.27214 0.0
O310 O 0.25241 0.28055 0.26077 0.0
O311 O 0.27505 0.27607 0.30302 0.0
H312 H 0.37536 0.25361 0.33286 0.0
H313 H 0.39982 0.2274 0.35064 0.0
H314 H 0.31924 0.1582 0.35706 0.0
H315 H 0.29506 0.18414 0.33868 0.0
H316 H 0.17973 0.24797 0.17113 0.0
H317 H 0.15453 0.27302 0.152 0.0
H318 H 0.2309 0.34814 0.16949 0.0
H319 H 0.25608 0.32303 0.18816 0.0
La320 La 0.5545 0.49759 0.02212 0.0
La321 La 0.51151 0.51961 0.00636 0.0
C322 C 0.58727 0.47933 0.04468 0.0
C323 C 0.60582 0.4671 0.05704 0.0
C324 C 0.60097 0.44115 0.04751 0.0
C325 C 0.61779 0.42912 0.0589 0.0
C326 C 0.64017 0.44252 0.08038 0.0
C327 C 0.64517 0.46865 0.08982 0.0
C328 C 0.62826 0.48072 0.07834 0.0
C329 C 0.52013 0.47645 0.97574 0.0
C330 C 0.49614 0.47532 0.05089 0.0
C331 C 0.47902 0.53796 0.98332 0.0
C332 C 0.46041 0.54994 0.97046 0.0
C333 C 0.46469 0.57576 0.97977 0.0
C334 C 0.44793 0.58759 0.96759 0.0
C335 C 0.42627 0.57414 0.94546 0.0
C336 C 0.42188 0.54813 0.93629 0.0
C337 C 0.43863 0.53624 0.9486 0.0
C338 C 0.54546 0.54015 0.05314 0.0
C339 C 0.56932 0.54109 0.97707 0.0
O340 O 0.56576 0.46585 0.02585 0.0
O341 O 0.59051 0.50371 0.05111 0.0
O342 O 0.54618 0.48057 0.97932 0.0
O343 O 0.51377 0.48291 0.9981 0.0
O344 O 0.52298 0.47972 0.05247 0.0
O345 O 0.4855 0.4866 0.03164 0.0
O346 O 0.50131 0.55204 1.00114 0.0
O347 O 0.47484 0.51302 0.97836 0.0
O348 O 0.51943 0.53608 0.04935 0.0
O349 O 0.55213 0.53424 0.03065 0.0
O350 O 0.54228 0.53601 0.97512 0.0
O351 O 0.58041 0.5309 0.99706 0.0
H352 H 0.58406 0.42997 0.03105 0.0
H353 H 0.61337 0.40932 0.05048 0.0
H354 H 0.66189 0.47969 0.10646 0.0
H355 H 0.63266 0.50069 0.0863 0.0
H356 H 0.48109 0.58698 0.99664 0.0
H357 H 0.45188 0.60729 0.97588 0.0
H358 H 0.40579 0.53705 0.91916 0.0
H359 H 0.43472 0.51639 0.94075 0.0
La360 La 0.81899 0.27733 0.25029 0.0
La361 La 0.84031 0.27275 0.19515 0.0
C362 C 0.81451 0.28985 0.29903 0.0
C363 C 0.79592 0.29911 0.31083 0.0
C364 C 0.76888 0.29224 0.29712 0.0
C365 C 0.75191 0.30242 0.30757 0.0
C366 C 0.76185 0.31987 0.33169 0.0
C367 C 0.78896 0.3267 0.34537 0.0
C368 C 0.80587 0.31632 0.33501 0.0
C369 C 0.77992 0.24363 0.2125 0.0
C370 C 0.80567 0.3061 0.19742 0.0
C371 C 0.85537 0.25885 0.15226 0.0
C372 C 0.86509 0.239 0.14361 0.0
C373 C 0.89317 0.24857 0.13772 0.0
C374 C 0.90292 0.23078 0.1284 0.0
C375 C 0.88479 0.20283 0.12437 0.0
C376 C 0.85668 0.19315 0.13057 0.0
C377 C 0.84692 0.21103 0.14004 0.0
C378 C 0.87177 0.31621 0.22824 0.0
C379 C 0.84942 0.23982 0.24767 0.0
O380 O 0.80237 0.26482 0.28843 0.0
O381 O 0.83204 0.30701 0.28282 0.0
O382 O 0.77519 0.2572 0.23144 0.0
O383 O 0.80518 0.2474 0.21665 0.0
O384 O 0.81178 0.30755 0.22517 0.0
O385 O 0.81179 0.29052 0.18112 0.0
O386 O 0.87264 0.27782 0.17085 0.0
O387 O 0.82885 0.24998 0.15674 0.0
O388 O 0.86776 0.31713 0.20122 0.0
O389 O 0.8586 0.29229 0.23498 0.0
O390 O 0.85203 0.24507 0.2207 0.0
O391 O 0.83766 0.25069 0.26315 0.0
H392 H 0.76104 0.27935 0.27811 0.0
H393 H 0.73129 0.2972 0.29635 0.0
H394 H 0.79706 0.34004 0.36406 0.0
H395 H 0.82683 0.32202 0.34564 0.0
H396 H 0.90767 0.27001 0.14017 0.0
H397 H 0.92481 0.23902 0.12444 0.0
H398 H 0.84201 0.17182 0.1275 0.0
H399 H 0.8251 0.20297 0.14425 0.0
La400 La 0.04758 0.48955 0.50015 0.0
La401 La 1.01462 0.5237 0.51855 0.0
C402 C 0.07124 0.46549 0.47476 0.0
C403 C 0.08595 0.45141 0.45974 0.0
C404 C 0.11573 0.46146 0.46283 0.0
C405 C 0.12944 0.44845 0.44938 0.0
C406 C 0.11427 0.42438 0.43195 0.0
C407 C 0.08435 0.41441 0.42891 0.0
C408 C 0.07067 0.42752 0.44232 0.0
C409 C 0.063 0.51467 0.5505 0.0
C410 C 0.06196 0.54951 0.47938 0.0
C411 C 0.99076 0.5476 0.54381 0.0
C412 C 0.97573 0.56142 0.55858 0.0
C413 C 0.94613 0.55222 0.55361 0.0
C414 C 0.93205 0.56489 0.56694 0.0
C415 C 0.94667 0.58778 0.58604 0.0
C416 C 0.97644 0.59692 0.59093 0.0
C417 C 0.99048 0.58411 0.57769 0.0
C418 C 0.99932 0.49875 0.46821 0.0
C419 C 0.99848 0.46287 0.53791 0.0
O420 O 0.08493 0.48671 0.49224 0.0
O421 O 0.04391 0.45805 0.47146 0.0
O422 O 0.0658 0.49326 0.54421 0.0
O423 O 0.05427 0.52244 0.52859 0.0
O424 O 0.06057 0.52523 0.47434 0.0
O425 O 0.049 0.55483 0.49896 0.0
O426 O 0.97774 0.52823 0.52418 0.0
O427 O 1.01761 0.55342 0.54928 0.0
O428 O 0.99674 0.5203 0.47445 0.0
O429 O 1.00794 0.49089 0.49013 0.0
O430 O 0.99907 0.48687 0.54245 0.0
O431 O 1.01361 0.45825 0.52018 0.0
H432 H 0.12875 0.4797 0.47579 0.0
H433 H 0.15227 0.45778 0.45256 0.0
H434 H 0.07104 0.396 0.41638 0.0
H435 H 0.04782 0.41865 0.43912 0.0
H436 H 0.93352 0.53488 0.53932 0.0
H437 H 0.90934 0.55619 0.56228 0.0
H438 H 0.98938 0.61444 0.60483 0.0
H439 H 1.01319 0.59225 0.58237 0.0
La440 La 0.78298 0.72944 0.23608 0.0
La441 La 0.78961 0.77637 0.27402 0.0
C442 C 0.76611 0.689 0.2024 0.0
C443 C 0.773 0.68529 0.17448 0.0
C444 C 0.79056 0.70778 0.16022 0.0
C445 C 0.80026 0.70412 0.13544 0.0
C446 C 0.79251 0.67787 0.12457 0.0
C447 C 0.7734 0.65543 0.138 0.0
C448 C 0.76377 0.65915 0.16285 0.0
C449 C 0.82749 0.74924 0.27382 0.0
C450 C 0.82251 0.78749 0.21926 0.0
C451 C 0.80576 0.81649 0.30769 0.0
C452 C 0.79286 0.82166 0.33104 0.0
C453 C 0.79398 0.84722 0.33464 0.0
C454 C 0.77703 0.85101 0.3527 0.0
C455 C 0.75867 0.82922 0.36744 0.0
C456 C 0.75923 0.80414 0.36533 0.0
C457 C 0.77608 0.80035 0.34716 0.0
C458 C 0.7449 0.75662 0.23645 0.0
C459 C 0.74944 0.71822 0.29089 0.0
O460 O 0.7867 0.69525 0.22274 0.0
O461 O 0.75312 0.70403 0.20387 0.0
O462 O 0.8279 0.74094 0.2487 0.0
O463 O 0.803 0.74566 0.27676 0.0
O464 O 0.80561 0.76236 0.20961 0.0
O465 O 0.82191 0.796 0.24494 0.0
O466 O 0.79186 0.81438 0.2829 0.0
O467 O 0.81415 0.79762 0.31105 0.0
O468 O 0.74489 0.76566 0.26138 0.0
O469 O 0.76934 0.76001 0.23346 0.0
O470 O 0.76415 0.74397 0.29959 0.0
O471 O 0.75234 0.70896 0.2665 0.0
H472 H 0.79767 0.72811 0.16883 0.0
H473 H 0.81478 0.72177 0.12544 0.0
H474 H 0.76733 0.63495 0.13034 0.0
H475 H 0.75013 0.6416 0.1736 0.0
H476 H 0.80666 0.86382 0.3222 0.0
H477 H 0.77688 0.8705 0.35355 0.0
H478 H 0.74562 0.78709 0.3767 0.0
H479 H 0.77487 0.7804 0.34468 0.0
La480 La 0.788 0.26269 0.77235 0.0
La481 La 0.74411 0.27724 0.74279 0.0
C482 C 0.82074 0.25548 0.80935 0.0
C483 C 0.81639 0.2342 0.82926 0.0
C484 C 0.79073 0.21035 0.82701 0.0
C485 C 0.78727 0.18931 0.84481 0.0
C486 C 0.8094 0.19186 0.86515 0.0
C487 C 0.83465 0.21627 0.86803 0.0
C488 C 0.83811 0.2373 0.85016 0.0
C489 C 0.75746 0.23083 0.72856 0.0
C490 C 0.72612 0.23858 0.79176 0.0
C491 C 0.7096 0.28477 0.70836 0.0
C492 C 0.70883 0.30652 0.69105 0.0
C493 C 0.68759 0.31435 0.69384 0.0
C494 C 0.68608 0.33489 0.67794 0.0
C495 C 0.7057 0.34793 0.65877 0.0
C496 C 0.72695 0.34003 0.65583 0.0
C497 C 0.72861 0.31954 0.67198 0.0
C498 C 0.77595 0.3094 0.78624 0.0
C499 C 0.80536 0.29902 0.72166 0.0
O500 O 0.81743 0.24782 0.78289 0.0
O501 O 0.80812 0.27041 0.81362 0.0
O502 O 0.78317 0.23552 0.73697 0.0
O503 O 0.74888 0.24124 0.74614 0.0
O504 O 0.75327 0.24565 0.79875 0.0
O505 O 0.71704 0.24477 0.7674 0.0
O506 O 0.71203 0.28923 0.73548 0.0
O507 O 0.7251 0.27342 0.70136 0.0
O508 O 0.74994 0.30428 0.77909 0.0
O509 O 0.78345 0.29861 0.76816 0.0
O510 O 0.77841 0.29353 0.71565 0.0
O511 O 0.81495 0.29283 0.74579 0.0
H512 H 0.77366 0.20775 0.81104 0.0
H513 H 0.76752 0.17082 0.84229 0.0
H514 H 0.85219 0.21868 0.88327 0.0
H515 H 0.85798 0.25567 0.85217 0.0
H516 H 0.67205 0.30447 0.70831 0.0
H517 H 0.66917 0.34023 0.68028 0.0
H518 H 0.74236 0.34982 0.64123 0.0
H519 H 0.74527 0.3139 0.6695 0.0
La520 La 0.79879 0.75638 0.78528 0.0
La521 La 0.75955 0.75333 0.73243 0.0
C522 C 0.82033 0.73983 0.82643 0.0
C523 C 0.83736 0.72473 0.8345 0.0
C524 C 0.86605 0.73855 0.84554 0.0
C525 C 0.8809 0.72434 0.85664 0.0
C526 C 0.86755 0.69575 0.85736 0.0
C527 C 0.83893 0.682 0.84586 0.0
C528 C 0.82416 0.69618 0.83472 0.0
C529 C 0.82108 0.79481 0.74913 0.0
C530 C 0.79842 0.72281 0.72812 0.0
C531 C 0.73866 0.77012 0.69109 0.0
C532 C 0.72225 0.78581 0.68323 0.0
C533 C 0.6941 0.77256 0.6705 0.0
C534 C 0.67988 0.78735 0.65956 0.0
C535 C 0.69342 0.81598 0.66066 0.0
C536 C 0.7214 0.82918 0.67399 0.0
C537 C 0.73554 0.8144 0.68502 0.0
C538 C 0.73704 0.71458 0.76815 0.0
C539 C 0.75953 0.78662 0.78953 0.0
O540 O 0.83274 0.7644 0.81719 0.0
O541 O 0.7949 0.72591 0.81328 0.0
O542 O 0.8284 0.79834 0.77618 0.0
O543 O 0.80383 0.77028 0.74385 0.0
O544 O 0.80554 0.72871 0.75579 0.0
O545 O 0.78147 0.73179 0.71385 0.0
O546 O 0.72566 0.74578 0.70071 0.0
O547 O 0.76438 0.78358 0.70381 0.0
O548 O 0.72973 0.7115 0.74109 0.0
O549 O 0.75439 0.73909 0.77382 0.0
O550 O 0.7527 0.78094 0.76182 0.0
O551 O 0.7764 0.77756 0.80388 0.0
H552 H 0.87694 0.76049 0.84621 0.0
H553 H 0.90292 0.73593 0.86478 0.0
H554 H 0.82743 0.66016 0.84627 0.0
H555 H 0.80199 0.68464 0.82703 0.0
H556 H 0.68326 0.75064 0.66821 0.0
H557 H 0.65853 0.77625 0.64929 0.0
H558 H 0.73258 0.85109 0.67579 0.0
H559 H 0.75726 0.82554 0.69435 0.0
La560 La 0.52318 0.4857 0.4724 0.0
La561 La 0.5363 0.51825 0.52632 0.0
C562 C 0.52643 0.46574 0.4267 0.0
C563 C 0.54632 0.45687 0.41719 0.0
C564 C 0.53657 0.43537 0.39716 0.0
C565 C 0.55469 0.42516 0.38968 0.0
C566 C 0.58284 0.43621 0.40231 0.0
C567 C 0.59267 0.45818 0.42197 0.0
C568 C 0.57458 0.46848 0.42928 0.0
C569 C 0.48873 0.46172 0.51029 0.0
C570 C 0.57095 0.48708 0.51977 0.0
C571 C 0.53345 0.53869 0.57189 0.0
C572 C 0.51483 0.54915 0.58173 0.0
C573 C 0.50835 0.56766 0.56629 0.0
C574 C 0.49016 0.57688 0.57581 0.0
C575 C 0.47789 0.56758 0.60078 0.0
C576 C 0.48432 0.54891 0.61604 0.0
C577 C 0.5027 0.53988 0.60664 0.0
C578 C 0.5702 0.54207 0.48772 0.0
C579 C 0.48779 0.51616 0.47953 0.0
O580 O 0.51147 0.45128 0.44608 0.0
O581 O 0.53636 0.4918 0.43216 0.0
O582 O 0.48105 0.45893 0.48348 0.0
O583 O 0.51513 0.47608 0.51491 0.0
O584 O 0.56084 0.48326 0.49286 0.0
O585 O 0.56158 0.49775 0.53815 0.0
O586 O 0.54994 0.55261 0.55322 0.0
O587 O 0.52163 0.51258 0.56596 0.0
O588 O 0.5784 0.54478 0.51444 0.0
O589 O 0.54382 0.52776 0.48376 0.0
O590 O 0.49881 0.52105 0.50618 0.0
O591 O 0.49659 0.50499 0.46107 0.0
H592 H 0.5148 0.4262 0.38766 0.0
H593 H 0.54662 0.40852 0.37413 0.0
H594 H 0.6141 0.46695 0.43233 0.0
H595 H 0.58254 0.48514 0.4448 0.0
H596 H 0.51727 0.575 0.54687 0.0
H597 H 0.48598 0.59151 0.56371 0.0
H598 H 0.47487 0.54094 0.63507 0.0
H599 H 0.50724 0.52541 0.6187 0.0
La600 La 1.02263 0.50847 0.03779 0.0
La601 La 0.03642 0.50063 0.98024 0.0
C602 C 1.01936 0.53189 0.0807 0.0
C603 C 1.00225 0.54642 0.08364 0.0
C604 C 0.97338 0.53192 0.08695 0.0
C605 C 0.95591 0.5446 0.08397 0.0
C606 C 0.96693 0.57213 0.07789 0.0
C607 C 0.9961 0.58706 0.0763 0.0
C608 C 1.01362 0.57435 0.07926 0.0
C609 C 0.98263 0.46783 0.00685 0.0
C610 C 1.00961 0.54048 0.98475 0.0
C611 C 0.03602 0.4763 0.93612 0.0
C612 C 0.03726 0.45054 0.93241 0.0
C613 C 0.05422 0.44821 0.91325 0.0
C614 C 0.05867 0.42522 0.91245 0.0
C615 C 0.0463 0.40427 0.9309 0.0
C616 C 1.02835 0.40619 0.94925 0.0
C617 C 1.02384 0.4291 0.94998 0.0
C618 C 0.07635 0.54138 0.01113 0.0
C619 C 0.04949 0.4691 0.03325 0.0
O620 O 1.00516 0.50559 0.07558 0.0
O621 O 0.03988 0.54316 0.06477 0.0
O622 O 0.98666 0.46764 0.03401 0.0
O623 O 0.99905 0.49064 0.99899 0.0
O624 O 1.01013 0.53604 0.01216 0.0
O625 O 1.01835 0.52801 0.96743 0.0
O626 O 0.05898 0.49609 0.94892 0.0
O627 O 1.01307 0.47445 0.94557 0.0
O628 O 0.07202 0.54162 0.98392 0.0
O629 O 0.06007 0.5185 0.0191 0.0
O630 O 0.04411 0.4699 1.00552 0.0
O631 O 0.04563 0.48537 0.05061 0.0
H632 H 0.96393 0.51041 0.09048 0.0
H633 H 0.9335 0.53248 0.08519 0.0
H634 H 1.0053 0.60845 0.07224 0.0
H635 H 0.03584 0.58617 0.07688 0.0
H636 H 0.0649 0.46461 0.89971 0.0
H637 H 0.07293 0.42448 0.89833 0.0
H638 H 1.01839 0.39029 0.96353 0.0
H639 H 1.01062 0.43042 0.96501 0.0
C640 C 0.21114 0.18384 0.80616 0.0
C641 C 0.22285 0.21219 0.81 0.0
C642 C 0.19363 0.16671 0.82498 0.0
C643 C 0.14939 0.16498 0.88085 0.0
H644 H 0.15375 0.09835 0.89827 0.0
C645 C 0.09525 0.0972 0.97088 0.0
C646 C 0.08258 0.06896 0.96585 0.0
C647 C 0.11089 0.11467 0.95109 0.0
C648 C 0.152 0.1167 0.89337 0.0
H649 H 0.22515 0.24459 0.83695 0.0
H650 H 0.19519 0.21475 0.87027 0.0
H651 H 0.1848 0.12915 0.86648 0.0
H652 H 0.07563 0.03685 0.93582 0.0
H653 H 0.10306 0.06738 0.90119 0.0
H654 H 0.11689 0.15259 0.90831 0.0
C655 C 0.19918 0.20574 0.85233 0.0
C656 C 0.16983 0.13443 0.87509 0.0
C657 C 0.21661 0.22293 0.83332 0.0
C658 C 0.08522 0.05853 0.94029 0.0
C659 C 0.10108 0.07601 0.92056 0.0
C660 C 0.13168 0.1473 0.89933 0.0
C661 C 0.18743 0.17735 0.8484 0.0
C662 C 0.16874 0.15879 0.86845 0.0
C663 C 0.11439 0.1043 0.92587 0.0
C664 C 0.13272 0.1229 0.90575 0.0
H665 H 0.21518 0.17471 0.78834 0.0
H666 H 0.1846 0.14503 0.82083 0.0
H667 H 0.14756 0.18328 0.87596 0.0
H668 H 0.09354 0.10581 0.9904 0.0
H669 H 0.121 0.1363 0.95596 0.0
C670 C 0.1927 0.9876 0.09667 0.0
C671 C 0.17316 0.98517 0.0735 0.0
C672 C 0.20777 0.97248 0.09708 0.0
C673 C 0.19786 0.90746 0.06978 0.0
H674 H 0.27344 0.93018 0.10749 0.0
C675 C 0.23483 0.82838 0.10311 0.0
C676 C 0.24647 0.83189 0.13133 0.0
C677 C 0.23242 0.8497 0.08938 0.0
C678 C 0.25233 0.92354 0.09682 0.0
H679 H 0.15516 0.96604 0.032 0.0
H680 H 0.18166 0.93987 0.03264 0.0
H681 H 0.25715 0.96412 0.09536 0.0
H682 H 0.26578 0.86073 0.16692 0.0
H683 H 0.26119 0.89763 0.14328 0.0
H684 H 0.19224 0.86689 0.07265 0.0
C685 C 0.18518 0.95333 0.05054 0.0
C686 C 0.24305 0.94296 0.08986 0.0
C687 C 0.17016 0.96848 0.05011 0.0
C688 C 0.25703 0.8575 0.14507 0.0
C689 C 0.25447 0.87872 0.13143 0.0
C690 C 0.20705 0.88807 0.07686 0.0
C691 C 0.20351 0.95459 0.07436 0.0
C692 C 0.2154 0.935 0.07708 0.0
C693 C 0.24139 0.87485 0.1037 0.0
C694 C 0.23404 0.8958 0.09132 0.0
H695 H 0.1957 1.00057 0.11483 0.0
H696 H 0.22156 0.97371 0.11584 0.0
H697 H 0.17631 0.90063 0.06025 0.0
H698 H 0.22691 0.80894 0.09191 0.0
H699 H 0.22266 0.84621 0.06786 0.0
C700 C 0.46805 0.92423 0.47482 0.0
C701 C 0.46019 0.94251 0.48674 0.0
C702 C 0.44963 0.90476 0.45438 0.0
C703 C 0.41582 0.88306 0.39741 0.0
H704 H 0.33691 0.83577 0.4045 0.0
C705 C 0.34698 0.7993 0.31347 0.0
C706 C 0.31871 0.79409 0.30688 0.0
C707 C 0.36346 0.81644 0.33647 0.0
C708 C 0.3588 0.84909 0.40202 0.0
H709 H 0.42645 0.9539 0.48827 0.0
H710 H 0.39383 0.91941 0.45256 0.0
H711 H 0.3667 0.8673 0.44346 0.0
H712 H 0.2854 0.80272 0.31881 0.0
H713 H 0.31445 0.83355 0.35845 0.0
H714 H 0.40807 0.86572 0.35587 0.0
C715 C 0.41438 0.92036 0.45885 0.0
C716 C 0.37583 0.86702 0.42438 0.0
C717 C 0.43298 0.94005 0.47919 0.0
C718 C 0.30717 0.8064 0.32355 0.0
C719 C 0.32376 0.82385 0.34639 0.0
C720 C 0.39878 0.86543 0.37498 0.0
C721 C 0.42285 0.903 0.44581 0.0
C722 C 0.40453 0.88401 0.42231 0.0
C723 C 0.35214 0.82912 0.3531 0.0
C724 C 0.37008 0.84808 0.37703 0.0
H725 H 0.48867 0.92533 0.48101 0.0
H726 H 0.45645 0.89125 0.44503 0.0
H727 H 0.4378 0.8963 0.39512 0.0
H728 H 0.35641 0.7901 0.30089 0.0
H729 H 0.38504 0.8196 0.34127 0.0
C730 C 0.3899 0.22084 0.65208 0.0
C731 C 0.36255 0.21196 0.63805 0.0
C732 C 0.40975 0.21536 0.64035 0.0
C733 C 0.4496 0.20134 0.61116 0.0
H734 H 0.41088 0.12389 0.59354 0.0
C735 C 0.50114 0.1289 0.59403 0.0
C736 C 0.4909 0.10638 0.61103 0.0
C737 C 0.48922 0.14686 0.59282 0.0
C738 C 0.42195 0.14559 0.59809 0.0
H739 H 0.33566 0.1935 0.59931 0.0
H740 H 0.3704 0.18381 0.57879 0.0
H741 H 0.38349 0.14882 0.59555 0.0
H742 H 0.46185 0.08629 0.64171 0.0
H743 H 0.44073 0.1173 0.63912 0.0
H744 H 0.48806 0.19734 0.61513 0.0
C745 C 0.37629 0.19457 0.59907 0.0
C746 C 0.40634 0.15998 0.59889 0.0
C747 C 0.35639 0.20001 0.61084 0.0
C748 C 0.46975 0.10309 0.62799 0.0
C749 C 0.4577 0.1208 0.62654 0.0
C750 C 0.4653 0.18687 0.61011 0.0
C751 C 0.40259 0.20088 0.6144 0.0
C752 C 0.41987 0.18779 0.60654 0.0
C753 C 0.46678 0.14233 0.60837 0.0
C754 C 0.45139 0.15871 0.60472 0.0
H755 H 0.39529 0.22997 0.67315 0.0
H756 H 0.42971 0.22029 0.65283 0.0
H757 H 0.46056 0.2228 0.61694 0.0
H758 H 0.51727 0.13184 0.58054 0.0
H759 H 0.49653 0.16342 0.57874 0.0
C760 C 0.11916 0.91906 0.64964 0.0
C761 C 0.11518 0.9162 0.62009 0.0
C762 C 0.12899 0.90317 0.66589 0.0
C763 C 0.16778 0.8619 0.66095 0.0
H764 H 0.13883 0.83381 0.73126 0.0
C765 C 0.19466 0.78289 0.71794 0.0
C766 C 0.1997 0.78454 0.74745 0.0
C767 C 0.18431 0.79923 0.70355 0.0
C768 C 0.14745 0.84176 0.71186 0.0
H769 H 0.11861 0.89402 0.58472 0.0
H770 H 0.13517 0.86618 0.61288 0.0
H771 H 0.12062 0.86118 0.70406 0.0
H772 H 0.19732 0.80482 0.7849 0.0
H773 H 0.17939 0.8336 0.75972 0.0
H774 H 0.19461 0.84262 0.66863 0.0
C775 C 0.13097 0.88093 0.62359 0.0
C776 C 0.13694 0.85749 0.69618 0.0
C777 C 0.12106 0.89672 0.60736 0.0
C778 C 0.19375 0.80295 0.76219 0.0
C779 C 0.1833 0.81938 0.74771 0.0
C780 C 0.17827 0.84625 0.67659 0.0
C781 C 0.13531 0.88401 0.65312 0.0
C782 C 0.14678 0.86762 0.67033 0.0
C783 C 0.17864 0.81791 0.7181 0.0
C784 C 0.16811 0.83567 0.70218 0.0
H785 H 0.11462 0.93359 0.66031 0.0
H786 H 0.13219 0.90635 0.6885 0.0
H787 H 0.17644 0.86978 0.64154 0.0
H788 H 0.19875 0.76892 0.7057 0.0
H789 H 0.18051 0.79696 0.68087 0.0
C790 C 0.31324 0.82451 0.79312 0.0
C791 C 0.30164 0.79922 0.80533 0.0
C792 C 0.33576 0.84678 0.8077 0.0
C793 C 0.39614 0.8655 0.85941 0.0
H794 H 0.38716 0.92891 0.87853 0.0
C795 C 0.46835 0.94282 0.94731 0.0
C796 C 0.47214 0.96956 0.94652 0.0
C797 C 0.45065 0.92368 0.92625 0.0
C798 C 0.39044 0.91174 0.87283 0.0
H799 H 0.30417 0.77711 0.8421 0.0
H800 H 0.34414 0.81602 0.86734 0.0
H801 H 0.34962 0.89217 0.84888 0.0
H802 H 0.46241 0.99803 0.92238 0.0
H803 H 0.43249 0.96495 0.88474 0.0
H804 H 0.43705 0.88496 0.88278 0.0
C805 C 0.33566 0.81857 0.84662 0.0
C806 C 0.36879 0.89063 0.85602 0.0
C807 C 0.31277 0.79646 0.83231 0.0
C808 C 0.45946 0.97737 0.92352 0.0
C809 C 0.44216 0.95835 0.90213 0.0
C810 C 0.41807 0.88683 0.87572 0.0
C811 C 0.34731 0.84385 0.83439 0.0
C812 C 0.37124 0.86714 0.84978 0.0
C813 C 0.4368 0.93105 0.90368 0.0
C814 C 0.41521 0.90994 0.88327 0.0
H815 H 0.30489 0.82704 0.77233 0.0
H816 H 0.34446 0.86617 0.79799 0.0
H817 H 0.39851 0.8476 0.85448 0.0
H818 H 0.47793 0.93634 0.96492 0.0
H819 H 0.44683 0.90286 0.92849 0.0
C820 C 0.40098 0.09203 0.09412 0.0
C821 C 0.4302 0.09942 0.10102 0.0
C822 C 0.387 0.10508 0.10706 0.0
C823 C 0.39593 0.15434 0.16907 0.0
H824 H 0.3275 0.15291 0.13131 0.0
C825 C 0.33099 0.19917 0.22697 0.0
C826 C 0.31299 0.2085 0.2118 0.0
C827 C 0.34467 0.18616 0.21356 0.0
C828 C 0.34668 0.15395 0.14248 0.0
H829 H 0.46661 0.12767 0.12856 0.0
H830 H 0.44299 0.15023 0.15017 0.0
H831 H 0.35164 0.13139 0.10874 0.0
H832 H 0.29612 0.21057 0.16931 0.0
H833 H 0.31972 0.18843 0.14614 0.0
H834 H 0.39138 0.1774 0.20252 0.0
C835 C 0.43041 0.1339 0.13478 0.0
C836 C 0.36068 0.14099 0.12937 0.0
C837 C 0.4444 0.12088 0.1218 0.0
C838 C 0.30944 0.20386 0.18227 0.0
C839 C 0.32317 0.1908 0.16879 0.0
C840 C 0.38193 0.16725 0.18218 0.0
C841 C 0.40118 0.12648 0.1279 0.0
C842 C 0.38583 0.1407 0.14219 0.0
C843 C 0.3414 0.18157 0.18397 0.0
C844 C 0.35676 0.16751 0.16941 0.0
H845 H 0.38855 0.07613 0.07825 0.0
H846 H 0.36466 0.09788 0.10072 0.0
H847 H 0.41477 0.1549 0.18054 0.0
H848 H 0.3347 0.20195 0.24962 0.0
H849 H 0.35771 0.17939 0.22684 0.0
C850 C 0.10846 0.05302 0.443 0.0
C851 C 0.08084 0.04983 0.44402 0.0
C852 C 0.12566 0.06986 0.42353 0.0
C853 C 0.13652 0.12895 0.38106 0.0
H854 H 0.17837 0.10476 0.33653 0.0
C855 C 0.22209 0.20202 0.31422 0.0
C856 C 0.22083 0.19325 0.28639 0.0
C857 C 0.20551 0.18412 0.33329 0.0
C858 C 0.16678 0.11181 0.34876 0.0
H859 H 0.04991 0.06225 0.42527 0.0
H860 H 0.08007 0.09197 0.39194 0.0
H861 H 0.1486 0.07453 0.37013 0.0
H862 H 0.20158 0.15847 0.25705 0.0
H863 H 0.17299 0.12692 0.29061 0.0
H864 H 0.15487 0.1663 0.36001 0.0
C865 C 0.08838 0.0813 0.40607 0.0
C866 C 0.14987 0.09455 0.36818 0.0
C867 C 0.07101 0.06412 0.42516 0.0
C868 C 0.20305 0.16587 0.27832 0.0
C869 C 0.18674 0.14779 0.29758 0.0
C870 C 0.15378 0.14635 0.36204 0.0
C871 C 0.11592 0.08437 0.4049 0.0
C872 C 0.13438 0.10284 0.3845 0.0
C873 C 0.18746 0.15678 0.32525 0.0
C874 C 0.1691 0.13803 0.34554 0.0
H875 H 0.11673 0.0423 0.4571 0.0
H876 H 0.14681 0.07186 0.42336 0.0
H877 H 0.12507 0.13611 0.39336 0.0
H878 H 0.23552 0.22296 0.3212 0.0
H879 H 0.20687 0.19171 0.35446 0.0
C880 C 0.91418 0.19263 0.09281 0.0
C881 C 0.89527 0.18418 0.11337 0.0
C882 C 0.92478 0.17569 0.08299 0.0
C883 C 0.93576 0.11552 0.10156 0.0
H884 H 0.95022 0.1169 0.02385 0.0
C885 C 1.0019 0.06592 0.06287 0.0
C886 C 0.99446 0.05361 0.0357 0.0
C887 C 0.98864 0.08079 0.07205 0.0
C888 C 0.94607 0.11596 0.04556 0.0
H889 H 0.87261 0.15085 0.13942 0.0
H890 H 0.8905 0.12102 0.12175 0.0
H891 H 0.92826 0.14365 0.03983 0.0
H892 H 0.96689 0.04718 0.99694 0.0
H893 H 0.94349 0.07264 0.01308 0.0
H894 H 0.95293 0.08729 0.10713 0.0
C895 C 0.89752 0.14102 0.11355 0.0
C896 C 0.93378 0.13167 0.05486 0.0
C897 C 0.88694 0.15804 0.12347 0.0
C898 C 0.97328 0.05645 0.01798 0.0
C899 C 0.95992 0.07122 0.02721 0.0
C900 C 0.94795 0.09971 0.09224 0.0
C901 C 0.91671 0.14965 0.09325 0.0
C902 C 0.92867 0.1319 0.08306 0.0
C903 C 0.96743 0.08367 0.05438 0.0
C904 C 0.95353 0.09986 0.06414 0.0
H905 H 0.92079 0.2124 0.08415 0.0
H906 H 0.93975 0.18328 0.06764 0.0
H907 H 0.93244 0.11529 0.12348 0.0
H908 H 1.0182 0.06431 0.07706 0.0
H909 H 0.99544 0.09043 0.09291 0.0
C910 C 0.098 0.59698 0.4739 0.0
C911 C 0.07882 0.57136 0.46186 0.0
C912 C 0.11668 0.61643 0.45751 0.0
C913 C 0.12888 0.6388 0.38719 0.0
H914 H 0.2068 0.65229 0.40542 0.0
C915 C 0.20726 0.67693 0.30532 0.0
C916 C 0.23585 0.69403 0.31402 0.0
C917 C 0.1883 0.66513 0.32506 0.0
C918 C 0.18533 0.64937 0.40029 0.0
H919 H 0.06265 0.5462 0.42343 0.0
H920 H 0.09458 0.5806 0.39455 0.0
H921 H 0.17217 0.62794 0.43764 0.0
H922 H 0.26716 0.71252 0.35004 0.0
H923 H 0.23389 0.69275 0.38463 0.0
H924 H 0.14171 0.66025 0.35001 0.0
C925 C 0.09548 0.58549 0.4166 0.0
C926 C 0.16555 0.63538 0.41876 0.0
C927 C 0.0774 0.56587 0.43307 0.0
C928 C 0.24522 0.69915 0.34281 0.0
C929 C 0.22615 0.68776 0.3626 0.0
C930 C 0.14873 0.65327 0.36898 0.0
C931 C 0.11567 0.61062 0.42884 0.0
C932 C 0.13711 0.62944 0.41194 0.0
C933 C 0.19741 0.67064 0.35397 0.0
C934 C 0.17704 0.658 0.37487 0.0
H935 H 0.09947 0.60146 0.49615 0.0
H936 H 0.13226 0.63573 0.46725 0.0
H937 H 0.10696 0.63437 0.38165 0.0
H938 H 0.19954 0.67248 0.28321 0.0
H939 H 0.16655 0.65146 0.31758 0.0
C940 C 0.57441 0.95589 0.57265 0.0
C941 C 0.56896 0.95599 0.54325 0.0
C942 C 0.58754 0.94072 0.58507 0.0
C943 C 0.6315 0.90601 0.56976 0.0
H944 H 0.60872 0.87148 0.63957 0.0
C945 C 0.69403 0.85596 0.6335 0.0
C946 C 0.67887 0.83196 0.64735 0.0
C947 C 0.68057 0.87073 0.62077 0.0
C948 C 0.61532 0.88077 0.61997 0.0
H949 H 0.57343 0.93978 0.50403 0.0
H950 H 0.59608 0.91339 0.52554 0.0
H951 H 0.58547 0.89705 0.61751 0.0
H952 H 0.63716 0.80521 0.65856 0.0
H953 H 0.61377 0.83066 0.63631 0.0
H954 H 0.66109 0.88943 0.57203 0.0
C955 C 0.59047 0.9253 0.53914 0.0
C956 C 0.60212 0.89584 0.60739 0.0
C957 C 0.57724 0.94042 0.52671 0.0
C958 C 0.64969 0.82337 0.64801 0.0
C959 C 0.63625 0.83824 0.63541 0.0
C960 C 0.6448 0.89107 0.58242 0.0
C961 C 0.59583 0.9251 0.56859 0.0
C962 C 0.60994 0.90878 0.58203 0.0
C963 C 0.65141 0.86219 0.62147 0.0
C964 C 0.63699 0.87814 0.60779 0.0
H965 H 0.56854 0.9676 0.58624 0.0
H966 H 0.59155 0.9416 0.60773 0.0
H967 H 0.6385 0.91575 0.55045 0.0
H968 H 0.71639 0.86326 0.63207 0.0
H969 H 0.69323 0.88911 0.61062 0.0
C970 C 0.47029 0.44858 0.95497 0.0
C971 C 0.49934 0.45846 0.95323 0.0
C972 C 0.45061 0.42884 0.93541 0.0
C973 C 0.44187 0.39752 0.86529 0.0
H974 H 0.37964 0.33645 0.89368 0.0
C975 C 0.34689 0.32112 0.79313 0.0
C976 C 0.33631 0.29353 0.79865 0.0
C977 C 0.36755 0.34073 0.81195 0.0
C978 C 0.39708 0.35324 0.88553 0.0
H979 H 0.53075 0.45657 0.92928 0.0
H980 H 0.49639 0.42206 0.89508 0.0
H981 H 0.41407 0.37283 0.92626 0.0
H982 H 0.33907 0.26458 0.82779 0.0
H983 H 0.37563 0.29919 0.86108 0.0
H984 H 0.42508 0.37786 0.82463 0.0
C985 C 0.48877 0.42954 0.91145 0.0
C986 C 0.41653 0.37422 0.90408 0.0
C987 C 0.50842 0.44921 0.93103 0.0
C988 C 0.34694 0.28578 0.8232 0.0
C989 C 0.36766 0.30552 0.84221 0.0
C990 C 0.42241 0.3766 0.84676 0.0
C991 C 0.45969 0.41879 0.91376 0.0
C992 C 0.43901 0.39663 0.8941 0.0
C993 C 0.37813 0.33318 0.83669 0.0
C994 C 0.39971 0.35438 0.85667 0.0
H995 H 0.46279 0.45547 0.97191 0.0
H996 H 0.42829 0.42123 0.93738 0.0
H997 H 0.45891 0.41458 0.857 0.0
H998 H 0.33917 0.32762 0.77422 0.0
H999 H 0.37493 0.36188 0.80732 0.0
C1000 C 0.85132 0.76636 0.32142 0.0
C1001 C 0.85219 0.76798 0.29238 0.0
C1002 C 0.87153 0.78712 0.33955 0.0
C1003 C 0.90071 0.84059 0.37118 0.0
H1004 H 0.97839 0.88523 0.35766 0.0
C1005 C 0.97197 0.93503 0.44221 0.0
C1006 C 1.00033 0.94056 0.44861 0.0
C1007 C 0.95475 0.91569 0.42104 0.0
C1008 C 0.95684 0.87281 0.36196 0.0
H1009 H 0.87507 0.79167 0.25918 0.0
H1010 H 0.90989 0.82881 0.29076 0.0
H1011 H 0.94835 0.84633 0.32611 0.0
H1012 H 0.03316 0.93051 0.43804 0.0
H1013 H 1.00292 0.89576 0.40232 0.0
H1014 H 0.90946 0.86584 0.40786 0.0
C1015 C 0.8942 0.8112 0.29977 0.0
C1016 C 0.93947 0.85067 0.34359 0.0
C1017 C 0.87431 0.78996 0.28163 0.0
C1018 C 1.01132 0.92666 0.43342 0.0
C1019 C 0.994 0.90691 0.4127 0.0
C1020 C 0.91818 0.86232 0.3898 0.0
C1021 C 0.8925 0.81038 0.32892 0.0
C1022 C 0.91123 0.83413 0.34812 0.0
C1023 C 0.96541 0.901 0.40634 0.0
C1024 C 0.94653 0.87868 0.38556 0.0
H1025 H 0.83433 0.74947 0.33002 0.0
H1026 H 0.8701 0.78529 0.36189 0.0
H1027 H 0.87887 0.82886 0.37497 0.0
H1028 H 0.963 0.94547 0.45369 0.0
H1029 H 0.93304 0.91217 0.41638 0.0
C1030 C 0.45919 0.58243 0.63977 0.0
C1031 C 0.45852 0.57736 0.61092 0.0
C1032 C 0.44105 0.59169 0.64931 0.0
C1033 C 0.40123 0.62881 0.62761 0.0
H1034 H 0.35868 0.59574 0.69001 0.0
C1035 C 0.34386 0.67686 0.68502 0.0
C1036 C 0.31568 0.65957 0.68901 0.0
C1037 C 0.36103 0.66634 0.67569 0.0
C1038 C 0.37038 0.60508 0.67251 0.0
H1039 H 0.43782 0.57766 0.56953 0.0
H1040 H 0.4067 0.59453 0.58625 0.0
H1041 H 0.38902 0.5779 0.67285 0.0
H1042 H 0.28347 0.61777 0.68706 0.0
H1043 H 0.31371 0.59927 0.67097 0.0
H1044 H 0.38279 0.6561 0.62738 0.0
C1045 C 0.42138 0.59136 0.60138 0.0
C1046 C 0.38784 0.59502 0.66285 0.0
C1047 C 0.43929 0.58182 0.59184 0.0
C1048 C 0.30509 0.63152 0.68397 0.0
C1049 C 0.32239 0.62095 0.67497 0.0
C1050 C 0.38407 0.63908 0.6375 0.0
C1051 C 0.42209 0.59636 0.6302 0.0
C1052 C 0.40339 0.60679 0.64029 0.0
C1053 C 0.35042 0.63831 0.67049 0.0
C1054 C 0.3685 0.6273 0.66003 0.0
H1055 H 0.47407 0.5797 0.65502 0.0
H1056 H 0.44225 0.59572 0.67162 0.0
H1057 H 0.41317 0.63836 0.61032 0.0
H1058 H 0.35244 0.69859 0.68855 0.0
H1059 H 0.38264 0.68011 0.6726 0.0
C1060 C 0.56879 0.05751 0.92258 0.0
C1061 C 0.56102 0.06345 0.94781 0.0
C1062 C 0.58326 0.07818 0.90501 0.0
C1063 C 0.60303 0.12448 0.86557 0.0
H1064 H 0.6674 0.1877 0.90189 0.0
C1065 C 0.67636 0.21247 0.80288 0.0
C1066 C 0.70544 0.2213 0.81036 0.0
C1067 C 0.65673 0.19522 0.81994 0.0
C1068 C 0.64948 0.17017 0.89148 0.0
H1069 H 0.56147 0.09567 0.97387 0.0
H1070 H 0.58669 0.13172 0.94304 0.0
H1071 H 0.63559 0.15307 0.93044 0.0
H1072 H 0.73679 0.21945 0.84189 0.0
H1073 H 0.70248 0.18913 0.87145 0.0
H1074 H 0.61754 0.14107 0.82662 0.0
C1075 C 0.58179 0.11107 0.93708 0.0
C1076 C 0.63111 0.15051 0.9078 0.0
C1077 C 0.56722 0.09039 0.95464 0.0
C1078 C 0.71453 0.21301 0.83552 0.0
C1079 C 0.6949 0.19579 0.85257 0.0
C1080 C 0.62136 0.14417 0.84925 0.0
C1081 C 0.5903 0.1052 0.91232 0.0
C1082 C 0.60799 0.12726 0.89499 0.0
C1083 C 0.6658 0.18654 0.84482 0.0
C1084 C 0.64503 0.16696 0.86207 0.0
H1085 H 0.56426 0.03697 0.91662 0.0
H1086 H 0.58984 0.07309 0.8862 0.0
H1087 H 0.58521 0.10685 0.85517 0.0
H1088 H 0.66869 0.21863 0.7837 0.0
H1089 H 0.63443 0.18861 0.81363 0.0
C1090 C 0.06909 0.43512 0.02784 0.0
C1091 C 0.0622 0.45124 0.04519 0.0
C1092 C 0.08213 0.41946 0.03939 0.0
C1093 C 0.09677 0.39086 0.10745 0.0
H1094 H 0.15282 0.38241 0.06883 0.0
C1095 C 0.14653 0.3203 0.14826 0.0
C1096 C 0.17529 0.32832 0.14558 0.0
C1097 C 0.13242 0.33457 0.13568 0.0
C1098 C 0.13739 0.38464 0.08013 0.0
H1099 H 0.06393 0.46312 0.08865 0.0
H1100 H 0.08653 0.43634 0.1085 0.0
H1101 H 0.1293 0.40821 0.04794 0.0
H1102 H 0.21127 0.35801 0.12666 0.0
H1103 H 0.18702 0.38295 0.10535 0.0
H1104 H 0.10526 0.36782 0.13991 0.0
C1105 C 0.08156 0.43532 0.08594 0.0
C1106 C 0.12351 0.39927 0.06786 0.0
C1107 C 0.06862 0.45095 0.07444 0.0
C1108 C 0.18931 0.35119 0.12971 0.0
C1109 C 0.17517 0.3654 0.11704 0.0
C1110 C 0.11058 0.37619 0.11966 0.0
C1111 C 0.08868 0.41929 0.0687 0.0
C1112 C 0.10302 0.40283 0.08135 0.0
C1113 C 0.14643 0.35741 0.11977 0.0
C1114 C 0.13128 0.37287 0.10634 0.0
H1115 H 0.06464 0.43473 1.00525 0.0
H1116 H 0.08687 0.4073 0.02524 0.0
H1117 H 0.08095 0.39261 0.11853 0.0
H1118 H 0.13485 0.30305 0.16041 0.0
H1119 H 0.11029 0.32738 0.13819 0.0
C1120 C 0.57476 0.55901 0.92851 0.0
C1121 C 0.58716 0.5581 0.95559 0.0
C1122 C 0.59123 0.57494 0.90815 0.0
C1123 C 0.66742 0.61641 0.89327 0.0
H1124 H 0.6321 0.6421 0.8335 0.0
C1125 C 0.72868 0.70212 0.81826 0.0
C1126 C 0.72083 0.69549 0.7893 0.0
C1127 C 0.71305 0.68466 0.83823 0.0
C1128 C 0.64224 0.63495 0.84998 0.0
H1129 H 0.6268 0.5737 0.98252 0.0
H1130 H 0.65532 0.60266 0.94788 0.0
H1131 H 0.6041 0.61447 0.86905 0.0
H1132 H 0.68978 0.6654 0.75879 0.0
H1133 H 0.66179 0.63545 0.79369 0.0
H1134 H 0.70599 0.63849 0.87459 0.0
C1135 C 0.63299 0.59027 0.94165 0.0
C1136 C 0.6261 0.61879 0.87044 0.0
C1137 C 0.61655 0.57373 0.96181 0.0
C1138 C 0.6966 0.67107 0.78087 0.0
C1139 C 0.68051 0.65394 0.80086 0.0
C1140 C 0.68369 0.63317 0.87318 0.0
C1141 C 0.62069 0.5912 0.91431 0.0
C1142 C 0.63826 0.60896 0.89247 0.0
C1143 C 0.68859 0.66047 0.82981 0.0
C1144 C 0.67128 0.64251 0.85116 0.0
H1145 H 0.55223 0.54698 0.92283 0.0
H1146 H 0.58064 0.57411 0.88742 0.0
H1147 H 0.67786 0.60908 0.90919 0.0
H1148 H 0.74673 0.72103 0.82558 0.0
H1149 H 0.71966 0.69045 0.86032 0.0
C1150 C 0.78389 0.33815 0.2016 0.0
C1151 C 0.79043 0.32147 0.18466 0.0
C1152 C 0.76861 0.35169 0.19007 0.0
C1153 C 0.72004 0.35084 0.12698 0.0
H1154 H 0.73638 0.42185 0.15726 0.0
C1155 C 0.64592 0.40086 0.09556 0.0
C1156 C 0.65794 0.42917 0.09271 0.0
C1157 C 0.66239 0.38824 0.10641 0.0
C1158 C 0.73155 0.40212 0.14829 0.0
H1159 H 0.78572 0.30637 0.14186 0.0
H1160 H 0.75942 0.33007 0.12176 0.0
H1161 H 0.76462 0.39968 0.1759 0.0
H1162 H 0.69748 0.46608 0.09935 0.0
H1163 H 0.726 0.44422 0.11827 0.0
H1164 H 0.68724 0.35345 0.09908 0.0
C1165 C 0.76586 0.33249 0.14415 0.0
C1166 C 0.74765 0.38915 0.1593 0.0
C1167 C 0.78125 0.31898 0.1557 0.0
C1168 C 0.68712 0.44436 0.10145 0.0
C1169 C 0.7036 0.43171 0.11237 0.0
C1170 C 0.70387 0.36377 0.11603 0.0
C1171 C 0.75916 0.34906 0.16113 0.0
C1172 C 0.74218 0.36322 0.14893 0.0
C1173 C 0.69159 0.40337 0.11496 0.0
C1174 C 0.70924 0.38965 0.12651 0.0
H1175 H 0.79034 0.34059 0.224 0.0
H1176 H 0.76369 0.36382 0.20409 0.0
H1177 H 0.71477 0.33084 0.11845 0.0
H1178 H 0.62352 0.38829 0.08975 0.0
H1179 H 0.65199 0.36651 0.10849 0.0
C1180 C 0.98335 0.49529 0.4168 0.0
C1181 C 0.98956 0.48355 0.44091 0.0
C1182 C 0.97201 0.47997 0.39141 0.0
C1183 C 0.92897 0.40973 0.3661 0.0
H1184 H 0.95648 0.43225 0.2939 0.0
C1185 C 0.8967 0.33271 0.27567 0.0
C1186 C 0.8883 0.33882 0.24896 0.0
C1187 C 0.90978 0.35277 0.29698 0.0
C1188 C 0.94833 0.42591 0.31385 0.0
H1189 H 0.9893 0.44694 0.45744 0.0
H1190 H 0.96961 0.42026 0.41327 0.0
H1191 H 0.97857 0.46327 0.33553 0.0
H1192 H 0.88806 0.37087 0.22304 0.0
H1193 H 0.9111 0.40653 0.2609 0.0
H1194 H 0.89882 0.37257 0.34489 0.0
C1195 C 0.97342 0.44122 0.41391 0.0
C1196 C 0.96099 0.44359 0.33763 0.0
C1197 C 0.98493 0.45655 0.43912 0.0
C1198 C 0.89437 0.36575 0.24353 0.0
C1199 C 0.9075 0.38604 0.26513 0.0
C1200 C 0.91627 0.39227 0.34249 0.0
C1201 C 0.96638 0.45261 0.38993 0.0
C1202 C 0.95185 0.43531 0.36409 0.0
C1203 C 0.91466 0.37951 0.29227 0.0
C1204 C 0.9263 0.3998 0.31625 0.0
H1205 H 0.98682 0.51614 0.4177 0.0
H1206 H 0.9667 0.4892 0.37324 0.0
H1207 H 0.92102 0.40309 0.3861 0.0
H1208 H 0.89263 0.31216 0.28032 0.0
H1209 H 0.91574 0.3472 0.31738 0.0
C1210 C 0.57622 0.55941 0.43916 0.0
C1211 C 0.58823 0.55757 0.46608 0.0
C1212 C 0.59333 0.57551 0.41936 0.0
C1213 C 0.6645 0.63309 0.41484 0.0
H1214 H 0.64665 0.61342 0.33521 0.0
C1215 C 0.72299 0.70892 0.33319 0.0
C1216 C 0.72968 0.69907 0.30953 0.0
C1217 C 0.70514 0.69108 0.35137 0.0
C1218 C 0.65214 0.61915 0.35739 0.0
H1219 H 0.62754 0.57026 0.49311 0.0
H1220 H 0.65747 0.59772 0.45852 0.0
H1221 H 0.61758 0.58266 0.36843 0.0
H1222 H 0.72239 0.66255 0.28629 0.0
H1223 H 0.69179 0.6314 0.31835 0.0
H1224 H 0.69952 0.66912 0.40401 0.0
C1225 C 0.63481 0.58742 0.45277 0.0
C1226 C 0.6352 0.60161 0.37647 0.0
C1227 C 0.61769 0.57151 0.47259 0.0
C1228 C 0.71769 0.67087 0.30429 0.0
C1229 C 0.69997 0.65298 0.32264 0.0
C1230 C 0.68149 0.6505 0.39582 0.0
C1231 C 0.62288 0.59 0.42599 0.0
C1232 C 0.6411 0.60836 0.40549 0.0
C1233 C 0.69363 0.66283 0.34659 0.0
C1234 C 0.67552 0.6439 0.36679 0.0
H1235 H 0.55353 0.54898 0.43361 0.0
H1236 H 0.58326 0.57717 0.39914 0.0
H1237 H 0.66957 0.63928 0.43691 0.0
H1238 H 0.73151 0.7305 0.33774 0.0
H1239 H 0.70029 0.69953 0.36915 0.0
C1240 C 0.82206 0.32941 0.81629 0.0
C1241 C 0.79339 0.32345 0.81244 0.0
C1242 C 0.83855 0.34149 0.84153 0.0
C1243 C 0.84533 0.38607 0.89982 0.0
H1244 H 0.89915 0.36211 0.93376 0.0
C1245 C 0.94163 0.4217 0.99672 0.0
C1246 C 0.95762 0.44834 0.98885 0.0
C1247 C 0.91794 0.40362 0.979 0.0
C1248 C 0.8839 0.36874 0.92481 0.0
H1249 H 0.75949 0.32595 0.83149 0.0
H1250 H 0.7887 0.3479 0.87568 0.0
H1251 H 0.86389 0.33488 0.89508 0.0
H1252 H 0.96133 0.47722 0.95678 0.0
H1253 H 0.92004 0.44596 0.92628 0.0
H1254 H 0.86617 0.42055 0.92868 0.0
C1255 C 0.79821 0.34279 0.85924 0.0
C1256 C 0.86394 0.35334 0.90258 0.0
C1257 C 0.78158 0.33036 0.83402 0.0
C1258 C 0.94944 0.45674 0.96333 0.0
C1259 C 0.92566 0.43895 0.94598 0.0
C1260 C 0.86548 0.40161 0.92183 0.0
C1261 C 0.8268 0.34825 0.86328 0.0
C1262 C 0.84499 0.36227 0.88939 0.0
C1263 C 0.9097 0.41223 0.95356 0.0
C1264 C 0.88543 0.39345 0.93397 0.0
H1265 H 0.83176 0.3246 0.79982 0.0
H1266 H 0.86067 0.34601 0.84383 0.0
H1267 H 0.83105 0.39346 0.88998 0.0
H1268 H 0.94762 0.41482 0.01633 0.0
H1269 H 0.90597 0.38303 0.98518 0.0
C1270 C 0.86001 0.83383 0.2093 0.0
C1271 C 0.8422 0.80662 0.20054 0.0
C1272 C 0.87806 0.85179 0.1912 0.0
C1273 C 0.8877 0.86019 0.11546 0.0
H1274 H 0.96378 0.91371 0.1426 0.0
C1275 C 0.96806 0.92007 0.03914 0.0
C1276 C 0.98441 0.94804 0.04496 0.0
C1277 C 0.95188 0.90346 0.05911 0.0
C1278 C 0.9425 0.89904 0.13474 0.0
H1279 H 0.83 0.77696 0.16594 0.0
H1280 H 0.86153 0.80792 0.13483 0.0
H1281 H 0.93318 0.8837 0.17555 0.0
H1282 H 0.99743 0.98047 0.07662 0.0
H1283 H 0.96909 0.95138 0.11168 0.0
H1284 H 0.89698 0.87532 0.0747 0.0
C1285 C 0.86121 0.81564 0.15543 0.0
C1286 C 0.92492 0.88185 0.15364 0.0
C1287 C 0.8432 0.79777 0.17342 0.0
C1288 C 0.985 0.95895 0.07156 0.0
C1289 C 0.96884 0.94228 0.09165 0.0
C1290 C 0.90526 0.87725 0.09662 0.0
C1291 C 0.87874 0.84297 0.16393 0.0
C1292 C 0.89735 0.86202 0.14419 0.0
C1293 C 0.95168 0.91438 0.08547 0.0
C1294 C 0.93297 0.89675 0.10594 0.0
H1295 H 0.85986 0.84137 0.23004 0.0
H1296 H 0.89107 0.87272 0.19842 0.0
H1297 H 0.86641 0.84565 0.10746 0.0
H1298 H 0.96733 0.91104 0.01889 0.0
H1299 H 0.93936 0.882 0.05383 0.0
C1300 C 0.81794 0.17151 0.90981 0.0
C1301 C 0.80743 0.16829 0.88127 0.0
C1302 C 0.8202 0.15017 0.92366 0.0
C1303 C 0.80301 0.07692 0.91518 0.0
H1304 H 0.87855 0.1018 0.95381 0.0
C1305 C 0.8681 0.0182 0.91436 0.0
C1306 C 0.88761 0.02096 0.93768 0.0
C1307 C 0.85144 0.03173 0.91437 0.0
C1308 C 0.85711 0.09438 0.94371 0.0
H1309 H 0.78969 0.13988 0.84523 0.0
H1310 H 0.7941 0.10299 0.86905 0.0
H1311 H 0.86096 0.13437 0.94178 0.0
H1312 H 0.90376 0.03881 0.97992 0.0
H1313 H 0.87454 0.06221 0.97998 0.0
H1314 H 0.80012 0.037 0.91564 0.0
C1315 C 0.80004 0.12166 0.88107 0.0
C1316 C 0.84695 0.11311 0.93684 0.0
C1317 C 0.7976 0.14289 0.86732 0.0
C1318 C 0.88886 0.03616 0.96166 0.0
C1319 C 0.87226 0.04973 0.96164 0.0
C1320 C 0.81328 0.05816 0.92192 0.0
C1321 C 0.81226 0.12532 0.90913 0.0
C1322 C 0.8202 0.10475 0.92157 0.0
C1323 C 0.85405 0.04836 0.93767 0.0
C1324 C 0.84081 0.06687 0.9354 0.0
H1325 H 0.82526 0.19079 0.92117 0.0
H1326 H 0.82921 0.15349 0.94544 0.0
H1327 H 0.78209 0.06976 0.9039 0.0
H1328 H 0.8664 0.00632 0.89574 0.0
H1329 H 0.83777 0.03044 0.89548 0.0
C1330 C 0.71176 0.20841 0.69754 0.0
C1331 C 0.74004 0.21349 0.70389 0.0
C1332 C 0.69519 0.19161 0.67431 0.0
C1333 C 0.68929 0.1358 0.6291 0.0
H1334 H 0.63904 0.15427 0.5793 0.0
C1335 C 0.62234 0.06673 0.53285 0.0
C1336 C 0.5942 0.06239 0.5281 0.0
C1337 C 0.64166 0.08707 0.55216 0.0
C1338 C 0.65278 0.1487 0.59315 0.0
H1339 H 0.77339 0.20543 0.69096 0.0
H1340 H 0.74438 0.17587 0.65044 0.0
H1341 H 0.66968 0.18609 0.6176 0.0
H1342 H 0.56435 0.07655 0.53858 0.0
H1343 H 0.59781 0.11166 0.57269 0.0
H1344 H 0.67199 0.09818 0.60531 0.0
C1345 C 0.73497 0.18475 0.66346 0.0
C1346 C 0.67033 0.16695 0.61504 0.0
C1347 C 0.75158 0.2017 0.68656 0.0
C1348 C 0.58591 0.07932 0.54213 0.0
C1349 C 0.60516 0.09959 0.56148 0.0
C1350 C 0.67162 0.11749 0.60737 0.0
C1351 C 0.70657 0.17944 0.65717 0.0
C1352 C 0.68865 0.1606 0.63332 0.0
C1353 C 0.63317 0.10344 0.56706 0.0
C1354 C 0.65301 0.12363 0.58921 0.0
H1355 H 0.70235 0.21721 0.71066 0.0
H1356 H 0.67328 0.18763 0.67014 0.0
H1357 H 0.70291 0.13021 0.64311 0.0
H1358 H 0.62929 0.05406 0.52206 0.0
H1359 H 0.66321 0.08984 0.55553 0.0
C1360 C 0.5868 0.9047 0.38053 0.0
C1361 C 0.57582 0.90682 0.40525 0.0
C1362 C 0.60267 0.89044 0.3799 0.0
C1363 C 0.64867 0.87132 0.42656 0.0
H1364 H 0.64511 0.8288 0.36095 0.0
C1365 C 0.74208 0.85596 0.39601 0.0
C1366 C 0.73641 0.83173 0.38149 0.0
C1367 C 0.71997 0.86025 0.40417 0.0
C1368 C 0.64609 0.84019 0.37968 0.0
H1369 H 0.57233 0.89524 0.44854 0.0
H1370 H 0.59977 0.87006 0.44729 0.0
H1371 H 0.60943 0.84449 0.36356 0.0
H1372 H 0.70322 0.79225 0.36593 0.0
H1373 H 0.66485 0.79953 0.38082 0.0
H1374 H 0.6857 0.86747 0.44241 0.0
C1375 C 0.5962 0.87951 0.42847 0.0
C1376 C 0.62584 0.84943 0.38099 0.0
C1377 C 0.58024 0.89367 0.42906 0.0
C1378 C 0.7084 0.8111 0.37724 0.0
C1379 C 0.68633 0.81537 0.38545 0.0
C1380 C 0.66899 0.86212 0.42522 0.0
C1381 C 0.60797 0.87815 0.40404 0.0
C1382 C 0.6273 0.8656 0.40415 0.0
C1383 C 0.69179 0.84037 0.39799 0.0
C1384 C 0.66824 0.84695 0.4015 0.0
H1385 H 0.58358 0.91452 0.36185 0.0
H1386 H 0.61173 0.88996 0.36084 0.0
H1387 H 0.65044 0.88392 0.4446 0.0
H1388 H 0.76348 0.87208 0.39992 0.0
H1389 H 0.72486 0.87979 0.41373 0.0
C1390 C 0.85868 0.21746 0.29062 0.0
C1391 C 0.86036 0.22163 0.26172 0.0
C1392 C 0.86917 0.20102 0.30452 0.0
C1393 C 0.88947 0.14601 0.29372 0.0
H1394 H 0.92778 0.1692 0.36908 0.0
C1395 C 0.94103 0.08609 0.35705 0.0
C1396 C 0.93915 0.08443 0.38616 0.0
C1397 C 0.93252 0.10305 0.34107 0.0
C1398 C 0.91684 0.16214 0.34821 0.0
H1399 H 0.87436 0.21117 0.22482 0.0
H1400 H 0.89278 0.18234 0.2492 0.0
H1401 H 0.91122 0.19788 0.34265 0.0
H1402 H 0.92613 0.09921 0.42094 0.0
H1403 H 0.91124 0.12845 0.3933 0.0
H1404 H 0.89488 0.11008 0.29946 0.0
C1405 C 0.88314 0.19185 0.26105 0.0
C1406 C 0.90734 0.17871 0.33294 0.0
C1407 C 0.87268 0.20851 0.24706 0.0
C1408 C 0.92847 0.10026 0.39874 0.0
C1409 C 0.91989 0.11713 0.38278 0.0
C1410 C 0.89893 0.12934 0.30906 0.0
C1411 C 0.88174 0.18805 0.29008 0.0
C1412 C 0.89322 0.17081 0.30557 0.0
C1413 C 0.92179 0.11886 0.35366 0.0
C1414 C 0.91253 0.13701 0.3367 0.0
H1415 H 0.84927 0.22699 0.30278 0.0
H1416 H 0.86713 0.19826 0.32669 0.0
H1417 H 0.87849 0.13907 0.27284 0.0
H1418 H 0.94944 0.07451 0.34659 0.0
H1419 H 0.93476 0.10403 0.31885 0.0
C1420 C 0.76385 0.20676 0.17535 0.0
C1421 C 0.75763 0.22302 0.19287 0.0
C1422 C 0.74233 0.18654 0.15755 0.0
C1423 C 0.66796 0.1626 0.12579 0.0
H1424 H 0.67309 0.09573 0.11424 0.0
C1425 C 0.58142 0.06148 0.06712 0.0
C1426 C 0.59193 0.05383 0.04489 0.0
C1427 C 0.59971 0.08304 0.08585 0.0
C1428 C 0.67141 0.1143 0.11743 0.0
H1429 H 0.72428 0.23123 0.20561 0.0
H1430 H 0.6865 0.19532 0.17531 0.0
H1431 H 0.70918 0.13153 0.14597 0.0
H1432 H 0.6293 0.06294 0.0242 0.0
H1433 H 0.66114 0.09993 0.05725 0.0
H1434 H 0.62967 0.1447 0.09738 0.0
C1435 C 0.70801 0.19849 0.17469 0.0
C1436 C 0.69218 0.13492 0.13533 0.0
C1437 C 0.72961 0.21894 0.19221 0.0
C1438 C 0.62067 0.06833 0.04126 0.0
C1439 C 0.6389 0.08945 0.06011 0.0
C1440 C 0.64688 0.14172 0.10816 0.0
C1441 C 0.71407 0.18191 0.15729 0.0
C1442 C 0.69105 0.15955 0.1393 0.0
C1443 C 0.62866 0.09671 0.08271 0.0
C1444 C 0.64883 0.11767 0.10352 0.0
H1445 H 0.78526 0.20939 0.17564 0.0
H1446 H 0.74788 0.17453 0.14402 0.0
H1447 H 0.66654 0.18138 0.12817 0.0
H1448 H 0.55936 0.05042 0.07041 0.0
H1449 H 0.59152 0.0884 0.10328 0.0
C1450 C 0.72814 0.81136 0.7892 0.0
C1451 C 0.74562 0.80155 0.80454 0.0
C1452 C 0.71416 0.82414 0.80247 0.0
C1453 C 0.70983 0.8542 0.87393 0.0
H1454 H 0.64295 0.85447 0.8343 0.0
C1455 C 0.64164 0.89724 0.92974 0.0
C1456 C 0.62489 0.90764 0.91388 0.0
C1457 C 0.65622 0.88473 0.91696 0.0
C1458 C 0.66177 0.85515 0.84595 0.0
H1459 H 0.76119 0.79831 0.84719 0.0
H1460 H 0.73706 0.82001 0.87015 0.0
H1461 H 0.66731 0.83297 0.81235 0.0
H1462 H 0.61204 0.91237 0.87054 0.0
H1463 H 0.63675 0.89101 0.84884 0.0
H1464 H 0.70405 0.87626 0.90763 0.0
C1465 C 0.73428 0.81825 0.84747 0.0
C1466 C 0.67613 0.84252 0.83304 0.0
C1467 C 0.74835 0.80547 0.83411 0.0
C1468 C 0.62385 0.90461 0.88429 0.0
C1469 C 0.63838 0.89205 0.87152 0.0
C1470 C 0.6954 0.86679 0.88688 0.0
C1471 C 0.71655 0.82794 0.8321 0.0
C1472 C 0.70075 0.84163 0.84649 0.0
C1473 C 0.65508 0.88163 0.88738 0.0
C1474 C 0.67088 0.86777 0.87333 0.0
H1475 H 0.72507 0.80914 0.7665 0.0
H1476 H 0.70159 0.83131 0.78906 0.0
H1477 H 0.72862 0.85484 0.88559 0.0
H1478 H 0.64325 0.89822 0.95241 0.0
H1479 H 0.66809 0.87698 0.93065 0.0
C1480 C 0.94369 0.94476 0.56178 0.0
C1481 C 0.97073 0.94683 0.55961 0.0
C1482 C 0.92714 0.92901 0.58231 0.0
C1483 C 0.91625 0.87099 0.62681 0.0
H1484 H 0.87943 0.89954 0.67319 0.0
C1485 C 0.8338 0.80343 0.69973 0.0
C1486 C 0.83694 0.81341 0.72749 0.0
C1487 C 0.84967 0.82009 0.67945 0.0
C1488 C 0.88961 0.89128 0.66046 0.0
H1489 H 1.00119 0.93342 0.57737 0.0
H1490 H 0.97213 0.90555 0.61243 0.0
H1491 H 0.90755 0.92743 0.63723 0.0
H1492 H 0.85894 0.84913 0.75538 0.0
H1493 H 0.88627 0.87855 0.71969 0.0
H1494 H 0.89811 0.83476 0.64969 0.0
C1495 C 0.96378 0.91628 0.59842 0.0
C1496 C 0.90557 0.9072 0.63968 0.0
C1497 C 0.98052 0.9324 0.57832 0.0
C1498 C 0.85599 0.84078 0.73423 0.0
C1499 C 0.87158 0.85765 0.71373 0.0
C1500 C 0.8999 0.85492 0.64718 0.0
C1501 C 0.93691 0.91445 0.60087 0.0
C1502 C 0.91926 0.89734 0.62264 0.0
C1503 C 0.86891 0.84742 0.68612 0.0
C1504 C 0.88641 0.86483 0.66441 0.0
H1505 H 0.93546 0.95565 0.54788 0.0
H1506 H 0.90649 0.92796 0.58343 0.0
H1507 H 0.92632 0.86263 0.61403 0.0
H1508 H 0.81936 0.78248 0.6937 0.0
H1509 H 0.84678 0.81154 0.6584 0.0
C1510 C 0.14161 0.81987 0.8967 0.0
C1511 C 0.17086 0.83099 0.89497 0.0
C1512 C 0.12972 0.83571 0.90664 0.0
C1513 C 0.14853 0.90003 0.94757 0.0
H1514 H 0.07448 0.88896 0.91445 0.0
C1515 C 0.08885 0.95375 0.99351 0.0
C1516 C 0.07251 0.96194 0.97451 0.0
C1517 C 0.10101 0.93787 0.9842 0.0
C1518 C 0.0953 0.89257 0.92382 0.0
H1519 H 0.21038 0.86787 0.90181 0.0
H1520 H 0.18969 0.89554 0.91872 0.0
H1521 H 0.09537 0.86185 0.89696 0.0
H1522 H 0.05673 0.9602 0.93063 0.0
H1523 H 0.07835 0.93322 0.91439 0.0
H1524 H 0.14877 0.93132 0.9739 0.0
C1525 C 0.17594 0.87437 0.91303 0.0
C1526 C 0.10716 0.87667 0.91401 0.0
C1527 C 0.18784 0.85849 0.90322 0.0
C1528 C 0.06899 0.95414 0.94594 0.0
C1529 C 0.08127 0.93843 0.93662 0.0
C1530 C 0.13669 0.91601 0.95733 0.0
C1531 C 0.1467 0.86321 0.91502 0.0
C1532 C 0.13399 0.88016 0.92568 0.0
C1533 C 0.09732 0.92987 0.9556 0.0
C1534 C 0.10992 0.9126 0.94554 0.0
H1535 H 0.12793 0.79868 0.89095 0.0
H1536 H 0.10722 0.82619 0.90825 0.0
H1537 H 0.16904 0.90314 0.9574 0.0
H1538 H 0.092 0.95931 0.01569 0.0
H1539 H 0.11286 0.93142 0.99955 0.0
C1540 C 0.95237 0.43935 0.55662 0.0
C1541 C 0.97834 0.44008 0.5524 0.0
C1542 C 0.93339 0.41881 0.57151 0.0
C1543 C 0.93137 0.37786 0.62915 0.0
H1544 H 0.85113 0.33893 0.60392 0.0
C1545 C 0.85121 0.31117 0.7029 0.0
C1546 C 0.82534 0.31238 0.70097 0.0
C1547 C 0.86979 0.32282 0.68279 0.0
C1548 C 0.87344 0.34979 0.61136 0.0
H1549 H 1.00482 0.41984 0.55977 0.0
H1550 H 0.97167 0.38403 0.58713 0.0
H1551 H 0.88401 0.36553 0.57099 0.0
H1552 H 0.79869 0.32692 0.67669 0.0
H1553 H 0.83159 0.34824 0.64217 0.0
H1554 H 0.92088 0.36377 0.6699 0.0
C1555 C 0.96602 0.39925 0.57838 0.0
C1556 C 0.89221 0.36473 0.59243 0.0
C1557 C 0.98485 0.41958 0.56281 0.0
C1558 C 0.81844 0.32558 0.67864 0.0
C1559 C 0.8372 0.33757 0.65871 0.0
C1560 C 0.91256 0.36324 0.64821 0.0
C1561 C 0.94024 0.39887 0.58291 0.0
C1562 C 0.92122 0.37932 0.60135 0.0
C1563 C 0.86307 0.33624 0.6605 0.0
C1564 C 0.88329 0.34954 0.63968 0.0
H1565 H 0.94679 0.45483 0.54853 0.0
H1566 H 0.91376 0.41908 0.57501 0.0
H1567 H 0.95364 0.3893 0.63654 0.0
H1568 H 0.85693 0.30079 0.7197 0.0
H1569 H 0.8893 0.32104 0.6846 0.0
C1570 C 0.48235 0.05063 0.44219 0.0
C1571 C 0.48549 0.04854 0.47153 0.0
C1572 C 0.46939 0.06594 0.42977 0.0
C1573 C 0.44671 0.11952 0.4464 0.0
H1574 H 0.40499 0.09744 0.37236 0.0
C1575 C 0.40238 0.18701 0.38595 0.0
C1576 C 0.3767 0.17437 0.36814 0.0
C1577 C 0.41575 0.17196 0.39829 0.0
C1578 C 0.41627 0.10393 0.39317 0.0
H1579 H 0.47686 0.06118 0.51062 0.0
H1580 H 0.45382 0.08718 0.48914 0.0
H1581 H 0.42662 0.07071 0.39439 0.0
H1582 H 0.34566 0.13534 0.34926 0.0
H1583 H 0.36821 0.10932 0.37117 0.0
H1584 H 0.43554 0.15225 0.44554 0.0
C1585 C 0.46191 0.07747 0.47555 0.0
C1586 C 0.4292 0.08866 0.40578 0.0
C1587 C 0.47505 0.06227 0.48799 0.0
C1588 C 0.3651 0.14607 0.36305 0.0
C1589 C 0.3784 0.13103 0.37543 0.0
C1590 C 0.43368 0.13474 0.43383 0.0
C1591 C 0.45882 0.07968 0.44614 0.0
C1592 C 0.44476 0.09611 0.43266 0.0
C1593 C 0.40399 0.14361 0.3934 0.0
C1594 C 0.41817 0.1273 0.40692 0.0
H1595 H 0.49017 0.04059 0.42867 0.0
H1596 H 0.4681 0.06729 0.40719 0.0
H1597 H 0.45866 0.12643 0.46688 0.0
H1598 H 0.41208 0.2086 0.39088 0.0
H1599 H 0.43553 0.18276 0.41155 0.0
C1600 C 0.5945 0.57219 0.0729 0.0
C1601 C 0.56575 0.55757 0.07629 0.0
C1602 C 0.61285 0.59208 0.09308 0.0
C1603 C 0.65064 0.62824 0.14232 0.0
H1604 H 0.62018 0.6722 0.1746 0.0
C1605 C 0.69526 0.7199 0.23007 0.0
C1606 C 0.71975 0.73763 0.21844 0.0
C1607 C 0.67412 0.69781 0.21382 0.0
C1608 C 0.62882 0.65993 0.16585 0.0
H1609 H 0.53386 0.55045 0.10411 0.0
H1610 H 0.56611 0.5843 0.14004 0.0
H1611 H 0.58866 0.63179 0.14524 0.0
H1612 H 0.74049 0.74808 0.18057 0.0
H1613 H 0.70361 0.70942 0.15222 0.0
H1614 H 0.69103 0.65732 0.16196 0.0
C1615 C 0.57438 0.58132 0.12137 0.0
C1616 C 0.61082 0.63666 0.14923 0.0
C1617 C 0.55596 0.56177 0.10096 0.0
C1618 C 0.7218 0.73447 0.18992 0.0
C1619 C 0.70089 0.71234 0.17382 0.0
C1620 C 0.66864 0.65172 0.15851 0.0
C1621 C 0.60286 0.59736 0.11726 0.0
C1622 C 0.62157 0.6207 0.13696 0.0
C1623 C 0.67744 0.69333 0.18595 0.0
C1624 C 0.65791 0.6679 0.17006 0.0
H1625 H 0.6025 0.56932 0.05398 0.0
H1626 H 0.63454 0.60417 0.08898 0.0
H1627 H 0.65959 0.61616 0.1338 0.0
H1628 H 0.69335 0.72201 0.25209 0.0
H1629 H 0.65608 0.68337 0.22349 0.0
C1630 C 0.19894 0.24256 0.67249 0.0
C1631 C 0.20856 0.2347 0.69761 0.0
C1632 C 0.1788 0.22286 0.65298 0.0
C1633 C 0.15085 0.173 0.61058 0.0
H1634 H 0.08557 0.11546 0.63904 0.0
C1635 C 0.08229 0.07 0.55083 0.0
C1636 C 0.05288 0.05956 0.55033 0.0
C1637 C 0.10039 0.09301 0.56771 0.0
C1638 C 0.10351 0.1315 0.63071 0.0
H1639 H 0.20489 0.20045 0.7222 0.0
H1640 H 0.16975 0.1664 0.68854 0.0
H1641 H 0.1184 0.1538 0.67022 0.0
H1642 H 1.01919 0.06444 0.5672 0.0
H1643 H 0.05082 0.10455 0.59689 0.0
H1644 H 0.13617 0.15034 0.57114 0.0
C1645 C 0.17758 0.18758 0.68384 0.0
C1646 C 0.12233 0.15333 0.64855 0.0
C1647 C 0.1978 0.20708 0.70301 0.0
C1648 C 0.04182 0.0721 0.56731 0.0
C1649 C 0.05989 0.09501 0.58426 0.0
C1650 C 0.13208 0.15098 0.59272 0.0
C1651 C 0.16782 0.19524 0.65872 0.0
C1652 C 0.14638 0.17402 0.63878 0.0
C1653 C 0.08933 0.10579 0.58449 0.0
C1654 C 0.10845 0.12987 0.60276 0.0
H1655 H 0.20709 0.26378 0.6679 0.0
H1656 H 0.17153 0.22917 0.63367 0.0
H1657 H 0.16937 0.18867 0.60266 0.0
H1658 H 0.0913 0.06063 0.53791 0.0
H1659 H 0.12302 0.10066 0.56785 0.0
C1660 C 0.71531 0.315 0.34358 0.0
C1661 C 0.7442 0.3315 0.34189 0.0
C1662 C 0.69824 0.3262 0.35159 0.0
C1663 C 0.70048 0.38708 0.38577 0.0
H1664 H 0.62595 0.36158 0.34444 0.0
C1665 C 0.6303 0.44106 0.3929 0.0
C1666 C 0.60162 0.42434 0.39564 0.0
C1667 C 0.64801 0.42976 0.38711 0.0
C1668 C 0.64661 0.36871 0.35632 0.0
H1669 H 0.778 0.37256 0.34745 0.0
H1670 H 0.74811 0.39228 0.36111 0.0
H1671 H 0.65644 0.3417 0.33341 0.0
H1672 H 0.56921 0.38261 0.39499 0.0
H1673 H 0.60005 0.36295 0.38442 0.0
H1674 H 0.69064 0.41441 0.40837 0.0
C1675 C 0.73873 0.3706 0.35675 0.0
C1676 C 0.66405 0.35729 0.35009 0.0
C1677 C 0.75584 0.35934 0.3489 0.0
C1678 C 0.59105 0.39608 0.39244 0.0
C1679 C 0.60871 0.38481 0.38649 0.0
C1680 C 0.68306 0.39862 0.3919 0.0
C1681 C 0.70967 0.35419 0.35788 0.0
C1682 C 0.69115 0.36629 0.36478 0.0
C1683 C 0.63735 0.40153 0.38378 0.0
C1684 C 0.65594 0.38949 0.37726 0.0
H1685 H 0.7059 0.2934 0.33866 0.0
H1686 H 0.67606 0.31293 0.35281 0.0
H1687 H 0.7211 0.39422 0.39771 0.0
H1688 H 0.639 0.46292 0.3949 0.0
H1689 H 0.66994 0.44312 0.38479 0.0
C1690 C 0.48372 0.94896 0.08788 0.0
C1691 C 0.49393 0.9436 0.064 0.0
C1692 C 0.46969 0.92827 0.10561 0.0
C1693 C 0.42706 0.85507 0.10451 0.0
H1694 H 0.43725 0.86665 0.18544 0.0
C1695 C 0.38271 0.79391 0.21007 0.0
C1696 C 0.35346 0.78312 0.20202 0.0
C1697 C 0.4019 0.81153 0.19289 0.0
C1698 C 0.4344 0.86298 0.1629 0.0
H1699 H 0.49823 0.91246 0.04053 0.0
H1700 H 0.47367 0.87633 0.0716 0.0
H1701 H 0.46862 0.9017 0.15693 0.0
H1702 H 0.32141 0.78167 0.16926 0.0
H1703 H 0.35499 0.81259 0.13937 0.0
H1704 H 0.39259 0.81649 0.11046 0.0
C1705 C 0.47639 0.89654 0.07639 0.0
C1706 C 0.45217 0.88312 0.14659 0.0
C1707 C 0.49058 0.91728 0.05872 0.0
C1708 C 0.34381 0.78966 0.17608 0.0
C1709 C 0.36303 0.80724 0.15887 0.0
C1710 C 0.40918 0.83497 0.12081 0.0
C1711 C 0.4655 0.90178 0.09978 0.0
C1712 C 0.44841 0.87951 0.11723 0.0
C1713 C 0.39224 0.81862 0.1673 0.0
C1714 C 0.41246 0.8389 0.15012 0.0
H1715 H 0.48601 0.96901 0.09263 0.0
H1716 H 0.46126 0.93282 0.12335 0.0
H1717 H 0.42353 0.85186 0.08188 0.0
H1718 H 0.39083 0.78914 0.22986 0.0
H1719 H 0.42433 0.81978 0.19973 0.0
C1720 C 0.98044 0.56607 0.98848 0.0
C1721 C 0.99658 0.55805 0.97273 0.0
C1722 C 0.96685 0.58107 0.97648 0.0
C1723 C 0.9446 0.60158 0.90624 0.0
H1724 H 0.93197 0.65149 0.95222 0.0
C1725 C 0.87648 0.65402 0.86049 0.0
C1726 C 0.88297 0.68036 0.87054 0.0
C1727 C 0.89021 0.63944 0.87312 0.0
C1728 C 0.93548 0.63789 0.93882 0.0
H1729 H 1.01137 0.5605 0.93191 0.0
H1730 H 0.98892 0.58728 0.91155 0.0
H1731 H 0.9564 0.62675 0.97348 0.0
H1732 H 0.9096 0.71149 0.90255 0.0
H1733 H 0.93399 0.68669 0.92374 0.0
H1734 H 0.92454 0.61331 0.87144 0.0
C1735 C 0.98583 0.58133 0.93295 0.0
C1736 C 0.94928 0.62324 0.95124 0.0
C1737 C 0.99908 0.56605 0.9448 0.0
C1738 C 0.904 0.69153 0.89369 0.0
C1739 C 0.91782 0.67697 0.90627 0.0
C1740 C 0.93095 0.6163 0.89383 0.0
C1741 C 0.96917 0.58898 0.9484 0.0
C1742 C 0.9542 0.60477 0.9352 0.0
C1743 C 0.9112 0.65056 0.8963 0.0
C1744 C 0.92605 0.63479 0.90981 0.0
H1745 H 0.9777 0.56021 0.00997 0.0
H1746 H 0.95391 0.58587 0.98915 0.0
H1747 H 0.94729 0.58739 0.89293 0.0
H1748 H 0.86081 0.64454 0.84257 0.0
H1749 H 0.88394 0.61915 0.86477 0.0
C1750 C 0.48839 0.44467 0.09178 0.0
C1751 C 0.47771 0.45724 0.07153 0.0
C1752 C 0.4713 0.42764 0.11114 0.0
C1753 C 0.40476 0.40995 0.14374 0.0
H1754 H 0.41265 0.34582 0.165 0.0
C1755 C 0.32733 0.32856 0.21238 0.0
C1756 C 0.3383 0.31562 0.23171 0.0
C1757 C 0.34419 0.34612 0.19316 0.0
C1758 C 0.41034 0.36381 0.15966 0.0
H1759 H 0.44026 0.46146 0.05611 0.0
H1760 H 0.41046 0.43169 0.08966 0.0
H1761 H 0.44171 0.37531 0.13105 0.0
H1762 H 0.37579 0.31148 0.24661 0.0
H1763 H 0.40544 0.34232 0.21348 0.0
H1764 H 0.37337 0.39842 0.17239 0.0
C1765 C 0.43225 0.43524 0.09079 0.0
C1766 C 0.4271 0.38082 0.14006 0.0
C1767 C 0.44935 0.45226 0.07134 0.0
C1768 C 0.36672 0.32109 0.23185 0.0
C1769 C 0.38362 0.3386 0.21262 0.0
C1770 C 0.388 0.39293 0.16338 0.0
C1771 C 0.44292 0.42259 0.111 0.0
C1772 C 0.42466 0.40423 0.13178 0.0
C1773 C 0.37259 0.35128 0.19277 0.0
C1774 C 0.39052 0.36958 0.17173 0.0
H1775 H 0.5101 0.44797 0.09278 0.0
H1776 H 0.48057 0.41872 0.12653 0.0
H1777 H 0.40245 0.42792 0.13835 0.0
H1778 H 0.30577 0.32534 0.21226 0.0
H1779 H 0.33474 0.35528 0.17827 0.0
C1780 C 0.37991 0.5718 0.9217 0.0
C1781 C 0.40865 0.58729 0.93212 0.0
C1782 C 0.36358 0.58416 0.90958 0.0
C1783 C 0.36156 0.65122 0.90528 0.0
H1784 H 0.30544 0.61599 0.8415 0.0
C1785 C 0.28323 0.69332 0.86058 0.0
C1786 C 0.27625 0.69188 0.83125 0.0
C1787 C 0.29881 0.68034 0.873 0.0
C1788 C 0.3211 0.62631 0.8592 0.0
H1789 H 0.44242 0.62851 0.93687 0.0
H1790 H 0.41415 0.6498 0.91622 0.0
H1791 H 0.33356 0.5944 0.86222 0.0
H1792 H 0.28053 0.67521 0.7922 0.0
H1793 H 0.30748 0.65281 0.81368 0.0
H1794 H 0.34941 0.68331 0.90201 0.0
C1795 C 0.404 0.62801 0.91781 0.0
C1796 C 0.33712 0.61368 0.87138 0.0
C1797 C 0.42035 0.61566 0.9298 0.0
C1798 C 0.28524 0.67681 0.81483 0.0
C1799 C 0.30069 0.66375 0.82725 0.0
C1800 C 0.34543 0.66377 0.8932 0.0
C1801 C 0.37528 0.61254 0.90748 0.0
C1802 C 0.35776 0.62592 0.8946 0.0
C1803 C 0.3079 0.66533 0.85658 0.0
C1804 C 0.32494 0.65162 0.86985 0.0
H1805 H 0.36972 0.55002 0.92334 0.0
H1806 H 0.34152 0.5714 0.90233 0.0
H1807 H 0.3769 0.66133 0.92327 0.0
H1808 H 0.27681 0.70466 0.87405 0.0
H1809 H 0.30348 0.6819 0.89563 0.0
C1810 C 0.07661 0.51685 0.60237 0.0
C1811 C 0.0712 0.52908 0.57829 0.0
C1812 C 0.08511 0.53096 0.62855 0.0
C1813 C 0.08703 0.59052 0.666 0.0
H1814 H 0.15058 0.59025 0.71315 0.0
C1815 C 0.16066 0.67843 0.74229 0.0
C1816 C 0.17036 0.67337 0.76895 0.0
C1817 C 0.1444 0.65723 0.72269 0.0
C1818 C 0.13245 0.5901 0.70052 0.0
H1819 H 0.07122 0.56578 0.56243 0.0
H1820 H 0.08579 0.59033 0.60787 0.0
H1821 H 0.13007 0.55975 0.67132 0.0
H1822 H 0.17049 0.64216 0.79628 0.0
H1823 H 0.14209 0.60456 0.76142 0.0
H1824 H 0.09015 0.62164 0.6945 0.0
C1825 C 0.08287 0.56966 0.60686 0.0
C1826 C 0.1207 0.57267 0.67652 0.0
C1827 C 0.07448 0.55561 0.58078 0.0
C1828 C 0.16305 0.64651 0.7759 0.0
C1829 C 0.14701 0.62512 0.75596 0.0
C1830 C 0.0988 0.60795 0.68985 0.0
C1831 C 0.08834 0.55757 0.63109 0.0
C1832 C 0.09839 0.57327 0.65853 0.0
C1833 C 0.13764 0.63036 0.7291 0.0
C1834 C 0.12216 0.60851 0.70691 0.0
H1835 H 0.07429 0.4964 0.60096 0.0
H1836 H 0.08903 0.52102 0.6468 0.0
H1837 H 0.06943 0.59105 0.65299 0.0
H1838 H 0.16601 0.69896 0.73635 0.0
H1839 H 0.1379 0.662 0.70209 0.0
C1840 C 0.32875 0.30271 0.66635 0.0
C1841 C 0.31946 0.31419 0.68657 0.0
C1842 C 0.34703 0.31901 0.64753 0.0
C1843 C 0.39841 0.39028 0.63751 0.0
H1844 H 0.38872 0.36442 0.56029 0.0
C1845 C 0.48053 0.4458 0.55926 0.0
C1846 C 0.46981 0.44654 0.53142 0.0
C1847 C 0.46236 0.43029 0.57864 0.0
C1848 C 0.39164 0.37209 0.58172 0.0
H1849 H 0.32185 0.35193 0.7024 0.0
H1850 H 0.35326 0.38022 0.6693 0.0
H1851 H 0.35622 0.33632 0.59258 0.0
H1852 H 0.4317 0.43222 0.50217 0.0
H1853 H 0.40005 0.40549 0.53585 0.0
H1854 H 0.43353 0.42631 0.62642 0.0
C1855 C 0.34683 0.35865 0.66832 0.0
C1856 C 0.37316 0.35579 0.60037 0.0
C1857 C 0.32858 0.34235 0.68718 0.0
C1858 C 0.4406 0.43188 0.52345 0.0
C1859 C 0.42248 0.41642 0.54273 0.0
C1860 C 0.41692 0.4066 0.61884 0.0
C1861 C 0.35645 0.34723 0.64835 0.0
C1862 C 0.37624 0.36466 0.62851 0.0
C1863 C 0.43311 0.41516 0.57052 0.0
C1864 C 0.41371 0.39776 0.59066 0.0
H1865 H 0.32223 0.28114 0.66524 0.0
H1866 H 0.35421 0.30951 0.63268 0.0
H1867 H 0.40166 0.39766 0.65911 0.0
H1868 H 0.503 0.45676 0.56593 0.0
H1869 H 0.47134 0.42962 0.59978 0.0
C1870 C 0.28061 0.67415 0.18275 0.0
C1871 C 0.2684 0.68058 0.20431 0.0
C1872 C 0.26428 0.66204 0.15725 0.0
C1873 C 0.2001 0.65374 0.11315 0.0
H1874 H 0.19364 0.58472 0.08721 0.0
C1875 C 0.10938 0.5524 0.05482 0.0
C1876 C 0.10192 0.56055 0.02879 0.0
C1877 C 0.134 0.56956 0.07154 0.0
C1878 C 0.19561 0.60422 0.09396 0.0
H1879 H 0.22959 0.67859 0.21671 0.0
H1880 H 0.20135 0.65795 0.17225 0.0
H1881 H 0.2296 0.61082 0.12587 0.0
H1882 H 0.11401 0.59312 0.99993 0.0
H1883 H 0.15707 0.62393 0.03009 0.0
H1884 H 0.1653 0.64657 0.082 0.0
C1885 C 0.22351 0.66256 0.17479 0.0
C1886 C 0.2162 0.61915 0.11594 0.0
C1887 C 0.23961 0.67418 0.20028 0.0
C1888 C 0.11939 0.58642 0.01992 0.0
C1889 C 0.14393 0.60393 0.03705 0.0
C1890 C 0.17976 0.63899 0.09091 0.0
C1891 C 0.2357 0.65657 0.15296 0.0
C1892 C 0.21788 0.64352 0.12641 0.0
C1893 C 0.15151 0.59544 0.06287 0.0
C1894 C 0.17667 0.61363 0.08187 0.0
H1895 H 0.30278 0.67885 0.18544 0.0
H1896 H 0.27405 0.65736 0.14076 0.0
H1897 H 0.20119 0.67263 0.12077 0.0
H1898 H 0.09634 0.53257 0.06223 0.0
H1899 H 0.1391 0.56274 0.09159 0.0
C1900 C 0.69751 0.38886 0.65358 0.0
C1901 C 0.70306 0.36902 0.64136 0.0
C1902 C 0.69119 0.40652 0.63683 0.0
C1903 C 0.65829 0.4075 0.56691 0.0
H1904 H 0.67805 0.4815 0.59014 0.0
C1905 C 0.60225 0.46553 0.51143 0.0
C1906 C 0.59279 0.47855 0.52981 0.0
C1907 C 0.62172 0.45619 0.52151 0.0
C1908 C 0.67235 0.46086 0.58335 0.0
H1909 H 0.70782 0.35297 0.60222 0.0
H1910 H 0.69682 0.384 0.57282 0.0
H1911 H 0.70267 0.45812 0.61453 0.0
H1912 H 0.59711 0.49276 0.573 0.0
H1913 H 0.63046 0.47609 0.59054 0.0
H1914 H 0.62708 0.4097 0.53665 0.0
C1915 C 0.69719 0.38573 0.59537 0.0
C1916 C 0.68649 0.44752 0.59728 0.0
C1917 C 0.70369 0.36813 0.61218 0.0
C1918 C 0.60385 0.48275 0.55825 0.0
C1919 C 0.62325 0.47342 0.56829 0.0
C1920 C 0.6441 0.4208 0.55304 0.0
C1921 C 0.6902 0.40465 0.60749 0.0
C1922 C 0.679 0.42042 0.58974 0.0
C1923 C 0.63214 0.45971 0.55014 0.0
C1924 C 0.65036 0.44734 0.56169 0.0
H1925 H 0.6972 0.39018 0.67606 0.0
H1926 H 0.68565 0.42069 0.64681 0.0
H1927 H 0.6518 0.38652 0.56082 0.0
H1928 H 0.59425 0.46208 0.48938 0.0
H1929 H 0.62836 0.44591 0.50695 0.0
C1930 C 0.8372 0.68787 0.10445 0.0
C1931 C 0.80758 0.67365 0.10227 0.0
C1932 C 0.85235 0.67965 0.08811 0.0
C1933 C 0.88235 0.65898 0.05263 0.0
H1934 H 0.85212 0.58133 0.0595 0.0
C1935 C 0.95113 0.60245 0.0501 0.0
C1936 C 0.94775 0.58479 0.07221 0.0
C1937 C 0.93211 0.61326 0.04399 0.0
C1938 C 0.8608 0.60301 0.05724 0.0
H1939 H 0.7704 0.64188 0.07893 0.0
H1940 H 0.7969 0.62776 0.04982 0.0
H1941 H 0.82182 0.6028 0.06368 0.0
H1942 H 0.92237 0.56537 0.10578 0.0
H1943 H 0.88952 0.58435 0.09542 0.0
H1944 H 0.9221 0.65923 0.04875 0.0
C1945 C 0.80846 0.64478 0.06477 0.0
C1946 C 0.84329 0.61535 0.05918 0.0
C1947 C 0.79327 0.65286 0.08138 0.0
C1948 C 0.92523 0.57846 0.08827 0.0
C1949 C 0.90631 0.58924 0.08221 0.0
C1950 C 0.89997 0.64662 0.05093 0.0
C1951 C 0.83821 0.6571 0.06909 0.0
C1952 C 0.85424 0.64368 0.05844 0.0
C1953 C 0.90939 0.6066 0.05991 0.0
C1954 C 0.88967 0.61871 0.05476 0.0
H1955 H 0.84888 0.70385 0.12051 0.0
H1956 H 0.87519 0.68953 0.09234 0.0
H1957 H 0.89128 0.68078 0.0513 0.0
H1958 H 0.96818 0.60754 0.03721 0.0
H1959 H 0.93501 0.6266 0.0267 0.0
C1960 C 0.94314 0.61854 0.62545 0.0
C1961 C 0.93117 0.60175 0.60049 0.0
C1962 C 0.92898 0.63124 0.63861 0.0
C1963 C 0.86347 0.64568 0.6282 0.0
H1964 H 0.88654 0.67109 0.70595 0.0
C1965 C 0.81058 0.70553 0.68331 0.0
C1966 C 0.81211 0.70785 0.71292 0.0
C1967 C 0.82456 0.69284 0.6697 0.0
C1968 C 0.87916 0.66404 0.68429 0.0
H1969 H 0.89329 0.58652 0.57058 0.0
H1970 H 0.86888 0.60726 0.59342 0.0
H1971 H 0.91001 0.64909 0.68368 0.0
H1972 H 0.8303 0.6975 0.75079 0.0
H1973 H 0.85338 0.67521 0.72781 0.0
H1974 H 0.83199 0.65988 0.62911 0.0
C1975 C 0.88971 0.61119 0.60296 0.0
C1976 C 0.89333 0.65144 0.67101 0.0
C1977 C 0.90394 0.59861 0.58971 0.0
C1978 C 0.82822 0.69651 0.72806 0.0
C1979 C 0.84199 0.68368 0.71453 0.0
C1980 C 0.84918 0.65816 0.64154 0.0
C1981 C 0.90168 0.628 0.6279 0.0
C1982 C 0.88606 0.6418 0.64245 0.0
C1983 C 0.84087 0.68151 0.68483 0.0
C1984 C 0.85648 0.66782 0.6701 0.0
H1985 H 0.96366 0.62187 0.63538 0.0
H1986 H 0.93997 0.64396 0.6573 0.0
H1987 H 0.85667 0.63933 0.6063 0.0
H1988 H 0.79885 0.71397 0.6704 0.0
H1989 H 0.82281 0.69249 0.64703 0.0
C1990 C 0.44918 0.5138 0.44378 0.0
C1991 C 0.46542 0.52399 0.46984 0.0
C1992 C 0.42934 0.52254 0.43355 0.0
C1993 C 0.39129 0.56122 0.4528 0.0
H1994 H 0.39514 0.57958 0.37469 0.0
C1995 C 0.365 0.64357 0.40409 0.0
C1996 C 0.35323 0.63981 0.37589 0.0
C1997 C 0.3714 0.62396 0.4168 0.0
C1998 C 0.39328 0.57406 0.39636 0.0
H1999 H 0.47278 0.55043 0.50622 0.0
H2000 H 0.43883 0.56643 0.48795 0.0
H2001 H 0.42049 0.55547 0.39469 0.0
H2002 H 0.33732 0.61186 0.33943 0.0
H2003 H 0.34822 0.5775 0.36176 0.0
H2004 H 0.36505 0.58117 0.45455 0.0
C2005 C 0.44099 0.55128 0.47561 0.0
C2006 C 0.40784 0.5602 0.40787 0.0
C2007 C 0.46064 0.54229 0.486 0.0
C2008 C 0.34626 0.61529 0.36124 0.0
C2009 C 0.35272 0.59572 0.37392 0.0
C2010 C 0.37681 0.57529 0.44127 0.0
C2011 C 0.42555 0.54193 0.44899 0.0
C2012 C 0.40745 0.55403 0.43635 0.0
C2013 C 0.36623 0.60028 0.40151 0.0
C2014 C 0.37809 0.58225 0.41305 0.0
H2015 H 0.452 0.49929 0.43105 0.0
H2016 H 0.41735 0.51447 0.41326 0.0
H2017 H 0.39022 0.55641 0.4747 0.0
H2018 H 0.37026 0.66215 0.41598 0.0
H2019 H 0.38194 0.62812 0.43805 0.0
C2020 C 0.18434 0.29588 0.88808 0.0
C2021 C 0.2069 0.32097 0.88331 0.0
C2022 C 0.16386 0.29469 0.90477 0.0
C2023 C 0.1447 0.33701 0.95038 0.0
H2024 H 0.07272 0.30269 0.90372 0.0
C2025 C 0.06202 0.37422 0.9589 0.0
C2026 C 0.05427 0.38186 0.93265 0.0
C2027 C 0.07425 0.35654 0.96057 0.0
C2028 C 0.09253 0.31209 0.91725 0.0
H2029 H 0.22752 0.36395 0.8945 0.0
H2030 H 0.19179 0.36208 0.92314 0.0
H2031 H 0.11032 0.29124 0.89527 0.0
H2032 H 0.05081 0.37516 0.88766 0.0
H2033 H 0.07261 0.34487 0.89043 0.0
H2034 H 0.12784 0.35986 0.9705 0.0
C2035 C 0.18974 0.34324 0.91427 0.0
C2036 C 0.11403 0.3053 0.91265 0.0
C2037 C 0.21009 0.34442 0.89756 0.0
C2038 C 0.05697 0.36992 0.90815 0.0
C2039 C 0.06912 0.35224 0.9098 0.0
C2040 C 0.12324 0.34393 0.95488 0.0
C2041 C 0.16571 0.31855 0.91701 0.0
C2042 C 0.14091 0.31895 0.92802 0.0
C2043 C 0.07886 0.34613 0.93601 0.0
C2044 C 0.09756 0.33274 0.93718 0.0
H2045 H 0.18141 0.27747 0.87733 0.0
H2046 H 0.14574 0.27535 0.90674 0.0
H2047 H 0.165 0.34745 0.96295 0.0
H2048 H 0.06023 0.38315 0.97817 0.0
H2049 H 0.08132 0.35204 0.98106 0.0
C2050 C 0.2472 0.30362 0.33348 0.0
C2051 C 0.2451 0.30074 0.30384 0.0
C2052 C 0.2336 0.31667 0.34718 0.0
C2053 C 0.17864 0.34512 0.3333 0.0
H2054 H 0.20395 0.37269 0.41028 0.0
C2055 C 0.11636 0.39194 0.39338 0.0
C2056 C 0.12936 0.41003 0.41733 0.0
C2057 C 0.13014 0.3789 0.38006 0.0
C2058 C 0.19635 0.36551 0.38866 0.0
H2059 H 0.22619 0.31049 0.26606 0.0
H2060 H 0.20359 0.33326 0.2892 0.0
H2061 H 0.22786 0.35138 0.38723 0.0
H2062 H 0.16864 0.42721 0.44525 0.0
H2063 H 0.1923 0.40572 0.42217 0.0
H2064 H 0.14765 0.35989 0.33444 0.0
C2065 C 0.21526 0.32501 0.30242 0.0
C2066 C 0.21019 0.35261 0.3752 0.0
C2067 C 0.22872 0.31188 0.28879 0.0
C2068 C 0.15719 0.41407 0.42693 0.0
C2069 C 0.17099 0.40109 0.41357 0.0
C2070 C 0.16486 0.35809 0.34672 0.0
C2071 C 0.21704 0.3278 0.33214 0.0
C2072 C 0.20188 0.34193 0.34699 0.0
C2073 C 0.158 0.383 0.38961 0.0
C2074 C 0.17317 0.36877 0.37492 0.0
H2075 H 0.25917 0.29541 0.34636 0.0
H2076 H 0.23585 0.31751 0.36986 0.0
H2077 H 0.17053 0.33731 0.31193 0.0
H2078 H 0.09531 0.38783 0.38437 0.0
H2079 H 0.1184 0.36521 0.36218 0.0
loop_
_geom_bond_atom_site_label_1
_geom_bond_atom_site_label_2
_geom_bond_distance
_geom_bond_site_symmetry_2
_ccdc_geom_bond_type
La0 C2 2.928 1_545 S
La0 O20 2.521 . S
La0 O21 2.628 1_545 S
La0 O22 2.550 1_554 S
La0 O23 2.757 1_554 S
La0 O24 2.470 1_544 S
La0 O29 2.482 1_445 S
La0 O31 2.503 . S
La1 C11 2.928 1_565 S
La1 O23 2.482 1_665 S
La1 O25 2.503 . S
La1 O26 2.521 . S
La1 O27 2.628 1_565 S
La1 O28 2.543 1_556 S
La1 O29 2.757 1_556 S
La1 O30 2.470 1_566 S
C2 La0 2.928 1_565 S
C2 C3 1.503 . S
C2 O20 1.261 1_565 S
C2 O21 1.243 . S
C3 C2 1.503 . S
C3 C4 1.394 . S
C3 C8 1.373 . S
C4 C3 1.394 . S
C4 C5 1.380 . S
C4 H32 0.930 1_565 S
C5 C4 1.380 . S
C5 C6 1.376 . S
C5 H33 0.930 . S
C6 C5 1.376 . S
C6 C7 1.370 . S
C7 C6 1.370 . S
C7 C8 1.396 . S
C7 H34 0.929 . S
C8 C3 1.373 . S
C8 C7 1.396 . S
C8 H35 0.929 . S
C9 O22 1.243 . S
C9 O23 1.289 . S
C10 O24 1.258 . S
C10 O25 1.256 1_455 S
C11 La1 2.928 1_545 S
C11 C12 1.503 . S
C11 O26 1.261 1_545 S
C11 O27 1.243 . S
C12 C11 1.503 . S
C12 C13 1.394 . S
C12 C17 1.373 . S
C13 C12 1.394 . S
C13 C14 1.380 . S
C13 H36 0.930 1_545 S
C14 C13 1.380 . S
C14 C15 1.376 . S
C14 H37 0.930 . S
C15 C14 1.376 . S
C15 C16 1.370 . S
C16 C15 1.370 . S
C16 C17 1.396 . S
C16 H38 0.929 . S
C17 C12 1.373 . S
C17 C16 1.396 . S
C17 H39 0.929 . S
C18 O28 1.249 . S
C18 O29 1.289 . S
C19 O30 1.258 . S
C19 O31 1.256 1_655 S
O20 La0 2.521 . S
O20 C2 1.261 1_545 S
O21 La0 2.628 1_565 S
O21 C2 1.243 . S
O22 La0 2.550 1_556 S
O22 C9 1.243 . S
O23 La0 2.757 1_556 S
O23 La1 2.482 1_445 S
O23 C9 1.289 . S
O24 La0 2.470 1_566 S
O24 C10 1.258 . S
O25 La1 2.503 . S
O25 C10 1.256 1_655 S
O26 La1 2.521 . S
O26 C11 1.261 1_565 S
O27 La1 2.628 1_545 S
O27 C11 1.243 . S
O28 La1 2.543 1_554 S
O28 C18 1.249 . S
O29 La0 2.482 1_665 S
O29 La1 2.757 1_554 S
O29 C18 1.289 . S
O30 La1 2.470 1_544 S
O30 C19 1.258 . S
O31 La0 2.503 . S
O31 C19 1.256 1_455 S
H32 C4 0.930 1_545 S
H33 C5 0.930 . S
H34 C7 0.929 . S
H35 C8 0.929 . S
H36 C13 0.930 1_565 S
H37 C14 0.930 . S
H38 C16 0.929 . S
H39 C17 0.929 . S
La40 C42 2.928 . S
La40 O60 2.521 . S
La40 O61 2.628 . S
La40 O62 2.554 . S
La40 O63 2.757 . S
La40 O64 2.470 . S
La40 O69 2.482 . S
La40 O71 2.503 . S
La41 C51 2.928 . S
La41 O63 2.482 . S
La41 O65 2.503 . S
La41 O66 2.521 . S
La41 O67 2.628 . S
La41 O68 2.554 . S
La41 O69 2.757 . S
La41 O70 2.470 . S
C42 La40 2.928 . S
C42 C43 1.503 . S
C42 O60 1.261 . S
C42 O61 1.243 . S
C43 C42 1.503 . S
C43 C44 1.394 . S
C43 C48 1.373 . S
C44 C43 1.394 . S
C44 C45 1.380 . S
C44 H72 0.930 . S
C45 C44 1.380 . S
C45 C46 1.376 . S
C45 H73 0.930 . S
C46 C45 1.376 . S
C46 C47 1.370 . S
C47 C46 1.370 . S
C47 C48 1.396 . S
C47 H74 0.929 . S
C48 C43 1.373 . S
C48 C47 1.396 . S
C48 H75 0.929 . S
C49 O62 1.240 . S
C49 O63 1.289 . S
C50 O64 1.258 . S
C50 O65 1.256 . S
C51 La41 2.928 . S
C51 C52 1.503 . S
C51 O66 1.261 . S
C51 O67 1.243 . S
C52 C51 1.503 . S
C52 C53 1.394 . S
C52 C57 1.373 . S
C53 C52 1.394 . S
C53 C54 1.380 . S
C53 H76 0.930 . S
C54 C53 1.380 . S
C54 C55 1.376 . S
C54 H77 0.930 . S
C55 C54 1.376 . S
C55 C56 1.370 . S
C56 C55 1.370 . S
C56 C57 1.396 . S
C56 H78 0.929 . S
C57 C52 1.373 . S
C57 C56 1.396 . S
C57 H79 0.929 . S
C58 O68 1.240 . S
C58 O69 1.289 . S
C59 O70 1.258 . S
C59 O71 1.256 . S
O60 La40 2.521 . S
O60 C42 1.261 . S
O61 La40 2.628 . S
O61 C42 1.243 . S
O62 La40 2.554 . S
O62 C49 1.240 . S
O63 La40 2.757 . S
O63 La41 2.482 . S
O63 C49 1.289 . S
O64 La40 2.470 . S
O64 C50 1.258 . S
O65 La41 2.503 . S
O65 C50 1.256 . S
O66 La41 2.521 . S
O66 C51 1.261 . S
O67 La41 2.628 . S
O67 C51 1.243 . S
O68 La41 2.554 . S
O68 C58 1.240 . S
O69 La40 2.482 . S
O69 La41 2.757 . S
O69 C58 1.289 . S
O70 La41 2.470 . S
O70 C59 1.258 . S
O71 La40 2.503 . S
O71 C59 1.256 . S
H72 C44 0.930 . S
H73 C45 0.930 . S
H74 C47 0.929 . S
H75 C48 0.929 . S
H76 C53 0.930 . S
H77 C54 0.930 . S
H78 C56 0.929 . S
H79 C57 0.929 . S
La80 C82 2.928 1_565 S
La80 O100 2.521 . S
La80 O101 2.628 1_565 S
La80 O102 2.554 . S
La80 O103 2.757 . S
La80 O104 2.470 1_565 S
La80 O109 2.482 1_565 S
La80 O111 2.503 . S
La81 C91 2.928 1_545 S
La81 O103 2.482 1_545 S
La81 O105 2.503 . S
La81 O106 2.521 . S
La81 O107 2.628 1_545 S
La81 O108 2.554 . S
La81 O109 2.757 . S
La81 O110 2.470 1_545 S
C82 La80 2.928 1_545 S
C82 C83 1.503 . S
C82 O100 1.261 1_545 S
C82 O101 1.243 . S
C83 C82 1.503 . S
C83 C84 1.394 . S
C83 C88 1.373 . S
C84 C83 1.394 . S
C84 C85 1.380 . S
C84 H112 0.930 1_545 S
C85 C84 1.380 . S
C85 C86 1.376 . S
C85 H113 0.930 . S
C86 C85 1.376 . S
C86 C87 1.370 . S
C87 C86 1.370 . S
C87 C88 1.396 . S
C87 H114 0.929 . S
C88 C83 1.373 . S
C88 C87 1.396 . S
C88 H115 0.929 . S
C89 O102 1.240 . S
C89 O103 1.289 . S
C90 O104 1.258 . S
C90 O105 1.256 . S
C91 La81 2.928 1_565 S
C91 C92 1.503 . S
C91 O106 1.261 1_565 S
C91 O107 1.243 . S
C92 C91 1.503 . S
C92 C93 1.394 . S
C92 C97 1.373 . S
C93 C92 1.394 . S
C93 C94 1.380 . S
C93 H116 0.930 1_565 S
C94 C93 1.380 . S
C94 C95 1.376 . S
C94 H117 0.930 . S
C95 C94 1.376 . S
C95 C96 1.370 . S
C96 C95 1.370 . S
C96 C97 1.396 . S
C96 H118 0.929 . S
C97 C92 1.373 . S
C97 C96 1.396 . S
C97 H119 0.929 . S
C98 O108 1.240 . S
C98 O109 1.289 . S
C99 O110 1.258 . S
C99 O111 1.256 . S
O100 La80 2.521 . S
O100 C82 1.261 1_565 S
O101 La80 2.628 1_545 S
O101 C82 1.243 . S
O102 La80 2.554 . S
O102 C89 1.240 . S
O103 La80 2.757 . S
O103 La81 2.482 1_565 S
O103 C89 1.289 . S
O104 La80 2.470 1_545 S
O104 C90 1.258 . S
O105 La81 2.503 . S
O105 C90 1.256 . S
O106 La81 2.521 . S
O106 C91 1.261 1_545 S
O107 La81 2.628 1_565 S
O107 C91 1.243 . S
O108 La81 2.554 . S
O108 C98 1.240 . S
O109 La80 2.482 1_545 S
O109 La81 2.757 . S
O109 C98 1.289 . S
O110 La81 2.470 1_565 S
O110 C99 1.258 . S
O111 La80 2.503 . S
O111 C99 1.256 . S
H112 C84 0.930 1_565 S
H113 C85 0.930 . S
H114 C87 0.929 . S
H115 C88 0.929 . S
H116 C93 0.930 1_545 S
H117 C94 0.930 . S
H118 C96 0.929 . S
H119 C97 0.929 . S
La120 C122 2.928 . S
La120 O140 2.521 . S
La120 O141 2.628 . S
La120 O142 2.554 . S
La120 O143 2.757 . S
La120 O144 2.470 . S
La120 O149 2.482 . S
La120 O151 2.503 . S
La121 C131 2.928 . S
La121 O143 2.482 . S
La121 O145 2.503 . S
La121 O146 2.521 . S
La121 O147 2.628 . S
La121 O148 2.554 . S
La121 O149 2.757 . S
La121 O150 2.470 . S
C122 La120 2.928 . S
C122 C123 1.503 . S
C122 O140 1.261 . S
C122 O141 1.243 . S
C123 C122 1.503 . S
C123 C124 1.394 . S
C123 C128 1.373 . S
C124 C123 1.394 . S
C124 C125 1.380 . S
C124 H152 0.930 . S
C125 C124 1.380 . S
C125 C126 1.376 . S
C125 H153 0.930 . S
C126 C125 1.376 . S
C126 C127 1.370 . S
C127 C126 1.370 . S
C127 C128 1.396 . S
C127 H154 0.929 . S
C128 C123 1.373 . S
C128 C127 1.396 . S
C128 H155 0.929 . S
C129 O142 1.240 . S
C129 O143 1.289 . S
C130 O144 1.258 . S
C130 O145 1.256 . S
C131 La121 2.928 . S
C131 C132 1.503 . S
C131 O146 1.261 . S
C131 O147 1.243 . S
C132 C131 1.503 . S
C132 C133 1.394 . S
C132 C137 1.373 . S
C133 C132 1.394 . S
C133 C134 1.380 . S
C133 H156 0.930 . S
C134 C133 1.380 . S
C134 C135 1.376 . S
C134 H157 0.930 . S
C135 C134 1.376 . S
C135 C136 1.370 . S
C136 C135 1.370 . S
C136 C137 1.396 . S
C136 H158 0.929 . S
C137 C132 1.373 . S
C137 C136 1.396 . S
C137 H159 0.929 . S
C138 O148 1.240 . S
C138 O149 1.289 . S
C139 O150 1.258 . S
C139 O151 1.256 . S
O140 La120 2.521 . S
O140 C122 1.261 . S
O141 La120 2.628 . S
O141 C122 1.243 . S
O142 La120 2.554 . S
O142 C129 1.240 . S
O143 La120 2.757 . S
O143 La121 2.482 . S
O143 C129 1.289 . S
O144 La120 2.470 . S
O144 C130 1.258 . S
O145 La121 2.503 . S
O145 C130 1.256 . S
O146 La121 2.521 . S
O146 C131 1.261 . S
O147 La121 2.628 . S
O147 C131 1.243 . S
O148 La121 2.554 . S
O148 C138 1.240 . S
O149 La120 2.482 . S
O149 La121 2.757 . S
O149 C138 1.289 . S
O150 La121 2.470 . S
O150 C139 1.258 . S
O151 La120 2.503 . S
O151 C139 1.256 . S
H152 C124 0.930 . S
H153 C125 0.930 . S
H154 C127 0.929 . S
H155 C128 0.929 . S
H156 C133 0.930 . S
H157 C134 0.930 . S
H158 C136 0.929 . S
H159 C137 0.929 . S
La160 C162 2.928 . S
La160 O180 2.521 . S
La160 O181 2.628 . S
La160 O182 2.554 1_455 S
La160 O183 2.757 1_455 S
La160 O184 2.470 1_455 S
La160 O189 2.482 1_565 S
La160 O191 2.503 1_565 S
La161 C171 2.928 . S
La161 O183 2.482 1_545 S
La161 O185 2.503 1_545 S
La161 O186 2.521 . S
La161 O187 2.628 . S
La161 O188 2.554 1_655 S
La161 O189 2.757 1_655 S
La161 O190 2.470 1_655 S
C162 La160 2.928 . S
C162 C163 1.503 . S
C162 O180 1.261 . S
C162 O181 1.243 . S
C163 C162 1.503 . S
C163 C164 1.394 . S
C163 C168 1.373 . S
C164 C163 1.394 . S
C164 C165 1.380 . S
C164 H192 0.930 . S
C165 C164 1.380 . S
C165 C166 1.376 . S
C165 H193 0.930 . S
C166 C165 1.376 . S
C166 C167 1.370 . S
C167 C166 1.370 . S
C167 C168 1.396 . S
C167 H194 0.929 . S
C168 C163 1.373 . S
C168 C167 1.396 . S
C168 H195 0.929 . S
C169 O182 1.240 . S
C169 O183 1.289 . S
C170 O184 1.258 . S
C170 O185 1.256 . S
C171 La161 2.928 . S
C171 C172 1.503 . S
C171 O186 1.261 . S
C171 O187 1.243 . S
C172 C171 1.503 . S
C172 C173 1.394 . S
C172 C177 1.373 . S
C173 C172 1.394 . S
C173 C174 1.380 . S
C173 H196 0.930 . S
C174 C173 1.380 . S
C174 C175 1.376 . S
C174 H197 0.930 . S
C175 C174 1.376 . S
C175 C176 1.370 . S
C176 C175 1.370 . S
C176 C177 1.396 . S
C176 H198 0.929 . S
C177 C172 1.373 . S
C177 C176 1.396 . S
C177 H199 0.929 . S
C178 O188 1.240 . S
C178 O189 1.289 . S
C179 O190 1.258 . S
C179 O191 1.256 . S
O180 La160 2.521 . S
O180 C162 1.261 . S
O181 La160 2.628 . S
O181 C162 1.243 . S
O182 La160 2.554 1_655 S
O182 C169 1.240 . S
O183 La160 2.757 1_655 S
O183 La161 2.482 1_565 S
O183 C169 1.289 . S
O184 La160 2.470 1_655 S
O184 C170 1.258 . S
O185 La161 2.503 1_565 S
O185 C170 1.256 . S
O186 La161 2.521 . S
O186 C171 1.261 . S
O187 La161 2.628 . S
O187 C171 1.243 . S
O188 La161 2.554 1_455 S
O188 C178 1.240 . S
O189 La160 2.482 1_545 S
O189 La161 2.757 1_455 S
O189 C178 1.289 . S
O190 La161 2.470 1_455 S
O190 C179 1.258 . S
O191 La160 2.503 1_545 S
O191 C179 1.256 . S
H192 C164 0.930 . S
H193 C165 0.930 . S
H194 C167 0.929 . S
H195 C168 0.929 . S
H196 C173 0.930 . S
H197 C174 0.930 . S
H198 C176 0.929 . S
H199 C177 0.929 . S
La200 C202 2.928 . S
La200 O220 2.521 . S
La200 O221 2.628 . S
La200 O222 2.554 . S
La200 O223 2.757 . S
La200 O224 2.470 . S
La200 O229 2.482 . S
La200 O231 2.503 . S
La201 C211 2.928 . S
La201 O223 2.482 . S
La201 O225 2.503 . S
La201 O226 2.521 . S
La201 O227 2.628 . S
La201 O228 2.554 . S
La201 O229 2.757 . S
La201 O230 2.470 . S
C202 La200 2.928 . S
C202 C203 1.503 . S
C202 O220 1.261 . S
C202 O221 1.243 . S
C203 C202 1.503 . S
C203 C204 1.394 . S
C203 C208 1.373 . S
C204 C203 1.394 . S
C204 C205 1.380 . S
C204 H232 0.930 . S
C205 C204 1.380 . S
C205 C206 1.376 . S
C205 H233 0.930 . S
C206 C205 1.376 . S
C206 C207 1.370 . S
C207 C206 1.370 . S
C207 C208 1.396 . S
C207 H234 0.929 . S
C208 C203 1.373 . S
C208 C207 1.396 . S
C208 H235 0.929 . S
C209 O222 1.240 . S
C209 O223 1.289 . S
C210 O224 1.258 . S
C210 O225 1.256 . S
C211 La201 2.928 . S
C211 C212 1.503 . S
C211 O226 1.261 . S
C211 O227 1.243 . S
C212 C211 1.503 . S
C212 C213 1.394 . S
C212 C217 1.373 . S
C213 C212 1.394 . S
C213 C214 1.380 . S
C213 H236 0.930 . S
C214 C213 1.380 . S
C214 C215 1.376 . S
C214 H237 0.930 . S
C215 C214 1.376 . S
C215 C216 1.370 . S
C216 C215 1.370 . S
C216 C217 1.396 . S
C216 H238 0.929 . S
C217 C212 1.373 . S
C217 C216 1.396 . S
C217 H239 0.929 . S
C218 O228 1.240 . S
C218 O229 1.289 . S
C219 O230 1.258 . S
C219 O231 1.256 . S
O220 La200 2.521 . S
O220 C202 1.261 . S
O221 La200 2.628 . S
O221 C202 1.243 . S
O222 La200 2.554 . S
O222 C209 1.240 . S
O223 La200 2.757 . S
O223 La201 2.482 . S
O223 C209 1.289 . S
O224 La200 2.470 . S
O224 C210 1.258 . S
O225 La201 2.503 . S
O225 C210 1.256 . S
O226 La201 2.521 . S
O226 C211 1.261 . S
O227 La201 2.628 . S
O227 C211 1.243 . S
O228 La201 2.554 . S
O228 C218 1.240 . S
O229 La200 2.482 . S
O229 La201 2.757 . S
O229 C218 1.289 . S
O230 La201 2.470 . S
O230 C219 1.258 . S
O231 La200 2.503 . S
O231 C219 1.256 . S
H232 C204 0.930 . S
H233 C205 0.930 . S
H234 C207 0.929 . S
H235 C208 0.929 . S
H236 C213 0.930 . S
H237 C214 0.930 . S
H238 C216 0.929 . S
H239 C217 0.929 . S
La240 C242 2.928 1_554 S
La240 O260 2.521 1_554 S
La240 O261 2.628 1_554 S
La240 O262 2.554 1_565 S
La240 O263 2.757 1_565 S
La240 O264 2.470 1_564 S
La240 O269 2.482 1_554 S
La240 O271 2.503 . S
La241 C251 2.928 1_556 S
La241 O263 2.482 1_556 S
La241 O265 2.503 . S
La241 O266 2.521 1_556 S
La241 O267 2.628 1_556 S
La241 O268 2.554 1_545 S
La241 O269 2.757 1_545 S
La241 O270 2.470 1_546 S
C242 La240 2.928 1_556 S
C242 C243 1.503 . S
C242 O260 1.261 . S
C242 O261 1.243 . S
C243 C242 1.503 . S
C243 C244 1.394 . S
C243 C248 1.373 . S
C244 C243 1.394 . S
C244 C245 1.380 . S
C244 H272 0.930 . S
C245 C244 1.380 . S
C245 C246 1.376 . S
C245 H273 0.930 . S
C246 C245 1.376 . S
C246 C247 1.370 . S
C247 C246 1.370 . S
C247 C248 1.396 . S
C247 H274 0.929 . S
C248 C243 1.373 . S
C248 C247 1.396 . S
C248 H275 0.929 . S
C249 O262 1.240 . S
C249 O263 1.289 . S
C250 O264 1.258 . S
C250 O265 1.256 . S
C251 La241 2.928 1_554 S
C251 C252 1.503 . S
C251 O266 1.261 . S
C251 O267 1.243 . S
C252 C251 1.503 . S
C252 C253 1.394 . S
C252 C257 1.373 . S
C253 C252 1.394 . S
C253 C254 1.380 . S
C253 H276 0.930 . S
C254 C253 1.380 . S
C254 C255 1.376 . S
C254 H277 0.930 . S
C255 C254 1.376 . S
C255 C256 1.370 . S
C256 C255 1.370 . S
C256 C257 1.396 . S
C256 H278 0.929 . S
C257 C252 1.373 . S
C257 C256 1.396 . S
C257 H279 0.929 . S
C258 O268 1.240 . S
C258 O269 1.289 . S
C259 O270 1.258 . S
C259 O271 1.256 . S
O260 La240 2.521 1_556 S
O260 C242 1.261 . S
O261 La240 2.628 1_556 S
O261 C242 1.243 . S
O262 La240 2.554 1_545 S
O262 C249 1.240 . S
O263 La240 2.757 1_545 S
O263 La241 2.482 1_554 S
O263 C249 1.289 . S
O264 La240 2.470 1_546 S
O264 C250 1.258 . S
O265 La241 2.503 . S
O265 C250 1.256 . S
O266 La241 2.521 1_554 S
O266 C251 1.261 . S
O267 La241 2.628 1_554 S
O267 C251 1.243 . S
O268 La241 2.554 1_565 S
O268 C258 1.240 . S
O269 La240 2.482 1_556 S
O269 La241 2.757 1_565 S
O269 C258 1.289 . S
O270 La241 2.470 1_564 S
O270 C259 1.258 . S
O271 La240 2.503 . S
O271 C259 1.256 . S
H272 C244 0.930 . S
H273 C245 0.930 . S
H274 C247 0.929 . S
H275 C248 0.929 . S
H276 C253 0.930 . S
H277 C254 0.930 . S
H278 C256 0.929 . S
H279 C257 0.929 . S
La280 C282 2.928 . S
La280 O300 2.521 . S
La280 O301 2.628 . S
La280 O302 2.554 . S
La280 O303 2.757 . S
La280 O304 2.470 . S
La280 O309 2.482 . S
La280 O311 2.503 . S
La281 C291 2.928 . S
La281 O303 2.482 . S
La281 O305 2.503 . S
La281 O306 2.521 . S
La281 O307 2.628 . S
La281 O308 2.554 . S
La281 O309 2.757 . S
La281 O310 2.470 . S
C282 La280 2.928 . S
C282 C283 1.503 . S
C282 O300 1.261 . S
C282 O301 1.243 . S
C283 C282 1.503 . S
C283 C284 1.394 . S
C283 C288 1.373 . S
C284 C283 1.394 . S
C284 C285 1.380 . S
C284 H312 0.930 . S
C285 C284 1.380 . S
C285 C286 1.376 . S
C285 H313 0.930 . S
C286 C285 1.376 . S
C286 C287 1.370 . S
C287 C286 1.370 . S
C287 C288 1.396 . S
C287 H314 0.929 . S
C288 C283 1.373 . S
C288 C287 1.396 . S
C288 H315 0.929 . S
C289 O302 1.240 . S
C289 O303 1.289 . S
C290 O304 1.258 . S
C290 O305 1.256 . S
C291 La281 2.928 . S
C291 C292 1.503 . S
C291 O306 1.261 . S
C291 O307 1.243 . S
C292 C291 1.503 . S
C292 C293 1.394 . S
C292 C297 1.373 . S
C293 C292 1.394 . S
C293 C294 1.380 . S
C293 H316 0.930 . S
C294 C293 1.380 . S
C294 C295 1.376 . S
C294 H317 0.930 . S
C295 C294 1.376 . S
C295 C296 1.370 . S
C296 C295 1.370 . S
C296 C297 1.396 . S
C296 H318 0.929 . S
C297 C292 1.373 . S
C297 C296 1.396 . S
C297 H319 0.929 . S
C298 O308 1.240 . S
C298 O309 1.289 . S
C299 O310 1.258 . S
C299 O311 1.256 . S
O300 La280 2.521 . S
O300 C282 1.261 . S
O301 La280 2.628 . S
O301 C282 1.243 . S
O302 La280 2.554 . S
O302 C289 1.240 . S
O303 La280 2.757 . S
O303 La281 2.482 . S
O303 C289 1.289 . S
O304 La280 2.470 . S
O304 C290 1.258 . S
O305 La281 2.503 . S
O305 C290 1.256 . S
O306 La281 2.521 . S
O306 C291 1.261 . S
O307 La281 2.628 . S
O307 C291 1.243 . S
O308 La281 2.554 . S
O308 C298 1.240 . S
O309 La280 2.482 . S
O309 La281 2.757 . S
O309 C298 1.289 . S
O310 La281 2.470 . S
O310 C299 1.258 . S
O311 La280 2.503 . S
O311 C299 1.256 . S
H312 C284 0.930 . S
H313 C285 0.930 . S
H314 C287 0.929 . S
H315 C288 0.929 . S
H316 C293 0.930 . S
H317 C294 0.930 . S
H318 C296 0.929 . S
H319 C297 0.929 . S
La320 C322 2.928 1_556 S
La320 O340 2.521 1_556 S
La320 O341 2.628 1_556 S
La320 O342 2.554 . S
La320 O343 2.757 . S
La320 O344 2.470 1_556 S
La320 O349 2.482 1_556 S
La320 O351 2.503 . S
La321 C331 2.928 1_554 S
La321 O343 2.482 1_554 S
La321 O345 2.503 . S
La321 O346 2.521 1_554 S
La321 O347 2.628 1_554 S
La321 O348 2.554 . S
La321 O349 2.757 . S
La321 O350 2.470 1_554 S
C322 La320 2.928 1_554 S
C322 C323 1.503 . S
C322 O340 1.261 . S
C322 O341 1.243 . S
C323 C322 1.503 . S
C323 C324 1.394 . S
C323 C328 1.373 . S
C324 C323 1.394 . S
C324 C325 1.380 . S
C324 H352 0.930 . S
C325 C324 1.380 . S
C325 C326 1.376 . S
C325 H353 0.930 . S
C326 C325 1.376 . S
C326 C327 1.370 . S
C327 C326 1.370 . S
C327 C328 1.396 . S
C327 H354 0.929 . S
C328 C323 1.373 . S
C328 C327 1.396 . S
C328 H355 0.929 . S
C329 O342 1.240 . S
C329 O343 1.289 . S
C330 O344 1.258 . S
C330 O345 1.256 . S
C331 La321 2.928 1_556 S
C331 C332 1.503 . S
C331 O346 1.261 . S
C331 O347 1.243 . S
C332 C331 1.503 . S
C332 C333 1.394 . S
C332 C337 1.373 . S
C333 C332 1.394 . S
C333 C334 1.380 . S
C333 H356 0.930 . S
C334 C333 1.380 . S
C334 C335 1.376 . S
C334 H357 0.930 . S
C335 C334 1.376 . S
C335 C336 1.370 . S
C336 C335 1.370 . S
C336 C337 1.396 . S
C336 H358 0.929 . S
C337 C332 1.373 . S
C337 C336 1.396 . S
C337 H359 0.929 . S
C338 O348 1.240 . S
C338 O349 1.289 . S
C339 O350 1.258 . S
C339 O351 1.256 . S
O340 La320 2.521 1_554 S
O340 C322 1.261 . S
O341 La320 2.628 1_554 S
O341 C322 1.243 . S
O342 La320 2.554 . S
O342 C329 1.240 . S
O343 La320 2.757 . S
O343 La321 2.482 1_556 S
O343 C329 1.289 . S
O344 La320 2.470 1_554 S
O344 C330 1.258 . S
O345 La321 2.503 . S
O345 C330 1.256 . S
O346 La321 2.521 1_556 S
O346 C331 1.261 . S
O347 La321 2.628 1_556 S
O347 C331 1.243 . S
O348 La321 2.554 . S
O348 C338 1.240 . S
O349 La320 2.482 1_554 S
O349 La321 2.757 . S
O349 C338 1.289 . S
O350 La321 2.470 1_556 S
O350 C339 1.258 . S
O351 La320 2.503 . S
O351 C339 1.256 . S
H352 C324 0.930 . S
H353 C325 0.930 . S
H354 C327 0.929 . S
H355 C328 0.929 . S
H356 C333 0.930 . S
H357 C334 0.930 . S
H358 C336 0.929 . S
H359 C337 0.929 . S
La360 C362 2.928 . S
La360 O380 2.521 . S
La360 O381 2.628 . S
La360 O382 2.554 . S
La360 O383 2.757 . S
La360 O384 2.470 . S
La360 O389 2.482 . S
La360 O391 2.503 . S
La361 C371 2.928 . S
La361 O383 2.482 . S
La361 O385 2.503 . S
La361 O386 2.521 . S
La361 O387 2.628 . S
La361 O388 2.554 . S
La361 O389 2.757 . S
La361 O390 2.470 . S
C362 La360 2.928 . S
C362 C363 1.503 . S
C362 O380 1.261 . S
C362 O381 1.243 . S
C363 C362 1.503 . S
C363 C364 1.394 . S
C363 C368 1.373 . S
C364 C363 1.394 . S
C364 C365 1.380 . S
C364 H392 0.930 . S
C365 C364 1.380 . S
C365 C366 1.376 . S
C365 H393 0.930 . S
C366 C365 1.376 . S
C366 C367 1.370 . S
C367 C366 1.370 . S
C367 C368 1.396 . S
C367 H394 0.929 . S
C368 C363 1.373 . S
C368 C367 1.396 . S
C368 H395 0.929 . S
C369 O382 1.240 . S
C369 O383 1.289 . S
C370 O384 1.258 . S
C370 O385 1.256 . S
C371 La361 2.928 . S
C371 C372 1.503 . S
C371 O386 1.261 . S
C371 O387 1.243 . S
C372 C371 1.503 . S
C372 C373 1.394 . S
C372 C377 1.373 . S
C373 C372 1.394 . S
C373 C374 1.380 . S
C373 H396 0.930 . S
C374 C373 1.380 . S
C374 C375 1.376 . S
C374 H397 0.930 . S
C375 C374 1.376 . S
C375 C376 1.370 . S
C376 C375 1.370 . S
C376 C377 1.396 . S
C376 H398 0.929 . S
C377 C372 1.373 . S
C377 C376 1.396 . S
C377 H399 0.929 . S
C378 O388 1.240 . S
C378 O389 1.289 . S
C379 O390 1.258 . S
C379 O391 1.256 . S
O380 La360 2.521 . S
O380 C362 1.261 . S
O381 La360 2.628 . S
O381 C362 1.243 . S
O382 La360 2.554 . S
O382 C369 1.240 . S
O383 La360 2.757 . S
O383 La361 2.482 . S
O383 C369 1.289 . S
O384 La360 2.470 . S
O384 C370 1.258 . S
O385 La361 2.503 . S
O385 C370 1.256 . S
O386 La361 2.521 . S
O386 C371 1.261 . S
O387 La361 2.628 . S
O387 C371 1.243 . S
O388 La361 2.554 . S
O388 C378 1.240 . S
O389 La360 2.482 . S
O389 La361 2.757 . S
O389 C378 1.289 . S
O390 La361 2.470 . S
O390 C379 1.258 . S
O391 La360 2.503 . S
O391 C379 1.256 . S
H392 C364 0.930 . S
H393 C365 0.930 . S
H394 C367 0.929 . S
H395 C368 0.929 . S
H396 C373 0.930 . S
H397 C374 0.930 . S
H398 C376 0.929 . S
H399 C377 0.929 . S
La400 C402 2.928 . S
La400 O420 2.521 . S
La400 O421 2.628 . S
La400 O422 2.554 . S
La400 O423 2.757 . S
La400 O424 2.470 . S
La400 O429 2.482 1_455 S
La400 O431 2.503 1_455 S
La401 C411 2.928 . S
La401 O423 2.482 1_655 S
La401 O425 2.503 1_655 S
La401 O426 2.521 . S
La401 O427 2.628 . S
La401 O428 2.554 . S
La401 O429 2.757 . S
La401 O430 2.470 . S
C402 La400 2.928 . S
C402 C403 1.503 . S
C402 O420 1.261 . S
C402 O421 1.243 . S
C403 C402 1.503 . S
C403 C404 1.394 . S
C403 C408 1.373 . S
C404 C403 1.394 . S
C404 C405 1.380 . S
C404 H432 0.930 . S
C405 C404 1.380 . S
C405 C406 1.376 . S
C405 H433 0.930 . S
C406 C405 1.376 . S
C406 C407 1.370 . S
C407 C406 1.370 . S
C407 C408 1.396 . S
C407 H434 0.929 . S
C408 C403 1.373 . S
C408 C407 1.396 . S
C408 H435 0.929 . S
C409 O422 1.240 . S
C409 O423 1.289 . S
C410 O424 1.258 . S
C410 O425 1.256 . S
C411 La401 2.928 . S
C411 C412 1.503 . S
C411 O426 1.261 . S
C411 O427 1.243 . S
C412 C411 1.503 . S
C412 C413 1.394 . S
C412 C417 1.373 . S
C413 C412 1.394 . S
C413 C414 1.380 . S
C413 H436 0.930 . S
C414 C413 1.380 . S
C414 C415 1.376 . S
C414 H437 0.930 . S
C415 C414 1.376 . S
C415 C416 1.370 . S
C416 C415 1.370 . S
C416 C417 1.396 . S
C416 H438 0.929 . S
C417 C412 1.373 . S
C417 C416 1.396 . S
C417 H439 0.929 . S
C418 O428 1.240 . S
C418 O429 1.289 . S
C419 O430 1.258 . S
C419 O431 1.256 . S
O420 La400 2.521 . S
O420 C402 1.261 . S
O421 La400 2.628 . S
O421 C402 1.243 . S
O422 La400 2.554 . S
O422 C409 1.240 . S
O423 La400 2.757 . S
O423 La401 2.482 1_455 S
O423 C409 1.289 . S
O424 La400 2.470 . S
O424 C410 1.258 . S
O425 La401 2.503 1_455 S
O425 C410 1.256 . S
O426 La401 2.521 . S
O426 C411 1.261 . S
O427 La401 2.628 . S
O427 C411 1.243 . S
O428 La401 2.554 . S
O428 C418 1.240 . S
O429 La400 2.482 1_655 S
O429 La401 2.757 . S
O429 C418 1.289 . S
O430 La401 2.470 . S
O430 C419 1.258 . S
O431 La400 2.503 1_655 S
O431 C419 1.256 . S
H432 C404 0.930 . S
H433 C405 0.930 . S
H434 C407 0.929 . S
H435 C408 0.929 . S
H436 C413 0.930 . S
H437 C414 0.930 . S
H438 C416 0.929 . S
H439 C417 0.929 . S
La440 C442 2.928 . S
La440 O460 2.521 . S
La440 O461 2.628 . S
La440 O462 2.554 . S
La440 O463 2.757 . S
La440 O464 2.470 . S
La440 O469 2.482 . S
La440 O471 2.503 . S
La441 C451 2.928 . S
La441 O463 2.482 . S
La441 O465 2.503 . S
La441 O466 2.521 . S
La441 O467 2.628 . S
La441 O468 2.554 . S
La441 O469 2.757 . S
La441 O470 2.470 . S
C442 La440 2.928 . S
C442 C443 1.503 . S
C442 O460 1.261 . S
C442 O461 1.243 . S
C443 C442 1.503 . S
C443 C444 1.394 . S
C443 C448 1.373 . S
C444 C443 1.394 . S
C444 C445 1.380 . S
C444 H472 0.930 . S
C445 C444 1.380 . S
C445 C446 1.376 . S
C445 H473 0.930 . S
C446 C445 1.376 . S
C446 C447 1.370 . S
C447 C446 1.370 . S
C447 C448 1.396 . S
C447 H474 0.929 . S
C448 C443 1.373 . S
C448 C447 1.396 . S
C448 H475 0.929 . S
C449 O462 1.240 . S
C449 O463 1.289 . S
C450 O464 1.258 . S
C450 O465 1.256 . S
C451 La441 2.928 . S
C451 C452 1.503 . S
C451 O466 1.261 . S
C451 O467 1.243 . S
C452 C451 1.503 . S
C452 C453 1.394 . S
C452 C457 1.373 . S
C453 C452 1.394 . S
C453 C454 1.380 . S
C453 H476 0.930 . S
C454 C453 1.380 . S
C454 C455 1.376 . S
C454 H477 0.930 . S
C455 C454 1.376 . S
C455 C456 1.370 . S
C456 C455 1.370 . S
C456 C457 1.396 . S
C456 H478 0.929 . S
C457 C452 1.373 . S
C457 C456 1.396 . S
C457 H479 0.929 . S
C458 O468 1.240 . S
C458 O469 1.289 . S
C459 O470 1.258 . S
C459 O471 1.256 . S
O460 La440 2.521 . S
O460 C442 1.261 . S
O461 La440 2.628 . S
O461 C442 1.243 . S
O462 La440 2.554 . S
O462 C449 1.240 . S
O463 La440 2.757 . S
O463 La441 2.482 . S
O463 C449 1.289 . S
O464 La440 2.470 . S
O464 C450 1.258 . S
O465 La441 2.503 . S
O465 C450 1.256 . S
O466 La441 2.521 . S
O466 C451 1.261 . S
O467 La441 2.628 . S
O467 C451 1.243 . S
O468 La441 2.554 . S
O468 C458 1.240 . S
O469 La440 2.482 . S
O469 La441 2.757 . S
O469 C458 1.289 . S
O470 La441 2.470 . S
O470 C459 1.258 . S
O471 La440 2.503 . S
O471 C459 1.256 . S
H472 C444 0.930 . S
H473 C445 0.930 . S
H474 C447 0.929 . S
H475 C448 0.929 . S
H476 C453 0.930 . S
H477 C454 0.930 . S
H478 C456 0.929 . S
H479 C457 0.929 . S
La480 C482 2.928 . S
La480 O500 2.521 . S
La480 O501 2.628 . S
La480 O502 2.554 . S
La480 O503 2.757 . S
La480 O504 2.470 . S
La480 O509 2.482 . S
La480 O511 2.503 . S
La481 C491 2.928 . S
La481 O503 2.482 . S
La481 O505 2.503 . S
La481 O506 2.521 . S
La481 O507 2.628 . S
La481 O508 2.554 . S
La481 O509 2.757 . S
La481 O510 2.470 . S
C482 La480 2.928 . S
C482 C483 1.503 . S
C482 O500 1.261 . S
C482 O501 1.243 . S
C483 C482 1.503 . S
C483 C484 1.394 . S
C483 C488 1.373 . S
C484 C483 1.394 . S
C484 C485 1.380 . S
C484 H512 0.930 . S
C485 C484 1.380 . S
C485 C486 1.376 . S
C485 H513 0.930 . S
C486 C485 1.376 . S
C486 C487 1.370 . S
C487 C486 1.370 . S
C487 C488 1.396 . S
C487 H514 0.929 . S
C488 C483 1.373 . S
C488 C487 1.396 . S
C488 H515 0.929 . S
C489 O502 1.240 . S
C489 O503 1.289 . S
C490 O504 1.258 . S
C490 O505 1.256 . S
C491 La481 2.928 . S
C491 C492 1.503 . S
C491 O506 1.261 . S
C491 O507 1.243 . S
C492 C491 1.503 . S
C492 C493 1.394 . S
C492 C497 1.373 . S
C493 C492 1.394 . S
C493 C494 1.380 . S
C493 H516 0.930 . S
C494 C493 1.380 . S
C494 C495 1.376 . S
C494 H517 0.930 . S
C495 C494 1.376 . S
C495 C496 1.370 . S
C496 C495 1.370 . S
C496 C497 1.396 . S
C496 H518 0.929 . S
C497 C492 1.373 . S
C497 C496 1.396 . S
C497 H519 0.929 . S
C498 O508 1.240 . S
C498 O509 1.289 . S
C499 O510 1.258 . S
C499 O511 1.256 . S
O500 La480 2.521 . S
O500 C482 1.261 . S
O501 La480 2.628 . S
O501 C482 1.243 . S
O502 La480 2.554 . S
O502 C489 1.240 . S
O503 La480 2.757 . S
O503 La481 2.482 . S
O503 C489 1.289 . S
O504 La480 2.470 . S
O504 C490 1.258 . S
O505 La481 2.503 . S
O505 C490 1.256 . S
O506 La481 2.521 . S
O506 C491 1.261 . S
O507 La481 2.628 . S
O507 C491 1.243 . S
O508 La481 2.554 . S
O508 C498 1.240 . S
O509 La480 2.482 . S
O509 La481 2.757 . S
O509 C498 1.289 . S
O510 La481 2.470 . S
O510 C499 1.258 . S
O511 La480 2.503 . S
O511 C499 1.256 . S
H512 C484 0.930 . S
H513 C485 0.930 . S
H514 C487 0.929 . S
H515 C488 0.929 . S
H516 C493 0.930 . S
H517 C494 0.930 . S
H518 C496 0.929 . S
H519 C497 0.929 . S
La520 C522 2.928 . S
La520 O540 2.521 . S
La520 O541 2.628 . S
La520 O542 2.554 . S
La520 O543 2.757 . S
La520 O544 2.470 . S
La520 O549 2.482 . S
La520 O551 2.503 . S
La521 C531 2.928 . S
La521 O543 2.482 . S
La521 O545 2.503 . S
La521 O546 2.521 . S
La521 O547 2.628 . S
La521 O548 2.554 . S
La521 O549 2.757 . S
La521 O550 2.470 . S
C522 La520 2.928 . S
C522 C523 1.503 . S
C522 O540 1.261 . S
C522 O541 1.243 . S
C523 C522 1.503 . S
C523 C524 1.394 . S
C523 C528 1.373 . S
C524 C523 1.394 . S
C524 C525 1.380 . S
C524 H552 0.930 . S
C525 C524 1.380 . S
C525 C526 1.376 . S
C525 H553 0.930 . S
C526 C525 1.376 . S
C526 C527 1.370 . S
C527 C526 1.370 . S
C527 C528 1.396 . S
C527 H554 0.929 . S
C528 C523 1.373 . S
C528 C527 1.396 . S
C528 H555 0.929 . S
C529 O542 1.240 . S
C529 O543 1.289 . S
C530 O544 1.258 . S
C530 O545 1.256 . S
C531 La521 2.928 . S
C531 C532 1.503 . S
C531 O546 1.261 . S
C531 O547 1.243 . S
C532 C531 1.503 . S
C532 C533 1.394 . S
C532 C537 1.373 . S
C533 C532 1.394 . S
C533 C534 1.380 . S
C533 H556 0.930 . S
C534 C533 1.380 . S
C534 C535 1.376 . S
C534 H557 0.930 . S
C535 C534 1.376 . S
C535 C536 1.370 . S
C536 C535 1.370 . S
C536 C537 1.396 . S
C536 H558 0.929 . S
C537 C532 1.373 . S
C537 C536 1.396 . S
C537 H559 0.929 . S
C538 O548 1.240 . S
C538 O549 1.289 . S
C539 O550 1.258 . S
C539 O551 1.256 . S
O540 La520 2.521 . S
O540 C522 1.261 . S
O541 La520 2.628 . S
O541 C522 1.243 . S
O542 La520 2.554 . S
O542 C529 1.240 . S
O543 La520 2.757 . S
O543 La521 2.482 . S
O543 C529 1.289 . S
O544 La520 2.470 . S
O544 C530 1.258 . S
O545 La521 2.503 . S
O545 C530 1.256 . S
O546 La521 2.521 . S
O546 C531 1.261 . S
O547 La521 2.628 . S
O547 C531 1.243 . S
O548 La521 2.554 . S
O548 C538 1.240 . S
O549 La520 2.482 . S
O549 La521 2.757 . S
O549 C538 1.289 . S
O550 La521 2.470 . S
O550 C539 1.258 . S
O551 La520 2.503 . S
O551 C539 1.256 . S
H552 C524 0.930 . S
H553 C525 0.930 . S
H554 C527 0.929 . S
H555 C528 0.929 . S
H556 C533 0.930 . S
H557 C534 0.930 . S
H558 C536 0.929 . S
H559 C537 0.929 . S
La560 C562 2.928 . S
La560 O580 2.521 . S
La560 O581 2.628 . S
La560 O582 2.554 . S
La560 O583 2.757 . S
La560 O584 2.470 . S
La560 O589 2.482 . S
La560 O591 2.503 . S
La561 C571 2.928 . S
La561 O583 2.482 . S
La561 O585 2.503 . S
La561 O586 2.521 . S
La561 O587 2.628 . S
La561 O588 2.554 . S
La561 O589 2.757 . S
La561 O590 2.470 . S
C562 La560 2.928 . S
C562 C563 1.503 . S
C562 O580 1.261 . S
C562 O581 1.243 . S
C563 C562 1.503 . S
C563 C564 1.394 . S
C563 C568 1.373 . S
C564 C563 1.394 . S
C564 C565 1.380 . S
C564 H592 0.930 . S
C565 C564 1.380 . S
C565 C566 1.376 . S
C565 H593 0.930 . S
C566 C565 1.376 . S
C566 C567 1.370 . S
C567 C566 1.370 . S
C567 C568 1.396 . S
C567 H594 0.929 . S
C568 C563 1.373 . S
C568 C567 1.396 . S
C568 H595 0.929 . S
C569 O582 1.240 . S
C569 O583 1.289 . S
C570 O584 1.258 . S
C570 O585 1.256 . S
C571 La561 2.928 . S
C571 C572 1.503 . S
C571 O586 1.261 . S
C571 O587 1.243 . S
C572 C571 1.503 . S
C572 C573 1.394 . S
C572 C577 1.373 . S
C573 C572 1.394 . S
C573 C574 1.380 . S
C573 H596 0.930 . S
C574 C573 1.380 . S
C574 C575 1.376 . S
C574 H597 0.930 . S
C575 C574 1.376 . S
C575 C576 1.370 . S
C576 C575 1.370 . S
C576 C577 1.396 . S
C576 H598 0.929 . S
C577 C572 1.373 . S
C577 C576 1.396 . S
C577 H599 0.929 . S
C578 O588 1.240 . S
C578 O589 1.289 . S
C579 O590 1.258 . S
C579 O591 1.256 . S
O580 La560 2.521 . S
O580 C562 1.261 . S
O581 La560 2.628 . S
O581 C562 1.243 . S
O582 La560 2.554 . S
O582 C569 1.240 . S
O583 La560 2.757 . S
O583 La561 2.482 . S
O583 C569 1.289 . S
O584 La560 2.470 . S
O584 C570 1.258 . S
O585 La561 2.503 . S
O585 C570 1.256 . S
O586 La561 2.521 . S
O586 C571 1.261 . S
O587 La561 2.628 . S
O587 C571 1.243 . S
O588 La561 2.554 . S
O588 C578 1.240 . S
O589 La560 2.482 . S
O589 La561 2.757 . S
O589 C578 1.289 . S
O590 La561 2.470 . S
O590 C579 1.258 . S
O591 La560 2.503 . S
O591 C579 1.256 . S
H592 C564 0.930 . S
H593 C565 0.930 . S
H594 C567 0.929 . S
H595 C568 0.929 . S
H596 C573 0.930 . S
H597 C574 0.930 . S
H598 C576 0.929 . S
H599 C577 0.929 . S
La600 C602 2.928 . S
La600 O620 2.521 . S
La600 O621 2.628 . S
La600 O622 2.554 1_554 S
La600 O623 2.757 1_554 S
La600 O624 2.470 1_554 S
La600 O629 2.482 1_655 S
La600 O631 2.503 . S
La601 C611 2.928 . S
La601 O623 2.482 1_455 S
La601 O625 2.503 . S
La601 O626 2.521 . S
La601 O627 2.628 . S
La601 O628 2.554 1_556 S
La601 O629 2.757 1_556 S
La601 O630 2.470 1_556 S
C602 La600 2.928 . S
C602 C603 1.503 . S
C602 O620 1.261 . S
C602 O621 1.243 . S
C603 C602 1.503 . S
C603 C604 1.394 . S
C603 C608 1.373 . S
C604 C603 1.394 . S
C604 C605 1.380 . S
C604 H632 0.930 . S
C605 C604 1.380 . S
C605 C606 1.376 . S
C605 H633 0.930 . S
C606 C605 1.376 . S
C606 C607 1.370 . S
C607 C606 1.370 . S
C607 C608 1.396 . S
C607 H634 0.929 . S
C608 C603 1.373 . S
C608 C607 1.396 . S
C608 H635 0.929 . S
C609 O622 1.240 . S
C609 O623 1.289 . S
C610 O624 1.258 . S
C610 O625 1.256 1_655 S
C611 La601 2.928 . S
C611 C612 1.503 . S
C611 O626 1.261 . S
C611 O627 1.243 . S
C612 C611 1.503 . S
C612 C613 1.394 . S
C612 C617 1.373 . S
C613 C612 1.394 . S
C613 C614 1.380 . S
C613 H636 0.930 . S
C614 C613 1.380 . S
C614 C615 1.376 . S
C614 H637 0.930 . S
C615 C614 1.376 . S
C615 C616 1.370 . S
C616 C615 1.370 . S
C616 C617 1.396 . S
C616 H638 0.929 . S
C617 C612 1.373 . S
C617 C616 1.396 . S
C617 H639 0.929 . S
C618 O628 1.240 . S
C618 O629 1.289 . S
C619 O630 1.258 . S
C619 O631 1.256 1_455 S
O620 La600 2.521 . S
O620 C602 1.261 . S
O621 La600 2.628 . S
O621 C602 1.243 . S
O622 La600 2.554 1_556 S
O622 C609 1.240 . S
O623 La600 2.757 1_556 S
O623 La601 2.482 1_655 S
O623 C609 1.289 . S
O624 La600 2.470 1_556 S
O624 C610 1.258 . S
O625 La601 2.503 . S
O625 C610 1.256 1_455 S
O626 La601 2.521 . S
O626 C611 1.261 . S
O627 La601 2.628 . S
O627 C611 1.243 . S
O628 La601 2.554 1_554 S
O628 C618 1.240 . S
O629 La600 2.482 1_455 S
O629 La601 2.757 1_554 S
O629 C618 1.289 . S
O630 La601 2.470 1_554 S
O630 C619 1.258 . S
O631 La600 2.503 . S
O631 C619 1.256 1_655 S
H632 C604 0.930 . S
H633 C605 0.930 . S
H634 C607 0.929 . S
H635 C608 0.929 . S
H636 C613 0.930 . S
H637 C614 0.930 . S
H638 C616 0.929 . S
H639 C617 0.929 . S
C640 C641 1.349 . S
C640 C642 1.327 . S
C640 H665 0.950 . S
C641 C640 1.349 . S
C641 C657 1.349 . S
C642 C640 1.327 . S
C642 C661 1.429 . S
C642 H666 0.950 . S
C643 C660 1.574 . S
C643 C662 1.368 . S
C643 H667 0.949 . S
H644 C648 0.949 . S
C645 C646 1.349 . S
C645 C647 1.327 . S
C645 H668 0.950 . S
C646 C645 1.349 . S
C646 C658 1.349 . S
C647 C645 1.327 . S
C647 C663 1.429 . S
C647 H669 0.950 . S
C648 H644 0.949 . S
C648 C656 1.574 . S
C648 C664 1.368 . S
H649 C657 0.950 . S
H650 C655 0.950 . S
H651 C656 0.949 . S
H652 C658 0.950 . S
H653 C659 0.950 . S
H654 C660 0.949 . S
C655 H650 0.950 . S
C655 C657 1.327 . S
C655 C661 1.429 . S
C656 C648 1.574 . S
C656 H651 0.949 . S
C656 C662 1.368 . S
C657 C641 1.349 . S
C657 H649 0.950 . S
C657 C655 1.327 . S
C658 C646 1.349 . S
C658 H652 0.950 . S
C658 C659 1.327 . S
C659 H653 0.950 . S
C659 C658 1.327 . S
C659 C663 1.429 . S
C660 C643 1.574 . S
C660 H654 0.949 . S
C660 C664 1.368 . S
C661 C642 1.429 . S
C661 C655 1.429 . S
C661 C662 1.523 . S
C662 C643 1.368 . S
C662 C656 1.368 . S
C662 C661 1.523 . S
C663 C647 1.429 . S
C663 C659 1.429 . S
C663 C664 1.523 . S
C664 C648 1.368 . S
C664 C660 1.368 . S
C664 C663 1.523 . S
H665 C640 0.950 . S
H666 C642 0.950 . S
H667 C643 0.949 . S
H668 C645 0.950 . S
H669 C647 0.950 . S
C670 C671 1.349 . S
C670 C672 1.327 . S
C670 H695 0.950 . S
C671 C670 1.349 . S
C671 C687 1.349 . S
C672 C670 1.327 . S
C672 C691 1.429 . S
C672 H696 0.950 . S
C673 C690 1.574 . S
C673 C692 1.368 . S
C673 H697 0.949 . S
H674 C678 0.949 . S
C675 C676 1.349 . S
C675 C677 1.327 . S
C675 H698 0.950 . S
C676 C675 1.349 . S
C676 C688 1.349 . S
C677 C675 1.327 . S
C677 C693 1.429 . S
C677 H699 0.950 . S
C678 H674 0.949 . S
C678 C686 1.574 . S
C678 C694 1.368 . S
H679 C687 0.950 . S
H680 C685 0.950 . S
H681 C686 0.949 . S
H682 C688 0.950 . S
H683 C689 0.950 . S
H684 C690 0.949 . S
C685 H680 0.950 . S
C685 C687 1.327 . S
C685 C691 1.429 . S
C686 C678 1.574 . S
C686 H681 0.949 . S
C686 C692 1.368 . S
C687 C671 1.349 . S
C687 H679 0.950 . S
C687 C685 1.327 . S
C688 C676 1.349 . S
C688 H682 0.950 . S
C688 C689 1.327 . S
C689 H683 0.950 . S
C689 C688 1.327 . S
C689 C693 1.429 . S
C690 C673 1.574 . S
C690 H684 0.949 . S
C690 C694 1.368 . S
C691 C672 1.429 . S
C691 C685 1.429 . S
C691 C692 1.523 . S
C692 C673 1.368 . S
C692 C686 1.368 . S
C692 C691 1.523 . S
C693 C677 1.429 . S
C693 C689 1.429 . S
C693 C694 1.523 . S
C694 C678 1.368 . S
C694 C690 1.368 . S
C694 C693 1.523 . S
H695 C670 0.950 . S
H696 C672 0.950 . S
H697 C673 0.949 . S
H698 C675 0.950 . S
H699 C677 0.950 . S
C700 C701 1.349 . S
C700 C702 1.327 . S
C700 H725 0.950 . S
C701 C700 1.349 . S
C701 C717 1.349 . S
C702 C700 1.327 . S
C702 C721 1.429 . S
C702 H726 0.950 . S
C703 C720 1.574 . S
C703 C722 1.368 . S
C703 H727 0.949 . S
H704 C708 0.949 . S
C705 C706 1.349 . S
C705 C707 1.327 . S
C705 H728 0.950 . S
C706 C705 1.349 . S
C706 C718 1.349 . S
C707 C705 1.327 . S
C707 C723 1.429 . S
C707 H729 0.950 . S
C708 H704 0.949 . S
C708 C716 1.574 . S
C708 C724 1.368 . S
H709 C717 0.950 . S
H710 C715 0.950 . S
H711 C716 0.949 . S
H712 C718 0.950 . S
H713 C719 0.950 . S
H714 C720 0.949 . S
C715 H710 0.950 . S
C715 C717 1.327 . S
C715 C721 1.429 . S
C716 C708 1.574 . S
C716 H711 0.949 . S
C716 C722 1.368 . S
C717 C701 1.349 . S
C717 H709 0.950 . S
C717 C715 1.327 . S
C718 C706 1.349 . S
C718 H712 0.950 . S
C718 C719 1.327 . S
C719 H713 0.950 . S
C719 C718 1.327 . S
C719 C723 1.429 . S
C720 C703 1.574 . S
C720 H714 0.949 . S
C720 C724 1.368 . S
C721 C702 1.429 . S
C721 C715 1.429 . S
C721 C722 1.523 . S
C722 C703 1.368 . S
C722 C716 1.368 . S
C722 C721 1.523 . S
C723 C707 1.429 . S
C723 C719 1.429 . S
C723 C724 1.523 . S
C724 C708 1.368 . S
C724 C720 1.368 . S
C724 C723 1.523 . S
H725 C700 0.950 . S
H726 C702 0.950 . S
H727 C703 0.949 . S
H728 C705 0.950 . S
H729 C707 0.950 . S
C730 C731 1.349 . S
C730 C732 1.327 . S
C730 H755 0.950 . S
C731 C730 1.349 . S
C731 C747 1.349 . S
C732 C730 1.327 . S
C732 C751 1.429 . S
C732 H756 0.950 . S
C733 C750 1.574 . S
C733 C752 1.368 . S
C733 H757 0.949 . S
H734 C738 0.949 . S
C735 C736 1.349 . S
C735 C737 1.327 . S
C735 H758 0.950 . S
C736 C735 1.349 . S
C736 C748 1.349 . S
C737 C735 1.327 . S
C737 C753 1.429 . S
C737 H759 0.950 . S
C738 H734 0.949 . S
C738 C746 1.574 . S
C738 C754 1.368 . S
H739 C747 0.950 . S
H740 C745 0.950 . S
H741 C746 0.949 . S
H742 C748 0.950 . S
H743 C749 0.950 . S
H744 C750 0.949 . S
C745 H740 0.950 . S
C745 C747 1.327 . S
C745 C751 1.429 . S
C746 C738 1.574 . S
C746 H741 0.949 . S
C746 C752 1.368 . S
C747 C731 1.349 . S
C747 H739 0.950 . S
C747 C745 1.327 . S
C748 C736 1.349 . S
C748 H742 0.950 . S
C748 C749 1.327 . S
C749 H743 0.950 . S
C749 C748 1.327 . S
C749 C753 1.429 . S
C750 C733 1.574 . S
C750 H744 0.949 . S
C750 C754 1.368 . S
C751 C732 1.429 . S
C751 C745 1.429 . S
C751 C752 1.523 . S
C752 C733 1.368 . S
C752 C746 1.368 . S
C752 C751 1.523 . S
C753 C737 1.429 . S
C753 C749 1.429 . S
C753 C754 1.523 . S
C754 C738 1.368 . S
C754 C750 1.368 . S
C754 C753 1.523 . S
H755 C730 0.950 . S
H756 C732 0.950 . S
H757 C733 0.949 . S
H758 C735 0.950 . S
H759 C737 0.950 . S
C760 C761 1.349 . S
C760 C762 1.327 . S
C760 H785 0.950 . S
C761 C760 1.349 . S
C761 C777 1.349 . S
C762 C760 1.327 . S
C762 C781 1.429 . S
C762 H786 0.950 . S
C763 C780 1.574 . S
C763 C782 1.368 . S
C763 H787 0.949 . S
H764 C768 0.949 . S
C765 C766 1.349 . S
C765 C767 1.327 . S
C765 H788 0.950 . S
C766 C765 1.349 . S
C766 C778 1.349 . S
C767 C765 1.327 . S
C767 C783 1.429 . S
C767 H789 0.950 . S
C768 H764 0.949 . S
C768 C776 1.574 . S
C768 C784 1.368 . S
H769 C777 0.950 . S
H770 C775 0.950 . S
H771 C776 0.949 . S
H772 C778 0.950 . S
H773 C779 0.950 . S
H774 C780 0.949 . S
C775 H770 0.950 . S
C775 C777 1.327 . S
C775 C781 1.429 . S
C776 C768 1.574 . S
C776 H771 0.949 . S
C776 C782 1.368 . S
C777 C761 1.349 . S
C777 H769 0.950 . S
C777 C775 1.327 . S
C778 C766 1.349 . S
C778 H772 0.950 . S
C778 C779 1.327 . S
C779 H773 0.950 . S
C779 C778 1.327 . S
C779 C783 1.429 . S
C780 C763 1.574 . S
C780 H774 0.949 . S
C780 C784 1.368 . S
C781 C762 1.429 . S
C781 C775 1.429 . S
C781 C782 1.523 . S
C782 C763 1.368 . S
C782 C776 1.368 . S
C782 C781 1.523 . S
C783 C767 1.429 . S
C783 C779 1.429 . S
C783 C784 1.523 . S
C784 C768 1.368 . S
C784 C780 1.368 . S
C784 C783 1.523 . S
H785 C760 0.950 . S
H786 C762 0.950 . S
H787 C763 0.949 . S
H788 C765 0.950 . S
H789 C767 0.950 . S
C790 C791 1.349 . S
C790 C792 1.327 . S
C790 H815 0.950 . S
C791 C790 1.349 . S
C791 C807 1.349 . S
C792 C790 1.327 . S
C792 C811 1.429 . S
C792 H816 0.950 . S
C793 C810 1.574 . S
C793 C812 1.368 . S
C793 H817 0.949 . S
H794 C798 0.949 . S
C795 C796 1.349 . S
C795 C797 1.327 . S
C795 H818 0.950 . S
C796 C795 1.349 . S
C796 C808 1.349 . S
C797 C795 1.327 . S
C797 C813 1.429 . S
C797 H819 0.950 . S
C798 H794 0.949 . S
C798 C806 1.574 . S
C798 C814 1.368 . S
H799 C807 0.950 . S
H800 C805 0.950 . S
H801 C806 0.949 . S
H802 C808 0.950 . S
H803 C809 0.950 . S
H804 C810 0.949 . S
C805 H800 0.950 . S
C805 C807 1.327 . S
C805 C811 1.429 . S
C806 C798 1.574 . S
C806 H801 0.949 . S
C806 C812 1.368 . S
C807 C791 1.349 . S
C807 H799 0.950 . S
C807 C805 1.327 . S
C808 C796 1.349 . S
C808 H802 0.950 . S
C808 C809 1.327 . S
C809 H803 0.950 . S
C809 C808 1.327 . S
C809 C813 1.429 . S
C810 C793 1.574 . S
C810 H804 0.949 . S
C810 C814 1.368 . S
C811 C792 1.429 . S
C811 C805 1.429 . S
C811 C812 1.523 . S
C812 C793 1.368 . S
C812 C806 1.368 . S
C812 C811 1.523 . S
C813 C797 1.429 . S
C813 C809 1.429 . S
C813 C814 1.523 . S
C814 C798 1.368 . S
C814 C810 1.368 . S
C814 C813 1.523 . S
H815 C790 0.950 . S
H816 C792 0.950 . S
H817 C793 0.949 . S
H818 C795 0.950 . S
H819 C797 0.950 . S
C820 C821 1.349 . S
C820 C822 1.327 . S
C820 H845 0.950 . S
C821 C820 1.349 . S
C821 C837 1.349 . S
C822 C820 1.327 . S
C822 C841 1.429 . S
C822 H846 0.950 . S
C823 C840 1.574 . S
C823 C842 1.368 . S
C823 H847 0.949 . S
H824 C828 0.949 . S
C825 C826 1.349 . S
C825 C827 1.327 . S
C825 H848 0.950 . S
C826 C825 1.349 . S
C826 C838 1.349 . S
C827 C825 1.327 . S
C827 C843 1.429 . S
C827 H849 0.950 . S
C828 H824 0.949 . S
C828 C836 1.574 . S
C828 C844 1.368 . S
H829 C837 0.950 . S
H830 C835 0.950 . S
H831 C836 0.949 . S
H832 C838 0.950 . S
H833 C839 0.950 . S
H834 C840 0.949 . S
C835 H830 0.950 . S
C835 C837 1.327 . S
C835 C841 1.429 . S
C836 C828 1.574 . S
C836 H831 0.949 . S
C836 C842 1.368 . S
C837 C821 1.349 . S
C837 H829 0.950 . S
C837 C835 1.327 . S
C838 C826 1.349 . S
C838 H832 0.950 . S
C838 C839 1.327 . S
C839 H833 0.950 . S
C839 C838 1.327 . S
C839 C843 1.429 . S
C840 C823 1.574 . S
C840 H834 0.949 . S
C840 C844 1.368 . S
C841 C822 1.429 . S
C841 C835 1.429 . S
C841 C842 1.523 . S
C842 C823 1.368 . S
C842 C836 1.368 . S
C842 C841 1.523 . S
C843 C827 1.429 . S
C843 C839 1.429 . S
C843 C844 1.523 . S
C844 C828 1.368 . S
C844 C840 1.368 . S
C844 C843 1.523 . S
H845 C820 0.950 . S
H846 C822 0.950 . S
H847 C823 0.949 . S
H848 C825 0.950 . S
H849 C827 0.950 . S
C850 C851 1.349 . S
C850 C852 1.327 . S
C850 H875 0.950 . S
C851 C850 1.349 . S
C851 C867 1.349 . S
C852 C850 1.327 . S
C852 C871 1.429 . S
C852 H876 0.950 . S
C853 C870 1.574 . S
C853 C872 1.368 . S
C853 H877 0.949 . S
H854 C858 0.949 . S
C855 C856 1.349 . S
C855 C857 1.327 . S
C855 H878 0.950 . S
C856 C855 1.349 . S
C856 C868 1.349 . S
C857 C855 1.327 . S
C857 C873 1.429 . S
C857 H879 0.950 . S
C858 H854 0.949 . S
C858 C866 1.574 . S
C858 C874 1.368 . S
H859 C867 0.950 . S
H860 C865 0.950 . S
H861 C866 0.949 . S
H862 C868 0.950 . S
H863 C869 0.950 . S
H864 C870 0.949 . S
C865 H860 0.950 . S
C865 C867 1.327 . S
C865 C871 1.429 . S
C866 C858 1.574 . S
C866 H861 0.949 . S
C866 C872 1.368 . S
C867 C851 1.349 . S
C867 H859 0.950 . S
C867 C865 1.327 . S
C868 C856 1.349 . S
C868 H862 0.950 . S
C868 C869 1.327 . S
C869 H863 0.950 . S
C869 C868 1.327 . S
C869 C873 1.429 . S
C870 C853 1.574 . S
C870 H864 0.949 . S
C870 C874 1.368 . S
C871 C852 1.429 . S
C871 C865 1.429 . S
C871 C872 1.523 . S
C872 C853 1.368 . S
C872 C866 1.368 . S
C872 C871 1.523 . S
C873 C857 1.429 . S
C873 C869 1.429 . S
C873 C874 1.523 . S
C874 C858 1.368 . S
C874 C870 1.368 . S
C874 C873 1.523 . S
H875 C850 0.950 . S
H876 C852 0.950 . S
H877 C853 0.949 . S
H878 C855 0.950 . S
H879 C857 0.950 . S
C880 C881 1.349 . S
C880 C882 1.327 . S
C880 H905 0.950 . S
C881 C880 1.349 . S
C881 C897 1.349 . S
C882 C880 1.327 . S
C882 C901 1.429 . S
C882 H906 0.950 . S
C883 C900 1.574 . S
C883 C902 1.368 . S
C883 H907 0.949 . S
H884 C888 0.949 . S
C885 C886 1.349 . S
C885 C887 1.327 . S
C885 H908 0.950 . S
C886 C885 1.349 . S
C886 C898 1.349 . S
C887 C885 1.327 . S
C887 C903 1.429 . S
C887 H909 0.950 . S
C888 H884 0.949 . S
C888 C896 1.574 . S
C888 C904 1.368 . S
H889 C897 0.950 . S
H890 C895 0.950 . S
H891 C896 0.949 . S
H892 C898 0.950 . S
H893 C899 0.950 . S
H894 C900 0.949 . S
C895 H890 0.950 . S
C895 C897 1.327 . S
C895 C901 1.429 . S
C896 C888 1.574 . S
C896 H891 0.949 . S
C896 C902 1.368 . S
C897 C881 1.349 . S
C897 H889 0.950 . S
C897 C895 1.327 . S
C898 C886 1.349 . S
C898 H892 0.950 . S
C898 C899 1.327 . S
C899 H893 0.950 . S
C899 C898 1.327 . S
C899 C903 1.429 . S
C900 C883 1.574 . S
C900 H894 0.949 . S
C900 C904 1.368 . S
C901 C882 1.429 . S
C901 C895 1.429 . S
C901 C902 1.523 . S
C902 C883 1.368 . S
C902 C896 1.368 . S
C902 C901 1.523 . S
C903 C887 1.429 . S
C903 C899 1.429 . S
C903 C904 1.523 . S
C904 C888 1.368 . S
C904 C900 1.368 . S
C904 C903 1.523 . S
H905 C880 0.950 . S
H906 C882 0.950 . S
H907 C883 0.949 . S
H908 C885 0.950 . S
H909 C887 0.950 . S
C910 C911 1.349 . S
C910 C912 1.327 . S
C910 H935 0.950 . S
C911 C910 1.349 . S
C911 C927 1.349 . S
C912 C910 1.327 . S
C912 C931 1.429 . S
C912 H936 0.950 . S
C913 C930 1.574 . S
C913 C932 1.368 . S
C913 H937 0.949 . S
H914 C918 0.949 . S
C915 C916 1.349 . S
C915 C917 1.327 . S
C915 H938 0.950 . S
C916 C915 1.349 . S
C916 C928 1.349 . S
C917 C915 1.327 . S
C917 C933 1.429 . S
C917 H939 0.950 . S
C918 H914 0.949 . S
C918 C926 1.574 . S
C918 C934 1.368 . S
H919 C927 0.950 . S
H920 C925 0.950 . S
H921 C926 0.949 . S
H922 C928 0.950 . S
H923 C929 0.950 . S
H924 C930 0.949 . S
C925 H920 0.950 . S
C925 C927 1.327 . S
C925 C931 1.429 . S
C926 C918 1.574 . S
C926 H921 0.949 . S
C926 C932 1.368 . S
C927 C911 1.349 . S
C927 H919 0.950 . S
C927 C925 1.327 . S
C928 C916 1.349 . S
C928 H922 0.950 . S
C928 C929 1.327 . S
C929 H923 0.950 . S
C929 C928 1.327 . S
C929 C933 1.429 . S
C930 C913 1.574 . S
C930 H924 0.949 . S
C930 C934 1.368 . S
C931 C912 1.429 . S
C931 C925 1.429 . S
C931 C932 1.523 . S
C932 C913 1.368 . S
C932 C926 1.368 . S
C932 C931 1.523 . S
C933 C917 1.429 . S
C933 C929 1.429 . S
C933 C934 1.523 . S
C934 C918 1.368 . S
C934 C930 1.368 . S
C934 C933 1.523 . S
H935 C910 0.950 . S
H936 C912 0.950 . S
H937 C913 0.949 . S
H938 C915 0.950 . S
H939 C917 0.950 . S
C940 C941 1.349 . S
C940 C942 1.327 . S
C940 H965 0.950 . S
C941 C940 1.349 . S
C941 C957 1.349 . S
C942 C940 1.327 . S
C942 C961 1.429 . S
C942 H966 0.950 . S
C943 C960 1.574 . S
C943 C962 1.368 . S
C943 H967 0.949 . S
H944 C948 0.949 . S
C945 C946 1.349 . S
C945 C947 1.327 . S
C945 H968 0.950 . S
C946 C945 1.349 . S
C946 C958 1.349 . S
C947 C945 1.327 . S
C947 C963 1.429 . S
C947 H969 0.950 . S
C948 H944 0.949 . S
C948 C956 1.574 . S
C948 C964 1.368 . S
H949 C957 0.950 . S
H950 C955 0.950 . S
H951 C956 0.949 . S
H952 C958 0.950 . S
H953 C959 0.950 . S
H954 C960 0.949 . S
C955 H950 0.950 . S
C955 C957 1.327 . S
C955 C961 1.429 . S
C956 C948 1.574 . S
C956 H951 0.949 . S
C956 C962 1.368 . S
C957 C941 1.349 . S
C957 H949 0.950 . S
C957 C955 1.327 . S
C958 C946 1.349 . S
C958 H952 0.950 . S
C958 C959 1.327 . S
C959 H953 0.950 . S
C959 C958 1.327 . S
C959 C963 1.429 . S
C960 C943 1.574 . S
C960 H954 0.949 . S
C960 C964 1.368 . S
C961 C942 1.429 . S
C961 C955 1.429 . S
C961 C962 1.523 . S
C962 C943 1.368 . S
C962 C956 1.368 . S
C962 C961 1.523 . S
C963 C947 1.429 . S
C963 C959 1.429 . S
C963 C964 1.523 . S
C964 C948 1.368 . S
C964 C960 1.368 . S
C964 C963 1.523 . S
H965 C940 0.950 . S
H966 C942 0.950 . S
H967 C943 0.949 . S
H968 C945 0.950 . S
H969 C947 0.950 . S
C970 C971 1.349 . S
C970 C972 1.327 . S
C970 H995 0.950 . S
C971 C970 1.349 . S
C971 C987 1.349 . S
C972 C970 1.327 . S
C972 C991 1.429 . S
C972 H996 0.950 . S
C973 C990 1.574 . S
C973 C992 1.368 . S
C973 H997 0.949 . S
H974 C978 0.949 . S
C975 C976 1.349 . S
C975 C977 1.327 . S
C975 H998 0.950 . S
C976 C975 1.349 . S
C976 C988 1.349 . S
C977 C975 1.327 . S
C977 C993 1.429 . S
C977 H999 0.950 . S
C978 H974 0.949 . S
C978 C986 1.574 . S
C978 C994 1.368 . S
H979 C987 0.950 . S
H980 C985 0.950 . S
H981 C986 0.949 . S
H982 C988 0.950 . S
H983 C989 0.950 . S
H984 C990 0.949 . S
C985 H980 0.950 . S
C985 C987 1.327 . S
C985 C991 1.429 . S
C986 C978 1.574 . S
C986 H981 0.949 . S
C986 C992 1.368 . S
C987 C971 1.349 . S
C987 H979 0.950 . S
C987 C985 1.327 . S
C988 C976 1.349 . S
C988 H982 0.950 . S
C988 C989 1.327 . S
C989 H983 0.950 . S
C989 C988 1.327 . S
C989 C993 1.429 . S
C990 C973 1.574 . S
C990 H984 0.949 . S
C990 C994 1.368 . S
C991 C972 1.429 . S
C991 C985 1.429 . S
C991 C992 1.523 . S
C992 C973 1.368 . S
C992 C986 1.368 . S
C992 C991 1.523 . S
C993 C977 1.429 . S
C993 C989 1.429 . S
C993 C994 1.523 . S
C994 C978 1.368 . S
C994 C990 1.368 . S
C994 C993 1.523 . S
H995 C970 0.950 . S
H996 C972 0.950 . S
H997 C973 0.949 . S
H998 C975 0.950 . S
H999 C977 0.950 . S
C1000 C1001 1.349 . S
C1000 C1002 1.327 . S
C1000 H1025 0.950 . S
C1001 C1000 1.349 . S
C1001 C1017 1.349 . S
C1002 C1000 1.327 . S
C1002 C1021 1.429 . S
C1002 H1026 0.950 . S
C1003 C1020 1.574 . S
C1003 C1022 1.368 . S
C1003 H1027 0.949 . S
H1004 C1008 0.949 . S
C1005 C1006 1.349 . S
C1005 C1007 1.327 . S
C1005 H1028 0.950 . S
C1006 C1005 1.349 . S
C1006 C1018 1.349 . S
C1007 C1005 1.327 . S
C1007 C1023 1.429 . S
C1007 H1029 0.950 . S
C1008 H1004 0.949 . S
C1008 C1016 1.574 . S
C1008 C1024 1.368 . S
H1009 C1017 0.950 . S
H1010 C1015 0.950 . S
H1011 C1016 0.949 . S
H1012 C1018 0.950 . S
H1013 C1019 0.950 . S
H1014 C1020 0.949 . S
C1015 H1010 0.950 . S
C1015 C1017 1.327 . S
C1015 C1021 1.429 . S
C1016 C1008 1.574 . S
C1016 H1011 0.949 . S
C1016 C1022 1.368 . S
C1017 C1001 1.349 . S
C1017 H1009 0.950 . S
C1017 C1015 1.327 . S
C1018 C1006 1.349 . S
C1018 H1012 0.950 . S
C1018 C1019 1.327 . S
C1019 H1013 0.950 . S
C1019 C1018 1.327 . S
C1019 C1023 1.429 . S
C1020 C1003 1.574 . S
C1020 H1014 0.949 . S
C1020 C1024 1.368 . S
C1021 C1002 1.429 . S
C1021 C1015 1.429 . S
C1021 C1022 1.523 . S
C1022 C1003 1.368 . S
C1022 C1016 1.368 . S
C1022 C1021 1.523 . S
C1023 C1007 1.429 . S
C1023 C1019 1.429 . S
C1023 C1024 1.523 . S
C1024 C1008 1.368 . S
C1024 C1020 1.368 . S
C1024 C1023 1.523 . S
H1025 C1000 0.950 . S
H1026 C1002 0.950 . S
H1027 C1003 0.949 . S
H1028 C1005 0.950 . S
H1029 C1007 0.950 . S
C1030 C1031 1.349 . S
C1030 C1032 1.327 . S
C1030 H1055 0.950 . S
C1031 C1030 1.349 . S
C1031 C1047 1.349 . S
C1032 C1030 1.327 . S
C1032 C1051 1.429 . S
C1032 H1056 0.950 . S
C1033 C1050 1.574 . S
C1033 C1052 1.368 . S
C1033 H1057 0.949 . S
H1034 C1038 0.949 . S
C1035 C1036 1.349 . S
C1035 C1037 1.327 . S
C1035 H1058 0.950 . S
C1036 C1035 1.349 . S
C1036 C1048 1.349 . S
C1037 C1035 1.327 . S
C1037 C1053 1.429 . S
C1037 H1059 0.950 . S
C1038 H1034 0.949 . S
C1038 C1046 1.574 . S
C1038 C1054 1.368 . S
H1039 C1047 0.950 . S
H1040 C1045 0.950 . S
H1041 C1046 0.949 . S
H1042 C1048 0.950 . S
H1043 C1049 0.950 . S
H1044 C1050 0.949 . S
C1045 H1040 0.950 . S
C1045 C1047 1.327 . S
C1045 C1051 1.429 . S
C1046 C1038 1.574 . S
C1046 H1041 0.949 . S
C1046 C1052 1.368 . S
C1047 C1031 1.349 . S
C1047 H1039 0.950 . S
C1047 C1045 1.327 . S
C1048 C1036 1.349 . S
C1048 H1042 0.950 . S
C1048 C1049 1.327 . S
C1049 H1043 0.950 . S
C1049 C1048 1.327 . S
C1049 C1053 1.429 . S
C1050 C1033 1.574 . S
C1050 H1044 0.949 . S
C1050 C1054 1.368 . S
C1051 C1032 1.429 . S
C1051 C1045 1.429 . S
C1051 C1052 1.523 . S
C1052 C1033 1.368 . S
C1052 C1046 1.368 . S
C1052 C1051 1.523 . S
C1053 C1037 1.429 . S
C1053 C1049 1.429 . S
C1053 C1054 1.523 . S
C1054 C1038 1.368 . S
C1054 C1050 1.368 . S
C1054 C1053 1.523 . S
H1055 C1030 0.950 . S
H1056 C1032 0.950 . S
H1057 C1033 0.949 . S
H1058 C1035 0.950 . S
H1059 C1037 0.950 . S
C1060 C1061 1.349 . S
C1060 C1062 1.327 . S
C1060 H1085 0.950 . S
C1061 C1060 1.349 . S
C1061 C1077 1.349 . S
C1062 C1060 1.327 . S
C1062 C1081 1.429 . S
C1062 H1086 0.950 . S
C1063 C1080 1.574 . S
C1063 C1082 1.368 . S
C1063 H1087 0.949 . S
H1064 C1068 0.949 . S
C1065 C1066 1.349 . S
C1065 C1067 1.327 . S
C1065 H1088 0.950 . S
C1066 C1065 1.349 . S
C1066 C1078 1.349 . S
C1067 C1065 1.327 . S
C1067 C1083 1.429 . S
C1067 H1089 0.950 . S
C1068 H1064 0.949 . S
C1068 C1076 1.574 . S
C1068 C1084 1.368 . S
H1069 C1077 0.950 . S
H1070 C1075 0.950 . S
H1071 C1076 0.949 . S
H1072 C1078 0.950 . S
H1073 C1079 0.950 . S
H1074 C1080 0.949 . S
C1075 H1070 0.950 . S
C1075 C1077 1.327 . S
C1075 C1081 1.429 . S
C1076 C1068 1.574 . S
C1076 H1071 0.949 . S
C1076 C1082 1.368 . S
C1077 C1061 1.349 . S
C1077 H1069 0.950 . S
C1077 C1075 1.327 . S
C1078 C1066 1.349 . S
C1078 H1072 0.950 . S
C1078 C1079 1.327 . S
C1079 H1073 0.950 . S
C1079 C1078 1.327 . S
C1079 C1083 1.429 . S
C1080 C1063 1.574 . S
C1080 H1074 0.949 . S
C1080 C1084 1.368 . S
C1081 C1062 1.429 . S
C1081 C1075 1.429 . S
C1081 C1082 1.523 . S
C1082 C1063 1.368 . S
C1082 C1076 1.368 . S
C1082 C1081 1.523 . S
C1083 C1067 1.429 . S
C1083 C1079 1.429 . S
C1083 C1084 1.523 . S
C1084 C1068 1.368 . S
C1084 C1080 1.368 . S
C1084 C1083 1.523 . S
H1085 C1060 0.950 . S
H1086 C1062 0.950 . S
H1087 C1063 0.949 . S
H1088 C1065 0.950 . S
H1089 C1067 0.950 . S
C1090 C1091 1.349 . S
C1090 C1092 1.327 . S
C1090 H1115 0.950 . S
C1091 C1090 1.349 . S
C1091 C1107 1.349 . S
C1092 C1090 1.327 . S
C1092 C1111 1.429 . S
C1092 H1116 0.950 . S
C1093 C1110 1.574 . S
C1093 C1112 1.368 . S
C1093 H1117 0.949 . S
H1094 C1098 0.949 . S
C1095 C1096 1.349 . S
C1095 C1097 1.327 . S
C1095 H1118 0.950 . S
C1096 C1095 1.349 . S
C1096 C1108 1.349 . S
C1097 C1095 1.327 . S
C1097 C1113 1.429 . S
C1097 H1119 0.950 . S
C1098 H1094 0.949 . S
C1098 C1106 1.574 . S
C1098 C1114 1.368 . S
H1099 C1107 0.950 . S
H1100 C1105 0.950 . S
H1101 C1106 0.949 . S
H1102 C1108 0.950 . S
H1103 C1109 0.950 . S
H1104 C1110 0.949 . S
C1105 H1100 0.950 . S
C1105 C1107 1.327 . S
C1105 C1111 1.429 . S
C1106 C1098 1.574 . S
C1106 H1101 0.949 . S
C1106 C1112 1.368 . S
C1107 C1091 1.349 . S
C1107 H1099 0.950 . S
C1107 C1105 1.327 . S
C1108 C1096 1.349 . S
C1108 H1102 0.950 . S
C1108 C1109 1.327 . S
C1109 H1103 0.950 . S
C1109 C1108 1.327 . S
C1109 C1113 1.429 . S
C1110 C1093 1.574 . S
C1110 H1104 0.949 . S
C1110 C1114 1.368 . S
C1111 C1092 1.429 . S
C1111 C1105 1.429 . S
C1111 C1112 1.523 . S
C1112 C1093 1.368 . S
C1112 C1106 1.368 . S
C1112 C1111 1.523 . S
C1113 C1097 1.429 . S
C1113 C1109 1.429 . S
C1113 C1114 1.523 . S
C1114 C1098 1.368 . S
C1114 C1110 1.368 . S
C1114 C1113 1.523 . S
H1115 C1090 0.950 . S
H1116 C1092 0.950 . S
H1117 C1093 0.949 . S
H1118 C1095 0.950 . S
H1119 C1097 0.950 . S
C1120 C1121 1.349 . S
C1120 C1122 1.327 . S
C1120 H1145 0.950 . S
C1121 C1120 1.349 . S
C1121 C1137 1.349 . S
C1122 C1120 1.327 . S
C1122 C1141 1.429 . S
C1122 H1146 0.950 . S
C1123 C1140 1.574 . S
C1123 C1142 1.368 . S
C1123 H1147 0.949 . S
H1124 C1128 0.949 . S
C1125 C1126 1.349 . S
C1125 C1127 1.327 . S
C1125 H1148 0.950 . S
C1126 C1125 1.349 . S
C1126 C1138 1.349 . S
C1127 C1125 1.327 . S
C1127 C1143 1.429 . S
C1127 H1149 0.950 . S
C1128 H1124 0.949 . S
C1128 C1136 1.574 . S
C1128 C1144 1.368 . S
H1129 C1137 0.950 . S
H1130 C1135 0.950 . S
H1131 C1136 0.949 . S
H1132 C1138 0.950 . S
H1133 C1139 0.950 . S
H1134 C1140 0.949 . S
C1135 H1130 0.950 . S
C1135 C1137 1.327 . S
C1135 C1141 1.429 . S
C1136 C1128 1.574 . S
C1136 H1131 0.949 . S
C1136 C1142 1.368 . S
C1137 C1121 1.349 . S
C1137 H1129 0.950 . S
C1137 C1135 1.327 . S
C1138 C1126 1.349 . S
C1138 H1132 0.950 . S
C1138 C1139 1.327 . S
C1139 H1133 0.950 . S
C1139 C1138 1.327 . S
C1139 C1143 1.429 . S
C1140 C1123 1.574 . S
C1140 H1134 0.949 . S
C1140 C1144 1.368 . S
C1141 C1122 1.429 . S
C1141 C1135 1.429 . S
C1141 C1142 1.523 . S
C1142 C1123 1.368 . S
C1142 C1136 1.368 . S
C1142 C1141 1.523 . S
C1143 C1127 1.429 . S
C1143 C1139 1.429 . S
C1143 C1144 1.523 . S
C1144 C1128 1.368 . S
C1144 C1140 1.368 . S
C1144 C1143 1.523 . S
H1145 C1120 0.950 . S
H1146 C1122 0.950 . S
H1147 C1123 0.949 . S
H1148 C1125 0.950 . S
H1149 C1127 0.950 . S
C1150 C1151 1.349 . S
C1150 C1152 1.327 . S
C1150 H1175 0.950 . S
C1151 C1150 1.349 . S
C1151 C1167 1.349 . S
C1152 C1150 1.327 . S
C1152 C1171 1.429 . S
C1152 H1176 0.950 . S
C1153 C1170 1.574 . S
C1153 C1172 1.368 . S
C1153 H1177 0.949 . S
H1154 C1158 0.949 . S
C1155 C1156 1.349 . S
C1155 C1157 1.327 . S
C1155 H1178 0.950 . S
C1156 C1155 1.349 . S
C1156 C1168 1.349 . S
C1157 C1155 1.327 . S
C1157 C1173 1.429 . S
C1157 H1179 0.950 . S
C1158 H1154 0.949 . S
C1158 C1166 1.574 . S
C1158 C1174 1.368 . S
H1159 C1167 0.950 . S
H1160 C1165 0.950 . S
H1161 C1166 0.949 . S
H1162 C1168 0.950 . S
H1163 C1169 0.950 . S
H1164 C1170 0.949 . S
C1165 H1160 0.950 . S
C1165 C1167 1.327 . S
C1165 C1171 1.429 . S
C1166 C1158 1.574 . S
C1166 H1161 0.949 . S
C1166 C1172 1.368 . S
C1167 C1151 1.349 . S
C1167 H1159 0.950 . S
C1167 C1165 1.327 . S
C1168 C1156 1.349 . S
C1168 H1162 0.950 . S
C1168 C1169 1.327 . S
C1169 H1163 0.950 . S
C1169 C1168 1.327 . S
C1169 C1173 1.429 . S
C1170 C1153 1.574 . S
C1170 H1164 0.949 . S
C1170 C1174 1.368 . S
C1171 C1152 1.429 . S
C1171 C1165 1.429 . S
C1171 C1172 1.523 . S
C1172 C1153 1.368 . S
C1172 C1166 1.368 . S
C1172 C1171 1.523 . S
C1173 C1157 1.429 . S
C1173 C1169 1.429 . S
C1173 C1174 1.523 . S
C1174 C1158 1.368 . S
C1174 C1170 1.368 . S
C1174 C1173 1.523 . S
H1175 C1150 0.950 . S
H1176 C1152 0.950 . S
H1177 C1153 0.949 . S
H1178 C1155 0.950 . S
H1179 C1157 0.950 . S
C1180 C1181 1.349 . S
C1180 C1182 1.327 . S
C1180 H1205 0.950 . S
C1181 C1180 1.349 . S
C1181 C1197 1.349 . S
C1182 C1180 1.327 . S
C1182 C1201 1.429 . S
C1182 H1206 0.950 . S
C1183 C1200 1.574 . S
C1183 C1202 1.368 . S
C1183 H1207 0.949 . S
H1184 C1188 0.949 . S
C1185 C1186 1.349 . S
C1185 C1187 1.327 . S
C1185 H1208 0.950 . S
C1186 C1185 1.349 . S
C1186 C1198 1.349 . S
C1187 C1185 1.327 . S
C1187 C1203 1.429 . S
C1187 H1209 0.950 . S
C1188 H1184 0.949 . S
C1188 C1196 1.574 . S
C1188 C1204 1.368 . S
H1189 C1197 0.950 . S
H1190 C1195 0.950 . S
H1191 C1196 0.949 . S
H1192 C1198 0.950 . S
H1193 C1199 0.950 . S
H1194 C1200 0.949 . S
C1195 H1190 0.950 . S
C1195 C1197 1.327 . S
C1195 C1201 1.429 . S
C1196 C1188 1.574 . S
C1196 H1191 0.949 . S
C1196 C1202 1.368 . S
C1197 C1181 1.349 . S
C1197 H1189 0.950 . S
C1197 C1195 1.327 . S
C1198 C1186 1.349 . S
C1198 H1192 0.950 . S
C1198 C1199 1.327 . S
C1199 H1193 0.950 . S
C1199 C1198 1.327 . S
C1199 C1203 1.429 . S
C1200 C1183 1.574 . S
C1200 H1194 0.949 . S
C1200 C1204 1.368 . S
C1201 C1182 1.429 . S
C1201 C1195 1.429 . S
C1201 C1202 1.523 . S
C1202 C1183 1.368 . S
C1202 C1196 1.368 . S
C1202 C1201 1.523 . S
C1203 C1187 1.429 . S
C1203 C1199 1.429 . S
C1203 C1204 1.523 . S
C1204 C1188 1.368 . S
C1204 C1200 1.368 . S
C1204 C1203 1.523 . S
H1205 C1180 0.950 . S
H1206 C1182 0.950 . S
H1207 C1183 0.949 . S
H1208 C1185 0.950 . S
H1209 C1187 0.950 . S
C1210 C1211 1.349 . S
C1210 C1212 1.327 . S
C1210 H1235 0.950 . S
C1211 C1210 1.349 . S
C1211 C1227 1.349 . S
C1212 C1210 1.327 . S
C1212 C1231 1.429 . S
C1212 H1236 0.950 . S
C1213 C1230 1.574 . S
C1213 C1232 1.368 . S
C1213 H1237 0.949 . S
H1214 C1218 0.949 . S
C1215 C1216 1.349 . S
C1215 C1217 1.327 . S
C1215 H1238 0.950 . S
C1216 C1215 1.349 . S
C1216 C1228 1.349 . S
C1217 C1215 1.327 . S
C1217 C1233 1.429 . S
C1217 H1239 0.950 . S
C1218 H1214 0.949 . S
C1218 C1226 1.574 . S
C1218 C1234 1.368 . S
H1219 C1227 0.950 . S
H1220 C1225 0.950 . S
H1221 C1226 0.949 . S
H1222 C1228 0.950 . S
H1223 C1229 0.950 . S
H1224 C1230 0.949 . S
C1225 H1220 0.950 . S
C1225 C1227 1.327 . S
C1225 C1231 1.429 . S
C1226 C1218 1.574 . S
C1226 H1221 0.949 . S
C1226 C1232 1.368 . S
C1227 C1211 1.349 . S
C1227 H1219 0.950 . S
C1227 C1225 1.327 . S
C1228 C1216 1.349 . S
C1228 H1222 0.950 . S
C1228 C1229 1.327 . S
C1229 H1223 0.950 . S
C1229 C1228 1.327 . S
C1229 C1233 1.429 . S
C1230 C1213 1.574 . S
C1230 H1224 0.949 . S
C1230 C1234 1.368 . S
C1231 C1212 1.429 . S
C1231 C1225 1.429 . S
C1231 C1232 1.523 . S
C1232 C1213 1.368 . S
C1232 C1226 1.368 . S
C1232 C1231 1.523 . S
C1233 C1217 1.429 . S
C1233 C1229 1.429 . S
C1233 C1234 1.523 . S
C1234 C1218 1.368 . S
C1234 C1230 1.368 . S
C1234 C1233 1.523 . S
H1235 C1210 0.950 . S
H1236 C1212 0.950 . S
H1237 C1213 0.949 . S
H1238 C1215 0.950 . S
H1239 C1217 0.950 . S
C1240 C1241 1.349 . S
C1240 C1242 1.327 . S
C1240 H1265 0.950 . S
C1241 C1240 1.349 . S
C1241 C1257 1.349 . S
C1242 C1240 1.327 . S
C1242 C1261 1.429 . S
C1242 H1266 0.950 . S
C1243 C1260 1.574 . S
C1243 C1262 1.368 . S
C1243 H1267 0.949 . S
H1244 C1248 0.949 . S
C1245 C1246 1.349 . S
C1245 C1247 1.327 . S
C1245 H1268 0.950 . S
C1246 C1245 1.349 . S
C1246 C1258 1.349 . S
C1247 C1245 1.327 . S
C1247 C1263 1.429 . S
C1247 H1269 0.950 . S
C1248 H1244 0.949 . S
C1248 C1256 1.574 . S
C1248 C1264 1.368 . S
H1249 C1257 0.950 . S
H1250 C1255 0.950 . S
H1251 C1256 0.949 . S
H1252 C1258 0.950 . S
H1253 C1259 0.950 . S
H1254 C1260 0.949 . S
C1255 H1250 0.950 . S
C1255 C1257 1.327 . S
C1255 C1261 1.429 . S
C1256 C1248 1.574 . S
C1256 H1251 0.949 . S
C1256 C1262 1.368 . S
C1257 C1241 1.349 . S
C1257 H1249 0.950 . S
C1257 C1255 1.327 . S
C1258 C1246 1.349 . S
C1258 H1252 0.950 . S
C1258 C1259 1.327 . S
C1259 H1253 0.950 . S
C1259 C1258 1.327 . S
C1259 C1263 1.429 . S
C1260 C1243 1.574 . S
C1260 H1254 0.949 . S
C1260 C1264 1.368 . S
C1261 C1242 1.429 . S
C1261 C1255 1.429 . S
C1261 C1262 1.523 . S
C1262 C1243 1.368 . S
C1262 C1256 1.368 . S
C1262 C1261 1.523 . S
C1263 C1247 1.429 . S
C1263 C1259 1.429 . S
C1263 C1264 1.523 . S
C1264 C1248 1.368 . S
C1264 C1260 1.368 . S
C1264 C1263 1.523 . S
H1265 C1240 0.950 . S
H1266 C1242 0.950 . S
H1267 C1243 0.949 . S
H1268 C1245 0.950 . S
H1269 C1247 0.950 . S
C1270 C1271 1.349 . S
C1270 C1272 1.327 . S
C1270 H1295 0.950 . S
C1271 C1270 1.349 . S
C1271 C1287 1.349 . S
C1272 C1270 1.327 . S
C1272 C1291 1.429 . S
C1272 H1296 0.950 . S
C1273 C1290 1.574 . S
C1273 C1292 1.368 . S
C1273 H1297 0.949 . S
H1274 C1278 0.949 . S
C1275 C1276 1.349 . S
C1275 C1277 1.327 . S
C1275 H1298 0.950 . S
C1276 C1275 1.349 . S
C1276 C1288 1.349 . S
C1277 C1275 1.327 . S
C1277 C1293 1.429 . S
C1277 H1299 0.950 . S
C1278 H1274 0.949 . S
C1278 C1286 1.574 . S
C1278 C1294 1.368 . S
H1279 C1287 0.950 . S
H1280 C1285 0.950 . S
H1281 C1286 0.949 . S
H1282 C1288 0.950 . S
H1283 C1289 0.950 . S
H1284 C1290 0.949 . S
C1285 H1280 0.950 . S
C1285 C1287 1.327 . S
C1285 C1291 1.429 . S
C1286 C1278 1.574 . S
C1286 H1281 0.949 . S
C1286 C1292 1.368 . S
C1287 C1271 1.349 . S
C1287 H1279 0.950 . S
C1287 C1285 1.327 . S
C1288 C1276 1.349 . S
C1288 H1282 0.950 . S
C1288 C1289 1.327 . S
C1289 H1283 0.950 . S
C1289 C1288 1.327 . S
C1289 C1293 1.429 . S
C1290 C1273 1.574 . S
C1290 H1284 0.949 . S
C1290 C1294 1.368 . S
C1291 C1272 1.429 . S
C1291 C1285 1.429 . S
C1291 C1292 1.523 . S
C1292 C1273 1.368 . S
C1292 C1286 1.368 . S
C1292 C1291 1.523 . S
C1293 C1277 1.429 . S
C1293 C1289 1.429 . S
C1293 C1294 1.523 . S
C1294 C1278 1.368 . S
C1294 C1290 1.368 . S
C1294 C1293 1.523 . S
H1295 C1270 0.950 . S
H1296 C1272 0.950 . S
H1297 C1273 0.949 . S
H1298 C1275 0.950 . S
H1299 C1277 0.950 . S
C1300 C1301 1.349 . S
C1300 C1302 1.327 . S
C1300 H1325 0.950 . S
C1301 C1300 1.349 . S
C1301 C1317 1.349 . S
C1302 C1300 1.327 . S
C1302 C1321 1.429 . S
C1302 H1326 0.950 . S
C1303 C1320 1.574 . S
C1303 C1322 1.368 . S
C1303 H1327 0.949 . S
H1304 C1308 0.949 . S
C1305 C1306 1.349 . S
C1305 C1307 1.327 . S
C1305 H1328 0.950 . S
C1306 C1305 1.349 . S
C1306 C1318 1.349 . S
C1307 C1305 1.327 . S
C1307 C1323 1.429 . S
C1307 H1329 0.950 . S
C1308 H1304 0.949 . S
C1308 C1316 1.574 . S
C1308 C1324 1.368 . S
H1309 C1317 0.950 . S
H1310 C1315 0.950 . S
H1311 C1316 0.949 . S
H1312 C1318 0.950 . S
H1313 C1319 0.950 . S
H1314 C1320 0.949 . S
C1315 H1310 0.950 . S
C1315 C1317 1.327 . S
C1315 C1321 1.429 . S
C1316 C1308 1.574 . S
C1316 H1311 0.949 . S
C1316 C1322 1.368 . S
C1317 C1301 1.349 . S
C1317 H1309 0.950 . S
C1317 C1315 1.327 . S
C1318 C1306 1.349 . S
C1318 H1312 0.950 . S
C1318 C1319 1.327 . S
C1319 H1313 0.950 . S
C1319 C1318 1.327 . S
C1319 C1323 1.429 . S
C1320 C1303 1.574 . S
C1320 H1314 0.949 . S
C1320 C1324 1.368 . S
C1321 C1302 1.429 . S
C1321 C1315 1.429 . S
C1321 C1322 1.523 . S
C1322 C1303 1.368 . S
C1322 C1316 1.368 . S
C1322 C1321 1.523 . S
C1323 C1307 1.429 . S
C1323 C1319 1.429 . S
C1323 C1324 1.523 . S
C1324 C1308 1.368 . S
C1324 C1320 1.368 . S
C1324 C1323 1.523 . S
H1325 C1300 0.950 . S
H1326 C1302 0.950 . S
H1327 C1303 0.949 . S
H1328 C1305 0.950 . S
H1329 C1307 0.950 . S
C1330 C1331 1.349 . S
C1330 C1332 1.327 . S
C1330 H1355 0.950 . S
C1331 C1330 1.349 . S
C1331 C1347 1.349 . S
C1332 C1330 1.327 . S
C1332 C1351 1.429 . S
C1332 H1356 0.950 . S
C1333 C1350 1.574 . S
C1333 C1352 1.368 . S
C1333 H1357 0.949 . S
H1334 C1338 0.949 . S
C1335 C1336 1.349 . S
C1335 C1337 1.327 . S
C1335 H1358 0.950 . S
C1336 C1335 1.349 . S
C1336 C1348 1.349 . S
C1337 C1335 1.327 . S
C1337 C1353 1.429 . S
C1337 H1359 0.950 . S
C1338 H1334 0.949 . S
C1338 C1346 1.574 . S
C1338 C1354 1.368 . S
H1339 C1347 0.950 . S
H1340 C1345 0.950 . S
H1341 C1346 0.949 . S
H1342 C1348 0.950 . S
H1343 C1349 0.950 . S
H1344 C1350 0.949 . S
C1345 H1340 0.950 . S
C1345 C1347 1.327 . S
C1345 C1351 1.429 . S
C1346 C1338 1.574 . S
C1346 H1341 0.949 . S
C1346 C1352 1.368 . S
C1347 C1331 1.349 . S
C1347 H1339 0.950 . S
C1347 C1345 1.327 . S
C1348 C1336 1.349 . S
C1348 H1342 0.950 . S
C1348 C1349 1.327 . S
C1349 H1343 0.950 . S
C1349 C1348 1.327 . S
C1349 C1353 1.429 . S
C1350 C1333 1.574 . S
C1350 H1344 0.949 . S
C1350 C1354 1.368 . S
C1351 C1332 1.429 . S
C1351 C1345 1.429 . S
C1351 C1352 1.523 . S
C1352 C1333 1.368 . S
C1352 C1346 1.368 . S
C1352 C1351 1.523 . S
C1353 C1337 1.429 . S
C1353 C1349 1.429 . S
C1353 C1354 1.523 . S
C1354 C1338 1.368 . S
C1354 C1350 1.368 . S
C1354 C1353 1.523 . S
H1355 C1330 0.950 . S
H1356 C1332 0.950 . S
H1357 C1333 0.949 . S
H1358 C1335 0.950 . S
H1359 C1337 0.950 . S
C1360 C1361 1.349 . S
C1360 C1362 1.327 . S
C1360 H1385 0.950 . S
C1361 C1360 1.349 . S
C1361 C1377 1.349 . S
C1362 C1360 1.327 . S
C1362 C1381 1.429 . S
C1362 H1386 0.950 . S
C1363 C1380 1.574 . S
C1363 C1382 1.368 . S
C1363 H1387 0.949 . S
H1364 C1368 0.949 . S
C1365 C1366 1.349 . S
C1365 C1367 1.327 . S
C1365 H1388 0.950 . S
C1366 C1365 1.349 . S
C1366 C1378 1.349 . S
C1367 C1365 1.327 . S
C1367 C1383 1.429 . S
C1367 H1389 0.950 . S
C1368 H1364 0.949 . S
C1368 C1376 1.574 . S
C1368 C1384 1.368 . S
H1369 C1377 0.950 . S
H1370 C1375 0.950 . S
H1371 C1376 0.949 . S
H1372 C1378 0.950 . S
H1373 C1379 0.950 . S
H1374 C1380 0.949 . S
C1375 H1370 0.950 . S
C1375 C1377 1.327 . S
C1375 C1381 1.429 . S
C1376 C1368 1.574 . S
C1376 H1371 0.949 . S
C1376 C1382 1.368 . S
C1377 C1361 1.349 . S
C1377 H1369 0.950 . S
C1377 C1375 1.327 . S
C1378 C1366 1.349 . S
C1378 H1372 0.950 . S
C1378 C1379 1.327 . S
C1379 H1373 0.950 . S
C1379 C1378 1.327 . S
C1379 C1383 1.429 . S
C1380 C1363 1.574 . S
C1380 H1374 0.949 . S
C1380 C1384 1.368 . S
C1381 C1362 1.429 . S
C1381 C1375 1.429 . S
C1381 C1382 1.523 . S
C1382 C1363 1.368 . S
C1382 C1376 1.368 . S
C1382 C1381 1.523 . S
C1383 C1367 1.429 . S
C1383 C1379 1.429 . S
C1383 C1384 1.523 . S
C1384 C1368 1.368 . S
C1384 C1380 1.368 . S
C1384 C1383 1.523 . S
H1385 C1360 0.950 . S
H1386 C1362 0.950 . S
H1387 C1363 0.949 . S
H1388 C1365 0.950 . S
H1389 C1367 0.950 . S
C1390 C1391 1.349 . S
C1390 C1392 1.327 . S
C1390 H1415 0.950 . S
C1391 C1390 1.349 . S
C1391 C1407 1.349 . S
C1392 C1390 1.327 . S
C1392 C1411 1.429 . S
C1392 H1416 0.950 . S
C1393 C1410 1.574 . S
C1393 C1412 1.368 . S
C1393 H1417 0.949 . S
H1394 C1398 0.949 . S
C1395 C1396 1.349 . S
C1395 C1397 1.327 . S
C1395 H1418 0.950 . S
C1396 C1395 1.349 . S
C1396 C1408 1.349 . S
C1397 C1395 1.327 . S
C1397 C1413 1.429 . S
C1397 H1419 0.950 . S
C1398 H1394 0.949 . S
C1398 C1406 1.574 . S
C1398 C1414 1.368 . S
H1399 C1407 0.950 . S
H1400 C1405 0.950 . S
H1401 C1406 0.949 . S
H1402 C1408 0.950 . S
H1403 C1409 0.950 . S
H1404 C1410 0.949 . S
C1405 H1400 0.950 . S
C1405 C1407 1.327 . S
C1405 C1411 1.429 . S
C1406 C1398 1.574 . S
C1406 H1401 0.949 . S
C1406 C1412 1.368 . S
C1407 C1391 1.349 . S
C1407 H1399 0.950 . S
C1407 C1405 1.327 . S
C1408 C1396 1.349 . S
C1408 H1402 0.950 . S
C1408 C1409 1.327 . S
C1409 H1403 0.950 . S
C1409 C1408 1.327 . S
C1409 C1413 1.429 . S
C1410 C1393 1.574 . S
C1410 H1404 0.949 . S
C1410 C1414 1.368 . S
C1411 C1392 1.429 . S
C1411 C1405 1.429 . S
C1411 C1412 1.523 . S
C1412 C1393 1.368 . S
C1412 C1406 1.368 . S
C1412 C1411 1.523 . S
C1413 C1397 1.429 . S
C1413 C1409 1.429 . S
C1413 C1414 1.523 . S
C1414 C1398 1.368 . S
C1414 C1410 1.368 . S
C1414 C1413 1.523 . S
H1415 C1390 0.950 . S
H1416 C1392 0.950 . S
H1417 C1393 0.949 . S
H1418 C1395 0.950 . S
H1419 C1397 0.950 . S
C1420 C1421 1.349 . S
C1420 C1422 1.327 . S
C1420 H1445 0.950 . S
C1421 C1420 1.349 . S
C1421 C1437 1.349 . S
C1422 C1420 1.327 . S
C1422 C1441 1.429 . S
C1422 H1446 0.950 . S
C1423 C1440 1.574 . S
C1423 C1442 1.368 . S
C1423 H1447 0.949 . S
H1424 C1428 0.949 . S
C1425 C1426 1.349 . S
C1425 C1427 1.327 . S
C1425 H1448 0.950 . S
C1426 C1425 1.349 . S
C1426 C1438 1.349 . S
C1427 C1425 1.327 . S
C1427 C1443 1.429 . S
C1427 H1449 0.950 . S
C1428 H1424 0.949 . S
C1428 C1436 1.574 . S
C1428 C1444 1.368 . S
H1429 C1437 0.950 . S
H1430 C1435 0.950 . S
H1431 C1436 0.949 . S
H1432 C1438 0.950 . S
H1433 C1439 0.950 . S
H1434 C1440 0.949 . S
C1435 H1430 0.950 . S
C1435 C1437 1.327 . S
C1435 C1441 1.429 . S
C1436 C1428 1.574 . S
C1436 H1431 0.949 . S
C1436 C1442 1.368 . S
C1437 C1421 1.349 . S
C1437 H1429 0.950 . S
C1437 C1435 1.327 . S
C1438 C1426 1.349 . S
C1438 H1432 0.950 . S
C1438 C1439 1.327 . S
C1439 H1433 0.950 . S
C1439 C1438 1.327 . S
C1439 C1443 1.429 . S
C1440 C1423 1.574 . S
C1440 H1434 0.949 . S
C1440 C1444 1.368 . S
C1441 C1422 1.429 . S
C1441 C1435 1.429 . S
C1441 C1442 1.523 . S
C1442 C1423 1.368 . S
C1442 C1436 1.368 . S
C1442 C1441 1.523 . S
C1443 C1427 1.429 . S
C1443 C1439 1.429 . S
C1443 C1444 1.523 . S
C1444 C1428 1.368 . S
C1444 C1440 1.368 . S
C1444 C1443 1.523 . S
H1445 C1420 0.950 . S
H1446 C1422 0.950 . S
H1447 C1423 0.949 . S
H1448 C1425 0.950 . S
H1449 C1427 0.950 . S
C1450 C1451 1.349 . S
C1450 C1452 1.327 . S
C1450 H1475 0.950 . S
C1451 C1450 1.349 . S
C1451 C1467 1.349 . S
C1452 C1450 1.327 . S
C1452 C1471 1.429 . S
C1452 H1476 0.950 . S
C1453 C1470 1.574 . S
C1453 C1472 1.368 . S
C1453 H1477 0.949 . S
H1454 C1458 0.949 . S
C1455 C1456 1.349 . S
C1455 C1457 1.327 . S
C1455 H1478 0.950 . S
C1456 C1455 1.349 . S
C1456 C1468 1.349 . S
C1457 C1455 1.327 . S
C1457 C1473 1.429 . S
C1457 H1479 0.950 . S
C1458 H1454 0.949 . S
C1458 C1466 1.574 . S
C1458 C1474 1.368 . S
H1459 C1467 0.950 . S
H1460 C1465 0.950 . S
H1461 C1466 0.949 . S
H1462 C1468 0.950 . S
H1463 C1469 0.950 . S
H1464 C1470 0.949 . S
C1465 H1460 0.950 . S
C1465 C1467 1.327 . S
C1465 C1471 1.429 . S
C1466 C1458 1.574 . S
C1466 H1461 0.949 . S
C1466 C1472 1.368 . S
C1467 C1451 1.349 . S
C1467 H1459 0.950 . S
C1467 C1465 1.327 . S
C1468 C1456 1.349 . S
C1468 H1462 0.950 . S
C1468 C1469 1.327 . S
C1469 H1463 0.950 . S
C1469 C1468 1.327 . S
C1469 C1473 1.429 . S
C1470 C1453 1.574 . S
C1470 H1464 0.949 . S
C1470 C1474 1.368 . S
C1471 C1452 1.429 . S
C1471 C1465 1.429 . S
C1471 C1472 1.523 . S
C1472 C1453 1.368 . S
C1472 C1466 1.368 . S
C1472 C1471 1.523 . S
C1473 C1457 1.429 . S
C1473 C1469 1.429 . S
C1473 C1474 1.523 . S
C1474 C1458 1.368 . S
C1474 C1470 1.368 . S
C1474 C1473 1.523 . S
H1475 C1450 0.950 . S
H1476 C1452 0.950 . S
H1477 C1453 0.949 . S
H1478 C1455 0.950 . S
H1479 C1457 0.950 . S
C1480 C1481 1.349 . S
C1480 C1482 1.327 . S
C1480 H1505 0.950 . S
C1481 C1480 1.349 . S
C1481 C1497 1.349 . S
C1482 C1480 1.327 . S
C1482 C1501 1.429 . S
C1482 H1506 0.950 . S
C1483 C1500 1.574 . S
C1483 C1502 1.368 . S
C1483 H1507 0.949 . S
H1484 C1488 0.949 . S
C1485 C1486 1.349 . S
C1485 C1487 1.327 . S
C1485 H1508 0.950 . S
C1486 C1485 1.349 . S
C1486 C1498 1.349 . S
C1487 C1485 1.327 . S
C1487 C1503 1.429 . S
C1487 H1509 0.950 . S
C1488 H1484 0.949 . S
C1488 C1496 1.574 . S
C1488 C1504 1.368 . S
H1489 C1497 0.950 . S
H1490 C1495 0.950 . S
H1491 C1496 0.949 . S
H1492 C1498 0.950 . S
H1493 C1499 0.950 . S
H1494 C1500 0.949 . S
C1495 H1490 0.950 . S
C1495 C1497 1.327 . S
C1495 C1501 1.429 . S
C1496 C1488 1.574 . S
C1496 H1491 0.949 . S
C1496 C1502 1.368 . S
C1497 C1481 1.349 . S
C1497 H1489 0.950 . S
C1497 C1495 1.327 . S
C1498 C1486 1.349 . S
C1498 H1492 0.950 . S
C1498 C1499 1.327 . S
C1499 H1493 0.950 . S
C1499 C1498 1.327 . S
C1499 C1503 1.429 . S
C1500 C1483 1.574 . S
C1500 H1494 0.949 . S
C1500 C1504 1.368 . S
C1501 C1482 1.429 . S
C1501 C1495 1.429 . S
C1501 C1502 1.523 . S
C1502 C1483 1.368 . S
C1502 C1496 1.368 . S
C1502 C1501 1.523 . S
C1503 C1487 1.429 . S
C1503 C1499 1.429 . S
C1503 C1504 1.523 . S
C1504 C1488 1.368 . S
C1504 C1500 1.368 . S
C1504 C1503 1.523 . S
H1505 C1480 0.950 . S
H1506 C1482 0.950 . S
H1507 C1483 0.949 . S
H1508 C1485 0.950 . S
H1509 C1487 0.950 . S
C1510 C1511 1.349 . S
C1510 C1512 1.327 . S
C1510 H1535 0.950 . S
C1511 C1510 1.349 . S
C1511 C1527 1.349 . S
C1512 C1510 1.327 . S
C1512 C1531 1.429 . S
C1512 H1536 0.950 . S
C1513 C1530 1.574 . S
C1513 C1532 1.368 . S
C1513 H1537 0.949 . S
H1514 C1518 0.949 . S
C1515 C1516 1.349 . S
C1515 C1517 1.327 . S
C1515 H1538 0.950 . S
C1516 C1515 1.349 . S
C1516 C1528 1.349 . S
C1517 C1515 1.327 . S
C1517 C1533 1.429 . S
C1517 H1539 0.950 . S
C1518 H1514 0.949 . S
C1518 C1526 1.574 . S
C1518 C1534 1.368 . S
H1519 C1527 0.950 . S
H1520 C1525 0.950 . S
H1521 C1526 0.949 . S
H1522 C1528 0.950 1_655 S
H1523 C1529 0.950 1_655 S
H1524 C1530 0.949 . S
C1525 H1520 0.950 . S
C1525 C1527 1.327 . S
C1525 C1531 1.429 . S
C1526 C1518 1.574 . S
C1526 H1521 0.949 . S
C1526 C1532 1.368 . S
C1527 C1511 1.349 . S
C1527 H1519 0.950 . S
C1527 C1525 1.327 . S
C1528 C1516 1.349 . S
C1528 H1522 0.950 1_455 S
C1528 C1529 1.327 . S
C1529 H1523 0.950 1_455 S
C1529 C1528 1.327 . S
C1529 C1533 1.429 . S
C1530 C1513 1.574 . S
C1530 H1524 0.949 . S
C1530 C1534 1.368 . S
C1531 C1512 1.429 . S
C1531 C1525 1.429 . S
C1531 C1532 1.523 . S
C1532 C1513 1.368 . S
C1532 C1526 1.368 . S
C1532 C1531 1.523 . S
C1533 C1517 1.429 . S
C1533 C1529 1.429 . S
C1533 C1534 1.523 . S
C1534 C1518 1.368 . S
C1534 C1530 1.368 . S
C1534 C1533 1.523 . S
H1535 C1510 0.950 . S
H1536 C1512 0.950 . S
H1537 C1513 0.949 . S
H1538 C1515 0.950 . S
H1539 C1517 0.950 . S
C1540 C1541 1.349 . S
C1540 C1542 1.327 . S
C1540 H1565 0.950 . S
C1541 C1540 1.349 . S
C1541 C1557 1.349 . S
C1542 C1540 1.327 . S
C1542 C1561 1.429 . S
C1542 H1566 0.950 . S
C1543 C1560 1.574 . S
C1543 C1562 1.368 . S
C1543 H1567 0.949 . S
H1544 C1548 0.949 . S
C1545 C1546 1.349 . S
C1545 C1547 1.327 . S
C1545 H1568 0.950 . S
C1546 C1545 1.349 . S
C1546 C1558 1.349 . S
C1547 C1545 1.327 . S
C1547 C1563 1.429 . S
C1547 H1569 0.950 . S
C1548 H1544 0.949 . S
C1548 C1556 1.574 . S
C1548 C1564 1.368 . S
H1549 C1557 0.950 . S
H1550 C1555 0.950 . S
H1551 C1556 0.949 . S
H1552 C1558 0.950 . S
H1553 C1559 0.950 . S
H1554 C1560 0.949 . S
C1555 H1550 0.950 . S
C1555 C1557 1.327 . S
C1555 C1561 1.429 . S
C1556 C1548 1.574 . S
C1556 H1551 0.949 . S
C1556 C1562 1.368 . S
C1557 C1541 1.349 . S
C1557 H1549 0.950 . S
C1557 C1555 1.327 . S
C1558 C1546 1.349 . S
C1558 H1552 0.950 . S
C1558 C1559 1.327 . S
C1559 H1553 0.950 . S
C1559 C1558 1.327 . S
C1559 C1563 1.429 . S
C1560 C1543 1.574 . S
C1560 H1554 0.949 . S
C1560 C1564 1.368 . S
C1561 C1542 1.429 . S
C1561 C1555 1.429 . S
C1561 C1562 1.523 . S
C1562 C1543 1.368 . S
C1562 C1556 1.368 . S
C1562 C1561 1.523 . S
C1563 C1547 1.429 . S
C1563 C1559 1.429 . S
C1563 C1564 1.523 . S
C1564 C1548 1.368 . S
C1564 C1560 1.368 . S
C1564 C1563 1.523 . S
H1565 C1540 0.950 . S
H1566 C1542 0.950 . S
H1567 C1543 0.949 . S
H1568 C1545 0.950 . S
H1569 C1547 0.950 . S
C1570 C1571 1.349 . S
C1570 C1572 1.327 . S
C1570 H1595 0.950 . S
C1571 C1570 1.349 . S
C1571 C1587 1.349 . S
C1572 C1570 1.327 . S
C1572 C1591 1.429 . S
C1572 H1596 0.950 . S
C1573 C1590 1.574 . S
C1573 C1592 1.368 . S
C1573 H1597 0.949 . S
H1574 C1578 0.949 . S
C1575 C1576 1.349 . S
C1575 C1577 1.327 . S
C1575 H1598 0.950 . S
C1576 C1575 1.349 . S
C1576 C1588 1.349 . S
C1577 C1575 1.327 . S
C1577 C1593 1.429 . S
C1577 H1599 0.950 . S
C1578 H1574 0.949 . S
C1578 C1586 1.574 . S
C1578 C1594 1.368 . S
H1579 C1587 0.950 . S
H1580 C1585 0.950 . S
H1581 C1586 0.949 . S
H1582 C1588 0.950 . S
H1583 C1589 0.950 . S
H1584 C1590 0.949 . S
C1585 H1580 0.950 . S
C1585 C1587 1.327 . S
C1585 C1591 1.429 . S
C1586 C1578 1.574 . S
C1586 H1581 0.949 . S
C1586 C1592 1.368 . S
C1587 C1571 1.349 . S
C1587 H1579 0.950 . S
C1587 C1585 1.327 . S
C1588 C1576 1.349 . S
C1588 H1582 0.950 . S
C1588 C1589 1.327 . S
C1589 H1583 0.950 . S
C1589 C1588 1.327 . S
C1589 C1593 1.429 . S
C1590 C1573 1.574 . S
C1590 H1584 0.949 . S
C1590 C1594 1.368 . S
C1591 C1572 1.429 . S
C1591 C1585 1.429 . S
C1591 C1592 1.523 . S
C1592 C1573 1.368 . S
C1592 C1586 1.368 . S
C1592 C1591 1.523 . S
C1593 C1577 1.429 . S
C1593 C1589 1.429 . S
C1593 C1594 1.523 . S
C1594 C1578 1.368 . S
C1594 C1590 1.368 . S
C1594 C1593 1.523 . S
H1595 C1570 0.950 . S
H1596 C1572 0.950 . S
H1597 C1573 0.949 . S
H1598 C1575 0.950 . S
H1599 C1577 0.950 . S
C1600 C1601 1.349 . S
C1600 C1602 1.327 . S
C1600 H1625 0.950 . S
C1601 C1600 1.349 . S
C1601 C1617 1.349 . S
C1602 C1600 1.327 . S
C1602 C1621 1.429 . S
C1602 H1626 0.950 . S
C1603 C1620 1.574 . S
C1603 C1622 1.368 . S
C1603 H1627 0.949 . S
H1604 C1608 0.949 . S
C1605 C1606 1.349 . S
C1605 C1607 1.327 . S
C1605 H1628 0.950 . S
C1606 C1605 1.349 . S
C1606 C1618 1.349 . S
C1607 C1605 1.327 . S
C1607 C1623 1.429 . S
C1607 H1629 0.950 . S
C1608 H1604 0.949 . S
C1608 C1616 1.574 . S
C1608 C1624 1.368 . S
H1609 C1617 0.950 . S
H1610 C1615 0.950 . S
H1611 C1616 0.949 . S
H1612 C1618 0.950 . S
H1613 C1619 0.950 . S
H1614 C1620 0.949 . S
C1615 H1610 0.950 . S
C1615 C1617 1.327 . S
C1615 C1621 1.429 . S
C1616 C1608 1.574 . S
C1616 H1611 0.949 . S
C1616 C1622 1.368 . S
C1617 C1601 1.349 . S
C1617 H1609 0.950 . S
C1617 C1615 1.327 . S
C1618 C1606 1.349 . S
C1618 H1612 0.950 . S
C1618 C1619 1.327 . S
C1619 H1613 0.950 . S
C1619 C1618 1.327 . S
C1619 C1623 1.429 . S
C1620 C1603 1.574 . S
C1620 H1614 0.949 . S
C1620 C1624 1.368 . S
C1621 C1602 1.429 . S
C1621 C1615 1.429 . S
C1621 C1622 1.523 . S
C1622 C1603 1.368 . S
C1622 C1616 1.368 . S
C1622 C1621 1.523 . S
C1623 C1607 1.429 . S
C1623 C1619 1.429 . S
C1623 C1624 1.523 . S
C1624 C1608 1.368 . S
C1624 C1620 1.368 . S
C1624 C1623 1.523 . S
H1625 C1600 0.950 . S
H1626 C1602 0.950 . S
H1627 C1603 0.949 . S
H1628 C1605 0.950 . S
H1629 C1607 0.950 . S
C1630 C1631 1.349 . S
C1630 C1632 1.327 . S
C1630 H1655 0.950 . S
C1631 C1630 1.349 . S
C1631 C1647 1.349 . S
C1632 C1630 1.327 . S
C1632 C1651 1.429 . S
C1632 H1656 0.950 . S
C1633 C1650 1.574 . S
C1633 C1652 1.368 . S
C1633 H1657 0.949 . S
H1634 C1638 0.949 . S
C1635 C1636 1.349 . S
C1635 C1637 1.327 . S
C1635 H1658 0.950 . S
C1636 C1635 1.349 . S
C1636 C1648 1.349 . S
C1637 C1635 1.327 . S
C1637 C1653 1.429 . S
C1637 H1659 0.950 . S
C1638 H1634 0.949 . S
C1638 C1646 1.574 . S
C1638 C1654 1.368 . S
H1639 C1647 0.950 . S
H1640 C1645 0.950 . S
H1641 C1646 0.949 . S
H1642 C1648 0.950 . S
H1643 C1649 0.950 . S
H1644 C1650 0.949 . S
C1645 H1640 0.950 . S
C1645 C1647 1.327 . S
C1645 C1651 1.429 . S
C1646 C1638 1.574 . S
C1646 H1641 0.949 . S
C1646 C1652 1.368 . S
C1647 C1631 1.349 . S
C1647 H1639 0.950 . S
C1647 C1645 1.327 . S
C1648 C1636 1.349 . S
C1648 H1642 0.950 . S
C1648 C1649 1.327 . S
C1649 H1643 0.950 . S
C1649 C1648 1.327 . S
C1649 C1653 1.429 . S
C1650 C1633 1.574 . S
C1650 H1644 0.949 . S
C1650 C1654 1.368 . S
C1651 C1632 1.429 . S
C1651 C1645 1.429 . S
C1651 C1652 1.523 . S
C1652 C1633 1.368 . S
C1652 C1646 1.368 . S
C1652 C1651 1.523 . S
C1653 C1637 1.429 . S
C1653 C1649 1.429 . S
C1653 C1654 1.523 . S
C1654 C1638 1.368 . S
C1654 C1650 1.368 . S
C1654 C1653 1.523 . S
H1655 C1630 0.950 . S
H1656 C1632 0.950 . S
H1657 C1633 0.949 . S
H1658 C1635 0.950 . S
H1659 C1637 0.950 . S
C1660 C1661 1.349 . S
C1660 C1662 1.327 . S
C1660 H1685 0.950 . S
C1661 C1660 1.349 . S
C1661 C1677 1.349 . S
C1662 C1660 1.327 . S
C1662 C1681 1.429 . S
C1662 H1686 0.950 . S
C1663 C1680 1.574 . S
C1663 C1682 1.368 . S
C1663 H1687 0.949 . S
H1664 C1668 0.949 . S
C1665 C1666 1.349 . S
C1665 C1667 1.327 . S
C1665 H1688 0.950 . S
C1666 C1665 1.349 . S
C1666 C1678 1.349 . S
C1667 C1665 1.327 . S
C1667 C1683 1.429 . S
C1667 H1689 0.950 . S
C1668 H1664 0.949 . S
C1668 C1676 1.574 . S
C1668 C1684 1.368 . S
H1669 C1677 0.950 . S
H1670 C1675 0.950 . S
H1671 C1676 0.949 . S
H1672 C1678 0.950 . S
H1673 C1679 0.950 . S
H1674 C1680 0.949 . S
C1675 H1670 0.950 . S
C1675 C1677 1.327 . S
C1675 C1681 1.429 . S
C1676 C1668 1.574 . S
C1676 H1671 0.949 . S
C1676 C1682 1.368 . S
C1677 C1661 1.349 . S
C1677 H1669 0.950 . S
C1677 C1675 1.327 . S
C1678 C1666 1.349 . S
C1678 H1672 0.950 . S
C1678 C1679 1.327 . S
C1679 H1673 0.950 . S
C1679 C1678 1.327 . S
C1679 C1683 1.429 . S
C1680 C1663 1.574 . S
C1680 H1674 0.949 . S
C1680 C1684 1.368 . S
C1681 C1662 1.429 . S
C1681 C1675 1.429 . S
C1681 C1682 1.523 . S
C1682 C1663 1.368 . S
C1682 C1676 1.368 . S
C1682 C1681 1.523 . S
C1683 C1667 1.429 . S
C1683 C1679 1.429 . S
C1683 C1684 1.523 . S
C1684 C1668 1.368 . S
C1684 C1680 1.368 . S
C1684 C1683 1.523 . S
H1685 C1660 0.950 . S
H1686 C1662 0.950 . S
H1687 C1663 0.949 . S
H1688 C1665 0.950 . S
H1689 C1667 0.950 . S
C1690 C1691 1.349 . S
C1690 C1692 1.327 . S
C1690 H1715 0.950 . S
C1691 C1690 1.349 . S
C1691 C1707 1.349 . S
C1692 C1690 1.327 . S
C1692 C1711 1.429 . S
C1692 H1716 0.950 . S
C1693 C1710 1.574 . S
C1693 C1712 1.368 . S
C1693 H1717 0.949 . S
H1694 C1698 0.949 . S
C1695 C1696 1.349 . S
C1695 C1697 1.327 . S
C1695 H1718 0.950 . S
C1696 C1695 1.349 . S
C1696 C1708 1.349 . S
C1697 C1695 1.327 . S
C1697 C1713 1.429 . S
C1697 H1719 0.950 . S
C1698 H1694 0.949 . S
C1698 C1706 1.574 . S
C1698 C1714 1.368 . S
H1699 C1707 0.950 . S
H1700 C1705 0.950 . S
H1701 C1706 0.949 . S
H1702 C1708 0.950 . S
H1703 C1709 0.950 . S
H1704 C1710 0.949 . S
C1705 H1700 0.950 . S
C1705 C1707 1.327 . S
C1705 C1711 1.429 . S
C1706 C1698 1.574 . S
C1706 H1701 0.949 . S
C1706 C1712 1.368 . S
C1707 C1691 1.349 . S
C1707 H1699 0.950 . S
C1707 C1705 1.327 . S
C1708 C1696 1.349 . S
C1708 H1702 0.950 . S
C1708 C1709 1.327 . S
C1709 H1703 0.950 . S
C1709 C1708 1.327 . S
C1709 C1713 1.429 . S
C1710 C1693 1.574 . S
C1710 H1704 0.949 . S
C1710 C1714 1.368 . S
C1711 C1692 1.429 . S
C1711 C1705 1.429 . S
C1711 C1712 1.523 . S
C1712 C1693 1.368 . S
C1712 C1706 1.368 . S
C1712 C1711 1.523 . S
C1713 C1697 1.429 . S
C1713 C1709 1.429 . S
C1713 C1714 1.523 . S
C1714 C1698 1.368 . S
C1714 C1710 1.368 . S
C1714 C1713 1.523 . S
H1715 C1690 0.950 . S
H1716 C1692 0.950 . S
H1717 C1693 0.949 . S
H1718 C1695 0.950 . S
H1719 C1697 0.950 . S
C1720 C1721 1.349 . S
C1720 C1722 1.327 . S
C1720 H1745 0.950 . S
C1721 C1720 1.349 . S
C1721 C1737 1.349 . S
C1722 C1720 1.327 . S
C1722 C1741 1.429 . S
C1722 H1746 0.950 . S
C1723 C1740 1.574 . S
C1723 C1742 1.368 . S
C1723 H1747 0.949 . S
H1724 C1728 0.949 . S
C1725 C1726 1.349 . S
C1725 C1727 1.327 . S
C1725 H1748 0.950 . S
C1726 C1725 1.349 . S
C1726 C1738 1.349 . S
C1727 C1725 1.327 . S
C1727 C1743 1.429 . S
C1727 H1749 0.950 . S
C1728 H1724 0.949 . S
C1728 C1736 1.574 . S
C1728 C1744 1.368 . S
H1729 C1737 0.950 . S
H1730 C1735 0.950 . S
H1731 C1736 0.949 . S
H1732 C1738 0.950 . S
H1733 C1739 0.950 . S
H1734 C1740 0.949 . S
C1735 H1730 0.950 . S
C1735 C1737 1.327 . S
C1735 C1741 1.429 . S
C1736 C1728 1.574 . S
C1736 H1731 0.949 . S
C1736 C1742 1.368 . S
C1737 C1721 1.349 . S
C1737 H1729 0.950 . S
C1737 C1735 1.327 . S
C1738 C1726 1.349 . S
C1738 H1732 0.950 . S
C1738 C1739 1.327 . S
C1739 H1733 0.950 . S
C1739 C1738 1.327 . S
C1739 C1743 1.429 . S
C1740 C1723 1.574 . S
C1740 H1734 0.949 . S
C1740 C1744 1.368 . S
C1741 C1722 1.429 . S
C1741 C1735 1.429 . S
C1741 C1742 1.523 . S
C1742 C1723 1.368 . S
C1742 C1736 1.368 . S
C1742 C1741 1.523 . S
C1743 C1727 1.429 . S
C1743 C1739 1.429 . S
C1743 C1744 1.523 . S
C1744 C1728 1.368 . S
C1744 C1740 1.368 . S
C1744 C1743 1.523 . S
H1745 C1720 0.950 . S
H1746 C1722 0.950 . S
H1747 C1723 0.949 . S
H1748 C1725 0.950 . S
H1749 C1727 0.950 . S
C1750 C1751 1.349 . S
C1750 C1752 1.327 . S
C1750 H1775 0.950 . S
C1751 C1750 1.349 . S
C1751 C1767 1.349 . S
C1752 C1750 1.327 . S
C1752 C1771 1.429 . S
C1752 H1776 0.950 . S
C1753 C1770 1.574 . S
C1753 C1772 1.368 . S
C1753 H1777 0.949 . S
H1754 C1758 0.949 . S
C1755 C1756 1.349 . S
C1755 C1757 1.327 . S
C1755 H1778 0.950 . S
C1756 C1755 1.349 . S
C1756 C1768 1.349 . S
C1757 C1755 1.327 . S
C1757 C1773 1.429 . S
C1757 H1779 0.950 . S
C1758 H1754 0.949 . S
C1758 C1766 1.574 . S
C1758 C1774 1.368 . S
H1759 C1767 0.950 . S
H1760 C1765 0.950 . S
H1761 C1766 0.949 . S
H1762 C1768 0.950 . S
H1763 C1769 0.950 . S
H1764 C1770 0.949 . S
C1765 H1760 0.950 . S
C1765 C1767 1.327 . S
C1765 C1771 1.429 . S
C1766 C1758 1.574 . S
C1766 H1761 0.949 . S
C1766 C1772 1.368 . S
C1767 C1751 1.349 . S
C1767 H1759 0.950 . S
C1767 C1765 1.327 . S
C1768 C1756 1.349 . S
C1768 H1762 0.950 . S
C1768 C1769 1.327 . S
C1769 H1763 0.950 . S
C1769 C1768 1.327 . S
C1769 C1773 1.429 . S
C1770 C1753 1.574 . S
C1770 H1764 0.949 . S
C1770 C1774 1.368 . S
C1771 C1752 1.429 . S
C1771 C1765 1.429 . S
C1771 C1772 1.523 . S
C1772 C1753 1.368 . S
C1772 C1766 1.368 . S
C1772 C1771 1.523 . S
C1773 C1757 1.429 . S
C1773 C1769 1.429 . S
C1773 C1774 1.523 . S
C1774 C1758 1.368 . S
C1774 C1770 1.368 . S
C1774 C1773 1.523 . S
H1775 C1750 0.950 . S
H1776 C1752 0.950 . S
H1777 C1753 0.949 . S
H1778 C1755 0.950 . S
H1779 C1757 0.950 . S
C1780 C1781 1.349 . S
C1780 C1782 1.327 . S
C1780 H1805 0.950 . S
C1781 C1780 1.349 . S
C1781 C1797 1.349 . S
C1782 C1780 1.327 . S
C1782 C1801 1.429 . S
C1782 H1806 0.950 . S
C1783 C1800 1.574 . S
C1783 C1802 1.368 . S
C1783 H1807 0.949 . S
H1784 C1788 0.949 . S
C1785 C1786 1.349 . S
C1785 C1787 1.327 . S
C1785 H1808 0.950 . S
C1786 C1785 1.349 . S
C1786 C1798 1.349 . S
C1787 C1785 1.327 . S
C1787 C1803 1.429 . S
C1787 H1809 0.950 . S
C1788 H1784 0.949 . S
C1788 C1796 1.574 . S
C1788 C1804 1.368 . S
H1789 C1797 0.950 . S
H1790 C1795 0.950 . S
H1791 C1796 0.949 . S
H1792 C1798 0.950 . S
H1793 C1799 0.950 . S
H1794 C1800 0.949 . S
C1795 H1790 0.950 . S
C1795 C1797 1.327 . S
C1795 C1801 1.429 . S
C1796 C1788 1.574 . S
C1796 H1791 0.949 . S
C1796 C1802 1.368 . S
C1797 C1781 1.349 . S
C1797 H1789 0.950 . S
C1797 C1795 1.327 . S
C1798 C1786 1.349 . S
C1798 H1792 0.950 . S
C1798 C1799 1.327 . S
C1799 H1793 0.950 . S
C1799 C1798 1.327 . S
C1799 C1803 1.429 . S
C1800 C1783 1.574 . S
C1800 H1794 0.949 . S
C1800 C1804 1.368 . S
C1801 C1782 1.429 . S
C1801 C1795 1.429 . S
C1801 C1802 1.523 . S
C1802 C1783 1.368 . S
C1802 C1796 1.368 . S
C1802 C1801 1.523 . S
C1803 C1787 1.429 . S
C1803 C1799 1.429 . S
C1803 C1804 1.523 . S
C1804 C1788 1.368 . S
C1804 C1800 1.368 . S
C1804 C1803 1.523 . S
H1805 C1780 0.950 . S
H1806 C1782 0.950 . S
H1807 C1783 0.949 . S
H1808 C1785 0.950 . S
H1809 C1787 0.950 . S
C1810 C1811 1.349 . S
C1810 C1812 1.327 . S
C1810 H1835 0.950 . S
C1811 C1810 1.349 . S
C1811 C1827 1.349 . S
C1812 C1810 1.327 . S
C1812 C1831 1.429 . S
C1812 H1836 0.950 . S
C1813 C1830 1.574 . S
C1813 C1832 1.368 . S
C1813 H1837 0.949 . S
H1814 C1818 0.949 . S
C1815 C1816 1.349 . S
C1815 C1817 1.327 . S
C1815 H1838 0.950 . S
C1816 C1815 1.349 . S
C1816 C1828 1.349 . S
C1817 C1815 1.327 . S
C1817 C1833 1.429 . S
C1817 H1839 0.950 . S
C1818 H1814 0.949 . S
C1818 C1826 1.574 . S
C1818 C1834 1.368 . S
H1819 C1827 0.950 . S
H1820 C1825 0.950 . S
H1821 C1826 0.949 . S
H1822 C1828 0.950 . S
H1823 C1829 0.950 . S
H1824 C1830 0.949 . S
C1825 H1820 0.950 . S
C1825 C1827 1.327 . S
C1825 C1831 1.429 . S
C1826 C1818 1.574 . S
C1826 H1821 0.949 . S
C1826 C1832 1.368 . S
C1827 C1811 1.349 . S
C1827 H1819 0.950 . S
C1827 C1825 1.327 . S
C1828 C1816 1.349 . S
C1828 H1822 0.950 . S
C1828 C1829 1.327 . S
C1829 H1823 0.950 . S
C1829 C1828 1.327 . S
C1829 C1833 1.429 . S
C1830 C1813 1.574 . S
C1830 H1824 0.949 . S
C1830 C1834 1.368 . S
C1831 C1812 1.429 . S
C1831 C1825 1.429 . S
C1831 C1832 1.523 . S
C1832 C1813 1.368 . S
C1832 C1826 1.368 . S
C1832 C1831 1.523 . S
C1833 C1817 1.429 . S
C1833 C1829 1.429 . S
C1833 C1834 1.523 . S
C1834 C1818 1.368 . S
C1834 C1830 1.368 . S
C1834 C1833 1.523 . S
H1835 C1810 0.950 . S
H1836 C1812 0.950 . S
H1837 C1813 0.949 . S
H1838 C1815 0.950 . S
H1839 C1817 0.950 . S
C1840 C1841 1.349 . S
C1840 C1842 1.327 . S
C1840 H1865 0.950 . S
C1841 C1840 1.349 . S
C1841 C1857 1.349 . S
C1842 C1840 1.327 . S
C1842 C1861 1.429 . S
C1842 H1866 0.950 . S
C1843 C1860 1.574 . S
C1843 C1862 1.368 . S
C1843 H1867 0.949 . S
H1844 C1848 0.949 . S
C1845 C1846 1.349 . S
C1845 C1847 1.327 . S
C1845 H1868 0.950 . S
C1846 C1845 1.349 . S
C1846 C1858 1.349 . S
C1847 C1845 1.327 . S
C1847 C1863 1.429 . S
C1847 H1869 0.950 . S
C1848 H1844 0.949 . S
C1848 C1856 1.574 . S
C1848 C1864 1.368 . S
H1849 C1857 0.950 . S
H1850 C1855 0.950 . S
H1851 C1856 0.949 . S
H1852 C1858 0.950 . S
H1853 C1859 0.950 . S
H1854 C1860 0.949 . S
C1855 H1850 0.950 . S
C1855 C1857 1.327 . S
C1855 C1861 1.429 . S
C1856 C1848 1.574 . S
C1856 H1851 0.949 . S
C1856 C1862 1.368 . S
C1857 C1841 1.349 . S
C1857 H1849 0.950 . S
C1857 C1855 1.327 . S
C1858 C1846 1.349 . S
C1858 H1852 0.950 . S
C1858 C1859 1.327 . S
C1859 H1853 0.950 . S
C1859 C1858 1.327 . S
C1859 C1863 1.429 . S
C1860 C1843 1.574 . S
C1860 H1854 0.949 . S
C1860 C1864 1.368 . S
C1861 C1842 1.429 . S
C1861 C1855 1.429 . S
C1861 C1862 1.523 . S
C1862 C1843 1.368 . S
C1862 C1856 1.368 . S
C1862 C1861 1.523 . S
C1863 C1847 1.429 . S
C1863 C1859 1.429 . S
C1863 C1864 1.523 . S
C1864 C1848 1.368 . S
C1864 C1860 1.368 . S
C1864 C1863 1.523 . S
H1865 C1840 0.950 . S
H1866 C1842 0.950 . S
H1867 C1843 0.949 . S
H1868 C1845 0.950 . S
H1869 C1847 0.950 . S
C1870 C1871 1.349 . S
C1870 C1872 1.327 . S
C1870 H1895 0.950 . S
C1871 C1870 1.349 . S
C1871 C1887 1.349 . S
C1872 C1870 1.327 . S
C1872 C1891 1.429 . S
C1872 H1896 0.950 . S
C1873 C1890 1.574 . S
C1873 C1892 1.368 . S
C1873 H1897 0.949 . S
H1874 C1878 0.949 . S
C1875 C1876 1.349 . S
C1875 C1877 1.327 . S
C1875 H1898 0.950 . S
C1876 C1875 1.349 . S
C1876 C1888 1.349 . S
C1877 C1875 1.327 . S
C1877 C1893 1.429 . S
C1877 H1899 0.950 . S
C1878 H1874 0.949 . S
C1878 C1886 1.574 . S
C1878 C1894 1.368 . S
H1879 C1887 0.950 . S
H1880 C1885 0.950 . S
H1881 C1886 0.949 . S
H1882 C1888 0.950 . S
H1883 C1889 0.950 . S
H1884 C1890 0.949 . S
C1885 H1880 0.950 . S
C1885 C1887 1.327 . S
C1885 C1891 1.429 . S
C1886 C1878 1.574 . S
C1886 H1881 0.949 . S
C1886 C1892 1.368 . S
C1887 C1871 1.349 . S
C1887 H1879 0.950 . S
C1887 C1885 1.327 . S
C1888 C1876 1.349 . S
C1888 H1882 0.950 . S
C1888 C1889 1.327 . S
C1889 H1883 0.950 . S
C1889 C1888 1.327 . S
C1889 C1893 1.429 . S
C1890 C1873 1.574 . S
C1890 H1884 0.949 . S
C1890 C1894 1.368 . S
C1891 C1872 1.429 . S
C1891 C1885 1.429 . S
C1891 C1892 1.523 . S
C1892 C1873 1.368 . S
C1892 C1886 1.368 . S
C1892 C1891 1.523 . S
C1893 C1877 1.429 . S
C1893 C1889 1.429 . S
C1893 C1894 1.523 . S
C1894 C1878 1.368 . S
C1894 C1890 1.368 . S
C1894 C1893 1.523 . S
H1895 C1870 0.950 . S
H1896 C1872 0.950 . S
H1897 C1873 0.949 . S
H1898 C1875 0.950 . S
H1899 C1877 0.950 . S
C1900 C1901 1.349 . S
C1900 C1902 1.327 . S
C1900 H1925 0.950 . S
C1901 C1900 1.349 . S
C1901 C1917 1.349 . S
C1902 C1900 1.327 . S
C1902 C1921 1.429 . S
C1902 H1926 0.950 . S
C1903 C1920 1.574 . S
C1903 C1922 1.368 . S
C1903 H1927 0.949 . S
H1904 C1908 0.949 . S
C1905 C1906 1.349 . S
C1905 C1907 1.327 . S
C1905 H1928 0.950 . S
C1906 C1905 1.349 . S
C1906 C1918 1.349 . S
C1907 C1905 1.327 . S
C1907 C1923 1.429 . S
C1907 H1929 0.950 . S
C1908 H1904 0.949 . S
C1908 C1916 1.574 . S
C1908 C1924 1.368 . S
H1909 C1917 0.950 . S
H1910 C1915 0.950 . S
H1911 C1916 0.949 . S
H1912 C1918 0.950 . S
H1913 C1919 0.950 . S
H1914 C1920 0.949 . S
C1915 H1910 0.950 . S
C1915 C1917 1.327 . S
C1915 C1921 1.429 . S
C1916 C1908 1.574 . S
C1916 H1911 0.949 . S
C1916 C1922 1.368 . S
C1917 C1901 1.349 . S
C1917 H1909 0.950 . S
C1917 C1915 1.327 . S
C1918 C1906 1.349 . S
C1918 H1912 0.950 . S
C1918 C1919 1.327 . S
C1919 H1913 0.950 . S
C1919 C1918 1.327 . S
C1919 C1923 1.429 . S
C1920 C1903 1.574 . S
C1920 H1914 0.949 . S
C1920 C1924 1.368 . S
C1921 C1902 1.429 . S
C1921 C1915 1.429 . S
C1921 C1922 1.523 . S
C1922 C1903 1.368 . S
C1922 C1916 1.368 . S
C1922 C1921 1.523 . S
C1923 C1907 1.429 . S
C1923 C1919 1.429 . S
C1923 C1924 1.523 . S
C1924 C1908 1.368 . S
C1924 C1920 1.368 . S
C1924 C1923 1.523 . S
H1925 C1900 0.950 . S
H1926 C1902 0.950 . S
H1927 C1903 0.949 . S
H1928 C1905 0.950 . S
H1929 C1907 0.950 . S
C1930 C1931 1.349 . S
C1930 C1932 1.327 . S
C1930 H1955 0.950 . S
C1931 C1930 1.349 . S
C1931 C1947 1.349 . S
C1932 C1930 1.327 . S
C1932 C1951 1.429 . S
C1932 H1956 0.950 . S
C1933 C1950 1.574 . S
C1933 C1952 1.368 . S
C1933 H1957 0.949 . S
H1934 C1938 0.949 . S
C1935 C1936 1.349 . S
C1935 C1937 1.327 . S
C1935 H1958 0.950 . S
C1936 C1935 1.349 . S
C1936 C1948 1.349 . S
C1937 C1935 1.327 . S
C1937 C1953 1.429 . S
C1937 H1959 0.950 . S
C1938 H1934 0.949 . S
C1938 C1946 1.574 . S
C1938 C1954 1.368 . S
H1939 C1947 0.950 . S
H1940 C1945 0.950 . S
H1941 C1946 0.949 . S
H1942 C1948 0.950 . S
H1943 C1949 0.950 . S
H1944 C1950 0.949 . S
C1945 H1940 0.950 . S
C1945 C1947 1.327 . S
C1945 C1951 1.429 . S
C1946 C1938 1.574 . S
C1946 H1941 0.949 . S
C1946 C1952 1.368 . S
C1947 C1931 1.349 . S
C1947 H1939 0.950 . S
C1947 C1945 1.327 . S
C1948 C1936 1.349 . S
C1948 H1942 0.950 . S
C1948 C1949 1.327 . S
C1949 H1943 0.950 . S
C1949 C1948 1.327 . S
C1949 C1953 1.429 . S
C1950 C1933 1.574 . S
C1950 H1944 0.949 . S
C1950 C1954 1.368 . S
C1951 C1932 1.429 . S
C1951 C1945 1.429 . S
C1951 C1952 1.523 . S
C1952 C1933 1.368 . S
C1952 C1946 1.368 . S
C1952 C1951 1.523 . S
C1953 C1937 1.429 . S
C1953 C1949 1.429 . S
C1953 C1954 1.523 . S
C1954 C1938 1.368 . S
C1954 C1950 1.368 . S
C1954 C1953 1.523 . S
H1955 C1930 0.950 . S
H1956 C1932 0.950 . S
H1957 C1933 0.949 . S
H1958 C1935 0.950 . S
H1959 C1937 0.950 . S
C1960 C1961 1.349 . S
C1960 C1962 1.327 . S
C1960 H1985 0.950 . S
C1961 C1960 1.349 . S
C1961 C1977 1.349 . S
C1962 C1960 1.327 . S
C1962 C1981 1.429 . S
C1962 H1986 0.950 . S
C1963 C1980 1.574 . S
C1963 C1982 1.368 . S
C1963 H1987 0.949 . S
H1964 C1968 0.949 . S
C1965 C1966 1.349 . S
C1965 C1967 1.327 . S
C1965 H1988 0.950 . S
C1966 C1965 1.349 . S
C1966 C1978 1.349 . S
C1967 C1965 1.327 . S
C1967 C1983 1.429 . S
C1967 H1989 0.950 . S
C1968 H1964 0.949 . S
C1968 C1976 1.574 . S
C1968 C1984 1.368 . S
H1969 C1977 0.950 . S
H1970 C1975 0.950 . S
H1971 C1976 0.949 . S
H1972 C1978 0.950 . S
H1973 C1979 0.950 . S
H1974 C1980 0.949 . S
C1975 H1970 0.950 . S
C1975 C1977 1.327 . S
C1975 C1981 1.429 . S
C1976 C1968 1.574 . S
C1976 H1971 0.949 . S
C1976 C1982 1.368 . S
C1977 C1961 1.349 . S
C1977 H1969 0.950 . S
C1977 C1975 1.327 . S
C1978 C1966 1.349 . S
C1978 H1972 0.950 . S
C1978 C1979 1.327 . S
C1979 H1973 0.950 . S
C1979 C1978 1.327 . S
C1979 C1983 1.429 . S
C1980 C1963 1.574 . S
C1980 H1974 0.949 . S
C1980 C1984 1.368 . S
C1981 C1962 1.429 . S
C1981 C1975 1.429 . S
C1981 C1982 1.523 . S
C1982 C1963 1.368 . S
C1982 C1976 1.368 . S
C1982 C1981 1.523 . S
C1983 C1967 1.429 . S
C1983 C1979 1.429 . S
C1983 C1984 1.523 . S
C1984 C1968 1.368 . S
C1984 C1980 1.368 . S
C1984 C1983 1.523 . S
H1985 C1960 0.950 . S
H1986 C1962 0.950 . S
H1987 C1963 0.949 . S
H1988 C1965 0.950 . S
H1989 C1967 0.950 . S
C1990 C1991 1.349 . S
C1990 C1992 1.327 . S
C1990 H2015 0.950 . S
C1991 C1990 1.349 . S
C1991 C2007 1.349 . S
C1992 C1990 1.327 . S
C1992 C2011 1.429 . S
C1992 H2016 0.950 . S
C1993 C2010 1.574 . S
C1993 C2012 1.368 . S
C1993 H2017 0.949 . S
H1994 C1998 0.949 . S
C1995 C1996 1.349 . S
C1995 C1997 1.327 . S
C1995 H2018 0.950 . S
C1996 C1995 1.349 . S
C1996 C2008 1.349 . S
C1997 C1995 1.327 . S
C1997 C2013 1.429 . S
C1997 H2019 0.950 . S
C1998 H1994 0.949 . S
C1998 C2006 1.574 . S
C1998 C2014 1.368 . S
H1999 C2007 0.950 . S
H2000 C2005 0.950 . S
H2001 C2006 0.949 . S
H2002 C2008 0.950 . S
H2003 C2009 0.950 . S
H2004 C2010 0.949 . S
C2005 H2000 0.950 . S
C2005 C2007 1.327 . S
C2005 C2011 1.429 . S
C2006 C1998 1.574 . S
C2006 H2001 0.949 . S
C2006 C2012 1.368 . S
C2007 C1991 1.349 . S
C2007 H1999 0.950 . S
C2007 C2005 1.327 . S
C2008 C1996 1.349 . S
C2008 H2002 0.950 . S
C2008 C2009 1.327 . S
C2009 H2003 0.950 . S
C2009 C2008 1.327 . S
C2009 C2013 1.429 . S
C2010 C1993 1.574 . S
C2010 H2004 0.949 . S
C2010 C2014 1.368 . S
C2011 C1992 1.429 . S
C2011 C2005 1.429 . S
C2011 C2012 1.523 . S
C2012 C1993 1.368 . S
C2012 C2006 1.368 . S
C2012 C2011 1.523 . S
C2013 C1997 1.429 . S
C2013 C2009 1.429 . S
C2013 C2014 1.523 . S
C2014 C1998 1.368 . S
C2014 C2010 1.368 . S
C2014 C2013 1.523 . S
H2015 C1990 0.950 . S
H2016 C1992 0.950 . S
H2017 C1993 0.949 . S
H2018 C1995 0.950 . S
H2019 C1997 0.950 . S
C2020 C2021 1.349 . S
C2020 C2022 1.327 . S
C2020 H2045 0.950 . S
C2021 C2020 1.349 . S
C2021 C2037 1.349 . S
C2022 C2020 1.327 . S
C2022 C2041 1.429 . S
C2022 H2046 0.950 . S
C2023 C2040 1.574 . S
C2023 C2042 1.368 . S
C2023 H2047 0.949 . S
H2024 C2028 0.949 . S
C2025 C2026 1.349 . S
C2025 C2027 1.327 . S
C2025 H2048 0.950 . S
C2026 C2025 1.349 . S
C2026 C2038 1.349 . S
C2027 C2025 1.327 . S
C2027 C2043 1.429 . S
C2027 H2049 0.950 . S
C2028 H2024 0.949 . S
C2028 C2036 1.574 . S
C2028 C2044 1.368 . S
H2029 C2037 0.950 . S
H2030 C2035 0.950 . S
H2031 C2036 0.949 . S
H2032 C2038 0.950 . S
H2033 C2039 0.950 . S
H2034 C2040 0.949 . S
C2035 H2030 0.950 . S
C2035 C2037 1.327 . S
C2035 C2041 1.429 . S
C2036 C2028 1.574 . S
C2036 H2031 0.949 . S
C2036 C2042 1.368 . S
C2037 C2021 1.349 . S
C2037 H2029 0.950 . S
C2037 C2035 1.327 . S
C2038 C2026 1.349 . S
C2038 H2032 0.950 . S
C2038 C2039 1.327 . S
C2039 H2033 0.950 . S
C2039 C2038 1.327 . S
C2039 C2043 1.429 . S
C2040 C2023 1.574 . S
C2040 H2034 0.949 . S
C2040 C2044 1.368 . S
C2041 C2022 1.429 . S
C2041 C2035 1.429 . S
C2041 C2042 1.523 . S
C2042 C2023 1.368 . S
C2042 C2036 1.368 . S
C2042 C2041 1.523 . S
C2043 C2027 1.429 . S
C2043 C2039 1.429 . S
C2043 C2044 1.523 . S
C2044 C2028 1.368 . S
C2044 C2040 1.368 . S
C2044 C2043 1.523 . S
H2045 C2020 0.950 . S
H2046 C2022 0.950 . S
H2047 C2023 0.949 . S
H2048 C2025 0.950 . S
H2049 C2027 0.950 . S
C2050 C2051 1.349 . S
C2050 C2052 1.327 . S
C2050 H2075 0.950 . S
C2051 C2050 1.349 . S
C2051 C2067 1.349 . S
C2052 C2050 1.327 . S
C2052 C2071 1.429 . S
C2052 H2076 0.950 . S
C2053 C2070 1.574 . S
C2053 C2072 1.368 . S
C2053 H2077 0.949 . S
H2054 C2058 0.949 . S
C2055 C2056 1.349 . S
C2055 C2057 1.327 . S
C2055 H2078 0.950 . S
C2056 C2055 1.349 . S
C2056 C2068 1.349 . S
C2057 C2055 1.327 . S
C2057 C2073 1.429 . S
C2057 H2079 0.950 . S
C2058 H2054 0.949 . S
C2058 C2066 1.574 . S
C2058 C2074 1.368 . S
H2059 C2067 0.950 . S
H2060 C2065 0.950 . S
H2061 C2066 0.949 . S
H2062 C2068 0.950 . S
H2063 C2069 0.950 . S
H2064 C2070 0.949 . S
C2065 H2060 0.950 . S
C2065 C2067 1.327 . S
C2065 C2071 1.429 . S
C2066 C2058 1.574 . S
C2066 H2061 0.949 . S
C2066 C2072 1.368 . S
C2067 C2051 1.349 . S
C2067 H2059 0.950 . S
C2067 C2065 1.327 . S
C2068 C2056 1.349 . S
C2068 H2062 0.950 . S
C2068 C2069 1.327 . S
C2069 H2063 0.950 . S
C2069 C2068 1.327 . S
C2069 C2073 1.429 . S
C2070 C2053 1.574 . S
C2070 H2064 0.949 . S
C2070 C2074 1.368 . S
C2071 C2052 1.429 . S
C2071 C2065 1.429 . S
C2071 C2072 1.523 . S
C2072 C2053 1.368 . S
C2072 C2066 1.368 . S
C2072 C2071 1.523 . S
C2073 C2057 1.429 . S
C2073 C2069 1.429 . S
C2073 C2074 1.523 . S
C2074 C2058 1.368 . S
C2074 C2070 1.368 . S
C2074 C2073 1.523 . S
H2075 C2050 0.950 . S
H2076 C2052 0.950 . S
H2077 C2053 0.949 . S
H2078 C2055 0.950 . S
H2079 C2057 0.950 . S
C641 C139 1.682 . S
C646 C9 1.704 . S
C671 C6 0.217 . S
C676 C55 0.179 . S
C701 C89 0.335 . S
C706 C58 0.434 . S
C731 C126 0.497 . S
C736 C86 0.482 . S
C761 C166 1.935 . S
C766 C210 1.879 . S
C791 C218 0.486 . S
C796 C258 0.477 . S
C821 C255 2.969 . S
C826 C290 2.922 . S
C851 C179 1.572 . S
C856 C298 1.577 . S
C881 C375 2.159 . S
C886 C19 2.129 . S
C911 C410 1.234 . S
C916 C50 1.211 . S
C941 C99 2.099 . S
C946 C535 2.109 . S
C971 C329 0.647 . S
C976 C129 0.644 . S
C1001 C449 0.465 . S
C1006 C169 0.491 . S
C1031 C575 0.940 . S
C1036 C215 0.944 . S
C1061 C250 1.924 . S
C1066 C490 1.954 . S
C1091 C619 2.238 . S
C1096 C295 2.263 . S
C1121 C339 1.717 . S
C1126 C538 1.738 . S
C1151 C370 2.459 . S
C1156 C326 2.503 . S
C1181 C418 0.827 . S
C1186 C378 0.830 . S
C1211 C578 1.615 . S
C1216 C459 1.595 . S
C1241 C498 0.927 . S
C1246 C609 0.925 . S
C1271 C450 1.682 . S
C1276 C18 1.702 . S
C1301 C486 0.180 . S
C1306 C15 0.220 . S
C1331 C489 0.436 . S
C1336 C98 0.333 . S
C1361 C95 0.484 . S
C1366 C455 0.498 . S
C1391 C379 1.878 . S
C1396 C175 1.934 . S
C1421 C369 0.486 . S
C1426 C249 0.466 . S
C1451 C539 2.927 . S
C1456 C246 2.975 . S
C1481 C170 1.572 . S
C1486 C529 1.583 . S
C1511 C206 2.159 . S
C1516 C10 2.134 . S
C1541 C419 1.234 . S
C1546 C499 1.213 . S
C1571 C90 2.099 . S
C1576 C286 2.102 . S
C1601 C338 0.647 . S
C1606 C458 0.639 . S
C1631 C138 0.464 . S
C1636 C178 0.488 . S
C1661 C366 0.944 . S
C1666 C566 0.940 . S
C1691 C259 1.924 . S
C1696 C59 1.950 . S
C1721 C610 2.238 . S
C1726 C526 2.272 . S
C1751 C330 1.717 . S
C1756 C289 1.731 . S
C1781 C335 2.504 . S
C1786 C219 2.460 . S
C1811 C409 0.827 . S
C1816 C209 0.830 . S
C1841 C130 1.595 . S
C1846 C569 1.615 . S
C1871 C49 0.926 . S
C1876 C618 0.918 . S
C1901 C495 1.210 . S
C1906 C570 1.191 . S
C1931 C446 0.459 . S
C1936 C606 0.434 . S
C1961 C415 3.048 . S
C1966 C530 3.009 . S
C1991 C579 1.191 . S
C1996 C46 1.210 . S
C2021 C135 0.459 . S
C2026 C615 0.430 . S
C2051 C299 3.006 . S
C2056 C406 3.045 . S
