# Generated by pormake.
# Topology umf, (4)-cn, num edge types: 1
# Building blocks:
#     Node 0, Type 0, BuildingBlock: QUQFOY_clean_sbu_3, # of connection points: 4
#     Node 1, Type 0, BuildingBlock: QUQFOY_clean_sbu_3, # of connection points: 4
#     Node 2, Type 0, BuildingBlock: QUQFOY_clean_sbu_3, # of connection points: 4
#     Node 3, Type 0, BuildingBlock: QUQFOY_clean_sbu_3, # of connection points: 4
#     Node 4, Type 0, BuildingBlock: QUQFOY_clean_sbu_3, # of connection points: 4
#     Node 5, Type 0, BuildingBlock: QUQFOY_clean_sbu_3, # of connection points: 4
#     Node 6, Type 0, BuildingBlock: QUQFOY_clean_sbu_3, # of connection points: 4
#     Node 7, Type 0, BuildingBlock: QUQFOY_clean_sbu_3, # of connection points: 4
#     Edge 8, Type (0, 0), BuildingBlock: FUNLAD_clean_linker_1, # of connection points: 2
#     Edge 9, Type (0, 0), BuildingBlock: FUNLAD_clean_linker_1, # of connection points: 2
#     Edge 10, Type (0, 0), BuildingBlock: FUNLAD_clean_linker_1, # of connection points: 2
#     Edge 11, Type (0, 0), BuildingBlock: FUNLAD_clean_linker_1, # of connection points: 2
#     Edge 12, Type (0, 0), BuildingBlock: FUNLAD_clean_linker_1, # of connection points: 2
#     Edge 13, Type (0, 0), BuildingBlock: FUNLAD_clean_linker_1, # of connection points: 2
#     Edge 14, Type (0, 0), BuildingBlock: FUNLAD_clean_linker_1, # of connection points: 2
#     Edge 15, Type (0, 0), BuildingBlock: FUNLAD_clean_linker_1, # of connection points: 2
#     Edge 16, Type (0, 0), BuildingBlock: FUNLAD_clean_linker_1, # of connection points: 2
#     Edge 17, Type (0, 0), BuildingBlock: FUNLAD_clean_linker_1, # of connection points: 2
#     Edge 18, Type (0, 0), BuildingBlock: FUNLAD_clean_linker_1, # of connection points: 2
#     Edge 19, Type (0, 0), BuildingBlock: FUNLAD_clean_linker_1, # of connection points: 2
#     Edge 20, Type (0, 0), BuildingBlock: FUNLAD_clean_linker_1, # of connection points: 2
#     Edge 21, Type (0, 0), BuildingBlock: FUNLAD_clean_linker_1, # of connection points: 2
#     Edge 22, Type (0, 0), BuildingBlock: FUNLAD_clean_linker_1, # of connection points: 2
#     Edge 23, Type (0, 0), BuildingBlock: FUNLAD_clean_linker_1, # of connection points: 2
# Relax obj value: 0.168
# Max RMSD: 0.287
# Mean RMSD: 0.287
data_MOF--net-umf--node1-QUQFOY_clean_sbu_3--edge1-FUNLAD_clean_linker_1
_symmetry_space_group_name_H-M    P1
_symmetry_Int_Tables_number       1
_symmetry_cell_setting            triclinic
loop_
_symmetry_equiv_pos_as_xyz
'x, y, z'
_cell_length_a     29.599354
_cell_length_b     29.617128
_cell_length_c     54.759854
_cell_angle_alpha  89.843954
_cell_angle_beta   89.934533
_cell_angle_gamma 89.858439
loop_
_atom_site_label
_atom_site_type_symbol
_atom_site_fract_x
_atom_site_fract_y
_atom_site_fract_z
_atom_type_partial_charge
C0 C 0.19293 0.2549 0.16091 0.0
O1 O 0.20445 0.27075 0.14039 0.0
Cd2 Cd 0.14671 0.22802 0.11747 0.0
O3 O 0.15445 0.23659 0.16241 0.0
Cd4 Cd 0.10006 0.26829 0.13239 0.0
C5 C 0.07001 0.17546 0.15278 0.0
O6 O 0.10022 0.26015 0.08624 0.0
O7 O 0.03658 0.25827 0.10649 0.0
O8 O 0.13575 0.34152 0.13286 0.0
C9 C 0.05701 0.25946 0.08613 0.0
O10 O 0.10433 0.16826 0.13925 0.0
C11 C 0.1035 0.36084 0.14402 0.0
O12 O 0.05622 0.2156 0.15587 0.0
O13 O 0.06949 0.33691 0.14992 0.0
C14 C 0.74102 0.19655 0.6653 0.0
O15 O 0.76828 0.2126 0.64968 0.0
Cd16 Cd 0.79637 0.16124 0.61864 0.0
O17 O 0.72765 0.15613 0.66353 0.0
Cd18 Cd 0.73527 0.09084 0.63696 0.0
C19 C 0.8427 0.07775 0.65361 0.0
O20 O 0.74236 0.11859 0.59433 0.0
O21 O 0.76222 0.04951 0.6026 0.0
O22 O 0.65426 0.0903 0.636 0.0
C23 C 0.75345 0.07944 0.58669 0.0
O24 O 0.84915 0.11079 0.6391 0.0
C25 C 0.64959 0.05137 0.64525 0.0
O26 O 0.80292 0.06377 0.65811 0.0
O27 O 0.68529 0.02982 0.651 0.0
C28 C 0.82692 0.75382 0.17316 0.0
O29 O 0.80358 0.76133 0.15423 0.0
Cd30 Cd 0.85232 0.79875 0.12476 0.0
O31 O 0.86962 0.75552 0.17194 0.0
Cd32 Cd 0.92612 0.75558 0.13913 0.0
C33 C 0.93266 0.85974 0.15532 0.0
O34 O 0.89715 0.75426 0.09647 0.0
O35 O 0.95998 0.78959 0.10392 0.0
O36 O 0.9299 0.67488 0.14108 0.0
C37 C 0.93328 0.77251 0.08845 0.0
O38 O 0.89523 0.86074 0.14383 0.0
C39 C 0.9709 0.67283 0.14762 0.0
O40 O 0.95417 0.82293 0.1578 0.0
O41 O 0.99194 0.70985 0.15045 0.0
C42 C 0.22085 0.77616 0.65828 0.0
O43 O 0.20105 0.76273 0.63916 0.0
Cd44 Cd 0.18093 0.82387 0.61159 0.0
O45 O 0.23634 0.81603 0.65922 0.0
Cd46 Cd 0.25 0.88125 0.63281 0.0
C47 C 0.14702 0.91075 0.64918 0.0
O48 O 0.24066 0.86106 0.58899 0.0
O49 O 0.2336 0.93132 0.59983 0.0
O50 O 0.3291 0.862 0.63448 0.0
C51 C 0.23637 0.90244 0.58284 0.0
O52 O 0.13648 0.87896 0.63464 0.0
C53 C 0.34162 0.89882 0.64404 0.0
O54 O 0.18822 0.91992 0.65343 0.0
O55 O 0.31127 0.92809 0.64868 0.0
C56 C 0.17224 0.75861 0.83403 0.0
O57 O 0.18389 0.73664 0.85283 0.0
Cd58 Cd 0.12562 0.77468 0.87806 0.0
O59 O 0.13382 0.77726 0.83413 0.0
Cd60 Cd 0.08154 0.73818 0.86351 0.0
C61 C 0.04727 0.83151 0.84637 0.0
O62 O 0.08302 0.74099 0.91005 0.0
O63 O 0.01857 0.7402 0.8907 0.0
O64 O 0.12194 0.66743 0.86031 0.0
C65 C 0.03991 0.73879 0.91076 0.0
O66 O 0.08271 0.83754 0.85912 0.0
C67 C 0.09096 0.64728 0.84871 0.0
O68 O 0.03312 0.79166 0.84291 0.0
O69 O 0.05525 0.66957 0.84374 0.0
C70 C 0.23504 0.18743 0.33446 0.0
O71 O 0.21513 0.20873 0.3514 0.0
Cd72 Cd 0.18286 0.16153 0.38341 0.0
O73 O 0.24161 0.14531 0.33643 0.0
Cd74 Cd 0.23211 0.0846 0.36608 0.0
C75 C 0.12413 0.08163 0.35212 0.0
O76 O 0.23389 0.11573 0.40819 0.0
O77 O 0.20302 0.05019 0.40225 0.0
O78 O 0.31183 0.07065 0.36365 0.0
C79 C 0.2188 0.07888 0.41709 0.0
O80 O 0.12181 0.11619 0.36587 0.0
C81 C 0.30847 0.03021 0.3563 0.0
O82 O 0.16196 0.06358 0.34719 0.0
O83 O 0.269 0.01472 0.35302 0.0
C84 C 0.80871 0.26615 0.83724 0.0
O85 O 0.79081 0.24135 0.85344 0.0
Cd86 Cd 0.84222 0.206 0.88224 0.0
O87 O 0.8508 0.27356 0.83762 0.0
Cd88 Cd 0.91732 0.25656 0.86204 0.0
C89 C 0.91384 0.15052 0.84362 0.0
O90 O 0.89496 0.25222 0.90553 0.0
O91 O 0.95705 0.21883 0.89423 0.0
O92 O 0.92927 0.33617 0.86402 0.0
C93 C 0.93225 0.23337 0.91136 0.0
O94 O 0.88245 0.14782 0.85948 0.0
C95 C 0.96726 0.33624 0.85339 0.0
O96 O 0.93227 0.18824 0.83878 0.0
O97 O 0.98323 0.29845 0.84648 0.0
C98 C 0.74301 0.77884 0.34509 0.0
O99 O 0.76229 0.76346 0.36399 0.0
Cd100 Cd 0.78732 0.82226 0.39171 0.0
O101 O 0.73056 0.81984 0.34438 0.0
Cd102 Cd 0.72387 0.88474 0.37159 0.0
C103 C 0.82744 0.90802 0.35544 0.0
O104 O 0.73093 0.86249 0.41534 0.0
O105 O 0.74748 0.93122 0.40473 0.0
O106 O 0.64271 0.87976 0.36981 0.0
C107 C 0.7401 0.90287 0.42164 0.0
O108 O 0.8366 0.87564 0.37001 0.0
C109 C 0.63717 0.91828 0.36003 0.0
O110 O 0.78679 0.91863 0.35084 0.0
O111 O 0.67223 0.94144 0.35548 0.0
H112 H 0.13448 0.42826 0.1423 0.0
C113 C 0.10472 0.40972 0.14819 0.0
H114 H 0.03877 0.41428 0.16278 0.0
H115 H 0.0515 0.61193 0.20306 0.0
H116 H 0.05768 0.56976 0.24115 0.0
H117 H 0.06925 0.48719 0.24085 0.0
H118 H 0.07436 0.44619 0.20254 0.0
C119 C 0.0686 0.43224 0.15651 0.0
C120 C 0.06738 0.48225 0.15661 0.0
C121 C 0.06552 0.50559 0.17914 0.0
C122 C 0.05923 0.55314 0.17935 0.0
C123 C 0.05622 0.57573 0.20202 0.0
C124 C 0.05985 0.55197 0.22394 0.0
C125 C 0.06637 0.50547 0.22377 0.0
C126 C 0.06916 0.48235 0.20168 0.0
H127 H 0.97221 0.59912 0.14649 0.0
C128 C 0.99255 0.6287 0.15062 0.0
H129 H 0.0572 0.65178 0.16165 0.0
H130 H 0.06854 0.44807 0.10976 0.0
H131 H 0.06721 0.49127 0.07222 0.0
H132 H 0.0623 0.57444 0.07299 0.0
H133 H 0.05769 0.61467 0.11156 0.0
C134 C 0.03591 0.62325 0.15699 0.0
C135 C 0.05487 0.57693 0.15707 0.0
C136 C 0.06063 0.5542 0.13457 0.0
C137 C 0.06558 0.50657 0.13423 0.0
C138 C 0.06693 0.48439 0.11132 0.0
C139 C 0.06579 0.50879 0.08953 0.0
C140 C 0.06284 0.55558 0.08995 0.0
C141 C 0.06006 0.5782 0.11216 0.0
H142 H 0.41357 0.88057 0.64327 0.0
C143 C 0.38988 0.90726 0.64805 0.0
H144 H 0.38272 0.97442 0.6605 0.0
H145 H 0.58193 0.98402 0.70288 0.0
H146 H 0.53883 0.97935 0.74062 0.0
H147 H 0.45704 0.96341 0.73989 0.0
H148 H 0.41774 0.9524 0.70144 0.0
C149 C 0.40565 0.94742 0.65526 0.0
C150 C 0.455 0.95613 0.65572 0.0
C151 C 0.4774 0.96195 0.67835 0.0
C152 C 0.52457 0.97076 0.6788 0.0
C153 C 0.54612 0.97718 0.70158 0.0
C154 C 0.52181 0.9745 0.72334 0.0
C155 C 0.47575 0.96553 0.72293 0.0
C156 C 0.4536 0.95929 0.70075 0.0
H157 H 0.57601 0.05303 0.64165 0.0
C158 C 0.60417 0.03243 0.64799 0.0
H159 H 0.6232 0.96972 0.66366 0.0
H160 H 0.42202 0.95014 0.60886 0.0
H161 H 0.46597 0.95081 0.57155 0.0
H162 H 0.54879 0.95986 0.57272 0.0
H163 H 0.58789 0.9692 0.61131 0.0
C164 C 0.59609 0.99089 0.65667 0.0
C165 C 0.54903 0.97374 0.65663 0.0
C166 C 0.52709 0.96563 0.63408 0.0
C167 C 0.47977 0.95816 0.63353 0.0
C168 C 0.45821 0.9538 0.61054 0.0
C169 C 0.48301 0.9545 0.58891 0.0
C170 C 0.52959 0.95977 0.58956 0.0
C171 C 0.55155 0.96537 0.61181 0.0
H172 H 0.97441 0.40907 0.85727 0.0
C173 C 0.99093 0.37912 0.84998 0.0
H174 H 0.04814 0.35453 0.83075 0.0
H175 H 0.06029 0.55924 0.79056 0.0
H176 H 0.04938 0.51744 0.75287 0.0
H177 H 0.03939 0.43472 0.75355 0.0
H178 H 0.04069 0.39318 0.79197 0.0
C179 C 0.03119 0.38332 0.83895 0.0
C180 C 0.05144 0.42906 0.83742 0.0
C181 C 0.05151 0.45247 0.81489 0.0
C182 C 0.05677 0.50014 0.81456 0.0
C183 C 0.05597 0.52302 0.79183 0.0
C184 C 0.04983 0.49944 0.7701 0.0
C185 C 0.04421 0.45285 0.77048 0.0
C186 C 0.04488 0.42945 0.7926 0.0
H187 H 0.12717 0.58233 0.84781 0.0
C188 C 0.09539 0.59892 0.84339 0.0
H189 H 0.02783 0.59005 0.8321 0.0
H190 H 0.06571 0.39197 0.88237 0.0
H191 H 0.07653 0.43279 0.92042 0.0
H192 H 0.07857 0.51608 0.92075 0.0
H193 H 0.07087 0.55879 0.88332 0.0
C194 C 0.05981 0.57406 0.83669 0.0
C195 C 0.06176 0.524 0.83678 0.0
C196 C 0.06524 0.49998 0.85921 0.0
C197 C 0.06169 0.45223 0.8593 0.0
C198 C 0.06664 0.42849 0.88162 0.0
C199 C 0.07307 0.45144 0.90349 0.0
C200 C 0.07438 0.4983 0.90365 0.0
C201 C 0.07031 0.52246 0.88188 0.0
H202 H 0.34425 0.96676 0.34747 0.0
C203 C 0.34863 0.00176 0.3529 0.0
H204 H 0.39448 0.0521 0.36422 0.0
H205 H 0.53773 0.91711 0.40658 0.0
H206 H 0.50088 0.94111 0.44395 0.0
H207 H 0.43084 0.98634 0.44261 0.0
H208 H 0.39708 0.00762 0.40389 0.0
C209 C 0.38995 0.01768 0.35785 0.0
C210 C 0.42982 0.98761 0.35829 0.0
C211 C 0.44845 0.97481 0.38111 0.0
C212 C 0.48857 0.94858 0.38188 0.0
C213 C 0.50708 0.93684 0.40491 0.0
C214 C 0.48627 0.95039 0.42652 0.0
C215 C 0.44683 0.97583 0.42577 0.0
C216 C 0.42792 0.98793 0.4034 0.0
H217 H 0.5892 0.97067 0.34801 0.0
C218 C 0.59198 0.9365 0.35519 0.0
H219 H 0.55681 0.87972 0.36889 0.0
H220 H 0.40237 0.00655 0.31155 0.0
H221 H 0.43807 0.98065 0.27418 0.0
H222 H 0.50638 0.93276 0.27558 0.0
H223 H 0.53962 0.91088 0.31442 0.0
C224 C 0.55459 0.91325 0.36086 0.0
C225 C 0.5099 0.93558 0.35982 0.0
C226 C 0.49023 0.94674 0.33701 0.0
C227 C 0.45027 0.97329 0.33622 0.0
C228 C 0.4322 0.9856 0.31321 0.0
C229 C 0.45243 0.97108 0.29162 0.0
C230 C 0.49095 0.9442 0.29241 0.0
C231 C 0.50979 0.93206 0.31479 0.0
H232 H 0.97813 0.2088 0.93981 0.0
C233 C 0.94907 0.23057 0.93657 0.0
H234 H 0.9075 0.28163 0.9514 0.0
H235 H 0.01744 0.17739 0.04353 0.0
H236 H 0.96878 0.11365 0.03504 0.0
H237 H 0.91451 0.11623 1.0009 0.0
H238 H 0.90912 0.18245 0.97482 0.0
C239 C 0.93434 0.25726 0.95465 0.0
C240 C 0.96021 0.25901 0.97796 0.0
C241 C 0.96158 0.2209 0.99367 0.0
C242 C 0.99152 0.2202 0.01396 0.0
C243 C 0.99405 0.18057 0.02846 0.0
C244 C 0.96653 0.14355 0.02368 0.0
C245 C 0.93609 0.14493 0.00441 0.0
C246 C 0.93353 0.18303 0.9895 0.0
H247 H 0.99358 0.25941 0.06539 0.0
C248 C 0.03017 0.25966 0.06351 0.0
H249 H 0.08475 0.26051 0.03862 0.0
H250 H 0.96503 0.33792 0.95186 0.0
H251 H 0.01188 0.40271 0.96109 0.0
H252 H 0.06173 0.40264 0.99717 0.0
H253 H 0.06546 0.3375 0.02408 0.0
C254 C 0.04836 0.25895 0.04109 0.0
C255 C 0.01866 0.25848 0.01913 0.0
C256 C 0.01645 0.29702 0.00377 0.0
C257 C 0.9872 0.2973 0.98316 0.0
C258 C 0.98633 0.33597 0.96788 0.0
C259 C 0.01304 0.37344 0.97297 0.0
C260 C 0.04114 0.37338 0.99326 0.0
C261 C 0.04296 0.33575 0.00855 0.0
H262 H 0.74338 0.09333 0.54721 0.0
C263 C 0.75285 0.0677 0.5605 0.0
H264 H 0.77121 -0.00063 0.56634 0.0
H265 H 0.66591 0.95197 0.46679 0.0
H266 H 0.60008 0.95398 0.49311 0.0
H267 H 0.60578 0.98136 0.5355 0.0
H268 H 0.67733 0.00754 0.55169 0.0
C269 C 0.76185 0.02526 0.55319 0.0
C270 C 0.75801 0.01099 0.52732 0.0
C271 C 0.71619 0.9949 0.51831 0.0
C272 C 0.71319 0.97797 0.49408 0.0
C273 C 0.67054 0.96385 0.48526 0.0
C274 C 0.63235 0.96507 0.50015 0.0
C275 C 0.63554 0.98056 0.524 0.0
C276 C 0.67684 -0.00456 0.53306 0.0
H277 H 0.73609 0.89187 0.46169 0.0
C278 C 0.74174 0.9169 0.44748 0.0
H279 H 0.75632 0.98512 0.43927 0.0
H280 H 0.84297 0.03952 0.53911 0.0
H281 H 0.90931 0.03704 0.51302 0.0
H282 H 0.90464 0.00673 0.47119 0.0
H283 H 0.83377 0.97839 0.45521 0.0
C284 C 0.74955 0.96029 0.45346 0.0
C285 C 0.75238 0.97619 0.47915 0.0
C286 C 0.79414 0.99263 0.48816 0.0
C287 C 0.79694 0.00999 0.51229 0.0
C288 C 0.83907 0.02589 0.52092 0.0
C289 C 0.87738 0.0247 0.50613 0.0
C290 C 0.87474 0.00764 0.48257 0.0
C291 C 0.83376 0.99165 0.47361 0.0
H292 H 0.97468 0.79397 0.05739 0.0
C293 C 0.94653 0.77238 0.06256 0.0
H294 H 0.90358 0.71974 0.05108 0.0
H295 H -0.00016 0.81887 0.95283 0.0
H296 H 0.95129 0.88258 0.96202 0.0
H297 H 0.90102 0.88135 0.99798 0.0
H298 H 0.89964 0.8165 0.0252 0.0
C299 C 0.92956 0.74384 0.04598 0.0
C300 C 0.95164 0.74041 0.02156 0.0
C301 C 0.9505 0.77757 0.00519 0.0
C302 C 0.97804 0.77741 0.98388 0.0
C303 C 0.97831 0.81628 0.96873 0.0
C304 C 0.95081 0.85329 0.97389 0.0
C305 C 0.92263 0.85267 0.99418 0.0
C306 C 0.92237 0.81538 0.00972 0.0
H307 H 0.97762 0.73466 0.93252 0.0
C308 C 0.01425 0.73629 0.93379 0.0
H309 H 0.07007 0.7391 0.95775 0.0
H310 H 0.95962 0.66251 0.04829 0.0
H311 H 0.00551 0.59721 0.03817 0.0
H312 H 0.05138 0.59587 1.00054 0.0
H313 H 0.05181 0.65999 0.97281 0.0
C314 C 0.03354 0.73843 0.9559 0.0
C315 C 0.00517 0.73913 0.9784 0.0
C316 C 0.00488 0.70122 0.99426 0.0
C317 C 0.97806 0.70183 0.01585 0.0
C318 C 0.97909 0.66379 0.03158 0.0
C319 C 0.0053 0.62606 0.02599 0.0
C320 C 0.03113 0.62531 0.0048 0.0
C321 C 0.03107 0.66234 0.98905 0.0
H322 H 0.23525 0.0932 0.45586 0.0
C323 C 0.2225 0.06786 0.44334 0.0
H324 H 0.20099 0.00025 0.43898 0.0
H325 H 0.31091 0.93633 0.5327 0.0
H326 H 0.36918 0.9242 0.50227 0.0
H327 H 0.35928 0.95147 0.46 0.0
H328 H 0.29145 0.99202 0.44807 0.0
C329 C 0.21245 0.02616 0.45153 0.0
C330 C 0.21925 0.01218 0.47731 0.0
C331 C 0.25869 0.98782 0.4839 0.0
C332 C 0.2638 0.97097 0.5081 0.0
C333 C 0.30449 0.94855 0.51441 0.0
C334 C 0.3384 0.94162 0.49714 0.0
C335 C 0.3329 0.95708 0.47336 0.0
C336 C 0.29371 0.98014 0.46673 0.0
H337 H 0.23378 0.89134 0.5428 0.0
C338 C 0.23463 0.91687 0.55701 0.0
H339 H 0.23365 0.98649 0.56529 0.0
H340 H 0.13963 0.05749 0.47051 0.0
H341 H 0.08045 0.06866 0.50063 0.0
H342 H 0.08828 0.03808 0.54237 0.0
H343 H 0.15523 -0.0038 0.55426 0.0
C344 C 0.23377 0.96103 0.55103 0.0
C345 C 0.22875 0.97744 0.52546 0.0
C346 C 0.18941 0.00212 0.51886 0.0
C347 C 0.18472 0.01956 0.49477 0.0
C348 C 0.1449 0.04358 0.48858 0.0
C349 C 0.11066 0.05022 0.50568 0.0
C350 C 0.11509 0.03304 0.52918 0.0
C351 C 0.15384 0.00919 0.53579 0.0
H352 H 0.24725 0.2873 0.18258 0.0
C353 C 0.2194 0.26349 0.18327 0.0
H354 H 0.17695 0.22343 0.20522 0.0
H355 H 0.32602 0.24662 0.29127 0.0
H356 H 0.38379 0.21781 0.2635 0.0
H357 H 0.36718 0.20769 0.21968 0.0
H358 H 0.29351 0.22729 0.20322 0.0
C359 C 0.20584 0.24603 0.20473 0.0
C360 C 0.22188 0.26219 0.22887 0.0
C361 C 0.26498 0.25003 0.23795 0.0
C362 C 0.27399 0.254 0.26336 0.0
C363 C 0.31742 0.24269 0.27218 0.0
C364 C 0.3507 0.22641 0.25646 0.0
C365 C 0.34136 0.2208 0.23177 0.0
C366 C 0.29896 0.23224 0.22253 0.0
H367 H 0.25471 0.18559 0.29616 0.0
C368 C 0.24586 0.20864 0.31085 0.0
H369 H 0.23036 0.27575 0.32018 0.0
H370 H 0.14153 0.30084 0.21592 0.0
H371 H 0.08627 0.33438 0.24334 0.0
H372 H 0.10056 0.33797 0.28768 0.0
H373 H 0.17017 0.30862 0.30482 0.0
C374 C 0.24028 0.25271 0.30576 0.0
C375 C 0.23911 0.26744 0.27962 0.0
C376 C 0.19879 0.28617 0.27 0.0
C377 C 0.19026 0.28359 0.24451 0.0
C378 C 0.14923 0.30134 0.23524 0.0
C379 C 0.11738 0.32082 0.25074 0.0
C380 C 0.12545 0.32285 0.2757 0.0
C381 C 0.16554 0.30565 0.28534 0.0
H382 H 0.79912 0.3073 0.80447 0.0
C383 C 0.78385 0.28053 0.81532 0.0
H384 H 0.74179 0.22347 0.81437 0.0
H385 H 0.70293 0.31523 0.70493 0.0
H386 H 0.65337 0.36748 0.72642 0.0
H387 H 0.64922 0.3671 0.77145 0.0
H388 H 0.69442 0.31431 0.79532 0.0
C389 C 0.75421 0.25288 0.80455 0.0
C390 C 0.75323 0.25145 0.77743 0.0
C391 C 0.72671 0.28241 0.76384 0.0
C392 C 0.72898 0.28252 0.73788 0.0
C393 C 0.70213 0.31367 0.72468 0.0
C394 C 0.67371 0.34382 0.73678 0.0
C395 C 0.67141 0.34364 0.76215 0.0
C396 C 0.69754 0.31333 0.77563 0.0
H397 H 0.70105 0.20792 0.69837 0.0
C398 C 0.7292 0.22109 0.68774 0.0
H399 H 0.78907 0.25923 0.68908 0.0
H400 H 0.80848 0.18715 0.79806 0.0
H401 H 0.85809 0.13559 0.77666 0.0
H402 H 0.86279 0.13653 0.73167 0.0
H403 H 0.818 0.18916 0.70791 0.0
C404 C 0.75853 0.24893 0.6986 0.0
C405 C 0.75804 0.25191 0.72568 0.0
C406 C 0.78488 0.22114 0.73931 0.0
C407 C 0.78214 0.22059 0.76519 0.0
C408 C 0.80911 0.1892 0.77834 0.0
C409 C 0.83779 0.15929 0.76629 0.0
C410 C 0.84044 0.15982 0.74098 0.0
C411 C 0.81442 0.19025 0.72756 0.0
H412 H 0.73537 0.71435 0.32484 0.0
C413 C 0.738 0.75077 0.32304 0.0
H414 H 0.74221 0.80713 0.29977 0.0
H415 H 0.80685 0.65911 0.2182 0.0
H416 H 0.85798 0.62513 0.24794 0.0
H417 H 0.85643 0.64931 0.29102 0.0
H418 H 0.80316 0.70549 0.30482 0.0
C419 C 0.73969 0.77054 0.30089 0.0
C420 C 0.73656 0.74682 0.27699 0.0
C421 C 0.76988 0.71515 0.26941 0.0
C422 C 0.77329 0.70361 0.24428 0.0
C423 C 0.8047 0.6702 0.237 0.0
C424 C 0.83393 0.65046 0.25383 0.0
C425 C 0.8329 0.66395 0.2781 0.0
C426 C 0.80161 0.69613 0.28586 0.0
H427 H 0.82819 0.7519 0.21288 0.0
C428 C 0.80645 0.74582 0.19723 0.0
H429 H 0.74166 0.72544 0.18565 0.0
H430 H 0.6614 0.79767 0.28629 0.0
H431 H 0.60958 0.82901 0.25622 0.0
H432 H 0.6203 0.814 0.21228 0.0
H433 H 0.6824 0.76707 0.19816 0.0
C434 C 0.76401 0.73133 0.20102 0.0
C435 C 0.74708 0.72711 0.22667 0.0
C436 C 0.71016 0.75375 0.23449 0.0
C437 C 0.70456 0.76311 0.25977 0.0
C438 C 0.66767 0.79034 0.26722 0.0
C439 C 0.63763 0.80831 0.25019 0.0
C440 C 0.64366 0.79983 0.22545 0.0
C441 C 0.67954 0.773 0.21757 0.0
H442 H 0.21755 0.71096 0.67844 0.0
C443 C 0.22379 0.74694 0.68014 0.0
H444 H 0.23751 0.80151 0.70353 0.0
H445 H 0.1491 0.67483 0.7885 0.0
H446 H 0.08444 0.66182 0.76211 0.0
H447 H 0.08569 0.68654 0.71905 0.0
H448 H 0.15132 0.72315 0.70202 0.0
C449 C 0.23093 0.76549 0.70222 0.0
C450 C 0.23194 0.74028 0.72577 0.0
C451 C 0.19245 0.71928 0.73526 0.0
C452 C 0.19077 0.7068 0.76036 0.0
C453 C 0.15145 0.68571 0.76964 0.0
C454 C 0.11424 0.67803 0.75472 0.0
C455 C 0.11503 0.69182 0.73047 0.0
C456 C 0.15335 0.71256 0.72082 0.0
H457 H 0.19302 0.78664 0.79886 0.0
C458 C 0.19824 0.75828 0.81123 0.0
H459 H 0.22041 0.69043 0.81385 0.0
H460 H 0.31569 0.7705 0.71242 0.0
H461 H 0.37992 0.7823 0.73932 0.0
H462 H 0.37466 0.76444 0.7833 0.0
H463 H 0.30505 0.73419 0.80061 0.0
C464 C 0.21835 0.7208 0.80273 0.0
C465 C 0.22705 0.71784 0.77606 0.0
C466 C 0.26776 0.73458 0.76622 0.0
C467 C 0.27044 0.74534 0.74097 0.0
C468 C 0.31159 0.76249 0.7316 0.0
C469 C 0.3487 0.7692 0.74681 0.0
C470 C 0.34575 0.75914 0.77157 0.0
C471 C 0.30574 0.74204 0.78129 0.0
H472 H 0.01232 0.1451 0.17234 0.0
C473 C 0.04336 0.13757 0.1625 0.0
H474 H 0.08297 0.08686 0.14579 0.0
H475 H 0.96082 0.94382 0.20766 0.0
H476 H 0.01121 0.96196 0.24121 0.0
H477 H 0.06515 0.02505 0.23782 0.0
H478 H 0.06927 0.07025 0.20074 0.0
C479 C 0.05306 0.09477 0.15649 0.0
C480 C 0.01894 0.05869 0.15945 0.0
C481 C 0.01696 0.03288 0.18119 0.0
C482 C 0.98648 -0.004 0.18295 0.0
C483 C 0.98445 0.97124 0.20507 0.0
C484 C 0.01285 0.98158 0.22453 0.0
C485 C 0.04324 0.01711 0.22262 0.0
C486 C 0.0453 0.04273 0.20127 0.0
H487 H 0.99028 0.90078 0.16711 0.0
C488 C 0.95432 0.90191 0.16309 0.0
H489 H 0.89694 0.94317 0.15819 0.0
H490 H 0.01239 0.10394 0.11585 0.0
H491 H 0.96293 0.08553 0.08212 0.0
H492 H 0.91116 0.02055 0.08468 0.0
H493 H 0.90837 0.97388 0.12095 0.0
C494 C 0.93273 0.94179 0.16253 0.0
C495 C 0.95894 0.98454 0.1627 0.0
C496 C 0.95949 0.01181 0.14135 0.0
C497 C 0.98961 0.04893 0.13974 0.0
C498 C 0.99022 0.07522 0.11805 0.0
C499 C 0.96201 0.06504 0.09851 0.0
C500 C 0.93285 0.0285 0.09997 0.0
C501 C 0.93156 0.002 0.12101 0.0
H502 H 0.12072 0.97385 0.66535 0.0
C503 C 0.11125 0.94061 0.65875 0.0
H504 H 0.05803 0.8969 0.64935 0.0
H505 H 0.94673 0.06638 0.70266 0.0
H506 H 0.98603 0.04633 0.74013 0.0
H507 H 0.04489 0.98717 0.74025 0.0
H508 H 0.06584 0.94862 0.70277 0.0
C509 C 0.06741 0.92985 0.6564 0.0
C510 C 0.03155 0.96496 0.65715 0.0
C511 C 0.01882 0.98593 0.67938 0.0
C512 C 0.98392 0.01907 0.67948 0.0
C513 C 0.97257 0.04052 0.70171 0.0
C514 C 0.9948 0.02928 0.72331 0.0
C515 C 0.02809 -0.0039 0.72335 0.0
C516 C 0.03994 0.97437 0.70172 0.0
H517 H 0.87561 0.01924 0.67133 0.0
C518 C 0.8818 0.05175 0.66269 0.0
H519 H 0.93069 0.09572 0.64776 0.0
H520 H 0.04984 0.93341 0.61101 0.0
H521 H 0.01152 0.95463 0.57367 0.0
H522 H 0.94938 0.01027 0.57414 0.0
H523 H 0.9256 0.0453 0.61195 0.0
C524 C 0.92428 0.06399 0.65715 0.0
C525 C 0.96144 0.03036 0.65748 0.0
C526 C 0.97452 0.00978 0.63522 0.0
C527 C 0.0097 0.97716 0.63503 0.0
C528 C 0.02271 0.9578 0.6124 0.0
C529 C 0.00109 0.96978 0.59075 0.0
C530 C 0.96619 0.00114 0.59101 0.0
C531 C 0.95291 0.02102 0.61289 0.0
H532 H 0.96519 0.11155 0.82339 0.0
C533 C 0.93361 0.10891 0.83346 0.0
H534 H 0.88749 0.06509 0.85088 0.0
H535 H 0.01142 0.91281 0.79316 0.0
H536 H 0.9681 0.93407 0.75725 0.0
H537 H 0.9151 -0.00152 0.75847 0.0
H538 H 0.90559 0.04253 0.79555 0.0
C539 C 0.91808 0.06808 0.84 0.0
C540 C 0.94824 0.02816 0.83908 0.0
C541 C 0.95328 0.00288 0.81735 0.0
C542 C 0.983 0.96507 0.81686 0.0
C543 C 0.98834 0.94103 0.79474 0.0
C544 C 0.96386 0.95303 0.77397 0.0
C545 C 0.93408 0.98937 0.77464 0.0
C546 C 0.92894 0.01435 0.79599 0.0
H547 H 0.98531 0.86502 0.8331 0.0
C548 C 0.02053 0.87042 0.83785 0.0
H549 H 0.07229 0.91783 0.84371 0.0
H550 H 0.94578 0.06968 0.88382 0.0
H551 H 0.98646 0.04682 0.92016 0.0
H552 H 0.03653 0.98014 0.91969 0.0
H553 H 0.04642 0.93621 0.88288 0.0
C554 C 0.03724 0.91246 0.83857 0.0
C555 C 0.00687 0.9524 0.83827 0.0
C556 C 0.00144 0.97759 0.86008 0.0
C557 C 0.97213 0.01555 0.86046 0.0
C558 C 0.9674 0.04028 0.88248 0.0
C559 C 0.99057 0.02756 0.90352 0.0
C560 C 0.01878 0.99008 0.90325 0.0
C561 C 0.02425 0.96523 0.88189 0.0
H562 H 0.85384 0.96974 0.33821 0.0
C563 C 0.86358 0.93783 0.34658 0.0
H564 H 0.91688 0.89878 0.36099 0.0
H565 H 0.02056 0.07229 0.30587 0.0
H566 H 0.98985 0.04431 0.26769 0.0
H567 H 0.9377 0.97937 0.26729 0.0
H568 H 0.91528 0.94269 0.3051 0.0
C569 C 0.90709 0.92995 0.35188 0.0
C570 C 0.94031 0.96733 0.35137 0.0
C571 C 0.95427 0.98709 0.32899 0.0
C572 C 0.98561 0.02335 0.32912 0.0
C573 C -0.00217 0.04376 0.30667 0.0
C574 C 0.98036 0.02811 0.28467 0.0
C575 C 0.95086 0.99168 0.28446 0.0
C576 C 0.93802 0.97112 0.3063 0.0
H577 H 0.08679 0.02609 0.33506 0.0
C578 C 0.08286 0.05824 0.3444 0.0
H579 H 0.03745 0.10255 0.36199 0.0
H580 H 0.91725 0.93965 0.39769 0.0
H581 H 0.9477 0.96795 0.43564 0.0
H582 H 0.00468 0.02858 0.43572 0.0
H583 H 0.03117 0.06144 0.39782 0.0
C584 C 0.0417 0.07141 0.35178 0.0
C585 C 0.00395 0.0386 0.35151 0.0
C586 C 0.98912 0.01963 0.37391 0.0
C587 C 0.95707 0.98408 0.37384 0.0
C588 C 0.94225 0.96614 0.39653 0.0
C589 C 0.95933 0.98219 0.41853 0.0
C590 C 0.99135 0.01633 0.41857 0.0
C591 C 0.00624 0.03492 0.39661 0.0
loop_
_geom_bond_atom_site_label_1
_geom_bond_atom_site_label_2
_geom_bond_distance
_geom_bond_site_symmetry_2
_ccdc_geom_bond_type
C0 O1 1.306 . S
C0 O3 1.160 . S
O1 C0 1.306 . S
O1 Cd2 2.228 . S
Cd2 O1 2.228 . S
Cd2 O6 2.273 . S
Cd2 O10 2.277 . S
O3 C0 1.160 . S
O3 Cd4 2.203 . S
Cd4 O3 2.203 . S
Cd4 O6 2.411 . S
Cd4 O7 2.333 . S
Cd4 O8 2.352 . S
Cd4 O12 2.277 . S
Cd4 O13 2.356 . S
C5 O10 1.209 . S
C5 O12 1.226 . S
O6 Cd2 2.273 . S
O6 Cd4 2.411 . S
O6 C9 1.320 . S
O7 Cd4 2.333 . S
O7 C9 1.214 . S
O8 Cd4 2.352 . S
O8 C11 1.258 . S
C9 O6 1.320 . S
C9 O7 1.214 . S
O10 Cd2 2.277 . S
O10 C5 1.209 . S
C11 O8 1.258 . S
C11 O13 1.282 . S
O12 Cd4 2.277 . S
O12 C5 1.226 . S
O13 Cd4 2.356 . S
O13 C11 1.282 . S
C14 O15 1.306 . S
C14 O17 1.160 . S
O15 C14 1.306 . S
O15 Cd16 2.228 . S
Cd16 O15 2.228 . S
Cd16 O20 2.273 . S
Cd16 O24 2.277 . S
O17 C14 1.160 . S
O17 Cd18 2.203 . S
Cd18 O17 2.203 . S
Cd18 O20 2.411 . S
Cd18 O21 2.333 . S
Cd18 O22 2.352 . S
Cd18 O26 2.277 . S
Cd18 O27 2.356 . S
C19 O24 1.209 . S
C19 O26 1.226 . S
O20 Cd16 2.273 . S
O20 Cd18 2.411 . S
O20 C23 1.320 . S
O21 Cd18 2.333 . S
O21 C23 1.214 . S
O22 Cd18 2.352 . S
O22 C25 1.258 . S
C23 O20 1.320 . S
C23 O21 1.214 . S
O24 Cd16 2.277 . S
O24 C19 1.209 . S
C25 O22 1.258 . S
C25 O27 1.282 . S
O26 Cd18 2.277 . S
O26 C19 1.226 . S
O27 Cd18 2.356 . S
O27 C25 1.282 . S
C28 O29 1.306 . S
C28 O31 1.160 . S
O29 C28 1.306 . S
O29 Cd30 2.228 . S
Cd30 O29 2.228 . S
Cd30 O34 2.273 . S
Cd30 O38 2.277 . S
O31 C28 1.160 . S
O31 Cd32 2.203 . S
Cd32 O31 2.203 . S
Cd32 O34 2.411 . S
Cd32 O35 2.333 . S
Cd32 O36 2.352 . S
Cd32 O40 2.277 . S
Cd32 O41 2.356 . S
C33 O38 1.209 . S
C33 O40 1.226 . S
O34 Cd30 2.273 . S
O34 Cd32 2.411 . S
O34 C37 1.320 . S
O35 Cd32 2.333 . S
O35 C37 1.214 . S
O36 Cd32 2.352 . S
O36 C39 1.258 . S
C37 O34 1.320 . S
C37 O35 1.214 . S
O38 Cd30 2.277 . S
O38 C33 1.209 . S
C39 O36 1.258 . S
C39 O41 1.282 . S
O40 Cd32 2.277 . S
O40 C33 1.226 . S
O41 Cd32 2.356 . S
O41 C39 1.282 . S
C42 O43 1.306 . S
C42 O45 1.160 . S
O43 C42 1.306 . S
O43 Cd44 2.228 . S
Cd44 O43 2.228 . S
Cd44 O48 2.273 . S
Cd44 O52 2.277 . S
O45 C42 1.160 . S
O45 Cd46 2.203 . S
Cd46 O45 2.203 . S
Cd46 O48 2.411 . S
Cd46 O49 2.333 . S
Cd46 O50 2.352 . S
Cd46 O54 2.277 . S
Cd46 O55 2.356 . S
C47 O52 1.209 . S
C47 O54 1.226 . S
O48 Cd44 2.273 . S
O48 Cd46 2.411 . S
O48 C51 1.320 . S
O49 Cd46 2.333 . S
O49 C51 1.214 . S
O50 Cd46 2.352 . S
O50 C53 1.258 . S
C51 O48 1.320 . S
C51 O49 1.214 . S
O52 Cd44 2.277 . S
O52 C47 1.209 . S
C53 O50 1.258 . S
C53 O55 1.282 . S
O54 Cd46 2.277 . S
O54 C47 1.226 . S
O55 Cd46 2.356 . S
O55 C53 1.282 . S
C56 O57 1.306 . S
C56 O59 1.160 . S
O57 C56 1.306 . S
O57 Cd58 2.228 . S
Cd58 O57 2.228 . S
Cd58 O62 2.273 . S
Cd58 O66 2.277 . S
O59 C56 1.160 . S
O59 Cd60 2.203 . S
Cd60 O59 2.203 . S
Cd60 O62 2.411 . S
Cd60 O63 2.333 . S
Cd60 O64 2.352 . S
Cd60 O68 2.277 . S
Cd60 O69 2.356 . S
C61 O66 1.209 . S
C61 O68 1.226 . S
O62 Cd58 2.273 . S
O62 Cd60 2.411 . S
O62 C65 1.320 . S
O63 Cd60 2.333 . S
O63 C65 1.214 . S
O64 Cd60 2.352 . S
O64 C67 1.258 . S
C65 O62 1.320 . S
C65 O63 1.214 . S
O66 Cd58 2.277 . S
O66 C61 1.209 . S
C67 O64 1.258 . S
C67 O69 1.282 . S
O68 Cd60 2.277 . S
O68 C61 1.226 . S
O69 Cd60 2.356 . S
O69 C67 1.282 . S
C70 O71 1.306 . S
C70 O73 1.160 . S
O71 C70 1.306 . S
O71 Cd72 2.228 . S
Cd72 O71 2.228 . S
Cd72 O76 2.273 . S
Cd72 O80 2.277 . S
O73 C70 1.160 . S
O73 Cd74 2.203 . S
Cd74 O73 2.203 . S
Cd74 O76 2.411 . S
Cd74 O77 2.333 . S
Cd74 O78 2.352 . S
Cd74 O82 2.277 . S
Cd74 O83 2.356 . S
C75 O80 1.209 . S
C75 O82 1.226 . S
O76 Cd72 2.273 . S
O76 Cd74 2.411 . S
O76 C79 1.320 . S
O77 Cd74 2.333 . S
O77 C79 1.214 . S
O78 Cd74 2.352 . S
O78 C81 1.258 . S
C79 O76 1.320 . S
C79 O77 1.214 . S
O80 Cd72 2.277 . S
O80 C75 1.209 . S
C81 O78 1.258 . S
C81 O83 1.282 . S
O82 Cd74 2.277 . S
O82 C75 1.226 . S
O83 Cd74 2.356 . S
O83 C81 1.282 . S
C84 O85 1.306 . S
C84 O87 1.160 . S
O85 C84 1.306 . S
O85 Cd86 2.228 . S
Cd86 O85 2.228 . S
Cd86 O90 2.273 . S
Cd86 O94 2.277 . S
O87 C84 1.160 . S
O87 Cd88 2.203 . S
Cd88 O87 2.203 . S
Cd88 O90 2.411 . S
Cd88 O91 2.333 . S
Cd88 O92 2.352 . S
Cd88 O96 2.277 . S
Cd88 O97 2.356 . S
C89 O94 1.209 . S
C89 O96 1.226 . S
O90 Cd86 2.273 . S
O90 Cd88 2.411 . S
O90 C93 1.320 . S
O91 Cd88 2.333 . S
O91 C93 1.214 . S
O92 Cd88 2.352 . S
O92 C95 1.258 . S
C93 O90 1.320 . S
C93 O91 1.214 . S
O94 Cd86 2.277 . S
O94 C89 1.209 . S
C95 O92 1.258 . S
C95 O97 1.282 . S
O96 Cd88 2.277 . S
O96 C89 1.226 . S
O97 Cd88 2.356 . S
O97 C95 1.282 . S
C98 O99 1.306 . S
C98 O101 1.160 . S
O99 C98 1.306 . S
O99 Cd100 2.228 . S
Cd100 O99 2.228 . S
Cd100 O104 2.273 . S
Cd100 O108 2.277 . S
O101 C98 1.160 . S
O101 Cd102 2.203 . S
Cd102 O101 2.203 . S
Cd102 O104 2.411 . S
Cd102 O105 2.333 . S
Cd102 O106 2.352 . S
Cd102 O110 2.277 . S
Cd102 O111 2.356 . S
C103 O108 1.209 . S
C103 O110 1.226 . S
O104 Cd100 2.273 . S
O104 Cd102 2.411 . S
O104 C107 1.320 . S
O105 Cd102 2.333 . S
O105 C107 1.214 . S
O106 Cd102 2.352 . S
O106 C109 1.258 . S
C107 O104 1.320 . S
C107 O105 1.214 . S
O108 Cd100 2.277 . S
O108 C103 1.209 . S
C109 O106 1.258 . S
C109 O111 1.282 . S
O110 Cd102 2.277 . S
O110 C103 1.226 . S
O111 Cd102 2.356 . S
O111 C109 1.282 . S
H112 C113 0.951 . S
C113 H112 0.951 . S
C113 C119 1.265 . S
H114 C119 0.950 1_655 S
H115 C123 0.949 . S
H116 C124 0.950 . S
H117 C125 0.951 . S
H118 C126 0.951 . S
C119 C113 1.265 . S
C119 H114 0.950 1_455 S
C119 C120 1.478 . S
C120 C119 1.478 . S
C120 C121 1.397 1_455 S
C120 C137 1.394 . S
C121 C120 1.397 1_655 S
C121 C122 1.438 . S
C121 C126 1.429 . S
C122 C121 1.438 . S
C122 C123 1.428 . S
C122 C135 1.394 . S
C123 H115 0.949 . S
C123 C122 1.428 . S
C123 C124 1.345 . S
C124 H116 0.950 . S
C124 C123 1.345 . S
C124 C125 1.424 . S
C125 H117 0.951 . S
C125 C124 1.424 . S
C125 C126 1.347 . S
C126 H118 0.951 . S
C126 C121 1.429 . S
C126 C125 1.347 . S
H127 C128 0.951 . S
C128 H127 0.951 . S
C128 C134 1.265 . S
H129 C134 0.950 1_455 S
H130 C138 0.949 . S
H131 C139 0.950 . S
H132 C140 0.951 . S
H133 C141 0.951 . S
C134 C128 1.265 . S
C134 H129 0.950 1_655 S
C134 C135 1.478 . S
C135 C122 1.394 . S
C135 C134 1.478 . S
C135 C136 1.397 1_655 S
C136 C135 1.397 1_455 S
C136 C137 1.438 . S
C136 C141 1.429 . S
C137 C120 1.394 . S
C137 C136 1.438 . S
C137 C138 1.428 . S
C138 H130 0.949 . S
C138 C137 1.428 . S
C138 C139 1.345 . S
C139 H131 0.950 . S
C139 C138 1.345 . S
C139 C140 1.424 . S
C140 H132 0.951 . S
C140 C139 1.424 . S
C140 C141 1.347 . S
C141 H133 0.951 . S
C141 C136 1.429 . S
C141 C140 1.347 . S
H142 C143 0.951 . S
C143 H142 0.951 . S
C143 C149 1.265 . S
H144 C149 0.950 1_545 S
H145 C153 0.949 . S
H146 C154 0.950 . S
H147 C155 0.951 . S
H148 C156 0.951 . S
C149 C143 1.265 . S
C149 H144 0.950 1_565 S
C149 C150 1.478 . S
C150 C149 1.478 . S
C150 C151 1.397 1_565 S
C150 C167 1.394 . S
C151 C150 1.397 1_545 S
C151 C152 1.438 . S
C151 C156 1.429 . S
C152 C151 1.438 . S
C152 C153 1.428 . S
C152 C165 1.394 . S
C153 H145 0.949 . S
C153 C152 1.428 . S
C153 C154 1.345 . S
C154 H146 0.950 . S
C154 C153 1.345 . S
C154 C155 1.424 . S
C155 H147 0.951 . S
C155 C154 1.424 . S
C155 C156 1.347 . S
C156 H148 0.951 . S
C156 C151 1.429 . S
C156 C155 1.347 . S
H157 C158 0.951 . S
C158 H157 0.951 . S
C158 C164 1.265 . S
H159 C164 0.950 1_565 S
H160 C168 0.949 . S
H161 C169 0.950 . S
H162 C170 0.951 . S
H163 C171 0.951 . S
C164 C158 1.265 . S
C164 H159 0.950 1_545 S
C164 C165 1.478 . S
C165 C152 1.394 . S
C165 C164 1.478 . S
C165 C166 1.397 1_545 S
C166 C165 1.397 1_565 S
C166 C167 1.438 . S
C166 C171 1.429 . S
C167 C150 1.394 . S
C167 C166 1.438 . S
C167 C168 1.428 . S
C168 H160 0.949 . S
C168 C167 1.428 . S
C168 C169 1.345 . S
C169 H161 0.950 . S
C169 C168 1.345 . S
C169 C170 1.424 . S
C170 H162 0.951 . S
C170 C169 1.424 . S
C170 C171 1.347 . S
C171 H163 0.951 . S
C171 C166 1.429 . S
C171 C170 1.347 . S
H172 C173 0.951 . S
C173 H172 0.951 . S
C173 C179 1.265 . S
H174 C179 0.950 1_455 S
H175 C183 0.949 . S
H176 C184 0.950 . S
H177 C185 0.951 . S
H178 C186 0.951 . S
C179 C173 1.265 . S
C179 H174 0.950 1_655 S
C179 C180 1.478 . S
C180 C179 1.478 . S
C180 C181 1.397 1_655 S
C180 C197 1.394 . S
C181 C180 1.397 1_455 S
C181 C182 1.438 . S
C181 C186 1.429 . S
C182 C181 1.438 . S
C182 C183 1.428 . S
C182 C195 1.394 . S
C183 H175 0.949 . S
C183 C182 1.428 . S
C183 C184 1.345 . S
C184 H176 0.950 . S
C184 C183 1.345 . S
C184 C185 1.424 . S
C185 H177 0.951 . S
C185 C184 1.424 . S
C185 C186 1.347 . S
C186 H178 0.951 . S
C186 C181 1.429 . S
C186 C185 1.347 . S
H187 C188 0.951 . S
C188 H187 0.951 . S
C188 C194 1.265 . S
H189 C194 0.950 1_655 S
H190 C198 0.949 . S
H191 C199 0.950 . S
H192 C200 0.951 . S
H193 C201 0.951 . S
C194 C188 1.265 . S
C194 H189 0.950 1_455 S
C194 C195 1.478 . S
C195 C182 1.394 . S
C195 C194 1.478 . S
C195 C196 1.397 1_455 S
C196 C195 1.397 1_655 S
C196 C197 1.438 . S
C196 C201 1.429 . S
C197 C180 1.394 . S
C197 C196 1.438 . S
C197 C198 1.428 . S
C198 H190 0.949 . S
C198 C197 1.428 . S
C198 C199 1.345 . S
C199 H191 0.950 . S
C199 C198 1.345 . S
C199 C200 1.424 . S
C200 H192 0.951 . S
C200 C199 1.424 . S
C200 C201 1.347 . S
C201 H193 0.951 . S
C201 C196 1.429 . S
C201 C200 1.347 . S
H202 C203 0.925 1_565 S
C203 H202 0.925 1_545 S
C203 C209 1.265 . S
H204 C209 0.950 . S
H205 C213 0.949 . S
H206 C214 0.950 . S
H207 C215 0.951 . S
H208 C216 0.951 . S
C209 C203 1.265 . S
C209 H204 0.950 . S
C209 C210 1.478 . S
C210 C209 1.478 . S
C210 C211 1.397 . S
C210 C227 1.394 . S
C211 C210 1.397 . S
C211 C212 1.438 1_545 S
C211 C216 1.429 . S
C212 C211 1.438 1_565 S
C212 C213 1.428 . S
C212 C225 1.394 . S
C213 H205 0.949 . S
C213 C212 1.428 . S
C213 C214 1.345 1_565 S
C214 H206 0.950 . S
C214 C213 1.345 1_545 S
C214 C215 1.424 . S
C215 H207 0.951 . S
C215 C214 1.424 . S
C215 C216 1.347 . S
C216 H208 0.951 . S
C216 C211 1.429 . S
C216 C215 1.347 . S
H217 C218 0.925 1_545 S
C218 H217 0.925 1_565 S
C218 C224 1.265 . S
H219 C224 0.950 . S
H220 C228 0.949 . S
H221 C229 0.950 . S
H222 C230 0.951 . S
H223 C231 0.951 . S
C224 C218 1.265 . S
C224 H219 0.950 . S
C224 C225 1.478 . S
C225 C212 1.394 . S
C225 C224 1.478 . S
C225 C226 1.397 . S
C226 C225 1.397 . S
C226 C227 1.438 1_565 S
C226 C231 1.429 . S
C227 C210 1.394 . S
C227 C226 1.438 1_545 S
C227 C228 1.428 . S
C228 H220 0.949 . S
C228 C227 1.428 . S
C228 C229 1.345 1_545 S
C229 H221 0.950 . S
C229 C228 1.345 1_565 S
C229 C230 1.424 . S
C230 H222 0.951 . S
C230 C229 1.424 . S
C230 C231 1.347 . S
C231 H223 0.951 . S
C231 C226 1.429 . S
C231 C230 1.347 . S
H232 C233 0.951 . S
C233 H232 0.951 . S
C233 C239 1.265 . S
H234 C239 0.950 . S
H235 C243 0.949 . S
H236 C244 0.950 . S
H237 C245 0.951 . S
H238 C246 0.965 . S
C239 C233 1.265 . S
C239 H234 0.950 . S
C239 C240 1.478 . S
C240 C239 1.478 . S
C240 C241 1.408 . S
C240 C257 1.394 . S
C241 C240 1.408 . S
C241 C242 1.427 1_656 S
C241 C246 1.429 . S
C242 C241 1.427 1_454 S
C242 C243 1.428 . S
C242 C255 1.394 . S
C243 H235 0.949 . S
C243 C242 1.428 . S
C243 C244 1.345 1_455 S
C244 H236 0.950 . S
C244 C243 1.345 1_655 S
C244 C245 1.424 . S
C245 H237 0.951 . S
C245 C244 1.424 . S
C245 C246 1.334 1_554 S
C246 H238 0.965 . S
C246 C241 1.429 . S
C246 C245 1.334 1_556 S
H247 C248 0.951 . S
C248 H247 0.951 . S
C248 C254 1.265 . S
H249 C254 0.950 . S
H250 C258 0.949 . S
H251 C259 0.950 . S
H252 C260 0.951 . S
H253 C261 0.965 . S
C254 C248 1.265 . S
C254 H249 0.950 . S
C254 C255 1.478 . S
C255 C242 1.394 . S
C255 C254 1.478 . S
C255 C256 1.408 . S
C256 C255 1.408 . S
C256 C257 1.427 1_454 S
C256 C261 1.429 . S
C257 C240 1.394 . S
C257 C256 1.427 1_656 S
C257 C258 1.428 . S
C258 H250 0.949 . S
C258 C257 1.428 . S
C258 C259 1.345 1_655 S
C259 H251 0.950 . S
C259 C258 1.345 1_455 S
C259 C260 1.424 . S
C260 H252 0.951 . S
C260 C259 1.424 . S
C260 C261 1.334 1_556 S
C261 H253 0.965 . S
C261 C256 1.429 . S
C261 C260 1.334 1_554 S
H262 C263 0.951 . S
C263 H262 0.951 . S
C263 C269 1.265 . S
H264 C269 0.950 . S
H265 C273 0.949 . S
H266 C274 0.950 . S
H267 C275 0.951 . S
H268 C276 0.951 . S
C269 C263 1.265 . S
C269 H264 0.950 . S
C269 C270 1.478 . S
C270 C269 1.478 . S
C270 C271 1.397 1_545 S
C270 C287 1.394 . S
C271 C270 1.397 1_565 S
C271 C272 1.438 . S
C271 C276 1.429 . S
C272 C271 1.438 . S
C272 C273 1.428 . S
C272 C285 1.394 . S
C273 H265 0.949 . S
C273 C272 1.428 . S
C273 C274 1.345 . S
C274 H266 0.950 . S
C274 C273 1.345 . S
C274 C275 1.424 . S
C275 H267 0.951 . S
C275 C274 1.424 . S
C275 C276 1.347 . S
C276 H268 0.951 . S
C276 C271 1.429 . S
C276 C275 1.347 . S
H277 C278 0.951 . S
C278 H277 0.951 . S
C278 C284 1.265 . S
H279 C284 0.950 . S
H280 C288 0.949 . S
H281 C289 0.950 . S
H282 C290 0.951 . S
H283 C291 0.951 . S
C284 C278 1.265 . S
C284 H279 0.950 . S
C284 C285 1.478 . S
C285 C272 1.394 . S
C285 C284 1.478 . S
C285 C286 1.397 1_565 S
C286 C285 1.397 1_545 S
C286 C287 1.438 . S
C286 C291 1.429 . S
C287 C270 1.394 . S
C287 C286 1.438 . S
C287 C288 1.428 . S
C288 H280 0.949 . S
C288 C287 1.428 . S
C288 C289 1.345 . S
C289 H281 0.950 . S
C289 C288 1.345 . S
C289 C290 1.424 . S
C290 H282 0.951 . S
C290 C289 1.424 . S
C290 C291 1.347 . S
C291 H283 0.951 . S
C291 C286 1.429 . S
C291 C290 1.347 . S
H292 C293 0.951 . S
C293 H292 0.951 . S
C293 C299 1.265 . S
H294 C299 0.950 . S
H295 C303 0.949 . S
H296 C304 0.950 . S
H297 C305 0.951 . S
H298 C306 0.951 . S
C299 C293 1.265 . S
C299 H294 0.950 . S
C299 C300 1.478 . S
C300 C299 1.478 . S
C300 C301 1.397 . S
C300 C317 1.394 . S
C301 C300 1.397 . S
C301 C302 1.438 1_654 S
C301 C306 1.429 . S
C302 C301 1.438 1_456 S
C302 C303 1.428 . S
C302 C315 1.394 . S
C303 H295 0.949 . S
C303 C302 1.428 . S
C303 C304 1.345 1_455 S
C304 H296 0.950 . S
C304 C303 1.345 1_655 S
C304 C305 1.424 . S
C305 H297 0.951 . S
C305 C304 1.424 . S
C305 C306 1.347 1_556 S
C306 H298 0.951 . S
C306 C301 1.429 . S
C306 C305 1.347 1_554 S
H307 C308 0.951 . S
C308 H307 0.951 . S
C308 C314 1.265 . S
H309 C314 0.950 . S
H310 C318 0.949 . S
H311 C319 0.950 . S
H312 C320 0.951 . S
H313 C321 0.951 . S
C314 C308 1.265 . S
C314 H309 0.950 . S
C314 C315 1.478 . S
C315 C302 1.394 . S
C315 C314 1.478 . S
C315 C316 1.397 . S
C316 C315 1.397 . S
C316 C317 1.438 1_456 S
C316 C321 1.429 . S
C317 C300 1.394 . S
C317 C316 1.438 1_654 S
C317 C318 1.428 . S
C318 H310 0.949 . S
C318 C317 1.428 . S
C318 C319 1.345 1_655 S
C319 H311 0.950 . S
C319 C318 1.345 1_455 S
C319 C320 1.424 . S
C320 H312 0.951 . S
C320 C319 1.424 . S
C320 C321 1.347 1_554 S
C321 H313 0.951 . S
C321 C316 1.429 . S
C321 C320 1.347 1_556 S
H322 C323 0.951 . S
C323 H322 0.951 . S
C323 C329 1.265 . S
H324 C329 0.950 . S
H325 C333 0.949 . S
H326 C334 0.950 . S
H327 C335 0.951 . S
H328 C336 0.951 . S
C329 C323 1.265 . S
C329 H324 0.950 . S
C329 C330 1.478 . S
C330 C329 1.478 . S
C330 C331 1.397 1_545 S
C330 C347 1.394 . S
C331 C330 1.397 1_565 S
C331 C332 1.438 . S
C331 C336 1.429 . S
C332 C331 1.438 . S
C332 C333 1.428 . S
C332 C345 1.394 . S
C333 H325 0.949 . S
C333 C332 1.428 . S
C333 C334 1.345 . S
C334 H326 0.950 . S
C334 C333 1.345 . S
C334 C335 1.424 . S
C335 H327 0.951 . S
C335 C334 1.424 . S
C335 C336 1.347 . S
C336 H328 0.951 . S
C336 C331 1.429 . S
C336 C335 1.347 . S
H337 C338 0.951 . S
C338 H337 0.951 . S
C338 C344 1.265 . S
H339 C344 0.950 . S
H340 C348 0.949 . S
H341 C349 0.950 . S
H342 C350 0.951 . S
H343 C351 0.951 . S
C344 C338 1.265 . S
C344 H339 0.950 . S
C344 C345 1.478 . S
C345 C332 1.394 . S
C345 C344 1.478 . S
C345 C346 1.397 1_565 S
C346 C345 1.397 1_545 S
C346 C347 1.438 . S
C346 C351 1.429 . S
C347 C330 1.394 . S
C347 C346 1.438 . S
C347 C348 1.428 . S
C348 H340 0.949 . S
C348 C347 1.428 . S
C348 C349 1.345 . S
C349 H341 0.950 . S
C349 C348 1.345 . S
C349 C350 1.424 . S
C350 H342 0.951 . S
C350 C349 1.424 . S
C350 C351 1.347 . S
C351 H343 0.951 . S
C351 C346 1.429 . S
C351 C350 1.347 . S
H352 C353 0.951 . S
C353 H352 0.951 . S
C353 C359 1.265 . S
H354 C359 0.950 . S
H355 C363 0.949 . S
H356 C364 0.950 . S
H357 C365 0.951 . S
H358 C366 0.951 . S
C359 C353 1.265 . S
C359 H354 0.950 . S
C359 C360 1.478 . S
C360 C359 1.478 . S
C360 C361 1.397 . S
C360 C377 1.394 . S
C361 C360 1.397 . S
C361 C362 1.438 . S
C361 C366 1.429 . S
C362 C361 1.438 . S
C362 C363 1.428 . S
C362 C375 1.394 . S
C363 H355 0.949 . S
C363 C362 1.428 . S
C363 C364 1.345 . S
C364 H356 0.950 . S
C364 C363 1.345 . S
C364 C365 1.424 . S
C365 H357 0.951 . S
C365 C364 1.424 . S
C365 C366 1.347 . S
C366 H358 0.951 . S
C366 C361 1.429 . S
C366 C365 1.347 . S
H367 C368 0.951 . S
C368 H367 0.951 . S
C368 C374 1.265 . S
H369 C374 0.950 . S
H370 C378 0.949 . S
H371 C379 0.950 . S
H372 C380 0.951 . S
H373 C381 0.951 . S
C374 C368 1.265 . S
C374 H369 0.950 . S
C374 C375 1.478 . S
C375 C362 1.394 . S
C375 C374 1.478 . S
C375 C376 1.397 . S
C376 C375 1.397 . S
C376 C377 1.438 . S
C376 C381 1.429 . S
C377 C360 1.394 . S
C377 C376 1.438 . S
C377 C378 1.428 . S
C378 H370 0.949 . S
C378 C377 1.428 . S
C378 C379 1.345 . S
C379 H371 0.950 . S
C379 C378 1.345 . S
C379 C380 1.424 . S
C380 H372 0.951 . S
C380 C379 1.424 . S
C380 C381 1.347 . S
C381 H373 0.951 . S
C381 C376 1.429 . S
C381 C380 1.347 . S
H382 C383 0.951 . S
C383 H382 0.951 . S
C383 C389 1.265 . S
H384 C389 0.950 . S
H385 C393 0.949 . S
H386 C394 0.950 . S
H387 C395 0.951 . S
H388 C396 0.951 . S
C389 C383 1.265 . S
C389 H384 0.950 . S
C389 C390 1.478 . S
C390 C389 1.478 . S
C390 C391 1.397 . S
C390 C407 1.394 . S
C391 C390 1.397 . S
C391 C392 1.438 . S
C391 C396 1.429 . S
C392 C391 1.438 . S
C392 C393 1.428 . S
C392 C405 1.394 . S
C393 H385 0.949 . S
C393 C392 1.428 . S
C393 C394 1.345 . S
C394 H386 0.950 . S
C394 C393 1.345 . S
C394 C395 1.424 . S
C395 H387 0.951 . S
C395 C394 1.424 . S
C395 C396 1.347 . S
C396 H388 0.951 . S
C396 C391 1.429 . S
C396 C395 1.347 . S
H397 C398 0.951 . S
C398 H397 0.951 . S
C398 C404 1.265 . S
H399 C404 0.950 . S
H400 C408 0.949 . S
H401 C409 0.950 . S
H402 C410 0.951 . S
H403 C411 0.951 . S
C404 C398 1.265 . S
C404 H399 0.950 . S
C404 C405 1.478 . S
C405 C392 1.394 . S
C405 C404 1.478 . S
C405 C406 1.397 . S
C406 C405 1.397 . S
C406 C407 1.438 . S
C406 C411 1.429 . S
C407 C390 1.394 . S
C407 C406 1.438 . S
C407 C408 1.428 . S
C408 H400 0.949 . S
C408 C407 1.428 . S
C408 C409 1.345 . S
C409 H401 0.950 . S
C409 C408 1.345 . S
C409 C410 1.424 . S
C410 H402 0.951 . S
C410 C409 1.424 . S
C410 C411 1.347 . S
C411 H403 0.951 . S
C411 C406 1.429 . S
C411 C410 1.347 . S
H412 C413 0.951 . S
C413 H412 0.951 . S
C413 C419 1.265 . S
H414 C419 0.950 . S
H415 C423 0.949 . S
H416 C424 0.950 . S
H417 C425 0.951 . S
H418 C426 0.951 . S
C419 C413 1.265 . S
C419 H414 0.950 . S
C419 C420 1.478 . S
C420 C419 1.478 . S
C420 C421 1.397 . S
C420 C437 1.394 . S
C421 C420 1.397 . S
C421 C422 1.438 . S
C421 C426 1.429 . S
C422 C421 1.438 . S
C422 C423 1.428 . S
C422 C435 1.394 . S
C423 H415 0.949 . S
C423 C422 1.428 . S
C423 C424 1.345 . S
C424 H416 0.950 . S
C424 C423 1.345 . S
C424 C425 1.424 . S
C425 H417 0.951 . S
C425 C424 1.424 . S
C425 C426 1.347 . S
C426 H418 0.951 . S
C426 C421 1.429 . S
C426 C425 1.347 . S
H427 C428 0.951 . S
C428 H427 0.951 . S
C428 C434 1.265 . S
H429 C434 0.950 . S
H430 C438 0.949 . S
H431 C439 0.950 . S
H432 C440 0.951 . S
H433 C441 0.951 . S
C434 C428 1.265 . S
C434 H429 0.950 . S
C434 C435 1.478 . S
C435 C422 1.394 . S
C435 C434 1.478 . S
C435 C436 1.397 . S
C436 C435 1.397 . S
C436 C437 1.438 . S
C436 C441 1.429 . S
C437 C420 1.394 . S
C437 C436 1.438 . S
C437 C438 1.428 . S
C438 H430 0.949 . S
C438 C437 1.428 . S
C438 C439 1.345 . S
C439 H431 0.950 . S
C439 C438 1.345 . S
C439 C440 1.424 . S
C440 H432 0.951 . S
C440 C439 1.424 . S
C440 C441 1.347 . S
C441 H433 0.951 . S
C441 C436 1.429 . S
C441 C440 1.347 . S
H442 C443 0.951 . S
C443 H442 0.951 . S
C443 C449 1.265 . S
H444 C449 0.950 . S
H445 C453 0.949 . S
H446 C454 0.950 . S
H447 C455 0.951 . S
H448 C456 0.951 . S
C449 C443 1.265 . S
C449 H444 0.950 . S
C449 C450 1.478 . S
C450 C449 1.478 . S
C450 C451 1.397 . S
C450 C467 1.394 . S
C451 C450 1.397 . S
C451 C452 1.438 . S
C451 C456 1.429 . S
C452 C451 1.438 . S
C452 C453 1.428 . S
C452 C465 1.394 . S
C453 H445 0.949 . S
C453 C452 1.428 . S
C453 C454 1.345 . S
C454 H446 0.950 . S
C454 C453 1.345 . S
C454 C455 1.424 . S
C455 H447 0.951 . S
C455 C454 1.424 . S
C455 C456 1.347 . S
C456 H448 0.951 . S
C456 C451 1.429 . S
C456 C455 1.347 . S
H457 C458 0.951 . S
C458 H457 0.951 . S
C458 C464 1.265 . S
H459 C464 0.950 . S
H460 C468 0.949 . S
H461 C469 0.950 . S
H462 C470 0.951 . S
H463 C471 0.951 . S
C464 C458 1.265 . S
C464 H459 0.950 . S
C464 C465 1.478 . S
C465 C452 1.394 . S
C465 C464 1.478 . S
C465 C466 1.397 . S
C466 C465 1.397 . S
C466 C467 1.438 . S
C466 C471 1.429 . S
C467 C450 1.394 . S
C467 C466 1.438 . S
C467 C468 1.428 . S
C468 H460 0.949 . S
C468 C467 1.428 . S
C468 C469 1.345 . S
C469 H461 0.950 . S
C469 C468 1.345 . S
C469 C470 1.424 . S
C470 H462 0.951 . S
C470 C469 1.424 . S
C470 C471 1.347 . S
C471 H463 0.951 . S
C471 C466 1.429 . S
C471 C470 1.347 . S
H472 C473 0.951 1_655 S
C473 H472 0.951 1_455 S
C473 C479 1.265 . S
H474 C479 0.950 . S
H475 C483 0.949 1_655 S
H476 C484 0.950 . S
H477 C485 0.951 1_545 S
H478 C486 0.951 . S
C479 C473 1.265 . S
C479 H474 0.950 . S
C479 C480 1.478 . S
C480 C479 1.478 . S
C480 C481 1.397 . S
C480 C497 1.394 1_455 S
C481 C480 1.397 . S
C481 C482 1.438 1_545 S
C481 C486 1.429 . S
C482 C481 1.438 1_565 S
C482 C483 1.428 . S
C482 C495 1.394 1_455 S
C483 H475 0.949 1_455 S
C483 C482 1.428 . S
C483 C484 1.345 . S
C484 H476 0.950 . S
C484 C483 1.345 . S
C484 C485 1.424 . S
C485 H477 0.951 1_565 S
C485 C484 1.424 . S
C485 C486 1.347 1_565 S
C486 H478 0.951 . S
C486 C481 1.429 . S
C486 C485 1.347 1_545 S
H487 C488 0.951 1_455 S
C488 H487 0.951 1_655 S
C488 C494 1.265 . S
H489 C494 0.950 . S
H490 C498 0.949 1_455 S
H491 C499 0.950 . S
H492 C500 0.951 1_565 S
H493 C501 0.951 . S
C494 C488 1.265 . S
C494 H489 0.950 . S
C494 C495 1.478 . S
C495 C482 1.394 1_655 S
C495 C494 1.478 . S
C495 C496 1.397 . S
C496 C495 1.397 . S
C496 C497 1.438 1_565 S
C496 C501 1.429 . S
C497 C480 1.394 1_655 S
C497 C496 1.438 1_545 S
C497 C498 1.428 . S
C498 H490 0.949 1_655 S
C498 C497 1.428 . S
C498 C499 1.345 . S
C499 H491 0.950 . S
C499 C498 1.345 . S
C499 C500 1.424 . S
C500 H492 0.951 1_545 S
C500 C499 1.424 . S
C500 C501 1.347 1_545 S
C501 H493 0.951 . S
C501 C496 1.429 . S
C501 C500 1.347 1_565 S
H502 C503 0.951 1_545 S
C503 H502 0.951 1_565 S
C503 C509 1.265 . S
H504 C509 0.950 . S
H505 C513 0.949 1_545 S
H506 C514 0.950 . S
H507 C515 0.951 . S
H508 C516 0.951 . S
C509 C503 1.265 . S
C509 H504 0.950 . S
C509 C510 1.478 . S
C510 C509 1.478 . S
C510 C511 1.397 . S
C510 C527 1.388 1_565 S
C511 C510 1.397 . S
C511 C512 1.443 1_455 S
C511 C516 1.429 . S
C512 C511 1.443 1_655 S
C512 C513 1.428 . S
C512 C525 1.388 1_565 S
C513 H505 0.949 1_565 S
C513 C512 1.428 . S
C513 C514 1.345 . S
C514 H506 0.950 . S
C514 C513 1.345 . S
C514 C515 1.424 1_655 S
C515 H507 0.951 . S
C515 C514 1.424 1_455 S
C515 C516 1.347 . S
C516 H508 0.951 . S
C516 C511 1.429 . S
C516 C515 1.347 . S
H517 C518 0.951 1_565 S
C518 H517 0.951 1_545 S
C518 C524 1.265 . S
H519 C524 0.950 . S
H520 C528 0.949 1_565 S
H521 C529 0.950 . S
H522 C530 0.951 . S
H523 C531 0.951 . S
C524 C518 1.265 . S
C524 H519 0.950 . S
C524 C525 1.478 . S
C525 C512 1.388 1_545 S
C525 C524 1.478 . S
C525 C526 1.397 . S
C526 C525 1.397 . S
C526 C527 1.443 1_655 S
C526 C531 1.429 . S
C527 C510 1.388 1_545 S
C527 C526 1.443 1_455 S
C527 C528 1.428 . S
C528 H520 0.949 1_545 S
C528 C527 1.428 . S
C528 C529 1.345 . S
C529 H521 0.950 . S
C529 C528 1.345 . S
C529 C530 1.424 1_455 S
C530 H522 0.951 . S
C530 C529 1.424 1_655 S
C530 C531 1.347 . S
C531 H523 0.951 . S
C531 C526 1.429 . S
C531 C530 1.347 . S
H532 C533 0.951 1_455 S
C533 H532 0.951 1_655 S
C533 C539 1.265 . S
H534 C539 0.950 . S
H535 C543 0.949 1_455 S
H536 C544 0.950 . S
H537 C545 0.952 . S
H538 C546 0.951 . S
C539 C533 1.265 . S
C539 H534 0.950 . S
C539 C540 1.478 . S
C540 C539 1.478 . S
C540 C541 1.397 . S
C540 C557 1.394 1_655 S
C541 C540 1.397 . S
C541 C542 1.438 1_545 S
C541 C546 1.429 . S
C542 C541 1.438 1_565 S
C542 C543 1.428 . S
C542 C555 1.394 1_655 S
C543 H535 0.949 1_655 S
C543 C542 1.428 . S
C543 C544 1.345 . S
C544 H536 0.950 . S
C544 C543 1.345 . S
C544 C545 1.420 1_565 S
C545 H537 0.952 . S
C545 C544 1.420 1_545 S
C545 C546 1.350 . S
C546 H538 0.951 . S
C546 C541 1.429 . S
C546 C545 1.350 . S
H547 C548 0.951 1_655 S
C548 H547 0.951 1_455 S
C548 C554 1.265 . S
H549 C554 0.950 . S
H550 C558 0.949 1_655 S
H551 C559 0.950 . S
H552 C560 0.952 . S
H553 C561 0.951 . S
C554 C548 1.265 . S
C554 H549 0.950 . S
C554 C555 1.478 . S
C555 C542 1.394 1_455 S
C555 C554 1.478 . S
C555 C556 1.397 . S
C556 C555 1.397 . S
C556 C557 1.438 1_565 S
C556 C561 1.429 . S
C557 C540 1.394 1_455 S
C557 C556 1.438 1_545 S
C557 C558 1.428 . S
C558 H550 0.949 1_455 S
C558 C557 1.428 . S
C558 C559 1.345 . S
C559 H551 0.950 . S
C559 C558 1.345 . S
C559 C560 1.420 1_545 S
C560 H552 0.952 . S
C560 C559 1.420 1_565 S
C560 C561 1.350 . S
C561 H553 0.951 . S
C561 C556 1.429 . S
C561 C560 1.350 . S
H562 C563 0.951 1_545 S
C563 H562 0.951 1_565 S
C563 C569 1.265 . S
H564 C569 0.950 . S
H565 C573 0.949 1_545 S
H566 C574 0.950 . S
H567 C575 0.951 . S
H568 C576 0.951 . S
C569 C563 1.265 . S
C569 H564 0.950 . S
C569 C570 1.478 . S
C570 C569 1.478 . S
C570 C571 1.397 . S
C570 C587 1.394 1_565 S
C571 C570 1.397 . S
C571 C572 1.438 1_655 S
C571 C576 1.429 . S
C572 C571 1.438 1_455 S
C572 C573 1.428 . S
C572 C585 1.394 1_565 S
C573 H565 0.949 1_565 S
C573 C572 1.428 . S
C573 C574 1.345 . S
C574 H566 0.950 . S
C574 C573 1.345 . S
C574 C575 1.424 1_455 S
C575 H567 0.951 . S
C575 C574 1.424 1_655 S
C575 C576 1.347 . S
C576 H568 0.951 . S
C576 C571 1.429 . S
C576 C575 1.347 . S
H577 C578 0.951 1_565 S
C578 H577 0.951 1_545 S
C578 C584 1.265 . S
H579 C584 0.950 . S
H580 C588 0.949 1_565 S
H581 C589 0.950 . S
H582 C590 0.951 . S
H583 C591 0.951 . S
C584 C578 1.265 . S
C584 H579 0.950 . S
C584 C585 1.478 . S
C585 C572 1.394 1_545 S
C585 C584 1.478 . S
C585 C586 1.397 . S
C586 C585 1.397 . S
C586 C587 1.438 1_455 S
C586 C591 1.429 . S
C587 C570 1.394 1_545 S
C587 C586 1.438 1_655 S
C587 C588 1.428 . S
C588 H580 0.949 1_545 S
C588 C587 1.428 . S
C588 C589 1.345 . S
C589 H581 0.950 . S
C589 C588 1.345 . S
C589 C590 1.424 1_655 S
C590 H582 0.951 . S
C590 C589 1.424 1_455 S
C590 C591 1.347 . S
C591 H583 0.951 . S
C591 C586 1.429 . S
C591 C590 1.347 . S
C113 C11 1.380 . S
C128 C39 1.387 . S
C143 C53 1.378 . S
C158 C25 1.389 . S
C173 C95 1.381 . S
C188 C67 1.386 . S
C203 C81 1.376 . S
C218 C109 1.371 . S
C233 C93 1.428 . S
C248 C9 1.428 . S
C263 C23 1.565 . S
C278 C107 1.569 . S
C293 C37 1.428 . S
C308 C65 1.428 . S
C323 C79 1.497 . S
C338 C51 1.510 . S
C353 C0 1.382 . S
C368 C70 1.372 . S
C383 C84 1.351 . S
C398 C14 1.412 . S
C413 C98 1.409 . S
C428 C28 1.352 . S
C443 C42 1.406 . S
C458 C56 1.354 . S
C473 C5 0.971 . S
C488 C33 0.972 . S
C503 C47 0.970 . S
C518 C19 0.973 . S
C533 C89 0.970 . S
C548 C61 0.972 . S
C563 C103 0.970 . S
C578 C75 0.972 . S
