# Generated by pormake.
# Topology yfy, (5)-cn, num edge types: 1
# Building blocks:
#     Node 0, Type 0, BuildingBlock: BEQFEK_clean_sbu_0, # of connection points: 5
#     Node 1, Type 0, BuildingBlock: BEQFEK_clean_sbu_0, # of connection points: 5
#     Node 2, Type 0, BuildingBlock: BEQFEK_clean_sbu_0, # of connection points: 5
#     Node 3, Type 0, BuildingBlock: BEQFEK_clean_sbu_0, # of connection points: 5
#     Node 4, Type 0, BuildingBlock: BEQFEK_clean_sbu_0, # of connection points: 5
#     Node 5, Type 0, BuildingBlock: BEQFEK_clean_sbu_0, # of connection points: 5
#     Node 6, Type 0, BuildingBlock: BEQFEK_clean_sbu_0, # of connection points: 5
#     Node 7, Type 0, BuildingBlock: BEQFEK_clean_sbu_0, # of connection points: 5
#     Node 8, Type 0, BuildingBlock: BEQFEK_clean_sbu_0, # of connection points: 5
#     Node 9, Type 0, BuildingBlock: BEQFEK_clean_sbu_0, # of connection points: 5
#     Node 10, Type 0, BuildingBlock: BEQFEK_clean_sbu_0, # of connection points: 5
#     Node 11, Type 0, BuildingBlock: BEQFEK_clean_sbu_0, # of connection points: 5
#     Node 12, Type 0, BuildingBlock: BEQFEK_clean_sbu_0, # of connection points: 5
#     Node 13, Type 0, BuildingBlock: BEQFEK_clean_sbu_0, # of connection points: 5
#     Node 14, Type 0, BuildingBlock: BEQFEK_clean_sbu_0, # of connection points: 5
#     Node 15, Type 0, BuildingBlock: BEQFEK_clean_sbu_0, # of connection points: 5
#     Edge 16, Type (0, 0), BuildingBlock: UVAHIK_clean_linker_0, # of connection points: 2
#     Edge 17, Type (0, 0), BuildingBlock: UVAHIK_clean_linker_0, # of connection points: 2
#     Edge 18, Type (0, 0), BuildingBlock: UVAHIK_clean_linker_0, # of connection points: 2
#     Edge 19, Type (0, 0), BuildingBlock: UVAHIK_clean_linker_0, # of connection points: 2
#     Edge 20, Type (0, 0), BuildingBlock: UVAHIK_clean_linker_0, # of connection points: 2
#     Edge 21, Type (0, 0), BuildingBlock: UVAHIK_clean_linker_0, # of connection points: 2
#     Edge 22, Type (0, 0), BuildingBlock: UVAHIK_clean_linker_0, # of connection points: 2
#     Edge 23, Type (0, 0), BuildingBlock: UVAHIK_clean_linker_0, # of connection points: 2
#     Edge 24, Type (0, 0), BuildingBlock: UVAHIK_clean_linker_0, # of connection points: 2
#     Edge 25, Type (0, 0), BuildingBlock: UVAHIK_clean_linker_0, # of connection points: 2
#     Edge 26, Type (0, 0), BuildingBlock: UVAHIK_clean_linker_0, # of connection points: 2
#     Edge 27, Type (0, 0), BuildingBlock: UVAHIK_clean_linker_0, # of connection points: 2
#     Edge 28, Type (0, 0), BuildingBlock: UVAHIK_clean_linker_0, # of connection points: 2
#     Edge 29, Type (0, 0), BuildingBlock: UVAHIK_clean_linker_0, # of connection points: 2
#     Edge 30, Type (0, 0), BuildingBlock: UVAHIK_clean_linker_0, # of connection points: 2
#     Edge 31, Type (0, 0), BuildingBlock: UVAHIK_clean_linker_0, # of connection points: 2
#     Edge 32, Type (0, 0), BuildingBlock: UVAHIK_clean_linker_0, # of connection points: 2
#     Edge 33, Type (0, 0), BuildingBlock: UVAHIK_clean_linker_0, # of connection points: 2
#     Edge 34, Type (0, 0), BuildingBlock: UVAHIK_clean_linker_0, # of connection points: 2
#     Edge 35, Type (0, 0), BuildingBlock: UVAHIK_clean_linker_0, # of connection points: 2
#     Edge 36, Type (0, 0), BuildingBlock: UVAHIK_clean_linker_0, # of connection points: 2
#     Edge 37, Type (0, 0), BuildingBlock: UVAHIK_clean_linker_0, # of connection points: 2
#     Edge 38, Type (0, 0), BuildingBlock: UVAHIK_clean_linker_0, # of connection points: 2
#     Edge 39, Type (0, 0), BuildingBlock: UVAHIK_clean_linker_0, # of connection points: 2
#     Edge 40, Type (0, 0), BuildingBlock: UVAHIK_clean_linker_0, # of connection points: 2
#     Edge 41, Type (0, 0), BuildingBlock: UVAHIK_clean_linker_0, # of connection points: 2
#     Edge 42, Type (0, 0), BuildingBlock: UVAHIK_clean_linker_0, # of connection points: 2
#     Edge 43, Type (0, 0), BuildingBlock: UVAHIK_clean_linker_0, # of connection points: 2
#     Edge 44, Type (0, 0), BuildingBlock: UVAHIK_clean_linker_0, # of connection points: 2
#     Edge 45, Type (0, 0), BuildingBlock: UVAHIK_clean_linker_0, # of connection points: 2
#     Edge 46, Type (0, 0), BuildingBlock: UVAHIK_clean_linker_0, # of connection points: 2
#     Edge 47, Type (0, 0), BuildingBlock: UVAHIK_clean_linker_0, # of connection points: 2
#     Edge 48, Type (0, 0), BuildingBlock: UVAHIK_clean_linker_0, # of connection points: 2
#     Edge 49, Type (0, 0), BuildingBlock: UVAHIK_clean_linker_0, # of connection points: 2
#     Edge 50, Type (0, 0), BuildingBlock: UVAHIK_clean_linker_0, # of connection points: 2
#     Edge 51, Type (0, 0), BuildingBlock: UVAHIK_clean_linker_0, # of connection points: 2
#     Edge 52, Type (0, 0), BuildingBlock: UVAHIK_clean_linker_0, # of connection points: 2
#     Edge 53, Type (0, 0), BuildingBlock: UVAHIK_clean_linker_0, # of connection points: 2
#     Edge 54, Type (0, 0), BuildingBlock: UVAHIK_clean_linker_0, # of connection points: 2
#     Edge 55, Type (0, 0), BuildingBlock: UVAHIK_clean_linker_0, # of connection points: 2
# Relax obj value: 0.032
# Max RMSD: 0.078
# Mean RMSD: 0.078
data_MOF--net-yfy--node1-BEQFEK_clean_sbu_0--edge1-UVAHIK_clean_linker_0
_symmetry_space_group_name_H-M    P1
_symmetry_Int_Tables_number       1
_symmetry_cell_setting            triclinic
loop_
_symmetry_equiv_pos_as_xyz
'x, y, z'
_cell_length_a     60.318497
_cell_length_b     60.320565
_cell_length_c     55.851073
_cell_angle_alpha  89.985644
_cell_angle_beta   89.998348
_cell_angle_gamma 89.980195
loop_
_atom_site_label
_atom_site_type_symbol
_atom_site_fract_x
_atom_site_fract_y
_atom_site_fract_z
_atom_type_partial_charge
Co0 Co 0.09552 0.28089 0.32941 0.0
Co1 Co 0.06159 0.32047 0.32663 0.0
C2 C 0.049 0.27479 0.31098 0.0
O3 O 0.0683 0.26745 0.31573 0.0
O4 O 0.04414 0.2951 0.31417 0.0
C5 C 0.12242 0.2484 0.30688 0.0
O6 O 0.11084 0.25453 0.28808 0.0
C7 C 0.03035 0.35425 0.3074 0.0
C8 C 0.03261 0.37988 0.33556 0.0
C9 C 0.02245 0.37507 0.31394 0.0
N10 N 0.04475 0.34732 0.32426 0.0
N11 N 0.04593 0.36273 0.34103 0.0
C12 C 0.02385 0.34087 0.28594 0.0
H13 H 0.02646 0.323 0.28912 0.0
H14 H 0.0343 0.34581 0.27049 0.0
H15 H 0.0062 0.34379 0.28128 0.0
C16 C 0.12364 0.3142 0.30412 0.0
N17 N 0.10403 0.30734 0.31311 0.0
N18 N 0.08951 0.32354 0.3112 0.0
C19 C 0.09934 0.34109 0.30068 0.0
C20 C 0.12132 0.33584 0.29595 0.0
C21 C 0.14474 0.30124 0.3059 0.0
H22 H 0.14517 0.29186 0.32297 0.0
H23 H 0.1455 0.28923 0.29088 0.0
H24 H 0.15946 0.31222 0.30489 0.0
O25 O 0.0897 0.28697 0.36381 0.0
O26 O 0.06629 0.31537 0.36129 0.0
H27 H 0.08466 0.37134 0.31278 0.0
H28 H 0.09807 0.37349 0.2839 0.0
C29 C 0.08796 0.36265 0.29565 0.0
H30 H 0.07191 0.35942 0.28669 0.0
H31 H 0.05588 0.36153 0.35627 0.0
O32 O 0.11895 0.25795 0.32683 0.0
C33 C 0.07744 0.30157 0.37367 0.0
Co34 Co 0.83485 0.09444 0.32932 0.0
Co35 Co 0.79361 0.06247 0.32721 0.0
C36 C 0.83887 0.04772 0.31161 0.0
O37 O 0.84722 0.06677 0.31544 0.0
O38 O 0.81845 0.04393 0.31556 0.0
C39 C 0.8683 0.12056 0.30706 0.0
O40 O 0.86199 0.1093 0.2881 0.0
C41 C 0.75936 0.03266 0.30666 0.0
C42 C 0.73376 0.03393 0.33492 0.0
C43 C 0.73852 0.02458 0.31285 0.0
N44 N 0.76637 0.04633 0.32418 0.0
N45 N 0.75097 0.04696 0.34098 0.0
C46 C 0.77273 0.02695 0.28492 0.0
H47 H 0.79054 0.03011 0.28787 0.0
H48 H 0.76728 0.03747 0.26972 0.0
H49 H 0.77027 0.0093 0.27996 0.0
C50 C 0.80277 0.12391 0.30402 0.0
N51 N 0.80874 0.10406 0.31311 0.0
N52 N 0.79185 0.09033 0.31142 0.0
C53 C 0.77473 0.10091 0.30092 0.0
C54 C 0.78102 0.12259 0.29596 0.0
C55 C 0.81666 0.14442 0.30567 0.0
H56 H 0.82608 0.14449 0.32271 0.0
H57 H 0.82863 0.14462 0.29059 0.0
H58 H 0.80634 0.15962 0.30468 0.0
O59 O 0.82844 0.08879 0.36375 0.0
O60 O 0.79847 0.06736 0.36185 0.0
H61 H 0.7441 0.08728 0.31334 0.0
H62 H 0.74205 0.10117 0.28469 0.0
C63 C 0.75265 0.09051 0.29611 0.0
H64 H 0.75511 0.07449 0.28684 0.0
H65 H 0.75225 0.05623 0.3567 0.0
O66 O 0.85862 0.1171 0.32694 0.0
C67 C 0.8131 0.0777 0.37393 0.0
Co68 Co 0.02061 0.83372 0.32756 0.0
Co69 Co 0.05339 0.7931 0.3275 0.0
C70 C 0.06831 0.83779 0.31149 0.0
O71 O 0.04912 0.84579 0.31545 0.0
O72 O 0.0724 0.81733 0.315 0.0
C73 C 1.00007 0.87365 0.31001 0.0
O74 O 0.01915 0.87639 0.29909 0.0
C75 C 0.08483 0.75952 0.31042 0.0
C76 C 0.07933 0.73223 0.33616 0.0
C77 C 0.09153 0.73815 0.31614 0.0
N78 N 0.06942 0.76591 0.32637 0.0
N79 N 0.06633 0.74961 0.34182 0.0
C80 C 0.09132 0.77296 0.28902 0.0
H81 H 0.07755 0.78414 0.28373 0.0
H82 H 0.09577 0.76208 0.27374 0.0
H83 H 0.10592 0.78329 0.29365 0.0
C84 C 0.99293 0.80118 0.30118 0.0
N85 N 0.01229 0.80737 0.31125 0.0
N86 N 0.0262 0.79057 0.31064 0.0
C87 C 0.01618 0.7732 0.3 0.0
C88 C 0.99471 0.77925 0.2938 0.0
C89 C 0.97252 0.8153 0.30119 0.0
H90 H 0.96968 0.82196 0.31945 0.0
H91 H 0.97509 0.8296 0.28901 0.0
H92 H 0.95766 0.80592 0.29538 0.0
O93 O 0.02446 0.82796 0.3624 0.0
O94 O 0.04734 0.79903 0.3617 0.0
H95 H 0.02838 0.74255 0.31396 0.0
H96 H 0.01686 0.74041 0.28418 0.0
C97 C 0.02675 0.751 0.29641 0.0
H98 H 0.04352 0.75317 0.2887 0.0
H99 H 0.05508 0.75021 0.35599 0.0
O100 O 0.99714 0.85665 0.32313 0.0
C101 C 0.03592 0.81326 0.37318 0.0
Co102 Co 0.28135 0.01997 0.32927 0.0
Co103 Co 0.32079 0.05405 0.32607 0.0
C104 C 0.27483 0.06628 0.31069 0.0
O105 O 0.26755 0.04698 0.31549 0.0
O106 O 0.29514 0.07118 0.31384 0.0
C107 C 0.24916 0.99206 0.30748 0.0
O108 O 0.25496 0.00331 0.28833 0.0
C109 C 0.354 0.08486 0.30518 0.0
C110 C 0.37959 0.08462 0.33348 0.0
C111 C 0.37464 0.09351 0.31125 0.0
N112 N 0.34732 0.07126 0.3229 0.0
N113 N 0.3627 0.07128 0.33976 0.0
C114 C 0.34054 0.08991 0.28331 0.0
H115 H 0.32275 0.08679 0.28651 0.0
H116 H 0.34595 0.07898 0.26845 0.0
H117 H 0.34291 0.10742 0.27775 0.0
C118 C 0.31461 0.99192 0.30389 0.0
N119 N 0.30772 0.01155 0.31279 0.0
N120 N 0.3239 0.02608 0.31082 0.0
C121 C 0.34149 0.01621 0.30042 0.0
C122 C 0.33624 0.99424 0.29573 0.0
C123 C 0.30178 0.97076 0.30583 0.0
H124 H 0.2926 0.97028 0.32302 0.0
H125 H 0.28965 0.96992 0.29094 0.0
H126 H 0.31283 0.95608 0.30471 0.0
O127 O 0.28782 0.02605 0.36354 0.0
O128 O 0.31622 0.04944 0.36084 0.0
H129 H 0.37128 0.03155 0.3129 0.0
H130 H 0.37441 0.01701 0.28476 0.0
C131 C 0.36315 0.02748 0.29564 0.0
H132 H 0.36011 0.04312 0.28581 0.0
H133 H 0.36165 0.06215 0.3556 0.0
O134 O 0.25867 0.99622 0.32729 0.0
C135 C 0.3025 0.03828 0.3733 0.0
Co136 Co 0.09513 0.83467 0.67125 0.0
Co137 Co 0.06244 0.79392 0.67214 0.0
C138 C 0.04769 0.83901 0.68764 0.0
O139 O 0.06686 0.84715 0.68391 0.0
O140 O 0.04377 0.81856 0.68399 0.0
C141 C 0.11679 0.87369 0.68939 0.0
O142 O 0.0985 0.87577 0.70194 0.0
C143 C 0.03064 0.76066 0.68992 0.0
C144 C 0.03582 0.73319 0.66431 0.0
C145 C 0.02378 0.73927 0.68438 0.0
N146 N 0.04628 0.76673 0.67405 0.0
N147 N 0.04921 0.75028 0.65874 0.0
C148 C 0.02168 0.77581 0.70883 0.0
H149 H 0.01562 0.79124 0.70029 0.0
H150 H 0.0352 0.78041 0.72135 0.0
H151 H 0.00769 0.76838 0.71884 0.0
C152 C 0.12328 0.80211 0.69717 0.0
N153 N 0.10372 0.80835 0.68758 0.0
N154 N 0.08971 0.79168 0.68887 0.0
C155 C 0.09977 0.77444 0.69971 0.0
C156 C 0.12148 0.78033 0.70513 0.0
C157 C 0.14385 0.81596 0.69605 0.0
H158 H 0.14555 0.82323 0.67789 0.0
H159 H 0.14237 0.82982 0.70901 0.0
H160 H 0.15894 0.80619 0.70022 0.0
O161 O 0.09064 0.82861 0.63653 0.0
O162 O 0.06834 0.79925 0.63781 0.0
H163 H 0.08723 0.74329 0.68753 0.0
H164 H 0.09845 0.74256 0.71753 0.0
C165 C 0.08883 0.75262 0.70454 0.0
H166 H 0.07203 0.75544 0.71193 0.0
H167 H 0.06041 0.75071 0.64451 0.0
O168 O 0.1188 0.85744 0.67502 0.0
C169 C 0.07938 0.81358 0.62605 0.0
Co170 Co 0.28234 0.09408 0.67243 0.0
Co171 Co 0.32385 0.06234 0.67251 0.0
C172 C 0.27933 0.04645 0.68853 0.0
O173 O 0.27074 0.0655 0.68516 0.0
O174 O 0.29979 0.04292 0.68441 0.0
C175 C 0.24199 0.11474 0.68923 0.0
O176 O 0.23907 0.09586 0.70049 0.0
C177 C 0.35763 0.03105 0.68981 0.0
C178 C 0.3856 0.03804 0.66538 0.0
C179 C 0.37936 0.02508 0.68473 0.0
N180 N 0.35135 0.04677 0.67415 0.0
N181 N 0.36807 0.05073 0.65947 0.0
C182 C 0.34368 0.02353 0.71042 0.0
H183 H 0.33234 0.03703 0.71611 0.0
H184 H 0.35417 0.01837 0.72577 0.0
H185 H 0.33348 0.00917 0.70467 0.0
C186 C 0.31432 0.12272 0.69838 0.0
N187 N 0.30853 0.10313 0.68857 0.0
N188 N 0.32554 0.0895 0.68955 0.0
C189 C 0.34258 0.09985 0.70042 0.0
C190 C 0.33618 0.12135 0.70616 0.0
C191 C 0.29995 0.14295 0.69764 0.0
H192 H 0.29283 0.14487 0.67945 0.0
H193 H 0.286 0.14082 0.71038 0.0
H194 H 0.30928 0.15818 0.70232 0.0
O195 O 0.28828 0.08995 0.63767 0.0
O196 O 0.31824 0.06843 0.63824 0.0
H197 H 0.37407 0.08843 0.68795 0.0
H198 H 0.37449 0.09907 0.71818 0.0
C199 C 0.3647 0.08942 0.705 0.0
H200 H 0.36238 0.07241 0.71202 0.0
H201 H 0.36764 0.0624 0.64569 0.0
O202 O 0.25913 0.11737 0.67626 0.0
C203 C 0.3035 0.07924 0.62682 0.0
Co204 Co 0.02087 0.28119 0.67307 0.0
Co205 Co 0.0528 0.32245 0.6714 0.0
C206 C 0.06854 0.27722 0.68696 0.0
O207 O 0.04929 0.2688 0.68488 0.0
O208 O 0.07202 0.29756 0.68221 0.0
C209 C 1.00019 0.24048 0.68844 0.0
O210 O 0.01978 0.23631 0.69764 0.0
C211 C 0.0818 0.35661 0.69204 0.0
C212 C 0.08524 0.38 0.66182 0.0
C213 C 0.09195 0.37637 0.68525 0.0
N214 N 0.06964 0.34915 0.67353 0.0
N215 N 0.07174 0.36323 0.65556 0.0
C216 C 0.08439 0.34427 0.71513 0.0
H217 H 0.07919 0.32678 0.71316 0.0
H218 H 0.07363 0.35195 0.72894 0.0
H219 H 0.10184 0.34502 0.72139 0.0
C220 C 0.994 0.31302 0.70141 0.0
N221 N 0.01284 0.3074 0.68993 0.0
N222 N 0.02602 0.32476 0.68907 0.0
C223 C 0.0158 0.34212 0.69959 0.0
C224 C 0.99518 0.33524 0.70789 0.0
C225 C 0.97517 0.29737 0.70571 0.0
H226 H 0.96698 0.29355 0.6884 0.0
H227 H 0.98165 0.28163 0.71322 0.0
H228 H 0.96282 0.30441 0.71831 0.0
O229 O 0.02439 0.28737 0.63807 0.0
O230 O 0.04576 0.31744 0.63741 0.0
H231 H 0.03121 0.36898 0.68075 0.0
H232 H 0.01111 0.37769 0.70264 0.0
C233 C 0.02432 0.36542 0.69874 0.0
H234 H 0.03777 0.36736 0.7121 0.0
H235 H 0.06412 0.36127 0.63891 0.0
O236 O 0.9971 0.25851 0.67709 0.0
C237 C 0.03464 0.30255 0.62662 0.0
Co238 Co 0.83351 0.02173 0.67334 0.0
Co239 Co 0.792 0.05347 0.67272 0.0
C240 C 0.83638 0.0694 0.68921 0.0
O241 O 0.84498 0.05035 0.68597 0.0
O242 O 0.81596 0.07292 0.68488 0.0
C243 C 0.87457 0.0018 0.68918 0.0
O244 O 0.87816 0.02136 0.69872 0.0
C245 C 0.75832 0.08478 0.6899 0.0
C246 C 0.73074 0.0788 0.66468 0.0
C247 C 0.73684 0.09129 0.68442 0.0
N248 N 0.76461 0.06921 0.67408 0.0
N249 N 0.74812 0.06584 0.65894 0.0
C250 C 0.77203 0.09168 0.71094 0.0
H251 H 0.78307 0.0779 0.71656 0.0
H252 H 0.76135 0.09669 0.7262 0.0
H253 H 0.78253 0.10599 0.70573 0.0
C254 C 0.80135 0.99332 0.69936 0.0
N255 N 0.80719 0.01283 0.68939 0.0
N256 N 0.79005 0.02633 0.68977 0.0
C257 C 0.77281 0.01589 0.70016 0.0
C258 C 0.77929 0.99456 0.70643 0.0
C259 C 0.81592 0.97322 0.69942 0.0
H260 H 0.82249 0.97039 0.68112 0.0
H261 H 0.83026 0.97621 0.71143 0.0
H262 H 0.80693 0.9582 0.70546 0.0
O263 O 0.82781 0.02567 0.63844 0.0
O264 O 0.79792 0.04731 0.63859 0.0
H265 H 0.742 0.0271 0.68568 0.0
H266 H 0.73985 0.01582 0.71557 0.0
C267 C 0.75029 0.02589 0.70335 0.0
H268 H 0.75191 0.04279 0.71088 0.0
H269 H 0.74862 0.05444 0.6449 0.0
O270 O 0.85674 0.99845 0.67756 0.0
C271 C 0.81272 0.03639 0.62738 0.0
Co272 Co 0.59416 0.78118 0.82776 0.0
Co273 Co 0.56334 0.8232 0.8267 0.0
C274 C 0.54693 0.77855 0.81118 0.0
O275 O 0.5658 0.76965 0.8147 0.0
O276 O 0.54375 0.79909 0.81513 0.0
C277 C 0.61763 0.74519 0.80629 0.0
O278 O 0.60441 0.74963 0.78821 0.0
C279 C 0.53348 0.85661 0.80645 0.0
C280 C 0.53709 0.88439 0.83193 0.0
C281 C 0.52634 0.87805 0.8111 0.0
N282 N 0.54774 0.85057 0.82374 0.0
N283 N 0.54969 0.86717 0.83903 0.0
C284 C 0.52825 0.84261 0.78508 0.0
H285 H 0.54233 0.83134 0.78108 0.0
H286 H 0.52463 0.85308 0.76922 0.0
H287 H 0.51345 0.83232 0.78906 0.0
C288 C 0.62344 0.81208 0.80053 0.0
N289 N 0.60396 0.80691 0.81101 0.0
N290 N 0.59075 0.82426 0.81 0.0
C291 C 0.60131 0.84093 0.79867 0.0
C292 C 0.62237 0.83378 0.79226 0.0
C293 C 0.64274 0.79656 0.7988 0.0
H294 H 0.63842 0.78283 0.78646 0.0
H295 H 0.65779 0.80489 0.79183 0.0
H296 H 0.64625 0.78931 0.81666 0.0
O297 O 0.58952 0.78787 0.86237 0.0
O298 O 0.56882 0.81837 0.86113 0.0
H299 H 0.58831 0.87041 0.81456 0.0
H300 H 0.60416 0.87546 0.78784 0.0
C301 C 0.59227 0.86397 0.79648 0.0
H302 H 0.57674 0.86357 0.78586 0.0
H303 H 0.55987 0.86685 0.85414 0.0
O304 O 0.61635 0.75693 0.82515 0.0
C305 C 0.5791 0.80348 0.87288 0.0
Co306 Co 0.33379 0.5957 0.82889 0.0
Co307 Co 0.29423 0.562 0.82442 0.0
C308 C 0.33942 0.54866 0.80994 0.0
O309 O 0.34676 0.56764 0.81607 0.0
O310 O 0.31888 0.54406 0.81146 0.0
C311 C 0.37236 0.61786 0.81089 0.0
O312 O 0.37368 0.60018 0.79725 0.0
C313 C 0.26096 0.53071 0.80579 0.0
C314 C 0.23297 0.53662 0.83053 0.0
C315 C 0.2393 0.52436 0.81072 0.0
N316 N 0.26708 0.54602 0.82199 0.0
N317 N 0.25034 0.54932 0.83684 0.0
C318 C 0.27496 0.52399 0.78491 0.0
H319 H 0.2864 0.53763 0.77992 0.0
H320 H 0.26449 0.51956 0.76928 0.0
H321 H 0.28503 0.50933 0.78998 0.0
C322 C 0.30147 0.62421 0.80316 0.0
N323 N 0.30789 0.6044 0.81198 0.0
N324 N 0.29171 0.59002 0.80919 0.0
C325 C 0.27464 0.60009 0.79804 0.0
C326 C 0.28009 0.62218 0.79407 0.0
C327 C 0.31467 0.64506 0.80595 0.0
H328 H 0.32205 0.64568 0.82413 0.0
H329 H 0.32844 0.64499 0.79276 0.0
H330 H 0.30437 0.66006 0.80312 0.0
O331 O 0.32675 0.5906 0.86322 0.0
O332 O 0.29955 0.56606 0.85913 0.0
H333 H 0.24311 0.58656 0.80761 0.0
H334 H 0.24399 0.59847 0.77794 0.0
C335 C 0.25346 0.58875 0.79136 0.0
H336 H 0.25713 0.5722 0.78376 0.0
H337 H 0.25067 0.56056 0.85103 0.0
O338 O 0.35663 0.61943 0.82597 0.0
C339 C 0.31244 0.57751 0.87231 0.0
Co340 Co 0.52034 0.3346 0.82909 0.0
Co341 Co 0.5533 0.29439 0.82536 0.0
C342 C 0.56693 0.33957 0.80987 0.0
O343 O 0.5479 0.3473 0.81519 0.0
O344 O 0.57138 0.31909 0.81261 0.0
C345 C 0.49345 0.36742 0.80689 0.0
O346 O 0.5044 0.36088 0.78782 0.0
C347 C 0.5845 0.26153 0.80574 0.0
C348 C 0.579 0.23302 0.82988 0.0
C349 C 0.591 0.23982 0.81004 0.0
N350 N 0.56937 0.26728 0.82229 0.0
N351 N 0.56632 0.25023 0.8368 0.0
C352 C 0.59089 0.27593 0.78504 0.0
H353 H 0.57709 0.28732 0.78041 0.0
H354 H 0.59527 0.26576 0.76917 0.0
H355 H 0.6055 0.28604 0.79013 0.0
C356 C 0.49104 0.30202 0.80435 0.0
N357 N 0.51096 0.3085 0.81282 0.0
N358 N 0.52525 0.2922 0.81008 0.0
C359 C 0.51505 0.27509 0.79919 0.0
C360 C 0.49295 0.28058 0.79543 0.0
C361 C 0.47011 0.31505 0.80736 0.0
H362 H 0.47067 0.32467 0.82426 0.0
H363 H 0.46844 0.32681 0.7922 0.0
H364 H 0.45536 0.30406 0.80758 0.0
O365 O 0.52624 0.32806 0.8633 0.0
O366 O 0.54907 0.29923 0.86019 0.0
H367 H 0.52854 0.24353 0.80875 0.0
H368 H 0.51644 0.24438 0.77918 0.0
C369 C 0.52627 0.25384 0.79249 0.0
H370 H 0.54277 0.25743 0.78471 0.0
H371 H 0.55525 0.25022 0.85115 0.0
O372 O 0.49738 0.3581 0.82687 0.0
C373 C 0.53828 0.3131 0.87285 0.0
Co374 Co 0.78139 0.51926 0.82887 0.0
Co375 Co 0.81978 0.5542 0.82356 0.0
C376 C 0.77349 0.56553 0.8098 0.0
O377 O 0.76685 0.54627 0.81576 0.0
O378 O 0.79384 0.57086 0.8114 0.0
C379 C 0.74939 0.49158 0.80708 0.0
O380 O 0.75546 0.50299 0.78814 0.0
C381 C 0.85255 0.58541 0.80245 0.0
C382 C 0.87857 0.5848 0.83031 0.0
C383 C 0.87326 0.594 0.80832 0.0
N384 N 0.84616 0.57154 0.82006 0.0
N385 N 0.86179 0.57135 0.83665 0.0
C386 C 0.83877 0.59079 0.78092 0.0
H387 H 0.821 0.58785 0.78447 0.0
H388 H 0.8438 0.57993 0.76585 0.0
H389 H 0.84122 0.60832 0.77548 0.0
C390 C 0.81451 0.49148 0.80306 0.0
N391 N 0.8074 0.51116 0.8116 0.0
N392 N 0.82316 0.52601 0.8087 0.0
C393 C 0.84065 0.51632 0.79791 0.0
C394 C 0.83583 0.49408 0.79405 0.0
C395 C 0.80228 0.47009 0.80623 0.0
H396 H 0.79318 0.47015 0.82348 0.0
H397 H 0.79011 0.46822 0.79148 0.0
H398 H 0.81373 0.45569 0.80585 0.0
O399 O 0.78882 0.5251 0.86291 0.0
O400 O 0.81548 0.55019 0.85851 0.0
H401 H 0.87079 0.53211 0.80862 0.0
H402 H 0.8726 0.51787 0.78017 0.0
C403 C 0.86178 0.52805 0.79187 0.0
H404 H 0.85792 0.54372 0.78244 0.0
H405 H 0.861 0.56199 0.85234 0.0
O406 O 0.75878 0.49545 0.82703 0.0
C407 C 0.80296 0.53846 0.87183 0.0
Co408 Co 0.59583 0.33397 0.17122 0.0
Co409 Co 0.56416 0.2925 0.1723 0.0
C410 C 0.5486 0.33778 0.1871 0.0
O411 O 0.56772 0.34628 0.1841 0.0
O412 O 0.54512 0.31733 0.183 0.0
C413 C 0.62133 0.368 0.19361 0.0
O414 O 0.60966 0.36213 0.21244 0.0
C415 C 0.5341 0.25842 0.19248 0.0
C416 C 0.53519 0.23293 0.1641 0.0
C417 C 0.52576 0.23773 0.18613 0.0
N418 N 0.54796 0.26531 0.1751 0.0
N419 N 0.54851 0.24997 0.15823 0.0
C420 C 0.5284 0.27178 0.21423 0.0
H421 H 0.53227 0.2895 0.21156 0.0
H422 H 0.53839 0.26583 0.22962 0.0
H423 H 0.51058 0.26987 0.21874 0.0
C424 C 0.6248 0.30217 0.19758 0.0
N425 N 0.60514 0.30801 0.18791 0.0
N426 N 0.59151 0.29099 0.18909 0.0
C427 C 0.60197 0.2739 0.1998 0.0
C428 C 0.62345 0.28035 0.20546 0.0
C429 C 0.64522 0.31623 0.19656 0.0
H430 H 0.64579 0.32543 0.17939 0.0
H431 H 0.64477 0.3284 0.21143 0.0
H432 H 0.66048 0.30609 0.19832 0.0
O433 O 0.5912 0.32729 0.13668 0.0
O434 O 0.57012 0.29704 0.13783 0.0
H435 H 0.58878 0.24339 0.18651 0.0
H436 H 0.60229 0.24092 0.21534 0.0
C437 C 0.59171 0.25165 0.20397 0.0
H438 H 0.57554 0.2538 0.21303 0.0
H439 H 0.55787 0.25122 0.14257 0.0
O440 O 0.61834 0.35784 0.17392 0.0
C441 C 0.58068 0.31177 0.12613 0.0
Co442 Co 0.78128 0.59608 0.17002 0.0
Co443 Co 0.8207 0.56223 0.17392 0.0
C444 C 0.77472 0.54956 0.18832 0.0
O445 O 0.76743 0.56873 0.18295 0.0
O446 O 0.79517 0.54481 0.18605 0.0
C447 C 0.74693 0.6217 0.1909 0.0
O448 O 0.75109 0.60863 0.20918 0.0
C449 C 0.85412 0.53271 0.19601 0.0
C450 C 0.87834 0.52963 0.16651 0.0
C451 C 0.87409 0.5227 0.18973 0.0
N452 N 0.84712 0.54505 0.1774 0.0
N453 N 0.8617 0.54313 0.15987 0.0
C454 C 0.84127 0.52983 0.21874 0.0
H455 H 0.82376 0.53479 0.21633 0.0
H456 H 0.8485 0.54058 0.23283 0.0
H457 H 0.84213 0.51236 0.22491 0.0
C458 C 0.81341 0.62398 0.1971 0.0
N459 N 0.80713 0.60449 0.18739 0.0
N460 N 0.8236 0.59025 0.18919 0.0
C461 C 0.84088 0.60025 0.20006 0.0
C462 C 0.83499 0.62193 0.20553 0.0
C463 C 0.79902 0.64419 0.19797 0.0
H464 H 0.79225 0.64764 0.17988 0.0
H465 H 0.78491 0.64102 0.21019 0.0
H466 H 0.80807 0.65893 0.20465 0.0
O467 O 0.78871 0.59077 0.13575 0.0
O468 O 0.81631 0.56659 0.13917 0.0
H469 H 0.86861 0.58298 0.18506 0.0
H470 H 0.87604 0.60235 0.20821 0.0
C471 C 0.86343 0.59009 0.20247 0.0
H472 H 0.86275 0.57651 0.21581 0.0
H473 H 0.8602 0.55092 0.14326 0.0
O474 O 0.75833 0.61959 0.17188 0.0
C475 C 0.80323 0.57812 0.12631 0.0
Co476 Co 0.51958 0.7817 0.17073 0.0
Co477 Co 0.55278 0.82191 0.17261 0.0
C478 C 0.5664 0.77616 0.18773 0.0
O479 O 0.54715 0.76848 0.18351 0.0
O480 O 0.57082 0.79657 0.18445 0.0
C481 C 0.49466 0.74661 0.19171 0.0
O482 O 0.50823 0.75017 0.2097 0.0
C483 C 0.58227 0.85579 0.19388 0.0
C484 C 0.58473 0.87982 0.16414 0.0
C485 C 0.592 0.87583 0.18729 0.0
N486 N 0.56978 0.84852 0.17551 0.0
N487 N 0.57134 0.86299 0.15783 0.0
C488 C 0.58554 0.84314 0.21668 0.0
H489 H 0.58078 0.82555 0.21445 0.0
H490 H 0.57482 0.85032 0.23083 0.0
H491 H 0.60306 0.84424 0.22264 0.0
C492 C 0.49194 0.81378 0.19818 0.0
N493 N 0.51119 0.80775 0.18775 0.0
N494 N 0.52512 0.82453 0.18866 0.0
C495 C 0.51513 0.8418 0.19957 0.0
C496 C 0.49381 0.83554 0.20608 0.0
C497 C 0.47218 0.7989 0.20038 0.0
H498 H 0.4765 0.78469 0.21206 0.0
H499 H 0.45772 0.8075 0.20834 0.0
H500 H 0.46771 0.79229 0.18248 0.0
O501 O 0.52465 0.78841 0.13627 0.0
O502 O 0.5475 0.81729 0.13804 0.0
H503 H 0.53169 0.86941 0.18342 0.0
H504 H 0.51239 0.87712 0.20654 0.0
C505 C 0.52486 0.86459 0.20108 0.0
H506 H 0.53858 0.86457 0.21428 0.0
H507 H 0.56335 0.86129 0.14135 0.0
O508 O 0.49624 0.75861 0.17306 0.0
C509 C 0.53629 0.80329 0.12602 0.0
Co510 Co 0.33345 0.51918 0.17054 0.0
Co511 Co 0.29367 0.55294 0.17379 0.0
C512 C 0.33961 0.56639 0.18718 0.0
O513 O 0.34698 0.54721 0.18204 0.0
O514 O 0.31907 0.57089 0.18533 0.0
C515 C 0.37294 0.49767 0.18693 0.0
O516 O 0.37503 0.516 0.1994 0.0
C517 C 0.26019 0.58223 0.19582 0.0
C518 C 0.23596 0.58548 0.16636 0.0
C519 C 0.2402 0.59227 0.18963 0.0
N520 N 0.26719 0.57002 0.17712 0.0
N521 N 0.25261 0.57204 0.15961 0.0
C522 C 0.27309 0.58493 0.21854 0.0
H523 H 0.26586 0.57412 0.23258 0.0
H524 H 0.27233 0.60237 0.22481 0.0
H525 H 0.29057 0.57991 0.21606 0.0
C526 C 0.30212 0.49212 0.19929 0.0
N527 N 0.30789 0.51131 0.1886 0.0
N528 N 0.29113 0.52524 0.18978 0.0
C529 C 0.27401 0.51522 0.20094 0.0
C530 C 0.28042 0.49391 0.20747 0.0
C531 C 0.31713 0.47245 0.2013 0.0
H532 H 0.33322 0.47772 0.20903 0.0
H533 H 0.30993 0.45931 0.21281 0.0
H534 H 0.32038 0.46569 0.18316 0.0
O535 O 0.32562 0.52355 0.13614 0.0
O536 O 0.29809 0.5479 0.1392 0.0
H537 H 0.24648 0.53215 0.18502 0.0
H538 H 0.23862 0.51217 0.20736 0.0
C539 C 0.25116 0.52483 0.2025 0.0
H540 H 0.25098 0.53815 0.21616 0.0
H541 H 0.25412 0.56435 0.14294 0.0
O542 O 0.35626 0.49533 0.1732 0.0
C543 C 0.31109 0.5361 0.12651 0.0
C544 C 0.0774 0.28217 0.41331 0.0
C545 C 0.07471 0.30172 0.39996 0.0
C546 C 0.07237 0.2818 0.43776 0.0
C547 C 0.04124 0.31398 0.48398 0.0
H548 H 0.07304 0.27578 0.52802 0.0
C549 C 0.03923 0.32173 0.5873 0.0
C550 C 0.0352 0.30212 0.60018 0.0
C551 C 0.04221 0.32113 0.56252 0.0
C552 C 0.0639 0.28635 0.51583 0.0
H553 H 0.06574 0.33646 0.4019 0.0
H554 H 0.05816 0.33619 0.44466 0.0
H555 H 0.08354 0.27641 0.48586 0.0
H556 H 0.03079 0.26655 0.59721 0.0
H557 H 0.03663 0.26547 0.55377 0.0
H558 H 0.02233 0.32459 0.51443 0.0
C559 C 0.06319 0.32084 0.43621 0.0
C560 C 0.06985 0.2867 0.49163 0.0
C561 C 0.06777 0.32109 0.41171 0.0
C562 C 0.03371 0.28194 0.58771 0.0
C563 C 0.03719 0.28128 0.56295 0.0
C564 C 0.03561 0.31393 0.50825 0.0
C565 C 0.06495 0.30109 0.44952 0.0
C566 C 0.05863 0.30057 0.47535 0.0
C567 C 0.04169 0.30085 0.55022 0.0
C568 C 0.0469 0.30013 0.52436 0.0
H569 H 0.08251 0.26692 0.40468 0.0
H570 H 0.07368 0.26619 0.44721 0.0
H571 H 0.03179 0.32446 0.472 0.0
H572 H 0.04045 0.33752 0.59646 0.0
H573 H 0.04575 0.33641 0.55308 0.0
C574 C 0.79335 0.04222 0.58835 0.0
C575 C 0.81297 0.0375 0.60095 0.0
C576 C 0.79378 0.04533 0.56358 0.0
C577 C 0.82883 0.06557 0.51617 0.0
H578 H 0.78891 0.03467 0.47325 0.0
C579 C 0.83276 0.0773 0.41341 0.0
C580 C 0.813 0.07536 0.40027 0.0
C581 C 0.83307 0.07268 0.43795 0.0
C582 C 0.79991 0.04379 0.48497 0.0
H583 H 0.84836 0.03207 0.59749 0.0
H584 H 0.84915 0.0381 0.55409 0.0
H585 H 0.78886 0.02567 0.51578 0.0
H586 H 0.77788 0.06816 0.40269 0.0
H587 H 0.77812 0.06126 0.44559 0.0
H588 H 0.83929 0.0844 0.4858 0.0
C589 C 0.83347 0.03913 0.56347 0.0
C590 C 0.79999 0.03843 0.50931 0.0
C591 C 0.83297 0.03554 0.58822 0.0
C592 C 0.79341 0.06959 0.41232 0.0
C593 C 0.79362 0.0654 0.43691 0.0
C594 C 0.82848 0.07125 0.4919 0.0
C595 C 0.81389 0.04423 0.55101 0.0
C596 C 0.81445 0.04926 0.5251 0.0
C597 C 0.81354 0.06641 0.45001 0.0
C598 C 0.81398 0.06046 0.47594 0.0
H599 H 0.77769 0.04379 0.5977 0.0
H600 H 0.77849 0.04933 0.55436 0.0
H601 H 0.83994 0.07435 0.5281 0.0
H602 H 0.84817 0.08151 0.40456 0.0
H603 H 0.8488 0.07337 0.44725 0.0
C604 C 0.07227 0.79384 0.58754 0.0
C605 C 0.07755 0.81352 0.59967 0.0
C606 C 0.0681 0.79405 0.56296 0.0
C607 C 0.07253 0.82928 0.50806 0.0
H608 H 0.02749 0.78875 0.48477 0.0
C609 C 0.03502 0.83328 0.41246 0.0
C610 C 0.03738 0.8134 0.39958 0.0
C611 C 0.03903 0.83377 0.43713 0.0
C612 C 0.04009 0.80014 0.49108 0.0
H613 H 0.08301 0.84881 0.59557 0.0
H614 H 0.07488 0.84943 0.55284 0.0
H615 H 0.0371 0.78884 0.52713 0.0
H616 H 0.04483 0.77832 0.4025 0.0
H617 H 0.05108 0.7791 0.44573 0.0
H618 H 0.07482 0.84096 0.47186 0.0
C619 C 0.07454 0.83365 0.56207 0.0
C620 C 0.04581 0.80008 0.51531 0.0
C621 C 0.07917 0.83335 0.58662 0.0
C622 C 0.04292 0.79388 0.41197 0.0
C623 C 0.04645 0.7943 0.43667 0.0
C624 C 0.06648 0.82961 0.48389 0.0
C625 C 0.0686 0.81405 0.54996 0.0
C626 C 0.0623 0.81447 0.52413 0.0
C627 C 0.04495 0.81431 0.44937 0.0
C628 C 0.05037 0.81489 0.47518 0.0
H629 H 0.07111 0.77826 0.59713 0.0
H630 H 0.06426 0.7785 0.55423 0.0
H631 H 0.08551 0.84037 0.514 0.0
H632 H 0.03092 0.84859 0.40334 0.0
H633 H 0.03768 0.84937 0.44662 0.0
C634 C 0.28342 0.0797 0.5876 0.0
C635 C 0.3034 0.078 0.60041 0.0
C636 C 0.28304 0.07606 0.56287 0.0
C637 C 0.31611 0.07762 0.50872 0.0
H638 H 0.2784 0.03023 0.48546 0.0
C639 C 0.32239 0.04752 0.41125 0.0
C640 C 0.3029 0.04078 0.39961 0.0
C641 C 0.32242 0.05162 0.43586 0.0
C642 C 0.28875 0.04379 0.49148 0.0
H643 H 0.33876 0.07211 0.59733 0.0
H644 H 0.33816 0.06653 0.55395 0.0
H645 H 0.27783 0.04006 0.52781 0.0
H646 H 0.26816 0.03291 0.4046 0.0
H647 H 0.26788 0.04095 0.44729 0.0
H648 H 0.32656 0.08207 0.47253 0.0
C649 C 0.3228 0.07034 0.56313 0.0
C650 C 0.28845 0.04932 0.51578 0.0
C651 C 0.32311 0.07348 0.58791 0.0
C652 C 0.2835 0.03788 0.41314 0.0
C653 C 0.28339 0.04242 0.43769 0.0
C654 C 0.31609 0.07243 0.48434 0.0
C655 C 0.30271 0.07119 0.5505 0.0
C656 C 0.30225 0.06615 0.52461 0.0
C657 C 0.30282 0.04956 0.44938 0.0
C658 C 0.30257 0.05528 0.47538 0.0
H659 H 0.26796 0.08302 0.5968 0.0
H660 H 0.26738 0.07689 0.55342 0.0
H661 H 0.32679 0.09078 0.51515 0.0
H662 H 0.33766 0.04971 0.4013 0.0
H663 H 0.33786 0.05647 0.44423 0.0
C664 C 0.57292 0.82349 0.91145 0.0
C665 C 0.5774 0.80363 0.89927 0.0
C666 C 0.56902 0.82343 0.93609 0.0
C667 C 0.57296 0.788 0.9909 0.0
H668 H 0.5295 0.82988 0.01495 0.0
C669 C 0.53537 0.78397 0.08636 0.0
C670 C 0.53819 0.80355 0.09965 0.0
C671 C 0.53954 0.78376 0.06173 0.0
C672 C 0.54168 0.81813 0.00843 0.0
H673 H 0.58166 0.76817 0.90335 0.0
H674 H 0.57399 0.76785 0.94615 0.0
H675 H 0.53876 0.82976 0.97249 0.0
H676 H 0.54671 0.83842 0.09748 0.0
H677 H 0.55327 0.83816 0.05428 0.0
H678 H 0.57513 0.77596 0.02697 0.0
C679 C 0.5741 0.78363 0.93692 0.0
C680 C 0.54719 0.81816 0.98414 0.0
C681 C 0.57845 0.78376 0.91232 0.0
C682 C 0.54443 0.82308 0.0877 0.0
C683 C 0.54814 0.82297 0.06302 0.0
C684 C 0.56711 0.78771 0.01512 0.0
C685 C 0.56902 0.80344 0.9491 0.0
C686 C 0.56307 0.80323 0.97504 0.0
C687 C 0.54611 0.80322 0.04991 0.0
C688 C 0.55154 0.80288 0.0241 0.0
H689 H 0.57221 0.8391 0.90187 0.0
H690 H 0.56583 0.83912 0.94486 0.0
H691 H 0.5855 0.77649 0.98475 0.0
H692 H 0.53071 0.76863 0.09512 0.0
H693 H 0.53776 0.76837 0.05192 0.0
C694 C 0.2959 0.55954 0.90853 0.0
C695 C 0.31135 0.57441 0.89863 0.0
C696 C 0.29558 0.55536 0.93309 0.0
C697 C 0.29037 0.5581 0.98681 0.0
H698 H 0.34596 0.5519 0.02103 0.0
C699 C 0.29434 0.55261 0.0896 0.0
C700 C 0.31004 0.53834 0.10009 0.0
C701 C 0.29426 0.5563 0.06494 0.0
C702 C 0.33029 0.55335 0.01168 0.0
H703 H 0.33833 0.59688 0.907 0.0
H704 H 0.33752 0.58982 0.95007 0.0
H705 H 0.34631 0.56034 0.9783 0.0
H706 H 0.33763 0.51632 0.09266 0.0
H707 H 0.33724 0.52251 0.04942 0.0
H708 H 0.27434 0.55063 0.01998 0.0
C709 C 0.32588 0.58113 0.93867 0.0
C710 C 0.33049 0.55852 0.98726 0.0
C711 C 0.32623 0.58532 0.91401 0.0
C712 C 0.32533 0.52743 0.08519 0.0
C713 C 0.32523 0.53112 0.06044 0.0
C714 C 0.29017 0.5529 0.01117 0.0
C715 C 0.31064 0.56598 0.94847 0.0
C716 C 0.31052 0.56096 0.97454 0.0
C717 C 0.30982 0.54577 0.05007 0.0
C718 C 0.31012 0.55052 0.02393 0.0
H719 H 0.28421 0.55077 0.89727 0.0
H720 H 0.28382 0.54337 0.93995 0.0
H721 H 0.27467 0.56007 0.97763 0.0
H722 H 0.28232 0.56137 0.10048 0.0
H723 H 0.28234 0.56791 0.05764 0.0
C724 C 0.53843 0.33189 0.91279 0.0
C725 C 0.54097 0.31252 0.89914 0.0
C726 C 0.54305 0.33178 0.93732 0.0
C727 C 0.5726 0.29838 0.98375 0.0
H728 H 0.54098 0.33713 0.02736 0.0
C729 C 0.57444 0.29184 0.08745 0.0
C730 C 0.57924 0.31161 0.09972 0.0
C731 C 0.57109 0.29199 0.0627 0.0
C732 C 0.55002 0.32636 0.0153 0.0
H733 H 0.54936 0.27761 0.90058 0.0
H734 H 0.55625 0.27705 0.94349 0.0
H735 H 0.53096 0.33671 0.98508 0.0
H736 H 0.58456 0.34698 0.09569 0.0
H737 H 0.57808 0.34726 0.0524 0.0
H738 H 0.59095 0.28742 0.01446 0.0
C739 C 0.55162 0.29262 0.93523 0.0
C740 C 0.54438 0.32615 0.99103 0.0
C741 C 0.54745 0.29285 0.91063 0.0
C742 C 0.58103 0.33147 0.08669 0.0
C743 C 0.57719 0.33168 0.062 0.0
C744 C 0.5779 0.29828 0.0081 0.0
C745 C 0.54989 0.31217 0.94887 0.0
C746 C 0.55564 0.3122 0.97486 0.0
C747 C 0.57201 0.31197 0.04987 0.0
C748 C 0.56672 0.31233 0.02404 0.0
H749 H 0.53367 0.34735 0.90436 0.0
H750 H 0.54185 0.34727 0.94701 0.0
H751 H 0.58204 0.28778 0.97189 0.0
H752 H 0.57299 0.27629 0.09704 0.0
H753 H 0.56705 0.27661 0.0537 0.0
C754 C 0.789 0.58651 0.08494 0.0
C755 C 0.80435 0.57575 0.09991 0.0
C756 C 0.78933 0.58297 0.06018 0.0
C757 C 0.78493 0.56093 0.01133 0.0
H758 H 0.84078 0.55609 0.97734 0.0
C759 C 0.78983 0.52991 0.91356 0.0
C760 C 0.80423 0.54143 0.89816 0.0
C761 C 0.79021 0.53389 0.93824 0.0
C762 C 0.82503 0.55753 0.98651 0.0
H763 H 0.83239 0.55313 0.10042 0.0
H764 H 0.8328 0.54688 0.05748 0.0
H765 H 0.84077 0.56496 0.01988 0.0
H766 H 0.83059 0.56593 0.89677 0.0
H767 H 0.83106 0.57295 0.9396 0.0
H768 H 0.76919 0.55393 0.97783 0.0
C769 C 0.82064 0.55823 0.06478 0.0
C770 C 0.82504 0.5624 0.01096 0.0
C771 C 0.82031 0.56174 0.08948 0.0
C772 C 0.81928 0.5567 0.90807 0.0
C773 C 0.81964 0.56067 0.93269 0.0
C774 C 0.78493 0.55606 0.98686 0.0
C775 C 0.80505 0.56864 0.04985 0.0
C776 C 0.80499 0.56412 0.02368 0.0
C777 C 0.805 0.54945 0.94806 0.0
C778 C 0.80499 0.55428 0.97416 0.0
H779 H 0.77651 0.59743 0.09236 0.0
H780 H 0.77728 0.59148 0.04912 0.0
H781 H 0.76921 0.56188 0.02064 0.0
H782 H 0.77806 0.51801 0.90656 0.0
H783 H 0.77894 0.52473 0.94963 0.0
C784 C 0.14911 0.22171 0.32562 0.0
C785 C 0.13881 0.23021 0.305 0.0
C786 C 0.1638 0.20386 0.32398 0.0
C787 C 0.20021 0.17359 0.28247 0.0
H788 H 0.19403 0.12601 0.3287 0.0
C789 C 0.26648 0.10559 0.299 0.0
C790 C 0.25897 0.08398 0.30388 0.0
C791 C 0.25139 0.12299 0.29606 0.0
C792 C 0.19584 0.13904 0.31551 0.0
H793 H 0.13628 0.22697 0.2664 0.0
H794 H 0.16204 0.19583 0.26358 0.0
H795 H 0.16881 0.15755 0.33021 0.0
H796 H 0.22961 0.06353 0.30808 0.0
H797 H 0.20337 0.09387 0.30293 0.0
H798 H 0.22738 0.15503 0.26787 0.0
C799 C 0.15873 0.20301 0.28099 0.0
C800 C 0.18156 0.15723 0.31656 0.0
C801 C 0.14389 0.22077 0.28264 0.0
C802 C 0.23601 0.07997 0.30449 0.0
C803 C 0.22095 0.09738 0.30169 0.0
C804 C 0.21465 0.15544 0.28154 0.0
C805 C 0.16864 0.19422 0.30168 0.0
C806 C 0.18366 0.17476 0.30015 0.0
C807 C 0.22849 0.11916 0.29806 0.0
C808 C 0.21263 0.13799 0.2981 0.0
H809 H 0.14561 0.22863 0.34311 0.0
H810 H 0.17142 0.19762 0.3402 0.0
H811 H 0.20229 0.18691 0.26966 0.0
H812 H 0.28405 0.10928 0.29832 0.0
H813 H 0.25771 0.13961 0.29337 0.0
C814 C 0.89569 0.14247 0.28295 0.0
C815 C 0.88651 0.13693 0.30531 0.0
C816 C 0.91326 0.15754 0.28137 0.0
C817 C 0.95908 0.18048 0.31675 0.0
H818 H 0.95993 0.2272 0.269 0.0
C819 C 0.0355 0.23598 0.3043 0.0
C820 C 0.03129 0.25892 0.30422 0.0
C821 C 0.01818 0.22082 0.30157 0.0
C822 C 0.95991 0.21422 0.28241 0.0
H823 H 0.88842 0.1431 0.34352 0.0
H824 H 0.91912 0.16928 0.34075 0.0
H825 H 0.92848 0.20158 0.27075 0.0
H826 H 0.00567 0.28386 0.29972 0.0
H827 H 0.97548 0.25733 0.29486 0.0
H828 H 0.99028 0.19319 0.32866 0.0
C829 C 0.91281 0.16186 0.32446 0.0
C830 C 0.942 0.19949 0.28332 0.0
C831 C 0.89514 0.14695 0.32603 0.0
C832 C 0.00952 0.26632 0.29995 0.0
C833 C 0.9922 0.25112 0.29709 0.0
C834 C 0.97704 0.19505 0.31572 0.0
C835 C 0.92214 0.16723 0.30213 0.0
C836 C 0.94132 0.18259 0.30065 0.0
C837 C 0.99627 0.22822 0.29855 0.0
C838 C 0.97761 0.21216 0.29864 0.0
H839 H 0.88939 0.13509 0.26663 0.0
H840 H 0.9202 0.16124 0.26394 0.0
H841 H 0.95915 0.16748 0.33014 0.0
H842 H 0.05207 0.22965 0.30739 0.0
H843 H 0.02188 0.20326 0.30237 0.0
C844 C 0.84598 0.00706 0.30667 0.0
C845 C 0.85362 0.02904 0.30501 0.0
C846 C 0.86064 0.9893 0.30399 0.0
C847 C 0.91538 0.97267 0.28123 0.0
H848 H 0.91445 0.93062 0.33376 0.0
C849 C 0.98718 0.9114 0.2978 0.0
C850 C 0.98232 0.89038 0.30725 0.0
C851 C 0.97059 0.92744 0.29561 0.0
C852 C 0.91473 0.9419 0.31868 0.0
H853 H 0.88242 0.04952 0.29772 0.0
H854 H 0.90793 0.01842 0.29269 0.0
H855 H 0.88676 0.95992 0.33202 0.0
H856 H 0.95613 0.86945 0.32123 0.0
H857 H 0.92702 0.89719 0.31677 0.0
H858 H 0.94322 0.95461 0.26772 0.0
C859 C 0.89061 0.01501 0.29625 0.0
C860 C 0.89886 0.95874 0.31774 0.0
C861 C 0.876 0.03281 0.29921 0.0
C862 C 0.96043 0.88559 0.3141 0.0
C863 C 0.94377 0.90156 0.31164 0.0
C864 C 0.93111 0.95563 0.28199 0.0
C865 C 0.88318 0.99311 0.29926 0.0
C866 C 0.89917 0.97443 0.29916 0.0
C867 C 0.94866 0.92278 0.30254 0.0
C868 C 0.93116 0.94017 0.3009 0.0
H869 H 0.82884 0.00353 0.31104 0.0
H870 H 0.85443 0.97256 0.30611 0.0
H871 H 0.91586 0.98444 0.26659 0.0
H872 H 0.00391 0.91564 0.29247 0.0
H873 H 0.97513 0.94368 0.28895 0.0
C874 C 0.22323 0.9651 0.32699 0.0
C875 C 0.23159 0.97497 0.30606 0.0
C876 C 0.20599 0.94968 0.32574 0.0
C877 C 0.17737 0.91077 0.28548 0.0
H878 H 0.12856 0.91807 0.32999 0.0
C879 C 0.10839 0.84508 0.30192 0.0
C880 C 0.08668 0.85307 0.30523 0.0
C881 C 0.12615 0.85984 0.29938 0.0
C882 C 0.14198 0.91591 0.31731 0.0
H883 H 0.22879 0.97593 0.26734 0.0
H884 H 0.19872 0.94888 0.2652 0.0
H885 H 0.15974 0.94371 0.33132 0.0
H886 H 0.06655 0.88289 0.3071 0.0
H887 H 0.09746 0.90845 0.30265 0.0
H888 H 0.15949 0.88286 0.27154 0.0
C889 C 0.20554 0.95311 0.28255 0.0
C890 C 0.15995 0.93044 0.31827 0.0
C891 C 0.22267 0.96869 0.28381 0.0
C892 C 0.08303 0.8761 0.30473 0.0
C893 C 0.10076 0.8908 0.30234 0.0
C894 C 0.15944 0.89606 0.28468 0.0
C895 C 0.19684 0.94364 0.30353 0.0
C896 C 0.17785 0.92804 0.30239 0.0
C897 C 0.12256 0.88285 0.30024 0.0
C898 C 0.14152 0.89853 0.30055 0.0
H899 H 0.22977 0.96952 0.34441 0.0
H900 H 0.1998 0.94246 0.34219 0.0
H901 H 0.191 0.90846 0.27311 0.0
H902 H 0.11181 0.82746 0.30215 0.0
H903 H 0.14279 0.85323 0.29785 0.0
C904 C 0.24263 0.03115 0.70172 0.0
C905 C 0.26477 0.02755 0.69483 0.0
C906 C 0.22807 0.0133 0.7045 0.0
C907 C 0.21858 0.95808 0.68081 0.0
H908 H 0.17628 0.95215 0.73266 0.0
C909 C 0.15627 0.88552 0.68361 0.0
C910 C 0.13479 0.89016 0.69194 0.0
C911 C 0.17321 0.90119 0.68602 0.0
C912 C 0.18779 0.95369 0.71789 0.0
H913 H 0.2892 0.00223 0.68654 0.0
H914 H 0.26365 0.97116 0.69112 0.0
H915 H 0.20397 0.98164 0.73397 0.0
H916 H 0.1142 0.91487 0.70927 0.0
H917 H 0.14341 0.94246 0.71268 0.0
H918 H 0.20202 0.93087 0.66413 0.0
C919 C 0.25761 0.98782 0.69429 0.0
C920 C 0.20373 0.97051 0.71875 0.0
C921 C 0.27225 0.00563 0.69182 0.0
C922 C 0.13062 0.91075 0.70278 0.0
C923 C 0.14745 0.92653 0.7049 0.0
C924 C 0.20249 0.94145 0.67977 0.0
C925 C 0.23528 0.99152 0.70018 0.0
C926 C 0.2192 0.97293 0.70016 0.0
C927 C 0.16899 0.92199 0.69654 0.0
C928 C 0.18676 0.93911 0.69822 0.0
H929 H 0.23634 0.0478 0.70427 0.0
H930 H 0.21091 0.01663 0.70896 0.0
H931 H 0.2301 0.95977 0.66604 0.0
H932 H 0.16006 0.8697 0.6754 0.0
H933 H 0.18964 0.89691 0.67975 0.0
C934 C 0.08404 0.24053 0.70002 0.0
C935 C 0.08756 0.26259 0.69277 0.0
C936 C 0.1019 0.22596 0.70268 0.0
C937 C 0.15742 0.21634 0.67909 0.0
H938 H 0.16264 0.17404 0.73105 0.0
C939 C 0.23023 0.1543 0.68366 0.0
C940 C 0.22541 0.13272 0.69155 0.0
C941 C 0.21444 0.17119 0.68573 0.0
C942 C 0.16131 0.18557 0.71626 0.0
H943 H 0.11277 0.28683 0.68362 0.0
H944 H 0.14389 0.26129 0.6881 0.0
H945 H 0.13315 0.20174 0.7319 0.0
H946 H 0.20025 0.11192 0.7078 0.0
H947 H 0.17253 0.14109 0.71073 0.0
H948 H 0.18496 0.19984 0.66295 0.0
C949 C 0.12727 0.25531 0.69159 0.0
C950 C 0.14446 0.2015 0.71684 0.0
C951 C 0.10943 0.26995 0.68917 0.0
C952 C 0.20452 0.1284 0.70165 0.0
C953 C 0.18867 0.14521 0.70349 0.0
C954 C 0.17411 0.20029 0.67838 0.0
C955 C 0.12364 0.23306 0.69794 0.0
C956 C 0.14227 0.21697 0.69819 0.0
C957 C 0.19338 0.16683 0.69552 0.0
C958 C 0.1762 0.18457 0.69686 0.0
H959 H 0.06743 0.23432 0.70301 0.0
H960 H 0.09859 0.20888 0.70748 0.0
H961 H 0.15593 0.22784 0.66428 0.0
H962 H 0.24626 0.15821 0.67601 0.0
H963 H 0.21884 0.18769 0.67977 0.0
C964 C 0.87319 0.08467 0.70201 0.0
C965 C 0.85092 0.08829 0.69566 0.0
C966 C 0.88771 0.10252 0.70487 0.0
C967 C 0.89616 0.15872 0.68277 0.0
H968 H 0.94126 0.16191 0.7321 0.0
C969 C 0.96001 0.23007 0.68546 0.0
C970 C 0.98191 0.22435 0.69143 0.0
C971 C 0.94283 0.21471 0.68827 0.0
C972 C 0.92891 0.16116 0.71806 0.0
H973 H 0.82621 0.11363 0.68851 0.0
H974 H 0.85166 0.14475 0.69339 0.0
H975 H 0.91322 0.13279 0.73378 0.0
H976 H 0.00295 0.19805 0.70506 0.0
H977 H 0.97321 0.17115 0.70932 0.0
H978 H 0.91219 0.18649 0.6665 0.0
C979 C 0.85786 0.12806 0.69597 0.0
C980 C 0.91279 0.14453 0.71911 0.0
C981 C 0.84327 0.11022 0.69334 0.0
C982 C 0.98624 0.20302 0.70038 0.0
C983 C 0.96912 0.18762 0.703 0.0
C984 C 0.91238 0.17522 0.68158 0.0
C985 C 0.88033 0.12437 0.70127 0.0
C986 C 0.89638 0.14301 0.70135 0.0
C987 C 0.94718 0.19323 0.69695 0.0
C988 C 0.92912 0.17651 0.69906 0.0
H989 H 0.87962 0.06802 0.70402 0.0
H990 H 0.90497 0.09915 0.70882 0.0
H991 H 0.88392 0.15776 0.66862 0.0
H992 H 0.95609 0.24645 0.67873 0.0
H993 H 0.9261 0.21974 0.68377 0.0
C994 C 0.00702 0.84672 0.69163 0.0
C995 C 0.02908 0.85403 0.6938 0.0
C996 C 0.98941 0.86159 0.69413 0.0
C997 C 0.97343 0.9166 0.71708 0.0
H998 H 0.93081 0.91571 0.6651 0.0
C999 C 0.91253 0.98879 0.70059 0.0
C1000 C 0.89126 0.98396 0.69178 0.0
C1001 C 0.92851 0.97212 0.70266 0.0
C1002 C 0.94227 0.91599 0.68002 0.0
H1003 H 0.04981 0.88253 0.70159 0.0
H1004 H 0.01899 0.90842 0.7062 0.0
H1005 H 0.95994 0.88783 0.66662 0.0
H1006 H 0.86987 0.95769 0.6788 0.0
H1007 H 0.89755 0.92848 0.68294 0.0
H1008 H 0.95574 0.94469 0.73058 0.0
C1009 C 0.01539 0.89117 0.70248 0.0
C1010 C 0.95902 0.90001 0.68084 0.0
C1011 C 0.03304 0.87634 0.69974 0.0
C1012 C 0.88619 0.962 0.68543 0.0
C1013 C 0.90212 0.94526 0.68771 0.0
C1014 C 0.95652 0.93247 0.71641 0.0
C1015 C 0.99342 0.88406 0.6991 0.0
C1016 C 0.9749 0.90027 0.69924 0.0
C1017 C 0.92355 0.95013 0.6962 0.0
C1018 C 0.94086 0.93253 0.6977 0.0
H1019 H 0.00332 0.82968 0.68702 0.0
H1020 H 0.97263 0.85559 0.69172 0.0
H1021 H 0.98532 0.91706 0.7316 0.0
H1022 H 0.91701 0.00556 0.70555 0.0
H1023 H 0.94491 0.97661 0.70886 0.0
C1024 C 0.63734 0.71573 0.78282 0.0
C1025 C 0.63386 0.72683 0.80464 0.0
C1026 C 0.6524 0.69813 0.78136 0.0
C1027 C 0.6792 0.65557 0.81828 0.0
H1028 H 0.72138 0.65118 0.76605 0.0
C1029 C 0.73413 0.57851 0.8063 0.0
C1030 C 0.75691 0.58276 0.80351 0.0
C1031 C 0.71863 0.59559 0.8039 0.0
C1032 C 0.70968 0.65221 0.78072 0.0
H1033 H 0.64362 0.72826 0.842 0.0
H1034 H 0.66975 0.69745 0.83946 0.0
H1035 H 0.6956 0.68253 0.76762 0.0
H1036 H 0.78109 0.60809 0.79458 0.0
H1037 H 0.75395 0.63784 0.79022 0.0
H1038 H 0.69335 0.62545 0.83155 0.0
C1039 C 0.66075 0.70232 0.82352 0.0
C1040 C 0.69485 0.67005 0.78154 0.0
C1041 C 0.64587 0.72004 0.82493 0.0
C1042 C 0.76369 0.60423 0.79693 0.0
C1043 C 0.74814 0.62128 0.79435 0.0
C1044 C 0.69385 0.63766 0.81733 0.0
C1045 C 0.66412 0.69113 0.80174 0.0
C1046 C 0.67958 0.672 0.80045 0.0
C1047 C 0.72551 0.61726 0.79845 0.0
C1048 C 0.70933 0.63583 0.79862 0.0
H1049 H 0.6284 0.72058 0.76684 0.0
H1050 H 0.65454 0.68972 0.76439 0.0
H1051 H 0.66748 0.65651 0.83294 0.0
H1052 H 0.72827 0.56217 0.81127 0.0
H1053 H 0.70125 0.59192 0.8068 0.0
C1054 C 0.50601 0.77195 0.80837 0.0
C1055 C 0.52781 0.76425 0.80499 0.0
C1056 C 0.48802 0.7575 0.8061 0.0
C1057 C 0.46969 0.70414 0.78142 0.0
H1058 H 0.43119 0.70199 0.83698 0.0
C1059 C 0.40935 0.63151 0.79714 0.0
C1060 C 0.38906 0.63568 0.80862 0.0
C1061 C 0.42531 0.64819 0.79511 0.0
C1062 C 0.44144 0.70259 0.82108 0.0
H1063 H 0.54766 0.73567 0.79509 0.0
H1064 H 0.51614 0.71059 0.79067 0.0
H1065 H 0.46034 0.7298 0.83483 0.0
H1066 H 0.36931 0.66075 0.82646 0.0
H1067 H 0.39682 0.6901 0.82224 0.0
H1068 H 0.45073 0.67716 0.76745 0.0
C1069 C 0.51306 0.72776 0.7953 0.0
C1070 C 0.45821 0.71852 0.81992 0.0
C1071 C 0.53109 0.74211 0.79791 0.0
C1072 C 0.38491 0.65698 0.81774 0.0
C1073 C 0.40076 0.67377 0.8154 0.0
C1074 C 0.45271 0.68839 0.78241 0.0
C1075 C 0.49141 0.73517 0.80001 0.0
C1076 C 0.47266 0.71929 0.80022 0.0
C1077 C 0.42125 0.66957 0.80418 0.0
C1078 C 0.43853 0.68719 0.80242 0.0
H1079 H 0.50287 0.78889 0.81382 0.0
H1080 H 0.47147 0.76368 0.80959 0.0
H1081 H 0.48051 0.70451 0.76594 0.0
H1082 H 0.4131 0.61522 0.79005 0.0
H1083 H 0.44101 0.64412 0.7868 0.0
C1084 C 0.46687 0.39409 0.82589 0.0
C1085 C 0.477 0.38558 0.80517 0.0
C1086 C 0.45194 0.41176 0.82436 0.0
C1087 C 0.4148 0.44149 0.78293 0.0
H1088 H 0.42037 0.48907 0.82922 0.0
C1089 C 0.34801 0.50932 0.79839 0.0
C1090 C 0.3554 0.53093 0.80349 0.0
C1091 C 0.36317 0.49193 0.79578 0.0
C1092 C 0.41872 0.47603 0.816 0.0
H1093 H 0.47902 0.38869 0.76652 0.0
H1094 H 0.45291 0.41953 0.76389 0.0
H1095 H 0.44594 0.45784 0.83074 0.0
H1096 H 0.38468 0.55137 0.80841 0.0
H1097 H 0.41102 0.52109 0.80374 0.0
H1098 H 0.3875 0.45979 0.76823 0.0
C1099 C 0.45649 0.41247 0.7813 0.0
C1100 C 0.4332 0.458 0.81707 0.0
C1101 C 0.47154 0.39488 0.78284 0.0
C1102 C 0.37835 0.53493 0.80467 0.0
C1103 C 0.39348 0.51755 0.80215 0.0
C1104 C 0.40017 0.4595 0.78196 0.0
C1105 C 0.44669 0.42124 0.80207 0.0
C1106 C 0.43137 0.44048 0.80062 0.0
C1107 C 0.38604 0.49576 0.7983 0.0
C1108 C 0.40197 0.47696 0.79852 0.0
H1109 H 0.47064 0.38727 0.84336 0.0
H1110 H 0.44443 0.41795 0.84065 0.0
H1111 H 0.4129 0.42818 0.77009 0.0
H1112 H 0.33046 0.50564 0.79731 0.0
H1113 H 0.35692 0.47531 0.79291 0.0
C1114 C 0.7223 0.46941 0.78291 0.0
C1115 C 0.73146 0.47491 0.80528 0.0
C1116 C 0.70474 0.45435 0.78129 0.0
C1117 C 0.6588 0.43174 0.81668 0.0
H1118 H 0.65698 0.38566 0.76827 0.0
C1119 C 0.58122 0.37813 0.80354 0.0
C1120 C 0.58492 0.35511 0.80311 0.0
C1121 C 0.59887 0.39293 0.80098 0.0
C1122 C 0.65728 0.39845 0.78187 0.0
H1123 H 0.72963 0.46858 0.84347 0.0
H1124 H 0.69895 0.44238 0.84064 0.0
H1125 H 0.68894 0.41061 0.77035 0.0
H1126 H 0.60995 0.32966 0.79806 0.0
H1127 H 0.64071 0.35555 0.79351 0.0
H1128 H 0.62736 0.41952 0.82844 0.0
C1129 C 0.70525 0.44985 0.82437 0.0
C1130 C 0.67549 0.41281 0.78297 0.0
C1131 C 0.72291 0.46477 0.82597 0.0
C1132 C 0.60649 0.34728 0.79858 0.0
C1133 C 0.62414 0.36211 0.79589 0.0
C1134 C 0.64056 0.41755 0.81546 0.0
C1135 C 0.69586 0.44461 0.80204 0.0
C1136 C 0.67649 0.4295 0.80051 0.0
C1137 C 0.6206 0.38508 0.79777 0.0
C1138 C 0.63962 0.40069 0.79812 0.0
H1139 H 0.72854 0.47689 0.76662 0.0
H1140 H 0.69775 0.45076 0.76386 0.0
H1141 H 0.65898 0.44459 0.83022 0.0
H1142 H 0.56482 0.38479 0.80683 0.0
H1143 H 0.59558 0.41056 0.80208 0.0
C1144 C 0.64257 0.39615 0.21741 0.0
C1145 C 0.6376 0.38632 0.19522 0.0
C1146 C 0.65751 0.41384 0.21881 0.0
C1147 C 0.68106 0.45875 0.18248 0.0
H1148 H 0.72661 0.46132 0.23144 0.0
C1149 C 0.73581 0.53588 0.19385 0.0
C1150 C 0.75876 0.53185 0.19488 0.0
C1151 C 0.7207 0.51852 0.19664 0.0
C1152 C 0.71397 0.46081 0.21768 0.0
H1153 H 0.64467 0.38718 0.15714 0.0
H1154 H 0.67063 0.41807 0.1596 0.0
H1155 H 0.7012 0.42968 0.23011 0.0
H1156 H 0.78374 0.50658 0.2011 0.0
H1157 H 0.75729 0.47632 0.20602 0.0
H1158 H 0.69391 0.48964 0.1698 0.0
C1159 C 0.66286 0.41219 0.17589 0.0
C1160 C 0.69935 0.4428 0.21702 0.0
C1161 C 0.64807 0.39441 0.17451 0.0
C1162 C 0.76619 0.51027 0.2001 0.0
C1163 C 0.75103 0.49292 0.20301 0.0
C1164 C 0.69552 0.47681 0.18326 0.0
C1165 C 0.66765 0.42218 0.19802 0.0
C1166 C 0.68287 0.4415 0.19926 0.0
C1167 C 0.72815 0.49677 0.20066 0.0
C1168 C 0.71221 0.478 0.20078 0.0
H1169 H 0.63483 0.39028 0.23372 0.0
H1170 H 0.66077 0.4213 0.23609 0.0
H1171 H 0.66839 0.45834 0.16874 0.0
H1172 H 0.72947 0.5523 0.19002 0.0
H1173 H 0.70314 0.52206 0.19514 0.0
C1174 C 0.72214 0.65002 0.17192 0.0
C1175 C 0.72925 0.63864 0.19249 0.0
C1176 C 0.70483 0.66536 0.17327 0.0
C1177 C 0.67421 0.70164 0.21447 0.0
H1178 H 0.62736 0.69708 0.16717 0.0
C1179 C 0.60611 0.76835 0.19845 0.0
C1180 C 0.58451 0.76058 0.194 0.0
C1181 C 0.62374 0.75345 0.20096 0.0
C1182 C 0.64024 0.69847 0.1806 0.0
H1183 H 0.72415 0.63486 0.23073 0.0
H1184 H 0.69401 0.66183 0.23308 0.0
H1185 H 0.65864 0.6715 0.16561 0.0
H1186 H 0.56436 0.73096 0.19007 0.0
H1187 H 0.59512 0.70511 0.19435 0.0
H1188 H 0.65575 0.72877 0.22934 0.0
C1189 C 0.70184 0.65882 0.21593 0.0
C1190 C 0.65825 0.68398 0.17955 0.0
C1191 C 0.719 0.64329 0.21454 0.0
C1192 C 0.58078 0.73757 0.19333 0.0
C1193 C 0.59841 0.72273 0.19564 0.0
C1194 C 0.65627 0.71634 0.21536 0.0
C1195 C 0.69441 0.66982 0.19526 0.0
C1196 C 0.67542 0.6854 0.19646 0.0
C1197 C 0.62014 0.73052 0.19889 0.0
C1198 C 0.63907 0.71483 0.19847 0.0
H1199 H 0.72972 0.64685 0.15467 0.0
H1200 H 0.69958 0.67378 0.1571 0.0
H1201 H 0.68729 0.70316 0.22766 0.0
H1202 H 0.60955 0.78597 0.19917 0.0
H1203 H 0.64034 0.75992 0.20341 0.0
C1204 C 0.46575 0.72254 0.17272 0.0
C1205 C 0.47779 0.72885 0.19315 0.0
C1206 C 0.45046 0.70517 0.17386 0.0
C1207 C 0.41555 0.67292 0.21501 0.0
H1208 H 0.41822 0.62818 0.16522 0.0
C1209 C 0.34804 0.60573 0.19888 0.0
C1210 C 0.35553 0.5843 0.19305 0.0
C1211 C 0.36309 0.62322 0.20139 0.0
C1212 C 0.41737 0.64046 0.17934 0.0
H1213 H 0.48281 0.72224 0.23096 0.0
H1214 H 0.45594 0.69199 0.23294 0.0
H1215 H 0.44387 0.65942 0.16419 0.0
H1216 H 0.38487 0.56431 0.1865 0.0
H1217 H 0.41098 0.59482 0.1908 0.0
H1218 H 0.3889 0.65391 0.23006 0.0
C1219 C 0.45839 0.7005 0.21606 0.0
C1220 C 0.43189 0.65846 0.17861 0.0
C1221 C 0.47385 0.71773 0.21487 0.0
C1222 C 0.37847 0.58059 0.19087 0.0
C1223 C 0.39345 0.59809 0.19319 0.0
C1224 C 0.40082 0.655 0.2156 0.0
C1225 C 0.44672 0.69389 0.1955 0.0
C1226 C 0.43115 0.67488 0.19641 0.0
C1227 C 0.3859 0.61967 0.19794 0.0
C1228 C 0.40164 0.63856 0.1978 0.0
H1229 H 0.46835 0.7308 0.15573 0.0
H1230 H 0.44152 0.70058 0.15779 0.0
H1231 H 0.41455 0.68541 0.2289 0.0
H1232 H 0.33049 0.60915 0.20077 0.0
H1233 H 0.3568 0.63971 0.205 0.0
C1234 C 0.50774 0.3446 0.19012 0.0
C1235 C 0.52958 0.35236 0.19295 0.0
C1236 C 0.48978 0.3591 0.19224 0.0
C1237 C 0.47184 0.41307 0.2157 0.0
H1238 H 0.43172 0.41324 0.16143 0.0
C1239 C 0.41056 0.48473 0.19937 0.0
C1240 C 0.38985 0.48003 0.18906 0.0
C1241 C 0.42671 0.46825 0.20136 0.0
C1242 C 0.44245 0.4132 0.17697 0.0
H1243 H 0.54955 0.38117 0.20163 0.0
H1244 H 0.51808 0.40639 0.20572 0.0
H1245 H 0.46121 0.38575 0.16354 0.0
H1246 H 0.36963 0.45423 0.1732 0.0
H1247 H 0.39757 0.42522 0.17731 0.0
H1248 H 0.45303 0.44033 0.22934 0.0
C1249 C 0.51494 0.38911 0.20168 0.0
C1250 C 0.45941 0.39746 0.17811 0.0
C1251 C 0.53296 0.37468 0.19925 0.0
C1252 C 0.38552 0.4584 0.18102 0.0
C1253 C 0.4016 0.44181 0.18329 0.0
C1254 C 0.45469 0.42865 0.21473 0.0
C1255 C 0.49323 0.38158 0.19758 0.0
C1256 C 0.47442 0.3974 0.19734 0.0
C1257 C 0.42247 0.44654 0.1934 0.0
C1258 C 0.43994 0.42912 0.19518 0.0
H1259 H 0.5045 0.32751 0.1853 0.0
H1260 H 0.47318 0.35282 0.18926 0.0
H1261 H 0.48307 0.41324 0.23083 0.0
H1262 H 0.41446 0.50128 0.2056 0.0
H1263 H 0.44269 0.4727 0.20878 0.0
C1264 C 0.26405 0.45574 0.20668 0.0
C1265 C 0.26626 0.47639 0.21801 0.0
C1266 C 0.24947 0.43978 0.21575 0.0
C1267 C 0.19912 0.43489 0.25268 0.0
H1268 H 0.21411 0.37241 0.25506 0.0
C1269 C 0.14202 0.37158 0.29878 0.0
C1270 C 0.13898 0.35101 0.28756 0.0
C1271 C 0.15823 0.38628 0.29064 0.0
C1272 C 0.20957 0.38977 0.25426 0.0
H1273 H 0.25548 0.49646 0.24793 0.0
H1274 H 0.22997 0.46862 0.26389 0.0
H1275 H 0.24139 0.39913 0.24047 0.0
H1276 H 0.15072 0.3293 0.25947 0.0
H1277 H 0.17905 0.35512 0.24488 0.0
H1278 H 0.16728 0.42565 0.26618 0.0
C1279 C 0.2393 0.46479 0.24785 0.0
C1280 C 0.22522 0.40508 0.24594 0.0
C1281 C 0.25395 0.48068 0.23881 0.0
C1282 C 0.15279 0.34513 0.26837 0.0
C1283 C 0.16902 0.35987 0.26013 0.0
C1284 C 0.18347 0.41962 0.26091 0.0
C1285 C 0.2367 0.44423 0.23627 0.0
C1286 C 0.2202 0.42784 0.24515 0.0
C1287 C 0.17181 0.38074 0.27104 0.0
C1288 C 0.18851 0.39686 0.26192 0.0
H1289 H 0.27314 0.45218 0.1904 0.0
H1290 H 0.24767 0.42423 0.20626 0.0
H1291 H 0.19454 0.45224 0.25185 0.0
H1292 H 0.13187 0.37629 0.31395 0.0
H1293 H 0.16022 0.40196 0.29983 0.0
C1294 C 0.74617 0.14495 0.29783 0.0
C1295 C 0.76682 0.14087 0.28715 0.0
C1296 C 0.73245 0.16183 0.28926 0.0
C1297 C 0.72189 0.19562 0.23538 0.0
H1298 H 0.68555 0.22999 0.279 0.0
C1299 C 0.64624 0.24581 0.20339 0.0
C1300 C 0.64169 0.26619 0.21445 0.0
C1301 C 0.66308 0.23211 0.21209 0.0
C1302 C 0.69576 0.22075 0.26656 0.0
H1303 H 0.78973 0.15154 0.25966 0.0
H1304 H 0.76589 0.1814 0.24477 0.0
H1305 H 0.71248 0.20374 0.29494 0.0
H1306 H 0.65144 0.28864 0.24275 0.0
H1307 H 0.68122 0.26481 0.2579 0.0
H1308 H 0.70532 0.21278 0.20701 0.0
C1309 C 0.76008 0.17129 0.2595 0.0
C1310 C 0.71102 0.20548 0.2757 0.0
C1311 C 0.7738 0.15433 0.2681 0.0
C1312 C 0.65461 0.27291 0.23403 0.0
C1313 C 0.67151 0.25921 0.24275 0.0
C1314 C 0.70665 0.21091 0.22625 0.0
C1315 C 0.73916 0.17514 0.26989 0.0
C1316 C 0.72406 0.1925 0.26022 0.0
C1317 C 0.67586 0.23856 0.23197 0.0
C1318 C 0.69317 0.22345 0.24171 0.0
H1319 H 0.74058 0.135 0.31282 0.0
H1320 H 0.71638 0.16414 0.29753 0.0
H1321 H 0.73152 0.18579 0.22292 0.0
H1322 H 0.63672 0.24043 0.18801 0.0
H1323 H 0.66576 0.21624 0.2035 0.0
C1324 C 0.86033 0.63597 0.23747 0.0
C1325 C 0.84949 0.63938 0.21556 0.0
C1326 C 0.87509 0.65183 0.24634 0.0
C1327 C 0.89158 0.71072 0.24101 0.0
H1328 H 0.94716 0.68967 0.26746 0.0
C1329 C 0.96466 0.76948 0.26463 0.0
C1330 C 0.97684 0.76443 0.28531 0.0
C1331 C 0.9484 0.75483 0.25626 0.0
C1332 C 0.93161 0.69586 0.26043 0.0
H1333 H 0.84556 0.66179 0.18559 0.0
H1334 H 0.87125 0.68969 0.20113 0.0
H1335 H 0.91996 0.66309 0.25299 0.0
H1336 H 0.98114 0.74077 0.31407 0.0
H1337 H 0.95268 0.71531 0.29976 0.0
H1338 H 0.90327 0.74353 0.24852 0.0
C1339 C 0.86815 0.67493 0.21165 0.0
C1340 C 0.916 0.68059 0.25212 0.0
C1341 C 0.85345 0.65901 0.20276 0.0
C1342 C 0.97218 0.74482 0.29784 0.0
C1343 C 0.95594 0.73023 0.28957 0.0
C1344 C 0.90719 0.72603 0.24941 0.0
C1345 C 0.87931 0.67143 0.23344 0.0
C1346 C 0.89578 0.68781 0.24236 0.0
C1347 C 0.944 0.7349 0.26852 0.0
C1348 C 0.92738 0.71877 0.2593 0.0
H1349 H 0.85749 0.62094 0.24763 0.0
H1350 H 0.8832 0.64875 0.26332 0.0
H1351 H 0.87606 0.71681 0.2338 0.0
H1352 H 0.96805 0.78453 0.25469 0.0
H1353 H 0.93966 0.75886 0.2399 0.0
C1354 C 0.34569 0.96315 0.26785 0.0
C1355 C 0.35137 0.97657 0.2874 0.0
C1356 C 0.36043 0.94693 0.2596 0.0
C1357 C 0.42 0.93201 0.26124 0.0
H1358 H 0.39936 0.87481 0.23876 0.0
C1359 C 0.48059 0.86139 0.23794 0.0
C1360 C 0.47644 0.84981 0.21664 0.0
C1361 C 0.46478 0.87601 0.24718 0.0
C1362 C 0.40535 0.89078 0.24481 0.0
H1363 H 0.37622 0.98303 0.31446 0.0
H1364 H 0.40189 0.95463 0.30034 0.0
H1365 H 0.37266 0.90191 0.25375 0.0
H1366 H 0.45271 0.84435 0.18818 0.0
H1367 H 0.42488 0.86976 0.20442 0.0
H1368 H 0.45267 0.92089 0.25238 0.0
C1369 C 0.38639 0.95693 0.29087 0.0
C1370 C 0.39005 0.90633 0.25336 0.0
C1371 C 0.3717 0.97315 0.29902 0.0
C1372 C 0.4561 0.85283 0.20488 0.0
C1373 C 0.44022 0.86737 0.21417 0.0
C1374 C 0.43527 0.91646 0.2528 0.0
C1375 C 0.38107 0.94377 0.27089 0.0
C1376 C 0.3972 0.92713 0.26171 0.0
C1377 C 0.44448 0.87931 0.2353 0.0
C1378 C 0.42814 0.89566 0.24451 0.0
H1379 H 0.33004 0.96552 0.25868 0.0
H1380 H 0.35587 0.93723 0.24405 0.0
H1381 H 0.42608 0.94802 0.26706 0.0
H1382 H 0.49618 0.85927 0.2473 0.0
H1383 H 0.46846 0.88476 0.26365 0.0
C1384 C 0.27201 0.65504 0.7678 0.0
C1385 C 0.26515 0.64003 0.78554 0.0
C1386 C 0.25744 0.67138 0.75937 0.0
C1387 C 0.19794 0.68272 0.75326 0.0
H1388 H 0.21566 0.74385 0.74338 0.0
C1389 C 0.14254 0.74473 0.70298 0.0
C1390 C 0.13939 0.76551 0.71375 0.0
C1391 C 0.15874 0.73021 0.71152 0.0
C1392 C 0.21048 0.72685 0.74614 0.0
H1393 H 0.23817 0.63092 0.80916 0.0
H1394 H 0.21265 0.65908 0.79421 0.0
H1395 H 0.24251 0.71703 0.75917 0.0
H1396 H 0.15105 0.78775 0.74141 0.0
H1397 H 0.17974 0.76236 0.7563 0.0
H1398 H 0.16599 0.69239 0.74033 0.0
C1399 C 0.22912 0.6581 0.78655 0.0
C1400 C 0.22588 0.71148 0.75497 0.0
C1401 C 0.2437 0.64195 0.79507 0.0
C1402 C 0.15321 0.77181 0.73279 0.0
C1403 C 0.1696 0.75732 0.74125 0.0
C1404 C 0.18267 0.69797 0.74423 0.0
C1405 C 0.23574 0.67287 0.76845 0.0
C1406 C 0.21971 0.68927 0.75873 0.0
C1407 C 0.17232 0.73623 0.73089 0.0
C1408 C 0.18874 0.72021 0.74058 0.0
H1409 H 0.28847 0.65385 0.76014 0.0
H1410 H 0.26296 0.68246 0.74532 0.0
H1411 H 0.19275 0.66568 0.75575 0.0
H1412 H 0.13243 0.73966 0.68792 0.0
H1413 H 0.16068 0.71424 0.70289 0.0
C1414 C 0.37119 0.14327 0.70383 0.0
C1415 C 0.35062 0.13949 0.71484 0.0
C1416 C 0.38544 0.15962 0.71249 0.0
C1417 C 0.38827 0.21074 0.74811 0.0
H1418 H 0.44975 0.19365 0.75687 0.0
C1419 C 0.45969 0.27267 0.76977 0.0
C1420 C 0.47498 0.26569 0.78717 0.0
C1421 C 0.44331 0.25811 0.76145 0.0
C1422 C 0.43262 0.19866 0.75462 0.0
H1423 H 0.32844 0.15019 0.74302 0.0
H1424 H 0.35338 0.17917 0.75813 0.0
H1425 H 0.4233 0.1668 0.74119 0.0
H1426 H 0.48444 0.2386 0.8105 0.0
H1427 H 0.45623 0.21309 0.7957 0.0
H1428 H 0.39775 0.24268 0.76161 0.0
C1429 C 0.35845 0.1694 0.74281 0.0
C1430 C 0.41752 0.18334 0.74545 0.0
C1431 C 0.34423 0.15285 0.73423 0.0
C1432 C 0.47323 0.2442 0.7966 0.0
C1433 C 0.45704 0.22963 0.78819 0.0
C1434 C 0.40348 0.22619 0.75708 0.0
C1435 C 0.37935 0.17271 0.73222 0.0
C1436 C 0.39518 0.18918 0.7421 0.0
C1437 C 0.44208 0.23632 0.77032 0.0
C1438 C 0.4258 0.22025 0.76053 0.0
H1439 H 0.3763 0.13351 0.68852 0.0
H1440 H 0.40127 0.16204 0.7037 0.0
H1441 H 0.37118 0.21572 0.74557 0.0
H1442 H 0.46071 0.28918 0.76224 0.0
H1443 H 0.43205 0.26368 0.74759 0.0
C1444 C 0.95622 0.3496 0.70798 0.0
C1445 C 0.97747 0.34931 0.71821 0.0
C1446 C 0.93989 0.3639 0.71681 0.0
C1447 C 0.92502 0.39844 0.76939 0.0
H1448 H 0.88859 0.43023 0.72361 0.0
C1449 C 0.87221 0.47427 0.796 0.0
C1450 C 0.85112 0.47649 0.78569 0.0
C1451 C 0.88675 0.45777 0.78815 0.0
C1452 C 0.8984 0.42127 0.73666 0.0
H1453 H 0.99834 0.36339 0.74578 0.0
H1454 H 0.96996 0.38863 0.7611 0.0
H1455 H 0.9155 0.40308 0.70943 0.0
H1456 H 0.82841 0.46306 0.75946 0.0
H1457 H 0.85377 0.43396 0.74574 0.0
H1458 H 0.90809 0.41682 0.79661 0.0
C1459 C 0.96574 0.37764 0.74647 0.0
C1460 C 0.91384 0.40569 0.72853 0.0
C1461 C 0.98204 0.36333 0.73763 0.0
C1462 C 0.84466 0.46171 0.7676 0.0
C1463 C 0.85922 0.44518 0.75968 0.0
C1464 C 0.9096 0.41404 0.77752 0.0
C1465 C 0.9445 0.37824 0.73604 0.0
C1466 C 0.92746 0.39419 0.74478 0.0
C1467 C 0.88048 0.44305 0.76984 0.0
C1468 C 0.89622 0.42577 0.76124 0.0
H1469 H 0.95237 0.33911 0.69281 0.0
H1470 H 0.92366 0.36374 0.70853 0.0
H1471 H 0.93497 0.38963 0.78244 0.0
H1472 H 0.87745 0.48528 0.81024 0.0
H1473 H 0.90305 0.45677 0.79621 0.0
C1474 C 0.66009 0.85089 0.79448 0.0
C1475 C 0.64032 0.84737 0.7818 0.0
C1476 C 0.67621 0.86538 0.78557 0.0
C1477 C 0.68167 0.91366 0.74565 0.0
H1478 H 0.74474 0.90178 0.74987 0.0
C1479 C 0.74548 0.97127 0.70148 0.0
C1480 C 0.76474 0.97628 0.71445 0.0
C1481 C 0.73113 0.95463 0.70929 0.0
C1482 C 0.72719 0.90544 0.74879 0.0
H1483 H 0.62197 0.85557 0.74974 0.0
H1484 H 0.65016 0.88082 0.73396 0.0
H1485 H 0.71824 0.874 0.76389 0.0
H1486 H 0.78451 0.96767 0.74539 0.0
H1487 H 0.75925 0.93854 0.75937 0.0
H1488 H 0.69047 0.9451 0.73082 0.0
C1489 C 0.65317 0.87264 0.75091 0.0
C1490 C 0.71201 0.88951 0.75679 0.0
C1491 C 0.63711 0.85812 0.75982 0.0
C1492 C 0.76972 0.96403 0.73512 0.0
C1493 C 0.75531 0.94734 0.74301 0.0
C1494 C 0.6968 0.92955 0.73772 0.0
C1495 C 0.67277 0.87671 0.76386 0.0
C1496 C 0.68906 0.89341 0.75522 0.0
C1497 C 0.7357 0.94262 0.73031 0.0
C1498 C 0.71975 0.92563 0.73908 0.0
H1499 H 0.66276 0.84297 0.81165 0.0
H1500 H 0.69099 0.86832 0.7961 0.0
H1501 H 0.66413 0.91741 0.74465 0.0
H1502 H 0.74151 0.98027 0.68524 0.0
H1503 H 0.71645 0.95113 0.69878 0.0
C1504 C 0.0071 0.72383 0.72194 0.0
C1505 C 0.00747 0.72511 0.69684 0.0
C1506 C 0.99184 0.71013 0.73355 0.0
C1507 C 0.95758 0.66057 0.72463 0.0
H1508 H 0.92511 0.68243 0.77971 0.0
C1509 C 0.88847 0.6092 0.76971 0.0
C1510 C 0.8874 0.60971 0.79482 0.0
C1511 C 0.9024 0.62375 0.75733 0.0
C1512 C 0.93422 0.67598 0.76453 0.0
H1513 H 0.99292 0.71244 0.66415 0.0
H1514 H 0.96626 0.68834 0.68443 0.0
H1515 H 0.95103 0.70682 0.75899 0.0
H1516 H 0.90056 0.62542 0.82669 0.0
H1517 H 0.92523 0.65043 0.80519 0.0
H1518 H 0.94113 0.62962 0.73034 0.0
C1519 C 0.97761 0.6981 0.69513 0.0
C1520 C 0.94903 0.68998 0.75264 0.0
C1521 C 0.99279 0.71192 0.68354 0.0
C1522 C 0.90084 0.62479 0.80731 0.0
C1523 C 0.91484 0.63926 0.79497 0.0
C1524 C 0.94287 0.64652 0.7366 0.0
C1525 C 0.97691 0.69714 0.72026 0.0
C1526 C 0.9609 0.6824 0.73261 0.0
C1527 C 0.91579 0.63893 0.76982 0.0
C1528 C 0.93105 0.65403 0.75674 0.0
H1529 H 0.01889 0.73307 0.73261 0.0
H1530 H 0.99202 0.70934 0.75292 0.0
H1531 H 0.96672 0.65418 0.70943 0.0
H1532 H 0.87903 0.59725 0.75953 0.0
H1533 H 0.90265 0.62308 0.73796 0.0
C1534 C 0.41606 0.0147 0.70183 0.0
C1535 C 0.39381 0.00925 0.69751 0.0
C1536 C 0.43002 0.99982 0.71364 0.0
C1537 C 0.42934 0.94913 0.75173 0.0
H1538 H 0.49149 0.94699 0.73403 0.0
C1539 C 0.49129 0.88331 0.78767 0.0
C1540 C 0.51108 0.89203 0.79697 0.0
C1541 C 0.47664 0.89691 0.77495 0.0
C1542 C 0.47418 0.94748 0.73918 0.0
H1543 H 0.36887 0.98368 0.70123 0.0
H1544 H 0.39333 0.95735 0.72132 0.0
H1545 H 0.46645 0.97169 0.71256 0.0
H1546 H 0.5311 0.92164 0.80047 0.0
H1547 H 0.50572 0.94532 0.7778 0.0
H1548 H 0.43721 0.92444 0.77803 0.0
C1549 C 0.39988 0.97343 0.71639 0.0
C1550 C 0.45982 0.96173 0.72701 0.0
C1551 C 0.38583 0.98849 0.70487 0.0
C1552 C 0.51599 0.91453 0.79337 0.0
C1553 C 0.50155 0.92801 0.78033 0.0
C1554 C 0.44367 0.93463 0.76367 0.0
C1555 C 0.42218 0.97891 0.72097 0.0
C1556 C 0.43725 0.96298 0.73331 0.0
C1557 C 0.4817 0.91936 0.77108 0.0
C1558 C 0.46626 0.93387 0.75768 0.0
H1559 H 0.42259 0.03065 0.69638 0.0
H1560 H 0.44691 0.00487 0.71724 0.0
H1561 H 0.41218 0.94983 0.75736 0.0
H1562 H 0.4869 0.86613 0.79064 0.0
H1563 H 0.46143 0.88985 0.768 0.0
C1564 C 0.12383 0.40275 0.68641 0.0
C1565 C 0.10757 0.39064 0.69879 0.0
C1566 C 0.1385 0.41657 0.69873 0.0
C1567 C 0.1452 0.44614 0.75648 0.0
H1568 H 0.20608 0.45193 0.73512 0.0
C1569 C 0.20249 0.5139 0.79404 0.0
C1570 C 0.22495 0.50878 0.79748 0.0
C1571 C 0.18856 0.49917 0.78201 0.0
C1572 C 0.18921 0.45034 0.74152 0.0
H1573 H 0.09328 0.38467 0.73387 0.0
H1574 H 0.11951 0.40764 0.75543 0.0
H1575 H 0.18139 0.42619 0.7148 0.0
H1576 H 0.25035 0.48392 0.79191 0.0
H1577 H 0.22598 0.45791 0.77125 0.0
H1578 H 0.15319 0.46964 0.78373 0.0
C1579 C 0.12091 0.40658 0.73613 0.0
C1580 C 0.17493 0.43579 0.72963 0.0
C1581 C 0.10611 0.39293 0.72377 0.0
C1582 C 0.23322 0.48852 0.78894 0.0
C1583 C 0.21922 0.47363 0.77712 0.0
C1584 C 0.15952 0.4605 0.76851 0.0
C1585 C 0.13728 0.41862 0.72377 0.0
C1586 C 0.15269 0.43362 0.73684 0.0
C1587 C 0.19669 0.47877 0.77351 0.0
C1588 C 0.18167 0.46295 0.76107 0.0
H1589 H 0.12528 0.40154 0.66713 0.0
H1590 H 0.15056 0.42592 0.68851 0.0
H1591 H 0.12813 0.44514 0.76239 0.0
H1592 H 0.19573 0.52946 0.80042 0.0
H1593 H 0.17145 0.50391 0.77918 0.0
C1594 C 0.6267 0.23418 0.78784 0.0
C1595 C 0.60635 0.22581 0.79607 0.0
C1596 C 0.64131 0.22054 0.77514 0.0
C1597 C 0.64319 0.17095 0.73767 0.0
H1598 H 0.70455 0.1661 0.75767 0.0
C1599 C 0.70005 0.10256 0.7006 0.0
C1600 C 0.72255 0.10737 0.69704 0.0
C1601 C 0.68626 0.11768 0.71229 0.0
C1602 C 0.68758 0.16751 0.75155 0.0
H1603 H 0.58532 0.19676 0.79769 0.0
H1604 H 0.61066 0.17302 0.77511 0.0
H1605 H 0.6798 0.19179 0.77831 0.0
H1606 H 0.74816 0.1321 0.70193 0.0
H1607 H 0.72404 0.15883 0.72185 0.0
H1608 H 0.65084 0.14712 0.71063 0.0
C1609 C 0.61529 0.1901 0.77843 0.0
C1610 C 0.67341 0.18218 0.76345 0.0
C1611 C 0.60088 0.20361 0.79144 0.0
C1612 C 0.73098 0.12776 0.705 0.0
C1613 C 0.71713 0.14306 0.71642 0.0
C1614 C 0.6574 0.15653 0.72554 0.0
C1615 C 0.63567 0.1984 0.77022 0.0
C1616 C 0.65103 0.18382 0.7568 0.0
C1617 C 0.69457 0.1382 0.72026 0.0
C1618 C 0.67972 0.15437 0.73252 0.0
H1619 H 0.63149 0.25112 0.79159 0.0
H1620 H 0.65694 0.22732 0.76899 0.0
H1621 H 0.62606 0.17214 0.73199 0.0
H1622 H 0.69316 0.08691 0.69466 0.0
H1623 H 0.66913 0.11312 0.7153 0.0
C1624 C 0.00557 0.39069 0.27633 0.0
C1625 C 0.0064 0.38965 0.30144 0.0
C1626 C 0.99045 0.40468 0.26487 0.0
C1627 C 0.95814 0.45541 0.27343 0.0
H1628 H 0.92308 0.43334 0.22036 0.0
C1629 C 0.89019 0.50861 0.22852 0.0
C1630 C 0.88812 0.50707 0.20352 0.0
C1631 C 0.90385 0.49391 0.24106 0.0
C1632 C 0.93293 0.43986 0.23496 0.0
H1633 H 0.9926 0.40307 0.33423 0.0
H1634 H 0.96638 0.42774 0.31418 0.0
H1635 H 0.94867 0.40851 0.24095 0.0
H1636 H 0.89933 0.4893 0.17201 0.0
H1637 H 0.92359 0.46414 0.19371 0.0
H1638 H 0.94287 0.48687 0.26717 0.0
C1639 C 0.97727 0.41753 0.30339 0.0
C1640 C 0.94753 0.4256 0.24678 0.0
C1641 C 0.99224 0.40338 0.31484 0.0
C1642 C 0.90038 0.4908 0.19131 0.0
C1643 C 0.91414 0.47622 0.20379 0.0
C1644 C 0.94368 0.46974 0.26148 0.0
C1645 C 0.97614 0.41822 0.27829 0.0
C1646 C 0.96033 0.43325 0.26608 0.0
C1647 C 0.91602 0.47754 0.22884 0.0
C1648 C 0.93095 0.46216 0.24203 0.0
H1649 H 0.01691 0.38119 0.26542 0.0
H1650 H 0.99028 0.40526 0.24549 0.0
H1651 H 0.968 0.46181 0.28809 0.0
H1652 H 0.88174 0.52143 0.23847 0.0
H1653 H 0.90483 0.49538 0.26035 0.0
C1654 C 0.6233 0.90287 0.1882 0.0
C1655 C 0.60755 0.89022 0.20076 0.0
C1656 C 0.63769 0.91707 0.20037 0.0
C1657 C 0.66277 0.92753 0.25912 0.0
H1658 H 0.67105 0.98721 0.23489 0.0
C1659 C 0.71037 0.99422 0.31256 0.0
C1660 C 0.72399 0.00892 0.29973 0.0
C1661 C 0.69631 0.97955 0.30055 0.0
C1662 C 0.66922 0.97051 0.24172 0.0
H1663 H 0.59391 0.88364 0.23602 0.0
H1664 H 0.61951 0.90782 0.25728 0.0
H1665 H 0.64657 0.96174 0.21377 0.0
H1666 H 0.73243 0.02056 0.26413 0.0
H1667 H 0.70889 0.99433 0.24319 0.0
H1668 H 0.68565 0.93611 0.28686 0.0
C1669 C 0.62095 0.90636 0.23801 0.0
C1670 C 0.65512 0.95595 0.22965 0.0
C1671 C 0.6064 0.89229 0.2258 0.0
C1672 C 0.72292 0.0089 0.27461 0.0
C1673 C 0.70899 0.99412 0.26258 0.0
C1674 C 0.67704 0.94203 0.2711 0.0
C1675 C 0.63668 0.91895 0.2254 0.0
C1676 C 0.65172 0.93433 0.23823 0.0
C1677 C 0.69549 0.97926 0.27539 0.0
C1678 C 0.68042 0.96373 0.26257 0.0
H1679 H 0.6246 0.90173 0.16889 0.0
H1680 H 0.64976 0.92646 0.19019 0.0
H1681 H 0.66065 0.91087 0.26599 0.0
H1682 H 0.71062 0.994 0.33196 0.0
H1683 H 0.68585 0.96867 0.31104 0.0
C1684 C 0.10279 0.70113 0.30055 0.0
C1685 C 0.10745 0.72375 0.30344 0.0
C1686 C 0.11774 0.68729 0.28868 0.0
C1687 C 0.16596 0.68855 0.24738 0.0
H1688 H 0.17267 0.62769 0.26849 0.0
C1689 C 0.21349 0.62384 0.19146 0.0
C1690 C 0.22614 0.60779 0.20356 0.0
C1691 C 0.19972 0.63831 0.20409 0.0
C1692 C 0.17125 0.64471 0.26252 0.0
H1693 H 0.13179 0.74951 0.29725 0.0
H1694 H 0.15816 0.72532 0.27691 0.0
H1695 H 0.14803 0.65241 0.29018 0.0
H1696 H 0.23315 0.59369 0.2385 0.0
H1697 H 0.21022 0.61962 0.2606 0.0
H1698 H 0.18978 0.68105 0.22023 0.0
C1699 C 0.14263 0.71835 0.28303 0.0
C1700 C 0.15681 0.65882 0.27475 0.0
C1701 C 0.12753 0.73224 0.29467 0.0
C1702 C 0.22445 0.60637 0.2286 0.0
C1703 C 0.21084 0.62099 0.24128 0.0
C1704 C 0.18057 0.67449 0.23529 0.0
C1705 C 0.13789 0.69569 0.27981 0.0
C1706 C 0.15382 0.68088 0.26722 0.0
C1707 C 0.19825 0.63713 0.22919 0.0
C1708 C 0.18328 0.65233 0.24258 0.0
H1709 H 0.08739 0.69419 0.30714 0.0
H1710 H 0.11332 0.67004 0.2862 0.0
H1711 H 0.16393 0.70535 0.24089 0.0
H1712 H 0.21423 0.62526 0.17214 0.0
H1713 H 0.18994 0.65018 0.19409 0.0
C1714 C 0.40245 0.12413 0.31021 0.0
C1715 C 0.38901 0.10902 0.29774 0.0
C1716 C 0.41662 0.13843 0.29787 0.0
C1717 C 0.44489 0.14529 0.23947 0.0
H1718 H 0.45347 0.20559 0.26168 0.0
C1719 C 0.49466 0.21042 0.18588 0.0
C1720 C 0.50966 0.22349 0.19897 0.0
C1721 C 0.47951 0.1967 0.19765 0.0
C1722 C 0.45135 0.18874 0.25538 0.0
H1723 H 0.38089 0.09635 0.26246 0.0
H1724 H 0.40473 0.12193 0.2409 0.0
H1725 H 0.42746 0.1814 0.28255 0.0
H1726 H 0.52139 0.23121 0.23473 0.0
H1727 H 0.49458 0.2078 0.25524 0.0
H1728 H 0.46866 0.15278 0.21216 0.0
C1729 C 0.40436 0.12273 0.26026 0.0
C1730 C 0.43649 0.17486 0.26736 0.0
C1731 C 0.39029 0.10833 0.27264 0.0
C1732 C 0.50946 0.22221 0.22409 0.0
C1733 C 0.4942 0.20861 0.23587 0.0
C1734 C 0.45962 0.15924 0.2274 0.0
C1735 C 0.41775 0.13794 0.27272 0.0
C1736 C 0.43315 0.15291 0.25963 0.0
C1737 C 0.47907 0.19572 0.22278 0.0
C1738 C 0.46309 0.18107 0.23531 0.0
H1739 H 0.40202 0.1249 0.32958 0.0
H1740 H 0.42699 0.14961 0.3081 0.0
H1741 H 0.44305 0.12839 0.23326 0.0
H1742 H 0.49448 0.21095 0.1665 0.0
H1743 H 0.46796 0.18704 0.18708 0.0
loop_
_geom_bond_atom_site_label_1
_geom_bond_atom_site_label_2
_geom_bond_distance
_geom_bond_site_symmetry_2
_ccdc_geom_bond_type
Co0 O3 1.970 . S
Co0 N17 1.989 . S
Co0 O25 1.967 . S
Co0 O32 1.920 . S
Co1 O4 1.966 . S
Co1 N10 2.022 . S
Co1 N18 1.993 . S
Co1 O26 1.941 . S
C2 O3 1.258 . S
C2 O4 1.263 . S
O3 Co0 1.970 . S
O3 C2 1.258 . S
O4 Co1 1.966 . S
O4 C2 1.263 . S
C5 O6 1.235 . S
C5 O32 1.289 . S
O6 C5 1.235 . S
C7 C9 1.400 . S
C7 N10 1.351 . S
C7 C12 1.501 . S
C8 C9 1.387 . S
C8 N11 1.341 . S
C9 C7 1.400 . S
C9 C8 1.387 . S
N10 Co1 2.022 . S
N10 C7 1.351 . S
N10 N11 1.365 . S
N11 C8 1.341 . S
N11 N10 1.365 . S
N11 H31 0.862 . S
C12 C7 1.501 . S
C12 H13 0.961 . S
C12 H14 0.961 . S
C12 H15 0.960 1_455 S
H13 C12 0.961 . S
H14 C12 0.961 . S
H15 C12 0.960 1_655 S
C16 N17 1.342 . S
C16 C20 1.401 . S
C16 C21 1.499 . S
N17 Co0 1.989 . S
N17 C16 1.342 . S
N17 N18 1.388 . S
N18 Co1 1.993 . S
N18 N17 1.388 . S
N18 C19 1.346 . S
C19 N18 1.346 . S
C19 C20 1.396 . S
C19 C29 1.510 . S
C20 C16 1.401 . S
C20 C19 1.396 . S
C21 C16 1.499 . S
C21 H22 0.959 . S
C21 H23 0.960 . S
C21 H24 0.961 . S
H22 C21 0.959 . S
H23 C21 0.960 . S
H24 C21 0.961 . S
O25 Co0 1.967 . S
O25 C33 1.258 . S
O26 Co1 1.941 . S
O26 C33 1.266 . S
H27 C29 0.959 . S
H28 C29 0.961 . S
C29 C19 1.510 . S
C29 H27 0.959 . S
C29 H28 0.961 . S
C29 H30 0.960 . S
H30 C29 0.960 . S
H31 N11 0.862 . S
O32 Co0 1.920 . S
O32 C5 1.289 . S
C33 O25 1.258 . S
C33 O26 1.266 . S
Co34 O37 1.970 . S
Co34 N51 1.989 . S
Co34 O59 1.967 . S
Co34 O66 1.920 . S
Co35 O38 1.966 . S
Co35 N44 2.022 . S
Co35 N52 1.993 . S
Co35 O60 1.941 . S
C36 O37 1.258 . S
C36 O38 1.263 . S
O37 Co34 1.970 . S
O37 C36 1.258 . S
O38 Co35 1.966 . S
O38 C36 1.263 . S
C39 O40 1.235 . S
C39 O66 1.289 . S
O40 C39 1.235 . S
C41 C43 1.400 . S
C41 N44 1.351 . S
C41 C46 1.501 . S
C42 C43 1.387 . S
C42 N45 1.341 . S
C43 C41 1.400 . S
C43 C42 1.387 . S
N44 Co35 2.022 . S
N44 C41 1.351 . S
N44 N45 1.365 . S
N45 C42 1.341 . S
N45 N44 1.365 . S
N45 H65 0.862 . S
C46 C41 1.501 . S
C46 H47 0.961 . S
C46 H48 0.961 . S
C46 H49 0.960 1_545 S
H47 C46 0.961 . S
H48 C46 0.961 . S
H49 C46 0.960 1_565 S
C50 N51 1.342 . S
C50 C54 1.401 . S
C50 C55 1.499 . S
N51 Co34 1.989 . S
N51 C50 1.342 . S
N51 N52 1.388 . S
N52 Co35 1.993 . S
N52 N51 1.388 . S
N52 C53 1.346 . S
C53 N52 1.346 . S
C53 C54 1.396 . S
C53 C63 1.510 . S
C54 C50 1.401 . S
C54 C53 1.396 . S
C55 C50 1.499 . S
C55 H56 0.959 . S
C55 H57 0.960 . S
C55 H58 0.961 . S
H56 C55 0.959 . S
H57 C55 0.960 . S
H58 C55 0.961 . S
O59 Co34 1.967 . S
O59 C67 1.258 . S
O60 Co35 1.941 . S
O60 C67 1.266 . S
H61 C63 0.959 . S
H62 C63 0.961 . S
C63 C53 1.510 . S
C63 H61 0.959 . S
C63 H62 0.961 . S
C63 H64 0.960 . S
H64 C63 0.960 . S
H65 N45 0.862 . S
O66 Co34 1.920 . S
O66 C39 1.289 . S
C67 O59 1.258 . S
C67 O60 1.266 . S
Co68 O71 1.970 . S
Co68 N85 1.989 . S
Co68 O93 1.967 . S
Co68 O100 1.886 1_455 S
Co69 O72 1.966 . S
Co69 N78 2.022 . S
Co69 N86 1.993 . S
Co69 O94 1.941 . S
C70 O71 1.258 . S
C70 O72 1.263 . S
O71 Co68 1.970 . S
O71 C70 1.258 . S
O72 Co69 1.966 . S
O72 C70 1.263 . S
C73 O74 1.235 . S
C73 O100 1.305 . S
O74 C73 1.235 . S
C75 C77 1.400 . S
C75 N78 1.351 . S
C75 C80 1.501 . S
C76 C77 1.387 . S
C76 N79 1.341 . S
C77 C75 1.400 . S
C77 C76 1.387 . S
N78 Co69 2.022 . S
N78 C75 1.351 . S
N78 N79 1.365 . S
N79 C76 1.341 . S
N79 N78 1.365 . S
N79 H99 0.862 . S
C80 C75 1.501 . S
C80 H81 0.961 . S
C80 H82 0.961 . S
C80 H83 0.960 . S
H81 C80 0.961 . S
H82 C80 0.961 . S
H83 C80 0.960 . S
C84 N85 1.342 1_655 S
C84 C88 1.406 . S
C84 C89 1.499 . S
N85 Co68 1.989 . S
N85 C84 1.342 1_455 S
N85 N86 1.388 . S
N86 Co69 1.993 . S
N86 N85 1.388 . S
N86 C87 1.346 . S
C87 N86 1.346 . S
C87 C88 1.372 1_455 S
C87 C97 1.510 . S
C88 C84 1.406 . S
C88 C87 1.372 1_655 S
C89 C84 1.499 . S
C89 H90 0.959 . S
C89 H91 0.960 . S
C89 H92 0.961 . S
H90 C89 0.959 . S
H91 C89 0.960 . S
H92 C89 0.961 . S
O93 Co68 1.967 . S
O93 C101 1.258 . S
O94 Co69 1.941 . S
O94 C101 1.266 . S
H95 C97 0.959 . S
H96 C97 0.961 . S
C97 C87 1.510 . S
C97 H95 0.959 . S
C97 H96 0.961 . S
C97 H98 0.960 . S
H98 C97 0.960 . S
H99 N79 0.862 . S
O100 Co68 1.886 1_655 S
O100 C73 1.305 . S
C101 O93 1.258 . S
C101 O94 1.266 . S
Co102 O105 1.970 . S
Co102 N119 1.989 . S
Co102 O127 1.967 . S
Co102 O134 1.886 1_545 S
Co103 O106 1.966 . S
Co103 N112 2.022 . S
Co103 N120 1.993 . S
Co103 O128 1.941 . S
C104 O105 1.258 . S
C104 O106 1.263 . S
O105 Co102 1.970 . S
O105 C104 1.258 . S
O106 Co103 1.966 . S
O106 C104 1.263 . S
C107 O108 1.235 . S
C107 O134 1.305 . S
O108 C107 1.235 . S
C109 C111 1.400 . S
C109 N112 1.351 . S
C109 C114 1.501 . S
C110 C111 1.387 . S
C110 N113 1.341 . S
C111 C109 1.400 . S
C111 C110 1.387 . S
N112 Co103 2.022 . S
N112 C109 1.351 . S
N112 N113 1.365 . S
N113 C110 1.341 . S
N113 N112 1.365 . S
N113 H133 0.862 . S
C114 C109 1.501 . S
C114 H115 0.961 . S
C114 H116 0.961 . S
C114 H117 0.960 . S
H115 C114 0.961 . S
H116 C114 0.961 . S
H117 C114 0.960 . S
C118 N119 1.342 1_565 S
C118 C122 1.406 . S
C118 C123 1.499 . S
N119 Co102 1.989 . S
N119 C118 1.342 1_545 S
N119 N120 1.388 . S
N120 Co103 1.993 . S
N120 N119 1.388 . S
N120 C121 1.346 . S
C121 N120 1.346 . S
C121 C122 1.372 1_545 S
C121 C131 1.510 . S
C122 C118 1.406 . S
C122 C121 1.372 1_565 S
C123 C118 1.499 . S
C123 H124 0.959 . S
C123 H125 0.960 . S
C123 H126 0.961 . S
H124 C123 0.959 . S
H125 C123 0.960 . S
H126 C123 0.961 . S
O127 Co102 1.967 . S
O127 C135 1.258 . S
O128 Co103 1.941 . S
O128 C135 1.266 . S
H129 C131 0.959 . S
H130 C131 0.961 . S
C131 C121 1.510 . S
C131 H129 0.959 . S
C131 H130 0.961 . S
C131 H132 0.960 . S
H132 C131 0.960 . S
H133 N113 0.862 . S
O134 Co102 1.886 1_565 S
O134 C107 1.305 . S
C135 O127 1.258 . S
C135 O128 1.266 . S
Co136 O139 1.970 . S
Co136 N153 1.989 . S
Co136 O161 1.967 . S
Co136 O168 1.920 . S
Co137 O140 1.966 . S
Co137 N146 2.022 . S
Co137 N154 1.993 . S
Co137 O162 1.941 . S
C138 O139 1.258 . S
C138 O140 1.263 . S
O139 Co136 1.970 . S
O139 C138 1.258 . S
O140 Co137 1.966 . S
O140 C138 1.263 . S
C141 O142 1.235 . S
C141 O168 1.289 . S
O142 C141 1.235 . S
C143 C145 1.400 . S
C143 N146 1.351 . S
C143 C148 1.501 . S
C144 C145 1.387 . S
C144 N147 1.341 . S
C145 C143 1.400 . S
C145 C144 1.387 . S
N146 Co137 2.022 . S
N146 C143 1.351 . S
N146 N147 1.365 . S
N147 C144 1.341 . S
N147 N146 1.365 . S
N147 H167 0.862 . S
C148 C143 1.501 . S
C148 H149 0.961 . S
C148 H150 0.961 . S
C148 H151 0.960 1_455 S
H149 C148 0.961 . S
H150 C148 0.961 . S
H151 C148 0.960 1_655 S
C152 N153 1.342 . S
C152 C156 1.401 . S
C152 C157 1.499 . S
N153 Co136 1.989 . S
N153 C152 1.342 . S
N153 N154 1.388 . S
N154 Co137 1.993 . S
N154 N153 1.388 . S
N154 C155 1.346 . S
C155 N154 1.346 . S
C155 C156 1.396 . S
C155 C165 1.510 . S
C156 C152 1.401 . S
C156 C155 1.396 . S
C157 C152 1.499 . S
C157 H158 0.959 . S
C157 H159 0.960 . S
C157 H160 0.961 . S
H158 C157 0.959 . S
H159 C157 0.960 . S
H160 C157 0.961 . S
O161 Co136 1.967 . S
O161 C169 1.258 . S
O162 Co137 1.941 . S
O162 C169 1.266 . S
H163 C165 0.959 . S
H164 C165 0.961 . S
C165 C155 1.510 . S
C165 H163 0.959 . S
C165 H164 0.961 . S
C165 H166 0.960 . S
H166 C165 0.960 . S
H167 N147 0.862 . S
O168 Co136 1.920 . S
O168 C141 1.289 . S
C169 O161 1.258 . S
C169 O162 1.266 . S
Co170 O173 1.970 . S
Co170 N187 1.989 . S
Co170 O195 1.967 . S
Co170 O202 1.920 . S
Co171 O174 1.966 . S
Co171 N180 2.022 . S
Co171 N188 1.993 . S
Co171 O196 1.941 . S
C172 O173 1.258 . S
C172 O174 1.263 . S
O173 Co170 1.970 . S
O173 C172 1.258 . S
O174 Co171 1.966 . S
O174 C172 1.263 . S
C175 O176 1.235 . S
C175 O202 1.289 . S
O176 C175 1.235 . S
C177 C179 1.400 . S
C177 N180 1.351 . S
C177 C182 1.501 . S
C178 C179 1.387 . S
C178 N181 1.341 . S
C179 C177 1.400 . S
C179 C178 1.387 . S
N180 Co171 2.022 . S
N180 C177 1.351 . S
N180 N181 1.365 . S
N181 C178 1.341 . S
N181 N180 1.365 . S
N181 H201 0.862 . S
C182 C177 1.501 . S
C182 H183 0.961 . S
C182 H184 0.961 . S
C182 H185 0.960 1_545 S
H183 C182 0.961 . S
H184 C182 0.961 . S
H185 C182 0.960 1_565 S
C186 N187 1.342 . S
C186 C190 1.401 . S
C186 C191 1.499 . S
N187 Co170 1.989 . S
N187 C186 1.342 . S
N187 N188 1.388 . S
N188 Co171 1.993 . S
N188 N187 1.388 . S
N188 C189 1.346 . S
C189 N188 1.346 . S
C189 C190 1.396 . S
C189 C199 1.510 . S
C190 C186 1.401 . S
C190 C189 1.396 . S
C191 C186 1.499 . S
C191 H192 0.959 . S
C191 H193 0.960 . S
C191 H194 0.961 . S
H192 C191 0.959 . S
H193 C191 0.960 . S
H194 C191 0.961 . S
O195 Co170 1.967 . S
O195 C203 1.258 . S
O196 Co171 1.941 . S
O196 C203 1.266 . S
H197 C199 0.959 . S
H198 C199 0.961 . S
C199 C189 1.510 . S
C199 H197 0.959 . S
C199 H198 0.961 . S
C199 H200 0.960 . S
H200 C199 0.960 . S
H201 N181 0.862 . S
O202 Co170 1.920 . S
O202 C175 1.289 . S
C203 O195 1.258 . S
C203 O196 1.266 . S
Co204 O207 1.970 . S
Co204 N221 1.989 . S
Co204 O229 1.967 . S
Co204 O236 1.886 1_455 S
Co205 O208 1.966 . S
Co205 N214 2.022 . S
Co205 N222 1.993 . S
Co205 O230 1.941 . S
C206 O207 1.258 . S
C206 O208 1.263 . S
O207 Co204 1.970 . S
O207 C206 1.258 . S
O208 Co205 1.966 . S
O208 C206 1.263 . S
C209 O210 1.235 . S
C209 O236 1.305 . S
O210 C209 1.235 . S
C211 C213 1.400 . S
C211 N214 1.351 . S
C211 C216 1.501 . S
C212 C213 1.387 . S
C212 N215 1.341 . S
C213 C211 1.400 . S
C213 C212 1.387 . S
N214 Co205 2.022 . S
N214 C211 1.351 . S
N214 N215 1.365 . S
N215 C212 1.341 . S
N215 N214 1.365 . S
N215 H235 0.862 . S
C216 C211 1.501 . S
C216 H217 0.961 . S
C216 H218 0.961 . S
C216 H219 0.960 . S
H217 C216 0.961 . S
H218 C216 0.961 . S
H219 C216 0.960 . S
C220 N221 1.342 1_655 S
C220 C224 1.406 . S
C220 C225 1.499 . S
N221 Co204 1.989 . S
N221 C220 1.342 1_455 S
N221 N222 1.388 . S
N222 Co205 1.993 . S
N222 N221 1.388 . S
N222 C223 1.346 . S
C223 N222 1.346 . S
C223 C224 1.372 1_455 S
C223 C233 1.510 . S
C224 C220 1.406 . S
C224 C223 1.372 1_655 S
C225 C220 1.499 . S
C225 H226 0.959 . S
C225 H227 0.960 . S
C225 H228 0.961 . S
H226 C225 0.959 . S
H227 C225 0.960 . S
H228 C225 0.961 . S
O229 Co204 1.967 . S
O229 C237 1.258 . S
O230 Co205 1.941 . S
O230 C237 1.266 . S
H231 C233 0.959 . S
H232 C233 0.961 . S
C233 C223 1.510 . S
C233 H231 0.959 . S
C233 H232 0.961 . S
C233 H234 0.960 . S
H234 C233 0.960 . S
H235 N215 0.862 . S
O236 Co204 1.886 1_655 S
O236 C209 1.305 . S
C237 O229 1.258 . S
C237 O230 1.266 . S
Co238 O241 1.970 . S
Co238 N255 1.989 . S
Co238 O263 1.967 . S
Co238 O270 1.886 1_545 S
Co239 O242 1.966 . S
Co239 N248 2.022 . S
Co239 N256 1.993 . S
Co239 O264 1.941 . S
C240 O241 1.258 . S
C240 O242 1.263 . S
O241 Co238 1.970 . S
O241 C240 1.258 . S
O242 Co239 1.966 . S
O242 C240 1.263 . S
C243 O244 1.235 . S
C243 O270 1.305 . S
O244 C243 1.235 . S
C245 C247 1.400 . S
C245 N248 1.351 . S
C245 C250 1.501 . S
C246 C247 1.387 . S
C246 N249 1.341 . S
C247 C245 1.400 . S
C247 C246 1.387 . S
N248 Co239 2.022 . S
N248 C245 1.351 . S
N248 N249 1.365 . S
N249 C246 1.341 . S
N249 N248 1.365 . S
N249 H269 0.862 . S
C250 C245 1.501 . S
C250 H251 0.961 . S
C250 H252 0.961 . S
C250 H253 0.960 . S
H251 C250 0.961 . S
H252 C250 0.961 . S
H253 C250 0.960 . S
C254 N255 1.342 1_565 S
C254 C258 1.406 . S
C254 C259 1.499 . S
N255 Co238 1.989 . S
N255 C254 1.342 1_545 S
N255 N256 1.388 . S
N256 Co239 1.993 . S
N256 N255 1.388 . S
N256 C257 1.346 . S
C257 N256 1.346 . S
C257 C258 1.372 1_545 S
C257 C267 1.510 . S
C258 C254 1.406 . S
C258 C257 1.372 1_565 S
C259 C254 1.499 . S
C259 H260 0.959 . S
C259 H261 0.960 . S
C259 H262 0.961 . S
H260 C259 0.959 . S
H261 C259 0.960 . S
H262 C259 0.961 . S
O263 Co238 1.967 . S
O263 C271 1.258 . S
O264 Co239 1.941 . S
O264 C271 1.266 . S
H265 C267 0.959 . S
H266 C267 0.961 . S
C267 C257 1.510 . S
C267 H265 0.959 . S
C267 H266 0.961 . S
C267 H268 0.960 . S
H268 C267 0.960 . S
H269 N249 0.862 . S
O270 Co238 1.886 1_565 S
O270 C243 1.305 . S
C271 O263 1.258 . S
C271 O264 1.266 . S
Co272 O275 1.970 . S
Co272 N289 1.989 . S
Co272 O297 1.967 . S
Co272 O304 1.920 . S
Co273 O276 1.966 . S
Co273 N282 2.022 . S
Co273 N290 1.993 . S
Co273 O298 1.941 . S
C274 O275 1.258 . S
C274 O276 1.263 . S
O275 Co272 1.970 . S
O275 C274 1.258 . S
O276 Co273 1.966 . S
O276 C274 1.263 . S
C277 O278 1.235 . S
C277 O304 1.289 . S
O278 C277 1.235 . S
C279 C281 1.400 . S
C279 N282 1.351 . S
C279 C284 1.501 . S
C280 C281 1.387 . S
C280 N283 1.341 . S
C281 C279 1.400 . S
C281 C280 1.387 . S
N282 Co273 2.022 . S
N282 C279 1.351 . S
N282 N283 1.365 . S
N283 C280 1.341 . S
N283 N282 1.365 . S
N283 H303 0.862 . S
C284 C279 1.501 . S
C284 H285 0.961 . S
C284 H286 0.961 . S
C284 H287 0.960 . S
H285 C284 0.961 . S
H286 C284 0.961 . S
H287 C284 0.960 . S
C288 N289 1.342 . S
C288 C292 1.401 . S
C288 C293 1.499 . S
N289 Co272 1.989 . S
N289 C288 1.342 . S
N289 N290 1.388 . S
N290 Co273 1.993 . S
N290 N289 1.388 . S
N290 C291 1.346 . S
C291 N290 1.346 . S
C291 C292 1.396 . S
C291 C301 1.510 . S
C292 C288 1.401 . S
C292 C291 1.396 . S
C293 C288 1.499 . S
C293 H294 0.959 . S
C293 H295 0.960 . S
C293 H296 0.961 . S
H294 C293 0.959 . S
H295 C293 0.960 . S
H296 C293 0.961 . S
O297 Co272 1.967 . S
O297 C305 1.258 . S
O298 Co273 1.941 . S
O298 C305 1.266 . S
H299 C301 0.959 . S
H300 C301 0.961 . S
C301 C291 1.510 . S
C301 H299 0.959 . S
C301 H300 0.961 . S
C301 H302 0.960 . S
H302 C301 0.960 . S
H303 N283 0.862 . S
O304 Co272 1.920 . S
O304 C277 1.289 . S
C305 O297 1.258 . S
C305 O298 1.266 . S
Co306 O309 1.970 . S
Co306 N323 1.989 . S
Co306 O331 1.967 . S
Co306 O338 1.920 . S
Co307 O310 1.966 . S
Co307 N316 2.022 . S
Co307 N324 1.993 . S
Co307 O332 1.941 . S
C308 O309 1.258 . S
C308 O310 1.263 . S
O309 Co306 1.970 . S
O309 C308 1.258 . S
O310 Co307 1.966 . S
O310 C308 1.263 . S
C311 O312 1.235 . S
C311 O338 1.289 . S
O312 C311 1.235 . S
C313 C315 1.400 . S
C313 N316 1.351 . S
C313 C318 1.501 . S
C314 C315 1.387 . S
C314 N317 1.341 . S
C315 C313 1.400 . S
C315 C314 1.387 . S
N316 Co307 2.022 . S
N316 C313 1.351 . S
N316 N317 1.365 . S
N317 C314 1.341 . S
N317 N316 1.365 . S
N317 H337 0.862 . S
C318 C313 1.501 . S
C318 H319 0.961 . S
C318 H320 0.961 . S
C318 H321 0.960 . S
H319 C318 0.961 . S
H320 C318 0.961 . S
H321 C318 0.960 . S
C322 N323 1.342 . S
C322 C326 1.401 . S
C322 C327 1.499 . S
N323 Co306 1.989 . S
N323 C322 1.342 . S
N323 N324 1.388 . S
N324 Co307 1.993 . S
N324 N323 1.388 . S
N324 C325 1.346 . S
C325 N324 1.346 . S
C325 C326 1.396 . S
C325 C335 1.510 . S
C326 C322 1.401 . S
C326 C325 1.396 . S
C327 C322 1.499 . S
C327 H328 0.959 . S
C327 H329 0.960 . S
C327 H330 0.961 . S
H328 C327 0.959 . S
H329 C327 0.960 . S
H330 C327 0.961 . S
O331 Co306 1.967 . S
O331 C339 1.258 . S
O332 Co307 1.941 . S
O332 C339 1.266 . S
H333 C335 0.959 . S
H334 C335 0.961 . S
C335 C325 1.510 . S
C335 H333 0.959 . S
C335 H334 0.961 . S
C335 H336 0.960 . S
H336 C335 0.960 . S
H337 N317 0.862 . S
O338 Co306 1.920 . S
O338 C311 1.289 . S
C339 O331 1.258 . S
C339 O332 1.266 . S
Co340 O343 1.970 . S
Co340 N357 1.989 . S
Co340 O365 1.967 . S
Co340 O372 1.920 . S
Co341 O344 1.966 . S
Co341 N350 2.022 . S
Co341 N358 1.993 . S
Co341 O366 1.941 . S
C342 O343 1.258 . S
C342 O344 1.263 . S
O343 Co340 1.970 . S
O343 C342 1.258 . S
O344 Co341 1.966 . S
O344 C342 1.263 . S
C345 O346 1.235 . S
C345 O372 1.289 . S
O346 C345 1.235 . S
C347 C349 1.400 . S
C347 N350 1.351 . S
C347 C352 1.501 . S
C348 C349 1.387 . S
C348 N351 1.341 . S
C349 C347 1.400 . S
C349 C348 1.387 . S
N350 Co341 2.022 . S
N350 C347 1.351 . S
N350 N351 1.365 . S
N351 C348 1.341 . S
N351 N350 1.365 . S
N351 H371 0.862 . S
C352 C347 1.501 . S
C352 H353 0.961 . S
C352 H354 0.961 . S
C352 H355 0.960 . S
H353 C352 0.961 . S
H354 C352 0.961 . S
H355 C352 0.960 . S
C356 N357 1.342 . S
C356 C360 1.401 . S
C356 C361 1.499 . S
N357 Co340 1.989 . S
N357 C356 1.342 . S
N357 N358 1.388 . S
N358 Co341 1.993 . S
N358 N357 1.388 . S
N358 C359 1.346 . S
C359 N358 1.346 . S
C359 C360 1.396 . S
C359 C369 1.510 . S
C360 C356 1.401 . S
C360 C359 1.396 . S
C361 C356 1.499 . S
C361 H362 0.959 . S
C361 H363 0.960 . S
C361 H364 0.961 . S
H362 C361 0.959 . S
H363 C361 0.960 . S
H364 C361 0.961 . S
O365 Co340 1.967 . S
O365 C373 1.258 . S
O366 Co341 1.941 . S
O366 C373 1.266 . S
H367 C369 0.959 . S
H368 C369 0.961 . S
C369 C359 1.510 . S
C369 H367 0.959 . S
C369 H368 0.961 . S
C369 H370 0.960 . S
H370 C369 0.960 . S
H371 N351 0.862 . S
O372 Co340 1.920 . S
O372 C345 1.289 . S
C373 O365 1.258 . S
C373 O366 1.266 . S
Co374 O377 1.970 . S
Co374 N391 1.989 . S
Co374 O399 1.967 . S
Co374 O406 1.920 . S
Co375 O378 1.966 . S
Co375 N384 2.022 . S
Co375 N392 1.993 . S
Co375 O400 1.941 . S
C376 O377 1.258 . S
C376 O378 1.263 . S
O377 Co374 1.970 . S
O377 C376 1.258 . S
O378 Co375 1.966 . S
O378 C376 1.263 . S
C379 O380 1.235 . S
C379 O406 1.289 . S
O380 C379 1.235 . S
C381 C383 1.400 . S
C381 N384 1.351 . S
C381 C386 1.501 . S
C382 C383 1.387 . S
C382 N385 1.341 . S
C383 C381 1.400 . S
C383 C382 1.387 . S
N384 Co375 2.022 . S
N384 C381 1.351 . S
N384 N385 1.365 . S
N385 C382 1.341 . S
N385 N384 1.365 . S
N385 H405 0.862 . S
C386 C381 1.501 . S
C386 H387 0.961 . S
C386 H388 0.961 . S
C386 H389 0.960 . S
H387 C386 0.961 . S
H388 C386 0.961 . S
H389 C386 0.960 . S
C390 N391 1.342 . S
C390 C394 1.401 . S
C390 C395 1.499 . S
N391 Co374 1.989 . S
N391 C390 1.342 . S
N391 N392 1.388 . S
N392 Co375 1.993 . S
N392 N391 1.388 . S
N392 C393 1.346 . S
C393 N392 1.346 . S
C393 C394 1.396 . S
C393 C403 1.510 . S
C394 C390 1.401 . S
C394 C393 1.396 . S
C395 C390 1.499 . S
C395 H396 0.959 . S
C395 H397 0.960 . S
C395 H398 0.961 . S
H396 C395 0.959 . S
H397 C395 0.960 . S
H398 C395 0.961 . S
O399 Co374 1.967 . S
O399 C407 1.258 . S
O400 Co375 1.941 . S
O400 C407 1.266 . S
H401 C403 0.959 . S
H402 C403 0.961 . S
C403 C393 1.510 . S
C403 H401 0.959 . S
C403 H402 0.961 . S
C403 H404 0.960 . S
H404 C403 0.960 . S
H405 N385 0.862 . S
O406 Co374 1.920 . S
O406 C379 1.289 . S
C407 O399 1.258 . S
C407 O400 1.266 . S
Co408 O411 1.970 . S
Co408 N425 1.989 . S
Co408 O433 1.967 . S
Co408 O440 1.920 . S
Co409 O412 1.966 . S
Co409 N418 2.022 . S
Co409 N426 1.993 . S
Co409 O434 1.941 . S
C410 O411 1.258 . S
C410 O412 1.263 . S
O411 Co408 1.970 . S
O411 C410 1.258 . S
O412 Co409 1.966 . S
O412 C410 1.263 . S
C413 O414 1.235 . S
C413 O440 1.289 . S
O414 C413 1.235 . S
C415 C417 1.400 . S
C415 N418 1.351 . S
C415 C420 1.501 . S
C416 C417 1.387 . S
C416 N419 1.341 . S
C417 C415 1.400 . S
C417 C416 1.387 . S
N418 Co409 2.022 . S
N418 C415 1.351 . S
N418 N419 1.365 . S
N419 C416 1.341 . S
N419 N418 1.365 . S
N419 H439 0.862 . S
C420 C415 1.501 . S
C420 H421 0.961 . S
C420 H422 0.961 . S
C420 H423 0.960 . S
H421 C420 0.961 . S
H422 C420 0.961 . S
H423 C420 0.960 . S
C424 N425 1.342 . S
C424 C428 1.401 . S
C424 C429 1.499 . S
N425 Co408 1.989 . S
N425 C424 1.342 . S
N425 N426 1.388 . S
N426 Co409 1.993 . S
N426 N425 1.388 . S
N426 C427 1.346 . S
C427 N426 1.346 . S
C427 C428 1.396 . S
C427 C437 1.510 . S
C428 C424 1.401 . S
C428 C427 1.396 . S
C429 C424 1.499 . S
C429 H430 0.959 . S
C429 H431 0.960 . S
C429 H432 0.961 . S
H430 C429 0.959 . S
H431 C429 0.960 . S
H432 C429 0.961 . S
O433 Co408 1.967 . S
O433 C441 1.258 . S
O434 Co409 1.941 . S
O434 C441 1.266 . S
H435 C437 0.959 . S
H436 C437 0.961 . S
C437 C427 1.510 . S
C437 H435 0.959 . S
C437 H436 0.961 . S
C437 H438 0.960 . S
H438 C437 0.960 . S
H439 N419 0.862 . S
O440 Co408 1.920 . S
O440 C413 1.289 . S
C441 O433 1.258 . S
C441 O434 1.266 . S
Co442 O445 1.970 . S
Co442 N459 1.989 . S
Co442 O467 1.967 . S
Co442 O474 1.920 . S
Co443 O446 1.966 . S
Co443 N452 2.022 . S
Co443 N460 1.993 . S
Co443 O468 1.941 . S
C444 O445 1.258 . S
C444 O446 1.263 . S
O445 Co442 1.970 . S
O445 C444 1.258 . S
O446 Co443 1.966 . S
O446 C444 1.263 . S
C447 O448 1.235 . S
C447 O474 1.289 . S
O448 C447 1.235 . S
C449 C451 1.400 . S
C449 N452 1.351 . S
C449 C454 1.501 . S
C450 C451 1.387 . S
C450 N453 1.341 . S
C451 C449 1.400 . S
C451 C450 1.387 . S
N452 Co443 2.022 . S
N452 C449 1.351 . S
N452 N453 1.365 . S
N453 C450 1.341 . S
N453 N452 1.365 . S
N453 H473 0.862 . S
C454 C449 1.501 . S
C454 H455 0.961 . S
C454 H456 0.961 . S
C454 H457 0.960 . S
H455 C454 0.961 . S
H456 C454 0.961 . S
H457 C454 0.960 . S
C458 N459 1.342 . S
C458 C462 1.401 . S
C458 C463 1.499 . S
N459 Co442 1.989 . S
N459 C458 1.342 . S
N459 N460 1.388 . S
N460 Co443 1.993 . S
N460 N459 1.388 . S
N460 C461 1.346 . S
C461 N460 1.346 . S
C461 C462 1.396 . S
C461 C471 1.510 . S
C462 C458 1.401 . S
C462 C461 1.396 . S
C463 C458 1.499 . S
C463 H464 0.959 . S
C463 H465 0.960 . S
C463 H466 0.961 . S
H464 C463 0.959 . S
H465 C463 0.960 . S
H466 C463 0.961 . S
O467 Co442 1.967 . S
O467 C475 1.258 . S
O468 Co443 1.941 . S
O468 C475 1.266 . S
H469 C471 0.959 . S
H470 C471 0.961 . S
C471 C461 1.510 . S
C471 H469 0.959 . S
C471 H470 0.961 . S
C471 H472 0.960 . S
H472 C471 0.960 . S
H473 N453 0.862 . S
O474 Co442 1.920 . S
O474 C447 1.289 . S
C475 O467 1.258 . S
C475 O468 1.266 . S
Co476 O479 1.970 . S
Co476 N493 1.989 . S
Co476 O501 1.967 . S
Co476 O508 1.920 . S
Co477 O480 1.966 . S
Co477 N486 2.022 . S
Co477 N494 1.993 . S
Co477 O502 1.941 . S
C478 O479 1.258 . S
C478 O480 1.263 . S
O479 Co476 1.970 . S
O479 C478 1.258 . S
O480 Co477 1.966 . S
O480 C478 1.263 . S
C481 O482 1.235 . S
C481 O508 1.289 . S
O482 C481 1.235 . S
C483 C485 1.400 . S
C483 N486 1.351 . S
C483 C488 1.501 . S
C484 C485 1.387 . S
C484 N487 1.341 . S
C485 C483 1.400 . S
C485 C484 1.387 . S
N486 Co477 2.022 . S
N486 C483 1.351 . S
N486 N487 1.365 . S
N487 C484 1.341 . S
N487 N486 1.365 . S
N487 H507 0.862 . S
C488 C483 1.501 . S
C488 H489 0.961 . S
C488 H490 0.961 . S
C488 H491 0.960 . S
H489 C488 0.961 . S
H490 C488 0.961 . S
H491 C488 0.960 . S
C492 N493 1.342 . S
C492 C496 1.401 . S
C492 C497 1.499 . S
N493 Co476 1.989 . S
N493 C492 1.342 . S
N493 N494 1.388 . S
N494 Co477 1.993 . S
N494 N493 1.388 . S
N494 C495 1.346 . S
C495 N494 1.346 . S
C495 C496 1.396 . S
C495 C505 1.510 . S
C496 C492 1.401 . S
C496 C495 1.396 . S
C497 C492 1.499 . S
C497 H498 0.959 . S
C497 H499 0.960 . S
C497 H500 0.961 . S
H498 C497 0.959 . S
H499 C497 0.960 . S
H500 C497 0.961 . S
O501 Co476 1.967 . S
O501 C509 1.258 . S
O502 Co477 1.941 . S
O502 C509 1.266 . S
H503 C505 0.959 . S
H504 C505 0.961 . S
C505 C495 1.510 . S
C505 H503 0.959 . S
C505 H504 0.961 . S
C505 H506 0.960 . S
H506 C505 0.960 . S
H507 N487 0.862 . S
O508 Co476 1.920 . S
O508 C481 1.289 . S
C509 O501 1.258 . S
C509 O502 1.266 . S
Co510 O513 1.970 . S
Co510 N527 1.989 . S
Co510 O535 1.967 . S
Co510 O542 1.920 . S
Co511 O514 1.966 . S
Co511 N520 2.022 . S
Co511 N528 1.993 . S
Co511 O536 1.941 . S
C512 O513 1.258 . S
C512 O514 1.263 . S
O513 Co510 1.970 . S
O513 C512 1.258 . S
O514 Co511 1.966 . S
O514 C512 1.263 . S
C515 O516 1.235 . S
C515 O542 1.289 . S
O516 C515 1.235 . S
C517 C519 1.400 . S
C517 N520 1.351 . S
C517 C522 1.501 . S
C518 C519 1.387 . S
C518 N521 1.341 . S
C519 C517 1.400 . S
C519 C518 1.387 . S
N520 Co511 2.022 . S
N520 C517 1.351 . S
N520 N521 1.365 . S
N521 C518 1.341 . S
N521 N520 1.365 . S
N521 H541 0.862 . S
C522 C517 1.501 . S
C522 H523 0.961 . S
C522 H524 0.961 . S
C522 H525 0.960 . S
H523 C522 0.961 . S
H524 C522 0.961 . S
H525 C522 0.960 . S
C526 N527 1.342 . S
C526 C530 1.401 . S
C526 C531 1.499 . S
N527 Co510 1.989 . S
N527 C526 1.342 . S
N527 N528 1.388 . S
N528 Co511 1.993 . S
N528 N527 1.388 . S
N528 C529 1.346 . S
C529 N528 1.346 . S
C529 C530 1.396 . S
C529 C539 1.510 . S
C530 C526 1.401 . S
C530 C529 1.396 . S
C531 C526 1.499 . S
C531 H532 0.959 . S
C531 H533 0.960 . S
C531 H534 0.961 . S
H532 C531 0.959 . S
H533 C531 0.960 . S
H534 C531 0.961 . S
O535 Co510 1.967 . S
O535 C543 1.258 . S
O536 Co511 1.941 . S
O536 C543 1.266 . S
H537 C539 0.959 . S
H538 C539 0.961 . S
C539 C529 1.510 . S
C539 H537 0.959 . S
C539 H538 0.961 . S
C539 H540 0.960 . S
H540 C539 0.960 . S
H541 N521 0.862 . S
O542 Co510 1.920 . S
O542 C515 1.289 . S
C543 O535 1.258 . S
C543 O536 1.266 . S
C544 C545 1.349 . S
C544 C546 1.327 . S
C544 H569 0.950 . S
C545 C544 1.349 . S
C545 C561 1.349 . S
C546 C544 1.327 . S
C546 C565 1.429 . S
C546 H570 0.950 . S
C547 C564 1.574 . S
C547 C566 1.368 . S
C547 H571 0.949 . S
H548 C552 0.949 . S
C549 C550 1.349 . S
C549 C551 1.327 . S
C549 H572 0.950 . S
C550 C549 1.349 . S
C550 C562 1.349 . S
C551 C549 1.327 . S
C551 C567 1.429 . S
C551 H573 0.950 . S
C552 H548 0.949 . S
C552 C560 1.574 . S
C552 C568 1.368 . S
H553 C561 0.950 . S
H554 C559 0.950 . S
H555 C560 0.949 . S
H556 C562 0.950 . S
H557 C563 0.950 . S
H558 C564 0.949 . S
C559 H554 0.950 . S
C559 C561 1.327 . S
C559 C565 1.429 . S
C560 C552 1.574 . S
C560 H555 0.949 . S
C560 C566 1.368 . S
C561 C545 1.349 . S
C561 H553 0.950 . S
C561 C559 1.327 . S
C562 C550 1.349 . S
C562 H556 0.950 . S
C562 C563 1.327 . S
C563 H557 0.950 . S
C563 C562 1.327 . S
C563 C567 1.429 . S
C564 C547 1.574 . S
C564 H558 0.949 . S
C564 C568 1.368 . S
C565 C546 1.429 . S
C565 C559 1.429 . S
C565 C566 1.523 . S
C566 C547 1.368 . S
C566 C560 1.368 . S
C566 C565 1.523 . S
C567 C551 1.429 . S
C567 C563 1.429 . S
C567 C568 1.523 . S
C568 C552 1.368 . S
C568 C564 1.368 . S
C568 C567 1.523 . S
H569 C544 0.950 . S
H570 C546 0.950 . S
H571 C547 0.949 . S
H572 C549 0.950 . S
H573 C551 0.950 . S
C574 C575 1.349 . S
C574 C576 1.327 . S
C574 H599 0.950 . S
C575 C574 1.349 . S
C575 C591 1.349 . S
C576 C574 1.327 . S
C576 C595 1.429 . S
C576 H600 0.950 . S
C577 C594 1.574 . S
C577 C596 1.368 . S
C577 H601 0.949 . S
H578 C582 0.949 . S
C579 C580 1.349 . S
C579 C581 1.327 . S
C579 H602 0.950 . S
C580 C579 1.349 . S
C580 C592 1.349 . S
C581 C579 1.327 . S
C581 C597 1.429 . S
C581 H603 0.950 . S
C582 H578 0.949 . S
C582 C590 1.574 . S
C582 C598 1.368 . S
H583 C591 0.950 . S
H584 C589 0.950 . S
H585 C590 0.949 . S
H586 C592 0.950 . S
H587 C593 0.950 . S
H588 C594 0.949 . S
C589 H584 0.950 . S
C589 C591 1.327 . S
C589 C595 1.429 . S
C590 C582 1.574 . S
C590 H585 0.949 . S
C590 C596 1.368 . S
C591 C575 1.349 . S
C591 H583 0.950 . S
C591 C589 1.327 . S
C592 C580 1.349 . S
C592 H586 0.950 . S
C592 C593 1.327 . S
C593 H587 0.950 . S
C593 C592 1.327 . S
C593 C597 1.429 . S
C594 C577 1.574 . S
C594 H588 0.949 . S
C594 C598 1.368 . S
C595 C576 1.429 . S
C595 C589 1.429 . S
C595 C596 1.523 . S
C596 C577 1.368 . S
C596 C590 1.368 . S
C596 C595 1.523 . S
C597 C581 1.429 . S
C597 C593 1.429 . S
C597 C598 1.523 . S
C598 C582 1.368 . S
C598 C594 1.368 . S
C598 C597 1.523 . S
H599 C574 0.950 . S
H600 C576 0.950 . S
H601 C577 0.949 . S
H602 C579 0.950 . S
H603 C581 0.950 . S
C604 C605 1.349 . S
C604 C606 1.327 . S
C604 H629 0.950 . S
C605 C604 1.349 . S
C605 C621 1.349 . S
C606 C604 1.327 . S
C606 C625 1.429 . S
C606 H630 0.950 . S
C607 C624 1.574 . S
C607 C626 1.368 . S
C607 H631 0.949 . S
H608 C612 0.949 . S
C609 C610 1.349 . S
C609 C611 1.327 . S
C609 H632 0.950 . S
C610 C609 1.349 . S
C610 C622 1.349 . S
C611 C609 1.327 . S
C611 C627 1.429 . S
C611 H633 0.950 . S
C612 H608 0.949 . S
C612 C620 1.574 . S
C612 C628 1.368 . S
H613 C621 0.950 . S
H614 C619 0.950 . S
H615 C620 0.949 . S
H616 C622 0.950 . S
H617 C623 0.950 . S
H618 C624 0.949 . S
C619 H614 0.950 . S
C619 C621 1.327 . S
C619 C625 1.429 . S
C620 C612 1.574 . S
C620 H615 0.949 . S
C620 C626 1.368 . S
C621 C605 1.349 . S
C621 H613 0.950 . S
C621 C619 1.327 . S
C622 C610 1.349 . S
C622 H616 0.950 . S
C622 C623 1.327 . S
C623 H617 0.950 . S
C623 C622 1.327 . S
C623 C627 1.429 . S
C624 C607 1.574 . S
C624 H618 0.949 . S
C624 C628 1.368 . S
C625 C606 1.429 . S
C625 C619 1.429 . S
C625 C626 1.523 . S
C626 C607 1.368 . S
C626 C620 1.368 . S
C626 C625 1.523 . S
C627 C611 1.429 . S
C627 C623 1.429 . S
C627 C628 1.523 . S
C628 C612 1.368 . S
C628 C624 1.368 . S
C628 C627 1.523 . S
H629 C604 0.950 . S
H630 C606 0.950 . S
H631 C607 0.949 . S
H632 C609 0.950 . S
H633 C611 0.950 . S
C634 C635 1.349 . S
C634 C636 1.327 . S
C634 H659 0.950 . S
C635 C634 1.349 . S
C635 C651 1.349 . S
C636 C634 1.327 . S
C636 C655 1.429 . S
C636 H660 0.950 . S
C637 C654 1.574 . S
C637 C656 1.368 . S
C637 H661 0.949 . S
H638 C642 0.949 . S
C639 C640 1.349 . S
C639 C641 1.327 . S
C639 H662 0.950 . S
C640 C639 1.349 . S
C640 C652 1.349 . S
C641 C639 1.327 . S
C641 C657 1.429 . S
C641 H663 0.950 . S
C642 H638 0.949 . S
C642 C650 1.574 . S
C642 C658 1.368 . S
H643 C651 0.950 . S
H644 C649 0.950 . S
H645 C650 0.949 . S
H646 C652 0.950 . S
H647 C653 0.950 . S
H648 C654 0.949 . S
C649 H644 0.950 . S
C649 C651 1.327 . S
C649 C655 1.429 . S
C650 C642 1.574 . S
C650 H645 0.949 . S
C650 C656 1.368 . S
C651 C635 1.349 . S
C651 H643 0.950 . S
C651 C649 1.327 . S
C652 C640 1.349 . S
C652 H646 0.950 . S
C652 C653 1.327 . S
C653 H647 0.950 . S
C653 C652 1.327 . S
C653 C657 1.429 . S
C654 C637 1.574 . S
C654 H648 0.949 . S
C654 C658 1.368 . S
C655 C636 1.429 . S
C655 C649 1.429 . S
C655 C656 1.523 . S
C656 C637 1.368 . S
C656 C650 1.368 . S
C656 C655 1.523 . S
C657 C641 1.429 . S
C657 C653 1.429 . S
C657 C658 1.523 . S
C658 C642 1.368 . S
C658 C654 1.368 . S
C658 C657 1.523 . S
H659 C634 0.950 . S
H660 C636 0.950 . S
H661 C637 0.949 . S
H662 C639 0.950 . S
H663 C641 0.950 . S
C664 C665 1.349 . S
C664 C666 1.327 . S
C664 H689 0.950 . S
C665 C664 1.349 . S
C665 C681 1.349 . S
C666 C664 1.327 . S
C666 C685 1.429 . S
C666 H690 0.950 . S
C667 C684 1.574 1_556 S
C667 C686 1.368 . S
C667 H691 0.949 . S
H668 C672 0.949 . S
C669 C670 1.349 . S
C669 C671 1.327 . S
C669 H692 0.950 . S
C670 C669 1.349 . S
C670 C682 1.349 . S
C671 C669 1.327 . S
C671 C687 1.429 . S
C671 H693 0.950 . S
C672 H668 0.949 . S
C672 C680 1.574 1_554 S
C672 C688 1.368 . S
H673 C681 0.950 . S
H674 C679 0.950 . S
H675 C680 0.949 . S
H676 C682 0.950 . S
H677 C683 0.950 . S
H678 C684 0.949 . S
C679 H674 0.950 . S
C679 C681 1.327 . S
C679 C685 1.429 . S
C680 C672 1.574 1_556 S
C680 H675 0.949 . S
C680 C686 1.368 . S
C681 C665 1.349 . S
C681 H673 0.950 . S
C681 C679 1.327 . S
C682 C670 1.349 . S
C682 H676 0.950 . S
C682 C683 1.327 . S
C683 H677 0.950 . S
C683 C682 1.327 . S
C683 C687 1.429 . S
C684 C667 1.574 1_554 S
C684 H678 0.949 . S
C684 C688 1.368 . S
C685 C666 1.429 . S
C685 C679 1.429 . S
C685 C686 1.523 . S
C686 C667 1.368 . S
C686 C680 1.368 . S
C686 C685 1.523 . S
C687 C671 1.429 . S
C687 C683 1.429 . S
C687 C688 1.523 . S
C688 C672 1.368 . S
C688 C684 1.368 . S
C688 C687 1.523 . S
H689 C664 0.950 . S
H690 C666 0.950 . S
H691 C667 0.949 . S
H692 C669 0.950 . S
H693 C671 0.950 . S
C694 C695 1.349 . S
C694 C696 1.327 . S
C694 H719 0.950 . S
C695 C694 1.349 . S
C695 C711 1.349 . S
C696 C694 1.327 . S
C696 C715 1.429 . S
C696 H720 0.950 . S
C697 C714 1.574 1_556 S
C697 C716 1.368 . S
C697 H721 0.949 . S
H698 C702 0.949 . S
C699 C700 1.349 . S
C699 C701 1.327 . S
C699 H722 0.950 . S
C700 C699 1.349 . S
C700 C712 1.349 . S
C701 C699 1.327 . S
C701 C717 1.429 . S
C701 H723 0.950 . S
C702 H698 0.949 . S
C702 C710 1.574 1_554 S
C702 C718 1.368 . S
H703 C711 0.950 . S
H704 C709 0.950 . S
H705 C710 0.949 . S
H706 C712 0.950 . S
H707 C713 0.950 . S
H708 C714 0.949 . S
C709 H704 0.950 . S
C709 C711 1.327 . S
C709 C715 1.429 . S
C710 C702 1.574 1_556 S
C710 H705 0.949 . S
C710 C716 1.368 . S
C711 C695 1.349 . S
C711 H703 0.950 . S
C711 C709 1.327 . S
C712 C700 1.349 . S
C712 H706 0.950 . S
C712 C713 1.327 . S
C713 H707 0.950 . S
C713 C712 1.327 . S
C713 C717 1.429 . S
C714 C697 1.574 1_554 S
C714 H708 0.949 . S
C714 C718 1.368 . S
C715 C696 1.429 . S
C715 C709 1.429 . S
C715 C716 1.523 . S
C716 C697 1.368 . S
C716 C710 1.368 . S
C716 C715 1.523 . S
C717 C701 1.429 . S
C717 C713 1.429 . S
C717 C718 1.523 . S
C718 C702 1.368 . S
C718 C714 1.368 . S
C718 C717 1.523 . S
H719 C694 0.950 . S
H720 C696 0.950 . S
H721 C697 0.949 . S
H722 C699 0.950 . S
H723 C701 0.950 . S
C724 C725 1.349 . S
C724 C726 1.327 . S
C724 H749 0.950 . S
C725 C724 1.349 . S
C725 C741 1.349 . S
C726 C724 1.327 . S
C726 C745 1.429 . S
C726 H750 0.950 . S
C727 C744 1.574 1_556 S
C727 C746 1.368 . S
C727 H751 0.949 . S
H728 C732 0.949 . S
C729 C730 1.349 . S
C729 C731 1.327 . S
C729 H752 0.950 . S
C730 C729 1.349 . S
C730 C742 1.349 . S
C731 C729 1.327 . S
C731 C747 1.429 . S
C731 H753 0.950 . S
C732 H728 0.949 . S
C732 C740 1.574 1_554 S
C732 C748 1.368 . S
H733 C741 0.950 . S
H734 C739 0.950 . S
H735 C740 0.949 . S
H736 C742 0.950 . S
H737 C743 0.950 . S
H738 C744 0.949 . S
C739 H734 0.950 . S
C739 C741 1.327 . S
C739 C745 1.429 . S
C740 C732 1.574 1_556 S
C740 H735 0.949 . S
C740 C746 1.368 . S
C741 C725 1.349 . S
C741 H733 0.950 . S
C741 C739 1.327 . S
C742 C730 1.349 . S
C742 H736 0.950 . S
C742 C743 1.327 . S
C743 H737 0.950 . S
C743 C742 1.327 . S
C743 C747 1.429 . S
C744 C727 1.574 1_554 S
C744 H738 0.949 . S
C744 C748 1.368 . S
C745 C726 1.429 . S
C745 C739 1.429 . S
C745 C746 1.523 . S
C746 C727 1.368 . S
C746 C740 1.368 . S
C746 C745 1.523 . S
C747 C731 1.429 . S
C747 C743 1.429 . S
C747 C748 1.523 . S
C748 C732 1.368 . S
C748 C744 1.368 . S
C748 C747 1.523 . S
H749 C724 0.950 . S
H750 C726 0.950 . S
H751 C727 0.949 . S
H752 C729 0.950 . S
H753 C731 0.950 . S
C754 C755 1.349 . S
C754 C756 1.327 . S
C754 H779 0.950 . S
C755 C754 1.349 . S
C755 C771 1.349 . S
C756 C754 1.327 . S
C756 C775 1.429 . S
C756 H780 0.950 . S
C757 C774 1.574 1_554 S
C757 C776 1.368 . S
C757 H781 0.949 . S
H758 C762 0.949 . S
C759 C760 1.349 . S
C759 C761 1.327 . S
C759 H782 0.950 . S
C760 C759 1.349 . S
C760 C772 1.349 . S
C761 C759 1.327 . S
C761 C777 1.429 . S
C761 H783 0.950 . S
C762 H758 0.949 . S
C762 C770 1.574 1_556 S
C762 C778 1.368 . S
H763 C771 0.950 . S
H764 C769 0.950 . S
H765 C770 0.949 . S
H766 C772 0.950 . S
H767 C773 0.950 . S
H768 C774 0.949 . S
C769 H764 0.950 . S
C769 C771 1.327 . S
C769 C775 1.429 . S
C770 C762 1.574 1_554 S
C770 H765 0.949 . S
C770 C776 1.368 . S
C771 C755 1.349 . S
C771 H763 0.950 . S
C771 C769 1.327 . S
C772 C760 1.349 . S
C772 H766 0.950 . S
C772 C773 1.327 . S
C773 H767 0.950 . S
C773 C772 1.327 . S
C773 C777 1.429 . S
C774 C757 1.574 1_556 S
C774 H768 0.949 . S
C774 C778 1.368 . S
C775 C756 1.429 . S
C775 C769 1.429 . S
C775 C776 1.523 . S
C776 C757 1.368 . S
C776 C770 1.368 . S
C776 C775 1.523 . S
C777 C761 1.429 . S
C777 C773 1.429 . S
C777 C778 1.523 . S
C778 C762 1.368 . S
C778 C774 1.368 . S
C778 C777 1.523 . S
H779 C754 0.950 . S
H780 C756 0.950 . S
H781 C757 0.949 . S
H782 C759 0.950 . S
H783 C761 0.950 . S
C784 C785 1.349 . S
C784 C786 1.327 . S
C784 H809 0.950 . S
C785 C784 1.349 . S
C785 C801 1.349 . S
C786 C784 1.327 . S
C786 C805 1.429 . S
C786 H810 0.950 . S
C787 C804 1.574 . S
C787 C806 1.368 . S
C787 H811 0.949 . S
H788 C792 0.949 . S
C789 C790 1.349 . S
C789 C791 1.327 . S
C789 H812 0.950 . S
C790 C789 1.349 . S
C790 C802 1.349 . S
C791 C789 1.327 . S
C791 C807 1.429 . S
C791 H813 0.950 . S
C792 H788 0.949 . S
C792 C800 1.574 . S
C792 C808 1.368 . S
H793 C801 0.950 . S
H794 C799 0.950 . S
H795 C800 0.949 . S
H796 C802 0.950 . S
H797 C803 0.950 . S
H798 C804 0.949 . S
C799 H794 0.950 . S
C799 C801 1.327 . S
C799 C805 1.429 . S
C800 C792 1.574 . S
C800 H795 0.949 . S
C800 C806 1.368 . S
C801 C785 1.349 . S
C801 H793 0.950 . S
C801 C799 1.327 . S
C802 C790 1.349 . S
C802 H796 0.950 . S
C802 C803 1.327 . S
C803 H797 0.950 . S
C803 C802 1.327 . S
C803 C807 1.429 . S
C804 C787 1.574 . S
C804 H798 0.949 . S
C804 C808 1.368 . S
C805 C786 1.429 . S
C805 C799 1.429 . S
C805 C806 1.523 . S
C806 C787 1.368 . S
C806 C800 1.368 . S
C806 C805 1.523 . S
C807 C791 1.429 . S
C807 C803 1.429 . S
C807 C808 1.523 . S
C808 C792 1.368 . S
C808 C804 1.368 . S
C808 C807 1.523 . S
H809 C784 0.950 . S
H810 C786 0.950 . S
H811 C787 0.949 . S
H812 C789 0.950 . S
H813 C791 0.950 . S
C814 C815 1.349 . S
C814 C816 1.327 . S
C814 H839 0.950 . S
C815 C814 1.349 . S
C815 C831 1.349 . S
C816 C814 1.327 . S
C816 C835 1.429 . S
C816 H840 0.950 . S
C817 C834 1.574 . S
C817 C836 1.368 . S
C817 H841 0.949 . S
H818 C822 0.949 . S
C819 C820 1.349 . S
C819 C821 1.327 . S
C819 H842 0.950 . S
C820 C819 1.349 . S
C820 C832 1.349 . S
C821 C819 1.327 . S
C821 C837 1.429 1_455 S
C821 H843 0.950 . S
C822 H818 0.949 . S
C822 C830 1.574 . S
C822 C838 1.368 . S
H823 C831 0.950 . S
H824 C829 0.950 . S
H825 C830 0.949 . S
H826 C832 0.950 . S
H827 C833 0.950 . S
H828 C834 0.949 . S
C829 H824 0.950 . S
C829 C831 1.327 . S
C829 C835 1.429 . S
C830 C822 1.574 . S
C830 H825 0.949 . S
C830 C836 1.368 . S
C831 C815 1.349 . S
C831 H823 0.950 . S
C831 C829 1.327 . S
C832 C820 1.349 . S
C832 H826 0.950 . S
C832 C833 1.327 1_455 S
C833 H827 0.950 . S
C833 C832 1.327 1_655 S
C833 C837 1.429 . S
C834 C817 1.574 . S
C834 H828 0.949 . S
C834 C838 1.368 . S
C835 C816 1.429 . S
C835 C829 1.429 . S
C835 C836 1.523 . S
C836 C817 1.368 . S
C836 C830 1.368 . S
C836 C835 1.523 . S
C837 C821 1.429 1_655 S
C837 C833 1.429 . S
C837 C838 1.523 . S
C838 C822 1.368 . S
C838 C834 1.368 . S
C838 C837 1.523 . S
H839 C814 0.950 . S
H840 C816 0.950 . S
H841 C817 0.949 . S
H842 C819 0.950 . S
H843 C821 0.950 . S
C844 C845 1.349 . S
C844 C846 1.327 1_545 S
C844 H869 0.950 . S
C845 C844 1.349 . S
C845 C861 1.349 . S
C846 C844 1.327 1_565 S
C846 C865 1.429 . S
C846 H870 0.950 . S
C847 C864 1.574 . S
C847 C866 1.368 . S
C847 H871 0.949 . S
H848 C852 0.949 . S
C849 C850 1.349 . S
C849 C851 1.327 . S
C849 H872 0.950 . S
C850 C849 1.349 . S
C850 C862 1.349 . S
C851 C849 1.327 . S
C851 C867 1.429 . S
C851 H873 0.950 . S
C852 H848 0.949 . S
C852 C860 1.574 . S
C852 C868 1.368 . S
H853 C861 0.950 . S
H854 C859 0.950 . S
H855 C860 0.949 . S
H856 C862 0.950 . S
H857 C863 0.950 . S
H858 C864 0.949 . S
C859 H854 0.950 . S
C859 C861 1.327 . S
C859 C865 1.429 1_545 S
C860 C852 1.574 . S
C860 H855 0.949 . S
C860 C866 1.368 . S
C861 C845 1.349 . S
C861 H853 0.950 . S
C861 C859 1.327 . S
C862 C850 1.349 . S
C862 H856 0.950 . S
C862 C863 1.327 . S
C863 H857 0.950 . S
C863 C862 1.327 . S
C863 C867 1.429 . S
C864 C847 1.574 . S
C864 H858 0.949 . S
C864 C868 1.368 . S
C865 C846 1.429 . S
C865 C859 1.429 1_565 S
C865 C866 1.523 . S
C866 C847 1.368 . S
C866 C860 1.368 . S
C866 C865 1.523 . S
C867 C851 1.429 . S
C867 C863 1.429 . S
C867 C868 1.523 . S
C868 C852 1.368 . S
C868 C864 1.368 . S
C868 C867 1.523 . S
H869 C844 0.950 . S
H870 C846 0.950 . S
H871 C847 0.949 . S
H872 C849 0.950 . S
H873 C851 0.950 . S
C874 C875 1.349 . S
C874 C876 1.327 . S
C874 H899 0.950 . S
C875 C874 1.349 . S
C875 C891 1.349 . S
C876 C874 1.327 . S
C876 C895 1.429 . S
C876 H900 0.950 . S
C877 C894 1.574 . S
C877 C896 1.368 . S
C877 H901 0.949 . S
H878 C882 0.949 . S
C879 C880 1.349 . S
C879 C881 1.327 . S
C879 H902 0.950 . S
C880 C879 1.349 . S
C880 C892 1.349 . S
C881 C879 1.327 . S
C881 C897 1.429 . S
C881 H903 0.950 . S
C882 H878 0.949 . S
C882 C890 1.574 . S
C882 C898 1.368 . S
H883 C891 0.950 . S
H884 C889 0.950 . S
H885 C890 0.949 . S
H886 C892 0.950 . S
H887 C893 0.950 . S
H888 C894 0.949 . S
C889 H884 0.950 . S
C889 C891 1.327 . S
C889 C895 1.429 . S
C890 C882 1.574 . S
C890 H885 0.949 . S
C890 C896 1.368 . S
C891 C875 1.349 . S
C891 H883 0.950 . S
C891 C889 1.327 . S
C892 C880 1.349 . S
C892 H886 0.950 . S
C892 C893 1.327 . S
C893 H887 0.950 . S
C893 C892 1.327 . S
C893 C897 1.429 . S
C894 C877 1.574 . S
C894 H888 0.949 . S
C894 C898 1.368 . S
C895 C876 1.429 . S
C895 C889 1.429 . S
C895 C896 1.523 . S
C896 C877 1.368 . S
C896 C890 1.368 . S
C896 C895 1.523 . S
C897 C881 1.429 . S
C897 C893 1.429 . S
C897 C898 1.523 . S
C898 C882 1.368 . S
C898 C894 1.368 . S
C898 C897 1.523 . S
H899 C874 0.950 . S
H900 C876 0.950 . S
H901 C877 0.949 . S
H902 C879 0.950 . S
H903 C881 0.950 . S
C904 C905 1.349 . S
C904 C906 1.327 . S
C904 H929 0.950 . S
C905 C904 1.349 . S
C905 C921 1.349 . S
C906 C904 1.327 . S
C906 C925 1.429 1_545 S
C906 H930 0.950 . S
C907 C924 1.574 . S
C907 C926 1.368 . S
C907 H931 0.949 . S
H908 C912 0.949 . S
C909 C910 1.349 . S
C909 C911 1.327 . S
C909 H932 0.950 . S
C910 C909 1.349 . S
C910 C922 1.349 . S
C911 C909 1.327 . S
C911 C927 1.429 . S
C911 H933 0.950 . S
C912 H908 0.949 . S
C912 C920 1.574 . S
C912 C928 1.368 . S
H913 C921 0.950 . S
H914 C919 0.950 . S
H915 C920 0.949 . S
H916 C922 0.950 . S
H917 C923 0.950 . S
H918 C924 0.949 . S
C919 H914 0.950 . S
C919 C921 1.327 1_565 S
C919 C925 1.429 . S
C920 C912 1.574 . S
C920 H915 0.949 . S
C920 C926 1.368 . S
C921 C905 1.349 . S
C921 H913 0.950 . S
C921 C919 1.327 1_545 S
C922 C910 1.349 . S
C922 H916 0.950 . S
C922 C923 1.327 . S
C923 H917 0.950 . S
C923 C922 1.327 . S
C923 C927 1.429 . S
C924 C907 1.574 . S
C924 H918 0.949 . S
C924 C928 1.368 . S
C925 C906 1.429 1_565 S
C925 C919 1.429 . S
C925 C926 1.523 . S
C926 C907 1.368 . S
C926 C920 1.368 . S
C926 C925 1.523 . S
C927 C911 1.429 . S
C927 C923 1.429 . S
C927 C928 1.523 . S
C928 C912 1.368 . S
C928 C924 1.368 . S
C928 C927 1.523 . S
H929 C904 0.950 . S
H930 C906 0.950 . S
H931 C907 0.949 . S
H932 C909 0.950 . S
H933 C911 0.950 . S
C934 C935 1.349 . S
C934 C936 1.327 . S
C934 H959 0.950 . S
C935 C934 1.349 . S
C935 C951 1.349 . S
C936 C934 1.327 . S
C936 C955 1.429 . S
C936 H960 0.950 . S
C937 C954 1.574 . S
C937 C956 1.368 . S
C937 H961 0.949 . S
H938 C942 0.949 . S
C939 C940 1.349 . S
C939 C941 1.327 . S
C939 H962 0.950 . S
C940 C939 1.349 . S
C940 C952 1.349 . S
C941 C939 1.327 . S
C941 C957 1.429 . S
C941 H963 0.950 . S
C942 H938 0.949 . S
C942 C950 1.574 . S
C942 C958 1.368 . S
H943 C951 0.950 . S
H944 C949 0.950 . S
H945 C950 0.949 . S
H946 C952 0.950 . S
H947 C953 0.950 . S
H948 C954 0.949 . S
C949 H944 0.950 . S
C949 C951 1.327 . S
C949 C955 1.429 . S
C950 C942 1.574 . S
C950 H945 0.949 . S
C950 C956 1.368 . S
C951 C935 1.349 . S
C951 H943 0.950 . S
C951 C949 1.327 . S
C952 C940 1.349 . S
C952 H946 0.950 . S
C952 C953 1.327 . S
C953 H947 0.950 . S
C953 C952 1.327 . S
C953 C957 1.429 . S
C954 C937 1.574 . S
C954 H948 0.949 . S
C954 C958 1.368 . S
C955 C936 1.429 . S
C955 C949 1.429 . S
C955 C956 1.523 . S
C956 C937 1.368 . S
C956 C950 1.368 . S
C956 C955 1.523 . S
C957 C941 1.429 . S
C957 C953 1.429 . S
C957 C958 1.523 . S
C958 C942 1.368 . S
C958 C954 1.368 . S
C958 C957 1.523 . S
H959 C934 0.950 . S
H960 C936 0.950 . S
H961 C937 0.949 . S
H962 C939 0.950 . S
H963 C941 0.950 . S
C964 C965 1.349 . S
C964 C966 1.327 . S
C964 H989 0.950 . S
C965 C964 1.349 . S
C965 C981 1.349 . S
C966 C964 1.327 . S
C966 C985 1.429 . S
C966 H990 0.950 . S
C967 C984 1.574 . S
C967 C986 1.368 . S
C967 H991 0.949 . S
H968 C972 0.949 . S
C969 C970 1.349 . S
C969 C971 1.327 . S
C969 H992 0.950 . S
C970 C969 1.349 . S
C970 C982 1.349 . S
C971 C969 1.327 . S
C971 C987 1.429 . S
C971 H993 0.950 . S
C972 H968 0.949 . S
C972 C980 1.574 . S
C972 C988 1.368 . S
H973 C981 0.950 . S
H974 C979 0.950 . S
H975 C980 0.949 . S
H976 C982 0.950 . S
H977 C983 0.950 . S
H978 C984 0.949 . S
C979 H974 0.950 . S
C979 C981 1.327 . S
C979 C985 1.429 . S
C980 C972 1.574 . S
C980 H975 0.949 . S
C980 C986 1.368 . S
C981 C965 1.349 . S
C981 H973 0.950 . S
C981 C979 1.327 . S
C982 C970 1.349 . S
C982 H976 0.950 . S
C982 C983 1.327 . S
C983 H977 0.950 . S
C983 C982 1.327 . S
C983 C987 1.429 . S
C984 C967 1.574 . S
C984 H978 0.949 . S
C984 C988 1.368 . S
C985 C966 1.429 . S
C985 C979 1.429 . S
C985 C986 1.523 . S
C986 C967 1.368 . S
C986 C980 1.368 . S
C986 C985 1.523 . S
C987 C971 1.429 . S
C987 C983 1.429 . S
C987 C988 1.523 . S
C988 C972 1.368 . S
C988 C984 1.368 . S
C988 C987 1.523 . S
H989 C964 0.950 . S
H990 C966 0.950 . S
H991 C967 0.949 . S
H992 C969 0.950 . S
H993 C971 0.950 . S
C994 C995 1.349 . S
C994 C996 1.327 1_455 S
C994 H1019 0.950 . S
C995 C994 1.349 . S
C995 C1011 1.349 . S
C996 C994 1.327 1_655 S
C996 C1015 1.429 . S
C996 H1020 0.950 . S
C997 C1014 1.574 . S
C997 C1016 1.368 . S
C997 H1021 0.949 . S
H998 C1002 0.949 . S
C999 C1000 1.349 . S
C999 C1001 1.327 . S
C999 H1022 0.950 . S
C1000 C999 1.349 . S
C1000 C1012 1.349 . S
C1001 C999 1.327 . S
C1001 C1017 1.429 . S
C1001 H1023 0.950 . S
C1002 H998 0.949 . S
C1002 C1010 1.574 . S
C1002 C1018 1.368 . S
H1003 C1011 0.950 . S
H1004 C1009 0.950 . S
H1005 C1010 0.949 . S
H1006 C1012 0.950 . S
H1007 C1013 0.950 . S
H1008 C1014 0.949 . S
C1009 H1004 0.950 . S
C1009 C1011 1.327 . S
C1009 C1015 1.429 1_455 S
C1010 C1002 1.574 . S
C1010 H1005 0.949 . S
C1010 C1016 1.368 . S
C1011 C995 1.349 . S
C1011 H1003 0.950 . S
C1011 C1009 1.327 . S
C1012 C1000 1.349 . S
C1012 H1006 0.950 . S
C1012 C1013 1.327 . S
C1013 H1007 0.950 . S
C1013 C1012 1.327 . S
C1013 C1017 1.429 . S
C1014 C997 1.574 . S
C1014 H1008 0.949 . S
C1014 C1018 1.368 . S
C1015 C996 1.429 . S
C1015 C1009 1.429 1_655 S
C1015 C1016 1.523 . S
C1016 C997 1.368 . S
C1016 C1010 1.368 . S
C1016 C1015 1.523 . S
C1017 C1001 1.429 . S
C1017 C1013 1.429 . S
C1017 C1018 1.523 . S
C1018 C1002 1.368 . S
C1018 C1014 1.368 . S
C1018 C1017 1.523 . S
H1019 C994 0.950 . S
H1020 C996 0.950 . S
H1021 C997 0.949 . S
H1022 C999 0.950 . S
H1023 C1001 0.950 . S
C1024 C1025 1.349 . S
C1024 C1026 1.327 . S
C1024 H1049 0.950 . S
C1025 C1024 1.349 . S
C1025 C1041 1.349 . S
C1026 C1024 1.327 . S
C1026 C1045 1.429 . S
C1026 H1050 0.950 . S
C1027 C1044 1.574 . S
C1027 C1046 1.368 . S
C1027 H1051 0.949 . S
H1028 C1032 0.949 . S
C1029 C1030 1.349 . S
C1029 C1031 1.327 . S
C1029 H1052 0.950 . S
C1030 C1029 1.349 . S
C1030 C1042 1.349 . S
C1031 C1029 1.327 . S
C1031 C1047 1.429 . S
C1031 H1053 0.950 . S
C1032 H1028 0.949 . S
C1032 C1040 1.574 . S
C1032 C1048 1.368 . S
H1033 C1041 0.950 . S
H1034 C1039 0.950 . S
H1035 C1040 0.949 . S
H1036 C1042 0.950 . S
H1037 C1043 0.950 . S
H1038 C1044 0.949 . S
C1039 H1034 0.950 . S
C1039 C1041 1.327 . S
C1039 C1045 1.429 . S
C1040 C1032 1.574 . S
C1040 H1035 0.949 . S
C1040 C1046 1.368 . S
C1041 C1025 1.349 . S
C1041 H1033 0.950 . S
C1041 C1039 1.327 . S
C1042 C1030 1.349 . S
C1042 H1036 0.950 . S
C1042 C1043 1.327 . S
C1043 H1037 0.950 . S
C1043 C1042 1.327 . S
C1043 C1047 1.429 . S
C1044 C1027 1.574 . S
C1044 H1038 0.949 . S
C1044 C1048 1.368 . S
C1045 C1026 1.429 . S
C1045 C1039 1.429 . S
C1045 C1046 1.523 . S
C1046 C1027 1.368 . S
C1046 C1040 1.368 . S
C1046 C1045 1.523 . S
C1047 C1031 1.429 . S
C1047 C1043 1.429 . S
C1047 C1048 1.523 . S
C1048 C1032 1.368 . S
C1048 C1044 1.368 . S
C1048 C1047 1.523 . S
H1049 C1024 0.950 . S
H1050 C1026 0.950 . S
H1051 C1027 0.949 . S
H1052 C1029 0.950 . S
H1053 C1031 0.950 . S
C1054 C1055 1.349 . S
C1054 C1056 1.327 . S
C1054 H1079 0.950 . S
C1055 C1054 1.349 . S
C1055 C1071 1.349 . S
C1056 C1054 1.327 . S
C1056 C1075 1.429 . S
C1056 H1080 0.950 . S
C1057 C1074 1.574 . S
C1057 C1076 1.368 . S
C1057 H1081 0.949 . S
H1058 C1062 0.949 . S
C1059 C1060 1.349 . S
C1059 C1061 1.327 . S
C1059 H1082 0.950 . S
C1060 C1059 1.349 . S
C1060 C1072 1.349 . S
C1061 C1059 1.327 . S
C1061 C1077 1.429 . S
C1061 H1083 0.950 . S
C1062 H1058 0.949 . S
C1062 C1070 1.574 . S
C1062 C1078 1.368 . S
H1063 C1071 0.950 . S
H1064 C1069 0.950 . S
H1065 C1070 0.949 . S
H1066 C1072 0.950 . S
H1067 C1073 0.950 . S
H1068 C1074 0.949 . S
C1069 H1064 0.950 . S
C1069 C1071 1.327 . S
C1069 C1075 1.429 . S
C1070 C1062 1.574 . S
C1070 H1065 0.949 . S
C1070 C1076 1.368 . S
C1071 C1055 1.349 . S
C1071 H1063 0.950 . S
C1071 C1069 1.327 . S
C1072 C1060 1.349 . S
C1072 H1066 0.950 . S
C1072 C1073 1.327 . S
C1073 H1067 0.950 . S
C1073 C1072 1.327 . S
C1073 C1077 1.429 . S
C1074 C1057 1.574 . S
C1074 H1068 0.949 . S
C1074 C1078 1.368 . S
C1075 C1056 1.429 . S
C1075 C1069 1.429 . S
C1075 C1076 1.523 . S
C1076 C1057 1.368 . S
C1076 C1070 1.368 . S
C1076 C1075 1.523 . S
C1077 C1061 1.429 . S
C1077 C1073 1.429 . S
C1077 C1078 1.523 . S
C1078 C1062 1.368 . S
C1078 C1074 1.368 . S
C1078 C1077 1.523 . S
H1079 C1054 0.950 . S
H1080 C1056 0.950 . S
H1081 C1057 0.949 . S
H1082 C1059 0.950 . S
H1083 C1061 0.950 . S
C1084 C1085 1.349 . S
C1084 C1086 1.327 . S
C1084 H1109 0.950 . S
C1085 C1084 1.349 . S
C1085 C1101 1.349 . S
C1086 C1084 1.327 . S
C1086 C1105 1.429 . S
C1086 H1110 0.950 . S
C1087 C1104 1.574 . S
C1087 C1106 1.368 . S
C1087 H1111 0.949 . S
H1088 C1092 0.949 . S
C1089 C1090 1.349 . S
C1089 C1091 1.327 . S
C1089 H1112 0.950 . S
C1090 C1089 1.349 . S
C1090 C1102 1.349 . S
C1091 C1089 1.327 . S
C1091 C1107 1.429 . S
C1091 H1113 0.950 . S
C1092 H1088 0.949 . S
C1092 C1100 1.574 . S
C1092 C1108 1.368 . S
H1093 C1101 0.950 . S
H1094 C1099 0.950 . S
H1095 C1100 0.949 . S
H1096 C1102 0.950 . S
H1097 C1103 0.950 . S
H1098 C1104 0.949 . S
C1099 H1094 0.950 . S
C1099 C1101 1.327 . S
C1099 C1105 1.429 . S
C1100 C1092 1.574 . S
C1100 H1095 0.949 . S
C1100 C1106 1.368 . S
C1101 C1085 1.349 . S
C1101 H1093 0.950 . S
C1101 C1099 1.327 . S
C1102 C1090 1.349 . S
C1102 H1096 0.950 . S
C1102 C1103 1.327 . S
C1103 H1097 0.950 . S
C1103 C1102 1.327 . S
C1103 C1107 1.429 . S
C1104 C1087 1.574 . S
C1104 H1098 0.949 . S
C1104 C1108 1.368 . S
C1105 C1086 1.429 . S
C1105 C1099 1.429 . S
C1105 C1106 1.523 . S
C1106 C1087 1.368 . S
C1106 C1100 1.368 . S
C1106 C1105 1.523 . S
C1107 C1091 1.429 . S
C1107 C1103 1.429 . S
C1107 C1108 1.523 . S
C1108 C1092 1.368 . S
C1108 C1104 1.368 . S
C1108 C1107 1.523 . S
H1109 C1084 0.950 . S
H1110 C1086 0.950 . S
H1111 C1087 0.949 . S
H1112 C1089 0.950 . S
H1113 C1091 0.950 . S
C1114 C1115 1.349 . S
C1114 C1116 1.327 . S
C1114 H1139 0.950 . S
C1115 C1114 1.349 . S
C1115 C1131 1.349 . S
C1116 C1114 1.327 . S
C1116 C1135 1.429 . S
C1116 H1140 0.950 . S
C1117 C1134 1.574 . S
C1117 C1136 1.368 . S
C1117 H1141 0.949 . S
H1118 C1122 0.949 . S
C1119 C1120 1.349 . S
C1119 C1121 1.327 . S
C1119 H1142 0.950 . S
C1120 C1119 1.349 . S
C1120 C1132 1.349 . S
C1121 C1119 1.327 . S
C1121 C1137 1.429 . S
C1121 H1143 0.950 . S
C1122 H1118 0.949 . S
C1122 C1130 1.574 . S
C1122 C1138 1.368 . S
H1123 C1131 0.950 . S
H1124 C1129 0.950 . S
H1125 C1130 0.949 . S
H1126 C1132 0.950 . S
H1127 C1133 0.950 . S
H1128 C1134 0.949 . S
C1129 H1124 0.950 . S
C1129 C1131 1.327 . S
C1129 C1135 1.429 . S
C1130 C1122 1.574 . S
C1130 H1125 0.949 . S
C1130 C1136 1.368 . S
C1131 C1115 1.349 . S
C1131 H1123 0.950 . S
C1131 C1129 1.327 . S
C1132 C1120 1.349 . S
C1132 H1126 0.950 . S
C1132 C1133 1.327 . S
C1133 H1127 0.950 . S
C1133 C1132 1.327 . S
C1133 C1137 1.429 . S
C1134 C1117 1.574 . S
C1134 H1128 0.949 . S
C1134 C1138 1.368 . S
C1135 C1116 1.429 . S
C1135 C1129 1.429 . S
C1135 C1136 1.523 . S
C1136 C1117 1.368 . S
C1136 C1130 1.368 . S
C1136 C1135 1.523 . S
C1137 C1121 1.429 . S
C1137 C1133 1.429 . S
C1137 C1138 1.523 . S
C1138 C1122 1.368 . S
C1138 C1134 1.368 . S
C1138 C1137 1.523 . S
H1139 C1114 0.950 . S
H1140 C1116 0.950 . S
H1141 C1117 0.949 . S
H1142 C1119 0.950 . S
H1143 C1121 0.950 . S
C1144 C1145 1.349 . S
C1144 C1146 1.327 . S
C1144 H1169 0.950 . S
C1145 C1144 1.349 . S
C1145 C1161 1.349 . S
C1146 C1144 1.327 . S
C1146 C1165 1.429 . S
C1146 H1170 0.950 . S
C1147 C1164 1.574 . S
C1147 C1166 1.368 . S
C1147 H1171 0.949 . S
H1148 C1152 0.949 . S
C1149 C1150 1.349 . S
C1149 C1151 1.327 . S
C1149 H1172 0.950 . S
C1150 C1149 1.349 . S
C1150 C1162 1.349 . S
C1151 C1149 1.327 . S
C1151 C1167 1.429 . S
C1151 H1173 0.950 . S
C1152 H1148 0.949 . S
C1152 C1160 1.574 . S
C1152 C1168 1.368 . S
H1153 C1161 0.950 . S
H1154 C1159 0.950 . S
H1155 C1160 0.949 . S
H1156 C1162 0.950 . S
H1157 C1163 0.950 . S
H1158 C1164 0.949 . S
C1159 H1154 0.950 . S
C1159 C1161 1.327 . S
C1159 C1165 1.429 . S
C1160 C1152 1.574 . S
C1160 H1155 0.949 . S
C1160 C1166 1.368 . S
C1161 C1145 1.349 . S
C1161 H1153 0.950 . S
C1161 C1159 1.327 . S
C1162 C1150 1.349 . S
C1162 H1156 0.950 . S
C1162 C1163 1.327 . S
C1163 H1157 0.950 . S
C1163 C1162 1.327 . S
C1163 C1167 1.429 . S
C1164 C1147 1.574 . S
C1164 H1158 0.949 . S
C1164 C1168 1.368 . S
C1165 C1146 1.429 . S
C1165 C1159 1.429 . S
C1165 C1166 1.523 . S
C1166 C1147 1.368 . S
C1166 C1160 1.368 . S
C1166 C1165 1.523 . S
C1167 C1151 1.429 . S
C1167 C1163 1.429 . S
C1167 C1168 1.523 . S
C1168 C1152 1.368 . S
C1168 C1164 1.368 . S
C1168 C1167 1.523 . S
H1169 C1144 0.950 . S
H1170 C1146 0.950 . S
H1171 C1147 0.949 . S
H1172 C1149 0.950 . S
H1173 C1151 0.950 . S
C1174 C1175 1.349 . S
C1174 C1176 1.327 . S
C1174 H1199 0.950 . S
C1175 C1174 1.349 . S
C1175 C1191 1.349 . S
C1176 C1174 1.327 . S
C1176 C1195 1.429 . S
C1176 H1200 0.950 . S
C1177 C1194 1.574 . S
C1177 C1196 1.368 . S
C1177 H1201 0.949 . S
H1178 C1182 0.949 . S
C1179 C1180 1.349 . S
C1179 C1181 1.327 . S
C1179 H1202 0.950 . S
C1180 C1179 1.349 . S
C1180 C1192 1.349 . S
C1181 C1179 1.327 . S
C1181 C1197 1.429 . S
C1181 H1203 0.950 . S
C1182 H1178 0.949 . S
C1182 C1190 1.574 . S
C1182 C1198 1.368 . S
H1183 C1191 0.950 . S
H1184 C1189 0.950 . S
H1185 C1190 0.949 . S
H1186 C1192 0.950 . S
H1187 C1193 0.950 . S
H1188 C1194 0.949 . S
C1189 H1184 0.950 . S
C1189 C1191 1.327 . S
C1189 C1195 1.429 . S
C1190 C1182 1.574 . S
C1190 H1185 0.949 . S
C1190 C1196 1.368 . S
C1191 C1175 1.349 . S
C1191 H1183 0.950 . S
C1191 C1189 1.327 . S
C1192 C1180 1.349 . S
C1192 H1186 0.950 . S
C1192 C1193 1.327 . S
C1193 H1187 0.950 . S
C1193 C1192 1.327 . S
C1193 C1197 1.429 . S
C1194 C1177 1.574 . S
C1194 H1188 0.949 . S
C1194 C1198 1.368 . S
C1195 C1176 1.429 . S
C1195 C1189 1.429 . S
C1195 C1196 1.523 . S
C1196 C1177 1.368 . S
C1196 C1190 1.368 . S
C1196 C1195 1.523 . S
C1197 C1181 1.429 . S
C1197 C1193 1.429 . S
C1197 C1198 1.523 . S
C1198 C1182 1.368 . S
C1198 C1194 1.368 . S
C1198 C1197 1.523 . S
H1199 C1174 0.950 . S
H1200 C1176 0.950 . S
H1201 C1177 0.949 . S
H1202 C1179 0.950 . S
H1203 C1181 0.950 . S
C1204 C1205 1.349 . S
C1204 C1206 1.327 . S
C1204 H1229 0.950 . S
C1205 C1204 1.349 . S
C1205 C1221 1.349 . S
C1206 C1204 1.327 . S
C1206 C1225 1.429 . S
C1206 H1230 0.950 . S
C1207 C1224 1.574 . S
C1207 C1226 1.368 . S
C1207 H1231 0.949 . S
H1208 C1212 0.949 . S
C1209 C1210 1.349 . S
C1209 C1211 1.327 . S
C1209 H1232 0.950 . S
C1210 C1209 1.349 . S
C1210 C1222 1.349 . S
C1211 C1209 1.327 . S
C1211 C1227 1.429 . S
C1211 H1233 0.950 . S
C1212 H1208 0.949 . S
C1212 C1220 1.574 . S
C1212 C1228 1.368 . S
H1213 C1221 0.950 . S
H1214 C1219 0.950 . S
H1215 C1220 0.949 . S
H1216 C1222 0.950 . S
H1217 C1223 0.950 . S
H1218 C1224 0.949 . S
C1219 H1214 0.950 . S
C1219 C1221 1.327 . S
C1219 C1225 1.429 . S
C1220 C1212 1.574 . S
C1220 H1215 0.949 . S
C1220 C1226 1.368 . S
C1221 C1205 1.349 . S
C1221 H1213 0.950 . S
C1221 C1219 1.327 . S
C1222 C1210 1.349 . S
C1222 H1216 0.950 . S
C1222 C1223 1.327 . S
C1223 H1217 0.950 . S
C1223 C1222 1.327 . S
C1223 C1227 1.429 . S
C1224 C1207 1.574 . S
C1224 H1218 0.949 . S
C1224 C1228 1.368 . S
C1225 C1206 1.429 . S
C1225 C1219 1.429 . S
C1225 C1226 1.523 . S
C1226 C1207 1.368 . S
C1226 C1220 1.368 . S
C1226 C1225 1.523 . S
C1227 C1211 1.429 . S
C1227 C1223 1.429 . S
C1227 C1228 1.523 . S
C1228 C1212 1.368 . S
C1228 C1224 1.368 . S
C1228 C1227 1.523 . S
H1229 C1204 0.950 . S
H1230 C1206 0.950 . S
H1231 C1207 0.949 . S
H1232 C1209 0.950 . S
H1233 C1211 0.950 . S
C1234 C1235 1.349 . S
C1234 C1236 1.327 . S
C1234 H1259 0.950 . S
C1235 C1234 1.349 . S
C1235 C1251 1.349 . S
C1236 C1234 1.327 . S
C1236 C1255 1.429 . S
C1236 H1260 0.950 . S
C1237 C1254 1.574 . S
C1237 C1256 1.368 . S
C1237 H1261 0.949 . S
H1238 C1242 0.949 . S
C1239 C1240 1.349 . S
C1239 C1241 1.327 . S
C1239 H1262 0.950 . S
C1240 C1239 1.349 . S
C1240 C1252 1.349 . S
C1241 C1239 1.327 . S
C1241 C1257 1.429 . S
C1241 H1263 0.950 . S
C1242 H1238 0.949 . S
C1242 C1250 1.574 . S
C1242 C1258 1.368 . S
H1243 C1251 0.950 . S
H1244 C1249 0.950 . S
H1245 C1250 0.949 . S
H1246 C1252 0.950 . S
H1247 C1253 0.950 . S
H1248 C1254 0.949 . S
C1249 H1244 0.950 . S
C1249 C1251 1.327 . S
C1249 C1255 1.429 . S
C1250 C1242 1.574 . S
C1250 H1245 0.949 . S
C1250 C1256 1.368 . S
C1251 C1235 1.349 . S
C1251 H1243 0.950 . S
C1251 C1249 1.327 . S
C1252 C1240 1.349 . S
C1252 H1246 0.950 . S
C1252 C1253 1.327 . S
C1253 H1247 0.950 . S
C1253 C1252 1.327 . S
C1253 C1257 1.429 . S
C1254 C1237 1.574 . S
C1254 H1248 0.949 . S
C1254 C1258 1.368 . S
C1255 C1236 1.429 . S
C1255 C1249 1.429 . S
C1255 C1256 1.523 . S
C1256 C1237 1.368 . S
C1256 C1250 1.368 . S
C1256 C1255 1.523 . S
C1257 C1241 1.429 . S
C1257 C1253 1.429 . S
C1257 C1258 1.523 . S
C1258 C1242 1.368 . S
C1258 C1254 1.368 . S
C1258 C1257 1.523 . S
H1259 C1234 0.950 . S
H1260 C1236 0.950 . S
H1261 C1237 0.949 . S
H1262 C1239 0.950 . S
H1263 C1241 0.950 . S
C1264 C1265 1.349 . S
C1264 C1266 1.327 . S
C1264 H1289 0.950 . S
C1265 C1264 1.349 . S
C1265 C1281 1.349 . S
C1266 C1264 1.327 . S
C1266 C1285 1.429 . S
C1266 H1290 0.950 . S
C1267 C1284 1.574 . S
C1267 C1286 1.368 . S
C1267 H1291 0.949 . S
H1268 C1272 0.949 . S
C1269 C1270 1.349 . S
C1269 C1271 1.327 . S
C1269 H1292 0.950 . S
C1270 C1269 1.349 . S
C1270 C1282 1.349 . S
C1271 C1269 1.327 . S
C1271 C1287 1.429 . S
C1271 H1293 0.950 . S
C1272 H1268 0.949 . S
C1272 C1280 1.574 . S
C1272 C1288 1.368 . S
H1273 C1281 0.950 . S
H1274 C1279 0.950 . S
H1275 C1280 0.949 . S
H1276 C1282 0.950 . S
H1277 C1283 0.950 . S
H1278 C1284 0.949 . S
C1279 H1274 0.950 . S
C1279 C1281 1.327 . S
C1279 C1285 1.429 . S
C1280 C1272 1.574 . S
C1280 H1275 0.949 . S
C1280 C1286 1.368 . S
C1281 C1265 1.349 . S
C1281 H1273 0.950 . S
C1281 C1279 1.327 . S
C1282 C1270 1.349 . S
C1282 H1276 0.950 . S
C1282 C1283 1.327 . S
C1283 H1277 0.950 . S
C1283 C1282 1.327 . S
C1283 C1287 1.429 . S
C1284 C1267 1.574 . S
C1284 H1278 0.949 . S
C1284 C1288 1.368 . S
C1285 C1266 1.429 . S
C1285 C1279 1.429 . S
C1285 C1286 1.523 . S
C1286 C1267 1.368 . S
C1286 C1280 1.368 . S
C1286 C1285 1.523 . S
C1287 C1271 1.429 . S
C1287 C1283 1.429 . S
C1287 C1288 1.523 . S
C1288 C1272 1.368 . S
C1288 C1284 1.368 . S
C1288 C1287 1.523 . S
H1289 C1264 0.950 . S
H1290 C1266 0.950 . S
H1291 C1267 0.949 . S
H1292 C1269 0.950 . S
H1293 C1271 0.950 . S
C1294 C1295 1.349 . S
C1294 C1296 1.327 . S
C1294 H1319 0.950 . S
C1295 C1294 1.349 . S
C1295 C1311 1.349 . S
C1296 C1294 1.327 . S
C1296 C1315 1.429 . S
C1296 H1320 0.950 . S
C1297 C1314 1.574 . S
C1297 C1316 1.368 . S
C1297 H1321 0.949 . S
H1298 C1302 0.949 . S
C1299 C1300 1.349 . S
C1299 C1301 1.327 . S
C1299 H1322 0.950 . S
C1300 C1299 1.349 . S
C1300 C1312 1.349 . S
C1301 C1299 1.327 . S
C1301 C1317 1.429 . S
C1301 H1323 0.950 . S
C1302 H1298 0.949 . S
C1302 C1310 1.574 . S
C1302 C1318 1.368 . S
H1303 C1311 0.950 . S
H1304 C1309 0.950 . S
H1305 C1310 0.949 . S
H1306 C1312 0.950 . S
H1307 C1313 0.950 . S
H1308 C1314 0.949 . S
C1309 H1304 0.950 . S
C1309 C1311 1.327 . S
C1309 C1315 1.429 . S
C1310 C1302 1.574 . S
C1310 H1305 0.949 . S
C1310 C1316 1.368 . S
C1311 C1295 1.349 . S
C1311 H1303 0.950 . S
C1311 C1309 1.327 . S
C1312 C1300 1.349 . S
C1312 H1306 0.950 . S
C1312 C1313 1.327 . S
C1313 H1307 0.950 . S
C1313 C1312 1.327 . S
C1313 C1317 1.429 . S
C1314 C1297 1.574 . S
C1314 H1308 0.949 . S
C1314 C1318 1.368 . S
C1315 C1296 1.429 . S
C1315 C1309 1.429 . S
C1315 C1316 1.523 . S
C1316 C1297 1.368 . S
C1316 C1310 1.368 . S
C1316 C1315 1.523 . S
C1317 C1301 1.429 . S
C1317 C1313 1.429 . S
C1317 C1318 1.523 . S
C1318 C1302 1.368 . S
C1318 C1314 1.368 . S
C1318 C1317 1.523 . S
H1319 C1294 0.950 . S
H1320 C1296 0.950 . S
H1321 C1297 0.949 . S
H1322 C1299 0.950 . S
H1323 C1301 0.950 . S
C1324 C1325 1.349 . S
C1324 C1326 1.327 . S
C1324 H1349 0.950 . S
C1325 C1324 1.349 . S
C1325 C1341 1.349 . S
C1326 C1324 1.327 . S
C1326 C1345 1.429 . S
C1326 H1350 0.950 . S
C1327 C1344 1.574 . S
C1327 C1346 1.368 . S
C1327 H1351 0.949 . S
H1328 C1332 0.949 . S
C1329 C1330 1.349 . S
C1329 C1331 1.327 . S
C1329 H1352 0.950 . S
C1330 C1329 1.349 . S
C1330 C1342 1.349 . S
C1331 C1329 1.327 . S
C1331 C1347 1.429 . S
C1331 H1353 0.950 . S
C1332 H1328 0.949 . S
C1332 C1340 1.574 . S
C1332 C1348 1.368 . S
H1333 C1341 0.950 . S
H1334 C1339 0.950 . S
H1335 C1340 0.949 . S
H1336 C1342 0.950 . S
H1337 C1343 0.950 . S
H1338 C1344 0.949 . S
C1339 H1334 0.950 . S
C1339 C1341 1.327 . S
C1339 C1345 1.429 . S
C1340 C1332 1.574 . S
C1340 H1335 0.949 . S
C1340 C1346 1.368 . S
C1341 C1325 1.349 . S
C1341 H1333 0.950 . S
C1341 C1339 1.327 . S
C1342 C1330 1.349 . S
C1342 H1336 0.950 . S
C1342 C1343 1.327 . S
C1343 H1337 0.950 . S
C1343 C1342 1.327 . S
C1343 C1347 1.429 . S
C1344 C1327 1.574 . S
C1344 H1338 0.949 . S
C1344 C1348 1.368 . S
C1345 C1326 1.429 . S
C1345 C1339 1.429 . S
C1345 C1346 1.523 . S
C1346 C1327 1.368 . S
C1346 C1340 1.368 . S
C1346 C1345 1.523 . S
C1347 C1331 1.429 . S
C1347 C1343 1.429 . S
C1347 C1348 1.523 . S
C1348 C1332 1.368 . S
C1348 C1344 1.368 . S
C1348 C1347 1.523 . S
H1349 C1324 0.950 . S
H1350 C1326 0.950 . S
H1351 C1327 0.949 . S
H1352 C1329 0.950 . S
H1353 C1331 0.950 . S
C1354 C1355 1.349 . S
C1354 C1356 1.327 . S
C1354 H1379 0.950 . S
C1355 C1354 1.349 . S
C1355 C1371 1.349 . S
C1356 C1354 1.327 . S
C1356 C1375 1.429 . S
C1356 H1380 0.950 . S
C1357 C1374 1.574 . S
C1357 C1376 1.368 . S
C1357 H1381 0.949 . S
H1358 C1362 0.949 . S
C1359 C1360 1.349 . S
C1359 C1361 1.327 . S
C1359 H1382 0.950 . S
C1360 C1359 1.349 . S
C1360 C1372 1.349 . S
C1361 C1359 1.327 . S
C1361 C1377 1.429 . S
C1361 H1383 0.950 . S
C1362 H1358 0.949 . S
C1362 C1370 1.574 . S
C1362 C1378 1.368 . S
H1363 C1371 0.950 . S
H1364 C1369 0.950 . S
H1365 C1370 0.949 . S
H1366 C1372 0.950 . S
H1367 C1373 0.950 . S
H1368 C1374 0.949 . S
C1369 H1364 0.950 . S
C1369 C1371 1.327 . S
C1369 C1375 1.429 . S
C1370 C1362 1.574 . S
C1370 H1365 0.949 . S
C1370 C1376 1.368 . S
C1371 C1355 1.349 . S
C1371 H1363 0.950 . S
C1371 C1369 1.327 . S
C1372 C1360 1.349 . S
C1372 H1366 0.950 . S
C1372 C1373 1.327 . S
C1373 H1367 0.950 . S
C1373 C1372 1.327 . S
C1373 C1377 1.429 . S
C1374 C1357 1.574 . S
C1374 H1368 0.949 . S
C1374 C1378 1.368 . S
C1375 C1356 1.429 . S
C1375 C1369 1.429 . S
C1375 C1376 1.523 . S
C1376 C1357 1.368 . S
C1376 C1370 1.368 . S
C1376 C1375 1.523 . S
C1377 C1361 1.429 . S
C1377 C1373 1.429 . S
C1377 C1378 1.523 . S
C1378 C1362 1.368 . S
C1378 C1374 1.368 . S
C1378 C1377 1.523 . S
H1379 C1354 0.950 . S
H1380 C1356 0.950 . S
H1381 C1357 0.949 . S
H1382 C1359 0.950 . S
H1383 C1361 0.950 . S
C1384 C1385 1.349 . S
C1384 C1386 1.327 . S
C1384 H1409 0.950 . S
C1385 C1384 1.349 . S
C1385 C1401 1.349 . S
C1386 C1384 1.327 . S
C1386 C1405 1.429 . S
C1386 H1410 0.950 . S
C1387 C1404 1.574 . S
C1387 C1406 1.368 . S
C1387 H1411 0.949 . S
H1388 C1392 0.949 . S
C1389 C1390 1.349 . S
C1389 C1391 1.327 . S
C1389 H1412 0.950 . S
C1390 C1389 1.349 . S
C1390 C1402 1.349 . S
C1391 C1389 1.327 . S
C1391 C1407 1.429 . S
C1391 H1413 0.950 . S
C1392 H1388 0.949 . S
C1392 C1400 1.574 . S
C1392 C1408 1.368 . S
H1393 C1401 0.950 . S
H1394 C1399 0.950 . S
H1395 C1400 0.949 . S
H1396 C1402 0.950 . S
H1397 C1403 0.950 . S
H1398 C1404 0.949 . S
C1399 H1394 0.950 . S
C1399 C1401 1.327 . S
C1399 C1405 1.429 . S
C1400 C1392 1.574 . S
C1400 H1395 0.949 . S
C1400 C1406 1.368 . S
C1401 C1385 1.349 . S
C1401 H1393 0.950 . S
C1401 C1399 1.327 . S
C1402 C1390 1.349 . S
C1402 H1396 0.950 . S
C1402 C1403 1.327 . S
C1403 H1397 0.950 . S
C1403 C1402 1.327 . S
C1403 C1407 1.429 . S
C1404 C1387 1.574 . S
C1404 H1398 0.949 . S
C1404 C1408 1.368 . S
C1405 C1386 1.429 . S
C1405 C1399 1.429 . S
C1405 C1406 1.523 . S
C1406 C1387 1.368 . S
C1406 C1400 1.368 . S
C1406 C1405 1.523 . S
C1407 C1391 1.429 . S
C1407 C1403 1.429 . S
C1407 C1408 1.523 . S
C1408 C1392 1.368 . S
C1408 C1404 1.368 . S
C1408 C1407 1.523 . S
H1409 C1384 0.950 . S
H1410 C1386 0.950 . S
H1411 C1387 0.949 . S
H1412 C1389 0.950 . S
H1413 C1391 0.950 . S
C1414 C1415 1.349 . S
C1414 C1416 1.327 . S
C1414 H1439 0.950 . S
C1415 C1414 1.349 . S
C1415 C1431 1.349 . S
C1416 C1414 1.327 . S
C1416 C1435 1.429 . S
C1416 H1440 0.950 . S
C1417 C1434 1.574 . S
C1417 C1436 1.368 . S
C1417 H1441 0.949 . S
H1418 C1422 0.949 . S
C1419 C1420 1.349 . S
C1419 C1421 1.327 . S
C1419 H1442 0.950 . S
C1420 C1419 1.349 . S
C1420 C1432 1.349 . S
C1421 C1419 1.327 . S
C1421 C1437 1.429 . S
C1421 H1443 0.950 . S
C1422 H1418 0.949 . S
C1422 C1430 1.574 . S
C1422 C1438 1.368 . S
H1423 C1431 0.950 . S
H1424 C1429 0.950 . S
H1425 C1430 0.949 . S
H1426 C1432 0.950 . S
H1427 C1433 0.950 . S
H1428 C1434 0.949 . S
C1429 H1424 0.950 . S
C1429 C1431 1.327 . S
C1429 C1435 1.429 . S
C1430 C1422 1.574 . S
C1430 H1425 0.949 . S
C1430 C1436 1.368 . S
C1431 C1415 1.349 . S
C1431 H1423 0.950 . S
C1431 C1429 1.327 . S
C1432 C1420 1.349 . S
C1432 H1426 0.950 . S
C1432 C1433 1.327 . S
C1433 H1427 0.950 . S
C1433 C1432 1.327 . S
C1433 C1437 1.429 . S
C1434 C1417 1.574 . S
C1434 H1428 0.949 . S
C1434 C1438 1.368 . S
C1435 C1416 1.429 . S
C1435 C1429 1.429 . S
C1435 C1436 1.523 . S
C1436 C1417 1.368 . S
C1436 C1430 1.368 . S
C1436 C1435 1.523 . S
C1437 C1421 1.429 . S
C1437 C1433 1.429 . S
C1437 C1438 1.523 . S
C1438 C1422 1.368 . S
C1438 C1434 1.368 . S
C1438 C1437 1.523 . S
H1439 C1414 0.950 . S
H1440 C1416 0.950 . S
H1441 C1417 0.949 . S
H1442 C1419 0.950 . S
H1443 C1421 0.950 . S
C1444 C1445 1.349 . S
C1444 C1446 1.327 . S
C1444 H1469 0.950 . S
C1445 C1444 1.349 . S
C1445 C1461 1.349 . S
C1446 C1444 1.327 . S
C1446 C1465 1.429 . S
C1446 H1470 0.950 . S
C1447 C1464 1.574 . S
C1447 C1466 1.368 . S
C1447 H1471 0.949 . S
H1448 C1452 0.949 . S
C1449 C1450 1.349 . S
C1449 C1451 1.327 . S
C1449 H1472 0.950 . S
C1450 C1449 1.349 . S
C1450 C1462 1.349 . S
C1451 C1449 1.327 . S
C1451 C1467 1.429 . S
C1451 H1473 0.950 . S
C1452 H1448 0.949 . S
C1452 C1460 1.574 . S
C1452 C1468 1.368 . S
H1453 C1461 0.950 . S
H1454 C1459 0.950 . S
H1455 C1460 0.949 . S
H1456 C1462 0.950 . S
H1457 C1463 0.950 . S
H1458 C1464 0.949 . S
C1459 H1454 0.950 . S
C1459 C1461 1.327 . S
C1459 C1465 1.429 . S
C1460 C1452 1.574 . S
C1460 H1455 0.949 . S
C1460 C1466 1.368 . S
C1461 C1445 1.349 . S
C1461 H1453 0.950 . S
C1461 C1459 1.327 . S
C1462 C1450 1.349 . S
C1462 H1456 0.950 . S
C1462 C1463 1.327 . S
C1463 H1457 0.950 . S
C1463 C1462 1.327 . S
C1463 C1467 1.429 . S
C1464 C1447 1.574 . S
C1464 H1458 0.949 . S
C1464 C1468 1.368 . S
C1465 C1446 1.429 . S
C1465 C1459 1.429 . S
C1465 C1466 1.523 . S
C1466 C1447 1.368 . S
C1466 C1460 1.368 . S
C1466 C1465 1.523 . S
C1467 C1451 1.429 . S
C1467 C1463 1.429 . S
C1467 C1468 1.523 . S
C1468 C1452 1.368 . S
C1468 C1464 1.368 . S
C1468 C1467 1.523 . S
H1469 C1444 0.950 . S
H1470 C1446 0.950 . S
H1471 C1447 0.949 . S
H1472 C1449 0.950 . S
H1473 C1451 0.950 . S
C1474 C1475 1.349 . S
C1474 C1476 1.327 . S
C1474 H1499 0.950 . S
C1475 C1474 1.349 . S
C1475 C1491 1.349 . S
C1476 C1474 1.327 . S
C1476 C1495 1.429 . S
C1476 H1500 0.950 . S
C1477 C1494 1.574 . S
C1477 C1496 1.368 . S
C1477 H1501 0.949 . S
H1478 C1482 0.949 . S
C1479 C1480 1.349 . S
C1479 C1481 1.327 . S
C1479 H1502 0.950 . S
C1480 C1479 1.349 . S
C1480 C1492 1.349 . S
C1481 C1479 1.327 . S
C1481 C1497 1.429 . S
C1481 H1503 0.950 . S
C1482 H1478 0.949 . S
C1482 C1490 1.574 . S
C1482 C1498 1.368 . S
H1483 C1491 0.950 . S
H1484 C1489 0.950 . S
H1485 C1490 0.949 . S
H1486 C1492 0.950 . S
H1487 C1493 0.950 . S
H1488 C1494 0.949 . S
C1489 H1484 0.950 . S
C1489 C1491 1.327 . S
C1489 C1495 1.429 . S
C1490 C1482 1.574 . S
C1490 H1485 0.949 . S
C1490 C1496 1.368 . S
C1491 C1475 1.349 . S
C1491 H1483 0.950 . S
C1491 C1489 1.327 . S
C1492 C1480 1.349 . S
C1492 H1486 0.950 . S
C1492 C1493 1.327 . S
C1493 H1487 0.950 . S
C1493 C1492 1.327 . S
C1493 C1497 1.429 . S
C1494 C1477 1.574 . S
C1494 H1488 0.949 . S
C1494 C1498 1.368 . S
C1495 C1476 1.429 . S
C1495 C1489 1.429 . S
C1495 C1496 1.523 . S
C1496 C1477 1.368 . S
C1496 C1490 1.368 . S
C1496 C1495 1.523 . S
C1497 C1481 1.429 . S
C1497 C1493 1.429 . S
C1497 C1498 1.523 . S
C1498 C1482 1.368 . S
C1498 C1494 1.368 . S
C1498 C1497 1.523 . S
H1499 C1474 0.950 . S
H1500 C1476 0.950 . S
H1501 C1477 0.949 . S
H1502 C1479 0.950 . S
H1503 C1481 0.950 . S
C1504 C1505 1.334 1_655 S
C1504 C1506 1.327 . S
C1504 H1529 0.950 . S
C1505 C1504 1.334 1_455 S
C1505 C1521 1.345 1_455 S
C1506 C1504 1.327 . S
C1506 C1525 1.429 . S
C1506 H1530 0.950 . S
C1507 C1524 1.574 . S
C1507 C1526 1.368 . S
C1507 H1531 0.949 . S
H1508 C1512 0.949 . S
C1509 C1510 1.349 . S
C1509 C1511 1.327 . S
C1509 H1532 0.950 . S
C1510 C1509 1.349 . S
C1510 C1522 1.349 . S
C1511 C1509 1.327 . S
C1511 C1527 1.429 . S
C1511 H1533 0.950 . S
C1512 H1508 0.949 . S
C1512 C1520 1.574 . S
C1512 C1528 1.368 . S
H1513 C1521 0.950 1_455 S
H1514 C1519 0.950 . S
H1515 C1520 0.949 . S
H1516 C1522 0.950 . S
H1517 C1523 0.950 . S
H1518 C1524 0.949 . S
C1519 H1514 0.950 . S
C1519 C1521 1.327 . S
C1519 C1525 1.429 . S
C1520 C1512 1.574 . S
C1520 H1515 0.949 . S
C1520 C1526 1.368 . S
C1521 C1505 1.345 1_655 S
C1521 H1513 0.950 1_655 S
C1521 C1519 1.327 . S
C1522 C1510 1.349 . S
C1522 H1516 0.950 . S
C1522 C1523 1.327 . S
C1523 H1517 0.950 . S
C1523 C1522 1.327 . S
C1523 C1527 1.429 . S
C1524 C1507 1.574 . S
C1524 H1518 0.949 . S
C1524 C1528 1.368 . S
C1525 C1506 1.429 . S
C1525 C1519 1.429 . S
C1525 C1526 1.523 . S
C1526 C1507 1.368 . S
C1526 C1520 1.368 . S
C1526 C1525 1.523 . S
C1527 C1511 1.429 . S
C1527 C1523 1.429 . S
C1527 C1528 1.523 . S
C1528 C1512 1.368 . S
C1528 C1524 1.368 . S
C1528 C1527 1.523 . S
H1529 C1504 0.950 . S
H1530 C1506 0.950 . S
H1531 C1507 0.949 . S
H1532 C1509 0.950 . S
H1533 C1511 0.950 . S
C1534 C1535 1.357 . S
C1534 C1536 1.327 1_545 S
C1534 H1559 0.950 . S
C1535 C1534 1.357 . S
C1535 C1551 1.321 1_545 S
C1536 C1534 1.327 1_565 S
C1536 C1555 1.429 . S
C1536 H1560 0.950 . S
C1537 C1554 1.574 . S
C1537 C1556 1.368 . S
C1537 H1561 0.949 . S
H1538 C1542 0.949 . S
C1539 C1540 1.349 . S
C1539 C1541 1.327 . S
C1539 H1562 0.950 . S
C1540 C1539 1.349 . S
C1540 C1552 1.349 . S
C1541 C1539 1.327 . S
C1541 C1557 1.429 . S
C1541 H1563 0.950 . S
C1542 H1538 0.949 . S
C1542 C1550 1.574 . S
C1542 C1558 1.368 . S
H1543 C1551 0.950 . S
H1544 C1549 0.950 . S
H1545 C1550 0.949 . S
H1546 C1552 0.950 . S
H1547 C1553 0.950 . S
H1548 C1554 0.949 . S
C1549 H1544 0.950 . S
C1549 C1551 1.327 . S
C1549 C1555 1.429 . S
C1550 C1542 1.574 . S
C1550 H1545 0.949 . S
C1550 C1556 1.368 . S
C1551 C1535 1.321 1_565 S
C1551 H1543 0.950 . S
C1551 C1549 1.327 . S
C1552 C1540 1.349 . S
C1552 H1546 0.950 . S
C1552 C1553 1.327 . S
C1553 H1547 0.950 . S
C1553 C1552 1.327 . S
C1553 C1557 1.429 . S
C1554 C1537 1.574 . S
C1554 H1548 0.949 . S
C1554 C1558 1.368 . S
C1555 C1536 1.429 . S
C1555 C1549 1.429 . S
C1555 C1556 1.523 . S
C1556 C1537 1.368 . S
C1556 C1550 1.368 . S
C1556 C1555 1.523 . S
C1557 C1541 1.429 . S
C1557 C1553 1.429 . S
C1557 C1558 1.523 . S
C1558 C1542 1.368 . S
C1558 C1554 1.368 . S
C1558 C1557 1.523 . S
H1559 C1534 0.950 . S
H1560 C1536 0.950 . S
H1561 C1537 0.949 . S
H1562 C1539 0.950 . S
H1563 C1541 0.950 . S
C1564 C1565 1.349 . S
C1564 C1566 1.327 . S
C1564 H1589 0.950 . S
C1565 C1564 1.349 . S
C1565 C1581 1.349 . S
C1566 C1564 1.327 . S
C1566 C1585 1.429 . S
C1566 H1590 0.950 . S
C1567 C1584 1.574 . S
C1567 C1586 1.368 . S
C1567 H1591 0.949 . S
H1568 C1572 0.949 . S
C1569 C1570 1.349 . S
C1569 C1571 1.327 . S
C1569 H1592 0.950 . S
C1570 C1569 1.349 . S
C1570 C1582 1.349 . S
C1571 C1569 1.327 . S
C1571 C1587 1.429 . S
C1571 H1593 0.950 . S
C1572 H1568 0.949 . S
C1572 C1580 1.574 . S
C1572 C1588 1.368 . S
H1573 C1581 0.950 . S
H1574 C1579 0.950 . S
H1575 C1580 0.949 . S
H1576 C1582 0.950 . S
H1577 C1583 0.950 . S
H1578 C1584 0.949 . S
C1579 H1574 0.950 . S
C1579 C1581 1.327 . S
C1579 C1585 1.429 . S
C1580 C1572 1.574 . S
C1580 H1575 0.949 . S
C1580 C1586 1.368 . S
C1581 C1565 1.349 . S
C1581 H1573 0.950 . S
C1581 C1579 1.327 . S
C1582 C1570 1.349 . S
C1582 H1576 0.950 . S
C1582 C1583 1.327 . S
C1583 H1577 0.950 . S
C1583 C1582 1.327 . S
C1583 C1587 1.429 . S
C1584 C1567 1.574 . S
C1584 H1578 0.949 . S
C1584 C1588 1.368 . S
C1585 C1566 1.429 . S
C1585 C1579 1.429 . S
C1585 C1586 1.523 . S
C1586 C1567 1.368 . S
C1586 C1580 1.368 . S
C1586 C1585 1.523 . S
C1587 C1571 1.429 . S
C1587 C1583 1.429 . S
C1587 C1588 1.523 . S
C1588 C1572 1.368 . S
C1588 C1584 1.368 . S
C1588 C1587 1.523 . S
H1589 C1564 0.950 . S
H1590 C1566 0.950 . S
H1591 C1567 0.949 . S
H1592 C1569 0.950 . S
H1593 C1571 0.950 . S
C1594 C1595 1.349 . S
C1594 C1596 1.327 . S
C1594 H1619 0.950 . S
C1595 C1594 1.349 . S
C1595 C1611 1.349 . S
C1596 C1594 1.327 . S
C1596 C1615 1.429 . S
C1596 H1620 0.950 . S
C1597 C1614 1.574 . S
C1597 C1616 1.368 . S
C1597 H1621 0.949 . S
H1598 C1602 0.949 . S
C1599 C1600 1.349 . S
C1599 C1601 1.327 . S
C1599 H1622 0.950 . S
C1600 C1599 1.349 . S
C1600 C1612 1.349 . S
C1601 C1599 1.327 . S
C1601 C1617 1.429 . S
C1601 H1623 0.950 . S
C1602 H1598 0.949 . S
C1602 C1610 1.574 . S
C1602 C1618 1.368 . S
H1603 C1611 0.950 . S
H1604 C1609 0.950 . S
H1605 C1610 0.949 . S
H1606 C1612 0.950 . S
H1607 C1613 0.950 . S
H1608 C1614 0.949 . S
C1609 H1604 0.950 . S
C1609 C1611 1.327 . S
C1609 C1615 1.429 . S
C1610 C1602 1.574 . S
C1610 H1605 0.949 . S
C1610 C1616 1.368 . S
C1611 C1595 1.349 . S
C1611 H1603 0.950 . S
C1611 C1609 1.327 . S
C1612 C1600 1.349 . S
C1612 H1606 0.950 . S
C1612 C1613 1.327 . S
C1613 H1607 0.950 . S
C1613 C1612 1.327 . S
C1613 C1617 1.429 . S
C1614 C1597 1.574 . S
C1614 H1608 0.949 . S
C1614 C1618 1.368 . S
C1615 C1596 1.429 . S
C1615 C1609 1.429 . S
C1615 C1616 1.523 . S
C1616 C1597 1.368 . S
C1616 C1610 1.368 . S
C1616 C1615 1.523 . S
C1617 C1601 1.429 . S
C1617 C1613 1.429 . S
C1617 C1618 1.523 . S
C1618 C1602 1.368 . S
C1618 C1614 1.368 . S
C1618 C1617 1.523 . S
H1619 C1594 0.950 . S
H1620 C1596 0.950 . S
H1621 C1597 0.949 . S
H1622 C1599 0.950 . S
H1623 C1601 0.950 . S
C1624 C1625 1.338 1_655 S
C1624 C1626 1.327 . S
C1624 H1649 0.950 . S
C1625 C1624 1.338 1_455 S
C1625 C1641 1.340 1_455 S
C1626 C1624 1.327 . S
C1626 C1645 1.429 . S
C1626 H1650 0.950 . S
C1627 C1644 1.574 . S
C1627 C1646 1.368 . S
C1627 H1651 0.949 . S
H1628 C1632 0.949 . S
C1629 C1630 1.349 . S
C1629 C1631 1.327 . S
C1629 H1652 0.950 . S
C1630 C1629 1.349 . S
C1630 C1642 1.349 . S
C1631 C1629 1.327 . S
C1631 C1647 1.429 . S
C1631 H1653 0.950 . S
C1632 H1628 0.949 . S
C1632 C1640 1.574 . S
C1632 C1648 1.368 . S
H1633 C1641 0.951 1_455 S
H1634 C1639 0.950 . S
H1635 C1640 0.949 . S
H1636 C1642 0.950 . S
H1637 C1643 0.950 . S
H1638 C1644 0.949 . S
C1639 H1634 0.950 . S
C1639 C1641 1.327 . S
C1639 C1645 1.429 . S
C1640 C1632 1.574 . S
C1640 H1635 0.949 . S
C1640 C1646 1.368 . S
C1641 C1625 1.340 1_655 S
C1641 H1633 0.951 1_655 S
C1641 C1639 1.327 . S
C1642 C1630 1.349 . S
C1642 H1636 0.950 . S
C1642 C1643 1.327 . S
C1643 H1637 0.950 . S
C1643 C1642 1.327 . S
C1643 C1647 1.429 . S
C1644 C1627 1.574 . S
C1644 H1638 0.949 . S
C1644 C1648 1.368 . S
C1645 C1626 1.429 . S
C1645 C1639 1.429 . S
C1645 C1646 1.523 . S
C1646 C1627 1.368 . S
C1646 C1640 1.368 . S
C1646 C1645 1.523 . S
C1647 C1631 1.429 . S
C1647 C1643 1.429 . S
C1647 C1648 1.523 . S
C1648 C1632 1.368 . S
C1648 C1644 1.368 . S
C1648 C1647 1.523 . S
H1649 C1624 0.950 . S
H1650 C1626 0.950 . S
H1651 C1627 0.949 . S
H1652 C1629 0.950 . S
H1653 C1631 0.950 . S
C1654 C1655 1.349 . S
C1654 C1656 1.327 . S
C1654 H1679 0.950 . S
C1655 C1654 1.349 . S
C1655 C1671 1.349 . S
C1656 C1654 1.327 . S
C1656 C1675 1.429 . S
C1656 H1680 0.950 . S
C1657 C1674 1.574 . S
C1657 C1676 1.368 . S
C1657 H1681 0.949 . S
H1658 C1662 0.949 . S
C1659 C1660 1.324 1_565 S
C1659 C1661 1.327 . S
C1659 H1682 0.950 . S
C1660 C1659 1.324 1_545 S
C1660 C1672 1.354 . S
C1661 C1659 1.327 . S
C1661 C1677 1.429 . S
C1661 H1683 0.950 . S
C1662 H1658 0.949 . S
C1662 C1670 1.574 . S
C1662 C1678 1.368 . S
H1663 C1671 0.950 . S
H1664 C1669 0.950 . S
H1665 C1670 0.949 . S
H1666 C1672 0.950 . S
H1667 C1673 0.950 . S
H1668 C1674 0.949 . S
C1669 H1664 0.950 . S
C1669 C1671 1.327 . S
C1669 C1675 1.429 . S
C1670 C1662 1.574 . S
C1670 H1665 0.949 . S
C1670 C1676 1.368 . S
C1671 C1655 1.349 . S
C1671 H1663 0.950 . S
C1671 C1669 1.327 . S
C1672 C1660 1.354 . S
C1672 H1666 0.950 . S
C1672 C1673 1.327 1_545 S
C1673 H1667 0.950 . S
C1673 C1672 1.327 1_565 S
C1673 C1677 1.429 . S
C1674 C1657 1.574 . S
C1674 H1668 0.949 . S
C1674 C1678 1.368 . S
C1675 C1656 1.429 . S
C1675 C1669 1.429 . S
C1675 C1676 1.523 . S
C1676 C1657 1.368 . S
C1676 C1670 1.368 . S
C1676 C1675 1.523 . S
C1677 C1661 1.429 . S
C1677 C1673 1.429 . S
C1677 C1678 1.523 . S
C1678 C1662 1.368 . S
C1678 C1674 1.368 . S
C1678 C1677 1.523 . S
H1679 C1654 0.950 . S
H1680 C1656 0.950 . S
H1681 C1657 0.949 . S
H1682 C1659 0.950 . S
H1683 C1661 0.950 . S
C1684 C1685 1.349 . S
C1684 C1686 1.327 . S
C1684 H1709 0.950 . S
C1685 C1684 1.349 . S
C1685 C1701 1.349 . S
C1686 C1684 1.327 . S
C1686 C1705 1.429 . S
C1686 H1710 0.950 . S
C1687 C1704 1.574 . S
C1687 C1706 1.368 . S
C1687 H1711 0.949 . S
H1688 C1692 0.949 . S
C1689 C1690 1.349 . S
C1689 C1691 1.327 . S
C1689 H1712 0.950 . S
C1690 C1689 1.349 . S
C1690 C1702 1.349 . S
C1691 C1689 1.327 . S
C1691 C1707 1.429 . S
C1691 H1713 0.950 . S
C1692 H1688 0.949 . S
C1692 C1700 1.574 . S
C1692 C1708 1.368 . S
H1693 C1701 0.950 . S
H1694 C1699 0.950 . S
H1695 C1700 0.949 . S
H1696 C1702 0.950 . S
H1697 C1703 0.950 . S
H1698 C1704 0.949 . S
C1699 H1694 0.950 . S
C1699 C1701 1.327 . S
C1699 C1705 1.429 . S
C1700 C1692 1.574 . S
C1700 H1695 0.949 . S
C1700 C1706 1.368 . S
C1701 C1685 1.349 . S
C1701 H1693 0.950 . S
C1701 C1699 1.327 . S
C1702 C1690 1.349 . S
C1702 H1696 0.950 . S
C1702 C1703 1.327 . S
C1703 H1697 0.950 . S
C1703 C1702 1.327 . S
C1703 C1707 1.429 . S
C1704 C1687 1.574 . S
C1704 H1698 0.949 . S
C1704 C1708 1.368 . S
C1705 C1686 1.429 . S
C1705 C1699 1.429 . S
C1705 C1706 1.523 . S
C1706 C1687 1.368 . S
C1706 C1700 1.368 . S
C1706 C1705 1.523 . S
C1707 C1691 1.429 . S
C1707 C1703 1.429 . S
C1707 C1708 1.523 . S
C1708 C1692 1.368 . S
C1708 C1704 1.368 . S
C1708 C1707 1.523 . S
H1709 C1684 0.950 . S
H1710 C1686 0.950 . S
H1711 C1687 0.949 . S
H1712 C1689 0.950 . S
H1713 C1691 0.950 . S
C1714 C1715 1.349 . S
C1714 C1716 1.327 . S
C1714 H1739 0.950 . S
C1715 C1714 1.349 . S
C1715 C1731 1.349 . S
C1716 C1714 1.327 . S
C1716 C1735 1.429 . S
C1716 H1740 0.950 . S
C1717 C1734 1.574 . S
C1717 C1736 1.368 . S
C1717 H1741 0.949 . S
H1718 C1722 0.949 . S
C1719 C1720 1.349 . S
C1719 C1721 1.327 . S
C1719 H1742 0.950 . S
C1720 C1719 1.349 . S
C1720 C1732 1.349 . S
C1721 C1719 1.327 . S
C1721 C1737 1.429 . S
C1721 H1743 0.950 . S
C1722 H1718 0.949 . S
C1722 C1730 1.574 . S
C1722 C1738 1.368 . S
H1723 C1731 0.950 . S
H1724 C1729 0.950 . S
H1725 C1730 0.949 . S
H1726 C1732 0.950 . S
H1727 C1733 0.950 . S
H1728 C1734 0.949 . S
C1729 H1724 0.950 . S
C1729 C1731 1.327 . S
C1729 C1735 1.429 . S
C1730 C1722 1.574 . S
C1730 H1725 0.949 . S
C1730 C1736 1.368 . S
C1731 C1715 1.349 . S
C1731 H1723 0.950 . S
C1731 C1729 1.327 . S
C1732 C1720 1.349 . S
C1732 H1726 0.950 . S
C1732 C1733 1.327 . S
C1733 H1727 0.950 . S
C1733 C1732 1.327 . S
C1733 C1737 1.429 . S
C1734 C1717 1.574 . S
C1734 H1728 0.949 . S
C1734 C1738 1.368 . S
C1735 C1716 1.429 . S
C1735 C1729 1.429 . S
C1735 C1736 1.523 . S
C1736 C1717 1.368 . S
C1736 C1730 1.368 . S
C1736 C1735 1.523 . S
C1737 C1721 1.429 . S
C1737 C1733 1.429 . S
C1737 C1738 1.523 . S
C1738 C1722 1.368 . S
C1738 C1734 1.368 . S
C1738 C1737 1.523 . S
H1739 C1714 0.950 . S
H1740 C1716 0.950 . S
H1741 C1717 0.949 . S
H1742 C1719 0.950 . S
H1743 C1721 0.950 . S
C545 C33 1.575 . S
C550 C237 1.575 . S
C575 C271 1.575 . S
C580 C67 1.575 . S
C605 C169 1.575 . S
C610 C101 1.575 . S
C635 C203 1.575 . S
C640 C135 1.575 . S
C665 C305 1.575 . S
C670 C509 1.575 . S
C695 C339 1.575 . S
C700 C543 1.575 . S
C725 C373 1.575 . S
C730 C441 1.575 . S
C755 C475 1.575 . S
C760 C407 1.575 . S
C785 C5 1.441 . S
C790 C104 1.456 . S
C815 C39 1.441 . S
C820 C2 1.456 . S
C845 C36 1.456 . S
C850 C73 1.441 . S
C875 C107 1.441 . S
C880 C70 1.456 . S
C905 C172 1.456 . S
C910 C141 1.441 . S
C935 C206 1.456 . S
C940 C175 1.441 . S
C965 C240 1.456 . S
C970 C209 1.441 . S
C995 C138 1.456 . S
C1000 C243 1.441 . S
C1025 C277 1.441 . S
C1030 C376 1.456 . S
C1055 C274 1.456 . S
C1060 C311 1.441 . S
C1085 C345 1.441 . S
C1090 C308 1.456 . S
C1115 C379 1.441 . S
C1120 C342 1.456 . S
C1145 C413 1.441 . S
C1150 C444 1.456 . S
C1175 C447 1.441 . S
C1180 C478 1.456 . S
C1205 C481 1.441 . S
C1210 C512 1.456 . S
C1235 C410 1.456 . S
C1240 C515 1.441 . S
C1265 C530 1.761 . S
C1270 C20 1.761 . S
C1295 C54 1.761 . S
C1300 C428 1.761 . S
C1325 C462 1.761 . S
C1330 C88 1.777 . S
C1355 C122 1.777 . S
C1360 C496 1.761 . S
C1385 C326 1.761 . S
C1390 C156 1.761 . S
C1415 C190 1.761 . S
C1420 C360 1.761 . S
C1445 C224 1.777 . S
C1450 C394 1.761 . S
C1475 C292 1.761 . S
C1480 C258 1.777 . S
C1505 C145 1.218 . S
C1510 C383 1.197 . S
C1535 C179 1.218 . S
C1540 C281 1.197 . S
C1565 C213 1.197 . S
C1570 C315 1.197 . S
C1595 C349 1.197 . S
C1600 C247 1.197 . S
C1625 C9 1.218 . S
C1630 C451 1.197 . S
C1655 C485 1.197 . S
C1660 C43 1.218 . S
C1685 C77 1.197 . S
C1690 C519 1.197 . S
C1715 C111 1.197 . S
C1720 C417 1.197 . S
