# Generated by pormake.
# Topology tfs, (6)-cn, num edge types: 1
# Building blocks:
#     Node 0, Type 0, BuildingBlock: BETDEL_clean_sbu_0, # of connection points: 6
#     Node 1, Type 0, BuildingBlock: BETDEL_clean_sbu_0, # of connection points: 6
#     Node 2, Type 0, BuildingBlock: BETDEL_clean_sbu_0, # of connection points: 6
#     Node 3, Type 0, BuildingBlock: BETDEL_clean_sbu_0, # of connection points: 6
#     Node 4, Type 0, BuildingBlock: BETDEL_clean_sbu_0, # of connection points: 6
#     Node 5, Type 0, BuildingBlock: BETDEL_clean_sbu_0, # of connection points: 6
#     Edge 6, Type (0, 0), BuildingBlock: UVAHIK_clean_linker_0, # of connection points: 2
#     Edge 7, Type (0, 0), BuildingBlock: UVAHIK_clean_linker_0, # of connection points: 2
#     Edge 8, Type (0, 0), BuildingBlock: UVAHIK_clean_linker_0, # of connection points: 2
#     Edge 9, Type (0, 0), BuildingBlock: UVAHIK_clean_linker_0, # of connection points: 2
#     Edge 10, Type (0, 0), BuildingBlock: UVAHIK_clean_linker_0, # of connection points: 2
#     Edge 11, Type (0, 0), BuildingBlock: UVAHIK_clean_linker_0, # of connection points: 2
#     Edge 12, Type (0, 0), BuildingBlock: UVAHIK_clean_linker_0, # of connection points: 2
#     Edge 13, Type (0, 0), BuildingBlock: UVAHIK_clean_linker_0, # of connection points: 2
#     Edge 14, Type (0, 0), BuildingBlock: UVAHIK_clean_linker_0, # of connection points: 2
#     Edge 15, Type (0, 0), BuildingBlock: UVAHIK_clean_linker_0, # of connection points: 2
#     Edge 16, Type (0, 0), BuildingBlock: UVAHIK_clean_linker_0, # of connection points: 2
#     Edge 17, Type (0, 0), BuildingBlock: UVAHIK_clean_linker_0, # of connection points: 2
#     Edge 18, Type (0, 0), BuildingBlock: UVAHIK_clean_linker_0, # of connection points: 2
#     Edge 19, Type (0, 0), BuildingBlock: UVAHIK_clean_linker_0, # of connection points: 2
#     Edge 20, Type (0, 0), BuildingBlock: UVAHIK_clean_linker_0, # of connection points: 2
#     Edge 21, Type (0, 0), BuildingBlock: UVAHIK_clean_linker_0, # of connection points: 2
#     Edge 22, Type (0, 0), BuildingBlock: UVAHIK_clean_linker_0, # of connection points: 2
#     Edge 23, Type (0, 0), BuildingBlock: UVAHIK_clean_linker_0, # of connection points: 2
# Relax obj value: 0.417
# Max RMSD: 0.272
# Mean RMSD: 0.253
data_MOF--net-tfs--node1-BETDEL_clean_sbu_0--edge1-UVAHIK_clean_linker_0
_symmetry_space_group_name_H-M    P1
_symmetry_Int_Tables_number       1
_symmetry_cell_setting            triclinic
loop_
_symmetry_equiv_pos_as_xyz
'x, y, z'
_cell_length_a     56.933603
_cell_length_b     56.213575
_cell_length_c     18.980089
_cell_angle_alpha  90.147156
_cell_angle_beta   91.356762
_cell_angle_gamma 121.41274
loop_
_atom_site_label
_atom_site_type_symbol
_atom_site_fract_x
_atom_site_fract_y
_atom_site_fract_z
_atom_type_partial_charge
Dy0 Dy 0.17001 0.4411 0.18115 0.0
C1 C 0.20888 0.36848 0.12339 0.0
C2 C 0.1549 0.47861 0.2151 0.0
Dy3 Dy 0.19384 0.40558 0.15929 0.0
O4 O 0.14582 0.4617 0.16129 0.0
O5 O 0.17179 0.47444 0.2526 0.0
O6 O 0.15372 0.43347 0.07024 0.0
O7 O 0.19098 0.43548 0.09223 0.0
C8 C 0.17288 0.43041 0.0451 0.0
C9 C 0.19231 0.41801 0.29472 0.0
O10 O 0.23289 0.44646 0.15473 0.0
O11 O 0.21519 0.47208 0.19959 0.0
O12 O 0.19234 0.36516 0.17335 0.0
O13 O 0.21691 0.39193 0.09219 0.0
O14 O 0.21184 0.41577 0.26834 0.0
O15 O 0.17336 0.4117 0.24901 0.0
O16 O 0.13249 0.39891 0.19188 0.0
O17 O 0.15008 0.37844 0.12277 0.0
C18 C 0.23627 0.46984 0.18113 0.0
C19 C 0.12888 0.37826 0.15025 0.0
Dy20 Dy 0.74681 0.17718 0.95735 0.0
C21 C 0.85971 0.23311 0.86772 0.0
C22 C 0.69444 0.15213 0.00384 0.0
Dy23 Dy 0.80967 0.21001 0.92792 0.0
O24 O 0.70291 0.14185 0.95666 0.0
O25 O 0.71468 0.17623 0.02612 0.0
O26 O 0.73756 0.15918 0.84718 0.0
O27 O 0.77234 0.19853 0.86583 0.0
C28 C 0.7597 0.17931 0.82031 0.0
C29 C 0.80206 0.20313 0.06878 0.0
O30 O 0.80123 0.2448 0.92558 0.0
O31 O 0.75599 0.221 0.96415 0.0
O32 O 0.84894 0.2469 0.89134 0.0
O33 O 0.84273 0.20658 0.87555 0.0
O34 O 0.82618 0.21669 0.04127 0.0
O35 O 0.78448 0.19468 0.01911 0.0
O36 O 0.76016 0.14806 0.99004 0.0
O37 O 0.79501 0.16469 0.91013 0.0
C38 C 0.77897 0.24432 0.94741 0.0
C39 C 0.77731 0.14474 0.95152 0.0
Dy40 Dy 0.54499 0.75217 0.13001 0.0
C41 C 0.62361 0.86224 0.02712 0.0
C42 C 0.50609 0.70407 0.18996 0.0
Dy43 Dy 0.5881 0.81481 0.09584 0.0
O44 O 0.5194 0.70549 0.134 0.0
O45 O 0.5142 0.72895 0.21351 0.0
O46 O 0.5468 0.73905 0.01929 0.0
O47 O 0.55445 0.7792 0.03767 0.0
C48 C 0.55508 0.76321 0.9918 0.0
C49 C 0.5873 0.80628 0.23717 0.0
O50 O 0.54877 0.81568 0.0948 0.0
O51 O 0.51852 0.77061 0.13395 0.0
O52 O 0.62643 0.84091 0.03461 0.0
O53 O 0.60132 0.85762 0.05688 0.0
O54 O 0.60254 0.83056 0.20906 0.0
O55 O 0.57448 0.78929 0.18737 0.0
O56 O 0.58461 0.75427 0.15012 0.0
O57 O 0.60942 0.79106 0.07498 0.0
C58 C 0.52418 0.79591 0.11681 0.0
C59 C 0.60608 0.76908 0.11002 0.0
Dy60 Dy 0.78138 0.54638 0.01063 0.0
C61 C 0.74981 0.62721 0.98384 0.0
C62 C 0.79077 0.50426 0.03883 0.0
Dy63 Dy 0.76126 0.58578 1.0009 0.0
O64 O 0.80449 0.52436 0.99543 0.0
O65 O 0.77229 0.50755 0.06839 0.0
O66 O 0.80194 0.56053 0.90761 0.0
O67 O 0.76518 0.55965 0.92262 0.0
C68 C 0.78458 0.56659 0.88101 0.0
C69 C 0.75708 0.56401 0.1291 0.0
O70 O 0.72081 0.54649 0.97518 0.0
O71 O 0.7358 0.51632 0.00276 0.0
O72 O 0.76413 0.62554 0.03556 0.0
O73 O 0.74222 0.60648 0.93993 0.0
O74 O 0.73917 0.56905 0.10124 0.0
O75 O 0.77708 0.57216 0.08887 0.0
O76 O 0.81862 0.58511 0.05082 0.0
O77 O 0.8076 0.61346 0.98949 0.0
C78 C 0.71592 0.52096 0.98505 0.0
C79 C 0.82607 0.60945 0.02268 0.0
Dy80 Dy 0.23637 0.8139 0.11692 0.0
C81 C 0.12016 0.76843 0.03604 0.0
C82 C 0.28772 0.82493 0.1585 0.0
Dy83 Dy 0.17348 0.79209 0.08582 0.0
O84 O 0.28267 0.83854 0.11158 0.0
O85 O 0.26467 0.80593 0.18505 0.0
O86 O 0.24625 0.83096 0.00896 0.0
O87 O 0.20743 0.79553 0.02473 0.0
C88 C 0.22225 0.81381 0.98072 0.0
C89 C 0.18489 0.8005 0.22599 0.0
O90 O 0.17323 0.75202 0.08519 0.0
O91 O 0.21856 0.76796 0.12139 0.0
O92 O 0.1301 0.7563 0.0735 0.0
O93 O 0.13979 0.7939 0.02322 0.0
O94 O 0.16081 0.79201 0.19776 0.0
O95 O 0.20105 0.80462 0.17721 0.0
O96 O 0.23346 0.85102 0.14339 0.0
O97 O 0.19508 0.83851 0.07055 0.0
C98 C 0.19303 0.7476 0.10597 0.0
C99 C 0.21746 0.85757 0.1068 0.0
Dy100 Dy 0.43215 0.19265 0.98731 0.0
C101 C 0.36613 0.23912 0.06064 0.0
C102 C 0.47037 0.17867 0.96496 0.0
Dy103 Dy 0.39425 0.21629 0.00892 0.0
O104 O 0.47297 0.19743 0.00965 0.0
O105 O 0.44695 0.16785 0.93014 0.0
O106 O 0.41999 0.17305 0.09294 0.0
O107 O 0.42298 0.21138 0.07675 0.0
C108 C 0.4165 0.19208 0.12009 0.0
C109 C 0.39625 0.20758 0.86977 0.0
O110 O 0.43635 0.25519 0.01517 0.0
O111 O 0.46025 0.23745 0.96094 0.0
O112 O 0.38645 0.25112 0.01807 0.0
O113 O 0.36113 0.21438 0.07622 0.0
O114 O 0.38117 0.21636 0.89551 0.0
O115 O 0.4083 0.20339 0.92006 0.0
O116 O 0.39103 0.15497 0.96349 0.0
O117 O 0.36581 0.16996 0.02372 0.0
C118 C 0.45874 0.25873 0.98507 0.0
C119 C 0.36812 0.14987 0.99362 0.0
C120 C 0.35748 0.27789 0.05751 0.0
C121 C 0.34972 0.2512 0.08095 0.0
C122 C 0.34102 0.28892 0.06986 0.0
C123 C 0.26969 0.26819 0.10419 0.0
H124 H 0.30343 0.34777 0.13637 0.0
C125 C 0.21101 0.32629 0.15106 0.0
C126 C 0.22058 0.35086 0.11268 0.0
C127 C 0.22481 0.31178 0.149 0.0
C128 C 0.29376 0.32553 0.12706 0.0
H129 H 0.31913 0.21529 0.13738 0.0
H130 H 0.29025 0.2349 0.16035 0.0
H131 H 0.33205 0.32735 0.13822 0.0
H132 H 0.25106 0.37884 0.03951 0.0
H133 H 0.27532 0.35361 0.03636 0.0
H134 H 0.23127 0.26663 0.09372 0.0
C135 C 0.30896 0.24709 0.13151 0.0
C136 C 0.31011 0.31381 0.12814 0.0
C137 C 0.32553 0.23596 0.1189 0.0
C138 C 0.24332 0.35998 0.06966 0.0
C139 C 0.25727 0.34568 0.06823 0.0
C140 C 0.25324 0.27993 0.10395 0.0
C141 C 0.31644 0.27361 0.10641 0.0
C142 C 0.2984 0.28514 0.11485 0.0
C143 C 0.24854 0.32187 0.10922 0.0
C144 C 0.26528 0.30881 0.11364 0.0
H145 H 0.37598 0.29005 0.02781 0.0
H146 H 0.34717 0.30915 0.04857 0.0
H147 H 0.26007 0.24607 0.09322 0.0
H148 H 0.19347 0.31886 0.18462 0.0
H149 H 0.21772 0.29348 0.18104 0.0
C150 C 0.07761 0.35571 0.15066 0.0
C151 C 0.10108 0.35772 0.12225 0.0
C152 C 0.052 0.33985 0.11587 0.0
C153 C 0.01503 0.28851 0.96787 0.0
H154 H 0.96962 0.32113 0.97081 0.0
C155 C 0.90613 0.27466 0.85079 0.0
C156 C 0.88941 0.2458 0.85919 0.0
C157 C 0.93436 0.28817 0.86584 0.0
C158 C 0.98227 0.31201 0.96777 0.0
H159 H 0.11591 0.34355 0.03698 0.0
H160 H 0.07185 0.31702 0.97552 0.0
H161 H 0.01275 0.34331 0.03719 0.0
H162 H 0.8891 0.2079 0.88196 0.0
H163 H 0.93789 0.23135 0.91133 0.0
H164 H 0.985 0.25787 0.89578 0.0
C165 C 0.07281 0.32701 0.02524 0.0
C166 C 0.00678 0.32439 0.00762 0.0
C167 C 0.09822 0.3424 0.06058 0.0
C168 C 0.90162 0.23024 0.87523 0.0
C169 C 0.92972 0.24378 0.892 0.0
C170 C 0.99069 0.27637 0.92688 0.0
C171 C 0.04951 0.32615 0.05135 0.0
C172 C 0.02329 0.3126 0.00908 0.0
C173 C 0.94611 0.27307 0.89147 0.0
C174 C 0.97378 0.28775 0.92708 0.0
H175 H 0.07916 0.3671 0.19841 0.0
H176 H 0.03431 0.33898 0.13863 0.0
H177 H 0.02712 0.27872 0.96793 0.0
H178 H 0.89712 0.28702 0.83759 0.0
H179 H 0.94658 0.31065 0.86205 0.0
C180 C 0.76505 0.10041 0.00974 0.0
C181 C 0.77407 0.11703 0.94973 0.0
C182 C 0.7569 0.07236 0.00549 0.0
C183 C 0.74734 0.01413 0.98448 0.0
H184 H 0.68585 0.97653 0.85019 0.0
C185 C 0.67112 0.89514 0.98641 0.0
C186 C 0.64413 0.88891 0.99646 0.0
C187 C 0.69146 0.92176 0.9656 0.0
C188 C 0.70325 0.98673 0.8871 0.0
H189 H 0.78309 0.11803 0.83914 0.0
H190 H 0.76792 0.06842 0.83115 0.0
H191 H 0.71706 0.02703 0.84464 0.0
H192 H 0.61674 0.90479 0.98916 0.0
H193 H 0.65213 0.95114 0.95138 0.0
H194 H 0.73268 0.97399 0.02917 0.0
C195 C 0.76759 0.0773 0.88157 0.0
C196 C 0.72121 0.01554 0.88362 0.0
C197 C 0.77635 0.10561 0.88623 0.0
C198 C 0.63743 0.90914 0.98184 0.0
C199 C 0.65762 0.93556 0.95984 0.0
C200 C 0.72961 0.98526 0.9873 0.0
C201 C 0.75711 0.06031 0.94081 0.0
C202 C 0.74274 0.02961 0.93404 0.0
C203 C 0.68495 0.94231 0.95315 0.0
C204 C 0.70679 0.9715 0.94039 0.0
H205 H 0.76319 0.10881 0.05932 0.0
H206 H 0.74865 0.05968 0.05177 0.0
H207 H 0.76381 0.02455 0.02389 0.0
H208 H 0.67676 0.87983 0.99748 0.0
H209 H 0.7124 0.92651 0.96077 0.0
C210 C 0.7499 0.66844 0.03344 0.0
C211 C 0.73989 0.64685 0.98265 0.0
C212 C 0.73801 0.68472 0.03939 0.0
C213 C 0.71522 0.72327 0.02353 0.0
H214 H 0.63545 0.68069 0.02518 0.0
C215 C 0.64729 0.77258 0.05285 0.0
C216 C 0.62497 0.75872 0.09806 0.0
C217 C 0.66314 0.76095 0.03605 0.0
C218 C 0.65773 0.69289 0.02501 0.0
H219 H 0.71036 0.62608 0.89632 0.0
H220 H 0.68945 0.6545 0.90672 0.0
H221 H 0.66012 0.65737 0.99646 0.0
H222 H 0.60254 0.7222 0.16297 0.0
H223 H 0.63003 0.70214 0.13368 0.0
H224 H 0.71269 0.75873 0.05339 0.0
C225 C 0.70643 0.65874 0.94224 0.0
C226 C 0.67187 0.67959 0.00769 0.0
C227 C 0.71851 0.6426 0.93591 0.0
C228 C 0.61946 0.73347 0.12774 0.0
C229 C 0.63511 0.7218 0.11055 0.0
C230 C 0.70103 0.73667 0.04022 0.0
C231 C 0.71566 0.67961 0.99506 0.0
C232 C 0.7008 0.69451 0.00758 0.0
C233 C 0.65682 0.73512 0.06359 0.0
C234 C 0.67212 0.72151 0.04223 0.0
H235 H 0.76635 0.67216 0.07028 0.0
H236 H 0.74549 0.70044 0.08098 0.0
H237 H 0.73751 0.73539 0.02352 0.0
H238 H 0.65213 0.79205 0.02899 0.0
H239 H 0.67973 0.77171 0.99964 0.0
C240 C 0.0791 0.77053 0.99013 0.0
C241 C 0.09019 0.75577 0.02182 0.0
C242 C 0.05037 0.7588 0.9857 0.0
C243 C 0.989 0.7105 0.08089 0.0
H244 H 0.94533 0.69734 0.90929 0.0
C245 C 0.87432 0.62759 0.06663 0.0
C246 C 0.85582 0.6315 0.02529 0.0
C247 C 0.90261 0.64675 0.06582 0.0
C248 C 0.95723 0.70135 0.95793 0.0
H249 H 0.07987 0.71681 0.07101 0.0
H250 H 0.03039 0.69683 0.06418 0.0
H251 H 0.99582 0.72383 0.90526 0.0
H252 H 0.85278 0.65914 0.95124 0.0
H253 H 0.90254 0.69301 0.95034 0.0
H254 H 0.95093 0.6881 0.13393 0.0
C255 C 0.04367 0.71739 0.04301 0.0
C256 C 0.98613 0.71646 0.95548 0.0
C257 C 0.07208 0.72884 0.04657 0.0
C258 C 0.86643 0.65553 0.98397 0.0
C259 C 0.89496 0.67482 0.98301 0.0
C260 C 0.96032 0.69573 0.0835 0.0
C261 C 0.03247 0.73237 0.0139 0.0
C262 C 0.00223 0.72038 0.01667 0.0
C263 C 0.91344 0.67058 0.02379 0.0
C264 C 0.94395 0.69007 0.02176 0.0
H265 H 0.09257 0.79135 0.97075 0.0
H266 H 0.04222 0.77076 0.96282 0.0
H267 H 0.00092 0.71361 0.1291 0.0
H268 H 0.86703 0.60936 0.09905 0.0
H269 H 0.91607 0.64238 0.09693 0.0
C270 C 0.24892 0.90781 0.14246 0.0
C271 C 0.22622 0.88745 0.10193 0.0
C272 C 0.25912 0.93618 0.13271 0.0
C273 C 0.27049 0.99529 0.12181 0.0
H274 H 0.27967 0.01912 0.92765 0.0
C275 C 0.32524 0.11211 0.0499 0.0
C276 C 0.34557 0.12031 0.99919 0.0
C277 C 0.30629 0.08376 0.06104 0.0
C278 C 0.27719 0.01282 0.98217 0.0
H279 H 0.19581 0.88112 0.02107 0.0
H280 H 0.21358 0.93065 0.00429 0.0
H281 H 0.25485 0.96949 0.95327 0.0
H282 H 0.36104 0.10514 0.91814 0.0
H283 H 0.32815 0.05606 0.93733 0.0
H284 H 0.2938 0.03867 0.15056 0.0
C285 C 0.22365 0.92461 0.04317 0.0
C286 C 0.26271 0.98434 0.99692 0.0
C287 C 0.21335 0.89619 0.05316 0.0
C288 C 0.34572 0.09961 0.95779 0.0
C289 C 0.3267 0.07139 0.9685 0.0
C290 C 0.28488 0.02379 0.10705 0.0
C291 C 0.24695 0.94498 0.08201 0.0
C292 C 0.25967 0.97521 0.06688 0.0
C293 C 0.3071 0.06306 0.0212 0.0
C294 C 0.28892 0.03291 0.037 0.0
H295 H 0.25935 0.90191 0.1806 0.0
H296 H 0.27725 0.95125 0.16306 0.0
H297 H 0.26826 0.98899 0.1763 0.0
H298 H 0.3246 0.1275 0.08287 0.0
H299 H 0.29127 0.07804 0.1016 0.0
C300 C 0.20678 0.71208 0.11555 0.0
C301 C 0.1861 0.71859 0.11611 0.0
C302 C 0.20078 0.68528 0.1318 0.0
C303 C 0.14236 0.61218 0.1546 0.0
H304 H 0.19966 0.60504 0.24764 0.0
C305 C 0.16566 0.52332 0.27412 0.0
C306 C 0.15169 0.50294 0.22102 0.0
C307 C 0.16645 0.54864 0.27117 0.0
C308 C 0.18315 0.60654 0.223 0.0
H309 H 0.14286 0.70212 0.13389 0.0
H310 H 0.13253 0.65571 0.16481 0.0
H311 H 0.20792 0.65097 0.22259 0.0
H312 H 0.12644 0.49232 0.12534 0.0
H313 H 0.12856 0.53634 0.1186 0.0
H314 H 0.11717 0.56779 0.15784 0.0
C315 C 0.15326 0.67094 0.14981 0.0
C316 C 0.18813 0.63302 0.20712 0.0
C317 C 0.15918 0.69763 0.13217 0.0
C318 C 0.13733 0.50764 0.1672 0.0
C319 C 0.13842 0.53296 0.16363 0.0
C320 C 0.1372 0.58572 0.17167 0.0
C321 C 0.17405 0.66444 0.15057 0.0
C322 C 0.16804 0.63622 0.17124 0.0
C323 C 0.15359 0.55417 0.21449 0.0
C324 C 0.15774 0.58245 0.20463 0.0
H325 H 0.2277 0.72777 0.10291 0.0
H326 H 0.21721 0.68099 0.12969 0.0
H327 H 0.12637 0.61362 0.12665 0.0
H328 H 0.17686 0.52017 0.31631 0.0
H329 H 0.17779 0.56416 0.31226 0.0
C330 C 0.51227 0.18059 0.01075 0.0
C331 C 0.48909 0.16806 0.96501 0.0
C332 C 0.52838 0.16885 0.01958 0.0
C333 C 0.55075 0.12696 0.93557 0.0
H334 H 0.57698 0.12618 0.12574 0.0
C335 C 0.6448 0.11757 0.98005 0.0
C336 C 0.66534 0.14078 0.01869 0.0
C337 C 0.61737 0.11032 0.98252 0.0
C338 C 0.56959 0.12592 0.07245 0.0
H339 H 0.46493 0.134 0.89067 0.0
H340 H 0.49392 0.11364 0.9049 0.0
H341 H 0.53914 0.13429 0.10749 0.0
H342 H 0.67335 0.17304 0.09503 0.0
H343 H 0.62553 0.16051 0.09945 0.0
H344 H 0.58233 0.12042 0.90024 0.0
C345 C 0.49922 0.13237 0.93449 0.0
C346 C 0.54802 0.13058 0.06199 0.0
C347 C 0.48282 0.14408 0.92604 0.0
C348 C 0.65785 0.15512 0.06456 0.0
C349 C 0.63043 0.14779 0.06736 0.0
C350 C 0.57238 0.12232 0.94602 0.0
C351 C 0.52176 0.14439 0.98262 0.0
C352 C 0.53939 0.13255 0.99341 0.0
C353 C 0.61012 0.12608 0.02408 0.0
C354 C 0.58288 0.12315 0.01447 0.0
H355 H 0.51763 0.19915 0.04127 0.0
H356 H 0.54611 0.17898 0.0555 0.0
H357 H 0.54446 0.12841 0.88222 0.0
H358 H 0.6501 0.10605 0.94462 0.0
H359 H 0.60207 0.09333 0.94924 0.0
C360 C 0.47431 0.65269 0.18308 0.0
C361 C 0.48202 0.67841 0.21475 0.0
C362 C 0.44891 0.62904 0.1971 0.0
C363 C 0.38025 0.61199 0.23832 0.0
H364 H 0.36508 0.5364 0.24927 0.0
C365 C 0.26938 0.51682 0.23426 0.0
C366 C 0.26451 0.49384 0.19291 0.0
C367 C 0.29623 0.53885 0.2484 0.0
C368 C 0.36901 0.55739 0.24583 0.0
H369 H 0.47041 0.69946 0.28947 0.0
H370 H 0.42582 0.65802 0.31384 0.0
H371 H 0.4126 0.57557 0.25874 0.0
H372 H 0.28392 0.47607 0.13314 0.0
H373 H 0.33064 0.51481 0.15607 0.0
H374 H 0.33694 0.594 0.22228 0.0
C375 C 0.43932 0.6562 0.27786 0.0
C376 C 0.39616 0.57976 0.25167 0.0
C377 C 0.46483 0.67982 0.26419 0.0
C378 C 0.28699 0.49343 0.16544 0.0
C379 C 0.3138 0.51552 0.17916 0.0
C380 C 0.35314 0.58965 0.23201 0.0
C381 C 0.43079 0.63083 0.2427 0.0
C382 C 0.40205 0.60724 0.24669 0.0
C383 C 0.31874 0.53842 0.22109 0.0
C384 C 0.34726 0.56209 0.23428 0.0
H385 H 0.48729 0.65111 0.14485 0.0
H386 H 0.44279 0.6098 0.16885 0.0
H387 H 0.38423 0.63296 0.23311 0.0
H388 H 0.25249 0.51764 0.25677 0.0
H389 H 0.29936 0.55606 0.28145 0.0
C390 C 0.77218 0.45525 0.07708 0.0
C391 C 0.79257 0.47907 0.04329 0.0
C392 C 0.77162 0.43012 0.07221 0.0
C393 C 0.81302 0.3991 0.02776 0.0
H394 H 0.74229 0.33414 0.97439 0.0
C395 C 0.80284 0.29622 0.93326 0.0
C396 C 0.78005 0.27113 0.95578 0.0
C397 C 0.80453 0.32165 0.94526 0.0
C398 C 0.76214 0.35193 0.99023 0.0
H399 H 0.82905 0.49576 0.98077 0.0
H400 H 0.82828 0.45198 0.97286 0.0
H401 H 0.74563 0.37838 0.99857 0.0
H402 H 0.74108 0.25321 0.0084 0.0
H403 H 0.74427 0.2974 0.03026 0.0
H404 H 0.82954 0.37266 0.01985 0.0
C405 C 0.81272 0.45265 0.00308 0.0
C406 C 0.76404 0.37731 0.00414 0.0
C407 C 0.81314 0.4777 0.00746 0.0
C408 C 0.75885 0.27206 0.98978 0.0
C409 C 0.76063 0.29747 1.00215 0.0
C410 C 0.8111 0.37365 0.01433 0.0
C411 C 0.79158 0.42842 0.03397 0.0
C412 C 0.78951 0.40121 0.02276 0.0
C413 C 0.78356 0.32263 0.98045 0.0
C414 C 0.78565 0.34975 0.99506 0.0
H415 H 0.75605 0.45574 0.10495 0.0
H416 H 0.75529 0.41188 0.09734 0.0
H417 H 0.83289 0.4171 0.04261 0.0
H418 H 0.81951 0.29631 0.9067 0.0
H419 H 0.82226 0.34054 0.92667 0.0
C420 C 0.31634 0.80618 0.20525 0.0
C421 C 0.3145 0.82665 0.16763 0.0
C422 C 0.34036 0.80509 0.20404 0.0
C423 C 0.41455 0.84474 0.16149 0.0
H424 H 0.40226 0.77114 0.12555 0.0
C425 C 0.50337 0.82573 0.09526 0.0
C426 C 0.50155 0.80166 0.12308 0.0
C427 C 0.48143 0.83029 0.10144 0.0
C428 C 0.4062 0.79184 0.13659 0.0
H429 H 0.3368 0.86284 0.10208 0.0
H430 H 0.37883 0.86113 0.10053 0.0
H431 H 0.36314 0.77677 0.13998 0.0
H432 H 0.47539 0.76403 0.18137 0.0
H433 H 0.43799 0.7722 0.19319 0.0
H434 H 0.45774 0.85976 0.15856 0.0
C435 C 0.36176 0.84591 0.13097 0.0
C436 C 0.38367 0.79505 0.1449 0.0
C437 C 0.33765 0.84687 0.13179 0.0
C438 C 0.47752 0.78262 0.15818 0.0
C439 C 0.45584 0.78724 0.16472 0.0
C440 C 0.43721 0.84151 0.15367 0.0
C441 C 0.36315 0.82455 0.16552 0.0
C442 C 0.38749 0.82149 0.15785 0.0
C443 C 0.45725 0.81094 0.13585 0.0
C444 C 0.43334 0.81495 0.14159 0.0
H445 H 0.29882 0.79029 0.23324 0.0
H446 H 0.34089 0.78862 0.23215 0.0
H447 H 0.41823 0.86541 0.1716 0.0
H448 H 0.52155 0.84086 0.06801 0.0
H449 H 0.48323 0.8487 0.07811 0.0
C450 C 0.68393 0.4699 0.96319 0.0
C451 C 0.68761 0.49633 0.97559 0.0
C452 C 0.65759 0.44614 0.95764 0.0
C453 C 0.58711 0.41673 0.01445 0.0
H454 H 0.57034 0.36094 0.86942 0.0
C455 C 0.48224 0.31106 0.99738 0.0
C456 C 0.48329 0.28733 0.97938 0.0
C457 C 0.50564 0.33788 0.99233 0.0
C458 C 0.57471 0.37613 0.91078 0.0
H459 H 0.66634 0.51848 0.99157 0.0
H460 H 0.61994 0.47654 0.98301 0.0
H461 H 0.61375 0.40547 0.86812 0.0
H462 H 0.51003 0.2734 0.94255 0.0
H463 H 0.55061 0.31969 0.93531 0.0
H464 H 0.54851 0.38701 0.0587 0.0
C465 C 0.63767 0.47444 0.97722 0.0
C466 C 0.59957 0.40174 0.90972 0.0
C467 C 0.66418 0.49844 0.98167 0.0
C468 C 0.50829 0.29112 0.95634 0.0
C469 C 0.53163 0.31782 0.95168 0.0
C470 C 0.56226 0.39093 0.01592 0.0
C471 C 0.63413 0.44802 0.96517 0.0
C472 C 0.60632 0.42216 0.96223 0.0
C473 C 0.53069 0.34163 0.96937 0.0
C474 C 0.55596 0.37004 0.96484 0.0
H475 H 0.70148 0.46747 0.95802 0.0
H476 H 0.65561 0.4261 0.94914 0.0
H477 H 0.59181 0.43197 0.05595 0.0
H478 H 0.46332 0.30896 0.01514 0.0
H479 H 0.504 0.35568 0.00576 0.0
C480 C 0.19932 0.43048 0.94102 0.0
C481 C 0.17506 0.42667 0.96924 0.0
C482 C 0.20133 0.42874 0.86797 0.0
C483 C 0.15923 0.40245 0.70225 0.0
H484 H 0.22527 0.46032 0.61511 0.0
C485 C 0.16608 0.41691 0.40036 0.0
C486 C 0.19036 0.42121 0.37101 0.0
C487 C 0.16424 0.41811 0.47362 0.0
C488 C 0.20678 0.44388 0.63869 0.0
H489 H 0.1336 0.41704 0.94429 0.0
H490 H 0.13713 0.41417 0.81761 0.0
H491 H 0.22235 0.45944 0.74317 0.0
H492 H 0.23198 0.43101 0.3944 0.0
H493 H 0.22874 0.43292 0.52148 0.0
H494 H 0.14364 0.38692 0.59778 0.0
C495 C 0.15456 0.41837 0.85123 0.0
C496 C 0.20517 0.44331 0.71205 0.0
C497 C 0.15262 0.42022 0.92382 0.0
C498 C 0.21296 0.42752 0.41568 0.0
C499 C 0.21117 0.42879 0.48852 0.0
C500 C 0.16084 0.40302 0.62889 0.0
C501 C 0.17903 0.42295 0.82232 0.0
C502 C 0.18135 0.42264 0.74464 0.0
C503 C 0.18672 0.4238 0.51846 0.0
C504 C 0.18462 0.42376 0.59628 0.0
H505 H 0.21685 0.43535 0.97512 0.0
H506 H 0.22034 0.43204 0.8472 0.0
H507 H 0.14071 0.38606 0.72584 0.0
H508 H 0.14842 0.41212 0.36693 0.0
H509 H 0.14523 0.41452 0.49517 0.0
C510 C 0.74481 0.16236 0.69605 0.0
C511 C 0.76497 0.18191 0.74377 0.0
C512 C 0.74889 0.16498 0.62343 0.0
C513 C 0.80215 0.19464 0.49067 0.0
H514 H 0.74353 0.187 0.3661 0.0
C515 C 0.81899 0.21634 0.19335 0.0
C516 C 0.79697 0.2006 0.14534 0.0
C517 C 0.8149 0.21427 0.26595 0.0
C518 C 0.76 0.18875 0.39975 0.0
H519 H 0.80551 0.21922 0.75296 0.0
H520 H 0.81295 0.22353 0.62547 0.0
H521 H 0.73721 0.18306 0.49307 0.0
H522 H 0.75332 0.17019 0.13551 0.0
H523 H 0.74615 0.16568 0.26267 0.0
H524 H 0.82471 0.19948 0.39793 0.0
C525 C 0.79386 0.20629 0.6445 0.0
C526 C 0.7564 0.18664 0.47274 0.0
C527 C 0.78959 0.20389 0.71736 0.0
C528 C 0.77065 0.18265 0.17141 0.0
C529 C 0.76657 0.18025 0.24439 0.0
C530 C 0.80563 0.19636 0.41765 0.0
C531 C 0.77341 0.18699 0.59666 0.0
C532 C 0.77746 0.18963 0.51909 0.0
C533 C 0.78869 0.19602 0.29286 0.0
C534 C 0.78466 0.19358 0.37093 0.0
H535 H 0.72564 0.14514 0.71477 0.0
H536 H 0.7329 0.14959 0.58813 0.0
H537 H 0.81862 0.19664 0.52488 0.0
H538 H 0.83949 0.23054 0.17477 0.0
H539 H 0.83236 0.22729 0.30088 0.0
C540 C 0.56903 0.79527 0.88743 0.0
C541 C 0.55906 0.7686 0.91496 0.0
C542 C 0.57242 0.79966 0.81443 0.0
C543 C 0.57589 0.76568 0.6466 0.0
H544 H 0.56327 0.82015 0.55758 0.0
C545 C 0.56898 0.77412 0.34107 0.0
C546 C 0.58346 0.8012 0.3141 0.0
C547 C 0.56588 0.76999 0.41417 0.0
C548 C 0.56702 0.80494 0.58165 0.0
H549 H 0.5447 0.72563 0.88735 0.0
H550 H 0.54959 0.73289 0.76128 0.0
H551 H 0.55857 0.8138 0.68462 0.0
H552 H 0.60591 0.84513 0.34263 0.0
H553 H 0.60023 0.83797 0.46932 0.0
H554 H 0.58377 0.75651 0.54304 0.0
C555 C 0.55562 0.75076 0.79533 0.0
C556 C 0.56448 0.80138 0.65486 0.0
C557 C 0.55256 0.74649 0.86801 0.0
C558 C 0.59459 0.82398 0.36167 0.0
C559 C 0.59121 0.81989 0.43439 0.0
C560 C 0.5781 0.76902 0.57333 0.0
C561 C 0.56569 0.77741 0.76705 0.0
C562 C 0.56888 0.78168 0.68872 0.0
C563 C 0.57688 0.79285 0.46182 0.0
C564 C 0.57377 0.78874 0.53979 0.0
H565 H 0.57437 0.81277 0.92231 0.0
H566 H 0.58063 0.8206 0.79538 0.0
H567 H 0.58009 0.75072 0.6702 0.0
H568 H 0.56028 0.75617 0.30578 0.0
H569 H 0.5546 0.74887 0.43338 0.0
C570 C 0.75853 0.56714 0.77367 0.0
C571 C 0.78267 0.57044 0.80489 0.0
C572 C 0.7557 0.56727 0.7003 0.0
C573 C 0.79494 0.58684 0.53608 0.0
H574 H 0.72632 0.52753 0.45166 0.0
C575 C 0.78271 0.56372 0.23753 0.0
C576 C 0.7586 0.56012 0.20535 0.0
C577 C 0.78525 0.56371 0.31097 0.0
C578 C 0.74552 0.54433 0.47445 0.0
H579 H 0.82328 0.5779 0.78483 0.0
H580 H 0.81837 0.57807 0.65711 0.0
H581 H 0.73176 0.53264 0.57967 0.0
H582 H 0.71772 0.55222 0.22389 0.0
H583 H 0.72216 0.55232 0.35182 0.0
H584 H 0.80872 0.59854 0.43092 0.0
C585 C 0.80163 0.57544 0.68886 0.0
C586 C 0.74858 0.54734 0.54773 0.0
C587 C 0.8044 0.57521 0.76199 0.0
C588 C 0.73659 0.55513 0.24745 0.0
C589 C 0.73909 0.55507 0.32072 0.0
C590 C 0.79187 0.58384 0.46282 0.0
C591 C 0.77705 0.57089 0.65713 0.0
C592 C 0.77335 0.56859 0.57932 0.0
C593 C 0.76367 0.55998 0.35334 0.0
C594 C 0.76715 0.56252 0.43121 0.0
H595 H 0.74151 0.56353 0.80572 0.0
H596 H 0.73668 0.56414 0.67731 0.0
H597 H 0.81415 0.60362 0.55887 0.0
H598 H 0.79994 0.56746 0.20614 0.0
H599 H 0.80427 0.56706 0.33463 0.0
C600 C 0.16784 0.78891 0.34726 0.0
C601 C 0.19036 0.80171 0.3026 0.0
C602 C 0.17189 0.78948 0.42003 0.0
C603 C 0.21908 0.83021 0.56278 0.0
H604 H 0.17923 0.76249 0.67032 0.0
C605 C 0.23893 0.82986 0.8605 0.0
C606 C 0.21714 0.81204 0.9037 0.0
C607 C 0.23547 0.8282 0.78745 0.0
C608 C 0.19017 0.78167 0.64134 0.0
H609 H 0.23483 0.82519 0.29863 0.0
H610 H 0.24207 0.82695 0.4276 0.0
H611 H 0.17483 0.76018 0.54184 0.0
H612 H 0.17434 0.77885 0.90448 0.0
H613 H 0.16779 0.77648 0.77578 0.0
H614 H 0.23361 0.85198 0.66155 0.0
C615 C 0.22126 0.81623 0.40556 0.0
C616 C 0.18784 0.78028 0.56771 0.0
C617 C 0.21717 0.8152 0.33209 0.0
C618 C 0.1915 0.79274 0.87227 0.0
C619 C 0.18788 0.7913 0.7986 0.0
C620 C 0.22108 0.83168 0.63638 0.0
C621 C 0.19858 0.80325 0.45004 0.0
C622 C 0.20233 0.80453 0.52777 0.0
C623 C 0.20993 0.80898 0.75522 0.0
C624 C 0.20677 0.80741 0.67677 0.0
H625 H 0.14691 0.77828 0.32592 0.0
H626 H 0.15407 0.77959 0.45303 0.0
H627 H 0.23004 0.84927 0.53327 0.0
H628 H 0.25903 0.8449 0.88306 0.0
H629 H 0.25313 0.84172 0.75628 0.0
C630 C 0.37767 0.20175 0.74732 0.0
C631 C 0.3978 0.20297 0.79394 0.0
C632 C 0.37937 0.19919 0.67481 0.0
C633 C 0.42792 0.21581 0.53583 0.0
H634 H 0.36378 0.16173 0.42464 0.0
C635 C 0.41993 0.21871 0.23022 0.0
C636 C 0.41184 0.19332 0.19577 0.0
C637 C 0.41799 0.21972 0.30356 0.0
C638 C 0.38185 0.17693 0.45502 0.0
H639 H 0.43549 0.20238 0.80176 0.0
H640 H 0.43887 0.19848 0.67354 0.0
H641 H 0.36154 0.16251 0.55308 0.0
H642 H 0.39444 0.14905 0.20993 0.0
H643 H 0.39039 0.1507 0.33733 0.0
H644 H 0.44808 0.2305 0.43743 0.0
C645 C 0.42165 0.19929 0.69368 0.0
C646 C 0.38056 0.1774 0.5284 0.0
C647 C 0.41965 0.20134 0.76677 0.0
C648 C 0.40087 0.1689 0.23528 0.0
C649 C 0.3985 0.16983 0.30813 0.0
C650 C 0.42908 0.21563 0.46221 0.0
C651 C 0.40151 0.19826 0.64708 0.0
C652 C 0.40356 0.19684 0.56957 0.0
C653 C 0.40743 0.19529 0.34322 0.0
C654 C 0.40605 0.19616 0.42112 0.0
H655 H 0.36061 0.20301 0.76689 0.0
H656 H 0.3637 0.19867 0.64019 0.0
H657 H 0.44585 0.23118 0.56631 0.0
H658 H 0.42852 0.23784 0.20087 0.0
H659 H 0.42478 0.23959 0.32932 0.0
loop_
_geom_bond_atom_site_label_1
_geom_bond_atom_site_label_2
_geom_bond_distance
_geom_bond_site_symmetry_2
_ccdc_geom_bond_type
Dy0 O4 2.398 . S
Dy0 O5 2.491 . S
Dy0 O6 2.403 1_554 S
Dy0 O7 2.664 . S
Dy0 O11 2.326 . S
Dy0 O15 2.310 . S
Dy0 O16 2.351 . S
C1 O12 1.185 . S
C1 O13 1.355 . S
C2 O4 1.185 . S
C2 O5 1.355 . S
Dy3 O7 2.310 . S
Dy3 O10 2.351 . S
Dy3 O12 2.398 . S
Dy3 O13 2.491 . S
Dy3 O14 2.403 . S
Dy3 O15 2.664 . S
Dy3 O17 2.326 . S
O4 Dy0 2.398 . S
O4 C2 1.185 . S
O5 Dy0 2.491 . S
O5 C2 1.355 . S
O6 Dy0 2.403 1_556 S
O6 C8 1.254 . S
O7 Dy0 2.664 . S
O7 Dy3 2.310 . S
O7 C8 1.268 1_554 S
C8 O6 1.254 . S
C8 O7 1.268 1_556 S
C9 O14 1.254 . S
C9 O15 1.268 . S
O10 Dy3 2.351 . S
O10 C18 1.249 . S
O11 Dy0 2.326 . S
O11 C18 1.267 . S
O12 C1 1.185 . S
O12 Dy3 2.398 . S
O13 C1 1.355 . S
O13 Dy3 2.491 . S
O14 Dy3 2.403 . S
O14 C9 1.254 . S
O15 Dy0 2.310 . S
O15 Dy3 2.664 . S
O15 C9 1.268 . S
O16 Dy0 2.351 . S
O16 C19 1.249 . S
O17 Dy3 2.326 . S
O17 C19 1.267 . S
C18 O10 1.249 . S
C18 O11 1.267 . S
C19 O16 1.249 . S
C19 O17 1.267 . S
Dy20 O24 2.398 . S
Dy20 O25 2.491 1_556 S
Dy20 O26 2.403 . S
Dy20 O27 2.664 . S
Dy20 O31 2.326 . S
Dy20 O35 2.310 1_556 S
Dy20 O36 2.351 . S
C21 O32 1.185 . S
C21 O33 1.355 1_554 S
C22 O24 1.185 . S
C22 O25 1.355 1_556 S
Dy23 O27 2.310 1_554 S
Dy23 O30 2.351 . S
Dy23 O32 2.398 . S
Dy23 O33 2.491 1_554 S
Dy23 O34 2.403 . S
Dy23 O35 2.664 . S
Dy23 O37 2.326 . S
O24 Dy20 2.398 . S
O24 C22 1.185 . S
O25 Dy20 2.491 1_554 S
O25 C22 1.355 1_554 S
O26 Dy20 2.403 . S
O26 C28 1.254 . S
O27 Dy20 2.664 . S
O27 Dy23 2.310 1_556 S
O27 C28 1.268 . S
C28 O26 1.254 . S
C28 O27 1.268 . S
C29 O34 1.254 . S
C29 O35 1.268 . S
O30 Dy23 2.351 . S
O30 C38 1.249 1_554 S
O31 Dy20 2.326 . S
O31 C38 1.267 . S
O32 C21 1.185 . S
O32 Dy23 2.398 . S
O33 C21 1.355 1_556 S
O33 Dy23 2.491 1_556 S
O34 Dy23 2.403 . S
O34 C29 1.254 . S
O35 Dy20 2.310 1_554 S
O35 Dy23 2.664 . S
O35 C29 1.268 . S
O36 Dy20 2.351 . S
O36 C39 1.249 1_556 S
O37 Dy23 2.326 . S
O37 C39 1.267 . S
C38 O30 1.249 1_556 S
C38 O31 1.267 . S
C39 O36 1.249 1_554 S
C39 O37 1.267 . S
Dy40 O44 2.398 . S
Dy40 O45 2.491 . S
Dy40 O46 2.403 1_554 S
Dy40 O47 2.664 . S
Dy40 O51 2.326 . S
Dy40 O55 2.310 . S
Dy40 O56 2.351 . S
C41 O52 1.185 . S
C41 O53 1.355 . S
C42 O44 1.185 . S
C42 O45 1.355 . S
Dy43 O47 2.310 . S
Dy43 O50 2.351 . S
Dy43 O52 2.398 . S
Dy43 O53 2.491 . S
Dy43 O54 2.403 . S
Dy43 O55 2.664 . S
Dy43 O57 2.326 . S
O44 Dy40 2.398 . S
O44 C42 1.185 . S
O45 Dy40 2.491 . S
O45 C42 1.355 . S
O46 Dy40 2.403 1_556 S
O46 C48 1.254 . S
O47 Dy40 2.664 . S
O47 Dy43 2.310 . S
O47 C48 1.268 1_554 S
C48 O46 1.254 . S
C48 O47 1.268 1_556 S
C49 O54 1.254 . S
C49 O55 1.268 . S
O50 Dy43 2.351 . S
O50 C58 1.249 . S
O51 Dy40 2.326 . S
O51 C58 1.267 . S
O52 C41 1.185 . S
O52 Dy43 2.398 . S
O53 C41 1.355 . S
O53 Dy43 2.491 . S
O54 Dy43 2.403 . S
O54 C49 1.254 . S
O55 Dy40 2.310 . S
O55 Dy43 2.664 . S
O55 C49 1.268 . S
O56 Dy40 2.351 . S
O56 C59 1.249 . S
O57 Dy43 2.326 . S
O57 C59 1.267 . S
C58 O50 1.249 . S
C58 O51 1.267 . S
C59 O56 1.249 . S
C59 O57 1.267 . S
Dy60 O64 2.398 . S
Dy60 O65 2.491 1_556 S
Dy60 O66 2.403 . S
Dy60 O67 2.664 . S
Dy60 O71 2.326 . S
Dy60 O75 2.310 1_556 S
Dy60 O76 2.351 1_556 S
C61 O72 1.185 . S
C61 O73 1.355 1_554 S
C62 O64 1.185 1_554 S
C62 O65 1.355 . S
Dy63 O67 2.310 1_554 S
Dy63 O70 2.351 . S
Dy63 O72 2.398 . S
Dy63 O73 2.491 1_554 S
Dy63 O74 2.403 . S
Dy63 O75 2.664 . S
Dy63 O77 2.326 . S
O64 Dy60 2.398 . S
O64 C62 1.185 1_556 S
O65 Dy60 2.491 1_554 S
O65 C62 1.355 . S
O66 Dy60 2.403 . S
O66 C68 1.254 . S
O67 Dy60 2.664 . S
O67 Dy63 2.310 1_556 S
O67 C68 1.268 . S
C68 O66 1.254 . S
C68 O67 1.268 . S
C69 O74 1.254 . S
C69 O75 1.268 . S
O70 Dy63 2.351 . S
O70 C78 1.249 1_554 S
O71 Dy60 2.326 . S
O71 C78 1.267 . S
O72 C61 1.185 . S
O72 Dy63 2.398 . S
O73 C61 1.355 1_556 S
O73 Dy63 2.491 1_556 S
O74 Dy63 2.403 . S
O74 C69 1.254 . S
O75 Dy60 2.310 1_554 S
O75 Dy63 2.664 . S
O75 C69 1.268 . S
O76 Dy60 2.351 1_554 S
O76 C79 1.249 . S
O77 Dy63 2.326 . S
O77 C79 1.267 . S
C78 O70 1.249 1_556 S
C78 O71 1.267 . S
C79 O76 1.249 . S
C79 O77 1.267 . S
Dy80 O84 2.398 . S
Dy80 O85 2.491 . S
Dy80 O86 2.403 1_554 S
Dy80 O87 2.664 . S
Dy80 O91 2.326 . S
Dy80 O95 2.310 . S
Dy80 O96 2.351 . S
C81 O92 1.185 . S
C81 O93 1.355 . S
C82 O84 1.185 . S
C82 O85 1.355 . S
Dy83 O87 2.310 . S
Dy83 O90 2.351 . S
Dy83 O92 2.398 . S
Dy83 O93 2.491 . S
Dy83 O94 2.403 . S
Dy83 O95 2.664 . S
Dy83 O97 2.326 . S
O84 Dy80 2.398 . S
O84 C82 1.185 . S
O85 Dy80 2.491 . S
O85 C82 1.355 . S
O86 Dy80 2.403 1_556 S
O86 C88 1.254 . S
O87 Dy80 2.664 . S
O87 Dy83 2.310 . S
O87 C88 1.268 1_554 S
C88 O86 1.254 . S
C88 O87 1.268 1_556 S
C89 O94 1.254 . S
C89 O95 1.268 . S
O90 Dy83 2.351 . S
O90 C98 1.249 . S
O91 Dy80 2.326 . S
O91 C98 1.267 . S
O92 C81 1.185 . S
O92 Dy83 2.398 . S
O93 C81 1.355 . S
O93 Dy83 2.491 . S
O94 Dy83 2.403 . S
O94 C89 1.254 . S
O95 Dy80 2.310 . S
O95 Dy83 2.664 . S
O95 C89 1.268 . S
O96 Dy80 2.351 . S
O96 C99 1.249 . S
O97 Dy83 2.326 . S
O97 C99 1.267 . S
C98 O90 1.249 . S
C98 O91 1.267 . S
C99 O96 1.249 . S
C99 O97 1.267 . S
Dy100 O104 2.398 . S
Dy100 O105 2.491 1_554 S
Dy100 O106 2.403 . S
Dy100 O107 2.664 . S
Dy100 O111 2.326 . S
Dy100 O115 2.310 1_554 S
Dy100 O116 2.351 . S
C101 O112 1.185 1_554 S
C101 O113 1.355 . S
C102 O104 1.185 1_556 S
C102 O105 1.355 . S
Dy103 O107 2.302 1_556 S
Dy103 O110 2.352 1_556 S
Dy103 O112 2.401 . S
Dy103 O113 2.485 1_556 S
Dy103 O114 2.414 . S
Dy103 O115 2.669 . S
Dy103 O117 2.327 . S
O104 Dy100 2.398 . S
O104 C102 1.185 1_554 S
O105 Dy100 2.491 1_556 S
O105 C102 1.355 . S
O106 Dy100 2.403 . S
O106 C108 1.254 . S
O107 Dy100 2.664 . S
O107 Dy103 2.302 1_554 S
O107 C108 1.268 . S
C108 O106 1.254 . S
C108 O107 1.268 . S
C109 O114 1.254 . S
C109 O115 1.268 . S
O110 Dy103 2.352 1_554 S
O110 C118 1.251 . S
O111 Dy100 2.326 . S
O111 C118 1.267 . S
O112 C101 1.185 1_556 S
O112 Dy103 2.401 . S
O113 C101 1.355 . S
O113 Dy103 2.485 1_554 S
O114 Dy103 2.414 . S
O114 C109 1.254 . S
O115 Dy100 2.310 1_556 S
O115 Dy103 2.669 . S
O115 C109 1.268 . S
O116 Dy100 2.351 . S
O116 C119 1.249 . S
O117 Dy103 2.327 . S
O117 C119 1.267 1_556 S
C118 O110 1.251 . S
C118 O111 1.267 . S
C119 O116 1.249 . S
C119 O117 1.267 1_554 S
C120 C121 1.349 1_556 S
C120 C122 1.327 . S
C120 H145 0.950 . S
C121 C120 1.349 1_554 S
C121 C137 1.349 . S
C122 C120 1.327 . S
C122 C141 1.429 1_556 S
C122 H146 0.950 . S
C123 C140 1.574 . S
C123 C142 1.368 . S
C123 H147 0.949 . S
H124 C128 0.949 . S
C125 C126 1.349 . S
C125 C127 1.327 . S
C125 H148 0.950 . S
C126 C125 1.349 . S
C126 C138 1.349 . S
C127 C125 1.327 . S
C127 C143 1.429 . S
C127 H149 0.950 . S
C128 H124 0.949 . S
C128 C136 1.574 . S
C128 C144 1.368 1_556 S
H129 C137 0.950 . S
H130 C135 0.950 . S
H131 C136 0.949 . S
H132 C138 0.950 1_556 S
H133 C139 0.950 1_556 S
H134 C140 0.949 . S
C135 H130 0.950 . S
C135 C137 1.327 . S
C135 C141 1.429 . S
C136 C128 1.574 . S
C136 H131 0.949 . S
C136 C142 1.368 1_556 S
C137 C121 1.349 . S
C137 H129 0.950 . S
C137 C135 1.327 . S
C138 C126 1.349 . S
C138 H132 0.950 1_554 S
C138 C139 1.327 . S
C139 H133 0.950 1_554 S
C139 C138 1.327 . S
C139 C143 1.429 . S
C140 C123 1.574 . S
C140 H134 0.949 . S
C140 C144 1.368 . S
C141 C122 1.429 1_554 S
C141 C135 1.429 . S
C141 C142 1.523 . S
C142 C123 1.368 . S
C142 C136 1.368 1_554 S
C142 C141 1.523 . S
C143 C127 1.429 . S
C143 C139 1.429 . S
C143 C144 1.523 . S
C144 C128 1.368 1_554 S
C144 C140 1.368 . S
C144 C143 1.523 . S
H145 C120 0.950 . S
H146 C122 0.950 . S
H147 C123 0.949 . S
H148 C125 0.950 . S
H149 C127 0.950 . S
C150 C151 1.349 . S
C150 C152 1.327 . S
C150 H175 0.950 . S
C151 C150 1.349 . S
C151 C167 1.349 . S
C152 C150 1.327 . S
C152 C171 1.429 . S
C152 H176 0.950 . S
C153 C170 1.574 1_455 S
C153 C172 1.368 1_556 S
C153 H177 0.949 . S
H154 C158 0.949 . S
C155 C156 1.349 1_556 S
C155 C157 1.327 . S
C155 H178 0.950 . S
C156 C155 1.349 1_554 S
C156 C168 1.349 . S
C157 C155 1.327 . S
C157 C173 1.429 1_556 S
C157 H179 0.950 . S
C158 H154 0.949 . S
C158 C166 1.574 1_655 S
C158 C174 1.368 . S
H159 C167 0.950 1_556 S
H160 C165 0.950 1_556 S
H161 C166 0.949 . S
H162 C168 0.950 . S
H163 C169 0.950 . S
H164 C170 0.949 . S
C165 H160 0.950 1_554 S
C165 C167 1.327 . S
C165 C171 1.429 . S
C166 C158 1.574 1_455 S
C166 H161 0.949 . S
C166 C172 1.368 . S
C167 C151 1.349 . S
C167 H159 0.950 1_554 S
C167 C165 1.327 . S
C168 C156 1.349 . S
C168 H162 0.950 . S
C168 C169 1.327 . S
C169 H163 0.950 . S
C169 C168 1.327 . S
C169 C173 1.429 . S
C170 C153 1.574 1_655 S
C170 H164 0.949 . S
C170 C174 1.368 1_556 S
C171 C152 1.429 . S
C171 C165 1.429 . S
C171 C172 1.523 . S
C172 C153 1.368 1_554 S
C172 C166 1.368 . S
C172 C171 1.523 . S
C173 C157 1.429 1_554 S
C173 C169 1.429 . S
C173 C174 1.523 . S
C174 C158 1.368 . S
C174 C170 1.368 1_554 S
C174 C173 1.523 . S
H175 C150 0.950 . S
H176 C152 0.950 . S
H177 C153 0.949 . S
H178 C155 0.950 . S
H179 C157 0.950 . S
C180 C181 1.349 . S
C180 C182 1.327 . S
C180 H205 0.950 . S
C181 C180 1.349 . S
C181 C197 1.349 1_554 S
C182 C180 1.327 . S
C182 C201 1.429 . S
C182 H206 0.950 . S
C183 C200 1.574 1_545 S
C183 C202 1.368 1_556 S
C183 H207 0.949 . S
H184 C188 0.949 . S
C185 C186 1.349 . S
C185 C187 1.327 . S
C185 H208 0.950 . S
C186 C185 1.349 . S
C186 C198 1.349 . S
C187 C185 1.327 . S
C187 C203 1.429 . S
C187 H209 0.950 1_554 S
C188 H184 0.949 . S
C188 C196 1.574 1_565 S
C188 C204 1.368 . S
H189 C197 0.950 . S
H190 C195 0.950 . S
H191 C196 0.949 . S
H192 C198 0.950 . S
H193 C199 0.950 . S
H194 C200 0.949 . S
C195 H190 0.950 . S
C195 C197 1.327 . S
C195 C201 1.429 1_556 S
C196 C188 1.574 1_545 S
C196 H191 0.949 . S
C196 C202 1.368 . S
C197 C181 1.349 1_556 S
C197 H189 0.950 . S
C197 C195 1.327 . S
C198 C186 1.349 . S
C198 H192 0.950 . S
C198 C199 1.327 . S
C199 H193 0.950 . S
C199 C198 1.327 . S
C199 C203 1.429 . S
C200 C183 1.574 1_565 S
C200 H194 0.949 . S
C200 C204 1.368 1_556 S
C201 C182 1.429 . S
C201 C195 1.429 1_554 S
C201 C202 1.523 . S
C202 C183 1.368 1_554 S
C202 C196 1.368 . S
C202 C201 1.523 . S
C203 C187 1.429 . S
C203 C199 1.429 . S
C203 C204 1.523 . S
C204 C188 1.368 . S
C204 C200 1.368 1_554 S
C204 C203 1.523 . S
H205 C180 0.950 . S
H206 C182 0.950 . S
H207 C183 0.949 . S
H208 C185 0.950 . S
H209 C187 0.950 1_556 S
C210 C211 1.349 . S
C210 C212 1.327 . S
C210 H235 0.950 . S
C211 C210 1.349 . S
C211 C227 1.349 1_554 S
C212 C210 1.327 . S
C212 C231 1.429 . S
C212 H236 0.950 . S
C213 C230 1.574 . S
C213 C232 1.368 1_556 S
C213 H237 0.949 . S
H214 C218 0.949 . S
C215 C216 1.349 . S
C215 C217 1.327 . S
C215 H238 0.950 1_554 S
C216 C215 1.349 . S
C216 C228 1.349 . S
C217 C215 1.327 . S
C217 C233 1.429 . S
C217 H239 0.950 1_554 S
C218 H214 0.949 . S
C218 C226 1.574 . S
C218 C234 1.368 . S
H219 C227 0.950 . S
H220 C225 0.950 . S
H221 C226 0.949 . S
H222 C228 0.950 . S
H223 C229 0.950 . S
H224 C230 0.949 . S
C225 H220 0.950 . S
C225 C227 1.327 . S
C225 C231 1.429 1_556 S
C226 C218 1.574 . S
C226 H221 0.949 . S
C226 C232 1.368 . S
C227 C211 1.349 1_556 S
C227 H219 0.950 . S
C227 C225 1.327 . S
C228 C216 1.349 . S
C228 H222 0.950 . S
C228 C229 1.327 . S
C229 H223 0.950 . S
C229 C228 1.327 . S
C229 C233 1.429 . S
C230 C213 1.574 . S
C230 H224 0.949 . S
C230 C234 1.368 1_556 S
C231 C212 1.429 . S
C231 C225 1.429 1_554 S
C231 C232 1.523 . S
C232 C213 1.368 1_554 S
C232 C226 1.368 . S
C232 C231 1.523 . S
C233 C217 1.429 . S
C233 C229 1.429 . S
C233 C234 1.523 . S
C234 C218 1.368 . S
C234 C230 1.368 1_554 S
C234 C233 1.523 . S
H235 C210 0.950 . S
H236 C212 0.950 . S
H237 C213 0.949 . S
H238 C215 0.950 1_556 S
H239 C217 0.950 1_556 S
C240 C241 1.349 . S
C240 C242 1.327 . S
C240 H265 0.950 . S
C241 C240 1.349 . S
C241 C257 1.349 . S
C242 C240 1.327 . S
C242 C261 1.429 . S
C242 H266 0.950 1_554 S
C243 C260 1.574 . S
C243 C262 1.368 . S
C243 H267 0.949 . S
H244 C248 0.949 . S
C245 C246 1.349 . S
C245 C247 1.327 . S
C245 H268 0.950 . S
C246 C245 1.349 . S
C246 C258 1.349 1_554 S
C247 C245 1.327 . S
C247 C263 1.429 . S
C247 H269 0.950 . S
C248 H244 0.949 . S
C248 C256 1.574 1_556 S
C248 C264 1.368 1_556 S
H249 C257 0.950 . S
H250 C255 0.950 . S
H251 C256 0.949 1_456 S
H252 C258 0.950 . S
H253 C259 0.950 . S
H254 C260 0.949 . S
C255 H250 0.950 . S
C255 C257 1.327 . S
C255 C261 1.429 . S
C256 C248 1.574 1_554 S
C256 H251 0.949 1_654 S
C256 C262 1.368 . S
C257 C241 1.349 . S
C257 H249 0.950 . S
C257 C255 1.327 . S
C258 C246 1.349 1_556 S
C258 H252 0.950 . S
C258 C259 1.327 . S
C259 H253 0.950 . S
C259 C258 1.327 . S
C259 C263 1.429 1_556 S
C260 C243 1.574 . S
C260 H254 0.949 . S
C260 C264 1.368 . S
C261 C242 1.429 . S
C261 C255 1.429 . S
C261 C262 1.523 1_455 S
C262 C243 1.368 . S
C262 C256 1.368 . S
C262 C261 1.523 1_655 S
C263 C247 1.429 . S
C263 C259 1.429 1_554 S
C263 C264 1.523 . S
C264 C248 1.368 1_554 S
C264 C260 1.368 . S
C264 C263 1.523 . S
H265 C240 0.950 . S
H266 C242 0.950 1_556 S
H267 C243 0.949 . S
H268 C245 0.950 . S
H269 C247 0.950 . S
C270 C271 1.349 . S
C270 C272 1.327 . S
C270 H295 0.950 . S
C271 C270 1.349 . S
C271 C287 1.349 . S
C272 C270 1.327 . S
C272 C291 1.429 . S
C272 H296 0.950 . S
C273 C290 1.574 1_565 S
C273 C292 1.368 . S
C273 H297 0.949 . S
H274 C278 0.949 . S
C275 C276 1.349 1_556 S
C275 C277 1.327 1_556 S
C275 H298 0.950 . S
C276 C275 1.349 1_554 S
C276 C288 1.349 . S
C277 C275 1.327 1_554 S
C277 C293 1.429 . S
C277 H299 0.950 1_554 S
C278 H274 0.949 . S
C278 C286 1.574 1_545 S
C278 C294 1.368 . S
H279 C287 0.950 . S
H280 C285 0.950 . S
H281 C286 0.949 . S
H282 C288 0.950 . S
H283 C289 0.950 . S
H284 C290 0.948 1_556 S
C285 H280 0.950 . S
C285 C287 1.327 . S
C285 C291 1.429 . S
C286 C278 1.574 1_565 S
C286 H281 0.949 . S
C286 C292 1.368 . S
C287 C271 1.349 . S
C287 H279 0.950 . S
C287 C285 1.327 . S
C288 C276 1.349 . S
C288 H282 0.950 . S
C288 C289 1.327 . S
C289 H283 0.950 . S
C289 C288 1.327 . S
C289 C293 1.429 . S
C290 C273 1.574 1_545 S
C290 H284 0.948 1_554 S
C290 C294 1.368 . S
C291 C272 1.429 . S
C291 C285 1.429 . S
C291 C292 1.523 . S
C292 C273 1.368 . S
C292 C286 1.368 . S
C292 C291 1.523 . S
C293 C277 1.429 . S
C293 C289 1.429 . S
C293 C294 1.523 . S
C294 C278 1.368 . S
C294 C290 1.368 . S
C294 C293 1.523 . S
H295 C270 0.950 . S
H296 C272 0.950 . S
H297 C273 0.949 . S
H298 C275 0.950 . S
H299 C277 0.950 1_556 S
C300 C301 1.349 . S
C300 C302 1.327 . S
C300 H325 0.950 . S
C301 C300 1.349 . S
C301 C317 1.349 . S
C302 C300 1.327 . S
C302 C321 1.429 . S
C302 H326 0.950 . S
C303 C320 1.574 . S
C303 C322 1.368 . S
C303 H327 0.949 . S
H304 C308 0.949 . S
C305 C306 1.349 . S
C305 C307 1.327 . S
C305 H328 0.950 . S
C306 C305 1.349 . S
C306 C318 1.349 . S
C307 C305 1.327 . S
C307 C323 1.429 . S
C307 H329 0.950 . S
C308 H304 0.949 . S
C308 C316 1.574 . S
C308 C324 1.368 . S
H309 C317 0.950 . S
H310 C315 0.950 . S
H311 C316 0.949 . S
H312 C318 0.950 . S
H313 C319 0.950 . S
H314 C320 0.949 . S
C315 H310 0.950 . S
C315 C317 1.327 . S
C315 C321 1.429 . S
C316 C308 1.574 . S
C316 H311 0.949 . S
C316 C322 1.368 . S
C317 C301 1.349 . S
C317 H309 0.950 . S
C317 C315 1.327 . S
C318 C306 1.349 . S
C318 H312 0.950 . S
C318 C319 1.327 . S
C319 H313 0.950 . S
C319 C318 1.327 . S
C319 C323 1.429 . S
C320 C303 1.574 . S
C320 H314 0.949 . S
C320 C324 1.368 . S
C321 C302 1.429 . S
C321 C315 1.429 . S
C321 C322 1.523 . S
C322 C303 1.368 . S
C322 C316 1.368 . S
C322 C321 1.523 . S
C323 C307 1.429 . S
C323 C319 1.429 . S
C323 C324 1.523 . S
C324 C308 1.368 . S
C324 C320 1.368 . S
C324 C323 1.523 . S
H325 C300 0.950 . S
H326 C302 0.950 . S
H327 C303 0.949 . S
H328 C305 0.950 . S
H329 C307 0.950 . S
C330 C331 1.349 1_554 S
C330 C332 1.327 . S
C330 H355 0.950 . S
C331 C330 1.349 1_556 S
C331 C347 1.349 . S
C332 C330 1.327 . S
C332 C351 1.429 1_554 S
C332 H356 0.950 . S
C333 C350 1.574 . S
C333 C352 1.368 . S
C333 H357 0.949 . S
H334 C338 0.949 . S
C335 C336 1.349 . S
C335 C337 1.327 . S
C335 H358 0.950 . S
C336 C335 1.349 . S
C336 C348 1.349 1_556 S
C337 C335 1.327 . S
C337 C353 1.429 . S
C337 H359 0.950 . S
C338 H334 0.949 . S
C338 C346 1.574 . S
C338 C354 1.368 1_554 S
H339 C347 0.950 . S
H340 C345 0.950 . S
H341 C346 0.949 . S
H342 C348 0.950 . S
H343 C349 0.950 . S
H344 C350 0.949 . S
C345 H340 0.950 . S
C345 C347 1.327 . S
C345 C351 1.429 . S
C346 C338 1.574 . S
C346 H341 0.949 . S
C346 C352 1.368 1_554 S
C347 C331 1.349 . S
C347 H339 0.950 . S
C347 C345 1.327 . S
C348 C336 1.349 1_554 S
C348 H342 0.950 . S
C348 C349 1.327 . S
C349 H343 0.950 . S
C349 C348 1.327 . S
C349 C353 1.429 1_554 S
C350 C333 1.574 . S
C350 H344 0.949 . S
C350 C354 1.368 . S
C351 C332 1.429 1_556 S
C351 C345 1.429 . S
C351 C352 1.523 . S
C352 C333 1.368 . S
C352 C346 1.368 1_556 S
C352 C351 1.523 . S
C353 C337 1.429 . S
C353 C349 1.429 1_556 S
C353 C354 1.523 . S
C354 C338 1.368 1_556 S
C354 C350 1.368 . S
C354 C353 1.523 . S
H355 C330 0.950 . S
H356 C332 0.950 . S
H357 C333 0.949 . S
H358 C335 0.950 . S
H359 C337 0.950 . S
C360 C361 1.349 . S
C360 C362 1.327 . S
C360 H385 0.950 . S
C361 C360 1.349 . S
C361 C377 1.349 . S
C362 C360 1.327 . S
C362 C381 1.429 . S
C362 H386 0.950 . S
C363 C380 1.574 . S
C363 C382 1.368 . S
C363 H387 0.949 . S
H364 C368 0.949 . S
C365 C366 1.349 . S
C365 C367 1.327 . S
C365 H388 0.950 . S
C366 C365 1.349 . S
C366 C378 1.349 . S
C367 C365 1.327 . S
C367 C383 1.429 . S
C367 H389 0.950 . S
C368 H364 0.949 . S
C368 C376 1.574 . S
C368 C384 1.368 . S
H369 C377 0.950 . S
H370 C375 0.950 . S
H371 C376 0.949 . S
H372 C378 0.950 . S
H373 C379 0.950 . S
H374 C380 0.949 . S
C375 H370 0.950 . S
C375 C377 1.327 . S
C375 C381 1.429 . S
C376 C368 1.574 . S
C376 H371 0.949 . S
C376 C382 1.368 . S
C377 C361 1.349 . S
C377 H369 0.950 . S
C377 C375 1.327 . S
C378 C366 1.349 . S
C378 H372 0.950 . S
C378 C379 1.327 . S
C379 H373 0.950 . S
C379 C378 1.327 . S
C379 C383 1.429 . S
C380 C363 1.574 . S
C380 H374 0.949 . S
C380 C384 1.368 . S
C381 C362 1.429 . S
C381 C375 1.429 . S
C381 C382 1.523 . S
C382 C363 1.368 . S
C382 C376 1.368 . S
C382 C381 1.523 . S
C383 C367 1.429 . S
C383 C379 1.429 . S
C383 C384 1.523 . S
C384 C368 1.368 . S
C384 C380 1.368 . S
C384 C383 1.523 . S
H385 C360 0.950 . S
H386 C362 0.950 . S
H387 C363 0.949 . S
H388 C365 0.950 . S
H389 C367 0.950 . S
C390 C391 1.349 . S
C390 C392 1.327 . S
C390 H415 0.950 . S
C391 C390 1.349 . S
C391 C407 1.349 1_554 S
C392 C390 1.327 . S
C392 C411 1.429 . S
C392 H416 0.950 . S
C393 C410 1.574 . S
C393 C412 1.368 1_556 S
C393 H417 0.949 . S
H394 C398 0.949 . S
C395 C396 1.347 1_556 S
C395 C397 1.327 . S
C395 H418 0.950 . S
C396 C395 1.347 1_554 S
C396 C408 1.350 . S
C397 C395 1.327 . S
C397 C413 1.429 1_556 S
C397 H419 0.950 . S
C398 H394 0.949 . S
C398 C406 1.574 . S
C398 C414 1.368 . S
H399 C407 0.950 . S
H400 C405 0.950 . S
H401 C406 0.949 . S
H402 C408 0.950 . S
H403 C409 0.950 . S
H404 C410 0.949 . S
C405 H400 0.950 . S
C405 C407 1.327 . S
C405 C411 1.429 1_556 S
C406 C398 1.574 . S
C406 H401 0.949 . S
C406 C412 1.368 . S
C407 C391 1.349 1_556 S
C407 H399 0.950 . S
C407 C405 1.327 . S
C408 C396 1.350 . S
C408 H402 0.950 . S
C408 C409 1.327 . S
C409 H403 0.950 . S
C409 C408 1.327 . S
C409 C413 1.429 . S
C410 C393 1.574 . S
C410 H404 0.949 . S
C410 C414 1.368 1_556 S
C411 C392 1.429 . S
C411 C405 1.429 1_554 S
C411 C412 1.523 . S
C412 C393 1.368 1_554 S
C412 C406 1.368 . S
C412 C411 1.523 . S
C413 C397 1.429 1_554 S
C413 C409 1.429 . S
C413 C414 1.523 . S
C414 C398 1.368 . S
C414 C410 1.368 1_554 S
C414 C413 1.523 . S
H415 C390 0.950 . S
H416 C392 0.950 . S
H417 C393 0.949 . S
H418 C395 0.950 . S
H419 C397 0.950 . S
C420 C421 1.349 . S
C420 C422 1.327 . S
C420 H445 0.950 . S
C421 C420 1.349 . S
C421 C437 1.349 . S
C422 C420 1.327 . S
C422 C441 1.429 . S
C422 H446 0.950 . S
C423 C440 1.574 . S
C423 C442 1.368 . S
C423 H447 0.949 . S
H424 C428 0.949 . S
C425 C426 1.349 . S
C425 C427 1.327 . S
C425 H448 0.950 . S
C426 C425 1.349 . S
C426 C438 1.349 . S
C427 C425 1.327 . S
C427 C443 1.429 . S
C427 H449 0.950 . S
C428 H424 0.949 . S
C428 C436 1.574 . S
C428 C444 1.368 . S
H429 C437 0.950 . S
H430 C435 0.950 . S
H431 C436 0.949 . S
H432 C438 0.950 . S
H433 C439 0.950 . S
H434 C440 0.949 . S
C435 H430 0.950 . S
C435 C437 1.327 . S
C435 C441 1.429 . S
C436 C428 1.574 . S
C436 H431 0.949 . S
C436 C442 1.368 . S
C437 C421 1.349 . S
C437 H429 0.950 . S
C437 C435 1.327 . S
C438 C426 1.349 . S
C438 H432 0.950 . S
C438 C439 1.327 . S
C439 H433 0.950 . S
C439 C438 1.327 . S
C439 C443 1.429 . S
C440 C423 1.574 . S
C440 H434 0.949 . S
C440 C444 1.368 . S
C441 C422 1.429 . S
C441 C435 1.429 . S
C441 C442 1.523 . S
C442 C423 1.368 . S
C442 C436 1.368 . S
C442 C441 1.523 . S
C443 C427 1.429 . S
C443 C439 1.429 . S
C443 C444 1.523 . S
C444 C428 1.368 . S
C444 C440 1.368 . S
C444 C443 1.523 . S
H445 C420 0.950 . S
H446 C422 0.950 . S
H447 C423 0.949 . S
H448 C425 0.950 . S
H449 C427 0.950 . S
C450 C451 1.344 1_556 S
C450 C452 1.327 . S
C450 H475 0.950 . S
C451 C450 1.344 1_554 S
C451 C467 1.354 . S
C452 C450 1.327 . S
C452 C471 1.421 1_556 S
C452 H476 0.950 . S
C453 C470 1.574 . S
C453 C472 1.377 . S
C453 H477 0.949 . S
H454 C458 0.949 . S
C455 C456 1.349 . S
C455 C457 1.327 . S
C455 H478 0.950 . S
C456 C455 1.349 . S
C456 C468 1.349 1_554 S
C457 C455 1.327 . S
C457 C473 1.440 . S
C457 H479 0.950 . S
C458 H454 0.949 . S
C458 C466 1.574 . S
C458 C474 1.357 1_556 S
H459 C467 0.950 . S
H460 C465 0.950 . S
H461 C466 0.949 . S
H462 C468 0.950 . S
H463 C469 0.950 . S
H464 C470 0.949 . S
C465 H460 0.950 . S
C465 C467 1.327 . S
C465 C471 1.435 . S
C466 C458 1.574 . S
C466 H461 0.949 . S
C466 C472 1.360 1_556 S
C467 C451 1.354 . S
C467 H459 0.950 . S
C467 C465 1.327 . S
C468 C456 1.349 1_556 S
C468 H462 0.950 . S
C468 C469 1.327 . S
C469 H463 0.950 . S
C469 C468 1.327 . S
C469 C473 1.418 1_556 S
C470 C453 1.574 . S
C470 H464 0.949 . S
C470 C474 1.379 . S
C471 C452 1.421 1_554 S
C471 C465 1.435 . S
C471 C472 1.523 . S
C472 C453 1.377 . S
C472 C466 1.360 1_554 S
C472 C471 1.523 . S
C473 C457 1.440 . S
C473 C469 1.418 1_554 S
C473 C474 1.523 . S
C474 C458 1.357 1_554 S
C474 C470 1.379 . S
C474 C473 1.523 . S
H475 C450 0.950 . S
H476 C452 0.950 . S
H477 C453 0.949 . S
H478 C455 0.950 . S
H479 C457 0.950 . S
C480 C481 1.349 . S
C480 C482 1.327 . S
C480 H505 0.950 . S
C481 C480 1.349 . S
C481 C497 1.349 . S
C482 C480 1.327 . S
C482 C501 1.429 . S
C482 H506 0.950 . S
C483 C500 1.574 . S
C483 C502 1.368 . S
C483 H507 0.949 . S
H484 C488 0.949 . S
C485 C486 1.349 . S
C485 C487 1.327 . S
C485 H508 0.950 . S
C486 C485 1.349 . S
C486 C498 1.349 . S
C487 C485 1.327 . S
C487 C503 1.429 . S
C487 H509 0.950 . S
C488 H484 0.949 . S
C488 C496 1.574 . S
C488 C504 1.368 . S
H489 C497 0.950 . S
H490 C495 0.950 . S
H491 C496 0.949 . S
H492 C498 0.950 . S
H493 C499 0.950 . S
H494 C500 0.949 . S
C495 H490 0.950 . S
C495 C497 1.327 . S
C495 C501 1.429 . S
C496 C488 1.574 . S
C496 H491 0.949 . S
C496 C502 1.368 . S
C497 C481 1.349 . S
C497 H489 0.950 . S
C497 C495 1.327 . S
C498 C486 1.349 . S
C498 H492 0.950 . S
C498 C499 1.327 . S
C499 H493 0.950 . S
C499 C498 1.327 . S
C499 C503 1.429 . S
C500 C483 1.574 . S
C500 H494 0.949 . S
C500 C504 1.368 . S
C501 C482 1.429 . S
C501 C495 1.429 . S
C501 C502 1.523 . S
C502 C483 1.368 . S
C502 C496 1.368 . S
C502 C501 1.523 . S
C503 C487 1.429 . S
C503 C499 1.429 . S
C503 C504 1.523 . S
C504 C488 1.368 . S
C504 C500 1.368 . S
C504 C503 1.523 . S
H505 C480 0.950 . S
H506 C482 0.950 . S
H507 C483 0.949 . S
H508 C485 0.950 . S
H509 C487 0.950 . S
C510 C511 1.349 . S
C510 C512 1.327 . S
C510 H535 0.950 . S
C511 C510 1.349 . S
C511 C527 1.349 . S
C512 C510 1.327 . S
C512 C531 1.429 . S
C512 H536 0.950 . S
C513 C530 1.574 . S
C513 C532 1.368 . S
C513 H537 0.949 . S
H514 C518 0.949 . S
C515 C516 1.349 . S
C515 C517 1.327 . S
C515 H538 0.950 . S
C516 C515 1.349 . S
C516 C528 1.349 . S
C517 C515 1.327 . S
C517 C533 1.429 . S
C517 H539 0.950 . S
C518 H514 0.949 . S
C518 C526 1.574 . S
C518 C534 1.368 . S
H519 C527 0.950 . S
H520 C525 0.950 . S
H521 C526 0.949 . S
H522 C528 0.950 . S
H523 C529 0.950 . S
H524 C530 0.949 . S
C525 H520 0.950 . S
C525 C527 1.327 . S
C525 C531 1.429 . S
C526 C518 1.574 . S
C526 H521 0.949 . S
C526 C532 1.368 . S
C527 C511 1.349 . S
C527 H519 0.950 . S
C527 C525 1.327 . S
C528 C516 1.349 . S
C528 H522 0.950 . S
C528 C529 1.327 . S
C529 H523 0.950 . S
C529 C528 1.327 . S
C529 C533 1.429 . S
C530 C513 1.574 . S
C530 H524 0.949 . S
C530 C534 1.368 . S
C531 C512 1.429 . S
C531 C525 1.429 . S
C531 C532 1.523 . S
C532 C513 1.368 . S
C532 C526 1.368 . S
C532 C531 1.523 . S
C533 C517 1.429 . S
C533 C529 1.429 . S
C533 C534 1.523 . S
C534 C518 1.368 . S
C534 C530 1.368 . S
C534 C533 1.523 . S
H535 C510 0.950 . S
H536 C512 0.950 . S
H537 C513 0.949 . S
H538 C515 0.950 . S
H539 C517 0.950 . S
C540 C541 1.349 . S
C540 C542 1.327 . S
C540 H565 0.950 . S
C541 C540 1.349 . S
C541 C557 1.349 . S
C542 C540 1.327 . S
C542 C561 1.429 . S
C542 H566 0.950 . S
C543 C560 1.574 . S
C543 C562 1.368 . S
C543 H567 0.949 . S
H544 C548 0.949 . S
C545 C546 1.349 . S
C545 C547 1.327 . S
C545 H568 0.950 . S
C546 C545 1.349 . S
C546 C558 1.349 . S
C547 C545 1.327 . S
C547 C563 1.429 . S
C547 H569 0.950 . S
C548 H544 0.949 . S
C548 C556 1.574 . S
C548 C564 1.368 . S
H549 C557 0.950 . S
H550 C555 0.950 . S
H551 C556 0.949 . S
H552 C558 0.950 . S
H553 C559 0.950 . S
H554 C560 0.949 . S
C555 H550 0.950 . S
C555 C557 1.327 . S
C555 C561 1.429 . S
C556 C548 1.574 . S
C556 H551 0.949 . S
C556 C562 1.368 . S
C557 C541 1.349 . S
C557 H549 0.950 . S
C557 C555 1.327 . S
C558 C546 1.349 . S
C558 H552 0.950 . S
C558 C559 1.327 . S
C559 H553 0.950 . S
C559 C558 1.327 . S
C559 C563 1.429 . S
C560 C543 1.574 . S
C560 H554 0.949 . S
C560 C564 1.368 . S
C561 C542 1.429 . S
C561 C555 1.429 . S
C561 C562 1.523 . S
C562 C543 1.368 . S
C562 C556 1.368 . S
C562 C561 1.523 . S
C563 C547 1.429 . S
C563 C559 1.429 . S
C563 C564 1.523 . S
C564 C548 1.368 . S
C564 C560 1.368 . S
C564 C563 1.523 . S
H565 C540 0.950 . S
H566 C542 0.950 . S
H567 C543 0.949 . S
H568 C545 0.950 . S
H569 C547 0.950 . S
C570 C571 1.349 . S
C570 C572 1.327 . S
C570 H595 0.950 . S
C571 C570 1.349 . S
C571 C587 1.349 . S
C572 C570 1.327 . S
C572 C591 1.429 . S
C572 H596 0.950 . S
C573 C590 1.574 . S
C573 C592 1.368 . S
C573 H597 0.949 . S
H574 C578 0.949 . S
C575 C576 1.349 . S
C575 C577 1.327 . S
C575 H598 0.950 . S
C576 C575 1.349 . S
C576 C588 1.349 . S
C577 C575 1.327 . S
C577 C593 1.429 . S
C577 H599 0.950 . S
C578 H574 0.949 . S
C578 C586 1.574 . S
C578 C594 1.368 . S
H579 C587 0.950 . S
H580 C585 0.950 . S
H581 C586 0.949 . S
H582 C588 0.950 . S
H583 C589 0.950 . S
H584 C590 0.949 . S
C585 H580 0.950 . S
C585 C587 1.327 . S
C585 C591 1.429 . S
C586 C578 1.574 . S
C586 H581 0.949 . S
C586 C592 1.368 . S
C587 C571 1.349 . S
C587 H579 0.950 . S
C587 C585 1.327 . S
C588 C576 1.349 . S
C588 H582 0.950 . S
C588 C589 1.327 . S
C589 H583 0.950 . S
C589 C588 1.327 . S
C589 C593 1.429 . S
C590 C573 1.574 . S
C590 H584 0.949 . S
C590 C594 1.368 . S
C591 C572 1.429 . S
C591 C585 1.429 . S
C591 C592 1.523 . S
C592 C573 1.368 . S
C592 C586 1.368 . S
C592 C591 1.523 . S
C593 C577 1.429 . S
C593 C589 1.429 . S
C593 C594 1.523 . S
C594 C578 1.368 . S
C594 C590 1.368 . S
C594 C593 1.523 . S
H595 C570 0.950 . S
H596 C572 0.950 . S
H597 C573 0.949 . S
H598 C575 0.950 . S
H599 C577 0.950 . S
C600 C601 1.349 . S
C600 C602 1.327 . S
C600 H625 0.950 . S
C601 C600 1.349 . S
C601 C617 1.349 . S
C602 C600 1.327 . S
C602 C621 1.429 . S
C602 H626 0.950 . S
C603 C620 1.574 . S
C603 C622 1.368 . S
C603 H627 0.949 . S
H604 C608 0.949 . S
C605 C606 1.349 . S
C605 C607 1.327 . S
C605 H628 0.950 . S
C606 C605 1.349 . S
C606 C618 1.349 . S
C607 C605 1.327 . S
C607 C623 1.429 . S
C607 H629 0.950 . S
C608 H604 0.949 . S
C608 C616 1.574 . S
C608 C624 1.368 . S
H609 C617 0.950 . S
H610 C615 0.950 . S
H611 C616 0.949 . S
H612 C618 0.950 . S
H613 C619 0.950 . S
H614 C620 0.949 . S
C615 H610 0.950 . S
C615 C617 1.327 . S
C615 C621 1.429 . S
C616 C608 1.574 . S
C616 H611 0.949 . S
C616 C622 1.368 . S
C617 C601 1.349 . S
C617 H609 0.950 . S
C617 C615 1.327 . S
C618 C606 1.349 . S
C618 H612 0.950 . S
C618 C619 1.327 . S
C619 H613 0.950 . S
C619 C618 1.327 . S
C619 C623 1.429 . S
C620 C603 1.574 . S
C620 H614 0.949 . S
C620 C624 1.368 . S
C621 C602 1.429 . S
C621 C615 1.429 . S
C621 C622 1.523 . S
C622 C603 1.368 . S
C622 C616 1.368 . S
C622 C621 1.523 . S
C623 C607 1.429 . S
C623 C619 1.429 . S
C623 C624 1.523 . S
C624 C608 1.368 . S
C624 C620 1.368 . S
C624 C623 1.523 . S
H625 C600 0.950 . S
H626 C602 0.950 . S
H627 C603 0.949 . S
H628 C605 0.950 . S
H629 C607 0.950 . S
C630 C631 1.349 . S
C630 C632 1.327 . S
C630 H655 0.950 . S
C631 C630 1.349 . S
C631 C647 1.349 . S
C632 C630 1.327 . S
C632 C651 1.429 . S
C632 H656 0.950 . S
C633 C650 1.574 . S
C633 C652 1.368 . S
C633 H657 0.949 . S
H634 C638 0.949 . S
C635 C636 1.349 . S
C635 C637 1.327 . S
C635 H658 0.950 . S
C636 C635 1.349 . S
C636 C648 1.349 . S
C637 C635 1.327 . S
C637 C653 1.429 . S
C637 H659 0.950 . S
C638 H634 0.949 . S
C638 C646 1.574 . S
C638 C654 1.368 . S
H639 C647 0.950 . S
H640 C645 0.950 . S
H641 C646 0.949 . S
H642 C648 0.950 . S
H643 C649 0.950 . S
H644 C650 0.949 . S
C645 H640 0.950 . S
C645 C647 1.327 . S
C645 C651 1.429 . S
C646 C638 1.574 . S
C646 H641 0.949 . S
C646 C652 1.368 . S
C647 C631 1.349 . S
C647 H639 0.950 . S
C647 C645 1.327 . S
C648 C636 1.349 . S
C648 H642 0.950 . S
C648 C649 1.327 . S
C649 H643 0.950 . S
C649 C648 1.327 . S
C649 C653 1.429 . S
C650 C633 1.574 . S
C650 H644 0.949 . S
C650 C654 1.368 . S
C651 C632 1.429 . S
C651 C645 1.429 . S
C651 C652 1.523 . S
C652 C633 1.368 . S
C652 C646 1.368 . S
C652 C651 1.523 . S
C653 C637 1.429 . S
C653 C649 1.429 . S
C653 C654 1.523 . S
C654 C638 1.368 . S
C654 C650 1.368 . S
C654 C653 1.523 . S
H655 C630 0.950 . S
H656 C632 0.950 . S
H657 C633 0.949 . S
H658 C635 0.950 . S
H659 C637 0.950 . S
C121 C101 1.205 . S
C126 C1 1.226 . S
C151 C19 1.067 . S
C156 C21 0.976 . S
C181 C39 0.827 . S
C186 C41 0.816 . S
C211 C61 1.571 . S
C216 C59 1.651 . S
C241 C81 1.484 . S
C246 C79 1.612 . S
C271 C99 1.158 . S
C276 C119 1.166 . S
C301 C98 1.780 . S
C306 C2 1.767 . S
C331 C102 1.363 . S
C336 C22 1.367 . S
C361 C42 1.526 . S
C366 C18 1.527 . S
C391 C62 1.818 . S
C396 C38 1.843 1_554 S
C421 C82 2.105 . S
C426 C58 2.114 . S
C451 C78 2.295 1_554 S
C456 C118 2.290 . S
C481 C8 1.434 . S
C486 C9 1.434 . S
C511 C28 1.437 . S
C516 C29 1.437 . S
C541 C48 1.436 . S
C546 C49 1.436 . S
C571 C68 1.432 . S
C576 C69 1.432 . S
C601 C89 1.430 . S
C606 C88 1.430 . S
C631 C109 1.435 . S
C636 C108 1.435 . S
