# Generated by pormake.
# Topology snl, (6)-cn, num edge types: 1
# Building blocks:
#     Node 0, Type 0, BuildingBlock: KUMBUR_clean_sbu_0, # of connection points: 6
#     Node 1, Type 0, BuildingBlock: KUMBUR_clean_sbu_0, # of connection points: 6
#     Node 2, Type 0, BuildingBlock: KUMBUR_clean_sbu_0, # of connection points: 6
#     Node 3, Type 0, BuildingBlock: KUMBUR_clean_sbu_0, # of connection points: 6
#     Node 4, Type 0, BuildingBlock: KUMBUR_clean_sbu_0, # of connection points: 6
#     Node 5, Type 0, BuildingBlock: KUMBUR_clean_sbu_0, # of connection points: 6
#     Node 6, Type 0, BuildingBlock: KUMBUR_clean_sbu_0, # of connection points: 6
#     Node 7, Type 0, BuildingBlock: KUMBUR_clean_sbu_0, # of connection points: 6
#     Node 8, Type 0, BuildingBlock: KUMBUR_clean_sbu_0, # of connection points: 6
#     Node 9, Type 0, BuildingBlock: KUMBUR_clean_sbu_0, # of connection points: 6
#     Node 10, Type 0, BuildingBlock: KUMBUR_clean_sbu_0, # of connection points: 6
#     Node 11, Type 0, BuildingBlock: KUMBUR_clean_sbu_0, # of connection points: 6
#     Node 12, Type 0, BuildingBlock: KUMBUR_clean_sbu_0, # of connection points: 6
#     Node 13, Type 0, BuildingBlock: KUMBUR_clean_sbu_0, # of connection points: 6
#     Node 14, Type 0, BuildingBlock: KUMBUR_clean_sbu_0, # of connection points: 6
#     Node 15, Type 0, BuildingBlock: KUMBUR_clean_sbu_0, # of connection points: 6
#     Edge 16, Type (0, 0), BuildingBlock: EZIPEK_clean_linker_0, # of connection points: 2
#     Edge 17, Type (0, 0), BuildingBlock: EZIPEK_clean_linker_0, # of connection points: 2
#     Edge 18, Type (0, 0), BuildingBlock: EZIPEK_clean_linker_0, # of connection points: 2
#     Edge 19, Type (0, 0), BuildingBlock: EZIPEK_clean_linker_0, # of connection points: 2
#     Edge 20, Type (0, 0), BuildingBlock: EZIPEK_clean_linker_0, # of connection points: 2
#     Edge 21, Type (0, 0), BuildingBlock: EZIPEK_clean_linker_0, # of connection points: 2
#     Edge 22, Type (0, 0), BuildingBlock: EZIPEK_clean_linker_0, # of connection points: 2
#     Edge 23, Type (0, 0), BuildingBlock: EZIPEK_clean_linker_0, # of connection points: 2
#     Edge 24, Type (0, 0), BuildingBlock: EZIPEK_clean_linker_0, # of connection points: 2
#     Edge 25, Type (0, 0), BuildingBlock: EZIPEK_clean_linker_0, # of connection points: 2
#     Edge 26, Type (0, 0), BuildingBlock: EZIPEK_clean_linker_0, # of connection points: 2
#     Edge 27, Type (0, 0), BuildingBlock: EZIPEK_clean_linker_0, # of connection points: 2
#     Edge 28, Type (0, 0), BuildingBlock: EZIPEK_clean_linker_0, # of connection points: 2
#     Edge 29, Type (0, 0), BuildingBlock: EZIPEK_clean_linker_0, # of connection points: 2
#     Edge 30, Type (0, 0), BuildingBlock: EZIPEK_clean_linker_0, # of connection points: 2
#     Edge 31, Type (0, 0), BuildingBlock: EZIPEK_clean_linker_0, # of connection points: 2
#     Edge 32, Type (0, 0), BuildingBlock: EZIPEK_clean_linker_0, # of connection points: 2
#     Edge 33, Type (0, 0), BuildingBlock: EZIPEK_clean_linker_0, # of connection points: 2
#     Edge 34, Type (0, 0), BuildingBlock: EZIPEK_clean_linker_0, # of connection points: 2
#     Edge 35, Type (0, 0), BuildingBlock: EZIPEK_clean_linker_0, # of connection points: 2
#     Edge 36, Type (0, 0), BuildingBlock: EZIPEK_clean_linker_0, # of connection points: 2
#     Edge 37, Type (0, 0), BuildingBlock: EZIPEK_clean_linker_0, # of connection points: 2
#     Edge 38, Type (0, 0), BuildingBlock: EZIPEK_clean_linker_0, # of connection points: 2
#     Edge 39, Type (0, 0), BuildingBlock: EZIPEK_clean_linker_0, # of connection points: 2
#     Edge 40, Type (0, 0), BuildingBlock: EZIPEK_clean_linker_0, # of connection points: 2
#     Edge 41, Type (0, 0), BuildingBlock: EZIPEK_clean_linker_0, # of connection points: 2
#     Edge 42, Type (0, 0), BuildingBlock: EZIPEK_clean_linker_0, # of connection points: 2
#     Edge 43, Type (0, 0), BuildingBlock: EZIPEK_clean_linker_0, # of connection points: 2
#     Edge 44, Type (0, 0), BuildingBlock: EZIPEK_clean_linker_0, # of connection points: 2
#     Edge 45, Type (0, 0), BuildingBlock: EZIPEK_clean_linker_0, # of connection points: 2
#     Edge 46, Type (0, 0), BuildingBlock: EZIPEK_clean_linker_0, # of connection points: 2
#     Edge 47, Type (0, 0), BuildingBlock: EZIPEK_clean_linker_0, # of connection points: 2
#     Edge 48, Type (0, 0), BuildingBlock: EZIPEK_clean_linker_0, # of connection points: 2
#     Edge 49, Type (0, 0), BuildingBlock: EZIPEK_clean_linker_0, # of connection points: 2
#     Edge 50, Type (0, 0), BuildingBlock: EZIPEK_clean_linker_0, # of connection points: 2
#     Edge 51, Type (0, 0), BuildingBlock: EZIPEK_clean_linker_0, # of connection points: 2
#     Edge 52, Type (0, 0), BuildingBlock: EZIPEK_clean_linker_0, # of connection points: 2
#     Edge 53, Type (0, 0), BuildingBlock: EZIPEK_clean_linker_0, # of connection points: 2
#     Edge 54, Type (0, 0), BuildingBlock: EZIPEK_clean_linker_0, # of connection points: 2
#     Edge 55, Type (0, 0), BuildingBlock: EZIPEK_clean_linker_0, # of connection points: 2
#     Edge 56, Type (0, 0), BuildingBlock: EZIPEK_clean_linker_0, # of connection points: 2
#     Edge 57, Type (0, 0), BuildingBlock: EZIPEK_clean_linker_0, # of connection points: 2
#     Edge 58, Type (0, 0), BuildingBlock: EZIPEK_clean_linker_0, # of connection points: 2
#     Edge 59, Type (0, 0), BuildingBlock: EZIPEK_clean_linker_0, # of connection points: 2
#     Edge 60, Type (0, 0), BuildingBlock: EZIPEK_clean_linker_0, # of connection points: 2
#     Edge 61, Type (0, 0), BuildingBlock: EZIPEK_clean_linker_0, # of connection points: 2
#     Edge 62, Type (0, 0), BuildingBlock: EZIPEK_clean_linker_0, # of connection points: 2
#     Edge 63, Type (0, 0), BuildingBlock: EZIPEK_clean_linker_0, # of connection points: 2
# Relax obj value: 0.161
# Max RMSD: 0.260
# Mean RMSD: 0.251
data_MOF--net-snl--node1-KUMBUR_clean_sbu_0--edge1-EZIPEK_clean_linker_0
_symmetry_space_group_name_H-M    P1
_symmetry_Int_Tables_number       1
_symmetry_cell_setting            triclinic
loop_
_symmetry_equiv_pos_as_xyz
'x, y, z'
_cell_length_a     40.681695
_cell_length_b     41.054229
_cell_length_c     20.34733
_cell_angle_alpha  90.832346
_cell_angle_beta   90.597758
_cell_angle_gamma 90.060731
loop_
_atom_site_label
_atom_site_type_symbol
_atom_site_fract_x
_atom_site_fract_y
_atom_site_fract_z
_atom_type_partial_charge
Tb0 Tb 0.15685 0.65743 0.06745 0.0
C1 C 0.06349 0.61141 0.26566 0.0
C2 C 0.05522 0.65464 0.38708 0.0
C3 C 0.9971 0.611 0.38026 0.0
C4 C 0.07509 0.64095 0.31818 0.0
C5 C 0.02802 0.58977 0.27472 0.0
C6 C 0.0188 0.64173 0.41728 0.0
C7 C 0.05093 0.55573 0.1874 0.0
N8 N 0.08514 0.60222 0.21974 0.0
C9 C 0.08007 0.57345 0.18621 0.0
C10 C 0.02474 0.56417 0.22657 0.0
Tb11 Tb 0.13456 0.6298 0.22222 0.0
N12 N 0.10411 0.6549 0.30371 0.0
C13 C 0.11786 0.67776 0.34551 0.0
C14 C 0.07141 0.67931 0.42142 0.0
C15 C 0.10199 0.6903 0.40117 0.0
H16 H 0.09801 0.56294 0.15491 0.0
H17 H 0.11433 0.70894 0.43045 0.0
H18 H 1.00929 0.65285 0.46169 0.0
H19 H 0.04861 0.5344 0.15567 0.0
H20 H 0.14211 0.68708 0.33553 0.0
H21 H 0.26351 0.57775 0.06741 0.0
H22 H 0.06065 0.68976 0.46533 0.0
H23 H 0.1511 0.73722 0.03871 0.0
H24 H 0.20536 0.59052 0.06498 0.0
H25 H 0.18844 0.78376 0.04308 0.0
H26 H 0.9746 0.60362 0.4039 0.0
H27 H 0.3044 0.62189 0.063 0.0
H28 H 0.31651 0.68153 0.05238 0.0
H29 H 1.00353 0.54856 0.22001 0.0
H30 H 0.29615 0.73762 0.04385 0.0
N31 N 0.21152 0.64206 0.06487 0.0
C32 C 0.22213 0.61041 0.0653 0.0
C33 C 0.2786 0.62783 0.06278 0.0
C34 C 0.26795 0.66 0.05814 0.0
C35 C 0.25557 0.60288 0.06559 0.0
C36 C 0.23383 0.66635 0.05884 0.0
H37 H 0.24851 0.77628 0.04297 0.0
N38 N 0.18946 0.70267 0.05371 0.0
C39 C 0.19846 0.75981 0.04183 0.0
C40 C 0.22242 0.69766 0.05296 0.0
C41 C 0.17736 0.73316 0.04175 0.0
C42 C 0.23231 0.75533 0.04378 0.0
C43 C 0.24477 0.72382 0.04737 0.0
O44 O 0.14024 0.6792 0.9796 0.0
O45 O 0.11535 0.63738 0.1239 0.0
O46 O 0.14721 0.5868 0.15424 0.0
O47 O 0.14799 0.60667 0.04882 0.0
O48 O 0.10488 0.67425 0.06274 0.0
O49 O 0.16423 0.6329 0.97676 0.0
O50 O 0.1373 0.58408 0.26851 0.0
O51 O 0.17773 0.63789 0.1603 0.0
O52 O 0.15348 0.70001 0.13441 0.0
O53 O 0.11865 0.6829 0.21608 0.0
O54 O 0.17647 0.66053 0.24907 0.0
O55 O 0.16239 0.62504 0.31021 0.0
C56 C 0.09109 0.65447 0.10281 0.0
C57 C 0.16691 0.66414 0.8794 0.0
C58 C 0.1728 0.65614 0.75992 0.0
C59 C 0.15789 0.64786 0.81997 0.0
C60 C 0.19669 0.68082 0.7601 0.0
C61 C 0.19098 0.68861 0.87783 0.0
C62 C 0.20573 0.69682 0.81862 0.0
C63 C 0.14652 0.58209 0.08844 0.0
C64 C 0.15065 0.65557 0.94194 0.0
C65 C 0.2787 0.71779 0.04762 0.0
C66 C 0.29028 0.68588 0.05273 0.0
C67 C 0.19598 0.65415 0.2017 0.0
C68 C 0.14229 0.58605 0.38615 0.0
C69 C 0.15139 0.60415 0.44367 0.0
C70 C 0.14161 0.59368 0.50665 0.0
C71 C 0.1225 0.56539 0.51137 0.0
C72 C 0.12371 0.55745 0.39324 0.0
C73 C 0.11355 0.54759 0.4551 0.0
C74 C 0.13339 0.70696 0.18323 0.0
C75 C 0.15363 0.59518 0.31926 0.0
H76 H 0.13932 0.62892 0.82035 0.0
H77 H 0.20824 0.68784 0.7147 0.0
H78 H 0.19831 0.70158 0.9221 0.0
H79 H 0.22419 0.71582 0.81803 0.0
H80 H 0.16625 0.62594 0.43976 0.0
H81 H 0.11449 0.55708 0.5589 0.0
H82 H 0.11661 0.54278 0.35074 0.0
H83 H 0.09851 0.52607 0.45932 0.0
Tb84 Tb 0.66263 0.86318 0.47062 0.0
C85 C 0.57768 0.93665 0.25999 0.0
C86 C 0.53032 0.90411 0.22687 0.0
C87 C 0.53365 0.96062 0.19433 0.0
C88 C 0.56074 0.90731 0.26066 0.0
C89 C 0.56389 0.96379 0.2277 0.0
C90 C 0.51716 0.93074 0.19311 0.0
C91 C 0.61198 0.9949 0.25851 0.0
N92 N 0.60779 0.9384 0.2896 0.0
C93 C 0.62548 0.96704 0.28654 0.0
C94 C 0.58111 0.99324 0.2286 0.0
Tb95 Tb 0.62914 0.88793 0.31777 0.0
N96 N 0.57421 0.88182 0.29335 0.0
C97 C 0.55699 0.85343 0.29794 0.0
C98 C 0.51366 0.87436 0.22894 0.0
C99 C 0.52667 0.84923 0.26617 0.0
H100 H 0.65032 0.96839 0.30561 0.0
H101 H 0.51369 0.8263 0.26947 0.0
H102 H 0.49396 0.92862 0.1668 0.0
H103 H 0.62597 0.01733 0.25784 0.0
H104 H 0.56644 0.83361 0.32535 0.0
H105 H 0.74498 0.96159 0.54953 0.0
H106 H 0.49042 0.87081 0.20337 0.0
H107 H 0.68533 0.78294 0.46919 0.0
H108 H 0.69378 0.93055 0.55028 0.0
H109 H 0.73528 0.75121 0.44907 0.0
H110 H 0.5229 0.9811 0.16891 0.0
H111 H 0.79354 0.93953 0.49242 0.0
H112 H 0.82042 0.89053 0.44371 0.0
H113 H 0.57113 0.01463 0.20504 0.0
H114 H 0.8201 0.8309 0.43027 0.0
N115 N 0.71115 0.8922 0.48665 0.0
C116 C 0.71389 0.92082 0.52211 0.0
C117 C 0.7708 0.92583 0.49213 0.0
C118 C 0.76948 0.89395 0.4679 0.0
C119 C 0.74337 0.93846 0.52359 0.0
C120 C 0.73921 0.87727 0.46807 0.0
H121 H 0.78837 0.77859 0.43467 0.0
N122 N 0.70858 0.82928 0.46007 0.0
C123 C 0.73642 0.77743 0.45101 0.0
C124 C 0.73818 0.84435 0.45687 0.0
C125 C 0.70798 0.79583 0.46168 0.0
C126 C 0.7664 0.79293 0.44296 0.0
C127 C 0.76771 0.82678 0.44711 0.0
O128 O 0.67001 0.83479 0.55502 0.0
O129 O 0.61714 0.87547 0.41822 0.0
O130 O 0.62619 0.93146 0.38731 0.0
O131 O 0.65034 0.91481 0.48496 0.0
O132 O 0.61525 0.83761 0.48069 0.0
O133 O 0.6508 0.88311 0.56351 0.0
O134 O 0.65851 0.91003 0.24719 0.0
O135 O 0.675 0.88667 0.37788 0.0
O136 O 0.65532 0.8189 0.4074 0.0
O137 O 0.62289 0.83339 0.31772 0.0
O138 O 0.67442 0.86284 0.29047 0.0
O139 O 0.62164 0.8743 0.21779 0.0
C140 C 0.59729 0.85469 0.4419 0.0
C141 C 0.63523 0.84629 0.64565 0.0
C142 C 0.61545 0.85142 0.75836 0.0
C143 C 0.6364 0.86157 0.70798 0.0
C144 C 0.59292 0.82615 0.74564 0.0
C145 C 0.61266 0.82088 0.63399 0.0
C146 C 0.5915 0.81109 0.68365 0.0
C147 C 0.63699 0.93765 0.44852 0.0
C148 C 0.65842 0.85686 0.59479 0.0
C149 C 0.79742 0.84368 0.44076 0.0
C150 C 0.79789 0.87746 0.44896 0.0
C151 C 0.69385 0.87268 0.33622 0.0
C152 C 0.63874 0.91291 0.13633 0.0
C153 C 0.62978 0.89609 0.07778 0.0
C154 C 0.62954 0.91225 1.01695 0.0
C155 C 0.63688 0.94561 1.01544 0.0
C156 C 0.64741 0.94605 0.13256 0.0
C157 C 0.64559 0.96238 0.07302 0.0
C158 C 0.63803 0.81081 0.35383 0.0
C159 C 0.6443 0.89458 0.19806 0.0
H160 H 0.65401 0.88093 0.7178 0.0
H161 H 0.57676 0.81788 0.78396 0.0
H162 H 0.61152 0.80832 0.58701 0.0
H163 H 0.57421 0.79146 0.67429 0.0
H164 H 0.62479 0.87017 0.07884 0.0
H165 H 0.63688 0.95841 0.96924 0.0
H166 H 0.65691 0.95925 0.17487 0.0
H167 H 0.65218 0.9879 0.0711 0.0
Tb168 Tb 0.35432 0.38556 0.57616 0.0
C169 C 0.43163 0.48121 0.75254 0.0
C170 C 0.48752 0.46287 0.76787 0.0
C171 C 0.47485 0.52041 0.77935 0.0
C172 C 0.45441 0.45643 0.75087 0.0
C173 C 0.44154 0.51355 0.76687 0.0
C174 C 0.49776 0.49503 0.78068 0.0
C175 C 0.38461 0.52953 0.76209 0.0
N176 N 0.39949 0.47332 0.74288 0.0
C177 C 0.37586 0.49705 0.74981 0.0
C178 C 0.41759 0.53788 0.77036 0.0
Tb179 Tb 0.38808 0.41851 0.72511 0.0
N180 N 0.44361 0.42557 0.73901 0.0
C181 C 0.46459 0.39998 0.74672 0.0
C182 C 0.50896 0.43664 0.77511 0.0
C183 C 0.49751 0.40503 0.76396 0.0
H184 H 0.35012 0.49162 0.74397 0.0
H185 H 0.51379 0.38447 0.76968 0.0
H186 H 0.52319 0.50042 0.79305 0.0
H187 H 0.36583 0.5481 0.76562 0.0
H188 H 0.45579 0.37551 0.74059 0.0
H189 H 0.24965 0.46816 0.57201 0.0
H190 H 0.53416 0.4406 0.79076 0.0
H191 H 0.35449 0.30578 0.53702 0.0
H192 H 0.30722 0.45371 0.56383 0.0
H193 H 0.31544 0.26006 0.54155 0.0
H194 H 0.48295 0.54507 0.79029 0.0
H195 H 0.20806 0.42596 0.59168 0.0
H196 H 0.19429 0.36637 0.60119 0.0
H197 H 0.42422 0.563 0.78091 0.0
H198 H 0.21215 0.3095 0.59052 0.0
N199 N 0.30004 0.40262 0.57868 0.0
C200 C 0.29016 0.43435 0.57197 0.0
C201 C 0.23355 0.41905 0.58743 0.0
C202 C 0.24322 0.38649 0.59008 0.0
C203 C 0.257 0.44294 0.57626 0.0
C204 C 0.27696 0.37898 0.58421 0.0
H205 H 0.25714 0.26962 0.5655 0.0
N206 N 0.31916 0.34137 0.56665 0.0
C207 C 0.30691 0.28454 0.54941 0.0
C208 C 0.28692 0.34715 0.57822 0.0
C209 C 0.32897 0.31062 0.548 0.0
C210 C 0.27411 0.28997 0.56481 0.0
C211 C 0.26355 0.32168 0.57805 0.0
O212 O 0.36539 0.36145 0.48715 0.0
O213 O 0.39929 0.40085 0.62795 0.0
O214 O 0.3924 0.45776 0.64902 0.0
O215 O 0.36069 0.43785 0.5616 0.0
O216 O 0.40455 0.36539 0.55981 0.0
O217 O 0.34915 0.41137 0.48818 0.0
O218 O 0.36683 0.42892 0.81713 0.0
O219 O 0.34347 0.39729 0.68034 0.0
O220 O 0.35981 0.34382 0.63845 0.0
O221 O 0.39346 0.36305 0.72393 0.0
O222 O 0.33828 0.43652 0.73961 0.0
O223 O 0.4044 0.39232 0.80737 0.0
C224 C 0.4213 0.38267 0.6016 0.0
C225 C 0.3376 0.38035 0.39243 0.0
C226 C 0.33179 0.38409 0.27354 0.0
C227 C 0.34987 0.39004 0.33158 0.0
C228 C 0.30113 0.36853 0.27668 0.0
C229 C 0.30687 0.36494 0.39516 0.0
C230 C 0.28881 0.359 0.33738 0.0
C231 C 0.37773 0.46136 0.59042 0.0
C232 C 0.35759 0.38649 0.4518 0.0
C233 C 0.23033 0.32879 0.58912 0.0
C234 C 0.22016 0.3612 0.59519 0.0
C235 C 0.32136 0.41525 0.70778 0.0
C236 C 0.39931 0.41852 0.91146 0.0
C237 C 0.38129 0.41252 0.9684 0.0
C238 C 0.39475 0.41966 0.0308 0.0
C239 C 0.42599 0.43407 0.03581 0.0
C240 C 0.43056 0.43284 0.91716 0.0
C241 C 0.44366 0.44086 0.97909 0.0
C242 C 0.37785 0.33864 0.69129 0.0
C243 C 0.38529 0.40807 0.84764 0.0
H244 H 0.3737 0.40183 0.32914 0.0
H245 H 0.28702 0.36351 0.23221 0.0
H246 H 0.29695 0.35736 0.44157 0.0
H247 H 0.26538 0.34666 0.33966 0.0
H248 H 0.35731 0.4012 0.96423 0.0
H249 H 0.43675 0.4397 0.08357 0.0
H250 H 0.44504 0.43739 0.87427 0.0
H251 H 0.46782 0.45182 0.98316 0.0
Tb252 Tb 0.89711 0.10612 0.83476 0.0
C253 C 0.80705 0.18405 0.0283 0.0
C254 C 0.83207 0.23358 0.07201 0.0
C255 C 0.77354 0.22473 0.08477 0.0
C256 C 0.83458 0.20374 0.03675 0.0
C257 C 0.77609 0.19484 0.05097 0.0
C258 C 0.80161 0.24353 0.09709 0.0
C259 C 0.75329 0.14261 1.01984 0.0
N260 N 0.81091 0.15352 1.00258 0.0
C261 C 0.78477 0.13203 1.00323 0.0
C262 C 0.74888 0.17435 0.0431 0.0
Tb263 Tb 0.865 0.13883 0.98408 0.0
N264 N 0.864 0.19315 1.01332 0.0
C265 C 0.8912 0.21252 1.02072 0.0
C266 C 0.86007 0.25293 0.08029 0.0
C267 C 0.88958 0.24267 0.05317 0.0
H268 H 0.78817 0.10684 0.98859 0.0
H269 H 0.91142 0.25758 0.05889 0.0
H270 H 0.79934 0.26629 0.12417 0.0
H271 H 0.7327 0.12594 1.01672 0.0
H272 H 0.91471 0.2048 1.00474 0.0
H273 H 0.85259 0.98228 0.8501 0.0
H274 H 0.85904 0.27607 0.10651 0.0
H275 H 0.97176 0.13419 0.80151 0.0
H276 H 0.84814 0.04204 0.84332 0.0
H277 H 0.02823 0.11544 0.81966 0.0
H278 H 0.75009 0.23306 0.10339 0.0
H279 H 0.90757 0.95655 0.85494 0.0
H280 H 0.96931 0.96356 0.85734 0.0
H281 H 0.72469 0.18235 0.0579 0.0
H282 H 0.01736 1.00025 0.8534 0.0
N283 N 0.89927 0.05018 0.84014 0.0
C284 C 0.87189 0.03104 0.84242 0.0
C285 C 0.90554 0.98271 0.84989 0.0
C286 C 0.93357 1.00237 0.84671 0.0
C287 C 0.8745 0.99714 0.84714 0.0
C288 C 0.9294 0.03627 0.84011 0.0
H289 H 0.0393 0.05766 0.84616 0.0
N290 N 0.95056 0.08858 0.826 0.0
C291 C 1.00836 0.09827 0.8224 0.0
C292 C 0.95613 0.05635 0.83471 0.0
C293 C 0.97623 0.10888 0.81211 0.0
C294 C 0.01439 0.06576 0.83778 0.0
C295 C 0.98819 0.04388 0.84012 0.0
O296 O 0.90953 0.12375 0.74174 0.0
O297 O 0.88193 0.15043 0.88689 0.0
O298 O 0.82366 0.13618 0.90811 0.0
O299 O 0.84363 0.10668 0.81957 0.0
O300 O 0.91149 0.15635 0.81025 0.0
O301 O 0.87462 0.08471 0.75096 0.0
O302 O 0.84432 0.10877 0.05574 0.0
O303 O 0.87208 0.09329 0.92607 0.0
O304 O 0.93683 0.10932 0.90925 0.0
O305 O 0.91902 0.15058 0.97929 0.0
O306 O 0.89228 0.09676 1.01778 0.0
O307 O 0.8794 0.14692 0.08282 0.0
C308 C 0.89669 0.17288 0.85504 0.0
C309 C 0.90478 0.08685 0.65229 0.0
C310 C 0.9058 0.08077 0.53312 0.0
C311 C 0.89229 0.09478 0.59004 0.0
C312 C 0.93208 0.05888 0.53864 0.0
C313 C 0.93073 0.06449 0.65733 0.0
C314 C 0.94426 0.05056 0.60064 0.0
C315 C 0.81933 0.12239 0.84866 0.0
C316 C 0.89073 0.10293 0.71056 0.0
C317 C 0.99283 1.01031 0.84898 0.0
C318 C 0.96551 0.98947 0.85123 0.0
C319 C 0.88693 0.07678 0.97053 0.0
C320 C 0.84479 0.1269 0.1678 0.0
C321 C 0.86169 0.11704 0.2248 0.0
C322 C 0.84642 0.11881 0.28648 0.0
C323 C 0.81425 0.13079 0.29108 0.0
C324 C 0.81243 0.1383 0.17343 0.0
C325 C 0.79738 0.1405 0.23468 0.0
C326 C 0.9431 0.13248 0.95331 0.0
C327 C 0.86098 0.12299 0.10348 0.0
H328 H 0.87215 0.11194 0.58571 0.0
H329 H 0.94296 0.04816 0.49503 0.0
H330 H 0.94063 0.05793 0.70465 0.0
H331 H 0.96432 0.03339 0.60476 0.0
H332 H 0.8865 0.10757 0.22122 0.0
H333 H 0.80217 0.13231 0.33825 0.0
H334 H 0.79844 0.145 0.13093 0.0
H335 H 0.77242 0.14939 0.2383 0.0
Tb336 Tb 0.15478 0.37516 0.96868 0.0
C337 C 0.05525 0.40966 0.76516 0.0
C338 C 0.05231 0.36426 0.64621 0.0
C339 C 0.98972 0.40433 0.64476 0.0
C340 C 0.06993 0.38069 0.71611 0.0
C341 C 0.01841 0.42842 0.75177 0.0
C342 C 0.01572 0.3733 0.61013 0.0
C343 C 0.03829 0.46523 0.83905 0.0
N344 N 0.07601 0.42159 0.81125 0.0
C345 C 0.06892 0.45041 0.84118 0.0
C346 C 0.01289 0.45395 0.79939 0.0
Tb347 Tb 0.1286 0.4015 0.81399 0.0
N348 N 0.10091 0.37136 0.73206 0.0
C349 C 0.11763 0.35048 0.6909 0.0
C350 C 0.07156 0.34146 0.61404 0.0
C351 C 0.10338 0.33504 0.63574 0.0
H352 H 0.08802 0.4639 0.86396 0.0
H353 H 0.11815 0.31804 0.60758 0.0
H354 H 0.99912 0.3887 0.62137 0.0
H355 H 0.0345 0.48724 0.86792 0.0
H356 H 0.14304 0.34485 0.70136 0.0
H357 H 0.25293 0.46676 0.94773 0.0
H358 H 0.0624 0.32942 0.56983 0.0
H359 H 0.16204 0.29405 0.98793 0.0
H360 H 0.19792 0.44584 0.93355 0.0
H361 H 0.20682 0.25445 0.9947 0.0
H362 H 0.96319 0.41302 0.62255 0.0
H363 H 0.29738 0.4312 0.98791 0.0
H364 H 0.31556 0.37586 1.02084 0.0
H365 H 0.99054 0.46787 0.80452 0.0
H366 H 0.30345 0.31768 0.02985 0.0
N367 N 0.20793 0.39799 0.96931 0.0
C368 C 0.21577 0.42948 0.95285 0.0
C369 C 0.2726 0.4217 0.98272 0.0
C370 C 0.26555 0.38919 0.99535 0.0
C371 C 0.24765 0.44176 0.96014 0.0
C372 C 0.23275 0.37789 0.98773 0.0
H373 H 0.26359 0.27202 1.01481 0.0
N374 N 0.1943 0.33523 0.98502 0.0
C375 C 0.21224 0.2799 0.99769 0.0
C376 C 0.22581 0.3454 0.99463 0.0
C377 C 0.18716 0.30271 0.99123 0.0
C378 C 0.24442 0.29 1.00782 0.0
C379 C 0.25151 0.32313 1.00788 0.0
O380 O 0.14507 0.34757 0.05366 0.0
O381 O 0.11061 0.39108 0.91198 0.0
O382 O 0.13845 0.44528 0.88722 0.0
O383 O 0.14071 0.4247 0.99242 0.0
O384 O 0.10532 0.35193 0.96939 0.0
O385 O 0.15212 0.39872 0.06154 0.0
O386 O 0.12591 0.44744 0.76798 0.0
O387 O 0.17268 0.39638 0.87586 0.0
O388 O 0.15437 0.3327 0.90171 0.0
O389 O 0.11844 0.34748 0.81871 0.0
O390 O 0.17368 0.37625 0.78509 0.0
O391 O 0.1548 0.40947 0.72622 0.0
C392 C 0.08869 0.3706 0.931 0.0
C393 C 0.16408 0.36847 0.15817 0.0
C394 C 0.16751 0.37883 0.27794 0.0
C395 C 0.15188 0.38371 0.21618 0.0
C396 C 0.19534 0.35877 0.28069 0.0
C397 C 0.19196 0.34851 0.16311 0.0
C398 C 0.20746 0.34383 0.22381 0.0
C399 C 0.13922 0.44983 0.95387 0.0
C400 C 0.14665 0.37242 0.09385 0.0
C401 C 0.28367 0.33441 1.01853 0.0
C402 C 0.29059 0.3675 1.01308 0.0
C403 C 0.19251 0.38276 0.83426 0.0
C404 C 0.12892 0.44532 0.65003 0.0
C405 C 0.13817 0.42716 0.59309 0.0
C406 C 0.12692 0.4362 0.52977 0.0
C407 C 0.10516 0.46247 0.52439 0.0
C408 C 0.10788 0.47216 0.64215 0.0
C409 C 0.09574 0.48026 0.58006 0.0
C410 C 0.13521 0.32468 0.85138 0.0
C411 C 0.14245 0.43804 0.71691 0.0
H412 H 0.13026 0.39903 0.21345 0.0
H413 H 0.20753 0.35453 0.32733 0.0
H414 H 0.20161 0.33613 0.12033 0.0
H415 H 0.22888 0.32828 0.22686 0.0
H416 H 0.15431 0.40646 0.59766 0.0
H417 H 0.09572 0.46935 0.47664 0.0
H418 H 0.10053 0.48682 0.68416 0.0
H419 H 0.07914 0.50068 0.57499 0.0
Tb420 Tb 0.85968 0.87599 0.09591 0.0
C421 C 0.93692 0.96298 0.30793 0.0
C422 C 0.97777 0.93137 0.36625 0.0
C423 C 0.9769 0.99025 0.37972 0.0
C424 C 0.95121 0.93325 0.3212 0.0
C425 C 0.94992 0.99192 0.33634 0.0
C426 C 0.99049 0.95999 0.39538 0.0
C427 C 0.90553 0.02152 0.28547 0.0
N428 N 0.90919 0.96329 0.27023 0.0
C429 C 0.89231 0.992 0.26247 0.0
C430 C 0.93443 0.0215 0.32285 0.0
Tb431 Tb 0.88692 0.91276 0.2464 0.0
N432 N 0.93918 0.90629 0.28954 0.0
C433 C 0.95419 0.87678 0.29912 0.0
C434 C 0.99066 0.90076 0.38097 0.0
C435 C 0.97907 0.87338 0.34656 0.0
H436 H 0.8685 0.99213 0.23824 0.0
H437 H 0.9899 0.84974 0.35525 0.0
H438 H 1.01097 0.959 0.42977 0.0
H439 H 0.89285 0.04414 0.27616 0.0
H440 H 0.94703 0.85527 0.27205 0.0
H441 H 0.76267 0.95497 1.00162 0.0
H442 H 1.01053 0.89818 0.41638 0.0
H443 H 0.85049 0.79345 0.12397 0.0
H444 H 0.8184 0.9333 1.00642 0.0
H445 H 0.8084 0.75875 0.16902 0.0
H446 H 0.98695 0.01214 0.40256 0.0
H447 H 0.71752 0.92693 0.05815 0.0
H448 H 0.69845 0.8773 0.11743 0.0
H449 H 0.94384 0.04427 0.3431 0.0
H450 H 0.71057 0.82291 0.15944 0.0
N451 N 0.807 0.89536 0.07432 0.0
C452 C 0.79977 0.9214 0.03494 0.0
C453 C 0.74232 0.91748 0.06171 0.0
C454 C 0.74892 0.88818 0.09321 0.0
C455 C 0.76774 0.9335 0.03024 0.0
C456 C 0.7818 0.87727 0.09732 0.0
H457 H 0.75133 0.77839 0.17799 0.0
N458 N 0.82051 0.83667 0.12149 0.0
C459 C 0.8025 0.78366 0.15672 0.0
C460 C 0.78875 0.84685 0.12146 0.0
C461 C 0.82686 0.80433 0.1333 0.0
C462 C 0.77036 0.79474 0.16141 0.0
C463 C 0.76293 0.82634 0.14191 0.0
O464 O 0.85637 0.84145 1.01893 0.0
O465 O 0.90202 0.89903 0.14675 0.0
O466 O 0.89294 0.94973 0.16691 0.0
O467 O 0.85964 0.92915 0.08325 0.0
O468 O 0.91157 0.86242 0.08273 0.0
O469 O 0.86961 0.89117 0.99963 0.0
O470 O 0.85873 0.93373 0.32214 0.0
O471 O 0.84588 0.88777 0.19696 0.0
O472 O 0.88267 0.83676 0.14844 0.0
O473 O 0.89174 0.85848 0.25337 0.0
O474 O 0.83675 0.93152 0.24071 0.0
O475 O 0.88729 0.89051 0.33975 0.0
C476 C 0.92614 0.88396 0.11929 0.0
C477 C 0.84193 0.86229 0.91432 0.0
C478 C 0.8359 0.87221 0.79669 0.0
C479 C 0.85507 0.87298 0.85462 0.0
C480 C 0.80345 0.86059 0.79893 0.0
C481 C 0.80934 0.85097 0.91573 0.0
C482 C 0.79029 0.8501 0.85819 0.0
C483 C 0.87615 0.95343 0.11081 0.0
C484 C 0.86286 0.8627 0.97394 0.0
C485 C 0.73052 0.83795 0.14215 0.0
C486 C 0.7236 0.86896 0.11839 0.0
C487 C 0.82239 0.90642 0.21492 0.0
C488 C 0.88035 0.92748 0.43068 0.0
C489 C 0.87793 0.90939 0.48905 0.0
C490 C 0.88373 0.92447 0.55092 0.0
C491 C 0.89696 0.95604 0.55346 0.0
C492 C 0.89029 0.96021 0.43587 0.0
C493 C 0.90027 0.97368 0.49603 0.0
C494 C 0.89049 0.83352 0.21085 0.0
C495 C 0.86925 0.91334 0.3662 0.0
H496 H 0.88008 0.8821 0.85323 0.0
H497 H 0.78824 0.86005 0.75491 0.0
H498 H 0.79864 0.84275 0.96113 0.0
H499 H 0.76519 0.84137 0.85957 0.0
H500 H 0.86968 0.88431 0.48704 0.0
H501 H 0.90237 0.96786 0.60031 0.0
H502 H 0.88958 0.97584 0.39397 0.0
H503 H 0.90881 0.99854 0.49848 0.0
Tb504 Tb 0.39482 0.62261 0.3171 0.0
C505 C 0.34226 0.70107 0.57298 0.0
C506 C 0.38684 0.71983 0.64355 0.0
C507 C 0.33211 0.74153 0.6595 0.0
C508 C 0.3751 0.7004 0.59017 0.0
C509 C 0.32022 0.72108 0.60881 0.0
C510 C 0.36544 0.74112 0.67647 0.0
C511 C 0.27596 0.69918 0.54285 0.0
N512 N 0.3319 0.68239 0.52097 0.0
C513 C 0.29873 0.68107 0.50663 0.0
C514 C 0.28677 0.7197 0.59344 0.0
Tb515 Tb 0.36994 0.64541 0.4795 0.0
N516 N 0.39493 0.67883 0.55852 0.0
C517 C 0.42476 0.67153 0.58738 0.0
C518 C 0.41925 0.7159 0.66505 0.0
C519 C 0.43803 0.69095 0.63795 0.0
H520 H 0.28856 0.66419 0.47083 0.0
H521 H 0.46224 0.68579 0.6577 0.0
H522 H 0.37415 0.75636 0.71697 0.0
H523 H 0.24997 0.69725 0.53151 0.0
H524 H 0.43854 0.65027 0.57226 0.0
H525 H 0.36549 0.49463 0.31335 0.0
H526 H 0.42917 0.73038 0.70558 0.0
H527 H 0.46102 0.66291 0.27157 0.0
H528 H 0.35543 0.55315 0.33349 0.0
H529 H 0.51367 0.65072 0.21795 0.0
H530 H 0.31562 0.75733 0.68666 0.0
H531 H 0.41895 0.47629 0.26948 0.0
H532 H 0.47412 0.49134 0.22365 0.0
H533 H 0.26909 0.73414 0.62062 0.0
H534 H 0.51346 0.5341 0.19324 0.0
N535 N 0.40386 0.56764 0.3082 0.0
C536 C 0.37935 0.54537 0.31703 0.0
C537 C 0.41507 0.5019 0.28046 0.0
C538 C 0.43936 0.52502 0.26748 0.0
C539 C 0.38483 0.51218 0.30499 0.0
C540 C 0.43305 0.55803 0.28299 0.0
H541 H 0.52856 0.59361 0.19135 0.0
N542 N 0.44725 0.61317 0.28088 0.0
C543 C 0.4975 0.63105 0.23158 0.0
C544 C 0.45523 0.58181 0.26695 0.0
C545 C 0.46775 0.63786 0.26277 0.0
C546 C 0.50576 0.59882 0.21645 0.0
C547 C 0.48437 0.57371 0.2336 0.0
O548 O 0.39659 0.64273 0.22142 0.0
O549 O 0.38173 0.66383 0.38258 0.0
O550 O 0.33077 0.65461 0.40089 0.0
O551 O 0.34228 0.61345 0.32794 0.0
O552 O 0.40273 0.67518 0.29762 0.0
O553 O 0.36313 0.60447 0.24224 0.0
O554 O 0.32793 0.62018 0.51146 0.0
O555 O 0.37606 0.6036 0.41127 0.0
O556 O 0.4397 0.62264 0.38143 0.0
O557 O 0.42272 0.65915 0.46293 0.0
O558 O 0.39998 0.60286 0.49907 0.0
O559 O 0.37254 0.62014 0.56877 0.0
C560 C 0.39117 0.68879 0.34956 0.0
C561 C 0.38226 0.60645 0.1321 0.0
C562 C 0.37602 0.60222 1.01156 0.0
C563 C 0.37153 0.61973 0.07157 0.0
C564 C 0.39327 0.57266 1.01248 0.0
C565 C 0.39776 0.57595 0.13072 0.0
C566 C 0.404 0.55966 0.07166 0.0
C567 C 0.32175 0.63559 0.34964 0.0
C568 C 0.37482 0.62279 0.19651 0.0
C569 C 0.49109 0.54088 0.21841 0.0
C570 C 0.46881 0.51653 0.23612 0.0
C571 C 0.39263 0.58468 0.44931 0.0
C572 C 0.32318 0.62034 0.62954 0.0
C573 C 0.33871 0.61804 0.69209 0.0
C574 C 0.32135 0.62569 0.75017 0.0
C575 C 0.2887 0.63642 0.745 0.0
C576 C 0.28989 0.62928 0.62669 0.0
C577 C 0.27319 0.63814 0.68369 0.0
C578 C 0.4465 0.64209 0.433 0.0
C579 C 0.34146 0.61288 0.56791 0.0
H580 H 0.35866 0.64275 0.07144 0.0
H581 H 0.39712 0.55889 0.96737 0.0
H582 H 0.40416 0.56399 0.17521 0.0
H583 H 0.41616 0.53621 0.07201 0.0
H584 H 0.36398 0.60987 0.69581 0.0
H585 H 0.27491 0.6426 0.78872 0.0
H586 H 0.27666 0.62968 0.58031 0.0
H587 H 0.2479 0.64597 0.68021 0.0
Tb588 Tb 0.65274 0.13506 0.56586 0.0
C589 C 0.60059 0.04381 0.76337 0.0
C590 C 0.54224 0.0521 0.77208 0.0
C591 C 0.56478 0.99843 0.79082 0.0
C592 C 0.57393 0.06433 0.76107 0.0
C593 C 0.59632 1.0105 0.77818 0.0
C594 C 0.53766 0.01916 0.78697 0.0
C595 C 0.65404 1.00257 0.76101 0.0
N596 N 0.63035 0.05621 0.7465 0.0
C597 C 0.65708 0.03545 0.74518 0.0
C598 C 0.62362 0.99003 0.77785 0.0
Tb599 Tb 0.63066 0.11256 0.72545 0.0
N600 N 0.57874 0.09603 0.74515 0.0
C601 C 0.55341 0.11745 0.74659 0.0
C602 C 0.51593 0.07323 0.7657 0.0
C603 C 0.52167 0.10617 0.75501 0.0
H604 H 0.68111 0.04279 0.72973 0.0
H605 H 0.50176 0.12258 0.74772 0.0
H606 H 0.51328 1.00953 0.7955 0.0
H607 H 0.67529 0.98674 0.75916 0.0
H608 H 0.55767 0.143 0.73757 0.0
H609 H 0.67936 0.04215 0.38051 0.0
H610 H 0.4913 0.06383 0.76602 0.0
H611 H 0.70078 0.19875 0.6029 0.0
H612 H 0.64385 0.07618 0.45037 0.0
H613 H 0.75956 0.21059 0.61517 0.0
H614 H 0.56104 0.97299 0.80213 0.0
H615 H 0.73981 0.04552 0.39263 0.0
H616 H 0.78879 0.07343 0.44353 0.0
H617 H 0.62133 0.9644 0.78909 0.0
H618 H 0.81103 0.11911 0.50982 0.0
N619 N 0.68369 0.09907 0.50281 0.0
C620 C 0.67023 0.07856 0.45549 0.0
C621 C 0.72433 0.06085 0.42309 0.0
C622 C 0.73803 0.08365 0.46705 0.0
C623 C 0.69026 0.05896 0.41595 0.0
C624 C 0.71676 0.10338 0.50482 0.0
H625 H 0.80029 0.17068 0.57412 0.0
N626 N 0.70722 0.15046 0.56788 0.0
C627 C 0.75147 0.18727 0.59542 0.0
C628 C 0.729 0.12968 0.53988 0.0
C629 C 0.71793 0.18001 0.591 0.0
C630 C 0.77432 0.16481 0.57188 0.0
C631 C 0.76314 0.13617 0.54114 0.0
O632 O 0.6587 0.17477 0.5009 0.0
O633 O 0.61159 0.13378 0.63576 0.0
O634 O 0.61987 0.07141 0.65335 0.0
O635 O 0.66023 0.08268 0.58044 0.0
O636 O 0.6016 0.11931 0.54271 0.0
O637 O 0.62926 0.13319 0.474 0.0
O638 O 0.65626 0.1121 0.81592 0.0
O639 O 0.67147 0.13287 0.66846 0.0
O640 O 0.64655 0.18282 0.6169 0.0
O641 O 0.62539 0.1682 0.71892 0.0
O642 O 0.68077 0.09671 0.73145 0.0
O643 O 0.61031 0.13675 0.80857 0.0
C644 C 0.58799 0.12381 0.59863 0.0
C645 C 0.62257 0.1781 0.40487 0.0
C646 C 0.60585 0.18247 0.28907 0.0
C647 C 0.62536 0.16825 0.33849 0.0
C648 C 0.58429 0.20778 0.30673 0.0
C649 C 0.5992 0.20169 0.42192 0.0
C650 C 0.5808 0.21704 0.37283 0.0
C651 C 0.63837 0.06207 0.60299 0.0
C652 C 0.64193 0.16013 0.45417 0.0
C653 C 0.78474 0.11477 0.50884 0.0
C654 C 0.77213 0.0887 0.47129 0.0
C655 C 0.69513 0.11566 0.69237 0.0
C656 C 0.62417 0.11393 0.91225 0.0
C657 C 0.62063 0.13427 0.96844 0.0
C658 C 0.61344 0.1207 0.0302 0.0
C659 C 0.60921 0.08688 0.03475 0.0
C660 C 0.62054 0.08013 0.91894 0.0
C661 C 0.61275 0.06679 0.97947 0.0
C662 C 0.63537 0.19108 0.67616 0.0
C663 C 0.6337 0.12775 0.84812 0.0
H664 H 0.64212 0.14872 0.32539 0.0
H665 H 0.56928 0.21945 0.26965 0.0
H666 H 0.5946 0.20773 0.4728 0.0
H667 H 0.56316 0.23564 0.3862 0.0
H668 H 0.62408 0.16035 0.96454 0.0
H669 H 0.60368 0.07597 0.08154 0.0
H670 H 0.62447 0.06385 0.87785 0.0
H671 H 0.61 0.04067 0.98378 0.0
Tb672 Tb 0.89939 0.39398 0.80048 0.0
C673 C 0.79484 0.35005 0.96487 0.0
C674 C 0.76044 0.39808 0.9608 0.0
C675 C 0.73514 0.34529 0.97405 0.0
C676 C 0.79197 0.38335 0.95964 0.0
C677 C 0.7662 0.33066 0.97115 0.0
C678 C 0.73226 0.37896 0.96891 0.0
C679 C 0.80038 0.28326 0.96743 0.0
N680 N 0.82531 0.33639 0.96084 0.0
C681 C 0.82819 0.30318 0.96656 0.0
C682 C 0.76934 0.29693 0.97134 0.0
Tb683 Tb 0.86926 0.37243 0.95599 0.0
N684 N 0.81968 0.40112 0.95005 0.0
C685 C 0.81662 0.4341 0.94048 0.0
C686 C 0.75788 0.43158 0.95232 0.0
C687 C 0.7861 0.44959 0.94161 0.0
H688 H 0.85187 0.2915 0.96983 0.0
H689 H 0.7844 0.47553 0.93332 0.0
H690 H 0.70804 0.38993 0.96995 0.0
H691 H 0.80281 0.25722 0.96633 0.0
H692 H 0.83688 0.44923 0.92888 0.0
H693 H 0.99879 0.30525 0.8043 0.0
H694 H 0.73421 0.44366 0.95267 0.0
H695 H 0.89516 0.47368 0.77857 0.0
H696 H 0.94887 0.32882 0.8375 0.0
H697 H 0.92149 0.51614 0.71945 0.0
H698 H 0.7131 0.33069 0.97878 0.0
H699 H 0.03727 0.33062 0.73807 0.0
H700 H 0.0669 0.41794 0.62938 0.0
H701 H 0.74798 0.28121 0.97382 0.0
H702 H 0.03105 0.44038 0.64788 0.0
N703 N 0.95229 0.373 0.78541 0.0
C704 C 0.96292 0.34305 0.80442 0.0
C705 C 0.01584 0.34503 0.74872 0.0
C706 C 1.01032 0.37754 0.72674 0.0
C707 C 0.99297 0.32937 0.78676 0.0
C708 C 0.97297 0.39211 0.75208 0.0
H709 H 0.97173 0.50761 0.6577 0.0
N710 N 0.93093 0.43711 0.7636 0.0
C711 C 0.93343 0.49262 0.7217 0.0
C712 C 0.95941 0.42911 0.7339 0.0
C713 C 0.91873 0.46804 0.75838 0.0
C714 C 0.96173 0.48767 0.68547 0.0
C715 C 0.97802 0.45818 0.68751 0.0
O716 O 0.86831 0.42216 0.74217 0.0
O717 O 0.85381 0.39145 0.85957 0.0
O718 O 0.87808 0.32624 0.90045 0.0
O719 O 0.8974 0.33904 0.79612 0.0
O720 O 0.85462 0.36701 0.77221 0.0
O721 O 0.90107 0.387 0.69681 0.0
O722 O 0.87427 0.34351 0.03987 0.0
O723 O 0.91344 0.38207 0.89865 0.0
O724 O 0.90214 0.43881 0.87176 0.0
O725 O 0.8836 0.42223 0.97423 0.0
O726 O 0.92186 0.36265 0.98527 0.0
O727 O 0.86465 0.39507 0.0491 0.0
C728 C 0.83509 0.37561 0.81837 0.0
C729 C 0.87719 0.42826 0.62693 0.0
C730 C 0.87094 0.43034 0.50735 0.0
C731 C 0.87551 0.41236 0.56518 0.0
C732 C 0.87031 0.46449 0.51115 0.0
C733 C 0.873 0.4623 0.6296 0.0
C734 C 0.87108 0.48033 0.57212 0.0
C735 C 0.88823 0.31723 0.84098 0.0
C736 C 0.87771 0.40843 0.68734 0.0
C737 C 0.0148 0.45691 0.65004 0.0
C738 C 0.04022 0.42149 0.65549 0.0
C739 C 0.93771 0.37371 0.93593 0.0
C740 C 0.84803 0.36191 0.13757 0.0
C741 C 0.85636 0.37695 0.198 0.0
C742 C 0.83854 0.37001 0.255 0.0
C743 C 0.81185 0.34835 0.25085 0.0
C744 C 0.82125 0.3403 0.13447 0.0
C745 C 0.80315 0.3338 0.19074 0.0
C746 C 0.89597 0.44476 0.93646 0.0
C747 C 0.86897 0.36787 0.08019 0.0
H748 H 0.87586 0.38596 0.56233 0.0
H749 H 0.86716 0.47873 0.4671 0.0
H750 H 0.86995 0.47513 0.67569 0.0
H751 H 0.86864 0.50657 0.57497 0.0
H752 H 0.87705 0.39361 0.20105 0.0
H753 H 0.79774 0.34282 0.29417 0.0
H754 H 0.81452 0.32802 0.08922 0.0
H755 H 0.78251 0.31718 0.1879 0.0
Tb756 Tb 0.39298 0.11909 0.72755 0.0
C757 C 0.34004 0.19568 0.4891 0.0
C758 C 0.28444 0.17576 0.47231 0.0
C759 C 0.30204 0.225 0.41808 0.0
C760 C 0.31608 0.17271 0.50078 0.0
C761 C 0.3334 0.2219 0.44684 0.0
C762 C 0.27755 0.20208 0.43112 0.0
C763 C 0.3888 0.24084 0.46613 0.0
N764 N 0.37012 0.19172 0.51749 0.0
C765 C 0.39452 0.21401 0.50619 0.0
C766 C 0.35826 0.24461 0.43564 0.0
Tb767 Tb 0.379 0.14175 0.5649 0.0
N768 N 0.32425 0.14661 0.53783 0.0
C769 C 0.30165 0.1224 0.54728 0.0
C770 C 0.26097 0.15175 0.48441 0.0
C771 C 0.26963 0.12498 0.52219 0.0
H772 H 0.41872 0.21143 0.52733 0.0
H773 H 0.25184 0.10595 0.53096 0.0
H774 H 0.25359 0.20458 0.40811 0.0
H775 H 0.40821 0.25832 0.45791 0.0
H776 H 0.3079 0.10088 0.57425 0.0
H777 H 0.49266 0.20311 0.79845 0.0
H778 H 0.23637 0.15329 0.46378 0.0
H779 H 0.39749 0.03606 0.73594 0.0
H780 H 0.45058 0.18209 0.72321 0.0
H781 H 0.42149 0.99721 0.81188 0.0
H782 H 0.29645 0.24509 0.38588 0.0
H783 H 0.50855 0.172 0.89682 0.0
H784 H 0.50591 0.11936 0.95755 0.0
H785 H 0.35402 0.26528 0.40413 0.0
H786 H 0.48788 0.06222 0.95886 0.0
N787 N 0.44111 0.13883 0.77675 0.0
C788 C 0.45695 0.16758 0.76466 0.0
C789 C 0.48976 0.16248 0.86363 0.0
C790 C 0.47605 0.1317 0.87267 0.0
C791 C 0.48102 0.17995 0.80799 0.0
C792 C 0.45202 0.12029 0.82718 0.0
H793 H 0.4573 0.01621 0.90341 0.0
N794 N 0.4224 0.0778 0.77749 0.0
C795 C 0.42791 0.02275 0.81641 0.0
C796 C 0.44231 0.08827 0.82738 0.0
C797 C 0.41516 0.04514 0.77165 0.0
C798 C 0.44767 0.0336 0.86861 0.0
C799 C 0.45546 0.06665 0.87422 0.0
O800 O 0.36123 0.08578 0.77153 0.0
O801 O 0.35372 0.12301 0.65307 0.0
O802 O 0.37521 0.18813 0.62277 0.0
O803 O 0.39439 0.17394 0.72748 0.0
O804 O 0.34884 0.14869 0.73785 0.0
O805 O 0.37886 0.12754 0.82603 0.0
O806 O 0.41546 0.12695 0.49769 0.0
O807 O 0.4173 0.12445 0.63424 0.0
O808 O 0.398 0.07563 0.65561 0.0
O809 O 0.36562 0.0904 0.56818 0.0
O810 O 0.42914 0.16137 0.57507 0.0
O811 O 0.36532 0.1255 0.46879 0.0
C812 C 0.33247 0.1394 0.68686 0.0
C813 C 0.36455 0.08081 0.88875 0.0
C814 C 0.37306 0.07611 1.00808 0.0
C815 C 0.37247 0.09513 0.95072 0.0
C816 C 0.36586 0.04276 1.00299 0.0
C817 C 0.35676 0.04746 0.8857 0.0
C818 C 0.35785 0.02863 0.94215 0.0
C819 C 0.3853 0.19637 0.68362 0.0
C820 C 0.36166 0.10081 0.82839 0.0
C821 C 0.47749 0.07842 0.92258 0.0
C822 C 0.48769 0.11097 0.92197 0.0
C823 C 0.44147 0.14316 0.61983 0.0
C824 C 0.4038 0.13695 0.38525 0.0
C825 C 0.39213 0.12292 0.32562 0.0
C826 C 0.40293 0.13467 0.26464 0.0
C827 C 0.42409 0.16166 0.2638 0.0
C828 C 0.42528 0.16375 0.38285 0.0
C829 C 0.43494 0.17622 0.32255 0.0
C830 C 0.38243 0.06796 0.59875 0.0
C831 C 0.39522 0.12223 0.44911 0.0
H832 H 0.37773 0.12097 0.95465 0.0
H833 H 0.36613 0.02776 0.04636 0.0
H834 H 0.34969 0.0358 0.83959 0.0
H835 H 0.35211 1.00301 0.9386 0.0
H836 H 0.37564 0.10226 0.3266 0.0
H837 H 0.43265 0.17108 0.21755 0.0
H838 H 0.43512 0.17475 0.4275 0.0
H839 H 0.45155 0.19681 0.32137 0.0
Tb840 Tb 0.6681 0.63282 0.48562 0.0
C841 C 0.59594 0.53221 0.34734 0.0
C842 C 0.63718 0.4898 0.35269 0.0
C843 C 0.57945 0.47529 0.35595 0.0
C844 C 0.62865 0.52307 0.34787 0.0
C845 C 0.571 0.50828 0.35228 0.0
C846 C 0.61245 0.46612 0.35647 0.0
C847 C 0.53088 0.55116 0.35298 0.0
N848 N 0.5885 0.56447 0.34509 0.0
C849 C 0.55593 0.57364 0.34231 0.0
C850 C 0.53832 0.51825 0.35681 0.0
Tb851 Tb 0.63331 0.59964 0.33845 0.0
N852 N 0.65209 0.54673 0.34807 0.0
C853 C 0.68458 0.53817 0.35287 0.0
C854 C 0.67034 0.48129 0.35579 0.0
C855 C 0.69414 0.50558 0.35605 0.0
H856 H 0.54901 0.5987 0.3339 0.0
H857 H 0.7199 0.49931 0.36028 0.0
H858 H 0.61855 0.44066 0.36115 0.0
H859 H 0.5057 0.55919 0.3572 0.0
H860 H 0.70352 0.55622 0.35758 0.0
H861 H 0.63423 0.75484 0.55528 0.0
H862 H 0.6778 0.45615 0.35955 0.0
H863 H 0.74262 0.59411 0.48877 0.0
H864 H 0.62612 0.70297 0.49873 0.0
H865 H 0.79964 0.60839 0.5142 0.0
H866 H 0.56067 0.45672 0.36019 0.0
H867 H 0.68899 0.76943 0.60017 0.0
H868 H 0.74878 0.75669 0.60921 0.0
H869 H 0.51867 0.50077 0.36331 0.0
H870 H 0.79431 0.7186 0.59045 0.0
N871 N 0.67551 0.68727 0.50757 0.0
C872 C 0.65024 0.70883 0.51509 0.0
C873 C 0.68561 0.7465 0.57389 0.0
C874 C 0.71202 0.72553 0.56275 0.0
C875 C 0.65475 0.73846 0.54844 0.0
C876 C 0.70616 0.69554 0.52955 0.0
H877 H 0.81373 0.66407 0.55255 0.0
N878 N 0.72404 0.64251 0.50079 0.0
C879 C 0.78078 0.62684 0.51728 0.0
C880 C 0.73142 0.67312 0.52305 0.0
C881 C 0.74818 0.61889 0.50227 0.0
C882 C 0.78863 0.65829 0.53832 0.0
C883 C 0.76369 0.68147 0.54406 0.0
O884 O 0.68638 0.60526 0.56447 0.0
O885 O 0.65747 0.58637 0.4318 0.0
O886 O 0.59231 0.61587 0.40153 0.0
O887 O 0.61469 0.6484 0.4853 0.0
O888 O 0.64022 0.59188 0.52383 0.0
O889 O 0.6542 0.64656 0.58184 0.0
O890 O 0.65493 0.60398 0.24486 0.0
O891 O 0.64759 0.64418 0.39039 0.0
O892 O 0.70875 0.62708 0.40796 0.0
O893 O 0.68466 0.6079 0.3115 0.0
O894 O 0.61773 0.64945 0.31227 0.0
O895 O 0.60496 0.58869 0.25395 0.0
C896 C 0.64272 0.57092 0.4776 0.0
C897 C 0.68893 0.63047 0.67138 0.0
C898 C 0.68877 0.63725 0.79163 0.0
C899 C 0.67174 0.63161 0.73151 0.0
C900 C 0.72287 0.64201 0.79089 0.0
C901 C 0.72313 0.63453 0.6728 0.0
C902 C 0.73978 0.64071 0.73176 0.0
C903 C 0.58873 0.63589 0.45253 0.0
C904 C 0.6712 0.62306 0.60866 0.0
C905 C 0.76981 0.71199 0.57354 0.0
C906 C 0.74389 0.73361 0.58446 0.0
C907 C 0.63357 0.66631 0.35599 0.0
C908 C 0.61791 0.6191 0.15958 0.0
C909 C 0.63537 0.61885 0.10003 0.0
C910 C 0.62468 0.63793 0.04671 0.0
C911 C 0.5967 0.6576 0.0541 0.0
C912 C 0.59017 0.63928 0.16577 0.0
C913 C 0.57976 0.65842 0.1134 0.0
C914 C 0.71109 0.6177 0.34425 0.0
C915 C 0.62779 0.59713 0.21347 0.0
H916 H 0.64539 0.62769 0.73171 0.0
H917 H 0.73642 0.64626 0.83632 0.0
H918 H 0.73729 0.63236 0.62881 0.0
H919 H 0.76602 0.64405 0.73138 0.0
H920 H 0.65681 0.6034 0.09463 0.0
H921 H 0.58797 0.67234 1.01378 0.0
H922 H 0.57623 0.64 0.2108 0.0
H923 H 0.55826 0.6737 0.1186 0.0
Tb924 Tb 0.14844 0.88854 0.05806 0.0
C925 C 0.10681 0.992 0.20107 0.0
C926 C 0.15511 0.02514 0.18629 0.0
C927 C 0.10101 0.04971 0.17816 0.0
C928 C 0.14039 0.99459 0.19704 0.0
C929 C 0.08688 0.02004 0.19606 0.0
C930 C 0.13514 0.05218 0.17335 0.0
C931 C 0.04318 0.98981 0.24488 0.0
N932 N 0.09428 0.96301 0.21951 0.0
C933 C 0.06408 0.96284 0.24878 0.0
C934 C 0.0541 0.01809 0.21511 0.0
Tb935 Tb 0.12989 0.91893 0.21532 0.0
N936 N 0.15863 0.96764 0.20933 0.0
C937 C 0.1917 0.97114 0.22137 0.0
C938 C 0.18923 0.02793 0.19215 0.0
C939 C 0.20747 1.00101 0.21191 0.0
H940 H 0.0562 0.94227 0.27627 0.0
H941 H 0.23374 1.00319 0.21985 0.0
H942 H 0.14586 0.07553 0.16387 0.0
H943 H 0.01909 0.98919 0.26659 0.0
H944 H 0.20649 0.95139 0.23873 0.0
H945 H 0.06062 0.78676 0.02435 0.0
H946 H 0.20146 0.05102 0.1847 0.0
H947 H 0.2321 0.88052 0.04377 0.0
H948 H 0.08237 0.8338 0.08179 0.0
H949 H 0.26915 0.84978 0.97461 0.0
H950 H 0.08606 0.07134 0.17241 0.0
H951 H 0.09126 0.76118 0.93329 0.0
H952 H 0.14274 0.75833 0.86751 0.0
H953 H 0.03806 0.03911 0.21282 0.0
H954 H 0.19991 0.77595 0.85326 0.0
N955 N 0.12649 0.83775 0.0249 0.0
C956 C 0.09696 0.82414 0.04262 0.0
C957 C 0.10132 0.78243 0.95854 0.0
C958 C 0.13221 0.79462 0.94292 0.0
C959 C 0.08407 0.79673 1.00991 0.0
C960 C 0.14443 0.82208 0.97826 0.0
H961 H 0.24767 0.8086 0.89582 0.0
N962 N 0.18835 0.85448 1.01371 0.0
C963 C 0.24317 0.84405 0.97356 0.0
C964 C 0.1766 0.83136 0.97143 0.0
C965 C 0.2216 0.86079 1.01511 0.0
C966 C 0.23092 0.8213 0.92834 0.0
C967 C 0.19737 0.81428 0.92746 0.0
O968 O 0.18181 0.9182 1.00865 0.0
O969 O 0.14642 0.93355 0.11666 0.0
O970 O 0.08239 0.91636 0.16379 0.0
O971 O 0.09324 0.8868 0.06806 0.0
O972 O 0.11714 0.92974 0.03463 0.0
O973 O 0.14037 0.89695 0.95704 0.0
O974 O 0.1529 0.92857 0.30687 0.0
O975 O 0.14261 0.87462 0.15841 0.0
O976 O 0.19467 0.88945 0.12379 0.0
O977 O 0.17937 0.90067 0.23118 0.0
O978 O 0.10817 0.86945 0.22669 0.0
O979 O 0.10406 0.90957 0.30215 0.0
C980 C 0.12912 0.95067 0.07597 0.0
C981 C 0.18726 0.90977 0.89321 0.0
C982 C 0.19142 0.90056 0.77471 0.0
C983 C 0.17226 0.90646 0.83083 0.0
C984 C 0.22566 0.8976 0.78166 0.0
C985 C 0.22177 0.90989 0.89776 0.0
C986 C 0.24068 0.90274 0.84275 0.0
C987 C 0.07205 0.89913 0.11201 0.0
C988 C 0.16676 0.91483 0.95213 0.0
C989 C 0.18444 0.7891 0.8876 0.0
C990 C 0.15191 0.77908 0.89571 0.0
C991 C 0.12418 0.85293 0.18336 0.0
C992 C 0.13749 0.89291 0.39031 0.0
C993 C 0.13896 0.90198 0.45714 0.0
C994 C 0.15165 0.88022 0.50397 0.0
C995 C 0.16062 0.84862 0.48343 0.0
C996 C 0.14621 0.86113 0.37125 0.0
C997 C 0.15741 0.83904 0.41771 0.0
C998 C 0.20206 0.89289 0.18825 0.0
C999 C 0.12865 0.9171 0.34047 0.0
H1000 H 0.14579 0.90848 0.8258 0.0
H1001 H 0.24083 0.89255 0.73926 0.0
H1002 H 0.23429 0.915 0.94394 0.0
H1003 H 0.26708 0.90136 0.84754 0.0
H1004 H 0.13172 0.92634 0.47229 0.0
H1005 H 0.17015 0.83131 0.51849 0.0
H1006 H 0.14489 0.85345 0.3204 0.0
H1007 H 0.16431 0.81464 0.4025 0.0
Tb1008 Tb 0.90681 0.61713 0.22597 0.0
C1009 C 0.82251 0.70138 0.05544 0.0
C1010 C 0.76827 0.6803 0.0782 0.0
C1011 C 0.77444 0.73588 0.0412 0.0
C1012 C 0.80275 0.67626 0.07629 0.0
C1013 C 0.80845 0.73101 0.03507 0.0
C1014 C 0.75443 0.7107 0.06364 0.0
C1015 C 0.86169 0.74698 0.99518 0.0
N1016 N 0.85503 0.69514 0.0471 0.0
C1017 C 0.8743 0.71688 1.01442 0.0
C1018 C 0.82866 0.75418 1.0059 0.0
Tb1019 Tb 0.87304 0.64388 0.07413 0.0
N1020 N 0.81675 0.64651 0.08367 0.0
C1021 C 0.79722 0.61938 0.08576 0.0
C1022 C 0.74854 0.65295 0.08836 0.0
C1023 C 0.76304 0.62223 0.09035 0.0
H1024 H 0.89958 0.71104 1.00374 0.0
H1025 H 0.74791 0.60067 0.09452 0.0
H1026 H 0.72808 0.71433 0.06549 0.0
H1027 H 0.87731 0.76437 0.97098 0.0
H1028 H 0.80809 0.59537 0.08536 0.0
H1029 H 0.99822 0.71283 0.23019 0.0
H1030 H 0.722 0.65501 0.09015 0.0
H1031 H 0.90395 0.53939 0.25321 0.0
H1032 H 0.94997 0.68602 0.19433 0.0
H1033 H 0.9346 0.49647 0.30619 0.0
H1034 H 0.76325 0.75863 0.02655 0.0
H1035 H 0.03947 0.68854 0.29394 0.0
H1036 H 0.07113 0.59847 0.40058 0.0
H1037 H 0.81877 0.77724 0.98964 0.0
H1038 H 0.03675 0.54137 0.40292 0.0
N1039 N 0.95841 0.64043 0.23864 0.0
C1040 C 0.9658 0.67204 0.22465 0.0
C1041 C 0.0191 0.6729 0.2811 0.0
C1042 C 0.01593 0.63972 0.30066 0.0
C1043 C 0.99472 0.68773 0.24433 0.0
C1044 C 0.98017 0.6226 0.27223 0.0
H1045 H 0.98656 0.50676 0.36405 0.0
N1046 N 0.9404 0.57554 0.26107 0.0
C1047 C 0.94573 0.52035 0.30282 0.0
C1048 C 0.9691 0.58471 0.28947 0.0
C1049 C 0.92866 0.54468 0.26864 0.0
C1050 C 0.97509 0.52631 0.33706 0.0
C1051 C 0.98971 0.55685 0.3363 0.0
O1052 O 0.88218 0.59693 0.30602 0.0
O1053 O 0.86133 0.63285 0.17735 0.0
O1054 O 0.87733 0.68898 0.13217 0.0
O1055 O 0.89888 0.67118 0.23243 0.0
O1056 O 0.86058 0.59011 0.22628 0.0
O1057 O 0.90887 0.64176 0.31835 0.0
O1058 O 0.8895 0.64932 0.97726 0.0
O1059 O 0.91823 0.63155 0.12737 0.0
O1060 O 0.91306 0.57571 0.15172 0.0
O1061 O 0.87258 0.58993 0.07577 0.0
O1062 O 0.92438 0.65446 0.04315 0.0
O1063 O 0.84911 0.61728 0.99819 0.0
C1064 C 0.84155 0.61123 0.19938 0.0
C1065 C 0.89991 0.60983 0.41408 0.0
C1066 C 0.89582 0.6171 0.53263 0.0
C1067 C 0.88819 0.62744 0.46861 0.0
C1068 C 0.91636 0.59008 0.54191 0.0
C1069 C 0.91726 0.58091 0.42507 0.0
C1070 C 0.92654 0.5717 0.48812 0.0
C1071 C 0.88866 0.69474 0.19239 0.0
C1072 C 0.89077 0.62001 0.34693 0.0
C1073 C 0.02654 0.56146 0.37563 0.0
C1074 C 0.04809 0.59704 0.37274 0.0
C1075 C 0.94136 0.64225 0.09039 0.0
C1076 C 0.84751 0.64578 0.89741 0.0
C1077 C 0.86051 0.64336 0.83417 0.0
C1078 C 0.84438 0.65818 0.78125 0.0
C1079 C 0.81631 0.67715 0.79214 0.0
C1080 C 0.8178 0.66251 0.90665 0.0
C1081 C 0.80285 0.67897 0.85479 0.0
C1082 C 0.89499 0.56902 0.09715 0.0
C1083 C 0.86589 0.63145 0.95254 0.0
H1084 H 0.87223 0.64827 0.46151 0.0
H1085 H 0.92246 0.58193 0.59097 0.0
H1086 H 0.92402 0.56546 0.38527 0.0
H1087 H 0.94083 0.54979 0.49529 0.0
H1088 H 0.88261 0.6292 0.82568 0.0
H1089 H 0.80397 0.68903 0.7516 0.0
H1090 H 0.80586 0.66264 0.95328 0.0
H1091 H 0.78033 0.6924 0.86284 0.0
Tb1092 Tb 0.1646 0.13663 0.9601 0.0
C1093 C 0.08154 0.06725 0.74415 0.0
C1094 C 0.10031 0.01183 0.75831 0.0
C1095 C 0.04861 0.02193 0.7016 0.0
C1096 C 0.10485 0.04575 0.76766 0.0
C1097 C 0.05414 0.05559 0.70754 0.0
C1098 C 0.07147 1.00007 0.7277 0.0
C1099 C 0.04088 0.11122 0.68158 0.0
N1100 N 0.08727 0.09968 0.75177 0.0
C1101 C 0.06795 0.12162 0.7193 0.0
C1102 C 0.03359 0.07808 0.67659 0.0
Tb1103 Tb 0.13478 0.11442 0.80569 0.0
N1104 N 0.1333 0.05812 0.79359 0.0
C1105 C 0.15943 0.03755 0.8032 0.0
C1106 C 0.12567 0.99078 0.77643 0.0
C1107 C 0.15558 1.00377 0.79783 0.0
H1108 H 0.07332 0.1472 0.72171 0.0
H1109 H 0.17592 0.98781 0.80937 0.0
H1110 H 0.06744 0.97413 0.72095 0.0
H1111 H 0.02555 0.12881 0.65672 0.0
H1112 H 0.1834 0.04645 0.81704 0.0
H1113 H 0.09239 0.24019 0.04207 0.0
H1114 H 0.12306 0.96461 0.77065 0.0
H1115 H 0.24652 0.1253 0.95798 0.0
H1116 H 0.10327 0.19288 0.97174 0.0
H1117 H 0.29498 0.1511 1.01003 0.0
H1118 H 0.02722 0.01256 0.67531 0.0
H1119 H 0.13562 0.26117 0.11792 0.0
H1120 H 0.19383 0.25768 0.16007 0.0
H1121 H 0.01247 0.0701 0.64779 0.0
H1122 H 0.24948 0.23502 0.14776 0.0
N1123 N 0.15332 0.18786 1.00144 0.0
C1124 C 0.12301 0.20225 1.00145 0.0
C1125 C 0.14089 0.24077 0.08532 0.0
C1126 C 0.17203 0.22649 0.08442 0.0
C1127 C 0.11653 0.2291 0.04238 0.0
C1128 C 0.17783 0.2006 0.0396 0.0
H1129 H 0.28791 0.19725 0.08788 0.0
N1130 N 0.21297 0.1618 0.99161 0.0
C1131 C 0.27088 0.1615 1.01735 0.0
C1132 C 0.20893 0.18758 0.03335 0.0
C1133 C 0.24342 0.14774 0.98572 0.0
C1134 C 0.26681 0.18761 0.06109 0.0
C1135 C 0.23541 0.20045 0.07087 0.0
O1136 O 0.18599 0.10639 0.03035 0.0
O1137 O 0.14114 0.09586 0.90693 0.0
O1138 O 0.08834 0.12061 0.86078 0.0
O1139 O 0.1093 0.1361 0.96464 0.0
O1140 O 0.1847 0.0876 0.95226 0.0
O1141 O 0.14595 0.13804 0.05746 0.0
O1142 O 0.16228 0.14531 0.74539 0.0
O1143 O 0.15166 0.15682 0.86464 0.0
O1144 O 0.20355 0.14356 0.88343 0.0
O1145 O 0.18727 0.10246 0.81367 0.0
O1146 O 0.11065 0.16168 0.81003 0.0
O1147 O 0.13791 0.10425 0.70324 0.0
C1148 C 0.1598 0.07262 0.92652 0.0
C1149 C 0.18776 0.12709 0.13934 0.0
C1150 C 0.18956 0.14084 0.25679 0.0
C1151 C 0.17156 0.13649 0.19759 0.0
C1152 C 0.22378 0.1371 0.25693 0.0
C1153 C 0.22211 0.12246 0.14174 0.0
C1154 C 0.2399 0.12802 0.19969 0.0
C1155 C 0.08409 0.12971 0.92349 0.0
C1156 C 0.16882 0.1183 0.07853 0.0
C1157 C 0.22957 0.22526 0.11763 0.0
C1158 C 0.19785 0.23803 0.12494 0.0
C1159 C 0.13009 0.17832 0.84785 0.0
C1160 C 0.14268 0.15094 0.63678 0.0
C1161 C 0.15207 0.14407 0.57168 0.0
C1162 C 0.14068 0.16366 0.5198 0.0
C1163 C 0.11928 0.18964 0.53348 0.0
C1164 C 0.12271 0.17815 0.64941 0.0
C1165 C 0.11067 0.19701 0.59809 0.0
C1166 C 0.20996 0.12345 0.83321 0.0
C1167 C 0.15457 0.13034 0.69117 0.0
H1168 H 0.14504 0.13904 0.19764 0.0
H1169 H 0.23793 0.14043 0.30198 0.0
H1170 H 0.2354 0.11373 0.09931 0.0
H1171 H 0.26621 0.12437 0.20084 0.0
H1172 H 0.16843 0.12384 0.56138 0.0
H1173 H 0.11006 0.20477 0.4942 0.0
H1174 H 0.11651 0.18501 0.69891 0.0
H1175 H 0.09493 0.21765 0.60857 0.0
Tb1176 Tb 0.64841 0.37557 0.56582 0.0
C1177 C 0.61633 0.47927 0.70255 0.0
C1178 C 0.66641 0.50517 0.74123 0.0
C1179 C 0.62425 0.53762 0.68844 0.0
C1180 C 0.64691 0.47691 0.73165 0.0
C1181 C 0.60406 0.50999 0.68332 0.0
C1182 C 0.65564 0.53506 0.71619 0.0
C1183 C 0.5531 0.48385 0.65369 0.0
N1184 N 0.59857 0.45154 0.69302 0.0
C1185 C 0.56663 0.45396 0.67173 0.0
C1186 C 0.57207 0.51196 0.65843 0.0
Tb1187 Tb 0.62352 0.40284 0.72168 0.0
N1188 N 0.65695 0.44727 0.7529 0.0
C1189 C 0.68332 0.44628 0.7961 0.0
C1190 C 0.69585 0.50269 0.77659 0.0
C1191 C 0.70373 0.47334 0.80611 0.0
H1192 H 0.55058 0.43342 0.6702 0.0
H1193 H 0.72536 0.47159 0.8373 0.0
H1194 H 0.67109 0.55648 0.71903 0.0
H1195 H 0.52791 0.48518 0.63644 0.0
H1196 H 0.68925 0.42456 0.82324 0.0
H1197 H 0.58851 0.25899 0.54886 0.0
H1198 H 0.71171 0.52364 0.78435 0.0
H1199 H 0.72606 0.39857 0.52814 0.0
H1200 H 0.59166 0.3183 0.5648 0.0
H1201 H 0.77742 0.37188 0.49556 0.0
H1202 H 0.61578 0.56107 0.67129 0.0
H1203 H 0.63902 0.22808 0.52575 0.0
H1204 H 0.6988 0.22794 0.4965 0.0
H1205 H 0.56169 0.53504 0.64356 0.0
H1206 H 0.7503 0.25838 0.48388 0.0
N1207 N 0.64354 0.32058 0.5543 0.0
C1208 C 0.61385 0.30501 0.55553 0.0
C1209 C 0.64039 0.25398 0.53162 0.0
C1210 C 0.67026 0.27025 0.52511 0.0
C1211 C 0.6119 0.27141 0.54548 0.0
C1212 C 0.67106 0.3041 0.53678 0.0
H1213 H 0.77981 0.31201 0.48325 0.0
N1214 N 0.6992 0.35413 0.5386 0.0
C1215 C 0.75586 0.35734 0.50524 0.0
C1216 C 0.69986 0.32137 0.52894 0.0
C1217 C 0.72653 0.37234 0.52397 0.0
C1218 C 0.75712 0.32356 0.49841 0.0
C1219 C 0.72881 0.30516 0.5092 0.0
O1220 O 0.64543 0.40656 0.48369 0.0
O1221 O 0.63207 0.41907 0.61993 0.0
O1222 O 0.57726 0.38407 0.67754 0.0
O1223 O 0.59197 0.37685 0.56804 0.0
O1224 O 0.67496 0.42145 0.56799 0.0
O1225 O 0.63358 0.35674 0.47215 0.0
O1226 O 0.57999 0.39685 0.77518 0.0
O1227 O 0.6284 0.35934 0.65795 0.0
O1228 O 0.69413 0.37582 0.63191 0.0
O1229 O 0.67582 0.39115 0.7356 0.0
O1230 O 0.6386 0.3535 0.75435 0.0
O1231 O 0.62435 0.41108 0.82433 0.0
C1232 C 0.65419 0.43919 0.5995 0.0
C1233 C 0.65584 0.38296 0.37912 0.0
C1234 C 0.65654 0.37745 0.25886 0.0
C1235 C 0.6394 0.37618 0.31891 0.0
C1236 C 0.69027 0.38456 0.25976 0.0
C1237 C 0.68933 0.39114 0.37794 0.0
C1238 C 0.70651 0.39132 0.319 0.0
C1239 C 0.56893 0.37863 0.61513 0.0
C1240 C 0.63748 0.38389 0.44195 0.0
C1241 C 0.72835 0.27126 0.49902 0.0
C1242 C 0.69906 0.25388 0.5066 0.0
C1243 C 0.63788 0.33767 0.69911 0.0
C1244 C 0.58753 0.37896 0.88557 0.0
C1245 C 0.60322 0.38302 0.94744 0.0
C1246 C 0.59597 0.36205 0.99967 0.0
C1247 C 0.57309 0.33685 0.98947 0.0
C1248 C 0.56447 0.35365 0.877 0.0
C1249 C 0.55754 0.33268 0.92846 0.0
C1250 C 0.69988 0.38317 0.69561 0.0
C1251 C 0.59412 0.40215 0.83184 0.0
H1252 H 0.6133 0.37088 0.3185 0.0
H1253 H 0.70384 0.38563 0.21429 0.0
H1254 H 0.70198 0.39888 0.42204 0.0
H1255 H 0.73232 0.39762 0.31911 0.0
H1256 H 0.62073 0.40265 0.95535 0.0
H1257 H 0.56716 0.32051 0.02898 0.0
H1258 H 0.55153 0.35011 0.83075 0.0
H1259 H 0.53979 0.31327 0.92117 0.0
Tb1260 Tb 0.37502 0.87784 0.47688 0.0
C1261 C 0.44554 0.97185 0.33916 0.0
C1262 C 0.40362 0.01355 0.33177 0.0
C1263 C 0.46074 0.02948 0.3423 0.0
C1264 C 0.41278 0.98026 0.33291 0.0
C1265 C 0.46982 0.99663 0.34455 0.0
C1266 C 0.42774 0.03787 0.33586 0.0
C1267 C 0.51075 0.9552 0.35595 0.0
N1268 N 0.45366 0.9397 0.34196 0.0
C1269 C 0.48649 0.93158 0.34639 0.0
C1270 C 0.50255 0.98788 0.35425 0.0
Tb1271 Tb 0.40988 0.903 0.32856 0.0
N1272 N 0.38979 0.95614 0.33161 0.0
C1273 C 0.35715 0.96457 0.33079 0.0
C1274 C 0.37039 0.02161 0.32842 0.0
C1275 C 0.34707 0.99699 0.32839 0.0
H1276 H 0.49493 0.90681 0.34219 0.0
H1277 H 0.32115 1.00294 0.32782 0.0
H1278 H 0.42113 0.06332 0.33549 0.0
H1279 H 0.536 0.94803 0.363 0.0
H1280 H 0.33812 0.94693 0.33457 0.0
H1281 H 0.4055 0.75168 0.50831 0.0
H1282 H 0.36239 0.04672 0.32754 0.0
H1283 H 0.30265 0.91669 0.50812 0.0
H1284 H 0.41583 0.81045 0.51891 0.0
H1285 H 0.2447 0.90108 0.51564 0.0
H1286 H 0.47903 0.04862 0.34652 0.0
H1287 H 0.35021 0.73319 0.47283 0.0
H1288 H 0.28943 0.74554 0.46194 0.0
H1289 H 0.52167 1.00612 0.36017 0.0
H1290 H 0.24487 0.78541 0.47679 0.0
N1291 N 0.36767 0.8237 0.48775 0.0
C1292 C 0.39191 0.80222 0.50388 0.0
C1293 C 0.35415 0.75832 0.48482 0.0
C1294 C 0.32837 0.78044 0.4802 0.0
C1295 C 0.38574 0.76894 0.50106 0.0
C1296 C 0.33601 0.81359 0.48375 0.0
H1297 H 0.22823 0.84345 0.50074 0.0
N1298 N 0.31958 0.86838 0.48802 0.0
C1299 C 0.26305 0.88267 0.50659 0.0
C1300 C 0.31119 0.83644 0.48657 0.0
C1301 C 0.29614 0.89145 0.50211 0.0
C1302 C 0.25386 0.85013 0.49848 0.0
C1303 C 0.27804 0.82649 0.48887 0.0
O1304 O 0.35829 0.90674 0.55657 0.0
O1305 O 0.38619 0.92162 0.41924 0.0
O1306 O 0.45087 0.88374 0.38678 0.0
O1307 O 0.42846 0.86265 0.48182 0.0
O1308 O 0.40472 0.919 0.51125 0.0
O1309 O 0.38667 0.86291 0.57258 0.0
O1310 O 0.44151 0.9089 0.24809 0.0
O1311 O 0.39424 0.86096 0.3848 0.0
O1312 O 0.33366 0.88458 0.39875 0.0
O1313 O 0.35934 0.89258 0.29892 0.0
O1314 O 0.41926 0.85054 0.30357 0.0
O1315 O 0.39061 0.89756 0.23279 0.0
C1316 C 0.40113 0.93871 0.46409 0.0
C1317 C 0.35397 0.88157 0.66129 0.0
C1318 C 0.35139 0.88797 0.78089 0.0
C1319 C 0.36621 0.89519 0.72059 0.0
C1320 C 0.32373 0.86748 0.78108 0.0
C1321 C 0.3264 0.86106 0.66257 0.0
C1322 C 0.31123 0.85431 0.72219 0.0
C1323 C 0.45426 0.86948 0.44404 0.0
C1324 C 0.37182 0.88771 0.60001 0.0
C1325 C 0.27023 0.79346 0.47928 0.0
C1326 C 0.29552 0.77065 0.47213 0.0
C1327 C 0.40371 0.83627 0.35001 0.0
C1328 C 0.41619 0.92684 0.14873 0.0
C1329 C 0.40379 0.91503 0.08807 0.0
C1330 C 0.402 0.93544 0.03323 0.0
C1331 C 0.41266 0.96787 0.03952 0.0
C1332 C 0.42663 0.95939 0.1542 0.0
C1333 C 0.42481 0.97975 0.09979 0.0
C1334 C 0.33235 0.88788 0.33244 0.0
C1335 C 0.41815 0.90448 0.20477 0.0
H1336 H 0.38775 0.91077 0.72014 0.0
H1337 H 0.31208 0.86139 0.82695 0.0
H1338 H 0.31687 0.84988 0.61801 0.0
H1339 H 0.29 0.8384 0.72288 0.0
H1340 H 0.39565 0.88994 0.08334 0.0
H1341 H 0.41174 0.98386 0.99767 0.0
H1342 H 0.43644 0.96902 0.20009 0.0
H1343 H 0.433 1.00477 0.10428 0.0
C1344 C 0.18261 0.61257 0.6731 0.0
C1345 C 0.16377 0.63949 0.69594 0.0
C1346 C 0.13031 0.63668 0.59415 0.0
C1347 C 0.15094 0.61161 0.56904 0.0
N1348 N 0.19966 0.57884 0.5804 0.0
N1349 N 0.1223 0.68 0.67508 0.0
C1350 C 0.17798 0.60051 0.6074 0.0
C1351 C 0.13837 0.65237 0.65545 0.0
N1352 N 0.20439 0.59797 0.71493 0.0
N1353 N 0.1023 0.64469 0.56049 0.0
H1354 H 0.12657 0.69139 0.72055 0.0
H1355 H 0.10632 0.69286 0.64474 0.0
H1356 H 0.09593 0.6341 0.51522 0.0
H1357 H 0.08421 0.66001 0.57934 0.0
H1358 H 0.21645 0.57624 0.70397 0.0
H1359 H 0.20871 0.6064 0.76288 0.0
H1360 H 0.22181 0.5724 0.60277 0.0
H1361 H 0.19687 0.56937 0.5328 0.0
C1362 C 0.59589 0.89996 0.91458 0.0
C1363 C 0.6245 0.89421 0.95337 0.0
C1364 C 0.64571 0.85801 0.8662 0.0
C1365 C 0.61837 0.86603 0.82564 0.0
N1366 N 0.5675 0.89548 0.8105 0.0
N1367 N 0.67954 0.87249 0.96064 0.0
C1368 C 0.59358 0.8872 0.84967 0.0
C1369 C 0.65014 0.87432 0.92784 0.0
N1370 N 0.5703 0.91792 0.93799 0.0
N1371 N 0.66693 0.83401 0.84672 0.0
H1372 H 0.68391 0.88431 1.00539 0.0
H1373 H 0.70048 0.86172 0.94094 0.0
H1374 H 0.66458 0.82147 0.80197 0.0
H1375 H 0.68513 0.82449 0.87725 0.0
H1376 H 0.56934 0.92775 0.98553 0.0
H1377 H 0.56934 0.92775 0.98553 0.0
H1378 H 0.54881 0.91096 0.82662 0.0
H1379 H 0.56501 0.88754 0.76176 0.0
C1380 C 0.34319 0.42523 0.1864 0.0
C1381 C 0.34598 0.39283 0.20916 0.0
C1382 C 0.37749 0.37734 0.11139 0.0
C1383 C 0.37697 0.41034 0.09121 0.0
N1384 N 0.36167 0.46637 0.11043 0.0
N1385 N 0.36816 0.33862 0.19826 0.0
C1386 C 0.36041 0.4345 0.12898 0.0
C1387 C 0.36357 0.36896 0.17272 0.0
N1388 N 0.32344 0.44686 0.21904 0.0
N1389 N 0.39121 0.35397 0.07173 0.0
H1390 H 0.35773 0.33128 0.24226 0.0
H1391 H 0.38403 0.32131 0.17848 0.0
H1392 H 0.40368 0.35923 0.02866 0.0
H1393 H 0.38862 0.32907 0.07913 0.0
H1394 H 0.31757 0.4699 0.20182 0.0
H1395 H 0.31085 0.44093 0.26166 0.0
H1396 H 0.35374 0.48577 0.13968 0.0
H1397 H 0.37242 0.47381 0.06681 0.0
C1398 C 0.90411 0.11722 0.43536 0.0
C1399 C 0.89225 0.08922 0.46758 0.0
C1400 C 0.8544 0.07782 0.37553 0.0
C1401 C 0.86372 0.10772 0.3468 0.0
N1402 N 0.89456 0.1579 0.3521 0.0
N1403 N 0.85416 0.04433 0.47285 0.0
C1404 C 0.88798 0.1279 0.37721 0.0
C1405 C 0.86692 0.0698 0.43876 0.0
N1406 N 0.93107 0.13334 0.46002 0.0
N1407 N 0.83414 0.05681 0.3415 0.0
H1408 H 0.86279 0.03772 0.51923 0.0
H1409 H 0.8336 0.03103 0.45756 0.0
H1410 H 0.82458 0.06192 0.29501 0.0
H1411 H 0.82915 0.03318 0.35637 0.0
H1412 H 0.94316 0.15171 0.4351 0.0
H1413 H 0.94305 0.12664 0.50335 0.0
H1414 H 0.90911 0.17532 0.37612 0.0
H1415 H 0.88351 0.16648 0.30924 0.0
C1416 C 0.13094 0.37879 0.37856 0.0
C1417 C 0.15555 0.39434 0.34092 0.0
C1418 C 0.16488 0.43374 0.43217 0.0
C1419 C 0.13854 0.41976 0.46757 0.0
N1420 N 0.09366 0.38164 0.47124 0.0
N1421 N 0.19319 0.43901 0.32808 0.0
C1422 C 0.12082 0.39296 0.43983 0.0
C1423 C 0.17176 0.4225 0.36683 0.0
N1424 N 0.11785 0.34991 0.35655 0.0
N1425 N 0.18373 0.45749 0.46165 0.0
H1426 H 0.19885 0.43143 0.28036 0.0
H1427 H 0.20331 0.46156 0.34078 0.0
H1428 H 0.17911 0.46665 0.50875 0.0
H1429 H 0.20545 0.46632 0.442 0.0
H1430 H 0.10279 0.33528 0.38482 0.0
H1431 H 0.1238 0.3394 0.31123 0.0
H1432 H 0.07738 0.36469 0.45061 0.0
H1433 H 0.08612 0.39084 0.51668 0.0
C1434 C 0.83701 0.91552 0.71106 0.0
C1435 C 0.84897 0.88532 0.73412 0.0
C1436 C 0.88564 0.88121 0.63887 0.0
C1437 C 0.87132 0.90987 0.61286 0.0
N1438 N 0.82802 0.95018 0.61772 0.0
N1439 N 0.88101 0.83674 0.71575 0.0
C1440 C 0.84545 0.92583 0.64714 0.0
C1441 C 0.8723 0.86737 0.69681 0.0
N1442 N 0.8184 0.93498 0.75111 0.0
N1443 N 0.91267 0.86791 0.60964 0.0
H1444 H 0.87196 0.826 0.75806 0.0
H1445 H 0.89513 0.82104 0.687 0.0
H1446 H 0.92307 0.87746 0.56741 0.0
H1447 H 0.92633 0.84908 0.63006 0.0
H1448 H 0.81216 0.95886 0.73971 0.0
H1449 H 0.81186 0.92848 0.7986 0.0
H1450 H 0.80662 0.96004 0.63737 0.0
H1451 H 0.83291 0.95839 0.5706 0.0
C1452 C 0.32415 0.59425 0.85542 0.0
C1453 C 0.33594 0.6204 0.81723 0.0
C1454 C 0.37332 0.63657 0.90837 0.0
C1455 C 0.35987 0.61169 0.94789 0.0
N1456 N 0.31795 0.57104 0.96343 0.0
N1457 N 0.36809 0.66952 0.81027 0.0
C1458 C 0.33383 0.59189 0.92262 0.0
C1459 C 0.35951 0.64248 0.84459 0.0
N1460 N 0.30471 0.57076 0.82658 0.0
N1461 N 0.40006 0.65371 0.93077 0.0
H1462 H 0.35891 0.67428 0.76332 0.0
H1463 H 0.38243 0.68836 0.82993 0.0
H1464 H 0.41019 0.65055 0.97755 0.0
H1465 H 0.41345 0.66952 0.90176 0.0
H1466 H 0.29837 0.54918 0.84954 0.0
H1467 H 0.29747 0.57126 0.77727 0.0
H1468 H 0.29653 0.55857 0.95014 0.0
H1469 H 0.32429 0.56859 1.01293 0.0
C1470 C 0.58004 0.14439 0.1227 0.0
C1471 C 0.61094 0.14103 0.09164 0.0
C1472 C 0.63705 0.17051 0.1844 0.0
C1473 C 0.60707 0.1697 0.21956 0.0
N1474 N 0.55116 0.14993 0.22567 0.0
N1475 N 0.66996 0.14565 0.09908 0.0
C1476 C 0.57873 0.15525 0.18949 0.0
C1477 C 0.63975 0.15284 0.12395 0.0
N1478 N 0.55189 0.13718 0.08826 0.0
N1479 N 0.66279 0.18884 0.2078 0.0
H1480 H 0.67319 0.1333 0.05447 0.0
H1481 H 0.69162 0.14932 0.12596 0.0
H1482 H 0.6615 0.20279 0.25095 0.0
H1483 H 0.68411 0.1927 0.18101 0.0
H1484 H 0.52846 0.14205 0.10605 0.0
H1485 H 0.5521 0.12924 0.03931 0.0
H1486 H 0.53111 0.13647 0.20814 0.0
H1487 H 0.54951 0.15601 0.27543 0.0
C1488 C 0.8777 0.37788 0.35118 0.0
C1489 C 0.84749 0.38559 0.31932 0.0
C1490 C 0.83113 0.41809 0.41529 0.0
C1491 C 0.86286 0.41375 0.44364 0.0
N1492 N 0.9183 0.39362 0.4339 0.0
N1493 N 0.79856 0.41874 0.3153 0.0
C1494 C 0.88675 0.39475 0.41031 0.0
C1495 C 0.82507 0.40735 0.34974 0.0
N1496 N 0.89719 0.35366 0.32637 0.0
N1497 N 0.80636 0.43141 0.45174 0.0
H1498 H 0.79359 0.41204 0.26655 0.0
H1499 H 0.7834 0.43727 0.33294 0.0
H1500 H 0.80937 0.43853 0.50085 0.0
H1501 H 0.78198 0.43207 0.43551 0.0
H1502 H 0.91774 0.34472 0.35116 0.0
H1503 H 0.89119 0.34039 0.28381 0.0
H1504 H 0.93756 0.383 0.40796 0.0
H1505 H 0.92583 0.40573 0.47691 0.0
C1506 C 0.41803 0.09807 0.16912 0.0
C1507 C 0.39416 0.11779 0.20113 0.0
C1508 C 0.35537 0.10717 0.10975 0.0
C1509 C 0.38047 0.09078 0.07439 0.0
N1510 N 0.43643 0.07207 0.06806 0.0
N1511 N 0.34136 0.14435 0.19893 0.0
C1512 C 0.41201 0.08656 0.10359 0.0
C1513 C 0.36309 0.12313 0.17072 0.0
N1514 N 0.44612 0.08962 0.2022 0.0
N1515 N 0.3238 0.10637 0.08629 0.0
H1516 H 0.34578 0.15586 0.24421 0.0
H1517 H 0.32014 0.15241 0.17519 0.0
H1518 H 0.31717 0.09511 0.04179 0.0
H1519 H 0.30379 0.11459 0.11325 0.0
H1520 H 0.46281 0.07243 0.18482 0.0
H1521 H 0.45148 0.09778 0.24991 0.0
H1522 H 0.46096 0.07163 0.08305 0.0
H1523 H 0.43249 0.0621 1.02123 0.0
C1524 C 0.64302 0.60829 0.94344 0.0
C1525 C 0.64217 0.63729 0.98232 0.0
C1526 C 0.66811 0.66704 0.89245 0.0
C1527 C 0.67168 0.63742 0.85639 0.0
N1528 N 0.6712 0.57875 0.85727 0.0
N1529 N 0.66086 0.69261 0.99946 0.0
C1530 C 0.66156 0.60768 0.88459 0.0
C1531 C 0.65673 0.66625 0.9584 0.0
N1532 N 0.62533 0.5816 0.96129 0.0
N1533 N 0.67504 0.696 0.86334 0.0
H1534 H 0.65383 0.69257 0.04862 0.0
H1535 H 0.67421 0.7132 0.98678 0.0
H1536 H 0.68336 0.6975 0.81514 0.0
H1537 H 0.66979 0.71855 0.88487 0.0
H1538 H 0.62259 0.56104 0.93106 0.0
H1539 H 0.61082 0.58115 1.0032 0.0
H1540 H 0.66695 0.55631 0.87897 0.0
H1541 H 0.6869 0.57758 0.81722 0.0
C1542 C 0.14269 0.87041 0.62453 0.0
C1543 C 0.15656 0.88989 0.57453 0.0
C1544 C 0.18573 0.92174 0.65975 0.0
C1545 C 0.17631 0.8988 0.70777 0.0
N1546 N 0.1456 0.85027 0.7347 0.0
N1547 N 0.19225 0.93503 0.54634 0.0
C1548 C 0.15455 0.87307 0.68996 0.0
C1549 C 0.17799 0.91599 0.59268 0.0
N1550 N 0.11804 0.84877 0.61113 0.0
N1551 N 0.20278 0.94929 0.67628 0.0
H1552 H 0.19027 0.93062 0.49599 0.0
H1553 H 0.20798 0.95433 0.55869 0.0
H1554 H 0.20878 0.95633 0.72442 0.0
H1555 H 0.20878 0.95633 0.72442 0.0
H1556 H 0.10655 0.84618 0.56523 0.0
H1557 H 0.10655 0.84618 0.56523 0.0
H1558 H 0.12985 0.83095 0.7226 0.0
H1559 H 0.15485 0.84976 0.78263 0.0
C1560 C 0.87726 0.67066 0.68125 0.0
C1561 C 0.85463 0.65025 0.71359 0.0
C1562 C 0.85505 0.61113 0.62186 0.0
C1563 C 0.87873 0.63086 0.59043 0.0
N1564 N 0.90948 0.68086 0.58355 0.0
N1565 N 0.8185 0.60359 0.71374 0.0
C1566 C 0.88873 0.6613 0.61787 0.0
C1567 C 0.84237 0.62127 0.68338 0.0
N1568 N 0.88865 0.69821 0.71262 0.0
N1569 N 0.8456 0.58209 0.59348 0.0
H1570 H 0.8101 0.60899 0.76089 0.0
H1571 H 0.80547 0.58455 0.69147 0.0
H1572 H 0.85176 0.57526 0.54559 0.0
H1573 H 0.83218 0.56424 0.6171 0.0
H1574 H 0.90736 0.71292 0.6952 0.0
H1575 H 0.88009 0.70597 0.75839 0.0
H1576 H 0.91579 0.70451 0.5976 0.0
H1577 H 0.91939 0.67402 0.53838 0.0
C1578 C 0.14297 0.12897 0.41659 0.0
C1579 C 0.15191 0.158 0.4511 0.0
C1580 C 0.17835 0.17841 0.3519 0.0
C1581 C 0.17324 0.14774 0.32055 0.0
N1582 N 0.1556 0.09172 0.32712 0.0
N1583 N 0.18301 0.20818 0.45521 0.0
C1584 C 0.15674 0.12243 0.35384 0.0
C1585 C 0.17085 0.18225 0.41963 0.0
N1586 N 0.12066 0.10807 0.44286 0.0
N1587 N 0.19022 0.20389 0.31666 0.0
H1588 H 0.17949 0.21107 0.50565 0.0
H1589 H 0.19915 0.22526 0.43626 0.0
H1590 H 0.19578 0.20182 0.2668 0.0
H1591 H 0.1916 0.22767 0.335 0.0
H1592 H 0.11073 0.08827 0.41688 0.0
H1593 H 0.1097 0.1122 0.48833 0.0
H1594 H 0.14701 0.07156 0.35233 0.0
H1595 H 0.16594 0.08578 0.28191 0.0
C1596 C 0.61988 0.39829 0.16783 0.0
C1597 C 0.63952 0.37288 0.19393 0.0
C1598 C 0.63441 0.34278 0.08904 0.0
C1599 C 0.61182 0.36645 0.0658 0.0
N1600 N 0.57846 0.41387 0.08788 0.0
N1601 N 0.6616 0.31864 0.1832 0.0
C1602 C 0.60322 0.39341 0.10661 0.0
C1603 C 0.64563 0.34441 0.15557 0.0
N1604 N 0.61836 0.42769 0.19996 0.0
N1605 N 0.64608 0.31941 0.04683 0.0
H1606 H 0.67005 0.31898 0.2318 0.0
H1607 H 0.66388 0.29599 0.15998 0.0
H1608 H 0.63885 0.31779 0.99754 0.0
H1609 H 0.66515 0.30361 0.05888 0.0
H1610 H 0.60719 0.44819 0.18012 0.0
H1611 H 0.63112 0.43248 0.24367 0.0
H1612 H 0.56878 0.4318 0.11882 0.0
H1613 H 0.56558 0.41114 0.04356 0.0
C1614 C 0.35713 0.93169 0.94734 0.0
C1615 C 0.38914 0.92288 0.96878 0.0
C1616 C 0.39577 0.88927 0.86892 0.0
C1617 C 0.36521 0.90098 0.8444 0.0
N1618 N 0.32066 0.93937 0.85414 0.0
N1619 N 0.44124 0.89747 0.94554 0.0
C1620 C 0.34695 0.92392 0.88192 0.0
C1621 C 0.40918 0.90288 0.92821 0.0
N1622 N 0.33605 0.94661 0.99005 0.0
N1623 N 0.4114 0.86427 0.83706 0.0
H1624 H 0.4518 0.9067 0.98889 0.0
H1625 H 0.45804 0.88612 0.91448 0.0
H1626 H 0.4023 0.85341 0.79394 0.0
H1627 H 0.43188 0.85241 0.85637 0.0
H1628 H 0.31128 0.95044 0.97908 0.0
H1629 H 0.34266 0.95279 0.03832 0.0
H1630 H 0.30838 0.95859 0.87711 0.0
H1631 H 0.31313 0.93503 0.80561 0.0
C1632 C 0.15838 0.7637 0.1971 0.0
C1633 C 0.12983 0.74394 0.19925 0.0
C1634 C 0.09732 0.7956 0.1982 0.0
C1635 C 0.12611 0.81482 0.18403 0.0
N1636 N 0.18394 0.81266 0.15892 0.0
N1637 N 0.07325 0.7435 0.22992 0.0
C1638 C 0.15654 0.79752 0.18064 0.0
C1639 C 0.0995 0.76061 0.20779 0.0
N1640 N 0.18746 0.75044 0.21669 0.0
N1641 N 0.06721 0.81033 0.19799 0.0
H1642 H 0.07475 0.71872 0.2388 0.0
H1643 H 0.05127 0.75391 0.24517 0.0
H1644 H 0.06394 0.83494 0.1887 0.0
H1645 H 0.045 0.79784 0.19999 0.0
H1646 H 0.2091 0.76381 0.22275 0.0
H1647 H 0.18822 0.72722 0.23681 0.0
H1648 H 0.20675 0.8014 0.15436 0.0
H1649 H 0.18253 0.83474 0.13591 0.0
C1650 C 0.54588 0.88501 0.48298 0.0
C1651 C 0.56014 0.85717 0.45236 0.0
C1652 C 0.50463 0.83164 0.45426 0.0
C1653 C 0.48984 0.86251 0.46465 0.0
N1654 N 0.49698 0.91661 0.5075 0.0
N1655 N 0.55311 0.79991 0.42695 0.0
C1656 C 0.5108 0.88861 0.48445 0.0
C1657 C 0.53951 0.82909 0.44463 0.0
N1658 N 0.56554 0.90578 0.51843 0.0
N1659 N 0.48565 0.80453 0.4587 0.0
H1660 H 0.57838 0.79637 0.4241 0.0
H1661 H 0.53935 0.77981 0.41126 0.0
H1662 H 0.46051 0.80618 0.46574 0.0
H1663 H 0.49486 0.78091 0.45999 0.0
H1664 H 0.55638 0.9235 0.55046 0.0
H1665 H 0.59082 0.90251 0.52247 0.0
H1666 H 0.51011 0.93818 0.51494 0.0
H1667 H 0.4721 0.91759 0.51915 0.0
C1668 C 0.34953 0.28367 0.70034 0.0
C1669 C 0.37859 0.30271 0.71127 0.0
C1670 C 0.40628 0.25078 0.73859 0.0
C1671 C 0.38134 0.23238 0.70535 0.0
N1672 N 0.32462 0.2314 0.67457 0.0
N1673 N 0.43481 0.30221 0.75143 0.0
C1674 C 0.35162 0.24908 0.69191 0.0
C1675 C 0.40709 0.28567 0.73355 0.0
N1676 N 0.3195 0.29848 0.70181 0.0
N1677 N 0.42592 0.23587 0.78327 0.0
H1678 H 0.43557 0.32735 0.75527 0.0
H1679 H 0.45723 0.29064 0.76005 0.0
H1680 H 0.41926 0.21332 0.80153 0.0
H1681 H 0.44354 0.24814 0.81178 0.0
H1682 H 0.29729 0.28591 0.70359 0.0
H1683 H 0.31669 0.3235 0.70688 0.0
H1684 H 0.30284 0.24119 0.65641 0.0
H1685 H 0.32453 0.20642 0.6809 0.0
C1686 C 0.99632 0.16489 0.94416 0.0
C1687 C 0.97938 0.13792 0.96959 0.0
C1688 C 0.03362 0.11168 0.98967 0.0
C1689 C 0.04902 0.13471 0.94817 0.0
N1690 N 0.04482 0.18622 0.89379 0.0
N1691 N 0.9829 0.09189 0.0396 0.0
C1692 C 0.03034 0.16236 0.92879 0.0
C1693 C 0.99847 0.11296 0.99917 0.0
N1694 N 0.98036 0.19375 0.93801 0.0
N1695 N 0.05268 0.08905 1.02036 0.0
H1696 H 0.95817 0.09495 0.05143 0.0
H1697 H 0.99413 0.07255 0.06334 0.0
H1698 H 0.07826 0.08962 1.01829 0.0
H1699 H 0.04378 0.07069 0.04994 0.0
H1700 H 0.99225 0.21586 0.93044 0.0
H1701 H 0.95529 0.19576 0.94489 0.0
H1702 H 0.03182 0.2045 0.8699 0.0
H1703 H 0.06993 0.18689 0.88739 0.0
C1704 C 0.10433 0.27055 0.82041 0.0
C1705 C 0.13365 0.28795 0.8346 0.0
C1706 C 0.16117 0.23505 0.85543 0.0
C1707 C 0.13176 0.21654 0.84249 0.0
N1708 N 0.07906 0.2212 0.78129 0.0
N1709 N 0.19195 0.28359 0.82731 0.0
C1710 C 0.10449 0.23545 0.81561 0.0
C1711 C 0.16267 0.26913 0.84058 0.0
N1712 N 0.07568 0.28709 0.81123 0.0
N1713 N 0.1882 0.22072 0.8817 0.0
H1714 H 0.19262 0.30701 0.80822 0.0
H1715 H 0.21416 0.27104 0.82489 0.0
H1716 H 0.18784 0.19732 0.89867 0.0
H1717 H 0.21016 0.2329 0.8918 0.0
H1718 H 0.05277 0.27569 0.80926 0.0
H1719 H 0.07437 0.31231 0.81122 0.0
H1720 H 0.06315 0.23447 0.75142 0.0
H1721 H 0.0741 0.19667 0.77652 0.0
C1722 C 0.01618 0.88694 0.04717 0.0
C1723 C 0.03449 0.89403 0.10624 0.0
C1724 C 0.9819 0.90851 0.15613 0.0
C1725 C 0.96272 0.89285 0.10797 0.0
N1726 N 0.96403 0.87104 0.9962 0.0
N1727 N 0.02781 0.89692 0.22408 0.0
C1728 C 0.98064 0.88266 0.05015 0.0
C1729 C 0.01525 0.90007 0.16278 0.0
N1730 N 0.0316 0.88643 0.98792 0.0
N1731 N 0.97141 0.93625 0.18517 0.0
H1732 H 0.01467 0.90481 0.26448 0.0
H1733 H 0.04973 0.88493 0.23408 0.0
H1734 H 0.94944 0.94695 0.17146 0.0
H1735 H 0.98714 0.95026 0.21483 0.0
H1736 H 0.01904 0.88457 0.94317 0.0
H1737 H 0.05646 0.89134 0.98247 0.0
H1738 H 0.97554 0.85835 0.95815 0.0
H1739 H 0.93901 0.87491 0.98856 0.0
C1740 C 0.36579 0.74724 0.34657 0.0
C1741 C 0.39346 0.72659 0.35929 0.0
C1742 C 0.42816 0.77743 0.35175 0.0
C1743 C 0.4 0.79834 0.35406 0.0
N1744 N 0.34526 0.79976 0.31 0.0
N1745 N 0.45256 0.72344 0.35961 0.0
C1746 C 0.36958 0.78224 0.33923 0.0
C1747 C 0.425 0.7423 0.35726 0.0
N1748 N 0.33519 0.73373 0.34482 0.0
N1749 N 0.45792 0.79072 0.33675 0.0
H1750 H 0.45173 0.69817 0.3613 0.0
H1751 H 0.47631 0.73262 0.36467 0.0
H1752 H 0.46226 0.81566 0.33553 0.0
H1753 H 0.47824 0.77726 0.32186 0.0
H1754 H 0.31358 0.74714 0.34055 0.0
H1755 H 0.33136 0.7095 0.35639 0.0
H1756 H 0.32407 0.78934 0.28965 0.0
H1757 H 0.34827 0.82422 0.29857 0.0
C1758 C 0.52812 0.10277 0.5987 0.0
C1759 C 0.55051 0.12933 0.60449 0.0
C1760 C 0.50136 0.1655 0.61624 0.0
C1761 C 0.47947 0.13794 0.62141 0.0
N1762 N 0.47727 0.07988 0.63619 0.0
N1763 N 0.55614 0.18695 0.59268 0.0
C1764 C 0.49423 0.10648 0.61666 0.0
C1765 C 0.53644 0.16107 0.60685 0.0
N1766 N 0.53874 0.07393 0.57294 0.0
N1767 N 0.48892 0.19631 0.62261 0.0
H1768 H 0.58118 0.18444 0.58368 0.0
H1769 H 0.54758 0.21036 0.58389 0.0
H1770 H 0.46396 0.20145 0.62619 0.0
H1771 H 0.50336 0.21703 0.62933 0.0
H1772 H 0.52288 0.0546 0.56179 0.0
H1773 H 0.56239 0.07118 0.55458 0.0
H1774 H 0.4874 0.05658 0.6377 0.0
H1775 H 0.4553 0.08214 0.66092 0.0
C1776 C 0.92198 0.22893 0.82568 0.0
C1777 C 0.89481 0.21064 0.85217 0.0
C1778 C 0.86167 0.26074 0.83609 0.0
C1779 C 0.88977 0.28007 0.82779 0.0
N1780 N 0.9382 0.27639 0.76359 0.0
N1781 N 0.83717 0.21233 0.87775 0.0
C1782 C 0.91822 0.26279 0.80886 0.0
C1783 C 0.86435 0.22771 0.85667 0.0
N1784 N 0.95166 0.21435 0.81552 0.0
N1785 N 0.83317 0.27143 0.8088 0.0
H1786 H 0.83845 0.18911 0.8955 0.0
H1787 H 0.81459 0.22387 0.88325 0.0
H1788 H 0.83354 0.29168 0.77831 0.0
H1789 H 0.81178 0.25746 0.80555 0.0
H1790 H 0.97285 0.22739 0.80456 0.0
H1791 H 0.95631 0.18991 0.82392 0.0
H1792 H 0.95773 0.26423 0.74145 0.0
H1793 H 0.93142 0.29771 0.73981 0.0
C1794 C 0.66507 0.75518 0.33883 0.0
C1795 C 0.63603 0.77387 0.33776 0.0
C1796 C 0.60503 0.72174 0.33622 0.0
C1797 C 0.63414 0.70391 0.35539 0.0
N1798 N 0.69316 0.70539 0.36545 0.0
N1799 N 0.58193 0.77189 0.29168 0.0
C1800 C 0.66446 0.72135 0.35481 0.0
C1801 C 0.6066 0.7564 0.32437 0.0
N1802 N 0.69209 0.76835 0.31091 0.0
N1803 N 0.57575 0.70566 0.32859 0.0
H1804 H 0.58641 0.79376 0.26828 0.0
H1805 H 0.55963 0.76141 0.27771 0.0
H1806 H 0.57259 0.68107 0.33824 0.0
H1807 H 0.55339 0.71708 0.31958 0.0
H1808 H 0.71409 0.75591 0.30366 0.0
H1809 H 0.68961 0.78962 0.2838 0.0
H1810 H 0.71584 0.71702 0.3692 0.0
H1811 H 0.69383 0.6807 0.37403 0.0
C1812 C 0.87973 0.74556 0.26668 0.0
C1813 C 0.89482 0.73023 0.21124 0.0
C1814 C 0.92084 0.78287 0.18579 0.0
C1815 C 0.89972 0.79925 0.22936 0.0
N1816 N 0.86558 0.79639 0.3243 0.0
N1817 N 0.93029 0.73598 0.11747 0.0
C1818 C 0.88127 0.78059 0.27436 0.0
C1819 C 0.91582 0.74937 0.17134 0.0
N1820 N 0.86384 0.7268 0.31121 0.0
N1821 N 0.94602 0.79974 0.15818 0.0
H1822 H 0.92909 0.7113 0.10673 0.0
H1823 H 0.94133 0.74977 0.08119 0.0
H1824 H 0.95043 0.8242 0.16987 0.0
H1825 H 0.96448 0.78877 0.13049 0.0
H1826 H 0.85319 0.73572 0.35404 0.0
H1827 H 0.86276 0.70152 0.30711 0.0
H1828 H 0.84921 0.78543 0.35609 0.0
H1829 H 0.86968 0.82101 0.33455 0.0
C1830 C 0.60634 0.24658 0.70562 0.0
C1831 C 0.63545 0.22811 0.69391 0.0
C1832 C 0.66604 0.28083 0.68873 0.0
C1833 C 0.63676 0.29968 0.69595 0.0
N1834 N 0.58208 0.29833 0.73992 0.0
N1835 N 0.69416 0.22978 0.70604 0.0
C1836 C 0.60776 0.28185 0.71281 0.0
C1837 C 0.66556 0.24596 0.69457 0.0
N1838 N 0.57708 0.23063 0.71001 0.0
N1839 N 0.69486 0.29595 0.67488 0.0
H1840 H 0.69475 0.20471 0.71064 0.0
H1841 H 0.71649 0.24124 0.71672 0.0
H1842 H 0.69645 0.32088 0.66992 0.0
H1843 H 0.71616 0.28361 0.66129 0.0
H1844 H 0.55445 0.24251 0.70993 0.0
H1845 H 0.57558 0.2053 0.71116 0.0
H1846 H 0.56197 0.28685 0.76086 0.0
H1847 H 0.582 0.32361 0.74536 0.0
C1848 C 0.9946 0.34337 0.93915 0.0
C1849 C 0.97656 0.37322 0.93125 0.0
C1850 C 0.03173 0.40071 0.94338 0.0
C1851 C 0.04979 0.37157 0.93096 0.0
N1852 N 0.04573 0.31282 0.93015 0.0
N1853 N 0.98111 0.4316 0.93313 0.0
C1854 C 0.03031 0.34229 0.93307 0.0
C1855 C 0.99626 0.40217 0.93442 0.0
N1856 N 0.97764 0.31555 0.95298 0.0
N1857 N 0.04763 0.42584 0.97417 0.0
H1858 H 0.95607 0.43352 0.92622 0.0
H1859 H 0.99348 0.4538 0.93484 0.0
H1860 H 0.07234 0.42427 0.98786 0.0
H1861 H 0.03538 0.44588 0.99411 0.0
H1862 H 0.98874 0.29424 0.96911 0.0
H1863 H 0.95208 0.31409 0.95228 0.0
H1864 H 0.03343 0.29078 0.92308 0.0
H1865 H 0.07111 0.31015 0.93031 0.0
C1866 C 0.50052 0.67311 0.46588 0.0
C1867 C 0.48232 0.64352 0.45887 0.0
C1868 C 0.53384 0.61511 0.49053 0.0
C1869 C 0.55297 0.64214 0.4725 0.0
N1870 N 0.55339 0.70019 0.45855 0.0
N1871 N 0.48191 0.58684 0.48714 0.0
C1872 C 0.53598 0.67228 0.46539 0.0
C1873 C 0.4992 0.61459 0.47755 0.0
N1874 N 0.48443 0.70161 0.47807 0.0
N1875 N 0.54849 0.5914 0.52659 0.0
H1876 H 0.45657 0.58722 0.49105 0.0
H1877 H 0.49287 0.56407 0.49226 0.0
H1878 H 0.57301 0.59345 0.54184 0.0
H1879 H 0.53574 0.5723 0.54787 0.0
H1880 H 0.49644 0.72319 0.49115 0.0
H1881 H 0.45903 0.70298 0.48242 0.0
H1882 H 0.54275 0.72252 0.44735 0.0
H1883 H 0.5788 0.70012 0.45934 0.0
C1884 C 0.47987 0.40802 0.58978 0.0
C1885 C 0.45948 0.38112 0.60671 0.0
C1886 C 0.51179 0.34956 0.62117 0.0
C1887 C 0.53144 0.37608 0.59972 0.0
N1888 N 0.52912 0.42316 0.53214 0.0
N1889 N 0.45852 0.3226 0.61948 0.0
C1890 C 0.51396 0.40319 0.57487 0.0
C1891 C 0.47623 0.35074 0.61631 0.0
N1892 N 0.46723 0.43855 0.58832 0.0
N1893 N 0.52701 0.32266 0.64491 0.0
H1894 H 0.43297 0.322 0.61784 0.0
H1895 H 0.46929 0.29958 0.61903 0.0
H1896 H 0.55231 0.31979 0.6417 0.0
H1897 H 0.51469 0.30414 0.66908 0.0
H1898 H 0.48155 0.45915 0.58016 0.0
H1899 H 0.44341 0.44325 0.60277 0.0
H1900 H 0.51727 0.44263 0.50961 0.0
H1901 H 0.55105 0.41589 0.51061 0.0
C1902 C 0.03647 0.61918 0.0907 0.0
C1903 C 0.05275 0.64961 0.10451 0.0
C1904 C 0.99743 0.67409 0.08424 0.0
C1905 C 0.9801 0.64406 0.09419 0.0
N1906 N 0.98663 0.58594 0.09097 0.0
N1907 N 0.04448 0.70782 0.11149 0.0
C1908 C 1.00081 0.61596 0.09444 0.0
C1909 C 0.03174 0.67741 0.10162 0.0
N1910 N 0.05435 0.59445 0.06422 0.0
N1911 N 0.98301 0.69858 0.04993 0.0
H1912 H 0.06937 0.71213 0.11969 0.0
H1913 H 0.02966 0.72844 0.11613 0.0
H1914 H 0.9609 0.69581 0.0246 0.0
H1915 H 0.99553 0.71971 0.03713 0.0
H1916 H 0.04397 0.57342 0.04348 0.0
H1917 H 0.07966 0.59622 0.05998 0.0
H1918 H 0.99984 0.56432 0.0944 0.0
H1919 H 0.96148 0.58291 0.08408 0.0
C1920 C 0.16647 0.52253 0.07521 0.0
C1921 C 0.1454 0.54822 0.05495 0.0
C1922 C 0.11903 0.50889 0.9775 0.0
C1923 C 0.14222 0.48389 0.98966 0.0
N1924 N 0.18205 0.46616 0.07265 0.0
N1925 N 0.10921 0.56557 0.9644 0.0
C1926 C 0.16436 0.49055 0.04471 0.0
C1927 C 0.12463 0.54156 0.99882 0.0
N1928 N 0.1912 0.52925 0.11934 0.0
N1929 N 0.08803 0.50074 0.95873 0.0
H1930 H 0.11118 0.59036 0.97355 0.0
H1931 H 0.09618 0.56039 0.92098 0.0
H1932 H 0.08029 0.47688 0.96277 0.0
H1933 H 0.06908 0.51771 0.95417 0.0
H1934 H 0.21108 0.51389 0.12794 0.0
H1935 H 0.19414 0.55173 0.14235 0.0
H1936 H 0.19195 0.46756 0.12003 0.0
H1937 H 0.18536 0.4436 0.05181 0.0
C1938 C 0.75183 0.85779 0.2995 0.0
C1939 C 0.72849 0.88256 0.31427 0.0
C1940 C 0.76399 0.92032 0.25187 0.0
C1941 C 0.78937 0.89647 0.24535 0.0
N1942 N 0.80825 0.84352 0.28064 0.0
N1943 N 0.71566 0.93967 0.30885 0.0
C1944 C 0.78354 0.86557 0.27427 0.0
C1945 C 0.73583 0.91454 0.29234 0.0
N1946 N 0.7437 0.82616 0.30945 0.0
N1947 N 0.76563 0.94804 0.21586 0.0
H1948 H 0.69405 0.93608 0.33414 0.0
H1949 H 0.72158 0.96406 0.30168 0.0
H1950 H 0.7845 0.95227 0.18303 0.0
H1951 H 0.74647 0.96475 0.21229 0.0
H1952 H 0.7573 0.80638 0.29231 0.0
H1953 H 0.72298 0.82002 0.33551 0.0
H1954 H 0.80573 0.82181 0.30584 0.0
H1955 H 0.8321 0.84802 0.26698 0.0
C1956 C 0.35605 0.5161 0.54892 0.0
C1957 C 0.38147 0.49232 0.55031 0.0
C1958 C 0.41113 0.52524 0.46845 0.0
C1959 C 0.38557 0.549 0.46693 0.0
N1960 N 0.32744 0.55469 0.47992 0.0
N1961 N 0.42405 0.46817 0.48392 0.0
C1962 C 0.3561 0.54084 0.49975 0.0
C1963 C 0.40644 0.49502 0.50198 0.0
N1964 N 0.33153 0.51516 0.59398 0.0
N1965 N 0.43974 0.53092 0.43659 0.0
H1966 H 0.41881 0.44508 0.50174 0.0
H1967 H 0.44064 0.46808 0.44522 0.0
H1968 H 0.44325 0.55173 0.409 0.0
H1969 H 0.4603 0.51593 0.44085 0.0
H1970 H 0.31388 0.53348 0.59808 0.0
H1971 H 0.33064 0.49755 0.63031 0.0
H1972 H 0.3046 0.54799 0.49828 0.0
H1973 H 0.32675 0.56986 0.43937 0.0
C1974 C 0.76209 0.14904 0.81403 0.0
C1975 C 0.78591 0.12333 0.81025 0.0
C1976 C 0.75442 0.10201 0.71286 0.0
C1977 C 0.72892 0.12547 0.72023 0.0
N1978 N 0.70523 0.16404 0.79699 0.0
N1979 N 0.79177 0.06789 0.77313 0.0
C1980 C 0.73207 0.1473 0.77559 0.0
C1981 C 0.77878 0.098 0.76345 0.0
N1982 N 0.76686 0.17502 0.85524 0.0
N1983 N 0.75379 0.08106 0.66028 0.0
H1984 H 0.78622 0.04761 0.74363 0.0
H1985 H 0.80247 0.06227 0.8181 0.0
H1986 H 0.73494 0.08115 0.62542 0.0
H1987 H 0.77329 0.06551 0.6492 0.0
H1988 H 0.7528 0.1962 0.85243 0.0
H1989 H 0.78501 0.17589 0.89092 0.0
H1990 H 0.70461 0.17662 0.84186 0.0
H1991 H 0.68272 0.16322 0.77252 0.0
C1992 C 0.90072 0.50585 0.083 0.0
C1993 C 0.89946 0.53736 0.0553 0.0
C1994 C 0.89426 0.50894 0.94628 0.0
C1995 C 0.90136 0.47784 0.97334 0.0
N1996 N 0.92262 0.45141 0.07099 0.0
N1997 N 0.90635 0.56672 0.9544 0.0
C1998 C 0.90848 0.47791 0.04269 0.0
C1999 C 0.89985 0.53822 0.98496 0.0
N2000 N 0.89088 0.50161 0.14586 0.0
N2001 N 0.87911 0.51098 0.88665 0.0
H2002 H 0.91392 0.5874 0.98082 0.0
H2003 H 0.90841 0.56819 0.90345 0.0
H2004 H 0.86907 0.49049 0.8634 0.0
H2005 H 0.87197 0.53317 0.86664 0.0
H2006 H 0.88979 0.47873 0.16742 0.0
H2007 H 0.87832 0.52004 0.17066 0.0
H2008 H 0.92936 0.45125 0.12062 0.0
H2009 H 0.93122 0.43161 0.04344 0.0
C2010 C 0.2622 0.09967 0.78128 0.0
C2011 C 0.2407 0.1267 0.79074 0.0
C2012 C 0.27241 0.15577 0.70563 0.0
C2013 C 0.29643 0.13065 0.70272 0.0
N2014 N 0.30395 0.07329 0.71487 0.0
N2015 N 0.22686 0.18175 0.76129 0.0
C2016 C 0.2883 0.10099 0.73407 0.0
C2017 C 0.24625 0.155 0.75252 0.0
N2018 N 0.2592 0.07332 0.82086 0.0
N2019 N 0.27227 0.17862 0.6579 0.0
H2020 H 0.20636 0.18174 0.79112 0.0
H2021 H 0.23235 0.20452 0.74222 0.0
H2022 H 0.28965 0.17836 0.62095 0.0
H2023 H 0.25334 0.19529 0.65068 0.0
H2024 H 0.27617 0.05435 0.82215 0.0
H2025 H 0.2415 0.07215 0.85733 0.0
H2026 H 0.29697 0.05 0.72892 0.0
H2027 H 0.32251 0.07393 0.68033 0.0
C2028 C 0.67646 0.52307 0.52495 0.0
C2029 C 0.64619 0.53514 0.49909 0.0
C2030 C 0.62041 0.48363 0.53624 0.0
C2031 C 0.64941 0.47364 0.57039 0.0
N2032 N 0.70389 0.48923 0.60566 0.0
N2033 N 0.58749 0.52831 0.49637 0.0
C2034 C 0.67709 0.49498 0.56675 0.0
C2035 C 0.61771 0.51587 0.5102 0.0
N2036 N 0.70498 0.53822 0.50908 0.0
N2037 N 0.59565 0.46209 0.52492 0.0
H2038 H 0.5846 0.55037 0.47269 0.0
H2039 H 0.56564 0.5173 0.51064 0.0
H2040 H 0.59689 0.43822 0.54017 0.0
H2041 H 0.57561 0.46724 0.49458 0.0
H2042 H 0.72819 0.52916 0.52076 0.0
H2043 H 0.70514 0.55773 0.47729 0.0
H2044 H 0.72366 0.50526 0.61048 0.0
H2045 H 0.70423 0.47055 0.63969 0.0
C2046 C 0.29454 0.90756 0.23281 0.0
C2047 C 0.29929 0.88816 0.2915 0.0
C2048 C 0.24217 0.86693 0.2711 0.0
C2049 C 0.23691 0.88785 0.21656 0.0
N2050 N 0.25822 0.93036 0.14959 0.0
N2051 N 0.28042 0.83924 0.34221 0.0
C2052 C 0.26339 0.90815 0.19801 0.0
C2053 C 0.27359 0.8654 0.30431 0.0
N2054 N 0.31992 0.92452 0.20624 0.0
N2055 N 0.21684 0.84813 0.29231 0.0
H2056 H 0.30344 0.83566 0.36277 0.0
H2057 H 0.2651 0.819 0.34553 0.0
H2058 H 0.1948 0.84558 0.2664 0.0
H2059 H 0.21718 0.83634 0.33731 0.0
H2060 H 0.32009 0.93174 0.15735 0.0
H2061 H 0.34155 0.93068 0.2298 0.0
H2062 H 0.27342 0.95036 0.14193 0.0
H2063 H 0.2375 0.93014 0.11937 0.0
C2064 C 0.60607 0.98471 0.50713 0.0
C2065 C 0.63554 0.97182 0.48059 0.0
C2066 C 0.6663 0.01417 0.54465 0.0
C2067 C 0.63685 0.02774 0.5705 0.0
N2068 N 0.58017 0.01541 0.59484 0.0
N2069 N 0.69231 0.98211 0.45921 0.0
C2070 C 0.60702 1.01022 0.55675 0.0
C2071 C 0.66521 0.98881 0.49551 0.0
N2072 N 0.57681 0.97411 0.48173 0.0
N2073 N 0.69578 0.02378 0.57115 0.0
H2074 H 0.69204 0.9643 0.42263 0.0
H2075 H 0.71392 0.99567 0.46179 0.0
H2076 H 0.69731 0.03907 0.61237 0.0
H2077 H 0.71823 0.01354 0.5582 0.0
H2078 H 0.55435 0.98488 0.4932 0.0
H2079 H 0.57568 0.95681 0.44379 0.0
H2080 H 0.55917 1.00089 0.59193 0.0
H2081 H 0.58013 0.03171 0.63424 0.0
C2082 C 0.23325 0.42412 0.78321 0.0
C2083 C 0.22779 0.39366 0.81484 0.0
C2084 C 0.28508 0.37847 0.78212 0.0
C2085 C 0.28825 0.40595 0.74027 0.0
N2086 N 0.26889 0.46071 0.72276 0.0
N2087 N 0.24983 0.34084 0.83917 0.0
C2088 C 0.26312 0.43032 0.74699 0.0
C2089 C 0.25415 0.37071 0.81244 0.0
N2090 N 0.20928 0.44724 0.78643 0.0
N2091 N 0.3126 0.36186 0.80049 0.0
H2092 H 0.22911 0.33522 0.86616 0.0
H2093 H 0.26609 0.32154 0.83186 0.0
H2094 H 0.33587 0.36765 0.78361 0.0
H2095 H 0.31275 0.34448 0.83734 0.0
H2096 H 0.20815 0.46767 0.75687 0.0
H2097 H 0.18944 0.44534 0.81777 0.0
H2098 H 0.25466 0.48113 0.73303 0.0
H2099 H 0.28938 0.46644 0.69493 0.0
C2100 C 0.8504 1.00346 0.05725 0.0
C2101 C 0.87879 0.98431 0.07099 0.0
C2102 C 0.91152 0.0229 1.00684 0.0
C2103 C 0.88298 0.04138 0.99015 0.0
N2104 N 0.82386 0.04351 0.98751 0.0
N2105 N 0.9339 0.97072 0.03881 0.0
C2106 C 0.85195 0.02967 1.01127 0.0
C2107 C 0.90862 0.99254 0.03981 0.0
N2108 N 0.82216 0.99755 0.09055 0.0
N2109 N 0.94189 0.03464 0.99256 0.0
H2110 H 0.93208 0.94783 0.05969 0.0
H2111 H 0.955 0.97383 1.01096 0.0
H2112 H 0.94514 0.05581 0.96613 0.0
H2113 H 0.96364 0.02429 1.00981 0.0
H2114 H 0.80146 0.0124 0.08824 0.0
H2115 H 0.82075 0.97939 0.12552 0.0
H2116 H 0.80046 0.03435 0.99632 0.0
H2117 H 0.82413 0.06202 0.95308 0.0
C2118 C 0.23786 0.61772 0.26257 0.0
C2119 C 0.2314 0.64636 0.22542 0.0
C2120 C 0.28706 0.66529 0.26158 0.0
C2121 C 0.2899 0.6405 0.30954 0.0
N2122 N 0.2641 0.59433 0.35889 0.0
N2123 N 0.25021 0.70072 0.20252 0.0
C2124 C 0.26418 0.61699 0.31057 0.0
C2125 C 0.25616 0.67106 0.22886 0.0
N2126 N 0.2192 0.59071 0.25143 0.0
N2127 N 0.31422 0.68231 0.24374 0.0
H2128 H 0.2284 0.70574 0.17794 0.0
H2129 H 0.26603 0.72054 0.20922 0.0
H2130 H 0.33747 0.67729 0.26291 0.0
H2131 H 0.31404 0.69865 0.20496 0.0
H2132 H 0.22447 0.56813 0.27177 0.0
H2133 H 0.20036 0.59051 0.21678 0.0
H2134 H 0.24452 0.57844 0.36619 0.0
H2135 H 0.28196 0.59405 0.3959 0.0
C2136 C 0.42226 0.99492 0.50383 0.0
C2137 C 0.39507 0.97442 0.48605 0.0
C2138 C 0.3593 0.0145 0.54548 0.0
C2139 C 0.38671 0.03509 0.56169 0.0
N2140 N 0.441 0.04979 0.52744 0.0
N2141 N 0.33614 0.96944 0.48116 0.0
C2142 C 0.41728 0.02659 0.53288 0.0
C2143 C 0.36316 0.98575 0.50423 0.0
N2144 N 0.45344 0.9842 0.49356 0.0
N2145 N 0.32923 0.02203 0.57032 0.0
H2146 H 0.33772 0.94828 0.4529 0.0
H2147 H 0.31225 0.9783 0.48468 0.0
H2148 H 0.32462 0.0439 0.59446 0.0
H2149 H 0.30932 1.00607 0.56982 0.0
H2150 H 0.47418 0.9961 0.51264 0.0
H2151 H 0.45822 0.96271 0.46801 0.0
H2152 H 0.46252 0.04618 0.50092 0.0
H2153 H 0.43713 0.07381 0.54225 0.0
C2154 C 0.79564 0.64408 0.26342 0.0
C2155 C 0.80674 0.61537 0.22997 0.0
C2156 C 0.75299 0.59054 0.26019 0.0
C2157 C 0.74471 0.61674 0.30578 0.0
N2158 N 0.76573 0.66695 0.35524 0.0
N2159 N 0.79566 0.55848 0.2079 0.0
C2160 C 0.76844 0.64284 0.30898 0.0
C2161 C 0.78553 0.5878 0.23313 0.0
N2162 N 0.80973 0.67327 0.25006 0.0
N2163 N 0.73005 0.56859 0.23787 0.0
H2164 H 0.81693 0.55542 0.1804 0.0
H2165 H 0.78346 0.53672 0.21752 0.0
H2166 H 0.70549 0.5685 0.24949 0.0
H2167 H 0.7346 0.55218 0.19946 0.0
H2168 H 0.80055 0.69537 0.26781 0.0
H2169 H 0.8273 0.67575 0.21398 0.0
H2170 H 0.78407 0.68432 0.36373 0.0
H2171 H 0.74715 0.66785 0.38942 0.0
C2172 C 0.1175 0.02925 0.97178 0.0
C2173 C 0.15029 0.03977 0.95925 0.0
C2174 C 0.17013 0.99408 0.02993 0.0
C2175 C 0.1374 0.9841 0.04482 0.0
N2176 N 0.07971 0.99627 0.03563 0.0
N2177 N 0.20663 0.02188 0.95606 0.0
C2178 C 0.11117 1.00287 1.01683 0.0
C2179 C 0.17615 0.01933 0.98313 0.0
N2180 N 0.09232 0.04219 0.93616 0.0
N2181 N 0.19617 0.98016 0.06128 0.0
H2182 H 0.21167 0.03763 0.91795 0.0
H2183 H 0.22557 1.00533 0.9643 0.0
H2184 H 0.19371 0.96127 0.0938 0.0
H2185 H 0.21998 0.9895 0.06007 0.0
H2186 H 0.06853 0.03285 0.93571 0.0
H2187 H 0.09581 0.06017 0.90167 0.0
H2188 H 0.05965 0.01096 0.02444 0.0
H2189 H 0.07401 0.97773 0.06818 0.0
C2190 C 0.75863 0.40612 0.7198 0.0
C2191 C 0.73468 0.38099 0.72744 0.0
C2192 C 0.77545 0.35401 0.80048 0.0
C2193 C 0.79811 0.38059 0.79917 0.0
N2194 N 0.80329 0.4371 0.77123 0.0
N2195 N 0.71886 0.3362 0.79632 0.0
C2196 C 0.78728 0.40821 0.76281 0.0
C2197 C 0.7426 0.35672 0.77451 0.0
N2198 N 0.75456 0.4279 0.67062 0.0
N2199 N 0.78536 0.32521 0.82527 0.0
H2200 H 0.69468 0.33715 0.78011 0.0
H2201 H 0.72267 0.32031 0.83518 0.0
H2202 H 0.80831 0.32291 0.84694 0.0
H2203 H 0.77162 0.30381 0.82081 0.0
H2204 H 0.77226 0.44525 0.65917 0.0
H2205 H 0.73524 0.42586 0.63686 0.0
H2206 H 0.79519 0.45868 0.75013 0.0
H2207 H 0.82199 0.44007 0.80616 0.0
loop_
_geom_bond_atom_site_label_1
_geom_bond_atom_site_label_2
_geom_bond_distance
_geom_bond_site_symmetry_2
_ccdc_geom_bond_type
Tb0 N31 2.660 . S
Tb0 N38 2.600 . S
Tb0 O44 2.546 1_554 S
Tb0 O45 2.610 . S
Tb0 O47 2.320 . S
Tb0 O48 2.552 . S
Tb0 O49 2.413 1_554 S
Tb0 O51 2.362 . S
Tb0 O52 2.421 . S
Tb0 C64 2.833 1_554 S
C1 C4 1.432 . S
C1 C5 1.414 . S
C1 N8 1.359 . S
C2 C4 1.428 . S
C2 C6 1.424 1_455 S
C2 C14 1.407 1_455 S
C3 C5 1.444 1_655 S
C3 C6 1.317 . S
C3 H26 0.929 . S
C4 C1 1.432 . S
C4 C2 1.428 . S
C4 N12 1.360 . S
C5 C1 1.414 . S
C5 C3 1.444 1_455 S
C5 C10 1.385 . S
C6 C2 1.424 1_655 S
C6 C3 1.317 . S
C6 H18 0.930 . S
C7 C9 1.392 . S
C7 C10 1.370 . S
C7 H19 0.931 . S
N8 C1 1.359 . S
N8 C9 1.327 . S
N8 Tb11 2.600 . S
C9 C7 1.392 . S
C9 N8 1.327 . S
C9 H16 0.930 . S
C10 C5 1.385 . S
C10 C7 1.370 . S
C10 H29 0.930 . S
Tb11 N8 2.600 . S
Tb11 N12 2.660 . S
Tb11 O45 2.362 . S
Tb11 O46 2.421 . S
Tb11 O50 2.546 . S
Tb11 O51 2.610 . S
Tb11 O53 2.320 . S
Tb11 O54 2.552 . S
Tb11 O55 2.413 . S
Tb11 C75 2.833 . S
N12 C4 1.360 . S
N12 Tb11 2.660 . S
N12 C13 1.305 . S
C13 N12 1.305 . S
C13 C15 1.407 . S
C13 H20 0.930 . S
C14 C2 1.407 1_655 S
C14 C15 1.345 1_655 S
C14 H22 0.930 . S
C15 C13 1.407 . S
C15 C14 1.345 1_455 S
C15 H17 0.930 . S
H16 C9 0.930 . S
H17 C15 0.930 . S
H18 C6 0.930 . S
H19 C7 0.931 . S
H20 C13 0.930 . S
H21 C35 0.930 . S
H22 C14 0.930 . S
H23 C41 0.930 . S
H24 C32 0.930 . S
H25 C39 0.931 . S
H26 C3 0.929 . S
H27 C33 0.930 . S
H28 C66 0.930 . S
H29 C10 0.930 . S
H30 C65 0.929 . S
N31 Tb0 2.660 . S
N31 C32 1.305 . S
N31 C36 1.360 . S
C32 H24 0.930 . S
C32 N31 1.305 . S
C32 C35 1.407 . S
C33 H27 0.930 . S
C33 C34 1.410 . S
C33 C35 1.345 . S
C34 C33 1.410 . S
C34 C36 1.417 . S
C34 C66 1.432 1_554 S
C35 H21 0.930 . S
C35 C32 1.407 . S
C35 C33 1.345 . S
C36 N31 1.360 . S
C36 C34 1.417 . S
C36 C40 1.432 . S
H37 C42 0.930 . S
N38 Tb0 2.600 . S
N38 C40 1.359 . S
N38 C41 1.327 . S
C39 H25 0.931 . S
C39 C41 1.392 1_556 S
C39 C42 1.370 . S
C40 C36 1.432 . S
C40 N38 1.359 . S
C40 C43 1.414 1_554 S
C41 H23 0.930 . S
C41 N38 1.327 . S
C41 C39 1.392 1_554 S
C42 H37 0.930 . S
C42 C39 1.370 . S
C42 C43 1.385 . S
C43 C40 1.414 1_556 S
C43 C42 1.385 . S
C43 C65 1.444 . S
O44 Tb0 2.546 1_556 S
O44 C64 1.251 . S
O45 Tb0 2.610 . S
O45 Tb11 2.362 . S
O45 C56 1.283 . S
O46 Tb11 2.421 . S
O46 C63 1.262 . S
O47 Tb0 2.320 . S
O47 C63 1.260 . S
O48 Tb0 2.552 . S
O48 C56 1.243 . S
O49 Tb0 2.413 1_556 S
O49 C64 1.256 . S
O50 Tb11 2.546 . S
O50 C75 1.251 . S
O51 Tb0 2.362 . S
O51 Tb11 2.610 . S
O51 C67 1.283 . S
O52 Tb0 2.421 . S
O52 C74 1.262 . S
O53 Tb11 2.320 . S
O53 C74 1.260 . S
O54 Tb11 2.552 . S
O54 C67 1.243 . S
O55 Tb11 2.413 . S
O55 C75 1.256 . S
C56 O45 1.283 . S
C56 O48 1.243 . S
C57 C59 1.382 . S
C57 C61 1.393 . S
C57 C64 1.500 . S
C58 C59 1.400 . S
C58 C60 1.384 . S
C59 C57 1.382 . S
C59 C58 1.400 . S
C59 H76 0.930 . S
C60 C58 1.384 . S
C60 C62 1.392 . S
C60 H77 0.931 . S
C61 C57 1.393 . S
C61 C62 1.401 . S
C61 H78 0.930 . S
C62 C60 1.392 . S
C62 C61 1.401 . S
C62 H79 0.930 . S
C63 O46 1.262 . S
C63 O47 1.260 . S
C64 Tb0 2.833 1_556 S
C64 O44 1.251 . S
C64 O49 1.256 . S
C64 C57 1.500 . S
C65 H30 0.929 . S
C65 C43 1.444 . S
C65 C66 1.317 . S
C66 H28 0.930 . S
C66 C34 1.432 1_556 S
C66 C65 1.317 . S
C67 O51 1.283 . S
C67 O54 1.243 . S
C68 C69 1.382 . S
C68 C72 1.393 . S
C68 C75 1.500 . S
C69 C68 1.382 . S
C69 C70 1.400 . S
C69 H80 0.930 . S
C70 C69 1.400 . S
C70 C71 1.384 . S
C71 C70 1.384 . S
C71 C73 1.392 . S
C71 H81 0.931 . S
C72 C68 1.393 . S
C72 C73 1.401 . S
C72 H82 0.930 . S
C73 C71 1.392 . S
C73 C72 1.401 . S
C73 H83 0.930 . S
C74 O52 1.262 . S
C74 O53 1.260 . S
C75 Tb11 2.833 . S
C75 O50 1.251 . S
C75 O55 1.256 . S
C75 C68 1.500 . S
H76 C59 0.930 . S
H77 C60 0.931 . S
H78 C61 0.930 . S
H79 C62 0.930 . S
H80 C69 0.930 . S
H81 C71 0.931 . S
H82 C72 0.930 . S
H83 C73 0.930 . S
Tb84 N115 2.660 . S
Tb84 N122 2.600 . S
Tb84 O128 2.546 . S
Tb84 O129 2.610 . S
Tb84 O131 2.320 . S
Tb84 O132 2.552 . S
Tb84 O133 2.413 . S
Tb84 O135 2.362 . S
Tb84 O136 2.421 . S
Tb84 C148 2.833 . S
C85 C88 1.432 . S
C85 C89 1.414 . S
C85 N92 1.359 . S
C86 C88 1.417 . S
C86 C90 1.432 . S
C86 C98 1.410 . S
C87 C89 1.444 . S
C87 C90 1.317 . S
C87 H110 0.929 . S
C88 C85 1.432 . S
C88 C86 1.417 . S
C88 N96 1.360 . S
C89 C85 1.414 . S
C89 C87 1.444 . S
C89 C94 1.385 . S
C90 C86 1.432 . S
C90 C87 1.317 . S
C90 H102 0.930 . S
C91 C93 1.392 . S
C91 C94 1.370 . S
C91 H103 0.931 1_565 S
N92 C85 1.359 . S
N92 C93 1.327 . S
N92 Tb95 2.600 . S
C93 C91 1.392 . S
C93 N92 1.327 . S
C93 H100 0.930 . S
C94 C89 1.385 . S
C94 C91 1.370 . S
C94 H113 0.930 . S
Tb95 N92 2.600 . S
Tb95 N96 2.660 . S
Tb95 O129 2.362 . S
Tb95 O130 2.421 . S
Tb95 O134 2.546 . S
Tb95 O135 2.610 . S
Tb95 O137 2.320 . S
Tb95 O138 2.552 . S
Tb95 O139 2.413 . S
Tb95 C159 2.833 . S
N96 C88 1.360 . S
N96 Tb95 2.660 . S
N96 C97 1.305 . S
C97 N96 1.305 . S
C97 C99 1.407 . S
C97 H104 0.930 . S
C98 C86 1.410 . S
C98 C99 1.345 . S
C98 H106 0.930 . S
C99 C97 1.407 . S
C99 C98 1.345 . S
C99 H101 0.930 . S
H100 C93 0.930 . S
H101 C99 0.930 . S
H102 C90 0.930 . S
H103 C91 0.931 1_545 S
H104 C97 0.930 . S
H105 C119 0.930 . S
H106 C98 0.930 . S
H107 C125 0.930 . S
H108 C116 0.930 . S
H109 C123 0.931 . S
H110 C87 0.929 . S
H111 C117 0.930 . S
H112 C150 0.930 . S
H113 C94 0.930 . S
H114 C149 0.929 . S
N115 Tb84 2.660 . S
N115 C116 1.305 . S
N115 C120 1.360 . S
C116 H108 0.930 . S
C116 N115 1.305 . S
C116 C119 1.407 . S
C117 H111 0.930 . S
C117 C118 1.410 . S
C117 C119 1.345 . S
C118 C117 1.410 . S
C118 C120 1.417 . S
C118 C150 1.432 . S
C119 H105 0.930 . S
C119 C116 1.407 . S
C119 C117 1.345 . S
C120 N115 1.360 . S
C120 C118 1.417 . S
C120 C124 1.432 . S
H121 C126 0.930 . S
N122 Tb84 2.600 . S
N122 C124 1.359 . S
N122 C125 1.327 . S
C123 H109 0.931 . S
C123 C125 1.392 . S
C123 C126 1.370 . S
C124 C120 1.432 . S
C124 N122 1.359 . S
C124 C127 1.414 . S
C125 H107 0.930 . S
C125 N122 1.327 . S
C125 C123 1.392 . S
C126 H121 0.930 . S
C126 C123 1.370 . S
C126 C127 1.385 . S
C127 C124 1.414 . S
C127 C126 1.385 . S
C127 C149 1.444 . S
O128 Tb84 2.546 . S
O128 C148 1.251 . S
O129 Tb84 2.610 . S
O129 Tb95 2.362 . S
O129 C140 1.283 . S
O130 Tb95 2.421 . S
O130 C147 1.262 . S
O131 Tb84 2.320 . S
O131 C147 1.260 . S
O132 Tb84 2.552 . S
O132 C140 1.243 . S
O133 Tb84 2.413 . S
O133 C148 1.256 . S
O134 Tb95 2.546 . S
O134 C159 1.251 . S
O135 Tb84 2.362 . S
O135 Tb95 2.610 . S
O135 C151 1.283 . S
O136 Tb84 2.421 . S
O136 C158 1.262 . S
O137 Tb95 2.320 . S
O137 C158 1.260 . S
O138 Tb95 2.552 . S
O138 C151 1.243 . S
O139 Tb95 2.413 . S
O139 C159 1.256 . S
C140 O129 1.283 . S
C140 O132 1.243 . S
C141 C143 1.382 . S
C141 C145 1.393 . S
C141 C148 1.500 . S
C142 C143 1.400 . S
C142 C144 1.384 . S
C143 C141 1.382 . S
C143 C142 1.400 . S
C143 H160 0.930 . S
C144 C142 1.384 . S
C144 C146 1.392 . S
C144 H161 0.931 . S
C145 C141 1.393 . S
C145 C146 1.401 . S
C145 H162 0.930 . S
C146 C144 1.392 . S
C146 C145 1.401 . S
C146 H163 0.930 . S
C147 O130 1.262 . S
C147 O131 1.260 . S
C148 Tb84 2.833 . S
C148 O128 1.251 . S
C148 O133 1.256 . S
C148 C141 1.500 . S
C149 H114 0.929 . S
C149 C127 1.444 . S
C149 C150 1.317 . S
C150 H112 0.930 . S
C150 C118 1.432 . S
C150 C149 1.317 . S
C151 O135 1.283 . S
C151 O138 1.243 . S
C152 C153 1.382 . S
C152 C156 1.393 . S
C152 C159 1.500 . S
C153 C152 1.382 . S
C153 C154 1.400 1_554 S
C153 H164 0.930 . S
C154 C153 1.400 1_556 S
C154 C155 1.384 . S
C155 C154 1.384 . S
C155 C157 1.392 . S
C155 H165 0.931 . S
C156 C152 1.393 . S
C156 C157 1.401 1_554 S
C156 H166 0.930 . S
C157 C155 1.392 . S
C157 C156 1.401 1_556 S
C157 H167 0.930 . S
C158 O136 1.262 . S
C158 O137 1.260 . S
C159 Tb95 2.833 . S
C159 O134 1.251 . S
C159 O139 1.256 . S
C159 C152 1.500 . S
H160 C143 0.930 . S
H161 C144 0.931 . S
H162 C145 0.930 . S
H163 C146 0.930 . S
H164 C153 0.930 . S
H165 C155 0.931 . S
H166 C156 0.930 . S
H167 C157 0.930 . S
Tb168 N199 2.660 . S
Tb168 N206 2.600 . S
Tb168 O212 2.546 . S
Tb168 O213 2.610 . S
Tb168 O215 2.320 . S
Tb168 O216 2.552 . S
Tb168 O217 2.413 . S
Tb168 O219 2.362 . S
Tb168 O220 2.421 . S
Tb168 C232 2.833 . S
C169 C172 1.432 . S
C169 C173 1.414 . S
C169 N176 1.359 . S
C170 C172 1.417 . S
C170 C174 1.432 . S
C170 C182 1.410 . S
C171 C173 1.444 . S
C171 C174 1.317 . S
C171 H194 0.929 . S
C172 C169 1.432 . S
C172 C170 1.417 . S
C172 N180 1.360 . S
C173 C169 1.414 . S
C173 C171 1.444 . S
C173 C178 1.385 . S
C174 C170 1.432 . S
C174 C171 1.317 . S
C174 H186 0.930 . S
C175 C177 1.392 . S
C175 C178 1.370 . S
C175 H187 0.931 . S
N176 C169 1.359 . S
N176 C177 1.327 . S
N176 Tb179 2.600 . S
C177 C175 1.392 . S
C177 N176 1.327 . S
C177 H184 0.930 . S
C178 C173 1.385 . S
C178 C175 1.370 . S
C178 H197 0.930 . S
Tb179 N176 2.600 . S
Tb179 N180 2.660 . S
Tb179 O213 2.362 . S
Tb179 O214 2.421 . S
Tb179 O218 2.546 . S
Tb179 O219 2.610 . S
Tb179 O221 2.320 . S
Tb179 O222 2.552 . S
Tb179 O223 2.413 . S
Tb179 C243 2.833 . S
N180 C172 1.360 . S
N180 Tb179 2.660 . S
N180 C181 1.305 . S
C181 N180 1.305 . S
C181 C183 1.407 . S
C181 H188 0.930 . S
C182 C170 1.410 . S
C182 C183 1.345 . S
C182 H190 0.930 . S
C183 C181 1.407 . S
C183 C182 1.345 . S
C183 H185 0.930 . S
H184 C177 0.930 . S
H185 C183 0.930 . S
H186 C174 0.930 . S
H187 C175 0.931 . S
H188 C181 0.930 . S
H189 C203 0.930 . S
H190 C182 0.930 . S
H191 C209 0.930 . S
H192 C200 0.930 . S
H193 C207 0.931 . S
H194 C171 0.929 . S
H195 C201 0.930 . S
H196 C234 0.930 . S
H197 C178 0.930 . S
H198 C233 0.929 . S
N199 Tb168 2.660 . S
N199 C200 1.305 . S
N199 C204 1.360 . S
C200 H192 0.930 . S
C200 N199 1.305 . S
C200 C203 1.407 . S
C201 H195 0.930 . S
C201 C202 1.410 . S
C201 C203 1.345 . S
C202 C201 1.410 . S
C202 C204 1.417 . S
C202 C234 1.432 . S
C203 H189 0.930 . S
C203 C200 1.407 . S
C203 C201 1.345 . S
C204 N199 1.360 . S
C204 C202 1.417 . S
C204 C208 1.432 . S
H205 C210 0.930 . S
N206 Tb168 2.600 . S
N206 C208 1.359 . S
N206 C209 1.327 . S
C207 H193 0.931 . S
C207 C209 1.392 . S
C207 C210 1.370 . S
C208 C204 1.432 . S
C208 N206 1.359 . S
C208 C211 1.414 . S
C209 H191 0.930 . S
C209 N206 1.327 . S
C209 C207 1.392 . S
C210 H205 0.930 . S
C210 C207 1.370 . S
C210 C211 1.385 . S
C211 C208 1.414 . S
C211 C210 1.385 . S
C211 C233 1.444 . S
O212 Tb168 2.546 . S
O212 C232 1.251 . S
O213 Tb168 2.610 . S
O213 Tb179 2.362 . S
O213 C224 1.283 . S
O214 Tb179 2.421 . S
O214 C231 1.262 . S
O215 Tb168 2.320 . S
O215 C231 1.260 . S
O216 Tb168 2.552 . S
O216 C224 1.243 . S
O217 Tb168 2.413 . S
O217 C232 1.256 . S
O218 Tb179 2.546 . S
O218 C243 1.251 . S
O219 Tb168 2.362 . S
O219 Tb179 2.610 . S
O219 C235 1.283 . S
O220 Tb168 2.421 . S
O220 C242 1.262 . S
O221 Tb179 2.320 . S
O221 C242 1.260 . S
O222 Tb179 2.552 . S
O222 C235 1.243 . S
O223 Tb179 2.413 . S
O223 C243 1.256 . S
C224 O213 1.283 . S
C224 O216 1.243 . S
C225 C227 1.382 . S
C225 C229 1.393 . S
C225 C232 1.500 . S
C226 C227 1.400 . S
C226 C228 1.384 . S
C227 C225 1.382 . S
C227 C226 1.400 . S
C227 H244 0.930 . S
C228 C226 1.384 . S
C228 C230 1.392 . S
C228 H245 0.931 . S
C229 C225 1.393 . S
C229 C230 1.401 . S
C229 H246 0.930 . S
C230 C228 1.392 . S
C230 C229 1.401 . S
C230 H247 0.930 . S
C231 O214 1.262 . S
C231 O215 1.260 . S
C232 Tb168 2.833 . S
C232 O212 1.251 . S
C232 O217 1.256 . S
C232 C225 1.500 . S
C233 H198 0.929 . S
C233 C211 1.444 . S
C233 C234 1.317 . S
C234 H196 0.930 . S
C234 C202 1.432 . S
C234 C233 1.317 . S
C235 O219 1.283 . S
C235 O222 1.243 . S
C236 C237 1.382 . S
C236 C240 1.393 . S
C236 C243 1.500 . S
C237 C236 1.382 . S
C237 C238 1.400 1_556 S
C237 H248 0.930 . S
C238 C237 1.400 1_554 S
C238 C239 1.384 . S
C239 C238 1.384 . S
C239 C241 1.392 . S
C239 H249 0.931 . S
C240 C236 1.393 . S
C240 C241 1.401 1_556 S
C240 H250 0.930 . S
C241 C239 1.392 . S
C241 C240 1.401 1_554 S
C241 H251 0.930 . S
C242 O220 1.262 . S
C242 O221 1.260 . S
C243 Tb179 2.833 . S
C243 O218 1.251 . S
C243 O223 1.256 . S
C243 C236 1.500 . S
H244 C227 0.930 . S
H245 C228 0.931 . S
H246 C229 0.930 . S
H247 C230 0.930 . S
H248 C237 0.930 . S
H249 C239 0.931 . S
H250 C240 0.930 . S
H251 C241 0.930 . S
Tb252 N283 2.660 . S
Tb252 N290 2.600 . S
Tb252 O296 2.546 . S
Tb252 O297 2.610 . S
Tb252 O299 2.320 . S
Tb252 O300 2.552 . S
Tb252 O301 2.413 . S
Tb252 O303 2.362 . S
Tb252 O304 2.421 . S
Tb252 C316 2.833 . S
C253 C256 1.432 1_554 S
C253 C257 1.414 . S
C253 N260 1.359 1_554 S
C254 C256 1.417 1_554 S
C254 C258 1.432 . S
C254 C266 1.410 1_554 S
C255 C257 1.444 . S
C255 C258 1.317 . S
C255 H278 0.929 . S
C256 C253 1.432 1_556 S
C256 C254 1.417 1_556 S
C256 N264 1.360 . S
C257 C253 1.414 . S
C257 C255 1.444 . S
C257 C262 1.385 . S
C258 C254 1.432 . S
C258 C255 1.317 . S
C258 H270 0.930 . S
C259 C261 1.392 1_554 S
C259 C262 1.370 . S
C259 H271 0.931 . S
N260 C253 1.359 1_556 S
N260 C261 1.327 . S
N260 Tb263 2.600 . S
C261 C259 1.392 1_556 S
C261 N260 1.327 . S
C261 H268 0.930 . S
C262 C257 1.385 . S
C262 C259 1.370 . S
C262 H281 0.930 . S
Tb263 N260 2.600 . S
Tb263 N264 2.660 . S
Tb263 O297 2.362 . S
Tb263 O298 2.421 . S
Tb263 O302 2.546 1_556 S
Tb263 O303 2.610 . S
Tb263 O305 2.320 . S
Tb263 O306 2.552 . S
Tb263 O307 2.413 1_556 S
Tb263 C327 2.833 1_556 S
N264 C256 1.360 . S
N264 Tb263 2.660 . S
N264 C265 1.305 . S
C265 N264 1.305 . S
C265 C267 1.407 . S
C265 H272 0.930 . S
C266 C254 1.410 1_556 S
C266 C267 1.345 . S
C266 H274 0.930 1_556 S
C267 C265 1.407 . S
C267 C266 1.345 . S
C267 H269 0.930 . S
H268 C261 0.930 . S
H269 C267 0.930 . S
H270 C258 0.930 . S
H271 C259 0.931 . S
H272 C265 0.930 . S
H273 C287 0.930 . S
H274 C266 0.930 1_554 S
H275 C293 0.930 . S
H276 C284 0.930 . S
H277 C291 0.931 . S
H278 C255 0.929 . S
H279 C285 0.930 . S
H280 C318 0.930 . S
H281 C262 0.930 . S
H282 C317 0.929 . S
N283 Tb252 2.660 . S
N283 C284 1.305 . S
N283 C288 1.360 . S
C284 H276 0.930 . S
C284 N283 1.305 . S
C284 C287 1.407 . S
C285 H279 0.930 . S
C285 C286 1.410 . S
C285 C287 1.345 1_565 S
C286 C285 1.410 . S
C286 C288 1.417 1_565 S
C286 C318 1.432 . S
C287 H273 0.930 . S
C287 C284 1.407 . S
C287 C285 1.345 1_545 S
C288 N283 1.360 . S
C288 C286 1.417 1_545 S
C288 C292 1.432 . S
H289 C294 0.930 1_565 S
N290 Tb252 2.600 . S
N290 C292 1.359 . S
N290 C293 1.327 . S
C291 H277 0.931 . S
C291 C293 1.392 . S
C291 C294 1.370 . S
C292 C288 1.432 . S
C292 N290 1.359 . S
C292 C295 1.414 . S
C293 H275 0.930 . S
C293 N290 1.327 . S
C293 C291 1.392 . S
C294 H289 0.930 1_545 S
C294 C291 1.370 . S
C294 C295 1.385 . S
C295 C292 1.414 . S
C295 C294 1.385 . S
C295 C317 1.444 1_545 S
O296 Tb252 2.546 . S
O296 C316 1.251 . S
O297 Tb252 2.610 . S
O297 Tb263 2.362 . S
O297 C308 1.283 . S
O298 Tb263 2.421 . S
O298 C315 1.262 . S
O299 Tb252 2.320 . S
O299 C315 1.260 . S
O300 Tb252 2.552 . S
O300 C308 1.243 . S
O301 Tb252 2.413 . S
O301 C316 1.256 . S
O302 Tb263 2.546 1_554 S
O302 C327 1.251 . S
O303 Tb252 2.362 . S
O303 Tb263 2.610 . S
O303 C319 1.283 . S
O304 Tb252 2.421 . S
O304 C326 1.262 . S
O305 Tb263 2.320 . S
O305 C326 1.260 . S
O306 Tb263 2.552 . S
O306 C319 1.243 . S
O307 Tb263 2.413 1_554 S
O307 C327 1.256 . S
C308 O297 1.283 . S
C308 O300 1.243 . S
C309 C311 1.382 . S
C309 C313 1.393 . S
C309 C316 1.500 . S
C310 C311 1.400 . S
C310 C312 1.384 . S
C311 C309 1.382 . S
C311 C310 1.400 . S
C311 H328 0.930 . S
C312 C310 1.384 . S
C312 C314 1.392 . S
C312 H329 0.931 . S
C313 C309 1.393 . S
C313 C314 1.401 . S
C313 H330 0.930 . S
C314 C312 1.392 . S
C314 C313 1.401 . S
C314 H331 0.930 . S
C315 O298 1.262 . S
C315 O299 1.260 . S
C316 Tb252 2.833 . S
C316 O296 1.251 . S
C316 O301 1.256 . S
C316 C309 1.500 . S
C317 H282 0.929 . S
C317 C295 1.444 1_565 S
C317 C318 1.317 . S
C318 H280 0.930 . S
C318 C286 1.432 . S
C318 C317 1.317 . S
C319 O303 1.283 . S
C319 O306 1.243 . S
C320 C321 1.382 . S
C320 C324 1.393 . S
C320 C327 1.500 . S
C321 C320 1.382 . S
C321 C322 1.400 . S
C321 H332 0.930 . S
C322 C321 1.400 . S
C322 C323 1.384 . S
C323 C322 1.384 . S
C323 C325 1.392 . S
C323 H333 0.931 . S
C324 C320 1.393 . S
C324 C325 1.401 . S
C324 H334 0.930 . S
C325 C323 1.392 . S
C325 C324 1.401 . S
C325 H335 0.930 . S
C326 O304 1.262 . S
C326 O305 1.260 . S
C327 Tb263 2.833 1_554 S
C327 O302 1.251 . S
C327 O307 1.256 . S
C327 C320 1.500 . S
H328 C311 0.930 . S
H329 C312 0.931 . S
H330 C313 0.930 . S
H331 C314 0.930 . S
H332 C321 0.930 . S
H333 C323 0.931 . S
H334 C324 0.930 . S
H335 C325 0.930 . S
Tb336 N367 2.660 . S
Tb336 N374 2.600 . S
Tb336 O380 2.546 1_556 S
Tb336 O381 2.610 . S
Tb336 O383 2.320 . S
Tb336 O384 2.552 . S
Tb336 O385 2.413 1_556 S
Tb336 O387 2.362 . S
Tb336 O388 2.421 . S
Tb336 C400 2.833 1_556 S
C337 C340 1.432 . S
C337 C341 1.414 . S
C337 N344 1.359 . S
C338 C340 1.417 . S
C338 C342 1.432 1_455 S
C338 C350 1.410 1_455 S
C339 C341 1.444 1_655 S
C339 C342 1.317 . S
C339 H362 0.929 . S
C340 C337 1.432 . S
C340 C338 1.417 . S
C340 N348 1.360 . S
C341 C337 1.414 . S
C341 C339 1.444 1_455 S
C341 C346 1.385 . S
C342 C338 1.432 1_655 S
C342 C339 1.317 . S
C342 H354 0.930 . S
C343 C345 1.392 . S
C343 C346 1.370 . S
C343 H355 0.931 . S
N344 C337 1.359 . S
N344 C345 1.327 . S
N344 Tb347 2.600 . S
C345 C343 1.392 . S
C345 N344 1.327 . S
C345 H352 0.930 . S
C346 C341 1.385 . S
C346 C343 1.370 . S
C346 H365 0.930 . S
Tb347 N344 2.600 . S
Tb347 N348 2.660 . S
Tb347 O381 2.362 . S
Tb347 O382 2.421 . S
Tb347 O386 2.546 . S
Tb347 O387 2.610 . S
Tb347 O389 2.320 . S
Tb347 O390 2.552 . S
Tb347 O391 2.413 . S
Tb347 C411 2.833 . S
N348 C340 1.360 . S
N348 Tb347 2.660 . S
N348 C349 1.305 . S
C349 N348 1.305 . S
C349 C351 1.407 . S
C349 H356 0.930 . S
C350 C338 1.410 1_655 S
C350 C351 1.345 1_655 S
C350 H358 0.930 . S
C351 C349 1.407 . S
C351 C350 1.345 1_455 S
C351 H353 0.930 . S
H352 C345 0.930 . S
H353 C351 0.930 . S
H354 C342 0.930 . S
H355 C343 0.931 . S
H356 C349 0.930 . S
H357 C371 0.930 . S
H358 C350 0.930 . S
H359 C377 0.930 . S
H360 C368 0.930 . S
H361 C375 0.931 . S
H362 C339 0.929 . S
H363 C369 0.930 . S
H364 C402 0.930 . S
H365 C346 0.930 . S
H366 C401 0.929 . S
N367 Tb336 2.660 . S
N367 C368 1.305 . S
N367 C372 1.360 . S
C368 H360 0.930 . S
C368 N367 1.305 . S
C368 C371 1.407 . S
C369 H363 0.930 . S
C369 C370 1.410 1_556 S
C369 C371 1.345 . S
C370 C369 1.410 1_554 S
C370 C372 1.417 1_554 S
C370 C402 1.432 . S
C371 H357 0.930 . S
C371 C368 1.407 . S
C371 C369 1.345 . S
C372 N367 1.360 . S
C372 C370 1.417 1_556 S
C372 C376 1.432 1_556 S
H373 C378 0.930 . S
N374 Tb336 2.600 . S
N374 C376 1.359 1_556 S
N374 C377 1.327 . S
C375 H361 0.931 . S
C375 C377 1.392 1_554 S
C375 C378 1.370 . S
C376 C372 1.432 1_554 S
C376 N374 1.359 1_554 S
C376 C379 1.414 . S
C377 H359 0.930 . S
C377 N374 1.327 . S
C377 C375 1.392 1_556 S
C378 H373 0.930 . S
C378 C375 1.370 . S
C378 C379 1.385 . S
C379 C376 1.414 . S
C379 C378 1.385 . S
C379 C401 1.444 . S
O380 Tb336 2.546 1_554 S
O380 C400 1.251 . S
O381 Tb336 2.610 . S
O381 Tb347 2.362 . S
O381 C392 1.283 . S
O382 Tb347 2.421 . S
O382 C399 1.262 . S
O383 Tb336 2.320 . S
O383 C399 1.260 . S
O384 Tb336 2.552 . S
O384 C392 1.243 . S
O385 Tb336 2.413 1_554 S
O385 C400 1.256 . S
O386 Tb347 2.546 . S
O386 C411 1.251 . S
O387 Tb336 2.362 . S
O387 Tb347 2.610 . S
O387 C403 1.283 . S
O388 Tb336 2.421 . S
O388 C410 1.262 . S
O389 Tb347 2.320 . S
O389 C410 1.260 . S
O390 Tb347 2.552 . S
O390 C403 1.243 . S
O391 Tb347 2.413 . S
O391 C411 1.256 . S
C392 O381 1.283 . S
C392 O384 1.243 . S
C393 C395 1.382 . S
C393 C397 1.393 . S
C393 C400 1.500 . S
C394 C395 1.400 . S
C394 C396 1.384 . S
C395 C393 1.382 . S
C395 C394 1.400 . S
C395 H412 0.930 . S
C396 C394 1.384 . S
C396 C398 1.392 . S
C396 H413 0.931 . S
C397 C393 1.393 . S
C397 C398 1.401 . S
C397 H414 0.930 . S
C398 C396 1.392 . S
C398 C397 1.401 . S
C398 H415 0.930 . S
C399 O382 1.262 . S
C399 O383 1.260 . S
C400 Tb336 2.833 1_554 S
C400 O380 1.251 . S
C400 O385 1.256 . S
C400 C393 1.500 . S
C401 H366 0.929 . S
C401 C379 1.444 . S
C401 C402 1.317 . S
C402 H364 0.930 . S
C402 C370 1.432 . S
C402 C401 1.317 . S
C403 O387 1.283 . S
C403 O390 1.243 . S
C404 C405 1.382 . S
C404 C408 1.393 . S
C404 C411 1.500 . S
C405 C404 1.382 . S
C405 C406 1.400 . S
C405 H416 0.930 . S
C406 C405 1.400 . S
C406 C407 1.384 . S
C407 C406 1.384 . S
C407 C409 1.392 . S
C407 H417 0.931 . S
C408 C404 1.393 . S
C408 C409 1.401 . S
C408 H418 0.930 . S
C409 C407 1.392 . S
C409 C408 1.401 . S
C409 H419 0.930 . S
C410 O388 1.262 . S
C410 O389 1.260 . S
C411 Tb347 2.833 . S
C411 O386 1.251 . S
C411 O391 1.256 . S
C411 C404 1.500 . S
H412 C395 0.930 . S
H413 C396 0.931 . S
H414 C397 0.930 . S
H415 C398 0.930 . S
H416 C405 0.930 . S
H417 C407 0.931 . S
H418 C408 0.930 . S
H419 C409 0.930 . S
Tb420 N451 2.660 . S
Tb420 N458 2.600 . S
Tb420 O464 2.546 1_554 S
Tb420 O465 2.610 . S
Tb420 O467 2.320 . S
Tb420 O468 2.552 . S
Tb420 O469 2.413 1_554 S
Tb420 O471 2.362 . S
Tb420 O472 2.421 . S
Tb420 C484 2.833 1_554 S
C421 C424 1.432 . S
C421 C425 1.414 . S
C421 N428 1.359 . S
C422 C424 1.417 . S
C422 C426 1.432 1_655 S
C422 C434 1.410 1_655 S
C423 C425 1.444 1_455 S
C423 C426 1.317 . S
C423 H446 0.929 . S
C424 C421 1.432 . S
C424 C422 1.417 . S
C424 N432 1.360 . S
C425 C421 1.414 . S
C425 C423 1.444 1_655 S
C425 C430 1.385 . S
C426 C422 1.432 1_455 S
C426 C423 1.317 . S
C426 H438 0.930 . S
C427 C429 1.392 . S
C427 C430 1.370 . S
C427 H439 0.931 1_565 S
N428 C421 1.359 . S
N428 C429 1.327 . S
N428 Tb431 2.600 . S
C429 C427 1.392 . S
C429 N428 1.327 . S
C429 H436 0.930 . S
C430 C425 1.385 . S
C430 C427 1.370 . S
C430 H449 0.930 1_565 S
Tb431 N428 2.600 . S
Tb431 N432 2.660 . S
Tb431 O465 2.362 . S
Tb431 O466 2.421 . S
Tb431 O470 2.546 . S
Tb431 O471 2.610 . S
Tb431 O473 2.320 . S
Tb431 O474 2.552 . S
Tb431 O475 2.413 . S
Tb431 C495 2.833 . S
N432 C424 1.360 . S
N432 Tb431 2.660 . S
N432 C433 1.305 . S
C433 N432 1.305 . S
C433 C435 1.407 . S
C433 H440 0.930 . S
C434 C422 1.410 1_455 S
C434 C435 1.345 1_455 S
C434 H442 0.930 . S
C435 C433 1.407 . S
C435 C434 1.345 1_655 S
C435 H437 0.930 . S
H436 C429 0.930 . S
H437 C435 0.930 . S
H438 C426 0.930 . S
H439 C427 0.931 1_545 S
H440 C433 0.930 . S
H441 C455 0.930 . S
H442 C434 0.930 . S
H443 C461 0.930 . S
H444 C452 0.930 . S
H445 C459 0.931 . S
H446 C423 0.929 . S
H447 C453 0.930 . S
H448 C486 0.930 . S
H449 C430 0.930 1_545 S
H450 C485 0.929 . S
N451 Tb420 2.660 . S
N451 C452 1.305 . S
N451 C456 1.360 . S
C452 H444 0.930 . S
C452 N451 1.305 . S
C452 C455 1.407 . S
C453 H447 0.930 . S
C453 C454 1.410 . S
C453 C455 1.345 . S
C454 C453 1.410 . S
C454 C456 1.417 . S
C454 C486 1.432 1_554 S
C455 H441 0.930 . S
C455 C452 1.407 . S
C455 C453 1.345 . S
C456 N451 1.360 . S
C456 C454 1.417 . S
C456 C460 1.432 . S
H457 C462 0.930 . S
N458 Tb420 2.600 . S
N458 C460 1.359 . S
N458 C461 1.327 . S
C459 H445 0.931 . S
C459 C461 1.392 1_556 S
C459 C462 1.370 . S
C460 C456 1.432 . S
C460 N458 1.359 . S
C460 C463 1.414 1_554 S
C461 H443 0.930 . S
C461 N458 1.327 . S
C461 C459 1.392 1_554 S
C462 H457 0.930 . S
C462 C459 1.370 . S
C462 C463 1.385 . S
C463 C460 1.414 1_556 S
C463 C462 1.385 . S
C463 C485 1.444 . S
O464 Tb420 2.546 1_556 S
O464 C484 1.251 . S
O465 Tb420 2.610 . S
O465 Tb431 2.362 . S
O465 C476 1.283 . S
O466 Tb431 2.421 . S
O466 C483 1.262 . S
O467 Tb420 2.320 . S
O467 C483 1.260 . S
O468 Tb420 2.552 . S
O468 C476 1.243 . S
O469 Tb420 2.413 1_556 S
O469 C484 1.256 . S
O470 Tb431 2.546 . S
O470 C495 1.251 . S
O471 Tb420 2.362 . S
O471 Tb431 2.610 . S
O471 C487 1.283 . S
O472 Tb420 2.421 . S
O472 C494 1.262 . S
O473 Tb431 2.320 . S
O473 C494 1.260 . S
O474 Tb431 2.552 . S
O474 C487 1.243 . S
O475 Tb431 2.413 . S
O475 C495 1.256 . S
C476 O465 1.283 . S
C476 O468 1.243 . S
C477 C479 1.382 . S
C477 C481 1.393 . S
C477 C484 1.500 . S
C478 C479 1.400 . S
C478 C480 1.384 . S
C479 C477 1.382 . S
C479 C478 1.400 . S
C479 H496 0.930 . S
C480 C478 1.384 . S
C480 C482 1.392 . S
C480 H497 0.931 . S
C481 C477 1.393 . S
C481 C482 1.401 . S
C481 H498 0.930 . S
C482 C480 1.392 . S
C482 C481 1.401 . S
C482 H499 0.930 . S
C483 O466 1.262 . S
C483 O467 1.260 . S
C484 Tb420 2.833 1_556 S
C484 O464 1.251 . S
C484 O469 1.256 . S
C484 C477 1.500 . S
C485 H450 0.929 . S
C485 C463 1.444 . S
C485 C486 1.317 . S
C486 H448 0.930 . S
C486 C454 1.432 1_556 S
C486 C485 1.317 . S
C487 O471 1.283 . S
C487 O474 1.243 . S
C488 C489 1.382 . S
C488 C492 1.393 . S
C488 C495 1.500 . S
C489 C488 1.382 . S
C489 C490 1.400 . S
C489 H500 0.930 . S
C490 C489 1.400 . S
C490 C491 1.384 . S
C491 C490 1.384 . S
C491 C493 1.392 . S
C491 H501 0.931 . S
C492 C488 1.393 . S
C492 C493 1.401 . S
C492 H502 0.930 . S
C493 C491 1.392 . S
C493 C492 1.401 . S
C493 H503 0.930 . S
C494 O472 1.262 . S
C494 O473 1.260 . S
C495 Tb431 2.833 . S
C495 O470 1.251 . S
C495 O475 1.256 . S
C495 C488 1.500 . S
H496 C479 0.930 . S
H497 C480 0.931 . S
H498 C481 0.930 . S
H499 C482 0.930 . S
H500 C489 0.930 . S
H501 C491 0.931 . S
H502 C492 0.930 . S
H503 C493 0.930 . S
Tb504 N535 2.660 . S
Tb504 N542 2.600 . S
Tb504 O548 2.546 . S
Tb504 O549 2.610 . S
Tb504 O551 2.320 . S
Tb504 O552 2.552 . S
Tb504 O553 2.413 . S
Tb504 O555 2.362 . S
Tb504 O556 2.421 . S
Tb504 C568 2.833 . S
C505 C508 1.432 . S
C505 C509 1.414 . S
C505 N512 1.359 . S
C506 C508 1.417 . S
C506 C510 1.432 . S
C506 C518 1.410 . S
C507 C509 1.444 . S
C507 C510 1.317 . S
C507 H530 0.929 . S
C508 C505 1.432 . S
C508 C506 1.417 . S
C508 N516 1.360 . S
C509 C505 1.414 . S
C509 C507 1.444 . S
C509 C514 1.385 . S
C510 C506 1.432 . S
C510 C507 1.317 . S
C510 H522 0.930 . S
C511 C513 1.392 . S
C511 C514 1.370 . S
C511 H523 0.931 . S
N512 C505 1.359 . S
N512 C513 1.327 . S
N512 Tb515 2.600 . S
C513 C511 1.392 . S
C513 N512 1.327 . S
C513 H520 0.930 . S
C514 C509 1.385 . S
C514 C511 1.370 . S
C514 H533 0.930 . S
Tb515 N512 2.600 . S
Tb515 N516 2.660 . S
Tb515 O549 2.362 . S
Tb515 O550 2.421 . S
Tb515 O554 2.546 . S
Tb515 O555 2.610 . S
Tb515 O557 2.320 . S
Tb515 O558 2.552 . S
Tb515 O559 2.413 . S
Tb515 C579 2.833 . S
N516 C508 1.360 . S
N516 Tb515 2.660 . S
N516 C517 1.305 . S
C517 N516 1.305 . S
C517 C519 1.407 . S
C517 H524 0.930 . S
C518 C506 1.410 . S
C518 C519 1.345 . S
C518 H526 0.930 . S
C519 C517 1.407 . S
C519 C518 1.345 . S
C519 H521 0.930 . S
H520 C513 0.930 . S
H521 C519 0.930 . S
H522 C510 0.930 . S
H523 C511 0.931 . S
H524 C517 0.930 . S
H525 C539 0.930 . S
H526 C518 0.930 . S
H527 C545 0.930 . S
H528 C536 0.930 . S
H529 C543 0.931 . S
H530 C507 0.929 . S
H531 C537 0.930 . S
H532 C570 0.930 . S
H533 C514 0.930 . S
H534 C569 0.929 . S
N535 Tb504 2.660 . S
N535 C536 1.305 . S
N535 C540 1.360 . S
C536 H528 0.930 . S
C536 N535 1.305 . S
C536 C539 1.407 . S
C537 H531 0.930 . S
C537 C538 1.410 . S
C537 C539 1.345 . S
C538 C537 1.410 . S
C538 C540 1.417 . S
C538 C570 1.432 . S
C539 H525 0.930 . S
C539 C536 1.407 . S
C539 C537 1.345 . S
C540 N535 1.360 . S
C540 C538 1.417 . S
C540 C544 1.432 . S
H541 C546 0.930 . S
N542 Tb504 2.600 . S
N542 C544 1.359 . S
N542 C545 1.327 . S
C543 H529 0.931 . S
C543 C545 1.392 . S
C543 C546 1.370 . S
C544 C540 1.432 . S
C544 N542 1.359 . S
C544 C547 1.414 . S
C545 H527 0.930 . S
C545 N542 1.327 . S
C545 C543 1.392 . S
C546 H541 0.930 . S
C546 C543 1.370 . S
C546 C547 1.385 . S
C547 C544 1.414 . S
C547 C546 1.385 . S
C547 C569 1.444 . S
O548 Tb504 2.546 . S
O548 C568 1.251 . S
O549 Tb504 2.610 . S
O549 Tb515 2.362 . S
O549 C560 1.283 . S
O550 Tb515 2.421 . S
O550 C567 1.262 . S
O551 Tb504 2.320 . S
O551 C567 1.260 . S
O552 Tb504 2.552 . S
O552 C560 1.243 . S
O553 Tb504 2.413 . S
O553 C568 1.256 . S
O554 Tb515 2.546 . S
O554 C579 1.251 . S
O555 Tb504 2.362 . S
O555 Tb515 2.610 . S
O555 C571 1.283 . S
O556 Tb504 2.421 . S
O556 C578 1.262 . S
O557 Tb515 2.320 . S
O557 C578 1.260 . S
O558 Tb515 2.552 . S
O558 C571 1.243 . S
O559 Tb515 2.413 . S
O559 C579 1.256 . S
C560 O549 1.283 . S
C560 O552 1.243 . S
C561 C563 1.382 . S
C561 C565 1.393 . S
C561 C568 1.500 . S
C562 C563 1.400 1_556 S
C562 C564 1.384 . S
C563 C561 1.382 . S
C563 C562 1.400 1_554 S
C563 H580 0.930 . S
C564 C562 1.384 . S
C564 C566 1.392 . S
C564 H581 0.931 . S
C565 C561 1.393 . S
C565 C566 1.401 1_554 S
C565 H582 0.930 . S
C566 C564 1.392 . S
C566 C565 1.401 1_556 S
C566 H583 0.930 . S
C567 O550 1.262 . S
C567 O551 1.260 . S
C568 Tb504 2.833 . S
C568 O548 1.251 . S
C568 O553 1.256 . S
C568 C561 1.500 . S
C569 H534 0.929 . S
C569 C547 1.444 . S
C569 C570 1.317 . S
C570 H532 0.930 . S
C570 C538 1.432 . S
C570 C569 1.317 . S
C571 O555 1.283 . S
C571 O558 1.243 . S
C572 C573 1.382 . S
C572 C576 1.393 . S
C572 C579 1.500 . S
C573 C572 1.382 . S
C573 C574 1.400 . S
C573 H584 0.930 . S
C574 C573 1.400 . S
C574 C575 1.384 . S
C575 C574 1.384 . S
C575 C577 1.392 . S
C575 H585 0.931 . S
C576 C572 1.393 . S
C576 C577 1.401 . S
C576 H586 0.930 . S
C577 C575 1.392 . S
C577 C576 1.401 . S
C577 H587 0.930 . S
C578 O556 1.262 . S
C578 O557 1.260 . S
C579 Tb515 2.833 . S
C579 O554 1.251 . S
C579 O559 1.256 . S
C579 C572 1.500 . S
H580 C563 0.930 . S
H581 C564 0.931 . S
H582 C565 0.930 . S
H583 C566 0.930 . S
H584 C573 0.930 . S
H585 C575 0.931 . S
H586 C576 0.930 . S
H587 C577 0.930 . S
Tb588 N619 2.660 . S
Tb588 N626 2.600 . S
Tb588 O632 2.546 . S
Tb588 O633 2.610 . S
Tb588 O635 2.320 . S
Tb588 O636 2.552 . S
Tb588 O637 2.413 . S
Tb588 O639 2.362 . S
Tb588 O640 2.421 . S
Tb588 C652 2.833 . S
C589 C592 1.432 . S
C589 C593 1.414 . S
C589 N596 1.359 . S
C590 C592 1.417 . S
C590 C594 1.432 . S
C590 C602 1.410 . S
C591 C593 1.444 . S
C591 C594 1.317 . S
C591 H614 0.929 . S
C592 C589 1.432 . S
C592 C590 1.417 . S
C592 N600 1.360 . S
C593 C589 1.414 . S
C593 C591 1.444 . S
C593 C598 1.385 . S
C594 C590 1.432 . S
C594 C591 1.317 . S
C594 H606 0.930 . S
C595 C597 1.392 . S
C595 C598 1.370 . S
C595 H607 0.931 1_545 S
N596 C589 1.359 . S
N596 C597 1.327 . S
N596 Tb599 2.600 . S
C597 C595 1.392 . S
C597 N596 1.327 . S
C597 H604 0.930 . S
C598 C593 1.385 . S
C598 C595 1.370 . S
C598 H617 0.930 . S
Tb599 N596 2.600 . S
Tb599 N600 2.660 . S
Tb599 O633 2.362 . S
Tb599 O634 2.421 . S
Tb599 O638 2.546 . S
Tb599 O639 2.610 . S
Tb599 O641 2.320 . S
Tb599 O642 2.552 . S
Tb599 O643 2.413 . S
Tb599 C663 2.833 . S
N600 C592 1.360 . S
N600 Tb599 2.660 . S
N600 C601 1.305 . S
C601 N600 1.305 . S
C601 C603 1.407 . S
C601 H608 0.930 . S
C602 C590 1.410 . S
C602 C603 1.345 . S
C602 H610 0.930 . S
C603 C601 1.407 . S
C603 C602 1.345 . S
C603 H605 0.930 . S
H604 C597 0.930 . S
H605 C603 0.930 . S
H606 C594 0.930 . S
H607 C595 0.931 1_565 S
H608 C601 0.930 . S
H609 C623 0.930 . S
H610 C602 0.930 . S
H611 C629 0.930 . S
H612 C620 0.930 . S
H613 C627 0.931 . S
H614 C591 0.929 . S
H615 C621 0.930 . S
H616 C654 0.930 . S
H617 C598 0.930 . S
H618 C653 0.929 . S
N619 Tb588 2.660 . S
N619 C620 1.305 . S
N619 C624 1.360 . S
C620 H612 0.930 . S
C620 N619 1.305 . S
C620 C623 1.407 . S
C621 H615 0.930 . S
C621 C622 1.410 . S
C621 C623 1.345 . S
C622 C621 1.410 . S
C622 C624 1.417 . S
C622 C654 1.432 . S
C623 H609 0.930 . S
C623 C620 1.407 . S
C623 C621 1.345 . S
C624 N619 1.360 . S
C624 C622 1.417 . S
C624 C628 1.432 . S
H625 C630 0.930 . S
N626 Tb588 2.600 . S
N626 C628 1.359 . S
N626 C629 1.327 . S
C627 H613 0.931 . S
C627 C629 1.392 . S
C627 C630 1.370 . S
C628 C624 1.432 . S
C628 N626 1.359 . S
C628 C631 1.414 . S
C629 H611 0.930 . S
C629 N626 1.327 . S
C629 C627 1.392 . S
C630 H625 0.930 . S
C630 C627 1.370 . S
C630 C631 1.385 . S
C631 C628 1.414 . S
C631 C630 1.385 . S
C631 C653 1.444 . S
O632 Tb588 2.546 . S
O632 C652 1.251 . S
O633 Tb588 2.610 . S
O633 Tb599 2.362 . S
O633 C644 1.283 . S
O634 Tb599 2.421 . S
O634 C651 1.262 . S
O635 Tb588 2.320 . S
O635 C651 1.260 . S
O636 Tb588 2.552 . S
O636 C644 1.243 . S
O637 Tb588 2.413 . S
O637 C652 1.256 . S
O638 Tb599 2.546 . S
O638 C663 1.251 . S
O639 Tb588 2.362 . S
O639 Tb599 2.610 . S
O639 C655 1.283 . S
O640 Tb588 2.421 . S
O640 C662 1.262 . S
O641 Tb599 2.320 . S
O641 C662 1.260 . S
O642 Tb599 2.552 . S
O642 C655 1.243 . S
O643 Tb599 2.413 . S
O643 C663 1.256 . S
C644 O633 1.283 . S
C644 O636 1.243 . S
C645 C647 1.382 . S
C645 C649 1.393 . S
C645 C652 1.500 . S
C646 C647 1.400 . S
C646 C648 1.384 . S
C647 C645 1.382 . S
C647 C646 1.400 . S
C647 H664 0.930 . S
C648 C646 1.384 . S
C648 C650 1.392 . S
C648 H665 0.931 . S
C649 C645 1.393 . S
C649 C650 1.401 . S
C649 H666 0.930 . S
C650 C648 1.392 . S
C650 C649 1.401 . S
C650 H667 0.930 . S
C651 O634 1.262 . S
C651 O635 1.260 . S
C652 Tb588 2.833 . S
C652 O632 1.251 . S
C652 O637 1.256 . S
C652 C645 1.500 . S
C653 H618 0.929 . S
C653 C631 1.444 . S
C653 C654 1.317 . S
C654 H616 0.930 . S
C654 C622 1.432 . S
C654 C653 1.317 . S
C655 O639 1.283 . S
C655 O642 1.243 . S
C656 C657 1.382 . S
C656 C660 1.393 . S
C656 C663 1.500 . S
C657 C656 1.382 . S
C657 C658 1.400 1_556 S
C657 H668 0.930 . S
C658 C657 1.400 1_554 S
C658 C659 1.384 . S
C659 C658 1.384 . S
C659 C661 1.392 . S
C659 H669 0.931 . S
C660 C656 1.393 . S
C660 C661 1.401 1_556 S
C660 H670 0.930 . S
C661 C659 1.392 . S
C661 C660 1.401 1_554 S
C661 H671 0.930 . S
C662 O640 1.262 . S
C662 O641 1.260 . S
C663 Tb599 2.833 . S
C663 O638 1.251 . S
C663 O643 1.256 . S
C663 C656 1.500 . S
H664 C647 0.930 . S
H665 C648 0.931 . S
H666 C649 0.930 . S
H667 C650 0.930 . S
H668 C657 0.930 . S
H669 C659 0.931 . S
H670 C660 0.930 . S
H671 C661 0.930 . S
Tb672 N703 2.660 . S
Tb672 N710 2.600 . S
Tb672 O716 2.546 . S
Tb672 O717 2.610 . S
Tb672 O719 2.320 . S
Tb672 O720 2.552 . S
Tb672 O721 2.413 . S
Tb672 O723 2.362 . S
Tb672 O724 2.421 . S
Tb672 C736 2.833 . S
C673 C676 1.432 . S
C673 C677 1.414 1_556 S
C673 N680 1.359 . S
C674 C676 1.417 . S
C674 C678 1.432 1_556 S
C674 C686 1.410 . S
C675 C677 1.444 . S
C675 C678 1.317 . S
C675 H698 0.929 . S
C676 C673 1.432 . S
C676 C674 1.417 . S
C676 N684 1.360 . S
C677 C673 1.414 1_554 S
C677 C675 1.444 . S
C677 C682 1.385 . S
C678 C674 1.432 1_554 S
C678 C675 1.317 . S
C678 H690 0.930 . S
C679 C681 1.392 1_554 S
C679 C682 1.370 . S
C679 H691 0.931 . S
N680 C673 1.359 . S
N680 C681 1.327 . S
N680 Tb683 2.600 . S
C681 C679 1.392 1_556 S
C681 N680 1.327 . S
C681 H688 0.930 . S
C682 C677 1.385 . S
C682 C679 1.370 . S
C682 H701 0.930 . S
Tb683 N680 2.600 . S
Tb683 N684 2.660 . S
Tb683 O717 2.362 . S
Tb683 O718 2.421 . S
Tb683 O722 2.546 1_556 S
Tb683 O723 2.610 . S
Tb683 O725 2.320 . S
Tb683 O726 2.552 . S
Tb683 O727 2.413 1_556 S
Tb683 C747 2.833 1_556 S
N684 C676 1.360 . S
N684 Tb683 2.660 . S
N684 C685 1.305 . S
C685 N684 1.305 . S
C685 C687 1.407 . S
C685 H692 0.930 . S
C686 C674 1.410 . S
C686 C687 1.345 . S
C686 H694 0.930 . S
C687 C685 1.407 . S
C687 C686 1.345 . S
C687 H689 0.930 . S
H688 C681 0.930 . S
H689 C687 0.930 . S
H690 C678 0.930 . S
H691 C679 0.931 . S
H692 C685 0.930 . S
H693 C707 0.930 . S
H694 C686 0.930 . S
H695 C713 0.930 . S
H696 C704 0.930 . S
H697 C711 0.931 . S
H698 C675 0.929 . S
H699 C705 0.930 . S
H700 C738 0.930 . S
H701 C682 0.930 . S
H702 C737 0.929 . S
N703 Tb672 2.660 . S
N703 C704 1.305 . S
N703 C708 1.360 . S
C704 H696 0.930 . S
C704 N703 1.305 . S
C704 C707 1.407 . S
C705 H699 0.930 . S
C705 C706 1.407 1_455 S
C705 C707 1.345 1_455 S
C706 C705 1.407 1_655 S
C706 C708 1.431 . S
C706 C738 1.422 1_655 S
C707 H693 0.930 . S
C707 C704 1.407 . S
C707 C705 1.345 1_655 S
C708 N703 1.360 . S
C708 C706 1.431 . S
C708 C712 1.432 . S
H709 C714 0.930 . S
N710 Tb672 2.600 . S
N710 C712 1.359 . S
N710 C713 1.327 . S
C711 H697 0.931 . S
C711 C713 1.392 . S
C711 C714 1.370 . S
C712 C708 1.432 . S
C712 N710 1.359 . S
C712 C715 1.414 . S
C713 H695 0.930 . S
C713 N710 1.327 . S
C713 C711 1.392 . S
C714 H709 0.930 . S
C714 C711 1.370 . S
C714 C715 1.385 . S
C715 C712 1.414 . S
C715 C714 1.385 . S
C715 C737 1.444 1_655 S
O716 Tb672 2.546 . S
O716 C736 1.251 . S
O717 Tb672 2.610 . S
O717 Tb683 2.362 . S
O717 C728 1.283 . S
O718 Tb683 2.421 . S
O718 C735 1.262 . S
O719 Tb672 2.320 . S
O719 C735 1.260 . S
O720 Tb672 2.552 . S
O720 C728 1.243 . S
O721 Tb672 2.413 . S
O721 C736 1.256 . S
O722 Tb683 2.546 1_554 S
O722 C747 1.251 . S
O723 Tb672 2.362 . S
O723 Tb683 2.610 . S
O723 C739 1.283 . S
O724 Tb672 2.421 . S
O724 C746 1.262 . S
O725 Tb683 2.320 . S
O725 C746 1.260 . S
O726 Tb683 2.552 . S
O726 C739 1.243 . S
O727 Tb683 2.413 1_554 S
O727 C747 1.256 . S
C728 O717 1.283 . S
C728 O720 1.243 . S
C729 C731 1.382 . S
C729 C733 1.393 . S
C729 C736 1.500 . S
C730 C731 1.400 . S
C730 C732 1.384 . S
C731 C729 1.382 . S
C731 C730 1.400 . S
C731 H748 0.930 . S
C732 C730 1.384 . S
C732 C734 1.392 . S
C732 H749 0.931 . S
C733 C729 1.393 . S
C733 C734 1.401 . S
C733 H750 0.930 . S
C734 C732 1.392 . S
C734 C733 1.401 . S
C734 H751 0.930 . S
C735 O718 1.262 . S
C735 O719 1.260 . S
C736 Tb672 2.833 . S
C736 O716 1.251 . S
C736 O721 1.256 . S
C736 C729 1.500 . S
C737 H702 0.929 . S
C737 C715 1.444 1_455 S
C737 C738 1.317 . S
C738 H700 0.930 . S
C738 C706 1.422 1_455 S
C738 C737 1.317 . S
C739 O723 1.283 . S
C739 O726 1.243 . S
C740 C741 1.382 . S
C740 C744 1.393 . S
C740 C747 1.500 . S
C741 C740 1.382 . S
C741 C742 1.400 . S
C741 H752 0.930 . S
C742 C741 1.400 . S
C742 C743 1.384 . S
C743 C742 1.384 . S
C743 C745 1.392 . S
C743 H753 0.931 . S
C744 C740 1.393 . S
C744 C745 1.401 . S
C744 H754 0.930 . S
C745 C743 1.392 . S
C745 C744 1.401 . S
C745 H755 0.930 . S
C746 O724 1.262 . S
C746 O725 1.260 . S
C747 Tb683 2.833 1_554 S
C747 O722 1.251 . S
C747 O727 1.256 . S
C747 C740 1.500 . S
H748 C731 0.930 . S
H749 C732 0.931 . S
H750 C733 0.930 . S
H751 C734 0.930 . S
H752 C741 0.930 . S
H753 C743 0.931 . S
H754 C744 0.930 . S
H755 C745 0.930 . S
Tb756 N787 2.660 . S
Tb756 N794 2.600 . S
Tb756 O800 2.546 . S
Tb756 O801 2.610 . S
Tb756 O803 2.320 . S
Tb756 O804 2.552 . S
Tb756 O805 2.413 . S
Tb756 O807 2.362 . S
Tb756 O808 2.421 . S
Tb756 C820 2.833 . S
C757 C760 1.432 . S
C757 C761 1.414 . S
C757 N764 1.359 . S
C758 C760 1.417 . S
C758 C762 1.432 . S
C758 C770 1.410 . S
C759 C761 1.444 . S
C759 C762 1.317 . S
C759 H782 0.929 . S
C760 C757 1.432 . S
C760 C758 1.417 . S
C760 N768 1.360 . S
C761 C757 1.414 . S
C761 C759 1.444 . S
C761 C766 1.385 . S
C762 C758 1.432 . S
C762 C759 1.317 . S
C762 H774 0.930 . S
C763 C765 1.392 . S
C763 C766 1.370 . S
C763 H775 0.931 . S
N764 C757 1.359 . S
N764 C765 1.327 . S
N764 Tb767 2.600 . S
C765 C763 1.392 . S
C765 N764 1.327 . S
C765 H772 0.930 . S
C766 C761 1.385 . S
C766 C763 1.370 . S
C766 H785 0.930 . S
Tb767 N764 2.600 . S
Tb767 N768 2.660 . S
Tb767 O801 2.362 . S
Tb767 O802 2.421 . S
Tb767 O806 2.546 . S
Tb767 O807 2.610 . S
Tb767 O809 2.320 . S
Tb767 O810 2.552 . S
Tb767 O811 2.413 . S
Tb767 C831 2.833 . S
N768 C760 1.360 . S
N768 Tb767 2.660 . S
N768 C769 1.305 . S
C769 N768 1.305 . S
C769 C771 1.407 . S
C769 H776 0.930 . S
C770 C758 1.410 . S
C770 C771 1.345 . S
C770 H778 0.930 . S
C771 C769 1.407 . S
C771 C770 1.345 . S
C771 H773 0.930 . S
H772 C765 0.930 . S
H773 C771 0.930 . S
H774 C762 0.930 . S
H775 C763 0.931 . S
H776 C769 0.930 . S
H777 C791 0.930 . S
H778 C770 0.930 . S
H779 C797 0.930 . S
H780 C788 0.930 . S
H781 C795 0.931 1_565 S
H782 C759 0.929 . S
H783 C789 0.930 . S
H784 C822 0.930 . S
H785 C766 0.930 . S
H786 C821 0.929 . S
N787 Tb756 2.660 . S
N787 C788 1.305 . S
N787 C792 1.360 . S
C788 H780 0.930 . S
C788 N787 1.305 . S
C788 C791 1.407 . S
C789 H783 0.930 . S
C789 C790 1.410 . S
C789 C791 1.345 . S
C790 C789 1.410 . S
C790 C792 1.417 . S
C790 C822 1.432 . S
C791 H777 0.930 . S
C791 C788 1.407 . S
C791 C789 1.345 . S
C792 N787 1.360 . S
C792 C790 1.417 . S
C792 C796 1.432 . S
H793 C798 0.943 . S
N794 Tb756 2.600 . S
N794 C796 1.359 . S
N794 C797 1.327 . S
C795 H781 0.931 1_545 S
C795 C797 1.392 . S
C795 C798 1.370 . S
C796 C792 1.432 . S
C796 N794 1.359 . S
C796 C799 1.414 . S
C797 H779 0.930 . S
C797 N794 1.327 . S
C797 C795 1.392 . S
C798 H793 0.943 . S
C798 C795 1.370 . S
C798 C799 1.385 . S
C799 C796 1.414 . S
C799 C798 1.385 . S
C799 C821 1.444 . S
O800 Tb756 2.546 . S
O800 C820 1.251 . S
O801 Tb756 2.610 . S
O801 Tb767 2.362 . S
O801 C812 1.283 . S
O802 Tb767 2.421 . S
O802 C819 1.262 . S
O803 Tb756 2.320 . S
O803 C819 1.260 . S
O804 Tb756 2.552 . S
O804 C812 1.243 . S
O805 Tb756 2.413 . S
O805 C820 1.256 . S
O806 Tb767 2.546 . S
O806 C831 1.251 . S
O807 Tb756 2.362 . S
O807 Tb767 2.610 . S
O807 C823 1.283 . S
O808 Tb756 2.421 . S
O808 C830 1.262 . S
O809 Tb767 2.320 . S
O809 C830 1.260 . S
O810 Tb767 2.552 . S
O810 C823 1.243 . S
O811 Tb767 2.413 . S
O811 C831 1.256 . S
C812 O801 1.283 . S
C812 O804 1.243 . S
C813 C815 1.382 . S
C813 C817 1.393 . S
C813 C820 1.500 . S
C814 C815 1.400 1_554 S
C814 C816 1.384 . S
C815 C813 1.382 . S
C815 C814 1.400 1_556 S
C815 H832 0.930 . S
C816 C814 1.384 . S
C816 C818 1.392 . S
C816 H833 0.931 . S
C817 C813 1.393 . S
C817 C818 1.401 1_556 S
C817 H834 0.930 . S
C818 C816 1.392 . S
C818 C817 1.401 1_554 S
C818 H835 0.930 . S
C819 O802 1.262 . S
C819 O803 1.260 . S
C820 Tb756 2.833 . S
C820 O800 1.251 . S
C820 O805 1.256 . S
C820 C813 1.500 . S
C821 H786 0.929 . S
C821 C799 1.444 . S
C821 C822 1.317 . S
C822 H784 0.930 . S
C822 C790 1.432 . S
C822 C821 1.317 . S
C823 O807 1.283 . S
C823 O810 1.243 . S
C824 C825 1.382 . S
C824 C828 1.393 . S
C824 C831 1.500 . S
C825 C824 1.382 . S
C825 C826 1.400 . S
C825 H836 0.930 . S
C826 C825 1.400 . S
C826 C827 1.384 . S
C827 C826 1.384 . S
C827 C829 1.392 . S
C827 H837 0.931 . S
C828 C824 1.393 . S
C828 C829 1.401 . S
C828 H838 0.930 . S
C829 C827 1.392 . S
C829 C828 1.401 . S
C829 H839 0.930 . S
C830 O808 1.262 . S
C830 O809 1.260 . S
C831 Tb767 2.833 . S
C831 O806 1.251 . S
C831 O811 1.256 . S
C831 C824 1.500 . S
H832 C815 0.930 . S
H833 C816 0.931 . S
H834 C817 0.930 . S
H835 C818 0.930 . S
H836 C825 0.930 . S
H837 C827 0.931 . S
H838 C828 0.930 . S
H839 C829 0.930 . S
Tb840 N871 2.660 . S
Tb840 N878 2.600 . S
Tb840 O884 2.546 . S
Tb840 O885 2.610 . S
Tb840 O887 2.320 . S
Tb840 O888 2.552 . S
Tb840 O889 2.413 . S
Tb840 O891 2.362 . S
Tb840 O892 2.421 . S
Tb840 C904 2.833 . S
C841 C844 1.432 . S
C841 C845 1.414 . S
C841 N848 1.359 . S
C842 C844 1.417 . S
C842 C846 1.432 . S
C842 C854 1.410 . S
C843 C845 1.444 . S
C843 C846 1.317 . S
C843 H866 0.929 . S
C844 C841 1.432 . S
C844 C842 1.417 . S
C844 N852 1.360 . S
C845 C841 1.414 . S
C845 C843 1.444 . S
C845 C850 1.385 . S
C846 C842 1.432 . S
C846 C843 1.317 . S
C846 H858 0.930 . S
C847 C849 1.392 . S
C847 C850 1.370 . S
C847 H859 0.931 . S
N848 C841 1.359 . S
N848 C849 1.327 . S
N848 Tb851 2.600 . S
C849 C847 1.392 . S
C849 N848 1.327 . S
C849 H856 0.930 . S
C850 C845 1.385 . S
C850 C847 1.370 . S
C850 H869 0.930 . S
Tb851 N848 2.600 . S
Tb851 N852 2.660 . S
Tb851 O885 2.362 . S
Tb851 O886 2.421 . S
Tb851 O890 2.546 . S
Tb851 O891 2.610 . S
Tb851 O893 2.320 . S
Tb851 O894 2.552 . S
Tb851 O895 2.413 . S
Tb851 C915 2.833 . S
N852 C844 1.360 . S
N852 Tb851 2.660 . S
N852 C853 1.305 . S
C853 N852 1.305 . S
C853 C855 1.407 . S
C853 H860 0.930 . S
C854 C842 1.410 . S
C854 C855 1.345 . S
C854 H862 0.930 . S
C855 C853 1.407 . S
C855 C854 1.345 . S
C855 H857 0.930 . S
H856 C849 0.930 . S
H857 C855 0.930 . S
H858 C846 0.930 . S
H859 C847 0.931 . S
H860 C853 0.930 . S
H861 C875 0.930 . S
H862 C854 0.930 . S
H863 C881 0.930 . S
H864 C872 0.930 . S
H865 C879 0.931 . S
H866 C843 0.929 . S
H867 C873 0.930 . S
H868 C906 0.930 . S
H869 C850 0.930 . S
H870 C905 0.929 . S
N871 Tb840 2.660 . S
N871 C872 1.305 . S
N871 C876 1.360 . S
C872 H864 0.930 . S
C872 N871 1.305 . S
C872 C875 1.407 . S
C873 H867 0.930 . S
C873 C874 1.410 . S
C873 C875 1.345 . S
C874 C873 1.410 . S
C874 C876 1.417 . S
C874 C906 1.432 . S
C875 H861 0.930 . S
C875 C872 1.407 . S
C875 C873 1.345 . S
C876 N871 1.360 . S
C876 C874 1.417 . S
C876 C880 1.432 . S
H877 C882 0.930 . S
N878 Tb840 2.600 . S
N878 C880 1.359 . S
N878 C881 1.327 . S
C879 H865 0.931 . S
C879 C881 1.392 . S
C879 C882 1.370 . S
C880 C876 1.432 . S
C880 N878 1.359 . S
C880 C883 1.414 . S
C881 H863 0.930 . S
C881 N878 1.327 . S
C881 C879 1.392 . S
C882 H877 0.930 . S
C882 C879 1.370 . S
C882 C883 1.385 . S
C883 C880 1.414 . S
C883 C882 1.385 . S
C883 C905 1.444 . S
O884 Tb840 2.546 . S
O884 C904 1.251 . S
O885 Tb840 2.610 . S
O885 Tb851 2.362 . S
O885 C896 1.283 . S
O886 Tb851 2.421 . S
O886 C903 1.262 . S
O887 Tb840 2.320 . S
O887 C903 1.260 . S
O888 Tb840 2.552 . S
O888 C896 1.243 . S
O889 Tb840 2.413 . S
O889 C904 1.256 . S
O890 Tb851 2.546 . S
O890 C915 1.251 . S
O891 Tb840 2.362 . S
O891 Tb851 2.610 . S
O891 C907 1.283 . S
O892 Tb840 2.421 . S
O892 C914 1.262 . S
O893 Tb851 2.320 . S
O893 C914 1.260 . S
O894 Tb851 2.552 . S
O894 C907 1.243 . S
O895 Tb851 2.413 . S
O895 C915 1.256 . S
C896 O885 1.283 . S
C896 O888 1.243 . S
C897 C899 1.382 . S
C897 C901 1.393 . S
C897 C904 1.500 . S
C898 C899 1.400 . S
C898 C900 1.384 . S
C899 C897 1.382 . S
C899 C898 1.400 . S
C899 H916 0.930 . S
C900 C898 1.384 . S
C900 C902 1.392 . S
C900 H917 0.931 . S
C901 C897 1.393 . S
C901 C902 1.401 . S
C901 H918 0.930 . S
C902 C900 1.392 . S
C902 C901 1.401 . S
C902 H919 0.930 . S
C903 O886 1.262 . S
C903 O887 1.260 . S
C904 Tb840 2.833 . S
C904 O884 1.251 . S
C904 O889 1.256 . S
C904 C897 1.500 . S
C905 H870 0.929 . S
C905 C883 1.444 . S
C905 C906 1.317 . S
C906 H868 0.930 . S
C906 C874 1.432 . S
C906 C905 1.317 . S
C907 O891 1.283 . S
C907 O894 1.243 . S
C908 C909 1.382 . S
C908 C912 1.393 . S
C908 C915 1.500 . S
C909 C908 1.382 . S
C909 C910 1.400 1_554 S
C909 H920 0.930 . S
C910 C909 1.400 1_556 S
C910 C911 1.384 . S
C911 C910 1.384 . S
C911 C913 1.392 . S
C911 H921 0.931 . S
C912 C908 1.393 . S
C912 C913 1.401 1_554 S
C912 H922 0.930 . S
C913 C911 1.392 . S
C913 C912 1.401 1_556 S
C913 H923 0.930 . S
C914 O892 1.262 . S
C914 O893 1.260 . S
C915 Tb851 2.833 . S
C915 O890 1.251 . S
C915 O895 1.256 . S
C915 C908 1.500 . S
H916 C899 0.930 . S
H917 C900 0.931 . S
H918 C901 0.930 . S
H919 C902 0.930 . S
H920 C909 0.930 . S
H921 C911 0.931 . S
H922 C912 0.930 . S
H923 C913 0.930 . S
Tb924 N955 2.660 . S
Tb924 N962 2.600 . S
Tb924 O968 2.546 1_554 S
Tb924 O969 2.610 . S
Tb924 O971 2.320 . S
Tb924 O972 2.552 . S
Tb924 O973 2.413 1_554 S
Tb924 O975 2.362 . S
Tb924 O976 2.421 . S
Tb924 C988 2.833 1_554 S
C925 C928 1.432 . S
C925 C929 1.414 . S
C925 N932 1.359 . S
C926 C928 1.417 1_545 S
C926 C930 1.432 . S
C926 C938 1.410 . S
C927 C929 1.444 1_545 S
C927 C930 1.317 . S
C927 H950 0.929 . S
C928 C925 1.432 . S
C928 C926 1.417 1_565 S
C928 N936 1.360 . S
C929 C925 1.414 . S
C929 C927 1.444 1_565 S
C929 C934 1.385 . S
C930 C926 1.432 . S
C930 C927 1.317 . S
C930 H942 0.930 . S
C931 C933 1.392 . S
C931 C934 1.370 . S
C931 H943 0.929 1_455 S
N932 C925 1.359 . S
N932 C933 1.327 . S
N932 Tb935 2.600 . S
C933 C931 1.392 . S
C933 N932 1.327 . S
C933 H940 0.930 . S
C934 C929 1.385 . S
C934 C931 1.370 . S
C934 H953 0.930 1_565 S
Tb935 N932 2.600 . S
Tb935 N936 2.660 . S
Tb935 O969 2.362 . S
Tb935 O970 2.421 . S
Tb935 O974 2.546 . S
Tb935 O975 2.610 . S
Tb935 O977 2.320 . S
Tb935 O978 2.552 . S
Tb935 O979 2.413 . S
Tb935 C999 2.833 . S
N936 C928 1.360 . S
N936 Tb935 2.660 . S
N936 C937 1.305 . S
C937 N936 1.305 . S
C937 C939 1.407 . S
C937 H944 0.930 . S
C938 C926 1.410 . S
C938 C939 1.345 1_545 S
C938 H946 0.930 . S
C939 C937 1.407 . S
C939 C938 1.345 1_565 S
C939 H941 0.930 1_565 S
H940 C933 0.930 . S
H941 C939 0.930 1_545 S
H942 C930 0.930 . S
H943 C931 0.929 1_655 S
H944 C937 0.930 . S
H945 C959 0.930 . S
H946 C938 0.930 . S
H947 C965 0.930 . S
H948 C956 0.930 . S
H949 C963 0.931 . S
H950 C927 0.929 . S
H951 C957 0.930 . S
H952 C990 0.930 . S
H953 C934 0.930 1_545 S
H954 C989 0.929 . S
N955 Tb924 2.660 . S
N955 C956 1.305 . S
N955 C960 1.360 . S
C956 H948 0.930 . S
C956 N955 1.305 . S
C956 C959 1.407 . S
C957 H951 0.930 . S
C957 C958 1.410 1_554 S
C957 C959 1.345 . S
C958 C957 1.410 1_556 S
C958 C960 1.417 1_556 S
C958 C990 1.432 . S
C959 H945 0.930 . S
C959 C956 1.407 . S
C959 C957 1.345 . S
C960 N955 1.360 . S
C960 C958 1.417 1_554 S
C960 C964 1.433 . S
H961 C966 0.930 . S
N962 Tb924 2.600 . S
N962 C964 1.361 . S
N962 C965 1.327 . S
C963 H949 0.931 . S
C963 C965 1.392 1_556 S
C963 C966 1.370 . S
C964 C960 1.433 . S
C964 N962 1.361 . S
C964 C967 1.411 1_554 S
C965 H947 0.930 . S
C965 N962 1.327 . S
C965 C963 1.392 1_554 S
C966 H961 0.930 . S
C966 C963 1.370 . S
C966 C967 1.385 . S
C967 C964 1.411 1_556 S
C967 C966 1.385 . S
C967 C989 1.444 . S
O968 Tb924 2.546 1_556 S
O968 C988 1.251 . S
O969 Tb924 2.610 . S
O969 Tb935 2.362 . S
O969 C980 1.283 . S
O970 Tb935 2.421 . S
O970 C987 1.262 . S
O971 Tb924 2.320 . S
O971 C987 1.260 . S
O972 Tb924 2.552 . S
O972 C980 1.243 . S
O973 Tb924 2.413 1_556 S
O973 C988 1.256 . S
O974 Tb935 2.546 . S
O974 C999 1.251 . S
O975 Tb924 2.362 . S
O975 Tb935 2.610 . S
O975 C991 1.283 . S
O976 Tb924 2.421 . S
O976 C998 1.262 . S
O977 Tb935 2.320 . S
O977 C998 1.260 . S
O978 Tb935 2.552 . S
O978 C991 1.243 . S
O979 Tb935 2.413 . S
O979 C999 1.256 . S
C980 O969 1.283 . S
C980 O972 1.243 . S
C981 C983 1.382 . S
C981 C985 1.393 . S
C981 C988 1.500 . S
C982 C983 1.400 . S
C982 C984 1.384 . S
C983 C981 1.382 . S
C983 C982 1.400 . S
C983 H1000 0.930 . S
C984 C982 1.384 . S
C984 C986 1.392 . S
C984 H1001 0.931 . S
C985 C981 1.393 . S
C985 C986 1.401 . S
C985 H1002 0.930 . S
C986 C984 1.392 . S
C986 C985 1.401 . S
C986 H1003 0.930 . S
C987 O970 1.262 . S
C987 O971 1.260 . S
C988 Tb924 2.833 1_556 S
C988 O968 1.251 . S
C988 O973 1.256 . S
C988 C981 1.500 . S
C989 H954 0.929 . S
C989 C967 1.444 . S
C989 C990 1.317 . S
C990 H952 0.930 . S
C990 C958 1.432 . S
C990 C989 1.317 . S
C991 O975 1.283 . S
C991 O978 1.243 . S
C992 C993 1.382 . S
C992 C996 1.393 . S
C992 C999 1.500 . S
C993 C992 1.382 . S
C993 C994 1.400 . S
C993 H1004 0.930 . S
C994 C993 1.400 . S
C994 C995 1.384 . S
C995 C994 1.384 . S
C995 C997 1.392 . S
C995 H1005 0.931 . S
C996 C992 1.393 . S
C996 C997 1.401 . S
C996 H1006 0.930 . S
C997 C995 1.392 . S
C997 C996 1.401 . S
C997 H1007 0.930 . S
C998 O976 1.262 . S
C998 O977 1.260 . S
C999 Tb935 2.833 . S
C999 O974 1.251 . S
C999 O979 1.256 . S
C999 C992 1.500 . S
H1000 C983 0.930 . S
H1001 C984 0.931 . S
H1002 C985 0.930 . S
H1003 C986 0.930 . S
H1004 C993 0.930 . S
H1005 C995 0.931 . S
H1006 C996 0.930 . S
H1007 C997 0.930 . S
Tb1008 N1039 2.660 . S
Tb1008 N1046 2.600 . S
Tb1008 O1052 2.546 . S
Tb1008 O1053 2.610 . S
Tb1008 O1055 2.320 . S
Tb1008 O1056 2.552 . S
Tb1008 O1057 2.413 . S
Tb1008 O1059 2.362 . S
Tb1008 O1060 2.421 . S
Tb1008 C1072 2.833 . S
C1009 C1012 1.430 1_556 S
C1009 C1013 1.419 . S
C1009 N1016 1.356 1_556 S
C1010 C1012 1.417 1_556 S
C1010 C1014 1.432 . S
C1010 C1022 1.410 1_556 S
C1011 C1013 1.444 . S
C1011 C1014 1.317 . S
C1011 H1034 0.929 . S
C1012 C1009 1.430 1_554 S
C1012 C1010 1.417 1_554 S
C1012 N1020 1.360 . S
C1013 C1009 1.419 . S
C1013 C1011 1.444 . S
C1013 C1018 1.385 . S
C1014 C1010 1.432 . S
C1014 C1011 1.317 . S
C1014 H1026 0.930 . S
C1015 C1017 1.392 1_556 S
C1015 C1018 1.370 . S
C1015 H1027 0.931 . S
N1016 C1009 1.356 1_554 S
N1016 C1017 1.327 . S
N1016 Tb1019 2.600 . S
C1017 C1015 1.392 1_554 S
C1017 N1016 1.327 . S
C1017 H1024 0.930 . S
C1018 C1013 1.385 . S
C1018 C1015 1.370 . S
C1018 H1037 0.930 . S
Tb1019 N1016 2.600 . S
Tb1019 N1020 2.660 . S
Tb1019 O1053 2.362 . S
Tb1019 O1054 2.421 . S
Tb1019 O1058 2.546 1_554 S
Tb1019 O1059 2.610 . S
Tb1019 O1061 2.320 . S
Tb1019 O1062 2.552 . S
Tb1019 O1063 2.413 1_554 S
Tb1019 C1083 2.833 1_554 S
N1020 C1012 1.360 . S
N1020 Tb1019 2.660 . S
N1020 C1021 1.305 . S
C1021 N1020 1.305 . S
C1021 C1023 1.407 . S
C1021 H1028 0.930 . S
C1022 C1010 1.410 1_554 S
C1022 C1023 1.345 . S
C1022 H1030 0.930 . S
C1023 C1021 1.407 . S
C1023 C1022 1.345 . S
C1023 H1025 0.930 . S
H1024 C1017 0.930 . S
H1025 C1023 0.930 . S
H1026 C1014 0.930 . S
H1027 C1015 0.931 . S
H1028 C1021 0.930 . S
H1029 C1043 0.930 . S
H1030 C1022 0.930 . S
H1031 C1049 0.930 . S
H1032 C1040 0.930 . S
H1033 C1047 0.931 . S
H1034 C1011 0.929 . S
H1035 C1041 0.930 . S
H1036 C1074 0.930 . S
H1037 C1018 0.930 . S
H1038 C1073 0.929 . S
N1039 Tb1008 2.660 . S
N1039 C1040 1.305 . S
N1039 C1044 1.360 . S
C1040 H1032 0.930 . S
C1040 N1039 1.305 . S
C1040 C1043 1.407 . S
C1041 H1035 0.930 . S
C1041 C1042 1.404 1_455 S
C1041 C1043 1.345 1_455 S
C1042 C1041 1.404 1_655 S
C1042 C1044 1.447 . S
C1042 C1074 1.410 1_655 S
C1043 H1029 0.930 . S
C1043 C1040 1.407 . S
C1043 C1041 1.345 1_655 S
C1044 N1039 1.360 . S
C1044 C1042 1.447 . S
C1044 C1048 1.432 . S
H1045 C1050 0.930 . S
N1046 Tb1008 2.600 . S
N1046 C1048 1.359 . S
N1046 C1049 1.327 . S
C1047 H1033 0.931 . S
C1047 C1049 1.392 . S
C1047 C1050 1.370 . S
C1048 C1044 1.432 . S
C1048 N1046 1.359 . S
C1048 C1051 1.414 . S
C1049 H1031 0.930 . S
C1049 N1046 1.327 . S
C1049 C1047 1.392 . S
C1050 H1045 0.930 . S
C1050 C1047 1.370 . S
C1050 C1051 1.385 . S
C1051 C1048 1.414 . S
C1051 C1050 1.385 . S
C1051 C1073 1.444 1_655 S
O1052 Tb1008 2.546 . S
O1052 C1072 1.251 . S
O1053 Tb1008 2.610 . S
O1053 Tb1019 2.362 . S
O1053 C1064 1.283 . S
O1054 Tb1019 2.421 . S
O1054 C1071 1.262 . S
O1055 Tb1008 2.320 . S
O1055 C1071 1.260 . S
O1056 Tb1008 2.552 . S
O1056 C1064 1.243 . S
O1057 Tb1008 2.413 . S
O1057 C1072 1.256 . S
O1058 Tb1019 2.546 1_556 S
O1058 C1083 1.251 . S
O1059 Tb1008 2.362 . S
O1059 Tb1019 2.610 . S
O1059 C1075 1.283 . S
O1060 Tb1008 2.421 . S
O1060 C1082 1.262 . S
O1061 Tb1019 2.320 . S
O1061 C1082 1.260 . S
O1062 Tb1019 2.552 . S
O1062 C1075 1.243 . S
O1063 Tb1019 2.413 1_556 S
O1063 C1083 1.256 . S
C1064 O1053 1.283 . S
C1064 O1056 1.243 . S
C1065 C1067 1.382 . S
C1065 C1069 1.393 . S
C1065 C1072 1.500 . S
C1066 C1067 1.400 . S
C1066 C1068 1.384 . S
C1067 C1065 1.382 . S
C1067 C1066 1.400 . S
C1067 H1084 0.930 . S
C1068 C1066 1.384 . S
C1068 C1070 1.392 . S
C1068 H1085 0.931 . S
C1069 C1065 1.393 . S
C1069 C1070 1.401 . S
C1069 H1086 0.930 . S
C1070 C1068 1.392 . S
C1070 C1069 1.401 . S
C1070 H1087 0.930 . S
C1071 O1054 1.262 . S
C1071 O1055 1.260 . S
C1072 Tb1008 2.833 . S
C1072 O1052 1.251 . S
C1072 O1057 1.256 . S
C1072 C1065 1.500 . S
C1073 H1038 0.929 . S
C1073 C1051 1.444 1_455 S
C1073 C1074 1.317 . S
C1074 H1036 0.930 . S
C1074 C1042 1.410 1_455 S
C1074 C1073 1.317 . S
C1075 O1059 1.283 . S
C1075 O1062 1.243 . S
C1076 C1077 1.382 . S
C1076 C1080 1.393 . S
C1076 C1083 1.500 . S
C1077 C1076 1.382 . S
C1077 C1078 1.400 . S
C1077 H1088 0.930 . S
C1078 C1077 1.400 . S
C1078 C1079 1.384 . S
C1079 C1078 1.384 . S
C1079 C1081 1.392 . S
C1079 H1089 0.931 . S
C1080 C1076 1.393 . S
C1080 C1081 1.401 . S
C1080 H1090 0.930 . S
C1081 C1079 1.392 . S
C1081 C1080 1.401 . S
C1081 H1091 0.930 . S
C1082 O1060 1.262 . S
C1082 O1061 1.260 . S
C1083 Tb1019 2.833 1_556 S
C1083 O1058 1.251 . S
C1083 O1063 1.256 . S
C1083 C1076 1.500 . S
H1084 C1067 0.930 . S
H1085 C1068 0.931 . S
H1086 C1069 0.930 . S
H1087 C1070 0.930 . S
H1088 C1077 0.930 . S
H1089 C1079 0.931 . S
H1090 C1080 0.930 . S
H1091 C1081 0.930 . S
Tb1092 N1123 2.660 . S
Tb1092 N1130 2.600 . S
Tb1092 O1136 2.546 1_556 S
Tb1092 O1137 2.610 . S
Tb1092 O1139 2.320 . S
Tb1092 O1140 2.552 . S
Tb1092 O1141 2.413 1_556 S
Tb1092 O1143 2.362 . S
Tb1092 O1144 2.421 . S
Tb1092 C1156 2.833 1_556 S
C1093 C1096 1.432 . S
C1093 C1097 1.414 . S
C1093 N1100 1.359 . S
C1094 C1096 1.417 1_565 S
C1094 C1098 1.432 . S
C1094 C1106 1.410 . S
C1095 C1097 1.444 1_565 S
C1095 C1098 1.317 . S
C1095 H1118 0.929 . S
C1096 C1093 1.432 . S
C1096 C1094 1.417 1_545 S
C1096 N1104 1.360 . S
C1097 C1093 1.414 . S
C1097 C1095 1.444 1_545 S
C1097 C1102 1.385 . S
C1098 C1094 1.432 . S
C1098 C1095 1.317 . S
C1098 H1110 0.930 . S
C1099 C1101 1.392 . S
C1099 C1102 1.370 . S
C1099 H1111 0.931 . S
N1100 C1093 1.359 . S
N1100 C1101 1.327 . S
N1100 Tb1103 2.600 . S
C1101 C1099 1.392 . S
C1101 N1100 1.327 . S
C1101 H1108 0.930 . S
C1102 C1097 1.385 . S
C1102 C1099 1.370 . S
C1102 H1121 0.930 1_545 S
Tb1103 N1100 2.600 . S
Tb1103 N1104 2.660 . S
Tb1103 O1137 2.362 . S
Tb1103 O1138 2.421 . S
Tb1103 O1142 2.546 . S
Tb1103 O1143 2.610 . S
Tb1103 O1145 2.320 . S
Tb1103 O1146 2.552 . S
Tb1103 O1147 2.413 . S
Tb1103 C1167 2.833 . S
N1104 C1096 1.360 . S
N1104 Tb1103 2.660 . S
N1104 C1105 1.305 . S
C1105 N1104 1.305 . S
C1105 C1107 1.438 . S
C1105 H1112 0.930 . S
C1106 C1094 1.410 . S
C1106 C1107 1.322 1_565 S
C1106 H1114 0.930 . S
C1107 C1105 1.438 . S
C1107 C1106 1.322 1_545 S
C1107 H1109 0.923 1_545 S
H1108 C1101 0.930 . S
H1109 C1107 0.923 1_565 S
H1110 C1098 0.930 . S
H1111 C1099 0.931 . S
H1112 C1105 0.930 . S
H1113 C1127 0.930 . S
H1114 C1106 0.930 . S
H1115 C1133 0.930 . S
H1116 C1124 0.930 . S
H1117 C1131 0.931 . S
H1118 C1095 0.929 . S
H1119 C1125 0.930 . S
H1120 C1158 0.930 . S
H1121 C1102 0.930 1_565 S
H1122 C1157 0.929 . S
N1123 Tb1092 2.660 . S
N1123 C1124 1.305 . S
N1123 C1128 1.360 . S
C1124 H1116 0.930 . S
C1124 N1123 1.305 . S
C1124 C1127 1.407 . S
C1125 H1119 0.930 . S
C1125 C1126 1.410 1_556 S
C1125 C1127 1.345 . S
C1126 C1125 1.410 1_554 S
C1126 C1128 1.417 1_554 S
C1126 C1158 1.432 . S
C1127 H1113 0.930 . S
C1127 C1124 1.407 . S
C1127 C1125 1.345 . S
C1128 N1123 1.360 . S
C1128 C1126 1.417 1_556 S
C1128 C1132 1.432 1_556 S
H1129 C1134 0.930 . S
N1130 Tb1092 2.600 . S
N1130 C1132 1.359 1_556 S
N1130 C1133 1.327 . S
C1131 H1117 0.931 . S
C1131 C1133 1.392 1_554 S
C1131 C1134 1.370 . S
C1132 C1128 1.432 1_554 S
C1132 N1130 1.359 1_554 S
C1132 C1135 1.414 . S
C1133 H1115 0.930 . S
C1133 N1130 1.327 . S
C1133 C1131 1.392 1_556 S
C1134 H1129 0.930 . S
C1134 C1131 1.370 . S
C1134 C1135 1.385 . S
C1135 C1132 1.414 . S
C1135 C1134 1.385 . S
C1135 C1157 1.444 . S
O1136 Tb1092 2.546 1_554 S
O1136 C1156 1.251 . S
O1137 Tb1092 2.610 . S
O1137 Tb1103 2.362 . S
O1137 C1148 1.283 . S
O1138 Tb1103 2.421 . S
O1138 C1155 1.262 . S
O1139 Tb1092 2.320 . S
O1139 C1155 1.260 . S
O1140 Tb1092 2.552 . S
O1140 C1148 1.243 . S
O1141 Tb1092 2.413 1_554 S
O1141 C1156 1.256 . S
O1142 Tb1103 2.546 . S
O1142 C1167 1.251 . S
O1143 Tb1092 2.362 . S
O1143 Tb1103 2.610 . S
O1143 C1159 1.283 . S
O1144 Tb1092 2.421 . S
O1144 C1166 1.262 . S
O1145 Tb1103 2.320 . S
O1145 C1166 1.260 . S
O1146 Tb1103 2.552 . S
O1146 C1159 1.243 . S
O1147 Tb1103 2.413 . S
O1147 C1167 1.256 . S
C1148 O1137 1.283 . S
C1148 O1140 1.243 . S
C1149 C1151 1.382 . S
C1149 C1153 1.393 . S
C1149 C1156 1.500 . S
C1150 C1151 1.400 . S
C1150 C1152 1.384 . S
C1151 C1149 1.382 . S
C1151 C1150 1.400 . S
C1151 H1168 0.930 . S
C1152 C1150 1.384 . S
C1152 C1154 1.392 . S
C1152 H1169 0.931 . S
C1153 C1149 1.393 . S
C1153 C1154 1.401 . S
C1153 H1170 0.930 . S
C1154 C1152 1.392 . S
C1154 C1153 1.401 . S
C1154 H1171 0.930 . S
C1155 O1138 1.262 . S
C1155 O1139 1.260 . S
C1156 Tb1092 2.833 1_554 S
C1156 O1136 1.251 . S
C1156 O1141 1.256 . S
C1156 C1149 1.500 . S
C1157 H1122 0.929 . S
C1157 C1135 1.444 . S
C1157 C1158 1.317 . S
C1158 H1120 0.930 . S
C1158 C1126 1.432 . S
C1158 C1157 1.317 . S
C1159 O1143 1.283 . S
C1159 O1146 1.243 . S
C1160 C1161 1.382 . S
C1160 C1164 1.393 . S
C1160 C1167 1.500 . S
C1161 C1160 1.382 . S
C1161 C1162 1.400 . S
C1161 H1172 0.930 . S
C1162 C1161 1.400 . S
C1162 C1163 1.384 . S
C1163 C1162 1.384 . S
C1163 C1165 1.392 . S
C1163 H1173 0.931 . S
C1164 C1160 1.393 . S
C1164 C1165 1.401 . S
C1164 H1174 0.930 . S
C1165 C1163 1.392 . S
C1165 C1164 1.401 . S
C1165 H1175 0.930 . S
C1166 O1144 1.262 . S
C1166 O1145 1.260 . S
C1167 Tb1103 2.833 . S
C1167 O1142 1.251 . S
C1167 O1147 1.256 . S
C1167 C1160 1.500 . S
H1168 C1151 0.930 . S
H1169 C1152 0.931 . S
H1170 C1153 0.930 . S
H1171 C1154 0.930 . S
H1172 C1161 0.930 . S
H1173 C1163 0.931 . S
H1174 C1164 0.930 . S
H1175 C1165 0.930 . S
Tb1176 N1207 2.660 . S
Tb1176 N1214 2.600 . S
Tb1176 O1220 2.546 . S
Tb1176 O1221 2.610 . S
Tb1176 O1223 2.320 . S
Tb1176 O1224 2.552 . S
Tb1176 O1225 2.413 . S
Tb1176 O1227 2.362 . S
Tb1176 O1228 2.421 . S
Tb1176 C1240 2.833 . S
C1177 C1180 1.432 . S
C1177 C1181 1.414 . S
C1177 N1184 1.359 . S
C1178 C1180 1.417 . S
C1178 C1182 1.432 . S
C1178 C1190 1.410 . S
C1179 C1181 1.444 . S
C1179 C1182 1.317 . S
C1179 H1202 0.929 . S
C1180 C1177 1.432 . S
C1180 C1178 1.417 . S
C1180 N1188 1.360 . S
C1181 C1177 1.414 . S
C1181 C1179 1.444 . S
C1181 C1186 1.385 . S
C1182 C1178 1.432 . S
C1182 C1179 1.317 . S
C1182 H1194 0.930 . S
C1183 C1185 1.392 . S
C1183 C1186 1.370 . S
C1183 H1195 0.931 . S
N1184 C1177 1.359 . S
N1184 C1185 1.327 . S
N1184 Tb1187 2.600 . S
C1185 C1183 1.392 . S
C1185 N1184 1.327 . S
C1185 H1192 0.930 . S
C1186 C1181 1.385 . S
C1186 C1183 1.370 . S
C1186 H1205 0.930 . S
Tb1187 N1184 2.600 . S
Tb1187 N1188 2.660 . S
Tb1187 O1221 2.362 . S
Tb1187 O1222 2.421 . S
Tb1187 O1226 2.546 . S
Tb1187 O1227 2.610 . S
Tb1187 O1229 2.320 . S
Tb1187 O1230 2.552 . S
Tb1187 O1231 2.413 . S
Tb1187 C1251 2.833 . S
N1188 C1180 1.360 . S
N1188 Tb1187 2.660 . S
N1188 C1189 1.305 . S
C1189 N1188 1.305 . S
C1189 C1191 1.407 . S
C1189 H1196 0.930 . S
C1190 C1178 1.410 . S
C1190 C1191 1.345 . S
C1190 H1198 0.930 . S
C1191 C1189 1.407 . S
C1191 C1190 1.345 . S
C1191 H1193 0.930 . S
H1192 C1185 0.930 . S
H1193 C1191 0.930 . S
H1194 C1182 0.930 . S
H1195 C1183 0.931 . S
H1196 C1189 0.930 . S
H1197 C1211 0.930 . S
H1198 C1190 0.930 . S
H1199 C1217 0.930 . S
H1200 C1208 0.930 . S
H1201 C1215 0.931 . S
H1202 C1179 0.929 . S
H1203 C1209 0.930 . S
H1204 C1242 0.930 . S
H1205 C1186 0.930 . S
H1206 C1241 0.929 . S
N1207 Tb1176 2.660 . S
N1207 C1208 1.305 . S
N1207 C1212 1.360 . S
C1208 H1200 0.930 . S
C1208 N1207 1.305 . S
C1208 C1211 1.407 . S
C1209 H1203 0.930 . S
C1209 C1210 1.410 . S
C1209 C1211 1.345 . S
C1210 C1209 1.410 . S
C1210 C1212 1.417 . S
C1210 C1242 1.432 . S
C1211 H1197 0.930 . S
C1211 C1208 1.407 . S
C1211 C1209 1.345 . S
C1212 N1207 1.360 . S
C1212 C1210 1.417 . S
C1212 C1216 1.432 . S
H1213 C1218 0.930 . S
N1214 Tb1176 2.600 . S
N1214 C1216 1.359 . S
N1214 C1217 1.327 . S
C1215 H1201 0.931 . S
C1215 C1217 1.392 . S
C1215 C1218 1.370 . S
C1216 C1212 1.432 . S
C1216 N1214 1.359 . S
C1216 C1219 1.414 . S
C1217 H1199 0.930 . S
C1217 N1214 1.327 . S
C1217 C1215 1.392 . S
C1218 H1213 0.930 . S
C1218 C1215 1.370 . S
C1218 C1219 1.385 . S
C1219 C1216 1.414 . S
C1219 C1218 1.385 . S
C1219 C1241 1.444 . S
O1220 Tb1176 2.546 . S
O1220 C1240 1.251 . S
O1221 Tb1176 2.610 . S
O1221 Tb1187 2.362 . S
O1221 C1232 1.283 . S
O1222 Tb1187 2.421 . S
O1222 C1239 1.262 . S
O1223 Tb1176 2.320 . S
O1223 C1239 1.260 . S
O1224 Tb1176 2.552 . S
O1224 C1232 1.243 . S
O1225 Tb1176 2.413 . S
O1225 C1240 1.256 . S
O1226 Tb1187 2.546 . S
O1226 C1251 1.251 . S
O1227 Tb1176 2.362 . S
O1227 Tb1187 2.610 . S
O1227 C1243 1.283 . S
O1228 Tb1176 2.421 . S
O1228 C1250 1.262 . S
O1229 Tb1187 2.320 . S
O1229 C1250 1.260 . S
O1230 Tb1187 2.552 . S
O1230 C1243 1.243 . S
O1231 Tb1187 2.413 . S
O1231 C1251 1.256 . S
C1232 O1221 1.283 . S
C1232 O1224 1.243 . S
C1233 C1235 1.382 . S
C1233 C1237 1.393 . S
C1233 C1240 1.500 . S
C1234 C1235 1.400 . S
C1234 C1236 1.384 . S
C1235 C1233 1.382 . S
C1235 C1234 1.400 . S
C1235 H1252 0.930 . S
C1236 C1234 1.384 . S
C1236 C1238 1.392 . S
C1236 H1253 0.931 . S
C1237 C1233 1.393 . S
C1237 C1238 1.401 . S
C1237 H1254 0.930 . S
C1238 C1236 1.392 . S
C1238 C1237 1.401 . S
C1238 H1255 0.930 . S
C1239 O1222 1.262 . S
C1239 O1223 1.260 . S
C1240 Tb1176 2.833 . S
C1240 O1220 1.251 . S
C1240 O1225 1.256 . S
C1240 C1233 1.500 . S
C1241 H1206 0.929 . S
C1241 C1219 1.444 . S
C1241 C1242 1.317 . S
C1242 H1204 0.930 . S
C1242 C1210 1.432 . S
C1242 C1241 1.317 . S
C1243 O1227 1.283 . S
C1243 O1230 1.243 . S
C1244 C1245 1.382 . S
C1244 C1248 1.393 . S
C1244 C1251 1.500 . S
C1245 C1244 1.382 . S
C1245 C1246 1.407 . S
C1245 H1256 0.930 . S
C1246 C1245 1.407 . S
C1246 C1247 1.380 1_556 S
C1247 C1246 1.380 1_554 S
C1247 C1249 1.392 . S
C1247 H1257 0.931 . S
C1248 C1244 1.393 . S
C1248 C1249 1.401 1_556 S
C1248 H1258 0.930 . S
C1249 C1247 1.392 . S
C1249 C1248 1.401 1_554 S
C1249 H1259 0.930 . S
C1250 O1228 1.262 . S
C1250 O1229 1.260 . S
C1251 Tb1187 2.833 . S
C1251 O1226 1.251 . S
C1251 O1231 1.256 . S
C1251 C1244 1.500 . S
H1252 C1235 0.930 . S
H1253 C1236 0.931 . S
H1254 C1237 0.930 . S
H1255 C1238 0.930 . S
H1256 C1245 0.930 . S
H1257 C1247 0.931 . S
H1258 C1248 0.930 . S
H1259 C1249 0.930 . S
Tb1260 N1291 2.660 . S
Tb1260 N1298 2.600 . S
Tb1260 O1304 2.546 . S
Tb1260 O1305 2.610 . S
Tb1260 O1307 2.320 . S
Tb1260 O1308 2.552 . S
Tb1260 O1309 2.413 . S
Tb1260 O1311 2.362 . S
Tb1260 O1312 2.421 . S
Tb1260 C1324 2.833 . S
C1261 C1264 1.432 . S
C1261 C1265 1.414 . S
C1261 N1268 1.359 . S
C1262 C1264 1.417 1_545 S
C1262 C1266 1.432 . S
C1262 C1274 1.410 . S
C1263 C1265 1.444 1_545 S
C1263 C1266 1.317 . S
C1263 H1286 0.929 . S
C1264 C1261 1.432 . S
C1264 C1262 1.417 1_565 S
C1264 N1272 1.360 . S
C1265 C1261 1.414 . S
C1265 C1263 1.444 1_565 S
C1265 C1270 1.385 . S
C1266 C1262 1.432 . S
C1266 C1263 1.317 . S
C1266 H1278 0.930 . S
C1267 C1269 1.392 . S
C1267 C1270 1.370 . S
C1267 H1279 0.931 . S
N1268 C1261 1.359 . S
N1268 C1269 1.327 . S
N1268 Tb1271 2.600 . S
C1269 C1267 1.392 . S
C1269 N1268 1.327 . S
C1269 H1276 0.930 . S
C1270 C1265 1.385 . S
C1270 C1267 1.370 . S
C1270 H1289 0.930 . S
Tb1271 N1268 2.600 . S
Tb1271 N1272 2.660 . S
Tb1271 O1305 2.362 . S
Tb1271 O1306 2.421 . S
Tb1271 O1310 2.546 . S
Tb1271 O1311 2.610 . S
Tb1271 O1313 2.320 . S
Tb1271 O1314 2.552 . S
Tb1271 O1315 2.413 . S
Tb1271 C1335 2.833 . S
N1272 C1264 1.360 . S
N1272 Tb1271 2.660 . S
N1272 C1273 1.305 . S
C1273 N1272 1.305 . S
C1273 C1275 1.407 . S
C1273 H1280 0.930 . S
C1274 C1262 1.410 . S
C1274 C1275 1.345 1_545 S
C1274 H1282 0.930 . S
C1275 C1273 1.407 . S
C1275 C1274 1.345 1_565 S
C1275 H1277 0.930 . S
H1276 C1269 0.930 . S
H1277 C1275 0.930 . S
H1278 C1266 0.930 . S
H1279 C1267 0.931 . S
H1280 C1273 0.930 . S
H1281 C1295 0.930 . S
H1282 C1274 0.930 . S
H1283 C1301 0.930 . S
H1284 C1292 0.930 . S
H1285 C1299 0.931 . S
H1286 C1263 0.929 . S
H1287 C1293 0.930 . S
H1288 C1326 0.930 . S
H1289 C1270 0.930 . S
H1290 C1325 0.929 . S
N1291 Tb1260 2.660 . S
N1291 C1292 1.305 . S
N1291 C1296 1.360 . S
C1292 H1284 0.930 . S
C1292 N1291 1.305 . S
C1292 C1295 1.407 . S
C1293 H1287 0.930 . S
C1293 C1294 1.410 . S
C1293 C1295 1.345 . S
C1294 C1293 1.410 . S
C1294 C1296 1.417 . S
C1294 C1326 1.432 . S
C1295 H1281 0.930 . S
C1295 C1292 1.407 . S
C1295 C1293 1.345 . S
C1296 N1291 1.360 . S
C1296 C1294 1.417 . S
C1296 C1300 1.432 . S
H1297 C1302 0.930 . S
N1298 Tb1260 2.600 . S
N1298 C1300 1.359 . S
N1298 C1301 1.327 . S
C1299 H1285 0.931 . S
C1299 C1301 1.392 . S
C1299 C1302 1.370 . S
C1300 C1296 1.432 . S
C1300 N1298 1.359 . S
C1300 C1303 1.414 . S
C1301 H1283 0.930 . S
C1301 N1298 1.327 . S
C1301 C1299 1.392 . S
C1302 H1297 0.930 . S
C1302 C1299 1.370 . S
C1302 C1303 1.385 . S
C1303 C1300 1.414 . S
C1303 C1302 1.385 . S
C1303 C1325 1.444 . S
O1304 Tb1260 2.546 . S
O1304 C1324 1.251 . S
O1305 Tb1260 2.610 . S
O1305 Tb1271 2.362 . S
O1305 C1316 1.283 . S
O1306 Tb1271 2.421 . S
O1306 C1323 1.262 . S
O1307 Tb1260 2.320 . S
O1307 C1323 1.260 . S
O1308 Tb1260 2.552 . S
O1308 C1316 1.243 . S
O1309 Tb1260 2.413 . S
O1309 C1324 1.256 . S
O1310 Tb1271 2.546 . S
O1310 C1335 1.251 . S
O1311 Tb1260 2.362 . S
O1311 Tb1271 2.610 . S
O1311 C1327 1.283 . S
O1312 Tb1260 2.421 . S
O1312 C1334 1.262 . S
O1313 Tb1271 2.320 . S
O1313 C1334 1.260 . S
O1314 Tb1271 2.552 . S
O1314 C1327 1.243 . S
O1315 Tb1271 2.413 . S
O1315 C1335 1.256 . S
C1316 O1305 1.283 . S
C1316 O1308 1.243 . S
C1317 C1319 1.382 . S
C1317 C1321 1.393 . S
C1317 C1324 1.500 . S
C1318 C1319 1.400 . S
C1318 C1320 1.384 . S
C1319 C1317 1.382 . S
C1319 C1318 1.400 . S
C1319 H1336 0.930 . S
C1320 C1318 1.384 . S
C1320 C1322 1.392 . S
C1320 H1337 0.931 . S
C1321 C1317 1.393 . S
C1321 C1322 1.401 . S
C1321 H1338 0.930 . S
C1322 C1320 1.392 . S
C1322 C1321 1.401 . S
C1322 H1339 0.930 . S
C1323 O1306 1.262 . S
C1323 O1307 1.260 . S
C1324 Tb1260 2.833 . S
C1324 O1304 1.251 . S
C1324 O1309 1.256 . S
C1324 C1317 1.500 . S
C1325 H1290 0.929 . S
C1325 C1303 1.444 . S
C1325 C1326 1.317 . S
C1326 H1288 0.930 . S
C1326 C1294 1.432 . S
C1326 C1325 1.317 . S
C1327 O1311 1.283 . S
C1327 O1314 1.243 . S
C1328 C1329 1.382 . S
C1328 C1332 1.393 . S
C1328 C1335 1.500 . S
C1329 C1328 1.382 . S
C1329 C1330 1.400 1_554 S
C1329 H1340 0.930 . S
C1330 C1329 1.400 1_556 S
C1330 C1331 1.384 . S
C1331 C1330 1.384 . S
C1331 C1333 1.392 . S
C1331 H1341 0.931 . S
C1332 C1328 1.393 . S
C1332 C1333 1.401 1_554 S
C1332 H1342 0.930 . S
C1333 C1331 1.392 . S
C1333 C1332 1.401 1_556 S
C1333 H1343 0.930 . S
C1334 O1312 1.262 . S
C1334 O1313 1.260 . S
C1335 Tb1271 2.833 . S
C1335 O1310 1.251 . S
C1335 O1315 1.256 . S
C1335 C1328 1.500 . S
H1336 C1319 0.930 . S
H1337 C1320 0.931 . S
H1338 C1321 0.930 . S
H1339 C1322 0.930 . S
H1340 C1329 0.930 . S
H1341 C1331 0.931 . S
H1342 C1332 0.930 . S
H1343 C1333 0.930 . S
C1344 C1345 1.363 . S
C1344 C1350 1.379 . S
C1344 N1352 1.356 . S
C1345 C1344 1.363 . S
C1345 C1351 1.363 . S
C1346 C1347 1.363 . S
C1346 C1351 1.379 . S
C1346 N1353 1.356 . S
C1347 C1346 1.363 . S
C1347 C1350 1.363 . S
N1348 C1350 1.356 . S
N1348 H1360 0.984 . S
N1348 H1361 0.985 . S
N1349 C1351 1.356 . S
N1349 H1354 0.984 . S
N1349 H1355 0.985 . S
C1350 C1344 1.379 . S
C1350 C1347 1.363 . S
C1350 N1348 1.356 . S
C1351 C1345 1.363 . S
C1351 C1346 1.379 . S
C1351 N1349 1.356 . S
N1352 C1344 1.356 . S
N1352 H1358 0.984 . S
N1352 H1359 0.984 . S
N1353 C1346 1.356 . S
N1353 H1356 0.984 . S
N1353 H1357 0.985 . S
H1354 N1349 0.984 . S
H1355 N1349 0.985 . S
H1356 N1353 0.984 . S
H1357 N1353 0.985 . S
H1358 N1352 0.984 . S
H1359 N1352 0.984 . S
H1360 N1348 0.984 . S
H1361 N1348 0.985 . S
C1362 C1363 1.363 . S
C1362 C1368 1.379 . S
C1362 N1370 1.356 . S
C1363 C1362 1.363 . S
C1363 C1369 1.363 . S
C1364 C1365 1.363 . S
C1364 C1369 1.379 . S
C1364 N1371 1.356 . S
C1365 C1364 1.363 . S
C1365 C1368 1.363 . S
N1366 C1368 1.356 . S
N1366 H1378 0.984 . S
N1366 H1379 0.985 . S
N1367 C1369 1.356 . S
N1367 H1372 0.984 . S
N1367 H1373 0.985 . S
C1368 C1362 1.379 . S
C1368 C1365 1.363 . S
C1368 N1366 1.356 . S
C1369 C1363 1.363 . S
C1369 C1364 1.379 . S
C1369 N1367 1.356 . S
N1370 C1362 1.356 . S
N1370 H1376 0.984 1_556 S
N1370 H1377 0.984 1_556 S
N1371 C1364 1.356 . S
N1371 H1374 0.984 . S
N1371 H1375 0.985 . S
H1372 N1367 0.984 . S
H1373 N1367 0.985 . S
H1374 N1371 0.984 . S
H1375 N1371 0.985 . S
H1376 N1370 0.984 1_554 S
H1377 N1370 0.984 1_554 S
H1378 N1366 0.984 . S
H1379 N1366 0.985 . S
C1380 C1381 1.363 . S
C1380 C1386 1.379 . S
C1380 N1388 1.356 . S
C1381 C1380 1.363 . S
C1381 C1387 1.363 . S
C1382 C1383 1.363 . S
C1382 C1387 1.379 . S
C1382 N1389 1.356 . S
C1383 C1382 1.363 . S
C1383 C1386 1.363 . S
N1384 C1386 1.356 . S
N1384 H1396 0.984 . S
N1384 H1397 0.985 . S
N1385 C1387 1.356 . S
N1385 H1390 0.984 . S
N1385 H1391 0.985 . S
C1386 C1380 1.379 . S
C1386 C1383 1.363 . S
C1386 N1384 1.356 . S
C1387 C1381 1.363 . S
C1387 C1382 1.379 . S
C1387 N1385 1.356 . S
N1388 C1380 1.356 . S
N1388 H1394 0.984 . S
N1388 H1395 0.984 . S
N1389 C1382 1.356 . S
N1389 H1392 0.984 . S
N1389 H1393 0.985 . S
H1390 N1385 0.984 . S
H1391 N1385 0.985 . S
H1392 N1389 0.984 . S
H1393 N1389 0.985 . S
H1394 N1388 0.984 . S
H1395 N1388 0.984 . S
H1396 N1384 0.984 . S
H1397 N1384 0.985 . S
C1398 C1399 1.363 . S
C1398 C1404 1.379 . S
C1398 N1406 1.356 . S
C1399 C1398 1.363 . S
C1399 C1405 1.363 . S
C1400 C1401 1.363 . S
C1400 C1405 1.379 . S
C1400 N1407 1.356 . S
C1401 C1400 1.363 . S
C1401 C1404 1.363 . S
N1402 C1404 1.356 . S
N1402 H1414 0.984 . S
N1402 H1415 0.985 . S
N1403 C1405 1.356 . S
N1403 H1408 0.984 . S
N1403 H1409 0.985 . S
C1404 C1398 1.379 . S
C1404 C1401 1.363 . S
C1404 N1402 1.356 . S
C1405 C1399 1.363 . S
C1405 C1400 1.379 . S
C1405 N1403 1.356 . S
N1406 C1398 1.356 . S
N1406 H1412 0.984 . S
N1406 H1413 0.984 . S
N1407 C1400 1.356 . S
N1407 H1410 0.984 . S
N1407 H1411 0.985 . S
H1408 N1403 0.984 . S
H1409 N1403 0.985 . S
H1410 N1407 0.984 . S
H1411 N1407 0.985 . S
H1412 N1406 0.984 . S
H1413 N1406 0.984 . S
H1414 N1402 0.984 . S
H1415 N1402 0.985 . S
C1416 C1417 1.363 . S
C1416 C1422 1.379 . S
C1416 N1424 1.356 . S
C1417 C1416 1.363 . S
C1417 C1423 1.363 . S
C1418 C1419 1.363 . S
C1418 C1423 1.379 . S
C1418 N1425 1.356 . S
C1419 C1418 1.363 . S
C1419 C1422 1.363 . S
N1420 C1422 1.356 . S
N1420 H1432 0.984 . S
N1420 H1433 0.985 . S
N1421 C1423 1.356 . S
N1421 H1426 0.984 . S
N1421 H1427 0.985 . S
C1422 C1416 1.379 . S
C1422 C1419 1.363 . S
C1422 N1420 1.356 . S
C1423 C1417 1.363 . S
C1423 C1418 1.379 . S
C1423 N1421 1.356 . S
N1424 C1416 1.356 . S
N1424 H1430 0.984 . S
N1424 H1431 0.984 . S
N1425 C1418 1.356 . S
N1425 H1428 0.984 . S
N1425 H1429 0.985 . S
H1426 N1421 0.984 . S
H1427 N1421 0.985 . S
H1428 N1425 0.984 . S
H1429 N1425 0.985 . S
H1430 N1424 0.984 . S
H1431 N1424 0.984 . S
H1432 N1420 0.984 . S
H1433 N1420 0.985 . S
C1434 C1435 1.363 . S
C1434 C1440 1.379 . S
C1434 N1442 1.356 . S
C1435 C1434 1.363 . S
C1435 C1441 1.363 . S
C1436 C1437 1.363 . S
C1436 C1441 1.379 . S
C1436 N1443 1.356 . S
C1437 C1436 1.363 . S
C1437 C1440 1.363 . S
N1438 C1440 1.356 . S
N1438 H1450 0.984 . S
N1438 H1451 0.985 . S
N1439 C1441 1.356 . S
N1439 H1444 0.984 . S
N1439 H1445 0.985 . S
C1440 C1434 1.379 . S
C1440 C1437 1.363 . S
C1440 N1438 1.356 . S
C1441 C1435 1.363 . S
C1441 C1436 1.379 . S
C1441 N1439 1.356 . S
N1442 C1434 1.356 . S
N1442 H1448 0.984 . S
N1442 H1449 0.984 . S
N1443 C1436 1.356 . S
N1443 H1446 0.984 . S
N1443 H1447 0.985 . S
H1444 N1439 0.984 . S
H1445 N1439 0.985 . S
H1446 N1443 0.984 . S
H1447 N1443 0.985 . S
H1448 N1442 0.984 . S
H1449 N1442 0.984 . S
H1450 N1438 0.984 . S
H1451 N1438 0.985 . S
C1452 C1453 1.363 . S
C1452 C1458 1.379 . S
C1452 N1460 1.356 . S
C1453 C1452 1.363 . S
C1453 C1459 1.363 . S
C1454 C1455 1.363 . S
C1454 C1459 1.379 . S
C1454 N1461 1.356 . S
C1455 C1454 1.363 . S
C1455 C1458 1.363 . S
N1456 C1458 1.356 . S
N1456 H1468 0.984 . S
N1456 H1469 0.985 . S
N1457 C1459 1.356 . S
N1457 H1462 0.984 . S
N1457 H1463 0.985 . S
C1458 C1452 1.379 . S
C1458 C1455 1.363 . S
C1458 N1456 1.356 . S
C1459 C1453 1.363 . S
C1459 C1454 1.379 . S
C1459 N1457 1.356 . S
N1460 C1452 1.356 . S
N1460 H1466 0.984 . S
N1460 H1467 0.984 . S
N1461 C1454 1.356 . S
N1461 H1464 0.984 . S
N1461 H1465 0.985 . S
H1462 N1457 0.984 . S
H1463 N1457 0.985 . S
H1464 N1461 0.984 . S
H1465 N1461 0.985 . S
H1466 N1460 0.984 . S
H1467 N1460 0.984 . S
H1468 N1456 0.984 . S
H1469 N1456 0.985 . S
C1470 C1471 1.363 . S
C1470 C1476 1.379 . S
C1470 N1478 1.356 . S
C1471 C1470 1.363 . S
C1471 C1477 1.363 . S
C1472 C1473 1.363 . S
C1472 C1477 1.379 . S
C1472 N1479 1.356 . S
C1473 C1472 1.363 . S
C1473 C1476 1.363 . S
N1474 C1476 1.356 . S
N1474 H1486 0.984 . S
N1474 H1487 0.985 . S
N1475 C1477 1.356 . S
N1475 H1480 0.984 . S
N1475 H1481 0.985 . S
C1476 C1470 1.379 . S
C1476 C1473 1.363 . S
C1476 N1474 1.356 . S
C1477 C1471 1.363 . S
C1477 C1472 1.379 . S
C1477 N1475 1.356 . S
N1478 C1470 1.356 . S
N1478 H1484 0.984 1_554 S
N1478 H1485 0.984 1_554 S
N1479 C1472 1.356 . S
N1479 H1482 0.984 . S
N1479 H1483 0.985 . S
H1480 N1475 0.984 . S
H1481 N1475 0.985 . S
H1482 N1479 0.984 . S
H1483 N1479 0.985 . S
H1484 N1478 0.984 1_556 S
H1485 N1478 0.984 1_556 S
H1486 N1474 0.984 . S
H1487 N1474 0.985 . S
C1488 C1489 1.363 . S
C1488 C1494 1.379 . S
C1488 N1496 1.356 . S
C1489 C1488 1.363 . S
C1489 C1495 1.363 . S
C1490 C1491 1.363 . S
C1490 C1495 1.379 . S
C1490 N1497 1.356 . S
C1491 C1490 1.363 . S
C1491 C1494 1.363 . S
N1492 C1494 1.356 . S
N1492 H1504 0.984 . S
N1492 H1505 0.985 . S
N1493 C1495 1.356 . S
N1493 H1498 0.984 . S
N1493 H1499 0.985 . S
C1494 C1488 1.379 . S
C1494 C1491 1.363 . S
C1494 N1492 1.356 . S
C1495 C1489 1.363 . S
C1495 C1490 1.379 . S
C1495 N1493 1.356 . S
N1496 C1488 1.356 . S
N1496 H1502 0.984 . S
N1496 H1503 0.984 . S
N1497 C1490 1.356 . S
N1497 H1500 0.984 . S
N1497 H1501 0.985 . S
H1498 N1493 0.984 . S
H1499 N1493 0.985 . S
H1500 N1497 0.984 . S
H1501 N1497 0.985 . S
H1502 N1496 0.984 . S
H1503 N1496 0.984 . S
H1504 N1492 0.984 . S
H1505 N1492 0.985 . S
C1506 C1507 1.363 . S
C1506 C1512 1.379 . S
C1506 N1514 1.356 . S
C1507 C1506 1.363 . S
C1507 C1513 1.363 . S
C1508 C1509 1.363 . S
C1508 C1513 1.379 . S
C1508 N1515 1.356 . S
C1509 C1508 1.363 . S
C1509 C1512 1.363 . S
N1510 C1512 1.356 . S
N1510 H1522 0.984 1_554 S
N1510 H1523 0.985 1_554 S
N1511 C1513 1.356 . S
N1511 H1516 0.984 . S
N1511 H1517 0.985 . S
C1512 C1506 1.379 . S
C1512 C1509 1.363 . S
C1512 N1510 1.356 . S
C1513 C1507 1.363 . S
C1513 C1508 1.379 . S
C1513 N1511 1.356 . S
N1514 C1506 1.356 . S
N1514 H1520 0.984 . S
N1514 H1521 0.984 . S
N1515 C1508 1.356 . S
N1515 H1518 0.984 . S
N1515 H1519 0.985 . S
H1516 N1511 0.984 . S
H1517 N1511 0.985 . S
H1518 N1515 0.984 . S
H1519 N1515 0.985 . S
H1520 N1514 0.984 . S
H1521 N1514 0.984 . S
H1522 N1510 0.984 1_556 S
H1523 N1510 0.985 1_556 S
C1524 C1525 1.363 . S
C1524 C1530 1.379 . S
C1524 N1532 1.356 . S
C1525 C1524 1.363 . S
C1525 C1531 1.363 . S
C1526 C1527 1.363 . S
C1526 C1531 1.379 . S
C1526 N1533 1.356 . S
C1527 C1526 1.363 . S
C1527 C1530 1.363 . S
N1528 C1530 1.356 . S
N1528 H1540 0.984 . S
N1528 H1541 0.985 . S
N1529 C1531 1.356 . S
N1529 H1534 0.984 . S
N1529 H1535 0.985 . S
C1530 C1524 1.379 . S
C1530 C1527 1.363 . S
C1530 N1528 1.356 . S
C1531 C1525 1.363 . S
C1531 C1526 1.379 . S
C1531 N1529 1.356 . S
N1532 C1524 1.356 . S
N1532 H1538 0.984 . S
N1532 H1539 0.984 . S
N1533 C1526 1.356 . S
N1533 H1536 0.984 . S
N1533 H1537 0.985 . S
H1534 N1529 0.984 . S
H1535 N1529 0.985 . S
H1536 N1533 0.984 . S
H1537 N1533 0.985 . S
H1538 N1532 0.984 . S
H1539 N1532 0.984 . S
H1540 N1528 0.984 . S
H1541 N1528 0.985 . S
C1542 C1543 1.363 . S
C1542 C1548 1.379 . S
C1542 N1550 1.356 . S
C1543 C1542 1.363 . S
C1543 C1549 1.363 . S
C1544 C1545 1.363 . S
C1544 C1549 1.379 . S
C1544 N1551 1.356 . S
C1545 C1544 1.363 . S
C1545 C1548 1.363 . S
N1546 C1548 1.356 . S
N1546 H1558 0.984 . S
N1546 H1559 0.985 . S
N1547 C1549 1.356 . S
N1547 H1552 0.984 . S
N1547 H1553 0.985 . S
C1548 C1542 1.379 . S
C1548 C1545 1.363 . S
C1548 N1546 1.356 . S
C1549 C1543 1.363 . S
C1549 C1544 1.379 . S
C1549 N1547 1.356 . S
N1550 C1542 1.356 . S
N1550 H1556 0.984 . S
N1550 H1557 0.984 . S
N1551 C1544 1.356 . S
N1551 H1554 0.984 . S
N1551 H1555 0.985 . S
H1552 N1547 0.984 . S
H1553 N1547 0.985 . S
H1554 N1551 0.984 . S
H1555 N1551 0.985 . S
H1556 N1550 0.984 . S
H1557 N1550 0.984 . S
H1558 N1546 0.984 . S
H1559 N1546 0.985 . S
C1560 C1561 1.363 . S
C1560 C1566 1.379 . S
C1560 N1568 1.356 . S
C1561 C1560 1.363 . S
C1561 C1567 1.363 . S
C1562 C1563 1.363 . S
C1562 C1567 1.379 . S
C1562 N1569 1.356 . S
C1563 C1562 1.363 . S
C1563 C1566 1.363 . S
N1564 C1566 1.356 . S
N1564 H1576 0.984 . S
N1564 H1577 0.985 . S
N1565 C1567 1.356 . S
N1565 H1570 0.984 . S
N1565 H1571 0.985 . S
C1566 C1560 1.379 . S
C1566 C1563 1.363 . S
C1566 N1564 1.356 . S
C1567 C1561 1.363 . S
C1567 C1562 1.379 . S
C1567 N1565 1.356 . S
N1568 C1560 1.356 . S
N1568 H1574 0.984 . S
N1568 H1575 0.984 . S
N1569 C1562 1.356 . S
N1569 H1572 0.984 . S
N1569 H1573 0.985 . S
H1570 N1565 0.984 . S
H1571 N1565 0.985 . S
H1572 N1569 0.984 . S
H1573 N1569 0.985 . S
H1574 N1568 0.984 . S
H1575 N1568 0.984 . S
H1576 N1564 0.984 . S
H1577 N1564 0.985 . S
C1578 C1579 1.363 . S
C1578 C1584 1.379 . S
C1578 N1586 1.356 . S
C1579 C1578 1.363 . S
C1579 C1585 1.363 . S
C1580 C1581 1.363 . S
C1580 C1585 1.379 . S
C1580 N1587 1.356 . S
C1581 C1580 1.363 . S
C1581 C1584 1.363 . S
N1582 C1584 1.356 . S
N1582 H1594 0.984 . S
N1582 H1595 0.985 . S
N1583 C1585 1.356 . S
N1583 H1588 0.984 . S
N1583 H1589 0.985 . S
C1584 C1578 1.379 . S
C1584 C1581 1.363 . S
C1584 N1582 1.356 . S
C1585 C1579 1.363 . S
C1585 C1580 1.379 . S
C1585 N1583 1.356 . S
N1586 C1578 1.356 . S
N1586 H1592 0.984 . S
N1586 H1593 0.984 . S
N1587 C1580 1.356 . S
N1587 H1590 0.984 . S
N1587 H1591 0.985 . S
H1588 N1583 0.984 . S
H1589 N1583 0.985 . S
H1590 N1587 0.984 . S
H1591 N1587 0.985 . S
H1592 N1586 0.984 . S
H1593 N1586 0.984 . S
H1594 N1582 0.984 . S
H1595 N1582 0.985 . S
C1596 C1597 1.363 . S
C1596 C1602 1.379 . S
C1596 N1604 1.356 . S
C1597 C1596 1.363 . S
C1597 C1603 1.363 . S
C1598 C1599 1.363 . S
C1598 C1603 1.379 . S
C1598 N1605 1.356 . S
C1599 C1598 1.363 . S
C1599 C1602 1.363 . S
N1600 C1602 1.356 . S
N1600 H1612 0.984 1_554 S
N1600 H1613 0.985 1_554 S
N1601 C1603 1.356 . S
N1601 H1606 0.984 . S
N1601 H1607 0.985 . S
C1602 C1596 1.379 . S
C1602 C1599 1.363 . S
C1602 N1600 1.356 . S
C1603 C1597 1.363 . S
C1603 C1598 1.379 . S
C1603 N1601 1.356 . S
N1604 C1596 1.356 . S
N1604 H1610 0.984 . S
N1604 H1611 0.984 . S
N1605 C1598 1.356 . S
N1605 H1608 0.984 . S
N1605 H1609 0.985 . S
H1606 N1601 0.984 . S
H1607 N1601 0.985 . S
H1608 N1605 0.984 . S
H1609 N1605 0.985 . S
H1610 N1604 0.984 . S
H1611 N1604 0.984 . S
H1612 N1600 0.984 1_556 S
H1613 N1600 0.985 1_556 S
C1614 C1615 1.363 . S
C1614 C1620 1.379 . S
C1614 N1622 1.356 . S
C1615 C1614 1.363 . S
C1615 C1621 1.363 . S
C1616 C1617 1.363 . S
C1616 C1621 1.379 . S
C1616 N1623 1.356 . S
C1617 C1616 1.363 . S
C1617 C1620 1.363 . S
N1618 C1620 1.356 . S
N1618 H1630 0.984 . S
N1618 H1631 0.985 . S
N1619 C1621 1.356 . S
N1619 H1624 0.984 . S
N1619 H1625 0.985 . S
C1620 C1614 1.379 . S
C1620 C1617 1.363 . S
C1620 N1618 1.356 . S
C1621 C1615 1.363 . S
C1621 C1616 1.379 . S
C1621 N1619 1.356 . S
N1622 C1614 1.356 . S
N1622 H1628 0.984 . S
N1622 H1629 0.984 1_556 S
N1623 C1616 1.356 . S
N1623 H1626 0.984 . S
N1623 H1627 0.985 . S
H1624 N1619 0.984 . S
H1625 N1619 0.985 . S
H1626 N1623 0.984 . S
H1627 N1623 0.985 . S
H1628 N1622 0.984 . S
H1629 N1622 0.984 1_554 S
H1630 N1618 0.984 . S
H1631 N1618 0.985 . S
C1632 C1633 1.363 . S
C1632 C1638 1.379 . S
C1632 N1640 1.356 . S
C1633 C1632 1.363 . S
C1633 C1639 1.363 . S
C1634 C1635 1.363 . S
C1634 C1639 1.379 . S
C1634 N1641 1.356 . S
C1635 C1634 1.363 . S
C1635 C1638 1.363 . S
N1636 C1638 1.356 . S
N1636 H1648 0.984 . S
N1636 H1649 0.985 . S
N1637 C1639 1.356 . S
N1637 H1642 0.984 . S
N1637 H1643 0.985 . S
C1638 C1632 1.379 . S
C1638 C1635 1.363 . S
C1638 N1636 1.356 . S
C1639 C1633 1.363 . S
C1639 C1634 1.379 . S
C1639 N1637 1.356 . S
N1640 C1632 1.356 . S
N1640 H1646 0.984 . S
N1640 H1647 0.984 . S
N1641 C1634 1.356 . S
N1641 H1644 0.984 . S
N1641 H1645 0.985 . S
H1642 N1637 0.984 . S
H1643 N1637 0.985 . S
H1644 N1641 0.984 . S
H1645 N1641 0.985 . S
H1646 N1640 0.984 . S
H1647 N1640 0.984 . S
H1648 N1636 0.984 . S
H1649 N1636 0.985 . S
C1650 C1651 1.363 . S
C1650 C1656 1.379 . S
C1650 N1658 1.356 . S
C1651 C1650 1.363 . S
C1651 C1657 1.363 . S
C1652 C1653 1.363 . S
C1652 C1657 1.379 . S
C1652 N1659 1.356 . S
C1653 C1652 1.363 . S
C1653 C1656 1.363 . S
N1654 C1656 1.356 . S
N1654 H1666 0.984 . S
N1654 H1667 0.985 . S
N1655 C1657 1.356 . S
N1655 H1660 0.984 . S
N1655 H1661 0.985 . S
C1656 C1650 1.379 . S
C1656 C1653 1.363 . S
C1656 N1654 1.356 . S
C1657 C1651 1.363 . S
C1657 C1652 1.379 . S
C1657 N1655 1.356 . S
N1658 C1650 1.356 . S
N1658 H1664 0.984 . S
N1658 H1665 0.984 . S
N1659 C1652 1.356 . S
N1659 H1662 0.984 . S
N1659 H1663 0.985 . S
H1660 N1655 0.984 . S
H1661 N1655 0.985 . S
H1662 N1659 0.984 . S
H1663 N1659 0.985 . S
H1664 N1658 0.984 . S
H1665 N1658 0.984 . S
H1666 N1654 0.984 . S
H1667 N1654 0.985 . S
C1668 C1669 1.363 . S
C1668 C1674 1.379 . S
C1668 N1676 1.356 . S
C1669 C1668 1.363 . S
C1669 C1675 1.363 . S
C1670 C1671 1.363 . S
C1670 C1675 1.379 . S
C1670 N1677 1.356 . S
C1671 C1670 1.363 . S
C1671 C1674 1.363 . S
N1672 C1674 1.356 . S
N1672 H1684 0.984 . S
N1672 H1685 0.985 . S
N1673 C1675 1.356 . S
N1673 H1678 0.984 . S
N1673 H1679 0.985 . S
C1674 C1668 1.379 . S
C1674 C1671 1.363 . S
C1674 N1672 1.356 . S
C1675 C1669 1.363 . S
C1675 C1670 1.379 . S
C1675 N1673 1.356 . S
N1676 C1668 1.356 . S
N1676 H1682 0.984 . S
N1676 H1683 0.984 . S
N1677 C1670 1.356 . S
N1677 H1680 0.984 . S
N1677 H1681 0.985 . S
H1678 N1673 0.984 . S
H1679 N1673 0.985 . S
H1680 N1677 0.984 . S
H1681 N1677 0.985 . S
H1682 N1676 0.984 . S
H1683 N1676 0.984 . S
H1684 N1672 0.984 . S
H1685 N1672 0.985 . S
C1686 C1687 1.363 . S
C1686 C1692 1.379 1_655 S
C1686 N1694 1.356 . S
C1687 C1686 1.363 . S
C1687 C1693 1.363 . S
C1688 C1689 1.363 . S
C1688 C1693 1.379 1_455 S
C1688 N1695 1.356 . S
C1689 C1688 1.363 . S
C1689 C1692 1.363 . S
N1690 C1692 1.356 . S
N1690 H1702 0.984 . S
N1690 H1703 0.985 . S
N1691 C1693 1.356 . S
N1691 H1696 0.984 . S
N1691 H1697 0.985 1_556 S
C1692 C1686 1.379 1_455 S
C1692 C1689 1.363 . S
C1692 N1690 1.356 . S
C1693 C1687 1.363 . S
C1693 C1688 1.379 1_655 S
C1693 N1691 1.356 . S
N1694 C1686 1.356 . S
N1694 H1700 0.984 . S
N1694 H1701 0.984 . S
N1695 C1688 1.356 . S
N1695 H1698 0.984 . S
N1695 H1699 0.985 . S
H1696 N1691 0.984 . S
H1697 N1691 0.985 1_554 S
H1698 N1695 0.984 . S
H1699 N1695 0.985 . S
H1700 N1694 0.984 . S
H1701 N1694 0.984 . S
H1702 N1690 0.984 . S
H1703 N1690 0.985 . S
C1704 C1705 1.363 . S
C1704 C1710 1.379 . S
C1704 N1712 1.356 . S
C1705 C1704 1.363 . S
C1705 C1711 1.363 . S
C1706 C1707 1.363 . S
C1706 C1711 1.379 . S
C1706 N1713 1.356 . S
C1707 C1706 1.363 . S
C1707 C1710 1.363 . S
N1708 C1710 1.356 . S
N1708 H1720 0.984 . S
N1708 H1721 0.985 . S
N1709 C1711 1.356 . S
N1709 H1714 0.984 . S
N1709 H1715 0.985 . S
C1710 C1704 1.379 . S
C1710 C1707 1.363 . S
C1710 N1708 1.356 . S
C1711 C1705 1.363 . S
C1711 C1706 1.379 . S
C1711 N1709 1.356 . S
N1712 C1704 1.356 . S
N1712 H1718 0.984 . S
N1712 H1719 0.984 . S
N1713 C1706 1.356 . S
N1713 H1716 0.984 . S
N1713 H1717 0.985 . S
H1714 N1709 0.984 . S
H1715 N1709 0.985 . S
H1716 N1713 0.984 . S
H1717 N1713 0.985 . S
H1718 N1712 0.984 . S
H1719 N1712 0.984 . S
H1720 N1708 0.984 . S
H1721 N1708 0.985 . S
C1722 C1723 1.363 . S
C1722 C1728 1.379 1_455 S
C1722 N1730 1.356 1_554 S
C1723 C1722 1.363 . S
C1723 C1729 1.363 . S
C1724 C1725 1.363 . S
C1724 C1729 1.379 1_655 S
C1724 N1731 1.356 . S
C1725 C1724 1.363 . S
C1725 C1728 1.363 . S
N1726 C1728 1.356 1_556 S
N1726 H1738 0.984 . S
N1726 H1739 0.985 . S
N1727 C1729 1.356 . S
N1727 H1732 0.984 . S
N1727 H1733 0.985 . S
C1728 C1722 1.379 1_655 S
C1728 C1725 1.363 . S
C1728 N1726 1.356 1_554 S
C1729 C1723 1.363 . S
C1729 C1724 1.379 1_455 S
C1729 N1727 1.356 . S
N1730 C1722 1.356 1_556 S
N1730 H1736 0.984 . S
N1730 H1737 0.984 . S
N1731 C1724 1.356 . S
N1731 H1734 0.984 . S
N1731 H1735 0.985 . S
H1732 N1727 0.984 . S
H1733 N1727 0.985 . S
H1734 N1731 0.984 . S
H1735 N1731 0.985 . S
H1736 N1730 0.984 . S
H1737 N1730 0.984 . S
H1738 N1726 0.984 . S
H1739 N1726 0.985 . S
C1740 C1741 1.363 . S
C1740 C1746 1.379 . S
C1740 N1748 1.356 . S
C1741 C1740 1.363 . S
C1741 C1747 1.363 . S
C1742 C1743 1.363 . S
C1742 C1747 1.379 . S
C1742 N1749 1.356 . S
C1743 C1742 1.363 . S
C1743 C1746 1.363 . S
N1744 C1746 1.356 . S
N1744 H1756 0.984 . S
N1744 H1757 0.985 . S
N1745 C1747 1.356 . S
N1745 H1750 0.984 . S
N1745 H1751 0.985 . S
C1746 C1740 1.379 . S
C1746 C1743 1.363 . S
C1746 N1744 1.356 . S
C1747 C1741 1.363 . S
C1747 C1742 1.379 . S
C1747 N1745 1.356 . S
N1748 C1740 1.356 . S
N1748 H1754 0.984 . S
N1748 H1755 0.984 . S
N1749 C1742 1.356 . S
N1749 H1752 0.984 . S
N1749 H1753 0.985 . S
H1750 N1745 0.984 . S
H1751 N1745 0.985 . S
H1752 N1749 0.984 . S
H1753 N1749 0.985 . S
H1754 N1748 0.984 . S
H1755 N1748 0.984 . S
H1756 N1744 0.984 . S
H1757 N1744 0.985 . S
C1758 C1759 1.363 . S
C1758 C1764 1.379 . S
C1758 N1766 1.356 . S
C1759 C1758 1.363 . S
C1759 C1765 1.363 . S
C1760 C1761 1.363 . S
C1760 C1765 1.379 . S
C1760 N1767 1.356 . S
C1761 C1760 1.363 . S
C1761 C1764 1.363 . S
N1762 C1764 1.356 . S
N1762 H1774 0.984 . S
N1762 H1775 0.985 . S
N1763 C1765 1.356 . S
N1763 H1768 0.984 . S
N1763 H1769 0.985 . S
C1764 C1758 1.379 . S
C1764 C1761 1.363 . S
C1764 N1762 1.356 . S
C1765 C1759 1.363 . S
C1765 C1760 1.379 . S
C1765 N1763 1.356 . S
N1766 C1758 1.356 . S
N1766 H1772 0.984 . S
N1766 H1773 0.984 . S
N1767 C1760 1.356 . S
N1767 H1770 0.984 . S
N1767 H1771 0.985 . S
H1768 N1763 0.984 . S
H1769 N1763 0.985 . S
H1770 N1767 0.984 . S
H1771 N1767 0.985 . S
H1772 N1766 0.984 . S
H1773 N1766 0.984 . S
H1774 N1762 0.984 . S
H1775 N1762 0.985 . S
C1776 C1777 1.363 . S
C1776 C1782 1.379 . S
C1776 N1784 1.356 . S
C1777 C1776 1.363 . S
C1777 C1783 1.363 . S
C1778 C1779 1.363 . S
C1778 C1783 1.379 . S
C1778 N1785 1.356 . S
C1779 C1778 1.363 . S
C1779 C1782 1.363 . S
N1780 C1782 1.356 . S
N1780 H1792 0.984 . S
N1780 H1793 0.985 . S
N1781 C1783 1.356 . S
N1781 H1786 0.984 . S
N1781 H1787 0.985 . S
C1782 C1776 1.379 . S
C1782 C1779 1.363 . S
C1782 N1780 1.356 . S
C1783 C1777 1.363 . S
C1783 C1778 1.379 . S
C1783 N1781 1.356 . S
N1784 C1776 1.356 . S
N1784 H1790 0.984 . S
N1784 H1791 0.984 . S
N1785 C1778 1.356 . S
N1785 H1788 0.984 . S
N1785 H1789 0.985 . S
H1786 N1781 0.984 . S
H1787 N1781 0.985 . S
H1788 N1785 0.984 . S
H1789 N1785 0.985 . S
H1790 N1784 0.984 . S
H1791 N1784 0.984 . S
H1792 N1780 0.984 . S
H1793 N1780 0.985 . S
C1794 C1795 1.363 . S
C1794 C1800 1.379 . S
C1794 N1802 1.356 . S
C1795 C1794 1.363 . S
C1795 C1801 1.363 . S
C1796 C1797 1.363 . S
C1796 C1801 1.379 . S
C1796 N1803 1.356 . S
C1797 C1796 1.363 . S
C1797 C1800 1.363 . S
N1798 C1800 1.356 . S
N1798 H1810 0.984 . S
N1798 H1811 0.985 . S
N1799 C1801 1.356 . S
N1799 H1804 0.984 . S
N1799 H1805 0.985 . S
C1800 C1794 1.379 . S
C1800 C1797 1.363 . S
C1800 N1798 1.356 . S
C1801 C1795 1.363 . S
C1801 C1796 1.379 . S
C1801 N1799 1.356 . S
N1802 C1794 1.356 . S
N1802 H1808 0.984 . S
N1802 H1809 0.984 . S
N1803 C1796 1.356 . S
N1803 H1806 0.984 . S
N1803 H1807 0.985 . S
H1804 N1799 0.984 . S
H1805 N1799 0.985 . S
H1806 N1803 0.984 . S
H1807 N1803 0.985 . S
H1808 N1802 0.984 . S
H1809 N1802 0.984 . S
H1810 N1798 0.984 . S
H1811 N1798 0.985 . S
C1812 C1813 1.363 . S
C1812 C1818 1.379 . S
C1812 N1820 1.356 . S
C1813 C1812 1.363 . S
C1813 C1819 1.363 . S
C1814 C1815 1.363 . S
C1814 C1819 1.379 . S
C1814 N1821 1.356 . S
C1815 C1814 1.363 . S
C1815 C1818 1.363 . S
N1816 C1818 1.356 . S
N1816 H1828 0.984 . S
N1816 H1829 0.985 . S
N1817 C1819 1.356 . S
N1817 H1822 0.984 . S
N1817 H1823 0.985 . S
C1818 C1812 1.379 . S
C1818 C1815 1.363 . S
C1818 N1816 1.356 . S
C1819 C1813 1.363 . S
C1819 C1814 1.379 . S
C1819 N1817 1.356 . S
N1820 C1812 1.356 . S
N1820 H1826 0.984 . S
N1820 H1827 0.984 . S
N1821 C1814 1.356 . S
N1821 H1824 0.984 . S
N1821 H1825 0.985 . S
H1822 N1817 0.984 . S
H1823 N1817 0.985 . S
H1824 N1821 0.984 . S
H1825 N1821 0.985 . S
H1826 N1820 0.984 . S
H1827 N1820 0.984 . S
H1828 N1816 0.984 . S
H1829 N1816 0.985 . S
C1830 C1831 1.363 . S
C1830 C1836 1.379 . S
C1830 N1838 1.356 . S
C1831 C1830 1.363 . S
C1831 C1837 1.363 . S
C1832 C1833 1.363 . S
C1832 C1837 1.379 . S
C1832 N1839 1.356 . S
C1833 C1832 1.363 . S
C1833 C1836 1.363 . S
N1834 C1836 1.356 . S
N1834 H1846 0.984 . S
N1834 H1847 0.985 . S
N1835 C1837 1.356 . S
N1835 H1840 0.984 . S
N1835 H1841 0.985 . S
C1836 C1830 1.379 . S
C1836 C1833 1.363 . S
C1836 N1834 1.356 . S
C1837 C1831 1.363 . S
C1837 C1832 1.379 . S
C1837 N1835 1.356 . S
N1838 C1830 1.356 . S
N1838 H1844 0.984 . S
N1838 H1845 0.984 . S
N1839 C1832 1.356 . S
N1839 H1842 0.984 . S
N1839 H1843 0.985 . S
H1840 N1835 0.984 . S
H1841 N1835 0.985 . S
H1842 N1839 0.984 . S
H1843 N1839 0.985 . S
H1844 N1838 0.984 . S
H1845 N1838 0.984 . S
H1846 N1834 0.984 . S
H1847 N1834 0.985 . S
C1848 C1849 1.363 . S
C1848 C1854 1.379 1_655 S
C1848 N1856 1.356 . S
C1849 C1848 1.363 . S
C1849 C1855 1.363 . S
C1850 C1851 1.363 . S
C1850 C1855 1.379 1_455 S
C1850 N1857 1.356 1_556 S
C1851 C1850 1.363 . S
C1851 C1854 1.363 . S
N1852 C1854 1.356 . S
N1852 H1864 0.984 . S
N1852 H1865 0.985 . S
N1853 C1855 1.356 1_554 S
N1853 H1858 0.984 1_554 S
N1853 H1859 0.985 . S
C1854 C1848 1.379 1_455 S
C1854 C1851 1.363 . S
C1854 N1852 1.356 . S
C1855 C1849 1.363 . S
C1855 C1850 1.379 1_655 S
C1855 N1853 1.356 1_556 S
N1856 C1848 1.356 . S
N1856 H1862 0.984 . S
N1856 H1863 0.984 . S
N1857 C1850 1.356 1_554 S
N1857 H1860 0.984 1_554 S
N1857 H1861 0.985 . S
H1858 N1853 0.984 1_556 S
H1859 N1853 0.985 . S
H1860 N1857 0.984 1_556 S
H1861 N1857 0.985 . S
H1862 N1856 0.984 . S
H1863 N1856 0.984 . S
H1864 N1852 0.984 . S
H1865 N1852 0.985 . S
C1866 C1867 1.363 . S
C1866 C1872 1.379 . S
C1866 N1874 1.356 . S
C1867 C1866 1.363 . S
C1867 C1873 1.363 . S
C1868 C1869 1.363 . S
C1868 C1873 1.379 . S
C1868 N1875 1.356 . S
C1869 C1868 1.363 . S
C1869 C1872 1.363 . S
N1870 C1872 1.356 . S
N1870 H1882 0.984 . S
N1870 H1883 0.985 . S
N1871 C1873 1.356 . S
N1871 H1876 0.984 . S
N1871 H1877 0.985 . S
C1872 C1866 1.379 . S
C1872 C1869 1.363 . S
C1872 N1870 1.356 . S
C1873 C1867 1.363 . S
C1873 C1868 1.379 . S
C1873 N1871 1.356 . S
N1874 C1866 1.356 . S
N1874 H1880 0.984 . S
N1874 H1881 0.984 . S
N1875 C1868 1.356 . S
N1875 H1878 0.984 . S
N1875 H1879 0.985 . S
H1876 N1871 0.984 . S
H1877 N1871 0.985 . S
H1878 N1875 0.984 . S
H1879 N1875 0.985 . S
H1880 N1874 0.984 . S
H1881 N1874 0.984 . S
H1882 N1870 0.984 . S
H1883 N1870 0.985 . S
C1884 C1885 1.363 . S
C1884 C1890 1.379 . S
C1884 N1892 1.356 . S
C1885 C1884 1.363 . S
C1885 C1891 1.363 . S
C1886 C1887 1.363 . S
C1886 C1891 1.379 . S
C1886 N1893 1.356 . S
C1887 C1886 1.363 . S
C1887 C1890 1.363 . S
N1888 C1890 1.356 . S
N1888 H1900 0.984 . S
N1888 H1901 0.985 . S
N1889 C1891 1.356 . S
N1889 H1894 0.984 . S
N1889 H1895 0.985 . S
C1890 C1884 1.379 . S
C1890 C1887 1.363 . S
C1890 N1888 1.356 . S
C1891 C1885 1.363 . S
C1891 C1886 1.379 . S
C1891 N1889 1.356 . S
N1892 C1884 1.356 . S
N1892 H1898 0.984 . S
N1892 H1899 0.984 . S
N1893 C1886 1.356 . S
N1893 H1896 0.984 . S
N1893 H1897 0.985 . S
H1894 N1889 0.984 . S
H1895 N1889 0.985 . S
H1896 N1893 0.984 . S
H1897 N1893 0.985 . S
H1898 N1892 0.984 . S
H1899 N1892 0.984 . S
H1900 N1888 0.984 . S
H1901 N1888 0.985 . S
C1902 C1903 1.363 . S
C1902 C1908 1.379 1_455 S
C1902 N1910 1.356 . S
C1903 C1902 1.363 . S
C1903 C1909 1.363 . S
C1904 C1905 1.363 . S
C1904 C1909 1.379 1_655 S
C1904 N1911 1.356 1_554 S
C1905 C1904 1.363 . S
C1905 C1908 1.363 . S
N1906 C1908 1.356 . S
N1906 H1918 0.984 . S
N1906 H1919 0.985 . S
N1907 C1909 1.356 1_556 S
N1907 H1912 0.984 . S
N1907 H1913 0.985 . S
C1908 C1902 1.379 1_655 S
C1908 C1905 1.363 . S
C1908 N1906 1.356 . S
C1909 C1903 1.363 . S
C1909 C1904 1.379 1_455 S
C1909 N1907 1.356 1_554 S
N1910 C1902 1.356 . S
N1910 H1916 0.984 . S
N1910 H1917 0.984 . S
N1911 C1904 1.356 1_556 S
N1911 H1914 0.984 . S
N1911 H1915 0.985 . S
H1912 N1907 0.984 . S
H1913 N1907 0.985 . S
H1914 N1911 0.984 . S
H1915 N1911 0.985 . S
H1916 N1910 0.984 . S
H1917 N1910 0.984 . S
H1918 N1906 0.984 . S
H1919 N1906 0.985 . S
C1920 C1921 1.363 . S
C1920 C1926 1.379 . S
C1920 N1928 1.356 . S
C1921 C1920 1.363 . S
C1921 C1927 1.363 1_554 S
C1922 C1923 1.363 . S
C1922 C1927 1.379 . S
C1922 N1929 1.356 . S
C1923 C1922 1.363 . S
C1923 C1926 1.363 1_556 S
N1924 C1926 1.356 . S
N1924 H1936 0.984 . S
N1924 H1937 0.985 1_554 S
N1925 C1927 1.356 . S
N1925 H1930 0.984 1_556 S
N1925 H1931 0.985 . S
C1926 C1920 1.379 . S
C1926 C1923 1.363 1_554 S
C1926 N1924 1.356 . S
C1927 C1921 1.363 1_556 S
C1927 C1922 1.379 . S
C1927 N1925 1.356 . S
N1928 C1920 1.356 . S
N1928 H1934 0.984 . S
N1928 H1935 0.984 . S
N1929 C1922 1.356 . S
N1929 H1932 0.984 . S
N1929 H1933 0.985 . S
H1930 N1925 0.984 1_554 S
H1931 N1925 0.985 . S
H1932 N1929 0.984 . S
H1933 N1929 0.985 . S
H1934 N1928 0.984 . S
H1935 N1928 0.984 . S
H1936 N1924 0.984 . S
H1937 N1924 0.985 1_556 S
C1938 C1939 1.363 . S
C1938 C1944 1.379 . S
C1938 N1946 1.356 . S
C1939 C1938 1.363 . S
C1939 C1945 1.363 . S
C1940 C1941 1.363 . S
C1940 C1945 1.379 . S
C1940 N1947 1.356 . S
C1941 C1940 1.363 . S
C1941 C1944 1.363 . S
N1942 C1944 1.356 . S
N1942 H1954 0.984 . S
N1942 H1955 0.985 . S
N1943 C1945 1.356 . S
N1943 H1948 0.984 . S
N1943 H1949 0.985 . S
C1944 C1938 1.379 . S
C1944 C1941 1.363 . S
C1944 N1942 1.356 . S
C1945 C1939 1.363 . S
C1945 C1940 1.379 . S
C1945 N1943 1.356 . S
N1946 C1938 1.356 . S
N1946 H1952 0.984 . S
N1946 H1953 0.984 . S
N1947 C1940 1.356 . S
N1947 H1950 0.984 . S
N1947 H1951 0.985 . S
H1948 N1943 0.984 . S
H1949 N1943 0.985 . S
H1950 N1947 0.984 . S
H1951 N1947 0.985 . S
H1952 N1946 0.984 . S
H1953 N1946 0.984 . S
H1954 N1942 0.984 . S
H1955 N1942 0.985 . S
C1956 C1957 1.363 . S
C1956 C1962 1.379 . S
C1956 N1964 1.356 . S
C1957 C1956 1.363 . S
C1957 C1963 1.363 . S
C1958 C1959 1.363 . S
C1958 C1963 1.379 . S
C1958 N1965 1.356 . S
C1959 C1958 1.363 . S
C1959 C1962 1.363 . S
N1960 C1962 1.356 . S
N1960 H1972 0.984 . S
N1960 H1973 0.985 . S
N1961 C1963 1.356 . S
N1961 H1966 0.984 . S
N1961 H1967 0.985 . S
C1962 C1956 1.379 . S
C1962 C1959 1.363 . S
C1962 N1960 1.356 . S
C1963 C1957 1.363 . S
C1963 C1958 1.379 . S
C1963 N1961 1.356 . S
N1964 C1956 1.356 . S
N1964 H1970 0.984 . S
N1964 H1971 0.984 . S
N1965 C1958 1.356 . S
N1965 H1968 0.984 . S
N1965 H1969 0.985 . S
H1966 N1961 0.984 . S
H1967 N1961 0.985 . S
H1968 N1965 0.984 . S
H1969 N1965 0.985 . S
H1970 N1964 0.984 . S
H1971 N1964 0.984 . S
H1972 N1960 0.984 . S
H1973 N1960 0.985 . S
C1974 C1975 1.363 . S
C1974 C1980 1.379 . S
C1974 N1982 1.356 . S
C1975 C1974 1.363 . S
C1975 C1981 1.363 . S
C1976 C1977 1.363 . S
C1976 C1981 1.379 . S
C1976 N1983 1.356 . S
C1977 C1976 1.363 . S
C1977 C1980 1.363 . S
N1978 C1980 1.356 . S
N1978 H1990 0.984 . S
N1978 H1991 0.985 . S
N1979 C1981 1.356 . S
N1979 H1984 0.984 . S
N1979 H1985 0.985 . S
C1980 C1974 1.379 . S
C1980 C1977 1.363 . S
C1980 N1978 1.356 . S
C1981 C1975 1.363 . S
C1981 C1976 1.379 . S
C1981 N1979 1.356 . S
N1982 C1974 1.356 . S
N1982 H1988 0.984 . S
N1982 H1989 0.984 . S
N1983 C1976 1.356 . S
N1983 H1986 0.984 . S
N1983 H1987 0.985 . S
H1984 N1979 0.984 . S
H1985 N1979 0.985 . S
H1986 N1983 0.984 . S
H1987 N1983 0.985 . S
H1988 N1982 0.984 . S
H1989 N1982 0.984 . S
H1990 N1978 0.984 . S
H1991 N1978 0.985 . S
C1992 C1993 1.363 . S
C1992 C1998 1.379 . S
C1992 N2000 1.356 . S
C1993 C1992 1.363 . S
C1993 C1999 1.363 1_554 S
C1994 C1995 1.363 . S
C1994 C1999 1.379 . S
C1994 N2001 1.356 . S
C1995 C1994 1.363 . S
C1995 C1998 1.363 1_556 S
N1996 C1998 1.356 . S
N1996 H2008 0.984 . S
N1996 H2009 0.985 1_554 S
N1997 C1999 1.356 . S
N1997 H2002 0.984 1_556 S
N1997 H2003 0.985 . S
C1998 C1992 1.379 . S
C1998 C1995 1.363 1_554 S
C1998 N1996 1.356 . S
C1999 C1993 1.363 1_556 S
C1999 C1994 1.379 . S
C1999 N1997 1.356 . S
N2000 C1992 1.356 . S
N2000 H2006 0.984 . S
N2000 H2007 0.984 . S
N2001 C1994 1.356 . S
N2001 H2004 0.984 . S
N2001 H2005 0.985 . S
H2002 N1997 0.984 1_554 S
H2003 N1997 0.985 . S
H2004 N2001 0.984 . S
H2005 N2001 0.985 . S
H2006 N2000 0.984 . S
H2007 N2000 0.984 . S
H2008 N1996 0.984 . S
H2009 N1996 0.985 1_556 S
C2010 C2011 1.363 . S
C2010 C2016 1.379 . S
C2010 N2018 1.356 . S
C2011 C2010 1.363 . S
C2011 C2017 1.363 . S
C2012 C2013 1.363 . S
C2012 C2017 1.379 . S
C2012 N2019 1.356 . S
C2013 C2012 1.363 . S
C2013 C2016 1.363 . S
N2014 C2016 1.356 . S
N2014 H2026 0.984 . S
N2014 H2027 0.985 . S
N2015 C2017 1.356 . S
N2015 H2020 0.984 . S
N2015 H2021 0.985 . S
C2016 C2010 1.379 . S
C2016 C2013 1.363 . S
C2016 N2014 1.356 . S
C2017 C2011 1.363 . S
C2017 C2012 1.379 . S
C2017 N2015 1.356 . S
N2018 C2010 1.356 . S
N2018 H2024 0.984 . S
N2018 H2025 0.984 . S
N2019 C2012 1.356 . S
N2019 H2022 0.984 . S
N2019 H2023 0.985 . S
H2020 N2015 0.984 . S
H2021 N2015 0.985 . S
H2022 N2019 0.984 . S
H2023 N2019 0.985 . S
H2024 N2018 0.984 . S
H2025 N2018 0.984 . S
H2026 N2014 0.984 . S
H2027 N2014 0.985 . S
C2028 C2029 1.363 . S
C2028 C2034 1.379 . S
C2028 N2036 1.356 . S
C2029 C2028 1.363 . S
C2029 C2035 1.363 . S
C2030 C2031 1.363 . S
C2030 C2035 1.379 . S
C2030 N2037 1.356 . S
C2031 C2030 1.363 . S
C2031 C2034 1.363 . S
N2032 C2034 1.356 . S
N2032 H2044 0.984 . S
N2032 H2045 0.985 . S
N2033 C2035 1.356 . S
N2033 H2038 0.984 . S
N2033 H2039 0.985 . S
C2034 C2028 1.379 . S
C2034 C2031 1.363 . S
C2034 N2032 1.356 . S
C2035 C2029 1.363 . S
C2035 C2030 1.379 . S
C2035 N2033 1.356 . S
N2036 C2028 1.356 . S
N2036 H2042 0.984 . S
N2036 H2043 0.984 . S
N2037 C2030 1.356 . S
N2037 H2040 0.984 . S
N2037 H2041 0.985 . S
H2038 N2033 0.984 . S
H2039 N2033 0.985 . S
H2040 N2037 0.984 . S
H2041 N2037 0.985 . S
H2042 N2036 0.984 . S
H2043 N2036 0.984 . S
H2044 N2032 0.984 . S
H2045 N2032 0.985 . S
C2046 C2047 1.363 . S
C2046 C2052 1.379 . S
C2046 N2054 1.356 . S
C2047 C2046 1.363 . S
C2047 C2053 1.363 . S
C2048 C2049 1.363 . S
C2048 C2053 1.379 . S
C2048 N2055 1.356 . S
C2049 C2048 1.363 . S
C2049 C2052 1.363 . S
N2050 C2052 1.356 . S
N2050 H2062 0.984 . S
N2050 H2063 0.985 . S
N2051 C2053 1.356 . S
N2051 H2056 0.984 . S
N2051 H2057 0.985 . S
C2052 C2046 1.379 . S
C2052 C2049 1.363 . S
C2052 N2050 1.356 . S
C2053 C2047 1.363 . S
C2053 C2048 1.379 . S
C2053 N2051 1.356 . S
N2054 C2046 1.356 . S
N2054 H2060 0.984 . S
N2054 H2061 0.984 . S
N2055 C2048 1.356 . S
N2055 H2058 0.984 . S
N2055 H2059 0.985 . S
H2056 N2051 0.984 . S
H2057 N2051 0.985 . S
H2058 N2055 0.984 . S
H2059 N2055 0.985 . S
H2060 N2054 0.984 . S
H2061 N2054 0.984 . S
H2062 N2050 0.984 . S
H2063 N2050 0.985 . S
C2064 C2065 1.363 . S
C2064 C2070 1.379 1_565 S
C2064 N2072 1.356 . S
C2065 C2064 1.363 . S
C2065 C2071 1.363 . S
C2066 C2067 1.363 . S
C2066 C2071 1.379 1_545 S
C2066 N2073 1.356 . S
C2067 C2066 1.363 . S
C2067 C2070 1.363 . S
N2068 C2070 1.356 . S
N2068 H2080 0.984 . S
N2068 H2081 0.985 . S
N2069 C2071 1.356 . S
N2069 H2074 0.984 . S
N2069 H2075 0.985 . S
C2070 C2064 1.379 1_545 S
C2070 C2067 1.363 . S
C2070 N2068 1.356 . S
C2071 C2065 1.363 . S
C2071 C2066 1.379 1_565 S
C2071 N2069 1.356 . S
N2072 C2064 1.356 . S
N2072 H2078 0.984 . S
N2072 H2079 0.984 . S
N2073 C2066 1.356 . S
N2073 H2076 0.984 . S
N2073 H2077 0.985 . S
H2074 N2069 0.984 . S
H2075 N2069 0.985 . S
H2076 N2073 0.984 . S
H2077 N2073 0.985 . S
H2078 N2072 0.984 . S
H2079 N2072 0.984 . S
H2080 N2068 0.984 . S
H2081 N2068 0.985 . S
C2082 C2083 1.363 . S
C2082 C2088 1.379 . S
C2082 N2090 1.356 . S
C2083 C2082 1.363 . S
C2083 C2089 1.363 . S
C2084 C2085 1.363 . S
C2084 C2089 1.379 . S
C2084 N2091 1.356 . S
C2085 C2084 1.363 . S
C2085 C2088 1.363 . S
N2086 C2088 1.356 . S
N2086 H2098 0.984 . S
N2086 H2099 0.985 . S
N2087 C2089 1.356 . S
N2087 H2092 0.984 . S
N2087 H2093 0.985 . S
C2088 C2082 1.379 . S
C2088 C2085 1.363 . S
C2088 N2086 1.356 . S
C2089 C2083 1.363 . S
C2089 C2084 1.379 . S
C2089 N2087 1.356 . S
N2090 C2082 1.356 . S
N2090 H2096 0.984 . S
N2090 H2097 0.984 . S
N2091 C2084 1.356 . S
N2091 H2094 0.984 . S
N2091 H2095 0.985 . S
H2092 N2087 0.984 . S
H2093 N2087 0.985 . S
H2094 N2091 0.984 . S
H2095 N2091 0.985 . S
H2096 N2090 0.984 . S
H2097 N2090 0.984 . S
H2098 N2086 0.984 . S
H2099 N2086 0.985 . S
C2100 C2101 1.363 1_545 S
C2100 C2106 1.379 . S
C2100 N2108 1.356 1_545 S
C2101 C2100 1.363 1_565 S
C2101 C2107 1.363 1_554 S
C2102 C2103 1.363 . S
C2102 C2107 1.379 1_545 S
C2102 N2109 1.356 . S
C2103 C2102 1.363 . S
C2103 C2106 1.363 1_556 S
N2104 C2106 1.356 . S
N2104 H2116 0.984 . S
N2104 H2117 0.985 1_554 S
N2105 C2107 1.356 1_554 S
N2105 H2110 0.984 . S
N2105 H2111 0.985 1_554 S
C2106 C2100 1.379 . S
C2106 C2103 1.363 1_554 S
C2106 N2104 1.356 . S
C2107 C2101 1.363 1_556 S
C2107 C2102 1.379 1_565 S
C2107 N2105 1.356 1_556 S
N2108 C2100 1.356 1_565 S
N2108 H2114 0.984 1_565 S
N2108 H2115 0.984 . S
N2109 C2102 1.356 . S
N2109 H2112 0.984 . S
N2109 H2113 0.985 . S
H2110 N2105 0.984 . S
H2111 N2105 0.985 1_556 S
H2112 N2109 0.984 . S
H2113 N2109 0.985 . S
H2114 N2108 0.984 1_545 S
H2115 N2108 0.984 . S
H2116 N2104 0.984 . S
H2117 N2104 0.985 1_556 S
C2118 C2119 1.363 . S
C2118 C2124 1.379 . S
C2118 N2126 1.356 . S
C2119 C2118 1.363 . S
C2119 C2125 1.363 . S
C2120 C2121 1.363 . S
C2120 C2125 1.379 . S
C2120 N2127 1.356 . S
C2121 C2120 1.363 . S
C2121 C2124 1.363 . S
N2122 C2124 1.356 . S
N2122 H2134 0.984 . S
N2122 H2135 0.985 . S
N2123 C2125 1.356 . S
N2123 H2128 0.984 . S
N2123 H2129 0.985 . S
C2124 C2118 1.379 . S
C2124 C2121 1.363 . S
C2124 N2122 1.356 . S
C2125 C2119 1.363 . S
C2125 C2120 1.379 . S
C2125 N2123 1.356 . S
N2126 C2118 1.356 . S
N2126 H2132 0.984 . S
N2126 H2133 0.984 . S
N2127 C2120 1.356 . S
N2127 H2130 0.984 . S
N2127 H2131 0.985 . S
H2128 N2123 0.984 . S
H2129 N2123 0.985 . S
H2130 N2127 0.984 . S
H2131 N2127 0.985 . S
H2132 N2126 0.984 . S
H2133 N2126 0.984 . S
H2134 N2122 0.984 . S
H2135 N2122 0.985 . S
C2136 C2137 1.363 . S
C2136 C2142 1.379 1_565 S
C2136 N2144 1.356 . S
C2137 C2136 1.363 . S
C2137 C2143 1.363 . S
C2138 C2139 1.363 1_565 S
C2138 C2143 1.379 . S
C2138 N2145 1.356 1_565 S
C2139 C2138 1.363 1_545 S
C2139 C2142 1.363 . S
N2140 C2142 1.356 . S
N2140 H2152 0.984 . S
N2140 H2153 0.985 . S
N2141 C2143 1.356 . S
N2141 H2146 0.984 . S
N2141 H2147 0.985 . S
C2142 C2136 1.379 1_545 S
C2142 C2139 1.363 . S
C2142 N2140 1.356 . S
C2143 C2137 1.363 . S
C2143 C2138 1.379 . S
C2143 N2141 1.356 . S
N2144 C2136 1.356 . S
N2144 H2150 0.984 1_565 S
N2144 H2151 0.984 . S
N2145 C2138 1.356 1_545 S
N2145 H2148 0.984 . S
N2145 H2149 0.985 1_545 S
H2146 N2141 0.984 . S
H2147 N2141 0.985 . S
H2148 N2145 0.984 . S
H2149 N2145 0.985 1_565 S
H2150 N2144 0.984 1_545 S
H2151 N2144 0.984 . S
H2152 N2140 0.984 . S
H2153 N2140 0.985 . S
C2154 C2155 1.363 . S
C2154 C2160 1.379 . S
C2154 N2162 1.356 . S
C2155 C2154 1.363 . S
C2155 C2161 1.363 . S
C2156 C2157 1.363 . S
C2156 C2161 1.379 . S
C2156 N2163 1.356 . S
C2157 C2156 1.363 . S
C2157 C2160 1.363 . S
N2158 C2160 1.356 . S
N2158 H2170 0.984 . S
N2158 H2171 0.985 . S
N2159 C2161 1.356 . S
N2159 H2164 0.984 . S
N2159 H2165 0.985 . S
C2160 C2154 1.379 . S
C2160 C2157 1.363 . S
C2160 N2158 1.356 . S
C2161 C2155 1.363 . S
C2161 C2156 1.379 . S
C2161 N2159 1.356 . S
N2162 C2154 1.356 . S
N2162 H2168 0.984 . S
N2162 H2169 0.984 . S
N2163 C2156 1.356 . S
N2163 H2166 0.984 . S
N2163 H2167 0.985 . S
H2164 N2159 0.984 . S
H2165 N2159 0.985 . S
H2166 N2163 0.984 . S
H2167 N2163 0.985 . S
H2168 N2162 0.984 . S
H2169 N2162 0.984 . S
H2170 N2158 0.984 . S
H2171 N2158 0.985 . S
C2172 C2173 1.358 1_554 S
C2172 C2178 1.384 1_545 S
C2172 N2180 1.355 1_554 S
C2173 C2172 1.358 1_556 S
C2173 C2179 1.363 . S
C2174 C2175 1.363 . S
C2174 C2179 1.379 1_564 S
C2174 N2181 1.356 . S
C2175 C2174 1.363 . S
C2175 C2178 1.363 . S
N2176 C2178 1.356 . S
N2176 H2188 0.984 . S
N2176 H2189 0.985 . S
N2177 C2179 1.356 . S
N2177 H2182 0.984 . S
N2177 H2183 0.985 . S
C2178 C2172 1.384 1_565 S
C2178 C2175 1.363 . S
C2178 N2176 1.356 . S
C2179 C2173 1.363 . S
C2179 C2174 1.379 1_546 S
C2179 N2177 1.356 . S
N2180 C2172 1.355 1_556 S
N2180 H2186 0.984 1_556 S
N2180 H2187 0.984 . S
N2181 C2174 1.356 . S
N2181 H2184 0.984 . S
N2181 H2185 0.985 1_554 S
H2182 N2177 0.984 . S
H2183 N2177 0.985 . S
H2184 N2181 0.984 . S
H2185 N2181 0.985 1_556 S
H2186 N2180 0.984 1_554 S
H2187 N2180 0.984 . S
H2188 N2176 0.984 . S
H2189 N2176 0.985 . S
C2190 C2191 1.363 . S
C2190 C2196 1.379 . S
C2190 N2198 1.356 . S
C2191 C2190 1.363 . S
C2191 C2197 1.363 . S
C2192 C2193 1.363 . S
C2192 C2197 1.379 . S
C2192 N2199 1.356 . S
C2193 C2192 1.363 . S
C2193 C2196 1.363 . S
N2194 C2196 1.356 . S
N2194 H2206 0.984 . S
N2194 H2207 0.985 . S
N2195 C2197 1.356 . S
N2195 H2200 0.984 . S
N2195 H2201 0.985 . S
C2196 C2190 1.379 . S
C2196 C2193 1.363 . S
C2196 N2194 1.356 . S
C2197 C2191 1.363 . S
C2197 C2192 1.379 . S
C2197 N2195 1.356 . S
N2198 C2190 1.356 . S
N2198 H2204 0.984 . S
N2198 H2205 0.984 . S
N2199 C2192 1.356 . S
N2199 H2202 0.984 . S
N2199 H2203 0.985 . S
H2200 N2195 0.984 . S
H2201 N2195 0.985 . S
H2202 N2199 0.984 . S
H2203 N2199 0.985 . S
H2204 N2198 0.984 . S
H2205 N2198 0.984 . S
H2206 N2194 0.984 . S
H2207 N2194 0.985 . S
C1345 C58 1.381 . S
C1347 C70 1.381 . S
C1363 C154 1.361 . S
C1365 C142 1.361 . S
C1381 C226 1.347 . S
C1383 C238 1.347 . S
C1399 C310 1.351 . S
C1401 C322 1.351 . S
C1417 C394 1.367 . S
C1419 C406 1.367 . S
C1435 C478 1.356 . S
C1437 C490 1.356 . S
C1453 C574 1.357 . S
C1455 C562 1.357 . S
C1471 C658 1.382 . S
C1473 C646 1.382 . S
C1489 C742 1.380 . S
C1491 C730 1.380 . S
C1507 C826 1.361 . S
C1509 C814 1.361 . S
C1525 C910 1.353 . S
C1527 C898 1.353 . S
C1543 C994 1.357 . S
C1545 C982 1.357 . S
C1561 C1078 1.364 . S
C1563 C1066 1.364 . S
C1579 C1162 1.352 . S
C1581 C1150 1.352 . S
C1597 C1234 1.354 . S
C1599 C1246 1.347 1_554 S
C1615 C1330 1.391 . S
C1617 C1318 1.391 . S
C1633 C74 1.738 . S
C1635 C991 1.816 . S
C1651 C140 1.797 . S
C1653 C1323 1.721 . S
C1669 C242 1.723 . S
C1671 C819 1.718 . S
C1687 C326 1.694 . S
C1689 C1155 1.700 . S
C1705 C410 1.743 . S
C1707 C1159 1.818 . S
C1723 C987 1.719 . S
C1725 C476 1.794 . S
C1741 C560 1.848 . S
C1743 C1327 1.854 . S
C1759 C644 1.835 . S
C1761 C823 1.829 . S
C1777 C308 1.768 . S
C1779 C735 1.696 . S
C1795 C158 1.732 . S
C1797 C907 1.811 . S
C1813 C1071 1.679 . S
C1815 C494 1.679 . S
C1831 C662 1.745 . S
C1833 C1243 1.821 . S
C1849 C739 1.875 . S
C1851 C392 1.877 . S
C1867 C578 1.704 . S
C1869 C903 1.706 . S
C1885 C224 1.836 . S
C1887 C1239 1.757 . S
C1903 C56 1.823 . S
C1905 C1075 1.822 . S
C1921 C63 1.634 . S
C1923 C399 1.640 . S
C1939 C151 1.542 . S
C1941 C487 1.552 . S
C1957 C231 1.715 . S
C1959 C571 1.589 . S
C1975 C315 1.644 . S
C1977 C655 1.518 . S
C1993 C1082 1.596 . S
C1995 C746 1.592 . S
C2011 C1166 1.688 . S
C2013 C812 1.562 . S
C2029 C896 1.589 . S
C2031 C1232 1.586 . S
C2047 C1334 1.631 . S
C2049 C998 1.641 . S
C2065 C147 1.653 . S
C2067 C651 1.644 . S
C2083 C403 1.589 . S
C2085 C235 1.600 . S
C2101 C483 1.664 . S
C2103 C319 1.543 . S
C2119 C67 1.514 . S
C2121 C567 1.632 . S
C2137 C1316 1.530 . S
C2139 C830 1.645 . S
C2155 C1064 1.547 . S
C2157 C914 1.680 . S
C2173 C1148 1.578 . S
C2175 C980 1.571 . S
C2191 C1250 1.689 . S
C2193 C728 1.563 . S
