# Generated by pormake.
# Topology crs, (6)-cn, num edge types: 1
# Building blocks:
#     Node 0, Type 0, BuildingBlock: BETDIP_clean_sbu_0, # of connection points: 6
#     Node 1, Type 0, BuildingBlock: BETDIP_clean_sbu_0, # of connection points: 6
#     Node 2, Type 0, BuildingBlock: BETDIP_clean_sbu_0, # of connection points: 6
#     Node 3, Type 0, BuildingBlock: BETDIP_clean_sbu_0, # of connection points: 6
#     Node 4, Type 0, BuildingBlock: BETDIP_clean_sbu_0, # of connection points: 6
#     Node 5, Type 0, BuildingBlock: BETDIP_clean_sbu_0, # of connection points: 6
#     Node 6, Type 0, BuildingBlock: BETDIP_clean_sbu_0, # of connection points: 6
#     Node 7, Type 0, BuildingBlock: BETDIP_clean_sbu_0, # of connection points: 6
#     Node 8, Type 0, BuildingBlock: BETDIP_clean_sbu_0, # of connection points: 6
#     Node 9, Type 0, BuildingBlock: BETDIP_clean_sbu_0, # of connection points: 6
#     Node 10, Type 0, BuildingBlock: BETDIP_clean_sbu_0, # of connection points: 6
#     Node 11, Type 0, BuildingBlock: BETDIP_clean_sbu_0, # of connection points: 6
#     Node 12, Type 0, BuildingBlock: BETDIP_clean_sbu_0, # of connection points: 6
#     Node 13, Type 0, BuildingBlock: BETDIP_clean_sbu_0, # of connection points: 6
#     Node 14, Type 0, BuildingBlock: BETDIP_clean_sbu_0, # of connection points: 6
#     Node 15, Type 0, BuildingBlock: BETDIP_clean_sbu_0, # of connection points: 6
#     Edge 16, Type (0, 0), BuildingBlock: AJUNOK_clean_linker_0, # of connection points: 2
#     Edge 17, Type (0, 0), BuildingBlock: AJUNOK_clean_linker_0, # of connection points: 2
#     Edge 18, Type (0, 0), BuildingBlock: AJUNOK_clean_linker_0, # of connection points: 2
#     Edge 19, Type (0, 0), BuildingBlock: AJUNOK_clean_linker_0, # of connection points: 2
#     Edge 20, Type (0, 0), BuildingBlock: AJUNOK_clean_linker_0, # of connection points: 2
#     Edge 21, Type (0, 0), BuildingBlock: AJUNOK_clean_linker_0, # of connection points: 2
#     Edge 22, Type (0, 0), BuildingBlock: AJUNOK_clean_linker_0, # of connection points: 2
#     Edge 23, Type (0, 0), BuildingBlock: AJUNOK_clean_linker_0, # of connection points: 2
#     Edge 24, Type (0, 0), BuildingBlock: AJUNOK_clean_linker_0, # of connection points: 2
#     Edge 25, Type (0, 0), BuildingBlock: AJUNOK_clean_linker_0, # of connection points: 2
#     Edge 26, Type (0, 0), BuildingBlock: AJUNOK_clean_linker_0, # of connection points: 2
#     Edge 27, Type (0, 0), BuildingBlock: AJUNOK_clean_linker_0, # of connection points: 2
#     Edge 28, Type (0, 0), BuildingBlock: AJUNOK_clean_linker_0, # of connection points: 2
#     Edge 29, Type (0, 0), BuildingBlock: AJUNOK_clean_linker_0, # of connection points: 2
#     Edge 30, Type (0, 0), BuildingBlock: AJUNOK_clean_linker_0, # of connection points: 2
#     Edge 31, Type (0, 0), BuildingBlock: AJUNOK_clean_linker_0, # of connection points: 2
#     Edge 32, Type (0, 0), BuildingBlock: AJUNOK_clean_linker_0, # of connection points: 2
#     Edge 33, Type (0, 0), BuildingBlock: AJUNOK_clean_linker_0, # of connection points: 2
#     Edge 34, Type (0, 0), BuildingBlock: AJUNOK_clean_linker_0, # of connection points: 2
#     Edge 35, Type (0, 0), BuildingBlock: AJUNOK_clean_linker_0, # of connection points: 2
#     Edge 36, Type (0, 0), BuildingBlock: AJUNOK_clean_linker_0, # of connection points: 2
#     Edge 37, Type (0, 0), BuildingBlock: AJUNOK_clean_linker_0, # of connection points: 2
#     Edge 38, Type (0, 0), BuildingBlock: AJUNOK_clean_linker_0, # of connection points: 2
#     Edge 39, Type (0, 0), BuildingBlock: AJUNOK_clean_linker_0, # of connection points: 2
#     Edge 40, Type (0, 0), BuildingBlock: AJUNOK_clean_linker_0, # of connection points: 2
#     Edge 41, Type (0, 0), BuildingBlock: AJUNOK_clean_linker_0, # of connection points: 2
#     Edge 42, Type (0, 0), BuildingBlock: AJUNOK_clean_linker_0, # of connection points: 2
#     Edge 43, Type (0, 0), BuildingBlock: AJUNOK_clean_linker_0, # of connection points: 2
#     Edge 44, Type (0, 0), BuildingBlock: AJUNOK_clean_linker_0, # of connection points: 2
#     Edge 45, Type (0, 0), BuildingBlock: AJUNOK_clean_linker_0, # of connection points: 2
#     Edge 46, Type (0, 0), BuildingBlock: AJUNOK_clean_linker_0, # of connection points: 2
#     Edge 47, Type (0, 0), BuildingBlock: AJUNOK_clean_linker_0, # of connection points: 2
#     Edge 48, Type (0, 0), BuildingBlock: AJUNOK_clean_linker_0, # of connection points: 2
#     Edge 49, Type (0, 0), BuildingBlock: AJUNOK_clean_linker_0, # of connection points: 2
#     Edge 50, Type (0, 0), BuildingBlock: AJUNOK_clean_linker_0, # of connection points: 2
#     Edge 51, Type (0, 0), BuildingBlock: AJUNOK_clean_linker_0, # of connection points: 2
#     Edge 52, Type (0, 0), BuildingBlock: AJUNOK_clean_linker_0, # of connection points: 2
#     Edge 53, Type (0, 0), BuildingBlock: AJUNOK_clean_linker_0, # of connection points: 2
#     Edge 54, Type (0, 0), BuildingBlock: AJUNOK_clean_linker_0, # of connection points: 2
#     Edge 55, Type (0, 0), BuildingBlock: AJUNOK_clean_linker_0, # of connection points: 2
#     Edge 56, Type (0, 0), BuildingBlock: AJUNOK_clean_linker_0, # of connection points: 2
#     Edge 57, Type (0, 0), BuildingBlock: AJUNOK_clean_linker_0, # of connection points: 2
#     Edge 58, Type (0, 0), BuildingBlock: AJUNOK_clean_linker_0, # of connection points: 2
#     Edge 59, Type (0, 0), BuildingBlock: AJUNOK_clean_linker_0, # of connection points: 2
#     Edge 60, Type (0, 0), BuildingBlock: AJUNOK_clean_linker_0, # of connection points: 2
#     Edge 61, Type (0, 0), BuildingBlock: AJUNOK_clean_linker_0, # of connection points: 2
#     Edge 62, Type (0, 0), BuildingBlock: AJUNOK_clean_linker_0, # of connection points: 2
#     Edge 63, Type (0, 0), BuildingBlock: AJUNOK_clean_linker_0, # of connection points: 2
# Relax obj value: 0.485
# Max RMSD: 0.360
# Mean RMSD: 0.356
data_MOF--net-crs--node1-BETDIP_clean_sbu_0--edge1-AJUNOK_clean_linker_0
_symmetry_space_group_name_H-M    P1
_symmetry_Int_Tables_number       1
_symmetry_cell_setting            triclinic
loop_
_symmetry_equiv_pos_as_xyz
'x, y, z'
_cell_length_a     30.321744
_cell_length_b     53.871819
_cell_length_c     32.525559
_cell_angle_alpha  90.122528
_cell_angle_beta   90.034088
_cell_angle_gamma 53.790985
loop_
_atom_site_label
_atom_site_type_symbol
_atom_site_fract_x
_atom_site_fract_y
_atom_site_fract_z
_atom_type_partial_charge
Tb0 Tb 0.93676 0.03002 0.04583 0.0
Tb1 Tb 0.01987 0.02661 0.98236 0.0
C2 C 0.85938 0.0324 0.07827 0.0
C3 C 0.84964 1.00868 0.08176 0.0
C4 C 0.81102 1.00965 0.05655 0.0
C5 C 0.80699 0.98509 0.05623 0.0
C6 C 0.84161 0.95921 0.08113 0.0
C7 C 0.87806 0.95907 0.10787 0.0
C8 C 0.88203 0.98348 0.10824 0.0
C9 C 0.02539 1.01971 0.08432 0.0
C10 C 0.02028 0.968 0.99546 0.0
C11 C 0.09992 1.02303 0.9534 0.0
C12 C 0.11651 0.04376 0.95673 0.0
C13 C 0.13407 0.04824 0.99422 0.0
C14 C 0.13526 0.07364 0.99932 0.0
C15 C 0.11758 0.09504 0.96746 0.0
C16 C 0.10576 0.08876 0.92884 0.0
C17 C 0.10592 0.0631 0.92337 0.0
C18 C 0.93308 0.03629 0.942 0.0
C19 C 0.93487 0.08853 0.03291 0.0
O20 O 0.85666 0.04282 0.04134 0.0
O21 O 0.9014 0.02689 0.09872 0.0
O22 O 0.01363 1.02288 0.04641 0.0
O23 O -0.01359 1.02048 0.10195 0.0
O24 O 0.97755 0.98387 0.0205 0.0
O25 O 0.04665 0.97893 0.98078 0.0
O26 O 0.10344 1.00791 0.98644 0.0
O27 O 0.05363 0.03525 0.93389 0.0
O28 O 0.94181 0.03438 0.98071 0.0
O29 O 0.97412 0.03413 0.92566 0.0
O30 O -0.02084 0.07255 1.00927 0.0
O31 O 0.90711 0.07791 0.04493 0.0
H32 H 0.78497 0.02901 0.03637 0.0
H33 H 0.77734 0.98619 0.03621 0.0
H34 H 0.90531 0.93943 0.12737 0.0
H35 H 0.91199 0.98196 0.12838 0.0
H36 H 0.14361 0.03335 0.02025 0.0
H37 H 0.14634 0.07771 0.02889 0.0
H38 H 0.09356 0.10463 0.90352 0.0
H39 H 0.09344 0.05978 0.89387 0.0
Tb40 Tb 0.00961 0.27627 0.2971 0.0
Tb41 Tb 0.94664 0.27587 0.23401 0.0
C42 C 0.03879 0.29112 0.35984 0.0
C43 C 0.04368 0.31557 0.37452 0.0
C44 C -0.00304 0.34591 0.38075 0.0
C45 C 0.00105 0.36763 0.40031 0.0
C46 C 0.05189 0.3597 0.41392 0.0
C47 C 0.09892 0.32979 0.40626 0.0
C48 C 0.09478 0.30791 0.38695 0.0
C49 C 0.05378 0.21818 0.27125 0.0
C50 C 0.91344 0.27035 0.32213 0.0
C51 C 0.91665 0.26286 0.16992 0.0
C52 C 0.91076 0.23949 0.15323 0.0
C53 C 0.9321 0.21165 0.17376 0.0
C54 C 0.93162 0.18839 0.15477 0.0
C55 C 0.90993 0.19261 0.11493 0.0
C56 C 0.88801 0.2207 0.09486 0.0
C57 C 0.88831 0.24391 0.11389 0.0
C58 C 0.90341 0.33384 0.26018 0.0
C59 C 0.043 0.28074 0.20802 0.0
O60 O -0.01055 0.29912 0.35359 0.0
O61 O 0.07294 0.2719 0.33178 0.0
O62 O 0.00346 0.23982 0.2762 0.0
O63 O 0.08038 0.22869 0.28352 0.0
O64 O 0.94373 0.27952 0.33351 0.0
O65 O 0.9154 0.26249 0.28329 0.0
O66 O 0.96666 0.25335 0.17725 0.0
O67 O 0.88299 0.28116 0.19886 0.0
O68 O 0.95346 0.31204 0.25491 0.0
O69 O 0.87626 0.32358 0.24817 0.0
O70 O 0.01121 0.27264 0.197 0.0
O71 O 0.0435 0.28772 0.24696 0.0
H72 H 0.95684 0.35275 0.37167 0.0
H73 H 0.96415 0.39058 0.40554 0.0
H74 H 0.13855 0.32297 0.41673 0.0
H75 H 0.13136 0.28466 0.383 0.0
H76 H 0.95044 0.2076 0.2039 0.0
H77 H 0.94977 0.16676 0.17068 0.0
H78 H 0.87107 0.2246 0.06422 0.0
H79 H 0.87225 0.2651 0.09735 0.0
Tb80 Tb 0.77092 0.27213 0.54148 0.0
Tb81 Tb 0.68246 0.27904 0.48698 0.0
C82 C 0.84148 0.27626 0.57304 0.0
C83 C 0.85282 0.2992 0.5682 0.0
C84 C 0.87677 0.30076 0.53219 0.0
C85 C 0.87892 0.32567 0.52565 0.0
C86 C 0.85704 0.34936 0.55496 0.0
C87 C 0.8359 0.34682 0.59183 0.0
C88 C 0.83422 0.32192 0.5985 0.0
C89 C 0.69294 0.27378 0.58221 0.0
C90 C 0.68531 0.33555 0.49202 0.0
C91 C 0.60093 0.28032 0.469 0.0
C92 C 0.58931 0.25846 0.48135 0.0
C93 C 0.60918 0.24276 0.51903 0.0
C94 C 0.61245 0.21612 0.52598 0.0
C95 C 0.59587 0.20496 0.49535 0.0
C96 C 0.57261 0.22173 0.45892 0.0
C97 C 0.56928 0.24837 0.45198 0.0
C98 C 0.76566 0.26747 0.4393 0.0
C99 C 0.77683 0.21391 0.52601 0.0
O100 O 0.85173 0.25837 0.5414 0.0
O101 O 0.79441 0.2869 0.59042 0.0
O102 O 0.68624 0.28969 0.55061 0.0
O103 O 0.7439 0.25784 0.59251 0.0
O104 O 0.72938 0.31866 0.51558 0.0
O105 O 0.65666 0.32573 0.47917 0.0
O106 O 0.60007 0.29753 0.49808 0.0
O107 O 0.64382 0.26811 0.44525 0.0
O108 O 0.76103 0.26928 0.47809 0.0
O109 O 0.7211 0.27196 0.42611 0.0
O110 O 0.72652 0.23245 0.51151 0.0
O111 O 0.80718 0.22368 0.53304 0.0
H112 H 0.89254 0.28325 0.50861 0.0
H113 H 0.89704 0.32655 0.49753 0.0
H114 H 0.8186 0.36474 0.61499 0.0
H115 H 0.81602 0.32118 0.6267 0.0
H116 H 0.62576 0.24976 0.54189 0.0
H117 H 0.63106 0.20322 0.55407 0.0
H118 H 0.5601 0.21317 0.43485 0.0
H119 H 0.55474 0.25981 0.4225 0.0
Tb120 Tb 0.68714 0.0291 0.7982 0.0
Tb121 Tb 0.7554 0.02936 0.73169 0.0
C122 C 0.65496 1.01564 0.86041 0.0
C123 C 0.65148 0.99141 0.87738 0.0
C124 C 0.67767 0.96242 0.85861 0.0
C125 C 0.67834 0.93891 0.87807 0.0
C126 C 0.65346 0.94392 0.91678 0.0
C127 C 0.62609 0.97326 0.93477 0.0
C128 C 0.62516 0.9967 0.91527 0.0
C129 C 0.64653 0.08605 0.7696 0.0
C130 C 0.78637 0.03239 0.82459 0.0
C131 C 0.78498 0.04765 0.67404 0.0
C132 C 0.78817 0.07247 0.65888 0.0
C133 C 0.7407 0.10157 0.64854 0.0
C134 C 0.74444 0.12273 0.62706 0.0
C135 C 0.79562 0.11535 0.61553 0.0
C136 C 0.84312 0.08678 0.62731 0.0
C137 C 0.83939 0.06552 0.64866 0.0
C138 C 0.79527 0.9701 0.74647 0.0
C139 C 0.66166 1.02222 0.70711 0.0
O140 O 0.70412 1.00833 0.85603 0.0
O141 O 0.62328 0.03193 0.82949 0.0
O142 O 0.69633 0.0637 0.77483 0.0
O143 O 0.6182 0.07689 0.7832 0.0
O144 O 0.74626 0.03066 0.83631 0.0
O145 O 0.7957 0.03362 0.78495 0.0
O146 O 0.73638 0.05372 0.67684 0.0
O147 O 0.81763 0.02993 0.70387 0.0
O148 O 0.75543 0.99433 0.76337 0.0
O149 O 0.8137 0.97924 0.71924 0.0
O150 O 0.68707 0.03467 0.69727 0.0
O151 O 0.66478 1.01278 0.74539 0.0
H152 H 0.69862 0.95776 0.8295 0.0
H153 H 0.69979 0.91652 0.86349 0.0
H154 H 0.60581 0.97799 0.96419 0.0
H155 H 0.60491 1.01886 0.93035 0.0
H156 H 0.70053 0.10768 0.65571 0.0
H157 H 0.70712 0.1447 0.6187 0.0
H158 H 0.88307 0.08032 0.61846 0.0
H159 H 0.87657 0.04309 0.65561 0.0
Tb160 Tb 0.51456 0.77507 0.30023 0.0
Tb161 Tb 0.44495 0.77596 0.23569 0.0
C162 C 0.55135 0.78759 0.36041 0.0
C163 C 0.55004 0.81397 0.37539 0.0
C164 C 0.50395 0.84433 0.36914 0.0
C165 C 0.50109 0.86898 0.38666 0.0
C166 C 0.54367 0.86381 0.41171 0.0
C167 C 0.59069 0.83348 0.41665 0.0
C168 C 0.59379 0.80878 0.39865 0.0
C169 C 0.55533 0.71827 0.27071 0.0
C170 C 0.41551 0.77219 0.32874 0.0
C171 C 0.41274 0.75854 0.17866 0.0
C172 C 0.40933 0.73354 0.16475 0.0
C173 C 0.45644 0.70314 0.16055 0.0
C174 C 0.45389 0.68118 0.14001 0.0
C175 C 0.40423 0.68905 0.12358 0.0
C176 C 0.35662 0.71895 0.12975 0.0
C177 C 0.35924 0.74103 0.15001 0.0
C178 C 0.40576 0.83539 0.2501 0.0
C179 C 0.53748 0.7834 0.20896 0.0
O180 O 0.50471 0.79132 0.36048 0.0
O181 O 0.57942 0.77371 0.32707 0.0
O182 O 0.50545 0.74026 0.27711 0.0
O183 O 0.58328 0.72791 0.2832 0.0
O184 O 0.45472 0.77491 0.33978 0.0
O185 O 0.40656 0.77042 0.28918 0.0
O186 O 0.46143 0.75244 0.1802 0.0
O187 O 0.38129 0.77611 0.20911 0.0
O188 O 0.44601 0.81119 0.26685 0.0
O189 O 0.385 0.82618 0.22516 0.0
O190 O 0.51125 0.77144 0.19904 0.0
O191 O 0.53545 0.79202 0.24753 0.0
H192 H 0.4695 0.84898 0.35154 0.0
H193 H 0.4649 0.89212 0.38128 0.0
H194 H 0.62415 0.82875 0.43571 0.0
H195 H 0.6297 0.78553 0.40398 0.0
H196 H 0.49569 0.6966 0.17158 0.0
H197 H 0.49113 0.65818 0.1359 0.0
H198 H 0.31795 0.72567 0.11712 0.0
H199 H 0.32248 0.76438 0.15249 0.0
Tb200 Tb 0.26903 0.77273 0.55394 0.0
Tb201 Tb 0.18255 0.7844 0.49563 0.0
C202 C 0.33352 0.7767 0.59653 0.0
C203 C 0.34662 0.79901 0.59738 0.0
C204 C 0.36063 0.80722 0.56142 0.0
C205 C 0.3642 0.83189 0.56165 0.0
C206 C 0.35273 0.84919 0.59765 0.0
C207 C 0.33984 0.84052 0.63383 0.0
C208 C 0.33747 0.81544 0.63377 0.0
C209 C 0.18462 0.77804 0.58922 0.0
C210 C 0.19202 0.83729 0.50712 0.0
C211 C 0.10028 0.78803 0.47133 0.0
C212 C 0.09696 0.76342 0.45638 0.0
C213 C 0.04971 0.76508 0.46348 0.0
C214 C 0.05019 0.73922 0.45709 0.0
C215 C 0.09813 0.71122 0.44382 0.0
C216 C 0.14475 0.71008 0.43526 0.0
C217 C 0.14407 0.73597 0.4413 0.0
C218 C 0.26921 0.7696 0.44951 0.0
C219 C 0.27234 0.71657 0.5311 0.0
O220 O 0.34936 0.75842 0.56445 0.0
O221 O 0.28325 0.78846 0.60734 0.0
O222 O 0.18205 0.79462 0.55995 0.0
O223 O 0.23521 0.75829 0.59912 0.0
O224 O 0.2389 0.81684 0.5256 0.0
O225 O 0.1567 0.83137 0.49818 0.0
O226 O 0.11438 0.78518 0.50993 0.0
O227 O 0.12689 0.79492 0.44816 0.0
O228 O 0.26516 0.77097 0.48864 0.0
O229 O 0.22396 0.77521 0.43608 0.0
O230 O 0.22465 0.73633 0.51319 0.0
O231 O 0.30355 0.72482 0.54327 0.0
H232 H 0.36674 0.79542 0.53281 0.0
H233 H 0.37467 0.83792 0.53342 0.0
H234 H 0.32933 0.85384 0.66181 0.0
H235 H 0.32568 0.80983 0.66173 0.0
H236 H 0.01325 0.78593 0.47572 0.0
H237 H 0.0136 0.74083 0.46383 0.0
H238 H 0.18286 0.68872 0.42633 0.0
H239 H 0.18142 0.73396 0.43652 0.0
Tb240 Tb 0.19222 0.52852 0.79757 0.0
Tb241 Tb 0.25945 0.52854 0.73101 0.0
C242 C 0.16042 0.51503 0.86 0.0
C243 C 0.15956 0.48966 0.87617 0.0
C244 C 0.20109 0.45878 0.86652 0.0
C245 C 0.2014 0.43501 0.88433 0.0
C246 C 0.16081 0.44166 0.91277 0.0
C247 C 0.11956 0.47252 0.92264 0.0
C248 C 0.11874 0.4963 0.90425 0.0
C249 C 0.14931 0.58565 0.7687 0.0
C250 C 0.29074 0.53261 0.82299 0.0
C251 C 0.29121 0.54533 0.6731 0.0
C252 C 0.29722 0.56927 0.6596 0.0
C253 C 0.25761 0.60042 0.66893 0.0
C254 C 0.25913 0.62307 0.64966 0.0
C255 C 0.29996 0.61495 0.62051 0.0
C256 C 0.34165 0.58372 0.61341 0.0
C257 C 0.34015 0.56105 0.63276 0.0
C258 C 0.29969 0.46911 0.74576 0.0
C259 C 0.1671 0.52038 0.70664 0.0
O260 O 0.20847 0.50934 0.85641 0.0
O261 O 0.12896 0.53057 0.82867 0.0
O262 O 0.19971 0.5638 0.77374 0.0
O263 O 0.12241 0.57557 0.78213 0.0
O264 O 0.25192 0.52992 0.8351 0.0
O265 O 0.29884 0.5343 0.78331 0.0
O266 O 0.24123 0.55341 0.67666 0.0
O267 O 0.32358 0.52669 0.70233 0.0
O268 O 0.25974 0.49331 0.7627 0.0
O269 O 0.31954 0.47834 0.72007 0.0
O270 O 0.19322 0.53222 0.69581 0.0
O271 O 0.16944 0.51204 0.74541 0.0
H272 H 0.2339 0.45303 0.84593 0.0
H273 H 0.23413 0.41138 0.87668 0.0
H274 H 0.08796 0.47821 0.94456 0.0
H275 H 0.08675 0.51992 0.9126 0.0
H276 H 0.22415 0.6073 0.68955 0.0
H277 H 0.22696 0.64705 0.65611 0.0
H278 H 0.37349 0.5769 0.59112 0.0
H279 H 0.37105 0.53711 0.62513 0.0
Tb280 Tb 0.94272 0.52541 0.5388 0.0
Tb281 Tb 0.02905 0.51871 0.48274 0.0
C282 C 0.85709 0.53158 0.55888 0.0
C283 C 0.83748 0.51352 0.54687 0.0
C284 C 0.85989 0.49429 0.51214 0.0
C285 C 0.8558 0.46996 0.5077 0.0
C286 C 0.82914 0.46478 0.53792 0.0
C287 C 0.80211 0.48593 0.57037 0.0
C288 C 0.80642 0.51015 0.57488 0.0
C289 C 0.02618 0.51397 0.58591 0.0
C290 C 0.03411 0.46042 0.4983 0.0
C291 C 0.09616 0.52418 0.44714 0.0
C292 C 0.10527 0.54828 0.44661 0.0
C293 C 0.12054 0.55651 0.48202 0.0
C294 C 0.12346 0.5815 0.48114 0.0
C295 C 0.11088 0.59881 0.44496 0.0
C296 C 0.09599 0.59032 0.40965 0.0
C297 C 0.09393 0.56515 0.41035 0.0
C298 C 0.94966 0.5206 0.44395 0.0
C299 C 0.94551 0.58163 0.53296 0.0
O300 O 0.85856 0.54796 0.52994 0.0
O301 O 0.90217 0.51592 0.58045 0.0
O302 O 0.02169 0.51591 0.547 0.0
O303 O -0.01778 0.51783 0.59916 0.0
O304 O -0.01557 0.47907 0.514 0.0
O305 O 0.06468 0.47002 0.49026 0.0
O306 O 0.10803 0.50794 0.48086 0.0
O307 O 0.04957 0.53273 0.43111 0.0
O308 O 0.94421 0.53652 0.47523 0.0
O309 O 0.0004 0.50428 0.43294 0.0
O310 O -0.01197 0.56532 0.50796 0.0
O311 O 0.91823 0.57147 0.54708 0.0
H312 H 0.8844 0.49646 0.49034 0.0
H313 H 0.87743 0.45378 0.48269 0.0
H314 H 0.78105 0.48236 0.59386 0.0
H315 H 0.78933 0.52463 0.60198 0.0
H316 H 0.12922 0.54408 0.51053 0.0
H317 H 0.13503 0.58749 0.50888 0.0
H318 H 0.08417 0.60369 0.38169 0.0
H319 H 0.08155 0.55948 0.38273 0.0
Tb320 Tb 0.26955 0.27697 0.04432 0.0
Tb321 Tb 0.18405 0.27975 0.98551 0.0
C322 C 0.34997 0.27398 0.07057 0.0
C323 C 0.37113 0.29109 0.05812 0.0
C324 C 0.3485 0.31018 0.02347 0.0
C325 C 0.35294 0.33423 0.0186 0.0
C326 C 0.37992 0.33942 0.04841 0.0
C327 C 0.40724 0.31858 0.08088 0.0
C328 C 0.40261 0.29446 0.08584 0.0
C329 C 0.18587 0.28588 0.08878 0.0
C330 C 0.18391 0.33795 0.99236 0.0
C331 C 0.10555 0.28069 0.95953 0.0
C332 C 0.08657 0.26231 0.97157 0.0
C333 C 0.10708 0.24449 1.00749 0.0
C334 C 0.10306 0.22027 1.01322 0.0
C335 C 0.07918 0.21322 0.9828 0.0
C336 C 0.05552 0.23237 0.94813 0.0
C337 C 0.05905 0.25683 0.94266 0.0
C338 C 0.26835 0.27011 0.9412 0.0
C339 C 0.27056 0.21863 0.03651 0.0
O340 O 0.35443 0.25431 0.04383 0.0
O341 O 0.301 0.29173 0.08672 0.0
O342 O 0.19234 0.2841 0.04991 0.0
O343 O 0.22788 0.2836 0.10316 0.0
O344 O 0.2285 0.32222 1.01548 0.0
O345 O 0.15583 0.32733 0.98118 0.0
O346 O 0.09964 0.30073 0.98637 0.0
O347 O 0.15436 0.26404 0.94299 0.0
O348 O 0.2615 0.27236 0.98002 0.0
O349 O 0.22634 0.2724 0.92681 0.0
O350 O 0.22512 0.23475 1.01449 0.0
O351 O 0.29886 0.22921 0.04694 0.0
H352 H 0.32347 0.3082 1.00203 0.0
H353 H 0.33167 0.35019 0.99338 0.0
H354 H 0.42797 0.32252 0.10424 0.0
H355 H 0.4195 0.28022 0.11308 0.0
H356 H 0.12963 0.24784 0.02976 0.0
H357 H 0.12157 0.2059 0.04022 0.0
H358 H 0.03802 0.22708 0.92367 0.0
H359 H 0.04423 0.26986 0.91431 0.0
Tb360 Tb 0.20108 1.02361 0.29523 0.0
Tb361 Tb 0.26828 0.02644 0.23129 0.0
C362 C 0.17868 0.99924 0.34805 0.0
C363 C 0.16661 0.98466 0.37997 0.0
C364 C 0.19899 0.97285 0.41552 0.0
C365 C 0.19671 0.95292 0.44126 0.0
C366 C 0.16282 0.94395 0.43145 0.0
C367 C 0.12708 0.95782 0.3978 0.0
C368 C 0.12887 0.97812 0.37227 0.0
C369 C 0.15695 0.08385 0.28272 0.0
C370 C 0.28858 0.03503 0.32326 0.0
C371 C 0.30688 0.03885 0.17269 0.0
C372 C 0.30263 0.06553 0.15531 0.0
C373 C 0.2525 0.09185 0.14151 0.0
C374 C 0.2504 0.1158 0.1225 0.0
C375 C 0.29825 0.11398 0.11708 0.0
C376 C 0.34816 0.08785 0.13137 0.0
C377 C 0.35029 0.06387 0.15025 0.0
C378 C 0.31056 0.96875 0.25804 0.0
C379 C 0.16923 1.02447 0.2019 0.0
O380 O 0.2275 0.99282 0.34427 0.0
O381 O 0.14165 1.02025 0.32266 0.0
O382 O 0.19848 0.06034 0.26572 0.0
O383 O 0.13795 0.07339 0.3075 0.0
O384 O 0.264 1.02203 0.33281 0.0
O385 O 0.28596 0.04416 0.28495 0.0
O386 O 0.26415 0.03867 0.16954 0.0
O387 O 0.33052 0.02893 0.20847 0.0
O388 O 0.26108 0.99071 0.25151 0.0
O389 O 0.33818 0.9788 0.24681 0.0
O390 O 0.2027 0.03191 0.19238 0.0
O391 O 0.16629 1.01714 0.24023 0.0
H392 H 0.22815 0.97773 0.42229 0.0
H393 H 0.22381 0.9431 0.46756 0.0
H394 H 0.10054 0.95132 0.38958 0.0
H395 H 0.10368 0.98685 0.3449 0.0
H396 H 0.21497 0.09387 0.145 0.0
H397 H 0.21131 0.13579 0.11201 0.0
H398 H 0.38577 0.08562 0.12704 0.0
H399 H 0.38947 0.04369 0.16026 0.0
Tb400 Tb 0.50811 0.27832 0.79234 0.0
Tb401 Tb 0.44321 0.27746 0.73177 0.0
C402 C 0.53888 0.29259 0.85482 0.0
C403 C 0.54296 0.31693 0.87053 0.0
C404 C 0.51796 0.34523 0.85024 0.0
C405 C 0.51685 0.36925 0.86851 0.0
C406 C 0.54054 0.36541 0.90746 0.0
C407 C 0.56607 0.33688 0.9273 0.0
C408 C 0.56737 0.31291 0.90897 0.0
C409 C 0.55102 0.21998 0.76775 0.0
C410 C 0.41276 0.27296 0.82105 0.0
C411 C 0.40924 0.26568 0.66881 0.0
C412 C 0.40618 0.24133 0.65213 0.0
C413 C 0.42933 0.21341 0.67292 0.0
C414 C 0.4304 0.18953 0.65439 0.0
C415 C 0.40851 0.19325 0.61477 0.0
C416 C 0.38494 0.22138 0.59437 0.0
C417 C 0.38367 0.24522 0.61295 0.0
C418 C 0.40017 0.33554 0.75672 0.0
C419 C 0.54014 0.28078 0.70308 0.0
O420 O 0.48937 0.30081 0.84908 0.0
O421 O 0.57183 0.27472 0.82529 0.0
O422 O 0.501 0.24171 0.77345 0.0
O423 O 0.57825 0.23047 0.77849 0.0
O424 O 0.44376 0.28192 0.8307 0.0
O425 O 0.41266 0.26486 0.78269 0.0
O426 O 0.45832 0.25838 0.67279 0.0
O427 O 0.37853 0.28128 0.70038 0.0
O428 O 0.45019 0.31404 0.75052 0.0
O429 O 0.37326 0.32489 0.74637 0.0
O430 O 0.51184 0.2699 0.69489 0.0
O431 O 0.53781 0.29102 0.74053 0.0
H432 H 0.49805 0.34901 0.82087 0.0
H433 H 0.49599 0.39112 0.85275 0.0
H434 H 0.5847 0.33319 0.95722 0.0
H435 H 0.58626 0.2914 0.9254 0.0
H436 H 0.44761 0.20986 0.70296 0.0
H437 H 0.44971 0.16789 0.67052 0.0
H438 H 0.3678 0.22485 0.56388 0.0
H439 H 0.36612 0.26652 0.5963 0.0
Tb440 Tb 0.00349 0.77888 0.79817 0.0
Tb441 Tb 0.93991 0.7761 0.73299 0.0
C442 C 0.03671 0.79361 0.8584 0.0
C443 C 0.03583 0.81987 0.87411 0.0
C444 C -0.01224 0.84628 0.89057 0.0
C445 C -0.01109 0.86911 0.90999 0.0
C446 C 0.03804 0.86614 0.91361 0.0
C447 C 0.08565 0.84041 0.89579 0.0
C448 C 0.08463 0.81741 0.87653 0.0
C449 C 0.04816 0.72058 0.77171 0.0
C450 C 0.90704 0.77344 0.82485 0.0
C451 C 0.91156 0.75849 0.67355 0.0
C452 C 0.91279 0.73294 0.65615 0.0
C453 C 0.95452 0.7022 0.66583 0.0
C454 C 0.95733 0.67835 0.64564 0.0
C455 C 0.91932 0.68504 0.61481 0.0
C456 C 0.87751 0.71575 0.60534 0.0
C457 C 0.8741 0.73954 0.62609 0.0
C458 C 0.89479 0.83664 0.74384 0.0
C459 C 0.03245 0.78282 0.70822 0.0
O460 O -0.00966 0.79705 0.85761 0.0
O461 O 0.06647 0.77885 0.826 0.0
O462 O -0.00194 0.74238 0.77664 0.0
O463 O 0.07477 0.73109 0.7841 0.0
O464 O 0.94168 0.77962 0.83647 0.0
O465 O 0.90288 0.76876 0.78538 0.0
O466 O 0.95844 0.75452 0.67578 0.0
O467 O 0.88049 0.77284 0.70569 0.0
O468 O 0.93517 0.814 0.76296 0.0
O469 O 0.87859 0.82504 0.71883 0.0
O470 O 0.01143 0.76773 0.70057 0.0
O471 O 0.02457 0.79546 0.74492 0.0
H472 H 0.94937 0.84906 0.88941 0.0
H473 H 0.95135 0.88902 0.92268 0.0
H474 H 0.12404 0.83757 0.89803 0.0
H475 H 0.12241 0.79725 0.8645 0.0
H476 H -0.01439 0.69668 0.68807 0.0
H477 H -0.01004 0.65472 0.65325 0.0
H478 H 0.84771 0.72128 0.58179 0.0
H479 H 0.84203 0.76315 0.61788 0.0
Tb480 Tb 0.69561 0.52562 0.2982 0.0
Tb481 Tb 0.76022 0.52649 0.2368 0.0
C482 C 0.66211 0.51307 0.36069 0.0
C483 C 0.65796 0.48892 0.37696 0.0
C484 C 0.68527 0.45982 0.35834 0.0
C485 C 0.68517 0.43637 0.37703 0.0
C486 C 0.65831 0.44152 0.41485 0.0
C487 C 0.62975 0.47099 0.43264 0.0
C488 C 0.62967 0.49439 0.4139 0.0
C489 C 0.6532 0.58393 0.27362 0.0
C490 C 0.79302 0.52863 0.32626 0.0
C491 C 0.79053 0.5415 0.17505 0.0
C492 C 0.79047 0.56749 0.15984 0.0
C493 C 0.7426 0.59789 0.16046 0.0
C494 C 0.74111 0.62151 0.14089 0.0
C495 C 0.78738 0.61536 0.12026 0.0
C496 C 0.83568 0.58514 0.12068 0.0
C497 C 0.83715 0.56147 0.14024 0.0
C498 C 0.80364 0.46825 0.26143 0.0
C499 C 0.66451 0.52126 0.20889 0.0
O500 O 0.71146 0.50537 0.35637 0.0
O501 O 0.63089 0.52952 0.32979 0.0
O502 O 0.70303 0.56195 0.27905 0.0
O503 O 0.62577 0.57379 0.28497 0.0
O504 O 0.76433 0.51807 0.33486 0.0
O505 O 0.79044 0.53884 0.2888 0.0
O506 O 0.74287 0.54675 0.17876 0.0
O507 O 0.82306 0.52493 0.20541 0.0
O508 O 0.75348 0.48989 0.25602 0.0
O509 O 0.83056 0.47873 0.24992 0.0
O510 O 0.69476 0.53069 0.19906 0.0
O511 O 0.66567 0.51268 0.24715 0.0
H512 H 0.70773 0.45504 0.32999 0.0
H513 H 0.70769 0.41389 0.36263 0.0
H514 H 0.60782 0.47588 0.4613 0.0
H515 H 0.60846 0.51665 0.42883 0.0
H516 H 0.70576 0.60335 0.1751 0.0
H517 H 0.7034 0.64459 0.1414 0.0
H518 H 0.87177 0.57954 0.10458 0.0
H519 H 0.87431 0.5382 0.13883 0.0
Tb520 Tb 0.76672 0.77513 0.04403 0.0
Tb521 Tb 0.67433 0.7823 0.98655 0.0
C522 C 0.85092 0.76973 0.06603 0.0
C523 C 0.85742 0.79434 0.07352 0.0
C524 C 0.8952 0.7955 0.05039 0.0
C525 C 0.89494 0.82151 0.05215 0.0
C526 C 0.85672 0.84672 0.07698 0.0
C527 C 0.82086 0.84483 0.1016 0.0
C528 C 0.82093 0.81902 0.09973 0.0
C529 C 0.67927 0.78932 0.08844 0.0
C530 C 0.6803 0.83884 0.99734 0.0
C531 C 0.59177 0.78633 0.96334 0.0
C532 C 0.57939 0.76377 0.96817 0.0
C533 C 0.56562 0.75831 1.00672 0.0
C534 C 0.56963 0.7314 1.01343 0.0
C535 C 0.58718 0.70988 0.98161 0.0
C536 C 0.59574 0.71671 0.94223 0.0
C537 C 0.59131 0.7436 0.93543 0.0
C538 C 0.7621 0.76856 0.94274 0.0
C539 C 0.75958 0.71923 0.03459 0.0
O540 O 0.8414 0.76674 0.02775 0.0
O541 O 0.81915 0.7684 0.09172 0.0
O542 O 0.68721 0.7859 0.04984 0.0
O543 O 0.72151 0.78696 0.1029 0.0
O544 O 0.72425 0.82228 0.02124 0.0
O545 O 0.65152 0.82902 0.98403 0.0
O546 O 0.59194 0.80014 0.99668 0.0
O547 O 0.63405 0.77669 0.93975 0.0
O548 O 0.75407 0.77092 0.98126 0.0
O549 O 0.71881 0.77252 0.92762 0.0
O550 O 0.71305 0.73687 1.01388 0.0
O551 O 0.79126 0.728 0.04357 0.0
H552 H 0.92347 0.77681 0.02984 0.0
H553 H 0.92398 0.82212 0.03364 0.0
H554 H 0.79097 0.86393 0.12098 0.0
H555 H 0.79076 0.81907 0.11761 0.0
H556 H 0.55462 0.77391 0.03218 0.0
H557 H 0.5619 0.72664 0.04388 0.0
H558 H 0.60806 0.70061 0.9171 0.0
H559 H 0.6011 0.74747 0.90518 0.0
Tb560 Tb 0.43044 0.03239 0.54327 0.0
Tb561 Tb 0.52148 0.02582 0.48459 0.0
C562 C 0.34781 0.03649 0.56682 0.0
C563 C 0.34448 1.01132 0.57815 0.0
C564 C 0.29575 1.01422 0.57318 0.0
C565 C 0.29502 0.98877 0.57946 0.0
C566 C 0.34313 0.96014 0.59058 0.0
C567 C 0.39166 0.95755 0.59579 0.0
C568 C 0.39224 0.98292 0.58988 0.0
C569 C 0.51915 1.01755 0.58647 0.0
C570 C 0.51411 0.96961 0.49387 0.0
C571 C 0.60485 1.02086 0.46083 0.0
C572 C 0.62632 0.03848 0.4713 0.0
C573 C 0.62545 0.04741 0.51202 0.0
C574 C 0.63022 0.07119 0.52048 0.0
C575 C 0.63717 0.08589 0.48826 0.0
C576 C 0.64268 0.07512 0.44784 0.0
C577 C 0.63722 0.05163 0.43944 0.0
C578 C 0.43277 0.04008 0.44171 0.0
C579 C 0.43677 0.08807 0.53435 0.0
O580 O 0.35893 0.03677 0.52804 0.0
O581 O 0.37731 0.04058 0.59132 0.0
O582 O 0.51011 1.02155 0.54805 0.0
O583 O 0.47743 1.01967 0.60154 0.0
O584 O 0.47302 0.98561 0.52026 0.0
O585 O 0.54242 0.97939 0.47926 0.0
O586 O 0.60636 1.00309 0.48943 0.0
O587 O 0.55773 0.0373 0.44173 0.0
O588 O 0.44149 0.03734 0.48018 0.0
O589 O 0.47597 0.036 0.42612 0.0
O590 O 0.48416 0.07036 0.5147 0.0
O591 O 0.40449 0.07957 0.54204 0.0
H592 H 0.25875 0.03589 0.56352 0.0
H593 H 0.2571 0.99134 0.57508 0.0
H594 H 0.4298 0.9356 0.60282 0.0
H595 H 0.43062 0.98003 0.59299 0.0
H596 H 0.61814 0.03715 0.53698 0.0
H597 H 0.62622 0.07894 0.55194 0.0
H598 H 0.64733 0.08632 0.42235 0.0
H599 H 0.63762 0.04528 0.40774 0.0
Tb600 Tb 0.43505 0.53119 0.04323 0.0
Tb601 Tb 0.51995 0.52592 0.98787 0.0
C602 C 0.36615 0.52675 0.07736 0.0
C603 C 0.35088 0.50617 0.06875 0.0
C604 C 0.36505 0.49082 0.0308 0.0
C605 C 0.36364 0.46569 0.02566 0.0
C606 C 0.34755 0.45583 0.05831 0.0
C607 C 0.32983 0.47239 0.09542 0.0
C608 C 0.33177 0.49744 0.10068 0.0
C609 C 0.51394 0.52876 0.08432 0.0
C610 C 0.51665 0.46964 0.98913 0.0
C611 C 0.60138 0.52371 0.96582 0.0
C612 C 0.61893 0.54269 0.97877 0.0
C613 C 0.597 0.56051 1.01468 0.0
C614 C 0.60137 0.58446 0.02191 0.0
C615 C 0.6269 0.59136 0.99294 0.0
C616 C 0.6519 0.57227 0.95825 0.0
C617 C 0.64801 0.54802 0.95128 0.0
C618 C 0.43613 0.53733 0.94071 0.0
C619 C 0.42801 0.58989 0.03035 0.0
O620 O 0.35325 0.54739 0.04917 0.0
O621 O 0.41659 0.51238 0.09021 0.0
O622 O 0.52032 0.5136 0.05173 0.0
O623 O 0.46301 0.54448 0.09434 0.0
O624 O 0.47327 0.48603 1.01343 0.0
O625 O 0.54598 0.47937 0.97824 0.0
O626 O 0.60408 0.50514 0.99342 0.0
O627 O 0.55471 0.53928 0.94631 0.0
O628 O 0.44131 0.5353 0.97949 0.0
O629 O 0.48034 0.53312 0.92745 0.0
O630 O 0.47788 0.57167 1.01501 0.0
O631 O 0.39796 0.57988 0.03667 0.0
H632 H 0.38029 0.49702 1.00587 0.0
H633 H 0.37732 0.45315 0.99682 0.0
H634 H 0.31769 0.46483 0.12101 0.0
H635 H 0.32151 0.5088 0.13034 0.0
H636 H 0.57295 0.55747 0.03568 0.0
H637 H 0.58169 0.59884 0.04883 0.0
H638 H 0.67081 0.57746 0.93493 0.0
H639 H 0.66414 0.53494 0.92297 0.0
C640 C 0.93924 0.1337 0.03337 0.0
C641 C 0.92134 0.11748 0.05191 0.0
C642 C 0.93436 0.15828 0.05363 0.0
C643 C 0.91211 0.16742 0.09347 0.0
H644 H 0.95847 0.12686 1.00336 0.0
H645 H 0.94987 0.16958 0.0386 0.0
S646 S 0.85892 0.13287 0.15581 0.0
N647 N 0.87995 0.11272 0.11273 0.0
N648 N 0.87091 0.15885 0.15039 0.0
C649 C 0.89336 0.15177 0.11216 0.0
C650 C 0.89778 0.12692 0.09146 0.0
C651 C 0.83994 0.2753 0.42339 0.0
C652 C 0.80742 0.26571 0.41133 0.0
C653 C 0.87442 0.27647 0.39491 0.0
C654 C 0.87819 0.26801 0.35298 0.0
H655 H 0.83741 0.28289 0.45468 0.0
H656 H 0.89768 0.28453 0.40581 0.0
S657 S 0.8032 0.2398 0.30627 0.0
N658 N 0.78294 0.24667 0.35466 0.0
N659 N 0.84665 0.24863 0.30209 0.0
C660 C 0.84655 0.25778 0.34109 0.0
C661 C 0.81161 0.25673 0.36987 0.0
C662 C 0.76575 0.14982 0.55436 0.0
C663 C 0.79866 0.13704 0.58962 0.0
C664 C 0.76306 0.17274 0.53164 0.0
C665 C 0.79282 0.18411 0.54338 0.0
H666 H 0.74057 0.14267 0.54493 0.0
H667 H 0.73517 0.18274 0.50583 0.0
S668 S 0.88762 0.15692 0.63224 0.0
N669 N 0.86401 0.13608 0.63408 0.0
N670 N 0.85894 0.17931 0.59158 0.0
C671 C 0.82846 0.1702 0.57724 0.0
C672 C 0.83127 0.14671 0.60036 0.0
C673 C 0.91006 1.02332 0.87485 0.0
C674 C 0.89358 0.03448 0.91558 0.0
C675 C 0.8755 1.0228 0.84632 0.0
C676 C 0.82208 0.03314 0.85664 0.0
H677 H 0.95058 1.01493 0.8644 0.0
H678 H 0.8912 1.014 0.81573 0.0
S679 S 0.75581 0.06673 0.95783 0.0
N680 N 0.81768 0.058 0.96345 0.0
N681 N 0.75354 0.05585 0.91081 0.0
C682 C 0.80468 0.04424 0.8973 0.0
C683 C 0.83999 0.0452 0.92639 0.0
C684 C 0.09573 0.9974 0.14071 0.0
C685 C 0.06953 1.01856 0.10802 0.0
C686 C 0.12832 0.99918 0.17003 0.0
C687 C 0.13639 1.02242 0.1686 0.0
H688 H 0.08956 0.97967 0.14449 0.0
H689 H 0.1468 0.98234 0.19452 0.0
S690 S 0.07053 0.08655 0.09342 0.0
N691 N 0.05041 0.06534 0.07864 0.0
N692 N 0.11164 0.06858 0.13305 0.0
C693 C 0.11043 0.04386 0.13614 0.0
C694 C 0.07704 0.04202 0.1062 0.0
C695 C 0.01748 0.42027 0.49373 0.0
C696 C 0.04897 0.43051 0.48171 0.0
C697 C 0.01999 0.39687 0.47234 0.0
C698 C 0.0546 0.38227 0.43821 0.0
H699 H -0.0115 0.43141 0.51882 0.0
H700 H -0.00648 0.39064 0.48205 0.0
S701 S 0.14813 0.39865 0.39521 0.0
N702 N 0.11805 0.42285 0.43419 0.0
N703 N 0.12316 0.37847 0.39442 0.0
C704 C 0.08863 0.39089 0.4271 0.0
C705 C 0.08583 0.41502 0.44878 0.0
C706 C 0.59905 0.3035 0.61767 0.0
C707 C 0.65058 0.27563 0.60935 0.0
C708 C 0.56343 0.30531 0.64808 0.0
C709 C 0.57743 0.27922 0.67085 0.0
H710 H 0.587 0.32427 0.60175 0.0
H711 H 0.52477 0.32731 0.65394 0.0
S712 S 0.70529 0.20054 0.6591 0.0
N713 N 0.71211 0.22124 0.62595 0.0
N714 N 0.64512 0.22458 0.68114 0.0
C715 C 0.62771 0.25121 0.66169 0.0
C716 C 0.66417 0.24946 0.63156 0.0
C717 C 0.64202 0.90128 0.9194 0.0
C718 C 0.65731 0.91845 0.93896 0.0
C719 C 0.6466 0.87675 0.93951 0.0
C720 C 0.66758 0.86799 0.97979 0.0
H721 H 0.62663 0.90676 0.88819 0.0
H722 H 0.63566 0.86377 0.92261 0.0
S723 S 0.71225 0.90608 0.04481 0.0
N724 N 0.6931 0.92545 1.00123 0.0
N725 N 0.70239 0.87923 0.03879 0.0
C726 C 0.68229 0.88529 0.99987 0.0
C727 C 0.67694 0.91052 0.97957 0.0
C728 C 0.16215 0.27663 0.15844 0.0
C729 C 0.14697 0.28473 0.1167 0.0
C730 C 0.1284 0.27577 0.18739 0.0
C731 C 0.0776 0.28245 0.1763 0.0
H732 H 0.201 0.27082 0.16923 0.0
H733 H 0.14277 0.26933 0.21875 0.0
S734 S 0.01459 0.30813 0.07268 0.0
N735 N 0.07413 0.30247 0.06738 0.0
N736 N 0.01223 0.29906 0.12071 0.0
C737 C 0.06136 0.29078 0.13484 0.0
C738 C 0.09546 0.29236 0.10543 0.0
C739 C 0.64986 0.39775 0.41483 0.0
C740 C 0.66152 0.41598 0.43624 0.0
C741 C 0.65477 0.37281 0.43389 0.0
C742 C 0.67265 0.36469 0.47489 0.0
H743 H 0.63711 0.4027 0.38296 0.0
H744 H 0.64662 0.35904 0.41576 0.0
S745 S 0.70678 0.4055 0.54494 0.0
N746 N 0.68984 0.42475 0.50133 0.0
N747 N 0.70058 0.37744 0.53663 0.0
C748 C 0.68374 0.38295 0.49682 0.0
C749 C 0.67771 0.40871 0.47769 0.0
C750 C 0.57307 0.03772 0.61057 0.0
C751 C 0.56219 1.01565 0.61303 0.0
C752 C 0.60634 0.03908 0.64005 0.0
C753 C 0.62868 1.01927 0.67462 0.0
H754 H 0.55338 0.05514 0.58689 0.0
H755 H 0.61269 0.05675 0.63657 0.0
S756 S 0.61147 0.95771 0.69616 0.0
N757 N 0.5768 0.97352 0.6532 0.0
N758 N 0.63688 0.97665 0.70869 0.0
C759 C 0.61766 0.99726 0.67744 0.0
C760 C 0.58491 0.99548 0.64698 0.0
C761 C 0.0574 0.92836 0.93906 0.0
C762 C 0.03339 0.93859 0.97837 0.0
C763 C 0.06046 0.90427 0.91876 0.0
C764 C 0.03943 0.88956 0.93686 0.0
H765 H 0.0715 0.94002 0.92288 0.0
H766 H 0.07734 0.89798 0.88798 0.0
S767 S -0.01913 0.90389 0.04164 0.0
N768 N -0.00596 0.92939 0.03632 0.0
N769 N -0.00017 0.88438 0.9981 0.0
C770 C 0.01829 0.8983 0.97697 0.0
C771 C 0.01531 0.92269 0.99771 0.0
C772 C 0.14791 0.12745 0.98796 0.0
C773 C 0.10613 0.12528 0.97521 0.0
C774 C 0.1381 0.15621 0.99206 0.0
C775 C 0.08604 0.18365 0.98411 0.0
H776 H 0.1888 0.10682 0.99319 0.0
H777 H 0.17213 0.15688 0.9997 0.0
S778 S 0.96143 0.18998 0.95542 0.0
N779 N 0.00995 0.1526 0.95819 0.0
N780 N -0.00886 0.20673 0.96701 0.0
C781 C 0.04329 0.18168 0.97361 0.0
C782 C 0.05344 0.15245 0.96894 0.0
C783 C 0.57159 0.64099 0.27211 0.0
C784 C 0.62892 0.61806 0.27046 0.0
C785 C 0.54782 0.67304 0.27102 0.0
C786 C 0.58005 0.68403 0.26828 0.0
H787 H 0.54457 0.63415 0.27481 0.0
H788 H 0.50379 0.68933 0.27315 0.0
S789 S 0.73194 0.63407 0.26033 0.0
N790 N 0.71676 0.60934 0.26407 0.0
N791 N 0.67303 0.66861 0.26176 0.0
C792 C 0.63732 0.6613 0.26544 0.0
C793 C 0.66139 0.62876 0.2666 0.0
C794 C 0.32348 0.8986 0.56449 0.0
C795 C 0.35089 0.87731 0.59672 0.0
C796 C 0.32012 0.92565 0.56323 0.0
C797 C 0.3439 0.93246 0.59419 0.0
H798 H 0.30411 0.89447 0.54016 0.0
H799 H 0.29962 0.94105 0.53738 0.0
S800 S 0.41953 0.88455 0.68549 0.0
N801 N 0.40274 0.86471 0.66004 0.0
N802 N 0.39426 0.91623 0.65863 0.0
C803 C 0.37078 0.91158 0.62684 0.0
C804 C 0.37472 0.88388 0.62791 0.0
C805 C 0.13057 0.66374 0.76707 0.0
C806 C 0.07312 0.68632 0.7688 0.0
C807 C 0.15508 0.63157 0.76619 0.0
C808 C 0.12352 0.62008 0.76679 0.0
H809 H 0.15716 0.67096 0.76686 0.0
H810 H 0.19924 0.61557 0.76572 0.0
S811 S 0.97135 0.669 0.77095 0.0
N812 N -0.01422 0.69414 0.77129 0.0
N813 N 0.03071 0.63475 0.76852 0.0
C814 C 0.066 0.64249 0.76788 0.0
C815 C 0.04121 0.67512 0.76915 0.0
C816 C 0.86782 0.38919 0.57974 0.0
C817 C 0.85445 0.3773 0.54754 0.0
C818 C 0.85932 0.41749 0.57605 0.0
C819 C 0.83747 0.43494 0.53991 0.0
H820 H 0.88433 0.3767 0.60836 0.0
H821 H 0.87002 0.42579 0.60177 0.0
S822 S 0.79866 0.41355 0.44556 0.0
N823 N 0.82005 0.38472 0.47753 0.0
N824 N 0.80506 0.438 0.47051 0.0
C825 C 0.82591 0.42294 0.50677 0.0
C826 C 0.83425 0.39405 0.51057 0.0
C827 C 0.30253 0.92405 0.25349 0.0
C828 C 0.33481 0.93466 0.26016 0.0
C829 C 0.32583 0.89216 0.25152 0.0
C830 C 0.38248 0.869 0.25708 0.0
H831 H 0.259 0.94051 0.24844 0.0
H832 H 0.29901 0.88556 0.24504 0.0
S833 S 0.48545 0.88409 0.27571 0.0
N834 N 0.42714 0.91881 0.27265 0.0
N835 N 0.47 0.8596 0.26947 0.0
C836 C 0.41499 0.87928 0.26479 0.0
C837 C 0.39145 0.91176 0.2662 0.0
C838 C 0.38117 0.41299 0.74932 0.0
C839 C 0.32413 0.43558 0.75371 0.0
C840 C 0.40571 0.38101 0.75184 0.0
C841 C 0.37437 0.36978 0.75803 0.0
H842 H 0.4073 0.42011 0.74326 0.0
H843 H 0.4495 0.36496 0.74761 0.0
S844 S 0.22306 0.41883 0.77018 0.0
N845 N 0.23715 0.44391 0.76407 0.0
N846 N 0.28237 0.38447 0.76869 0.0
C847 C 0.31727 0.39216 0.76293 0.0
C848 C 0.29244 0.42474 0.7608 0.0
C849 C 0.14167 0.75563 0.62441 0.0
C850 C 0.13918 0.78194 0.61454 0.0
C851 C 0.10625 0.75648 0.65362 0.0
C852 C 0.06794 0.78339 0.67607 0.0
H853 H 0.17225 0.73384 0.6099 0.0
H854 H 0.11038 0.73543 0.65977 0.0
S855 S 0.04389 0.85893 0.66219 0.0
N856 N 0.09344 0.83615 0.62916 0.0
N857 N 0.02883 0.83748 0.68524 0.0
C858 C 0.06464 0.81 0.66642 0.0
C859 C 0.09964 0.80936 0.63551 0.0
C860 C 0.12506 0.91875 0.46748 0.0
C861 C 0.17017 0.91736 0.45276 0.0
C862 C 0.13203 0.89295 0.48569 0.0
C863 C 0.18436 0.86504 0.48995 0.0
H864 H 0.08417 0.93987 0.46475 0.0
H865 H 0.09635 0.89485 0.49646 0.0
S866 S 0.31464 0.84832 0.45112 0.0
N867 N 0.26813 0.88494 0.44026 0.0
N868 N 0.28134 0.8369 0.47462 0.0
C869 C 0.22956 0.86331 0.47467 0.0
C870 C 0.22245 0.88934 0.45605 0.0
C871 C 0.9146 0.64051 0.61352 0.0
C872 C 0.92337 0.65992 0.59246 0.0
C873 C 0.91924 0.61613 0.59324 0.0
C874 C 0.93393 0.60996 0.5514 0.0
H875 H 0.90435 0.64414 0.64594 0.0
H876 H 0.91333 0.60129 0.61095 0.0
S877 S 0.95997 0.65469 0.48249 0.0
N878 N 0.94558 0.67227 0.52745 0.0
N879 N 0.9562 0.62563 0.4895 0.0
C880 C 0.94245 0.62938 0.52995 0.0
C881 C 0.9366 0.65463 0.55044 0.0
C882 C 0.29725 0.77453 0.3785 0.0
C883 C 0.30992 0.76887 0.42092 0.0
C884 C 0.33131 0.77536 0.34968 0.0
C885 C 0.38054 0.77075 0.36119 0.0
H886 H 0.25989 0.77867 0.36708 0.0
H887 H 0.3183 0.78005 0.31787 0.0
S888 S 0.43621 0.75263 0.46768 0.0
N889 N 0.37782 0.75684 0.47234 0.0
N890 N 0.44137 0.75878 0.41876 0.0
C891 C 0.39441 0.76465 0.4035 0.0
C892 C 0.35952 0.7636 0.43302 0.0
C893 C 0.26856 0.1501 0.05777 0.0
C894 C 0.29597 0.13904 0.09559 0.0
C895 C 0.26316 0.17479 0.03779 0.0
C896 C 0.28517 0.18939 0.05474 0.0
H897 H 0.25064 0.13975 0.04371 0.0
H898 H 0.24035 0.18294 1.00926 0.0
S899 S 0.36031 0.16923 0.15368 0.0
N900 N 0.34528 0.14446 0.14943 0.0
N901 N 0.33572 0.19069 0.1119 0.0
C902 C 0.31399 0.17798 0.09213 0.0
C903 C 0.31922 0.15287 0.11254 0.0
C904 C 0.83071 0.78088 0.92597 0.0
C905 C 0.80537 0.76647 0.91614 0.0
C906 C 0.86436 0.78251 0.89705 0.0
C907 C 0.87364 0.77026 0.85667 0.0
H908 H 0.82265 0.79221 0.9554 0.0
H909 H 0.88182 0.79437 0.90606 0.0
S910 S 0.81952 0.72839 0.81649 0.0
N911 N 0.7947 0.73837 0.86359 0.0
N912 N 0.85606 0.74168 0.81011 0.0
C913 C 0.84942 0.7552 0.84717 0.0
C914 C 0.81589 0.75333 0.8765 0.0
C915 C 0.33832 0.64185 0.59116 0.0
C916 C 0.2953 0.63894 0.59435 0.0
C917 C 0.33217 0.66592 0.56836 0.0
C918 C 0.28314 0.68755 0.54734 0.0
H919 H 0.37613 0.62616 0.60766 0.0
H920 H 0.36533 0.66821 0.56848 0.0
S921 S 0.16035 0.68751 0.54328 0.0
N922 N 0.20407 0.65783 0.57244 0.0
N923 N 0.19207 0.70263 0.52951 0.0
C924 C 0.24111 0.68351 0.54857 0.0
C925 C 0.24725 0.65939 0.57216 0.0
C926 C 0.33276 1.02488 0.39496 0.0
C927 C 0.32068 0.0389 0.35562 0.0
C928 C 0.36614 0.02657 0.4241 0.0
C929 C 0.3889 0.04252 0.41548 0.0
H930 H 0.31775 1.01159 0.40295 0.0
H931 H 0.37625 1.01402 0.45263 0.0
S932 S 0.3675 0.08517 0.31891 0.0
N933 N 0.33282 0.07081 0.31148 0.0
N934 N 0.39452 0.07375 0.3652 0.0
C935 C 0.37572 0.05734 0.37693 0.0
C936 C 0.342 0.05568 0.34746 0.0
C937 C 0.84901 0.88958 0.11432 0.0
C938 C 0.85272 0.87545 0.07683 0.0
C939 C 0.84363 0.91716 0.11528 0.0
C940 C 0.84191 0.93166 0.07878 0.0
H941 H 0.8508 0.87906 0.14323 0.0
H942 H 0.8412 0.92712 0.14492 0.0
S943 S 0.84785 0.90465 0.97247 0.0
N944 N 0.85168 0.87863 1.00219 0.0
N945 N 0.84373 0.93003 1.00396 0.0
C946 C 0.84481 0.91802 0.04098 0.0
C947 C 0.84999 0.88994 0.04002 0.0
C948 C 0.57391 0.16884 0.51667 0.0
C949 C 0.61001 0.17377 0.49839 0.0
C950 C 0.58475 0.13966 0.51542 0.0
C951 C 0.63182 0.1147 0.49566 0.0
H952 H 0.53633 0.18782 0.53069 0.0
H953 H 0.55482 0.13697 0.52821 0.0
S954 S 0.74144 0.11559 0.44716 0.0
N955 N 0.69606 0.15137 0.46275 0.0
N956 N 0.71684 0.09643 0.46074 0.0
C957 C 0.66936 0.1192 0.47912 0.0
C958 C 0.6583 0.14881 0.48039 0.0
C959 C 0.79747 0.42272 0.25918 0.0
C960 C 0.82907 0.43399 0.26377 0.0
C961 C 0.82162 0.39066 0.25873 0.0
C962 C 0.87872 0.368 0.26295 0.0
H963 H 0.75368 0.43878 0.25508 0.0
H964 H 0.7951 0.38359 0.25447 0.0
S965 S -0.02024 0.38492 0.27944 0.0
N966 N 0.92091 0.41928 0.27508 0.0
N967 N 0.96549 0.35984 0.27435 0.0
C968 C 0.91051 0.379 0.26883 0.0
C969 C 0.886 0.4116 0.26918 0.0
C970 C 0.08515 0.64814 0.47686 0.0
C971 C 0.11016 0.62668 0.4445 0.0
C972 C 0.08041 0.67562 0.47586 0.0
C973 C 0.10111 0.68264 0.4427 0.0
H974 H 0.06824 0.64396 0.50297 0.0
H975 H 0.06109 0.69127 0.50168 0.0
S976 S 0.17232 0.63363 0.35098 0.0
N977 N 0.15807 0.61373 0.3791 0.0
N978 N 0.14777 0.66578 0.3767 0.0
C979 C 0.12675 0.66125 0.41032 0.0
C980 C 0.13165 0.63322 0.41136 0.0
C981 C 0.56637 0.14316 0.77023 0.0
C982 C 0.62332 0.11999 0.76626 0.0
C983 C 0.5433 0.17507 0.76983 0.0
C984 C 0.57582 0.18576 0.76552 0.0
H985 H 0.53907 0.13662 0.77434 0.0
H986 H 0.49953 0.19149 0.77377 0.0
S987 S 0.72675 0.13522 0.7509 0.0
N988 N 0.71115 0.11072 0.75566 0.0
N989 N 0.66849 0.16993 0.75488 0.0
C990 C 0.63267 0.16287 0.76038 0.0
C991 C 0.65613 0.13037 0.76072 0.0
C992 C 0.7401 0.65884 0.06967 0.0
C993 C 0.78397 0.64024 0.09675 0.0
C994 C 0.73445 0.68312 0.04815 0.0
C995 C 0.77216 0.69022 0.05296 0.0
H996 H 0.70948 0.65473 0.06524 0.0
H997 H 0.69903 0.69699 0.0285 0.0
S998 S 0.8948 0.64818 0.1204 0.0
N999 N 0.86626 0.6302 0.12706 0.0
N1000 N 0.85591 0.6758 0.08687 0.0
C1001 C 0.81702 0.67129 0.07942 0.0
C1002 C 0.82284 0.64638 0.1012 0.0
C1003 C 0.85438 0.55051 0.41088 0.0
C1004 C 0.90634 0.52262 0.41789 0.0
C1005 C 0.81774 0.55256 0.38124 0.0
C1006 C 0.83116 0.52673 0.35798 0.0
H1007 H 0.84278 0.5711 0.42718 0.0
H1008 H 0.7788 0.57458 0.37629 0.0
S1009 S 0.95977 0.44802 0.36667 0.0
N1010 N 0.96756 0.46843 0.3998 0.0
N1011 N 0.89879 0.47223 0.34596 0.0
C1012 C 0.88187 0.49867 0.36593 0.0
C1013 C 0.91931 0.49665 0.39531 0.0
C1014 C 0.12857 0.52693 0.63359 0.0
C1015 C 0.13428 0.51669 0.67479 0.0
C1016 C 0.0961 0.52481 0.60409 0.0
C1017 C 0.06751 0.51242 0.61431 0.0
H1018 H 0.14855 0.53727 0.6241 0.0
H1019 H 0.09179 0.53397 0.57357 0.0
S1020 S 0.07089 0.48027 0.71636 0.0
N1021 N 0.10976 0.49209 0.72266 0.0
N1022 N 0.04959 0.48839 0.66826 0.0
C1023 C 0.07406 0.50141 0.6549 0.0
C1024 C 0.10706 0.50342 0.68471 0.0
C1025 C 0.58085 0.77353 0.13683 0.0
C1026 C 0.57 0.787 0.17658 0.0
C1027 C 0.61363 0.77544 0.10735 0.0
C1028 C 0.6366 0.79132 0.11578 0.0
H1029 H 0.56529 0.76053 0.12873 0.0
H1030 H 0.62328 0.76314 0.07857 0.0
S1031 S 0.61957 0.8319 0.21369 0.0
N1032 N 0.5849 0.81758 0.22134 0.0
N1033 N 0.64452 0.82146 0.16667 0.0
C1034 C 0.62497 0.80542 0.15485 0.0
C1035 C 0.59227 0.80329 0.18483 0.0
C1036 C 0.64214 0.51576 0.13473 0.0
C1037 C 0.62865 0.5206 0.17711 0.0
C1038 C 0.60741 0.51611 0.10485 0.0
C1039 C 0.5564 0.52269 0.11568 0.0
H1040 H 0.68 0.51156 0.12452 0.0
H1041 H 0.62003 0.51206 0.07303 0.0
S1042 S 0.50307 0.53516 0.22267 0.0
N1043 N 0.562 0.53008 0.22811 0.0
N1044 N 0.4965 0.53217 0.1729 0.0
C1045 C 0.54343 0.52674 0.15814 0.0
C1046 C 0.57933 0.52544 0.18844 0.0
C1047 C 0.40692 0.39935 0.04736 0.0
C1048 C 0.35454 0.42657 0.05487 0.0
C1049 C 0.41524 0.37094 0.04508 0.0
C1050 C 0.37118 0.36921 0.04964 0.0
H1051 H 0.44172 0.40004 0.04401 0.0
H1052 H 0.45611 0.35029 0.03973 0.0
S1053 S 0.22657 0.43374 0.0702 0.0
N1054 N 0.25848 0.4501 0.06727 0.0
N1055 N 0.27384 0.39661 0.06252 0.0
C1056 C 0.31866 0.39625 0.05701 0.0
C1057 C 0.31037 0.42504 0.05981 0.0
C1058 C 0.05031 0.1724 0.28367 0.0
C1059 C 0.07934 0.1839 0.27031 0.0
C1060 C 0.07562 0.14032 0.28682 0.0
C1061 C 0.13094 0.11783 0.27573 0.0
H1062 H 0.00805 0.18832 0.29314 0.0
H1063 H 0.05145 0.13306 0.29846 0.0
S1064 S 0.22468 0.13535 0.23643 0.0
N1065 N 0.16681 0.16963 0.24474 0.0
N1066 N 0.213 0.11001 0.24908 0.0
C1067 C 0.15982 0.129 0.26083 0.0
C1068 C 0.13447 0.16169 0.25857 0.0
C1069 C 0.17232 0.38808 0.99541 0.0
C1070 C 0.17103 0.36629 0.9726 0.0
C1071 C 0.16708 0.41301 0.97598 0.0
C1072 C 0.16243 0.41638 0.93294 0.0
H1073 H 0.17811 0.38561 0.02842 0.0
H1074 H 0.16846 0.42924 0.99457 0.0
S1075 S 0.15989 0.36472 0.85914 0.0
N1076 N 0.16537 0.34953 0.90461 0.0
N1077 N 0.15754 0.39567 0.86816 0.0
C1078 C 0.16137 0.39468 0.90983 0.0
C1079 C 0.16518 0.36983 0.92965 0.0
C1080 C 0.29312 0.27808 0.87125 0.0
C1081 C 0.30773 0.27075 0.91319 0.0
C1082 C 0.32721 0.27846 0.84217 0.0
C1083 C 0.37784 0.272 0.85325 0.0
H1084 H 0.25447 0.28365 0.86038 0.0
H1085 H 0.31324 0.28431 0.81063 0.0
S1086 S 0.43936 0.24842 0.95748 0.0
N1087 N 0.3798 0.2541 0.96287 0.0
N1088 N 0.44238 0.25658 0.90909 0.0
C1089 C 0.3935 0.26452 0.89492 0.0
C1090 C 0.35902 0.26344 0.92454 0.0
C1091 C 0.40948 0.53041 0.87048 0.0
C1092 C 0.39658 0.53683 0.91274 0.0
C1093 C 0.37527 0.52927 0.84228 0.0
C1094 C 0.32598 0.53426 0.85452 0.0
H1095 H 0.44694 0.52601 0.85878 0.0
H1096 H 0.38812 0.52408 0.81044 0.0
S1097 S 0.27045 0.55401 0.96106 0.0
N1098 N 0.32865 0.55006 0.96471 0.0
N1099 N 0.26525 0.54699 0.9125 0.0
C1100 C 0.31216 0.54091 0.89672 0.0
C1101 C 0.34701 0.54243 0.92547 0.0
C1102 C 0.55702 0.67715 0.99931 0.0
C1103 C 0.59932 0.67954 0.98939 0.0
C1104 C 0.56699 0.64832 1.00191 0.0
C1105 C 0.61973 0.62099 0.99546 0.0
H1106 H 0.51562 0.69769 1.00318 0.0
H1107 H 0.53265 0.64748 1.007 0.0
S1108 S 0.74534 0.61534 0.97365 0.0
N1109 N 0.69623 0.65267 0.97577 0.0
N1110 N 0.71552 0.59827 0.98249 0.0
C1111 C 0.66285 0.62318 0.98765 0.0
C1112 C 0.65249 0.65254 0.98425 0.0
C1113 C 0.87975 0.88442 0.77856 0.0
C1114 C 0.86765 0.87102 0.74725 0.0
C1115 C 0.85377 0.91679 0.7801 0.0
C1116 C 0.81441 0.9372 0.75057 0.0
H1117 H 0.90993 0.86983 0.80168 0.0
H1118 H 0.86592 0.92576 0.80382 0.0
S1119 S 0.76871 0.91446 0.6619 0.0
N1120 N 0.81295 0.88175 0.68588 0.0
N1121 N 0.76612 0.94126 0.68888 0.0
C1122 C 0.80204 0.92409 0.71953 0.0
C1123 C 0.82791 0.89152 0.71793 0.0
C1124 C 0.43503 0.15815 0.55423 0.0
C1125 C 0.41214 0.16751 0.59387 0.0
C1126 C 0.44126 0.13303 0.53453 0.0
C1127 C 0.42353 0.11682 0.55326 0.0
H1128 H 0.44968 0.1698 0.5388 0.0
H1129 H 0.46077 0.12601 0.50462 0.0
S1130 S 0.36021 0.13248 0.65667 0.0
N1131 N 0.37121 0.15886 0.65096 0.0
N1132 N 0.38216 0.11196 0.61389 0.0
C1133 C 0.39948 0.12639 0.59254 0.0
C1134 C 0.39405 0.15162 0.61287 0.0
C1135 C 0.51772 0.39952 0.96897 0.0
C1136 C 0.53706 0.39129 0.92824 0.0
C1137 C 0.51249 0.42436 0.98887 0.0
C1138 C 0.52762 0.44156 0.9692 0.0
H1139 H 0.50528 0.38708 0.98526 0.0
H1140 H 0.49604 0.43027 0.0198 0.0
S1141 S 0.58063 0.4294 0.8625 0.0
N1142 N 0.57146 0.40235 0.86901 0.0
N1143 N 0.56222 0.4487 0.90625 0.0
C1144 C 0.54773 0.43328 0.92863 0.0
C1145 C 0.55222 0.40831 0.9082 0.0
C1146 C 0.57884 0.8942 0.43417 0.0
C1147 C 0.53735 0.88984 0.43452 0.0
C1148 C 0.57201 0.91947 0.45434 0.0
C1149 C 0.52377 0.94109 0.47623 0.0
H1150 H 0.61632 0.8784 0.41729 0.0
H1151 H 0.60448 0.92228 0.45227 0.0
S1152 S 0.40346 0.9392 0.48759 0.0
N1153 N 0.4474 0.90847 0.45989 0.0
N1154 N 0.43381 0.95586 0.49692 0.0
C1155 C 0.48251 0.93643 0.47746 0.0
C1156 C 0.48947 0.91089 0.45685 0.0
C1157 C 0.44403 0.62994 0.04028 0.0
C1158 C 0.41227 0.61934 0.04917 0.0
C1159 C 0.43998 0.65294 0.06397 0.0
C1160 C 0.4036 0.66666 0.09726 0.0
H1161 H 0.47417 0.61948 0.01588 0.0
H1162 H 0.46641 0.65965 0.05678 0.0
S1163 S 0.30771 0.64957 0.13176 0.0
N1164 N 0.34038 0.62606 0.0925 0.0
N1165 N 0.33252 0.6697 0.13653 0.0
C1166 C 0.36917 0.65779 0.10514 0.0
C1167 C 0.37349 0.63409 0.08116 0.0
loop_
_geom_bond_atom_site_label_1
_geom_bond_atom_site_label_2
_geom_bond_distance
_geom_bond_site_symmetry_2
_ccdc_geom_bond_type
Tb0 C2 2.809 . S
Tb0 O20 2.484 . S
Tb0 O21 2.440 . S
Tb0 O22 2.658 1_655 S
Tb0 O23 2.409 1_655 S
Tb0 O24 2.378 1_655 S
Tb0 O28 2.325 1_564 S
Tb0 O31 2.341 1_565 S
Tb1 C11 2.809 . S
Tb1 O22 2.325 1_546 S
Tb1 O25 2.341 1_545 S
Tb1 O26 2.484 . S
Tb1 O27 2.440 . S
Tb1 O28 2.658 1_455 S
Tb1 O29 2.409 1_455 S
Tb1 O30 2.378 1_455 S
C2 Tb0 2.809 . S
C2 C3 1.514 . S
C2 O20 1.248 . S
C2 O21 1.266 . S
C3 C2 1.514 . S
C3 C4 1.359 . S
C3 C8 1.348 . S
C4 C3 1.359 . S
C4 C5 1.380 . S
C4 H32 0.929 1_554 S
C5 C4 1.380 . S
C5 C6 1.347 . S
C5 H33 0.931 1_554 S
C6 C5 1.347 . S
C6 C7 1.369 . S
C7 C6 1.369 . S
C7 C8 1.408 . S
C7 H34 0.930 . S
C8 C3 1.348 . S
C8 C7 1.408 . S
C8 H35 0.930 . S
C9 O22 1.281 . S
C9 O23 1.254 . S
C10 O24 1.236 1_556 S
C10 O25 1.266 . S
C11 Tb1 2.809 . S
C11 C12 1.514 . S
C11 O26 1.248 . S
C11 O27 1.266 . S
C12 C11 1.514 . S
C12 C13 1.359 . S
C12 C17 1.348 . S
C13 C12 1.359 . S
C13 C14 1.380 . S
C13 H36 0.929 1_556 S
C14 C13 1.380 . S
C14 C15 1.347 . S
C14 H37 0.931 1_556 S
C15 C14 1.347 . S
C15 C16 1.369 . S
C16 C15 1.369 . S
C16 C17 1.408 . S
C16 H38 0.930 . S
C17 C12 1.348 . S
C17 C16 1.408 . S
C17 H39 0.930 . S
C18 O28 1.281 . S
C18 O29 1.254 . S
C19 O30 1.236 1_554 S
C19 O31 1.266 . S
O20 Tb0 2.484 . S
O20 C2 1.248 . S
O21 Tb0 2.440 . S
O21 C2 1.266 . S
O22 Tb0 2.658 1_455 S
O22 Tb1 2.325 1_564 S
O22 C9 1.281 . S
O23 Tb0 2.409 1_455 S
O23 C9 1.254 . S
O24 Tb0 2.378 1_455 S
O24 C10 1.236 1_554 S
O25 Tb1 2.341 1_565 S
O25 C10 1.266 . S
O26 Tb1 2.484 . S
O26 C11 1.248 . S
O27 Tb1 2.440 . S
O27 C11 1.266 . S
O28 Tb0 2.325 1_546 S
O28 Tb1 2.658 1_655 S
O28 C18 1.281 . S
O29 Tb1 2.409 1_655 S
O29 C18 1.254 . S
O30 Tb1 2.378 1_655 S
O30 C19 1.236 1_556 S
O31 Tb0 2.341 1_545 S
O31 C19 1.266 . S
H32 C4 0.929 1_556 S
H33 C5 0.931 1_556 S
H34 C7 0.930 . S
H35 C8 0.930 . S
H36 C13 0.929 1_554 S
H37 C14 0.931 1_554 S
H38 C16 0.930 . S
H39 C17 0.930 . S
Tb40 C42 2.809 . S
Tb40 O60 2.485 . S
Tb40 O61 2.440 . S
Tb40 O62 2.658 . S
Tb40 O63 2.409 . S
Tb40 O64 2.378 1_455 S
Tb40 O68 2.325 1_455 S
Tb40 O71 2.341 . S
Tb41 C51 2.809 . S
Tb41 O62 2.325 1_655 S
Tb41 O65 2.341 . S
Tb41 O66 2.485 1_655 S
Tb41 O67 2.440 . S
Tb41 O68 2.658 . S
Tb41 O69 2.409 . S
Tb41 O70 2.378 1_655 S
C42 Tb40 2.809 . S
C42 C43 1.514 . S
C42 O60 1.256 . S
C42 O61 1.266 . S
C43 C42 1.514 . S
C43 C44 1.359 1_455 S
C43 C48 1.348 . S
C44 C43 1.359 1_655 S
C44 C45 1.380 . S
C44 H72 0.929 . S
C45 C44 1.380 . S
C45 C46 1.347 1_655 S
C45 H73 0.931 . S
C46 C45 1.347 1_455 S
C46 C47 1.369 . S
C47 C46 1.369 . S
C47 C48 1.408 . S
C47 H74 0.930 . S
C48 C43 1.348 . S
C48 C47 1.408 . S
C48 H75 0.930 . S
C49 O62 1.281 . S
C49 O63 1.254 . S
C50 O64 1.236 . S
C50 O65 1.266 . S
C51 Tb41 2.809 . S
C51 C52 1.514 . S
C51 O66 1.250 1_655 S
C51 O67 1.266 . S
C52 C51 1.514 . S
C52 C53 1.359 1_655 S
C52 C57 1.348 . S
C53 C52 1.359 1_455 S
C53 C54 1.380 . S
C53 H76 0.929 . S
C54 C53 1.380 . S
C54 C55 1.347 1_455 S
C54 H77 0.931 . S
C55 C54 1.347 1_655 S
C55 C56 1.369 . S
C56 C55 1.369 . S
C56 C57 1.408 . S
C56 H78 0.930 . S
C57 C52 1.348 . S
C57 C56 1.408 . S
C57 H79 0.930 . S
C58 O68 1.281 . S
C58 O69 1.254 . S
C59 O70 1.236 . S
C59 O71 1.266 . S
O60 Tb40 2.485 . S
O60 C42 1.256 . S
O61 Tb40 2.440 . S
O61 C42 1.266 . S
O62 Tb40 2.658 . S
O62 Tb41 2.325 1_455 S
O62 C49 1.281 . S
O63 Tb40 2.409 . S
O63 C49 1.254 . S
O64 Tb40 2.378 1_655 S
O64 C50 1.236 . S
O65 Tb41 2.341 . S
O65 C50 1.266 . S
O66 Tb41 2.485 1_455 S
O66 C51 1.250 1_455 S
O67 Tb41 2.440 . S
O67 C51 1.266 . S
O68 Tb40 2.325 1_655 S
O68 Tb41 2.658 . S
O68 C58 1.281 . S
O69 Tb41 2.409 . S
O69 C58 1.254 . S
O70 Tb41 2.378 1_455 S
O70 C59 1.236 . S
O71 Tb40 2.341 . S
O71 C59 1.266 . S
H72 C44 0.929 . S
H73 C45 0.931 . S
H74 C47 0.930 . S
H75 C48 0.930 . S
H76 C53 0.929 . S
H77 C54 0.931 . S
H78 C56 0.930 . S
H79 C57 0.930 . S
Tb80 C82 2.809 . S
Tb80 O100 2.484 . S
Tb80 O101 2.440 . S
Tb80 O102 2.658 . S
Tb80 O103 2.409 . S
Tb80 O104 2.378 . S
Tb80 O108 2.325 . S
Tb80 O111 2.341 . S
Tb81 C91 2.809 . S
Tb81 O102 2.325 . S
Tb81 O105 2.341 . S
Tb81 O106 2.484 . S
Tb81 O107 2.440 . S
Tb81 O108 2.658 . S
Tb81 O109 2.409 . S
Tb81 O110 2.378 . S
C82 Tb80 2.809 . S
C82 C83 1.514 . S
C82 O100 1.248 . S
C82 O101 1.266 . S
C83 C82 1.514 . S
C83 C84 1.359 . S
C83 C88 1.348 . S
C84 C83 1.359 . S
C84 C85 1.380 . S
C84 H112 0.929 . S
C85 C84 1.380 . S
C85 C86 1.347 . S
C85 H113 0.931 . S
C86 C85 1.347 . S
C86 C87 1.369 . S
C87 C86 1.369 . S
C87 C88 1.408 . S
C87 H114 0.930 . S
C88 C83 1.348 . S
C88 C87 1.408 . S
C88 H115 0.930 . S
C89 O102 1.281 . S
C89 O103 1.254 . S
C90 O104 1.236 . S
C90 O105 1.266 . S
C91 Tb81 2.809 . S
C91 C92 1.514 . S
C91 O106 1.248 . S
C91 O107 1.266 . S
C92 C91 1.514 . S
C92 C93 1.359 . S
C92 C97 1.348 . S
C93 C92 1.359 . S
C93 C94 1.380 . S
C93 H116 0.929 . S
C94 C93 1.380 . S
C94 C95 1.347 . S
C94 H117 0.931 . S
C95 C94 1.347 . S
C95 C96 1.369 . S
C96 C95 1.369 . S
C96 C97 1.408 . S
C96 H118 0.930 . S
C97 C92 1.348 . S
C97 C96 1.408 . S
C97 H119 0.930 . S
C98 O108 1.281 . S
C98 O109 1.254 . S
C99 O110 1.236 . S
C99 O111 1.266 . S
O100 Tb80 2.484 . S
O100 C82 1.248 . S
O101 Tb80 2.440 . S
O101 C82 1.266 . S
O102 Tb80 2.658 . S
O102 Tb81 2.325 . S
O102 C89 1.281 . S
O103 Tb80 2.409 . S
O103 C89 1.254 . S
O104 Tb80 2.378 . S
O104 C90 1.236 . S
O105 Tb81 2.341 . S
O105 C90 1.266 . S
O106 Tb81 2.484 . S
O106 C91 1.248 . S
O107 Tb81 2.440 . S
O107 C91 1.266 . S
O108 Tb80 2.325 . S
O108 Tb81 2.658 . S
O108 C98 1.281 . S
O109 Tb81 2.409 . S
O109 C98 1.254 . S
O110 Tb81 2.378 . S
O110 C99 1.236 . S
O111 Tb80 2.341 . S
O111 C99 1.266 . S
H112 C84 0.929 . S
H113 C85 0.931 . S
H114 C87 0.930 . S
H115 C88 0.930 . S
H116 C93 0.929 . S
H117 C94 0.931 . S
H118 C96 0.930 . S
H119 C97 0.930 . S
Tb120 C122 2.809 . S
Tb120 O140 2.484 . S
Tb120 O141 2.440 . S
Tb120 O142 2.658 1_565 S
Tb120 O143 2.409 1_565 S
Tb120 O144 2.380 . S
Tb120 O148 2.325 . S
Tb120 O151 2.341 1_565 S
Tb121 C131 2.809 . S
Tb121 O142 2.325 . S
Tb121 O145 2.342 1_545 S
Tb121 O146 2.484 . S
Tb121 O147 2.440 . S
Tb121 O148 2.658 1_545 S
Tb121 O149 2.409 1_545 S
Tb121 O150 2.378 . S
C122 Tb120 2.809 . S
C122 C123 1.514 . S
C122 O140 1.248 . S
C122 O141 1.266 . S
C123 C122 1.514 . S
C123 C124 1.359 . S
C123 C128 1.348 . S
C124 C123 1.359 . S
C124 C125 1.380 . S
C124 H152 0.929 . S
C125 C124 1.380 . S
C125 C126 1.347 . S
C125 H153 0.931 . S
C126 C125 1.347 . S
C126 C127 1.369 . S
C127 C126 1.369 . S
C127 C128 1.408 . S
C127 H154 0.930 . S
C128 C123 1.348 . S
C128 C127 1.408 . S
C128 H155 0.930 . S
C129 O142 1.281 . S
C129 O143 1.254 . S
C130 O144 1.235 . S
C130 O145 1.265 . S
C131 Tb121 2.809 . S
C131 C132 1.514 . S
C131 O146 1.248 . S
C131 O147 1.266 . S
C132 C131 1.514 . S
C132 C133 1.359 . S
C132 C137 1.348 . S
C133 C132 1.359 . S
C133 C134 1.380 . S
C133 H156 0.929 . S
C134 C133 1.380 . S
C134 C135 1.347 . S
C134 H157 0.931 . S
C135 C134 1.347 . S
C135 C136 1.369 . S
C136 C135 1.369 . S
C136 C137 1.408 . S
C136 H158 0.930 . S
C137 C132 1.348 . S
C137 C136 1.408 . S
C137 H159 0.930 . S
C138 O148 1.281 . S
C138 O149 1.254 . S
C139 O150 1.236 . S
C139 O151 1.266 . S
O140 Tb120 2.484 . S
O140 C122 1.248 . S
O141 Tb120 2.440 . S
O141 C122 1.266 . S
O142 Tb120 2.658 1_545 S
O142 Tb121 2.325 . S
O142 C129 1.281 . S
O143 Tb120 2.409 1_545 S
O143 C129 1.254 . S
O144 Tb120 2.380 . S
O144 C130 1.235 . S
O145 Tb121 2.342 1_565 S
O145 C130 1.265 . S
O146 Tb121 2.484 . S
O146 C131 1.248 . S
O147 Tb121 2.440 . S
O147 C131 1.266 . S
O148 Tb120 2.325 . S
O148 Tb121 2.658 1_565 S
O148 C138 1.281 . S
O149 Tb121 2.409 1_565 S
O149 C138 1.254 . S
O150 Tb121 2.378 . S
O150 C139 1.236 . S
O151 Tb120 2.341 1_545 S
O151 C139 1.266 . S
H152 C124 0.929 . S
H153 C125 0.931 . S
H154 C127 0.930 . S
H155 C128 0.930 . S
H156 C133 0.929 . S
H157 C134 0.931 . S
H158 C136 0.930 . S
H159 C137 0.930 . S
Tb160 C162 2.809 . S
Tb160 O180 2.484 . S
Tb160 O181 2.440 . S
Tb160 O182 2.658 . S
Tb160 O183 2.409 . S
Tb160 O184 2.378 . S
Tb160 O188 2.325 . S
Tb160 O191 2.341 . S
Tb161 C171 2.809 . S
Tb161 O182 2.325 . S
Tb161 O185 2.341 . S
Tb161 O186 2.484 . S
Tb161 O187 2.440 . S
Tb161 O188 2.658 . S
Tb161 O189 2.409 . S
Tb161 O190 2.378 . S
C162 Tb160 2.809 . S
C162 C163 1.514 . S
C162 O180 1.248 . S
C162 O181 1.266 . S
C163 C162 1.514 . S
C163 C164 1.359 . S
C163 C168 1.348 . S
C164 C163 1.359 . S
C164 C165 1.380 . S
C164 H192 0.929 . S
C165 C164 1.380 . S
C165 C166 1.347 . S
C165 H193 0.931 . S
C166 C165 1.347 . S
C166 C167 1.369 . S
C167 C166 1.369 . S
C167 C168 1.408 . S
C167 H194 0.930 . S
C168 C163 1.348 . S
C168 C167 1.408 . S
C168 H195 0.930 . S
C169 O182 1.281 . S
C169 O183 1.254 . S
C170 O184 1.236 . S
C170 O185 1.266 . S
C171 Tb161 2.809 . S
C171 C172 1.514 . S
C171 O186 1.248 . S
C171 O187 1.266 . S
C172 C171 1.514 . S
C172 C173 1.359 . S
C172 C177 1.348 . S
C173 C172 1.359 . S
C173 C174 1.380 . S
C173 H196 0.929 . S
C174 C173 1.380 . S
C174 C175 1.347 . S
C174 H197 0.931 . S
C175 C174 1.347 . S
C175 C176 1.369 . S
C176 C175 1.369 . S
C176 C177 1.408 . S
C176 H198 0.930 . S
C177 C172 1.348 . S
C177 C176 1.408 . S
C177 H199 0.930 . S
C178 O188 1.281 . S
C178 O189 1.254 . S
C179 O190 1.236 . S
C179 O191 1.266 . S
O180 Tb160 2.484 . S
O180 C162 1.248 . S
O181 Tb160 2.440 . S
O181 C162 1.266 . S
O182 Tb160 2.658 . S
O182 Tb161 2.325 . S
O182 C169 1.281 . S
O183 Tb160 2.409 . S
O183 C169 1.254 . S
O184 Tb160 2.378 . S
O184 C170 1.236 . S
O185 Tb161 2.341 . S
O185 C170 1.266 . S
O186 Tb161 2.484 . S
O186 C171 1.248 . S
O187 Tb161 2.440 . S
O187 C171 1.266 . S
O188 Tb160 2.325 . S
O188 Tb161 2.658 . S
O188 C178 1.281 . S
O189 Tb161 2.409 . S
O189 C178 1.254 . S
O190 Tb161 2.378 . S
O190 C179 1.236 . S
O191 Tb160 2.341 . S
O191 C179 1.266 . S
H192 C164 0.929 . S
H193 C165 0.931 . S
H194 C167 0.930 . S
H195 C168 0.930 . S
H196 C173 0.929 . S
H197 C174 0.931 . S
H198 C176 0.930 . S
H199 C177 0.930 . S
Tb200 C202 2.809 . S
Tb200 O220 2.484 . S
Tb200 O221 2.440 . S
Tb200 O222 2.658 . S
Tb200 O223 2.409 . S
Tb200 O224 2.378 . S
Tb200 O228 2.325 . S
Tb200 O231 2.341 . S
Tb201 C211 2.809 . S
Tb201 O222 2.325 . S
Tb201 O225 2.341 . S
Tb201 O226 2.484 . S
Tb201 O227 2.440 . S
Tb201 O228 2.658 . S
Tb201 O229 2.409 . S
Tb201 O230 2.378 . S
C202 Tb200 2.809 . S
C202 C203 1.514 . S
C202 O220 1.248 . S
C202 O221 1.266 . S
C203 C202 1.514 . S
C203 C204 1.359 . S
C203 C208 1.348 . S
C204 C203 1.359 . S
C204 C205 1.380 . S
C204 H232 0.929 . S
C205 C204 1.380 . S
C205 C206 1.347 . S
C205 H233 0.931 . S
C206 C205 1.347 . S
C206 C207 1.369 . S
C207 C206 1.369 . S
C207 C208 1.408 . S
C207 H234 0.930 . S
C208 C203 1.348 . S
C208 C207 1.408 . S
C208 H235 0.930 . S
C209 O222 1.281 . S
C209 O223 1.254 . S
C210 O224 1.236 . S
C210 O225 1.266 . S
C211 Tb201 2.809 . S
C211 C212 1.514 . S
C211 O226 1.248 . S
C211 O227 1.266 . S
C212 C211 1.514 . S
C212 C213 1.359 . S
C212 C217 1.348 . S
C213 C212 1.359 . S
C213 C214 1.380 . S
C213 H236 0.929 . S
C214 C213 1.380 . S
C214 C215 1.347 . S
C214 H237 0.931 . S
C215 C214 1.347 . S
C215 C216 1.369 . S
C216 C215 1.369 . S
C216 C217 1.408 . S
C216 H238 0.930 . S
C217 C212 1.348 . S
C217 C216 1.408 . S
C217 H239 0.930 . S
C218 O228 1.281 . S
C218 O229 1.254 . S
C219 O230 1.236 . S
C219 O231 1.266 . S
O220 Tb200 2.484 . S
O220 C202 1.248 . S
O221 Tb200 2.440 . S
O221 C202 1.266 . S
O222 Tb200 2.658 . S
O222 Tb201 2.325 . S
O222 C209 1.281 . S
O223 Tb200 2.409 . S
O223 C209 1.254 . S
O224 Tb200 2.378 . S
O224 C210 1.236 . S
O225 Tb201 2.341 . S
O225 C210 1.266 . S
O226 Tb201 2.484 . S
O226 C211 1.248 . S
O227 Tb201 2.440 . S
O227 C211 1.266 . S
O228 Tb200 2.325 . S
O228 Tb201 2.658 . S
O228 C218 1.281 . S
O229 Tb201 2.409 . S
O229 C218 1.254 . S
O230 Tb201 2.378 . S
O230 C219 1.236 . S
O231 Tb200 2.341 . S
O231 C219 1.266 . S
H232 C204 0.929 . S
H233 C205 0.931 . S
H234 C207 0.930 . S
H235 C208 0.930 . S
H236 C213 0.929 . S
H237 C214 0.931 . S
H238 C216 0.930 . S
H239 C217 0.930 . S
Tb240 C242 2.809 . S
Tb240 O260 2.484 . S
Tb240 O261 2.440 . S
Tb240 O262 2.658 . S
Tb240 O263 2.409 . S
Tb240 O264 2.378 . S
Tb240 O268 2.325 . S
Tb240 O271 2.341 . S
Tb241 C251 2.809 . S
Tb241 O262 2.325 . S
Tb241 O265 2.341 . S
Tb241 O266 2.484 . S
Tb241 O267 2.440 . S
Tb241 O268 2.658 . S
Tb241 O269 2.409 . S
Tb241 O270 2.378 . S
C242 Tb240 2.809 . S
C242 C243 1.514 . S
C242 O260 1.248 . S
C242 O261 1.266 . S
C243 C242 1.514 . S
C243 C244 1.359 . S
C243 C248 1.348 . S
C244 C243 1.359 . S
C244 C245 1.380 . S
C244 H272 0.929 . S
C245 C244 1.380 . S
C245 C246 1.347 . S
C245 H273 0.931 . S
C246 C245 1.347 . S
C246 C247 1.369 . S
C247 C246 1.369 . S
C247 C248 1.408 . S
C247 H274 0.930 . S
C248 C243 1.348 . S
C248 C247 1.408 . S
C248 H275 0.930 . S
C249 O262 1.281 . S
C249 O263 1.254 . S
C250 O264 1.236 . S
C250 O265 1.266 . S
C251 Tb241 2.809 . S
C251 C252 1.514 . S
C251 O266 1.248 . S
C251 O267 1.266 . S
C252 C251 1.514 . S
C252 C253 1.359 . S
C252 C257 1.348 . S
C253 C252 1.359 . S
C253 C254 1.380 . S
C253 H276 0.929 . S
C254 C253 1.380 . S
C254 C255 1.347 . S
C254 H277 0.931 . S
C255 C254 1.347 . S
C255 C256 1.369 . S
C256 C255 1.369 . S
C256 C257 1.408 . S
C256 H278 0.930 . S
C257 C252 1.348 . S
C257 C256 1.408 . S
C257 H279 0.930 . S
C258 O268 1.281 . S
C258 O269 1.254 . S
C259 O270 1.236 . S
C259 O271 1.266 . S
O260 Tb240 2.484 . S
O260 C242 1.248 . S
O261 Tb240 2.440 . S
O261 C242 1.266 . S
O262 Tb240 2.658 . S
O262 Tb241 2.325 . S
O262 C249 1.281 . S
O263 Tb240 2.409 . S
O263 C249 1.254 . S
O264 Tb240 2.378 . S
O264 C250 1.236 . S
O265 Tb241 2.341 . S
O265 C250 1.266 . S
O266 Tb241 2.484 . S
O266 C251 1.248 . S
O267 Tb241 2.440 . S
O267 C251 1.266 . S
O268 Tb240 2.325 . S
O268 Tb241 2.658 . S
O268 C258 1.281 . S
O269 Tb241 2.409 . S
O269 C258 1.254 . S
O270 Tb241 2.378 . S
O270 C259 1.236 . S
O271 Tb240 2.341 . S
O271 C259 1.266 . S
H272 C244 0.929 . S
H273 C245 0.931 . S
H274 C247 0.930 . S
H275 C248 0.930 . S
H276 C253 0.929 . S
H277 C254 0.931 . S
H278 C256 0.930 . S
H279 C257 0.930 . S
Tb280 C282 2.809 . S
Tb280 O300 2.484 . S
Tb280 O301 2.440 . S
Tb280 O302 2.658 1_655 S
Tb280 O303 2.409 1_655 S
Tb280 O304 2.378 1_655 S
Tb280 O308 2.325 . S
Tb280 O311 2.341 . S
Tb281 C291 2.809 . S
Tb281 O302 2.325 . S
Tb281 O305 2.341 . S
Tb281 O306 2.484 . S
Tb281 O307 2.440 . S
Tb281 O308 2.658 1_455 S
Tb281 O309 2.409 1_455 S
Tb281 O310 2.378 1_455 S
C282 Tb280 2.809 . S
C282 C283 1.514 . S
C282 O300 1.248 . S
C282 O301 1.266 . S
C283 C282 1.514 . S
C283 C284 1.359 . S
C283 C288 1.348 . S
C284 C283 1.359 . S
C284 C285 1.380 . S
C284 H312 0.929 . S
C285 C284 1.380 . S
C285 C286 1.347 . S
C285 H313 0.931 . S
C286 C285 1.347 . S
C286 C287 1.369 . S
C287 C286 1.369 . S
C287 C288 1.408 . S
C287 H314 0.930 . S
C288 C283 1.348 . S
C288 C287 1.408 . S
C288 H315 0.930 . S
C289 O302 1.281 . S
C289 O303 1.254 . S
C290 O304 1.236 . S
C290 O305 1.266 . S
C291 Tb281 2.809 . S
C291 C292 1.514 . S
C291 O306 1.248 . S
C291 O307 1.266 . S
C292 C291 1.514 . S
C292 C293 1.359 . S
C292 C297 1.348 . S
C293 C292 1.359 . S
C293 C294 1.380 . S
C293 H316 0.929 . S
C294 C293 1.380 . S
C294 C295 1.347 . S
C294 H317 0.931 . S
C295 C294 1.347 . S
C295 C296 1.369 . S
C296 C295 1.369 . S
C296 C297 1.408 . S
C296 H318 0.930 . S
C297 C292 1.348 . S
C297 C296 1.408 . S
C297 H319 0.930 . S
C298 O308 1.281 . S
C298 O309 1.254 . S
C299 O310 1.236 . S
C299 O311 1.266 . S
O300 Tb280 2.484 . S
O300 C282 1.248 . S
O301 Tb280 2.440 . S
O301 C282 1.266 . S
O302 Tb280 2.658 1_455 S
O302 Tb281 2.325 . S
O302 C289 1.281 . S
O303 Tb280 2.409 1_455 S
O303 C289 1.254 . S
O304 Tb280 2.378 1_455 S
O304 C290 1.236 . S
O305 Tb281 2.341 . S
O305 C290 1.266 . S
O306 Tb281 2.484 . S
O306 C291 1.248 . S
O307 Tb281 2.440 . S
O307 C291 1.266 . S
O308 Tb280 2.325 . S
O308 Tb281 2.658 1_655 S
O308 C298 1.281 . S
O309 Tb281 2.409 1_655 S
O309 C298 1.254 . S
O310 Tb281 2.378 1_655 S
O310 C299 1.236 . S
O311 Tb280 2.341 . S
O311 C299 1.266 . S
H312 C284 0.929 . S
H313 C285 0.931 . S
H314 C287 0.930 . S
H315 C288 0.930 . S
H316 C293 0.929 . S
H317 C294 0.931 . S
H318 C296 0.930 . S
H319 C297 0.930 . S
Tb320 C322 2.809 . S
Tb320 O340 2.484 . S
Tb320 O341 2.440 . S
Tb320 O342 2.658 . S
Tb320 O343 2.409 . S
Tb320 O344 2.378 . S
Tb320 O348 2.325 1_554 S
Tb320 O351 2.341 . S
Tb321 C331 2.809 . S
Tb321 O342 2.325 1_556 S
Tb321 O345 2.341 . S
Tb321 O346 2.484 . S
Tb321 O347 2.440 . S
Tb321 O348 2.658 . S
Tb321 O349 2.409 . S
Tb321 O350 2.378 . S
C322 Tb320 2.809 . S
C322 C323 1.514 . S
C322 O340 1.248 . S
C322 O341 1.266 . S
C323 C322 1.514 . S
C323 C324 1.359 . S
C323 C328 1.348 . S
C324 C323 1.359 . S
C324 C325 1.380 . S
C324 H352 0.929 1_554 S
C325 C324 1.380 . S
C325 C326 1.347 . S
C325 H353 0.931 1_554 S
C326 C325 1.347 . S
C326 C327 1.369 . S
C327 C326 1.369 . S
C327 C328 1.408 . S
C327 H354 0.930 . S
C328 C323 1.348 . S
C328 C327 1.408 . S
C328 H355 0.930 . S
C329 O342 1.281 . S
C329 O343 1.254 . S
C330 O344 1.236 1_556 S
C330 O345 1.266 . S
C331 Tb321 2.809 . S
C331 C332 1.514 . S
C331 O346 1.248 . S
C331 O347 1.266 . S
C332 C331 1.514 . S
C332 C333 1.359 . S
C332 C337 1.348 . S
C333 C332 1.359 . S
C333 C334 1.380 . S
C333 H356 0.929 1_556 S
C334 C333 1.380 . S
C334 C335 1.347 . S
C334 H357 0.931 1_556 S
C335 C334 1.347 . S
C335 C336 1.369 . S
C336 C335 1.369 . S
C336 C337 1.408 . S
C336 H358 0.930 . S
C337 C332 1.348 . S
C337 C336 1.408 . S
C337 H359 0.930 . S
C338 O348 1.281 . S
C338 O349 1.254 . S
C339 O350 1.236 1_554 S
C339 O351 1.266 . S
O340 Tb320 2.484 . S
O340 C322 1.248 . S
O341 Tb320 2.440 . S
O341 C322 1.266 . S
O342 Tb320 2.658 . S
O342 Tb321 2.325 1_554 S
O342 C329 1.281 . S
O343 Tb320 2.409 . S
O343 C329 1.254 . S
O344 Tb320 2.378 . S
O344 C330 1.236 1_554 S
O345 Tb321 2.341 . S
O345 C330 1.266 . S
O346 Tb321 2.484 . S
O346 C331 1.248 . S
O347 Tb321 2.440 . S
O347 C331 1.266 . S
O348 Tb320 2.325 1_556 S
O348 Tb321 2.658 . S
O348 C338 1.281 . S
O349 Tb321 2.409 . S
O349 C338 1.254 . S
O350 Tb321 2.378 . S
O350 C339 1.236 1_556 S
O351 Tb320 2.341 . S
O351 C339 1.266 . S
H352 C324 0.929 1_556 S
H353 C325 0.931 1_556 S
H354 C327 0.930 . S
H355 C328 0.930 . S
H356 C333 0.929 1_554 S
H357 C334 0.931 1_554 S
H358 C336 0.930 . S
H359 C337 0.930 . S
Tb360 C362 2.809 . S
Tb360 O380 2.484 . S
Tb360 O381 2.440 . S
Tb360 O382 2.658 1_565 S
Tb360 O383 2.409 1_565 S
Tb360 O384 2.379 . S
Tb360 O388 2.325 . S
Tb360 O391 2.341 1_565 S
Tb361 C371 2.809 . S
Tb361 O382 2.325 . S
Tb361 O385 2.342 1_545 S
Tb361 O386 2.484 . S
Tb361 O387 2.440 . S
Tb361 O388 2.658 1_545 S
Tb361 O389 2.409 1_545 S
Tb361 O390 2.378 . S
C362 Tb360 2.809 . S
C362 C363 1.514 . S
C362 O380 1.248 . S
C362 O381 1.266 . S
C363 C362 1.514 . S
C363 C364 1.359 . S
C363 C368 1.348 . S
C364 C363 1.359 . S
C364 C365 1.380 . S
C364 H392 0.929 . S
C365 C364 1.380 . S
C365 C366 1.347 . S
C365 H393 0.931 . S
C366 C365 1.347 . S
C366 C367 1.369 . S
C367 C366 1.369 . S
C367 C368 1.408 . S
C367 H394 0.930 . S
C368 C363 1.348 . S
C368 C367 1.408 . S
C368 H395 0.930 . S
C369 O382 1.281 . S
C369 O383 1.254 . S
C370 O384 1.236 . S
C370 O385 1.265 . S
C371 Tb361 2.809 . S
C371 C372 1.514 . S
C371 O386 1.248 . S
C371 O387 1.266 . S
C372 C371 1.514 . S
C372 C373 1.359 . S
C372 C377 1.348 . S
C373 C372 1.359 . S
C373 C374 1.380 . S
C373 H396 0.929 . S
C374 C373 1.380 . S
C374 C375 1.347 . S
C374 H397 0.931 . S
C375 C374 1.347 . S
C375 C376 1.369 . S
C376 C375 1.369 . S
C376 C377 1.408 . S
C376 H398 0.930 . S
C377 C372 1.348 . S
C377 C376 1.408 . S
C377 H399 0.930 . S
C378 O388 1.281 . S
C378 O389 1.254 . S
C379 O390 1.236 . S
C379 O391 1.266 . S
O380 Tb360 2.484 . S
O380 C362 1.248 . S
O381 Tb360 2.440 . S
O381 C362 1.266 . S
O382 Tb360 2.658 1_545 S
O382 Tb361 2.325 . S
O382 C369 1.281 . S
O383 Tb360 2.409 1_545 S
O383 C369 1.254 . S
O384 Tb360 2.379 . S
O384 C370 1.236 . S
O385 Tb361 2.342 1_565 S
O385 C370 1.265 . S
O386 Tb361 2.484 . S
O386 C371 1.248 . S
O387 Tb361 2.440 . S
O387 C371 1.266 . S
O388 Tb360 2.325 . S
O388 Tb361 2.658 1_565 S
O388 C378 1.281 . S
O389 Tb361 2.409 1_565 S
O389 C378 1.254 . S
O390 Tb361 2.378 . S
O390 C379 1.236 . S
O391 Tb360 2.341 1_545 S
O391 C379 1.266 . S
H392 C364 0.929 . S
H393 C365 0.931 . S
H394 C367 0.930 . S
H395 C368 0.930 . S
H396 C373 0.929 . S
H397 C374 0.931 . S
H398 C376 0.930 . S
H399 C377 0.930 . S
Tb400 C402 2.809 . S
Tb400 O420 2.484 . S
Tb400 O421 2.440 . S
Tb400 O422 2.658 . S
Tb400 O423 2.409 . S
Tb400 O424 2.378 . S
Tb400 O428 2.325 . S
Tb400 O431 2.341 . S
Tb401 C411 2.809 . S
Tb401 O422 2.325 . S
Tb401 O425 2.341 . S
Tb401 O426 2.484 . S
Tb401 O427 2.440 . S
Tb401 O428 2.658 . S
Tb401 O429 2.409 . S
Tb401 O430 2.378 . S
C402 Tb400 2.809 . S
C402 C403 1.514 . S
C402 O420 1.248 . S
C402 O421 1.266 . S
C403 C402 1.514 . S
C403 C404 1.359 . S
C403 C408 1.348 . S
C404 C403 1.359 . S
C404 C405 1.380 . S
C404 H432 0.929 . S
C405 C404 1.380 . S
C405 C406 1.347 . S
C405 H433 0.931 . S
C406 C405 1.347 . S
C406 C407 1.369 . S
C407 C406 1.369 . S
C407 C408 1.408 . S
C407 H434 0.930 . S
C408 C403 1.348 . S
C408 C407 1.408 . S
C408 H435 0.930 . S
C409 O422 1.281 . S
C409 O423 1.254 . S
C410 O424 1.236 . S
C410 O425 1.266 . S
C411 Tb401 2.809 . S
C411 C412 1.514 . S
C411 O426 1.248 . S
C411 O427 1.266 . S
C412 C411 1.514 . S
C412 C413 1.359 . S
C412 C417 1.348 . S
C413 C412 1.359 . S
C413 C414 1.380 . S
C413 H436 0.929 . S
C414 C413 1.380 . S
C414 C415 1.347 . S
C414 H437 0.931 . S
C415 C414 1.347 . S
C415 C416 1.369 . S
C416 C415 1.369 . S
C416 C417 1.408 . S
C416 H438 0.930 . S
C417 C412 1.348 . S
C417 C416 1.408 . S
C417 H439 0.930 . S
C418 O428 1.281 . S
C418 O429 1.254 . S
C419 O430 1.236 . S
C419 O431 1.266 . S
O420 Tb400 2.484 . S
O420 C402 1.248 . S
O421 Tb400 2.440 . S
O421 C402 1.266 . S
O422 Tb400 2.658 . S
O422 Tb401 2.325 . S
O422 C409 1.281 . S
O423 Tb400 2.409 . S
O423 C409 1.254 . S
O424 Tb400 2.378 . S
O424 C410 1.236 . S
O425 Tb401 2.341 . S
O425 C410 1.266 . S
O426 Tb401 2.484 . S
O426 C411 1.248 . S
O427 Tb401 2.440 . S
O427 C411 1.266 . S
O428 Tb400 2.325 . S
O428 Tb401 2.658 . S
O428 C418 1.281 . S
O429 Tb401 2.409 . S
O429 C418 1.254 . S
O430 Tb401 2.378 . S
O430 C419 1.236 . S
O431 Tb400 2.341 . S
O431 C419 1.266 . S
H432 C404 0.929 . S
H433 C405 0.931 . S
H434 C407 0.930 . S
H435 C408 0.930 . S
H436 C413 0.929 . S
H437 C414 0.931 . S
H438 C416 0.930 . S
H439 C417 0.930 . S
Tb440 C442 2.809 . S
Tb440 O460 2.485 . S
Tb440 O461 2.440 . S
Tb440 O462 2.658 . S
Tb440 O463 2.409 . S
Tb440 O464 2.378 1_455 S
Tb440 O468 2.325 1_455 S
Tb440 O471 2.341 . S
Tb441 C451 2.809 . S
Tb441 O462 2.325 1_655 S
Tb441 O465 2.341 . S
Tb441 O466 2.484 1_655 S
Tb441 O467 2.440 . S
Tb441 O468 2.658 . S
Tb441 O469 2.409 . S
Tb441 O470 2.378 1_655 S
C442 Tb440 2.809 . S
C442 C443 1.514 . S
C442 O460 1.255 . S
C442 O461 1.266 . S
C443 C442 1.514 . S
C443 C444 1.359 1_455 S
C443 C448 1.348 . S
C444 C443 1.359 1_655 S
C444 C445 1.380 . S
C444 H472 0.929 . S
C445 C444 1.380 . S
C445 C446 1.347 1_655 S
C445 H473 0.931 . S
C446 C445 1.347 1_455 S
C446 C447 1.369 . S
C447 C446 1.369 . S
C447 C448 1.408 . S
C447 H474 0.930 . S
C448 C443 1.348 . S
C448 C447 1.408 . S
C448 H475 0.930 . S
C449 O462 1.281 . S
C449 O463 1.254 . S
C450 O464 1.236 . S
C450 O465 1.266 . S
C451 Tb441 2.809 . S
C451 C452 1.514 . S
C451 O466 1.249 1_655 S
C451 O467 1.266 . S
C452 C451 1.514 . S
C452 C453 1.359 1_655 S
C452 C457 1.348 . S
C453 C452 1.359 1_455 S
C453 C454 1.380 . S
C453 H476 0.929 . S
C454 C453 1.380 . S
C454 C455 1.347 1_455 S
C454 H477 0.931 . S
C455 C454 1.347 1_655 S
C455 C456 1.369 . S
C456 C455 1.369 . S
C456 C457 1.408 . S
C456 H478 0.930 . S
C457 C452 1.348 . S
C457 C456 1.408 . S
C457 H479 0.930 . S
C458 O468 1.281 . S
C458 O469 1.254 . S
C459 O470 1.236 . S
C459 O471 1.266 . S
O460 Tb440 2.485 . S
O460 C442 1.255 . S
O461 Tb440 2.440 . S
O461 C442 1.266 . S
O462 Tb440 2.658 . S
O462 Tb441 2.325 1_455 S
O462 C449 1.281 . S
O463 Tb440 2.409 . S
O463 C449 1.254 . S
O464 Tb440 2.378 1_655 S
O464 C450 1.236 . S
O465 Tb441 2.341 . S
O465 C450 1.266 . S
O466 Tb441 2.484 1_455 S
O466 C451 1.249 1_455 S
O467 Tb441 2.440 . S
O467 C451 1.266 . S
O468 Tb440 2.325 1_655 S
O468 Tb441 2.658 . S
O468 C458 1.281 . S
O469 Tb441 2.409 . S
O469 C458 1.254 . S
O470 Tb441 2.378 1_455 S
O470 C459 1.236 . S
O471 Tb440 2.341 . S
O471 C459 1.266 . S
H472 C444 0.929 . S
H473 C445 0.931 . S
H474 C447 0.930 . S
H475 C448 0.930 . S
H476 C453 0.929 . S
H477 C454 0.931 . S
H478 C456 0.930 . S
H479 C457 0.930 . S
Tb480 C482 2.809 . S
Tb480 O500 2.484 . S
Tb480 O501 2.440 . S
Tb480 O502 2.658 . S
Tb480 O503 2.409 . S
Tb480 O504 2.378 . S
Tb480 O508 2.325 . S
Tb480 O511 2.341 . S
Tb481 C491 2.809 . S
Tb481 O502 2.325 . S
Tb481 O505 2.341 . S
Tb481 O506 2.484 . S
Tb481 O507 2.440 . S
Tb481 O508 2.658 . S
Tb481 O509 2.409 . S
Tb481 O510 2.378 . S
C482 Tb480 2.809 . S
C482 C483 1.514 . S
C482 O500 1.248 . S
C482 O501 1.266 . S
C483 C482 1.514 . S
C483 C484 1.359 . S
C483 C488 1.348 . S
C484 C483 1.359 . S
C484 C485 1.380 . S
C484 H512 0.929 . S
C485 C484 1.380 . S
C485 C486 1.347 . S
C485 H513 0.931 . S
C486 C485 1.347 . S
C486 C487 1.369 . S
C487 C486 1.369 . S
C487 C488 1.408 . S
C487 H514 0.930 . S
C488 C483 1.348 . S
C488 C487 1.408 . S
C488 H515 0.930 . S
C489 O502 1.281 . S
C489 O503 1.254 . S
C490 O504 1.236 . S
C490 O505 1.266 . S
C491 Tb481 2.809 . S
C491 C492 1.514 . S
C491 O506 1.248 . S
C491 O507 1.266 . S
C492 C491 1.514 . S
C492 C493 1.359 . S
C492 C497 1.348 . S
C493 C492 1.359 . S
C493 C494 1.380 . S
C493 H516 0.929 . S
C494 C493 1.380 . S
C494 C495 1.347 . S
C494 H517 0.931 . S
C495 C494 1.347 . S
C495 C496 1.369 . S
C496 C495 1.369 . S
C496 C497 1.408 . S
C496 H518 0.930 . S
C497 C492 1.348 . S
C497 C496 1.408 . S
C497 H519 0.930 . S
C498 O508 1.281 . S
C498 O509 1.254 . S
C499 O510 1.236 . S
C499 O511 1.266 . S
O500 Tb480 2.484 . S
O500 C482 1.248 . S
O501 Tb480 2.440 . S
O501 C482 1.266 . S
O502 Tb480 2.658 . S
O502 Tb481 2.325 . S
O502 C489 1.281 . S
O503 Tb480 2.409 . S
O503 C489 1.254 . S
O504 Tb480 2.378 . S
O504 C490 1.236 . S
O505 Tb481 2.341 . S
O505 C490 1.266 . S
O506 Tb481 2.484 . S
O506 C491 1.248 . S
O507 Tb481 2.440 . S
O507 C491 1.266 . S
O508 Tb480 2.325 . S
O508 Tb481 2.658 . S
O508 C498 1.281 . S
O509 Tb481 2.409 . S
O509 C498 1.254 . S
O510 Tb481 2.378 . S
O510 C499 1.236 . S
O511 Tb480 2.341 . S
O511 C499 1.266 . S
H512 C484 0.929 . S
H513 C485 0.931 . S
H514 C487 0.930 . S
H515 C488 0.930 . S
H516 C493 0.929 . S
H517 C494 0.931 . S
H518 C496 0.930 . S
H519 C497 0.930 . S
Tb520 C522 2.809 . S
Tb520 O540 2.484 . S
Tb520 O541 2.440 . S
Tb520 O542 2.658 . S
Tb520 O543 2.409 . S
Tb520 O544 2.378 . S
Tb520 O548 2.325 1_554 S
Tb520 O551 2.341 . S
Tb521 C531 2.809 . S
Tb521 O542 2.325 1_556 S
Tb521 O545 2.341 . S
Tb521 O546 2.484 . S
Tb521 O547 2.440 . S
Tb521 O548 2.658 . S
Tb521 O549 2.409 . S
Tb521 O550 2.378 . S
C522 Tb520 2.809 . S
C522 C523 1.514 . S
C522 O540 1.248 . S
C522 O541 1.266 . S
C523 C522 1.514 . S
C523 C524 1.359 . S
C523 C528 1.348 . S
C524 C523 1.359 . S
C524 C525 1.380 . S
C524 H552 0.929 1_554 S
C525 C524 1.380 . S
C525 C526 1.347 . S
C525 H553 0.931 1_554 S
C526 C525 1.347 . S
C526 C527 1.369 . S
C527 C526 1.369 . S
C527 C528 1.408 . S
C527 H554 0.930 . S
C528 C523 1.348 . S
C528 C527 1.408 . S
C528 H555 0.930 . S
C529 O542 1.281 . S
C529 O543 1.254 . S
C530 O544 1.236 1_556 S
C530 O545 1.266 . S
C531 Tb521 2.809 . S
C531 C532 1.514 . S
C531 O546 1.248 . S
C531 O547 1.266 . S
C532 C531 1.514 . S
C532 C533 1.359 . S
C532 C537 1.348 . S
C533 C532 1.359 . S
C533 C534 1.380 . S
C533 H556 0.929 1_556 S
C534 C533 1.380 . S
C534 C535 1.347 . S
C534 H557 0.931 1_556 S
C535 C534 1.347 . S
C535 C536 1.369 . S
C536 C535 1.369 . S
C536 C537 1.408 . S
C536 H558 0.930 . S
C537 C532 1.348 . S
C537 C536 1.408 . S
C537 H559 0.930 . S
C538 O548 1.281 . S
C538 O549 1.254 . S
C539 O550 1.236 1_554 S
C539 O551 1.266 . S
O540 Tb520 2.484 . S
O540 C522 1.248 . S
O541 Tb520 2.440 . S
O541 C522 1.266 . S
O542 Tb520 2.658 . S
O542 Tb521 2.325 1_554 S
O542 C529 1.281 . S
O543 Tb520 2.409 . S
O543 C529 1.254 . S
O544 Tb520 2.378 . S
O544 C530 1.236 1_554 S
O545 Tb521 2.341 . S
O545 C530 1.266 . S
O546 Tb521 2.484 . S
O546 C531 1.248 . S
O547 Tb521 2.440 . S
O547 C531 1.266 . S
O548 Tb520 2.325 1_556 S
O548 Tb521 2.658 . S
O548 C538 1.281 . S
O549 Tb521 2.409 . S
O549 C538 1.254 . S
O550 Tb521 2.378 . S
O550 C539 1.236 1_556 S
O551 Tb520 2.341 . S
O551 C539 1.266 . S
H552 C524 0.929 1_556 S
H553 C525 0.931 1_556 S
H554 C527 0.930 . S
H555 C528 0.930 . S
H556 C533 0.929 1_554 S
H557 C534 0.931 1_554 S
H558 C536 0.930 . S
H559 C537 0.930 . S
Tb560 C562 2.809 . S
Tb560 O580 2.484 . S
Tb560 O581 2.440 . S
Tb560 O582 2.658 . S
Tb560 O583 2.409 . S
Tb560 O584 2.378 . S
Tb560 O588 2.325 1_565 S
Tb560 O591 2.341 1_565 S
Tb561 C571 2.809 . S
Tb561 O582 2.325 1_545 S
Tb561 O585 2.341 1_545 S
Tb561 O586 2.484 . S
Tb561 O587 2.440 . S
Tb561 O588 2.658 . S
Tb561 O589 2.409 . S
Tb561 O590 2.378 . S
C562 Tb560 2.809 . S
C562 C563 1.514 . S
C562 O580 1.248 . S
C562 O581 1.266 . S
C563 C562 1.514 . S
C563 C564 1.359 . S
C563 C568 1.348 . S
C564 C563 1.359 . S
C564 C565 1.380 . S
C564 H592 0.929 . S
C565 C564 1.380 . S
C565 C566 1.347 . S
C565 H593 0.931 . S
C566 C565 1.347 . S
C566 C567 1.369 . S
C567 C566 1.369 . S
C567 C568 1.408 . S
C567 H594 0.930 . S
C568 C563 1.348 . S
C568 C567 1.408 . S
C568 H595 0.930 . S
C569 O582 1.281 . S
C569 O583 1.254 . S
C570 O584 1.236 . S
C570 O585 1.266 . S
C571 Tb561 2.809 . S
C571 C572 1.514 . S
C571 O586 1.248 . S
C571 O587 1.266 . S
C572 C571 1.514 . S
C572 C573 1.359 . S
C572 C577 1.348 . S
C573 C572 1.359 . S
C573 C574 1.380 . S
C573 H596 0.929 . S
C574 C573 1.380 . S
C574 C575 1.347 . S
C574 H597 0.931 . S
C575 C574 1.347 . S
C575 C576 1.369 . S
C576 C575 1.369 . S
C576 C577 1.408 . S
C576 H598 0.930 . S
C577 C572 1.348 . S
C577 C576 1.408 . S
C577 H599 0.930 . S
C578 O588 1.281 . S
C578 O589 1.254 . S
C579 O590 1.236 . S
C579 O591 1.266 . S
O580 Tb560 2.484 . S
O580 C562 1.248 . S
O581 Tb560 2.440 . S
O581 C562 1.266 . S
O582 Tb560 2.658 . S
O582 Tb561 2.325 1_565 S
O582 C569 1.281 . S
O583 Tb560 2.409 . S
O583 C569 1.254 . S
O584 Tb560 2.378 . S
O584 C570 1.236 . S
O585 Tb561 2.341 1_565 S
O585 C570 1.266 . S
O586 Tb561 2.484 . S
O586 C571 1.248 . S
O587 Tb561 2.440 . S
O587 C571 1.266 . S
O588 Tb560 2.325 1_545 S
O588 Tb561 2.658 . S
O588 C578 1.281 . S
O589 Tb561 2.409 . S
O589 C578 1.254 . S
O590 Tb561 2.378 . S
O590 C579 1.236 . S
O591 Tb560 2.341 1_545 S
O591 C579 1.266 . S
H592 C564 0.929 . S
H593 C565 0.931 . S
H594 C567 0.930 . S
H595 C568 0.930 . S
H596 C573 0.929 . S
H597 C574 0.931 . S
H598 C576 0.930 . S
H599 C577 0.930 . S
Tb600 C602 2.809 . S
Tb600 O620 2.484 . S
Tb600 O621 2.440 . S
Tb600 O622 2.658 . S
Tb600 O623 2.409 . S
Tb600 O624 2.378 . S
Tb600 O628 2.325 1_554 S
Tb600 O631 2.341 . S
Tb601 C611 2.809 . S
Tb601 O622 2.325 1_556 S
Tb601 O625 2.341 . S
Tb601 O626 2.484 . S
Tb601 O627 2.440 . S
Tb601 O628 2.658 . S
Tb601 O629 2.409 . S
Tb601 O630 2.378 . S
C602 Tb600 2.809 . S
C602 C603 1.514 . S
C602 O620 1.248 . S
C602 O621 1.266 . S
C603 C602 1.514 . S
C603 C604 1.359 . S
C603 C608 1.348 . S
C604 C603 1.359 . S
C604 C605 1.380 . S
C604 H632 0.929 1_554 S
C605 C604 1.380 . S
C605 C606 1.347 . S
C605 H633 0.931 1_554 S
C606 C605 1.347 . S
C606 C607 1.369 . S
C607 C606 1.369 . S
C607 C608 1.408 . S
C607 H634 0.930 . S
C608 C603 1.348 . S
C608 C607 1.408 . S
C608 H635 0.930 . S
C609 O622 1.281 . S
C609 O623 1.254 . S
C610 O624 1.236 1_556 S
C610 O625 1.266 . S
C611 Tb601 2.809 . S
C611 C612 1.514 . S
C611 O626 1.248 . S
C611 O627 1.266 . S
C612 C611 1.514 . S
C612 C613 1.359 . S
C612 C617 1.348 . S
C613 C612 1.359 . S
C613 C614 1.380 . S
C613 H636 0.929 1_556 S
C614 C613 1.380 . S
C614 C615 1.347 . S
C614 H637 0.931 1_556 S
C615 C614 1.347 . S
C615 C616 1.369 . S
C616 C615 1.369 . S
C616 C617 1.408 . S
C616 H638 0.930 . S
C617 C612 1.348 . S
C617 C616 1.408 . S
C617 H639 0.930 . S
C618 O628 1.281 . S
C618 O629 1.254 . S
C619 O630 1.236 1_554 S
C619 O631 1.266 . S
O620 Tb600 2.484 . S
O620 C602 1.248 . S
O621 Tb600 2.440 . S
O621 C602 1.266 . S
O622 Tb600 2.658 . S
O622 Tb601 2.325 1_554 S
O622 C609 1.281 . S
O623 Tb600 2.409 . S
O623 C609 1.254 . S
O624 Tb600 2.378 . S
O624 C610 1.236 1_554 S
O625 Tb601 2.341 . S
O625 C610 1.266 . S
O626 Tb601 2.484 . S
O626 C611 1.248 . S
O627 Tb601 2.440 . S
O627 C611 1.266 . S
O628 Tb600 2.325 1_556 S
O628 Tb601 2.658 . S
O628 C618 1.281 . S
O629 Tb601 2.409 . S
O629 C618 1.254 . S
O630 Tb601 2.378 . S
O630 C619 1.236 1_556 S
O631 Tb600 2.341 . S
O631 C619 1.266 . S
H632 C604 0.929 1_556 S
H633 C605 0.931 1_556 S
H634 C607 0.930 . S
H635 C608 0.930 . S
H636 C613 0.929 1_554 S
H637 C614 0.931 1_554 S
H638 C616 0.930 . S
H639 C617 0.930 . S
C640 C641 1.369 1_556 S
C640 C642 1.419 . S
C640 H644 0.930 . S
C641 C640 1.369 1_554 S
C641 C650 1.429 . S
C642 C640 1.419 . S
C642 C643 1.363 1_556 S
C642 H645 0.929 . S
C643 C642 1.363 1_554 S
C643 C649 1.428 . S
H644 C640 0.930 . S
H645 C642 0.929 . S
S646 N647 1.613 . S
S646 N648 1.610 . S
N647 S646 1.613 . S
N647 C650 1.350 . S
N648 S646 1.610 . S
N648 C649 1.351 . S
C649 C643 1.428 . S
C649 N648 1.351 . S
C649 C650 1.434 . S
C650 C641 1.429 . S
C650 N647 1.350 . S
C650 C649 1.434 . S
C651 C652 1.369 . S
C651 C653 1.419 . S
C651 H655 0.930 . S
C652 C651 1.369 . S
C652 C661 1.429 . S
C653 C651 1.419 . S
C653 C654 1.363 . S
C653 H656 0.929 . S
C654 C653 1.363 . S
C654 C660 1.428 . S
H655 C651 0.930 . S
H656 C653 0.929 . S
S657 N658 1.613 . S
S657 N659 1.610 . S
N658 S657 1.613 . S
N658 C661 1.350 . S
N659 S657 1.610 . S
N659 C660 1.351 . S
C660 C654 1.428 . S
C660 N659 1.351 . S
C660 C661 1.434 . S
C661 C652 1.429 . S
C661 N658 1.350 . S
C661 C660 1.434 . S
C662 C663 1.369 . S
C662 C664 1.419 . S
C662 H666 0.930 . S
C663 C662 1.369 . S
C663 C672 1.429 . S
C664 C662 1.419 . S
C664 C665 1.363 . S
C664 H667 0.929 . S
C665 C664 1.363 . S
C665 C671 1.428 . S
H666 C662 0.930 . S
H667 C664 0.929 . S
S668 N669 1.613 . S
S668 N670 1.610 . S
N669 S668 1.613 . S
N669 C672 1.350 . S
N670 S668 1.610 . S
N670 C671 1.351 . S
C671 C665 1.428 . S
C671 N670 1.351 . S
C671 C672 1.434 . S
C672 C663 1.429 . S
C672 N669 1.350 . S
C672 C671 1.434 . S
C673 C674 1.369 . S
C673 C675 1.419 1_545 S
C673 H677 0.930 1_545 S
C674 C673 1.369 . S
C674 C683 1.429 . S
C675 C673 1.419 1_565 S
C675 C676 1.363 . S
C675 H678 0.929 . S
C676 C675 1.363 . S
C676 C682 1.428 1_565 S
H677 C673 0.930 1_565 S
H678 C675 0.929 . S
S679 N680 1.613 . S
S679 N681 1.610 . S
N680 S679 1.613 . S
N680 C683 1.350 . S
N681 S679 1.610 . S
N681 C682 1.351 . S
C682 C676 1.428 1_545 S
C682 N681 1.351 . S
C682 C683 1.434 . S
C683 C674 1.429 . S
C683 N680 1.350 . S
C683 C682 1.434 . S
C684 C685 1.369 . S
C684 C686 1.419 . S
C684 H688 0.930 . S
C685 C684 1.369 . S
C685 C694 1.429 1_565 S
C686 C684 1.419 . S
C686 C687 1.363 1_565 S
C686 H689 0.929 . S
C687 C686 1.363 1_545 S
C687 C693 1.428 . S
H688 C684 0.930 . S
H689 C686 0.929 . S
S690 N691 1.613 . S
S690 N692 1.610 . S
N691 S690 1.613 . S
N691 C694 1.350 . S
N692 S690 1.610 . S
N692 C693 1.351 . S
C693 C687 1.428 . S
C693 N692 1.351 . S
C693 C694 1.434 . S
C694 C685 1.429 1_545 S
C694 N691 1.350 . S
C694 C693 1.434 . S
C695 C696 1.369 1_655 S
C695 C697 1.419 . S
C695 H699 0.930 . S
C696 C695 1.369 1_455 S
C696 C705 1.429 . S
C697 C695 1.419 . S
C697 C698 1.363 1_655 S
C697 H700 0.929 . S
C698 C697 1.363 1_455 S
C698 C704 1.428 . S
H699 C695 0.930 . S
H700 C697 0.929 . S
S701 N702 1.613 . S
S701 N703 1.610 . S
N702 S701 1.613 . S
N702 C705 1.350 . S
N703 S701 1.610 . S
N703 C704 1.351 . S
C704 C698 1.428 . S
C704 N703 1.351 . S
C704 C705 1.434 . S
C705 C696 1.429 . S
C705 N702 1.350 . S
C705 C704 1.434 . S
C706 C707 1.369 . S
C706 C708 1.419 . S
C706 H710 0.930 . S
C707 C706 1.369 . S
C707 C716 1.429 . S
C708 C706 1.419 . S
C708 C709 1.363 . S
C708 H711 0.929 . S
C709 C708 1.363 . S
C709 C715 1.428 . S
H710 C706 0.930 . S
H711 C708 0.929 . S
S712 N713 1.613 . S
S712 N714 1.610 . S
N713 S712 1.613 . S
N713 C716 1.350 . S
N714 S712 1.610 . S
N714 C715 1.351 . S
C715 C709 1.428 . S
C715 N714 1.351 . S
C715 C716 1.434 . S
C716 C707 1.429 . S
C716 N713 1.350 . S
C716 C715 1.434 . S
C717 C718 1.369 . S
C717 C719 1.419 . S
C717 H721 0.930 . S
C718 C717 1.369 . S
C718 C727 1.429 1_556 S
C719 C717 1.419 . S
C719 C720 1.363 . S
C719 H722 0.929 . S
C720 C719 1.363 . S
C720 C726 1.428 1_556 S
H721 C717 0.930 . S
H722 C719 0.929 . S
S723 N724 1.613 . S
S723 N725 1.610 . S
N724 S723 1.613 . S
N724 C727 1.350 . S
N725 S723 1.610 . S
N725 C726 1.351 . S
C726 C720 1.428 1_554 S
C726 N725 1.351 . S
C726 C727 1.434 . S
C727 C718 1.429 1_554 S
C727 N724 1.350 . S
C727 C726 1.434 . S
C728 C729 1.369 . S
C728 C730 1.419 . S
C728 H732 0.930 . S
C729 C728 1.369 . S
C729 C738 1.429 . S
C730 C728 1.419 . S
C730 C731 1.363 . S
C730 H733 0.929 . S
C731 C730 1.363 . S
C731 C737 1.428 . S
H732 C728 0.930 . S
H733 C730 0.929 . S
S734 N735 1.613 . S
S734 N736 1.610 . S
N735 S734 1.613 . S
N735 C738 1.350 . S
N736 S734 1.610 . S
N736 C737 1.351 . S
C737 C731 1.428 . S
C737 N736 1.351 . S
C737 C738 1.434 . S
C738 C729 1.429 . S
C738 N735 1.350 . S
C738 C737 1.434 . S
C739 C740 1.369 . S
C739 C741 1.419 . S
C739 H743 0.930 . S
C740 C739 1.369 . S
C740 C749 1.429 . S
C741 C739 1.419 . S
C741 C742 1.363 . S
C741 H744 0.929 . S
C742 C741 1.363 . S
C742 C748 1.428 . S
H743 C739 0.930 . S
H744 C741 0.929 . S
S745 N746 1.613 . S
S745 N747 1.610 . S
N746 S745 1.613 . S
N746 C749 1.350 . S
N747 S745 1.610 . S
N747 C748 1.351 . S
C748 C742 1.428 . S
C748 N747 1.351 . S
C748 C749 1.434 . S
C749 C740 1.429 . S
C749 N746 1.350 . S
C749 C748 1.434 . S
C750 C751 1.369 . S
C750 C752 1.419 1_565 S
C750 H754 0.930 1_565 S
C751 C750 1.369 . S
C751 C760 1.429 . S
C752 C750 1.419 1_545 S
C752 C753 1.363 . S
C752 H755 0.929 . S
C753 C752 1.363 . S
C753 C759 1.428 1_545 S
H754 C750 0.930 1_545 S
H755 C752 0.929 . S
S756 N757 1.613 . S
S756 N758 1.610 . S
N757 S756 1.613 . S
N757 C760 1.350 . S
N758 S756 1.610 . S
N758 C759 1.351 . S
C759 C753 1.428 1_565 S
C759 N758 1.351 . S
C759 C760 1.434 . S
C760 C751 1.429 . S
C760 N757 1.350 . S
C760 C759 1.434 . S
C761 C762 1.369 . S
C761 C763 1.419 . S
C761 H765 0.930 . S
C762 C761 1.369 . S
C762 C771 1.429 1_556 S
C763 C761 1.419 . S
C763 C764 1.363 . S
C763 H766 0.929 . S
C764 C763 1.363 . S
C764 C770 1.428 1_556 S
H765 C761 0.930 . S
H766 C763 0.929 . S
S767 N768 1.604 1_655 S
S767 N769 1.610 . S
N768 S767 1.604 1_455 S
N768 C771 1.350 . S
N769 S767 1.610 . S
N769 C770 1.351 1_655 S
C770 C764 1.428 1_554 S
C770 N769 1.351 1_455 S
C770 C771 1.434 . S
C771 C762 1.429 1_554 S
C771 N768 1.350 . S
C771 C770 1.434 . S
C772 C773 1.369 . S
C772 C774 1.419 . S
C772 H776 0.930 . S
C773 C772 1.369 . S
C773 C782 1.429 . S
C774 C772 1.419 . S
C774 C775 1.363 . S
C774 H777 0.929 . S
C775 C774 1.363 . S
C775 C781 1.428 . S
H776 C772 0.930 . S
H777 C774 0.929 . S
S778 N779 1.613 . S
S778 N780 1.610 . S
N779 S778 1.613 . S
N779 C782 1.350 . S
N780 S778 1.610 . S
N780 C781 1.351 . S
C781 C775 1.428 . S
C781 N780 1.351 . S
C781 C782 1.434 . S
C782 C773 1.429 . S
C782 N779 1.350 . S
C782 C781 1.434 . S
C783 C784 1.369 . S
C783 C785 1.419 . S
C783 H787 0.930 . S
C784 C783 1.369 . S
C784 C793 1.429 . S
C785 C783 1.419 . S
C785 C786 1.363 . S
C785 H788 0.929 . S
C786 C785 1.363 . S
C786 C792 1.428 . S
H787 C783 0.930 . S
H788 C785 0.929 . S
S789 N790 1.613 . S
S789 N791 1.610 . S
N790 S789 1.613 . S
N790 C793 1.350 . S
N791 S789 1.610 . S
N791 C792 1.351 . S
C792 C786 1.428 . S
C792 N791 1.351 . S
C792 C793 1.434 . S
C793 C784 1.429 . S
C793 N790 1.350 . S
C793 C792 1.434 . S
C794 C795 1.369 . S
C794 C796 1.419 . S
C794 H798 0.930 . S
C795 C794 1.369 . S
C795 C804 1.429 . S
C796 C794 1.419 . S
C796 C797 1.363 . S
C796 H799 0.929 . S
C797 C796 1.363 . S
C797 C803 1.428 . S
H798 C794 0.930 . S
H799 C796 0.929 . S
S800 N801 1.613 . S
S800 N802 1.610 . S
N801 S800 1.613 . S
N801 C804 1.350 . S
N802 S800 1.610 . S
N802 C803 1.351 . S
C803 C797 1.428 . S
C803 N802 1.351 . S
C803 C804 1.434 . S
C804 C795 1.429 . S
C804 N801 1.350 . S
C804 C803 1.434 . S
C805 C806 1.369 . S
C805 C807 1.419 . S
C805 H809 0.930 . S
C806 C805 1.369 . S
C806 C815 1.429 . S
C807 C805 1.419 . S
C807 C808 1.363 . S
C807 H810 0.929 . S
C808 C807 1.363 . S
C808 C814 1.428 . S
H809 C805 0.930 . S
H810 C807 0.929 . S
S811 N812 1.613 1_655 S
S811 N813 1.610 1_655 S
N812 S811 1.613 1_455 S
N812 C815 1.350 . S
N813 S811 1.610 1_455 S
N813 C814 1.351 . S
C814 C808 1.428 . S
C814 N813 1.351 . S
C814 C815 1.434 . S
C815 C806 1.429 . S
C815 N812 1.350 . S
C815 C814 1.434 . S
C816 C817 1.369 . S
C816 C818 1.419 . S
C816 H820 0.930 . S
C817 C816 1.369 . S
C817 C826 1.429 . S
C818 C816 1.419 . S
C818 C819 1.363 . S
C818 H821 0.929 . S
C819 C818 1.363 . S
C819 C825 1.428 . S
H820 C816 0.930 . S
H821 C818 0.929 . S
S822 N823 1.613 . S
S822 N824 1.610 . S
N823 S822 1.613 . S
N823 C826 1.350 . S
N824 S822 1.610 . S
N824 C825 1.351 . S
C825 C819 1.428 . S
C825 N824 1.351 . S
C825 C826 1.434 . S
C826 C817 1.429 . S
C826 N823 1.350 . S
C826 C825 1.434 . S
C827 C828 1.369 . S
C827 C829 1.419 . S
C827 H831 0.930 . S
C828 C827 1.369 . S
C828 C837 1.429 . S
C829 C827 1.419 . S
C829 C830 1.363 . S
C829 H832 0.929 . S
C830 C829 1.363 . S
C830 C836 1.428 . S
H831 C827 0.930 . S
H832 C829 0.929 . S
S833 N834 1.613 . S
S833 N835 1.610 . S
N834 S833 1.613 . S
N834 C837 1.350 . S
N835 S833 1.610 . S
N835 C836 1.351 . S
C836 C830 1.428 . S
C836 N835 1.351 . S
C836 C837 1.434 . S
C837 C828 1.429 . S
C837 N834 1.350 . S
C837 C836 1.434 . S
C838 C839 1.369 . S
C838 C840 1.419 . S
C838 H842 0.930 . S
C839 C838 1.369 . S
C839 C848 1.429 . S
C840 C838 1.419 . S
C840 C841 1.363 . S
C840 H843 0.929 . S
C841 C840 1.363 . S
C841 C847 1.428 . S
H842 C838 0.930 . S
H843 C840 0.929 . S
S844 N845 1.613 . S
S844 N846 1.610 . S
N845 S844 1.613 . S
N845 C848 1.350 . S
N846 S844 1.610 . S
N846 C847 1.351 . S
C847 C841 1.428 . S
C847 N846 1.351 . S
C847 C848 1.434 . S
C848 C839 1.429 . S
C848 N845 1.350 . S
C848 C847 1.434 . S
C849 C850 1.369 . S
C849 C851 1.419 . S
C849 H853 0.930 . S
C850 C849 1.369 . S
C850 C859 1.429 . S
C851 C849 1.419 . S
C851 C852 1.363 . S
C851 H854 0.929 . S
C852 C851 1.363 . S
C852 C858 1.428 . S
H853 C849 0.930 . S
H854 C851 0.929 . S
S855 N856 1.613 . S
S855 N857 1.610 . S
N856 S855 1.613 . S
N856 C859 1.350 . S
N857 S855 1.610 . S
N857 C858 1.351 . S
C858 C852 1.428 . S
C858 N857 1.351 . S
C858 C859 1.434 . S
C859 C850 1.429 . S
C859 N856 1.350 . S
C859 C858 1.434 . S
C860 C861 1.369 . S
C860 C862 1.419 . S
C860 H864 0.930 . S
C861 C860 1.369 . S
C861 C870 1.429 . S
C862 C860 1.419 . S
C862 C863 1.363 . S
C862 H865 0.929 . S
C863 C862 1.363 . S
C863 C869 1.428 . S
H864 C860 0.930 . S
H865 C862 0.929 . S
S866 N867 1.613 . S
S866 N868 1.610 . S
N867 S866 1.613 . S
N867 C870 1.350 . S
N868 S866 1.610 . S
N868 C869 1.351 . S
C869 C863 1.428 . S
C869 N868 1.351 . S
C869 C870 1.434 . S
C870 C861 1.429 . S
C870 N867 1.350 . S
C870 C869 1.434 . S
C871 C872 1.369 . S
C871 C873 1.419 . S
C871 H875 0.930 . S
C872 C871 1.369 . S
C872 C881 1.429 . S
C873 C871 1.419 . S
C873 C874 1.363 . S
C873 H876 0.929 . S
C874 C873 1.363 . S
C874 C880 1.428 . S
H875 C871 0.930 . S
H876 C873 0.929 . S
S877 N878 1.613 . S
S877 N879 1.610 . S
N878 S877 1.613 . S
N878 C881 1.350 1_455 S
N879 S877 1.610 . S
N879 C880 1.351 1_455 S
C880 C874 1.428 . S
C880 N879 1.351 1_655 S
C880 C881 1.434 . S
C881 C872 1.429 . S
C881 N878 1.350 1_655 S
C881 C880 1.434 . S
C882 C883 1.369 . S
C882 C884 1.419 . S
C882 H886 0.930 . S
C883 C882 1.369 . S
C883 C892 1.429 . S
C884 C882 1.419 . S
C884 C885 1.363 . S
C884 H887 0.929 . S
C885 C884 1.363 . S
C885 C891 1.428 . S
H886 C882 0.930 . S
H887 C884 0.929 . S
S888 N889 1.613 . S
S888 N890 1.610 . S
N889 S888 1.613 . S
N889 C892 1.350 . S
N890 S888 1.610 . S
N890 C891 1.351 . S
C891 C885 1.428 . S
C891 N890 1.351 . S
C891 C892 1.434 . S
C892 C883 1.429 . S
C892 N889 1.350 . S
C892 C891 1.434 . S
C893 C894 1.369 1_556 S
C893 C895 1.416 1_556 S
C893 H897 0.930 . S
C894 C893 1.369 1_554 S
C894 C903 1.429 . S
C895 C893 1.416 1_554 S
C895 C896 1.384 . S
C895 H898 0.911 1_554 S
C896 C895 1.384 . S
C896 C902 1.428 . S
H897 C893 0.930 . S
H898 C895 0.911 1_556 S
S899 N900 1.613 . S
S899 N901 1.610 . S
N900 S899 1.613 . S
N900 C903 1.350 . S
N901 S899 1.610 . S
N901 C902 1.351 . S
C902 C896 1.428 . S
C902 N901 1.351 . S
C902 C903 1.434 . S
C903 C894 1.429 . S
C903 N900 1.350 . S
C903 C902 1.434 . S
C904 C905 1.369 . S
C904 C906 1.419 . S
C904 H908 0.930 . S
C905 C904 1.369 . S
C905 C914 1.429 . S
C906 C904 1.419 . S
C906 C907 1.363 . S
C906 H909 0.929 . S
C907 C906 1.363 . S
C907 C913 1.428 . S
H908 C904 0.930 . S
H909 C906 0.929 . S
S910 N911 1.613 . S
S910 N912 1.610 . S
N911 S910 1.613 . S
N911 C914 1.350 . S
N912 S910 1.610 . S
N912 C913 1.351 . S
C913 C907 1.428 . S
C913 N912 1.351 . S
C913 C914 1.434 . S
C914 C905 1.429 . S
C914 N911 1.350 . S
C914 C913 1.434 . S
C915 C916 1.369 . S
C915 C917 1.419 . S
C915 H919 0.930 . S
C916 C915 1.369 . S
C916 C925 1.429 . S
C917 C915 1.419 . S
C917 C918 1.363 . S
C917 H920 0.929 . S
C918 C917 1.363 . S
C918 C924 1.428 . S
H919 C915 0.930 . S
H920 C917 0.929 . S
S921 N922 1.613 . S
S921 N923 1.610 . S
N922 S921 1.613 . S
N922 C925 1.350 . S
N923 S921 1.610 . S
N923 C924 1.351 . S
C924 C918 1.428 . S
C924 N923 1.351 . S
C924 C925 1.434 . S
C925 C916 1.429 . S
C925 N922 1.350 . S
C925 C924 1.434 . S
C926 C927 1.369 1_545 S
C926 C928 1.419 . S
C926 H930 0.930 . S
C927 C926 1.369 1_565 S
C927 C936 1.429 . S
C928 C926 1.419 . S
C928 C929 1.363 . S
C928 H931 0.929 . S
C929 C928 1.363 . S
C929 C935 1.428 . S
H930 C926 0.930 . S
H931 C928 0.929 . S
S932 N933 1.613 . S
S932 N934 1.610 . S
N933 S932 1.613 . S
N933 C936 1.350 . S
N934 S932 1.610 . S
N934 C935 1.351 1_565 S
C935 C929 1.428 . S
C935 N934 1.351 1_545 S
C935 C936 1.434 1_545 S
C936 C927 1.429 . S
C936 N933 1.350 . S
C936 C935 1.434 1_565 S
C937 C938 1.369 . S
C937 C939 1.419 . S
C937 H941 0.930 . S
C938 C937 1.369 . S
C938 C947 1.429 . S
C939 C937 1.419 . S
C939 C940 1.363 . S
C939 H942 0.929 . S
C940 C939 1.363 . S
C940 C946 1.428 . S
H941 C937 0.930 . S
H942 C939 0.929 . S
S943 N944 1.613 . S
S943 N945 1.610 . S
N944 S943 1.613 . S
N944 C947 1.350 1_556 S
N945 S943 1.610 . S
N945 C946 1.351 1_556 S
C946 C940 1.428 . S
C946 N945 1.351 1_554 S
C946 C947 1.434 . S
C947 C938 1.429 . S
C947 N944 1.350 1_554 S
C947 C946 1.434 . S
C948 C949 1.369 . S
C948 C950 1.419 . S
C948 H952 0.930 . S
C949 C948 1.369 . S
C949 C958 1.429 . S
C950 C948 1.419 . S
C950 C951 1.363 . S
C950 H953 0.929 . S
C951 C950 1.363 . S
C951 C957 1.428 . S
H952 C948 0.930 . S
H953 C950 0.929 . S
S954 N955 1.613 . S
S954 N956 1.610 . S
N955 S954 1.613 . S
N955 C958 1.350 . S
N956 S954 1.610 . S
N956 C957 1.351 . S
C957 C951 1.428 . S
C957 N956 1.351 . S
C957 C958 1.434 . S
C958 C949 1.429 . S
C958 N955 1.350 . S
C958 C957 1.434 . S
C959 C960 1.369 . S
C959 C961 1.419 . S
C959 H963 0.930 . S
C960 C959 1.369 . S
C960 C969 1.429 . S
C961 C959 1.419 . S
C961 C962 1.363 . S
C961 H964 0.929 . S
C962 C961 1.363 . S
C962 C968 1.428 . S
H963 C959 0.930 . S
H964 C961 0.929 . S
S965 N966 1.613 . S
S965 N967 1.610 . S
N966 S965 1.613 . S
N966 C969 1.350 . S
N967 S965 1.610 . S
N967 C968 1.351 . S
C968 C962 1.428 . S
C968 N967 1.351 . S
C968 C969 1.434 . S
C969 C960 1.429 . S
C969 N966 1.350 . S
C969 C968 1.434 . S
C970 C971 1.369 . S
C970 C972 1.419 . S
C970 H974 0.930 . S
C971 C970 1.369 . S
C971 C980 1.429 . S
C972 C970 1.419 . S
C972 C973 1.363 . S
C972 H975 0.929 . S
C973 C972 1.363 . S
C973 C979 1.428 . S
H974 C970 0.930 . S
H975 C972 0.929 . S
S976 N977 1.613 . S
S976 N978 1.610 . S
N977 S976 1.613 . S
N977 C980 1.350 . S
N978 S976 1.610 . S
N978 C979 1.351 . S
C979 C973 1.428 . S
C979 N978 1.351 . S
C979 C980 1.434 . S
C980 C971 1.429 . S
C980 N977 1.350 . S
C980 C979 1.434 . S
C981 C982 1.369 . S
C981 C983 1.419 . S
C981 H985 0.930 . S
C982 C981 1.369 . S
C982 C991 1.429 . S
C983 C981 1.419 . S
C983 C984 1.363 . S
C983 H986 0.929 . S
C984 C983 1.363 . S
C984 C990 1.428 . S
H985 C981 0.930 . S
H986 C983 0.929 . S
S987 N988 1.613 . S
S987 N989 1.610 . S
N988 S987 1.613 . S
N988 C991 1.350 . S
N989 S987 1.610 . S
N989 C990 1.351 . S
C990 C984 1.428 . S
C990 N989 1.351 . S
C990 C991 1.434 . S
C991 C982 1.429 . S
C991 N988 1.350 . S
C991 C990 1.434 . S
C992 C993 1.369 1_556 S
C992 C994 1.416 1_556 S
C992 H996 0.930 . S
C993 C992 1.369 1_554 S
C993 C1002 1.429 . S
C994 C992 1.416 1_554 S
C994 C995 1.380 . S
C994 H997 0.914 1_554 S
C995 C994 1.380 . S
C995 C1001 1.428 . S
H996 C992 0.930 . S
H997 C994 0.914 1_556 S
S998 N999 1.613 . S
S998 N1000 1.610 . S
N999 S998 1.613 . S
N999 C1002 1.350 . S
N1000 S998 1.610 . S
N1000 C1001 1.351 . S
C1001 C995 1.428 . S
C1001 N1000 1.351 . S
C1001 C1002 1.434 . S
C1002 C993 1.429 . S
C1002 N999 1.350 . S
C1002 C1001 1.434 . S
C1003 C1004 1.369 . S
C1003 C1005 1.419 . S
C1003 H1007 0.930 . S
C1004 C1003 1.369 . S
C1004 C1013 1.429 . S
C1005 C1003 1.419 . S
C1005 C1006 1.363 . S
C1005 H1008 0.929 . S
C1006 C1005 1.363 . S
C1006 C1012 1.428 . S
H1007 C1003 0.930 . S
H1008 C1005 0.929 . S
S1009 N1010 1.613 . S
S1009 N1011 1.610 . S
N1010 S1009 1.613 . S
N1010 C1013 1.350 . S
N1011 S1009 1.610 . S
N1011 C1012 1.351 . S
C1012 C1006 1.428 . S
C1012 N1011 1.351 . S
C1012 C1013 1.434 . S
C1013 C1004 1.429 . S
C1013 N1010 1.350 . S
C1013 C1012 1.434 . S
C1014 C1015 1.369 . S
C1014 C1016 1.419 . S
C1014 H1018 0.930 . S
C1015 C1014 1.369 . S
C1015 C1024 1.429 . S
C1016 C1014 1.419 . S
C1016 C1017 1.363 . S
C1016 H1019 0.929 . S
C1017 C1016 1.363 . S
C1017 C1023 1.428 . S
H1018 C1014 0.930 . S
H1019 C1016 0.929 . S
S1020 N1021 1.613 . S
S1020 N1022 1.610 . S
N1021 S1020 1.613 . S
N1021 C1024 1.350 . S
N1022 S1020 1.610 . S
N1022 C1023 1.351 . S
C1023 C1017 1.428 . S
C1023 N1022 1.351 . S
C1023 C1024 1.434 . S
C1024 C1015 1.429 . S
C1024 N1021 1.350 . S
C1024 C1023 1.434 . S
C1025 C1026 1.369 . S
C1025 C1027 1.419 . S
C1025 H1029 0.930 . S
C1026 C1025 1.369 . S
C1026 C1035 1.429 . S
C1027 C1025 1.419 . S
C1027 C1028 1.363 . S
C1027 H1030 0.929 . S
C1028 C1027 1.363 . S
C1028 C1034 1.428 . S
H1029 C1025 0.930 . S
H1030 C1027 0.929 . S
S1031 N1032 1.613 . S
S1031 N1033 1.610 . S
N1032 S1031 1.613 . S
N1032 C1035 1.350 . S
N1033 S1031 1.610 . S
N1033 C1034 1.351 . S
C1034 C1028 1.428 . S
C1034 N1033 1.351 . S
C1034 C1035 1.434 . S
C1035 C1026 1.429 . S
C1035 N1032 1.350 . S
C1035 C1034 1.434 . S
C1036 C1037 1.369 . S
C1036 C1038 1.419 . S
C1036 H1040 0.930 . S
C1037 C1036 1.369 . S
C1037 C1046 1.429 . S
C1038 C1036 1.419 . S
C1038 C1039 1.363 . S
C1038 H1041 0.929 . S
C1039 C1038 1.363 . S
C1039 C1045 1.428 . S
H1040 C1036 0.930 . S
H1041 C1038 0.929 . S
S1042 N1043 1.613 . S
S1042 N1044 1.610 . S
N1043 S1042 1.613 . S
N1043 C1046 1.350 . S
N1044 S1042 1.610 . S
N1044 C1045 1.351 . S
C1045 C1039 1.428 . S
C1045 N1044 1.351 . S
C1045 C1046 1.434 . S
C1046 C1037 1.429 . S
C1046 N1043 1.350 . S
C1046 C1045 1.434 . S
C1047 C1048 1.369 . S
C1047 C1049 1.419 . S
C1047 H1051 0.930 . S
C1048 C1047 1.369 . S
C1048 C1057 1.429 . S
C1049 C1047 1.419 . S
C1049 C1050 1.363 . S
C1049 H1052 0.929 . S
C1050 C1049 1.363 . S
C1050 C1056 1.428 . S
H1051 C1047 0.930 . S
H1052 C1049 0.929 . S
S1053 N1054 1.613 . S
S1053 N1055 1.610 . S
N1054 S1053 1.613 . S
N1054 C1057 1.350 . S
N1055 S1053 1.610 . S
N1055 C1056 1.351 . S
C1056 C1050 1.428 . S
C1056 N1055 1.351 . S
C1056 C1057 1.434 . S
C1057 C1048 1.429 . S
C1057 N1054 1.350 . S
C1057 C1056 1.434 . S
C1058 C1059 1.369 . S
C1058 C1060 1.419 . S
C1058 H1062 0.930 . S
C1059 C1058 1.369 . S
C1059 C1068 1.429 . S
C1060 C1058 1.419 . S
C1060 C1061 1.363 . S
C1060 H1063 0.929 . S
C1061 C1060 1.363 . S
C1061 C1067 1.428 . S
H1062 C1058 0.930 . S
H1063 C1060 0.929 . S
S1064 N1065 1.613 . S
S1064 N1066 1.610 . S
N1065 S1064 1.613 . S
N1065 C1068 1.350 . S
N1066 S1064 1.610 . S
N1066 C1067 1.351 . S
C1067 C1061 1.428 . S
C1067 N1066 1.351 . S
C1067 C1068 1.434 . S
C1068 C1059 1.429 . S
C1068 N1065 1.350 . S
C1068 C1067 1.434 . S
C1069 C1070 1.369 1_554 S
C1069 C1071 1.419 . S
C1069 H1073 0.930 . S
C1070 C1069 1.369 1_556 S
C1070 C1079 1.429 . S
C1071 C1069 1.419 . S
C1071 C1072 1.363 1_554 S
C1071 H1074 0.929 . S
C1072 C1071 1.363 1_556 S
C1072 C1078 1.428 . S
H1073 C1069 0.930 . S
H1074 C1071 0.929 . S
S1075 N1076 1.613 . S
S1075 N1077 1.610 . S
N1076 S1075 1.613 . S
N1076 C1079 1.350 . S
N1077 S1075 1.610 . S
N1077 C1078 1.351 . S
C1078 C1072 1.428 . S
C1078 N1077 1.351 . S
C1078 C1079 1.434 . S
C1079 C1070 1.429 . S
C1079 N1076 1.350 . S
C1079 C1078 1.434 . S
C1080 C1081 1.369 . S
C1080 C1082 1.419 . S
C1080 H1084 0.930 . S
C1081 C1080 1.369 . S
C1081 C1090 1.429 . S
C1082 C1080 1.419 . S
C1082 C1083 1.363 . S
C1082 H1085 0.929 . S
C1083 C1082 1.363 . S
C1083 C1089 1.428 . S
H1084 C1080 0.930 . S
H1085 C1082 0.929 . S
S1086 N1087 1.613 . S
S1086 N1088 1.610 . S
N1087 S1086 1.613 . S
N1087 C1090 1.350 . S
N1088 S1086 1.610 . S
N1088 C1089 1.351 . S
C1089 C1083 1.428 . S
C1089 N1088 1.351 . S
C1089 C1090 1.434 . S
C1090 C1081 1.429 . S
C1090 N1087 1.350 . S
C1090 C1089 1.434 . S
C1091 C1092 1.369 . S
C1091 C1093 1.419 . S
C1091 H1095 0.930 . S
C1092 C1091 1.369 . S
C1092 C1101 1.429 . S
C1093 C1091 1.419 . S
C1093 C1094 1.363 . S
C1093 H1096 0.929 . S
C1094 C1093 1.363 . S
C1094 C1100 1.428 . S
H1095 C1091 0.930 . S
H1096 C1093 0.929 . S
S1097 N1098 1.613 . S
S1097 N1099 1.610 . S
N1098 S1097 1.613 . S
N1098 C1101 1.350 . S
N1099 S1097 1.610 . S
N1099 C1100 1.351 . S
C1100 C1094 1.428 . S
C1100 N1099 1.351 . S
C1100 C1101 1.434 . S
C1101 C1092 1.429 . S
C1101 N1098 1.350 . S
C1101 C1100 1.434 . S
C1102 C1103 1.369 . S
C1102 C1104 1.419 . S
C1102 H1106 0.930 . S
C1103 C1102 1.369 . S
C1103 C1112 1.429 . S
C1104 C1102 1.419 . S
C1104 C1105 1.363 . S
C1104 H1107 0.929 . S
C1105 C1104 1.363 . S
C1105 C1111 1.428 . S
H1106 C1102 0.930 . S
H1107 C1104 0.929 . S
S1108 N1109 1.613 . S
S1108 N1110 1.610 . S
N1109 S1108 1.613 . S
N1109 C1112 1.350 . S
N1110 S1108 1.610 . S
N1110 C1111 1.351 . S
C1111 C1105 1.428 . S
C1111 N1110 1.351 . S
C1111 C1112 1.434 . S
C1112 C1103 1.429 . S
C1112 N1109 1.350 . S
C1112 C1111 1.434 . S
C1113 C1114 1.369 . S
C1113 C1115 1.419 . S
C1113 H1117 0.930 . S
C1114 C1113 1.369 . S
C1114 C1123 1.429 . S
C1115 C1113 1.419 . S
C1115 C1116 1.363 . S
C1115 H1118 0.929 . S
C1116 C1115 1.363 . S
C1116 C1122 1.428 . S
H1117 C1113 0.930 . S
H1118 C1115 0.929 . S
S1119 N1120 1.613 . S
S1119 N1121 1.610 . S
N1120 S1119 1.613 . S
N1120 C1123 1.350 . S
N1121 S1119 1.610 . S
N1121 C1122 1.351 . S
C1122 C1116 1.428 . S
C1122 N1121 1.351 . S
C1122 C1123 1.434 . S
C1123 C1114 1.429 . S
C1123 N1120 1.350 . S
C1123 C1122 1.434 . S
C1124 C1125 1.369 . S
C1124 C1126 1.419 . S
C1124 H1128 0.930 . S
C1125 C1124 1.369 . S
C1125 C1134 1.429 . S
C1126 C1124 1.419 . S
C1126 C1127 1.363 . S
C1126 H1129 0.929 . S
C1127 C1126 1.363 . S
C1127 C1133 1.428 . S
H1128 C1124 0.930 . S
H1129 C1126 0.929 . S
S1130 N1131 1.613 . S
S1130 N1132 1.610 . S
N1131 S1130 1.613 . S
N1131 C1134 1.350 . S
N1132 S1130 1.610 . S
N1132 C1133 1.351 . S
C1133 C1127 1.428 . S
C1133 N1132 1.351 . S
C1133 C1134 1.434 . S
C1134 C1125 1.429 . S
C1134 N1131 1.350 . S
C1134 C1133 1.434 . S
C1135 C1136 1.369 1_554 S
C1135 C1137 1.418 1_554 S
C1135 H1139 0.930 . S
C1136 C1135 1.369 1_556 S
C1136 C1145 1.429 . S
C1137 C1135 1.418 1_556 S
C1137 C1138 1.368 . S
C1137 H1140 0.925 1_556 S
C1138 C1137 1.368 . S
C1138 C1144 1.428 . S
H1139 C1135 0.930 . S
H1140 C1137 0.925 1_554 S
S1141 N1142 1.613 . S
S1141 N1143 1.610 . S
N1142 S1141 1.613 . S
N1142 C1145 1.350 . S
N1143 S1141 1.610 . S
N1143 C1144 1.351 . S
C1144 C1138 1.428 . S
C1144 N1143 1.351 . S
C1144 C1145 1.434 . S
C1145 C1136 1.429 . S
C1145 N1142 1.350 . S
C1145 C1144 1.434 . S
C1146 C1147 1.369 . S
C1146 C1148 1.419 . S
C1146 H1150 0.930 . S
C1147 C1146 1.369 . S
C1147 C1156 1.429 . S
C1148 C1146 1.419 . S
C1148 C1149 1.363 . S
C1148 H1151 0.929 . S
C1149 C1148 1.363 . S
C1149 C1155 1.428 . S
H1150 C1146 0.930 . S
H1151 C1148 0.929 . S
S1152 N1153 1.613 . S
S1152 N1154 1.610 . S
N1153 S1152 1.613 . S
N1153 C1156 1.350 . S
N1154 S1152 1.610 . S
N1154 C1155 1.351 . S
C1155 C1149 1.428 . S
C1155 N1154 1.351 . S
C1155 C1156 1.434 . S
C1156 C1147 1.429 . S
C1156 N1153 1.350 . S
C1156 C1155 1.434 . S
C1157 C1158 1.369 . S
C1157 C1159 1.419 . S
C1157 H1161 0.930 . S
C1158 C1157 1.369 . S
C1158 C1167 1.429 . S
C1159 C1157 1.419 . S
C1159 C1160 1.363 . S
C1159 H1162 0.929 . S
C1160 C1159 1.363 . S
C1160 C1166 1.428 . S
H1161 C1157 0.930 . S
H1162 C1159 0.929 . S
S1163 N1164 1.613 . S
S1163 N1165 1.610 . S
N1164 S1163 1.613 . S
N1164 C1167 1.350 . S
N1165 S1163 1.610 . S
N1165 C1166 1.351 . S
C1166 C1160 1.428 . S
C1166 N1165 1.351 . S
C1166 C1167 1.434 . S
C1167 C1158 1.429 . S
C1167 N1164 1.350 . S
C1167 C1166 1.434 . S
C641 C19 2.265 . S
C643 C55 2.048 . S
C652 C98 1.935 . S
C654 C50 1.917 . S
C663 C135 2.048 . S
C665 C99 2.264 . S
C674 C18 1.939 . S
C676 C130 1.919 . S
C685 C9 1.935 . S
C687 C379 1.923 . S
C696 C290 2.263 . S
C698 C46 2.052 . S
C707 C89 1.933 . S
C709 C419 1.922 . S
C718 C126 2.058 . S
C720 C530 2.258 . S
C729 C329 1.939 . S
C731 C59 1.921 . S
C740 C486 2.059 . S
C742 C90 2.259 . S
C751 C569 1.936 . S
C753 C139 1.917 . S
C762 C10 2.258 . S
C764 C446 2.058 . S
C773 C15 0.360 . S
C775 C335 0.369 . S
C784 C489 2.055 . S
C786 C169 2.054 . S
C795 C206 0.359 . S
C797 C566 0.374 . S
C806 C449 2.055 . S
C808 C249 2.054 . S
C817 C86 0.353 . S
C819 C286 0.360 . S
C828 C378 2.053 . S
C830 C178 2.054 . S
C839 C258 2.054 . S
C841 C418 2.054 . S
C850 C209 1.939 . S
C852 C459 1.915 . S
C861 C366 2.048 . S
C863 C210 2.262 . S
C872 C455 2.059 . S
C874 C299 2.259 . S
C883 C218 1.934 . S
C885 C170 1.923 . S
C894 C375 2.047 . S
C896 C339 2.264 . S
C905 C538 1.935 . S
C907 C450 1.916 . S
C916 C255 2.056 . S
C918 C219 2.259 . S
C927 C370 1.920 . S
C929 C578 1.932 . S
C938 C526 0.361 . S
C940 C6 0.361 . S
C949 C95 0.351 . S
C951 C575 0.372 . S
C960 C498 2.054 . S
C962 C58 2.055 . S
C971 C295 0.372 . S
C973 C215 0.368 . S
C982 C129 2.055 . S
C984 C409 2.054 . S
C993 C495 2.047 . S
C995 C539 2.264 . S
C1004 C298 1.932 . S
C1006 C490 1.921 . S
C1015 C259 1.913 . S
C1017 C289 1.937 . S
C1026 C179 1.915 . S
C1028 C529 1.936 . S
C1037 C499 1.916 . S
C1039 C609 1.934 . S
C1048 C606 0.372 . S
C1050 C326 0.358 . S
C1059 C49 2.054 . S
C1061 C369 2.054 . S
C1070 C330 2.264 . S
C1072 C246 2.049 . S
C1081 C338 1.934 . S
C1083 C410 1.922 . S
C1092 C618 1.937 . S
C1094 C250 1.923 . S
C1103 C535 0.350 . S
C1105 C615 0.377 . S
C1114 C458 2.054 . S
C1116 C138 2.054 . S
C1125 C415 2.047 . S
C1127 C579 2.263 . S
C1136 C406 2.047 . S
C1138 C610 2.263 . S
C1147 C166 2.052 . S
C1149 C570 2.261 . S
C1158 C619 2.261 . S
C1160 C175 2.055 . S
