# Generated by pormake.
# Topology cbo, (4)-cn, num edge types: 1
# Building blocks:
#     Node 0, Type 0, BuildingBlock: NAHDIM_clean_sbu_0, # of connection points: 4
#     Node 1, Type 0, BuildingBlock: NAHDIM_clean_sbu_0, # of connection points: 4
#     Node 2, Type 0, BuildingBlock: NAHDIM_clean_sbu_0, # of connection points: 4
#     Node 3, Type 0, BuildingBlock: NAHDIM_clean_sbu_0, # of connection points: 4
#     Node 4, Type 0, BuildingBlock: NAHDIM_clean_sbu_0, # of connection points: 4
#     Node 5, Type 0, BuildingBlock: NAHDIM_clean_sbu_0, # of connection points: 4
#     Node 6, Type 0, BuildingBlock: NAHDIM_clean_sbu_0, # of connection points: 4
#     Node 7, Type 0, BuildingBlock: NAHDIM_clean_sbu_0, # of connection points: 4
#     Node 8, Type 0, BuildingBlock: NAHDIM_clean_sbu_0, # of connection points: 4
#     Node 9, Type 0, BuildingBlock: NAHDIM_clean_sbu_0, # of connection points: 4
#     Node 10, Type 0, BuildingBlock: NAHDIM_clean_sbu_0, # of connection points: 4
#     Node 11, Type 0, BuildingBlock: NAHDIM_clean_sbu_0, # of connection points: 4
#     Node 12, Type 0, BuildingBlock: NAHDIM_clean_sbu_0, # of connection points: 4
#     Node 13, Type 0, BuildingBlock: NAHDIM_clean_sbu_0, # of connection points: 4
#     Node 14, Type 0, BuildingBlock: NAHDIM_clean_sbu_0, # of connection points: 4
#     Node 15, Type 0, BuildingBlock: NAHDIM_clean_sbu_0, # of connection points: 4
#     Node 16, Type 0, BuildingBlock: NAHDIM_clean_sbu_0, # of connection points: 4
#     Node 17, Type 0, BuildingBlock: NAHDIM_clean_sbu_0, # of connection points: 4
#     Node 18, Type 0, BuildingBlock: NAHDIM_clean_sbu_0, # of connection points: 4
#     Node 19, Type 0, BuildingBlock: NAHDIM_clean_sbu_0, # of connection points: 4
#     Node 20, Type 0, BuildingBlock: NAHDIM_clean_sbu_0, # of connection points: 4
#     Node 21, Type 0, BuildingBlock: NAHDIM_clean_sbu_0, # of connection points: 4
#     Node 22, Type 0, BuildingBlock: NAHDIM_clean_sbu_0, # of connection points: 4
#     Node 23, Type 0, BuildingBlock: NAHDIM_clean_sbu_0, # of connection points: 4
#     Edge 24, Type (0, 0), BuildingBlock: ZUJKAS_clean_linker_0, # of connection points: 2
#     Edge 25, Type (0, 0), BuildingBlock: ZUJKAS_clean_linker_0, # of connection points: 2
#     Edge 26, Type (0, 0), BuildingBlock: ZUJKAS_clean_linker_0, # of connection points: 2
#     Edge 27, Type (0, 0), BuildingBlock: ZUJKAS_clean_linker_0, # of connection points: 2
#     Edge 28, Type (0, 0), BuildingBlock: ZUJKAS_clean_linker_0, # of connection points: 2
#     Edge 29, Type (0, 0), BuildingBlock: ZUJKAS_clean_linker_0, # of connection points: 2
#     Edge 30, Type (0, 0), BuildingBlock: ZUJKAS_clean_linker_0, # of connection points: 2
#     Edge 31, Type (0, 0), BuildingBlock: ZUJKAS_clean_linker_0, # of connection points: 2
#     Edge 32, Type (0, 0), BuildingBlock: ZUJKAS_clean_linker_0, # of connection points: 2
#     Edge 33, Type (0, 0), BuildingBlock: ZUJKAS_clean_linker_0, # of connection points: 2
#     Edge 34, Type (0, 0), BuildingBlock: ZUJKAS_clean_linker_0, # of connection points: 2
#     Edge 35, Type (0, 0), BuildingBlock: ZUJKAS_clean_linker_0, # of connection points: 2
#     Edge 36, Type (0, 0), BuildingBlock: ZUJKAS_clean_linker_0, # of connection points: 2
#     Edge 37, Type (0, 0), BuildingBlock: ZUJKAS_clean_linker_0, # of connection points: 2
#     Edge 38, Type (0, 0), BuildingBlock: ZUJKAS_clean_linker_0, # of connection points: 2
#     Edge 39, Type (0, 0), BuildingBlock: ZUJKAS_clean_linker_0, # of connection points: 2
#     Edge 40, Type (0, 0), BuildingBlock: ZUJKAS_clean_linker_0, # of connection points: 2
#     Edge 41, Type (0, 0), BuildingBlock: ZUJKAS_clean_linker_0, # of connection points: 2
#     Edge 42, Type (0, 0), BuildingBlock: ZUJKAS_clean_linker_0, # of connection points: 2
#     Edge 43, Type (0, 0), BuildingBlock: ZUJKAS_clean_linker_0, # of connection points: 2
#     Edge 44, Type (0, 0), BuildingBlock: ZUJKAS_clean_linker_0, # of connection points: 2
#     Edge 45, Type (0, 0), BuildingBlock: ZUJKAS_clean_linker_0, # of connection points: 2
#     Edge 46, Type (0, 0), BuildingBlock: ZUJKAS_clean_linker_0, # of connection points: 2
#     Edge 47, Type (0, 0), BuildingBlock: ZUJKAS_clean_linker_0, # of connection points: 2
#     Edge 48, Type (0, 0), BuildingBlock: ZUJKAS_clean_linker_0, # of connection points: 2
#     Edge 49, Type (0, 0), BuildingBlock: ZUJKAS_clean_linker_0, # of connection points: 2
#     Edge 50, Type (0, 0), BuildingBlock: ZUJKAS_clean_linker_0, # of connection points: 2
#     Edge 51, Type (0, 0), BuildingBlock: ZUJKAS_clean_linker_0, # of connection points: 2
#     Edge 52, Type (0, 0), BuildingBlock: ZUJKAS_clean_linker_0, # of connection points: 2
#     Edge 53, Type (0, 0), BuildingBlock: ZUJKAS_clean_linker_0, # of connection points: 2
#     Edge 54, Type (0, 0), BuildingBlock: ZUJKAS_clean_linker_0, # of connection points: 2
#     Edge 55, Type (0, 0), BuildingBlock: ZUJKAS_clean_linker_0, # of connection points: 2
#     Edge 56, Type (0, 0), BuildingBlock: ZUJKAS_clean_linker_0, # of connection points: 2
#     Edge 57, Type (0, 0), BuildingBlock: ZUJKAS_clean_linker_0, # of connection points: 2
#     Edge 58, Type (0, 0), BuildingBlock: ZUJKAS_clean_linker_0, # of connection points: 2
#     Edge 59, Type (0, 0), BuildingBlock: ZUJKAS_clean_linker_0, # of connection points: 2
#     Edge 60, Type (0, 0), BuildingBlock: ZUJKAS_clean_linker_0, # of connection points: 2
#     Edge 61, Type (0, 0), BuildingBlock: ZUJKAS_clean_linker_0, # of connection points: 2
#     Edge 62, Type (0, 0), BuildingBlock: ZUJKAS_clean_linker_0, # of connection points: 2
#     Edge 63, Type (0, 0), BuildingBlock: ZUJKAS_clean_linker_0, # of connection points: 2
#     Edge 64, Type (0, 0), BuildingBlock: ZUJKAS_clean_linker_0, # of connection points: 2
#     Edge 65, Type (0, 0), BuildingBlock: ZUJKAS_clean_linker_0, # of connection points: 2
#     Edge 66, Type (0, 0), BuildingBlock: ZUJKAS_clean_linker_0, # of connection points: 2
#     Edge 67, Type (0, 0), BuildingBlock: ZUJKAS_clean_linker_0, # of connection points: 2
#     Edge 68, Type (0, 0), BuildingBlock: ZUJKAS_clean_linker_0, # of connection points: 2
#     Edge 69, Type (0, 0), BuildingBlock: ZUJKAS_clean_linker_0, # of connection points: 2
#     Edge 70, Type (0, 0), BuildingBlock: ZUJKAS_clean_linker_0, # of connection points: 2
#     Edge 71, Type (0, 0), BuildingBlock: ZUJKAS_clean_linker_0, # of connection points: 2
# Relax obj value: 0.275
# Max RMSD: 0.280
# Mean RMSD: 0.265
data_MOF--net-cbo--node1-NAHDIM_clean_sbu_0--edge1-ZUJKAS_clean_linker_0
_symmetry_space_group_name_H-M    P1
_symmetry_Int_Tables_number       1
_symmetry_cell_setting            triclinic
loop_
_symmetry_equiv_pos_as_xyz
'x, y, z'
_cell_length_a     66.828132
_cell_length_b     64.266571
_cell_length_c     65.517491
_cell_angle_alpha  90.014241
_cell_angle_beta   90.014937
_cell_angle_gamma 90.017294
loop_
_atom_site_label
_atom_site_type_symbol
_atom_site_fract_x
_atom_site_fract_y
_atom_site_fract_z
_atom_type_partial_charge
C0 C 0.99425 0.15087 0.27478 0.0
O1 O -0.00273 0.16921 0.26651 0.0
O2 O 0.04013 0.16854 0.25364 0.0
Zn3 Zn 0.03685 0.15244 0.27978 0.0
O4 O 0.04379 0.17004 0.30407 0.0
C5 C 0.06423 0.1225 0.26286 0.0
O6 O 0.05694 0.12949 0.24555 0.0
O7 O 0.00907 0.1408 0.28186 0.0
C8 C 0.06129 0.17781 0.30421 0.0
O9 O 0.07281 0.17515 0.28816 0.0
C10 C 0.03991 0.18819 0.25156 0.0
O11 O 0.03658 0.20006 0.26752 0.0
O12 O 0.05709 0.12928 0.27956 0.0
C13 C 0.49139 0.84408 0.78463 0.0
O14 O 0.48828 0.82416 0.78141 0.0
O15 O 0.44642 0.82842 0.75718 0.0
Zn16 Zn 0.44873 0.8448 0.78325 0.0
O17 O 0.44147 0.82786 0.80788 0.0
C18 C 0.42305 0.87555 0.76502 0.0
O19 O 0.43128 0.86866 0.74812 0.0
O20 O 0.47646 0.85622 0.78607 0.0
C21 C 0.42357 0.82136 0.80935 0.0
O22 O 0.41123 0.82444 0.79402 0.0
C23 C 0.44552 0.80878 0.75518 0.0
O24 O 0.4466 0.79686 0.77142 0.0
O25 O 0.42882 0.86822 0.78203 0.0
C26 C 0.51802 0.37149 0.69845 0.0
O27 O 0.53236 0.37804 0.68631 0.0
O28 O 0.55257 0.3303 0.74051 0.0
Zn29 Zn 0.55009 0.34753 0.71504 0.0
O30 O 0.55844 0.33114 0.69042 0.0
C31 C 0.57725 0.37746 0.73319 0.0
O32 O 0.57187 0.36844 0.75033 0.0
O33 O 0.52207 0.35806 0.71205 0.0
C34 C 0.57613 0.32388 0.69055 0.0
O35 O 0.58709 0.32615 0.70706 0.0
C36 C 0.55045 0.31067 0.74123 0.0
O37 O 0.54592 0.30044 0.72449 0.0
O38 O 0.5693 0.37158 0.71656 0.0
C39 C 0.98399 0.64407 0.22107 0.0
O40 O 0.97521 0.64465 0.239 0.0
O41 O 0.94804 0.68543 0.23167 0.0
Zn42 Zn 0.94773 0.66419 0.20907 0.0
O43 O 0.93802 0.67607 0.18247 0.0
C44 C 0.9229 0.63908 0.23544 0.0
O45 O 0.93167 0.65004 0.24981 0.0
O46 O 0.97501 0.65169 0.2057 0.0
C47 C 0.91935 0.67933 0.18057 0.0
O48 O 0.90759 0.67617 0.19634 0.0
C49 C 0.94061 0.70362 0.23106 0.0
O50 O 0.9333 0.71071 0.21381 0.0
O51 O 0.928 0.64185 0.21696 0.0
C52 C 0.33262 0.04507 0.20748 0.0
O53 O 0.33093 0.03445 0.19043 0.0
O54 O 0.28385 0.06489 0.18466 0.0
Zn55 Zn 0.2902 0.04266 0.20523 0.0
O56 O 0.29026 0.01495 0.19114 0.0
C57 C 0.26291 0.06137 0.23235 0.0
O58 O 0.27322 0.07773 0.22648 0.0
O59 O 0.3169 0.04965 0.2174 0.0
C60 C 0.27416 0.00912 0.18254 0.0
O61 O 0.25828 0.02111 0.18374 0.0
C62 C 0.28857 0.06429 0.16589 0.0
O63 O 0.29832 0.04812 0.15873 0.0
O64 O 0.26824 0.04351 0.2261 0.0
C65 C 0.16309 0.94794 0.68886 0.0
O66 O 0.16551 0.95521 0.67028 0.0
O67 O 0.21253 0.93339 0.6694 0.0
Zn68 Zn 0.20466 0.95578 0.68933 0.0
O69 O 0.20325 0.98341 0.67519 0.0
C70 C 0.23064 0.93893 0.71879 0.0
O71 O 0.22067 0.92221 0.71331 0.0
O72 O 0.17803 0.94753 0.70084 0.0
C73 C 0.2184 0.99004 0.66545 0.0
O74 O 0.2348 0.97876 0.66518 0.0
C75 C 0.21008 0.93389 0.65017 0.0
O76 O 0.20193 0.95034 0.64167 0.0
O77 O 0.22578 0.95634 0.71108 0.0
C78 C 0.84013 0.4433 0.79288 0.0
O79 O 0.83671 0.45718 0.80719 0.0
O80 O 0.791 0.41749 0.81494 0.0
Zn81 Zn 0.79748 0.43974 0.79453 0.0
O82 O 0.7953 0.46746 0.80846 0.0
C83 C 0.76823 0.45302 0.7642 0.0
O84 O 0.77425 0.4719 0.76884 0.0
O85 O 0.82537 0.43436 0.78434 0.0
C86 C 0.77989 0.47153 0.81909 0.0
O87 O 0.76555 0.4576 0.82039 0.0
C88 C 0.799 0.41645 0.8325 0.0
O89 O 0.81227 0.4305 0.83789 0.0
O90 O 0.7768 0.43749 0.77242 0.0
C91 C 0.66183 0.55972 0.31917 0.0
O92 O 0.66407 0.55366 0.33818 0.0
O93 O 0.70854 0.5725 0.34263 0.0
Zn94 Zn 0.70311 0.55181 0.3203 0.0
O95 O 0.70185 0.52302 0.33207 0.0
C96 C 0.74293 0.54811 0.30665 0.0
O97 O 0.7444 0.53985 0.32494 0.0
O98 O 0.67696 0.55965 0.30744 0.0
C99 C 0.70524 0.50683 0.32151 0.0
O100 O 0.7092 0.50876 0.30196 0.0
C101 C 0.71018 0.56799 0.36144 0.0
O102 O 0.70812 0.54856 0.36731 0.0
O103 O 0.72587 0.55412 0.30043 0.0
C104 C 0.17634 0.2618 0.00587 0.0
O105 O 0.19562 0.25881 0.00844 0.0
O106 O 0.19457 0.23898 0.05354 0.0
Zn107 Zn 0.17606 0.26344 0.04988 0.0
O108 O 0.18925 0.29062 0.05696 0.0
C109 C 0.14464 0.24256 0.07214 0.0
O110 O 0.15054 0.22639 0.06145 0.0
O111 O 0.16522 0.2642 0.02141 0.0
C112 C 0.1916 0.29461 0.07581 0.0
O113 O 0.1866 0.28042 0.08932 0.0
C114 C 0.21259 0.2402 0.05963 0.0
O115 O 0.22053 0.25856 0.06307 0.0
O116 O 0.15312 0.26001 0.06934 0.0
C117 C 0.66812 0.23362 0.99263 0.0
O118 O 0.68726 0.22918 0.99115 0.0
O119 O 0.69525 0.25334 0.94802 0.0
Zn120 Zn 0.67158 0.23397 0.94927 0.0
O121 O 0.67936 0.20404 0.94445 0.0
C122 C 0.63622 0.23316 0.92361 0.0
O123 O 0.631 0.21747 0.93531 0.0
O124 O 0.65806 0.23652 0.97644 0.0
C125 C 0.68006 0.19705 0.9263 0.0
O126 O 0.67663 0.20978 0.91101 0.0
C127 C 0.71103 0.24938 0.93791 0.0
O128 O 0.7128 0.23127 0.92881 0.0
O129 O 0.65253 0.24266 0.92717 0.0
C130 C 0.83148 0.77712 0.49429 0.0
O131 O 0.81301 0.78398 0.49286 0.0
O132 O 0.80418 0.75105 0.45013 0.0
Zn133 Zn 0.82637 0.77219 0.45129 0.0
O134 O 0.81585 0.80101 0.44635 0.0
C135 C 0.83903 0.7604 0.41151 0.0
O136 O 0.81959 0.75846 0.40926 0.0
O137 O 0.84045 0.77111 0.47825 0.0
C138 C 0.80091 0.8042 0.43476 0.0
O139 O 0.79139 0.78821 0.42689 0.0
C140 C 0.804 0.73477 0.46113 0.0
O141 O 0.81828 0.73195 0.47463 0.0
O142 O 0.84593 0.76594 0.42876 0.0
C143 C 0.33211 0.73953 0.49481 0.0
O144 O 0.31299 0.74279 0.49825 0.0
O145 O 0.31446 0.76129 0.54271 0.0
Zn146 Zn 0.33281 0.73683 0.53837 0.0
O147 O 0.31894 0.70972 0.54402 0.0
C148 C 0.36277 0.75661 0.56335 0.0
O149 O 0.35698 0.77326 0.55332 0.0
O150 O 0.34378 0.73675 0.50987 0.0
C151 C 0.31325 0.70602 0.56217 0.0
O152 O 0.31558 0.72049 0.57615 0.0
C153 C 0.29563 0.76017 0.54525 0.0
O154 O 0.2867 0.742 0.5441 0.0
O155 O 0.35505 0.73913 0.5589 0.0
C156 C 0.98723 0.8252 0.72126 0.0
O157 O 0.98845 0.80521 0.72528 0.0
O158 O 0.94671 0.79572 0.74254 0.0
Zn159 Zn 0.9448 0.81682 0.71997 0.0
O160 O 0.93865 0.80395 0.69269 0.0
C161 C 0.90723 0.83006 0.73679 0.0
O162 O 0.90661 0.81053 0.74267 0.0
O163 O 0.97016 0.83335 0.71832 0.0
C164 C 0.92361 0.79209 0.6903 0.0
O165 O 0.91273 0.78705 0.70624 0.0
C166 C 0.94924 0.77619 0.74087 0.0
O167 O 0.95171 0.7679 0.72272 0.0
O168 O 0.92233 0.83652 0.72685 0.0
C169 C 0.51769 0.15448 0.2272 0.0
O170 O 0.52724 0.15791 0.2444 0.0
O171 O 0.56145 0.18521 0.23516 0.0
Zn172 Zn 0.55432 0.16999 0.20939 0.0
O173 O 0.55879 0.18791 0.18473 0.0
C174 C 0.57492 0.13262 0.22111 0.0
O175 O 0.56321 0.13423 0.23713 0.0
O176 O 0.52615 0.15896 0.21038 0.0
C177 C 0.57383 0.20002 0.18439 0.0
O178 O 0.58495 0.20174 0.20085 0.0
C179 C 0.55191 0.20035 0.24294 0.0
O180 O 0.5358 0.20742 0.23377 0.0
O181 O 0.57347 0.14601 0.20693 0.0
C182 C 0.47535 0.65879 0.27263 0.0
O183 O 0.47419 0.67825 0.26659 0.0
O184 O 0.43167 0.67899 0.24676 0.0
Zn185 Zn 0.43224 0.66147 0.27217 0.0
O186 O 0.42416 0.67793 0.29691 0.0
C187 C 0.40299 0.62936 0.28223 0.0
O188 O 0.40697 0.63427 0.30127 0.0
O189 O 0.45934 0.64872 0.27607 0.0
C190 C 0.40677 0.68592 0.29753 0.0
O191 O 0.39496 0.68396 0.28161 0.0
C192 C 0.43229 0.69874 0.24613 0.0
O193 O 0.43422 0.70931 0.26318 0.0
O194 O 0.41219 0.63864 0.26789 0.0
C195 C 0.0365 0.35461 0.79176 0.0
O196 O 0.05104 0.3644 0.80126 0.0
O197 O 0.07167 0.30597 0.75982 0.0
Zn198 Zn 0.06848 0.32698 0.78224 0.0
O199 O 0.0765 0.31522 0.80951 0.0
C200 C 0.10523 0.35015 0.77959 0.0
O201 O 0.11242 0.33367 0.78891 0.0
O202 O 0.04028 0.33756 0.78274 0.0
C203 C 0.0859 0.29811 0.81116 0.0
O204 O 0.0897 0.28715 0.79469 0.0
C205 C 0.05787 0.29414 0.75322 0.0
O206 O 0.04008 0.29484 0.76172 0.0
O207 O 0.08667 0.35089 0.77543 0.0
C208 C 0.70269 0.98284 0.87102 0.0
O209 O 0.69153 0.96784 0.87852 0.0
O210 O 0.73917 0.94789 0.82517 0.0
Zn211 Zn 0.71602 0.95005 0.84475 0.0
O212 O 0.69002 0.94207 0.83146 0.0
C213 C 0.73826 0.92495 0.87331 0.0
O214 O 0.75347 0.9357 0.86621 0.0
O215 O 0.71447 0.97885 0.85633 0.0
C216 C 0.6875 0.9229 0.82741 0.0
O217 O 0.70216 0.9098 0.83107 0.0
C218 C 0.73797 0.94253 0.80654 0.0
O219 O 0.72034 0.93915 0.79835 0.0
O220 O 0.72074 0.92916 0.86705 0.0
C221 C 0.78831 0.00608 0.3444 0.0
O222 O 0.8047 0.01731 0.34319 0.0
O223 O 0.74821 0.04048 0.30266 0.0
Zn224 Zn 0.77099 0.04065 0.32266 0.0
O225 O 0.79723 0.04749 0.30918 0.0
C226 C 0.75582 0.07897 0.33872 0.0
O227 O 0.74891 0.08055 0.32002 0.0
O228 O 0.77224 0.01294 0.33656 0.0
C229 C 0.79884 0.06349 0.2979 0.0
O230 O 0.78285 0.07469 0.29403 0.0
C231 C 0.74919 0.03742 0.28352 0.0
O232 O 0.76656 0.03337 0.27502 0.0
O233 O 0.76566 0.06284 0.34374 0.0
C234 C 0.20324 0.50149 0.15302 0.0
O235 O 0.19542 0.50414 0.17123 0.0
O236 O 0.23172 0.5488 0.17565 0.0
Zn237 Zn 0.209 0.54574 0.15571 0.0
O238 O 0.18214 0.55089 0.16885 0.0
C239 C 0.20915 0.58595 0.13681 0.0
O240 O 0.20196 0.59131 0.1547 0.0
O241 O 0.20985 0.51718 0.14336 0.0
C242 C 0.17987 0.56189 0.18482 0.0
O243 O 0.19567 0.56979 0.19388 0.0
C244 C 0.23281 0.54072 0.19333 0.0
O245 O 0.21795 0.52928 0.20012 0.0
O246 O 0.21318 0.56693 0.13343 0.0
C247 C 0.28947 0.50081 0.64049 0.0
O248 O 0.29754 0.49775 0.65853 0.0
O249 O 0.2654 0.45541 0.66777 0.0
Zn250 Zn 0.28433 0.45728 0.64403 0.0
O251 O 0.31263 0.45228 0.6532 0.0
C252 C 0.27373 0.41675 0.6321 0.0
O253 O 0.27497 0.41461 0.652 0.0
O254 O 0.28239 0.48535 0.63081 0.0
C255 C 0.31675 0.44301 0.6698 0.0
O256 O 0.30212 0.43707 0.68186 0.0
C257 C 0.24815 0.46368 0.66726 0.0
O258 O 0.24303 0.4749 0.65133 0.0
O259 O 0.27712 0.4345 0.62427 0.0
C260 C 0.82723 0.69271 0.98367 0.0
O261 O 0.80813 0.6972 0.98186 0.0
O262 O 0.81177 0.71954 0.93707 0.0
Zn263 Zn 0.82553 0.6919 0.9398 0.0
O264 O 0.80716 0.66801 0.93369 0.0
C265 C 0.86115 0.70482 0.91903 0.0
O266 O 0.86094 0.71928 0.93321 0.0
O267 O 0.83753 0.68943 0.9677 0.0
C268 C 0.80026 0.66687 0.91565 0.0
O269 O 0.80416 0.68203 0.90279 0.0
C270 C 0.79315 0.72283 0.93917 0.0
O271 O 0.78119 0.70724 0.94355 0.0
O272 O 0.84754 0.69103 0.91904 0.0
C273 C 0.34331 0.80048 0.01002 0.0
O274 O 0.35513 0.80465 0.02552 0.0
O275 O 0.2935 0.77245 0.04441 0.0
Zn276 Zn 0.31391 0.79533 0.04188 0.0
O277 O 0.30186 0.8227 0.05014 0.0
C278 C 0.34405 0.77173 0.06363 0.0
O279 O 0.33901 0.75694 0.05077 0.0
O280 O 0.32499 0.79641 0.01335 0.0
C281 C 0.28962 0.82281 0.06499 0.0
O282 O 0.28433 0.80501 0.07326 0.0
C283 C 0.29287 0.75679 0.03257 0.0
O284 O 0.30539 0.75573 0.01715 0.0
O285 O 0.33567 0.78941 0.06225 0.0
C286 C 0.15509 0.21403 0.49624 0.0
O287 O 0.1729 0.22237 0.49842 0.0
O288 O 0.17444 0.23431 0.54349 0.0
Zn289 Zn 0.15786 0.20844 0.53998 0.0
O290 O 0.17404 0.18305 0.5467 0.0
C291 C 0.12691 0.22708 0.56397 0.0
O292 O 0.13184 0.24344 0.55305 0.0
O293 O 0.14609 0.20687 0.51181 0.0
C294 C 0.1807 0.18208 0.56484 0.0
O295 O 0.17755 0.19787 0.57719 0.0
C296 C 0.19317 0.23565 0.5404 0.0
O297 O 0.20303 0.21929 0.53382 0.0
O298 O 0.13564 0.20989 0.56056 0.0
C299 C 0.66891 0.28607 0.49749 0.0
O300 O 0.68748 0.27971 0.49542 0.0
O301 O 0.68783 0.26075 0.45294 0.0
Zn302 Zn 0.66986 0.2859 0.45357 0.0
O303 O 0.68366 0.31162 0.4432 0.0
C304 C 0.6402 0.26243 0.43117 0.0
O305 O 0.64681 0.24694 0.44238 0.0
O306 O 0.65864 0.29004 0.48164 0.0
C307 C 0.68788 0.31174 0.42427 0.0
O308 O 0.68438 0.29492 0.41343 0.0
C309 C 0.70618 0.26051 0.44789 0.0
O310 O 0.71532 0.27805 0.44353 0.0
O311 O 0.64734 0.28053 0.43396 0.0
H312 H 0.12964 0.27284 0.09716 0.0
H313 H 0.107 0.26836 0.12614 0.0
H314 H 0.10318 0.20264 0.11344 0.0
H315 H 0.1256 0.20697 0.08425 0.0
H316 H 0.0658 0.22202 0.12379 0.0
H317 H 0.12651 0.24034 0.1792 0.0
H318 H 0.1219 0.25955 0.15983 0.0
H319 H 0.13151 0.23447 0.15276 0.0
C320 C 0.12385 0.25745 0.1004 0.0
C321 C 0.12958 0.2402 0.08852 0.0
C322 C 0.11097 0.25493 0.11701 0.0
C323 C 0.10371 0.23513 0.12208 0.0
C324 C 0.10871 0.21804 0.10977 0.0
H325 H 0.04562 0.1678 0.21556 0.0
H326 H 0.05816 0.1821 0.18362 0.0
C327 C 0.12156 0.22054 0.09313 0.0
C328 C 0.0917 0.23193 0.14077 0.0
H329 H 0.09502 0.23194 0.19274 0.0
C330 C 0.07209 0.22436 0.13888 0.0
C331 C 0.09996 0.23511 0.16041 0.0
C332 C 0.12117 0.24267 0.1633 0.0
C333 C 0.06064 0.21946 0.15617 0.0
C334 C 0.06918 0.22186 0.17578 0.0
C335 C 0.0885 0.23019 0.17767 0.0
C336 C 0.05928 0.21391 0.19442 0.0
C337 C 0.03956 0.21157 0.15329 0.0
C338 C 0.05586 0.22704 0.21119 0.0
C339 C 0.04878 0.21886 0.22962 0.0
C340 C 0.04525 0.19739 0.2316 0.0
C341 C 0.04817 0.18442 0.21457 0.0
C342 C 0.05518 0.19259 0.1962 0.0
H343 H 0.03311 0.21706 0.13861 0.0
H344 H 0.03974 0.19431 0.15295 0.0
H345 H 0.02967 0.21665 0.16596 0.0
H346 H 0.05912 0.24352 0.21015 0.0
H347 H 0.04672 0.22925 0.24246 0.0
H348 H 0.43882 0.76788 0.74516 0.0
H349 H 0.43015 0.75386 0.71148 0.0
H350 H 0.43476 0.81537 0.68559 0.0
H351 H 0.44364 0.82941 0.71889 0.0
H352 H 0.39706 0.76522 0.68915 0.0
H353 H 0.46556 0.78078 0.64435 0.0
H354 H 0.46527 0.78117 0.67192 0.0
H355 H 0.45697 0.80349 0.65763 0.0
C356 C 0.43831 0.77835 0.73222 0.0
C357 C 0.4419 0.79976 0.73472 0.0
C358 C 0.43336 0.77031 0.713 0.0
C359 C 0.43214 0.78352 0.69597 0.0
C360 C 0.43611 0.8048 0.69839 0.0
H361 H 0.3802 0.79191 0.57841 0.0
H362 H 0.39898 0.79562 0.61024 0.0
C363 C 0.44102 0.81283 0.71752 0.0
C364 C 0.42485 0.77565 0.67606 0.0
H365 H 0.43514 0.77601 0.62501 0.0
C366 C 0.40553 0.76716 0.67515 0.0
C367 C 0.43593 0.77825 0.65784 0.0
C368 C 0.45716 0.78623 0.65798 0.0
C369 C 0.39653 0.76231 0.6564 0.0
C370 C 0.4073 0.76577 0.63812 0.0
C371 C 0.42692 0.77347 0.63906 0.0
C372 C 0.39784 0.7629 0.61789 0.0
C373 C 0.3752 0.75455 0.65622 0.0
C374 C 0.39152 0.74317 0.6114 0.0
C375 C 0.38075 0.74099 0.59324 0.0
C376 C 0.37618 0.75852 0.58124 0.0
C377 C 0.38338 0.77812 0.58733 0.0
C378 C 0.39415 0.78027 0.60549 0.0
H379 H 0.36784 0.75636 0.67131 0.0
H380 H 0.36624 0.76301 0.6446 0.0
H381 H 0.37507 0.73778 0.65217 0.0
H382 H 0.39451 0.72954 0.62064 0.0
H383 H 0.37553 0.72565 0.58893 0.0
H384 H 0.55241 0.26853 0.74745 0.0
H385 H 0.56174 0.25046 0.77899 0.0
H386 H 0.56726 0.30944 0.80989 0.0
H387 H 0.55785 0.32756 0.77866 0.0
H388 H 0.59796 0.25562 0.79903 0.0
H389 H 0.53514 0.27479 0.8507 0.0
H390 H 0.53339 0.27736 0.8233 0.0
H391 H 0.54517 0.29739 0.83829 0.0
C392 C 0.5553 0.27762 0.76105 0.0
C393 C 0.55442 0.29948 0.76054 0.0
C394 C 0.56061 0.26727 0.77904 0.0
C395 C 0.56488 0.2786 0.79683 0.0
C396 C 0.56358 0.30037 0.79646 0.0
H397 H 0.64484 0.26252 0.89488 0.0
H398 H 0.62602 0.27068 0.86402 0.0
C399 C 0.55836 0.31072 0.77852 0.0
C400 C 0.57261 0.26803 0.81529 0.0
H401 H 0.56618 0.26483 0.86688 0.0
C402 C 0.59083 0.25729 0.81381 0.0
C403 C 0.56317 0.27001 0.83451 0.0
C404 C 0.54303 0.28033 0.8368 0.0
C405 C 0.60046 0.2496 0.83125 0.0
C406 C 0.59175 0.25297 0.85062 0.0
C407 C 0.57294 0.26253 0.852 0.0
C408 C 0.60268 0.24807 0.86963 0.0
C409 C 0.62015 0.23837 0.82886 0.0
C410 C 0.59544 0.23305 0.88329 0.0
C411 C 0.60617 0.22833 0.90105 0.0
C412 C 0.62419 0.23874 0.90546 0.0
C413 C 0.63107 0.25415 0.89194 0.0
C414 C 0.6204 0.25876 0.87422 0.0
H415 H 0.62198 0.23202 0.8132 0.0
H416 H 0.63258 0.24946 0.83171 0.0
H417 H 0.62146 0.22542 0.84 0.0
H418 H 0.58167 0.22478 0.88005 0.0
H419 H 0.60045 0.21643 0.91118 0.0
H420 H 0.91639 0.73734 0.23738 0.0
H421 H 0.90475 0.75059 0.27024 0.0
H422 H 0.94422 0.70811 0.30147 0.0
H423 H 0.95568 0.69449 0.26872 0.0
H424 H 0.90562 0.70334 0.31272 0.0
H425 H 0.92587 0.78683 0.3163 0.0
H426 H 0.91341 0.77996 0.29298 0.0
H427 H 0.93753 0.76895 0.29866 0.0
C428 C 0.92302 0.73122 0.25122 0.0
C429 C 0.93679 0.7147 0.25045 0.0
C430 C 0.91642 0.7389 0.27001 0.0
C431 C 0.9237 0.73041 0.28831 0.0
C432 C 0.93844 0.7149 0.28753 0.0
H433 H 0.87975 0.76548 0.40989 0.0
H434 H 0.90188 0.75849 0.38081 0.0
C435 C 0.94496 0.70713 0.26879 0.0
C436 C 0.91387 0.73541 0.30796 0.0
H437 H 0.89968 0.77548 0.33899 0.0
C438 C 0.9046 0.71909 0.31861 0.0
C439 C 0.9126 0.75592 0.31568 0.0
C440 C 0.92305 0.77389 0.30542 0.0
C441 C 0.89347 0.72281 0.33634 0.0
C442 C 0.89132 0.74343 0.34344 0.0
C443 C 0.90123 0.7597 0.33333 0.0
C444 C 0.87805 0.74837 0.3608 0.0
C445 C 0.88387 0.70466 0.3472 0.0
C446 C 0.85737 0.74521 0.35899 0.0
C447 C 0.84473 0.74917 0.37548 0.0
C448 C 0.85255 0.75638 0.3941 0.0
C449 C 0.87329 0.75982 0.39578 0.0
C450 C 0.88593 0.75592 0.3792 0.0
H451 H 0.89099 0.68965 0.34294 0.0
H452 H 0.88481 0.7066 0.36401 0.0
H453 H 0.86782 0.70383 0.34292 0.0
H454 H 0.85101 0.73962 0.3448 0.0
H455 H 0.82884 0.74646 0.37362 0.0
H456 H 0.23877 0.03129 0.24895 0.0
H457 H 0.20441 0.03567 0.26128 0.0
H458 H 0.20853 0.10176 0.25051 0.0
H459 H 0.24294 0.09766 0.23903 0.0
H460 H 0.18762 0.09388 0.28432 0.0
H461 H 0.15988 0.04402 0.22088 0.0
H462 H 0.17655 0.03144 0.23844 0.0
H463 H 0.18559 0.05227 0.22261 0.0
C464 C 0.23244 0.04679 0.24956 0.0
C465 C 0.24346 0.0641 0.24275 0.0
C466 C 0.21276 0.04924 0.25646 0.0
C467 C 0.20372 0.06896 0.25627 0.0
C468 C 0.21515 0.08637 0.25067 0.0
H469 H 0.08888 0.11418 0.23079 0.0
H470 H 0.12173 0.0978 0.23192 0.0
C471 C 0.23485 0.08399 0.24408 0.0
C472 C 0.18206 0.07163 0.26044 0.0
H473 H 0.13579 0.06017 0.24138 0.0
C474 C 0.17623 0.08633 0.27513 0.0
C475 C 0.16726 0.06184 0.24828 0.0
C476 C 0.17256 0.04664 0.23155 0.0
C477 C 0.15616 0.09235 0.27728 0.0
C478 C 0.14141 0.08284 0.26485 0.0
C479 C 0.14712 0.06734 0.25093 0.0
C480 C 0.12051 0.09056 0.26418 0.0
C481 C 0.15119 0.10979 0.29188 0.0
C482 C 0.10857 0.09131 0.28179 0.0
C483 C 0.08983 0.10098 0.28125 0.0
C484 C 0.08259 0.10969 0.26298 0.0
C485 C 0.09402 0.10767 0.24511 0.0
C486 C 0.11283 0.09829 0.24573 0.0
H487 H 0.16477 0.11837 0.29689 0.0
H488 H 0.1407 0.12105 0.28477 0.0
H489 H 0.14392 0.10323 0.30567 0.0
H490 H 0.11396 0.08492 0.29606 0.0
H491 H 0.08125 0.1021 0.29523 0.0
H492 H 0.40152 0.88654 0.73139 0.0
H493 H 0.36982 0.90511 0.73044 0.0
H494 H 0.37284 0.91472 0.79556 0.0
H495 H 0.40437 0.89538 0.79674 0.0
H496 H 0.33799 0.8999 0.78587 0.0
H497 H 0.35331 0.96441 0.733 0.0
H498 H 0.36062 0.94048 0.72117 0.0
H499 H 0.37315 0.94907 0.74409 0.0
C500 C 0.39569 0.89295 0.74547 0.0
C501 C 0.40544 0.88943 0.76414 0.0
C502 C 0.37759 0.90376 0.74488 0.0
C503 C 0.36908 0.91168 0.76288 0.0
C504 C 0.37918 0.90887 0.78147 0.0
H505 H 0.2539 0.9702 0.73455 0.0
H506 H 0.28669 0.96664 0.75087 0.0
C507 C 0.3972 0.89782 0.78211 0.0
C508 C 0.34864 0.92067 0.76239 0.0
H509 H 0.31864 0.95204 0.73372 0.0
C510 C 0.33384 0.91168 0.7748 0.0
C511 C 0.34318 0.93646 0.74841 0.0
C512 C 0.3585 0.94829 0.73612 0.0
C513 C 0.31357 0.91677 0.77236 0.0
C514 C 0.30792 0.93069 0.75666 0.0
C515 C 0.32286 0.94102 0.74549 0.0
C516 C 0.28683 0.93297 0.74994 0.0
C517 C 0.29844 0.90677 0.78635 0.0
C518 C 0.27584 0.91524 0.74431 0.0
C519 C 0.25706 0.91722 0.73524 0.0
C520 C 0.24903 0.93699 0.73118 0.0
C521 C 0.25971 0.95475 0.73744 0.0
C522 C 0.27845 0.95274 0.74675 0.0
H523 H 0.30496 0.90404 0.80172 0.0
H524 H 0.28481 0.9165 0.78804 0.0
H525 H 0.29407 0.8914 0.78006 0.0
H526 H 0.28218 0.89984 0.74598 0.0
H527 H 0.24931 0.90323 0.73049 0.0
H528 H 0.75088 0.41607 0.75398 0.0
H529 H 0.71733 0.41059 0.74077 0.0
H530 H 0.70922 0.47692 0.7349 0.0
H531 H 0.74284 0.48261 0.74872 0.0
H532 H 0.6796 0.46016 0.75597 0.0
H533 H 0.68994 0.41306 0.68662 0.0
H534 H 0.70365 0.40159 0.70723 0.0
H535 H 0.71032 0.4272 0.69826 0.0
C536 C 0.74219 0.42953 0.74946 0.0
C537 C 0.7495 0.44979 0.75257 0.0
C538 C 0.72301 0.42635 0.7417 0.0
C539 C 0.71081 0.44333 0.73657 0.0
C540 C 0.71843 0.46359 0.73865 0.0
H541 H 0.59147 0.39972 0.70065 0.0
H542 H 0.62192 0.42083 0.69933 0.0
C543 C 0.73765 0.4668 0.74652 0.0
C544 C 0.68939 0.43976 0.73181 0.0
H545 H 0.6587 0.40712 0.70529 0.0
C546 C 0.67496 0.44895 0.74452 0.0
C547 C 0.6832 0.42551 0.71661 0.0
C548 C 0.69763 0.41649 0.70128 0.0
C549 C 0.65481 0.44294 0.74359 0.0
C550 C 0.64906 0.42696 0.72996 0.0
C551 C 0.66315 0.41908 0.71605 0.0
C552 C 0.62924 0.41667 0.73125 0.0
C553 C 0.64001 0.45341 0.75762 0.0
C554 C 0.6231 0.40751 0.74967 0.0
C555 C 0.60567 0.39559 0.75052 0.0
C556 C 0.59417 0.39228 0.73286 0.0
C557 C 0.60001 0.40195 0.71453 0.0
C558 C 0.61741 0.41401 0.71374 0.0
H559 H 0.64457 0.46971 0.76088 0.0
H560 H 0.62472 0.45351 0.75101 0.0
H561 H 0.6396 0.44496 0.77239 0.0
H562 H 0.63225 0.40882 0.76326 0.0
H563 H 0.60168 0.38825 0.76484 0.0
H564 H 0.90031 0.61542 0.20933 0.0
H565 H 0.86953 0.59637 0.21737 0.0
H566 H 0.87558 0.61341 0.28071 0.0
H567 H 0.90628 0.63246 0.27292 0.0
H568 H 0.8616 0.5631 0.24838 0.0
H569 H 0.81991 0.63685 0.26065 0.0
H570 H 0.84328 0.63573 0.24684 0.0
H571 H 0.84321 0.63486 0.27424 0.0
C572 C 0.89522 0.61491 0.22502 0.0
C573 C 0.90564 0.62561 0.24047 0.0
C574 C 0.87766 0.60401 0.22956 0.0
C575 C 0.87023 0.60377 0.24956 0.0
C576 C 0.88102 0.61366 0.26514 0.0
H577 H 0.78144 0.53785 0.31615 0.0
H578 H 0.81186 0.54926 0.29888 0.0
C579 C 0.89858 0.62449 0.26065 0.0
C580 C 0.85071 0.59408 0.25413 0.0
H581 H 0.80384 0.60569 0.27117 0.0
C582 C 0.84887 0.57236 0.25318 0.0
C583 C 0.8341 0.60628 0.26001 0.0
C584 C 0.83507 0.62975 0.26035 0.0
C585 C 0.83099 0.56244 0.25889 0.0
C586 C 0.81474 0.57461 0.26585 0.0
C587 C 0.81635 0.59638 0.26591 0.0
C588 C 0.79636 0.56524 0.27448 0.0
C589 C 0.8297 0.53905 0.25755 0.0
C590 C 0.77753 0.57042 0.26648 0.0
C591 C 0.76006 0.56404 0.27641 0.0
C592 C 0.76117 0.55254 0.29463 0.0
C593 C 0.78006 0.5467 0.30215 0.0
C594 C 0.79749 0.55306 0.2922 0.0
H595 H 0.84059 0.53273 0.24634 0.0
H596 H 0.83326 0.53226 0.27269 0.0
H597 H 0.81442 0.53395 0.25314 0.0
H598 H 0.77636 0.57993 0.25288 0.0
H599 H 0.74575 0.56878 0.27021 0.0
H600 H 0.27103 0.10096 0.17672 0.0
H601 H 0.26013 0.12907 0.15436 0.0
H602 H 0.28142 0.09507 0.10193 0.0
H603 H 0.29275 0.06684 0.12431 0.0
H604 H 0.29126 0.13755 0.10104 0.0
H605 H 0.21079 0.12579 0.11768 0.0
H606 H 0.22552 0.12918 0.14034 0.0
H607 H 0.22962 0.10683 0.12432 0.0
C608 C 0.27344 0.09941 0.16044 0.0
C609 C 0.2826 0.08156 0.15227 0.0
C610 C 0.26712 0.11547 0.14768 0.0
C611 C 0.26962 0.11395 0.12648 0.0
C612 C 0.27923 0.09644 0.11826 0.0
H613 H 0.20265 0.20016 0.05011 0.0
H614 H 0.21829 0.16834 0.06282 0.0
C615 C 0.28566 0.08034 0.13106 0.0
C616 C 0.262 0.13067 0.11304 0.0
H617 H 0.21967 0.15793 0.10178 0.0
C618 C 0.27558 0.14189 0.10097 0.0
C619 C 0.24148 0.13603 0.1127 0.0
C620 C 0.22597 0.12369 0.12429 0.0
C621 C 0.26928 0.15898 0.08924 0.0
C622 C 0.24896 0.16514 0.08994 0.0
C623 C 0.23529 0.15333 0.10136 0.0
C624 C 0.24151 0.18425 0.07978 0.0
C625 C 0.28444 0.17022 0.07623 0.0
C626 C 0.2496 0.20377 0.08476 0.0
C627 C 0.2408 0.22199 0.07735 0.0
C628 C 0.22354 0.22102 0.06512 0.0
C629 C 0.21589 0.20143 0.05958 0.0
C630 C 0.22481 0.18323 0.06682 0.0
H631 H 0.29707 0.15983 0.07201 0.0
H632 H 0.27754 0.17637 0.06204 0.0
H633 H 0.2907 0.18348 0.085 0.0
H634 H 0.26216 0.20499 0.09514 0.0
H635 H 0.24697 0.23684 0.082 0.0
H636 H 0.77253 0.38498 0.82548 0.0
H637 H 0.76156 0.35813 0.84923 0.0
H638 H 0.80046 0.38316 0.89567 0.0
H639 H 0.81177 0.41016 0.87183 0.0
H640 H 0.80133 0.33867 0.89207 0.0
H641 H 0.72411 0.36934 0.89801 0.0
H642 H 0.73202 0.36564 0.87208 0.0
H643 H 0.74455 0.38451 0.88785 0.0
C644 C 0.77881 0.38483 0.84072 0.0
C645 C 0.79291 0.39983 0.84682 0.0
C646 C 0.77245 0.3695 0.8543 0.0
C647 C 0.77995 0.36892 0.87428 0.0
C648 C 0.79441 0.38348 0.88033 0.0
H649 H 0.71336 0.28758 0.95613 0.0
H650 H 0.73351 0.31726 0.94509 0.0
C651 C 0.80082 0.39889 0.86671 0.0
C652 C 0.77241 0.35305 0.88869 0.0
H653 H 0.72905 0.33409 0.90869 0.0
C654 C 0.78559 0.33779 0.89602 0.0
C655 C 0.75197 0.35222 0.89415 0.0
C656 C 0.73737 0.36893 0.88779 0.0
C657 C 0.77858 0.32096 0.90769 0.0
C658 C 0.75784 0.31929 0.91178 0.0
C659 C 0.74492 0.33525 0.90544 0.0
C660 C 0.74879 0.30047 0.92107 0.0
C661 C 0.7934 0.30506 0.91529 0.0
C662 C 0.75108 0.28102 0.91161 0.0
C663 C 0.7397 0.26398 0.91798 0.0
C664 C 0.72555 0.2662 0.9337 0.0
C665 C 0.72404 0.2854 0.94387 0.0
C666 C 0.73556 0.30238 0.93761 0.0
H667 H 0.80845 0.31209 0.91743 0.0
H668 H 0.7885 0.29807 0.92996 0.0
H669 H 0.79485 0.29246 0.9038 0.0
H670 H 0.76081 0.27926 0.8985 0.0
H671 H 0.74119 0.24943 0.90978 0.0
H672 H 0.77587 0.73365 0.43092 0.0
H673 H 0.75508 0.70422 0.42096 0.0
H674 H 0.77799 0.66858 0.47162 0.0
H675 H 0.79929 0.69789 0.48147 0.0
H676 H 0.78183 0.64822 0.43623 0.0
H677 H 0.70445 0.67782 0.44172 0.0
H678 H 0.7199 0.69504 0.42706 0.0
H679 H 0.72532 0.69087 0.45369 0.0
C680 C 0.77622 0.71972 0.44022 0.0
C681 C 0.78934 0.71806 0.45692 0.0
C682 C 0.76416 0.70294 0.4346 0.0
C683 C 0.76474 0.68429 0.44572 0.0
C684 C 0.77721 0.68289 0.46291 0.0
H685 H 0.71907 0.56347 0.40204 0.0
H686 H 0.73034 0.59059 0.42574 0.0
C687 C 0.78938 0.69964 0.4685 0.0
C688 C 0.75432 0.6656 0.4378 0.0
H689 H 0.70964 0.64879 0.41862 0.0
C690 C 0.76595 0.64813 0.43282 0.0
C691 C 0.7336 0.66553 0.43335 0.0
C692 C 0.72008 0.68326 0.43945 0.0
C693 C 0.75769 0.63115 0.42236 0.0
C694 C 0.73722 0.63158 0.41696 0.0
C695 C 0.72536 0.64859 0.42275 0.0
C696 C 0.72846 0.61546 0.40359 0.0
C697 C 0.77116 0.61339 0.41613 0.0
C698 C 0.72317 0.62065 0.38353 0.0
C699 C 0.71678 0.60527 0.36999 0.0
C700 C 0.71548 0.5844 0.3763 0.0
C701 C 0.72003 0.57938 0.39668 0.0
C702 C 0.72649 0.59481 0.41022 0.0
H703 H 0.78721 0.61689 0.41892 0.0
H704 H 0.76714 0.59929 0.425 0.0
H705 H 0.76913 0.60974 0.39969 0.0
H706 H 0.7246 0.63653 0.37816 0.0
H707 H 0.71326 0.60971 0.35445 0.0
H708 H 0.21374 0.93198 0.60855 0.0
H709 H 0.22623 0.90279 0.58819 0.0
H710 H 0.23335 0.8663 0.64297 0.0
H711 H 0.22145 0.89549 0.66342 0.0
H712 H 0.26618 0.86515 0.6198 0.0
H713 H 0.19961 0.84871 0.57183 0.0
H714 H 0.20808 0.87517 0.57033 0.0
H715 H 0.19856 0.86524 0.59408 0.0
C716 C 0.21781 0.91767 0.61622 0.0
C717 C 0.21665 0.91606 0.63759 0.0
C718 C 0.22481 0.90095 0.60455 0.0
C719 C 0.23046 0.88226 0.61403 0.0
C720 C 0.22903 0.88056 0.63533 0.0
H721 H 0.25803 0.76196 0.56169 0.0
H722 H 0.24172 0.7923 0.57695 0.0
C723 C 0.22224 0.89728 0.647 0.0
C724 C 0.23905 0.86485 0.60206 0.0
H725 H 0.22968 0.831 0.563 0.0
C726 C 0.25818 0.85767 0.6074 0.0
C727 C 0.22849 0.85496 0.58604 0.0
C728 C 0.20747 0.86125 0.58032 0.0
C729 C 0.26707 0.84091 0.59718 0.0
C730 C 0.2568 0.83144 0.58073 0.0
C731 C 0.23761 0.83849 0.57543 0.0
C732 C 0.26558 0.81372 0.56939 0.0
C733 C 0.28717 0.83317 0.6045 0.0
C734 C 0.28404 0.81589 0.55942 0.0
C735 C 0.29349 0.79858 0.5509 0.0
C736 C 0.28448 0.77884 0.5519 0.0
C737 C 0.26539 0.77695 0.56073 0.0
C738 C 0.25604 0.79427 0.56945 0.0
H739 H 0.29038 0.83832 0.62036 0.0
H740 H 0.28794 0.81592 0.60396 0.0
H741 H 0.29908 0.8395 0.59448 0.0
H742 H 0.29142 0.83088 0.55876 0.0
H743 H 0.30807 0.80059 0.54396 0.0
H744 H 0.86618 0.67683 0.88798 0.0
H745 H 0.88772 0.68045 0.85802 0.0
H746 H 0.91002 0.73875 0.88145 0.0
H747 H 0.88893 0.73505 0.91159 0.0
H748 H 0.88398 0.71105 0.83083 0.0
H749 H 0.96103 0.71273 0.86109 0.0
H750 H 0.94012 0.70339 0.87595 0.0
H751 H 0.94537 0.73085 0.8744 0.0
C752 C 0.87598 0.69022 0.88695 0.0
C753 C 0.87578 0.70572 0.90212 0.0
C754 C 0.8883 0.69223 0.86984 0.0
C755 C 0.9007 0.70971 0.86762 0.0
C756 C 0.901 0.72485 0.88307 0.0
H757 H 0.94846 0.78875 0.78052 0.0
H758 H 0.93962 0.76805 0.81035 0.0
C759 C 0.88877 0.72281 0.90023 0.0
C760 C 0.91129 0.71359 0.84811 0.0
H761 H 0.95586 0.73016 0.82853 0.0
C762 C 0.89982 0.71469 0.8302 0.0
C763 C 0.93196 0.71827 0.84731 0.0
C764 C 0.94535 0.71603 0.86571 0.0
C765 C 0.9081 0.72186 0.81185 0.0
C766 C 0.92845 0.72785 0.81139 0.0
C767 C 0.94024 0.72559 0.82897 0.0
C768 C 0.93684 0.73913 0.7937 0.0
C769 C 0.89468 0.72434 0.79345 0.0
C770 C 0.93885 0.72953 0.77456 0.0
C771 C 0.9439 0.74137 0.75738 0.0
C772 C 0.94692 0.76296 0.75916 0.0
C773 C 0.94603 0.7722 0.77859 0.0
C774 C 0.94108 0.76038 0.79569 0.0
H775 H 0.87869 0.72147 0.79715 0.0
H776 H 0.89613 0.74026 0.78703 0.0
H777 H 0.89927 0.71312 0.78147 0.0
H778 H 0.93581 0.71307 0.77281 0.0
H779 H 0.94456 0.73379 0.74263 0.0
H780 H 0.5852 0.18976 0.26455 0.0
H781 H 0.59639 0.20375 0.29718 0.0
H782 H 0.54574 0.24527 0.29848 0.0
H783 H 0.53422 0.2312 0.26568 0.0
H784 H 0.60578 0.2458 0.30657 0.0
H785 H 0.54385 0.21439 0.35434 0.0
H786 H 0.54909 0.2047 0.32903 0.0
H787 H 0.53684 0.22933 0.33224 0.0
C788 C 0.57637 0.20186 0.27172 0.0
C789 C 0.55876 0.20932 0.26253 0.0
C790 C 0.58282 0.20984 0.29037 0.0
C791 C 0.57178 0.22537 0.3003 0.0
C792 C 0.5543 0.23307 0.29115 0.0
H793 H 0.62475 0.29086 0.4044 0.0
H794 H 0.60579 0.28378 0.37324 0.0
C795 C 0.54781 0.22509 0.27239 0.0
C796 C 0.57896 0.23348 0.32012 0.0
H797 H 0.56906 0.23341 0.37125 0.0
C798 C 0.59768 0.24332 0.32071 0.0
C799 C 0.56838 0.22998 0.33848 0.0
C800 C 0.54848 0.2189 0.33867 0.0
C801 C 0.60636 0.24939 0.33926 0.0
C802 C 0.59585 0.24578 0.35766 0.0
C803 C 0.57696 0.23628 0.35706 0.0
C804 C 0.60499 0.25044 0.37771 0.0
C805 C 0.62705 0.25883 0.33907 0.0
C806 C 0.61002 0.23411 0.39095 0.0
C807 C 0.62077 0.23809 0.40883 0.0
C808 C 0.62662 0.2585 0.41376 0.0
C809 C 0.62061 0.27494 0.40097 0.0
C810 C 0.60984 0.27094 0.38312 0.0
H811 H 0.63463 0.2567 0.32412 0.0
H812 H 0.62593 0.27577 0.34212 0.0
H813 H 0.63654 0.25182 0.35117 0.0
H814 H 0.60633 0.21818 0.38704 0.0
H815 H 0.62508 0.22509 0.41838 0.0
H816 H 0.4293 0.68129 0.20831 0.0
H817 H 0.41981 0.69833 0.17655 0.0
H818 H 0.41786 0.75756 0.20745 0.0
H819 H 0.42716 0.74053 0.23954 0.0
H820 H 0.38334 0.74841 0.18627 0.0
H821 H 0.44916 0.73589 0.13655 0.0
H822 H 0.44075 0.71232 0.14845 0.0
H823 H 0.45031 0.7332 0.16397 0.0
C824 C 0.42718 0.698 0.20834 0.0
C825 C 0.4289 0.70954 0.2265 0.0
C826 C 0.42192 0.70775 0.19009 0.0
C827 C 0.41841 0.72925 0.18957 0.0
C828 C 0.42068 0.74096 0.20752 0.0
H829 H 0.35785 0.79901 0.09244 0.0
H830 H 0.37798 0.791 0.1226 0.0
C831 C 0.42599 0.73121 0.22583 0.0
C832 C 0.41026 0.73891 0.17082 0.0
H833 H 0.41804 0.74345 0.1195 0.0
C834 C 0.39107 0.74771 0.17172 0.0
C835 C 0.42035 0.73786 0.15187 0.0
C836 C 0.44137 0.72949 0.15015 0.0
C837 C 0.38126 0.75453 0.15402 0.0
C838 C 0.39109 0.75281 0.13497 0.0
C839 C 0.41055 0.74468 0.13414 0.0
C840 C 0.38085 0.75823 0.11567 0.0
C841 C 0.36009 0.76254 0.15574 0.0
C842 C 0.37652 0.7426 0.10138 0.0
C843 C 0.36511 0.74712 0.08406 0.0
C844 C 0.35787 0.76738 0.08075 0.0
C845 C 0.36303 0.7832 0.09464 0.0
C846 C 0.37448 0.77866 0.11192 0.0
H847 H 0.3533 0.75884 0.17078 0.0
H848 H 0.36012 0.77971 0.15391 0.0
H849 H 0.3505 0.75583 0.14355 0.0
H850 H 0.38138 0.72674 0.10399 0.0
H851 H 0.36148 0.73461 0.07362 0.0
H852 H 0.11225 0.19623 0.5886 0.0
H853 H 0.09327 0.2004 0.62026 0.0
H854 H 0.09291 0.26694 0.61151 0.0
H855 H 0.11128 0.26287 0.57967 0.0
H856 H 0.10633 0.21931 0.6531 0.0
H857 H 0.03653 0.25818 0.62983 0.0
H858 H 0.05285 0.24564 0.61163 0.0
H859 H 0.05756 0.27203 0.61971 0.0
C860 C 0.10773 0.2117 0.5932 0.0
C861 C 0.11332 0.22923 0.58165 0.0
C862 C 0.09688 0.21407 0.61129 0.0
C863 C 0.0914 0.23396 0.61814 0.0
C864 C 0.09643 0.25139 0.60628 0.0
H865 H 0.09288 0.2898 0.73239 0.0
H866 H 0.09859 0.27074 0.70088 0.0
C867 C 0.10712 0.24904 0.58813 0.0
C868 C 0.0827 0.23689 0.63877 0.0
H869 H 0.04787 0.26534 0.66462 0.0
C870 C 0.09325 0.22897 0.65559 0.0
C871 C 0.06538 0.24908 0.64213 0.0
C872 C 0.05233 0.25649 0.62481 0.0
C873 C 0.08792 0.23432 0.67561 0.0
C874 C 0.07195 0.24837 0.67883 0.0
C875 C 0.06036 0.25488 0.66214 0.0
C876 C 0.06853 0.25834 0.69891 0.0
C877 C 0.09984 0.22532 0.69306 0.0
C878 C 0.04958 0.25803 0.70816 0.0
C879 C 0.04616 0.26918 0.72619 0.0
C880 C 0.06162 0.28093 0.73513 0.0
C881 C 0.08064 0.28086 0.72598 0.0
C882 C 0.08401 0.2698 0.70802 0.0
H883 H 0.10587 0.20973 0.68907 0.0
H884 H 0.11276 0.23563 0.69636 0.0
H885 H 0.09064 0.22389 0.70711 0.0
H886 H 0.03738 0.24943 0.70126 0.0
H887 H 0.03134 0.26895 0.73284 0.0
H888 H 0.77632 0.95313 0.81629 0.0
H889 H 0.80703 0.93961 0.80104 0.0
H890 H 0.7721 0.90514 0.75714 0.0
H891 H 0.74137 0.91913 0.77188 0.0
H892 H 0.81644 0.89991 0.80175 0.0
H893 H 0.81653 0.92592 0.72132 0.0
H894 H 0.80033 0.93732 0.74032 0.0
H895 H 0.7935 0.91331 0.72796 0.0
C896 C 0.7752 0.94308 0.80306 0.0
C897 C 0.75643 0.9371 0.79534 0.0
C898 C 0.79276 0.93537 0.79436 0.0
C899 C 0.7919 0.92147 0.77785 0.0
C900 C 0.7732 0.91622 0.76954 0.0
H901 H 0.87171 0.82016 0.75478 0.0
H902 H 0.84455 0.84366 0.76411 0.0
C903 C 0.75561 0.92413 0.77809 0.0
C904 C 0.81024 0.91044 0.77115 0.0
H905 H 0.83735 0.89629 0.7292 0.0
C906 C 0.82115 0.89939 0.78591 0.0
C907 C 0.81653 0.90988 0.75053 0.0
C908 C 0.80621 0.92243 0.73417 0.0
C909 C 0.83772 0.88724 0.78056 0.0
C910 C 0.84324 0.88564 0.75979 0.0
C911 C 0.83287 0.89731 0.74508 0.0
C912 C 0.85936 0.87142 0.7531 0.0
C913 C 0.84914 0.87619 0.79723 0.0
C914 C 0.87639 0.87916 0.74315 0.0
C915 C 0.89192 0.86572 0.73762 0.0
C916 C 0.89062 0.84431 0.74194 0.0
C917 C 0.8733 0.83658 0.75144 0.0
C918 C 0.85778 0.85 0.75686 0.0
H919 H 0.84691 0.88381 0.81228 0.0
H920 H 0.84365 0.85994 0.79847 0.0
H921 H 0.86541 0.87575 0.79384 0.0
H922 H 0.87781 0.89565 0.74001 0.0
H923 H 0.90504 0.87213 0.73023 0.0
H924 H 0.60273 0.12606 0.19108 0.0
H925 H 0.63169 0.1028 0.19242 0.0
H926 H 0.61282 0.08095 0.25162 0.0
H927 H 0.58375 0.10375 0.25025 0.0
H928 H 0.66076 0.10634 0.22031 0.0
H929 H 0.62949 0.0271 0.22522 0.0
H930 H 0.61481 0.04907 0.21676 0.0
H931 H 0.61788 0.04385 0.24361 0.0
C932 C 0.60452 0.11597 0.20419 0.0
C933 C 0.591 0.11683 0.22062 0.0
C934 C 0.62106 0.10266 0.2049 0.0
C935 C 0.62427 0.08991 0.22197 0.0
C936 C 0.61038 0.09022 0.23803 0.0
H937 H 0.7108 0.0409 0.29686 0.0
H938 H 0.68139 0.05047 0.277 0.0
C939 C 0.59385 0.10344 0.23732 0.0
C940 C 0.64335 0.07844 0.22444 0.0
H941 H 0.66229 0.0321 0.24094 0.0
C942 C 0.66121 0.08995 0.22423 0.0
C943 C 0.64391 0.05705 0.22946 0.0
C944 C 0.62548 0.04353 0.22855 0.0
C945 C 0.67933 0.08109 0.23061 0.0
C946 C 0.67956 0.06012 0.23714 0.0
C947 C 0.66201 0.0482 0.23599 0.0
C948 C 0.697 0.05147 0.2481 0.0
C949 C 0.69776 0.09462 0.23179 0.0
C950 C 0.71541 0.0483 0.23828 0.0
C951 C 0.73236 0.04281 0.24964 0.0
C952 C 0.73107 0.04053 0.27095 0.0
C953 C 0.71235 0.04272 0.2805 0.0
C954 C 0.69549 0.04808 0.26916 0.0
H955 H 0.69449 0.11117 0.2282 0.0
H956 H 0.70444 0.09379 0.24729 0.0
H957 H 0.70909 0.0889 0.22076 0.0
H958 H 0.71678 0.05069 0.22197 0.0
H959 H 0.74656 0.04116 0.24185 0.0
H960 H 0.37687 0.61019 0.3085 0.0
H961 H 0.34854 0.58771 0.2995 0.0
H962 H 0.36422 0.59284 0.23585 0.0
H963 H 0.39251 0.61493 0.24463 0.0
H964 H 0.31688 0.59922 0.27537 0.0
H965 H 0.35425 0.53093 0.24138 0.0
H966 H 0.36738 0.54942 0.25726 0.0
H967 H 0.36355 0.55463 0.23052 0.0
C968 C 0.37447 0.60621 0.29262 0.0
C969 C 0.38693 0.61435 0.27727 0.0
C970 C 0.35829 0.59338 0.28753 0.0
C971 C 0.35449 0.58831 0.26705 0.0
C972 C 0.36717 0.59609 0.25179 0.0
H973 H 0.26752 0.55968 0.18203 0.0
H974 H 0.29633 0.56788 0.20342 0.0
C975 C 0.38326 0.6089 0.25684 0.0
C976 C 0.33625 0.5767 0.26113 0.0
H977 H 0.32035 0.53784 0.22957 0.0
C978 C 0.31756 0.58544 0.26583 0.0
C979 C 0.33719 0.55867 0.2488 0.0
C980 C 0.35669 0.54775 0.24439 0.0
C981 C 0.29991 0.57761 0.25712 0.0
C982 C 0.30108 0.5606 0.24351 0.0
C983 C 0.31958 0.55099 0.23992 0.0
C984 C 0.28381 0.55443 0.23084 0.0
C985 C 0.2803 0.5884 0.26135 0.0
C986 C 0.26735 0.54394 0.23922 0.0
C987 C 0.25079 0.53914 0.22699 0.0
C988 C 0.25049 0.54488 0.20626 0.0
C989 C 0.26721 0.55511 0.19795 0.0
C990 C 0.28372 0.55976 0.21011 0.0
H991 H 0.28215 0.60223 0.27135 0.0
H992 H 0.27329 0.59341 0.24679 0.0
H993 H 0.26986 0.57738 0.26889 0.0
H994 H 0.26726 0.53964 0.2552 0.0
H995 H 0.23815 0.53123 0.23382 0.0
H996 H 0.25271 0.43706 0.69943 0.0
H997 H 0.2266 0.42393 0.72206 0.0
H998 H 0.18361 0.46465 0.69356 0.0
H999 H 0.20958 0.47766 0.67051 0.0
H1000 H 0.19935 0.44223 0.74986 0.0
H1001 H 0.16109 0.40617 0.68317 0.0
H1002 H 0.1861 0.41658 0.68162 0.0
H1003 H 0.16492 0.43378 0.68156 0.0
C1004 C 0.23777 0.44346 0.69812 0.0
C1005 C 0.23314 0.45817 0.68294 0.0
C1006 C 0.22288 0.43596 0.71112 0.0
C1007 C 0.20313 0.44304 0.7092 0.0
C1008 C 0.19871 0.45872 0.69499 0.0
H1009 H 0.09535 0.3856 0.75882 0.0
H1010 H 0.11819 0.41121 0.74402 0.0
C1011 C 0.21358 0.46617 0.68189 0.0
C1012 C 0.18702 0.43275 0.72094 0.0
H1013 H 0.14657 0.40087 0.71533 0.0
C1014 C 0.18768 0.43333 0.74235 0.0
C1015 C 0.17189 0.42109 0.71106 0.0
C1016 C 0.17095 0.41915 0.6881 0.0
C1017 C 0.17368 0.42236 0.75416 0.0
C1018 C 0.15887 0.41031 0.74425 0.0
C1019 C 0.1579 0.41021 0.72287 0.0
C1020 C 0.14502 0.39651 0.75554 0.0
C1021 C 0.17489 0.42369 0.77711 0.0
C1022 C 0.15256 0.37987 0.76707 0.0
C1023 C 0.13956 0.36519 0.77553 0.0
C1024 C 0.1188 0.3668 0.77245 0.0
C1025 C 0.11126 0.38387 0.76143 0.0
C1026 C 0.12428 0.39854 0.75299 0.0
H1027 H 0.18275 0.43805 0.78211 0.0
H1028 H 0.15975 0.42341 0.7841 0.0
H1029 H 0.18342 0.41014 0.78297 0.0
H1030 H 0.16854 0.37774 0.76884 0.0
H1031 H 0.14586 0.35222 0.78391 0.0
H1032 H 0.75404 0.73571 0.941 0.0
H1033 H 0.74112 0.77087 0.93488 0.0
H1034 H 0.80118 0.79297 0.92443 0.0
H1035 H 0.81423 0.75813 0.9307 0.0
H1036 H 0.77756 0.81927 0.94986 0.0
H1037 H 0.73877 0.79772 0.87763 0.0
H1038 H 0.73248 0.78264 0.89983 0.0
H1039 H 0.75727 0.78114 0.88938 0.0
C1040 C 0.76449 0.74808 0.93747 0.0
C1041 C 0.78515 0.74408 0.9362 0.0
C1042 C 0.75708 0.76812 0.93392 0.0
C1043 C 0.7702 0.78442 0.92899 0.0
C1044 C 0.79082 0.78057 0.92819 0.0
H1045 H 0.77404 0.90929 0.88645 0.0
H1046 H 0.77992 0.87588 0.90312 0.0
C1047 C 0.79823 0.76061 0.93172 0.0
C1048 C 0.76261 0.80545 0.92407 0.0
H1049 H 0.73725 0.83273 0.88767 0.0
C1050 C 0.76858 0.82223 0.93638 0.0
C1051 C 0.75087 0.80921 0.9065 0.0
C1052 C 0.74454 0.7918 0.89244 0.0
C1053 C 0.76342 0.84277 0.93135 0.0
C1054 C 0.75232 0.84659 0.91337 0.0
C1055 C 0.74575 0.82974 0.90147 0.0
C1056 C 0.74855 0.8679 0.9057 0.0
C1057 C 0.77 0.86018 0.94526 0.0
C1058 C 0.72896 0.87452 0.90159 0.0
C1059 C 0.72554 0.89356 0.89192 0.0
C1060 C 0.7417 0.90626 0.88603 0.0
C1061 C 0.76127 0.89993 0.89085 0.0
C1062 C 0.76466 0.88088 0.90051 0.0
H1063 H 0.77253 0.85452 0.96107 0.0
H1064 H 0.78433 0.86669 0.93957 0.0
H1065 H 0.75876 0.87289 0.94565 0.0
H1066 H 0.71633 0.86467 0.90538 0.0
H1067 H 0.71028 0.89797 0.88843 0.0
H1068 H 0.20281 0.62776 0.13986 0.0
H1069 H 0.21297 0.65476 0.11588 0.0
H1070 H 0.23589 0.60796 0.0749 0.0
H1071 H 0.22602 0.58072 0.09902 0.0
H1072 H 0.26306 0.63858 0.08337 0.0
H1073 H 0.19086 0.6742 0.0614 0.0
H1074 H 0.19373 0.67234 0.08856 0.0
H1075 H 0.19248 0.64897 0.07345 0.0
C1076 C 0.20976 0.62314 0.12563 0.0
C1077 C 0.21368 0.60208 0.12139 0.0
C1078 C 0.21539 0.63861 0.11183 0.0
C1079 C 0.22489 0.63335 0.09345 0.0
C1080 C 0.22842 0.61232 0.08893 0.0
H1081 H 0.29037 0.7192 0.013 0.0
H1082 H 0.27219 0.68822 0.02438 0.0
C1083 C 0.22279 0.5968 0.10274 0.0
C1084 C 0.23293 0.64995 0.0801 0.0
H1085 H 0.22032 0.69524 0.0561 0.0
C1086 C 0.25369 0.65076 0.07703 0.0
C1087 C 0.22066 0.66581 0.07191 0.0
C1088 C 0.19817 0.6652 0.07382 0.0
C1089 C 0.26265 0.66761 0.06698 0.0
C1090 C 0.25045 0.6839 0.05951 0.0
C1091 C 0.22961 0.68271 0.06186 0.0
C1092 C 0.25927 0.7031 0.05091 0.0
C1093 C 0.28518 0.66841 0.06542 0.0
C1094 C 0.25729 0.7219 0.06157 0.0
C1095 C 0.26756 0.73961 0.05509 0.0
C1096 C 0.27998 0.73885 0.03778 0.0
C1097 C 0.28106 0.72027 0.02648 0.0
C1098 C 0.27074 0.70253 0.03299 0.0
H1099 H 0.29251 0.65652 0.07521 0.0
H1100 H 0.28971 0.6655 0.04939 0.0
H1101 H 0.29085 0.68401 0.06988 0.0
H1102 H 0.24844 0.72265 0.07541 0.0
H1103 H 0.26629 0.7537 0.06408 0.0
H1104 H 0.26078 0.37877 0.64483 0.0
H1105 H 0.25143 0.34898 0.62394 0.0
H1106 H 0.26544 0.38363 0.56939 0.0
H1107 H 0.27438 0.4139 0.5903 0.0
H1108 H 0.23043 0.364 0.56576 0.0
H1109 H 0.28631 0.308 0.59442 0.0
H1110 H 0.27248 0.31907 0.61518 0.0
H1111 H 0.28802 0.33555 0.59954 0.0
C1112 C 0.26203 0.38006 0.6284 0.0
C1113 C 0.2684 0.39868 0.61922 0.0
C1114 C 0.25684 0.36292 0.61647 0.0
C1115 C 0.25822 0.36388 0.59512 0.0
C1116 C 0.26448 0.38248 0.58586 0.0
H1117 H 0.23243 0.24555 0.53296 0.0
H1118 H 0.24989 0.27774 0.54227 0.0
C1119 C 0.26954 0.39976 0.59781 0.0
C1120 C 0.25188 0.3458 0.58264 0.0
H1121 H 0.25647 0.29305 0.57929 0.0
C1122 C 0.23638 0.34854 0.56843 0.0
C1123 C 0.25995 0.32569 0.58571 0.0
C1124 C 0.27777 0.32195 0.59938 0.0
C1125 C 0.22782 0.33149 0.55828 0.0
C1126 C 0.23459 0.31117 0.5629 0.0
C1127 C 0.25102 0.30859 0.57601 0.0
C1128 C 0.22385 0.29235 0.55572 0.0
C1129 C 0.21141 0.33546 0.54295 0.0
C1130 C 0.20349 0.28983 0.56029 0.0
C1131 C 0.19348 0.2716 0.55489 0.0
C1132 C 0.20372 0.25531 0.54509 0.0
C1133 C 0.22413 0.25782 0.54048 0.0
C1134 C 0.23411 0.2762 0.54577 0.0
H1135 H 0.21315 0.351 0.53572 0.0
H1136 H 0.21124 0.32343 0.53078 0.0
H1137 H 0.19674 0.33527 0.55087 0.0
H1138 H 0.19539 0.30176 0.56853 0.0
H1139 H 0.17781 0.27012 0.55885 0.0
H1140 H 0.69544 0.22239 0.4624 0.0
H1141 H 0.70764 0.18856 0.45079 0.0
H1142 H 0.75006 0.21923 0.41128 0.0
H1143 H 0.73846 0.25303 0.42343 0.0
H1144 H 0.70302 0.17599 0.41346 0.0
H1145 H 0.78373 0.17199 0.43091 0.0
H1146 H 0.76747 0.19105 0.44252 0.0
H1147 H 0.77789 0.19553 0.41753 0.0
C1148 C 0.70776 0.22189 0.45167 0.0
C1149 C 0.71593 0.24034 0.44372 0.0
C1150 C 0.71472 0.20256 0.44505 0.0
C1151 C 0.72986 0.2013 0.43025 0.0
C1152 C 0.73873 0.21972 0.42308 0.0
H1153 H 0.7379 0.11631 0.3316 0.0
H1154 H 0.73205 0.14445 0.35581 0.0
C1155 C 0.73198 0.23908 0.42994 0.0
C1156 C 0.73423 0.18113 0.42017 0.0
H1157 H 0.77218 0.15013 0.40304 0.0
C1158 C 0.71813 0.17017 0.41154 0.0
C1159 C 0.7539 0.17333 0.41781 0.0
C1160 C 0.77168 0.1835 0.42789 0.0
C1161 C 0.72122 0.15225 0.39982 0.0
C1162 C 0.74099 0.14539 0.39613 0.0
C1163 C 0.75705 0.15564 0.40561 0.0
C1164 C 0.74521 0.12838 0.38154 0.0
C1165 C 0.70326 0.14097 0.39127 0.0
C1166 C 0.75514 0.11026 0.38785 0.0
C1167 C 0.75867 0.09412 0.37396 0.0
C1168 C 0.75237 0.09594 0.35354 0.0
C1169 C 0.74276 0.1143 0.34725 0.0
C1170 C 0.73932 0.13039 0.36109 0.0
H1171 H 0.68964 0.14399 0.40053 0.0
H1172 H 0.70031 0.1466 0.37554 0.0
H1173 H 0.70584 0.12392 0.39064 0.0
H1174 H 0.75993 0.1085 0.40356 0.0
H1175 H 0.76621 0.08021 0.37924 0.0
H1176 H 0.11773 0.19954 0.48693 0.0
H1177 H 0.10204 0.19762 0.45327 0.0
H1178 H 0.15469 0.22467 0.42603 0.0
H1179 H 0.17062 0.22658 0.45962 0.0
H1180 H 0.09484 0.23104 0.42417 0.0
H1181 H 0.14541 0.16916 0.39463 0.0
H1182 H 0.14306 0.17484 0.42151 0.0
H1183 H 0.15738 0.19173 0.4053 0.0
C1184 C 0.12601 0.20508 0.47379 0.0
C1185 C 0.14549 0.21308 0.47593 0.0
C1186 C 0.11698 0.20403 0.4546 0.0
C1187 C 0.1273 0.21083 0.43722 0.0
C1188 C 0.14661 0.21911 0.43928 0.0
H1189 H 0.09733 0.1972 0.30883 0.0
H1190 H 0.11291 0.20854 0.34068 0.0
C1191 C 0.15565 0.22022 0.45848 0.0
C1192 C 0.11791 0.20887 0.41689 0.0
H1193 H 0.12125 0.18235 0.37196 0.0
C1194 C 0.10061 0.22047 0.41268 0.0
C1195 C 0.12557 0.1951 0.40201 0.0
C1196 C 0.14379 0.18185 0.40603 0.0
C1197 C 0.09071 0.21865 0.39386 0.0
C1198 C 0.09813 0.20454 0.37912 0.0
C1199 C 0.11563 0.19321 0.38326 0.0
C1200 C 0.08759 0.20042 0.35965 0.0
C1201 C 0.07253 0.23195 0.38989 0.0
C1202 C 0.06804 0.19242 0.35972 0.0
C1203 C 0.05904 0.18602 0.34152 0.0
C1204 C 0.06956 0.18725 0.32297 0.0
C1205 C 0.08885 0.19598 0.32287 0.0
C1206 C 0.09779 0.20247 0.34105 0.0
H1207 H 0.07254 0.24613 0.39959 0.0
H1208 H 0.07171 0.23675 0.37362 0.0
H1209 H 0.05886 0.2229 0.39358 0.0
H1210 H 0.06005 0.19027 0.37394 0.0
H1211 H 0.0442 0.17928 0.34213 0.0
H1212 H 0.38168 0.80818 -0.00233 0.0
H1213 H 0.39472 0.80799 0.96278 0.0
H1214 H 0.33628 0.7916 0.93994 0.0
H1215 H 0.32303 0.79192 0.97473 0.0
H1216 H 0.3944 0.77499 0.93323 0.0
H1217 H 0.35158 0.84444 0.90762 0.0
H1218 H 0.35477 0.83796 0.93423 0.0
H1219 H 0.33691 0.82405 0.91894 0.0
C1220 C 0.37157 0.80457 0.98523 0.0
C1221 C 0.35127 0.80023 0.98896 0.0
C1222 C 0.37907 0.80441 0.96533 0.0
C1223 C 0.3664 0.80001 0.94882 0.0
C1224 C 0.34622 0.79535 0.95248 0.0
H1225 H 0.38592 0.80725 0.81787 0.0
H1226 H 0.37207 0.79883 0.8514 0.0
C1227 C 0.3387 0.7955 0.97237 0.0
C1228 C 0.37429 0.80056 0.92774 0.0
H1229 H 0.37071 0.82695 0.88274 0.0
C1230 C 0.38923 0.78631 0.92214 0.0
C1231 C 0.36744 0.81532 0.91337 0.0
C1232 C 0.35191 0.83145 0.9188 0.0
C1233 C 0.39748 0.78639 0.90243 0.0
C1234 C 0.39082 0.80136 0.88815 0.0
C1235 C 0.37571 0.81542 0.8937 0.0
C1236 C 0.39991 0.80352 0.86764 0.0
C1237 C 0.41307 0.77034 0.89703 0.0
C1238 C 0.42024 0.80858 0.86562 0.0
C1239 C 0.42822 0.81333 0.84647 0.0
C1240 C 0.41595 0.81334 0.82903 0.0
C1241 C 0.39577 0.80744 0.831 0.0
C1242 C 0.38782 0.80263 0.85014 0.0
H1243 H 0.41209 0.7565 0.90714 0.0
H1244 H 0.4115 0.76518 0.88093 0.0
H1245 H 0.42817 0.77725 0.89896 0.0
H1246 H 0.42974 0.80977 0.87896 0.0
H1247 H 0.4438 0.81787 0.8455 0.0
H1248 H 0.68671 0.27967 0.5346 0.0
H1249 H 0.67126 0.28249 0.56838 0.0
H1250 H 0.61523 0.29976 0.54047 0.0
H1251 H 0.63042 0.29686 0.5067 0.0
H1252 H 0.65276 0.31818 0.58542 0.0
H1253 H 0.59969 0.25202 0.57941 0.0
H1254 H 0.62084 0.25506 0.56251 0.0
H1255 H 0.59848 0.27005 0.5585 0.0
C1256 C 0.67108 0.28399 0.53564 0.0
C1257 C 0.65978 0.28798 0.51796 0.0
C1258 C 0.66229 0.28557 0.55494 0.0
C1259 C 0.64204 0.29097 0.55685 0.0
C1260 C 0.63077 0.29513 0.53927 0.0
H1261 H 0.55947 0.32205 0.65243 0.0
H1262 H 0.57609 0.31227 0.62058 0.0
C1263 C 0.63954 0.29361 0.51999 0.0
C1264 C 0.63285 0.2932 0.57726 0.0
H1265 H 0.59482 0.27531 0.60729 0.0
C1266 C 0.64023 0.30867 0.59034 0.0
C1267 C 0.61649 0.28079 0.58351 0.0
C1268 C 0.60849 0.26341 0.57034 0.0
C1269 C 0.63124 0.31257 0.60929 0.0
C1270 C 0.61469 0.30034 0.61545 0.0
C1271 C 0.60751 0.28463 0.6025 0.0
C1272 C 0.60419 0.30423 0.63495 0.0
C1273 C 0.63906 0.33024 0.62221 0.0
C1274 C 0.6143 0.30225 0.65361 0.0
C1275 C 0.60489 0.30789 0.67182 0.0
C1276 C 0.58515 0.31546 0.67167 0.0
C1277 C 0.57471 0.31636 0.65305 0.0
C1278 C 0.58417 0.31078 0.63484 0.0
H1279 H 0.64863 0.34105 0.61327 0.0
H1280 H 0.62655 0.33925 0.62902 0.0
H1281 H 0.64824 0.32382 0.63484 0.0
H1282 H 0.62963 0.29678 0.65403 0.0
H1283 H 0.61328 0.30682 0.68592 0.0
H1284 H 0.93859 0.68174 0.14378 0.0
H1285 H 0.92339 0.6868 0.11016 0.0
H1286 H 0.86538 0.69343 0.13821 0.0
H1287 H 0.88039 0.68849 0.17187 0.0
H1288 H 0.8928 0.66004 0.09454 0.0
H1289 H 0.86825 0.74259 0.09743 0.0
H1290 H 0.88707 0.73216 0.11438 0.0
H1291 H 0.86104 0.72701 0.119 0.0
C1292 C 0.92265 0.68462 0.14284 0.0
C1293 C 0.91068 0.68465 0.16049 0.0
C1294 C 0.914 0.68748 0.12362 0.0
C1295 C 0.89332 0.69065 0.12177 0.0
C1296 C 0.88142 0.69133 0.13937 0.0
H1297 H 0.80953 0.69759 0.02103 0.0
H1298 H 0.82575 0.69686 0.05453 0.0
C1299 C 0.89002 0.68839 0.15858 0.0
C1300 C 0.88393 0.69148 0.10136 0.0
H1301 H 0.85628 0.72229 0.06969 0.0
C1302 C 0.88494 0.67369 0.08901 0.0
C1303 C 0.87354 0.70925 0.09436 0.0
C1304 C 0.87249 0.72893 0.10688 0.0
C1305 C 0.87552 0.67304 0.0699 0.0
C1306 C 0.8652 0.69085 0.06283 0.0
C1307 C 0.8642 0.70867 0.07518 0.0
C1308 C 0.85544 0.6913 0.04256 0.0
C1309 C 0.87626 0.65312 0.05771 0.0
C1310 C 0.86683 0.68863 0.02478 0.0
C1311 C 0.85762 0.68892 0.00566 0.0
C1312 C 0.83686 0.6921 0.00397 0.0
C1313 C 0.82553 0.69503 0.02182 0.0
C1314 C 0.83476 0.69467 0.04096 0.0
H1315 H 0.8799 0.63951 0.06747 0.0
H1316 H 0.86178 0.65015 0.04992 0.0
H1317 H 0.88807 0.65444 0.04588 0.0
H1318 H 0.88287 0.68645 0.02568 0.0
H1319 H 0.86682 0.68679 0.99221 0.0
H1320 H 0.34044 0.07205 0.23883 0.0
H1321 H 0.37192 0.0902 0.24577 0.0
H1322 H 0.40026 0.0569 0.19651 0.0
H1323 H 0.36894 0.03859 0.18948 0.0
H1324 H 0.42385 0.06113 0.23378 0.0
H1325 H 0.39225 0.13577 0.20513 0.0
H1326 H 0.37816 0.12271 0.2247 0.0
H1327 H 0.38068 0.11093 0.19999 0.0
C1328 C 0.35343 0.06836 0.22964 0.0
C1329 C 0.35214 0.05403 0.21346 0.0
C1330 C 0.37136 0.07882 0.23358 0.0
C1331 C 0.38825 0.07508 0.22143 0.0
C1332 C 0.38731 0.06003 0.20597 0.0
H1333 H 0.49347 0.14616 0.19457 0.0
H1334 H 0.46177 0.12715 0.19465 0.0
C1335 C 0.3694 0.04961 0.20197 0.0
C1336 C 0.40661 0.0876 0.22404 0.0
H1337 H 0.42551 0.13644 0.21706 0.0
C1338 C 0.42423 0.07762 0.23029 0.0
C1339 C 0.407 0.10904 0.2192 0.0
C1340 C 0.38859 0.12031 0.21172 0.0
C1341 C 0.44235 0.08857 0.23177 0.0
C1342 C 0.44271 0.11002 0.22699 0.0
C1343 C 0.42507 0.12001 0.22083 0.0
C1344 C 0.46149 0.12214 0.2273 0.0
C1345 C 0.46108 0.07702 0.23784 0.0
C1346 C 0.47156 0.12592 0.2457 0.0
C1347 C 0.48965 0.13683 0.24573 0.0
C1348 C 0.49794 0.14412 0.22734 0.0
C1349 C 0.48753 0.1407 0.20899 0.0
C1350 C 0.46942 0.12986 0.20899 0.0
H1351 H 0.45898 0.05988 0.23736 0.0
H1352 H 0.47371 0.08125 0.22765 0.0
H1353 H 0.46528 0.08145 0.25365 0.0
H1354 H 0.46548 0.12033 0.26001 0.0
H1355 H 0.49725 0.13927 0.26013 0.0
H1356 H 0.02613 0.81287 0.72619 0.0
H1357 H 0.05622 0.83448 0.72377 0.0
H1358 H 0.0197 0.88824 0.71104 0.0
H1359 H 0.98958 0.86691 0.71363 0.0
H1360 H 0.06873 0.8572 0.68991 0.0
H1361 H 0.0568 0.90879 0.75671 0.0
H1362 H 0.04334 0.88466 0.75326 0.0
H1363 H 0.03582 0.90763 0.73961 0.0
C1364 C 0.02449 0.82932 0.72301 0.0
C1365 C 0.00547 0.83818 0.72013 0.0
C1366 C 0.04169 0.84163 0.72166 0.0
C1367 C 0.04013 0.86299 0.71755 0.0
C1368 C 0.02119 0.87187 0.71467 0.0
H1369 H 0.12907 0.94451 0.66604 0.0
H1370 H 0.09909 0.92434 0.67408 0.0
C1371 C 0.004 0.85961 0.716 0.0
C1372 C 0.05836 0.87581 0.71512 0.0
H1373 H 0.08218 0.9191 0.73313 0.0
C1374 C 0.07175 0.87065 0.69944 0.0
C1375 C 0.06233 0.8932 0.72772 0.0
C1376 C 0.04892 0.89883 0.7454 0.0
C1377 C 0.08879 0.88277 0.69567 0.0
C1378 C 0.09231 0.90067 0.70771 0.0
C1379 C 0.07924 0.90551 0.72377 0.0
C1380 C 0.10957 0.91446 0.70377 0.0
C1381 C 0.10294 0.87627 0.67889 0.0
C1382 C 0.12497 0.91624 0.7182 0.0
C1383 C 0.14212 0.92783 0.7137 0.0
C1384 C 0.14405 0.93787 0.69472 0.0
C1385 C 0.12812 0.93685 0.68073 0.0
C1386 C 0.11102 0.92526 0.68524 0.0
H1387 H 0.10076 0.85973 0.67449 0.0
H1388 H 0.10019 0.88602 0.66519 0.0
H1389 H 0.11875 0.87852 0.68362 0.0
H1390 H 0.12402 0.9081 0.73264 0.0
H1391 H 0.15409 0.92838 0.72484 0.0
H1392 H 0.00379 0.33952 0.77147 0.0
H1393 H 0.97071 0.35552 0.7687 0.0
H1394 H 0.99022 0.40629 0.80689 0.0
H1395 H 0.02343 0.3906 0.80952 0.0
H1396 H 0.94398 0.36513 0.79955 0.0
H1397 H 0.9665 0.43632 0.75755 0.0
H1398 H 0.98263 0.41392 0.75993 0.0
H1399 H 0.98036 0.43212 0.78066 0.0
C1400 C 0.00107 0.35411 0.77926 0.0
C1401 C 0.01627 0.36385 0.79064 0.0
C1402 C 0.98217 0.36323 0.77763 0.0
C1403 C 0.97816 0.38227 0.78726 0.0
C1404 C 0.99317 0.39185 0.79892 0.0
H1405 H 0.87477 0.45818 0.80955 0.0
H1406 H 0.90832 0.44343 0.80627 0.0
C1407 C 0.01209 0.38277 0.80054 0.0
C1408 C 0.95805 0.39175 0.78571 0.0
H1409 H 0.93338 0.43584 0.77111 0.0
C1410 C 0.94161 0.3805 0.79316 0.0
C1411 C 0.95506 0.41181 0.77734 0.0
C1412 C 0.97203 0.42419 0.76823 0.0
C1413 C 0.9223 0.38902 0.79303 0.0
C1414 C 0.91936 0.4092 0.78496 0.0
C1415 C 0.93574 0.42037 0.77727 0.0
C1416 C 0.89947 0.41923 0.78517 0.0
C1417 C 0.9053 0.37665 0.80213 0.0
C1418 C 0.88357 0.41089 0.77385 0.0
C1419 C 0.86436 0.41926 0.77567 0.0
C1420 C 0.86078 0.43615 0.78884 0.0
C1421 C 0.87698 0.4451 0.79937 0.0
C1422 C 0.89618 0.43672 0.79751 0.0
H1423 H 0.91075 0.36336 0.81143 0.0
H1424 H 0.89573 0.3867 0.81187 0.0
H1425 H 0.89585 0.37035 0.78964 0.0
H1426 H 0.88593 0.39759 0.76398 0.0
H1427 H 0.85223 0.41209 0.76726 0.0
H1428 H 0.51252 0.67582 0.2672 0.0
H1429 H 0.54496 0.65883 0.27204 0.0
H1430 H 0.51509 0.602 0.28926 0.0
H1431 H 0.48265 0.61871 0.28429 0.0
H1432 H 0.55954 0.64116 0.30794 0.0
H1433 H 0.55531 0.58253 0.24596 0.0
H1434 H 0.53896 0.60488 0.2471 0.0
H1435 H 0.53397 0.5824 0.26262 0.0
C1436 C 0.51285 0.65967 0.27189 0.0
C1437 C 0.49501 0.6486 0.27532 0.0
C1438 C 0.53138 0.64999 0.27463 0.0
C1439 C 0.53239 0.62908 0.28068 0.0
C1440 C 0.51463 0.61802 0.28415 0.0
H1441 H 0.62732 0.5634 0.34111 0.0
H1442 H 0.59624 0.5803 0.33066 0.0
C1443 C 0.4961 0.62766 0.28144 0.0
C1444 C 0.55198 0.61909 0.28444 0.0
H1445 H 0.581 0.57761 0.27089 0.0
C1446 C 0.56432 0.62737 0.29973 0.0
C1447 C 0.55825 0.60125 0.27353 0.0
C1448 C 0.54603 0.59233 0.25624 0.0
C1449 C 0.58251 0.61788 0.30488 0.0
C1450 C 0.58833 0.59947 0.29464 0.0
C1451 C 0.57634 0.59158 0.27887 0.0
C1452 C 0.60671 0.5881 0.30037 0.0
C1453 C 0.59538 0.62762 0.32123 0.0
C1454 C 0.62258 0.58624 0.2865 0.0
C1455 C 0.64038 0.5765 0.29239 0.0
C1456 C 0.6425 0.56838 0.31221 0.0
C1457 C 0.62624 0.56961 0.32578 0.0
C1458 C 0.6085 0.57935 0.31989 0.0
H1459 H 0.59142 0.64421 0.32382 0.0
H1460 H 0.59313 0.61912 0.33579 0.0
H1461 H 0.61148 0.62666 0.31715 0.0
H1462 H 0.62138 0.59278 0.27132 0.0
H1463 H 0.6526 0.57574 0.28156 0.0
H1464 H 0.20259 0.32783 0.05211 0.0
H1465 H 0.20955 0.36338 0.06351 0.0
H1466 H 0.20089 0.34444 0.12605 0.0
H1467 H 0.19438 0.30891 0.11489 0.0
H1468 H 0.18324 0.3881 0.08338 0.0
H1469 H 0.25118 0.37881 0.13076 0.0
H1470 H 0.24276 0.35896 0.11324 0.0
H1471 H 0.23172 0.36116 0.13822 0.0
C1472 C 0.20254 0.33116 0.06832 0.0
C1473 C 0.1979 0.31555 0.0826 0.0
C1474 C 0.20651 0.35147 0.0748 0.0
C1475 C 0.206 0.3565 0.09564 0.0
C1476 C 0.20186 0.34083 0.10993 0.0
H1477 H 0.19389 0.46436 0.17095 0.0
H1478 H 0.19587 0.42963 0.15577 0.0
C1479 C 0.19799 0.32053 0.10349 0.0
C1480 C 0.20785 0.37841 0.1024 0.0
H1481 H 0.23194 0.40997 0.13639 0.0
C1482 C 0.19411 0.39297 0.09472 0.0
C1483 C 0.22202 0.38471 0.11721 0.0
C1484 C 0.23788 0.37012 0.12518 0.0
C1485 C 0.19362 0.41345 0.10208 0.0
C1486 C 0.2073 0.4195 0.11741 0.0
C1487 C 0.22139 0.40516 0.12472 0.0
C1488 C 0.20669 0.44048 0.12655 0.0
C1489 C 0.17801 0.42829 0.09401 0.0
C1490 C 0.2123 0.45797 0.11512 0.0
C1491 C 0.21124 0.47782 0.12374 0.0
C1492 C 0.2045 0.48048 0.14392 0.0
C1493 C 0.19905 0.46286 0.15535 0.0
C1494 C 0.20023 0.44301 0.14675 0.0
H1495 H 0.1666 0.42027 0.0845 0.0
H1496 H 0.17034 0.43633 0.10681 0.0
H1497 H 0.1854 0.44034 0.08451 0.0
H1498 H 0.21748 0.45624 0.09955 0.0
H1499 H 0.21559 0.49107 0.11455 0.0
H1500 H 0.72441 0.01691 0.85956 0.0
H1501 H 0.72129 0.05248 0.87229 0.0
H1502 H 0.67486 0.03287 0.91375 0.0
H1503 H 0.67773 -0.00281 0.90099 0.0
H1504 H 0.66499 0.06798 0.89059 0.0
H1505 H 0.73931 0.07705 0.92725 0.0
H1506 H 0.74049 0.06785 0.90139 0.0
H1507 H 0.72896 0.05196 0.92066 0.0
C1508 C 0.71362 0.0201 0.8715 0.0
C1509 C 0.70131 0.00421 0.87927 0.0
C1510 C 0.71197 0.04041 0.87885 0.0
C1511 C 0.69807 0.04521 0.89417 0.0
C1512 C 0.68579 0.02941 0.90202 0.0
H1513 H 0.68781 0.16633 0.95422 0.0
H1514 H 0.692 0.12905 0.94755 0.0
C1515 C 0.68746 0.00906 0.89471 0.0
C1516 C 0.69553 0.06697 0.90105 0.0
H1517 H 0.72059 0.10824 0.92166 0.0
C1518 C 0.67708 0.07673 0.89756 0.0
C1519 C 0.71127 0.07825 0.91033 0.0
C1520 C 0.73107 0.06821 0.91533 0.0
C1521 C 0.67415 0.09774 0.90247 0.0
C1522 C 0.69019 0.10929 0.91084 0.0
C1523 C 0.70841 0.09935 0.91503 0.0
C1524 C 0.6884 0.13184 0.91485 0.0
C1525 C 0.65394 0.10745 0.89861 0.0
C1526 C 0.68544 0.14571 0.89862 0.0
C1527 C 0.68308 0.16694 0.90234 0.0
C1528 C 0.6837 0.17471 0.9224 0.0
C1529 C 0.68718 0.16082 0.93861 0.0
C1530 C 0.68958 0.13955 0.93484 0.0
H1531 H 0.64202 0.09548 0.89711 0.0
H1532 H 0.64983 0.1183 0.91111 0.0
H1533 H 0.65449 0.11644 0.88416 0.0
H1534 H 0.68483 0.14006 0.88304 0.0
H1535 H 0.68053 0.17721 0.8895 0.0
H1536 H 0.82066 0.98475 0.35913 0.0
H1537 H 0.82074 0.95065 0.3758 0.0
H1538 H 0.75657 0.94724 0.36994 0.0
H1539 H 0.75627 0.98126 0.35322 0.0
H1540 H 0.77427 0.9368 0.4107 0.0
H1541 H 0.8074 0.8944 0.34477 0.0
H1542 H 0.81989 0.91792 0.35256 0.0
H1543 H 0.79512 0.91929 0.34205 0.0
C1544 C 0.80656 0.97677 0.3614 0.0
C1545 C 0.78847 0.98565 0.35476 0.0
C1546 C 0.80665 0.9573 0.37088 0.0
C1547 C 0.78868 0.94647 0.37392 0.0
C1548 C 0.77058 0.95541 0.36765 0.0
H1549 H 0.77486 0.81607 0.4048 0.0
H1550 H 0.76995 0.85112 0.39114 0.0
C1551 C 0.77047 0.9748 0.35806 0.0
C1552 C 0.78877 0.92568 0.38346 0.0
H1553 H 0.80313 0.87544 0.37538 0.0
C1554 C 0.78053 0.92334 0.40302 0.0
C1555 C 0.79675 0.90822 0.37322 0.0
C1556 C 0.80518 0.90991 0.35192 0.0
C1557 C 0.78045 0.90392 0.41282 0.0
C1558 C 0.78886 0.88657 0.40275 0.0
C1559 C 0.79674 0.88885 0.38303 0.0
C1560 C 0.79011 0.8659 0.41251 0.0
C1561 C 0.7713 0.90203 0.43378 0.0
C1562 C 0.8029 0.86275 0.42918 0.0
C1563 C 0.80583 0.84275 0.43697 0.0
C1564 C 0.796 0.82559 0.42818 0.0
C1565 C 0.78262 0.82895 0.41194 0.0
C1566 C 0.77981 0.84894 0.40409 0.0
H1567 H 0.76174 0.91563 0.43756 0.0
H1568 H 0.76217 0.88764 0.43495 0.0
H1569 H 0.78343 0.90107 0.44532 0.0
H1570 H 0.81117 0.87564 0.4357 0.0
H1571 H 0.81623 0.84068 0.44949 0.0
H1572 H 0.27084 0.51329 0.60533 0.0
H1573 H 0.2716 0.54796 0.58975 0.0
H1574 H 0.30823 0.57038 0.63925 0.0
H1575 H 0.30752 0.5359 0.65502 0.0
H1576 H 0.26059 0.58943 0.61002 0.0
H1577 H 0.33928 0.58188 0.58328 0.0
H1578 H 0.32379 0.55961 0.58911 0.0
H1579 H 0.33454 0.57471 0.60938 0.0
C1580 C 0.27901 0.52561 0.61294 0.0
C1581 C 0.28922 0.52183 0.63136 0.0
C1582 C 0.27937 0.54538 0.60404 0.0
C1583 C 0.29009 0.56156 0.61332 0.0
C1584 C 0.3 0.55797 0.63184 0.0
H1585 H 0.29902 0.69344 0.59924 0.0
H1586 H 0.29081 0.65801 0.60986 0.0
C1587 C 0.29954 0.53828 0.64082 0.0
C1588 C 0.29137 0.58217 0.60349 0.0
H1589 H 0.32436 0.61518 0.58053 0.0
C1590 C 0.27445 0.59507 0.60341 0.0
C1591 C 0.30943 0.58926 0.59473 0.0
C1592 C 0.32781 0.57565 0.59392 0.0
C1593 C 0.27535 0.61529 0.59534 0.0
C1594 C 0.29365 0.62267 0.58729 0.0
C1595 C 0.31036 0.60947 0.58677 0.0
C1596 C 0.2962 0.64434 0.58018 0.0
C1597 C 0.25678 0.62862 0.59553 0.0
C1598 C 0.3019 0.64836 0.55997 0.0
C1599 C 0.30664 0.66859 0.55384 0.0
C1600 C 0.30599 0.6851 0.56793 0.0
C1601 C 0.29967 0.68108 0.58802 0.0
C1602 C 0.29484 0.66087 0.59409 0.0
H1603 H 0.24301 0.61909 0.59722 0.0
H1604 H 0.25755 0.63954 0.60863 0.0
H1605 H 0.25563 0.63796 0.58132 0.0
H1606 H 0.30314 0.63575 0.54906 0.0
H1607 H 0.31146 0.67116 0.53826 0.0
H1608 H 0.81747 0.79087 0.53108 0.0
H1609 H 0.83506 0.79086 0.56383 0.0
H1610 H 0.88635 0.76229 0.53542 0.0
H1611 H 0.86888 0.7621 0.5026 0.0
H1612 H 0.87436 0.74422 0.57388 0.0
H1613 H 0.88275 0.83018 0.5771 0.0
H1614 H 0.85765 0.82116 0.57274 0.0
H1615 H 0.87662 0.81649 0.55386 0.0
C1616 C 0.83247 0.78455 0.53178 0.0
C1617 C 0.84183 0.77663 0.51421 0.0
C1618 C 0.84251 0.78462 0.55048 0.0
C1619 C 0.86205 0.77681 0.55191 0.0
C1620 C 0.87128 0.76846 0.53455 0.0
H1621 H 0.94139 0.80189 0.65396 0.0
H1622 H 0.92813 0.79588 0.61969 0.0
C1623 C 0.86129 0.76843 0.51582 0.0
C1624 C 0.87296 0.77761 0.57151 0.0
H1625 H 0.89146 0.81138 0.60694 0.0
C1626 C 0.87821 0.75887 0.58111 0.0
C1627 C 0.87818 0.79676 0.58067 0.0
C1628 C 0.8737 0.81732 0.57052 0.0
C1629 C 0.88813 0.75881 0.6 0.0
C1630 C 0.89268 0.77798 0.60951 0.0
C1631 C 0.88787 0.7967 0.59963 0.0
C1632 C 0.90191 0.77917 0.63 0.0
C1633 C 0.89374 0.73828 0.60957 0.0
C1634 C 0.89168 0.77148 0.6471 0.0
C1635 C 0.89921 0.77488 0.66671 0.0
C1636 C 0.91703 0.78617 0.66954 0.0
C1637 C 0.92761 0.79317 0.65231 0.0
C1638 C 0.92006 0.78977 0.63272 0.0
H1639 H 0.89422 0.72557 0.59807 0.0
H1640 H 0.90853 0.73927 0.61723 0.0
H1641 H 0.88239 0.73409 0.62122 0.0
H1642 H 0.87746 0.7636 0.64535 0.0
H1643 H 0.89068 0.76931 0.67966 0.0
H1644 H 0.62914 0.24344 0.00098 0.0
H1645 H 0.61231 0.24227 0.0341 0.0
H1646 H 0.66759 0.224 0.0629 0.0
H1647 H 0.68458 0.22503 0.02986 0.0
H1648 H 0.63418 0.19786 0.07115 0.0
H1649 H 0.61684 0.28136 0.0845 0.0
H1650 H 0.60982 0.27134 0.05988 0.0
H1651 H 0.6358 0.27286 0.0667 0.0
C1652 C 0.63779 0.23939 0.01439 0.0
C1653 C 0.6582 0.23426 0.01279 0.0
C1654 C 0.62816 0.23887 0.03331 0.0
C1655 C 0.63878 0.23328 0.05093 0.0
C1656 C 0.6592 0.22848 0.04945 0.0
H1657 H 0.60577 0.22583 0.17814 0.0
H1658 H 0.6203 0.23595 0.14532 0.0
C1659 C 0.66886 0.22907 0.03056 0.0
C1660 C 0.62826 0.23078 0.07061 0.0
H1661 H 0.6022 0.25699 0.10737 0.0
C1662 C 0.62722 0.21078 0.0791 0.0
C1663 C 0.6193 0.24772 0.08091 0.0
C1664 C 0.62057 0.26959 0.07268 0.0
C1665 C 0.61725 0.2072 0.09756 0.0
C1666 C 0.60796 0.22405 0.10768 0.0
C1667 C 0.60919 0.24412 0.09938 0.0
C1668 C 0.59743 0.2209 0.12723 0.0
C1669 C 0.61686 0.18546 0.10627 0.0
C1670 C 0.57941 0.20976 0.12779 0.0
C1671 C 0.57104 0.20397 0.14648 0.0
C1672 C 0.58066 0.20917 0.16489 0.0
C1673 C 0.59807 0.22146 0.16424 0.0
C1674 C 0.60637 0.22731 0.14553 0.0
H1675 H 0.62752 0.17493 0.09836 0.0
H1676 H 0.62056 0.18573 0.12279 0.0
H1677 H 0.60158 0.1789 0.10461 0.0
H1678 H 0.57227 0.20481 0.11375 0.0
H1679 H 0.55757 0.1946 0.14643 0.0
H1680 H 0.42648 0.69014 0.3339 0.0
H1681 H 0.41295 0.70324 0.36611 0.0
H1682 H 0.35686 0.71689 0.33645 0.0
H1683 H 0.37014 0.70359 0.3042 0.0
H1684 H 0.39595 0.74244 0.37696 0.0
H1685 H 0.34136 0.67741 0.38343 0.0
H1686 H 0.362 0.6769 0.36569 0.0
H1687 H 0.34011 0.69208 0.36013 0.0
C1688 C 0.41131 0.69606 0.33417 0.0
C1689 C 0.39931 0.69562 0.31653 0.0
C1690 C 0.40362 0.70357 0.35258 0.0
C1691 C 0.38382 0.7107 0.3537 0.0
C1692 C 0.37207 0.71109 0.33596 0.0
H1693 H 0.31102 0.74362 0.45925 0.0
H1694 H 0.32341 0.73908 0.4244 0.0
C1695 C 0.37972 0.70356 0.31754 0.0
C1696 C 0.3753 0.71695 0.37361 0.0
H1697 H 0.34041 0.70304 0.40911 0.0
C1698 C 0.38376 0.7339 0.384 0.0
C1699 C 0.3594 0.70574 0.38269 0.0
C1700 C 0.35025 0.68691 0.37255 0.0
C1701 C 0.37672 0.73997 0.40329 0.0
C1702 C 0.36106 0.72853 0.4125 0.0
C1703 C 0.35238 0.71181 0.40195 0.0
C1704 C 0.35398 0.73298 0.43347 0.0
C1705 C 0.386 0.75864 0.41356 0.0
C1706 C 0.36707 0.73103 0.45009 0.0
C1707 C 0.36006 0.73361 0.47001 0.0
C1708 C 0.33977 0.73803 0.47368 0.0
C1709 C 0.32673 0.74024 0.45696 0.0
C1710 C 0.33378 0.73766 0.43704 0.0
H1711 H 0.39341 0.76906 0.40234 0.0
H1712 H 0.37461 0.76772 0.42209 0.0
H1713 H 0.39754 0.75328 0.42455 0.0
H1714 H 0.38263 0.72696 0.4477 0.0
H1715 H 0.37048 0.73173 0.48254 0.0
H1716 H 0.13696 0.26638 0.99573 0.0
H1717 H 0.12253 0.26913 0.96163 0.0
H1718 H 0.18115 0.26209 0.93501 0.0
H1719 H 0.19584 0.25948 0.96918 0.0
H1720 H 0.15939 0.2959 0.91973 0.0
H1721 H 0.11401 0.22365 0.9184 0.0
H1722 H 0.10978 0.2395 0.94056 0.0
H1723 H 0.13394 0.2279 0.93657 0.0
C1724 C 0.14681 0.26526 0.98265 0.0
C1725 C 0.16757 0.26271 0.98517 0.0
C1726 C 0.13849 0.26668 0.96316 0.0
C1727 C 0.15074 0.26548 0.94583 0.0
C1728 C 0.17145 0.26288 0.94824 0.0
H1729 H 0.10732 0.26296 0.82002 0.0
H1730 H 0.12353 0.2541 0.85241 0.0
C1731 C 0.1798 0.2614 0.96775 0.0
C1732 C 0.14198 0.26827 0.92528 0.0
H1733 H 0.10664 0.24899 0.89272 0.0
C1734 C 0.148 0.28554 0.91373 0.0
C1735 C 0.12728 0.2546 0.91743 0.0
C1736 C 0.12098 0.23525 0.92878 0.0
C1737 C 0.13918 0.28993 0.8948 0.0
C1738 C 0.12379 0.27683 0.88742 0.0
C1739 C 0.11827 0.25913 0.8986 0.0
C1740 C 0.11306 0.28154 0.86825 0.0
C1741 C 0.14635 0.30857 0.88286 0.0
C1742 C 0.1014 0.2996 0.86669 0.0
C1743 C 0.0921 0.30469 0.84828 0.0
C1744 C 0.09427 0.29176 0.83111 0.0
C1745 C 0.10542 0.27329 0.83294 0.0
C1746 C 0.11469 0.26819 0.85141 0.0
H1747 H 0.16133 0.31389 0.88808 0.0
H1748 H 0.14712 0.30499 0.8663 0.0
H1749 H 0.13566 0.3216 0.88501 0.0
H1750 H 0.09971 0.30991 0.87966 0.0
H1751 H 0.08354 0.31898 0.84743 0.0
H1752 H 0.65282 0.94493 0.82207 0.0
H1753 H 0.61995 0.93122 0.8125 0.0
H1754 H 0.64526 0.86985 0.80605 0.0
H1755 H 0.67807 0.8833 0.81586 0.0
H1756 H 0.60681 0.90945 0.77735 0.0
H1757 H 0.6 0.86159 0.84763 0.0
H1758 H 0.61857 0.88178 0.84486 0.0
H1759 H 0.62227 0.85684 0.83302 0.0
C1760 C 0.65142 0.92854 0.81849 0.0
C1761 C 0.668 0.91515 0.81994 0.0
C1762 C 0.63264 0.92075 0.81302 0.0
C1763 C 0.63015 0.89947 0.80895 0.0
C1764 C 0.64682 0.88624 0.80956 0.0
H1765 H 0.52647 0.82221 0.78371 0.0
H1766 H 0.56041 0.83578 0.78815 0.0
C1767 C 0.66557 0.89399 0.81509 0.0
C1768 C 0.61002 0.89101 0.80459 0.0
H1769 H 0.57472 0.85737 0.82269 0.0
C1770 C 0.59975 0.89809 0.78725 0.0
C1771 C 0.6009 0.87622 0.81759 0.0
C1772 C 0.61089 0.86876 0.83692 0.0
C1773 C 0.58062 0.89052 0.7824 0.0
C1774 C 0.57152 0.87575 0.79543 0.0
C1775 C 0.58183 0.86863 0.81271 0.0
C1776 C 0.55107 0.8678 0.79173 0.0
C1777 C 0.57044 0.89814 0.76326 0.0
C1778 C 0.53463 0.88133 0.79244 0.0
C1779 C 0.51524 0.87365 0.78995 0.0
C1780 C 0.51195 0.85226 0.78682 0.0
C1781 C 0.52849 0.83876 0.78607 0.0
C1782 C 0.54788 0.84647 0.78859 0.0
H1783 H 0.58128 0.90515 0.75239 0.0
H1784 H 0.56242 0.88525 0.75546 0.0
H1785 H 0.5593 0.91023 0.76737 0.0
H1786 H 0.53678 0.89779 0.79527 0.0
H1787 H 0.50283 0.88446 0.79068 0.0
H1788 H 0.80765 0.09823 0.27562 0.0
H1789 H 0.84079 0.11233 0.268 0.0
H1790 H 0.86821 0.05982 0.29793 0.0
H1791 H 0.83517 0.04547 0.30545 0.0
H1792 H 0.86844 0.12316 0.29805 0.0
H1793 H 0.90042 0.06473 0.24493 0.0
H1794 H 0.87393 0.06651 0.25012 0.0
H1795 H 0.89031 0.05379 0.26795 0.0
C1796 C 0.82072 0.08948 0.28028 0.0
C1797 C 0.81878 0.07076 0.29121 0.0
C1798 C 0.83964 0.09758 0.27592 0.0
C1799 C 0.85692 0.08702 0.28224 0.0
C1800 C 0.85506 0.06801 0.29258 0.0
H1801 H 0.9829 0.11354 0.29111 0.0
H1802 H 0.94924 0.09866 0.2922 0.0
C1803 C 0.83615 0.05989 0.29696 0.0
C1804 C 0.8768 0.09677 0.27968 0.0
H1805 H 0.92326 0.08918 0.25939 0.0
C1806 C 0.88038 0.11586 0.28942 0.0
C1807 C 0.89233 0.08712 0.2685 0.0
C1808 C 0.88906 0.067 0.25711 0.0
C1809 C 0.89928 0.12531 0.28877 0.0
C1810 C 0.91487 0.11555 0.27778 0.0
C1811 C 0.91124 0.09658 0.26782 0.0
C1812 C 0.93519 0.1246 0.2768 0.0
C1813 C 0.90257 0.14531 0.30039 0.0
C1814 C 0.93841 0.14402 0.26761 0.0
C1815 C 0.9576 0.15261 0.26702 0.0
C1816 C 0.97392 0.14185 0.27551 0.0
C1817 C 0.97065 0.12226 0.2845 0.0
C1818 C 0.95145 0.11371 0.28509 0.0
H1819 H 0.89061 0.14809 0.31185 0.0
H1820 H 0.91725 0.14515 0.30834 0.0
H1821 H 0.90253 0.15855 0.28953 0.0
H1822 H 0.92608 0.15249 0.26082 0.0
H1823 H 0.95963 0.16765 0.25986 0.0
H1824 H 0.14409 0.54986 0.16834 0.0
H1825 H 0.11078 0.56268 0.17722 0.0
H1826 H 0.13619 0.59992 0.22546 0.0
H1827 H 0.16964 0.58738 0.21659 0.0
H1828 H 0.08866 0.56208 0.21455 0.0
H1829 H 0.10685 0.64221 0.18836 0.0
H1830 H 0.12224 0.62002 0.18218 0.0
H1831 H 0.12356 0.63152 0.20713 0.0
C1832 C 0.14261 0.56064 0.18097 0.0
C1833 C 0.15955 0.56779 0.19161 0.0
C1834 C 0.12356 0.56791 0.18603 0.0
C1835 C 0.12112 0.58248 0.20176 0.0
C1836 C 0.13785 0.58893 0.21304 0.0
H1837 H 0.00705 0.626 0.25067 0.0
H1838 H 0.04032 0.61062 0.24675 0.0
C1839 C 0.15692 0.58168 0.20799 0.0
C1840 C 0.10118 0.59158 0.20568 0.0
H1841 H 0.0749 0.63701 0.20284 0.0
C1842 C 0.08562 0.57847 0.21209 0.0
C1843 C 0.0973 0.61291 0.20216 0.0
C1844 C 0.11329 0.62751 0.19441 0.0
C1845 C 0.06619 0.58617 0.21512 0.0
C1846 C 0.06239 0.60756 0.21186 0.0
C1847 C 0.07796 0.62065 0.20545 0.0
C1848 C 0.04219 0.61659 0.21431 0.0
C1849 C 0.04979 0.5713 0.22128 0.0
C1850 C 0.03244 0.62538 0.19743 0.0
C1851 C 0.0135 0.63426 0.19961 0.0
C1852 C 0.00403 0.63462 0.21877 0.0
C1853 C 0.01391 0.6259 0.23569 0.0
C1854 C 0.03286 0.617 0.23348 0.0
H1855 H 0.05417 0.55482 0.21879 0.0
H1856 H 0.04647 0.57339 0.23775 0.0
H1857 H 0.03586 0.57449 0.21258 0.0
H1858 H 0.03947 0.62528 0.18253 0.0
H1859 H 0.00633 0.64087 0.18628 0.0
H1860 H 0.35039 0.45313 0.64825 0.0
H1861 H 0.38472 0.44191 0.65497 0.0
H1862 H 0.36499 0.40956 0.70898 0.0
H1863 H 0.33054 0.42055 0.70235 0.0
H1864 H 0.40942 0.44779 0.69054 0.0
H1865 H 0.39351 0.36447 0.67422 0.0
H1866 H 0.37674 0.38513 0.66676 0.0
H1867 H 0.37751 0.37653 0.69283 0.0
C1868 C 0.35334 0.44371 0.66163 0.0
C1869 C 0.3377 0.43757 0.67468 0.0
C1870 C 0.37296 0.43735 0.66544 0.0
C1871 C 0.37727 0.42467 0.68228 0.0
C1872 C 0.36185 0.41907 0.69571 0.0
H1873 H 0.48551 0.36223 0.72206 0.0
H1874 H 0.45158 0.37603 0.71887 0.0
C1875 C 0.34221 0.42545 0.69194 0.0
C1876 C 0.39786 0.41695 0.68548 0.0
H1877 H 0.42603 0.37269 0.68573 0.0
C1878 C 0.41311 0.43138 0.6895 0.0
C1879 C 0.40251 0.39554 0.68409 0.0
C1880 C 0.38678 0.37948 0.67908 0.0
C1881 C 0.43296 0.42492 0.69241 0.0
C1882 C 0.43765 0.40351 0.69083 0.0
C1883 C 0.42235 0.38909 0.68693 0.0
C1884 C 0.45836 0.3957 0.69299 0.0
C1885 C 0.44866 0.44099 0.69747 0.0
C1886 C 0.47334 0.40205 0.67934 0.0
C1887 C 0.49276 0.39423 0.68113 0.0
C1888 C 0.49748 0.37979 0.6965 0.0
C1889 C 0.48238 0.37335 0.71005 0.0
C1890 C 0.46299 0.38121 0.70827 0.0
H1891 H 0.44187 0.45552 0.7035 0.0
H1892 H 0.45945 0.43492 0.70889 0.0
H1893 H 0.45707 0.44499 0.68341 0.0
H1894 H 0.46994 0.41287 0.66715 0.0
H1895 H 0.50402 0.39942 0.67038 0.0
H1896 H 0.78922 0.65727 0.87668 0.0
H1897 H 0.77942 0.62329 0.86357 0.0
H1898 H 0.78032 0.59828 0.92466 0.0
H1899 H 0.79064 0.63222 0.93791 0.0
H1900 H 0.80313 0.57607 0.89948 0.0
H1901 H 0.7296 0.58811 0.86281 0.0
H1902 H 0.74755 0.60685 0.85411 0.0
H1903 H 0.74017 0.60661 0.88055 0.0
C1904 C 0.7869 0.64469 0.88742 0.0
C1905 C 0.79089 0.6474 0.90832 0.0
C1906 C 0.78112 0.62527 0.8799 0.0
C1907 C 0.77892 0.60828 0.89315 0.0
C1908 C 0.78185 0.61122 0.91418 0.0
H1909 H 0.74972 0.48452 0.84432 0.0
H1910 H 0.74813 0.51696 0.86391 0.0
C1911 C 0.78775 0.63062 0.92171 0.0
C1912 C 0.77628 0.58705 0.88473 0.0
H1913 H 0.74885 0.55863 0.85072 0.0
C1914 C 0.79104 0.57216 0.8891 0.0
C1915 C 0.76043 0.58184 0.87136 0.0
C1916 C 0.74343 0.59665 0.86711 0.0
C1917 C 0.79095 0.5526 0.87967 0.0
C1918 C 0.77593 0.54797 0.86517 0.0
C1919 C 0.76054 0.56238 0.8616 0.0
C1920 C 0.77652 0.52863 0.85295 0.0
C1921 C 0.80709 0.53715 0.88514 0.0
C1922 C 0.79282 0.52471 0.84002 0.0
C1923 C 0.79381 0.50625 0.82887 0.0
C1924 C 0.77843 0.49141 0.83034 0.0
C1925 C 0.76186 0.49561 0.84293 0.0
C1926 C 0.7609 0.51412 0.85411 0.0
H1927 H 0.81359 0.54048 0.90041 0.0
H1928 H 0.80121 0.52099 0.88508 0.0
H1929 H 0.81934 0.53817 0.87375 0.0
H1930 H 0.80483 0.53595 0.8386 0.0
H1931 H 0.80671 0.50357 0.81921 0.0
H1932 H 0.26238 0.8284 0.09553 0.0
H1933 H 0.25536 0.86045 0.11428 0.0
H1934 H 0.2966 0.89383 0.07565 0.0
H1935 H 0.30339 0.86198 0.05654 0.0
H1936 H 0.28269 0.88173 0.13612 0.0
H1937 H 0.24975 0.93363 0.07765 0.0
H1938 H 0.25209 0.90589 0.07396 0.0
H1939 H 0.27321 0.92273 0.06973 0.0
C1940 C 0.26968 0.84264 0.09077 0.0
C1941 C 0.28349 0.84263 0.07458 0.0
C1942 C 0.26565 0.86094 0.10151 0.0
C1943 C 0.27532 0.87957 0.09626 0.0
C1944 C 0.28864 0.87975 0.07969 0.0
H1945 H 0.30504 0.98247 0.17449 0.0
H1946 H 0.30407 0.95073 0.15399 0.0
C1947 C 0.29258 0.86148 0.06885 0.0
C1948 C 0.27296 0.89826 0.10927 0.0
H1949 H 0.26192 0.95009 0.10811 0.0
C1950 C 0.27793 0.89663 0.13003 0.0
C1951 C 0.26655 0.91762 0.10138 0.0
C1952 C 0.2599 0.92007 0.0795 0.0
C1953 C 0.27727 0.91398 0.14298 0.0
C1954 C 0.2719 0.93357 0.13484 0.0
C1955 C 0.26628 0.93509 0.11424 0.0
C1956 C 0.27239 0.95273 0.14736 0.0
C1957 C 0.28226 0.91114 0.16528 0.0
C1958 C 0.255 0.96462 0.15003 0.0
C1959 C 0.25553 0.98287 0.16162 0.0
C1960 C 0.2735 0.98957 0.17067 0.0
C1961 C 0.29092 0.97765 0.16788 0.0
C1962 C 0.29038 0.95945 0.15624 0.0
H1963 H 0.28029 0.89471 0.17016 0.0
H1964 H 0.29815 0.91544 0.16786 0.0
H1965 H 0.27277 0.92123 0.17506 0.0
H1966 H 0.241 0.95974 0.14321 0.0
H1967 H 0.24186 0.99173 0.16343 0.0
H1968 H 0.18776 0.01813 0.66493 0.0
H1969 H 0.18543 0.05005 0.64489 0.0
H1970 H 0.24374 0.03822 0.61921 0.0
H1971 H 0.24642 0.00639 0.63955 0.0
H1972 H 0.23905 0.07887 0.63086 0.0
H1973 H 0.17458 0.05351 0.58402 0.0
H1974 H 0.1696 0.05149 0.61085 0.0
H1975 H 0.18887 0.03568 0.59953 0.0
C1976 C 0.20011 0.02228 0.65502 0.0
C1977 C 0.21723 0.00966 0.65374 0.0
C1978 C 0.19868 0.04047 0.64348 0.0
C1979 C 0.21422 0.04624 0.63024 0.0
C1980 C 0.23152 0.03392 0.62921 0.0
H1981 H 0.18985 0.14663 0.54356 0.0
H1982 H 0.20158 0.11347 0.55752 0.0
C1983 C 0.23301 0.01576 0.64085 0.0
C1984 C 0.21246 0.06538 0.61779 0.0
H1985 H 0.1816 0.0901 0.58418 0.0
C1986 C 0.22664 0.08126 0.62044 0.0
C1987 C 0.19653 0.06827 0.60386 0.0
C1988 C 0.18166 0.05124 0.59921 0.0
C1989 C 0.22472 0.1004 0.61031 0.0
C1990 C 0.20795 0.10383 0.59756 0.0
C1991 C 0.19435 0.08756 0.59413 0.0
C1992 C 0.20339 0.12451 0.58869 0.0
C1993 C 0.24063 0.11675 0.61347 0.0
C1994 C 0.20072 0.14176 0.60153 0.0
C1995 C 0.19416 0.16071 0.59359 0.0
C1996 C 0.18984 0.16271 0.57269 0.0
C1997 C 0.19303 0.14558 0.55974 0.0
C1998 C 0.19972 0.12663 0.56769 0.0
H1999 H 0.25526 0.10957 0.61738 0.0
H2000 H 0.24257 0.12655 0.59965 0.0
H2001 H 0.23623 0.12694 0.62638 0.0
H2002 H 0.20294 0.14037 0.61785 0.0
H2003 H 0.19177 0.17356 0.60401 0.0
H2004 H 0.69932 0.31642 0.38458 0.0
H2005 H 0.70645 0.34888 0.36662 0.0
H2006 H 0.69795 0.38321 0.42253 0.0
H2007 H 0.69111 0.35077 0.44072 0.0
H2008 H 0.67946 0.38064 0.36278 0.0
H2009 H 0.74874 0.40937 0.39983 0.0
H2010 H 0.74025 0.3828 0.40229 0.0
H2011 H 0.72927 0.40301 0.41764 0.0
C2012 C 0.69931 0.33083 0.39316 0.0
C2013 C 0.69457 0.33103 0.41407 0.0
C2014 C 0.70339 0.34936 0.38286 0.0
C2015 C 0.7029 0.36842 0.39327 0.0
C2016 C 0.69882 0.36863 0.41428 0.0
H2017 H 0.6987 0.49795 0.36171 0.0
H2018 H 0.69896 0.46384 0.37812 0.0
C2019 C 0.6948 0.35008 0.42463 0.0
C2020 C 0.70475 0.38816 0.38178 0.0
H2021 H 0.73063 0.4339 0.37952 0.0
C2022 C 0.69079 0.39219 0.36626 0.0
C2023 C 0.71951 0.4032 0.38643 0.0
C2024 C 0.73542 0.39934 0.40233 0.0
C2025 C 0.69081 0.41113 0.35566 0.0
C2026 C 0.70534 0.42631 0.36055 0.0
C2027 C 0.7195 0.42219 0.37586 0.0
C2028 C 0.70562 0.44687 0.35044 0.0
C2029 C 0.67486 0.41505 0.3398 0.0
C2030 C 0.70945 0.44858 0.32945 0.0
C2031 C 0.70926 0.46806 0.31998 0.0
C2032 C 0.70531 0.48614 0.33138 0.0
C2033 C 0.7017 0.48434 0.35246 0.0
C2034 C 0.70191 0.46487 0.36189 0.0
H2035 H 0.66236 0.40369 0.34094 0.0
H2036 H 0.66867 0.43101 0.34134 0.0
H2037 H 0.68154 0.41362 0.32436 0.0
H2038 H 0.71262 0.43485 0.32043 0.0
H2039 H 0.71223 0.46894 0.30375 0.0
loop_
_geom_bond_atom_site_label_1
_geom_bond_atom_site_label_2
_geom_bond_distance
_geom_bond_site_symmetry_2
_ccdc_geom_bond_type
C0 O1 1.160 . S
C0 O7 1.185 . S
O1 C0 1.160 . S
O2 Zn3 1.899 . S
O2 C10 1.284 . S
Zn3 O2 1.899 . S
Zn3 O4 2.032 . S
Zn3 O7 2.086 . S
Zn3 O12 1.977 . S
O4 Zn3 2.032 . S
O4 C8 1.278 . S
C5 O6 1.203 . S
C5 O12 1.267 . S
O6 C5 1.203 . S
O7 C0 1.185 . S
O7 Zn3 2.086 . S
C8 O4 1.278 . S
C8 O9 1.211 . S
O9 C8 1.211 . S
C10 O2 1.284 . S
C10 O11 1.273 . S
O11 C10 1.273 . S
O12 Zn3 1.977 . S
O12 C5 1.267 . S
C13 O14 1.160 . S
C13 O20 1.185 . S
O14 C13 1.160 . S
O15 Zn16 1.899 . S
O15 C23 1.284 . S
Zn16 O15 1.899 . S
Zn16 O17 2.032 . S
Zn16 O20 2.086 . S
Zn16 O25 1.977 . S
O17 Zn16 2.032 . S
O17 C21 1.278 . S
C18 O19 1.203 . S
C18 O25 1.267 . S
O19 C18 1.203 . S
O20 C13 1.185 . S
O20 Zn16 2.086 . S
C21 O17 1.278 . S
C21 O22 1.211 . S
O22 C21 1.211 . S
C23 O15 1.284 . S
C23 O24 1.273 . S
O24 C23 1.273 . S
O25 Zn16 1.977 . S
O25 C18 1.267 . S
C26 O27 1.160 . S
C26 O33 1.185 . S
O27 C26 1.160 . S
O28 Zn29 1.899 . S
O28 C36 1.284 . S
Zn29 O28 1.899 . S
Zn29 O30 2.032 . S
Zn29 O33 2.086 . S
Zn29 O38 1.977 . S
O30 Zn29 2.032 . S
O30 C34 1.278 . S
C31 O32 1.203 . S
C31 O38 1.267 . S
O32 C31 1.203 . S
O33 C26 1.185 . S
O33 Zn29 2.086 . S
C34 O30 1.278 . S
C34 O35 1.211 . S
O35 C34 1.211 . S
C36 O28 1.284 . S
C36 O37 1.273 . S
O37 C36 1.273 . S
O38 Zn29 1.977 . S
O38 C31 1.267 . S
C39 O40 1.160 . S
C39 O46 1.185 . S
O40 C39 1.160 . S
O41 Zn42 1.899 . S
O41 C49 1.284 . S
Zn42 O41 1.899 . S
Zn42 O43 2.032 . S
Zn42 O46 2.086 . S
Zn42 O51 1.977 . S
O43 Zn42 2.032 . S
O43 C47 1.278 . S
C44 O45 1.203 . S
C44 O51 1.267 . S
O45 C44 1.203 . S
O46 C39 1.185 . S
O46 Zn42 2.086 . S
C47 O43 1.278 . S
C47 O48 1.211 . S
O48 C47 1.211 . S
C49 O41 1.284 . S
C49 O50 1.273 . S
O50 C49 1.273 . S
O51 Zn42 1.977 . S
O51 C44 1.267 . S
C52 O53 1.160 . S
C52 O59 1.185 . S
O53 C52 1.160 . S
O54 Zn55 1.899 . S
O54 C62 1.284 . S
Zn55 O54 1.899 . S
Zn55 O56 2.032 . S
Zn55 O59 2.086 . S
Zn55 O64 1.977 . S
O56 Zn55 2.032 . S
O56 C60 1.278 . S
C57 O58 1.203 . S
C57 O64 1.267 . S
O58 C57 1.203 . S
O59 C52 1.185 . S
O59 Zn55 2.086 . S
C60 O56 1.278 . S
C60 O61 1.211 . S
O61 C60 1.211 . S
C62 O54 1.284 . S
C62 O63 1.273 . S
O63 C62 1.273 . S
O64 Zn55 1.977 . S
O64 C57 1.267 . S
C65 O66 1.160 . S
C65 O72 1.185 . S
O66 C65 1.160 . S
O67 Zn68 1.899 . S
O67 C75 1.284 . S
Zn68 O67 1.899 . S
Zn68 O69 2.032 . S
Zn68 O72 2.086 . S
Zn68 O77 1.977 . S
O69 Zn68 2.032 . S
O69 C73 1.278 . S
C70 O71 1.203 . S
C70 O77 1.267 . S
O71 C70 1.203 . S
O72 C65 1.185 . S
O72 Zn68 2.086 . S
C73 O69 1.278 . S
C73 O74 1.211 . S
O74 C73 1.211 . S
C75 O67 1.284 . S
C75 O76 1.273 . S
O76 C75 1.273 . S
O77 Zn68 1.977 . S
O77 C70 1.267 . S
C78 O79 1.160 . S
C78 O85 1.185 . S
O79 C78 1.160 . S
O80 Zn81 1.899 . S
O80 C88 1.284 . S
Zn81 O80 1.899 . S
Zn81 O82 2.032 . S
Zn81 O85 2.086 . S
Zn81 O90 1.977 . S
O82 Zn81 2.032 . S
O82 C86 1.278 . S
C83 O84 1.203 . S
C83 O90 1.267 . S
O84 C83 1.203 . S
O85 C78 1.185 . S
O85 Zn81 2.086 . S
C86 O82 1.278 . S
C86 O87 1.211 . S
O87 C86 1.211 . S
C88 O80 1.284 . S
C88 O89 1.273 . S
O89 C88 1.273 . S
O90 Zn81 1.977 . S
O90 C83 1.267 . S
C91 O92 1.160 . S
C91 O98 1.185 . S
O92 C91 1.160 . S
O93 Zn94 1.899 . S
O93 C101 1.284 . S
Zn94 O93 1.899 . S
Zn94 O95 2.032 . S
Zn94 O98 2.086 . S
Zn94 O103 1.977 . S
O95 Zn94 2.032 . S
O95 C99 1.278 . S
C96 O97 1.203 . S
C96 O103 1.267 . S
O97 C96 1.203 . S
O98 C91 1.185 . S
O98 Zn94 2.086 . S
C99 O95 1.278 . S
C99 O100 1.211 . S
O100 C99 1.211 . S
C101 O93 1.284 . S
C101 O102 1.273 . S
O102 C101 1.273 . S
O103 Zn94 1.977 . S
O103 C96 1.267 . S
C104 O105 1.160 . S
C104 O111 1.185 . S
O105 C104 1.160 . S
O106 Zn107 1.899 . S
O106 C114 1.284 . S
Zn107 O106 1.899 . S
Zn107 O108 2.032 . S
Zn107 O111 2.086 . S
Zn107 O116 1.977 . S
O108 Zn107 2.032 . S
O108 C112 1.278 . S
C109 O110 1.203 . S
C109 O116 1.267 . S
O110 C109 1.203 . S
O111 C104 1.185 . S
O111 Zn107 2.086 . S
C112 O108 1.278 . S
C112 O113 1.211 . S
O113 C112 1.211 . S
C114 O106 1.284 . S
C114 O115 1.273 . S
O115 C114 1.273 . S
O116 Zn107 1.977 . S
O116 C109 1.267 . S
C117 O118 1.160 . S
C117 O124 1.185 . S
O118 C117 1.160 . S
O119 Zn120 1.899 . S
O119 C127 1.284 . S
Zn120 O119 1.899 . S
Zn120 O121 2.032 . S
Zn120 O124 2.086 . S
Zn120 O129 1.977 . S
O121 Zn120 2.032 . S
O121 C125 1.278 . S
C122 O123 1.203 . S
C122 O129 1.267 . S
O123 C122 1.203 . S
O124 C117 1.185 . S
O124 Zn120 2.086 . S
C125 O121 1.278 . S
C125 O126 1.211 . S
O126 C125 1.211 . S
C127 O119 1.284 . S
C127 O128 1.273 . S
O128 C127 1.273 . S
O129 Zn120 1.977 . S
O129 C122 1.267 . S
C130 O131 1.160 . S
C130 O137 1.185 . S
O131 C130 1.160 . S
O132 Zn133 1.899 . S
O132 C140 1.284 . S
Zn133 O132 1.899 . S
Zn133 O134 2.032 . S
Zn133 O137 2.086 . S
Zn133 O142 1.977 . S
O134 Zn133 2.032 . S
O134 C138 1.278 . S
C135 O136 1.203 . S
C135 O142 1.267 . S
O136 C135 1.203 . S
O137 C130 1.185 . S
O137 Zn133 2.086 . S
C138 O134 1.278 . S
C138 O139 1.211 . S
O139 C138 1.211 . S
C140 O132 1.284 . S
C140 O141 1.273 . S
O141 C140 1.273 . S
O142 Zn133 1.977 . S
O142 C135 1.267 . S
C143 O144 1.160 . S
C143 O150 1.185 . S
O144 C143 1.160 . S
O145 Zn146 1.899 . S
O145 C153 1.284 . S
Zn146 O145 1.899 . S
Zn146 O147 2.032 . S
Zn146 O150 2.086 . S
Zn146 O155 1.977 . S
O147 Zn146 2.032 . S
O147 C151 1.278 . S
C148 O149 1.203 . S
C148 O155 1.267 . S
O149 C148 1.203 . S
O150 C143 1.185 . S
O150 Zn146 2.086 . S
C151 O147 1.278 . S
C151 O152 1.211 . S
O152 C151 1.211 . S
C153 O145 1.284 . S
C153 O154 1.273 . S
O154 C153 1.273 . S
O155 Zn146 1.977 . S
O155 C148 1.267 . S
C156 O157 1.160 . S
C156 O163 1.185 . S
O157 C156 1.160 . S
O158 Zn159 1.899 . S
O158 C166 1.284 . S
Zn159 O158 1.899 . S
Zn159 O160 2.032 . S
Zn159 O163 2.086 . S
Zn159 O168 1.977 . S
O160 Zn159 2.032 . S
O160 C164 1.278 . S
C161 O162 1.203 . S
C161 O168 1.267 . S
O162 C161 1.203 . S
O163 C156 1.185 . S
O163 Zn159 2.086 . S
C164 O160 1.278 . S
C164 O165 1.211 . S
O165 C164 1.211 . S
C166 O158 1.284 . S
C166 O167 1.273 . S
O167 C166 1.273 . S
O168 Zn159 1.977 . S
O168 C161 1.267 . S
C169 O170 1.160 . S
C169 O176 1.185 . S
O170 C169 1.160 . S
O171 Zn172 1.899 . S
O171 C179 1.284 . S
Zn172 O171 1.899 . S
Zn172 O173 2.032 . S
Zn172 O176 2.086 . S
Zn172 O181 1.977 . S
O173 Zn172 2.032 . S
O173 C177 1.278 . S
C174 O175 1.203 . S
C174 O181 1.267 . S
O175 C174 1.203 . S
O176 C169 1.185 . S
O176 Zn172 2.086 . S
C177 O173 1.278 . S
C177 O178 1.211 . S
O178 C177 1.211 . S
C179 O171 1.284 . S
C179 O180 1.273 . S
O180 C179 1.273 . S
O181 Zn172 1.977 . S
O181 C174 1.267 . S
C182 O183 1.160 . S
C182 O189 1.185 . S
O183 C182 1.160 . S
O184 Zn185 1.899 . S
O184 C192 1.284 . S
Zn185 O184 1.899 . S
Zn185 O186 2.032 . S
Zn185 O189 2.086 . S
Zn185 O194 1.977 . S
O186 Zn185 2.032 . S
O186 C190 1.278 . S
C187 O188 1.203 . S
C187 O194 1.267 . S
O188 C187 1.203 . S
O189 C182 1.185 . S
O189 Zn185 2.086 . S
C190 O186 1.278 . S
C190 O191 1.211 . S
O191 C190 1.211 . S
C192 O184 1.284 . S
C192 O193 1.273 . S
O193 C192 1.273 . S
O194 Zn185 1.977 . S
O194 C187 1.267 . S
C195 O196 1.160 . S
C195 O202 1.185 . S
O196 C195 1.160 . S
O197 Zn198 1.899 . S
O197 C205 1.284 . S
Zn198 O197 1.899 . S
Zn198 O199 2.032 . S
Zn198 O202 2.086 . S
Zn198 O207 1.977 . S
O199 Zn198 2.032 . S
O199 C203 1.278 . S
C200 O201 1.203 . S
C200 O207 1.267 . S
O201 C200 1.203 . S
O202 C195 1.185 . S
O202 Zn198 2.086 . S
C203 O199 1.278 . S
C203 O204 1.211 . S
O204 C203 1.211 . S
C205 O197 1.284 . S
C205 O206 1.273 . S
O206 C205 1.273 . S
O207 Zn198 1.977 . S
O207 C200 1.267 . S
C208 O209 1.160 . S
C208 O215 1.185 . S
O209 C208 1.160 . S
O210 Zn211 1.899 . S
O210 C218 1.284 . S
Zn211 O210 1.899 . S
Zn211 O212 2.032 . S
Zn211 O215 2.086 . S
Zn211 O220 1.977 . S
O212 Zn211 2.032 . S
O212 C216 1.278 . S
C213 O214 1.203 . S
C213 O220 1.267 . S
O214 C213 1.203 . S
O215 C208 1.185 . S
O215 Zn211 2.086 . S
C216 O212 1.278 . S
C216 O217 1.211 . S
O217 C216 1.211 . S
C218 O210 1.284 . S
C218 O219 1.273 . S
O219 C218 1.273 . S
O220 Zn211 1.977 . S
O220 C213 1.267 . S
C221 O222 1.160 . S
C221 O228 1.185 . S
O222 C221 1.160 . S
O223 Zn224 1.899 . S
O223 C231 1.284 . S
Zn224 O223 1.899 . S
Zn224 O225 2.032 . S
Zn224 O228 2.086 . S
Zn224 O233 1.977 . S
O225 Zn224 2.032 . S
O225 C229 1.278 . S
C226 O227 1.203 . S
C226 O233 1.267 . S
O227 C226 1.203 . S
O228 C221 1.185 . S
O228 Zn224 2.086 . S
C229 O225 1.278 . S
C229 O230 1.211 . S
O230 C229 1.211 . S
C231 O223 1.284 . S
C231 O232 1.273 . S
O232 C231 1.273 . S
O233 Zn224 1.977 . S
O233 C226 1.267 . S
C234 O235 1.160 . S
C234 O241 1.185 . S
O235 C234 1.160 . S
O236 Zn237 1.899 . S
O236 C244 1.284 . S
Zn237 O236 1.899 . S
Zn237 O238 2.032 . S
Zn237 O241 2.086 . S
Zn237 O246 1.977 . S
O238 Zn237 2.032 . S
O238 C242 1.278 . S
C239 O240 1.203 . S
C239 O246 1.267 . S
O240 C239 1.203 . S
O241 C234 1.185 . S
O241 Zn237 2.086 . S
C242 O238 1.278 . S
C242 O243 1.211 . S
O243 C242 1.211 . S
C244 O236 1.284 . S
C244 O245 1.273 . S
O245 C244 1.273 . S
O246 Zn237 1.977 . S
O246 C239 1.267 . S
C247 O248 1.160 . S
C247 O254 1.185 . S
O248 C247 1.160 . S
O249 Zn250 1.899 . S
O249 C257 1.284 . S
Zn250 O249 1.899 . S
Zn250 O251 2.032 . S
Zn250 O254 2.086 . S
Zn250 O259 1.977 . S
O251 Zn250 2.032 . S
O251 C255 1.278 . S
C252 O253 1.203 . S
C252 O259 1.267 . S
O253 C252 1.203 . S
O254 C247 1.185 . S
O254 Zn250 2.086 . S
C255 O251 1.278 . S
C255 O256 1.211 . S
O256 C255 1.211 . S
C257 O249 1.284 . S
C257 O258 1.273 . S
O258 C257 1.273 . S
O259 Zn250 1.977 . S
O259 C252 1.267 . S
C260 O261 1.160 . S
C260 O267 1.185 . S
O261 C260 1.160 . S
O262 Zn263 1.899 . S
O262 C270 1.284 . S
Zn263 O262 1.899 . S
Zn263 O264 2.032 . S
Zn263 O267 2.086 . S
Zn263 O272 1.977 . S
O264 Zn263 2.032 . S
O264 C268 1.278 . S
C265 O266 1.203 . S
C265 O272 1.267 . S
O266 C265 1.203 . S
O267 C260 1.185 . S
O267 Zn263 2.086 . S
C268 O264 1.278 . S
C268 O269 1.211 . S
O269 C268 1.211 . S
C270 O262 1.284 . S
C270 O271 1.273 . S
O271 C270 1.273 . S
O272 Zn263 1.977 . S
O272 C265 1.267 . S
C273 O274 1.160 . S
C273 O280 1.185 . S
O274 C273 1.160 . S
O275 Zn276 1.899 . S
O275 C283 1.284 . S
Zn276 O275 1.899 . S
Zn276 O277 2.032 . S
Zn276 O280 2.086 . S
Zn276 O285 1.977 . S
O277 Zn276 2.032 . S
O277 C281 1.278 . S
C278 O279 1.203 . S
C278 O285 1.267 . S
O279 C278 1.203 . S
O280 C273 1.185 . S
O280 Zn276 2.086 . S
C281 O277 1.278 . S
C281 O282 1.211 . S
O282 C281 1.211 . S
C283 O275 1.284 . S
C283 O284 1.273 . S
O284 C283 1.273 . S
O285 Zn276 1.977 . S
O285 C278 1.267 . S
C286 O287 1.160 . S
C286 O293 1.185 . S
O287 C286 1.160 . S
O288 Zn289 1.899 . S
O288 C296 1.284 . S
Zn289 O288 1.899 . S
Zn289 O290 2.032 . S
Zn289 O293 2.086 . S
Zn289 O298 1.977 . S
O290 Zn289 2.032 . S
O290 C294 1.278 . S
C291 O292 1.203 . S
C291 O298 1.267 . S
O292 C291 1.203 . S
O293 C286 1.185 . S
O293 Zn289 2.086 . S
C294 O290 1.278 . S
C294 O295 1.211 . S
O295 C294 1.211 . S
C296 O288 1.284 . S
C296 O297 1.273 . S
O297 C296 1.273 . S
O298 Zn289 1.977 . S
O298 C291 1.267 . S
C299 O300 1.160 . S
C299 O306 1.185 . S
O300 C299 1.160 . S
O301 Zn302 1.899 . S
O301 C309 1.284 . S
Zn302 O301 1.899 . S
Zn302 O303 2.032 . S
Zn302 O306 2.086 . S
Zn302 O311 1.977 . S
O303 Zn302 2.032 . S
O303 C307 1.278 . S
C304 O305 1.203 . S
C304 O311 1.267 . S
O305 C304 1.203 . S
O306 C299 1.185 . S
O306 Zn302 2.086 . S
C307 O303 1.278 . S
C307 O308 1.211 . S
O308 C307 1.211 . S
C309 O301 1.284 . S
C309 O310 1.273 . S
O310 C309 1.273 . S
O311 Zn302 1.977 . S
O311 C304 1.267 . S
H312 C320 0.929 . S
H313 C322 0.930 . S
H314 C324 0.930 . S
H315 C327 0.929 . S
H316 C330 0.930 . S
H317 C332 0.960 . S
H318 C332 0.960 . S
H319 C332 0.960 . S
C320 H312 0.929 . S
C320 C321 1.377 . S
C320 C322 1.384 . S
C321 C320 1.377 . S
C321 C327 1.390 . S
C322 H313 0.930 . S
C322 C320 1.384 . S
C322 C323 1.372 . S
C323 C322 1.372 . S
C323 C324 1.400 . S
C323 C328 1.490 . S
C324 H314 0.930 . S
C324 C323 1.400 . S
C324 C327 1.386 . S
H325 C341 0.930 . S
H326 C342 0.931 . S
C327 H315 0.929 . S
C327 C321 1.390 . S
C327 C324 1.386 . S
C328 C323 1.490 . S
C328 C330 1.395 . S
C328 C331 1.403 . S
H329 C335 0.930 . S
C330 H316 0.930 . S
C330 C328 1.395 . S
C330 C333 1.403 . S
C331 C328 1.403 . S
C331 C332 1.524 . S
C331 C335 1.400 . S
C332 H317 0.960 . S
C332 H318 0.960 . S
C332 H319 0.960 . S
C332 C331 1.524 . S
C333 C330 1.403 . S
C333 C334 1.392 . S
C333 C337 1.495 . S
C334 C333 1.392 . S
C334 C335 1.385 . S
C334 C336 1.478 . S
C335 H329 0.930 . S
C335 C331 1.400 . S
C335 C334 1.385 . S
C336 C334 1.478 . S
C336 C338 1.381 . S
C336 C342 1.383 . S
C337 C333 1.495 . S
C337 H343 0.959 . S
C337 H344 0.961 . S
C337 H345 0.960 . S
C338 C336 1.381 . S
C338 C339 1.394 . S
C338 H346 0.930 . S
C339 C338 1.394 . S
C339 C340 1.383 . S
C339 H347 0.929 . S
C340 C339 1.383 . S
C340 C341 1.377 . S
C341 H325 0.930 . S
C341 C340 1.377 . S
C341 C342 1.379 . S
C342 H326 0.931 . S
C342 C336 1.383 . S
C342 C341 1.379 . S
H343 C337 0.959 . S
H344 C337 0.961 . S
H345 C337 0.960 . S
H346 C338 0.930 . S
H347 C339 0.929 . S
H348 C356 0.929 . S
H349 C358 0.930 . S
H350 C360 0.930 . S
H351 C363 0.929 . S
H352 C366 0.930 . S
H353 C368 0.960 . S
H354 C368 0.960 . S
H355 C368 0.960 . S
C356 H348 0.929 . S
C356 C357 1.377 . S
C356 C358 1.384 . S
C357 C356 1.377 . S
C357 C363 1.390 . S
C358 H349 0.930 . S
C358 C356 1.384 . S
C358 C359 1.372 . S
C359 C358 1.372 . S
C359 C360 1.400 . S
C359 C364 1.490 . S
C360 H350 0.930 . S
C360 C359 1.400 . S
C360 C363 1.386 . S
H361 C377 0.930 . S
H362 C378 0.931 . S
C363 H351 0.929 . S
C363 C357 1.390 . S
C363 C360 1.386 . S
C364 C359 1.490 . S
C364 C366 1.395 . S
C364 C367 1.403 . S
H365 C371 0.930 . S
C366 H352 0.930 . S
C366 C364 1.395 . S
C366 C369 1.403 . S
C367 C364 1.403 . S
C367 C368 1.524 . S
C367 C371 1.400 . S
C368 H353 0.960 . S
C368 H354 0.960 . S
C368 H355 0.960 . S
C368 C367 1.524 . S
C369 C366 1.403 . S
C369 C370 1.392 . S
C369 C373 1.495 . S
C370 C369 1.392 . S
C370 C371 1.385 . S
C370 C372 1.478 . S
C371 H365 0.930 . S
C371 C367 1.400 . S
C371 C370 1.385 . S
C372 C370 1.478 . S
C372 C374 1.381 . S
C372 C378 1.383 . S
C373 C369 1.495 . S
C373 H379 0.959 . S
C373 H380 0.961 . S
C373 H381 0.960 . S
C374 C372 1.381 . S
C374 C375 1.394 . S
C374 H382 0.930 . S
C375 C374 1.394 . S
C375 C376 1.383 . S
C375 H383 0.929 . S
C376 C375 1.383 . S
C376 C377 1.377 . S
C377 H361 0.930 . S
C377 C376 1.377 . S
C377 C378 1.379 . S
C378 H362 0.931 . S
C378 C372 1.383 . S
C378 C377 1.379 . S
H379 C373 0.959 . S
H380 C373 0.961 . S
H381 C373 0.960 . S
H382 C374 0.930 . S
H383 C375 0.929 . S
H384 C392 0.929 . S
H385 C394 0.930 . S
H386 C396 0.930 . S
H387 C399 0.929 . S
H388 C402 0.930 . S
H389 C404 0.960 . S
H390 C404 0.960 . S
H391 C404 0.960 . S
C392 H384 0.929 . S
C392 C393 1.377 . S
C392 C394 1.384 . S
C393 C392 1.377 . S
C393 C399 1.390 . S
C394 H385 0.930 . S
C394 C392 1.384 . S
C394 C395 1.372 . S
C395 C394 1.372 . S
C395 C396 1.400 . S
C395 C400 1.490 . S
C396 H386 0.930 . S
C396 C395 1.400 . S
C396 C399 1.386 . S
H397 C413 0.930 . S
H398 C414 0.931 . S
C399 H387 0.929 . S
C399 C393 1.390 . S
C399 C396 1.386 . S
C400 C395 1.490 . S
C400 C402 1.395 . S
C400 C403 1.403 . S
H401 C407 0.930 . S
C402 H388 0.930 . S
C402 C400 1.395 . S
C402 C405 1.403 . S
C403 C400 1.403 . S
C403 C404 1.524 . S
C403 C407 1.400 . S
C404 H389 0.960 . S
C404 H390 0.960 . S
C404 H391 0.960 . S
C404 C403 1.524 . S
C405 C402 1.403 . S
C405 C406 1.392 . S
C405 C409 1.495 . S
C406 C405 1.392 . S
C406 C407 1.385 . S
C406 C408 1.478 . S
C407 H401 0.930 . S
C407 C403 1.400 . S
C407 C406 1.385 . S
C408 C406 1.478 . S
C408 C410 1.381 . S
C408 C414 1.383 . S
C409 C405 1.495 . S
C409 H415 0.959 . S
C409 H416 0.961 . S
C409 H417 0.960 . S
C410 C408 1.381 . S
C410 C411 1.394 . S
C410 H418 0.930 . S
C411 C410 1.394 . S
C411 C412 1.383 . S
C411 H419 0.929 . S
C412 C411 1.383 . S
C412 C413 1.377 . S
C413 H397 0.930 . S
C413 C412 1.377 . S
C413 C414 1.379 . S
C414 H398 0.931 . S
C414 C408 1.383 . S
C414 C413 1.379 . S
H415 C409 0.959 . S
H416 C409 0.961 . S
H417 C409 0.960 . S
H418 C410 0.930 . S
H419 C411 0.929 . S
H420 C428 0.929 . S
H421 C430 0.930 . S
H422 C432 0.930 . S
H423 C435 0.929 . S
H424 C438 0.930 . S
H425 C440 0.960 . S
H426 C440 0.960 . S
H427 C440 0.960 . S
C428 H420 0.929 . S
C428 C429 1.377 . S
C428 C430 1.384 . S
C429 C428 1.377 . S
C429 C435 1.390 . S
C430 H421 0.930 . S
C430 C428 1.384 . S
C430 C431 1.372 . S
C431 C430 1.372 . S
C431 C432 1.400 . S
C431 C436 1.490 . S
C432 H422 0.930 . S
C432 C431 1.400 . S
C432 C435 1.386 . S
H433 C449 0.930 . S
H434 C450 0.931 . S
C435 H423 0.929 . S
C435 C429 1.390 . S
C435 C432 1.386 . S
C436 C431 1.490 . S
C436 C438 1.395 . S
C436 C439 1.403 . S
H437 C443 0.930 . S
C438 H424 0.930 . S
C438 C436 1.395 . S
C438 C441 1.403 . S
C439 C436 1.403 . S
C439 C440 1.524 . S
C439 C443 1.400 . S
C440 H425 0.960 . S
C440 H426 0.960 . S
C440 H427 0.960 . S
C440 C439 1.524 . S
C441 C438 1.403 . S
C441 C442 1.392 . S
C441 C445 1.495 . S
C442 C441 1.392 . S
C442 C443 1.385 . S
C442 C444 1.478 . S
C443 H437 0.930 . S
C443 C439 1.400 . S
C443 C442 1.385 . S
C444 C442 1.478 . S
C444 C446 1.381 . S
C444 C450 1.383 . S
C445 C441 1.495 . S
C445 H451 0.959 . S
C445 H452 0.961 . S
C445 H453 0.960 . S
C446 C444 1.381 . S
C446 C447 1.394 . S
C446 H454 0.930 . S
C447 C446 1.394 . S
C447 C448 1.383 . S
C447 H455 0.929 . S
C448 C447 1.383 . S
C448 C449 1.377 . S
C449 H433 0.930 . S
C449 C448 1.377 . S
C449 C450 1.379 . S
C450 H434 0.931 . S
C450 C444 1.383 . S
C450 C449 1.379 . S
H451 C445 0.959 . S
H452 C445 0.961 . S
H453 C445 0.960 . S
H454 C446 0.930 . S
H455 C447 0.929 . S
H456 C464 0.929 . S
H457 C466 0.930 . S
H458 C468 0.930 . S
H459 C471 0.929 . S
H460 C474 0.930 . S
H461 C476 0.960 . S
H462 C476 0.960 . S
H463 C476 0.960 . S
C464 H456 0.929 . S
C464 C465 1.377 . S
C464 C466 1.384 . S
C465 C464 1.377 . S
C465 C471 1.390 . S
C466 H457 0.930 . S
C466 C464 1.384 . S
C466 C467 1.372 . S
C467 C466 1.372 . S
C467 C468 1.400 . S
C467 C472 1.490 . S
C468 H458 0.930 . S
C468 C467 1.400 . S
C468 C471 1.386 . S
H469 C485 0.930 . S
H470 C486 0.931 . S
C471 H459 0.929 . S
C471 C465 1.390 . S
C471 C468 1.386 . S
C472 C467 1.490 . S
C472 C474 1.395 . S
C472 C475 1.403 . S
H473 C479 0.930 . S
C474 H460 0.930 . S
C474 C472 1.395 . S
C474 C477 1.403 . S
C475 C472 1.403 . S
C475 C476 1.524 . S
C475 C479 1.400 . S
C476 H461 0.960 . S
C476 H462 0.960 . S
C476 H463 0.960 . S
C476 C475 1.524 . S
C477 C474 1.403 . S
C477 C478 1.392 . S
C477 C481 1.495 . S
C478 C477 1.392 . S
C478 C479 1.385 . S
C478 C480 1.478 . S
C479 H473 0.930 . S
C479 C475 1.400 . S
C479 C478 1.385 . S
C480 C478 1.478 . S
C480 C482 1.381 . S
C480 C486 1.383 . S
C481 C477 1.495 . S
C481 H487 0.959 . S
C481 H488 0.961 . S
C481 H489 0.960 . S
C482 C480 1.381 . S
C482 C483 1.394 . S
C482 H490 0.930 . S
C483 C482 1.394 . S
C483 C484 1.383 . S
C483 H491 0.929 . S
C484 C483 1.383 . S
C484 C485 1.377 . S
C485 H469 0.930 . S
C485 C484 1.377 . S
C485 C486 1.379 . S
C486 H470 0.931 . S
C486 C480 1.383 . S
C486 C485 1.379 . S
H487 C481 0.959 . S
H488 C481 0.961 . S
H489 C481 0.960 . S
H490 C482 0.930 . S
H491 C483 0.929 . S
H492 C500 0.929 . S
H493 C502 0.930 . S
H494 C504 0.930 . S
H495 C507 0.929 . S
H496 C510 0.930 . S
H497 C512 0.960 . S
H498 C512 0.960 . S
H499 C512 0.960 . S
C500 H492 0.929 . S
C500 C501 1.377 . S
C500 C502 1.384 . S
C501 C500 1.377 . S
C501 C507 1.390 . S
C502 H493 0.930 . S
C502 C500 1.384 . S
C502 C503 1.372 . S
C503 C502 1.372 . S
C503 C504 1.400 . S
C503 C508 1.490 . S
C504 H494 0.930 . S
C504 C503 1.400 . S
C504 C507 1.386 . S
H505 C521 0.930 . S
H506 C522 0.931 . S
C507 H495 0.929 . S
C507 C501 1.390 . S
C507 C504 1.386 . S
C508 C503 1.490 . S
C508 C510 1.395 . S
C508 C511 1.403 . S
H509 C515 0.930 . S
C510 H496 0.930 . S
C510 C508 1.395 . S
C510 C513 1.403 . S
C511 C508 1.403 . S
C511 C512 1.524 . S
C511 C515 1.400 . S
C512 H497 0.960 . S
C512 H498 0.960 . S
C512 H499 0.960 . S
C512 C511 1.524 . S
C513 C510 1.403 . S
C513 C514 1.392 . S
C513 C517 1.495 . S
C514 C513 1.392 . S
C514 C515 1.385 . S
C514 C516 1.478 . S
C515 H509 0.930 . S
C515 C511 1.400 . S
C515 C514 1.385 . S
C516 C514 1.478 . S
C516 C518 1.381 . S
C516 C522 1.383 . S
C517 C513 1.495 . S
C517 H523 0.959 . S
C517 H524 0.961 . S
C517 H525 0.960 . S
C518 C516 1.381 . S
C518 C519 1.394 . S
C518 H526 0.930 . S
C519 C518 1.394 . S
C519 C520 1.383 . S
C519 H527 0.929 . S
C520 C519 1.383 . S
C520 C521 1.377 . S
C521 H505 0.930 . S
C521 C520 1.377 . S
C521 C522 1.379 . S
C522 H506 0.931 . S
C522 C516 1.383 . S
C522 C521 1.379 . S
H523 C517 0.959 . S
H524 C517 0.961 . S
H525 C517 0.960 . S
H526 C518 0.930 . S
H527 C519 0.929 . S
H528 C536 0.929 . S
H529 C538 0.930 . S
H530 C540 0.930 . S
H531 C543 0.929 . S
H532 C546 0.930 . S
H533 C548 0.960 . S
H534 C548 0.960 . S
H535 C548 0.960 . S
C536 H528 0.929 . S
C536 C537 1.377 . S
C536 C538 1.384 . S
C537 C536 1.377 . S
C537 C543 1.390 . S
C538 H529 0.930 . S
C538 C536 1.384 . S
C538 C539 1.372 . S
C539 C538 1.372 . S
C539 C540 1.400 . S
C539 C544 1.490 . S
C540 H530 0.930 . S
C540 C539 1.400 . S
C540 C543 1.386 . S
H541 C557 0.930 . S
H542 C558 0.931 . S
C543 H531 0.929 . S
C543 C537 1.390 . S
C543 C540 1.386 . S
C544 C539 1.490 . S
C544 C546 1.395 . S
C544 C547 1.403 . S
H545 C551 0.930 . S
C546 H532 0.930 . S
C546 C544 1.395 . S
C546 C549 1.403 . S
C547 C544 1.403 . S
C547 C548 1.524 . S
C547 C551 1.400 . S
C548 H533 0.960 . S
C548 H534 0.960 . S
C548 H535 0.960 . S
C548 C547 1.524 . S
C549 C546 1.403 . S
C549 C550 1.392 . S
C549 C553 1.495 . S
C550 C549 1.392 . S
C550 C551 1.385 . S
C550 C552 1.478 . S
C551 H545 0.930 . S
C551 C547 1.400 . S
C551 C550 1.385 . S
C552 C550 1.478 . S
C552 C554 1.381 . S
C552 C558 1.383 . S
C553 C549 1.495 . S
C553 H559 0.959 . S
C553 H560 0.961 . S
C553 H561 0.960 . S
C554 C552 1.381 . S
C554 C555 1.394 . S
C554 H562 0.930 . S
C555 C554 1.394 . S
C555 C556 1.383 . S
C555 H563 0.929 . S
C556 C555 1.383 . S
C556 C557 1.377 . S
C557 H541 0.930 . S
C557 C556 1.377 . S
C557 C558 1.379 . S
C558 H542 0.931 . S
C558 C552 1.383 . S
C558 C557 1.379 . S
H559 C553 0.959 . S
H560 C553 0.961 . S
H561 C553 0.960 . S
H562 C554 0.930 . S
H563 C555 0.929 . S
H564 C572 0.929 . S
H565 C574 0.930 . S
H566 C576 0.930 . S
H567 C579 0.929 . S
H568 C582 0.930 . S
H569 C584 0.960 . S
H570 C584 0.960 . S
H571 C584 0.960 . S
C572 H564 0.929 . S
C572 C573 1.377 . S
C572 C574 1.384 . S
C573 C572 1.377 . S
C573 C579 1.390 . S
C574 H565 0.930 . S
C574 C572 1.384 . S
C574 C575 1.372 . S
C575 C574 1.372 . S
C575 C576 1.400 . S
C575 C580 1.490 . S
C576 H566 0.930 . S
C576 C575 1.400 . S
C576 C579 1.386 . S
H577 C593 0.930 . S
H578 C594 0.931 . S
C579 H567 0.929 . S
C579 C573 1.390 . S
C579 C576 1.386 . S
C580 C575 1.490 . S
C580 C582 1.395 . S
C580 C583 1.403 . S
H581 C587 0.930 . S
C582 H568 0.930 . S
C582 C580 1.395 . S
C582 C585 1.403 . S
C583 C580 1.403 . S
C583 C584 1.524 . S
C583 C587 1.400 . S
C584 H569 0.960 . S
C584 H570 0.960 . S
C584 H571 0.960 . S
C584 C583 1.524 . S
C585 C582 1.403 . S
C585 C586 1.392 . S
C585 C589 1.495 . S
C586 C585 1.392 . S
C586 C587 1.385 . S
C586 C588 1.478 . S
C587 H581 0.930 . S
C587 C583 1.400 . S
C587 C586 1.385 . S
C588 C586 1.478 . S
C588 C590 1.381 . S
C588 C594 1.383 . S
C589 C585 1.495 . S
C589 H595 0.959 . S
C589 H596 0.961 . S
C589 H597 0.960 . S
C590 C588 1.381 . S
C590 C591 1.394 . S
C590 H598 0.930 . S
C591 C590 1.394 . S
C591 C592 1.383 . S
C591 H599 0.929 . S
C592 C591 1.383 . S
C592 C593 1.377 . S
C593 H577 0.930 . S
C593 C592 1.377 . S
C593 C594 1.379 . S
C594 H578 0.931 . S
C594 C588 1.383 . S
C594 C593 1.379 . S
H595 C589 0.959 . S
H596 C589 0.961 . S
H597 C589 0.960 . S
H598 C590 0.930 . S
H599 C591 0.929 . S
H600 C608 0.929 . S
H601 C610 0.930 . S
H602 C612 0.930 . S
H603 C615 0.929 . S
H604 C618 0.930 . S
H605 C620 0.960 . S
H606 C620 0.960 . S
H607 C620 0.960 . S
C608 H600 0.929 . S
C608 C609 1.377 . S
C608 C610 1.384 . S
C609 C608 1.377 . S
C609 C615 1.390 . S
C610 H601 0.930 . S
C610 C608 1.384 . S
C610 C611 1.372 . S
C611 C610 1.372 . S
C611 C612 1.400 . S
C611 C616 1.490 . S
C612 H602 0.930 . S
C612 C611 1.400 . S
C612 C615 1.386 . S
H613 C629 0.930 . S
H614 C630 0.931 . S
C615 H603 0.929 . S
C615 C609 1.390 . S
C615 C612 1.386 . S
C616 C611 1.490 . S
C616 C618 1.395 . S
C616 C619 1.403 . S
H617 C623 0.930 . S
C618 H604 0.930 . S
C618 C616 1.395 . S
C618 C621 1.403 . S
C619 C616 1.403 . S
C619 C620 1.524 . S
C619 C623 1.400 . S
C620 H605 0.960 . S
C620 H606 0.960 . S
C620 H607 0.960 . S
C620 C619 1.524 . S
C621 C618 1.403 . S
C621 C622 1.392 . S
C621 C625 1.495 . S
C622 C621 1.392 . S
C622 C623 1.385 . S
C622 C624 1.478 . S
C623 H617 0.930 . S
C623 C619 1.400 . S
C623 C622 1.385 . S
C624 C622 1.478 . S
C624 C626 1.381 . S
C624 C630 1.383 . S
C625 C621 1.495 . S
C625 H631 0.959 . S
C625 H632 0.961 . S
C625 H633 0.960 . S
C626 C624 1.381 . S
C626 C627 1.394 . S
C626 H634 0.930 . S
C627 C626 1.394 . S
C627 C628 1.383 . S
C627 H635 0.929 . S
C628 C627 1.383 . S
C628 C629 1.377 . S
C629 H613 0.930 . S
C629 C628 1.377 . S
C629 C630 1.379 . S
C630 H614 0.931 . S
C630 C624 1.383 . S
C630 C629 1.379 . S
H631 C625 0.959 . S
H632 C625 0.961 . S
H633 C625 0.960 . S
H634 C626 0.930 . S
H635 C627 0.929 . S
H636 C644 0.929 . S
H637 C646 0.930 . S
H638 C648 0.930 . S
H639 C651 0.929 . S
H640 C654 0.930 . S
H641 C656 0.960 . S
H642 C656 0.960 . S
H643 C656 0.960 . S
C644 H636 0.929 . S
C644 C645 1.377 . S
C644 C646 1.384 . S
C645 C644 1.377 . S
C645 C651 1.390 . S
C646 H637 0.930 . S
C646 C644 1.384 . S
C646 C647 1.372 . S
C647 C646 1.372 . S
C647 C648 1.400 . S
C647 C652 1.490 . S
C648 H638 0.930 . S
C648 C647 1.400 . S
C648 C651 1.386 . S
H649 C665 0.930 . S
H650 C666 0.931 . S
C651 H639 0.929 . S
C651 C645 1.390 . S
C651 C648 1.386 . S
C652 C647 1.490 . S
C652 C654 1.395 . S
C652 C655 1.403 . S
H653 C659 0.930 . S
C654 H640 0.930 . S
C654 C652 1.395 . S
C654 C657 1.403 . S
C655 C652 1.403 . S
C655 C656 1.524 . S
C655 C659 1.400 . S
C656 H641 0.960 . S
C656 H642 0.960 . S
C656 H643 0.960 . S
C656 C655 1.524 . S
C657 C654 1.403 . S
C657 C658 1.392 . S
C657 C661 1.495 . S
C658 C657 1.392 . S
C658 C659 1.385 . S
C658 C660 1.478 . S
C659 H653 0.930 . S
C659 C655 1.400 . S
C659 C658 1.385 . S
C660 C658 1.478 . S
C660 C662 1.381 . S
C660 C666 1.383 . S
C661 C657 1.495 . S
C661 H667 0.959 . S
C661 H668 0.961 . S
C661 H669 0.960 . S
C662 C660 1.381 . S
C662 C663 1.394 . S
C662 H670 0.930 . S
C663 C662 1.394 . S
C663 C664 1.383 . S
C663 H671 0.929 . S
C664 C663 1.383 . S
C664 C665 1.377 . S
C665 H649 0.930 . S
C665 C664 1.377 . S
C665 C666 1.379 . S
C666 H650 0.931 . S
C666 C660 1.383 . S
C666 C665 1.379 . S
H667 C661 0.959 . S
H668 C661 0.961 . S
H669 C661 0.960 . S
H670 C662 0.930 . S
H671 C663 0.929 . S
H672 C680 0.929 . S
H673 C682 0.930 . S
H674 C684 0.930 . S
H675 C687 0.929 . S
H676 C690 0.930 . S
H677 C692 0.960 . S
H678 C692 0.960 . S
H679 C692 0.960 . S
C680 H672 0.929 . S
C680 C681 1.377 . S
C680 C682 1.384 . S
C681 C680 1.377 . S
C681 C687 1.390 . S
C682 H673 0.930 . S
C682 C680 1.384 . S
C682 C683 1.372 . S
C683 C682 1.372 . S
C683 C684 1.400 . S
C683 C688 1.490 . S
C684 H674 0.930 . S
C684 C683 1.400 . S
C684 C687 1.386 . S
H685 C701 0.930 . S
H686 C702 0.931 . S
C687 H675 0.929 . S
C687 C681 1.390 . S
C687 C684 1.386 . S
C688 C683 1.490 . S
C688 C690 1.395 . S
C688 C691 1.403 . S
H689 C695 0.930 . S
C690 H676 0.930 . S
C690 C688 1.395 . S
C690 C693 1.403 . S
C691 C688 1.403 . S
C691 C692 1.524 . S
C691 C695 1.400 . S
C692 H677 0.960 . S
C692 H678 0.960 . S
C692 H679 0.960 . S
C692 C691 1.524 . S
C693 C690 1.403 . S
C693 C694 1.392 . S
C693 C697 1.495 . S
C694 C693 1.392 . S
C694 C695 1.385 . S
C694 C696 1.478 . S
C695 H689 0.930 . S
C695 C691 1.400 . S
C695 C694 1.385 . S
C696 C694 1.478 . S
C696 C698 1.381 . S
C696 C702 1.383 . S
C697 C693 1.495 . S
C697 H703 0.959 . S
C697 H704 0.961 . S
C697 H705 0.960 . S
C698 C696 1.381 . S
C698 C699 1.394 . S
C698 H706 0.930 . S
C699 C698 1.394 . S
C699 C700 1.383 . S
C699 H707 0.929 . S
C700 C699 1.383 . S
C700 C701 1.377 . S
C701 H685 0.930 . S
C701 C700 1.377 . S
C701 C702 1.379 . S
C702 H686 0.931 . S
C702 C696 1.383 . S
C702 C701 1.379 . S
H703 C697 0.959 . S
H704 C697 0.961 . S
H705 C697 0.960 . S
H706 C698 0.930 . S
H707 C699 0.929 . S
H708 C716 0.929 . S
H709 C718 0.930 . S
H710 C720 0.930 . S
H711 C723 0.929 . S
H712 C726 0.930 . S
H713 C728 0.960 . S
H714 C728 0.960 . S
H715 C728 0.960 . S
C716 H708 0.929 . S
C716 C717 1.377 . S
C716 C718 1.384 . S
C717 C716 1.377 . S
C717 C723 1.390 . S
C718 H709 0.930 . S
C718 C716 1.384 . S
C718 C719 1.372 . S
C719 C718 1.372 . S
C719 C720 1.400 . S
C719 C724 1.490 . S
C720 H710 0.930 . S
C720 C719 1.400 . S
C720 C723 1.386 . S
H721 C737 0.930 . S
H722 C738 0.931 . S
C723 H711 0.929 . S
C723 C717 1.390 . S
C723 C720 1.386 . S
C724 C719 1.490 . S
C724 C726 1.395 . S
C724 C727 1.403 . S
H725 C731 0.930 . S
C726 H712 0.930 . S
C726 C724 1.395 . S
C726 C729 1.403 . S
C727 C724 1.403 . S
C727 C728 1.524 . S
C727 C731 1.400 . S
C728 H713 0.960 . S
C728 H714 0.960 . S
C728 H715 0.960 . S
C728 C727 1.524 . S
C729 C726 1.403 . S
C729 C730 1.392 . S
C729 C733 1.495 . S
C730 C729 1.392 . S
C730 C731 1.385 . S
C730 C732 1.478 . S
C731 H725 0.930 . S
C731 C727 1.400 . S
C731 C730 1.385 . S
C732 C730 1.478 . S
C732 C734 1.381 . S
C732 C738 1.383 . S
C733 C729 1.495 . S
C733 H739 0.959 . S
C733 H740 0.961 . S
C733 H741 0.960 . S
C734 C732 1.381 . S
C734 C735 1.394 . S
C734 H742 0.930 . S
C735 C734 1.394 . S
C735 C736 1.383 . S
C735 H743 0.929 . S
C736 C735 1.383 . S
C736 C737 1.377 . S
C737 H721 0.930 . S
C737 C736 1.377 . S
C737 C738 1.379 . S
C738 H722 0.931 . S
C738 C732 1.383 . S
C738 C737 1.379 . S
H739 C733 0.959 . S
H740 C733 0.961 . S
H741 C733 0.960 . S
H742 C734 0.930 . S
H743 C735 0.929 . S
H744 C752 0.929 . S
H745 C754 0.930 . S
H746 C756 0.930 . S
H747 C759 0.929 . S
H748 C762 0.930 . S
H749 C764 0.960 . S
H750 C764 0.960 . S
H751 C764 0.960 . S
C752 H744 0.929 . S
C752 C753 1.377 . S
C752 C754 1.384 . S
C753 C752 1.377 . S
C753 C759 1.390 . S
C754 H745 0.930 . S
C754 C752 1.384 . S
C754 C755 1.372 . S
C755 C754 1.372 . S
C755 C756 1.400 . S
C755 C760 1.490 . S
C756 H746 0.930 . S
C756 C755 1.400 . S
C756 C759 1.386 . S
H757 C773 0.930 . S
H758 C774 0.931 . S
C759 H747 0.929 . S
C759 C753 1.390 . S
C759 C756 1.386 . S
C760 C755 1.490 . S
C760 C762 1.395 . S
C760 C763 1.403 . S
H761 C767 0.930 . S
C762 H748 0.930 . S
C762 C760 1.395 . S
C762 C765 1.403 . S
C763 C760 1.403 . S
C763 C764 1.524 . S
C763 C767 1.400 . S
C764 H749 0.960 . S
C764 H750 0.960 . S
C764 H751 0.960 . S
C764 C763 1.524 . S
C765 C762 1.403 . S
C765 C766 1.392 . S
C765 C769 1.495 . S
C766 C765 1.392 . S
C766 C767 1.385 . S
C766 C768 1.478 . S
C767 H761 0.930 . S
C767 C763 1.400 . S
C767 C766 1.385 . S
C768 C766 1.478 . S
C768 C770 1.381 . S
C768 C774 1.383 . S
C769 C765 1.495 . S
C769 H775 0.959 . S
C769 H776 0.961 . S
C769 H777 0.960 . S
C770 C768 1.381 . S
C770 C771 1.394 . S
C770 H778 0.930 . S
C771 C770 1.394 . S
C771 C772 1.383 . S
C771 H779 0.929 . S
C772 C771 1.383 . S
C772 C773 1.377 . S
C773 H757 0.930 . S
C773 C772 1.377 . S
C773 C774 1.379 . S
C774 H758 0.931 . S
C774 C768 1.383 . S
C774 C773 1.379 . S
H775 C769 0.959 . S
H776 C769 0.961 . S
H777 C769 0.960 . S
H778 C770 0.930 . S
H779 C771 0.929 . S
H780 C788 0.929 . S
H781 C790 0.930 . S
H782 C792 0.930 . S
H783 C795 0.929 . S
H784 C798 0.930 . S
H785 C800 0.960 . S
H786 C800 0.960 . S
H787 C800 0.960 . S
C788 H780 0.929 . S
C788 C789 1.377 . S
C788 C790 1.384 . S
C789 C788 1.377 . S
C789 C795 1.390 . S
C790 H781 0.930 . S
C790 C788 1.384 . S
C790 C791 1.372 . S
C791 C790 1.372 . S
C791 C792 1.400 . S
C791 C796 1.490 . S
C792 H782 0.930 . S
C792 C791 1.400 . S
C792 C795 1.386 . S
H793 C809 0.930 . S
H794 C810 0.931 . S
C795 H783 0.929 . S
C795 C789 1.390 . S
C795 C792 1.386 . S
C796 C791 1.490 . S
C796 C798 1.395 . S
C796 C799 1.403 . S
H797 C803 0.930 . S
C798 H784 0.930 . S
C798 C796 1.395 . S
C798 C801 1.403 . S
C799 C796 1.403 . S
C799 C800 1.524 . S
C799 C803 1.400 . S
C800 H785 0.960 . S
C800 H786 0.960 . S
C800 H787 0.960 . S
C800 C799 1.524 . S
C801 C798 1.403 . S
C801 C802 1.392 . S
C801 C805 1.495 . S
C802 C801 1.392 . S
C802 C803 1.385 . S
C802 C804 1.478 . S
C803 H797 0.930 . S
C803 C799 1.400 . S
C803 C802 1.385 . S
C804 C802 1.478 . S
C804 C806 1.381 . S
C804 C810 1.383 . S
C805 C801 1.495 . S
C805 H811 0.959 . S
C805 H812 0.961 . S
C805 H813 0.960 . S
C806 C804 1.381 . S
C806 C807 1.394 . S
C806 H814 0.930 . S
C807 C806 1.394 . S
C807 C808 1.383 . S
C807 H815 0.929 . S
C808 C807 1.383 . S
C808 C809 1.377 . S
C809 H793 0.930 . S
C809 C808 1.377 . S
C809 C810 1.379 . S
C810 H794 0.931 . S
C810 C804 1.383 . S
C810 C809 1.379 . S
H811 C805 0.959 . S
H812 C805 0.961 . S
H813 C805 0.960 . S
H814 C806 0.930 . S
H815 C807 0.929 . S
H816 C824 0.929 . S
H817 C826 0.930 . S
H818 C828 0.930 . S
H819 C831 0.929 . S
H820 C834 0.930 . S
H821 C836 0.960 . S
H822 C836 0.960 . S
H823 C836 0.960 . S
C824 H816 0.929 . S
C824 C825 1.377 . S
C824 C826 1.384 . S
C825 C824 1.377 . S
C825 C831 1.390 . S
C826 H817 0.930 . S
C826 C824 1.384 . S
C826 C827 1.372 . S
C827 C826 1.372 . S
C827 C828 1.400 . S
C827 C832 1.490 . S
C828 H818 0.930 . S
C828 C827 1.400 . S
C828 C831 1.386 . S
H829 C845 0.930 . S
H830 C846 0.931 . S
C831 H819 0.929 . S
C831 C825 1.390 . S
C831 C828 1.386 . S
C832 C827 1.490 . S
C832 C834 1.395 . S
C832 C835 1.403 . S
H833 C839 0.930 . S
C834 H820 0.930 . S
C834 C832 1.395 . S
C834 C837 1.403 . S
C835 C832 1.403 . S
C835 C836 1.524 . S
C835 C839 1.400 . S
C836 H821 0.960 . S
C836 H822 0.960 . S
C836 H823 0.960 . S
C836 C835 1.524 . S
C837 C834 1.403 . S
C837 C838 1.392 . S
C837 C841 1.495 . S
C838 C837 1.392 . S
C838 C839 1.385 . S
C838 C840 1.478 . S
C839 H833 0.930 . S
C839 C835 1.400 . S
C839 C838 1.385 . S
C840 C838 1.478 . S
C840 C842 1.381 . S
C840 C846 1.383 . S
C841 C837 1.495 . S
C841 H847 0.959 . S
C841 H848 0.961 . S
C841 H849 0.960 . S
C842 C840 1.381 . S
C842 C843 1.394 . S
C842 H850 0.930 . S
C843 C842 1.394 . S
C843 C844 1.383 . S
C843 H851 0.929 . S
C844 C843 1.383 . S
C844 C845 1.377 . S
C845 H829 0.930 . S
C845 C844 1.377 . S
C845 C846 1.379 . S
C846 H830 0.931 . S
C846 C840 1.383 . S
C846 C845 1.379 . S
H847 C841 0.959 . S
H848 C841 0.961 . S
H849 C841 0.960 . S
H850 C842 0.930 . S
H851 C843 0.929 . S
H852 C860 0.929 . S
H853 C862 0.930 . S
H854 C864 0.930 . S
H855 C867 0.929 . S
H856 C870 0.930 . S
H857 C872 0.960 . S
H858 C872 0.960 . S
H859 C872 0.960 . S
C860 H852 0.929 . S
C860 C861 1.377 . S
C860 C862 1.384 . S
C861 C860 1.377 . S
C861 C867 1.390 . S
C862 H853 0.930 . S
C862 C860 1.384 . S
C862 C863 1.372 . S
C863 C862 1.372 . S
C863 C864 1.400 . S
C863 C868 1.490 . S
C864 H854 0.930 . S
C864 C863 1.400 . S
C864 C867 1.386 . S
H865 C881 0.930 . S
H866 C882 0.931 . S
C867 H855 0.929 . S
C867 C861 1.390 . S
C867 C864 1.386 . S
C868 C863 1.490 . S
C868 C870 1.395 . S
C868 C871 1.403 . S
H869 C875 0.930 . S
C870 H856 0.930 . S
C870 C868 1.395 . S
C870 C873 1.403 . S
C871 C868 1.403 . S
C871 C872 1.524 . S
C871 C875 1.400 . S
C872 H857 0.960 . S
C872 H858 0.960 . S
C872 H859 0.960 . S
C872 C871 1.524 . S
C873 C870 1.403 . S
C873 C874 1.392 . S
C873 C877 1.495 . S
C874 C873 1.392 . S
C874 C875 1.385 . S
C874 C876 1.478 . S
C875 H869 0.930 . S
C875 C871 1.400 . S
C875 C874 1.385 . S
C876 C874 1.478 . S
C876 C878 1.381 . S
C876 C882 1.383 . S
C877 C873 1.495 . S
C877 H883 0.959 . S
C877 H884 0.961 . S
C877 H885 0.960 . S
C878 C876 1.381 . S
C878 C879 1.394 . S
C878 H886 0.930 . S
C879 C878 1.394 . S
C879 C880 1.383 . S
C879 H887 0.929 . S
C880 C879 1.383 . S
C880 C881 1.377 . S
C881 H865 0.930 . S
C881 C880 1.377 . S
C881 C882 1.379 . S
C882 H866 0.931 . S
C882 C876 1.383 . S
C882 C881 1.379 . S
H883 C877 0.959 . S
H884 C877 0.961 . S
H885 C877 0.960 . S
H886 C878 0.930 . S
H887 C879 0.929 . S
H888 C896 0.929 . S
H889 C898 0.930 . S
H890 C900 0.930 . S
H891 C903 0.929 . S
H892 C906 0.930 . S
H893 C908 0.960 . S
H894 C908 0.960 . S
H895 C908 0.960 . S
C896 H888 0.929 . S
C896 C897 1.377 . S
C896 C898 1.384 . S
C897 C896 1.377 . S
C897 C903 1.390 . S
C898 H889 0.930 . S
C898 C896 1.384 . S
C898 C899 1.372 . S
C899 C898 1.372 . S
C899 C900 1.400 . S
C899 C904 1.490 . S
C900 H890 0.930 . S
C900 C899 1.400 . S
C900 C903 1.386 . S
H901 C917 0.930 . S
H902 C918 0.931 . S
C903 H891 0.929 . S
C903 C897 1.390 . S
C903 C900 1.386 . S
C904 C899 1.490 . S
C904 C906 1.395 . S
C904 C907 1.403 . S
H905 C911 0.930 . S
C906 H892 0.930 . S
C906 C904 1.395 . S
C906 C909 1.403 . S
C907 C904 1.403 . S
C907 C908 1.524 . S
C907 C911 1.400 . S
C908 H893 0.960 . S
C908 H894 0.960 . S
C908 H895 0.960 . S
C908 C907 1.524 . S
C909 C906 1.403 . S
C909 C910 1.392 . S
C909 C913 1.495 . S
C910 C909 1.392 . S
C910 C911 1.385 . S
C910 C912 1.478 . S
C911 H905 0.930 . S
C911 C907 1.400 . S
C911 C910 1.385 . S
C912 C910 1.478 . S
C912 C914 1.381 . S
C912 C918 1.383 . S
C913 C909 1.495 . S
C913 H919 0.959 . S
C913 H920 0.961 . S
C913 H921 0.960 . S
C914 C912 1.381 . S
C914 C915 1.394 . S
C914 H922 0.930 . S
C915 C914 1.394 . S
C915 C916 1.383 . S
C915 H923 0.929 . S
C916 C915 1.383 . S
C916 C917 1.377 . S
C917 H901 0.930 . S
C917 C916 1.377 . S
C917 C918 1.379 . S
C918 H902 0.931 . S
C918 C912 1.383 . S
C918 C917 1.379 . S
H919 C913 0.959 . S
H920 C913 0.961 . S
H921 C913 0.960 . S
H922 C914 0.930 . S
H923 C915 0.929 . S
H924 C932 0.929 . S
H925 C934 0.930 . S
H926 C936 0.930 . S
H927 C939 0.929 . S
H928 C942 0.930 . S
H929 C944 0.960 . S
H930 C944 0.960 . S
H931 C944 0.960 . S
C932 H924 0.929 . S
C932 C933 1.377 . S
C932 C934 1.384 . S
C933 C932 1.377 . S
C933 C939 1.390 . S
C934 H925 0.930 . S
C934 C932 1.384 . S
C934 C935 1.372 . S
C935 C934 1.372 . S
C935 C936 1.400 . S
C935 C940 1.490 . S
C936 H926 0.930 . S
C936 C935 1.400 . S
C936 C939 1.386 . S
H937 C953 0.930 . S
H938 C954 0.931 . S
C939 H927 0.929 . S
C939 C933 1.390 . S
C939 C936 1.386 . S
C940 C935 1.490 . S
C940 C942 1.395 . S
C940 C943 1.403 . S
H941 C947 0.930 . S
C942 H928 0.930 . S
C942 C940 1.395 . S
C942 C945 1.403 . S
C943 C940 1.403 . S
C943 C944 1.524 . S
C943 C947 1.400 . S
C944 H929 0.960 . S
C944 H930 0.960 . S
C944 H931 0.960 . S
C944 C943 1.524 . S
C945 C942 1.403 . S
C945 C946 1.392 . S
C945 C949 1.495 . S
C946 C945 1.392 . S
C946 C947 1.385 . S
C946 C948 1.478 . S
C947 H941 0.930 . S
C947 C943 1.400 . S
C947 C946 1.385 . S
C948 C946 1.478 . S
C948 C950 1.381 . S
C948 C954 1.383 . S
C949 C945 1.495 . S
C949 H955 0.959 . S
C949 H956 0.961 . S
C949 H957 0.960 . S
C950 C948 1.381 . S
C950 C951 1.394 . S
C950 H958 0.930 . S
C951 C950 1.394 . S
C951 C952 1.383 . S
C951 H959 0.929 . S
C952 C951 1.383 . S
C952 C953 1.377 . S
C953 H937 0.930 . S
C953 C952 1.377 . S
C953 C954 1.379 . S
C954 H938 0.931 . S
C954 C948 1.383 . S
C954 C953 1.379 . S
H955 C949 0.959 . S
H956 C949 0.961 . S
H957 C949 0.960 . S
H958 C950 0.930 . S
H959 C951 0.929 . S
H960 C968 0.929 . S
H961 C970 0.930 . S
H962 C972 0.930 . S
H963 C975 0.929 . S
H964 C978 0.930 . S
H965 C980 0.960 . S
H966 C980 0.960 . S
H967 C980 0.960 . S
C968 H960 0.929 . S
C968 C969 1.377 . S
C968 C970 1.384 . S
C969 C968 1.377 . S
C969 C975 1.390 . S
C970 H961 0.930 . S
C970 C968 1.384 . S
C970 C971 1.372 . S
C971 C970 1.372 . S
C971 C972 1.400 . S
C971 C976 1.490 . S
C972 H962 0.930 . S
C972 C971 1.400 . S
C972 C975 1.386 . S
H973 C989 0.930 . S
H974 C990 0.931 . S
C975 H963 0.929 . S
C975 C969 1.390 . S
C975 C972 1.386 . S
C976 C971 1.490 . S
C976 C978 1.395 . S
C976 C979 1.403 . S
H977 C983 0.930 . S
C978 H964 0.930 . S
C978 C976 1.395 . S
C978 C981 1.403 . S
C979 C976 1.403 . S
C979 C980 1.524 . S
C979 C983 1.400 . S
C980 H965 0.960 . S
C980 H966 0.960 . S
C980 H967 0.960 . S
C980 C979 1.524 . S
C981 C978 1.403 . S
C981 C982 1.392 . S
C981 C985 1.495 . S
C982 C981 1.392 . S
C982 C983 1.385 . S
C982 C984 1.478 . S
C983 H977 0.930 . S
C983 C979 1.400 . S
C983 C982 1.385 . S
C984 C982 1.478 . S
C984 C986 1.381 . S
C984 C990 1.383 . S
C985 C981 1.495 . S
C985 H991 0.959 . S
C985 H992 0.961 . S
C985 H993 0.960 . S
C986 C984 1.381 . S
C986 C987 1.394 . S
C986 H994 0.930 . S
C987 C986 1.394 . S
C987 C988 1.383 . S
C987 H995 0.929 . S
C988 C987 1.383 . S
C988 C989 1.377 . S
C989 H973 0.930 . S
C989 C988 1.377 . S
C989 C990 1.379 . S
C990 H974 0.931 . S
C990 C984 1.383 . S
C990 C989 1.379 . S
H991 C985 0.959 . S
H992 C985 0.961 . S
H993 C985 0.960 . S
H994 C986 0.930 . S
H995 C987 0.929 . S
H996 C1004 0.929 . S
H997 C1006 0.930 . S
H998 C1008 0.930 . S
H999 C1011 0.929 . S
H1000 C1014 0.930 . S
H1001 C1016 0.960 . S
H1002 C1016 0.960 . S
H1003 C1016 0.960 . S
C1004 H996 0.929 . S
C1004 C1005 1.377 . S
C1004 C1006 1.384 . S
C1005 C1004 1.377 . S
C1005 C1011 1.390 . S
C1006 H997 0.930 . S
C1006 C1004 1.384 . S
C1006 C1007 1.372 . S
C1007 C1006 1.372 . S
C1007 C1008 1.400 . S
C1007 C1012 1.490 . S
C1008 H998 0.930 . S
C1008 C1007 1.400 . S
C1008 C1011 1.386 . S
H1009 C1025 0.930 . S
H1010 C1026 0.931 . S
C1011 H999 0.929 . S
C1011 C1005 1.390 . S
C1011 C1008 1.386 . S
C1012 C1007 1.490 . S
C1012 C1014 1.395 . S
C1012 C1015 1.403 . S
H1013 C1019 0.930 . S
C1014 H1000 0.930 . S
C1014 C1012 1.395 . S
C1014 C1017 1.403 . S
C1015 C1012 1.403 . S
C1015 C1016 1.524 . S
C1015 C1019 1.400 . S
C1016 H1001 0.960 . S
C1016 H1002 0.960 . S
C1016 H1003 0.960 . S
C1016 C1015 1.524 . S
C1017 C1014 1.403 . S
C1017 C1018 1.392 . S
C1017 C1021 1.495 . S
C1018 C1017 1.392 . S
C1018 C1019 1.385 . S
C1018 C1020 1.478 . S
C1019 H1013 0.930 . S
C1019 C1015 1.400 . S
C1019 C1018 1.385 . S
C1020 C1018 1.478 . S
C1020 C1022 1.381 . S
C1020 C1026 1.383 . S
C1021 C1017 1.495 . S
C1021 H1027 0.959 . S
C1021 H1028 0.961 . S
C1021 H1029 0.960 . S
C1022 C1020 1.381 . S
C1022 C1023 1.394 . S
C1022 H1030 0.930 . S
C1023 C1022 1.394 . S
C1023 C1024 1.383 . S
C1023 H1031 0.929 . S
C1024 C1023 1.383 . S
C1024 C1025 1.377 . S
C1025 H1009 0.930 . S
C1025 C1024 1.377 . S
C1025 C1026 1.379 . S
C1026 H1010 0.931 . S
C1026 C1020 1.383 . S
C1026 C1025 1.379 . S
H1027 C1021 0.959 . S
H1028 C1021 0.961 . S
H1029 C1021 0.960 . S
H1030 C1022 0.930 . S
H1031 C1023 0.929 . S
H1032 C1040 0.929 . S
H1033 C1042 0.930 . S
H1034 C1044 0.930 . S
H1035 C1047 0.929 . S
H1036 C1050 0.930 . S
H1037 C1052 0.960 . S
H1038 C1052 0.960 . S
H1039 C1052 0.960 . S
C1040 H1032 0.929 . S
C1040 C1041 1.377 . S
C1040 C1042 1.384 . S
C1041 C1040 1.377 . S
C1041 C1047 1.390 . S
C1042 H1033 0.930 . S
C1042 C1040 1.384 . S
C1042 C1043 1.372 . S
C1043 C1042 1.372 . S
C1043 C1044 1.400 . S
C1043 C1048 1.490 . S
C1044 H1034 0.930 . S
C1044 C1043 1.400 . S
C1044 C1047 1.386 . S
H1045 C1061 0.930 . S
H1046 C1062 0.931 . S
C1047 H1035 0.929 . S
C1047 C1041 1.390 . S
C1047 C1044 1.386 . S
C1048 C1043 1.490 . S
C1048 C1050 1.395 . S
C1048 C1051 1.403 . S
H1049 C1055 0.930 . S
C1050 H1036 0.930 . S
C1050 C1048 1.395 . S
C1050 C1053 1.403 . S
C1051 C1048 1.403 . S
C1051 C1052 1.524 . S
C1051 C1055 1.400 . S
C1052 H1037 0.960 . S
C1052 H1038 0.960 . S
C1052 H1039 0.960 . S
C1052 C1051 1.524 . S
C1053 C1050 1.403 . S
C1053 C1054 1.392 . S
C1053 C1057 1.495 . S
C1054 C1053 1.392 . S
C1054 C1055 1.385 . S
C1054 C1056 1.478 . S
C1055 H1049 0.930 . S
C1055 C1051 1.400 . S
C1055 C1054 1.385 . S
C1056 C1054 1.478 . S
C1056 C1058 1.381 . S
C1056 C1062 1.383 . S
C1057 C1053 1.495 . S
C1057 H1063 0.959 . S
C1057 H1064 0.961 . S
C1057 H1065 0.960 . S
C1058 C1056 1.381 . S
C1058 C1059 1.394 . S
C1058 H1066 0.930 . S
C1059 C1058 1.394 . S
C1059 C1060 1.383 . S
C1059 H1067 0.929 . S
C1060 C1059 1.383 . S
C1060 C1061 1.377 . S
C1061 H1045 0.930 . S
C1061 C1060 1.377 . S
C1061 C1062 1.379 . S
C1062 H1046 0.931 . S
C1062 C1056 1.383 . S
C1062 C1061 1.379 . S
H1063 C1057 0.959 . S
H1064 C1057 0.961 . S
H1065 C1057 0.960 . S
H1066 C1058 0.930 . S
H1067 C1059 0.929 . S
H1068 C1076 0.929 . S
H1069 C1078 0.930 . S
H1070 C1080 0.930 . S
H1071 C1083 0.929 . S
H1072 C1086 0.930 . S
H1073 C1088 0.960 . S
H1074 C1088 0.960 . S
H1075 C1088 0.960 . S
C1076 H1068 0.929 . S
C1076 C1077 1.377 . S
C1076 C1078 1.384 . S
C1077 C1076 1.377 . S
C1077 C1083 1.390 . S
C1078 H1069 0.930 . S
C1078 C1076 1.384 . S
C1078 C1079 1.372 . S
C1079 C1078 1.372 . S
C1079 C1080 1.400 . S
C1079 C1084 1.490 . S
C1080 H1070 0.930 . S
C1080 C1079 1.400 . S
C1080 C1083 1.386 . S
H1081 C1097 0.930 . S
H1082 C1098 0.931 . S
C1083 H1071 0.929 . S
C1083 C1077 1.390 . S
C1083 C1080 1.386 . S
C1084 C1079 1.490 . S
C1084 C1086 1.395 . S
C1084 C1087 1.403 . S
H1085 C1091 0.930 . S
C1086 H1072 0.930 . S
C1086 C1084 1.395 . S
C1086 C1089 1.403 . S
C1087 C1084 1.403 . S
C1087 C1088 1.524 . S
C1087 C1091 1.400 . S
C1088 H1073 0.960 . S
C1088 H1074 0.960 . S
C1088 H1075 0.960 . S
C1088 C1087 1.524 . S
C1089 C1086 1.403 . S
C1089 C1090 1.392 . S
C1089 C1093 1.495 . S
C1090 C1089 1.392 . S
C1090 C1091 1.385 . S
C1090 C1092 1.478 . S
C1091 H1085 0.930 . S
C1091 C1087 1.400 . S
C1091 C1090 1.385 . S
C1092 C1090 1.478 . S
C1092 C1094 1.381 . S
C1092 C1098 1.383 . S
C1093 C1089 1.495 . S
C1093 H1099 0.959 . S
C1093 H1100 0.961 . S
C1093 H1101 0.960 . S
C1094 C1092 1.381 . S
C1094 C1095 1.394 . S
C1094 H1102 0.930 . S
C1095 C1094 1.394 . S
C1095 C1096 1.383 . S
C1095 H1103 0.929 . S
C1096 C1095 1.383 . S
C1096 C1097 1.377 . S
C1097 H1081 0.930 . S
C1097 C1096 1.377 . S
C1097 C1098 1.379 . S
C1098 H1082 0.931 . S
C1098 C1092 1.383 . S
C1098 C1097 1.379 . S
H1099 C1093 0.959 . S
H1100 C1093 0.961 . S
H1101 C1093 0.960 . S
H1102 C1094 0.930 . S
H1103 C1095 0.929 . S
H1104 C1112 0.929 . S
H1105 C1114 0.930 . S
H1106 C1116 0.930 . S
H1107 C1119 0.929 . S
H1108 C1122 0.930 . S
H1109 C1124 0.960 . S
H1110 C1124 0.960 . S
H1111 C1124 0.960 . S
C1112 H1104 0.929 . S
C1112 C1113 1.377 . S
C1112 C1114 1.384 . S
C1113 C1112 1.377 . S
C1113 C1119 1.390 . S
C1114 H1105 0.930 . S
C1114 C1112 1.384 . S
C1114 C1115 1.372 . S
C1115 C1114 1.372 . S
C1115 C1116 1.400 . S
C1115 C1120 1.490 . S
C1116 H1106 0.930 . S
C1116 C1115 1.400 . S
C1116 C1119 1.386 . S
H1117 C1133 0.930 . S
H1118 C1134 0.931 . S
C1119 H1107 0.929 . S
C1119 C1113 1.390 . S
C1119 C1116 1.386 . S
C1120 C1115 1.490 . S
C1120 C1122 1.395 . S
C1120 C1123 1.403 . S
H1121 C1127 0.930 . S
C1122 H1108 0.930 . S
C1122 C1120 1.395 . S
C1122 C1125 1.403 . S
C1123 C1120 1.403 . S
C1123 C1124 1.524 . S
C1123 C1127 1.400 . S
C1124 H1109 0.960 . S
C1124 H1110 0.960 . S
C1124 H1111 0.960 . S
C1124 C1123 1.524 . S
C1125 C1122 1.403 . S
C1125 C1126 1.392 . S
C1125 C1129 1.495 . S
C1126 C1125 1.392 . S
C1126 C1127 1.385 . S
C1126 C1128 1.478 . S
C1127 H1121 0.930 . S
C1127 C1123 1.400 . S
C1127 C1126 1.385 . S
C1128 C1126 1.478 . S
C1128 C1130 1.381 . S
C1128 C1134 1.383 . S
C1129 C1125 1.495 . S
C1129 H1135 0.959 . S
C1129 H1136 0.961 . S
C1129 H1137 0.960 . S
C1130 C1128 1.381 . S
C1130 C1131 1.394 . S
C1130 H1138 0.930 . S
C1131 C1130 1.394 . S
C1131 C1132 1.383 . S
C1131 H1139 0.929 . S
C1132 C1131 1.383 . S
C1132 C1133 1.377 . S
C1133 H1117 0.930 . S
C1133 C1132 1.377 . S
C1133 C1134 1.379 . S
C1134 H1118 0.931 . S
C1134 C1128 1.383 . S
C1134 C1133 1.379 . S
H1135 C1129 0.959 . S
H1136 C1129 0.961 . S
H1137 C1129 0.960 . S
H1138 C1130 0.930 . S
H1139 C1131 0.929 . S
H1140 C1148 0.929 . S
H1141 C1150 0.930 . S
H1142 C1152 0.930 . S
H1143 C1155 0.929 . S
H1144 C1158 0.930 . S
H1145 C1160 0.960 . S
H1146 C1160 0.960 . S
H1147 C1160 0.960 . S
C1148 H1140 0.929 . S
C1148 C1149 1.377 . S
C1148 C1150 1.384 . S
C1149 C1148 1.377 . S
C1149 C1155 1.390 . S
C1150 H1141 0.930 . S
C1150 C1148 1.384 . S
C1150 C1151 1.372 . S
C1151 C1150 1.372 . S
C1151 C1152 1.400 . S
C1151 C1156 1.490 . S
C1152 H1142 0.930 . S
C1152 C1151 1.400 . S
C1152 C1155 1.386 . S
H1153 C1169 0.930 . S
H1154 C1170 0.931 . S
C1155 H1143 0.929 . S
C1155 C1149 1.390 . S
C1155 C1152 1.386 . S
C1156 C1151 1.490 . S
C1156 C1158 1.395 . S
C1156 C1159 1.403 . S
H1157 C1163 0.930 . S
C1158 H1144 0.930 . S
C1158 C1156 1.395 . S
C1158 C1161 1.403 . S
C1159 C1156 1.403 . S
C1159 C1160 1.524 . S
C1159 C1163 1.400 . S
C1160 H1145 0.960 . S
C1160 H1146 0.960 . S
C1160 H1147 0.960 . S
C1160 C1159 1.524 . S
C1161 C1158 1.403 . S
C1161 C1162 1.392 . S
C1161 C1165 1.495 . S
C1162 C1161 1.392 . S
C1162 C1163 1.385 . S
C1162 C1164 1.478 . S
C1163 H1157 0.930 . S
C1163 C1159 1.400 . S
C1163 C1162 1.385 . S
C1164 C1162 1.478 . S
C1164 C1166 1.381 . S
C1164 C1170 1.383 . S
C1165 C1161 1.495 . S
C1165 H1171 0.959 . S
C1165 H1172 0.961 . S
C1165 H1173 0.960 . S
C1166 C1164 1.381 . S
C1166 C1167 1.394 . S
C1166 H1174 0.930 . S
C1167 C1166 1.394 . S
C1167 C1168 1.383 . S
C1167 H1175 0.929 . S
C1168 C1167 1.383 . S
C1168 C1169 1.377 . S
C1169 H1153 0.930 . S
C1169 C1168 1.377 . S
C1169 C1170 1.379 . S
C1170 H1154 0.931 . S
C1170 C1164 1.383 . S
C1170 C1169 1.379 . S
H1171 C1165 0.959 . S
H1172 C1165 0.961 . S
H1173 C1165 0.960 . S
H1174 C1166 0.930 . S
H1175 C1167 0.929 . S
H1176 C1184 0.929 . S
H1177 C1186 0.930 . S
H1178 C1188 0.930 . S
H1179 C1191 0.929 . S
H1180 C1194 0.930 . S
H1181 C1196 0.960 . S
H1182 C1196 0.960 . S
H1183 C1196 0.960 . S
C1184 H1176 0.929 . S
C1184 C1185 1.377 . S
C1184 C1186 1.384 . S
C1185 C1184 1.377 . S
C1185 C1191 1.390 . S
C1186 H1177 0.930 . S
C1186 C1184 1.384 . S
C1186 C1187 1.372 . S
C1187 C1186 1.372 . S
C1187 C1188 1.400 . S
C1187 C1192 1.490 . S
C1188 H1178 0.930 . S
C1188 C1187 1.400 . S
C1188 C1191 1.386 . S
H1189 C1205 0.930 . S
H1190 C1206 0.931 . S
C1191 H1179 0.929 . S
C1191 C1185 1.390 . S
C1191 C1188 1.386 . S
C1192 C1187 1.490 . S
C1192 C1194 1.395 . S
C1192 C1195 1.403 . S
H1193 C1199 0.930 . S
C1194 H1180 0.930 . S
C1194 C1192 1.395 . S
C1194 C1197 1.403 . S
C1195 C1192 1.403 . S
C1195 C1196 1.524 . S
C1195 C1199 1.400 . S
C1196 H1181 0.960 . S
C1196 H1182 0.960 . S
C1196 H1183 0.960 . S
C1196 C1195 1.524 . S
C1197 C1194 1.403 . S
C1197 C1198 1.392 . S
C1197 C1201 1.495 . S
C1198 C1197 1.392 . S
C1198 C1199 1.385 . S
C1198 C1200 1.478 . S
C1199 H1193 0.930 . S
C1199 C1195 1.400 . S
C1199 C1198 1.385 . S
C1200 C1198 1.478 . S
C1200 C1202 1.381 . S
C1200 C1206 1.383 . S
C1201 C1197 1.495 . S
C1201 H1207 0.959 . S
C1201 H1208 0.961 . S
C1201 H1209 0.960 . S
C1202 C1200 1.381 . S
C1202 C1203 1.394 . S
C1202 H1210 0.930 . S
C1203 C1202 1.394 . S
C1203 C1204 1.383 . S
C1203 H1211 0.929 . S
C1204 C1203 1.383 . S
C1204 C1205 1.377 . S
C1205 H1189 0.930 . S
C1205 C1204 1.377 . S
C1205 C1206 1.379 . S
C1206 H1190 0.931 . S
C1206 C1200 1.383 . S
C1206 C1205 1.379 . S
H1207 C1201 0.959 . S
H1208 C1201 0.961 . S
H1209 C1201 0.960 . S
H1210 C1202 0.930 . S
H1211 C1203 0.929 . S
H1212 C1220 0.929 . S
H1213 C1222 0.940 . S
H1214 C1224 0.930 . S
H1215 C1227 0.929 . S
H1216 C1230 0.930 . S
H1217 C1232 0.960 . S
H1218 C1232 0.960 . S
H1219 C1232 0.960 . S
C1220 H1212 0.929 . S
C1220 C1221 1.377 . S
C1220 C1222 1.360 1_554 S
C1221 C1220 1.377 . S
C1221 C1227 1.390 . S
C1222 H1213 0.940 . S
C1222 C1220 1.360 1_556 S
C1222 C1223 1.386 . S
C1223 C1222 1.386 . S
C1223 C1224 1.400 . S
C1223 C1228 1.490 . S
C1224 H1214 0.930 . S
C1224 C1223 1.400 . S
C1224 C1227 1.386 1_556 S
H1225 C1241 0.930 . S
H1226 C1242 0.931 . S
C1227 H1215 0.929 . S
C1227 C1221 1.390 . S
C1227 C1224 1.386 1_554 S
C1228 C1223 1.490 . S
C1228 C1230 1.395 . S
C1228 C1231 1.403 . S
H1229 C1235 0.930 . S
C1230 H1216 0.930 . S
C1230 C1228 1.395 . S
C1230 C1233 1.403 . S
C1231 C1228 1.403 . S
C1231 C1232 1.524 . S
C1231 C1235 1.400 . S
C1232 H1217 0.960 . S
C1232 H1218 0.960 . S
C1232 H1219 0.960 . S
C1232 C1231 1.524 . S
C1233 C1230 1.403 . S
C1233 C1234 1.392 . S
C1233 C1237 1.495 . S
C1234 C1233 1.392 . S
C1234 C1235 1.385 . S
C1234 C1236 1.478 . S
C1235 H1229 0.930 . S
C1235 C1231 1.400 . S
C1235 C1234 1.385 . S
C1236 C1234 1.478 . S
C1236 C1238 1.381 . S
C1236 C1242 1.383 . S
C1237 C1233 1.495 . S
C1237 H1243 0.959 . S
C1237 H1244 0.961 . S
C1237 H1245 0.960 . S
C1238 C1236 1.381 . S
C1238 C1239 1.394 . S
C1238 H1246 0.930 . S
C1239 C1238 1.394 . S
C1239 C1240 1.383 . S
C1239 H1247 0.929 . S
C1240 C1239 1.383 . S
C1240 C1241 1.377 . S
C1241 H1225 0.930 . S
C1241 C1240 1.377 . S
C1241 C1242 1.379 . S
C1242 H1226 0.931 . S
C1242 C1236 1.383 . S
C1242 C1241 1.379 . S
H1243 C1237 0.959 . S
H1244 C1237 0.961 . S
H1245 C1237 0.960 . S
H1246 C1238 0.930 . S
H1247 C1239 0.929 . S
H1248 C1256 0.929 . S
H1249 C1258 0.930 . S
H1250 C1260 0.930 . S
H1251 C1263 0.929 . S
H1252 C1266 0.930 . S
H1253 C1268 0.960 . S
H1254 C1268 0.960 . S
H1255 C1268 0.960 . S
C1256 H1248 0.929 . S
C1256 C1257 1.377 . S
C1256 C1258 1.384 . S
C1257 C1256 1.377 . S
C1257 C1263 1.390 . S
C1258 H1249 0.930 . S
C1258 C1256 1.384 . S
C1258 C1259 1.372 . S
C1259 C1258 1.372 . S
C1259 C1260 1.400 . S
C1259 C1264 1.490 . S
C1260 H1250 0.930 . S
C1260 C1259 1.400 . S
C1260 C1263 1.386 . S
H1261 C1277 0.930 . S
H1262 C1278 0.931 . S
C1263 H1251 0.929 . S
C1263 C1257 1.390 . S
C1263 C1260 1.386 . S
C1264 C1259 1.490 . S
C1264 C1266 1.395 . S
C1264 C1267 1.403 . S
H1265 C1271 0.930 . S
C1266 H1252 0.930 . S
C1266 C1264 1.395 . S
C1266 C1269 1.403 . S
C1267 C1264 1.403 . S
C1267 C1268 1.524 . S
C1267 C1271 1.400 . S
C1268 H1253 0.960 . S
C1268 H1254 0.960 . S
C1268 H1255 0.960 . S
C1268 C1267 1.524 . S
C1269 C1266 1.403 . S
C1269 C1270 1.392 . S
C1269 C1273 1.495 . S
C1270 C1269 1.392 . S
C1270 C1271 1.385 . S
C1270 C1272 1.478 . S
C1271 H1265 0.930 . S
C1271 C1267 1.400 . S
C1271 C1270 1.385 . S
C1272 C1270 1.478 . S
C1272 C1274 1.381 . S
C1272 C1278 1.383 . S
C1273 C1269 1.495 . S
C1273 H1279 0.959 . S
C1273 H1280 0.961 . S
C1273 H1281 0.960 . S
C1274 C1272 1.381 . S
C1274 C1275 1.394 . S
C1274 H1282 0.930 . S
C1275 C1274 1.394 . S
C1275 C1276 1.383 . S
C1275 H1283 0.929 . S
C1276 C1275 1.383 . S
C1276 C1277 1.377 . S
C1277 H1261 0.930 . S
C1277 C1276 1.377 . S
C1277 C1278 1.379 . S
C1278 H1262 0.931 . S
C1278 C1272 1.383 . S
C1278 C1277 1.379 . S
H1279 C1273 0.959 . S
H1280 C1273 0.961 . S
H1281 C1273 0.960 . S
H1282 C1274 0.930 . S
H1283 C1275 0.929 . S
H1284 C1292 0.929 . S
H1285 C1294 0.930 . S
H1286 C1296 0.930 . S
H1287 C1299 0.929 . S
H1288 C1302 0.930 . S
H1289 C1304 0.960 . S
H1290 C1304 0.960 . S
H1291 C1304 0.960 . S
C1292 H1284 0.929 . S
C1292 C1293 1.377 . S
C1292 C1294 1.384 . S
C1293 C1292 1.377 . S
C1293 C1299 1.390 . S
C1294 H1285 0.930 . S
C1294 C1292 1.384 . S
C1294 C1295 1.372 . S
C1295 C1294 1.372 . S
C1295 C1296 1.400 . S
C1295 C1300 1.490 . S
C1296 H1286 0.930 . S
C1296 C1295 1.400 . S
C1296 C1299 1.386 . S
H1297 C1313 0.930 . S
H1298 C1314 0.931 . S
C1299 H1287 0.929 . S
C1299 C1293 1.390 . S
C1299 C1296 1.386 . S
C1300 C1295 1.490 . S
C1300 C1302 1.395 . S
C1300 C1303 1.403 . S
H1301 C1307 0.930 . S
C1302 H1288 0.930 . S
C1302 C1300 1.395 . S
C1302 C1305 1.403 . S
C1303 C1300 1.403 . S
C1303 C1304 1.524 . S
C1303 C1307 1.400 . S
C1304 H1289 0.960 . S
C1304 H1290 0.960 . S
C1304 H1291 0.960 . S
C1304 C1303 1.524 . S
C1305 C1302 1.403 . S
C1305 C1306 1.392 . S
C1305 C1309 1.495 . S
C1306 C1305 1.392 . S
C1306 C1307 1.385 . S
C1306 C1308 1.478 . S
C1307 H1301 0.930 . S
C1307 C1303 1.400 . S
C1307 C1306 1.385 . S
C1308 C1306 1.478 . S
C1308 C1310 1.381 1_554 S
C1308 C1314 1.383 . S
C1309 C1305 1.495 . S
C1309 H1315 0.959 . S
C1309 H1316 0.961 . S
C1309 H1317 0.960 . S
C1310 C1308 1.381 1_556 S
C1310 C1311 1.394 . S
C1310 H1318 0.930 1_556 S
C1311 C1310 1.394 . S
C1311 C1312 1.383 . S
C1311 H1319 0.929 . S
C1312 C1311 1.383 . S
C1312 C1313 1.377 . S
C1313 H1297 0.930 . S
C1313 C1312 1.377 . S
C1313 C1314 1.379 1_556 S
C1314 H1298 0.931 . S
C1314 C1308 1.383 . S
C1314 C1313 1.379 1_554 S
H1315 C1309 0.959 . S
H1316 C1309 0.961 . S
H1317 C1309 0.960 . S
H1318 C1310 0.930 1_554 S
H1319 C1311 0.929 . S
H1320 C1328 0.929 . S
H1321 C1330 0.930 . S
H1322 C1332 0.930 . S
H1323 C1335 0.929 . S
H1324 C1338 0.930 . S
H1325 C1340 0.960 . S
H1326 C1340 0.960 . S
H1327 C1340 0.960 . S
C1328 H1320 0.929 . S
C1328 C1329 1.377 . S
C1328 C1330 1.384 . S
C1329 C1328 1.377 . S
C1329 C1335 1.390 . S
C1330 H1321 0.930 . S
C1330 C1328 1.384 . S
C1330 C1331 1.372 . S
C1331 C1330 1.372 . S
C1331 C1332 1.400 . S
C1331 C1336 1.490 . S
C1332 H1322 0.930 . S
C1332 C1331 1.400 . S
C1332 C1335 1.386 . S
H1333 C1349 0.930 . S
H1334 C1350 0.931 . S
C1335 H1323 0.929 . S
C1335 C1329 1.390 . S
C1335 C1332 1.386 . S
C1336 C1331 1.490 . S
C1336 C1338 1.395 . S
C1336 C1339 1.403 . S
H1337 C1343 0.930 . S
C1338 H1324 0.930 . S
C1338 C1336 1.395 . S
C1338 C1341 1.403 . S
C1339 C1336 1.403 . S
C1339 C1340 1.524 . S
C1339 C1343 1.400 . S
C1340 H1325 0.960 . S
C1340 H1326 0.960 . S
C1340 H1327 0.960 . S
C1340 C1339 1.524 . S
C1341 C1338 1.403 . S
C1341 C1342 1.392 . S
C1341 C1345 1.495 . S
C1342 C1341 1.392 . S
C1342 C1343 1.385 . S
C1342 C1344 1.478 . S
C1343 H1337 0.930 . S
C1343 C1339 1.400 . S
C1343 C1342 1.385 . S
C1344 C1342 1.478 . S
C1344 C1346 1.381 . S
C1344 C1350 1.383 . S
C1345 C1341 1.495 . S
C1345 H1351 0.959 . S
C1345 H1352 0.961 . S
C1345 H1353 0.960 . S
C1346 C1344 1.381 . S
C1346 C1347 1.394 . S
C1346 H1354 0.930 . S
C1347 C1346 1.394 . S
C1347 C1348 1.383 . S
C1347 H1355 0.929 . S
C1348 C1347 1.383 . S
C1348 C1349 1.377 . S
C1349 H1333 0.930 . S
C1349 C1348 1.377 . S
C1349 C1350 1.379 . S
C1350 H1334 0.931 . S
C1350 C1344 1.383 . S
C1350 C1349 1.379 . S
H1351 C1345 0.959 . S
H1352 C1345 0.961 . S
H1353 C1345 0.960 . S
H1354 C1346 0.930 . S
H1355 C1347 0.929 . S
H1356 C1364 0.929 . S
H1357 C1366 0.930 1_455 S
H1358 C1368 0.930 . S
H1359 C1371 0.929 . S
H1360 C1374 0.930 . S
H1361 C1376 0.960 . S
H1362 C1376 0.960 . S
H1363 C1376 0.960 . S
C1364 H1356 0.929 . S
C1364 C1365 1.377 . S
C1364 C1366 1.384 . S
C1365 C1364 1.377 . S
C1365 C1371 1.390 . S
C1366 H1357 0.930 1_655 S
C1366 C1364 1.384 . S
C1366 C1367 1.372 1_655 S
C1367 C1366 1.372 1_455 S
C1367 C1368 1.400 1_455 S
C1367 C1372 1.490 . S
C1368 H1358 0.930 . S
C1368 C1367 1.400 1_655 S
C1368 C1371 1.386 . S
H1369 C1385 0.930 . S
H1370 C1386 0.931 . S
C1371 H1359 0.929 . S
C1371 C1365 1.390 . S
C1371 C1368 1.386 . S
C1372 C1367 1.490 . S
C1372 C1374 1.395 . S
C1372 C1375 1.403 . S
H1373 C1379 0.930 . S
C1374 H1360 0.930 . S
C1374 C1372 1.395 . S
C1374 C1377 1.403 . S
C1375 C1372 1.403 . S
C1375 C1376 1.524 . S
C1375 C1379 1.400 . S
C1376 H1361 0.960 . S
C1376 H1362 0.960 . S
C1376 H1363 0.960 . S
C1376 C1375 1.524 . S
C1377 C1374 1.403 . S
C1377 C1378 1.392 . S
C1377 C1381 1.495 . S
C1378 C1377 1.392 . S
C1378 C1379 1.385 . S
C1378 C1380 1.478 . S
C1379 H1373 0.930 . S
C1379 C1375 1.400 . S
C1379 C1378 1.385 . S
C1380 C1378 1.478 . S
C1380 C1382 1.381 . S
C1380 C1386 1.383 . S
C1381 C1377 1.495 . S
C1381 H1387 0.959 . S
C1381 H1388 0.961 . S
C1381 H1389 0.960 . S
C1382 C1380 1.381 . S
C1382 C1383 1.394 . S
C1382 H1390 0.930 . S
C1383 C1382 1.394 . S
C1383 C1384 1.383 . S
C1383 H1391 0.929 . S
C1384 C1383 1.383 . S
C1384 C1385 1.377 . S
C1385 H1369 0.930 . S
C1385 C1384 1.377 . S
C1385 C1386 1.379 . S
C1386 H1370 0.931 . S
C1386 C1380 1.383 . S
C1386 C1385 1.379 . S
H1387 C1381 0.959 . S
H1388 C1381 0.961 . S
H1389 C1381 0.960 . S
H1390 C1382 0.930 . S
H1391 C1383 0.929 . S
H1392 C1400 0.929 . S
H1393 C1402 0.923 1_655 S
H1394 C1404 0.930 . S
H1395 C1407 0.929 . S
H1396 C1410 0.930 . S
H1397 C1412 0.960 . S
H1398 C1412 0.960 . S
H1399 C1412 0.960 . S
C1400 H1392 0.929 . S
C1400 C1401 1.377 . S
C1400 C1402 1.384 . S
C1401 C1400 1.377 . S
C1401 C1407 1.390 . S
C1402 H1393 0.923 1_455 S
C1402 C1400 1.384 . S
C1402 C1403 1.372 1_455 S
C1403 C1402 1.372 1_655 S
C1403 C1404 1.400 1_655 S
C1403 C1408 1.490 . S
C1404 H1394 0.930 . S
C1404 C1403 1.400 1_455 S
C1404 C1407 1.386 . S
H1405 C1421 0.930 . S
H1406 C1422 0.931 . S
C1407 H1395 0.929 . S
C1407 C1401 1.390 . S
C1407 C1404 1.386 . S
C1408 C1403 1.490 . S
C1408 C1410 1.395 . S
C1408 C1411 1.403 . S
H1409 C1415 0.930 . S
C1410 H1396 0.930 . S
C1410 C1408 1.395 . S
C1410 C1413 1.403 . S
C1411 C1408 1.403 . S
C1411 C1412 1.524 . S
C1411 C1415 1.400 . S
C1412 H1397 0.960 . S
C1412 H1398 0.960 . S
C1412 H1399 0.960 . S
C1412 C1411 1.524 . S
C1413 C1410 1.403 . S
C1413 C1414 1.392 . S
C1413 C1417 1.495 . S
C1414 C1413 1.392 . S
C1414 C1415 1.385 . S
C1414 C1416 1.478 . S
C1415 H1409 0.930 . S
C1415 C1411 1.400 . S
C1415 C1414 1.385 . S
C1416 C1414 1.478 . S
C1416 C1418 1.381 . S
C1416 C1422 1.383 . S
C1417 C1413 1.495 . S
C1417 H1423 0.959 . S
C1417 H1424 0.961 . S
C1417 H1425 0.960 . S
C1418 C1416 1.381 . S
C1418 C1419 1.394 . S
C1418 H1426 0.930 . S
C1419 C1418 1.394 . S
C1419 C1420 1.383 . S
C1419 H1427 0.929 . S
C1420 C1419 1.383 . S
C1420 C1421 1.377 . S
C1421 H1405 0.930 . S
C1421 C1420 1.377 . S
C1421 C1422 1.379 . S
C1422 H1406 0.931 . S
C1422 C1416 1.383 . S
C1422 C1421 1.379 . S
H1423 C1417 0.959 . S
H1424 C1417 0.961 . S
H1425 C1417 0.960 . S
H1426 C1418 0.930 . S
H1427 C1419 0.929 . S
H1428 C1436 0.929 . S
H1429 C1438 0.930 . S
H1430 C1440 0.930 . S
H1431 C1443 0.929 . S
H1432 C1446 0.930 . S
H1433 C1448 0.960 . S
H1434 C1448 0.960 . S
H1435 C1448 0.960 . S
C1436 H1428 0.929 . S
C1436 C1437 1.377 . S
C1436 C1438 1.384 . S
C1437 C1436 1.377 . S
C1437 C1443 1.390 . S
C1438 H1429 0.930 . S
C1438 C1436 1.384 . S
C1438 C1439 1.372 . S
C1439 C1438 1.372 . S
C1439 C1440 1.400 . S
C1439 C1444 1.490 . S
C1440 H1430 0.930 . S
C1440 C1439 1.400 . S
C1440 C1443 1.386 . S
H1441 C1457 0.930 . S
H1442 C1458 0.931 . S
C1443 H1431 0.929 . S
C1443 C1437 1.390 . S
C1443 C1440 1.386 . S
C1444 C1439 1.490 . S
C1444 C1446 1.395 . S
C1444 C1447 1.403 . S
H1445 C1451 0.930 . S
C1446 H1432 0.930 . S
C1446 C1444 1.395 . S
C1446 C1449 1.403 . S
C1447 C1444 1.403 . S
C1447 C1448 1.524 . S
C1447 C1451 1.400 . S
C1448 H1433 0.960 . S
C1448 H1434 0.960 . S
C1448 H1435 0.960 . S
C1448 C1447 1.524 . S
C1449 C1446 1.403 . S
C1449 C1450 1.392 . S
C1449 C1453 1.495 . S
C1450 C1449 1.392 . S
C1450 C1451 1.385 . S
C1450 C1452 1.478 . S
C1451 H1445 0.930 . S
C1451 C1447 1.400 . S
C1451 C1450 1.385 . S
C1452 C1450 1.478 . S
C1452 C1454 1.381 . S
C1452 C1458 1.383 . S
C1453 C1449 1.495 . S
C1453 H1459 0.959 . S
C1453 H1460 0.961 . S
C1453 H1461 0.960 . S
C1454 C1452 1.381 . S
C1454 C1455 1.394 . S
C1454 H1462 0.930 . S
C1455 C1454 1.394 . S
C1455 C1456 1.383 . S
C1455 H1463 0.929 . S
C1456 C1455 1.383 . S
C1456 C1457 1.377 . S
C1457 H1441 0.930 . S
C1457 C1456 1.377 . S
C1457 C1458 1.379 . S
C1458 H1442 0.931 . S
C1458 C1452 1.383 . S
C1458 C1457 1.379 . S
H1459 C1453 0.959 . S
H1460 C1453 0.961 . S
H1461 C1453 0.960 . S
H1462 C1454 0.930 . S
H1463 C1455 0.929 . S
H1464 C1472 0.929 . S
H1465 C1474 0.930 . S
H1466 C1476 0.930 . S
H1467 C1479 0.929 . S
H1468 C1482 0.930 . S
H1469 C1484 0.960 . S
H1470 C1484 0.960 . S
H1471 C1484 0.960 . S
C1472 H1464 0.929 . S
C1472 C1473 1.377 . S
C1472 C1474 1.384 . S
C1473 C1472 1.377 . S
C1473 C1479 1.390 . S
C1474 H1465 0.930 . S
C1474 C1472 1.384 . S
C1474 C1475 1.372 . S
C1475 C1474 1.372 . S
C1475 C1476 1.400 . S
C1475 C1480 1.490 . S
C1476 H1466 0.930 . S
C1476 C1475 1.400 . S
C1476 C1479 1.386 . S
H1477 C1493 0.930 . S
H1478 C1494 0.931 . S
C1479 H1467 0.929 . S
C1479 C1473 1.390 . S
C1479 C1476 1.386 . S
C1480 C1475 1.490 . S
C1480 C1482 1.395 . S
C1480 C1483 1.403 . S
H1481 C1487 0.930 . S
C1482 H1468 0.930 . S
C1482 C1480 1.395 . S
C1482 C1485 1.403 . S
C1483 C1480 1.403 . S
C1483 C1484 1.524 . S
C1483 C1487 1.400 . S
C1484 H1469 0.960 . S
C1484 H1470 0.960 . S
C1484 H1471 0.960 . S
C1484 C1483 1.524 . S
C1485 C1482 1.403 . S
C1485 C1486 1.392 . S
C1485 C1489 1.495 . S
C1486 C1485 1.392 . S
C1486 C1487 1.385 . S
C1486 C1488 1.478 . S
C1487 H1481 0.930 . S
C1487 C1483 1.400 . S
C1487 C1486 1.385 . S
C1488 C1486 1.478 . S
C1488 C1490 1.381 . S
C1488 C1494 1.383 . S
C1489 C1485 1.495 . S
C1489 H1495 0.959 . S
C1489 H1496 0.961 . S
C1489 H1497 0.960 . S
C1490 C1488 1.381 . S
C1490 C1491 1.394 . S
C1490 H1498 0.930 . S
C1491 C1490 1.394 . S
C1491 C1492 1.383 . S
C1491 H1499 0.929 . S
C1492 C1491 1.383 . S
C1492 C1493 1.377 . S
C1493 H1477 0.930 . S
C1493 C1492 1.377 . S
C1493 C1494 1.379 . S
C1494 H1478 0.931 . S
C1494 C1488 1.383 . S
C1494 C1493 1.379 . S
H1495 C1489 0.959 . S
H1496 C1489 0.961 . S
H1497 C1489 0.960 . S
H1498 C1490 0.930 . S
H1499 C1491 0.929 . S
H1500 C1508 0.929 . S
H1501 C1510 0.930 . S
H1502 C1512 0.930 . S
H1503 C1515 0.929 . S
H1504 C1518 0.930 . S
H1505 C1520 0.960 . S
H1506 C1520 0.960 . S
H1507 C1520 0.960 . S
C1508 H1500 0.929 . S
C1508 C1509 1.377 . S
C1508 C1510 1.384 1_565 S
C1509 C1508 1.377 . S
C1509 C1515 1.390 . S
C1510 H1501 0.930 . S
C1510 C1508 1.384 1_545 S
C1510 C1511 1.372 . S
C1511 C1510 1.372 . S
C1511 C1512 1.400 . S
C1511 C1516 1.490 . S
C1512 H1502 0.930 . S
C1512 C1511 1.400 . S
C1512 C1515 1.386 1_545 S
H1513 C1529 0.930 . S
H1514 C1530 0.931 . S
C1515 H1503 0.929 . S
C1515 C1509 1.390 . S
C1515 C1512 1.386 1_565 S
C1516 C1511 1.490 . S
C1516 C1518 1.395 . S
C1516 C1519 1.403 . S
H1517 C1523 0.930 . S
C1518 H1504 0.930 . S
C1518 C1516 1.395 . S
C1518 C1521 1.403 . S
C1519 C1516 1.403 . S
C1519 C1520 1.524 . S
C1519 C1523 1.400 . S
C1520 H1505 0.960 . S
C1520 H1506 0.960 . S
C1520 H1507 0.960 . S
C1520 C1519 1.524 . S
C1521 C1518 1.403 . S
C1521 C1522 1.392 . S
C1521 C1525 1.495 . S
C1522 C1521 1.392 . S
C1522 C1523 1.385 . S
C1522 C1524 1.478 . S
C1523 H1517 0.930 . S
C1523 C1519 1.400 . S
C1523 C1522 1.385 . S
C1524 C1522 1.478 . S
C1524 C1526 1.381 . S
C1524 C1530 1.383 . S
C1525 C1521 1.495 . S
C1525 H1531 0.959 . S
C1525 H1532 0.961 . S
C1525 H1533 0.960 . S
C1526 C1524 1.381 . S
C1526 C1527 1.394 . S
C1526 H1534 0.930 . S
C1527 C1526 1.394 . S
C1527 C1528 1.383 . S
C1527 H1535 0.929 . S
C1528 C1527 1.383 . S
C1528 C1529 1.377 . S
C1529 H1513 0.930 . S
C1529 C1528 1.377 . S
C1529 C1530 1.379 . S
C1530 H1514 0.931 . S
C1530 C1524 1.383 . S
C1530 C1529 1.379 . S
H1531 C1525 0.959 . S
H1532 C1525 0.961 . S
H1533 C1525 0.960 . S
H1534 C1526 0.930 . S
H1535 C1527 0.929 . S
H1536 C1544 0.929 . S
H1537 C1546 0.930 . S
H1538 C1548 0.930 . S
H1539 C1551 0.929 . S
H1540 C1554 0.930 . S
H1541 C1556 0.960 . S
H1542 C1556 0.960 . S
H1543 C1556 0.960 . S
C1544 H1536 0.929 . S
C1544 C1545 1.377 . S
C1544 C1546 1.383 1_545 S
C1545 C1544 1.377 . S
C1545 C1551 1.390 . S
C1546 H1537 0.930 . S
C1546 C1544 1.383 1_565 S
C1546 C1547 1.372 . S
C1547 C1546 1.372 . S
C1547 C1548 1.400 . S
C1547 C1552 1.490 . S
C1548 H1538 0.930 . S
C1548 C1547 1.400 . S
C1548 C1551 1.386 1_565 S
H1549 C1565 0.930 . S
H1550 C1566 0.931 . S
C1551 H1539 0.929 . S
C1551 C1545 1.390 . S
C1551 C1548 1.386 1_545 S
C1552 C1547 1.490 . S
C1552 C1554 1.395 . S
C1552 C1555 1.403 . S
H1553 C1559 0.930 . S
C1554 H1540 0.930 . S
C1554 C1552 1.395 . S
C1554 C1557 1.403 . S
C1555 C1552 1.403 . S
C1555 C1556 1.524 . S
C1555 C1559 1.400 . S
C1556 H1541 0.960 . S
C1556 H1542 0.960 . S
C1556 H1543 0.960 . S
C1556 C1555 1.524 . S
C1557 C1554 1.403 . S
C1557 C1558 1.392 . S
C1557 C1561 1.495 . S
C1558 C1557 1.392 . S
C1558 C1559 1.385 . S
C1558 C1560 1.478 . S
C1559 H1553 0.930 . S
C1559 C1555 1.400 . S
C1559 C1558 1.385 . S
C1560 C1558 1.478 . S
C1560 C1562 1.381 . S
C1560 C1566 1.383 . S
C1561 C1557 1.495 . S
C1561 H1567 0.959 . S
C1561 H1568 0.961 . S
C1561 H1569 0.960 . S
C1562 C1560 1.381 . S
C1562 C1563 1.394 . S
C1562 H1570 0.930 . S
C1563 C1562 1.394 . S
C1563 C1564 1.383 . S
C1563 H1571 0.929 . S
C1564 C1563 1.383 . S
C1564 C1565 1.377 . S
C1565 H1549 0.930 . S
C1565 C1564 1.377 . S
C1565 C1566 1.379 . S
C1566 H1550 0.931 . S
C1566 C1560 1.383 . S
C1566 C1565 1.379 . S
H1567 C1561 0.959 . S
H1568 C1561 0.961 . S
H1569 C1561 0.960 . S
H1570 C1562 0.930 . S
H1571 C1563 0.929 . S
H1572 C1580 0.929 . S
H1573 C1582 0.930 . S
H1574 C1584 0.930 . S
H1575 C1587 0.929 . S
H1576 C1590 0.930 . S
H1577 C1592 0.960 . S
H1578 C1592 0.960 . S
H1579 C1592 0.960 . S
C1580 H1572 0.929 . S
C1580 C1581 1.377 . S
C1580 C1582 1.384 . S
C1581 C1580 1.377 . S
C1581 C1587 1.390 . S
C1582 H1573 0.930 . S
C1582 C1580 1.384 . S
C1582 C1583 1.372 . S
C1583 C1582 1.372 . S
C1583 C1584 1.400 . S
C1583 C1588 1.490 . S
C1584 H1574 0.930 . S
C1584 C1583 1.400 . S
C1584 C1587 1.386 . S
H1585 C1601 0.930 . S
H1586 C1602 0.931 . S
C1587 H1575 0.929 . S
C1587 C1581 1.390 . S
C1587 C1584 1.386 . S
C1588 C1583 1.490 . S
C1588 C1590 1.395 . S
C1588 C1591 1.403 . S
H1589 C1595 0.930 . S
C1590 H1576 0.930 . S
C1590 C1588 1.395 . S
C1590 C1593 1.403 . S
C1591 C1588 1.403 . S
C1591 C1592 1.524 . S
C1591 C1595 1.400 . S
C1592 H1577 0.960 . S
C1592 H1578 0.960 . S
C1592 H1579 0.960 . S
C1592 C1591 1.524 . S
C1593 C1590 1.403 . S
C1593 C1594 1.392 . S
C1593 C1597 1.495 . S
C1594 C1593 1.392 . S
C1594 C1595 1.385 . S
C1594 C1596 1.478 . S
C1595 H1589 0.930 . S
C1595 C1591 1.400 . S
C1595 C1594 1.385 . S
C1596 C1594 1.478 . S
C1596 C1598 1.381 . S
C1596 C1602 1.383 . S
C1597 C1593 1.495 . S
C1597 H1603 0.959 . S
C1597 H1604 0.961 . S
C1597 H1605 0.960 . S
C1598 C1596 1.381 . S
C1598 C1599 1.394 . S
C1598 H1606 0.930 . S
C1599 C1598 1.394 . S
C1599 C1600 1.383 . S
C1599 H1607 0.929 . S
C1600 C1599 1.383 . S
C1600 C1601 1.377 . S
C1601 H1585 0.930 . S
C1601 C1600 1.377 . S
C1601 C1602 1.379 . S
C1602 H1586 0.931 . S
C1602 C1596 1.383 . S
C1602 C1601 1.379 . S
H1603 C1597 0.959 . S
H1604 C1597 0.961 . S
H1605 C1597 0.960 . S
H1606 C1598 0.930 . S
H1607 C1599 0.929 . S
H1608 C1616 0.929 . S
H1609 C1618 0.930 . S
H1610 C1620 0.930 . S
H1611 C1623 0.929 . S
H1612 C1626 0.930 . S
H1613 C1628 0.960 . S
H1614 C1628 0.960 . S
H1615 C1628 0.960 . S
C1616 H1608 0.929 . S
C1616 C1617 1.377 . S
C1616 C1618 1.384 . S
C1617 C1616 1.377 . S
C1617 C1623 1.390 . S
C1618 H1609 0.930 . S
C1618 C1616 1.384 . S
C1618 C1619 1.372 . S
C1619 C1618 1.372 . S
C1619 C1620 1.400 . S
C1619 C1624 1.490 . S
C1620 H1610 0.930 . S
C1620 C1619 1.400 . S
C1620 C1623 1.386 . S
H1621 C1637 0.930 . S
H1622 C1638 0.931 . S
C1623 H1611 0.929 . S
C1623 C1617 1.390 . S
C1623 C1620 1.386 . S
C1624 C1619 1.490 . S
C1624 C1626 1.395 . S
C1624 C1627 1.403 . S
H1625 C1631 0.930 . S
C1626 H1612 0.930 . S
C1626 C1624 1.395 . S
C1626 C1629 1.403 . S
C1627 C1624 1.403 . S
C1627 C1628 1.524 . S
C1627 C1631 1.400 . S
C1628 H1613 0.960 . S
C1628 H1614 0.960 . S
C1628 H1615 0.960 . S
C1628 C1627 1.524 . S
C1629 C1626 1.403 . S
C1629 C1630 1.392 . S
C1629 C1633 1.495 . S
C1630 C1629 1.392 . S
C1630 C1631 1.385 . S
C1630 C1632 1.478 . S
C1631 H1625 0.930 . S
C1631 C1627 1.400 . S
C1631 C1630 1.385 . S
C1632 C1630 1.478 . S
C1632 C1634 1.381 . S
C1632 C1638 1.383 . S
C1633 C1629 1.495 . S
C1633 H1639 0.959 . S
C1633 H1640 0.961 . S
C1633 H1641 0.960 . S
C1634 C1632 1.381 . S
C1634 C1635 1.394 . S
C1634 H1642 0.930 . S
C1635 C1634 1.394 . S
C1635 C1636 1.383 . S
C1635 H1643 0.929 . S
C1636 C1635 1.383 . S
C1636 C1637 1.377 . S
C1637 H1621 0.930 . S
C1637 C1636 1.377 . S
C1637 C1638 1.379 . S
C1638 H1622 0.931 . S
C1638 C1632 1.383 . S
C1638 C1637 1.379 . S
H1639 C1633 0.959 . S
H1640 C1633 0.961 . S
H1641 C1633 0.960 . S
H1642 C1634 0.930 . S
H1643 C1635 0.929 . S
H1644 C1652 0.929 . S
H1645 C1654 0.930 1_554 S
H1646 C1656 0.930 . S
H1647 C1659 0.929 . S
H1648 C1662 0.930 . S
H1649 C1664 0.960 . S
H1650 C1664 0.960 . S
H1651 C1664 0.960 . S
C1652 H1644 0.929 . S
C1652 C1653 1.377 . S
C1652 C1654 1.384 . S
C1653 C1652 1.377 . S
C1653 C1659 1.390 . S
C1654 H1645 0.930 1_556 S
C1654 C1652 1.384 . S
C1654 C1655 1.372 1_556 S
C1655 C1654 1.372 1_554 S
C1655 C1656 1.400 . S
C1655 C1660 1.490 . S
C1656 H1646 0.930 . S
C1656 C1655 1.400 . S
C1656 C1659 1.386 1_554 S
H1657 C1673 0.930 . S
H1658 C1674 0.931 . S
C1659 H1647 0.929 . S
C1659 C1653 1.390 . S
C1659 C1656 1.386 1_556 S
C1660 C1655 1.490 . S
C1660 C1662 1.395 . S
C1660 C1663 1.403 . S
H1661 C1667 0.930 . S
C1662 H1648 0.930 . S
C1662 C1660 1.395 . S
C1662 C1665 1.403 . S
C1663 C1660 1.403 . S
C1663 C1664 1.524 . S
C1663 C1667 1.400 . S
C1664 H1649 0.960 . S
C1664 H1650 0.960 . S
C1664 H1651 0.960 . S
C1664 C1663 1.524 . S
C1665 C1662 1.403 . S
C1665 C1666 1.392 . S
C1665 C1669 1.495 . S
C1666 C1665 1.392 . S
C1666 C1667 1.385 . S
C1666 C1668 1.478 . S
C1667 H1661 0.930 . S
C1667 C1663 1.400 . S
C1667 C1666 1.385 . S
C1668 C1666 1.478 . S
C1668 C1670 1.381 . S
C1668 C1674 1.383 . S
C1669 C1665 1.495 . S
C1669 H1675 0.959 . S
C1669 H1676 0.961 . S
C1669 H1677 0.960 . S
C1670 C1668 1.381 . S
C1670 C1671 1.394 . S
C1670 H1678 0.930 . S
C1671 C1670 1.394 . S
C1671 C1672 1.383 . S
C1671 H1679 0.929 . S
C1672 C1671 1.383 . S
C1672 C1673 1.377 . S
C1673 H1657 0.930 . S
C1673 C1672 1.377 . S
C1673 C1674 1.379 . S
C1674 H1658 0.931 . S
C1674 C1668 1.383 . S
C1674 C1673 1.379 . S
H1675 C1669 0.959 . S
H1676 C1669 0.961 . S
H1677 C1669 0.960 . S
H1678 C1670 0.930 . S
H1679 C1671 0.929 . S
H1680 C1688 0.929 . S
H1681 C1690 0.930 . S
H1682 C1692 0.930 . S
H1683 C1695 0.929 . S
H1684 C1698 0.930 . S
H1685 C1700 0.960 . S
H1686 C1700 0.960 . S
H1687 C1700 0.960 . S
C1688 H1680 0.929 . S
C1688 C1689 1.377 . S
C1688 C1690 1.384 . S
C1689 C1688 1.377 . S
C1689 C1695 1.390 . S
C1690 H1681 0.930 . S
C1690 C1688 1.384 . S
C1690 C1691 1.372 . S
C1691 C1690 1.372 . S
C1691 C1692 1.400 . S
C1691 C1696 1.490 . S
C1692 H1682 0.930 . S
C1692 C1691 1.400 . S
C1692 C1695 1.386 . S
H1693 C1709 0.930 . S
H1694 C1710 0.931 . S
C1695 H1683 0.929 . S
C1695 C1689 1.390 . S
C1695 C1692 1.386 . S
C1696 C1691 1.490 . S
C1696 C1698 1.395 . S
C1696 C1699 1.403 . S
H1697 C1703 0.930 . S
C1698 H1684 0.930 . S
C1698 C1696 1.395 . S
C1698 C1701 1.403 . S
C1699 C1696 1.403 . S
C1699 C1700 1.524 . S
C1699 C1703 1.400 . S
C1700 H1685 0.960 . S
C1700 H1686 0.960 . S
C1700 H1687 0.960 . S
C1700 C1699 1.524 . S
C1701 C1698 1.403 . S
C1701 C1702 1.392 . S
C1701 C1705 1.495 . S
C1702 C1701 1.392 . S
C1702 C1703 1.385 . S
C1702 C1704 1.478 . S
C1703 H1697 0.930 . S
C1703 C1699 1.400 . S
C1703 C1702 1.385 . S
C1704 C1702 1.478 . S
C1704 C1706 1.381 . S
C1704 C1710 1.383 . S
C1705 C1701 1.495 . S
C1705 H1711 0.959 . S
C1705 H1712 0.961 . S
C1705 H1713 0.960 . S
C1706 C1704 1.381 . S
C1706 C1707 1.394 . S
C1706 H1714 0.930 . S
C1707 C1706 1.394 . S
C1707 C1708 1.383 . S
C1707 H1715 0.929 . S
C1708 C1707 1.383 . S
C1708 C1709 1.377 . S
C1709 H1693 0.930 . S
C1709 C1708 1.377 . S
C1709 C1710 1.379 . S
C1710 H1694 0.931 . S
C1710 C1704 1.383 . S
C1710 C1709 1.379 . S
H1711 C1705 0.959 . S
H1712 C1705 0.961 . S
H1713 C1705 0.960 . S
H1714 C1706 0.930 . S
H1715 C1707 0.929 . S
H1716 C1724 0.929 . S
H1717 C1726 0.924 1_556 S
H1718 C1728 0.930 . S
H1719 C1731 0.929 . S
H1720 C1734 0.930 . S
H1721 C1736 0.960 . S
H1722 C1736 0.960 . S
H1723 C1736 0.960 . S
C1724 H1716 0.929 . S
C1724 C1725 1.377 . S
C1724 C1726 1.401 . S
C1725 C1724 1.377 . S
C1725 C1731 1.390 . S
C1726 H1717 0.924 1_554 S
C1726 C1724 1.401 . S
C1726 C1727 1.361 1_554 S
C1727 C1726 1.361 1_556 S
C1727 C1728 1.400 . S
C1727 C1732 1.490 . S
C1728 H1718 0.930 . S
C1728 C1727 1.400 . S
C1728 C1731 1.386 1_556 S
H1729 C1745 0.930 . S
H1730 C1746 0.931 . S
C1731 H1719 0.929 . S
C1731 C1725 1.390 . S
C1731 C1728 1.386 1_554 S
C1732 C1727 1.490 . S
C1732 C1734 1.395 . S
C1732 C1735 1.403 . S
H1733 C1739 0.930 . S
C1734 H1720 0.930 . S
C1734 C1732 1.395 . S
C1734 C1737 1.403 . S
C1735 C1732 1.403 . S
C1735 C1736 1.524 . S
C1735 C1739 1.400 . S
C1736 H1721 0.960 . S
C1736 H1722 0.960 . S
C1736 H1723 0.960 . S
C1736 C1735 1.524 . S
C1737 C1734 1.403 . S
C1737 C1738 1.392 . S
C1737 C1741 1.495 . S
C1738 C1737 1.392 . S
C1738 C1739 1.385 . S
C1738 C1740 1.478 . S
C1739 H1733 0.930 . S
C1739 C1735 1.400 . S
C1739 C1738 1.385 . S
C1740 C1738 1.478 . S
C1740 C1742 1.381 . S
C1740 C1746 1.383 . S
C1741 C1737 1.495 . S
C1741 H1747 0.959 . S
C1741 H1748 0.961 . S
C1741 H1749 0.960 . S
C1742 C1740 1.381 . S
C1742 C1743 1.394 . S
C1742 H1750 0.930 . S
C1743 C1742 1.394 . S
C1743 C1744 1.383 . S
C1743 H1751 0.929 . S
C1744 C1743 1.383 . S
C1744 C1745 1.377 . S
C1745 H1729 0.930 . S
C1745 C1744 1.377 . S
C1745 C1746 1.379 . S
C1746 H1730 0.931 . S
C1746 C1740 1.383 . S
C1746 C1745 1.379 . S
H1747 C1741 0.959 . S
H1748 C1741 0.961 . S
H1749 C1741 0.960 . S
H1750 C1742 0.930 . S
H1751 C1743 0.929 . S
H1752 C1760 0.929 . S
H1753 C1762 0.930 . S
H1754 C1764 0.930 . S
H1755 C1767 0.929 . S
H1756 C1770 0.930 . S
H1757 C1772 0.960 . S
H1758 C1772 0.960 . S
H1759 C1772 0.960 . S
C1760 H1752 0.929 . S
C1760 C1761 1.377 . S
C1760 C1762 1.384 . S
C1761 C1760 1.377 . S
C1761 C1767 1.390 . S
C1762 H1753 0.930 . S
C1762 C1760 1.384 . S
C1762 C1763 1.372 . S
C1763 C1762 1.372 . S
C1763 C1764 1.400 . S
C1763 C1768 1.490 . S
C1764 H1754 0.930 . S
C1764 C1763 1.400 . S
C1764 C1767 1.386 . S
H1765 C1781 0.930 . S
H1766 C1782 0.931 . S
C1767 H1755 0.929 . S
C1767 C1761 1.390 . S
C1767 C1764 1.386 . S
C1768 C1763 1.490 . S
C1768 C1770 1.395 . S
C1768 C1771 1.403 . S
H1769 C1775 0.930 . S
C1770 H1756 0.930 . S
C1770 C1768 1.395 . S
C1770 C1773 1.403 . S
C1771 C1768 1.403 . S
C1771 C1772 1.524 . S
C1771 C1775 1.400 . S
C1772 H1757 0.960 . S
C1772 H1758 0.960 . S
C1772 H1759 0.960 . S
C1772 C1771 1.524 . S
C1773 C1770 1.403 . S
C1773 C1774 1.392 . S
C1773 C1777 1.495 . S
C1774 C1773 1.392 . S
C1774 C1775 1.385 . S
C1774 C1776 1.478 . S
C1775 H1769 0.930 . S
C1775 C1771 1.400 . S
C1775 C1774 1.385 . S
C1776 C1774 1.478 . S
C1776 C1778 1.381 . S
C1776 C1782 1.383 . S
C1777 C1773 1.495 . S
C1777 H1783 0.959 . S
C1777 H1784 0.961 . S
C1777 H1785 0.960 . S
C1778 C1776 1.381 . S
C1778 C1779 1.394 . S
C1778 H1786 0.930 . S
C1779 C1778 1.394 . S
C1779 C1780 1.383 . S
C1779 H1787 0.929 . S
C1780 C1779 1.383 . S
C1780 C1781 1.377 . S
C1781 H1765 0.930 . S
C1781 C1780 1.377 . S
C1781 C1782 1.379 . S
C1782 H1766 0.931 . S
C1782 C1776 1.383 . S
C1782 C1781 1.379 . S
H1783 C1777 0.959 . S
H1784 C1777 0.961 . S
H1785 C1777 0.960 . S
H1786 C1778 0.930 . S
H1787 C1779 0.929 . S
H1788 C1796 0.929 . S
H1789 C1798 0.930 . S
H1790 C1800 0.930 . S
H1791 C1803 0.929 . S
H1792 C1806 0.930 . S
H1793 C1808 0.960 . S
H1794 C1808 0.960 . S
H1795 C1808 0.960 . S
C1796 H1788 0.929 . S
C1796 C1797 1.377 . S
C1796 C1798 1.384 . S
C1797 C1796 1.377 . S
C1797 C1803 1.390 . S
C1798 H1789 0.930 . S
C1798 C1796 1.384 . S
C1798 C1799 1.372 . S
C1799 C1798 1.372 . S
C1799 C1800 1.400 . S
C1799 C1804 1.490 . S
C1800 H1790 0.930 . S
C1800 C1799 1.400 . S
C1800 C1803 1.386 . S
H1801 C1817 0.930 . S
H1802 C1818 0.935 . S
C1803 H1791 0.929 . S
C1803 C1797 1.390 . S
C1803 C1800 1.386 . S
C1804 C1799 1.490 . S
C1804 C1806 1.395 . S
C1804 C1807 1.403 . S
H1805 C1811 0.930 . S
C1806 H1792 0.930 . S
C1806 C1804 1.395 . S
C1806 C1809 1.403 . S
C1807 C1804 1.403 . S
C1807 C1808 1.524 . S
C1807 C1811 1.400 . S
C1808 H1793 0.960 . S
C1808 H1794 0.960 . S
C1808 H1795 0.960 . S
C1808 C1807 1.524 . S
C1809 C1806 1.403 . S
C1809 C1810 1.392 . S
C1809 C1813 1.495 . S
C1810 C1809 1.392 . S
C1810 C1811 1.385 . S
C1810 C1812 1.478 . S
C1811 H1805 0.930 . S
C1811 C1807 1.400 . S
C1811 C1810 1.385 . S
C1812 C1810 1.478 . S
C1812 C1814 1.381 . S
C1812 C1818 1.383 1_655 S
C1813 C1809 1.495 . S
C1813 H1819 0.959 . S
C1813 H1820 0.961 . S
C1813 H1821 0.960 . S
C1814 C1812 1.381 . S
C1814 C1815 1.394 1_655 S
C1814 H1822 0.930 . S
C1815 C1814 1.394 1_455 S
C1815 C1816 1.383 . S
C1815 H1823 0.929 . S
C1816 C1815 1.383 . S
C1816 C1817 1.377 . S
C1817 H1801 0.930 . S
C1817 C1816 1.377 . S
C1817 C1818 1.379 . S
C1818 H1802 0.935 . S
C1818 C1812 1.383 1_455 S
C1818 C1817 1.379 . S
H1819 C1813 0.959 . S
H1820 C1813 0.961 . S
H1821 C1813 0.960 . S
H1822 C1814 0.930 . S
H1823 C1815 0.929 . S
H1824 C1832 0.929 . S
H1825 C1834 0.930 . S
H1826 C1836 0.930 . S
H1827 C1839 0.929 . S
H1828 C1842 0.930 . S
H1829 C1844 0.960 . S
H1830 C1844 0.960 . S
H1831 C1844 0.960 . S
C1832 H1824 0.929 . S
C1832 C1833 1.377 . S
C1832 C1834 1.384 . S
C1833 C1832 1.377 . S
C1833 C1839 1.390 . S
C1834 H1825 0.930 . S
C1834 C1832 1.384 . S
C1834 C1835 1.372 . S
C1835 C1834 1.372 . S
C1835 C1836 1.400 . S
C1835 C1840 1.490 . S
C1836 H1826 0.930 . S
C1836 C1835 1.400 . S
C1836 C1839 1.386 . S
H1837 C1853 0.930 . S
H1838 C1854 0.931 . S
C1839 H1827 0.929 . S
C1839 C1833 1.390 . S
C1839 C1836 1.386 . S
C1840 C1835 1.490 . S
C1840 C1842 1.395 . S
C1840 C1843 1.403 . S
H1841 C1847 0.930 . S
C1842 H1828 0.930 . S
C1842 C1840 1.395 . S
C1842 C1845 1.403 . S
C1843 C1840 1.403 . S
C1843 C1844 1.524 . S
C1843 C1847 1.400 . S
C1844 H1829 0.960 . S
C1844 H1830 0.960 . S
C1844 H1831 0.960 . S
C1844 C1843 1.524 . S
C1845 C1842 1.403 . S
C1845 C1846 1.392 . S
C1845 C1849 1.495 . S
C1846 C1845 1.392 . S
C1846 C1847 1.385 . S
C1846 C1848 1.478 . S
C1847 H1841 0.930 . S
C1847 C1843 1.400 . S
C1847 C1846 1.385 . S
C1848 C1846 1.478 . S
C1848 C1850 1.381 1_455 S
C1848 C1854 1.383 . S
C1849 C1845 1.495 . S
C1849 H1855 0.959 . S
C1849 H1856 0.961 . S
C1849 H1857 0.960 . S
C1850 C1848 1.381 1_655 S
C1850 C1851 1.394 . S
C1850 H1858 0.946 . S
C1851 C1850 1.394 . S
C1851 C1852 1.383 . S
C1851 H1859 0.929 . S
C1852 C1851 1.383 . S
C1852 C1853 1.377 . S
C1853 H1837 0.930 . S
C1853 C1852 1.377 . S
C1853 C1854 1.379 1_655 S
C1854 H1838 0.931 . S
C1854 C1848 1.383 . S
C1854 C1853 1.379 1_455 S
H1855 C1849 0.959 . S
H1856 C1849 0.961 . S
H1857 C1849 0.960 . S
H1858 C1850 0.946 . S
H1859 C1851 0.929 . S
H1860 C1868 0.929 . S
H1861 C1870 0.930 . S
H1862 C1872 0.930 . S
H1863 C1875 0.929 . S
H1864 C1878 0.930 . S
H1865 C1880 0.960 . S
H1866 C1880 0.960 . S
H1867 C1880 0.960 . S
C1868 H1860 0.929 . S
C1868 C1869 1.377 . S
C1868 C1870 1.384 . S
C1869 C1868 1.377 . S
C1869 C1875 1.390 . S
C1870 H1861 0.930 . S
C1870 C1868 1.384 . S
C1870 C1871 1.372 . S
C1871 C1870 1.372 . S
C1871 C1872 1.400 . S
C1871 C1876 1.490 . S
C1872 H1862 0.930 . S
C1872 C1871 1.400 . S
C1872 C1875 1.386 . S
H1873 C1889 0.930 . S
H1874 C1890 0.931 . S
C1875 H1863 0.929 . S
C1875 C1869 1.390 . S
C1875 C1872 1.386 . S
C1876 C1871 1.490 . S
C1876 C1878 1.395 . S
C1876 C1879 1.403 . S
H1877 C1883 0.930 . S
C1878 H1864 0.930 . S
C1878 C1876 1.395 . S
C1878 C1881 1.403 . S
C1879 C1876 1.403 . S
C1879 C1880 1.524 . S
C1879 C1883 1.400 . S
C1880 H1865 0.960 . S
C1880 H1866 0.960 . S
C1880 H1867 0.960 . S
C1880 C1879 1.524 . S
C1881 C1878 1.403 . S
C1881 C1882 1.392 . S
C1881 C1885 1.495 . S
C1882 C1881 1.392 . S
C1882 C1883 1.385 . S
C1882 C1884 1.478 . S
C1883 H1877 0.930 . S
C1883 C1879 1.400 . S
C1883 C1882 1.385 . S
C1884 C1882 1.478 . S
C1884 C1886 1.381 . S
C1884 C1890 1.383 . S
C1885 C1881 1.495 . S
C1885 H1891 0.959 . S
C1885 H1892 0.961 . S
C1885 H1893 0.960 . S
C1886 C1884 1.381 . S
C1886 C1887 1.394 . S
C1886 H1894 0.930 . S
C1887 C1886 1.394 . S
C1887 C1888 1.383 . S
C1887 H1895 0.929 . S
C1888 C1887 1.383 . S
C1888 C1889 1.377 . S
C1889 H1873 0.930 . S
C1889 C1888 1.377 . S
C1889 C1890 1.379 . S
C1890 H1874 0.931 . S
C1890 C1884 1.383 . S
C1890 C1889 1.379 . S
H1891 C1885 0.959 . S
H1892 C1885 0.961 . S
H1893 C1885 0.960 . S
H1894 C1886 0.930 . S
H1895 C1887 0.929 . S
H1896 C1904 0.929 . S
H1897 C1906 0.930 . S
H1898 C1908 0.930 . S
H1899 C1911 0.929 . S
H1900 C1914 0.930 . S
H1901 C1916 0.960 . S
H1902 C1916 0.960 . S
H1903 C1916 0.960 . S
C1904 H1896 0.929 . S
C1904 C1905 1.377 . S
C1904 C1906 1.384 . S
C1905 C1904 1.377 . S
C1905 C1911 1.390 . S
C1906 H1897 0.930 . S
C1906 C1904 1.384 . S
C1906 C1907 1.372 . S
C1907 C1906 1.372 . S
C1907 C1908 1.400 . S
C1907 C1912 1.490 . S
C1908 H1898 0.930 . S
C1908 C1907 1.400 . S
C1908 C1911 1.386 . S
H1909 C1925 0.930 . S
H1910 C1926 0.931 . S
C1911 H1899 0.929 . S
C1911 C1905 1.390 . S
C1911 C1908 1.386 . S
C1912 C1907 1.490 . S
C1912 C1914 1.395 . S
C1912 C1915 1.403 . S
H1913 C1919 0.930 . S
C1914 H1900 0.930 . S
C1914 C1912 1.395 . S
C1914 C1917 1.403 . S
C1915 C1912 1.403 . S
C1915 C1916 1.524 . S
C1915 C1919 1.400 . S
C1916 H1901 0.960 . S
C1916 H1902 0.960 . S
C1916 H1903 0.960 . S
C1916 C1915 1.524 . S
C1917 C1914 1.403 . S
C1917 C1918 1.392 . S
C1917 C1921 1.495 . S
C1918 C1917 1.392 . S
C1918 C1919 1.385 . S
C1918 C1920 1.478 . S
C1919 H1913 0.930 . S
C1919 C1915 1.400 . S
C1919 C1918 1.385 . S
C1920 C1918 1.478 . S
C1920 C1922 1.381 . S
C1920 C1926 1.383 . S
C1921 C1917 1.495 . S
C1921 H1927 0.959 . S
C1921 H1928 0.961 . S
C1921 H1929 0.960 . S
C1922 C1920 1.381 . S
C1922 C1923 1.394 . S
C1922 H1930 0.930 . S
C1923 C1922 1.394 . S
C1923 C1924 1.383 . S
C1923 H1931 0.929 . S
C1924 C1923 1.383 . S
C1924 C1925 1.377 . S
C1925 H1909 0.930 . S
C1925 C1924 1.377 . S
C1925 C1926 1.379 . S
C1926 H1910 0.931 . S
C1926 C1920 1.383 . S
C1926 C1925 1.379 . S
H1927 C1921 0.959 . S
H1928 C1921 0.961 . S
H1929 C1921 0.960 . S
H1930 C1922 0.930 . S
H1931 C1923 0.929 . S
H1932 C1940 0.929 . S
H1933 C1942 0.930 . S
H1934 C1944 0.930 . S
H1935 C1947 0.929 . S
H1936 C1950 0.930 . S
H1937 C1952 0.960 . S
H1938 C1952 0.960 . S
H1939 C1952 0.960 . S
C1940 H1932 0.929 . S
C1940 C1941 1.377 . S
C1940 C1942 1.384 . S
C1941 C1940 1.377 . S
C1941 C1947 1.390 . S
C1942 H1933 0.930 . S
C1942 C1940 1.384 . S
C1942 C1943 1.372 . S
C1943 C1942 1.372 . S
C1943 C1944 1.400 . S
C1943 C1948 1.490 . S
C1944 H1934 0.930 . S
C1944 C1943 1.400 . S
C1944 C1947 1.386 . S
H1945 C1961 0.930 . S
H1946 C1962 0.931 . S
C1947 H1935 0.929 . S
C1947 C1941 1.390 . S
C1947 C1944 1.386 . S
C1948 C1943 1.490 . S
C1948 C1950 1.395 . S
C1948 C1951 1.403 . S
H1949 C1955 0.930 . S
C1950 H1936 0.930 . S
C1950 C1948 1.395 . S
C1950 C1953 1.403 . S
C1951 C1948 1.403 . S
C1951 C1952 1.524 . S
C1951 C1955 1.400 . S
C1952 H1937 0.960 . S
C1952 H1938 0.960 . S
C1952 H1939 0.960 . S
C1952 C1951 1.524 . S
C1953 C1950 1.403 . S
C1953 C1954 1.392 . S
C1953 C1957 1.495 . S
C1954 C1953 1.392 . S
C1954 C1955 1.385 . S
C1954 C1956 1.478 . S
C1955 H1949 0.930 . S
C1955 C1951 1.400 . S
C1955 C1954 1.385 . S
C1956 C1954 1.478 . S
C1956 C1958 1.381 1_565 S
C1956 C1962 1.383 1_565 S
C1957 C1953 1.495 . S
C1957 H1963 0.959 . S
C1957 H1964 0.961 . S
C1957 H1965 0.960 . S
C1958 C1956 1.381 1_545 S
C1958 C1959 1.394 . S
C1958 H1966 0.930 1_545 S
C1959 C1958 1.394 . S
C1959 C1960 1.383 . S
C1959 H1967 0.929 . S
C1960 C1959 1.383 . S
C1960 C1961 1.377 . S
C1961 H1945 0.930 . S
C1961 C1960 1.377 . S
C1961 C1962 1.379 . S
C1962 H1946 0.931 . S
C1962 C1956 1.383 1_545 S
C1962 C1961 1.379 . S
H1963 C1957 0.959 . S
H1964 C1957 0.961 . S
H1965 C1957 0.960 . S
H1966 C1958 0.930 1_565 S
H1967 C1959 0.929 . S
H1968 C1976 0.929 . S
H1969 C1978 0.930 1_545 S
H1970 C1980 0.930 . S
H1971 C1983 0.929 . S
H1972 C1986 0.930 . S
H1973 C1988 0.960 . S
H1974 C1988 0.960 . S
H1975 C1988 0.960 . S
C1976 H1968 0.929 . S
C1976 C1977 1.377 . S
C1976 C1978 1.384 . S
C1977 C1976 1.377 . S
C1977 C1983 1.390 . S
C1978 H1969 0.930 1_565 S
C1978 C1976 1.384 . S
C1978 C1979 1.372 1_565 S
C1979 C1978 1.372 1_545 S
C1979 C1980 1.400 1_545 S
C1979 C1984 1.490 . S
C1980 H1970 0.930 . S
C1980 C1979 1.400 1_565 S
C1980 C1983 1.386 . S
H1981 C1997 0.930 . S
H1982 C1998 0.931 . S
C1983 H1971 0.929 . S
C1983 C1977 1.390 . S
C1983 C1980 1.386 . S
C1984 C1979 1.490 . S
C1984 C1986 1.395 . S
C1984 C1987 1.403 . S
H1985 C1991 0.930 . S
C1986 H1972 0.930 . S
C1986 C1984 1.395 . S
C1986 C1989 1.403 . S
C1987 C1984 1.403 . S
C1987 C1988 1.524 . S
C1987 C1991 1.400 . S
C1988 H1973 0.960 . S
C1988 H1974 0.960 . S
C1988 H1975 0.960 . S
C1988 C1987 1.524 . S
C1989 C1986 1.403 . S
C1989 C1990 1.392 . S
C1989 C1993 1.495 . S
C1990 C1989 1.392 . S
C1990 C1991 1.385 . S
C1990 C1992 1.478 . S
C1991 H1985 0.930 . S
C1991 C1987 1.400 . S
C1991 C1990 1.385 . S
C1992 C1990 1.478 . S
C1992 C1994 1.381 . S
C1992 C1998 1.383 . S
C1993 C1989 1.495 . S
C1993 H1999 0.959 . S
C1993 H2000 0.961 . S
C1993 H2001 0.960 . S
C1994 C1992 1.381 . S
C1994 C1995 1.394 . S
C1994 H2002 0.930 . S
C1995 C1994 1.394 . S
C1995 C1996 1.383 . S
C1995 H2003 0.929 . S
C1996 C1995 1.383 . S
C1996 C1997 1.377 . S
C1997 H1981 0.930 . S
C1997 C1996 1.377 . S
C1997 C1998 1.379 . S
C1998 H1982 0.931 . S
C1998 C1992 1.383 . S
C1998 C1997 1.379 . S
H1999 C1993 0.959 . S
H2000 C1993 0.961 . S
H2001 C1993 0.960 . S
H2002 C1994 0.930 . S
H2003 C1995 0.929 . S
H2004 C2012 0.929 . S
H2005 C2014 0.930 . S
H2006 C2016 0.930 . S
H2007 C2019 0.929 . S
H2008 C2022 0.930 . S
H2009 C2024 0.960 . S
H2010 C2024 0.960 . S
H2011 C2024 0.960 . S
C2012 H2004 0.929 . S
C2012 C2013 1.377 . S
C2012 C2014 1.384 . S
C2013 C2012 1.377 . S
C2013 C2019 1.390 . S
C2014 H2005 0.930 . S
C2014 C2012 1.384 . S
C2014 C2015 1.372 . S
C2015 C2014 1.372 . S
C2015 C2016 1.400 . S
C2015 C2020 1.490 . S
C2016 H2006 0.930 . S
C2016 C2015 1.400 . S
C2016 C2019 1.386 . S
H2017 C2033 0.930 . S
H2018 C2034 0.931 . S
C2019 H2007 0.929 . S
C2019 C2013 1.390 . S
C2019 C2016 1.386 . S
C2020 C2015 1.490 . S
C2020 C2022 1.395 . S
C2020 C2023 1.403 . S
H2021 C2027 0.930 . S
C2022 H2008 0.930 . S
C2022 C2020 1.395 . S
C2022 C2025 1.403 . S
C2023 C2020 1.403 . S
C2023 C2024 1.524 . S
C2023 C2027 1.400 . S
C2024 H2009 0.960 . S
C2024 H2010 0.960 . S
C2024 H2011 0.960 . S
C2024 C2023 1.524 . S
C2025 C2022 1.403 . S
C2025 C2026 1.392 . S
C2025 C2029 1.495 . S
C2026 C2025 1.392 . S
C2026 C2027 1.385 . S
C2026 C2028 1.478 . S
C2027 H2021 0.930 . S
C2027 C2023 1.400 . S
C2027 C2026 1.385 . S
C2028 C2026 1.478 . S
C2028 C2030 1.381 . S
C2028 C2034 1.383 . S
C2029 C2025 1.495 . S
C2029 H2035 0.959 . S
C2029 H2036 0.961 . S
C2029 H2037 0.960 . S
C2030 C2028 1.381 . S
C2030 C2031 1.394 . S
C2030 H2038 0.930 . S
C2031 C2030 1.394 . S
C2031 C2032 1.383 . S
C2031 H2039 0.929 . S
C2032 C2031 1.383 . S
C2032 C2033 1.377 . S
C2033 H2017 0.930 . S
C2033 C2032 1.377 . S
C2033 C2034 1.379 . S
C2034 H2018 0.931 . S
C2034 C2028 1.383 . S
C2034 C2033 1.379 . S
H2035 C2029 0.959 . S
H2036 C2029 0.961 . S
H2037 C2029 0.960 . S
H2038 C2030 0.930 . S
H2039 C2031 0.929 . S
C321 C109 0.707 . S
C340 C10 0.755 . S
C357 C23 0.723 . S
C376 C148 0.663 . S
C393 C36 0.715 . S
C412 C122 0.701 . S
C429 C49 0.718 . S
C448 C135 0.675 . S
C465 C57 0.696 . S
C484 C5 0.752 . S
C501 C18 0.710 . S
C520 C70 0.703 . S
C537 C83 0.719 . S
C556 C31 0.680 . S
C573 C44 0.696 . S
C592 C96 0.739 . S
C609 C62 0.662 . S
C628 C114 0.707 . S
C645 C88 0.663 . S
C664 C127 0.712 . S
C681 C140 0.668 . S
C700 C101 0.651 . S
C717 C75 0.670 . S
C736 C153 0.638 . S
C753 C265 0.710 . S
C772 C166 0.661 . S
C789 C179 0.681 . S
C808 C304 0.676 . S
C825 C192 0.687 . S
C844 C278 0.629 . S
C861 C291 0.717 . S
C880 C205 0.688 . S
C897 C218 0.682 . S
C916 C161 0.656 . S
C933 C174 0.703 . S
C952 C231 0.649 . S
C969 C187 0.694 . S
C988 C244 0.636 . S
C1005 C257 0.668 . S
C1024 C200 0.665 . S
C1041 C270 0.753 . S
C1060 C213 0.805 . S
C1077 C239 0.743 . S
C1096 C283 0.736 . S
C1113 C252 0.743 . S
C1132 C296 0.765 . S
C1149 C309 0.764 . S
C1168 C226 0.727 . S
C1185 C286 1.288 . S
C1204 C8 1.284 . S
C1221 C273 1.285 . S
C1240 C21 1.272 . S
C1257 C299 1.281 . S
C1276 C34 1.217 . S
C1293 C47 1.256 . S
C1312 C260 1.300 . S
C1329 C52 1.226 . S
C1348 C169 1.244 . S
C1365 C156 1.251 . S
C1384 C65 1.202 . S
C1401 C195 1.252 . S
C1420 C78 1.207 . S
C1437 C182 1.250 . S
C1456 C91 1.198 . S
C1473 C112 1.212 . S
C1492 C234 1.245 . S
C1509 C208 1.227 . S
C1528 C125 1.197 . S
C1545 C221 1.227 . S
C1564 C138 1.233 . S
C1581 C247 1.227 . S
C1600 C151 1.197 . S
C1617 C130 1.186 . S
C1636 C164 1.138 . S
C1653 C117 1.177 . S
C1672 C177 1.179 . S
C1689 C190 1.165 . S
C1708 C143 1.168 . S
C1725 C104 1.186 . S
C1744 C203 1.129 . S
C1761 C216 1.207 . S
C1780 C13 1.196 . S
C1797 C229 1.206 . S
C1816 C0 1.219 . S
C1833 C242 1.199 . S
C1852 C39 1.229 . S
C1869 C255 1.198 . S
C1888 C26 1.242 . S
C1905 C268 1.207 . S
C1924 C86 1.251 . S
C1941 C281 1.216 . S
C1960 C60 1.216 . S
C1977 C73 1.240 . S
C1996 C294 1.179 . S
C2013 C307 1.216 . S
C2032 C99 1.208 . S
