# Generated by pormake.
# Topology sni, (6)-cn, num edge types: 1
# Building blocks:
#     Node 0, Type 0, BuildingBlock: MIDCAF_clean_sbu_0, # of connection points: 6
#     Node 1, Type 0, BuildingBlock: MIDCAF_clean_sbu_0, # of connection points: 6
#     Node 2, Type 0, BuildingBlock: MIDCAF_clean_sbu_0, # of connection points: 6
#     Node 3, Type 0, BuildingBlock: MIDCAF_clean_sbu_0, # of connection points: 6
#     Node 4, Type 0, BuildingBlock: MIDCAF_clean_sbu_0, # of connection points: 6
#     Node 5, Type 0, BuildingBlock: MIDCAF_clean_sbu_0, # of connection points: 6
#     Node 6, Type 0, BuildingBlock: MIDCAF_clean_sbu_0, # of connection points: 6
#     Node 7, Type 0, BuildingBlock: MIDCAF_clean_sbu_0, # of connection points: 6
#     Edge 8, Type (0, 0), BuildingBlock: ZUJKAS_clean_linker_0, # of connection points: 2
#     Edge 9, Type (0, 0), BuildingBlock: ZUJKAS_clean_linker_0, # of connection points: 2
#     Edge 10, Type (0, 0), BuildingBlock: ZUJKAS_clean_linker_0, # of connection points: 2
#     Edge 11, Type (0, 0), BuildingBlock: ZUJKAS_clean_linker_0, # of connection points: 2
#     Edge 12, Type (0, 0), BuildingBlock: ZUJKAS_clean_linker_0, # of connection points: 2
#     Edge 13, Type (0, 0), BuildingBlock: ZUJKAS_clean_linker_0, # of connection points: 2
#     Edge 14, Type (0, 0), BuildingBlock: ZUJKAS_clean_linker_0, # of connection points: 2
#     Edge 15, Type (0, 0), BuildingBlock: ZUJKAS_clean_linker_0, # of connection points: 2
#     Edge 16, Type (0, 0), BuildingBlock: ZUJKAS_clean_linker_0, # of connection points: 2
#     Edge 17, Type (0, 0), BuildingBlock: ZUJKAS_clean_linker_0, # of connection points: 2
#     Edge 18, Type (0, 0), BuildingBlock: ZUJKAS_clean_linker_0, # of connection points: 2
#     Edge 19, Type (0, 0), BuildingBlock: ZUJKAS_clean_linker_0, # of connection points: 2
#     Edge 20, Type (0, 0), BuildingBlock: ZUJKAS_clean_linker_0, # of connection points: 2
#     Edge 21, Type (0, 0), BuildingBlock: ZUJKAS_clean_linker_0, # of connection points: 2
#     Edge 22, Type (0, 0), BuildingBlock: ZUJKAS_clean_linker_0, # of connection points: 2
#     Edge 23, Type (0, 0), BuildingBlock: ZUJKAS_clean_linker_0, # of connection points: 2
#     Edge 24, Type (0, 0), BuildingBlock: ZUJKAS_clean_linker_0, # of connection points: 2
#     Edge 25, Type (0, 0), BuildingBlock: ZUJKAS_clean_linker_0, # of connection points: 2
#     Edge 26, Type (0, 0), BuildingBlock: ZUJKAS_clean_linker_0, # of connection points: 2
#     Edge 27, Type (0, 0), BuildingBlock: ZUJKAS_clean_linker_0, # of connection points: 2
#     Edge 28, Type (0, 0), BuildingBlock: ZUJKAS_clean_linker_0, # of connection points: 2
#     Edge 29, Type (0, 0), BuildingBlock: ZUJKAS_clean_linker_0, # of connection points: 2
#     Edge 30, Type (0, 0), BuildingBlock: ZUJKAS_clean_linker_0, # of connection points: 2
#     Edge 31, Type (0, 0), BuildingBlock: ZUJKAS_clean_linker_0, # of connection points: 2
# Relax obj value: 0.344
# Max RMSD: 0.256
# Mean RMSD: 0.256
data_MOF--net-sni--node1-MIDCAF_clean_sbu_0--edge1-ZUJKAS_clean_linker_0
_symmetry_space_group_name_H-M    P1
_symmetry_Int_Tables_number       1
_symmetry_cell_setting            triclinic
loop_
_symmetry_equiv_pos_as_xyz
'x, y, z'
_cell_length_a     54.085428
_cell_length_b     54.183404
_cell_length_c     22.639797
_cell_angle_alpha  89.926429
_cell_angle_beta   89.696502
_cell_angle_gamma 89.68639
loop_
_atom_site_label
_atom_site_type_symbol
_atom_site_fract_x
_atom_site_fract_y
_atom_site_fract_z
_atom_type_partial_charge
Zn0 Zn 0.63746 0.143 0.87915 0.0
Zn1 Zn 0.63573 0.13611 0.08898 0.0
Zn2 Zn 0.6346 0.13646 0.98701 0.0
C3 C 0.63155 0.08805 0.0531 0.0
C4 C 0.59331 0.15838 0.07199 0.0
O5 O 0.6595 0.1681 0.96838 0.0
O6 O 0.6542 0.17446 0.8727 0.0
C7 C 0.65613 0.09632 0.89492 0.0
O8 O 0.64144 0.09771 0.00692 0.0
O9 O 0.62392 0.1017 0.09447 0.0
O10 O 0.61108 0.16201 0.10662 0.0
O11 O 0.59722 0.14619 0.02384 0.0
O12 O 0.65628 0.11325 0.85665 0.0
O13 O 0.6471 0.10065 0.94676 0.0
O14 O 0.59606 0.14408 0.96096 0.0
O15 O 0.60169 0.1438 0.86421 0.0
C16 C 0.58737 0.14512 0.90825 0.0
O17 O 0.66484 0.16032 0.02432 0.0
O18 O 0.6698 0.14362 0.1124 0.0
C19 C 0.66332 0.1809 0.92124 0.0
C20 C 0.67711 0.15829 0.07288 0.0
Zn21 Zn 0.85281 0.63031 0.90328 0.0
Zn22 Zn 0.84899 0.63129 0.10437 0.0
Zn23 Zn 0.85066 0.63005 0.00258 0.0
C24 C 0.89772 0.63123 0.08132 0.0
C25 C 0.82644 0.58866 0.0818 0.0
O26 O 0.81987 0.6535 0.97176 0.0
O27 O 0.81685 0.63292 0.88854 0.0
C28 C 0.89169 0.65618 0.92372 0.0
O29 O 0.88865 0.63763 0.03118 0.0
O30 O 0.88373 0.62358 0.12201 0.0
O31 O 0.82386 0.60555 0.11964 0.0
O32 O 0.83886 0.59302 0.03429 0.0
O33 O 0.8744 0.65926 0.88728 0.0
O34 O 0.88786 0.6427 0.96989 0.0
O35 O 0.84442 0.59168 0.97252 0.0
O36 O 0.86766 0.59696 0.89355 0.0
C37 C 0.85635 0.58261 0.92815 0.0
O38 O 0.82466 0.66092 0.02902 0.0
O39 O 0.83984 0.66576 0.11814 0.0
C40 C 0.80752 0.64775 0.92534 0.0
C41 C 0.82637 0.67364 0.07697 0.0
Zn42 Zn 0.33082 0.84694 0.15965 0.0
Zn43 Zn 0.3364 0.8347 0.90421 0.0
Zn44 Zn 0.33136 0.84836 0.00908 0.0
C45 C 0.38283 0.83143 0.94461 0.0
C46 C 0.32014 0.88398 0.89836 0.0
O47 O 0.30103 0.82584 0.05383 0.0
O48 O 0.30303 0.82438 0.15287 0.0
C49 C 0.37634 0.83175 0.10342 0.0
O50 O 0.37078 0.83864 0.9908 0.0
O51 O 0.37167 0.82752 0.89694 0.0
O52 O 0.32468 0.86526 0.86694 0.0
O53 O 0.32212 0.88238 0.95514 0.0
O54 O 0.36369 0.83196 0.15066 0.0
O55 O 0.3673 0.83854 0.05297 0.0
O56 O 0.32393 0.88768 0.01637 0.0
O57 O 0.32706 0.8746 0.10592 0.0
C58 C 0.32465 0.89248 0.0714 0.0
O59 O 0.30411 0.81887 0.993 0.0
O60 O 0.31419 0.80683 0.90271 0.0
C61 C 0.29278 0.81847 0.10487 0.0
C62 C 0.30113 0.80448 0.94849 0.0
Zn63 Zn 0.14285 0.34293 0.1122 0.0
Zn64 Zn 0.13406 0.33036 0.90468 0.0
Zn65 Zn 0.13609 0.33968 0.01001 0.0
C66 C 0.14262 0.38109 0.91358 0.0
C67 C 0.0882 0.31918 0.94163 0.0
O68 O 0.16008 0.30799 0.04201 0.0
O69 O 0.15118 0.30919 0.13694 0.0
C70 C 0.16308 0.38439 0.07468 0.0
O71 O 0.14447 0.37574 0.96878 0.0
O72 O 0.13707 0.3646 0.87678 0.0
O73 O 0.10205 0.31462 0.89816 0.0
O74 O 0.09692 0.32998 0.98774 0.0
O75 O 0.16859 0.36878 0.11395 0.0
O76 O 0.14894 0.37784 0.03179 0.0
O77 O 0.09873 0.33586 0.04916 0.0
O78 O 0.10884 0.3533 0.13329 0.0
C79 C 0.09234 0.34519 0.09935 0.0
O80 O 0.16583 0.31221 0.98332 0.0
O81 O 0.16199 0.30964 0.88628 0.0
C82 C 0.16058 0.29789 0.09372 0.0
C83 C 0.17333 0.30397 0.93266 0.0
Zn84 Zn 0.63797 0.85038 0.67493 0.0
Zn85 Zn 0.63886 0.82931 0.32309 0.0
Zn86 Zn 0.63095 0.83731 0.4995 0.0
C87 C 0.64485 0.8782 0.38667 0.0
C88 C 0.59715 0.82025 0.41773 0.0
O89 O 0.65781 0.81591 0.55729 0.0
O90 O 0.6632 0.82385 0.65564 0.0
C91 C 0.64205 0.87928 0.5587 0.0
O92 O 0.63971 0.86927 0.43865 0.0
O93 O 0.64573 0.8654 0.33901 0.0
O94 O 0.61881 0.8236 0.39803 0.0
O95 O 0.59469 0.82296 0.4733 0.0
O96 O 0.63591 0.86099 0.58992 0.0
O97 O 0.63964 0.87648 0.50337 0.0
O98 O 0.59347 0.83029 0.53265 0.0
O99 O 0.61641 0.84167 0.60454 0.0
C100 C 0.59531 0.83472 0.58765 0.0
O101 O 0.66122 0.81061 0.49157 0.0
O102 O 0.64512 0.81882 0.40751 0.0
C103 C 0.66834 0.81196 0.60806 0.0
C104 C 0.66302 0.80956 0.43566 0.0
Zn105 Zn 0.16537 0.6446 0.43797 0.0
Zn106 Zn 0.141 0.63239 0.621 0.0
Zn107 Zn 0.14423 0.63766 0.52064 0.0
C108 C 0.12128 0.58946 0.56695 0.0
C109 C 0.10882 0.6709 0.59523 0.0
O110 O 0.13597 0.67497 0.4868 0.0
O111 O 0.17588 0.67741 0.47048 0.0
C112 C 0.16797 0.59579 0.44229 0.0
O113 O 0.12837 0.6002 0.51891 0.0
O114 O 0.12411 0.60009 0.61606 0.0
O115 O 0.11976 0.66148 0.63902 0.0
O116 O 0.11511 0.66433 0.54285 0.0
O117 O 0.18435 0.61214 0.43408 0.0
O118 O 0.14797 0.60198 0.47033 0.0
O119 O 0.12331 0.61525 0.45878 0.0
O120 O 0.13156 0.64496 0.39583 0.0
C121 C 0.11703 0.62821 0.41342 0.0
O122 O 0.18187 0.64204 0.54946 0.0
O123 O 0.17643 0.63294 0.6429 0.0
C124 C 0.15505 0.68813 0.47445 0.0
C125 C 0.19065 0.6391 0.60109 0.0
Zn126 Zn 0.33468 0.16126 0.42487 0.0
Zn127 Zn 0.33935 0.13541 0.60798 0.0
Zn128 Zn 0.33698 0.13769 0.50777 0.0
C129 C 0.3824 0.11211 0.56347 0.0
C130 C 0.30093 0.10512 0.5819 0.0
O131 O 0.30261 0.12905 0.46293 0.0
O132 O 0.29969 0.16908 0.45105 0.0
C133 C 0.38264 0.1622 0.44927 0.0
O134 O 0.37419 0.12092 0.51431 0.0
O135 O 0.36955 0.11435 0.60992 0.0
O136 O 0.30756 0.11843 0.62471 0.0
O137 O 0.31057 0.1089 0.5309 0.0
O138 O 0.36697 0.17932 0.44037 0.0
O139 O 0.37485 0.14141 0.4702 0.0
O140 O 0.36147 0.11751 0.44771 0.0
O141 O 0.33864 0.13017 0.37345 0.0
C142 C 0.35323 0.11419 0.39495 0.0
O143 O 0.33215 0.17557 0.53588 0.0
O144 O 0.34294 0.17091 0.62821 0.0
C145 C 0.28949 0.14808 0.44991 0.0
C146 C 0.33668 0.18491 0.58622 0.0
Zn147 Zn 0.84427 0.33815 0.60719 0.0
Zn148 Zn 0.81143 0.33449 0.43223 0.0
Zn149 Zn 0.8415 0.33357 0.50623 0.0
C150 C 0.8575 0.35097 0.3879 0.0
C151 C 0.81258 0.38111 0.45629 0.0
O152 O 0.805 0.32826 0.5448 0.0
O153 O 0.80987 0.34557 0.63108 0.0
C154 C 0.87704 0.30523 0.59285 0.0
O155 O 0.85716 0.35864 0.44169 0.0
O156 O 0.83986 0.33751 0.37071 0.0
O157 O 0.79427 0.36676 0.45108 0.0
O158 O 0.83362 0.37197 0.47291 0.0
O159 O 0.85941 0.30558 0.62959 0.0
O160 O 0.87454 0.31718 0.54465 0.0
O161 O 0.85553 0.37186 0.50894 0.0
O162 O 0.86708 0.36695 0.60168 0.0
C163 C 0.8663 0.3802 0.55574 0.0
O164 O 0.84123 0.30109 0.44895 0.0
O165 O 0.80074 0.29972 0.45083 0.0
C166 C 0.79581 0.33606 0.5933 0.0
C167 C 0.82121 0.28917 0.43976 0.0
H168 H 0.40503 0.20323 0.40386 0.0
H169 H 0.44096 0.20425 0.3378 0.0
H170 H 0.45156 0.12599 0.36169 0.0
H171 H 0.41549 0.12464 0.42715 0.0
H172 H 0.49679 0.15727 0.36117 0.0
H173 H 0.43465 0.17119 0.16887 0.0
H174 H 0.43007 0.19186 0.23016 0.0
H175 H 0.42378 0.15957 0.23913 0.0
C176 C 0.41529 0.1863 0.3961 0.0
C177 C 0.40732 0.16385 0.42079 0.0
C178 C 0.43572 0.18692 0.35807 0.0
C179 C 0.44857 0.16513 0.34416 0.0
C180 C 0.44175 0.14298 0.37171 0.0
H181 H 0.55048 0.13272 0.0545 0.0
H182 H 0.51354 0.13506 0.11805 0.0
C183 C 0.42122 0.1423 0.40947 0.0
C184 C 0.46817 0.16519 0.29827 0.0
H185 H 0.4777 0.17283 0.14999 0.0
C186 C 0.49267 0.16067 0.31502 0.0
C187 C 0.46258 0.1692 0.238 0.0
C188 C 0.43634 0.17304 0.21755 0.0
C189 C 0.5119 0.16061 0.2731 0.0
C190 C 0.50643 0.16547 0.21301 0.0
C191 C 0.48183 0.16939 0.1961 0.0
C192 C 0.5262 0.16668 0.16755 0.0
C193 C 0.53789 0.15511 0.29342 0.0
C194 C 0.54463 0.18464 0.17186 0.0
C195 C 0.56551 0.18342 0.13564 0.0
C196 C 0.56828 0.1643 0.09412 0.0
C197 C 0.5487 0.14777 0.08571 0.0
C198 C 0.52775 0.14894 0.1224 0.0
H199 H 0.53807 0.14575 0.33712 0.0
H200 H 0.54785 0.14328 0.26098 0.0
H201 H 0.54817 0.17268 0.29767 0.0
H202 H 0.54349 0.19882 0.20549 0.0
H203 H 0.58032 0.19645 0.14293 0.0
H204 H 0.85007 0.54487 0.05955 0.0
H205 H 0.8444 0.5067 0.11688 0.0
H206 H 0.78027 0.53846 0.20196 0.0
H207 H 0.78591 0.57651 0.14561 0.0
H208 H 0.83119 0.52373 0.27068 0.0
H209 H 0.78119 0.45221 0.14186 0.0
H210 H 0.80306 0.47246 0.10591 0.0
H211 H 0.77425 0.48464 0.13245 0.0
C212 C 0.83414 0.54324 0.08849 0.0
C213 C 0.81852 0.56363 0.09862 0.0
C214 C 0.83101 0.52153 0.12142 0.0
C215 C 0.81202 0.51997 0.16379 0.0
C216 C 0.795 0.53938 0.16942 0.0
H217 H 0.77192 0.40678 0.41773 0.0
H218 H 0.77168 0.44203 0.34994 0.0
C219 C 0.79822 0.56105 0.13709 0.0
C220 C 0.81226 0.50035 0.20913 0.0
H221 H 0.79247 0.44206 0.23954 0.0
C222 C 0.82284 0.5058 0.26398 0.0
C223 C 0.80105 0.47726 0.20012 0.0
C224 C 0.78916 0.47106 0.14201 0.0
C225 C 0.82245 0.48869 0.31052 0.0
C226 C 0.81149 0.46535 0.30151 0.0
C227 C 0.80083 0.45997 0.24646 0.0
C228 C 0.81146 0.446 0.34798 0.0
C229 C 0.8333 0.49602 0.36918 0.0
C230 C 0.83384 0.43699 0.3707 0.0
C231 C 0.83402 0.41713 0.41002 0.0
C232 C 0.81181 0.40556 0.42681 0.0
C233 C 0.78933 0.41532 0.40599 0.0
C234 C 0.78917 0.43533 0.36687 0.0
H235 H 0.83383 0.5164 0.37431 0.0
H236 H 0.82259 0.48811 0.40659 0.0
H237 H 0.85258 0.48903 0.37184 0.0
H238 H 0.85131 0.44458 0.35597 0.0
H239 H 0.85173 0.40998 0.4244 0.0
H240 H 0.59508 0.83112 0.30066 0.0
H241 H 0.5596 0.8278 0.23525 0.0
H242 H 0.51649 0.79679 0.37778 0.0
H243 H 0.55182 0.8011 0.44444 0.0
H244 H 0.53094 0.79076 0.19592 0.0
H245 H 0.47513 0.85546 0.33303 0.0
H246 H 0.50764 0.85032 0.3456 0.0
H247 H 0.48519 0.82858 0.37263 0.0
C248 C 0.5781 0.82345 0.31807 0.0
C249 C 0.57607 0.81661 0.37781 0.0
C250 C 0.55785 0.82151 0.28052 0.0
C251 C 0.53527 0.81249 0.30187 0.0
C252 C 0.53357 0.80444 0.36082 0.0
H253 H 0.39224 0.79091 0.15919 0.0
H254 H 0.43407 0.78327 0.19531 0.0
C255 C 0.55373 0.80682 0.39878 0.0
C256 C 0.51326 0.81293 0.26322 0.0
H257 H 0.45477 0.83639 0.25307 0.0
C258 C 0.5143 0.80078 0.20832 0.0
C259 C 0.4917 0.82636 0.27907 0.0
C260 C 0.48986 0.84112 0.33549 0.0
C261 C 0.49409 0.80131 0.16955 0.0
C262 C 0.47252 0.81423 0.18632 0.0
C263 C 0.47151 0.82651 0.24067 0.0
C264 C 0.45003 0.81454 0.15003 0.0
C265 C 0.49561 0.78805 0.11118 0.0
C266 C 0.44555 0.8341 0.11069 0.0
C267 C 0.4216 0.83848 0.08978 0.0
C268 C 0.40208 0.82339 0.10858 0.0
C269 C 0.40711 0.80266 0.14389 0.0
C270 C 0.43094 0.79824 0.16441 0.0
H271 H 0.51391 0.77911 0.10403 0.0
H272 H 0.48101 0.77375 0.10921 0.0
H273 H 0.49211 0.80131 0.07468 0.0
H274 H 0.4601 0.84704 0.09996 0.0
H275 H 0.41798 0.85483 0.0636 0.0
H276 H 0.20378 0.40248 0.12853 0.0
H277 H 0.20588 0.44144 0.18247 0.0
H278 H 0.13593 0.46381 0.1088 0.0
H279 H 0.13384 0.42479 0.05396 0.0
H280 H 0.17379 0.50396 0.13015 0.0
H281 H 0.154 0.44349 0.32297 0.0
H282 H 0.18003 0.43424 0.27835 0.0
H283 H 0.14948 0.4336 0.24768 0.0
C284 C 0.18935 0.41614 0.12182 0.0
C285 C 0.16857 0.41054 0.08737 0.0
C286 C 0.19048 0.4383 0.15305 0.0
C287 C 0.17077 0.45518 0.15076 0.0
C288 C 0.15126 0.45091 0.11141 0.0
H289 H 0.13156 0.56134 0.42649 0.0
H290 H 0.13158 0.52725 0.35559 0.0
C291 C 0.1502 0.42871 0.07964 0.0
C292 C 0.16916 0.47531 0.19505 0.0
H293 H 0.16315 0.48527 0.34356 0.0
C294 C 0.1714 0.49994 0.17677 0.0
C295 C 0.16558 0.47001 0.25577 0.0
C296 C 0.16191 0.44394 0.27758 0.0
C297 C 0.17093 0.51936 0.218 0.0
C298 C 0.1684 0.51394 0.27899 0.0
C299 C 0.16538 0.48937 0.29693 0.0
C300 C 0.16898 0.53351 0.32487 0.0
C301 C 0.17293 0.54557 0.196 0.0
C302 C 0.19033 0.54765 0.33297 0.0
C303 C 0.1905 0.56695 0.37394 0.0
C304 C 0.16928 0.57251 0.40777 0.0
C305 C 0.14828 0.55751 0.40158 0.0
C306 C 0.14819 0.53812 0.36069 0.0
H307 H 0.16868 0.54701 0.14816 0.0
H308 H 0.1602 0.55796 0.22086 0.0
H309 H 0.19209 0.55218 0.20275 0.0
H310 H 0.20678 0.54404 0.30678 0.0
H311 H 0.207 0.57806 0.37754 0.0
H312 H 0.54603 0.84026 0.56525 0.0
H313 H 0.51227 0.84107 0.63807 0.0
H314 H 0.56429 0.82402 0.77648 0.0
H315 H 0.59805 0.82471 0.70459 0.0
H316 H 0.4933 0.80889 0.70636 0.0
H317 H 0.53112 0.88134 0.85057 0.0
H318 H 0.54455 0.87409 0.77963 0.0
H319 H 0.55256 0.85618 0.84401 0.0
C320 C 0.55014 0.83668 0.61128 0.0
C321 C 0.57457 0.83264 0.62958 0.0
C322 C 0.53092 0.83723 0.65288 0.0
C323 C 0.53581 0.83333 0.7132 0.0
C324 C 0.56013 0.82811 0.73077 0.0
H325 H 0.41379 0.79184 0.94195 0.0
H326 H 0.45493 0.79206 0.89588 0.0
C327 C 0.57937 0.82818 0.68954 0.0
C328 C 0.51542 0.83385 0.75746 0.0
H329 H 0.49837 0.85705 0.8921 0.0
C330 C 0.49439 0.81954 0.74679 0.0
C331 C 0.51652 0.84819 0.80973 0.0
C332 C 0.53728 0.86603 0.8213 0.0
C333 C 0.47464 0.81885 0.78705 0.0
C334 C 0.47651 0.83176 0.8413 0.0
C335 C 0.49731 0.84648 0.85154 0.0
C336 C 0.45602 0.83177 0.8852 0.0
C337 C 0.4516 0.80505 0.76969 0.0
C338 C 0.44447 0.85412 0.90083 0.0
C339 C 0.42153 0.85399 0.92943 0.0
C340 C 0.40985 0.83155 0.94218 0.0
C341 C 0.42265 0.80933 0.93289 0.0
C342 C 0.44589 0.80947 0.90562 0.0
H343 H 0.45051 0.80246 0.72109 0.0
H344 H 0.45185 0.78648 0.79038 0.0
H345 H 0.43465 0.81496 0.78454 0.0
H346 H 0.45205 0.87157 0.88623 0.0
H347 H 0.41174 0.87132 0.93554 0.0
H348 H 0.17324 0.39454 0.82592 0.0
H349 H 0.16813 0.43057 0.7621 0.0
H350 H 0.11191 0.45913 0.87964 0.0
H351 H 0.11716 0.42289 0.94414 0.0
H352 H 0.11988 0.43842 0.71033 0.0
H353 H 0.15462 0.52057 0.83127 0.0
H354 H 0.16518 0.4896 0.84743 0.0
H355 H 0.13516 0.49959 0.87183 0.0
C356 C 0.16061 0.40908 0.83954 0.0
C357 C 0.14581 0.40619 0.8902 0.0
C358 C 0.15751 0.42949 0.80273 0.0
C359 C 0.13953 0.44738 0.81587 0.0
C360 C 0.12605 0.4456 0.86901 0.0
H361 H 0.08083 0.56954 0.61757 0.0
H362 H 0.08224 0.53058 0.67205 0.0
C363 C 0.12923 0.42508 0.90618 0.0
C364 C 0.13314 0.46609 0.77056 0.0
H365 H 0.13502 0.5277 0.73979 0.0
C366 C 0.12317 0.45796 0.71672 0.0
C367 C 0.13746 0.4915 0.77911 0.0
C368 C 0.14884 0.50099 0.83529 0.0
C369 C 0.11743 0.47465 0.6712 0.0
C370 C 0.12183 0.49998 0.67977 0.0
C371 C 0.13161 0.50817 0.73365 0.0
C372 C 0.11686 0.51857 0.63338 0.0
C373 C 0.10662 0.46533 0.61428 0.0
C374 C 0.13495 0.52374 0.59052 0.0
C375 C 0.13402 0.54592 0.55876 0.0
C376 C 0.11508 0.56315 0.57009 0.0
C377 C 0.09536 0.55636 0.60727 0.0
C378 C 0.09633 0.53427 0.63905 0.0
H379 H 0.10301 0.44517 0.61562 0.0
H380 H 0.08903 0.47523 0.60491 0.0
H381 H 0.11957 0.46928 0.57728 0.0
H382 H 0.15102 0.51186 0.58592 0.0
H383 H 0.14982 0.55099 0.53189 0.0
H384 H 0.4213 0.14072 0.53458 0.0
H385 H 0.45855 0.14319 0.59413 0.0
H386 H 0.43845 0.07572 0.68291 0.0
H387 H 0.40149 0.07289 0.62195 0.0
H388 H 0.44776 0.14871 0.71423 0.0
H389 H 0.51408 0.07137 0.68008 0.0
H390 H 0.49186 0.08051 0.62478 0.0
H391 H 0.48231 0.06225 0.68706 0.0
C392 C 0.42583 0.12533 0.56306 0.0
C393 C 0.40868 0.10637 0.57279 0.0
C394 C 0.44689 0.12707 0.59828 0.0
C395 C 0.45117 0.10977 0.64337 0.0
C396 C 0.43573 0.08913 0.64799 0.0
H397 H 0.55282 0.11155 0.94156 0.0
H398 H 0.51473 0.10345 0.88627 0.0
C399 C 0.41468 0.08739 0.6127 0.0
C400 C 0.46835 0.11578 0.69206 0.0
H401 H 0.5192 0.09548 0.7666 0.0
C402 C 0.46347 0.13712 0.72549 0.0
C403 C 0.48842 0.10036 0.70761 0.0
C404 C 0.49467 0.07743 0.67279 0.0
C405 C 0.47829 0.14361 0.77364 0.0
C406 C 0.49877 0.12856 0.78828 0.0
C407 C 0.50333 0.1069 0.75571 0.0
C408 C 0.51743 0.13632 0.83219 0.0
C409 C 0.47178 0.16649 0.80849 0.0
C410 C 0.53074 0.1581 0.82233 0.0
C411 C 0.55224 0.16275 0.854 0.0
C412 C 0.56079 0.14573 0.89602 0.0
C413 C 0.54623 0.12519 0.91025 0.0
C414 C 0.52471 0.1204 0.87812 0.0
H415 H 0.45169 0.17073 0.80588 0.0
H416 H 0.47696 0.1645 0.85566 0.0
H417 H 0.48191 0.18246 0.78969 0.0
H418 H 0.52582 0.17043 0.78653 0.0
H419 H 0.56347 0.17846 0.8416 0.0
H420 H 0.89441 0.55218 0.90296 0.0
H421 H 0.89233 0.51585 0.83925 0.0
H422 H 0.81271 0.51963 0.84356 0.0
H423 H 0.81475 0.5559 0.90877 0.0
H424 H 0.85475 0.46611 0.84315 0.0
H425 H 0.84797 0.53716 0.66532 0.0
H426 H 0.86395 0.54407 0.73307 0.0
H427 H 0.83106 0.54048 0.73386 0.0
C428 C 0.87648 0.54448 0.89275 0.0
C429 C 0.85475 0.55659 0.91092 0.0
C430 C 0.87531 0.5239 0.85605 0.0
C431 C 0.8524 0.51536 0.83633 0.0
C432 C 0.83055 0.52602 0.85857 0.0
H433 H 0.8327 0.41659 0.53773 0.0
H434 H 0.82866 0.4525 0.60158 0.0
C435 C 0.83172 0.54651 0.89621 0.0
C436 C 0.85193 0.49783 0.78645 0.0
H437 H 0.8557 0.49617 0.63573 0.0
C438 C 0.85465 0.47258 0.79778 0.0
C439 C 0.85164 0.50643 0.72743 0.0
C440 C 0.84847 0.5335 0.7136 0.0
C441 C 0.85782 0.45567 0.75136 0.0
C442 C 0.85909 0.46445 0.69237 0.0
C443 C 0.85523 0.4896 0.68099 0.0
C444 C 0.86437 0.44752 0.64242 0.0
C445 C 0.8598 0.42854 0.76584 0.0
C446 C 0.88672 0.43426 0.64028 0.0
C447 C 0.88933 0.41403 0.60244 0.0
C448 C 0.86961 0.40677 0.56631 0.0
C449 C 0.84859 0.42211 0.56306 0.0
C450 C 0.84599 0.44238 0.60086 0.0
H451 H 0.85208 0.42435 0.81029 0.0
H452 H 0.84996 0.41723 0.73261 0.0
H453 H 0.87957 0.42294 0.76549 0.0
H454 H 0.90133 0.43826 0.67133 0.0
H455 H 0.90554 0.40233 0.60668 0.0
H456 H 0.90604 0.70185 0.88822 0.0
H457 H 0.94367 0.71185 0.83263 0.0
H458 H 0.96942 0.63686 0.85446 0.0
H459 H 0.93269 0.62751 0.91395 0.0
H460 H 0.00682 0.66487 0.85447 0.0
H461 H 0.94988 0.69449 0.6644 0.0
H462 H 0.94461 0.71352 0.72789 0.0
H463 H 0.93648 0.6813 0.73014 0.0
C464 C 0.92023 0.68782 0.88283 0.0
C465 C 0.91665 0.66399 0.90559 0.0
C466 C 0.94147 0.69337 0.84996 0.0
C467 C 0.95896 0.67485 0.83687 0.0
C468 C 0.95614 0.65146 0.86317 0.0
H469 H 0.06367 0.66071 0.54989 0.0
H470 H 0.0251 0.66561 0.60594 0.0
C471 C 0.93526 0.64614 0.89768 0.0
C472 C 0.97969 0.67944 0.79439 0.0
H473 H -0.00678 0.70032 0.65498 0.0
C474 C 0.00376 0.67266 0.81096 0.0
C475 C 0.97578 0.68909 0.73673 0.0
C476 C 0.95026 0.69475 0.71346 0.0
C477 C 0.0239 0.67528 0.77207 0.0
C478 C 0.02018 0.68606 0.71568 0.0
C479 C -0.00385 0.69267 0.6987 0.0
C480 C 0.041 0.68905 0.67298 0.0
C481 C 0.04884 0.66551 0.79107 0.0
C482 C 0.0621 0.7024 0.68896 0.0
C483 C 0.08413 0.69954 0.65709 0.0
C484 C 0.08528 0.68369 0.60806 0.0
C485 C 0.06326 0.67331 0.58703 0.0
C486 C 0.04125 0.67584 0.61956 0.0
H487 H 0.04719 0.65214 0.82813 0.0
H488 H 0.05856 0.65623 0.75382 0.0
H489 H 0.06041 0.68108 0.80626 0.0
H490 H 0.06214 0.71328 0.72906 0.0
H491 H 0.10087 0.70763 0.67444 0.0
H492 H 0.30529 0.06055 0.52607 0.0
H493 H 0.30007 0.02058 0.57487 0.0
H494 H 0.26568 0.05677 0.72392 0.0
H495 H 0.27018 0.09644 0.67482 0.0
H496 H 0.32582 0.01355 0.6739 0.0
H497 H 0.22777 -0.00643 0.72382 0.0
H498 H 0.2369 0.01611 0.66919 0.0
H499 H 0.23618 0.02408 0.74639 0.0
C500 C 0.29531 0.05983 0.56764 0.0
C501 C 0.28837 0.0817 0.59684 0.0
C502 C 0.2926 0.03697 0.59593 0.0
C503 C 0.28267 0.0356 0.65344 0.0
C504 C 0.27309 0.05713 0.67941 0.0
H505 H 0.30413 0.92904 0.94402 0.0
H506 H 0.29432 0.96682 0.88744 0.0
C507 C 0.2757 0.07992 0.65115 0.0
C508 C 0.28652 0.01309 0.69021 0.0
H509 H 0.25791 0.97238 0.78356 0.0
C510 C 0.31087 0.00443 0.69728 0.0
C511 C 0.26715 0.00138 0.72172 0.0
C512 C 0.24052 0.00913 0.71447 0.0
C513 C 0.3164 0.98465 0.73509 0.0
C514 C 0.29708 0.97301 0.76667 0.0
C515 C 0.27273 0.9816 0.75996 0.0
C516 C 0.30181 0.9504 0.80204 0.0
C517 C 0.34297 0.97639 0.74123 0.0
C518 C 0.3089 0.92879 0.77277 0.0
C519 C 0.31464 0.90755 0.80459 0.0
C520 C 0.31337 0.90719 0.86688 0.0
C521 C 0.30569 0.92877 0.89637 0.0
C522 C 0.29991 0.95026 0.86408 0.0
H523 H 0.35608 -0.00923 0.72582 0.0
H524 H 0.34724 0.9717 0.78785 0.0
H525 H 0.34606 0.95961 0.71408 0.0
H526 H 0.31023 0.9284 0.725 0.0
H527 H 0.3203 0.89137 0.77982 0.0
H528 H 0.92145 0.32537 0.56221 0.0
H529 H 0.95884 0.32423 0.62264 0.0
H530 H 0.92563 0.26922 0.73511 0.0
H531 H 0.88808 0.27053 0.67552 0.0
H532 H 0.93838 0.31609 0.79017 0.0
H533 H 0.01664 0.27495 0.66232 0.0
H534 H -0.00332 0.29662 0.62516 0.0
H535 H 0.9848 0.2672 0.64743 0.0
C536 C 0.92254 0.3122 0.59816 0.0
C537 C 0.90179 0.29813 0.61447 0.0
C538 C 0.9439 0.31167 0.63284 0.0
C539 C 0.94487 0.29678 0.68356 0.0
C540 C 0.92514 0.28091 0.69626 0.0
H541 H 0.06602 0.27558 0.9223 0.0
H542 H 0.02818 0.27045 0.86508 0.0
C543 C 0.90378 0.28157 0.66201 0.0
C544 C 0.96439 0.30037 0.72826 0.0
H545 H 0.02568 0.29155 0.75591 0.0
C546 C 0.95748 0.31064 0.78289 0.0
C547 C -0.01076 0.2935 0.71817 0.0
C548 C -0.00255 0.28233 0.66028 0.0
C549 C 0.97472 0.31386 0.8283 0.0
C550 C -0.00043 0.30674 0.81859 0.0
C551 C 0.00654 0.29678 0.76351 0.0
C552 C 0.01882 0.30933 0.86461 0.0
C553 C 0.96605 0.32442 0.8865 0.0
C554 C 0.02523 0.33267 0.8866 0.0
C555 C 0.0465 0.33548 0.92088 0.0
C556 C 0.06175 0.31505 0.93262 0.0
C557 C 0.05419 0.29149 0.91489 0.0
C558 C 0.03283 0.28863 0.88137 0.0
H559 H 0.94572 0.32263 0.89223 0.0
H560 H 0.97536 0.31518 0.92417 0.0
H561 H 0.97059 0.34436 0.88795 0.0
H562 H 0.01497 0.34897 0.87347 0.0
H563 H 0.05241 0.35391 0.93258 0.0
H564 H 0.68909 0.08515 0.80858 0.0
H565 H 0.69325 0.04597 0.75686 0.0
H566 H 0.64495 0.01164 0.88455 0.0
H567 H 0.64009 0.05129 0.9359 0.0
H568 H 0.70645 -0.00256 0.77875 0.0
H569 H 0.60619 0.00727 0.73001 0.0
H570 H 0.6238 0.03159 0.76376 0.0
H571 H 0.61373 0.00566 0.80709 0.0
C572 C 0.6798 0.06913 0.82659 0.0
C573 C 0.66391 0.07137 0.87573 0.0
C574 C 0.68226 0.04671 0.79699 0.0
C575 C 0.66888 0.02608 0.81587 0.0
C576 C 0.65501 0.02754 0.86853 0.0
H577 H 0.66817 0.88158 0.65982 0.0
H578 H 0.67759 0.91807 0.71781 0.0
C579 C 0.65248 0.05011 0.89829 0.0
C580 C 0.66723 0.00438 0.77621 0.0
H581 H 0.62668 0.97268 0.69002 0.0
C582 C 0.68901 -0.00809 0.75957 0.0
C583 C 0.64455 -0.00231 0.74981 0.0
C584 C 0.62074 0.01134 0.76301 0.0
C585 C 0.68863 0.97266 0.71799 0.0
C586 C 0.66583 0.96557 0.69296 0.0
C587 C 0.64415 0.97823 0.70908 0.0
C588 C 0.66355 0.94397 0.65322 0.0
C589 C 0.71267 0.96036 0.70055 0.0
C590 C 0.65268 0.94634 0.5971 0.0
C591 C 0.64702 0.92531 0.56381 0.0
C592 C 0.65178 0.90172 0.58686 0.0
C593 C 0.66384 0.89954 0.64148 0.0
C594 C 0.66958 0.92042 0.6744 0.0
H595 H 0.72873 0.97255 0.70894 0.0
H596 H 0.71518 0.94334 0.7272 0.0
H597 H 0.71269 0.95513 0.65314 0.0
H598 H 0.64778 0.9644 0.58008 0.0
H599 H 0.6377 0.92746 0.52188 0.0
H600 H 0.07475 0.3701 0.19458 0.0
H601 H 0.03274 0.37187 0.23233 0.0
H602 H 0.00825 0.32625 0.08827 0.0
H603 H 0.05092 0.32356 0.05104 0.0
H604 H -0.00917 0.39002 0.1805 0.0
H605 H 0.98136 0.29023 0.23385 0.0
H606 H 0.01081 0.30415 0.21704 0.0
H607 H -0.0104 0.29719 0.15867 0.0
C608 C 0.06054 0.36034 0.17065 0.0
C609 C 0.06625 0.34673 0.11938 0.0
C610 C 0.03646 0.36148 0.19236 0.0
C611 C 0.01739 0.34907 0.16347 0.0
C612 C 0.02279 0.33571 0.11172 0.0
H613 H 0.86377 0.3353 0.27449 0.0
H614 H 0.9016 0.33667 0.21531 0.0
C615 C 0.0471 0.33443 0.09 0.0
C616 C -0.00795 0.35041 0.1885 0.0
H617 H 0.94707 0.31587 0.25441 0.0
C618 C 0.98116 0.37379 0.19627 0.0
C619 C 0.97961 0.32922 0.20948 0.0
C620 C -0.00906 0.30377 0.20493 0.0
C621 C 0.95824 0.37659 0.22487 0.0
C622 C 0.94598 0.35546 0.24647 0.0
C623 C 0.95656 0.33202 0.23758 0.0
C624 C 0.92241 0.35721 0.2798 0.0
C625 C 0.94735 0.40211 0.23186 0.0
C626 C 0.92147 0.36875 0.33529 0.0
C627 C 0.89982 0.36808 0.36933 0.0
C628 C 0.87882 0.35572 0.34844 0.0
C629 C 0.87957 0.34507 0.2918 0.0
C630 C 0.9012 0.34572 0.25796 0.0
H631 H 0.95588 0.41549 0.20071 0.0
H632 H 0.92706 0.40192 0.2246 0.0
H633 H 0.95071 0.4087 0.27749 0.0
H634 H 0.93778 0.37742 0.35328 0.0
H635 H 0.89988 0.37628 0.41295 0.0
H636 H 0.61083 0.91253 0.41823 0.0
H637 H 0.60556 0.95227 0.36747 0.0
H638 H 0.67679 0.94277 0.28383 0.0
H639 H 0.6818 0.90291 0.3331 0.0
H640 H 0.65119 -0.00188 0.32518 0.0
H641 H 0.60463 0.93298 0.17119 0.0
H642 H 0.60062 0.9306 0.25019 0.0
H643 H 0.62956 0.92203 0.2171 0.0
C644 C 0.62589 0.91964 0.39154 0.0
C645 C 0.64664 0.90487 0.37893 0.0
C646 C 0.6228 0.94219 0.36245 0.0
C647 C 0.64069 0.95004 0.32165 0.0
C648 C 0.66287 0.93684 0.31532 0.0
H649 H 0.6699 0.05571 0.05576 0.0
H650 H 0.66976 0.01811 0.11632 0.0
C651 C 0.66576 0.9142 0.34353 0.0
C652 C 0.63455 0.96853 0.27663 0.0
H653 H 0.61383 0.97263 0.13474 0.0
C654 C 0.64273 -0.00726 0.28385 0.0
C655 C 0.62333 0.96124 0.22315 0.0
C656 C 0.61392 0.93533 0.21446 0.0
C657 C 0.64075 0.00981 0.23761 0.0
C658 C 0.6311 0.00204 0.18272 0.0
C659 C 0.62177 0.97817 0.17653 0.0
C660 C 0.63026 0.01897 0.13205 0.0
C661 C 0.64919 0.03599 0.24742 0.0
C662 C 0.60785 0.03033 0.11732 0.0
C663 C 0.60793 0.05161 0.08281 0.0
C664 C 0.63039 0.06147 0.06262 0.0
C665 C 0.6524 0.04817 0.07049 0.0
C666 C 0.65234 0.02694 0.10548 0.0
H667 H 0.65142 0.04021 0.29511 0.0
H668 H 0.66728 0.03874 0.22509 0.0
H669 H 0.63579 0.04933 0.22819 0.0
H670 H 0.59067 0.02427 0.13731 0.0
H671 H 0.5908 0.06182 0.07733 0.0
H672 H 0.91847 0.66768 0.1434 0.0
H673 H 0.95794 0.66496 0.19555 0.0
H674 H 0.97373 0.59576 0.10861 0.0
H675 H 0.93438 0.59882 0.05557 0.0
H676 H 0.96613 0.62651 0.27301 0.0
H677 H 0.04053 0.63052 0.10308 0.0
H678 H 0.00938 0.64105 0.0891 0.0
H679 H 0.01655 0.60863 0.088 0.0
C680 C 0.93102 0.65257 0.13335 0.0
C681 C 0.92392 0.63372 0.09477 0.0
C682 C 0.95334 0.65085 0.16361 0.0
C683 C 0.96873 0.63016 0.15589 0.0
C684 C 0.96233 0.61207 0.11439 0.0
H685 H 0.09411 0.58512 0.38128 0.0
H686 H 0.05611 0.58178 0.32163 0.0
C687 C 0.93999 0.61388 0.08386 0.0
C688 C -0.01016 0.62625 0.19608 0.0
H689 H 0.05258 0.61985 0.20033 0.0
C690 C 0.98503 0.62493 0.25709 0.0
C691 C 0.0144 0.62411 0.1751 0.0
C692 C 0.02065 0.62635 0.11031 0.0
C693 C 0.00427 0.62199 0.29776 0.0
C694 C 0.02877 0.62014 0.27675 0.0
C695 C 0.03359 0.62084 0.21586 0.0
C696 C 0.0499 0.62123 0.31726 0.0
C697 C -0.00148 0.62164 0.36302 0.0
C698 C 0.05848 0.64441 0.33453 0.0
C699 C 0.0801 0.64632 0.36708 0.0
C700 C 0.09329 0.62506 0.3836 0.0
C701 C 0.08412 0.6017 0.36887 0.0
C702 C 0.06258 0.5998 0.33501 0.0
H703 H 0.97837 0.62009 0.37199 0.0
H704 H 0.00828 0.606 0.38462 0.0
H705 H 0.0053 0.63895 0.38339 0.0
H706 H 0.04883 0.66108 0.32122 0.0
H707 H 0.08672 0.66451 0.37878 0.0
H708 H 0.31674 0.90402 0.1854 0.0
H709 H 0.3258 0.9425 0.23507 0.0
H710 H 0.34431 0.97613 0.068 0.0
H711 H 0.33603 0.93683 0.01718 0.0
H712 H 0.37446 0.96764 0.22653 0.0
H713 H 0.29266 0.02323 0.15747 0.0
H714 H 0.29291 -0.01009 0.15599 0.0
H715 H 0.30946 0.0069 0.10062 0.0
C716 C 0.3224 0.91964 0.1587 0.0
C717 C 0.32552 0.91744 0.09708 0.0
C718 C 0.32769 0.94158 0.18743 0.0
C719 C 0.33581 0.96199 0.15523 0.0
C720 C 0.33797 0.96041 0.09339 0.0
H721 H 0.35869 0.11089 0.27618 0.0
H722 H 0.3591 0.07317 0.21723 0.0
C723 C 0.33294 0.93815 0.06435 0.0
C724 C 0.34239 0.98465 0.18743 0.0
H725 H 0.32169 0.04265 0.21837 0.0
C726 C 0.36315 0.98422 0.22442 0.0
C727 C 0.32729 0.00589 0.18516 0.0
C728 C 0.3042 0.00667 0.14807 0.0
C729 C 0.3695 0.00482 0.25863 0.0
C730 C 0.35434 0.02617 0.25649 0.0
C731 C 0.3335 0.02642 0.21951 0.0
C732 C 0.35918 0.04849 0.2925 0.0
C733 C 0.39247 0.00354 0.29603 0.0
C734 C 0.36019 0.04719 0.3545 0.0
C735 C 0.36064 0.06882 0.38827 0.0
C736 C 0.35939 0.09197 0.36048 0.0
C737 C 0.35969 0.09323 0.29858 0.0
C738 C 0.3598 0.0717 0.26492 0.0
H739 H 0.40581 -0.01041 0.27881 0.0
H740 H 0.40184 0.0217 0.29808 0.0
H741 H 0.38728 -0.00203 0.3416 0.0
H742 H 0.35912 0.02958 0.37695 0.0
H743 H 0.35998 0.06741 0.436 0.0
H744 H 0.79131 0.2494 0.44779 0.0
H745 H 0.77865 0.22364 0.36479 0.0
H746 H 0.83436 0.25731 0.25479 0.0
H747 H 0.84762 0.28267 0.33844 0.0
H748 H 0.77904 0.26489 0.22761 0.0
H749 H 0.80864 0.16698 0.25002 0.0
H750 H 0.79964 0.18246 0.31722 0.0
H751 H 0.82669 0.19244 0.27788 0.0
C752 C 0.80176 0.25029 0.40686 0.0
C753 C 0.82052 0.26786 0.39955 0.0
C754 C 0.79445 0.23567 0.35939 0.0
C755 C 0.80556 0.23863 0.30374 0.0
C756 C 0.82574 0.25462 0.2976 0.0
H757 H 0.72371 0.16001 0.02492 0.0
H758 H 0.75934 0.18221 0.06672 0.0
C759 C 0.83343 0.26892 0.34555 0.0
C760 C 0.79281 0.22884 0.25115 0.0
H761 H 0.77335 0.17499 0.1895 0.0
C762 C 0.77831 0.2453 0.21801 0.0
C763 C 0.79191 0.20335 0.23887 0.0
C764 C 0.80767 0.18519 0.27248 0.0
C765 C 0.76151 0.2367 0.17585 0.0
C766 C 0.75922 0.21101 0.16671 0.0
C767 C 0.77514 0.1947 0.19652 0.0
C768 C 0.73785 0.20059 0.13473 0.0
C769 C 0.74541 0.25508 0.14373 0.0
C770 C 0.71408 0.20392 0.15855 0.0
C771 C 0.69405 0.19122 0.13529 0.0
C772 C 0.69733 0.17514 0.08743 0.0
C773 C 0.72081 0.17266 0.06134 0.0
C774 C 0.74108 0.18518 0.08531 0.0
H775 H 0.75445 0.27341 0.14075 0.0
H776 H 0.74102 0.24861 0.09848 0.0
H777 H 0.72779 0.25748 0.16846 0.0
H778 H 0.71122 0.21532 0.1973 0.0
H779 H 0.67611 0.1931 0.15644 0.0
H780 H 0.84117 0.71369 0.13655 0.0
H781 H 0.81453 0.74201 0.19063 0.0
H782 H 0.75088 0.71274 0.10091 0.0
H783 H 0.77772 0.68302 0.04885 0.0
H784 H 0.7827 0.77669 0.18105 0.0
H785 H 0.73445 0.69375 0.26647 0.0
H786 H 0.76111 0.69164 0.21877 0.0
H787 H 0.73099 0.69792 0.18837 0.0
C788 C 0.82155 0.71375 0.12704 0.0
C789 C 0.81142 0.69587 0.08945 0.0
C790 C 0.80629 0.72997 0.15811 0.0
C791 C 0.78055 0.72883 0.15187 0.0
C792 C 0.77063 0.71326 0.10823 0.0
H793 H 0.68085 0.8273 0.33264 0.0
H794 H 0.71116 0.80851 0.2678 0.0
C795 C 0.78599 0.69663 0.07752 0.0
C796 C 0.7646 0.74186 0.19581 0.0
H797 H 0.72019 0.73226 0.3011 0.0
C798 C 0.76899 0.76695 0.20719 0.0
C799 C 0.74738 0.72902 0.23175 0.0
C800 C 0.74335 0.70156 0.22629 0.0
C801 C 0.75654 0.77954 0.2528 0.0
C802 C 0.7383 0.76702 0.28636 0.0
C803 C 0.7341 0.74191 0.27542 0.0
C804 C 0.72193 0.77992 0.32957 0.0
C805 C 0.76368 0.8059 0.26536 0.0
C806 C 0.71747 0.77011 0.38637 0.0
C807 C 0.6992 0.78047 0.42324 0.0
C808 C 0.68511 0.80063 0.40342 0.0
C809 C 0.69074 0.81123 0.34833 0.0
C810 C 0.7086 0.80081 0.31153 0.0
H811 H 0.78346 0.80913 0.2544 0.0
H812 H 0.75254 0.81847 0.23722 0.0
H813 H 0.76054 0.81084 0.31239 0.0
H814 H 0.72753 0.75395 0.40133 0.0
H815 H 0.69529 0.77203 0.46566 0.0
H816 H 0.29082 0.77241 0.14846 0.0
H817 H 0.25486 0.75391 0.19611 0.0
H818 H 0.20884 0.81298 0.13025 0.0
H819 H 0.24517 0.8316 0.08234 0.0
H820 H 0.20781 0.80855 0.25264 0.0
H821 H 0.19237 0.71712 0.15182 0.0
H822 H 0.22429 0.72199 0.16914 0.0
H823 H 0.20949 0.74119 0.11469 0.0
C824 C 0.27278 0.78067 0.14138 0.0
C825 C 0.2706 0.8031 0.11074 0.0
C826 C 0.25221 0.77017 0.16895 0.0
C827 C 0.22905 0.78195 0.16657 0.0
C828 C 0.22648 0.80347 0.1323 0.0
H829 H 0.12377 0.70122 0.38589 0.0
H830 H 0.135 0.73012 0.30695 0.0
C831 C 0.24713 0.81391 0.10422 0.0
C832 C 0.20892 0.77368 0.20695 0.0
H833 H 0.17887 0.72191 0.25328 0.0
C834 C 0.20095 0.78978 0.25192 0.0
C835 C 0.19983 0.74928 0.20602 0.0
C836 C 0.20676 0.73148 0.15744 0.0
C837 C 0.18553 0.78161 0.29813 0.0
C838 C 0.17802 0.75664 0.29972 0.0
C839 C 0.18459 0.74106 0.25245 0.0
C840 C 0.16641 0.74527 0.35301 0.0
C841 C 0.17808 0.79966 0.34574 0.0
C842 C 0.17927 0.74531 0.40675 0.0
C843 C 0.17271 0.729 0.452 0.0
C844 C 0.15328 0.71222 0.4443 0.0
C845 C 0.13853 0.71426 0.39359 0.0
C846 C 0.14519 0.73053 0.348 0.0
H847 H 0.17701 0.81876 0.32798 0.0
H848 H 0.15995 0.79482 0.36574 0.0
H849 H 0.19227 0.79947 0.38098 0.0
H850 H 0.19594 0.75608 0.41162 0.0
H851 H 0.18466 0.7275 0.49016 0.0
H852 H 0.28359 0.12294 0.34752 0.0
H853 H 0.25786 0.13841 0.26653 0.0
H854 H 0.22043 0.18747 0.38748 0.0
H855 H 0.24644 0.17249 0.46797 0.0
H856 H 0.20208 0.15301 0.24213 0.0
H857 H 0.26943 0.22883 0.27393 0.0
H858 H 0.27437 0.19814 0.3029 0.0
H859 H 0.25357 0.21906 0.33984 0.0
C860 C 0.26878 0.13583 0.35755 0.0
C861 C 0.26695 0.14653 0.414 0.0
C862 C 0.25427 0.14488 0.31102 0.0
C863 C 0.23761 0.16442 0.32089 0.0
C864 C 0.2333 0.17249 0.37894 0.0
H865 H 0.14024 0.26207 0.15956 0.0
H866 H 0.16032 0.22528 0.19859 0.0
C867 C 0.24796 0.1637 0.42513 0.0
C868 C 0.22869 0.17975 0.27089 0.0
H869 H 0.23514 0.23743 0.21218 0.0
C870 C 0.20946 0.17134 0.23493 0.0
C871 C 0.23885 0.20339 0.26041 0.0
C872 C 0.26035 0.2129 0.29587 0.0
C873 C 0.19906 0.18671 0.19124 0.0
C874 C 0.20793 0.21112 0.18407 0.0
C875 C 0.22826 0.21878 0.21749 0.0
C876 C 0.19437 0.23021 0.14944 0.0
C877 C 0.17835 0.17682 0.15394 0.0
C878 C 0.20661 0.24526 0.10782 0.0
C879 C 0.19499 0.2665 0.08509 0.0
C880 C 0.1712 0.27314 0.10471 0.0
C881 C 0.15859 0.25732 0.14362 0.0
C882 C 0.16999 0.23611 0.16562 0.0
H883 H 0.18009 0.15652 0.14826 0.0
H884 H 0.16044 0.18057 0.17639 0.0
H885 H 0.17801 0.18567 0.10968 0.0
H886 H 0.22555 0.24125 0.0952 0.0
H887 H 0.2052 0.27857 0.05577 0.0
H888 H 0.20931 0.68308 0.56696 0.0
H889 H 0.23398 0.70863 0.63227 0.0
H890 H 0.24964 0.64511 0.74117 0.0
H891 H 0.2241 0.6197 0.67701 0.0
H892 H 0.22183 0.67953 0.79785 0.0
H893 H 0.30215 0.72518 0.69173 0.0
H894 H 0.2743 0.72778 0.64944 0.0
H895 H 0.28808 0.69789 0.66118 0.0
C896 C 0.21932 0.67423 0.60258 0.0
C897 C 0.21463 0.64952 0.61751 0.0
C898 C 0.23335 0.68894 0.64026 0.0
C899 C 0.24335 0.67883 0.69212 0.0
C900 C 0.24188 0.65329 0.70164 0.0
H901 H 0.30972 0.75738 0.97958 0.0
H902 H 0.29192 0.7231 0.92418 0.0
C903 C 0.22753 0.63871 0.6646 0.0
C904 C 0.25012 0.69519 0.74174 0.0
H905 H 0.28641 0.74372 0.78074 0.0
C906 C 0.23625 0.6933 0.79438 0.0
C907 C 0.26858 0.71342 0.73678 0.0
C908 C 0.28428 0.71609 0.6819 0.0
C909 C 0.24019 0.70935 0.84186 0.0
C910 C 0.25838 0.72764 0.83651 0.0
C911 C 0.27242 0.72951 0.78434 0.0
C912 C 0.26323 0.74536 0.88424 0.0
C913 C 0.22474 0.70707 0.89719 0.0
C914 C 0.25167 0.76856 0.88334 0.0
C915 C 0.26162 0.78805 0.91561 0.0
C916 C 0.28329 0.78442 0.94831 0.0
C917 C 0.29269 0.76043 0.95557 0.0
C918 C 0.28279 0.74095 0.92324 0.0
H919 H 0.21139 0.69161 0.89471 0.0
H920 H 0.23699 0.70413 0.93581 0.0
H921 H 0.21437 0.72453 0.90478 0.0
H922 H 0.23657 0.7722 0.85325 0.0
H923 H 0.25444 0.80652 0.90849 0.0
H924 H 0.35985 0.21659 0.65965 0.0
H925 H 0.33783 0.24647 0.72141 0.0
H926 H 0.273 0.23845 0.6134 0.0
H927 H 0.29512 0.20887 0.5507 0.0
H928 H 0.28172 0.28839 0.68525 0.0
H929 H 0.28343 0.19851 0.8052 0.0
H930 H 0.31256 0.21014 0.77877 0.0
H931 H 0.28944 0.20083 0.72697 0.0
C932 C 0.34143 0.2224 0.64688 0.0
C933 C 0.32897 0.21017 0.6013 0.0
C934 C 0.32885 0.23941 0.68229 0.0
C935 C 0.3037 0.24411 0.67262 0.0
C936 C 0.29244 0.23495 0.62149 0.0
H937 H 0.17737 0.25822 0.88801 0.0
H938 H 0.21322 0.24347 0.83217 0.0
C939 C 0.30514 0.21812 0.5855 0.0
C940 C 0.2881 0.25243 0.72246 0.0
H941 H 0.2623 0.23125 0.85069 0.0
C942 C 0.27766 0.27612 0.72188 0.0
C943 C 0.28253 0.23603 0.76935 0.0
C944 C 0.29238 0.20988 0.77034 0.0
C945 C 0.26151 0.28381 0.7672 0.0
C946 C 0.25617 0.26746 0.81452 0.0
C947 C 0.26686 0.24387 0.81507 0.0
C948 C 0.23707 0.27326 0.8595 0.0
C949 C 0.24939 0.3089 0.76266 0.0
C950 C 0.23929 0.2937 0.89713 0.0
C951 C 0.21885 0.30189 0.93001 0.0
C952 C 0.19613 0.28967 0.92526 0.0
C953 C 0.19486 0.26765 0.89302 0.0
C954 C 0.21523 0.25943 0.8605 0.0
H955 H 0.25195 0.31727 0.71823 0.0
H956 H 0.22927 0.30765 0.77214 0.0
H957 H 0.25767 0.32145 0.79572 0.0
H958 H 0.25621 0.3043 0.89782 0.0
H959 H 0.22005 0.31919 0.95374 0.0
H960 H 0.76998 0.29482 0.56463 0.0
H961 H 0.73834 0.27633 0.62789 0.0
H962 H 0.73421 0.34326 0.73044 0.0
H963 H 0.76605 0.36169 0.66792 0.0
H964 H 0.75384 0.30198 0.78999 0.0
H965 H 0.66504 0.27934 0.68121 0.0
H966 H 0.69219 0.27195 0.63853 0.0
H967 H 0.6851 0.30365 0.65499 0.0
C968 C 0.76133 0.30606 0.59857 0.0
C969 C 0.77069 0.32947 0.61228 0.0
C970 C 0.74326 0.29546 0.63479 0.0
C971 C 0.7342 0.30839 0.68416 0.0
C972 C 0.74108 0.33301 0.69265 0.0
H973 H 0.64533 0.22669 0.93614 0.0
H974 H 0.66358 0.26337 0.89054 0.0
C975 C 0.75922 0.34351 0.65685 0.0
C976 C 0.72272 0.29473 0.73347 0.0
H977 H 0.67488 0.25692 0.76937 0.0
C978 C 0.73629 0.29254 0.78603 0.0
C979 C 0.69999 0.28236 0.72787 0.0
C980 C 0.68459 0.28455 0.67279 0.0
C981 C 0.72818 0.27747 0.83241 0.0
C982 C 0.70599 0.26427 0.82585 0.0
C983 C 0.69187 0.26724 0.77431 0.0
C984 C 0.69821 0.24533 0.86878 0.0
C985 C 0.74372 0.27526 0.88732 0.0
C986 C 0.71232 0.22365 0.87479 0.0
C987 C 0.702 0.20283 0.90129 0.0
C988 C 0.67755 0.20361 0.92185 0.0
C989 C 0.66446 0.226 0.92169 0.0
C990 C 0.67473 0.2468 0.89506 0.0
H991 H 0.75596 0.29149 0.89277 0.0
H992 H 0.73193 0.27335 0.92737 0.0
H993 H 0.75562 0.25857 0.8838 0.0
H994 H 0.73033 0.22205 0.85392 0.0
H995 H 0.71207 0.18549 0.89975 0.0
H996 H 0.6598 0.7644 0.57732 0.0
H997 H 0.67915 0.72855 0.62562 0.0
H998 H 0.73254 0.7765 0.70652 0.0
H999 H 0.71309 0.81221 0.6595 0.0
H1000 H 0.73884 0.71355 0.64889 0.0
H1001 H 0.67814 0.74393 0.8346 0.0
H1002 H 0.67044 0.74936 0.75807 0.0
H1003 H 0.69359 0.76774 0.79316 0.0
C1004 C 0.67643 0.76702 0.60301 0.0
C1005 C 0.68503 0.79087 0.61519 0.0
C1006 C 0.68728 0.74664 0.63086 0.0
C1007 C 0.7069 0.75016 0.67011 0.0
C1008 C 0.71729 0.77361 0.67649 0.0
H1009 H 0.79563 0.69634 0.93945 0.0
H1010 H 0.76458 0.71865 0.88121 0.0
C1011 C 0.70632 0.79391 0.6494 0.0
C1012 C 0.71429 0.73066 0.71164 0.0
H1013 H 0.71095 0.71636 0.85829 0.0
C1014 C 0.73241 0.71363 0.69436 0.0
C1015 C 0.7057 0.73109 0.77073 0.0
C1016 C 0.68576 0.74888 0.79051 0.0
C1017 C 0.74336 0.69785 0.7359 0.0
C1018 C 0.73571 0.69921 0.79582 0.0
C1019 C 0.71669 0.71543 0.81236 0.0
C1020 C 0.74914 0.68569 0.84228 0.0
C1021 C 0.76406 0.68092 0.71607 0.0
C1022 C 0.74936 0.65987 0.84262 0.0
C1023 C 0.76702 0.64721 0.87557 0.0
C1024 C 0.78444 0.66025 0.909 0.0
C1025 C 0.78226 0.68594 0.91428 0.0
C1026 C 0.76467 0.69865 0.8808 0.0
H1027 H 0.77027 0.68498 0.67024 0.0
H1028 H 0.78016 0.6825 0.74602 0.0
H1029 H 0.75759 0.66153 0.71757 0.0
H1030 H 0.73719 0.64962 0.8139 0.0
H1031 H 0.76832 0.62733 0.87125 0.0
loop_
_geom_bond_atom_site_label_1
_geom_bond_atom_site_label_2
_geom_bond_distance
_geom_bond_site_symmetry_2
_ccdc_geom_bond_type
Zn0 O6 1.920 . S
Zn0 O12 1.898 . S
Zn0 O15 1.905 . S
Zn1 O9 1.905 . S
Zn1 O10 1.898 . S
Zn1 O18 1.920 . S
Zn2 O5 2.080 1_554 S
Zn2 O8 2.114 . S
Zn2 O11 2.120 . S
Zn2 O13 2.120 1_554 S
Zn2 O14 2.114 1_554 S
Zn2 O17 2.080 . S
C3 O8 1.166 . S
C3 O9 1.182 . S
C4 O10 1.167 . S
C4 O11 1.299 . S
O5 Zn2 2.080 1_556 S
O5 C19 1.305 . S
O6 Zn0 1.920 . S
O6 C19 1.234 . S
C7 O12 1.167 . S
C7 O13 1.299 . S
O8 Zn2 2.114 . S
O8 C3 1.166 . S
O9 Zn1 1.905 . S
O9 C3 1.182 . S
O10 Zn1 1.898 . S
O10 C4 1.167 . S
O11 Zn2 2.120 . S
O11 C4 1.299 . S
O12 Zn0 1.898 . S
O12 C7 1.167 . S
O13 Zn2 2.120 1_556 S
O13 C7 1.299 . S
O14 Zn2 2.114 1_556 S
O14 C16 1.166 . S
O15 Zn0 1.905 . S
O15 C16 1.182 . S
C16 O14 1.166 . S
C16 O15 1.182 . S
O17 Zn2 2.080 . S
O17 C20 1.305 . S
O18 Zn1 1.920 . S
O18 C20 1.234 . S
C19 O5 1.305 . S
C19 O6 1.234 . S
C20 O17 1.305 . S
C20 O18 1.234 . S
Zn21 O27 1.920 . S
Zn21 O33 1.898 . S
Zn21 O36 1.905 . S
Zn22 O30 1.905 . S
Zn22 O31 1.898 . S
Zn22 O39 1.920 . S
Zn23 O26 2.080 1_554 S
Zn23 O29 2.114 . S
Zn23 O32 2.120 . S
Zn23 O34 2.120 1_554 S
Zn23 O35 2.114 1_554 S
Zn23 O38 2.080 . S
C24 O29 1.166 . S
C24 O30 1.182 . S
C25 O31 1.167 . S
C25 O32 1.299 . S
O26 Zn23 2.080 1_556 S
O26 C40 1.305 . S
O27 Zn21 1.920 . S
O27 C40 1.234 . S
C28 O33 1.167 . S
C28 O34 1.299 . S
O29 Zn23 2.114 . S
O29 C24 1.166 . S
O30 Zn22 1.905 . S
O30 C24 1.182 . S
O31 Zn22 1.898 . S
O31 C25 1.167 . S
O32 Zn23 2.120 . S
O32 C25 1.299 . S
O33 Zn21 1.898 . S
O33 C28 1.167 . S
O34 Zn23 2.120 1_556 S
O34 C28 1.299 . S
O35 Zn23 2.114 1_556 S
O35 C37 1.166 . S
O36 Zn21 1.905 . S
O36 C37 1.182 . S
C37 O35 1.166 . S
C37 O36 1.182 . S
O38 Zn23 2.080 . S
O38 C41 1.305 . S
O39 Zn22 1.920 . S
O39 C41 1.234 . S
C40 O26 1.305 . S
C40 O27 1.234 . S
C41 O38 1.305 . S
C41 O39 1.234 . S
Zn42 O48 1.920 . S
Zn42 O54 1.898 . S
Zn42 O57 1.905 . S
Zn43 O51 1.905 . S
Zn43 O52 1.898 . S
Zn43 O60 1.920 . S
Zn44 O47 2.080 . S
Zn44 O50 2.114 1_554 S
Zn44 O53 2.120 1_554 S
Zn44 O55 2.120 . S
Zn44 O56 2.114 . S
Zn44 O59 2.080 1_554 S
C45 O50 1.166 . S
C45 O51 1.182 . S
C46 O52 1.167 . S
C46 O53 1.299 . S
O47 Zn44 2.080 . S
O47 C61 1.305 . S
O48 Zn42 1.920 . S
O48 C61 1.234 . S
C49 O54 1.167 . S
C49 O55 1.299 . S
O50 Zn44 2.114 1_556 S
O50 C45 1.166 . S
O51 Zn43 1.905 . S
O51 C45 1.182 . S
O52 Zn43 1.898 . S
O52 C46 1.167 . S
O53 Zn44 2.120 1_556 S
O53 C46 1.299 . S
O54 Zn42 1.898 . S
O54 C49 1.167 . S
O55 Zn44 2.120 . S
O55 C49 1.299 . S
O56 Zn44 2.114 . S
O56 C58 1.166 . S
O57 Zn42 1.905 . S
O57 C58 1.182 . S
C58 O56 1.166 . S
C58 O57 1.182 . S
O59 Zn44 2.080 1_556 S
O59 C62 1.305 . S
O60 Zn43 1.920 . S
O60 C62 1.234 . S
C61 O47 1.305 . S
C61 O48 1.234 . S
C62 O59 1.305 . S
C62 O60 1.234 . S
Zn63 O69 1.920 . S
Zn63 O75 1.898 . S
Zn63 O78 1.905 . S
Zn64 O72 1.905 . S
Zn64 O73 1.898 . S
Zn64 O81 1.920 . S
Zn65 O68 2.080 . S
Zn65 O71 2.114 1_554 S
Zn65 O74 2.120 1_554 S
Zn65 O76 2.120 . S
Zn65 O77 2.114 . S
Zn65 O80 2.080 1_554 S
C66 O71 1.166 . S
C66 O72 1.182 . S
C67 O73 1.167 . S
C67 O74 1.299 . S
O68 Zn65 2.080 . S
O68 C82 1.305 . S
O69 Zn63 1.920 . S
O69 C82 1.234 . S
C70 O75 1.167 . S
C70 O76 1.299 . S
O71 Zn65 2.114 1_556 S
O71 C66 1.166 . S
O72 Zn64 1.905 . S
O72 C66 1.182 . S
O73 Zn64 1.898 . S
O73 C67 1.167 . S
O74 Zn65 2.120 1_556 S
O74 C67 1.299 . S
O75 Zn63 1.898 . S
O75 C70 1.167 . S
O76 Zn65 2.120 . S
O76 C70 1.299 . S
O77 Zn65 2.114 . S
O77 C79 1.166 . S
O78 Zn63 1.905 . S
O78 C79 1.182 . S
C79 O77 1.166 . S
C79 O78 1.182 . S
O80 Zn65 2.080 1_556 S
O80 C83 1.305 . S
O81 Zn64 1.920 . S
O81 C83 1.234 . S
C82 O68 1.305 . S
C82 O69 1.234 . S
C83 O80 1.305 . S
C83 O81 1.234 . S
Zn84 O90 1.920 . S
Zn84 O96 1.898 . S
Zn84 O99 1.905 . S
Zn85 O93 1.905 . S
Zn85 O94 1.898 . S
Zn85 O102 1.920 . S
Zn86 O89 2.080 . S
Zn86 O92 2.114 . S
Zn86 O95 2.120 . S
Zn86 O97 2.120 . S
Zn86 O98 2.114 . S
Zn86 O101 2.080 . S
C87 O92 1.166 . S
C87 O93 1.182 . S
C88 O94 1.167 . S
C88 O95 1.299 . S
O89 Zn86 2.080 . S
O89 C103 1.305 . S
O90 Zn84 1.920 . S
O90 C103 1.234 . S
C91 O96 1.167 . S
C91 O97 1.299 . S
O92 Zn86 2.114 . S
O92 C87 1.166 . S
O93 Zn85 1.905 . S
O93 C87 1.182 . S
O94 Zn85 1.898 . S
O94 C88 1.167 . S
O95 Zn86 2.120 . S
O95 C88 1.299 . S
O96 Zn84 1.898 . S
O96 C91 1.167 . S
O97 Zn86 2.120 . S
O97 C91 1.299 . S
O98 Zn86 2.114 . S
O98 C100 1.166 . S
O99 Zn84 1.905 . S
O99 C100 1.182 . S
C100 O98 1.166 . S
C100 O99 1.182 . S
O101 Zn86 2.080 . S
O101 C104 1.305 . S
O102 Zn85 1.920 . S
O102 C104 1.234 . S
C103 O89 1.305 . S
C103 O90 1.234 . S
C104 O101 1.305 . S
C104 O102 1.234 . S
Zn105 O111 1.920 . S
Zn105 O117 1.898 . S
Zn105 O120 1.905 . S
Zn106 O114 1.905 . S
Zn106 O115 1.898 . S
Zn106 O123 1.920 . S
Zn107 O110 2.080 . S
Zn107 O113 2.114 . S
Zn107 O116 2.120 . S
Zn107 O118 2.120 . S
Zn107 O119 2.114 . S
Zn107 O122 2.080 . S
C108 O113 1.166 . S
C108 O114 1.182 . S
C109 O115 1.167 . S
C109 O116 1.299 . S
O110 Zn107 2.080 . S
O110 C124 1.305 . S
O111 Zn105 1.920 . S
O111 C124 1.234 . S
C112 O117 1.167 . S
C112 O118 1.299 . S
O113 Zn107 2.114 . S
O113 C108 1.166 . S
O114 Zn106 1.905 . S
O114 C108 1.182 . S
O115 Zn106 1.898 . S
O115 C109 1.167 . S
O116 Zn107 2.120 . S
O116 C109 1.299 . S
O117 Zn105 1.898 . S
O117 C112 1.167 . S
O118 Zn107 2.120 . S
O118 C112 1.299 . S
O119 Zn107 2.114 . S
O119 C121 1.166 . S
O120 Zn105 1.905 . S
O120 C121 1.182 . S
C121 O119 1.166 . S
C121 O120 1.182 . S
O122 Zn107 2.080 . S
O122 C125 1.305 . S
O123 Zn106 1.920 . S
O123 C125 1.234 . S
C124 O110 1.305 . S
C124 O111 1.234 . S
C125 O122 1.305 . S
C125 O123 1.234 . S
Zn126 O132 1.920 . S
Zn126 O138 1.898 . S
Zn126 O141 1.905 . S
Zn127 O135 1.905 . S
Zn127 O136 1.898 . S
Zn127 O144 1.920 . S
Zn128 O131 2.080 . S
Zn128 O134 2.114 . S
Zn128 O137 2.120 . S
Zn128 O139 2.120 . S
Zn128 O140 2.114 . S
Zn128 O143 2.080 . S
C129 O134 1.166 . S
C129 O135 1.182 . S
C130 O136 1.167 . S
C130 O137 1.299 . S
O131 Zn128 2.080 . S
O131 C145 1.305 . S
O132 Zn126 1.920 . S
O132 C145 1.234 . S
C133 O138 1.167 . S
C133 O139 1.299 . S
O134 Zn128 2.114 . S
O134 C129 1.166 . S
O135 Zn127 1.905 . S
O135 C129 1.182 . S
O136 Zn127 1.898 . S
O136 C130 1.167 . S
O137 Zn128 2.120 . S
O137 C130 1.299 . S
O138 Zn126 1.898 . S
O138 C133 1.167 . S
O139 Zn128 2.120 . S
O139 C133 1.299 . S
O140 Zn128 2.114 . S
O140 C142 1.166 . S
O141 Zn126 1.905 . S
O141 C142 1.182 . S
C142 O140 1.166 . S
C142 O141 1.182 . S
O143 Zn128 2.080 . S
O143 C146 1.305 . S
O144 Zn127 1.920 . S
O144 C146 1.234 . S
C145 O131 1.305 . S
C145 O132 1.234 . S
C146 O143 1.305 . S
C146 O144 1.234 . S
Zn147 O153 1.920 . S
Zn147 O159 1.898 . S
Zn147 O162 1.905 . S
Zn148 O156 1.905 . S
Zn148 O157 1.898 . S
Zn148 O165 1.920 . S
Zn149 O152 2.080 . S
Zn149 O155 2.114 . S
Zn149 O158 2.120 . S
Zn149 O160 2.120 . S
Zn149 O161 2.114 . S
Zn149 O164 2.080 . S
C150 O155 1.166 . S
C150 O156 1.182 . S
C151 O157 1.167 . S
C151 O158 1.299 . S
O152 Zn149 2.080 . S
O152 C166 1.305 . S
O153 Zn147 1.920 . S
O153 C166 1.234 . S
C154 O159 1.167 . S
C154 O160 1.299 . S
O155 Zn149 2.114 . S
O155 C150 1.166 . S
O156 Zn148 1.905 . S
O156 C150 1.182 . S
O157 Zn148 1.898 . S
O157 C151 1.167 . S
O158 Zn149 2.120 . S
O158 C151 1.299 . S
O159 Zn147 1.898 . S
O159 C154 1.167 . S
O160 Zn149 2.120 . S
O160 C154 1.299 . S
O161 Zn149 2.114 . S
O161 C163 1.166 . S
O162 Zn147 1.905 . S
O162 C163 1.182 . S
C163 O161 1.166 . S
C163 O162 1.182 . S
O164 Zn149 2.080 . S
O164 C167 1.305 . S
O165 Zn148 1.920 . S
O165 C167 1.234 . S
C166 O152 1.305 . S
C166 O153 1.234 . S
C167 O164 1.305 . S
C167 O165 1.234 . S
H168 C176 0.929 . S
H169 C178 0.930 . S
H170 C180 0.930 . S
H171 C183 0.929 . S
H172 C186 0.930 . S
H173 C188 0.960 . S
H174 C188 0.960 . S
H175 C188 0.960 . S
C176 H168 0.929 . S
C176 C177 1.377 . S
C176 C178 1.384 . S
C177 C176 1.377 . S
C177 C183 1.390 . S
C178 H169 0.930 . S
C178 C176 1.384 . S
C178 C179 1.372 . S
C179 C178 1.372 . S
C179 C180 1.400 . S
C179 C184 1.490 . S
C180 H170 0.930 . S
C180 C179 1.400 . S
C180 C183 1.386 . S
H181 C197 0.930 . S
H182 C198 0.931 . S
C183 H171 0.929 . S
C183 C177 1.390 . S
C183 C180 1.386 . S
C184 C179 1.490 . S
C184 C186 1.395 . S
C184 C187 1.403 . S
H185 C191 0.930 . S
C186 H172 0.930 . S
C186 C184 1.395 . S
C186 C189 1.403 . S
C187 C184 1.403 . S
C187 C188 1.524 . S
C187 C191 1.400 . S
C188 H173 0.960 . S
C188 H174 0.960 . S
C188 H175 0.960 . S
C188 C187 1.524 . S
C189 C186 1.403 . S
C189 C190 1.392 . S
C189 C193 1.495 . S
C190 C189 1.392 . S
C190 C191 1.385 . S
C190 C192 1.478 . S
C191 H185 0.930 . S
C191 C187 1.400 . S
C191 C190 1.385 . S
C192 C190 1.478 . S
C192 C194 1.381 . S
C192 C198 1.383 . S
C193 C189 1.495 . S
C193 H199 0.959 . S
C193 H200 0.961 . S
C193 H201 0.960 . S
C194 C192 1.381 . S
C194 C195 1.394 . S
C194 H202 0.930 . S
C195 C194 1.394 . S
C195 C196 1.383 . S
C195 H203 0.929 . S
C196 C195 1.383 . S
C196 C197 1.377 . S
C197 H181 0.930 . S
C197 C196 1.377 . S
C197 C198 1.379 . S
C198 H182 0.931 . S
C198 C192 1.383 . S
C198 C197 1.379 . S
H199 C193 0.959 . S
H200 C193 0.961 . S
H201 C193 0.960 . S
H202 C194 0.930 . S
H203 C195 0.929 . S
H204 C212 0.929 . S
H205 C214 0.930 . S
H206 C216 0.930 . S
H207 C219 0.929 . S
H208 C222 0.930 . S
H209 C224 0.960 . S
H210 C224 0.960 . S
H211 C224 0.960 . S
C212 H204 0.929 . S
C212 C213 1.377 . S
C212 C214 1.384 . S
C213 C212 1.377 . S
C213 C219 1.390 . S
C214 H205 0.930 . S
C214 C212 1.384 . S
C214 C215 1.372 . S
C215 C214 1.372 . S
C215 C216 1.400 . S
C215 C220 1.490 . S
C216 H206 0.930 . S
C216 C215 1.400 . S
C216 C219 1.386 . S
H217 C233 0.930 . S
H218 C234 0.931 . S
C219 H207 0.929 . S
C219 C213 1.390 . S
C219 C216 1.386 . S
C220 C215 1.490 . S
C220 C222 1.395 . S
C220 C223 1.403 . S
H221 C227 0.930 . S
C222 H208 0.930 . S
C222 C220 1.395 . S
C222 C225 1.403 . S
C223 C220 1.403 . S
C223 C224 1.524 . S
C223 C227 1.400 . S
C224 H209 0.960 . S
C224 H210 0.960 . S
C224 H211 0.960 . S
C224 C223 1.524 . S
C225 C222 1.403 . S
C225 C226 1.392 . S
C225 C229 1.495 . S
C226 C225 1.392 . S
C226 C227 1.385 . S
C226 C228 1.478 . S
C227 H221 0.930 . S
C227 C223 1.400 . S
C227 C226 1.385 . S
C228 C226 1.478 . S
C228 C230 1.381 . S
C228 C234 1.383 . S
C229 C225 1.495 . S
C229 H235 0.959 . S
C229 H236 0.961 . S
C229 H237 0.960 . S
C230 C228 1.381 . S
C230 C231 1.394 . S
C230 H238 0.930 . S
C231 C230 1.394 . S
C231 C232 1.383 . S
C231 H239 0.929 . S
C232 C231 1.383 . S
C232 C233 1.377 . S
C233 H217 0.930 . S
C233 C232 1.377 . S
C233 C234 1.379 . S
C234 H218 0.931 . S
C234 C228 1.383 . S
C234 C233 1.379 . S
H235 C229 0.959 . S
H236 C229 0.961 . S
H237 C229 0.960 . S
H238 C230 0.930 . S
H239 C231 0.929 . S
H240 C248 0.929 . S
H241 C250 0.930 . S
H242 C252 0.930 . S
H243 C255 0.929 . S
H244 C258 0.930 . S
H245 C260 0.960 . S
H246 C260 0.960 . S
H247 C260 0.960 . S
C248 H240 0.929 . S
C248 C249 1.377 . S
C248 C250 1.384 . S
C249 C248 1.377 . S
C249 C255 1.390 . S
C250 H241 0.930 . S
C250 C248 1.384 . S
C250 C251 1.372 . S
C251 C250 1.372 . S
C251 C252 1.400 . S
C251 C256 1.490 . S
C252 H242 0.930 . S
C252 C251 1.400 . S
C252 C255 1.386 . S
H253 C269 0.930 . S
H254 C270 0.931 . S
C255 H243 0.929 . S
C255 C249 1.390 . S
C255 C252 1.386 . S
C256 C251 1.490 . S
C256 C258 1.395 . S
C256 C259 1.403 . S
H257 C263 0.930 . S
C258 H244 0.930 . S
C258 C256 1.395 . S
C258 C261 1.403 . S
C259 C256 1.403 . S
C259 C260 1.524 . S
C259 C263 1.400 . S
C260 H245 0.960 . S
C260 H246 0.960 . S
C260 H247 0.960 . S
C260 C259 1.524 . S
C261 C258 1.403 . S
C261 C262 1.392 . S
C261 C265 1.495 . S
C262 C261 1.392 . S
C262 C263 1.385 . S
C262 C264 1.478 . S
C263 H257 0.930 . S
C263 C259 1.400 . S
C263 C262 1.385 . S
C264 C262 1.478 . S
C264 C266 1.381 . S
C264 C270 1.383 . S
C265 C261 1.495 . S
C265 H271 0.959 . S
C265 H272 0.961 . S
C265 H273 0.960 . S
C266 C264 1.381 . S
C266 C267 1.394 . S
C266 H274 0.930 . S
C267 C266 1.394 . S
C267 C268 1.383 . S
C267 H275 0.929 . S
C268 C267 1.383 . S
C268 C269 1.377 . S
C269 H253 0.930 . S
C269 C268 1.377 . S
C269 C270 1.379 . S
C270 H254 0.931 . S
C270 C264 1.383 . S
C270 C269 1.379 . S
H271 C265 0.959 . S
H272 C265 0.961 . S
H273 C265 0.960 . S
H274 C266 0.930 . S
H275 C267 0.929 . S
H276 C284 0.929 . S
H277 C286 0.930 . S
H278 C288 0.930 . S
H279 C291 0.929 . S
H280 C294 0.930 . S
H281 C296 0.960 . S
H282 C296 0.960 . S
H283 C296 0.960 . S
C284 H276 0.929 . S
C284 C285 1.377 . S
C284 C286 1.384 . S
C285 C284 1.377 . S
C285 C291 1.390 . S
C286 H277 0.930 . S
C286 C284 1.384 . S
C286 C287 1.372 . S
C287 C286 1.372 . S
C287 C288 1.400 . S
C287 C292 1.490 . S
C288 H278 0.930 . S
C288 C287 1.400 . S
C288 C291 1.386 . S
H289 C305 0.930 . S
H290 C306 0.931 . S
C291 H279 0.929 . S
C291 C285 1.390 . S
C291 C288 1.386 . S
C292 C287 1.490 . S
C292 C294 1.395 . S
C292 C295 1.403 . S
H293 C299 0.930 . S
C294 H280 0.930 . S
C294 C292 1.395 . S
C294 C297 1.403 . S
C295 C292 1.403 . S
C295 C296 1.524 . S
C295 C299 1.400 . S
C296 H281 0.960 . S
C296 H282 0.960 . S
C296 H283 0.960 . S
C296 C295 1.524 . S
C297 C294 1.403 . S
C297 C298 1.392 . S
C297 C301 1.495 . S
C298 C297 1.392 . S
C298 C299 1.385 . S
C298 C300 1.478 . S
C299 H293 0.930 . S
C299 C295 1.400 . S
C299 C298 1.385 . S
C300 C298 1.478 . S
C300 C302 1.381 . S
C300 C306 1.383 . S
C301 C297 1.495 . S
C301 H307 0.959 . S
C301 H308 0.961 . S
C301 H309 0.960 . S
C302 C300 1.381 . S
C302 C303 1.394 . S
C302 H310 0.930 . S
C303 C302 1.394 . S
C303 C304 1.383 . S
C303 H311 0.929 . S
C304 C303 1.383 . S
C304 C305 1.377 . S
C305 H289 0.930 . S
C305 C304 1.377 . S
C305 C306 1.379 . S
C306 H290 0.931 . S
C306 C300 1.383 . S
C306 C305 1.379 . S
H307 C301 0.959 . S
H308 C301 0.961 . S
H309 C301 0.960 . S
H310 C302 0.930 . S
H311 C303 0.929 . S
H312 C320 0.929 . S
H313 C322 0.930 . S
H314 C324 0.930 . S
H315 C327 0.929 . S
H316 C330 0.930 . S
H317 C332 0.960 . S
H318 C332 0.960 . S
H319 C332 0.960 . S
C320 H312 0.929 . S
C320 C321 1.377 . S
C320 C322 1.384 . S
C321 C320 1.377 . S
C321 C327 1.390 . S
C322 H313 0.930 . S
C322 C320 1.384 . S
C322 C323 1.372 . S
C323 C322 1.372 . S
C323 C324 1.400 . S
C323 C328 1.490 . S
C324 H314 0.930 . S
C324 C323 1.400 . S
C324 C327 1.386 . S
H325 C341 0.930 . S
H326 C342 0.931 . S
C327 H315 0.929 . S
C327 C321 1.390 . S
C327 C324 1.386 . S
C328 C323 1.490 . S
C328 C330 1.395 . S
C328 C331 1.403 . S
H329 C335 0.930 . S
C330 H316 0.930 . S
C330 C328 1.395 . S
C330 C333 1.403 . S
C331 C328 1.403 . S
C331 C332 1.524 . S
C331 C335 1.400 . S
C332 H317 0.960 . S
C332 H318 0.960 . S
C332 H319 0.960 . S
C332 C331 1.524 . S
C333 C330 1.403 . S
C333 C334 1.392 . S
C333 C337 1.495 . S
C334 C333 1.392 . S
C334 C335 1.385 . S
C334 C336 1.478 . S
C335 H329 0.930 . S
C335 C331 1.400 . S
C335 C334 1.385 . S
C336 C334 1.478 . S
C336 C338 1.381 . S
C336 C342 1.383 . S
C337 C333 1.495 . S
C337 H343 0.959 . S
C337 H344 0.961 . S
C337 H345 0.960 . S
C338 C336 1.381 . S
C338 C339 1.394 . S
C338 H346 0.930 . S
C339 C338 1.394 . S
C339 C340 1.383 . S
C339 H347 0.929 . S
C340 C339 1.383 . S
C340 C341 1.377 . S
C341 H325 0.930 . S
C341 C340 1.377 . S
C341 C342 1.379 . S
C342 H326 0.931 . S
C342 C336 1.383 . S
C342 C341 1.379 . S
H343 C337 0.959 . S
H344 C337 0.961 . S
H345 C337 0.960 . S
H346 C338 0.930 . S
H347 C339 0.929 . S
H348 C356 0.929 . S
H349 C358 0.930 . S
H350 C360 0.930 . S
H351 C363 0.929 . S
H352 C366 0.930 . S
H353 C368 0.960 . S
H354 C368 0.960 . S
H355 C368 0.960 . S
C356 H348 0.929 . S
C356 C357 1.377 . S
C356 C358 1.384 . S
C357 C356 1.377 . S
C357 C363 1.390 . S
C358 H349 0.930 . S
C358 C356 1.384 . S
C358 C359 1.372 . S
C359 C358 1.372 . S
C359 C360 1.400 . S
C359 C364 1.490 . S
C360 H350 0.930 . S
C360 C359 1.400 . S
C360 C363 1.386 . S
H361 C377 0.930 . S
H362 C378 0.931 . S
C363 H351 0.929 . S
C363 C357 1.390 . S
C363 C360 1.386 . S
C364 C359 1.490 . S
C364 C366 1.395 . S
C364 C367 1.403 . S
H365 C371 0.930 . S
C366 H352 0.930 . S
C366 C364 1.395 . S
C366 C369 1.403 . S
C367 C364 1.403 . S
C367 C368 1.524 . S
C367 C371 1.400 . S
C368 H353 0.960 . S
C368 H354 0.960 . S
C368 H355 0.960 . S
C368 C367 1.524 . S
C369 C366 1.403 . S
C369 C370 1.392 . S
C369 C373 1.495 . S
C370 C369 1.392 . S
C370 C371 1.385 . S
C370 C372 1.478 . S
C371 H365 0.930 . S
C371 C367 1.400 . S
C371 C370 1.385 . S
C372 C370 1.478 . S
C372 C374 1.381 . S
C372 C378 1.383 . S
C373 C369 1.495 . S
C373 H379 0.959 . S
C373 H380 0.961 . S
C373 H381 0.960 . S
C374 C372 1.381 . S
C374 C375 1.394 . S
C374 H382 0.930 . S
C375 C374 1.394 . S
C375 C376 1.383 . S
C375 H383 0.929 . S
C376 C375 1.383 . S
C376 C377 1.377 . S
C377 H361 0.930 . S
C377 C376 1.377 . S
C377 C378 1.379 . S
C378 H362 0.931 . S
C378 C372 1.383 . S
C378 C377 1.379 . S
H379 C373 0.959 . S
H380 C373 0.961 . S
H381 C373 0.960 . S
H382 C374 0.930 . S
H383 C375 0.929 . S
H384 C392 0.929 . S
H385 C394 0.930 . S
H386 C396 0.930 . S
H387 C399 0.929 . S
H388 C402 0.930 . S
H389 C404 0.960 . S
H390 C404 0.960 . S
H391 C404 0.960 . S
C392 H384 0.929 . S
C392 C393 1.377 . S
C392 C394 1.384 . S
C393 C392 1.377 . S
C393 C399 1.390 . S
C394 H385 0.930 . S
C394 C392 1.384 . S
C394 C395 1.372 . S
C395 C394 1.372 . S
C395 C396 1.400 . S
C395 C400 1.490 . S
C396 H386 0.930 . S
C396 C395 1.400 . S
C396 C399 1.386 . S
H397 C413 0.930 . S
H398 C414 0.931 . S
C399 H387 0.929 . S
C399 C393 1.390 . S
C399 C396 1.386 . S
C400 C395 1.490 . S
C400 C402 1.395 . S
C400 C403 1.403 . S
H401 C407 0.930 . S
C402 H388 0.930 . S
C402 C400 1.395 . S
C402 C405 1.403 . S
C403 C400 1.403 . S
C403 C404 1.524 . S
C403 C407 1.400 . S
C404 H389 0.960 . S
C404 H390 0.960 . S
C404 H391 0.960 . S
C404 C403 1.524 . S
C405 C402 1.403 . S
C405 C406 1.392 . S
C405 C409 1.495 . S
C406 C405 1.392 . S
C406 C407 1.385 . S
C406 C408 1.478 . S
C407 H401 0.930 . S
C407 C403 1.400 . S
C407 C406 1.385 . S
C408 C406 1.478 . S
C408 C410 1.381 . S
C408 C414 1.383 . S
C409 C405 1.495 . S
C409 H415 0.959 . S
C409 H416 0.961 . S
C409 H417 0.960 . S
C410 C408 1.381 . S
C410 C411 1.394 . S
C410 H418 0.930 . S
C411 C410 1.394 . S
C411 C412 1.383 . S
C411 H419 0.929 . S
C412 C411 1.383 . S
C412 C413 1.377 . S
C413 H397 0.930 . S
C413 C412 1.377 . S
C413 C414 1.379 . S
C414 H398 0.931 . S
C414 C408 1.383 . S
C414 C413 1.379 . S
H415 C409 0.959 . S
H416 C409 0.961 . S
H417 C409 0.960 . S
H418 C410 0.930 . S
H419 C411 0.929 . S
H420 C428 0.929 . S
H421 C430 0.930 . S
H422 C432 0.930 . S
H423 C435 0.929 . S
H424 C438 0.930 . S
H425 C440 0.960 . S
H426 C440 0.960 . S
H427 C440 0.960 . S
C428 H420 0.929 . S
C428 C429 1.377 . S
C428 C430 1.384 . S
C429 C428 1.377 . S
C429 C435 1.390 . S
C430 H421 0.930 . S
C430 C428 1.384 . S
C430 C431 1.372 . S
C431 C430 1.372 . S
C431 C432 1.400 . S
C431 C436 1.490 . S
C432 H422 0.930 . S
C432 C431 1.400 . S
C432 C435 1.386 . S
H433 C449 0.930 . S
H434 C450 0.931 . S
C435 H423 0.929 . S
C435 C429 1.390 . S
C435 C432 1.386 . S
C436 C431 1.490 . S
C436 C438 1.395 . S
C436 C439 1.403 . S
H437 C443 0.930 . S
C438 H424 0.930 . S
C438 C436 1.395 . S
C438 C441 1.403 . S
C439 C436 1.403 . S
C439 C440 1.524 . S
C439 C443 1.400 . S
C440 H425 0.960 . S
C440 H426 0.960 . S
C440 H427 0.960 . S
C440 C439 1.524 . S
C441 C438 1.403 . S
C441 C442 1.392 . S
C441 C445 1.495 . S
C442 C441 1.392 . S
C442 C443 1.385 . S
C442 C444 1.478 . S
C443 H437 0.930 . S
C443 C439 1.400 . S
C443 C442 1.385 . S
C444 C442 1.478 . S
C444 C446 1.381 . S
C444 C450 1.383 . S
C445 C441 1.495 . S
C445 H451 0.959 . S
C445 H452 0.961 . S
C445 H453 0.960 . S
C446 C444 1.381 . S
C446 C447 1.394 . S
C446 H454 0.930 . S
C447 C446 1.394 . S
C447 C448 1.383 . S
C447 H455 0.929 . S
C448 C447 1.383 . S
C448 C449 1.377 . S
C449 H433 0.930 . S
C449 C448 1.377 . S
C449 C450 1.379 . S
C450 H434 0.931 . S
C450 C444 1.383 . S
C450 C449 1.379 . S
H451 C445 0.959 . S
H452 C445 0.961 . S
H453 C445 0.960 . S
H454 C446 0.930 . S
H455 C447 0.929 . S
H456 C464 0.929 . S
H457 C466 0.930 . S
H458 C468 0.930 . S
H459 C471 0.929 . S
H460 C474 0.932 . S
H461 C476 0.960 . S
H462 C476 0.960 . S
H463 C476 0.960 . S
C464 H456 0.929 . S
C464 C465 1.377 . S
C464 C466 1.384 . S
C465 C464 1.377 . S
C465 C471 1.390 . S
C466 H457 0.930 . S
C466 C464 1.384 . S
C466 C467 1.372 . S
C467 C466 1.372 . S
C467 C468 1.400 . S
C467 C472 1.490 . S
C468 H458 0.930 . S
C468 C467 1.400 . S
C468 C471 1.386 . S
H469 C485 0.930 . S
H470 C486 0.931 . S
C471 H459 0.929 . S
C471 C465 1.390 . S
C471 C468 1.386 . S
C472 C467 1.490 . S
C472 C474 1.395 1_655 S
C472 C475 1.403 . S
H473 C479 0.930 . S
C474 H460 0.932 . S
C474 C472 1.395 1_455 S
C474 C477 1.403 . S
C475 C472 1.403 . S
C475 C476 1.524 . S
C475 C479 1.400 1_655 S
C476 H461 0.960 . S
C476 H462 0.960 . S
C476 H463 0.960 . S
C476 C475 1.524 . S
C477 C474 1.403 . S
C477 C478 1.392 . S
C477 C481 1.495 . S
C478 C477 1.392 . S
C478 C479 1.385 . S
C478 C480 1.478 . S
C479 H473 0.930 . S
C479 C475 1.400 1_455 S
C479 C478 1.385 . S
C480 C478 1.478 . S
C480 C482 1.381 . S
C480 C486 1.383 . S
C481 C477 1.495 . S
C481 H487 0.959 . S
C481 H488 0.961 . S
C481 H489 0.960 . S
C482 C480 1.381 . S
C482 C483 1.394 . S
C482 H490 0.930 . S
C483 C482 1.394 . S
C483 C484 1.383 . S
C483 H491 0.929 . S
C484 C483 1.383 . S
C484 C485 1.377 . S
C485 H469 0.930 . S
C485 C484 1.377 . S
C485 C486 1.379 . S
C486 H470 0.931 . S
C486 C480 1.383 . S
C486 C485 1.379 . S
H487 C481 0.959 . S
H488 C481 0.961 . S
H489 C481 0.960 . S
H490 C482 0.930 . S
H491 C483 0.929 . S
H492 C500 0.929 . S
H493 C502 0.930 . S
H494 C504 0.930 . S
H495 C507 0.929 . S
H496 C510 0.930 . S
H497 C512 0.960 . S
H498 C512 0.960 . S
H499 C512 0.960 . S
C500 H492 0.929 . S
C500 C501 1.377 . S
C500 C502 1.384 . S
C501 C500 1.377 . S
C501 C507 1.390 . S
C502 H493 0.930 . S
C502 C500 1.384 . S
C502 C503 1.372 . S
C503 C502 1.372 . S
C503 C504 1.400 . S
C503 C508 1.490 . S
C504 H494 0.930 . S
C504 C503 1.400 . S
C504 C507 1.386 . S
H505 C521 0.930 . S
H506 C522 0.931 . S
C507 H495 0.929 . S
C507 C501 1.390 . S
C507 C504 1.386 . S
C508 C503 1.490 . S
C508 C510 1.395 . S
C508 C511 1.403 . S
H509 C515 0.930 . S
C510 H496 0.930 . S
C510 C508 1.395 . S
C510 C513 1.403 1_545 S
C511 C508 1.403 . S
C511 C512 1.524 . S
C511 C515 1.400 1_545 S
C512 H497 0.960 . S
C512 H498 0.960 . S
C512 H499 0.960 . S
C512 C511 1.524 . S
C513 C510 1.403 1_565 S
C513 C514 1.392 . S
C513 C517 1.495 . S
C514 C513 1.392 . S
C514 C515 1.385 . S
C514 C516 1.478 . S
C515 H509 0.930 . S
C515 C511 1.400 1_565 S
C515 C514 1.385 . S
C516 C514 1.478 . S
C516 C518 1.381 . S
C516 C522 1.383 . S
C517 C513 1.495 . S
C517 H523 0.959 . S
C517 H524 0.961 . S
C517 H525 0.960 . S
C518 C516 1.381 . S
C518 C519 1.394 . S
C518 H526 0.930 . S
C519 C518 1.394 . S
C519 C520 1.383 . S
C519 H527 0.929 . S
C520 C519 1.383 . S
C520 C521 1.377 . S
C521 H505 0.930 . S
C521 C520 1.377 . S
C521 C522 1.379 . S
C522 H506 0.931 . S
C522 C516 1.383 . S
C522 C521 1.379 . S
H523 C517 0.959 . S
H524 C517 0.961 . S
H525 C517 0.960 . S
H526 C518 0.930 . S
H527 C519 0.929 . S
H528 C536 0.929 . S
H529 C538 0.930 . S
H530 C540 0.930 . S
H531 C543 0.929 . S
H532 C546 0.930 . S
H533 C548 0.960 . S
H534 C548 0.964 . S
H535 C548 0.960 1_655 S
C536 H528 0.929 . S
C536 C537 1.377 . S
C536 C538 1.384 . S
C537 C536 1.377 . S
C537 C543 1.390 . S
C538 H529 0.930 . S
C538 C536 1.384 . S
C538 C539 1.372 . S
C539 C538 1.372 . S
C539 C540 1.400 . S
C539 C544 1.490 . S
C540 H530 0.930 . S
C540 C539 1.400 . S
C540 C543 1.386 . S
H541 C557 0.930 . S
H542 C558 0.931 . S
C543 H531 0.929 . S
C543 C537 1.390 . S
C543 C540 1.386 . S
C544 C539 1.490 . S
C544 C546 1.395 . S
C544 C547 1.402 . S
H545 C551 0.930 . S
C546 H532 0.930 . S
C546 C544 1.395 . S
C546 C549 1.403 . S
C547 C544 1.402 . S
C547 C548 1.524 1_655 S
C547 C551 1.400 1_655 S
C548 H533 0.960 . S
C548 H534 0.964 . S
C548 H535 0.960 1_455 S
C548 C547 1.524 1_455 S
C549 C546 1.403 . S
C549 C550 1.392 1_655 S
C549 C553 1.495 . S
C550 C549 1.392 1_455 S
C550 C551 1.385 . S
C550 C552 1.478 . S
C551 H545 0.930 . S
C551 C547 1.400 1_455 S
C551 C550 1.385 . S
C552 C550 1.478 . S
C552 C554 1.381 . S
C552 C558 1.383 . S
C553 C549 1.495 . S
C553 H559 0.959 . S
C553 H560 0.966 . S
C553 H561 0.960 1_655 S
C554 C552 1.381 . S
C554 C555 1.394 . S
C554 H562 0.930 . S
C555 C554 1.394 . S
C555 C556 1.383 . S
C555 H563 0.929 . S
C556 C555 1.383 . S
C556 C557 1.377 . S
C557 H541 0.930 . S
C557 C556 1.377 . S
C557 C558 1.379 . S
C558 H542 0.931 . S
C558 C552 1.383 . S
C558 C557 1.379 . S
H559 C553 0.959 . S
H560 C553 0.966 . S
H561 C553 0.960 1_455 S
H562 C554 0.930 . S
H563 C555 0.929 . S
H564 C572 0.929 . S
H565 C574 0.930 . S
H566 C576 0.930 . S
H567 C579 0.929 . S
H568 C582 0.930 . S
H569 C584 0.960 . S
H570 C584 0.960 . S
H571 C584 0.960 . S
C572 H564 0.929 . S
C572 C573 1.377 . S
C572 C574 1.384 . S
C573 C572 1.377 . S
C573 C579 1.390 . S
C574 H565 0.930 . S
C574 C572 1.384 . S
C574 C575 1.372 . S
C575 C574 1.372 . S
C575 C576 1.400 . S
C575 C580 1.490 . S
C576 H566 0.930 . S
C576 C575 1.400 . S
C576 C579 1.386 . S
H577 C593 0.930 . S
H578 C594 0.931 . S
C579 H567 0.929 . S
C579 C573 1.390 . S
C579 C576 1.386 . S
C580 C575 1.490 . S
C580 C582 1.395 . S
C580 C583 1.403 . S
H581 C587 0.930 . S
C582 H568 0.930 . S
C582 C580 1.395 . S
C582 C585 1.403 1_545 S
C583 C580 1.403 . S
C583 C584 1.524 . S
C583 C587 1.400 1_545 S
C584 H569 0.960 . S
C584 H570 0.960 . S
C584 H571 0.960 . S
C584 C583 1.524 . S
C585 C582 1.403 1_565 S
C585 C586 1.392 . S
C585 C589 1.495 . S
C586 C585 1.392 . S
C586 C587 1.385 . S
C586 C588 1.478 . S
C587 H581 0.930 . S
C587 C583 1.400 1_565 S
C587 C586 1.385 . S
C588 C586 1.478 . S
C588 C590 1.381 . S
C588 C594 1.383 . S
C589 C585 1.495 . S
C589 H595 0.959 . S
C589 H596 0.961 . S
C589 H597 0.960 . S
C590 C588 1.381 . S
C590 C591 1.394 . S
C590 H598 0.930 . S
C591 C590 1.394 . S
C591 C592 1.383 . S
C591 H599 0.929 . S
C592 C591 1.383 . S
C592 C593 1.377 . S
C593 H577 0.930 . S
C593 C592 1.377 . S
C593 C594 1.379 . S
C594 H578 0.931 . S
C594 C588 1.383 . S
C594 C593 1.379 . S
H595 C589 0.959 . S
H596 C589 0.961 . S
H597 C589 0.960 . S
H598 C590 0.930 . S
H599 C591 0.929 . S
H600 C608 0.929 . S
H601 C610 0.930 . S
H602 C612 0.930 . S
H603 C615 0.929 . S
H604 C618 0.930 . S
H605 C620 0.960 . S
H606 C620 0.960 . S
H607 C620 0.960 . S
C608 H600 0.929 . S
C608 C609 1.377 . S
C608 C610 1.384 . S
C609 C608 1.377 . S
C609 C615 1.390 . S
C610 H601 0.930 . S
C610 C608 1.384 . S
C610 C611 1.372 . S
C611 C610 1.372 . S
C611 C612 1.400 . S
C611 C616 1.490 . S
C612 H602 0.930 . S
C612 C611 1.400 . S
C612 C615 1.386 . S
H613 C629 0.930 . S
H614 C630 0.931 . S
C615 H603 0.929 . S
C615 C609 1.390 . S
C615 C612 1.386 . S
C616 C611 1.490 . S
C616 C618 1.395 . S
C616 C619 1.403 . S
H617 C623 0.930 . S
C618 H604 0.930 . S
C618 C616 1.395 . S
C618 C621 1.403 1_455 S
C619 C616 1.403 . S
C619 C620 1.524 . S
C619 C623 1.400 1_455 S
C620 H605 0.960 . S
C620 H606 0.960 . S
C620 H607 0.960 . S
C620 C619 1.524 . S
C621 C618 1.403 1_655 S
C621 C622 1.392 . S
C621 C625 1.495 . S
C622 C621 1.392 . S
C622 C623 1.385 . S
C622 C624 1.478 . S
C623 H617 0.930 . S
C623 C619 1.400 1_655 S
C623 C622 1.385 . S
C624 C622 1.478 . S
C624 C626 1.381 . S
C624 C630 1.383 . S
C625 C621 1.495 . S
C625 H631 0.959 . S
C625 H632 0.961 . S
C625 H633 0.960 . S
C626 C624 1.381 . S
C626 C627 1.394 . S
C626 H634 0.930 . S
C627 C626 1.394 . S
C627 C628 1.383 . S
C627 H635 0.929 . S
C628 C627 1.383 . S
C628 C629 1.377 . S
C629 H613 0.930 . S
C629 C628 1.377 . S
C629 C630 1.379 . S
C630 H614 0.931 . S
C630 C624 1.383 . S
C630 C629 1.379 . S
H631 C625 0.959 . S
H632 C625 0.961 . S
H633 C625 0.960 . S
H634 C626 0.930 . S
H635 C627 0.929 . S
H636 C644 0.929 . S
H637 C646 0.930 . S
H638 C648 0.930 . S
H639 C651 0.929 . S
H640 C654 0.930 . S
H641 C656 0.960 . S
H642 C656 0.960 . S
H643 C656 0.960 . S
C644 H636 0.929 . S
C644 C645 1.377 . S
C644 C646 1.384 . S
C645 C644 1.377 . S
C645 C651 1.390 . S
C646 H637 0.930 . S
C646 C644 1.384 . S
C646 C647 1.372 . S
C647 C646 1.372 . S
C647 C648 1.400 . S
C647 C652 1.490 . S
C648 H638 0.930 . S
C648 C647 1.400 . S
C648 C651 1.386 . S
H649 C665 0.930 . S
H650 C666 0.931 . S
C651 H639 0.929 . S
C651 C645 1.390 . S
C651 C648 1.386 . S
C652 C647 1.490 . S
C652 C654 1.395 1_565 S
C652 C655 1.403 . S
H653 C659 0.929 1_565 S
C654 H640 0.930 . S
C654 C652 1.395 1_545 S
C654 C657 1.403 . S
C655 C652 1.403 . S
C655 C656 1.524 . S
C655 C659 1.368 1_565 S
C656 H641 0.960 . S
C656 H642 0.960 . S
C656 H643 0.960 . S
C656 C655 1.524 . S
C657 C654 1.403 . S
C657 C658 1.392 . S
C657 C661 1.495 . S
C658 C657 1.392 . S
C658 C659 1.419 . S
C658 C660 1.478 . S
C659 H653 0.929 1_545 S
C659 C655 1.368 1_545 S
C659 C658 1.419 . S
C660 C658 1.478 . S
C660 C662 1.381 . S
C660 C666 1.383 . S
C661 C657 1.495 . S
C661 H667 0.959 . S
C661 H668 0.961 . S
C661 H669 0.960 . S
C662 C660 1.381 . S
C662 C663 1.394 . S
C662 H670 0.930 . S
C663 C662 1.394 . S
C663 C664 1.383 . S
C663 H671 0.929 . S
C664 C663 1.383 . S
C664 C665 1.377 . S
C665 H649 0.930 . S
C665 C664 1.377 . S
C665 C666 1.379 . S
C666 H650 0.931 . S
C666 C660 1.383 . S
C666 C665 1.379 . S
H667 C661 0.959 . S
H668 C661 0.961 . S
H669 C661 0.960 . S
H670 C662 0.930 . S
H671 C663 0.929 . S
H672 C680 0.929 . S
H673 C682 0.930 . S
H674 C684 0.930 . S
H675 C687 0.929 . S
H676 C690 0.930 . S
H677 C692 0.960 . S
H678 C692 0.960 . S
H679 C692 0.960 . S
C680 H672 0.929 . S
C680 C681 1.377 . S
C680 C682 1.384 . S
C681 C680 1.377 . S
C681 C687 1.390 . S
C682 H673 0.930 . S
C682 C680 1.384 . S
C682 C683 1.372 . S
C683 C682 1.372 . S
C683 C684 1.400 . S
C683 C688 1.490 . S
C684 H674 0.930 . S
C684 C683 1.400 . S
C684 C687 1.386 . S
H685 C701 0.930 . S
H686 C702 0.931 . S
C687 H675 0.929 . S
C687 C681 1.390 . S
C687 C684 1.386 . S
C688 C683 1.490 . S
C688 C690 1.395 . S
C688 C691 1.403 1_655 S
H689 C695 0.930 . S
C690 H676 0.930 . S
C690 C688 1.395 . S
C690 C693 1.403 . S
C691 C688 1.403 1_455 S
C691 C692 1.524 . S
C691 C695 1.400 . S
C692 H677 0.960 . S
C692 H678 0.960 . S
C692 H679 0.960 . S
C692 C691 1.524 . S
C693 C690 1.403 . S
C693 C694 1.392 1_655 S
C693 C697 1.495 . S
C694 C693 1.392 1_455 S
C694 C695 1.385 . S
C694 C696 1.478 . S
C695 H689 0.930 . S
C695 C691 1.400 . S
C695 C694 1.385 . S
C696 C694 1.478 . S
C696 C698 1.381 . S
C696 C702 1.383 . S
C697 C693 1.495 . S
C697 H703 0.959 . S
C697 H704 0.961 . S
C697 H705 0.960 . S
C698 C696 1.381 . S
C698 C699 1.394 . S
C698 H706 0.930 . S
C699 C698 1.394 . S
C699 C700 1.383 . S
C699 H707 0.929 . S
C700 C699 1.383 . S
C700 C701 1.377 . S
C701 H685 0.930 . S
C701 C700 1.377 . S
C701 C702 1.379 . S
C702 H686 0.931 . S
C702 C696 1.383 . S
C702 C701 1.379 . S
H703 C697 0.959 . S
H704 C697 0.961 . S
H705 C697 0.960 . S
H706 C698 0.930 . S
H707 C699 0.929 . S
H708 C716 0.929 . S
H709 C718 0.930 . S
H710 C720 0.930 . S
H711 C723 0.929 . S
H712 C726 0.930 . S
H713 C728 0.960 1_545 S
H714 C728 0.960 . S
H715 C728 0.960 . S
C716 H708 0.929 . S
C716 C717 1.377 . S
C716 C718 1.384 . S
C717 C716 1.377 . S
C717 C723 1.390 . S
C718 H709 0.930 . S
C718 C716 1.384 . S
C718 C719 1.372 . S
C719 C718 1.372 . S
C719 C720 1.400 . S
C719 C724 1.490 . S
C720 H710 0.930 . S
C720 C719 1.400 . S
C720 C723 1.386 . S
H721 C737 0.930 . S
H722 C738 0.931 . S
C723 H711 0.929 . S
C723 C717 1.390 . S
C723 C720 1.386 . S
C724 C719 1.490 . S
C724 C726 1.395 . S
C724 C727 1.403 . S
H725 C731 0.930 . S
C726 H712 0.930 . S
C726 C724 1.395 . S
C726 C729 1.435 . S
C727 C724 1.403 . S
C727 C728 1.524 . S
C727 C731 1.400 1_565 S
C728 H713 0.960 1_565 S
C728 H714 0.960 . S
C728 H715 0.960 . S
C728 C727 1.524 . S
C729 C726 1.435 . S
C729 C730 1.362 1_565 S
C729 C733 1.495 . S
C730 C729 1.362 1_545 S
C730 C731 1.385 . S
C730 C732 1.478 . S
C731 H725 0.930 . S
C731 C727 1.400 1_545 S
C731 C730 1.385 . S
C732 C730 1.478 . S
C732 C734 1.381 . S
C732 C738 1.383 . S
C733 C729 1.495 . S
C733 H739 0.998 . S
C733 H740 0.925 1_565 S
C733 H741 0.958 . S
C734 C732 1.381 . S
C734 C735 1.394 . S
C734 H742 0.930 . S
C735 C734 1.394 . S
C735 C736 1.383 . S
C735 H743 0.929 . S
C736 C735 1.383 . S
C736 C737 1.377 . S
C737 H721 0.930 . S
C737 C736 1.377 . S
C737 C738 1.379 . S
C738 H722 0.931 . S
C738 C732 1.383 . S
C738 C737 1.379 . S
H739 C733 0.998 . S
H740 C733 0.925 1_545 S
H741 C733 0.958 . S
H742 C734 0.930 . S
H743 C735 0.929 . S
H744 C752 0.929 . S
H745 C754 0.930 . S
H746 C756 0.930 . S
H747 C759 0.929 . S
H748 C762 0.930 . S
H749 C764 0.960 . S
H750 C764 0.960 . S
H751 C764 0.960 . S
C752 H744 0.929 . S
C752 C753 1.377 . S
C752 C754 1.384 . S
C753 C752 1.377 . S
C753 C759 1.390 . S
C754 H745 0.930 . S
C754 C752 1.384 . S
C754 C755 1.372 . S
C755 C754 1.372 . S
C755 C756 1.400 . S
C755 C760 1.490 . S
C756 H746 0.930 . S
C756 C755 1.400 . S
C756 C759 1.386 . S
H757 C773 0.930 . S
H758 C774 0.931 . S
C759 H747 0.929 . S
C759 C753 1.390 . S
C759 C756 1.386 . S
C760 C755 1.490 . S
C760 C762 1.395 . S
C760 C763 1.403 . S
H761 C767 0.930 . S
C762 H748 0.930 . S
C762 C760 1.395 . S
C762 C765 1.403 . S
C763 C760 1.403 . S
C763 C764 1.524 . S
C763 C767 1.400 . S
C764 H749 0.960 . S
C764 H750 0.960 . S
C764 H751 0.960 . S
C764 C763 1.524 . S
C765 C762 1.403 . S
C765 C766 1.392 . S
C765 C769 1.495 . S
C766 C765 1.392 . S
C766 C767 1.385 . S
C766 C768 1.478 . S
C767 H761 0.930 . S
C767 C763 1.400 . S
C767 C766 1.385 . S
C768 C766 1.478 . S
C768 C770 1.381 . S
C768 C774 1.383 . S
C769 C765 1.495 . S
C769 H775 0.959 . S
C769 H776 0.961 . S
C769 H777 0.960 . S
C770 C768 1.381 . S
C770 C771 1.394 . S
C770 H778 0.930 . S
C771 C770 1.394 . S
C771 C772 1.383 . S
C771 H779 0.929 . S
C772 C771 1.383 . S
C772 C773 1.377 . S
C773 H757 0.930 . S
C773 C772 1.377 . S
C773 C774 1.379 . S
C774 H758 0.931 . S
C774 C768 1.383 . S
C774 C773 1.379 . S
H775 C769 0.959 . S
H776 C769 0.961 . S
H777 C769 0.960 . S
H778 C770 0.930 . S
H779 C771 0.929 . S
H780 C788 0.929 . S
H781 C790 0.930 . S
H782 C792 0.930 . S
H783 C795 0.929 . S
H784 C798 0.930 . S
H785 C800 0.960 . S
H786 C800 0.960 . S
H787 C800 0.960 . S
C788 H780 0.929 . S
C788 C789 1.377 . S
C788 C790 1.384 . S
C789 C788 1.377 . S
C789 C795 1.390 . S
C790 H781 0.930 . S
C790 C788 1.384 . S
C790 C791 1.372 . S
C791 C790 1.372 . S
C791 C792 1.400 . S
C791 C796 1.490 . S
C792 H782 0.930 . S
C792 C791 1.400 . S
C792 C795 1.386 . S
H793 C809 0.930 . S
H794 C810 0.931 . S
C795 H783 0.929 . S
C795 C789 1.390 . S
C795 C792 1.386 . S
C796 C791 1.490 . S
C796 C798 1.395 . S
C796 C799 1.403 . S
H797 C803 0.930 . S
C798 H784 0.930 . S
C798 C796 1.395 . S
C798 C801 1.403 . S
C799 C796 1.403 . S
C799 C800 1.524 . S
C799 C803 1.400 . S
C800 H785 0.960 . S
C800 H786 0.960 . S
C800 H787 0.960 . S
C800 C799 1.524 . S
C801 C798 1.403 . S
C801 C802 1.392 . S
C801 C805 1.495 . S
C802 C801 1.392 . S
C802 C803 1.385 . S
C802 C804 1.478 . S
C803 H797 0.930 . S
C803 C799 1.400 . S
C803 C802 1.385 . S
C804 C802 1.478 . S
C804 C806 1.381 . S
C804 C810 1.383 . S
C805 C801 1.495 . S
C805 H811 0.959 . S
C805 H812 0.961 . S
C805 H813 0.960 . S
C806 C804 1.381 . S
C806 C807 1.394 . S
C806 H814 0.930 . S
C807 C806 1.394 . S
C807 C808 1.383 . S
C807 H815 0.929 . S
C808 C807 1.383 . S
C808 C809 1.377 . S
C809 H793 0.930 . S
C809 C808 1.377 . S
C809 C810 1.379 . S
C810 H794 0.931 . S
C810 C804 1.383 . S
C810 C809 1.379 . S
H811 C805 0.959 . S
H812 C805 0.961 . S
H813 C805 0.960 . S
H814 C806 0.930 . S
H815 C807 0.929 . S
H816 C824 0.929 . S
H817 C826 0.930 . S
H818 C828 0.930 . S
H819 C831 0.929 . S
H820 C834 0.930 . S
H821 C836 0.960 . S
H822 C836 0.960 . S
H823 C836 0.960 . S
C824 H816 0.929 . S
C824 C825 1.377 . S
C824 C826 1.384 . S
C825 C824 1.377 . S
C825 C831 1.390 . S
C826 H817 0.930 . S
C826 C824 1.384 . S
C826 C827 1.372 . S
C827 C826 1.372 . S
C827 C828 1.400 . S
C827 C832 1.490 . S
C828 H818 0.930 . S
C828 C827 1.400 . S
C828 C831 1.386 . S
H829 C845 0.930 . S
H830 C846 0.931 . S
C831 H819 0.929 . S
C831 C825 1.390 . S
C831 C828 1.386 . S
C832 C827 1.490 . S
C832 C834 1.395 . S
C832 C835 1.403 . S
H833 C839 0.930 . S
C834 H820 0.930 . S
C834 C832 1.395 . S
C834 C837 1.403 . S
C835 C832 1.403 . S
C835 C836 1.524 . S
C835 C839 1.400 . S
C836 H821 0.960 . S
C836 H822 0.960 . S
C836 H823 0.960 . S
C836 C835 1.524 . S
C837 C834 1.403 . S
C837 C838 1.392 . S
C837 C841 1.495 . S
C838 C837 1.392 . S
C838 C839 1.385 . S
C838 C840 1.478 . S
C839 H833 0.930 . S
C839 C835 1.400 . S
C839 C838 1.385 . S
C840 C838 1.478 . S
C840 C842 1.381 . S
C840 C846 1.383 . S
C841 C837 1.495 . S
C841 H847 0.959 . S
C841 H848 0.961 . S
C841 H849 0.960 . S
C842 C840 1.381 . S
C842 C843 1.394 . S
C842 H850 0.930 . S
C843 C842 1.394 . S
C843 C844 1.383 . S
C843 H851 0.929 . S
C844 C843 1.383 . S
C844 C845 1.377 . S
C845 H829 0.930 . S
C845 C844 1.377 . S
C845 C846 1.379 . S
C846 H830 0.931 . S
C846 C840 1.383 . S
C846 C845 1.379 . S
H847 C841 0.959 . S
H848 C841 0.961 . S
H849 C841 0.960 . S
H850 C842 0.930 . S
H851 C843 0.929 . S
H852 C860 0.929 . S
H853 C862 0.930 . S
H854 C864 0.930 . S
H855 C867 0.929 . S
H856 C870 0.930 . S
H857 C872 0.960 . S
H858 C872 0.960 . S
H859 C872 0.960 . S
C860 H852 0.929 . S
C860 C861 1.377 . S
C860 C862 1.384 . S
C861 C860 1.377 . S
C861 C867 1.390 . S
C862 H853 0.930 . S
C862 C860 1.384 . S
C862 C863 1.372 . S
C863 C862 1.372 . S
C863 C864 1.400 . S
C863 C868 1.490 . S
C864 H854 0.930 . S
C864 C863 1.400 . S
C864 C867 1.386 . S
H865 C881 0.930 . S
H866 C882 0.931 . S
C867 H855 0.929 . S
C867 C861 1.390 . S
C867 C864 1.386 . S
C868 C863 1.490 . S
C868 C870 1.395 . S
C868 C871 1.403 . S
H869 C875 0.930 . S
C870 H856 0.930 . S
C870 C868 1.395 . S
C870 C873 1.403 . S
C871 C868 1.403 . S
C871 C872 1.524 . S
C871 C875 1.400 . S
C872 H857 0.960 . S
C872 H858 0.960 . S
C872 H859 0.960 . S
C872 C871 1.524 . S
C873 C870 1.403 . S
C873 C874 1.392 . S
C873 C877 1.495 . S
C874 C873 1.392 . S
C874 C875 1.385 . S
C874 C876 1.478 . S
C875 H869 0.930 . S
C875 C871 1.400 . S
C875 C874 1.385 . S
C876 C874 1.478 . S
C876 C878 1.381 . S
C876 C882 1.383 . S
C877 C873 1.495 . S
C877 H883 0.959 . S
C877 H884 0.961 . S
C877 H885 0.960 . S
C878 C876 1.381 . S
C878 C879 1.394 . S
C878 H886 0.930 . S
C879 C878 1.394 . S
C879 C880 1.383 . S
C879 H887 0.929 . S
C880 C879 1.383 . S
C880 C881 1.377 . S
C881 H865 0.930 . S
C881 C880 1.377 . S
C881 C882 1.379 . S
C882 H866 0.931 . S
C882 C876 1.383 . S
C882 C881 1.379 . S
H883 C877 0.959 . S
H884 C877 0.961 . S
H885 C877 0.960 . S
H886 C878 0.930 . S
H887 C879 0.929 . S
H888 C896 0.929 . S
H889 C898 0.930 . S
H890 C900 0.930 . S
H891 C903 0.929 . S
H892 C906 0.930 . S
H893 C908 0.960 . S
H894 C908 0.960 . S
H895 C908 0.960 . S
C896 H888 0.929 . S
C896 C897 1.377 . S
C896 C898 1.384 . S
C897 C896 1.377 . S
C897 C903 1.390 . S
C898 H889 0.930 . S
C898 C896 1.384 . S
C898 C899 1.372 . S
C899 C898 1.372 . S
C899 C900 1.400 . S
C899 C904 1.490 . S
C900 H890 0.930 . S
C900 C899 1.400 . S
C900 C903 1.386 . S
H901 C917 0.930 . S
H902 C918 0.931 . S
C903 H891 0.929 . S
C903 C897 1.390 . S
C903 C900 1.386 . S
C904 C899 1.490 . S
C904 C906 1.395 . S
C904 C907 1.403 . S
H905 C911 0.930 . S
C906 H892 0.930 . S
C906 C904 1.395 . S
C906 C909 1.403 . S
C907 C904 1.403 . S
C907 C908 1.524 . S
C907 C911 1.400 . S
C908 H893 0.960 . S
C908 H894 0.960 . S
C908 H895 0.960 . S
C908 C907 1.524 . S
C909 C906 1.403 . S
C909 C910 1.392 . S
C909 C913 1.495 . S
C910 C909 1.392 . S
C910 C911 1.385 . S
C910 C912 1.478 . S
C911 H905 0.930 . S
C911 C907 1.400 . S
C911 C910 1.385 . S
C912 C910 1.478 . S
C912 C914 1.381 . S
C912 C918 1.383 . S
C913 C909 1.495 . S
C913 H919 0.959 . S
C913 H920 0.961 . S
C913 H921 0.960 . S
C914 C912 1.381 . S
C914 C915 1.394 . S
C914 H922 0.930 . S
C915 C914 1.394 . S
C915 C916 1.383 . S
C915 H923 0.929 . S
C916 C915 1.383 . S
C916 C917 1.377 . S
C917 H901 0.930 . S
C917 C916 1.377 . S
C917 C918 1.379 . S
C918 H902 0.931 . S
C918 C912 1.383 . S
C918 C917 1.379 . S
H919 C913 0.959 . S
H920 C913 0.961 . S
H921 C913 0.960 . S
H922 C914 0.930 . S
H923 C915 0.929 . S
H924 C932 0.929 . S
H925 C934 0.930 . S
H926 C936 0.930 . S
H927 C939 0.929 . S
H928 C942 0.930 . S
H929 C944 0.960 . S
H930 C944 0.960 . S
H931 C944 0.960 . S
C932 H924 0.929 . S
C932 C933 1.377 . S
C932 C934 1.384 . S
C933 C932 1.377 . S
C933 C939 1.390 . S
C934 H925 0.930 . S
C934 C932 1.384 . S
C934 C935 1.372 . S
C935 C934 1.372 . S
C935 C936 1.400 . S
C935 C940 1.490 . S
C936 H926 0.930 . S
C936 C935 1.400 . S
C936 C939 1.386 . S
H937 C953 0.930 . S
H938 C954 0.931 . S
C939 H927 0.929 . S
C939 C933 1.390 . S
C939 C936 1.386 . S
C940 C935 1.490 . S
C940 C942 1.395 . S
C940 C943 1.403 . S
H941 C947 0.930 . S
C942 H928 0.930 . S
C942 C940 1.395 . S
C942 C945 1.403 . S
C943 C940 1.403 . S
C943 C944 1.524 . S
C943 C947 1.400 . S
C944 H929 0.960 . S
C944 H930 0.960 . S
C944 H931 0.960 . S
C944 C943 1.524 . S
C945 C942 1.403 . S
C945 C946 1.392 . S
C945 C949 1.495 . S
C946 C945 1.392 . S
C946 C947 1.385 . S
C946 C948 1.478 . S
C947 H941 0.930 . S
C947 C943 1.400 . S
C947 C946 1.385 . S
C948 C946 1.478 . S
C948 C950 1.381 . S
C948 C954 1.383 . S
C949 C945 1.495 . S
C949 H955 0.959 . S
C949 H956 0.961 . S
C949 H957 0.960 . S
C950 C948 1.381 . S
C950 C951 1.394 . S
C950 H958 0.930 . S
C951 C950 1.394 . S
C951 C952 1.383 . S
C951 H959 0.929 . S
C952 C951 1.383 . S
C952 C953 1.377 . S
C953 H937 0.930 . S
C953 C952 1.377 . S
C953 C954 1.379 . S
C954 H938 0.931 . S
C954 C948 1.383 . S
C954 C953 1.379 . S
H955 C949 0.959 . S
H956 C949 0.961 . S
H957 C949 0.960 . S
H958 C950 0.930 . S
H959 C951 0.929 . S
H960 C968 0.929 . S
H961 C970 0.930 . S
H962 C972 0.930 . S
H963 C975 0.929 . S
H964 C978 0.930 . S
H965 C980 0.960 . S
H966 C980 0.960 . S
H967 C980 0.960 . S
C968 H960 0.929 . S
C968 C969 1.377 . S
C968 C970 1.384 . S
C969 C968 1.377 . S
C969 C975 1.390 . S
C970 H961 0.930 . S
C970 C968 1.384 . S
C970 C971 1.372 . S
C971 C970 1.372 . S
C971 C972 1.400 . S
C971 C976 1.490 . S
C972 H962 0.930 . S
C972 C971 1.400 . S
C972 C975 1.386 . S
H973 C989 0.930 . S
H974 C990 0.931 . S
C975 H963 0.929 . S
C975 C969 1.390 . S
C975 C972 1.386 . S
C976 C971 1.490 . S
C976 C978 1.395 . S
C976 C979 1.403 . S
H977 C983 0.930 . S
C978 H964 0.930 . S
C978 C976 1.395 . S
C978 C981 1.403 . S
C979 C976 1.403 . S
C979 C980 1.524 . S
C979 C983 1.400 . S
C980 H965 0.960 . S
C980 H966 0.960 . S
C980 H967 0.960 . S
C980 C979 1.524 . S
C981 C978 1.403 . S
C981 C982 1.392 . S
C981 C985 1.495 . S
C982 C981 1.392 . S
C982 C983 1.385 . S
C982 C984 1.478 . S
C983 H977 0.930 . S
C983 C979 1.400 . S
C983 C982 1.385 . S
C984 C982 1.478 . S
C984 C986 1.381 . S
C984 C990 1.383 . S
C985 C981 1.495 . S
C985 H991 0.959 . S
C985 H992 0.961 . S
C985 H993 0.960 . S
C986 C984 1.381 . S
C986 C987 1.394 . S
C986 H994 0.930 . S
C987 C986 1.394 . S
C987 C988 1.383 . S
C987 H995 0.929 . S
C988 C987 1.383 . S
C988 C989 1.377 . S
C989 H973 0.930 . S
C989 C988 1.377 . S
C989 C990 1.379 . S
C990 H974 0.931 . S
C990 C984 1.383 . S
C990 C989 1.379 . S
H991 C985 0.959 . S
H992 C985 0.961 . S
H993 C985 0.960 . S
H994 C986 0.930 . S
H995 C987 0.929 . S
H996 C1004 0.929 . S
H997 C1006 0.930 . S
H998 C1008 0.930 . S
H999 C1011 0.929 . S
H1000 C1014 0.930 . S
H1001 C1016 0.960 . S
H1002 C1016 0.960 . S
H1003 C1016 0.960 . S
C1004 H996 0.929 . S
C1004 C1005 1.377 . S
C1004 C1006 1.384 . S
C1005 C1004 1.377 . S
C1005 C1011 1.390 . S
C1006 H997 0.930 . S
C1006 C1004 1.384 . S
C1006 C1007 1.372 . S
C1007 C1006 1.372 . S
C1007 C1008 1.400 . S
C1007 C1012 1.490 . S
C1008 H998 0.930 . S
C1008 C1007 1.400 . S
C1008 C1011 1.386 . S
H1009 C1025 0.930 . S
H1010 C1026 0.931 . S
C1011 H999 0.929 . S
C1011 C1005 1.390 . S
C1011 C1008 1.386 . S
C1012 C1007 1.490 . S
C1012 C1014 1.395 . S
C1012 C1015 1.403 . S
H1013 C1019 0.930 . S
C1014 H1000 0.930 . S
C1014 C1012 1.395 . S
C1014 C1017 1.403 . S
C1015 C1012 1.403 . S
C1015 C1016 1.524 . S
C1015 C1019 1.400 . S
C1016 H1001 0.960 . S
C1016 H1002 0.960 . S
C1016 H1003 0.960 . S
C1016 C1015 1.524 . S
C1017 C1014 1.403 . S
C1017 C1018 1.392 . S
C1017 C1021 1.495 . S
C1018 C1017 1.392 . S
C1018 C1019 1.385 . S
C1018 C1020 1.478 . S
C1019 H1013 0.930 . S
C1019 C1015 1.400 . S
C1019 C1018 1.385 . S
C1020 C1018 1.478 . S
C1020 C1022 1.381 . S
C1020 C1026 1.383 . S
C1021 C1017 1.495 . S
C1021 H1027 0.959 . S
C1021 H1028 0.961 . S
C1021 H1029 0.960 . S
C1022 C1020 1.381 . S
C1022 C1023 1.394 . S
C1022 H1030 0.930 . S
C1023 C1022 1.394 . S
C1023 C1024 1.383 . S
C1023 H1031 0.929 . S
C1024 C1023 1.383 . S
C1024 C1025 1.377 . S
C1025 H1009 0.930 . S
C1025 C1024 1.377 . S
C1025 C1026 1.379 . S
C1026 H1010 0.931 . S
C1026 C1020 1.383 . S
C1026 C1025 1.379 . S
H1027 C1021 0.959 . S
H1028 C1021 0.961 . S
H1029 C1021 0.960 . S
H1030 C1022 0.930 . S
H1031 C1023 0.929 . S
C177 C133 1.279 . S
C196 C4 1.237 . S
C213 C25 1.283 . S
C232 C151 1.301 . S
C249 C88 1.274 . S
C268 C49 1.325 . S
C285 C70 1.280 . S
C304 C112 1.236 . S
C321 C100 1.090 . S
C340 C45 1.045 . S
C357 C66 1.088 . S
C376 C108 1.131 . S
C393 C129 1.099 . S
C412 C16 1.098 . S
C429 C37 1.083 . S
C448 C163 1.033 . S
C465 C28 1.285 . S
C484 C109 1.228 . S
C501 C130 1.289 . S
C520 C46 1.241 . S
C537 C154 1.284 . S
C556 C67 1.295 . S
C573 C7 1.269 . S
C592 C91 1.302 . S
C609 C79 1.078 . S
C628 C150 1.076 . S
C645 C87 1.085 . S
C664 C3 1.034 . S
C681 C24 1.094 . S
C700 C121 1.141 . S
C717 C58 1.084 . S
C736 C142 1.115 . S
C753 C167 0.948 . S
C772 C20 0.923 . S
C789 C41 0.921 . S
C808 C104 0.953 . S
C825 C61 0.931 . S
C844 C124 0.998 . S
C861 C145 0.922 . S
C880 C82 0.974 . S
C897 C125 0.939 . S
C916 C62 0.991 . S
C933 C146 0.922 . S
C952 C83 0.903 . S
C969 C166 0.945 . S
C988 C19 0.966 . S
C1005 C103 0.931 . S
C1024 C40 0.870 . S
