# Generated by pormake.
# Topology soq, (7)-cn, num edge types: 1
# Building blocks:
#     Node 0, Type 0, BuildingBlock: NUHQUE_clean_sbu_2, # of connection points: 7
#     Node 1, Type 0, BuildingBlock: NUHQUE_clean_sbu_2, # of connection points: 7
#     Node 2, Type 0, BuildingBlock: NUHQUE_clean_sbu_2, # of connection points: 7
#     Node 3, Type 0, BuildingBlock: NUHQUE_clean_sbu_2, # of connection points: 7
#     Node 4, Type 0, BuildingBlock: NUHQUE_clean_sbu_2, # of connection points: 7
#     Node 5, Type 0, BuildingBlock: NUHQUE_clean_sbu_2, # of connection points: 7
#     Node 6, Type 0, BuildingBlock: NUHQUE_clean_sbu_2, # of connection points: 7
#     Node 7, Type 0, BuildingBlock: NUHQUE_clean_sbu_2, # of connection points: 7
#     Node 8, Type 0, BuildingBlock: NUHQUE_clean_sbu_2, # of connection points: 7
#     Node 9, Type 0, BuildingBlock: NUHQUE_clean_sbu_2, # of connection points: 7
#     Node 10, Type 0, BuildingBlock: NUHQUE_clean_sbu_2, # of connection points: 7
#     Node 11, Type 0, BuildingBlock: NUHQUE_clean_sbu_2, # of connection points: 7
#     Node 12, Type 0, BuildingBlock: NUHQUE_clean_sbu_2, # of connection points: 7
#     Node 13, Type 0, BuildingBlock: NUHQUE_clean_sbu_2, # of connection points: 7
#     Node 14, Type 0, BuildingBlock: NUHQUE_clean_sbu_2, # of connection points: 7
#     Node 15, Type 0, BuildingBlock: NUHQUE_clean_sbu_2, # of connection points: 7
#     Node 16, Type 0, BuildingBlock: NUHQUE_clean_sbu_2, # of connection points: 7
#     Node 17, Type 0, BuildingBlock: NUHQUE_clean_sbu_2, # of connection points: 7
#     Node 18, Type 0, BuildingBlock: NUHQUE_clean_sbu_2, # of connection points: 7
#     Node 19, Type 0, BuildingBlock: NUHQUE_clean_sbu_2, # of connection points: 7
#     Node 20, Type 0, BuildingBlock: NUHQUE_clean_sbu_2, # of connection points: 7
#     Node 21, Type 0, BuildingBlock: NUHQUE_clean_sbu_2, # of connection points: 7
#     Node 22, Type 0, BuildingBlock: NUHQUE_clean_sbu_2, # of connection points: 7
#     Node 23, Type 0, BuildingBlock: NUHQUE_clean_sbu_2, # of connection points: 7
#     Node 24, Type 0, BuildingBlock: NUHQUE_clean_sbu_2, # of connection points: 7
#     Node 25, Type 0, BuildingBlock: NUHQUE_clean_sbu_2, # of connection points: 7
#     Node 26, Type 0, BuildingBlock: NUHQUE_clean_sbu_2, # of connection points: 7
#     Node 27, Type 0, BuildingBlock: NUHQUE_clean_sbu_2, # of connection points: 7
#     Node 28, Type 0, BuildingBlock: NUHQUE_clean_sbu_2, # of connection points: 7
#     Node 29, Type 0, BuildingBlock: NUHQUE_clean_sbu_2, # of connection points: 7
#     Node 30, Type 0, BuildingBlock: NUHQUE_clean_sbu_2, # of connection points: 7
#     Node 31, Type 0, BuildingBlock: NUHQUE_clean_sbu_2, # of connection points: 7
#     Edge 32, Type (0, 0), BuildingBlock: XUDNAN_clean_linker_2, # of connection points: 2
#     Edge 33, Type (0, 0), BuildingBlock: XUDNAN_clean_linker_2, # of connection points: 2
#     Edge 34, Type (0, 0), BuildingBlock: XUDNAN_clean_linker_2, # of connection points: 2
#     Edge 35, Type (0, 0), BuildingBlock: XUDNAN_clean_linker_2, # of connection points: 2
#     Edge 36, Type (0, 0), BuildingBlock: XUDNAN_clean_linker_2, # of connection points: 2
#     Edge 37, Type (0, 0), BuildingBlock: XUDNAN_clean_linker_2, # of connection points: 2
#     Edge 38, Type (0, 0), BuildingBlock: XUDNAN_clean_linker_2, # of connection points: 2
#     Edge 39, Type (0, 0), BuildingBlock: XUDNAN_clean_linker_2, # of connection points: 2
#     Edge 40, Type (0, 0), BuildingBlock: XUDNAN_clean_linker_2, # of connection points: 2
#     Edge 41, Type (0, 0), BuildingBlock: XUDNAN_clean_linker_2, # of connection points: 2
#     Edge 42, Type (0, 0), BuildingBlock: XUDNAN_clean_linker_2, # of connection points: 2
#     Edge 43, Type (0, 0), BuildingBlock: XUDNAN_clean_linker_2, # of connection points: 2
#     Edge 44, Type (0, 0), BuildingBlock: XUDNAN_clean_linker_2, # of connection points: 2
#     Edge 45, Type (0, 0), BuildingBlock: XUDNAN_clean_linker_2, # of connection points: 2
#     Edge 46, Type (0, 0), BuildingBlock: XUDNAN_clean_linker_2, # of connection points: 2
#     Edge 47, Type (0, 0), BuildingBlock: XUDNAN_clean_linker_2, # of connection points: 2
#     Edge 48, Type (0, 0), BuildingBlock: XUDNAN_clean_linker_2, # of connection points: 2
#     Edge 49, Type (0, 0), BuildingBlock: XUDNAN_clean_linker_2, # of connection points: 2
#     Edge 50, Type (0, 0), BuildingBlock: XUDNAN_clean_linker_2, # of connection points: 2
#     Edge 51, Type (0, 0), BuildingBlock: XUDNAN_clean_linker_2, # of connection points: 2
#     Edge 52, Type (0, 0), BuildingBlock: XUDNAN_clean_linker_2, # of connection points: 2
#     Edge 53, Type (0, 0), BuildingBlock: XUDNAN_clean_linker_2, # of connection points: 2
#     Edge 54, Type (0, 0), BuildingBlock: XUDNAN_clean_linker_2, # of connection points: 2
#     Edge 55, Type (0, 0), BuildingBlock: XUDNAN_clean_linker_2, # of connection points: 2
#     Edge 56, Type (0, 0), BuildingBlock: XUDNAN_clean_linker_2, # of connection points: 2
#     Edge 57, Type (0, 0), BuildingBlock: XUDNAN_clean_linker_2, # of connection points: 2
#     Edge 58, Type (0, 0), BuildingBlock: XUDNAN_clean_linker_2, # of connection points: 2
#     Edge 59, Type (0, 0), BuildingBlock: XUDNAN_clean_linker_2, # of connection points: 2
#     Edge 60, Type (0, 0), BuildingBlock: XUDNAN_clean_linker_2, # of connection points: 2
#     Edge 61, Type (0, 0), BuildingBlock: XUDNAN_clean_linker_2, # of connection points: 2
#     Edge 62, Type (0, 0), BuildingBlock: XUDNAN_clean_linker_2, # of connection points: 2
#     Edge 63, Type (0, 0), BuildingBlock: XUDNAN_clean_linker_2, # of connection points: 2
#     Edge 64, Type (0, 0), BuildingBlock: XUDNAN_clean_linker_2, # of connection points: 2
#     Edge 65, Type (0, 0), BuildingBlock: XUDNAN_clean_linker_2, # of connection points: 2
#     Edge 66, Type (0, 0), BuildingBlock: XUDNAN_clean_linker_2, # of connection points: 2
#     Edge 67, Type (0, 0), BuildingBlock: XUDNAN_clean_linker_2, # of connection points: 2
#     Edge 68, Type (0, 0), BuildingBlock: XUDNAN_clean_linker_2, # of connection points: 2
#     Edge 69, Type (0, 0), BuildingBlock: XUDNAN_clean_linker_2, # of connection points: 2
#     Edge 70, Type (0, 0), BuildingBlock: XUDNAN_clean_linker_2, # of connection points: 2
#     Edge 71, Type (0, 0), BuildingBlock: XUDNAN_clean_linker_2, # of connection points: 2
#     Edge 72, Type (0, 0), BuildingBlock: XUDNAN_clean_linker_2, # of connection points: 2
#     Edge 73, Type (0, 0), BuildingBlock: XUDNAN_clean_linker_2, # of connection points: 2
#     Edge 74, Type (0, 0), BuildingBlock: XUDNAN_clean_linker_2, # of connection points: 2
#     Edge 75, Type (0, 0), BuildingBlock: XUDNAN_clean_linker_2, # of connection points: 2
#     Edge 76, Type (0, 0), BuildingBlock: XUDNAN_clean_linker_2, # of connection points: 2
#     Edge 77, Type (0, 0), BuildingBlock: XUDNAN_clean_linker_2, # of connection points: 2
#     Edge 78, Type (0, 0), BuildingBlock: XUDNAN_clean_linker_2, # of connection points: 2
#     Edge 79, Type (0, 0), BuildingBlock: XUDNAN_clean_linker_2, # of connection points: 2
#     Edge 80, Type (0, 0), BuildingBlock: XUDNAN_clean_linker_2, # of connection points: 2
#     Edge 81, Type (0, 0), BuildingBlock: XUDNAN_clean_linker_2, # of connection points: 2
#     Edge 82, Type (0, 0), BuildingBlock: XUDNAN_clean_linker_2, # of connection points: 2
#     Edge 83, Type (0, 0), BuildingBlock: XUDNAN_clean_linker_2, # of connection points: 2
#     Edge 84, Type (0, 0), BuildingBlock: XUDNAN_clean_linker_2, # of connection points: 2
#     Edge 85, Type (0, 0), BuildingBlock: XUDNAN_clean_linker_2, # of connection points: 2
#     Edge 86, Type (0, 0), BuildingBlock: XUDNAN_clean_linker_2, # of connection points: 2
#     Edge 87, Type (0, 0), BuildingBlock: XUDNAN_clean_linker_2, # of connection points: 2
#     Edge 88, Type (0, 0), BuildingBlock: XUDNAN_clean_linker_2, # of connection points: 2
#     Edge 89, Type (0, 0), BuildingBlock: XUDNAN_clean_linker_2, # of connection points: 2
#     Edge 90, Type (0, 0), BuildingBlock: XUDNAN_clean_linker_2, # of connection points: 2
#     Edge 91, Type (0, 0), BuildingBlock: XUDNAN_clean_linker_2, # of connection points: 2
#     Edge 92, Type (0, 0), BuildingBlock: XUDNAN_clean_linker_2, # of connection points: 2
#     Edge 93, Type (0, 0), BuildingBlock: XUDNAN_clean_linker_2, # of connection points: 2
#     Edge 94, Type (0, 0), BuildingBlock: XUDNAN_clean_linker_2, # of connection points: 2
#     Edge 95, Type (0, 0), BuildingBlock: XUDNAN_clean_linker_2, # of connection points: 2
#     Edge 96, Type (0, 0), BuildingBlock: XUDNAN_clean_linker_2, # of connection points: 2
#     Edge 97, Type (0, 0), BuildingBlock: XUDNAN_clean_linker_2, # of connection points: 2
#     Edge 98, Type (0, 0), BuildingBlock: XUDNAN_clean_linker_2, # of connection points: 2
#     Edge 99, Type (0, 0), BuildingBlock: XUDNAN_clean_linker_2, # of connection points: 2
#     Edge 100, Type (0, 0), BuildingBlock: XUDNAN_clean_linker_2, # of connection points: 2
#     Edge 101, Type (0, 0), BuildingBlock: XUDNAN_clean_linker_2, # of connection points: 2
#     Edge 102, Type (0, 0), BuildingBlock: XUDNAN_clean_linker_2, # of connection points: 2
#     Edge 103, Type (0, 0), BuildingBlock: XUDNAN_clean_linker_2, # of connection points: 2
#     Edge 104, Type (0, 0), BuildingBlock: XUDNAN_clean_linker_2, # of connection points: 2
#     Edge 105, Type (0, 0), BuildingBlock: XUDNAN_clean_linker_2, # of connection points: 2
#     Edge 106, Type (0, 0), BuildingBlock: XUDNAN_clean_linker_2, # of connection points: 2
#     Edge 107, Type (0, 0), BuildingBlock: XUDNAN_clean_linker_2, # of connection points: 2
#     Edge 108, Type (0, 0), BuildingBlock: XUDNAN_clean_linker_2, # of connection points: 2
#     Edge 109, Type (0, 0), BuildingBlock: XUDNAN_clean_linker_2, # of connection points: 2
#     Edge 110, Type (0, 0), BuildingBlock: XUDNAN_clean_linker_2, # of connection points: 2
#     Edge 111, Type (0, 0), BuildingBlock: XUDNAN_clean_linker_2, # of connection points: 2
#     Edge 112, Type (0, 0), BuildingBlock: XUDNAN_clean_linker_2, # of connection points: 2
#     Edge 113, Type (0, 0), BuildingBlock: XUDNAN_clean_linker_2, # of connection points: 2
#     Edge 114, Type (0, 0), BuildingBlock: XUDNAN_clean_linker_2, # of connection points: 2
#     Edge 115, Type (0, 0), BuildingBlock: XUDNAN_clean_linker_2, # of connection points: 2
#     Edge 116, Type (0, 0), BuildingBlock: XUDNAN_clean_linker_2, # of connection points: 2
#     Edge 117, Type (0, 0), BuildingBlock: XUDNAN_clean_linker_2, # of connection points: 2
#     Edge 118, Type (0, 0), BuildingBlock: XUDNAN_clean_linker_2, # of connection points: 2
#     Edge 119, Type (0, 0), BuildingBlock: XUDNAN_clean_linker_2, # of connection points: 2
#     Edge 120, Type (0, 0), BuildingBlock: XUDNAN_clean_linker_2, # of connection points: 2
#     Edge 121, Type (0, 0), BuildingBlock: XUDNAN_clean_linker_2, # of connection points: 2
#     Edge 122, Type (0, 0), BuildingBlock: XUDNAN_clean_linker_2, # of connection points: 2
#     Edge 123, Type (0, 0), BuildingBlock: XUDNAN_clean_linker_2, # of connection points: 2
#     Edge 124, Type (0, 0), BuildingBlock: XUDNAN_clean_linker_2, # of connection points: 2
#     Edge 125, Type (0, 0), BuildingBlock: XUDNAN_clean_linker_2, # of connection points: 2
#     Edge 126, Type (0, 0), BuildingBlock: XUDNAN_clean_linker_2, # of connection points: 2
#     Edge 127, Type (0, 0), BuildingBlock: XUDNAN_clean_linker_2, # of connection points: 2
#     Edge 128, Type (0, 0), BuildingBlock: XUDNAN_clean_linker_2, # of connection points: 2
#     Edge 129, Type (0, 0), BuildingBlock: XUDNAN_clean_linker_2, # of connection points: 2
#     Edge 130, Type (0, 0), BuildingBlock: XUDNAN_clean_linker_2, # of connection points: 2
#     Edge 131, Type (0, 0), BuildingBlock: XUDNAN_clean_linker_2, # of connection points: 2
#     Edge 132, Type (0, 0), BuildingBlock: XUDNAN_clean_linker_2, # of connection points: 2
#     Edge 133, Type (0, 0), BuildingBlock: XUDNAN_clean_linker_2, # of connection points: 2
#     Edge 134, Type (0, 0), BuildingBlock: XUDNAN_clean_linker_2, # of connection points: 2
#     Edge 135, Type (0, 0), BuildingBlock: XUDNAN_clean_linker_2, # of connection points: 2
#     Edge 136, Type (0, 0), BuildingBlock: XUDNAN_clean_linker_2, # of connection points: 2
#     Edge 137, Type (0, 0), BuildingBlock: XUDNAN_clean_linker_2, # of connection points: 2
#     Edge 138, Type (0, 0), BuildingBlock: XUDNAN_clean_linker_2, # of connection points: 2
#     Edge 139, Type (0, 0), BuildingBlock: XUDNAN_clean_linker_2, # of connection points: 2
#     Edge 140, Type (0, 0), BuildingBlock: XUDNAN_clean_linker_2, # of connection points: 2
#     Edge 141, Type (0, 0), BuildingBlock: XUDNAN_clean_linker_2, # of connection points: 2
#     Edge 142, Type (0, 0), BuildingBlock: XUDNAN_clean_linker_2, # of connection points: 2
#     Edge 143, Type (0, 0), BuildingBlock: XUDNAN_clean_linker_2, # of connection points: 2
# Relax obj value: 0.237
# Max RMSD: 0.238
# Mean RMSD: 0.238
data_MOF--net-soq--node1-NUHQUE_clean_sbu_2--edge1-XUDNAN_clean_linker_2
_symmetry_space_group_name_H-M    P1
_symmetry_Int_Tables_number       1
_symmetry_cell_setting            triclinic
loop_
_symmetry_equiv_pos_as_xyz
'x, y, z'
_cell_length_a     69.787149
_cell_length_b     42.253268
_cell_length_c     55.180448
_cell_angle_alpha  89.946163
_cell_angle_beta   90.030633
_cell_angle_gamma 89.864327
loop_
_atom_site_label
_atom_site_type_symbol
_atom_site_fract_x
_atom_site_fract_y
_atom_site_fract_z
_atom_type_partial_charge
O0 O 0.09367 0.29695 0.98962 0.0
Tb1 Tb 0.08327 0.27667 0.02408 0.0
Eu2 Eu 0.04641 0.28076 0.07135 0.0
C3 C 0.08446 0.31994 0.97806 0.0
O4 O 0.06963 0.33328 0.9886 0.0
C5 C 0.04072 0.25819 1.01639 0.0
O6 O 0.03467 0.24322 0.09572 0.0
C7 C 0.0263 0.33194 0.07709 0.0
C8 C 0.04093 0.24016 0.11802 0.0
O9 O 0.05376 0.26003 0.1264 0.0
C10 C 0.09225 0.29363 0.07867 0.0
C11 C 0.02108 0.36426 0.08557 0.0
C12 C 0.01873 0.38764 0.06774 0.0
C13 C 0.01022 0.41681 0.0732 0.0
C14 C 0.0048 0.42338 0.09704 0.0
C15 C 0.0066 0.40046 0.11529 0.0
C16 C 0.01485 0.37074 0.10958 0.0
O17 O 0.05392 0.27887 1.01008 0.0
O18 O 0.03767 0.25141 0.03928 0.0
O19 O 0.10395 0.23808 0.01814 0.0
O20 O 0.07745 0.22782 0.03526 0.0
C21 C 0.09356 0.21578 0.02773 0.0
O22 O 0.07625 0.2808 0.08646 0.0
O23 O 0.09466 0.30249 0.05577 0.0
O24 O 0.02551 0.30784 0.09213 0.0
O25 O 0.03842 0.32807 0.05893 0.0
H26 H 0.0224 0.38243 0.04906 0.0
H27 H 0.99765 0.44561 0.10106 0.0
H28 H 0.01537 0.3524 0.12329 0.0
O29 O 0.16611 0.92443 0.98087 0.0
Tb30 Tb 0.16996 0.9486 1.01577 0.0
Eu31 Eu 0.20161 0.96413 0.06441 0.0
C32 C 0.15189 0.90501 0.97592 0.0
O33 O 0.13898 0.89936 0.9927 0.0
C34 C 0.20803 0.98579 1.00932 0.0
O35 O 0.20736 0.00689 0.08711 0.0
C36 C 0.22696 0.92011 0.07255 0.0
C37 C 0.19323 0.02579 0.09339 0.0
O38 O 0.17559 0.01862 0.0872 0.0
C39 C 0.16152 0.92811 0.06865 0.0
C40 C 0.23206 0.88738 0.08047 0.0
C41 C 0.23714 0.86556 0.06237 0.0
C42 C 0.24441 0.83564 0.06829 0.0
C43 C 0.24637 0.82714 0.09264 0.0
C44 C 0.24214 0.84854 0.11135 0.0
C45 C 0.23469 0.87878 0.10516 0.0
O46 O 0.19868 0.96017 1.00264 0.0
O47 O 0.20818 -0.00512 0.03209 0.0
O48 O 0.14368 0.97557 1.00876 0.0
O49 O 0.16642 -0.0023 0.02797 0.0
C50 C 0.14918 0.00155 0.01941 0.0
O51 O 0.1718 0.95211 0.07609 0.0
O52 O 0.16309 0.91703 0.04632 0.0
O53 O 0.22232 0.9416 0.08878 0.0
O54 O 0.2179 0.9236 0.0517 0.0
H55 H 0.23592 0.87215 0.04343 0.0
H56 H 0.25193 0.80385 0.09701 0.0
H57 H 0.23171 0.89579 0.11935 0.0
O58 O 0.07609 0.91134 0.29289 0.0
Tb59 Tb 0.0692 0.94524 0.26411 0.0
Eu60 Eu 0.03899 0.97032 0.21997 0.0
C61 C 0.06277 0.89669 0.30561 0.0
O62 O 0.0447 0.90013 0.29945 0.0
C63 C 0.03298 0.9869 0.27624 0.0
O64 O 0.03011 0.01361 0.19965 0.0
C65 C 0.01769 0.92151 0.21062 0.0
C66 C 0.04023 0.03925 0.20349 0.0
O67 O 0.05493 0.03774 0.21836 0.0
C68 C 0.07771 0.93672 0.20979 0.0
C69 C 0.01857 0.88854 0.20106 0.0
C70 C 0.02406 0.8638 0.21662 0.0
C71 C 0.02294 0.83226 0.20916 0.0
C72 C 0.01616 0.82521 0.18589 0.0
C73 C 0.01096 0.84921 0.16941 0.0
C74 C 0.01225 0.8811 0.17733 0.0
O75 O 0.04262 0.96096 0.28188 0.0
O76 O 0.03214 -0.00271 0.25385 0.0
O77 O 0.09617 0.96608 0.27621 0.0
O78 O 0.07681 -0.00552 0.25588 0.0
C79 C 0.09328 -0.00598 0.26698 0.0
O80 O 0.06911 0.96406 0.20751 0.0
O81 O 0.07499 0.92009 0.22978 0.0
O82 O 0.01996 0.94503 0.19523 0.0
O83 O 0.02562 0.92684 0.23196 0.0
H84 H 0.02891 0.86892 0.23486 0.0
H85 H 0.01414 0.80059 0.18123 0.0
H86 H 0.00816 0.90018 0.1653 0.0
O87 O 0.17245 0.28399 0.31175 0.0
Tb88 Tb 0.17323 0.25687 0.27793 0.0
Eu89 Eu 0.21595 0.2823 0.21486 0.0
C90 C 0.15763 0.28215 0.32647 0.0
O91 O 0.14288 0.26488 0.31993 0.0
C92 C 0.2172 0.24481 0.26226 0.0
O93 O 0.21359 0.24266 0.18824 0.0
C94 C 0.23888 0.32466 0.19695 0.0
C95 C 0.19938 0.22244 0.18726 0.0
O96 O 0.1846 0.22563 0.20178 0.0
C97 C 0.17128 0.29132 0.22744 0.0
C98 C 0.24412 0.35849 0.19448 0.0
C99 C 0.25264 0.37484 0.21393 0.0
C100 C 0.25974 0.40553 0.2106 0.0
C101 C 0.2577 0.42036 0.18809 0.0
C102 C 0.24898 0.40489 0.1686 0.0
C103 C 0.24249 0.37365 0.1717 0.0
O104 O 0.2011 0.26076 0.26127 0.0
O105 O 0.22886 0.25062 0.24412 0.0
O106 O 0.14967 0.22286 0.27577 0.0
O107 O 0.17758 0.20642 0.28499 0.0
C108 C 0.15991 0.198 0.28107 0.0
O109 O 0.18878 0.30091 0.23266 0.0
O110 O 0.16076 0.27837 0.2449 0.0
O111 O 0.22348 0.31464 0.18557 0.0
O112 O 0.24178 0.31056 0.21796 0.0
H113 H 0.25434 0.3635 0.23142 0.0
H114 H 0.263 0.44428 0.18572 0.0
H115 H 0.23627 0.36121 0.15644 0.0
O116 O 0.9239 0.67157 0.05159 0.0
Tb117 Tb 0.92602 0.70225 0.01949 0.0
Eu118 Eu 0.95518 0.72061 0.96831 0.0
C119 C 0.90784 0.65824 0.05889 0.0
O120 O 0.89229 0.66201 0.04576 0.0
C121 C 0.96324 0.74008 0.02295 0.0
O122 O 0.96125 0.7631 0.94547 0.0
C123 C 0.97874 0.67464 0.95793 0.0
C124 C 0.9503 0.78812 0.94819 0.0
O125 O 0.93595 0.78689 0.96357 0.0
C126 C 0.91448 0.68602 0.96605 0.0
C127 C 0.98025 0.6416 0.94839 0.0
C128 C 0.97816 0.61608 0.96458 0.0
C129 C 0.98164 0.585 0.95704 0.0
C130 C 0.98746 0.57924 0.93323 0.0
C131 C 0.98928 0.6037 0.91615 0.0
C132 C 0.98577 0.63519 0.92404 0.0
O133 O 0.95587 0.71238 0.02832 0.0
O134 O 0.96197 0.75099 1.00077 0.0
O135 O 0.90468 0.73173 0.038 0.0
O136 O 0.91837 0.75009 1.00671 0.0
C137 C 0.90585 0.75609 0.02359 0.0
O138 O 0.92465 0.71026 0.95865 0.0
O139 O 0.91611 0.67418 0.98822 0.0
O140 O 0.97457 0.69756 0.94264 0.0
O141 O 0.97099 0.67875 0.97954 0.0
H142 H 0.97419 0.6203 0.98328 0.0
H143 H 0.99145 0.55528 0.92842 0.0
H144 H 0.98756 0.65466 0.91148 0.0
O145 O 0.82948 0.04786 0.05818 0.0
Tb146 Tb 0.82415 0.02125 0.0247 0.0
Eu147 Eu 0.79119 0.0118 0.97559 0.0
C148 C 0.81671 0.06839 0.06621 0.0
O149 O 0.80205 0.07547 0.05227 0.0
C150 C 0.78385 0.98917 0.03049 0.0
O151 O 0.78308 0.97128 0.95187 0.0
C152 C 0.77146 0.06225 0.96475 0.0
C153 C 0.79216 0.94434 0.95486 0.0
O154 O 0.80599 0.94259 0.97097 0.0
C155 C 0.83204 0.0415 0.97153 0.0
C156 C 0.77298 0.0942 0.95326 0.0
C157 C 0.77913 0.12016 0.96718 0.0
C158 C 0.77875 0.15098 0.95769 0.0
C159 C 0.77265 0.15581 0.93377 0.0
C160 C 0.76617 0.13066 0.9194 0.0
C161 C 0.76626 0.09976 0.92934 0.0
O162 O 0.79503 0.01243 0.03765 0.0
O163 O 0.78158 0.98258 1.00742 0.0
O164 O 0.84716 0.99152 0.03921 0.0
O165 O 0.82966 0.97294 1.01119 0.0
C166 C 0.84402 0.96689 0.02563 0.0
O167 O 0.82214 0.01624 0.96605 0.0
O168 O 0.83232 0.05197 0.99411 0.0
O169 O 0.77253 0.03734 0.95052 0.0
O170 O 0.77981 0.05781 0.98599 0.0
H171 H 0.78362 0.11665 0.98579 0.0
H172 H 0.77151 0.1798 0.92691 0.0
H173 H 0.76075 0.08027 0.91869 0.0
O174 O 0.90488 0.0607 0.73946 0.0
Tb175 Tb 0.91482 0.04252 0.77475 0.0
Eu176 Eu 0.95024 0.04109 0.82277 0.0
C177 C 0.91444 0.08271 0.72741 0.0
O178 O 0.92929 0.09607 0.73782 0.0
C179 C 0.95713 0.02205 0.76748 0.0
O180 O 0.96014 0.00051 0.84571 0.0
C181 C 0.97075 0.09125 0.83077 0.0
C182 C 0.95093 0.99274 0.86556 0.0
O183 O 0.93638 0.01011 0.87276 0.0
C184 C 0.90728 0.06695 0.82749 0.0
C185 C 0.97067 0.12381 0.84107 0.0
C186 C 0.96566 0.1495 0.82614 0.0
C187 C 0.96793 0.18076 0.83414 0.0
C188 C 0.97499 0.18638 0.8575 0.0
C189 C 0.98037 0.16133 0.87275 0.0
C190 C 0.978 0.12994 0.86451 0.0
O191 O 0.94417 0.0432 0.76121 0.0
O192 O 0.95938 0.01334 0.79013 0.0
O193 O 0.89367 0.00437 0.7702 0.0
O194 O 0.91949 -0.00528 0.78914 0.0
C195 C 0.90346 0.98255 0.78148 0.0
O196 O 0.91992 0.04641 0.83537 0.0
O197 O 0.90526 0.07378 0.80422 0.0
O198 O 0.97002 0.06719 0.84588 0.0
O199 O 0.96119 0.08636 0.81046 0.0
H200 H 0.96057 0.14532 0.80787 0.0
H201 H 0.97698 0.21055 0.86355 0.0
H202 H 0.98262 0.11047 0.87592 0.0
O203 O 0.84196 0.68981 0.73423 0.0
Tb204 Tb 0.83098 0.71208 0.76749 0.0
Eu205 Eu 0.79212 0.71658 0.80994 0.0
C206 C 0.83288 0.66682 0.72274 0.0
O207 O 0.81743 0.65462 0.73257 0.0
C208 C 0.79118 0.74262 0.75509 0.0
O209 O 0.78103 0.75276 0.83591 0.0
C210 C 0.77068 0.66655 0.81241 0.0
C211 C 0.78634 0.75227 0.85872 0.0
O212 O 0.79773 0.72965 0.86653 0.0
C213 C 0.83426 0.69184 0.82171 0.0
C214 C 0.76554 0.63464 0.82167 0.0
C215 C 0.76068 0.61187 0.80426 0.0
C216 C 0.75326 0.58246 0.8111 0.0
C217 C 0.75106 0.57546 0.83571 0.0
C218 C 0.75529 0.59782 0.85376 0.0
C219 C 0.7628 0.62759 0.84661 0.0
O220 O 0.8036 0.72041 0.74895 0.0
O221 O 0.78697 0.7483 0.77789 0.0
O222 O 0.85701 0.74081 0.76564 0.0
O223 O 0.83152 0.76214 0.77881 0.0
C224 C 0.84957 0.76689 0.77397 0.0
O225 O 0.82099 0.7126 0.8271 0.0
O226 O 0.83622 0.68128 0.79925 0.0
O227 O 0.7685 0.6912 0.82664 0.0
O228 O 0.78461 0.66956 0.79639 0.0
H229 H 0.76224 0.61741 0.78517 0.0
H230 H 0.74544 0.55252 0.8408 0.0
H231 H 0.7658 0.64539 0.8602 0.0
O232 O 0.08401 0.78273 0.47855 0.0
Tb233 Tb 0.07914 0.75737 0.5126 0.0
Eu234 Eu 0.03601 0.78615 0.57294 0.0
C235 C 0.07053 0.79984 0.46802 0.0
O236 O 0.05397 0.80348 0.47899 0.0
C237 C 0.03339 0.75506 0.52357 0.0
O238 O 0.03818 0.7389 0.59115 0.0
C239 C 0.01523 0.82703 0.59621 0.0
C240 C 0.05021 0.73159 0.60857 0.0
O241 O 0.06149 0.75332 0.61775 0.0
C242 C 0.08077 0.79434 0.56208 0.0
C243 C 0.01174 0.86139 0.59882 0.0
C244 C 0.00882 0.88065 0.57833 0.0
C245 C 0.00357 0.91253 0.58099 0.0
C246 C 0.0016 0.92521 0.6043 0.0
C247 C 0.0041 0.90637 0.625 0.0
C248 C 0.00941 0.87442 0.62212 0.0
O249 O 0.05095 0.76467 0.52761 0.0
O250 O 0.02131 0.7636 0.54055 0.0
O251 O 0.07322 0.70706 0.50685 0.0
O252 O 0.1013 0.72103 0.51719 0.0
C253 C 0.0904 0.69702 0.51195 0.0
O254 O 0.06355 0.80489 0.55626 0.0
O255 O 0.09119 0.77933 0.5455 0.0
O256 O 0.03136 0.81551 0.60503 0.0
O257 O 0.01007 0.81402 0.57554 0.0
H258 H 0.01026 0.87075 0.56031 0.0
H259 H 0.99745 0.94979 0.60633 0.0
H260 H 0.01095 0.85934 0.63791 0.0
O261 O 0.16817 0.40649 0.49707 0.0
Tb262 Tb 0.17654 0.43956 0.52591 0.0
Eu263 Eu 0.21 0.46321 0.56814 0.0
C264 C 0.18038 0.39444 0.48121 0.0
O265 O 0.19876 0.4002 0.48364 0.0
C266 C 0.21073 0.48324 0.5123 0.0
O267 O 0.2204 0.50766 0.58568 0.0
C268 C 0.23548 0.41856 0.57055 0.0
C269 C 0.21234 0.51901 0.60529 0.0
O270 O 0.19926 0.50226 0.61659 0.0
C271 C 0.17254 0.42535 0.5818 0.0
C272 C 0.23961 0.38533 0.57775 0.0
C273 C 0.2434 0.36356 0.55918 0.0
C274 C 0.24908 0.33253 0.56444 0.0
C275 C 0.25082 0.32302 0.58864 0.0
C276 C 0.24765 0.34432 0.60778 0.0
C277 C 0.24183 0.37563 0.60219 0.0
O278 O 0.20242 0.45607 0.5071 0.0
O279 O 0.21118 0.49353 0.53471 0.0
O280 O 0.14931 0.4614 0.51552 0.0
O281 O 0.16901 0.48811 0.53648 0.0
C282 C 0.15238 0.48862 0.52578 0.0
O283 O 0.18252 0.45082 0.58654 0.0
O284 O 0.17242 0.41253 0.55987 0.0
O285 O 0.23335 0.44009 0.5876 0.0
O286 O 0.22427 0.42303 0.55155 0.0
H287 H 0.24213 0.37094 0.54042 0.0
H288 H 0.25506 0.29887 0.59253 0.0
H289 H 0.23961 0.39251 0.61668 0.0
O290 O 0.08217 0.42688 0.80635 0.0
Tb291 Tb 0.07704 0.45022 0.77114 0.0
Eu292 Eu 0.04667 0.46486 0.72033 0.0
C293 C 0.09374 0.4025 0.80968 0.0
O294 O 0.10344 0.39149 0.7911 0.0
C295 C 0.04022 0.48953 0.77404 0.0
O296 O 0.04497 0.5047 0.6935 0.0
C297 C 0.01892 0.4249 0.71316 0.0
C298 C 0.05489 0.53072 0.69697 0.0
O299 O 0.06547 0.5334 0.71651 0.0
C300 C 0.08694 0.4247 0.71882 0.0
C301 C 0.0116 0.39358 0.70486 0.0
C302 C 0.00339 0.37403 0.72256 0.0
C303 C 0.99405 0.346 0.71624 0.0
C304 C 0.99285 0.33731 0.69186 0.0
C305 C 0.00141 0.35548 0.67344 0.0
C306 C 0.01066 0.38418 0.68015 0.0
O307 O 0.04746 0.46208 0.78071 0.0
O308 O 0.04164 0.4987 0.75139 0.0
O309 O 0.0977 0.48654 0.78272 0.0
O310 O 0.08291 0.49223 0.74938 0.0
C311 C 0.0954 0.50479 0.76387 0.0
O312 O 0.0754 0.44597 0.70919 0.0
O313 O 0.0869 0.41775 0.74237 0.0
O314 O 0.02385 0.44645 0.69716 0.0
O315 O 0.02899 0.42606 0.73339 0.0
H316 H 0.00406 0.3809 0.74148 0.0
H317 H 0.98458 0.3165 0.68732 0.0
H318 H 0.01697 0.39912 0.66636 0.0
O319 O 0.15633 0.79743 0.7975 0.0
Tb320 Tb 0.16805 0.77443 0.76494 0.0
Eu321 Eu 0.2036 0.7734 0.71857 0.0
C322 C 0.16642 0.81827 0.81003 0.0
O323 O 0.18304 0.82754 0.80143 0.0
C324 C 0.20912 0.74934 0.77304 0.0
O325 O 0.2112 0.73204 0.6952 0.0
C326 C 0.22685 0.82063 0.71247 0.0
C327 C 0.21104 0.73341 0.67145 0.0
O328 O 0.20743 0.76033 0.66041 0.0
C329 C 0.15861 0.79397 0.71127 0.0
C330 C 0.23292 0.85227 0.70352 0.0
C331 C 0.24007 0.87336 0.72089 0.0
C332 C 0.24847 0.90198 0.71401 0.0
C333 C 0.24966 0.90976 0.68944 0.0
C334 C 0.24218 0.88987 0.67134 0.0
C335 C 0.23392 0.8606 0.6786 0.0
O336 O 0.19714 0.77189 0.7795 0.0
O337 O 0.21135 0.74215 0.75011 0.0
O338 O 0.14989 0.73476 0.77628 0.0
O339 O 0.16808 0.72906 0.74573 0.0
C340 C 0.15542 0.71524 0.75942 0.0
O341 O 0.17412 0.77965 0.70325 0.0
O342 O 0.1564 0.80208 0.73435 0.0
O343 O 0.22586 0.79665 0.69736 0.0
O344 O 0.21501 0.8186 0.73108 0.0
H345 H 0.23944 0.86714 0.73995 0.0
H346 H 0.25723 0.93117 0.68452 0.0
H347 H 0.22848 0.84435 0.66511 0.0
O348 O 0.92057 0.1782 0.55269 0.0
Tb349 Tb 0.92422 0.20409 0.51841 0.0
Eu350 Eu 0.95634 0.21867 0.47053 0.0
C351 C 0.90581 0.15999 0.55784 0.0
O352 O 0.89244 0.15587 0.54136 0.0
C353 C 0.96225 0.24139 0.52537 0.0
O354 O 0.96461 0.25774 0.44513 0.0
C355 C 0.97783 0.16881 0.46444 0.0
C356 C 0.9551 0.28457 0.44622 0.0
O357 O 0.94107 0.28738 0.46196 0.0
C358 C 0.91533 0.18733 0.46427 0.0
C359 C 0.9782 0.13591 0.45449 0.0
C360 C 0.97511 0.11036 0.47041 0.0
C361 C 0.97692 0.07902 0.46241 0.0
C362 C 0.98194 0.07306 0.43834 0.0
C363 C 0.98596 0.09773 0.42217 0.0
C364 C 0.98375 0.12936 0.43022 0.0
O365 O 0.95299 0.21557 0.53187 0.0
O366 O 0.96303 0.24993 0.5025 0.0
O367 O 0.89794 0.23001 0.52706 0.0
O368 O 0.92034 0.25396 0.50844 0.0
C369 C 0.90319 0.25682 0.51747 0.0
O370 O 0.92625 0.21114 0.45788 0.0
O371 O 0.91636 0.17528 0.48646 0.0
O372 O 0.97739 0.19263 0.44908 0.0
O373 O 0.9676 0.17403 0.48417 0.0
H374 H 0.97167 0.11475 0.48927 0.0
H375 H 0.98345 0.04873 0.43239 0.0
H376 H 0.98702 0.14864 0.41796 0.0
O377 O 0.84147 0.55086 0.5545 0.0
Tb378 Tb 0.83326 0.52909 0.51985 0.0
Eu379 Eu 0.79392 0.52355 0.47533 0.0
C380 C 0.8461 0.58097 0.55661 0.0
O381 O 0.8478 0.59822 0.53692 0.0
C382 C 0.7926 0.50677 0.53148 0.0
O383 O 0.78414 0.48173 0.45379 0.0
C384 C 0.77064 0.57058 0.46819 0.0
C385 C 0.79283 0.45444 0.45683 0.0
O386 O 0.8072 0.45257 0.47213 0.0
C387 C 0.83812 0.54652 0.46447 0.0
C388 C 0.76391 0.60125 0.45811 0.0
C389 C 0.75617 0.62293 0.47467 0.0
C390 C 0.7472 0.65065 0.46668 0.0
C391 C 0.74603 0.65683 0.44187 0.0
C392 C 0.75426 0.63647 0.42463 0.0
C393 C 0.76302 0.60808 0.43294 0.0
O394 O 0.80408 0.53123 0.53351 0.0
O395 O 0.78778 0.4966 0.50988 0.0
O396 O 0.85525 0.49216 0.52446 0.0
O397 O 0.82792 0.47978 0.5104 0.0
C398 C 0.84471 0.46897 0.51643 0.0
O399 O 0.82313 0.52936 0.45819 0.0
O400 O 0.84126 0.5558 0.48713 0.0
O401 O 0.77109 0.54539 0.45425 0.0
O402 O 0.78315 0.57008 0.48614 0.0
H403 H 0.75684 0.6179 0.49394 0.0
H404 H 0.73804 0.67749 0.43602 0.0
H405 H 0.76895 0.59142 0.42004 0.0
O406 O 0.91246 0.53818 0.23256 0.0
Tb407 Tb 0.92094 0.51362 0.26617 0.0
Eu408 Eu 0.97198 0.53403 0.31397 0.0
C409 C 0.92401 0.55683 0.22001 0.0
O410 O 0.94129 0.56252 0.22838 0.0
C411 C 0.96639 0.50817 0.26433 0.0
O412 O 0.97708 0.48836 0.33381 0.0
C413 C 0.99632 0.57747 0.32674 0.0
C414 C 0.96659 0.48134 0.35283 0.0
O415 O 0.95373 0.50181 0.3604 0.0
C416 C 0.92183 0.5463 0.32027 0.0
C417 C 0.00077 0.60957 0.33622 0.0
C418 C 0.00668 0.63258 0.31947 0.0
C419 C 0.01336 0.66216 0.32707 0.0
C420 C 0.01396 0.66903 0.35184 0.0
C421 C 0.00847 0.64643 0.3692 0.0
C422 C 0.00171 0.61661 0.36126 0.0
O423 O 0.95067 0.52037 0.27348 0.0
O424 O 0.98106 0.51219 0.27845 0.0
O425 O 0.89853 0.47779 0.27134 0.0
O426 O 0.92675 0.4628 0.26282 0.0
C427 C 0.90943 0.45329 0.26737 0.0
O428 O 0.94077 0.54583 0.32383 0.0
O429 O 0.91246 0.53624 0.30056 0.0
O430 O 0.9908 0.55481 0.34153 0.0
O431 O 0.98857 0.57559 0.30501 0.0
H432 H 0.00636 0.62728 0.30025 0.0
H433 H 0.01903 0.69205 0.35763 0.0
H434 H 0.99782 0.59877 0.37448 0.0
O435 O 0.82524 0.16649 0.24041 0.0
Tb436 Tb 0.82117 0.19727 0.27194 0.0
Eu437 Eu 0.7889 0.21839 0.31627 0.0
C438 C 0.81197 0.14545 0.23513 0.0
O439 O 0.79767 0.14188 0.25037 0.0
C440 C 0.78606 0.24006 0.2612 0.0
O441 O 0.77931 0.25772 0.34059 0.0
C442 C 0.76484 0.17162 0.31831 0.0
C443 C 0.78592 0.2601 0.36278 0.0
O444 O 0.79786 0.23855 0.37103 0.0
C445 C 0.82778 0.18187 0.32692 0.0
C446 C 0.76089 0.13902 0.32714 0.0
C447 C 0.75666 0.11591 0.30968 0.0
C448 C 0.75083 0.08551 0.31655 0.0
C449 C 0.74951 0.078 0.34117 0.0
C450 C 0.75285 0.10077 0.3592 0.0
C451 C 0.75888 0.13138 0.35206 0.0
O452 O 0.79381 0.21242 0.25604 0.0
O453 O 0.7859 0.2503 0.28366 0.0
O454 O 0.84816 0.21929 0.26106 0.0
O455 O 0.82814 0.2462 0.28163 0.0
C456 C 0.8448 0.24669 0.27103 0.0
O457 O 0.81741 0.20663 0.33269 0.0
O458 O 0.8271 0.16931 0.30495 0.0
O459 O 0.76504 0.1949 0.3341 0.0
O460 O 0.7773 0.17515 0.30054 0.0
H461 H 0.75746 0.12186 0.29058 0.0
H462 H 0.74508 0.05436 0.34629 0.0
H463 H 0.76125 0.14937 0.3657 0.0
O464 O 0.58537 0.31131 0.48672 0.0
Tb465 Tb 0.57697 0.28124 0.51731 0.0
Eu466 Eu 0.54458 0.26818 0.56327 0.0
C467 C 0.57247 0.32778 0.47451 0.0
O468 O 0.55487 0.32927 0.48283 0.0
C469 C 0.53894 0.24641 0.50893 0.0
O470 O 0.53538 0.22752 0.5862 0.0
C471 C 0.5222 0.31693 0.56853 0.0
C472 C 0.54536 0.2013 0.5843 0.0
O473 O 0.56048 0.20091 0.57013 0.0
C474 C 0.58647 0.29718 0.5718 0.0
C475 C 0.52137 0.34948 0.5789 0.0
C476 C 0.52537 0.37555 0.56383 0.0
C477 C 0.5234 0.40656 0.57245 0.0
C478 C 0.51715 0.41165 0.59618 0.0
C479 C 0.51224 0.38639 0.61137 0.0
C480 C 0.5147 0.35513 0.60282 0.0
O481 O 0.54805 0.27261 0.50342 0.0
O482 O 0.53871 0.23653 0.53139 0.0
O483 O 0.59795 0.25003 0.50018 0.0
O484 O 0.58305 0.2334 0.53118 0.0
C485 C 0.59576 0.22618 0.51482 0.0
O486 O 0.57384 0.276 0.57866 0.0
O487 O 0.58697 0.30801 0.54922 0.0
O488 O 0.52245 0.29289 0.58373 0.0
O489 O 0.53306 0.3124 0.54923 0.0
H490 H 0.52972 0.37186 0.54518 0.0
H491 H 0.51538 0.43574 0.60261 0.0
H492 H 0.51076 0.33547 0.61438 0.0
O493 O 0.66613 0.92947 0.49144 0.0
Tb494 Tb 0.675 0.96048 0.52124 0.0
Eu495 Eu 0.711 0.96969 0.56452 0.0
C496 C 0.67869 0.91147 0.47997 0.0
O497 O 0.69616 0.90916 0.48867 0.0
C498 C 0.71394 -0.00645 0.51008 0.0
O499 O 0.72411 0.00424 0.59018 0.0
C500 C 0.72962 0.91652 0.56631 0.0
C501 C 0.71997 0.00351 0.61334 0.0
O502 O 0.70824 0.98177 0.62164 0.0
C503 C 0.6694 0.94374 0.57637 0.0
C504 C 0.72893 0.88468 0.57783 0.0
C505 C 0.72257 0.85888 0.56398 0.0
C506 C 0.72348 0.82797 0.57314 0.0
C507 C 0.7307 0.82283 0.59649 0.0
C508 C 0.7375 0.84791 0.61065 0.0
C509 C 0.73636 0.87902 0.60137 0.0
O510 O 0.70294 0.96934 0.50465 0.0
O511 O 0.71692 0.00148 0.53272 0.0
O512 O 0.65242 0.98965 0.50531 0.0
O513 O 0.66898 0.00883 0.53405 0.0
C514 C 0.65508 0.01442 0.51885 0.0
O515 O 0.68218 0.96527 0.58195 0.0
O516 O 0.66722 0.93333 0.55391 0.0
O517 O 0.73361 0.94079 0.58028 0.0
O518 O 0.71676 0.92304 0.54945 0.0
H519 H 0.71739 0.86271 0.54568 0.0
H520 H 0.73173 0.79885 0.60338 0.0
H521 H 0.7419 0.89846 0.61205 0.0
O522 O 0.58417 0.93201 0.79961 0.0
Tb523 Tb 0.57475 0.95948 0.76778 0.0
Eu524 Eu 0.54049 0.96579 0.72088 0.0
C525 C 0.57158 0.91537 0.8122 0.0
O526 O 0.55396 0.9133 0.804 0.0
C527 C 0.53487 0.99196 0.77503 0.0
O528 O 0.53034 0.00275 0.69495 0.0
C529 C 0.52062 0.91459 0.71432 0.0
C530 C 0.53676 0.00352 0.67264 0.0
O531 O 0.54898 0.9819 0.66529 0.0
C532 C 0.58305 0.93914 0.71441 0.0
C533 C 0.52174 0.8829 0.70253 0.0
C534 C 0.52821 0.85689 0.71616 0.0
C535 C 0.52757 0.82614 0.70669 0.0
C536 C 0.5207 0.82138 0.68315 0.0
C537 C 0.51378 0.84662 0.66913 0.0
C538 C 0.51453 0.87757 0.67882 0.0
O539 O 0.54615 0.96885 0.78234 0.0
O540 O 0.5324 -0.00219 0.75187 0.0
O541 O 0.59582 -0.00496 0.77935 0.0
O542 O 0.57919 0.00361 0.74775 0.0
C543 C 0.59249 0.01492 0.76178 0.0
O544 O 0.57054 0.96045 0.70727 0.0
O545 O 0.5836 0.92926 0.73723 0.0
O546 O 0.51934 0.93945 0.70009 0.0
O547 O 0.53128 0.91958 0.73375 0.0
H548 H 0.53321 0.86034 0.73457 0.0
H549 H 0.51999 0.79751 0.67602 0.0
H550 H 0.50886 0.89716 0.66833 0.0
O551 O 0.66555 0.30276 0.79524 0.0
Tb552 Tb 0.6769 0.2754 0.76472 0.0
Eu553 Eu 0.71463 0.26662 0.72173 0.0
C554 C 0.67663 0.3239 0.80586 0.0
O555 O 0.69335 0.33025 0.79607 0.0
C556 C 0.71628 0.24597 0.77787 0.0
O557 O 0.72477 0.22455 0.70073 0.0
C558 C 0.7365 0.31525 0.71377 0.0
C559 C 0.717 0.197 0.70554 0.0
O560 O 0.70334 0.1954 0.72183 0.0
C561 C 0.67294 0.29591 0.71037 0.0
C562 C 0.73599 0.34681 0.70155 0.0
C563 C 0.72877 0.37314 0.71423 0.0
C564 C 0.72971 0.40366 0.70429 0.0
C565 C 0.7371 0.40777 0.68093 0.0
C566 C 0.74482 0.38229 0.66803 0.0
C567 C 0.74445 0.35173 0.67847 0.0
O568 O 0.7047 0.2698 0.78229 0.0
O569 O 0.72037 0.23768 0.75557 0.0
O570 O 0.65576 0.23939 0.77509 0.0
O571 O 0.67505 0.22974 0.74627 0.0
C572 C 0.66098 0.21847 0.75905 0.0
O573 O 0.68577 0.27438 0.70452 0.0
O574 O 0.67005 0.30494 0.73306 0.0
O575 O 0.73651 0.28997 0.69988 0.0
O576 O 0.72615 0.31171 0.73363 0.0
H577 H 0.72316 0.37025 0.73241 0.0
H578 H 0.73852 0.43147 0.67357 0.0
H579 H 0.75111 0.33218 0.66895 0.0
O580 O 0.41514 0.68746 0.54899 0.0
Tb581 Tb 0.42259 0.71083 0.51468 0.0
Eu582 Eu 0.45768 0.71852 0.46855 0.0
C583 C 0.41067 0.65726 0.55074 0.0
O584 O 0.40892 0.64042 0.53087 0.0
C585 C 0.46189 0.74261 0.52321 0.0
O586 O 0.46631 0.75861 0.44437 0.0
C587 C 0.48144 0.67148 0.46361 0.0
C588 C 0.458 0.7862 0.44745 0.0
O589 O 0.44461 0.78905 0.46402 0.0
C590 C 0.41554 0.68824 0.46121 0.0
C591 C 0.48539 0.63867 0.45508 0.0
C592 C 0.48941 0.61571 0.4728 0.0
C593 C 0.49545 0.58526 0.46632 0.0
C594 C 0.49712 0.57744 0.44182 0.0
C595 C 0.49411 0.60002 0.42351 0.0
C596 C 0.48792 0.63077 0.43027 0.0
O597 O 0.4513 0.71819 0.52938 0.0
O598 O 0.46386 0.75041 0.50033 0.0
O599 O 0.40053 0.74579 0.52452 0.0
O600 O 0.42003 0.75645 0.49614 0.0
C601 C 0.4055 0.76695 0.50853 0.0
O602 O 0.42831 0.70894 0.45379 0.0
O603 O 0.41417 0.67981 0.48435 0.0
O604 O 0.47976 0.69437 0.44757 0.0
O605 O 0.47045 0.6753 0.48287 0.0
H606 H 0.48837 0.62183 0.49184 0.0
H607 H 0.50163 0.5537 0.43704 0.0
H608 H 0.48584 0.64866 0.41644 0.0
O609 O 0.33415 0.05299 0.5479 0.0
Tb610 Tb 0.32242 0.02963 0.51547 0.0
Eu611 Eu 0.28856 0.0217 0.467 0.0
C612 C 0.32445 0.07451 0.56033 0.0
O613 O 0.30796 0.0846 0.55178 0.0
C614 C 0.28259 -0.00021 0.52236 0.0
O615 O 0.28142 0.98034 0.44335 0.0
C616 C 0.2654 0.06843 0.45719 0.0
C617 C 0.28962 0.95293 0.44768 0.0
O618 O 0.30201 0.95061 0.46548 0.0
C619 C 0.33129 0.05126 0.462 0.0
C620 C 0.26419 0.10028 0.44545 0.0
C621 C 0.26767 0.12734 0.45957 0.0
C622 C 0.26508 0.15775 0.45 0.0
C623 C 0.25885 0.16134 0.42606 0.0
C624 C 0.25475 0.13504 0.4115 0.0
C625 C 0.25769 0.10433 0.42121 0.0
O626 O 0.29308 0.02426 0.52873 0.0
O627 O 0.28125 0.99145 0.49949 0.0
O628 O 0.34104 0.99044 0.52741 0.0
O629 O 0.32611 0.98629 0.49419 0.0
C630 C 0.33792 0.97216 0.50887 0.0
O631 O 0.31849 0.031 0.45392 0.0
O632 O 0.33211 0.05977 0.48518 0.0
O633 O 0.26732 0.04352 0.44314 0.0
O634 O 0.27506 0.06596 0.47771 0.0
H635 H 0.27216 0.12488 0.47829 0.0
H636 H 0.25677 0.18499 0.41887 0.0
H637 H 0.25437 0.08382 0.41024 0.0
O638 O 0.41128 0.05468 0.23784 0.0
Tb639 Tb 0.42197 0.02961 0.27028 0.0
Eu640 Eu 0.4617 0.02694 0.31196 0.0
C641 C 0.42249 0.0751 0.22643 0.0
O642 O 0.43918 0.08194 0.23608 0.0
C643 C 0.46208 0.00117 0.257 0.0
O644 O 0.47213 0.98674 0.33492 0.0
C645 C 0.48526 0.07421 0.31516 0.0
C646 C 0.46701 0.98415 0.3577 0.0
O647 O 0.45633 0.0063 0.36755 0.0
C648 C 0.41918 0.05336 0.3247 0.0
C649 C 0.49047 0.10596 0.32462 0.0
C650 C 0.49708 0.12818 0.30772 0.0
C651 C 0.50474 0.1571 0.31527 0.0
C652 C 0.50575 0.16394 0.34001 0.0
C653 C 0.4988 0.1428 0.35761 0.0
C654 C 0.49121 0.11339 0.34968 0.0
O655 O 0.44931 0.02303 0.25145 0.0
O656 O 0.46678 -0.00463 0.27963 0.0
O657 O 0.39917 -0.00585 0.26563 0.0
O658 O 0.42441 0.9818 0.28509 0.0
C659 C 0.40794 0.97148 0.27734 0.0
O660 O 0.43381 0.0356 0.33106 0.0
O661 O 0.41491 0.05966 0.30176 0.0
O662 O 0.48557 0.04992 0.33006 0.0
O663 O 0.47222 0.07204 0.29788 0.0
H664 H 0.49664 0.12262 0.28853 0.0
H665 H 0.51284 0.18556 0.34545 0.0
H666 H 0.48616 0.09627 0.3628 0.0
O667 O 0.33747 0.68933 0.23326 0.0
Tb668 Tb 0.32739 0.70753 0.2683 0.0
Eu669 Eu 0.28917 0.7096 0.31321 0.0
C670 C 0.32944 0.66535 0.22176 0.0
O671 O 0.31613 0.64876 0.23277 0.0
C672 C 0.28591 0.73399 0.25729 0.0
O673 O 0.27869 0.74973 0.33608 0.0
C674 C 0.26923 0.65874 0.32174 0.0
C675 C 0.28569 0.75429 0.35786 0.0
O676 O 0.2982 0.73407 0.3667 0.0
C677 C 0.33116 0.68323 0.32144 0.0
C678 C 0.2701 0.62676 0.33336 0.0
C679 C 0.27643 0.60077 0.31958 0.0
C680 C 0.27544 0.56988 0.32878 0.0
C681 C 0.26851 0.5649 0.35223 0.0
C682 C 0.26147 0.58993 0.36632 0.0
C683 C 0.26252 0.6211 0.35687 0.0
O684 O 0.29954 0.71406 0.25077 0.0
O685 O 0.28111 0.73833 0.28014 0.0
O686 O 0.35374 0.73517 0.26734 0.0
O687 O 0.32826 0.75755 0.27974 0.0
C688 C 0.3465 0.76149 0.27544 0.0
O689 O 0.31901 0.70535 0.32782 0.0
O690 O 0.33311 0.6747 0.29851 0.0
O691 O 0.26889 0.68373 0.33593 0.0
O692 O 0.2792 0.66328 0.3017 0.0
H693 H 0.28124 0.60431 0.30111 0.0
H694 H 0.26831 0.54099 0.35938 0.0
H695 H 0.25682 0.64062 0.36737 0.0
O696 O 0.58246 0.79943 0.9871 0.0
Tb697 Tb 0.57232 0.77445 0.01969 0.0
Eu698 Eu 0.53453 0.7702 0.06279 0.0
C699 C 0.57114 0.81988 0.97587 0.0
O700 O 0.55456 0.82695 0.98576 0.0
C701 C 0.53257 0.74532 1.00819 0.0
O702 O 0.52359 0.73608 0.0904 0.0
C703 C 0.51381 0.82127 0.06462 0.0
C704 C 0.52872 0.73835 0.1132 0.0
O705 O 0.54001 0.76148 0.12011 0.0
C706 C 0.57749 0.7927 0.07425 0.0
C707 C 0.5085 0.85254 0.07494 0.0
C708 C 0.50235 0.87569 0.05839 0.0
C709 C 0.49446 0.90423 0.0665 0.0
C710 C 0.49353 0.91031 0.09132 0.0
C711 C 0.49897 0.88756 0.10852 0.0
C712 C 0.50675 0.85845 0.10023 0.0
O713 O 0.54409 0.76889 1.00267 0.0
O714 O 0.52911 0.73811 0.03091 0.0
O715 O 0.59549 0.73953 1.01436 0.0
O716 O 0.5701 0.72558 0.03255 0.0
C717 C 0.58675 0.71598 0.02489 0.0
O718 O 0.56353 0.77342 0.08011 0.0
O719 O 0.57957 0.80324 0.05179 0.0
O720 O 0.51007 0.7957 0.0773 0.0
O721 O 0.52891 0.81866 0.05035 0.0
H722 H 0.50278 0.8708 0.0391 0.0
H723 H 0.48822 0.93316 0.09727 0.0
H724 H 0.51072 0.84031 0.11318 0.0
O725 O 0.66395 0.42894 0.98371 0.0
Tb726 Tb 0.673 0.45586 1.01573 0.0
Eu727 Eu 0.71289 0.45978 0.05755 0.0
C728 C 0.67651 0.41234 0.97109 0.0
O729 O 0.6941 0.40952 0.97933 0.0
C730 C 0.71325 0.48733 1.00213 0.0
O731 O 0.72066 0.50144 0.08028 0.0
C732 C 0.73631 0.41261 0.06398 0.0
C733 C 0.70739 0.52328 0.08232 0.0
O734 O 0.69101 0.51937 0.07101 0.0
C735 C 0.67064 0.4348 0.06959 0.0
C736 C 0.7421 0.38126 0.07405 0.0
C737 C 0.7489 0.35883 0.0574 0.0
C738 C 0.75677 0.33009 0.06521 0.0
C739 C 0.75781 0.32362 0.09003 0.0
C740 C 0.75068 0.3449 0.10746 0.0
C741 C 0.74295 0.37423 0.09922 0.0
O742 O 0.699 0.46862 0.9958 0.0
O743 O 0.71928 0.48993 0.02467 0.0
O744 O 0.64561 0.4807 1.01187 0.0
O745 O 0.6692 0.50549 0.02694 0.0
C746 C 0.65122 0.50768 0.02075 0.0
O747 O 0.6844 0.45416 0.07575 0.0
O748 O 0.6689 0.42446 0.04714 0.0
O749 O 0.73606 0.43768 0.0781 0.0
O750 O 0.72378 0.41372 0.04605 0.0
H751 H 0.74834 0.36401 0.03816 0.0
H752 H 0.76496 0.30206 0.09567 0.0
H753 H 0.73774 0.39146 0.11216 0.0
O754 O 0.58455 0.42823 0.29532 0.0
Tb755 Tb 0.57591 0.45861 0.26496 0.0
Eu756 Eu 0.54393 0.47372 0.21914 0.0
C757 C 0.57178 0.41172 0.30762 0.0
O758 O 0.55413 0.41019 0.29946 0.0
C759 C 0.53678 0.49198 0.2745 0.0
O760 O 0.53349 0.51535 0.19802 0.0
C761 C 0.52353 0.42345 0.21079 0.0
C762 C 0.54231 0.54237 0.20136 0.0
O763 O 0.55725 0.5433 0.21584 0.0
C764 C 0.58552 0.44594 0.21102 0.0
C765 C 0.52398 0.39081 0.20051 0.0
C766 C 0.52958 0.36529 0.21537 0.0
C767 C 0.52827 0.33403 0.20708 0.0
C768 C 0.52127 0.32812 0.18377 0.0
C769 C 0.51505 0.35278 0.16872 0.0
C770 C 0.51669 0.38431 0.17703 0.0
O771 O 0.54743 0.46729 0.28008 0.0
O772 O 0.5355 0.50189 0.25205 0.0
O773 O 0.59794 0.48853 0.2811 0.0
O774 O 0.58121 0.50725 0.25231 0.0
C775 C 0.5949 0.51332 0.26765 0.0
O776 O 0.57417 0.46974 0.20578 0.0
O777 O 0.58459 0.43194 0.23243 0.0
O778 O 0.52442 0.44751 0.19566 0.0
O779 O 0.53276 0.42851 0.23133 0.0
H780 H 0.53452 0.36954 0.23371 0.0
H781 H 0.52 0.30385 0.1776 0.0
H782 H 0.51162 0.4035 0.16567 0.0
O783 O 0.66555 0.80954 0.30092 0.0
Tb784 Tb 0.67289 0.77953 0.26975 0.0
Eu785 Eu 0.70234 0.76418 0.22262 0.0
C786 C 0.67901 0.82213 0.31473 0.0
O787 O 0.69698 0.81976 0.30793 0.0
C788 C 0.71011 0.74077 0.27579 0.0
O789 O 0.71098 0.7284 0.19502 0.0
C790 C 0.72328 0.81478 0.21919 0.0
C791 C 0.6983 0.7074 0.18819 0.0
O792 O 0.68093 0.70854 0.19733 0.0
C793 C 0.66134 0.79534 0.21646 0.0
C794 C 0.7237 0.84696 0.20814 0.0
C795 C 0.72006 0.87341 0.22296 0.0
C796 C 0.72168 0.9042 0.21372 0.0
C797 C 0.72721 0.90862 0.18962 0.0
C798 C 0.73175 0.88294 0.17466 0.0
C799 C 0.72963 0.85194 0.18383 0.0
O800 O 0.70192 0.76761 0.28202 0.0
O801 O 0.70901 0.73104 0.25333 0.0
O802 O 0.65182 0.74882 0.28716 0.0
O803 O 0.66505 0.73303 0.25474 0.0
C804 C 0.65277 0.72579 0.27159 0.0
O805 O 0.67242 0.77207 0.2094 0.0
O806 O 0.66294 0.80774 0.23841 0.0
O807 O 0.72508 0.79032 0.20465 0.0
O808 O 0.71117 0.80981 0.23716 0.0
H809 H 0.7163 0.87015 0.24186 0.0
H810 H 0.72878 0.93251 0.1827 0.0
H811 H 0.7333 0.83199 0.17242 0.0
O812 O 0.40956 0.19097 0.05115 0.0
Tb813 Tb 0.4192 0.21545 0.01794 0.0
Eu814 Eu 0.45476 0.22121 0.97132 0.0
C815 C 0.42129 0.17159 0.0629 0.0
O816 O 0.4381 0.16531 0.05335 0.0
C817 C 0.46029 0.243 0.02704 0.0
O818 O 0.46483 0.26166 0.94863 0.0
C819 C 0.47486 0.17065 0.9624 0.0
C820 C 0.45478 0.28788 0.94949 0.0
O821 O 0.43919 0.28862 0.96276 0.0
C822 C 0.41231 0.19652 0.96366 0.0
C823 C 0.47463 0.13858 0.95109 0.0
C824 C 0.47043 0.11225 0.96576 0.0
C825 C 0.47254 0.08139 0.9569 0.0
C826 C 0.47839 0.0767 0.93298 0.0
C827 C 0.48324 0.10221 0.91799 0.0
C828 C 0.4811 0.13336 0.92701 0.0
O829 O 0.44785 0.22122 0.0338 0.0
O830 O 0.46326 0.24951 1.00405 0.0
O831 O 0.39687 0.25193 0.02345 0.0
O832 O 0.42221 0.26367 1.00434 0.0
C833 C 0.40599 0.27463 1.01232 0.0
O834 O 0.42463 0.21854 0.95774 0.0
O835 O 0.4111 0.18619 0.98632 0.0
O836 O 0.47472 0.19554 0.94807 0.0
O837 O 0.46498 0.17487 0.98257 0.0
H838 H 0.46652 0.11562 0.98459 0.0
H839 H 0.47962 0.05271 0.92615 0.0
H840 H 0.48522 0.15321 0.91574 0.0
O841 O 0.33574 0.56651 0.04743 0.0
Tb842 Tb 0.32904 0.54327 1.01288 0.0
Eu843 Eu 0.2952 0.52552 0.96737 0.0
C844 C 0.33549 0.59749 0.05023 0.0
O845 O 0.33265 0.61558 0.03119 0.0
C846 C 0.2894 0.51427 0.0232 0.0
O847 O 0.28517 0.48376 0.94594 0.0
C848 C 0.27328 0.57446 0.95981 0.0
C849 C 0.29205 0.47833 0.92421 0.0
O850 O 0.30461 0.49805 0.91494 0.0
C851 C 0.3349 0.55931 0.95842 0.0
C852 C 0.2727 0.60699 0.94936 0.0
C853 C 0.27638 0.63301 0.96457 0.0
C854 C 0.27408 0.66408 0.95613 0.0
C855 C 0.26804 0.66925 0.93229 0.0
C856 C 0.2636 0.64398 0.91688 0.0
C857 C 0.26625 0.6127 0.92536 0.0
O858 O 0.29972 0.53991 0.02628 0.0
O859 O 0.28913 0.49968 1.00225 0.0
O860 O 0.35534 0.5157 1.01756 0.0
O861 O 0.33027 0.49202 1.00549 0.0
C862 C 0.34831 0.48848 1.01105 0.0
O863 O 0.32492 0.53387 0.95345 0.0
O864 O 0.33504 0.57175 0.98041 0.0
O865 O 0.27425 0.55031 0.94484 0.0
O866 O 0.28326 0.57014 0.97984 0.0
H867 H 0.28059 0.62923 0.98326 0.0
H868 H 0.26602 0.69334 0.92597 0.0
H869 H 0.26255 0.59302 0.9137 0.0
O870 O 0.41105 0.55099 0.72937 0.0
Tb871 Tb 0.42057 0.52966 0.7637 0.0
Eu872 Eu 0.45772 0.52288 0.80887 0.0
C873 C 0.42039 0.57393 0.71817 0.0
O874 O 0.43528 0.58682 0.72885 0.0
C875 C 0.4601 0.49701 0.75385 0.0
O876 O 0.46671 0.48329 0.83322 0.0
C877 C 0.48183 0.56901 0.81429 0.0
C878 C 0.46086 0.48205 0.85578 0.0
O879 O 0.44967 0.50448 0.86426 0.0
C880 C 0.4164 0.55357 0.81718 0.0
C881 C 0.48803 0.60024 0.82381 0.0
C882 C 0.4959 0.6214 0.80699 0.0
C883 C 0.50461 0.64942 0.81461 0.0
C884 C 0.50548 0.65639 0.83933 0.0
C885 C 0.49701 0.63669 0.85682 0.0
C886 C 0.48845 0.60802 0.84886 0.0
O887 O 0.44835 0.51977 0.74686 0.0
O888 O 0.46322 0.49107 0.77691 0.0
O889 O 0.39375 0.50322 0.76112 0.0
O890 O 0.41824 0.47991 0.77548 0.0
C891 C 0.40017 0.47669 0.76996 0.0
O892 O 0.42861 0.53185 0.82431 0.0
O893 O 0.41524 0.56226 0.79415 0.0
O894 O 0.48076 0.54488 0.82924 0.0
O895 O 0.46971 0.56763 0.79593 0.0
H896 H 0.49552 0.61575 0.78782 0.0
H897 H 0.51337 0.6772 0.84486 0.0
H898 H 0.48232 0.59181 0.86192 0.0
O899 O 0.33312 0.18714 0.73002 0.0
Tb900 Tb 0.32601 0.20733 0.76565 0.0
Eu901 Eu 0.28983 0.21274 0.8133 0.0
C902 C 0.33941 0.15794 0.72704 0.0
O903 O 0.34329 0.14074 0.74627 0.0
C904 C 0.28446 0.23102 0.75727 0.0
O905 O 0.28074 0.25419 0.83584 0.0
C906 C 0.26933 0.16275 0.82234 0.0
C907 C 0.29107 0.27999 0.83413 0.0
O908 O 0.30615 0.27981 0.81993 0.0
C909 C 0.33252 0.18587 0.81958 0.0
C910 C 0.26999 0.13035 0.83309 0.0
C911 C 0.27528 0.10464 0.81833 0.0
C912 C 0.27402 0.07346 0.82683 0.0
C913 C 0.26766 0.06787 0.85048 0.0
C914 C 0.26173 0.09275 0.86554 0.0
C915 C 0.26317 0.12418 0.85684 0.0
O916 O 0.29658 0.208 0.75224 0.0
O917 O 0.2814 0.23989 0.77976 0.0
O918 O 0.3485 0.24339 0.76117 0.0
O919 O 0.32207 0.25621 0.77752 0.0
C920 C 0.3388 0.2666 0.77085 0.0
O921 O 0.32009 0.20739 0.82648 0.0
O922 O 0.33449 0.17734 0.7966 0.0
O923 O 0.27012 0.18722 0.83704 0.0
O924 O 0.27856 0.16739 0.80177 0.0
H925 H 0.27985 0.10869 0.79981 0.0
H926 H 0.26655 0.04368 0.85688 0.0
H927 H 0.25826 0.14355 0.86811 0.0
H928 H 0.99722 0.58054 1.00262 0.0
H929 H 0.96422 0.52834 0.94938 0.0
H930 H 0.96728 0.47998 0.97414 0.0
H931 H 0.03029 0.52187 1.01537 0.0
H932 H 0.03193 0.529 0.04751 0.0
H933 H 0.02536 0.56073 0.02735 0.0
H934 H 0.99407 0.57032 0.05154 0.0
H935 H 0.00072 0.53901 0.07212 0.0
H936 H 0.97791 0.5378 0.05681 0.0
H937 H 0.97713 0.43648 1.00153 0.0
H938 H 0.98998 0.40082 0.03304 0.0
H939 H 0.01587 0.48099 0.06952 0.0
C940 C 0.99011 0.55917 0.99663 0.0
C941 C 0.98051 0.55805 0.97411 0.0
C942 C 0.97173 0.52953 0.96654 0.0
C943 C 0.97337 0.50201 0.98046 0.0
C944 C 0.98363 0.50354 1.00205 0.0
C945 C 0.99153 0.53144 1.01041 0.0
C946 C 0.00254 0.52613 0.03376 0.0
C947 C 0.02379 0.53496 0.0308 0.0
C948 C 0.99325 0.54439 0.0548 0.0
C949 C 4e-05 0.49075 0.03675 0.0
C950 C 0.98908 0.47826 0.01823 0.0
C951 C 0.98553 0.44597 1.01631 0.0
C952 C 0.99307 0.4259 0.0341 0.0
C953 C 0.00399 0.43822 0.05353 0.0
C954 C 0.00752 0.47106 0.05484 0.0
H955 H 0.2578 0.6706 1.00075 0.0
H956 H 0.29294 0.71975 0.94804 0.0
H957 H 0.29019 0.76893 0.97203 0.0
H958 H 0.22538 0.73077 1.01019 0.0
H959 H 0.22234 0.7245 0.04228 0.0
H960 H 0.2292 0.69203 0.02307 0.0
H961 H 0.25934 0.68173 0.04941 0.0
H962 H 0.25238 0.7138 0.06906 0.0
H963 H 0.27578 0.71368 0.05525 0.0
H964 H 0.28058 0.81375 0.9991 0.0
H965 H 0.2671 0.85042 0.02955 0.0
H966 H 0.23798 0.7719 0.06427 0.0
C967 C 0.26549 0.69141 0.99476 0.0
C968 C 0.27569 0.69144 0.97268 0.0
C969 C 0.28509 0.71936 0.96497 0.0
C970 C 0.2836 0.74733 0.97845 0.0
C971 C 0.27277 0.74685 0.99964 0.0
C972 C 0.26413 0.71951 1.00797 0.0
C973 C 0.2523 0.72581 0.03044 0.0
C974 C 0.23106 0.71781 0.02622 0.0
C975 C 0.26044 0.70768 0.05234 0.0
C976 C 0.25525 0.76108 0.03306 0.0
C977 C 0.26716 0.77275 1.01519 0.0
C978 C 0.27139 0.80486 1.01334 0.0
C979 C 0.2635 0.82553 0.03052 0.0
C980 C 0.25148 0.81397 0.0492 0.0
C981 C 0.24727 0.78133 0.05033 0.0
H982 H 0.00517 0.72563 0.32511 0.0
H983 H 0.03668 0.65135 0.28816 0.0
H984 H 0.04601 0.68925 0.25627 0.0
H985 H 0.98584 0.7605 0.27441 0.0
H986 H 0.9878 0.80083 0.28474 0.0
H987 H 0.98587 0.76921 0.3064 0.0
H988 H 0.01737 0.78747 0.32694 0.0
H989 H 0.01938 0.81931 0.30533 0.0
H990 H 0.03881 0.79157 0.30904 0.0
H991 H 0.04876 0.73287 0.22632 0.0
H992 H 0.0444 0.77952 0.19987 0.0
H993 H 0.01139 0.82575 0.25632 0.0
C994 C 0.01445 0.71759 0.31064 0.0
C995 C 0.02016 0.68557 0.30903 0.0
C996 C 0.03196 0.67571 0.28955 0.0
C997 C 0.0375 0.69712 0.27151 0.0
C998 C 0.03131 0.72837 0.27336 0.0
C999 C 0.02015 0.7387 0.2925 0.0
C1000 C 0.01408 0.77285 0.2891 0.0
C1001 C 0.9921 0.77601 0.28862 0.0
C1002 C 0.02295 0.79405 0.30876 0.0
C1003 C 0.02277 0.77957 0.26449 0.0
C1004 C 0.03297 0.75379 0.25597 0.0
C1005 C 0.04109 0.75341 0.23293 0.0
C1006 C 0.03844 0.77987 0.218 0.0
C1007 C 0.02764 0.80619 0.22613 0.0
C1008 C 0.02007 0.80622 0.24986 0.0
H1009 H 0.24483 0.41847 0.25505 0.0
H1010 H 0.29469 0.43392 0.20992 0.0
H1011 H 0.30697 0.47302 0.2393 0.0
H1012 H 0.23664 0.49499 0.26778 0.0
H1013 H 0.22891 0.49005 0.29872 0.0
H1014 H 0.22626 0.45809 0.27757 0.0
H1015 H 0.2458 0.42105 0.30579 0.0
H1016 H 0.24833 0.4529 0.32727 0.0
H1017 H 0.26929 0.43291 0.31583 0.0
H1018 H 0.31056 0.51712 0.26891 0.0
H1019 H 0.30592 0.56119 0.29789 0.0
H1020 H 0.25357 0.5172 0.32336 0.0
C1021 C 0.25874 0.42906 0.25202 0.0
C1022 C 0.26896 0.42312 0.23051 0.0
C1023 C 0.28678 0.43816 0.2265 0.0
C1024 C 0.29387 0.46028 0.24309 0.0
C1025 C 0.28301 0.46685 0.26364 0.0
C1026 C 0.26594 0.45135 0.26836 0.0
C1027 C 0.25581 0.46558 0.29 0.0
C1028 C 0.23573 0.47791 0.28308 0.0
C1029 C 0.25475 0.44168 0.31097 0.0
C1030 C 0.26932 0.49243 0.29589 0.0
C1031 C 0.28509 0.4925 0.28078 0.0
C1032 C 0.29853 0.51689 0.28127 0.0
C1033 C 0.29572 0.54192 0.29759 0.0
C1034 C 0.27954 0.54233 0.31304 0.0
C1035 C 0.26638 0.51702 0.31229 0.0
H1036 H 0.75045 0.26635 0.06473 0.0
H1037 H 0.7798 0.34111 0.02579 0.0
H1038 H 0.792 0.30177 0.99636 0.0
H1039 H 0.78683 0.20444 0.05552 0.0
H1040 H 0.76911 0.17385 0.05178 0.0
H1041 H 0.7641 0.20746 0.07087 0.0
H1042 H 0.73337 0.21952 0.04605 0.0
H1043 H 0.73819 0.18584 0.0271 0.0
H1044 H 0.7351 0.22442 1.01366 0.0
H1045 H 0.79936 0.25474 0.96999 0.0
H1046 H 0.79924 0.20455 0.94699 0.0
H1047 H 0.76486 0.161 1.0033 0.0
C1048 C 0.75972 0.27435 0.05024 0.0
C1049 C 0.76426 0.30671 0.04755 0.0
C1050 C 0.77605 0.31643 0.02805 0.0
C1051 C 0.7832 0.29423 1.01142 0.0
C1052 C 0.77845 0.26247 1.01463 0.0
C1053 C 0.76691 0.25258 0.03351 0.0
C1054 C 0.76274 0.21752 0.03196 0.0
C1055 C 0.7712 0.19978 0.05383 0.0
C1056 C 0.74107 0.21149 0.02953 0.0
C1057 C 0.77332 0.20933 1.00888 0.0
C1058 C 0.78256 0.23544 0.99936 0.0
C1059 C 0.79234 0.23407 0.97738 0.0
C1060 C 0.79217 0.20552 0.96445 0.0
C1061 C 0.78214 0.17885 0.97344 0.0
C1062 C 0.77305 0.18069 0.99625 0.0
H1063 H 0.98058 0.18495 0.78758 0.0
H1064 H 0.95039 0.23781 0.84311 0.0
H1065 H 0.95123 0.28553 0.81714 0.0
H1066 H 0.01218 0.24277 0.77213 0.0
H1067 H 0.0126 0.2347 0.74006 0.0
H1068 H 0.00692 0.20359 0.76108 0.0
H1069 H 0.97477 0.19341 0.73891 0.0
H1070 H 0.98046 0.22426 0.71752 0.0
H1071 H 0.95828 0.22573 0.7342 0.0
H1072 H 0.95917 0.32879 0.78747 0.0
H1073 H 0.97219 0.36363 0.7554 0.0
H1074 H 0.99711 0.28186 0.71975 0.0
C1075 C 0.97347 0.2062 0.7939 0.0
C1076 C 0.96529 0.20768 0.81725 0.0
C1077 C 0.95674 0.23626 0.82524 0.0
C1078 C 0.95708 0.26339 0.8106 0.0
C1079 C 0.96587 0.26139 0.78798 0.0
C1080 C 0.97368 0.23339 0.77954 0.0
C1081 C 0.98373 0.23803 0.75554 0.0
C1082 C 0.00512 0.22927 0.75733 0.0
C1083 C 0.9737 0.21925 0.73535 0.0
C1084 C 0.98096 0.27323 0.75221 0.0
C1085 C 0.97046 0.28628 0.77094 0.0
C1086 C 0.96715 0.31877 0.7725 0.0
C1087 C 0.97474 0.33838 0.75438 0.0
C1088 C 0.98556 0.32537 0.73509 0.0
C1089 C 0.98856 0.29237 0.73402 0.0
H1090 H 0.75931 0.51846 0.81038 0.0
H1091 H 0.73195 0.59465 0.77039 0.0
H1092 H 0.71958 0.55591 0.74074 0.0
H1093 H 0.77413 0.47394 0.75993 0.0
H1094 H 0.76975 0.43613 0.77401 0.0
H1095 H 0.77544 0.46992 0.79242 0.0
H1096 H 0.74416 0.46126 0.81694 0.0
H1097 H 0.73824 0.42768 0.79828 0.0
H1098 H 0.7215 0.45999 0.80127 0.0
H1099 H 0.71145 0.50903 0.7146 0.0
H1100 H 0.71053 0.45831 0.69225 0.0
H1101 H 0.74268 0.41333 0.75015 0.0
C1102 C 0.75054 0.52697 0.79553 0.0
C1103 C 0.74658 0.55952 0.79266 0.0
C1104 C 0.73536 0.56982 0.77274 0.0
C1105 C 0.72807 0.54797 0.75601 0.0
C1106 C 0.73203 0.51598 0.75959 0.0
C1107 C 0.74309 0.50554 0.7788 0.0
C1108 C 0.74617 0.47016 0.7779 0.0
C1109 C 0.76764 0.46208 0.77593 0.0
C1110 C 0.73697 0.45382 0.79991 0.0
C1111 C 0.73554 0.46237 0.7548 0.0
C1112 C 0.72724 0.48901 0.74467 0.0
C1113 C 0.71771 0.48794 0.72248 0.0
C1114 C 0.71725 0.4591 0.70994 0.0
C1115 C 0.72636 0.43188 0.7196 0.0
C1116 C 0.73511 0.43348 0.74263 0.0
H1117 H 0.01375 0.97404 0.57233 0.0
H1118 H 0.98119 0.89598 0.54228 0.0
H1119 H 0.96923 0.93109 0.50972 0.0
H1120 H 0.97845 0.03371 0.56197 0.0
H1121 H 0.99555 0.06403 0.55435 0.0
H1122 H 0.00224 0.03251 0.57469 0.0
H1123 H 0.03103 0.01793 0.54714 0.0
H1124 H 0.02466 0.0498 0.527 0.0
H1125 H 0.02696 0.01008 0.51545 0.0
H1126 H 0.96012 0.97519 0.48127 0.0
H1127 H 0.9571 0.02379 0.45653 0.0
H1128 H 0.99509 0.07297 0.50594 0.0
C1129 C 0.00417 0.96429 0.55882 0.0
C1130 C 0.9984 0.9323 0.55978 0.0
C1131 C 0.98601 0.92031 0.54167 0.0
C1132 C 0.97897 0.94015 0.5233 0.0
C1133 C 0.98448 0.97183 0.52337 0.0
C1134 C 0.99697 0.98373 0.54049 0.0
C1135 C 0.00078 0.01857 0.53648 0.0
C1136 C 0.99384 0.03836 0.55817 0.0
C1137 C 0.02212 0.02442 0.53119 0.0
C1138 C 0.98852 0.02444 0.51433 0.0
C1139 C 0.97913 -0.00276 0.50714 0.0
C1140 C 0.96738 -0.00337 0.48673 0.0
C1141 C 0.96571 0.02429 0.47286 0.0
C1142 C 0.97577 0.05207 0.47947 0.0
C1143 C 0.98693 0.05226 0.50078 0.0
H1144 H 0.25044 0.16724 0.49523 0.0
H1145 H 0.28415 0.21242 0.43902 0.0
H1146 H 0.28455 0.26199 0.46283 0.0
H1147 H 0.22102 0.23204 0.50788 0.0
H1148 H 0.21986 0.22533 0.54011 0.0
H1149 H 0.22376 0.19258 0.51987 0.0
H1150 H 0.25489 0.17767 0.54291 0.0
H1151 H 0.25098 0.21018 0.56344 0.0
H1152 H 0.27326 0.2071 0.5471 0.0
H1153 H 0.27947 0.30729 0.49148 0.0
H1154 H 0.27035 0.3448 0.52381 0.0
H1155 H 0.23932 0.26993 0.56063 0.0
C1156 C 0.25834 0.18732 0.48826 0.0
C1157 C 0.26738 0.18607 0.46542 0.0
C1158 C 0.27713 0.21304 0.45651 0.0
C1159 C 0.27746 0.24119 0.4699 0.0
C1160 C 0.268 0.24186 0.49211 0.0
C1161 C 0.25875 0.21557 0.50132 0.0
C1162 C 0.24887 0.22294 0.52505 0.0
C1163 C 0.22709 0.21793 0.52309 0.0
C1164 C 0.25752 0.20331 0.54585 0.0
C1165 C 0.25376 0.25761 0.52756 0.0
C1166 C 0.26488 0.26804 0.50846 0.0
C1167 C 0.27083 0.29938 0.50659 0.0
C1168 C 0.26542 0.32055 0.52489 0.0
C1169 C 0.2541 0.31028 0.54469 0.0
C1170 C 0.24818 0.27839 0.54589 0.0
H1171 H 0.25968 0.06672 0.78122 0.0
H1172 H 0.29364 0.01832 0.83575 0.0
H1173 H 0.29282 0.96946 0.81114 0.0
H1174 H 0.2289 0.00598 0.76955 0.0
H1175 H 0.22683 0.01256 0.73738 0.0
H1176 H 0.23258 0.04498 0.75713 0.0
H1177 H 0.26339 0.05647 0.73248 0.0
H1178 H 0.25758 0.02436 0.71231 0.0
H1179 H 0.28049 0.02514 0.72738 0.0
H1180 H 0.28459 0.92441 0.78331 0.0
H1181 H 0.27153 0.88742 0.75275 0.0
H1182 H 0.2431 0.9658 0.71669 0.0
C1183 C 0.2676 0.04623 0.78753 0.0
C1184 C 0.27684 0.0463 0.81027 0.0
C1185 C 0.28648 0.01868 0.81833 0.0
C1186 C 0.28612 0.9909 0.80447 0.0
C1187 C 0.27621 0.99129 0.78254 0.0
C1188 C 0.26737 0.01838 0.77394 0.0
C1189 C 0.2564 0.012 0.75082 0.0
C1190 C 0.23491 0.01931 0.75393 0.0
C1191 C 0.26499 0.03059 0.72948 0.0
C1192 C 0.25995 0.97688 0.74817 0.0
C1193 C 0.27151 0.96536 0.76652 0.0
C1194 C 0.27578 0.93323 0.76864 0.0
C1195 C 0.26816 0.91239 0.75138 0.0
C1196 C 0.2564 0.92385 0.73237 0.0
C1197 C 0.25233 0.95651 0.73081 0.0
H1198 H 0.73518 0.81922 0.5266 0.0
H1199 H 0.70377 0.77395 0.58484 0.0
H1200 H 0.70356 0.72389 0.56173 0.0
H1201 H 0.71224 0.77343 0.47526 0.0
H1202 H 0.73461 0.77231 0.45898 0.0
H1203 H 0.72893 0.80572 0.47799 0.0
H1204 H 0.76081 0.79727 0.50127 0.0
H1205 H 0.76642 0.76354 0.48279 0.0
H1206 H 0.76558 0.7595 0.5153 0.0
H1207 H 0.7116 0.67716 0.53561 0.0
H1208 H 0.72497 0.63822 0.50666 0.0
H1209 H 0.75102 0.71471 0.46592 0.0
C1210 C 0.72748 0.79921 0.53401 0.0
C1211 C 0.71943 0.80043 0.55743 0.0
C1212 C 0.71007 0.7734 0.56691 0.0
C1213 C 0.70981 0.74495 0.55389 0.0
C1214 C 0.71873 0.74414 0.53133 0.0
C1215 C 0.72707 0.77075 0.52125 0.0
C1216 C 0.73735 0.763 0.49789 0.0
C1217 C 0.7277 0.77959 0.47625 0.0
C1218 C 0.7588 0.77131 0.49943 0.0
C1219 C 0.7343 0.72765 0.49703 0.0
C1220 C 0.72333 0.7172 0.51626 0.0
C1221 C 0.71988 0.68511 0.5202 0.0
C1222 C 0.7277 0.66318 0.50388 0.0
C1223 C 0.73891 0.67354 0.48404 0.0
C1224 C 0.74216 0.70619 0.48065 0.0
H1225 H 0.7396 0.91479 0.25689 0.0
H1226 H 0.70074 0.9576 0.20496 0.0
H1227 H 0.70342 0.00878 0.22632 0.0
H1228 H 0.7233 0.96151 0.31065 0.0
H1229 H 0.74733 0.96401 0.32249 0.0
H1230 H 0.74019 0.93001 0.30501 0.0
H1231 H 0.76871 0.93968 0.27589 0.0
H1232 H 0.77568 0.97412 0.29288 0.0
H1233 H 0.7709 0.97742 0.26087 0.0
H1234 H 0.71329 0.0563 0.25025 0.0
H1235 H 0.72685 0.09605 0.2782 0.0
H1236 H 0.75959 0.02228 0.3142 0.0
C1237 C 0.73109 0.93465 0.25062 0.0
C1238 C 0.71984 0.93233 0.22945 0.0
C1239 C 0.70936 0.95901 0.22125 0.0
C1240 C 0.71084 0.98812 0.2332 0.0
C1241 C 0.72276 0.99002 0.25338 0.0
C1242 C 0.73244 0.9639 0.26232 0.0
C1243 C 0.74519 0.97275 0.28345 0.0
C1244 C 0.7386 0.95608 0.30678 0.0
C1245 C 0.76637 0.96556 0.27792 0.0
C1246 C 0.7415 0.00801 0.2846 0.0
C1247 C 0.72851 0.0175 0.26714 0.0
C1248 C 0.72333 0.04913 0.26417 0.0
C1249 C 0.73129 0.07157 0.2799 0.0
C1250 C 0.74427 0.06222 0.29831 0.0
C1251 C 0.74956 0.03005 0.30042 0.0
H1252 H 0.48721 0.52193 0.46905 0.0
H1253 H 0.51884 0.59667 0.50506 0.0
H1254 H 0.5322 0.55757 0.5338 0.0
H1255 H 0.47517 0.47839 0.52217 0.0
H1256 H 0.47781 0.4403 0.50785 0.0
H1257 H 0.4712 0.4743 0.49004 0.0
H1258 H 0.50018 0.4638 0.46171 0.0
H1259 H 0.50708 0.43008 0.47977 0.0
H1260 H 0.52395 0.46154 0.4744 0.0
H1261 H 0.54175 0.51073 0.55878 0.0
H1262 H 0.54402 0.46014 0.58114 0.0
H1263 H 0.50664 0.41589 0.52839 0.0
C1264 C 0.49698 0.53003 0.48296 0.0
C1265 C 0.50196 0.56231 0.4849 0.0
C1266 C 0.51461 0.57211 0.5035 0.0
C1267 C 0.52247 0.55004 0.51968 0.0
C1268 C 0.51758 0.5183 0.51692 0.0
C1269 C 0.50498 0.50834 0.49919 0.0
C1270 C 0.50146 0.47308 0.50074 0.0
C1271 C 0.48015 0.46612 0.5055 0.0
C1272 C 0.5086 0.45613 0.47779 0.0
C1273 C 0.51376 0.46484 0.52244 0.0
C1274 C 0.52316 0.4912 0.53128 0.0
C1275 C 0.53458 0.48987 0.55195 0.0
C1276 C 0.53584 0.4611 0.56446 0.0
C1277 C 0.52563 0.43421 0.55631 0.0
C1278 C 0.51494 0.43591 0.53465 0.0
H1279 H 0.49997 0.71326 0.81432 0.0
H1280 H 0.52716 0.63658 0.77491 0.0
H1281 H 0.54002 0.67521 0.74532 0.0
H1282 H 0.48493 0.75595 0.76422 0.0
H1283 H 0.48899 0.79428 0.77757 0.0
H1284 H 0.48389 0.76088 0.79665 0.0
H1285 H 0.51531 0.77102 0.82055 0.0
H1286 H 0.52059 0.80436 0.8013 0.0
H1287 H 0.53779 0.77274 0.80452 0.0
H1288 H 0.54766 0.72188 0.71857 0.0
H1289 H 0.54744 0.77191 0.69527 0.0
H1290 H 0.51515 0.81711 0.75285 0.0
C1291 C 0.50898 0.70465 0.79976 0.0
C1292 C 0.51271 0.67205 0.79693 0.0
C1293 C 0.52408 0.66152 0.77727 0.0
C1294 C 0.53161 0.68328 0.76059 0.0
C1295 C 0.52767 0.71535 0.76399 0.0
C1296 C 0.51658 0.72593 0.78309 0.0
C1297 C 0.51303 0.76114 0.78169 0.0
C1298 C 0.49144 0.76847 0.77991 0.0
C1299 C 0.52223 0.77832 0.8033 0.0
C1300 C 0.52333 0.76867 0.75835 0.0
C1301 C 0.53199 0.74211 0.74859 0.0
C1302 C 0.54115 0.74291 0.72618 0.0
C1303 C 0.54091 0.77134 0.71306 0.0
C1304 C 0.53138 0.79839 0.72235 0.0
C1305 C 0.523 0.79712 0.74558 0.0
H1306 H 0.49828 0.22077 0.31411 0.0
H1307 H 0.52826 0.14539 0.27648 0.0
H1308 H 0.54122 0.18442 0.24736 0.0
H1309 H 0.48424 0.26281 0.26237 0.0
H1310 H 0.48713 0.30136 0.27584 0.0
H1311 H 0.48177 0.26779 0.29467 0.0
H1312 H 0.51196 0.27947 0.32059 0.0
H1313 H 0.51754 0.31291 0.30158 0.0
H1314 H 0.53504 0.28203 0.30608 0.0
H1315 H 0.54918 0.23096 0.22111 0.0
H1316 H 0.54925 0.28075 0.19755 0.0
H1317 H 0.5142 0.32551 0.25263 0.0
C1318 C 0.50781 0.21257 0.29995 0.0
C1319 C 0.51235 0.18015 0.29753 0.0
C1320 C 0.52451 0.17014 0.27848 0.0
C1321 C 0.5321 0.19215 0.26208 0.0
C1322 C 0.52743 0.224 0.26508 0.0
C1323 C 0.51548 0.23416 0.28347 0.0
C1324 C 0.51146 0.26928 0.28167 0.0
C1325 C 0.48988 0.27566 0.27843 0.0
C1326 C 0.51949 0.28696 0.30379 0.0
C1327 C 0.52261 0.27718 0.25897 0.0
C1328 C 0.53198 0.25086 0.24991 0.0
C1329 C 0.5421 0.25182 0.22817 0.0
C1330 C 0.54207 0.28013 0.21494 0.0
C1331 C 0.53187 0.30692 0.22343 0.0
C1332 C 0.52253 0.30563 0.24606 0.0
H1333 H 0.51051 0.92796 0.02494 0.0
H1334 H 0.45972 0.93328 0.07006 0.0
H1335 H 0.44717 0.9768 0.04477 0.0
H1336 H 0.51651 0.00861 1.01747 0.0
H1337 H 0.52427 0.007 0.98634 0.0
H1338 H 0.52822 0.97362 1.00597 0.0
H1339 H 0.51008 0.93728 0.97594 0.0
H1340 H 0.50618 0.97058 0.95608 0.0
H1341 H 0.4861 0.94762 0.96662 0.0
H1342 H 0.44192 0.02353 0.01783 0.0
H1343 H 0.44375 0.06881 0.98937 0.0
H1344 H 0.49766 0.03248 0.9617 0.0
C1345 C 0.49653 0.93776 0.02904 0.0
C1346 C 0.48611 0.92747 0.04944 0.0
C1347 C 0.468 0.94115 0.05459 0.0
C1348 C 0.4607 0.96571 0.04028 0.0
C1349 C 0.47159 0.97605 0.02074 0.0
C1350 C 0.48901 0.96231 1.0149 0.0
C1351 C 0.49843 0.9793 0.99395 0.0
C1352 C 0.51801 0.99294 1.00139 0.0
C1353 C 0.5003 0.95738 0.97184 0.0
C1354 C 0.48388 0.00524 0.98948 0.0
C1355 C 0.46842 0.00285 1.00497 0.0
C1356 C 0.45378 0.02539 1.00529 0.0
C1357 C 0.45498 0.05107 0.98924 0.0
C1358 C 0.47069 0.05382 0.97321 0.0
C1359 C 0.48523 0.0305 0.97335 0.0
H1360 H 0.042 0.2644 0.96633 0.0
H1361 H 0.01495 0.21063 0.02403 0.0
H1362 H 0.99806 0.17837 0.99378 0.0
H1363 H 0.00083 0.26599 0.92678 0.0
H1364 H 0.01472 0.26199 0.89942 0.0
H1365 H 0.02506 0.28066 0.92565 0.0
H1366 H 0.05332 0.2409 0.92447 0.0
H1367 H 0.04301 0.22192 0.89832 0.0
H1368 H 0.04848 0.19901 0.92502 0.0
H1369 H 0.98402 0.15125 0.95721 0.0
H1370 H 0.97214 0.1345 0.9169 0.0
H1371 H 0.00803 0.20557 0.88298 0.0
C1372 C 0.03247 0.24594 0.97261 0.0
C1373 C 0.02987 0.24022 0.99767 0.0
C1374 C 0.01724 0.21571 1.00501 0.0
C1375 C 0.00759 0.19705 0.98794 0.0
C1376 C 0.0106 0.20308 0.96344 0.0
C1377 C 0.0226 0.22708 0.95575 0.0
C1378 C 0.02292 0.22902 0.9283 0.0
C1379 C 0.01543 0.26133 0.91953 0.0
C1380 C 0.04314 0.22231 0.91846 0.0
C1381 C 0.00915 0.20255 0.92187 0.0
C1382 C 0.00232 0.18768 0.94238 0.0
C1383 C 0.98928 0.16272 0.94099 0.0
C1384 C 0.9827 0.15319 0.91803 0.0
C1385 C 0.98904 0.16876 0.8968 0.0
C1386 C 0.00273 0.19338 0.89888 0.0
H1387 H 0.20715 0.9803 0.95938 0.0
H1388 H 0.23078 0.03755 1.01741 0.0
H1389 H 0.24555 0.07299 0.98723 0.0
H1390 H 0.24754 0.98624 0.9192 0.0
H1391 H 0.23308 0.98841 0.89217 0.0
H1392 H 0.2243 0.96769 0.91842 0.0
H1393 H 0.1938 0.00261 0.91818 0.0
H1394 H 0.20253 0.0237 0.89205 0.0
H1395 H 0.19609 0.04509 0.91911 0.0
H1396 H 0.25817 0.10246 0.95022 0.0
H1397 H 0.2688 0.12099 0.90972 0.0
H1398 H 0.23607 0.0456 0.87625 0.0
C1399 C 0.21553 0.00016 0.96578 0.0
C1400 C 0.21781 0.00593 0.99088 0.0
C1401 C 0.2288 0.03243 0.99835 0.0
C1402 C 0.23722 0.05285 0.98131 0.0
C1403 C 0.23452 0.04669 0.95674 0.0
C1404 C 0.22398 0.0209 0.949 0.0
C1405 C 0.22337 0.01939 0.92156 0.0
C1406 C 0.23263 0.98861 0.9123 0.0
C1407 C 0.20272 0.02292 0.91218 0.0
C1408 C 0.23538 0.04809 0.91511 0.0
C1409 C 0.24161 0.0637 0.9356 0.0
C1410 C 0.25331 0.09046 0.93404 0.0
C1411 C 0.25917 0.10101 0.91096 0.0
C1412 C 0.25342 0.08473 0.88976 0.0
C1413 C 0.24096 0.05842 0.89206 0.0
H1414 H 0.01265 0.05254 0.41014 0.0
H1415 H 0.97475 0.12252 0.37806 0.0
H1416 H 0.98282 0.1019 0.33721 0.0
H1417 H 0.04895 0.052 0.3624 0.0
H1418 H 0.05284 0.00993 0.36488 0.0
H1419 H 0.0454 0.03228 0.39103 0.0
H1420 H 0.01639 -0.00521 0.39643 0.0
H1421 H 0.02359 0.97261 0.37011 0.0
H1422 H -0.00014 0.98942 0.37167 0.0
H1423 H 0.99347 0.07087 0.30011 0.0
H1424 H 0.00725 0.03503 0.26955 0.0
H1425 H 0.03739 0.98371 0.3262 0.0
C1426 C 0.00613 0.06378 0.39452 0.0
C1427 C 0.99294 0.08916 0.39737 0.0
C1428 C 0.98499 0.10334 0.37639 0.0
C1429 C 0.98938 0.09156 0.35314 0.0
C1430 C 0.00181 0.06565 0.35117 0.0
C1431 C 0.01022 0.05217 0.37133 0.0
C1432 C 0.02261 0.02393 0.3645 0.0
C1433 C 0.0437 0.0299 0.37109 0.0
C1434 C 0.01516 -0.00661 0.37638 0.0
C1435 C 0.01974 0.02329 0.33726 0.0
C1436 C 0.00774 0.04762 0.32996 0.0
C1437 C 0.00294 0.05188 0.30568 0.0
C1438 C 0.01084 0.03122 0.28843 0.0
C1439 C 0.02342 0.00632 0.29536 0.0
C1440 C 0.02772 0.00223 0.32024 0.0
H1441 H 0.2269 0.17721 0.39709 0.0
H1442 H 0.2668 0.10759 0.36891 0.0
H1443 H 0.25914 0.12505 0.32711 0.0
H1444 H 0.19149 0.17315 0.346 0.0
H1445 H 0.18689 0.2151 0.34741 0.0
H1446 H 0.19323 0.1937 0.37455 0.0
H1447 H 0.2213 0.23262 0.38181 0.0
H1448 H 0.21512 0.25376 0.3546 0.0
H1449 H 0.239 0.23812 0.35839 0.0
H1450 H 0.25045 0.15521 0.28889 0.0
H1451 H 0.24012 0.19307 0.25729 0.0
H1452 H 0.20604 0.24365 0.31031 0.0
C1453 C 0.23374 0.16513 0.38209 0.0
C1454 C 0.2475 0.14092 0.38633 0.0
C1455 C 0.25607 0.1258 0.36618 0.0
C1456 C 0.25187 0.13575 0.34237 0.0
C1457 C 0.23886 0.1606 0.33895 0.0
C1458 C 0.22969 0.17477 0.35829 0.0
C1459 C 0.21726 0.20234 0.34993 0.0
C1460 C 0.19596 0.19566 0.35476 0.0
C1461 C 0.22356 0.23354 0.36189 0.0
C1462 C 0.22147 0.20234 0.32296 0.0
C1463 C 0.23377 0.17784 0.31696 0.0
C1464 C 0.24056 0.17407 0.29337 0.0
C1465 C 0.23466 0.1958 0.27554 0.0
C1466 C 0.22202 0.22101 0.28121 0.0
C1467 C 0.21533 0.22418 0.30528 0.0
H1468 H 0.01891 0.79522 0.14217 0.0
H1469 H 0.98512 0.88189 0.14008 0.0
H1470 H 0.971 0.86473 0.10139 0.0
H1471 H 0.02618 0.78409 0.0784 0.0
H1472 H 0.02274 0.74186 0.07981 0.0
H1473 H 0.03207 0.7627 0.1057 0.0
H1474 H 0.00479 0.74005 0.13234 0.0
H1475 H 0.99537 0.71912 0.10656 0.0
H1476 H 0.98022 0.74594 0.12325 0.0
H1477 H 0.96 0.83731 0.06273 0.0
H1478 H 0.95135 0.80058 0.02957 0.0
H1479 H 0.9884 0.7287 0.06054 0.0
C1480 C 0.00838 0.81074 0.13402 0.0
C1481 C 0.00328 0.84019 0.14477 0.0
C1482 C 0.9898 0.85963 0.13242 0.0
C1483 C 0.98149 0.84991 0.11039 0.0
C1484 C 0.98645 0.82037 0.10095 0.0
C1485 C 0.99943 0.80094 0.11257 0.0
C1486 C 0.00127 0.76926 0.09977 0.0
C1487 C 0.02178 0.76419 0.09036 0.0
C1488 C 0.99504 0.74199 0.11648 0.0
C1489 C 0.98726 0.77383 0.07905 0.0
C1490 C 0.97914 0.80373 0.07979 0.0
C1491 C 0.96621 0.81383 0.06211 0.0
C1492 C 0.96143 0.79286 0.04332 0.0
C1493 C 0.96917 0.76185 0.04259 0.0
C1494 C 0.98218 0.7522 0.06079 0.0
H1495 H 0.78805 0.99018 0.08009 0.0
H1496 H 0.75719 0.94254 0.02244 0.0
H1497 H 0.74215 0.90721 0.05258 0.0
H1498 H 0.79742 0.9213 0.11619 0.0
H1499 H 0.79402 0.94142 0.14467 0.0
H1500 H 0.80234 0.96306 0.11859 0.0
H1501 H 0.77411 0.00259 0.12276 0.0
H1502 H 0.76601 0.98156 0.14918 0.0
H1503 H 0.74993 0.98787 0.12405 0.0
H1504 H 0.73001 0.87704 0.08981 0.0
H1505 H 0.72055 0.85798 0.13069 0.0
H1506 H 0.76009 0.92464 0.16313 0.0
C1507 C 0.77798 0.97259 0.07376 0.0
C1508 C 0.77373 0.96944 0.04882 0.0
C1509 C 0.76065 0.94565 0.04141 0.0
C1510 C 0.75208 0.92531 0.05841 0.0
C1511 C 0.75675 0.92885 0.08282 0.0
C1512 C 0.76932 0.95206 0.09046 0.0
C1513 C 0.77177 0.95136 0.11771 0.0
C1514 C 0.79263 0.94383 0.12469 0.0
C1515 C 0.76504 0.9827 0.1291 0.0
C1516 C 0.75851 0.92435 0.12426 0.0
C1517 C 0.75001 0.91145 0.10396 0.0
C1518 C 0.73668 0.88689 0.10581 0.0
C1519 C 0.73148 0.876 0.12906 0.0
C1520 C 0.73954 0.88982 0.15007 0.0
C1521 C 0.75361 0.91365 0.14741 0.0
H1522 H 0.94915 0.01771 0.71891 0.0
H1523 H 0.98997 0.98759 0.77369 0.0
H1524 H 0.00672 0.95485 0.74329 0.0
H1525 H 0.94505 0.94333 0.69029 0.0
H1526 H 0.94297 0.95915 0.66005 0.0
H1527 H 0.93509 0.98227 0.68557 0.0
H1528 H 0.9574 0.02818 0.67261 0.0
H1529 H 0.96523 0.00536 0.64689 0.0
H1530 H 0.98257 0.02057 0.66808 0.0
H1531 H 0.0183 0.9235 0.70705 0.0
H1532 H 0.02426 0.89771 0.66746 0.0
H1533 H 0.97478 0.94643 0.63749 0.0
C1534 C 0.96183 0.00474 0.7244 0.0
C1535 C 0.96833 0.00539 0.74863 0.0
C1536 C 0.98476 0.98753 0.7552 0.0
C1537 C 0.99437 0.96882 0.73807 0.0
C1538 C 0.98733 0.9681 0.71447 0.0
C1539 C 0.97148 0.98569 0.70761 0.0
C1540 C 0.9663 0.97972 0.68139 0.0
C1541 C 0.94616 0.96525 0.67921 0.0
C1542 C 0.96799 0.01027 0.66636 0.0
C1543 C 0.98169 0.95602 0.67461 0.0
C1544 C 0.99373 0.94965 0.69386 0.0
C1545 C 0.00898 0.92837 0.69181 0.0
C1546 C 0.01217 0.91363 0.66934 0.0
C1547 C 0.00013 0.92021 0.64928 0.0
C1548 C 0.98453 0.94134 0.65226 0.0
H1549 H 0.79347 0.73749 0.70501 0.0
H1550 H 0.76814 0.7942 0.76233 0.0
H1551 H 0.75376 0.82951 0.73186 0.0
H1552 H 0.8041 0.80256 0.66422 0.0
H1553 H 0.79795 0.78071 0.63728 0.0
H1554 H 0.8069 0.76013 0.66359 0.0
H1555 H 0.77677 0.72446 0.66391 0.0
H1556 H 0.76782 0.74472 0.6375 0.0
H1557 H 0.75334 0.74251 0.66448 0.0
H1558 H 0.74158 0.85887 0.69498 0.0
H1559 H 0.73062 0.87675 0.65445 0.0
H1560 H 0.7637 0.8014 0.62122 0.0
C1561 C 0.7849 0.75731 0.71117 0.0
C1562 C 0.782 0.76287 0.73619 0.0
C1563 C 0.77061 0.78916 0.74335 0.0
C1564 C 0.76241 0.80958 0.72615 0.0
C1565 C 0.76564 0.80358 0.7017 0.0
C1566 C 0.77649 0.77795 0.69418 0.0
C1567 C 0.77714 0.77621 0.66674 0.0
C1568 C 0.79775 0.78014 0.65741 0.0
C1569 C 0.76823 0.74513 0.65763 0.0
C1570 C 0.76481 0.80457 0.6601 0.0
C1571 C 0.75847 0.82029 0.6805 0.0
C1572 C 0.74651 0.8468 0.67886 0.0
C1573 C 0.74046 0.85697 0.65578 0.0
C1574 C 0.74623 0.84048 0.63469 0.0
C1575 C 0.75893 0.81441 0.63702 0.0
H1576 H 0.05223 0.7426 0.48033 0.0
H1577 H 0.00035 0.72128 0.5202 0.0
H1578 H 0.98933 0.68747 0.48655 0.0
H1579 H 0.03061 0.74863 0.42263 0.0
H1580 H 0.05009 0.73046 0.40626 0.0
H1581 H 0.05476 0.75119 0.43405 0.0
H1582 H 0.07104 0.70188 0.45238 0.0
H1583 H 0.06683 0.68061 0.4246 0.0
H1584 H 0.05835 0.66477 0.45297 0.0
H1585 H 0.98336 0.65724 0.44754 0.0
H1586 H 0.98229 0.63616 0.40565 0.0
H1587 H 0.03831 0.67658 0.3918 0.0
C1588 C 0.03865 0.73072 0.48211 0.0
C1589 C 0.02728 0.73457 0.50306 0.0
C1590 C 0.00941 0.71872 0.50439 0.0
C1591 C 0.00304 0.6993 0.48539 0.0
C1592 C 0.01467 0.6959 0.46505 0.0
C1593 C 0.03208 0.71128 0.46326 0.0
C1594 C 0.0415 0.70475 0.43904 0.0
C1595 C 0.04438 0.73559 0.42464 0.0
C1596 C 0.06056 0.68694 0.44246 0.0
C1597 C 0.02651 0.6838 0.42733 0.0
C1598 C 0.01121 0.67867 0.44268 0.0
C1599 C 0.99534 0.66093 0.43542 0.0
C1600 C 0.99489 0.64884 0.41166 0.0
C1601 C 0.01015 0.65477 0.39539 0.0
C1602 C 0.02633 0.67182 0.40371 0.0
H1603 H 0.21018 0.47521 0.46218 0.0
H1604 H 0.23032 0.53852 0.51863 0.0
H1605 H 0.24344 0.57432 0.48771 0.0
H1606 H 0.25067 0.48479 0.42258 0.0
H1607 H 0.23667 0.48376 0.39514 0.0
H1608 H 0.22841 0.46325 0.42175 0.0
H1609 H 0.19636 0.49414 0.41969 0.0
H1610 H 0.20459 0.51493 0.39315 0.0
H1611 H 0.19666 0.5368 0.41934 0.0
H1612 H 0.25521 0.60343 0.45043 0.0
H1613 H 0.26599 0.6212 0.40984 0.0
H1614 H 0.23751 0.54035 0.37756 0.0
C1615 C 0.21738 0.49655 0.46804 0.0
C1616 C 0.21915 0.50382 0.493 0.0
C1617 C 0.22868 0.53217 0.49974 0.0
C1618 C 0.23619 0.55286 0.48226 0.0
C1619 C 0.23408 0.54518 0.45789 0.0
C1620 C 0.22497 0.51766 0.45074 0.0
C1621 C 0.22498 0.51479 0.42332 0.0
C1622 C 0.23584 0.48488 0.41523 0.0
C1623 C 0.20442 0.5152 0.41329 0.0
C1624 C 0.23574 0.54468 0.4163 0.0
C1625 C 0.24077 0.56203 0.43647 0.0
C1626 C 0.25126 0.59008 0.43448 0.0
C1627 C 0.25721 0.60019 0.41132 0.0
C1628 C 0.25275 0.58222 0.39043 0.0
C1629 C 0.24141 0.55455 0.39313 0.0
H1630 H 0.9821 0.54881 0.89026 0.0
H1631 H 0.01214 0.63848 0.88452 0.0
H1632 H 0.02665 0.62032 0.84605 0.0
H1633 H 0.02222 0.50273 0.8736 0.0
H1634 H 0.00836 0.47302 0.85812 0.0
H1635 H 0.99788 0.49499 0.88271 0.0
H1636 H 0.96994 0.5126 0.85482 0.0
H1637 H 0.98029 0.49054 0.83013 0.0
H1638 H 0.97517 0.53211 0.82652 0.0
H1639 H 0.03913 0.59052 0.80856 0.0
H1640 H 0.04961 0.55177 0.77759 0.0
H1641 H 0.01532 0.4792 0.81205 0.0
C1642 C 0.99179 0.56487 0.88119 0.0
C1643 C 0.996 0.59523 0.89096 0.0
C1644 C 0.00834 0.61538 0.87759 0.0
C1645 C 0.01682 0.60509 0.85573 0.0
C1646 C 0.01306 0.57442 0.84749 0.0
C1647 C 0.0009 0.55459 0.85999 0.0
C1648 C 0.00046 0.52177 0.8488 0.0
C1649 C 0.00766 0.49666 0.86688 0.0
C1650 C 0.98026 0.5138 0.83952 0.0
C1651 C 0.0144 0.52598 0.82801 0.0
C1652 C 0.02121 0.55673 0.82722 0.0
C1653 C 0.0339 0.56644 0.80916 0.0
C1654 C 0.03975 0.54427 0.79162 0.0
C1655 C 0.03335 0.51247 0.79252 0.0
C1656 C 0.02057 0.50327 0.81106 0.0
H1657 H 0.20553 0.75155 0.82297 0.0
H1658 H 0.23562 0.7026 0.76518 0.0
H1659 H 0.25116 0.66785 0.79524 0.0
H1660 H 0.24428 0.74986 0.86599 0.0
H1661 H 0.22887 0.7436 0.89174 0.0
H1662 H 0.21996 0.76435 0.86553 0.0
H1663 H 0.19195 0.72445 0.86232 0.0
H1664 H 0.2009 0.70334 0.88838 0.0
H1665 H 0.1971 0.68271 0.86021 0.0
H1666 H 0.26381 0.63814 0.83201 0.0
H1667 H 0.27401 0.61918 0.87262 0.0
H1668 H 0.23525 0.68661 0.90602 0.0
C1669 C 0.21547 0.73367 0.81662 0.0
C1670 C 0.21932 0.72998 0.79161 0.0
C1671 C 0.23238 0.70606 0.78418 0.0
C1672 C 0.24126 0.68603 0.80114 0.0
C1673 C 0.23697 0.69001 0.82559 0.0
C1674 C 0.22446 0.71337 0.83333 0.0
C1675 C 0.22257 0.71303 0.86069 0.0
C1676 C 0.22933 0.74458 0.87162 0.0
C1677 C 0.2019 0.70542 0.86834 0.0
C1678 C 0.23611 0.68614 0.86709 0.0
C1679 C 0.24419 0.67294 0.84663 0.0
C1680 C 0.25751 0.64824 0.84818 0.0
C1681 C 0.26313 0.63742 0.87128 0.0
C1682 C 0.25552 0.65143 0.89248 0.0
C1683 C 0.24146 0.67553 0.89016 0.0
H1684 H 0.97349 0.22749 0.57249 0.0
H1685 H 0.96943 0.30456 0.52071 0.0
H1686 H 0.98106 0.34186 0.55174 0.0
H1687 H 0.95833 0.27 0.62432 0.0
H1688 H 0.97497 0.25139 0.64489 0.0
H1689 H 0.96693 0.23049 0.61837 0.0
H1690 H 0.00214 0.22227 0.60489 0.0
H1691 H 0.0103 0.24311 0.63143 0.0
H1692 H 0.01766 0.25609 0.60174 0.0
H1693 H 0.99046 0.37203 0.59003 0.0
H1694 H 0.998 0.39117 0.63127 0.0
H1695 H -9e-05 0.29373 0.65648 0.0
C1696 C 0.97524 0.25214 0.56762 0.0
C1697 C 0.97055 0.26295 0.54405 0.0
C1698 C 0.97306 0.2955 0.53851 0.0
C1699 C 0.97963 0.31699 0.55607 0.0
C1700 C 0.98404 0.30566 0.57913 0.0
C1701 C 0.98221 0.27389 0.58483 0.0
C1702 C 0.98792 0.26785 0.61096 0.0
C1703 C 0.97104 0.25413 0.62548 0.0
C1704 C 0.00556 0.24604 0.61233 0.0
C1705 C 0.99276 0.30121 0.61919 0.0
C1706 C 0.99035 0.32277 0.60067 0.0
C1707 C 0.99269 0.35523 0.60458 0.0
C1708 C 0.99716 0.36594 0.62813 0.0
C1709 C 0.99945 0.34428 0.64759 0.0
C1710 C 0.99785 0.31136 0.64248 0.0
H1711 H 0.75866 0.47905 0.5453 0.0
H1712 H 0.81842 0.48776 0.56552 0.0
H1713 H 0.81337 0.45021 0.59938 0.0
H1714 H 0.74128 0.47923 0.6067 0.0
H1715 H 0.72191 0.45224 0.60063 0.0
H1716 H 0.73081 0.47742 0.57686 0.0
H1717 H 0.7368 0.42796 0.55015 0.0
H1718 H 0.72827 0.4026 0.57409 0.0
H1719 H 0.75179 0.39641 0.56144 0.0
H1720 H 0.80176 0.41131 0.63109 0.0
H1721 H 0.78347 0.3828 0.66271 0.0
H1722 H 0.73069 0.40304 0.62442 0.0
C1723 C 0.77065 0.47294 0.55689 0.0
C1724 C 0.78896 0.48618 0.55279 0.0
C1725 C 0.80426 0.47802 0.56846 0.0
C1726 C 0.80156 0.45645 0.58757 0.0
C1727 C 0.78337 0.44359 0.59108 0.0
C1728 C 0.76805 0.45214 0.57654 0.0
C1729 C 0.74959 0.43736 0.58567 0.0
C1730 C 0.73504 0.46309 0.5929 0.0
C1731 C 0.74112 0.41474 0.5667 0.0
C1732 C 0.75687 0.41931 0.60766 0.0
C1733 C 0.77649 0.42254 0.61009 0.0
C1734 C 0.78642 0.40852 0.62929 0.0
C1735 C 0.77596 0.392 0.64702 0.0
C1736 C 0.75576 0.39003 0.64568 0.0
C1737 C 0.74618 0.40337 0.62547 0.0
H1738 H 0.99852 0.47895 0.24644 0.0
H1739 H 0.93884 0.49632 0.22928 0.0
H1740 H 0.94204 0.46402 0.19238 0.0
H1741 H 0.01472 0.48769 0.18551 0.0
H1742 H 0.03334 0.45824 0.18811 0.0
H1743 H 0.02568 0.47983 0.2145 0.0
H1744 H 0.01857 0.4269 0.2364 0.0
H1745 H 0.02597 0.40515 0.20991 0.0
H1746 H 0.0025 0.39883 0.22263 0.0
H1747 H 0.95186 0.43031 0.15696 0.0
H1748 H 0.96849 0.40566 0.12227 0.0
H1749 H 0.02268 0.41349 0.16008 0.0
C1750 C 0.986 0.47567 0.23512 0.0
C1751 C 0.96809 0.48934 0.24148 0.0
C1752 C 0.95243 0.48531 0.22552 0.0
C1753 C 0.95417 0.46694 0.2044 0.0
C1754 C 0.97188 0.45325 0.19904 0.0
C1755 C 0.98765 0.45797 0.21366 0.0
C1756 C 0.00553 0.44332 0.20253 0.0
C1757 C 0.02071 0.46879 0.19735 0.0
C1758 C 0.01362 0.41698 0.21885 0.0
C1759 C 0.99738 0.42978 0.1792 0.0
C1760 C 0.97784 0.43524 0.17788 0.0
C1761 C 0.96711 0.42581 0.15788 0.0
C1762 C 0.97666 0.41159 0.13834 0.0
C1763 C 0.99679 0.40716 0.13868 0.0
C1764 C 0.00723 0.41578 0.15963 0.0
H1765 H 0.77325 0.22364 0.2154 0.0
H1766 H 0.78286 0.3045 0.26218 0.0
H1767 H 0.77284 0.34044 0.22918 0.0
H1768 H 0.7897 0.25803 0.16071 0.0
H1769 H 0.77162 0.24024 0.14182 0.0
H1770 H 0.77902 0.22089 0.16936 0.0
H1771 H 0.74381 0.22 0.18421 0.0
H1772 H 0.7363 0.23934 0.15667 0.0
H1773 H 0.73039 0.25646 0.18563 0.0
H1774 H 0.76439 0.3681 0.18924 0.0
H1775 H 0.75706 0.38409 0.14711 0.0
H1776 H 0.74901 0.28518 0.12824 0.0
C1777 C 0.77309 0.24889 0.21876 0.0
C1778 C 0.77886 0.26116 0.24147 0.0
C1779 C 0.77838 0.29441 0.24506 0.0
C1780 C 0.77274 0.3151 0.22636 0.0
C1781 C 0.76721 0.30229 0.20417 0.0
C1782 C 0.76706 0.2699 0.20043 0.0
C1783 C 0.76044 0.2622 0.17492 0.0
C1784 C 0.77613 0.24429 0.16088 0.0
C1785 C 0.74161 0.24339 0.1754 0.0
C1786 C 0.75737 0.29525 0.16475 0.0
C1787 C 0.76142 0.31813 0.18178 0.0
C1788 C 0.76088 0.35031 0.17587 0.0
C1789 C 0.75651 0.35925 0.15183 0.0
C1790 C 0.75255 0.33614 0.13388 0.0
C1791 C 0.75237 0.30376 0.14102 0.0
H1792 H 0.49724 0.20249 0.37828 0.0
H1793 H 0.50588 0.10353 0.397 0.0
H1794 H 0.5142 0.11945 0.43874 0.0
H1795 H 0.53864 0.229 0.40811 0.0
H1796 H 0.52848 0.26634 0.41738 0.0
H1797 H 0.51983 0.24709 0.39045 0.0
H1798 H 0.48525 0.24834 0.40746 0.0
H1799 H 0.49379 0.26775 0.43443 0.0
H1800 H 0.48042 0.23144 0.43683 0.0
H1801 H 0.52381 0.14672 0.47795 0.0
H1802 H 0.53528 0.18232 0.51025 0.0
H1803 H 0.52474 0.26353 0.46393 0.0
C1804 C 0.50088 0.1839 0.39098 0.0
C1805 C 0.50097 0.15154 0.38391 0.0
C1806 C 0.50535 0.12837 0.40171 0.0
C1807 C 0.51028 0.13725 0.42552 0.0
C1808 C 0.51097 0.16942 0.43131 0.0
C1809 C 0.50646 0.19238 0.41446 0.0
C1810 C 0.51004 0.22538 0.42438 0.0
C1811 C 0.52515 0.24297 0.40918 0.0
C1812 C 0.49125 0.24434 0.42586 0.0
C1813 C 0.5176 0.21747 0.44942 0.0
C1814 C 0.51761 0.18509 0.45326 0.0
C1815 C 0.52382 0.17206 0.47509 0.0
C1816 C 0.53028 0.19254 0.49338 0.0
C1817 C 0.53092 0.22574 0.48964 0.0
C1818 C 0.52447 0.23828 0.46731 0.0
H1819 H 0.70296 -0.00251 0.46242 0.0
H1820 H 0.74498 0.03321 0.5134 0.0
H1821 H 0.75896 0.06664 0.4811 0.0
H1822 H 0.7334 -0.00527 0.41007 0.0
H1823 H 0.71485 0.0076 0.38955 0.0
H1824 H 0.70864 0.98623 0.41666 0.0
H1825 H 0.68593 0.03194 0.42939 0.0
H1826 H 0.69218 0.05356 0.40238 0.0
H1827 H 0.69521 0.0716 0.43172 0.0
H1828 H 0.7689 0.09556 0.44201 0.0
H1829 H 0.77365 0.11624 0.40032 0.0
H1830 H 0.72329 0.06462 0.37675 0.0
C1831 C 0.71522 0.0121 0.46676 0.0
C1832 C 0.72298 0.01245 0.49042 0.0
C1833 C 0.73881 0.03241 0.4954 0.0
C1834 C 0.74684 0.05155 0.47716 0.0
C1835 C 0.73872 0.05087 0.45406 0.0
C1836 C 0.72319 0.03171 0.44891 0.0
C1837 C 0.71683 0.03565 0.42286 0.0
C1838 C 0.71854 0.00419 0.40897 0.0
C1839 C 0.69632 0.04899 0.42152 0.0
C1840 C 0.73136 0.05961 0.41401 0.0
C1841 C 0.74394 0.06817 0.43216 0.0
C1842 C 0.75902 0.08915 0.42772 0.0
C1843 C 0.76154 0.10101 0.40402 0.0
C1844 C 0.74902 0.09191 0.38505 0.0
C1845 C 0.73343 0.07166 0.39057 0.0
H1846 H 0.5111 0.05898 0.90715 0.0
H1847 H 0.47311 0.12757 0.87365 0.0
H1848 H 0.48271 0.10771 0.83305 0.0
H1849 H 0.54888 0.06026 0.86077 0.0
H1850 H 0.55325 0.01835 0.86355 0.0
H1851 H 0.54492 0.04059 0.88934 0.0
H1852 H 0.51631 0.00205 0.89381 0.0
H1853 H 0.52439 0.98 0.86785 0.0
H1854 H 0.50042 -0.00403 0.86848 0.0
H1855 H 0.49465 0.0766 0.79621 0.0
H1856 H 0.50926 0.04021 0.76648 0.0
H1857 H 0.53861 0.99098 0.82483 0.0
C1858 C 0.505 0.07021 0.89126 0.0
C1859 C 0.4913 0.09486 0.89356 0.0
C1860 C 0.48375 0.10896 0.87232 0.0
C1861 C 0.48902 0.09761 0.84923 0.0
C1862 C 0.50193 0.07229 0.84772 0.0
C1863 C 0.50998 0.05907 0.86824 0.0
C1864 C 0.52286 0.03127 0.86201 0.0
C1865 C 0.54371 0.03803 0.86935 0.0
C1866 C 0.51555 0.00051 0.87373 0.0
C1867 C 0.52063 0.03045 0.83472 0.0
C1868 C 0.50857 0.05435 0.82678 0.0
C1869 C 0.50418 0.05798 0.80229 0.0
C1870 C 0.51252 0.03703 0.78551 0.0
C1871 C 0.52509 0.01252 0.79321 0.0
C1872 C 0.52903 0.00926 0.81825 0.0
H1873 H 0.78008 0.17067 0.88416 0.0
H1874 H 0.73193 0.10974 0.90079 0.0
H1875 H 0.71459 0.13089 0.86512 0.0
H1876 H 0.75349 0.23711 0.86795 0.0
H1877 H 0.76897 0.24976 0.84368 0.0
H1878 H 0.77861 0.22707 0.86848 0.0
H1879 H 0.79164 0.1851 0.83851 0.0
H1880 H 0.78228 0.20791 0.81353 0.0
H1881 H 0.77555 0.167 0.81706 0.0
H1882 H 0.70092 0.16373 0.83063 0.0
H1883 H 0.69329 0.2017 0.79775 0.0
H1884 H 0.75041 0.24097 0.80298 0.0
C1885 C 0.76606 0.16121 0.87997 0.0
C1886 C 0.75742 0.13832 0.89529 0.0
C1887 C 0.73901 0.12677 0.88919 0.0
C1888 C 0.72897 0.13891 0.86906 0.0
C1889 C 0.7376 0.16239 0.85497 0.0
C1890 C 0.75589 0.17301 0.85993 0.0
C1891 C 0.76163 0.19939 0.84266 0.0
C1892 C 0.76592 0.23014 0.85653 0.0
C1893 C 0.77879 0.18923 0.82701 0.0
C1894 C 0.74356 0.20255 0.82753 0.0
C1895 C 0.72986 0.18096 0.83494 0.0
C1896 C 0.71165 0.18037 0.82451 0.0
C1897 C 0.7074 0.2021 0.80595 0.0
C1898 C 0.72127 0.22409 0.7979 0.0
C1899 C 0.7396 0.22423 0.80877 0.0
H1900 H 0.4605 0.73578 0.57309 0.0
H1901 H 0.48381 0.79561 0.51633 0.0
H1902 H 0.49773 0.83079 0.54727 0.0
H1903 H 0.4484 0.79883 0.61464 0.0
H1904 H 0.45512 0.7767 0.64128 0.0
H1905 H 0.44668 0.75625 0.61472 0.0
H1906 H 0.47763 0.72248 0.61387 0.0
H1907 H 0.48613 0.74254 0.64054 0.0
H1908 H 0.50062 0.74188 0.61352 0.0
H1909 H 0.50959 0.85967 0.58483 0.0
H1910 H 0.52008 0.87704 0.62567 0.0
H1911 H 0.48864 0.79904 0.65764 0.0
C1912 C 0.46858 0.75621 0.56712 0.0
C1913 C 0.47105 0.76274 0.54215 0.0
C1914 C 0.48171 0.78987 0.53527 0.0
C1915 C 0.48964 0.81017 0.55275 0.0
C1916 C 0.4868 0.80321 0.57717 0.0
C1917 C 0.47662 0.77677 0.58436 0.0
C1918 C 0.47602 0.77424 0.61176 0.0
C1919 C 0.45532 0.77666 0.62115 0.0
C1920 C 0.48568 0.74347 0.62043 0.0
C1921 C 0.48764 0.80313 0.61882 0.0
C1922 C 0.49362 0.81974 0.59866 0.0
C1923 C 0.50493 0.84688 0.60076 0.0
C1924 C 0.51071 0.85676 0.62402 0.0
C1925 C 0.50529 0.83941 0.64487 0.0
C1926 C 0.4932 0.81272 0.64207 0.0
H1927 H 0.24169 0.95064 0.65243 0.0
H1928 H 0.24813 0.85237 0.63065 0.0
H1929 H 0.25633 0.8701 0.58923 0.0
H1930 H 0.22474 0.98362 0.59526 0.0
H1931 H 0.23884 0.01905 0.59848 0.0
H1932 H 0.2303 -0.0014 0.62502 0.0
H1933 H 0.26506 -0.00547 0.6412 0.0
H1934 H 0.27373 0.01482 0.61471 0.0
H1935 H 0.28327 0.97648 0.62258 0.0
H1936 H 0.26591 0.89919 0.5505 0.0
H1937 H 0.27757 0.93605 0.51909 0.0
H1938 H 0.26929 0.01497 0.56821 0.0
C1939 C 0.24484 0.93256 0.63913 0.0
C1940 C 0.24435 0.89985 0.64525 0.0
C1941 C 0.24807 0.87746 0.62669 0.0
C1942 C 0.25292 0.88737 0.60305 0.0
C1943 C 0.25418 0.91979 0.59819 0.0
C1944 C 0.25031 0.94201 0.61581 0.0
C1945 C 0.2544 0.97532 0.60684 0.0
C1946 C 0.23597 -0.00468 0.60637 0.0
C1947 C 0.27005 0.99121 0.62224 0.0
C1948 C 0.26147 0.96849 0.5814 0.0
C1949 C 0.26081 0.93636 0.57657 0.0
C1950 C 0.26644 0.92433 0.55417 0.0
C1951 C 0.27301 0.94553 0.53639 0.0
C1952 C 0.27436 0.97845 0.54115 0.0
C1953 C 0.26848 0.98997 0.56403 0.0
H1954 H 0.46729 0.91587 0.12814 0.0
H1955 H 0.52307 0.87853 0.14794 0.0
H1956 H 0.51935 0.90186 0.18901 0.0
H1957 H 0.47381 0.98975 0.1551 0.0
H1958 H 0.44922 -0.00553 0.16441 0.0
H1959 H 0.4549 0.97069 0.13834 0.0
H1960 H 0.43731 0.92274 0.1573 0.0
H1961 H 0.43128 0.94653 0.18329 0.0
H1962 H 0.44382 0.90955 0.18728 0.0
H1963 H 0.50998 0.93339 0.22733 0.0
H1964 H 0.49605 0.96833 0.25874 0.0
H1965 H 0.44796 0.98884 0.21142 0.0
C1966 C 0.47869 0.91215 0.14116 0.0
C1967 C 0.49557 0.8954 0.13467 0.0
C1968 C 0.50995 0.8909 0.15247 0.0
C1969 C 0.508 0.90436 0.17578 0.0
C1970 C 0.4916 0.92229 0.18098 0.0
C1971 C 0.47716 0.92597 0.1641 0.0
C1972 C 0.4616 0.94812 0.17316 0.0
C1973 C 0.45979 0.97749 0.15678 0.0
C1974 C 0.44237 0.93069 0.1754 0.0
C1975 C 0.46953 0.95676 0.19781 0.0
C1976 C 0.48671 0.94135 0.20219 0.0
C1977 C 0.49655 0.94548 0.22398 0.0
C1978 C 0.48853 0.96549 0.24171 0.0
C1979 C 0.47099 0.98166 0.23751 0.0
C1980 C 0.46152 0.97726 0.21512 0.0
H1981 H 0.27377 0.81628 0.12777 0.0
H1982 H 0.22026 0.85727 0.15271 0.0
H1983 H 0.22573 0.8333 0.19326 0.0
H1984 H 0.26787 0.74242 0.15644 0.0
H1985 H 0.29293 0.73726 0.16339 0.0
H1986 H 0.28584 0.76052 0.13753 0.0
H1987 H 0.30509 0.80833 0.15391 0.0
H1988 H 0.31242 0.78505 0.17967 0.0
H1989 H 0.30055 0.82252 0.18418 0.0
H1990 H 0.23665 0.80157 0.23074 0.0
H1991 H 0.25212 0.7673 0.26144 0.0
H1992 H 0.29721 0.74455 0.21018 0.0
C1993 C 0.26316 0.82043 0.14173 0.0
C1994 C 0.24644 0.83856 0.13688 0.0
C1995 C 0.23322 0.84377 0.15594 0.0
C1996 C 0.23616 0.82999 0.17898 0.0
C1997 C 0.2524 0.81108 0.18269 0.0
C1998 C 0.26572 0.80653 0.16453 0.0
C1999 C 0.28155 0.78415 0.17249 0.0
C2000 C 0.28207 0.75433 0.15651 0.0
C2001 C 0.30105 0.80103 0.17257 0.0
C2002 C 0.27505 0.77643 0.19798 0.0
C2003 C 0.2583 0.79235 0.20367 0.0
C2004 C 0.24975 0.78907 0.22638 0.0
C2005 C 0.25864 0.76942 0.24372 0.0
C2006 C 0.27583 0.75289 0.23826 0.0
C2007 C 0.28397 0.75642 0.21493 0.0
H2008 H 0.49671 0.69739 0.87564 0.0
H2009 H 0.5007 0.5989 0.89788 0.0
H2010 H 0.50757 0.61635 0.93978 0.0
H2011 H 0.53762 0.72136 0.90812 0.0
H2012 H 0.52842 0.76016 0.91518 0.0
H2013 H 0.52054 0.74013 0.8882 0.0
H2014 H 0.48523 0.74592 0.90197 0.0
H2015 H 0.49301 0.76609 0.92898 0.0
H2016 H 0.47817 0.73136 0.93135 0.0
H2017 H 0.51597 0.64521 0.97911 0.0
H2018 H 0.52669 0.6818 1.01126 0.0
H2019 H 0.52184 0.76074 0.96136 0.0
C2020 C 0.49908 0.67919 0.88913 0.0
C2021 C 0.49831 0.6465 0.88302 0.0
C2022 C 0.50093 0.62398 0.90182 0.0
C2023 C 0.50501 0.63373 0.92572 0.0
C2024 C 0.50663 0.6661 0.93061 0.0
C2025 C 0.50383 0.68844 0.91272 0.0
C2026 C 0.50811 0.7216 0.92185 0.0
C2027 C 0.52466 0.73668 0.90749 0.0
C2028 C 0.49005 0.74247 0.92099 0.0
C2029 C 0.51399 0.71453 0.94773 0.0
C2030 C 0.51263 0.68246 0.9526 0.0
C2031 C 0.51706 0.6703 0.97542 0.0
C2032 C 0.52309 0.69133 0.9936 0.0
C2033 C 0.5251 0.72415 0.98885 0.0
C2034 C 0.5205 0.73579 0.96553 0.0
H2035 H 0.70146 0.49702 0.95507 0.0
H2036 H 0.74659 0.52204 1.00564 0.0
H2037 H 0.76151 0.5558 0.97428 0.0
H2038 H 0.7307 0.49335 0.90175 0.0
H2039 H 0.71252 0.51009 0.88236 0.0
H2040 H 0.70571 0.48796 0.90887 0.0
H2041 H 0.68573 0.53584 0.92396 0.0
H2042 H 0.69263 0.55824 0.89759 0.0
H2043 H 0.6971 0.57383 0.92746 0.0
H2044 H 0.77202 0.58646 0.93599 0.0
H2045 H 0.77718 0.60876 0.89484 0.0
H2046 H 0.72386 0.56616 0.8712 0.0
C2047 C 0.71455 0.5094 0.9596 0.0
C2048 C 0.72285 0.50658 0.98292 0.0
C2049 C 0.73991 0.52361 0.98796 0.0
C2050 C 0.74849 0.54298 0.97024 0.0
C2051 C 0.73981 0.54543 0.94753 0.0
C2052 C 0.72318 0.52905 0.94225 0.0
C2053 C 0.71659 0.53559 0.91657 0.0
C2054 C 0.71638 0.50493 0.90151 0.0
C2055 C 0.69685 0.55184 0.9164 0.0
C2056 C 0.73217 0.55796 0.90809 0.0
C2057 C 0.74549 0.56345 0.92609 0.0
C2058 C 0.76156 0.58243 0.92185 0.0
C2059 C 0.76432 0.59528 0.89846 0.0
C2060 C 0.75107 0.58912 0.87959 0.0
C2061 C 0.7345 0.57103 0.88498 0.0
H2062 H 0.52383 0.56288 0.4073 0.0
H2063 H 0.47443 0.61562 0.38143 0.0
H2064 H 0.48002 0.59429 0.34012 0.0
H2065 H 0.55317 0.56844 0.35366 0.0
H2066 H 0.56214 0.5286 0.35672 0.0
H2067 H 0.55523 0.55062 0.38325 0.0
H2068 H 0.53201 0.50553 0.39543 0.0
H2069 H 0.53871 0.48351 0.36882 0.0
H2070 H 0.51388 0.49287 0.3743 0.0
H2071 H 0.49089 0.56504 0.30153 0.0
H2072 H 0.50579 0.53163 0.26986 0.0
H2073 H 0.54593 0.4946 0.32286 0.0
C2074 C 0.51404 0.56999 0.39307 0.0
C2075 C 0.49848 0.59077 0.39785 0.0
C2076 C 0.48649 0.59997 0.37833 0.0
C2077 C 0.48949 0.58773 0.35483 0.0
C2078 C 0.50448 0.56622 0.35115 0.0
C2079 C 0.51655 0.55752 0.36983 0.0
C2080 C 0.53111 0.53303 0.36172 0.0
C2081 C 0.55162 0.54596 0.36397 0.0
C2082 C 0.52878 0.5019 0.37591 0.0
C2083 C 0.52537 0.52904 0.33545 0.0
C2084 C 0.51012 0.5486 0.32956 0.0
C2085 C 0.50275 0.54958 0.30607 0.0
C2086 C 0.51129 0.53044 0.2882 0.0
C2087 C 0.52687 0.51014 0.29391 0.0
C2088 C 0.53382 0.50937 0.31797 0.0
H2089 H 0.75518 0.69615 0.4044 0.0
H2090 H 0.74826 0.59722 0.38505 0.0
H2091 H 0.73935 0.61344 0.34342 0.0
H2092 H 0.7132 0.72107 0.37579 0.0
H2093 H 0.72238 0.7591 0.36666 0.0
H2094 H 0.73189 0.73981 0.39315 0.0
H2095 H 0.76615 0.74313 0.37531 0.0
H2096 H 0.75675 0.76268 0.34879 0.0
H2097 H 0.77086 0.72713 0.34562 0.0
H2098 H 0.7284 0.64112 0.3047 0.0
H2099 H 0.71529 0.67684 0.27334 0.0
H2100 H 0.72529 0.75746 0.32025 0.0
C2101 C 0.7519 0.67766 0.39151 0.0
C2102 C 0.75232 0.64522 0.39834 0.0
C2103 C 0.74834 0.62212 0.38043 0.0
C2104 C 0.7431 0.63118 0.35672 0.0
C2105 C 0.74177 0.66343 0.35119 0.0
C2106 C 0.74604 0.68628 0.36817 0.0
C2107 C 0.74159 0.71927 0.35874 0.0
C2108 C 0.72636 0.73576 0.37452 0.0
C2109 C 0.75993 0.73923 0.35701 0.0
C2110 C 0.73381 0.71151 0.33382 0.0
C2111 C 0.73443 0.67923 0.3296 0.0
C2112 C 0.72794 0.66639 0.30785 0.0
C2113 C 0.72053 0.68694 0.29011 0.0
C2114 C 0.71926 0.72 0.2943 0.0
C2115 C 0.72605 0.73234 0.31649 0.0
H2116 H 0.488 0.30739 0.15933 0.0
H2117 H 0.52317 0.37821 0.12402 0.0
H2118 H 0.51267 0.35804 0.08397 0.0
H2119 H 0.49786 0.24486 0.11921 0.0
H2120 H 0.47405 0.22841 0.11976 0.0
H2121 H 0.48286 0.25012 0.1455 0.0
H2122 H 0.45372 0.28807 0.14312 0.0
H2123 H 0.44469 0.26617 0.11757 0.0
H2124 H 0.44852 0.30822 0.11506 0.0
H2125 H 0.50053 0.32698 0.04801 0.0
H2126 H 0.48546 0.29126 0.01854 0.0
H2127 H 0.45797 0.2401 0.0773 0.0
C2128 C 0.49331 0.31895 0.14316 0.0
C2129 C 0.50647 0.34441 0.14479 0.0
C2130 C 0.51296 0.35897 0.12322 0.0
C2131 C 0.50718 0.34746 0.10042 0.0
C2132 C 0.49477 0.32156 0.09952 0.0
C2133 C 0.48768 0.30779 0.12034 0.0
C2134 C 0.47485 0.2798 0.11447 0.0
C2135 C 0.48289 0.24898 0.12538 0.0
C2136 C 0.45422 0.28594 0.12306 0.0
C2137 C 0.47608 0.27953 0.08703 0.0
C2138 C 0.48766 0.30383 0.07882 0.0
C2139 C 0.49132 0.30809 0.05426 0.0
C2140 C 0.48272 0.28743 0.03763 0.0
C2141 C 0.47046 0.26264 0.04545 0.0
C2142 C 0.46726 0.25865 0.07061 0.0
H2143 H 0.26266 0.38702 0.12385 0.0
H2144 H 0.23299 0.46265 0.16141 0.0
H2145 H 0.23722 0.49752 0.12597 0.0
H2146 H 0.29761 0.43232 0.0983 0.0
H2147 H 0.29881 0.41258 0.06939 0.0
H2148 H 0.29063 0.3914 0.09569 0.0
H2149 H 0.25895 0.37736 0.07378 0.0
H2150 H 0.26717 0.39812 0.0472 0.0
H2151 H 0.24453 0.40851 0.06078 0.0
H2152 H 0.25029 0.5271 0.09086 0.0
H2153 H 0.26762 0.54764 0.05507 0.0
H2154 H 0.28694 0.4527 0.03804 0.0
C2155 C 0.25634 0.41044 0.12409 0.0
C2156 C 0.2474 0.42215 0.14525 0.0
C2157 C 0.23981 0.45327 0.14529 0.0
C2158 C 0.24216 0.47324 0.12527 0.0
C2159 C 0.25187 0.46162 0.10513 0.0
C2160 C 0.25846 0.43072 0.10406 0.0
C2161 C 0.26968 0.42509 0.08088 0.0
C2162 C 0.2904 0.41475 0.08641 0.0
C2163 C 0.25947 0.40083 0.0647 0.0
C2164 C 0.26906 0.45793 0.06972 0.0
C2165 C 0.2587 0.47862 0.08404 0.0
C2166 C 0.25791 0.51097 0.07906 0.0
C2167 C 0.26787 0.52247 0.05883 0.0
C2168 C 0.27819 0.50162 0.04365 0.0
C2169 C 0.27861 0.46892 0.04901 0.0
H2170 H 0.4559 0.49759 0.70394 0.0
H2171 H 0.48574 0.449 0.76225 0.0
H2172 H 0.50033 0.41262 0.73266 0.0
H2173 H 0.44601 0.42802 0.66791 0.0
H2174 H 0.44996 0.4478 0.63939 0.0
H2175 H 0.4415 0.46991 0.66518 0.0
H2176 H 0.47011 0.50852 0.66113 0.0
H2177 H 0.47852 0.48677 0.63518 0.0
H2178 H 0.49419 0.49297 0.6607 0.0
H2179 H 0.51233 0.38151 0.69625 0.0
H2180 H 0.52227 0.3616 0.65584 0.0
H2181 H 0.48412 0.42949 0.62175 0.0
C2182 C 0.46555 0.47939 0.71052 0.0
C2183 C 0.46962 0.47635 0.73553 0.0
C2184 C 0.48233 0.45202 0.74324 0.0
C2185 C 0.49067 0.43104 0.72655 0.0
C2186 C 0.48619 0.43446 0.7021 0.0
C2187 C 0.47401 0.45815 0.69408 0.0
C2188 C 0.47194 0.45722 0.66675 0.0
C2189 C 0.45112 0.45032 0.65939 0.0
C2190 C 0.47912 0.4882 0.65527 0.0
C2191 C 0.48502 0.42962 0.66067 0.0
C2192 C 0.49302 0.41657 0.68128 0.0
C2193 C 0.50607 0.39146 0.67998 0.0
C2194 C 0.51153 0.38008 0.65699 0.0
C2195 C 0.50403 0.39397 0.63565 0.0
C2196 C 0.49019 0.41844 0.63773 0.0
H2197 H 0.29529 0.23412 0.70938 0.0
H2198 H 0.25315 0.27009 0.76024 0.0
H2199 H 0.23947 0.30406 0.72808 0.0
H2200 H 0.30374 0.30781 0.67972 0.0
H2201 H 0.3067 0.29064 0.65006 0.0
H2202 H 0.31251 0.26784 0.67666 0.0
H2203 H 0.28929 0.22356 0.66303 0.0
H2204 H 0.28365 0.24599 0.63618 0.0
H2205 H 0.26472 0.23336 0.65617 0.0
H2206 H 0.23045 0.3348 0.68987 0.0
H2207 H 0.2266 0.35809 0.64891 0.0
H2208 H 0.27613 0.3046 0.62442 0.0
C2209 C 0.28299 0.24875 0.71368 0.0
C2210 C 0.27519 0.24915 0.73732 0.0
C2211 C 0.25933 0.2692 0.74225 0.0
C2212 C 0.25147 0.28867 0.7241 0.0
C2213 C 0.25971 0.28813 0.7011 0.0
C2214 C 0.27512 0.26864 0.69586 0.0
C2215 C 0.28171 0.27313 0.66993 0.0
C2216 C 0.30239 0.2856 0.66906 0.0
C2217 C 0.27971 0.24218 0.65548 0.0
C2218 C 0.26753 0.29799 0.66136 0.0
C2219 C 0.25491 0.30635 0.67951 0.0
C2220 C 0.24032 0.32848 0.67553 0.0
C2221 C 0.23833 0.34183 0.65225 0.0
C2222 C 0.25091 0.33312 0.63322 0.0
C2223 C 0.26596 0.31143 0.63827 0.0
H2224 H 0.07314 0.41446 0.85184 0.0
H2225 H 0.11867 0.35531 0.8231 0.0
H2226 H 0.12187 0.32901 0.86285 0.0
H2227 H 0.09318 0.42425 0.91212 0.0
H2228 H 0.07029 0.42231 0.92716 0.0
H2229 H 0.0718 0.43709 0.89658 0.0
H2230 H 0.04696 0.39547 0.88266 0.0
H2231 H 0.04534 0.38062 0.91319 0.0
H2232 H 0.05132 0.35413 0.88874 0.0
H2233 H 0.11997 0.30832 0.90617 0.0
H2234 H 0.11252 0.29455 0.94873 0.0
H2235 H 0.06804 0.3665 0.94948 0.0
C2236 C 0.08386 0.3961 0.85391 0.0
C2237 C 0.0957 0.38716 0.83412 0.0
C2238 C 0.10942 0.36277 0.83778 0.0
C2239 C 0.11137 0.34763 0.86039 0.0
C2240 C 0.09949 0.35692 0.87944 0.0
C2241 C 0.08595 0.38056 0.87642 0.0
C2242 C 0.0747 0.3856 0.89972 0.0
C2243 C 0.07767 0.41932 0.90947 0.0
C2244 C 0.05331 0.37853 0.89584 0.0
C2245 C 0.08398 0.36111 0.91626 0.0
C2246 C 0.0983 0.34488 0.90424 0.0
C2247 C 0.1088 0.32098 0.91573 0.0
C2248 C 0.10448 0.31333 0.94 0.0
C2249 C 0.08974 0.32939 0.95271 0.0
C2250 C 0.07947 0.35373 0.94049 0.0
H2251 H 0.1844 0.86086 0.84027 0.0
H2252 H 0.13427 0.80058 0.83558 0.0
H2253 H 0.1249 0.81671 0.87701 0.0
H2254 H 0.19533 0.84519 0.90225 0.0
H2255 H 0.20285 0.88503 0.90895 0.0
H2256 H 0.20521 0.86975 0.87864 0.0
H2257 H 0.18531 0.91684 0.86205 0.0
H2258 H 0.18299 0.93232 0.89232 0.0
H2259 H 0.16187 0.92467 0.87445 0.0
H2260 H 0.12156 0.83831 0.91985 0.0
H2261 H 0.1241 0.86417 0.95983 0.0
H2262 H 0.17641 0.91062 0.9367 0.0
C2263 C 0.17134 0.85121 0.84781 0.0
C2264 C 0.16004 0.82944 0.83446 0.0
C2265 C 0.14314 0.81736 0.84524 0.0
C2266 C 0.13771 0.82637 0.86885 0.0
C2267 C 0.14928 0.84761 0.88155 0.0
C2268 C 0.1657 0.86 0.87134 0.0
C2269 C 0.17579 0.88207 0.88894 0.0
C2270 C 0.19599 0.86976 0.89506 0.0
C2271 C 0.17653 0.91598 0.87884 0.0
C2272 C 0.16258 0.88 0.91075 0.0
C2273 C 0.14736 0.86002 0.9061 0.0
C2274 C 0.13339 0.85408 0.92359 0.0
C2275 C 0.13498 0.86892 0.94633 0.0
C2276 C 0.15043 0.88956 0.95159 0.0
C2277 C 0.16438 0.89507 0.93339 0.0
H2278 H 0.04308 0.82051 0.43596 0.0
H2279 H 0.10451 0.80835 0.44387 0.0
H2280 H 0.10925 0.82974 0.40254 0.0
H2281 H 0.04118 0.79764 0.3724 0.0
H2282 H 0.02253 0.82573 0.36525 0.0
H2283 H 0.02414 0.80921 0.3953 0.0
H2284 H 0.02568 0.86588 0.41331 0.0
H2285 H 0.02412 0.88241 0.38329 0.0
H2286 H 0.04384 0.89286 0.40277 0.0
H2287 H 0.10726 0.85487 0.36073 0.0
H2288 H 0.09869 0.88046 0.32188 0.0
H2289 H 0.03845 0.87378 0.34068 0.0
C2290 C 0.05755 0.82249 0.42907 0.0
C2291 C 0.07346 0.81303 0.4433 0.0
C2292 C 0.09212 0.81552 0.43338 0.0
C2293 C 0.09494 0.82761 0.40989 0.0
C2294 C 0.07895 0.83668 0.39636 0.0
C2295 C 0.0606 0.83402 0.40554 0.0
C2296 C 0.04581 0.84518 0.38725 0.0
C2297 C 0.03264 0.81781 0.3796 0.0
C2298 C 0.03418 0.87325 0.39726 0.0
C2299 C 0.05871 0.85533 0.36656 0.0
C2300 C 0.07778 0.85016 0.37211 0.0
C2301 C 0.09236 0.85876 0.35614 0.0
C2302 C 0.08735 0.8733 0.33408 0.0
C2303 C 0.0679 0.87905 0.32807 0.0
C2304 C 0.05345 0.86949 0.34452 0.0
H2305 H 0.20135 0.37199 0.44239 0.0
H2306 H 0.14355 0.37565 0.47134 0.0
H2307 H 0.13172 0.34728 0.4352 0.0
H2308 H 0.18867 0.38534 0.38047 0.0
H2309 H 0.20642 0.35867 0.36832 0.0
H2310 H 0.21059 0.37808 0.39688 0.0
H2311 H 0.21592 0.32368 0.41756 0.0
H2312 H 0.21186 0.30414 0.38901 0.0
H2313 H 0.19771 0.29365 0.41511 0.0
H2314 H 0.12603 0.31885 0.39573 0.0
H2315 H 0.12677 0.29282 0.35577 0.0
H2316 H 0.18813 0.30844 0.35153 0.0
C2317 C 0.18621 0.36661 0.44127 0.0
C2318 C 0.1734 0.37603 0.45989 0.0
C2319 C 0.15369 0.36869 0.45747 0.0
C2320 C 0.14682 0.35256 0.43696 0.0
C2321 C 0.15979 0.34389 0.4189 0.0
C2322 C 0.17909 0.35061 0.42084 0.0
C2323 C 0.18994 0.33916 0.39859 0.0
C2324 C 0.19946 0.36698 0.38528 0.0
C2325 C 0.20473 0.31365 0.40549 0.0
C2326 C 0.1737 0.3252 0.38373 0.0
C2327 C 0.15646 0.32801 0.3959 0.0
C2328 C 0.13944 0.31656 0.38606 0.0
C2329 C 0.14003 0.30177 0.36329 0.0
C2330 C 0.15748 0.29867 0.35034 0.0
C2331 C 0.17452 0.31069 0.36079 0.0
H2332 H 0.94488 0.59423 0.18838 0.0
H2333 H 0.88951 0.54895 0.19682 0.0
H2334 H 0.87967 0.5693 0.15671 0.0
H2335 H 0.92752 0.66477 0.15812 0.0
H2336 H 0.94786 0.66763 0.13812 0.0
H2337 H 0.95053 0.64966 0.16754 0.0
H2338 H 0.96399 0.59887 0.1475 0.0
H2339 H 0.96128 0.61666 0.11801 0.0
H2340 H 0.95014 0.57914 0.12445 0.0
H2341 H 0.87572 0.59474 0.11546 0.0
H2342 H 0.87785 0.62344 0.0766 0.0
H2343 H 0.93589 0.65209 0.09431 0.0
C2344 C 0.93065 0.58864 0.18187 0.0
C2345 C 0.91796 0.56993 0.19597 0.0
C2346 C 0.89951 0.56321 0.18656 0.0
C2347 C 0.89378 0.57467 0.16371 0.0
C2348 C 0.90664 0.59289 0.1503 0.0
C2349 C 0.92469 0.59989 0.15903 0.0
C2350 C 0.93575 0.61998 0.14093 0.0
C2351 C 0.9407 0.65243 0.15183 0.0
C2352 C 0.95386 0.60262 0.1322 0.0
C2353 C 0.92111 0.62316 0.12063 0.0
C2354 C 0.90441 0.60736 0.12645 0.0
C2355 C 0.88875 0.60714 0.11075 0.0
C2356 C 0.89011 0.62358 0.08864 0.0
C2357 C 0.90704 0.64009 0.08218 0.0
C2358 C 0.92276 0.63963 0.09851 0.0
H2359 H 0.83944 0.10619 0.09592 0.0
H2360 H 0.7895 0.04544 0.09558 0.0
H2361 H 0.7845 0.05585 0.13914 0.0
H2362 H 0.85617 0.08755 0.15761 0.0
H2363 H 0.86288 0.12774 0.16445 0.0
H2364 H 0.86373 0.1137 0.13363 0.0
H2365 H 0.84147 0.15963 0.12025 0.0
H2366 H 0.84058 0.1738 0.15101 0.0
H2367 H 0.81868 0.16489 0.13511 0.0
H2368 H 0.78414 0.07319 0.1819 0.0
H2369 H 0.78695 0.09953 0.2214 0.0
H2370 H 0.83623 0.15209 0.19525 0.0
C2371 C 0.82768 0.09477 0.10523 0.0
C2372 C 0.81501 0.0745 0.09257 0.0
C2373 C 0.79947 0.06062 0.10508 0.0
C2374 C 0.79654 0.06638 0.1298 0.0
C2375 C 0.80913 0.08648 0.14183 0.0
C2376 C 0.82431 0.10077 0.13004 0.0
C2377 C 0.83479 0.12312 0.14717 0.0
C2378 C 0.85563 0.11238 0.15094 0.0
C2379 C 0.83382 0.15739 0.13782 0.0
C2380 C 0.82309 0.11911 0.17028 0.0
C2381 C 0.80849 0.09758 0.16669 0.0
C2382 C 0.79552 0.09007 0.18496 0.0
C2383 C 0.79727 0.10524 0.20742 0.0
C2384 C 0.81182 0.12796 0.21163 0.0
C2385 C 0.82503 0.13469 0.19276 0.0
H2386 H 0.92892 0.16788 0.59825 0.0
H2387 H 0.87861 0.1175 0.57298 0.0
H2388 H 0.87515 0.09273 0.61328 0.0
H2389 H 0.94779 0.10501 0.63598 0.0
H2390 H 0.95607 0.13139 0.65938 0.0
H2391 H 0.9547 0.14493 0.62847 0.0
H2392 H 0.93317 0.19167 0.64189 0.0
H2393 H 0.93438 0.17822 0.67283 0.0
H2394 H 0.91143 0.18379 0.65844 0.0
H2395 H 0.87716 0.07302 0.65684 0.0
H2396 H 0.88459 0.06032 0.69963 0.0
H2397 H 0.93325 0.12398 0.69684 0.0
C2398 C 0.9172 0.15156 0.60113 0.0
C2399 C 0.90405 0.1447 0.58223 0.0
C2400 C 0.88889 0.12327 0.587 0.0
C2401 C 0.88679 0.10902 0.60991 0.0
C2402 C 0.89991 0.1164 0.62811 0.0
C2403 C 0.91483 0.13719 0.62398 0.0
C2404 C 0.92691 0.14125 0.64671 0.0
C2405 C 0.94759 0.12996 0.64236 0.0
C2406 C 0.92644 0.17578 0.65548 0.0
C2407 C 0.91647 0.1195 0.66423 0.0
C2408 C 0.90095 0.10534 0.65316 0.0
C2409 C 0.88926 0.08407 0.66568 0.0
C2410 C 0.89358 0.07701 0.69005 0.0
C2411 C 0.90944 0.09118 0.70183 0.0
C2412 C 0.92094 0.1128 0.68857 0.0
H2413 H 0.82068 0.61487 0.69639 0.0
H2414 H 0.85873 0.6958 0.69256 0.0
H2415 H 0.86717 0.68141 0.6505 0.0
H2416 H 0.85099 0.56129 0.66061 0.0
H2417 H 0.8309 0.54257 0.64598 0.0
H2418 H 0.82831 0.55857 0.67607 0.0
H2419 H 0.79977 0.59291 0.66148 0.0
H2420 H 0.8023 0.57707 0.63137 0.0
H2421 H 0.80295 0.61926 0.63609 0.0
H2422 H 0.86955 0.66062 0.60754 0.0
H2423 H 0.86729 0.63317 0.5681 0.0
H2424 H 0.82922 0.56371 0.60004 0.0
C2425 C 0.83094 0.62941 0.68681 0.0
C2426 C 0.83904 0.65655 0.69796 0.0
C2427 C 0.85239 0.67485 0.68463 0.0
C2428 C 0.85725 0.66689 0.66063 0.0
C2429 C 0.84886 0.64025 0.65014 0.0
C2430 C 0.83616 0.62154 0.66289 0.0
C2431 C 0.82908 0.59427 0.64728 0.0
C2432 C 0.83519 0.56228 0.65814 0.0
C2433 C 0.80723 0.596 0.64385 0.0
C2434 C 0.83955 0.60083 0.62364 0.0
C2435 C 0.85081 0.62757 0.62567 0.0
C2436 C 0.86099 0.6394 0.60589 0.0
C2437 C 0.8596 0.62365 0.58351 0.0
C2438 C 0.84831 0.59601 0.58095 0.0
C2439 C 0.8383 0.58438 0.60147 0.0
H2440 H 0.547 0.34847 0.44022 0.0
H2441 H 0.6079 0.33709 0.45351 0.0
H2442 H 0.61472 0.35734 0.41221 0.0
H2443 H 0.54783 0.3223 0.37897 0.0
H2444 H 0.5297 0.34979 0.36894 0.0
H2445 H 0.52982 0.33612 0.39986 0.0
H2446 H 0.53099 0.39414 0.41512 0.0
H2447 H 0.53072 0.40801 0.38425 0.0
H2448 H 0.54966 0.42004 0.40442 0.0
H2449 H 0.61456 0.37972 0.36878 0.0
H2450 H 0.60738 0.40016 0.32759 0.0
H2451 H 0.54656 0.39354 0.34288 0.0
C2452 C 0.56182 0.35055 0.43464 0.0
C2453 C 0.57694 0.34146 0.45028 0.0
C2454 C 0.59608 0.34407 0.44195 0.0
C2455 C 0.60008 0.35553 0.41849 0.0
C2456 C 0.58478 0.36401 0.40347 0.0
C2457 C 0.56602 0.3615 0.41127 0.0
C2458 C 0.55206 0.37106 0.39152 0.0
C2459 C 0.53909 0.34315 0.38441 0.0
C2460 C 0.54016 0.40003 0.3993 0.0
C2461 C 0.56584 0.37937 0.37131 0.0
C2462 C 0.58466 0.37546 0.37852 0.0
C2463 C 0.59984 0.38264 0.36297 0.0
C2464 C 0.59565 0.39422 0.33958 0.0
C2465 C 0.57642 0.39813 0.33183 0.0
C2466 C 0.56142 0.39038 0.34801 0.0
H2467 H 0.7036 0.88374 0.44793 0.0
H2468 H 0.64351 0.90722 0.45736 0.0
H2469 H 0.63664 0.88627 0.41633 0.0
H2470 H 0.70663 0.90681 0.38631 0.0
H2471 H 0.72297 0.8756 0.37792 0.0
H2472 H 0.72283 0.89041 0.4085 0.0
H2473 H 0.71699 0.83371 0.4249 0.0
H2474 H 0.71728 0.81866 0.39437 0.0
H2475 H 0.69696 0.81121 0.41367 0.0
H2476 H 0.63667 0.86285 0.37326 0.0
H2477 H 0.64376 0.84054 0.33266 0.0
H2478 H 0.70402 0.83509 0.35162 0.0
C2479 C 0.68892 0.88414 0.44158 0.0
C2480 C 0.67406 0.89694 0.45606 0.0
C2481 C 0.65513 0.8974 0.44673 0.0
C2482 C 0.6511 0.88555 0.42341 0.0
C2483 C 0.66616 0.87348 0.40952 0.0
C2484 C 0.6847 0.87275 0.41833 0.0
C2485 C 0.69851 0.85975 0.39962 0.0
C2486 C 0.71362 0.88463 0.39268 0.0
C2487 C 0.70799 0.82901 0.40868 0.0
C2488 C 0.68491 0.85337 0.37878 0.0
C2489 C 0.66627 0.86115 0.38481 0.0
C2490 C 0.65124 0.8568 0.3684 0.0
C2491 C 0.6554 0.84414 0.34534 0.0
C2492 C 0.67445 0.83631 0.33877 0.0
C2493 C 0.68931 0.84115 0.35585 0.0
H2494 H 0.5464 0.84561 0.94284 0.0
H2495 H 0.60658 0.82406 0.95353 0.0
H2496 H 0.61383 0.84685 0.91303 0.0
H2497 H 0.54502 0.82497 0.87992 0.0
H2498 H 0.5281 0.85567 0.87223 0.0
H2499 H 0.52812 0.83882 0.90222 0.0
H2500 H 0.53226 0.8948 0.92071 0.0
H2501 H 0.53229 0.91183 0.89078 0.0
H2502 H 0.55202 0.91915 0.91108 0.0
H2503 H 0.61415 0.87439 0.87077 0.0
H2504 H 0.60717 0.89931 0.83088 0.0
H2505 H 0.54657 0.89899 0.84808 0.0
C2506 C 0.56117 0.84583 0.93682 0.0
C2507 C 0.57597 0.83331 0.95158 0.0
C2508 C 0.59501 0.8336 0.94266 0.0
C2509 C 0.59925 0.84657 0.91967 0.0
C2510 C 0.58425 0.8588 0.90562 0.0
C2511 C 0.56556 0.85815 0.91389 0.0
C2512 C 0.55183 0.87154 0.89521 0.0
C2513 C 0.53742 0.84624 0.88691 0.0
C2514 C 0.54149 0.90108 0.90504 0.0
C2515 C 0.56564 0.88009 0.87509 0.0
C2516 C 0.58433 0.87294 0.88138 0.0
C2517 C 0.59952 0.87978 0.86569 0.0
C2518 C 0.59545 0.894 0.84306 0.0
C2519 C 0.57632 0.90083 0.83614 0.0
C2520 C 0.56134 0.8937 0.85255 0.0
H2521 H 0.70108 0.40231 0.93349 0.0
H2522 H 0.64127 0.39362 0.95352 0.0
H2523 H 0.63415 0.37095 0.91297 0.0
H2524 H 0.69218 0.42619 0.87138 0.0
H2525 H 0.71284 0.4054 0.8599 0.0
H2526 H 0.71291 0.42055 0.8904 0.0
H2527 H 0.72076 0.3645 0.90685 0.0
H2528 H 0.72074 0.34918 0.87643 0.0
H2529 H 0.70538 0.33182 0.89906 0.0
H2530 H 0.63443 0.34583 0.8702 0.0
H2531 H 0.6416 0.3246 0.82924 0.0
H2532 H 0.70079 0.35387 0.83731 0.0
C2533 C 0.68646 0.39555 0.92943 0.0
C2534 C 0.67175 0.39933 0.94679 0.0
C2535 C 0.65277 0.3908 0.94053 0.0
C2536 C 0.64862 0.37789 0.91754 0.0
C2537 C 0.66355 0.3743 0.90086 0.0
C2538 C 0.68204 0.38335 0.90651 0.0
C2539 C 0.69553 0.37787 0.88543 0.0
C2540 C 0.70385 0.40937 0.87624 0.0
C2541 C 0.71154 0.35445 0.89236 0.0
C2542 C 0.68189 0.36361 0.86712 0.0
C2543 C 0.6635 0.36155 0.87627 0.0
C2544 C 0.64875 0.34773 0.86282 0.0
C2545 C 0.65294 0.33569 0.83957 0.0
C2546 C 0.67169 0.33783 0.82987 0.0
C2547 C 0.68622 0.35224 0.84393 0.0
H2548 H 0.43254 0.62619 0.69202 0.0
H2549 H 0.39663 0.54276 0.68669 0.0
H2550 H 0.38956 0.55588 0.644 0.0
H2551 H 0.40232 0.67708 0.65385 0.0
H2552 H 0.42244 0.69704 0.64026 0.0
H2553 H 0.42433 0.68158 0.67062 0.0
H2554 H 0.45424 0.64916 0.65804 0.0
H2555 H 0.45237 0.66451 0.62768 0.0
H2556 H 0.45267 0.62235 0.63272 0.0
H2557 H 0.38816 0.57593 0.60086 0.0
H2558 H 0.39081 0.60332 0.56142 0.0
H2559 H 0.42607 0.67563 0.59476 0.0
C2560 C 0.42305 0.61081 0.68195 0.0
C2561 C 0.41513 0.58336 0.69288 0.0
C2562 C 0.4028 0.56396 0.67893 0.0
C2563 C 0.39873 0.57119 0.65457 0.0
C2564 C 0.40688 0.59819 0.64431 0.0
C2565 C 0.41861 0.61794 0.65762 0.0
C2566 C 0.42553 0.64551 0.64217 0.0
C2567 C 0.41821 0.67718 0.65234 0.0
C2568 C 0.4475 0.64535 0.64002 0.0
C2569 C 0.41609 0.6379 0.61802 0.0
C2570 C 0.40549 0.6104 0.61966 0.0
C2571 C 0.39622 0.5977 0.59948 0.0
C2572 C 0.39784 0.61342 0.5771 0.0
C2573 C 0.40844 0.64185 0.57494 0.0
C2574 C 0.41756 0.65428 0.59584 0.0
H2575 H 0.31993 0.17389 0.68493 0.0
H2576 H 0.36274 0.10915 0.71333 0.0
H2577 H 0.36497 0.08323 0.67332 0.0
H2578 H 0.29541 0.11614 0.64951 0.0
H2579 H 0.28987 0.14257 0.6248 0.0
H2580 H 0.29282 0.158 0.65497 0.0
H2581 H 0.31891 0.19645 0.63952 0.0
H2582 H 0.31597 0.1812 0.60926 0.0
H2583 H 0.3393 0.181 0.6233 0.0
H2584 H 0.36219 0.06337 0.63022 0.0
H2585 H 0.353 0.04881 0.58845 0.0
H2586 H 0.31061 0.12413 0.58814 0.0
C2587 C 0.33 0.1546 0.6826 0.0
C2588 C 0.34136 0.14384 0.70231 0.0
C2589 C 0.35398 0.11798 0.69858 0.0
C2590 C 0.35538 0.10311 0.67584 0.0
C2591 C 0.34389 0.11402 0.65688 0.0
C2592 C 0.33132 0.13904 0.66004 0.0
C2593 C 0.3197 0.14471 0.63708 0.0
C2594 C 0.29818 0.14007 0.64189 0.0
C2595 C 0.32372 0.17781 0.62668 0.0
C2596 C 0.32761 0.11888 0.62062 0.0
C2597 C 0.34174 0.10175 0.63232 0.0
C2598 C 0.35115 0.07667 0.6209 0.0
C2599 C 0.34586 0.0686 0.59707 0.0
C2600 C 0.33108 0.08521 0.58481 0.0
C2601 C 0.32198 0.11088 0.59687 0.0
H2602 H 0.44648 0.15319 0.09806 0.0
H2603 H 0.38563 0.15974 0.0831 0.0
H2604 H 0.37875 0.13517 0.12315 0.0
H2605 H 0.44639 0.07916 0.12918 0.0
H2606 H 0.46425 0.09098 0.15094 0.0
H2607 H 0.46402 0.10849 0.12119 0.0
H2608 H 0.462 0.16444 0.14027 0.0
H2609 H 0.4623 0.14709 0.17009 0.0
H2610 H 0.44306 0.17328 0.16143 0.0
H2611 H 0.37917 0.10643 0.16518 0.0
H2612 H 0.38667 0.08228 0.20522 0.0
H2613 H 0.44712 0.09878 0.19255 0.0
C2614 C 0.43166 0.14942 0.10311 0.0
C2615 C 0.41658 0.15812 0.08724 0.0
C2616 C 0.39742 0.15325 0.09487 0.0
C2617 C 0.39341 0.13919 0.11758 0.0
C2618 C 0.40869 0.13062 0.13269 0.0
C2619 C 0.42744 0.13606 0.12577 0.0
C2620 C 0.4414 0.12588 0.14535 0.0
C2621 C 0.4548 0.09957 0.13611 0.0
C2622 C 0.45286 0.15437 0.15485 0.0
C2623 C 0.4277 0.11345 0.16439 0.0
C2624 C 0.40888 0.11597 0.15681 0.0
C2625 C 0.39388 0.10474 0.17128 0.0
C2626 C 0.39825 0.09095 0.194 0.0
C2627 C 0.41745 0.0889 0.20226 0.0
C2628 C 0.43225 0.10035 0.18706 0.0
H2629 H 0.3229 0.61112 0.19485 0.0
H2630 H 0.34528 0.70656 0.18921 0.0
H2631 H 0.35001 0.69907 0.14523 0.0
H2632 H 0.35601 0.57611 0.15045 0.0
H2633 H 0.3383 0.54931 0.13856 0.0
H2634 H 0.33705 0.56185 0.16973 0.0
H2635 H 0.30235 0.58174 0.16281 0.0
H2636 H 0.30353 0.56937 0.13162 0.0
H2637 H 0.29759 0.6098 0.1389 0.0
H2638 H 0.34996 0.68272 0.10118 0.0
H2639 H 0.34766 0.65728 0.06098 0.0
H2640 H 0.32741 0.57101 0.09496 0.0
C2641 C 0.32898 0.63033 0.1844 0.0
C2642 C 0.33377 0.65947 0.19562 0.0
C2643 C 0.34167 0.68395 0.1812 0.0
C2644 C 0.34433 0.67995 0.15613 0.0
C2645 C 0.33933 0.65111 0.14562 0.0
C2646 C 0.33208 0.62652 0.15933 0.0
C2647 C 0.32798 0.59785 0.1435 0.0
C2648 C 0.34059 0.56961 0.15101 0.0
C2649 C 0.30659 0.58919 0.14426 0.0
C2650 C 0.33371 0.61036 0.11869 0.0
C2651 C 0.3401 0.64122 0.12034 0.0
C2652 C 0.34525 0.65841 0.09976 0.0
C2653 C 0.34385 0.64376 0.07695 0.0
C2654 C 0.33761 0.61201 0.07474 0.0
C2655 C 0.33259 0.59511 0.09603 0.0
H2656 H 0.12934 0.18817 0.03003 0.0
H2657 H 0.06872 0.16651 0.02636 0.0
H2658 H 0.07632 0.10935 0.02458 0.0
H2659 H 0.14661 0.12815 0.99094 0.0
H2660 H 0.16749 0.11857 1.00875 0.0
H2661 H 0.15739 0.15778 1.01004 0.0
H2662 H 0.15415 0.15305 0.05671 0.0
H2663 H 0.1643 0.11382 0.05557 0.0
H2664 H 0.14126 0.1201 0.06948 0.0
H2665 H 0.09059 0.05502 0.01949 0.0
H2666 H 0.11039 0.00658 1.01614 0.0
H2667 H 0.16171 0.06235 0.02726 0.0
C2668 C 0.11771 0.17129 0.02897 0.0
C2669 C 0.09843 0.18165 0.02812 0.0
C2670 C 0.08356 0.159 0.02704 0.0
C2671 C 0.08775 0.12652 0.02597 0.0
C2672 C 0.10689 0.11699 0.02664 0.0
C2673 C 0.12164 0.13863 0.02865 0.0
C2674 C 0.14093 0.12191 0.02973 0.0
C2675 C 0.15386 0.13222 1.0086 0.0
C2676 C 0.15074 0.12756 0.05433 0.0
C2677 C 0.13475 0.08764 0.02709 0.0
C2678 C 0.11505 0.08539 0.02523 0.0
C2679 C 0.106 0.05644 0.02131 0.0
C2680 C 0.11735 0.02908 0.01933 0.0
C2681 C 0.13751 0.03072 0.02163 0.0
C2682 C 0.14629 0.06039 0.02574 0.0
H2683 H 0.08689 0.05618 0.25436 0.0
H2684 H 0.12902 -0.00681 0.2865 0.0
H2685 H 0.1507 0.03847 0.29314 0.0
H2686 H 0.12074 0.10859 0.22402 0.0
H2687 H 0.10688 0.14375 0.2301 0.0
H2688 H 0.09506 0.10615 0.2269 0.0
H2689 H 0.0794 0.11358 0.26901 0.0
H2690 H 0.09132 0.15106 0.27246 0.0
H2691 H 0.09437 0.12066 0.2951 0.0
H2692 H 0.16768 0.09031 0.29681 0.0
H2693 H 0.17878 0.14584 0.29758 0.0
H2694 H 0.12541 0.17589 0.26431 0.0
C2695 C 0.10076 0.05196 0.26259 0.0
C2696 C 0.10636 0.02121 0.26985 0.0
C2697 C 0.1245 0.01658 0.28077 0.0
C2698 C 0.1369 0.04213 0.28461 0.0
C2699 C 0.13093 0.07222 0.27749 0.0
C2700 C 0.1133 0.07732 0.26671 0.0
C2701 C 0.11021 0.11222 0.26138 0.0
C2702 C 0.10811 0.11801 0.23398 0.0
C2703 C 0.09279 0.12513 0.27533 0.0
C2704 C 0.12881 0.12588 0.27104 0.0
C2705 C 0.14059 0.10233 0.28009 0.0
C2706 C 0.15858 0.10898 0.28981 0.0
C2707 C 0.16476 0.14054 0.2902 0.0
C2708 C 0.15291 0.16505 0.28115 0.0
C2709 C 0.13468 0.15759 0.27153 0.0
H2710 H 0.89211 0.79922 0.98983 0.0
H2711 H 0.89807 0.78257 0.06702 0.0
H2712 H 0.88347 0.8347 0.07543 0.0
H2713 H 0.90074 0.88318 0.9899 0.0
H2714 H 0.88262 0.89246 0.96769 0.0
H2715 H 0.89412 0.85424 0.96744 0.0
H2716 H 0.861 0.82705 0.9702 0.0
H2717 H 0.84935 0.86515 0.97064 0.0
H2718 H 0.845 0.83716 0.99466 0.0
H2719 H 0.8705 0.88967 0.07567 0.0
H2720 H 0.8556 0.94178 0.06814 0.0
H2721 H 0.85377 0.92174 0.99111 0.0
C2722 C 0.89028 0.80667 1.00846 0.0
C2723 C 0.89634 0.78701 0.02785 0.0
C2724 C 0.89351 0.79725 0.05197 0.0
C2725 C 0.88529 0.82688 0.05691 0.0
C2726 C 0.87948 0.84577 0.03751 0.0
C2727 C 0.88143 0.83591 1.01376 0.0
C2728 C 0.87303 0.86044 0.99647 0.0
C2729 C 0.88855 0.87334 0.97936 0.0
C2730 C 0.85609 0.84661 0.98215 0.0
C2731 C 0.86633 0.88571 1.01425 0.0
C2732 C 0.87055 0.87682 0.03778 0.0
C2733 C 0.86685 0.89669 0.05737 0.0
C2734 C 0.85846 0.92631 0.05291 0.0
C2735 C 0.85338 0.93565 0.02913 0.0
C2736 C 0.85728 0.91498 1.00952 0.0
H2737 H 0.86798 0.95483 0.77472 0.0
H2738 H 0.92718 0.93349 0.79238 0.0
H2739 H 0.91958 0.87643 0.79327 0.0
H2740 H 0.84743 0.89316 0.81397 0.0
H2741 H 0.82816 0.88433 0.79331 0.0
H2742 H 0.83813 0.92361 0.79428 0.0
H2743 H 0.84502 0.92084 0.74822 0.0
H2744 H 0.83513 0.88153 0.74713 0.0
H2745 H 0.85914 0.88857 0.73641 0.0
H2746 H 0.90631 0.8216 0.78878 0.0
H2747 H 0.88752 0.77261 0.78338 0.0
H2748 H 0.83607 0.82846 0.77227 0.0
C2749 C 0.87927 0.93809 0.77893 0.0
C2750 C 0.89822 0.94858 0.78338 0.0
C2751 C 0.91259 0.92602 0.78895 0.0
C2752 C 0.90841 0.89353 0.78944 0.0
C2753 C 0.88968 0.88389 0.78476 0.0
C2754 C 0.87524 0.90547 0.78001 0.0
C2755 C 0.85625 0.88863 0.77599 0.0
C2756 C 0.84163 0.89799 0.79556 0.0
C2757 C 0.84843 0.89529 0.75042 0.0
C2758 C 0.86237 0.85424 0.77871 0.0
C2759 C 0.88177 0.85213 0.78357 0.0
C2760 C 0.89106 0.82298 0.78538 0.0
C2761 C 0.88029 0.79527 0.78221 0.0
C2762 C 0.86034 0.79673 0.77773 0.0
C2763 C 0.85124 0.82666 0.77614 0.0
H2764 H 0.12446 0.67235 0.52823 0.0
H2765 H 0.06963 0.64602 0.49726 0.0
H2766 H 0.07919 0.58964 0.49858 0.0
H2767 H 0.15298 0.61456 0.49695 0.0
H2768 H 0.16855 0.60688 0.52238 0.0
H2769 H 0.15734 0.64508 0.51909 0.0
H2770 H 0.14274 0.63973 0.56206 0.0
H2771 H 0.15385 0.60145 0.56543 0.0
H2772 H 0.12832 0.60565 0.56928 0.0
H2773 H 0.09501 0.53639 0.50224 0.0
H2774 H 0.11595 0.48975 0.50821 0.0
H2775 H 0.16018 0.55023 0.53805 0.0
C2776 C 0.1145 0.65468 0.5217 0.0
C2777 C 0.09633 0.66345 0.51255 0.0
C2778 C 0.08363 0.63973 0.5043 0.0
C2779 C 0.08892 0.60769 0.50501 0.0
C2780 C 0.10692 0.59975 0.51421 0.0
C2781 C 0.11951 0.62253 0.52248 0.0
C2782 C 0.138 0.60762 0.53149 0.0
C2783 C 0.15523 0.61923 0.51658 0.0
C2784 C 0.14089 0.61399 0.55868 0.0
C2785 C 0.13391 0.57294 0.52676 0.0
C2786 C 0.11589 0.56895 0.51679 0.0
C2787 C 0.10909 0.5392 0.51018 0.0
C2788 C 0.12107 0.51287 0.51364 0.0
C2789 C 0.13958 0.51641 0.52373 0.0
C2790 C 0.14599 0.54682 0.53056 0.0
H2791 H 0.13942 0.67554 0.79316 0.0
H2792 H 0.15451 0.68222 0.71712 0.0
H2793 H 0.14075 0.62909 0.71 0.0
H2794 H 0.1517 0.59223 0.79909 0.0
H2795 H 0.13255 0.58392 0.82006 0.0
H2796 H 0.14299 0.62286 0.819 0.0
H2797 H 0.10941 0.64726 0.81147 0.0
H2798 H 0.09888 0.60841 0.81246 0.0
H2799 H 0.09518 0.63337 0.78637 0.0
H2800 H 0.12319 0.57703 0.71072 0.0
H2801 H 0.10683 0.52659 0.72003 0.0
H2802 H 0.10624 0.55075 0.79634 0.0
C2803 C 0.1398 0.66573 0.77504 0.0
C2804 C 0.14784 0.68299 0.7556 0.0
C2805 C 0.14837 0.66933 0.73221 0.0
C2806 C 0.14055 0.63925 0.728 0.0
C2807 C 0.13263 0.62284 0.74751 0.0
C2808 C 0.13251 0.63532 0.77066 0.0
C2809 C 0.12385 0.61217 0.78861 0.0
C2810 C 0.13866 0.60221 0.80782 0.0
C2811 C 0.10576 0.62614 0.80042 0.0
C2812 C 0.11893 0.58486 0.77192 0.0
C2813 C 0.12383 0.59177 0.74822 0.0
C2814 C 0.11961 0.57113 0.72927 0.0
C2815 C 0.11028 0.54262 0.7347 0.0
C2816 C 0.10561 0.53468 0.7589 0.0
C2817 C 0.11008 0.55601 0.77776 0.0
H2818 H 0.881 0.44311 0.51387 0.0
H2819 H 0.82071 0.41872 0.51676 0.0
H2820 H 0.82913 0.36193 0.51653 0.0
H2821 H 0.89415 0.3784 0.47244 0.0
H2822 H 0.91717 0.37193 0.4864 0.0
H2823 H 0.90653 0.41082 0.48669 0.0
H2824 H 0.90939 0.4124 0.5335 0.0
H2825 H 0.92002 0.37353 0.53335 0.0
H2826 H 0.89891 0.38107 0.55127 0.0
H2827 H 0.84403 0.30815 0.51946 0.0
H2828 H 0.86442 0.26025 0.5209 0.0
H2829 H 0.91507 0.31844 0.51233 0.0
C2830 C 0.86963 0.42573 0.51443 0.0
C2831 C 0.8502 0.43519 0.51555 0.0
C2832 C 0.83567 0.4119 0.51592 0.0
C2833 C 0.84031 0.37961 0.51584 0.0
C2834 C 0.85958 0.37095 0.5149 0.0
C2835 C 0.87402 0.39325 0.51374 0.0
C2836 C 0.89355 0.37737 0.51221 0.0
C2837 C 0.90343 0.38509 0.488 0.0
C2838 C 0.90621 0.38665 0.53387 0.0
C2839 C 0.88781 0.34276 0.51343 0.0
C2840 C 0.86814 0.33967 0.51512 0.0
C2841 C 0.85943 0.31022 0.5178 0.0
C2842 C 0.87111 0.28318 0.5187 0.0
C2843 C 0.89124 0.2857 0.51653 0.0
C2844 C 0.89967 0.31588 0.51371 0.0
H2845 H 0.8369 0.30812 0.28378 0.0
H2846 H 0.88179 0.2475 0.25536 0.0
H2847 H 0.90345 0.29357 0.25248 0.0
H2848 H 0.84684 0.37443 0.2454 0.0
H2849 H 0.8416 0.40371 0.26821 0.0
H2850 H 0.82994 0.36576 0.26918 0.0
H2851 H 0.84224 0.35712 0.313 0.0
H2852 H 0.85394 0.39507 0.31217 0.0
H2853 H 0.86755 0.35993 0.31921 0.0
H2854 H 0.92013 0.34613 0.25239 0.0
H2855 H 0.93039 0.40204 0.25365 0.0
H2856 H 0.8744 0.42924 0.2808 0.0
C2857 C 0.85135 0.30457 0.27714 0.0
C2858 C 0.85776 0.27427 0.2699 0.0
C2859 C 0.87665 0.27053 0.26103 0.0
C2860 C 0.88905 0.29654 0.25937 0.0
C2861 C 0.88229 0.32616 0.26652 0.0
C2862 C 0.86386 0.33038 0.27514 0.0
C2863 C 0.85998 0.36495 0.2808 0.0
C2864 C 0.84362 0.37797 0.26495 0.0
C2865 C 0.85568 0.36953 0.30791 0.0
C2866 C 0.87907 0.37951 0.27393 0.0
C2867 C 0.89177 0.35664 0.26592 0.0
C2868 C 0.91031 0.36423 0.25862 0.0
C2869 C 0.91601 0.39603 0.25941 0.0
C2870 C 0.90318 0.41989 0.26728 0.0
C2871 C 0.88449 0.41145 0.27466 0.0
H2872 H 0.64188 0.05826 0.55217 0.0
H2873 H 0.64787 0.04032 0.47518 0.0
H2874 H 0.63383 0.0927 0.46612 0.0
H2875 H 0.59522 0.09714 0.54628 0.0
H2876 H 0.59954 0.12541 0.57007 0.0
H2877 H 0.61084 0.08702 0.57116 0.0
H2878 H 0.64419 0.11332 0.57422 0.0
H2879 H 0.63306 0.15181 0.57344 0.0
H2880 H 0.65133 0.14183 0.55165 0.0
H2881 H 0.62132 0.14783 0.46526 0.0
H2882 H 0.60692 0.20043 0.47231 0.0
H2883 H 0.60503 0.18148 0.54954 0.0
C2884 C 0.64021 0.06554 0.53346 0.0
C2885 C 0.64608 0.04552 0.5143 0.0
C2886 C 0.64344 0.0554 0.49004 0.0
C2887 C 0.63555 0.08512 0.48474 0.0
C2888 C 0.6299 0.1044 0.50392 0.0
C2889 C 0.63171 0.09487 0.52779 0.0
C2890 C 0.62345 0.11973 0.54479 0.0
C2891 C 0.60625 0.10652 0.55891 0.0
C2892 C 0.63894 0.13242 0.56204 0.0
C2893 C 0.61715 0.14489 0.52673 0.0
C2894 C 0.62129 0.13559 0.50329 0.0
C2895 C 0.61777 0.15523 0.48349 0.0
C2896 C 0.60967 0.18509 0.48767 0.0
C2897 C 0.60477 0.19483 0.51139 0.0
C2898 C 0.60847 0.17439 0.53119 0.0
H2899 H 0.64285 0.18067 0.79248 0.0
H2900 H 0.65903 0.18582 0.71675 0.0
H2901 H 0.64305 0.13455 0.70919 0.0
H2902 H 0.6516 0.09581 0.79785 0.0
H2903 H 0.63209 0.08954 0.81869 0.0
H2904 H 0.6442 0.12714 0.81796 0.0
H2905 H 0.61177 0.15551 0.81054 0.0
H2906 H 0.59957 0.118 0.81116 0.0
H2907 H 0.59705 0.14372 0.78527 0.0
H2908 H 0.6229 0.08509 0.70929 0.0
H2909 H 0.60428 0.03662 0.71806 0.0
H2910 H 0.60462 0.05961 0.79459 0.0
C2911 C 0.64294 0.17095 0.77433 0.0
C2912 C 0.65189 0.18732 0.75508 0.0
C2913 C 0.65214 0.17368 0.73167 0.0
C2914 C 0.64306 0.14464 0.72721 0.0
C2915 C 0.63419 0.12916 0.7465 0.0
C2916 C 0.63443 0.14145 0.76971 0.0
C2917 C 0.62471 0.11913 0.78744 0.0
C2918 C 0.639 0.10719 0.80662 0.0
C2919 C 0.60724 0.13505 0.7993 0.0
C2920 C 0.61867 0.09267 0.7705 0.0
C2921 C 0.62401 0.09924 0.7469 0.0
C2922 C 0.61895 0.07943 0.72775 0.0
C2923 C 0.60832 0.05206 0.73287 0.0
C2924 C 0.60329 0.0443 0.75698 0.0
C2925 C 0.60861 0.0648 0.77604 0.0
H2926 H 0.38847 0.80657 0.54173 0.0
H2927 H 0.40053 0.79616 0.46511 0.0
H2928 H 0.38337 0.84634 0.45672 0.0
H2929 H 0.34176 0.84326 0.53699 0.0
H2930 H 0.34578 0.87068 0.56146 0.0
H2931 H 0.35786 0.83295 0.56133 0.0
H2932 H 0.39065 0.86124 0.56463 0.0
H2933 H 0.37867 0.89904 0.56485 0.0
H2934 H 0.39694 0.891 0.5426 0.0
H2935 H 0.36314 0.89609 0.45652 0.0
H2936 H 0.34608 0.94629 0.46499 0.0
H2937 H 0.35072 0.92834 0.54213 0.0
C2938 C 0.38735 0.81485 0.5232 0.0
C2939 C 0.39554 0.79736 0.50398 0.0
C2940 C 0.39424 0.80919 0.48003 0.0
C2941 C 0.38446 0.83757 0.4751 0.0
C2942 C 0.37645 0.85428 0.49441 0.0
C2943 C 0.37816 0.84375 0.51805 0.0
C2944 C 0.36951 0.86746 0.53562 0.0
C2945 C 0.35273 0.8527 0.54967 0.0
C2946 C 0.38486 0.88045 0.55295 0.0
C2947 C 0.36253 0.89281 0.51818 0.0
C2948 C 0.36631 0.88437 0.49445 0.0
C2949 C 0.36038 0.90316 0.47504 0.0
C2950 C 0.35065 0.93156 0.48001 0.0
C2951 C 0.34734 0.94133 0.50418 0.0
C2952 C 0.35334 0.92163 0.52349 0.0
H2953 H 0.37161 0.94711 0.26927 0.0
H2954 H 0.42913 0.921 0.29167 0.0
H2955 H 0.41916 0.86523 0.29505 0.0
H2956 H 0.34705 0.89138 0.31 0.0
H2957 H 0.32833 0.88257 0.28853 0.0
H2958 H 0.33976 0.92078 0.28814 0.0
H2959 H 0.34842 0.91305 0.2429 0.0
H2960 H 0.33704 0.87484 0.24316 0.0
H2961 H 0.36169 0.87837 0.23382 0.0
H2962 H 0.40399 0.81202 0.29295 0.0
H2963 H 0.38375 0.76457 0.28838 0.0
H2964 H 0.335 0.82399 0.27053 0.0
C2965 C 0.38203 0.92961 0.27501 0.0
C2966 C 0.40119 0.93838 0.28014 0.0
C2967 C 0.41439 0.91487 0.28769 0.0
C2968 C 0.40887 0.88308 0.28964 0.0
C2969 C 0.38996 0.87511 0.28436 0.0
C2970 C 0.37663 0.89765 0.2775 0.0
C2971 C 0.3572 0.88243 0.27303 0.0
C2972 C 0.3422 0.89505 0.291 0.0
C2973 C 0.35071 0.88748 0.24666 0.0
C2974 C 0.36183 0.84782 0.27797 0.0
C2975 C 0.38088 0.84426 0.28435 0.0
C2976 C 0.38899 0.81455 0.28835 0.0
C2977 C 0.3774 0.78772 0.28566 0.0
C2978 C 0.3578 0.79066 0.27945 0.0
C2979 C 0.34986 0.82116 0.27581 0.0
H2980 H 0.624 0.69302 0.02281 0.0
H2981 H 0.56473 0.66372 0.02976 0.0
H2982 H 0.57492 0.60776 0.03033 0.0
H2983 H 0.64029 0.62998 0.98487 0.0
H2984 H 0.66313 0.62516 0.99973 0.0
H2985 H 0.65134 0.66312 0.99992 0.0
H2986 H 0.65298 0.66407 0.04676 0.0
H2987 H 0.66463 0.62595 0.04688 0.0
H2988 H 0.64284 0.63182 0.06382 0.0
H2989 H 0.59105 0.55507 0.0271 0.0
H2990 H 0.61247 0.50864 0.02396 0.0
H2991 H 0.66187 0.57067 0.02284 0.0
C2992 C 0.61323 0.67475 0.02451 0.0
C2993 C 0.59354 0.68268 0.0261 0.0
C2994 C 0.57987 0.65819 0.02856 0.0
C2995 C 0.58552 0.62631 0.02885 0.0
C2996 C 0.60498 0.61918 0.02717 0.0
C2997 C 0.6187 0.64262 0.02545 0.0
C2998 C 0.6387 0.62822 0.02454 0.0
C2999 C 0.64897 0.63715 1.00085 0.0
C3000 C 0.65049 0.63811 0.04682 0.0
C3001 C 0.634 0.59308 0.0253 0.0
C3002 C 0.61443 0.58852 0.0267 0.0
C3003 C 0.60642 0.55834 0.02634 0.0
C3004 C 0.61869 0.5321 0.02449 0.0
C3005 C 0.6388 0.53603 0.02338 0.0
C3006 C 0.64655 0.56697 0.02402 0.0
H3007 H 0.6393 0.68452 0.23657 0.0
H3008 H 0.6455 0.69701 0.31419 0.0
H3009 H 0.63171 0.64407 0.3211 0.0
H3010 H 0.5927 0.64439 0.24098 0.0
H3011 H 0.59732 0.61812 0.21595 0.0
H3012 H 0.60817 0.65676 0.21662 0.0
H3013 H 0.64176 0.63128 0.21222 0.0
H3014 H 0.63105 0.59255 0.21151 0.0
H3015 H 0.6493 0.60143 0.23358 0.0
H3016 H 0.61986 0.58893 0.3198 0.0
H3017 H 0.6061 0.53653 0.31083 0.0
H3018 H 0.60343 0.56049 0.23444 0.0
C3019 C 0.63767 0.67598 0.25497 0.0
C3020 C 0.64358 0.69463 0.27491 0.0
C3021 C 0.64103 0.68306 0.29874 0.0
C3022 C 0.63329 0.65299 0.30282 0.0
C3023 C 0.62767 0.63506 0.2829 0.0
C3024 C 0.6293 0.64625 0.25944 0.0
C3025 C 0.62122 0.62241 0.24148 0.0
C3026 C 0.60382 0.63626 0.22796 0.0
C3027 C 0.63676 0.61126 0.22365 0.0
C3028 C 0.61525 0.5959 0.25855 0.0
C3029 C 0.61939 0.6037 0.2823 0.0
C3030 C 0.61628 0.58268 0.30133 0.0
C3031 C 0.60856 0.55293 0.29605 0.0
C3032 C 0.60361 0.54464 0.27204 0.0
C3033 C 0.6069 0.56647 0.25301 0.0
H3034 H 0.33571 0.42661 1.01524 0.0
H3035 H 0.38651 0.48347 1.00344 0.0
H3036 H 0.40618 0.43494 1.00097 0.0
H3037 H 0.35883 0.36987 0.05432 0.0
H3038 H 0.34551 0.33635 0.0433 0.0
H3039 H 0.335 0.37531 0.04238 0.0
H3040 H 0.3292 0.36945 0.99626 0.0
H3041 H 0.33968 0.33044 0.99703 0.0
H3042 H 0.34904 0.35995 0.97664 0.0
H3043 H 0.42039 0.38086 0.99943 0.0
H3044 H 0.42897 0.32442 1.00227 0.0
H3045 H 0.36976 0.30113 0.0181 0.0
C3046 C 0.35094 0.42869 1.01193 0.0
C3047 C 0.35961 0.45878 1.00931 0.0
C3048 C 0.37961 0.46068 1.00546 0.0
C3049 C 0.39089 0.43323 1.00395 0.0
C3050 C 0.38202 0.40394 1.00678 0.0
C3051 C 0.36256 0.40138 1.01096 0.0
C3052 C 0.35696 0.36692 1.01472 0.0
C3053 C 0.34858 0.36182 0.04019 0.0
C3054 C 0.34288 0.35606 0.99498 0.0
C3055 C 0.37631 0.35062 1.01203 0.0
C3056 C 0.39047 0.37253 1.00709 0.0
C3057 C 0.40945 0.36351 1.00339 0.0
C3058 C 0.41417 0.33131 1.00494 0.0
C3059 C 0.40007 0.30834 1.0104 0.0
C3060 C 0.38086 0.31818 1.01403 0.0
H3061 H 0.37543 0.29098 0.76643 0.0
H3062 H 0.3164 0.31769 0.7804 0.0
H3063 H 0.326 0.37369 0.78335 0.0
H3064 H 0.3966 0.34895 0.80815 0.0
H3065 H 0.41691 0.35671 0.7889 0.0
H3066 H 0.40556 0.31844 0.78832 0.0
H3067 H 0.4005 0.32367 0.74199 0.0
H3068 H 0.41181 0.36193 0.74243 0.0
H3069 H 0.38802 0.35774 0.73014 0.0
H3070 H 0.34134 0.42705 0.7815 0.0
H3071 H 0.36193 0.47431 0.77795 0.0
H3072 H 0.41171 0.41407 0.76827 0.0
C3073 C 0.36458 0.30867 0.77019 0.0
C3074 C 0.34514 0.29998 0.77314 0.0
C3075 C 0.33137 0.32375 0.77817 0.0
C3076 C 0.33669 0.35567 0.77984 0.0
C3077 C 0.35591 0.36354 0.77673 0.0
C3078 C 0.36972 0.34076 0.7723 0.0
C3079 C 0.3894 0.35583 0.76982 0.0
C3080 C 0.40292 0.34429 0.79 0.0
C3081 C 0.39793 0.34941 0.74459 0.0
C3082 C 0.3844 0.39063 0.773 0.0
C3083 C 0.36496 0.39444 0.77685 0.0
C3084 C 0.35662 0.42433 0.77885 0.0
C3085 C 0.36842 0.45104 0.77676 0.0
C3086 C 0.3884 0.44782 0.77315 0.0
C3087 C 0.39652 0.41717 0.7715 0.0
H3088 H 0.06024 0.09471 0.20506 0.0
H3089 H 0.00948 0.05121 0.17414 0.0
H3090 H 0.00217 0.10086 0.1524 0.0
H3091 H 0.04037 0.17499 0.21176 0.0
H3092 H 0.06261 0.1936 0.20333 0.0
H3093 H 0.06286 0.15577 0.21844 0.0
H3094 H 0.08297 0.13197 0.18349 0.0
H3095 H 0.08291 0.16968 0.16837 0.0
H3096 H 0.0743 0.13502 0.15279 0.0
H3097 H 0.00206 0.15266 0.13118 0.0
H3098 H 0.00946 0.20332 0.11106 0.0
H3099 H 0.06001 0.21354 0.15623 0.0
C3100 C 0.04742 0.09576 0.19401 0.0
C3101 C 0.03538 0.06919 0.1913 0.0
C3102 C 0.01888 0.07134 0.17646 0.0
C3103 C 0.01456 0.09946 0.16416 0.0
C3104 C 0.02683 0.12513 0.16703 0.0
C3105 C 0.04292 0.12358 0.1816 0.0
C3106 C 0.05451 0.15376 0.1802 0.0
C3107 C 0.05511 0.17052 0.20491 0.0
C3108 C 0.07487 0.1472 0.17063 0.0
C3109 C 0.04267 0.17219 0.16204 0.0
C3110 C 0.02667 0.15535 0.15488 0.0
C3111 C 0.01435 0.16634 0.13689 0.0
C3112 C 0.01869 0.19505 0.12554 0.0
C3113 C 0.0352 0.21235 0.13227 0.0
C3114 C 0.04708 0.20109 0.15111 0.0
H3115 H 0.16791 0.06495 0.11716 0.0
H3116 H 0.22798 0.05403 0.09814 0.0
H3117 H 0.23533 0.10425 0.1186 0.0
H3118 H 0.16566 0.15047 0.11044 0.0
H3119 H 0.15014 0.15614 0.13619 0.0
H3120 H 0.14911 0.11982 0.11914 0.0
H3121 H 0.15535 0.08757 0.15832 0.0
H3122 H 0.15629 0.12372 0.17553 0.0
H3123 H 0.17611 0.09632 0.17654 0.0
H3124 H 0.23648 0.15467 0.14048 0.0
H3125 H 0.23199 0.20188 0.16566 0.0
H3126 H 0.17137 0.18029 0.17272 0.0
C3127 C 0.18259 0.07324 0.11725 0.0
C3128 C 0.1974 0.05565 0.10604 0.0
C3129 C 0.21644 0.06706 0.10668 0.0
C3130 C 0.22075 0.09563 0.11814 0.0
C3131 C 0.20588 0.11237 0.12901 0.0
C3132 C 0.18721 0.10163 0.1289 0.0
C3133 C 0.17416 0.12383 0.14289 0.0
C3134 C 0.15887 0.13843 0.12616 0.0
C3135 C 0.16494 0.10684 0.16461 0.0
C3136 C 0.18854 0.14846 0.15109 0.0
C3137 C 0.20665 0.14146 0.1425 0.0
C3138 C 0.22239 0.16047 0.14737 0.0
C3139 C 0.21964 0.1873 0.16167 0.0
C3140 C 0.20132 0.19473 0.17122 0.0
C3141 C 0.18553 0.1751 0.16575 0.0
H3142 H 0.92969 0.84331 0.9488 0.0
H3143 H 0.98009 0.7992 0.9172 0.0
H3144 H 0.98694 0.84839 0.89474 0.0
H3145 H 0.91508 0.88491 0.89602 0.0
H3146 H 0.90687 0.91932 0.91231 0.0
H3147 H 0.9066 0.88111 0.92673 0.0
H3148 H 0.92731 0.90337 0.96198 0.0
H3149 H 0.9275 0.94157 0.94745 0.0
H3150 H 0.94977 0.92235 0.9552 0.0
H3151 H 0.98763 0.90125 0.8746 0.0
H3152 H 0.98149 0.95389 0.85688 0.0
H3153 H 0.93069 0.96357 0.90174 0.0
C3154 C 0.94223 0.84402 0.93727 0.0
C3155 C 0.95438 0.81747 0.93475 0.0
C3156 C 0.97059 0.81929 0.91938 0.0
C3157 C 0.97464 0.84714 0.90663 0.0
C3158 C 0.96237 0.87288 0.90952 0.0
C3159 C 0.94648 0.87159 0.9244 0.0
C3160 C 0.93518 0.90218 0.92358 0.0
C3161 C 0.91473 0.89653 0.91409 0.0
C3162 C 0.93493 0.91832 0.94854 0.0
C3163 C 0.94707 0.92071 0.9056 0.0
C3164 C 0.96277 0.90346 0.89787 0.0
C3165 C 0.97547 0.9151 0.88062 0.0
C3166 C 0.97185 0.94501 0.87067 0.0
C3167 C 0.95565 0.96284 0.87799 0.0
C3168 C 0.9433 0.95065 0.89596 0.0
H3169 H 0.80581 0.77276 0.89865 0.0
H3170 H 0.75659 0.79329 0.85311 0.0
H3171 H 0.75105 0.84288 0.87563 0.0
H3172 H 0.78705 0.80882 0.95565 0.0
H3173 H 0.81026 0.82432 0.96362 0.0
H3174 H 0.80848 0.78807 0.94657 0.0
H3175 H 0.83025 0.81205 0.9134 0.0
H3176 H 0.83184 0.84852 0.93004 0.0
H3177 H 0.82344 0.84883 0.89915 0.0
H3178 H 0.75302 0.89241 0.89935 0.0
H3179 H 0.76187 0.93888 0.92386 0.0
H3180 H 0.81022 0.88677 0.95359 0.0
C3181 C 0.79351 0.78721 0.89397 0.0
C3182 C 0.78149 0.77921 0.87435 0.0
C3183 C 0.76589 0.79907 0.86819 0.0
C3184 C 0.7626 0.82718 0.88089 0.0
C3185 C 0.77508 0.83498 0.89963 0.0
C3186 C 0.79016 0.81553 0.9063 0.0
C3187 C 0.80253 0.83091 0.92549 0.0
C3188 C 0.80203 0.8119 0.94924 0.0
C3189 C 0.82323 0.83534 0.91646 0.0
C3190 C 0.79228 0.86231 0.9281 0.0
C3191 C 0.77639 0.86401 0.9132 0.0
C3192 C 0.76525 0.89127 0.91139 0.0
C3193 C 0.77045 0.91757 0.92527 0.0
C3194 C 0.78668 0.91636 0.94065 0.0
C3195 C 0.79763 0.88828 0.94215 0.0
H3196 H 0.06928 0.70729 0.64842 0.0
H3197 H 0.03222 0.68111 0.58839 0.0
H3198 H 0.0314 0.62636 0.60317 0.0
H3199 H 0.0963 0.63189 0.65079 0.0
H3200 H 0.09754 0.6319 0.68342 0.0
H3201 H 0.09673 0.66884 0.66708 0.0
H3202 H 0.067 0.68593 0.69201 0.0
H3203 H 0.06771 0.64903 0.70831 0.0
H3204 H 0.04618 0.66076 0.6926 0.0
H3205 H 0.03242 0.57581 0.62531 0.0
H3206 H 0.03543 0.5315 0.65409 0.0
H3207 H 0.07181 0.58924 0.70012 0.0
C3208 C 0.0612 0.68992 0.63827 0.0
C3209 C 0.05076 0.69856 0.61731 0.0
C3210 C 0.04025 0.67519 0.60458 0.0
C3211 C 0.03975 0.64392 0.61274 0.0
C3212 C 0.04989 0.63625 0.63361 0.0
C3213 C 0.06049 0.65842 0.64622 0.0
C3214 C 0.06925 0.64397 0.66884 0.0
C3215 C 0.09126 0.64416 0.66744 0.0
C3216 C 0.0621 0.66093 0.69179 0.0
C3217 C 0.06143 0.61058 0.66719 0.0
C3218 C 0.05048 0.60665 0.64657 0.0
C3219 C 0.0411 0.5784 0.64144 0.0
C3220 C 0.04284 0.55341 0.65793 0.0
C3221 C 0.05382 0.55691 0.67933 0.0
C3222 C 0.06337 0.58581 0.68386 0.0
H3223 H 0.20235 0.67389 0.68612 0.0
H3224 H 0.2254 0.72705 0.62552 0.0
H3225 H 0.23012 0.67702 0.60283 0.0
H3226 H 0.23259 0.605 0.6813 0.0
H3227 H 0.21363 0.57776 0.68871 0.0
H3228 H 0.21312 0.61746 0.70056 0.0
H3229 H 0.17939 0.62618 0.68204 0.0
H3230 H 0.17972 0.58649 0.67023 0.0
H3231 H 0.17575 0.61948 0.6501 0.0
H3232 H 0.23263 0.62129 0.58733 0.0
H3233 H 0.22952 0.56456 0.57786 0.0
H3234 H 0.20288 0.54851 0.6479 0.0
C3235 C 0.20858 0.67496 0.66816 0.0
C3236 C 0.21379 0.70411 0.65759 0.0
C3237 C 0.22142 0.7048 0.63387 0.0
C3238 C 0.22422 0.67658 0.62096 0.0
C3239 C 0.21901 0.64815 0.632 0.0
C3240 C 0.21109 0.64721 0.65492 0.0
C3241 C 0.20556 0.6139 0.66211 0.0
C3242 C 0.21691 0.60289 0.6845 0.0
C3243 C 0.18382 0.61138 0.66636 0.0
C3244 C 0.21166 0.59613 0.63964 0.0
C3245 C 0.21963 0.61625 0.62264 0.0
C3246 C 0.22639 0.60531 0.60046 0.0
C3247 C 0.22463 0.57301 0.59533 0.0
C3248 C 0.21594 0.55215 0.61218 0.0
C3249 C 0.20957 0.5639 0.63469 0.0
H3250 H 0.93835 0.34323 0.44452 0.0
H3251 H 0.98318 0.28624 0.4116 0.0
H3252 H 0.99149 0.33089 0.38471 0.0
H3253 H 0.923 0.38189 0.39022 0.0
H3254 H 0.9185 0.41935 0.40479 0.0
H3255 H 0.91634 0.38314 0.42178 0.0
H3256 H 0.94059 0.40406 0.4534 0.0
H3257 H 0.94284 0.4404 0.43657 0.0
H3258 H 0.96387 0.41725 0.44355 0.0
H3259 H 0.9946 0.3814 0.36106 0.0
H3260 H 0.99213 0.43414 0.34201 0.0
H3261 H 0.94532 0.45801 0.39057 0.0
C3262 C 0.94994 0.34011 0.43169 0.0
C3263 C 0.96013 0.31125 0.43015 0.0
C3264 C 0.97518 0.30815 0.4131 0.0
C3265 C 0.98002 0.33337 0.39777 0.0
C3266 C 0.96969 0.36149 0.39976 0.0
C3267 C 0.95496 0.365 0.41628 0.0
C3268 C 0.94595 0.39756 0.41459 0.0
C3269 C 0.92469 0.39533 0.40741 0.0
C3270 C 0.94847 0.41589 0.43845 0.0
C3271 C 0.95788 0.41177 0.39444 0.0
C3272 C 0.97151 0.39061 0.38617 0.0
C3273 C 0.98403 0.39822 0.36742 0.0
C3274 C 0.98251 0.42824 0.35672 0.0
C3275 C 0.96857 0.45023 0.36483 0.0
C3276 C 0.95619 0.44181 0.38403 0.0
H3277 H 0.8088 0.39528 0.45791 0.0
H3278 H 0.76359 0.45053 0.42397 0.0
H3279 H 0.75473 0.40439 0.39903 0.0
H3280 H 0.82395 0.3565 0.4056 0.0
H3281 H 0.82897 0.3192 0.42019 0.0
H3282 H 0.83039 0.35537 0.43724 0.0
H3283 H 0.80621 0.33319 0.46846 0.0
H3284 H 0.80466 0.29685 0.45151 0.0
H3285 H 0.78323 0.31902 0.45826 0.0
H3286 H 0.75277 0.35442 0.37529 0.0
H3287 H 0.75798 0.30389 0.35394 0.0
H3288 H 0.80423 0.28091 0.40364 0.0
C3289 C 0.79685 0.39756 0.44549 0.0
C3290 C 0.78686 0.42645 0.44287 0.0
C3291 C 0.77143 0.42858 0.42628 0.0
C3292 C 0.76624 0.40249 0.41211 0.0
C3293 C 0.77654 0.37446 0.41492 0.0
C3294 C 0.79149 0.37177 0.43124 0.0
C3295 C 0.80106 0.33968 0.42961 0.0
C3296 C 0.82235 0.3429 0.42274 0.0
C3297 C 0.79864 0.32109 0.45337 0.0
C3298 C 0.78952 0.32507 0.40929 0.0
C3299 C 0.77532 0.34541 0.40126 0.0
C3300 C 0.76364 0.33808 0.38161 0.0
C3301 C 0.76675 0.30938 0.36957 0.0
C3302 C 0.78144 0.28846 0.37723 0.0
C3303 C 0.79269 0.29621 0.39763 0.0
H3304 H 0.56378 0.14422 0.5851 0.0
H3305 H 0.51347 0.19331 0.61237 0.0
H3306 H 0.50369 0.14494 0.63413 0.0
H3307 H 0.5415 0.06598 0.57784 0.0
H3308 H 0.5628 0.04551 0.58774 0.0
H3309 H 0.56475 0.08305 0.57242 0.0
H3310 H 0.58429 0.10545 0.60876 0.0
H3311 H 0.58243 0.06777 0.62372 0.0
H3312 H 0.57431 0.10317 0.63881 0.0
H3313 H 0.50097 0.09362 0.65571 0.0
H3314 H 0.50606 0.04289 0.67694 0.0
H3315 H 0.55771 0.02675 0.63492 0.0
C3316 C 0.55058 0.1447 0.59541 0.0
C3317 C 0.53934 0.17243 0.59704 0.0
C3318 C 0.52228 0.17226 0.61089 0.0
C3319 C 0.51654 0.14489 0.62317 0.0
C3320 C 0.52799 0.11797 0.62125 0.0
C3321 C 0.54466 0.11764 0.60776 0.0
C3322 C 0.55509 0.08637 0.61008 0.0
C3323 C 0.55608 0.06921 0.58556 0.0
C3324 C 0.57521 0.09098 0.621 0.0
C3325 C 0.54192 0.06945 0.62752 0.0
C3326 C 0.52627 0.08799 0.63353 0.0
C3327 C 0.51297 0.07863 0.65087 0.0
C3328 C 0.516 0.04987 0.66285 0.0
C3329 C 0.53218 0.03094 0.65736 0.0
C3330 C 0.545 0.04047 0.63904 0.0
H3331 H 0.70395 0.02317 0.65587 0.0
H3332 H 0.74962 0.04381 0.60497 0.0
H3333 H 0.75673 0.09319 0.62693 0.0
H3334 H 0.68588 0.0976 0.65808 0.0
H3335 H 0.67973 0.09784 0.6898 0.0
H3336 H 0.68076 0.06102 0.6736 0.0
H3337 H 0.7053 0.0389 0.7046 0.0
H3338 H 0.70415 0.07563 0.72114 0.0
H3339 H 0.72693 0.0607 0.71078 0.0
H3340 H 0.75543 0.14365 0.64978 0.0
H3341 H 0.74641 0.19129 0.67303 0.0
H3342 H 0.70135 0.13808 0.70875 0.0
C3343 C 0.71591 0.0375 0.64992 0.0
C3344 C 0.72633 0.0297 0.62887 0.0
C3345 C 0.74151 0.04942 0.62114 0.0
C3346 C 0.74571 0.07742 0.63354 0.0
C3347 C 0.73463 0.08519 0.65365 0.0
C3348 C 0.72016 0.06567 0.66197 0.0
C3349 C 0.70892 0.08122 0.68217 0.0
C3350 C 0.68757 0.08462 0.67549 0.0
C3351 C 0.71149 0.06303 0.7061 0.0
C3352 C 0.71878 0.11301 0.68309 0.0
C3353 C 0.73377 0.11465 0.6668 0.0
C3354 C 0.74399 0.14249 0.66299 0.0
C3355 C 0.73869 0.16945 0.67614 0.0
C3356 C 0.72323 0.16829 0.6927 0.0
C3357 C 0.71337 0.13958 0.69641 0.0
H3358 H 0.45023 0.96294 0.39941 0.0
H3359 H 0.49274 0.93825 0.34517 0.0
H3360 H 0.49685 0.88584 0.36426 0.0
H3361 H 0.47233 0.91917 0.45065 0.0
H3362 H 0.44933 0.90723 0.46233 0.0
H3363 H 0.45166 0.94424 0.44634 0.0
H3364 H 0.42489 0.92686 0.41664 0.0
H3365 H 0.42264 0.88974 0.43234 0.0
H3366 H 0.42746 0.8902 0.40025 0.0
H3367 H 0.49406 0.83461 0.38666 0.0
H3368 H 0.48498 0.78832 0.41147 0.0
H3369 H 0.44389 0.84642 0.45048 0.0
C3370 C 0.46076 0.94684 0.39193 0.0
C3371 C 0.47124 0.95466 0.37091 0.0
C3372 C 0.4846 0.9327 0.36133 0.0
C3373 C 0.48706 0.90293 0.37205 0.0
C3374 C 0.47609 0.89558 0.39234 0.0
C3375 C 0.46329 0.91695 0.40229 0.0
C3376 C 0.45219 0.90235 0.423 0.0
C3377 C 0.45665 0.91925 0.447 0.0
C3378 C 0.43052 0.90228 0.41772 0.0
C3379 C 0.46039 0.86922 0.4227 0.0
C3380 C 0.4743 0.86586 0.40507 0.0
C3381 C 0.48335 0.83701 0.40072 0.0
C3382 C 0.47805 0.81086 0.41483 0.0
C3383 C 0.46376 0.81381 0.43289 0.0
C3384 C 0.45493 0.84344 0.43688 0.0
H3385 H 0.30337 0.77773 0.39832 0.0
H3386 H 0.25829 0.79798 0.34624 0.0
H3387 H 0.25314 0.85015 0.36518 0.0
H3388 H 0.28133 0.81887 0.45026 0.0
H3389 H 0.30409 0.83325 0.46105 0.0
H3390 H 0.30285 0.79622 0.44497 0.0
H3391 H 0.32801 0.81681 0.41425 0.0
H3392 H 0.32917 0.85394 0.43011 0.0
H3393 H 0.32352 0.8533 0.39823 0.0
H3394 H 0.25475 0.90157 0.38729 0.0
H3395 H 0.26232 0.94838 0.41225 0.0
H3396 H 0.30639 0.8945 0.44972 0.0
C3397 C 0.29213 0.79284 0.39122 0.0
C3398 C 0.28118 0.7838 0.37088 0.0
C3399 C 0.26683 0.80444 0.36186 0.0
C3400 C 0.26377 0.83409 0.37249 0.0
C3401 C 0.27515 0.84262 0.39214 0.0
C3402 C 0.28895 0.82255 0.40155 0.0
C3403 C 0.29998 0.83816 0.42189 0.0
C3404 C 0.29686 0.82058 0.44597 0.0
C3405 C 0.32144 0.8407 0.41573 0.0
C3406 C 0.29044 0.87032 0.4221 0.0
C3407 C 0.2761 0.87236 0.4049 0.0
C3408 C 0.2658 0.90019 0.40103 0.0
C3409 C 0.27025 0.92665 0.4152 0.0
C3410 C 0.28488 0.925 0.43295 0.0
C3411 C 0.29502 0.89641 0.43643 0.0
H3412 H 0.55017 0.71762 0.15129 0.0
H3413 H 0.49813 0.6989 0.11086 0.0
H3414 H 0.49391 0.64883 0.13324 0.0
H3415 H 0.5678 0.64298 0.14769 0.0
H3416 H 0.57847 0.64119 0.17741 0.0
H3417 H 0.57541 0.67876 0.16262 0.0
H3418 H 0.55601 0.69991 0.1991 0.0
H3419 H 0.5593 0.66254 0.21437 0.0
H3420 H 0.5355 0.67814 0.20983 0.0
H3421 H 0.49798 0.59795 0.15462 0.0
H3422 H 0.50943 0.5496 0.17509 0.0
H3423 H 0.55937 0.60058 0.20105 0.0
C3424 C 0.53749 0.70358 0.14793 0.0
C3425 C 0.52433 0.71209 0.12965 0.0
C3426 C 0.50827 0.69271 0.12497 0.0
C3427 C 0.50573 0.66434 0.13762 0.0
C3428 C 0.51942 0.65583 0.1548 0.0
C3429 C 0.53492 0.67496 0.16017 0.0
C3430 C 0.54881 0.65851 0.17711 0.0
C3431 C 0.56879 0.65516 0.1655 0.0
C3432 C 0.54996 0.67581 0.20156 0.0
C3433 C 0.53903 0.62677 0.17967 0.0
C3434 C 0.52198 0.62591 0.16694 0.0
C3435 C 0.5111 0.59845 0.16507 0.0
C3436 C 0.51779 0.57107 0.17659 0.0
C3437 C 0.53523 0.57143 0.18968 0.0
C3438 C 0.54587 0.59972 0.19137 0.0
H3439 H 0.67981 0.56078 0.10176 0.0
H3440 H 0.74147 0.54836 0.0974 0.0
H3441 H 0.74598 0.59593 0.12295 0.0
H3442 H 0.67879 0.64562 0.10031 0.0
H3443 H 0.65956 0.64875 0.122 0.0
H3444 H 0.66128 0.61448 0.10273 0.0
H3445 H 0.66141 0.5778 0.14034 0.0
H3446 H 0.65957 0.61182 0.15983 0.0
H3447 H 0.67892 0.58399 0.16388 0.0
H3448 H 0.74355 0.64488 0.14856 0.0
H3449 H 0.73448 0.68955 0.17506 0.0
H3450 H 0.67435 0.66778 0.16375 0.0
C3451 C 0.69428 0.56821 0.10602 0.0
C3452 C 0.71033 0.55125 0.09754 0.0
C3453 C 0.72902 0.56122 0.1038 0.0
C3454 C 0.7317 0.58818 0.11817 0.0
C3455 C 0.71552 0.60445 0.12622 0.0
C3456 C 0.69718 0.59464 0.12058 0.0
C3457 C 0.68216 0.6153 0.13237 0.0
C3458 C 0.66973 0.63204 0.11321 0.0
C3459 C 0.66979 0.59608 0.15016 0.0
C3460 C 0.69494 0.63838 0.14554 0.0
C3461 C 0.71411 0.63193 0.14158 0.0
C3462 C 0.72859 0.65015 0.15184 0.0
C3463 C 0.7233 0.67546 0.16679 0.0
C3464 C 0.70373 0.68194 0.17146 0.0
C3465 C 0.68942 0.66325 0.16057 0.0
H3466 H 0.44218 0.46097 0.89617 0.0
H3467 H 0.48968 0.43971 0.84805 0.0
H3468 H 0.49535 0.38959 0.86985 0.0
H3469 H 0.46254 0.42342 0.95179 0.0
H3470 H 0.43946 0.40856 0.96096 0.0
H3471 H 0.44106 0.44501 0.94411 0.0
H3472 H 0.41784 0.42231 0.91187 0.0
H3473 H 0.41634 0.38579 0.92851 0.0
H3474 H 0.42364 0.38541 0.89718 0.0
H3475 H 0.49375 0.33973 0.89362 0.0
H3476 H 0.48485 0.293 0.91798 0.0
H3477 H 0.43796 0.34626 0.94997 0.0
C3478 C 0.45411 0.44617 0.89069 0.0
C3479 C 0.46558 0.45419 0.87058 0.0
C3480 C 0.48075 0.43393 0.86348 0.0
C3481 C 0.48414 0.40552 0.87579 0.0
C3482 C 0.47223 0.39782 0.89513 0.0
C3483 C 0.45757 0.41758 0.90264 0.0
C3484 C 0.4457 0.40234 0.92238 0.0
C3485 C 0.4473 0.42094 0.94622 0.0
C3486 C 0.42464 0.39874 0.91449 0.0
C3487 C 0.45564 0.3706 0.9242 0.0
C3488 C 0.47108 0.36865 0.90861 0.0
C3489 C 0.48186 0.34106 0.90616 0.0
C3490 C 0.47666 0.31464 0.91999 0.0
C3491 C 0.46073 0.31605 0.9358 0.0
C3492 C 0.45025 0.34451 0.93807 0.0
H3493 H 0.30825 0.3378 0.83123 0.0
H3494 H 0.26328 0.28665 0.86884 0.0
H3495 H 0.25671 0.33398 0.89382 0.0
H3496 H 0.32674 0.37683 0.88155 0.0
H3497 H 0.33181 0.41337 0.86595 0.0
H3498 H 0.33165 0.37668 0.84946 0.0
H3499 H 0.30647 0.39946 0.81973 0.0
H3500 H 0.30655 0.43638 0.83604 0.0
H3501 H 0.28436 0.41552 0.83137 0.0
H3502 H 0.25704 0.38497 0.91691 0.0
H3503 H 0.26403 0.43617 0.93643 0.0
H3504 H 0.30853 0.45403 0.8832 0.0
C3505 C 0.29686 0.33661 0.84452 0.0
C3506 C 0.28628 0.30857 0.84817 0.0
C3507 C 0.27153 0.30796 0.86575 0.0
C3508 C 0.26767 0.33471 0.87996 0.0
C3509 C 0.27857 0.36186 0.87613 0.0
C3510 C 0.29278 0.36306 0.85873 0.0
C3511 C 0.30309 0.39451 0.85902 0.0
C3512 C 0.32459 0.39006 0.86433 0.0
C3513 C 0.29992 0.41253 0.83512 0.0
C3514 C 0.29287 0.41048 0.87986 0.0
C3515 C 0.27864 0.39139 0.88931 0.0
C3516 C 0.26796 0.40031 0.90949 0.0
C3517 C 0.27208 0.42939 0.92048 0.0
C3518 C 0.28678 0.4491 0.91127 0.0
C3519 C 0.29706 0.43965 0.89048 0.0
H3520 H 0.09383 0.2654 0.12314 0.0
H3521 H 0.12619 0.32844 0.07652 0.0
H3522 H 0.15087 0.33348 0.10886 0.0
H3523 H 0.10174 0.30516 0.17818 0.0
H3524 H 0.10351 0.26944 0.19594 0.0
H3525 H 0.08931 0.2699 0.16873 0.0
H3526 H 0.1087 0.22246 0.15193 0.0
H3527 H 0.12299 0.22176 0.17911 0.0
H3528 H 0.13444 0.2251 0.14996 0.0
H3529 H 0.17156 0.33248 0.14818 0.0
H3530 H 0.18553 0.3261 0.1892 0.0
H3531 H 0.13881 0.26374 0.20888 0.0
C3532 C 0.10603 0.28043 0.1195 0.0
C3533 C 0.10786 0.29682 0.09716 0.0
C3534 C 0.12435 0.31569 0.09339 0.0
C3535 C 0.13845 0.31865 0.1117 0.0
C3536 C 0.13595 0.30236 0.13361 0.0
C3537 C 0.12011 0.28348 0.13738 0.0
C3538 C 0.12033 0.26864 0.16241 0.0
C3539 C 0.10268 0.27892 0.17718 0.0
C3540 C 0.1217 0.23235 0.16074 0.0
C3541 C 0.13858 0.28264 0.1726 0.0
C3542 C 0.14757 0.30177 0.15572 0.0
C3543 C 0.16461 0.3174 0.16137 0.0
C3544 C 0.17251 0.31354 0.18474 0.0
C3545 C 0.16336 0.29434 0.20236 0.0
C3546 C 0.1462 0.27865 0.19596 0.0
H3547 H 0.134 0.96535 0.08692 0.0
H3548 H 0.15579 0.86952 0.08981 0.0
H3549 H 0.13543 0.85897 0.12601 0.0
H3550 H 0.13546 0.97941 0.14799 0.0
H3551 H 0.11409 0.00339 0.1491 0.0
H3552 H 0.12784 0.00128 0.12161 0.0
H3553 H 0.09792 0.98264 0.09777 0.0
H3554 H 0.08391 0.98539 0.1251 0.0
H3555 H 0.08463 0.9488 0.10836 0.0
H3556 H 0.11483 0.86239 0.166 0.0
H3557 H 0.09512 0.87796 0.20175 0.0
H3558 H 0.0884 0.9718 0.1709 0.0
C3559 C 0.13389 0.94172 0.09459 0.0
C3560 C 0.14604 0.91798 0.08525 0.0
C3561 C 0.14609 0.8877 0.09625 0.0
C3562 C 0.13473 0.8817 0.11699 0.0
C3563 C 0.12341 0.90623 0.12636 0.0
C3564 C 0.12276 0.93549 0.11509 0.0
C3565 C 0.11072 0.95885 0.12916 0.0
C3566 C 0.12275 0.98739 0.13745 0.0
C3567 C 0.09326 0.96953 0.11421 0.0
C3568 C 0.10482 0.93854 0.15041 0.0
C3569 C 0.11213 0.90821 0.14874 0.0
C3570 C 0.1089 0.88603 0.1672 0.0
C3571 C 0.09779 0.89508 0.18754 0.0
C3572 C 0.09008 0.92606 0.18925 0.0
C3573 C 0.09383 0.94779 0.1703 0.0
H3574 H 0.83958 0.72321 0.86405 0.0
H3575 H 0.85858 0.63941 0.8255 0.0
H3576 H 0.87861 0.62447 0.86114 0.0
H3577 H 0.88399 0.74165 0.89095 0.0
H3578 H 0.87328 0.7562 0.9185 0.0
H3579 H 0.86019 0.75835 0.89049 0.0
H3580 H 0.83225 0.72744 0.91023 0.0
H3581 H 0.84542 0.7247 0.93824 0.0
H3582 H 0.83679 0.68928 0.92373 0.0
H3583 H 0.89751 0.62042 0.90196 0.0
H3584 H 0.9154 0.63077 0.9401 0.0
H3585 H 0.88318 0.71727 0.95028 0.0
C3586 C 0.84776 0.70145 0.86297 0.0
C3587 C 0.84729 0.68229 0.84192 0.0
C3588 C 0.85865 0.65447 0.84136 0.0
C3589 C 0.86995 0.64573 0.86163 0.0
C3590 C 0.86974 0.6651 0.88225 0.0
C3591 C 0.85901 0.69259 0.88277 0.0
C3592 C 0.86182 0.71066 0.90617 0.0
C3593 C 0.87033 0.74364 0.90122 0.0
C3594 C 0.84294 0.71315 0.92043 0.0
C3595 C 0.87602 0.68931 0.91893 0.0
C3596 C 0.88033 0.66288 0.90512 0.0
C3597 C 0.89397 0.6408 0.91295 0.0
C3598 C 0.90389 0.64659 0.93481 0.0
C3599 C 0.90015 0.67422 0.94853 0.0
C3600 C 0.88577 0.69535 0.94063 0.0
H3601 H 0.82879 0.02935 0.92333 0.0
H3602 H 0.86041 0.08748 0.97423 0.0
H3603 H 0.87992 0.10839 0.94014 0.0
H3604 H 0.86737 0.00583 0.88893 0.0
H3605 H 0.85462 0.0059 0.86051 0.0
H3606 H 0.84182 -0.00036 0.88832 0.0
H3607 H 0.81935 0.04671 0.87787 0.0
H3608 H 0.8323 0.05334 0.85007 0.0
H3609 H 0.82949 0.08505 0.87161 0.0
H3610 H 0.89869 0.11689 0.90094 0.0
H3611 H 0.91555 0.1104 0.86181 0.0
H3612 H 0.87102 0.04734 0.83692 0.0
C3613 C 0.83962 0.04685 0.92745 0.0
C3614 C 0.84309 0.0567 0.95159 0.0
C3615 C 0.85743 0.07963 0.95595 0.0
C3616 C 0.86852 0.09169 0.93664 0.0
C3617 C 0.86488 0.08091 0.91309 0.0
C3618 C 0.85067 0.05905 0.90853 0.0
C3619 C 0.85052 0.04891 0.88219 0.0
C3620 C 0.85379 0.01296 0.87987 0.0
C3621 C 0.8318 0.05912 0.8697 0.0
C3622 C 0.86741 0.0675 0.8726 0.0
C3623 C 0.87533 0.08628 0.89057 0.0
C3624 C 0.89226 0.10301 0.88663 0.0
C3625 C 0.90165 0.09946 0.86425 0.0
C3626 C 0.8941 0.0795 0.84602 0.0
C3627 C 0.87651 0.06406 0.85006 0.0
H3628 H 0.11072 0.76242 0.58283 0.0
H3629 H 0.06862 0.83534 0.59794 0.0
H3630 H 0.08252 0.84243 0.63899 0.0
H3631 H 0.11145 0.72843 0.64344 0.0
H3632 H 0.13678 0.72016 0.64218 0.0
H3633 H 0.12277 0.72027 0.61476 0.0
H3634 H 0.14566 0.76184 0.59593 0.0
H3635 H 0.15975 0.76183 0.62323 0.0
H3636 H 0.14997 0.79843 0.61177 0.0
H3637 H 0.10291 0.84233 0.679 0.0
H3638 H 0.12709 0.83511 0.71183 0.0
H3639 H 0.1548 0.76238 0.66874 0.0
C3640 C 0.10433 0.77985 0.59474 0.0
C3641 C 0.08851 0.79826 0.58711 0.0
C3642 C 0.08062 0.82071 0.60342 0.0
C3643 C 0.08847 0.82495 0.62679 0.0
C3644 C 0.10418 0.80643 0.63369 0.0
C3645 C 0.11189 0.78421 0.61803 0.0
C3646 C 0.12888 0.76748 0.62926 0.0
C3647 C 0.12471 0.73199 0.63261 0.0
C3648 C 0.14714 0.77273 0.61415 0.0
C3649 C 0.12999 0.78431 0.65341 0.0
C3650 C 0.11559 0.80649 0.65599 0.0
C3651 C 0.1142 0.82492 0.67705 0.0
C3652 C 0.12797 0.82069 0.69566 0.0
C3653 C 0.14306 0.79849 0.69292 0.0
C3654 C 0.14371 0.77997 0.67152 0.0
H3655 H 0.08371 0.41975 0.6698 0.0
H3656 H 0.1234 0.40144 0.72866 0.0
H3657 H 0.14908 0.39085 0.69855 0.0
H3658 H 0.10415 0.36224 0.62509 0.0
H3659 H 0.09978 0.38904 0.60024 0.0
H3660 H 0.08407 0.38911 0.62617 0.0
H3661 H 0.09004 0.44911 0.63189 0.0
H3662 H 0.10579 0.44923 0.60615 0.0
H3663 H 0.11427 0.46326 0.63506 0.0
H3664 H 0.17151 0.3916 0.66192 0.0
H3665 H 0.18814 0.40252 0.62322 0.0
H3666 H 0.13364 0.42016 0.58828 0.0
C3667 C 0.09766 0.41258 0.67648 0.0
C3668 C 0.10146 0.41125 0.70174 0.0
C3669 C 0.11999 0.40212 0.70952 0.0
C3670 C 0.13469 0.39622 0.69247 0.0
C3671 C 0.13057 0.39914 0.66769 0.0
C3672 C 0.11237 0.40674 0.65978 0.0
C3673 C 0.11186 0.41158 0.63249 0.0
C3674 C 0.09921 0.38649 0.62028 0.0
C3675 C 0.1051 0.44529 0.62604 0.0
C3676 C 0.1328 0.40672 0.62616 0.0
C3677 C 0.14335 0.39915 0.64667 0.0
C3678 C 0.16327 0.39664 0.64574 0.0
C3679 C 0.17261 0.40275 0.62363 0.0
C3680 C 0.16213 0.41107 0.60255 0.0
C3681 C 0.14193 0.41243 0.6038 0.0
H3682 H 0.86556 0.19475 0.33444 0.0
H3683 H 0.81736 0.14413 0.3646 0.0
H3684 H 0.83574 0.13452 0.40241 0.0
H3685 H 0.90462 0.14714 0.36449 0.0
H3686 H 0.91902 0.18196 0.3692 0.0
H3687 H 0.90331 0.1796 0.34332 0.0
H3688 H 0.88711 0.23212 0.35633 0.0
H3689 H 0.90255 0.23445 0.38235 0.0
H3690 H 0.87691 0.23532 0.38625 0.0
H3691 H 0.85853 0.13643 0.4393 0.0
H3692 H 0.88299 0.14968 0.47045 0.0
H3693 H 0.91566 0.19979 0.41572 0.0
C3694 C 0.85929 0.18029 0.34857 0.0
C3695 C 0.84036 0.16897 0.34624 0.0
C3696 C 0.83213 0.15188 0.36569 0.0
C3697 C 0.84243 0.14654 0.38731 0.0
C3698 C 0.86097 0.15868 0.38934 0.0
C3699 C 0.86936 0.17498 0.37031 0.0
C3700 C 0.88862 0.18837 0.37774 0.0
C3701 C 0.90485 0.17336 0.3628 0.0
C3702 C 0.88879 0.22471 0.37554 0.0
C3703 C 0.88957 0.1779 0.40402 0.0
C3704 C 0.87366 0.16046 0.41045 0.0
C3705 C 0.87116 0.14973 0.43428 0.0
C3706 C 0.88514 0.1573 0.45191 0.0
C3707 C 0.90133 0.17578 0.44572 0.0
C3708 C 0.90353 0.1856 0.42127 0.0
H3709 H 0.83724 0.52725 0.41682 0.0
H3710 H 0.87137 0.58211 0.46734 0.0
H3711 H 0.89516 0.59182 0.43486 0.0
H3712 H 0.87604 0.4893 0.38756 0.0
H3713 H 0.86508 0.48979 0.35798 0.0
H3714 H 0.8503 0.48918 0.3847 0.0
H3715 H 0.83288 0.53989 0.37002 0.0
H3716 H 0.84768 0.54075 0.34328 0.0
H3717 H 0.84666 0.57474 0.36296 0.0
H3718 H 0.91622 0.59285 0.39699 0.0
H3719 H 0.93296 0.58404 0.3582 0.0
H3720 H 0.88487 0.52853 0.3324 0.0
C3721 C 0.84957 0.54168 0.42115 0.0
C3722 C 0.85226 0.55406 0.44485 0.0
C3723 C 0.86883 0.57245 0.44947 0.0
C3724 C 0.88243 0.57812 0.43105 0.0
C3725 C 0.87932 0.56534 0.40801 0.0
C3726 C 0.86326 0.54749 0.40306 0.0
C3727 C 0.86362 0.53511 0.3772 0.0
C3728 C 0.86378 0.49869 0.37685 0.0
C3729 C 0.8467 0.54842 0.3625 0.0
C3730 C 0.88253 0.54848 0.36831 0.0
C3731 C 0.89132 0.56599 0.38632 0.0
C3732 C 0.90934 0.57942 0.38276 0.0
C3733 C 0.91874 0.57428 0.36056 0.0
C3734 C 0.91024 0.55584 0.34193 0.0
C3735 C 0.89167 0.54333 0.34589 0.0
H3736 H 0.63431 0.28887 0.70292 0.0
H3737 H 0.68575 0.32798 0.67115 0.0
H3738 H 0.66819 0.33868 0.633 0.0
H3739 H 0.62055 0.24733 0.6522 0.0
H3740 H 0.59509 0.25301 0.65573 0.0
H3741 H 0.61049 0.25407 0.68185 0.0
H3742 H 0.59773 0.30987 0.69284 0.0
H3743 H 0.58212 0.30885 0.66682 0.0
H3744 H 0.5987 0.34111 0.6706 0.0
H3745 H 0.64579 0.33919 0.5964 0.0
H3746 H 0.62096 0.32857 0.56523 0.0
H3747 H 0.58463 0.28765 0.62078 0.0
C3748 C 0.64156 0.30102 0.68828 0.0
C3749 C 0.66119 0.30863 0.6902 0.0
C3750 C 0.67056 0.32282 0.67021 0.0
C3751 C 0.66071 0.32887 0.64844 0.0
C3752 C 0.64147 0.32029 0.64678 0.0
C3753 C 0.63196 0.30679 0.66625 0.0
C3754 C 0.61196 0.29653 0.65899 0.0
C3755 C 0.60939 0.26061 0.66239 0.0
C3756 C 0.59673 0.31521 0.67315 0.0
C3757 C 0.61187 0.30557 0.63235 0.0
C3758 C 0.62887 0.31966 0.62564 0.0
C3759 C 0.63232 0.32852 0.60158 0.0
C3760 C 0.61812 0.32245 0.58395 0.0
C3761 C 0.60078 0.30728 0.59039 0.0
C3762 C 0.59766 0.29933 0.61507 0.0
H3763 H 0.63048 0.94723 0.58348 0.0
H3764 H 0.68329 0.91451 0.61626 0.0
H3765 H 0.66606 0.90305 0.65444 0.0
H3766 H 0.61468 0.98858 0.6335 0.0
H3767 H 0.58956 0.98001 0.62986 0.0
H3768 H 0.60509 0.97998 0.60389 0.0
H3769 H 0.59479 0.92262 0.5937 0.0
H3770 H 0.57908 0.9226 0.61962 0.0
H3771 H 0.59702 0.89214 0.61642 0.0
H3772 H 0.64371 0.90141 0.69089 0.0
H3773 H 0.6185 0.91085 0.72182 0.0
H3774 H 0.58063 0.94548 0.66531 0.0
C3775 C 0.63816 0.93633 0.59838 0.0
C3776 C 0.65807 0.93078 0.59675 0.0
C3777 C 0.66792 0.91813 0.61703 0.0
C3778 C 0.65826 0.91164 0.6388 0.0
C3779 C 0.6387 0.91818 0.64018 0.0
C3780 C 0.62873 0.93012 0.62043 0.0
C3781 C 0.6083 0.93836 0.6274 0.0
C3782 C 0.60418 0.97383 0.62343 0.0
C3783 C 0.59395 0.91769 0.61346 0.0
C3784 C 0.60852 0.93002 0.65417 0.0
C3785 C 0.62605 0.91799 0.66122 0.0
C3786 C 0.62982 0.9104 0.68546 0.0
C3787 C 0.61541 0.91575 0.70295 0.0
C3788 C 0.59754 0.92892 0.69613 0.0
C3789 C 0.59409 0.93539 0.67128 0.0
H3790 H 0.4179 0.69665 0.41216 0.0
H3791 H 0.38165 0.65462 0.46731 0.0
H3792 H 0.35773 0.64141 0.43556 0.0
H3793 H 0.38165 0.73394 0.38003 0.0
H3794 H 0.3923 0.7279 0.35063 0.0
H3795 H 0.40727 0.72996 0.37709 0.0
H3796 H 0.42181 0.67517 0.36661 0.0
H3797 H 0.40675 0.67287 0.34011 0.0
H3798 H 0.40618 0.6417 0.36243 0.0
H3799 H 0.33609 0.63913 0.39814 0.0
H3800 H 0.31881 0.64873 0.35962 0.0
H3801 H 0.3696 0.69161 0.3291 0.0
C3802 C 0.40511 0.68415 0.41771 0.0
C3803 C 0.40175 0.67665 0.44244 0.0
C3804 C 0.38469 0.66045 0.4486 0.0
C3805 C 0.37102 0.65286 0.43062 0.0
C3806 C 0.3747 0.6613 0.40651 0.0
C3807 C 0.39143 0.67648 0.4001 0.0
C3808 C 0.3915 0.68533 0.37342 0.0
C3809 C 0.39328 0.72141 0.37012 0.0
C3810 C 0.40751 0.66771 0.35984 0.0
C3811 C 0.37191 0.67361 0.36574 0.0
C3812 C 0.3625 0.65948 0.38502 0.0
C3813 C 0.34355 0.64941 0.38286 0.0
C3814 C 0.33387 0.65474 0.36085 0.0
C3815 C 0.34312 0.66974 0.3411 0.0
C3816 C 0.3625 0.6787 0.34348 0.0
H3817 H 0.32949 0.04573 0.41263 0.0
H3818 H 0.36644 0.08008 0.4701 0.0
H3819 H 0.39172 0.09112 0.43963 0.0
H3820 H 0.36435 0.00491 0.38064 0.0
H3821 H 0.35492 0.01399 0.35102 0.0
H3822 H 0.33915 0.0129 0.37676 0.0
H3823 H 0.32794 0.07011 0.36742 0.0
H3824 H 0.34373 0.07141 0.34159 0.0
H3825 H 0.34545 0.10124 0.36482 0.0
H3826 H 0.41429 0.0918 0.40335 0.0
H3827 H 0.43198 0.08241 0.36525 0.0
H3828 H 0.38004 0.04843 0.33121 0.0
C3829 C 0.34275 0.05613 0.41892 0.0
C3830 C 0.34589 0.06208 0.44395 0.0
C3831 C 0.36355 0.07556 0.45114 0.0
C3832 C 0.37801 0.08186 0.43389 0.0
C3833 C 0.37452 0.07492 0.40947 0.0
C3834 C 0.35722 0.06257 0.40202 0.0
C3835 C 0.35739 0.05507 0.37507 0.0
C3836 C 0.35374 0.01962 0.37062 0.0
C3837 C 0.34276 0.07569 0.36142 0.0
C3838 C 0.37774 0.06417 0.36847 0.0
C3839 C 0.38734 0.07587 0.38855 0.0
C3840 C 0.40676 0.08335 0.38748 0.0
C3841 C 0.41668 0.07804 0.3657 0.0
C3842 C 0.40728 0.06554 0.34504 0.0
C3843 C 0.38743 0.05918 0.34636 0.0
H3844 H 0.58615 0.757 0.11374 0.0
H3845 H 0.59987 0.84666 0.07973 0.0
H3846 H 0.62054 0.86021 0.11501 0.0
H3847 H 0.58431 0.78328 0.17527 0.0
H3848 H 0.59538 0.74789 0.1871 0.0
H3849 H 0.58148 0.74614 0.15964 0.0
H3850 H 0.61029 0.72179 0.13672 0.0
H3851 H 0.62418 0.72291 0.16417 0.0
H3852 H 0.63306 0.74186 0.13715 0.0
H3853 H 0.63989 0.86328 0.15545 0.0
H3854 H 0.65879 0.85247 0.19282 0.0
H3855 H 0.63249 0.76015 0.19838 0.0
C3856 C 0.59343 0.77962 0.11363 0.0
C3857 C 0.59123 0.80093 0.09399 0.0
C3858 C 0.60134 0.82994 0.09451 0.0
C3859 C 0.61298 0.8379 0.11459 0.0
C3860 C 0.6145 0.81644 0.13388 0.0
C3861 C 0.60518 0.78764 0.13321 0.0
C3862 C 0.6098 0.76767 0.15528 0.0
C3863 C 0.59166 0.76087 0.1702 0.0
C3864 C 0.61994 0.73675 0.14788 0.0
C3865 C 0.62322 0.78963 0.16869 0.0
C3866 C 0.62564 0.81788 0.15636 0.0
C3867 C 0.63792 0.84132 0.16524 0.0
C3868 C 0.64842 0.83522 0.18665 0.0
C3869 C 0.64665 0.80587 0.19882 0.0
C3870 C 0.63366 0.78316 0.18983 0.0
H3871 H 0.65211 0.47809 0.09674 0.0
H3872 H 0.65693 0.377 0.08556 0.0
H3873 H 0.6365 0.36775 0.12191 0.0
H3874 H 0.65423 0.47844 0.16029 0.0
H3875 H 0.63683 0.50962 0.16407 0.0
H3876 H 0.65104 0.50781 0.1369 0.0
H3877 H 0.6203 0.50692 0.11058 0.0
H3878 H 0.60597 0.50943 0.13764 0.0
H3879 H 0.60215 0.4776 0.11647 0.0
H3880 H 0.61715 0.37078 0.16249 0.0
H3881 H 0.59739 0.38559 0.19832 0.0
H3882 H 0.60468 0.48464 0.18033 0.0
C3883 C 0.64858 0.45398 0.10171 0.0
C3884 C 0.65596 0.42822 0.08834 0.0
C3885 C 0.65115 0.39703 0.0954 0.0
C3886 C 0.63973 0.39163 0.11615 0.0
C3887 C 0.63307 0.41772 0.12936 0.0
C3888 C 0.63704 0.44829 0.12197 0.0
C3889 C 0.62807 0.47251 0.13869 0.0
C3890 C 0.64347 0.4933 0.15069 0.0
C3891 C 0.61324 0.4928 0.12503 0.0
C3892 C 0.61856 0.45096 0.15698 0.0
C3893 C 0.6217 0.4194 0.15163 0.0
C3894 C 0.61453 0.39544 0.16662 0.0
C3895 C 0.60347 0.40401 0.18707 0.0
C3896 C 0.59951 0.43622 0.1921 0.0
C3897 C 0.60741 0.45978 0.17692 0.0
H3898 H 0.41427 0.21157 0.91559 0.0
H3899 H 0.38098 0.15589 0.96647 0.0
H3900 H 0.35913 0.14049 0.93291 0.0
H3901 H 0.37572 0.24278 0.88333 0.0
H3902 H 0.38776 0.24214 0.85444 0.0
H3903 H 0.40148 0.24549 0.88189 0.0
H3904 H 0.42126 0.19604 0.86964 0.0
H3905 H 0.40742 0.19234 0.8422 0.0
H3906 H 0.40909 0.15949 0.86296 0.0
H3907 H 0.3391 0.13598 0.89391 0.0
H3908 H 0.32244 0.14451 0.85479 0.0
H3909 H 0.36938 0.2027 0.82991 0.0
C3910 C 0.40255 0.19579 0.91985 0.0
C3911 C 0.39942 0.18495 0.94388 0.0
C3912 C 0.38378 0.16444 0.94831 0.0
C3913 C 0.37133 0.15553 0.92929 0.0
C3914 C 0.3748 0.16707 0.90589 0.0
C3915 C 0.39011 0.18675 0.90121 0.0
C3916 C 0.39018 0.19789 0.87506 0.0
C3917 C 0.38869 0.23421 0.87361 0.0
C3918 C 0.40805 0.18571 0.86168 0.0
C3919 C 0.37219 0.18212 0.86565 0.0
C3920 C 0.36361 0.16408 0.88359 0.0
C3921 C 0.34598 0.1494 0.87966 0.0
C3922 C 0.33669 0.15411 0.85729 0.0
C3923 C 0.34502 0.17312 0.83896 0.0
C3924 C 0.36316 0.18677 0.84311 0.0
H3925 H 0.37323 0.55319 0.95004 0.0
H3926 H 0.32092 0.59191 0.92006 0.0
H3927 H 0.3374 0.60171 0.88103 0.0
H3928 H 0.40794 0.60489 0.91509 0.0
H3929 H 0.42443 0.57235 0.91136 0.0
H3930 H 0.40963 0.57464 0.93807 0.0
H3931 H 0.39667 0.51842 0.92916 0.0
H3932 H 0.41121 0.51612 0.90235 0.0
H3933 H 0.38567 0.51044 0.90023 0.0
H3934 H 0.35849 0.59955 0.84322 0.0
H3935 H 0.38204 0.58595 0.81112 0.0
H3936 H 0.42028 0.54851 0.86619 0.0
C3937 C 0.36561 0.56528 0.93563 0.0
C3938 C 0.34606 0.57302 0.93827 0.0
C3939 C 0.33612 0.58693 0.91858 0.0
C3940 C 0.34535 0.59239 0.89631 0.0
C3941 C 0.36454 0.58361 0.89394 0.0
C3942 C 0.37462 0.57064 0.91322 0.0
C3943 C 0.39438 0.5599 0.90531 0.0
C3944 C 0.41002 0.5791 0.91823 0.0
C3945 C 0.39713 0.52411 0.90951 0.0
C3946 C 0.39361 0.56778 0.87851 0.0
C3947 C 0.37644 0.58183 0.87223 0.0
C3948 C 0.37213 0.58907 0.84806 0.0
C3949 C 0.3856 0.58132 0.8299 0.0
C3950 C 0.40306 0.56616 0.83599 0.0
C3951 C 0.40712 0.5601 0.86075 0.0
loop_
_geom_bond_atom_site_label_1
_geom_bond_atom_site_label_2
_geom_bond_distance
_geom_bond_site_symmetry_2
_ccdc_geom_bond_type
O0 Tb1 2.292 . S
O0 C3 1.255 . S
Tb1 O0 2.292 . S
Tb1 O17 2.326 . S
Tb1 O19 2.500 . S
Tb1 O20 2.473 . S
Tb1 O23 2.324 1_556 S
Eu2 O6 2.292 . S
Eu2 C7 2.852 . S
Eu2 O18 2.324 1_554 S
Eu2 O22 2.326 . S
Eu2 O24 2.500 . S
Eu2 O25 2.473 . S
C3 O0 1.255 . S
C3 O4 1.247 . S
O4 C3 1.247 . S
C5 O17 1.242 . S
C5 O18 1.258 . S
O6 Eu2 2.292 . S
O6 C8 1.255 . S
C7 Eu2 2.852 . S
C7 C11 1.503 . S
C7 O24 1.273 . S
C7 O25 1.257 . S
C8 O6 1.255 . S
C8 O9 1.247 . S
O9 C8 1.247 . S
C10 O22 1.242 . S
C10 O23 1.258 . S
C11 C7 1.503 . S
C11 C12 1.379 . S
C11 C16 1.392 . S
C12 C11 1.379 . S
C12 C13 1.404 . S
C12 H26 0.929 . S
C13 C12 1.404 . S
C13 C14 1.389 . S
C14 C13 1.389 . S
C14 C15 1.399 . S
C14 H27 0.931 . S
C15 C14 1.399 . S
C15 C16 1.390 . S
C16 C11 1.392 . S
C16 C15 1.390 . S
C16 H28 0.929 . S
O17 Tb1 2.326 . S
O17 C5 1.242 . S
O18 Eu2 2.324 1_556 S
O18 C5 1.258 . S
O19 Tb1 2.500 . S
O19 C21 1.273 . S
O20 Tb1 2.473 . S
O20 C21 1.257 . S
C21 O19 1.273 . S
C21 O20 1.257 . S
O22 Eu2 2.326 . S
O22 C10 1.242 . S
O23 Tb1 2.324 1_554 S
O23 C10 1.258 . S
O24 Eu2 2.500 . S
O24 C7 1.273 . S
O25 Eu2 2.473 . S
O25 C7 1.257 . S
H26 C12 0.929 . S
H27 C14 0.931 . S
H28 C16 0.929 . S
O29 Tb30 2.292 . S
O29 C32 1.255 . S
Tb30 O29 2.292 . S
Tb30 O46 2.326 . S
Tb30 O48 2.500 1_565 S
Tb30 O49 2.473 1_565 S
Tb30 O52 2.324 1_556 S
Eu31 O35 2.292 1_565 S
Eu31 C36 2.852 . S
Eu31 O47 2.324 1_554 S
Eu31 O51 2.326 . S
Eu31 O53 2.500 . S
Eu31 O54 2.473 . S
C32 O29 1.255 . S
C32 O33 1.247 . S
O33 C32 1.247 . S
C34 O46 1.242 . S
C34 O47 1.258 . S
O35 Eu31 2.292 1_545 S
O35 C37 1.255 . S
C36 Eu31 2.852 . S
C36 C40 1.503 . S
C36 O53 1.273 . S
C36 O54 1.257 . S
C37 O35 1.255 . S
C37 O38 1.247 . S
O38 C37 1.247 . S
C39 O51 1.242 . S
C39 O52 1.258 . S
C40 C36 1.503 . S
C40 C41 1.379 . S
C40 C45 1.392 . S
C41 C40 1.379 . S
C41 C42 1.404 . S
C41 H55 0.929 . S
C42 C41 1.404 . S
C42 C43 1.389 . S
C43 C42 1.389 . S
C43 C44 1.399 . S
C43 H56 0.931 . S
C44 C43 1.399 . S
C44 C45 1.390 . S
C45 C40 1.392 . S
C45 C44 1.390 . S
C45 H57 0.929 . S
O46 Tb30 2.326 . S
O46 C34 1.242 . S
O47 Eu31 2.324 1_556 S
O47 C34 1.258 . S
O48 Tb30 2.500 1_545 S
O48 C50 1.273 . S
O49 Tb30 2.473 1_545 S
O49 C50 1.257 . S
C50 O48 1.273 . S
C50 O49 1.257 . S
O51 Eu31 2.326 . S
O51 C39 1.242 . S
O52 Tb30 2.324 1_554 S
O52 C39 1.258 . S
O53 Eu31 2.500 . S
O53 C36 1.273 . S
O54 Eu31 2.473 . S
O54 C36 1.257 . S
H55 C41 0.929 . S
H56 C43 0.931 . S
H57 C45 0.929 . S
O58 Tb59 2.292 . S
O58 C61 1.255 . S
Tb59 O58 2.292 . S
Tb59 O75 2.326 . S
Tb59 O77 2.500 1_565 S
Tb59 O78 2.473 1_565 S
Tb59 O81 2.324 . S
Eu60 O64 2.292 1_565 S
Eu60 C65 2.852 . S
Eu60 O76 2.324 . S
Eu60 O80 2.326 . S
Eu60 O82 2.500 . S
Eu60 O83 2.473 . S
C61 O58 1.255 . S
C61 O62 1.247 . S
O62 C61 1.247 . S
C63 O75 1.242 . S
C63 O76 1.258 . S
O64 Eu60 2.292 1_545 S
O64 C66 1.255 . S
C65 Eu60 2.852 . S
C65 C69 1.503 . S
C65 O82 1.273 . S
C65 O83 1.257 . S
C66 O64 1.255 . S
C66 O67 1.247 . S
O67 C66 1.247 . S
C68 O80 1.242 . S
C68 O81 1.258 . S
C69 C65 1.503 . S
C69 C70 1.379 . S
C69 C74 1.392 . S
C70 C69 1.379 . S
C70 C71 1.404 . S
C70 H84 0.929 . S
C71 C70 1.404 . S
C71 C72 1.389 . S
C72 C71 1.389 . S
C72 C73 1.399 . S
C72 H85 0.931 . S
C73 C72 1.399 . S
C73 C74 1.390 . S
C74 C69 1.392 . S
C74 C73 1.390 . S
C74 H86 0.929 . S
O75 Tb59 2.326 . S
O75 C63 1.242 . S
O76 Eu60 2.324 . S
O76 C63 1.258 . S
O77 Tb59 2.500 1_545 S
O77 C79 1.273 . S
O78 Tb59 2.473 1_545 S
O78 C79 1.257 . S
C79 O77 1.273 . S
C79 O78 1.257 . S
O80 Eu60 2.326 . S
O80 C68 1.242 . S
O81 Tb59 2.324 . S
O81 C68 1.258 . S
O82 Eu60 2.500 . S
O82 C65 1.273 . S
O83 Eu60 2.473 . S
O83 C65 1.257 . S
H84 C70 0.929 . S
H85 C72 0.931 . S
H86 C74 0.929 . S
O87 Tb88 2.292 . S
O87 C90 1.255 . S
Tb88 O87 2.292 . S
Tb88 O104 2.326 . S
Tb88 O106 2.500 . S
Tb88 O107 2.473 . S
Tb88 O110 2.324 . S
Eu89 O93 2.292 . S
Eu89 C94 2.852 . S
Eu89 O105 2.324 . S
Eu89 O109 2.326 . S
Eu89 O111 2.500 . S
Eu89 O112 2.473 . S
C90 O87 1.255 . S
C90 O91 1.247 . S
O91 C90 1.247 . S
C92 O104 1.242 . S
C92 O105 1.258 . S
O93 Eu89 2.292 . S
O93 C95 1.255 . S
C94 Eu89 2.852 . S
C94 C98 1.503 . S
C94 O111 1.273 . S
C94 O112 1.257 . S
C95 O93 1.255 . S
C95 O96 1.247 . S
O96 C95 1.247 . S
C97 O109 1.242 . S
C97 O110 1.258 . S
C98 C94 1.503 . S
C98 C99 1.379 . S
C98 C103 1.392 . S
C99 C98 1.379 . S
C99 C100 1.404 . S
C99 H113 0.929 . S
C100 C99 1.404 . S
C100 C101 1.389 . S
C101 C100 1.389 . S
C101 C102 1.399 . S
C101 H114 0.931 . S
C102 C101 1.399 . S
C102 C103 1.390 . S
C103 C98 1.392 . S
C103 C102 1.390 . S
C103 H115 0.929 . S
O104 Tb88 2.326 . S
O104 C92 1.242 . S
O105 Eu89 2.324 . S
O105 C92 1.258 . S
O106 Tb88 2.500 . S
O106 C108 1.273 . S
O107 Tb88 2.473 . S
O107 C108 1.257 . S
C108 O106 1.273 . S
C108 O107 1.257 . S
O109 Eu89 2.326 . S
O109 C97 1.242 . S
O110 Tb88 2.324 . S
O110 C97 1.258 . S
O111 Eu89 2.500 . S
O111 C94 1.273 . S
O112 Eu89 2.473 . S
O112 C94 1.257 . S
H113 C99 0.929 . S
H114 C101 0.931 . S
H115 C103 0.929 . S
O116 Tb117 2.292 . S
O116 C119 1.255 . S
Tb117 O116 2.292 . S
Tb117 O133 2.326 . S
Tb117 O135 2.500 . S
Tb117 O136 2.473 . S
Tb117 O139 2.324 1_554 S
Eu118 O122 2.292 . S
Eu118 C123 2.852 . S
Eu118 O134 2.324 1_556 S
Eu118 O138 2.326 . S
Eu118 O140 2.500 . S
Eu118 O141 2.473 . S
C119 O116 1.255 . S
C119 O120 1.247 . S
O120 C119 1.247 . S
C121 O133 1.242 . S
C121 O134 1.258 . S
O122 Eu118 2.292 . S
O122 C124 1.255 . S
C123 Eu118 2.852 . S
C123 C127 1.503 . S
C123 O140 1.273 . S
C123 O141 1.257 . S
C124 O122 1.255 . S
C124 O125 1.247 . S
O125 C124 1.247 . S
C126 O138 1.242 . S
C126 O139 1.258 . S
C127 C123 1.503 . S
C127 C128 1.379 . S
C127 C132 1.392 . S
C128 C127 1.379 . S
C128 C129 1.404 . S
C128 H142 0.929 . S
C129 C128 1.404 . S
C129 C130 1.389 . S
C130 C129 1.389 . S
C130 C131 1.399 . S
C130 H143 0.931 . S
C131 C130 1.399 . S
C131 C132 1.390 . S
C132 C127 1.392 . S
C132 C131 1.390 . S
C132 H144 0.929 . S
O133 Tb117 2.326 . S
O133 C121 1.242 . S
O134 Eu118 2.324 1_554 S
O134 C121 1.258 . S
O135 Tb117 2.500 . S
O135 C137 1.273 . S
O136 Tb117 2.473 . S
O136 C137 1.257 . S
C137 O135 1.273 . S
C137 O136 1.257 . S
O138 Eu118 2.326 . S
O138 C126 1.242 . S
O139 Tb117 2.324 1_556 S
O139 C126 1.258 . S
O140 Eu118 2.500 . S
O140 C123 1.273 . S
O141 Eu118 2.473 . S
O141 C123 1.257 . S
H142 C128 0.929 . S
H143 C130 0.931 . S
H144 C132 0.929 . S
O145 Tb146 2.292 . S
O145 C148 1.255 . S
Tb146 O145 2.292 . S
Tb146 O162 2.326 . S
Tb146 O164 2.500 1_545 S
Tb146 O165 2.473 1_545 S
Tb146 O168 2.324 1_554 S
Eu147 O151 2.292 1_545 S
Eu147 C152 2.852 . S
Eu147 O163 2.324 1_556 S
Eu147 O167 2.326 . S
Eu147 O169 2.500 . S
Eu147 O170 2.473 . S
C148 O145 1.255 . S
C148 O149 1.247 . S
O149 C148 1.247 . S
C150 O162 1.242 . S
C150 O163 1.258 . S
O151 Eu147 2.292 1_565 S
O151 C153 1.255 . S
C152 Eu147 2.852 . S
C152 C156 1.503 . S
C152 O169 1.273 . S
C152 O170 1.257 . S
C153 O151 1.255 . S
C153 O154 1.247 . S
O154 C153 1.247 . S
C155 O167 1.242 . S
C155 O168 1.258 . S
C156 C152 1.503 . S
C156 C157 1.379 . S
C156 C161 1.392 . S
C157 C156 1.379 . S
C157 C158 1.404 . S
C157 H171 0.929 . S
C158 C157 1.404 . S
C158 C159 1.389 . S
C159 C158 1.389 . S
C159 C160 1.399 . S
C159 H172 0.931 . S
C160 C159 1.399 . S
C160 C161 1.390 . S
C161 C156 1.392 . S
C161 C160 1.390 . S
C161 H173 0.929 . S
O162 Tb146 2.326 . S
O162 C150 1.242 . S
O163 Eu147 2.324 1_554 S
O163 C150 1.258 . S
O164 Tb146 2.500 1_565 S
O164 C166 1.273 . S
O165 Tb146 2.473 1_565 S
O165 C166 1.257 . S
C166 O164 1.273 . S
C166 O165 1.257 . S
O167 Eu147 2.326 . S
O167 C155 1.242 . S
O168 Tb146 2.324 1_556 S
O168 C155 1.258 . S
O169 Eu147 2.500 . S
O169 C152 1.273 . S
O170 Eu147 2.473 . S
O170 C152 1.257 . S
H171 C157 0.929 . S
H172 C159 0.931 . S
H173 C161 0.929 . S
O174 Tb175 2.292 . S
O174 C177 1.255 . S
Tb175 O174 2.292 . S
Tb175 O191 2.326 . S
Tb175 O193 2.500 1_545 S
Tb175 O194 2.473 1_545 S
Tb175 O197 2.324 . S
Eu176 O180 2.292 1_545 S
Eu176 C181 2.852 . S
Eu176 O192 2.324 . S
Eu176 O196 2.326 . S
Eu176 O198 2.500 . S
Eu176 O199 2.473 . S
C177 O174 1.255 . S
C177 O178 1.247 . S
O178 C177 1.247 . S
C179 O191 1.242 . S
C179 O192 1.258 . S
O180 Eu176 2.292 1_565 S
O180 C182 1.255 . S
C181 Eu176 2.852 . S
C181 C185 1.503 . S
C181 O198 1.273 . S
C181 O199 1.257 . S
C182 O180 1.255 . S
C182 O183 1.247 . S
O183 C182 1.247 . S
C184 O196 1.242 . S
C184 O197 1.258 . S
C185 C181 1.503 . S
C185 C186 1.379 . S
C185 C190 1.392 . S
C186 C185 1.379 . S
C186 C187 1.404 . S
C186 H200 0.929 . S
C187 C186 1.404 . S
C187 C188 1.389 . S
C188 C187 1.389 . S
C188 C189 1.399 . S
C188 H201 0.931 . S
C189 C188 1.399 . S
C189 C190 1.390 . S
C190 C185 1.392 . S
C190 C189 1.390 . S
C190 H202 0.929 . S
O191 Tb175 2.326 . S
O191 C179 1.242 . S
O192 Eu176 2.324 . S
O192 C179 1.258 . S
O193 Tb175 2.500 1_565 S
O193 C195 1.273 . S
O194 Tb175 2.473 1_565 S
O194 C195 1.257 . S
C195 O193 1.273 . S
C195 O194 1.257 . S
O196 Eu176 2.326 . S
O196 C184 1.242 . S
O197 Tb175 2.324 . S
O197 C184 1.258 . S
O198 Eu176 2.500 . S
O198 C181 1.273 . S
O199 Eu176 2.473 . S
O199 C181 1.257 . S
H200 C186 0.929 . S
H201 C188 0.931 . S
H202 C190 0.929 . S
O203 Tb204 2.292 . S
O203 C206 1.255 . S
Tb204 O203 2.292 . S
Tb204 O220 2.326 . S
Tb204 O222 2.500 . S
Tb204 O223 2.473 . S
Tb204 O226 2.324 . S
Eu205 O209 2.292 . S
Eu205 C210 2.852 . S
Eu205 O221 2.324 . S
Eu205 O225 2.326 . S
Eu205 O227 2.500 . S
Eu205 O228 2.473 . S
C206 O203 1.255 . S
C206 O207 1.247 . S
O207 C206 1.247 . S
C208 O220 1.242 . S
C208 O221 1.258 . S
O209 Eu205 2.292 . S
O209 C211 1.255 . S
C210 Eu205 2.852 . S
C210 C214 1.503 . S
C210 O227 1.273 . S
C210 O228 1.257 . S
C211 O209 1.255 . S
C211 O212 1.247 . S
O212 C211 1.247 . S
C213 O225 1.242 . S
C213 O226 1.258 . S
C214 C210 1.503 . S
C214 C215 1.379 . S
C214 C219 1.392 . S
C215 C214 1.379 . S
C215 C216 1.404 . S
C215 H229 0.929 . S
C216 C215 1.404 . S
C216 C217 1.389 . S
C217 C216 1.389 . S
C217 C218 1.399 . S
C217 H230 0.931 . S
C218 C217 1.399 . S
C218 C219 1.390 . S
C219 C214 1.392 . S
C219 C218 1.390 . S
C219 H231 0.929 . S
O220 Tb204 2.326 . S
O220 C208 1.242 . S
O221 Eu205 2.324 . S
O221 C208 1.258 . S
O222 Tb204 2.500 . S
O222 C224 1.273 . S
O223 Tb204 2.473 . S
O223 C224 1.257 . S
C224 O222 1.273 . S
C224 O223 1.257 . S
O225 Eu205 2.326 . S
O225 C213 1.242 . S
O226 Tb204 2.324 . S
O226 C213 1.258 . S
O227 Eu205 2.500 . S
O227 C210 1.273 . S
O228 Eu205 2.473 . S
O228 C210 1.257 . S
H229 C215 0.929 . S
H230 C217 0.931 . S
H231 C219 0.929 . S
O232 Tb233 2.292 . S
O232 C235 1.255 . S
Tb233 O232 2.292 . S
Tb233 O249 2.326 . S
Tb233 O251 2.500 . S
Tb233 O252 2.473 . S
Tb233 O255 2.324 . S
Eu234 O238 2.292 . S
Eu234 C239 2.852 . S
Eu234 O250 2.324 . S
Eu234 O254 2.326 . S
Eu234 O256 2.500 . S
Eu234 O257 2.473 . S
C235 O232 1.255 . S
C235 O236 1.247 . S
O236 C235 1.247 . S
C237 O249 1.242 . S
C237 O250 1.258 . S
O238 Eu234 2.292 . S
O238 C240 1.255 . S
C239 Eu234 2.852 . S
C239 C243 1.503 . S
C239 O256 1.273 . S
C239 O257 1.257 . S
C240 O238 1.255 . S
C240 O241 1.247 . S
O241 C240 1.247 . S
C242 O254 1.242 . S
C242 O255 1.258 . S
C243 C239 1.503 . S
C243 C244 1.379 . S
C243 C248 1.392 . S
C244 C243 1.379 . S
C244 C245 1.404 . S
C244 H258 0.929 . S
C245 C244 1.404 . S
C245 C246 1.389 . S
C246 C245 1.389 . S
C246 C247 1.399 . S
C246 H259 0.931 . S
C247 C246 1.399 . S
C247 C248 1.390 . S
C248 C243 1.392 . S
C248 C247 1.390 . S
C248 H260 0.929 . S
O249 Tb233 2.326 . S
O249 C237 1.242 . S
O250 Eu234 2.324 . S
O250 C237 1.258 . S
O251 Tb233 2.500 . S
O251 C253 1.273 . S
O252 Tb233 2.473 . S
O252 C253 1.257 . S
C253 O251 1.273 . S
C253 O252 1.257 . S
O254 Eu234 2.326 . S
O254 C242 1.242 . S
O255 Tb233 2.324 . S
O255 C242 1.258 . S
O256 Eu234 2.500 . S
O256 C239 1.273 . S
O257 Eu234 2.473 . S
O257 C239 1.257 . S
H258 C244 0.929 . S
H259 C246 0.931 . S
H260 C248 0.929 . S
O261 Tb262 2.292 . S
O261 C264 1.255 . S
Tb262 O261 2.292 . S
Tb262 O278 2.326 . S
Tb262 O280 2.500 . S
Tb262 O281 2.473 . S
Tb262 O284 2.324 . S
Eu263 O267 2.292 . S
Eu263 C268 2.852 . S
Eu263 O279 2.324 . S
Eu263 O283 2.326 . S
Eu263 O285 2.500 . S
Eu263 O286 2.473 . S
C264 O261 1.255 . S
C264 O265 1.247 . S
O265 C264 1.247 . S
C266 O278 1.242 . S
C266 O279 1.258 . S
O267 Eu263 2.292 . S
O267 C269 1.255 . S
C268 Eu263 2.852 . S
C268 C272 1.503 . S
C268 O285 1.273 . S
C268 O286 1.257 . S
C269 O267 1.255 . S
C269 O270 1.247 . S
O270 C269 1.247 . S
C271 O283 1.242 . S
C271 O284 1.258 . S
C272 C268 1.503 . S
C272 C273 1.379 . S
C272 C277 1.392 . S
C273 C272 1.379 . S
C273 C274 1.404 . S
C273 H287 0.929 . S
C274 C273 1.404 . S
C274 C275 1.389 . S
C275 C274 1.389 . S
C275 C276 1.399 . S
C275 H288 0.931 . S
C276 C275 1.399 . S
C276 C277 1.390 . S
C277 C272 1.392 . S
C277 C276 1.390 . S
C277 H289 0.929 . S
O278 Tb262 2.326 . S
O278 C266 1.242 . S
O279 Eu263 2.324 . S
O279 C266 1.258 . S
O280 Tb262 2.500 . S
O280 C282 1.273 . S
O281 Tb262 2.473 . S
O281 C282 1.257 . S
C282 O280 1.273 . S
C282 O281 1.257 . S
O283 Eu263 2.326 . S
O283 C271 1.242 . S
O284 Tb262 2.324 . S
O284 C271 1.258 . S
O285 Eu263 2.500 . S
O285 C268 1.273 . S
O286 Eu263 2.473 . S
O286 C268 1.257 . S
H287 C273 0.929 . S
H288 C275 0.931 . S
H289 C277 0.929 . S
O290 Tb291 2.292 . S
O290 C293 1.255 . S
Tb291 O290 2.292 . S
Tb291 O307 2.326 . S
Tb291 O309 2.500 . S
Tb291 O310 2.473 . S
Tb291 O313 2.324 . S
Eu292 O296 2.292 . S
Eu292 C297 2.852 . S
Eu292 O308 2.324 . S
Eu292 O312 2.326 . S
Eu292 O314 2.500 . S
Eu292 O315 2.473 . S
C293 O290 1.255 . S
C293 O294 1.247 . S
O294 C293 1.247 . S
C295 O307 1.242 . S
C295 O308 1.258 . S
O296 Eu292 2.292 . S
O296 C298 1.255 . S
C297 Eu292 2.852 . S
C297 C301 1.503 . S
C297 O314 1.273 . S
C297 O315 1.257 . S
C298 O296 1.255 . S
C298 O299 1.247 . S
O299 C298 1.247 . S
C300 O312 1.242 . S
C300 O313 1.258 . S
C301 C297 1.503 . S
C301 C302 1.379 . S
C301 C306 1.392 . S
C302 C301 1.379 . S
C302 C303 1.404 . S
C302 H316 0.929 . S
C303 C302 1.404 . S
C303 C304 1.389 . S
C304 C303 1.389 . S
C304 C305 1.399 . S
C304 H317 0.931 . S
C305 C304 1.399 . S
C305 C306 1.390 . S
C306 C301 1.392 . S
C306 C305 1.390 . S
C306 H318 0.929 . S
O307 Tb291 2.326 . S
O307 C295 1.242 . S
O308 Eu292 2.324 . S
O308 C295 1.258 . S
O309 Tb291 2.500 . S
O309 C311 1.273 . S
O310 Tb291 2.473 . S
O310 C311 1.257 . S
C311 O309 1.273 . S
C311 O310 1.257 . S
O312 Eu292 2.326 . S
O312 C300 1.242 . S
O313 Tb291 2.324 . S
O313 C300 1.258 . S
O314 Eu292 2.500 . S
O314 C297 1.273 . S
O315 Eu292 2.473 . S
O315 C297 1.257 . S
H316 C302 0.929 . S
H317 C304 0.931 . S
H318 C306 0.929 . S
O319 Tb320 2.292 . S
O319 C322 1.255 . S
Tb320 O319 2.292 . S
Tb320 O336 2.326 . S
Tb320 O338 2.500 . S
Tb320 O339 2.473 . S
Tb320 O342 2.324 . S
Eu321 O325 2.292 . S
Eu321 C326 2.852 . S
Eu321 O337 2.324 . S
Eu321 O341 2.326 . S
Eu321 O343 2.500 . S
Eu321 O344 2.473 . S
C322 O319 1.255 . S
C322 O323 1.247 . S
O323 C322 1.247 . S
C324 O336 1.242 . S
C324 O337 1.258 . S
O325 Eu321 2.292 . S
O325 C327 1.255 . S
C326 Eu321 2.852 . S
C326 C330 1.503 . S
C326 O343 1.273 . S
C326 O344 1.257 . S
C327 O325 1.255 . S
C327 O328 1.247 . S
O328 C327 1.247 . S
C329 O341 1.242 . S
C329 O342 1.258 . S
C330 C326 1.503 . S
C330 C331 1.379 . S
C330 C335 1.392 . S
C331 C330 1.379 . S
C331 C332 1.404 . S
C331 H345 0.929 . S
C332 C331 1.404 . S
C332 C333 1.389 . S
C333 C332 1.389 . S
C333 C334 1.399 . S
C333 H346 0.931 . S
C334 C333 1.399 . S
C334 C335 1.390 . S
C335 C330 1.392 . S
C335 C334 1.390 . S
C335 H347 0.929 . S
O336 Tb320 2.326 . S
O336 C324 1.242 . S
O337 Eu321 2.324 . S
O337 C324 1.258 . S
O338 Tb320 2.500 . S
O338 C340 1.273 . S
O339 Tb320 2.473 . S
O339 C340 1.257 . S
C340 O338 1.273 . S
C340 O339 1.257 . S
O341 Eu321 2.326 . S
O341 C329 1.242 . S
O342 Tb320 2.324 . S
O342 C329 1.258 . S
O343 Eu321 2.500 . S
O343 C326 1.273 . S
O344 Eu321 2.473 . S
O344 C326 1.257 . S
H345 C331 0.929 . S
H346 C333 0.931 . S
H347 C335 0.929 . S
O348 Tb349 2.292 . S
O348 C351 1.255 . S
Tb349 O348 2.292 . S
Tb349 O365 2.326 . S
Tb349 O367 2.500 . S
Tb349 O368 2.473 . S
Tb349 O371 2.324 . S
Eu350 O354 2.292 . S
Eu350 C355 2.852 . S
Eu350 O366 2.324 . S
Eu350 O370 2.326 . S
Eu350 O372 2.500 . S
Eu350 O373 2.473 . S
C351 O348 1.255 . S
C351 O352 1.247 . S
O352 C351 1.247 . S
C353 O365 1.242 . S
C353 O366 1.258 . S
O354 Eu350 2.292 . S
O354 C356 1.255 . S
C355 Eu350 2.852 . S
C355 C359 1.503 . S
C355 O372 1.273 . S
C355 O373 1.257 . S
C356 O354 1.255 . S
C356 O357 1.247 . S
O357 C356 1.247 . S
C358 O370 1.242 . S
C358 O371 1.258 . S
C359 C355 1.503 . S
C359 C360 1.379 . S
C359 C364 1.392 . S
C360 C359 1.379 . S
C360 C361 1.404 . S
C360 H374 0.929 . S
C361 C360 1.404 . S
C361 C362 1.389 . S
C362 C361 1.389 . S
C362 C363 1.399 . S
C362 H375 0.931 . S
C363 C362 1.399 . S
C363 C364 1.390 . S
C364 C359 1.392 . S
C364 C363 1.390 . S
C364 H376 0.929 . S
O365 Tb349 2.326 . S
O365 C353 1.242 . S
O366 Eu350 2.324 . S
O366 C353 1.258 . S
O367 Tb349 2.500 . S
O367 C369 1.273 . S
O368 Tb349 2.473 . S
O368 C369 1.257 . S
C369 O367 1.273 . S
C369 O368 1.257 . S
O370 Eu350 2.326 . S
O370 C358 1.242 . S
O371 Tb349 2.324 . S
O371 C358 1.258 . S
O372 Eu350 2.500 . S
O372 C355 1.273 . S
O373 Eu350 2.473 . S
O373 C355 1.257 . S
H374 C360 0.929 . S
H375 C362 0.931 . S
H376 C364 0.929 . S
O377 Tb378 2.292 . S
O377 C380 1.255 . S
Tb378 O377 2.292 . S
Tb378 O394 2.326 . S
Tb378 O396 2.500 . S
Tb378 O397 2.473 . S
Tb378 O400 2.324 . S
Eu379 O383 2.292 . S
Eu379 C384 2.852 . S
Eu379 O395 2.324 . S
Eu379 O399 2.326 . S
Eu379 O401 2.500 . S
Eu379 O402 2.473 . S
C380 O377 1.255 . S
C380 O381 1.247 . S
O381 C380 1.247 . S
C382 O394 1.242 . S
C382 O395 1.258 . S
O383 Eu379 2.292 . S
O383 C385 1.255 . S
C384 Eu379 2.852 . S
C384 C388 1.503 . S
C384 O401 1.273 . S
C384 O402 1.257 . S
C385 O383 1.255 . S
C385 O386 1.247 . S
O386 C385 1.247 . S
C387 O399 1.242 . S
C387 O400 1.258 . S
C388 C384 1.503 . S
C388 C389 1.379 . S
C388 C393 1.392 . S
C389 C388 1.379 . S
C389 C390 1.404 . S
C389 H403 0.929 . S
C390 C389 1.404 . S
C390 C391 1.389 . S
C391 C390 1.389 . S
C391 C392 1.399 . S
C391 H404 0.931 . S
C392 C391 1.399 . S
C392 C393 1.390 . S
C393 C388 1.392 . S
C393 C392 1.390 . S
C393 H405 0.929 . S
O394 Tb378 2.326 . S
O394 C382 1.242 . S
O395 Eu379 2.324 . S
O395 C382 1.258 . S
O396 Tb378 2.500 . S
O396 C398 1.273 . S
O397 Tb378 2.473 . S
O397 C398 1.257 . S
C398 O396 1.273 . S
C398 O397 1.257 . S
O399 Eu379 2.326 . S
O399 C387 1.242 . S
O400 Tb378 2.324 . S
O400 C387 1.258 . S
O401 Eu379 2.500 . S
O401 C384 1.273 . S
O402 Eu379 2.473 . S
O402 C384 1.257 . S
H403 C389 0.929 . S
H404 C391 0.931 . S
H405 C393 0.929 . S
O406 Tb407 2.292 . S
O406 C409 1.255 . S
Tb407 O406 2.292 . S
Tb407 O423 2.326 . S
Tb407 O425 2.500 . S
Tb407 O426 2.473 . S
Tb407 O429 2.324 . S
Eu408 O412 2.292 . S
Eu408 C413 2.852 . S
Eu408 O424 2.324 . S
Eu408 O428 2.326 . S
Eu408 O430 2.500 . S
Eu408 O431 2.473 . S
C409 O406 1.255 . S
C409 O410 1.247 . S
O410 C409 1.247 . S
C411 O423 1.242 . S
C411 O424 1.258 . S
O412 Eu408 2.292 . S
O412 C414 1.255 . S
C413 Eu408 2.852 . S
C413 C417 1.503 . S
C413 O430 1.273 . S
C413 O431 1.257 . S
C414 O412 1.255 . S
C414 O415 1.247 . S
O415 C414 1.247 . S
C416 O428 1.242 . S
C416 O429 1.258 . S
C417 C413 1.503 . S
C417 C418 1.379 . S
C417 C422 1.392 . S
C418 C417 1.379 . S
C418 C419 1.404 . S
C418 H432 0.929 . S
C419 C418 1.404 . S
C419 C420 1.389 . S
C420 C419 1.389 . S
C420 C421 1.399 . S
C420 H433 0.931 . S
C421 C420 1.399 . S
C421 C422 1.390 . S
C422 C417 1.392 . S
C422 C421 1.390 . S
C422 H434 0.929 . S
O423 Tb407 2.326 . S
O423 C411 1.242 . S
O424 Eu408 2.324 . S
O424 C411 1.258 . S
O425 Tb407 2.500 . S
O425 C427 1.273 . S
O426 Tb407 2.473 . S
O426 C427 1.257 . S
C427 O425 1.273 . S
C427 O426 1.257 . S
O428 Eu408 2.326 . S
O428 C416 1.242 . S
O429 Tb407 2.324 . S
O429 C416 1.258 . S
O430 Eu408 2.500 . S
O430 C413 1.273 . S
O431 Eu408 2.473 . S
O431 C413 1.257 . S
H432 C418 0.929 . S
H433 C420 0.931 . S
H434 C422 0.929 . S
O435 Tb436 2.292 . S
O435 C438 1.255 . S
Tb436 O435 2.292 . S
Tb436 O452 2.326 . S
Tb436 O454 2.500 . S
Tb436 O455 2.473 . S
Tb436 O458 2.324 . S
Eu437 O441 2.292 . S
Eu437 C442 2.852 . S
Eu437 O453 2.324 . S
Eu437 O457 2.326 . S
Eu437 O459 2.500 . S
Eu437 O460 2.473 . S
C438 O435 1.255 . S
C438 O439 1.247 . S
O439 C438 1.247 . S
C440 O452 1.242 . S
C440 O453 1.258 . S
O441 Eu437 2.292 . S
O441 C443 1.255 . S
C442 Eu437 2.852 . S
C442 C446 1.503 . S
C442 O459 1.273 . S
C442 O460 1.257 . S
C443 O441 1.255 . S
C443 O444 1.247 . S
O444 C443 1.247 . S
C445 O457 1.242 . S
C445 O458 1.258 . S
C446 C442 1.503 . S
C446 C447 1.379 . S
C446 C451 1.392 . S
C447 C446 1.379 . S
C447 C448 1.404 . S
C447 H461 0.929 . S
C448 C447 1.404 . S
C448 C449 1.389 . S
C449 C448 1.389 . S
C449 C450 1.399 . S
C449 H462 0.931 . S
C450 C449 1.399 . S
C450 C451 1.390 . S
C451 C446 1.392 . S
C451 C450 1.390 . S
C451 H463 0.929 . S
O452 Tb436 2.326 . S
O452 C440 1.242 . S
O453 Eu437 2.324 . S
O453 C440 1.258 . S
O454 Tb436 2.500 . S
O454 C456 1.273 . S
O455 Tb436 2.473 . S
O455 C456 1.257 . S
C456 O454 1.273 . S
C456 O455 1.257 . S
O457 Eu437 2.326 . S
O457 C445 1.242 . S
O458 Tb436 2.324 . S
O458 C445 1.258 . S
O459 Eu437 2.500 . S
O459 C442 1.273 . S
O460 Eu437 2.473 . S
O460 C442 1.257 . S
H461 C447 0.929 . S
H462 C449 0.931 . S
H463 C451 0.929 . S
O464 Tb465 2.292 . S
O464 C467 1.255 . S
Tb465 O464 2.292 . S
Tb465 O481 2.326 . S
Tb465 O483 2.500 . S
Tb465 O484 2.473 . S
Tb465 O487 2.324 . S
Eu466 O470 2.292 . S
Eu466 C471 2.852 . S
Eu466 O482 2.324 . S
Eu466 O486 2.326 . S
Eu466 O488 2.500 . S
Eu466 O489 2.473 . S
C467 O464 1.255 . S
C467 O468 1.247 . S
O468 C467 1.247 . S
C469 O481 1.242 . S
C469 O482 1.258 . S
O470 Eu466 2.292 . S
O470 C472 1.255 . S
C471 Eu466 2.852 . S
C471 C475 1.503 . S
C471 O488 1.273 . S
C471 O489 1.257 . S
C472 O470 1.255 . S
C472 O473 1.247 . S
O473 C472 1.247 . S
C474 O486 1.242 . S
C474 O487 1.258 . S
C475 C471 1.503 . S
C475 C476 1.379 . S
C475 C480 1.392 . S
C476 C475 1.379 . S
C476 C477 1.404 . S
C476 H490 0.929 . S
C477 C476 1.404 . S
C477 C478 1.389 . S
C478 C477 1.389 . S
C478 C479 1.399 . S
C478 H491 0.931 . S
C479 C478 1.399 . S
C479 C480 1.390 . S
C480 C475 1.392 . S
C480 C479 1.390 . S
C480 H492 0.929 . S
O481 Tb465 2.326 . S
O481 C469 1.242 . S
O482 Eu466 2.324 . S
O482 C469 1.258 . S
O483 Tb465 2.500 . S
O483 C485 1.273 . S
O484 Tb465 2.473 . S
O484 C485 1.257 . S
C485 O483 1.273 . S
C485 O484 1.257 . S
O486 Eu466 2.326 . S
O486 C474 1.242 . S
O487 Tb465 2.324 . S
O487 C474 1.258 . S
O488 Eu466 2.500 . S
O488 C471 1.273 . S
O489 Eu466 2.473 . S
O489 C471 1.257 . S
H490 C476 0.929 . S
H491 C478 0.931 . S
H492 C480 0.929 . S
O493 Tb494 2.292 . S
O493 C496 1.255 . S
Tb494 O493 2.292 . S
Tb494 O510 2.326 . S
Tb494 O512 2.500 1_565 S
Tb494 O513 2.473 1_565 S
Tb494 O516 2.324 . S
Eu495 O499 2.292 1_565 S
Eu495 C500 2.852 . S
Eu495 O511 2.324 . S
Eu495 O515 2.326 . S
Eu495 O517 2.500 . S
Eu495 O518 2.473 . S
C496 O493 1.255 . S
C496 O497 1.247 . S
O497 C496 1.247 . S
C498 O510 1.242 . S
C498 O511 1.258 . S
O499 Eu495 2.292 1_545 S
O499 C501 1.255 . S
C500 Eu495 2.852 . S
C500 C504 1.503 . S
C500 O517 1.273 . S
C500 O518 1.257 . S
C501 O499 1.255 . S
C501 O502 1.247 . S
O502 C501 1.247 . S
C503 O515 1.242 . S
C503 O516 1.258 . S
C504 C500 1.503 . S
C504 C505 1.379 . S
C504 C509 1.392 . S
C505 C504 1.379 . S
C505 C506 1.404 . S
C505 H519 0.929 . S
C506 C505 1.404 . S
C506 C507 1.389 . S
C507 C506 1.389 . S
C507 C508 1.399 . S
C507 H520 0.931 . S
C508 C507 1.399 . S
C508 C509 1.390 . S
C509 C504 1.392 . S
C509 C508 1.390 . S
C509 H521 0.929 . S
O510 Tb494 2.326 . S
O510 C498 1.242 . S
O511 Eu495 2.324 . S
O511 C498 1.258 . S
O512 Tb494 2.500 1_545 S
O512 C514 1.273 . S
O513 Tb494 2.473 1_545 S
O513 C514 1.257 . S
C514 O512 1.273 . S
C514 O513 1.257 . S
O515 Eu495 2.326 . S
O515 C503 1.242 . S
O516 Tb494 2.324 . S
O516 C503 1.258 . S
O517 Eu495 2.500 . S
O517 C500 1.273 . S
O518 Eu495 2.473 . S
O518 C500 1.257 . S
H519 C505 0.929 . S
H520 C507 0.931 . S
H521 C509 0.929 . S
O522 Tb523 2.292 . S
O522 C525 1.255 . S
Tb523 O522 2.292 . S
Tb523 O539 2.326 . S
Tb523 O541 2.500 1_565 S
Tb523 O542 2.473 1_565 S
Tb523 O545 2.324 . S
Eu524 O528 2.292 1_565 S
Eu524 C529 2.852 . S
Eu524 O540 2.324 . S
Eu524 O544 2.326 . S
Eu524 O546 2.500 . S
Eu524 O547 2.473 . S
C525 O522 1.255 . S
C525 O526 1.247 . S
O526 C525 1.247 . S
C527 O539 1.242 . S
C527 O540 1.258 . S
O528 Eu524 2.292 1_545 S
O528 C530 1.255 . S
C529 Eu524 2.852 . S
C529 C533 1.503 . S
C529 O546 1.273 . S
C529 O547 1.257 . S
C530 O528 1.255 . S
C530 O531 1.247 . S
O531 C530 1.247 . S
C532 O544 1.242 . S
C532 O545 1.258 . S
C533 C529 1.503 . S
C533 C534 1.379 . S
C533 C538 1.392 . S
C534 C533 1.379 . S
C534 C535 1.404 . S
C534 H548 0.929 . S
C535 C534 1.404 . S
C535 C536 1.389 . S
C536 C535 1.389 . S
C536 C537 1.399 . S
C536 H549 0.931 . S
C537 C536 1.399 . S
C537 C538 1.390 . S
C538 C533 1.392 . S
C538 C537 1.390 . S
C538 H550 0.929 . S
O539 Tb523 2.326 . S
O539 C527 1.242 . S
O540 Eu524 2.324 . S
O540 C527 1.258 . S
O541 Tb523 2.500 1_545 S
O541 C543 1.273 . S
O542 Tb523 2.473 1_545 S
O542 C543 1.257 . S
C543 O541 1.273 . S
C543 O542 1.257 . S
O544 Eu524 2.326 . S
O544 C532 1.242 . S
O545 Tb523 2.324 . S
O545 C532 1.258 . S
O546 Eu524 2.500 . S
O546 C529 1.273 . S
O547 Eu524 2.473 . S
O547 C529 1.257 . S
H548 C534 0.929 . S
H549 C536 0.931 . S
H550 C538 0.929 . S
O551 Tb552 2.292 . S
O551 C554 1.255 . S
Tb552 O551 2.292 . S
Tb552 O568 2.326 . S
Tb552 O570 2.500 . S
Tb552 O571 2.473 . S
Tb552 O574 2.324 . S
Eu553 O557 2.292 . S
Eu553 C558 2.852 . S
Eu553 O569 2.324 . S
Eu553 O573 2.326 . S
Eu553 O575 2.500 . S
Eu553 O576 2.473 . S
C554 O551 1.255 . S
C554 O555 1.247 . S
O555 C554 1.247 . S
C556 O568 1.242 . S
C556 O569 1.258 . S
O557 Eu553 2.292 . S
O557 C559 1.255 . S
C558 Eu553 2.852 . S
C558 C562 1.503 . S
C558 O575 1.273 . S
C558 O576 1.257 . S
C559 O557 1.255 . S
C559 O560 1.247 . S
O560 C559 1.247 . S
C561 O573 1.242 . S
C561 O574 1.258 . S
C562 C558 1.503 . S
C562 C563 1.379 . S
C562 C567 1.392 . S
C563 C562 1.379 . S
C563 C564 1.404 . S
C563 H577 0.929 . S
C564 C563 1.404 . S
C564 C565 1.389 . S
C565 C564 1.389 . S
C565 C566 1.399 . S
C565 H578 0.931 . S
C566 C565 1.399 . S
C566 C567 1.390 . S
C567 C562 1.392 . S
C567 C566 1.390 . S
C567 H579 0.929 . S
O568 Tb552 2.326 . S
O568 C556 1.242 . S
O569 Eu553 2.324 . S
O569 C556 1.258 . S
O570 Tb552 2.500 . S
O570 C572 1.273 . S
O571 Tb552 2.473 . S
O571 C572 1.257 . S
C572 O570 1.273 . S
C572 O571 1.257 . S
O573 Eu553 2.326 . S
O573 C561 1.242 . S
O574 Tb552 2.324 . S
O574 C561 1.258 . S
O575 Eu553 2.500 . S
O575 C558 1.273 . S
O576 Eu553 2.473 . S
O576 C558 1.257 . S
H577 C563 0.929 . S
H578 C565 0.931 . S
H579 C567 0.929 . S
O580 Tb581 2.292 . S
O580 C583 1.255 . S
Tb581 O580 2.292 . S
Tb581 O597 2.326 . S
Tb581 O599 2.500 . S
Tb581 O600 2.473 . S
Tb581 O603 2.324 . S
Eu582 O586 2.292 . S
Eu582 C587 2.852 . S
Eu582 O598 2.324 . S
Eu582 O602 2.326 . S
Eu582 O604 2.500 . S
Eu582 O605 2.473 . S
C583 O580 1.255 . S
C583 O584 1.247 . S
O584 C583 1.247 . S
C585 O597 1.242 . S
C585 O598 1.258 . S
O586 Eu582 2.292 . S
O586 C588 1.255 . S
C587 Eu582 2.852 . S
C587 C591 1.503 . S
C587 O604 1.273 . S
C587 O605 1.257 . S
C588 O586 1.255 . S
C588 O589 1.247 . S
O589 C588 1.247 . S
C590 O602 1.242 . S
C590 O603 1.258 . S
C591 C587 1.503 . S
C591 C592 1.379 . S
C591 C596 1.392 . S
C592 C591 1.379 . S
C592 C593 1.404 . S
C592 H606 0.929 . S
C593 C592 1.404 . S
C593 C594 1.389 . S
C594 C593 1.389 . S
C594 C595 1.399 . S
C594 H607 0.931 . S
C595 C594 1.399 . S
C595 C596 1.390 . S
C596 C591 1.392 . S
C596 C595 1.390 . S
C596 H608 0.929 . S
O597 Tb581 2.326 . S
O597 C585 1.242 . S
O598 Eu582 2.324 . S
O598 C585 1.258 . S
O599 Tb581 2.500 . S
O599 C601 1.273 . S
O600 Tb581 2.473 . S
O600 C601 1.257 . S
C601 O599 1.273 . S
C601 O600 1.257 . S
O602 Eu582 2.326 . S
O602 C590 1.242 . S
O603 Tb581 2.324 . S
O603 C590 1.258 . S
O604 Eu582 2.500 . S
O604 C587 1.273 . S
O605 Eu582 2.473 . S
O605 C587 1.257 . S
H606 C592 0.929 . S
H607 C594 0.931 . S
H608 C596 0.929 . S
O609 Tb610 2.292 . S
O609 C612 1.255 . S
Tb610 O609 2.292 . S
Tb610 O626 2.326 . S
Tb610 O628 2.500 1_545 S
Tb610 O629 2.473 1_545 S
Tb610 O632 2.324 . S
Eu611 O615 2.292 1_545 S
Eu611 C616 2.852 . S
Eu611 O627 2.324 . S
Eu611 O631 2.326 . S
Eu611 O633 2.500 . S
Eu611 O634 2.473 . S
C612 O609 1.255 . S
C612 O613 1.247 . S
O613 C612 1.247 . S
C614 O626 1.242 . S
C614 O627 1.258 . S
O615 Eu611 2.292 1_565 S
O615 C617 1.255 . S
C616 Eu611 2.852 . S
C616 C620 1.503 . S
C616 O633 1.273 . S
C616 O634 1.257 . S
C617 O615 1.255 . S
C617 O618 1.247 . S
O618 C617 1.247 . S
C619 O631 1.242 . S
C619 O632 1.258 . S
C620 C616 1.503 . S
C620 C621 1.379 . S
C620 C625 1.392 . S
C621 C620 1.379 . S
C621 C622 1.404 . S
C621 H635 0.929 . S
C622 C621 1.404 . S
C622 C623 1.389 . S
C623 C622 1.389 . S
C623 C624 1.399 . S
C623 H636 0.931 . S
C624 C623 1.399 . S
C624 C625 1.390 . S
C625 C620 1.392 . S
C625 C624 1.390 . S
C625 H637 0.929 . S
O626 Tb610 2.326 . S
O626 C614 1.242 . S
O627 Eu611 2.324 . S
O627 C614 1.258 . S
O628 Tb610 2.500 1_565 S
O628 C630 1.273 . S
O629 Tb610 2.473 1_565 S
O629 C630 1.257 . S
C630 O628 1.273 . S
C630 O629 1.257 . S
O631 Eu611 2.326 . S
O631 C619 1.242 . S
O632 Tb610 2.324 . S
O632 C619 1.258 . S
O633 Eu611 2.500 . S
O633 C616 1.273 . S
O634 Eu611 2.473 . S
O634 C616 1.257 . S
H635 C621 0.929 . S
H636 C623 0.931 . S
H637 C625 0.929 . S
O638 Tb639 2.292 . S
O638 C641 1.255 . S
Tb639 O638 2.292 . S
Tb639 O655 2.326 . S
Tb639 O657 2.500 1_545 S
Tb639 O658 2.473 1_545 S
Tb639 O661 2.324 . S
Eu640 O644 2.292 1_545 S
Eu640 C645 2.852 . S
Eu640 O656 2.324 . S
Eu640 O660 2.326 . S
Eu640 O662 2.500 . S
Eu640 O663 2.473 . S
C641 O638 1.255 . S
C641 O642 1.247 . S
O642 C641 1.247 . S
C643 O655 1.242 . S
C643 O656 1.258 . S
O644 Eu640 2.292 1_565 S
O644 C646 1.255 . S
C645 Eu640 2.852 . S
C645 C649 1.503 . S
C645 O662 1.273 . S
C645 O663 1.257 . S
C646 O644 1.255 . S
C646 O647 1.247 . S
O647 C646 1.247 . S
C648 O660 1.242 . S
C648 O661 1.258 . S
C649 C645 1.503 . S
C649 C650 1.379 . S
C649 C654 1.392 . S
C650 C649 1.379 . S
C650 C651 1.404 . S
C650 H664 0.929 . S
C651 C650 1.404 . S
C651 C652 1.389 . S
C652 C651 1.389 . S
C652 C653 1.399 . S
C652 H665 0.931 . S
C653 C652 1.399 . S
C653 C654 1.390 . S
C654 C649 1.392 . S
C654 C653 1.390 . S
C654 H666 0.929 . S
O655 Tb639 2.326 . S
O655 C643 1.242 . S
O656 Eu640 2.324 . S
O656 C643 1.258 . S
O657 Tb639 2.500 1_565 S
O657 C659 1.273 . S
O658 Tb639 2.473 1_565 S
O658 C659 1.257 . S
C659 O657 1.273 . S
C659 O658 1.257 . S
O660 Eu640 2.326 . S
O660 C648 1.242 . S
O661 Tb639 2.324 . S
O661 C648 1.258 . S
O662 Eu640 2.500 . S
O662 C645 1.273 . S
O663 Eu640 2.473 . S
O663 C645 1.257 . S
H664 C650 0.929 . S
H665 C652 0.931 . S
H666 C654 0.929 . S
O667 Tb668 2.292 . S
O667 C670 1.255 . S
Tb668 O667 2.292 . S
Tb668 O684 2.326 . S
Tb668 O686 2.500 . S
Tb668 O687 2.473 . S
Tb668 O690 2.324 . S
Eu669 O673 2.292 . S
Eu669 C674 2.852 . S
Eu669 O685 2.324 . S
Eu669 O689 2.326 . S
Eu669 O691 2.500 . S
Eu669 O692 2.473 . S
C670 O667 1.255 . S
C670 O671 1.247 . S
O671 C670 1.247 . S
C672 O684 1.242 . S
C672 O685 1.258 . S
O673 Eu669 2.292 . S
O673 C675 1.255 . S
C674 Eu669 2.852 . S
C674 C678 1.503 . S
C674 O691 1.273 . S
C674 O692 1.257 . S
C675 O673 1.255 . S
C675 O676 1.247 . S
O676 C675 1.247 . S
C677 O689 1.242 . S
C677 O690 1.258 . S
C678 C674 1.503 . S
C678 C679 1.379 . S
C678 C683 1.392 . S
C679 C678 1.379 . S
C679 C680 1.404 . S
C679 H693 0.929 . S
C680 C679 1.404 . S
C680 C681 1.389 . S
C681 C680 1.389 . S
C681 C682 1.399 . S
C681 H694 0.931 . S
C682 C681 1.399 . S
C682 C683 1.390 . S
C683 C678 1.392 . S
C683 C682 1.390 . S
C683 H695 0.929 . S
O684 Tb668 2.326 . S
O684 C672 1.242 . S
O685 Eu669 2.324 . S
O685 C672 1.258 . S
O686 Tb668 2.500 . S
O686 C688 1.273 . S
O687 Tb668 2.473 . S
O687 C688 1.257 . S
C688 O686 1.273 . S
C688 O687 1.257 . S
O689 Eu669 2.326 . S
O689 C677 1.242 . S
O690 Tb668 2.324 . S
O690 C677 1.258 . S
O691 Eu669 2.500 . S
O691 C674 1.273 . S
O692 Eu669 2.473 . S
O692 C674 1.257 . S
H693 C679 0.929 . S
H694 C681 0.931 . S
H695 C683 0.929 . S
O696 Tb697 2.292 . S
O696 C699 1.255 . S
Tb697 O696 2.292 . S
Tb697 O713 2.326 . S
Tb697 O715 2.500 . S
Tb697 O716 2.473 . S
Tb697 O719 2.324 1_556 S
Eu698 O702 2.292 . S
Eu698 C703 2.852 . S
Eu698 O714 2.324 1_554 S
Eu698 O718 2.326 . S
Eu698 O720 2.500 . S
Eu698 O721 2.473 . S
C699 O696 1.255 . S
C699 O700 1.247 . S
O700 C699 1.247 . S
C701 O713 1.242 . S
C701 O714 1.258 . S
O702 Eu698 2.292 . S
O702 C704 1.255 . S
C703 Eu698 2.852 . S
C703 C707 1.503 . S
C703 O720 1.273 . S
C703 O721 1.257 . S
C704 O702 1.255 . S
C704 O705 1.247 . S
O705 C704 1.247 . S
C706 O718 1.242 . S
C706 O719 1.258 . S
C707 C703 1.503 . S
C707 C708 1.379 . S
C707 C712 1.392 . S
C708 C707 1.379 . S
C708 C709 1.404 . S
C708 H722 0.929 . S
C709 C708 1.404 . S
C709 C710 1.389 . S
C710 C709 1.389 . S
C710 C711 1.399 . S
C710 H723 0.931 . S
C711 C710 1.399 . S
C711 C712 1.390 . S
C712 C707 1.392 . S
C712 C711 1.390 . S
C712 H724 0.929 . S
O713 Tb697 2.326 . S
O713 C701 1.242 . S
O714 Eu698 2.324 1_556 S
O714 C701 1.258 . S
O715 Tb697 2.500 . S
O715 C717 1.273 . S
O716 Tb697 2.473 . S
O716 C717 1.257 . S
C717 O715 1.273 . S
C717 O716 1.257 . S
O718 Eu698 2.326 . S
O718 C706 1.242 . S
O719 Tb697 2.324 1_554 S
O719 C706 1.258 . S
O720 Eu698 2.500 . S
O720 C703 1.273 . S
O721 Eu698 2.473 . S
O721 C703 1.257 . S
H722 C708 0.929 . S
H723 C710 0.931 . S
H724 C712 0.929 . S
O725 Tb726 2.292 . S
O725 C728 1.255 . S
Tb726 O725 2.292 . S
Tb726 O742 2.326 . S
Tb726 O744 2.500 . S
Tb726 O745 2.473 . S
Tb726 O748 2.324 1_556 S
Eu727 O731 2.292 . S
Eu727 C732 2.852 . S
Eu727 O743 2.324 1_554 S
Eu727 O747 2.326 . S
Eu727 O749 2.500 . S
Eu727 O750 2.473 . S
C728 O725 1.255 . S
C728 O729 1.247 . S
O729 C728 1.247 . S
C730 O742 1.242 . S
C730 O743 1.258 . S
O731 Eu727 2.292 . S
O731 C733 1.255 . S
C732 Eu727 2.852 . S
C732 C736 1.503 . S
C732 O749 1.273 . S
C732 O750 1.257 . S
C733 O731 1.255 . S
C733 O734 1.247 . S
O734 C733 1.247 . S
C735 O747 1.242 . S
C735 O748 1.258 . S
C736 C732 1.503 . S
C736 C737 1.379 . S
C736 C741 1.392 . S
C737 C736 1.379 . S
C737 C738 1.404 . S
C737 H751 0.929 . S
C738 C737 1.404 . S
C738 C739 1.389 . S
C739 C738 1.389 . S
C739 C740 1.399 . S
C739 H752 0.931 . S
C740 C739 1.399 . S
C740 C741 1.390 . S
C741 C736 1.392 . S
C741 C740 1.390 . S
C741 H753 0.929 . S
O742 Tb726 2.326 . S
O742 C730 1.242 . S
O743 Eu727 2.324 1_556 S
O743 C730 1.258 . S
O744 Tb726 2.500 . S
O744 C746 1.273 . S
O745 Tb726 2.473 . S
O745 C746 1.257 . S
C746 O744 1.273 . S
C746 O745 1.257 . S
O747 Eu727 2.326 . S
O747 C735 1.242 . S
O748 Tb726 2.324 1_554 S
O748 C735 1.258 . S
O749 Eu727 2.500 . S
O749 C732 1.273 . S
O750 Eu727 2.473 . S
O750 C732 1.257 . S
H751 C737 0.929 . S
H752 C739 0.931 . S
H753 C741 0.929 . S
O754 Tb755 2.292 . S
O754 C757 1.255 . S
Tb755 O754 2.292 . S
Tb755 O771 2.326 . S
Tb755 O773 2.500 . S
Tb755 O774 2.473 . S
Tb755 O777 2.324 . S
Eu756 O760 2.292 . S
Eu756 C761 2.852 . S
Eu756 O772 2.324 . S
Eu756 O776 2.326 . S
Eu756 O778 2.500 . S
Eu756 O779 2.473 . S
C757 O754 1.255 . S
C757 O758 1.247 . S
O758 C757 1.247 . S
C759 O771 1.242 . S
C759 O772 1.258 . S
O760 Eu756 2.292 . S
O760 C762 1.255 . S
C761 Eu756 2.852 . S
C761 C765 1.503 . S
C761 O778 1.273 . S
C761 O779 1.257 . S
C762 O760 1.255 . S
C762 O763 1.247 . S
O763 C762 1.247 . S
C764 O776 1.242 . S
C764 O777 1.258 . S
C765 C761 1.503 . S
C765 C766 1.379 . S
C765 C770 1.392 . S
C766 C765 1.379 . S
C766 C767 1.404 . S
C766 H780 0.929 . S
C767 C766 1.404 . S
C767 C768 1.389 . S
C768 C767 1.389 . S
C768 C769 1.399 . S
C768 H781 0.931 . S
C769 C768 1.399 . S
C769 C770 1.390 . S
C770 C765 1.392 . S
C770 C769 1.390 . S
C770 H782 0.929 . S
O771 Tb755 2.326 . S
O771 C759 1.242 . S
O772 Eu756 2.324 . S
O772 C759 1.258 . S
O773 Tb755 2.500 . S
O773 C775 1.273 . S
O774 Tb755 2.473 . S
O774 C775 1.257 . S
C775 O773 1.273 . S
C775 O774 1.257 . S
O776 Eu756 2.326 . S
O776 C764 1.242 . S
O777 Tb755 2.324 . S
O777 C764 1.258 . S
O778 Eu756 2.500 . S
O778 C761 1.273 . S
O779 Eu756 2.473 . S
O779 C761 1.257 . S
H780 C766 0.929 . S
H781 C768 0.931 . S
H782 C770 0.929 . S
O783 Tb784 2.292 . S
O783 C786 1.255 . S
Tb784 O783 2.292 . S
Tb784 O800 2.326 . S
Tb784 O802 2.500 . S
Tb784 O803 2.473 . S
Tb784 O806 2.324 . S
Eu785 O789 2.292 . S
Eu785 C790 2.852 . S
Eu785 O801 2.324 . S
Eu785 O805 2.326 . S
Eu785 O807 2.500 . S
Eu785 O808 2.473 . S
C786 O783 1.255 . S
C786 O787 1.247 . S
O787 C786 1.247 . S
C788 O800 1.242 . S
C788 O801 1.258 . S
O789 Eu785 2.292 . S
O789 C791 1.255 . S
C790 Eu785 2.852 . S
C790 C794 1.503 . S
C790 O807 1.273 . S
C790 O808 1.257 . S
C791 O789 1.255 . S
C791 O792 1.247 . S
O792 C791 1.247 . S
C793 O805 1.242 . S
C793 O806 1.258 . S
C794 C790 1.503 . S
C794 C795 1.379 . S
C794 C799 1.392 . S
C795 C794 1.379 . S
C795 C796 1.404 . S
C795 H809 0.929 . S
C796 C795 1.404 . S
C796 C797 1.389 . S
C797 C796 1.389 . S
C797 C798 1.399 . S
C797 H810 0.931 . S
C798 C797 1.399 . S
C798 C799 1.390 . S
C799 C794 1.392 . S
C799 C798 1.390 . S
C799 H811 0.929 . S
O800 Tb784 2.326 . S
O800 C788 1.242 . S
O801 Eu785 2.324 . S
O801 C788 1.258 . S
O802 Tb784 2.500 . S
O802 C804 1.273 . S
O803 Tb784 2.473 . S
O803 C804 1.257 . S
C804 O802 1.273 . S
C804 O803 1.257 . S
O805 Eu785 2.326 . S
O805 C793 1.242 . S
O806 Tb784 2.324 . S
O806 C793 1.258 . S
O807 Eu785 2.500 . S
O807 C790 1.273 . S
O808 Eu785 2.473 . S
O808 C790 1.257 . S
H809 C795 0.929 . S
H810 C797 0.931 . S
H811 C799 0.929 . S
O812 Tb813 2.292 . S
O812 C815 1.255 . S
Tb813 O812 2.292 . S
Tb813 O829 2.326 . S
Tb813 O831 2.500 . S
Tb813 O832 2.473 . S
Tb813 O835 2.324 1_554 S
Eu814 O818 2.292 . S
Eu814 C819 2.852 . S
Eu814 O830 2.324 1_556 S
Eu814 O834 2.326 . S
Eu814 O836 2.500 . S
Eu814 O837 2.473 . S
C815 O812 1.255 . S
C815 O816 1.247 . S
O816 C815 1.247 . S
C817 O829 1.242 . S
C817 O830 1.258 . S
O818 Eu814 2.292 . S
O818 C820 1.255 . S
C819 Eu814 2.852 . S
C819 C823 1.503 . S
C819 O836 1.273 . S
C819 O837 1.257 . S
C820 O818 1.255 . S
C820 O821 1.247 . S
O821 C820 1.247 . S
C822 O834 1.242 . S
C822 O835 1.258 . S
C823 C819 1.503 . S
C823 C824 1.379 . S
C823 C828 1.392 . S
C824 C823 1.379 . S
C824 C825 1.404 . S
C824 H838 0.929 . S
C825 C824 1.404 . S
C825 C826 1.389 . S
C826 C825 1.389 . S
C826 C827 1.399 . S
C826 H839 0.931 . S
C827 C826 1.399 . S
C827 C828 1.390 . S
C828 C823 1.392 . S
C828 C827 1.390 . S
C828 H840 0.929 . S
O829 Tb813 2.326 . S
O829 C817 1.242 . S
O830 Eu814 2.324 1_554 S
O830 C817 1.258 . S
O831 Tb813 2.500 . S
O831 C833 1.273 . S
O832 Tb813 2.473 . S
O832 C833 1.257 . S
C833 O831 1.273 . S
C833 O832 1.257 . S
O834 Eu814 2.326 . S
O834 C822 1.242 . S
O835 Tb813 2.324 1_556 S
O835 C822 1.258 . S
O836 Eu814 2.500 . S
O836 C819 1.273 . S
O837 Eu814 2.473 . S
O837 C819 1.257 . S
H838 C824 0.929 . S
H839 C826 0.931 . S
H840 C828 0.929 . S
O841 Tb842 2.292 . S
O841 C844 1.255 . S
Tb842 O841 2.292 . S
Tb842 O858 2.326 . S
Tb842 O860 2.500 . S
Tb842 O861 2.473 . S
Tb842 O864 2.324 1_554 S
Eu843 O847 2.292 . S
Eu843 C848 2.852 . S
Eu843 O859 2.324 1_556 S
Eu843 O863 2.326 . S
Eu843 O865 2.500 . S
Eu843 O866 2.473 . S
C844 O841 1.255 . S
C844 O845 1.247 . S
O845 C844 1.247 . S
C846 O858 1.242 . S
C846 O859 1.258 . S
O847 Eu843 2.292 . S
O847 C849 1.255 . S
C848 Eu843 2.852 . S
C848 C852 1.503 . S
C848 O865 1.273 . S
C848 O866 1.257 . S
C849 O847 1.255 . S
C849 O850 1.247 . S
O850 C849 1.247 . S
C851 O863 1.242 . S
C851 O864 1.258 . S
C852 C848 1.503 . S
C852 C853 1.379 . S
C852 C857 1.392 . S
C853 C852 1.379 . S
C853 C854 1.404 . S
C853 H867 0.929 . S
C854 C853 1.404 . S
C854 C855 1.389 . S
C855 C854 1.389 . S
C855 C856 1.399 . S
C855 H868 0.931 . S
C856 C855 1.399 . S
C856 C857 1.390 . S
C857 C852 1.392 . S
C857 C856 1.390 . S
C857 H869 0.929 . S
O858 Tb842 2.326 . S
O858 C846 1.242 . S
O859 Eu843 2.324 1_554 S
O859 C846 1.258 . S
O860 Tb842 2.500 . S
O860 C862 1.273 . S
O861 Tb842 2.473 . S
O861 C862 1.257 . S
C862 O860 1.273 . S
C862 O861 1.257 . S
O863 Eu843 2.326 . S
O863 C851 1.242 . S
O864 Tb842 2.324 1_556 S
O864 C851 1.258 . S
O865 Eu843 2.500 . S
O865 C848 1.273 . S
O866 Eu843 2.473 . S
O866 C848 1.257 . S
H867 C853 0.929 . S
H868 C855 0.931 . S
H869 C857 0.929 . S
O870 Tb871 2.292 . S
O870 C873 1.255 . S
Tb871 O870 2.292 . S
Tb871 O887 2.326 . S
Tb871 O889 2.500 . S
Tb871 O890 2.473 . S
Tb871 O893 2.324 . S
Eu872 O876 2.292 . S
Eu872 C877 2.852 . S
Eu872 O888 2.324 . S
Eu872 O892 2.326 . S
Eu872 O894 2.500 . S
Eu872 O895 2.473 . S
C873 O870 1.255 . S
C873 O874 1.247 . S
O874 C873 1.247 . S
C875 O887 1.242 . S
C875 O888 1.258 . S
O876 Eu872 2.292 . S
O876 C878 1.255 . S
C877 Eu872 2.852 . S
C877 C881 1.503 . S
C877 O894 1.273 . S
C877 O895 1.257 . S
C878 O876 1.255 . S
C878 O879 1.247 . S
O879 C878 1.247 . S
C880 O892 1.242 . S
C880 O893 1.258 . S
C881 C877 1.503 . S
C881 C882 1.379 . S
C881 C886 1.392 . S
C882 C881 1.379 . S
C882 C883 1.404 . S
C882 H896 0.929 . S
C883 C882 1.404 . S
C883 C884 1.389 . S
C884 C883 1.389 . S
C884 C885 1.399 . S
C884 H897 0.931 . S
C885 C884 1.399 . S
C885 C886 1.390 . S
C886 C881 1.392 . S
C886 C885 1.390 . S
C886 H898 0.929 . S
O887 Tb871 2.326 . S
O887 C875 1.242 . S
O888 Eu872 2.324 . S
O888 C875 1.258 . S
O889 Tb871 2.500 . S
O889 C891 1.273 . S
O890 Tb871 2.473 . S
O890 C891 1.257 . S
C891 O889 1.273 . S
C891 O890 1.257 . S
O892 Eu872 2.326 . S
O892 C880 1.242 . S
O893 Tb871 2.324 . S
O893 C880 1.258 . S
O894 Eu872 2.500 . S
O894 C877 1.273 . S
O895 Eu872 2.473 . S
O895 C877 1.257 . S
H896 C882 0.929 . S
H897 C884 0.931 . S
H898 C886 0.929 . S
O899 Tb900 2.292 . S
O899 C902 1.255 . S
Tb900 O899 2.292 . S
Tb900 O916 2.326 . S
Tb900 O918 2.500 . S
Tb900 O919 2.473 . S
Tb900 O922 2.324 . S
Eu901 O905 2.292 . S
Eu901 C906 2.852 . S
Eu901 O917 2.324 . S
Eu901 O921 2.326 . S
Eu901 O923 2.500 . S
Eu901 O924 2.473 . S
C902 O899 1.255 . S
C902 O903 1.247 . S
O903 C902 1.247 . S
C904 O916 1.242 . S
C904 O917 1.258 . S
O905 Eu901 2.292 . S
O905 C907 1.255 . S
C906 Eu901 2.852 . S
C906 C910 1.503 . S
C906 O923 1.273 . S
C906 O924 1.257 . S
C907 O905 1.255 . S
C907 O908 1.247 . S
O908 C907 1.247 . S
C909 O921 1.242 . S
C909 O922 1.258 . S
C910 C906 1.503 . S
C910 C911 1.379 . S
C910 C915 1.392 . S
C911 C910 1.379 . S
C911 C912 1.404 . S
C911 H925 0.929 . S
C912 C911 1.404 . S
C912 C913 1.389 . S
C913 C912 1.389 . S
C913 C914 1.399 . S
C913 H926 0.931 . S
C914 C913 1.399 . S
C914 C915 1.390 . S
C915 C910 1.392 . S
C915 C914 1.390 . S
C915 H927 0.929 . S
O916 Tb900 2.326 . S
O916 C904 1.242 . S
O917 Eu901 2.324 . S
O917 C904 1.258 . S
O918 Tb900 2.500 . S
O918 C920 1.273 . S
O919 Tb900 2.473 . S
O919 C920 1.257 . S
C920 O918 1.273 . S
C920 O919 1.257 . S
O921 Eu901 2.326 . S
O921 C909 1.242 . S
O922 Tb900 2.324 . S
O922 C909 1.258 . S
O923 Eu901 2.500 . S
O923 C906 1.273 . S
O924 Eu901 2.473 . S
O924 C906 1.257 . S
H925 C911 0.929 . S
H926 C913 0.931 . S
H927 C915 0.929 . S
H928 C940 0.935 . S
H929 C942 0.930 . S
H930 C943 0.930 . S
H931 C947 0.959 . S
H932 C947 0.959 . S
H933 C947 0.961 . S
H934 C948 0.960 . S
H935 C948 0.961 . S
H936 C948 0.959 . S
H937 C951 0.929 . S
H938 C952 0.931 . S
H939 C954 0.930 . S
C940 H928 0.935 . S
C940 C941 1.393 1_554 S
C940 C945 1.400 . S
C941 C940 1.393 1_556 S
C941 C942 1.376 . S
C942 H929 0.930 . S
C942 C941 1.376 . S
C942 C943 1.388 . S
C943 H930 0.930 . S
C943 C942 1.388 . S
C943 C944 1.390 . S
C944 C943 1.390 . S
C944 C945 1.394 1_556 S
C944 C950 1.465 1_655 S
C945 C940 1.400 . S
C945 C944 1.394 1_554 S
C945 C946 1.516 . S
C946 C945 1.516 . S
C946 C947 1.502 1_655 S
C946 C948 1.561 . S
C946 C949 1.526 1_655 S
C947 H931 0.959 . S
C947 H932 0.959 . S
C947 H933 0.961 . S
C947 C946 1.502 1_455 S
C948 H934 0.960 . S
C948 H935 0.961 . S
C948 H936 0.959 . S
C948 C946 1.561 . S
C949 C946 1.526 1_455 S
C949 C950 1.396 1_554 S
C949 C954 1.390 . S
C950 C944 1.465 1_455 S
C950 C949 1.396 1_556 S
C950 C951 1.399 . S
C951 H937 0.929 . S
C951 C950 1.399 . S
C951 C952 1.385 . S
C952 H938 0.931 . S
C952 C951 1.385 . S
C952 C953 1.389 1_556 S
C953 C952 1.389 1_554 S
C953 C954 1.387 . S
C954 H939 0.930 . S
C954 C949 1.390 . S
C954 C953 1.387 . S
H955 C967 0.934 . S
H956 C969 0.930 . S
H957 C970 0.930 . S
H958 C974 0.959 . S
H959 C974 0.959 . S
H960 C974 0.961 . S
H961 C975 0.960 . S
H962 C975 0.961 . S
H963 C975 0.959 . S
H964 C978 0.929 . S
H965 C979 0.931 . S
H966 C981 0.930 . S
C967 H955 0.934 . S
C967 C968 1.393 1_554 S
C967 C972 1.400 . S
C968 C967 1.393 1_556 S
C968 C969 1.376 . S
C969 H956 0.930 . S
C969 C968 1.376 . S
C969 C970 1.388 . S
C970 H957 0.930 . S
C970 C969 1.388 . S
C970 C971 1.390 . S
C971 C970 1.390 . S
C971 C972 1.394 1_556 S
C971 C977 1.465 . S
C972 C967 1.400 . S
C972 C971 1.394 1_554 S
C972 C973 1.516 . S
C973 C972 1.516 . S
C973 C974 1.502 . S
C973 C975 1.561 . S
C973 C976 1.526 . S
C974 H958 0.959 . S
C974 H959 0.959 . S
C974 H960 0.961 . S
C974 C973 1.502 . S
C975 H961 0.960 . S
C975 H962 0.961 . S
C975 H963 0.959 . S
C975 C973 1.561 . S
C976 C973 1.526 . S
C976 C977 1.396 1_554 S
C976 C981 1.390 . S
C977 C971 1.465 . S
C977 C976 1.396 1_556 S
C977 C978 1.399 . S
C978 H964 0.929 . S
C978 C977 1.399 . S
C978 C979 1.385 . S
C979 H965 0.931 . S
C979 C978 1.385 . S
C979 C980 1.389 1_556 S
C980 C979 1.389 1_554 S
C980 C981 1.387 . S
C981 H966 0.930 . S
C981 C976 1.390 . S
C981 C980 1.387 . S
H982 C994 0.930 . S
H983 C996 0.930 . S
H984 C997 0.930 1_455 S
H985 C1001 0.959 . S
H986 C1001 0.959 . S
H987 C1001 0.961 . S
H988 C1002 0.960 . S
H989 C1002 0.961 . S
H990 C1002 0.959 . S
H991 C1005 0.929 . S
H992 C1006 0.931 . S
H993 C1008 0.930 . S
C994 H982 0.930 . S
C994 C995 1.399 . S
C994 C999 1.399 . S
C995 C994 1.399 . S
C995 C996 1.376 . S
C996 H983 0.930 . S
C996 C995 1.376 . S
C996 C997 1.388 . S
C997 H984 0.930 1_655 S
C997 C996 1.388 . S
C997 C998 1.390 1_655 S
C998 C997 1.390 1_455 S
C998 C999 1.393 1_455 S
C998 C1004 1.466 . S
C999 C994 1.399 . S
C999 C998 1.393 1_655 S
C999 C1000 1.516 . S
C1000 C999 1.516 . S
C1000 C1001 1.502 . S
C1000 C1002 1.561 1_655 S
C1000 C1003 1.526 1_655 S
C1001 H985 0.959 . S
C1001 H986 0.959 . S
C1001 H987 0.961 . S
C1001 C1000 1.502 . S
C1002 H988 0.960 . S
C1002 H989 0.961 . S
C1002 H990 0.959 . S
C1002 C1000 1.561 1_455 S
C1003 C1000 1.526 1_455 S
C1003 C1004 1.396 . S
C1003 C1008 1.390 . S
C1004 C998 1.466 . S
C1004 C1003 1.396 . S
C1004 C1005 1.399 . S
C1005 H991 0.929 . S
C1005 C1004 1.399 . S
C1005 C1006 1.385 . S
C1006 H992 0.931 . S
C1006 C1005 1.385 . S
C1006 C1007 1.389 . S
C1007 C1006 1.389 . S
C1007 C1008 1.387 . S
C1008 H993 0.930 . S
C1008 C1003 1.390 . S
C1008 C1007 1.387 . S
H1009 C1021 0.930 . S
H1010 C1023 0.930 . S
H1011 C1024 0.930 . S
H1012 C1028 0.959 . S
H1013 C1028 0.959 . S
H1014 C1028 0.961 . S
H1015 C1029 0.960 . S
H1016 C1029 0.961 . S
H1017 C1029 0.959 . S
H1018 C1032 0.929 . S
H1019 C1033 0.931 . S
H1020 C1035 0.930 . S
C1021 H1009 0.930 . S
C1021 C1022 1.399 . S
C1021 C1026 1.399 . S
C1022 C1021 1.399 . S
C1022 C1023 1.376 . S
C1023 H1010 0.930 . S
C1023 C1022 1.376 . S
C1023 C1024 1.388 . S
C1024 H1011 0.930 . S
C1024 C1023 1.388 . S
C1024 C1025 1.390 . S
C1025 C1024 1.390 . S
C1025 C1026 1.394 . S
C1025 C1031 1.465 . S
C1026 C1021 1.399 . S
C1026 C1025 1.394 . S
C1026 C1027 1.516 . S
C1027 C1026 1.516 . S
C1027 C1028 1.502 . S
C1027 C1029 1.561 . S
C1027 C1030 1.526 . S
C1028 H1012 0.959 . S
C1028 H1013 0.959 . S
C1028 H1014 0.961 . S
C1028 C1027 1.502 . S
C1029 H1015 0.960 . S
C1029 H1016 0.961 . S
C1029 H1017 0.959 . S
C1029 C1027 1.561 . S
C1030 C1027 1.526 . S
C1030 C1031 1.396 . S
C1030 C1035 1.390 . S
C1031 C1025 1.465 . S
C1031 C1030 1.396 . S
C1031 C1032 1.399 . S
C1032 H1018 0.929 . S
C1032 C1031 1.399 . S
C1032 C1033 1.385 . S
C1033 H1019 0.931 . S
C1033 C1032 1.385 . S
C1033 C1034 1.389 . S
C1034 C1033 1.389 . S
C1034 C1035 1.387 . S
C1035 H1020 0.930 . S
C1035 C1030 1.390 . S
C1035 C1034 1.387 . S
H1036 C1048 0.930 . S
H1037 C1050 0.930 . S
H1038 C1051 0.930 . S
H1039 C1055 0.959 . S
H1040 C1055 0.959 . S
H1041 C1055 0.961 . S
H1042 C1056 0.960 . S
H1043 C1056 0.961 . S
H1044 C1056 0.959 . S
H1045 C1059 0.929 . S
H1046 C1060 0.931 . S
H1047 C1062 0.928 1_554 S
C1048 H1036 0.930 . S
C1048 C1049 1.399 . S
C1048 C1053 1.399 . S
C1049 C1048 1.399 . S
C1049 C1050 1.376 1_554 S
C1050 H1037 0.930 . S
C1050 C1049 1.376 1_556 S
C1050 C1051 1.388 . S
C1051 H1038 0.930 . S
C1051 C1050 1.388 . S
C1051 C1052 1.390 . S
C1052 C1051 1.390 . S
C1052 C1053 1.394 1_556 S
C1052 C1058 1.465 . S
C1053 C1048 1.399 . S
C1053 C1052 1.394 1_554 S
C1053 C1054 1.516 . S
C1054 C1053 1.516 . S
C1054 C1055 1.502 . S
C1054 C1056 1.561 . S
C1054 C1057 1.526 . S
C1055 H1039 0.959 . S
C1055 H1040 0.959 . S
C1055 H1041 0.961 . S
C1055 C1054 1.502 . S
C1056 H1042 0.960 . S
C1056 H1043 0.961 . S
C1056 H1044 0.959 . S
C1056 C1054 1.561 . S
C1057 C1054 1.526 . S
C1057 C1058 1.396 1_554 S
C1057 C1062 1.389 1_554 S
C1058 C1052 1.465 . S
C1058 C1057 1.396 1_556 S
C1058 C1059 1.399 . S
C1059 H1045 0.929 . S
C1059 C1058 1.399 . S
C1059 C1060 1.385 . S
C1060 H1046 0.931 . S
C1060 C1059 1.385 . S
C1060 C1061 1.389 . S
C1061 C1060 1.389 . S
C1061 C1062 1.389 . S
C1062 H1047 0.928 1_556 S
C1062 C1057 1.389 1_556 S
C1062 C1061 1.389 . S
H1063 C1075 0.930 1_455 S
H1064 C1077 0.930 . S
H1065 C1078 0.930 . S
H1066 C1082 0.959 . S
H1067 C1082 0.959 . S
H1068 C1082 0.961 . S
H1069 C1083 0.960 . S
H1070 C1083 0.961 . S
H1071 C1083 0.959 . S
H1072 C1086 0.929 . S
H1073 C1087 0.936 . S
H1074 C1089 0.930 . S
C1075 H1063 0.930 1_655 S
C1075 C1076 1.399 . S
C1075 C1080 1.389 1_655 S
C1076 C1075 1.399 . S
C1076 C1077 1.376 . S
C1077 H1064 0.930 . S
C1077 C1076 1.376 . S
C1077 C1078 1.388 . S
C1078 H1065 0.930 . S
C1078 C1077 1.388 . S
C1078 C1079 1.390 . S
C1079 C1078 1.390 . S
C1079 C1080 1.361 1_655 S
C1079 C1085 1.465 . S
C1080 C1075 1.389 1_455 S
C1080 C1079 1.361 1_455 S
C1080 C1081 1.557 . S
C1081 C1080 1.557 . S
C1081 C1082 1.502 . S
C1081 C1083 1.561 . S
C1081 C1084 1.526 . S
C1082 H1066 0.959 . S
C1082 H1067 0.959 . S
C1082 H1068 0.961 . S
C1082 C1081 1.502 . S
C1083 H1069 0.960 . S
C1083 H1070 0.961 . S
C1083 H1071 0.959 . S
C1083 C1081 1.561 . S
C1084 C1081 1.526 . S
C1084 C1085 1.396 1_455 S
C1084 C1089 1.390 . S
C1085 C1079 1.465 . S
C1085 C1084 1.396 1_655 S
C1085 C1086 1.399 . S
C1086 H1072 0.929 . S
C1086 C1085 1.399 . S
C1086 C1087 1.394 . S
C1087 H1073 0.936 . S
C1087 C1086 1.394 . S
C1087 C1088 1.375 1_655 S
C1088 C1087 1.375 1_455 S
C1088 C1089 1.387 . S
C1089 H1074 0.930 . S
C1089 C1084 1.390 . S
C1089 C1088 1.387 . S
H1090 C1102 0.930 . S
H1091 C1104 0.930 . S
H1092 C1105 0.930 . S
H1093 C1109 0.959 . S
H1094 C1109 0.959 . S
H1095 C1109 0.961 . S
H1096 C1110 0.960 . S
H1097 C1110 0.961 . S
H1098 C1110 0.959 . S
H1099 C1113 0.929 . S
H1100 C1114 0.931 . S
H1101 C1116 0.930 . S
C1102 H1090 0.930 . S
C1102 C1103 1.399 . S
C1102 C1107 1.399 . S
C1103 C1102 1.399 . S
C1103 C1104 1.376 . S
C1104 H1091 0.930 . S
C1104 C1103 1.376 . S
C1104 C1105 1.388 . S
C1105 H1092 0.930 . S
C1105 C1104 1.388 . S
C1105 C1106 1.390 . S
C1106 C1105 1.390 . S
C1106 C1107 1.394 . S
C1106 C1112 1.465 . S
C1107 C1102 1.399 . S
C1107 C1106 1.394 . S
C1107 C1108 1.516 . S
C1108 C1107 1.516 . S
C1108 C1109 1.502 . S
C1108 C1110 1.561 . S
C1108 C1111 1.526 . S
C1109 H1093 0.959 . S
C1109 H1094 0.959 . S
C1109 H1095 0.961 . S
C1109 C1108 1.502 . S
C1110 H1096 0.960 . S
C1110 H1097 0.961 . S
C1110 H1098 0.959 . S
C1110 C1108 1.561 . S
C1111 C1108 1.526 . S
C1111 C1112 1.396 . S
C1111 C1116 1.390 . S
C1112 C1106 1.465 . S
C1112 C1111 1.396 . S
C1112 C1113 1.399 . S
C1113 H1099 0.929 . S
C1113 C1112 1.399 . S
C1113 C1114 1.385 . S
C1114 H1100 0.931 . S
C1114 C1113 1.385 . S
C1114 C1115 1.389 . S
C1115 C1114 1.389 . S
C1115 C1116 1.387 . S
C1116 H1101 0.930 . S
C1116 C1111 1.390 . S
C1116 C1115 1.387 . S
H1117 C1129 0.930 . S
H1118 C1131 0.930 . S
H1119 C1132 0.930 . S
H1120 C1136 0.959 . S
H1121 C1136 0.959 . S
H1122 C1136 0.961 . S
H1123 C1137 0.960 . S
H1124 C1137 0.961 . S
H1125 C1137 0.959 . S
H1126 C1140 0.929 . S
H1127 C1141 0.931 . S
H1128 C1143 0.930 . S
C1129 H1117 0.930 . S
C1129 C1130 1.399 . S
C1129 C1134 1.399 . S
C1130 C1129 1.399 . S
C1130 C1131 1.376 . S
C1131 H1118 0.930 . S
C1131 C1130 1.376 . S
C1131 C1132 1.388 . S
C1132 H1119 0.930 . S
C1132 C1131 1.388 . S
C1132 C1133 1.390 . S
C1133 C1132 1.390 . S
C1133 C1134 1.394 . S
C1133 C1139 1.465 1_465 S
C1134 C1129 1.399 . S
C1134 C1133 1.394 . S
C1134 C1135 1.516 1_565 S
C1135 C1134 1.516 1_545 S
C1135 C1136 1.502 1_455 S
C1135 C1137 1.561 . S
C1135 C1138 1.526 1_455 S
C1136 H1120 0.959 . S
C1136 H1121 0.959 . S
C1136 H1122 0.961 . S
C1136 C1135 1.502 1_655 S
C1137 H1123 0.960 . S
C1137 H1124 0.961 . S
C1137 H1125 0.959 . S
C1137 C1135 1.561 . S
C1138 C1135 1.526 1_655 S
C1138 C1139 1.396 . S
C1138 C1143 1.390 . S
C1139 C1133 1.465 1_645 S
C1139 C1138 1.396 . S
C1139 C1140 1.399 . S
C1140 H1126 0.929 . S
C1140 C1139 1.399 . S
C1140 C1141 1.385 . S
C1141 H1127 0.931 . S
C1141 C1140 1.385 . S
C1141 C1142 1.389 . S
C1142 C1141 1.389 . S
C1142 C1143 1.387 . S
C1143 H1128 0.930 . S
C1143 C1138 1.390 . S
C1143 C1142 1.387 . S
H1144 C1156 0.930 . S
H1145 C1158 0.930 . S
H1146 C1159 0.930 . S
H1147 C1163 0.959 . S
H1148 C1163 0.959 . S
H1149 C1163 0.961 . S
H1150 C1164 0.960 . S
H1151 C1164 0.961 . S
H1152 C1164 0.959 . S
H1153 C1167 0.929 . S
H1154 C1168 0.931 . S
H1155 C1170 0.930 . S
C1156 H1144 0.930 . S
C1156 C1157 1.399 . S
C1156 C1161 1.399 . S
C1157 C1156 1.399 . S
C1157 C1158 1.376 . S
C1158 H1145 0.930 . S
C1158 C1157 1.376 . S
C1158 C1159 1.388 . S
C1159 H1146 0.930 . S
C1159 C1158 1.388 . S
C1159 C1160 1.390 . S
C1160 C1159 1.390 . S
C1160 C1161 1.394 . S
C1160 C1166 1.465 . S
C1161 C1156 1.399 . S
C1161 C1160 1.394 . S
C1161 C1162 1.516 . S
C1162 C1161 1.516 . S
C1162 C1163 1.502 . S
C1162 C1164 1.561 . S
C1162 C1165 1.526 . S
C1163 H1147 0.959 . S
C1163 H1148 0.959 . S
C1163 H1149 0.961 . S
C1163 C1162 1.502 . S
C1164 H1150 0.960 . S
C1164 H1151 0.961 . S
C1164 H1152 0.959 . S
C1164 C1162 1.561 . S
C1165 C1162 1.526 . S
C1165 C1166 1.396 . S
C1165 C1170 1.390 . S
C1166 C1160 1.465 . S
C1166 C1165 1.396 . S
C1166 C1167 1.399 . S
C1167 H1153 0.929 . S
C1167 C1166 1.399 . S
C1167 C1168 1.385 . S
C1168 H1154 0.931 . S
C1168 C1167 1.385 . S
C1168 C1169 1.389 . S
C1169 C1168 1.389 . S
C1169 C1170 1.387 . S
C1170 H1155 0.930 . S
C1170 C1165 1.390 . S
C1170 C1169 1.387 . S
H1171 C1183 0.930 . S
H1172 C1185 0.930 . S
H1173 C1186 0.930 . S
H1174 C1190 0.959 . S
H1175 C1190 0.959 . S
H1176 C1190 0.961 . S
H1177 C1191 0.960 . S
H1178 C1191 0.961 . S
H1179 C1191 0.959 . S
H1180 C1194 0.929 . S
H1181 C1195 0.931 . S
H1182 C1197 0.930 . S
C1183 H1171 0.930 . S
C1183 C1184 1.399 . S
C1183 C1188 1.399 . S
C1184 C1183 1.399 . S
C1184 C1185 1.376 . S
C1185 H1172 0.930 . S
C1185 C1184 1.376 . S
C1185 C1186 1.388 . S
C1186 H1173 0.930 . S
C1186 C1185 1.388 . S
C1186 C1187 1.390 . S
C1187 C1186 1.390 . S
C1187 C1188 1.394 . S
C1187 C1193 1.465 1_545 S
C1188 C1183 1.399 . S
C1188 C1187 1.394 . S
C1188 C1189 1.516 . S
C1189 C1188 1.516 . S
C1189 C1190 1.502 . S
C1189 C1191 1.561 . S
C1189 C1192 1.526 1_545 S
C1190 H1174 0.959 . S
C1190 H1175 0.959 . S
C1190 H1176 0.961 . S
C1190 C1189 1.502 . S
C1191 H1177 0.960 . S
C1191 H1178 0.961 . S
C1191 H1179 0.959 . S
C1191 C1189 1.561 . S
C1192 C1189 1.526 1_565 S
C1192 C1193 1.396 . S
C1192 C1197 1.390 . S
C1193 C1187 1.465 1_565 S
C1193 C1192 1.396 . S
C1193 C1194 1.399 . S
C1194 H1180 0.929 . S
C1194 C1193 1.399 . S
C1194 C1195 1.385 . S
C1195 H1181 0.931 . S
C1195 C1194 1.385 . S
C1195 C1196 1.389 . S
C1196 C1195 1.389 . S
C1196 C1197 1.387 . S
C1197 H1182 0.930 . S
C1197 C1192 1.390 . S
C1197 C1196 1.387 . S
H1198 C1210 0.930 . S
H1199 C1212 0.930 . S
H1200 C1213 0.930 . S
H1201 C1217 0.959 . S
H1202 C1217 0.959 . S
H1203 C1217 0.961 . S
H1204 C1218 0.960 . S
H1205 C1218 0.961 . S
H1206 C1218 0.959 . S
H1207 C1221 0.929 . S
H1208 C1222 0.931 . S
H1209 C1224 0.930 . S
C1210 H1198 0.930 . S
C1210 C1211 1.399 . S
C1210 C1215 1.399 . S
C1211 C1210 1.399 . S
C1211 C1212 1.376 . S
C1212 H1199 0.930 . S
C1212 C1211 1.376 . S
C1212 C1213 1.388 . S
C1213 H1200 0.930 . S
C1213 C1212 1.388 . S
C1213 C1214 1.390 . S
C1214 C1213 1.390 . S
C1214 C1215 1.394 . S
C1214 C1220 1.465 . S
C1215 C1210 1.399 . S
C1215 C1214 1.394 . S
C1215 C1216 1.516 . S
C1216 C1215 1.516 . S
C1216 C1217 1.502 . S
C1216 C1218 1.561 . S
C1216 C1219 1.526 . S
C1217 H1201 0.959 . S
C1217 H1202 0.959 . S
C1217 H1203 0.961 . S
C1217 C1216 1.502 . S
C1218 H1204 0.960 . S
C1218 H1205 0.961 . S
C1218 H1206 0.959 . S
C1218 C1216 1.561 . S
C1219 C1216 1.526 . S
C1219 C1220 1.396 . S
C1219 C1224 1.390 . S
C1220 C1214 1.465 . S
C1220 C1219 1.396 . S
C1220 C1221 1.399 . S
C1221 H1207 0.929 . S
C1221 C1220 1.399 . S
C1221 C1222 1.385 . S
C1222 H1208 0.931 . S
C1222 C1221 1.385 . S
C1222 C1223 1.389 . S
C1223 C1222 1.389 . S
C1223 C1224 1.387 . S
C1224 H1209 0.930 . S
C1224 C1219 1.390 . S
C1224 C1223 1.387 . S
H1225 C1237 0.930 . S
H1226 C1239 0.930 . S
H1227 C1240 0.930 1_545 S
H1228 C1244 0.959 . S
H1229 C1244 0.959 . S
H1230 C1244 0.961 . S
H1231 C1245 0.960 . S
H1232 C1245 0.961 . S
H1233 C1245 0.959 . S
H1234 C1248 0.929 . S
H1235 C1249 0.931 . S
H1236 C1251 0.930 . S
C1237 H1225 0.930 . S
C1237 C1238 1.399 . S
C1237 C1242 1.399 . S
C1238 C1237 1.399 . S
C1238 C1239 1.376 . S
C1239 H1226 0.930 . S
C1239 C1238 1.376 . S
C1239 C1240 1.388 . S
C1240 H1227 0.930 1_565 S
C1240 C1239 1.388 . S
C1240 C1241 1.390 . S
C1241 C1240 1.390 . S
C1241 C1242 1.394 . S
C1241 C1247 1.465 1_565 S
C1242 C1237 1.399 . S
C1242 C1241 1.394 . S
C1242 C1243 1.516 . S
C1243 C1242 1.516 . S
C1243 C1244 1.502 . S
C1243 C1245 1.561 . S
C1243 C1246 1.526 1_565 S
C1244 H1228 0.959 . S
C1244 H1229 0.959 . S
C1244 H1230 0.961 . S
C1244 C1243 1.502 . S
C1245 H1231 0.960 . S
C1245 H1232 0.961 . S
C1245 H1233 0.959 . S
C1245 C1243 1.561 . S
C1246 C1243 1.526 1_545 S
C1246 C1247 1.396 . S
C1246 C1251 1.390 . S
C1247 C1241 1.465 1_545 S
C1247 C1246 1.396 . S
C1247 C1248 1.399 . S
C1248 H1234 0.929 . S
C1248 C1247 1.399 . S
C1248 C1249 1.385 . S
C1249 H1235 0.931 . S
C1249 C1248 1.385 . S
C1249 C1250 1.389 . S
C1250 C1249 1.389 . S
C1250 C1251 1.387 . S
C1251 H1236 0.930 . S
C1251 C1246 1.390 . S
C1251 C1250 1.387 . S
H1252 C1264 0.930 . S
H1253 C1266 0.930 . S
H1254 C1267 0.930 . S
H1255 C1271 0.959 . S
H1256 C1271 0.959 . S
H1257 C1271 0.961 . S
H1258 C1272 0.960 . S
H1259 C1272 0.961 . S
H1260 C1272 0.959 . S
H1261 C1275 0.929 . S
H1262 C1276 0.931 . S
H1263 C1278 0.930 . S
C1264 H1252 0.930 . S
C1264 C1265 1.399 . S
C1264 C1269 1.399 . S
C1265 C1264 1.399 . S
C1265 C1266 1.376 . S
C1266 H1253 0.930 . S
C1266 C1265 1.376 . S
C1266 C1267 1.388 . S
C1267 H1254 0.930 . S
C1267 C1266 1.388 . S
C1267 C1268 1.390 . S
C1268 C1267 1.390 . S
C1268 C1269 1.394 . S
C1268 C1274 1.465 . S
C1269 C1264 1.399 . S
C1269 C1268 1.394 . S
C1269 C1270 1.516 . S
C1270 C1269 1.516 . S
C1270 C1271 1.502 . S
C1270 C1272 1.561 . S
C1270 C1273 1.526 . S
C1271 H1255 0.959 . S
C1271 H1256 0.959 . S
C1271 H1257 0.961 . S
C1271 C1270 1.502 . S
C1272 H1258 0.960 . S
C1272 H1259 0.961 . S
C1272 H1260 0.959 . S
C1272 C1270 1.561 . S
C1273 C1270 1.526 . S
C1273 C1274 1.396 . S
C1273 C1278 1.390 . S
C1274 C1268 1.465 . S
C1274 C1273 1.396 . S
C1274 C1275 1.399 . S
C1275 H1261 0.929 . S
C1275 C1274 1.399 . S
C1275 C1276 1.385 . S
C1276 H1262 0.931 . S
C1276 C1275 1.385 . S
C1276 C1277 1.389 . S
C1277 C1276 1.389 . S
C1277 C1278 1.387 . S
C1278 H1263 0.930 . S
C1278 C1273 1.390 . S
C1278 C1277 1.387 . S
H1279 C1291 0.930 . S
H1280 C1293 0.930 . S
H1281 C1294 0.930 . S
H1282 C1298 0.959 . S
H1283 C1298 0.959 . S
H1284 C1298 0.961 . S
H1285 C1299 0.960 . S
H1286 C1299 0.961 . S
H1287 C1299 0.959 . S
H1288 C1302 0.929 . S
H1289 C1303 0.931 . S
H1290 C1305 0.930 . S
C1291 H1279 0.930 . S
C1291 C1292 1.399 . S
C1291 C1296 1.399 . S
C1292 C1291 1.399 . S
C1292 C1293 1.376 . S
C1293 H1280 0.930 . S
C1293 C1292 1.376 . S
C1293 C1294 1.388 . S
C1294 H1281 0.930 . S
C1294 C1293 1.388 . S
C1294 C1295 1.390 . S
C1295 C1294 1.390 . S
C1295 C1296 1.394 . S
C1295 C1301 1.465 . S
C1296 C1291 1.399 . S
C1296 C1295 1.394 . S
C1296 C1297 1.516 . S
C1297 C1296 1.516 . S
C1297 C1298 1.502 . S
C1297 C1299 1.561 . S
C1297 C1300 1.526 . S
C1298 H1282 0.959 . S
C1298 H1283 0.959 . S
C1298 H1284 0.961 . S
C1298 C1297 1.502 . S
C1299 H1285 0.960 . S
C1299 H1286 0.961 . S
C1299 H1287 0.959 . S
C1299 C1297 1.561 . S
C1300 C1297 1.526 . S
C1300 C1301 1.396 . S
C1300 C1305 1.390 . S
C1301 C1295 1.465 . S
C1301 C1300 1.396 . S
C1301 C1302 1.399 . S
C1302 H1288 0.929 . S
C1302 C1301 1.399 . S
C1302 C1303 1.385 . S
C1303 H1289 0.931 . S
C1303 C1302 1.385 . S
C1303 C1304 1.389 . S
C1304 C1303 1.389 . S
C1304 C1305 1.387 . S
C1305 H1290 0.930 . S
C1305 C1300 1.390 . S
C1305 C1304 1.387 . S
H1306 C1318 0.930 . S
H1307 C1320 0.930 . S
H1308 C1321 0.930 . S
H1309 C1325 0.959 . S
H1310 C1325 0.959 . S
H1311 C1325 0.961 . S
H1312 C1326 0.960 . S
H1313 C1326 0.961 . S
H1314 C1326 0.959 . S
H1315 C1329 0.929 . S
H1316 C1330 0.931 . S
H1317 C1332 0.930 . S
C1318 H1306 0.930 . S
C1318 C1319 1.399 . S
C1318 C1323 1.399 . S
C1319 C1318 1.399 . S
C1319 C1320 1.376 . S
C1320 H1307 0.930 . S
C1320 C1319 1.376 . S
C1320 C1321 1.388 . S
C1321 H1308 0.930 . S
C1321 C1320 1.388 . S
C1321 C1322 1.390 . S
C1322 C1321 1.390 . S
C1322 C1323 1.394 . S
C1322 C1328 1.465 . S
C1323 C1318 1.399 . S
C1323 C1322 1.394 . S
C1323 C1324 1.516 . S
C1324 C1323 1.516 . S
C1324 C1325 1.502 . S
C1324 C1326 1.561 . S
C1324 C1327 1.526 . S
C1325 H1309 0.959 . S
C1325 H1310 0.959 . S
C1325 H1311 0.961 . S
C1325 C1324 1.502 . S
C1326 H1312 0.960 . S
C1326 H1313 0.961 . S
C1326 H1314 0.959 . S
C1326 C1324 1.561 . S
C1327 C1324 1.526 . S
C1327 C1328 1.396 . S
C1327 C1332 1.390 . S
C1328 C1322 1.465 . S
C1328 C1327 1.396 . S
C1328 C1329 1.399 . S
C1329 H1315 0.929 . S
C1329 C1328 1.399 . S
C1329 C1330 1.385 . S
C1330 H1316 0.931 . S
C1330 C1329 1.385 . S
C1330 C1331 1.389 . S
C1331 C1330 1.389 . S
C1331 C1332 1.387 . S
C1332 H1317 0.930 . S
C1332 C1327 1.390 . S
C1332 C1331 1.387 . S
H1333 C1345 0.930 1_556 S
H1334 C1347 0.930 . S
H1335 C1348 0.930 . S
H1336 C1352 0.959 . S
H1337 C1352 0.959 . S
H1338 C1352 0.950 1_565 S
H1339 C1353 0.960 . S
H1340 C1353 0.961 . S
H1341 C1353 0.959 . S
H1342 C1356 0.929 . S
H1343 C1357 0.939 . S
H1344 C1359 0.930 . S
C1345 H1333 0.930 1_554 S
C1345 C1346 1.399 . S
C1345 C1350 1.399 1_554 S
C1346 C1345 1.399 . S
C1346 C1347 1.376 . S
C1347 H1334 0.930 . S
C1347 C1346 1.376 . S
C1347 C1348 1.388 . S
C1348 H1335 0.930 . S
C1348 C1347 1.388 . S
C1348 C1349 1.390 . S
C1349 C1348 1.390 . S
C1349 C1350 1.394 1_554 S
C1349 C1355 1.465 1_565 S
C1350 C1345 1.399 1_556 S
C1350 C1349 1.394 1_556 S
C1350 C1351 1.522 . S
C1351 C1350 1.522 . S
C1351 C1352 1.498 1_565 S
C1351 C1353 1.565 . S
C1351 C1354 1.520 1_565 S
C1352 H1336 0.959 . S
C1352 H1337 0.959 . S
C1352 H1338 0.950 1_545 S
C1352 C1351 1.498 1_545 S
C1353 H1339 0.960 . S
C1353 H1340 0.961 . S
C1353 H1341 0.959 . S
C1353 C1351 1.565 . S
C1354 C1351 1.520 1_545 S
C1354 C1355 1.396 1_556 S
C1354 C1359 1.390 . S
C1355 C1349 1.465 1_545 S
C1355 C1354 1.396 1_554 S
C1355 C1356 1.399 . S
C1356 H1342 0.929 . S
C1356 C1355 1.399 . S
C1356 C1357 1.396 . S
C1357 H1343 0.939 . S
C1357 C1356 1.396 . S
C1357 C1358 1.370 1_554 S
C1358 C1357 1.370 1_556 S
C1358 C1359 1.387 . S
C1359 H1344 0.930 . S
C1359 C1354 1.390 . S
C1359 C1358 1.387 . S
H1360 C1372 0.930 . S
H1361 C1374 0.930 . S
H1362 C1375 0.930 1_655 S
H1363 C1379 0.959 . S
H1364 C1379 0.959 . S
H1365 C1379 0.961 . S
H1366 C1380 0.960 . S
H1367 C1380 0.961 . S
H1368 C1380 0.959 . S
H1369 C1383 0.929 . S
H1370 C1384 0.931 . S
H1371 C1386 0.930 . S
C1372 H1360 0.930 . S
C1372 C1373 1.399 . S
C1372 C1377 1.399 . S
C1373 C1372 1.399 . S
C1373 C1374 1.376 . S
C1374 H1361 0.930 . S
C1374 C1373 1.376 . S
C1374 C1375 1.388 . S
C1375 H1362 0.930 1_455 S
C1375 C1374 1.388 . S
C1375 C1376 1.390 . S
C1376 C1375 1.390 . S
C1376 C1377 1.394 . S
C1376 C1382 1.465 . S
C1377 C1372 1.399 . S
C1377 C1376 1.394 . S
C1377 C1378 1.516 . S
C1378 C1377 1.516 . S
C1378 C1379 1.502 . S
C1378 C1380 1.561 . S
C1378 C1381 1.526 . S
C1379 H1363 0.959 . S
C1379 H1364 0.959 . S
C1379 H1365 0.961 . S
C1379 C1378 1.502 . S
C1380 H1366 0.960 . S
C1380 H1367 0.961 . S
C1380 H1368 0.959 . S
C1380 C1378 1.561 . S
C1381 C1378 1.526 . S
C1381 C1382 1.396 . S
C1381 C1386 1.390 . S
C1382 C1376 1.465 . S
C1382 C1381 1.396 . S
C1382 C1383 1.399 1_455 S
C1383 H1369 0.929 . S
C1383 C1382 1.399 1_655 S
C1383 C1384 1.385 . S
C1384 H1370 0.931 . S
C1384 C1383 1.385 . S
C1384 C1385 1.389 . S
C1385 C1384 1.389 . S
C1385 C1386 1.387 1_655 S
C1386 H1371 0.930 . S
C1386 C1381 1.390 . S
C1386 C1385 1.387 1_455 S
H1387 C1399 0.923 1_565 S
H1388 C1401 0.930 . S
H1389 C1402 0.930 . S
H1390 C1406 0.959 1_565 S
H1391 C1406 0.959 . S
H1392 C1406 0.961 1_565 S
H1393 C1407 0.960 . S
H1394 C1407 0.961 . S
H1395 C1407 0.959 . S
H1396 C1410 0.929 . S
H1397 C1411 0.931 . S
H1398 C1413 0.930 . S
C1399 H1387 0.923 1_545 S
C1399 C1400 1.399 . S
C1399 C1404 1.399 . S
C1400 C1399 1.399 . S
C1400 C1401 1.376 . S
C1401 H1388 0.930 . S
C1401 C1400 1.376 . S
C1401 C1402 1.388 . S
C1402 H1389 0.930 . S
C1402 C1401 1.388 . S
C1402 C1403 1.390 . S
C1403 C1402 1.390 . S
C1403 C1404 1.394 . S
C1403 C1409 1.465 . S
C1404 C1399 1.399 . S
C1404 C1403 1.394 . S
C1404 C1405 1.516 . S
C1405 C1404 1.516 . S
C1405 C1406 1.502 . S
C1405 C1407 1.561 . S
C1405 C1408 1.526 . S
C1406 H1390 0.959 1_545 S
C1406 H1391 0.959 . S
C1406 H1392 0.961 1_545 S
C1406 C1405 1.502 . S
C1407 H1393 0.960 . S
C1407 H1394 0.961 . S
C1407 H1395 0.959 . S
C1407 C1405 1.561 . S
C1408 C1405 1.526 . S
C1408 C1409 1.396 . S
C1408 C1413 1.390 . S
C1409 C1403 1.465 . S
C1409 C1408 1.396 . S
C1409 C1410 1.399 . S
C1410 H1396 0.929 . S
C1410 C1409 1.399 . S
C1410 C1411 1.385 . S
C1411 H1397 0.931 . S
C1411 C1410 1.385 . S
C1411 C1412 1.389 . S
C1412 C1411 1.389 . S
C1412 C1413 1.387 . S
C1413 H1398 0.930 . S
C1413 C1408 1.390 . S
C1413 C1412 1.387 . S
H1414 C1426 0.930 . S
H1415 C1428 0.930 . S
H1416 C1429 0.930 . S
H1417 C1433 0.959 . S
H1418 C1433 0.959 . S
H1419 C1433 0.961 . S
H1420 C1434 0.960 . S
H1421 C1434 0.961 . S
H1422 C1434 0.959 . S
H1423 C1437 0.929 1_655 S
H1424 C1438 0.931 . S
H1425 C1440 0.930 1_565 S
C1426 H1414 0.930 . S
C1426 C1427 1.399 1_455 S
C1426 C1431 1.399 . S
C1427 C1426 1.399 1_655 S
C1427 C1428 1.376 . S
C1428 H1415 0.930 . S
C1428 C1427 1.376 . S
C1428 C1429 1.388 . S
C1429 H1416 0.930 . S
C1429 C1428 1.388 . S
C1429 C1430 1.390 1_655 S
C1430 C1429 1.390 1_455 S
C1430 C1431 1.394 . S
C1430 C1436 1.465 . S
C1431 C1426 1.399 . S
C1431 C1430 1.394 . S
C1431 C1432 1.516 . S
C1432 C1431 1.516 . S
C1432 C1433 1.502 . S
C1432 C1434 1.561 1_545 S
C1432 C1435 1.526 . S
C1433 H1417 0.959 . S
C1433 H1418 0.959 . S
C1433 H1419 0.961 . S
C1433 C1432 1.502 . S
C1434 H1420 0.960 . S
C1434 H1421 0.961 . S
C1434 H1422 0.959 . S
C1434 C1432 1.561 1_565 S
C1435 C1432 1.526 . S
C1435 C1436 1.396 . S
C1435 C1440 1.390 . S
C1436 C1430 1.465 . S
C1436 C1435 1.396 . S
C1436 C1437 1.399 . S
C1437 H1423 0.929 1_455 S
C1437 C1436 1.399 . S
C1437 C1438 1.385 . S
C1438 H1424 0.931 . S
C1438 C1437 1.385 . S
C1438 C1439 1.389 . S
C1439 C1438 1.389 . S
C1439 C1440 1.387 . S
C1440 H1425 0.930 1_545 S
C1440 C1435 1.390 . S
C1440 C1439 1.387 . S
H1441 C1453 0.930 . S
H1442 C1455 0.930 . S
H1443 C1456 0.930 . S
H1444 C1460 0.959 . S
H1445 C1460 0.959 . S
H1446 C1460 0.961 . S
H1447 C1461 0.960 . S
H1448 C1461 0.961 . S
H1449 C1461 0.959 . S
H1450 C1464 0.929 . S
H1451 C1465 0.931 . S
H1452 C1467 0.930 . S
C1453 H1441 0.930 . S
C1453 C1454 1.399 . S
C1453 C1458 1.399 . S
C1454 C1453 1.399 . S
C1454 C1455 1.376 . S
C1455 H1442 0.930 . S
C1455 C1454 1.376 . S
C1455 C1456 1.388 . S
C1456 H1443 0.930 . S
C1456 C1455 1.388 . S
C1456 C1457 1.390 . S
C1457 C1456 1.390 . S
C1457 C1458 1.394 . S
C1457 C1463 1.465 . S
C1458 C1453 1.399 . S
C1458 C1457 1.394 . S
C1458 C1459 1.516 . S
C1459 C1458 1.516 . S
C1459 C1460 1.502 . S
C1459 C1461 1.561 . S
C1459 C1462 1.526 . S
C1460 H1444 0.959 . S
C1460 H1445 0.959 . S
C1460 H1446 0.961 . S
C1460 C1459 1.502 . S
C1461 H1447 0.960 . S
C1461 H1448 0.961 . S
C1461 H1449 0.959 . S
C1461 C1459 1.561 . S
C1462 C1459 1.526 . S
C1462 C1463 1.396 . S
C1462 C1467 1.390 . S
C1463 C1457 1.465 . S
C1463 C1462 1.396 . S
C1463 C1464 1.399 . S
C1464 H1450 0.929 . S
C1464 C1463 1.399 . S
C1464 C1465 1.385 . S
C1465 H1451 0.931 . S
C1465 C1464 1.385 . S
C1465 C1466 1.389 . S
C1466 C1465 1.389 . S
C1466 C1467 1.387 . S
C1467 H1452 0.930 . S
C1467 C1462 1.390 . S
C1467 C1466 1.387 . S
H1468 C1480 0.930 . S
H1469 C1482 0.930 . S
H1470 C1483 0.930 . S
H1471 C1487 0.959 . S
H1472 C1487 0.959 . S
H1473 C1487 0.961 . S
H1474 C1488 0.960 . S
H1475 C1488 0.961 . S
H1476 C1488 0.959 . S
H1477 C1491 0.929 . S
H1478 C1492 0.931 . S
H1479 C1494 0.930 . S
C1480 H1468 0.930 . S
C1480 C1481 1.399 . S
C1480 C1485 1.399 1_455 S
C1481 C1480 1.399 . S
C1481 C1482 1.376 1_455 S
C1482 H1469 0.930 . S
C1482 C1481 1.376 1_655 S
C1482 C1483 1.388 . S
C1483 H1470 0.930 . S
C1483 C1482 1.388 . S
C1483 C1484 1.390 . S
C1484 C1483 1.390 . S
C1484 C1485 1.394 . S
C1484 C1490 1.465 . S
C1485 C1480 1.399 1_655 S
C1485 C1484 1.394 . S
C1485 C1486 1.516 . S
C1486 C1485 1.516 . S
C1486 C1487 1.502 1_655 S
C1486 C1488 1.561 . S
C1486 C1489 1.526 . S
C1487 H1471 0.959 . S
C1487 H1472 0.959 . S
C1487 H1473 0.961 . S
C1487 C1486 1.502 1_455 S
C1488 H1474 0.960 . S
C1488 H1475 0.961 . S
C1488 H1476 0.959 . S
C1488 C1486 1.561 . S
C1489 C1486 1.526 . S
C1489 C1490 1.396 . S
C1489 C1494 1.390 . S
C1490 C1484 1.465 . S
C1490 C1489 1.396 . S
C1490 C1491 1.399 . S
C1491 H1477 0.929 . S
C1491 C1490 1.399 . S
C1491 C1492 1.385 . S
C1492 H1478 0.931 . S
C1492 C1491 1.385 . S
C1492 C1493 1.389 . S
C1493 C1492 1.389 . S
C1493 C1494 1.387 . S
C1494 H1479 0.930 . S
C1494 C1489 1.390 . S
C1494 C1493 1.387 . S
H1495 C1507 0.930 . S
H1496 C1509 0.930 . S
H1497 C1510 0.930 . S
H1498 C1514 0.959 . S
H1499 C1514 0.959 . S
H1500 C1514 0.961 . S
H1501 C1515 0.960 . S
H1502 C1515 0.961 . S
H1503 C1515 0.959 . S
H1504 C1518 0.929 . S
H1505 C1519 0.931 . S
H1506 C1521 0.930 . S
C1507 H1495 0.930 . S
C1507 C1508 1.399 . S
C1507 C1512 1.399 . S
C1508 C1507 1.399 . S
C1508 C1509 1.376 1_565 S
C1509 H1496 0.930 . S
C1509 C1508 1.376 1_545 S
C1509 C1510 1.388 . S
C1510 H1497 0.930 . S
C1510 C1509 1.388 . S
C1510 C1511 1.390 1_545 S
C1511 C1510 1.390 1_565 S
C1511 C1512 1.394 . S
C1511 C1517 1.465 . S
C1512 C1507 1.399 . S
C1512 C1511 1.394 . S
C1512 C1513 1.516 . S
C1513 C1512 1.516 . S
C1513 C1514 1.502 . S
C1513 C1515 1.561 . S
C1513 C1516 1.526 . S
C1514 H1498 0.959 . S
C1514 H1499 0.959 . S
C1514 H1500 0.961 . S
C1514 C1513 1.502 . S
C1515 H1501 0.960 . S
C1515 H1502 0.961 . S
C1515 H1503 0.959 . S
C1515 C1513 1.561 . S
C1516 C1513 1.526 . S
C1516 C1517 1.396 . S
C1516 C1521 1.390 . S
C1517 C1511 1.465 . S
C1517 C1516 1.396 . S
C1517 C1518 1.399 . S
C1518 H1504 0.929 . S
C1518 C1517 1.399 . S
C1518 C1519 1.385 . S
C1519 H1505 0.931 . S
C1519 C1518 1.385 . S
C1519 C1520 1.389 . S
C1520 C1519 1.389 . S
C1520 C1521 1.387 . S
C1521 H1506 0.930 . S
C1521 C1516 1.390 . S
C1521 C1520 1.387 . S
H1522 C1534 0.930 . S
H1523 C1536 0.930 . S
H1524 C1537 0.930 1_455 S
H1525 C1541 0.959 . S
H1526 C1541 0.959 . S
H1527 C1541 0.961 . S
H1528 C1542 0.960 . S
H1529 C1542 0.961 . S
H1530 C1542 0.959 . S
H1531 C1545 0.929 . S
H1532 C1546 0.931 . S
H1533 C1548 0.930 . S
C1534 H1522 0.930 . S
C1534 C1535 1.399 . S
C1534 C1539 1.399 . S
C1535 C1534 1.399 . S
C1535 C1536 1.376 1_565 S
C1536 H1523 0.930 . S
C1536 C1535 1.376 1_545 S
C1536 C1537 1.388 . S
C1537 H1524 0.930 1_655 S
C1537 C1536 1.388 . S
C1537 C1538 1.390 1_545 S
C1538 C1537 1.390 1_565 S
C1538 C1539 1.394 . S
C1538 C1544 1.465 . S
C1539 C1534 1.399 . S
C1539 C1538 1.394 . S
C1539 C1540 1.516 . S
C1540 C1539 1.516 . S
C1540 C1541 1.502 . S
C1540 C1542 1.561 . S
C1540 C1543 1.526 . S
C1541 H1525 0.959 . S
C1541 H1526 0.959 . S
C1541 H1527 0.961 . S
C1541 C1540 1.502 . S
C1542 H1528 0.960 . S
C1542 H1529 0.961 . S
C1542 H1530 0.959 . S
C1542 C1540 1.561 . S
C1543 C1540 1.526 . S
C1543 C1544 1.396 . S
C1543 C1548 1.390 . S
C1544 C1538 1.465 . S
C1544 C1543 1.396 . S
C1544 C1545 1.399 1_655 S
C1545 H1531 0.929 . S
C1545 C1544 1.399 1_455 S
C1545 C1546 1.385 . S
C1546 H1532 0.931 . S
C1546 C1545 1.385 . S
C1546 C1547 1.389 . S
C1547 C1546 1.389 . S
C1547 C1548 1.387 1_455 S
C1548 H1533 0.930 . S
C1548 C1543 1.390 . S
C1548 C1547 1.387 1_655 S
H1549 C1561 0.930 . S
H1550 C1563 0.930 . S
H1551 C1564 0.930 . S
H1552 C1568 0.959 . S
H1553 C1568 0.959 . S
H1554 C1568 0.961 . S
H1555 C1569 0.960 . S
H1556 C1569 0.961 . S
H1557 C1569 0.959 . S
H1558 C1572 0.929 . S
H1559 C1573 0.931 . S
H1560 C1575 0.930 . S
C1561 H1549 0.930 . S
C1561 C1562 1.399 . S
C1561 C1566 1.399 . S
C1562 C1561 1.399 . S
C1562 C1563 1.376 . S
C1563 H1550 0.930 . S
C1563 C1562 1.376 . S
C1563 C1564 1.388 . S
C1564 H1551 0.930 . S
C1564 C1563 1.388 . S
C1564 C1565 1.390 . S
C1565 C1564 1.390 . S
C1565 C1566 1.394 . S
C1565 C1571 1.465 . S
C1566 C1561 1.399 . S
C1566 C1565 1.394 . S
C1566 C1567 1.516 . S
C1567 C1566 1.516 . S
C1567 C1568 1.502 . S
C1567 C1569 1.561 . S
C1567 C1570 1.526 . S
C1568 H1552 0.959 . S
C1568 H1553 0.959 . S
C1568 H1554 0.961 . S
C1568 C1567 1.502 . S
C1569 H1555 0.960 . S
C1569 H1556 0.961 . S
C1569 H1557 0.959 . S
C1569 C1567 1.561 . S
C1570 C1567 1.526 . S
C1570 C1571 1.396 . S
C1570 C1575 1.390 . S
C1571 C1565 1.465 . S
C1571 C1570 1.396 . S
C1571 C1572 1.399 . S
C1572 H1558 0.929 . S
C1572 C1571 1.399 . S
C1572 C1573 1.385 . S
C1573 H1559 0.931 . S
C1573 C1572 1.385 . S
C1573 C1574 1.389 . S
C1574 C1573 1.389 . S
C1574 C1575 1.387 . S
C1575 H1560 0.930 . S
C1575 C1570 1.390 . S
C1575 C1574 1.387 . S
H1576 C1588 0.930 . S
H1577 C1590 0.930 . S
H1578 C1591 0.930 . S
H1579 C1595 0.987 . S
H1580 C1595 0.969 . S
H1581 C1595 0.950 1_455 S
H1582 C1596 0.960 . S
H1583 C1596 0.961 . S
H1584 C1596 0.959 . S
H1585 C1599 0.929 . S
H1586 C1600 0.931 . S
H1587 C1602 0.930 . S
C1588 H1576 0.930 . S
C1588 C1589 1.399 . S
C1588 C1593 1.399 . S
C1589 C1588 1.399 . S
C1589 C1590 1.376 . S
C1590 H1577 0.930 . S
C1590 C1589 1.376 . S
C1590 C1591 1.388 . S
C1591 H1578 0.930 . S
C1591 C1590 1.388 . S
C1591 C1592 1.390 . S
C1592 C1591 1.390 . S
C1592 C1593 1.394 . S
C1592 C1598 1.465 . S
C1593 C1588 1.399 . S
C1593 C1592 1.394 . S
C1593 C1594 1.516 . S
C1594 C1593 1.516 . S
C1594 C1595 1.478 1_455 S
C1594 C1596 1.561 . S
C1594 C1597 1.526 . S
C1595 H1579 0.987 . S
C1595 H1580 0.969 . S
C1595 H1581 0.950 1_655 S
C1595 C1594 1.478 1_655 S
C1596 H1582 0.960 . S
C1596 H1583 0.961 . S
C1596 H1584 0.959 . S
C1596 C1594 1.561 . S
C1597 C1594 1.526 . S
C1597 C1598 1.396 . S
C1597 C1602 1.390 1_455 S
C1598 C1592 1.465 . S
C1598 C1597 1.396 . S
C1598 C1599 1.399 . S
C1599 H1585 0.929 . S
C1599 C1598 1.399 . S
C1599 C1600 1.385 1_455 S
C1600 H1586 0.931 . S
C1600 C1599 1.385 1_655 S
C1600 C1601 1.389 . S
C1601 C1600 1.389 . S
C1601 C1602 1.387 . S
C1602 H1587 0.930 . S
C1602 C1597 1.390 1_655 S
C1602 C1601 1.387 . S
H1603 C1615 0.930 . S
H1604 C1617 0.930 . S
H1605 C1618 0.930 . S
H1606 C1622 0.959 . S
H1607 C1622 0.959 . S
H1608 C1622 0.961 . S
H1609 C1623 0.960 . S
H1610 C1623 0.961 . S
H1611 C1623 0.959 . S
H1612 C1626 0.929 . S
H1613 C1627 0.931 . S
H1614 C1629 0.930 . S
C1615 H1603 0.930 . S
C1615 C1616 1.399 . S
C1615 C1620 1.399 . S
C1616 C1615 1.399 . S
C1616 C1617 1.376 . S
C1617 H1604 0.930 . S
C1617 C1616 1.376 . S
C1617 C1618 1.388 . S
C1618 H1605 0.930 . S
C1618 C1617 1.388 . S
C1618 C1619 1.390 . S
C1619 C1618 1.390 . S
C1619 C1620 1.394 . S
C1619 C1625 1.465 . S
C1620 C1615 1.399 . S
C1620 C1619 1.394 . S
C1620 C1621 1.516 . S
C1621 C1620 1.516 . S
C1621 C1622 1.502 . S
C1621 C1623 1.561 . S
C1621 C1624 1.526 . S
C1622 H1606 0.959 . S
C1622 H1607 0.959 . S
C1622 H1608 0.961 . S
C1622 C1621 1.502 . S
C1623 H1609 0.960 . S
C1623 H1610 0.961 . S
C1623 H1611 0.959 . S
C1623 C1621 1.561 . S
C1624 C1621 1.526 . S
C1624 C1625 1.396 . S
C1624 C1629 1.390 . S
C1625 C1619 1.465 . S
C1625 C1624 1.396 . S
C1625 C1626 1.399 . S
C1626 H1612 0.929 . S
C1626 C1625 1.399 . S
C1626 C1627 1.385 . S
C1627 H1613 0.931 . S
C1627 C1626 1.385 . S
C1627 C1628 1.389 . S
C1628 C1627 1.389 . S
C1628 C1629 1.387 . S
C1629 H1614 0.930 . S
C1629 C1624 1.390 . S
C1629 C1628 1.387 . S
H1630 C1642 0.930 . S
H1631 C1644 0.930 . S
H1632 C1645 0.930 . S
H1633 C1649 0.959 . S
H1634 C1649 0.959 . S
H1635 C1649 0.961 1_655 S
H1636 C1650 0.960 . S
H1637 C1650 0.961 . S
H1638 C1650 0.959 . S
H1639 C1653 0.929 . S
H1640 C1654 0.931 . S
H1641 C1656 0.930 . S
C1642 H1630 0.930 . S
C1642 C1643 1.399 . S
C1642 C1647 1.399 1_655 S
C1643 C1642 1.399 . S
C1643 C1644 1.376 1_655 S
C1644 H1631 0.930 . S
C1644 C1643 1.376 1_455 S
C1644 C1645 1.388 . S
C1645 H1632 0.930 . S
C1645 C1644 1.388 . S
C1645 C1646 1.390 . S
C1646 C1645 1.390 . S
C1646 C1647 1.394 . S
C1646 C1652 1.465 . S
C1647 C1642 1.399 1_455 S
C1647 C1646 1.394 . S
C1647 C1648 1.516 . S
C1648 C1647 1.516 . S
C1648 C1649 1.502 . S
C1648 C1650 1.561 1_455 S
C1648 C1651 1.526 . S
C1649 H1633 0.959 . S
C1649 H1634 0.959 . S
C1649 H1635 0.961 1_455 S
C1649 C1648 1.502 . S
C1650 H1636 0.960 . S
C1650 H1637 0.961 . S
C1650 H1638 0.959 . S
C1650 C1648 1.561 1_655 S
C1651 C1648 1.526 . S
C1651 C1652 1.396 . S
C1651 C1656 1.390 . S
C1652 C1646 1.465 . S
C1652 C1651 1.396 . S
C1652 C1653 1.399 . S
C1653 H1639 0.929 . S
C1653 C1652 1.399 . S
C1653 C1654 1.385 . S
C1654 H1640 0.931 . S
C1654 C1653 1.385 . S
C1654 C1655 1.389 . S
C1655 C1654 1.389 . S
C1655 C1656 1.387 . S
C1656 H1641 0.930 . S
C1656 C1651 1.390 . S
C1656 C1655 1.387 . S
H1657 C1669 0.930 . S
H1658 C1671 0.930 . S
H1659 C1672 0.930 . S
H1660 C1676 0.959 . S
H1661 C1676 0.959 . S
H1662 C1676 0.961 . S
H1663 C1677 0.960 . S
H1664 C1677 0.961 . S
H1665 C1677 0.959 . S
H1666 C1680 0.929 . S
H1667 C1681 0.931 . S
H1668 C1683 0.930 . S
C1669 H1657 0.930 . S
C1669 C1670 1.399 . S
C1669 C1674 1.399 . S
C1670 C1669 1.399 . S
C1670 C1671 1.376 . S
C1671 H1658 0.930 . S
C1671 C1670 1.376 . S
C1671 C1672 1.388 . S
C1672 H1659 0.930 . S
C1672 C1671 1.388 . S
C1672 C1673 1.390 . S
C1673 C1672 1.390 . S
C1673 C1674 1.394 . S
C1673 C1679 1.465 . S
C1674 C1669 1.399 . S
C1674 C1673 1.394 . S
C1674 C1675 1.516 . S
C1675 C1674 1.516 . S
C1675 C1676 1.502 . S
C1675 C1677 1.561 . S
C1675 C1678 1.526 . S
C1676 H1660 0.959 . S
C1676 H1661 0.959 . S
C1676 H1662 0.961 . S
C1676 C1675 1.502 . S
C1677 H1663 0.960 . S
C1677 H1664 0.961 . S
C1677 H1665 0.959 . S
C1677 C1675 1.561 . S
C1678 C1675 1.526 . S
C1678 C1679 1.396 . S
C1678 C1683 1.390 . S
C1679 C1673 1.465 . S
C1679 C1678 1.396 . S
C1679 C1680 1.399 . S
C1680 H1666 0.929 . S
C1680 C1679 1.399 . S
C1680 C1681 1.385 . S
C1681 H1667 0.931 . S
C1681 C1680 1.385 . S
C1681 C1682 1.389 . S
C1682 C1681 1.389 . S
C1682 C1683 1.387 . S
C1683 H1668 0.930 . S
C1683 C1678 1.390 . S
C1683 C1682 1.387 . S
H1684 C1696 0.930 . S
H1685 C1698 0.930 . S
H1686 C1699 0.930 . S
H1687 C1703 0.959 . S
H1688 C1703 0.959 . S
H1689 C1703 0.961 . S
H1690 C1704 0.960 . S
H1691 C1704 0.961 . S
H1692 C1704 0.959 . S
H1693 C1707 0.929 . S
H1694 C1708 0.929 1_455 S
H1695 C1710 0.930 . S
C1696 H1684 0.930 . S
C1696 C1697 1.399 . S
C1696 C1701 1.399 . S
C1697 C1696 1.399 . S
C1697 C1698 1.376 . S
C1698 H1685 0.930 . S
C1698 C1697 1.376 . S
C1698 C1699 1.388 . S
C1699 H1686 0.930 . S
C1699 C1698 1.388 . S
C1699 C1700 1.390 . S
C1700 C1699 1.390 . S
C1700 C1701 1.394 . S
C1700 C1706 1.465 . S
C1701 C1696 1.399 . S
C1701 C1700 1.394 . S
C1701 C1702 1.516 . S
C1702 C1701 1.516 . S
C1702 C1703 1.502 . S
C1702 C1704 1.561 1_655 S
C1702 C1705 1.526 . S
C1703 H1687 0.959 . S
C1703 H1688 0.959 . S
C1703 H1689 0.961 . S
C1703 C1702 1.502 . S
C1704 H1690 0.960 . S
C1704 H1691 0.961 . S
C1704 H1692 0.959 . S
C1704 C1702 1.561 1_455 S
C1705 C1702 1.526 . S
C1705 C1706 1.396 . S
C1705 C1710 1.390 1_655 S
C1706 C1700 1.465 . S
C1706 C1705 1.396 . S
C1706 C1707 1.399 . S
C1707 H1693 0.929 . S
C1707 C1706 1.399 . S
C1707 C1708 1.405 . S
C1708 H1694 0.929 1_655 S
C1708 C1707 1.405 . S
C1708 C1709 1.374 1_655 S
C1709 C1708 1.374 1_455 S
C1709 C1710 1.387 . S
C1710 H1695 0.930 . S
C1710 C1705 1.390 1_455 S
C1710 C1709 1.387 . S
H1711 C1723 0.930 . S
H1712 C1725 0.930 . S
H1713 C1726 0.930 . S
H1714 C1730 0.959 . S
H1715 C1730 0.959 . S
H1716 C1730 0.961 . S
H1717 C1731 0.960 . S
H1718 C1731 0.961 . S
H1719 C1731 0.959 . S
H1720 C1734 0.929 . S
H1721 C1735 0.931 . S
H1722 C1737 0.930 . S
C1723 H1711 0.930 . S
C1723 C1724 1.399 . S
C1723 C1728 1.399 . S
C1724 C1723 1.399 . S
C1724 C1725 1.376 . S
C1725 H1712 0.930 . S
C1725 C1724 1.376 . S
C1725 C1726 1.388 . S
C1726 H1713 0.930 . S
C1726 C1725 1.388 . S
C1726 C1727 1.390 . S
C1727 C1726 1.390 . S
C1727 C1728 1.394 . S
C1727 C1733 1.465 . S
C1728 C1723 1.399 . S
C1728 C1727 1.394 . S
C1728 C1729 1.516 . S
C1729 C1728 1.516 . S
C1729 C1730 1.502 . S
C1729 C1731 1.561 . S
C1729 C1732 1.526 . S
C1730 H1714 0.959 . S
C1730 H1715 0.959 . S
C1730 H1716 0.961 . S
C1730 C1729 1.502 . S
C1731 H1717 0.960 . S
C1731 H1718 0.961 . S
C1731 H1719 0.959 . S
C1731 C1729 1.561 . S
C1732 C1729 1.526 . S
C1732 C1733 1.396 . S
C1732 C1737 1.390 . S
C1733 C1727 1.465 . S
C1733 C1732 1.396 . S
C1733 C1734 1.399 . S
C1734 H1720 0.929 . S
C1734 C1733 1.399 . S
C1734 C1735 1.385 . S
C1735 H1721 0.931 . S
C1735 C1734 1.385 . S
C1735 C1736 1.389 . S
C1736 C1735 1.389 . S
C1736 C1737 1.387 . S
C1737 H1722 0.930 . S
C1737 C1732 1.390 . S
C1737 C1736 1.387 . S
H1738 C1750 0.930 . S
H1739 C1752 0.930 . S
H1740 C1753 0.930 . S
H1741 C1757 0.959 . S
H1742 C1757 0.959 . S
H1743 C1757 0.961 . S
H1744 C1758 0.960 . S
H1745 C1758 0.961 . S
H1746 C1758 0.959 . S
H1747 C1761 0.929 . S
H1748 C1762 0.931 . S
H1749 C1764 0.930 . S
C1750 H1738 0.930 . S
C1750 C1751 1.399 . S
C1750 C1755 1.399 . S
C1751 C1750 1.399 . S
C1751 C1752 1.376 . S
C1752 H1739 0.930 . S
C1752 C1751 1.376 . S
C1752 C1753 1.388 . S
C1753 H1740 0.930 . S
C1753 C1752 1.388 . S
C1753 C1754 1.390 . S
C1754 C1753 1.390 . S
C1754 C1755 1.394 . S
C1754 C1760 1.465 . S
C1755 C1750 1.399 . S
C1755 C1754 1.394 . S
C1755 C1756 1.516 1_655 S
C1756 C1755 1.516 1_455 S
C1756 C1757 1.502 . S
C1756 C1758 1.561 . S
C1756 C1759 1.526 . S
C1757 H1741 0.959 . S
C1757 H1742 0.959 . S
C1757 H1743 0.961 . S
C1757 C1756 1.502 . S
C1758 H1744 0.960 . S
C1758 H1745 0.961 . S
C1758 H1746 0.959 . S
C1758 C1756 1.561 . S
C1759 C1756 1.526 . S
C1759 C1760 1.396 1_455 S
C1759 C1764 1.390 . S
C1760 C1754 1.465 . S
C1760 C1759 1.396 1_655 S
C1760 C1761 1.399 . S
C1761 H1747 0.929 . S
C1761 C1760 1.399 . S
C1761 C1762 1.385 . S
C1762 H1748 0.931 . S
C1762 C1761 1.385 . S
C1762 C1763 1.389 1_655 S
C1763 C1762 1.389 1_455 S
C1763 C1764 1.387 . S
C1764 H1749 0.930 . S
C1764 C1759 1.390 . S
C1764 C1763 1.387 . S
H1765 C1777 0.930 . S
H1766 C1779 0.930 . S
H1767 C1780 0.930 . S
H1768 C1784 0.959 . S
H1769 C1784 0.959 . S
H1770 C1784 0.961 . S
H1771 C1785 0.960 . S
H1772 C1785 0.961 . S
H1773 C1785 0.959 . S
H1774 C1788 0.929 . S
H1775 C1789 0.931 . S
H1776 C1791 0.930 . S
C1777 H1765 0.930 . S
C1777 C1778 1.399 . S
C1777 C1782 1.399 . S
C1778 C1777 1.399 . S
C1778 C1779 1.376 . S
C1779 H1766 0.930 . S
C1779 C1778 1.376 . S
C1779 C1780 1.388 . S
C1780 H1767 0.930 . S
C1780 C1779 1.388 . S
C1780 C1781 1.390 . S
C1781 C1780 1.390 . S
C1781 C1782 1.394 . S
C1781 C1787 1.465 . S
C1782 C1777 1.399 . S
C1782 C1781 1.394 . S
C1782 C1783 1.516 . S
C1783 C1782 1.516 . S
C1783 C1784 1.502 . S
C1783 C1785 1.561 . S
C1783 C1786 1.526 . S
C1784 H1768 0.959 . S
C1784 H1769 0.959 . S
C1784 H1770 0.961 . S
C1784 C1783 1.502 . S
C1785 H1771 0.960 . S
C1785 H1772 0.961 . S
C1785 H1773 0.959 . S
C1785 C1783 1.561 . S
C1786 C1783 1.526 . S
C1786 C1787 1.396 . S
C1786 C1791 1.390 . S
C1787 C1781 1.465 . S
C1787 C1786 1.396 . S
C1787 C1788 1.399 . S
C1788 H1774 0.929 . S
C1788 C1787 1.399 . S
C1788 C1789 1.385 . S
C1789 H1775 0.931 . S
C1789 C1788 1.385 . S
C1789 C1790 1.389 . S
C1790 C1789 1.389 . S
C1790 C1791 1.387 . S
C1791 H1776 0.930 . S
C1791 C1786 1.390 . S
C1791 C1790 1.387 . S
H1792 C1804 0.930 . S
H1793 C1806 0.930 . S
H1794 C1807 0.930 . S
H1795 C1811 0.959 . S
H1796 C1811 0.959 . S
H1797 C1811 0.961 . S
H1798 C1812 0.960 . S
H1799 C1812 0.961 . S
H1800 C1812 0.959 . S
H1801 C1815 0.929 . S
H1802 C1816 0.931 . S
H1803 C1818 0.930 . S
C1804 H1792 0.930 . S
C1804 C1805 1.399 . S
C1804 C1809 1.399 . S
C1805 C1804 1.399 . S
C1805 C1806 1.376 . S
C1806 H1793 0.930 . S
C1806 C1805 1.376 . S
C1806 C1807 1.388 . S
C1807 H1794 0.930 . S
C1807 C1806 1.388 . S
C1807 C1808 1.390 . S
C1808 C1807 1.390 . S
C1808 C1809 1.394 . S
C1808 C1814 1.465 . S
C1809 C1804 1.399 . S
C1809 C1808 1.394 . S
C1809 C1810 1.516 . S
C1810 C1809 1.516 . S
C1810 C1811 1.502 . S
C1810 C1812 1.561 . S
C1810 C1813 1.526 . S
C1811 H1795 0.959 . S
C1811 H1796 0.959 . S
C1811 H1797 0.961 . S
C1811 C1810 1.502 . S
C1812 H1798 0.960 . S
C1812 H1799 0.961 . S
C1812 H1800 0.959 . S
C1812 C1810 1.561 . S
C1813 C1810 1.526 . S
C1813 C1814 1.396 . S
C1813 C1818 1.390 . S
C1814 C1808 1.465 . S
C1814 C1813 1.396 . S
C1814 C1815 1.399 . S
C1815 H1801 0.929 . S
C1815 C1814 1.399 . S
C1815 C1816 1.385 . S
C1816 H1802 0.931 . S
C1816 C1815 1.385 . S
C1816 C1817 1.389 . S
C1817 C1816 1.389 . S
C1817 C1818 1.387 . S
C1818 H1803 0.930 . S
C1818 C1813 1.390 . S
C1818 C1817 1.387 . S
H1819 C1831 0.930 . S
H1820 C1833 0.930 . S
H1821 C1834 0.930 . S
H1822 C1838 0.959 1_565 S
H1823 C1838 0.959 . S
H1824 C1838 0.961 1_565 S
H1825 C1839 0.960 . S
H1826 C1839 0.961 . S
H1827 C1839 0.959 . S
H1828 C1842 0.929 . S
H1829 C1843 0.931 . S
H1830 C1845 0.930 . S
C1831 H1819 0.930 . S
C1831 C1832 1.399 . S
C1831 C1836 1.399 . S
C1832 C1831 1.399 . S
C1832 C1833 1.376 . S
C1833 H1820 0.930 . S
C1833 C1832 1.376 . S
C1833 C1834 1.388 . S
C1834 H1821 0.930 . S
C1834 C1833 1.388 . S
C1834 C1835 1.390 . S
C1835 C1834 1.390 . S
C1835 C1836 1.394 . S
C1835 C1841 1.465 . S
C1836 C1831 1.399 . S
C1836 C1835 1.394 . S
C1836 C1837 1.516 . S
C1837 C1836 1.516 . S
C1837 C1838 1.502 . S
C1837 C1839 1.561 . S
C1837 C1840 1.526 . S
C1838 H1822 0.959 1_545 S
C1838 H1823 0.959 . S
C1838 H1824 0.961 1_545 S
C1838 C1837 1.502 . S
C1839 H1825 0.960 . S
C1839 H1826 0.961 . S
C1839 H1827 0.959 . S
C1839 C1837 1.561 . S
C1840 C1837 1.526 . S
C1840 C1841 1.396 . S
C1840 C1845 1.390 . S
C1841 C1835 1.465 . S
C1841 C1840 1.396 . S
C1841 C1842 1.399 . S
C1842 H1828 0.929 . S
C1842 C1841 1.399 . S
C1842 C1843 1.385 . S
C1843 H1829 0.931 . S
C1843 C1842 1.385 . S
C1843 C1844 1.389 . S
C1844 C1843 1.389 . S
C1844 C1845 1.387 . S
C1845 H1830 0.930 . S
C1845 C1840 1.390 . S
C1845 C1844 1.387 . S
H1846 C1858 0.930 . S
H1847 C1860 0.930 . S
H1848 C1861 0.930 . S
H1849 C1865 0.963 . S
H1850 C1865 0.955 1_565 S
H1851 C1865 0.960 1_565 S
H1852 C1866 0.960 . S
H1853 C1866 0.961 . S
H1854 C1866 0.959 . S
H1855 C1869 0.929 . S
H1856 C1870 0.931 . S
H1857 C1872 0.930 1_565 S
C1858 H1846 0.930 . S
C1858 C1859 1.399 . S
C1858 C1863 1.399 . S
C1859 C1858 1.399 . S
C1859 C1860 1.376 . S
C1860 H1847 0.930 . S
C1860 C1859 1.376 . S
C1860 C1861 1.388 . S
C1861 H1848 0.930 . S
C1861 C1860 1.388 . S
C1861 C1862 1.390 . S
C1862 C1861 1.390 . S
C1862 C1863 1.394 . S
C1862 C1868 1.465 . S
C1863 C1858 1.399 . S
C1863 C1862 1.394 . S
C1863 C1864 1.516 . S
C1864 C1863 1.516 . S
C1864 C1865 1.504 . S
C1864 C1866 1.561 1_545 S
C1864 C1867 1.526 . S
C1865 H1849 0.963 . S
C1865 H1850 0.955 1_545 S
C1865 H1851 0.960 1_545 S
C1865 C1864 1.504 . S
C1866 H1852 0.960 . S
C1866 H1853 0.961 . S
C1866 H1854 0.959 . S
C1866 C1864 1.561 1_565 S
C1867 C1864 1.526 . S
C1867 C1868 1.396 . S
C1867 C1872 1.390 . S
C1868 C1862 1.465 . S
C1868 C1867 1.396 . S
C1868 C1869 1.399 . S
C1869 H1855 0.929 . S
C1869 C1868 1.399 . S
C1869 C1870 1.385 . S
C1870 H1856 0.931 . S
C1870 C1869 1.385 . S
C1870 C1871 1.389 . S
C1871 C1870 1.389 . S
C1871 C1872 1.387 . S
C1872 H1857 0.930 1_545 S
C1872 C1867 1.390 . S
C1872 C1871 1.387 . S
H1873 C1885 0.930 . S
H1874 C1887 0.930 . S
H1875 C1888 0.930 . S
H1876 C1892 0.959 . S
H1877 C1892 0.959 . S
H1878 C1892 0.961 . S
H1879 C1893 0.960 . S
H1880 C1893 0.961 . S
H1881 C1893 0.959 . S
H1882 C1896 0.929 . S
H1883 C1897 0.931 . S
H1884 C1899 0.930 . S
C1885 H1873 0.930 . S
C1885 C1886 1.399 . S
C1885 C1890 1.399 . S
C1886 C1885 1.399 . S
C1886 C1887 1.376 . S
C1887 H1874 0.930 . S
C1887 C1886 1.376 . S
C1887 C1888 1.388 . S
C1888 H1875 0.930 . S
C1888 C1887 1.388 . S
C1888 C1889 1.390 . S
C1889 C1888 1.390 . S
C1889 C1890 1.394 . S
C1889 C1895 1.465 . S
C1890 C1885 1.399 . S
C1890 C1889 1.394 . S
C1890 C1891 1.516 . S
C1891 C1890 1.516 . S
C1891 C1892 1.502 . S
C1891 C1893 1.561 . S
C1891 C1894 1.526 . S
C1892 H1876 0.959 . S
C1892 H1877 0.959 . S
C1892 H1878 0.961 . S
C1892 C1891 1.502 . S
C1893 H1879 0.960 . S
C1893 H1880 0.961 . S
C1893 H1881 0.959 . S
C1893 C1891 1.561 . S
C1894 C1891 1.526 . S
C1894 C1895 1.396 . S
C1894 C1899 1.390 . S
C1895 C1889 1.465 . S
C1895 C1894 1.396 . S
C1895 C1896 1.399 . S
C1896 H1882 0.929 . S
C1896 C1895 1.399 . S
C1896 C1897 1.385 . S
C1897 H1883 0.931 . S
C1897 C1896 1.385 . S
C1897 C1898 1.389 . S
C1898 C1897 1.389 . S
C1898 C1899 1.387 . S
C1899 H1884 0.930 . S
C1899 C1894 1.390 . S
C1899 C1898 1.387 . S
H1900 C1912 0.930 . S
H1901 C1914 0.930 . S
H1902 C1915 0.930 . S
H1903 C1919 0.959 . S
H1904 C1919 0.959 . S
H1905 C1919 0.961 . S
H1906 C1920 0.960 . S
H1907 C1920 0.961 . S
H1908 C1920 0.959 . S
H1909 C1923 0.929 . S
H1910 C1924 0.931 . S
H1911 C1926 0.930 . S
C1912 H1900 0.930 . S
C1912 C1913 1.399 . S
C1912 C1917 1.399 . S
C1913 C1912 1.399 . S
C1913 C1914 1.376 . S
C1914 H1901 0.930 . S
C1914 C1913 1.376 . S
C1914 C1915 1.388 . S
C1915 H1902 0.930 . S
C1915 C1914 1.388 . S
C1915 C1916 1.390 . S
C1916 C1915 1.390 . S
C1916 C1917 1.394 . S
C1916 C1922 1.465 . S
C1917 C1912 1.399 . S
C1917 C1916 1.394 . S
C1917 C1918 1.516 . S
C1918 C1917 1.516 . S
C1918 C1919 1.502 . S
C1918 C1920 1.561 . S
C1918 C1921 1.526 . S
C1919 H1903 0.959 . S
C1919 H1904 0.959 . S
C1919 H1905 0.961 . S
C1919 C1918 1.502 . S
C1920 H1906 0.960 . S
C1920 H1907 0.961 . S
C1920 H1908 0.959 . S
C1920 C1918 1.561 . S
C1921 C1918 1.526 . S
C1921 C1922 1.396 . S
C1921 C1926 1.390 . S
C1922 C1916 1.465 . S
C1922 C1921 1.396 . S
C1922 C1923 1.399 . S
C1923 H1909 0.929 . S
C1923 C1922 1.399 . S
C1923 C1924 1.385 . S
C1924 H1910 0.931 . S
C1924 C1923 1.385 . S
C1924 C1925 1.389 . S
C1925 C1924 1.389 . S
C1925 C1926 1.387 . S
C1926 H1911 0.930 . S
C1926 C1921 1.390 . S
C1926 C1925 1.387 . S
H1927 C1939 0.930 . S
H1928 C1941 0.930 . S
H1929 C1942 0.930 . S
H1930 C1946 0.959 . S
H1931 C1946 0.959 . S
H1932 C1946 0.961 . S
H1933 C1947 0.960 . S
H1934 C1947 0.961 . S
H1935 C1947 0.959 . S
H1936 C1950 0.929 . S
H1937 C1951 0.931 1_545 S
H1938 C1953 0.930 . S
C1939 H1927 0.930 . S
C1939 C1940 1.399 . S
C1939 C1944 1.399 . S
C1940 C1939 1.399 . S
C1940 C1941 1.376 . S
C1941 H1928 0.930 . S
C1941 C1940 1.376 . S
C1941 C1942 1.388 . S
C1942 H1929 0.930 . S
C1942 C1941 1.388 . S
C1942 C1943 1.390 . S
C1943 C1942 1.390 . S
C1943 C1944 1.394 . S
C1943 C1949 1.465 . S
C1944 C1939 1.399 . S
C1944 C1943 1.394 . S
C1944 C1945 1.516 . S
C1945 C1944 1.516 . S
C1945 C1946 1.502 . S
C1945 C1947 1.561 . S
C1945 C1948 1.526 . S
C1946 H1930 0.959 . S
C1946 H1931 0.959 . S
C1946 H1932 0.961 . S
C1946 C1945 1.502 . S
C1947 H1933 0.960 . S
C1947 H1934 0.961 . S
C1947 H1935 0.959 . S
C1947 C1945 1.561 . S
C1948 C1945 1.526 . S
C1948 C1949 1.396 . S
C1948 C1953 1.390 . S
C1949 C1943 1.465 . S
C1949 C1948 1.396 . S
C1949 C1950 1.399 . S
C1950 H1936 0.929 . S
C1950 C1949 1.399 . S
C1950 C1951 1.385 . S
C1951 H1937 0.931 1_565 S
C1951 C1950 1.385 . S
C1951 C1952 1.389 . S
C1952 C1951 1.389 . S
C1952 C1953 1.387 . S
C1953 H1938 0.930 . S
C1953 C1948 1.390 . S
C1953 C1952 1.387 . S
H1954 C1966 0.930 . S
H1955 C1968 0.930 . S
H1956 C1969 0.930 . S
H1957 C1973 0.959 . S
H1958 C1973 0.959 . S
H1959 C1973 0.961 . S
H1960 C1974 0.958 1_545 S
H1961 C1974 0.961 1_545 S
H1962 C1974 0.959 . S
H1963 C1977 0.929 . S
H1964 C1978 0.931 . S
H1965 C1980 0.930 1_545 S
C1966 H1954 0.930 . S
C1966 C1967 1.399 . S
C1966 C1971 1.399 . S
C1967 C1966 1.399 . S
C1967 C1968 1.376 . S
C1968 H1955 0.930 . S
C1968 C1967 1.376 . S
C1968 C1969 1.388 . S
C1969 H1956 0.930 . S
C1969 C1968 1.388 . S
C1969 C1970 1.390 . S
C1970 C1969 1.390 . S
C1970 C1971 1.394 . S
C1970 C1976 1.465 . S
C1971 C1966 1.399 . S
C1971 C1970 1.394 . S
C1971 C1972 1.516 . S
C1972 C1971 1.516 . S
C1972 C1973 1.502 1_565 S
C1972 C1974 1.561 . S
C1972 C1975 1.526 . S
C1973 H1957 0.959 . S
C1973 H1958 0.959 . S
C1973 H1959 0.961 . S
C1973 C1972 1.502 1_545 S
C1974 H1960 0.958 1_565 S
C1974 H1961 0.961 1_565 S
C1974 H1962 0.959 . S
C1974 C1972 1.561 . S
C1975 C1972 1.526 . S
C1975 C1976 1.396 . S
C1975 C1980 1.390 . S
C1976 C1970 1.465 . S
C1976 C1975 1.396 . S
C1976 C1977 1.399 . S
C1977 H1963 0.929 . S
C1977 C1976 1.399 . S
C1977 C1978 1.385 . S
C1978 H1964 0.931 . S
C1978 C1977 1.385 . S
C1978 C1979 1.389 . S
C1979 C1978 1.389 . S
C1979 C1980 1.387 . S
C1980 H1965 0.930 1_565 S
C1980 C1975 1.390 . S
C1980 C1979 1.387 . S
H1981 C1993 0.930 . S
H1982 C1995 0.930 . S
H1983 C1996 0.930 . S
H1984 C2000 0.959 . S
H1985 C2000 0.959 . S
H1986 C2000 0.961 . S
H1987 C2001 0.960 . S
H1988 C2001 0.961 . S
H1989 C2001 0.959 . S
H1990 C2004 0.929 . S
H1991 C2005 0.931 . S
H1992 C2007 0.930 . S
C1993 H1981 0.930 . S
C1993 C1994 1.399 . S
C1993 C1998 1.399 . S
C1994 C1993 1.399 . S
C1994 C1995 1.376 . S
C1995 H1982 0.930 . S
C1995 C1994 1.376 . S
C1995 C1996 1.388 . S
C1996 H1983 0.930 . S
C1996 C1995 1.388 . S
C1996 C1997 1.390 . S
C1997 C1996 1.390 . S
C1997 C1998 1.394 . S
C1997 C2003 1.465 . S
C1998 C1993 1.399 . S
C1998 C1997 1.394 . S
C1998 C1999 1.516 . S
C1999 C1998 1.516 . S
C1999 C2000 1.502 . S
C1999 C2001 1.561 . S
C1999 C2002 1.526 . S
C2000 H1984 0.959 . S
C2000 H1985 0.959 . S
C2000 H1986 0.961 . S
C2000 C1999 1.502 . S
C2001 H1987 0.960 . S
C2001 H1988 0.961 . S
C2001 H1989 0.959 . S
C2001 C1999 1.561 . S
C2002 C1999 1.526 . S
C2002 C2003 1.396 . S
C2002 C2007 1.390 . S
C2003 C1997 1.465 . S
C2003 C2002 1.396 . S
C2003 C2004 1.399 . S
C2004 H1990 0.929 . S
C2004 C2003 1.399 . S
C2004 C2005 1.385 . S
C2005 H1991 0.931 . S
C2005 C2004 1.385 . S
C2005 C2006 1.389 . S
C2006 C2005 1.389 . S
C2006 C2007 1.387 . S
C2007 H1992 0.930 . S
C2007 C2002 1.390 . S
C2007 C2006 1.387 . S
H2008 C2020 0.930 . S
H2009 C2022 0.930 . S
H2010 C2023 0.930 . S
H2011 C2027 0.959 . S
H2012 C2027 0.959 . S
H2013 C2027 0.961 . S
H2014 C2028 0.960 . S
H2015 C2028 0.961 . S
H2016 C2028 0.959 . S
H2017 C2031 0.929 . S
H2018 C2032 0.931 . S
H2019 C2034 0.930 . S
C2020 H2008 0.930 . S
C2020 C2021 1.399 . S
C2020 C2025 1.399 . S
C2021 C2020 1.399 . S
C2021 C2022 1.376 . S
C2022 H2009 0.930 . S
C2022 C2021 1.376 . S
C2022 C2023 1.388 . S
C2023 H2010 0.930 . S
C2023 C2022 1.388 . S
C2023 C2024 1.390 . S
C2024 C2023 1.390 . S
C2024 C2025 1.394 . S
C2024 C2030 1.465 . S
C2025 C2020 1.399 . S
C2025 C2024 1.394 . S
C2025 C2026 1.516 . S
C2026 C2025 1.516 . S
C2026 C2027 1.502 . S
C2026 C2028 1.561 . S
C2026 C2029 1.526 . S
C2027 H2011 0.959 . S
C2027 H2012 0.959 . S
C2027 H2013 0.961 . S
C2027 C2026 1.502 . S
C2028 H2014 0.960 . S
C2028 H2015 0.961 . S
C2028 H2016 0.959 . S
C2028 C2026 1.561 . S
C2029 C2026 1.526 . S
C2029 C2030 1.396 . S
C2029 C2034 1.390 . S
C2030 C2024 1.465 . S
C2030 C2029 1.396 . S
C2030 C2031 1.399 . S
C2031 H2017 0.929 . S
C2031 C2030 1.399 . S
C2031 C2032 1.385 . S
C2032 H2018 0.931 . S
C2032 C2031 1.385 . S
C2032 C2033 1.389 . S
C2033 C2032 1.389 . S
C2033 C2034 1.387 . S
C2034 H2019 0.930 . S
C2034 C2029 1.390 . S
C2034 C2033 1.387 . S
H2035 C2047 0.930 . S
H2036 C2049 0.930 . S
H2037 C2050 0.930 . S
H2038 C2054 0.959 . S
H2039 C2054 0.959 . S
H2040 C2054 0.961 . S
H2041 C2055 0.960 . S
H2042 C2055 0.961 . S
H2043 C2055 0.959 . S
H2044 C2058 0.929 . S
H2045 C2059 0.931 . S
H2046 C2061 0.930 . S
C2047 H2035 0.930 . S
C2047 C2048 1.399 . S
C2047 C2052 1.399 . S
C2048 C2047 1.399 . S
C2048 C2049 1.376 . S
C2049 H2036 0.930 . S
C2049 C2048 1.376 . S
C2049 C2050 1.388 . S
C2050 H2037 0.930 . S
C2050 C2049 1.388 . S
C2050 C2051 1.390 . S
C2051 C2050 1.390 . S
C2051 C2052 1.394 . S
C2051 C2057 1.465 . S
C2052 C2047 1.399 . S
C2052 C2051 1.394 . S
C2052 C2053 1.516 . S
C2053 C2052 1.516 . S
C2053 C2054 1.502 . S
C2053 C2055 1.561 . S
C2053 C2056 1.526 . S
C2054 H2038 0.959 . S
C2054 H2039 0.959 . S
C2054 H2040 0.961 . S
C2054 C2053 1.502 . S
C2055 H2041 0.960 . S
C2055 H2042 0.961 . S
C2055 H2043 0.959 . S
C2055 C2053 1.561 . S
C2056 C2053 1.526 . S
C2056 C2057 1.396 . S
C2056 C2061 1.390 . S
C2057 C2051 1.465 . S
C2057 C2056 1.396 . S
C2057 C2058 1.399 . S
C2058 H2044 0.929 . S
C2058 C2057 1.399 . S
C2058 C2059 1.385 . S
C2059 H2045 0.931 . S
C2059 C2058 1.385 . S
C2059 C2060 1.389 . S
C2060 C2059 1.389 . S
C2060 C2061 1.387 . S
C2061 H2046 0.930 . S
C2061 C2056 1.390 . S
C2061 C2060 1.387 . S
H2062 C2074 0.930 . S
H2063 C2076 0.930 . S
H2064 C2077 0.930 . S
H2065 C2081 0.959 . S
H2066 C2081 0.959 . S
H2067 C2081 0.961 . S
H2068 C2082 0.960 . S
H2069 C2082 0.961 . S
H2070 C2082 0.959 . S
H2071 C2085 0.929 . S
H2072 C2086 0.931 . S
H2073 C2088 0.930 . S
C2074 H2062 0.930 . S
C2074 C2075 1.399 . S
C2074 C2079 1.399 . S
C2075 C2074 1.399 . S
C2075 C2076 1.376 . S
C2076 H2063 0.930 . S
C2076 C2075 1.376 . S
C2076 C2077 1.388 . S
C2077 H2064 0.930 . S
C2077 C2076 1.388 . S
C2077 C2078 1.390 . S
C2078 C2077 1.390 . S
C2078 C2079 1.394 . S
C2078 C2084 1.465 . S
C2079 C2074 1.399 . S
C2079 C2078 1.394 . S
C2079 C2080 1.516 . S
C2080 C2079 1.516 . S
C2080 C2081 1.502 . S
C2080 C2082 1.561 . S
C2080 C2083 1.526 . S
C2081 H2065 0.959 . S
C2081 H2066 0.959 . S
C2081 H2067 0.961 . S
C2081 C2080 1.502 . S
C2082 H2068 0.960 . S
C2082 H2069 0.961 . S
C2082 H2070 0.959 . S
C2082 C2080 1.561 . S
C2083 C2080 1.526 . S
C2083 C2084 1.396 . S
C2083 C2088 1.390 . S
C2084 C2078 1.465 . S
C2084 C2083 1.396 . S
C2084 C2085 1.399 . S
C2085 H2071 0.929 . S
C2085 C2084 1.399 . S
C2085 C2086 1.385 . S
C2086 H2072 0.931 . S
C2086 C2085 1.385 . S
C2086 C2087 1.389 . S
C2087 C2086 1.389 . S
C2087 C2088 1.387 . S
C2088 H2073 0.930 . S
C2088 C2083 1.390 . S
C2088 C2087 1.387 . S
H2089 C2101 0.930 . S
H2090 C2103 0.930 . S
H2091 C2104 0.930 . S
H2092 C2108 0.959 . S
H2093 C2108 0.959 . S
H2094 C2108 0.961 . S
H2095 C2109 0.960 . S
H2096 C2109 0.961 . S
H2097 C2109 0.959 . S
H2098 C2112 0.929 . S
H2099 C2113 0.931 . S
H2100 C2115 0.930 . S
C2101 H2089 0.930 . S
C2101 C2102 1.399 . S
C2101 C2106 1.399 . S
C2102 C2101 1.399 . S
C2102 C2103 1.376 . S
C2103 H2090 0.930 . S
C2103 C2102 1.376 . S
C2103 C2104 1.388 . S
C2104 H2091 0.930 . S
C2104 C2103 1.388 . S
C2104 C2105 1.390 . S
C2105 C2104 1.390 . S
C2105 C2106 1.394 . S
C2105 C2111 1.465 . S
C2106 C2101 1.399 . S
C2106 C2105 1.394 . S
C2106 C2107 1.516 . S
C2107 C2106 1.516 . S
C2107 C2108 1.502 . S
C2107 C2109 1.561 . S
C2107 C2110 1.526 . S
C2108 H2092 0.959 . S
C2108 H2093 0.959 . S
C2108 H2094 0.961 . S
C2108 C2107 1.502 . S
C2109 H2095 0.960 . S
C2109 H2096 0.961 . S
C2109 H2097 0.959 . S
C2109 C2107 1.561 . S
C2110 C2107 1.526 . S
C2110 C2111 1.396 . S
C2110 C2115 1.390 . S
C2111 C2105 1.465 . S
C2111 C2110 1.396 . S
C2111 C2112 1.399 . S
C2112 H2098 0.929 . S
C2112 C2111 1.399 . S
C2112 C2113 1.385 . S
C2113 H2099 0.931 . S
C2113 C2112 1.385 . S
C2113 C2114 1.389 . S
C2114 C2113 1.389 . S
C2114 C2115 1.387 . S
C2115 H2100 0.930 . S
C2115 C2110 1.390 . S
C2115 C2114 1.387 . S
H2116 C2128 0.930 . S
H2117 C2130 0.930 . S
H2118 C2131 0.930 . S
H2119 C2135 0.959 . S
H2120 C2135 0.959 . S
H2121 C2135 0.961 . S
H2122 C2136 0.960 . S
H2123 C2136 0.961 . S
H2124 C2136 0.959 . S
H2125 C2139 0.929 . S
H2126 C2140 0.931 . S
H2127 C2142 0.930 . S
C2128 H2116 0.930 . S
C2128 C2129 1.399 . S
C2128 C2133 1.399 . S
C2129 C2128 1.399 . S
C2129 C2130 1.376 . S
C2130 H2117 0.930 . S
C2130 C2129 1.376 . S
C2130 C2131 1.388 . S
C2131 H2118 0.930 . S
C2131 C2130 1.388 . S
C2131 C2132 1.390 . S
C2132 C2131 1.390 . S
C2132 C2133 1.394 . S
C2132 C2138 1.465 . S
C2133 C2128 1.399 . S
C2133 C2132 1.394 . S
C2133 C2134 1.516 . S
C2134 C2133 1.516 . S
C2134 C2135 1.502 . S
C2134 C2136 1.561 . S
C2134 C2137 1.526 . S
C2135 H2119 0.959 . S
C2135 H2120 0.959 . S
C2135 H2121 0.961 . S
C2135 C2134 1.502 . S
C2136 H2122 0.960 . S
C2136 H2123 0.961 . S
C2136 H2124 0.959 . S
C2136 C2134 1.561 . S
C2137 C2134 1.526 . S
C2137 C2138 1.396 . S
C2137 C2142 1.390 . S
C2138 C2132 1.465 . S
C2138 C2137 1.396 . S
C2138 C2139 1.399 . S
C2139 H2125 0.929 . S
C2139 C2138 1.399 . S
C2139 C2140 1.385 . S
C2140 H2126 0.931 . S
C2140 C2139 1.385 . S
C2140 C2141 1.389 . S
C2141 C2140 1.389 . S
C2141 C2142 1.387 . S
C2142 H2127 0.930 . S
C2142 C2137 1.390 . S
C2142 C2141 1.387 . S
H2143 C2155 0.930 . S
H2144 C2157 0.930 . S
H2145 C2158 0.930 . S
H2146 C2162 0.959 . S
H2147 C2162 0.959 . S
H2148 C2162 0.961 . S
H2149 C2163 0.960 . S
H2150 C2163 0.961 . S
H2151 C2163 0.959 . S
H2152 C2166 0.929 . S
H2153 C2167 0.931 . S
H2154 C2169 0.930 . S
C2155 H2143 0.930 . S
C2155 C2156 1.399 . S
C2155 C2160 1.399 . S
C2156 C2155 1.399 . S
C2156 C2157 1.376 . S
C2157 H2144 0.930 . S
C2157 C2156 1.376 . S
C2157 C2158 1.388 . S
C2158 H2145 0.930 . S
C2158 C2157 1.388 . S
C2158 C2159 1.390 . S
C2159 C2158 1.390 . S
C2159 C2160 1.394 . S
C2159 C2165 1.465 . S
C2160 C2155 1.399 . S
C2160 C2159 1.394 . S
C2160 C2161 1.516 . S
C2161 C2160 1.516 . S
C2161 C2162 1.502 . S
C2161 C2163 1.561 . S
C2161 C2164 1.526 . S
C2162 H2146 0.959 . S
C2162 H2147 0.959 . S
C2162 H2148 0.961 . S
C2162 C2161 1.502 . S
C2163 H2149 0.960 . S
C2163 H2150 0.961 . S
C2163 H2151 0.959 . S
C2163 C2161 1.561 . S
C2164 C2161 1.526 . S
C2164 C2165 1.396 . S
C2164 C2169 1.390 . S
C2165 C2159 1.465 . S
C2165 C2164 1.396 . S
C2165 C2166 1.399 . S
C2166 H2152 0.929 . S
C2166 C2165 1.399 . S
C2166 C2167 1.385 . S
C2167 H2153 0.931 . S
C2167 C2166 1.385 . S
C2167 C2168 1.389 . S
C2168 C2167 1.389 . S
C2168 C2169 1.387 . S
C2169 H2154 0.930 . S
C2169 C2164 1.390 . S
C2169 C2168 1.387 . S
H2170 C2182 0.930 . S
H2171 C2184 0.930 . S
H2172 C2185 0.930 . S
H2173 C2189 0.959 . S
H2174 C2189 0.959 . S
H2175 C2189 0.961 . S
H2176 C2190 0.960 . S
H2177 C2190 0.961 . S
H2178 C2190 0.959 . S
H2179 C2193 0.929 . S
H2180 C2194 0.931 . S
H2181 C2196 0.930 . S
C2182 H2170 0.930 . S
C2182 C2183 1.399 . S
C2182 C2187 1.399 . S
C2183 C2182 1.399 . S
C2183 C2184 1.376 . S
C2184 H2171 0.930 . S
C2184 C2183 1.376 . S
C2184 C2185 1.388 . S
C2185 H2172 0.930 . S
C2185 C2184 1.388 . S
C2185 C2186 1.390 . S
C2186 C2185 1.390 . S
C2186 C2187 1.394 . S
C2186 C2192 1.465 . S
C2187 C2182 1.399 . S
C2187 C2186 1.394 . S
C2187 C2188 1.516 . S
C2188 C2187 1.516 . S
C2188 C2189 1.502 . S
C2188 C2190 1.561 . S
C2188 C2191 1.526 . S
C2189 H2173 0.959 . S
C2189 H2174 0.959 . S
C2189 H2175 0.961 . S
C2189 C2188 1.502 . S
C2190 H2176 0.960 . S
C2190 H2177 0.961 . S
C2190 H2178 0.959 . S
C2190 C2188 1.561 . S
C2191 C2188 1.526 . S
C2191 C2192 1.396 . S
C2191 C2196 1.390 . S
C2192 C2186 1.465 . S
C2192 C2191 1.396 . S
C2192 C2193 1.399 . S
C2193 H2179 0.929 . S
C2193 C2192 1.399 . S
C2193 C2194 1.385 . S
C2194 H2180 0.931 . S
C2194 C2193 1.385 . S
C2194 C2195 1.389 . S
C2195 C2194 1.389 . S
C2195 C2196 1.387 . S
C2196 H2181 0.930 . S
C2196 C2191 1.390 . S
C2196 C2195 1.387 . S
H2197 C2209 0.930 . S
H2198 C2211 0.930 . S
H2199 C2212 0.930 . S
H2200 C2216 0.959 . S
H2201 C2216 0.959 . S
H2202 C2216 0.961 . S
H2203 C2217 0.960 . S
H2204 C2217 0.961 . S
H2205 C2217 0.959 . S
H2206 C2220 0.929 . S
H2207 C2221 0.931 . S
H2208 C2223 0.930 . S
C2209 H2197 0.930 . S
C2209 C2210 1.399 . S
C2209 C2214 1.399 . S
C2210 C2209 1.399 . S
C2210 C2211 1.376 . S
C2211 H2198 0.930 . S
C2211 C2210 1.376 . S
C2211 C2212 1.388 . S
C2212 H2199 0.930 . S
C2212 C2211 1.388 . S
C2212 C2213 1.390 . S
C2213 C2212 1.390 . S
C2213 C2214 1.394 . S
C2213 C2219 1.465 . S
C2214 C2209 1.399 . S
C2214 C2213 1.394 . S
C2214 C2215 1.516 . S
C2215 C2214 1.516 . S
C2215 C2216 1.502 . S
C2215 C2217 1.561 . S
C2215 C2218 1.526 . S
C2216 H2200 0.959 . S
C2216 H2201 0.959 . S
C2216 H2202 0.961 . S
C2216 C2215 1.502 . S
C2217 H2203 0.960 . S
C2217 H2204 0.961 . S
C2217 H2205 0.959 . S
C2217 C2215 1.561 . S
C2218 C2215 1.526 . S
C2218 C2219 1.396 . S
C2218 C2223 1.390 . S
C2219 C2213 1.465 . S
C2219 C2218 1.396 . S
C2219 C2220 1.399 . S
C2220 H2206 0.929 . S
C2220 C2219 1.399 . S
C2220 C2221 1.385 . S
C2221 H2207 0.931 . S
C2221 C2220 1.385 . S
C2221 C2222 1.389 . S
C2222 C2221 1.389 . S
C2222 C2223 1.387 . S
C2223 H2208 0.930 . S
C2223 C2218 1.390 . S
C2223 C2222 1.387 . S
H2224 C2236 0.930 . S
H2225 C2238 0.930 . S
H2226 C2239 0.930 . S
H2227 C2243 0.959 . S
H2228 C2243 0.959 . S
H2229 C2243 0.961 . S
H2230 C2244 0.960 . S
H2231 C2244 0.961 . S
H2232 C2244 0.959 . S
H2233 C2247 0.929 . S
H2234 C2248 0.931 . S
H2235 C2250 0.930 . S
C2236 H2224 0.930 . S
C2236 C2237 1.399 . S
C2236 C2241 1.399 . S
C2237 C2236 1.399 . S
C2237 C2238 1.376 . S
C2238 H2225 0.930 . S
C2238 C2237 1.376 . S
C2238 C2239 1.388 . S
C2239 H2226 0.930 . S
C2239 C2238 1.388 . S
C2239 C2240 1.390 . S
C2240 C2239 1.390 . S
C2240 C2241 1.394 . S
C2240 C2246 1.465 . S
C2241 C2236 1.399 . S
C2241 C2240 1.394 . S
C2241 C2242 1.516 . S
C2242 C2241 1.516 . S
C2242 C2243 1.502 . S
C2242 C2244 1.561 . S
C2242 C2245 1.526 . S
C2243 H2227 0.959 . S
C2243 H2228 0.959 . S
C2243 H2229 0.961 . S
C2243 C2242 1.502 . S
C2244 H2230 0.960 . S
C2244 H2231 0.961 . S
C2244 H2232 0.959 . S
C2244 C2242 1.561 . S
C2245 C2242 1.526 . S
C2245 C2246 1.396 . S
C2245 C2250 1.390 . S
C2246 C2240 1.465 . S
C2246 C2245 1.396 . S
C2246 C2247 1.399 . S
C2247 H2233 0.929 . S
C2247 C2246 1.399 . S
C2247 C2248 1.385 . S
C2248 H2234 0.931 . S
C2248 C2247 1.385 . S
C2248 C2249 1.389 . S
C2249 C2248 1.389 . S
C2249 C2250 1.387 . S
C2250 H2235 0.930 . S
C2250 C2245 1.390 . S
C2250 C2249 1.387 . S
H2251 C2263 0.930 . S
H2252 C2265 0.930 . S
H2253 C2266 0.930 . S
H2254 C2270 0.959 . S
H2255 C2270 0.959 . S
H2256 C2270 0.961 . S
H2257 C2271 0.960 . S
H2258 C2271 0.961 . S
H2259 C2271 0.959 . S
H2260 C2274 0.929 . S
H2261 C2275 0.931 . S
H2262 C2277 0.930 . S
C2263 H2251 0.930 . S
C2263 C2264 1.399 . S
C2263 C2268 1.399 . S
C2264 C2263 1.399 . S
C2264 C2265 1.376 . S
C2265 H2252 0.930 . S
C2265 C2264 1.376 . S
C2265 C2266 1.388 . S
C2266 H2253 0.930 . S
C2266 C2265 1.388 . S
C2266 C2267 1.390 . S
C2267 C2266 1.390 . S
C2267 C2268 1.394 . S
C2267 C2273 1.465 . S
C2268 C2263 1.399 . S
C2268 C2267 1.394 . S
C2268 C2269 1.516 . S
C2269 C2268 1.516 . S
C2269 C2270 1.502 . S
C2269 C2271 1.561 . S
C2269 C2272 1.526 . S
C2270 H2254 0.959 . S
C2270 H2255 0.959 . S
C2270 H2256 0.961 . S
C2270 C2269 1.502 . S
C2271 H2257 0.960 . S
C2271 H2258 0.961 . S
C2271 H2259 0.959 . S
C2271 C2269 1.561 . S
C2272 C2269 1.526 . S
C2272 C2273 1.396 . S
C2272 C2277 1.390 . S
C2273 C2267 1.465 . S
C2273 C2272 1.396 . S
C2273 C2274 1.399 . S
C2274 H2260 0.929 . S
C2274 C2273 1.399 . S
C2274 C2275 1.385 . S
C2275 H2261 0.931 . S
C2275 C2274 1.385 . S
C2275 C2276 1.389 . S
C2276 C2275 1.389 . S
C2276 C2277 1.387 . S
C2277 H2262 0.930 . S
C2277 C2272 1.390 . S
C2277 C2276 1.387 . S
H2278 C2290 0.930 . S
H2279 C2292 0.930 . S
H2280 C2293 0.930 . S
H2281 C2297 0.959 . S
H2282 C2297 0.959 . S
H2283 C2297 0.961 . S
H2284 C2298 0.960 . S
H2285 C2298 0.961 . S
H2286 C2298 0.959 . S
H2287 C2301 0.929 . S
H2288 C2302 0.931 . S
H2289 C2304 0.930 . S
C2290 H2278 0.930 . S
C2290 C2291 1.399 . S
C2290 C2295 1.399 . S
C2291 C2290 1.399 . S
C2291 C2292 1.376 . S
C2292 H2279 0.930 . S
C2292 C2291 1.376 . S
C2292 C2293 1.388 . S
C2293 H2280 0.930 . S
C2293 C2292 1.388 . S
C2293 C2294 1.390 . S
C2294 C2293 1.390 . S
C2294 C2295 1.394 . S
C2294 C2300 1.465 . S
C2295 C2290 1.399 . S
C2295 C2294 1.394 . S
C2295 C2296 1.516 . S
C2296 C2295 1.516 . S
C2296 C2297 1.502 . S
C2296 C2298 1.561 . S
C2296 C2299 1.526 . S
C2297 H2281 0.959 . S
C2297 H2282 0.959 . S
C2297 H2283 0.961 . S
C2297 C2296 1.502 . S
C2298 H2284 0.960 . S
C2298 H2285 0.961 . S
C2298 H2286 0.959 . S
C2298 C2296 1.561 . S
C2299 C2296 1.526 . S
C2299 C2300 1.396 . S
C2299 C2304 1.390 . S
C2300 C2294 1.465 . S
C2300 C2299 1.396 . S
C2300 C2301 1.399 . S
C2301 H2287 0.929 . S
C2301 C2300 1.399 . S
C2301 C2302 1.385 . S
C2302 H2288 0.931 . S
C2302 C2301 1.385 . S
C2302 C2303 1.389 . S
C2303 C2302 1.389 . S
C2303 C2304 1.387 . S
C2304 H2289 0.930 . S
C2304 C2299 1.390 . S
C2304 C2303 1.387 . S
H2305 C2317 0.930 . S
H2306 C2319 0.930 . S
H2307 C2320 0.930 . S
H2308 C2324 0.959 . S
H2309 C2324 0.959 . S
H2310 C2324 0.961 . S
H2311 C2325 0.960 . S
H2312 C2325 0.961 . S
H2313 C2325 0.959 . S
H2314 C2328 0.929 . S
H2315 C2329 0.931 . S
H2316 C2331 0.930 . S
C2317 H2305 0.930 . S
C2317 C2318 1.399 . S
C2317 C2322 1.399 . S
C2318 C2317 1.399 . S
C2318 C2319 1.376 . S
C2319 H2306 0.930 . S
C2319 C2318 1.376 . S
C2319 C2320 1.388 . S
C2320 H2307 0.930 . S
C2320 C2319 1.388 . S
C2320 C2321 1.390 . S
C2321 C2320 1.390 . S
C2321 C2322 1.394 . S
C2321 C2327 1.465 . S
C2322 C2317 1.399 . S
C2322 C2321 1.394 . S
C2322 C2323 1.516 . S
C2323 C2322 1.516 . S
C2323 C2324 1.502 . S
C2323 C2325 1.561 . S
C2323 C2326 1.526 . S
C2324 H2308 0.959 . S
C2324 H2309 0.959 . S
C2324 H2310 0.961 . S
C2324 C2323 1.502 . S
C2325 H2311 0.960 . S
C2325 H2312 0.961 . S
C2325 H2313 0.959 . S
C2325 C2323 1.561 . S
C2326 C2323 1.526 . S
C2326 C2327 1.396 . S
C2326 C2331 1.390 . S
C2327 C2321 1.465 . S
C2327 C2326 1.396 . S
C2327 C2328 1.399 . S
C2328 H2314 0.929 . S
C2328 C2327 1.399 . S
C2328 C2329 1.385 . S
C2329 H2315 0.931 . S
C2329 C2328 1.385 . S
C2329 C2330 1.389 . S
C2330 C2329 1.389 . S
C2330 C2331 1.387 . S
C2331 H2316 0.930 . S
C2331 C2326 1.390 . S
C2331 C2330 1.387 . S
H2332 C2344 0.930 . S
H2333 C2346 0.930 . S
H2334 C2347 0.930 . S
H2335 C2351 0.959 . S
H2336 C2351 0.959 . S
H2337 C2351 0.961 . S
H2338 C2352 0.960 . S
H2339 C2352 0.961 . S
H2340 C2352 0.959 . S
H2341 C2355 0.929 . S
H2342 C2356 0.931 . S
H2343 C2358 0.930 . S
C2344 H2332 0.930 . S
C2344 C2345 1.399 . S
C2344 C2349 1.399 . S
C2345 C2344 1.399 . S
C2345 C2346 1.376 . S
C2346 H2333 0.930 . S
C2346 C2345 1.376 . S
C2346 C2347 1.388 . S
C2347 H2334 0.930 . S
C2347 C2346 1.388 . S
C2347 C2348 1.390 . S
C2348 C2347 1.390 . S
C2348 C2349 1.394 . S
C2348 C2354 1.465 . S
C2349 C2344 1.399 . S
C2349 C2348 1.394 . S
C2349 C2350 1.516 . S
C2350 C2349 1.516 . S
C2350 C2351 1.502 . S
C2350 C2352 1.561 . S
C2350 C2353 1.526 . S
C2351 H2335 0.959 . S
C2351 H2336 0.959 . S
C2351 H2337 0.961 . S
C2351 C2350 1.502 . S
C2352 H2338 0.960 . S
C2352 H2339 0.961 . S
C2352 H2340 0.959 . S
C2352 C2350 1.561 . S
C2353 C2350 1.526 . S
C2353 C2354 1.396 . S
C2353 C2358 1.390 . S
C2354 C2348 1.465 . S
C2354 C2353 1.396 . S
C2354 C2355 1.399 . S
C2355 H2341 0.929 . S
C2355 C2354 1.399 . S
C2355 C2356 1.385 . S
C2356 H2342 0.931 . S
C2356 C2355 1.385 . S
C2356 C2357 1.389 . S
C2357 C2356 1.389 . S
C2357 C2358 1.387 . S
C2358 H2343 0.930 . S
C2358 C2353 1.390 . S
C2358 C2357 1.387 . S
H2359 C2371 0.930 . S
H2360 C2373 0.930 . S
H2361 C2374 0.930 . S
H2362 C2378 0.959 . S
H2363 C2378 0.959 . S
H2364 C2378 0.961 . S
H2365 C2379 0.960 . S
H2366 C2379 0.961 . S
H2367 C2379 0.959 . S
H2368 C2382 0.929 . S
H2369 C2383 0.931 . S
H2370 C2385 0.930 . S
C2371 H2359 0.930 . S
C2371 C2372 1.399 . S
C2371 C2376 1.399 . S
C2372 C2371 1.399 . S
C2372 C2373 1.376 . S
C2373 H2360 0.930 . S
C2373 C2372 1.376 . S
C2373 C2374 1.388 . S
C2374 H2361 0.930 . S
C2374 C2373 1.388 . S
C2374 C2375 1.390 . S
C2375 C2374 1.390 . S
C2375 C2376 1.394 . S
C2375 C2381 1.465 . S
C2376 C2371 1.399 . S
C2376 C2375 1.394 . S
C2376 C2377 1.516 . S
C2377 C2376 1.516 . S
C2377 C2378 1.502 . S
C2377 C2379 1.561 . S
C2377 C2380 1.526 . S
C2378 H2362 0.959 . S
C2378 H2363 0.959 . S
C2378 H2364 0.961 . S
C2378 C2377 1.502 . S
C2379 H2365 0.960 . S
C2379 H2366 0.961 . S
C2379 H2367 0.959 . S
C2379 C2377 1.561 . S
C2380 C2377 1.526 . S
C2380 C2381 1.396 . S
C2380 C2385 1.390 . S
C2381 C2375 1.465 . S
C2381 C2380 1.396 . S
C2381 C2382 1.399 . S
C2382 H2368 0.929 . S
C2382 C2381 1.399 . S
C2382 C2383 1.385 . S
C2383 H2369 0.931 . S
C2383 C2382 1.385 . S
C2383 C2384 1.389 . S
C2384 C2383 1.389 . S
C2384 C2385 1.387 . S
C2385 H2370 0.930 . S
C2385 C2380 1.390 . S
C2385 C2384 1.387 . S
H2386 C2398 0.930 . S
H2387 C2400 0.930 . S
H2388 C2401 0.930 . S
H2389 C2405 0.959 . S
H2390 C2405 0.959 . S
H2391 C2405 0.961 . S
H2392 C2406 0.960 . S
H2393 C2406 0.961 . S
H2394 C2406 0.959 . S
H2395 C2409 0.929 . S
H2396 C2410 0.931 . S
H2397 C2412 0.930 . S
C2398 H2386 0.930 . S
C2398 C2399 1.399 . S
C2398 C2403 1.399 . S
C2399 C2398 1.399 . S
C2399 C2400 1.376 . S
C2400 H2387 0.930 . S
C2400 C2399 1.376 . S
C2400 C2401 1.388 . S
C2401 H2388 0.930 . S
C2401 C2400 1.388 . S
C2401 C2402 1.390 . S
C2402 C2401 1.390 . S
C2402 C2403 1.394 . S
C2402 C2408 1.465 . S
C2403 C2398 1.399 . S
C2403 C2402 1.394 . S
C2403 C2404 1.516 . S
C2404 C2403 1.516 . S
C2404 C2405 1.502 . S
C2404 C2406 1.561 . S
C2404 C2407 1.526 . S
C2405 H2389 0.959 . S
C2405 H2390 0.959 . S
C2405 H2391 0.961 . S
C2405 C2404 1.502 . S
C2406 H2392 0.960 . S
C2406 H2393 0.961 . S
C2406 H2394 0.959 . S
C2406 C2404 1.561 . S
C2407 C2404 1.526 . S
C2407 C2408 1.396 . S
C2407 C2412 1.390 . S
C2408 C2402 1.465 . S
C2408 C2407 1.396 . S
C2408 C2409 1.399 . S
C2409 H2395 0.929 . S
C2409 C2408 1.399 . S
C2409 C2410 1.385 . S
C2410 H2396 0.931 . S
C2410 C2409 1.385 . S
C2410 C2411 1.389 . S
C2411 C2410 1.389 . S
C2411 C2412 1.387 . S
C2412 H2397 0.930 . S
C2412 C2407 1.390 . S
C2412 C2411 1.387 . S
H2413 C2425 0.930 . S
H2414 C2427 0.930 . S
H2415 C2428 0.930 . S
H2416 C2432 0.959 . S
H2417 C2432 0.959 . S
H2418 C2432 0.961 . S
H2419 C2433 0.960 . S
H2420 C2433 0.961 . S
H2421 C2433 0.959 . S
H2422 C2436 0.929 . S
H2423 C2437 0.931 . S
H2424 C2439 0.930 . S
C2425 H2413 0.930 . S
C2425 C2426 1.399 . S
C2425 C2430 1.399 . S
C2426 C2425 1.399 . S
C2426 C2427 1.376 . S
C2427 H2414 0.930 . S
C2427 C2426 1.376 . S
C2427 C2428 1.388 . S
C2428 H2415 0.930 . S
C2428 C2427 1.388 . S
C2428 C2429 1.390 . S
C2429 C2428 1.390 . S
C2429 C2430 1.394 . S
C2429 C2435 1.465 . S
C2430 C2425 1.399 . S
C2430 C2429 1.394 . S
C2430 C2431 1.516 . S
C2431 C2430 1.516 . S
C2431 C2432 1.502 . S
C2431 C2433 1.561 . S
C2431 C2434 1.526 . S
C2432 H2416 0.959 . S
C2432 H2417 0.959 . S
C2432 H2418 0.961 . S
C2432 C2431 1.502 . S
C2433 H2419 0.960 . S
C2433 H2420 0.961 . S
C2433 H2421 0.959 . S
C2433 C2431 1.561 . S
C2434 C2431 1.526 . S
C2434 C2435 1.396 . S
C2434 C2439 1.390 . S
C2435 C2429 1.465 . S
C2435 C2434 1.396 . S
C2435 C2436 1.399 . S
C2436 H2422 0.929 . S
C2436 C2435 1.399 . S
C2436 C2437 1.385 . S
C2437 H2423 0.931 . S
C2437 C2436 1.385 . S
C2437 C2438 1.389 . S
C2438 C2437 1.389 . S
C2438 C2439 1.387 . S
C2439 H2424 0.930 . S
C2439 C2434 1.390 . S
C2439 C2438 1.387 . S
H2440 C2452 0.930 . S
H2441 C2454 0.930 . S
H2442 C2455 0.930 . S
H2443 C2459 0.959 . S
H2444 C2459 0.959 . S
H2445 C2459 0.961 . S
H2446 C2460 0.960 . S
H2447 C2460 0.961 . S
H2448 C2460 0.959 . S
H2449 C2463 0.929 . S
H2450 C2464 0.931 . S
H2451 C2466 0.930 . S
C2452 H2440 0.930 . S
C2452 C2453 1.399 . S
C2452 C2457 1.399 . S
C2453 C2452 1.399 . S
C2453 C2454 1.376 . S
C2454 H2441 0.930 . S
C2454 C2453 1.376 . S
C2454 C2455 1.388 . S
C2455 H2442 0.930 . S
C2455 C2454 1.388 . S
C2455 C2456 1.390 . S
C2456 C2455 1.390 . S
C2456 C2457 1.394 . S
C2456 C2462 1.465 . S
C2457 C2452 1.399 . S
C2457 C2456 1.394 . S
C2457 C2458 1.516 . S
C2458 C2457 1.516 . S
C2458 C2459 1.502 . S
C2458 C2460 1.561 . S
C2458 C2461 1.526 . S
C2459 H2443 0.959 . S
C2459 H2444 0.959 . S
C2459 H2445 0.961 . S
C2459 C2458 1.502 . S
C2460 H2446 0.960 . S
C2460 H2447 0.961 . S
C2460 H2448 0.959 . S
C2460 C2458 1.561 . S
C2461 C2458 1.526 . S
C2461 C2462 1.396 . S
C2461 C2466 1.390 . S
C2462 C2456 1.465 . S
C2462 C2461 1.396 . S
C2462 C2463 1.399 . S
C2463 H2449 0.929 . S
C2463 C2462 1.399 . S
C2463 C2464 1.385 . S
C2464 H2450 0.931 . S
C2464 C2463 1.385 . S
C2464 C2465 1.389 . S
C2465 C2464 1.389 . S
C2465 C2466 1.387 . S
C2466 H2451 0.930 . S
C2466 C2461 1.390 . S
C2466 C2465 1.387 . S
H2467 C2479 0.930 . S
H2468 C2481 0.930 . S
H2469 C2482 0.930 . S
H2470 C2486 0.959 . S
H2471 C2486 0.959 . S
H2472 C2486 0.961 . S
H2473 C2487 0.960 . S
H2474 C2487 0.961 . S
H2475 C2487 0.959 . S
H2476 C2490 0.929 . S
H2477 C2491 0.931 . S
H2478 C2493 0.930 . S
C2479 H2467 0.930 . S
C2479 C2480 1.399 . S
C2479 C2484 1.399 . S
C2480 C2479 1.399 . S
C2480 C2481 1.376 . S
C2481 H2468 0.930 . S
C2481 C2480 1.376 . S
C2481 C2482 1.388 . S
C2482 H2469 0.930 . S
C2482 C2481 1.388 . S
C2482 C2483 1.390 . S
C2483 C2482 1.390 . S
C2483 C2484 1.394 . S
C2483 C2489 1.465 . S
C2484 C2479 1.399 . S
C2484 C2483 1.394 . S
C2484 C2485 1.516 . S
C2485 C2484 1.516 . S
C2485 C2486 1.502 . S
C2485 C2487 1.561 . S
C2485 C2488 1.526 . S
C2486 H2470 0.959 . S
C2486 H2471 0.959 . S
C2486 H2472 0.961 . S
C2486 C2485 1.502 . S
C2487 H2473 0.960 . S
C2487 H2474 0.961 . S
C2487 H2475 0.959 . S
C2487 C2485 1.561 . S
C2488 C2485 1.526 . S
C2488 C2489 1.396 . S
C2488 C2493 1.390 . S
C2489 C2483 1.465 . S
C2489 C2488 1.396 . S
C2489 C2490 1.399 . S
C2490 H2476 0.929 . S
C2490 C2489 1.399 . S
C2490 C2491 1.385 . S
C2491 H2477 0.931 . S
C2491 C2490 1.385 . S
C2491 C2492 1.389 . S
C2492 C2491 1.389 . S
C2492 C2493 1.387 . S
C2493 H2478 0.930 . S
C2493 C2488 1.390 . S
C2493 C2492 1.387 . S
H2494 C2506 0.930 . S
H2495 C2508 0.930 . S
H2496 C2509 0.930 . S
H2497 C2513 0.959 . S
H2498 C2513 0.959 . S
H2499 C2513 0.961 . S
H2500 C2514 0.960 . S
H2501 C2514 0.961 . S
H2502 C2514 0.959 . S
H2503 C2517 0.929 . S
H2504 C2518 0.931 . S
H2505 C2520 0.930 . S
C2506 H2494 0.930 . S
C2506 C2507 1.399 . S
C2506 C2511 1.399 . S
C2507 C2506 1.399 . S
C2507 C2508 1.376 . S
C2508 H2495 0.930 . S
C2508 C2507 1.376 . S
C2508 C2509 1.388 . S
C2509 H2496 0.930 . S
C2509 C2508 1.388 . S
C2509 C2510 1.390 . S
C2510 C2509 1.390 . S
C2510 C2511 1.394 . S
C2510 C2516 1.465 . S
C2511 C2506 1.399 . S
C2511 C2510 1.394 . S
C2511 C2512 1.516 . S
C2512 C2511 1.516 . S
C2512 C2513 1.502 . S
C2512 C2514 1.561 . S
C2512 C2515 1.526 . S
C2513 H2497 0.959 . S
C2513 H2498 0.959 . S
C2513 H2499 0.961 . S
C2513 C2512 1.502 . S
C2514 H2500 0.960 . S
C2514 H2501 0.961 . S
C2514 H2502 0.959 . S
C2514 C2512 1.561 . S
C2515 C2512 1.526 . S
C2515 C2516 1.396 . S
C2515 C2520 1.390 . S
C2516 C2510 1.465 . S
C2516 C2515 1.396 . S
C2516 C2517 1.399 . S
C2517 H2503 0.929 . S
C2517 C2516 1.399 . S
C2517 C2518 1.385 . S
C2518 H2504 0.931 . S
C2518 C2517 1.385 . S
C2518 C2519 1.389 . S
C2519 C2518 1.389 . S
C2519 C2520 1.387 . S
C2520 H2505 0.930 . S
C2520 C2515 1.390 . S
C2520 C2519 1.387 . S
H2521 C2533 0.930 . S
H2522 C2535 0.930 . S
H2523 C2536 0.930 . S
H2524 C2540 0.959 . S
H2525 C2540 0.959 . S
H2526 C2540 0.961 . S
H2527 C2541 0.960 . S
H2528 C2541 0.961 . S
H2529 C2541 0.959 . S
H2530 C2544 0.929 . S
H2531 C2545 0.931 . S
H2532 C2547 0.930 . S
C2533 H2521 0.930 . S
C2533 C2534 1.399 . S
C2533 C2538 1.399 . S
C2534 C2533 1.399 . S
C2534 C2535 1.376 . S
C2535 H2522 0.930 . S
C2535 C2534 1.376 . S
C2535 C2536 1.388 . S
C2536 H2523 0.930 . S
C2536 C2535 1.388 . S
C2536 C2537 1.390 . S
C2537 C2536 1.390 . S
C2537 C2538 1.394 . S
C2537 C2543 1.465 . S
C2538 C2533 1.399 . S
C2538 C2537 1.394 . S
C2538 C2539 1.516 . S
C2539 C2538 1.516 . S
C2539 C2540 1.502 . S
C2539 C2541 1.561 . S
C2539 C2542 1.526 . S
C2540 H2524 0.959 . S
C2540 H2525 0.959 . S
C2540 H2526 0.961 . S
C2540 C2539 1.502 . S
C2541 H2527 0.960 . S
C2541 H2528 0.961 . S
C2541 H2529 0.959 . S
C2541 C2539 1.561 . S
C2542 C2539 1.526 . S
C2542 C2543 1.396 . S
C2542 C2547 1.390 . S
C2543 C2537 1.465 . S
C2543 C2542 1.396 . S
C2543 C2544 1.399 . S
C2544 H2530 0.929 . S
C2544 C2543 1.399 . S
C2544 C2545 1.385 . S
C2545 H2531 0.931 . S
C2545 C2544 1.385 . S
C2545 C2546 1.389 . S
C2546 C2545 1.389 . S
C2546 C2547 1.387 . S
C2547 H2532 0.930 . S
C2547 C2542 1.390 . S
C2547 C2546 1.387 . S
H2548 C2560 0.930 . S
H2549 C2562 0.930 . S
H2550 C2563 0.930 . S
H2551 C2567 0.959 . S
H2552 C2567 0.959 . S
H2553 C2567 0.961 . S
H2554 C2568 0.960 . S
H2555 C2568 0.961 . S
H2556 C2568 0.959 . S
H2557 C2571 0.929 . S
H2558 C2572 0.931 . S
H2559 C2574 0.930 . S
C2560 H2548 0.930 . S
C2560 C2561 1.399 . S
C2560 C2565 1.399 . S
C2561 C2560 1.399 . S
C2561 C2562 1.376 . S
C2562 H2549 0.930 . S
C2562 C2561 1.376 . S
C2562 C2563 1.388 . S
C2563 H2550 0.930 . S
C2563 C2562 1.388 . S
C2563 C2564 1.390 . S
C2564 C2563 1.390 . S
C2564 C2565 1.394 . S
C2564 C2570 1.465 . S
C2565 C2560 1.399 . S
C2565 C2564 1.394 . S
C2565 C2566 1.516 . S
C2566 C2565 1.516 . S
C2566 C2567 1.502 . S
C2566 C2568 1.561 . S
C2566 C2569 1.526 . S
C2567 H2551 0.959 . S
C2567 H2552 0.959 . S
C2567 H2553 0.961 . S
C2567 C2566 1.502 . S
C2568 H2554 0.960 . S
C2568 H2555 0.961 . S
C2568 H2556 0.959 . S
C2568 C2566 1.561 . S
C2569 C2566 1.526 . S
C2569 C2570 1.396 . S
C2569 C2574 1.390 . S
C2570 C2564 1.465 . S
C2570 C2569 1.396 . S
C2570 C2571 1.399 . S
C2571 H2557 0.929 . S
C2571 C2570 1.399 . S
C2571 C2572 1.385 . S
C2572 H2558 0.931 . S
C2572 C2571 1.385 . S
C2572 C2573 1.389 . S
C2573 C2572 1.389 . S
C2573 C2574 1.387 . S
C2574 H2559 0.930 . S
C2574 C2569 1.390 . S
C2574 C2573 1.387 . S
H2575 C2587 0.930 . S
H2576 C2589 0.930 . S
H2577 C2590 0.930 . S
H2578 C2594 0.959 . S
H2579 C2594 0.959 . S
H2580 C2594 0.961 . S
H2581 C2595 0.960 . S
H2582 C2595 0.961 . S
H2583 C2595 0.959 . S
H2584 C2598 0.929 . S
H2585 C2599 0.931 . S
H2586 C2601 0.930 . S
C2587 H2575 0.930 . S
C2587 C2588 1.399 . S
C2587 C2592 1.399 . S
C2588 C2587 1.399 . S
C2588 C2589 1.376 . S
C2589 H2576 0.930 . S
C2589 C2588 1.376 . S
C2589 C2590 1.388 . S
C2590 H2577 0.930 . S
C2590 C2589 1.388 . S
C2590 C2591 1.390 . S
C2591 C2590 1.390 . S
C2591 C2592 1.394 . S
C2591 C2597 1.465 . S
C2592 C2587 1.399 . S
C2592 C2591 1.394 . S
C2592 C2593 1.516 . S
C2593 C2592 1.516 . S
C2593 C2594 1.502 . S
C2593 C2595 1.561 . S
C2593 C2596 1.526 . S
C2594 H2578 0.959 . S
C2594 H2579 0.959 . S
C2594 H2580 0.961 . S
C2594 C2593 1.502 . S
C2595 H2581 0.960 . S
C2595 H2582 0.961 . S
C2595 H2583 0.959 . S
C2595 C2593 1.561 . S
C2596 C2593 1.526 . S
C2596 C2597 1.396 . S
C2596 C2601 1.390 . S
C2597 C2591 1.465 . S
C2597 C2596 1.396 . S
C2597 C2598 1.399 . S
C2598 H2584 0.929 . S
C2598 C2597 1.399 . S
C2598 C2599 1.385 . S
C2599 H2585 0.931 . S
C2599 C2598 1.385 . S
C2599 C2600 1.389 . S
C2600 C2599 1.389 . S
C2600 C2601 1.387 . S
C2601 H2586 0.930 . S
C2601 C2596 1.390 . S
C2601 C2600 1.387 . S
H2602 C2614 0.930 . S
H2603 C2616 0.930 . S
H2604 C2617 0.930 . S
H2605 C2621 0.959 . S
H2606 C2621 0.959 . S
H2607 C2621 0.961 . S
H2608 C2622 0.960 . S
H2609 C2622 0.961 . S
H2610 C2622 0.959 . S
H2611 C2625 0.929 . S
H2612 C2626 0.931 . S
H2613 C2628 0.930 . S
C2614 H2602 0.930 . S
C2614 C2615 1.399 . S
C2614 C2619 1.399 . S
C2615 C2614 1.399 . S
C2615 C2616 1.376 . S
C2616 H2603 0.930 . S
C2616 C2615 1.376 . S
C2616 C2617 1.388 . S
C2617 H2604 0.930 . S
C2617 C2616 1.388 . S
C2617 C2618 1.390 . S
C2618 C2617 1.390 . S
C2618 C2619 1.394 . S
C2618 C2624 1.465 . S
C2619 C2614 1.399 . S
C2619 C2618 1.394 . S
C2619 C2620 1.516 . S
C2620 C2619 1.516 . S
C2620 C2621 1.502 . S
C2620 C2622 1.561 . S
C2620 C2623 1.526 . S
C2621 H2605 0.959 . S
C2621 H2606 0.959 . S
C2621 H2607 0.961 . S
C2621 C2620 1.502 . S
C2622 H2608 0.960 . S
C2622 H2609 0.961 . S
C2622 H2610 0.959 . S
C2622 C2620 1.561 . S
C2623 C2620 1.526 . S
C2623 C2624 1.396 . S
C2623 C2628 1.390 . S
C2624 C2618 1.465 . S
C2624 C2623 1.396 . S
C2624 C2625 1.399 . S
C2625 H2611 0.929 . S
C2625 C2624 1.399 . S
C2625 C2626 1.385 . S
C2626 H2612 0.931 . S
C2626 C2625 1.385 . S
C2626 C2627 1.389 . S
C2627 C2626 1.389 . S
C2627 C2628 1.387 . S
C2628 H2613 0.930 . S
C2628 C2623 1.390 . S
C2628 C2627 1.387 . S
H2629 C2641 0.930 . S
H2630 C2643 0.930 . S
H2631 C2644 0.930 . S
H2632 C2648 0.959 . S
H2633 C2648 0.959 . S
H2634 C2648 0.961 . S
H2635 C2649 0.960 . S
H2636 C2649 0.961 . S
H2637 C2649 0.959 . S
H2638 C2652 0.929 . S
H2639 C2653 0.931 . S
H2640 C2655 0.930 . S
C2641 H2629 0.930 . S
C2641 C2642 1.399 . S
C2641 C2646 1.399 . S
C2642 C2641 1.399 . S
C2642 C2643 1.376 . S
C2643 H2630 0.930 . S
C2643 C2642 1.376 . S
C2643 C2644 1.388 . S
C2644 H2631 0.930 . S
C2644 C2643 1.388 . S
C2644 C2645 1.390 . S
C2645 C2644 1.390 . S
C2645 C2646 1.394 . S
C2645 C2651 1.465 . S
C2646 C2641 1.399 . S
C2646 C2645 1.394 . S
C2646 C2647 1.516 . S
C2647 C2646 1.516 . S
C2647 C2648 1.502 . S
C2647 C2649 1.561 . S
C2647 C2650 1.526 . S
C2648 H2632 0.959 . S
C2648 H2633 0.959 . S
C2648 H2634 0.961 . S
C2648 C2647 1.502 . S
C2649 H2635 0.960 . S
C2649 H2636 0.961 . S
C2649 H2637 0.959 . S
C2649 C2647 1.561 . S
C2650 C2647 1.526 . S
C2650 C2651 1.396 . S
C2650 C2655 1.390 . S
C2651 C2645 1.465 . S
C2651 C2650 1.396 . S
C2651 C2652 1.399 . S
C2652 H2638 0.929 . S
C2652 C2651 1.399 . S
C2652 C2653 1.385 . S
C2653 H2639 0.931 . S
C2653 C2652 1.385 . S
C2653 C2654 1.389 . S
C2654 C2653 1.389 . S
C2654 C2655 1.387 . S
C2655 H2640 0.930 . S
C2655 C2650 1.390 . S
C2655 C2654 1.387 . S
H2656 C2668 0.930 1_554 S
H2657 C2670 0.930 . S
H2658 C2671 0.930 . S
H2659 C2675 0.959 . S
H2660 C2675 0.959 . S
H2661 C2675 0.961 . S
H2662 C2676 0.960 . S
H2663 C2676 0.961 . S
H2664 C2676 0.959 . S
H2665 C2679 0.929 . S
H2666 C2680 0.931 . S
H2667 C2682 0.930 1_554 S
C2668 H2656 0.930 1_556 S
C2668 C2669 1.399 . S
C2668 C2673 1.399 . S
C2669 C2668 1.399 . S
C2669 C2670 1.376 . S
C2670 H2657 0.930 . S
C2670 C2669 1.376 . S
C2670 C2671 1.388 . S
C2671 H2658 0.930 . S
C2671 C2670 1.388 . S
C2671 C2672 1.390 . S
C2672 C2671 1.390 . S
C2672 C2673 1.394 . S
C2672 C2678 1.465 . S
C2673 C2668 1.399 . S
C2673 C2672 1.394 . S
C2673 C2674 1.516 1_556 S
C2674 C2673 1.516 1_554 S
C2674 C2675 1.502 . S
C2674 C2676 1.561 . S
C2674 C2677 1.526 1_554 S
C2675 H2659 0.959 . S
C2675 H2660 0.959 . S
C2675 H2661 0.961 . S
C2675 C2674 1.502 . S
C2676 H2662 0.960 . S
C2676 H2663 0.961 . S
C2676 H2664 0.959 . S
C2676 C2674 1.561 . S
C2677 C2674 1.526 1_556 S
C2677 C2678 1.396 . S
C2677 C2682 1.390 . S
C2678 C2672 1.465 . S
C2678 C2677 1.396 . S
C2678 C2679 1.399 . S
C2679 H2665 0.929 . S
C2679 C2678 1.399 . S
C2679 C2680 1.385 . S
C2680 H2666 0.931 . S
C2680 C2679 1.385 . S
C2680 C2681 1.389 . S
C2681 C2680 1.389 . S
C2681 C2682 1.387 . S
C2682 H2667 0.930 1_556 S
C2682 C2677 1.390 . S
C2682 C2681 1.387 . S
H2683 C2695 0.930 . S
H2684 C2697 0.930 . S
H2685 C2698 0.930 . S
H2686 C2702 0.959 . S
H2687 C2702 0.959 . S
H2688 C2702 0.961 . S
H2689 C2703 0.960 . S
H2690 C2703 0.961 . S
H2691 C2703 0.959 . S
H2692 C2706 0.929 . S
H2693 C2707 0.931 . S
H2694 C2709 0.930 . S
C2695 H2683 0.930 . S
C2695 C2696 1.399 . S
C2695 C2700 1.399 . S
C2696 C2695 1.399 . S
C2696 C2697 1.376 . S
C2697 H2684 0.930 . S
C2697 C2696 1.376 . S
C2697 C2698 1.388 . S
C2698 H2685 0.930 . S
C2698 C2697 1.388 . S
C2698 C2699 1.390 . S
C2699 C2698 1.390 . S
C2699 C2700 1.394 . S
C2699 C2705 1.465 . S
C2700 C2695 1.399 . S
C2700 C2699 1.394 . S
C2700 C2701 1.516 . S
C2701 C2700 1.516 . S
C2701 C2702 1.502 . S
C2701 C2703 1.561 . S
C2701 C2704 1.526 . S
C2702 H2686 0.959 . S
C2702 H2687 0.959 . S
C2702 H2688 0.961 . S
C2702 C2701 1.502 . S
C2703 H2689 0.960 . S
C2703 H2690 0.961 . S
C2703 H2691 0.959 . S
C2703 C2701 1.561 . S
C2704 C2701 1.526 . S
C2704 C2705 1.396 . S
C2704 C2709 1.390 . S
C2705 C2699 1.465 . S
C2705 C2704 1.396 . S
C2705 C2706 1.399 . S
C2706 H2692 0.929 . S
C2706 C2705 1.399 . S
C2706 C2707 1.385 . S
C2707 H2693 0.931 . S
C2707 C2706 1.385 . S
C2707 C2708 1.389 . S
C2708 C2707 1.389 . S
C2708 C2709 1.387 . S
C2709 H2694 0.930 . S
C2709 C2704 1.390 . S
C2709 C2708 1.387 . S
H2710 C2722 0.930 1_556 S
H2711 C2724 0.930 . S
H2712 C2725 0.930 . S
H2713 C2729 0.970 . S
H2714 C2729 0.959 . S
H2715 C2729 0.961 . S
H2716 C2730 0.960 . S
H2717 C2730 0.961 . S
H2718 C2730 0.959 . S
H2719 C2733 0.929 . S
H2720 C2734 0.931 . S
H2721 C2736 0.930 1_556 S
C2722 H2710 0.930 1_554 S
C2722 C2723 1.399 . S
C2722 C2727 1.399 . S
C2723 C2722 1.399 . S
C2723 C2724 1.376 . S
C2724 H2711 0.930 . S
C2724 C2723 1.376 . S
C2724 C2725 1.388 . S
C2725 H2712 0.930 . S
C2725 C2724 1.388 . S
C2725 C2726 1.390 . S
C2726 C2725 1.390 . S
C2726 C2727 1.394 . S
C2726 C2732 1.465 . S
C2727 C2722 1.399 . S
C2727 C2726 1.394 . S
C2727 C2728 1.516 1_554 S
C2728 C2727 1.516 1_556 S
C2728 C2729 1.502 . S
C2728 C2730 1.561 . S
C2728 C2731 1.526 1_556 S
C2729 H2713 0.970 . S
C2729 H2714 0.959 . S
C2729 H2715 0.961 . S
C2729 C2728 1.502 . S
C2730 H2716 0.960 . S
C2730 H2717 0.961 . S
C2730 H2718 0.959 . S
C2730 C2728 1.561 . S
C2731 C2728 1.526 1_554 S
C2731 C2732 1.396 . S
C2731 C2736 1.390 . S
C2732 C2726 1.465 . S
C2732 C2731 1.396 . S
C2732 C2733 1.399 . S
C2733 H2719 0.929 . S
C2733 C2732 1.399 . S
C2733 C2734 1.385 . S
C2734 H2720 0.931 . S
C2734 C2733 1.385 . S
C2734 C2735 1.389 . S
C2735 C2734 1.389 . S
C2735 C2736 1.387 . S
C2736 H2721 0.930 1_554 S
C2736 C2731 1.390 . S
C2736 C2735 1.387 . S
H2737 C2749 0.930 . S
H2738 C2751 0.930 . S
H2739 C2752 0.930 . S
H2740 C2756 0.959 . S
H2741 C2756 0.959 . S
H2742 C2756 0.961 . S
H2743 C2757 0.960 . S
H2744 C2757 0.961 . S
H2745 C2757 0.959 . S
H2746 C2760 0.929 . S
H2747 C2761 0.931 . S
H2748 C2763 0.930 . S
C2749 H2737 0.930 . S
C2749 C2750 1.399 . S
C2749 C2754 1.399 . S
C2750 C2749 1.399 . S
C2750 C2751 1.376 . S
C2751 H2738 0.930 . S
C2751 C2750 1.376 . S
C2751 C2752 1.388 . S
C2752 H2739 0.930 . S
C2752 C2751 1.388 . S
C2752 C2753 1.390 . S
C2753 C2752 1.390 . S
C2753 C2754 1.394 . S
C2753 C2759 1.465 . S
C2754 C2749 1.399 . S
C2754 C2753 1.394 . S
C2754 C2755 1.516 . S
C2755 C2754 1.516 . S
C2755 C2756 1.502 . S
C2755 C2757 1.561 . S
C2755 C2758 1.526 . S
C2756 H2740 0.959 . S
C2756 H2741 0.959 . S
C2756 H2742 0.961 . S
C2756 C2755 1.502 . S
C2757 H2743 0.960 . S
C2757 H2744 0.961 . S
C2757 H2745 0.959 . S
C2757 C2755 1.561 . S
C2758 C2755 1.526 . S
C2758 C2759 1.396 . S
C2758 C2763 1.390 . S
C2759 C2753 1.465 . S
C2759 C2758 1.396 . S
C2759 C2760 1.399 . S
C2760 H2746 0.929 . S
C2760 C2759 1.399 . S
C2760 C2761 1.385 . S
C2761 H2747 0.931 . S
C2761 C2760 1.385 . S
C2761 C2762 1.389 . S
C2762 C2761 1.389 . S
C2762 C2763 1.387 . S
C2763 H2748 0.930 . S
C2763 C2758 1.390 . S
C2763 C2762 1.387 . S
H2764 C2776 0.930 . S
H2765 C2778 0.930 . S
H2766 C2779 0.930 . S
H2767 C2783 0.959 . S
H2768 C2783 0.959 . S
H2769 C2783 0.961 . S
H2770 C2784 0.960 . S
H2771 C2784 0.961 . S
H2772 C2784 0.959 . S
H2773 C2787 0.929 . S
H2774 C2788 0.931 . S
H2775 C2790 0.930 . S
C2776 H2764 0.930 . S
C2776 C2777 1.399 . S
C2776 C2781 1.399 . S
C2777 C2776 1.399 . S
C2777 C2778 1.376 . S
C2778 H2765 0.930 . S
C2778 C2777 1.376 . S
C2778 C2779 1.388 . S
C2779 H2766 0.930 . S
C2779 C2778 1.388 . S
C2779 C2780 1.390 . S
C2780 C2779 1.390 . S
C2780 C2781 1.394 . S
C2780 C2786 1.465 . S
C2781 C2776 1.399 . S
C2781 C2780 1.394 . S
C2781 C2782 1.516 . S
C2782 C2781 1.516 . S
C2782 C2783 1.502 . S
C2782 C2784 1.561 . S
C2782 C2785 1.526 . S
C2783 H2767 0.959 . S
C2783 H2768 0.959 . S
C2783 H2769 0.961 . S
C2783 C2782 1.502 . S
C2784 H2770 0.960 . S
C2784 H2771 0.961 . S
C2784 H2772 0.959 . S
C2784 C2782 1.561 . S
C2785 C2782 1.526 . S
C2785 C2786 1.396 . S
C2785 C2790 1.390 . S
C2786 C2780 1.465 . S
C2786 C2785 1.396 . S
C2786 C2787 1.399 . S
C2787 H2773 0.929 . S
C2787 C2786 1.399 . S
C2787 C2788 1.385 . S
C2788 H2774 0.931 . S
C2788 C2787 1.385 . S
C2788 C2789 1.389 . S
C2789 C2788 1.389 . S
C2789 C2790 1.387 . S
C2790 H2775 0.930 . S
C2790 C2785 1.390 . S
C2790 C2789 1.387 . S
H2791 C2803 0.930 . S
H2792 C2805 0.930 . S
H2793 C2806 0.930 . S
H2794 C2810 0.959 . S
H2795 C2810 0.959 . S
H2796 C2810 0.961 . S
H2797 C2811 0.960 . S
H2798 C2811 0.961 . S
H2799 C2811 0.959 . S
H2800 C2814 0.929 . S
H2801 C2815 0.931 . S
H2802 C2817 0.930 . S
C2803 H2791 0.930 . S
C2803 C2804 1.399 . S
C2803 C2808 1.399 . S
C2804 C2803 1.399 . S
C2804 C2805 1.376 . S
C2805 H2792 0.930 . S
C2805 C2804 1.376 . S
C2805 C2806 1.388 . S
C2806 H2793 0.930 . S
C2806 C2805 1.388 . S
C2806 C2807 1.390 . S
C2807 C2806 1.390 . S
C2807 C2808 1.394 . S
C2807 C2813 1.465 . S
C2808 C2803 1.399 . S
C2808 C2807 1.394 . S
C2808 C2809 1.516 . S
C2809 C2808 1.516 . S
C2809 C2810 1.502 . S
C2809 C2811 1.561 . S
C2809 C2812 1.526 . S
C2810 H2794 0.959 . S
C2810 H2795 0.959 . S
C2810 H2796 0.961 . S
C2810 C2809 1.502 . S
C2811 H2797 0.960 . S
C2811 H2798 0.961 . S
C2811 H2799 0.959 . S
C2811 C2809 1.561 . S
C2812 C2809 1.526 . S
C2812 C2813 1.396 . S
C2812 C2817 1.390 . S
C2813 C2807 1.465 . S
C2813 C2812 1.396 . S
C2813 C2814 1.399 . S
C2814 H2800 0.929 . S
C2814 C2813 1.399 . S
C2814 C2815 1.385 . S
C2815 H2801 0.931 . S
C2815 C2814 1.385 . S
C2815 C2816 1.389 . S
C2816 C2815 1.389 . S
C2816 C2817 1.387 . S
C2817 H2802 0.930 . S
C2817 C2812 1.390 . S
C2817 C2816 1.387 . S
H2818 C2830 0.930 . S
H2819 C2832 0.930 . S
H2820 C2833 0.930 . S
H2821 C2837 0.959 . S
H2822 C2837 0.959 . S
H2823 C2837 0.961 . S
H2824 C2838 0.960 . S
H2825 C2838 0.961 . S
H2826 C2838 0.959 . S
H2827 C2841 0.929 . S
H2828 C2842 0.931 . S
H2829 C2844 0.930 . S
C2830 H2818 0.930 . S
C2830 C2831 1.399 . S
C2830 C2835 1.399 . S
C2831 C2830 1.399 . S
C2831 C2832 1.376 . S
C2832 H2819 0.930 . S
C2832 C2831 1.376 . S
C2832 C2833 1.388 . S
C2833 H2820 0.930 . S
C2833 C2832 1.388 . S
C2833 C2834 1.390 . S
C2834 C2833 1.390 . S
C2834 C2835 1.394 . S
C2834 C2840 1.465 . S
C2835 C2830 1.399 . S
C2835 C2834 1.394 . S
C2835 C2836 1.516 . S
C2836 C2835 1.516 . S
C2836 C2837 1.502 . S
C2836 C2838 1.561 . S
C2836 C2839 1.526 . S
C2837 H2821 0.959 . S
C2837 H2822 0.959 . S
C2837 H2823 0.961 . S
C2837 C2836 1.502 . S
C2838 H2824 0.960 . S
C2838 H2825 0.961 . S
C2838 H2826 0.959 . S
C2838 C2836 1.561 . S
C2839 C2836 1.526 . S
C2839 C2840 1.396 . S
C2839 C2844 1.390 . S
C2840 C2834 1.465 . S
C2840 C2839 1.396 . S
C2840 C2841 1.399 . S
C2841 H2827 0.929 . S
C2841 C2840 1.399 . S
C2841 C2842 1.385 . S
C2842 H2828 0.931 . S
C2842 C2841 1.385 . S
C2842 C2843 1.389 . S
C2843 C2842 1.389 . S
C2843 C2844 1.387 . S
C2844 H2829 0.930 . S
C2844 C2839 1.390 . S
C2844 C2843 1.387 . S
H2845 C2857 0.930 . S
H2846 C2859 0.930 . S
H2847 C2860 0.930 . S
H2848 C2864 0.959 . S
H2849 C2864 0.959 . S
H2850 C2864 0.961 . S
H2851 C2865 0.960 . S
H2852 C2865 0.961 . S
H2853 C2865 0.959 . S
H2854 C2868 0.929 . S
H2855 C2869 0.931 . S
H2856 C2871 0.930 . S
C2857 H2845 0.930 . S
C2857 C2858 1.399 . S
C2857 C2862 1.399 . S
C2858 C2857 1.399 . S
C2858 C2859 1.376 . S
C2859 H2846 0.930 . S
C2859 C2858 1.376 . S
C2859 C2860 1.388 . S
C2860 H2847 0.930 . S
C2860 C2859 1.388 . S
C2860 C2861 1.390 . S
C2861 C2860 1.390 . S
C2861 C2862 1.394 . S
C2861 C2867 1.465 . S
C2862 C2857 1.399 . S
C2862 C2861 1.394 . S
C2862 C2863 1.516 . S
C2863 C2862 1.516 . S
C2863 C2864 1.502 . S
C2863 C2865 1.561 . S
C2863 C2866 1.526 . S
C2864 H2848 0.959 . S
C2864 H2849 0.959 . S
C2864 H2850 0.961 . S
C2864 C2863 1.502 . S
C2865 H2851 0.960 . S
C2865 H2852 0.961 . S
C2865 H2853 0.959 . S
C2865 C2863 1.561 . S
C2866 C2863 1.526 . S
C2866 C2867 1.396 . S
C2866 C2871 1.390 . S
C2867 C2861 1.465 . S
C2867 C2866 1.396 . S
C2867 C2868 1.399 . S
C2868 H2854 0.929 . S
C2868 C2867 1.399 . S
C2868 C2869 1.385 . S
C2869 H2855 0.931 . S
C2869 C2868 1.385 . S
C2869 C2870 1.389 . S
C2870 C2869 1.389 . S
C2870 C2871 1.387 . S
C2871 H2856 0.930 . S
C2871 C2866 1.390 . S
C2871 C2870 1.387 . S
H2872 C2884 0.930 . S
H2873 C2886 0.930 . S
H2874 C2887 0.930 . S
H2875 C2891 0.959 . S
H2876 C2891 0.959 . S
H2877 C2891 0.961 . S
H2878 C2892 0.960 . S
H2879 C2892 0.961 . S
H2880 C2892 0.959 . S
H2881 C2895 0.929 . S
H2882 C2896 0.931 . S
H2883 C2898 0.930 . S
C2884 H2872 0.930 . S
C2884 C2885 1.399 . S
C2884 C2889 1.399 . S
C2885 C2884 1.399 . S
C2885 C2886 1.376 . S
C2886 H2873 0.930 . S
C2886 C2885 1.376 . S
C2886 C2887 1.388 . S
C2887 H2874 0.930 . S
C2887 C2886 1.388 . S
C2887 C2888 1.390 . S
C2888 C2887 1.390 . S
C2888 C2889 1.394 . S
C2888 C2894 1.465 . S
C2889 C2884 1.399 . S
C2889 C2888 1.394 . S
C2889 C2890 1.516 . S
C2890 C2889 1.516 . S
C2890 C2891 1.502 . S
C2890 C2892 1.561 . S
C2890 C2893 1.526 . S
C2891 H2875 0.959 . S
C2891 H2876 0.959 . S
C2891 H2877 0.961 . S
C2891 C2890 1.502 . S
C2892 H2878 0.960 . S
C2892 H2879 0.961 . S
C2892 H2880 0.959 . S
C2892 C2890 1.561 . S
C2893 C2890 1.526 . S
C2893 C2894 1.396 . S
C2893 C2898 1.390 . S
C2894 C2888 1.465 . S
C2894 C2893 1.396 . S
C2894 C2895 1.399 . S
C2895 H2881 0.929 . S
C2895 C2894 1.399 . S
C2895 C2896 1.385 . S
C2896 H2882 0.931 . S
C2896 C2895 1.385 . S
C2896 C2897 1.389 . S
C2897 C2896 1.389 . S
C2897 C2898 1.387 . S
C2898 H2883 0.930 . S
C2898 C2893 1.390 . S
C2898 C2897 1.387 . S
H2899 C2911 0.930 . S
H2900 C2913 0.930 . S
H2901 C2914 0.930 . S
H2902 C2918 0.959 . S
H2903 C2918 0.959 . S
H2904 C2918 0.961 . S
H2905 C2919 0.960 . S
H2906 C2919 0.961 . S
H2907 C2919 0.959 . S
H2908 C2922 0.929 . S
H2909 C2923 0.931 . S
H2910 C2925 0.930 . S
C2911 H2899 0.930 . S
C2911 C2912 1.399 . S
C2911 C2916 1.399 . S
C2912 C2911 1.399 . S
C2912 C2913 1.376 . S
C2913 H2900 0.930 . S
C2913 C2912 1.376 . S
C2913 C2914 1.388 . S
C2914 H2901 0.930 . S
C2914 C2913 1.388 . S
C2914 C2915 1.390 . S
C2915 C2914 1.390 . S
C2915 C2916 1.394 . S
C2915 C2921 1.465 . S
C2916 C2911 1.399 . S
C2916 C2915 1.394 . S
C2916 C2917 1.516 . S
C2917 C2916 1.516 . S
C2917 C2918 1.502 . S
C2917 C2919 1.561 . S
C2917 C2920 1.526 . S
C2918 H2902 0.959 . S
C2918 H2903 0.959 . S
C2918 H2904 0.961 . S
C2918 C2917 1.502 . S
C2919 H2905 0.960 . S
C2919 H2906 0.961 . S
C2919 H2907 0.959 . S
C2919 C2917 1.561 . S
C2920 C2917 1.526 . S
C2920 C2921 1.396 . S
C2920 C2925 1.390 . S
C2921 C2915 1.465 . S
C2921 C2920 1.396 . S
C2921 C2922 1.399 . S
C2922 H2908 0.929 . S
C2922 C2921 1.399 . S
C2922 C2923 1.385 . S
C2923 H2909 0.931 . S
C2923 C2922 1.385 . S
C2923 C2924 1.389 . S
C2924 C2923 1.389 . S
C2924 C2925 1.387 . S
C2925 H2910 0.930 . S
C2925 C2920 1.390 . S
C2925 C2924 1.387 . S
H2926 C2938 0.930 . S
H2927 C2940 0.930 . S
H2928 C2941 0.930 . S
H2929 C2945 0.959 . S
H2930 C2945 0.959 . S
H2931 C2945 0.961 . S
H2932 C2946 0.960 . S
H2933 C2946 0.961 . S
H2934 C2946 0.959 . S
H2935 C2949 0.929 . S
H2936 C2950 0.931 . S
H2937 C2952 0.930 . S
C2938 H2926 0.930 . S
C2938 C2939 1.399 . S
C2938 C2943 1.399 . S
C2939 C2938 1.399 . S
C2939 C2940 1.376 . S
C2940 H2927 0.930 . S
C2940 C2939 1.376 . S
C2940 C2941 1.388 . S
C2941 H2928 0.930 . S
C2941 C2940 1.388 . S
C2941 C2942 1.390 . S
C2942 C2941 1.390 . S
C2942 C2943 1.394 . S
C2942 C2948 1.465 . S
C2943 C2938 1.399 . S
C2943 C2942 1.394 . S
C2943 C2944 1.516 . S
C2944 C2943 1.516 . S
C2944 C2945 1.502 . S
C2944 C2946 1.561 . S
C2944 C2947 1.526 . S
C2945 H2929 0.959 . S
C2945 H2930 0.959 . S
C2945 H2931 0.961 . S
C2945 C2944 1.502 . S
C2946 H2932 0.960 . S
C2946 H2933 0.961 . S
C2946 H2934 0.959 . S
C2946 C2944 1.561 . S
C2947 C2944 1.526 . S
C2947 C2948 1.396 . S
C2947 C2952 1.390 . S
C2948 C2942 1.465 . S
C2948 C2947 1.396 . S
C2948 C2949 1.399 . S
C2949 H2935 0.929 . S
C2949 C2948 1.399 . S
C2949 C2950 1.385 . S
C2950 H2936 0.931 . S
C2950 C2949 1.385 . S
C2950 C2951 1.389 . S
C2951 C2950 1.389 . S
C2951 C2952 1.387 . S
C2952 H2937 0.930 . S
C2952 C2947 1.390 . S
C2952 C2951 1.387 . S
H2953 C2965 0.930 . S
H2954 C2967 0.930 . S
H2955 C2968 0.930 . S
H2956 C2972 0.959 . S
H2957 C2972 0.959 . S
H2958 C2972 0.961 . S
H2959 C2973 0.960 . S
H2960 C2973 0.961 . S
H2961 C2973 0.959 . S
H2962 C2976 0.929 . S
H2963 C2977 0.931 . S
H2964 C2979 0.930 . S
C2965 H2953 0.930 . S
C2965 C2966 1.399 . S
C2965 C2970 1.399 . S
C2966 C2965 1.399 . S
C2966 C2967 1.376 . S
C2967 H2954 0.930 . S
C2967 C2966 1.376 . S
C2967 C2968 1.388 . S
C2968 H2955 0.930 . S
C2968 C2967 1.388 . S
C2968 C2969 1.390 . S
C2969 C2968 1.390 . S
C2969 C2970 1.394 . S
C2969 C2975 1.465 . S
C2970 C2965 1.399 . S
C2970 C2969 1.394 . S
C2970 C2971 1.516 . S
C2971 C2970 1.516 . S
C2971 C2972 1.502 . S
C2971 C2973 1.561 . S
C2971 C2974 1.526 . S
C2972 H2956 0.959 . S
C2972 H2957 0.959 . S
C2972 H2958 0.961 . S
C2972 C2971 1.502 . S
C2973 H2959 0.960 . S
C2973 H2960 0.961 . S
C2973 H2961 0.959 . S
C2973 C2971 1.561 . S
C2974 C2971 1.526 . S
C2974 C2975 1.396 . S
C2974 C2979 1.390 . S
C2975 C2969 1.465 . S
C2975 C2974 1.396 . S
C2975 C2976 1.399 . S
C2976 H2962 0.929 . S
C2976 C2975 1.399 . S
C2976 C2977 1.385 . S
C2977 H2963 0.931 . S
C2977 C2976 1.385 . S
C2977 C2978 1.389 . S
C2978 C2977 1.389 . S
C2978 C2979 1.387 . S
C2979 H2964 0.930 . S
C2979 C2974 1.390 . S
C2979 C2978 1.387 . S
H2980 C2992 0.930 . S
H2981 C2994 0.930 . S
H2982 C2995 0.930 . S
H2983 C2999 0.959 . S
H2984 C2999 0.959 . S
H2985 C2999 0.961 . S
H2986 C3000 0.960 . S
H2987 C3000 0.961 . S
H2988 C3000 0.959 . S
H2989 C3003 0.929 . S
H2990 C3004 0.931 . S
H2991 C3006 0.930 . S
C2992 H2980 0.930 . S
C2992 C2993 1.399 . S
C2992 C2997 1.399 . S
C2993 C2992 1.399 . S
C2993 C2994 1.376 . S
C2994 H2981 0.930 . S
C2994 C2993 1.376 . S
C2994 C2995 1.388 . S
C2995 H2982 0.930 . S
C2995 C2994 1.388 . S
C2995 C2996 1.390 . S
C2996 C2995 1.390 . S
C2996 C2997 1.394 . S
C2996 C3002 1.465 . S
C2997 C2992 1.399 . S
C2997 C2996 1.394 . S
C2997 C2998 1.516 . S
C2998 C2997 1.516 . S
C2998 C2999 1.502 . S
C2998 C3000 1.561 . S
C2998 C3001 1.526 . S
C2999 H2983 0.959 . S
C2999 H2984 0.959 . S
C2999 H2985 0.961 . S
C2999 C2998 1.502 . S
C3000 H2986 0.960 . S
C3000 H2987 0.961 . S
C3000 H2988 0.959 . S
C3000 C2998 1.561 . S
C3001 C2998 1.526 . S
C3001 C3002 1.396 . S
C3001 C3006 1.390 . S
C3002 C2996 1.465 . S
C3002 C3001 1.396 . S
C3002 C3003 1.399 . S
C3003 H2989 0.929 . S
C3003 C3002 1.399 . S
C3003 C3004 1.385 . S
C3004 H2990 0.931 . S
C3004 C3003 1.385 . S
C3004 C3005 1.389 . S
C3005 C3004 1.389 . S
C3005 C3006 1.387 . S
C3006 H2991 0.930 . S
C3006 C3001 1.390 . S
C3006 C3005 1.387 . S
H3007 C3019 0.930 . S
H3008 C3021 0.930 . S
H3009 C3022 0.930 . S
H3010 C3026 0.959 . S
H3011 C3026 0.959 . S
H3012 C3026 0.961 . S
H3013 C3027 0.960 . S
H3014 C3027 0.961 . S
H3015 C3027 0.959 . S
H3016 C3030 0.929 . S
H3017 C3031 0.931 . S
H3018 C3033 0.930 . S
C3019 H3007 0.930 . S
C3019 C3020 1.399 . S
C3019 C3024 1.399 . S
C3020 C3019 1.399 . S
C3020 C3021 1.376 . S
C3021 H3008 0.930 . S
C3021 C3020 1.376 . S
C3021 C3022 1.388 . S
C3022 H3009 0.930 . S
C3022 C3021 1.388 . S
C3022 C3023 1.390 . S
C3023 C3022 1.390 . S
C3023 C3024 1.394 . S
C3023 C3029 1.465 . S
C3024 C3019 1.399 . S
C3024 C3023 1.394 . S
C3024 C3025 1.516 . S
C3025 C3024 1.516 . S
C3025 C3026 1.502 . S
C3025 C3027 1.561 . S
C3025 C3028 1.526 . S
C3026 H3010 0.959 . S
C3026 H3011 0.959 . S
C3026 H3012 0.961 . S
C3026 C3025 1.502 . S
C3027 H3013 0.960 . S
C3027 H3014 0.961 . S
C3027 H3015 0.959 . S
C3027 C3025 1.561 . S
C3028 C3025 1.526 . S
C3028 C3029 1.396 . S
C3028 C3033 1.390 . S
C3029 C3023 1.465 . S
C3029 C3028 1.396 . S
C3029 C3030 1.399 . S
C3030 H3016 0.929 . S
C3030 C3029 1.399 . S
C3030 C3031 1.385 . S
C3031 H3017 0.931 . S
C3031 C3030 1.385 . S
C3031 C3032 1.389 . S
C3032 C3031 1.389 . S
C3032 C3033 1.387 . S
C3033 H3018 0.930 . S
C3033 C3028 1.390 . S
C3033 C3032 1.387 . S
H3034 C3046 0.930 . S
H3035 C3048 0.930 . S
H3036 C3049 0.930 . S
H3037 C3053 0.959 . S
H3038 C3053 0.959 . S
H3039 C3053 0.961 . S
H3040 C3054 0.959 1_556 S
H3041 C3054 0.961 . S
H3042 C3054 0.959 1_556 S
H3043 C3057 0.929 . S
H3044 C3058 0.931 . S
H3045 C3060 0.930 . S
C3046 H3034 0.930 . S
C3046 C3047 1.399 . S
C3046 C3051 1.399 . S
C3047 C3046 1.399 . S
C3047 C3048 1.376 . S
C3048 H3035 0.930 . S
C3048 C3047 1.376 . S
C3048 C3049 1.388 . S
C3049 H3036 0.930 . S
C3049 C3048 1.388 . S
C3049 C3050 1.390 . S
C3050 C3049 1.390 . S
C3050 C3051 1.394 . S
C3050 C3056 1.465 . S
C3051 C3046 1.399 . S
C3051 C3050 1.394 . S
C3051 C3052 1.516 . S
C3052 C3051 1.516 . S
C3052 C3053 1.502 . S
C3052 C3054 1.561 . S
C3052 C3055 1.526 . S
C3053 H3037 0.959 . S
C3053 H3038 0.959 . S
C3053 H3039 0.961 . S
C3053 C3052 1.502 . S
C3054 H3040 0.959 1_554 S
C3054 H3041 0.961 . S
C3054 H3042 0.959 1_554 S
C3054 C3052 1.561 . S
C3055 C3052 1.526 . S
C3055 C3056 1.396 . S
C3055 C3060 1.390 . S
C3056 C3050 1.465 . S
C3056 C3055 1.396 . S
C3056 C3057 1.399 . S
C3057 H3043 0.929 . S
C3057 C3056 1.399 . S
C3057 C3058 1.385 . S
C3058 H3044 0.931 . S
C3058 C3057 1.385 . S
C3058 C3059 1.389 . S
C3059 C3058 1.389 . S
C3059 C3060 1.387 . S
C3060 H3045 0.930 . S
C3060 C3055 1.390 . S
C3060 C3059 1.387 . S
H3061 C3073 0.930 . S
H3062 C3075 0.930 . S
H3063 C3076 0.930 . S
H3064 C3080 0.959 . S
H3065 C3080 0.959 . S
H3066 C3080 0.961 . S
H3067 C3081 0.960 . S
H3068 C3081 0.961 . S
H3069 C3081 0.959 . S
H3070 C3084 0.929 . S
H3071 C3085 0.931 . S
H3072 C3087 0.930 . S
C3073 H3061 0.930 . S
C3073 C3074 1.399 . S
C3073 C3078 1.399 . S
C3074 C3073 1.399 . S
C3074 C3075 1.376 . S
C3075 H3062 0.930 . S
C3075 C3074 1.376 . S
C3075 C3076 1.388 . S
C3076 H3063 0.930 . S
C3076 C3075 1.388 . S
C3076 C3077 1.390 . S
C3077 C3076 1.390 . S
C3077 C3078 1.394 . S
C3077 C3083 1.465 . S
C3078 C3073 1.399 . S
C3078 C3077 1.394 . S
C3078 C3079 1.516 . S
C3079 C3078 1.516 . S
C3079 C3080 1.502 . S
C3079 C3081 1.561 . S
C3079 C3082 1.526 . S
C3080 H3064 0.959 . S
C3080 H3065 0.959 . S
C3080 H3066 0.961 . S
C3080 C3079 1.502 . S
C3081 H3067 0.960 . S
C3081 H3068 0.961 . S
C3081 H3069 0.959 . S
C3081 C3079 1.561 . S
C3082 C3079 1.526 . S
C3082 C3083 1.396 . S
C3082 C3087 1.390 . S
C3083 C3077 1.465 . S
C3083 C3082 1.396 . S
C3083 C3084 1.399 . S
C3084 H3070 0.929 . S
C3084 C3083 1.399 . S
C3084 C3085 1.385 . S
C3085 H3071 0.931 . S
C3085 C3084 1.385 . S
C3085 C3086 1.389 . S
C3086 C3085 1.389 . S
C3086 C3087 1.387 . S
C3087 H3072 0.930 . S
C3087 C3082 1.390 . S
C3087 C3086 1.387 . S
H3088 C3100 0.930 . S
H3089 C3102 0.930 . S
H3090 C3103 0.930 . S
H3091 C3107 0.959 . S
H3092 C3107 0.959 . S
H3093 C3107 0.961 . S
H3094 C3108 0.960 . S
H3095 C3108 0.961 . S
H3096 C3108 0.959 . S
H3097 C3111 0.929 . S
H3098 C3112 0.931 . S
H3099 C3114 0.930 . S
C3100 H3088 0.930 . S
C3100 C3101 1.399 . S
C3100 C3105 1.399 . S
C3101 C3100 1.399 . S
C3101 C3102 1.376 . S
C3102 H3089 0.930 . S
C3102 C3101 1.376 . S
C3102 C3103 1.388 . S
C3103 H3090 0.930 . S
C3103 C3102 1.388 . S
C3103 C3104 1.390 . S
C3104 C3103 1.390 . S
C3104 C3105 1.394 . S
C3104 C3110 1.465 . S
C3105 C3100 1.399 . S
C3105 C3104 1.394 . S
C3105 C3106 1.516 . S
C3106 C3105 1.516 . S
C3106 C3107 1.502 . S
C3106 C3108 1.561 . S
C3106 C3109 1.526 . S
C3107 H3091 0.959 . S
C3107 H3092 0.959 . S
C3107 H3093 0.961 . S
C3107 C3106 1.502 . S
C3108 H3094 0.960 . S
C3108 H3095 0.961 . S
C3108 H3096 0.959 . S
C3108 C3106 1.561 . S
C3109 C3106 1.526 . S
C3109 C3110 1.396 . S
C3109 C3114 1.390 . S
C3110 C3104 1.465 . S
C3110 C3109 1.396 . S
C3110 C3111 1.399 . S
C3111 H3097 0.929 . S
C3111 C3110 1.399 . S
C3111 C3112 1.385 . S
C3112 H3098 0.931 . S
C3112 C3111 1.385 . S
C3112 C3113 1.389 . S
C3113 C3112 1.389 . S
C3113 C3114 1.387 . S
C3114 H3099 0.930 . S
C3114 C3109 1.390 . S
C3114 C3113 1.387 . S
H3115 C3127 0.930 . S
H3116 C3129 0.930 . S
H3117 C3130 0.930 . S
H3118 C3134 0.959 . S
H3119 C3134 0.959 . S
H3120 C3134 0.961 . S
H3121 C3135 0.960 . S
H3122 C3135 0.961 . S
H3123 C3135 0.959 . S
H3124 C3138 0.929 . S
H3125 C3139 0.931 . S
H3126 C3141 0.930 . S
C3127 H3115 0.930 . S
C3127 C3128 1.399 . S
C3127 C3132 1.399 . S
C3128 C3127 1.399 . S
C3128 C3129 1.376 . S
C3129 H3116 0.930 . S
C3129 C3128 1.376 . S
C3129 C3130 1.388 . S
C3130 H3117 0.930 . S
C3130 C3129 1.388 . S
C3130 C3131 1.390 . S
C3131 C3130 1.390 . S
C3131 C3132 1.394 . S
C3131 C3137 1.465 . S
C3132 C3127 1.399 . S
C3132 C3131 1.394 . S
C3132 C3133 1.516 . S
C3133 C3132 1.516 . S
C3133 C3134 1.502 . S
C3133 C3135 1.561 . S
C3133 C3136 1.526 . S
C3134 H3118 0.959 . S
C3134 H3119 0.959 . S
C3134 H3120 0.961 . S
C3134 C3133 1.502 . S
C3135 H3121 0.960 . S
C3135 H3122 0.961 . S
C3135 H3123 0.959 . S
C3135 C3133 1.561 . S
C3136 C3133 1.526 . S
C3136 C3137 1.396 . S
C3136 C3141 1.390 . S
C3137 C3131 1.465 . S
C3137 C3136 1.396 . S
C3137 C3138 1.399 . S
C3138 H3124 0.929 . S
C3138 C3137 1.399 . S
C3138 C3139 1.385 . S
C3139 H3125 0.931 . S
C3139 C3138 1.385 . S
C3139 C3140 1.389 . S
C3140 C3139 1.389 . S
C3140 C3141 1.387 . S
C3141 H3126 0.930 . S
C3141 C3136 1.390 . S
C3141 C3140 1.387 . S
H3142 C3154 0.930 . S
H3143 C3156 0.930 . S
H3144 C3157 0.930 . S
H3145 C3161 0.959 . S
H3146 C3161 0.959 . S
H3147 C3161 0.961 . S
H3148 C3162 0.960 . S
H3149 C3162 0.961 . S
H3150 C3162 0.959 . S
H3151 C3165 0.929 . S
H3152 C3166 0.931 . S
H3153 C3168 0.930 . S
C3154 H3142 0.930 . S
C3154 C3155 1.399 . S
C3154 C3159 1.399 . S
C3155 C3154 1.399 . S
C3155 C3156 1.376 . S
C3156 H3143 0.930 . S
C3156 C3155 1.376 . S
C3156 C3157 1.388 . S
C3157 H3144 0.930 . S
C3157 C3156 1.388 . S
C3157 C3158 1.390 . S
C3158 C3157 1.390 . S
C3158 C3159 1.394 . S
C3158 C3164 1.465 . S
C3159 C3154 1.399 . S
C3159 C3158 1.394 . S
C3159 C3160 1.516 . S
C3160 C3159 1.516 . S
C3160 C3161 1.502 . S
C3160 C3162 1.561 . S
C3160 C3163 1.526 . S
C3161 H3145 0.959 . S
C3161 H3146 0.959 . S
C3161 H3147 0.961 . S
C3161 C3160 1.502 . S
C3162 H3148 0.960 . S
C3162 H3149 0.961 . S
C3162 H3150 0.959 . S
C3162 C3160 1.561 . S
C3163 C3160 1.526 . S
C3163 C3164 1.396 . S
C3163 C3168 1.390 . S
C3164 C3158 1.465 . S
C3164 C3163 1.396 . S
C3164 C3165 1.399 . S
C3165 H3151 0.929 . S
C3165 C3164 1.399 . S
C3165 C3166 1.385 . S
C3166 H3152 0.931 . S
C3166 C3165 1.385 . S
C3166 C3167 1.389 . S
C3167 C3166 1.389 . S
C3167 C3168 1.387 . S
C3168 H3153 0.930 . S
C3168 C3163 1.390 . S
C3168 C3167 1.387 . S
H3169 C3181 0.930 . S
H3170 C3183 0.930 . S
H3171 C3184 0.930 . S
H3172 C3188 0.959 . S
H3173 C3188 0.959 . S
H3174 C3188 0.961 . S
H3175 C3189 0.960 . S
H3176 C3189 0.961 . S
H3177 C3189 0.959 . S
H3178 C3192 0.929 . S
H3179 C3193 0.931 . S
H3180 C3195 0.930 . S
C3181 H3169 0.930 . S
C3181 C3182 1.399 . S
C3181 C3186 1.399 . S
C3182 C3181 1.399 . S
C3182 C3183 1.376 . S
C3183 H3170 0.930 . S
C3183 C3182 1.376 . S
C3183 C3184 1.388 . S
C3184 H3171 0.930 . S
C3184 C3183 1.388 . S
C3184 C3185 1.390 . S
C3185 C3184 1.390 . S
C3185 C3186 1.394 . S
C3185 C3191 1.465 . S
C3186 C3181 1.399 . S
C3186 C3185 1.394 . S
C3186 C3187 1.516 . S
C3187 C3186 1.516 . S
C3187 C3188 1.502 . S
C3187 C3189 1.561 . S
C3187 C3190 1.526 . S
C3188 H3172 0.959 . S
C3188 H3173 0.959 . S
C3188 H3174 0.961 . S
C3188 C3187 1.502 . S
C3189 H3175 0.960 . S
C3189 H3176 0.961 . S
C3189 H3177 0.959 . S
C3189 C3187 1.561 . S
C3190 C3187 1.526 . S
C3190 C3191 1.396 . S
C3190 C3195 1.390 . S
C3191 C3185 1.465 . S
C3191 C3190 1.396 . S
C3191 C3192 1.399 . S
C3192 H3178 0.929 . S
C3192 C3191 1.399 . S
C3192 C3193 1.385 . S
C3193 H3179 0.931 . S
C3193 C3192 1.385 . S
C3193 C3194 1.389 . S
C3194 C3193 1.389 . S
C3194 C3195 1.387 . S
C3195 H3180 0.930 . S
C3195 C3190 1.390 . S
C3195 C3194 1.387 . S
H3196 C3208 0.930 . S
H3197 C3210 0.930 . S
H3198 C3211 0.930 . S
H3199 C3215 0.959 . S
H3200 C3215 0.959 . S
H3201 C3215 0.961 . S
H3202 C3216 0.960 . S
H3203 C3216 0.961 . S
H3204 C3216 0.959 . S
H3205 C3219 0.929 . S
H3206 C3220 0.931 . S
H3207 C3222 0.930 . S
C3208 H3196 0.930 . S
C3208 C3209 1.399 . S
C3208 C3213 1.399 . S
C3209 C3208 1.399 . S
C3209 C3210 1.376 . S
C3210 H3197 0.930 . S
C3210 C3209 1.376 . S
C3210 C3211 1.388 . S
C3211 H3198 0.930 . S
C3211 C3210 1.388 . S
C3211 C3212 1.390 . S
C3212 C3211 1.390 . S
C3212 C3213 1.394 . S
C3212 C3218 1.465 . S
C3213 C3208 1.399 . S
C3213 C3212 1.394 . S
C3213 C3214 1.516 . S
C3214 C3213 1.516 . S
C3214 C3215 1.502 . S
C3214 C3216 1.561 . S
C3214 C3217 1.526 . S
C3215 H3199 0.959 . S
C3215 H3200 0.959 . S
C3215 H3201 0.961 . S
C3215 C3214 1.502 . S
C3216 H3202 0.960 . S
C3216 H3203 0.961 . S
C3216 H3204 0.959 . S
C3216 C3214 1.561 . S
C3217 C3214 1.526 . S
C3217 C3218 1.396 . S
C3217 C3222 1.390 . S
C3218 C3212 1.465 . S
C3218 C3217 1.396 . S
C3218 C3219 1.399 . S
C3219 H3205 0.929 . S
C3219 C3218 1.399 . S
C3219 C3220 1.385 . S
C3220 H3206 0.931 . S
C3220 C3219 1.385 . S
C3220 C3221 1.389 . S
C3221 C3220 1.389 . S
C3221 C3222 1.387 . S
C3222 H3207 0.930 . S
C3222 C3217 1.390 . S
C3222 C3221 1.387 . S
H3223 C3235 0.930 . S
H3224 C3237 0.930 . S
H3225 C3238 0.930 . S
H3226 C3242 0.959 . S
H3227 C3242 0.959 . S
H3228 C3242 0.961 . S
H3229 C3243 0.960 . S
H3230 C3243 0.961 . S
H3231 C3243 0.959 . S
H3232 C3246 0.929 . S
H3233 C3247 0.931 . S
H3234 C3249 0.930 . S
C3235 H3223 0.930 . S
C3235 C3236 1.399 . S
C3235 C3240 1.399 . S
C3236 C3235 1.399 . S
C3236 C3237 1.376 . S
C3237 H3224 0.930 . S
C3237 C3236 1.376 . S
C3237 C3238 1.388 . S
C3238 H3225 0.930 . S
C3238 C3237 1.388 . S
C3238 C3239 1.390 . S
C3239 C3238 1.390 . S
C3239 C3240 1.394 . S
C3239 C3245 1.465 . S
C3240 C3235 1.399 . S
C3240 C3239 1.394 . S
C3240 C3241 1.516 . S
C3241 C3240 1.516 . S
C3241 C3242 1.502 . S
C3241 C3243 1.561 . S
C3241 C3244 1.526 . S
C3242 H3226 0.959 . S
C3242 H3227 0.959 . S
C3242 H3228 0.961 . S
C3242 C3241 1.502 . S
C3243 H3229 0.960 . S
C3243 H3230 0.961 . S
C3243 H3231 0.959 . S
C3243 C3241 1.561 . S
C3244 C3241 1.526 . S
C3244 C3245 1.396 . S
C3244 C3249 1.390 . S
C3245 C3239 1.465 . S
C3245 C3244 1.396 . S
C3245 C3246 1.399 . S
C3246 H3232 0.929 . S
C3246 C3245 1.399 . S
C3246 C3247 1.385 . S
C3247 H3233 0.931 . S
C3247 C3246 1.385 . S
C3247 C3248 1.389 . S
C3248 C3247 1.389 . S
C3248 C3249 1.387 . S
C3249 H3234 0.930 . S
C3249 C3244 1.390 . S
C3249 C3248 1.387 . S
H3250 C3262 0.930 . S
H3251 C3264 0.930 . S
H3252 C3265 0.930 . S
H3253 C3269 0.959 . S
H3254 C3269 0.959 . S
H3255 C3269 0.961 . S
H3256 C3270 0.960 . S
H3257 C3270 0.961 . S
H3258 C3270 0.959 . S
H3259 C3273 0.929 . S
H3260 C3274 0.931 . S
H3261 C3276 0.930 . S
C3262 H3250 0.930 . S
C3262 C3263 1.399 . S
C3262 C3267 1.399 . S
C3263 C3262 1.399 . S
C3263 C3264 1.376 . S
C3264 H3251 0.930 . S
C3264 C3263 1.376 . S
C3264 C3265 1.388 . S
C3265 H3252 0.930 . S
C3265 C3264 1.388 . S
C3265 C3266 1.390 . S
C3266 C3265 1.390 . S
C3266 C3267 1.394 . S
C3266 C3272 1.465 . S
C3267 C3262 1.399 . S
C3267 C3266 1.394 . S
C3267 C3268 1.516 . S
C3268 C3267 1.516 . S
C3268 C3269 1.502 . S
C3268 C3270 1.561 . S
C3268 C3271 1.526 . S
C3269 H3253 0.959 . S
C3269 H3254 0.959 . S
C3269 H3255 0.961 . S
C3269 C3268 1.502 . S
C3270 H3256 0.960 . S
C3270 H3257 0.961 . S
C3270 H3258 0.959 . S
C3270 C3268 1.561 . S
C3271 C3268 1.526 . S
C3271 C3272 1.396 . S
C3271 C3276 1.390 . S
C3272 C3266 1.465 . S
C3272 C3271 1.396 . S
C3272 C3273 1.399 . S
C3273 H3259 0.929 . S
C3273 C3272 1.399 . S
C3273 C3274 1.385 . S
C3274 H3260 0.931 . S
C3274 C3273 1.385 . S
C3274 C3275 1.389 . S
C3275 C3274 1.389 . S
C3275 C3276 1.387 . S
C3276 H3261 0.930 . S
C3276 C3271 1.390 . S
C3276 C3275 1.387 . S
H3277 C3289 0.930 . S
H3278 C3291 0.930 . S
H3279 C3292 0.930 . S
H3280 C3296 0.959 . S
H3281 C3296 0.959 . S
H3282 C3296 0.961 . S
H3283 C3297 0.960 . S
H3284 C3297 0.961 . S
H3285 C3297 0.959 . S
H3286 C3300 0.929 . S
H3287 C3301 0.931 . S
H3288 C3303 0.930 . S
C3289 H3277 0.930 . S
C3289 C3290 1.399 . S
C3289 C3294 1.399 . S
C3290 C3289 1.399 . S
C3290 C3291 1.376 . S
C3291 H3278 0.930 . S
C3291 C3290 1.376 . S
C3291 C3292 1.388 . S
C3292 H3279 0.930 . S
C3292 C3291 1.388 . S
C3292 C3293 1.390 . S
C3293 C3292 1.390 . S
C3293 C3294 1.394 . S
C3293 C3299 1.465 . S
C3294 C3289 1.399 . S
C3294 C3293 1.394 . S
C3294 C3295 1.516 . S
C3295 C3294 1.516 . S
C3295 C3296 1.502 . S
C3295 C3297 1.561 . S
C3295 C3298 1.526 . S
C3296 H3280 0.959 . S
C3296 H3281 0.959 . S
C3296 H3282 0.961 . S
C3296 C3295 1.502 . S
C3297 H3283 0.960 . S
C3297 H3284 0.961 . S
C3297 H3285 0.959 . S
C3297 C3295 1.561 . S
C3298 C3295 1.526 . S
C3298 C3299 1.396 . S
C3298 C3303 1.390 . S
C3299 C3293 1.465 . S
C3299 C3298 1.396 . S
C3299 C3300 1.399 . S
C3300 H3286 0.929 . S
C3300 C3299 1.399 . S
C3300 C3301 1.385 . S
C3301 H3287 0.931 . S
C3301 C3300 1.385 . S
C3301 C3302 1.389 . S
C3302 C3301 1.389 . S
C3302 C3303 1.387 . S
C3303 H3288 0.930 . S
C3303 C3298 1.390 . S
C3303 C3302 1.387 . S
H3304 C3316 0.930 . S
H3305 C3318 0.930 . S
H3306 C3319 0.930 . S
H3307 C3323 0.959 . S
H3308 C3323 0.959 . S
H3309 C3323 0.961 . S
H3310 C3324 0.960 . S
H3311 C3324 0.961 . S
H3312 C3324 0.959 . S
H3313 C3327 0.929 . S
H3314 C3328 0.931 . S
H3315 C3330 0.930 . S
C3316 H3304 0.930 . S
C3316 C3317 1.399 . S
C3316 C3321 1.399 . S
C3317 C3316 1.399 . S
C3317 C3318 1.376 . S
C3318 H3305 0.930 . S
C3318 C3317 1.376 . S
C3318 C3319 1.388 . S
C3319 H3306 0.930 . S
C3319 C3318 1.388 . S
C3319 C3320 1.390 . S
C3320 C3319 1.390 . S
C3320 C3321 1.394 . S
C3320 C3326 1.465 . S
C3321 C3316 1.399 . S
C3321 C3320 1.394 . S
C3321 C3322 1.516 . S
C3322 C3321 1.516 . S
C3322 C3323 1.502 . S
C3322 C3324 1.561 . S
C3322 C3325 1.526 . S
C3323 H3307 0.959 . S
C3323 H3308 0.959 . S
C3323 H3309 0.961 . S
C3323 C3322 1.502 . S
C3324 H3310 0.960 . S
C3324 H3311 0.961 . S
C3324 H3312 0.959 . S
C3324 C3322 1.561 . S
C3325 C3322 1.526 . S
C3325 C3326 1.396 . S
C3325 C3330 1.390 . S
C3326 C3320 1.465 . S
C3326 C3325 1.396 . S
C3326 C3327 1.399 . S
C3327 H3313 0.929 . S
C3327 C3326 1.399 . S
C3327 C3328 1.385 . S
C3328 H3314 0.931 . S
C3328 C3327 1.385 . S
C3328 C3329 1.389 . S
C3329 C3328 1.389 . S
C3329 C3330 1.387 . S
C3330 H3315 0.930 . S
C3330 C3325 1.390 . S
C3330 C3329 1.387 . S
H3331 C3343 0.930 . S
H3332 C3345 0.930 . S
H3333 C3346 0.930 . S
H3334 C3350 0.959 . S
H3335 C3350 0.959 . S
H3336 C3350 0.961 . S
H3337 C3351 0.960 . S
H3338 C3351 0.961 . S
H3339 C3351 0.959 . S
H3340 C3354 0.929 . S
H3341 C3355 0.931 . S
H3342 C3357 0.930 . S
C3343 H3331 0.930 . S
C3343 C3344 1.399 . S
C3343 C3348 1.399 . S
C3344 C3343 1.399 . S
C3344 C3345 1.376 . S
C3345 H3332 0.930 . S
C3345 C3344 1.376 . S
C3345 C3346 1.388 . S
C3346 H3333 0.930 . S
C3346 C3345 1.388 . S
C3346 C3347 1.390 . S
C3347 C3346 1.390 . S
C3347 C3348 1.394 . S
C3347 C3353 1.465 . S
C3348 C3343 1.399 . S
C3348 C3347 1.394 . S
C3348 C3349 1.516 . S
C3349 C3348 1.516 . S
C3349 C3350 1.502 . S
C3349 C3351 1.561 . S
C3349 C3352 1.526 . S
C3350 H3334 0.959 . S
C3350 H3335 0.959 . S
C3350 H3336 0.961 . S
C3350 C3349 1.502 . S
C3351 H3337 0.960 . S
C3351 H3338 0.961 . S
C3351 H3339 0.959 . S
C3351 C3349 1.561 . S
C3352 C3349 1.526 . S
C3352 C3353 1.396 . S
C3352 C3357 1.390 . S
C3353 C3347 1.465 . S
C3353 C3352 1.396 . S
C3353 C3354 1.399 . S
C3354 H3340 0.929 . S
C3354 C3353 1.399 . S
C3354 C3355 1.385 . S
C3355 H3341 0.931 . S
C3355 C3354 1.385 . S
C3355 C3356 1.389 . S
C3356 C3355 1.389 . S
C3356 C3357 1.387 . S
C3357 H3342 0.930 . S
C3357 C3352 1.390 . S
C3357 C3356 1.387 . S
H3358 C3370 0.930 . S
H3359 C3372 0.930 . S
H3360 C3373 0.930 . S
H3361 C3377 0.959 . S
H3362 C3377 0.959 . S
H3363 C3377 0.961 . S
H3364 C3378 0.960 . S
H3365 C3378 0.961 . S
H3366 C3378 0.959 . S
H3367 C3381 0.929 . S
H3368 C3382 0.931 . S
H3369 C3384 0.930 . S
C3370 H3358 0.930 . S
C3370 C3371 1.399 . S
C3370 C3375 1.399 . S
C3371 C3370 1.399 . S
C3371 C3372 1.376 . S
C3372 H3359 0.930 . S
C3372 C3371 1.376 . S
C3372 C3373 1.388 . S
C3373 H3360 0.930 . S
C3373 C3372 1.388 . S
C3373 C3374 1.390 . S
C3374 C3373 1.390 . S
C3374 C3375 1.394 . S
C3374 C3380 1.465 . S
C3375 C3370 1.399 . S
C3375 C3374 1.394 . S
C3375 C3376 1.516 . S
C3376 C3375 1.516 . S
C3376 C3377 1.502 . S
C3376 C3378 1.561 . S
C3376 C3379 1.526 . S
C3377 H3361 0.959 . S
C3377 H3362 0.959 . S
C3377 H3363 0.961 . S
C3377 C3376 1.502 . S
C3378 H3364 0.960 . S
C3378 H3365 0.961 . S
C3378 H3366 0.959 . S
C3378 C3376 1.561 . S
C3379 C3376 1.526 . S
C3379 C3380 1.396 . S
C3379 C3384 1.390 . S
C3380 C3374 1.465 . S
C3380 C3379 1.396 . S
C3380 C3381 1.399 . S
C3381 H3367 0.929 . S
C3381 C3380 1.399 . S
C3381 C3382 1.385 . S
C3382 H3368 0.931 . S
C3382 C3381 1.385 . S
C3382 C3383 1.389 . S
C3383 C3382 1.389 . S
C3383 C3384 1.387 . S
C3384 H3369 0.930 . S
C3384 C3379 1.390 . S
C3384 C3383 1.387 . S
H3385 C3397 0.930 . S
H3386 C3399 0.930 . S
H3387 C3400 0.930 . S
H3388 C3404 0.959 . S
H3389 C3404 0.959 . S
H3390 C3404 0.961 . S
H3391 C3405 0.960 . S
H3392 C3405 0.961 . S
H3393 C3405 0.959 . S
H3394 C3408 0.929 . S
H3395 C3409 0.931 . S
H3396 C3411 0.930 . S
C3397 H3385 0.930 . S
C3397 C3398 1.399 . S
C3397 C3402 1.399 . S
C3398 C3397 1.399 . S
C3398 C3399 1.376 . S
C3399 H3386 0.930 . S
C3399 C3398 1.376 . S
C3399 C3400 1.388 . S
C3400 H3387 0.930 . S
C3400 C3399 1.388 . S
C3400 C3401 1.390 . S
C3401 C3400 1.390 . S
C3401 C3402 1.394 . S
C3401 C3407 1.465 . S
C3402 C3397 1.399 . S
C3402 C3401 1.394 . S
C3402 C3403 1.516 . S
C3403 C3402 1.516 . S
C3403 C3404 1.502 . S
C3403 C3405 1.561 . S
C3403 C3406 1.526 . S
C3404 H3388 0.959 . S
C3404 H3389 0.959 . S
C3404 H3390 0.961 . S
C3404 C3403 1.502 . S
C3405 H3391 0.960 . S
C3405 H3392 0.961 . S
C3405 H3393 0.959 . S
C3405 C3403 1.561 . S
C3406 C3403 1.526 . S
C3406 C3407 1.396 . S
C3406 C3411 1.390 . S
C3407 C3401 1.465 . S
C3407 C3406 1.396 . S
C3407 C3408 1.399 . S
C3408 H3394 0.929 . S
C3408 C3407 1.399 . S
C3408 C3409 1.385 . S
C3409 H3395 0.931 . S
C3409 C3408 1.385 . S
C3409 C3410 1.389 . S
C3410 C3409 1.389 . S
C3410 C3411 1.387 . S
C3411 H3396 0.930 . S
C3411 C3406 1.390 . S
C3411 C3410 1.387 . S
H3412 C3424 0.930 . S
H3413 C3426 0.930 . S
H3414 C3427 0.930 . S
H3415 C3431 0.959 . S
H3416 C3431 0.959 . S
H3417 C3431 0.961 . S
H3418 C3432 0.960 . S
H3419 C3432 0.961 . S
H3420 C3432 0.959 . S
H3421 C3435 0.929 . S
H3422 C3436 0.931 . S
H3423 C3438 0.930 . S
C3424 H3412 0.930 . S
C3424 C3425 1.399 . S
C3424 C3429 1.399 . S
C3425 C3424 1.399 . S
C3425 C3426 1.376 . S
C3426 H3413 0.930 . S
C3426 C3425 1.376 . S
C3426 C3427 1.388 . S
C3427 H3414 0.930 . S
C3427 C3426 1.388 . S
C3427 C3428 1.390 . S
C3428 C3427 1.390 . S
C3428 C3429 1.394 . S
C3428 C3434 1.465 . S
C3429 C3424 1.399 . S
C3429 C3428 1.394 . S
C3429 C3430 1.516 . S
C3430 C3429 1.516 . S
C3430 C3431 1.502 . S
C3430 C3432 1.561 . S
C3430 C3433 1.526 . S
C3431 H3415 0.959 . S
C3431 H3416 0.959 . S
C3431 H3417 0.961 . S
C3431 C3430 1.502 . S
C3432 H3418 0.960 . S
C3432 H3419 0.961 . S
C3432 H3420 0.959 . S
C3432 C3430 1.561 . S
C3433 C3430 1.526 . S
C3433 C3434 1.396 . S
C3433 C3438 1.390 . S
C3434 C3428 1.465 . S
C3434 C3433 1.396 . S
C3434 C3435 1.399 . S
C3435 H3421 0.929 . S
C3435 C3434 1.399 . S
C3435 C3436 1.385 . S
C3436 H3422 0.931 . S
C3436 C3435 1.385 . S
C3436 C3437 1.389 . S
C3437 C3436 1.389 . S
C3437 C3438 1.387 . S
C3438 H3423 0.930 . S
C3438 C3433 1.390 . S
C3438 C3437 1.387 . S
H3439 C3451 0.930 . S
H3440 C3453 0.930 . S
H3441 C3454 0.930 . S
H3442 C3458 0.959 . S
H3443 C3458 0.959 . S
H3444 C3458 0.961 . S
H3445 C3459 0.960 . S
H3446 C3459 0.961 . S
H3447 C3459 0.959 . S
H3448 C3462 0.929 . S
H3449 C3463 0.931 . S
H3450 C3465 0.930 . S
C3451 H3439 0.930 . S
C3451 C3452 1.399 . S
C3451 C3456 1.399 . S
C3452 C3451 1.399 . S
C3452 C3453 1.376 . S
C3453 H3440 0.930 . S
C3453 C3452 1.376 . S
C3453 C3454 1.388 . S
C3454 H3441 0.930 . S
C3454 C3453 1.388 . S
C3454 C3455 1.390 . S
C3455 C3454 1.390 . S
C3455 C3456 1.394 . S
C3455 C3461 1.465 . S
C3456 C3451 1.399 . S
C3456 C3455 1.394 . S
C3456 C3457 1.516 . S
C3457 C3456 1.516 . S
C3457 C3458 1.502 . S
C3457 C3459 1.561 . S
C3457 C3460 1.526 . S
C3458 H3442 0.959 . S
C3458 H3443 0.959 . S
C3458 H3444 0.961 . S
C3458 C3457 1.502 . S
C3459 H3445 0.960 . S
C3459 H3446 0.961 . S
C3459 H3447 0.959 . S
C3459 C3457 1.561 . S
C3460 C3457 1.526 . S
C3460 C3461 1.396 . S
C3460 C3465 1.390 . S
C3461 C3455 1.465 . S
C3461 C3460 1.396 . S
C3461 C3462 1.399 . S
C3462 H3448 0.929 . S
C3462 C3461 1.399 . S
C3462 C3463 1.385 . S
C3463 H3449 0.931 . S
C3463 C3462 1.385 . S
C3463 C3464 1.389 . S
C3464 C3463 1.389 . S
C3464 C3465 1.387 . S
C3465 H3450 0.930 . S
C3465 C3460 1.390 . S
C3465 C3464 1.387 . S
H3466 C3478 0.930 . S
H3467 C3480 0.930 . S
H3468 C3481 0.930 . S
H3469 C3485 0.959 . S
H3470 C3485 0.959 . S
H3471 C3485 0.961 . S
H3472 C3486 0.960 . S
H3473 C3486 0.961 . S
H3474 C3486 0.959 . S
H3475 C3489 0.929 . S
H3476 C3490 0.931 . S
H3477 C3492 0.930 . S
C3478 H3466 0.930 . S
C3478 C3479 1.399 . S
C3478 C3483 1.399 . S
C3479 C3478 1.399 . S
C3479 C3480 1.376 . S
C3480 H3467 0.930 . S
C3480 C3479 1.376 . S
C3480 C3481 1.388 . S
C3481 H3468 0.930 . S
C3481 C3480 1.388 . S
C3481 C3482 1.390 . S
C3482 C3481 1.390 . S
C3482 C3483 1.394 . S
C3482 C3488 1.465 . S
C3483 C3478 1.399 . S
C3483 C3482 1.394 . S
C3483 C3484 1.516 . S
C3484 C3483 1.516 . S
C3484 C3485 1.502 . S
C3484 C3486 1.561 . S
C3484 C3487 1.526 . S
C3485 H3469 0.959 . S
C3485 H3470 0.959 . S
C3485 H3471 0.961 . S
C3485 C3484 1.502 . S
C3486 H3472 0.960 . S
C3486 H3473 0.961 . S
C3486 H3474 0.959 . S
C3486 C3484 1.561 . S
C3487 C3484 1.526 . S
C3487 C3488 1.396 . S
C3487 C3492 1.390 . S
C3488 C3482 1.465 . S
C3488 C3487 1.396 . S
C3488 C3489 1.399 . S
C3489 H3475 0.929 . S
C3489 C3488 1.399 . S
C3489 C3490 1.385 . S
C3490 H3476 0.931 . S
C3490 C3489 1.385 . S
C3490 C3491 1.389 . S
C3491 C3490 1.389 . S
C3491 C3492 1.387 . S
C3492 H3477 0.930 . S
C3492 C3487 1.390 . S
C3492 C3491 1.387 . S
H3493 C3505 0.930 . S
H3494 C3507 0.930 . S
H3495 C3508 0.930 . S
H3496 C3512 0.959 . S
H3497 C3512 0.959 . S
H3498 C3512 0.961 . S
H3499 C3513 0.960 . S
H3500 C3513 0.961 . S
H3501 C3513 0.959 . S
H3502 C3516 0.929 . S
H3503 C3517 0.931 . S
H3504 C3519 0.930 . S
C3505 H3493 0.930 . S
C3505 C3506 1.399 . S
C3505 C3510 1.399 . S
C3506 C3505 1.399 . S
C3506 C3507 1.376 . S
C3507 H3494 0.930 . S
C3507 C3506 1.376 . S
C3507 C3508 1.388 . S
C3508 H3495 0.930 . S
C3508 C3507 1.388 . S
C3508 C3509 1.390 . S
C3509 C3508 1.390 . S
C3509 C3510 1.394 . S
C3509 C3515 1.465 . S
C3510 C3505 1.399 . S
C3510 C3509 1.394 . S
C3510 C3511 1.516 . S
C3511 C3510 1.516 . S
C3511 C3512 1.502 . S
C3511 C3513 1.561 . S
C3511 C3514 1.526 . S
C3512 H3496 0.959 . S
C3512 H3497 0.959 . S
C3512 H3498 0.961 . S
C3512 C3511 1.502 . S
C3513 H3499 0.960 . S
C3513 H3500 0.961 . S
C3513 H3501 0.959 . S
C3513 C3511 1.561 . S
C3514 C3511 1.526 . S
C3514 C3515 1.396 . S
C3514 C3519 1.390 . S
C3515 C3509 1.465 . S
C3515 C3514 1.396 . S
C3515 C3516 1.399 . S
C3516 H3502 0.929 . S
C3516 C3515 1.399 . S
C3516 C3517 1.385 . S
C3517 H3503 0.931 . S
C3517 C3516 1.385 . S
C3517 C3518 1.389 . S
C3518 C3517 1.389 . S
C3518 C3519 1.387 . S
C3519 H3504 0.930 . S
C3519 C3514 1.390 . S
C3519 C3518 1.387 . S
H3520 C3532 0.930 . S
H3521 C3534 0.930 . S
H3522 C3535 0.930 . S
H3523 C3539 0.959 . S
H3524 C3539 0.959 . S
H3525 C3539 0.961 . S
H3526 C3540 0.960 . S
H3527 C3540 0.961 . S
H3528 C3540 0.959 . S
H3529 C3543 0.929 . S
H3530 C3544 0.931 . S
H3531 C3546 0.930 . S
C3532 H3520 0.930 . S
C3532 C3533 1.399 . S
C3532 C3537 1.399 . S
C3533 C3532 1.399 . S
C3533 C3534 1.376 . S
C3534 H3521 0.930 . S
C3534 C3533 1.376 . S
C3534 C3535 1.388 . S
C3535 H3522 0.930 . S
C3535 C3534 1.388 . S
C3535 C3536 1.390 . S
C3536 C3535 1.390 . S
C3536 C3537 1.394 . S
C3536 C3542 1.465 . S
C3537 C3532 1.399 . S
C3537 C3536 1.394 . S
C3537 C3538 1.516 . S
C3538 C3537 1.516 . S
C3538 C3539 1.502 . S
C3538 C3540 1.561 . S
C3538 C3541 1.526 . S
C3539 H3523 0.959 . S
C3539 H3524 0.959 . S
C3539 H3525 0.961 . S
C3539 C3538 1.502 . S
C3540 H3526 0.960 . S
C3540 H3527 0.961 . S
C3540 H3528 0.959 . S
C3540 C3538 1.561 . S
C3541 C3538 1.526 . S
C3541 C3542 1.396 . S
C3541 C3546 1.390 . S
C3542 C3536 1.465 . S
C3542 C3541 1.396 . S
C3542 C3543 1.399 . S
C3543 H3529 0.929 . S
C3543 C3542 1.399 . S
C3543 C3544 1.385 . S
C3544 H3530 0.931 . S
C3544 C3543 1.385 . S
C3544 C3545 1.389 . S
C3545 C3544 1.389 . S
C3545 C3546 1.387 . S
C3546 H3531 0.930 . S
C3546 C3541 1.390 . S
C3546 C3545 1.387 . S
H3547 C3559 0.930 . S
H3548 C3561 0.930 . S
H3549 C3562 0.930 . S
H3550 C3566 0.959 . S
H3551 C3566 0.959 1_545 S
H3552 C3566 0.961 1_545 S
H3553 C3567 0.960 . S
H3554 C3567 0.961 . S
H3555 C3567 0.959 . S
H3556 C3570 0.929 . S
H3557 C3571 0.931 . S
H3558 C3573 0.930 . S
C3559 H3547 0.930 . S
C3559 C3560 1.399 . S
C3559 C3564 1.399 . S
C3560 C3559 1.399 . S
C3560 C3561 1.376 . S
C3561 H3548 0.930 . S
C3561 C3560 1.376 . S
C3561 C3562 1.388 . S
C3562 H3549 0.930 . S
C3562 C3561 1.388 . S
C3562 C3563 1.390 . S
C3563 C3562 1.390 . S
C3563 C3564 1.394 . S
C3563 C3569 1.465 . S
C3564 C3559 1.399 . S
C3564 C3563 1.394 . S
C3564 C3565 1.516 . S
C3565 C3564 1.516 . S
C3565 C3566 1.502 . S
C3565 C3567 1.561 1_565 S
C3565 C3568 1.526 . S
C3566 H3550 0.959 . S
C3566 H3551 0.959 1_565 S
C3566 H3552 0.961 1_565 S
C3566 C3565 1.502 . S
C3567 H3553 0.960 . S
C3567 H3554 0.961 . S
C3567 H3555 0.959 . S
C3567 C3565 1.561 1_545 S
C3568 C3565 1.526 . S
C3568 C3569 1.396 . S
C3568 C3573 1.390 . S
C3569 C3563 1.465 . S
C3569 C3568 1.396 . S
C3569 C3570 1.399 . S
C3570 H3556 0.929 . S
C3570 C3569 1.399 . S
C3570 C3571 1.385 . S
C3571 H3557 0.931 . S
C3571 C3570 1.385 . S
C3571 C3572 1.389 . S
C3572 C3571 1.389 . S
C3572 C3573 1.387 . S
C3573 H3558 0.930 . S
C3573 C3568 1.390 . S
C3573 C3572 1.387 . S
H3574 C3586 0.930 . S
H3575 C3588 0.930 . S
H3576 C3589 0.930 . S
H3577 C3593 0.959 . S
H3578 C3593 0.959 . S
H3579 C3593 0.961 . S
H3580 C3594 0.960 . S
H3581 C3594 0.961 . S
H3582 C3594 0.959 . S
H3583 C3597 0.929 . S
H3584 C3598 0.931 . S
H3585 C3600 0.930 . S
C3586 H3574 0.930 . S
C3586 C3587 1.399 . S
C3586 C3591 1.399 . S
C3587 C3586 1.399 . S
C3587 C3588 1.376 . S
C3588 H3575 0.930 . S
C3588 C3587 1.376 . S
C3588 C3589 1.388 . S
C3589 H3576 0.930 . S
C3589 C3588 1.388 . S
C3589 C3590 1.390 . S
C3590 C3589 1.390 . S
C3590 C3591 1.394 . S
C3590 C3596 1.465 . S
C3591 C3586 1.399 . S
C3591 C3590 1.394 . S
C3591 C3592 1.516 . S
C3592 C3591 1.516 . S
C3592 C3593 1.502 . S
C3592 C3594 1.561 . S
C3592 C3595 1.526 . S
C3593 H3577 0.959 . S
C3593 H3578 0.959 . S
C3593 H3579 0.961 . S
C3593 C3592 1.502 . S
C3594 H3580 0.960 . S
C3594 H3581 0.961 . S
C3594 H3582 0.959 . S
C3594 C3592 1.561 . S
C3595 C3592 1.526 . S
C3595 C3596 1.396 . S
C3595 C3600 1.390 . S
C3596 C3590 1.465 . S
C3596 C3595 1.396 . S
C3596 C3597 1.399 . S
C3597 H3583 0.929 . S
C3597 C3596 1.399 . S
C3597 C3598 1.385 . S
C3598 H3584 0.931 . S
C3598 C3597 1.385 . S
C3598 C3599 1.389 . S
C3599 C3598 1.389 . S
C3599 C3600 1.387 . S
C3600 H3585 0.930 . S
C3600 C3595 1.390 . S
C3600 C3599 1.387 . S
H3601 C3613 0.930 . S
H3602 C3615 0.930 . S
H3603 C3616 0.930 . S
H3604 C3620 0.959 1_565 S
H3605 C3620 0.959 . S
H3606 C3620 0.961 . S
H3607 C3621 0.960 . S
H3608 C3621 0.961 . S
H3609 C3621 0.959 . S
H3610 C3624 0.929 . S
H3611 C3625 0.931 . S
H3612 C3627 0.930 . S
C3613 H3601 0.930 . S
C3613 C3614 1.399 . S
C3613 C3618 1.399 . S
C3614 C3613 1.399 . S
C3614 C3615 1.376 . S
C3615 H3602 0.930 . S
C3615 C3614 1.376 . S
C3615 C3616 1.388 . S
C3616 H3603 0.930 . S
C3616 C3615 1.388 . S
C3616 C3617 1.390 . S
C3617 C3616 1.390 . S
C3617 C3618 1.394 . S
C3617 C3623 1.465 . S
C3618 C3613 1.399 . S
C3618 C3617 1.394 . S
C3618 C3619 1.516 . S
C3619 C3618 1.516 . S
C3619 C3620 1.502 . S
C3619 C3621 1.561 . S
C3619 C3622 1.526 . S
C3620 H3604 0.959 1_545 S
C3620 H3605 0.959 . S
C3620 H3606 0.961 . S
C3620 C3619 1.502 . S
C3621 H3607 0.960 . S
C3621 H3608 0.961 . S
C3621 H3609 0.959 . S
C3621 C3619 1.561 . S
C3622 C3619 1.526 . S
C3622 C3623 1.396 . S
C3622 C3627 1.390 . S
C3623 C3617 1.465 . S
C3623 C3622 1.396 . S
C3623 C3624 1.399 . S
C3624 H3610 0.929 . S
C3624 C3623 1.399 . S
C3624 C3625 1.385 . S
C3625 H3611 0.931 . S
C3625 C3624 1.385 . S
C3625 C3626 1.389 . S
C3626 C3625 1.389 . S
C3626 C3627 1.387 . S
C3627 H3612 0.930 . S
C3627 C3622 1.390 . S
C3627 C3626 1.387 . S
H3628 C3640 0.930 . S
H3629 C3642 0.930 . S
H3630 C3643 0.930 . S
H3631 C3647 0.959 . S
H3632 C3647 0.959 . S
H3633 C3647 0.961 . S
H3634 C3648 0.960 . S
H3635 C3648 0.961 . S
H3636 C3648 0.959 . S
H3637 C3651 0.929 . S
H3638 C3652 0.931 . S
H3639 C3654 0.930 . S
C3640 H3628 0.930 . S
C3640 C3641 1.399 . S
C3640 C3645 1.399 . S
C3641 C3640 1.399 . S
C3641 C3642 1.376 . S
C3642 H3629 0.930 . S
C3642 C3641 1.376 . S
C3642 C3643 1.388 . S
C3643 H3630 0.930 . S
C3643 C3642 1.388 . S
C3643 C3644 1.390 . S
C3644 C3643 1.390 . S
C3644 C3645 1.394 . S
C3644 C3650 1.465 . S
C3645 C3640 1.399 . S
C3645 C3644 1.394 . S
C3645 C3646 1.516 . S
C3646 C3645 1.516 . S
C3646 C3647 1.502 . S
C3646 C3648 1.561 . S
C3646 C3649 1.526 . S
C3647 H3631 0.959 . S
C3647 H3632 0.959 . S
C3647 H3633 0.961 . S
C3647 C3646 1.502 . S
C3648 H3634 0.960 . S
C3648 H3635 0.961 . S
C3648 H3636 0.959 . S
C3648 C3646 1.561 . S
C3649 C3646 1.526 . S
C3649 C3650 1.396 . S
C3649 C3654 1.390 . S
C3650 C3644 1.465 . S
C3650 C3649 1.396 . S
C3650 C3651 1.399 . S
C3651 H3637 0.929 . S
C3651 C3650 1.399 . S
C3651 C3652 1.385 . S
C3652 H3638 0.931 . S
C3652 C3651 1.385 . S
C3652 C3653 1.389 . S
C3653 C3652 1.389 . S
C3653 C3654 1.387 . S
C3654 H3639 0.930 . S
C3654 C3649 1.390 . S
C3654 C3653 1.387 . S
H3655 C3667 0.930 . S
H3656 C3669 0.930 . S
H3657 C3670 0.930 . S
H3658 C3674 0.959 . S
H3659 C3674 0.959 . S
H3660 C3674 0.961 . S
H3661 C3675 0.960 . S
H3662 C3675 0.961 . S
H3663 C3675 0.959 . S
H3664 C3678 0.929 . S
H3665 C3679 0.931 . S
H3666 C3681 0.930 . S
C3667 H3655 0.930 . S
C3667 C3668 1.399 . S
C3667 C3672 1.399 . S
C3668 C3667 1.399 . S
C3668 C3669 1.376 . S
C3669 H3656 0.930 . S
C3669 C3668 1.376 . S
C3669 C3670 1.388 . S
C3670 H3657 0.930 . S
C3670 C3669 1.388 . S
C3670 C3671 1.390 . S
C3671 C3670 1.390 . S
C3671 C3672 1.394 . S
C3671 C3677 1.465 . S
C3672 C3667 1.399 . S
C3672 C3671 1.394 . S
C3672 C3673 1.516 . S
C3673 C3672 1.516 . S
C3673 C3674 1.502 . S
C3673 C3675 1.561 . S
C3673 C3676 1.526 . S
C3674 H3658 0.959 . S
C3674 H3659 0.959 . S
C3674 H3660 0.961 . S
C3674 C3673 1.502 . S
C3675 H3661 0.960 . S
C3675 H3662 0.961 . S
C3675 H3663 0.959 . S
C3675 C3673 1.561 . S
C3676 C3673 1.526 . S
C3676 C3677 1.396 . S
C3676 C3681 1.390 . S
C3677 C3671 1.465 . S
C3677 C3676 1.396 . S
C3677 C3678 1.399 . S
C3678 H3664 0.929 . S
C3678 C3677 1.399 . S
C3678 C3679 1.385 . S
C3679 H3665 0.931 . S
C3679 C3678 1.385 . S
C3679 C3680 1.389 . S
C3680 C3679 1.389 . S
C3680 C3681 1.387 . S
C3681 H3666 0.930 . S
C3681 C3676 1.390 . S
C3681 C3680 1.387 . S
H3682 C3694 0.930 . S
H3683 C3696 0.930 . S
H3684 C3697 0.930 . S
H3685 C3701 0.959 . S
H3686 C3701 0.959 . S
H3687 C3701 0.961 . S
H3688 C3702 0.960 . S
H3689 C3702 0.961 . S
H3690 C3702 0.959 . S
H3691 C3705 0.929 . S
H3692 C3706 0.931 . S
H3693 C3708 0.930 . S
C3694 H3682 0.930 . S
C3694 C3695 1.399 . S
C3694 C3699 1.399 . S
C3695 C3694 1.399 . S
C3695 C3696 1.376 . S
C3696 H3683 0.930 . S
C3696 C3695 1.376 . S
C3696 C3697 1.388 . S
C3697 H3684 0.930 . S
C3697 C3696 1.388 . S
C3697 C3698 1.390 . S
C3698 C3697 1.390 . S
C3698 C3699 1.394 . S
C3698 C3704 1.465 . S
C3699 C3694 1.399 . S
C3699 C3698 1.394 . S
C3699 C3700 1.516 . S
C3700 C3699 1.516 . S
C3700 C3701 1.502 . S
C3700 C3702 1.561 . S
C3700 C3703 1.526 . S
C3701 H3685 0.959 . S
C3701 H3686 0.959 . S
C3701 H3687 0.961 . S
C3701 C3700 1.502 . S
C3702 H3688 0.960 . S
C3702 H3689 0.961 . S
C3702 H3690 0.959 . S
C3702 C3700 1.561 . S
C3703 C3700 1.526 . S
C3703 C3704 1.396 . S
C3703 C3708 1.390 . S
C3704 C3698 1.465 . S
C3704 C3703 1.396 . S
C3704 C3705 1.399 . S
C3705 H3691 0.929 . S
C3705 C3704 1.399 . S
C3705 C3706 1.385 . S
C3706 H3692 0.931 . S
C3706 C3705 1.385 . S
C3706 C3707 1.389 . S
C3707 C3706 1.389 . S
C3707 C3708 1.387 . S
C3708 H3693 0.930 . S
C3708 C3703 1.390 . S
C3708 C3707 1.387 . S
H3709 C3721 0.930 . S
H3710 C3723 0.930 . S
H3711 C3724 0.930 . S
H3712 C3728 0.959 . S
H3713 C3728 0.959 . S
H3714 C3728 0.961 . S
H3715 C3729 0.960 . S
H3716 C3729 0.961 . S
H3717 C3729 0.959 . S
H3718 C3732 0.929 . S
H3719 C3733 0.931 . S
H3720 C3735 0.930 . S
C3721 H3709 0.930 . S
C3721 C3722 1.399 . S
C3721 C3726 1.399 . S
C3722 C3721 1.399 . S
C3722 C3723 1.376 . S
C3723 H3710 0.930 . S
C3723 C3722 1.376 . S
C3723 C3724 1.388 . S
C3724 H3711 0.930 . S
C3724 C3723 1.388 . S
C3724 C3725 1.390 . S
C3725 C3724 1.390 . S
C3725 C3726 1.394 . S
C3725 C3731 1.465 . S
C3726 C3721 1.399 . S
C3726 C3725 1.394 . S
C3726 C3727 1.516 . S
C3727 C3726 1.516 . S
C3727 C3728 1.502 . S
C3727 C3729 1.561 . S
C3727 C3730 1.526 . S
C3728 H3712 0.959 . S
C3728 H3713 0.959 . S
C3728 H3714 0.961 . S
C3728 C3727 1.502 . S
C3729 H3715 0.960 . S
C3729 H3716 0.961 . S
C3729 H3717 0.959 . S
C3729 C3727 1.561 . S
C3730 C3727 1.526 . S
C3730 C3731 1.396 . S
C3730 C3735 1.390 . S
C3731 C3725 1.465 . S
C3731 C3730 1.396 . S
C3731 C3732 1.399 . S
C3732 H3718 0.929 . S
C3732 C3731 1.399 . S
C3732 C3733 1.385 . S
C3733 H3719 0.931 . S
C3733 C3732 1.385 . S
C3733 C3734 1.389 . S
C3734 C3733 1.389 . S
C3734 C3735 1.387 . S
C3735 H3720 0.930 . S
C3735 C3730 1.390 . S
C3735 C3734 1.387 . S
H3736 C3748 0.930 . S
H3737 C3750 0.930 . S
H3738 C3751 0.930 . S
H3739 C3755 0.959 . S
H3740 C3755 0.959 . S
H3741 C3755 0.961 . S
H3742 C3756 0.960 . S
H3743 C3756 0.961 . S
H3744 C3756 0.959 . S
H3745 C3759 0.929 . S
H3746 C3760 0.931 . S
H3747 C3762 0.930 . S
C3748 H3736 0.930 . S
C3748 C3749 1.399 . S
C3748 C3753 1.399 . S
C3749 C3748 1.399 . S
C3749 C3750 1.376 . S
C3750 H3737 0.930 . S
C3750 C3749 1.376 . S
C3750 C3751 1.388 . S
C3751 H3738 0.930 . S
C3751 C3750 1.388 . S
C3751 C3752 1.390 . S
C3752 C3751 1.390 . S
C3752 C3753 1.394 . S
C3752 C3758 1.465 . S
C3753 C3748 1.399 . S
C3753 C3752 1.394 . S
C3753 C3754 1.516 . S
C3754 C3753 1.516 . S
C3754 C3755 1.502 . S
C3754 C3756 1.561 . S
C3754 C3757 1.526 . S
C3755 H3739 0.959 . S
C3755 H3740 0.959 . S
C3755 H3741 0.961 . S
C3755 C3754 1.502 . S
C3756 H3742 0.960 . S
C3756 H3743 0.961 . S
C3756 H3744 0.959 . S
C3756 C3754 1.561 . S
C3757 C3754 1.526 . S
C3757 C3758 1.396 . S
C3757 C3762 1.390 . S
C3758 C3752 1.465 . S
C3758 C3757 1.396 . S
C3758 C3759 1.399 . S
C3759 H3745 0.929 . S
C3759 C3758 1.399 . S
C3759 C3760 1.385 . S
C3760 H3746 0.931 . S
C3760 C3759 1.385 . S
C3760 C3761 1.389 . S
C3761 C3760 1.389 . S
C3761 C3762 1.387 . S
C3762 H3747 0.930 . S
C3762 C3757 1.390 . S
C3762 C3761 1.387 . S
H3763 C3775 0.930 . S
H3764 C3777 0.921 1_545 S
H3765 C3778 0.930 1_545 S
H3766 C3782 0.959 . S
H3767 C3782 0.959 . S
H3768 C3782 0.961 . S
H3769 C3783 0.960 . S
H3770 C3783 0.961 . S
H3771 C3783 0.959 . S
H3772 C3786 0.929 1_545 S
H3773 C3787 0.931 1_545 S
H3774 C3789 0.930 . S
C3775 H3763 0.930 . S
C3775 C3776 1.399 . S
C3775 C3780 1.399 . S
C3776 C3775 1.399 . S
C3776 C3777 1.376 . S
C3777 H3764 0.921 1_565 S
C3777 C3776 1.376 . S
C3777 C3778 1.388 . S
C3778 H3765 0.930 1_565 S
C3778 C3777 1.388 . S
C3778 C3779 1.390 . S
C3779 C3778 1.390 . S
C3779 C3780 1.394 . S
C3779 C3785 1.465 . S
C3780 C3775 1.399 . S
C3780 C3779 1.394 . S
C3780 C3781 1.516 . S
C3781 C3780 1.516 . S
C3781 C3782 1.502 . S
C3781 C3783 1.561 . S
C3781 C3784 1.526 . S
C3782 H3766 0.959 . S
C3782 H3767 0.959 . S
C3782 H3768 0.961 . S
C3782 C3781 1.502 . S
C3783 H3769 0.960 . S
C3783 H3770 0.961 . S
C3783 H3771 0.959 . S
C3783 C3781 1.561 . S
C3784 C3781 1.526 . S
C3784 C3785 1.396 . S
C3784 C3789 1.390 . S
C3785 C3779 1.465 . S
C3785 C3784 1.396 . S
C3785 C3786 1.399 . S
C3786 H3772 0.929 1_565 S
C3786 C3785 1.399 . S
C3786 C3787 1.385 . S
C3787 H3773 0.931 1_565 S
C3787 C3786 1.385 . S
C3787 C3788 1.389 . S
C3788 C3787 1.389 . S
C3788 C3789 1.387 . S
C3789 H3774 0.930 . S
C3789 C3784 1.390 . S
C3789 C3788 1.387 . S
H3790 C3802 0.930 . S
H3791 C3804 0.930 . S
H3792 C3805 0.930 . S
H3793 C3809 0.959 . S
H3794 C3809 0.959 . S
H3795 C3809 0.961 . S
H3796 C3810 0.960 . S
H3797 C3810 0.961 . S
H3798 C3810 0.959 . S
H3799 C3813 0.929 . S
H3800 C3814 0.931 . S
H3801 C3816 0.930 . S
C3802 H3790 0.930 . S
C3802 C3803 1.399 . S
C3802 C3807 1.399 . S
C3803 C3802 1.399 . S
C3803 C3804 1.376 . S
C3804 H3791 0.930 . S
C3804 C3803 1.376 . S
C3804 C3805 1.388 . S
C3805 H3792 0.930 . S
C3805 C3804 1.388 . S
C3805 C3806 1.390 . S
C3806 C3805 1.390 . S
C3806 C3807 1.394 . S
C3806 C3812 1.465 . S
C3807 C3802 1.399 . S
C3807 C3806 1.394 . S
C3807 C3808 1.516 . S
C3808 C3807 1.516 . S
C3808 C3809 1.502 . S
C3808 C3810 1.561 . S
C3808 C3811 1.526 . S
C3809 H3793 0.959 . S
C3809 H3794 0.959 . S
C3809 H3795 0.961 . S
C3809 C3808 1.502 . S
C3810 H3796 0.960 . S
C3810 H3797 0.961 . S
C3810 H3798 0.959 . S
C3810 C3808 1.561 . S
C3811 C3808 1.526 . S
C3811 C3812 1.396 . S
C3811 C3816 1.390 . S
C3812 C3806 1.465 . S
C3812 C3811 1.396 . S
C3812 C3813 1.399 . S
C3813 H3799 0.929 . S
C3813 C3812 1.399 . S
C3813 C3814 1.385 . S
C3814 H3800 0.931 . S
C3814 C3813 1.385 . S
C3814 C3815 1.389 . S
C3815 C3814 1.389 . S
C3815 C3816 1.387 . S
C3816 H3801 0.930 . S
C3816 C3811 1.390 . S
C3816 C3815 1.387 . S
H3817 C3829 0.930 . S
H3818 C3831 0.921 1_565 S
H3819 C3832 0.930 1_565 S
H3820 C3836 0.959 . S
H3821 C3836 0.959 . S
H3822 C3836 0.961 . S
H3823 C3837 0.960 . S
H3824 C3837 0.961 . S
H3825 C3837 0.959 . S
H3826 C3840 0.929 1_565 S
H3827 C3841 0.931 1_565 S
H3828 C3843 0.930 . S
C3829 H3817 0.930 . S
C3829 C3830 1.399 . S
C3829 C3834 1.399 . S
C3830 C3829 1.399 . S
C3830 C3831 1.376 . S
C3831 H3818 0.921 1_545 S
C3831 C3830 1.376 . S
C3831 C3832 1.388 . S
C3832 H3819 0.930 1_545 S
C3832 C3831 1.388 . S
C3832 C3833 1.390 . S
C3833 C3832 1.390 . S
C3833 C3834 1.394 . S
C3833 C3839 1.465 . S
C3834 C3829 1.399 . S
C3834 C3833 1.394 . S
C3834 C3835 1.516 . S
C3835 C3834 1.516 . S
C3835 C3836 1.502 . S
C3835 C3837 1.561 . S
C3835 C3838 1.526 . S
C3836 H3820 0.959 . S
C3836 H3821 0.959 . S
C3836 H3822 0.961 . S
C3836 C3835 1.502 . S
C3837 H3823 0.960 . S
C3837 H3824 0.961 . S
C3837 H3825 0.959 . S
C3837 C3835 1.561 . S
C3838 C3835 1.526 . S
C3838 C3839 1.396 . S
C3838 C3843 1.390 . S
C3839 C3833 1.465 . S
C3839 C3838 1.396 . S
C3839 C3840 1.399 . S
C3840 H3826 0.929 1_545 S
C3840 C3839 1.399 . S
C3840 C3841 1.385 . S
C3841 H3827 0.931 1_545 S
C3841 C3840 1.385 . S
C3841 C3842 1.389 . S
C3842 C3841 1.389 . S
C3842 C3843 1.387 . S
C3843 H3828 0.930 . S
C3843 C3838 1.390 . S
C3843 C3842 1.387 . S
H3844 C3856 0.930 . S
H3845 C3858 0.930 . S
H3846 C3859 0.930 . S
H3847 C3863 0.959 . S
H3848 C3863 0.959 . S
H3849 C3863 0.961 . S
H3850 C3864 0.960 . S
H3851 C3864 0.961 . S
H3852 C3864 0.959 . S
H3853 C3867 0.929 . S
H3854 C3868 0.931 . S
H3855 C3870 0.930 . S
C3856 H3844 0.930 . S
C3856 C3857 1.399 . S
C3856 C3861 1.399 . S
C3857 C3856 1.399 . S
C3857 C3858 1.376 . S
C3858 H3845 0.930 . S
C3858 C3857 1.376 . S
C3858 C3859 1.388 . S
C3859 H3846 0.930 . S
C3859 C3858 1.388 . S
C3859 C3860 1.390 . S
C3860 C3859 1.390 . S
C3860 C3861 1.394 . S
C3860 C3866 1.465 . S
C3861 C3856 1.399 . S
C3861 C3860 1.394 . S
C3861 C3862 1.516 . S
C3862 C3861 1.516 . S
C3862 C3863 1.502 . S
C3862 C3864 1.561 . S
C3862 C3865 1.526 . S
C3863 H3847 0.959 . S
C3863 H3848 0.959 . S
C3863 H3849 0.961 . S
C3863 C3862 1.502 . S
C3864 H3850 0.960 . S
C3864 H3851 0.961 . S
C3864 H3852 0.959 . S
C3864 C3862 1.561 . S
C3865 C3862 1.526 . S
C3865 C3866 1.396 . S
C3865 C3870 1.390 . S
C3866 C3860 1.465 . S
C3866 C3865 1.396 . S
C3866 C3867 1.399 . S
C3867 H3853 0.929 . S
C3867 C3866 1.399 . S
C3867 C3868 1.385 . S
C3868 H3854 0.931 . S
C3868 C3867 1.385 . S
C3868 C3869 1.389 . S
C3869 C3868 1.389 . S
C3869 C3870 1.387 . S
C3870 H3855 0.930 . S
C3870 C3865 1.390 . S
C3870 C3869 1.387 . S
H3871 C3883 0.930 . S
H3872 C3885 0.930 . S
H3873 C3886 0.930 . S
H3874 C3890 0.959 . S
H3875 C3890 0.959 . S
H3876 C3890 0.961 . S
H3877 C3891 0.960 . S
H3878 C3891 0.961 . S
H3879 C3891 0.959 . S
H3880 C3894 0.929 . S
H3881 C3895 0.931 . S
H3882 C3897 0.930 . S
C3883 H3871 0.930 . S
C3883 C3884 1.399 . S
C3883 C3888 1.399 . S
C3884 C3883 1.399 . S
C3884 C3885 1.376 . S
C3885 H3872 0.930 . S
C3885 C3884 1.376 . S
C3885 C3886 1.388 . S
C3886 H3873 0.930 . S
C3886 C3885 1.388 . S
C3886 C3887 1.390 . S
C3887 C3886 1.390 . S
C3887 C3888 1.394 . S
C3887 C3893 1.465 . S
C3888 C3883 1.399 . S
C3888 C3887 1.394 . S
C3888 C3889 1.516 . S
C3889 C3888 1.516 . S
C3889 C3890 1.502 . S
C3889 C3891 1.561 . S
C3889 C3892 1.526 . S
C3890 H3874 0.959 . S
C3890 H3875 0.959 . S
C3890 H3876 0.961 . S
C3890 C3889 1.502 . S
C3891 H3877 0.960 . S
C3891 H3878 0.961 . S
C3891 H3879 0.959 . S
C3891 C3889 1.561 . S
C3892 C3889 1.526 . S
C3892 C3893 1.396 . S
C3892 C3897 1.390 . S
C3893 C3887 1.465 . S
C3893 C3892 1.396 . S
C3893 C3894 1.399 . S
C3894 H3880 0.929 . S
C3894 C3893 1.399 . S
C3894 C3895 1.385 . S
C3895 H3881 0.931 . S
C3895 C3894 1.385 . S
C3895 C3896 1.389 . S
C3896 C3895 1.389 . S
C3896 C3897 1.387 . S
C3897 H3882 0.930 . S
C3897 C3892 1.390 . S
C3897 C3896 1.387 . S
H3898 C3910 0.930 . S
H3899 C3912 0.930 . S
H3900 C3913 0.930 . S
H3901 C3917 0.959 . S
H3902 C3917 0.959 . S
H3903 C3917 0.961 . S
H3904 C3918 0.960 . S
H3905 C3918 0.961 . S
H3906 C3918 0.959 . S
H3907 C3921 0.929 . S
H3908 C3922 0.931 . S
H3909 C3924 0.930 . S
C3910 H3898 0.930 . S
C3910 C3911 1.399 . S
C3910 C3915 1.399 . S
C3911 C3910 1.399 . S
C3911 C3912 1.376 . S
C3912 H3899 0.930 . S
C3912 C3911 1.376 . S
C3912 C3913 1.388 . S
C3913 H3900 0.930 . S
C3913 C3912 1.388 . S
C3913 C3914 1.390 . S
C3914 C3913 1.390 . S
C3914 C3915 1.394 . S
C3914 C3920 1.465 . S
C3915 C3910 1.399 . S
C3915 C3914 1.394 . S
C3915 C3916 1.516 . S
C3916 C3915 1.516 . S
C3916 C3917 1.502 . S
C3916 C3918 1.561 . S
C3916 C3919 1.526 . S
C3917 H3901 0.959 . S
C3917 H3902 0.959 . S
C3917 H3903 0.961 . S
C3917 C3916 1.502 . S
C3918 H3904 0.960 . S
C3918 H3905 0.961 . S
C3918 H3906 0.959 . S
C3918 C3916 1.561 . S
C3919 C3916 1.526 . S
C3919 C3920 1.396 . S
C3919 C3924 1.390 . S
C3920 C3914 1.465 . S
C3920 C3919 1.396 . S
C3920 C3921 1.399 . S
C3921 H3907 0.929 . S
C3921 C3920 1.399 . S
C3921 C3922 1.385 . S
C3922 H3908 0.931 . S
C3922 C3921 1.385 . S
C3922 C3923 1.389 . S
C3923 C3922 1.389 . S
C3923 C3924 1.387 . S
C3924 H3909 0.930 . S
C3924 C3919 1.390 . S
C3924 C3923 1.387 . S
H3925 C3937 0.930 . S
H3926 C3939 0.930 . S
H3927 C3940 0.930 . S
H3928 C3944 0.959 . S
H3929 C3944 0.959 . S
H3930 C3944 0.961 . S
H3931 C3945 0.960 . S
H3932 C3945 0.961 . S
H3933 C3945 0.959 . S
H3934 C3948 0.929 . S
H3935 C3949 0.931 . S
H3936 C3951 0.930 . S
C3937 H3925 0.930 . S
C3937 C3938 1.399 . S
C3937 C3942 1.399 . S
C3938 C3937 1.399 . S
C3938 C3939 1.376 . S
C3939 H3926 0.930 . S
C3939 C3938 1.376 . S
C3939 C3940 1.388 . S
C3940 H3927 0.930 . S
C3940 C3939 1.388 . S
C3940 C3941 1.390 . S
C3941 C3940 1.390 . S
C3941 C3942 1.394 . S
C3941 C3947 1.465 . S
C3942 C3937 1.399 . S
C3942 C3941 1.394 . S
C3942 C3943 1.516 . S
C3943 C3942 1.516 . S
C3943 C3944 1.502 . S
C3943 C3945 1.561 . S
C3943 C3946 1.526 . S
C3944 H3928 0.959 . S
C3944 H3929 0.959 . S
C3944 H3930 0.961 . S
C3944 C3943 1.502 . S
C3945 H3931 0.960 . S
C3945 H3932 0.961 . S
C3945 H3933 0.959 . S
C3945 C3943 1.561 . S
C3946 C3943 1.526 . S
C3946 C3947 1.396 . S
C3946 C3951 1.390 . S
C3947 C3941 1.465 . S
C3947 C3946 1.396 . S
C3947 C3948 1.399 . S
C3948 H3934 0.929 . S
C3948 C3947 1.399 . S
C3948 C3949 1.385 . S
C3949 H3935 0.931 . S
C3949 C3948 1.385 . S
C3949 C3950 1.389 . S
C3950 C3949 1.389 . S
C3950 C3951 1.387 . S
C3951 H3936 0.930 . S
C3951 C3946 1.390 . S
C3951 C3950 1.387 . S
C941 C129 1.057 . S
C953 C13 1.109 . S
C968 C854 1.057 . S
C980 C42 1.109 . S
C995 C419 1.072 . S
C1007 C71 1.057 . S
C1022 C100 1.008 . S
C1034 C680 1.139 . S
C1049 C738 1.137 . S
C1061 C158 1.019 . S
C1076 C187 1.133 . S
C1088 C303 1.026 . S
C1103 C216 1.076 . S
C1115 C564 1.053 . S
C1130 C245 1.135 . S
C1142 C361 1.022 . S
C1157 C622 1.054 . S
C1169 C274 1.112 . S
C1184 C912 1.137 . S
C1196 C332 1.019 . S
C1211 C506 1.093 . S
C1223 C390 1.037 . S
C1238 C796 1.057 . S
C1250 C448 1.071 . S
C1265 C593 1.086 . S
C1277 C477 1.043 . S
C1292 C883 1.074 . S
C1304 C535 1.054 . S
C1319 C651 1.056 . S
C1331 C767 1.072 . S
C1346 C709 1.011 . S
C1358 C825 1.138 . S
C1373 C5 1.914 . S
C1385 C189 1.938 . S
C1400 C34 1.913 1_545 S
C1412 C914 1.936 . S
C1427 C363 1.938 . S
C1439 C63 1.915 1_545 S
C1454 C624 1.904 . S
C1466 C92 1.941 . S
C1481 C73 1.909 . S
C1493 C121 1.922 . S
C1508 C150 1.941 1_565 S
C1520 C798 1.915 . S
C1535 C179 1.938 1_565 S
C1547 C247 1.925 . S
C1562 C208 1.913 . S
C1574 C508 1.932 . S
C1589 C237 1.918 . S
C1601 C421 1.925 . S
C1616 C266 1.932 . S
C1628 C682 1.923 . S
C1643 C131 1.926 . S
C1655 C295 1.917 . S
C1670 C324 1.937 . S
C1682 C856 1.915 . S
C1697 C353 1.913 . S
C1709 C305 1.926 . S
C1724 C382 1.939 . S
C1736 C566 1.905 . S
C1751 C411 1.927 . S
C1763 C15 1.906 . S
C1778 C440 1.912 . S
C1790 C740 1.930 . S
C1805 C653 1.903 . S
C1817 C469 1.940 . S
C1832 C498 1.913 1_545 S
C1844 C450 1.937 . S
C1859 C827 1.935 . S
C1871 C527 1.913 1_545 S
C1886 C160 1.932 . S
C1898 C556 1.914 . S
C1913 C585 1.918 . S
C1925 C537 1.937 . S
C1940 C334 1.907 . S
C1952 C614 1.940 1_565 S
C1967 C711 1.919 . S
C1979 C643 1.915 1_565 S
C1994 C44 1.935 . S
C2006 C672 1.915 . S
C2021 C885 1.924 . S
C2033 C701 1.919 . S
C2048 C730 1.925 . S
C2060 C218 1.931 . S
C2075 C595 1.909 . S
C2087 C759 1.941 . S
C2102 C392 1.915 . S
C2114 C788 1.926 . S
C2129 C769 1.936 . S
C2141 C817 1.926 . S
C2156 C102 1.929 . S
C2168 C846 1.935 . S
C2183 C875 1.941 . S
C2195 C479 1.914 . S
C2210 C904 1.915 . S
C2222 C276 1.936 . S
C2237 C293 0.630 . S
C2249 C3 0.731 . S
C2264 C322 0.759 . S
C2276 C32 0.608 . S
C2291 C235 0.713 . S
C2303 C61 0.689 . S
C2318 C264 0.772 . S
C2330 C90 0.605 . S
C2345 C409 0.744 . S
C2357 C119 0.602 . S
C2372 C148 0.653 . S
C2384 C438 0.658 . S
C2399 C351 0.616 . S
C2411 C177 0.768 . S
C2426 C206 0.729 . S
C2438 C380 0.605 . S
C2453 C467 0.700 . S
C2465 C757 0.702 . S
C2480 C496 0.696 . S
C2492 C786 0.706 . S
C2507 C699 0.756 . S
C2519 C525 0.636 . S
C2534 C728 0.620 . S
C2546 C554 0.764 . S
C2561 C873 0.723 . S
C2573 C583 0.607 . S
C2588 C902 0.605 . S
C2600 C612 0.760 . S
C2615 C815 0.685 . S
C2627 C641 0.755 . S
C2642 C670 0.667 . S
C2654 C844 0.644 . S
C2669 C21 1.147 . S
C2681 C50 1.128 . S
C2696 C79 1.093 . S
C2708 C108 1.121 . S
C2723 C137 1.116 . S
C2735 C166 1.145 . S
C2750 C195 1.148 . S
C2762 C224 1.108 . S
C2777 C253 1.148 . S
C2789 C282 1.123 . S
C2804 C340 1.094 . S
C2816 C311 1.114 . S
C2831 C398 1.129 . S
C2843 C369 1.095 . S
C2858 C456 1.114 . S
C2870 C427 1.145 . S
C2885 C514 1.148 . S
C2897 C485 1.121 . S
C2912 C572 1.093 . S
C2924 C543 1.117 . S
C2939 C601 1.122 . S
C2951 C630 1.099 . S
C2966 C659 1.129 . S
C2978 C688 1.095 . S
C2993 C717 1.123 . S
C3005 C746 1.094 . S
C3020 C804 1.147 . S
C3032 C775 1.128 . S
C3047 C862 1.093 . S
C3059 C833 1.140 . S
C3074 C920 1.129 . S
C3086 C891 1.095 . S
C3101 C66 1.425 . S
C3113 C8 1.317 . S
C3128 C37 1.381 . S
C3140 C95 1.427 . S
C3155 C124 1.446 . S
C3167 C182 1.322 . S
C3182 C211 1.323 . S
C3194 C153 1.441 . S
C3209 C240 1.354 . S
C3221 C298 1.444 . S
C3236 C327 1.412 . S
C3248 C269 1.323 . S
C3263 C356 1.427 . S
C3275 C414 1.342 . S
C3290 C385 1.439 . S
C3302 C443 1.329 . S
C3317 C472 1.422 . S
C3329 C530 1.318 . S
C3344 C501 1.339 . S
C3356 C559 1.450 . S
C3371 C646 1.334 . S
C3383 C588 1.431 . S
C3398 C675 1.331 . S
C3410 C617 1.434 . S
C3425 C704 1.336 . S
C3437 C762 1.450 . S
C3452 C733 1.427 . S
C3464 C791 1.382 . S
C3479 C878 1.334 . S
C3491 C820 1.431 . S
C3506 C907 1.449 . S
C3518 C849 1.318 . S
C3533 C10 2.193 . S
C3545 C97 2.216 . S
C3560 C39 2.206 . S
C3572 C68 2.223 . S
C3587 C213 2.223 . S
C3599 C126 2.215 . S
C3614 C155 2.208 . S
C3626 C184 2.223 . S
C3641 C242 2.223 . S
C3653 C329 2.200 . S
C3668 C300 2.203 . S
C3680 C271 2.198 . S
C3695 C445 2.195 . S
C3707 C358 2.199 . S
C3722 C387 2.206 . S
C3734 C416 2.222 . S
C3749 C561 2.211 . S
C3761 C474 2.194 . S
C3776 C503 2.206 . S
C3788 C532 2.196 . S
C3803 C590 2.208 . S
C3815 C677 2.223 . S
C3830 C619 2.193 . S
C3842 C648 2.202 . S
C3857 C706 2.217 . S
C3869 C793 2.217 . S
C3884 C735 2.210 . S
C3896 C764 2.222 . S
C3911 C822 2.208 . S
C3923 C909 2.223 . S
C3938 C851 2.193 . S
C3950 C880 2.202 . S
