# Generated by pormake.
# Topology irl, (4)-cn, num edge types: 1
# Building blocks:
#     Node 0, Type 0, BuildingBlock: NAHDIM_clean_sbu_0, # of connection points: 4
#     Node 1, Type 0, BuildingBlock: NAHDIM_clean_sbu_0, # of connection points: 4
#     Node 2, Type 0, BuildingBlock: NAHDIM_clean_sbu_0, # of connection points: 4
#     Node 3, Type 0, BuildingBlock: NAHDIM_clean_sbu_0, # of connection points: 4
#     Node 4, Type 0, BuildingBlock: NAHDIM_clean_sbu_0, # of connection points: 4
#     Node 5, Type 0, BuildingBlock: NAHDIM_clean_sbu_0, # of connection points: 4
#     Node 6, Type 0, BuildingBlock: NAHDIM_clean_sbu_0, # of connection points: 4
#     Node 7, Type 0, BuildingBlock: NAHDIM_clean_sbu_0, # of connection points: 4
#     Edge 8, Type (0, 0), BuildingBlock: FUNLAD_clean_linker_1, # of connection points: 2
#     Edge 9, Type (0, 0), BuildingBlock: FUNLAD_clean_linker_1, # of connection points: 2
#     Edge 10, Type (0, 0), BuildingBlock: FUNLAD_clean_linker_1, # of connection points: 2
#     Edge 11, Type (0, 0), BuildingBlock: FUNLAD_clean_linker_1, # of connection points: 2
#     Edge 12, Type (0, 0), BuildingBlock: FUNLAD_clean_linker_1, # of connection points: 2
#     Edge 13, Type (0, 0), BuildingBlock: FUNLAD_clean_linker_1, # of connection points: 2
#     Edge 14, Type (0, 0), BuildingBlock: FUNLAD_clean_linker_1, # of connection points: 2
#     Edge 15, Type (0, 0), BuildingBlock: FUNLAD_clean_linker_1, # of connection points: 2
#     Edge 16, Type (0, 0), BuildingBlock: FUNLAD_clean_linker_1, # of connection points: 2
#     Edge 17, Type (0, 0), BuildingBlock: FUNLAD_clean_linker_1, # of connection points: 2
#     Edge 18, Type (0, 0), BuildingBlock: FUNLAD_clean_linker_1, # of connection points: 2
#     Edge 19, Type (0, 0), BuildingBlock: FUNLAD_clean_linker_1, # of connection points: 2
#     Edge 20, Type (0, 0), BuildingBlock: FUNLAD_clean_linker_1, # of connection points: 2
#     Edge 21, Type (0, 0), BuildingBlock: FUNLAD_clean_linker_1, # of connection points: 2
#     Edge 22, Type (0, 0), BuildingBlock: FUNLAD_clean_linker_1, # of connection points: 2
#     Edge 23, Type (0, 0), BuildingBlock: FUNLAD_clean_linker_1, # of connection points: 2
# Relax obj value: 0.190
# Max RMSD: 0.180
# Mean RMSD: 0.180
data_MOF--net-irl--node1-NAHDIM_clean_sbu_0--edge1-FUNLAD_clean_linker_1
_symmetry_space_group_name_H-M    P1
_symmetry_Int_Tables_number       1
_symmetry_cell_setting            triclinic
loop_
_symmetry_equiv_pos_as_xyz
'x, y, z'
_cell_length_a     41.919139
_cell_length_b     37.681002
_cell_length_c     27.268074
_cell_angle_alpha  90.025249
_cell_angle_beta   90.270341
_cell_angle_gamma 90.033723
loop_
_atom_site_label
_atom_site_type_symbol
_atom_site_fract_x
_atom_site_fract_y
_atom_site_fract_z
_atom_type_partial_charge
C0 C 0.12719 0.21171 0.99619 0.0
O1 O 0.10955 0.24047 -0.00109 0.0
O2 O 0.05806 0.21201 0.0661 0.0
Zn3 Zn 0.06608 0.18292 0.00534 0.0
O4 O 0.04732 0.20385 0.94351 0.0
C5 C 0.02322 0.12872 0.04079 0.0
O6 O 0.0093 0.15613 0.0612 0.0
O7 O 0.11371 0.18153 -0.00266 0.0
C8 C 0.01794 0.20134 0.93227 0.0
O9 O -0.00197 0.18659 0.96314 0.0
C10 C 0.03477 0.23233 0.07552 0.0
O11 O 0.01224 0.23735 0.04262 0.0
O12 O 0.04827 0.13334 0.01533 0.0
C13 C 0.86453 0.76542 0.01446 0.0
O14 O 0.88611 0.74041 0.00997 0.0
O15 O 0.93791 0.77613 0.07998 0.0
Zn16 Zn 0.92086 0.80421 0.0231 0.0
O17 O 0.9374 0.78764 0.95792 0.0
C18 C 0.95862 0.86332 0.0558 0.0
O19 O 0.97575 0.83761 0.07479 0.0
O20 O 0.87345 0.7973 0.02128 0.0
C21 C 0.96401 0.79762 0.94077 0.0
O22 O 0.98297 0.81761 0.96753 0.0
C23 C 0.9622 0.75599 0.08046 0.0
O24 O 0.97832 0.75074 0.03997 0.0
O25 O 0.93313 0.85589 0.03237 0.0
C26 C 0.13315 0.75205 0.49157 0.0
O27 O 0.10879 0.73016 0.49049 0.0
O28 O 0.05903 0.77668 0.44142 0.0
Zn29 Zn 0.08217 0.79998 0.49742 0.0
O30 O 0.0661 0.78493 0.56353 0.0
C31 C 0.05135 0.86537 0.47208 0.0
O32 O 0.02988 0.84314 0.4549 0.0
O33 O 0.12812 0.78529 0.49397 0.0
C34 C 0.03975 0.79556 0.58083 0.0
O35 O 0.02083 0.81537 0.5538 0.0
C36 C 0.03502 0.75613 0.44304 0.0
O37 O 0.02273 0.74725 0.48547 0.0
O38 O 0.07681 0.85327 0.49135 0.0
C39 C 0.86623 0.22758 0.51358 0.0
O40 O 0.88879 0.25175 0.51456 0.0
O41 O 0.93332 0.20287 0.43442 0.0
Zn42 Zn 0.92024 0.1838 0.50012 0.0
O43 O 0.94458 0.20403 0.55759 0.0
C44 C 0.95286 0.11925 0.47879 0.0
O45 O 0.97255 0.14187 0.45824 0.0
O46 O 0.87375 0.19511 0.50845 0.0
C47 C 0.97471 0.20733 0.56025 0.0
O48 O 0.99237 0.19942 0.52219 0.0
C49 C 0.94931 0.23025 0.42316 0.0
O50 O 0.96022 0.25155 0.45748 0.0
O51 O 0.9277 0.13075 0.49924 0.0
C52 C 0.61896 0.74778 0.9828 0.0
O53 O 0.59893 0.77199 0.96692 0.0
O54 O 0.55184 0.74804 0.07141 0.0
Zn55 Zn 0.56096 0.71686 0.01333 0.0
O56 O 0.53921 0.73235 0.9511 0.0
C57 C 0.52549 0.65844 0.05684 0.0
O58 O 0.51122 0.68397 0.08094 0.0
O59 O 0.60824 0.71996 0.00331 0.0
C60 C 0.51058 0.72379 0.94116 0.0
O61 O 0.49352 0.70695 0.97398 0.0
C62 C 0.52613 0.7638 0.08243 0.0
O63 O 0.50125 0.76159 0.05312 0.0
O64 O 0.54783 0.66598 0.02714 0.0
C65 C 0.36223 0.30143 0.00448 0.0
O66 O 0.38217 0.27495 -0.00196 0.0
O67 O 0.43754 0.30674 0.06989 0.0
Zn68 Zn 0.42099 0.3363 0.01406 0.0
O69 O 0.43733 0.31962 0.94892 0.0
C70 C 0.46557 0.39164 0.02953 0.0
O71 O 0.48476 0.36414 0.02879 0.0
O72 O 0.37322 0.33231 0.0126 0.0
C73 C 0.43118 0.34001 0.91301 0.0
O74 O 0.41558 0.36965 0.9208 0.0
C75 C 0.46079 0.28519 0.06764 0.0
O76 O 0.47567 0.28042 0.02592 0.0
O77 O 0.4357 0.38684 0.02432 0.0
C78 C 0.61938 0.24703 0.49666 0.0
O79 O 0.59841 0.22118 0.49455 0.0
O80 O 0.54588 0.26038 0.4342 0.0
Zn81 Zn 0.56218 0.28581 0.49409 0.0
O82 O 0.54383 0.26766 0.55756 0.0
C83 C 0.52559 0.3464 0.4631 0.0
O84 O 0.50817 0.32146 0.44275 0.0
O85 O 0.6097 0.279 0.4969 0.0
C86 C 0.51657 0.27758 0.57226 0.0
O87 O 0.49877 0.29757 0.54375 0.0
C88 C 0.52101 0.2413 0.43003 0.0
O89 O 0.50372 0.23437 0.46885 0.0
O90 O 0.55065 0.33795 0.487 0.0
C91 C 0.37677 0.71078 0.51425 0.0
O92 O 0.39854 0.7356 0.51912 0.0
O93 O 0.44511 0.69723 0.43733 0.0
Zn94 Zn 0.43288 0.67302 0.49988 0.0
O95 O 0.45304 0.69473 0.55983 0.0
C96 C 0.47238 0.61483 0.47305 0.0
O97 O 0.48886 0.64102 0.4541 0.0
O98 O 0.38545 0.67899 0.5061 0.0
C99 C 0.48277 0.69857 0.56736 0.0
O100 O 0.50318 0.68915 0.53345 0.0
C101 C 0.45783 0.72737 0.4306 0.0
O102 O 0.46545 0.74759 0.46811 0.0
O103 O 0.44631 0.62149 0.49499 0.0
H104 H 0.99441 0.90367 0.07505 0.0
C105 C 0.97107 0.89984 0.05831 0.0
H106 H 0.93279 0.92427 0.02088 0.0
H107 H 0.02364 0.05268 0.1229 0.0
H108 H 0.00855 0.02777 0.20133 0.0
H109 H 0.97462 0.97434 0.20568 0.0
H110 H 0.95646 0.94494 0.13152 0.0
C111 C 0.95566 0.92785 0.03914 0.0
C112 C 0.97133 0.96336 0.03706 0.0
C113 C 0.98013 0.98142 0.08079 0.0
C114 C -0.00205 0.01351 0.07827 0.0
C115 C 0.00861 0.02935 0.12256 0.0
C116 C 0.00034 0.01515 0.16791 0.0
C117 C 0.9814 0.98497 0.17036 0.0
C118 C 0.97134 0.9682 0.12745 0.0
H119 H 0.98565 0.09186 0.06466 0.0
C120 C 0.00851 0.09341 0.04609 0.0
H121 H 0.04432 0.06485 0.00895 0.0
H122 H 0.95814 0.93571 0.94612 0.0
H123 H 0.97066 0.96235 0.86776 0.0
H124 H -0.00142 0.01988 0.86336 0.0
H125 H 0.01435 0.051 0.93739 0.0
C126 C 0.02191 0.0636 0.02875 0.0
C127 C 0.00508 0.0288 0.03199 0.0
C128 C -0.00445 0.0112 0.9883 0.0
C129 C 0.97887 0.97836 0.99083 0.0
C130 C 0.97038 0.96098 0.94652 0.0
C131 C 0.9775 0.97593 0.90118 0.0
C132 C 0.99323 0.00831 0.89871 0.0
C133 C 0.00219 0.02586 0.94158 0.0
H134 H 0.06356 0.92165 0.48565 0.0
C135 C 0.04507 0.90389 0.47214 0.0
H136 H -0.00173 0.89967 0.44355 0.0
H137 H -0.00301 0.05752 0.55346 0.0
H138 H 0.00455 0.02502 0.62927 0.0
H139 H 0.01302 0.96023 0.62848 0.0
H140 H 0.01476 0.92778 0.55185 0.0
C141 C 0.01669 0.91714 0.45801 0.0
C142 C 0.00972 0.95587 0.45924 0.0
C143 C 0.00738 0.97415 0.50462 0.0
C144 C 0.0008 0.0112 0.50522 0.0
C145 C 0.00052 0.02917 0.55087 0.0
C146 C 0.00503 0.01086 0.59472 0.0
C147 C 0.00993 0.97442 0.59427 0.0
C148 C 0.01109 0.95614 0.54991 0.0
H149 H 0.94307 0.06289 0.49567 0.0
C150 C 0.96018 0.08095 0.4792 0.0
H151 H 0.00443 0.08587 0.44301 0.0
H152 H 0.01246 0.92883 0.36611 0.0
H153 H 0.00256 0.96082 0.29043 0.0
H154 H 0.98872 0.02446 0.29165 0.0
H155 H 0.985 0.05654 0.36852 0.0
C156 C 0.98755 0.06815 0.46067 0.0
C157 C -0.00504 0.02951 0.46058 0.0
C158 C -0.00313 0.0111 0.41531 0.0
C159 C 0.00434 0.97429 0.41464 0.0
C160 C 0.00645 0.95668 0.36883 0.0
C161 C 0.00089 0.97475 0.32506 0.0
C162 C 0.99317 0.01058 0.32574 0.0
C163 C 0.99116 0.02869 0.37018 0.0
H164 H 0.4928 0.61752 0.08491 0.0
C165 C 0.51325 0.6219 0.0613 0.0
H166 H 0.54483 0.59894 0.0103 0.0
H167 H 0.4765 0.461 0.12468 0.0
H168 H 0.50291 0.48212 0.1985 0.0
H169 H 0.5336 0.538 0.19804 0.0
H170 H 0.53763 0.57337 0.12405 0.0
C171 C 0.52517 0.59464 0.03547 0.0
C172 C 0.50919 0.5593 0.03535 0.0
C173 C 0.50815 0.53828 0.07851 0.0
C174 C 0.49161 0.50528 0.07824 0.0
C175 C 0.48966 0.48564 0.1224 0.0
C176 C 0.50457 0.49754 0.16511 0.0
C177 C 0.52176 0.52906 0.1649 0.0
C178 C 0.52368 0.54925 0.12221 0.0
H179 H 0.505 0.42953 0.04 0.0
C180 C 0.47932 0.42744 0.03506 0.0
H181 H 0.43621 0.45572 0.0258 0.0
H182 H 0.5062 0.59317 0.94641 0.0
H183 H 0.48115 0.57108 0.87218 0.0
H184 H 0.4543 0.51282 0.871 0.0
H185 H 0.45211 0.47642 0.94422 0.0
C186 C 0.46172 0.45715 0.03274 0.0
C187 C 0.47725 0.4927 0.03432 0.0
C188 C 0.47847 0.51358 0.99114 0.0
C189 C 0.4944 0.54693 0.99166 0.0
C190 C 0.49485 0.56741 0.94806 0.0
C191 C 0.4805 0.55509 0.90514 0.0
C192 C 0.46535 0.52231 0.90449 0.0
C193 C 0.46425 0.50169 0.94683 0.0
H194 H 0.49113 0.38794 0.44337 0.0
C195 C 0.51412 0.38328 0.46084 0.0
H196 H 0.55268 0.40641 0.49926 0.0
H197 H 0.46874 0.53805 0.3921 0.0
H198 H 0.48382 0.5115 0.31458 0.0
H199 H 0.51518 0.45615 0.31236 0.0
H200 H 0.53106 0.4267 0.3876 0.0
C201 C 0.53015 0.41076 0.48034 0.0
C202 C 0.51572 0.44691 0.48127 0.0
C203 C 0.50828 0.4649 0.43691 0.0
C204 C 0.49182 0.49789 0.43824 0.0
C205 C 0.48261 0.51389 0.39333 0.0
C206 C 0.4909 0.49878 0.34852 0.0
C207 C 0.50843 0.46754 0.34726 0.0
C208 C 0.51714 0.45074 0.39078 0.0
H209 H 0.5085 0.57524 0.45278 0.0
C210 C 0.48517 0.57851 0.46946 0.0
H211 H 0.44667 0.55266 0.50403 0.0
H212 H 0.52635 0.41959 0.5731 0.0
H213 H 0.51354 0.44754 0.65054 0.0
H214 H 0.48793 0.50644 0.65289 0.0
H215 H 0.4746 0.53752 0.57775 0.0
C216 C 0.46957 0.54981 0.48594 0.0
C217 C 0.48462 0.51398 0.48398 0.0
C218 C 0.49267 0.49637 0.52829 0.0
C219 C 0.50805 0.46273 0.52694 0.0
C220 C 0.51513 0.44542 0.57183 0.0
C221 C 0.50786 0.46114 0.61664 0.0
C222 C 0.4934 0.49427 0.61796 0.0
C223 C 0.48585 0.5118 0.57447 0.0
H224 H 0.05125 0.24133 0.15105 0.0
C225 C 0.0309 0.24429 0.12648 0.0
H226 H 0.98145 0.25492 0.1218 0.0
H227 H 0.00723 0.19557 0.34844 0.0
H228 H 0.02025 0.13977 0.30903 0.0
H229 H 0.0209 0.13484 0.2188 0.0
H230 H 0.00967 0.18584 0.16775 0.0
C231 C 0.00228 0.25223 0.14536 0.0
C232 C -0.00221 0.25402 0.19942 0.0
C233 C 0.00234 0.22313 0.22851 0.0
C234 C -0.00051 0.22522 0.28028 0.0
C235 C 0.00706 0.19487 0.30878 0.0
C236 C 0.01489 0.16275 0.28666 0.0
C237 C 0.01543 0.16003 0.23591 0.0
C238 C 0.00923 0.18973 0.20701 0.0
H239 H 0.9442 0.21918 0.34471 0.0
C240 C 0.95673 0.23582 0.37114 0.0
H241 H 0.99293 0.2744 0.38081 0.0
H242 H 0.98808 0.318 0.15458 0.0
H243 H 0.97243 0.37306 0.19409 0.0
H244 H 0.96389 0.37559 0.2835 0.0
H245 H 0.97126 0.32317 0.33409 0.0
C246 C 0.98006 0.25734 0.3554 0.0
C247 C 0.98902 0.25719 0.30257 0.0
C248 C 0.98458 0.28803 0.27363 0.0
C249 C 0.98912 0.28647 0.22197 0.0
C250 C 0.9847 0.31769 0.1939 0.0
C251 C 0.97573 0.34944 0.21611 0.0
C252 C 0.97093 0.35086 0.26647 0.0
C253 C 0.97522 0.32059 0.29508 0.0
H254 H -0.00458 0.73344 0.39917 0.0
C255 C 0.01872 0.746 0.39712 0.0
H256 H 0.05385 0.76828 0.35119 0.0
H257 H 0.967 0.68347 0.18479 0.0
H258 H 0.98594 0.62904 0.2227 0.0
H259 H 0.01743 0.63077 0.29935 0.0
H260 H 0.02988 0.68689 0.33888 0.0
C261 C 0.03097 0.7548 0.35333 0.0
C262 C 0.01171 0.75294 0.30766 0.0
C263 C 0.00515 0.71994 0.28477 0.0
C264 C 0.98773 0.71899 0.23989 0.0
C265 C 0.98077 0.6857 0.2183 0.0
C266 C 0.99139 0.65428 0.23977 0.0
C267 C 0.00907 0.65525 0.28299 0.0
C268 C 0.01597 0.68763 0.30538 0.0
H269 H -0.0001 0.73427 0.12865 0.0
C270 C 0.97567 0.74453 0.12788 0.0
H271 H 0.93641 0.76214 0.16949 0.0
H272 H 0.01918 0.82057 0.34333 0.0
H273 H 0.00134 0.87495 0.30455 0.0
H274 H 0.97279 0.87348 0.22527 0.0
H275 H 0.96164 0.81767 0.18461 0.0
C276 C 0.96031 0.75095 0.1701 0.0
C277 C 0.97757 0.75109 0.21772 0.0
C278 C 0.98399 0.78408 0.24082 0.0
C279 C 0.00098 0.78499 0.28595 0.0
C280 C 0.0068 0.8183 0.30856 0.0
C281 C -0.00338 0.84977 0.28678 0.0
C282 C 0.9805 0.84894 0.24221 0.0
C283 C 0.9742 0.81662 0.21933 0.0
H284 H 0.05106 0.77617 0.65501 0.0
C285 C 0.03288 0.78928 0.63295 0.0
H286 H 0.98862 0.81589 0.63318 0.0
H287 H 0.00369 0.73484 0.85199 0.0
H288 H 0.00235 0.67935 0.80689 0.0
H289 H -0.00013 0.67904 0.71647 0.0
H290 H -0.00056 0.7342 0.67066 0.0
C291 C 0.00643 0.80166 0.65455 0.0
C292 C 0.00337 0.80138 0.70886 0.0
C293 C 0.002 0.76888 0.73503 0.0
C294 C 0.00166 0.76909 0.78717 0.0
C295 C 0.00245 0.73625 0.81242 0.0
C296 C 0.00194 0.7042 0.78697 0.0
C297 C 0.00067 0.70402 0.73607 0.0
C298 C 0.00068 0.73589 0.71021 0.0
H299 H 0.95276 0.77756 0.8669 0.0
C300 C 0.97102 0.79066 0.88886 0.0
H301 H 0.01554 0.81678 0.88848 0.0
H302 H 0.00643 0.86849 0.66994 0.0
H303 H 0.00529 0.92386 0.71494 0.0
H304 H 0.00149 0.92426 0.80514 0.0
H305 H -0.00095 0.86929 0.85091 0.0
C306 C -0.00236 0.80256 0.86722 0.0
C307 C 0.00081 0.8018 0.81291 0.0
C308 C 0.00166 0.83431 0.7867 0.0
C309 C 0.00315 0.83409 0.73464 0.0
C310 C 0.00472 0.86696 0.70945 0.0
C311 C 0.00415 0.89903 0.73483 0.0
C312 C 0.00204 0.89926 0.78561 0.0
C313 C 0.00075 0.86741 0.81143 0.0
H314 H 0.98134 0.20778 0.87472 0.0
C315 C 0.00665 0.21072 0.88271 0.0
H316 H 0.05238 0.22007 0.85292 0.0
H317 H -0.0009 0.15413 0.65257 0.0
H318 H 0.02957 0.10461 0.68401 0.0
H319 H 0.05455 0.10726 0.76601 0.0
H320 H 0.04875 0.15943 0.81724 0.0
C321 C 0.02682 0.21882 0.84626 0.0
C322 C 0.01533 0.21971 0.79467 0.0
C323 C 0.0202 0.18969 0.76428 0.0
C324 C 0.00659 0.18863 0.71645 0.0
C325 C 0.00994 0.15719 0.68834 0.0
C326 C 0.02718 0.12832 0.70614 0.0
C327 C 0.04118 0.12977 0.75233 0.0
C328 C 0.03768 0.15993 0.78132 0.0
H329 H 0.01608 0.2164 0.60914 0.0
C330 C 0.99018 0.21514 0.60771 0.0
H331 H 0.94748 0.21589 0.64868 0.0
H332 H 0.00358 0.282 0.84259 0.0
H333 H 0.97379 0.33238 0.81087 0.0
H334 H 0.95098 0.33119 0.72729 0.0
H335 H 0.95778 0.27963 0.67489 0.0
C336 C 0.9734 0.21669 0.64954 0.0
C337 C 0.98918 0.21828 0.69846 0.0
C338 C 0.98505 0.24863 0.7285 0.0
C339 C -0.00186 0.24934 0.77669 0.0
C340 C 0.99381 0.28001 0.80588 0.0
C341 C 0.97688 0.30912 0.78807 0.0
C342 C 0.96404 0.30845 0.741 0.0
C343 C 0.96804 0.27866 0.71136 0.0
H344 H 0.54498 0.78113 0.15372 0.0
C345 C 0.52308 0.77698 0.13292 0.0
H346 H 0.47311 0.77032 0.13736 0.0
H347 H 0.52462 0.717 0.35429 0.0
H348 H 0.54899 0.66857 0.30924 0.0
H349 H 0.54684 0.66702 0.21881 0.0
H350 H 0.52147 0.71423 0.17319 0.0
C351 C 0.49527 0.7755 0.15692 0.0
C352 C 0.49467 0.77509 0.21144 0.0
C353 C 0.50813 0.74597 0.2374 0.0
C354 C 0.50731 0.74542 0.28939 0.0
C355 C 0.52305 0.71758 0.31468 0.0
C356 C 0.53734 0.68979 0.2893 0.0
C357 C 0.53628 0.68902 0.23844 0.0
C358 C 0.52185 0.71662 0.21263 0.0
H359 H 0.45621 0.72026 0.35111 0.0
C360 C 0.46468 0.73793 0.37995 0.0
H361 H 0.49069 0.78489 0.39537 0.0
H362 H 0.46861 0.83556 0.17322 0.0
H363 H 0.44285 0.8829 0.21889 0.0
H364 H 0.43839 0.87983 0.309 0.0
H365 H 0.45996 0.82961 0.35414 0.0
C366 C 0.48226 0.76633 0.36769 0.0
C367 C 0.4904 0.77208 0.31519 0.0
C368 C 0.47785 0.80166 0.28955 0.0
C369 C 0.48011 0.80323 0.23754 0.0
C370 C 0.46731 0.83299 0.21269 0.0
C371 C 0.45249 0.8603 0.23845 0.0
C372 C 0.44998 0.85857 0.28921 0.0
C373 C 0.4624 0.8296 0.31466 0.0
H374 H 0.48321 0.22567 0.3776 0.0
C375 C 0.50785 0.23442 0.38068 0.0
H376 H 0.54819 0.254 0.3434 0.0
H377 H 0.45667 0.20485 0.15534 0.0
H378 H 0.46669 0.1442 0.18125 0.0
H379 H 0.49574 0.13173 0.25826 0.0
H380 H 0.51469 0.17987 0.31009 0.0
C381 C 0.52387 0.24417 0.34028 0.0
C382 C 0.50698 0.25088 0.29327 0.0
C383 C 0.4966 0.22247 0.26312 0.0
C384 C 0.48054 0.22969 0.21813 0.0
C385 C 0.46963 0.20087 0.18928 0.0
C386 C 0.47511 0.16594 0.20384 0.0
C387 C 0.49142 0.15892 0.24725 0.0
C388 C 0.5021 0.18675 0.27671 0.0
H389 H 0.49643 0.25558 0.11135 0.0
C390 C 0.47357 0.26912 0.11293 0.0
H391 H 0.43657 0.28796 0.15826 0.0
H392 H 0.52323 0.31157 0.34329 0.0
H393 H 0.51371 0.37206 0.31715 0.0
H394 H 0.48706 0.3846 0.23818 0.0
H395 H 0.46954 0.33669 0.18523 0.0
C396 C 0.45899 0.27356 0.15627 0.0
C397 C 0.47544 0.2653 0.20321 0.0
C398 C 0.48579 0.29371 0.2335 0.0
C399 C 0.50156 0.28649 0.27857 0.0
C400 C 0.51138 0.31542 0.30839 0.0
C401 C 0.50605 0.35035 0.29385 0.0
C402 C 0.49101 0.3574 0.24946 0.0
C403 C 0.481 0.32957 0.21946 0.0
H404 H 0.43769 0.3514 0.83473 0.0
C405 C 0.44154 0.33146 0.86297 0.0
H406 H 0.45812 0.27949 0.87793 0.0
H407 H 0.43796 0.24082 0.65103 0.0
H408 H 0.39546 0.2064 0.68834 0.0
H409 H 0.38426 0.2115 0.77683 0.0
H410 H 0.41554 0.25093 0.82864 0.0
C411 C 0.45513 0.30043 0.85092 0.0
C412 C 0.46465 0.29369 0.79933 0.0
C413 C 0.44645 0.27016 0.76986 0.0
C414 C 0.45277 0.26738 0.71882 0.0
C415 C 0.43401 0.24403 0.68997 0.0
C416 C 0.40959 0.22412 0.71093 0.0
C417 C 0.40329 0.22699 0.76076 0.0
C418 C 0.4214 0.24972 0.79007 0.0
H419 H 0.52435 0.25728 0.64726 0.0
C420 C 0.50777 0.27169 0.62382 0.0
H421 H 0.46528 0.30188 0.62095 0.0
H422 H 0.50719 0.33676 0.8472 0.0
H423 H 0.54917 0.37186 0.80997 0.0
H424 H 0.55813 0.36991 0.72065 0.0
H425 H 0.52565 0.33247 0.66825 0.0
C426 C 0.48216 0.28737 0.64367 0.0
C427 C 0.47731 0.28803 0.69755 0.0
C428 C 0.49619 0.31079 0.72737 0.0
C429 C 0.49024 0.31303 0.77852 0.0
C430 C 0.51005 0.335 0.80785 0.0
C431 C 0.53433 0.35512 0.78701 0.0
C432 C 0.53944 0.35393 0.73676 0.0
C433 C 0.52066 0.33214 0.70711 0.0
H434 H 0.47442 0.71707 0.88301 0.0
C435 C 0.49828 0.727 0.89071 0.0
H436 H 0.54091 0.74732 0.86017 0.0
H437 H 0.48194 0.6529 0.67716 0.0
H438 H 0.49721 0.60237 0.72692 0.0
H439 H 0.51815 0.61072 0.81084 0.0
H440 H 0.52348 0.66956 0.84566 0.0
C441 C 0.51698 0.73728 0.85344 0.0
C442 C 0.50658 0.73247 0.80175 0.0
C443 C 0.50479 0.69785 0.78139 0.0
C444 C 0.49386 0.69311 0.73244 0.0
C445 C 0.49093 0.65816 0.71369 0.0
C446 C 0.49951 0.62886 0.74193 0.0
C447 C 0.5112 0.63355 0.7892 0.0
C448 C 0.51394 0.66754 0.80885 0.0
H449 H 0.51997 0.70835 0.62335 0.0
C450 C 0.49447 0.70954 0.61608 0.0
H451 H 0.44881 0.71981 0.64578 0.0
H452 H 0.50839 0.80223 0.82931 0.0
H453 H 0.49447 0.853 0.77863 0.0
H454 H 0.47656 0.84482 0.69302 0.0
H455 H 0.47241 0.78582 0.65751 0.0
C456 C 0.47433 0.71804 0.65241 0.0
C457 C 0.48591 0.72309 0.70343 0.0
C458 C 0.48823 0.75767 0.72347 0.0
C459 C 0.49868 0.76239 0.77273 0.0
C460 C 0.5007 0.79721 0.792 0.0
C461 C 0.49277 0.82654 0.76333 0.0
C462 C 0.48267 0.82194 0.71513 0.0
C463 C 0.48038 0.78796 0.69522 0.0
H464 H 0.31182 0.31832 0.00683 0.0
C465 C 0.3275 0.2956 0.00223 0.0
H466 H 0.33022 0.24005 0.99183 0.0
H467 H 0.19159 0.2184 0.08126 0.0
H468 H 0.22442 0.19742 0.14855 0.0
H469 H 0.283 0.20333 0.14606 0.0
H470 H 0.30904 0.2306 0.07633 0.0
C471 C 0.31493 0.26321 0.99493 0.0
C472 C 0.27985 0.25761 0.9945 0.0
C473 C 0.26508 0.24065 0.03483 0.0
C474 C 0.23136 0.23659 0.03578 0.0
C475 C 0.21714 0.22119 0.07775 0.0
C476 C 0.23571 0.20924 0.11688 0.0
C477 C 0.26868 0.21261 0.11552 0.0
C478 C 0.28332 0.22826 0.0752 0.0
H479 H 0.17609 0.19 0.99148 0.0
C480 C 0.16224 0.21431 0.99405 0.0
H481 H 0.16363 0.27029 -0.00172 0.0
H482 H 0.30102 0.28826 0.90958 0.0
H483 H 0.26835 0.30849 0.84149 0.0
H484 H 0.20984 0.30158 0.84307 0.0
H485 H 0.18366 0.27427 0.91267 0.0
C486 C 0.17724 0.24578 0.99687 0.0
C487 C 0.2126 0.2487 0.99568 0.0
C488 C 0.22747 0.26509 0.95495 0.0
C489 C 0.26116 0.26937 0.95422 0.0
C490 C 0.27547 0.28501 0.91252 0.0
C491 C 0.257 0.29656 0.87304 0.0
C492 C 0.22406 0.29265 0.87391 0.0
C493 C 0.20934 0.27703 0.91419 0.0
H494 H 0.66127 0.77867 0.96148 0.0
C495 C 0.65345 0.75471 0.98013 0.0
H496 H 0.66752 0.71095 0.02355 0.0
H497 H 0.80259 0.76823 0.92084 0.0
H498 H 0.7803 0.74625 0.8444 0.0
H499 H 0.72551 0.72238 0.84096 0.0
H500 H 0.69255 0.72082 0.91384 0.0
C501 C 0.67504 0.73402 0.00267 0.0
C502 C 0.70907 0.7449 0.00532 0.0
C503 C 0.72828 0.74459 0.96267 0.0
C504 C 0.76024 0.75712 0.96506 0.0
C505 C 0.7785 0.75793 0.92149 0.0
C506 C 0.76594 0.74557 0.87728 0.0
C507 C 0.73507 0.73224 0.87531 0.0
C508 C 0.71635 0.73167 0.91738 0.0
H509 H 0.82459 0.72819 0.0043 0.0
C510 C 0.83057 0.75592 0.01055 0.0
H511 H 0.81245 0.80765 0.0216 0.0
H512 H 0.67864 0.7488 0.0939 0.0
H513 H 0.70143 0.76924 0.17079 0.0
H514 H 0.75734 0.78951 0.17534 0.0
H515 H 0.79075 0.78965 0.10291 0.0
C516 C 0.80712 0.77998 0.01388 0.0
C517 C 0.7732 0.76879 0.01045 0.0
C518 C 0.75406 0.76883 0.05313 0.0
C519 C 0.72196 0.75681 0.05059 0.0
C520 C 0.70328 0.75736 0.09376 0.0
C521 C 0.71605 0.76906 0.13817 0.0
C522 C 0.74752 0.7805 0.14072 0.0
C523 C 0.76642 0.78045 0.09884 0.0
H524 H 0.16843 0.70891 0.48761 0.0
C525 C 0.16571 0.73749 0.4912 0.0
H526 H 0.18946 0.78635 0.50219 0.0
H527 H 0.30861 0.70966 0.60031 0.0
H528 H 0.28311 0.73455 0.67221 0.0
H529 H 0.23032 0.76316 0.66591 0.0
H530 H 0.20265 0.76684 0.58774 0.0
C531 C 0.1917 0.75792 0.49648 0.0
C532 C 0.22395 0.74174 0.49951 0.0
C533 C 0.24004 0.74047 0.54529 0.0
C534 C 0.2707 0.72456 0.54877 0.0
C535 C 0.28572 0.72243 0.59531 0.0
C536 C 0.27124 0.73636 0.63696 0.0
C537 C 0.2415 0.75242 0.63343 0.0
C538 C 0.22591 0.75441 0.58829 0.0
H539 H 0.33742 0.74862 0.52326 0.0
C540 C 0.34293 0.72087 0.51632 0.0
H541 H 0.32399 0.67033 0.49934 0.0
H542 H 0.20002 0.74096 0.4058 0.0
H543 H 0.22533 0.7156 0.3341 0.0
H544 H 0.27839 0.68763 0.34024 0.0
H545 H 0.30648 0.68492 0.41809 0.0
C546 C 0.31903 0.69788 0.5083 0.0
C547 C 0.28552 0.71075 0.50617 0.0
C548 C 0.26913 0.71133 0.46058 0.0
C549 C 0.23839 0.72711 0.45714 0.0
C550 C 0.22308 0.72858 0.41077 0.0
C551 C 0.23742 0.71431 0.36922 0.0
C552 C 0.26731 0.6986 0.37266 0.0
C553 C 0.28316 0.69719 0.41764 0.0
H554 H 0.66026 0.21046 0.49593 0.0
C555 C 0.6536 0.2383 0.49807 0.0
H556 H 0.67042 0.29095 0.50571 0.0
H557 H 0.79995 0.23523 0.60226 0.0
H558 H 0.77391 0.26103 0.67301 0.0
H559 H 0.71874 0.28347 0.66717 0.0
H560 H 0.68924 0.28005 0.59054 0.0
C561 C 0.6765 0.26307 0.5018 0.0
C562 C 0.71068 0.25257 0.50384 0.0
C563 C 0.72784 0.25557 0.54855 0.0
C564 C 0.75982 0.24314 0.5517 0.0
C565 C 0.77593 0.24511 0.5974 0.0
C566 C 0.76118 0.25965 0.63842 0.0
C567 C 0.73011 0.27224 0.63516 0.0
C568 C 0.71346 0.27015 0.59092 0.0
H569 H 0.82763 0.26698 0.51983 0.0
C570 C 0.83262 0.23879 0.51614 0.0
H571 H 0.81287 0.18766 0.50658 0.0
H572 H 0.68568 0.24661 0.41116 0.0
H573 H 0.71189 0.22153 0.34006 0.0
H574 H 0.76711 0.19924 0.34571 0.0
H575 H 0.79647 0.20204 0.42244 0.0
C576 C 0.80831 0.21575 0.51227 0.0
C577 C 0.77473 0.22839 0.50978 0.0
C578 C 0.75773 0.22594 0.46485 0.0
C579 C 0.72576 0.23834 0.46173 0.0
C580 C 0.70971 0.23671 0.41595 0.0
C581 C 0.72455 0.2226 0.37472 0.0
C582 C 0.75565 0.21009 0.37789 0.0
C583 C 0.7722 0.21179 0.42224 0.0
loop_
_geom_bond_atom_site_label_1
_geom_bond_atom_site_label_2
_geom_bond_distance
_geom_bond_site_symmetry_2
_ccdc_geom_bond_type
C0 O1 1.160 . S
C0 O7 1.185 1_554 S
O1 C0 1.160 . S
O2 Zn3 1.899 . S
O2 C10 1.284 . S
Zn3 O2 1.899 . S
Zn3 O4 2.032 1_554 S
Zn3 O7 2.086 1_554 S
Zn3 O12 1.977 1_554 S
O4 Zn3 2.032 1_556 S
O4 C8 1.278 . S
C5 O6 1.203 . S
C5 O12 1.267 1_554 S
O6 C5 1.203 . S
O7 C0 1.185 1_556 S
O7 Zn3 2.086 1_556 S
C8 O4 1.278 . S
C8 O9 1.211 . S
O9 C8 1.211 . S
C10 O2 1.284 . S
C10 O11 1.273 . S
O11 C10 1.273 . S
O12 Zn3 1.977 1_556 S
O12 C5 1.267 1_556 S
C13 O14 1.160 . S
C13 O20 1.185 1_554 S
O14 C13 1.160 . S
O15 Zn16 1.899 . S
O15 C23 1.284 . S
Zn16 O15 1.899 . S
Zn16 O17 2.032 1_554 S
Zn16 O20 2.086 1_554 S
Zn16 O25 1.977 1_554 S
O17 Zn16 2.032 1_556 S
O17 C21 1.278 . S
C18 O19 1.203 . S
C18 O25 1.267 1_554 S
O19 C18 1.203 . S
O20 C13 1.185 1_556 S
O20 Zn16 2.086 1_556 S
C21 O17 1.278 . S
C21 O22 1.211 . S
O22 C21 1.211 . S
C23 O15 1.284 . S
C23 O24 1.273 . S
O24 C23 1.273 . S
O25 Zn16 1.977 1_556 S
O25 C18 1.267 1_556 S
C26 O27 1.160 . S
C26 O33 1.185 . S
O27 C26 1.160 . S
O28 Zn29 1.899 . S
O28 C36 1.284 . S
Zn29 O28 1.899 . S
Zn29 O30 2.032 . S
Zn29 O33 2.086 . S
Zn29 O38 1.977 . S
O30 Zn29 2.032 . S
O30 C34 1.278 . S
C31 O32 1.203 . S
C31 O38 1.267 . S
O32 C31 1.203 . S
O33 C26 1.185 . S
O33 Zn29 2.086 . S
C34 O30 1.278 . S
C34 O35 1.211 . S
O35 C34 1.211 . S
C36 O28 1.284 . S
C36 O37 1.273 . S
O37 C36 1.273 . S
O38 Zn29 1.977 . S
O38 C31 1.267 . S
C39 O40 1.160 . S
C39 O46 1.185 . S
O40 C39 1.160 . S
O41 Zn42 1.899 . S
O41 C49 1.284 . S
Zn42 O41 1.899 . S
Zn42 O43 2.032 . S
Zn42 O46 2.086 . S
Zn42 O51 1.977 . S
O43 Zn42 2.032 . S
O43 C47 1.278 . S
C44 O45 1.203 . S
C44 O51 1.267 . S
O45 C44 1.203 . S
O46 C39 1.185 . S
O46 Zn42 2.086 . S
C47 O43 1.278 . S
C47 O48 1.211 . S
O48 C47 1.211 . S
C49 O41 1.284 . S
C49 O50 1.273 . S
O50 C49 1.273 . S
O51 Zn42 1.977 . S
O51 C44 1.267 . S
C52 O53 1.160 . S
C52 O59 1.185 1_554 S
O53 C52 1.160 . S
O54 Zn55 1.899 . S
O54 C62 1.284 . S
Zn55 O54 1.899 . S
Zn55 O56 2.032 1_554 S
Zn55 O59 2.086 1_554 S
Zn55 O64 1.977 1_554 S
O56 Zn55 2.032 1_556 S
O56 C60 1.278 . S
C57 O58 1.203 . S
C57 O64 1.267 1_554 S
O58 C57 1.203 . S
O59 C52 1.185 1_556 S
O59 Zn55 2.086 1_556 S
C60 O56 1.278 . S
C60 O61 1.211 . S
O61 C60 1.211 . S
C62 O54 1.284 . S
C62 O63 1.273 . S
O63 C62 1.273 . S
O64 Zn55 1.977 1_556 S
O64 C57 1.267 1_556 S
C65 O66 1.160 . S
C65 O72 1.185 1_554 S
O66 C65 1.160 . S
O67 Zn68 1.899 . S
O67 C75 1.284 . S
Zn68 O67 1.899 . S
Zn68 O69 2.032 1_554 S
Zn68 O72 2.086 1_554 S
Zn68 O77 1.977 1_554 S
O69 Zn68 2.032 1_556 S
O69 C73 1.278 . S
C70 O71 1.203 . S
C70 O77 1.267 1_554 S
O71 C70 1.203 . S
O72 C65 1.185 1_556 S
O72 Zn68 2.086 1_556 S
C73 O69 1.278 . S
C73 O74 1.211 . S
O74 C73 1.211 . S
C75 O67 1.284 . S
C75 O76 1.273 . S
O76 C75 1.273 . S
O77 Zn68 1.977 1_556 S
O77 C70 1.267 1_556 S
C78 O79 1.160 . S
C78 O85 1.185 . S
O79 C78 1.160 . S
O80 Zn81 1.899 . S
O80 C88 1.284 . S
Zn81 O80 1.899 . S
Zn81 O82 2.032 . S
Zn81 O85 2.086 . S
Zn81 O90 1.977 . S
O82 Zn81 2.032 . S
O82 C86 1.278 . S
C83 O84 1.203 . S
C83 O90 1.267 . S
O84 C83 1.203 . S
O85 C78 1.185 . S
O85 Zn81 2.086 . S
C86 O82 1.278 . S
C86 O87 1.211 . S
O87 C86 1.211 . S
C88 O80 1.284 . S
C88 O89 1.273 . S
O89 C88 1.273 . S
O90 Zn81 1.977 . S
O90 C83 1.267 . S
C91 O92 1.160 . S
C91 O98 1.185 . S
O92 C91 1.160 . S
O93 Zn94 1.899 . S
O93 C101 1.284 . S
Zn94 O93 1.899 . S
Zn94 O95 2.032 . S
Zn94 O98 2.086 . S
Zn94 O103 1.977 . S
O95 Zn94 2.032 . S
O95 C99 1.278 . S
C96 O97 1.203 . S
C96 O103 1.267 . S
O97 C96 1.203 . S
O98 C91 1.185 . S
O98 Zn94 2.086 . S
C99 O95 1.278 . S
C99 O100 1.211 . S
O100 C99 1.211 . S
C101 O93 1.284 . S
C101 O102 1.273 . S
O102 C101 1.273 . S
O103 Zn94 1.977 . S
O103 C96 1.267 . S
H104 C105 0.951 . S
C105 H104 0.951 . S
C105 C111 1.265 . S
H106 C111 0.950 . S
H107 C115 0.951 1_455 S
H108 C116 0.950 . S
H109 C117 0.951 1_565 S
H110 C118 0.951 . S
C111 C105 1.265 . S
C111 H106 0.950 . S
C111 C112 1.478 . S
C112 C111 1.478 . S
C112 C113 1.397 . S
C112 C129 1.398 1_554 S
C113 C112 1.397 . S
C113 C114 1.434 1_665 S
C113 C118 1.429 . S
C114 C113 1.434 1_445 S
C114 C115 1.428 1_455 S
C114 C127 1.398 . S
C115 H107 0.951 1_655 S
C115 C114 1.428 1_655 S
C115 C116 1.343 . S
C116 H108 0.950 . S
C116 C115 1.343 . S
C116 C117 1.424 . S
C117 H109 0.951 1_545 S
C117 C116 1.424 . S
C117 C118 1.347 1_545 S
C118 H110 0.951 . S
C118 C113 1.429 . S
C118 C117 1.347 1_565 S
H119 C120 0.951 . S
C120 H119 0.951 . S
C120 C126 1.265 . S
H121 C126 0.948 1_556 S
H122 C130 0.951 1_655 S
H123 C131 0.950 . S
H124 C132 0.951 1_545 S
H125 C133 0.951 . S
C126 C120 1.265 . S
C126 H121 0.948 1_554 S
C126 C127 1.478 . S
C127 C114 1.398 . S
C127 C126 1.478 . S
C127 C128 1.397 1_554 S
C128 C127 1.397 1_556 S
C128 C129 1.434 1_445 S
C128 C133 1.429 . S
C129 C112 1.398 1_556 S
C129 C128 1.434 1_665 S
C129 C130 1.428 1_655 S
C130 H122 0.951 1_455 S
C130 C129 1.428 1_455 S
C130 C131 1.343 . S
C131 H123 0.950 . S
C131 C130 1.343 . S
C131 C132 1.424 . S
C132 H124 0.951 1_565 S
C132 C131 1.424 . S
C132 C133 1.347 1_565 S
C133 H125 0.951 . S
C133 C128 1.429 . S
C133 C132 1.347 1_545 S
H134 C135 0.951 . S
C135 H134 0.951 . S
C135 C141 1.265 . S
H136 C141 0.950 1_655 S
H137 C145 0.949 . S
H138 C146 0.950 . S
H139 C147 0.951 . S
H140 C148 0.951 . S
C141 C135 1.265 . S
C141 H136 0.950 1_455 S
C141 C142 1.478 . S
C142 C141 1.478 . S
C142 C143 1.397 1_455 S
C142 C159 1.394 . S
C143 C142 1.397 1_655 S
C143 C144 1.438 1_565 S
C143 C148 1.429 . S
C144 C143 1.438 1_545 S
C144 C145 1.428 . S
C144 C157 1.394 . S
C145 H137 0.949 . S
C145 C144 1.428 . S
C145 C146 1.345 . S
C146 H138 0.950 . S
C146 C145 1.345 . S
C146 C147 1.424 1_545 S
C147 H139 0.951 . S
C147 C146 1.424 1_565 S
C147 C148 1.347 . S
C148 H140 0.951 . S
C148 C143 1.429 . S
C148 C147 1.347 . S
H149 C150 0.951 . S
C150 H149 0.951 . S
C150 C156 1.265 . S
H151 C156 0.950 1_455 S
H152 C160 0.949 . S
H153 C161 0.950 . S
H154 C162 0.951 . S
H155 C163 0.951 . S
C156 C150 1.265 . S
C156 H151 0.950 1_655 S
C156 C157 1.478 . S
C157 C144 1.394 . S
C157 C156 1.478 . S
C157 C158 1.397 1_655 S
C158 C157 1.397 1_455 S
C158 C159 1.438 1_545 S
C158 C163 1.429 . S
C159 C142 1.394 . S
C159 C158 1.438 1_565 S
C159 C160 1.428 . S
C160 H152 0.949 . S
C160 C159 1.428 . S
C160 C161 1.345 . S
C161 H153 0.950 . S
C161 C160 1.345 . S
C161 C162 1.424 1_565 S
C162 H154 0.951 . S
C162 C161 1.424 1_545 S
C162 C163 1.347 . S
C163 H155 0.951 . S
C163 C158 1.429 . S
C163 C162 1.347 . S
H164 C165 0.951 . S
C165 H164 0.951 . S
C165 C171 1.265 . S
H166 C171 0.950 . S
H167 C175 0.949 . S
H168 C176 0.950 . S
H169 C177 0.951 . S
H170 C178 0.951 . S
C171 C165 1.265 . S
C171 H166 0.950 . S
C171 C172 1.478 . S
C172 C171 1.478 . S
C172 C173 1.397 . S
C172 C189 1.394 1_554 S
C173 C172 1.397 . S
C173 C174 1.438 . S
C173 C178 1.429 . S
C174 C173 1.438 . S
C174 C175 1.428 . S
C174 C187 1.394 . S
C175 H167 0.949 . S
C175 C174 1.428 . S
C175 C176 1.345 . S
C176 H168 0.950 . S
C176 C175 1.345 . S
C176 C177 1.424 . S
C177 H169 0.951 . S
C177 C176 1.424 . S
C177 C178 1.347 . S
C178 H170 0.951 . S
C178 C173 1.429 . S
C178 C177 1.347 . S
H179 C180 0.951 . S
C180 H179 0.951 . S
C180 C186 1.265 . S
H181 C186 0.950 1_556 S
H182 C190 0.949 . S
H183 C191 0.950 . S
H184 C192 0.951 . S
H185 C193 0.951 . S
C186 C180 1.265 . S
C186 H181 0.950 1_554 S
C186 C187 1.478 . S
C187 C174 1.394 . S
C187 C186 1.478 . S
C187 C188 1.397 1_554 S
C188 C187 1.397 1_556 S
C188 C189 1.438 . S
C188 C193 1.429 . S
C189 C172 1.394 1_556 S
C189 C188 1.438 . S
C189 C190 1.428 . S
C190 H182 0.949 . S
C190 C189 1.428 . S
C190 C191 1.345 . S
C191 H183 0.950 . S
C191 C190 1.345 . S
C191 C192 1.424 . S
C192 H184 0.951 . S
C192 C191 1.424 . S
C192 C193 1.347 . S
C193 H185 0.951 . S
C193 C188 1.429 . S
C193 C192 1.347 . S
H194 C195 0.951 . S
C195 H194 0.951 . S
C195 C201 1.265 . S
H196 C201 0.950 . S
H197 C205 0.949 . S
H198 C206 0.950 . S
H199 C207 0.951 . S
H200 C208 0.951 . S
C201 C195 1.265 . S
C201 H196 0.950 . S
C201 C202 1.478 . S
C202 C201 1.478 . S
C202 C203 1.397 . S
C202 C219 1.394 . S
C203 C202 1.397 . S
C203 C204 1.438 . S
C203 C208 1.429 . S
C204 C203 1.438 . S
C204 C205 1.428 . S
C204 C217 1.394 . S
C205 H197 0.949 . S
C205 C204 1.428 . S
C205 C206 1.345 . S
C206 H198 0.950 . S
C206 C205 1.345 . S
C206 C207 1.424 . S
C207 H199 0.951 . S
C207 C206 1.424 . S
C207 C208 1.347 . S
C208 H200 0.951 . S
C208 C203 1.429 . S
C208 C207 1.347 . S
H209 C210 0.951 . S
C210 H209 0.951 . S
C210 C216 1.265 . S
H211 C216 0.950 . S
H212 C220 0.949 . S
H213 C221 0.950 . S
H214 C222 0.951 . S
H215 C223 0.951 . S
C216 C210 1.265 . S
C216 H211 0.950 . S
C216 C217 1.478 . S
C217 C204 1.394 . S
C217 C216 1.478 . S
C217 C218 1.397 . S
C218 C217 1.397 . S
C218 C219 1.438 . S
C218 C223 1.429 . S
C219 C202 1.394 . S
C219 C218 1.438 . S
C219 C220 1.428 . S
C220 H212 0.949 . S
C220 C219 1.428 . S
C220 C221 1.345 . S
C221 H213 0.950 . S
C221 C220 1.345 . S
C221 C222 1.424 . S
C222 H214 0.951 . S
C222 C221 1.424 . S
C222 C223 1.347 . S
C223 H215 0.951 . S
C223 C218 1.429 . S
C223 C222 1.347 . S
H224 C225 0.951 . S
C225 H224 0.951 . S
C225 C231 1.265 1_455 S
H226 C231 0.950 . S
H227 C235 0.949 . S
H228 C236 0.950 . S
H229 C237 0.951 . S
H230 C238 0.951 . S
C231 C225 1.265 1_655 S
C231 H226 0.950 . S
C231 C232 1.480 . S
C232 C231 1.480 . S
C232 C233 1.405 . S
C232 C249 1.385 1_655 S
C233 C232 1.405 . S
C233 C234 1.438 . S
C233 C238 1.429 . S
C234 C233 1.438 . S
C234 C235 1.428 . S
C234 C247 1.385 1_655 S
C235 H227 0.949 . S
C235 C234 1.428 . S
C235 C236 1.345 . S
C236 H228 0.950 . S
C236 C235 1.345 . S
C236 C237 1.424 . S
C237 H229 0.951 . S
C237 C236 1.424 . S
C237 C238 1.347 . S
C238 H230 0.951 . S
C238 C233 1.429 . S
C238 C237 1.347 . S
H239 C240 0.951 . S
C240 H239 0.951 . S
C240 C246 1.265 1_655 S
H241 C246 0.950 . S
H242 C250 0.949 . S
H243 C251 0.950 . S
H244 C252 0.951 . S
H245 C253 0.951 . S
C246 C240 1.265 1_455 S
C246 H241 0.950 . S
C246 C247 1.480 . S
C247 C234 1.385 1_455 S
C247 C246 1.480 . S
C247 C248 1.405 . S
C248 C247 1.405 . S
C248 C249 1.438 . S
C248 C253 1.429 . S
C249 C232 1.385 1_455 S
C249 C248 1.438 . S
C249 C250 1.428 . S
C250 H242 0.949 . S
C250 C249 1.428 . S
C250 C251 1.345 . S
C251 H243 0.950 . S
C251 C250 1.345 . S
C251 C252 1.424 . S
C252 H244 0.951 . S
C252 C251 1.424 . S
C252 C253 1.347 . S
C253 H245 0.951 . S
C253 C248 1.429 . S
C253 C252 1.347 . S
H254 C255 0.951 1_655 S
C255 H254 0.951 1_455 S
C255 C261 1.265 . S
H256 C261 0.950 . S
H257 C265 0.964 . S
H258 C266 0.950 . S
H259 C267 0.951 . S
H260 C268 0.951 . S
C261 C255 1.265 . S
C261 H256 0.950 . S
C261 C262 1.478 . S
C262 C261 1.478 . S
C262 C263 1.397 . S
C262 C279 1.394 1_455 S
C263 C262 1.397 . S
C263 C264 1.438 . S
C263 C268 1.429 . S
C264 C263 1.438 . S
C264 C265 1.428 . S
C264 C277 1.394 1_455 S
C265 H257 0.964 . S
C265 C264 1.428 . S
C265 C266 1.345 . S
C266 H258 0.950 . S
C266 C265 1.345 . S
C266 C267 1.424 . S
C267 H259 0.951 . S
C267 C266 1.424 . S
C267 C268 1.347 . S
C268 H260 0.951 . S
C268 C263 1.429 . S
C268 C267 1.347 . S
H269 C270 0.951 1_455 S
C270 H269 0.951 1_655 S
C270 C276 1.265 . S
H271 C276 0.950 . S
H272 C280 0.964 . S
H273 C281 0.950 . S
H274 C282 0.951 . S
H275 C283 0.951 . S
C276 C270 1.265 . S
C276 H271 0.950 . S
C276 C277 1.478 . S
C277 C264 1.394 1_655 S
C277 C276 1.478 . S
C277 C278 1.397 . S
C278 C277 1.397 . S
C278 C279 1.438 . S
C278 C283 1.429 . S
C279 C262 1.394 1_655 S
C279 C278 1.438 . S
C279 C280 1.428 . S
C280 H272 0.964 . S
C280 C279 1.428 . S
C280 C281 1.345 . S
C281 H273 0.950 . S
C281 C280 1.345 . S
C281 C282 1.424 . S
C282 H274 0.951 . S
C282 C281 1.424 . S
C282 C283 1.347 . S
C283 H275 0.951 . S
C283 C278 1.429 . S
C283 C282 1.347 . S
H284 C285 0.951 . S
C285 H284 0.951 . S
C285 C291 1.267 . S
H286 C291 0.947 1_655 S
H287 C295 0.949 . S
H288 C296 0.950 . S
H289 C297 0.951 . S
H290 C298 0.951 . S
C291 C285 1.267 . S
C291 H286 0.947 1_455 S
C291 C292 1.478 . S
C292 C291 1.478 . S
C292 C293 1.391 1_455 S
C292 C309 1.400 . S
C293 C292 1.391 1_655 S
C293 C294 1.438 . S
C293 C298 1.429 . S
C294 C293 1.438 . S
C294 C295 1.428 . S
C294 C307 1.400 . S
C295 H287 0.949 . S
C295 C294 1.428 . S
C295 C296 1.345 . S
C296 H288 0.950 . S
C296 C295 1.345 . S
C296 C297 1.424 . S
C297 H289 0.951 . S
C297 C296 1.424 . S
C297 C298 1.347 . S
C298 H290 0.951 . S
C298 C293 1.429 . S
C298 C297 1.347 . S
H299 C300 0.951 . S
C300 H299 0.951 . S
C300 C306 1.267 . S
H301 C306 0.947 1_455 S
H302 C310 0.949 . S
H303 C311 0.950 . S
H304 C312 0.951 . S
H305 C313 0.951 . S
C306 C300 1.267 . S
C306 H301 0.947 1_655 S
C306 C307 1.478 . S
C307 C294 1.400 . S
C307 C306 1.478 . S
C307 C308 1.391 1_655 S
C308 C307 1.391 1_455 S
C308 C309 1.438 . S
C308 C313 1.429 . S
C309 C292 1.400 . S
C309 C308 1.438 . S
C309 C310 1.428 . S
C310 H302 0.949 . S
C310 C309 1.428 . S
C310 C311 1.345 . S
C311 H303 0.950 . S
C311 C310 1.345 . S
C311 C312 1.424 . S
C312 H304 0.951 . S
C312 C311 1.424 . S
C312 C313 1.347 . S
C313 H305 0.951 . S
C313 C308 1.429 . S
C313 C312 1.347 . S
H314 C315 0.951 1_655 S
C315 H314 0.951 1_455 S
C315 C321 1.265 . S
H316 C321 0.950 . S
H317 C325 0.949 1_655 S
H318 C326 0.950 . S
H319 C327 0.951 . S
H320 C328 0.951 . S
C321 C315 1.265 . S
C321 H316 0.950 . S
C321 C322 1.478 . S
C322 C321 1.478 . S
C322 C323 1.397 . S
C322 C339 1.394 1_455 S
C323 C322 1.397 . S
C323 C324 1.438 . S
C323 C328 1.429 . S
C324 C323 1.438 . S
C324 C325 1.428 . S
C324 C337 1.394 1_455 S
C325 H317 0.949 1_455 S
C325 C324 1.428 . S
C325 C326 1.345 . S
C326 H318 0.950 . S
C326 C325 1.345 . S
C326 C327 1.424 . S
C327 H319 0.951 . S
C327 C326 1.424 . S
C327 C328 1.347 . S
C328 H320 0.951 . S
C328 C323 1.429 . S
C328 C327 1.347 . S
H329 C330 0.951 1_455 S
C330 H329 0.951 1_655 S
C330 C336 1.265 . S
H331 C336 0.950 . S
H332 C340 0.949 1_455 S
H333 C341 0.950 . S
H334 C342 0.951 . S
H335 C343 0.951 . S
C336 C330 1.265 . S
C336 H331 0.950 . S
C336 C337 1.478 . S
C337 C324 1.394 1_655 S
C337 C336 1.478 . S
C337 C338 1.397 . S
C338 C337 1.397 . S
C338 C339 1.438 . S
C338 C343 1.429 . S
C339 C322 1.394 1_655 S
C339 C338 1.438 . S
C339 C340 1.428 . S
C340 H332 0.949 1_655 S
C340 C339 1.428 . S
C340 C341 1.345 . S
C341 H333 0.950 . S
C341 C340 1.345 . S
C341 C342 1.424 . S
C342 H334 0.951 . S
C342 C341 1.424 . S
C342 C343 1.347 . S
C343 H335 0.951 . S
C343 C338 1.429 . S
C343 C342 1.347 . S
H344 C345 0.951 . S
C345 H344 0.951 . S
C345 C351 1.265 . S
H346 C351 0.950 . S
H347 C355 0.949 . S
H348 C356 0.950 . S
H349 C357 0.951 . S
H350 C358 0.951 . S
C351 C345 1.265 . S
C351 H346 0.950 . S
C351 C352 1.478 . S
C352 C351 1.478 . S
C352 C353 1.397 . S
C352 C369 1.394 . S
C353 C352 1.397 . S
C353 C354 1.438 . S
C353 C358 1.429 . S
C354 C353 1.438 . S
C354 C355 1.428 . S
C354 C367 1.394 . S
C355 H347 0.949 . S
C355 C354 1.428 . S
C355 C356 1.345 . S
C356 H348 0.950 . S
C356 C355 1.345 . S
C356 C357 1.424 . S
C357 H349 0.951 . S
C357 C356 1.424 . S
C357 C358 1.347 . S
C358 H350 0.951 . S
C358 C353 1.429 . S
C358 C357 1.347 . S
H359 C360 0.951 . S
C360 H359 0.951 . S
C360 C366 1.265 . S
H361 C366 0.950 . S
H362 C370 0.949 . S
H363 C371 0.950 . S
H364 C372 0.951 . S
H365 C373 0.951 . S
C366 C360 1.265 . S
C366 H361 0.950 . S
C366 C367 1.478 . S
C367 C354 1.394 . S
C367 C366 1.478 . S
C367 C368 1.397 . S
C368 C367 1.397 . S
C368 C369 1.438 . S
C368 C373 1.429 . S
C369 C352 1.394 . S
C369 C368 1.438 . S
C369 C370 1.428 . S
C370 H362 0.949 . S
C370 C369 1.428 . S
C370 C371 1.345 . S
C371 H363 0.950 . S
C371 C370 1.345 . S
C371 C372 1.424 . S
C372 H364 0.951 . S
C372 C371 1.424 . S
C372 C373 1.347 . S
C373 H365 0.951 . S
C373 C368 1.429 . S
C373 C372 1.347 . S
H374 C375 0.951 . S
C375 H374 0.951 . S
C375 C381 1.265 . S
H376 C381 0.950 . S
H377 C385 0.949 . S
H378 C386 0.950 . S
H379 C387 0.951 . S
H380 C388 0.951 . S
C381 C375 1.265 . S
C381 H376 0.950 . S
C381 C382 1.478 . S
C382 C381 1.478 . S
C382 C383 1.397 . S
C382 C399 1.394 . S
C383 C382 1.397 . S
C383 C384 1.438 . S
C383 C388 1.429 . S
C384 C383 1.438 . S
C384 C385 1.428 . S
C384 C397 1.394 . S
C385 H377 0.949 . S
C385 C384 1.428 . S
C385 C386 1.345 . S
C386 H378 0.950 . S
C386 C385 1.345 . S
C386 C387 1.424 . S
C387 H379 0.951 . S
C387 C386 1.424 . S
C387 C388 1.347 . S
C388 H380 0.951 . S
C388 C383 1.429 . S
C388 C387 1.347 . S
H389 C390 0.951 . S
C390 H389 0.951 . S
C390 C396 1.265 . S
H391 C396 0.950 . S
H392 C400 0.949 . S
H393 C401 0.950 . S
H394 C402 0.951 . S
H395 C403 0.951 . S
C396 C390 1.265 . S
C396 H391 0.950 . S
C396 C397 1.478 . S
C397 C384 1.394 . S
C397 C396 1.478 . S
C397 C398 1.397 . S
C398 C397 1.397 . S
C398 C399 1.438 . S
C398 C403 1.429 . S
C399 C382 1.394 . S
C399 C398 1.438 . S
C399 C400 1.428 . S
C400 H392 0.949 . S
C400 C399 1.428 . S
C400 C401 1.345 . S
C401 H393 0.950 . S
C401 C400 1.345 . S
C401 C402 1.424 . S
C402 H394 0.951 . S
C402 C401 1.424 . S
C402 C403 1.347 . S
C403 H395 0.951 . S
C403 C398 1.429 . S
C403 C402 1.347 . S
H404 C405 0.951 . S
C405 H404 0.951 . S
C405 C411 1.265 . S
H406 C411 0.950 . S
H407 C415 0.949 . S
H408 C416 0.950 . S
H409 C417 0.951 . S
H410 C418 0.951 . S
C411 C405 1.265 . S
C411 H406 0.950 . S
C411 C412 1.478 . S
C412 C411 1.478 . S
C412 C413 1.397 . S
C412 C429 1.394 . S
C413 C412 1.397 . S
C413 C414 1.438 . S
C413 C418 1.429 . S
C414 C413 1.438 . S
C414 C415 1.428 . S
C414 C427 1.394 . S
C415 H407 0.949 . S
C415 C414 1.428 . S
C415 C416 1.345 . S
C416 H408 0.950 . S
C416 C415 1.345 . S
C416 C417 1.424 . S
C417 H409 0.951 . S
C417 C416 1.424 . S
C417 C418 1.347 . S
C418 H410 0.951 . S
C418 C413 1.429 . S
C418 C417 1.347 . S
H419 C420 0.951 . S
C420 H419 0.951 . S
C420 C426 1.265 . S
H421 C426 0.950 . S
H422 C430 0.949 . S
H423 C431 0.950 . S
H424 C432 0.951 . S
H425 C433 0.951 . S
C426 C420 1.265 . S
C426 H421 0.950 . S
C426 C427 1.478 . S
C427 C414 1.394 . S
C427 C426 1.478 . S
C427 C428 1.397 . S
C428 C427 1.397 . S
C428 C429 1.438 . S
C428 C433 1.429 . S
C429 C412 1.394 . S
C429 C428 1.438 . S
C429 C430 1.428 . S
C430 H422 0.949 . S
C430 C429 1.428 . S
C430 C431 1.345 . S
C431 H423 0.950 . S
C431 C430 1.345 . S
C431 C432 1.424 . S
C432 H424 0.951 . S
C432 C431 1.424 . S
C432 C433 1.347 . S
C433 H425 0.951 . S
C433 C428 1.429 . S
C433 C432 1.347 . S
H434 C435 0.951 . S
C435 H434 0.951 . S
C435 C441 1.265 . S
H436 C441 0.950 . S
H437 C445 0.949 . S
H438 C446 0.950 . S
H439 C447 0.951 . S
H440 C448 0.951 . S
C441 C435 1.265 . S
C441 H436 0.950 . S
C441 C442 1.478 . S
C442 C441 1.478 . S
C442 C443 1.397 . S
C442 C459 1.394 . S
C443 C442 1.397 . S
C443 C444 1.438 . S
C443 C448 1.429 . S
C444 C443 1.438 . S
C444 C445 1.428 . S
C444 C457 1.394 . S
C445 H437 0.949 . S
C445 C444 1.428 . S
C445 C446 1.345 . S
C446 H438 0.950 . S
C446 C445 1.345 . S
C446 C447 1.424 . S
C447 H439 0.951 . S
C447 C446 1.424 . S
C447 C448 1.347 . S
C448 H440 0.951 . S
C448 C443 1.429 . S
C448 C447 1.347 . S
H449 C450 0.951 . S
C450 H449 0.951 . S
C450 C456 1.265 . S
H451 C456 0.950 . S
H452 C460 0.949 . S
H453 C461 0.950 . S
H454 C462 0.951 . S
H455 C463 0.951 . S
C456 C450 1.265 . S
C456 H451 0.950 . S
C456 C457 1.478 . S
C457 C444 1.394 . S
C457 C456 1.478 . S
C457 C458 1.397 . S
C458 C457 1.397 . S
C458 C459 1.438 . S
C458 C463 1.429 . S
C459 C442 1.394 . S
C459 C458 1.438 . S
C459 C460 1.428 . S
C460 H452 0.949 . S
C460 C459 1.428 . S
C460 C461 1.345 . S
C461 H453 0.950 . S
C461 C460 1.345 . S
C461 C462 1.424 . S
C462 H454 0.951 . S
C462 C461 1.424 . S
C462 C463 1.347 . S
C463 H455 0.951 . S
C463 C458 1.429 . S
C463 C462 1.347 . S
H464 C465 0.951 1_556 S
C465 H464 0.951 1_554 S
C465 C471 1.265 . S
H466 C471 0.950 . S
H467 C475 0.949 . S
H468 C476 0.950 . S
H469 C477 0.951 . S
H470 C478 0.951 . S
C471 C465 1.265 . S
C471 H466 0.950 . S
C471 C472 1.479 . S
C472 C471 1.479 . S
C472 C473 1.415 . S
C472 C489 1.376 1_554 S
C473 C472 1.415 . S
C473 C474 1.438 . S
C473 C478 1.429 . S
C474 C473 1.438 . S
C474 C475 1.428 . S
C474 C487 1.394 1_554 S
C475 H467 0.949 . S
C475 C474 1.428 . S
C475 C476 1.345 . S
C476 H468 0.950 . S
C476 C475 1.345 . S
C476 C477 1.424 . S
C477 H469 0.951 . S
C477 C476 1.424 . S
C477 C478 1.347 . S
C478 H470 0.951 . S
C478 C473 1.429 . S
C478 C477 1.347 . S
H479 C480 0.951 . S
C480 H479 0.951 . S
C480 C486 1.265 1_554 S
H481 C486 0.950 . S
H482 C490 0.949 . S
H483 C491 0.950 . S
H484 C492 0.951 . S
H485 C493 0.951 . S
C486 C480 1.265 1_556 S
C486 H481 0.950 . S
C486 C487 1.478 . S
C487 C474 1.394 1_556 S
C487 C486 1.478 . S
C487 C488 1.397 . S
C488 C487 1.397 . S
C488 C489 1.438 . S
C488 C493 1.429 . S
C489 C472 1.376 1_556 S
C489 C488 1.438 . S
C489 C490 1.428 . S
C490 H482 0.949 . S
C490 C489 1.428 . S
C490 C491 1.345 . S
C491 H483 0.950 . S
C491 C490 1.345 . S
C491 C492 1.424 . S
C492 H484 0.951 . S
C492 C491 1.424 . S
C492 C493 1.347 . S
C493 H485 0.951 . S
C493 C488 1.429 . S
C493 C492 1.347 . S
H494 C495 0.951 . S
C495 H494 0.951 . S
C495 C501 1.265 1_554 S
H496 C501 0.950 . S
H497 C505 0.949 . S
H498 C506 0.950 . S
H499 C507 0.951 . S
H500 C508 0.951 . S
C501 C495 1.265 1_556 S
C501 H496 0.950 . S
C501 C502 1.478 . S
C502 C501 1.478 . S
C502 C503 1.397 . S
C502 C519 1.394 1_556 S
C503 C502 1.397 . S
C503 C504 1.438 . S
C503 C508 1.429 . S
C504 C503 1.438 . S
C504 C505 1.428 . S
C504 C517 1.394 1_556 S
C505 H497 0.949 . S
C505 C504 1.428 . S
C505 C506 1.345 . S
C506 H498 0.950 . S
C506 C505 1.345 . S
C506 C507 1.424 . S
C507 H499 0.951 . S
C507 C506 1.424 . S
C507 C508 1.347 . S
C508 H500 0.951 . S
C508 C503 1.429 . S
C508 C507 1.347 . S
H509 C510 0.952 . S
C510 H509 0.952 . S
C510 C516 1.264 1_556 S
H511 C516 0.950 . S
H512 C520 0.949 . S
H513 C521 0.950 . S
H514 C522 0.951 . S
H515 C523 0.951 . S
C516 C510 1.264 1_554 S
C516 H511 0.950 . S
C516 C517 1.478 . S
C517 C504 1.394 1_554 S
C517 C516 1.478 . S
C517 C518 1.397 . S
C518 C517 1.397 . S
C518 C519 1.438 . S
C518 C523 1.429 . S
C519 C502 1.394 1_554 S
C519 C518 1.438 . S
C519 C520 1.428 . S
C520 H512 0.949 . S
C520 C519 1.428 . S
C520 C521 1.345 . S
C521 H513 0.950 . S
C521 C520 1.345 . S
C521 C522 1.424 . S
C522 H514 0.951 . S
C522 C521 1.424 . S
C522 C523 1.347 . S
C523 H515 0.951 . S
C523 C518 1.429 . S
C523 C522 1.347 . S
H524 C525 0.951 . S
C525 H524 0.951 . S
C525 C531 1.265 . S
H526 C531 0.950 . S
H527 C535 0.949 . S
H528 C536 0.950 . S
H529 C537 0.951 . S
H530 C538 0.951 . S
C531 C525 1.265 . S
C531 H526 0.950 . S
C531 C532 1.478 . S
C532 C531 1.478 . S
C532 C533 1.397 . S
C532 C549 1.394 . S
C533 C532 1.397 . S
C533 C534 1.438 . S
C533 C538 1.429 . S
C534 C533 1.438 . S
C534 C535 1.428 . S
C534 C547 1.394 . S
C535 H527 0.949 . S
C535 C534 1.428 . S
C535 C536 1.345 . S
C536 H528 0.950 . S
C536 C535 1.345 . S
C536 C537 1.424 . S
C537 H529 0.951 . S
C537 C536 1.424 . S
C537 C538 1.347 . S
C538 H530 0.951 . S
C538 C533 1.429 . S
C538 C537 1.347 . S
H539 C540 0.951 . S
C540 H539 0.951 . S
C540 C546 1.265 . S
H541 C546 0.950 . S
H542 C550 0.949 . S
H543 C551 0.950 . S
H544 C552 0.951 . S
H545 C553 0.951 . S
C546 C540 1.265 . S
C546 H541 0.950 . S
C546 C547 1.478 . S
C547 C534 1.394 . S
C547 C546 1.478 . S
C547 C548 1.397 . S
C548 C547 1.397 . S
C548 C549 1.438 . S
C548 C553 1.429 . S
C549 C532 1.394 . S
C549 C548 1.438 . S
C549 C550 1.428 . S
C550 H542 0.949 . S
C550 C549 1.428 . S
C550 C551 1.345 . S
C551 H543 0.950 . S
C551 C550 1.345 . S
C551 C552 1.424 . S
C552 H544 0.951 . S
C552 C551 1.424 . S
C552 C553 1.347 . S
C553 H545 0.951 . S
C553 C548 1.429 . S
C553 C552 1.347 . S
H554 C555 0.951 . S
C555 H554 0.951 . S
C555 C561 1.265 . S
H556 C561 0.950 . S
H557 C565 0.949 . S
H558 C566 0.950 . S
H559 C567 0.951 . S
H560 C568 0.951 . S
C561 C555 1.265 . S
C561 H556 0.950 . S
C561 C562 1.478 . S
C562 C561 1.478 . S
C562 C563 1.397 . S
C562 C579 1.394 . S
C563 C562 1.397 . S
C563 C564 1.438 . S
C563 C568 1.429 . S
C564 C563 1.438 . S
C564 C565 1.428 . S
C564 C577 1.394 . S
C565 H557 0.949 . S
C565 C564 1.428 . S
C565 C566 1.345 . S
C566 H558 0.950 . S
C566 C565 1.345 . S
C566 C567 1.424 . S
C567 H559 0.951 . S
C567 C566 1.424 . S
C567 C568 1.347 . S
C568 H560 0.951 . S
C568 C563 1.429 . S
C568 C567 1.347 . S
H569 C570 0.951 . S
C570 H569 0.951 . S
C570 C576 1.265 . S
H571 C576 0.950 . S
H572 C580 0.949 . S
H573 C581 0.950 . S
H574 C582 0.951 . S
H575 C583 0.951 . S
C576 C570 1.265 . S
C576 H571 0.950 . S
C576 C577 1.478 . S
C577 C564 1.394 . S
C577 C576 1.478 . S
C577 C578 1.397 . S
C578 C577 1.397 . S
C578 C579 1.438 . S
C578 C583 1.429 . S
C579 C562 1.394 . S
C579 C578 1.438 . S
C579 C580 1.428 . S
C580 H572 0.949 . S
C580 C579 1.428 . S
C580 C581 1.345 . S
C581 H573 0.950 . S
C581 C580 1.345 . S
C581 C582 1.424 . S
C582 H574 0.951 . S
C582 C581 1.424 . S
C582 C583 1.347 . S
C583 H575 0.951 . S
C583 C578 1.429 . S
C583 C582 1.347 . S
C105 C18 1.426 . S
C120 C5 1.424 . S
C135 C31 1.503 . S
C150 C44 1.506 . S
C165 C57 1.426 . S
C180 C70 1.424 . S
C195 C83 1.426 . S
C210 C96 1.424 . S
C225 C10 1.144 . S
C240 C49 1.141 . S
C255 C36 1.162 . S
C270 C23 1.161 . S
C285 C34 1.065 . S
C300 C21 1.076 . S
C315 C8 1.079 . S
C330 C47 1.082 . S
C345 C62 1.145 . S
C360 C101 1.140 . S
C375 C88 1.161 . S
C390 C75 1.163 . S
C405 C73 0.990 . S
C420 C86 1.156 . S
C435 C60 1.087 . S
C450 C99 1.074 . S
C465 C65 1.520 . S
C480 C0 1.520 . S
C495 C52 1.506 . S
C510 C13 1.513 1_556 S
C525 C26 1.514 . S
C540 C91 1.507 . S
C555 C78 1.506 . S
C570 C39 1.514 . S
