# Generated by pormake.
# Topology mon, (4)-cn, num edge types: 1
# Building blocks:
#     Node 0, Type 0, BuildingBlock: CEKHIL_clean_sbu_0, # of connection points: 4
#     Node 1, Type 0, BuildingBlock: CEKHIL_clean_sbu_0, # of connection points: 4
#     Node 2, Type 0, BuildingBlock: CEKHIL_clean_sbu_0, # of connection points: 4
#     Node 3, Type 0, BuildingBlock: CEKHIL_clean_sbu_0, # of connection points: 4
#     Node 4, Type 0, BuildingBlock: CEKHIL_clean_sbu_0, # of connection points: 4
#     Node 5, Type 0, BuildingBlock: CEKHIL_clean_sbu_0, # of connection points: 4
#     Node 6, Type 0, BuildingBlock: CEKHIL_clean_sbu_0, # of connection points: 4
#     Node 7, Type 0, BuildingBlock: CEKHIL_clean_sbu_0, # of connection points: 4
#     Node 8, Type 0, BuildingBlock: CEKHIL_clean_sbu_0, # of connection points: 4
#     Node 9, Type 0, BuildingBlock: CEKHIL_clean_sbu_0, # of connection points: 4
#     Node 10, Type 0, BuildingBlock: CEKHIL_clean_sbu_0, # of connection points: 4
#     Node 11, Type 0, BuildingBlock: CEKHIL_clean_sbu_0, # of connection points: 4
#     Node 12, Type 0, BuildingBlock: CEKHIL_clean_sbu_0, # of connection points: 4
#     Node 13, Type 0, BuildingBlock: CEKHIL_clean_sbu_0, # of connection points: 4
#     Node 14, Type 0, BuildingBlock: CEKHIL_clean_sbu_0, # of connection points: 4
#     Node 15, Type 0, BuildingBlock: CEKHIL_clean_sbu_0, # of connection points: 4
#     Edge 16, Type (0, 0), BuildingBlock: EZIPEK_clean_linker_0, # of connection points: 2
#     Edge 17, Type (0, 0), BuildingBlock: EZIPEK_clean_linker_0, # of connection points: 2
#     Edge 18, Type (0, 0), BuildingBlock: EZIPEK_clean_linker_0, # of connection points: 2
#     Edge 19, Type (0, 0), BuildingBlock: EZIPEK_clean_linker_0, # of connection points: 2
#     Edge 20, Type (0, 0), BuildingBlock: EZIPEK_clean_linker_0, # of connection points: 2
#     Edge 21, Type (0, 0), BuildingBlock: EZIPEK_clean_linker_0, # of connection points: 2
#     Edge 22, Type (0, 0), BuildingBlock: EZIPEK_clean_linker_0, # of connection points: 2
#     Edge 23, Type (0, 0), BuildingBlock: EZIPEK_clean_linker_0, # of connection points: 2
#     Edge 24, Type (0, 0), BuildingBlock: EZIPEK_clean_linker_0, # of connection points: 2
#     Edge 25, Type (0, 0), BuildingBlock: EZIPEK_clean_linker_0, # of connection points: 2
#     Edge 26, Type (0, 0), BuildingBlock: EZIPEK_clean_linker_0, # of connection points: 2
#     Edge 27, Type (0, 0), BuildingBlock: EZIPEK_clean_linker_0, # of connection points: 2
#     Edge 28, Type (0, 0), BuildingBlock: EZIPEK_clean_linker_0, # of connection points: 2
#     Edge 29, Type (0, 0), BuildingBlock: EZIPEK_clean_linker_0, # of connection points: 2
#     Edge 30, Type (0, 0), BuildingBlock: EZIPEK_clean_linker_0, # of connection points: 2
#     Edge 31, Type (0, 0), BuildingBlock: EZIPEK_clean_linker_0, # of connection points: 2
#     Edge 32, Type (0, 0), BuildingBlock: EZIPEK_clean_linker_0, # of connection points: 2
#     Edge 33, Type (0, 0), BuildingBlock: EZIPEK_clean_linker_0, # of connection points: 2
#     Edge 34, Type (0, 0), BuildingBlock: EZIPEK_clean_linker_0, # of connection points: 2
#     Edge 35, Type (0, 0), BuildingBlock: EZIPEK_clean_linker_0, # of connection points: 2
#     Edge 36, Type (0, 0), BuildingBlock: EZIPEK_clean_linker_0, # of connection points: 2
#     Edge 37, Type (0, 0), BuildingBlock: EZIPEK_clean_linker_0, # of connection points: 2
#     Edge 38, Type (0, 0), BuildingBlock: EZIPEK_clean_linker_0, # of connection points: 2
#     Edge 39, Type (0, 0), BuildingBlock: EZIPEK_clean_linker_0, # of connection points: 2
#     Edge 40, Type (0, 0), BuildingBlock: EZIPEK_clean_linker_0, # of connection points: 2
#     Edge 41, Type (0, 0), BuildingBlock: EZIPEK_clean_linker_0, # of connection points: 2
#     Edge 42, Type (0, 0), BuildingBlock: EZIPEK_clean_linker_0, # of connection points: 2
#     Edge 43, Type (0, 0), BuildingBlock: EZIPEK_clean_linker_0, # of connection points: 2
#     Edge 44, Type (0, 0), BuildingBlock: EZIPEK_clean_linker_0, # of connection points: 2
#     Edge 45, Type (0, 0), BuildingBlock: EZIPEK_clean_linker_0, # of connection points: 2
#     Edge 46, Type (0, 0), BuildingBlock: EZIPEK_clean_linker_0, # of connection points: 2
#     Edge 47, Type (0, 0), BuildingBlock: EZIPEK_clean_linker_0, # of connection points: 2
# Relax obj value: 0.188
# Max RMSD: 0.179
# Mean RMSD: 0.179
data_MOF--net-mon--node1-CEKHIL_clean_sbu_0--edge1-EZIPEK_clean_linker_0
_symmetry_space_group_name_H-M    P1
_symmetry_Int_Tables_number       1
_symmetry_cell_setting            triclinic
loop_
_symmetry_equiv_pos_as_xyz
'x, y, z'
_cell_length_a     24.40277
_cell_length_b     24.344364
_cell_length_c     61.696682
_cell_angle_alpha  90.040036
_cell_angle_beta   90.092305
_cell_angle_gamma 89.963457
loop_
_atom_site_label
_atom_site_type_symbol
_atom_site_fract_x
_atom_site_fract_y
_atom_site_fract_z
_atom_type_partial_charge
Co0 Co 0.03783 0.03761 0.58377 0.0
O1 O 0.07676 0.10386 0.57517 0.0
O2 O 0.99991 0.10324 0.5936 0.0
C3 C 0.11323 0.98956 0.59552 0.0
O4 O 0.98702 0.98114 0.59773 0.0
Co5 Co 0.05446 0.92521 0.56229 0.0
O6 O 0.99658 0.89866 0.58191 0.0
C7 C 0.99206 0.00746 0.53893 0.0
C8 C 0.03814 0.13214 0.58443 0.0
C9 C 0.97477 0.93003 0.59588 0.0
O10 O 0.99373 0.03903 0.55572 0.0
O11 O 0.01748 0.96183 0.53782 0.0
O12 O 0.08947 0.02604 0.60777 0.0
O13 O 0.09333 0.98597 0.57612 0.0
Co14 Co 0.22872 0.77603 0.83339 0.0
O15 O 0.16086 0.81271 0.82471 0.0
O16 O 0.16563 0.72949 0.83876 0.0
C17 C 0.26728 0.84974 0.85094 0.0
O18 O 0.28741 0.72382 0.84544 0.0
Co19 Co 0.34725 0.81335 0.81995 0.0
O20 O 0.37285 0.75646 0.84028 0.0
C21 C 0.27163 0.76275 0.78798 0.0
C22 C 0.1353 0.76881 0.83119 0.0
C23 C 0.33981 0.72118 0.84798 0.0
O24 O 0.23796 0.74674 0.80283 0.0
O25 O 0.31349 0.79298 0.79162 0.0
O26 O 0.23025 0.81972 0.8604 0.0
O27 O 0.27674 0.83576 0.83122 0.0
Co28 Co 0.49449 0.97287 0.08472 0.0
O29 O 0.45852 0.9052 0.07559 0.0
O30 O 0.54035 0.90981 0.09087 0.0
C31 C 0.41989 0.01128 0.10134 0.0
O32 O 0.54618 0.03102 0.0969 0.0
Co33 Co 0.457 0.09015 0.07007 0.0
O34 O 0.52361 0.11573 0.08536 0.0
C35 C 0.52115 0.01971 0.04036 0.0
C36 C 0.50162 0.87952 0.08281 0.0
C37 C 0.5549 0.08302 0.09568 0.0
O38 O 0.52908 0.98301 0.05512 0.0
O39 O 0.48789 0.05987 0.04281 0.0
O40 O 0.44942 0.97489 0.11147 0.0
O41 O 0.43402 0.02039 0.08164 0.0
Co42 Co 0.31555 0.22847 0.3368 0.0
O43 O 0.38467 0.19223 0.32983 0.0
O44 O 0.37628 0.27918 0.33962 0.0
C45 C 0.2821 0.15855 0.35753 0.0
O46 O 0.25567 0.28264 0.34613 0.0
Co47 Co 0.19789 0.18396 0.32724 0.0
O48 O 0.17036 0.24914 0.3427 0.0
C49 C 0.26649 0.23128 0.29206 0.0
C50 C 0.40815 0.23907 0.33398 0.0
C51 C 0.20339 0.28686 0.3484 0.0
O52 O 0.30416 0.24787 0.30524 0.0
O53 O 0.22443 0.20361 0.29782 0.0
O54 O 0.31592 0.19415 0.3659 0.0
O55 O 0.27072 0.16566 0.33743 0.0
Co56 Co 0.05039 0.97119 0.40895 0.0
O57 O 0.08722 0.90319 0.41771 0.0
O58 O 1.00323 0.90802 0.40461 0.0
C59 C 0.12321 0.00747 0.39039 0.0
O60 O 0.99609 0.02824 0.39712 0.0
Co61 Co 0.08725 0.09097 0.41922 0.0
O62 O 0.01977 0.11531 0.40472 0.0
C63 C 0.02226 0.0276 0.45137 0.0
C64 C 0.04285 0.87752 0.41176 0.0
C65 C 0.98714 0.08037 0.39654 0.0
O66 O 0.02242 0.98359 0.43959 0.0
O67 O 0.04235 0.07321 0.44504 0.0
O68 O 0.09155 0.97119 0.38121 0.0
O69 O 0.11135 0.01901 0.41012 0.0
Co70 Co 0.31721 0.78759 0.65227 0.0
O71 O 0.38478 0.82423 0.66069 0.0
O72 O 0.37795 0.73731 0.6504 0.0
C73 C 0.28616 0.85654 0.63067 0.0
O74 O 0.25991 0.73352 0.64118 0.0
Co75 Co 0.19826 0.82984 0.65905 0.0
O76 O 0.17542 0.76969 0.63959 0.0
C77 C 0.26023 0.7795 0.69571 0.0
C78 C 0.40895 0.77784 0.6563 0.0
C79 C 0.20921 0.73121 0.6357 0.0
O80 O 0.30147 0.76712 0.68353 0.0
O81 O 0.21753 0.80482 0.68891 0.0
O82 O 0.32201 0.82149 0.62344 0.0
O83 O 0.27192 0.85006 0.65057 0.0
Co84 Co 0.49937 0.04105 0.90571 0.0
O85 O 0.46668 0.11101 0.91402 0.0
O86 O 0.54856 0.10179 0.89927 0.0
C87 C 0.42353 1.0045 0.88918 0.0
O88 O 0.54706 0.97788 0.89441 0.0
Co89 Co 0.45478 0.92748 0.92237 0.0
O90 O 0.50584 0.89656 0.90063 0.0
C91 C 0.51847 1.00041 0.95151 0.0
C92 C 0.51121 0.13427 0.90705 0.0
C93 C 0.54435 0.92516 0.89247 0.0
O94 O 0.53201 0.03209 0.93564 0.0
O95 O 0.48522 0.96 0.94968 0.0
O96 O 0.45432 0.0398 0.87908 0.0
O97 O 0.43722 0.99686 0.90907 0.0
Co98 Co 0.22652 0.23169 0.15451 0.0
O99 O 0.15717 0.19619 0.16114 0.0
O100 O 0.16667 0.28322 0.15153 0.0
C101 C 0.25944 0.162 0.13363 0.0
O102 O 0.2876 0.28474 0.14575 0.0
Co103 Co 0.34252 0.18401 0.16502 0.0
O104 O 0.37172 0.24847 0.14957 0.0
C105 C 0.27341 0.23315 0.19959 0.0
C106 C 0.1343 0.2433 0.15695 0.0
C107 C 0.34003 0.28735 0.14383 0.0
O108 O 0.23718 0.25098 0.18608 0.0
O109 O 0.31437 0.20322 0.19433 0.0
O110 O 0.2263 0.19826 0.1253 0.0
O111 O 0.27013 0.1681 0.15386 0.0
Co112 Co 0.80557 0.28262 0.15595 0.0
O113 O 0.87285 0.31781 0.16573 0.0
O114 O 0.86798 0.23618 0.15002 0.0
C115 C 0.76878 0.3584 0.13971 0.0
O116 O 0.74752 0.23232 0.14273 0.0
Co117 Co 0.68641 0.31908 0.16887 0.0
O118 O 0.66183 0.26471 0.14736 0.0
C119 C 0.75993 0.26308 0.20039 0.0
C120 C 0.89811 0.27449 0.15844 0.0
C121 C 0.69545 0.23012 0.13954 0.0
O122 O 0.79495 0.24958 0.18568 0.0
O123 O 0.71796 0.29337 0.19691 0.0
O124 O 0.80576 0.32912 0.12984 0.0
O125 O 0.75796 0.34235 0.15907 0.0
Co126 Co 0.73568 0.72824 0.65508 0.0
O127 O 0.66512 0.6969 0.66237 0.0
O128 O 0.67755 0.77825 0.64701 0.0
C129 C 0.773 0.65202 0.63986 0.0
O130 O 0.80011 0.77424 0.64436 0.0
Co131 Co 0.84497 0.68546 0.67499 0.0
O132 O 0.87553 0.75453 0.66355 0.0
C133 C 0.76883 0.74954 0.70153 0.0
C134 C 0.64393 0.74198 0.6548 0.0
C135 C 0.85048 0.78321 0.64949 0.0
O136 O 0.73984 0.76253 0.68489 0.0
O137 O 0.80849 0.71541 0.70105 0.0
O138 O 0.74015 0.68316 0.62865 0.0
O139 O 0.7782 0.66499 0.65998 0.0
Co140 Co 0.73777 0.28152 0.33649 0.0
O141 O 0.66994 0.31695 0.327 0.0
O142 O 0.67547 0.23437 0.34162 0.0
C143 C 0.77406 0.35695 0.35346 0.0
O144 O 0.79515 0.22985 0.34951 0.0
Co145 Co 0.85814 0.31744 0.32556 0.0
O146 O 0.88125 0.26212 0.34689 0.0
C147 C 0.78655 0.26438 0.29239 0.0
C148 C 0.64479 0.27292 0.3337 0.0
C149 C 0.84679 0.22696 0.35358 0.0
O150 O 0.74944 0.25108 0.30633 0.0
O151 O 0.82957 0.29207 0.29703 0.0
O152 O 0.73714 0.32694 0.36304 0.0
O153 O 0.7857 0.34128 0.33415 0.0
Co154 Co 0.80468 0.72692 0.83489 0.0
O155 O 0.87372 0.69481 0.82499 0.0
O156 O 0.86546 0.77698 0.83972 0.0
C157 C 0.77486 0.64831 0.85165 0.0
O158 O 0.74446 0.77563 0.84805 0.0
Co159 Co 0.68606 0.68286 0.82579 0.0
O160 O 0.66118 0.73592 0.84747 0.0
C161 C 0.74808 0.7463 0.79233 0.0
C162 C 0.89741 0.73966 0.83163 0.0
C163 C 0.69303 0.77481 0.85282 0.0
O164 O 0.78956 0.75599 0.8048 0.0
O165 O 0.70501 0.7205 0.79829 0.0
O166 O 0.80852 0.68165 0.86146 0.0
O167 O 0.76092 0.66416 0.83264 0.0
Co168 Co 0.53609 0.54857 0.08764 0.0
O169 O 0.5705 0.61597 0.07744 0.0
O170 O 0.4891 0.6112 0.09302 0.0
C171 C 0.6121 0.51355 0.10423 0.0
O172 O 0.48658 0.49008 0.10121 0.0
Co173 Co 0.57438 0.42898 0.07563 0.0
O174 O 0.52173 0.40489 0.09778 0.0
C175 C 0.51828 0.50048 0.04341 0.0
C176 C 0.52709 0.64139 0.08445 0.0
C177 C 0.4859 0.43804 0.105 0.0
O178 O 0.50373 0.53596 0.05785 0.0
O179 O 0.54908 0.45908 0.0473 0.0
O180 O 0.58235 0.55064 0.11385 0.0
O181 O 0.59626 0.50159 0.08494 0.0
Co182 Co 0.00763 0.46451 0.58853 0.0
O183 O 0.96816 0.39685 0.58185 0.0
O184 O 0.05435 0.40121 0.59283 0.0
C185 C 0.93895 0.50474 0.60807 0.0
O186 O 0.06379 0.52208 0.59811 0.0
Co187 Co 0.9709 0.58289 0.57547 0.0
O188 O 0.04127 0.60768 0.5877 0.0
C189 C 0.01659 0.50736 0.54264 0.0
C190 C 0.01313 0.37111 0.58698 0.0
C191 C 0.07357 0.57392 0.59685 0.0
O192 O 0.0308 0.4715 0.55702 0.0
O193 O 0.98968 0.55104 0.54691 0.0
O194 O 0.97099 0.46862 0.61714 0.0
O195 O 0.94781 0.51345 0.58784 0.0
Co196 Co 0.54124 0.4674 0.907 0.0
O197 O 0.57763 0.39923 0.9155 0.0
O198 O 0.49357 0.4046 0.90259 0.0
C199 C 0.61489 0.50214 0.88889 0.0
O200 O 0.48871 0.52618 0.89507 0.0
Co201 Co 0.58068 0.58724 0.91738 0.0
O202 O 0.52498 0.61109 0.89638 0.0
C203 C 0.52707 0.51793 0.95119 0.0
C204 C 0.53342 0.37368 0.90934 0.0
C205 C 0.48749 0.57794 0.89063 0.0
O206 O 0.51442 0.47931 0.9377 0.0
O207 O 0.554 0.5611 0.94605 0.0
O208 O 0.58297 0.46615 0.87966 0.0
O209 O 0.60204 0.5143 0.90846 0.0
Co210 Co 0.007 0.54548 0.40676 0.0
O211 O 0.97244 0.61303 0.4172 0.0
O212 O 0.05423 0.60851 0.4021 0.0
C213 C 0.93103 0.51125 0.38966 0.0
O214 O 0.05745 0.48759 0.39306 0.0
Co215 Co 0.96874 0.42471 0.41675 0.0
O216 O 0.02152 0.40247 0.39435 0.0
C217 C 0.02372 0.49347 0.45036 0.0
C218 C 0.01613 0.63868 0.41061 0.0
C219 C 0.05799 0.43612 0.38812 0.0
O220 O 0.03789 0.53108 0.4367 0.0
O221 O 0.99415 0.45183 0.44551 0.0
O222 O 0.96116 0.5485 0.38033 0.0
O223 O 0.94673 0.49825 0.40883 0.0
C224 C 0.02022 0.2208 0.60467 0.0
C225 C 0.03697 0.19426 0.58514 0.0
C226 C 0.03791 0.28475 0.56679 0.0
C227 C 0.0184 0.31007 0.58598 0.0
N228 N 0.98346 0.30229 0.62224 0.0
N229 N 0.07557 0.20454 0.54909 0.0
C230 C 0.0075 0.27807 0.60464 0.0
C231 C 0.04978 0.22716 0.5666 0.0
N232 N 0.02116 0.1922 0.62375 0.0
N233 N 0.04263 0.31556 0.54834 0.0
H234 H 0.08419 0.16311 0.54737 0.0
H235 H 0.09282 0.22754 0.53664 0.0
H236 H 0.03525 0.35776 0.54796 0.0
H237 H 0.04928 0.2991 0.533 0.0
H238 H 0.01467 0.21004 0.63886 0.0
H239 H 0.03513 0.15182 0.62491 0.0
H240 H 0.9681 0.28042 0.63538 0.0
H241 H 0.97455 0.34418 0.62293 0.0
C242 C 0.98722 0.74913 0.8112 0.0
C243 C 0.95845 0.74713 0.83122 0.0
C244 C 0.04466 0.76656 0.85072 0.0
C245 C 0.0741 0.76399 0.8309 0.0
N246 N 0.07494 0.74659 0.79249 0.0
N247 N 0.96119 0.74509 0.87029 0.0
C248 C 0.04574 0.75368 0.81118 0.0
C249 C 0.98758 0.75368 0.85105 0.0
N250 N 0.95841 0.74877 0.79218 0.0
N251 N 0.07107 0.78286 0.8692 0.0
H252 H 0.91978 0.73485 0.87129 0.0
H253 H 0.9812 0.74318 0.88519 0.0
H254 H 0.11275 0.7923 0.86962 0.0
H255 H 0.05096 0.79167 0.88366 0.0
H256 H 0.97604 0.75607 0.77711 0.0
H257 H 0.91582 0.7454 0.79157 0.0
H258 H 0.05774 0.73272 0.77804 0.0
H259 H 0.11743 0.75098 0.79178 0.0
C260 C 0.52305 0.73294 0.10331 0.0
C261 C 0.52162 0.70244 0.08369 0.0
C262 C 0.50774 0.78818 0.06316 0.0
C263 C 0.5059 0.81821 0.08293 0.0
N264 N 0.50138 0.818 0.12196 0.0
N265 N 0.50599 0.69919 0.04517 0.0
C266 C 0.51081 0.79023 0.10305 0.0
C267 C 0.5123 0.72961 0.06365 0.0
N268 N 0.53797 0.70744 0.12217 0.0
N269 N 0.50686 0.81582 0.0439 0.0
H270 H 0.51009 0.65653 0.04486 0.0
H271 H 0.49307 0.71549 0.03044 0.0
H272 H 0.50159 0.85822 0.04289 0.0
H273 H 0.51475 0.79748 0.02898 0.0
H274 H 0.54588 0.72834 0.13656 0.0
H275 H 0.54715 0.66564 0.12305 0.0
H276 H 0.49829 0.79892 0.13701 0.0
H277 H 0.49142 0.85965 0.12246 0.0
C278 C 0.55348 0.27055 0.31385 0.0
C279 C 0.5837 0.26693 0.33353 0.0
C280 C 0.49975 0.23861 0.35267 0.0
C281 C 0.46886 0.2464 0.33343 0.0
N282 N 0.46428 0.27721 0.29639 0.0
N283 N 0.5832 0.25869 0.37251 0.0
C284 C 0.49517 0.26467 0.31422 0.0
C285 C 0.55615 0.25386 0.35317 0.0
N286 N 0.58065 0.27692 0.29466 0.0
N287 N 0.47535 0.21583 0.37046 0.0
H288 H 0.62379 0.27174 0.3737 0.0
H289 H 0.56402 0.25527 0.38751 0.0
H290 H 0.43397 0.20514 0.37085 0.0
H291 H 0.49696 0.20325 0.38415 0.0
H292 H 0.56171 0.27386 0.27957 0.0
H293 H 0.62312 0.28081 0.29367 0.0
H294 H 0.47996 0.29672 0.28273 0.0
H295 H 0.42191 0.27154 0.29584 0.0
C296 C 0.02852 0.78801 0.39185 0.0
C297 C 0.03793 0.81603 0.41176 0.0
C298 C 0.03522 0.72716 0.43104 0.0
C299 C 0.02148 0.69999 0.41137 0.0
N300 N 0.99661 0.7055 0.37364 0.0
N301 N 0.0428 0.81345 0.45075 0.0
C302 C 0.01577 0.73076 0.39195 0.0
C303 C 0.0395 0.78586 0.43149 0.0
N304 N 0.03412 0.81568 0.3727 0.0
N305 N 0.04564 0.69669 0.44918 0.0
H306 H 0.0461 0.85609 0.45171 0.0
H307 H 0.03808 0.79468 0.46578 0.0
H308 H 0.04156 0.65403 0.44956 0.0
H309 H 0.06196 0.71305 0.46339 0.0
H310 H 0.0337 0.79657 0.3576 0.0
H311 H 0.0444 0.8572 0.37187 0.0
H312 H 0.98545 0.72661 0.35964 0.0
H313 H 0.98727 0.66372 0.37301 0.0
C314 C 0.5001 0.77446 0.67558 0.0
C315 C 0.46958 0.77191 0.65602 0.0
C316 C 0.55284 0.74621 0.636 0.0
C317 C 0.58393 0.7521 0.65528 0.0
N318 N 0.58957 0.77961 0.69276 0.0
N319 N 0.46791 0.76531 0.61699 0.0
C320 C 0.55823 0.76845 0.67491 0.0
C321 C 0.49626 0.76048 0.63604 0.0
N322 N 0.4733 0.78038 0.69489 0.0
N323 N 0.57706 0.72536 0.61778 0.0
H324 H 0.42666 0.77639 0.61629 0.0
H325 H 0.48624 0.76329 0.60179 0.0
H326 H 0.61857 0.71524 0.61705 0.0
H327 H 0.55537 0.71398 0.60395 0.0
H328 H 0.49232 0.7763 0.70992 0.0
H329 H 0.43094 0.78541 0.69597 0.0
H330 H 0.57423 0.79744 0.70684 0.0
H331 H 0.63203 0.7749 0.69295 0.0
C332 C 0.50872 0.28538 0.88977 0.0
C333 C 0.52936 0.31202 0.90868 0.0
C334 C 0.54608 0.22105 0.92498 0.0
C335 C 0.51849 0.19531 0.90742 0.0
N336 N 0.46724 0.20378 0.87419 0.0
N337 N 0.55852 0.30433 0.94599 0.0
C338 C 0.4977 0.22781 0.8902 0.0
C339 C 0.54581 0.27959 0.92674 0.0
N340 N 0.5028 0.31424 0.87091 0.0
N341 N 0.57352 0.18967 0.93978 0.0
H342 H 0.55672 0.34671 0.9483 0.0
H343 H 0.56535 0.28253 0.96026 0.0
H344 H 0.57527 0.14694 0.93878 0.0
H345 H 0.59879 0.20618 0.95175 0.0
H346 H 0.49309 0.29589 0.85614 0.0
H347 H 0.5137 0.35544 0.86936 0.0
H348 H 0.44571 0.2262 0.86258 0.0
H349 H 0.46002 0.16158 0.87348 0.0
C350 C 0.04531 0.26542 0.13826 0.0
C351 C 0.07373 0.25119 0.15758 0.0
C352 C 0.98653 0.25157 0.17763 0.0
C353 C 0.95889 0.26943 0.15864 0.0
N354 N 0.96249 0.30179 0.12178 0.0
N355 N 0.07331 0.23858 0.19633 0.0
C356 C 0.98851 0.27884 0.13922 0.0
C357 C 0.04482 0.24624 0.17747 0.0
N358 N 0.07207 0.26366 0.11881 0.0
N359 N 0.95685 0.23829 0.19566 0.0
H360 H 0.11584 0.23445 0.19686 0.0
H361 H 0.05549 0.24056 0.21163 0.0
H362 H 0.91444 0.24332 0.19655 0.0
H363 H 0.97353 0.21894 0.20919 0.0
H364 H 0.05244 0.26763 0.1039 0.0
H365 H 0.11338 0.25331 0.11736 0.0
H366 H 0.98284 0.31539 0.10798 0.0
H367 H 0.92087 0.31163 0.12181 0.0
C368 C 0.95683 0.99427 0.48096 0.0
C369 C 1.00192 0.02715 0.47415 0.0
C370 C 1.00014 0.07215 0.50942 0.0
C371 C 0.97072 0.02818 0.51806 0.0
N372 N 0.91365 0.9496 0.51182 0.0
N373 N 0.07644 0.08716 0.48613 0.0
C374 C 0.94573 0.99038 0.50362 0.0
C375 C 0.02607 0.06414 0.48941 0.0
N376 N 0.92426 0.96824 0.46619 0.0
N377 N 0.00723 0.11922 0.52095 0.0
H378 H 0.10277 0.0748 0.47376 0.0
H379 H 0.09524 0.11208 0.49774 0.0
H380 H 0.98739 0.12569 0.53571 0.0
H381 H 0.02685 0.15332 0.51427 0.0
H382 H 0.88901 0.94681 0.47054 0.0
H383 H 0.92892 0.97315 0.44952 0.0
H384 H 0.89904 0.91696 0.50253 0.0
H385 H 0.90388 0.94814 0.52829 0.0
C386 C 0.27533 0.71395 0.75201 0.0
C387 C 0.2564 0.75821 0.76493 0.0
C388 C 0.24885 0.81624 0.73301 0.0
C389 C 0.26305 0.7711 0.71953 0.0
N390 N 0.28018 0.67376 0.71598 0.0
N391 N 0.21029 0.84539 0.76714 0.0
C392 C 0.27357 0.71877 0.72893 0.0
C393 C 0.2376 0.80702 0.75511 0.0
N394 N 0.29616 0.66821 0.76179 0.0
N395 N 0.2497 0.86868 0.72506 0.0
H396 H 0.20144 0.83958 0.78352 0.0
H397 H 0.19161 0.87981 0.76031 0.0
H398 H 0.26241 0.87813 0.70937 0.0
H399 H 0.24438 0.90325 0.73482 0.0
H400 H 0.3162 0.63701 0.75338 0.0
H401 H 0.29546 0.66306 0.77859 0.0
H402 H 0.283 0.6339 0.722 0.0
H403 H 0.27847 0.6758 0.69911 0.0
C404 C 0.5478 0.0656 0.00609 0.0
C405 C 0.54855 0.01696 0.0187 0.0
C406 C 0.56245 0.96496 0.98536 0.0
C407 C 0.54113 0.01026 0.97347 0.0
N408 N 0.51192 0.10555 0.97341 0.0
N409 N 0.57575 0.92165 0.02038 0.0
C410 C 0.53494 0.06178 0.98385 0.0
C411 C 0.56255 0.96685 0.00843 0.0
N412 N 0.5574 0.11522 0.01564 0.0
N413 N 0.58366 0.92117 0.97444 0.0
H414 H 0.58581 0.92385 0.03676 0.0
H415 H 0.57834 0.88223 0.01391 0.0
H416 H 0.58679 0.92144 0.95764 0.0
H417 H 0.60332 0.88818 0.98184 0.0
H418 H 0.56062 0.15164 0.00684 0.0
H419 H 0.5682 0.11825 0.03198 0.0
H420 H 0.50207 0.14208 0.98134 0.0
H421 H 0.49803 0.10407 0.95748 0.0
C422 C 0.27444 0.2875 0.2344 0.0
C423 C 0.26402 0.23789 0.22304 0.0
C424 C 0.2701 0.1859 0.25653 0.0
C425 C 0.27412 0.23551 0.26843 0.0
N426 N 0.27339 0.33458 0.26917 0.0
N427 N 0.2372 0.14267 0.22386 0.0
C428 C 0.27458 0.28688 0.25754 0.0
C429 C 0.25694 0.18803 0.23436 0.0
N430 N 0.28563 0.33442 0.22315 0.0
N431 N 0.28046 0.13662 0.26636 0.0
H432 H 0.22577 0.14332 0.20754 0.0
H433 H 0.22667 0.10653 0.23189 0.0
H434 H 0.29295 0.13359 0.28251 0.0
H435 H 0.28266 0.09964 0.25789 0.0
H436 H 0.29927 0.37047 0.23048 0.0
H437 H 0.28407 0.33615 0.20625 0.0
H438 H 0.26816 0.37308 0.26211 0.0
H439 H 0.27428 0.33527 0.28607 0.0
C440 C 0.78595 0.30696 0.23444 0.0
C441 C 0.77477 0.25741 0.22339 0.0
C442 C 0.77082 0.20859 0.25813 0.0
C443 C 0.77513 0.25989 0.26896 0.0
N444 N 0.77015 0.35897 0.26699 0.0
N445 N 0.75154 0.16141 0.22412 0.0
C446 C 0.77767 0.30941 0.25695 0.0
C447 C 0.76585 0.20802 0.23504 0.0
N448 N 0.80452 0.35186 0.22335 0.0
N449 N 0.77286 0.16095 0.26975 0.0
H450 H 0.74966 0.1599 0.20723 0.0
H451 H 0.73906 0.12545 0.2318 0.0
H452 H 0.77556 0.16052 0.28663 0.0
H453 H 0.77509 0.12224 0.26262 0.0
H454 H 0.81788 0.38757 0.23105 0.0
H455 H 0.8121 0.35116 0.20671 0.0
H456 H 0.7669 0.39589 0.25854 0.0
H457 H 0.76083 0.36249 0.28344 0.0
C458 C 0.72365 0.7171 0.73368 0.0
C459 C 0.74847 0.7619 0.72328 0.0
C460 C 0.76788 0.80356 0.75866 0.0
C461 C 0.75254 0.7533 0.76862 0.0
N462 N 0.73405 0.65602 0.76379 0.0
N463 N 0.79676 0.84774 0.72516 0.0
C464 C 0.73524 0.70827 0.75563 0.0
C465 C 0.77106 0.80561 0.73556 0.0
N466 N 0.69227 0.68089 0.72219 0.0
N467 N 0.77838 0.84887 0.771 0.0
H468 H 0.79722 0.85066 0.70827 0.0
H469 H 0.8191 0.87799 0.73322 0.0
H470 H 0.77594 0.8484 0.78788 0.0
H471 H 0.78543 0.88761 0.76442 0.0
H472 H 0.67044 0.64919 0.72957 0.0
H473 H 0.68379 0.68642 0.70576 0.0
H474 H 0.72565 0.6217 0.75423 0.0
H475 H 0.74848 0.64615 0.77924 0.0
C476 C 0.56858 0.51675 0.98757 0.0
C477 C 0.52078 0.50957 0.97479 0.0
C478 C 0.4662 0.50101 0.008 0.0
C479 C 0.51354 0.51433 0.02028 0.0
N480 N 0.60556 0.55011 0.02133 0.0
N481 N 0.42241 0.50178 0.97253 0.0
C482 C 0.56318 0.52762 0.00983 0.0
C483 C 0.46883 0.50355 0.98487 0.0
N484 N 0.61944 0.51079 0.97857 0.0
N485 N 0.4196 0.48488 0.0184 0.0
H486 H 0.42336 0.50303 0.95563 0.0
H487 H 0.38309 0.50257 0.97905 0.0
H488 H 0.41646 0.48491 0.03527 0.0
H489 H 0.38545 0.46918 0.01037 0.0
H490 H 0.65541 0.51097 0.9877 0.0
H491 H 0.62532 0.49921 0.96244 0.0
H492 H 0.64107 0.56491 0.014 0.0
H493 H 0.60262 0.55929 0.03782 0.0
C494 C 0.97375 0.4989 0.50685 0.0
C495 C 0.02246 0.49581 0.51927 0.0
C496 C 0.07636 0.49405 0.4857 0.0
C497 C 0.02759 0.50406 0.4738 0.0
N498 N 0.93233 0.53056 0.47366 0.0
N499 N 0.12115 0.49618 0.52097 0.0
C500 C 0.97712 0.51133 0.48465 0.0
C501 C 0.07433 0.49476 0.50886 0.0
N502 N 0.92411 0.4889 0.51632 0.0
N503 N 0.12385 0.48281 0.47492 0.0
H504 H 0.12068 0.49544 0.53787 0.0
H505 H 0.16001 0.50106 0.51429 0.0
H506 H 0.12642 0.48406 0.45804 0.0
H507 H 0.15953 0.46967 0.48263 0.0
H508 H 0.8877 0.48606 0.50753 0.0
H509 H 0.92033 0.47741 0.53255 0.0
H510 H 0.89577 0.54117 0.48131 0.0
H511 H 0.93373 0.54147 0.4573 0.0
C512 C 0.22259 0.87656 0.59992 0.0
C513 C 0.25554 0.89642 0.61694 0.0
C514 C 0.20493 0.98379 0.61527 0.0
C515 C 0.16349 0.95811 0.60251 0.0
N516 N 0.12998 0.87261 0.5875 0.0
N517 N 0.27968 0.97096 0.64078 0.0
C518 C 0.17191 0.90272 0.59577 0.0
C519 C 0.24721 0.95082 0.62459 0.0
N520 N 0.23853 0.83217 0.58803 0.0
N521 N 0.20579 0.03957 0.61767 0.0
H522 H 0.31376 0.9496 0.64661 0.0
H523 H 0.27138 0.00759 0.64889 0.0
H524 H 0.17849 0.06562 0.60972 0.0
H525 H 0.23761 0.0604 0.62538 0.0
H526 H 0.21648 0.81821 0.57462 0.0
H527 H 0.27724 0.81467 0.58964 0.0
H528 H 0.13319 0.83087 0.58389 0.0
H529 H 0.0903 0.88695 0.58811 0.0
C530 C 0.30691 0.90096 0.88432 0.0
C531 C 0.30019 0.89506 0.86148 0.0
C532 C 0.3754 0.96089 0.85621 0.0
C533 C 0.37847 0.97101 0.87889 0.0
N534 N 0.3272 0.96658 0.91251 0.0
N535 N 0.31189 0.94273 0.82722 0.0
C536 C 0.33811 0.94601 0.89237 0.0
C537 C 0.32927 0.93231 0.84786 0.0
N538 N 0.28585 0.86384 0.89863 0.0
N539 N 0.41654 0.97561 0.84243 0.0
H540 H 0.27439 0.92871 0.82128 0.0
H541 H 0.33063 0.97204 0.81738 0.0
H542 H 0.45367 0.99213 0.84742 0.0
H543 H 0.41616 0.96462 0.82608 0.0
H544 H 0.29514 0.86517 0.91513 0.0
H545 H 0.26418 0.82893 0.89426 0.0
H546 H 0.29551 0.95155 0.92216 0.0
H547 H 0.34385 1.00336 0.91813 0.0
C548 C 0.32318 0.02719 0.1152 0.0
C549 C 0.37742 0.04637 0.11181 0.0
C550 C 0.34474 0.14075 0.11409 0.0
C551 C 0.29277 0.12272 0.12082 0.0
N552 N 0.23264 0.04768 0.12969 0.0
N553 N 0.44044 0.12051 0.11735 0.0
C554 C 0.28187 0.06539 0.12192 0.0
C555 C 0.38841 0.10303 0.11375 0.0
N556 N 0.31112 0.97314 0.11183 0.0
N557 N 0.35265 0.19398 0.10818 0.0
H558 H 0.47108 0.09228 0.12097 0.0
H559 H 0.45035 0.16157 0.12022 0.0
H560 H 0.31995 0.22134 0.10708 0.0
H561 H 0.38989 0.20828 0.1021 0.0
H562 H 0.27131 0.95774 0.112 0.0
H563 H 0.34106 0.94431 0.10774 0.0
H564 H 0.22422 1.00662 0.13305 0.0
H565 H 0.20108 0.07489 0.13362 0.0
C566 C 0.21934 0.02319 0.37598 0.0
C567 C 0.1646 0.04162 0.37883 0.0
C568 C 0.19592 0.13636 0.37628 0.0
C569 C 0.24867 0.119 0.37019 0.0
N570 N 0.31031 0.04451 0.36213 0.0
N571 N 0.10058 0.11447 0.37246 0.0
C572 C 0.26044 0.06178 0.36941 0.0
C573 C 0.15282 0.09796 0.37637 0.0
N574 N 0.23205 0.96948 0.37978 0.0
N575 N 0.18692 0.18948 0.38213 0.0
H576 H 0.0701 0.08564 0.36932 0.0
H577 H 0.0902 0.15524 0.36923 0.0
H578 H 0.21921 0.21723 0.38358 0.0
H579 H 0.14908 0.20332 0.38781 0.0
H580 H 0.27211 0.95467 0.38004 0.0
H581 H 0.20225 0.94037 0.38366 0.0
H582 H 0.31951 1.00345 0.35905 0.0
H583 H 0.34164 0.07203 0.35831 0.0
C584 C 0.93244 0.1006 0.36288 0.0
C585 C 0.93754 0.10248 0.38578 0.0
C586 C 0.86978 0.17661 0.38779 0.0
C587 C 0.8687 0.17822 0.36487 0.0
N588 N 0.88451 0.13312 0.33075 0.0
N589 N 0.8992 0.12798 0.42019 0.0
C590 C 0.89516 0.13701 0.35247 0.0
C591 C 0.90188 0.13578 0.39828 0.0
N592 N 0.96536 0.06649 0.35106 0.0
N593 N 0.8424 0.21578 0.3994 0.0
H594 H 0.92191 0.09748 0.42802 0.0
H595 H 0.87121 0.14778 0.43023 0.0
H596 H 0.81701 0.24488 0.39208 0.0
H597 H 0.84645 0.22094 0.41607 0.0
H598 H 0.96919 0.06844 0.33429 0.0
H599 H 0.99044 0.03686 0.35814 0.0
H600 H 0.89868 0.10133 0.32096 0.0
H601 H 0.85726 0.15943 0.32283 0.0
C602 C 0.63907 0.14035 0.09459 0.0
C603 C 0.60265 0.10757 0.10695 0.0
C604 C 0.64491 0.14161 0.14037 0.0
C605 C 0.67208 0.18243 0.12808 0.0
N606 N 0.69816 0.22041 0.09361 0.0
N607 N 0.57266 0.07362 0.1418 0.0
C608 C 0.67092 0.18116 0.10516 0.0
C609 C 0.60688 0.10619 0.12991 0.0
N610 N 0.64337 0.13164 0.07278 0.0
N611 N 0.65584 0.13687 0.16204 0.0
H612 H 0.54655 0.04464 0.13494 0.0
H613 H 0.56845 0.07671 0.15855 0.0
H614 H 0.68368 0.1624 0.17003 0.0
H615 H 0.64151 0.10482 0.17164 0.0
H616 H 0.67211 0.15108 0.06298 0.0
H617 H 0.62168 0.10049 0.06491 0.0
H618 H 0.69371 0.2258 0.07696 0.0
H619 H 0.72346 0.24951 0.10095 0.0
C620 C 0.65396 0.81572 0.88637 0.0
C621 C 0.66787 0.82172 0.86428 0.0
C622 C 0.60689 0.90162 0.86107 0.0
C623 C 0.59144 0.89448 0.88306 0.0
N624 N 0.61092 0.85489 0.91808 0.0
N625 N 0.669 0.87658 0.83186 0.0
C626 C 0.6185 0.85466 0.89616 0.0
C627 C 0.64833 0.86712 0.8521 0.0
N628 N 0.67312 0.77145 0.89774 0.0
N629 N 0.57965 0.93883 0.84844 0.0
H630 H 0.69874 0.85143 0.82485 0.0
H631 H 0.66039 0.91158 0.8228 0.0
H632 H 0.54941 0.96488 0.85448 0.0
H633 H 0.58443 0.94178 0.83172 0.0
H634 H 0.65883 0.76034 0.91301 0.0
H635 H 0.70188 0.74406 0.8914 0.0
H636 H 0.63356 0.83101 0.92885 0.0
H637 H 0.58503 0.88273 0.92571 0.0
C638 C 0.85696 0.87529 0.6301 0.0
C639 C 0.88242 0.82591 0.63757 0.0
C640 C 0.9703 0.86143 0.62496 0.0
C641 C 0.94308 0.90265 0.61309 0.0
N642 N 0.85919 0.94845 0.60334 0.0
N643 N 0.96418 0.76798 0.63645 0.0
C644 C 0.88592 0.90983 0.6154 0.0
C645 C 0.9395 0.8179 0.63366 0.0
N646 N 0.80673 0.8907 0.63771 0.0
N647 N 0.0258 0.86351 0.62768 0.0
H648 H 0.94318 0.73217 0.64022 0.0
H649 H 1.00471 0.76055 0.63197 0.0
H650 H 0.049 0.89682 0.62232 0.0
H651 H 0.04708 0.836 0.63755 0.0
H652 H 0.78861 0.92821 0.63384 0.0
H653 H 0.78633 0.86949 0.64994 0.0
H654 H 0.8166 0.95139 0.60272 0.0
H655 H 0.87977 0.97519 0.59295 0.0
C656 C 0.71151 0.44354 0.14422 0.0
C657 C 0.73741 0.40545 0.12995 0.0
C658 C 0.69785 0.45767 0.09992 0.0
C659 C 0.65948 0.48313 0.11413 0.0
N660 N 0.6282 0.49299 0.15144 0.0
N661 N 0.74733 0.37442 0.09256 0.0
C662 C 0.66579 0.47445 0.1368 0.0
C663 C 0.72881 0.41194 0.10728 0.0
N664 N 0.73166 0.45218 0.1646 0.0
N665 N 0.70648 0.47815 0.07961 0.0
H666 H 0.76839 0.33881 0.09651 0.0
H667 H 0.73655 0.37632 0.07621 0.0
H668 H 0.68916 0.51502 0.07435 0.0
H669 H 0.73675 0.46278 0.06933 0.0
H670 H 0.71593 0.48225 0.17492 0.0
H671 H 0.76861 0.43526 0.1699 0.0
H672 H 0.62984 0.48205 0.16778 0.0
H673 H 0.59283 0.51433 0.14741 0.0
C674 C 0.83238 0.44154 0.34927 0.0
C675 C 0.80523 0.40406 0.36343 0.0
C676 C 0.84439 0.4564 0.39359 0.0
C677 C 0.88362 0.48115 0.37955 0.0
N678 N 0.91704 0.48909 0.34254 0.0
N679 N 0.79302 0.37419 0.40082 0.0
C680 C 0.87827 0.47183 0.35692 0.0
C681 C 0.81292 0.411 0.38614 0.0
N682 N 0.8133 0.4502 0.32873 0.0
N683 N 0.83554 0.47723 0.41385 0.0
H684 H 0.7714 0.33896 0.3968 0.0
H685 H 0.80304 0.37621 0.41725 0.0
H686 H 0.85354 0.51369 0.41919 0.0
H687 H 0.80465 0.46262 0.42399 0.0
H688 H 0.7762 0.43403 0.32324 0.0
H689 H 0.83013 0.47968 0.31844 0.0
H690 H 0.91602 0.47779 0.32622 0.0
H691 H 0.95266 0.5096 0.34688 0.0
C692 C 0.9056 0.59662 0.61917 0.0
C693 C 0.89817 0.53922 0.61986 0.0
C694 C 0.80534 0.55462 0.63396 0.0
C695 C 0.81117 0.61189 0.62992 0.0
N696 N 0.86299 0.68443 0.61294 0.0
N697 N 0.83852 0.46226 0.62626 0.0
C698 C 0.85993 0.63192 0.62053 0.0
C699 C 0.84727 0.5176 0.62689 0.0
N700 N 0.95719 0.61737 0.61885 0.0
N701 N 0.76002 0.5358 0.64456 0.0
H702 H 0.8691 0.43446 0.62184 0.0
H703 H 0.8004 0.44437 0.62901 0.0
H704 H 0.72757 0.56151 0.64888 0.0
H705 H 0.75598 0.49549 0.64998 0.0
H706 H 0.9661 0.65915 0.61869 0.0
H707 H 0.9903 0.59182 0.62207 0.0
H708 H 0.89696 0.69917 0.60453 0.0
H709 H 0.82936 0.71078 0.61274 0.0
C710 C 0.71213 0.56747 0.84752 0.0
C711 C 0.74598 0.59956 0.86147 0.0
C712 C 0.70771 0.54692 0.89177 0.0
C713 C 0.66295 0.52974 0.87845 0.0
N714 N 0.62124 0.53166 0.84266 0.0
N715 N 0.77926 0.61354 0.89818 0.0
C716 C 0.66479 0.54172 0.85599 0.0
C717 C 0.74497 0.58757 0.88402 0.0
N718 N 0.72612 0.55968 0.82632 0.0
N719 N 0.71688 0.52193 0.91127 0.0
H720 H 0.8133 0.63609 0.89346 0.0
H721 H 0.7735 0.61223 0.91491 0.0
H722 H 0.69428 0.48811 0.91652 0.0
H723 H 0.75132 0.52972 0.9208 0.0
H724 H 0.70396 0.53395 0.81601 0.0
H725 H 0.76386 0.57225 0.82014 0.0
H726 H 0.62048 0.54472 0.82656 0.0
H727 H 0.58399 0.51612 0.84797 0.0
C728 C 0.40594 0.63907 0.89318 0.0
C729 C 0.438 0.60245 0.88057 0.0
C730 C 0.38826 0.63083 0.84789 0.0
C731 C 0.36427 0.67437 0.85987 0.0
N732 N 0.34778 0.72001 0.89384 0.0
N733 N 0.45862 0.56018 0.84627 0.0
C734 C 0.37156 0.6779 0.8826 0.0
C735 C 0.42804 0.5965 0.85805 0.0
N736 N 0.40848 0.63626 0.91529 0.0
N737 N 0.37294 0.62277 0.82681 0.0
H738 H 0.48626 0.53305 0.85346 0.0
H739 H 0.45828 0.55819 0.82943 0.0
H740 H 0.34383 0.64749 0.81913 0.0
H741 H 0.38527 0.58928 0.81753 0.0
H742 H 0.38297 0.65852 0.92557 0.0
H743 H 0.4329 0.60758 0.92338 0.0
H744 H 0.3567 0.72918 0.90994 0.0
H745 H 0.32061 0.74761 0.88663 0.0
C746 C 0.12151 0.60425 0.63069 0.0
C747 C 0.12196 0.59766 0.60783 0.0
C748 C 0.19415 0.66693 0.60442 0.0
C749 C 0.18742 0.67932 0.6267 0.0
N750 N 0.15932 0.65082 0.66228 0.0
N751 N 0.16719 0.60988 0.5737 0.0
C752 C 0.1558 0.6448 0.64027 0.0
C753 C 0.16154 0.62479 0.59495 0.0
N754 N 0.08637 0.57369 0.64299 0.0
N755 N 0.23064 0.69653 0.59241 0.0
H756 H 0.14434 0.57798 0.56686 0.0
H757 H 0.19616 0.62612 0.56317 0.0
H758 H 0.25783 0.7242 0.59951 0.0
H759 H 0.23472 0.69375 0.57568 0.0
H760 H 0.07843 0.58091 0.6593 0.0
H761 H 0.06411 0.54083 0.6367 0.0
H762 H 0.14065 0.62484 0.67341 0.0
H763 H 0.18477 0.67991 0.66959 0.0
C764 C 0.14762 0.38685 0.38971 0.0
C765 C 0.10626 0.41241 0.37705 0.0
C766 C 0.14134 0.36807 0.34427 0.0
C767 C 0.17907 0.33812 0.35728 0.0
N768 N 0.23034 0.33143 0.39065 0.0
N769 N 0.07145 0.43952 0.34229 0.0
C770 C 0.18649 0.35187 0.37945 0.0
C771 C 0.10596 0.40721 0.35422 0.0
N772 N 0.14783 0.39408 0.4117 0.0
N773 N 0.13893 0.35787 0.32249 0.0
H774 H 0.04586 0.46868 0.34945 0.0
H775 H 0.0706 0.4406 0.32544 0.0
H776 H 0.16716 0.33254 0.31463 0.0
H777 H 0.10912 0.37366 0.31217 0.0
H778 H 0.172 0.37138 0.42234 0.0
H779 H 0.12181 0.42175 0.41952 0.0
H780 H 0.24062 0.34333 0.40633 0.0
H781 H 0.25976 0.30613 0.38362 0.0
C782 C 0.39159 0.39874 0.10554 0.0
C783 C 0.43962 0.41378 0.11705 0.0
C784 C 0.40769 0.36287 0.14873 0.0
C785 C 0.36619 0.33852 0.13578 0.0
N786 N 0.31461 0.3363 0.10232 0.0
N787 N 0.49335 0.41334 0.14976 0.0
C788 C 0.35605 0.35825 0.11446 0.0
C789 C 0.44722 0.39745 0.13885 0.0
N790 N 0.38056 0.42281 0.08599 0.0
N791 N 0.40844 0.35337 0.17057 0.0
H792 H 0.52158 0.44089 0.14323 0.0
H793 H 0.50485 0.39755 0.16477 0.0
H794 H 0.37879 0.32943 0.17826 0.0
H795 H 0.43471 0.37336 0.18129 0.0
H796 H 0.34394 0.4177 0.07757 0.0
H797 H 0.40641 0.45187 0.07896 0.0
H798 H 0.30996 0.34298 0.08576 0.0
H799 H 0.28535 0.30969 0.1086 0.0
loop_
_geom_bond_atom_site_label_1
_geom_bond_atom_site_label_2
_geom_bond_distance
_geom_bond_site_symmetry_2
_ccdc_geom_bond_type
Co0 O1 2.216 . S
Co0 O2 2.091 1_455 S
Co0 O4 1.995 1_445 S
Co0 O10 2.021 1_455 S
Co0 O12 2.137 . S
Co0 O13 2.244 1_545 S
O1 Co0 2.216 . S
O1 C8 1.247 . S
O2 Co0 2.091 1_655 S
O2 C8 1.261 1_655 S
C3 O12 1.247 1_565 S
C3 O13 1.272 . S
O4 Co0 1.995 1_665 S
O4 C9 1.276 . S
Co5 O6 2.061 1_455 S
Co5 O11 2.052 . S
Co5 O13 2.135 . S
O6 Co5 2.061 1_655 S
O6 C9 1.235 . S
C7 O10 1.238 1_455 S
C7 O11 1.241 1_545 S
C8 O1 1.247 . S
C8 O2 1.261 1_455 S
C9 O4 1.276 . S
C9 O6 1.235 . S
O10 Co0 2.021 1_655 S
O10 C7 1.238 1_655 S
O11 Co5 2.052 . S
O11 C7 1.241 1_565 S
O12 Co0 2.137 . S
O12 C3 1.247 1_545 S
O13 Co0 2.244 1_565 S
O13 C3 1.272 . S
O13 Co5 2.135 . S
Co14 O15 2.216 . S
Co14 O16 2.091 . S
Co14 O18 2.004 . S
Co14 O24 2.021 . S
Co14 O26 2.137 . S
Co14 O27 2.244 . S
O15 Co14 2.216 . S
O15 C22 1.247 . S
O16 Co14 2.091 . S
O16 C22 1.261 . S
C17 O26 1.247 . S
C17 O27 1.272 . S
O18 Co14 2.004 . S
O18 C23 1.259 . S
Co19 O20 2.061 . S
Co19 O25 2.052 . S
Co19 O27 2.135 . S
O20 Co19 2.061 . S
O20 C23 1.235 . S
C21 O24 1.238 . S
C21 O25 1.241 . S
C22 O15 1.247 . S
C22 O16 1.261 . S
C23 O18 1.259 . S
C23 O20 1.235 . S
O24 Co14 2.021 . S
O24 C21 1.238 . S
O25 Co19 2.052 . S
O25 C21 1.241 . S
O26 Co14 2.137 . S
O26 C17 1.247 . S
O27 Co14 2.244 . S
O27 C17 1.272 . S
O27 Co19 2.135 . S
Co28 O29 2.216 . S
Co28 O30 2.091 . S
Co28 O32 1.995 1_565 S
Co28 O38 2.021 . S
Co28 O40 2.137 . S
Co28 O41 2.244 1_565 S
O29 Co28 2.216 . S
O29 C36 1.247 . S
O30 Co28 2.091 . S
O30 C36 1.261 . S
C31 O40 1.247 1_545 S
C31 O41 1.272 . S
O32 Co28 1.995 1_545 S
O32 C37 1.277 . S
Co33 O34 2.061 . S
Co33 O39 2.052 . S
Co33 O41 2.135 . S
O34 Co33 2.061 . S
O34 C37 1.235 . S
C35 O38 1.238 . S
C35 O39 1.241 1_565 S
C36 O29 1.247 . S
C36 O30 1.261 . S
C37 O32 1.277 . S
C37 O34 1.235 . S
O38 Co28 2.021 . S
O38 C35 1.238 . S
O39 Co33 2.052 . S
O39 C35 1.241 1_545 S
O40 Co28 2.137 . S
O40 C31 1.247 1_565 S
O41 Co28 2.244 1_545 S
O41 C31 1.272 . S
O41 Co33 2.135 . S
Co42 O43 2.216 . S
Co42 O44 2.091 . S
Co42 O46 2.004 . S
Co42 O52 2.021 . S
Co42 O54 2.137 . S
Co42 O55 2.244 . S
O43 Co42 2.216 . S
O43 C50 1.247 . S
O44 Co42 2.091 . S
O44 C50 1.261 . S
C45 O54 1.247 . S
C45 O55 1.272 . S
O46 Co42 2.004 . S
O46 C51 1.259 . S
Co47 O48 2.061 . S
Co47 O53 2.052 . S
Co47 O55 2.135 . S
O48 Co47 2.061 . S
O48 C51 1.235 . S
C49 O52 1.238 . S
C49 O53 1.241 . S
C50 O43 1.247 . S
C50 O44 1.261 . S
C51 O46 1.259 . S
C51 O48 1.235 . S
O52 Co42 2.021 . S
O52 C49 1.238 . S
O53 Co47 2.052 . S
O53 C49 1.241 . S
O54 Co42 2.137 . S
O54 C45 1.247 . S
O55 Co42 2.244 . S
O55 C45 1.272 . S
O55 Co47 2.135 . S
Co56 O57 2.216 . S
Co56 O58 2.091 1_455 S
Co56 O60 1.995 1_465 S
Co56 O66 2.021 1_455 S
Co56 O68 2.137 . S
Co56 O69 2.244 1_565 S
O57 Co56 2.216 . S
O57 C64 1.247 . S
O58 Co56 2.091 1_655 S
O58 C64 1.261 1_655 S
C59 O68 1.247 1_545 S
C59 O69 1.272 . S
O60 Co56 1.995 1_645 S
O60 C65 1.276 . S
Co61 O62 2.061 1_455 S
Co61 O67 2.052 . S
Co61 O69 2.135 . S
O62 Co61 2.061 1_655 S
O62 C65 1.235 . S
C63 O66 1.238 1_455 S
C63 O67 1.241 1_565 S
C64 O57 1.247 . S
C64 O58 1.261 1_455 S
C65 O60 1.276 . S
C65 O62 1.235 . S
O66 Co56 2.021 1_655 S
O66 C63 1.238 1_655 S
O67 Co61 2.052 . S
O67 C63 1.241 1_545 S
O68 Co56 2.137 . S
O68 C59 1.247 1_565 S
O69 Co56 2.244 1_545 S
O69 C59 1.272 . S
O69 Co61 2.135 . S
Co70 O71 2.216 . S
Co70 O72 2.091 . S
Co70 O74 2.004 . S
Co70 O80 2.021 . S
Co70 O82 2.137 . S
Co70 O83 2.244 . S
O71 Co70 2.216 . S
O71 C78 1.247 . S
O72 Co70 2.091 . S
O72 C78 1.261 . S
C73 O82 1.247 . S
C73 O83 1.272 . S
O74 Co70 2.004 . S
O74 C79 1.259 . S
Co75 O76 2.061 . S
Co75 O81 2.052 . S
Co75 O83 2.135 . S
O76 Co75 2.061 . S
O76 C79 1.235 . S
C77 O80 1.238 . S
C77 O81 1.241 . S
C78 O71 1.247 . S
C78 O72 1.261 . S
C79 O74 1.259 . S
C79 O76 1.235 . S
O80 Co70 2.021 . S
O80 C77 1.238 . S
O81 Co75 2.052 . S
O81 C77 1.241 . S
O82 Co70 2.137 . S
O82 C73 1.247 . S
O83 Co70 2.244 . S
O83 C73 1.272 . S
O83 Co75 2.135 . S
Co84 O85 2.216 . S
Co84 O86 2.091 . S
Co84 O88 1.995 1_545 S
Co84 O94 2.021 . S
Co84 O96 2.137 . S
Co84 O97 2.244 1_545 S
O85 Co84 2.216 . S
O85 C92 1.247 . S
O86 Co84 2.091 . S
O86 C92 1.261 . S
C87 O96 1.247 1_565 S
C87 O97 1.272 . S
O88 Co84 1.995 1_565 S
O88 C93 1.277 . S
Co89 O90 2.061 . S
Co89 O95 2.052 . S
Co89 O97 2.135 . S
O90 Co89 2.061 . S
O90 C93 1.235 . S
C91 O94 1.238 . S
C91 O95 1.241 1_545 S
C92 O85 1.247 . S
C92 O86 1.261 . S
C93 O88 1.277 . S
C93 O90 1.235 . S
O94 Co84 2.021 . S
O94 C91 1.238 . S
O95 Co89 2.052 . S
O95 C91 1.241 1_565 S
O96 Co84 2.137 . S
O96 C87 1.247 1_545 S
O97 Co84 2.244 1_565 S
O97 C87 1.272 . S
O97 Co89 2.135 . S
Co98 O99 2.216 . S
Co98 O100 2.091 . S
Co98 O102 2.004 . S
Co98 O108 2.021 . S
Co98 O110 2.137 . S
Co98 O111 2.244 . S
O99 Co98 2.216 . S
O99 C106 1.247 . S
O100 Co98 2.091 . S
O100 C106 1.261 . S
C101 O110 1.247 . S
C101 O111 1.272 . S
O102 Co98 2.004 . S
O102 C107 1.259 . S
Co103 O104 2.061 . S
Co103 O109 2.052 . S
Co103 O111 2.135 . S
O104 Co103 2.061 . S
O104 C107 1.235 . S
C105 O108 1.238 . S
C105 O109 1.241 . S
C106 O99 1.247 . S
C106 O100 1.261 . S
C107 O102 1.259 . S
C107 O104 1.235 . S
O108 Co98 2.021 . S
O108 C105 1.238 . S
O109 Co103 2.052 . S
O109 C105 1.241 . S
O110 Co98 2.137 . S
O110 C101 1.247 . S
O111 Co98 2.244 . S
O111 C101 1.272 . S
O111 Co103 2.135 . S
Co112 O113 2.216 . S
Co112 O114 2.091 . S
Co112 O116 2.004 . S
Co112 O122 2.021 . S
Co112 O124 2.137 . S
Co112 O125 2.244 . S
O113 Co112 2.216 . S
O113 C120 1.247 . S
O114 Co112 2.091 . S
O114 C120 1.261 . S
C115 O124 1.247 . S
C115 O125 1.272 . S
O116 Co112 2.004 . S
O116 C121 1.259 . S
Co117 O118 2.061 . S
Co117 O123 2.052 . S
Co117 O125 2.135 . S
O118 Co117 2.061 . S
O118 C121 1.235 . S
C119 O122 1.238 . S
C119 O123 1.241 . S
C120 O113 1.247 . S
C120 O114 1.261 . S
C121 O116 1.259 . S
C121 O118 1.235 . S
O122 Co112 2.021 . S
O122 C119 1.238 . S
O123 Co117 2.052 . S
O123 C119 1.241 . S
O124 Co112 2.137 . S
O124 C115 1.247 . S
O125 Co112 2.244 . S
O125 C115 1.272 . S
O125 Co117 2.135 . S
Co126 O127 2.216 . S
Co126 O128 2.091 . S
Co126 O130 2.004 . S
Co126 O136 2.021 . S
Co126 O138 2.137 . S
Co126 O139 2.244 . S
O127 Co126 2.216 . S
O127 C134 1.247 . S
O128 Co126 2.091 . S
O128 C134 1.261 . S
C129 O138 1.247 . S
C129 O139 1.272 . S
O130 Co126 2.004 . S
O130 C135 1.259 . S
Co131 O132 2.061 . S
Co131 O137 2.052 . S
Co131 O139 2.135 . S
O132 Co131 2.061 . S
O132 C135 1.235 . S
C133 O136 1.238 . S
C133 O137 1.241 . S
C134 O127 1.247 . S
C134 O128 1.261 . S
C135 O130 1.259 . S
C135 O132 1.235 . S
O136 Co126 2.021 . S
O136 C133 1.238 . S
O137 Co131 2.052 . S
O137 C133 1.241 . S
O138 Co126 2.137 . S
O138 C129 1.247 . S
O139 Co126 2.244 . S
O139 C129 1.272 . S
O139 Co131 2.135 . S
Co140 O141 2.216 . S
Co140 O142 2.091 . S
Co140 O144 2.004 . S
Co140 O150 2.021 . S
Co140 O152 2.137 . S
Co140 O153 2.244 . S
O141 Co140 2.216 . S
O141 C148 1.247 . S
O142 Co140 2.091 . S
O142 C148 1.261 . S
C143 O152 1.247 . S
C143 O153 1.272 . S
O144 Co140 2.004 . S
O144 C149 1.259 . S
Co145 O146 2.061 . S
Co145 O151 2.052 . S
Co145 O153 2.135 . S
O146 Co145 2.061 . S
O146 C149 1.235 . S
C147 O150 1.238 . S
C147 O151 1.241 . S
C148 O141 1.247 . S
C148 O142 1.261 . S
C149 O144 1.259 . S
C149 O146 1.235 . S
O150 Co140 2.021 . S
O150 C147 1.238 . S
O151 Co145 2.052 . S
O151 C147 1.241 . S
O152 Co140 2.137 . S
O152 C143 1.247 . S
O153 Co140 2.244 . S
O153 C143 1.272 . S
O153 Co145 2.135 . S
Co154 O155 2.216 . S
Co154 O156 2.091 . S
Co154 O158 2.004 . S
Co154 O164 2.021 . S
Co154 O166 2.137 . S
Co154 O167 2.244 . S
O155 Co154 2.216 . S
O155 C162 1.247 . S
O156 Co154 2.091 . S
O156 C162 1.261 . S
C157 O166 1.247 . S
C157 O167 1.272 . S
O158 Co154 2.004 . S
O158 C163 1.259 . S
Co159 O160 2.061 . S
Co159 O165 2.052 . S
Co159 O167 2.135 . S
O160 Co159 2.061 . S
O160 C163 1.235 . S
C161 O164 1.238 . S
C161 O165 1.241 . S
C162 O155 1.247 . S
C162 O156 1.261 . S
C163 O158 1.259 . S
C163 O160 1.235 . S
O164 Co154 2.021 . S
O164 C161 1.238 . S
O165 Co159 2.052 . S
O165 C161 1.241 . S
O166 Co154 2.137 . S
O166 C157 1.247 . S
O167 Co154 2.244 . S
O167 C157 1.272 . S
O167 Co159 2.135 . S
Co168 O169 2.216 . S
Co168 O170 2.091 . S
Co168 O172 2.004 . S
Co168 O178 2.021 . S
Co168 O180 2.137 . S
Co168 O181 2.244 . S
O169 Co168 2.216 . S
O169 C176 1.247 . S
O170 Co168 2.091 . S
O170 C176 1.261 . S
C171 O180 1.247 . S
C171 O181 1.272 . S
O172 Co168 2.004 . S
O172 C177 1.259 . S
Co173 O174 2.061 . S
Co173 O179 2.052 . S
Co173 O181 2.135 . S
O174 Co173 2.061 . S
O174 C177 1.235 . S
C175 O178 1.238 . S
C175 O179 1.241 . S
C176 O169 1.247 . S
C176 O170 1.261 . S
C177 O172 1.259 . S
C177 O174 1.235 . S
O178 Co168 2.021 . S
O178 C175 1.238 . S
O179 Co173 2.052 . S
O179 C175 1.241 . S
O180 Co168 2.137 . S
O180 C171 1.247 . S
O181 Co168 2.244 . S
O181 C171 1.272 . S
O181 Co173 2.135 . S
Co182 O183 2.216 1_455 S
Co182 O184 2.091 . S
Co182 O186 2.004 . S
Co182 O192 2.021 . S
Co182 O194 2.137 1_455 S
Co182 O195 2.244 1_455 S
O183 Co182 2.216 1_655 S
O183 C190 1.247 . S
O184 Co182 2.091 . S
O184 C190 1.261 1_455 S
C185 O194 1.247 . S
C185 O195 1.272 . S
O186 Co182 2.004 . S
O186 C191 1.259 . S
Co187 O188 2.061 1_655 S
Co187 O193 2.052 . S
Co187 O195 2.135 . S
O188 Co187 2.061 1_455 S
O188 C191 1.235 . S
C189 O192 1.238 . S
C189 O193 1.241 1_455 S
C190 O183 1.247 . S
C190 O184 1.261 1_655 S
C191 O186 1.259 . S
C191 O188 1.235 . S
O192 Co182 2.021 . S
O192 C189 1.238 . S
O193 Co187 2.052 . S
O193 C189 1.241 1_655 S
O194 Co182 2.137 1_655 S
O194 C185 1.247 . S
O195 Co182 2.244 1_655 S
O195 C185 1.272 . S
O195 Co187 2.135 . S
Co196 O197 2.216 . S
Co196 O198 2.091 . S
Co196 O200 2.004 . S
Co196 O206 2.021 . S
Co196 O208 2.137 . S
Co196 O209 2.244 . S
O197 Co196 2.216 . S
O197 C204 1.247 . S
O198 Co196 2.091 . S
O198 C204 1.261 . S
C199 O208 1.247 . S
C199 O209 1.272 . S
O200 Co196 2.004 . S
O200 C205 1.259 . S
Co201 O202 2.061 . S
Co201 O207 2.052 . S
Co201 O209 2.135 . S
O202 Co201 2.061 . S
O202 C205 1.235 . S
C203 O206 1.238 . S
C203 O207 1.241 . S
C204 O197 1.247 . S
C204 O198 1.261 . S
C205 O200 1.259 . S
C205 O202 1.235 . S
O206 Co196 2.021 . S
O206 C203 1.238 . S
O207 Co201 2.052 . S
O207 C203 1.241 . S
O208 Co196 2.137 . S
O208 C199 1.247 . S
O209 Co196 2.244 . S
O209 C199 1.272 . S
O209 Co201 2.135 . S
Co210 O211 2.216 1_455 S
Co210 O212 2.091 . S
Co210 O214 2.004 . S
Co210 O220 2.021 . S
Co210 O222 2.137 1_455 S
Co210 O223 2.244 1_455 S
O211 Co210 2.216 1_655 S
O211 C218 1.247 . S
O212 Co210 2.091 . S
O212 C218 1.261 1_455 S
C213 O222 1.247 . S
C213 O223 1.272 . S
O214 Co210 2.004 . S
O214 C219 1.259 . S
Co215 O216 2.061 1_655 S
Co215 O221 2.052 . S
Co215 O223 2.135 . S
O216 Co215 2.061 1_455 S
O216 C219 1.235 . S
C217 O220 1.238 . S
C217 O221 1.241 1_455 S
C218 O211 1.247 . S
C218 O212 1.261 1_655 S
C219 O214 1.259 . S
C219 O216 1.235 . S
O220 Co210 2.021 . S
O220 C217 1.238 . S
O221 Co215 2.052 . S
O221 C217 1.241 1_655 S
O222 Co210 2.137 1_655 S
O222 C213 1.247 . S
O223 Co210 2.244 1_655 S
O223 C213 1.272 . S
O223 Co215 2.135 . S
C224 C225 1.349 1_655 S
C224 C230 1.386 . S
C224 N232 1.360 . S
C225 C224 1.349 1_455 S
C225 C231 1.363 . S
C226 C227 1.363 1_455 S
C226 C231 1.379 . S
C226 N233 1.356 . S
C227 C226 1.363 1_655 S
C227 C230 1.363 . S
N228 C230 1.356 . S
N228 H240 0.984 . S
N228 H241 0.985 . S
N229 C231 1.356 . S
N229 H234 0.984 . S
N229 H235 0.985 . S
C230 C224 1.386 . S
C230 C227 1.363 . S
C230 N228 1.356 . S
C231 C225 1.363 . S
C231 C226 1.379 . S
C231 N229 1.356 . S
N232 C224 1.360 . S
N232 H238 0.984 . S
N232 H239 0.984 1_655 S
N233 C226 1.356 . S
N233 H236 0.984 . S
N233 H237 0.985 . S
H234 N229 0.984 . S
H235 N229 0.985 . S
H236 N233 0.984 . S
H237 N233 0.985 . S
H238 N232 0.984 . S
H239 N232 0.984 1_455 S
H240 N228 0.984 . S
H241 N228 0.985 . S
C242 C243 1.363 . S
C242 C248 1.379 1_655 S
C242 N250 1.356 . S
C243 C242 1.363 . S
C243 C249 1.363 . S
C244 C245 1.363 . S
C244 C249 1.379 1_455 S
C244 N251 1.356 . S
C245 C244 1.363 . S
C245 C248 1.363 . S
N246 C248 1.356 . S
N246 H258 0.984 . S
N246 H259 0.985 . S
N247 C249 1.356 . S
N247 H252 0.984 . S
N247 H253 0.985 . S
C248 C242 1.379 1_455 S
C248 C245 1.363 . S
C248 N246 1.356 . S
C249 C243 1.363 . S
C249 C244 1.379 1_655 S
C249 N247 1.356 . S
N250 C242 1.356 . S
N250 H256 0.984 . S
N250 H257 0.984 . S
N251 C244 1.356 . S
N251 H254 0.984 . S
N251 H255 0.985 . S
H252 N247 0.984 . S
H253 N247 0.985 . S
H254 N251 0.984 . S
H255 N251 0.985 . S
H256 N250 0.984 . S
H257 N250 0.984 . S
H258 N246 0.984 . S
H259 N246 0.985 . S
C260 C261 1.363 . S
C260 C266 1.379 . S
C260 N268 1.356 . S
C261 C260 1.363 . S
C261 C267 1.363 . S
C262 C263 1.363 . S
C262 C267 1.379 . S
C262 N269 1.356 . S
C263 C262 1.363 . S
C263 C266 1.363 . S
N264 C266 1.356 . S
N264 H276 0.984 . S
N264 H277 0.985 . S
N265 C267 1.356 . S
N265 H270 0.984 . S
N265 H271 0.985 . S
C266 C260 1.379 . S
C266 C263 1.363 . S
C266 N264 1.356 . S
C267 C261 1.363 . S
C267 C262 1.379 . S
C267 N265 1.356 . S
N268 C260 1.356 . S
N268 H274 0.984 . S
N268 H275 0.984 . S
N269 C262 1.356 . S
N269 H272 0.984 . S
N269 H273 0.985 . S
H270 N265 0.984 . S
H271 N265 0.985 . S
H272 N269 0.984 . S
H273 N269 0.985 . S
H274 N268 0.984 . S
H275 N268 0.984 . S
H276 N264 0.984 . S
H277 N264 0.985 . S
C278 C279 1.363 . S
C278 C284 1.379 . S
C278 N286 1.356 . S
C279 C278 1.363 . S
C279 C285 1.363 . S
C280 C281 1.363 . S
C280 C285 1.379 . S
C280 N287 1.356 . S
C281 C280 1.363 . S
C281 C284 1.363 . S
N282 C284 1.356 . S
N282 H294 0.984 . S
N282 H295 0.985 . S
N283 C285 1.356 . S
N283 H288 0.984 . S
N283 H289 0.985 . S
C284 C278 1.379 . S
C284 C281 1.363 . S
C284 N282 1.356 . S
C285 C279 1.363 . S
C285 C280 1.379 . S
C285 N283 1.356 . S
N286 C278 1.356 . S
N286 H292 0.984 . S
N286 H293 0.984 . S
N287 C280 1.356 . S
N287 H290 0.984 . S
N287 H291 0.985 . S
H288 N283 0.984 . S
H289 N283 0.985 . S
H290 N287 0.984 . S
H291 N287 0.985 . S
H292 N286 0.984 . S
H293 N286 0.984 . S
H294 N282 0.984 . S
H295 N282 0.985 . S
C296 C297 1.349 1_655 S
C296 C302 1.386 . S
C296 N304 1.360 . S
C297 C296 1.349 1_455 S
C297 C303 1.363 . S
C298 C299 1.363 1_455 S
C298 C303 1.379 . S
C298 N305 1.356 . S
C299 C298 1.363 1_655 S
C299 C302 1.363 . S
N300 C302 1.356 . S
N300 H312 0.984 . S
N300 H313 0.985 . S
N301 C303 1.356 . S
N301 H306 0.984 . S
N301 H307 0.985 . S
C302 C296 1.386 . S
C302 C299 1.363 . S
C302 N300 1.356 . S
C303 C297 1.363 . S
C303 C298 1.379 . S
C303 N301 1.356 . S
N304 C296 1.360 . S
N304 H310 0.984 . S
N304 H311 0.984 1_655 S
N305 C298 1.356 . S
N305 H308 0.984 . S
N305 H309 0.985 . S
H306 N301 0.984 . S
H307 N301 0.985 . S
H308 N305 0.984 . S
H309 N305 0.985 . S
H310 N304 0.984 . S
H311 N304 0.984 1_455 S
H312 N300 0.984 . S
H313 N300 0.985 . S
C314 C315 1.363 . S
C314 C320 1.379 . S
C314 N322 1.356 . S
C315 C314 1.363 . S
C315 C321 1.363 . S
C316 C317 1.363 . S
C316 C321 1.379 . S
C316 N323 1.356 . S
C317 C316 1.363 . S
C317 C320 1.363 . S
N318 C320 1.356 . S
N318 H330 0.984 . S
N318 H331 0.985 . S
N319 C321 1.356 . S
N319 H324 0.984 . S
N319 H325 0.985 . S
C320 C314 1.379 . S
C320 C317 1.363 . S
C320 N318 1.356 . S
C321 C315 1.363 . S
C321 C316 1.379 . S
C321 N319 1.356 . S
N322 C314 1.356 . S
N322 H328 0.984 . S
N322 H329 0.984 . S
N323 C316 1.356 . S
N323 H326 0.984 . S
N323 H327 0.985 . S
H324 N319 0.984 . S
H325 N319 0.985 . S
H326 N323 0.984 . S
H327 N323 0.985 . S
H328 N322 0.984 . S
H329 N322 0.984 . S
H330 N318 0.984 . S
H331 N318 0.985 . S
C332 C333 1.363 . S
C332 C338 1.379 . S
C332 N340 1.356 . S
C333 C332 1.363 . S
C333 C339 1.363 . S
C334 C335 1.363 . S
C334 C339 1.379 . S
C334 N341 1.356 . S
C335 C334 1.363 . S
C335 C338 1.363 . S
N336 C338 1.356 . S
N336 H348 0.984 . S
N336 H349 0.985 . S
N337 C339 1.356 . S
N337 H342 0.984 . S
N337 H343 0.985 . S
C338 C332 1.379 . S
C338 C335 1.363 . S
C338 N336 1.356 . S
C339 C333 1.363 . S
C339 C334 1.379 . S
C339 N337 1.356 . S
N340 C332 1.356 . S
N340 H346 0.984 . S
N340 H347 0.984 . S
N341 C334 1.356 . S
N341 H344 0.984 . S
N341 H345 0.985 . S
H342 N337 0.984 . S
H343 N337 0.985 . S
H344 N341 0.984 . S
H345 N341 0.985 . S
H346 N340 0.984 . S
H347 N340 0.984 . S
H348 N336 0.984 . S
H349 N336 0.985 . S
C350 C351 1.363 . S
C350 C356 1.379 1_455 S
C350 N358 1.356 . S
C351 C350 1.363 . S
C351 C357 1.363 . S
C352 C353 1.363 . S
C352 C357 1.379 1_655 S
C352 N359 1.356 . S
C353 C352 1.363 . S
C353 C356 1.363 . S
N354 C356 1.356 . S
N354 H366 0.984 . S
N354 H367 0.985 . S
N355 C357 1.356 . S
N355 H360 0.984 . S
N355 H361 0.985 . S
C356 C350 1.379 1_655 S
C356 C353 1.363 . S
C356 N354 1.356 . S
C357 C351 1.363 . S
C357 C352 1.379 1_455 S
C357 N355 1.356 . S
N358 C350 1.356 . S
N358 H364 0.984 . S
N358 H365 0.984 . S
N359 C352 1.356 . S
N359 H362 0.984 . S
N359 H363 0.985 . S
H360 N355 0.984 . S
H361 N355 0.985 . S
H362 N359 0.984 . S
H363 N359 0.985 . S
H364 N358 0.984 . S
H365 N358 0.984 . S
H366 N354 0.984 . S
H367 N354 0.985 . S
C368 C369 1.363 1_655 S
C368 C374 1.379 . S
C368 N376 1.356 . S
C369 C368 1.363 1_455 S
C369 C375 1.363 1_565 S
C370 C371 1.363 . S
C370 C375 1.379 . S
C370 N377 1.356 . S
C371 C370 1.363 . S
C371 C374 1.363 1_445 S
N372 C374 1.356 . S
N372 H384 0.984 . S
N372 H385 0.985 . S
N373 C375 1.356 . S
N373 H378 0.984 . S
N373 H379 0.985 . S
C374 C368 1.379 . S
C374 C371 1.363 1_665 S
C374 N372 1.356 . S
C375 C369 1.363 1_545 S
C375 C370 1.379 . S
C375 N373 1.356 . S
N376 C368 1.356 . S
N376 H382 0.984 . S
N376 H383 0.984 . S
N377 C370 1.356 . S
N377 H380 0.984 . S
N377 H381 0.985 . S
H378 N373 0.984 . S
H379 N373 0.985 . S
H380 N377 0.984 . S
H381 N377 0.985 . S
H382 N376 0.984 . S
H383 N376 0.984 . S
H384 N372 0.984 . S
H385 N372 0.985 . S
C386 C387 1.363 . S
C386 C392 1.379 . S
C386 N394 1.356 . S
C387 C386 1.363 . S
C387 C393 1.363 . S
C388 C389 1.363 . S
C388 C393 1.379 . S
C388 N395 1.356 . S
C389 C388 1.363 . S
C389 C392 1.363 . S
N390 C392 1.356 . S
N390 H402 0.984 . S
N390 H403 0.985 . S
N391 C393 1.356 . S
N391 H396 0.984 . S
N391 H397 0.985 . S
C392 C386 1.379 . S
C392 C389 1.363 . S
C392 N390 1.356 . S
C393 C387 1.363 . S
C393 C388 1.379 . S
C393 N391 1.356 . S
N394 C386 1.356 . S
N394 H400 0.984 . S
N394 H401 0.984 . S
N395 C388 1.356 . S
N395 H398 0.984 . S
N395 H399 0.985 . S
H396 N391 0.984 . S
H397 N391 0.985 . S
H398 N395 0.984 . S
H399 N395 0.985 . S
H400 N394 0.984 . S
H401 N394 0.984 . S
H402 N390 0.984 . S
H403 N390 0.985 . S
C404 C405 1.363 1_545 S
C404 C410 1.379 1_554 S
C404 N412 1.356 . S
C405 C404 1.363 1_565 S
C405 C411 1.363 . S
C406 C407 1.363 1_565 S
C406 C411 1.379 1_556 S
C406 N413 1.356 . S
C407 C406 1.363 1_545 S
C407 C410 1.363 . S
N408 C410 1.356 . S
N408 H420 0.984 . S
N408 H421 0.985 . S
N409 C411 1.356 . S
N409 H414 0.984 . S
N409 H415 0.985 . S
C410 C404 1.379 1_556 S
C410 C407 1.363 . S
C410 N408 1.356 . S
C411 C405 1.363 . S
C411 C406 1.379 1_554 S
C411 N409 1.356 . S
N412 C404 1.356 . S
N412 H418 0.984 . S
N412 H419 0.984 . S
N413 C406 1.356 . S
N413 H416 0.984 . S
N413 H417 0.985 . S
H414 N409 0.984 . S
H415 N409 0.985 . S
H416 N413 0.984 . S
H417 N413 0.985 . S
H418 N412 0.984 . S
H419 N412 0.984 . S
H420 N408 0.984 . S
H421 N408 0.985 . S
C422 C423 1.363 . S
C422 C428 1.379 . S
C422 N430 1.356 . S
C423 C422 1.363 . S
C423 C429 1.363 . S
C424 C425 1.363 . S
C424 C429 1.379 . S
C424 N431 1.356 . S
C425 C424 1.363 . S
C425 C428 1.363 . S
N426 C428 1.356 . S
N426 H438 0.984 . S
N426 H439 0.985 . S
N427 C429 1.356 . S
N427 H432 0.984 . S
N427 H433 0.985 . S
C428 C422 1.379 . S
C428 C425 1.363 . S
C428 N426 1.356 . S
C429 C423 1.363 . S
C429 C424 1.379 . S
C429 N427 1.356 . S
N430 C422 1.356 . S
N430 H436 0.984 . S
N430 H437 0.984 . S
N431 C424 1.356 . S
N431 H434 0.984 . S
N431 H435 0.985 . S
H432 N427 0.984 . S
H433 N427 0.985 . S
H434 N431 0.984 . S
H435 N431 0.985 . S
H436 N430 0.984 . S
H437 N430 0.984 . S
H438 N426 0.984 . S
H439 N426 0.985 . S
C440 C441 1.363 . S
C440 C446 1.379 . S
C440 N448 1.356 . S
C441 C440 1.363 . S
C441 C447 1.363 . S
C442 C443 1.363 . S
C442 C447 1.379 . S
C442 N449 1.356 . S
C443 C442 1.363 . S
C443 C446 1.363 . S
N444 C446 1.356 . S
N444 H456 0.984 . S
N444 H457 0.985 . S
N445 C447 1.356 . S
N445 H450 0.984 . S
N445 H451 0.985 . S
C446 C440 1.379 . S
C446 C443 1.363 . S
C446 N444 1.356 . S
C447 C441 1.363 . S
C447 C442 1.379 . S
C447 N445 1.356 . S
N448 C440 1.356 . S
N448 H454 0.984 . S
N448 H455 0.984 . S
N449 C442 1.356 . S
N449 H452 0.984 . S
N449 H453 0.985 . S
H450 N445 0.984 . S
H451 N445 0.985 . S
H452 N449 0.984 . S
H453 N449 0.985 . S
H454 N448 0.984 . S
H455 N448 0.984 . S
H456 N444 0.984 . S
H457 N444 0.985 . S
C458 C459 1.363 . S
C458 C464 1.379 . S
C458 N466 1.356 . S
C459 C458 1.363 . S
C459 C465 1.363 . S
C460 C461 1.363 . S
C460 C465 1.379 . S
C460 N467 1.356 . S
C461 C460 1.363 . S
C461 C464 1.363 . S
N462 C464 1.356 . S
N462 H474 0.984 . S
N462 H475 0.985 . S
N463 C465 1.356 . S
N463 H468 0.984 . S
N463 H469 0.985 . S
C464 C458 1.379 . S
C464 C461 1.363 . S
C464 N462 1.356 . S
C465 C459 1.363 . S
C465 C460 1.379 . S
C465 N463 1.356 . S
N466 C458 1.356 . S
N466 H472 0.984 . S
N466 H473 0.984 . S
N467 C460 1.356 . S
N467 H470 0.984 . S
N467 H471 0.985 . S
H468 N463 0.984 . S
H469 N463 0.985 . S
H470 N467 0.984 . S
H471 N467 0.985 . S
H472 N466 0.984 . S
H473 N466 0.984 . S
H474 N462 0.984 . S
H475 N462 0.985 . S
C476 C477 1.363 . S
C476 C482 1.379 1_556 S
C476 N484 1.356 . S
C477 C476 1.363 . S
C477 C483 1.363 . S
C478 C479 1.363 . S
C478 C483 1.379 1_554 S
C478 N485 1.356 . S
C479 C478 1.363 . S
C479 C482 1.363 . S
N480 C482 1.356 . S
N480 H492 0.984 . S
N480 H493 0.985 . S
N481 C483 1.356 . S
N481 H486 0.984 . S
N481 H487 0.985 . S
C482 C476 1.379 1_554 S
C482 C479 1.363 . S
C482 N480 1.356 . S
C483 C477 1.363 . S
C483 C478 1.379 1_556 S
C483 N481 1.356 . S
N484 C476 1.356 . S
N484 H490 0.984 . S
N484 H491 0.984 . S
N485 C478 1.356 . S
N485 H488 0.984 . S
N485 H489 0.985 . S
H486 N481 0.984 . S
H487 N481 0.985 . S
H488 N485 0.984 . S
H489 N485 0.985 . S
H490 N484 0.984 . S
H491 N484 0.984 . S
H492 N480 0.984 . S
H493 N480 0.985 . S
C494 C495 1.363 . S
C494 C500 1.379 . S
C494 N502 1.356 1_455 S
C495 C494 1.363 . S
C495 C501 1.363 . S
C496 C497 1.363 . S
C496 C501 1.379 . S
C496 N503 1.356 . S
C497 C496 1.363 . S
C497 C500 1.363 . S
N498 C500 1.356 1_655 S
N498 H510 0.984 . S
N498 H511 0.985 . S
N499 C501 1.356 . S
N499 H504 0.984 . S
N499 H505 0.985 . S
C500 C494 1.379 . S
C500 C497 1.363 . S
C500 N498 1.356 1_455 S
C501 C495 1.363 . S
C501 C496 1.379 . S
C501 N499 1.356 . S
N502 C494 1.356 1_655 S
N502 H508 0.984 . S
N502 H509 0.984 . S
N503 C496 1.356 . S
N503 H506 0.984 . S
N503 H507 0.985 . S
H504 N499 0.984 . S
H505 N499 0.985 . S
H506 N503 0.984 . S
H507 N503 0.985 . S
H508 N502 0.984 . S
H509 N502 0.984 . S
H510 N498 0.984 . S
H511 N498 0.985 . S
C512 C513 1.363 . S
C512 C518 1.379 . S
C512 N520 1.356 . S
C513 C512 1.363 . S
C513 C519 1.363 . S
C514 C515 1.363 . S
C514 C519 1.379 . S
C514 N521 1.356 1_565 S
C515 C514 1.363 . S
C515 C518 1.363 . S
N516 C518 1.356 . S
N516 H528 0.984 . S
N516 H529 0.985 . S
N517 C519 1.356 . S
N517 H522 0.984 . S
N517 H523 0.985 . S
C518 C512 1.379 . S
C518 C515 1.363 . S
C518 N516 1.356 . S
C519 C513 1.363 . S
C519 C514 1.379 . S
C519 N517 1.356 . S
N520 C512 1.356 . S
N520 H526 0.984 . S
N520 H527 0.984 . S
N521 C514 1.356 1_545 S
N521 H524 0.984 . S
N521 H525 0.985 . S
H522 N517 0.984 . S
H523 N517 0.985 . S
H524 N521 0.984 . S
H525 N521 0.985 . S
H526 N520 0.984 . S
H527 N520 0.984 . S
H528 N516 0.984 . S
H529 N516 0.985 . S
C530 C531 1.363 . S
C530 C536 1.379 . S
C530 N538 1.356 . S
C531 C530 1.363 . S
C531 C537 1.363 . S
C532 C533 1.363 . S
C532 C537 1.379 . S
C532 N539 1.356 . S
C533 C532 1.363 . S
C533 C536 1.363 . S
N534 C536 1.356 . S
N534 H546 0.984 . S
N534 H547 0.985 . S
N535 C537 1.356 . S
N535 H540 0.984 . S
N535 H541 0.985 . S
C536 C530 1.379 . S
C536 C533 1.363 . S
C536 N534 1.356 . S
C537 C531 1.363 . S
C537 C532 1.379 . S
C537 N535 1.356 . S
N538 C530 1.356 . S
N538 H544 0.984 . S
N538 H545 0.984 . S
N539 C532 1.356 . S
N539 H542 0.984 . S
N539 H543 0.985 . S
H540 N535 0.984 . S
H541 N535 0.985 . S
H542 N539 0.984 . S
H543 N539 0.985 . S
H544 N538 0.984 . S
H545 N538 0.984 . S
H546 N534 0.984 . S
H547 N534 0.985 . S
C548 C549 1.363 . S
C548 C554 1.379 . S
C548 N556 1.356 1_545 S
C549 C548 1.363 . S
C549 C555 1.363 . S
C550 C551 1.363 . S
C550 C555 1.379 . S
C550 N557 1.356 . S
C551 C550 1.363 . S
C551 C554 1.363 . S
N552 C554 1.356 . S
N552 H564 0.984 . S
N552 H565 0.985 . S
N553 C555 1.356 . S
N553 H558 0.984 . S
N553 H559 0.985 . S
C554 C548 1.379 . S
C554 C551 1.363 . S
C554 N552 1.356 . S
C555 C549 1.363 . S
C555 C550 1.379 . S
C555 N553 1.356 . S
N556 C548 1.356 1_565 S
N556 H562 0.984 . S
N556 H563 0.984 . S
N557 C550 1.356 . S
N557 H560 0.984 . S
N557 H561 0.985 . S
H558 N553 0.984 . S
H559 N553 0.985 . S
H560 N557 0.984 . S
H561 N557 0.985 . S
H562 N556 0.984 . S
H563 N556 0.984 . S
H564 N552 0.984 . S
H565 N552 0.985 . S
C566 C567 1.363 . S
C566 C572 1.379 . S
C566 N574 1.356 1_545 S
C567 C566 1.363 . S
C567 C573 1.363 . S
C568 C569 1.363 . S
C568 C573 1.379 . S
C568 N575 1.356 . S
C569 C568 1.363 . S
C569 C572 1.363 . S
N570 C572 1.356 . S
N570 H582 0.984 . S
N570 H583 0.985 . S
N571 C573 1.356 . S
N571 H576 0.984 . S
N571 H577 0.985 . S
C572 C566 1.379 . S
C572 C569 1.363 . S
C572 N570 1.356 . S
C573 C567 1.363 . S
C573 C568 1.379 . S
C573 N571 1.356 . S
N574 C566 1.356 1_565 S
N574 H580 0.984 . S
N574 H581 0.984 . S
N575 C568 1.356 . S
N575 H578 0.984 . S
N575 H579 0.985 . S
H576 N571 0.984 . S
H577 N571 0.985 . S
H578 N575 0.984 . S
H579 N575 0.985 . S
H580 N574 0.984 . S
H581 N574 0.984 . S
H582 N570 0.984 . S
H583 N570 0.985 . S
C584 C585 1.363 . S
C584 C590 1.379 . S
C584 N592 1.356 . S
C585 C584 1.363 . S
C585 C591 1.363 . S
C586 C587 1.363 . S
C586 C591 1.379 . S
C586 N593 1.356 . S
C587 C586 1.363 . S
C587 C590 1.363 . S
N588 C590 1.356 . S
N588 H600 0.984 . S
N588 H601 0.985 . S
N589 C591 1.356 . S
N589 H594 0.984 . S
N589 H595 0.985 . S
C590 C584 1.379 . S
C590 C587 1.363 . S
C590 N588 1.356 . S
C591 C585 1.363 . S
C591 C586 1.379 . S
C591 N589 1.356 . S
N592 C584 1.356 . S
N592 H598 0.984 1_655 S
N592 H599 0.984 . S
N593 C586 1.356 . S
N593 H596 0.984 . S
N593 H597 0.985 . S
H594 N589 0.984 . S
H595 N589 0.985 . S
H596 N593 0.984 . S
H597 N593 0.985 . S
H598 N592 0.984 1_455 S
H599 N592 0.984 . S
H600 N588 0.984 . S
H601 N588 0.985 . S
C602 C603 1.363 . S
C602 C608 1.379 . S
C602 N610 1.356 . S
C603 C602 1.363 . S
C603 C609 1.363 . S
C604 C605 1.363 . S
C604 C609 1.379 . S
C604 N611 1.356 . S
C605 C604 1.363 . S
C605 C608 1.363 . S
N606 C608 1.356 . S
N606 H618 0.984 . S
N606 H619 0.985 . S
N607 C609 1.356 . S
N607 H612 0.984 1_545 S
N607 H613 0.985 1_545 S
C608 C602 1.379 . S
C608 C605 1.363 . S
C608 N606 1.356 . S
C609 C603 1.363 . S
C609 C604 1.379 . S
C609 N607 1.356 . S
N610 C602 1.356 . S
N610 H616 0.984 . S
N610 H617 0.984 . S
N611 C604 1.356 . S
N611 H614 0.984 . S
N611 H615 0.985 . S
H612 N607 0.984 1_565 S
H613 N607 0.985 1_565 S
H614 N611 0.984 . S
H615 N611 0.985 . S
H616 N610 0.984 . S
H617 N610 0.984 . S
H618 N606 0.984 . S
H619 N606 0.985 . S
C620 C621 1.363 . S
C620 C626 1.379 . S
C620 N628 1.356 . S
C621 C620 1.363 . S
C621 C627 1.363 . S
C622 C623 1.363 . S
C622 C627 1.379 . S
C622 N629 1.356 . S
C623 C622 1.363 . S
C623 C626 1.363 . S
N624 C626 1.356 . S
N624 H636 0.984 . S
N624 H637 0.985 . S
N625 C627 1.356 . S
N625 H630 0.984 . S
N625 H631 0.985 . S
C626 C620 1.379 . S
C626 C623 1.363 . S
C626 N624 1.356 . S
C627 C621 1.363 . S
C627 C622 1.379 . S
C627 N625 1.356 . S
N628 C620 1.356 . S
N628 H634 0.984 . S
N628 H635 0.984 . S
N629 C622 1.356 . S
N629 H632 0.984 1_565 S
N629 H633 0.985 1_565 S
H630 N625 0.984 . S
H631 N625 0.985 . S
H632 N629 0.984 1_545 S
H633 N629 0.985 1_545 S
H634 N628 0.984 . S
H635 N628 0.984 . S
H636 N624 0.984 . S
H637 N624 0.985 . S
C638 C639 1.363 . S
C638 C644 1.379 . S
C638 N646 1.356 . S
C639 C638 1.363 . S
C639 C645 1.363 . S
C640 C641 1.363 . S
C640 C645 1.379 . S
C640 N647 1.356 . S
C641 C640 1.363 . S
C641 C644 1.363 . S
N642 C644 1.356 . S
N642 H654 0.984 1_565 S
N642 H655 0.985 . S
N643 C645 1.356 . S
N643 H648 0.984 . S
N643 H649 0.985 . S
C644 C638 1.379 . S
C644 C641 1.363 . S
C644 N642 1.356 . S
C645 C639 1.363 . S
C645 C640 1.379 . S
C645 N643 1.356 . S
N646 C638 1.356 . S
N646 H652 0.984 . S
N646 H653 0.984 . S
N647 C640 1.356 . S
N647 H650 0.984 . S
N647 H651 0.985 1_655 S
H648 N643 0.984 . S
H649 N643 0.985 . S
H650 N647 0.984 . S
H651 N647 0.985 1_455 S
H652 N646 0.984 . S
H653 N646 0.984 . S
H654 N642 0.984 1_545 S
H655 N642 0.985 . S
C656 C657 1.363 . S
C656 C662 1.379 . S
C656 N664 1.356 . S
C657 C656 1.363 . S
C657 C663 1.363 . S
C658 C659 1.363 . S
C658 C663 1.379 . S
C658 N665 1.356 . S
C659 C658 1.363 . S
C659 C662 1.363 . S
N660 C662 1.356 . S
N660 H672 0.984 . S
N660 H673 0.985 . S
N661 C663 1.356 . S
N661 H666 0.984 . S
N661 H667 0.985 . S
C662 C656 1.379 . S
C662 C659 1.363 . S
C662 N660 1.356 . S
C663 C657 1.363 . S
C663 C658 1.379 . S
C663 N661 1.356 . S
N664 C656 1.356 . S
N664 H670 0.984 . S
N664 H671 0.984 . S
N665 C658 1.356 . S
N665 H668 0.984 . S
N665 H669 0.985 . S
H666 N661 0.984 . S
H667 N661 0.985 . S
H668 N665 0.984 . S
H669 N665 0.985 . S
H670 N664 0.984 . S
H671 N664 0.984 . S
H672 N660 0.984 . S
H673 N660 0.985 . S
C674 C675 1.363 . S
C674 C680 1.379 . S
C674 N682 1.356 . S
C675 C674 1.363 . S
C675 C681 1.363 . S
C676 C677 1.363 . S
C676 C681 1.379 . S
C676 N683 1.356 . S
C677 C676 1.363 . S
C677 C680 1.363 . S
N678 C680 1.356 . S
N678 H690 0.984 . S
N678 H691 0.985 . S
N679 C681 1.356 . S
N679 H684 0.984 . S
N679 H685 0.985 . S
C680 C674 1.379 . S
C680 C677 1.363 . S
C680 N678 1.356 . S
C681 C675 1.363 . S
C681 C676 1.379 . S
C681 N679 1.356 . S
N682 C674 1.356 . S
N682 H688 0.984 . S
N682 H689 0.984 . S
N683 C676 1.356 . S
N683 H686 0.984 . S
N683 H687 0.985 . S
H684 N679 0.984 . S
H685 N679 0.985 . S
H686 N683 0.984 . S
H687 N683 0.985 . S
H688 N682 0.984 . S
H689 N682 0.984 . S
H690 N678 0.984 . S
H691 N678 0.985 . S
C692 C693 1.363 . S
C692 C698 1.379 . S
C692 N700 1.356 . S
C693 C692 1.363 . S
C693 C699 1.363 . S
C694 C695 1.363 . S
C694 C699 1.379 . S
C694 N701 1.356 . S
C695 C694 1.363 . S
C695 C698 1.363 . S
N696 C698 1.356 . S
N696 H708 0.984 . S
N696 H709 0.985 . S
N697 C699 1.356 . S
N697 H702 0.984 . S
N697 H703 0.985 . S
C698 C692 1.379 . S
C698 C695 1.363 . S
C698 N696 1.356 . S
C699 C693 1.363 . S
C699 C694 1.379 . S
C699 N697 1.356 . S
N700 C692 1.356 . S
N700 H706 0.984 . S
N700 H707 0.984 . S
N701 C694 1.356 . S
N701 H704 0.984 . S
N701 H705 0.985 . S
H702 N697 0.984 . S
H703 N697 0.985 . S
H704 N701 0.984 . S
H705 N701 0.985 . S
H706 N700 0.984 . S
H707 N700 0.984 . S
H708 N696 0.984 . S
H709 N696 0.985 . S
C710 C711 1.363 . S
C710 C716 1.379 . S
C710 N718 1.356 . S
C711 C710 1.363 . S
C711 C717 1.363 . S
C712 C713 1.363 . S
C712 C717 1.379 . S
C712 N719 1.356 . S
C713 C712 1.363 . S
C713 C716 1.363 . S
N714 C716 1.356 . S
N714 H726 0.984 . S
N714 H727 0.985 . S
N715 C717 1.356 . S
N715 H720 0.984 . S
N715 H721 0.985 . S
C716 C710 1.379 . S
C716 C713 1.363 . S
C716 N714 1.356 . S
C717 C711 1.363 . S
C717 C712 1.379 . S
C717 N715 1.356 . S
N718 C710 1.356 . S
N718 H724 0.984 . S
N718 H725 0.984 . S
N719 C712 1.356 . S
N719 H722 0.984 . S
N719 H723 0.985 . S
H720 N715 0.984 . S
H721 N715 0.985 . S
H722 N719 0.984 . S
H723 N719 0.985 . S
H724 N718 0.984 . S
H725 N718 0.984 . S
H726 N714 0.984 . S
H727 N714 0.985 . S
C728 C729 1.363 . S
C728 C734 1.379 . S
C728 N736 1.356 . S
C729 C728 1.363 . S
C729 C735 1.363 . S
C730 C731 1.363 . S
C730 C735 1.379 . S
C730 N737 1.356 . S
C731 C730 1.363 . S
C731 C734 1.363 . S
N732 C734 1.356 . S
N732 H744 0.984 . S
N732 H745 0.985 . S
N733 C735 1.356 . S
N733 H738 0.984 . S
N733 H739 0.985 . S
C734 C728 1.379 . S
C734 C731 1.363 . S
C734 N732 1.356 . S
C735 C729 1.363 . S
C735 C730 1.379 . S
C735 N733 1.356 . S
N736 C728 1.356 . S
N736 H742 0.984 . S
N736 H743 0.984 . S
N737 C730 1.356 . S
N737 H740 0.984 . S
N737 H741 0.985 . S
H738 N733 0.984 . S
H739 N733 0.985 . S
H740 N737 0.984 . S
H741 N737 0.985 . S
H742 N736 0.984 . S
H743 N736 0.984 . S
H744 N732 0.984 . S
H745 N732 0.985 . S
C746 C747 1.363 . S
C746 C752 1.379 . S
C746 N754 1.356 . S
C747 C746 1.363 . S
C747 C753 1.363 . S
C748 C749 1.363 . S
C748 C753 1.379 . S
C748 N755 1.356 . S
C749 C748 1.363 . S
C749 C752 1.363 . S
N750 C752 1.356 . S
N750 H762 0.984 . S
N750 H763 0.985 . S
N751 C753 1.356 . S
N751 H756 0.984 . S
N751 H757 0.985 . S
C752 C746 1.379 . S
C752 C749 1.363 . S
C752 N750 1.356 . S
C753 C747 1.363 . S
C753 C748 1.379 . S
C753 N751 1.356 . S
N754 C746 1.356 . S
N754 H760 0.984 . S
N754 H761 0.984 . S
N755 C748 1.356 . S
N755 H758 0.984 . S
N755 H759 0.985 . S
H756 N751 0.984 . S
H757 N751 0.985 . S
H758 N755 0.984 . S
H759 N755 0.985 . S
H760 N754 0.984 . S
H761 N754 0.984 . S
H762 N750 0.984 . S
H763 N750 0.985 . S
C764 C765 1.363 . S
C764 C770 1.379 . S
C764 N772 1.356 . S
C765 C764 1.363 . S
C765 C771 1.363 . S
C766 C767 1.363 . S
C766 C771 1.379 . S
C766 N773 1.356 . S
C767 C766 1.363 . S
C767 C770 1.363 . S
N768 C770 1.356 . S
N768 H780 0.984 . S
N768 H781 0.985 . S
N769 C771 1.356 . S
N769 H774 0.984 . S
N769 H775 0.985 . S
C770 C764 1.379 . S
C770 C767 1.363 . S
C770 N768 1.356 . S
C771 C765 1.363 . S
C771 C766 1.379 . S
C771 N769 1.356 . S
N772 C764 1.356 . S
N772 H778 0.984 . S
N772 H779 0.984 . S
N773 C766 1.356 . S
N773 H776 0.984 . S
N773 H777 0.985 . S
H774 N769 0.984 . S
H775 N769 0.985 . S
H776 N773 0.984 . S
H777 N773 0.985 . S
H778 N772 0.984 . S
H779 N772 0.984 . S
H780 N768 0.984 . S
H781 N768 0.985 . S
C782 C783 1.363 . S
C782 C788 1.379 . S
C782 N790 1.356 . S
C783 C782 1.363 . S
C783 C789 1.363 . S
C784 C785 1.363 . S
C784 C789 1.379 . S
C784 N791 1.356 . S
C785 C784 1.363 . S
C785 C788 1.363 . S
N786 C788 1.356 . S
N786 H798 0.984 . S
N786 H799 0.985 . S
N787 C789 1.356 . S
N787 H792 0.984 . S
N787 H793 0.985 . S
C788 C782 1.379 . S
C788 C785 1.363 . S
C788 N786 1.356 . S
C789 C783 1.363 . S
C789 C784 1.379 . S
C789 N787 1.356 . S
N790 C782 1.356 . S
N790 H796 0.984 . S
N790 H797 0.984 . S
N791 C784 1.356 . S
N791 H794 0.984 . S
N791 H795 0.985 . S
H792 N787 0.984 . S
H793 N787 0.985 . S
H794 N791 0.984 . S
H795 N791 0.985 . S
H796 N790 0.984 . S
H797 N790 0.984 . S
H798 N786 0.984 . S
H799 N786 0.985 . S
C225 C8 1.403 . S
C227 C190 1.403 . S
C243 C162 1.403 . S
C245 C22 1.403 . S
C261 C176 1.403 . S
C263 C36 1.403 . S
C279 C148 1.403 . S
C281 C50 1.403 . S
C297 C64 1.403 . S
C299 C218 1.403 . S
C315 C78 1.403 . S
C317 C134 1.403 . S
C333 C204 1.403 . S
C335 C92 1.403 . S
C351 C106 1.403 . S
C353 C120 1.403 . S
C369 C63 1.554 . S
C371 C7 1.554 . S
C387 C21 1.554 . S
C389 C77 1.554 . S
C405 C35 1.554 . S
C407 C91 1.554 . S
C423 C105 1.554 . S
C425 C49 1.554 . S
C441 C119 1.554 . S
C443 C147 1.554 . S
C459 C133 1.554 . S
C461 C161 1.554 . S
C477 C203 1.554 . S
C479 C175 1.554 . S
C495 C189 1.554 . S
C497 C217 1.554 . S
C513 C73 1.519 . S
C515 C3 1.519 . S
C531 C17 1.519 . S
C533 C87 1.519 . S
C549 C31 1.519 . S
C551 C101 1.519 . S
C567 C59 1.519 . S
C569 C45 1.519 . S
C585 C65 1.315 . S
C587 C149 1.315 . S
C603 C37 1.315 . S
C605 C121 1.315 . S
C621 C163 1.315 . S
C623 C93 1.315 . S
C639 C135 1.315 . S
C641 C9 1.315 . S
C657 C115 1.519 . S
C659 C171 1.519 . S
C675 C143 1.519 . S
C677 C213 1.519 . S
C693 C185 1.519 . S
C695 C129 1.519 . S
C711 C157 1.519 . S
C713 C199 1.519 . S
C729 C205 1.315 . S
C731 C23 1.315 . S
C747 C191 1.315 . S
C749 C79 1.315 . S
C765 C219 1.315 . S
C767 C51 1.315 . S
C783 C177 1.315 . S
C785 C107 1.315 . S
