# Generated by pormake.
# Topology why, (6)-cn, num edge types: 1
# Building blocks:
#     Node 0, Type 0, BuildingBlock: CUWYAW_clean_sbu_0, # of connection points: 6
#     Node 1, Type 0, BuildingBlock: CUWYAW_clean_sbu_0, # of connection points: 6
#     Node 2, Type 0, BuildingBlock: CUWYAW_clean_sbu_0, # of connection points: 6
#     Node 3, Type 0, BuildingBlock: CUWYAW_clean_sbu_0, # of connection points: 6
#     Node 4, Type 0, BuildingBlock: CUWYAW_clean_sbu_0, # of connection points: 6
#     Node 5, Type 0, BuildingBlock: CUWYAW_clean_sbu_0, # of connection points: 6
#     Node 6, Type 0, BuildingBlock: CUWYAW_clean_sbu_0, # of connection points: 6
#     Node 7, Type 0, BuildingBlock: CUWYAW_clean_sbu_0, # of connection points: 6
#     Node 8, Type 0, BuildingBlock: CUWYAW_clean_sbu_0, # of connection points: 6
#     Node 9, Type 0, BuildingBlock: CUWYAW_clean_sbu_0, # of connection points: 6
#     Node 10, Type 0, BuildingBlock: CUWYAW_clean_sbu_0, # of connection points: 6
#     Node 11, Type 0, BuildingBlock: CUWYAW_clean_sbu_0, # of connection points: 6
#     Node 12, Type 0, BuildingBlock: CUWYAW_clean_sbu_0, # of connection points: 6
#     Node 13, Type 0, BuildingBlock: CUWYAW_clean_sbu_0, # of connection points: 6
#     Node 14, Type 0, BuildingBlock: CUWYAW_clean_sbu_0, # of connection points: 6
#     Node 15, Type 0, BuildingBlock: CUWYAW_clean_sbu_0, # of connection points: 6
#     Edge 16, Type (0, 0), BuildingBlock: XIVTED_clean_linker_0, # of connection points: 2
#     Edge 17, Type (0, 0), BuildingBlock: XIVTED_clean_linker_0, # of connection points: 2
#     Edge 18, Type (0, 0), BuildingBlock: XIVTED_clean_linker_0, # of connection points: 2
#     Edge 19, Type (0, 0), BuildingBlock: XIVTED_clean_linker_0, # of connection points: 2
#     Edge 20, Type (0, 0), BuildingBlock: XIVTED_clean_linker_0, # of connection points: 2
#     Edge 21, Type (0, 0), BuildingBlock: XIVTED_clean_linker_0, # of connection points: 2
#     Edge 22, Type (0, 0), BuildingBlock: XIVTED_clean_linker_0, # of connection points: 2
#     Edge 23, Type (0, 0), BuildingBlock: XIVTED_clean_linker_0, # of connection points: 2
#     Edge 24, Type (0, 0), BuildingBlock: XIVTED_clean_linker_0, # of connection points: 2
#     Edge 25, Type (0, 0), BuildingBlock: XIVTED_clean_linker_0, # of connection points: 2
#     Edge 26, Type (0, 0), BuildingBlock: XIVTED_clean_linker_0, # of connection points: 2
#     Edge 27, Type (0, 0), BuildingBlock: XIVTED_clean_linker_0, # of connection points: 2
#     Edge 28, Type (0, 0), BuildingBlock: XIVTED_clean_linker_0, # of connection points: 2
#     Edge 29, Type (0, 0), BuildingBlock: XIVTED_clean_linker_0, # of connection points: 2
#     Edge 30, Type (0, 0), BuildingBlock: XIVTED_clean_linker_0, # of connection points: 2
#     Edge 31, Type (0, 0), BuildingBlock: XIVTED_clean_linker_0, # of connection points: 2
#     Edge 32, Type (0, 0), BuildingBlock: XIVTED_clean_linker_0, # of connection points: 2
#     Edge 33, Type (0, 0), BuildingBlock: XIVTED_clean_linker_0, # of connection points: 2
#     Edge 34, Type (0, 0), BuildingBlock: XIVTED_clean_linker_0, # of connection points: 2
#     Edge 35, Type (0, 0), BuildingBlock: XIVTED_clean_linker_0, # of connection points: 2
#     Edge 36, Type (0, 0), BuildingBlock: XIVTED_clean_linker_0, # of connection points: 2
#     Edge 37, Type (0, 0), BuildingBlock: XIVTED_clean_linker_0, # of connection points: 2
#     Edge 38, Type (0, 0), BuildingBlock: XIVTED_clean_linker_0, # of connection points: 2
#     Edge 39, Type (0, 0), BuildingBlock: XIVTED_clean_linker_0, # of connection points: 2
#     Edge 40, Type (0, 0), BuildingBlock: XIVTED_clean_linker_0, # of connection points: 2
#     Edge 41, Type (0, 0), BuildingBlock: XIVTED_clean_linker_0, # of connection points: 2
#     Edge 42, Type (0, 0), BuildingBlock: XIVTED_clean_linker_0, # of connection points: 2
#     Edge 43, Type (0, 0), BuildingBlock: XIVTED_clean_linker_0, # of connection points: 2
#     Edge 44, Type (0, 0), BuildingBlock: XIVTED_clean_linker_0, # of connection points: 2
#     Edge 45, Type (0, 0), BuildingBlock: XIVTED_clean_linker_0, # of connection points: 2
#     Edge 46, Type (0, 0), BuildingBlock: XIVTED_clean_linker_0, # of connection points: 2
#     Edge 47, Type (0, 0), BuildingBlock: XIVTED_clean_linker_0, # of connection points: 2
#     Edge 48, Type (0, 0), BuildingBlock: XIVTED_clean_linker_0, # of connection points: 2
#     Edge 49, Type (0, 0), BuildingBlock: XIVTED_clean_linker_0, # of connection points: 2
#     Edge 50, Type (0, 0), BuildingBlock: XIVTED_clean_linker_0, # of connection points: 2
#     Edge 51, Type (0, 0), BuildingBlock: XIVTED_clean_linker_0, # of connection points: 2
#     Edge 52, Type (0, 0), BuildingBlock: XIVTED_clean_linker_0, # of connection points: 2
#     Edge 53, Type (0, 0), BuildingBlock: XIVTED_clean_linker_0, # of connection points: 2
#     Edge 54, Type (0, 0), BuildingBlock: XIVTED_clean_linker_0, # of connection points: 2
#     Edge 55, Type (0, 0), BuildingBlock: XIVTED_clean_linker_0, # of connection points: 2
#     Edge 56, Type (0, 0), BuildingBlock: XIVTED_clean_linker_0, # of connection points: 2
#     Edge 57, Type (0, 0), BuildingBlock: XIVTED_clean_linker_0, # of connection points: 2
#     Edge 58, Type (0, 0), BuildingBlock: XIVTED_clean_linker_0, # of connection points: 2
#     Edge 59, Type (0, 0), BuildingBlock: XIVTED_clean_linker_0, # of connection points: 2
#     Edge 60, Type (0, 0), BuildingBlock: XIVTED_clean_linker_0, # of connection points: 2
#     Edge 61, Type (0, 0), BuildingBlock: XIVTED_clean_linker_0, # of connection points: 2
#     Edge 62, Type (0, 0), BuildingBlock: XIVTED_clean_linker_0, # of connection points: 2
#     Edge 63, Type (0, 0), BuildingBlock: XIVTED_clean_linker_0, # of connection points: 2
# Relax obj value: 0.418
# Max RMSD: 0.235
# Mean RMSD: 0.235
data_MOF--net-why--node1-CUWYAW_clean_sbu_0--edge1-XIVTED_clean_linker_0
_symmetry_space_group_name_H-M    P1
_symmetry_Int_Tables_number       1
_symmetry_cell_setting            triclinic
loop_
_symmetry_equiv_pos_as_xyz
'x, y, z'
_cell_length_a     50.318078
_cell_length_b     48.878515
_cell_length_c     39.307491
_cell_angle_alpha  90.407587
_cell_angle_beta   89.992742
_cell_angle_gamma 90.533657
loop_
_atom_site_label
_atom_site_type_symbol
_atom_site_fract_x
_atom_site_fract_y
_atom_site_fract_z
_atom_type_partial_charge
C0 C 0.41241 0.25813 0.16263 0.0
Eu1 Eu 0.4385 0.244 0.10853 0.0
C2 C 0.3839 0.26292 0.16648 0.0
C3 C 0.36803 0.26603 0.13742 0.0
C4 C 0.34047 0.2672 0.14026 0.0
C5 C 0.32825 0.26531 0.17227 0.0
C6 C 0.34426 0.26228 0.2014 0.0
C7 C 0.37189 0.26097 0.19847 0.0
C8 C 0.43622 0.26994 0.04848 0.0
C9 C 0.40185 0.21929 0.04415 0.0
C10 C 0.49566 0.1885 0.01897 0.0
Eu11 Eu 0.465 0.21375 0.06227 0.0
C12 C 0.5125 0.19458 0.98941 0.0
C13 C 0.51245 0.1759 0.96223 0.0
C14 C 0.52613 0.18188 0.93233 0.0
C15 C 0.54027 0.20663 0.92909 0.0
C16 C 0.54083 0.22514 0.95666 0.0
C17 C 0.52682 0.21926 0.98659 0.0
C18 C 0.4506 0.18079 0.11889 0.0
C19 C 0.4991 0.26806 0.09571 0.0
O20 O 0.41813 0.23275 0.15515 0.0
O21 O 0.42562 0.27574 0.14404 0.0
O22 O 0.4168 0.26952 0.07011 0.0
O23 O 0.4563 0.25773 0.05968 0.0
O24 O 0.40149 0.22658 0.0771 0.0
O25 O 0.42571 0.21504 0.03082 0.0
O26 O 0.47032 0.19232 0.01425 0.0
O27 O 0.50374 0.19672 0.04903 0.0
O28 O 0.44559 0.17572 0.08728 0.0
O29 O 0.46111 0.20476 0.11936 0.0
O30 O 0.4981 0.2484 0.07163 0.0
O31 O 0.47814 0.2693 0.11656 0.0
H32 H 0.3769 0.26706 0.11241 0.0
H33 H 0.32872 0.26935 0.11736 0.0
H34 H 0.33547 0.26132 0.22652 0.0
H35 H 0.38384 0.25811 0.22108 0.0
H36 H 0.50137 0.15684 0.96391 0.0
H37 H 0.52568 0.16707 0.91168 0.0
H38 H 0.55152 0.24441 0.95474 0.0
H39 H 0.52678 0.23413 0.00716 0.0
C40 C 0.65887 0.68029 0.41071 0.0
Eu41 Eu 0.67447 0.70877 0.35859 0.0
C42 C 0.64268 0.68693 0.44094 0.0
C43 C 0.61577 0.67924 0.44185 0.0
C44 C 0.6002 0.68552 0.4701 0.0
C45 C 0.61122 0.69947 0.49826 0.0
C46 C 0.63808 0.70744 0.49727 0.0
C47 C 0.65367 0.70127 0.46887 0.0
C48 C 0.64531 0.72065 0.30309 0.0
C49 C 0.69906 0.67228 0.29433 0.0
C50 C 0.73177 0.7705 0.27898 0.0
Eu51 Eu 0.70535 0.73697 0.31813 0.0
C52 C 0.72873 0.78506 0.24666 0.0
C53 C 0.74821 0.78179 0.22153 0.0
C54 C 0.74626 0.79558 0.19073 0.0
C55 C 0.72486 0.81316 0.18457 0.0
C56 C 0.70521 0.81626 0.20976 0.0
C57 C 0.70708 0.80226 0.24052 0.0
C58 C 0.73609 0.72203 0.37521 0.0
C59 C 0.65232 0.77092 0.34995 0.0
O60 O 0.64658 0.67987 0.38151 0.0
O61 O 0.68221 0.69205 0.40878 0.0
O62 O 0.6356 0.71941 0.33368 0.0
O63 O 0.66955 0.71418 0.30249 0.0
O64 O 0.68902 0.67091 0.32574 0.0
O65 O 0.70527 0.69741 0.28366 0.0
O66 O 0.73343 0.74397 0.27684 0.0
O67 O 0.71736 0.77849 0.30476 0.0
O68 O 0.7417 0.71781 0.34364 0.0
O69 O 0.71243 0.73199 0.37543 0.0
O70 O 0.67177 0.77063 0.32669 0.0
O71 O 0.65102 0.74905 0.36995 0.0
H72 H 0.60679 0.66805 0.42085 0.0
H73 H 0.57976 0.67839 0.47041 0.0
H74 H 0.64712 0.71807 0.51866 0.0
H75 H 0.67438 0.70752 0.46898 0.0
H76 H 0.76502 0.76852 0.22575 0.0
H77 H 0.76146 0.79229 0.17167 0.0
H78 H 0.68863 0.82987 0.20598 0.0
H79 H 0.69171 0.80507 0.2595 0.0
C80 C 0.23574 0.93736 0.66279 0.0
Eu81 Eu 0.21108 0.94759 0.60648 0.0
C82 C 0.26413 0.9347 0.67126 0.0
C83 C 0.27892 0.91227 0.65978 0.0
C84 C 0.30618 0.91118 0.666 0.0
C85 C 0.31929 0.93261 0.68353 0.0
C86 C 0.30443 0.95508 0.69486 0.0
C87 C 0.27711 0.956 0.68901 0.0
C88 C 0.21458 0.91971 0.54763 0.0
C89 C 0.24773 0.9711 0.54155 0.0
C90 C 0.15256 0.99819 0.51466 0.0
Eu91 Eu 0.18438 0.97578 0.5585 0.0
C92 C 0.13469 0.98906 0.48723 0.0
C93 C 0.11396 1.00603 0.477 0.0
C94 C 0.09837 0.99894 0.44884 0.0
C95 C 0.10339 0.97479 0.43031 0.0
C96 C 0.12375 0.95742 0.44126 0.0
C97 C 0.1392 0.96444 0.46961 0.0
C98 C 0.19813 1.01053 0.61421 0.0
C99 C 0.15096 0.92201 0.59313 0.0
O100 O 0.2288 0.96194 0.6536 0.0
O101 O 0.22464 0.91811 0.64406 0.0
O102 O 0.2338 0.92115 0.56965 0.0
O103 O 0.19411 0.93191 0.558 0.0
O104 O 0.24805 0.96461 0.57471 0.0
O105 O 0.2239 0.97459 0.52782 0.0
O106 O 0.17784 0.99421 0.50924 0.0
O107 O 0.14542 0.99246 0.54581 0.0
O108 O 0.20324 1.01485 0.5825 0.0
O109 O 0.18773 0.98657 0.61516 0.0
O110 O 0.15196 0.94081 0.5684 0.0
O111 O 0.17171 0.92177 0.61439 0.0
H112 H 0.26953 0.89556 0.64594 0.0
H113 H 0.3168 0.89316 0.65773 0.0
H114 H 0.31385 0.97198 0.7083 0.0
H115 H 0.26616 0.97363 0.69798 0.0
H116 H 0.11028 1.02514 0.49025 0.0
H117 H 0.083 1.01286 0.44082 0.0
H118 H 0.12787 0.93855 0.42772 0.0
H119 H 0.15509 0.951 0.47726 0.0
C120 C 0.98395 0.51525 0.90311 0.0
Eu121 Eu 0.97456 0.47891 0.85594 0.0
C122 C 0.9862 0.5454 0.90261 0.0
C123 C 1.01046 0.55826 0.89475 0.0
C124 C 1.01254 0.58672 0.89476 0.0
C125 C 0.99043 0.60301 0.90272 0.0
C126 C 0.96595 0.59015 0.90952 0.0
C127 C 0.96389 0.56164 0.9096 0.0
C128 C 1.00512 0.46967 0.80068 0.0
C129 C 0.95055 0.51599 0.79099 0.0
C130 C 0.92175 0.41667 0.77291 0.0
Eu131 Eu 0.94506 0.45161 0.81382 0.0
C132 C 0.92913 0.4017 0.74189 0.0
C133 C 0.91119 0.40076 0.71467 0.0
C134 C 0.91811 0.38781 0.68427 0.0
C135 C 0.94304 0.37542 0.68071 0.0
C136 C 0.96097 0.37619 0.7081 0.0
C137 C 0.95414 0.38943 0.73843 0.0
C138 C 0.91314 0.46483 0.87079 0.0
C139 C 0.99734 0.41799 0.84725 0.0
O140 O 0.96034 0.50517 0.89677 0.0
O141 O 1.00273 0.50134 0.88816 0.0
O142 O 1.01437 0.47043 0.83155 0.0
O143 O 0.9807 0.47537 0.79989 0.0
O144 O 0.96324 0.51652 0.82086 0.0
O145 O 0.94189 0.49142 0.78089 0.0
O146 O 0.92 0.44309 0.76974 0.0
O147 O 0.9335 0.40967 0.80111 0.0
O148 O 0.908 0.4697 0.83929 0.0
O149 O 0.93685 0.455 0.87121 0.0
O150 O 0.98052 0.42002 0.82104 0.0
O151 O 0.99584 0.43813 0.87016 0.0
H152 H 1.02803 0.54638 0.88926 0.0
H153 H 1.03189 0.59586 0.89025 0.0
H154 H 0.94857 0.6021 0.91572 0.0
H155 H 0.94486 0.55233 0.91565 0.0
H156 H 0.89187 0.41023 0.71686 0.0
H157 H 0.90381 0.38718 0.66366 0.0
H158 H 0.98035 0.36689 0.70586 0.0
H159 H 0.96846 0.39023 0.75899 0.0
C160 C 0.65334 0.99427 0.99858 0.0
Eu161 Eu 0.68372 0.97014 0.95405 0.0
C162 C 0.63598 0.98754 0.02739 0.0
C163 C 0.6363 1.00504 0.05573 0.0
C164 C 0.6218 0.99847 0.08478 0.0
C165 C 0.60655 0.97428 0.08597 0.0
C166 C 0.60575 0.95696 0.05724 0.0
C167 C 0.62059 0.96343 0.02817 0.0
C168 C 0.69723 1.00435 0.89828 0.0
C169 C 0.64945 0.91605 0.92039 0.0
C170 C 0.73309 0.92992 0.8485 0.0
Eu171 Eu 0.70958 0.94108 0.90558 0.0
C172 C 0.76127 0.9284 0.83868 0.0
C173 C 0.77847 0.90956 0.85372 0.0
C174 C 0.80561 0.91034 0.84636 0.0
C175 C 0.81616 0.93018 0.82419 0.0
C176 C 0.79883 0.94905 0.80931 0.0
C177 C 0.77167 0.948 0.81627 0.0
C178 C 0.71343 0.91406 0.96451 0.0
C179 C 0.74723 0.96519 0.96957 0.0
O180 O 0.67854 0.98956 1.00341 0.0
O181 O 0.64533 0.98753 0.96794 0.0
O182 O 0.7028 1.00873 0.9299 0.0
O183 O 0.68663 0.98045 0.89731 0.0
O184 O 0.6508 0.93531 0.94491 0.0
O185 O 0.66999 0.91533 0.89878 0.0
O186 O 0.7254 0.95446 0.85719 0.0
O187 O 0.72345 0.9109 0.86847 0.0
O188 O 0.73252 0.91504 0.94227 0.0
O189 O 0.69298 0.92623 0.95427 0.0
O190 O 0.74704 0.95845 0.93636 0.0
O191 O 0.72362 0.96883 0.9839 0.0
H192 H 0.64817 1.02367 0.0556 0.0
H193 H 0.62245 1.01239 0.10635 0.0
H194 H 0.59421 0.93815 0.0576 0.0
H195 H 0.62034 0.94948 0.00663 0.0
H196 H 0.77108 0.89436 0.87136 0.0
H197 H 0.81821 0.89502 0.85763 0.0
H198 H 0.80622 0.96476 0.79239 0.0
H199 H 0.75881 0.96296 0.80468 0.0
C200 C 0.41701 0.41257 0.73407 0.0
Eu201 Eu 0.4432 0.44724 0.69626 0.0
C202 C 0.4203 0.39699 0.76554 0.0
C203 C 0.4006 0.39889 0.79058 0.0
C204 C 0.40289 0.38438 0.82078 0.0
C205 C 0.42484 0.36741 0.82639 0.0
C206 C 0.44471 0.36566 0.80128 0.0
C207 C 0.4425 0.38042 0.7711 0.0
C208 C 0.41187 0.46131 0.63919 0.0
C209 C 0.49551 0.41309 0.6643 0.0
C210 C 0.485 0.51057 0.61061 0.0
Eu211 Eu 0.47299 0.47416 0.65618 0.0
C212 C 0.49222 0.53954 0.61396 0.0
C213 C 0.50232 0.54993 0.6448 0.0
C214 C 0.50867 0.57769 0.64809 0.0
C215 C 0.50497 0.59545 0.62059 0.0
C216 C 0.49408 0.58499 0.59009 0.0
C217 C 0.48772 0.55726 0.58686 0.0
C218 C 0.50327 0.46468 0.71156 0.0
C219 C 0.44913 0.5111 0.72168 0.0
O220 O 0.41556 0.43902 0.73765 0.0
O221 O 0.43112 0.40535 0.70768 0.0
O222 O 0.40708 0.46683 0.67069 0.0
O223 O 0.43537 0.45098 0.63863 0.0
O224 O 0.47843 0.41523 0.6902 0.0
O225 O 0.49404 0.4331 0.64157 0.0
O226 O 0.46064 0.50462 0.61938 0.0
O227 O 0.50209 0.49313 0.62246 0.0
O228 O 0.51264 0.46607 0.68088 0.0
O229 O 0.47884 0.47024 0.71239 0.0
O230 O 0.46109 0.51187 0.6914 0.0
O231 O 0.44119 0.4863 0.73146 0.0
H232 H 0.38341 0.41172 0.78681 0.0
H233 H 0.38753 0.38668 0.83986 0.0
H234 H 0.46175 0.35259 0.80469 0.0
H235 H 0.45805 0.37874 0.75216 0.0
H236 H 0.50556 0.53654 0.66621 0.0
H237 H 0.51692 0.58515 0.67189 0.0
H238 H 0.4915 0.59799 0.56816 0.0
H239 H 0.47962 0.54958 0.56306 0.0
C240 C 0.99431 0.18485 0.4995 0.0
Eu241 Eu 0.96335 0.20822 0.45515 0.0
C242 C 1.00847 0.19234 0.53108 0.0
C243 C 1.02293 0.21698 0.53413 0.0
C244 C 1.03681 0.22314 0.56411 0.0
C245 C 1.0362 0.20494 0.59167 0.0
C246 C 1.02126 0.18059 0.58871 0.0
C247 C 1.00761 0.17433 0.55866 0.0
C248 C 0.94962 0.17548 0.39804 0.0
C249 C 0.99823 0.2611 0.42091 0.0
C250 C 0.91156 0.25457 0.3555 0.0
Eu251 Eu 0.93687 0.23962 0.40983 0.0
C252 C 0.91844 0.27269 0.32683 0.0
C253 C 0.91329 0.30083 0.32882 0.0
C254 C 0.91943 0.31787 0.3016 0.0
C255 C 0.93076 0.30718 0.27166 0.0
C256 C 0.9365 0.27914 0.26995 0.0
C257 C 0.93034 0.26205 0.29723 0.0
C258 C 0.94905 0.27034 0.46469 0.0
C259 C 0.89939 0.21564 0.47342 0.0
O260 O 0.96844 0.18407 0.50122 0.0
O261 O 1.00286 0.19579 0.47128 0.0
O262 O 0.94621 0.16948 0.42967 0.0
O263 O 0.95922 0.19998 0.39774 0.0
O264 O 0.997 0.2419 0.44503 0.0
O265 O 0.97728 0.26258 0.40021 0.0
O266 O 0.90818 0.26613 0.38522 0.0
O267 O 0.92482 0.23179 0.35747 0.0
O268 O 0.94834 0.2801 0.43401 0.0
O269 O 0.94139 0.24572 0.46538 0.0
O270 O 0.89924 0.22514 0.44155 0.0
O271 O 0.92322 0.2093 0.48599 0.0
H272 H 1.02367 0.23139 0.51332 0.0
H273 H 1.04794 0.24217 0.56581 0.0
H274 H 1.02064 0.16603 0.60935 0.0
H275 H 0.99655 0.15525 0.55683 0.0
H276 H 0.90404 0.30967 0.35117 0.0
H277 H 0.91407 0.33924 0.30349 0.0
H278 H 0.94519 0.27031 0.24723 0.0
H279 H 0.93458 0.24043 0.29491 0.0
C280 C 0.22953 0.76536 0.23844 0.0
Eu281 Eu 0.20339 0.73179 0.19847 0.0
C282 C 0.22599 0.78129 0.26991 0.0
C283 C 0.24463 0.77839 0.29605 0.0
C284 C 0.24235 0.79358 0.32602 0.0
C285 C 0.22148 0.8122 0.33031 0.0
C286 C 0.20259 0.81486 0.30416 0.0
C287 C 0.20478 0.79947 0.2742 0.0
C288 C 0.23498 0.71621 0.14208 0.0
C289 C 0.15071 0.766 0.16666 0.0
C290 C 0.15599 0.67627 0.10403 0.0
Eu291 Eu 0.17281 0.70372 0.15682 0.0
C292 C 0.1357 0.68326 0.07893 0.0
C293 C 0.1167 0.70325 0.08655 0.0
C294 C 0.09816 0.71097 0.06212 0.0
C295 C 0.09829 0.69877 0.02967 0.0
C296 C 0.11771 0.67903 0.02205 0.0
C297 C 0.13631 0.67143 0.04648 0.0
C298 C 0.14303 0.7159 0.21194 0.0
C299 C 0.19738 0.66705 0.22029 0.0
O300 O 0.22972 0.73886 0.24169 0.0
O301 O 0.21668 0.77315 0.21138 0.0
O302 O 0.24009 0.71236 0.17378 0.0
O303 O 0.21138 0.72622 0.14125 0.0
O304 O 0.17001 0.76574 0.19012 0.0
O305 O 0.14939 0.74401 0.14658 0.0
O306 O 0.14752 0.67171 0.13485 0.0
O307 O 0.17706 0.69198 0.10355 0.0
O308 O 0.13374 0.71479 0.18113 0.0
O309 O 0.1672 0.7092 0.21288 0.0
O310 O 0.18742 0.6659 0.18878 0.0
O311 O 0.20373 0.69201 0.23178 0.0
H312 H 0.26106 0.76437 0.29326 0.0
H313 H 0.25692 0.79059 0.3459 0.0
H314 H 0.1864 0.82919 0.30656 0.0
H315 H 0.19007 0.80199 0.25439 0.0
H316 H 0.1161 0.71284 0.11143 0.0
H317 H 0.08357 0.72627 0.06876 0.0
H318 H 0.11802 0.66874 0.99757 0.0
H319 H 0.15105 0.6562 0.04011 0.0
C320 C 0.92535 0.75945 0.66611 0.0
Eu321 Eu 0.93837 0.74246 0.60556 0.0
C322 C 0.93322 0.78284 0.68736 0.0
C323 C 0.9482 0.80449 0.67373 0.0
C324 C 0.95334 0.82793 0.69323 0.0
C325 C 0.9432 0.8302 0.72646 0.0
C326 C 0.92967 0.80758 0.74059 0.0
C327 C 0.92478 0.78409 0.72117 0.0
C328 C 0.93857 0.77194 0.54853 0.0
C329 C 0.90022 0.72004 0.54495 0.0
C330 C 0.98702 0.68641 0.51186 0.0
Eu331 Eu 0.96538 0.71408 0.56164 0.0
C332 C 1.00065 0.69305 0.47988 0.0
C333 C 0.99966 0.6744 0.45268 0.0
C334 C 1.01331 0.67995 0.42251 0.0
C335 C 1.02832 0.7042 0.41918 0.0
C336 C 1.02886 0.7231 0.4463 0.0
C337 C 1.01499 0.71766 0.47634 0.0
C338 C 0.95921 0.68332 0.62227 0.0
C339 C 1.00072 0.76645 0.59183 0.0
O340 O 0.91185 0.76524 0.63876 0.0
O341 O 0.94383 0.74138 0.66051 0.0
O342 O 0.91901 0.77178 0.57008 0.0
O343 O 0.95827 0.7585 0.55902 0.0
O344 O 0.89954 0.72879 0.57713 0.0
O345 O 0.92421 0.71397 0.5327 0.0
O346 O 0.96175 0.69196 0.51327 0.0
O347 O 0.99947 0.69325 0.53978 0.0
O348 O 0.98142 0.68986 0.60779 0.0
O349 O 0.94127 0.696 0.60579 0.0
O350 O 0.99907 0.74796 0.56678 0.0
O351 O 0.97964 0.7668 0.61259 0.0
H352 H 0.95494 0.8038 0.64761 0.0
H353 H 0.96402 0.84482 0.68168 0.0
H354 H 0.92114 0.80864 0.76585 0.0
H355 H 0.91333 0.76743 0.73206 0.0
H356 H 0.98861 0.65536 0.45496 0.0
H357 H 1.01272 0.66492 0.40213 0.0
H358 H 1.04002 0.74208 0.44426 0.0
H359 H 1.01573 0.73249 0.49694 0.0
C360 C 0.16608 0.17422 0.90554 0.0
Eu361 Eu 0.17635 0.21003 0.85853 0.0
C362 C 0.16461 0.14402 0.90604 0.0
C363 C 0.14026 0.13046 0.90073 0.0
C364 C 0.13867 0.10202 0.90234 0.0
C365 C 0.16137 1.08645 0.90948 0.0
C366 C 0.1859 0.09995 0.91379 0.0
C367 C 0.1875 0.12846 0.91216 0.0
C368 C 0.14572 0.21952 0.80363 0.0
C369 C 0.20033 0.17348 0.79279 0.0
C370 C 0.23107 0.27249 0.77975 0.0
Eu371 Eu 0.20588 0.23738 0.81798 0.0
C372 C 0.22589 0.28687 0.74809 0.0
C373 C 0.24647 0.30172 0.73283 0.0
C374 C 0.24246 0.31412 0.70148 0.0
C375 C 0.21776 0.31176 0.68492 0.0
C376 C 0.19692 0.2973 0.70072 0.0
C377 C 0.201 0.28483 0.73213 0.0
C378 C 0.23733 0.22375 0.8751 0.0
C379 C 0.15342 0.27108 0.85034 0.0
O380 O 0.18959 0.18494 0.9006 0.0
O381 O 0.14759 0.18698 0.88881 0.0
O382 O 0.1366 0.21839 0.83452 0.0
O383 O 0.17021 0.21406 0.80237 0.0
O384 O 0.18905 0.17242 0.82354 0.0
O385 O 0.2076 0.19841 0.78275 0.0
O386 O 0.23352 0.24608 0.77683 0.0
O387 O 0.21659 0.27952 0.80585 0.0
O388 O 0.24242 0.21848 0.8436 0.0
O389 O 0.21373 0.23383 0.87541 0.0
O390 O 0.1706 0.26918 0.82453 0.0
O391 O 0.15477 0.2509 0.87289 0.0
H392 H 0.12226 0.14184 0.89612 0.0
H393 H 0.1193 1.09239 0.89974 0.0
H394 H 0.20371 1.08854 0.91934 0.0
H395 H 0.20661 0.13829 0.91634 0.0
H396 H 0.26577 0.30342 0.74495 0.0
H397 H 0.25871 0.32553 0.69014 0.0
H398 H 0.17777 0.29503 0.6884 0.0
H399 H 0.18496 0.27323 0.7437 0.0
C400 C 0.74419 0.43389 0.15287 0.0
Eu401 Eu 0.71073 0.44477 0.10451 0.0
C402 C 0.77255 0.4275 0.15197 0.0
C403 C 0.78449 0.41868 0.12159 0.0
C404 C 0.81163 0.41313 0.12059 0.0
C405 C 0.82722 0.41603 0.15008 0.0
C406 C 0.81517 0.42549 0.18027 0.0
C407 C 0.78807 0.43129 0.18113 0.0
C408 C 0.70091 0.4132 0.04972 0.0
C409 C 0.74843 0.46806 0.03935 0.0
C410 C 0.6534 0.49888 0.01655 0.0
Eu411 Eu 0.68517 0.4754 0.0598 0.0
C412 C 0.63968 0.4917 0.98456 0.0
C413 C 0.62594 0.46673 0.98046 0.0
C414 C 0.61271 0.46075 0.94995 0.0
C415 C 0.6133 0.47947 0.92294 0.0
C416 C 0.6275 0.50417 0.92698 0.0
C417 C 0.64047 0.51026 0.95755 0.0
C418 C 0.69732 0.5079 0.1178 0.0
C419 C 0.65028 0.42298 0.09384 0.0
O420 O 0.73836 0.45874 0.14373 0.0
O421 O 0.72823 0.41558 0.13943 0.0
O422 O 0.7018 0.40367 0.08044 0.0
O423 O 0.70757 0.43811 0.04877 0.0
O424 O 0.74816 0.45627 0.06997 0.0
O425 O 0.72486 0.47641 0.0281 0.0
O426 O 0.67922 0.50071 0.01495 0.0
O427 O 0.64522 0.48683 0.04423 0.0
O428 O 0.7022 0.51376 0.08645 0.0
O429 O 0.68753 0.48348 0.11755 0.0
O430 O 0.65325 0.43975 0.06733 0.0
O431 O 0.66945 0.42448 0.11728 0.0
H432 H 0.77279 0.41576 0.09873 0.0
H433 H 0.82028 0.40608 0.09691 0.0
H434 H 0.82639 0.4274 0.20369 0.0
H435 H 0.77915 0.43831 0.20468 0.0
H436 H 0.62531 0.4519 1.0008 0.0
H437 H 0.60213 0.44144 0.94741 0.0
H438 H 0.62806 0.51911 0.90676 0.0
H439 H 0.65102 0.52959 0.96019 0.0
C440 C 0.49201 1.00828 0.40919 0.0
Eu441 Eu 0.47433 0.98068 0.35706 0.0
C442 C 0.51358 1.00178 0.43273 0.0
C443 C 0.5331 0.98285 0.42323 0.0
C444 C 0.55277 0.97532 0.44625 0.0
C445 C 0.55325 0.98662 0.47919 0.0
C446 C 0.53338 1.00534 0.48869 0.0
C447 C 0.51365 1.01277 0.46565 0.0
C448 C 0.50314 0.96741 0.30138 0.0
C449 C 0.44934 1.0165 0.29331 0.0
C450 C 0.41924 0.91752 0.27405 0.0
Eu451 Eu 0.44329 0.95147 0.31554 0.0
C452 C 0.42634 0.90313 0.24248 0.0
C453 C 0.40762 0.90123 0.21619 0.0
C454 C 0.41415 0.88841 0.18552 0.0
C455 C 0.43947 0.87712 0.18078 0.0
C456 C 0.45824 0.87905 0.20716 0.0
C457 C 0.4518 0.89217 0.23772 0.0
C458 C 0.41195 0.96736 0.37203 0.0
C459 C 0.49647 0.91815 0.34803 0.0
O460 O 0.49903 1.01362 0.37795 0.0
O461 O 0.47161 0.99168 0.41073 0.0
O462 O 0.51312 0.96923 0.33178 0.0
O463 O 0.47909 0.97431 0.30116 0.0
O464 O 0.45882 1.01819 0.32505 0.0
O465 O 0.4436 0.99126 0.28212 0.0
O466 O 0.41753 0.94402 0.27178 0.0
O467 O 0.43128 0.90989 0.3018 0.0
O468 O 0.40609 0.9698 0.34028 0.0
O469 O 0.43583 0.95797 0.37271 0.0
O470 O 0.47664 0.91777 0.32529 0.0
O471 O 0.49831 0.94064 0.36721 0.0
H472 H 0.53316 0.97387 0.39798 0.0
H473 H 0.56769 0.96081 0.43819 0.0
H474 H 0.5335 1.01492 0.51361 0.0
H475 H 0.49853 1.02714 0.47348 0.0
H476 H 0.38796 0.90974 0.21936 0.0
H477 H 0.39924 0.88693 0.1657 0.0
H478 H 0.47795 0.87068 0.20399 0.0
H479 H 0.46672 0.8938 0.25752 0.0
C480 C 0.16135 0.49854 0.49922 0.0
Eu481 Eu 0.18321 0.4697 0.45046 0.0
C482 C 0.14768 0.49394 0.53173 0.0
C483 C 0.1294 0.51335 0.5432 0.0
C484 C 0.11503 0.50895 0.57306 0.0
C485 C 0.1187 0.48501 0.59208 0.0
C486 C 0.13746 0.46577 0.58086 0.0
C487 C 0.15176 0.47014 0.55077 0.0
C488 C 0.19019 0.50015 0.38976 0.0
C489 C 0.14866 0.41623 0.42083 0.0
C490 C 0.2224 0.42375 0.34743 0.0
Eu491 Eu 0.21077 0.44092 0.40817 0.0
C492 C 0.21431 0.40026 0.32593 0.0
C493 C 0.22341 0.37384 0.33283 0.0
C494 C 0.21751 0.35226 0.3107 0.0
C495 C 0.2023 0.35654 0.28115 0.0
C496 C 0.19171 0.38264 0.27555 0.0
C497 C 0.19782 0.40433 0.29761 0.0
C498 C 0.21048 0.41224 0.46553 0.0
C499 C 0.24853 0.46372 0.46822 0.0
O500 O 0.18661 0.49297 0.49792 0.0
O501 O 0.14872 0.49021 0.47211 0.0
O502 O 0.16781 0.49375 0.4038 0.0
O503 O 0.20788 0.48751 0.40675 0.0
O504 O 0.14841 0.43709 0.44296 0.0
O505 O 0.17125 0.4138 0.40321 0.0
O506 O 0.23709 0.41871 0.37411 0.0
O507 O 0.20401 0.44188 0.35354 0.0
O508 O 0.23021 0.41232 0.44415 0.0
O509 O 0.19061 0.4254 0.45474 0.0
O510 O 0.24945 0.45472 0.4362 0.0
O511 O 0.22437 0.46981 0.48013 0.0
H512 H 0.12602 0.53182 0.52881 0.0
H513 H 0.10101 0.52432 0.58129 0.0
H514 H 0.14057 0.44706 0.59485 0.0
H515 H 0.16572 0.45483 0.54216 0.0
H516 H 0.23597 0.36994 0.35461 0.0
H517 H 0.22649 0.33266 0.31572 0.0
H518 H 0.1797 0.38661 0.2533 0.0
H519 H 0.1903 0.42449 0.29193 0.0
C520 C 0.91602 0.91379 0.2355 0.0
Eu521 Eu 0.9419 0.9476 0.19616 0.0
C522 C 0.9207 0.90009 0.26781 0.0
C523 C 0.89961 0.88643 0.28366 0.0
C524 C 0.90328 0.87436 0.3153 0.0
C525 C 0.92815 0.87582 0.33157 0.0
C526 C 0.94942 0.88925 0.31531 0.0
C527 C 0.94568 0.90141 0.28361 0.0
C528 C 0.91113 0.96332 0.13948 0.0
C529 C 0.99572 0.91406 0.1651 0.0
C530 C 0.99179 1.00399 0.10487 0.0
Eu531 Eu 0.97347 0.97624 0.15607 0.0
C532 C 1.01371 0.99831 0.08144 0.0
C533 C 1.03445 0.98098 0.09113 0.0
C534 C 1.05472 0.97468 0.0682 0.0
C535 C 1.05439 0.98541 0.03516 0.0
C536 C 1.03319 1.00227 0.02541 0.0
C537 C 1.01301 1.00863 0.04839 0.0
C538 C 1.00108 0.96373 0.21301 0.0
C539 C 0.94769 1.01262 0.21926 0.0
O540 O 0.91387 0.94029 0.23733 0.0
O541 O 0.93061 0.90593 0.20985 0.0
O542 O 0.9053 0.96636 0.17118 0.0
O543 O 0.93498 0.95376 0.13885 0.0
O544 O 0.97546 0.91379 0.18723 0.0
O545 O 0.99785 0.93644 0.14619 0.0
O546 O 0.9983 1.00932 0.13638 0.0
O547 O 0.97175 0.98697 0.10246 0.0
O548 O 1.01181 0.96505 0.183 0.0
O549 O 0.9771 0.97067 0.21204 0.0
O550 O 0.95726 1.014 0.18759 0.0
O551 O 0.94217 0.98742 0.23037 0.0
H552 H 0.88022 0.8853 0.2717 0.0
H553 H 0.88666 0.86378 0.32699 0.0
H554 H 0.96873 0.89084 0.32738 0.0
H555 H 0.96213 0.91209 0.27162 0.0
H556 H 1.03503 0.9724 0.11644 0.0
H557 H 1.07076 0.96164 0.07638 0.0
H558 H 1.03266 1.01133 1.00036 0.0
H559 H 0.99693 1.02172 0.04041 0.0
C560 C 0.49384 0.68411 1.00053 0.0
Eu561 Eu 0.46328 0.70792 0.95626 0.0
C562 C 0.50814 0.69178 0.03187 0.0
C563 C 0.52231 0.71661 0.03467 0.0
C564 C 0.53589 0.72323 0.0647 0.0
C565 C 0.5352 0.7053 0.09251 0.0
C566 C 0.52065 0.68071 0.08974 0.0
C567 C 0.50732 0.67399 0.05964 0.0
C568 C 0.44975 0.67473 0.89932 0.0
C569 C 0.49901 0.76054 0.92344 0.0
C570 C 0.41356 0.7554 0.85614 0.0
Eu571 Eu 0.43796 0.73892 0.91042 0.0
C572 C 0.42012 0.77759 0.83274 0.0
C573 C 0.4385 0.798 0.84238 0.0
C574 C 0.444 0.8198 0.82071 0.0
C575 C 0.43129 0.82139 0.78901 0.0
C576 C 0.41387 0.80013 0.77883 0.0
C577 C 0.40833 0.77838 0.80059 0.0
C578 C 0.44894 0.7703 0.96532 0.0
C579 C 0.39953 0.71474 0.97324 0.0
O580 O 0.46797 0.684 1.00249 0.0
O581 O 0.50254 0.69453 0.97207 0.0
O582 O 0.44559 0.66925 0.93094 0.0
O583 O 0.45979 0.69899 0.89887 0.0
O584 O 0.49653 0.74244 0.94866 0.0
O585 O 0.47906 0.76092 0.90115 0.0
O586 O 0.40684 0.76295 0.88684 0.0
O587 O 0.43024 0.73514 0.85604 0.0
O588 O 0.44898 0.77964 0.93446 0.0
O589 O 0.44139 0.74566 0.96613 0.0
O590 O 0.39984 0.72363 0.94103 0.0
O591 O 0.42317 0.70898 0.9866 0.0
H592 H 0.52295 0.73086 0.01369 0.0
H593 H 0.54678 0.74242 0.06628 0.0
H594 H 0.52002 0.66638 0.11063 0.0
H595 H 0.49643 0.65479 0.05798 0.0
H596 H 0.44808 0.79745 0.86702 0.0
H597 H 0.45751 0.83584 0.82916 0.0
H598 H 0.40337 0.80103 0.75482 0.0
H599 H 0.39433 0.7626 0.7927 0.0
C600 C 0.7275 0.26722 0.74093 0.0
Eu601 Eu 0.70393 0.23245 0.70015 0.0
C602 C 0.7203 0.28176 0.7723 0.0
C603 C 0.69511 0.2935 0.77645 0.0
C604 C 0.6885 0.30646 0.80703 0.0
C605 C 0.70682 0.30744 0.83397 0.0
C606 C 0.73189 0.29546 0.82978 0.0
C607 C 0.73859 0.28281 0.79912 0.0
C608 C 0.73574 0.21844 0.64343 0.0
C609 C 0.65159 0.26587 0.66645 0.0
C610 C 0.66375 0.16841 0.61073 0.0
Eu611 Eu 0.67406 0.20447 0.65795 0.0
C612 C 0.66314 0.13817 0.61035 0.0
C613 C 0.63971 0.12389 0.61851 0.0
C614 C 0.63896 0.09539 0.61725 0.0
C615 C 0.66158 1.08048 0.60765 0.0
C616 C 0.6853 0.09473 0.60065 0.0
C617 C 0.68605 0.12329 0.60189 0.0
C618 C 0.64428 0.21506 0.71349 0.0
C619 C 0.6982 0.16798 0.7232 0.0
O620 O 0.7296 0.24079 0.74368 0.0
O621 O 0.71529 0.27436 0.71311 0.0
O622 O 0.7409 0.21412 0.67505 0.0
O623 O 0.71199 0.22817 0.64268 0.0
O624 O 0.66874 0.26423 0.69237 0.0
O625 O 0.65274 0.24539 0.64391 0.0
O626 O 0.68707 0.17985 0.61487 0.0
O627 O 0.64526 0.18081 0.62812 0.0
O628 O 0.63451 0.21366 0.68292 0.0
O629 O 0.6685 0.20877 0.71382 0.0
O630 O 0.68684 0.16698 0.69246 0.0
O631 O 0.70554 0.19289 0.73384 0.0
H632 H 0.68051 0.29255 0.75622 0.0
H633 H 0.66901 0.31543 0.80978 0.0
H634 H 0.74646 0.29625 0.85006 0.0
H635 H 0.75803 0.27369 0.7964 0.0
H636 H 0.62171 0.13471 0.62509 0.0
H637 H 0.62014 1.08518 0.62197 0.0
H638 H 0.70304 1.08384 0.59318 0.0
H639 H 0.70448 0.13371 0.59557 0.0
H640 H 0.51688 0.30345 0.14905 0.0
H641 H 0.61981 0.39981 0.04037 0.0
H642 H 0.53489 0.2861 0.04427 0.0
H643 H 0.62737 0.39254 0.14882 0.0
H644 H 0.58542 0.36334 0.04089 0.0
H645 H 0.55217 0.33915 0.14934 0.0
C646 C 0.52808 0.30684 0.12592 0.0
C647 C 0.52211 0.29053 0.09668 0.0
C648 C 0.59437 0.36964 0.06477 0.0
C649 C 0.56371 0.33374 0.09658 0.0
C650 C 0.61429 0.39096 0.06457 0.0
C651 C 0.6274 0.40039 0.09462 0.0
C652 C 0.58596 0.35704 0.09543 0.0
C653 C 0.61853 0.38682 0.12469 0.0
C654 C 0.5486 0.32762 0.12616 0.0
C655 C 0.53815 0.2972 0.06785 0.0
N656 N 0.59871 0.36664 0.12428 0.0
N657 N 0.55741 0.31789 0.06851 0.0
H658 H 0.6537 0.82784 0.33379 0.0
H659 H 0.49506 0.86082 0.33272 0.0
H660 H 0.59749 0.76663 0.36609 0.0
H661 H 0.55118 0.9227 0.36441 0.0
H662 H 0.5312 0.8266 0.33413 0.0
H663 H 0.61754 0.86203 0.33423 0.0
C664 C 0.63392 0.82124 0.34104 0.0
C665 C 0.62973 0.79344 0.35041 0.0
C666 C 0.53581 0.84764 0.34082 0.0
C667 C 0.58627 0.8339 0.34961 0.0
C668 C 0.51482 0.86756 0.34 0.0
C669 C 0.519 0.89558 0.34887 0.0
C670 C 0.56241 0.85506 0.34929 0.0
C671 C 0.54597 0.90182 0.35769 0.0
C672 C 0.61291 0.84116 0.34128 0.0
C673 C 0.60272 0.78736 0.35908 0.0
N674 N 0.56605 0.88235 0.35721 0.0
N675 N 0.58262 0.8068 0.35803 0.0
H676 H 0.13145 0.88943 0.64773 0.0
H677 H 1.03449 0.7856 0.53963 0.0
H678 H 0.11739 0.90089 0.54097 0.0
H679 H 1.0198 0.80124 0.64568 0.0
H680 H 1.06872 0.82222 0.54007 0.0
H681 H 0.09622 0.85362 0.64824 0.0
C682 C 0.12116 0.88468 0.6242 0.0
C683 C 0.12817 0.89938 0.59431 0.0
C684 C 1.05823 0.81773 0.56345 0.0
C685 C 0.08674 0.85608 0.59453 0.0
C686 C 1.03839 0.79636 0.56331 0.0
C687 C 1.02337 0.78923 0.59269 0.0
C688 C 1.06463 0.83267 0.59349 0.0
C689 C 1.03023 0.80513 0.6221 0.0
C690 C 0.10068 0.86387 0.62457 0.0
C691 C 0.11327 0.89107 0.56502 0.0
N692 N 1.05004 0.82529 0.62176 0.0
N693 N 0.09407 0.87036 0.56586 0.0
H694 H 1.01896 0.38533 0.79448 0.0
H695 H 0.12111 0.29073 0.90481 0.0
H696 H 1.02946 0.39831 0.90189 0.0
H697 H 0.1317 0.30341 0.79759 0.0
H698 H 0.08503 0.32495 0.90472 0.0
H699 H 1.05556 0.3519 0.79531 0.0
C700 C 1.02856 0.3812 0.81853 0.0
C701 C 1.01997 0.39552 0.84818 0.0
C702 C 0.09515 0.32043 0.88107 0.0
C703 C 1.06356 0.35525 0.84939 0.0
C704 C 0.11616 0.30054 0.88106 0.0
C705 C 0.13071 0.29345 0.85123 0.0
C706 C 0.08708 0.33372 0.85076 0.0
C707 C 0.12205 0.30766 0.82163 0.0
C708 C 1.04995 0.36183 0.8189 0.0
C709 C 1.03448 0.38843 0.87806 0.0
N710 N 0.10125 0.32632 0.82217 0.0
N711 N 1.05477 0.36914 0.87786 0.0
H712 H 0.63014 0.88191 0.86667 0.0
H713 H 0.53198 0.78122 0.97639 0.0
H714 H 0.61569 0.89632 0.97302 0.0
H715 H 0.51963 0.79312 0.86936 0.0
H716 H 0.5663 0.81784 0.97575 0.0
H717 H 0.59509 0.84595 0.86691 0.0
C718 C 0.61979 0.8778 0.89026 0.0
C719 C 0.62665 0.89338 0.91978 0.0
C720 C 0.55632 0.81249 0.95221 0.0
C721 C 0.5854 0.84985 0.92047 0.0
C722 C 0.53645 0.79109 0.95247 0.0
C723 C 0.52206 0.78292 0.92284 0.0
C724 C 0.56332 0.82641 0.92184 0.0
C725 C 0.52957 0.79779 0.89313 0.0
C726 C 0.59942 0.85688 0.89033 0.0
C727 C 0.61169 0.88582 0.94921 0.0
N728 N 0.54934 0.81799 0.8934 0.0
N729 N 0.59257 0.86499 0.9488 0.0
H730 H 0.52742 0.39309 0.60962 0.0
H731 H 0.6305 0.29897 0.71917 0.0
H732 H 0.51757 0.38083 0.71703 0.0
H733 H 0.61885 0.28519 0.6121 0.0
H734 H 0.59391 0.33241 0.7186 0.0
H735 H 0.56343 0.35882 0.60947 0.0
C736 C 0.53251 0.38337 0.63337 0.0
C737 C 0.51818 0.39061 0.66333 0.0
C738 C 0.59926 0.32231 0.69502 0.0
C739 C 0.56178 0.35025 0.6635 0.0
C740 C 0.62066 0.30293 0.69523 0.0
C741 C 0.62894 0.28837 0.6656 0.0
C742 C 0.58532 0.32868 0.6647 0.0
C743 C 0.6141 0.29525 0.6359 0.0
C744 C 0.55349 0.36344 0.63322 0.0
C745 C 0.52704 0.37648 0.6929 0.0
N746 N 0.59382 0.31457 0.63624 0.0
N747 N 0.54781 0.35778 0.69221 0.0
H748 H 1.053 0.25817 0.43902 0.0
H749 H 0.09311 0.41983 0.43317 0.0
H750 H 0.99722 0.31683 0.40168 0.0
H751 H 0.15104 0.35916 0.40702 0.0
H752 H 1.05818 0.38373 0.43211 0.0
H753 H 0.08818 0.29406 0.43788 0.0
C754 C 1.04783 0.27845 0.4305 0.0
C755 C 1.02126 0.28343 0.41996 0.0
C756 C 0.07849 0.37811 0.42657 0.0
C757 C 1.06282 0.32653 0.41987 0.0
C758 C 0.09882 0.39905 0.42719 0.0
C759 C 0.12595 0.39355 0.41981 0.0
C760 C 0.08456 0.35027 0.41981 0.0
C761 C 0.13091 0.36537 0.41257 0.0
C762 C 1.0683 0.29927 0.42985 0.0
C763 C 1.01694 0.311 0.40967 0.0
N764 N 0.111 0.34535 0.41322 0.0
N765 N 1.03688 0.33097 0.41033 0.0
H766 H 0.09676 0.76079 0.14822 0.0
H767 H 1.05047 0.91977 0.15141 0.0
H768 H 0.15069 0.82326 0.18411 0.0
H769 H 0.99497 0.85633 0.17887 0.0
H770 H 0.08673 0.88598 0.15275 0.0
H771 H 1.06045 0.79455 0.14877 0.0
C772 C 0.10138 0.78159 0.15599 0.0
C773 C 0.12789 0.78825 0.16602 0.0
C774 C 1.06669 0.87918 0.15838 0.0
C775 C 0.08462 0.82887 0.16593 0.0
C776 C 1.04551 0.89875 0.15746 0.0
C777 C 1.01856 0.89183 0.16491 0.0
C778 C 1.06182 0.8512 0.16572 0.0
C779 C 1.01479 0.86357 0.17282 0.0
C780 C 0.08017 0.80115 0.15644 0.0
C781 C 0.13123 0.81623 0.17601 0.0
N782 N 1.03556 0.84482 0.17248 0.0
N783 N 0.11048 0.83501 0.17519 0.0
H784 H 0.23809 0.23954 0.94635 0.0
H785 H 0.39639 0.2054 0.97511 0.0
H786 H 0.28982 0.20748 0.86898 0.0
H787 H 0.34772 0.23367 0.05787 0.0
H788 H 0.35746 0.20676 0.93735 0.0
H789 H 0.27588 0.23839 0.98723 0.0
C790 C 0.25715 0.23223 0.93758 0.0
C791 C 0.25984 0.22362 0.90309 0.0
C792 C 0.35497 0.21262 0.96375 0.0
C793 C 0.30469 0.22227 0.95131 0.0
C794 C 0.37759 0.21177 0.98581 0.0
C795 C 0.37632 0.21909 0.02081 0.0
C796 C 0.32971 0.22109 0.97563 0.0
C797 C 0.35051 0.22743 0.03166 0.0
C798 C 0.27907 0.23157 0.9613 0.0
C799 C 0.28586 0.21445 0.89466 0.0
N800 N 0.3288 0.22818 0.00962 0.0
N801 N 0.30656 0.2141 0.9179 0.0
H802 H 0.68065 0.50693 0.18796 0.0
H803 H 0.71583 0.66883 0.2263 0.0
H804 H 0.71399 0.56206 0.11427 0.0
H805 H 0.68321 0.6167 0.30377 0.0
H806 H 0.71525 0.6298 0.18635 0.0
H807 H 0.68124 0.54491 0.23045 0.0
C808 C 0.68815 0.5268 0.18038 0.0
C809 C 0.69727 0.53046 0.14648 0.0
C810 C 0.70825 0.6266 0.21207 0.0
C811 C 0.69799 0.57539 0.19647 0.0
C812 C 0.70864 0.64924 0.23534 0.0
C813 C 0.69975 0.64696 0.26948 0.0
C814 C 0.69879 0.60042 0.22193 0.0
C815 C 0.69052 0.62024 0.27828 0.0
C816 C 0.68847 0.5488 0.20499 0.0
C817 C 0.70664 0.55742 0.13946 0.0
N818 N 0.69029 0.59856 0.25514 0.0
N819 N 0.7067 0.57819 0.16358 0.0
H820 H 0.41216 0.95436 0.44389 0.0
H821 H 0.25278 0.98322 0.47229 0.0
H822 H 0.35885 0.98126 0.36573 0.0
H823 H 0.30241 0.95899 0.55566 0.0
H824 H 0.29167 0.98216 0.43452 0.0
H825 H 0.37448 0.95539 0.48499 0.0
C826 C 0.39278 0.96053 0.435 0.0
C827 C 0.3896 0.96771 0.40022 0.0
C828 C 0.29439 0.97713 0.46105 0.0
C829 C 0.34491 0.96891 0.44868 0.0
C830 C 0.27179 0.9778 0.48313 0.0
C831 C 0.27331 0.97148 0.5183 0.0
C832 C 0.31993 0.96989 0.47307 0.0
C833 C 0.29939 0.96438 0.5293 0.0
C834 C 0.37093 0.96111 0.45885 0.0
C835 C 0.36319 0.97544 0.39163 0.0
N836 N 0.3211 0.96379 0.50724 0.0
N837 N 0.34259 0.97575 0.415 0.0
H838 H 0.99624 0.66365 0.66845 0.0
H839 H 0.91872 0.52668 0.73337 0.0
H840 H 0.91595 0.64667 0.6369 0.0
H841 H 0.98162 0.56448 0.79151 0.0
H842 H 0.91933 0.56638 0.69458 0.0
H843 H 0.99344 0.62526 0.70868 0.0
C844 C 0.97785 0.65203 0.6698 0.0
C845 C 0.95629 0.65945 0.64857 0.0
C846 C 0.93301 0.56619 0.71583 0.0
C847 C 0.95312 0.61326 0.69563 0.0
C848 C 0.9327 0.5432 0.73834 0.0
C849 C 0.94997 0.54145 0.76684 0.0
C850 C 0.95129 0.58816 0.7204 0.0
C851 C 0.96759 0.56423 0.77065 0.0
C852 C 0.97629 0.62977 0.69315 0.0
C853 C 0.93323 0.64262 0.65237 0.0
N854 N 0.96792 0.58591 0.74801 0.0
N855 N 0.93244 0.62063 0.67469 0.0
H856 H 0.80128 0.95245 0.95373 0.0
H857 H 0.85866 0.97825 0.14676 0.0
H858 H 0.75374 0.97804 0.03888 0.0
H859 H 0.91005 0.94901 0.06727 0.0
H860 H 0.8216 0.97875 0.10651 0.0
H861 H 0.84075 0.95162 0.99167 0.0
C862 C 0.79885 0.95815 0.9802 0.0
C863 C 0.77317 0.96561 0.99213 0.0
C864 C 0.84084 0.97219 0.09742 0.0
C865 C 0.81987 0.96445 0.03729 0.0
C866 C 0.86252 0.97187 0.1208 0.0
C867 C 0.88856 0.96354 0.11157 0.0
C868 C 0.84402 0.96418 0.06305 0.0
C869 C 0.89096 0.95569 0.07666 0.0
C870 C 0.82176 0.95755 1.0022 0.0
C871 C 0.77246 0.97231 0.02744 0.0
N872 N 0.8694 0.95622 0.05423 0.0
N873 N 0.79483 0.9716 0.04803 0.0
H874 H 0.43183 0.62114 0.90386 0.0
H875 H 0.46733 0.56557 0.71225 0.0
H876 H 0.46719 0.67412 0.82925 0.0
H877 H 0.43032 0.51599 0.78913 0.0
H878 H 0.46768 0.60476 0.75253 0.0
H879 H 0.43144 0.58363 0.86205 0.0
C880 C 0.43958 0.62521 0.87868 0.0
C881 C 0.44956 0.65176 0.87113 0.0
C882 C 0.45937 0.5854 0.76075 0.0
C883 C 0.44918 0.60696 0.82107 0.0
C884 C 0.45908 0.56266 0.73742 0.0
C885 C 0.44859 0.53655 0.74632 0.0
C886 C 0.44916 0.58287 0.79424 0.0
C887 C 0.43854 0.53514 0.7801 0.0
C888 C 0.43932 0.60334 0.85444 0.0
C889 C 0.45918 0.65457 0.83722 0.0
N890 N 0.43912 0.55742 0.80216 0.0
N891 N 0.45877 0.63286 0.81402 0.0
H892 H 0.78755 0.20118 0.65032 0.0
H893 H 0.84622 0.2316 0.45964 0.0
H894 H 0.73777 0.23465 0.57236 0.0
H895 H 0.89274 0.19971 0.54182 0.0
H896 H 0.80699 0.23255 0.49777 0.0
H897 H 0.82482 0.20032 0.61027 0.0
C898 C 0.78411 0.20842 0.62475 0.0
C899 C 0.75847 0.21804 0.61582 0.0
C900 C 0.82568 0.22523 0.50763 0.0
C901 C 0.80317 0.21703 0.56766 0.0
C902 C 0.84847 0.22458 0.48552 0.0
C903 C 0.87379 0.21535 0.49654 0.0
C904 C 0.82732 0.21663 0.54197 0.0
C905 C 0.87428 0.2069 0.53112 0.0
C906 C 0.80588 0.20789 0.6015 0.0
C907 C 0.75655 0.22696 0.58145 0.0
N908 N 0.85199 0.20775 0.55191 0.0
N909 N 0.77817 0.22624 0.55918 0.0
H910 H 0.23336 0.53715 0.3776 0.0
H911 H 0.16859 0.61741 0.21632 0.0
H912 H 0.15435 0.51957 0.34154 0.0
H913 H 0.22665 0.65698 0.28057 0.0
H914 H 0.1675 0.57828 0.25578 0.0
H915 H 0.23577 0.57644 0.33796 0.0
C916 C 0.21653 0.54112 0.36127 0.0
C917 C 0.19357 0.52412 0.36369 0.0
C918 C 0.18068 0.59537 0.26134 0.0
C919 C 0.19643 0.57024 0.31644 0.0
C920 C 0.18144 0.61802 0.2384 0.0
C921 C 0.19785 0.64139 0.24413 0.0
C922 C 0.19694 0.59481 0.29078 0.0
C923 C 0.21361 0.63998 0.27419 0.0
C924 C 0.21788 0.56397 0.33847 0.0
C925 C 0.1726 0.53145 0.3413 0.0
N926 N 0.21294 0.6175 0.29565 0.0
N927 N 0.17465 0.55322 0.31898 0.0
H928 H 0.73666 0.73821 0.44633 0.0
H929 H 0.89491 0.70409 0.47635 0.0
H930 H 0.78856 0.70571 0.36942 0.0
H931 H 0.84631 0.73524 0.55755 0.0
H932 H 0.85603 0.70475 0.43835 0.0
H933 H 0.77447 0.7376 0.48722 0.0
C934 C 0.75575 0.73089 0.43768 0.0
C935 C 0.7585 0.72202 0.40331 0.0
C936 C 0.85356 0.71141 0.46447 0.0
C937 C 0.80335 0.72128 0.45153 0.0
C938 C 0.87615 0.71097 0.48665 0.0
C939 C 0.87487 0.71939 0.52127 0.0
C940 C 0.82835 0.72047 0.47588 0.0
C941 C 0.84912 0.72825 0.53163 0.0
C942 C 0.77769 0.73056 0.4614 0.0
C943 C 0.78457 0.71287 0.39501 0.0
N944 N 0.82746 0.72855 0.50953 0.0
N945 N 0.80526 0.7128 0.41825 0.0
H946 H 0.18313 0.11864 0.80224 0.0
H947 H 0.21606 1.06431 0.60917 0.0
H948 H 0.21795 0.16929 0.7248 0.0
H949 H 0.18144 1.01124 0.68419 0.0
H950 H 0.21691 0.10177 0.65122 0.0
H951 H 0.18246 1.07977 0.76149 0.0
C952 C 0.19084 0.12185 0.77685 0.0
C953 C 0.2008 0.14816 0.76794 0.0
C954 C 0.20909 1.08204 0.65885 0.0
C955 C 0.19986 0.10222 0.71946 0.0
C956 C 0.20857 1.06023 0.63447 0.0
C957 C 0.19863 1.03369 0.64212 0.0
C958 C 0.19957 1.07831 0.69239 0.0
C959 C 0.18936 1.03081 0.67616 0.0
C960 C 0.19036 0.0993 0.75324 0.0
C961 C 0.21017 0.14996 0.73385 0.0
N962 N 0.19005 1.05242 0.69946 0.0
N963 N 0.20944 0.12785 0.71153 0.0
H964 H 0.75497 0.48724 0.97249 0.0
H965 H 0.91155 0.44664 0.94073 0.0
H966 H 0.80119 0.44897 0.05056 0.0
H967 H 0.86138 0.48338 0.86557 0.0
H968 H 0.87355 0.44743 0.98131 0.0
H969 H 0.794 0.48625 0.93468 0.0
C970 C 0.77323 0.47869 0.98213 0.0
C971 C 0.77381 0.46835 0.01579 0.0
C972 C 0.87075 0.45538 0.95595 0.0
C973 C 0.82047 0.46695 0.9707 0.0
C974 C 0.8928 0.45496 0.93242 0.0
C975 C 0.89058 0.46495 0.89865 0.0
C976 C 0.84553 0.46593 0.94648 0.0
C977 C 0.86494 0.47531 0.89071 0.0
C978 C 0.7959 0.47807 0.96007 0.0
C979 C 0.79894 0.45744 0.02538 0.0
N980 N 0.84413 0.47549 0.91378 0.0
N981 N 0.82069 0.45707 1.00344 0.0
H982 H 0.4328 1.01952 0.22515 0.0
H983 H 0.46726 0.18147 0.1888 0.0
H984 H 0.46461 1.07239 0.30331 0.0
H985 H 0.43376 0.12639 0.11424 0.0
H986 H 0.46674 0.14357 0.23064 0.0
H987 H 0.43316 1.05835 0.18555 0.0
C988 C 0.43977 1.03922 0.23443 0.0
C989 C 0.44849 1.04175 0.26868 0.0
C990 C 0.45945 0.13965 0.20515 0.0
C991 C 0.44922 1.08809 0.22148 0.0
C992 C 0.45974 0.16161 0.18088 0.0
C993 C 0.45055 0.15798 0.14694 0.0
C994 C 0.44991 0.11305 0.19626 0.0
C995 C 0.44114 0.13101 0.13951 0.0
C996 C 0.44003 1.06175 0.21134 0.0
C997 C 0.45743 1.06861 0.27775 0.0
N998 N 0.44113 0.11023 0.16332 0.0
N999 N 0.45756 1.09017 0.25478 0.0
H1000 H 0.30175 0.44803 0.45492 0.0
H1001 H 0.36009 0.479 0.64622 0.0
H1002 H 0.25461 0.47954 0.53731 0.0
H1003 H 0.40952 0.44428 0.56813 0.0
H1004 H 0.32278 0.47975 0.60618 0.0
H1005 H 0.34072 0.44706 0.49336 0.0
C1006 C 0.29931 0.45499 0.48093 0.0
C1007 C 0.27389 0.46413 0.49185 0.0
C1008 C 0.34164 0.47193 0.59739 0.0
C1009 C 0.32014 0.46284 0.53772 0.0
C1010 C 0.36346 0.47146 0.62063 0.0
C1011 C 0.38903 0.46153 0.61167 0.0
C1012 C 0.34426 0.46245 0.5635 0.0
C1013 C 0.39082 0.45222 0.57727 0.0
C1014 C 0.32196 0.45431 0.50322 0.0
C1015 C 0.27316 0.47245 0.52664 0.0
N1016 N 0.36919 0.45293 0.55502 0.0
N1017 N 0.29536 0.47162 0.54762 0.0
H1018 H 0.93417 0.12122 0.40306 0.0
H1019 H 0.96191 1.06824 0.20823 0.0
H1020 H 0.96407 0.17608 0.32673 0.0
H1021 H 0.93284 1.01646 0.28828 0.0
H1022 H 0.96257 0.10734 0.24871 0.0
H1023 H 0.93343 1.08401 0.36093 0.0
C1024 C 0.94065 0.12577 0.37744 0.0
C1025 C 0.94925 0.15276 0.36953 0.0
C1026 C 0.95592 1.08751 0.25758 0.0
C1027 C 0.94836 0.10828 0.31902 0.0
C1028 C 0.95544 1.06482 0.23413 0.0
C1029 C 0.94708 1.03811 0.24385 0.0
C1030 C 0.94804 1.08432 0.29199 0.0
C1031 C 0.93931 1.03608 0.27856 0.0
C1032 C 0.94019 0.10406 0.353 0.0
C1033 C 0.95723 0.15616 0.33502 0.0
N1034 N 0.94 1.05831 0.30068 0.0
N1035 N 0.95659 0.13459 0.3116 0.0
H1036 H 0.28698 0.69944 0.14924 0.0
H1037 H 0.3461 0.73 0.95866 0.0
H1038 H 0.2371 0.73233 0.071 0.0
H1039 H 0.39253 0.69909 0.04152 0.0
H1040 H 0.30664 0.73064 0.99651 0.0
H1041 H 0.32437 0.69893 0.10934 0.0
C1042 C 0.28354 0.70662 0.12364 0.0
C1043 C 0.25783 0.71596 0.11459 0.0
C1044 C 0.32537 0.7236 0.00657 0.0
C1045 C 0.30269 0.71537 0.06659 0.0
C1046 C 0.34829 0.72313 0.98462 0.0
C1047 C 0.37366 0.71428 0.99592 0.0
C1048 C 0.32693 0.71518 0.04101 0.0
C1049 C 0.37406 0.706 0.03059 0.0
C1050 C 0.30539 0.70629 0.10047 0.0
C1051 C 0.25593 0.72484 0.08018 0.0
N1052 N 0.35166 0.70666 0.05119 0.0
N1053 N 0.27761 0.72431 0.058 0.0
H1054 H 0.6808 0.11318 0.71271 0.0
H1055 H 0.71551 1.058 0.90397 0.0
H1056 H 0.71633 0.16344 0.7909 0.0
H1057 H 0.67964 1.00532 0.82854 0.0
H1058 H 0.71603 0.09556 0.86275 0.0
H1059 H 0.68037 1.07414 0.75254 0.0
C1060 C 0.68871 0.11628 0.73807 0.0
C1061 C 0.6988 0.14255 0.74747 0.0
C1062 C 0.708 1.0759 0.85485 0.0
C1063 C 0.69815 0.09636 0.79488 0.0
C1064 C 0.70768 1.05401 0.87875 0.0
C1065 C 0.69749 1.02754 0.87076 0.0
C1066 C 0.69805 1.07233 0.82142 0.0
C1067 C 0.68777 1.02482 0.83684 0.0
C1068 C 0.68837 1.09361 0.76116 0.0
C1069 C 0.70843 0.14417 0.78148 0.0
N1070 N 0.68829 1.0465 0.814 0.0
N1071 N 0.70784 0.12195 0.80328 0.0
H1072 H 0.52109 0.20146 0.86438 0.0
H1073 H 0.66278 0.22214 0.77784 0.0
H1074 H 0.59125 0.22554 0.92051 0.0
H1075 H 0.59005 0.21511 0.72023 0.0
H1076 H 0.63682 0.22444 0.83028 0.0
H1077 H 0.54566 0.20735 0.81125 0.0
C1078 C 0.54167 0.20812 0.86545 0.0
C1079 C 0.55427 0.21277 0.89685 0.0
C1080 C 0.62649 0.22257 0.8062 0.0
C1081 C 0.58253 0.21947 0.8362 0.0
C1082 C 0.64129 0.22113 0.77628 0.0
C1083 C 0.62847 0.21804 0.74479 0.0
C1084 C 0.59866 0.22061 0.80464 0.0
C1085 C 0.60065 0.21724 0.74408 0.0
C1086 C 0.55565 0.2116 0.83514 0.0
C1087 C 0.58081 0.22178 0.89683 0.0
N1088 N 0.58663 0.21822 0.77365 0.0
N1089 N 0.59417 0.22454 0.86696 0.0
H1090 H 0.76562 0.83689 0.14875 0.0
H1091 H 0.67241 0.90152 0.00703 0.0
H1092 H 0.68056 0.82422 0.14637 0.0
H1093 H 0.75711 0.89258 0.99476 0.0
H1094 H 0.67494 0.87694 0.06094 0.0
H1095 H 0.76284 0.86099 0.09481 0.0
C1096 C 0.74637 0.83899 0.13681 0.0
C1097 C 0.7233 0.82834 0.15209 0.0
C1098 C 0.69294 0.88024 0.04637 0.0
C1099 C 0.71997 0.85641 0.0906 0.0
C1100 C 0.69152 0.89428 0.0157 0.0
C1101 C 0.71459 0.89882 0.99649 0.0
C1102 C 0.71766 0.87106 0.05801 0.0
C1103 C 0.73886 0.88921 0.00879 0.0
C1104 C 0.7448 0.85288 0.10607 0.0
C1105 C 0.69883 0.83234 0.13577 0.0
N1106 N 0.7398 0.87584 0.03891 0.0
N1107 N 0.6978 0.84609 0.10591 0.0
H1108 H 0.98101 0.96553 0.27705 0.0
H1109 H 0.12255 0.95687 0.3689 0.0
H1110 H 1.05461 0.95602 0.22205 0.0
H1111 H 1.0498 0.9789 0.4199 0.0
H1112 H 0.09757 0.95037 0.31593 0.0
H1113 H 1.00552 0.96434 0.33045 0.0
C1114 C 1.00239 0.96313 0.27624 0.0
C1115 C 1.01591 0.96128 0.24513 0.0
C1116 C 0.08707 0.95646 0.33877 0.0
C1117 C 1.04413 0.9599 0.30626 0.0
C1118 C 0.10126 0.95999 0.36905 0.0
C1119 C 0.08823 0.96859 0.3988 0.0
C1120 C 1.05964 0.96142 0.33831 0.0
C1121 C 1.06069 0.97263 0.39745 0.0
C1122 C 1.01637 0.96246 0.30677 0.0
C1123 C 1.04353 0.95783 0.24557 0.0
N1124 N 1.04734 0.96909 0.3677 0.0
N1125 N 1.05681 0.95742 0.27573 0.0
H1126 H 0.95321 0.32596 0.46982 0.0
H1127 H 0.96415 0.32449 0.67285 0.0
H1128 H 0.95521 0.25214 0.52929 0.0
H1129 H 0.93727 0.3941 0.6159 0.0
H1130 H 0.97094 0.29957 0.6193 0.0
H1131 H 0.95708 0.353 0.52241 0.0
C1132 C 0.95463 0.3155 0.49395 0.0
C1133 C 0.95338 0.2869 0.49549 0.0
C1134 C 0.96378 0.32039 0.61856 0.0
C1135 C 0.95808 0.31745 0.55529 0.0
C1136 C 0.96006 0.33463 0.64902 0.0
C1137 C 0.94986 0.36122 0.64866 0.0
C1138 C 0.95745 0.33297 0.58763 0.0
C1139 C 0.94475 0.37344 0.61718 0.0
C1140 C 0.95683 0.33088 0.52386 0.0
C1141 C 0.95564 0.27422 0.52721 0.0
N1142 N 0.94848 0.35915 0.58787 0.0
N1143 N 0.95776 0.28961 0.55595 0.0
H1144 H 0.55463 0.95754 0.09191 0.0
H1145 H 0.557 0.96248 0.29575 0.0
H1146 H 0.62475 0.97576 0.1513 0.0
H1147 H 0.48493 0.96313 0.23631 0.0
H1148 H 0.58281 0.95917 0.24305 0.0
H1149 H 0.52949 0.95112 0.14478 0.0
C1150 C 0.56478 0.95981 0.11608 0.0
C1151 C 0.59168 0.96749 0.11734 0.0
C1152 C 0.56134 0.95992 0.24156 0.0
C1153 C 0.56318 0.96033 0.17768 0.0
C1154 C 0.54665 0.96181 0.27159 0.0
C1155 C 0.5189 0.96357 0.27021 0.0
C1156 C 0.54813 0.95959 0.21004 0.0
C1157 C 0.50637 0.96225 0.23836 0.0
C1158 C 0.55043 0.95632 0.14619 0.0
C1159 C 0.6039 0.97029 0.14928 0.0
N1160 N 0.52109 0.96049 0.20948 0.0
N1161 N 0.58954 0.96684 0.17818 0.0
H1162 H 0.38477 0.34137 0.8608 0.0
H1163 H 0.47769 0.28122 0.00593 0.0
H1164 H 0.46931 0.35731 0.86475 0.0
H1165 H 0.39284 0.29009 0.01659 0.0
H1166 H 0.47544 0.30417 0.95075 0.0
H1167 H 0.38782 0.31738 0.91474 0.0
C1168 C 0.40398 0.33996 0.87307 0.0
C1169 C 0.42679 0.35164 0.85834 0.0
C1170 C 0.45736 0.30117 0.96526 0.0
C1171 C 0.43044 0.32372 0.91984 0.0
C1172 C 0.45863 0.28809 0.99663 0.0
C1173 C 0.43542 0.28407 0.01575 0.0
C1174 C 0.43267 0.30983 0.95291 0.0
C1175 C 0.41119 0.29312 1.00266 0.0
C1176 C 0.4057 0.32615 0.9038 0.0
C1177 C 0.45125 0.34845 0.875 0.0
N1178 N 0.41043 0.30552 0.97194 0.0
N1179 N 0.45243 0.33479 0.90493 0.0
H1180 H 0.09137 0.21915 0.80036 0.0
H1181 H 0.08753 0.22359 0.59668 0.0
H1182 H 0.1616 0.22222 0.7375 0.0
H1183 H 1.02034 0.19928 0.65799 0.0
H1184 H 0.11377 0.23013 0.64858 0.0
H1185 H 1.06388 0.21851 0.74883 0.0
C1186 C 0.10097 0.21979 0.77571 0.0
C1187 C 0.12875 0.22044 0.77309 0.0
C1188 C 0.09325 0.22348 0.65068 0.0
C1189 C 0.09756 0.21993 0.71422 0.0
C1190 C 0.07821 0.21993 0.6211 0.0
C1191 C 1.05175 0.21075 0.62303 0.0
C1192 C 0.08169 0.21802 0.68248 0.0
C1193 C 1.04078 0.20604 0.65534 0.0
C1194 C 0.08531 0.21939 0.74635 0.0
C1195 C 0.14022 0.22146 0.74059 0.0
N1196 N 1.05579 0.2097 0.68379 0.0
N1197 N 0.12458 0.22113 0.71241 0.0
H1198 H 0.25829 0.89822 0.51727 0.0
H1199 H 0.17681 0.82622 0.36645 0.0
H1200 H 0.17341 0.90579 0.50569 0.0
H1201 H 0.26218 0.83633 0.36607 0.0
H1202 H 0.17482 0.85302 0.41912 0.0
H1203 H 0.25988 0.87251 0.4637 0.0
C1204 C 0.23999 0.89431 0.50346 0.0
C1205 C 0.21569 0.90391 0.5158 0.0
C1206 C 0.19396 0.84939 0.40742 0.0
C1207 C 0.21729 0.87472 0.45471 0.0
C1208 C 0.19511 0.83421 0.37727 0.0
C1209 C 0.21971 0.82889 0.36187 0.0
C1210 C 0.21759 0.85915 0.42235 0.0
C1211 C 0.24281 0.83945 0.37736 0.0
C1212 C 0.2409 0.8798 0.47286 0.0
C1213 C 0.19255 0.89865 0.49691 0.0
N1214 N 0.24118 0.85397 0.40679 0.0
N1215 N 0.19389 0.88427 0.46729 0.0
H1216 H 1.01289 0.69756 0.35277 0.0
H1217 H 0.15885 0.71838 0.27818 0.0
H1218 H 0.07993 0.72178 0.4148 0.0
H1219 H 0.08879 0.71705 0.21493 0.0
H1220 H 0.13044 0.71837 0.32871 0.0
H1221 H 1.04045 0.7031 0.30188 0.0
C1222 C 1.03339 0.70412 0.35563 0.0
C1223 C 1.04418 0.70915 0.38801 0.0
C1224 C 0.12126 0.71824 0.30379 0.0
C1225 C 1.07581 0.71543 0.33004 0.0
C1226 C 0.13746 0.71817 0.27498 0.0
C1227 C 0.12609 0.71745 0.24244 0.0
C1228 C 0.09351 0.71729 0.29998 0.0
C1229 C 0.09831 0.71742 0.23963 0.0
C1230 C 1.04906 0.70742 0.32661 0.0
C1231 C 1.07078 0.71789 0.39029 0.0
N1232 N 0.08293 0.71707 0.26806 0.0
N1233 N 0.08576 0.72051 0.36171 0.0
H1234 H 0.17545 0.34115 0.66131 0.0
H1235 H 0.24921 0.37853 0.4876 0.0
H1236 H 0.25191 0.30981 0.63124 0.0
H1237 H 0.17048 0.4068 0.51224 0.0
H1238 H 0.24921 0.35144 0.53929 0.0
H1239 H 0.17167 0.36339 0.60586 0.0
C1240 C 0.1913 0.33877 0.64292 0.0
C1241 C 0.21418 0.32395 0.65096 0.0
C1242 C 0.23183 0.36341 0.5334 0.0
C1243 C 0.2101 0.34935 0.58786 0.0
C1244 C 0.23184 0.37887 0.50387 0.0
C1245 C 0.20983 0.39488 0.49581 0.0
C1246 C 0.20973 0.36415 0.55521 0.0
C1247 C 0.18785 0.39469 0.51772 0.0
C1248 C 0.18919 0.35152 0.61138 0.0
C1249 C 0.23419 0.32155 0.62634 0.0
N1250 N 0.1884 0.37964 0.54665 0.0
N1251 N 0.23174 0.33424 0.596 0.0
H1252 H 0.48659 0.46057 0.77711 0.0
H1253 H 0.63019 0.48648 0.85728 0.0
H1254 H 0.5576 0.46671 0.71604 0.0
H1255 H 0.56244 0.45995 0.91612 0.0
H1256 H 0.60404 0.48028 0.80521 0.0
H1257 H 0.51402 0.4612 0.82842 0.0
C1258 C 0.508 0.46199 0.77455 0.0
C1259 C 0.51989 0.46383 0.74238 0.0
C1260 C 0.59497 0.4756 0.82949 0.0
C1261 C 0.55139 0.46466 0.80093 0.0
C1262 C 0.60983 0.47926 0.85919 0.0
C1263 C 0.59841 0.47383 0.89105 0.0
C1264 C 0.56839 0.46679 0.83168 0.0
C1265 C 0.57207 0.46421 0.89207 0.0
C1266 C 0.52365 0.46226 0.80382 0.0
C1267 C 0.54769 0.4654 0.74042 0.0
N1268 N 0.55787 0.46124 0.86285 0.0
N1269 N 0.56252 0.46603 0.76935 0.0
H1270 H 0.45051 0.82612 0.96992 0.0
H1271 H 0.46247 0.8271 0.1729 0.0
H1272 H 0.45486 0.75292 0.03029 0.0
H1273 H 0.43083 0.89444 0.1158 0.0
H1274 H 0.4693 0.80192 0.11955 0.0
H1275 H 0.45258 0.85368 0.02231 0.0
C1276 C 0.45209 0.81591 0.9942 0.0
C1277 C 0.45208 0.78731 0.99603 0.0
C1278 C 0.46105 0.8223 0.11872 0.0
C1279 C 0.45474 0.81846 0.05561 0.0
C1280 C 0.4573 0.8367 0.14907 0.0
C1281 C 0.44586 0.86274 0.14865 0.0
C1282 C 0.45353 0.83417 0.0878 0.0
C1283 C 0.43935 0.87423 0.11716 0.0
C1284 C 0.45322 0.83158 0.024 0.0
C1285 C 0.45439 0.77498 0.02796 0.0
N1286 N 0.44321 0.85982 0.08794 0.0
N1287 N 0.45555 0.79064 0.05657 0.0
H1288 H 0.13479 0.46591 0.65439 0.0
H1289 H 0.98899 0.47583 0.73527 0.0
H1290 H 1.06541 0.49272 0.59993 0.0
H1291 H 1.05907 0.46242 0.79591 0.0
H1292 H 1.01659 0.47723 0.68437 0.0
H1293 H 0.10728 0.45974 0.70542 0.0
C1294 C 0.11376 0.47031 0.65312 0.0
C1295 C 0.1024 0.48006 0.62296 0.0
C1296 C 1.02601 0.47396 0.70875 0.0
C1297 C 1.07091 0.4731 0.68107 0.0
C1298 C 1.01024 0.47313 0.73784 0.0
C1299 C 1.02184 0.46931 0.76986 0.0
C1300 C 1.05364 0.47083 0.71156 0.0
C1301 C 1.04943 0.46567 0.77168 0.0
C1302 C 0.09812 0.46693 0.68226 0.0
C1303 C 1.07509 0.4856 0.62277 0.0
N1304 N 1.06446 0.46661 0.74288 0.0
N1305 N 1.06033 0.48206 0.65132 0.0
H1306 H 0.89457 0.87892 0.38588 0.0
H1307 H 0.97843 0.777 0.50161 0.0
H1308 H 0.96955 0.84478 0.3545 0.0
H1309 H 0.90017 0.80633 0.5268 0.0
H1310 H 0.97786 0.80485 0.44999 0.0
H1311 H 0.89867 0.85578 0.44028 0.0
C1312 C 0.91191 0.8665 0.39048 0.0
C1313 C 0.93158 0.86345 0.36551 0.0
C1314 C 0.9609 0.8053 0.46694 0.0
C1315 C 0.93652 0.83699 0.42785 0.0
C1316 C 0.96123 0.78947 0.49636 0.0
C1317 C 0.93929 0.78945 0.51835 0.0
C1318 C 0.93847 0.82115 0.45966 0.0
C1319 C 0.91748 0.80581 0.51046 0.0
C1320 C 0.9143 0.85338 0.42159 0.0
C1321 C 0.95395 0.84767 0.3731 0.0
N1322 N 0.9176 0.82095 0.48171 0.0
N1323 N 0.95573 0.83483 0.40356 0.0
H1324 H 0.51814 0.70099 0.15836 0.0
H1325 H 0.66236 0.72365 0.23749 0.0
H1326 H 0.58647 0.72382 0.09827 0.0
H1327 H 0.5911 0.72162 0.29852 0.0
H1328 H 0.63496 0.72354 0.18611 0.0
H1329 H 0.54444 0.7081 0.21008 0.0
C1330 C 0.53867 0.70761 0.15611 0.0
C1331 C 0.55022 0.71168 0.12404 0.0
C1332 C 0.62529 0.72331 0.21072 0.0
C1333 C 0.58043 0.71976 0.18299 0.0
C1334 C 0.64091 0.72329 0.24002 0.0
C1335 C 0.62891 0.72234 0.27218 0.0
C1336 C 0.59749 0.72208 0.21363 0.0
C1337 C 0.60109 0.72215 0.27413 0.0
C1338 C 0.55362 0.7118 0.18561 0.0
C1339 C 0.57678 0.72059 0.12252 0.0
N1340 N 0.58629 0.72173 0.24521 0.0
N1341 N 0.59108 0.72406 0.15159 0.0
H1342 H 0.69867 0.35743 0.04492 0.0
H1343 H 0.68539 0.35813 0.84213 0.0
H1344 H 0.69436 0.43092 0.98507 0.0
H1345 H 0.71369 0.28891 0.89868 0.0
H1346 H 0.6791 0.38309 0.8957 0.0
H1347 H 0.69509 0.33011 0.99251 0.0
C1348 C 0.69685 0.36775 0.02074 0.0
C1349 C 0.69729 0.39635 0.01904 0.0
C1350 C 0.68647 0.36235 0.89637 0.0
C1351 C 0.6929 0.36549 0.95947 0.0
C1352 C 0.68989 0.34808 0.86589 0.0
C1353 C 0.70031 0.3216 0.86613 0.0
C1354 C 0.69335 0.34991 0.9272 0.0
C1355 C 0.706 0.3095 0.89751 0.0
C1356 C 0.69481 0.35221 0.99094 0.0
C1357 C 0.69455 0.40885 0.98728 0.0
N1358 N 0.70256 0.32382 0.92686 0.0
N1359 N 0.69258 0.39332 0.95866 0.0
H1360 H 0.29381 0.23717 0.21379 0.0
H1361 H 0.20581 0.36443 0.21224 0.0
H1362 H 0.29622 0.30082 0.13829 0.0
H1363 H 0.19929 0.30028 0.28681 0.0
H1364 H 0.22452 0.33202 0.17235 0.0
H1365 H 0.24849 0.25039 0.22825 0.0
C1366 C 0.28463 0.25362 0.19986 0.0
C1367 C 0.29914 0.26859 0.17572 0.0
C1368 C 0.21837 0.32474 0.19712 0.0
C1369 C 0.24738 0.28382 0.19205 0.0
C1370 C 0.20735 0.34331 0.22 0.0
C1371 C 0.20236 0.33546 0.25373 0.0
C1372 C 0.22514 0.29852 0.20845 0.0
C1373 C 0.20435 0.30759 0.26167 0.0
C1374 C 0.25865 0.261 0.20788 0.0
C1375 C 0.28598 0.28899 0.15752 0.0
N1376 N 0.21658 0.29029 0.23965 0.0
N1377 N 0.26107 0.29644 0.16663 0.0
H1378 H 0.6272 0.68991 0.56359 0.0
H1379 H 0.48267 0.64226 0.59539 0.0
H1380 H 0.55912 0.7147 0.5051 0.0
H1381 H 0.55216 0.61315 0.64769 0.0
H1382 H 0.50719 0.68375 0.58018 0.0
H1383 H 0.59791 0.67882 0.61088 0.0
C1384 C 0.60617 0.69396 0.56107 0.0
C1385 C 0.5954 0.70209 0.52986 0.0
C1386 C 0.51683 0.66867 0.59589 0.0
C1387 C 0.56172 0.68855 0.58346 0.0
C1388 C 0.50286 0.64494 0.60445 0.0
C1389 C 0.51578 0.62374 0.62153 0.0
C1390 C 0.54398 0.67087 0.60398 0.0
C1391 C 0.54158 0.62867 0.63379 0.0
C1392 C 0.58938 0.68745 0.5881 0.0
C1393 C 0.56806 0.7073 0.52829 0.0
N1394 N 0.55511 0.65139 0.62392 0.0
N1395 N 0.55202 0.69965 0.55435 0.0
H1396 H 0.34386 0.94858 0.74287 0.0
H1397 H 0.4361 0.82713 0.71984 0.0
H1398 H 0.35993 0.91072 0.64551 0.0
H1399 H 0.42849 0.87383 0.81279 0.0
H1400 H 0.4217 0.86692 0.68782 0.0
H1401 H 0.38646 0.93296 0.76339 0.0
C1402 C 0.35662 0.93764 0.72538 0.0
C1403 C 0.34772 0.92991 0.69283 0.0
C1404 C 0.42398 0.86881 0.71513 0.0
C1405 C 0.39626 0.91096 0.71679 0.0
C1406 C 0.43216 0.84604 0.73339 0.0
C1407 C 0.43241 0.8469 0.76905 0.0
C1408 C 0.41539 0.89219 0.73285 0.0
C1409 C 0.42797 0.87207 0.78534 0.0
C1410 C 0.38105 0.92856 0.73724 0.0
C1411 C 0.36541 0.91594 0.6714 0.0
N1412 N 0.41883 0.89351 0.76719 0.0
N1413 N 0.38851 0.90617 0.68408 0.0
H1414 H 1.04527 0.70525 0.04309 0.0
H1415 H 1.02072 0.64006 0.86677 0.0
H1416 H 0.10153 0.70406 0.9602 0.0
H1417 H 0.96938 0.63375 0.95436 0.0
H1418 H 1.04012 0.68184 0.89094 0.0
H1419 H 1.00927 0.69926 1.00245 0.0
C1420 C 1.05007 0.70463 0.01624 0.0
C1421 C 1.07657 0.70389 1.00512 0.0
C1422 C 1.02397 0.67182 0.90433 0.0
C1423 C 1.03541 0.69608 0.9586 0.0
C1424 C 1.01296 0.6479 0.89059 0.0
C1425 C 0.9944 0.63265 0.90943 0.0
C1426 C 1.01657 0.68014 0.93724 0.0
C1427 C 0.98421 0.64435 0.93935 0.0
C1428 C 1.02942 0.70108 0.99298 0.0
C1429 C 0.08142 0.70338 0.96997 0.0
N1430 N 0.99602 0.66697 0.95287 0.0
N1431 N 1.06108 0.69865 0.94798 0.0
H1432 H 0.85942 0.91826 0.86428 0.0
H1433 H 0.93456 0.88014 0.6975 0.0
H1434 H 0.83823 0.94093 0.76185 0.0
H1435 H 0.94774 0.84231 0.79491 0.0
H1436 H 0.91465 0.91889 0.72622 0.0
H1437 H 0.90387 0.90655 0.84408 0.0
C1438 C 0.86419 0.92123 0.83769 0.0
C1439 C 0.84467 0.92956 0.8145 0.0
C1440 C 0.92259 0.9025 0.74145 0.0
C1441 C 0.89557 0.91676 0.79149 0.0
C1442 C 0.93426 0.88033 0.72504 0.0
C1443 C 0.94167 0.85723 0.74375 0.0
C1444 C 0.9178 0.90121 0.77658 0.0
C1445 C 0.94103 0.8591 0.7794 0.0
C1446 C 0.88967 0.91484 0.82629 0.0
C1447 C 0.85237 0.93422 0.78069 0.0
N1448 N 0.92836 0.88029 0.79468 0.0
N1449 N 0.87703 0.9272 0.7701 0.0
H1450 H 0.84741 0.37072 0.11814 0.0
H1451 H 0.94727 0.36085 0.26724 0.0
H1452 H 0.87042 0.43797 0.18392 0.0
H1453 H 0.91802 0.29336 0.2061 0.0
H1454 H 0.93491 0.39224 0.22196 0.0
H1455 H 0.88794 0.34722 0.13339 0.0
C1456 C 0.86134 0.38102 0.13499 0.0
C1457 C 0.85492 0.40589 0.15093 0.0
C1458 C 0.93196 0.37047 0.21801 0.0
C1459 C 0.90098 0.3785 0.16942 0.0
C1460 C 0.93892 0.35256 0.24391 0.0
C1461 C 0.93256 0.32461 0.24103 0.0
C1462 C 0.91827 0.3603 0.18939 0.0
C1463 C 0.92273 0.31482 0.2098 0.0
C1464 C 0.88451 0.36744 0.14386 0.0
C1465 C 0.87399 0.41821 0.17228 0.0
N1466 N 0.91518 0.33274 0.18556 0.0
N1467 N 0.89582 0.40403 0.18171 0.0
H1468 H 0.18463 1.05816 0.96125 0.0
H1469 H 1.05414 0.9747 0.96653 0.0
H1470 H 0.13074 1.04757 0.87669 0.0
H1471 H 0.10713 0.98871 0.05126 0.0
H1472 H 0.09086 0.98398 0.92754 0.0
H1473 H 0.16727 1.01626 0.98604 0.0
C1474 C 0.1698 1.04653 0.9472 0.0
C1475 C 0.15822 1.05704 0.9176 0.0
C1476 C 0.09469 0.98424 0.95466 0.0
C1477 C 0.13757 1.0096 0.94659 0.0
C1478 C 1.07369 0.97905 0.97691 0.0
C1479 C 1.0774 0.98206 0.01211 0.0
C1480 C 0.1193 0.99304 0.96782 0.0
C1481 C 0.10325 0.98677 0.02427 0.0
C1482 C 0.15972 1.0226 0.96155 0.0
C1483 C 0.13932 1.04081 0.90041 0.0
N1484 N 0.12308 0.9929 1.00214 0.0
N1485 N 0.12895 1.01832 0.9157 0.0
H1486 H 0.63394 1.0407 0.64252 0.0
H1487 H 0.60605 0.98271 0.46302 0.0
H1488 H 0.68238 1.05285 0.55321 0.0
H1489 H 0.55218 0.97883 0.54834 0.0
H1490 H 0.64304 0.98821 0.50234 0.0
H1491 H 0.61512 0.99944 0.61627 0.0
C1492 C 0.64124 1.03422 0.61784 0.0
C1493 C 0.65869 1.05098 0.59927 0.0
C1494 C 0.62322 0.98538 0.51258 0.0
C1495 C 0.63715 1.00415 0.56908 0.0
C1496 C 0.60202 0.98213 0.49007 0.0
C1497 C 0.57584 0.98154 0.50242 0.0
C1498 C 0.61809 0.9887 0.54748 0.0
C1499 C 0.57198 0.98054 0.53773 0.0
C1500 C 0.63054 1.01062 0.6029 0.0
C1501 C 0.66836 1.04104 0.5681 0.0
N1502 N 0.59281 0.98495 0.55906 0.0
N1503 N 0.65682 1.0187 0.55349 0.0
loop_
_geom_bond_atom_site_label_1
_geom_bond_atom_site_label_2
_geom_bond_distance
_geom_bond_site_symmetry_2
_ccdc_geom_bond_type
C0 Eu1 2.835 . S
C0 C2 1.500 . S
C0 O20 1.257 . S
C0 O21 1.260 . S
Eu1 C0 2.835 . S
Eu1 O20 2.473 . S
Eu1 O21 2.480 . S
Eu1 O22 2.430 . S
Eu1 O23 2.670 . S
Eu1 O24 2.394 . S
Eu1 O29 2.355 . S
Eu1 O31 2.374 . S
C2 C0 1.500 . S
C2 C3 1.377 . S
C2 C7 1.377 . S
C3 C2 1.377 . S
C3 C4 1.395 . S
C3 H32 0.931 . S
C4 C3 1.395 . S
C4 C5 1.383 . S
C4 H33 0.931 . S
C5 C4 1.383 . S
C5 C6 1.394 . S
C6 C5 1.394 . S
C6 C7 1.378 . S
C6 H34 0.931 . S
C7 C2 1.377 . S
C7 C6 1.378 . S
C7 H35 0.931 . S
C8 O22 1.259 1_556 S
C8 O23 1.270 1_556 S
C9 O24 1.251 . S
C9 O25 1.251 1_554 S
C10 Eu11 2.835 . S
C10 C12 1.500 . S
C10 O26 1.257 . S
C10 O27 1.260 . S
Eu11 C10 2.835 . S
Eu11 O23 2.355 1_556 S
Eu11 O25 2.374 . S
Eu11 O26 2.473 . S
Eu11 O27 2.480 . S
Eu11 O28 2.430 1_556 S
Eu11 O29 2.670 1_556 S
Eu11 O30 2.394 1_556 S
C12 C10 1.500 . S
C12 C13 1.377 . S
C12 C17 1.377 . S
C13 C12 1.377 . S
C13 C14 1.395 . S
C13 H36 0.931 . S
C14 C13 1.395 . S
C14 C15 1.383 . S
C14 H37 0.931 . S
C15 C14 1.383 . S
C15 C16 1.394 . S
C16 C15 1.394 . S
C16 C17 1.378 . S
C16 H38 0.931 . S
C17 C12 1.377 . S
C17 C16 1.378 . S
C17 H39 0.931 . S
C18 O28 1.259 . S
C18 O29 1.270 . S
C19 O30 1.251 . S
C19 O31 1.251 . S
O20 C0 1.257 . S
O20 Eu1 2.473 . S
O21 C0 1.260 . S
O21 Eu1 2.480 . S
O22 Eu1 2.430 . S
O22 C8 1.259 1_554 S
O23 Eu1 2.670 . S
O23 C8 1.270 1_554 S
O23 Eu11 2.355 1_554 S
O24 Eu1 2.394 . S
O24 C9 1.251 . S
O25 C9 1.251 1_556 S
O25 Eu11 2.374 . S
O26 C10 1.257 . S
O26 Eu11 2.473 . S
O27 C10 1.260 . S
O27 Eu11 2.480 . S
O28 Eu11 2.430 1_554 S
O28 C18 1.259 . S
O29 Eu1 2.355 . S
O29 Eu11 2.670 1_554 S
O29 C18 1.270 . S
O30 Eu11 2.394 1_554 S
O30 C19 1.251 . S
O31 Eu1 2.374 . S
O31 C19 1.251 . S
H32 C3 0.931 . S
H33 C4 0.931 . S
H34 C6 0.931 . S
H35 C7 0.931 . S
H36 C13 0.931 . S
H37 C14 0.931 . S
H38 C16 0.931 . S
H39 C17 0.931 . S
C40 Eu41 2.835 . S
C40 C42 1.500 . S
C40 O60 1.257 . S
C40 O61 1.260 . S
Eu41 C40 2.835 . S
Eu41 O60 2.473 . S
Eu41 O61 2.480 . S
Eu41 O62 2.430 . S
Eu41 O63 2.670 . S
Eu41 O64 2.394 . S
Eu41 O69 2.355 . S
Eu41 O71 2.374 . S
C42 C40 1.500 . S
C42 C43 1.377 . S
C42 C47 1.377 . S
C43 C42 1.377 . S
C43 C44 1.395 . S
C43 H72 0.931 . S
C44 C43 1.395 . S
C44 C45 1.383 . S
C44 H73 0.931 . S
C45 C44 1.383 . S
C45 C46 1.394 . S
C46 C45 1.394 . S
C46 C47 1.378 . S
C46 H74 0.931 . S
C47 C42 1.377 . S
C47 C46 1.378 . S
C47 H75 0.931 . S
C48 O62 1.259 . S
C48 O63 1.270 . S
C49 O64 1.251 . S
C49 O65 1.251 . S
C50 Eu51 2.835 . S
C50 C52 1.500 . S
C50 O66 1.257 . S
C50 O67 1.260 . S
Eu51 C50 2.835 . S
Eu51 O63 2.355 . S
Eu51 O65 2.374 . S
Eu51 O66 2.473 . S
Eu51 O67 2.480 . S
Eu51 O68 2.430 . S
Eu51 O69 2.670 . S
Eu51 O70 2.394 . S
C52 C50 1.500 . S
C52 C53 1.377 . S
C52 C57 1.377 . S
C53 C52 1.377 . S
C53 C54 1.395 . S
C53 H76 0.931 . S
C54 C53 1.395 . S
C54 C55 1.383 . S
C54 H77 0.931 . S
C55 C54 1.383 . S
C55 C56 1.394 . S
C56 C55 1.394 . S
C56 C57 1.378 . S
C56 H78 0.931 . S
C57 C52 1.377 . S
C57 C56 1.378 . S
C57 H79 0.931 . S
C58 O68 1.259 . S
C58 O69 1.270 . S
C59 O70 1.251 . S
C59 O71 1.251 . S
O60 C40 1.257 . S
O60 Eu41 2.473 . S
O61 C40 1.260 . S
O61 Eu41 2.480 . S
O62 Eu41 2.430 . S
O62 C48 1.259 . S
O63 Eu41 2.670 . S
O63 C48 1.270 . S
O63 Eu51 2.355 . S
O64 Eu41 2.394 . S
O64 C49 1.251 . S
O65 C49 1.251 . S
O65 Eu51 2.374 . S
O66 C50 1.257 . S
O66 Eu51 2.473 . S
O67 C50 1.260 . S
O67 Eu51 2.480 . S
O68 Eu51 2.430 . S
O68 C58 1.259 . S
O69 Eu41 2.355 . S
O69 Eu51 2.670 . S
O69 C58 1.270 . S
O70 Eu51 2.394 . S
O70 C59 1.251 . S
O71 Eu41 2.374 . S
O71 C59 1.251 . S
H72 C43 0.931 . S
H73 C44 0.931 . S
H74 C46 0.931 . S
H75 C47 0.931 . S
H76 C53 0.931 . S
H77 C54 0.931 . S
H78 C56 0.931 . S
H79 C57 0.931 . S
C80 Eu81 2.835 . S
C80 C82 1.500 . S
C80 O100 1.257 . S
C80 O101 1.260 . S
Eu81 C80 2.835 . S
Eu81 O100 2.473 . S
Eu81 O101 2.480 . S
Eu81 O102 2.430 . S
Eu81 O103 2.670 . S
Eu81 O104 2.394 . S
Eu81 O109 2.355 . S
Eu81 O111 2.374 . S
C82 C80 1.500 . S
C82 C83 1.377 . S
C82 C87 1.377 . S
C83 C82 1.377 . S
C83 C84 1.395 . S
C83 H112 0.931 . S
C84 C83 1.395 . S
C84 C85 1.383 . S
C84 H113 0.931 . S
C85 C84 1.383 . S
C85 C86 1.394 . S
C86 C85 1.394 . S
C86 C87 1.378 . S
C86 H114 0.931 . S
C87 C82 1.377 . S
C87 C86 1.378 . S
C87 H115 0.931 . S
C88 O102 1.259 . S
C88 O103 1.270 . S
C89 O104 1.251 . S
C89 O105 1.251 . S
C90 Eu91 2.835 . S
C90 C92 1.500 . S
C90 O106 1.257 . S
C90 O107 1.260 . S
Eu91 C90 2.835 . S
Eu91 O103 2.355 . S
Eu91 O105 2.374 . S
Eu91 O106 2.473 . S
Eu91 O107 2.480 . S
Eu91 O108 2.430 . S
Eu91 O109 2.670 . S
Eu91 O110 2.394 . S
C92 C90 1.500 . S
C92 C93 1.377 . S
C92 C97 1.377 . S
C93 C92 1.377 . S
C93 C94 1.395 . S
C93 H116 0.931 . S
C94 C93 1.395 . S
C94 C95 1.383 . S
C94 H117 0.931 . S
C95 C94 1.383 . S
C95 C96 1.394 . S
C96 C95 1.394 . S
C96 C97 1.378 . S
C96 H118 0.931 . S
C97 C92 1.377 . S
C97 C96 1.378 . S
C97 H119 0.931 . S
C98 O108 1.259 . S
C98 O109 1.270 . S
C99 O110 1.251 . S
C99 O111 1.251 . S
O100 C80 1.257 . S
O100 Eu81 2.473 . S
O101 C80 1.260 . S
O101 Eu81 2.480 . S
O102 Eu81 2.430 . S
O102 C88 1.259 . S
O103 Eu81 2.670 . S
O103 C88 1.270 . S
O103 Eu91 2.355 . S
O104 Eu81 2.394 . S
O104 C89 1.251 . S
O105 C89 1.251 . S
O105 Eu91 2.374 . S
O106 C90 1.257 . S
O106 Eu91 2.473 . S
O107 C90 1.260 . S
O107 Eu91 2.480 . S
O108 Eu91 2.430 . S
O108 C98 1.259 . S
O109 Eu81 2.355 . S
O109 Eu91 2.670 . S
O109 C98 1.270 . S
O110 Eu91 2.394 . S
O110 C99 1.251 . S
O111 Eu81 2.374 . S
O111 C99 1.251 . S
H112 C83 0.931 . S
H113 C84 0.931 . S
H114 C86 0.931 . S
H115 C87 0.931 . S
H116 C93 0.931 . S
H117 C94 0.931 . S
H118 C96 0.931 . S
H119 C97 0.931 . S
C120 Eu121 2.835 . S
C120 C122 1.500 . S
C120 O140 1.257 . S
C120 O141 1.260 . S
Eu121 C120 2.835 . S
Eu121 O140 2.473 . S
Eu121 O141 2.480 . S
Eu121 O142 2.430 . S
Eu121 O143 2.670 . S
Eu121 O144 2.394 . S
Eu121 O149 2.355 . S
Eu121 O151 2.374 . S
C122 C120 1.500 . S
C122 C123 1.377 . S
C122 C127 1.377 . S
C123 C122 1.377 . S
C123 C124 1.395 . S
C123 H152 0.931 . S
C124 C123 1.395 . S
C124 C125 1.383 . S
C124 H153 0.931 . S
C125 C124 1.383 . S
C125 C126 1.394 . S
C126 C125 1.394 . S
C126 C127 1.378 . S
C126 H154 0.931 . S
C127 C122 1.377 . S
C127 C126 1.378 . S
C127 H155 0.931 . S
C128 O142 1.259 . S
C128 O143 1.270 . S
C129 O144 1.251 . S
C129 O145 1.251 . S
C130 Eu131 2.835 . S
C130 C132 1.500 . S
C130 O146 1.257 . S
C130 O147 1.260 . S
Eu131 C130 2.835 . S
Eu131 O143 2.355 . S
Eu131 O145 2.374 . S
Eu131 O146 2.473 . S
Eu131 O147 2.480 . S
Eu131 O148 2.430 . S
Eu131 O149 2.670 . S
Eu131 O150 2.394 . S
C132 C130 1.500 . S
C132 C133 1.377 . S
C132 C137 1.377 . S
C133 C132 1.377 . S
C133 C134 1.395 . S
C133 H156 0.931 . S
C134 C133 1.395 . S
C134 C135 1.383 . S
C134 H157 0.931 . S
C135 C134 1.383 . S
C135 C136 1.394 . S
C136 C135 1.394 . S
C136 C137 1.378 . S
C136 H158 0.931 . S
C137 C132 1.377 . S
C137 C136 1.378 . S
C137 H159 0.931 . S
C138 O148 1.259 . S
C138 O149 1.270 . S
C139 O150 1.251 . S
C139 O151 1.251 . S
O140 C120 1.257 . S
O140 Eu121 2.473 . S
O141 C120 1.260 . S
O141 Eu121 2.480 . S
O142 Eu121 2.430 . S
O142 C128 1.259 . S
O143 Eu121 2.670 . S
O143 C128 1.270 . S
O143 Eu131 2.355 . S
O144 Eu121 2.394 . S
O144 C129 1.251 . S
O145 C129 1.251 . S
O145 Eu131 2.374 . S
O146 C130 1.257 . S
O146 Eu131 2.473 . S
O147 C130 1.260 . S
O147 Eu131 2.480 . S
O148 Eu131 2.430 . S
O148 C138 1.259 . S
O149 Eu121 2.355 . S
O149 Eu131 2.670 . S
O149 C138 1.270 . S
O150 Eu131 2.394 . S
O150 C139 1.251 . S
O151 Eu121 2.374 . S
O151 C139 1.251 . S
H152 C123 0.931 . S
H153 C124 0.931 . S
H154 C126 0.931 . S
H155 C127 0.931 . S
H156 C133 0.931 . S
H157 C134 0.931 . S
H158 C136 0.931 . S
H159 C137 0.931 . S
C160 Eu161 2.835 . S
C160 C162 1.500 . S
C160 O180 1.257 . S
C160 O181 1.260 . S
Eu161 C160 2.835 . S
Eu161 O180 2.473 . S
Eu161 O181 2.480 . S
Eu161 O182 2.430 1_554 S
Eu161 O183 2.670 1_554 S
Eu161 O184 2.394 1_554 S
Eu161 O189 2.355 1_554 S
Eu161 O191 2.374 . S
C162 C160 1.500 . S
C162 C163 1.377 . S
C162 C167 1.377 . S
C163 C162 1.377 . S
C163 C164 1.395 . S
C163 H192 0.931 . S
C164 C163 1.395 . S
C164 C165 1.383 . S
C164 H193 0.931 . S
C165 C164 1.383 . S
C165 C166 1.394 . S
C166 C165 1.394 . S
C166 C167 1.378 . S
C166 H194 0.931 . S
C167 C162 1.377 . S
C167 C166 1.378 . S
C167 H195 0.931 . S
C168 O182 1.259 . S
C168 O183 1.270 . S
C169 O184 1.251 . S
C169 O185 1.251 . S
C170 Eu171 2.835 . S
C170 C172 1.500 . S
C170 O186 1.257 . S
C170 O187 1.260 . S
Eu171 C170 2.835 . S
Eu171 O183 2.355 . S
Eu171 O185 2.374 . S
Eu171 O186 2.473 . S
Eu171 O187 2.480 . S
Eu171 O188 2.430 . S
Eu171 O189 2.670 . S
Eu171 O190 2.394 . S
C172 C170 1.500 . S
C172 C173 1.377 . S
C172 C177 1.377 . S
C173 C172 1.377 . S
C173 C174 1.395 . S
C173 H196 0.931 . S
C174 C173 1.395 . S
C174 C175 1.383 . S
C174 H197 0.931 . S
C175 C174 1.383 . S
C175 C176 1.394 . S
C176 C175 1.394 . S
C176 C177 1.378 . S
C176 H198 0.931 . S
C177 C172 1.377 . S
C177 C176 1.378 . S
C177 H199 0.931 . S
C178 O188 1.259 1_554 S
C178 O189 1.270 1_554 S
C179 O190 1.251 . S
C179 O191 1.251 1_556 S
O180 C160 1.257 . S
O180 Eu161 2.473 . S
O181 C160 1.260 . S
O181 Eu161 2.480 . S
O182 Eu161 2.430 1_556 S
O182 C168 1.259 . S
O183 Eu161 2.670 1_556 S
O183 C168 1.270 . S
O183 Eu171 2.355 . S
O184 Eu161 2.394 1_556 S
O184 C169 1.251 . S
O185 C169 1.251 . S
O185 Eu171 2.374 . S
O186 C170 1.257 . S
O186 Eu171 2.473 . S
O187 C170 1.260 . S
O187 Eu171 2.480 . S
O188 Eu171 2.430 . S
O188 C178 1.259 1_556 S
O189 Eu161 2.355 1_556 S
O189 Eu171 2.670 . S
O189 C178 1.270 1_556 S
O190 Eu171 2.394 . S
O190 C179 1.251 . S
O191 Eu161 2.374 . S
O191 C179 1.251 1_554 S
H192 C163 0.931 . S
H193 C164 0.931 . S
H194 C166 0.931 . S
H195 C167 0.931 . S
H196 C173 0.931 . S
H197 C174 0.931 . S
H198 C176 0.931 . S
H199 C177 0.931 . S
C200 Eu201 2.835 . S
C200 C202 1.500 . S
C200 O220 1.257 . S
C200 O221 1.260 . S
Eu201 C200 2.835 . S
Eu201 O220 2.473 . S
Eu201 O221 2.480 . S
Eu201 O222 2.430 . S
Eu201 O223 2.670 . S
Eu201 O224 2.394 . S
Eu201 O229 2.355 . S
Eu201 O231 2.374 . S
C202 C200 1.500 . S
C202 C203 1.377 . S
C202 C207 1.377 . S
C203 C202 1.377 . S
C203 C204 1.395 . S
C203 H232 0.931 . S
C204 C203 1.395 . S
C204 C205 1.383 . S
C204 H233 0.931 . S
C205 C204 1.383 . S
C205 C206 1.394 . S
C206 C205 1.394 . S
C206 C207 1.378 . S
C206 H234 0.931 . S
C207 C202 1.377 . S
C207 C206 1.378 . S
C207 H235 0.931 . S
C208 O222 1.259 . S
C208 O223 1.270 . S
C209 O224 1.251 . S
C209 O225 1.251 . S
C210 Eu211 2.835 . S
C210 C212 1.500 . S
C210 O226 1.257 . S
C210 O227 1.260 . S
Eu211 C210 2.835 . S
Eu211 O223 2.355 . S
Eu211 O225 2.374 . S
Eu211 O226 2.473 . S
Eu211 O227 2.480 . S
Eu211 O228 2.430 . S
Eu211 O229 2.670 . S
Eu211 O230 2.394 . S
C212 C210 1.500 . S
C212 C213 1.377 . S
C212 C217 1.377 . S
C213 C212 1.377 . S
C213 C214 1.395 . S
C213 H236 0.931 . S
C214 C213 1.395 . S
C214 C215 1.383 . S
C214 H237 0.931 . S
C215 C214 1.383 . S
C215 C216 1.394 . S
C216 C215 1.394 . S
C216 C217 1.378 . S
C216 H238 0.931 . S
C217 C212 1.377 . S
C217 C216 1.378 . S
C217 H239 0.931 . S
C218 O228 1.259 . S
C218 O229 1.270 . S
C219 O230 1.251 . S
C219 O231 1.251 . S
O220 C200 1.257 . S
O220 Eu201 2.473 . S
O221 C200 1.260 . S
O221 Eu201 2.480 . S
O222 Eu201 2.430 . S
O222 C208 1.259 . S
O223 Eu201 2.670 . S
O223 C208 1.270 . S
O223 Eu211 2.355 . S
O224 Eu201 2.394 . S
O224 C209 1.251 . S
O225 C209 1.251 . S
O225 Eu211 2.374 . S
O226 C210 1.257 . S
O226 Eu211 2.473 . S
O227 C210 1.260 . S
O227 Eu211 2.480 . S
O228 Eu211 2.430 . S
O228 C218 1.259 . S
O229 Eu201 2.355 . S
O229 Eu211 2.670 . S
O229 C218 1.270 . S
O230 Eu211 2.394 . S
O230 C219 1.251 . S
O231 Eu201 2.374 . S
O231 C219 1.251 . S
H232 C203 0.931 . S
H233 C204 0.931 . S
H234 C206 0.931 . S
H235 C207 0.931 . S
H236 C213 0.931 . S
H237 C214 0.931 . S
H238 C216 0.931 . S
H239 C217 0.931 . S
C240 Eu241 2.835 . S
C240 C242 1.500 . S
C240 O260 1.257 . S
C240 O261 1.260 . S
Eu241 C240 2.835 . S
Eu241 O260 2.473 . S
Eu241 O261 2.480 . S
Eu241 O262 2.430 . S
Eu241 O263 2.670 . S
Eu241 O264 2.394 . S
Eu241 O269 2.355 . S
Eu241 O271 2.374 . S
C242 C240 1.500 . S
C242 C243 1.377 . S
C242 C247 1.377 . S
C243 C242 1.377 . S
C243 C244 1.395 . S
C243 H272 0.931 . S
C244 C243 1.395 . S
C244 C245 1.383 . S
C244 H273 0.931 . S
C245 C244 1.383 . S
C245 C246 1.394 . S
C246 C245 1.394 . S
C246 C247 1.378 . S
C246 H274 0.931 . S
C247 C242 1.377 . S
C247 C246 1.378 . S
C247 H275 0.931 . S
C248 O262 1.259 . S
C248 O263 1.270 . S
C249 O264 1.251 . S
C249 O265 1.251 . S
C250 Eu251 2.835 . S
C250 C252 1.500 . S
C250 O266 1.257 . S
C250 O267 1.260 . S
Eu251 C250 2.835 . S
Eu251 O263 2.355 . S
Eu251 O265 2.374 . S
Eu251 O266 2.473 . S
Eu251 O267 2.480 . S
Eu251 O268 2.430 . S
Eu251 O269 2.670 . S
Eu251 O270 2.394 . S
C252 C250 1.500 . S
C252 C253 1.377 . S
C252 C257 1.377 . S
C253 C252 1.377 . S
C253 C254 1.395 . S
C253 H276 0.931 . S
C254 C253 1.395 . S
C254 C255 1.383 . S
C254 H277 0.931 . S
C255 C254 1.383 . S
C255 C256 1.394 . S
C256 C255 1.394 . S
C256 C257 1.378 . S
C256 H278 0.931 . S
C257 C252 1.377 . S
C257 C256 1.378 . S
C257 H279 0.931 . S
C258 O268 1.259 . S
C258 O269 1.270 . S
C259 O270 1.251 . S
C259 O271 1.251 . S
O260 C240 1.257 . S
O260 Eu241 2.473 . S
O261 C240 1.260 . S
O261 Eu241 2.480 . S
O262 Eu241 2.430 . S
O262 C248 1.259 . S
O263 Eu241 2.670 . S
O263 C248 1.270 . S
O263 Eu251 2.355 . S
O264 Eu241 2.394 . S
O264 C249 1.251 . S
O265 C249 1.251 . S
O265 Eu251 2.374 . S
O266 C250 1.257 . S
O266 Eu251 2.473 . S
O267 C250 1.260 . S
O267 Eu251 2.480 . S
O268 Eu251 2.430 . S
O268 C258 1.259 . S
O269 Eu241 2.355 . S
O269 Eu251 2.670 . S
O269 C258 1.270 . S
O270 Eu251 2.394 . S
O270 C259 1.251 . S
O271 Eu241 2.374 . S
O271 C259 1.251 . S
H272 C243 0.931 . S
H273 C244 0.931 . S
H274 C246 0.931 . S
H275 C247 0.931 . S
H276 C253 0.931 . S
H277 C254 0.931 . S
H278 C256 0.931 . S
H279 C257 0.931 . S
C280 Eu281 2.835 . S
C280 C282 1.500 . S
C280 O300 1.257 . S
C280 O301 1.260 . S
Eu281 C280 2.835 . S
Eu281 O300 2.473 . S
Eu281 O301 2.480 . S
Eu281 O302 2.430 . S
Eu281 O303 2.670 . S
Eu281 O304 2.394 . S
Eu281 O309 2.355 . S
Eu281 O311 2.374 . S
C282 C280 1.500 . S
C282 C283 1.377 . S
C282 C287 1.377 . S
C283 C282 1.377 . S
C283 C284 1.395 . S
C283 H312 0.931 . S
C284 C283 1.395 . S
C284 C285 1.383 . S
C284 H313 0.931 . S
C285 C284 1.383 . S
C285 C286 1.394 . S
C286 C285 1.394 . S
C286 C287 1.378 . S
C286 H314 0.931 . S
C287 C282 1.377 . S
C287 C286 1.378 . S
C287 H315 0.931 . S
C288 O302 1.259 . S
C288 O303 1.270 . S
C289 O304 1.251 . S
C289 O305 1.251 . S
C290 Eu291 2.835 . S
C290 C292 1.500 . S
C290 O306 1.257 . S
C290 O307 1.260 . S
Eu291 C290 2.835 . S
Eu291 O303 2.355 . S
Eu291 O305 2.374 . S
Eu291 O306 2.473 . S
Eu291 O307 2.480 . S
Eu291 O308 2.430 . S
Eu291 O309 2.670 . S
Eu291 O310 2.394 . S
C292 C290 1.500 . S
C292 C293 1.377 . S
C292 C297 1.377 . S
C293 C292 1.377 . S
C293 C294 1.395 . S
C293 H316 0.931 . S
C294 C293 1.395 . S
C294 C295 1.383 . S
C294 H317 0.931 . S
C295 C294 1.383 . S
C295 C296 1.394 . S
C296 C295 1.394 . S
C296 C297 1.378 . S
C296 H318 0.931 . S
C297 C292 1.377 . S
C297 C296 1.378 . S
C297 H319 0.931 . S
C298 O308 1.259 . S
C298 O309 1.270 . S
C299 O310 1.251 . S
C299 O311 1.251 . S
O300 C280 1.257 . S
O300 Eu281 2.473 . S
O301 C280 1.260 . S
O301 Eu281 2.480 . S
O302 Eu281 2.430 . S
O302 C288 1.259 . S
O303 Eu281 2.670 . S
O303 C288 1.270 . S
O303 Eu291 2.355 . S
O304 Eu281 2.394 . S
O304 C289 1.251 . S
O305 C289 1.251 . S
O305 Eu291 2.374 . S
O306 C290 1.257 . S
O306 Eu291 2.473 . S
O307 C290 1.260 . S
O307 Eu291 2.480 . S
O308 Eu291 2.430 . S
O308 C298 1.259 . S
O309 Eu281 2.355 . S
O309 Eu291 2.670 . S
O309 C298 1.270 . S
O310 Eu291 2.394 . S
O310 C299 1.251 . S
O311 Eu281 2.374 . S
O311 C299 1.251 . S
H312 C283 0.931 . S
H313 C284 0.931 . S
H314 C286 0.931 . S
H315 C287 0.931 . S
H316 C293 0.931 . S
H317 C294 0.931 . S
H318 C296 0.931 . S
H319 C297 0.931 . S
C320 Eu321 2.835 . S
C320 C322 1.500 . S
C320 O340 1.257 . S
C320 O341 1.260 . S
Eu321 C320 2.835 . S
Eu321 O340 2.473 . S
Eu321 O341 2.480 . S
Eu321 O342 2.430 . S
Eu321 O343 2.670 . S
Eu321 O344 2.394 . S
Eu321 O349 2.355 . S
Eu321 O351 2.374 . S
C322 C320 1.500 . S
C322 C323 1.377 . S
C322 C327 1.377 . S
C323 C322 1.377 . S
C323 C324 1.395 . S
C323 H352 0.931 . S
C324 C323 1.395 . S
C324 C325 1.383 . S
C324 H353 0.931 . S
C325 C324 1.383 . S
C325 C326 1.394 . S
C326 C325 1.394 . S
C326 C327 1.378 . S
C326 H354 0.931 . S
C327 C322 1.377 . S
C327 C326 1.378 . S
C327 H355 0.931 . S
C328 O342 1.259 . S
C328 O343 1.270 . S
C329 O344 1.251 . S
C329 O345 1.251 . S
C330 Eu331 2.835 . S
C330 C332 1.500 . S
C330 O346 1.257 . S
C330 O347 1.260 . S
Eu331 C330 2.835 . S
Eu331 O343 2.355 . S
Eu331 O345 2.374 . S
Eu331 O346 2.473 . S
Eu331 O347 2.480 . S
Eu331 O348 2.430 . S
Eu331 O349 2.670 . S
Eu331 O350 2.394 . S
C332 C330 1.500 . S
C332 C333 1.377 . S
C332 C337 1.377 . S
C333 C332 1.377 . S
C333 C334 1.395 . S
C333 H356 0.931 . S
C334 C333 1.395 . S
C334 C335 1.383 . S
C334 H357 0.931 . S
C335 C334 1.383 . S
C335 C336 1.394 . S
C336 C335 1.394 . S
C336 C337 1.378 . S
C336 H358 0.931 . S
C337 C332 1.377 . S
C337 C336 1.378 . S
C337 H359 0.931 . S
C338 O348 1.259 . S
C338 O349 1.270 . S
C339 O350 1.251 . S
C339 O351 1.251 . S
O340 C320 1.257 . S
O340 Eu321 2.473 . S
O341 C320 1.260 . S
O341 Eu321 2.480 . S
O342 Eu321 2.430 . S
O342 C328 1.259 . S
O343 Eu321 2.670 . S
O343 C328 1.270 . S
O343 Eu331 2.355 . S
O344 Eu321 2.394 . S
O344 C329 1.251 . S
O345 C329 1.251 . S
O345 Eu331 2.374 . S
O346 C330 1.257 . S
O346 Eu331 2.473 . S
O347 C330 1.260 . S
O347 Eu331 2.480 . S
O348 Eu331 2.430 . S
O348 C338 1.259 . S
O349 Eu321 2.355 . S
O349 Eu331 2.670 . S
O349 C338 1.270 . S
O350 Eu331 2.394 . S
O350 C339 1.251 . S
O351 Eu321 2.374 . S
O351 C339 1.251 . S
H352 C323 0.931 . S
H353 C324 0.931 . S
H354 C326 0.931 . S
H355 C327 0.931 . S
H356 C333 0.931 . S
H357 C334 0.931 . S
H358 C336 0.931 . S
H359 C337 0.931 . S
C360 Eu361 2.835 . S
C360 C362 1.500 . S
C360 O380 1.257 . S
C360 O381 1.260 . S
Eu361 C360 2.835 . S
Eu361 O380 2.473 . S
Eu361 O381 2.480 . S
Eu361 O382 2.430 . S
Eu361 O383 2.670 . S
Eu361 O384 2.394 . S
Eu361 O389 2.355 . S
Eu361 O391 2.374 . S
C362 C360 1.500 . S
C362 C363 1.377 . S
C362 C367 1.377 . S
C363 C362 1.377 . S
C363 C364 1.395 . S
C363 H392 0.931 . S
C364 C363 1.395 . S
C364 C365 1.383 . S
C364 H393 0.931 . S
C365 C364 1.383 . S
C365 C366 1.394 . S
C366 C365 1.394 . S
C366 C367 1.378 . S
C366 H394 0.931 . S
C367 C362 1.377 . S
C367 C366 1.378 . S
C367 H395 0.931 . S
C368 O382 1.259 . S
C368 O383 1.270 . S
C369 O384 1.251 . S
C369 O385 1.251 . S
C370 Eu371 2.835 . S
C370 C372 1.500 . S
C370 O386 1.257 . S
C370 O387 1.260 . S
Eu371 C370 2.835 . S
Eu371 O383 2.355 . S
Eu371 O385 2.374 . S
Eu371 O386 2.473 . S
Eu371 O387 2.480 . S
Eu371 O388 2.430 . S
Eu371 O389 2.670 . S
Eu371 O390 2.394 . S
C372 C370 1.500 . S
C372 C373 1.377 . S
C372 C377 1.377 . S
C373 C372 1.377 . S
C373 C374 1.395 . S
C373 H396 0.931 . S
C374 C373 1.395 . S
C374 C375 1.383 . S
C374 H397 0.931 . S
C375 C374 1.383 . S
C375 C376 1.394 . S
C376 C375 1.394 . S
C376 C377 1.378 . S
C376 H398 0.931 . S
C377 C372 1.377 . S
C377 C376 1.378 . S
C377 H399 0.931 . S
C378 O388 1.259 . S
C378 O389 1.270 . S
C379 O390 1.251 . S
C379 O391 1.251 . S
O380 C360 1.257 . S
O380 Eu361 2.473 . S
O381 C360 1.260 . S
O381 Eu361 2.480 . S
O382 Eu361 2.430 . S
O382 C368 1.259 . S
O383 Eu361 2.670 . S
O383 C368 1.270 . S
O383 Eu371 2.355 . S
O384 Eu361 2.394 . S
O384 C369 1.251 . S
O385 C369 1.251 . S
O385 Eu371 2.374 . S
O386 C370 1.257 . S
O386 Eu371 2.473 . S
O387 C370 1.260 . S
O387 Eu371 2.480 . S
O388 Eu371 2.430 . S
O388 C378 1.259 . S
O389 Eu361 2.355 . S
O389 Eu371 2.670 . S
O389 C378 1.270 . S
O390 Eu371 2.394 . S
O390 C379 1.251 . S
O391 Eu361 2.374 . S
O391 C379 1.251 . S
H392 C363 0.931 . S
H393 C364 0.931 . S
H394 C366 0.931 . S
H395 C367 0.931 . S
H396 C373 0.931 . S
H397 C374 0.931 . S
H398 C376 0.931 . S
H399 C377 0.931 . S
C400 Eu401 2.835 . S
C400 C402 1.500 . S
C400 O420 1.257 . S
C400 O421 1.260 . S
Eu401 C400 2.835 . S
Eu401 O420 2.473 . S
Eu401 O421 2.480 . S
Eu401 O422 2.430 . S
Eu401 O423 2.670 . S
Eu401 O424 2.394 . S
Eu401 O429 2.355 . S
Eu401 O431 2.374 . S
C402 C400 1.500 . S
C402 C403 1.377 . S
C402 C407 1.377 . S
C403 C402 1.377 . S
C403 C404 1.395 . S
C403 H432 0.931 . S
C404 C403 1.395 . S
C404 C405 1.383 . S
C404 H433 0.931 . S
C405 C404 1.383 . S
C405 C406 1.394 . S
C406 C405 1.394 . S
C406 C407 1.378 . S
C406 H434 0.931 . S
C407 C402 1.377 . S
C407 C406 1.378 . S
C407 H435 0.931 . S
C408 O422 1.259 1_556 S
C408 O423 1.270 1_556 S
C409 O424 1.251 . S
C409 O425 1.251 1_554 S
C410 Eu411 2.835 . S
C410 C412 1.500 . S
C410 O426 1.257 . S
C410 O427 1.260 . S
Eu411 C410 2.835 . S
Eu411 O423 2.355 1_556 S
Eu411 O425 2.374 . S
Eu411 O426 2.473 . S
Eu411 O427 2.480 . S
Eu411 O428 2.430 1_556 S
Eu411 O429 2.670 1_556 S
Eu411 O430 2.394 1_556 S
C412 C410 1.500 . S
C412 C413 1.377 . S
C412 C417 1.377 . S
C413 C412 1.377 . S
C413 C414 1.395 . S
C413 H436 0.931 . S
C414 C413 1.395 . S
C414 C415 1.383 . S
C414 H437 0.931 . S
C415 C414 1.383 . S
C415 C416 1.394 . S
C416 C415 1.394 . S
C416 C417 1.378 . S
C416 H438 0.931 . S
C417 C412 1.377 . S
C417 C416 1.378 . S
C417 H439 0.931 . S
C418 O428 1.259 . S
C418 O429 1.270 . S
C419 O430 1.251 . S
C419 O431 1.251 . S
O420 C400 1.257 . S
O420 Eu401 2.473 . S
O421 C400 1.260 . S
O421 Eu401 2.480 . S
O422 Eu401 2.430 . S
O422 C408 1.259 1_554 S
O423 Eu401 2.670 . S
O423 C408 1.270 1_554 S
O423 Eu411 2.355 1_554 S
O424 Eu401 2.394 . S
O424 C409 1.251 . S
O425 C409 1.251 1_556 S
O425 Eu411 2.374 . S
O426 C410 1.257 . S
O426 Eu411 2.473 . S
O427 C410 1.260 . S
O427 Eu411 2.480 . S
O428 Eu411 2.430 1_554 S
O428 C418 1.259 . S
O429 Eu401 2.355 . S
O429 Eu411 2.670 1_554 S
O429 C418 1.270 . S
O430 Eu411 2.394 1_554 S
O430 C419 1.251 . S
O431 Eu401 2.374 . S
O431 C419 1.251 . S
H432 C403 0.931 . S
H433 C404 0.931 . S
H434 C406 0.931 . S
H435 C407 0.931 . S
H436 C413 0.931 . S
H437 C414 0.931 . S
H438 C416 0.931 . S
H439 C417 0.931 . S
C440 Eu441 2.835 . S
C440 C442 1.500 . S
C440 O460 1.257 . S
C440 O461 1.260 . S
Eu441 C440 2.835 . S
Eu441 O460 2.473 . S
Eu441 O461 2.480 . S
Eu441 O462 2.430 . S
Eu441 O463 2.670 . S
Eu441 O464 2.394 . S
Eu441 O469 2.355 . S
Eu441 O471 2.374 . S
C442 C440 1.500 . S
C442 C443 1.377 . S
C442 C447 1.377 . S
C443 C442 1.377 . S
C443 C444 1.395 . S
C443 H472 0.931 . S
C444 C443 1.395 . S
C444 C445 1.383 . S
C444 H473 0.931 . S
C445 C444 1.383 . S
C445 C446 1.394 . S
C446 C445 1.394 . S
C446 C447 1.378 . S
C446 H474 0.931 . S
C447 C442 1.377 . S
C447 C446 1.378 . S
C447 H475 0.931 . S
C448 O462 1.259 . S
C448 O463 1.270 . S
C449 O464 1.251 . S
C449 O465 1.251 . S
C450 Eu451 2.835 . S
C450 C452 1.500 . S
C450 O466 1.257 . S
C450 O467 1.260 . S
Eu451 C450 2.835 . S
Eu451 O463 2.355 . S
Eu451 O465 2.374 . S
Eu451 O466 2.473 . S
Eu451 O467 2.480 . S
Eu451 O468 2.430 . S
Eu451 O469 2.670 . S
Eu451 O470 2.394 . S
C452 C450 1.500 . S
C452 C453 1.377 . S
C452 C457 1.377 . S
C453 C452 1.377 . S
C453 C454 1.395 . S
C453 H476 0.931 . S
C454 C453 1.395 . S
C454 C455 1.383 . S
C454 H477 0.931 . S
C455 C454 1.383 . S
C455 C456 1.394 . S
C456 C455 1.394 . S
C456 C457 1.378 . S
C456 H478 0.931 . S
C457 C452 1.377 . S
C457 C456 1.378 . S
C457 H479 0.931 . S
C458 O468 1.259 . S
C458 O469 1.270 . S
C459 O470 1.251 . S
C459 O471 1.251 . S
O460 C440 1.257 . S
O460 Eu441 2.473 . S
O461 C440 1.260 . S
O461 Eu441 2.480 . S
O462 Eu441 2.430 . S
O462 C448 1.259 . S
O463 Eu441 2.670 . S
O463 C448 1.270 . S
O463 Eu451 2.355 . S
O464 Eu441 2.394 . S
O464 C449 1.251 . S
O465 C449 1.251 . S
O465 Eu451 2.374 . S
O466 C450 1.257 . S
O466 Eu451 2.473 . S
O467 C450 1.260 . S
O467 Eu451 2.480 . S
O468 Eu451 2.430 . S
O468 C458 1.259 . S
O469 Eu441 2.355 . S
O469 Eu451 2.670 . S
O469 C458 1.270 . S
O470 Eu451 2.394 . S
O470 C459 1.251 . S
O471 Eu441 2.374 . S
O471 C459 1.251 . S
H472 C443 0.931 . S
H473 C444 0.931 . S
H474 C446 0.931 . S
H475 C447 0.931 . S
H476 C453 0.931 . S
H477 C454 0.931 . S
H478 C456 0.931 . S
H479 C457 0.931 . S
C480 Eu481 2.835 . S
C480 C482 1.500 . S
C480 O500 1.257 . S
C480 O501 1.260 . S
Eu481 C480 2.835 . S
Eu481 O500 2.473 . S
Eu481 O501 2.480 . S
Eu481 O502 2.430 . S
Eu481 O503 2.670 . S
Eu481 O504 2.394 . S
Eu481 O509 2.355 . S
Eu481 O511 2.374 . S
C482 C480 1.500 . S
C482 C483 1.377 . S
C482 C487 1.377 . S
C483 C482 1.377 . S
C483 C484 1.395 . S
C483 H512 0.931 . S
C484 C483 1.395 . S
C484 C485 1.383 . S
C484 H513 0.931 . S
C485 C484 1.383 . S
C485 C486 1.394 . S
C486 C485 1.394 . S
C486 C487 1.378 . S
C486 H514 0.931 . S
C487 C482 1.377 . S
C487 C486 1.378 . S
C487 H515 0.931 . S
C488 O502 1.259 . S
C488 O503 1.270 . S
C489 O504 1.251 . S
C489 O505 1.251 . S
C490 Eu491 2.835 . S
C490 C492 1.500 . S
C490 O506 1.257 . S
C490 O507 1.260 . S
Eu491 C490 2.835 . S
Eu491 O503 2.355 . S
Eu491 O505 2.374 . S
Eu491 O506 2.473 . S
Eu491 O507 2.480 . S
Eu491 O508 2.430 . S
Eu491 O509 2.670 . S
Eu491 O510 2.394 . S
C492 C490 1.500 . S
C492 C493 1.377 . S
C492 C497 1.377 . S
C493 C492 1.377 . S
C493 C494 1.395 . S
C493 H516 0.931 . S
C494 C493 1.395 . S
C494 C495 1.383 . S
C494 H517 0.931 . S
C495 C494 1.383 . S
C495 C496 1.394 . S
C496 C495 1.394 . S
C496 C497 1.378 . S
C496 H518 0.931 . S
C497 C492 1.377 . S
C497 C496 1.378 . S
C497 H519 0.931 . S
C498 O508 1.259 . S
C498 O509 1.270 . S
C499 O510 1.251 . S
C499 O511 1.251 . S
O500 C480 1.257 . S
O500 Eu481 2.473 . S
O501 C480 1.260 . S
O501 Eu481 2.480 . S
O502 Eu481 2.430 . S
O502 C488 1.259 . S
O503 Eu481 2.670 . S
O503 C488 1.270 . S
O503 Eu491 2.355 . S
O504 Eu481 2.394 . S
O504 C489 1.251 . S
O505 C489 1.251 . S
O505 Eu491 2.374 . S
O506 C490 1.257 . S
O506 Eu491 2.473 . S
O507 C490 1.260 . S
O507 Eu491 2.480 . S
O508 Eu491 2.430 . S
O508 C498 1.259 . S
O509 Eu481 2.355 . S
O509 Eu491 2.670 . S
O509 C498 1.270 . S
O510 Eu491 2.394 . S
O510 C499 1.251 . S
O511 Eu481 2.374 . S
O511 C499 1.251 . S
H512 C483 0.931 . S
H513 C484 0.931 . S
H514 C486 0.931 . S
H515 C487 0.931 . S
H516 C493 0.931 . S
H517 C494 0.931 . S
H518 C496 0.931 . S
H519 C497 0.931 . S
C520 Eu521 2.835 . S
C520 C522 1.500 . S
C520 O540 1.257 . S
C520 O541 1.260 . S
Eu521 C520 2.835 . S
Eu521 O540 2.473 . S
Eu521 O541 2.480 . S
Eu521 O542 2.430 . S
Eu521 O543 2.670 . S
Eu521 O544 2.394 . S
Eu521 O549 2.355 . S
Eu521 O551 2.374 . S
C522 C520 1.500 . S
C522 C523 1.377 . S
C522 C527 1.377 . S
C523 C522 1.377 . S
C523 C524 1.395 . S
C523 H552 0.931 . S
C524 C523 1.395 . S
C524 C525 1.383 . S
C524 H553 0.931 . S
C525 C524 1.383 . S
C525 C526 1.394 . S
C526 C525 1.394 . S
C526 C527 1.378 . S
C526 H554 0.931 . S
C527 C522 1.377 . S
C527 C526 1.378 . S
C527 H555 0.931 . S
C528 O542 1.259 . S
C528 O543 1.270 . S
C529 O544 1.251 . S
C529 O545 1.251 . S
C530 Eu531 2.835 . S
C530 C532 1.500 . S
C530 O546 1.257 . S
C530 O547 1.260 . S
Eu531 C530 2.835 . S
Eu531 O543 2.355 . S
Eu531 O545 2.374 . S
Eu531 O546 2.473 . S
Eu531 O547 2.480 . S
Eu531 O548 2.430 . S
Eu531 O549 2.670 . S
Eu531 O550 2.394 . S
C532 C530 1.500 . S
C532 C533 1.377 . S
C532 C537 1.377 . S
C533 C532 1.377 . S
C533 C534 1.395 . S
C533 H556 0.931 . S
C534 C533 1.395 . S
C534 C535 1.383 . S
C534 H557 0.931 . S
C535 C534 1.383 . S
C535 C536 1.394 . S
C536 C535 1.394 . S
C536 C537 1.378 . S
C536 H558 0.931 . S
C537 C532 1.377 . S
C537 C536 1.378 . S
C537 H559 0.931 . S
C538 O548 1.259 . S
C538 O549 1.270 . S
C539 O550 1.251 . S
C539 O551 1.251 . S
O540 C520 1.257 . S
O540 Eu521 2.473 . S
O541 C520 1.260 . S
O541 Eu521 2.480 . S
O542 Eu521 2.430 . S
O542 C528 1.259 . S
O543 Eu521 2.670 . S
O543 C528 1.270 . S
O543 Eu531 2.355 . S
O544 Eu521 2.394 . S
O544 C529 1.251 . S
O545 C529 1.251 . S
O545 Eu531 2.374 . S
O546 C530 1.257 . S
O546 Eu531 2.473 . S
O547 C530 1.260 . S
O547 Eu531 2.480 . S
O548 Eu531 2.430 . S
O548 C538 1.259 . S
O549 Eu521 2.355 . S
O549 Eu531 2.670 . S
O549 C538 1.270 . S
O550 Eu531 2.394 . S
O550 C539 1.251 . S
O551 Eu521 2.374 . S
O551 C539 1.251 . S
H552 C523 0.931 . S
H553 C524 0.931 . S
H554 C526 0.931 . S
H555 C527 0.931 . S
H556 C533 0.931 . S
H557 C534 0.931 . S
H558 C536 0.931 . S
H559 C537 0.931 . S
C560 Eu561 2.835 . S
C560 C562 1.500 . S
C560 O580 1.257 . S
C560 O581 1.260 . S
Eu561 C560 2.835 . S
Eu561 O580 2.473 . S
Eu561 O581 2.480 . S
Eu561 O582 2.430 1_554 S
Eu561 O583 2.670 1_554 S
Eu561 O584 2.394 1_554 S
Eu561 O589 2.355 1_554 S
Eu561 O591 2.374 . S
C562 C560 1.500 . S
C562 C563 1.377 . S
C562 C567 1.377 . S
C563 C562 1.377 . S
C563 C564 1.395 . S
C563 H592 0.931 . S
C564 C563 1.395 . S
C564 C565 1.383 . S
C564 H593 0.931 . S
C565 C564 1.383 . S
C565 C566 1.394 . S
C566 C565 1.394 . S
C566 C567 1.378 . S
C566 H594 0.931 . S
C567 C562 1.377 . S
C567 C566 1.378 . S
C567 H595 0.931 . S
C568 O582 1.259 . S
C568 O583 1.270 . S
C569 O584 1.251 . S
C569 O585 1.251 . S
C570 Eu571 2.835 . S
C570 C572 1.500 . S
C570 O586 1.257 . S
C570 O587 1.260 . S
Eu571 C570 2.835 . S
Eu571 O583 2.355 . S
Eu571 O585 2.374 . S
Eu571 O586 2.473 . S
Eu571 O587 2.480 . S
Eu571 O588 2.430 . S
Eu571 O589 2.670 . S
Eu571 O590 2.394 . S
C572 C570 1.500 . S
C572 C573 1.377 . S
C572 C577 1.377 . S
C573 C572 1.377 . S
C573 C574 1.395 . S
C573 H596 0.931 . S
C574 C573 1.395 . S
C574 C575 1.383 . S
C574 H597 0.931 . S
C575 C574 1.383 . S
C575 C576 1.394 . S
C576 C575 1.394 . S
C576 C577 1.378 . S
C576 H598 0.931 . S
C577 C572 1.377 . S
C577 C576 1.378 . S
C577 H599 0.931 . S
C578 O588 1.259 1_554 S
C578 O589 1.270 1_554 S
C579 O590 1.251 . S
C579 O591 1.251 1_556 S
O580 C560 1.257 . S
O580 Eu561 2.473 . S
O581 C560 1.260 . S
O581 Eu561 2.480 . S
O582 Eu561 2.430 1_556 S
O582 C568 1.259 . S
O583 Eu561 2.670 1_556 S
O583 C568 1.270 . S
O583 Eu571 2.355 . S
O584 Eu561 2.394 1_556 S
O584 C569 1.251 . S
O585 C569 1.251 . S
O585 Eu571 2.374 . S
O586 C570 1.257 . S
O586 Eu571 2.473 . S
O587 C570 1.260 . S
O587 Eu571 2.480 . S
O588 Eu571 2.430 . S
O588 C578 1.259 1_556 S
O589 Eu561 2.355 1_556 S
O589 Eu571 2.670 . S
O589 C578 1.270 1_556 S
O590 Eu571 2.394 . S
O590 C579 1.251 . S
O591 Eu561 2.374 . S
O591 C579 1.251 1_554 S
H592 C563 0.931 . S
H593 C564 0.931 . S
H594 C566 0.931 . S
H595 C567 0.931 . S
H596 C573 0.931 . S
H597 C574 0.931 . S
H598 C576 0.931 . S
H599 C577 0.931 . S
C600 Eu601 2.835 . S
C600 C602 1.500 . S
C600 O620 1.257 . S
C600 O621 1.260 . S
Eu601 C600 2.835 . S
Eu601 O620 2.473 . S
Eu601 O621 2.480 . S
Eu601 O622 2.430 . S
Eu601 O623 2.670 . S
Eu601 O624 2.394 . S
Eu601 O629 2.355 . S
Eu601 O631 2.374 . S
C602 C600 1.500 . S
C602 C603 1.377 . S
C602 C607 1.377 . S
C603 C602 1.377 . S
C603 C604 1.395 . S
C603 H632 0.931 . S
C604 C603 1.395 . S
C604 C605 1.383 . S
C604 H633 0.931 . S
C605 C604 1.383 . S
C605 C606 1.394 . S
C606 C605 1.394 . S
C606 C607 1.378 . S
C606 H634 0.931 . S
C607 C602 1.377 . S
C607 C606 1.378 . S
C607 H635 0.931 . S
C608 O622 1.259 . S
C608 O623 1.270 . S
C609 O624 1.251 . S
C609 O625 1.251 . S
C610 Eu611 2.835 . S
C610 C612 1.500 . S
C610 O626 1.257 . S
C610 O627 1.260 . S
Eu611 C610 2.835 . S
Eu611 O623 2.355 . S
Eu611 O625 2.374 . S
Eu611 O626 2.473 . S
Eu611 O627 2.480 . S
Eu611 O628 2.430 . S
Eu611 O629 2.670 . S
Eu611 O630 2.394 . S
C612 C610 1.500 . S
C612 C613 1.377 . S
C612 C617 1.377 . S
C613 C612 1.377 . S
C613 C614 1.395 . S
C613 H636 0.931 . S
C614 C613 1.395 . S
C614 C615 1.383 . S
C614 H637 0.931 . S
C615 C614 1.383 . S
C615 C616 1.394 . S
C616 C615 1.394 . S
C616 C617 1.378 . S
C616 H638 0.931 . S
C617 C612 1.377 . S
C617 C616 1.378 . S
C617 H639 0.931 . S
C618 O628 1.259 . S
C618 O629 1.270 . S
C619 O630 1.251 . S
C619 O631 1.251 . S
O620 C600 1.257 . S
O620 Eu601 2.473 . S
O621 C600 1.260 . S
O621 Eu601 2.480 . S
O622 Eu601 2.430 . S
O622 C608 1.259 . S
O623 Eu601 2.670 . S
O623 C608 1.270 . S
O623 Eu611 2.355 . S
O624 Eu601 2.394 . S
O624 C609 1.251 . S
O625 C609 1.251 . S
O625 Eu611 2.374 . S
O626 C610 1.257 . S
O626 Eu611 2.473 . S
O627 C610 1.260 . S
O627 Eu611 2.480 . S
O628 Eu611 2.430 . S
O628 C618 1.259 . S
O629 Eu601 2.355 . S
O629 Eu611 2.670 . S
O629 C618 1.270 . S
O630 Eu611 2.394 . S
O630 C619 1.251 . S
O631 Eu601 2.374 . S
O631 C619 1.251 . S
H632 C603 0.931 . S
H633 C604 0.931 . S
H634 C606 0.931 . S
H635 C607 0.931 . S
H636 C613 0.931 . S
H637 C614 0.931 . S
H638 C616 0.931 . S
H639 C617 0.931 . S
H640 C646 0.930 . S
H641 C650 0.930 . S
H642 C655 0.929 . S
H643 C653 0.929 . S
H644 C648 0.929 . S
H645 C654 0.929 . S
C646 H640 0.930 . S
C646 C647 1.367 . S
C646 C654 1.378 . S
C647 C646 1.367 . S
C647 C655 1.433 . S
C648 H644 0.929 . S
C648 C650 1.378 . S
C648 C652 1.350 . S
C649 C652 1.463 . S
C649 C654 1.350 . S
C649 N657 1.427 . S
C650 H641 0.930 . S
C650 C648 1.378 . S
C650 C651 1.367 . S
C651 C650 1.367 . S
C651 C653 1.433 . S
C652 C648 1.350 . S
C652 C649 1.463 . S
C652 N656 1.427 . S
C653 H643 0.929 . S
C653 C651 1.433 . S
C653 N656 1.384 . S
C654 H645 0.929 . S
C654 C646 1.378 . S
C654 C649 1.350 . S
C655 H642 0.929 . S
C655 C647 1.433 . S
C655 N657 1.384 . S
N656 C652 1.427 . S
N656 C653 1.384 . S
N657 C649 1.427 . S
N657 C655 1.384 . S
H658 C664 0.930 . S
H659 C668 0.930 . S
H660 C673 0.929 . S
H661 C671 0.929 . S
H662 C666 0.929 . S
H663 C672 0.929 . S
C664 H658 0.930 . S
C664 C665 1.367 . S
C664 C672 1.378 . S
C665 C664 1.367 . S
C665 C673 1.433 . S
C666 H662 0.929 . S
C666 C668 1.378 . S
C666 C670 1.350 . S
C667 C670 1.463 . S
C667 C672 1.350 . S
C667 N675 1.427 . S
C668 H659 0.930 . S
C668 C666 1.378 . S
C668 C669 1.367 . S
C669 C668 1.367 . S
C669 C671 1.433 . S
C670 C666 1.350 . S
C670 C667 1.463 . S
C670 N674 1.427 . S
C671 H661 0.929 . S
C671 C669 1.433 . S
C671 N674 1.384 . S
C672 H663 0.929 . S
C672 C664 1.378 . S
C672 C667 1.350 . S
C673 H660 0.929 . S
C673 C665 1.433 . S
C673 N675 1.384 . S
N674 C670 1.427 . S
N674 C671 1.384 . S
N675 C667 1.427 . S
N675 C673 1.384 . S
H676 C682 0.930 . S
H677 C686 0.930 . S
H678 C691 0.929 . S
H679 C689 0.929 . S
H680 C684 0.929 . S
H681 C690 0.929 . S
C682 H676 0.930 . S
C682 C683 1.367 . S
C682 C690 1.378 . S
C683 C682 1.367 . S
C683 C691 1.433 . S
C684 H680 0.929 . S
C684 C686 1.378 . S
C684 C688 1.350 . S
C685 C688 1.463 1_455 S
C685 C690 1.350 . S
C685 N693 1.427 . S
C686 H677 0.930 . S
C686 C684 1.378 . S
C686 C687 1.367 . S
C687 C686 1.367 . S
C687 C689 1.433 . S
C688 C684 1.350 . S
C688 C685 1.463 1_655 S
C688 N692 1.427 . S
C689 H679 0.929 . S
C689 C687 1.433 . S
C689 N692 1.384 . S
C690 H681 0.929 . S
C690 C682 1.378 . S
C690 C685 1.350 . S
C691 H678 0.929 . S
C691 C683 1.433 . S
C691 N693 1.384 . S
N692 C688 1.427 . S
N692 C689 1.384 . S
N693 C685 1.427 . S
N693 C691 1.384 . S
H694 C700 0.930 . S
H695 C704 0.930 . S
H696 C709 0.929 . S
H697 C707 0.929 . S
H698 C702 0.929 . S
H699 C708 0.929 . S
C700 H694 0.930 . S
C700 C701 1.367 . S
C700 C708 1.378 . S
C701 C700 1.367 . S
C701 C709 1.433 . S
C702 H698 0.929 . S
C702 C704 1.378 . S
C702 C706 1.350 . S
C703 C706 1.463 1_655 S
C703 C708 1.350 . S
C703 N711 1.427 . S
C704 H695 0.930 . S
C704 C702 1.378 . S
C704 C705 1.367 . S
C705 C704 1.367 . S
C705 C707 1.433 . S
C706 C702 1.350 . S
C706 C703 1.463 1_455 S
C706 N710 1.427 . S
C707 H697 0.929 . S
C707 C705 1.433 . S
C707 N710 1.384 . S
C708 H699 0.929 . S
C708 C700 1.378 . S
C708 C703 1.350 . S
C709 H696 0.929 . S
C709 C701 1.433 . S
C709 N711 1.384 . S
N710 C706 1.427 . S
N710 C707 1.384 . S
N711 C703 1.427 . S
N711 C709 1.384 . S
H712 C718 0.930 . S
H713 C722 0.930 1_554 S
H714 C727 0.929 1_554 S
H715 C725 0.929 . S
H716 C720 0.929 1_554 S
H717 C726 0.929 . S
C718 H712 0.930 . S
C718 C719 1.367 . S
C718 C726 1.378 . S
C719 C718 1.367 . S
C719 C727 1.433 . S
C720 H716 0.929 1_556 S
C720 C722 1.378 . S
C720 C724 1.350 . S
C721 C724 1.463 . S
C721 C726 1.350 . S
C721 N729 1.427 . S
C722 H713 0.930 1_556 S
C722 C720 1.378 . S
C722 C723 1.367 . S
C723 C722 1.367 . S
C723 C725 1.433 . S
C724 C720 1.350 . S
C724 C721 1.463 . S
C724 N728 1.427 . S
C725 H715 0.929 . S
C725 C723 1.433 . S
C725 N728 1.384 . S
C726 H717 0.929 . S
C726 C718 1.378 . S
C726 C721 1.350 . S
C727 H714 0.929 1_556 S
C727 C719 1.433 . S
C727 N729 1.384 . S
N728 C724 1.427 . S
N728 C725 1.384 . S
N729 C721 1.427 . S
N729 C727 1.384 . S
H730 C736 0.930 . S
H731 C740 0.930 . S
H732 C745 0.929 . S
H733 C743 0.929 . S
H734 C738 0.929 . S
H735 C744 0.929 . S
C736 H730 0.930 . S
C736 C737 1.367 . S
C736 C744 1.378 . S
C737 C736 1.367 . S
C737 C745 1.433 . S
C738 H734 0.929 . S
C738 C740 1.378 . S
C738 C742 1.350 . S
C739 C742 1.463 . S
C739 C744 1.350 . S
C739 N747 1.427 . S
C740 H731 0.930 . S
C740 C738 1.378 . S
C740 C741 1.367 . S
C741 C740 1.367 . S
C741 C743 1.433 . S
C742 C738 1.350 . S
C742 C739 1.463 . S
C742 N746 1.427 . S
C743 H733 0.929 . S
C743 C741 1.433 . S
C743 N746 1.384 . S
C744 H735 0.929 . S
C744 C736 1.378 . S
C744 C739 1.350 . S
C745 H732 0.929 . S
C745 C737 1.433 . S
C745 N747 1.384 . S
N746 C742 1.427 . S
N746 C743 1.384 . S
N747 C739 1.427 . S
N747 C745 1.384 . S
H748 C754 0.930 . S
H749 C758 0.930 . S
H750 C763 0.929 . S
H751 C761 0.929 . S
H752 C756 0.974 . S
H753 C762 0.974 . S
C754 H748 0.930 . S
C754 C755 1.367 . S
C754 C762 1.349 1_655 S
C755 C754 1.367 . S
C755 C763 1.433 . S
C756 H752 0.974 . S
C756 C758 1.349 1_655 S
C756 C760 1.334 1_655 S
C757 C760 1.463 1_655 S
C757 C762 1.334 1_655 S
C757 N765 1.427 . S
C758 H749 0.930 . S
C758 C756 1.349 1_455 S
C758 C759 1.367 . S
C759 C758 1.367 . S
C759 C761 1.433 . S
C760 C756 1.334 1_455 S
C760 C757 1.463 1_455 S
C760 N764 1.427 . S
C761 H751 0.929 . S
C761 C759 1.433 . S
C761 N764 1.384 . S
C762 H753 0.974 . S
C762 C754 1.349 1_455 S
C762 C757 1.334 1_455 S
C763 H750 0.929 . S
C763 C755 1.433 . S
C763 N765 1.384 . S
N764 C760 1.427 . S
N764 C761 1.384 . S
N765 C757 1.427 . S
N765 C763 1.384 . S
H766 C772 0.930 . S
H767 C776 0.930 . S
H768 C781 0.929 . S
H769 C779 0.929 . S
H770 C774 0.929 1_455 S
H771 C780 0.929 1_655 S
C772 H766 0.930 . S
C772 C773 1.367 . S
C772 C780 1.378 . S
C773 C772 1.367 . S
C773 C781 1.433 . S
C774 H770 0.929 1_655 S
C774 C776 1.378 . S
C774 C778 1.350 . S
C775 C778 1.463 1_455 S
C775 C780 1.350 . S
C775 N783 1.427 . S
C776 H767 0.930 . S
C776 C774 1.378 . S
C776 C777 1.367 . S
C777 C776 1.367 . S
C777 C779 1.433 . S
C778 C774 1.350 . S
C778 C775 1.463 1_655 S
C778 N782 1.427 . S
C779 H769 0.929 . S
C779 C777 1.433 . S
C779 N782 1.384 . S
C780 H771 0.929 1_455 S
C780 C772 1.378 . S
C780 C775 1.350 . S
C781 H768 0.929 . S
C781 C773 1.433 . S
C781 N783 1.384 . S
N782 C778 1.427 . S
N782 C779 1.384 . S
N783 C775 1.427 . S
N783 C781 1.384 . S
H784 C790 0.930 . S
H785 C794 0.930 . S
H786 C799 0.929 . S
H787 C797 0.929 . S
H788 C792 0.929 . S
H789 C798 0.929 . S
C790 H784 0.930 . S
C790 C791 1.367 . S
C790 C798 1.378 . S
C791 C790 1.367 . S
C791 C799 1.433 . S
C792 H788 0.929 . S
C792 C794 1.378 . S
C792 C796 1.350 . S
C793 C796 1.463 . S
C793 C798 1.350 . S
C793 N801 1.427 . S
C794 H785 0.930 . S
C794 C792 1.378 . S
C794 C795 1.367 . S
C795 C794 1.367 . S
C795 C797 1.433 . S
C796 C792 1.350 . S
C796 C793 1.463 . S
C796 N800 1.427 . S
C797 H787 0.929 . S
C797 C795 1.433 . S
C797 N800 1.384 . S
C798 H789 0.929 . S
C798 C790 1.378 . S
C798 C793 1.350 . S
C799 H786 0.929 . S
C799 C791 1.433 . S
C799 N801 1.384 . S
N800 C796 1.427 . S
N800 C797 1.384 . S
N801 C793 1.427 . S
N801 C799 1.384 . S
H802 C808 0.930 . S
H803 C812 0.930 . S
H804 C817 0.929 . S
H805 C815 0.929 . S
H806 C810 0.929 . S
H807 C816 0.929 . S
C808 H802 0.930 . S
C808 C809 1.367 . S
C808 C816 1.378 . S
C809 C808 1.367 . S
C809 C817 1.433 . S
C810 H806 0.929 . S
C810 C812 1.378 . S
C810 C814 1.350 . S
C811 C814 1.463 . S
C811 C816 1.350 . S
C811 N819 1.427 . S
C812 H803 0.930 . S
C812 C810 1.378 . S
C812 C813 1.367 . S
C813 C812 1.367 . S
C813 C815 1.433 . S
C814 C810 1.350 . S
C814 C811 1.463 . S
C814 N818 1.427 . S
C815 H805 0.929 . S
C815 C813 1.433 . S
C815 N818 1.384 . S
C816 H807 0.929 . S
C816 C808 1.378 . S
C816 C811 1.350 . S
C817 H804 0.929 . S
C817 C809 1.433 . S
C817 N819 1.384 . S
N818 C814 1.427 . S
N818 C815 1.384 . S
N819 C811 1.427 . S
N819 C817 1.384 . S
H820 C826 0.930 . S
H821 C830 0.930 . S
H822 C835 0.929 . S
H823 C833 0.929 . S
H824 C828 0.929 . S
H825 C834 0.929 . S
C826 H820 0.930 . S
C826 C827 1.367 . S
C826 C834 1.378 . S
C827 C826 1.367 . S
C827 C835 1.433 . S
C828 H824 0.929 . S
C828 C830 1.378 . S
C828 C832 1.350 . S
C829 C832 1.463 . S
C829 C834 1.350 . S
C829 N837 1.427 . S
C830 H821 0.930 . S
C830 C828 1.378 . S
C830 C831 1.367 . S
C831 C830 1.367 . S
C831 C833 1.433 . S
C832 C828 1.350 . S
C832 C829 1.463 . S
C832 N836 1.427 . S
C833 H823 0.929 . S
C833 C831 1.433 . S
C833 N836 1.384 . S
C834 H825 0.929 . S
C834 C826 1.378 . S
C834 C829 1.350 . S
C835 H822 0.929 . S
C835 C827 1.433 . S
C835 N837 1.384 . S
N836 C832 1.427 . S
N836 C833 1.384 . S
N837 C829 1.427 . S
N837 C835 1.384 . S
H838 C844 0.930 . S
H839 C848 0.930 . S
H840 C853 0.929 . S
H841 C851 0.929 . S
H842 C846 0.929 . S
H843 C852 0.929 . S
C844 H838 0.930 . S
C844 C845 1.367 . S
C844 C852 1.378 . S
C845 C844 1.367 . S
C845 C853 1.433 . S
C846 H842 0.929 . S
C846 C848 1.378 . S
C846 C850 1.350 . S
C847 C850 1.463 . S
C847 C852 1.350 . S
C847 N855 1.427 . S
C848 H839 0.930 . S
C848 C846 1.378 . S
C848 C849 1.367 . S
C849 C848 1.367 . S
C849 C851 1.433 . S
C850 C846 1.350 . S
C850 C847 1.463 . S
C850 N854 1.427 . S
C851 H841 0.929 . S
C851 C849 1.433 . S
C851 N854 1.384 . S
C852 H843 0.929 . S
C852 C844 1.378 . S
C852 C847 1.350 . S
C853 H840 0.929 . S
C853 C845 1.433 . S
C853 N855 1.384 . S
N854 C850 1.427 . S
N854 C851 1.384 . S
N855 C847 1.427 . S
N855 C853 1.384 . S
H856 C862 0.930 . S
H857 C866 0.930 . S
H858 C871 0.929 . S
H859 C869 0.929 . S
H860 C864 0.929 . S
H861 C870 0.929 . S
C862 H856 0.930 . S
C862 C863 1.367 . S
C862 C870 1.378 . S
C863 C862 1.367 . S
C863 C871 1.433 . S
C864 H860 0.929 . S
C864 C866 1.378 . S
C864 C868 1.350 . S
C865 C868 1.463 . S
C865 C870 1.350 . S
C865 N873 1.427 . S
C866 H857 0.930 . S
C866 C864 1.378 . S
C866 C867 1.367 . S
C867 C866 1.367 . S
C867 C869 1.433 . S
C868 C864 1.350 . S
C868 C865 1.463 . S
C868 N872 1.427 . S
C869 H859 0.929 . S
C869 C867 1.433 . S
C869 N872 1.384 . S
C870 H861 0.929 . S
C870 C862 1.378 . S
C870 C865 1.350 . S
C871 H858 0.929 . S
C871 C863 1.433 . S
C871 N873 1.384 . S
N872 C868 1.427 . S
N872 C869 1.384 . S
N873 C865 1.427 . S
N873 C871 1.384 . S
H874 C880 0.930 . S
H875 C884 0.930 . S
H876 C889 0.929 . S
H877 C887 0.929 . S
H878 C882 0.929 . S
H879 C888 0.929 . S
C880 H874 0.930 . S
C880 C881 1.367 . S
C880 C888 1.378 . S
C881 C880 1.367 . S
C881 C889 1.433 . S
C882 H878 0.929 . S
C882 C884 1.378 . S
C882 C886 1.350 . S
C883 C886 1.463 . S
C883 C888 1.350 . S
C883 N891 1.427 . S
C884 H875 0.930 . S
C884 C882 1.378 . S
C884 C885 1.367 . S
C885 C884 1.367 . S
C885 C887 1.433 . S
C886 C882 1.350 . S
C886 C883 1.463 . S
C886 N890 1.427 . S
C887 H877 0.929 . S
C887 C885 1.433 . S
C887 N890 1.384 . S
C888 H879 0.929 . S
C888 C880 1.378 . S
C888 C883 1.350 . S
C889 H876 0.929 . S
C889 C881 1.433 . S
C889 N891 1.384 . S
N890 C886 1.427 . S
N890 C887 1.384 . S
N891 C883 1.427 . S
N891 C889 1.384 . S
H892 C898 0.930 . S
H893 C902 0.930 . S
H894 C907 0.929 . S
H895 C905 0.929 . S
H896 C900 0.929 . S
H897 C906 0.929 . S
C898 H892 0.930 . S
C898 C899 1.367 . S
C898 C906 1.378 . S
C899 C898 1.367 . S
C899 C907 1.433 . S
C900 H896 0.929 . S
C900 C902 1.378 . S
C900 C904 1.350 . S
C901 C904 1.463 . S
C901 C906 1.350 . S
C901 N909 1.427 . S
C902 H893 0.930 . S
C902 C900 1.378 . S
C902 C903 1.367 . S
C903 C902 1.367 . S
C903 C905 1.433 . S
C904 C900 1.350 . S
C904 C901 1.463 . S
C904 N908 1.427 . S
C905 H895 0.929 . S
C905 C903 1.433 . S
C905 N908 1.384 . S
C906 H897 0.929 . S
C906 C898 1.378 . S
C906 C901 1.350 . S
C907 H894 0.929 . S
C907 C899 1.433 . S
C907 N909 1.384 . S
N908 C904 1.427 . S
N908 C905 1.384 . S
N909 C901 1.427 . S
N909 C907 1.384 . S
H910 C916 0.930 . S
H911 C920 0.930 . S
H912 C925 0.929 . S
H913 C923 0.929 . S
H914 C918 0.929 . S
H915 C924 0.929 . S
C916 H910 0.930 . S
C916 C917 1.367 . S
C916 C924 1.378 . S
C917 C916 1.367 . S
C917 C925 1.433 . S
C918 H914 0.929 . S
C918 C920 1.378 . S
C918 C922 1.350 . S
C919 C922 1.463 . S
C919 C924 1.350 . S
C919 N927 1.427 . S
C920 H911 0.930 . S
C920 C918 1.378 . S
C920 C921 1.367 . S
C921 C920 1.367 . S
C921 C923 1.433 . S
C922 C918 1.350 . S
C922 C919 1.463 . S
C922 N926 1.427 . S
C923 H913 0.929 . S
C923 C921 1.433 . S
C923 N926 1.384 . S
C924 H915 0.929 . S
C924 C916 1.378 . S
C924 C919 1.350 . S
C925 H912 0.929 . S
C925 C917 1.433 . S
C925 N927 1.384 . S
N926 C922 1.427 . S
N926 C923 1.384 . S
N927 C919 1.427 . S
N927 C925 1.384 . S
H928 C934 0.930 . S
H929 C938 0.930 . S
H930 C943 0.929 . S
H931 C941 0.929 . S
H932 C936 0.929 . S
H933 C942 0.929 . S
C934 H928 0.930 . S
C934 C935 1.367 . S
C934 C942 1.378 . S
C935 C934 1.367 . S
C935 C943 1.433 . S
C936 H932 0.929 . S
C936 C938 1.378 . S
C936 C940 1.350 . S
C937 C940 1.463 . S
C937 C942 1.350 . S
C937 N945 1.427 . S
C938 H929 0.930 . S
C938 C936 1.378 . S
C938 C939 1.367 . S
C939 C938 1.367 . S
C939 C941 1.433 . S
C940 C936 1.350 . S
C940 C937 1.463 . S
C940 N944 1.427 . S
C941 H931 0.929 . S
C941 C939 1.433 . S
C941 N944 1.384 . S
C942 H933 0.929 . S
C942 C934 1.378 . S
C942 C937 1.350 . S
C943 H930 0.929 . S
C943 C935 1.433 . S
C943 N945 1.384 . S
N944 C940 1.427 . S
N944 C941 1.384 . S
N945 C937 1.427 . S
N945 C943 1.384 . S
H946 C952 0.930 . S
H947 C956 0.930 . S
H948 C961 0.929 . S
H949 C959 0.929 . S
H950 C954 0.929 . S
H951 C960 0.929 . S
C952 H946 0.930 . S
C952 C953 1.367 . S
C952 C960 1.378 1_545 S
C953 C952 1.367 . S
C953 C961 1.433 . S
C954 H950 0.929 . S
C954 C956 1.378 . S
C954 C958 1.350 . S
C955 C958 1.463 . S
C955 C960 1.350 . S
C955 N963 1.427 1_565 S
C956 H947 0.930 . S
C956 C954 1.378 . S
C956 C957 1.367 . S
C957 C956 1.367 . S
C957 C959 1.433 . S
C958 C954 1.350 . S
C958 C955 1.463 . S
C958 N962 1.427 . S
C959 H949 0.929 . S
C959 C957 1.433 . S
C959 N962 1.384 . S
C960 H951 0.929 . S
C960 C952 1.378 1_565 S
C960 C955 1.350 . S
C961 H948 0.929 . S
C961 C953 1.433 . S
C961 N963 1.384 . S
N962 C958 1.427 . S
N962 C959 1.384 . S
N963 C955 1.427 1_545 S
N963 C961 1.384 . S
H964 C970 0.930 . S
H965 C974 0.930 . S
H966 C979 0.929 1_554 S
H967 C977 0.929 . S
H968 C972 0.929 . S
H969 C978 0.929 . S
C970 H964 0.930 . S
C970 C971 1.367 . S
C970 C978 1.378 . S
C971 C970 1.367 . S
C971 C979 1.433 . S
C972 H968 0.929 . S
C972 C974 1.378 . S
C972 C976 1.350 . S
C973 C976 1.463 . S
C973 C978 1.350 . S
C973 N981 1.427 . S
C974 H965 0.930 . S
C974 C972 1.378 . S
C974 C975 1.367 . S
C975 C974 1.367 . S
C975 C977 1.433 . S
C976 C972 1.350 . S
C976 C973 1.463 . S
C976 N980 1.427 . S
C977 H967 0.929 . S
C977 C975 1.433 . S
C977 N980 1.384 . S
C978 H969 0.929 . S
C978 C970 1.378 . S
C978 C973 1.350 . S
C979 H966 0.929 1_556 S
C979 C971 1.433 . S
C979 N981 1.384 . S
N980 C976 1.427 . S
N980 C977 1.384 . S
N981 C973 1.427 . S
N981 C979 1.384 . S
H982 C988 0.930 . S
H983 C992 0.930 . S
H984 C997 0.929 . S
H985 C995 0.929 . S
H986 C990 0.929 . S
H987 C996 0.929 . S
C988 H982 0.930 . S
C988 C989 1.367 . S
C988 C996 1.378 . S
C989 C988 1.367 . S
C989 C997 1.433 . S
C990 H986 0.929 . S
C990 C992 1.378 . S
C990 C994 1.350 . S
C991 C994 1.463 . S
C991 C996 1.350 1_545 S
C991 N999 1.427 . S
C992 H983 0.930 . S
C992 C990 1.378 . S
C992 C993 1.367 . S
C993 C992 1.367 . S
C993 C995 1.433 . S
C994 C990 1.350 . S
C994 C991 1.463 . S
C994 N998 1.427 . S
C995 H985 0.929 . S
C995 C993 1.433 . S
C995 N998 1.384 . S
C996 H987 0.929 . S
C996 C988 1.378 . S
C996 C991 1.350 1_565 S
C997 H984 0.929 . S
C997 C989 1.433 . S
C997 N999 1.384 1_565 S
N998 C994 1.427 . S
N998 C995 1.384 . S
N999 C991 1.427 . S
N999 C997 1.384 1_545 S
H1000 C1006 0.930 . S
H1001 C1010 0.930 . S
H1002 C1015 0.929 . S
H1003 C1013 0.929 . S
H1004 C1008 0.929 . S
H1005 C1014 0.929 . S
C1006 H1000 0.930 . S
C1006 C1007 1.367 . S
C1006 C1014 1.378 . S
C1007 C1006 1.367 . S
C1007 C1015 1.433 . S
C1008 H1004 0.929 . S
C1008 C1010 1.378 . S
C1008 C1012 1.350 . S
C1009 C1012 1.463 . S
C1009 C1014 1.350 . S
C1009 N1017 1.427 . S
C1010 H1001 0.930 . S
C1010 C1008 1.378 . S
C1010 C1011 1.367 . S
C1011 C1010 1.367 . S
C1011 C1013 1.433 . S
C1012 C1008 1.350 . S
C1012 C1009 1.463 . S
C1012 N1016 1.427 . S
C1013 H1003 0.929 . S
C1013 C1011 1.433 . S
C1013 N1016 1.384 . S
C1014 H1005 0.929 . S
C1014 C1006 1.378 . S
C1014 C1009 1.350 . S
C1015 H1002 0.929 . S
C1015 C1007 1.433 . S
C1015 N1017 1.384 . S
N1016 C1012 1.427 . S
N1016 C1013 1.384 . S
N1017 C1009 1.427 . S
N1017 C1015 1.384 . S
H1018 C1024 0.930 . S
H1019 C1028 0.930 . S
H1020 C1033 0.929 . S
H1021 C1031 0.929 . S
H1022 C1026 0.929 . S
H1023 C1032 0.929 . S
C1024 H1018 0.930 . S
C1024 C1025 1.367 . S
C1024 C1032 1.378 . S
C1025 C1024 1.367 . S
C1025 C1033 1.433 . S
C1026 H1022 0.929 . S
C1026 C1028 1.378 1_545 S
C1026 C1030 1.350 . S
C1027 C1030 1.463 . S
C1027 C1032 1.350 . S
C1027 N1035 1.427 . S
C1028 H1019 0.930 . S
C1028 C1026 1.378 1_565 S
C1028 C1029 1.367 . S
C1029 C1028 1.367 . S
C1029 C1031 1.433 . S
C1030 C1026 1.350 . S
C1030 C1027 1.463 . S
C1030 N1034 1.427 1_545 S
C1031 H1021 0.929 . S
C1031 C1029 1.433 . S
C1031 N1034 1.384 . S
C1032 H1023 0.929 . S
C1032 C1024 1.378 . S
C1032 C1027 1.350 . S
C1033 H1020 0.929 . S
C1033 C1025 1.433 . S
C1033 N1035 1.384 . S
N1034 C1030 1.427 1_565 S
N1034 C1031 1.384 . S
N1035 C1027 1.427 . S
N1035 C1033 1.384 . S
H1036 C1042 0.930 . S
H1037 C1046 0.930 . S
H1038 C1051 0.929 . S
H1039 C1049 0.929 . S
H1040 C1044 0.929 . S
H1041 C1050 0.929 . S
C1042 H1036 0.930 . S
C1042 C1043 1.367 . S
C1042 C1050 1.378 . S
C1043 C1042 1.367 . S
C1043 C1051 1.433 . S
C1044 H1040 0.929 . S
C1044 C1046 1.378 . S
C1044 C1048 1.350 . S
C1045 C1048 1.463 . S
C1045 C1050 1.350 . S
C1045 N1053 1.427 . S
C1046 H1037 0.930 . S
C1046 C1044 1.378 . S
C1046 C1047 1.367 . S
C1047 C1046 1.367 . S
C1047 C1049 1.433 . S
C1048 C1044 1.350 . S
C1048 C1045 1.463 . S
C1048 N1052 1.427 . S
C1049 H1039 0.929 . S
C1049 C1047 1.433 . S
C1049 N1052 1.384 . S
C1050 H1041 0.929 . S
C1050 C1042 1.378 . S
C1050 C1045 1.350 . S
C1051 H1038 0.929 . S
C1051 C1043 1.433 . S
C1051 N1053 1.384 . S
N1052 C1048 1.427 . S
N1052 C1049 1.384 . S
N1053 C1045 1.427 . S
N1053 C1051 1.384 . S
H1054 C1060 0.930 . S
H1055 C1064 0.930 . S
H1056 C1069 0.929 . S
H1057 C1067 0.929 . S
H1058 C1062 0.929 . S
H1059 C1068 0.929 . S
C1060 H1054 0.930 . S
C1060 C1061 1.367 . S
C1060 C1068 1.378 1_545 S
C1061 C1060 1.367 . S
C1061 C1069 1.433 . S
C1062 H1058 0.929 . S
C1062 C1064 1.378 . S
C1062 C1066 1.350 . S
C1063 C1066 1.463 . S
C1063 C1068 1.350 . S
C1063 N1071 1.427 1_565 S
C1064 H1055 0.930 . S
C1064 C1062 1.378 . S
C1064 C1065 1.367 . S
C1065 C1064 1.367 . S
C1065 C1067 1.433 . S
C1066 C1062 1.350 . S
C1066 C1063 1.463 . S
C1066 N1070 1.427 . S
C1067 H1057 0.929 . S
C1067 C1065 1.433 . S
C1067 N1070 1.384 . S
C1068 H1059 0.929 . S
C1068 C1060 1.378 1_565 S
C1068 C1063 1.350 . S
C1069 H1056 0.929 . S
C1069 C1061 1.433 . S
C1069 N1071 1.384 . S
N1070 C1066 1.427 . S
N1070 C1067 1.384 . S
N1071 C1063 1.427 1_545 S
N1071 C1069 1.384 . S
H1072 C1078 0.930 . S
H1073 C1082 0.930 . S
H1074 C1087 0.929 . S
H1075 C1085 0.929 . S
H1076 C1080 0.929 . S
H1077 C1086 0.929 . S
C1078 H1072 0.930 . S
C1078 C1079 1.367 . S
C1078 C1086 1.378 . S
C1079 C1078 1.367 . S
C1079 C1087 1.433 . S
C1080 H1076 0.929 . S
C1080 C1082 1.378 . S
C1080 C1084 1.350 . S
C1081 C1084 1.463 . S
C1081 C1086 1.350 . S
C1081 N1089 1.427 . S
C1082 H1073 0.930 . S
C1082 C1080 1.378 . S
C1082 C1083 1.367 . S
C1083 C1082 1.367 . S
C1083 C1085 1.433 . S
C1084 C1080 1.350 . S
C1084 C1081 1.463 . S
C1084 N1088 1.427 . S
C1085 H1075 0.929 . S
C1085 C1083 1.433 . S
C1085 N1088 1.384 . S
C1086 H1077 0.929 . S
C1086 C1078 1.378 . S
C1086 C1081 1.350 . S
C1087 H1074 0.929 . S
C1087 C1079 1.433 . S
C1087 N1089 1.384 . S
N1088 C1084 1.427 . S
N1088 C1085 1.384 . S
N1089 C1081 1.427 . S
N1089 C1087 1.384 . S
H1090 C1096 0.930 . S
H1091 C1100 0.930 1_556 S
H1092 C1105 0.929 . S
H1093 C1103 0.929 . S
H1094 C1098 0.929 . S
H1095 C1104 0.929 . S
C1096 H1090 0.930 . S
C1096 C1097 1.367 . S
C1096 C1104 1.378 . S
C1097 C1096 1.367 . S
C1097 C1105 1.433 . S
C1098 H1094 0.929 . S
C1098 C1100 1.378 . S
C1098 C1102 1.350 . S
C1099 C1102 1.463 . S
C1099 C1104 1.350 . S
C1099 N1107 1.427 . S
C1100 H1091 0.930 1_554 S
C1100 C1098 1.378 . S
C1100 C1101 1.367 . S
C1101 C1100 1.367 . S
C1101 C1103 1.433 . S
C1102 C1098 1.350 . S
C1102 C1099 1.463 . S
C1102 N1106 1.427 . S
C1103 H1093 0.929 . S
C1103 C1101 1.433 . S
C1103 N1106 1.384 . S
C1104 H1095 0.929 . S
C1104 C1096 1.378 . S
C1104 C1099 1.350 . S
C1105 H1092 0.929 . S
C1105 C1097 1.433 . S
C1105 N1107 1.384 . S
N1106 C1102 1.427 . S
N1106 C1103 1.384 . S
N1107 C1099 1.427 . S
N1107 C1105 1.384 . S
H1108 C1114 0.930 . S
H1109 C1118 0.930 . S
H1110 C1123 0.929 . S
H1111 C1121 0.929 . S
H1112 C1116 0.929 . S
H1113 C1122 0.929 . S
C1114 H1108 0.930 . S
C1114 C1115 1.367 . S
C1114 C1122 1.378 . S
C1115 C1114 1.367 . S
C1115 C1123 1.433 . S
C1116 H1112 0.929 . S
C1116 C1118 1.378 1_655 S
C1116 C1120 1.350 . S
C1117 C1120 1.463 . S
C1117 C1122 1.350 . S
C1117 N1125 1.427 . S
C1118 H1109 0.930 . S
C1118 C1116 1.378 1_455 S
C1118 C1119 1.367 . S
C1119 C1118 1.367 . S
C1119 C1121 1.433 1_455 S
C1120 C1116 1.350 . S
C1120 C1117 1.463 . S
C1120 N1124 1.427 . S
C1121 H1111 0.929 . S
C1121 C1119 1.433 1_655 S
C1121 N1124 1.384 . S
C1122 H1113 0.929 . S
C1122 C1114 1.378 . S
C1122 C1117 1.350 . S
C1123 H1110 0.929 . S
C1123 C1115 1.433 . S
C1123 N1125 1.384 . S
N1124 C1120 1.427 . S
N1124 C1121 1.384 . S
N1125 C1117 1.427 . S
N1125 C1123 1.384 . S
H1126 C1132 0.930 . S
H1127 C1136 0.930 . S
H1128 C1141 0.929 . S
H1129 C1139 0.929 . S
H1130 C1134 0.929 . S
H1131 C1140 0.929 . S
C1132 H1126 0.930 . S
C1132 C1133 1.367 . S
C1132 C1140 1.378 . S
C1133 C1132 1.367 . S
C1133 C1141 1.433 . S
C1134 H1130 0.929 . S
C1134 C1136 1.378 . S
C1134 C1138 1.350 . S
C1135 C1138 1.463 . S
C1135 C1140 1.350 . S
C1135 N1143 1.427 . S
C1136 H1127 0.930 . S
C1136 C1134 1.378 . S
C1136 C1137 1.367 . S
C1137 C1136 1.367 . S
C1137 C1139 1.433 . S
C1138 C1134 1.350 . S
C1138 C1135 1.463 . S
C1138 N1142 1.427 . S
C1139 H1129 0.929 . S
C1139 C1137 1.433 . S
C1139 N1142 1.384 . S
C1140 H1131 0.929 . S
C1140 C1132 1.378 . S
C1140 C1135 1.350 . S
C1141 H1128 0.929 . S
C1141 C1133 1.433 . S
C1141 N1143 1.384 . S
N1142 C1138 1.427 . S
N1142 C1139 1.384 . S
N1143 C1135 1.427 . S
N1143 C1141 1.384 . S
H1144 C1150 0.930 . S
H1145 C1154 0.930 . S
H1146 C1159 0.929 . S
H1147 C1157 0.929 . S
H1148 C1152 0.929 . S
H1149 C1158 0.929 . S
C1150 H1144 0.930 . S
C1150 C1151 1.367 . S
C1150 C1158 1.378 . S
C1151 C1150 1.367 . S
C1151 C1159 1.433 . S
C1152 H1148 0.929 . S
C1152 C1154 1.378 . S
C1152 C1156 1.350 . S
C1153 C1156 1.463 . S
C1153 C1158 1.350 . S
C1153 N1161 1.427 . S
C1154 H1145 0.930 . S
C1154 C1152 1.378 . S
C1154 C1155 1.367 . S
C1155 C1154 1.367 . S
C1155 C1157 1.433 . S
C1156 C1152 1.350 . S
C1156 C1153 1.463 . S
C1156 N1160 1.427 . S
C1157 H1147 0.929 . S
C1157 C1155 1.433 . S
C1157 N1160 1.384 . S
C1158 H1149 0.929 . S
C1158 C1150 1.378 . S
C1158 C1153 1.350 . S
C1159 H1146 0.929 . S
C1159 C1151 1.433 . S
C1159 N1161 1.384 . S
N1160 C1156 1.427 . S
N1160 C1157 1.384 . S
N1161 C1153 1.427 . S
N1161 C1159 1.384 . S
H1162 C1168 0.930 . S
H1163 C1172 0.930 1_554 S
H1164 C1177 0.929 . S
H1165 C1175 0.929 . S
H1166 C1170 0.929 . S
H1167 C1176 0.929 . S
C1168 H1162 0.930 . S
C1168 C1169 1.367 . S
C1168 C1176 1.378 . S
C1169 C1168 1.367 . S
C1169 C1177 1.433 . S
C1170 H1166 0.929 . S
C1170 C1172 1.378 . S
C1170 C1174 1.350 . S
C1171 C1174 1.463 . S
C1171 C1176 1.350 . S
C1171 N1179 1.427 . S
C1172 H1163 0.930 1_556 S
C1172 C1170 1.378 . S
C1172 C1173 1.367 . S
C1173 C1172 1.367 . S
C1173 C1175 1.433 . S
C1174 C1170 1.350 . S
C1174 C1171 1.463 . S
C1174 N1178 1.427 . S
C1175 H1165 0.929 . S
C1175 C1173 1.433 . S
C1175 N1178 1.384 . S
C1176 H1167 0.929 . S
C1176 C1168 1.378 . S
C1176 C1171 1.350 . S
C1177 H1164 0.929 . S
C1177 C1169 1.433 . S
C1177 N1179 1.384 . S
N1178 C1174 1.427 . S
N1178 C1175 1.384 . S
N1179 C1171 1.427 . S
N1179 C1177 1.384 . S
H1180 C1186 0.930 . S
H1181 C1190 0.930 1_655 S
H1182 C1195 0.929 . S
H1183 C1193 0.929 . S
H1184 C1188 0.929 . S
H1185 C1194 0.929 . S
C1186 H1180 0.930 . S
C1186 C1187 1.367 . S
C1186 C1194 1.378 . S
C1187 C1186 1.367 . S
C1187 C1195 1.433 . S
C1188 H1184 0.929 . S
C1188 C1190 1.378 . S
C1188 C1192 1.350 . S
C1189 C1192 1.463 . S
C1189 C1194 1.350 . S
C1189 N1197 1.427 . S
C1190 H1181 0.930 1_455 S
C1190 C1188 1.378 . S
C1190 C1191 1.362 1_455 S
C1191 C1190 1.362 1_655 S
C1191 C1193 1.418 1_655 S
C1192 C1188 1.350 . S
C1192 C1189 1.463 . S
C1192 N1196 1.427 . S
C1193 H1183 0.929 . S
C1193 C1191 1.418 1_455 S
C1193 N1196 1.384 . S
C1194 H1185 0.929 . S
C1194 C1186 1.378 . S
C1194 C1189 1.350 . S
C1195 H1182 0.929 . S
C1195 C1187 1.433 . S
C1195 N1197 1.384 . S
N1196 C1192 1.427 . S
N1196 C1193 1.384 . S
N1197 C1189 1.427 . S
N1197 C1195 1.384 . S
H1198 C1204 0.930 . S
H1199 C1208 0.930 . S
H1200 C1213 0.929 . S
H1201 C1211 0.929 . S
H1202 C1206 0.929 . S
H1203 C1212 0.929 . S
C1204 H1198 0.930 . S
C1204 C1205 1.367 . S
C1204 C1212 1.378 . S
C1205 C1204 1.367 . S
C1205 C1213 1.433 . S
C1206 H1202 0.929 . S
C1206 C1208 1.378 . S
C1206 C1210 1.350 . S
C1207 C1210 1.463 . S
C1207 C1212 1.350 . S
C1207 N1215 1.427 . S
C1208 H1199 0.930 . S
C1208 C1206 1.378 . S
C1208 C1209 1.367 . S
C1209 C1208 1.367 . S
C1209 C1211 1.433 . S
C1210 C1206 1.350 . S
C1210 C1207 1.463 . S
C1210 N1214 1.427 . S
C1211 H1201 0.929 . S
C1211 C1209 1.433 . S
C1211 N1214 1.384 . S
C1212 H1203 0.929 . S
C1212 C1204 1.378 . S
C1212 C1207 1.350 . S
C1213 H1200 0.929 . S
C1213 C1205 1.433 . S
C1213 N1215 1.384 . S
N1214 C1210 1.427 . S
N1214 C1211 1.384 . S
N1215 C1207 1.427 . S
N1215 C1213 1.384 . S
H1216 C1222 0.930 . S
H1217 C1226 0.930 . S
H1218 C1231 0.929 . S
H1219 C1229 0.929 . S
H1220 C1224 0.929 . S
H1221 C1230 0.929 . S
C1222 H1216 0.930 . S
C1222 C1223 1.370 . S
C1222 C1230 1.378 1_655 S
C1223 C1222 1.370 . S
C1223 C1231 1.408 1_655 S
C1224 H1220 0.929 . S
C1224 C1226 1.378 . S
C1224 C1228 1.350 . S
C1225 C1228 1.463 . S
C1225 C1230 1.350 . S
C1225 N1233 1.427 . S
C1226 H1217 0.930 . S
C1226 C1224 1.378 . S
C1226 C1227 1.367 . S
C1227 C1226 1.367 . S
C1227 C1229 1.433 . S
C1228 C1224 1.350 . S
C1228 C1225 1.463 . S
C1228 N1232 1.427 . S
C1229 H1219 0.929 . S
C1229 C1227 1.433 . S
C1229 N1232 1.384 . S
C1230 H1221 0.929 . S
C1230 C1222 1.378 1_455 S
C1230 C1225 1.350 . S
C1231 H1218 0.929 . S
C1231 C1223 1.408 1_455 S
C1231 N1233 1.384 . S
N1232 C1228 1.427 . S
N1232 C1229 1.384 . S
N1233 C1225 1.427 . S
N1233 C1231 1.384 . S
H1234 C1240 0.930 . S
H1235 C1244 0.930 . S
H1236 C1249 0.929 . S
H1237 C1247 0.929 . S
H1238 C1242 0.929 . S
H1239 C1248 0.929 . S
C1240 H1234 0.930 . S
C1240 C1241 1.367 . S
C1240 C1248 1.378 . S
C1241 C1240 1.367 . S
C1241 C1249 1.433 . S
C1242 H1238 0.929 . S
C1242 C1244 1.378 . S
C1242 C1246 1.350 . S
C1243 C1246 1.463 . S
C1243 C1248 1.350 . S
C1243 N1251 1.427 . S
C1244 H1235 0.930 . S
C1244 C1242 1.378 . S
C1244 C1245 1.367 . S
C1245 C1244 1.367 . S
C1245 C1247 1.433 . S
C1246 C1242 1.350 . S
C1246 C1243 1.463 . S
C1246 N1250 1.427 . S
C1247 H1237 0.929 . S
C1247 C1245 1.433 . S
C1247 N1250 1.384 . S
C1248 H1239 0.929 . S
C1248 C1240 1.378 . S
C1248 C1243 1.350 . S
C1249 H1236 0.929 . S
C1249 C1241 1.433 . S
C1249 N1251 1.384 . S
N1250 C1246 1.427 . S
N1250 C1247 1.384 . S
N1251 C1243 1.427 . S
N1251 C1249 1.384 . S
H1252 C1258 0.930 . S
H1253 C1262 0.930 . S
H1254 C1267 0.929 . S
H1255 C1265 0.929 . S
H1256 C1260 0.929 . S
H1257 C1266 0.929 . S
C1258 H1252 0.930 . S
C1258 C1259 1.367 . S
C1258 C1266 1.378 . S
C1259 C1258 1.367 . S
C1259 C1267 1.433 . S
C1260 H1256 0.929 . S
C1260 C1262 1.378 . S
C1260 C1264 1.350 . S
C1261 C1264 1.463 . S
C1261 C1266 1.350 . S
C1261 N1269 1.427 . S
C1262 H1253 0.930 . S
C1262 C1260 1.378 . S
C1262 C1263 1.367 . S
C1263 C1262 1.367 . S
C1263 C1265 1.433 . S
C1264 C1260 1.350 . S
C1264 C1261 1.463 . S
C1264 N1268 1.427 . S
C1265 H1255 0.929 . S
C1265 C1263 1.433 . S
C1265 N1268 1.384 . S
C1266 H1257 0.929 . S
C1266 C1258 1.378 . S
C1266 C1261 1.350 . S
C1267 H1254 0.929 . S
C1267 C1259 1.433 . S
C1267 N1269 1.384 . S
N1268 C1264 1.427 . S
N1268 C1265 1.384 . S
N1269 C1261 1.427 . S
N1269 C1267 1.384 . S
H1270 C1276 0.930 1_556 S
H1271 C1280 0.930 . S
H1272 C1285 0.929 . S
H1273 C1283 0.929 . S
H1274 C1278 0.929 . S
H1275 C1284 0.929 . S
C1276 H1270 0.930 1_554 S
C1276 C1277 1.367 . S
C1276 C1284 1.378 . S
C1277 C1276 1.367 . S
C1277 C1285 1.433 . S
C1278 H1274 0.929 . S
C1278 C1280 1.378 . S
C1278 C1282 1.350 . S
C1279 C1282 1.463 . S
C1279 C1284 1.350 . S
C1279 N1287 1.427 . S
C1280 H1271 0.930 . S
C1280 C1278 1.378 . S
C1280 C1281 1.367 . S
C1281 C1280 1.367 . S
C1281 C1283 1.433 . S
C1282 C1278 1.350 . S
C1282 C1279 1.463 . S
C1282 N1286 1.427 . S
C1283 H1273 0.929 . S
C1283 C1281 1.433 . S
C1283 N1286 1.384 . S
C1284 H1275 0.929 . S
C1284 C1276 1.378 . S
C1284 C1279 1.350 . S
C1285 H1272 0.929 . S
C1285 C1277 1.433 . S
C1285 N1287 1.384 . S
N1286 C1282 1.427 . S
N1286 C1283 1.384 . S
N1287 C1279 1.427 . S
N1287 C1285 1.384 . S
H1288 C1294 0.930 . S
H1289 C1298 0.930 . S
H1290 C1303 0.929 . S
H1291 C1301 0.929 . S
H1292 C1296 0.929 . S
H1293 C1302 0.929 . S
C1294 H1288 0.930 . S
C1294 C1295 1.367 . S
C1294 C1302 1.378 1_455 S
C1295 C1294 1.367 . S
C1295 C1303 1.433 1_455 S
C1296 H1292 0.929 . S
C1296 C1298 1.378 . S
C1296 C1300 1.350 . S
C1297 C1300 1.463 . S
C1297 C1302 1.350 . S
C1297 N1305 1.427 . S
C1298 H1289 0.930 . S
C1298 C1296 1.378 . S
C1298 C1299 1.367 . S
C1299 C1298 1.367 . S
C1299 C1301 1.433 . S
C1300 C1296 1.350 . S
C1300 C1297 1.463 . S
C1300 N1304 1.427 . S
C1301 H1291 0.929 . S
C1301 C1299 1.433 . S
C1301 N1304 1.384 . S
C1302 H1293 0.929 . S
C1302 C1294 1.378 1_655 S
C1302 C1297 1.350 . S
C1303 H1290 0.929 . S
C1303 C1295 1.433 1_655 S
C1303 N1305 1.384 . S
N1304 C1300 1.427 . S
N1304 C1301 1.384 . S
N1305 C1297 1.427 . S
N1305 C1303 1.384 . S
H1306 C1312 0.930 . S
H1307 C1316 0.930 . S
H1308 C1321 0.929 . S
H1309 C1319 0.929 . S
H1310 C1314 0.929 . S
H1311 C1320 0.929 . S
C1312 H1306 0.930 . S
C1312 C1313 1.367 . S
C1312 C1320 1.378 . S
C1313 C1312 1.367 . S
C1313 C1321 1.433 . S
C1314 H1310 0.929 . S
C1314 C1316 1.378 . S
C1314 C1318 1.350 . S
C1315 C1318 1.463 . S
C1315 C1320 1.350 . S
C1315 N1323 1.427 . S
C1316 H1307 0.930 . S
C1316 C1314 1.378 . S
C1316 C1317 1.367 . S
C1317 C1316 1.367 . S
C1317 C1319 1.433 . S
C1318 C1314 1.350 . S
C1318 C1315 1.463 . S
C1318 N1322 1.427 . S
C1319 H1309 0.929 . S
C1319 C1317 1.433 . S
C1319 N1322 1.384 . S
C1320 H1311 0.929 . S
C1320 C1312 1.378 . S
C1320 C1315 1.350 . S
C1321 H1308 0.929 . S
C1321 C1313 1.433 . S
C1321 N1323 1.384 . S
N1322 C1318 1.427 . S
N1322 C1319 1.384 . S
N1323 C1315 1.427 . S
N1323 C1321 1.384 . S
H1324 C1330 0.930 . S
H1325 C1334 0.930 . S
H1326 C1339 0.929 . S
H1327 C1337 0.929 . S
H1328 C1332 0.929 . S
H1329 C1338 0.929 . S
C1330 H1324 0.930 . S
C1330 C1331 1.367 . S
C1330 C1338 1.378 . S
C1331 C1330 1.367 . S
C1331 C1339 1.433 . S
C1332 H1328 0.929 . S
C1332 C1334 1.378 . S
C1332 C1336 1.350 . S
C1333 C1336 1.463 . S
C1333 C1338 1.350 . S
C1333 N1341 1.427 . S
C1334 H1325 0.930 . S
C1334 C1332 1.378 . S
C1334 C1335 1.367 . S
C1335 C1334 1.367 . S
C1335 C1337 1.433 . S
C1336 C1332 1.350 . S
C1336 C1333 1.463 . S
C1336 N1340 1.427 . S
C1337 H1327 0.929 . S
C1337 C1335 1.433 . S
C1337 N1340 1.384 . S
C1338 H1329 0.929 . S
C1338 C1330 1.378 . S
C1338 C1333 1.350 . S
C1339 H1326 0.929 . S
C1339 C1331 1.433 . S
C1339 N1341 1.384 . S
N1340 C1336 1.427 . S
N1340 C1337 1.384 . S
N1341 C1333 1.427 . S
N1341 C1339 1.384 . S
H1342 C1348 0.930 . S
H1343 C1352 0.930 . S
H1344 C1357 0.929 1_554 S
H1345 C1355 0.929 . S
H1346 C1350 0.929 . S
H1347 C1356 0.929 . S
C1348 H1342 0.930 . S
C1348 C1349 1.367 . S
C1348 C1356 1.378 . S
C1349 C1348 1.367 . S
C1349 C1357 1.433 . S
C1350 H1346 0.929 . S
C1350 C1352 1.378 . S
C1350 C1354 1.350 . S
C1351 C1354 1.463 . S
C1351 C1356 1.350 . S
C1351 N1359 1.427 . S
C1352 H1343 0.930 . S
C1352 C1350 1.378 . S
C1352 C1353 1.367 . S
C1353 C1352 1.367 . S
C1353 C1355 1.433 . S
C1354 C1350 1.350 . S
C1354 C1351 1.463 . S
C1354 N1358 1.427 . S
C1355 H1345 0.929 . S
C1355 C1353 1.433 . S
C1355 N1358 1.384 . S
C1356 H1347 0.929 . S
C1356 C1348 1.378 . S
C1356 C1351 1.350 . S
C1357 H1344 0.929 1_556 S
C1357 C1349 1.433 . S
C1357 N1359 1.384 . S
N1358 C1354 1.427 . S
N1358 C1355 1.384 . S
N1359 C1351 1.427 . S
N1359 C1357 1.384 . S
H1360 C1366 0.930 . S
H1361 C1370 0.930 . S
H1362 C1375 0.929 . S
H1363 C1373 0.929 . S
H1364 C1368 0.929 . S
H1365 C1374 0.929 . S
C1366 H1360 0.930 . S
C1366 C1367 1.367 . S
C1366 C1374 1.378 . S
C1367 C1366 1.367 . S
C1367 C1375 1.433 . S
C1368 H1364 0.929 . S
C1368 C1370 1.378 . S
C1368 C1372 1.350 . S
C1369 C1372 1.463 . S
C1369 C1374 1.350 . S
C1369 N1377 1.427 . S
C1370 H1361 0.930 . S
C1370 C1368 1.378 . S
C1370 C1371 1.367 . S
C1371 C1370 1.367 . S
C1371 C1373 1.433 . S
C1372 C1368 1.350 . S
C1372 C1369 1.463 . S
C1372 N1376 1.427 . S
C1373 H1363 0.929 . S
C1373 C1371 1.433 . S
C1373 N1376 1.384 . S
C1374 H1365 0.929 . S
C1374 C1366 1.378 . S
C1374 C1369 1.350 . S
C1375 H1362 0.929 . S
C1375 C1367 1.433 . S
C1375 N1377 1.384 . S
N1376 C1372 1.427 . S
N1376 C1373 1.384 . S
N1377 C1369 1.427 . S
N1377 C1375 1.384 . S
H1378 C1384 0.930 . S
H1379 C1388 0.930 . S
H1380 C1393 0.929 . S
H1381 C1391 0.929 . S
H1382 C1386 0.929 . S
H1383 C1392 0.929 . S
C1384 H1378 0.930 . S
C1384 C1385 1.367 . S
C1384 C1392 1.378 . S
C1385 C1384 1.367 . S
C1385 C1393 1.433 . S
C1386 H1382 0.929 . S
C1386 C1388 1.378 . S
C1386 C1390 1.350 . S
C1387 C1390 1.463 . S
C1387 C1392 1.350 . S
C1387 N1395 1.427 . S
C1388 H1379 0.930 . S
C1388 C1386 1.378 . S
C1388 C1389 1.367 . S
C1389 C1388 1.367 . S
C1389 C1391 1.433 . S
C1390 C1386 1.350 . S
C1390 C1387 1.463 . S
C1390 N1394 1.427 . S
C1391 H1381 0.929 . S
C1391 C1389 1.433 . S
C1391 N1394 1.384 . S
C1392 H1383 0.929 . S
C1392 C1384 1.378 . S
C1392 C1387 1.350 . S
C1393 H1380 0.929 . S
C1393 C1385 1.433 . S
C1393 N1395 1.384 . S
N1394 C1390 1.427 . S
N1394 C1391 1.384 . S
N1395 C1387 1.427 . S
N1395 C1393 1.384 . S
H1396 C1402 0.930 . S
H1397 C1406 0.930 . S
H1398 C1411 0.929 . S
H1399 C1409 0.929 . S
H1400 C1404 0.929 . S
H1401 C1410 0.929 . S
C1402 H1396 0.930 . S
C1402 C1403 1.367 . S
C1402 C1410 1.378 . S
C1403 C1402 1.367 . S
C1403 C1411 1.433 . S
C1404 H1400 0.929 . S
C1404 C1406 1.378 . S
C1404 C1408 1.350 . S
C1405 C1408 1.463 . S
C1405 C1410 1.350 . S
C1405 N1413 1.427 . S
C1406 H1397 0.930 . S
C1406 C1404 1.378 . S
C1406 C1407 1.367 . S
C1407 C1406 1.367 . S
C1407 C1409 1.433 . S
C1408 C1404 1.350 . S
C1408 C1405 1.463 . S
C1408 N1412 1.427 . S
C1409 H1399 0.929 . S
C1409 C1407 1.433 . S
C1409 N1412 1.384 . S
C1410 H1401 0.929 . S
C1410 C1402 1.378 . S
C1410 C1405 1.350 . S
C1411 H1398 0.929 . S
C1411 C1403 1.433 . S
C1411 N1413 1.384 . S
N1412 C1408 1.427 . S
N1412 C1409 1.384 . S
N1413 C1405 1.427 . S
N1413 C1411 1.384 . S
H1414 C1420 0.930 . S
H1415 C1424 0.930 . S
H1416 C1429 0.929 . S
H1417 C1427 0.929 . S
H1418 C1422 0.902 1_455 S
H1419 C1428 0.902 1_655 S
C1420 H1414 0.930 . S
C1420 C1421 1.367 . S
C1420 C1428 1.378 . S
C1421 C1420 1.367 . S
C1421 C1429 1.433 . S
C1422 H1418 0.902 1_655 S
C1422 C1424 1.378 . S
C1422 C1426 1.350 . S
C1423 C1426 1.463 1_454 S
C1423 C1428 1.350 . S
C1423 N1431 1.427 . S
C1424 H1415 0.930 . S
C1424 C1422 1.378 . S
C1424 C1425 1.367 . S
C1425 C1424 1.367 . S
C1425 C1427 1.433 . S
C1426 C1422 1.350 . S
C1426 C1423 1.463 1_656 S
C1426 N1430 1.427 . S
C1427 H1417 0.929 . S
C1427 C1425 1.433 . S
C1427 N1430 1.384 . S
C1428 H1419 0.902 1_455 S
C1428 C1420 1.378 . S
C1428 C1423 1.350 . S
C1429 H1416 0.929 . S
C1429 C1421 1.433 . S
C1429 N1431 1.384 . S
N1430 C1426 1.427 . S
N1430 C1427 1.384 . S
N1431 C1423 1.427 . S
N1431 C1429 1.384 . S
H1432 C1438 0.930 . S
H1433 C1442 0.930 . S
H1434 C1447 0.929 . S
H1435 C1445 0.929 . S
H1436 C1440 0.929 . S
H1437 C1446 0.929 . S
C1438 H1432 0.930 . S
C1438 C1439 1.367 . S
C1438 C1446 1.378 . S
C1439 C1438 1.367 . S
C1439 C1447 1.433 . S
C1440 H1436 0.929 . S
C1440 C1442 1.378 . S
C1440 C1444 1.350 . S
C1441 C1444 1.463 . S
C1441 C1446 1.350 . S
C1441 N1449 1.427 . S
C1442 H1433 0.930 . S
C1442 C1440 1.378 . S
C1442 C1443 1.367 . S
C1443 C1442 1.367 . S
C1443 C1445 1.433 . S
C1444 C1440 1.350 . S
C1444 C1441 1.463 . S
C1444 N1448 1.427 . S
C1445 H1435 0.929 . S
C1445 C1443 1.433 . S
C1445 N1448 1.384 . S
C1446 H1437 0.929 . S
C1446 C1438 1.378 . S
C1446 C1441 1.350 . S
C1447 H1434 0.929 . S
C1447 C1439 1.433 . S
C1447 N1449 1.384 . S
N1448 C1444 1.427 . S
N1448 C1445 1.384 . S
N1449 C1441 1.427 . S
N1449 C1447 1.384 . S
H1450 C1456 0.930 . S
H1451 C1460 0.930 . S
H1452 C1465 0.929 . S
H1453 C1463 0.929 . S
H1454 C1458 0.929 . S
H1455 C1464 0.929 . S
C1456 H1450 0.930 . S
C1456 C1457 1.367 . S
C1456 C1464 1.378 . S
C1457 C1456 1.367 . S
C1457 C1465 1.433 . S
C1458 H1454 0.929 . S
C1458 C1460 1.378 . S
C1458 C1462 1.350 . S
C1459 C1462 1.463 . S
C1459 C1464 1.350 . S
C1459 N1467 1.427 . S
C1460 H1451 0.930 . S
C1460 C1458 1.378 . S
C1460 C1461 1.367 . S
C1461 C1460 1.367 . S
C1461 C1463 1.433 . S
C1462 C1458 1.350 . S
C1462 C1459 1.463 . S
C1462 N1466 1.427 . S
C1463 H1453 0.929 . S
C1463 C1461 1.433 . S
C1463 N1466 1.384 . S
C1464 H1455 0.929 . S
C1464 C1456 1.378 . S
C1464 C1459 1.350 . S
C1465 H1452 0.929 . S
C1465 C1457 1.433 . S
C1465 N1467 1.384 . S
N1466 C1462 1.427 . S
N1466 C1463 1.384 . S
N1467 C1459 1.427 . S
N1467 C1465 1.384 . S
H1468 C1474 0.930 . S
H1469 C1478 0.930 . S
H1470 C1483 0.929 . S
H1471 C1481 0.929 . S
H1472 C1476 0.929 1_556 S
H1473 C1482 0.929 1_554 S
C1474 H1468 0.930 . S
C1474 C1475 1.367 1_565 S
C1474 C1482 1.378 . S
C1475 C1474 1.367 1_545 S
C1475 C1483 1.433 . S
C1476 H1472 0.929 1_554 S
C1476 C1478 1.378 . S
C1476 C1480 1.345 1_545 S
C1477 C1480 1.461 1_446 S
C1477 C1482 1.345 1_545 S
C1477 N1485 1.435 . S
C1478 H1469 0.930 . S
C1478 C1476 1.378 . S
C1478 C1479 1.367 1_545 S
C1479 C1478 1.367 1_565 S
C1479 C1481 1.433 . S
C1480 C1476 1.345 1_565 S
C1480 C1477 1.461 1_664 S
C1480 N1484 1.435 . S
C1481 H1471 0.929 . S
C1481 C1479 1.433 . S
C1481 N1484 1.384 . S
C1482 H1473 0.929 1_556 S
C1482 C1474 1.378 . S
C1482 C1477 1.345 1_565 S
C1483 H1470 0.929 . S
C1483 C1475 1.433 . S
C1483 N1485 1.384 . S
N1484 C1480 1.435 . S
N1484 C1481 1.384 . S
N1485 C1477 1.435 . S
N1485 C1483 1.384 . S
H1486 C1492 0.930 . S
H1487 C1496 0.930 . S
H1488 C1501 0.929 . S
H1489 C1499 0.929 . S
H1490 C1494 0.929 . S
H1491 C1500 0.929 . S
C1492 H1486 0.930 . S
C1492 C1493 1.367 1_565 S
C1492 C1500 1.378 . S
C1493 C1492 1.367 1_545 S
C1493 C1501 1.433 . S
C1494 H1490 0.929 . S
C1494 C1496 1.378 . S
C1494 C1498 1.347 1_545 S
C1495 C1498 1.462 1_545 S
C1495 C1500 1.347 1_545 S
C1495 N1503 1.430 . S
C1496 H1487 0.930 . S
C1496 C1494 1.378 . S
C1496 C1497 1.367 1_545 S
C1497 C1496 1.367 1_565 S
C1497 C1499 1.433 . S
C1498 C1494 1.347 1_565 S
C1498 C1495 1.462 1_565 S
C1498 N1502 1.430 . S
C1499 H1489 0.929 . S
C1499 C1497 1.433 . S
C1499 N1502 1.384 . S
C1500 H1491 0.929 . S
C1500 C1492 1.378 . S
C1500 C1495 1.347 1_565 S
C1501 H1488 0.929 . S
C1501 C1493 1.433 . S
C1501 N1503 1.384 . S
N1502 C1498 1.430 . S
N1502 C1499 1.384 . S
N1503 C1495 1.430 . S
N1503 C1501 1.384 . S
C647 C19 3.155 . S
C651 C419 3.155 . S
C665 C59 3.160 . S
C669 C459 3.160 . S
C683 C99 3.158 . S
C687 C339 3.158 . S
C701 C139 3.158 . S
C705 C379 3.157 . S
C719 C169 3.157 . S
C723 C569 3.157 . S
C737 C209 3.155 . S
C741 C609 3.155 . S
C755 C249 3.160 . S
C759 C489 3.160 . S
C773 C289 3.154 . S
C777 C529 3.154 . S
C791 C378 3.704 . S
C795 C9 3.681 1_556 S
C809 C418 3.704 . S
C813 C49 3.681 . S
C827 C458 3.704 . S
C831 C89 3.681 . S
C845 C338 3.702 . S
C849 C129 3.682 . S
C863 C179 3.680 1_554 S
C867 C528 3.702 . S
C881 C568 3.702 . S
C885 C219 3.679 . S
C899 C608 3.701 . S
C903 C259 3.683 . S
C917 C488 3.702 . S
C921 C299 3.679 . S
C935 C58 3.706 . S
C939 C329 3.679 . S
C953 C369 3.682 . S
C957 C98 3.700 . S
C971 C409 3.677 1_556 S
C975 C138 3.707 . S
C989 C449 3.677 . S
C993 C18 3.706 . S
C1007 C499 3.682 . S
C1011 C208 3.700 . S
C1025 C248 3.700 . S
C1029 C539 3.683 . S
C1043 C288 3.702 . S
C1047 C579 3.680 1_554 S
C1061 C619 3.680 . S
C1065 C168 3.701 . S
C1079 C15 0.341 . S
C1083 C618 0.183 . S
C1097 C55 0.369 . S
C1101 C178 0.158 . S
C1115 C538 0.162 . S
C1119 C95 0.317 . S
C1133 C258 0.148 . S
C1137 C135 0.333 . S
C1151 C165 0.340 . S
C1155 C448 0.144 . S
C1169 C205 0.367 . S
C1173 C8 0.149 . S
C1187 C368 0.178 . S
C1191 C245 0.388 . S
C1205 C88 0.170 . S
C1209 C285 0.313 . S
C1223 C335 0.386 . S
C1227 C298 0.181 . S
C1241 C375 0.360 . S
C1245 C498 0.143 . S
C1259 C218 0.157 . S
C1263 C415 0.320 . S
C1277 C578 0.142 . S
C1281 C455 0.346 . S
C1295 C485 0.316 . S
C1299 C128 0.164 . S
C1313 C525 0.323 . S
C1317 C328 0.183 . S
C1331 C565 0.323 . S
C1335 C48 0.154 . S
C1349 C408 0.180 . S
C1353 C605 0.350 . S
C1367 C5 1.628 . S
C1371 C495 1.628 . S
C1385 C45 1.629 . S
C1389 C215 1.629 . S
C1403 C85 1.624 . S
C1407 C575 1.624 . S
C1421 C295 1.625 . S
C1425 C125 1.625 . S
C1439 C175 1.614 . S
C1443 C325 1.614 . S
C1457 C405 1.609 . S
C1461 C255 1.609 . S
C1475 C365 1.625 . S
C1479 C535 1.625 . S
C1493 C615 1.626 . S
C1497 C445 1.626 . S
