# Generated by pormake.
# Topology umw, (4)-cn, num edge types: 1
# Building blocks:
#     Node 0, Type 0, BuildingBlock: QUQFOY_clean_sbu_1, # of connection points: 4
#     Node 1, Type 0, BuildingBlock: QUQFOY_clean_sbu_1, # of connection points: 4
#     Node 2, Type 0, BuildingBlock: QUQFOY_clean_sbu_1, # of connection points: 4
#     Node 3, Type 0, BuildingBlock: QUQFOY_clean_sbu_1, # of connection points: 4
#     Node 4, Type 0, BuildingBlock: QUQFOY_clean_sbu_1, # of connection points: 4
#     Node 5, Type 0, BuildingBlock: QUQFOY_clean_sbu_1, # of connection points: 4
#     Node 6, Type 0, BuildingBlock: QUQFOY_clean_sbu_1, # of connection points: 4
#     Node 7, Type 0, BuildingBlock: QUQFOY_clean_sbu_1, # of connection points: 4
#     Edge 8, Type (0, 0), BuildingBlock: CIFDUS_clean_linker_0, # of connection points: 2
#     Edge 9, Type (0, 0), BuildingBlock: CIFDUS_clean_linker_0, # of connection points: 2
#     Edge 10, Type (0, 0), BuildingBlock: CIFDUS_clean_linker_0, # of connection points: 2
#     Edge 11, Type (0, 0), BuildingBlock: CIFDUS_clean_linker_0, # of connection points: 2
#     Edge 12, Type (0, 0), BuildingBlock: CIFDUS_clean_linker_0, # of connection points: 2
#     Edge 13, Type (0, 0), BuildingBlock: CIFDUS_clean_linker_0, # of connection points: 2
#     Edge 14, Type (0, 0), BuildingBlock: CIFDUS_clean_linker_0, # of connection points: 2
#     Edge 15, Type (0, 0), BuildingBlock: CIFDUS_clean_linker_0, # of connection points: 2
#     Edge 16, Type (0, 0), BuildingBlock: CIFDUS_clean_linker_0, # of connection points: 2
#     Edge 17, Type (0, 0), BuildingBlock: CIFDUS_clean_linker_0, # of connection points: 2
#     Edge 18, Type (0, 0), BuildingBlock: CIFDUS_clean_linker_0, # of connection points: 2
#     Edge 19, Type (0, 0), BuildingBlock: CIFDUS_clean_linker_0, # of connection points: 2
#     Edge 20, Type (0, 0), BuildingBlock: CIFDUS_clean_linker_0, # of connection points: 2
#     Edge 21, Type (0, 0), BuildingBlock: CIFDUS_clean_linker_0, # of connection points: 2
#     Edge 22, Type (0, 0), BuildingBlock: CIFDUS_clean_linker_0, # of connection points: 2
#     Edge 23, Type (0, 0), BuildingBlock: CIFDUS_clean_linker_0, # of connection points: 2
# Relax obj value: 0.046
# Max RMSD: 0.093
# Mean RMSD: 0.093
data_MOF--net-umw--node1-QUQFOY_clean_sbu_1--edge1-CIFDUS_clean_linker_0
_symmetry_space_group_name_H-M    P1
_symmetry_Int_Tables_number       1
_symmetry_cell_setting            triclinic
loop_
_symmetry_equiv_pos_as_xyz
'x, y, z'
_cell_length_a     38.184564
_cell_length_b     38.215928
_cell_length_c     24.162433
_cell_angle_alpha  89.905229
_cell_angle_beta   90.272515
_cell_angle_gamma 89.344041
loop_
_atom_site_label
_atom_site_type_symbol
_atom_site_fract_x
_atom_site_fract_y
_atom_site_fract_z
_atom_type_partial_charge
O0 O 0.41604 0.18949 0.4442 0.0
Cd1 Cd 0.38089 0.16698 0.39082 0.0
Cd2 Cd 0.44044 0.1744 0.32371 0.0
O3 O 0.4593 0.20313 0.38854 0.0
O4 O 0.33855 0.16899 0.43833 0.0
O5 O 0.3425 0.19742 0.35882 0.0
C6 C 0.3252 0.19088 0.40341 0.0
C7 C 0.45143 0.19395 0.2342 0.0
C8 C 0.44529 0.20398 0.43597 0.0
C9 C 0.41517 0.10139 0.35036 0.0
O10 O 0.43958 0.12072 0.33266 0.0
O11 O 0.38763 0.11482 0.3712 0.0
O12 O 0.47608 0.18165 0.2654 0.0
O13 O 0.4202 0.19602 0.2544 0.0
O14 O 0.80633 0.39897 0.6812 0.0
Cd15 Cd 0.82039 0.36842 0.61508 0.0
Cd16 Cd 0.82019 0.43708 0.56938 0.0
O17 O 0.79557 0.45022 0.64251 0.0
O18 O 0.81705 0.32251 0.65317 0.0
O19 O 0.78328 0.33741 0.58227 0.0
C20 C 0.79103 0.31549 0.62129 0.0
C21 C 0.80091 0.46043 0.4848 0.0
C22 C 0.7953 0.4303 0.68466 0.0
C23 C 0.88881 0.39676 0.57822 0.0
O24 O 0.87334 0.42626 0.57312 0.0
O25 O 0.8716 0.36938 0.58926 0.0
O26 O 0.81615 0.47953 0.52141 0.0
O27 O 0.79526 0.42805 0.49706 0.0
O28 O 0.58873 0.81558 0.94685 0.0
Cd29 Cd 0.61947 0.82597 0.87954 0.0
Cd30 Cd 0.55267 0.82425 0.83342 0.0
O31 O 0.53861 0.80132 0.90804 0.0
O32 O 0.66573 0.82148 0.91724 0.0
O33 O 0.64927 0.78666 0.84915 0.0
C34 C 0.67181 0.79441 0.88709 0.0
C35 C 0.53867 0.8027 0.74541 0.0
C36 C 0.5579 0.80389 0.95092 0.0
C37 C 0.59044 0.89304 0.83682 0.0
O38 O 0.56114 0.87757 0.83461 0.0
O39 O 0.61841 0.87603 0.84791 0.0
O40 O 0.51504 0.8166 0.77672 0.0
O41 O 0.56992 0.79887 0.76565 0.0
O42 O 0.18501 0.57621 0.1781 0.0
Cd43 Cd 0.16747 0.6123 0.12129 0.0
Cd44 Cd 0.16871 0.54364 0.06338 0.0
O45 O 0.19336 0.52603 0.13494 0.0
O46 O 0.16378 0.65137 0.17547 0.0
O47 O 0.20026 0.65228 0.10509 0.0
C48 C 0.18901 0.6664 0.15023 0.0
C49 C 0.18887 0.53001 0.97435 0.0
C50 C 0.19527 0.54455 0.1785 0.0
C51 C 0.09982 0.58306 0.0773 0.0
O52 O 0.11557 0.5541 0.0683 0.0
O53 O 0.11659 0.60993 0.09273 0.0
O54 O 0.17428 0.50677 1.0051 0.0
O55 O 0.19359 0.56074 0.99525 0.0
O56 O 0.41926 0.80987 0.23166 0.0
Cd57 Cd 0.38203 0.82497 0.28794 0.0
Cd58 Cd 0.45112 0.82618 0.34777 0.0
O59 O 0.46982 0.80376 0.27537 0.0
O60 O 0.34329 0.82842 0.23257 0.0
O61 O 0.34279 0.79089 0.30192 0.0
C62 C 0.32862 0.80259 0.25686 0.0
C63 C 0.46592 0.80536 0.43643 0.0
C64 C 0.45147 0.80143 0.23148 0.0
C65 C 0.40794 0.89299 0.33599 0.0
O66 O 0.43775 0.87874 0.34474 0.0
O67 O 0.3821 0.87515 0.31912 0.0
O68 O 0.4884 0.82143 0.40619 0.0
O69 O 0.4354 0.79948 0.41518 0.0
O70 O 0.17865 0.41067 0.46379 0.0
Cd71 Cd 0.1626 0.38161 0.53012 0.0
Cd72 Cd 0.16841 0.44812 0.57578 0.0
O73 O 0.19392 0.46034 0.50263 0.0
O74 O 0.16386 0.33504 0.49364 0.0
O75 O 0.19764 0.34828 0.56492 0.0
C76 C 0.18914 0.32647 0.52649 0.0
C77 C 0.18982 0.46005 0.66462 0.0
C78 C 0.19211 0.44075 0.46018 0.0
C79 C 0.09656 0.41665 0.56594 0.0
O80 O 0.11452 0.44427 0.57151 0.0
O81 O 0.11143 0.38758 0.55488 0.0
O82 O 0.17818 0.48476 0.63276 0.0
O83 O 0.19137 0.4287 0.64458 0.0
O84 O 0.55961 0.18945 0.71935 0.0
Cd85 Cd 0.59643 0.16688 0.77083 0.0
Cd86 Cd 0.53628 0.17225 0.8407 0.0
O87 O 0.51528 0.19955 0.77533 0.0
O88 O 0.63723 0.16821 0.7201 0.0
O89 O 0.6355 0.19687 0.79949 0.0
C90 C 0.65157 0.18978 0.75388 0.0
C91 C 0.52407 0.19247 0.92947 0.0
C92 C 0.52927 0.20208 0.72806 0.0
C93 C 0.56624 0.1003 0.81479 0.0
O94 O 0.54106 0.11862 0.83383 0.0
O95 O 0.59211 0.11474 0.79143 0.0
O96 O 0.50031 0.1785 0.89899 0.0
O97 O 0.55507 0.19571 0.90902 0.0
O98 O 0.80627 0.56554 0.96576 0.0
Cd99 Cd 0.82516 0.59687 0.02751 0.0
Cd100 Cd 0.8208 0.52856 0.07989 0.0
O101 O 0.79534 0.51548 1.00734 0.0
O102 O 0.82471 0.6412 0.98419 0.0
O103 O 0.79256 0.63372 0.05894 0.0
C104 C 0.80088 0.6528 1.01698 0.0
C105 C 0.80114 0.50705 0.16504 0.0
C106 C 0.79436 0.53473 0.96443 0.0
C107 C 0.89202 0.56243 0.0656 0.0
O108 O 0.87435 0.53515 0.07569 0.0
O109 O 0.87693 0.59073 0.05045 0.0
O110 O 0.81533 0.48679 0.12873 0.0
O111 O 0.79683 0.53967 0.15228 0.0
H112 H 0.42012 0.21803 0.5382 0.0
H113 H 0.51495 0.21948 0.4416 0.0
H114 H 0.54967 0.22599 0.52589 0.0
H115 H 0.55344 0.21938 0.62654 0.0
H116 H 0.4587 0.21468 0.72302 0.0
H117 H 0.42356 0.22206 0.63914 0.0
C118 C 0.44834 0.22051 0.53548 0.0
C119 C 0.46504 0.21725 0.48398 0.0
C120 C 0.46817 0.22323 0.5841 0.0
C121 C 0.50149 0.22142 0.48086 0.0
C122 C 0.5214 0.22492 0.52907 0.0
C123 C 0.52511 0.22068 0.62937 0.0
C124 C 0.50866 0.21546 0.68062 0.0
C125 C 0.5051 0.22396 0.58093 0.0
C126 C 0.47199 0.21812 0.68392 0.0
C127 C 0.45187 0.22214 0.63594 0.0
H128 H 0.78093 0.49794 0.71328 0.0
H129 H 0.7878 0.39325 0.78033 0.0
H130 H 0.78257 0.41626 0.87381 0.0
H131 H 0.78486 0.4664 0.93685 0.0
H132 H 0.77992 0.57114 0.86986 0.0
H133 H 0.7749 0.54776 0.77649 0.0
C134 C 0.78061 0.48011 0.74824 0.0
C135 C 0.78551 0.44403 0.73976 0.0
C136 C 0.77822 0.49352 0.80217 0.0
C137 C 0.78467 0.42125 0.7856 0.0
C138 C 0.7817 0.43435 0.83923 0.0
C139 C 0.78186 0.4841 0.90197 0.0
C140 C 0.78347 0.52041 0.91028 0.0
C141 C 0.77982 0.47051 0.84811 0.0
C142 C 0.77934 0.54301 0.86458 0.0
C143 C 0.77655 0.52969 0.81105 0.0
H144 H 0.52094 0.79931 0.2044 0.0
H145 H 0.41756 0.78326 0.13664 0.0
H146 H 0.44169 0.77898 0.04386 0.0
H147 H 0.49109 0.78695 0.98048 0.0
H148 H 0.59439 0.80374 0.04816 0.0
H149 H 0.57141 0.80016 0.14166 0.0
C150 C 0.5038 0.79415 0.1695 0.0
C151 C 0.46747 0.7922 0.17756 0.0
C152 C 0.51776 0.79226 0.11577 0.0
C153 C 0.44564 0.7854 0.13171 0.0
C154 C 0.45937 0.783 0.07843 0.0
C155 C 0.50866 0.78927 1.01564 0.0
C156 C 0.54427 0.79622 1.00702 0.0
C157 C 0.49524 0.78757 0.0697 0.0
C158 C 0.56671 0.79887 0.0533 0.0
C159 C 0.55362 0.79685 0.10702 0.0
H160 H 0.21014 0.50709 0.42995 0.0
H161 H 0.19608 0.40305 0.36473 0.0
H162 H 0.20087 0.42528 0.27071 0.0
H163 H 0.20041 0.47537 0.20675 0.0
H164 H 0.21343 0.57949 0.27213 0.0
H165 H 0.21828 0.55605 0.36557 0.0
C166 C 0.20884 0.48918 0.39525 0.0
C167 C 0.20201 0.45362 0.40455 0.0
C168 C 0.21108 0.50218 0.34092 0.0
C169 C 0.20072 0.43072 0.35893 0.0
C170 C 0.20342 0.44338 0.30494 0.0
C171 C 0.20514 0.49283 0.24127 0.0
C172 C 0.20584 0.52914 0.23244 0.0
C173 C 0.20727 0.47926 0.29535 0.0
C174 C 0.21216 0.5514 0.27775 0.0
C175 C 0.21489 0.53806 0.33137 0.0
H176 H 0.3031 0.20744 0.50588 0.0
H177 H 0.27723 0.22076 0.33311 0.0
H178 H 0.22896 0.26047 0.3577 0.0
H179 H 0.19845 0.29574 0.42743 0.0
H180 H 0.22943 0.28823 0.59898 0.0
H181 H 0.27132 0.24146 0.57602 0.0
C182 C 0.28642 0.21851 0.47369 0.0
C183 C 0.29343 0.21109 0.41777 0.0
C184 C 0.25991 0.24247 0.48803 0.0
C185 C 0.27219 0.22611 0.37638 0.0
C186 C 0.24472 0.24883 0.39045 0.0
C187 C 0.21385 0.28335 0.45999 0.0
C188 C 0.21075 0.29514 0.51492 0.0
C189 C 0.23892 0.25782 0.44603 0.0
C190 C 0.23136 0.27945 0.55649 0.0
C191 C 0.25533 0.25285 0.54331 0.0
H192 H 0.7816 0.28672 0.72167 0.0
H193 H 0.7477 0.27961 0.55155 0.0
H194 H 0.70401 0.23614 0.57763 0.0
H195 H 0.67207 0.20479 0.65005 0.0
H196 H 0.70139 0.21789 0.82132 0.0
H197 H 0.75064 0.25441 0.79365 0.0
C198 C 0.76512 0.27513 0.6901 0.0
C199 C 0.76796 0.28603 0.63467 0.0
C200 C 0.73913 0.25156 0.70583 0.0
C201 C 0.74599 0.27144 0.59439 0.0
C202 C 0.721 0.24674 0.60936 0.0
C203 C 0.68964 0.21515 0.68123 0.0
C204 C 0.68339 0.20857 0.73762 0.0
C205 C 0.71683 0.23725 0.66512 0.0
C206 C 0.70582 0.22265 0.77772 0.0
C207 C 0.73388 0.24352 0.76189 0.0
H208 H 0.78635 0.67604 0.91427 0.0
H209 H 0.76892 0.69952 0.08652 0.0
H210 H 0.73048 0.74873 0.06029 0.0
H211 H 0.69833 0.78164 0.98851 0.0
H212 H 0.70975 0.75287 0.817 0.0
H213 H 0.75443 0.70909 0.84254 0.0
C214 C 0.77461 0.69235 0.94604 0.0
C215 C 0.78066 0.68457 1.00224 0.0
C216 C 0.75139 0.71937 0.93062 0.0
C217 C 0.76468 0.70524 0.04305 0.0
C218 C 0.74271 0.73324 0.02803 0.0
C219 C 0.7111 0.76619 0.95666 0.0
C220 C 0.7012 0.77062 0.90089 0.0
C221 C 0.73539 0.74009 0.97197 0.0
C222 C 0.71718 0.74993 0.8601 0.0
C223 C 0.74259 0.72492 0.87474 0.0
H224 H 0.23019 0.71544 0.10176 0.0
H225 H 0.19008 0.68191 0.25957 0.0
H226 H 0.22836 0.72266 0.30733 0.0
H227 H 0.2777 0.7636 0.30475 0.0
H228 H 0.31503 0.80008 0.14691 0.0
H229 H 0.27332 0.76286 0.09889 0.0
C230 C 0.22944 0.71757 0.1465 0.0
C231 C 0.20764 0.6955 0.17703 0.0
C232 C 0.25126 0.74142 0.17385 0.0
C233 C 0.20662 0.69869 0.23502 0.0
C234 C 0.22868 0.72183 0.2625 0.0
C235 C 0.27624 0.76375 0.25991 0.0
C236 C 0.29956 0.78421 0.22945 0.0
C237 C 0.25178 0.74266 0.23243 0.0
C238 C 0.29725 0.78454 0.17133 0.0
C239 C 0.27354 0.76312 0.14375 0.0
H240 H 0.45861 0.94204 0.33329 0.0
H241 H 0.34721 0.92964 0.35331 0.0
H242 H 0.33962 0.99305 0.36096 0.0
H243 H 0.36454 0.05211 0.35989 0.0
H244 H 0.47562 0.06425 0.33473 0.0
H245 H 0.48335 0.00089 0.33098 0.0
C246 C 0.43271 0.9532 0.3398 0.0
C247 C 0.40356 0.93119 0.34303 0.0
C248 C 0.42844 0.98965 0.34287 0.0
C249 C 0.37008 0.94606 0.35064 0.0
C250 C 0.36572 0.9823 0.355 0.0
C251 C 0.39044 0.04088 0.35373 0.0
C252 C 0.41943 0.06291 0.34765 0.0
C253 C 0.39468 0.00437 0.3508 0.0
C254 C 0.4528 0.04793 0.33926 0.0
C255 C 0.4573 0.01167 0.33727 0.0
H256 H 0.93476 0.45044 0.58036 0.0
H257 H 0.92955 0.33799 0.56668 0.0
H258 H 0.99335 0.33422 0.56215 0.0
H259 H 0.05054 0.3628 0.56256 0.0
H260 H 0.05563 0.47519 0.57855 0.0
H261 H 0.9919 0.47892 0.58205 0.0
C262 C 0.94754 0.4251 0.57605 0.0
C263 C 0.92738 0.39457 0.57361 0.0
C264 C 0.98422 0.42307 0.57424 0.0
C265 C 0.94442 0.36192 0.56865 0.0
C266 C 0.98091 0.35973 0.5661 0.0
C267 C 0.03776 0.38813 0.56692 0.0
C268 C 0.05792 0.41865 0.57022 0.0
C269 C 0.00107 0.39013 0.56904 0.0
C270 C 0.04084 0.45123 0.57602 0.0
C271 C 0.00435 0.45343 0.57787 0.0
H272 H 0.53639 0.93939 0.84343 0.0
H273 H 0.6475 0.93271 0.81259 0.0
H274 H 0.64971 -0.00375 0.80166 0.0
H275 H 0.62018 0.05378 0.8025 0.0
H276 H 0.50953 0.06022 0.83775 0.0
H277 H 0.50711 -0.00334 0.84539 0.0
C278 C 0.56107 0.95179 0.83395 0.0
C279 C 0.5917 0.93134 0.82858 0.0
C280 C 0.56226 0.98831 0.82876 0.0
C281 C 0.62354 0.94787 0.81698 0.0
C282 C 0.62483 0.98419 0.81071 0.0
C283 C 0.59552 0.04126 0.81169 0.0
C284 C 0.56509 0.06174 0.81946 0.0
C285 C 0.59437 0.00468 0.81679 0.0
C286 C 0.5334 0.04512 0.8318 0.0
C287 C 0.53194 0.00875 0.83605 0.0
H288 H 0.93783 0.61654 0.06099 0.0
H289 H 0.9333 0.50419 0.07853 0.0
H290 H -0.00295 0.50065 0.08146 0.0
H291 H 0.05411 0.52926 0.07917 0.0
H292 H 0.05891 0.64172 0.06532 0.0
H293 H -0.00497 0.64532 0.06045 0.0
C294 C 0.95076 0.59127 0.06551 0.0
C295 C 0.93073 0.5607 0.06945 0.0
C296 C 0.9875 0.58939 0.06756 0.0
C297 C 0.94799 0.52819 0.07559 0.0
C298 C 0.98449 0.52609 0.07708 0.0
C299 C 0.0412 0.55455 0.07468 0.0
C300 C 0.06124 0.58514 0.07228 0.0
C301 C 0.0045 0.55649 0.07296 0.0
C302 C 0.04408 0.61775 0.06726 0.0
C303 C 0.00756 0.61984 0.06451 0.0
H304 H 0.4601 0.20127 0.97558 0.0
H305 H 0.5706 0.20381 1.01356 0.0
H306 H 0.55742 0.20861 0.1122 0.0
H307 H 0.51477 0.20462 0.18758 0.0
H308 H 0.40429 0.20172 0.1496 0.0
H309 H 0.4172 0.20503 0.05074 0.0
C310 C 0.4813 0.20337 1.0054 0.0
C311 C 0.51628 0.2016 0.98749 0.0
C312 C 0.47353 0.20582 0.06193 0.0
C313 C 0.54346 0.20494 0.02639 0.0
C314 C 0.53595 0.2075 0.08279 0.0
C315 C 0.49348 0.20523 0.15769 0.0
C316 C 0.45865 0.20235 0.17573 0.0
C317 C 0.50112 0.20681 0.10105 0.0
C318 C 0.43132 0.20374 0.13669 0.0
C319 C 0.4387 0.20544 0.08017 0.0
H320 H 0.79315 0.54416 0.26034 0.0
H321 H 0.79187 0.43914 0.19527 0.0
H322 H 0.78717 0.41546 0.28882 0.0
H323 H 0.78995 0.42421 0.38952 0.0
H324 H 0.79554 0.52903 0.45469 0.0
H325 H 0.79163 0.55309 0.36114 0.0
C326 C 0.79116 0.51614 0.26661 0.0
C327 C 0.793 0.49346 0.22092 0.0
C328 C 0.78955 0.50261 0.32074 0.0
C329 C 0.79071 0.45718 0.22977 0.0
C330 C 0.78809 0.44359 0.2833 0.0
C331 C 0.78963 0.45233 0.38329 0.0
C332 C 0.79318 0.47477 0.429 0.0
C333 C 0.78846 0.46599 0.32919 0.0
C334 C 0.79304 0.51115 0.42019 0.0
C335 C 0.79087 0.52496 0.36666 0.0
H336 H 0.47478 0.79427 0.69649 0.0
H337 H 0.58538 0.7954 0.66102 0.0
H338 H 0.57277 0.79374 0.56184 0.0
H339 H 0.53015 0.79816 0.48506 0.0
H340 H 0.41962 0.7948 0.52033 0.0
H341 H 0.43235 0.79077 0.6194 0.0
C342 C 0.49614 0.79357 0.66707 0.0
C343 C 0.53098 0.79533 0.68625 0.0
C344 C 0.48869 0.7925 0.60994 0.0
C345 C 0.55834 0.79405 0.64753 0.0
C346 C 0.55113 0.79333 0.5907 0.0
C347 C 0.50887 0.79602 0.51439 0.0
C348 C 0.47396 0.79717 0.49528 0.0
C349 C 0.5164 0.7935 0.57139 0.0
C350 C 0.44671 0.79398 0.53381 0.0
C351 C 0.45397 0.79187 0.59058 0.0
H352 H 0.19499 0.46617 0.92504 0.0
H353 H 0.19995 0.57685 0.89095 0.0
H354 H 0.20378 0.56487 0.79183 0.0
H355 H 0.19964 0.52321 0.71436 0.0
H356 H 0.19609 0.41247 0.7486 0.0
H357 H 0.19827 0.4242 0.8479 0.0
C358 C 0.1974 0.48766 0.89598 0.0
C359 C 0.19677 0.52239 0.91543 0.0
C360 C 0.19966 0.48057 0.83893 0.0
C361 C 0.20032 0.54989 0.87721 0.0
C362 C 0.20234 0.54305 0.82041 0.0
C363 C 0.1999 0.50161 0.74352 0.0
C364 C 0.19732 0.46701 0.72395 0.0
C365 C 0.20112 0.50855 0.80071 0.0
C366 C 0.19803 0.43933 0.76237 0.0
C367 C 0.19906 0.44604 0.81927 0.0
loop_
_geom_bond_atom_site_label_1
_geom_bond_atom_site_label_2
_geom_bond_distance
_geom_bond_site_symmetry_2
_ccdc_geom_bond_type
O0 Cd1 2.223 . S
O0 C8 1.315 . S
Cd1 O0 2.223 . S
Cd1 O4 2.297 . S
Cd1 O5 2.439 . S
Cd1 O11 2.240 . S
Cd2 O3 2.240 . S
Cd2 O10 2.223 . S
Cd2 O12 2.297 . S
Cd2 O13 2.439 . S
O3 Cd2 2.240 . S
O3 C8 1.279 . S
O4 Cd1 2.297 . S
O4 C6 1.247 . S
O5 Cd1 2.439 . S
O5 C6 1.208 . S
C6 O4 1.247 . S
C6 O5 1.208 . S
C7 O12 1.247 . S
C7 O13 1.208 . S
C8 O0 1.315 . S
C8 O3 1.279 . S
C9 O10 1.315 . S
C9 O11 1.279 . S
O10 Cd2 2.223 . S
O10 C9 1.315 . S
O11 Cd1 2.240 . S
O11 C9 1.279 . S
O12 Cd2 2.297 . S
O12 C7 1.247 . S
O13 Cd2 2.439 . S
O13 C7 1.208 . S
O14 Cd15 2.223 . S
O14 C22 1.315 . S
Cd15 O14 2.223 . S
Cd15 O18 2.297 . S
Cd15 O19 2.439 . S
Cd15 O25 2.240 . S
Cd16 O17 2.240 . S
Cd16 O24 2.223 . S
Cd16 O26 2.297 . S
Cd16 O27 2.439 . S
O17 Cd16 2.240 . S
O17 C22 1.279 . S
O18 Cd15 2.297 . S
O18 C20 1.247 . S
O19 Cd15 2.439 . S
O19 C20 1.208 . S
C20 O18 1.247 . S
C20 O19 1.208 . S
C21 O26 1.247 . S
C21 O27 1.208 . S
C22 O14 1.315 . S
C22 O17 1.279 . S
C23 O24 1.315 . S
C23 O25 1.279 . S
O24 Cd16 2.223 . S
O24 C23 1.315 . S
O25 Cd15 2.240 . S
O25 C23 1.279 . S
O26 Cd16 2.297 . S
O26 C21 1.247 . S
O27 Cd16 2.439 . S
O27 C21 1.208 . S
O28 Cd29 2.223 . S
O28 C36 1.315 . S
Cd29 O28 2.223 . S
Cd29 O32 2.297 . S
Cd29 O33 2.439 . S
Cd29 O39 2.240 . S
Cd30 O31 2.240 . S
Cd30 O38 2.223 . S
Cd30 O40 2.297 . S
Cd30 O41 2.439 . S
O31 Cd30 2.240 . S
O31 C36 1.279 . S
O32 Cd29 2.297 . S
O32 C34 1.247 . S
O33 Cd29 2.439 . S
O33 C34 1.208 . S
C34 O32 1.247 . S
C34 O33 1.208 . S
C35 O40 1.247 . S
C35 O41 1.208 . S
C36 O28 1.315 . S
C36 O31 1.279 . S
C37 O38 1.315 . S
C37 O39 1.279 . S
O38 Cd30 2.223 . S
O38 C37 1.315 . S
O39 Cd29 2.240 . S
O39 C37 1.279 . S
O40 Cd30 2.297 . S
O40 C35 1.247 . S
O41 Cd30 2.439 . S
O41 C35 1.208 . S
O42 Cd43 2.223 . S
O42 C50 1.315 . S
Cd43 O42 2.223 . S
Cd43 O46 2.297 . S
Cd43 O47 2.439 . S
Cd43 O53 2.240 . S
Cd44 O45 2.240 . S
Cd44 O52 2.223 . S
Cd44 O54 2.297 1_554 S
Cd44 O55 2.439 1_554 S
O45 Cd44 2.240 . S
O45 C50 1.279 . S
O46 Cd43 2.297 . S
O46 C48 1.247 . S
O47 Cd43 2.439 . S
O47 C48 1.208 . S
C48 O46 1.247 . S
C48 O47 1.208 . S
C49 O54 1.247 . S
C49 O55 1.208 . S
C50 O42 1.315 . S
C50 O45 1.279 . S
C51 O52 1.315 . S
C51 O53 1.279 . S
O52 Cd44 2.223 . S
O52 C51 1.315 . S
O53 Cd43 2.240 . S
O53 C51 1.279 . S
O54 Cd44 2.297 1_556 S
O54 C49 1.247 . S
O55 Cd44 2.439 1_556 S
O55 C49 1.208 . S
O56 Cd57 2.223 . S
O56 C64 1.315 . S
Cd57 O56 2.223 . S
Cd57 O60 2.297 . S
Cd57 O61 2.439 . S
Cd57 O67 2.240 . S
Cd58 O59 2.240 . S
Cd58 O66 2.223 . S
Cd58 O68 2.297 . S
Cd58 O69 2.439 . S
O59 Cd58 2.240 . S
O59 C64 1.279 . S
O60 Cd57 2.297 . S
O60 C62 1.247 . S
O61 Cd57 2.439 . S
O61 C62 1.208 . S
C62 O60 1.247 . S
C62 O61 1.208 . S
C63 O68 1.247 . S
C63 O69 1.208 . S
C64 O56 1.315 . S
C64 O59 1.279 . S
C65 O66 1.315 . S
C65 O67 1.279 . S
O66 Cd58 2.223 . S
O66 C65 1.315 . S
O67 Cd57 2.240 . S
O67 C65 1.279 . S
O68 Cd58 2.297 . S
O68 C63 1.247 . S
O69 Cd58 2.439 . S
O69 C63 1.208 . S
O70 Cd71 2.223 . S
O70 C78 1.315 . S
Cd71 O70 2.223 . S
Cd71 O74 2.297 . S
Cd71 O75 2.439 . S
Cd71 O81 2.240 . S
Cd72 O73 2.240 . S
Cd72 O80 2.223 . S
Cd72 O82 2.297 . S
Cd72 O83 2.439 . S
O73 Cd72 2.240 . S
O73 C78 1.279 . S
O74 Cd71 2.297 . S
O74 C76 1.247 . S
O75 Cd71 2.439 . S
O75 C76 1.208 . S
C76 O74 1.247 . S
C76 O75 1.208 . S
C77 O82 1.247 . S
C77 O83 1.208 . S
C78 O70 1.315 . S
C78 O73 1.279 . S
C79 O80 1.315 . S
C79 O81 1.279 . S
O80 Cd72 2.223 . S
O80 C79 1.315 . S
O81 Cd71 2.240 . S
O81 C79 1.279 . S
O82 Cd72 2.297 . S
O82 C77 1.247 . S
O83 Cd72 2.439 . S
O83 C77 1.208 . S
O84 Cd85 2.223 . S
O84 C92 1.315 . S
Cd85 O84 2.223 . S
Cd85 O88 2.297 . S
Cd85 O89 2.439 . S
Cd85 O95 2.240 . S
Cd86 O87 2.240 . S
Cd86 O94 2.223 . S
Cd86 O96 2.297 . S
Cd86 O97 2.439 . S
O87 Cd86 2.240 . S
O87 C92 1.279 . S
O88 Cd85 2.297 . S
O88 C90 1.247 . S
O89 Cd85 2.439 . S
O89 C90 1.208 . S
C90 O88 1.247 . S
C90 O89 1.208 . S
C91 O96 1.247 . S
C91 O97 1.208 . S
C92 O84 1.315 . S
C92 O87 1.279 . S
C93 O94 1.315 . S
C93 O95 1.279 . S
O94 Cd86 2.223 . S
O94 C93 1.315 . S
O95 Cd85 2.240 . S
O95 C93 1.279 . S
O96 Cd86 2.297 . S
O96 C91 1.247 . S
O97 Cd86 2.439 . S
O97 C91 1.208 . S
O98 Cd99 2.223 . S
O98 C106 1.315 . S
Cd99 O98 2.223 . S
Cd99 O102 2.297 . S
Cd99 O103 2.439 1_556 S
Cd99 O109 2.240 1_556 S
Cd100 O101 2.240 1_554 S
Cd100 O108 2.223 . S
Cd100 O110 2.297 . S
Cd100 O111 2.439 . S
O101 Cd100 2.240 1_556 S
O101 C106 1.279 . S
O102 Cd99 2.297 . S
O102 C104 1.247 . S
O103 Cd99 2.439 1_554 S
O103 C104 1.208 1_554 S
C104 O102 1.247 . S
C104 O103 1.208 1_556 S
C105 O110 1.247 . S
C105 O111 1.208 . S
C106 O98 1.315 . S
C106 O101 1.279 . S
C107 O108 1.315 . S
C107 O109 1.279 . S
O108 Cd100 2.223 . S
O108 C107 1.315 . S
O109 Cd99 2.240 1_554 S
O109 C107 1.279 . S
O110 Cd100 2.297 . S
O110 C105 1.247 . S
O111 Cd100 2.439 . S
O111 C105 1.208 . S
H112 C118 0.930 . S
H113 C121 0.930 . S
H114 C122 0.930 . S
H115 C123 0.930 . S
H116 C126 0.930 . S
H117 C127 0.930 . S
C118 H112 0.930 . S
C118 C119 1.355 . S
C118 C120 1.415 . S
C119 C118 1.355 . S
C119 C121 1.419 . S
C120 C118 1.415 . S
C120 C125 1.425 . S
C120 C127 1.409 . S
C121 H113 0.930 . S
C121 C119 1.419 . S
C121 C122 1.362 . S
C122 H114 0.930 . S
C122 C121 1.362 . S
C122 C125 1.409 . S
C123 H115 0.930 . S
C123 C124 1.355 . S
C123 C125 1.415 . S
C124 C123 1.355 . S
C124 C126 1.419 . S
C125 C120 1.425 . S
C125 C122 1.409 . S
C125 C123 1.415 . S
C126 H116 0.930 . S
C126 C124 1.419 . S
C126 C127 1.362 . S
C127 H117 0.930 . S
C127 C120 1.409 . S
C127 C126 1.362 . S
H128 C134 0.930 . S
H129 C137 0.930 . S
H130 C138 0.930 . S
H131 C139 0.930 . S
H132 C142 0.930 . S
H133 C143 0.930 . S
C134 H128 0.930 . S
C134 C135 1.355 . S
C134 C136 1.415 . S
C135 C134 1.355 . S
C135 C137 1.419 . S
C136 C134 1.415 . S
C136 C141 1.425 . S
C136 C143 1.409 . S
C137 H129 0.930 . S
C137 C135 1.419 . S
C137 C138 1.362 . S
C138 H130 0.930 . S
C138 C137 1.362 . S
C138 C141 1.409 . S
C139 H131 0.930 . S
C139 C140 1.355 . S
C139 C141 1.415 . S
C140 C139 1.355 . S
C140 C142 1.419 . S
C141 C136 1.425 . S
C141 C138 1.409 . S
C141 C139 1.415 . S
C142 H132 0.930 . S
C142 C140 1.419 . S
C142 C143 1.362 . S
C143 H133 0.930 . S
C143 C136 1.409 . S
C143 C142 1.362 . S
H144 C150 0.930 . S
H145 C153 0.930 . S
H146 C154 0.930 . S
H147 C155 0.930 . S
H148 C158 0.930 1_556 S
H149 C159 0.930 . S
C150 H144 0.930 . S
C150 C151 1.355 . S
C150 C152 1.415 . S
C151 C150 1.355 . S
C151 C153 1.419 . S
C152 C150 1.415 . S
C152 C157 1.425 . S
C152 C159 1.409 . S
C153 H145 0.930 . S
C153 C151 1.419 . S
C153 C154 1.362 . S
C154 H146 0.930 . S
C154 C153 1.362 . S
C154 C157 1.409 . S
C155 H147 0.930 . S
C155 C156 1.355 . S
C155 C157 1.415 1_556 S
C156 C155 1.355 . S
C156 C158 1.419 1_556 S
C157 C152 1.425 . S
C157 C154 1.409 . S
C157 C155 1.415 1_554 S
C158 H148 0.930 1_554 S
C158 C156 1.419 1_554 S
C158 C159 1.362 . S
C159 H149 0.930 . S
C159 C152 1.409 . S
C159 C158 1.362 . S
H160 C166 0.930 . S
H161 C169 0.930 . S
H162 C170 0.930 . S
H163 C171 0.930 . S
H164 C174 0.930 . S
H165 C175 0.930 . S
C166 H160 0.930 . S
C166 C167 1.355 . S
C166 C168 1.415 . S
C167 C166 1.355 . S
C167 C169 1.419 . S
C168 C166 1.415 . S
C168 C173 1.425 . S
C168 C175 1.409 . S
C169 H161 0.930 . S
C169 C167 1.419 . S
C169 C170 1.362 . S
C170 H162 0.930 . S
C170 C169 1.362 . S
C170 C173 1.409 . S
C171 H163 0.930 . S
C171 C172 1.355 . S
C171 C173 1.415 . S
C172 C171 1.355 . S
C172 C174 1.419 . S
C173 C168 1.425 . S
C173 C170 1.409 . S
C173 C171 1.415 . S
C174 H164 0.930 . S
C174 C172 1.419 . S
C174 C175 1.362 . S
C175 H165 0.930 . S
C175 C168 1.409 . S
C175 C174 1.362 . S
H176 C182 0.930 . S
H177 C185 0.930 . S
H178 C186 0.930 . S
H179 C187 0.930 . S
H180 C190 0.930 . S
H181 C191 0.930 . S
C182 H176 0.930 . S
C182 C183 1.355 . S
C182 C184 1.415 . S
C183 C182 1.355 . S
C183 C185 1.419 . S
C184 C182 1.415 . S
C184 C189 1.425 . S
C184 C191 1.409 . S
C185 H177 0.930 . S
C185 C183 1.419 . S
C185 C186 1.362 . S
C186 H178 0.930 . S
C186 C185 1.362 . S
C186 C189 1.409 . S
C187 H179 0.930 . S
C187 C188 1.355 . S
C187 C189 1.415 . S
C188 C187 1.355 . S
C188 C190 1.419 . S
C189 C184 1.425 . S
C189 C186 1.409 . S
C189 C187 1.415 . S
C190 H180 0.930 . S
C190 C188 1.419 . S
C190 C191 1.362 . S
C191 H181 0.930 . S
C191 C184 1.409 . S
C191 C190 1.362 . S
H192 C198 0.930 . S
H193 C201 0.930 . S
H194 C202 0.930 . S
H195 C203 0.930 . S
H196 C206 0.930 . S
H197 C207 0.930 . S
C198 H192 0.930 . S
C198 C199 1.355 . S
C198 C200 1.415 . S
C199 C198 1.355 . S
C199 C201 1.419 . S
C200 C198 1.415 . S
C200 C205 1.425 . S
C200 C207 1.409 . S
C201 H193 0.930 . S
C201 C199 1.419 . S
C201 C202 1.362 . S
C202 H194 0.930 . S
C202 C201 1.362 . S
C202 C205 1.409 . S
C203 H195 0.930 . S
C203 C204 1.355 . S
C203 C205 1.415 . S
C204 C203 1.355 . S
C204 C206 1.419 . S
C205 C200 1.425 . S
C205 C202 1.409 . S
C205 C203 1.415 . S
C206 H196 0.930 . S
C206 C204 1.419 . S
C206 C207 1.362 . S
C207 H197 0.930 . S
C207 C200 1.409 . S
C207 C206 1.362 . S
H208 C214 0.930 . S
H209 C217 0.933 . S
H210 C218 0.930 . S
H211 C219 0.930 . S
H212 C222 0.930 . S
H213 C223 0.930 . S
C214 H208 0.930 . S
C214 C215 1.355 . S
C214 C216 1.415 . S
C215 C214 1.355 . S
C215 C217 1.417 1_556 S
C216 C214 1.415 . S
C216 C221 1.425 . S
C216 C223 1.409 . S
C217 H209 0.933 . S
C217 C215 1.417 1_554 S
C217 C218 1.360 1_554 S
C218 H210 0.930 . S
C218 C217 1.360 1_556 S
C218 C221 1.409 . S
C219 H211 0.930 . S
C219 C220 1.355 . S
C219 C221 1.415 . S
C220 C219 1.355 . S
C220 C222 1.419 . S
C221 C216 1.425 . S
C221 C218 1.409 . S
C221 C219 1.415 . S
C222 H212 0.930 . S
C222 C220 1.419 . S
C222 C223 1.362 . S
C223 H213 0.930 . S
C223 C216 1.409 . S
C223 C222 1.362 . S
H224 C230 0.930 . S
H225 C233 0.930 . S
H226 C234 0.930 . S
H227 C235 0.930 . S
H228 C238 0.930 . S
H229 C239 0.930 . S
C230 H224 0.930 . S
C230 C231 1.355 . S
C230 C232 1.415 . S
C231 C230 1.355 . S
C231 C233 1.419 . S
C232 C230 1.415 . S
C232 C237 1.425 . S
C232 C239 1.409 . S
C233 H225 0.930 . S
C233 C231 1.419 . S
C233 C234 1.362 . S
C234 H226 0.930 . S
C234 C233 1.362 . S
C234 C237 1.409 . S
C235 H227 0.930 . S
C235 C236 1.355 . S
C235 C237 1.415 . S
C236 C235 1.355 . S
C236 C238 1.419 . S
C237 C232 1.425 . S
C237 C234 1.409 . S
C237 C235 1.415 . S
C238 H228 0.930 . S
C238 C236 1.419 . S
C238 C239 1.362 . S
C239 H229 0.930 . S
C239 C232 1.409 . S
C239 C238 1.362 . S
H240 C246 0.930 . S
H241 C249 0.930 . S
H242 C250 0.930 . S
H243 C251 0.930 . S
H244 C254 0.930 . S
H245 C255 0.930 . S
C246 H240 0.930 . S
C246 C247 1.355 . S
C246 C248 1.415 . S
C247 C246 1.355 . S
C247 C249 1.419 . S
C248 C246 1.415 . S
C248 C253 1.425 1_565 S
C248 C255 1.409 1_565 S
C249 H241 0.930 . S
C249 C247 1.419 . S
C249 C250 1.362 . S
C250 H242 0.930 . S
C250 C249 1.362 . S
C250 C253 1.409 1_565 S
C251 H243 0.930 . S
C251 C252 1.355 . S
C251 C253 1.415 . S
C252 C251 1.355 . S
C252 C254 1.419 . S
C253 C248 1.425 1_545 S
C253 C250 1.409 1_545 S
C253 C251 1.415 . S
C254 H244 0.930 . S
C254 C252 1.419 . S
C254 C255 1.362 . S
C255 H245 0.930 . S
C255 C248 1.409 1_545 S
C255 C254 1.362 . S
H256 C262 0.930 . S
H257 C265 0.930 . S
H258 C266 0.925 1_455 S
H259 C267 0.930 . S
H260 C270 0.930 . S
H261 C271 0.925 1_655 S
C262 H256 0.930 . S
C262 C263 1.355 . S
C262 C264 1.415 . S
C263 C262 1.355 . S
C263 C265 1.419 . S
C264 C262 1.415 . S
C264 C269 1.425 1_655 S
C264 C271 1.409 1_655 S
C265 H257 0.930 . S
C265 C263 1.419 . S
C265 C266 1.362 . S
C266 H258 0.925 1_655 S
C266 C265 1.362 . S
C266 C269 1.409 1_655 S
C267 H259 0.930 . S
C267 C268 1.355 . S
C267 C269 1.415 . S
C268 C267 1.355 . S
C268 C270 1.419 . S
C269 C264 1.425 1_455 S
C269 C266 1.409 1_455 S
C269 C267 1.415 . S
C270 H260 0.930 . S
C270 C268 1.419 . S
C270 C271 1.362 . S
C271 H261 0.925 1_455 S
C271 C264 1.409 1_455 S
C271 C270 1.362 . S
H272 C278 0.930 . S
H273 C281 0.930 . S
H274 C282 0.930 . S
H275 C283 0.930 . S
H276 C286 0.930 . S
H277 C287 0.930 . S
C278 H272 0.930 . S
C278 C279 1.355 . S
C278 C280 1.415 . S
C279 C278 1.355 . S
C279 C281 1.419 . S
C280 C278 1.415 . S
C280 C285 1.425 1_565 S
C280 C287 1.409 1_565 S
C281 H273 0.930 . S
C281 C279 1.419 . S
C281 C282 1.362 . S
C282 H274 0.930 . S
C282 C281 1.362 . S
C282 C285 1.409 1_565 S
C283 H275 0.930 . S
C283 C284 1.355 . S
C283 C285 1.415 . S
C284 C283 1.355 . S
C284 C286 1.419 . S
C285 C280 1.425 1_545 S
C285 C282 1.409 1_545 S
C285 C283 1.415 . S
C286 H276 0.930 . S
C286 C284 1.419 . S
C286 C287 1.362 . S
C287 H277 0.930 . S
C287 C280 1.409 1_545 S
C287 C286 1.362 . S
H288 C294 0.930 . S
H289 C297 0.930 . S
H290 C298 0.930 . S
H291 C299 0.930 . S
H292 C302 0.930 . S
H293 C303 0.930 . S
C294 H288 0.930 . S
C294 C295 1.355 . S
C294 C296 1.415 . S
C295 C294 1.355 . S
C295 C297 1.419 . S
C296 C294 1.415 . S
C296 C301 1.425 1_655 S
C296 C303 1.409 1_655 S
C297 H289 0.930 . S
C297 C295 1.419 . S
C297 C298 1.362 . S
C298 H290 0.930 . S
C298 C297 1.362 . S
C298 C301 1.409 1_655 S
C299 H291 0.930 . S
C299 C300 1.355 . S
C299 C301 1.415 . S
C300 C299 1.355 . S
C300 C302 1.419 . S
C301 C296 1.425 1_455 S
C301 C298 1.409 1_455 S
C301 C299 1.415 . S
C302 H292 0.930 . S
C302 C300 1.419 . S
C302 C303 1.362 . S
C303 H293 0.930 . S
C303 C296 1.409 1_455 S
C303 C302 1.362 . S
H304 C310 0.930 . S
H305 C313 0.930 1_556 S
H306 C314 0.930 . S
H307 C315 0.930 . S
H308 C318 0.930 . S
H309 C319 0.930 . S
C310 H304 0.930 . S
C310 C311 1.355 . S
C310 C312 1.415 1_556 S
C311 C310 1.355 . S
C311 C313 1.419 1_556 S
C312 C310 1.415 1_554 S
C312 C317 1.425 . S
C312 C319 1.409 . S
C313 H305 0.930 1_554 S
C313 C311 1.419 1_554 S
C313 C314 1.362 . S
C314 H306 0.930 . S
C314 C313 1.362 . S
C314 C317 1.409 . S
C315 H307 0.930 . S
C315 C316 1.355 . S
C315 C317 1.415 . S
C316 C315 1.355 . S
C316 C318 1.419 . S
C317 C312 1.425 . S
C317 C314 1.409 . S
C317 C315 1.415 . S
C318 H308 0.930 . S
C318 C316 1.419 . S
C318 C319 1.362 . S
C319 H309 0.930 . S
C319 C312 1.409 . S
C319 C318 1.362 . S
H320 C326 0.930 . S
H321 C329 0.930 . S
H322 C330 0.930 . S
H323 C331 0.930 . S
H324 C334 0.930 . S
H325 C335 0.930 . S
C326 H320 0.930 . S
C326 C327 1.355 . S
C326 C328 1.415 . S
C327 C326 1.355 . S
C327 C329 1.419 . S
C328 C326 1.415 . S
C328 C333 1.425 . S
C328 C335 1.409 . S
C329 H321 0.930 . S
C329 C327 1.419 . S
C329 C330 1.362 . S
C330 H322 0.930 . S
C330 C329 1.362 . S
C330 C333 1.409 . S
C331 H323 0.930 . S
C331 C332 1.355 . S
C331 C333 1.415 . S
C332 C331 1.355 . S
C332 C334 1.419 . S
C333 C328 1.425 . S
C333 C330 1.409 . S
C333 C331 1.415 . S
C334 H324 0.930 . S
C334 C332 1.419 . S
C334 C335 1.362 . S
C335 H325 0.930 . S
C335 C328 1.409 . S
C335 C334 1.362 . S
H336 C342 0.930 . S
H337 C345 0.930 . S
H338 C346 0.930 . S
H339 C347 0.930 . S
H340 C350 0.930 . S
H341 C351 0.930 . S
C342 H336 0.930 . S
C342 C343 1.355 . S
C342 C344 1.415 . S
C343 C342 1.355 . S
C343 C345 1.419 . S
C344 C342 1.415 . S
C344 C349 1.425 . S
C344 C351 1.409 . S
C345 H337 0.930 . S
C345 C343 1.419 . S
C345 C346 1.362 . S
C346 H338 0.930 . S
C346 C345 1.362 . S
C346 C349 1.409 . S
C347 H339 0.930 . S
C347 C348 1.355 . S
C347 C349 1.415 . S
C348 C347 1.355 . S
C348 C350 1.419 . S
C349 C344 1.425 . S
C349 C346 1.409 . S
C349 C347 1.415 . S
C350 H340 0.930 . S
C350 C348 1.419 . S
C350 C351 1.362 . S
C351 H341 0.930 . S
C351 C344 1.409 . S
C351 C350 1.362 . S
H352 C358 0.930 . S
H353 C361 0.930 . S
H354 C362 0.930 . S
H355 C363 0.930 . S
H356 C366 0.930 . S
H357 C367 0.930 . S
C358 H352 0.930 . S
C358 C359 1.355 . S
C358 C360 1.415 . S
C359 C358 1.355 . S
C359 C361 1.419 . S
C360 C358 1.415 . S
C360 C365 1.425 . S
C360 C367 1.409 . S
C361 H353 0.930 . S
C361 C359 1.419 . S
C361 C362 1.362 . S
C362 H354 0.930 . S
C362 C361 1.362 . S
C362 C365 1.409 . S
C363 H355 0.930 . S
C363 C364 1.355 . S
C363 C365 1.415 . S
C364 C363 1.355 . S
C364 C366 1.419 . S
C365 C360 1.425 . S
C365 C362 1.409 . S
C365 C363 1.415 . S
C366 H356 0.930 . S
C366 C364 1.419 . S
C366 C367 1.362 . S
C367 H357 0.930 . S
C367 C360 1.409 . S
C367 C366 1.362 . S
C119 C8 1.250 . S
C124 C92 1.242 . S
C135 C22 1.226 . S
C140 C106 1.221 . S
C151 C64 1.217 . S
C156 C36 1.218 . S
C167 C78 1.217 . S
C172 C50 1.218 . S
C183 C6 1.463 . S
C188 C76 1.511 . S
C199 C20 1.453 . S
C204 C90 1.477 . S
C215 C104 1.522 . S
C220 C34 1.493 . S
C231 C48 1.475 . S
C236 C62 1.453 . S
C247 C65 1.549 . S
C252 C9 1.512 . S
C263 C23 1.552 . S
C268 C79 1.534 . S
C279 C37 1.551 . S
C284 C93 1.516 . S
C295 C107 1.512 . S
C300 C51 1.549 . S
C311 C91 1.353 . S
C316 C7 1.361 . S
C327 C105 1.306 . S
C332 C21 1.289 . S
C343 C35 1.347 . S
C348 C63 1.318 . S
C359 C49 1.350 . S
C364 C77 1.362 . S
