# Generated by pormake.
# Topology yfh, (5)-cn, num edge types: 1
# Building blocks:
#     Node 0, Type 0, BuildingBlock: XOMCOT_clean_sbu_1, # of connection points: 5
#     Node 1, Type 0, BuildingBlock: XOMCOT_clean_sbu_1, # of connection points: 5
#     Node 2, Type 0, BuildingBlock: XOMCOT_clean_sbu_1, # of connection points: 5
#     Node 3, Type 0, BuildingBlock: XOMCOT_clean_sbu_1, # of connection points: 5
#     Node 4, Type 0, BuildingBlock: XOMCOT_clean_sbu_1, # of connection points: 5
#     Node 5, Type 0, BuildingBlock: XOMCOT_clean_sbu_1, # of connection points: 5
#     Node 6, Type 0, BuildingBlock: XOMCOT_clean_sbu_1, # of connection points: 5
#     Node 7, Type 0, BuildingBlock: XOMCOT_clean_sbu_1, # of connection points: 5
#     Edge 8, Type (0, 0), BuildingBlock: MIFKUJ_clean_linker_0, # of connection points: 2
#     Edge 9, Type (0, 0), BuildingBlock: MIFKUJ_clean_linker_0, # of connection points: 2
#     Edge 10, Type (0, 0), BuildingBlock: MIFKUJ_clean_linker_0, # of connection points: 2
#     Edge 11, Type (0, 0), BuildingBlock: MIFKUJ_clean_linker_0, # of connection points: 2
#     Edge 12, Type (0, 0), BuildingBlock: MIFKUJ_clean_linker_0, # of connection points: 2
#     Edge 13, Type (0, 0), BuildingBlock: MIFKUJ_clean_linker_0, # of connection points: 2
#     Edge 14, Type (0, 0), BuildingBlock: MIFKUJ_clean_linker_0, # of connection points: 2
#     Edge 15, Type (0, 0), BuildingBlock: MIFKUJ_clean_linker_0, # of connection points: 2
#     Edge 16, Type (0, 0), BuildingBlock: MIFKUJ_clean_linker_0, # of connection points: 2
#     Edge 17, Type (0, 0), BuildingBlock: MIFKUJ_clean_linker_0, # of connection points: 2
#     Edge 18, Type (0, 0), BuildingBlock: MIFKUJ_clean_linker_0, # of connection points: 2
#     Edge 19, Type (0, 0), BuildingBlock: MIFKUJ_clean_linker_0, # of connection points: 2
#     Edge 20, Type (0, 0), BuildingBlock: MIFKUJ_clean_linker_0, # of connection points: 2
#     Edge 21, Type (0, 0), BuildingBlock: MIFKUJ_clean_linker_0, # of connection points: 2
#     Edge 22, Type (0, 0), BuildingBlock: MIFKUJ_clean_linker_0, # of connection points: 2
#     Edge 23, Type (0, 0), BuildingBlock: MIFKUJ_clean_linker_0, # of connection points: 2
#     Edge 24, Type (0, 0), BuildingBlock: MIFKUJ_clean_linker_0, # of connection points: 2
#     Edge 25, Type (0, 0), BuildingBlock: MIFKUJ_clean_linker_0, # of connection points: 2
#     Edge 26, Type (0, 0), BuildingBlock: MIFKUJ_clean_linker_0, # of connection points: 2
#     Edge 27, Type (0, 0), BuildingBlock: MIFKUJ_clean_linker_0, # of connection points: 2
# Relax obj value: 0.371
# Max RMSD: 0.270
# Mean RMSD: 0.270
data_MOF--net-yfh--node1-XOMCOT_clean_sbu_1--edge1-MIFKUJ_clean_linker_0
_symmetry_space_group_name_H-M    P1
_symmetry_Int_Tables_number       1
_symmetry_cell_setting            triclinic
loop_
_symmetry_equiv_pos_as_xyz
'x, y, z'
_cell_length_a     36.126253
_cell_length_b     36.170733
_cell_length_c     73.232415
_cell_angle_alpha  90.268393
_cell_angle_beta   90.079297
_cell_angle_gamma 90.011612
loop_
_atom_site_label
_atom_site_type_symbol
_atom_site_fract_x
_atom_site_fract_y
_atom_site_fract_z
_atom_type_partial_charge
C0 C 0.35324 0.10669 0.08186 0.0
C1 C 0.34187 0.11005 0.06398 0.0
N2 N 0.31343 0.13415 0.06348 0.0
N3 N 0.33237 0.129 0.09245 0.0
C4 C 0.30802 0.14483 0.08093 0.0
H5 H 0.3761 0.09014 0.08677 0.0
Co6 Co 0.33824 0.13797 0.11728 0.0
C7 C 0.32783 0.21873 0.12039 0.0
O8 O 0.35856 0.21861 0.13004 0.0
N9 N 0.34266 0.1456 0.14283 0.0
C10 C 0.32519 0.15987 0.17119 0.0
C11 C 0.32031 0.16742 0.15309 0.0
C12 C 0.35915 0.12335 0.15527 0.0
N13 N 0.34933 0.13187 0.17258 0.0
O14 O 0.29239 0.11245 0.1216 0.0
H15 H 0.29853 0.18492 0.14792 0.0
H16 H 0.37504 0.09903 0.15174 0.0
O17 O 0.31448 0.18783 0.11459 0.0
C18 C 0.30336 0.07919 0.12404 0.0
O19 O 0.33909 0.07247 0.12331 0.0
N20 N 0.38563 0.15803 0.11228 0.0
C21 C 0.45446 0.16456 0.09521 0.0
C22 C 0.42449 0.18645 0.08972 0.0
C23 C 0.39032 0.18247 0.09825 0.0
C24 C 0.41526 0.13865 0.11871 0.0
C25 C 0.45004 0.14183 0.11052 0.0
H26 H 0.36683 0.19599 0.09207 0.0
H27 H 0.41146 0.11758 0.12884 0.0
H28 H 0.28781 0.16523 0.08511 0.0
H29 H 0.35401 0.09642 0.05225 0.0
H30 H 0.30883 0.171 0.18232 0.0
H31 H 0.42611 0.2036 0.07767 0.0
H32 H 0.47243 0.12436 0.11521 0.0
C33 C 0.3964 0.84856 0.3396 0.0
C34 C 0.3918 0.8375 0.32179 0.0
N35 N 0.35779 0.82265 0.31999 0.0
N36 N 0.36569 0.84039 0.34924 0.0
C37 C 0.34258 0.8248 0.33684 0.0
H38 H 0.42034 0.86287 0.3449 0.0
Co39 Co 0.35736 0.85462 0.37359 0.0
C40 C 0.30521 0.78836 0.37456 0.0
O41 O 0.32944 0.76276 0.37017 0.0
N42 N 0.34878 0.86934 0.39801 0.0
C43 C 0.32057 0.88707 0.42368 0.0
C44 C 0.31676 0.88234 0.40509 0.0
C45 C 0.3715 0.86653 0.41264 0.0
N46 N 0.35516 0.87705 0.42838 0.0
O47 O 0.39247 0.81757 0.38146 0.0
H48 H 0.29176 0.88719 0.39733 0.0
H49 H 0.39908 0.85536 0.4121 0.0
O50 O 0.31532 0.82198 0.37585 0.0
C51 C 0.42407 0.83355 0.38149 0.0
O52 O 0.42486 0.86938 0.37853 0.0
N53 N 0.32704 0.8924 0.36503 0.0
C54 C 0.30239 0.94403 0.33993 0.0
C55 C 0.28031 0.91347 0.34433 0.0
C56 C 0.29317 0.88777 0.35699 0.0
C57 C 0.34658 0.92413 0.36262 0.0
C58 C 0.33472 0.95049 0.3501 0.0
H59 H 0.27753 0.86267 0.3587 0.0
H60 H 0.37355 0.92701 0.3689 0.0
H61 H 0.31443 0.81693 0.33988 0.0
H62 H 0.41196 0.84069 0.31101 0.0
H63 H 0.29936 0.89663 0.43299 0.0
H64 H 0.25494 0.90781 0.33692 0.0
H65 H 0.35278 0.97355 0.34705 0.0
C66 C 0.67442 0.8923 0.59462 0.0
C67 C 0.69581 0.89026 0.5791 0.0
N68 N 0.71972 0.86181 0.5809 0.0
N69 N 0.68462 0.86517 0.60608 0.0
C70 C 0.71245 0.84741 0.5975 0.0
H71 H 0.65267 0.9121 0.59737 0.0
Co72 Co 0.6647 0.85614 0.62894 0.0
C73 C 0.66903 0.77455 0.63222 0.0
O74 O 0.63453 0.77558 0.6379 0.0
N75 N 0.64567 0.84882 0.65278 0.0
C76 C 0.64598 0.83479 0.6824 0.0
C77 C 0.65945 0.82558 0.66553 0.0
C78 C 0.62532 0.87323 0.66267 0.0
N79 N 0.62491 0.86512 0.68067 0.0
O80 O 0.7083 0.87777 0.6396 0.0
H81 H 0.68155 0.80599 0.66339 0.0
H82 H 0.61438 0.8987 0.65721 0.0
O83 O 0.68596 0.80495 0.62865 0.0
C84 C 0.70081 0.91205 0.64174 0.0
O85 O 0.66761 0.9238 0.63734 0.0
N86 N 0.62075 0.83921 0.61741 0.0
C87 C 0.56212 0.83263 0.59261 0.0
C88 C 0.59352 0.8102 0.59102 0.0
C89 C 0.62271 0.81443 0.60325 0.0
C90 C 0.58943 0.85978 0.61979 0.0
C91 C 0.55958 0.85666 0.60764 0.0
H92 H 0.64811 0.79996 0.60023 0.0
H93 H 0.58864 0.88118 0.63006 0.0
H94 H 0.72657 0.82384 0.60319 0.0
H95 H 0.69371 0.90838 0.56744 0.0
H96 H 0.65505 0.82314 0.69525 0.0
H97 H 0.59666 0.79126 0.57962 0.0
H98 H 0.53614 0.87508 0.60916 0.0
C99 C 0.61584 0.17485 0.84556 0.0
C100 C 0.61747 0.18822 0.82801 0.0
N101 N 0.64955 0.2069 0.82603 0.0
N102 N 0.64672 0.18495 0.8546 0.0
C103 C 0.66654 0.20461 0.84244 0.0
H104 H 0.5938 0.15842 0.85135 0.0
Co105 Co 0.65789 0.17214 0.87847 0.0
C106 C 0.73923 0.17855 0.88088 0.0
O107 O 0.7384 0.14555 0.88834 0.0
N108 N 0.66793 0.16024 0.90323 0.0
C109 C 0.68556 0.16939 0.93211 0.0
C110 C 0.68973 0.18072 0.91443 0.0
C111 C 0.64918 0.13793 0.91483 0.0
N112 N 0.6598 0.1427 0.93238 0.0
O113 O 0.63568 0.21774 0.88637 0.0
H114 H 0.70526 0.20486 0.9104 0.0
H115 H 0.62571 0.12119 0.91091 0.0
O116 O 0.70864 0.19425 0.87632 0.0
C117 C 0.60252 0.20962 0.89097 0.0
O118 O 0.5928 0.17464 0.89115 0.0
N119 N 0.67444 0.12581 0.86958 0.0
C120 C 0.67313 0.06462 0.8461 0.0
C121 C 0.69937 0.09268 0.84382 0.0
C122 C 0.69917 0.12326 0.85546 0.0
C123 C 0.65052 0.09739 0.87275 0.0
C124 C 0.64968 0.06635 0.86132 0.0
H125 H 0.7159 0.14657 0.85154 0.0
H126 H 0.62876 0.10055 0.88265 0.0
H127 H 0.69352 0.21599 0.84542 0.0
H128 H 0.59655 0.18432 0.8176 0.0
H129 H 0.69739 0.18264 0.94406 0.0
H130 H 0.71724 0.09318 0.83195 0.0
H131 H 0.62872 0.04541 0.86351 0.0
C132 C 0.85584 0.39229 0.64962 0.0
C133 C 0.84236 0.39295 0.66722 0.0
N134 N 0.8147 0.36801 0.66841 0.0
N135 N 0.83702 0.36675 0.6399 0.0
C136 C 0.81197 0.3528 0.65161 0.0
H137 H 0.87827 0.40886 0.64431 0.0
Co138 Co 0.84423 0.35338 0.61572 0.0
C139 C 0.83249 0.2729 0.61416 0.0
O140 O 0.86283 0.27211 0.60427 0.0
N141 N 0.84974 0.34068 0.59072 0.0
C142 C 0.83012 0.3227 0.56324 0.0
C143 C 0.82237 0.32318 0.58148 0.0
C144 C 0.87313 0.3521 0.57742 0.0
N145 N 0.86194 0.34113 0.56061 0.0
O146 O 0.7987 0.37823 0.60976 0.0
H147 H 0.79682 0.31354 0.58746 0.0
H148 H 0.89615 0.37055 0.57967 0.0
O149 O 0.82015 0.30413 0.62004 0.0
C150 C 0.80919 0.4099 0.60399 0.0
O151 O 0.84489 0.4159 0.60219 0.0
N152 N 0.89106 0.33448 0.62237 0.0
C153 C 0.95652 0.33446 0.64281 0.0
C154 C 0.92766 0.30996 0.64695 0.0
C155 C 0.89507 0.31067 0.63672 0.0
C156 C 0.91992 0.35648 0.61737 0.0
C157 C 0.95316 0.35629 0.62711 0.0
H158 H 0.87167 0.29569 0.64206 0.0
H159 H 0.91579 0.37798 0.60746 0.0
H160 H 0.79274 0.33107 0.64802 0.0
H161 H 0.85232 0.4103 0.67826 0.0
H162 H 0.81181 0.31276 0.55257 0.0
H163 H 0.92832 0.29337 0.65921 0.0
H164 H 0.97464 0.3757 0.62338 0.0
C165 C 0.13687 0.37908 0.89706 0.0
C166 C 0.13998 0.36523 0.91448 0.0
N167 N 0.16439 0.33709 0.9141 0.0
N168 N 0.1592 0.35968 0.88583 0.0
C169 C 0.17529 0.33412 0.89656 0.0
H170 H 0.11942 0.40178 0.89284 0.0
Co171 Co 0.16441 0.36638 0.8609 0.0
C172 C 0.24205 0.34491 0.85271 0.0
O173 O 0.24324 0.37382 0.8419 0.0
N174 N 0.16811 0.37206 0.83536 0.0
C175 C 0.17391 0.35397 0.8064 0.0
C176 C 0.18053 0.34487 0.82419 0.0
C177 C 0.15175 0.3964 0.82387 0.0
N178 N 0.15569 0.38626 0.80618 0.0
O179 O 0.13329 0.3237 0.85682 0.0
H180 H 0.19126 0.31855 0.8287 0.0
H181 H 0.13459 0.41919 0.8283 0.0
O182 O 0.21177 0.33735 0.86115 0.0
C183 C 0.10116 0.33853 0.85583 0.0
O184 O 0.09926 0.37479 0.85669 0.0
N185 N 0.18978 0.41096 0.86602 0.0
C186 C 0.20283 0.47296 0.88827 0.0
C187 C 0.22915 0.44453 0.88677 0.0
C188 C 0.22119 0.41305 0.87645 0.0
C189 C 0.16661 0.44064 0.86519 0.0
C190 C 0.17225 0.47164 0.87635 0.0
H191 H 0.2382 0.38924 0.87897 0.0
H192 H 0.14059 0.4382 0.85804 0.0
H193 H 0.19404 0.31313 0.89157 0.0
H194 H 0.12572 0.37528 0.92647 0.0
H195 H 0.17856 0.33637 0.79462 0.0
H196 H 0.25406 0.44444 0.89497 0.0
H197 H 0.15059 0.49222 0.87688 0.0
C198 C 0.15242 0.61075 0.1505 0.0
C199 C 0.16777 0.61935 0.16719 0.0
N200 N 0.18501 0.65225 0.16579 0.0
N201 N 0.15982 0.63814 0.13865 0.0
C202 C 0.17998 0.66291 0.14832 0.0
H203 H 0.13585 0.58666 0.14732 0.0
Co204 Co 0.14018 0.64031 0.11525 0.0
C205 C 0.15424 0.7157 0.10178 0.0
O206 O 0.12143 0.71385 0.09409 0.0
N207 N 0.12033 0.64127 0.09115 0.0
C208 C 0.08541 0.63885 0.06602 0.0
C209 C 0.08513 0.64184 0.08477 0.0
C210 C 0.14124 0.63833 0.07588 0.0
N211 N 0.12079 0.63626 0.0605 0.0
O212 O 0.18073 0.6101 0.10672 0.0
H213 H 0.06046 0.64353 0.09299 0.0
H214 H 0.17115 0.637 0.07602 0.0
O215 O 0.16664 0.68757 0.11051 0.0
C216 C 0.16778 0.57735 0.10496 0.0
O217 O 0.13244 0.57198 0.10828 0.0
N218 N 0.09908 0.66481 0.12515 0.0
C219 C 0.04564 0.67965 0.15161 0.0
C220 C 0.07363 0.70541 0.14794 0.0
C221 C 0.10037 0.69735 0.13474 0.0
C222 C 0.07099 0.64038 0.12804 0.0
C223 C 0.04355 0.64758 0.1409 0.0
H224 H 0.12402 0.71541 0.13393 0.0
H225 H 0.07181 0.61349 0.12153 0.0
H226 H 0.18916 0.68916 0.14299 0.0
H227 H 0.16596 0.60287 0.17946 0.0
H228 H 0.06138 0.63685 0.05722 0.0
H229 H 0.07652 0.73018 0.1562 0.0
H230 H 0.02308 0.62645 0.14367 0.0
C231 C 0.9038 0.64135 0.40979 0.0
C232 C 0.9068 0.65292 0.42767 0.0
N233 N 0.88317 0.68131 0.4303 0.0
N234 N 0.87827 0.66221 0.40125 0.0
C235 C 0.86644 0.68644 0.414 0.0
H236 H 0.91904 0.61902 0.40343 0.0
Co237 Co 0.86386 0.65793 0.37695 0.0
C238 C 0.78357 0.67166 0.37825 0.0
O239 O 0.78034 0.6411 0.36859 0.0
N240 N 0.8507 0.6549 0.35184 0.0
C241 C 0.8313 0.67358 0.32445 0.0
C242 C 0.82791 0.67845 0.34292 0.0
C243 C 0.86922 0.63752 0.33819 0.0
N244 N 0.8576 0.6481 0.32147 0.0
O245 O 0.89091 0.70257 0.37178 0.0
H246 H 0.8125 0.70075 0.34912 0.0
H247 H 0.89317 0.62016 0.34032 0.0
O248 O 0.81597 0.68399 0.38236 0.0
C249 C 0.9227 0.68888 0.368 0.0
O250 O 0.92615 0.65269 0.36809 0.0
N251 N 0.84289 0.61138 0.38253 0.0
C252 C 0.83649 0.54222 0.39896 0.0
C253 C 0.81661 0.57254 0.4057 0.0
C254 C 0.82085 0.60699 0.39758 0.0
C255 C 0.86037 0.58148 0.37509 0.0
C256 C 0.85741 0.54657 0.38304 0.0
H257 H 0.8095 0.63064 0.40466 0.0
H258 H 0.8801 0.58508 0.36427 0.0
H259 H 0.84536 0.70696 0.41144 0.0
H260 H 0.9251 0.64136 0.43786 0.0
H261 H 0.81853 0.69051 0.31404 0.0
H262 H 0.80116 0.57067 0.41833 0.0
H263 H 0.87371 0.5239 0.37764 0.0
H264 H 0.24308 0.15912 0.06105 0.0
H265 H 0.21513 0.19156 0.03524 0.0
H266 H 0.31559 0.17681 0.00428 0.0
H267 H 0.34384 0.14483 0.03016 0.0
H268 H 0.29064 0.24903 0.00446 0.0
H269 H 0.24093 0.12748 0.9935 0.0
H270 H 0.20775 0.07027 0.00155 0.0
H271 H 0.10916 0.13288 0.01238 0.0
H272 H 0.14192 0.19056 0.00464 0.0
H273 H 0.23123 0.30422 0.91749 0.0
H274 H 0.25341 0.26765 0.94314 0.0
H275 H 0.14975 0.28484 0.97108 0.0
H276 H 0.12687 0.32081 0.94511 0.0
H277 H 0.17412 0.21248 0.97325 0.0
H278 H 0.22203 0.33351 0.98404 0.0
H279 H 0.25406 0.39145 0.97616 0.0
H280 H 0.35464 0.3313 0.96649 0.0
H281 H 0.32306 0.27285 0.97404 0.0
C282 C 0.2591 0.16262 0.0487 0.0
C283 C 0.29569 0.14953 0.04764 0.0
C284 C 0.24305 0.18094 0.03394 0.0
C285 C 0.2633 0.18649 0.01786 0.0
C286 C 0.29953 0.17275 0.01659 0.0
C287 C 0.31551 0.1542 0.03131 0.0
C288 C 0.24734 0.20821 0.00269 0.0
C289 C 0.26545 0.24078 -0.00255 0.0
C290 C 0.21377 0.19805 0.99405 0.0
C291 C 0.194 0.16338 -0.00133 0.0
C292 C 0.21227 0.12909 -0.00225 0.0
C293 C 0.19352 0.09657 0.00223 0.0
C294 C 0.1564 0.09795 0.00752 0.0
C295 C 0.13793 0.13186 0.0083 0.0
C296 C 0.15657 0.16447 0.00386 0.0
C297 C 0.21293 0.29988 0.92896 0.0
C298 C 0.17725 0.31538 0.92926 0.0
C299 C 0.22578 0.27924 0.94368 0.0
C300 C 0.20333 0.27386 0.95905 0.0
C301 C 0.16749 0.28879 0.95933 0.0
C302 C 0.15461 0.30956 0.94458 0.0
C303 C 0.21773 0.25298 0.97486 0.0
C304 C 0.19928 0.22072 0.98028 0.0
C305 C 0.25084 0.26356 0.9838 0.0
C306 C 0.27008 0.29873 0.97946 0.0
C307 C 0.25091 0.33258 0.98011 0.0
C308 C 0.26899 0.36553 0.97572 0.0
C309 C 0.30633 0.36504 0.9708 0.0
C310 C 0.3257 0.33162 0.9703 0.0
C311 C 0.30774 0.29857 0.97465 0.0
H312 H 0.32028 0.39058 0.9674 0.0
H313 H 0.14193 0.07274 0.01098 0.0
H314 H 0.24229 0.70021 0.16266 0.0
H315 H 0.27244 0.73492 0.18739 0.0
H316 H 0.1977 0.68609 0.22631 0.0
H317 H 0.16731 0.6517 0.20169 0.0
H318 H 0.20734 0.76217 0.2315 0.0
H319 H 0.2825 0.65255 0.22229 0.0
H320 H 0.32045 0.60953 0.204 0.0
H321 H 0.39587 0.69747 0.19128 0.0
H322 H 0.35805 0.74114 0.20931 0.0
H323 H 0.29841 0.77664 0.317 0.0
H324 H 0.27021 0.7537 0.2889 0.0
H325 H 0.34987 0.81372 0.25703 0.0
H326 H 0.37841 0.8371 0.28495 0.0
H327 H 0.33951 0.7391 0.24602 0.0
H328 H 0.27053 0.84651 0.25932 0.0
H329 H 0.2335 0.89018 0.27755 0.0
H330 H 0.14603 0.81025 0.28142 0.0
H331 H 0.18298 0.76556 0.26369 0.0
C332 C 0.23217 0.69709 0.17647 0.0
C333 C 0.20264 0.67297 0.18025 0.0
C334 C 0.24949 0.7168 0.19058 0.0
C335 C 0.23743 0.71289 0.20869 0.0
C336 C 0.20746 0.68946 0.21243 0.0
C337 C 0.19037 0.66954 0.19838 0.0
C338 C 0.25652 0.73235 0.22389 0.0
C339 C 0.23613 0.75693 0.23483 0.0
C340 C 0.29444 0.72645 0.22775 0.0
C341 C 0.31723 0.70019 0.21697 0.0
C342 C 0.307 0.66278 0.21546 0.0
C343 C 0.32852 0.63827 0.20517 0.0
C344 C 0.36049 0.65079 0.19643 0.0
C345 C 0.37106 0.68783 0.19802 0.0
C346 C 0.34961 0.71246 0.20829 0.0
C347 C 0.30977 0.78551 0.30409 0.0
C348 C 0.34072 0.80907 0.30339 0.0
C349 C 0.29347 0.77233 0.28802 0.0
C350 C 0.30751 0.78248 0.27093 0.0
C351 C 0.33855 0.80561 0.2701 0.0
C352 C 0.35488 0.81891 0.28615 0.0
C353 C 0.29006 0.76818 0.25399 0.0
C354 C 0.31078 0.74464 0.24268 0.0
C355 C 0.25247 0.77531 0.24975 0.0
C356 C 0.22998 0.80226 0.26043 0.0
C357 C 0.24368 0.83791 0.2643 0.0
C358 C 0.22262 0.86295 0.27451 0.0
C359 C 0.18749 0.85295 0.28071 0.0
C360 C 0.17327 0.81796 0.27662 0.0
C361 C 0.19432 0.79272 0.26651 0.0
H362 H 0.17123 0.87236 0.28863 0.0
H363 H 0.37712 0.63177 0.18847 0.0
H364 H 0.85276 0.74959 0.43396 0.0
H365 H 0.83552 0.78057 0.46215 0.0
H366 H 0.88102 0.69034 0.4933 0.0
H367 H 0.89649 0.65797 0.46499 0.0
H368 H 0.81719 0.70805 0.5067 0.0
H369 H 0.92401 0.776 0.49173 0.0
H370 H 0.96755 0.81066 0.47239 0.0
H371 H 0.88614 0.89561 0.46457 0.0
H372 H 0.8418 0.86113 0.48359 0.0
H373 H 0.77765 0.81477 0.58661 0.0
H374 H 0.816 0.78533 0.5634 0.0
H375 H 0.76025 0.84744 0.5215 0.0
H376 H 0.72076 0.87617 0.54442 0.0
H377 H 0.83975 0.84181 0.51729 0.0
H378 H 0.73127 0.76463 0.52955 0.0
H379 H 0.69084 0.72887 0.55005 0.0
H380 H 0.78257 0.65991 0.56504 0.0
H381 H 0.82375 0.69574 0.54487 0.0
C382 C 0.85899 0.73608 0.44674 0.0
C383 C 0.8758 0.70102 0.4471 0.0
C384 C 0.84959 0.75418 0.46293 0.0
C385 C 0.85744 0.73808 0.4799 0.0
C386 C 0.87483 0.7034 0.48037 0.0
C387 C 0.88395 0.68505 0.46413 0.0
C388 C 0.84541 0.75673 0.497 0.0
C389 C 0.8229 0.73708 0.50921 0.0
C390 C 0.85277 0.79464 0.50034 0.0
C391 C 0.87946 0.81582 0.48903 0.0
C392 C 0.91527 0.80196 0.4858 0.0
C393 C 0.94011 0.82158 0.47489 0.0
C394 C 0.9296 0.8553 0.46724 0.0
C395 C 0.89424 0.86948 0.47051 0.0
C396 C 0.86924 0.84992 0.48137 0.0
C397 C 0.77326 0.82226 0.5725 0.0
C398 C 0.74539 0.84756 0.56748 0.0
C399 C 0.79556 0.80556 0.55926 0.0
C400 C 0.79071 0.81406 0.54078 0.0
C401 C 0.76443 0.84064 0.53575 0.0
C402 C 0.74185 0.85709 0.54894 0.0
C403 C 0.81087 0.79334 0.52647 0.0
C404 C 0.83483 0.81261 0.51487 0.0
C405 C 0.80552 0.75493 0.52391 0.0
C406 C 0.78066 0.73311 0.53585 0.0
C407 C 0.74289 0.74203 0.53733 0.0
C408 C 0.71984 0.72174 0.54888 0.0
C409 C 0.73417 0.69219 0.55887 0.0
C410 C 0.77156 0.68286 0.55733 0.0
C411 C 0.79476 0.70314 0.54583 0.0
H412 H 0.71627 0.67646 0.56778 0.0
H413 H 0.94887 0.87045 0.4588 0.0
H414 H 0.74688 0.33575 0.66953 0.0
H415 H 0.71612 0.31029 0.69625 0.0
H416 H 0.80465 0.35053 0.73058 0.0
H417 H 0.83629 0.37495 0.70379 0.0
H418 H 0.79 0.27939 0.7371 0.0
H419 H 0.71859 0.39055 0.73114 0.0
H420 H 0.67989 0.43619 0.71506 0.0
H421 H 0.59734 0.3531 0.70502 0.0
H422 H 0.63579 0.30681 0.72083 0.0
H423 H 0.70592 0.25682 0.82369 0.0
H424 H 0.73139 0.28374 0.79613 0.0
H425 H 0.65101 0.22547 0.7635 0.0
H426 H 0.62569 0.19701 0.79094 0.0
H427 H 0.66005 0.30349 0.75541 0.0
H428 H 0.73001 0.1936 0.76386 0.0
H429 H 0.76963 0.14788 0.77918 0.0
H430 H 0.85693 0.22798 0.78356 0.0
H431 H 0.81724 0.27481 0.76903 0.0
C432 C 0.75991 0.33921 0.68273 0.0
C433 C 0.79443 0.35697 0.68443 0.0
C434 C 0.74201 0.32498 0.69804 0.0
C435 C 0.75803 0.3286 0.71541 0.0
C436 C 0.79183 0.3474 0.71727 0.0
C437 C 0.80979 0.36158 0.70195 0.0
C438 C 0.74074 0.31078 0.73146 0.0
C439 C 0.76181 0.28515 0.74134 0.0
C440 C 0.70348 0.31731 0.73647 0.0
C441 C 0.68025 0.34512 0.72701 0.0
C442 C 0.69232 0.38193 0.72537 0.0
C443 C 0.6704 0.40794 0.71634 0.0
C444 C 0.63622 0.39753 0.70899 0.0
C445 C 0.62384 0.36111 0.7107 0.0
C446 C 0.64567 0.33499 0.71972 0.0
C447 C 0.69372 0.24909 0.81075 0.0
C448 C 0.66375 0.22422 0.80972 0.0
C449 C 0.70839 0.26475 0.79498 0.0
C450 C 0.69339 0.25625 0.77785 0.0
C451 C 0.66298 0.23229 0.77666 0.0
C452 C 0.64846 0.21617 0.79243 0.0
C453 C 0.70963 0.2727 0.76126 0.0
C454 C 0.68831 0.2979 0.75123 0.0
C455 C 0.74679 0.26586 0.75615 0.0
C456 C 0.77027 0.23803 0.76559 0.0
C457 C 0.75732 0.20182 0.76844 0.0
C458 C 0.77987 0.17562 0.77695 0.0
C459 C 0.81573 0.18505 0.78239 0.0
C460 C 0.82913 0.2207 0.77932 0.0
C461 C 0.80651 0.24716 0.77106 0.0
H462 H 0.83318 0.1647 0.78894 0.0
H463 H 0.61929 0.4177 0.70199 0.0
H464 H 0.58609 0.14425 0.93801 0.0
H465 H 0.55538 0.14094 0.96775 0.0
H466 H 0.65966 0.11352 0.99316 0.0
H467 H 0.69048 0.11832 0.96346 0.0
H468 H 0.54297 0.09604 0.99471 0.0
H469 H 0.66841 0.15966 0.03308 0.0
H470 H 0.72322 0.19803 0.02641 0.0
H471 H 0.66725 0.24539 0.98034 0.0
H472 H 0.61196 0.20776 0.98691 0.0
H473 H 0.49043 0.10071 0.08594 0.0
H474 H 0.5326 0.09146 0.06043 0.0
H475 H 0.53181 0.20864 0.0498 0.0
H476 H 0.49085 0.21844 0.07592 0.0
H477 H 0.59763 0.17997 0.04135 0.0
H478 H 0.47086 0.15329 0.02866 0.0
H479 H 0.41044 0.1236 0.03388 0.0
H480 H 0.45929 0.01674 0.02519 0.0
H481 H 0.52027 0.04584 0.02025 0.0
C482 C 0.6021 0.13636 0.94988 0.0
C483 C 0.64057 0.13159 0.94858 0.0
C484 C 0.58464 0.13462 0.96688 0.0
C485 C 0.60538 0.12784 0.98277 0.0
C486 C 0.64325 0.11967 0.98116 0.0
C487 C 0.66078 0.12207 0.96424 0.0
C488 C 0.58817 0.13282 0.00102 0.0
C489 C 0.55514 0.11409 0.00495 0.0
C490 C 0.60338 0.1573 0.01423 0.0
C491 C 0.63625 0.18056 0.01037 0.0
C492 C 0.66778 0.17837 0.02157 0.0
C493 C 0.69892 0.19999 0.01781 0.0
C494 C 0.69876 0.22403 0.00292 0.0
C495 C 0.66739 0.22666 0.99183 0.0
C496 C 0.63615 0.2052 -0.00444 0.0
C497 C 0.50035 0.12479 0.07871 0.0
C498 C 0.48685 0.16035 0.08287 0.0
C499 C 0.52416 0.11934 0.06395 0.0
C500 C 0.53452 0.14922 0.05293 0.0
C501 C 0.52386 0.18512 0.05802 0.0
C502 C 0.50026 0.19066 0.07289 0.0
C503 C 0.55288 0.14269 0.03511 0.0
C504 C 0.58592 0.16134 0.03122 0.0
C505 C 0.5369 0.11932 0.02166 0.0
C506 C 0.50019 0.10171 0.02429 0.0
C507 C 0.46877 0.12344 0.02798 0.0
C508 C 0.43441 0.10672 0.03089 0.0
C509 C 0.43102 0.06829 0.02991 0.0
C510 C 0.46198 0.04651 0.02597 0.0
C511 C 0.49645 0.0631 0.02312 0.0
H512 H 0.40439 0.05539 0.03217 0.0
H513 H 0.72292 0.24068 2e-05 0.0
H514 H 0.28445 0.91506 0.30672 0.0
H515 H 0.28876 0.9457 0.27722 0.0
H516 H 0.31345 0.04899 0.30427 0.0
H517 H 0.30853 0.01859 0.33401 0.0
H518 H 0.26875 0.05688 0.27288 0.0
H519 H 0.38285 0.99787 0.29134 0.0
H520 H 0.42062 0.94522 0.30174 0.0
H521 H 0.39097 0.88395 0.25354 0.0
H522 H 0.35255 0.93612 0.24296 0.0
H523 H 0.36113 0.1568 0.20658 0.0
H524 H 0.35262 0.12166 0.23475 0.0
H525 H 0.33562 0.02217 0.20309 0.0
H526 H 0.34464 0.05737 0.17487 0.0
H527 H 0.37319 0.00903 0.23556 0.0
H528 H 0.26255 0.06955 0.21591 0.0
H529 H 0.22505 0.12228 0.20538 0.0
H530 H 0.24676 0.17989 0.25566 0.0
H531 H 0.28495 0.12774 0.26637 0.0
C532 C 0.28941 0.94459 0.30647 0.0
C533 C 0.2963 0.96446 0.3227 0.0
C534 C 0.29225 0.96194 0.28957 0.0
C535 C 0.30209 0.99937 0.28862 0.0
C536 C 0.30603 0.01999 0.30478 0.0
C537 C 0.30332 1.00261 0.32172 0.0
C538 C 0.3119 0.01608 0.2709 0.0
C539 C 0.29172 0.04665 0.26477 0.0
C540 C 0.34138 1.00206 0.26018 0.0
C541 C 0.36465 0.97078 0.26642 0.0
C542 C 0.3842 0.97308 0.28301 0.0
C543 C 0.40575 0.94336 0.28893 0.0
C544 C 0.40826 0.91132 0.27829 0.0
C545 C 0.38908 0.90885 0.26174 0.0
C546 C 0.36742 0.93849 0.25577 0.0
C547 C 0.35667 0.12723 0.20573 0.0
C548 C 0.35343 0.10975 0.18866 0.0
C549 C 0.35159 0.10726 0.22175 0.0
C550 C 0.34262 0.06954 0.22094 0.0
C551 C 0.34235 0.05132 0.20397 0.0
C552 C 0.34773 0.07134 0.18789 0.0
C553 C 0.33038 0.05024 0.23764 0.0
C554 C 0.35003 0.01913 0.24357 0.0
C555 C 0.30028 0.06366 0.24815 0.0
C556 C 0.27687 0.09486 0.24188 0.0
C557 C 0.25954 0.09357 0.22467 0.0
C558 C 0.23814 0.12334 0.21867 0.0
C559 C 0.23359 0.15445 0.22983 0.0
C560 C 0.25034 0.15579 0.24703 0.0
C561 C 0.27185 0.12612 0.25308 0.0
H562 H 0.21701 0.17747 0.22516 0.0
H563 H 0.42513 0.88843 0.28286 0.0
H564 H 0.42797 0.87955 0.43734 0.0
H565 H 0.45525 0.86893 0.46727 0.0
H566 H 0.34633 0.85939 0.49078 0.0
H567 H 0.31857 0.86908 0.46063 0.0
H568 H 0.39643 0.90172 0.51219 0.0
H569 H 0.39095 0.78444 0.48231 0.0
H570 H 0.4003 0.73979 0.45722 0.0
H571 H 0.518 0.75369 0.46155 0.0
H572 H 0.50938 0.79937 0.48625 0.0
H573 H 0.48591 0.83573 0.59412 0.0
H574 H 0.44273 0.84051 0.56823 0.0
H575 H 0.53507 0.84018 0.53091 0.0
H576 H 0.5778 0.8352 0.55641 0.0
H577 H 0.48283 0.79597 0.51868 0.0
H578 H 0.48848 0.92046 0.54364 0.0
H579 H 0.48116 0.96754 0.56785 0.0
H580 H 0.36577 0.94064 0.5724 0.0
H581 H 0.37254 0.89305 0.54836 0.0
C582 C 0.40968 0.87499 0.44879 0.0
C583 C 0.371 0.87457 0.44645 0.0
C584 C 0.42537 0.86911 0.46594 0.0
C585 C 0.4028 0.86279 0.48117 0.0
C586 C 0.36419 0.86407 0.47915 0.0
C587 C 0.3484 0.86975 0.46191 0.0
C588 C 0.41995 0.85387 0.499 0.0
C589 C 0.4148 0.87821 0.51376 0.0
C590 C 0.44415 0.82335 0.50092 0.0
C591 C 0.44945 0.79569 0.48606 0.0
C592 C 0.41882 0.77834 0.47778 0.0
C593 C 0.424 0.75284 0.46361 0.0
C594 C 0.45971 0.74405 0.45773 0.0
C595 C 0.49033 0.76063 0.46607 0.0
C596 C 0.48531 0.78638 0.48015 0.0
C597 C 0.49683 0.8366 0.58037 0.0
C598 C 0.5352 0.83457 0.5773 0.0
C599 C 0.47221 0.83938 0.56561 0.0
C600 C 0.48568 0.84074 0.54761 0.0
C601 C 0.52395 0.83876 0.54462 0.0
C602 C 0.54839 0.83576 0.55925 0.0
C603 C 0.46057 0.84466 0.53165 0.0
C604 C 0.46405 0.81918 0.51723 0.0
C605 C 0.43519 0.87429 0.52999 0.0
C606 C 0.43111 0.90291 0.54438 0.0
C607 C 0.46162 0.92439 0.54991 0.0
C608 C 0.45756 0.9512 0.56358 0.0
C609 C 0.42305 0.95699 0.5717 0.0
C610 C 0.3925 0.93606 0.56613 0.0
C611 C 0.39643 0.90918 0.55248 0.0
H612 H 0.41996 0.97776 0.58227 0.0
H613 H 0.46367 0.7243 0.44676 0.0
H614 H 0.72367 0.02716 0.82502 0.0
H615 H 0.71139 0.99372 0.79648 0.0
H616 H 0.5941 0.00956 0.80412 0.0
H617 H 0.6061 0.0438 0.83226 0.0
H618 H 0.6736 0.93304 0.78648 0.0
H619 H 0.55556 0.03173 0.76302 0.0
H620 H 0.537 0.09679 0.76755 0.0
H621 H 0.6497 0.1264 0.77924 0.0
H622 H 0.66902 0.06169 0.77449 0.0
H623 H 0.59274 0.84629 0.71228 0.0
H624 H 0.59425 0.88243 0.74063 0.0
H625 H 0.64286 0.97395 0.71164 0.0
H626 H 0.64005 0.93816 0.68318 0.0
H627 H 0.60121 0.99924 0.73909 0.0
H628 H 0.69754 0.91054 0.73167 0.0
H629 H 0.72405 0.84892 0.72555 0.0
H630 H 0.6696 0.8059 0.77301 0.0
H631 H 0.64219 0.86717 0.77923 0.0
C632 C 0.69526 0.02307 0.82073 0.0
C633 C 0.66591 0.0382 0.83091 0.0
C634 C 0.68828 1.0039 0.80445 0.0
C635 C 0.65187 0.99976 0.79803 0.0
C636 C 0.62244 0.01294 0.8087 0.0
C637 C 0.62936 0.03207 0.82494 0.0
C638 C 0.64466 0.98321 0.77981 0.0
C639 C 0.65763 0.94744 0.77616 0.0
C640 C 0.6249 1.00254 0.76612 0.0
C641 C 0.61363 0.04173 0.76859 0.0
C642 C 0.5764 0.05215 0.76647 0.0
C643 C 0.56575 0.08897 0.76908 0.0
C644 C 0.59213 0.11567 0.77375 0.0
C645 C 0.62927 0.10566 0.7757 0.0
C646 C 0.64006 0.06891 0.77306 0.0
C647 C 0.60243 0.87462 0.71192 0.0
C648 C 0.61645 0.88942 0.69566 0.0
C649 C 0.60358 0.89513 0.72809 0.0
C650 C 0.61965 0.93049 0.72835 0.0
C651 C 0.63054 0.94664 0.71179 0.0
C652 C 0.62882 0.92626 0.69552 0.0
C653 C 0.62902 0.94854 0.74602 0.0
C654 C 0.6168 0.98471 0.74949 0.0
C655 C 0.65068 0.93012 0.75934 0.0
C656 C 0.66754 0.89335 0.75581 0.0
C657 C 0.69103 0.88788 0.74074 0.0
C658 C 0.70622 0.85302 0.73725 0.0
C659 C 0.69845 0.82349 0.74887 0.0
C660 C 0.67555 0.82879 0.76402 0.0
C661 C 0.66018 0.86358 0.76753 0.0
H662 H 0.71025 0.79652 0.74615 0.0
H663 H 0.58381 0.14413 0.7758 0.0
H664 H 0.08185 0.38564 0.80226 0.0
H665 H 0.04932 0.38467 0.77284 0.0
H666 H 0.15139 0.41186 0.74541 0.0
H667 H 0.18394 0.41104 0.77481 0.0
H668 H 0.03391 0.42329 0.74367 0.0
H669 H 0.16201 0.35745 0.70842 0.0
H670 H 0.21823 0.32284 0.71699 0.0
H671 H 0.16406 0.28324 0.76526 0.0
H672 H 0.10737 0.31709 0.75682 0.0
H673 H 0.98581 0.40175 0.6522 0.0
H674 H 0.02409 0.41646 0.67854 0.0
H675 H 0.02921 0.30089 0.69251 0.0
H676 H 0.99246 0.2855 0.66545 0.0
H677 H 0.09231 0.33335 0.70112 0.0
H678 H 0.96486 0.35655 0.71148 0.0
H679 H 0.90332 0.38229 0.7047 0.0
H680 H 0.94634 0.49243 0.71038 0.0
H681 H 0.0085 0.46727 0.71678 0.0
C682 C 0.09679 0.39298 0.78998 0.0
C683 C 0.13519 0.39862 0.79064 0.0
C684 C 0.07835 0.39218 0.77318 0.0
C685 C 0.09814 0.39723 0.75686 0.0
C686 C 0.13573 0.40705 0.75778 0.0
C687 C 0.15423 0.40711 0.77453 0.0
C688 C 0.08078 0.38769 0.73904 0.0
C689 C 0.04686 0.40393 0.7343 0.0
C690 C 0.0969 0.36126 0.72708 0.0
C691 C 0.13063 0.34017 0.73208 0.0
C692 C 0.16207 0.34122 0.72082 0.0
C693 C 0.19401 0.32174 0.72566 0.0
C694 C 0.19476 0.30096 0.74169 0.0
C695 C 0.16349 0.29943 0.75287 0.0
C696 C 0.13146 0.31876 0.74807 0.0
C697 C 0.99614 0.37915 0.66039 0.0
C698 C 0.98573 0.34233 0.65668 0.0
C699 C 0.01765 0.38776 0.67566 0.0
C700 C 0.02869 0.35991 0.68776 0.0
C701 C 0.02068 0.3229 0.68345 0.0
C702 C 0.99945 0.31416 0.66803 0.0
C703 C 0.04599 0.36969 0.70554 0.0
C704 C 0.0797 0.35322 0.71035 0.0
C705 C 0.02888 0.39469 0.71789 0.0
C706 C 0.99143 0.41002 0.71442 0.0
C707 C 0.96127 0.38627 0.71117 0.0
C708 C 0.92625 0.40076 0.70739 0.0
C709 C 0.92088 0.43899 0.70708 0.0
C710 C 0.95055 0.46281 0.71059 0.0
C711 C 0.9857 0.44845 0.71429 0.0
H712 H 0.89373 0.45015 0.70415 0.0
H713 H 0.21954 0.28597 0.74543 0.0
H714 H 0.23629 0.46306 0.92191 0.0
H715 H 0.22887 0.49932 0.94918 0.0
H716 H 0.15961 0.57642 0.92025 0.0
H717 H 0.17047 0.54258 0.89186 0.0
H718 H 0.195 0.61183 0.94632 0.0
H719 H 0.12172 0.50142 0.94479 0.0
H720 H 0.10978 0.4348 0.94087 0.0
H721 H 0.18474 0.41056 0.98479 0.0
H722 H 0.19718 0.4772 0.98894 0.0
H723 H 0.09134 0.65819 0.02829 0.0
H724 H 0.11053 0.63806 -0.00237 0.0
H725 H 0.19802 0.57289 0.02137 0.0
H726 H 0.17905 0.59279 0.05187 0.0
H727 H 0.151 0.53371 -0.00256 0.0
H728 H 0.22085 0.64719 -0.00067 0.0
H729 H 0.2289 0.7145 0.00301 0.0
H730 H 0.15502 0.73355 0.95805 0.0
H731 H 0.14609 0.66631 0.95427 0.0
C732 C 0.22076 0.48847 0.92076 0.0
C733 C 0.20353 0.49909 0.90428 0.0
C734 C 0.2159 0.50893 0.93673 0.0
C735 C 0.19233 0.53967 0.93701 0.0
C736 C 0.17733 0.55227 0.92047 0.0
C737 C 0.18319 0.53243 0.90424 0.0
C738 C 0.18133 0.55649 0.95477 0.0
C739 C 0.18493 0.59482 0.95741 0.0
C740 C 0.16831 0.53434 0.96935 0.0
C741 C 0.16056 0.49426 0.96708 0.0
C742 C 0.13576 0.48187 0.95356 0.0
C743 C 0.12892 0.4441 0.9513 0.0
C744 C 0.14666 0.41841 0.96251 0.0
C745 C 0.1711 0.43049 0.97609 0.0
C746 C 0.17796 0.46827 0.97844 0.0
C747 C 0.11487 0.63987 0.02689 0.0
C748 C 0.13375 0.62715 0.04244 0.0
C749 C 0.12593 0.62859 0.00942 0.0
C750 C 0.15578 0.60413 0.00727 0.0
C751 C 0.17504 0.59193 0.02275 0.0
C752 C 0.16431 0.60352 0.04016 0.0
C753 C 0.16528 0.58884 0.98907 0.0
C754 C 0.16109 0.55072 0.98633 0.0
C755 C 0.17708 0.6113 0.97442 0.0
C756 C 0.18248 0.65172 0.97665 0.0
C757 C 0.20603 0.66573 0.99034 0.0
C758 C 0.21082 0.70387 0.99242 0.0
C759 C 0.19239 0.72829 0.98081 0.0
C760 C 0.16922 0.71461 0.96705 0.0
C761 C 0.16431 0.67648 0.96493 0.0
H762 H 0.19614 0.75781 0.98243 0.0
H763 H 0.14137 0.38916 0.96074 0.0
H764 H 0.97112 0.66825 0.15551 0.0
H765 H 0.93695 0.66206 0.18429 0.0
H766 H 0.0361 0.68872 0.21447 0.0
H767 H 0.07029 0.69492 0.18587 0.0
H768 H 1.00135 0.62259 0.22545 0.0
H769 H 0.97024 0.74984 0.21344 0.0
H770 H 0.94597 0.8012 0.19493 0.0
H771 H 0.83962 0.74839 0.19238 0.0
H772 H 0.86343 0.69641 0.21067 0.0
H773 H 0.93128 0.64587 0.31528 0.0
H774 H 0.96159 0.64828 0.28549 0.0
H775 H 0.85509 0.64107 0.25888 0.0
H776 H 0.82477 0.63975 0.28878 0.0
H777 H 0.89187 0.69525 0.24505 0.0
H778 H 0.92031 0.56911 0.25735 0.0
H779 H 0.94323 0.51603 0.27508 0.0
H780 H 0.05226 0.56329 0.27605 0.0
H781 H 0.02989 0.61693 0.25853 0.0
C782 C 0.98534 0.67351 0.16829 0.0
C783 C 0.02323 0.68235 0.16847 0.0
C784 C 0.96587 0.66994 0.18468 0.0
C785 C 0.98411 0.67483 0.20145 0.0
C786 C 0.0216 0.68482 0.20164 0.0
C787 C 0.04095 0.68878 0.18529 0.0
C788 C 0.96472 0.66754 0.21884 0.0
C789 C 0.97765 0.6387 0.2299 0.0
C790 C 0.93311 0.68777 0.22421 0.0
C791 C 0.91873 0.71905 0.21326 0.0
C792 C 0.94178 0.74901 0.20879 0.0
C793 C 0.92809 0.77827 0.19837 0.0
C794 C 0.89131 0.77801 0.19243 0.0
C795 C 0.86812 0.74852 0.19696 0.0
C796 C 0.88169 0.71917 0.20737 0.0
C797 C 0.9145 0.64368 0.30306 0.0
C798 C 0.87574 0.6424 0.30425 0.0
C799 C 0.9318 0.64516 0.28603 0.0
C800 C 0.91064 0.64468 0.26989 0.0
C801 C 0.87198 0.64163 0.27111 0.0
C802 C 0.8547 0.64065 0.28814 0.0
C803 C 0.92856 0.65028 0.25187 0.0
C804 C 0.91539 0.67885 0.24065 0.0
C805 C 0.95972 0.62946 0.24623 0.0
C806 C 0.97333 0.59721 0.25675 0.0
C807 C 0.94911 0.56833 0.26146 0.0
C808 C 0.96202 0.53812 0.27145 0.0
C809 C 0.99916 0.53634 0.27673 0.0
C810 C 0.02349 0.56473 0.27198 0.0
C811 C 0.01072 0.59503 0.26199 0.0
H812 H 0.0091 0.51292 0.28446 0.0
H813 H 0.88076 0.80069 0.18437 0.0
H814 H 0.90116 0.50971 0.40882 0.0
H815 H 0.91068 0.46654 0.43382 0.0
H816 H 0.79246 0.45832 0.44127 0.0
H817 H 0.78288 0.50241 0.41643 0.0
H818 H 0.8233 0.47564 0.47187 0.0
H819 H 0.84672 0.38348 0.42666 0.0
H820 H 0.87518 0.35615 0.39916 0.0
H821 H 0.98267 0.36466 0.42392 0.0
H822 H 0.95492 0.39253 0.45149 0.0
H823 H 0.85789 0.30456 0.52855 0.0
H824 H 0.86153 0.33238 0.4983 0.0
H825 H 0.89831 0.4349 0.5226 0.0
H826 H 0.8931 0.40764 0.55296 0.0
H827 H 0.90703 0.36719 0.47555 0.0
H828 H 0.84921 0.50478 0.50385 0.0
H829 H 0.81539 0.52793 0.53085 0.0
H830 H 0.7663 0.42097 0.53837 0.0
H831 H 0.79931 0.39739 0.51125 0.0
C832 C 0.87714 0.49766 0.41533 0.0
C833 C 0.84124 0.50935 0.41068 0.0
C834 C 0.88263 0.473 0.42967 0.0
C835 C 0.8523 0.45916 0.43945 0.0
C836 C 0.81629 0.46882 0.43398 0.0
C837 C 0.8108 0.49382 0.41976 0.0
C838 C 0.85828 0.43836 0.45662 0.0
C839 C 0.84151 0.45183 0.4726 0.0
C840 C 0.88194 0.40722 0.45763 0.0
C841 C 0.89875 0.39039 0.44109 0.0
C842 C 0.87646 0.37979 0.42619 0.0
C843 C 0.89246 0.36415 0.4106 0.0
C844 C 0.93072 0.35874 0.40978 0.0
C845 C 0.95305 0.36889 0.42457 0.0
C846 C 0.93719 0.38456 0.4402 0.0
C847 C 0.86749 0.3328 0.52739 0.0
C848 C 0.87434 0.35417 0.54312 0.0
C849 C 0.86982 0.34859 0.5101 0.0
C850 C 0.87923 0.38597 0.50826 0.0
C851 C 0.89028 0.40616 0.52379 0.0
C852 C 0.88763 0.39044 0.54113 0.0
C853 C 0.87237 0.40482 0.49067 0.0
C854 C 0.88894 0.39106 0.47471 0.0
C855 C 0.84771 0.43514 0.48953 0.0
C856 C 0.82705 0.44926 0.50563 0.0
C857 C 0.83106 0.48627 0.51122 0.0
C858 C 0.81204 0.49946 0.52655 0.0
C859 C 0.78878 0.47591 0.53634 0.0
C860 C 0.78438 0.43916 0.53079 0.0
C861 C 0.80324 0.42587 0.51544 0.0
H862 H 0.77407 0.48618 0.54818 0.0
H863 H 0.94306 0.34663 0.39769 0.0
H864 H 0.13263 0.77913 0.08511 0.0
H865 H 0.15476 0.84154 0.09047 0.0
H866 H 0.23807 0.80003 0.1273 0.0
H867 H 0.21512 0.7368 0.12237 0.0
H868 H 0.20476 0.85878 0.14185 0.0
H869 H 0.25958 0.83288 0.08376 0.0
H870 H 0.26105 0.81243 0.0516 0.0
H871 H 0.18411 0.89802 0.03727 0.0
H872 H 0.18179 0.91867 0.0694 0.0
H873 H 0.31647 0.01918 0.14451 0.0
H874 H 0.28638 0.95928 0.14228 0.0
H875 H 0.20456 0.00522 0.10588 0.0
H876 H 0.23575 0.06574 0.10773 0.0
H877 H 0.23444 0.94499 0.09147 0.0
H878 H 0.18316 0.97291 0.15017 0.0
H879 H 0.18447 0.99334 0.18233 0.0
H880 H 0.25758 0.90385 0.19568 0.0
H881 H 0.25718 0.88319 0.16355 0.0
C882 C 0.15596 0.78296 0.09423 0.0
C883 C 0.172 0.75272 0.10334 0.0
C884 C 0.16872 0.8189 0.09722 0.0
C885 C 0.19835 0.82571 0.10916 0.0
C886 C 0.21513 0.79554 0.11801 0.0
C887 C 0.20216 0.75934 0.11509 0.0
C888 C 0.21067 0.86448 0.11275 0.0
C889 C 0.21177 0.87749 0.13085 0.0
C890 C 0.21877 0.88935 0.09839 0.0
C891 C 0.22026 0.87711 0.07903 0.0
C892 C 0.24277 0.84717 0.07378 0.0
C893 C 0.24379 0.83557 0.05555 0.0
C894 C 0.22262 0.85385 0.04241 0.0
C895 C 0.20046 0.88385 0.04747 0.0
C896 C 0.19932 0.89555 0.06568 0.0
C897 C 0.29141 0.01685 0.13642 0.0
C898 C 0.2784 0.04714 0.1263 0.0
C899 C 0.27409 0.98249 0.13522 0.0
C900 C 0.24298 0.97751 0.12399 0.0
C901 C 0.2285 0.00835 0.11467 0.0
C902 C 0.24599 0.04302 0.11589 0.0
C903 C 0.22852 0.93941 0.12059 0.0
C904 C 0.22714 0.92644 0.10249 0.0
C905 C 0.22046 0.91456 0.13497 0.0
C906 C 0.22031 0.92664 0.15439 0.0
C907 C 0.1997 0.95771 0.15993 0.0
C908 C 0.20026 0.96932 0.17817 0.0
C909 C 0.22115 0.94995 0.19104 0.0
C910 C 0.24142 0.91884 0.1857 0.0
C911 C 0.24099 0.90713 0.16748 0.0
H912 H 0.22159 0.95902 0.20514 0.0
H913 H 0.22343 0.84482 0.02831 0.0
H914 H 0.72246 0.63677 0.39006 0.0
H915 H 0.66139 0.66299 0.3957 0.0
H916 H 0.7045 0.77235 0.38594 0.0
H917 H 0.76659 0.74593 0.38077 0.0
H918 H 0.65097 0.77278 0.4127 0.0
H919 H 0.6628 0.72416 0.35175 0.0
H920 H 0.67734 0.67655 0.32864 0.0
H921 H 0.59413 0.60531 0.35113 0.0
H922 H 0.57946 0.65232 0.37456 0.0
H923 H 0.49249 0.86399 0.38137 0.0
H924 H 0.55178 0.83419 0.38559 0.0
H925 H 0.49718 0.7296 0.39399 0.0
H926 H 0.43662 0.75958 0.38931 0.0
H927 H 0.55479 0.72321 0.37074 0.0
H928 H 0.53685 0.77868 0.42912 0.0
H929 H 0.52193 0.8293 0.45055 0.0
H930 H 0.6167 0.89018 0.43223 0.0
H931 H 0.63155 0.84064 0.41022 0.0
C932 C 0.71912 0.66651 0.38943 0.0
C933 C 0.7491 0.68933 0.38476 0.0
C934 C 0.68414 0.68144 0.39261 0.0
C935 C 0.67804 0.71953 0.39076 0.0
C936 C 0.70849 0.74281 0.38731 0.0
C937 C 0.74392 0.72779 0.38438 0.0
C938 C 0.63948 0.7342 0.39099 0.0
C939 C 0.62999 0.76223 0.40344 0.0
C940 C 0.61179 0.71974 0.37921 0.0
C941 C 0.6203 0.6916 0.36501 0.0
C942 C 0.64777 0.69824 0.35184 0.0
C943 C 0.65602 0.67138 0.33868 0.0
C944 C 0.63673 0.63789 0.33844 0.0
C945 C 0.60908 0.63124 0.35134 0.0
C946 C 0.60078 0.65799 0.36456 0.0
C947 C 0.49271 0.83465 0.38425 0.0
C948 C 0.45958 0.81419 0.38505 0.0
C949 C 0.52689 0.81767 0.38679 0.0
C950 C 0.5291 0.77977 0.39046 0.0
C951 C 0.49614 0.759 0.39131 0.0
C952 C 0.46158 0.77611 0.38867 0.0
C953 C 0.56617 0.76212 0.39235 0.0
C954 C 0.57551 0.7335 0.38023 0.0
C955 C 0.59368 0.77633 0.40435 0.0
C956 C 0.58524 0.80588 0.41792 0.0
C957 C 0.55442 0.80293 0.42957 0.0
C958 C 0.54596 0.83144 0.44183 0.0
C959 C 0.56841 0.86282 0.4428 0.0
C960 C 0.59935 0.86581 0.43148 0.0
C961 C 0.60778 0.83753 0.41909 0.0
H962 H 0.56181 0.88483 0.45231 0.0
H963 H 0.64316 0.61712 0.32824 0.0
H964 H 0.70227 0.95767 0.67098 0.0
H965 H 0.73079 0.01902 0.67165 0.0
H966 H 0.78648 0.99467 0.62093 0.0
H967 H 0.75877 0.93276 0.62064 0.0
H968 H 0.82732 0.04191 0.64153 0.0
H969 H 0.69959 0.03334 0.62167 0.0
H970 H 0.63401 0.01619 0.62561 0.0
H971 H 0.62663 0.08713 0.67265 0.0
H972 H 0.69238 0.10426 0.66914 0.0
H973 H 0.83757 0.20866 0.59541 0.0
H974 H 0.81886 0.14721 0.60505 0.0
H975 H 0.77151 0.19315 0.65419 0.0
H976 H 0.79005 0.25563 0.64438 0.0
H977 H 0.72838 0.13711 0.63938 0.0
H978 H 0.85495 0.15235 0.65621 0.0
H979 H 0.92034 0.16928 0.65152 0.0
H980 H 0.9301 0.08611 0.60977 0.0
H981 H 0.86458 0.06906 0.614 0.0
C982 C 0.72217 0.96476 0.66052 0.0
C983 C 0.72881 0.94038 0.64591 0.0
C984 C 0.73804 1.00004 0.66075 0.0
C985 C 0.75995 0.01193 0.64607 0.0
C986 C 0.76955 0.98625 0.63238 0.0
C987 C 0.75405 0.95068 0.6323 0.0
C988 C 0.7688 0.05194 0.64371 0.0
C989 C 0.80569 0.06268 0.64101 0.0
C990 C 0.74068 0.07936 0.6434 0.0
C991 C 0.70095 0.06979 0.64525 0.0
C992 C 0.684 0.04515 0.6329 0.0
C993 C 0.64682 0.03542 0.63505 0.0
C994 C 0.62619 0.05049 0.6494 0.0
C995 C 0.64267 0.07544 0.66156 0.0
C996 C 0.67988 0.08518 0.6595 0.0
C997 C 0.82285 0.20589 0.60821 0.0
C998 C 0.81559 0.23701 0.61922 0.0
C999 C 0.81233 0.17061 0.61375 0.0
C1000 C 0.79468 0.16533 0.63058 0.0
C1001 C 0.78547 0.19652 0.64122 0.0
C1002 C 0.79589 0.23219 0.63558 0.0
C1003 C 0.78685 0.12699 0.6369 0.0
C1004 C 0.75012 0.11651 0.64026 0.0
C1005 C 0.81512 0.09981 0.63776 0.0
C1006 C 0.85475 0.10956 0.63537 0.0
C1007 C 0.87097 0.1378 0.64596 0.0
C1008 C 0.90808 0.14741 0.64339 0.0
C1009 C 0.92935 0.12881 0.63034 0.0
C1010 C 0.91359 0.10049 0.61988 0.0
C1011 C 0.87647 0.0908 0.62237 0.0
H1012 H 0.95807 0.13631 0.62836 0.0
H1013 H 0.59741 0.0429 0.65106 0.0
H1014 H 0.58514 0.2641 0.86678 0.0
H1015 H 0.52375 0.29207 0.86334 0.0
H1016 H 0.48921 0.24223 0.91397 0.0
H1017 H 0.55007 0.2134 0.91702 0.0
H1018 H 0.44264 0.22422 0.88896 0.0
H1019 H 0.49552 0.339 0.90781 0.0
H1020 H 0.54018 0.39055 0.90795 0.0
H1021 H 0.5125 0.4153 0.8523 0.0
H1022 H 0.46802 0.36356 0.85173 0.0
H1023 H 0.26011 0.30542 0.88367 0.0
H1024 H 0.32227 0.28598 0.89322 0.0
H1025 H 0.36695 0.32571 0.84236 0.0
H1026 H 0.30537 0.34537 0.8329 0.0
H1027 H 0.40715 0.35093 0.87035 0.0
H1028 H 0.35777 0.23247 0.85138 0.0
H1029 H 0.31279 0.18116 0.85175 0.0
H1030 H 0.33378 0.16436 0.90884 0.0
H1031 H 0.37859 0.21588 0.90885 0.0
C1032 C 0.56499 0.26068 0.87759 0.0
C1033 C 0.57246 0.23708 0.89231 0.0
C1034 C 0.5297 0.27641 0.87556 0.0
C1035 C 0.50152 0.2692 0.88837 0.0
C1036 C 0.5102 0.24807 0.90383 0.0
C1037 C 0.54518 0.23201 0.90571 0.0
C1038 C 0.46224 0.27986 0.88465 0.0
C1039 C 0.43487 0.25217 0.88525 0.0
C1040 C 0.45189 0.31604 0.87941 0.0
C1041 C 0.47865 0.34717 0.87968 0.0
C1042 C 0.49917 0.35524 0.89555 0.0
C1043 C 0.52441 0.38454 0.89572 0.0
C1044 C 0.52924 0.40613 0.88013 0.0
C1045 C 0.50876 0.39852 0.86435 0.0
C1046 C 0.48349 0.36924 0.86411 0.0
C1047 C 0.28304 0.30924 0.87438 0.0
C1048 C 0.27772 0.32696 0.85752 0.0
C1049 C 0.31866 0.2983 0.87988 0.0
C1050 C 0.34948 0.30456 0.86854 0.0
C1051 C 0.34381 0.32091 0.85144 0.0
C1052 C 0.30845 0.33192 0.846 0.0
C1053 C 0.38788 0.29523 0.87449 0.0
C1054 C 0.41501 0.32313 0.87427 0.0
C1055 C 0.39801 0.25931 0.88018 0.0
C1056 C 0.37122 0.22826 0.88016 0.0
C1057 C 0.35258 0.218 0.86404 0.0
C1058 C 0.32716 0.18885 0.86417 0.0
C1059 C 0.32035 0.16958 0.88032 0.0
C1060 C 0.33904 0.17935 0.89635 0.0
C1061 C 0.36447 0.20849 0.89629 0.0
H1062 H 0.30066 0.14702 0.88039 0.0
H1063 H 0.54879 0.42881 0.88029 0.0
H1064 H 0.74839 0.42899 0.62457 0.0
H1065 H 0.72061 0.49098 0.62628 0.0
H1066 H 0.78815 0.52601 0.58101 0.0
H1067 H 0.81586 0.46458 0.57936 0.0
H1068 H 0.79759 0.57095 0.60961 0.0
H1069 H 0.69485 0.52092 0.57682 0.0
H1070 H 0.64432 0.47706 0.57014 0.0
H1071 H 0.5929 0.50391 0.62134 0.0
H1072 H 0.64342 0.54758 0.62845 0.0
H1073 H 0.72415 0.75577 0.60784 0.0
H1074 H 0.74539 0.69323 0.60004 0.0
H1075 H 0.67306 0.64801 0.64114 0.0
H1076 H 0.65125 0.70997 0.64856 0.0
H1077 H 0.66584 0.60879 0.61198 0.0
H1078 H 0.77152 0.65563 0.64558 0.0
H1079 H 0.8222 0.69955 0.65197 0.0
H1080 H 0.86835 0.67832 0.59894 0.0
H1081 H 0.81779 0.63445 0.5922 0.0
C1082 C 0.75612 0.44952 0.61455 0.0
C1083 C 0.78423 0.442 0.60183 0.0
C1084 C 0.74048 0.48506 0.61561 0.0
C1085 C 0.75259 0.51339 0.60389 0.0
C1086 C 0.77862 0.50486 0.59033 0.0
C1087 C 0.79422 0.46961 0.58931 0.0
C1088 C 0.74109 0.5526 0.60681 0.0
C1089 C 0.76875 0.5793 0.60985 0.0
C1090 C 0.70355 0.56353 0.60745 0.0
C1091 C 0.67313 0.53727 0.60324 0.0
C1092 C 0.67294 0.51724 0.58673 0.0
C1093 C 0.64426 0.49246 0.58285 0.0
C1094 C 0.61546 0.48763 0.59533 0.0
C1095 C 0.61525 0.50764 0.6117 0.0
C1096 C 0.64388 0.53245 0.61565 0.0
C1097 C 0.7133 0.73251 0.61539 0.0
C1098 C 0.68611 0.73785 0.62886 0.0
C1099 C 0.72533 0.69668 0.61088 0.0
C1100 C 0.71085 0.66562 0.61998 0.0
C1101 C 0.68446 0.67126 0.63376 0.0
C1102 C 0.67217 0.70683 0.63809 0.0
C1103 C 0.72233 0.62709 0.61513 0.0
C1104 C 0.69468 0.60049 0.61168 0.0
C1105 C 0.75993 0.6162 0.61413 0.0
C1106 C 0.79061 0.64215 0.61829 0.0
C1107 C 0.79236 0.66051 0.63524 0.0
C1108 C 0.82109 0.68534 0.63894 0.0
C1109 C 0.84841 0.69182 0.62584 0.0
C1110 C 0.84714 0.67334 0.60906 0.0
C1111 C 0.81847 0.64847 0.6053 0.0
H1112 H 0.87061 0.71109 0.62873 0.0
H1113 H 0.59328 0.46844 0.5923 0.0
H1114 H 0.75731 0.2519 0.87528 0.0
H1115 H 0.81945 0.2775 0.86987 0.0
H1116 H 0.8654 0.16742 0.87128 0.0
H1117 H 0.80435 0.14223 0.8774 0.0
H1118 H 0.9081 0.2116 0.88981 0.0
H1119 H 0.84259 0.22036 0.83184 0.0
H1120 H 0.79207 0.2436 0.81237 0.0
H1121 H 0.82973 0.35496 0.82065 0.0
H1122 H 0.87869 0.3328 0.84129 0.0
H1123 H 0.08889 0.26268 0.85851 0.0
H1124 H 0.0283 0.23149 0.86022 0.0
H1125 H 0.97348 0.33685 0.85455 0.0
H1126 H 0.03262 0.36725 0.85197 0.0
H1127 H 0.93605 0.29137 0.83677 0.0
H1128 H 0.98875 0.29067 0.89723 0.0
H1129 H 0.03572 0.27591 0.92057 0.0
H1130 H 0.02106 0.15995 0.90998 0.0
H1131 H 0.97434 0.17408 0.88639 0.0
C1132 C 0.78074 0.2333 0.8744 0.0
C1133 C 0.77589 0.19509 0.87681 0.0
C1134 C 0.81625 0.24788 0.87127 0.0
C1135 C 0.84728 0.22436 0.86996 0.0
C1136 C 0.84216 0.18625 0.87229 0.0
C1137 C 0.80705 0.17186 0.87574 0.0
C1138 C 0.88527 0.23877 0.86619 0.0
C1139 C 0.91421 0.22872 0.87806 0.0
C1140 C 0.89333 0.26193 0.85115 0.0
C1141 C 0.86425 0.27486 0.83829 0.0
C1142 C 0.8399 0.24984 0.8297 0.0
C1143 C 0.81142 0.26286 0.81849 0.0
C1144 C 0.80797 0.30069 0.81512 0.0
C1145 C 0.83252 0.32566 0.82323 0.0
C1146 C 0.86041 0.31291 0.83482 0.0
C1147 C 0.06383 0.27893 0.85735 0.0
C1148 C 0.06578 0.3175 0.85525 0.0
C1149 C 0.02917 0.26118 0.85848 0.0
C1150 C 0.99602 0.28183 0.85781 0.0
C1151 C 0.9983 0.32007 0.85509 0.0
C1152 C 0.0325 0.33754 0.85373 0.0
C1153 C 0.95871 0.26476 0.86055 0.0
C1154 C 0.92993 0.27407 0.84844 0.0
C1155 C 0.95048 0.242 0.87569 0.0
C1156 C 0.97842 0.23344 0.8899 0.0
C1157 C 0.99575 0.26203 0.8998 0.0
C1158 C 0.02229 0.25379 0.91308 0.0
C1159 C 0.03145 0.21702 0.91671 0.0
C1160 C 0.014 0.18842 0.90712 0.0
C1161 C 0.98749 0.19652 0.89379 0.0
H1162 H 0.052 0.21068 0.927 0.0
H1163 H 0.78636 0.31077 0.80623 0.0
H1164 H 0.23887 0.5609 0.11577 0.0
H1165 H 0.26857 0.49981 0.11382 0.0
H1166 H 0.17658 0.4591 0.0819 0.0
H1167 H 0.14681 0.51945 0.08416 0.0
H1168 H 0.18758 0.41548 0.10961 0.0
H1169 H 0.26466 0.46837 0.06369 0.0
H1170 H 0.30729 0.51391 0.05021 0.0
H1171 H 0.38752 0.49115 0.09198 0.0
H1172 H 0.34515 0.44582 0.10588 0.0
H1173 H 0.26634 0.23365 0.09901 0.0
H1174 H 0.24049 0.29487 0.09185 0.0
H1175 H 0.32499 0.34656 0.12488 0.0
H1176 H 0.35078 0.28639 0.13193 0.0
H1177 H 0.31682 0.38317 0.09346 0.0
H1178 H 0.23699 0.33513 0.14076 0.0
H1179 H 0.19423 0.28985 0.15439 0.0
H1180 H 0.11893 0.30402 0.10954 0.0
H1181 H 0.16152 0.34907 0.09553 0.0
C1182 C 0.22571 0.53919 0.10785 0.0
C1183 C 0.19056 0.5448 0.10016 0.0
C1184 C 0.24257 0.50422 0.10679 0.0
C1185 C 0.22469 0.47462 0.0978 0.0
C1186 C 0.19079 0.48123 0.08906 0.0
C1187 C 0.1739 0.51583 0.09027 0.0
C1188 C 0.2392 0.43606 0.09893 0.0
C1189 C 0.21567 0.40837 0.10573 0.0
C1190 C 0.27601 0.42668 0.09423 0.0
C1191 C 0.30157 0.45393 0.08593 0.0
C1192 C 0.29126 0.47329 0.0701 0.0
C1193 C 0.31541 0.49903 0.06236 0.0
C1194 C 0.35005 0.50548 0.07026 0.0
C1195 C 0.36066 0.48615 0.08589 0.0
C1196 C 0.33661 0.4604 0.09369 0.0
C1197 C 0.27925 0.25809 0.10477 0.0
C1198 C 0.31054 0.25497 0.1161 0.0
C1199 C 0.26451 0.29306 0.10066 0.0
C1200 C 0.2808 0.32542 0.10785 0.0
C1201 C 0.31206 0.32217 0.11905 0.0
C1202 C 0.32665 0.28751 0.12316 0.0
C1203 C 0.26525 0.36286 0.10424 0.0
C1204 C 0.28859 0.39032 0.09706 0.0
C1205 C 0.22824 0.3721 0.10857 0.0
C1206 C 0.20262 0.3451 0.117 0.0
C1207 C 0.21145 0.32835 0.13374 0.0
C1208 C 0.18723 0.30278 0.14154 0.0
C1209 C 0.15394 0.29397 0.13281 0.0
C1210 C 0.14476 0.31081 0.11627 0.0
C1211 C 0.16892 0.33637 0.1084 0.0
H1212 H 0.13522 0.27417 0.13887 0.0
H1213 H 0.36871 0.52541 0.06425 0.0
H1214 H 0.26885 0.72477 0.36397 0.0
H1215 H 0.20178 0.71452 0.36273 0.0
H1216 H 0.1833 0.82303 0.38559 0.0
H1217 H 0.24996 0.83304 0.38733 0.0
H1218 H 0.13546 0.77339 0.39988 0.0
H1219 H 0.18009 0.80394 0.33871 0.0
H1220 H 0.21748 0.79351 0.31097 0.0
H1221 H 0.16781 0.68656 0.3038 0.0
H1222 H 0.13103 0.69579 0.33174 0.0
H1223 H 0.94144 0.75871 0.38115 0.0
H1224 H 1.00414 0.78572 0.38123 0.0
H1225 H 0.04374 0.69238 0.34985 0.0
H1226 H 0.98186 0.6674 0.34866 0.0
H1227 H 0.07992 0.74495 0.33951 0.0
H1228 H 0.04728 0.70272 0.40025 0.0
H1229 H 0.00961 0.7031 0.42834 0.0
H1230 H 0.03645 0.81741 0.43733 0.0
H1231 H 0.07391 0.8178 0.40914 0.0
C1232 C 0.25054 0.74623 0.36897 0.0
C1233 C 0.26491 0.77991 0.37553 0.0
C1234 C 0.21214 0.74047 0.36813 0.0
C1235 C 0.18734 0.76834 0.37371 0.0
C1236 C 0.20172 0.80121 0.38107 0.0
C1237 C 0.23997 0.80693 0.38196 0.0
C1238 C 0.14651 0.76398 0.37133 0.0
C1239 C 0.12326 0.76746 0.38664 0.0
C1240 C 0.13043 0.75573 0.35414 0.0
C1241 C 0.15293 0.7505 0.33739 0.0
C1242 C 0.1774 0.77807 0.33132 0.0
C1243 C 0.19853 0.77233 0.31556 0.0
C1244 C 0.19493 0.73938 0.30565 0.0
C1245 C 0.17052 0.71203 0.31151 0.0
C1246 C 0.14962 0.71747 0.3273 0.0
C1247 C 0.96341 0.74486 0.37376 0.0
C1248 C 0.95681 0.71077 0.36506 0.0
C1249 C 0.99941 0.7599 0.37407 0.0
C1250 C 0.02927 0.74064 0.366 0.0
C1251 C 0.02168 0.70798 0.35628 0.0
C1252 C 0.98605 0.69352 0.35568 0.0
C1253 C 0.06882 0.75234 0.36819 0.0
C1254 C 0.09195 0.75091 0.35279 0.0
C1255 C 0.08489 0.76079 0.38541 0.0
C1256 C 0.063 0.76041 0.4025 0.0
C1257 C 0.04501 0.72797 0.40819 0.0
C1258 C 0.0237 0.72804 0.42412 0.0
C1259 C 0.02055 0.76029 0.43459 0.0
C1260 C 0.03885 0.79248 0.42919 0.0
C1261 C 0.06012 0.79257 0.41324 0.0
H1262 H 1.004 0.76033 0.4469 0.0
H1263 H 0.21078 0.73495 0.29335 0.0
loop_
_geom_bond_atom_site_label_1
_geom_bond_atom_site_label_2
_geom_bond_distance
_geom_bond_site_symmetry_2
_ccdc_geom_bond_type
C0 C1 1.351 . S
C0 N3 1.368 . S
C0 H5 0.931 . S
C1 C0 1.351 . S
C1 N2 1.373 . S
C1 H29 0.930 . S
N2 C1 1.373 . S
N2 C4 1.340 . S
N3 C0 1.368 . S
N3 C4 1.321 . S
N3 Co6 2.135 . S
C4 N2 1.340 . S
C4 N3 1.321 . S
C4 H28 0.930 . S
H5 C0 0.931 . S
Co6 N3 2.135 . S
Co6 N9 2.121 . S
Co6 O14 2.055 . S
Co6 O17 2.039 . S
Co6 N20 2.140 . S
C7 O8 1.227 . S
C7 O17 1.265 . S
O8 C7 1.227 . S
N9 Co6 2.121 . S
N9 C11 1.375 . S
N9 C12 1.313 . S
C10 C11 1.338 . S
C10 N13 1.377 . S
C10 H30 0.930 . S
C11 N9 1.375 . S
C11 C10 1.338 . S
C11 H15 0.931 . S
C12 N9 1.313 . S
C12 N13 1.344 . S
C12 H16 0.930 . S
N13 C10 1.377 . S
N13 C12 1.344 . S
O14 Co6 2.055 . S
O14 C18 1.253 . S
H15 C11 0.931 . S
H16 C12 0.930 . S
O17 Co6 2.039 . S
O17 C7 1.265 . S
C18 O14 1.253 . S
C18 O19 1.227 . S
O19 C18 1.227 . S
N20 Co6 2.140 . S
N20 C23 1.346 . S
N20 C24 1.345 . S
C21 C22 1.387 . S
C21 C25 1.391 . S
C22 C21 1.387 . S
C22 C23 1.369 . S
C22 H31 0.929 . S
C23 N20 1.346 . S
C23 C22 1.369 . S
C23 H26 0.928 . S
C24 N20 1.345 . S
C24 C25 1.371 . S
C24 H27 0.931 . S
C25 C21 1.391 . S
C25 C24 1.371 . S
C25 H32 0.930 . S
H26 C23 0.928 . S
H27 C24 0.931 . S
H28 C4 0.930 . S
H29 C1 0.930 . S
H30 C10 0.930 . S
H31 C22 0.929 . S
H32 C25 0.930 . S
C33 C34 1.351 . S
C33 N36 1.368 . S
C33 H38 0.931 . S
C34 C33 1.351 . S
C34 N35 1.373 . S
C34 H62 0.930 . S
N35 C34 1.373 . S
N35 C37 1.340 . S
N36 C33 1.368 . S
N36 C37 1.321 . S
N36 Co39 2.135 . S
C37 N35 1.340 . S
C37 N36 1.321 . S
C37 H61 0.930 . S
H38 C33 0.931 . S
Co39 N36 2.135 . S
Co39 N42 2.121 . S
Co39 O47 2.055 . S
Co39 O50 2.039 . S
Co39 N53 2.140 . S
C40 O41 1.227 . S
C40 O50 1.265 . S
O41 C40 1.227 . S
N42 Co39 2.121 . S
N42 C44 1.375 . S
N42 C45 1.313 . S
C43 C44 1.338 . S
C43 N46 1.377 . S
C43 H63 0.930 . S
C44 N42 1.375 . S
C44 C43 1.338 . S
C44 H48 0.931 . S
C45 N42 1.313 . S
C45 N46 1.344 . S
C45 H49 0.930 . S
N46 C43 1.377 . S
N46 C45 1.344 . S
O47 Co39 2.055 . S
O47 C51 1.253 . S
H48 C44 0.931 . S
H49 C45 0.930 . S
O50 Co39 2.039 . S
O50 C40 1.265 . S
C51 O47 1.253 . S
C51 O52 1.227 . S
O52 C51 1.227 . S
N53 Co39 2.140 . S
N53 C56 1.346 . S
N53 C57 1.345 . S
C54 C55 1.387 . S
C54 C58 1.391 . S
C55 C54 1.387 . S
C55 C56 1.369 . S
C55 H64 0.929 . S
C56 N53 1.346 . S
C56 C55 1.369 . S
C56 H59 0.928 . S
C57 N53 1.345 . S
C57 C58 1.371 . S
C57 H60 0.931 . S
C58 C54 1.391 . S
C58 C57 1.371 . S
C58 H65 0.930 . S
H59 C56 0.928 . S
H60 C57 0.931 . S
H61 C37 0.930 . S
H62 C34 0.930 . S
H63 C43 0.930 . S
H64 C55 0.929 . S
H65 C58 0.930 . S
C66 C67 1.351 . S
C66 N69 1.368 . S
C66 H71 0.931 . S
C67 C66 1.351 . S
C67 N68 1.373 . S
C67 H95 0.930 . S
N68 C67 1.373 . S
N68 C70 1.340 . S
N69 C66 1.368 . S
N69 C70 1.321 . S
N69 Co72 2.135 . S
C70 N68 1.340 . S
C70 N69 1.321 . S
C70 H94 0.930 . S
H71 C66 0.931 . S
Co72 N69 2.135 . S
Co72 N75 2.121 . S
Co72 O80 2.055 . S
Co72 O83 2.039 . S
Co72 N86 2.140 . S
C73 O74 1.227 . S
C73 O83 1.265 . S
O74 C73 1.227 . S
N75 Co72 2.121 . S
N75 C77 1.375 . S
N75 C78 1.313 . S
C76 C77 1.338 . S
C76 N79 1.377 . S
C76 H96 0.930 . S
C77 N75 1.375 . S
C77 C76 1.338 . S
C77 H81 0.931 . S
C78 N75 1.313 . S
C78 N79 1.344 . S
C78 H82 0.930 . S
N79 C76 1.377 . S
N79 C78 1.344 . S
O80 Co72 2.055 . S
O80 C84 1.253 . S
H81 C77 0.931 . S
H82 C78 0.930 . S
O83 Co72 2.039 . S
O83 C73 1.265 . S
C84 O80 1.253 . S
C84 O85 1.227 . S
O85 C84 1.227 . S
N86 Co72 2.140 . S
N86 C89 1.346 . S
N86 C90 1.345 . S
C87 C88 1.387 . S
C87 C91 1.391 . S
C88 C87 1.387 . S
C88 C89 1.369 . S
C88 H97 0.929 . S
C89 N86 1.346 . S
C89 C88 1.369 . S
C89 H92 0.928 . S
C90 N86 1.345 . S
C90 C91 1.371 . S
C90 H93 0.931 . S
C91 C87 1.391 . S
C91 C90 1.371 . S
C91 H98 0.930 . S
H92 C89 0.928 . S
H93 C90 0.931 . S
H94 C70 0.930 . S
H95 C67 0.930 . S
H96 C76 0.930 . S
H97 C88 0.929 . S
H98 C91 0.930 . S
C99 C100 1.351 . S
C99 N102 1.368 . S
C99 H104 0.931 . S
C100 C99 1.351 . S
C100 N101 1.373 . S
C100 H128 0.930 . S
N101 C100 1.373 . S
N101 C103 1.340 . S
N102 C99 1.368 . S
N102 C103 1.321 . S
N102 Co105 2.135 . S
C103 N101 1.340 . S
C103 N102 1.321 . S
C103 H127 0.930 . S
H104 C99 0.931 . S
Co105 N102 2.135 . S
Co105 N108 2.121 . S
Co105 O113 2.055 . S
Co105 O116 2.039 . S
Co105 N119 2.140 . S
C106 O107 1.227 . S
C106 O116 1.265 . S
O107 C106 1.227 . S
N108 Co105 2.121 . S
N108 C110 1.375 . S
N108 C111 1.313 . S
C109 C110 1.338 . S
C109 N112 1.377 . S
C109 H129 0.930 . S
C110 N108 1.375 . S
C110 C109 1.338 . S
C110 H114 0.931 . S
C111 N108 1.313 . S
C111 N112 1.344 . S
C111 H115 0.930 . S
N112 C109 1.377 . S
N112 C111 1.344 . S
O113 Co105 2.055 . S
O113 C117 1.253 . S
H114 C110 0.931 . S
H115 C111 0.930 . S
O116 Co105 2.039 . S
O116 C106 1.265 . S
C117 O113 1.253 . S
C117 O118 1.227 . S
O118 C117 1.227 . S
N119 Co105 2.140 . S
N119 C122 1.346 . S
N119 C123 1.345 . S
C120 C121 1.387 . S
C120 C124 1.391 . S
C121 C120 1.387 . S
C121 C122 1.369 . S
C121 H130 0.929 . S
C122 N119 1.346 . S
C122 C121 1.369 . S
C122 H125 0.928 . S
C123 N119 1.345 . S
C123 C124 1.371 . S
C123 H126 0.931 . S
C124 C120 1.391 . S
C124 C123 1.371 . S
C124 H131 0.930 . S
H125 C122 0.928 . S
H126 C123 0.931 . S
H127 C103 0.930 . S
H128 C100 0.930 . S
H129 C109 0.930 . S
H130 C121 0.929 . S
H131 C124 0.930 . S
C132 C133 1.351 . S
C132 N135 1.368 . S
C132 H137 0.931 . S
C133 C132 1.351 . S
C133 N134 1.373 . S
C133 H161 0.930 . S
N134 C133 1.373 . S
N134 C136 1.340 . S
N135 C132 1.368 . S
N135 C136 1.321 . S
N135 Co138 2.135 . S
C136 N134 1.340 . S
C136 N135 1.321 . S
C136 H160 0.930 . S
H137 C132 0.931 . S
Co138 N135 2.135 . S
Co138 N141 2.121 . S
Co138 O146 2.055 . S
Co138 O149 2.039 . S
Co138 N152 2.140 . S
C139 O140 1.227 . S
C139 O149 1.265 . S
O140 C139 1.227 . S
N141 Co138 2.121 . S
N141 C143 1.375 . S
N141 C144 1.313 . S
C142 C143 1.338 . S
C142 N145 1.377 . S
C142 H162 0.930 . S
C143 N141 1.375 . S
C143 C142 1.338 . S
C143 H147 0.931 . S
C144 N141 1.313 . S
C144 N145 1.344 . S
C144 H148 0.930 . S
N145 C142 1.377 . S
N145 C144 1.344 . S
O146 Co138 2.055 . S
O146 C150 1.253 . S
H147 C143 0.931 . S
H148 C144 0.930 . S
O149 Co138 2.039 . S
O149 C139 1.265 . S
C150 O146 1.253 . S
C150 O151 1.227 . S
O151 C150 1.227 . S
N152 Co138 2.140 . S
N152 C155 1.346 . S
N152 C156 1.345 . S
C153 C154 1.387 . S
C153 C157 1.391 . S
C154 C153 1.387 . S
C154 C155 1.369 . S
C154 H163 0.929 . S
C155 N152 1.346 . S
C155 C154 1.369 . S
C155 H158 0.928 . S
C156 N152 1.345 . S
C156 C157 1.371 . S
C156 H159 0.931 . S
C157 C153 1.391 . S
C157 C156 1.371 . S
C157 H164 0.930 . S
H158 C155 0.928 . S
H159 C156 0.931 . S
H160 C136 0.930 . S
H161 C133 0.930 . S
H162 C142 0.930 . S
H163 C154 0.929 . S
H164 C157 0.930 . S
C165 C166 1.351 . S
C165 N168 1.368 . S
C165 H170 0.931 . S
C166 C165 1.351 . S
C166 N167 1.373 . S
C166 H194 0.930 . S
N167 C166 1.373 . S
N167 C169 1.340 . S
N168 C165 1.368 . S
N168 C169 1.321 . S
N168 Co171 2.135 . S
C169 N167 1.340 . S
C169 N168 1.321 . S
C169 H193 0.930 . S
H170 C165 0.931 . S
Co171 N168 2.135 . S
Co171 N174 2.121 . S
Co171 O179 2.055 . S
Co171 O182 2.039 . S
Co171 N185 2.140 . S
C172 O173 1.227 . S
C172 O182 1.265 . S
O173 C172 1.227 . S
N174 Co171 2.121 . S
N174 C176 1.375 . S
N174 C177 1.313 . S
C175 C176 1.338 . S
C175 N178 1.377 . S
C175 H195 0.930 . S
C176 N174 1.375 . S
C176 C175 1.338 . S
C176 H180 0.931 . S
C177 N174 1.313 . S
C177 N178 1.344 . S
C177 H181 0.930 . S
N178 C175 1.377 . S
N178 C177 1.344 . S
O179 Co171 2.055 . S
O179 C183 1.253 . S
H180 C176 0.931 . S
H181 C177 0.930 . S
O182 Co171 2.039 . S
O182 C172 1.265 . S
C183 O179 1.253 . S
C183 O184 1.227 . S
O184 C183 1.227 . S
N185 Co171 2.140 . S
N185 C188 1.346 . S
N185 C189 1.345 . S
C186 C187 1.387 . S
C186 C190 1.391 . S
C187 C186 1.387 . S
C187 C188 1.369 . S
C187 H196 0.929 . S
C188 N185 1.346 . S
C188 C187 1.369 . S
C188 H191 0.928 . S
C189 N185 1.345 . S
C189 C190 1.371 . S
C189 H192 0.931 . S
C190 C186 1.391 . S
C190 C189 1.371 . S
C190 H197 0.930 . S
H191 C188 0.928 . S
H192 C189 0.931 . S
H193 C169 0.930 . S
H194 C166 0.930 . S
H195 C175 0.930 . S
H196 C187 0.929 . S
H197 C190 0.930 . S
C198 C199 1.351 . S
C198 N201 1.368 . S
C198 H203 0.931 . S
C199 C198 1.351 . S
C199 N200 1.373 . S
C199 H227 0.930 . S
N200 C199 1.373 . S
N200 C202 1.340 . S
N201 C198 1.368 . S
N201 C202 1.321 . S
N201 Co204 2.135 . S
C202 N200 1.340 . S
C202 N201 1.321 . S
C202 H226 0.930 . S
H203 C198 0.931 . S
Co204 N201 2.135 . S
Co204 N207 2.121 . S
Co204 O212 2.055 . S
Co204 O215 2.039 . S
Co204 N218 2.140 . S
C205 O206 1.227 . S
C205 O215 1.265 . S
O206 C205 1.227 . S
N207 Co204 2.121 . S
N207 C209 1.375 . S
N207 C210 1.313 . S
C208 C209 1.338 . S
C208 N211 1.377 . S
C208 H228 0.930 . S
C209 N207 1.375 . S
C209 C208 1.338 . S
C209 H213 0.931 . S
C210 N207 1.313 . S
C210 N211 1.344 . S
C210 H214 0.930 . S
N211 C208 1.377 . S
N211 C210 1.344 . S
O212 Co204 2.055 . S
O212 C216 1.253 . S
H213 C209 0.931 . S
H214 C210 0.930 . S
O215 Co204 2.039 . S
O215 C205 1.265 . S
C216 O212 1.253 . S
C216 O217 1.227 . S
O217 C216 1.227 . S
N218 Co204 2.140 . S
N218 C221 1.346 . S
N218 C222 1.345 . S
C219 C220 1.387 . S
C219 C223 1.391 . S
C220 C219 1.387 . S
C220 C221 1.369 . S
C220 H229 0.929 . S
C221 N218 1.346 . S
C221 C220 1.369 . S
C221 H224 0.928 . S
C222 N218 1.345 . S
C222 C223 1.371 . S
C222 H225 0.931 . S
C223 C219 1.391 . S
C223 C222 1.371 . S
C223 H230 0.930 . S
H224 C221 0.928 . S
H225 C222 0.931 . S
H226 C202 0.930 . S
H227 C199 0.930 . S
H228 C208 0.930 . S
H229 C220 0.929 . S
H230 C223 0.930 . S
C231 C232 1.351 . S
C231 N234 1.368 . S
C231 H236 0.931 . S
C232 C231 1.351 . S
C232 N233 1.373 . S
C232 H260 0.930 . S
N233 C232 1.373 . S
N233 C235 1.340 . S
N234 C231 1.368 . S
N234 C235 1.321 . S
N234 Co237 2.135 . S
C235 N233 1.340 . S
C235 N234 1.321 . S
C235 H259 0.930 . S
H236 C231 0.931 . S
Co237 N234 2.135 . S
Co237 N240 2.121 . S
Co237 O245 2.055 . S
Co237 O248 2.039 . S
Co237 N251 2.140 . S
C238 O239 1.227 . S
C238 O248 1.265 . S
O239 C238 1.227 . S
N240 Co237 2.121 . S
N240 C242 1.375 . S
N240 C243 1.313 . S
C241 C242 1.338 . S
C241 N244 1.377 . S
C241 H261 0.930 . S
C242 N240 1.375 . S
C242 C241 1.338 . S
C242 H246 0.931 . S
C243 N240 1.313 . S
C243 N244 1.344 . S
C243 H247 0.930 . S
N244 C241 1.377 . S
N244 C243 1.344 . S
O245 Co237 2.055 . S
O245 C249 1.253 . S
H246 C242 0.931 . S
H247 C243 0.930 . S
O248 Co237 2.039 . S
O248 C238 1.265 . S
C249 O245 1.253 . S
C249 O250 1.227 . S
O250 C249 1.227 . S
N251 Co237 2.140 . S
N251 C254 1.346 . S
N251 C255 1.345 . S
C252 C253 1.387 . S
C252 C256 1.391 . S
C253 C252 1.387 . S
C253 C254 1.369 . S
C253 H262 0.929 . S
C254 N251 1.346 . S
C254 C253 1.369 . S
C254 H257 0.928 . S
C255 N251 1.345 . S
C255 C256 1.371 . S
C255 H258 0.931 . S
C256 C252 1.391 . S
C256 C255 1.371 . S
C256 H263 0.930 . S
H257 C254 0.928 . S
H258 C255 0.931 . S
H259 C235 0.930 . S
H260 C232 0.930 . S
H261 C241 0.930 . S
H262 C253 0.929 . S
H263 C256 0.930 . S
H264 C282 0.951 . S
H265 C284 0.951 . S
H266 C286 0.950 . S
H267 C287 0.950 . S
H268 C289 0.950 . S
H269 C292 0.950 . S
H270 C293 0.950 . S
H271 C295 0.950 . S
H272 C296 0.950 . S
H273 C297 0.951 . S
H274 C299 0.951 . S
H275 C301 0.950 . S
H276 C302 0.950 . S
H277 C304 0.950 . S
H278 C307 0.950 . S
H279 C308 0.950 . S
H280 C310 0.950 . S
H281 C311 0.950 . S
C282 H264 0.951 . S
C282 C283 1.366 . S
C282 C284 1.388 . S
C283 C282 1.366 . S
C283 C287 1.385 . S
C284 H265 0.951 . S
C284 C282 1.388 . S
C284 C285 1.366 . S
C285 C284 1.366 . S
C285 C286 1.414 . S
C285 C288 1.499 . S
C286 H266 0.950 . S
C286 C285 1.414 . S
C286 C287 1.374 . S
C287 H267 0.950 . S
C287 C283 1.385 . S
C287 C286 1.374 . S
C288 C285 1.499 . S
C288 C289 1.373 . S
C288 C290 1.435 . S
C289 H268 0.950 . S
C289 C288 1.373 . S
C289 C305 1.330 1_554 S
C290 C288 1.435 . S
C290 C291 1.523 . S
C290 C304 1.330 1_554 S
C291 C290 1.523 . S
C291 C292 1.397 . S
C291 C296 1.363 1_554 S
C292 H269 0.950 . S
C292 C291 1.397 . S
C292 C293 1.333 1_554 S
C293 H270 0.950 . S
C293 C292 1.333 1_556 S
C293 C294 1.287 . S
C294 C293 1.287 . S
C294 C295 1.524 . S
C294 H313 0.913 . S
C295 H271 0.950 . S
C295 C294 1.524 . S
C295 C296 1.415 . S
C296 H272 0.950 . S
C296 C291 1.363 1_556 S
C296 C295 1.415 . S
C297 H273 0.951 . S
C297 C298 1.366 . S
C297 C299 1.388 . S
C298 C297 1.366 . S
C298 C302 1.385 . S
C299 H274 0.951 . S
C299 C297 1.388 . S
C299 C300 1.366 . S
C300 C299 1.366 . S
C300 C301 1.414 . S
C300 C303 1.499 . S
C301 H275 0.950 . S
C301 C300 1.414 . S
C301 C302 1.374 . S
C302 H276 0.950 . S
C302 C298 1.385 . S
C302 C301 1.374 . S
C303 C300 1.499 . S
C303 C304 1.373 . S
C303 C305 1.435 . S
C304 H277 0.950 . S
C304 C290 1.330 1_556 S
C304 C303 1.373 . S
C305 C289 1.330 1_556 S
C305 C303 1.435 . S
C305 C306 1.523 . S
C306 C305 1.523 . S
C306 C307 1.397 . S
C306 C311 1.363 1_556 S
C307 H278 0.950 . S
C307 C306 1.397 . S
C307 C308 1.333 1_556 S
C308 H279 0.950 . S
C308 C307 1.333 1_554 S
C308 C309 1.287 . S
C309 C308 1.287 . S
C309 C310 1.524 . S
C309 H312 0.999 . S
C310 H280 0.950 . S
C310 C309 1.524 . S
C310 C311 1.415 . S
C311 H281 0.950 . S
C311 C306 1.363 1_554 S
C311 C310 1.415 . S
H312 C309 0.999 . S
H313 C294 0.913 . S
H314 C332 0.951 . S
H315 C334 0.951 . S
H316 C336 0.950 . S
H317 C337 0.950 . S
H318 C339 0.950 . S
H319 C342 0.950 . S
H320 C343 0.950 . S
H321 C345 0.950 . S
H322 C346 0.950 . S
H323 C347 0.951 . S
H324 C349 0.951 . S
H325 C351 0.950 . S
H326 C352 0.950 . S
H327 C354 0.950 . S
H328 C357 0.950 . S
H329 C358 0.950 . S
H330 C360 0.950 . S
H331 C361 0.950 . S
C332 H314 0.951 . S
C332 C333 1.366 . S
C332 C334 1.388 . S
C333 C332 1.366 . S
C333 C337 1.385 . S
C334 H315 0.951 . S
C334 C332 1.388 . S
C334 C335 1.366 . S
C335 C334 1.366 . S
C335 C336 1.414 . S
C335 C338 1.499 . S
C336 H316 0.950 . S
C336 C335 1.414 . S
C336 C337 1.374 . S
C337 H317 0.950 . S
C337 C333 1.385 . S
C337 C336 1.374 . S
C338 C335 1.499 . S
C338 C339 1.373 . S
C338 C340 1.389 . S
C339 H318 0.950 . S
C339 C338 1.373 . S
C339 C355 1.377 . S
C340 C338 1.389 . S
C340 C341 1.524 . S
C340 C354 1.377 . S
C341 C340 1.524 . S
C341 C342 1.397 . S
C341 C346 1.363 . S
C342 H319 0.950 . S
C342 C341 1.397 . S
C342 C343 1.334 . S
C343 H320 0.950 . S
C343 C342 1.334 . S
C343 C344 1.287 . S
C344 C343 1.287 . S
C344 C345 1.524 . S
C344 H363 0.913 . S
C345 H321 0.950 . S
C345 C344 1.524 . S
C345 C346 1.415 . S
C346 H322 0.950 . S
C346 C341 1.363 . S
C346 C345 1.415 . S
C347 H323 0.951 . S
C347 C348 1.366 . S
C347 C349 1.388 . S
C348 C347 1.366 . S
C348 C352 1.385 . S
C349 H324 0.951 . S
C349 C347 1.388 . S
C349 C350 1.366 . S
C350 C349 1.366 . S
C350 C351 1.414 . S
C350 C353 1.499 . S
C351 H325 0.950 . S
C351 C350 1.414 . S
C351 C352 1.374 . S
C352 H326 0.950 . S
C352 C348 1.385 . S
C352 C351 1.374 . S
C353 C350 1.499 . S
C353 C354 1.373 . S
C353 C355 1.389 . S
C354 H327 0.950 . S
C354 C340 1.377 . S
C354 C353 1.373 . S
C355 C339 1.377 . S
C355 C353 1.389 . S
C355 C356 1.524 . S
C356 C355 1.524 . S
C356 C357 1.397 . S
C356 C361 1.363 . S
C357 H328 0.950 . S
C357 C356 1.397 . S
C357 C358 1.334 . S
C358 H329 0.950 . S
C358 C357 1.334 . S
C358 C359 1.287 . S
C359 C358 1.287 . S
C359 C360 1.524 . S
C359 H362 0.999 . S
C360 H330 0.950 . S
C360 C359 1.524 . S
C360 C361 1.415 . S
C361 H331 0.950 . S
C361 C356 1.363 . S
C361 C360 1.415 . S
H362 C359 0.999 . S
H363 C344 0.913 . S
H364 C382 0.951 . S
H365 C384 0.951 . S
H366 C386 0.950 . S
H367 C387 0.950 . S
H368 C389 0.950 . S
H369 C392 0.950 . S
H370 C393 0.950 . S
H371 C395 0.950 . S
H372 C396 0.950 . S
H373 C397 0.951 . S
H374 C399 0.951 . S
H375 C401 0.950 . S
H376 C402 0.950 . S
H377 C404 0.950 . S
H378 C407 0.950 . S
H379 C408 0.950 . S
H380 C410 0.950 . S
H381 C411 0.950 . S
C382 H364 0.951 . S
C382 C383 1.366 . S
C382 C384 1.388 . S
C383 C382 1.366 . S
C383 C387 1.385 . S
C384 H365 0.951 . S
C384 C382 1.388 . S
C384 C385 1.366 . S
C385 C384 1.366 . S
C385 C386 1.414 . S
C385 C388 1.499 . S
C386 H366 0.950 . S
C386 C385 1.414 . S
C386 C387 1.374 . S
C387 H367 0.950 . S
C387 C383 1.385 . S
C387 C386 1.374 . S
C388 C385 1.499 . S
C388 C389 1.373 . S
C388 C390 1.389 . S
C389 H368 0.950 . S
C389 C388 1.373 . S
C389 C405 1.377 . S
C390 C388 1.389 . S
C390 C391 1.524 . S
C390 C404 1.377 . S
C391 C390 1.524 . S
C391 C392 1.397 . S
C391 C396 1.363 . S
C392 H369 0.950 . S
C392 C391 1.397 . S
C392 C393 1.334 . S
C393 H370 0.950 . S
C393 C392 1.334 . S
C393 C394 1.287 . S
C394 C393 1.287 . S
C394 C395 1.524 . S
C394 H413 0.913 . S
C395 H371 0.950 . S
C395 C394 1.524 . S
C395 C396 1.415 . S
C396 H372 0.950 . S
C396 C391 1.363 . S
C396 C395 1.415 . S
C397 H373 0.951 . S
C397 C398 1.366 . S
C397 C399 1.388 . S
C398 C397 1.366 . S
C398 C402 1.385 . S
C399 H374 0.951 . S
C399 C397 1.388 . S
C399 C400 1.366 . S
C400 C399 1.366 . S
C400 C401 1.414 . S
C400 C403 1.499 . S
C401 H375 0.950 . S
C401 C400 1.414 . S
C401 C402 1.374 . S
C402 H376 0.950 . S
C402 C398 1.385 . S
C402 C401 1.374 . S
C403 C400 1.499 . S
C403 C404 1.373 . S
C403 C405 1.389 . S
C404 H377 0.950 . S
C404 C390 1.377 . S
C404 C403 1.373 . S
C405 C389 1.377 . S
C405 C403 1.389 . S
C405 C406 1.524 . S
C406 C405 1.524 . S
C406 C407 1.397 . S
C406 C411 1.363 . S
C407 H378 0.950 . S
C407 C406 1.397 . S
C407 C408 1.334 . S
C408 H379 0.950 . S
C408 C407 1.334 . S
C408 C409 1.287 . S
C409 C408 1.287 . S
C409 C410 1.524 . S
C409 H412 0.999 . S
C410 H380 0.950 . S
C410 C409 1.524 . S
C410 C411 1.415 . S
C411 H381 0.950 . S
C411 C406 1.363 . S
C411 C410 1.415 . S
H412 C409 0.999 . S
H413 C394 0.913 . S
H414 C432 0.951 . S
H415 C434 0.951 . S
H416 C436 0.950 . S
H417 C437 0.950 . S
H418 C439 0.950 . S
H419 C442 0.950 . S
H420 C443 0.950 . S
H421 C445 0.950 . S
H422 C446 0.950 . S
H423 C447 0.951 . S
H424 C449 0.951 . S
H425 C451 0.950 . S
H426 C452 0.950 . S
H427 C454 0.950 . S
H428 C457 0.950 . S
H429 C458 0.950 . S
H430 C460 0.950 . S
H431 C461 0.950 . S
C432 H414 0.951 . S
C432 C433 1.366 . S
C432 C434 1.388 . S
C433 C432 1.366 . S
C433 C437 1.385 . S
C434 H415 0.951 . S
C434 C432 1.388 . S
C434 C435 1.366 . S
C435 C434 1.366 . S
C435 C436 1.414 . S
C435 C438 1.499 . S
C436 H416 0.950 . S
C436 C435 1.414 . S
C436 C437 1.374 . S
C437 H417 0.950 . S
C437 C433 1.385 . S
C437 C436 1.374 . S
C438 C435 1.499 . S
C438 C439 1.373 . S
C438 C440 1.389 . S
C439 H418 0.950 . S
C439 C438 1.373 . S
C439 C455 1.377 . S
C440 C438 1.389 . S
C440 C441 1.524 . S
C440 C454 1.377 . S
C441 C440 1.524 . S
C441 C442 1.397 . S
C441 C446 1.363 . S
C442 H419 0.950 . S
C442 C441 1.397 . S
C442 C443 1.334 . S
C443 H420 0.950 . S
C443 C442 1.334 . S
C443 C444 1.287 . S
C444 C443 1.287 . S
C444 C445 1.524 . S
C444 H463 0.913 . S
C445 H421 0.950 . S
C445 C444 1.524 . S
C445 C446 1.415 . S
C446 H422 0.950 . S
C446 C441 1.363 . S
C446 C445 1.415 . S
C447 H423 0.951 . S
C447 C448 1.366 . S
C447 C449 1.388 . S
C448 C447 1.366 . S
C448 C452 1.385 . S
C449 H424 0.951 . S
C449 C447 1.388 . S
C449 C450 1.366 . S
C450 C449 1.366 . S
C450 C451 1.414 . S
C450 C453 1.499 . S
C451 H425 0.950 . S
C451 C450 1.414 . S
C451 C452 1.374 . S
C452 H426 0.950 . S
C452 C448 1.385 . S
C452 C451 1.374 . S
C453 C450 1.499 . S
C453 C454 1.373 . S
C453 C455 1.389 . S
C454 H427 0.950 . S
C454 C440 1.377 . S
C454 C453 1.373 . S
C455 C439 1.377 . S
C455 C453 1.389 . S
C455 C456 1.524 . S
C456 C455 1.524 . S
C456 C457 1.397 . S
C456 C461 1.363 . S
C457 H428 0.950 . S
C457 C456 1.397 . S
C457 C458 1.334 . S
C458 H429 0.950 . S
C458 C457 1.334 . S
C458 C459 1.287 . S
C459 C458 1.287 . S
C459 C460 1.524 . S
C459 H462 0.999 . S
C460 H430 0.950 . S
C460 C459 1.524 . S
C460 C461 1.415 . S
C461 H431 0.950 . S
C461 C456 1.363 . S
C461 C460 1.415 . S
H462 C459 0.999 . S
H463 C444 0.913 . S
H464 C482 0.951 . S
H465 C484 0.951 . S
H466 C486 0.950 . S
H467 C487 0.950 . S
H468 C489 0.950 . S
H469 C492 0.950 . S
H470 C493 0.950 . S
H471 C495 0.950 . S
H472 C496 0.950 . S
H473 C497 0.951 . S
H474 C499 0.951 . S
H475 C501 0.950 . S
H476 C502 0.950 . S
H477 C504 0.950 . S
H478 C507 0.950 . S
H479 C508 0.950 . S
H480 C510 0.949 . S
H481 C511 0.950 . S
C482 H464 0.951 . S
C482 C483 1.366 . S
C482 C484 1.388 . S
C483 C482 1.366 . S
C483 C487 1.385 . S
C484 H465 0.951 . S
C484 C482 1.388 . S
C484 C485 1.366 . S
C485 C484 1.366 . S
C485 C486 1.414 . S
C485 C488 1.499 . S
C486 H466 0.950 . S
C486 C485 1.414 . S
C486 C487 1.374 . S
C487 H467 0.950 . S
C487 C483 1.385 . S
C487 C486 1.374 . S
C488 C485 1.499 . S
C488 C489 1.373 . S
C488 C490 1.389 . S
C489 H468 0.950 . S
C489 C488 1.373 . S
C489 C505 1.377 . S
C490 C488 1.389 . S
C490 C491 1.524 . S
C490 C504 1.377 1_556 S
C491 C490 1.524 . S
C491 C492 1.397 . S
C491 C496 1.363 . S
C492 H469 0.950 . S
C492 C491 1.397 . S
C492 C493 1.334 . S
C493 H470 0.950 . S
C493 C492 1.334 . S
C493 C494 1.287 . S
C494 C493 1.287 . S
C494 C495 1.524 . S
C494 H513 0.913 . S
C495 H471 0.950 . S
C495 C494 1.524 . S
C495 C496 1.415 . S
C496 H472 0.950 . S
C496 C491 1.363 . S
C496 C495 1.415 . S
C497 H473 0.951 . S
C497 C498 1.366 . S
C497 C499 1.388 . S
C498 C497 1.366 . S
C498 C502 1.385 . S
C499 H474 0.951 . S
C499 C497 1.388 . S
C499 C500 1.366 . S
C500 C499 1.366 . S
C500 C501 1.414 . S
C500 C503 1.499 . S
C501 H475 0.950 . S
C501 C500 1.414 . S
C501 C502 1.374 . S
C502 H476 0.950 . S
C502 C498 1.385 . S
C502 C501 1.374 . S
C503 C500 1.499 . S
C503 C504 1.373 . S
C503 C505 1.389 1_554 S
C504 H477 0.950 . S
C504 C490 1.377 1_554 S
C504 C503 1.373 . S
C505 C489 1.377 . S
C505 C503 1.389 1_556 S
C505 C506 1.524 1_556 S
C506 C505 1.524 1_554 S
C506 C507 1.397 . S
C506 C511 1.363 1_554 S
C507 H478 0.950 . S
C507 C506 1.397 . S
C507 C508 1.334 . S
C508 H479 0.950 . S
C508 C507 1.334 . S
C508 C509 1.287 . S
C509 C508 1.287 . S
C509 C510 1.524 . S
C509 H512 0.999 . S
C510 H480 0.949 . S
C510 C509 1.524 . S
C510 C511 1.415 1_554 S
C511 H481 0.950 . S
C511 C506 1.363 1_556 S
C511 C510 1.415 1_556 S
H512 C509 0.999 . S
H513 C494 0.913 . S
H514 C532 0.951 . S
H515 C534 0.951 . S
H516 C536 0.950 . S
H517 C537 0.950 . S
H518 C539 0.950 . S
H519 C542 0.950 1_545 S
H520 C543 0.950 . S
H521 C545 0.950 . S
H522 C546 0.950 . S
H523 C547 0.951 . S
H524 C549 0.951 . S
H525 C551 0.950 . S
H526 C552 0.950 . S
H527 C554 0.950 . S
H528 C557 0.950 . S
H529 C558 0.950 . S
H530 C560 0.950 . S
H531 C561 0.950 . S
C532 H514 0.951 . S
C532 C533 1.364 1_565 S
C532 C534 1.388 . S
C533 C532 1.364 1_545 S
C533 C537 1.387 . S
C534 H515 0.951 . S
C534 C532 1.388 . S
C534 C535 1.366 1_565 S
C535 C534 1.366 1_545 S
C535 C536 1.414 . S
C535 C538 1.499 . S
C536 H516 0.950 . S
C536 C535 1.414 . S
C536 C537 1.374 . S
C537 H517 0.950 . S
C537 C533 1.387 . S
C537 C536 1.374 . S
C538 C535 1.499 . S
C538 C539 1.373 . S
C538 C540 1.389 . S
C539 H518 0.950 . S
C539 C538 1.373 . S
C539 C555 1.377 . S
C540 C538 1.389 . S
C540 C541 1.524 1_545 S
C540 C554 1.377 . S
C541 C540 1.524 1_565 S
C541 C542 1.397 . S
C541 C546 1.363 . S
C542 H519 0.950 1_565 S
C542 C541 1.397 . S
C542 C543 1.334 . S
C543 H520 0.950 . S
C543 C542 1.334 . S
C543 C544 1.287 . S
C544 C543 1.287 . S
C544 C545 1.524 . S
C544 H563 0.913 . S
C545 H521 0.950 . S
C545 C544 1.524 . S
C545 C546 1.415 . S
C546 H522 0.950 . S
C546 C541 1.363 . S
C546 C545 1.415 . S
C547 H523 0.951 . S
C547 C548 1.366 . S
C547 C549 1.388 . S
C548 C547 1.366 . S
C548 C552 1.385 . S
C549 H524 0.951 . S
C549 C547 1.388 . S
C549 C550 1.366 . S
C550 C549 1.366 . S
C550 C551 1.414 . S
C550 C553 1.499 . S
C551 H525 0.950 . S
C551 C550 1.414 . S
C551 C552 1.374 . S
C552 H526 0.950 . S
C552 C548 1.385 . S
C552 C551 1.374 . S
C553 C550 1.499 . S
C553 C554 1.373 . S
C553 C555 1.389 . S
C554 H527 0.950 . S
C554 C540 1.377 . S
C554 C553 1.373 . S
C555 C539 1.377 . S
C555 C553 1.389 . S
C555 C556 1.524 . S
C556 C555 1.524 . S
C556 C557 1.397 . S
C556 C561 1.363 . S
C557 H528 0.950 . S
C557 C556 1.397 . S
C557 C558 1.334 . S
C558 H529 0.950 . S
C558 C557 1.334 . S
C558 C559 1.287 . S
C559 C558 1.287 . S
C559 C560 1.524 . S
C559 H562 0.999 . S
C560 H530 0.950 . S
C560 C559 1.524 . S
C560 C561 1.415 . S
C561 H531 0.950 . S
C561 C556 1.363 . S
C561 C560 1.415 . S
H562 C559 0.999 . S
H563 C544 0.913 . S
H564 C582 0.951 . S
H565 C584 0.951 . S
H566 C586 0.950 . S
H567 C587 0.950 . S
H568 C589 0.950 . S
H569 C592 0.950 . S
H570 C593 0.950 . S
H571 C595 0.950 . S
H572 C596 0.950 . S
H573 C597 0.951 . S
H574 C599 0.951 . S
H575 C601 0.950 . S
H576 C602 0.950 . S
H577 C604 0.950 . S
H578 C607 0.950 . S
H579 C608 0.950 . S
H580 C610 0.950 . S
H581 C611 0.950 . S
C582 H564 0.951 . S
C582 C583 1.366 . S
C582 C584 1.388 . S
C583 C582 1.366 . S
C583 C587 1.385 . S
C584 H565 0.951 . S
C584 C582 1.388 . S
C584 C585 1.366 . S
C585 C584 1.366 . S
C585 C586 1.414 . S
C585 C588 1.499 . S
C586 H566 0.950 . S
C586 C585 1.414 . S
C586 C587 1.374 . S
C587 H567 0.950 . S
C587 C583 1.385 . S
C587 C586 1.374 . S
C588 C585 1.499 . S
C588 C589 1.373 . S
C588 C590 1.389 . S
C589 H568 0.950 . S
C589 C588 1.373 . S
C589 C605 1.377 . S
C590 C588 1.389 . S
C590 C591 1.524 . S
C590 C604 1.377 . S
C591 C590 1.524 . S
C591 C592 1.397 . S
C591 C596 1.363 . S
C592 H569 0.950 . S
C592 C591 1.397 . S
C592 C593 1.334 . S
C593 H570 0.950 . S
C593 C592 1.334 . S
C593 C594 1.287 . S
C594 C593 1.287 . S
C594 C595 1.524 . S
C594 H613 0.913 . S
C595 H571 0.950 . S
C595 C594 1.524 . S
C595 C596 1.415 . S
C596 H572 0.950 . S
C596 C591 1.363 . S
C596 C595 1.415 . S
C597 H573 0.951 . S
C597 C598 1.366 . S
C597 C599 1.388 . S
C598 C597 1.366 . S
C598 C602 1.385 . S
C599 H574 0.951 . S
C599 C597 1.388 . S
C599 C600 1.366 . S
C600 C599 1.366 . S
C600 C601 1.414 . S
C600 C603 1.499 . S
C601 H575 0.950 . S
C601 C600 1.414 . S
C601 C602 1.374 . S
C602 H576 0.950 . S
C602 C598 1.385 . S
C602 C601 1.374 . S
C603 C600 1.499 . S
C603 C604 1.373 . S
C603 C605 1.389 . S
C604 H577 0.950 . S
C604 C590 1.377 . S
C604 C603 1.373 . S
C605 C589 1.377 . S
C605 C603 1.389 . S
C605 C606 1.524 . S
C606 C605 1.524 . S
C606 C607 1.397 . S
C606 C611 1.363 . S
C607 H578 0.950 . S
C607 C606 1.397 . S
C607 C608 1.334 . S
C608 H579 0.950 . S
C608 C607 1.334 . S
C608 C609 1.287 . S
C609 C608 1.287 . S
C609 C610 1.524 . S
C609 H612 0.999 1_565 S
C610 H580 0.950 . S
C610 C609 1.524 . S
C610 C611 1.415 . S
C611 H581 0.950 . S
C611 C606 1.363 . S
C611 C610 1.415 . S
H612 C609 0.999 1_545 S
H613 C594 0.913 . S
H614 C632 0.951 . S
H615 C634 0.951 1_545 S
H616 C636 0.950 . S
H617 C637 0.950 . S
H618 C639 0.950 . S
H619 C642 0.950 . S
H620 C643 0.950 . S
H621 C645 0.950 . S
H622 C646 0.950 . S
H623 C647 0.951 . S
H624 C649 0.951 . S
H625 C651 0.950 . S
H626 C652 0.950 . S
H627 C654 0.950 . S
H628 C657 0.950 . S
H629 C658 0.950 . S
H630 C660 0.950 . S
H631 C661 0.950 . S
C632 H614 0.951 . S
C632 C633 1.365 1_545 S
C632 C634 1.388 1_545 S
C633 C632 1.365 1_565 S
C633 C637 1.386 . S
C634 H615 0.951 1_565 S
C634 C632 1.388 1_565 S
C634 C635 1.366 . S
C635 C634 1.366 . S
C635 C636 1.414 . S
C635 C638 1.499 . S
C636 H616 0.950 . S
C636 C635 1.414 . S
C636 C637 1.374 . S
C637 H617 0.950 . S
C637 C633 1.386 . S
C637 C636 1.374 . S
C638 C635 1.499 . S
C638 C639 1.373 . S
C638 C640 1.389 . S
C639 H618 0.950 . S
C639 C638 1.373 . S
C639 C655 1.377 . S
C640 C638 1.389 . S
C640 C641 1.524 1_565 S
C640 C654 1.377 . S
C641 C640 1.524 1_545 S
C641 C642 1.397 . S
C641 C646 1.363 . S
C642 H619 0.950 . S
C642 C641 1.397 . S
C642 C643 1.334 . S
C643 H620 0.950 . S
C643 C642 1.334 . S
C643 C644 1.287 . S
C644 C643 1.287 . S
C644 C645 1.524 . S
C644 H663 0.913 . S
C645 H621 0.950 . S
C645 C644 1.524 . S
C645 C646 1.415 . S
C646 H622 0.950 . S
C646 C641 1.363 . S
C646 C645 1.415 . S
C647 H623 0.951 . S
C647 C648 1.366 . S
C647 C649 1.388 . S
C648 C647 1.366 . S
C648 C652 1.385 . S
C649 H624 0.951 . S
C649 C647 1.388 . S
C649 C650 1.366 . S
C650 C649 1.366 . S
C650 C651 1.414 . S
C650 C653 1.499 . S
C651 H625 0.950 . S
C651 C650 1.414 . S
C651 C652 1.374 . S
C652 H626 0.950 . S
C652 C648 1.385 . S
C652 C651 1.374 . S
C653 C650 1.499 . S
C653 C654 1.373 . S
C653 C655 1.389 . S
C654 H627 0.950 . S
C654 C640 1.377 . S
C654 C653 1.373 . S
C655 C639 1.377 . S
C655 C653 1.389 . S
C655 C656 1.524 . S
C656 C655 1.524 . S
C656 C657 1.397 . S
C656 C661 1.363 . S
C657 H628 0.950 . S
C657 C656 1.397 . S
C657 C658 1.334 . S
C658 H629 0.950 . S
C658 C657 1.334 . S
C658 C659 1.287 . S
C659 C658 1.287 . S
C659 C660 1.524 . S
C659 H662 0.999 . S
C660 H630 0.950 . S
C660 C659 1.524 . S
C660 C661 1.415 . S
C661 H631 0.950 . S
C661 C656 1.363 . S
C661 C660 1.415 . S
H662 C659 0.999 . S
H663 C644 0.913 . S
H664 C682 0.951 . S
H665 C684 0.951 . S
H666 C686 0.950 . S
H667 C687 0.950 . S
H668 C689 0.950 . S
H669 C692 0.950 . S
H670 C693 0.950 . S
H671 C695 0.950 . S
H672 C696 0.950 . S
H673 C697 0.951 . S
H674 C699 0.951 . S
H675 C701 0.950 . S
H676 C702 0.950 1_655 S
H677 C704 0.950 . S
H678 C707 0.950 . S
H679 C708 0.950 . S
H680 C710 0.950 . S
H681 C711 0.950 1_455 S
C682 H664 0.951 . S
C682 C683 1.366 . S
C682 C684 1.388 . S
C683 C682 1.366 . S
C683 C687 1.385 . S
C684 H665 0.951 . S
C684 C682 1.388 . S
C684 C685 1.366 . S
C685 C684 1.366 . S
C685 C686 1.414 . S
C685 C688 1.499 . S
C686 H666 0.950 . S
C686 C685 1.414 . S
C686 C687 1.374 . S
C687 H667 0.950 . S
C687 C683 1.385 . S
C687 C686 1.374 . S
C688 C685 1.499 . S
C688 C689 1.373 . S
C688 C690 1.389 . S
C689 H668 0.950 . S
C689 C688 1.373 . S
C689 C705 1.377 . S
C690 C688 1.389 . S
C690 C691 1.524 . S
C690 C704 1.377 . S
C691 C690 1.524 . S
C691 C692 1.397 . S
C691 C696 1.363 . S
C692 H669 0.950 . S
C692 C691 1.397 . S
C692 C693 1.334 . S
C693 H670 0.950 . S
C693 C692 1.334 . S
C693 C694 1.287 . S
C694 C693 1.287 . S
C694 C695 1.524 . S
C694 H713 0.913 . S
C695 H671 0.950 . S
C695 C694 1.524 . S
C695 C696 1.415 . S
C696 H672 0.950 . S
C696 C691 1.363 . S
C696 C695 1.415 . S
C697 H673 0.951 . S
C697 C698 1.366 . S
C697 C699 1.388 . S
C698 C697 1.366 . S
C698 C702 1.385 . S
C699 H674 0.951 . S
C699 C697 1.388 . S
C699 C700 1.366 . S
C700 C699 1.366 . S
C700 C701 1.414 . S
C700 C703 1.499 . S
C701 H675 0.950 . S
C701 C700 1.414 . S
C701 C702 1.374 . S
C702 H676 0.950 1_455 S
C702 C698 1.385 . S
C702 C701 1.374 . S
C703 C700 1.499 . S
C703 C704 1.373 . S
C703 C705 1.389 . S
C704 H677 0.950 . S
C704 C690 1.377 . S
C704 C703 1.373 . S
C705 C689 1.377 . S
C705 C703 1.389 . S
C705 C706 1.524 1_455 S
C706 C705 1.524 1_655 S
C706 C707 1.397 . S
C706 C711 1.363 . S
C707 H678 0.950 . S
C707 C706 1.397 . S
C707 C708 1.334 . S
C708 H679 0.950 . S
C708 C707 1.334 . S
C708 C709 1.287 . S
C709 C708 1.287 . S
C709 C710 1.524 . S
C709 H712 0.999 . S
C710 H680 0.950 . S
C710 C709 1.524 . S
C710 C711 1.415 . S
C711 H681 0.950 1_655 S
C711 C706 1.363 . S
C711 C710 1.415 . S
H712 C709 0.999 . S
H713 C694 0.913 . S
H714 C732 0.951 . S
H715 C734 0.951 . S
H716 C736 0.950 . S
H717 C737 0.950 . S
H718 C739 0.950 . S
H719 C742 0.950 . S
H720 C743 0.950 . S
H721 C745 0.950 1_554 S
H722 C746 0.950 . S
H723 C747 0.951 . S
H724 C749 0.951 . S
H725 C751 0.950 . S
H726 C752 0.950 . S
H727 C754 0.950 . S
H728 C757 0.950 . S
H729 C758 0.950 . S
H730 C760 0.950 . S
H731 C761 0.943 1_556 S
C732 H714 0.951 . S
C732 C733 1.366 . S
C732 C734 1.388 . S
C733 C732 1.366 . S
C733 C737 1.385 . S
C734 H715 0.951 . S
C734 C732 1.388 . S
C734 C735 1.366 . S
C735 C734 1.366 . S
C735 C736 1.414 . S
C735 C738 1.499 . S
C736 H716 0.950 . S
C736 C735 1.414 . S
C736 C737 1.374 . S
C737 H717 0.950 . S
C737 C733 1.385 . S
C737 C736 1.374 . S
C738 C735 1.499 . S
C738 C739 1.373 . S
C738 C740 1.410 . S
C739 H718 0.950 . S
C739 C738 1.373 . S
C739 C755 1.377 1_556 S
C740 C738 1.410 . S
C740 C741 1.536 . S
C740 C754 1.344 1_556 S
C741 C740 1.536 . S
C741 C742 1.397 . S
C741 C746 1.363 1_556 S
C742 H719 0.950 . S
C742 C741 1.397 . S
C742 C743 1.334 . S
C743 H720 0.950 . S
C743 C742 1.334 . S
C743 C744 1.287 . S
C744 C743 1.287 . S
C744 C745 1.524 . S
C744 H763 0.910 1_455 S
C745 H721 0.950 1_556 S
C745 C744 1.524 . S
C745 C746 1.415 1_556 S
C746 H722 0.950 . S
C746 C741 1.363 1_554 S
C746 C745 1.415 1_554 S
C747 H723 0.951 . S
C747 C748 1.366 . S
C747 C749 1.388 . S
C748 C747 1.366 . S
C748 C752 1.385 . S
C749 H724 0.951 . S
C749 C747 1.388 . S
C749 C750 1.366 . S
C750 C749 1.366 . S
C750 C751 1.414 . S
C750 C753 1.499 . S
C751 H725 0.950 . S
C751 C750 1.414 . S
C751 C752 1.374 . S
C752 H726 0.950 . S
C752 C748 1.385 . S
C752 C751 1.374 . S
C753 C750 1.499 . S
C753 C754 1.373 . S
C753 C755 1.389 . S
C754 H727 0.950 . S
C754 C740 1.344 1_554 S
C754 C753 1.373 . S
C755 C739 1.377 1_554 S
C755 C753 1.389 . S
C755 C756 1.524 . S
C756 C755 1.524 . S
C756 C757 1.397 . S
C756 C761 1.363 . S
C757 H728 0.950 . S
C757 C756 1.397 . S
C757 C758 1.334 . S
C758 H729 0.950 . S
C758 C757 1.334 . S
C758 C759 1.287 . S
C759 C758 1.287 . S
C759 C760 1.524 . S
C759 H762 0.999 . S
C760 H730 0.950 . S
C760 C759 1.524 . S
C760 C761 1.415 . S
C761 H731 0.943 1_554 S
C761 C756 1.363 . S
C761 C760 1.415 . S
H762 C759 0.999 . S
H763 C744 0.910 1_655 S
H764 C782 0.951 . S
H765 C784 0.951 . S
H766 C786 0.950 . S
H767 C787 0.950 . S
H768 C789 0.950 . S
H769 C792 0.950 1_455 S
H770 C793 0.950 1_455 S
H771 C795 0.950 . S
H772 C796 0.950 . S
H773 C797 0.951 . S
H774 C799 0.951 . S
H775 C801 0.950 . S
H776 C802 0.950 . S
H777 C804 0.950 . S
H778 C807 0.950 . S
H779 C808 0.950 . S
H780 C810 0.950 1_455 S
H781 C811 0.950 1_455 S
C782 H764 0.951 . S
C782 C783 1.367 . S
C782 C784 1.388 . S
C783 C782 1.367 . S
C783 C787 1.384 1_655 S
C784 H765 0.951 . S
C784 C782 1.388 . S
C784 C785 1.366 . S
C785 C784 1.366 . S
C785 C786 1.414 1_655 S
C785 C788 1.499 . S
C786 H766 0.950 . S
C786 C785 1.414 1_455 S
C786 C787 1.374 . S
C787 H767 0.950 . S
C787 C783 1.384 1_455 S
C787 C786 1.374 . S
C788 C785 1.499 . S
C788 C789 1.373 . S
C788 C790 1.389 . S
C789 H768 0.950 . S
C789 C788 1.373 . S
C789 C805 1.377 . S
C790 C788 1.389 . S
C790 C791 1.524 . S
C790 C804 1.377 . S
C791 C790 1.524 . S
C791 C792 1.397 . S
C791 C796 1.363 . S
C792 H769 0.950 1_655 S
C792 C791 1.397 . S
C792 C793 1.334 . S
C793 H770 0.950 1_655 S
C793 C792 1.334 . S
C793 C794 1.287 . S
C794 C793 1.287 . S
C794 C795 1.524 . S
C794 H813 0.913 . S
C795 H771 0.950 . S
C795 C794 1.524 . S
C795 C796 1.415 . S
C796 H772 0.950 . S
C796 C791 1.363 . S
C796 C795 1.415 . S
C797 H773 0.951 . S
C797 C798 1.366 . S
C797 C799 1.388 . S
C798 C797 1.366 . S
C798 C802 1.385 . S
C799 H774 0.951 . S
C799 C797 1.388 . S
C799 C800 1.366 . S
C800 C799 1.366 . S
C800 C801 1.414 . S
C800 C803 1.499 . S
C801 H775 0.950 . S
C801 C800 1.414 . S
C801 C802 1.374 . S
C802 H776 0.950 . S
C802 C798 1.385 . S
C802 C801 1.374 . S
C803 C800 1.499 . S
C803 C804 1.373 . S
C803 C805 1.389 . S
C804 H777 0.950 . S
C804 C790 1.377 . S
C804 C803 1.373 . S
C805 C789 1.377 . S
C805 C803 1.389 . S
C805 C806 1.524 . S
C806 C805 1.524 . S
C806 C807 1.397 . S
C806 C811 1.363 . S
C807 H778 0.950 . S
C807 C806 1.397 . S
C807 C808 1.334 . S
C808 H779 0.950 . S
C808 C807 1.334 . S
C808 C809 1.287 . S
C809 C808 1.287 . S
C809 C810 1.524 . S
C809 H812 0.999 . S
C810 H780 0.950 1_655 S
C810 C809 1.524 . S
C810 C811 1.415 . S
C811 H781 0.950 1_655 S
C811 C806 1.363 . S
C811 C810 1.415 . S
H812 C809 0.999 . S
H813 C794 0.913 . S
H814 C832 0.951 . S
H815 C834 0.951 . S
H816 C836 0.950 . S
H817 C837 0.950 . S
H818 C839 0.950 . S
H819 C842 0.950 . S
H820 C843 0.950 . S
H821 C845 0.950 . S
H822 C846 0.950 . S
H823 C847 0.951 . S
H824 C849 0.951 . S
H825 C851 0.950 . S
H826 C852 0.950 . S
H827 C854 0.950 . S
H828 C857 0.950 . S
H829 C858 0.950 . S
H830 C860 0.950 . S
H831 C861 0.950 . S
C832 H814 0.951 . S
C832 C833 1.366 . S
C832 C834 1.388 . S
C833 C832 1.366 . S
C833 C837 1.385 . S
C834 H815 0.951 . S
C834 C832 1.388 . S
C834 C835 1.366 . S
C835 C834 1.366 . S
C835 C836 1.414 . S
C835 C838 1.499 . S
C836 H816 0.950 . S
C836 C835 1.414 . S
C836 C837 1.374 . S
C837 H817 0.950 . S
C837 C833 1.385 . S
C837 C836 1.374 . S
C838 C835 1.499 . S
C838 C839 1.373 . S
C838 C840 1.389 . S
C839 H818 0.950 . S
C839 C838 1.373 . S
C839 C855 1.377 . S
C840 C838 1.389 . S
C840 C841 1.524 . S
C840 C854 1.377 . S
C841 C840 1.524 . S
C841 C842 1.397 . S
C841 C846 1.363 . S
C842 H819 0.950 . S
C842 C841 1.397 . S
C842 C843 1.334 . S
C843 H820 0.950 . S
C843 C842 1.334 . S
C843 C844 1.287 . S
C844 C843 1.287 . S
C844 C845 1.524 1_655 S
C844 H863 0.913 . S
C845 H821 0.950 . S
C845 C844 1.524 1_455 S
C845 C846 1.415 1_455 S
C846 H822 0.950 . S
C846 C841 1.363 . S
C846 C845 1.415 1_655 S
C847 H823 0.951 . S
C847 C848 1.366 . S
C847 C849 1.388 . S
C848 C847 1.366 . S
C848 C852 1.385 . S
C849 H824 0.951 . S
C849 C847 1.388 . S
C849 C850 1.366 . S
C850 C849 1.366 . S
C850 C851 1.414 . S
C850 C853 1.499 . S
C851 H825 0.950 . S
C851 C850 1.414 . S
C851 C852 1.374 . S
C852 H826 0.950 . S
C852 C848 1.385 . S
C852 C851 1.374 . S
C853 C850 1.499 . S
C853 C854 1.373 . S
C853 C855 1.389 . S
C854 H827 0.950 . S
C854 C840 1.377 . S
C854 C853 1.373 . S
C855 C839 1.377 . S
C855 C853 1.389 . S
C855 C856 1.524 . S
C856 C855 1.524 . S
C856 C857 1.397 . S
C856 C861 1.363 . S
C857 H828 0.950 . S
C857 C856 1.397 . S
C857 C858 1.334 . S
C858 H829 0.950 . S
C858 C857 1.334 . S
C858 C859 1.287 . S
C859 C858 1.287 . S
C859 C860 1.524 . S
C859 H862 0.999 . S
C860 H830 0.950 . S
C860 C859 1.524 . S
C860 C861 1.415 . S
C861 H831 0.950 . S
C861 C856 1.363 . S
C861 C860 1.415 . S
H862 C859 0.999 . S
H863 C844 0.913 . S
H864 C882 0.951 . S
H865 C884 0.951 . S
H866 C886 0.950 . S
H867 C887 0.950 . S
H868 C889 0.950 . S
H869 C892 0.950 . S
H870 C893 0.950 . S
H871 C895 0.950 . S
H872 C896 0.950 . S
H873 C897 0.951 . S
H874 C899 0.951 . S
H875 C901 0.950 . S
H876 C902 0.950 . S
H877 C904 0.950 . S
H878 C907 0.950 . S
H879 C908 0.950 . S
H880 C910 0.950 . S
H881 C911 0.950 . S
C882 H864 0.951 . S
C882 C883 1.366 . S
C882 C884 1.388 . S
C883 C882 1.366 . S
C883 C887 1.385 . S
C884 H865 0.951 . S
C884 C882 1.388 . S
C884 C885 1.366 . S
C885 C884 1.366 . S
C885 C886 1.414 . S
C885 C888 1.499 . S
C886 H866 0.950 . S
C886 C885 1.414 . S
C886 C887 1.374 . S
C887 H867 0.950 . S
C887 C883 1.385 . S
C887 C886 1.374 . S
C888 C885 1.499 . S
C888 C889 1.373 . S
C888 C890 1.389 . S
C889 H868 0.950 . S
C889 C888 1.373 . S
C889 C905 1.377 . S
C890 C888 1.389 . S
C890 C891 1.524 . S
C890 C904 1.377 . S
C891 C890 1.524 . S
C891 C892 1.397 . S
C891 C896 1.363 . S
C892 H869 0.950 . S
C892 C891 1.397 . S
C892 C893 1.334 . S
C893 H870 0.950 . S
C893 C892 1.334 . S
C893 C894 1.287 . S
C894 C893 1.287 . S
C894 C895 1.524 . S
C894 H913 0.913 . S
C895 H871 0.950 . S
C895 C894 1.524 . S
C895 C896 1.415 . S
C896 H872 0.950 . S
C896 C891 1.363 . S
C896 C895 1.415 . S
C897 H873 0.951 . S
C897 C898 1.363 . S
C897 C899 1.391 1_545 S
C898 C897 1.363 . S
C898 C902 1.385 . S
C899 H874 0.951 . S
C899 C897 1.391 1_565 S
C899 C900 1.366 . S
C900 C899 1.366 . S
C900 C901 1.414 . S
C900 C903 1.499 . S
C901 H875 0.950 . S
C901 C900 1.414 . S
C901 C902 1.374 1_565 S
C902 H876 0.950 . S
C902 C898 1.385 . S
C902 C901 1.374 1_545 S
C903 C900 1.499 . S
C903 C904 1.373 . S
C903 C905 1.389 . S
C904 H877 0.950 . S
C904 C890 1.377 . S
C904 C903 1.373 . S
C905 C889 1.377 . S
C905 C903 1.389 . S
C905 C906 1.524 . S
C906 C905 1.524 . S
C906 C907 1.397 . S
C906 C911 1.363 . S
C907 H878 0.950 . S
C907 C906 1.397 . S
C907 C908 1.334 . S
C908 H879 0.950 . S
C908 C907 1.334 . S
C908 C909 1.287 . S
C909 C908 1.287 . S
C909 C910 1.524 . S
C909 H912 0.999 . S
C910 H880 0.950 . S
C910 C909 1.524 . S
C910 C911 1.415 . S
C911 H881 0.950 . S
C911 C906 1.363 . S
C911 C910 1.415 . S
H912 C909 0.999 . S
H913 C894 0.913 . S
H914 C932 0.951 . S
H915 C934 0.951 . S
H916 C936 0.950 . S
H917 C937 0.950 . S
H918 C939 0.950 . S
H919 C942 0.950 . S
H920 C943 0.950 . S
H921 C945 0.950 . S
H922 C946 0.950 . S
H923 C947 0.951 . S
H924 C949 0.951 . S
H925 C951 0.950 . S
H926 C952 0.950 . S
H927 C954 0.950 . S
H928 C957 0.950 . S
H929 C958 0.950 . S
H930 C960 0.950 . S
H931 C961 0.950 . S
C932 H914 0.951 . S
C932 C933 1.366 . S
C932 C934 1.388 . S
C933 C932 1.366 . S
C933 C937 1.385 . S
C934 H915 0.951 . S
C934 C932 1.388 . S
C934 C935 1.366 . S
C935 C934 1.366 . S
C935 C936 1.414 . S
C935 C938 1.499 . S
C936 H916 0.950 . S
C936 C935 1.414 . S
C936 C937 1.374 . S
C937 H917 0.950 . S
C937 C933 1.385 . S
C937 C936 1.374 . S
C938 C935 1.499 . S
C938 C939 1.373 . S
C938 C940 1.389 . S
C939 H918 0.950 . S
C939 C938 1.373 . S
C939 C955 1.377 . S
C940 C938 1.389 . S
C940 C941 1.524 . S
C940 C954 1.377 . S
C941 C940 1.524 . S
C941 C942 1.397 . S
C941 C946 1.363 . S
C942 H919 0.950 . S
C942 C941 1.397 . S
C942 C943 1.334 . S
C943 H920 0.950 . S
C943 C942 1.334 . S
C943 C944 1.287 . S
C944 C943 1.287 . S
C944 C945 1.524 . S
C944 H963 0.913 . S
C945 H921 0.950 . S
C945 C944 1.524 . S
C945 C946 1.415 . S
C946 H922 0.950 . S
C946 C941 1.363 . S
C946 C945 1.415 . S
C947 H923 0.951 . S
C947 C948 1.366 . S
C947 C949 1.388 . S
C948 C947 1.366 . S
C948 C952 1.385 . S
C949 H924 0.951 . S
C949 C947 1.388 . S
C949 C950 1.366 . S
C950 C949 1.366 . S
C950 C951 1.414 . S
C950 C953 1.499 . S
C951 H925 0.950 . S
C951 C950 1.414 . S
C951 C952 1.374 . S
C952 H926 0.950 . S
C952 C948 1.385 . S
C952 C951 1.374 . S
C953 C950 1.499 . S
C953 C954 1.373 . S
C953 C955 1.389 . S
C954 H927 0.950 . S
C954 C940 1.377 . S
C954 C953 1.373 . S
C955 C939 1.377 . S
C955 C953 1.389 . S
C955 C956 1.524 . S
C956 C955 1.524 . S
C956 C957 1.397 . S
C956 C961 1.363 . S
C957 H928 0.950 . S
C957 C956 1.397 . S
C957 C958 1.334 . S
C958 H929 0.950 . S
C958 C957 1.334 . S
C958 C959 1.287 . S
C959 C958 1.287 . S
C959 C960 1.524 . S
C959 H962 0.999 . S
C960 H930 0.950 . S
C960 C959 1.524 . S
C960 C961 1.415 . S
C961 H931 0.950 . S
C961 C956 1.363 . S
C961 C960 1.415 . S
H962 C959 0.999 . S
H963 C944 0.913 . S
H964 C982 0.951 . S
H965 C984 0.951 . S
H966 C986 0.950 . S
H967 C987 0.950 . S
H968 C989 0.950 . S
H969 C992 0.950 . S
H970 C993 0.950 . S
H971 C995 0.950 . S
H972 C996 0.950 . S
H973 C997 0.951 . S
H974 C999 0.951 . S
H975 C1001 0.950 . S
H976 C1002 0.950 . S
H977 C1004 0.950 . S
H978 C1007 0.950 . S
H979 C1008 0.950 . S
H980 C1010 0.950 . S
H981 C1011 0.950 . S
C982 H964 0.951 . S
C982 C983 1.366 . S
C982 C984 1.388 1_565 S
C983 C982 1.366 . S
C983 C987 1.385 . S
C984 H965 0.951 . S
C984 C982 1.388 1_545 S
C984 C985 1.366 . S
C985 C984 1.366 . S
C985 C986 1.414 . S
C985 C988 1.499 . S
C986 H966 0.950 . S
C986 C985 1.414 . S
C986 C987 1.374 1_545 S
C987 H967 0.950 . S
C987 C983 1.385 . S
C987 C986 1.374 1_565 S
C988 C985 1.499 . S
C988 C989 1.373 . S
C988 C990 1.389 . S
C989 H968 0.950 . S
C989 C988 1.373 . S
C989 C1005 1.377 . S
C990 C988 1.389 . S
C990 C991 1.524 . S
C990 C1004 1.377 . S
C991 C990 1.524 . S
C991 C992 1.397 . S
C991 C996 1.363 . S
C992 H969 0.950 . S
C992 C991 1.397 . S
C992 C993 1.334 . S
C993 H970 0.950 . S
C993 C992 1.334 . S
C993 C994 1.287 . S
C994 C993 1.287 . S
C994 C995 1.524 . S
C994 H1013 0.913 . S
C995 H971 0.950 . S
C995 C994 1.524 . S
C995 C996 1.415 . S
C996 H972 0.950 . S
C996 C991 1.363 . S
C996 C995 1.415 . S
C997 H973 0.951 . S
C997 C998 1.366 . S
C997 C999 1.388 . S
C998 C997 1.366 . S
C998 C1002 1.385 . S
C999 H974 0.951 . S
C999 C997 1.388 . S
C999 C1000 1.366 . S
C1000 C999 1.366 . S
C1000 C1001 1.414 . S
C1000 C1003 1.499 . S
C1001 H975 0.950 . S
C1001 C1000 1.414 . S
C1001 C1002 1.374 . S
C1002 H976 0.950 . S
C1002 C998 1.385 . S
C1002 C1001 1.374 . S
C1003 C1000 1.499 . S
C1003 C1004 1.373 . S
C1003 C1005 1.389 . S
C1004 H977 0.950 . S
C1004 C990 1.377 . S
C1004 C1003 1.373 . S
C1005 C989 1.377 . S
C1005 C1003 1.389 . S
C1005 C1006 1.524 . S
C1006 C1005 1.524 . S
C1006 C1007 1.397 . S
C1006 C1011 1.363 . S
C1007 H978 0.950 . S
C1007 C1006 1.397 . S
C1007 C1008 1.334 . S
C1008 H979 0.950 . S
C1008 C1007 1.334 . S
C1008 C1009 1.287 . S
C1009 C1008 1.287 . S
C1009 C1010 1.524 . S
C1009 H1012 0.999 . S
C1010 H980 0.950 . S
C1010 C1009 1.524 . S
C1010 C1011 1.415 . S
C1011 H981 0.950 . S
C1011 C1006 1.363 . S
C1011 C1010 1.415 . S
H1012 C1009 0.999 . S
H1013 C994 0.913 . S
H1014 C1032 0.951 . S
H1015 C1034 0.951 . S
H1016 C1036 0.950 . S
H1017 C1037 0.950 . S
H1018 C1039 0.950 . S
H1019 C1042 0.950 . S
H1020 C1043 0.950 . S
H1021 C1045 0.950 . S
H1022 C1046 0.950 . S
H1023 C1047 0.951 . S
H1024 C1049 0.951 . S
H1025 C1051 0.950 . S
H1026 C1052 0.950 . S
H1027 C1054 0.950 . S
H1028 C1057 0.950 . S
H1029 C1058 0.950 . S
H1030 C1060 0.950 . S
H1031 C1061 0.950 . S
C1032 H1014 0.951 . S
C1032 C1033 1.366 . S
C1032 C1034 1.388 . S
C1033 C1032 1.366 . S
C1033 C1037 1.385 . S
C1034 H1015 0.951 . S
C1034 C1032 1.388 . S
C1034 C1035 1.366 . S
C1035 C1034 1.366 . S
C1035 C1036 1.414 . S
C1035 C1038 1.499 . S
C1036 H1016 0.950 . S
C1036 C1035 1.414 . S
C1036 C1037 1.374 . S
C1037 H1017 0.950 . S
C1037 C1033 1.385 . S
C1037 C1036 1.374 . S
C1038 C1035 1.499 . S
C1038 C1039 1.373 . S
C1038 C1040 1.389 . S
C1039 H1018 0.950 . S
C1039 C1038 1.373 . S
C1039 C1055 1.377 . S
C1040 C1038 1.389 . S
C1040 C1041 1.524 . S
C1040 C1054 1.377 . S
C1041 C1040 1.524 . S
C1041 C1042 1.397 . S
C1041 C1046 1.363 . S
C1042 H1019 0.950 . S
C1042 C1041 1.397 . S
C1042 C1043 1.334 . S
C1043 H1020 0.950 . S
C1043 C1042 1.334 . S
C1043 C1044 1.287 . S
C1044 C1043 1.287 . S
C1044 C1045 1.524 . S
C1044 H1063 0.913 . S
C1045 H1021 0.950 . S
C1045 C1044 1.524 . S
C1045 C1046 1.415 . S
C1046 H1022 0.950 . S
C1046 C1041 1.363 . S
C1046 C1045 1.415 . S
C1047 H1023 0.951 . S
C1047 C1048 1.366 . S
C1047 C1049 1.388 . S
C1048 C1047 1.366 . S
C1048 C1052 1.385 . S
C1049 H1024 0.951 . S
C1049 C1047 1.388 . S
C1049 C1050 1.366 . S
C1050 C1049 1.366 . S
C1050 C1051 1.414 . S
C1050 C1053 1.499 . S
C1051 H1025 0.950 . S
C1051 C1050 1.414 . S
C1051 C1052 1.374 . S
C1052 H1026 0.950 . S
C1052 C1048 1.385 . S
C1052 C1051 1.374 . S
C1053 C1050 1.499 . S
C1053 C1054 1.373 . S
C1053 C1055 1.389 . S
C1054 H1027 0.950 . S
C1054 C1040 1.377 . S
C1054 C1053 1.373 . S
C1055 C1039 1.377 . S
C1055 C1053 1.389 . S
C1055 C1056 1.524 . S
C1056 C1055 1.524 . S
C1056 C1057 1.397 . S
C1056 C1061 1.363 . S
C1057 H1028 0.950 . S
C1057 C1056 1.397 . S
C1057 C1058 1.334 . S
C1058 H1029 0.950 . S
C1058 C1057 1.334 . S
C1058 C1059 1.287 . S
C1059 C1058 1.287 . S
C1059 C1060 1.524 . S
C1059 H1062 0.999 . S
C1060 H1030 0.950 . S
C1060 C1059 1.524 . S
C1060 C1061 1.415 . S
C1061 H1031 0.950 . S
C1061 C1056 1.363 . S
C1061 C1060 1.415 . S
H1062 C1059 0.999 . S
H1063 C1044 0.913 . S
H1064 C1082 0.951 . S
H1065 C1084 0.951 . S
H1066 C1086 0.950 . S
H1067 C1087 0.950 . S
H1068 C1089 0.950 . S
H1069 C1092 0.950 . S
H1070 C1093 0.950 . S
H1071 C1095 0.950 . S
H1072 C1096 0.950 . S
H1073 C1097 0.951 . S
H1074 C1099 0.951 . S
H1075 C1101 0.950 . S
H1076 C1102 0.950 . S
H1077 C1104 0.950 . S
H1078 C1107 0.950 . S
H1079 C1108 0.950 . S
H1080 C1110 0.950 . S
H1081 C1111 0.950 . S
C1082 H1064 0.951 . S
C1082 C1083 1.366 . S
C1082 C1084 1.388 . S
C1083 C1082 1.366 . S
C1083 C1087 1.385 . S
C1084 H1065 0.951 . S
C1084 C1082 1.388 . S
C1084 C1085 1.366 . S
C1085 C1084 1.366 . S
C1085 C1086 1.414 . S
C1085 C1088 1.499 . S
C1086 H1066 0.950 . S
C1086 C1085 1.414 . S
C1086 C1087 1.374 . S
C1087 H1067 0.950 . S
C1087 C1083 1.385 . S
C1087 C1086 1.374 . S
C1088 C1085 1.499 . S
C1088 C1089 1.373 . S
C1088 C1090 1.389 . S
C1089 H1068 0.950 . S
C1089 C1088 1.373 . S
C1089 C1105 1.377 . S
C1090 C1088 1.389 . S
C1090 C1091 1.524 . S
C1090 C1104 1.377 . S
C1091 C1090 1.524 . S
C1091 C1092 1.397 . S
C1091 C1096 1.363 . S
C1092 H1069 0.950 . S
C1092 C1091 1.397 . S
C1092 C1093 1.334 . S
C1093 H1070 0.950 . S
C1093 C1092 1.334 . S
C1093 C1094 1.287 . S
C1094 C1093 1.287 . S
C1094 C1095 1.524 . S
C1094 H1113 0.913 . S
C1095 H1071 0.950 . S
C1095 C1094 1.524 . S
C1095 C1096 1.415 . S
C1096 H1072 0.950 . S
C1096 C1091 1.363 . S
C1096 C1095 1.415 . S
C1097 H1073 0.951 . S
C1097 C1098 1.366 . S
C1097 C1099 1.388 . S
C1098 C1097 1.366 . S
C1098 C1102 1.385 . S
C1099 H1074 0.951 . S
C1099 C1097 1.388 . S
C1099 C1100 1.366 . S
C1100 C1099 1.366 . S
C1100 C1101 1.414 . S
C1100 C1103 1.499 . S
C1101 H1075 0.950 . S
C1101 C1100 1.414 . S
C1101 C1102 1.374 . S
C1102 H1076 0.950 . S
C1102 C1098 1.385 . S
C1102 C1101 1.374 . S
C1103 C1100 1.499 . S
C1103 C1104 1.373 . S
C1103 C1105 1.389 . S
C1104 H1077 0.950 . S
C1104 C1090 1.377 . S
C1104 C1103 1.373 . S
C1105 C1089 1.377 . S
C1105 C1103 1.389 . S
C1105 C1106 1.524 . S
C1106 C1105 1.524 . S
C1106 C1107 1.397 . S
C1106 C1111 1.363 . S
C1107 H1078 0.950 . S
C1107 C1106 1.397 . S
C1107 C1108 1.334 . S
C1108 H1079 0.950 . S
C1108 C1107 1.334 . S
C1108 C1109 1.287 . S
C1109 C1108 1.287 . S
C1109 C1110 1.524 . S
C1109 H1112 0.999 . S
C1110 H1080 0.950 . S
C1110 C1109 1.524 . S
C1110 C1111 1.415 . S
C1111 H1081 0.950 . S
C1111 C1106 1.363 . S
C1111 C1110 1.415 . S
H1112 C1109 0.999 . S
H1113 C1094 0.913 . S
H1114 C1132 0.951 . S
H1115 C1134 0.951 . S
H1116 C1136 0.950 . S
H1117 C1137 0.950 . S
H1118 C1139 0.950 . S
H1119 C1142 0.950 . S
H1120 C1143 0.950 . S
H1121 C1145 0.950 . S
H1122 C1146 0.950 . S
H1123 C1147 0.951 . S
H1124 C1149 0.951 . S
H1125 C1151 0.950 . S
H1126 C1152 0.951 . S
H1127 C1154 0.950 . S
H1128 C1157 0.950 . S
H1129 C1158 0.950 . S
H1130 C1160 0.950 . S
H1131 C1161 0.950 . S
C1132 H1114 0.951 . S
C1132 C1133 1.366 . S
C1132 C1134 1.388 . S
C1133 C1132 1.366 . S
C1133 C1137 1.385 . S
C1134 H1115 0.951 . S
C1134 C1132 1.388 . S
C1134 C1135 1.366 . S
C1135 C1134 1.366 . S
C1135 C1136 1.414 . S
C1135 C1138 1.499 . S
C1136 H1116 0.950 . S
C1136 C1135 1.414 . S
C1136 C1137 1.374 . S
C1137 H1117 0.950 . S
C1137 C1133 1.385 . S
C1137 C1136 1.374 . S
C1138 C1135 1.499 . S
C1138 C1139 1.373 . S
C1138 C1140 1.389 . S
C1139 H1118 0.950 . S
C1139 C1138 1.373 . S
C1139 C1155 1.377 . S
C1140 C1138 1.389 . S
C1140 C1141 1.524 . S
C1140 C1154 1.377 . S
C1141 C1140 1.524 . S
C1141 C1142 1.397 . S
C1141 C1146 1.363 . S
C1142 H1119 0.950 . S
C1142 C1141 1.397 . S
C1142 C1143 1.334 . S
C1143 H1120 0.950 . S
C1143 C1142 1.334 . S
C1143 C1144 1.287 . S
C1144 C1143 1.287 . S
C1144 C1145 1.524 . S
C1144 H1163 0.913 . S
C1145 H1121 0.950 . S
C1145 C1144 1.524 . S
C1145 C1146 1.415 . S
C1146 H1122 0.950 . S
C1146 C1141 1.363 . S
C1146 C1145 1.415 . S
C1147 H1123 0.951 . S
C1147 C1148 1.366 . S
C1147 C1149 1.388 1_455 S
C1148 C1147 1.366 . S
C1148 C1152 1.385 1_455 S
C1149 H1124 0.951 . S
C1149 C1147 1.388 1_655 S
C1149 C1150 1.366 . S
C1150 C1149 1.366 . S
C1150 C1151 1.414 . S
C1150 C1153 1.499 . S
C1151 H1125 0.950 . S
C1151 C1150 1.414 . S
C1151 C1152 1.374 . S
C1152 H1126 0.951 . S
C1152 C1148 1.385 1_655 S
C1152 C1151 1.374 . S
C1153 C1150 1.499 . S
C1153 C1154 1.373 . S
C1153 C1155 1.389 . S
C1154 H1127 0.950 . S
C1154 C1140 1.377 . S
C1154 C1153 1.373 . S
C1155 C1139 1.377 . S
C1155 C1153 1.389 . S
C1155 C1156 1.524 . S
C1156 C1155 1.524 . S
C1156 C1157 1.397 . S
C1156 C1161 1.363 . S
C1157 H1128 0.950 . S
C1157 C1156 1.397 . S
C1157 C1158 1.334 . S
C1158 H1129 0.950 . S
C1158 C1157 1.334 . S
C1158 C1159 1.287 . S
C1159 C1158 1.287 . S
C1159 C1160 1.524 . S
C1159 H1162 0.999 . S
C1160 H1130 0.950 . S
C1160 C1159 1.524 . S
C1160 C1161 1.415 . S
C1161 H1131 0.950 . S
C1161 C1156 1.363 . S
C1161 C1160 1.415 . S
H1162 C1159 0.999 . S
H1163 C1144 0.913 . S
H1164 C1182 0.951 . S
H1165 C1184 0.951 . S
H1166 C1186 0.950 . S
H1167 C1187 0.950 . S
H1168 C1189 0.950 . S
H1169 C1192 0.950 . S
H1170 C1193 0.950 . S
H1171 C1195 0.950 . S
H1172 C1196 0.950 . S
H1173 C1197 0.951 . S
H1174 C1199 0.951 . S
H1175 C1201 0.950 . S
H1176 C1202 0.950 . S
H1177 C1204 0.950 . S
H1178 C1207 0.950 . S
H1179 C1208 0.950 . S
H1180 C1210 0.950 . S
H1181 C1211 0.950 . S
C1182 H1164 0.951 . S
C1182 C1183 1.366 . S
C1182 C1184 1.388 . S
C1183 C1182 1.366 . S
C1183 C1187 1.385 . S
C1184 H1165 0.951 . S
C1184 C1182 1.388 . S
C1184 C1185 1.366 . S
C1185 C1184 1.366 . S
C1185 C1186 1.414 . S
C1185 C1188 1.499 . S
C1186 H1166 0.950 . S
C1186 C1185 1.414 . S
C1186 C1187 1.374 . S
C1187 H1167 0.950 . S
C1187 C1183 1.385 . S
C1187 C1186 1.374 . S
C1188 C1185 1.499 . S
C1188 C1189 1.373 . S
C1188 C1190 1.389 . S
C1189 H1168 0.950 . S
C1189 C1188 1.373 . S
C1189 C1205 1.377 . S
C1190 C1188 1.389 . S
C1190 C1191 1.524 . S
C1190 C1204 1.377 . S
C1191 C1190 1.524 . S
C1191 C1192 1.397 . S
C1191 C1196 1.363 . S
C1192 H1169 0.950 . S
C1192 C1191 1.397 . S
C1192 C1193 1.334 . S
C1193 H1170 0.950 . S
C1193 C1192 1.334 . S
C1193 C1194 1.287 . S
C1194 C1193 1.287 . S
C1194 C1195 1.524 . S
C1194 H1213 0.913 . S
C1195 H1171 0.950 . S
C1195 C1194 1.524 . S
C1195 C1196 1.415 . S
C1196 H1172 0.950 . S
C1196 C1191 1.363 . S
C1196 C1195 1.415 . S
C1197 H1173 0.951 . S
C1197 C1198 1.366 . S
C1197 C1199 1.388 . S
C1198 C1197 1.366 . S
C1198 C1202 1.385 . S
C1199 H1174 0.951 . S
C1199 C1197 1.388 . S
C1199 C1200 1.366 . S
C1200 C1199 1.366 . S
C1200 C1201 1.414 . S
C1200 C1203 1.499 . S
C1201 H1175 0.950 . S
C1201 C1200 1.414 . S
C1201 C1202 1.374 . S
C1202 H1176 0.950 . S
C1202 C1198 1.385 . S
C1202 C1201 1.374 . S
C1203 C1200 1.499 . S
C1203 C1204 1.373 . S
C1203 C1205 1.389 . S
C1204 H1177 0.950 . S
C1204 C1190 1.377 . S
C1204 C1203 1.373 . S
C1205 C1189 1.377 . S
C1205 C1203 1.389 . S
C1205 C1206 1.524 . S
C1206 C1205 1.524 . S
C1206 C1207 1.397 . S
C1206 C1211 1.363 . S
C1207 H1178 0.950 . S
C1207 C1206 1.397 . S
C1207 C1208 1.334 . S
C1208 H1179 0.950 . S
C1208 C1207 1.334 . S
C1208 C1209 1.287 . S
C1209 C1208 1.287 . S
C1209 C1210 1.524 . S
C1209 H1212 0.999 . S
C1210 H1180 0.950 . S
C1210 C1209 1.524 . S
C1210 C1211 1.415 . S
C1211 H1181 0.950 . S
C1211 C1206 1.363 . S
C1211 C1210 1.415 . S
H1212 C1209 0.999 . S
H1213 C1194 0.913 . S
H1214 C1232 0.951 . S
H1215 C1234 0.951 . S
H1216 C1236 0.950 . S
H1217 C1237 0.950 . S
H1218 C1239 0.950 . S
H1219 C1242 0.950 . S
H1220 C1243 0.950 . S
H1221 C1245 0.950 . S
H1222 C1246 0.950 . S
H1223 C1247 0.951 . S
H1224 C1249 0.951 . S
H1225 C1251 0.950 . S
H1226 C1252 0.951 . S
H1227 C1254 0.950 . S
H1228 C1257 0.950 . S
H1229 C1258 0.950 . S
H1230 C1260 0.950 . S
H1231 C1261 0.950 . S
C1232 H1214 0.951 . S
C1232 C1233 1.366 . S
C1232 C1234 1.388 . S
C1233 C1232 1.366 . S
C1233 C1237 1.385 . S
C1234 H1215 0.951 . S
C1234 C1232 1.388 . S
C1234 C1235 1.366 . S
C1235 C1234 1.366 . S
C1235 C1236 1.414 . S
C1235 C1238 1.499 . S
C1236 H1216 0.950 . S
C1236 C1235 1.414 . S
C1236 C1237 1.374 . S
C1237 H1217 0.950 . S
C1237 C1233 1.385 . S
C1237 C1236 1.374 . S
C1238 C1235 1.499 . S
C1238 C1239 1.373 . S
C1238 C1240 1.389 . S
C1239 H1218 0.950 . S
C1239 C1238 1.373 . S
C1239 C1255 1.377 . S
C1240 C1238 1.389 . S
C1240 C1241 1.524 . S
C1240 C1254 1.377 . S
C1241 C1240 1.524 . S
C1241 C1242 1.397 . S
C1241 C1246 1.363 . S
C1242 H1219 0.950 . S
C1242 C1241 1.397 . S
C1242 C1243 1.334 . S
C1243 H1220 0.950 . S
C1243 C1242 1.334 . S
C1243 C1244 1.287 . S
C1244 C1243 1.287 . S
C1244 C1245 1.524 . S
C1244 H1263 0.913 . S
C1245 H1221 0.950 . S
C1245 C1244 1.524 . S
C1245 C1246 1.415 . S
C1246 H1222 0.950 . S
C1246 C1241 1.363 . S
C1246 C1245 1.415 . S
C1247 H1223 0.951 . S
C1247 C1248 1.366 . S
C1247 C1249 1.388 1_655 S
C1248 C1247 1.366 . S
C1248 C1252 1.385 1_655 S
C1249 H1224 0.951 . S
C1249 C1247 1.388 1_455 S
C1249 C1250 1.366 . S
C1250 C1249 1.366 . S
C1250 C1251 1.414 . S
C1250 C1253 1.499 . S
C1251 H1225 0.950 . S
C1251 C1250 1.414 . S
C1251 C1252 1.374 . S
C1252 H1226 0.951 . S
C1252 C1248 1.385 1_455 S
C1252 C1251 1.374 . S
C1253 C1250 1.499 . S
C1253 C1254 1.373 . S
C1253 C1255 1.389 . S
C1254 H1227 0.950 . S
C1254 C1240 1.377 . S
C1254 C1253 1.373 . S
C1255 C1239 1.377 . S
C1255 C1253 1.389 . S
C1255 C1256 1.524 . S
C1256 C1255 1.524 . S
C1256 C1257 1.397 . S
C1256 C1261 1.363 . S
C1257 H1228 0.950 . S
C1257 C1256 1.397 . S
C1257 C1258 1.334 . S
C1258 H1229 0.950 . S
C1258 C1257 1.334 . S
C1258 C1259 1.287 . S
C1259 C1258 1.287 . S
C1259 C1260 1.524 . S
C1259 H1262 0.999 . S
C1260 H1230 0.950 . S
C1260 C1259 1.524 . S
C1260 C1261 1.415 . S
C1261 H1231 0.950 . S
C1261 C1256 1.363 . S
C1261 C1260 1.415 . S
H1262 C1259 0.999 . S
H1263 C1244 0.913 . S
C283 N2 0.271 . S
C298 N167 0.269 . S
C333 N200 0.271 . S
C348 N35 0.267 . S
C383 N233 0.271 . S
C398 N68 0.267 . S
C433 N134 0.270 . S
C448 N101 0.267 . S
C483 N112 1.007 . S
C498 C21 0.996 . S
C533 C54 0.994 1_545 S
C548 N13 1.007 . S
C583 N46 1.007 . S
C598 C87 0.995 . S
C633 C120 0.994 1_565 S
C648 N79 1.007 . S
C683 N178 1.007 . S
C698 C153 0.994 1_455 S
C733 C186 0.996 . S
C748 N211 1.007 . S
C783 C219 0.994 1_655 S
C798 N244 1.006 . S
C833 C252 0.994 . S
C848 N145 1.006 . S
C883 C205 1.773 . S
C898 C18 1.828 . S
C933 C238 1.773 . S
C948 C51 1.828 . S
C983 C84 1.828 . S
C998 C139 1.773 . S
C1033 C117 1.828 . S
C1048 C172 1.773 . S
C1083 C150 1.828 . S
C1098 C73 1.773 . S
C1133 C106 1.774 . S
C1148 C183 1.828 . S
C1183 C216 1.828 . S
C1198 C7 1.773 . S
C1233 C40 1.774 . S
C1248 C249 1.828 . S
