# Generated by pormake.
# Topology uoj, (4)-cn, num edge types: 1
# Building blocks:
#     Node 0, Type 0, BuildingBlock: GALJAG_clean_sbu_0, # of connection points: 4
#     Node 1, Type 0, BuildingBlock: GALJAG_clean_sbu_0, # of connection points: 4
#     Node 2, Type 0, BuildingBlock: GALJAG_clean_sbu_0, # of connection points: 4
#     Node 3, Type 0, BuildingBlock: GALJAG_clean_sbu_0, # of connection points: 4
#     Node 4, Type 0, BuildingBlock: GALJAG_clean_sbu_0, # of connection points: 4
#     Node 5, Type 0, BuildingBlock: GALJAG_clean_sbu_0, # of connection points: 4
#     Node 6, Type 0, BuildingBlock: GALJAG_clean_sbu_0, # of connection points: 4
#     Node 7, Type 0, BuildingBlock: GALJAG_clean_sbu_0, # of connection points: 4
#     Edge 8, Type (0, 0), BuildingBlock: CIFDUS_clean_linker_0, # of connection points: 2
#     Edge 9, Type (0, 0), BuildingBlock: CIFDUS_clean_linker_0, # of connection points: 2
#     Edge 10, Type (0, 0), BuildingBlock: CIFDUS_clean_linker_0, # of connection points: 2
#     Edge 11, Type (0, 0), BuildingBlock: CIFDUS_clean_linker_0, # of connection points: 2
#     Edge 12, Type (0, 0), BuildingBlock: CIFDUS_clean_linker_0, # of connection points: 2
#     Edge 13, Type (0, 0), BuildingBlock: CIFDUS_clean_linker_0, # of connection points: 2
#     Edge 14, Type (0, 0), BuildingBlock: CIFDUS_clean_linker_0, # of connection points: 2
#     Edge 15, Type (0, 0), BuildingBlock: CIFDUS_clean_linker_0, # of connection points: 2
#     Edge 16, Type (0, 0), BuildingBlock: CIFDUS_clean_linker_0, # of connection points: 2
#     Edge 17, Type (0, 0), BuildingBlock: CIFDUS_clean_linker_0, # of connection points: 2
#     Edge 18, Type (0, 0), BuildingBlock: CIFDUS_clean_linker_0, # of connection points: 2
#     Edge 19, Type (0, 0), BuildingBlock: CIFDUS_clean_linker_0, # of connection points: 2
#     Edge 20, Type (0, 0), BuildingBlock: CIFDUS_clean_linker_0, # of connection points: 2
#     Edge 21, Type (0, 0), BuildingBlock: CIFDUS_clean_linker_0, # of connection points: 2
#     Edge 22, Type (0, 0), BuildingBlock: CIFDUS_clean_linker_0, # of connection points: 2
#     Edge 23, Type (0, 0), BuildingBlock: CIFDUS_clean_linker_0, # of connection points: 2
# Relax obj value: 0.030
# Max RMSD: 0.084
# Mean RMSD: 0.084
data_MOF--net-uoj--node1-GALJAG_clean_sbu_0--edge1-CIFDUS_clean_linker_0
_symmetry_space_group_name_H-M    P1
_symmetry_Int_Tables_number       1
_symmetry_cell_setting            triclinic
loop_
_symmetry_equiv_pos_as_xyz
'x, y, z'
_cell_length_a     29.744094
_cell_length_b     29.740556
_cell_length_c     31.197029
_cell_angle_alpha  90.13659
_cell_angle_beta   90.104094
_cell_angle_gamma 89.87529
loop_
_atom_site_label
_atom_site_type_symbol
_atom_site_fract_x
_atom_site_fract_y
_atom_site_fract_z
_atom_type_partial_charge
In0 In 0.06788 0.30475 0.46597 0.0
O1 O 0.001 0.27153 0.44801 0.0
O2 O 0.02213 0.2712 0.51347 0.0
C3 C 0.10264 0.33268 0.39087 0.0
C4 C 0.12613 0.24072 0.49107 0.0
C5 C 0.04405 0.38569 0.49649 0.0
O6 O 0.06884 0.30691 0.39245 0.0
O7 O 0.11874 0.34351 0.42687 0.0
O8 O 0.08172 0.36824 0.50568 0.0
O9 O 0.019 0.36202 0.47295 0.0
C10 C 0.99256 0.26026 0.48632 0.0
O11 O 0.11826 0.27496 0.5141 0.0
O12 O 0.10578 0.24006 0.45555 0.0
In13 In 0.29546 0.93079 0.54989 0.0
O14 O 0.26664 0.88006 0.50198 0.0
O15 O 0.22984 0.89355 0.55905 0.0
C16 C 0.3745 0.95319 0.51472 0.0
C17 C 0.25097 0.00687 0.53064 0.0
C18 C 0.3264 0.89646 0.6245 0.0
O19 O 0.35642 0.91544 0.5076 0.0
O20 O 0.35266 0.97903 0.53911 0.0
O21 O 0.30004 0.92992 0.62355 0.0
O22 O 0.33613 0.88042 0.58824 0.0
C23 C 0.2316 0.8728 0.52375 0.0
O24 O 0.26295 0.99821 0.56876 0.0
O25 O 0.26113 0.97716 0.50337 0.0
In26 In 0.92511 0.7087 0.44164 0.0
O27 O 0.99481 0.73906 0.42971 0.0
O28 O 0.96659 0.74383 0.49228 0.0
C29 C 0.90108 0.68575 0.36072 0.0
C30 C 0.86428 0.77082 0.46641 0.0
C31 C 0.94262 0.62764 0.47591 0.0
O32 O 0.93338 0.71206 0.36866 0.0
O33 O 0.88098 0.67136 0.39347 0.0
O34 O 0.90384 0.64505 0.47747 0.0
O35 O 0.97186 0.65099 0.45718 0.0
C36 C -0.00061 0.75233 0.46806 0.0
O37 O 0.87097 0.73519 0.48749 0.0
O38 O 0.88695 0.77394 0.43242 0.0
In39 In 0.69544 0.0758 0.54613 0.0
O40 O 0.72764 0.00704 0.55967 0.0
O41 O 0.73018 0.03358 0.49622 0.0
C42 C 0.66651 0.1055 0.62321 0.0
C43 C 0.75937 0.13529 0.52456 0.0
C44 C 0.61542 0.05566 0.51146 0.0
O45 O 0.69242 0.07185 0.6197 0.0
O46 O 0.65601 0.12388 0.58819 0.0
O47 O 0.63326 0.09385 0.50626 0.0
O48 O 0.6381 0.0283 0.53349 0.0
C49 C 0.74005 0.00166 0.52114 0.0
O50 O 0.72493 0.12909 0.50145 0.0
O51 O 0.76039 0.11268 0.55873 0.0
In52 In 0.43914 0.78426 0.93177 0.0
O53 O 0.49222 0.73433 0.90727 0.0
O54 O 0.50218 0.76455 0.96846 0.0
C55 C 0.40592 0.81789 0.85771 0.0
C56 C 0.38076 0.72176 0.96085 0.0
C57 C 0.45694 0.86501 0.96625 0.0
O58 O 0.44189 0.79514 0.85885 0.0
O59 O 0.38706 0.82314 0.89352 0.0
O60 O 0.42079 0.8443 0.97433 0.0
O61 O 0.48386 0.84455 0.94176 0.0
C62 C 0.51662 0.73773 0.94033 0.0
O63 O 0.39946 0.74943 0.98594 0.0
O64 O 0.39094 0.72655 0.92201 0.0
In65 In 0.79588 0.55559 0.05802 0.0
O66 O 0.76176 0.48763 0.06761 0.0
O67 O 0.77315 0.51046 0.0037 0.0
C68 C 0.80992 0.58377 0.13977 0.0
C69 C 0.73536 0.6145 0.0263 0.0
C70 C 0.88072 0.53732 0.03319 0.0
O71 O 0.78678 0.54932 0.13117 0.0
O72 O 0.82484 0.60398 0.1074 0.0
O73 O 0.86102 0.57338 0.02276 0.0
O74 O 0.85752 0.51074 0.05539 0.0
C75 C 0.75764 0.48011 0.0278 0.0
O76 O 0.77689 0.61818 0.0188 0.0
O77 O 0.72469 0.58211 0.0501 0.0
In78 In 0.56148 0.19656 0.9393 0.0
O79 O 0.60817 0.2246 0.99135 0.0
O80 O 0.60321 0.26012 0.93253 0.0
C81 C 0.54328 0.11408 0.97013 0.0
C82 C 0.48423 0.24066 0.95637 0.0
C83 C 0.59494 0.17038 0.86259 0.0
O84 O 0.58054 0.13324 0.97672 0.0
O85 O 0.51529 0.13682 0.94884 0.0
O86 O 0.56054 0.19528 0.86561 0.0
O87 O 0.61235 0.15952 0.89796 0.0
C88 C 0.62009 0.25827 0.9696 0.0
O89 O 0.49629 0.23189 0.91836 0.0
O90 O 0.51109 0.22727 0.98501 0.0
In91 In 0.21193 0.43424 0.08003 0.0
O92 O 0.2469 0.4993 0.10167 0.0
O93 O 0.2409 0.48563 0.03482 0.0
C94 C 0.18106 0.40196 0.15519 0.0
C95 C 0.27761 0.37641 0.05632 0.0
C96 C 0.13067 0.45085 0.04535 0.0
O97 O 0.20486 0.43712 0.15323 0.0
O98 O 0.17357 0.38328 0.11957 0.0
O99 O 0.15096 0.41393 0.03941 0.0
O100 O 0.15173 0.47913 0.06783 0.0
C101 C 0.25448 0.51214 0.0637 0.0
O102 O 0.24618 0.38738 0.0311 0.0
O103 O 0.27515 0.39389 0.09309 0.0
H104 H 0.20122 0.42801 0.23671 0.0
H105 H 0.11909 0.33555 0.1643 0.0
H106 H 0.08721 0.30604 0.23053 0.0
H107 H 0.08231 0.3066 0.3093 0.0
H108 H 0.16613 0.39755 0.38172 0.0
H109 H 0.19759 0.42738 0.31547 0.0
C110 C 0.17635 0.40142 0.23549 0.0
C111 C 0.16251 0.38409 0.19568 0.0
C112 C 0.1584 0.38426 0.27376 0.0
C113 C 0.13041 0.34945 0.19457 0.0
C114 C 0.11208 0.33256 0.23244 0.0
C115 C 0.10745 0.33293 0.31052 0.0
C116 C 0.12176 0.34986 0.35035 0.0
C117 C 0.12577 0.34973 0.27224 0.0
C118 C 0.15456 0.38385 0.35145 0.0
C119 C 0.17256 0.40101 0.31357 0.0
H120 H 0.30378 0.91697 0.70703 0.0
H121 H 0.39251 0.83368 0.63152 0.0
H122 H 0.42571 0.80272 0.69665 0.0
H123 H 0.42963 0.79894 0.77533 0.0
H124 H 0.33918 0.88015 0.85096 0.0
H125 H 0.3068 0.91218 0.78583 0.0
C126 C 0.33037 0.89205 0.7049 0.0
C127 C 0.34563 0.87772 0.66449 0.0
C128 C 0.34912 0.87397 0.74258 0.0
C129 C 0.38002 0.84525 0.66223 0.0
C130 C 0.39913 0.82754 0.69948 0.0
C131 C 0.40292 0.82372 0.77749 0.0
C132 C 0.38693 0.83719 0.81789 0.0
C133 C 0.38398 0.84162 0.73985 0.0
C134 C 0.35206 0.86912 0.82021 0.0
C135 C 0.33351 0.88751 0.78298 0.0
H136 H 0.83957 0.62274 0.33719 0.0
H137 H 0.9333 0.71877 0.28532 0.0
H138 H 0.91226 0.69653 0.21254 0.0
H139 H 0.86813 0.64917 0.16369 0.0
H140 H 0.77597 0.55142 0.21511 0.0
H141 H 0.79539 0.57505 0.28807 0.0
C142 C 0.8553 0.63888 0.30994 0.0
C143 C 0.88794 0.67242 0.31667 0.0
C144 C 0.84332 0.62561 0.26815 0.0
C145 C 0.90815 0.69285 0.28104 0.0
C146 C 0.89611 0.68017 0.23941 0.0
C147 C 0.85211 0.63314 0.19085 0.0
C148 C 0.82054 0.59866 0.18399 0.0
C149 C 0.86384 0.64652 0.2326 0.0
C150 C 0.80034 0.57805 0.21953 0.0
C151 C 0.81147 0.59154 0.26123 0.0
H152 H 0.57017 0.19585 0.78208 0.0
H153 H 0.661 0.10823 0.85044 0.0
H154 H 0.69102 0.07997 0.78274 0.0
H155 H 0.6914 0.07981 0.70377 0.0
H156 H 0.6019 0.16895 0.63558 0.0
H157 H 0.57162 0.1968 0.70325 0.0
C158 C 0.59654 0.17059 0.78211 0.0
C159 C 0.61324 0.15416 0.82123 0.0
C160 C 0.61396 0.15468 0.74301 0.0
C161 C 0.64757 0.12154 0.82076 0.0
C162 C 0.66475 0.10528 0.78204 0.0
C163 C 0.66527 0.10531 0.70378 0.0
C164 C 0.64892 0.12218 0.66469 0.0
C165 C 0.64819 0.12154 0.74293 0.0
C166 C 0.61518 0.1554 0.66523 0.0
C167 C 0.59776 0.17136 0.70393 0.0
H168 H 0.2336 0.08188 0.57928 0.0
H169 H 0.21648 0.0257 0.45251 0.0
H170 H 0.17873 0.09384 0.42897 0.0
H171 H 0.14914 0.16834 0.4441 0.0
H172 H 0.1648 0.22649 0.57 0.0
H173 H 0.20504 0.15895 0.59401 0.0
C174 C 0.22149 0.08465 0.54658 0.0
C175 C 0.22766 0.04866 0.51778 0.0
C176 C 0.19981 0.12432 0.533 0.0
C177 C 0.21211 0.05281 0.4754 0.0
C178 C 0.19054 0.09182 0.46181 0.0
C179 C 0.16157 0.16646 0.47677 0.0
C180 C 0.15396 0.20228 0.50524 0.0
C181 C 0.18411 0.12764 0.4903 0.0
C182 C 0.1704 0.19935 0.54741 0.0
C183 C 0.19318 0.16066 0.56119 0.0
H184 H 0.15399 0.85507 0.56511 0.0
H185 H 0.22371 0.83001 0.44628 0.0
H186 H 0.15784 0.79038 0.41811 0.0
H187 H 0.07926 0.76493 0.42673 0.0
H188 H 0.01072 0.79075 0.54618 0.0
H189 H 0.07719 0.82823 0.57445 0.0
C190 C 0.15495 0.84065 0.53315 0.0
C191 C 0.19362 0.84547 0.50782 0.0
C192 C 0.11699 0.81838 0.51712 0.0
C193 C 0.19432 0.82663 0.46646 0.0
C194 C 0.15662 0.80415 0.45028 0.0
C195 C 0.07896 0.77884 0.45889 0.0
C196 C 0.04006 0.77525 0.48422 0.0
C197 C 0.11755 0.80024 0.47518 0.0
C198 C 0.0402 0.79312 0.52597 0.0
C199 C 0.07822 0.81454 0.54223 0.0
H200 H 0.75286 0.92158 0.56246 0.0
H201 H 0.77978 0.99091 0.44384 0.0
H202 H 0.81827 0.92485 0.41584 0.0
H203 H 0.84582 0.8483 0.42518 0.0
H204 H 0.81964 0.77744 0.54296 0.0
H205 H 0.77879 0.84286 0.5709 0.0
C206 C 0.76727 0.92213 0.53056 0.0
C207 C 0.76368 0.96116 0.50538 0.0
C208 C 0.78919 0.8837 0.51436 0.0
C209 C 0.78212 0.96133 0.46393 0.0
C210 C 0.80412 0.92354 0.44781 0.0
C211 C 0.83088 0.84697 0.45686 0.0
C212 C 0.83577 0.80816 0.48198 0.0
C213 C 0.80795 0.88465 0.47274 0.0
C214 C 0.81619 0.80695 0.52293 0.0
C215 C 0.79306 0.84442 0.539 0.0
H216 H 0.8329 0.15511 0.57148 0.0
H217 H 0.77205 0.17817 0.44784 0.0
H218 H 0.83919 0.21895 0.42453 0.0
H219 H 0.91656 0.24579 0.43891 0.0
H220 H 0.97571 0.22225 0.56336 0.0
H221 H 0.90797 0.18364 0.58657 0.0
C222 C 0.83413 0.16932 0.5395 0.0
C223 C 0.79766 0.16359 0.5114 0.0
C224 C 0.87274 0.19229 0.52634 0.0
C225 C 0.79972 0.18229 0.47012 0.0
C226 C 0.83817 0.20538 0.45672 0.0
C227 C 0.91453 0.23209 0.47103 0.0
C228 C 0.95117 0.23665 0.49928 0.0
C229 C 0.87513 0.21014 0.48443 0.0
C230 C 0.94801 0.21914 0.54096 0.0
C231 C 0.90926 0.19708 0.55433 0.0
H232 H 0.26257 0.54907 0.98543 0.0
H233 H 0.29732 0.57098 0.11809 0.0
H234 H 0.33758 0.6399 0.0986 0.0
H235 H 0.3658 0.69201 0.0427 0.0
H236 H 0.33018 0.66781 0.91042 0.0
H237 H 0.28706 0.60197 0.93101 0.0
C238 C 0.27884 0.56893 0.01018 0.0
C239 C 0.27731 0.55479 0.05306 0.0
C240 C 0.30174 0.60819 0.99877 0.0
C241 C 0.29818 0.58114 0.08478 0.0
C242 C 0.3212 0.62049 0.07364 0.0
C243 C 0.34815 0.67255 0.01856 0.0
C244 C 0.35138 0.68468 0.97508 0.0
C245 C 0.32359 0.63414 0.0306 0.0
C246 C 0.32846 0.6591 0.94408 0.0
C247 C 0.30381 0.62135 0.95578 0.0
H248 H 0.66388 0.59104 0.97849 0.0
H249 H 0.73097 0.70536 0.03414 0.0
H250 H 0.66921 0.75466 0.01107 0.0
H251 H 0.59357 0.7637 0.97928 0.0
H252 H 0.53001 0.65054 0.91771 0.0
H253 H 0.59315 0.60206 0.93829 0.0
C254 C 0.66501 0.62688 0.98501 0.0
C255 C 0.70128 0.64482 0.0082 0.0
C256 C 0.63011 0.65494 0.97066 0.0
C257 C 0.70314 0.69115 0.01625 0.0
C258 C 0.66784 0.71917 0.00323 0.0
C259 C 0.59398 0.72854 0.96996 0.0
C260 C 0.55727 0.7104 0.94744 0.0
C261 C 0.63081 0.70126 0.98105 0.0
C262 C 0.55811 0.66506 0.93497 0.0
C263 C 0.59401 0.63737 0.94694 0.0
H264 H 0.72909 0.40614 0.07143 0.0
H265 H 0.73554 0.46371 0.94472 0.0
H266 H 0.69521 0.39931 0.91538 0.0
H267 H 0.65555 0.32818 0.92592 0.0
H268 H 0.64946 0.26938 0.05203 0.0
H269 H 0.6925 0.33245 0.08133 0.0
C270 C 0.72179 0.40443 0.03739 0.0
C271 C 0.73505 0.43977 0.01036 0.0
C272 C 0.69867 0.3671 0.02062 0.0
C273 C 0.72566 0.437 0.96626 0.0
C274 C 0.70254 0.40019 0.94942 0.0
C275 C 0.66388 0.32901 0.95978 0.0
C276 C 0.64917 0.29432 0.98681 0.0
C277 C 0.68853 0.36529 0.97634 0.0
C278 C 0.66044 0.29571 0.03055 0.0
C279 C 0.68491 0.33183 0.04735 0.0
H280 H 0.45446 0.26212 0.03548 0.0
H281 H 0.41958 0.27322 0.90166 0.0
H282 H 0.35089 0.31435 0.92069 0.0
H283 H 0.30196 0.34926 0.9758 0.0
H284 H 0.33933 0.33873 0.10917 0.0
H285 H 0.40561 0.29498 0.08986 0.0
C286 C 0.43181 0.27341 0.0104 0.0
C287 C 0.44216 0.26476 0.96722 0.0
C288 C 0.39275 0.2971 0.02155 0.0
C289 C 0.41241 0.27957 0.93516 0.0
C290 C 0.37313 0.30305 0.94603 0.0
C291 C 0.32445 0.33699 1.00056 0.0
C292 C 0.31575 0.34725 0.04385 0.0
C293 C 0.36308 0.31226 0.98917 0.0
C294 C 0.34531 0.33141 0.07562 0.0
C295 C 0.38328 0.30642 0.06463 0.0
H296 H 0.02397 0.5944 0.49779 0.0
H297 H 0.88393 0.55857 0.48742 0.0
H298 H 0.90293 0.47947 0.49926 0.0
H299 H 0.96043 0.42013 0.50204 0.0
H300 H 0.10044 0.45583 0.51282 0.0
H301 H 0.0804 0.53571 0.51229 0.0
C302 C 0.99759 0.56929 0.49889 0.0
C303 C 0.95276 0.5819 0.49103 0.0
C304 C 0.00881 0.52405 0.5056 0.0
C305 C 0.91869 0.54944 0.49321 0.0
C306 C 0.92957 0.50427 0.49976 0.0
C307 C 0.98642 0.44548 0.50525 0.0
C308 C 0.03183 0.43242 0.50685 0.0
C309 C 0.97465 0.4911 0.50445 0.0
C310 C 0.06527 0.46526 0.51155 0.0
C311 C 0.05383 0.51086 0.51086 0.0
H312 H 0.58182 0.97345 0.4946 0.0
H313 H 0.54573 0.11386 0.49969 0.0
H314 H 0.466 0.09416 0.49525 0.0
H315 H 0.40728 0.03648 0.5018 0.0
H316 H 0.44338 0.89609 0.49604 0.0
H317 H 0.52267 0.9162 0.48813 0.0
C318 C 0.55644 -0.00029 0.49371 0.0
C319 C 0.56925 0.04492 0.49815 0.0
C320 C 0.51089 0.98808 0.49148 0.0
C321 C 0.53644 0.07882 0.49637 0.0
C322 C 0.49093 0.06754 0.49419 0.0
C323 C 0.4325 0.01039 0.49786 0.0
C324 C 0.41995 0.96495 0.50021 0.0
C325 C 0.47783 0.02223 0.49355 0.0
C326 C 0.4525 0.9313 0.49443 0.0
C327 C 0.49778 0.94279 0.49021 0.0
H328 H 0.46253 0.07442 0.98232 0.0
H329 H 0.60512 0.04784 0.98207 0.0
H330 H 0.59078 0.96702 0.98592 0.0
H331 H 0.53754 0.90421 0.97922 0.0
H332 H 0.39498 0.93048 0.98178 0.0
H333 H 0.40932 0.01128 0.98792 0.0
C334 C 0.49039 0.05088 0.98397 0.0
C335 C 0.53476 0.06678 0.98127 0.0
C336 C 0.48187 0.00456 0.98629 0.0
C337 C 0.57069 0.03624 0.98403 0.0
C338 C 0.5625 0.99007 0.98595 0.0
C339 C 0.50969 0.92766 0.98206 0.0
C340 C 0.46533 0.91178 0.97949 0.0
C341 C 0.51823 0.97387 0.98559 0.0
C342 C 0.42941 0.94212 0.98371 0.0
C343 C 0.43761 0.98828 0.98688 0.0
H344 H 0.09118 0.5311 0.02982 0.0
H345 H 0.06524 0.38855 0.03194 0.0
H346 H 0.98455 0.40276 0.02421 0.0
H347 H 0.92121 0.45622 0.02611 0.0
H348 H 0.94725 0.59867 0.02126 0.0
H349 H 0.02827 0.58414 0.02021 0.0
C350 C 0.06785 0.50319 0.02774 0.0
C351 C 0.08382 0.45891 0.03198 0.0
C352 C 0.02166 0.51165 0.02318 0.0
C353 C 0.05357 0.42291 0.02873 0.0
C354 C 0.00747 0.43105 0.02462 0.0
C355 C 0.9447 0.48398 0.02405 0.0
C356 C 0.92856 0.52842 0.02437 0.0
C357 C 0.99109 0.47532 0.02323 0.0
C358 C 0.95906 0.56419 0.0211 0.0
C359 C 0.00532 0.55589 0.02076 0.0
loop_
_geom_bond_atom_site_label_1
_geom_bond_atom_site_label_2
_geom_bond_distance
_geom_bond_site_symmetry_2
_ccdc_geom_bond_type
In0 O1 2.294 1_455 S
In0 O2 2.326 . S
In0 O6 2.266 . S
In0 O7 2.326 . S
In0 O8 2.266 . S
In0 O9 2.326 . S
In0 O11 2.294 . S
In0 O12 2.326 . S
O1 In0 2.294 1_655 S
O1 C10 1.240 . S
O2 In0 2.326 . S
O2 C10 1.252 1_455 S
C3 O6 1.252 . S
C3 O7 1.260 . S
C4 O11 1.240 . S
C4 O12 1.252 . S
C5 O8 1.252 . S
C5 O9 1.260 . S
O6 In0 2.266 . S
O6 C3 1.252 . S
O7 In0 2.326 . S
O7 C3 1.260 . S
O8 In0 2.266 . S
O8 C5 1.252 . S
O9 In0 2.326 . S
O9 C5 1.260 . S
C10 O1 1.240 . S
C10 O2 1.252 1_655 S
O11 In0 2.294 . S
O11 C4 1.240 . S
O12 In0 2.326 . S
O12 C4 1.252 . S
In13 O14 2.294 . S
In13 O15 2.326 . S
In13 O19 2.266 . S
In13 O20 2.326 . S
In13 O21 2.266 . S
In13 O22 2.326 . S
In13 O24 2.294 1_565 S
In13 O25 2.326 . S
O14 In13 2.294 . S
O14 C23 1.240 . S
O15 In13 2.326 . S
O15 C23 1.252 . S
C16 O19 1.252 . S
C16 O20 1.260 . S
C17 O24 1.240 . S
C17 O25 1.252 1_545 S
C18 O21 1.252 . S
C18 O22 1.260 . S
O19 In13 2.266 . S
O19 C16 1.252 . S
O20 In13 2.326 . S
O20 C16 1.260 . S
O21 In13 2.266 . S
O21 C18 1.252 . S
O22 In13 2.326 . S
O22 C18 1.260 . S
C23 O14 1.240 . S
C23 O15 1.252 . S
O24 In13 2.294 1_545 S
O24 C17 1.240 . S
O25 In13 2.326 . S
O25 C17 1.252 1_565 S
In26 O27 2.294 1_655 S
In26 O28 2.326 . S
In26 O32 2.266 . S
In26 O33 2.326 . S
In26 O34 2.266 . S
In26 O35 2.326 . S
In26 O37 2.294 . S
In26 O38 2.326 . S
O27 In26 2.294 1_455 S
O27 C36 1.240 . S
O28 In26 2.326 . S
O28 C36 1.252 1_655 S
C29 O32 1.252 . S
C29 O33 1.260 . S
C30 O37 1.240 . S
C30 O38 1.252 . S
C31 O34 1.252 . S
C31 O35 1.260 . S
O32 In26 2.266 . S
O32 C29 1.252 . S
O33 In26 2.326 . S
O33 C29 1.260 . S
O34 In26 2.266 . S
O34 C31 1.252 . S
O35 In26 2.326 . S
O35 C31 1.260 . S
C36 O27 1.240 . S
C36 O28 1.252 1_455 S
O37 In26 2.294 . S
O37 C30 1.240 . S
O38 In26 2.326 . S
O38 C30 1.252 . S
In39 O40 2.294 1_545 S
In39 O41 2.326 . S
In39 O45 2.266 . S
In39 O46 2.326 . S
In39 O47 2.266 . S
In39 O48 2.326 . S
In39 O50 2.294 . S
In39 O51 2.326 . S
O40 In39 2.294 1_565 S
O40 C49 1.240 . S
O41 In39 2.326 . S
O41 C49 1.252 1_545 S
C42 O45 1.252 . S
C42 O46 1.260 . S
C43 O50 1.240 . S
C43 O51 1.252 . S
C44 O47 1.252 . S
C44 O48 1.260 . S
O45 In39 2.266 . S
O45 C42 1.252 . S
O46 In39 2.326 . S
O46 C42 1.260 . S
O47 In39 2.266 . S
O47 C44 1.252 . S
O48 In39 2.326 . S
O48 C44 1.260 . S
C49 O40 1.240 . S
C49 O41 1.252 1_565 S
O50 In39 2.294 . S
O50 C43 1.240 . S
O51 In39 2.326 . S
O51 C43 1.252 . S
In52 O53 2.294 . S
In52 O54 2.326 . S
In52 O58 2.266 . S
In52 O59 2.326 . S
In52 O60 2.266 . S
In52 O61 2.326 . S
In52 O63 2.294 . S
In52 O64 2.326 . S
O53 In52 2.294 . S
O53 C62 1.240 . S
O54 In52 2.326 . S
O54 C62 1.252 . S
C55 O58 1.252 . S
C55 O59 1.260 . S
C56 O63 1.240 . S
C56 O64 1.252 . S
C57 O60 1.252 . S
C57 O61 1.260 . S
O58 In52 2.266 . S
O58 C55 1.252 . S
O59 In52 2.326 . S
O59 C55 1.260 . S
O60 In52 2.266 . S
O60 C57 1.252 . S
O61 In52 2.326 . S
O61 C57 1.260 . S
C62 O53 1.240 . S
C62 O54 1.252 . S
O63 In52 2.294 . S
O63 C56 1.240 . S
O64 In52 2.326 . S
O64 C56 1.252 . S
In65 O66 2.294 . S
In65 O67 2.326 . S
In65 O71 2.266 . S
In65 O72 2.326 . S
In65 O73 2.266 . S
In65 O74 2.326 . S
In65 O76 2.294 . S
In65 O77 2.326 . S
O66 In65 2.294 . S
O66 C75 1.240 . S
O67 In65 2.326 . S
O67 C75 1.252 . S
C68 O71 1.252 . S
C68 O72 1.260 . S
C69 O76 1.240 . S
C69 O77 1.252 . S
C70 O73 1.252 . S
C70 O74 1.260 . S
O71 In65 2.266 . S
O71 C68 1.252 . S
O72 In65 2.326 . S
O72 C68 1.260 . S
O73 In65 2.266 . S
O73 C70 1.252 . S
O74 In65 2.326 . S
O74 C70 1.260 . S
C75 O66 1.240 . S
C75 O67 1.252 . S
O76 In65 2.294 . S
O76 C69 1.240 . S
O77 In65 2.326 . S
O77 C69 1.252 . S
In78 O79 2.294 . S
In78 O80 2.326 . S
In78 O84 2.266 . S
In78 O85 2.326 . S
In78 O86 2.266 . S
In78 O87 2.326 . S
In78 O89 2.294 . S
In78 O90 2.326 . S
O79 In78 2.294 . S
O79 C88 1.240 . S
O80 In78 2.326 . S
O80 C88 1.252 . S
C81 O84 1.252 . S
C81 O85 1.260 . S
C82 O89 1.240 . S
C82 O90 1.252 . S
C83 O86 1.252 . S
C83 O87 1.260 . S
O84 In78 2.266 . S
O84 C81 1.252 . S
O85 In78 2.326 . S
O85 C81 1.260 . S
O86 In78 2.266 . S
O86 C83 1.252 . S
O87 In78 2.326 . S
O87 C83 1.260 . S
C88 O79 1.240 . S
C88 O80 1.252 . S
O89 In78 2.294 . S
O89 C82 1.240 . S
O90 In78 2.326 . S
O90 C82 1.252 . S
In91 O92 2.294 . S
In91 O93 2.326 . S
In91 O97 2.266 . S
In91 O98 2.326 . S
In91 O99 2.266 . S
In91 O100 2.326 . S
In91 O102 2.294 . S
In91 O103 2.326 . S
O92 In91 2.294 . S
O92 C101 1.240 . S
O93 In91 2.326 . S
O93 C101 1.252 . S
C94 O97 1.252 . S
C94 O98 1.260 . S
C95 O102 1.240 . S
C95 O103 1.252 . S
C96 O99 1.252 . S
C96 O100 1.260 . S
O97 In91 2.266 . S
O97 C94 1.252 . S
O98 In91 2.326 . S
O98 C94 1.260 . S
O99 In91 2.266 . S
O99 C96 1.252 . S
O100 In91 2.326 . S
O100 C96 1.260 . S
C101 O92 1.240 . S
C101 O93 1.252 . S
O102 In91 2.294 . S
O102 C95 1.240 . S
O103 In91 2.326 . S
O103 C95 1.252 . S
H104 C110 0.930 . S
H105 C113 0.930 . S
H106 C114 0.930 . S
H107 C115 0.930 . S
H108 C118 0.930 . S
H109 C119 0.930 . S
C110 H104 0.930 . S
C110 C111 1.355 . S
C110 C112 1.415 . S
C111 C110 1.355 . S
C111 C113 1.419 . S
C112 C110 1.415 . S
C112 C117 1.425 . S
C112 C119 1.409 . S
C113 H105 0.930 . S
C113 C111 1.419 . S
C113 C114 1.362 . S
C114 H106 0.930 . S
C114 C113 1.362 . S
C114 C117 1.409 . S
C115 H107 0.930 . S
C115 C116 1.355 . S
C115 C117 1.415 . S
C116 C115 1.355 . S
C116 C118 1.419 . S
C117 C112 1.425 . S
C117 C114 1.409 . S
C117 C115 1.415 . S
C118 H108 0.930 . S
C118 C116 1.419 . S
C118 C119 1.362 . S
C119 H109 0.930 . S
C119 C112 1.409 . S
C119 C118 1.362 . S
H120 C126 0.930 . S
H121 C129 0.930 . S
H122 C130 0.930 . S
H123 C131 0.930 . S
H124 C134 0.930 . S
H125 C135 0.930 . S
C126 H120 0.930 . S
C126 C127 1.355 . S
C126 C128 1.415 . S
C127 C126 1.355 . S
C127 C129 1.419 . S
C128 C126 1.415 . S
C128 C133 1.425 . S
C128 C135 1.409 . S
C129 H121 0.930 . S
C129 C127 1.419 . S
C129 C130 1.362 . S
C130 H122 0.930 . S
C130 C129 1.362 . S
C130 C133 1.409 . S
C131 H123 0.930 . S
C131 C132 1.355 . S
C131 C133 1.415 . S
C132 C131 1.355 . S
C132 C134 1.419 . S
C133 C128 1.425 . S
C133 C130 1.409 . S
C133 C131 1.415 . S
C134 H124 0.930 . S
C134 C132 1.419 . S
C134 C135 1.362 . S
C135 H125 0.930 . S
C135 C128 1.409 . S
C135 C134 1.362 . S
H136 C142 0.930 . S
H137 C145 0.930 . S
H138 C146 0.930 . S
H139 C147 0.930 . S
H140 C150 0.930 . S
H141 C151 0.930 . S
C142 H136 0.930 . S
C142 C143 1.355 . S
C142 C144 1.415 . S
C143 C142 1.355 . S
C143 C145 1.419 . S
C144 C142 1.415 . S
C144 C149 1.425 . S
C144 C151 1.409 . S
C145 H137 0.930 . S
C145 C143 1.419 . S
C145 C146 1.362 . S
C146 H138 0.930 . S
C146 C145 1.362 . S
C146 C149 1.409 . S
C147 H139 0.930 . S
C147 C148 1.355 . S
C147 C149 1.415 . S
C148 C147 1.355 . S
C148 C150 1.419 . S
C149 C144 1.425 . S
C149 C146 1.409 . S
C149 C147 1.415 . S
C150 H140 0.930 . S
C150 C148 1.419 . S
C150 C151 1.362 . S
C151 H141 0.930 . S
C151 C144 1.409 . S
C151 C150 1.362 . S
H152 C158 0.930 . S
H153 C161 0.930 . S
H154 C162 0.930 . S
H155 C163 0.930 . S
H156 C166 0.930 . S
H157 C167 0.930 . S
C158 H152 0.930 . S
C158 C159 1.355 . S
C158 C160 1.415 . S
C159 C158 1.355 . S
C159 C161 1.419 . S
C160 C158 1.415 . S
C160 C165 1.425 . S
C160 C167 1.409 . S
C161 H153 0.930 . S
C161 C159 1.419 . S
C161 C162 1.362 . S
C162 H154 0.930 . S
C162 C161 1.362 . S
C162 C165 1.409 . S
C163 H155 0.930 . S
C163 C164 1.355 . S
C163 C165 1.415 . S
C164 C163 1.355 . S
C164 C166 1.419 . S
C165 C160 1.425 . S
C165 C162 1.409 . S
C165 C163 1.415 . S
C166 H156 0.930 . S
C166 C164 1.419 . S
C166 C167 1.362 . S
C167 H157 0.930 . S
C167 C160 1.409 . S
C167 C166 1.362 . S
H168 C174 0.930 . S
H169 C177 0.930 . S
H170 C178 0.930 . S
H171 C179 0.930 . S
H172 C182 0.930 . S
H173 C183 0.930 . S
C174 H168 0.930 . S
C174 C175 1.355 . S
C174 C176 1.415 . S
C175 C174 1.355 . S
C175 C177 1.419 . S
C176 C174 1.415 . S
C176 C181 1.425 . S
C176 C183 1.409 . S
C177 H169 0.930 . S
C177 C175 1.419 . S
C177 C178 1.362 . S
C178 H170 0.930 . S
C178 C177 1.362 . S
C178 C181 1.409 . S
C179 H171 0.930 . S
C179 C180 1.355 . S
C179 C181 1.415 . S
C180 C179 1.355 . S
C180 C182 1.419 . S
C181 C176 1.425 . S
C181 C178 1.409 . S
C181 C179 1.415 . S
C182 H172 0.930 . S
C182 C180 1.419 . S
C182 C183 1.362 . S
C183 H173 0.930 . S
C183 C176 1.409 . S
C183 C182 1.362 . S
H184 C190 0.930 . S
H185 C193 0.930 . S
H186 C194 0.930 . S
H187 C195 0.930 . S
H188 C198 0.930 . S
H189 C199 0.930 . S
C190 H184 0.930 . S
C190 C191 1.355 . S
C190 C192 1.415 . S
C191 C190 1.355 . S
C191 C193 1.419 . S
C192 C190 1.415 . S
C192 C197 1.425 . S
C192 C199 1.409 . S
C193 H185 0.930 . S
C193 C191 1.419 . S
C193 C194 1.362 . S
C194 H186 0.930 . S
C194 C193 1.362 . S
C194 C197 1.409 . S
C195 H187 0.930 . S
C195 C196 1.355 . S
C195 C197 1.415 . S
C196 C195 1.355 . S
C196 C198 1.419 . S
C197 C192 1.425 . S
C197 C194 1.409 . S
C197 C195 1.415 . S
C198 H188 0.930 . S
C198 C196 1.419 . S
C198 C199 1.362 . S
C199 H189 0.930 . S
C199 C192 1.409 . S
C199 C198 1.362 . S
H200 C206 0.930 . S
H201 C209 0.930 . S
H202 C210 0.930 . S
H203 C211 0.930 . S
H204 C214 0.930 . S
H205 C215 0.930 . S
C206 H200 0.930 . S
C206 C207 1.355 . S
C206 C208 1.415 . S
C207 C206 1.355 . S
C207 C209 1.419 . S
C208 C206 1.415 . S
C208 C213 1.425 . S
C208 C215 1.409 . S
C209 H201 0.930 . S
C209 C207 1.419 . S
C209 C210 1.362 . S
C210 H202 0.930 . S
C210 C209 1.362 . S
C210 C213 1.409 . S
C211 H203 0.930 . S
C211 C212 1.355 . S
C211 C213 1.415 . S
C212 C211 1.355 . S
C212 C214 1.419 . S
C213 C208 1.425 . S
C213 C210 1.409 . S
C213 C211 1.415 . S
C214 H204 0.930 . S
C214 C212 1.419 . S
C214 C215 1.362 . S
C215 H205 0.930 . S
C215 C208 1.409 . S
C215 C214 1.362 . S
H216 C222 0.930 . S
H217 C225 0.930 . S
H218 C226 0.930 . S
H219 C227 0.930 . S
H220 C230 0.930 . S
H221 C231 0.930 . S
C222 H216 0.930 . S
C222 C223 1.355 . S
C222 C224 1.415 . S
C223 C222 1.355 . S
C223 C225 1.419 . S
C224 C222 1.415 . S
C224 C229 1.425 . S
C224 C231 1.409 . S
C225 H217 0.930 . S
C225 C223 1.419 . S
C225 C226 1.362 . S
C226 H218 0.930 . S
C226 C225 1.362 . S
C226 C229 1.409 . S
C227 H219 0.930 . S
C227 C228 1.355 . S
C227 C229 1.415 . S
C228 C227 1.355 . S
C228 C230 1.419 . S
C229 C224 1.425 . S
C229 C226 1.409 . S
C229 C227 1.415 . S
C230 H220 0.930 . S
C230 C228 1.419 . S
C230 C231 1.362 . S
C231 H221 0.930 . S
C231 C224 1.409 . S
C231 C230 1.362 . S
H232 C238 0.930 . S
H233 C241 0.930 . S
H234 C242 0.930 . S
H235 C243 0.930 . S
H236 C246 0.930 . S
H237 C247 0.930 . S
C238 H232 0.930 . S
C238 C239 1.355 1_556 S
C238 C240 1.415 . S
C239 C238 1.355 1_554 S
C239 C241 1.419 . S
C240 C238 1.415 . S
C240 C245 1.425 1_556 S
C240 C247 1.409 . S
C241 H233 0.930 . S
C241 C239 1.419 . S
C241 C242 1.362 . S
C242 H234 0.930 . S
C242 C241 1.362 . S
C242 C245 1.409 . S
C243 H235 0.930 . S
C243 C244 1.355 1_554 S
C243 C245 1.415 . S
C244 C243 1.355 1_556 S
C244 C246 1.419 . S
C245 C240 1.425 1_554 S
C245 C242 1.409 . S
C245 C243 1.415 . S
C246 H236 0.930 . S
C246 C244 1.419 . S
C246 C247 1.362 . S
C247 H237 0.930 . S
C247 C240 1.409 . S
C247 C246 1.362 . S
H248 C254 0.930 . S
H249 C257 0.930 . S
H250 C258 0.930 . S
H251 C259 0.930 . S
H252 C262 0.930 . S
H253 C263 0.930 . S
C254 H248 0.930 . S
C254 C255 1.355 . S
C254 C256 1.415 1_554 S
C255 C254 1.355 . S
C255 C257 1.419 . S
C256 C254 1.415 1_556 S
C256 C261 1.425 . S
C256 C263 1.409 . S
C257 H249 0.930 . S
C257 C255 1.419 . S
C257 C258 1.362 . S
C258 H250 0.930 . S
C258 C257 1.362 . S
C258 C261 1.409 1_554 S
C259 H251 0.930 . S
C259 C260 1.355 . S
C259 C261 1.415 . S
C260 C259 1.355 . S
C260 C262 1.419 . S
C261 C256 1.425 . S
C261 C258 1.409 1_556 S
C261 C259 1.415 . S
C262 H252 0.930 . S
C262 C260 1.419 . S
C262 C263 1.362 . S
C263 H253 0.930 . S
C263 C256 1.409 . S
C263 C262 1.362 . S
H264 C270 0.930 . S
H265 C273 0.930 . S
H266 C274 0.930 . S
H267 C275 0.930 . S
H268 C278 0.930 . S
H269 C279 0.930 . S
C270 H264 0.930 . S
C270 C271 1.355 . S
C270 C272 1.415 . S
C271 C270 1.355 . S
C271 C273 1.419 1_554 S
C272 C270 1.415 . S
C272 C277 1.425 1_554 S
C272 C279 1.409 . S
C273 H265 0.930 . S
C273 C271 1.419 1_556 S
C273 C274 1.362 . S
C274 H266 0.930 . S
C274 C273 1.362 . S
C274 C277 1.409 . S
C275 H267 0.930 . S
C275 C276 1.355 . S
C275 C277 1.415 . S
C276 C275 1.355 . S
C276 C278 1.419 1_556 S
C277 C272 1.425 1_556 S
C277 C274 1.409 . S
C277 C275 1.415 . S
C278 H268 0.930 . S
C278 C276 1.419 1_554 S
C278 C279 1.362 . S
C279 H269 0.930 . S
C279 C272 1.409 . S
C279 C278 1.362 . S
H280 C286 0.930 . S
H281 C289 0.930 . S
H282 C290 0.930 . S
H283 C291 0.930 . S
H284 C294 0.930 . S
H285 C295 0.930 . S
C286 H280 0.930 . S
C286 C287 1.355 1_554 S
C286 C288 1.415 . S
C287 C286 1.355 1_556 S
C287 C289 1.419 . S
C288 C286 1.415 . S
C288 C293 1.425 1_554 S
C288 C295 1.409 . S
C289 H281 0.930 . S
C289 C287 1.419 . S
C289 C290 1.362 . S
C290 H282 0.930 . S
C290 C289 1.362 . S
C290 C293 1.409 . S
C291 H283 0.930 . S
C291 C292 1.355 1_556 S
C291 C293 1.415 . S
C292 C291 1.355 1_554 S
C292 C294 1.419 . S
C293 C288 1.425 1_556 S
C293 C290 1.409 . S
C293 C291 1.415 . S
C294 H284 0.930 . S
C294 C292 1.419 . S
C294 C295 1.362 . S
C295 H285 0.930 . S
C295 C288 1.409 . S
C295 C294 1.362 . S
H296 C302 0.930 1_455 S
H297 C305 0.930 . S
H298 C306 0.930 . S
H299 C307 0.930 1_655 S
H300 C310 0.930 . S
H301 C311 0.930 . S
C302 H296 0.930 1_655 S
C302 C303 1.355 . S
C302 C304 1.415 1_655 S
C303 C302 1.355 . S
C303 C305 1.419 . S
C304 C302 1.415 1_455 S
C304 C309 1.425 1_455 S
C304 C311 1.409 . S
C305 H297 0.930 . S
C305 C303 1.419 . S
C305 C306 1.362 . S
C306 H298 0.930 . S
C306 C305 1.362 . S
C306 C309 1.409 . S
C307 H299 0.930 1_455 S
C307 C308 1.355 . S
C307 C309 1.415 1_455 S
C308 C307 1.355 . S
C308 C310 1.419 . S
C309 C304 1.425 1_655 S
C309 C306 1.409 . S
C309 C307 1.415 1_655 S
C310 H300 0.930 . S
C310 C308 1.419 . S
C310 C311 1.362 . S
C311 H301 0.930 . S
C311 C304 1.409 . S
C311 C310 1.362 . S
H312 C318 0.930 . S
H313 C321 0.930 . S
H314 C322 0.930 . S
H315 C323 0.930 . S
H316 C326 0.930 . S
H317 C327 0.930 . S
C318 H312 0.930 . S
C318 C319 1.355 . S
C318 C320 1.415 1_545 S
C319 C318 1.355 . S
C319 C321 1.419 . S
C320 C318 1.415 1_565 S
C320 C325 1.425 1_565 S
C320 C327 1.409 . S
C321 H313 0.930 . S
C321 C319 1.419 . S
C321 C322 1.362 . S
C322 H314 0.930 . S
C322 C321 1.362 . S
C322 C325 1.409 . S
C323 H315 0.930 . S
C323 C324 1.355 . S
C323 C325 1.415 1_565 S
C324 C323 1.355 . S
C324 C326 1.419 . S
C325 C320 1.425 1_545 S
C325 C322 1.409 . S
C325 C323 1.415 1_545 S
C326 H316 0.930 . S
C326 C324 1.419 . S
C326 C327 1.362 . S
C327 H317 0.930 . S
C327 C320 1.409 . S
C327 C326 1.362 . S
H328 C334 0.930 . S
H329 C337 0.930 . S
H330 C338 0.930 1_565 S
H331 C339 0.930 . S
H332 C342 0.930 . S
H333 C343 0.930 1_545 S
C334 H328 0.930 . S
C334 C335 1.355 . S
C334 C336 1.415 . S
C335 C334 1.355 . S
C335 C337 1.419 . S
C336 C334 1.415 . S
C336 C341 1.425 1_545 S
C336 C343 1.409 1_545 S
C337 H329 0.930 . S
C337 C335 1.419 . S
C337 C338 1.362 . S
C338 H330 0.930 1_545 S
C338 C337 1.362 . S
C338 C341 1.409 1_545 S
C339 H331 0.930 . S
C339 C340 1.355 . S
C339 C341 1.415 . S
C340 C339 1.355 . S
C340 C342 1.419 . S
C341 C336 1.425 1_565 S
C341 C338 1.409 1_565 S
C341 C339 1.415 . S
C342 H332 0.930 . S
C342 C340 1.419 . S
C342 C343 1.362 . S
C343 H333 0.930 1_565 S
C343 C336 1.409 1_565 S
C343 C342 1.362 . S
H344 C350 0.930 1_556 S
H345 C353 0.930 . S
H346 C354 0.930 1_655 S
H347 C355 0.930 . S
H348 C358 0.930 1_556 S
H349 C359 0.930 1_455 S
C350 H344 0.930 1_554 S
C350 C351 1.355 . S
C350 C352 1.415 . S
C351 C350 1.355 . S
C351 C353 1.419 . S
C352 C350 1.415 . S
C352 C357 1.425 1_455 S
C352 C359 1.409 1_454 S
C353 H345 0.930 . S
C353 C351 1.419 . S
C353 C354 1.362 . S
C354 H346 0.930 1_455 S
C354 C353 1.362 . S
C354 C357 1.409 1_455 S
C355 H347 0.930 . S
C355 C356 1.355 . S
C355 C357 1.415 . S
C356 C355 1.355 . S
C356 C358 1.419 . S
C357 C352 1.425 1_655 S
C357 C354 1.409 1_655 S
C357 C355 1.415 . S
C358 H348 0.930 1_554 S
C358 C356 1.419 . S
C358 C359 1.362 1_554 S
C359 H349 0.930 1_655 S
C359 C352 1.409 1_656 S
C359 C358 1.362 1_556 S
C111 C94 1.498 . S
C116 C3 1.503 . S
C127 C18 1.498 . S
C132 C55 1.508 . S
C143 C29 1.505 . S
C148 C68 1.509 . S
C159 C83 1.498 . S
C164 C42 1.507 . S
C175 C17 1.457 . S
C180 C4 1.434 . S
C191 C23 1.457 . S
C196 C36 1.455 . S
C207 C49 1.457 . S
C212 C30 1.460 . S
C223 C43 1.457 . S
C228 C10 1.461 . S
C239 C101 1.453 . S
C244 C56 1.450 . S
C255 C69 1.461 . S
C260 C62 1.457 . S
C271 C75 1.456 . S
C276 C88 1.431 . S
C287 C82 1.453 . S
C292 C95 1.425 . S
C303 C31 1.195 . S
C308 C5 1.231 . S
C319 C44 1.208 . S
C324 C16 1.235 . S
C335 C81 1.227 . S
C340 C57 1.227 . S
C351 C96 1.199 . S
C356 C70 1.233 . S
