# Generated by pormake.
# Topology ums, (4)-cn, num edge types: 1
# Building blocks:
#     Node 0, Type 0, BuildingBlock: QUQFOY_clean_sbu_1, # of connection points: 4
#     Node 1, Type 0, BuildingBlock: QUQFOY_clean_sbu_1, # of connection points: 4
#     Node 2, Type 0, BuildingBlock: QUQFOY_clean_sbu_1, # of connection points: 4
#     Node 3, Type 0, BuildingBlock: QUQFOY_clean_sbu_1, # of connection points: 4
#     Node 4, Type 0, BuildingBlock: QUQFOY_clean_sbu_1, # of connection points: 4
#     Node 5, Type 0, BuildingBlock: QUQFOY_clean_sbu_1, # of connection points: 4
#     Node 6, Type 0, BuildingBlock: QUQFOY_clean_sbu_1, # of connection points: 4
#     Node 7, Type 0, BuildingBlock: QUQFOY_clean_sbu_1, # of connection points: 4
#     Node 8, Type 0, BuildingBlock: QUQFOY_clean_sbu_1, # of connection points: 4
#     Node 9, Type 0, BuildingBlock: QUQFOY_clean_sbu_1, # of connection points: 4
#     Node 10, Type 0, BuildingBlock: QUQFOY_clean_sbu_1, # of connection points: 4
#     Node 11, Type 0, BuildingBlock: QUQFOY_clean_sbu_1, # of connection points: 4
#     Node 12, Type 0, BuildingBlock: QUQFOY_clean_sbu_1, # of connection points: 4
#     Node 13, Type 0, BuildingBlock: QUQFOY_clean_sbu_1, # of connection points: 4
#     Node 14, Type 0, BuildingBlock: QUQFOY_clean_sbu_1, # of connection points: 4
#     Node 15, Type 0, BuildingBlock: QUQFOY_clean_sbu_1, # of connection points: 4
#     Node 16, Type 0, BuildingBlock: QUQFOY_clean_sbu_1, # of connection points: 4
#     Node 17, Type 0, BuildingBlock: QUQFOY_clean_sbu_1, # of connection points: 4
#     Node 18, Type 0, BuildingBlock: QUQFOY_clean_sbu_1, # of connection points: 4
#     Node 19, Type 0, BuildingBlock: QUQFOY_clean_sbu_1, # of connection points: 4
#     Node 20, Type 0, BuildingBlock: QUQFOY_clean_sbu_1, # of connection points: 4
#     Node 21, Type 0, BuildingBlock: QUQFOY_clean_sbu_1, # of connection points: 4
#     Node 22, Type 0, BuildingBlock: QUQFOY_clean_sbu_1, # of connection points: 4
#     Node 23, Type 0, BuildingBlock: QUQFOY_clean_sbu_1, # of connection points: 4
#     Node 24, Type 0, BuildingBlock: QUQFOY_clean_sbu_1, # of connection points: 4
#     Node 25, Type 0, BuildingBlock: QUQFOY_clean_sbu_1, # of connection points: 4
#     Node 26, Type 0, BuildingBlock: QUQFOY_clean_sbu_1, # of connection points: 4
#     Node 27, Type 0, BuildingBlock: QUQFOY_clean_sbu_1, # of connection points: 4
#     Node 28, Type 0, BuildingBlock: QUQFOY_clean_sbu_1, # of connection points: 4
#     Node 29, Type 0, BuildingBlock: QUQFOY_clean_sbu_1, # of connection points: 4
#     Node 30, Type 0, BuildingBlock: QUQFOY_clean_sbu_1, # of connection points: 4
#     Node 31, Type 0, BuildingBlock: QUQFOY_clean_sbu_1, # of connection points: 4
#     Node 32, Type 0, BuildingBlock: QUQFOY_clean_sbu_1, # of connection points: 4
#     Node 33, Type 0, BuildingBlock: QUQFOY_clean_sbu_1, # of connection points: 4
#     Node 34, Type 0, BuildingBlock: QUQFOY_clean_sbu_1, # of connection points: 4
#     Node 35, Type 0, BuildingBlock: QUQFOY_clean_sbu_1, # of connection points: 4
#     Edge 36, Type (0, 0), BuildingBlock: KIFKEQ_clean_linker_1, # of connection points: 2
#     Edge 37, Type (0, 0), BuildingBlock: KIFKEQ_clean_linker_1, # of connection points: 2
#     Edge 38, Type (0, 0), BuildingBlock: KIFKEQ_clean_linker_1, # of connection points: 2
#     Edge 39, Type (0, 0), BuildingBlock: KIFKEQ_clean_linker_1, # of connection points: 2
#     Edge 40, Type (0, 0), BuildingBlock: KIFKEQ_clean_linker_1, # of connection points: 2
#     Edge 41, Type (0, 0), BuildingBlock: KIFKEQ_clean_linker_1, # of connection points: 2
#     Edge 42, Type (0, 0), BuildingBlock: KIFKEQ_clean_linker_1, # of connection points: 2
#     Edge 43, Type (0, 0), BuildingBlock: KIFKEQ_clean_linker_1, # of connection points: 2
#     Edge 44, Type (0, 0), BuildingBlock: KIFKEQ_clean_linker_1, # of connection points: 2
#     Edge 45, Type (0, 0), BuildingBlock: KIFKEQ_clean_linker_1, # of connection points: 2
#     Edge 46, Type (0, 0), BuildingBlock: KIFKEQ_clean_linker_1, # of connection points: 2
#     Edge 47, Type (0, 0), BuildingBlock: KIFKEQ_clean_linker_1, # of connection points: 2
#     Edge 48, Type (0, 0), BuildingBlock: KIFKEQ_clean_linker_1, # of connection points: 2
#     Edge 49, Type (0, 0), BuildingBlock: KIFKEQ_clean_linker_1, # of connection points: 2
#     Edge 50, Type (0, 0), BuildingBlock: KIFKEQ_clean_linker_1, # of connection points: 2
#     Edge 51, Type (0, 0), BuildingBlock: KIFKEQ_clean_linker_1, # of connection points: 2
#     Edge 52, Type (0, 0), BuildingBlock: KIFKEQ_clean_linker_1, # of connection points: 2
#     Edge 53, Type (0, 0), BuildingBlock: KIFKEQ_clean_linker_1, # of connection points: 2
#     Edge 54, Type (0, 0), BuildingBlock: KIFKEQ_clean_linker_1, # of connection points: 2
#     Edge 55, Type (0, 0), BuildingBlock: KIFKEQ_clean_linker_1, # of connection points: 2
#     Edge 56, Type (0, 0), BuildingBlock: KIFKEQ_clean_linker_1, # of connection points: 2
#     Edge 57, Type (0, 0), BuildingBlock: KIFKEQ_clean_linker_1, # of connection points: 2
#     Edge 58, Type (0, 0), BuildingBlock: KIFKEQ_clean_linker_1, # of connection points: 2
#     Edge 59, Type (0, 0), BuildingBlock: KIFKEQ_clean_linker_1, # of connection points: 2
#     Edge 60, Type (0, 0), BuildingBlock: KIFKEQ_clean_linker_1, # of connection points: 2
#     Edge 61, Type (0, 0), BuildingBlock: KIFKEQ_clean_linker_1, # of connection points: 2
#     Edge 62, Type (0, 0), BuildingBlock: KIFKEQ_clean_linker_1, # of connection points: 2
#     Edge 63, Type (0, 0), BuildingBlock: KIFKEQ_clean_linker_1, # of connection points: 2
#     Edge 64, Type (0, 0), BuildingBlock: KIFKEQ_clean_linker_1, # of connection points: 2
#     Edge 65, Type (0, 0), BuildingBlock: KIFKEQ_clean_linker_1, # of connection points: 2
#     Edge 66, Type (0, 0), BuildingBlock: KIFKEQ_clean_linker_1, # of connection points: 2
#     Edge 67, Type (0, 0), BuildingBlock: KIFKEQ_clean_linker_1, # of connection points: 2
#     Edge 68, Type (0, 0), BuildingBlock: KIFKEQ_clean_linker_1, # of connection points: 2
#     Edge 69, Type (0, 0), BuildingBlock: KIFKEQ_clean_linker_1, # of connection points: 2
#     Edge 70, Type (0, 0), BuildingBlock: KIFKEQ_clean_linker_1, # of connection points: 2
#     Edge 71, Type (0, 0), BuildingBlock: KIFKEQ_clean_linker_1, # of connection points: 2
#     Edge 72, Type (0, 0), BuildingBlock: KIFKEQ_clean_linker_1, # of connection points: 2
#     Edge 73, Type (0, 0), BuildingBlock: KIFKEQ_clean_linker_1, # of connection points: 2
#     Edge 74, Type (0, 0), BuildingBlock: KIFKEQ_clean_linker_1, # of connection points: 2
#     Edge 75, Type (0, 0), BuildingBlock: KIFKEQ_clean_linker_1, # of connection points: 2
#     Edge 76, Type (0, 0), BuildingBlock: KIFKEQ_clean_linker_1, # of connection points: 2
#     Edge 77, Type (0, 0), BuildingBlock: KIFKEQ_clean_linker_1, # of connection points: 2
#     Edge 78, Type (0, 0), BuildingBlock: KIFKEQ_clean_linker_1, # of connection points: 2
#     Edge 79, Type (0, 0), BuildingBlock: KIFKEQ_clean_linker_1, # of connection points: 2
#     Edge 80, Type (0, 0), BuildingBlock: KIFKEQ_clean_linker_1, # of connection points: 2
#     Edge 81, Type (0, 0), BuildingBlock: KIFKEQ_clean_linker_1, # of connection points: 2
#     Edge 82, Type (0, 0), BuildingBlock: KIFKEQ_clean_linker_1, # of connection points: 2
#     Edge 83, Type (0, 0), BuildingBlock: KIFKEQ_clean_linker_1, # of connection points: 2
#     Edge 84, Type (0, 0), BuildingBlock: KIFKEQ_clean_linker_1, # of connection points: 2
#     Edge 85, Type (0, 0), BuildingBlock: KIFKEQ_clean_linker_1, # of connection points: 2
#     Edge 86, Type (0, 0), BuildingBlock: KIFKEQ_clean_linker_1, # of connection points: 2
#     Edge 87, Type (0, 0), BuildingBlock: KIFKEQ_clean_linker_1, # of connection points: 2
#     Edge 88, Type (0, 0), BuildingBlock: KIFKEQ_clean_linker_1, # of connection points: 2
#     Edge 89, Type (0, 0), BuildingBlock: KIFKEQ_clean_linker_1, # of connection points: 2
#     Edge 90, Type (0, 0), BuildingBlock: KIFKEQ_clean_linker_1, # of connection points: 2
#     Edge 91, Type (0, 0), BuildingBlock: KIFKEQ_clean_linker_1, # of connection points: 2
#     Edge 92, Type (0, 0), BuildingBlock: KIFKEQ_clean_linker_1, # of connection points: 2
#     Edge 93, Type (0, 0), BuildingBlock: KIFKEQ_clean_linker_1, # of connection points: 2
#     Edge 94, Type (0, 0), BuildingBlock: KIFKEQ_clean_linker_1, # of connection points: 2
#     Edge 95, Type (0, 0), BuildingBlock: KIFKEQ_clean_linker_1, # of connection points: 2
#     Edge 96, Type (0, 0), BuildingBlock: KIFKEQ_clean_linker_1, # of connection points: 2
#     Edge 97, Type (0, 0), BuildingBlock: KIFKEQ_clean_linker_1, # of connection points: 2
#     Edge 98, Type (0, 0), BuildingBlock: KIFKEQ_clean_linker_1, # of connection points: 2
#     Edge 99, Type (0, 0), BuildingBlock: KIFKEQ_clean_linker_1, # of connection points: 2
#     Edge 100, Type (0, 0), BuildingBlock: KIFKEQ_clean_linker_1, # of connection points: 2
#     Edge 101, Type (0, 0), BuildingBlock: KIFKEQ_clean_linker_1, # of connection points: 2
#     Edge 102, Type (0, 0), BuildingBlock: KIFKEQ_clean_linker_1, # of connection points: 2
#     Edge 103, Type (0, 0), BuildingBlock: KIFKEQ_clean_linker_1, # of connection points: 2
#     Edge 104, Type (0, 0), BuildingBlock: KIFKEQ_clean_linker_1, # of connection points: 2
#     Edge 105, Type (0, 0), BuildingBlock: KIFKEQ_clean_linker_1, # of connection points: 2
#     Edge 106, Type (0, 0), BuildingBlock: KIFKEQ_clean_linker_1, # of connection points: 2
#     Edge 107, Type (0, 0), BuildingBlock: KIFKEQ_clean_linker_1, # of connection points: 2
# Relax obj value: 0.177
# Max RMSD: 0.144
# Mean RMSD: 0.144
data_MOF--net-ums--node1-QUQFOY_clean_sbu_1--edge1-KIFKEQ_clean_linker_1
_symmetry_space_group_name_H-M    P1
_symmetry_Int_Tables_number       1
_symmetry_cell_setting            triclinic
loop_
_symmetry_equiv_pos_as_xyz
'x, y, z'
_cell_length_a     109.28626
_cell_length_b     109.30161
_cell_length_c     24.101133
_cell_angle_alpha  89.9994
_cell_angle_beta   90.002217
_cell_angle_gamma 120.02677
loop_
_atom_site_label
_atom_site_type_symbol
_atom_site_fract_x
_atom_site_fract_y
_atom_site_fract_z
_atom_type_partial_charge
O0 O 0.19844 0.27338 0.10247 0.0
Cd1 Cd 0.18262 0.25304 0.12071 0.0
Cd2 Cd 0.17495 0.26578 0.19489 0.0
O3 O 0.19484 0.28261 0.17769 0.0
O4 O 0.18927 0.23925 0.10746 0.0
O5 O 0.18469 0.24449 0.19101 0.0
C6 C 0.18904 0.23766 0.16067 0.0
C7 C 0.16597 0.26221 0.28528 0.0
C8 C 0.202 0.28393 0.13423 0.0
C9 C 0.15611 0.25267 0.09502 0.0
O10 O 0.15967 0.26119 0.13562 0.0
O11 O 0.16326 0.24672 0.08364 0.0
O12 O 0.16852 0.27321 0.25696 0.0
O13 O 0.16908 0.25335 0.26329 0.0
O14 O 0.72975 0.92532 0.10676 0.0
Cd15 Cd 0.75034 0.93012 0.1212 0.0
Cd16 Cd 0.73831 0.90942 0.19515 0.0
O17 O 0.72098 0.91183 0.18067 0.0
O18 O 0.76328 0.95067 0.10682 0.0
O19 O 0.76002 0.94089 0.19007 0.0
C20 C 0.76591 0.95211 0.15945 0.0
C21 C 0.74249 0.90399 0.28458 0.0
C22 C 0.71935 0.91792 0.13867 0.0
C23 C 0.75116 0.90438 0.0924 0.0
O24 O 0.74307 0.89924 0.13419 0.0
O25 O 0.75663 0.91744 0.08088 0.0
O26 O 0.7315 0.89536 0.25658 0.0
O27 O 0.75101 0.91612 0.2628 0.0
O28 O 0.08161 0.80648 0.11592 0.0
Cd29 Cd 0.07752 0.82266 0.13263 0.0
Cd30 Cd 0.09822 0.83052 0.20605 0.0
O31 O 0.09503 0.81056 0.18966 0.0
O32 O 0.05714 0.81622 0.119 0.0
O33 O 0.06693 0.82099 0.20263 0.0
C34 C 0.05577 0.81664 0.17212 0.0
C35 C 0.10386 0.83976 0.29602 0.0
C36 C 0.08878 0.80307 0.14733 0.0
C37 C 0.10382 0.849 0.10514 0.0
O38 O 0.10883 0.8456 0.14608 0.0
O39 O 0.0907 0.8418 0.09407 0.0
O40 O 0.11223 0.8371 0.26766 0.0
O41 O 0.09184 0.83661 0.27431 0.0
O42 O 0.27547 0.19982 0.3788 0.0
Cd43 Cd 0.25481 0.18394 0.3676 0.0
Cd44 Cd 0.26611 0.17281 0.30005 0.0
O45 O 0.28395 0.19242 0.31198 0.0
O46 O 0.24185 0.19159 0.38057 0.0
O47 O 0.24486 0.18439 0.29831 0.0
C48 C 0.239 0.18988 0.32817 0.0
C49 C 0.26193 0.16202 0.21297 0.0
C50 C 0.28581 0.20145 0.3492 0.0
C51 C 0.25284 0.15723 0.40642 0.0
O52 O 0.26039 0.15855 0.36432 0.0
O53 O 0.24849 0.16591 0.41462 0.0
O54 O 0.27264 0.16427 0.2427 0.0
O55 O 0.25371 0.16638 0.2316 0.0
O56 O 0.80471 0.07749 0.37636 0.0
Cd57 Cd 0.81959 0.07113 0.37264 0.0
Cd58 Cd 0.83381 0.09486 0.30825 0.0
O59 O 0.81501 0.095 0.3163 0.0
O60 O 0.80957 0.05029 0.38472 0.0
O61 O 0.82033 0.06045 0.30602 0.0
C62 C 0.81285 0.04903 0.33442 0.0
C63 C 0.8473 0.10429 0.22759 0.0
C64 C 0.80478 0.08744 0.34874 0.0
C65 C 0.84633 0.09372 0.42016 0.0
O66 O 0.84671 0.10051 0.37687 0.0
O67 O 0.83637 0.08109 0.4272 0.0
O68 O 0.8454 0.11202 0.26277 0.0
O69 O 0.84084 0.09084 0.23637 0.0
O70 O 0.92992 0.73054 0.38272 0.0
Cd71 Cd 0.93573 0.75161 0.37566 0.0
Cd72 Cd 0.91221 0.74121 0.31044 0.0
O73 O 0.91296 0.72275 0.31989 0.0
O74 O 0.95649 0.7635 0.3885 0.0
O75 O 0.94631 0.76211 0.30735 0.0
C76 C 0.9577 0.76711 0.3369 0.0
C77 C 0.903 0.74496 0.22854 0.0
C78 C 0.92043 0.72045 0.35426 0.0
C79 C 0.9124 0.75503 0.42033 0.0
O80 O 0.9057 0.74801 0.37789 0.0
O81 O 0.92526 0.75845 0.42732 0.0
O82 O 0.89527 0.73508 0.26288 0.0
O83 O 0.91636 0.75235 0.23877 0.0
O84 O 0.80593 0.73041 0.88467 0.0
Cd85 Cd 0.82099 0.7515 0.87601 0.0
Cd86 Cd 0.83415 0.74114 0.81127 0.0
O87 O 0.81507 0.72258 0.82194 0.0
O88 O 0.81204 0.76338 0.88697 0.0
O89 O 0.82084 0.76157 0.80649 0.0
C90 C 0.81442 0.7667 0.8351 0.0
C91 C 0.84697 0.74466 0.72912 0.0
C92 C 0.80538 0.72028 0.85672 0.0
C93 C 0.84793 0.7554 0.92043 0.0
O94 O 0.84761 0.7483 0.87827 0.0
O95 O 0.83842 0.75872 0.92734 0.0
O96 O 0.84497 0.73496 0.7641 0.0
O97 O 0.84091 0.75199 0.73888 0.0
O98 O 0.27521 0.07738 0.8862 0.0
Cd99 Cd 0.25445 0.07223 0.87304 0.0
Cd100 Cd 0.26642 0.09388 0.80065 0.0
O101 O 0.28392 0.09173 0.8144 0.0
O102 O 0.24155 0.05167 0.8869 0.0
O103 O 0.24499 0.06152 0.80367 0.0
C104 C 0.23903 0.05028 0.83422 0.0
C105 C 0.26358 0.10234 0.71504 0.0
C106 C 0.2856 0.08527 0.85501 0.0
C107 C 0.25285 0.09726 0.90573 0.0
O108 O 0.26084 0.10272 0.86396 0.0
O109 O 0.24772 0.0842 0.9162 0.0
O110 O 0.27379 0.11005 0.74816 0.0
O111 O 0.25534 0.08929 0.72858 0.0
O112 O 0.92949 0.20142 0.8792 0.0
Cd113 Cd 0.93529 0.18616 0.87199 0.0
Cd114 Cd 0.91151 0.17284 0.80812 0.0
O115 O 0.91227 0.19205 0.81748 0.0
O116 O 0.9561 0.19504 0.8835 0.0
O117 O 0.94557 0.18604 0.80307 0.0
C118 C 0.95708 0.19248 0.83188 0.0
C119 C 0.90194 0.15965 0.72694 0.0
C120 C 0.91986 0.20192 0.8513 0.0
C121 C 0.91218 0.15945 0.91797 0.0
O122 O 0.90531 0.15966 0.87592 0.0
O123 O 0.92504 0.16894 0.92429 0.0
O124 O 0.89437 0.16192 0.76167 0.0
O125 O 0.91535 0.16565 0.73633 0.0
O126 O 0.7316 0.80731 0.6027 0.0
Cd127 Cd 0.75202 0.82309 0.62024 0.0
Cd128 Cd 0.73948 0.83109 0.69414 0.0
O129 O 0.72258 0.81118 0.67791 0.0
O130 O 0.76571 0.81626 0.6082 0.0
O131 O 0.76043 0.82115 0.69113 0.0
C132 C 0.76722 0.81662 0.66148 0.0
C133 C 0.74305 0.84042 0.78395 0.0
C134 C 0.72113 0.80387 0.63476 0.0
C135 C 0.75255 0.84963 0.59343 0.0
O136 O 0.74407 0.84619 0.63413 0.0
O137 O 0.75843 0.84239 0.58234 0.0
O138 O 0.73205 0.83776 0.75542 0.0
O139 O 0.75191 0.83722 0.76255 0.0
O140 O 0.20172 0.92623 0.61708 0.0
Cd141 Cd 0.18541 0.93016 0.63347 0.0
Cd142 Cd 0.17759 0.90938 0.70644 0.0
O143 O 0.19758 0.91262 0.69025 0.0
O144 O 0.19172 0.95047 0.61901 0.0
O145 O 0.18691 0.94088 0.70295 0.0
C146 C 0.19119 0.95196 0.672 0.0
C147 C 0.16827 0.90389 0.79629 0.0
C148 C 0.20513 0.91901 0.64821 0.0
C149 C 0.15916 0.90377 0.60546 0.0
O150 O 0.16255 0.89874 0.64634 0.0
O151 O 0.16633 0.91691 0.59459 0.0
O152 O 0.17096 0.89547 0.76843 0.0
O153 O 0.17145 0.91588 0.77418 0.0
O154 O 0.08106 0.2749 0.6042 0.0
Cd155 Cd 0.07636 0.25446 0.62137 0.0
Cd156 Cd 0.09683 0.26684 0.69557 0.0
O157 O 0.09396 0.28383 0.67948 0.0
O158 O 0.05585 0.24083 0.60854 0.0
O159 O 0.06583 0.24595 0.69182 0.0
C160 C 0.05457 0.23924 0.66177 0.0
C161 C 0.10199 0.26282 0.78567 0.0
C162 C 0.08811 0.28534 0.6364 0.0
C163 C 0.10236 0.25383 0.595 0.0
O164 O 0.10742 0.26227 0.63581 0.0
O165 O 0.08925 0.24803 0.58374 0.0
O166 O 0.11061 0.27389 0.75802 0.0
O167 O 0.09001 0.25415 0.76315 0.0
O168 O 0.8685 0.60929 0.4365 0.0
Cd169 Cd 0.85294 0.58855 0.45082 0.0
Cd170 Cd 0.84353 0.60047 0.52361 0.0
O171 O 0.86309 0.618 0.50892 0.0
O172 O 0.86046 0.57545 0.43908 0.0
O173 O 0.85414 0.57952 0.52143 0.0
C174 C 0.85929 0.57325 0.49201 0.0
C175 C 0.83261 0.59759 0.61008 0.0
C176 C 0.87108 0.6197 0.46775 0.0
C177 C 0.82618 0.58679 0.41951 0.0
O178 O 0.82882 0.59481 0.46124 0.0
O179 O 0.83412 0.5817 0.40851 0.0
O180 O 0.83492 0.60778 0.57718 0.0
O181 O 0.83739 0.58939 0.59574 0.0
O182 O 0.3963 0.25984 0.43927 0.0
Cd183 Cd 0.41695 0.26464 0.45311 0.0
Cd184 Cd 0.40473 0.24312 0.52521 0.0
O185 O 0.38734 0.2454 0.51072 0.0
O186 O 0.43029 0.28521 0.44115 0.0
O187 O 0.42623 0.27482 0.52351 0.0
C188 C 0.43261 0.28621 0.49399 0.0
C189 C 0.40754 0.23492 0.61143 0.0
C190 C 0.38581 0.25196 0.47011 0.0
C191 C 0.41829 0.23945 0.42083 0.0
O192 O 0.41026 0.23405 0.46253 0.0
O193 O 0.4235 0.25251 0.41017 0.0
O194 O 0.39729 0.22713 0.57856 0.0
O195 O 0.41584 0.2479 0.59724 0.0
O196 O 0.74799 0.14165 0.43455 0.0
Cd197 Cd 0.74339 0.15737 0.45335 0.0
Cd198 Cd 0.7639 0.16508 0.5271 0.0
O199 O 0.76085 0.14521 0.50966 0.0
O200 O 0.72287 0.15061 0.44146 0.0
O201 O 0.73302 0.15519 0.52439 0.0
C202 C 0.7217 0.15078 0.4948 0.0
C203 C 0.7694 0.17411 0.61743 0.0
C204 C 0.75499 0.13807 0.46614 0.0
C205 C 0.76946 0.18395 0.42744 0.0
O206 O 0.77449 0.18037 0.46774 0.0
O207 O 0.75633 0.17678 0.41637 0.0
O208 O 0.77785 0.17158 0.58898 0.0
O209 O 0.75739 0.17094 0.59563 0.0
O210 O 0.94255 0.53251 0.72125 0.0
Cd211 Cd 0.92177 0.517 0.70736 0.0
Cd212 Cd 0.93363 0.50731 0.63548 0.0
O213 O 0.95119 0.52695 0.64901 0.0
O214 O 0.90887 0.52476 0.71902 0.0
O215 O 0.91276 0.51825 0.63676 0.0
C216 C 0.90666 0.52359 0.6661 0.0
C217 C 0.93038 0.49597 0.54975 0.0
C218 C 0.95292 0.53503 0.68989 0.0
C219 C 0.91993 0.49031 0.74019 0.0
O220 O 0.92803 0.49287 0.69879 0.0
O221 O 0.91479 0.49824 0.75032 0.0
O222 O 0.9407 0.49841 0.58219 0.0
O223 O 0.92228 0.50089 0.56403 0.0
O224 O 0.47471 0.41009 0.7215 0.0
Cd225 Cd 0.49034 0.40498 0.70826 0.0
Cd226 Cd 0.50001 0.42647 0.63572 0.0
O227 O 0.48032 0.42425 0.64911 0.0
O228 O 0.48264 0.38433 0.72004 0.0
O229 O 0.48919 0.39474 0.63777 0.0
C230 C 0.48383 0.3833 0.66713 0.0
C231 C 0.51129 0.43488 0.55007 0.0
C232 C 0.47218 0.41787 0.68982 0.0
C233 C 0.51697 0.42997 0.74089 0.0
O234 O 0.51444 0.4354 0.69905 0.0
O235 O 0.50904 0.41691 0.75147 0.0
O236 O 0.50878 0.4426 0.58307 0.0
O237 O 0.50652 0.42185 0.56379 0.0
O238 O 0.59692 0.06352 0.71562 0.0
Cd239 Cd 0.60282 0.08462 0.70877 0.0
Cd240 Cd 0.57931 0.07448 0.6438 0.0
O241 O 0.57981 0.0559 0.65349 0.0
O242 O 0.62365 0.09656 0.71985 0.0
O243 O 0.613 0.09502 0.6397 0.0
C244 C 0.62456 0.10009 0.66822 0.0
C245 C 0.5699 0.07804 0.56206 0.0
C246 C 0.58727 0.05348 0.68745 0.0
C247 C 0.57971 0.08832 0.75396 0.0
O248 O 0.573 0.08147 0.71123 0.0
O249 O 0.5925 0.0915 0.7611 0.0
O250 O 0.56224 0.06831 0.59705 0.0
O251 O 0.5833 0.08539 0.5716 0.0
O252 O 0.47223 0.06255 0.21527 0.0
Cd253 Cd 0.48749 0.0836 0.20779 0.0
Cd254 Cd 0.50065 0.07316 0.14327 0.0
O255 O 0.48142 0.05469 0.15288 0.0
O256 O 0.47865 0.09553 0.21955 0.0
O257 O 0.48745 0.09387 0.13882 0.0
C258 C 0.48106 0.09896 0.16778 0.0
C259 C 0.51364 0.07696 0.06144 0.0
C260 C 0.47163 0.05242 0.18707 0.0
C261 C 0.51429 0.08721 0.25279 0.0
O262 O 0.51397 0.08009 0.21069 0.0
O263 O 0.50483 0.09061 0.25945 0.0
O264 O 0.51149 0.06707 0.09574 0.0
O265 O 0.50762 0.0843 0.07162 0.0
O266 O 0.94127 0.41053 0.21709 0.0
Cd267 Cd 0.9205 0.40525 0.20441 0.0
Cd268 Cd 0.93157 0.42749 0.13607 0.0
O269 O 0.94954 0.42601 0.14879 0.0
O270 O 0.90779 0.38456 0.21676 0.0
O271 O 0.91101 0.39484 0.13453 0.0
C272 C 0.90518 0.38343 0.16414 0.0
C273 C 0.92767 0.43417 0.04862 0.0
C274 C 0.95154 0.41919 0.1871 0.0
C275 C 0.91803 0.42975 0.24187 0.0
O276 O 0.92565 0.43597 0.19988 0.0
O277 O 0.91375 0.41673 0.25039 0.0
O278 O 0.93822 0.44262 0.07898 0.0
O279 O 0.91942 0.42154 0.06687 0.0
O280 O 0.59601 0.53245 0.21535 0.0
Cd281 Cd 0.60114 0.51685 0.20329 0.0
Cd282 Cd 0.5788 0.50564 0.13531 0.0
O283 O 0.58039 0.52516 0.14754 0.0
O284 O 0.62179 0.52476 0.21617 0.0
O285 O 0.61161 0.5177 0.13376 0.0
C286 C 0.62297 0.52325 0.16363 0.0
C287 C 0.57236 0.49492 0.04804 0.0
C288 C 0.58735 0.53407 0.18541 0.0
C289 C 0.57658 0.48991 0.24116 0.0
O290 O 0.57031 0.49129 0.19931 0.0
O291 O 0.58961 0.49865 0.24943 0.0
O292 O 0.56381 0.49705 0.07768 0.0
O293 O 0.58495 0.49938 0.06686 0.0
O294 O 0.39604 0.13773 0.94521 0.0
Cd295 Cd 0.41666 0.15359 0.95745 0.0
Cd296 Cd 0.40526 0.16443 0.02565 0.0
O297 O 0.38749 0.1448 0.01295 0.0
O298 O 0.42975 0.14608 0.94511 0.0
O299 O 0.42624 0.15292 0.02734 0.0
C300 C 0.43229 0.14758 0.99776 0.0
C301 C 0.40936 0.17492 0.11329 0.0
C302 C 0.38568 0.13594 0.97507 0.0
C303 C 0.41863 0.18039 0.92012 0.0
O304 O 0.41096 0.17887 0.96206 0.0
O305 O 0.42307 0.17179 0.91158 0.0
O306 O 0.39865 0.17272 0.0837 0.0
O307 O 0.41763 0.17067 0.09416 0.0
O308 O 0.86679 0.25964 0.93731 0.0
Cd309 Cd 0.85087 0.26411 0.95433 0.0
Cd310 Cd 0.84291 0.24359 0.02818 0.0
O311 O 0.86281 0.24656 0.01205 0.0
O312 O 0.85752 0.28456 0.94117 0.0
O313 O 0.85264 0.27466 0.02456 0.0
C314 C 0.85706 0.28587 0.99432 0.0
C315 C 0.83367 0.23835 0.11822 0.0
C316 C 0.87018 0.25254 0.96915 0.0
C317 C 0.82439 0.23795 0.92741 0.0
O318 O 0.82779 0.23293 0.96832 0.0
O319 O 0.83163 0.25106 0.91625 0.0
O320 O 0.83622 0.2298 0.0906 0.0
O321 O 0.83693 0.25032 0.09573 0.0
O322 O 0.74736 0.60914 0.94231 0.0
Cd323 Cd 0.74244 0.58852 0.95587 0.0
Cd324 Cd 0.7646 0.60005 0.02417 0.0
O325 O 0.7628 0.61781 0.01069 0.0
O326 O 0.72184 0.57547 0.94305 0.0
O327 O 0.73201 0.57904 0.02566 0.0
C328 C 0.72067 0.57296 0.99573 0.0
C329 C 0.77075 0.5959 0.11219 0.0
C330 C 0.75588 0.61956 0.97206 0.0
C331 C 0.76726 0.58645 0.91952 0.0
O332 O 0.77342 0.59428 0.96109 0.0
O333 O 0.7542 0.58192 0.91097 0.0
O334 O 0.77936 0.60662 0.08283 0.0
O335 O 0.75826 0.58766 0.09263 0.0
O336 O 0.53241 0.94259 0.77272 0.0
Cd337 Cd 0.5165 0.92222 0.79007 0.0
Cd338 Cd 0.50853 0.93487 0.86361 0.0
O339 O 0.52847 0.95174 0.8474 0.0
O340 O 0.52319 0.90844 0.77738 0.0
O341 O 0.51838 0.91364 0.8606 0.0
C342 C 0.52283 0.90684 0.83061 0.0
C343 C 0.49924 0.93096 0.95354 0.0
C344 C 0.53585 0.9531 0.80455 0.0
C345 C 0.48998 0.9218 0.76304 0.0
O346 O 0.49341 0.93031 0.80363 0.0
O347 O 0.49722 0.9159 0.75214 0.0
O348 O 0.50183 0.94205 0.92571 0.0
O349 O 0.5025 0.92223 0.93135 0.0
O350 O 0.06389 0.59583 0.77265 0.0
Cd351 Cd 0.08499 0.60171 0.77922 0.0
Cd352 Cd 0.07486 0.57832 0.84496 0.0
O353 O 0.05632 0.5789 0.83551 0.0
O354 O 0.09694 0.62248 0.76694 0.0
O355 O 0.09557 0.61214 0.84766 0.0
C356 C 0.1006 0.62358 0.81845 0.0
C357 C 0.0785 0.56901 0.92686 0.0
C358 C 0.05388 0.58628 0.80124 0.0
C359 C 0.0885 0.57844 0.73463 0.0
O360 O 0.08169 0.57182 0.77755 0.0
O361 O 0.09175 0.59123 0.72721 0.0
O362 O 0.06871 0.56132 0.89216 0.0
O363 O 0.08588 0.58239 0.91697 0.0
O364 O 0.41368 0.46997 0.77165 0.0
Cd365 Cd 0.40836 0.48558 0.78044 0.0
Cd366 Cd 0.43007 0.49624 0.85268 0.0
O367 O 0.42844 0.47671 0.8424 0.0
O368 O 0.38764 0.47709 0.76808 0.0
O369 O 0.39804 0.48562 0.84914 0.0
C370 C 0.38656 0.47936 0.82 0.0
C371 C 0.43848 0.50827 0.93694 0.0
C372 C 0.42184 0.46802 0.80345 0.0
C373 C 0.43301 0.51205 0.74439 0.0
O374 O 0.43852 0.51016 0.78751 0.0
O375 O 0.42002 0.50372 0.73372 0.0
O376 O 0.44633 0.50584 0.90435 0.0
O377 O 0.42536 0.50306 0.92362 0.0
O378 O 0.60872 0.86759 0.0497 0.0
Cd379 Cd 0.58764 0.85243 0.04167 0.0
Cd380 Cd 0.59803 0.83927 0.97667 0.0
O381 O 0.61654 0.85839 0.98716 0.0
O382 O 0.57574 0.86133 0.05319 0.0
O383 O 0.57742 0.85252 0.97252 0.0
C384 C 0.57233 0.85893 0.00139 0.0
C385 C 0.59467 0.82642 0.8947 0.0
C386 C 0.61884 0.86813 0.02167 0.0
C387 C 0.5839 0.82555 0.08615 0.0
O388 O 0.59093 0.82585 0.04378 0.0
O389 O 0.58059 0.83506 0.09321 0.0
O390 O 0.60435 0.82849 0.92991 0.0
O391 O 0.58725 0.8324 0.90414 0.0
O392 O 0.14185 0.74718 0.04305 0.0
Cd393 Cd 0.15798 0.74303 0.02628 0.0
Cd394 Cd 0.16596 0.76385 0.95342 0.0
O395 O 0.14597 0.76064 0.96941 0.0
O396 O 0.15138 0.72259 0.03919 0.0
O397 O 0.15626 0.73256 0.9559 0.0
C398 C 0.15178 0.72132 0.986 0.0
C399 C 0.17542 0.76956 0.86378 0.0
C400 C 0.13845 0.75435 0.01164 0.0
C401 C 0.18432 0.76924 0.05454 0.0
O402 O 0.18094 0.77433 0.01385 0.0
O403 O 0.17713 0.75609 0.06513 0.0
O404 O 0.1727 0.77792 0.89198 0.0
O405 O 0.17218 0.75751 0.88541 0.0
O406 O 0.26223 0.39436 0.04578 0.0
Cd407 Cd 0.26858 0.41559 0.04168 0.0
Cd408 Cd 0.24488 0.40607 0.97771 0.0
O409 O 0.24476 0.38712 0.98554 0.0
O410 O 0.28946 0.4265 0.0526 0.0
O411 O 0.27899 0.4268 0.97431 0.0
C412 C 0.29053 0.43087 0.00209 0.0
C413 C 0.23559 0.41031 0.89708 0.0
C414 C 0.25231 0.38447 0.01807 0.0
C415 C 0.24607 0.41978 0.08947 0.0
O416 O 0.23922 0.41327 0.04641 0.0
O417 O 0.25874 0.42252 0.09623 0.0
O418 O 0.22779 0.4006 0.93189 0.0
O419 O 0.24903 0.41726 0.90616 0.0
O420 O 0.13898 0.39596 0.55013 0.0
Cd421 Cd 0.15407 0.41707 0.54262 0.0
Cd422 Cd 0.16754 0.40685 0.47834 0.0
O423 O 0.14836 0.38833 0.48765 0.0
O424 O 0.14505 0.4289 0.55274 0.0
O425 O 0.15407 0.42707 0.4728 0.0
C426 C 0.14751 0.43215 0.50084 0.0
C427 C 0.18075 0.41037 0.39727 0.0
C428 C 0.13852 0.38592 0.52178 0.0
C429 C 0.1809 0.42097 0.58826 0.0
O430 O 0.18071 0.4139 0.54617 0.0
O431 O 0.17137 0.42426 0.5947 0.0
O432 O 0.1785 0.4006 0.43233 0.0
O433 O 0.17473 0.41777 0.40629 0.0
O434 O 0.61057 0.74462 0.54721 0.0
Cd435 Cd 0.58948 0.73866 0.53993 0.0
Cd436 Cd 0.59967 0.76217 0.4754 0.0
O437 O 0.61824 0.76162 0.48462 0.0
O438 O 0.57764 0.71783 0.55093 0.0
O439 O 0.57931 0.72846 0.4706 0.0
C440 C 0.57427 0.71691 0.49912 0.0
C441 C 0.59565 0.77122 0.39364 0.0
C442 C 0.62062 0.75418 0.51881 0.0
C443 C 0.58571 0.7617 0.5852 0.0
O444 O 0.59275 0.76852 0.54299 0.0
O445 O 0.58238 0.74887 0.59184 0.0
O446 O 0.60555 0.77905 0.42775 0.0
O447 O 0.58841 0.75785 0.40399 0.0
O448 O 0.2621 0.86709 0.54243 0.0
Cd449 Cd 0.26617 0.85086 0.52625 0.0
Cd450 Cd 0.24536 0.8429 0.45322 0.0
O451 O 0.24851 0.86286 0.46913 0.0
O452 O 0.28651 0.85734 0.5409 0.0
O453 O 0.27697 0.85239 0.45689 0.0
C454 C 0.28804 0.85679 0.48795 0.0
C455 C 0.23967 0.83347 0.36355 0.0
C456 C 0.25485 0.87043 0.5112 0.0
C457 C 0.23985 0.82461 0.55464 0.0
O458 O 0.23481 0.82793 0.5136 0.0
O459 O 0.25299 0.83181 0.56548 0.0
O460 O 0.23131 0.83618 0.39174 0.0
O461 O 0.25171 0.83668 0.38521 0.0
O462 O 0.06272 0.4714 0.27095 0.0
Cd463 Cd 0.08377 0.48652 0.28028 0.0
Cd464 Cd 0.07324 0.4995 0.34468 0.0
O465 O 0.05477 0.48032 0.33414 0.0
O466 O 0.09578 0.47769 0.27033 0.0
O467 O 0.09351 0.4863 0.35056 0.0
C468 C 0.09882 0.47997 0.32247 0.0
C469 C 0.07689 0.5123 0.42692 0.0
C470 C 0.05255 0.47071 0.29911 0.0
C471 C 0.08764 0.51344 0.23603 0.0
O472 O 0.08033 0.51298 0.27773 0.0
O473 O 0.09111 0.50403 0.22943 0.0
O474 O 0.06708 0.51025 0.39239 0.0
O475 O 0.08424 0.50628 0.41671 0.0
O476 O 0.5356 0.59319 0.2711 0.0
Cd477 Cd 0.51999 0.59829 0.2837 0.0
Cd478 Cd 0.50873 0.57575 0.35093 0.0
O479 O 0.5283 0.57747 0.33856 0.0
O480 O 0.52783 0.61898 0.27232 0.0
O481 O 0.52073 0.60841 0.35407 0.0
C482 C 0.52624 0.6199 0.32499 0.0
C483 C 0.49781 0.56864 0.43763 0.0
C484 C 0.53722 0.58448 0.30079 0.0
C485 C 0.49308 0.57386 0.24514 0.0
O486 O 0.49446 0.56749 0.28662 0.0
O487 O 0.50181 0.58691 0.23731 0.0
O488 O 0.50012 0.56037 0.407 0.0
O489 O 0.50222 0.58134 0.42021 0.0
O490 O 0.41312 0.94159 0.27225 0.0
Cd491 Cd 0.40857 0.92117 0.28914 0.0
Cd492 Cd 0.42903 0.93369 0.36351 0.0
O493 O 0.42608 0.95062 0.34732 0.0
O494 O 0.38818 0.9075 0.27444 0.0
O495 O 0.39767 0.91216 0.35857 0.0
C496 C 0.3866 0.90554 0.32745 0.0
C497 C 0.43456 0.93004 0.45359 0.0
C498 C 0.42019 0.95207 0.30427 0.0
C499 C 0.43474 0.92087 0.26261 0.0
O500 O 0.4397 0.92923 0.3037 0.0
O501 O 0.42164 0.915 0.25115 0.0
O502 O 0.443 0.94105 0.42527 0.0
O503 O 0.42255 0.9212 0.43175 0.0
H504 H 0.21987 0.19508 0.3802 0.0
H505 H 0.2376 0.19599 0.21924 0.0
H506 H 0.20606 0.20475 0.34016 0.0
H507 H 0.22448 0.20644 0.17944 0.0
H508 H 0.19289 0.21734 0.111 0.0
H509 H 0.20312 0.20404 0.15134 0.0
H510 H 0.20842 0.2257 0.30744 0.0
H511 H 0.19745 0.23831 0.26774 0.0
C512 C 0.22082 0.19737 0.33617 0.0
C513 C 0.22985 0.1948 0.3029 0.0
C514 C 0.21299 0.20305 0.31317 0.0
C515 C 0.21419 0.20659 0.25644 0.0
C516 C 0.22303 0.20369 0.22303 0.0
C517 C 0.23066 0.19776 0.2459 0.0
C518 C 0.1961 0.21911 0.15414 0.0
C519 C 0.19436 0.22888 0.18616 0.0
C520 C 0.2021 0.21157 0.17725 0.0
C521 C 0.20677 0.2138 0.23277 0.0
C522 C 0.20477 0.22343 0.26494 0.0
C523 C 0.19854 0.23077 0.24207 0.0
H524 H 0.79432 0.02344 0.37967 0.0
H525 H 0.81947 0.04246 0.23299 0.0
H526 H 0.78438 1.00024 0.33727 0.0
H527 H 0.80988 0.0191 0.19105 0.0
H528 H 0.77555 0.95862 0.26632 0.0
H529 H 0.78854 0.98198 0.3086 0.0
H530 H 0.78862 1.00107 0.1514 0.0
H531 H 0.77614 0.97778 0.10889 0.0
C532 C 0.7979 0.02266 0.3386 0.0
C533 C 0.80766 0.03484 0.30965 0.0
C534 C 0.79225 0.00929 0.31434 0.0
C535 C 0.79629 0.00771 0.26057 0.0
C536 C 0.80634 0.0199 0.23214 0.0
C537 C 0.81191 0.0333 0.25631 0.0
C538 C 0.77849 0.96782 0.24068 0.0
C539 C 0.77476 0.96632 0.18428 0.0
C540 C 0.78586 0.98124 0.26501 0.0
C541 C 0.78956 0.99349 0.23366 0.0
C542 C 0.78614 0.99195 0.17683 0.0
C543 C 0.77889 0.97855 0.15243 0.0
H544 H 0.96529 0.76908 0.22784 0.0
H545 H 0.98207 0.7855 0.39025 0.0
H546 H 0.98896 0.78211 0.18872 0.0
H547 H 0.00566 0.79928 0.35103 0.0
H548 H 0.04775 0.80787 0.27863 0.0
H549 H 0.02411 0.79697 0.31768 0.0
H550 H 0.00825 0.80329 0.16219 0.0
H551 H 0.03184 0.81341 0.12239 0.0
C552 C 0.97403 0.77573 0.25497 0.0
C553 C 0.97184 0.77619 0.31214 0.0
C554 C 0.98765 0.7833 0.23252 0.0
C555 C 0.99941 0.79177 0.26655 0.0
C556 C 0.99703 0.79263 0.32351 0.0
C557 C 0.98346 0.78482 0.34606 0.0
C558 C 0.03922 0.80703 0.25298 0.0
C559 C 0.04165 0.81144 0.19738 0.0
C560 C 0.02561 0.80084 0.27547 0.0
C561 C 0.01409 0.79914 0.24328 0.0
C562 C 0.0167 0.80407 0.1881 0.0
C563 C 0.03028 0.81001 0.16531 0.0
H564 H 0.80903 0.76827 0.7254 0.0
H565 H 0.80833 0.78527 0.88617 0.0
H566 H 0.7986 0.78127 0.68409 0.0
H567 H 0.79874 0.799 0.84477 0.0
H568 H 0.76588 0.80792 0.76847 0.0
H569 H 0.77818 0.7968 0.8096 0.0
H570 H 0.80083 0.80248 0.65576 0.0
H571 H 0.78779 0.81282 0.61389 0.0
C572 C 0.8069 0.77503 0.75172 0.0
C573 C 0.8094 0.77567 0.80907 0.0
C574 C 0.80098 0.78259 0.728 0.0
C575 C 0.79768 0.79121 0.7609 0.0
C576 C 0.80074 0.79223 0.81807 0.0
C577 C 0.80637 0.78444 0.84189 0.0
C578 C 0.77357 0.80688 0.74361 0.0
C579 C 0.77582 0.8112 0.68788 0.0
C580 C 0.78073 0.80056 0.76731 0.0
C581 C 0.79057 0.79863 0.73623 0.0
C582 C 0.79314 0.80343 0.68087 0.0
C583 C 0.78575 0.8095 0.65687 0.0
H584 H 0.23828 0.04242 0.72611 0.0
H585 H 0.21988 0.02603 0.88667 0.0
H586 H 0.22563 0.01867 0.68754 0.0
H587 H 0.20654 1.00235 0.84774 0.0
H588 H 0.19898 0.96015 0.77929 0.0
H589 H 0.20941 0.98385 0.81763 0.0
H590 H 0.2045 0.99942 0.65899 0.0
H591 H 0.19481 0.97578 0.62011 0.0
C592 C 0.23129 0.03376 0.75291 0.0
C593 C 0.23015 0.03609 0.80949 0.0
C594 C 0.22393 0.02009 0.73073 0.0
C595 C 0.21504 0.00843 0.76439 0.0
C596 C 0.21351 0.01093 0.82063 0.0
C597 C 0.22108 0.02455 0.84297 0.0
C598 C 0.20003 0.96862 0.75276 0.0
C599 C 0.19614 0.9661 0.69661 0.0
C600 C 0.20595 0.98226 0.77484 0.0
C601 C 0.20791 0.99371 0.74156 0.0
C602 C 0.2035 0.99101 0.68577 0.0
C603 C 0.19781 0.97741 0.66348 0.0
H604 H 0.04699 0.24054 0.76841 0.0
H605 H 0.03027 0.21873 0.61339 0.0
H606 H 0.02347 0.22828 0.80869 0.0
H607 H 0.00678 0.20572 0.65445 0.0
H608 H 0.96428 0.19776 0.72235 0.0
H609 H 0.98779 0.20803 0.68186 0.0
H610 H 0.00496 0.20776 0.84336 0.0
H611 H 0.98157 0.19835 0.88392 0.0
C612 C 0.03831 0.23287 0.74328 0.0
C613 C 0.04048 0.23064 0.68767 0.0
C614 C 0.02476 0.22573 0.7665 0.0
C615 C 0.01305 0.21594 0.73504 0.0
C616 C 0.01539 0.21338 0.67982 0.0
C617 C 0.02891 0.22075 0.6563 0.0
C618 C 0.97309 0.19983 0.74902 0.0
C619 C 0.9711 0.19735 0.80634 0.0
C620 C 0.98662 0.20565 0.72578 0.0
C621 C 0.99846 0.20889 0.75917 0.0
C622 C 0.99627 0.20582 0.8163 0.0
C623 C 0.9828 0.20029 0.83964 0.0
H624 H 0.86382 0.55338 0.44259 0.0
H625 H 0.86636 0.5731 0.60057 0.0
H626 H 0.87347 0.53973 0.48432 0.0
H627 H 0.87679 0.56014 0.64189 0.0
H628 H 0.88716 0.52871 0.71532 0.0
H629 H 0.87405 0.53896 0.67352 0.0
H630 H 0.89435 0.54177 0.51614 0.0
H631 H 0.90674 0.53075 0.55751 0.0
C632 C 0.86648 0.55482 0.48631 0.0
C633 C 0.86434 0.56433 0.51827 0.0
C634 C 0.87214 0.54707 0.51026 0.0
C635 C 0.87609 0.54884 0.56662 0.0
C636 C 0.8737 0.55823 0.59869 0.0
C637 C 0.86777 0.56577 0.57493 0.0
C638 C 0.88867 0.53138 0.67162 0.0
C639 C 0.89799 0.52893 0.63973 0.0
C640 C 0.88124 0.53739 0.64764 0.0
C641 C 0.88316 0.54139 0.59132 0.0
C642 C 0.89233 0.53866 0.55931 0.0
C643 C 0.89955 0.53239 0.5831 0.0
H644 H 0.4527 0.31042 0.44406 0.0
H645 H 0.43315 0.29357 0.60262 0.0
H646 H 0.46681 0.33371 0.48547 0.0
H647 H 0.44658 0.31697 0.64364 0.0
H648 H 0.47858 0.35862 0.71629 0.0
H649 H 0.46799 0.33521 0.67464 0.0
H650 H 0.46522 0.35279 0.51743 0.0
H651 H 0.47657 0.37624 0.55862 0.0
C652 C 0.4514 0.31172 0.48783 0.0
C653 C 0.4418 0.30016 0.52005 0.0
C654 C 0.45942 0.32513 0.51161 0.0
C655 C 0.45783 0.3274 0.56804 0.0
C656 C 0.44835 0.31571 0.60037 0.0
C657 C 0.44055 0.30225 0.57678 0.0
C658 C 0.47585 0.35747 0.67264 0.0
C659 C 0.4784 0.36927 0.64076 0.0
C660 C 0.46964 0.34401 0.64875 0.0
C661 C 0.46554 0.34194 0.59255 0.0
C662 C 0.46839 0.35387 0.5605 0.0
C663 C 0.47485 0.36737 0.58419 0.0
H664 H 0.69732 0.14712 0.44773 0.0
H665 H 0.71434 0.14173 0.60142 0.0
H666 H 0.67393 0.13663 0.48967 0.0
H667 H 0.69091 0.13047 0.64256 0.0
H668 H 0.64921 0.11857 0.71973 0.0
H669 H 0.67253 0.13252 0.67847 0.0
H670 H 0.65495 0.11531 0.51717 0.0
H671 H 0.63152 0.1021 0.55839 0.0
C672 C 0.69604 0.14367 0.49053 0.0
C673 C 0.70767 0.14527 0.52127 0.0
C674 C 0.68258 0.13751 0.51456 0.0
C675 C 0.68035 0.13253 0.56966 0.0
C676 C 0.69212 0.13437 0.60049 0.0
C677 C 0.70561 0.14077 0.57678 0.0
C678 C 0.65034 0.11791 0.67534 0.0
C679 C 0.63854 0.10922 0.64233 0.0
C680 C 0.66376 0.12582 0.65161 0.0
C681 C 0.66581 0.12501 0.59431 0.0
C682 C 0.65388 0.11647 0.56121 0.0
C683 C 0.6404 0.10879 0.58487 0.0
H684 H 0.47496 0.10011 0.05875 0.0
H685 H 0.47553 0.11789 0.2192 0.0
H686 H 0.46424 0.11292 0.01837 0.0
H687 H 0.4657 0.13149 0.17859 0.0
H688 H 0.43216 0.13997 0.1056 0.0
H689 H 0.44497 0.12929 0.14598 0.0
H690 H 0.46609 0.13379 0.98909 0.0
H691 H 0.4525 0.14361 0.94814 0.0
C692 C 0.47307 0.10702 0.08513 0.0
C693 C 0.47599 0.10793 0.14216 0.0
C694 C 0.46699 0.11448 0.06195 0.0
C695 C 0.46395 0.12328 0.09504 0.0
C696 C 0.46748 0.12458 0.15181 0.0
C697 C 0.47326 0.11687 0.17515 0.0
C698 C 0.43963 0.13877 0.07995 0.0
C699 C 0.44127 0.14256 0.02366 0.0
C700 C 0.44709 0.1327 0.10317 0.0
C701 C 0.45663 0.13054 0.07099 0.0
C702 C 0.45863 0.1349 0.01507 0.0
C703 C 0.45093 0.14067 0.99159 0.0
H704 H 0.86094 0.31003 0.94448 0.0
H705 H 0.86499 0.29355 0.10186 0.0
H706 H 0.87076 0.33349 0.98522 0.0
H707 H 0.87556 0.31707 0.14202 0.0
H708 H 0.8861 0.35889 0.21503 0.0
H709 H 0.87278 0.33542 0.17427 0.0
H710 H 0.89182 0.35261 0.0148 0.0
H711 H 0.90445 0.37614 0.05526 0.0
C712 C 0.86395 0.31144 0.98784 0.0
C713 C 0.86219 0.29994 0.01993 0.0
C714 C 0.86972 0.32494 0.0112 0.0
C715 C 0.87412 0.32735 0.06705 0.0
C716 C 0.8721 0.31571 0.09924 0.0
C717 C 0.8661 0.30218 0.07612 0.0
C718 C 0.8873 0.35764 0.17111 0.0
C719 C 0.89635 0.36936 0.13839 0.0
C720 C 0.87974 0.34414 0.1477 0.0
C721 C 0.88126 0.34194 0.09111 0.0
C722 C 0.89013 0.35379 0.05824 0.0
C723 C 0.89747 0.36734 0.0815 0.0
H724 H 0.63047 0.53025 0.05528 0.0
H725 H 0.64734 0.52828 0.21475 0.0
H726 H 0.65406 0.54121 0.01543 0.0
H727 H 0.67087 0.53843 0.1745 0.0
H728 H 0.71305 0.57258 0.10382 0.0
H729 H 0.68948 0.55953 0.14369 0.0
H730 H 0.67304 0.53929 0.98525 0.0
H731 H 0.69651 0.55307 0.94494 0.0
C732 C 0.63921 0.53189 0.08155 0.0
C733 C 0.63706 0.52848 0.13819 0.0
C734 C 0.65278 0.53812 0.05864 0.0
C735 C 0.66455 0.54084 0.09158 0.0
C736 C 0.66222 0.53687 0.14791 0.0
C737 C 0.64869 0.53091 0.17101 0.0
C738 C 0.70439 0.56525 0.0777 0.0
C739 C 0.70662 0.56391 0.02119 0.0
C740 C 0.69083 0.55766 0.10062 0.0
C741 C 0.67918 0.54831 0.06785 0.0
C742 C 0.68159 0.54661 0.01169 0.0
C743 C 0.6951 0.55442 0.98855 0.0
H744 H 0.5264 0.88621 0.78217 0.0
H745 H 0.53152 0.90792 0.93745 0.0
H746 H 0.53658 0.87295 0.82334 0.0
H747 H 0.54248 0.8954 0.97788 0.0
H748 H 0.5538 0.86499 0.05309 0.0
H749 H 0.54012 0.87471 0.01233 0.0
H750 H 0.55775 0.87499 0.85123 0.0
H751 H 0.57069 0.86443 0.89189 0.0
C752 C 0.52973 0.88816 0.82516 0.0
C753 C 0.52815 0.8981 0.85657 0.0
C754 C 0.5357 0.88064 0.84875 0.0
C755 C 0.54052 0.88309 0.90409 0.0
C756 C 0.5387 0.89293 0.93558 0.0
C757 C 0.53247 0.90023 0.91229 0.0
C758 C 0.55461 0.86699 0.00884 0.0
C759 C 0.56334 0.86397 0.97572 0.0
C760 C 0.54685 0.8727 0.9854 0.0
C761 C 0.54787 0.87586 0.92832 0.0
C762 C 0.55644 0.87255 0.89509 0.0
C763 C 0.56396 0.86655 0.91843 0.0
H764 H 0.11916 0.64794 0.76544 0.0
H765 H 0.10281 0.63102 0.92778 0.0
H766 H 0.13332 0.67141 0.80521 0.0
H767 H 0.11624 0.6546 0.96749 0.0
H768 H 0.14818 0.69713 0.0346 0.0
H769 H 0.13762 0.67358 0.99403 0.0
H770 H 0.13153 0.69005 0.83965 0.0
H771 H 0.14287 0.71362 0.87943 0.0
C772 C 0.11857 0.64927 0.80973 0.0
C773 C 0.10985 0.63765 0.84347 0.0
C774 C 0.12661 0.66278 0.83261 0.0
C775 C 0.12589 0.66509 0.88973 0.0
C776 C 0.11733 0.65333 0.92356 0.0
C777 C 0.10952 0.63977 0.90077 0.0
C778 C 0.14474 0.6957 0.99175 0.0
C779 C 0.14637 0.70723 0.96021 0.0
C780 C 0.13854 0.68215 0.96851 0.0
C781 C 0.13354 0.67973 0.91343 0.0
C782 C 0.13544 0.6914 0.88175 0.0
C783 C 0.14189 0.70498 0.90468 0.0
H784 H 0.29663 0.44318 0.89903 0.0
H785 H 0.31634 0.43857 0.04677 0.0
H786 H 0.31981 0.45663 0.85528 0.0
H787 H 0.33936 0.45153 0.00264 0.0
H788 H 0.36064 0.4631 0.77244 0.0
H789 H 0.33759 0.45274 0.81669 0.0
H790 H 0.35746 0.47379 0.97011 0.0
H791 H 0.38061 0.48377 0.92613 0.0
C792 C 0.30591 0.44506 0.92222 0.0
C793 C 0.30462 0.43976 0.97635 0.0
C794 C 0.3192 0.4527 0.89702 0.0
C795 C 0.33152 0.45515 0.92522 0.0
C796 C 0.3302 0.45008 0.97983 0.0
C797 C 0.31694 0.44253 0.00509 0.0
C798 C 0.3601 0.46562 0.8155 0.0
C799 C 0.3725 0.4742 0.84582 0.0
C800 C 0.34684 0.45974 0.84087 0.0
C801 C 0.3456 0.46235 0.89718 0.0
C802 C 0.358 0.47133 0.92698 0.0
C803 C 0.37128 0.47714 0.90167 0.0
H804 H 0.11849 0.47503 0.2741 0.0
H805 H 0.09883 0.47322 0.43143 0.0
H806 H 0.13198 0.46534 0.31692 0.0
H807 H 0.11148 0.46259 0.47385 0.0
H808 H 0.14199 0.45137 0.54967 0.0
H809 H 0.13205 0.46465 0.50696 0.0
H810 H 0.13025 0.44486 0.34925 0.0
H811 H 0.14111 0.43243 0.39162 0.0
C812 C 0.11703 0.4725 0.31793 0.0
C813 C 0.10761 0.47488 0.34942 0.0
C814 C 0.12467 0.46679 0.34253 0.0
C815 C 0.12282 0.46297 0.39905 0.0
C816 C 0.11349 0.46559 0.43059 0.0
C817 C 0.10612 0.47162 0.40621 0.0
C818 C 0.13961 0.45003 0.5057 0.0
C819 C 0.14233 0.44087 0.47398 0.0
C820 C 0.13376 0.45754 0.48116 0.0
C821 C 0.13012 0.45582 0.42445 0.0
C822 C 0.13309 0.44677 0.39269 0.0
C823 C 0.13926 0.43952 0.41702 0.0
H824 H 0.53037 0.64422 0.27629 0.0
H825 H 0.53375 0.62711 0.43312 0.0
H826 H 0.5401 0.66752 0.3182 0.0
H827 H 0.54435 0.6505 0.47449 0.0
H828 H 0.5554 0.69223 0.54947 0.0
H829 H 0.54203 0.66888 0.50785 0.0
H830 H 0.56082 0.68654 0.34846 0.0
H831 H 0.57339 0.70997 0.38984 0.0
C832 C 0.53324 0.64548 0.3198 0.0
C833 C 0.5313 0.63385 0.35142 0.0
C834 C 0.53896 0.65889 0.34385 0.0
C835 C 0.54321 0.6611 0.3999 0.0
C836 C 0.54102 0.64932 0.4316 0.0
C837 C 0.535 0.63585 0.40781 0.0
C838 C 0.55651 0.6911 0.50538 0.0
C839 C 0.56545 0.70292 0.47292 0.0
C840 C 0.54894 0.67767 0.48146 0.0
C841 C 0.55037 0.67563 0.42461 0.0
C842 C 0.55916 0.68758 0.39207 0.0
C843 C 0.56648 0.70107 0.41583 0.0
H844 H 0.36256 0.88586 0.27499 0.0
H845 H 0.37843 0.90511 0.43486 0.0
H846 H 0.33883 0.87233 0.31349 0.0
H847 H 0.35465 0.89222 0.47289 0.0
H848 H 0.31199 0.86096 0.54055 0.0
H849 H 0.33569 0.8709 0.50205 0.0
H850 H 0.31998 0.8749 0.3423 0.0
H851 H 0.29622 0.86426 0.38035 0.0
C852 C 0.36096 0.8872 0.31843 0.0
C853 C 0.37237 0.89657 0.35184 0.0
C854 C 0.34731 0.87952 0.34051 0.0
C855 C 0.34466 0.8812 0.39639 0.0
C856 C 0.3562 0.8904 0.42998 0.0
C857 C 0.36988 0.89789 0.40809 0.0
C858 C 0.3136 0.86382 0.49703 0.0
C859 C 0.30223 0.86184 0.46353 0.0
C860 C 0.32724 0.86965 0.47495 0.0
C861 C 0.32991 0.87389 0.41897 0.0
C862 C 0.31841 0.8716 0.38529 0.0
C863 C 0.30474 0.86555 0.40719 0.0
H864 H 0.09351 0.23704 0.83319 0.0
H865 H 0.12084 0.28187 0.85823 0.0
H866 H 0.10394 0.23228 0.91485 0.0
H867 H 0.131 0.27714 0.93977 0.0
H868 H 0.14011 0.26531 0.10502 0.0
H869 H 0.12409 0.26602 0.03666 0.0
H870 H 0.12979 0.23719 0.93223 0.0
H871 H 0.146 0.23649 0.0006 0.0
C872 C 0.10148 0.24585 0.85693 0.0
C873 C 0.1064 0.25983 0.83947 0.0
C874 C 0.1075 0.24313 0.90327 0.0
C875 C 0.11827 0.25434 0.93351 0.0
C876 C 0.12262 0.26829 0.91756 0.0
C877 C 0.11684 0.271 0.87079 0.0
C878 C 0.1378 0.2589 0.06801 0.0
C879 C 0.14454 0.25101 0.05793 0.0
C880 C 0.12862 0.25934 0.02887 0.0
C881 C 0.12582 0.25177 0.97902 0.0
C882 C 0.13172 0.24307 0.97051 0.0
C883 C 0.14105 0.24273 0.00954 0.0
H884 H 0.76708 0.91086 0.99704 0.0
H885 H 0.73913 0.87579 0.10195 0.0
H886 H 0.76689 0.8942 0.92861 0.0
H887 H 0.73891 0.85931 0.03353 0.0
H888 H 0.76859 0.85839 0.83185 0.0
H889 H 0.77278 0.8737 0.91271 0.0
H890 H 0.72773 0.85476 0.93604 0.0
H891 H 0.72357 0.83977 0.85522 0.0
C892 C 0.76113 0.89966 0.00602 0.0
C893 C 0.75297 0.89468 0.05465 0.0
C894 C 0.76108 0.89013 0.96697 0.0
C895 C 0.75278 0.87548 0.9757 0.0
C896 C 0.74529 0.87055 0.02562 0.0
C897 C 0.74544 0.88003 0.06478 0.0
C898 C 0.75962 0.85733 0.85507 0.0
C899 C 0.74575 0.84792 0.8374 0.0
C900 C 0.76202 0.86614 0.90093 0.0
C901 C 0.75058 0.8654 0.93047 0.0
C902 C 0.73675 0.85547 0.91431 0.0
C903 C 0.73436 0.84692 0.86799 0.0
H904 H 0.09765 0.8589 0.01034 0.0
H905 H 0.13248 0.86502 0.11457 0.0
H906 H 0.1145 0.87515 0.94185 0.0
H907 H 0.14914 0.88107 0.04613 0.0
H908 H 0.16856 0.88496 0.86813 0.0
H909 H 0.15354 0.87444 0.9491 0.0
H910 H 0.13529 0.90111 0.92496 0.0
H911 H 0.15061 0.91191 0.84387 0.0
C912 C 0.10885 0.86389 0.01919 0.0
C913 C 0.1137 0.86048 0.06761 0.0
C914 C 0.11849 0.87324 0.98009 0.0
C915 C 0.13311 0.87924 0.98856 0.0
C916 C 0.13793 0.87647 0.03835 0.0
C917 C 0.12834 0.86727 0.07754 0.0
C918 C 0.16156 0.8888 0.88073 0.0
C919 C 0.16075 0.89925 0.8498 0.0
C920 C 0.15299 0.8828 0.92717 0.0
C921 C 0.14324 0.88695 0.94319 0.0
C922 C 0.1427 0.89771 0.91331 0.0
C923 C 0.15152 0.90394 0.8673 0.0
H924 H 0.24568 0.08916 0.62682 0.0
H925 H 0.27509 0.13029 0.69376 0.0
H926 H 0.24039 0.10061 0.54989 0.0
H927 H 0.26959 0.14151 0.61841 0.0
H928 H 0.24548 0.15661 0.51515 0.0
H929 H 0.24631 0.14162 0.58852 0.0
H930 H 0.2561 0.1187 0.46754 0.0
H931 H 0.25547 0.13378 0.39393 0.0
C932 C 0.25102 0.10058 0.62504 0.0
C933 C 0.26083 0.10881 0.66623 0.0
C934 C 0.24797 0.1071 0.58126 0.0
C935 C 0.25444 0.12191 0.57892 0.0
C936 C 0.26429 0.13007 0.6198 0.0
C937 C 0.26753 0.12362 0.66265 0.0
C938 C 0.24748 0.14818 0.50393 0.0
C939 C 0.25057 0.14649 0.44884 0.0
C940 C 0.24801 0.13964 0.54595 0.0
C941 C 0.2514 0.12912 0.53356 0.0
C942 C 0.25344 0.12672 0.47806 0.0
C943 C 0.25313 0.1354 0.43608 0.0
H944 H 0.87166 0.11807 0.41044 0.0
H945 H 0.84444 0.08691 0.53042 0.0
H946 H 0.8865 0.13323 0.48528 0.0
H947 H 0.85937 0.10212 0.60539 0.0
H948 H 0.8738 0.14273 0.70949 0.0
H949 H 0.86209 0.12535 0.63673 0.0
H950 H 0.90261 0.1361 0.5665 0.0
H951 H 0.91449 0.15365 0.64022 0.0
C952 C 0.86902 0.11431 0.45276 0.0
C953 C 0.85676 0.10136 0.46458 0.0
C954 C 0.87757 0.12298 0.49558 0.0
C955 C 0.87398 0.11894 0.55113 0.0
C956 C 0.86227 0.10557 0.56286 0.0
C957 C 0.85378 0.09682 0.51996 0.0
C958 C 0.88027 0.14145 0.6786 0.0
C959 C 0.89509 0.14963 0.68052 0.0
C960 C 0.87354 0.13135 0.63726 0.0
C961 C 0.88144 0.12922 0.59639 0.0
C962 C 0.89627 0.1375 0.59766 0.0
C963 C 0.90306 0.14755 0.63967 0.0
H964 H 0.86459 0.73426 0.71235 0.0
H965 H 0.85178 0.7623 0.64005 0.0
H966 H 0.88165 0.73991 0.63832 0.0
H967 H 0.86898 0.76789 0.5649 0.0
H968 H 0.88715 0.75423 0.4103 0.0
H969 H 0.87196 0.7539 0.48514 0.0
H970 H 0.90438 0.76115 0.60442 0.0
H971 H 0.91964 0.76149 0.52956 0.0
C972 C 0.86537 0.74161 0.6805 0.0
C973 C 0.85677 0.74779 0.68197 0.0
C974 C 0.87529 0.74497 0.63841 0.0
C975 C 0.87678 0.75448 0.59631 0.0
C976 C 0.86807 0.76056 0.59706 0.0
C977 C 0.85823 0.75734 0.63989 0.0
C978 C 0.89117 0.75606 0.45238 0.0
C979 C 0.90453 0.75771 0.46412 0.0
C980 C 0.88248 0.75594 0.49516 0.0
C981 C 0.88693 0.75731 0.55056 0.0
C982 C 0.90064 0.75989 0.56202 0.0
C983 C 0.90941 0.76018 0.51916 0.0
H984 H 0.84712 0.76187 0.0296 0.0
H985 H 0.87256 0.75495 0.91028 0.0
H986 H 0.86208 0.7616 0.10447 0.0
H987 H 0.88745 0.75469 0.98512 0.0
H988 H 0.9159 0.76288 0.14026 0.0
H989 H 0.90433 0.7686 0.06536 0.0
H990 H 0.86361 0.74033 0.13774 0.0
H991 H 0.87497 0.73454 0.21151 0.0
C992 C 0.8561 0.76066 0.01919 0.0
C993 C 0.85854 0.75824 0.96413 0.0
C994 C 0.8646 0.76041 0.06206 0.0
C995 C 0.8758 0.75793 0.05057 0.0
C996 C 0.87892 0.75665 0.99516 0.0
C997 C 0.87033 0.75673 0.95238 0.0
C998 C 0.90448 0.75788 0.13993 0.0
C999 C 0.89635 0.74821 0.18162 0.0
C1000 C 0.89788 0.76118 0.09725 0.0
C1001 C 0.88309 0.75506 0.09628 0.0
C1002 C 0.87503 0.74543 0.13802 0.0
C1003 C 0.88157 0.74199 0.17995 0.0
H1004 H 0.2378 0.09038 0.00369 0.0
H1005 H 0.26364 0.12564 0.89571 0.0
H1006 H 0.23804 0.1069 0.07323 0.0
H1007 H 0.26398 0.14192 0.96523 0.0
H1008 H 0.28102 0.16142 0.14323 0.0
H1009 H 0.27638 0.14587 0.06379 0.0
H1010 H 0.23149 0.128 0.0877 0.0
H1011 H 0.23616 0.14396 0.16695 0.0
C1012 C 0.24328 0.10157 0.9943 0.0
C1013 C 0.25087 0.10668 0.94445 0.0
C1014 C 0.24336 0.111 0.03397 0.0
C1015 C 0.25113 0.12565 0.02454 0.0
C1016 C 0.258 0.13067 0.97354 0.0
C1017 C 0.25779 0.1213 0.93381 0.0
C1018 C 0.27016 0.15437 0.13093 0.0
C1019 C 0.25895 0.15391 0.16096 0.0
C1020 C 0.26751 0.14549 0.0855 0.0
C1021 C 0.25358 0.13575 0.06985 0.0
C1022 C 0.24231 0.13543 0.09915 0.0
C1023 C 0.24499 0.1446 0.14402 0.0
H1024 H 0.85187 0.0915 0.13783 0.0
H1025 H 0.86558 0.13227 0.21277 0.0
H1026 H 0.86908 0.1031 0.06274 0.0
H1027 H 0.88262 0.14368 0.13869 0.0
H1028 H 0.91989 0.16021 0.02661 0.0
H1029 H 0.90497 0.14522 0.10207 0.0
H1030 H 0.87205 0.12009 0.98441 0.0
H1031 H 0.88691 0.13497 0.90903 0.0
C1032 C 0.85853 0.10289 0.13831 0.0
C1033 C 0.8573 0.11096 0.18102 0.0
C1034 C 0.86838 0.10951 0.0955 0.0
C1035 C 0.8773 0.12427 0.09533 0.0
C1036 C 0.87609 0.13227 0.13826 0.0
C1037 C 0.86618 0.12572 0.18039 0.0
C1038 C 0.90962 0.15128 0.01669 0.0
C1039 C 0.90451 0.1489 0.96199 0.0
C1040 C 0.90105 0.14276 0.0599 0.0
C1041 C 0.88729 0.13161 0.0491 0.0
C1042 C 0.88261 0.12857 0.99395 0.0
C1043 C 0.89111 0.13716 0.95085 0.0
H1044 H 0.76831 0.91234 0.33157 0.0
H1045 H 0.72348 0.88504 0.35684 0.0
H1046 H 0.77309 0.90177 0.41278 0.0
H1047 H 0.72823 0.87476 0.43797 0.0
H1048 H 0.74021 0.86588 0.60346 0.0
H1049 H 0.73957 0.8819 0.53497 0.0
H1050 H 0.76794 0.87565 0.42985 0.0
H1051 H 0.76856 0.85942 0.49838 0.0
C1052 C 0.75951 0.90435 0.35526 0.0
C1053 C 0.74553 0.89948 0.33804 0.0
C1054 C 0.76225 0.89825 0.40133 0.0
C1055 C 0.75103 0.88747 0.43153 0.0
C1056 C 0.73708 0.88315 0.41576 0.0
C1057 C 0.73436 0.889 0.36925 0.0
C1058 C 0.74653 0.86806 0.56626 0.0
C1059 C 0.75427 0.86117 0.55605 0.0
C1060 C 0.74614 0.87725 0.52706 0.0
C1061 C 0.75359 0.8799 0.477 0.0
C1062 C 0.76214 0.87383 0.46831 0.0
C1063 C 0.76244 0.8645 0.50742 0.0
H1064 H 0.1229 0.83936 0.3669 0.0
H1065 H 0.09592 0.85734 0.34486 0.0
H1066 H 0.13357 0.85425 0.44807 0.0
H1067 H 0.10684 0.87253 0.42617 0.0
H1068 H 0.14912 0.91004 0.51132 0.0
H1069 H 0.1328 0.89328 0.44278 0.0
H1070 H 0.12715 0.85851 0.54558 0.0
H1071 H 0.14329 0.87508 0.61406 0.0
C1072 C 0.11909 0.84634 0.38003 0.0
C1073 C 0.10859 0.8472 0.34966 0.0
C1074 C 0.12516 0.85483 0.42659 0.0
C1075 C 0.12104 0.86455 0.44329 0.0
C1076 C 0.11023 0.86514 0.41398 0.0
C1077 C 0.10392 0.85639 0.36785 0.0
C1078 C 0.14418 0.89883 0.51983 0.0
C1079 C 0.14769 0.89393 0.56784 0.0
C1080 C 0.13478 0.88925 0.48071 0.0
C1081 C 0.12883 0.87462 0.48875 0.0
C1082 C 0.13171 0.86974 0.53814 0.0
C1083 C 0.14096 0.87927 0.57736 0.0
H1084 H 0.096 0.23744 0.50105 0.0
H1085 H 0.13102 0.26635 0.60414 0.0
H1086 H 0.11271 0.23774 0.43267 0.0
H1087 H 0.14755 0.26666 0.53578 0.0
H1088 H 0.14845 0.23668 0.3342 0.0
H1089 H 0.13338 0.23242 0.4159 0.0
H1090 H 0.15185 0.27744 0.4383 0.0
H1091 H 0.16661 0.28167 0.35672 0.0
C1092 C 0.10721 0.24363 0.50969 0.0
C1093 C 0.11215 0.25203 0.55772 0.0
C1094 C 0.11677 0.24374 0.47066 0.0
C1095 C 0.13141 0.25233 0.47881 0.0
C1096 C 0.13632 0.26005 0.52827 0.0
C1097 C 0.12681 0.25985 0.56741 0.0
C1098 C 0.14946 0.24563 0.3574 0.0
C1099 C 0.15866 0.2595 0.33921 0.0
C1100 C 0.14079 0.24319 0.40376 0.0
C1101 C 0.14146 0.2546 0.43329 0.0
C1102 C 0.1512 0.26845 0.41664 0.0
C1103 C 0.15962 0.27087 0.36985 0.0
H1104 H 0.81779 0.57166 0.32183 0.0
H1105 H 0.80855 0.59752 0.43038 0.0
H1106 H 0.8014 0.57187 0.2528 0.0
H1107 H 0.79249 0.59782 0.36134 0.0
H1108 H 0.79001 0.61494 0.18338 0.0
H1109 H 0.8007 0.61024 0.26339 0.0
H1110 H 0.77398 0.56537 0.23782 0.0
H1111 H 0.76291 0.5701 0.15798 0.0
C1112 C 0.81209 0.57713 0.33147 0.0
C1113 C 0.81466 0.58474 0.3813 0.0
C1114 C 0.80268 0.57719 0.29209 0.0
C1115 C 0.79582 0.58497 0.30177 0.0
C1116 C 0.79774 0.59184 0.35281 0.0
C1117 C 0.80697 0.59165 0.39227 0.0
C1118 C 0.78621 0.60407 0.19548 0.0
C1119 C 0.77562 0.59288 0.16475 0.0
C1120 C 0.79231 0.60139 0.24126 0.0
C1121 C 0.78816 0.58745 0.25656 0.0
C1122 C 0.77734 0.5762 0.22666 0.0
C1123 C 0.77097 0.57891 0.18144 0.0
H1124 H 0.4351 0.19289 0.15965 0.0
H1125 H 0.39022 0.17525 0.18358 0.0
H1126 H 0.43972 0.2087 0.23937 0.0
H1127 H 0.39481 0.19065 0.26346 0.0
H1128 H 0.4073 0.21103 0.43096 0.0
H1129 H 0.407 0.19471 0.36174 0.0
H1130 H 0.43332 0.22968 0.25418 0.0
H1131 H 0.43353 0.24625 0.32341 0.0
C1132 C 0.42626 0.19217 0.18274 0.0
C1133 C 0.41231 0.18287 0.16568 0.0
C1134 C 0.4289 0.20125 0.22789 0.0
C1135 C 0.41762 0.20085 0.25736 0.0
C1136 C 0.4037 0.19109 0.24165 0.0
C1137 C 0.40107 0.1823 0.19595 0.0
C1138 C 0.41324 0.21535 0.39302 0.0
C1139 C 0.42027 0.22998 0.38239 0.0
C1140 C 0.41306 0.20595 0.35346 0.0
C1141 C 0.42004 0.21095 0.30265 0.0
C1142 C 0.42791 0.2256 0.29329 0.0
C1143 C 0.42797 0.23505 0.33278 0.0
H1144 H 0.83397 0.21957 0.19081 0.0
H1145 H 0.81621 0.24665 0.16554 0.0
H1146 H 0.81905 0.20932 0.27222 0.0
H1147 H 0.80098 0.23612 0.24708 0.0
H1148 H 0.79809 0.20012 0.43743 0.0
H1149 H 0.81476 0.21619 0.36905 0.0
H1150 H 0.78013 0.21021 0.26455 0.0
H1151 H 0.76328 0.19395 0.33296 0.0
C1152 C 0.82703 0.22349 0.20329 0.0
C1153 C 0.82624 0.23389 0.17195 0.0
C1154 C 0.81852 0.21766 0.24999 0.0
C1155 C 0.80885 0.22192 0.26585 0.0
C1156 C 0.80834 0.23264 0.23557 0.0
C1157 C 0.8171 0.23872 0.1893 0.0
C1158 C 0.79396 0.20238 0.4004 0.0
C1159 C 0.77931 0.19555 0.39032 0.0
C1160 C 0.80354 0.21159 0.36125 0.0
C1161 C 0.79873 0.21432 0.31137 0.0
C1162 C 0.78411 0.20833 0.30285 0.0
C1163 C 0.77447 0.19897 0.34191 0.0
H1164 H 0.93073 0.47271 0.731 0.0
H1165 H 0.90449 0.48198 0.8372 0.0
H1166 H 0.93073 0.45662 0.80058 0.0
H1167 H 0.90439 0.46554 0.90679 0.0
H1168 H 0.90207 0.42651 0.00101 0.0
H1169 H 0.89774 0.43789 0.92119 0.0
H1170 H 0.94273 0.46486 0.89973 0.0
H1171 H 0.94703 0.45386 0.9797 0.0
C1172 C 0.92473 0.47114 0.76871 0.0
C1173 C 0.91778 0.47884 0.77886 0.0
C1174 C 0.92474 0.46189 0.80847 0.0
C1175 C 0.91765 0.45995 0.859 0.0
C1176 C 0.90988 0.46684 0.86789 0.0
C1177 C 0.90999 0.47628 0.8282 0.0
C1178 C 0.911 0.4347 0.97848 0.0
C1179 C 0.92489 0.43931 0.99627 0.0
C1180 C 0.90851 0.44125 0.93329 0.0
C1181 C 0.91991 0.45221 0.90453 0.0
C1182 C 0.93377 0.45636 0.92101 0.0
C1183 C 0.93623 0.45008 0.96674 0.0
H1184 H 0.58022 0.47695 0.00243 0.0
H1185 H 0.55274 0.49427 0.97774 0.0
H1186 H 0.56904 0.46096 0.92316 0.0
H1187 H 0.54194 0.47869 0.89826 0.0
H1188 H 0.53459 0.45835 0.73051 0.0
H1189 H 0.55049 0.47469 0.79995 0.0
H1190 H 0.54138 0.43979 0.90858 0.0
H1191 H 0.52512 0.42319 0.83913 0.0
C1192 C 0.57204 0.47756 0.97927 0.0
C1193 C 0.56733 0.48683 0.99596 0.0
C1194 C 0.5656 0.46837 0.93439 0.0
C1195 C 0.55467 0.46864 0.90482 0.0
C1196 C 0.55042 0.47835 0.92019 0.0
C1197 C 0.55659 0.48724 0.96563 0.0
C1198 C 0.53608 0.45405 0.76873 0.0
C1199 C 0.52838 0.43943 0.77957 0.0
C1200 C 0.54523 0.46345 0.80842 0.0
C1201 C 0.54705 0.45849 0.85956 0.0
C1202 C 0.54017 0.44385 0.8692 0.0
C1203 C 0.53084 0.43437 0.82958 0.0
H1204 H 0.55476 0.08811 0.7438 0.0
H1205 H 0.58671 0.09414 0.86369 0.0
H1206 H 0.53946 0.08757 0.81858 0.0
H1207 H 0.57134 0.09359 0.93851 0.0
H1208 H 0.53111 0.06641 0.04381 0.0
H1209 H 0.54841 0.07237 0.97045 0.0
H1210 H 0.53635 0.10108 0.89956 0.0
H1211 H 0.51892 0.09517 0.974 0.0
C1212 C 0.55865 0.08964 0.78604 0.0
C1213 C 0.57188 0.09098 0.79793 0.0
C1214 C 0.54989 0.08939 0.8288 0.0
C1215 C 0.55414 0.09034 0.88431 0.0
C1216 C 0.56775 0.09265 0.89601 0.0
C1217 C 0.57658 0.09306 0.85318 0.0
C1218 C 0.53208 0.07398 0.01265 0.0
C1219 C 0.52358 0.08027 0.01462 0.0
C1220 C 0.54213 0.07752 0.97096 0.0
C1221 C 0.54386 0.08733 0.92976 0.0
C1222 C 0.53526 0.09352 0.93102 0.0
C1223 C 0.52527 0.09011 0.97343 0.0
H1224 H 0.51366 0.09412 0.36153 0.0
H1225 H 0.53876 0.08644 0.24313 0.0
H1226 H 0.52874 0.09419 0.43657 0.0
H1227 H 0.55378 0.08651 0.31815 0.0
H1228 H 0.5826 0.09548 0.47235 0.0
H1229 H 0.57086 0.10085 0.39702 0.0
H1230 H 0.53032 0.07316 0.47202 0.0
H1231 H 0.54186 0.06772 0.54625 0.0
C1232 C 0.52258 0.09279 0.35134 0.0
C1233 C 0.5249 0.09008 0.29653 0.0
C1234 C 0.53116 0.09275 0.39431 0.0
C1235 C 0.54231 0.09018 0.38316 0.0
C1236 C 0.54529 0.08856 0.32792 0.0
C1237 C 0.53662 0.08844 0.28505 0.0
C1238 C 0.57119 0.09054 0.47252 0.0
C1239 C 0.56316 0.08112 0.51506 0.0
C1240 C 0.5645 0.09363 0.42959 0.0
C1241 C 0.54971 0.08756 0.42918 0.0
C1242 C 0.54175 0.07821 0.47182 0.0
C1243 C 0.54837 0.07497 0.51402 0.0
H1244 H 0.91067 0.42308 0.35063 0.0
H1245 H 0.92067 0.45582 0.22898 0.0
H1246 H 0.91181 0.43906 0.42391 0.0
H1247 H 0.92162 0.4717 0.30252 0.0
H1248 H 0.91213 0.49131 0.46288 0.0
H1249 H 0.9063 0.47439 0.38616 0.0
H1250 H 0.9355 0.4624 0.4521 0.0
H1251 H 0.94155 0.47929 0.52721 0.0
C1252 C 0.91272 0.43353 0.33929 0.0
C1253 C 0.91575 0.43824 0.28411 0.0
C1254 C 0.91343 0.44268 0.38126 0.0
C1255 C 0.91694 0.45662 0.36873 0.0
C1256 C 0.91886 0.46099 0.31314 0.0
C1257 C 0.91837 0.45191 0.2712 0.0
C1258 C 0.91736 0.48512 0.46057 0.0
C1259 C 0.92733 0.48667 0.50097 0.0
C1260 C 0.914 0.47546 0.41691 0.0
C1261 C 0.9203 0.46698 0.41395 0.0
C1262 C 0.93032 0.46865 0.45401 0.0
C1263 C 0.93387 0.47843 0.49671 0.0
H1264 H 0.5159 0.42165 0.46176 0.0
H1265 H 0.52777 0.46282 0.52866 0.0
H1266 H 0.53257 0.43307 0.38454 0.0
H1267 H 0.54441 0.474 0.45304 0.0
H1268 H 0.58352 0.48904 0.3494 0.0
H1269 H 0.56778 0.47394 0.42277 0.0
H1270 H 0.53482 0.4513 0.30229 0.0
H1271 H 0.55046 0.4665 0.22866 0.0
C1272 C 0.522 0.43308 0.45992 0.0
C1273 C 0.52049 0.44133 0.50116 0.0
C1274 C 0.53153 0.43958 0.41597 0.0
C1275 C 0.53988 0.45438 0.41356 0.0
C1276 C 0.53825 0.46256 0.4545 0.0
C1277 C 0.52861 0.45613 0.4975 0.0
C1278 C 0.57305 0.48064 0.33826 0.0
C1279 C 0.56818 0.47908 0.28335 0.0
C1280 C 0.56404 0.47205 0.38028 0.0
C1281 C 0.55009 0.46158 0.36805 0.0
C1282 C 0.54555 0.45928 0.31266 0.0
C1283 C 0.55449 0.46802 0.27068 0.0
H1284 H 0.39594 0.20702 0.63408 0.0
H1285 H 0.42554 0.24832 0.69917 0.0
H1286 H 0.40156 0.196 0.70981 0.0
H1287 H 0.43093 0.23706 0.77654 0.0
H1288 H 0.4156 0.20359 0.93311 0.0
H1289 H 0.41488 0.2187 0.85974 0.0
H1290 H 0.42544 0.1964 0.73863 0.0
H1291 H 0.42637 0.18141 0.81173 0.0
C1292 C 0.40356 0.21377 0.66489 0.0
C1293 C 0.41029 0.22857 0.66064 0.0
C1294 C 0.40686 0.20743 0.70795 0.0
C1295 C 0.4168 0.21569 0.74838 0.0
C1296 C 0.42328 0.23049 0.74549 0.0
C1297 C 0.42017 0.2369 0.70146 0.0
C1298 C 0.4181 0.20213 0.89101 0.0
C1299 C 0.42089 0.1912 0.87809 0.0
C1300 C 0.41775 0.21082 0.84918 0.0
C1301 C 0.41997 0.20858 0.79371 0.0
C1302 C 0.4236 0.19825 0.7812 0.0
C1303 C 0.42419 0.18971 0.82307 0.0
H1304 H 0.76125 0.19148 0.66659 0.0
H1305 H 0.78845 0.17373 0.68841 0.0
H1306 H 0.77205 0.20659 0.74818 0.0
H1307 H 0.79898 0.18855 0.7699 0.0
H1308 H 0.80851 0.20926 0.93614 0.0
H1309 H 0.79241 0.19268 0.86757 0.0
H1310 H 0.798 0.22744 0.76485 0.0
H1311 H 0.81429 0.24421 0.83343 0.0
C1312 C 0.76927 0.19057 0.6896 0.0
C1313 C 0.77404 0.18146 0.67126 0.0
C1314 C 0.7755 0.19927 0.7359 0.0
C1315 C 0.78634 0.19873 0.76522 0.0
C1316 C 0.79056 0.18909 0.7484 0.0
C1317 C 0.78456 0.18064 0.70166 0.0
C1318 C 0.80617 0.21344 0.89945 0.0
C1319 C 0.81288 0.2281 0.88994 0.0
C1320 C 0.79694 0.20391 0.86019 0.0
C1321 C 0.79407 0.20878 0.81078 0.0
C1322 C 0.79999 0.22341 0.80279 0.0
C1323 C 0.80936 0.233 0.84193 0.0
H1324 H 0.76036 0.57811 0.81175 0.0
H1325 H 0.79368 0.58991 0.93243 0.0
H1326 H 0.77626 0.57901 0.73863 0.0
H1327 H 0.80948 0.59058 0.859 0.0
H1328 H 0.82837 0.57976 0.69806 0.0
H1329 H 0.81182 0.5743 0.77591 0.0
H1330 H 0.79956 0.60322 0.70922 0.0
H1331 H 0.8161 0.60892 0.63305 0.0
C1332 C 0.77093 0.58051 0.82296 0.0
C1333 C 0.77582 0.58412 0.87775 0.0
C1334 C 0.78002 0.58106 0.78108 0.0
C1335 C 0.79408 0.58498 0.79334 0.0
C1336 C 0.79867 0.5875 0.84865 0.0
C1337 C 0.78964 0.58717 0.8905 0.0
C1338 C 0.82222 0.58502 0.70047 0.0
C1339 C 0.82357 0.59479 0.65953 0.0
C1340 C 0.81276 0.58187 0.74476 0.0
C1341 C 0.80431 0.5882 0.74779 0.0
C1342 C 0.8058 0.59804 0.70725 0.0
C1343 C 0.81539 0.60139 0.66393 0.0
H1344 H 0.42665 0.9045 0.5023 0.0
H1345 H 0.45341 0.9495 0.52492 0.0
H1346 H 0.43753 0.90028 0.58385 0.0
H1347 H 0.46402 0.94531 0.60631 0.0
H1348 H 0.47384 0.9343 0.77204 0.0
H1349 H 0.45759 0.93455 0.70369 0.0
H1350 H 0.46353 0.90565 0.6007 0.0
H1351 H 0.47997 0.9054 0.66909 0.0
C1352 C 0.43459 0.91346 0.52549 0.0
C1353 C 0.43922 0.92733 0.50739 0.0
C1354 C 0.44086 0.91104 0.57176 0.0
C1355 C 0.45161 0.92246 0.60127 0.0
C1356 C 0.45567 0.9363 0.58467 0.0
C1357 C 0.44963 0.93871 0.53799 0.0
C1358 C 0.47155 0.92779 0.73533 0.0
C1359 C 0.4784 0.91999 0.72569 0.0
C1360 C 0.46223 0.92796 0.6962 0.0
C1361 C 0.45941 0.92023 0.64677 0.0
C1362 C 0.46547 0.91166 0.63866 0.0
C1363 C 0.47493 0.91157 0.67769 0.0
H1364 H 0.08802 0.55335 0.74501 0.0
H1365 H 0.09435 0.58535 0.62486 0.0
H1366 H 0.08734 0.53796 0.67034 0.0
H1367 H 0.09365 0.56989 0.55018 0.0
H1368 H 0.06632 0.52974 0.44485 0.0
H1369 H 0.07228 0.54698 0.51842 0.0
H1370 H 0.10089 0.53479 0.58931 0.0
H1371 H 0.09499 0.51742 0.51463 0.0
C1372 C 0.08957 0.55723 0.70274 0.0
C1373 C 0.09105 0.57051 0.69075 0.0
C1374 C 0.08925 0.54842 0.66005 0.0
C1375 C 0.09025 0.55266 0.60451 0.0
C1376 C 0.09268 0.5663 0.59271 0.0
C1377 C 0.09317 0.57519 0.63546 0.0
C1378 C 0.07387 0.53066 0.47606 0.0
C1379 C 0.08015 0.52216 0.47399 0.0
C1380 C 0.0774 0.54068 0.51788 0.0
C1381 C 0.08719 0.54237 0.5591 0.0
C1382 C 0.09334 0.53373 0.55782 0.0
C1383 C 0.08995 0.52378 0.51527 0.0
H1384 H 0.46135 0.52993 0.75381 0.0
H1385 H 0.42595 0.51957 0.64522 0.0
H1386 H 0.47748 0.54587 0.68395 0.0
H1387 H 0.44235 0.53589 0.57534 0.0
H1388 H 0.47952 0.57594 0.48426 0.0
H1389 H 0.46339 0.56416 0.56266 0.0
H1390 H 0.48145 0.53726 0.58437 0.0
H1391 H 0.49716 0.54864 0.50568 0.0
C1392 C 0.45694 0.53122 0.71547 0.0
C1393 C 0.44232 0.52328 0.70484 0.0
C1394 C 0.46623 0.54038 0.67556 0.0
C1395 C 0.46114 0.54202 0.62439 0.0
C1396 C 0.44649 0.53484 0.61477 0.0
C1397 C 0.43714 0.52547 0.65461 0.0
C1398 C 0.48016 0.56766 0.50651 0.0
C1399 C 0.48958 0.5632 0.4892 0.0
C1400 C 0.47089 0.56088 0.55085 0.0
C1401 C 0.47123 0.54984 0.57927 0.0
C1402 C 0.48105 0.54581 0.56325 0.0
C1403 C 0.49003 0.55231 0.51831 0.0
H1404 H 0.5777 0.82647 0.19558 0.0
H1405 H 0.58439 0.80095 0.07593 0.0
H1406 H 0.57827 0.81167 0.27042 0.0
H1407 H 0.58495 0.78621 0.15075 0.0
H1408 H 0.57752 0.75809 0.30614 0.0
H1409 H 0.57143 0.76945 0.23159 0.0
H1410 H 0.59969 0.81034 0.30271 0.0
H1411 H 0.60583 0.79918 0.37614 0.0
C1412 C 0.57892 0.81751 0.1851 0.0
C1413 C 0.58119 0.815 0.12994 0.0
C1414 C 0.57933 0.80909 0.22795 0.0
C1415 C 0.58185 0.79793 0.21635 0.0
C1416 C 0.58297 0.79473 0.16088 0.0
C1417 C 0.58271 0.80322 0.11811 0.0
C1418 C 0.58244 0.7695 0.3056 0.0
C1419 C 0.59221 0.77774 0.34685 0.0
C1420 C 0.57893 0.77598 0.26313 0.0
C1421 C 0.58494 0.79076 0.2619 0.0
C1422 C 0.59467 0.79892 0.30319 0.0
C1423 C 0.59832 0.79251 0.34493 0.0
H1424 H 0.22066 0.83381 0.29232 0.0
H1425 H 0.24749 0.8157 0.31562 0.0
H1426 H 0.20996 0.81879 0.21148 0.0
H1427 H 0.23652 0.80037 0.23465 0.0
H1428 H 0.20044 0.7979 0.04563 0.0
H1429 H 0.21654 0.81444 0.11421 0.0
H1430 H 0.21045 0.77965 0.21788 0.0
H1431 H 0.19414 0.7629 0.14921 0.0
C1432 C 0.22443 0.82676 0.27954 0.0
C1433 C 0.2349 0.82592 0.31014 0.0
C1434 C 0.21833 0.8182 0.23318 0.0
C1435 C 0.22241 0.80841 0.21691 0.0
C1436 C 0.23318 0.80781 0.24649 0.0
C1437 C 0.23951 0.81664 0.29242 0.0
C1438 C 0.20266 0.79369 0.08255 0.0
C1439 C 0.19581 0.77904 0.09225 0.0
C1440 C 0.2119 0.80321 0.12182 0.0
C1441 C 0.21463 0.79832 0.17148 0.0
C1442 C 0.20857 0.78369 0.17974 0.0
C1443 C 0.19918 0.77411 0.14055 0.0
H1444 H 0.22165 0.42061 0.08007 0.0
H1445 H 0.25314 0.42508 0.19942 0.0
H1446 H 0.20666 0.42053 0.15512 0.0
H1447 H 0.2381 0.42505 0.2746 0.0
H1448 H 0.19774 0.39922 0.38059 0.0
H1449 H 0.21499 0.40468 0.30746 0.0
H1450 H 0.20398 0.43407 0.23552 0.0
H1451 H 0.18657 0.42863 0.30961 0.0
C1452 C 0.22551 0.42188 0.12229 0.0
C1453 C 0.2385 0.42266 0.1339 0.0
C1454 C 0.21694 0.42191 0.16522 0.0
C1455 C 0.22113 0.42259 0.22068 0.0
C1456 C 0.23454 0.42432 0.23216 0.0
C1457 C 0.24319 0.42443 0.18913 0.0
C1458 C 0.19894 0.40684 0.34926 0.0
C1459 C 0.19072 0.41344 0.35078 0.0
C1460 C 0.20896 0.41009 0.30769 0.0
C1461 C 0.21097 0.41993 0.26622 0.0
C1462 C 0.20267 0.42647 0.26715 0.0
C1463 C 0.1927 0.42333 0.30937 0.0
H1464 H 0.24856 0.42799 0.80827 0.0
H1465 H 0.20764 0.40063 0.88159 0.0
H1466 H 0.23711 0.43389 0.73355 0.0
H1467 H 0.19637 0.40655 0.80788 0.0
H1468 H 0.18002 0.42764 0.69717 0.0
H1469 H 0.19491 0.4275 0.77256 0.0
H1470 H 0.22028 0.42022 0.65438 0.0
H1471 H 0.20548 0.4204 0.57907 0.0
C1472 C 0.23717 0.42325 0.80846 0.0
C1473 C 0.229 0.41378 0.85063 0.0
C1474 C 0.23063 0.42665 0.76587 0.0
C1475 C 0.21587 0.42082 0.76537 0.0
C1476 C 0.20779 0.41143 0.80773 0.0
C1477 C 0.21425 0.40791 0.84964 0.0
C1478 C 0.18898 0.42637 0.68714 0.0
C1479 C 0.19145 0.42384 0.63228 0.0
C1480 C 0.19745 0.4262 0.7303 0.0
C1481 C 0.20862 0.42365 0.71932 0.0
C1482 C 0.21177 0.42224 0.66407 0.0
C1483 C 0.20323 0.42227 0.62101 0.0
H1484 H 0.57718 0.82153 0.80504 0.0
H1485 H 0.60526 0.80893 0.87858 0.0
H1486 H 0.57191 0.80445 0.72971 0.0
H1487 H 0.59993 0.79199 0.80435 0.0
H1488 H 0.57905 0.75423 0.69416 0.0
H1489 H 0.579 0.76925 0.76923 0.0
H1490 H 0.58619 0.80178 0.65062 0.0
H1491 H 0.58624 0.78683 0.57558 0.0
C1492 C 0.58221 0.81515 0.80512 0.0
C1493 C 0.59168 0.81664 0.84759 0.0
C1494 C 0.57918 0.80538 0.76219 0.0
C1495 C 0.58536 0.79677 0.76169 0.0
C1496 C 0.59479 0.79828 0.80422 0.0
C1497 C 0.59796 0.80813 0.84643 0.0
C1498 C 0.58028 0.76444 0.68395 0.0
C1499 C 0.58284 0.76942 0.62906 0.0
C1500 C 0.58033 0.77306 0.72693 0.0
C1501 C 0.58277 0.78674 0.71573 0.0
C1502 C 0.58425 0.79128 0.66044 0.0
C1503 C 0.58435 0.78273 0.61755 0.0
H1504 H 0.17525 0.7887 0.79272 0.0
H1505 H 0.19308 0.76162 0.81581 0.0
H1506 H 0.1903 0.79934 0.71191 0.0
H1507 H 0.20844 0.77254 0.7349 0.0
H1508 H 0.24609 0.81477 0.64948 0.0
H1509 H 0.22929 0.79857 0.71825 0.0
H1510 H 0.19457 0.79268 0.61454 0.0
H1511 H 0.21117 0.80867 0.54583 0.0
C1512 C 0.18224 0.78487 0.77991 0.0
C1513 C 0.183 0.77433 0.81043 0.0
C1514 C 0.19083 0.79093 0.73357 0.0
C1515 C 0.20055 0.78677 0.71727 0.0
C1516 C 0.20105 0.77595 0.74678 0.0
C1517 C 0.19221 0.76964 0.79268 0.0
C1518 C 0.23488 0.8098 0.64084 0.0
C1519 C 0.23 0.81319 0.59247 0.0
C1520 C 0.22528 0.80048 0.68008 0.0
C1521 C 0.21065 0.7945 0.67183 0.0
C1522 C 0.20579 0.79726 0.62214 0.0
C1523 C 0.21534 0.80643 0.58279 0.0
H1524 H 0.06828 0.541 0.94283 0.0
H1525 H 0.09593 0.58179 0.01656 0.0
H1526 H 0.07377 0.52954 0.01713 0.0
H1527 H 0.10134 0.57012 0.09204 0.0
H1528 H 0.08678 0.53786 0.24588 0.0
H1529 H 0.08691 0.55292 0.17093 0.0
H1530 H 0.09497 0.52814 0.0526 0.0
H1531 H 0.09486 0.51302 0.12757 0.0
C1532 C 0.07552 0.54754 0.97504 0.0
C1533 C 0.08162 0.56232 0.97393 0.0
C1534 C 0.07878 0.54096 0.01729 0.0
C1535 C 0.08812 0.54895 0.05992 0.0
C1536 C 0.09415 0.56373 0.05945 0.0
C1537 C 0.09103 0.57038 0.01645 0.0
C1538 C 0.08888 0.5358 0.20402 0.0
C1539 C 0.09061 0.52412 0.19251 0.0
C1540 C 0.08903 0.54448 0.16119 0.0
C1541 C 0.09076 0.54158 0.10597 0.0
C1542 C 0.09344 0.5305 0.09484 0.0
C1543 C 0.09346 0.5219 0.13777 0.0
H1544 H 0.4251 0.51257 0.02548 0.0
H1545 H 0.46636 0.52574 0.95635 0.0
H1546 H 0.43634 0.52946 0.10218 0.0
H1547 H 0.47736 0.54257 0.03148 0.0
H1548 H 0.49212 0.58105 0.1373 0.0
H1549 H 0.47705 0.56543 0.0636 0.0
H1550 H 0.4546 0.53217 0.18316 0.0
H1551 H 0.46973 0.54769 0.25707 0.0
C1552 C 0.43651 0.51903 0.02667 0.0
C1553 C 0.44485 0.51778 0.98506 0.0
C1554 C 0.44291 0.52868 0.07032 0.0
C1555 C 0.45768 0.53742 0.07207 0.0
C1556 C 0.46594 0.53612 0.03055 0.0
C1557 C 0.45962 0.52636 0.98784 0.0
C1558 C 0.48375 0.57054 0.14817 0.0
C1559 C 0.48224 0.56555 0.20288 0.0
C1560 C 0.47518 0.56159 0.10596 0.0
C1561 C 0.46479 0.54758 0.11781 0.0
C1562 C 0.46251 0.54294 0.17306 0.0
C1563 C 0.47123 0.55181 0.21521 0.0
H1564 H 0.48177 0.90523 0.00109 0.0
H1565 H 0.49939 0.95009 0.02557 0.0
H1566 H 0.46647 0.90055 0.08233 0.0
H1567 H 0.4844 0.94544 0.10672 0.0
H1568 H 0.42864 0.90482 0.16778 0.0
H1569 H 0.44554 0.90556 0.09927 0.0
H1570 H 0.48011 0.93433 0.2038 0.0
H1571 H 0.4634 0.93358 0.27229 0.0
C1572 C 0.48262 0.91407 0.02461 0.0
C1573 C 0.49174 0.92802 0.00712 0.0
C1574 C 0.4738 0.91139 0.07071 0.0
C1575 C 0.47426 0.92264 0.10069 0.0
C1576 C 0.48391 0.93657 0.0847 0.0
C1577 C 0.49247 0.93923 0.03816 0.0
C1578 C 0.43984 0.91107 0.17669 0.0
C1579 C 0.44464 0.9193 0.22519 0.0
C1580 C 0.4495 0.91143 0.13758 0.0
C1581 C 0.46412 0.92011 0.14611 0.0
C1582 C 0.4689 0.92766 0.196 0.0
C1583 C 0.45929 0.9272 0.23521 0.0
H1584 H 0.23332 0.36085 0.96105 0.0
H1585 H 0.26239 0.37432 0.0993 0.0
H1586 H 0.22422 0.33627 0.98749 0.0
H1587 H 0.25327 0.34968 0.12554 0.0
H1588 H 0.2148 0.30791 0.19731 0.0
H1589 H 0.22986 0.33206 0.16509 0.0
H1590 H 0.22953 0.31664 -0.00016 0.0
H1591 H 0.2144 0.2924 0.03202 0.0
C1592 C 0.23797 0.35857 0.99642 0.0
C1593 C 0.24849 0.36958 0.02837 0.0
C1594 C 0.2328 0.34446 0.01139 0.0
C1595 C 0.23795 0.34104 0.05888 0.0
C1596 C 0.24899 0.35201 0.08909 0.0
C1597 C 0.25426 0.36612 0.07383 0.0
C1598 C 0.21818 0.30962 0.15436 0.0
C1599 C 0.21328 0.29822 0.11716 0.0
C1600 C 0.22688 0.32348 0.13594 0.0
C1601 C 0.23078 0.32626 0.07979 0.0
C1602 C 0.22656 0.31482 0.04322 0.0
C1603 C 0.21797 0.30093 0.06179 0.0
H1604 H 0.69534 0.90503 0.20173 0.0
H1605 H 0.71065 0.92347 0.04003 0.0
H1606 H 0.67111 0.8961 0.17071 0.0
H1607 H 0.68635 0.91453 0.00912 0.0
H1608 H 0.62854 0.8867 0.10889 0.0
H1609 H 0.6531 0.90205 0.13689 0.0
H1610 H 0.66713 0.88977 0.99062 0.0
H1611 H 0.64265 0.87447 0.96249 0.0
C1612 C 0.69356 0.90744 0.15994 0.0
C1613 C 0.70494 0.91484 0.12323 0.0
C1614 C 0.67966 0.90238 0.14223 0.0
C1615 C 0.67681 0.90451 0.08729 0.0
C1616 C 0.68821 0.9126 0.05152 0.0
C1617 C 0.70214 0.91779 0.06938 0.0
C1618 C 0.63686 0.88749 0.08207 0.0
C1619 C 0.63361 0.87923 0.03369 0.0
C1620 C 0.65093 0.89624 0.09833 0.0
C1621 C 0.66204 0.89704 0.06622 0.0
C1622 C 0.65881 0.88948 0.01608 0.0
C1623 C 0.64476 0.88063 0.00011 0.0
H1624 H 0.12819 0.76881 0.95365 0.0
H1625 H 0.12263 0.74611 0.10703 0.0
H1626 H 0.11265 0.77705 0.98766 0.0
H1627 H 0.10682 0.75421 0.14073 0.0
H1628 H 0.10307 0.79269 0.20564 0.0
H1629 H 0.11159 0.7774 0.17141 0.0
H1630 H 0.08927 0.77197 0.01724 0.0
H1631 H 0.0809 0.78754 0.05119 0.0
C1632 C 0.12339 0.76529 0.99413 0.0
C1633 C 0.12684 0.75696 0.02789 0.0
C1634 C 0.11437 0.76996 0.01355 0.0
C1635 C 0.10859 0.76642 0.06722 0.0
C1636 C 0.11128 0.7573 0.09953 0.0
C1637 C 0.12028 0.75259 0.08004 0.0
C1638 C 0.09972 0.78802 0.16486 0.0
C1639 C 0.09146 0.79153 0.13089 0.0
C1640 C 0.10455 0.77915 0.14531 0.0
C1641 C 0.10125 0.77357 0.09128 0.0
C1642 C 0.09218 0.77629 0.05873 0.0
C1643 C 0.08732 0.78514 0.07836 0.0
H1644 H 0.29477 0.219 0.43967 0.0
H1645 H 0.30991 0.20953 0.2892 0.0
H1646 H 0.31913 0.2347 0.46911 0.0
H1647 H 0.33418 0.22513 0.31882 0.0
H1648 H 0.37724 0.25848 0.37315 0.0
H1649 H 0.35297 0.24956 0.34181 0.0
H1650 H 0.33748 0.22921 0.50036 0.0
H1651 H 0.36165 0.23815 0.53182 0.0
C1652 C 0.30326 0.22048 0.4123 0.0
C1653 C 0.30037 0.21287 0.36232 0.0
C1654 C 0.31722 0.22942 0.42937 0.0
C1655 C 0.32859 0.23106 0.39657 0.0
C1656 C 0.32568 0.22419 0.3449 0.0
C1657 C 0.31175 0.21517 0.32805 0.0
C1658 C 0.36867 0.25238 0.4018 0.0
C1659 C 0.3714 0.2489 0.45482 0.0
C1660 C 0.35476 0.2472 0.38367 0.0
C1661 C 0.3433 0.23857 0.41838 0.0
C1662 C 0.34606 0.23591 0.47269 0.0
C1663 C 0.35994 0.24098 0.49064 0.0
H1664 H 0.75095 0.12569 0.36386 0.0
H1665 H 0.76621 0.12526 0.52884 0.0
H1666 H 0.75995 0.1105 0.33137 0.0
H1667 H 0.77518 0.11013 0.49631 0.0
H1668 H 0.8002 0.10646 0.29181 0.0
H1669 H 0.78484 0.11568 0.31857 0.0
H1670 H 0.7692 0.08666 0.45672 0.0
H1671 H 0.78458 0.07742 0.43015 0.0
C1672 C 0.75593 0.1221 0.3935 0.0
C1673 C 0.75798 0.1268 0.44887 0.0
C1674 C 0.76116 0.11348 0.37475 0.0
C1675 C 0.76837 0.10921 0.41114 0.0
C1676 C 0.76958 0.11314 0.46729 0.0
C1677 C 0.7645 0.12188 0.48589 0.0
C1678 C 0.79329 0.10184 0.32726 0.0
C1679 C 0.79375 0.0913 0.35915 0.0
C1680 C 0.78442 0.10708 0.34242 0.0
C1681 C 0.77589 0.10197 0.39004 0.0
C1682 C 0.77577 0.09091 0.42017 0.0
C1683 C 0.78454 0.08557 0.40472 0.0
H1684 H 0.92964 0.71073 0.44023 0.0
H1685 H 0.90302 0.69669 0.29455 0.0
H1686 H 0.92081 0.68617 0.467 0.0
H1687 H 0.89421 0.6722 0.32148 0.0
H1688 H 0.88199 0.64355 0.53146 0.0
H1689 H 0.89695 0.66788 0.50101 0.0
H1690 H 0.90017 0.65315 0.3384 0.0
H1691 H 0.88515 0.62873 0.3688 0.0
C1692 C 0.92213 0.70243 0.4133 0.0
C1693 C 0.91693 0.7057 0.3655 0.0
C1694 C 0.91703 0.68836 0.42884 0.0
C1695 C 0.90674 0.67725 0.3966 0.0
C1696 C 0.90221 0.68051 0.34701 0.0
C1697 C 0.90721 0.69457 0.33174 0.0
C1698 C 0.88612 0.64547 0.48955 0.0
C1699 C 0.88225 0.63419 0.45244 0.0
C1700 C 0.89476 0.65943 0.47217 0.0
C1701 C 0.89964 0.66244 0.41714 0.0
C1702 C 0.89644 0.65115 0.38089 0.0
C1703 C 0.88791 0.63716 0.39846 0.0
H1704 H 0.79852 0.69651 0.79627 0.0
H1705 H 0.78759 0.71054 0.94624 0.0
H1706 H 0.78339 0.67201 0.82461 0.0
H1707 H 0.77246 0.68596 0.97455 0.0
H1708 H 0.74941 0.62852 0.87614 0.0
H1709 H 0.7584 0.65291 0.84616 0.0
H1710 H 0.77899 0.66784 0.00462 0.0
H1711 H 0.77008 0.64353 0.03462 0.0
C1712 C 0.79268 0.69437 0.83476 0.0
C1713 C 0.79437 0.7055 0.86919 0.0
C1714 C 0.78394 0.68031 0.85086 0.0
C1715 C 0.77681 0.67706 0.90201 0.0
C1716 C 0.77793 0.68816 0.93514 0.0
C1717 C 0.78654 0.70223 0.91872 0.0
C1718 C 0.75559 0.63699 0.90505 0.0
C1719 C 0.75913 0.63407 0.95764 0.0
C1720 C 0.76081 0.65096 0.8877 0.0
C1721 C 0.76948 0.66228 0.92286 0.0
C1722 C 0.77225 0.65934 0.9767 0.0
C1723 C 0.76719 0.6454 0.99379 0.0
H1724 H 0.36159 0.12747 0.03556 0.0
H1725 H 0.37678 0.11877 0.88349 0.0
H1726 H 0.33733 0.11188 0.00582 0.0
H1727 H 0.35243 0.10306 0.85393 0.0
H1728 H 0.29436 0.07853 0.95099 0.0
H1729 H 0.31867 0.0875 0.98176 0.0
H1730 H 0.33393 0.10848 0.82412 0.0
H1731 H 0.30971 0.09949 0.7932 0.0
C1732 C 0.35977 0.122 0.9963 0.0
C1733 C 0.37115 0.12451 0.96166 0.0
C1734 C 0.34584 0.11298 0.97938 0.0
C1735 C 0.34295 0.10632 0.92727 0.0
C1736 C 0.35432 0.10817 0.89402 0.0
C1737 C 0.36828 0.11712 0.91115 0.0
C1738 C 0.30288 0.08479 0.92241 0.0
C1739 C 0.30008 0.08842 0.86982 0.0
C1740 C 0.31682 0.09 0.94021 0.0
C1741 C 0.32823 0.09881 0.90561 0.0
C1742 C 0.32539 0.10163 0.85168 0.0
C1743 C 0.31148 0.09654 0.83405 0.0
H1744 H 0.9296 0.22128 0.93588 0.0
H1745 H 0.90192 0.20783 0.79325 0.0
H1746 H 0.92077 0.23697 0.96326 0.0
H1747 H 0.8931 0.22344 0.82081 0.0
H1748 H 0.88225 0.24058 0.03212 0.0
H1749 H 0.89732 0.2315 0.00018 0.0
H1750 H 0.89862 0.24821 0.83659 0.0
H1751 H 0.88346 0.2573 0.86845 0.0
C1752 C 0.92185 0.22186 0.90973 0.0
C1753 C 0.91636 0.21317 0.86265 0.0
C1754 C 0.91674 0.23081 0.92563 0.0
C1755 C 0.90616 0.23137 0.89448 0.0
C1756 C 0.90134 0.22335 0.8455 0.0
C1757 C 0.90634 0.21432 0.82987 0.0
C1758 C 0.88598 0.2426 0.98963 0.0
C1759 C 0.88151 0.24954 0.95272 0.0
C1760 C 0.8947 0.23745 0.97138 0.0
C1761 C 0.89906 0.23902 0.91569 0.0
C1762 C 0.89529 0.2467 0.87958 0.0
C1763 C 0.88667 0.25198 0.89798 0.0
H1764 H 0.69719 0.79172 0.69816 0.0
H1765 H 0.71249 0.79076 0.53381 0.0
H1766 H 0.67298 0.77668 0.66659 0.0
H1767 H 0.68819 0.77562 0.50231 0.0
H1768 H 0.6444 0.77225 0.46055 0.0
H1769 H 0.66889 0.78109 0.4875 0.0
H1770 H 0.65497 0.75329 0.62955 0.0
H1771 H 0.6304 0.74445 0.60284 0.0
C1772 C 0.69541 0.78804 0.65559 0.0
C1773 C 0.70678 0.79257 0.6184 0.0
C1774 C 0.68152 0.77935 0.63755 0.0
C1775 C 0.67866 0.77506 0.58179 0.0
C1776 C 0.69006 0.77889 0.54537 0.0
C1777 C 0.70399 0.78749 0.56356 0.0
C1778 C 0.64654 0.76781 0.49697 0.0
C1779 C 0.63541 0.75775 0.52985 0.0
C1780 C 0.6606 0.77283 0.51223 0.0
C1781 C 0.66387 0.76797 0.56092 0.0
C1782 C 0.65278 0.75735 0.59215 0.0
C1783 C 0.6387 0.75224 0.57664 0.0
H1784 H 0.22083 0.92725 0.55251 0.0
H1785 H 0.21554 0.90466 0.70593 0.0
H1786 H 0.23661 0.91917 0.51836 0.0
H1787 H 0.23106 0.89643 0.6715 0.0
H1788 H 0.26284 0.88605 0.60712 0.0
H1789 H 0.25444 0.90157 0.64132 0.0
H1790 H 0.23184 0.89595 0.48775 0.0
H1791 H 0.24038 0.88068 0.45326 0.0
C1792 C 0.22324 0.9208 0.57942 0.0
C1793 C 0.21675 0.91645 0.63172 0.0
C1794 C 0.23222 0.91609 0.55967 0.0
C1795 C 0.23498 0.90701 0.59187 0.0
C1796 C 0.22928 0.9035 0.64569 0.0
C1797 C 0.22028 0.90816 0.66535 0.0
C1798 C 0.25635 0.88839 0.58011 0.0
C1799 C 0.25214 0.88195 0.52768 0.0
C1800 C 0.25146 0.89722 0.5999 0.0
C1801 C 0.24232 0.89987 0.5676 0.0
C1802 C 0.23894 0.89424 0.51365 0.0
C1803 C 0.24379 0.88539 0.49395 0.0
H1804 H 0.13274 0.36223 0.46287 0.0
H1805 H 0.11917 0.37604 0.60638 0.0
H1806 H 0.1172 0.33771 0.48967 0.0
H1807 H 0.10354 0.35143 0.63297 0.0
H1808 H 0.10004 0.30923 0.70009 0.0
H1809 H 0.10908 0.33345 0.66901 0.0
H1810 H 0.09247 0.31835 0.505 0.0
H1811 H 0.08343 0.29404 0.53599 0.0
C1812 C 0.12623 0.36005 0.49954 0.0
C1813 C 0.12733 0.37112 0.53279 0.0
C1814 C 0.11724 0.34597 0.51472 0.0
C1815 C 0.10921 0.34263 0.56369 0.0
C1816 C 0.10972 0.35368 0.59533 0.0
C1817 C 0.11862 0.36778 0.57989 0.0
C1818 C 0.09804 0.31103 0.65769 0.0
C1819 C 0.09114 0.29969 0.6204 0.0
C1820 C 0.10317 0.32493 0.63993 0.0
C1821 C 0.1016 0.32783 0.58438 0.0
C1822 C 0.09397 0.31645 0.54789 0.0
C1823 C 0.08873 0.30252 0.56579 0.0
H1824 H 0.0438 0.59479 0.71418 0.0
H1825 H 0.03033 0.56904 0.86224 0.0
H1826 H 0.01913 0.5854 0.68756 0.0
H1827 H 0.00574 0.55969 0.83551 0.0
H1828 H 0.96196 0.54966 0.78767 0.0
H1829 H 0.98638 0.56514 0.81723 0.0
H1830 H 1.00108 0.56115 0.65565 0.0
H1831 H 0.97676 0.54572 0.62601 0.0
C1832 C 0.0356 0.58736 0.74167 0.0
C1833 C 0.03906 0.58256 0.7901 0.0
C1834 C 0.02147 0.58194 0.7262 0.0
C1835 C 0.01049 0.57173 0.75919 0.0
C1836 C 0.01394 0.56762 0.80938 0.0
C1837 C 0.02805 0.57292 0.82455 0.0
C1838 C 0.97038 0.55233 0.75803 0.0
C1839 C 0.96741 0.54634 0.7046 0.0
C1840 C 0.98437 0.56113 0.77513 0.0
C1841 C 0.99565 0.56428 0.73894 0.0
C1842 C 0.99263 0.55902 0.68441 0.0
C1843 C 0.97867 0.55011 0.66751 0.0
H1844 H 0.43732 0.45974 0.86595 0.0
H1845 H 0.41395 0.45071 0.71234 0.0
H1846 H 0.44623 0.44425 0.83792 0.0
H1847 H 0.42281 0.43509 0.68456 0.0
H1848 H 0.46223 0.4318 0.62673 0.0
H1849 H 0.44678 0.44063 0.65622 0.0
H1850 H 0.44096 0.42003 0.8148 0.0
H1851 H 0.45656 0.41124 0.78548 0.0
C1852 C 0.43383 0.45422 0.82673 0.0
C1853 C 0.42506 0.45663 0.79111 0.0
C1854 C 0.43888 0.44525 0.81079 0.0
C1855 C 0.43533 0.43854 0.75875 0.0
C1856 C 0.42587 0.44026 0.7246 0.0
C1857 C 0.42074 0.44916 0.7407 0.0
C1858 C 0.45745 0.42891 0.6675 0.0
C1859 C 0.46078 0.42095 0.70395 0.0
C1860 C 0.4485 0.4339 0.6843 0.0
C1861 C 0.44273 0.43113 0.73806 0.0
C1862 C 0.44539 0.42248 0.77336 0.0
C1863 C 0.45426 0.41738 0.7564 0.0
H1864 H 0.54941 0.9615 0.70433 0.0
H1865 H 0.54797 0.97713 0.86748 0.0
H1866 H 0.565 0.98571 0.6728 0.0
H1867 H 0.56346 1.00125 0.83586 0.0
H1868 H 0.59649 0.04355 0.77273 0.0
H1869 H 0.58718 0.01894 0.80007 0.0
H1870 H 0.56001 0.00527 0.65611 0.0
H1871 H 0.56932 0.02979 0.62859 0.0
C1872 C 0.55265 0.97005 0.73382 0.0
C1873 C 0.54731 0.96738 0.78831 0.0
C1874 C 0.56151 0.98392 0.71561 0.0
C1875 C 0.56536 0.9954 0.75166 0.0
C1876 C 0.56079 0.99265 0.80713 0.0
C1877 C 0.55183 0.97881 0.82519 0.0
C1878 C 0.58875 0.0353 0.74624 0.0
C1879 C 0.58354 0.03866 0.69875 0.0
C1880 C 0.58337 0.0212 0.76212 0.0
C1881 C 0.57278 0.01017 0.73054 0.0
C1882 C 0.56824 0.01351 0.68115 0.0
C1883 C 0.57353 0.02759 0.66554 0.0
H1884 H 0.46567 0.02853 0.12918 0.0
H1885 H 0.45216 0.04287 0.27125 0.0
H1886 H 0.44985 0.0041 0.15649 0.0
H1887 H 0.43626 0.01837 0.29834 0.0
H1888 H 0.41568 0.96068 0.20335 0.0
H1889 H 0.42499 0.98497 0.17157 0.0
H1890 H 0.44142 1.00024 0.33564 0.0
H1891 H 0.4321 0.97604 0.36749 0.0
C1892 C 0.45913 0.02648 0.16563 0.0
C1893 C 0.46032 0.03768 0.19834 0.0
C1894 C 0.44998 0.01246 0.1811 0.0
C1895 C 0.44187 0.0093 0.22983 0.0
C1896 C 0.44248 0.02047 0.2609 0.0
C1897 C 0.45155 0.03452 0.24518 0.0
C1898 C 0.42098 0.9692 0.233 0.0
C1899 C 0.42328 0.96641 0.28785 0.0
C1900 C 0.4264 0.98312 0.21464 0.0
C1901 C 0.43407 0.99453 0.25092 0.0
C1902 C 0.43548 0.99169 0.30671 0.0
C1903 C 0.4302 0.9778 0.32492 0.0
H1904 H 0.04292 0.45284 0.20978 0.0
H1905 H 0.02877 0.46354 0.36001 0.0
H1906 H 0.01836 0.43726 0.18228 0.0
H1907 H 0.00428 0.44795 0.33247 0.0
H1908 H 0.97528 0.43366 0.12355 0.0
H1909 H 0.99975 0.44315 0.15268 0.0
H1910 H 0.98555 0.42274 0.31185 0.0
H1911 H 0.96101 0.41316 0.28273 0.0
C1912 C 0.03459 0.45166 0.23751 0.0
C1913 C 0.03782 0.45954 0.2869 0.0
C1914 C 0.02053 0.44278 0.22156 0.0
C1915 C 0.0094 0.44145 0.25503 0.0
C1916 C 0.01262 0.44867 0.30598 0.0
C1917 C 0.02667 0.45767 0.32162 0.0
C1918 C 0.97735 0.43094 0.16434 0.0
C1919 C 0.96618 0.42275 0.20095 0.0
C1920 C 0.99139 0.43633 0.18094 0.0
C1921 C 0.99457 0.43378 0.23472 0.0
C1922 C 0.98341 0.42498 0.27033 0.0
C1923 C 0.96935 0.41943 0.25348 0.0
H1924 H 0.57204 0.54267 0.12349 0.0
H1925 H 0.5948 0.55075 0.27824 0.0
H1926 H 0.56309 0.55808 0.15256 0.0
H1927 H 0.58582 0.56621 0.30721 0.0
H1928 H 0.55366 0.59173 0.20732 0.0
H1929 H 0.56904 0.58265 0.1781 0.0
H1930 H 0.56132 0.56033 0.33354 0.0
H1931 H 0.54599 0.56936 0.36284 0.0
C1932 C 0.57538 0.54795 0.16323 0.0
C1933 C 0.58403 0.54535 0.19874 0.0
C1934 C 0.5703 0.55686 0.17977 0.0
C1935 C 0.57366 0.56327 0.23239 0.0
C1936 C 0.58293 0.56129 0.26666 0.0
C1937 C 0.58814 0.55249 0.24988 0.0
C1938 C 0.55549 0.58514 0.23579 0.0
C1939 C 0.54848 0.58116 0.28723 0.0
C1940 C 0.56424 0.57988 0.21887 0.0
C1941 C 0.5663 0.57069 0.25331 0.0
C1942 C 0.56003 0.56747 0.30619 0.0
C1943 C 0.55118 0.57259 0.32287 0.0
loop_
_geom_bond_atom_site_label_1
_geom_bond_atom_site_label_2
_geom_bond_distance
_geom_bond_site_symmetry_2
_ccdc_geom_bond_type
O0 Cd1 2.223 . S
O0 C8 1.315 . S
Cd1 O0 2.223 . S
Cd1 O4 2.297 . S
Cd1 O5 2.439 . S
Cd1 O11 2.240 . S
Cd2 O3 2.240 . S
Cd2 O10 2.223 . S
Cd2 O12 2.297 . S
Cd2 O13 2.439 . S
O3 Cd2 2.240 . S
O3 C8 1.279 . S
O4 Cd1 2.297 . S
O4 C6 1.247 . S
O5 Cd1 2.439 . S
O5 C6 1.208 . S
C6 O4 1.247 . S
C6 O5 1.208 . S
C7 O12 1.247 . S
C7 O13 1.208 . S
C8 O0 1.315 . S
C8 O3 1.279 . S
C9 O10 1.315 . S
C9 O11 1.279 . S
O10 Cd2 2.223 . S
O10 C9 1.315 . S
O11 Cd1 2.240 . S
O11 C9 1.279 . S
O12 Cd2 2.297 . S
O12 C7 1.247 . S
O13 Cd2 2.439 . S
O13 C7 1.208 . S
O14 Cd15 2.223 . S
O14 C22 1.315 . S
Cd15 O14 2.223 . S
Cd15 O18 2.297 . S
Cd15 O19 2.439 . S
Cd15 O25 2.240 . S
Cd16 O17 2.240 . S
Cd16 O24 2.223 . S
Cd16 O26 2.297 . S
Cd16 O27 2.439 . S
O17 Cd16 2.240 . S
O17 C22 1.279 . S
O18 Cd15 2.297 . S
O18 C20 1.247 . S
O19 Cd15 2.439 . S
O19 C20 1.208 . S
C20 O18 1.247 . S
C20 O19 1.208 . S
C21 O26 1.247 . S
C21 O27 1.208 . S
C22 O14 1.315 . S
C22 O17 1.279 . S
C23 O24 1.315 . S
C23 O25 1.279 . S
O24 Cd16 2.223 . S
O24 C23 1.315 . S
O25 Cd15 2.240 . S
O25 C23 1.279 . S
O26 Cd16 2.297 . S
O26 C21 1.247 . S
O27 Cd16 2.439 . S
O27 C21 1.208 . S
O28 Cd29 2.223 . S
O28 C36 1.315 . S
Cd29 O28 2.223 . S
Cd29 O32 2.297 . S
Cd29 O33 2.439 . S
Cd29 O39 2.240 . S
Cd30 O31 2.240 . S
Cd30 O38 2.223 . S
Cd30 O40 2.297 . S
Cd30 O41 2.439 . S
O31 Cd30 2.240 . S
O31 C36 1.279 . S
O32 Cd29 2.297 . S
O32 C34 1.247 . S
O33 Cd29 2.439 . S
O33 C34 1.208 . S
C34 O32 1.247 . S
C34 O33 1.208 . S
C35 O40 1.247 . S
C35 O41 1.208 . S
C36 O28 1.315 . S
C36 O31 1.279 . S
C37 O38 1.315 . S
C37 O39 1.279 . S
O38 Cd30 2.223 . S
O38 C37 1.315 . S
O39 Cd29 2.240 . S
O39 C37 1.279 . S
O40 Cd30 2.297 . S
O40 C35 1.247 . S
O41 Cd30 2.439 . S
O41 C35 1.208 . S
O42 Cd43 2.223 . S
O42 C50 1.315 . S
Cd43 O42 2.223 . S
Cd43 O46 2.297 . S
Cd43 O47 2.439 . S
Cd43 O53 2.240 . S
Cd44 O45 2.240 . S
Cd44 O52 2.223 . S
Cd44 O54 2.297 . S
Cd44 O55 2.439 . S
O45 Cd44 2.240 . S
O45 C50 1.279 . S
O46 Cd43 2.297 . S
O46 C48 1.247 . S
O47 Cd43 2.439 . S
O47 C48 1.208 . S
C48 O46 1.247 . S
C48 O47 1.208 . S
C49 O54 1.247 . S
C49 O55 1.208 . S
C50 O42 1.315 . S
C50 O45 1.279 . S
C51 O52 1.315 . S
C51 O53 1.279 . S
O52 Cd44 2.223 . S
O52 C51 1.315 . S
O53 Cd43 2.240 . S
O53 C51 1.279 . S
O54 Cd44 2.297 . S
O54 C49 1.247 . S
O55 Cd44 2.439 . S
O55 C49 1.208 . S
O56 Cd57 2.223 . S
O56 C64 1.315 . S
Cd57 O56 2.223 . S
Cd57 O60 2.297 . S
Cd57 O61 2.439 . S
Cd57 O67 2.240 . S
Cd58 O59 2.240 . S
Cd58 O66 2.223 . S
Cd58 O68 2.297 . S
Cd58 O69 2.439 . S
O59 Cd58 2.240 . S
O59 C64 1.279 . S
O60 Cd57 2.297 . S
O60 C62 1.247 . S
O61 Cd57 2.439 . S
O61 C62 1.208 . S
C62 O60 1.247 . S
C62 O61 1.208 . S
C63 O68 1.247 . S
C63 O69 1.208 . S
C64 O56 1.315 . S
C64 O59 1.279 . S
C65 O66 1.315 . S
C65 O67 1.279 . S
O66 Cd58 2.223 . S
O66 C65 1.315 . S
O67 Cd57 2.240 . S
O67 C65 1.279 . S
O68 Cd58 2.297 . S
O68 C63 1.247 . S
O69 Cd58 2.439 . S
O69 C63 1.208 . S
O70 Cd71 2.223 . S
O70 C78 1.315 . S
Cd71 O70 2.223 . S
Cd71 O74 2.297 . S
Cd71 O75 2.439 . S
Cd71 O81 2.240 . S
Cd72 O73 2.240 . S
Cd72 O80 2.223 . S
Cd72 O82 2.297 . S
Cd72 O83 2.439 . S
O73 Cd72 2.240 . S
O73 C78 1.279 . S
O74 Cd71 2.297 . S
O74 C76 1.247 . S
O75 Cd71 2.439 . S
O75 C76 1.208 . S
C76 O74 1.247 . S
C76 O75 1.208 . S
C77 O82 1.247 . S
C77 O83 1.208 . S
C78 O70 1.315 . S
C78 O73 1.279 . S
C79 O80 1.315 . S
C79 O81 1.279 . S
O80 Cd72 2.223 . S
O80 C79 1.315 . S
O81 Cd71 2.240 . S
O81 C79 1.279 . S
O82 Cd72 2.297 . S
O82 C77 1.247 . S
O83 Cd72 2.439 . S
O83 C77 1.208 . S
O84 Cd85 2.223 . S
O84 C92 1.315 . S
Cd85 O84 2.223 . S
Cd85 O88 2.297 . S
Cd85 O89 2.439 . S
Cd85 O95 2.240 . S
Cd86 O87 2.240 . S
Cd86 O94 2.223 . S
Cd86 O96 2.297 . S
Cd86 O97 2.439 . S
O87 Cd86 2.240 . S
O87 C92 1.279 . S
O88 Cd85 2.297 . S
O88 C90 1.247 . S
O89 Cd85 2.439 . S
O89 C90 1.208 . S
C90 O88 1.247 . S
C90 O89 1.208 . S
C91 O96 1.247 . S
C91 O97 1.208 . S
C92 O84 1.315 . S
C92 O87 1.279 . S
C93 O94 1.315 . S
C93 O95 1.279 . S
O94 Cd86 2.223 . S
O94 C93 1.315 . S
O95 Cd85 2.240 . S
O95 C93 1.279 . S
O96 Cd86 2.297 . S
O96 C91 1.247 . S
O97 Cd86 2.439 . S
O97 C91 1.208 . S
O98 Cd99 2.223 . S
O98 C106 1.315 . S
Cd99 O98 2.223 . S
Cd99 O102 2.297 . S
Cd99 O103 2.439 . S
Cd99 O109 2.240 . S
Cd100 O101 2.240 . S
Cd100 O108 2.223 . S
Cd100 O110 2.297 . S
Cd100 O111 2.439 . S
O101 Cd100 2.240 . S
O101 C106 1.279 . S
O102 Cd99 2.297 . S
O102 C104 1.247 . S
O103 Cd99 2.439 . S
O103 C104 1.208 . S
C104 O102 1.247 . S
C104 O103 1.208 . S
C105 O110 1.247 . S
C105 O111 1.208 . S
C106 O98 1.315 . S
C106 O101 1.279 . S
C107 O108 1.315 . S
C107 O109 1.279 . S
O108 Cd100 2.223 . S
O108 C107 1.315 . S
O109 Cd99 2.240 . S
O109 C107 1.279 . S
O110 Cd100 2.297 . S
O110 C105 1.247 . S
O111 Cd100 2.439 . S
O111 C105 1.208 . S
O112 Cd113 2.223 . S
O112 C120 1.315 . S
Cd113 O112 2.223 . S
Cd113 O116 2.297 . S
Cd113 O117 2.439 . S
Cd113 O123 2.240 . S
Cd114 O115 2.240 . S
Cd114 O122 2.223 . S
Cd114 O124 2.297 . S
Cd114 O125 2.439 . S
O115 Cd114 2.240 . S
O115 C120 1.279 . S
O116 Cd113 2.297 . S
O116 C118 1.247 . S
O117 Cd113 2.439 . S
O117 C118 1.208 . S
C118 O116 1.247 . S
C118 O117 1.208 . S
C119 O124 1.247 . S
C119 O125 1.208 . S
C120 O112 1.315 . S
C120 O115 1.279 . S
C121 O122 1.315 . S
C121 O123 1.279 . S
O122 Cd114 2.223 . S
O122 C121 1.315 . S
O123 Cd113 2.240 . S
O123 C121 1.279 . S
O124 Cd114 2.297 . S
O124 C119 1.247 . S
O125 Cd114 2.439 . S
O125 C119 1.208 . S
O126 Cd127 2.223 . S
O126 C134 1.315 . S
Cd127 O126 2.223 . S
Cd127 O130 2.297 . S
Cd127 O131 2.439 . S
Cd127 O137 2.240 . S
Cd128 O129 2.240 . S
Cd128 O136 2.223 . S
Cd128 O138 2.297 . S
Cd128 O139 2.439 . S
O129 Cd128 2.240 . S
O129 C134 1.279 . S
O130 Cd127 2.297 . S
O130 C132 1.247 . S
O131 Cd127 2.439 . S
O131 C132 1.208 . S
C132 O130 1.247 . S
C132 O131 1.208 . S
C133 O138 1.247 . S
C133 O139 1.208 . S
C134 O126 1.315 . S
C134 O129 1.279 . S
C135 O136 1.315 . S
C135 O137 1.279 . S
O136 Cd128 2.223 . S
O136 C135 1.315 . S
O137 Cd127 2.240 . S
O137 C135 1.279 . S
O138 Cd128 2.297 . S
O138 C133 1.247 . S
O139 Cd128 2.439 . S
O139 C133 1.208 . S
O140 Cd141 2.223 . S
O140 C148 1.315 . S
Cd141 O140 2.223 . S
Cd141 O144 2.297 . S
Cd141 O145 2.439 . S
Cd141 O151 2.240 . S
Cd142 O143 2.240 . S
Cd142 O150 2.223 . S
Cd142 O152 2.297 . S
Cd142 O153 2.439 . S
O143 Cd142 2.240 . S
O143 C148 1.279 . S
O144 Cd141 2.297 . S
O144 C146 1.247 . S
O145 Cd141 2.439 . S
O145 C146 1.208 . S
C146 O144 1.247 . S
C146 O145 1.208 . S
C147 O152 1.247 . S
C147 O153 1.208 . S
C148 O140 1.315 . S
C148 O143 1.279 . S
C149 O150 1.315 . S
C149 O151 1.279 . S
O150 Cd142 2.223 . S
O150 C149 1.315 . S
O151 Cd141 2.240 . S
O151 C149 1.279 . S
O152 Cd142 2.297 . S
O152 C147 1.247 . S
O153 Cd142 2.439 . S
O153 C147 1.208 . S
O154 Cd155 2.223 . S
O154 C162 1.315 . S
Cd155 O154 2.223 . S
Cd155 O158 2.297 . S
Cd155 O159 2.439 . S
Cd155 O165 2.240 . S
Cd156 O157 2.240 . S
Cd156 O164 2.223 . S
Cd156 O166 2.297 . S
Cd156 O167 2.439 . S
O157 Cd156 2.240 . S
O157 C162 1.279 . S
O158 Cd155 2.297 . S
O158 C160 1.247 . S
O159 Cd155 2.439 . S
O159 C160 1.208 . S
C160 O158 1.247 . S
C160 O159 1.208 . S
C161 O166 1.247 . S
C161 O167 1.208 . S
C162 O154 1.315 . S
C162 O157 1.279 . S
C163 O164 1.315 . S
C163 O165 1.279 . S
O164 Cd156 2.223 . S
O164 C163 1.315 . S
O165 Cd155 2.240 . S
O165 C163 1.279 . S
O166 Cd156 2.297 . S
O166 C161 1.247 . S
O167 Cd156 2.439 . S
O167 C161 1.208 . S
O168 Cd169 2.223 . S
O168 C176 1.315 . S
Cd169 O168 2.223 . S
Cd169 O172 2.297 . S
Cd169 O173 2.439 . S
Cd169 O179 2.240 . S
Cd170 O171 2.240 . S
Cd170 O178 2.223 . S
Cd170 O180 2.297 . S
Cd170 O181 2.439 . S
O171 Cd170 2.240 . S
O171 C176 1.279 . S
O172 Cd169 2.297 . S
O172 C174 1.247 . S
O173 Cd169 2.439 . S
O173 C174 1.208 . S
C174 O172 1.247 . S
C174 O173 1.208 . S
C175 O180 1.247 . S
C175 O181 1.208 . S
C176 O168 1.315 . S
C176 O171 1.279 . S
C177 O178 1.315 . S
C177 O179 1.279 . S
O178 Cd170 2.223 . S
O178 C177 1.315 . S
O179 Cd169 2.240 . S
O179 C177 1.279 . S
O180 Cd170 2.297 . S
O180 C175 1.247 . S
O181 Cd170 2.439 . S
O181 C175 1.208 . S
O182 Cd183 2.223 . S
O182 C190 1.315 . S
Cd183 O182 2.223 . S
Cd183 O186 2.297 . S
Cd183 O187 2.439 . S
Cd183 O193 2.240 . S
Cd184 O185 2.240 . S
Cd184 O192 2.223 . S
Cd184 O194 2.297 . S
Cd184 O195 2.439 . S
O185 Cd184 2.240 . S
O185 C190 1.279 . S
O186 Cd183 2.297 . S
O186 C188 1.247 . S
O187 Cd183 2.439 . S
O187 C188 1.208 . S
C188 O186 1.247 . S
C188 O187 1.208 . S
C189 O194 1.247 . S
C189 O195 1.208 . S
C190 O182 1.315 . S
C190 O185 1.279 . S
C191 O192 1.315 . S
C191 O193 1.279 . S
O192 Cd184 2.223 . S
O192 C191 1.315 . S
O193 Cd183 2.240 . S
O193 C191 1.279 . S
O194 Cd184 2.297 . S
O194 C189 1.247 . S
O195 Cd184 2.439 . S
O195 C189 1.208 . S
O196 Cd197 2.223 . S
O196 C204 1.315 . S
Cd197 O196 2.223 . S
Cd197 O200 2.297 . S
Cd197 O201 2.439 . S
Cd197 O207 2.240 . S
Cd198 O199 2.240 . S
Cd198 O206 2.223 . S
Cd198 O208 2.297 . S
Cd198 O209 2.439 . S
O199 Cd198 2.240 . S
O199 C204 1.279 . S
O200 Cd197 2.297 . S
O200 C202 1.247 . S
O201 Cd197 2.439 . S
O201 C202 1.208 . S
C202 O200 1.247 . S
C202 O201 1.208 . S
C203 O208 1.247 . S
C203 O209 1.208 . S
C204 O196 1.315 . S
C204 O199 1.279 . S
C205 O206 1.315 . S
C205 O207 1.279 . S
O206 Cd198 2.223 . S
O206 C205 1.315 . S
O207 Cd197 2.240 . S
O207 C205 1.279 . S
O208 Cd198 2.297 . S
O208 C203 1.247 . S
O209 Cd198 2.439 . S
O209 C203 1.208 . S
O210 Cd211 2.223 . S
O210 C218 1.315 . S
Cd211 O210 2.223 . S
Cd211 O214 2.297 . S
Cd211 O215 2.439 . S
Cd211 O221 2.240 . S
Cd212 O213 2.240 . S
Cd212 O220 2.223 . S
Cd212 O222 2.297 . S
Cd212 O223 2.439 . S
O213 Cd212 2.240 . S
O213 C218 1.279 . S
O214 Cd211 2.297 . S
O214 C216 1.247 . S
O215 Cd211 2.439 . S
O215 C216 1.208 . S
C216 O214 1.247 . S
C216 O215 1.208 . S
C217 O222 1.247 . S
C217 O223 1.208 . S
C218 O210 1.315 . S
C218 O213 1.279 . S
C219 O220 1.315 . S
C219 O221 1.279 . S
O220 Cd212 2.223 . S
O220 C219 1.315 . S
O221 Cd211 2.240 . S
O221 C219 1.279 . S
O222 Cd212 2.297 . S
O222 C217 1.247 . S
O223 Cd212 2.439 . S
O223 C217 1.208 . S
O224 Cd225 2.223 . S
O224 C232 1.315 . S
Cd225 O224 2.223 . S
Cd225 O228 2.297 . S
Cd225 O229 2.439 . S
Cd225 O235 2.240 . S
Cd226 O227 2.240 . S
Cd226 O234 2.223 . S
Cd226 O236 2.297 . S
Cd226 O237 2.439 . S
O227 Cd226 2.240 . S
O227 C232 1.279 . S
O228 Cd225 2.297 . S
O228 C230 1.247 . S
O229 Cd225 2.439 . S
O229 C230 1.208 . S
C230 O228 1.247 . S
C230 O229 1.208 . S
C231 O236 1.247 . S
C231 O237 1.208 . S
C232 O224 1.315 . S
C232 O227 1.279 . S
C233 O234 1.315 . S
C233 O235 1.279 . S
O234 Cd226 2.223 . S
O234 C233 1.315 . S
O235 Cd225 2.240 . S
O235 C233 1.279 . S
O236 Cd226 2.297 . S
O236 C231 1.247 . S
O237 Cd226 2.439 . S
O237 C231 1.208 . S
O238 Cd239 2.223 . S
O238 C246 1.315 . S
Cd239 O238 2.223 . S
Cd239 O242 2.297 . S
Cd239 O243 2.439 . S
Cd239 O249 2.240 . S
Cd240 O241 2.240 . S
Cd240 O248 2.223 . S
Cd240 O250 2.297 . S
Cd240 O251 2.439 . S
O241 Cd240 2.240 . S
O241 C246 1.279 . S
O242 Cd239 2.297 . S
O242 C244 1.247 . S
O243 Cd239 2.439 . S
O243 C244 1.208 . S
C244 O242 1.247 . S
C244 O243 1.208 . S
C245 O250 1.247 . S
C245 O251 1.208 . S
C246 O238 1.315 . S
C246 O241 1.279 . S
C247 O248 1.315 . S
C247 O249 1.279 . S
O248 Cd240 2.223 . S
O248 C247 1.315 . S
O249 Cd239 2.240 . S
O249 C247 1.279 . S
O250 Cd240 2.297 . S
O250 C245 1.247 . S
O251 Cd240 2.439 . S
O251 C245 1.208 . S
O252 Cd253 2.223 . S
O252 C260 1.315 . S
Cd253 O252 2.223 . S
Cd253 O256 2.297 . S
Cd253 O257 2.439 . S
Cd253 O263 2.240 . S
Cd254 O255 2.240 . S
Cd254 O262 2.223 . S
Cd254 O264 2.297 1_554 S
Cd254 O265 2.439 1_554 S
O255 Cd254 2.240 . S
O255 C260 1.279 . S
O256 Cd253 2.297 . S
O256 C258 1.247 . S
O257 Cd253 2.439 . S
O257 C258 1.208 . S
C258 O256 1.247 . S
C258 O257 1.208 . S
C259 O264 1.247 . S
C259 O265 1.208 . S
C260 O252 1.315 . S
C260 O255 1.279 . S
C261 O262 1.315 . S
C261 O263 1.279 . S
O262 Cd254 2.223 . S
O262 C261 1.315 . S
O263 Cd253 2.240 . S
O263 C261 1.279 . S
O264 Cd254 2.297 1_556 S
O264 C259 1.247 . S
O265 Cd254 2.439 1_556 S
O265 C259 1.208 . S
O266 Cd267 2.223 . S
O266 C274 1.315 . S
Cd267 O266 2.223 . S
Cd267 O270 2.297 . S
Cd267 O271 2.439 . S
Cd267 O277 2.240 . S
Cd268 O269 2.240 . S
Cd268 O276 2.223 . S
Cd268 O278 2.297 1_554 S
Cd268 O279 2.439 1_554 S
O269 Cd268 2.240 . S
O269 C274 1.279 . S
O270 Cd267 2.297 . S
O270 C272 1.247 . S
O271 Cd267 2.439 . S
O271 C272 1.208 . S
C272 O270 1.247 . S
C272 O271 1.208 . S
C273 O278 1.247 . S
C273 O279 1.208 . S
C274 O266 1.315 . S
C274 O269 1.279 . S
C275 O276 1.315 . S
C275 O277 1.279 . S
O276 Cd268 2.223 . S
O276 C275 1.315 . S
O277 Cd267 2.240 . S
O277 C275 1.279 . S
O278 Cd268 2.297 1_556 S
O278 C273 1.247 . S
O279 Cd268 2.439 1_556 S
O279 C273 1.208 . S
O280 Cd281 2.223 . S
O280 C288 1.315 . S
Cd281 O280 2.223 . S
Cd281 O284 2.297 . S
Cd281 O285 2.439 . S
Cd281 O291 2.240 . S
Cd282 O283 2.240 . S
Cd282 O290 2.223 . S
Cd282 O292 2.297 1_554 S
Cd282 O293 2.439 1_554 S
O283 Cd282 2.240 . S
O283 C288 1.279 . S
O284 Cd281 2.297 . S
O284 C286 1.247 . S
O285 Cd281 2.439 . S
O285 C286 1.208 . S
C286 O284 1.247 . S
C286 O285 1.208 . S
C287 O292 1.247 . S
C287 O293 1.208 . S
C288 O280 1.315 . S
C288 O283 1.279 . S
C289 O290 1.315 . S
C289 O291 1.279 . S
O290 Cd282 2.223 . S
O290 C289 1.315 . S
O291 Cd281 2.240 . S
O291 C289 1.279 . S
O292 Cd282 2.297 1_556 S
O292 C287 1.247 . S
O293 Cd282 2.439 1_556 S
O293 C287 1.208 . S
O294 Cd295 2.223 1_556 S
O294 C302 1.315 1_556 S
Cd295 O294 2.223 1_554 S
Cd295 O298 2.297 . S
Cd295 O299 2.439 . S
Cd295 O305 2.240 . S
Cd296 O297 2.240 . S
Cd296 O304 2.223 . S
Cd296 O306 2.297 . S
Cd296 O307 2.439 . S
O297 Cd296 2.240 . S
O297 C302 1.279 . S
O298 Cd295 2.297 . S
O298 C300 1.247 . S
O299 Cd295 2.439 . S
O299 C300 1.208 . S
C300 O298 1.247 . S
C300 O299 1.208 . S
C301 O306 1.247 . S
C301 O307 1.208 . S
C302 O294 1.315 1_554 S
C302 O297 1.279 . S
C303 O304 1.315 . S
C303 O305 1.279 . S
O304 Cd296 2.223 . S
O304 C303 1.315 . S
O305 Cd295 2.240 . S
O305 C303 1.279 . S
O306 Cd296 2.297 . S
O306 C301 1.247 . S
O307 Cd296 2.439 . S
O307 C301 1.208 . S
O308 Cd309 2.223 1_556 S
O308 C316 1.315 1_556 S
Cd309 O308 2.223 1_554 S
Cd309 O312 2.297 . S
Cd309 O313 2.439 . S
Cd309 O319 2.240 . S
Cd310 O311 2.240 . S
Cd310 O318 2.223 . S
Cd310 O320 2.297 . S
Cd310 O321 2.439 . S
O311 Cd310 2.240 . S
O311 C316 1.279 . S
O312 Cd309 2.297 . S
O312 C314 1.247 . S
O313 Cd309 2.439 . S
O313 C314 1.208 . S
C314 O312 1.247 . S
C314 O313 1.208 . S
C315 O320 1.247 . S
C315 O321 1.208 . S
C316 O308 1.315 1_554 S
C316 O311 1.279 . S
C317 O318 1.315 . S
C317 O319 1.279 . S
O318 Cd310 2.223 . S
O318 C317 1.315 . S
O319 Cd309 2.240 . S
O319 C317 1.279 . S
O320 Cd310 2.297 . S
O320 C315 1.247 . S
O321 Cd310 2.439 . S
O321 C315 1.208 . S
O322 Cd323 2.223 1_556 S
O322 C330 1.315 1_556 S
Cd323 O322 2.223 1_554 S
Cd323 O326 2.297 . S
Cd323 O327 2.439 . S
Cd323 O333 2.240 . S
Cd324 O325 2.240 . S
Cd324 O332 2.223 . S
Cd324 O334 2.297 . S
Cd324 O335 2.439 . S
O325 Cd324 2.240 . S
O325 C330 1.279 . S
O326 Cd323 2.297 . S
O326 C328 1.247 . S
O327 Cd323 2.439 . S
O327 C328 1.208 . S
C328 O326 1.247 . S
C328 O327 1.208 . S
C329 O334 1.247 . S
C329 O335 1.208 . S
C330 O322 1.315 1_554 S
C330 O325 1.279 . S
C331 O332 1.315 . S
C331 O333 1.279 . S
O332 Cd324 2.223 . S
O332 C331 1.315 . S
O333 Cd323 2.240 . S
O333 C331 1.279 . S
O334 Cd324 2.297 . S
O334 C329 1.247 . S
O335 Cd324 2.439 . S
O335 C329 1.208 . S
O336 Cd337 2.223 . S
O336 C344 1.315 . S
Cd337 O336 2.223 . S
Cd337 O340 2.297 . S
Cd337 O341 2.439 . S
Cd337 O347 2.240 . S
Cd338 O339 2.240 . S
Cd338 O346 2.223 . S
Cd338 O348 2.297 1_556 S
Cd338 O349 2.439 1_556 S
O339 Cd338 2.240 . S
O339 C344 1.279 . S
O340 Cd337 2.297 . S
O340 C342 1.247 . S
O341 Cd337 2.439 . S
O341 C342 1.208 . S
C342 O340 1.247 . S
C342 O341 1.208 . S
C343 O348 1.247 . S
C343 O349 1.208 . S
C344 O336 1.315 . S
C344 O339 1.279 . S
C345 O346 1.315 . S
C345 O347 1.279 . S
O346 Cd338 2.223 . S
O346 C345 1.315 . S
O347 Cd337 2.240 . S
O347 C345 1.279 . S
O348 Cd338 2.297 1_554 S
O348 C343 1.247 . S
O349 Cd338 2.439 1_554 S
O349 C343 1.208 . S
O350 Cd351 2.223 . S
O350 C358 1.315 . S
Cd351 O350 2.223 . S
Cd351 O354 2.297 . S
Cd351 O355 2.439 . S
Cd351 O361 2.240 . S
Cd352 O353 2.240 . S
Cd352 O360 2.223 . S
Cd352 O362 2.297 1_556 S
Cd352 O363 2.439 1_556 S
O353 Cd352 2.240 . S
O353 C358 1.279 . S
O354 Cd351 2.297 . S
O354 C356 1.247 . S
O355 Cd351 2.439 . S
O355 C356 1.208 . S
C356 O354 1.247 . S
C356 O355 1.208 . S
C357 O362 1.247 . S
C357 O363 1.208 . S
C358 O350 1.315 . S
C358 O353 1.279 . S
C359 O360 1.315 . S
C359 O361 1.279 . S
O360 Cd352 2.223 . S
O360 C359 1.315 . S
O361 Cd351 2.240 . S
O361 C359 1.279 . S
O362 Cd352 2.297 1_554 S
O362 C357 1.247 . S
O363 Cd352 2.439 1_554 S
O363 C357 1.208 . S
O364 Cd365 2.223 . S
O364 C372 1.315 . S
Cd365 O364 2.223 . S
Cd365 O368 2.297 . S
Cd365 O369 2.439 . S
Cd365 O375 2.240 . S
Cd366 O367 2.240 . S
Cd366 O374 2.223 . S
Cd366 O376 2.297 1_556 S
Cd366 O377 2.439 1_556 S
O367 Cd366 2.240 . S
O367 C372 1.279 . S
O368 Cd365 2.297 . S
O368 C370 1.247 . S
O369 Cd365 2.439 . S
O369 C370 1.208 . S
C370 O368 1.247 . S
C370 O369 1.208 . S
C371 O376 1.247 . S
C371 O377 1.208 . S
C372 O364 1.315 . S
C372 O367 1.279 . S
C373 O374 1.315 . S
C373 O375 1.279 . S
O374 Cd366 2.223 . S
O374 C373 1.315 . S
O375 Cd365 2.240 . S
O375 C373 1.279 . S
O376 Cd366 2.297 1_554 S
O376 C371 1.247 . S
O377 Cd366 2.439 1_554 S
O377 C371 1.208 . S
O378 Cd379 2.223 1_554 S
O378 C386 1.315 1_554 S
Cd379 O378 2.223 1_556 S
Cd379 O382 2.297 . S
Cd379 O383 2.439 . S
Cd379 O389 2.240 . S
Cd380 O381 2.240 . S
Cd380 O388 2.223 . S
Cd380 O390 2.297 . S
Cd380 O391 2.439 . S
O381 Cd380 2.240 . S
O381 C386 1.279 . S
O382 Cd379 2.297 . S
O382 C384 1.247 . S
O383 Cd379 2.439 . S
O383 C384 1.208 . S
C384 O382 1.247 . S
C384 O383 1.208 . S
C385 O390 1.247 . S
C385 O391 1.208 . S
C386 O378 1.315 1_556 S
C386 O381 1.279 . S
C387 O388 1.315 . S
C387 O389 1.279 . S
O388 Cd380 2.223 . S
O388 C387 1.315 . S
O389 Cd379 2.240 . S
O389 C387 1.279 . S
O390 Cd380 2.297 . S
O390 C385 1.247 . S
O391 Cd380 2.439 . S
O391 C385 1.208 . S
O392 Cd393 2.223 1_554 S
O392 C400 1.315 1_554 S
Cd393 O392 2.223 1_556 S
Cd393 O396 2.297 . S
Cd393 O397 2.439 . S
Cd393 O403 2.240 . S
Cd394 O395 2.240 . S
Cd394 O402 2.223 . S
Cd394 O404 2.297 . S
Cd394 O405 2.439 . S
O395 Cd394 2.240 . S
O395 C400 1.279 . S
O396 Cd393 2.297 . S
O396 C398 1.247 . S
O397 Cd393 2.439 . S
O397 C398 1.208 . S
C398 O396 1.247 . S
C398 O397 1.208 . S
C399 O404 1.247 . S
C399 O405 1.208 . S
C400 O392 1.315 1_556 S
C400 O395 1.279 . S
C401 O402 1.315 . S
C401 O403 1.279 . S
O402 Cd394 2.223 . S
O402 C401 1.315 . S
O403 Cd393 2.240 . S
O403 C401 1.279 . S
O404 Cd394 2.297 . S
O404 C399 1.247 . S
O405 Cd394 2.439 . S
O405 C399 1.208 . S
O406 Cd407 2.223 1_554 S
O406 C414 1.315 1_554 S
Cd407 O406 2.223 1_556 S
Cd407 O410 2.297 . S
Cd407 O411 2.439 . S
Cd407 O417 2.240 . S
Cd408 O409 2.240 . S
Cd408 O416 2.223 . S
Cd408 O418 2.297 . S
Cd408 O419 2.439 . S
O409 Cd408 2.240 . S
O409 C414 1.279 . S
O410 Cd407 2.297 . S
O410 C412 1.247 . S
O411 Cd407 2.439 . S
O411 C412 1.208 . S
C412 O410 1.247 . S
C412 O411 1.208 . S
C413 O418 1.247 . S
C413 O419 1.208 . S
C414 O406 1.315 1_556 S
C414 O409 1.279 . S
C415 O416 1.315 . S
C415 O417 1.279 . S
O416 Cd408 2.223 . S
O416 C415 1.315 . S
O417 Cd407 2.240 . S
O417 C415 1.279 . S
O418 Cd408 2.297 . S
O418 C413 1.247 . S
O419 Cd408 2.439 . S
O419 C413 1.208 . S
O420 Cd421 2.223 . S
O420 C428 1.315 . S
Cd421 O420 2.223 . S
Cd421 O424 2.297 . S
Cd421 O425 2.439 . S
Cd421 O431 2.240 . S
Cd422 O423 2.240 . S
Cd422 O430 2.223 . S
Cd422 O432 2.297 . S
Cd422 O433 2.439 . S
O423 Cd422 2.240 . S
O423 C428 1.279 . S
O424 Cd421 2.297 . S
O424 C426 1.247 . S
O425 Cd421 2.439 . S
O425 C426 1.208 . S
C426 O424 1.247 . S
C426 O425 1.208 . S
C427 O432 1.247 . S
C427 O433 1.208 . S
C428 O420 1.315 . S
C428 O423 1.279 . S
C429 O430 1.315 . S
C429 O431 1.279 . S
O430 Cd422 2.223 . S
O430 C429 1.315 . S
O431 Cd421 2.240 . S
O431 C429 1.279 . S
O432 Cd422 2.297 . S
O432 C427 1.247 . S
O433 Cd422 2.439 . S
O433 C427 1.208 . S
O434 Cd435 2.223 . S
O434 C442 1.315 . S
Cd435 O434 2.223 . S
Cd435 O438 2.297 . S
Cd435 O439 2.439 . S
Cd435 O445 2.240 . S
Cd436 O437 2.240 . S
Cd436 O444 2.223 . S
Cd436 O446 2.297 . S
Cd436 O447 2.439 . S
O437 Cd436 2.240 . S
O437 C442 1.279 . S
O438 Cd435 2.297 . S
O438 C440 1.247 . S
O439 Cd435 2.439 . S
O439 C440 1.208 . S
C440 O438 1.247 . S
C440 O439 1.208 . S
C441 O446 1.247 . S
C441 O447 1.208 . S
C442 O434 1.315 . S
C442 O437 1.279 . S
C443 O444 1.315 . S
C443 O445 1.279 . S
O444 Cd436 2.223 . S
O444 C443 1.315 . S
O445 Cd435 2.240 . S
O445 C443 1.279 . S
O446 Cd436 2.297 . S
O446 C441 1.247 . S
O447 Cd436 2.439 . S
O447 C441 1.208 . S
O448 Cd449 2.223 . S
O448 C456 1.315 . S
Cd449 O448 2.223 . S
Cd449 O452 2.297 . S
Cd449 O453 2.439 . S
Cd449 O459 2.240 . S
Cd450 O451 2.240 . S
Cd450 O458 2.223 . S
Cd450 O460 2.297 . S
Cd450 O461 2.439 . S
O451 Cd450 2.240 . S
O451 C456 1.279 . S
O452 Cd449 2.297 . S
O452 C454 1.247 . S
O453 Cd449 2.439 . S
O453 C454 1.208 . S
C454 O452 1.247 . S
C454 O453 1.208 . S
C455 O460 1.247 . S
C455 O461 1.208 . S
C456 O448 1.315 . S
C456 O451 1.279 . S
C457 O458 1.315 . S
C457 O459 1.279 . S
O458 Cd450 2.223 . S
O458 C457 1.315 . S
O459 Cd449 2.240 . S
O459 C457 1.279 . S
O460 Cd450 2.297 . S
O460 C455 1.247 . S
O461 Cd450 2.439 . S
O461 C455 1.208 . S
O462 Cd463 2.223 . S
O462 C470 1.315 . S
Cd463 O462 2.223 . S
Cd463 O466 2.297 . S
Cd463 O467 2.439 . S
Cd463 O473 2.240 . S
Cd464 O465 2.240 . S
Cd464 O472 2.223 . S
Cd464 O474 2.297 . S
Cd464 O475 2.439 . S
O465 Cd464 2.240 . S
O465 C470 1.279 . S
O466 Cd463 2.297 . S
O466 C468 1.247 . S
O467 Cd463 2.439 . S
O467 C468 1.208 . S
C468 O466 1.247 . S
C468 O467 1.208 . S
C469 O474 1.247 . S
C469 O475 1.208 . S
C470 O462 1.315 . S
C470 O465 1.279 . S
C471 O472 1.315 . S
C471 O473 1.279 . S
O472 Cd464 2.223 . S
O472 C471 1.315 . S
O473 Cd463 2.240 . S
O473 C471 1.279 . S
O474 Cd464 2.297 . S
O474 C469 1.247 . S
O475 Cd464 2.439 . S
O475 C469 1.208 . S
O476 Cd477 2.223 . S
O476 C484 1.315 . S
Cd477 O476 2.223 . S
Cd477 O480 2.297 . S
Cd477 O481 2.439 . S
Cd477 O487 2.240 . S
Cd478 O479 2.240 . S
Cd478 O486 2.223 . S
Cd478 O488 2.297 . S
Cd478 O489 2.439 . S
O479 Cd478 2.240 . S
O479 C484 1.279 . S
O480 Cd477 2.297 . S
O480 C482 1.247 . S
O481 Cd477 2.439 . S
O481 C482 1.208 . S
C482 O480 1.247 . S
C482 O481 1.208 . S
C483 O488 1.247 . S
C483 O489 1.208 . S
C484 O476 1.315 . S
C484 O479 1.279 . S
C485 O486 1.315 . S
C485 O487 1.279 . S
O486 Cd478 2.223 . S
O486 C485 1.315 . S
O487 Cd477 2.240 . S
O487 C485 1.279 . S
O488 Cd478 2.297 . S
O488 C483 1.247 . S
O489 Cd478 2.439 . S
O489 C483 1.208 . S
O490 Cd491 2.223 . S
O490 C498 1.315 . S
Cd491 O490 2.223 . S
Cd491 O494 2.297 . S
Cd491 O495 2.439 . S
Cd491 O501 2.240 . S
Cd492 O493 2.240 . S
Cd492 O500 2.223 . S
Cd492 O502 2.297 . S
Cd492 O503 2.439 . S
O493 Cd492 2.240 . S
O493 C498 1.279 . S
O494 Cd491 2.297 . S
O494 C496 1.247 . S
O495 Cd491 2.439 . S
O495 C496 1.208 . S
C496 O494 1.247 . S
C496 O495 1.208 . S
C497 O502 1.247 . S
C497 O503 1.208 . S
C498 O490 1.315 . S
C498 O493 1.279 . S
C499 O500 1.315 . S
C499 O501 1.279 . S
O500 Cd492 2.223 . S
O500 C499 1.315 . S
O501 Cd491 2.240 . S
O501 C499 1.279 . S
O502 Cd492 2.297 . S
O502 C497 1.247 . S
O503 Cd492 2.439 . S
O503 C497 1.208 . S
H504 C512 0.950 . S
H505 C517 0.950 . S
H506 C514 0.950 . S
H507 C516 0.950 . S
H508 C518 0.950 . S
H509 C520 0.950 . S
H510 C522 0.950 . S
H511 C523 0.950 . S
C512 H504 0.950 . S
C512 C513 1.386 . S
C512 C514 1.391 . S
C513 C512 1.386 . S
C513 C517 1.393 . S
C514 H506 0.950 . S
C514 C512 1.391 . S
C514 C515 1.400 . S
C515 C514 1.400 . S
C515 C516 1.398 . S
C515 C521 1.491 . S
C516 H507 0.950 . S
C516 C515 1.398 . S
C516 C517 1.391 . S
C517 H505 0.950 . S
C517 C513 1.393 . S
C517 C516 1.391 . S
C518 H508 0.950 . S
C518 C519 1.386 . S
C518 C520 1.391 . S
C519 C518 1.386 . S
C519 C523 1.393 . S
C520 H509 0.950 . S
C520 C518 1.391 . S
C520 C521 1.400 . S
C521 C515 1.491 . S
C521 C520 1.400 . S
C521 C522 1.398 . S
C522 H510 0.950 . S
C522 C521 1.398 . S
C522 C523 1.391 . S
C523 H511 0.950 . S
C523 C519 1.393 . S
C523 C522 1.391 . S
H524 C532 0.950 . S
H525 C537 0.950 . S
H526 C534 0.950 . S
H527 C536 0.950 . S
H528 C538 0.950 . S
H529 C540 0.950 . S
H530 C542 0.950 . S
H531 C543 0.950 . S
C532 H524 0.950 . S
C532 C533 1.386 . S
C532 C534 1.391 . S
C533 C532 1.386 . S
C533 C537 1.393 . S
C534 H526 0.950 . S
C534 C532 1.391 . S
C534 C535 1.400 . S
C535 C534 1.400 . S
C535 C536 1.398 . S
C535 C541 1.491 1_545 S
C536 H527 0.950 . S
C536 C535 1.398 . S
C536 C537 1.391 . S
C537 H525 0.950 . S
C537 C533 1.393 . S
C537 C536 1.391 . S
C538 H528 0.950 . S
C538 C539 1.386 . S
C538 C540 1.391 . S
C539 C538 1.386 . S
C539 C543 1.393 . S
C540 H529 0.950 . S
C540 C538 1.391 . S
C540 C541 1.400 . S
C541 C535 1.491 1_565 S
C541 C540 1.400 . S
C541 C542 1.398 . S
C542 H530 0.950 . S
C542 C541 1.398 . S
C542 C543 1.391 . S
C543 H531 0.950 . S
C543 C539 1.393 . S
C543 C542 1.391 . S
H544 C552 0.950 . S
H545 C557 0.950 . S
H546 C554 0.950 . S
H547 C556 0.950 . S
H548 C558 0.950 . S
H549 C560 0.950 . S
H550 C562 0.950 . S
H551 C563 0.950 . S
C552 H544 0.950 . S
C552 C553 1.386 . S
C552 C554 1.391 . S
C553 C552 1.386 . S
C553 C557 1.393 . S
C554 H546 0.950 . S
C554 C552 1.391 . S
C554 C555 1.400 . S
C555 C554 1.400 . S
C555 C556 1.398 . S
C555 C561 1.491 1_655 S
C556 H547 0.950 . S
C556 C555 1.398 . S
C556 C557 1.391 . S
C557 H545 0.950 . S
C557 C553 1.393 . S
C557 C556 1.391 . S
C558 H548 0.950 . S
C558 C559 1.386 . S
C558 C560 1.391 . S
C559 C558 1.386 . S
C559 C563 1.393 . S
C560 H549 0.950 . S
C560 C558 1.391 . S
C560 C561 1.400 . S
C561 C555 1.491 1_455 S
C561 C560 1.400 . S
C561 C562 1.398 . S
C562 H550 0.950 . S
C562 C561 1.398 . S
C562 C563 1.391 . S
C563 H551 0.950 . S
C563 C559 1.393 . S
C563 C562 1.391 . S
H564 C572 0.950 . S
H565 C577 0.950 . S
H566 C574 0.950 . S
H567 C576 0.950 . S
H568 C578 0.950 . S
H569 C580 0.950 . S
H570 C582 0.950 . S
H571 C583 0.950 . S
C572 H564 0.950 . S
C572 C573 1.386 . S
C572 C574 1.391 . S
C573 C572 1.386 . S
C573 C577 1.393 . S
C574 H566 0.950 . S
C574 C572 1.391 . S
C574 C575 1.400 . S
C575 C574 1.400 . S
C575 C576 1.398 . S
C575 C581 1.491 . S
C576 H567 0.950 . S
C576 C575 1.398 . S
C576 C577 1.391 . S
C577 H565 0.950 . S
C577 C573 1.393 . S
C577 C576 1.391 . S
C578 H568 0.950 . S
C578 C579 1.386 . S
C578 C580 1.391 . S
C579 C578 1.386 . S
C579 C583 1.393 . S
C580 H569 0.950 . S
C580 C578 1.391 . S
C580 C581 1.400 . S
C581 C575 1.491 . S
C581 C580 1.400 . S
C581 C582 1.398 . S
C582 H570 0.950 . S
C582 C581 1.398 . S
C582 C583 1.391 . S
C583 H571 0.950 . S
C583 C579 1.393 . S
C583 C582 1.391 . S
H584 C592 0.950 . S
H585 C597 0.950 . S
H586 C594 0.950 . S
H587 C596 0.950 . S
H588 C598 0.950 . S
H589 C600 0.950 . S
H590 C602 0.950 . S
H591 C603 0.950 . S
C592 H584 0.950 . S
C592 C593 1.386 . S
C592 C594 1.391 . S
C593 C592 1.386 . S
C593 C597 1.393 . S
C594 H586 0.950 . S
C594 C592 1.391 . S
C594 C595 1.400 . S
C595 C594 1.400 . S
C595 C596 1.398 . S
C595 C601 1.491 1_545 S
C596 H587 0.950 . S
C596 C595 1.398 . S
C596 C597 1.391 . S
C597 H585 0.950 . S
C597 C593 1.393 . S
C597 C596 1.391 . S
C598 H588 0.950 . S
C598 C599 1.386 . S
C598 C600 1.391 . S
C599 C598 1.386 . S
C599 C603 1.393 . S
C600 H589 0.950 . S
C600 C598 1.391 . S
C600 C601 1.400 . S
C601 C595 1.491 1_565 S
C601 C600 1.400 . S
C601 C602 1.398 . S
C602 H590 0.950 . S
C602 C601 1.398 . S
C602 C603 1.391 . S
C603 H591 0.950 . S
C603 C599 1.393 . S
C603 C602 1.391 . S
H604 C612 0.950 . S
H605 C617 0.950 . S
H606 C614 0.950 . S
H607 C616 0.950 . S
H608 C618 0.950 . S
H609 C620 0.950 . S
H610 C622 0.950 . S
H611 C623 0.950 . S
C612 H604 0.950 . S
C612 C613 1.386 . S
C612 C614 1.391 . S
C613 C612 1.386 . S
C613 C617 1.393 . S
C614 H606 0.950 . S
C614 C612 1.391 . S
C614 C615 1.400 . S
C615 C614 1.400 . S
C615 C616 1.398 . S
C615 C621 1.491 1_455 S
C616 H607 0.950 . S
C616 C615 1.398 . S
C616 C617 1.391 . S
C617 H605 0.950 . S
C617 C613 1.393 . S
C617 C616 1.391 . S
C618 H608 0.950 . S
C618 C619 1.386 . S
C618 C620 1.391 . S
C619 C618 1.386 . S
C619 C623 1.393 . S
C620 H609 0.950 . S
C620 C618 1.391 . S
C620 C621 1.400 . S
C621 C615 1.491 1_655 S
C621 C620 1.400 . S
C621 C622 1.398 . S
C622 H610 0.950 . S
C622 C621 1.398 . S
C622 C623 1.391 . S
C623 H611 0.950 . S
C623 C619 1.393 . S
C623 C622 1.391 . S
H624 C632 0.950 . S
H625 C637 0.950 . S
H626 C634 0.950 . S
H627 C636 0.950 . S
H628 C638 0.950 . S
H629 C640 0.950 . S
H630 C642 0.950 . S
H631 C643 0.950 . S
C632 H624 0.950 . S
C632 C633 1.386 . S
C632 C634 1.391 . S
C633 C632 1.386 . S
C633 C637 1.393 . S
C634 H626 0.950 . S
C634 C632 1.391 . S
C634 C635 1.400 . S
C635 C634 1.400 . S
C635 C636 1.398 . S
C635 C641 1.491 . S
C636 H627 0.950 . S
C636 C635 1.398 . S
C636 C637 1.391 . S
C637 H625 0.950 . S
C637 C633 1.393 . S
C637 C636 1.391 . S
C638 H628 0.950 . S
C638 C639 1.386 . S
C638 C640 1.391 . S
C639 C638 1.386 . S
C639 C643 1.393 . S
C640 H629 0.950 . S
C640 C638 1.391 . S
C640 C641 1.400 . S
C641 C635 1.491 . S
C641 C640 1.400 . S
C641 C642 1.398 . S
C642 H630 0.950 . S
C642 C641 1.398 . S
C642 C643 1.391 . S
C643 H631 0.950 . S
C643 C639 1.393 . S
C643 C642 1.391 . S
H644 C652 0.950 . S
H645 C657 0.950 . S
H646 C654 0.950 . S
H647 C656 0.950 . S
H648 C658 0.950 . S
H649 C660 0.950 . S
H650 C662 0.950 . S
H651 C663 0.950 . S
C652 H644 0.950 . S
C652 C653 1.386 . S
C652 C654 1.391 . S
C653 C652 1.386 . S
C653 C657 1.393 . S
C654 H646 0.950 . S
C654 C652 1.391 . S
C654 C655 1.400 . S
C655 C654 1.400 . S
C655 C656 1.398 . S
C655 C661 1.491 . S
C656 H647 0.950 . S
C656 C655 1.398 . S
C656 C657 1.391 . S
C657 H645 0.950 . S
C657 C653 1.393 . S
C657 C656 1.391 . S
C658 H648 0.950 . S
C658 C659 1.386 . S
C658 C660 1.391 . S
C659 C658 1.386 . S
C659 C663 1.393 . S
C660 H649 0.950 . S
C660 C658 1.391 . S
C660 C661 1.400 . S
C661 C655 1.491 . S
C661 C660 1.400 . S
C661 C662 1.398 . S
C662 H650 0.950 . S
C662 C661 1.398 . S
C662 C663 1.391 . S
C663 H651 0.950 . S
C663 C659 1.393 . S
C663 C662 1.391 . S
H664 C672 0.950 . S
H665 C677 0.950 . S
H666 C674 0.950 . S
H667 C676 0.950 . S
H668 C678 0.950 . S
H669 C680 0.950 . S
H670 C682 0.950 . S
H671 C683 0.950 . S
C672 H664 0.950 . S
C672 C673 1.386 . S
C672 C674 1.391 . S
C673 C672 1.386 . S
C673 C677 1.393 . S
C674 H666 0.950 . S
C674 C672 1.391 . S
C674 C675 1.400 . S
C675 C674 1.400 . S
C675 C676 1.398 . S
C675 C681 1.491 . S
C676 H667 0.950 . S
C676 C675 1.398 . S
C676 C677 1.391 . S
C677 H665 0.950 . S
C677 C673 1.393 . S
C677 C676 1.391 . S
C678 H668 0.950 . S
C678 C679 1.386 . S
C678 C680 1.391 . S
C679 C678 1.386 . S
C679 C683 1.393 . S
C680 H669 0.950 . S
C680 C678 1.391 . S
C680 C681 1.400 . S
C681 C675 1.491 . S
C681 C680 1.400 . S
C681 C682 1.398 . S
C682 H670 0.950 . S
C682 C681 1.398 . S
C682 C683 1.391 . S
C683 H671 0.950 . S
C683 C679 1.393 . S
C683 C682 1.391 . S
H684 C692 0.950 . S
H685 C697 0.950 . S
H686 C694 0.950 . S
H687 C696 0.950 . S
H688 C698 0.950 . S
H689 C700 0.950 . S
H690 C702 0.950 . S
H691 C703 0.950 . S
C692 H684 0.950 . S
C692 C693 1.386 . S
C692 C694 1.391 . S
C693 C692 1.386 . S
C693 C697 1.393 . S
C694 H686 0.950 . S
C694 C692 1.391 . S
C694 C695 1.400 . S
C695 C694 1.400 . S
C695 C696 1.398 . S
C695 C701 1.491 . S
C696 H687 0.950 . S
C696 C695 1.398 . S
C696 C697 1.391 . S
C697 H685 0.950 . S
C697 C693 1.393 . S
C697 C696 1.391 . S
C698 H688 0.950 . S
C698 C699 1.386 . S
C698 C700 1.391 . S
C699 C698 1.386 . S
C699 C703 1.393 . S
C700 H689 0.950 . S
C700 C698 1.391 . S
C700 C701 1.400 . S
C701 C695 1.491 . S
C701 C700 1.400 . S
C701 C702 1.398 . S
C702 H690 0.950 . S
C702 C701 1.398 . S
C702 C703 1.391 . S
C703 H691 0.950 . S
C703 C699 1.393 . S
C703 C702 1.391 . S
H704 C712 0.950 . S
H705 C717 0.950 . S
H706 C714 0.950 . S
H707 C716 0.950 . S
H708 C718 0.950 . S
H709 C720 0.950 . S
H710 C722 0.950 . S
H711 C723 0.950 . S
C712 H704 0.950 . S
C712 C713 1.386 . S
C712 C714 1.391 . S
C713 C712 1.386 . S
C713 C717 1.393 . S
C714 H706 0.950 . S
C714 C712 1.391 . S
C714 C715 1.400 . S
C715 C714 1.400 . S
C715 C716 1.398 . S
C715 C721 1.491 . S
C716 H707 0.950 . S
C716 C715 1.398 . S
C716 C717 1.391 . S
C717 H705 0.950 . S
C717 C713 1.393 . S
C717 C716 1.391 . S
C718 H708 0.950 . S
C718 C719 1.386 . S
C718 C720 1.391 . S
C719 C718 1.386 . S
C719 C723 1.393 . S
C720 H709 0.950 . S
C720 C718 1.391 . S
C720 C721 1.400 . S
C721 C715 1.491 . S
C721 C720 1.400 . S
C721 C722 1.398 . S
C722 H710 0.950 . S
C722 C721 1.398 . S
C722 C723 1.391 . S
C723 H711 0.950 . S
C723 C719 1.393 . S
C723 C722 1.391 . S
H724 C732 0.950 . S
H725 C737 0.950 . S
H726 C734 0.950 . S
H727 C736 0.950 . S
H728 C738 0.950 . S
H729 C740 0.950 . S
H730 C742 0.950 . S
H731 C743 0.950 . S
C732 H724 0.950 . S
C732 C733 1.386 . S
C732 C734 1.391 . S
C733 C732 1.386 . S
C733 C737 1.393 . S
C734 H726 0.950 . S
C734 C732 1.391 . S
C734 C735 1.400 . S
C735 C734 1.400 . S
C735 C736 1.398 . S
C735 C741 1.491 . S
C736 H727 0.950 . S
C736 C735 1.398 . S
C736 C737 1.391 . S
C737 H725 0.950 . S
C737 C733 1.393 . S
C737 C736 1.391 . S
C738 H728 0.950 . S
C738 C739 1.386 . S
C738 C740 1.391 . S
C739 C738 1.386 . S
C739 C743 1.393 . S
C740 H729 0.950 . S
C740 C738 1.391 . S
C740 C741 1.400 . S
C741 C735 1.491 . S
C741 C740 1.400 . S
C741 C742 1.398 . S
C742 H730 0.950 . S
C742 C741 1.398 . S
C742 C743 1.391 . S
C743 H731 0.950 . S
C743 C739 1.393 . S
C743 C742 1.391 . S
H744 C752 0.950 . S
H745 C757 0.950 . S
H746 C754 0.950 . S
H747 C756 0.950 . S
H748 C758 0.950 . S
H749 C760 0.950 . S
H750 C762 0.950 . S
H751 C763 0.950 . S
C752 H744 0.950 . S
C752 C753 1.386 . S
C752 C754 1.391 . S
C753 C752 1.386 . S
C753 C757 1.393 . S
C754 H746 0.950 . S
C754 C752 1.391 . S
C754 C755 1.400 . S
C755 C754 1.400 . S
C755 C756 1.398 . S
C755 C761 1.491 . S
C756 H747 0.950 . S
C756 C755 1.398 . S
C756 C757 1.391 . S
C757 H745 0.950 . S
C757 C753 1.393 . S
C757 C756 1.391 . S
C758 H748 0.950 . S
C758 C759 1.386 . S
C758 C760 1.391 . S
C759 C758 1.386 . S
C759 C763 1.393 . S
C760 H749 0.950 . S
C760 C758 1.391 . S
C760 C761 1.400 . S
C761 C755 1.491 . S
C761 C760 1.400 . S
C761 C762 1.398 . S
C762 H750 0.950 . S
C762 C761 1.398 . S
C762 C763 1.391 . S
C763 H751 0.950 . S
C763 C759 1.393 . S
C763 C762 1.391 . S
H764 C772 0.950 . S
H765 C777 0.950 1_554 S
H766 C774 0.950 . S
H767 C776 0.950 . S
H768 C778 0.950 . S
H769 C780 0.950 . S
H770 C782 0.950 . S
H771 C783 0.950 . S
C772 H764 0.950 . S
C772 C773 1.386 . S
C772 C774 1.391 . S
C773 C772 1.386 . S
C773 C777 1.393 . S
C774 H766 0.950 . S
C774 C772 1.391 . S
C774 C775 1.400 . S
C775 C774 1.400 . S
C775 C776 1.398 . S
C775 C781 1.491 . S
C776 H767 0.950 . S
C776 C775 1.398 . S
C776 C777 1.391 . S
C777 H765 0.950 1_556 S
C777 C773 1.393 . S
C777 C776 1.391 . S
C778 H768 0.950 . S
C778 C779 1.386 . S
C778 C780 1.391 . S
C779 C778 1.386 . S
C779 C783 1.393 . S
C780 H769 0.950 . S
C780 C778 1.391 . S
C780 C781 1.400 . S
C781 C775 1.491 . S
C781 C780 1.400 . S
C781 C782 1.398 . S
C782 H770 0.950 . S
C782 C781 1.398 . S
C782 C783 1.391 . S
C783 H771 0.950 . S
C783 C779 1.393 . S
C783 C782 1.391 . S
H784 C792 0.950 . S
H785 C797 0.950 . S
H786 C794 0.950 . S
H787 C796 0.950 . S
H788 C798 0.950 . S
H789 C800 0.950 . S
H790 C802 0.950 . S
H791 C803 0.950 . S
C792 H784 0.950 . S
C792 C793 1.386 . S
C792 C794 1.391 . S
C793 C792 1.386 . S
C793 C797 1.393 . S
C794 H786 0.950 . S
C794 C792 1.391 . S
C794 C795 1.400 . S
C795 C794 1.400 . S
C795 C796 1.398 . S
C795 C801 1.491 . S
C796 H787 0.950 . S
C796 C795 1.398 . S
C796 C797 1.391 . S
C797 H785 0.950 . S
C797 C793 1.393 . S
C797 C796 1.391 . S
C798 H788 0.950 . S
C798 C799 1.386 . S
C798 C800 1.391 . S
C799 C798 1.386 . S
C799 C803 1.393 . S
C800 H789 0.950 . S
C800 C798 1.391 . S
C800 C801 1.400 . S
C801 C795 1.491 . S
C801 C800 1.400 . S
C801 C802 1.398 . S
C802 H790 0.950 . S
C802 C801 1.398 . S
C802 C803 1.391 . S
C803 H791 0.950 . S
C803 C799 1.393 . S
C803 C802 1.391 . S
H804 C812 0.950 . S
H805 C817 0.950 . S
H806 C814 0.950 . S
H807 C816 0.950 . S
H808 C818 0.950 . S
H809 C820 0.950 . S
H810 C822 0.950 . S
H811 C823 0.950 . S
C812 H804 0.950 . S
C812 C813 1.386 . S
C812 C814 1.391 . S
C813 C812 1.386 . S
C813 C817 1.393 . S
C814 H806 0.950 . S
C814 C812 1.391 . S
C814 C815 1.400 . S
C815 C814 1.400 . S
C815 C816 1.398 . S
C815 C821 1.491 . S
C816 H807 0.950 . S
C816 C815 1.398 . S
C816 C817 1.391 . S
C817 H805 0.950 . S
C817 C813 1.393 . S
C817 C816 1.391 . S
C818 H808 0.950 . S
C818 C819 1.386 . S
C818 C820 1.391 . S
C819 C818 1.386 . S
C819 C823 1.393 . S
C820 H809 0.950 . S
C820 C818 1.391 . S
C820 C821 1.400 . S
C821 C815 1.491 . S
C821 C820 1.400 . S
C821 C822 1.398 . S
C822 H810 0.950 . S
C822 C821 1.398 . S
C822 C823 1.391 . S
C823 H811 0.950 . S
C823 C819 1.393 . S
C823 C822 1.391 . S
H824 C832 0.950 . S
H825 C837 0.950 . S
H826 C834 0.950 . S
H827 C836 0.950 . S
H828 C838 0.950 . S
H829 C840 0.950 . S
H830 C842 0.950 . S
H831 C843 0.950 . S
C832 H824 0.950 . S
C832 C833 1.386 . S
C832 C834 1.391 . S
C833 C832 1.386 . S
C833 C837 1.393 . S
C834 H826 0.950 . S
C834 C832 1.391 . S
C834 C835 1.400 . S
C835 C834 1.400 . S
C835 C836 1.398 . S
C835 C841 1.491 . S
C836 H827 0.950 . S
C836 C835 1.398 . S
C836 C837 1.391 . S
C837 H825 0.950 . S
C837 C833 1.393 . S
C837 C836 1.391 . S
C838 H828 0.950 . S
C838 C839 1.386 . S
C838 C840 1.391 . S
C839 C838 1.386 . S
C839 C843 1.393 . S
C840 H829 0.950 . S
C840 C838 1.391 . S
C840 C841 1.400 . S
C841 C835 1.491 . S
C841 C840 1.400 . S
C841 C842 1.398 . S
C842 H830 0.950 . S
C842 C841 1.398 . S
C842 C843 1.391 . S
C843 H831 0.950 . S
C843 C839 1.393 . S
C843 C842 1.391 . S
H844 C852 0.950 . S
H845 C857 0.950 . S
H846 C854 0.950 . S
H847 C856 0.950 . S
H848 C858 0.950 . S
H849 C860 0.950 . S
H850 C862 0.950 . S
H851 C863 0.950 . S
C852 H844 0.950 . S
C852 C853 1.386 . S
C852 C854 1.391 . S
C853 C852 1.386 . S
C853 C857 1.393 . S
C854 H846 0.950 . S
C854 C852 1.391 . S
C854 C855 1.400 . S
C855 C854 1.400 . S
C855 C856 1.398 . S
C855 C861 1.491 . S
C856 H847 0.950 . S
C856 C855 1.398 . S
C856 C857 1.391 . S
C857 H845 0.950 . S
C857 C853 1.393 . S
C857 C856 1.391 . S
C858 H848 0.950 . S
C858 C859 1.386 . S
C858 C860 1.391 . S
C859 C858 1.386 . S
C859 C863 1.393 . S
C860 H849 0.950 . S
C860 C858 1.391 . S
C860 C861 1.400 . S
C861 C855 1.491 . S
C861 C860 1.400 . S
C861 C862 1.398 . S
C862 H850 0.950 . S
C862 C861 1.398 . S
C862 C863 1.391 . S
C863 H851 0.950 . S
C863 C859 1.393 . S
C863 C862 1.391 . S
H864 C872 0.950 . S
H865 C877 0.950 . S
H866 C874 0.950 1_554 S
H867 C876 0.950 . S
H868 C878 0.950 . S
H869 C880 0.950 . S
H870 C882 0.950 . S
H871 C883 0.950 . S
C872 H864 0.950 . S
C872 C873 1.386 . S
C872 C874 1.391 . S
C873 C872 1.386 . S
C873 C877 1.393 . S
C874 H866 0.950 1_556 S
C874 C872 1.391 . S
C874 C875 1.400 . S
C875 C874 1.400 . S
C875 C876 1.398 . S
C875 C881 1.491 1_556 S
C876 H867 0.950 . S
C876 C875 1.398 . S
C876 C877 1.391 . S
C877 H865 0.950 . S
C877 C873 1.393 . S
C877 C876 1.391 . S
C878 H868 0.950 . S
C878 C879 1.386 . S
C878 C880 1.391 . S
C879 C878 1.386 . S
C879 C883 1.393 . S
C880 H869 0.950 . S
C880 C878 1.391 . S
C880 C881 1.400 . S
C881 C875 1.491 1_554 S
C881 C880 1.400 . S
C881 C882 1.398 . S
C882 H870 0.950 . S
C882 C881 1.398 . S
C882 C883 1.391 . S
C883 H871 0.950 . S
C883 C879 1.393 . S
C883 C882 1.391 . S
H884 C892 0.950 . S
H885 C897 0.950 . S
H886 C894 0.950 . S
H887 C896 0.950 . S
H888 C898 0.950 . S
H889 C900 0.950 . S
H890 C902 0.950 . S
H891 C903 0.950 . S
C892 H884 0.950 . S
C892 C893 1.386 . S
C892 C894 1.391 . S
C893 C892 1.386 . S
C893 C897 1.393 . S
C894 H886 0.950 . S
C894 C892 1.391 . S
C894 C895 1.400 . S
C895 C894 1.400 . S
C895 C896 1.398 . S
C895 C901 1.491 1_554 S
C896 H887 0.950 . S
C896 C895 1.398 . S
C896 C897 1.391 . S
C897 H885 0.950 . S
C897 C893 1.393 . S
C897 C896 1.391 . S
C898 H888 0.950 . S
C898 C899 1.386 . S
C898 C900 1.391 1_556 S
C899 C898 1.386 . S
C899 C903 1.393 . S
C900 H889 0.950 . S
C900 C898 1.391 1_554 S
C900 C901 1.400 1_554 S
C901 C895 1.491 1_556 S
C901 C900 1.400 1_556 S
C901 C902 1.398 . S
C902 H890 0.950 . S
C902 C901 1.398 . S
C902 C903 1.391 . S
C903 H891 0.950 . S
C903 C899 1.393 . S
C903 C902 1.391 . S
H904 C912 0.950 . S
H905 C917 0.950 . S
H906 C914 0.950 . S
H907 C916 0.950 . S
H908 C918 0.950 . S
H909 C920 0.950 . S
H910 C922 0.959 . S
H911 C923 0.950 . S
C912 H904 0.950 . S
C912 C913 1.386 . S
C912 C914 1.391 . S
C913 C912 1.386 . S
C913 C917 1.393 . S
C914 H906 0.950 . S
C914 C912 1.391 . S
C914 C915 1.400 . S
C915 C914 1.400 . S
C915 C916 1.398 . S
C915 C921 1.491 1_554 S
C916 H907 0.950 . S
C916 C915 1.398 . S
C916 C917 1.391 . S
C917 H905 0.950 . S
C917 C913 1.393 . S
C917 C916 1.391 . S
C918 H908 0.950 . S
C918 C919 1.386 . S
C918 C920 1.391 . S
C919 C918 1.386 . S
C919 C923 1.393 . S
C920 H909 0.950 . S
C920 C918 1.391 . S
C920 C921 1.400 . S
C921 C915 1.491 1_556 S
C921 C920 1.400 . S
C921 C922 1.398 1_556 S
C922 H910 0.959 . S
C922 C921 1.398 1_554 S
C922 C923 1.383 1_554 S
C923 H911 0.950 . S
C923 C919 1.393 . S
C923 C922 1.383 1_556 S
H924 C932 0.950 . S
H925 C937 0.950 . S
H926 C934 0.950 . S
H927 C936 0.950 . S
H928 C938 0.950 . S
H929 C940 0.950 . S
H930 C942 0.950 . S
H931 C943 0.950 . S
C932 H924 0.950 . S
C932 C933 1.386 . S
C932 C934 1.391 . S
C933 C932 1.386 . S
C933 C937 1.393 . S
C934 H926 0.950 . S
C934 C932 1.391 . S
C934 C935 1.400 . S
C935 C934 1.400 . S
C935 C936 1.398 . S
C935 C941 1.491 . S
C936 H927 0.950 . S
C936 C935 1.398 . S
C936 C937 1.391 . S
C937 H925 0.950 . S
C937 C933 1.393 . S
C937 C936 1.391 . S
C938 H928 0.950 . S
C938 C939 1.386 . S
C938 C940 1.391 . S
C939 C938 1.386 . S
C939 C943 1.393 . S
C940 H929 0.950 . S
C940 C938 1.391 . S
C940 C941 1.400 . S
C941 C935 1.491 . S
C941 C940 1.400 . S
C941 C942 1.398 . S
C942 H930 0.950 . S
C942 C941 1.398 . S
C942 C943 1.391 . S
C943 H931 0.950 . S
C943 C939 1.393 . S
C943 C942 1.391 . S
H944 C952 0.950 . S
H945 C957 0.950 . S
H946 C954 0.950 . S
H947 C956 0.950 . S
H948 C958 0.950 . S
H949 C960 0.950 . S
H950 C962 0.950 . S
H951 C963 0.950 . S
C952 H944 0.950 . S
C952 C953 1.386 . S
C952 C954 1.391 . S
C953 C952 1.386 . S
C953 C957 1.393 . S
C954 H946 0.950 . S
C954 C952 1.391 . S
C954 C955 1.400 . S
C955 C954 1.400 . S
C955 C956 1.398 . S
C955 C961 1.491 . S
C956 H947 0.950 . S
C956 C955 1.398 . S
C956 C957 1.391 . S
C957 H945 0.950 . S
C957 C953 1.393 . S
C957 C956 1.391 . S
C958 H948 0.950 . S
C958 C959 1.386 . S
C958 C960 1.391 . S
C959 C958 1.386 . S
C959 C963 1.393 . S
C960 H949 0.950 . S
C960 C958 1.391 . S
C960 C961 1.400 . S
C961 C955 1.491 . S
C961 C960 1.400 . S
C961 C962 1.398 . S
C962 H950 0.950 . S
C962 C961 1.398 . S
C962 C963 1.391 . S
C963 H951 0.950 . S
C963 C959 1.393 . S
C963 C962 1.391 . S
H964 C972 0.950 . S
H965 C977 0.950 . S
H966 C974 0.950 . S
H967 C976 0.950 . S
H968 C978 0.950 . S
H969 C980 0.950 . S
H970 C982 0.950 . S
H971 C983 0.950 . S
C972 H964 0.950 . S
C972 C973 1.386 . S
C972 C974 1.391 . S
C973 C972 1.386 . S
C973 C977 1.393 . S
C974 H966 0.950 . S
C974 C972 1.391 . S
C974 C975 1.400 . S
C975 C974 1.400 . S
C975 C976 1.398 . S
C975 C981 1.491 . S
C976 H967 0.950 . S
C976 C975 1.398 . S
C976 C977 1.391 . S
C977 H965 0.950 . S
C977 C973 1.393 . S
C977 C976 1.391 . S
C978 H968 0.950 . S
C978 C979 1.386 . S
C978 C980 1.391 . S
C979 C978 1.386 . S
C979 C983 1.393 . S
C980 H969 0.950 . S
C980 C978 1.391 . S
C980 C981 1.400 . S
C981 C975 1.491 . S
C981 C980 1.400 . S
C981 C982 1.398 . S
C982 H970 0.950 . S
C982 C981 1.398 . S
C982 C983 1.391 . S
C983 H971 0.950 . S
C983 C979 1.393 . S
C983 C982 1.391 . S
H984 C992 0.950 . S
H985 C997 0.950 . S
H986 C994 0.950 . S
H987 C996 0.950 . S
H988 C998 0.950 . S
H989 C1000 0.950 . S
H990 C1002 0.950 . S
H991 C1003 0.950 . S
C992 H984 0.950 . S
C992 C993 1.386 . S
C992 C994 1.391 . S
C993 C992 1.386 . S
C993 C997 1.393 . S
C994 H986 0.950 . S
C994 C992 1.391 . S
C994 C995 1.400 . S
C995 C994 1.400 . S
C995 C996 1.398 . S
C995 C1001 1.491 1_556 S
C996 H987 0.950 . S
C996 C995 1.398 . S
C996 C997 1.391 . S
C997 H985 0.950 . S
C997 C993 1.393 . S
C997 C996 1.391 . S
C998 H988 0.950 . S
C998 C999 1.386 . S
C998 C1000 1.391 1_554 S
C999 C998 1.386 . S
C999 C1003 1.393 . S
C1000 H989 0.950 . S
C1000 C998 1.391 1_556 S
C1000 C1001 1.400 1_556 S
C1001 C995 1.491 1_554 S
C1001 C1000 1.400 1_554 S
C1001 C1002 1.398 . S
C1002 H990 0.950 . S
C1002 C1001 1.398 . S
C1002 C1003 1.391 . S
C1003 H991 0.950 . S
C1003 C999 1.393 . S
C1003 C1002 1.391 . S
H1004 C1012 0.950 . S
H1005 C1017 0.950 . S
H1006 C1014 0.962 . S
H1007 C1016 0.950 . S
H1008 C1018 0.950 . S
H1009 C1020 0.950 . S
H1010 C1022 0.950 . S
H1011 C1023 0.950 . S
C1012 H1004 0.950 . S
C1012 C1013 1.386 . S
C1012 C1014 1.391 . S
C1013 C1012 1.386 . S
C1013 C1017 1.393 . S
C1014 H1006 0.962 . S
C1014 C1012 1.391 . S
C1014 C1015 1.400 . S
C1015 C1014 1.400 . S
C1015 C1016 1.398 . S
C1015 C1021 1.491 1_556 S
C1016 H1007 0.950 . S
C1016 C1015 1.398 . S
C1016 C1017 1.391 . S
C1017 H1005 0.950 . S
C1017 C1013 1.393 . S
C1017 C1016 1.391 . S
C1018 H1008 0.950 . S
C1018 C1019 1.386 . S
C1018 C1020 1.391 1_554 S
C1019 C1018 1.386 . S
C1019 C1023 1.393 . S
C1020 H1009 0.950 . S
C1020 C1018 1.391 1_556 S
C1020 C1021 1.400 1_556 S
C1021 C1015 1.491 1_554 S
C1021 C1020 1.400 1_554 S
C1021 C1022 1.398 . S
C1022 H1010 0.950 . S
C1022 C1021 1.398 . S
C1022 C1023 1.391 . S
C1023 H1011 0.950 . S
C1023 C1019 1.393 . S
C1023 C1022 1.391 . S
H1024 C1032 0.950 . S
H1025 C1037 0.950 . S
H1026 C1034 0.950 . S
H1027 C1036 0.950 . S
H1028 C1038 0.950 . S
H1029 C1040 0.950 1_554 S
H1030 C1042 0.950 . S
H1031 C1043 0.950 . S
C1032 H1024 0.950 . S
C1032 C1033 1.386 . S
C1032 C1034 1.391 1_554 S
C1033 C1032 1.386 . S
C1033 C1037 1.393 . S
C1034 H1026 0.950 . S
C1034 C1032 1.391 1_556 S
C1034 C1035 1.400 1_556 S
C1035 C1034 1.400 1_554 S
C1035 C1036 1.398 . S
C1035 C1041 1.491 1_554 S
C1036 H1027 0.950 . S
C1036 C1035 1.398 . S
C1036 C1037 1.391 . S
C1037 H1025 0.950 . S
C1037 C1033 1.393 . S
C1037 C1036 1.391 . S
C1038 H1028 0.950 . S
C1038 C1039 1.386 . S
C1038 C1040 1.391 . S
C1039 C1038 1.386 . S
C1039 C1043 1.393 . S
C1040 H1029 0.950 1_556 S
C1040 C1038 1.391 . S
C1040 C1041 1.400 . S
C1041 C1035 1.491 1_556 S
C1041 C1040 1.400 . S
C1041 C1042 1.398 . S
C1042 H1030 0.950 . S
C1042 C1041 1.398 . S
C1042 C1043 1.391 . S
C1043 H1031 0.950 . S
C1043 C1039 1.393 . S
C1043 C1042 1.391 . S
H1044 C1052 0.950 . S
H1045 C1057 0.950 . S
H1046 C1054 0.950 . S
H1047 C1056 0.950 . S
H1048 C1058 0.950 . S
H1049 C1060 0.950 . S
H1050 C1062 0.950 . S
H1051 C1063 0.950 . S
C1052 H1044 0.950 . S
C1052 C1053 1.386 . S
C1052 C1054 1.391 . S
C1053 C1052 1.386 . S
C1053 C1057 1.393 . S
C1054 H1046 0.950 . S
C1054 C1052 1.391 . S
C1054 C1055 1.400 . S
C1055 C1054 1.400 . S
C1055 C1056 1.398 . S
C1055 C1061 1.491 . S
C1056 H1047 0.950 . S
C1056 C1055 1.398 . S
C1056 C1057 1.391 . S
C1057 H1045 0.950 . S
C1057 C1053 1.393 . S
C1057 C1056 1.391 . S
C1058 H1048 0.950 . S
C1058 C1059 1.386 . S
C1058 C1060 1.391 . S
C1059 C1058 1.386 . S
C1059 C1063 1.393 . S
C1060 H1049 0.950 . S
C1060 C1058 1.391 . S
C1060 C1061 1.400 . S
C1061 C1055 1.491 . S
C1061 C1060 1.400 . S
C1061 C1062 1.398 . S
C1062 H1050 0.950 . S
C1062 C1061 1.398 . S
C1062 C1063 1.391 . S
C1063 H1051 0.950 . S
C1063 C1059 1.393 . S
C1063 C1062 1.391 . S
H1064 C1072 0.950 . S
H1065 C1077 0.950 . S
H1066 C1074 0.950 . S
H1067 C1076 0.950 . S
H1068 C1078 0.950 . S
H1069 C1080 0.950 . S
H1070 C1082 0.950 . S
H1071 C1083 0.950 . S
C1072 H1064 0.950 . S
C1072 C1073 1.386 . S
C1072 C1074 1.391 . S
C1073 C1072 1.386 . S
C1073 C1077 1.393 . S
C1074 H1066 0.950 . S
C1074 C1072 1.391 . S
C1074 C1075 1.400 . S
C1075 C1074 1.400 . S
C1075 C1076 1.398 . S
C1075 C1081 1.491 . S
C1076 H1067 0.950 . S
C1076 C1075 1.398 . S
C1076 C1077 1.391 . S
C1077 H1065 0.950 . S
C1077 C1073 1.393 . S
C1077 C1076 1.391 . S
C1078 H1068 0.950 . S
C1078 C1079 1.386 . S
C1078 C1080 1.391 . S
C1079 C1078 1.386 . S
C1079 C1083 1.393 . S
C1080 H1069 0.950 . S
C1080 C1078 1.391 . S
C1080 C1081 1.400 . S
C1081 C1075 1.491 . S
C1081 C1080 1.400 . S
C1081 C1082 1.398 . S
C1082 H1070 0.950 . S
C1082 C1081 1.398 . S
C1082 C1083 1.391 . S
C1083 H1071 0.950 . S
C1083 C1079 1.393 . S
C1083 C1082 1.391 . S
H1084 C1092 0.950 . S
H1085 C1097 0.950 . S
H1086 C1094 0.950 . S
H1087 C1096 0.950 . S
H1088 C1098 0.950 . S
H1089 C1100 0.950 . S
H1090 C1102 0.950 . S
H1091 C1103 0.950 . S
C1092 H1084 0.950 . S
C1092 C1093 1.386 . S
C1092 C1094 1.391 . S
C1093 C1092 1.386 . S
C1093 C1097 1.393 . S
C1094 H1086 0.950 . S
C1094 C1092 1.391 . S
C1094 C1095 1.400 . S
C1095 C1094 1.400 . S
C1095 C1096 1.398 . S
C1095 C1101 1.491 . S
C1096 H1087 0.950 . S
C1096 C1095 1.398 . S
C1096 C1097 1.391 . S
C1097 H1085 0.950 . S
C1097 C1093 1.393 . S
C1097 C1096 1.391 . S
C1098 H1088 0.950 . S
C1098 C1099 1.386 . S
C1098 C1100 1.391 . S
C1099 C1098 1.386 . S
C1099 C1103 1.393 . S
C1100 H1089 0.950 . S
C1100 C1098 1.391 . S
C1100 C1101 1.400 . S
C1101 C1095 1.491 . S
C1101 C1100 1.400 . S
C1101 C1102 1.398 . S
C1102 H1090 0.950 . S
C1102 C1101 1.398 . S
C1102 C1103 1.391 . S
C1103 H1091 0.950 . S
C1103 C1099 1.393 . S
C1103 C1102 1.391 . S
H1104 C1112 0.950 . S
H1105 C1117 0.950 . S
H1106 C1114 0.950 . S
H1107 C1116 0.950 . S
H1108 C1118 0.950 . S
H1109 C1120 0.950 . S
H1110 C1122 0.950 . S
H1111 C1123 0.950 . S
C1112 H1104 0.950 . S
C1112 C1113 1.386 . S
C1112 C1114 1.391 . S
C1113 C1112 1.386 . S
C1113 C1117 1.393 . S
C1114 H1106 0.950 . S
C1114 C1112 1.391 . S
C1114 C1115 1.400 . S
C1115 C1114 1.400 . S
C1115 C1116 1.398 . S
C1115 C1121 1.491 . S
C1116 H1107 0.950 . S
C1116 C1115 1.398 . S
C1116 C1117 1.391 . S
C1117 H1105 0.950 . S
C1117 C1113 1.393 . S
C1117 C1116 1.391 . S
C1118 H1108 0.950 . S
C1118 C1119 1.386 . S
C1118 C1120 1.391 . S
C1119 C1118 1.386 . S
C1119 C1123 1.393 . S
C1120 H1109 0.950 . S
C1120 C1118 1.391 . S
C1120 C1121 1.400 . S
C1121 C1115 1.491 . S
C1121 C1120 1.400 . S
C1121 C1122 1.398 . S
C1122 H1110 0.950 . S
C1122 C1121 1.398 . S
C1122 C1123 1.391 . S
C1123 H1111 0.950 . S
C1123 C1119 1.393 . S
C1123 C1122 1.391 . S
H1124 C1132 0.950 . S
H1125 C1137 0.950 . S
H1126 C1134 0.950 . S
H1127 C1136 0.950 . S
H1128 C1138 0.950 . S
H1129 C1140 0.950 . S
H1130 C1142 0.950 . S
H1131 C1143 0.950 . S
C1132 H1124 0.950 . S
C1132 C1133 1.386 . S
C1132 C1134 1.391 . S
C1133 C1132 1.386 . S
C1133 C1137 1.393 . S
C1134 H1126 0.950 . S
C1134 C1132 1.391 . S
C1134 C1135 1.400 . S
C1135 C1134 1.400 . S
C1135 C1136 1.398 . S
C1135 C1141 1.491 . S
C1136 H1127 0.950 . S
C1136 C1135 1.398 . S
C1136 C1137 1.391 . S
C1137 H1125 0.950 . S
C1137 C1133 1.393 . S
C1137 C1136 1.391 . S
C1138 H1128 0.950 . S
C1138 C1139 1.386 . S
C1138 C1140 1.391 . S
C1139 C1138 1.386 . S
C1139 C1143 1.393 . S
C1140 H1129 0.950 . S
C1140 C1138 1.391 . S
C1140 C1141 1.400 . S
C1141 C1135 1.491 . S
C1141 C1140 1.400 . S
C1141 C1142 1.398 . S
C1142 H1130 0.950 . S
C1142 C1141 1.398 . S
C1142 C1143 1.391 . S
C1143 H1131 0.950 . S
C1143 C1139 1.393 . S
C1143 C1142 1.391 . S
H1144 C1152 0.950 . S
H1145 C1157 0.950 . S
H1146 C1154 0.950 . S
H1147 C1156 0.950 . S
H1148 C1158 0.950 . S
H1149 C1160 0.950 . S
H1150 C1162 0.950 . S
H1151 C1163 0.950 . S
C1152 H1144 0.950 . S
C1152 C1153 1.386 . S
C1152 C1154 1.391 . S
C1153 C1152 1.386 . S
C1153 C1157 1.393 . S
C1154 H1146 0.950 . S
C1154 C1152 1.391 . S
C1154 C1155 1.400 . S
C1155 C1154 1.400 . S
C1155 C1156 1.398 . S
C1155 C1161 1.491 . S
C1156 H1147 0.950 . S
C1156 C1155 1.398 . S
C1156 C1157 1.391 . S
C1157 H1145 0.950 . S
C1157 C1153 1.393 . S
C1157 C1156 1.391 . S
C1158 H1148 0.950 . S
C1158 C1159 1.386 . S
C1158 C1160 1.391 . S
C1159 C1158 1.386 . S
C1159 C1163 1.393 . S
C1160 H1149 0.950 . S
C1160 C1158 1.391 . S
C1160 C1161 1.400 . S
C1161 C1155 1.491 . S
C1161 C1160 1.400 . S
C1161 C1162 1.398 . S
C1162 H1150 0.950 . S
C1162 C1161 1.398 . S
C1162 C1163 1.391 . S
C1163 H1151 0.950 . S
C1163 C1159 1.393 . S
C1163 C1162 1.391 . S
H1164 C1172 0.950 . S
H1165 C1177 0.950 . S
H1166 C1174 0.950 . S
H1167 C1176 0.950 . S
H1168 C1178 0.950 . S
H1169 C1180 0.950 . S
H1170 C1182 0.950 . S
H1171 C1183 0.950 . S
C1172 H1164 0.950 . S
C1172 C1173 1.386 . S
C1172 C1174 1.391 . S
C1173 C1172 1.386 . S
C1173 C1177 1.393 . S
C1174 H1166 0.950 . S
C1174 C1172 1.391 . S
C1174 C1175 1.400 . S
C1175 C1174 1.400 . S
C1175 C1176 1.398 . S
C1175 C1181 1.491 . S
C1176 H1167 0.950 . S
C1176 C1175 1.398 . S
C1176 C1177 1.391 . S
C1177 H1165 0.950 . S
C1177 C1173 1.393 . S
C1177 C1176 1.391 . S
C1178 H1168 0.950 . S
C1178 C1179 1.386 . S
C1178 C1180 1.391 . S
C1179 C1178 1.386 . S
C1179 C1183 1.393 . S
C1180 H1169 0.950 . S
C1180 C1178 1.391 . S
C1180 C1181 1.400 . S
C1181 C1175 1.491 . S
C1181 C1180 1.400 . S
C1181 C1182 1.398 . S
C1182 H1170 0.950 . S
C1182 C1181 1.398 . S
C1182 C1183 1.391 . S
C1183 H1171 0.950 . S
C1183 C1179 1.393 . S
C1183 C1182 1.391 . S
H1184 C1192 0.950 . S
H1185 C1197 0.950 . S
H1186 C1194 0.950 . S
H1187 C1196 0.950 . S
H1188 C1198 0.950 . S
H1189 C1200 0.950 . S
H1190 C1202 0.950 . S
H1191 C1203 0.950 . S
C1192 H1184 0.950 . S
C1192 C1193 1.386 . S
C1192 C1194 1.391 . S
C1193 C1192 1.386 . S
C1193 C1197 1.393 . S
C1194 H1186 0.950 . S
C1194 C1192 1.391 . S
C1194 C1195 1.400 . S
C1195 C1194 1.400 . S
C1195 C1196 1.398 . S
C1195 C1201 1.491 . S
C1196 H1187 0.950 . S
C1196 C1195 1.398 . S
C1196 C1197 1.391 . S
C1197 H1185 0.950 . S
C1197 C1193 1.393 . S
C1197 C1196 1.391 . S
C1198 H1188 0.950 . S
C1198 C1199 1.386 . S
C1198 C1200 1.391 . S
C1199 C1198 1.386 . S
C1199 C1203 1.393 . S
C1200 H1189 0.950 . S
C1200 C1198 1.391 . S
C1200 C1201 1.400 . S
C1201 C1195 1.491 . S
C1201 C1200 1.400 . S
C1201 C1202 1.398 . S
C1202 H1190 0.950 . S
C1202 C1201 1.398 . S
C1202 C1203 1.391 . S
C1203 H1191 0.950 . S
C1203 C1199 1.393 . S
C1203 C1202 1.391 . S
H1204 C1212 0.950 . S
H1205 C1217 0.950 . S
H1206 C1214 0.950 . S
H1207 C1216 0.950 . S
H1208 C1218 0.950 . S
H1209 C1220 0.950 . S
H1210 C1222 0.950 . S
H1211 C1223 0.950 . S
C1212 H1204 0.950 . S
C1212 C1213 1.386 . S
C1212 C1214 1.391 . S
C1213 C1212 1.386 . S
C1213 C1217 1.393 . S
C1214 H1206 0.950 . S
C1214 C1212 1.391 . S
C1214 C1215 1.400 . S
C1215 C1214 1.400 . S
C1215 C1216 1.398 . S
C1215 C1221 1.491 . S
C1216 H1207 0.950 . S
C1216 C1215 1.398 . S
C1216 C1217 1.391 . S
C1217 H1205 0.950 . S
C1217 C1213 1.393 . S
C1217 C1216 1.391 . S
C1218 H1208 0.950 . S
C1218 C1219 1.386 . S
C1218 C1220 1.391 . S
C1219 C1218 1.386 . S
C1219 C1223 1.393 . S
C1220 H1209 0.950 . S
C1220 C1218 1.391 . S
C1220 C1221 1.400 . S
C1221 C1215 1.491 . S
C1221 C1220 1.400 . S
C1221 C1222 1.398 . S
C1222 H1210 0.950 . S
C1222 C1221 1.398 . S
C1222 C1223 1.391 . S
C1223 H1211 0.950 . S
C1223 C1219 1.393 . S
C1223 C1222 1.391 . S
H1224 C1232 0.950 . S
H1225 C1237 0.950 . S
H1226 C1234 0.950 . S
H1227 C1236 0.950 . S
H1228 C1238 0.950 . S
H1229 C1240 0.950 . S
H1230 C1242 0.950 . S
H1231 C1243 0.950 . S
C1232 H1224 0.950 . S
C1232 C1233 1.386 . S
C1232 C1234 1.391 . S
C1233 C1232 1.386 . S
C1233 C1237 1.393 . S
C1234 H1226 0.950 . S
C1234 C1232 1.391 . S
C1234 C1235 1.400 . S
C1235 C1234 1.400 . S
C1235 C1236 1.398 . S
C1235 C1241 1.491 . S
C1236 H1227 0.950 . S
C1236 C1235 1.398 . S
C1236 C1237 1.391 . S
C1237 H1225 0.950 . S
C1237 C1233 1.393 . S
C1237 C1236 1.391 . S
C1238 H1228 0.950 . S
C1238 C1239 1.386 . S
C1238 C1240 1.391 . S
C1239 C1238 1.386 . S
C1239 C1243 1.393 . S
C1240 H1229 0.950 . S
C1240 C1238 1.391 . S
C1240 C1241 1.400 . S
C1241 C1235 1.491 . S
C1241 C1240 1.400 . S
C1241 C1242 1.398 . S
C1242 H1230 0.950 . S
C1242 C1241 1.398 . S
C1242 C1243 1.391 . S
C1243 H1231 0.950 . S
C1243 C1239 1.393 . S
C1243 C1242 1.391 . S
H1244 C1252 0.950 . S
H1245 C1257 0.950 . S
H1246 C1254 0.950 . S
H1247 C1256 0.950 . S
H1248 C1258 0.950 . S
H1249 C1260 0.950 . S
H1250 C1262 0.950 . S
H1251 C1263 0.950 . S
C1252 H1244 0.950 . S
C1252 C1253 1.386 . S
C1252 C1254 1.391 . S
C1253 C1252 1.386 . S
C1253 C1257 1.393 . S
C1254 H1246 0.950 . S
C1254 C1252 1.391 . S
C1254 C1255 1.400 . S
C1255 C1254 1.400 . S
C1255 C1256 1.398 . S
C1255 C1261 1.491 . S
C1256 H1247 0.950 . S
C1256 C1255 1.398 . S
C1256 C1257 1.391 . S
C1257 H1245 0.950 . S
C1257 C1253 1.393 . S
C1257 C1256 1.391 . S
C1258 H1248 0.950 . S
C1258 C1259 1.386 . S
C1258 C1260 1.391 . S
C1259 C1258 1.386 . S
C1259 C1263 1.393 . S
C1260 H1249 0.950 . S
C1260 C1258 1.391 . S
C1260 C1261 1.400 . S
C1261 C1255 1.491 . S
C1261 C1260 1.400 . S
C1261 C1262 1.398 . S
C1262 H1250 0.950 . S
C1262 C1261 1.398 . S
C1262 C1263 1.391 . S
C1263 H1251 0.950 . S
C1263 C1259 1.393 . S
C1263 C1262 1.391 . S
H1264 C1272 0.950 . S
H1265 C1277 0.950 . S
H1266 C1274 0.950 . S
H1267 C1276 0.950 . S
H1268 C1278 0.950 . S
H1269 C1280 0.950 . S
H1270 C1282 0.950 . S
H1271 C1283 0.950 . S
C1272 H1264 0.950 . S
C1272 C1273 1.386 . S
C1272 C1274 1.391 . S
C1273 C1272 1.386 . S
C1273 C1277 1.393 . S
C1274 H1266 0.950 . S
C1274 C1272 1.391 . S
C1274 C1275 1.400 . S
C1275 C1274 1.400 . S
C1275 C1276 1.398 . S
C1275 C1281 1.491 . S
C1276 H1267 0.950 . S
C1276 C1275 1.398 . S
C1276 C1277 1.391 . S
C1277 H1265 0.950 . S
C1277 C1273 1.393 . S
C1277 C1276 1.391 . S
C1278 H1268 0.950 . S
C1278 C1279 1.386 . S
C1278 C1280 1.391 . S
C1279 C1278 1.386 . S
C1279 C1283 1.393 . S
C1280 H1269 0.950 . S
C1280 C1278 1.391 . S
C1280 C1281 1.400 . S
C1281 C1275 1.491 . S
C1281 C1280 1.400 . S
C1281 C1282 1.398 . S
C1282 H1270 0.950 . S
C1282 C1281 1.398 . S
C1282 C1283 1.391 . S
C1283 H1271 0.950 . S
C1283 C1279 1.393 . S
C1283 C1282 1.391 . S
H1284 C1292 0.950 . S
H1285 C1297 0.950 . S
H1286 C1294 0.950 . S
H1287 C1296 0.950 . S
H1288 C1298 0.950 . S
H1289 C1300 0.950 . S
H1290 C1302 0.950 . S
H1291 C1303 0.950 . S
C1292 H1284 0.950 . S
C1292 C1293 1.386 . S
C1292 C1294 1.391 . S
C1293 C1292 1.386 . S
C1293 C1297 1.393 . S
C1294 H1286 0.950 . S
C1294 C1292 1.391 . S
C1294 C1295 1.400 . S
C1295 C1294 1.400 . S
C1295 C1296 1.398 . S
C1295 C1301 1.491 . S
C1296 H1287 0.950 . S
C1296 C1295 1.398 . S
C1296 C1297 1.391 . S
C1297 H1285 0.950 . S
C1297 C1293 1.393 . S
C1297 C1296 1.391 . S
C1298 H1288 0.950 . S
C1298 C1299 1.386 . S
C1298 C1300 1.391 . S
C1299 C1298 1.386 . S
C1299 C1303 1.393 . S
C1300 H1289 0.950 . S
C1300 C1298 1.391 . S
C1300 C1301 1.400 . S
C1301 C1295 1.491 . S
C1301 C1300 1.400 . S
C1301 C1302 1.398 . S
C1302 H1290 0.950 . S
C1302 C1301 1.398 . S
C1302 C1303 1.391 . S
C1303 H1291 0.950 . S
C1303 C1299 1.393 . S
C1303 C1302 1.391 . S
H1304 C1312 0.950 . S
H1305 C1317 0.950 . S
H1306 C1314 0.950 . S
H1307 C1316 0.950 . S
H1308 C1318 0.950 . S
H1309 C1320 0.950 . S
H1310 C1322 0.950 . S
H1311 C1323 0.966 . S
C1312 H1304 0.950 . S
C1312 C1313 1.386 . S
C1312 C1314 1.391 . S
C1313 C1312 1.386 . S
C1313 C1317 1.393 . S
C1314 H1306 0.950 . S
C1314 C1312 1.391 . S
C1314 C1315 1.400 . S
C1315 C1314 1.400 . S
C1315 C1316 1.398 . S
C1315 C1321 1.491 . S
C1316 H1307 0.950 . S
C1316 C1315 1.398 . S
C1316 C1317 1.391 . S
C1317 H1305 0.950 . S
C1317 C1313 1.393 . S
C1317 C1316 1.391 . S
C1318 H1308 0.950 . S
C1318 C1319 1.386 . S
C1318 C1320 1.391 . S
C1319 C1318 1.386 . S
C1319 C1323 1.393 . S
C1320 H1309 0.950 . S
C1320 C1318 1.391 . S
C1320 C1321 1.400 . S
C1321 C1315 1.491 . S
C1321 C1320 1.400 . S
C1321 C1322 1.398 . S
C1322 H1310 0.950 . S
C1322 C1321 1.398 . S
C1322 C1323 1.391 . S
C1323 H1311 0.966 . S
C1323 C1319 1.393 . S
C1323 C1322 1.391 . S
H1324 C1332 0.950 . S
H1325 C1337 0.950 . S
H1326 C1334 0.950 . S
H1327 C1336 0.950 . S
H1328 C1338 0.950 . S
H1329 C1340 0.950 . S
H1330 C1342 0.950 . S
H1331 C1343 0.950 . S
C1332 H1324 0.950 . S
C1332 C1333 1.386 . S
C1332 C1334 1.391 . S
C1333 C1332 1.386 . S
C1333 C1337 1.393 . S
C1334 H1326 0.950 . S
C1334 C1332 1.391 . S
C1334 C1335 1.400 . S
C1335 C1334 1.400 . S
C1335 C1336 1.398 . S
C1335 C1341 1.491 . S
C1336 H1327 0.950 . S
C1336 C1335 1.398 . S
C1336 C1337 1.391 . S
C1337 H1325 0.950 . S
C1337 C1333 1.393 . S
C1337 C1336 1.391 . S
C1338 H1328 0.950 . S
C1338 C1339 1.386 . S
C1338 C1340 1.391 . S
C1339 C1338 1.386 . S
C1339 C1343 1.393 . S
C1340 H1329 0.950 . S
C1340 C1338 1.391 . S
C1340 C1341 1.400 . S
C1341 C1335 1.491 . S
C1341 C1340 1.400 . S
C1341 C1342 1.398 . S
C1342 H1330 0.950 . S
C1342 C1341 1.398 . S
C1342 C1343 1.391 . S
C1343 H1331 0.950 . S
C1343 C1339 1.393 . S
C1343 C1342 1.391 . S
H1344 C1352 0.950 . S
H1345 C1357 0.950 . S
H1346 C1354 0.950 . S
H1347 C1356 0.950 . S
H1348 C1358 0.950 . S
H1349 C1360 0.950 . S
H1350 C1362 0.950 . S
H1351 C1363 0.950 . S
C1352 H1344 0.950 . S
C1352 C1353 1.386 . S
C1352 C1354 1.391 . S
C1353 C1352 1.386 . S
C1353 C1357 1.393 . S
C1354 H1346 0.950 . S
C1354 C1352 1.391 . S
C1354 C1355 1.400 . S
C1355 C1354 1.400 . S
C1355 C1356 1.398 . S
C1355 C1361 1.491 . S
C1356 H1347 0.950 . S
C1356 C1355 1.398 . S
C1356 C1357 1.391 . S
C1357 H1345 0.950 . S
C1357 C1353 1.393 . S
C1357 C1356 1.391 . S
C1358 H1348 0.950 . S
C1358 C1359 1.386 . S
C1358 C1360 1.391 . S
C1359 C1358 1.386 . S
C1359 C1363 1.393 . S
C1360 H1349 0.950 . S
C1360 C1358 1.391 . S
C1360 C1361 1.400 . S
C1361 C1355 1.491 . S
C1361 C1360 1.400 . S
C1361 C1362 1.398 . S
C1362 H1350 0.950 . S
C1362 C1361 1.398 . S
C1362 C1363 1.391 . S
C1363 H1351 0.950 . S
C1363 C1359 1.393 . S
C1363 C1362 1.391 . S
H1364 C1372 0.950 . S
H1365 C1377 0.950 . S
H1366 C1374 0.950 . S
H1367 C1376 0.950 . S
H1368 C1378 0.950 . S
H1369 C1380 0.950 . S
H1370 C1382 0.950 . S
H1371 C1383 0.950 . S
C1372 H1364 0.950 . S
C1372 C1373 1.386 . S
C1372 C1374 1.391 . S
C1373 C1372 1.386 . S
C1373 C1377 1.393 . S
C1374 H1366 0.950 . S
C1374 C1372 1.391 . S
C1374 C1375 1.400 . S
C1375 C1374 1.400 . S
C1375 C1376 1.398 . S
C1375 C1381 1.491 . S
C1376 H1367 0.950 . S
C1376 C1375 1.398 . S
C1376 C1377 1.391 . S
C1377 H1365 0.950 . S
C1377 C1373 1.393 . S
C1377 C1376 1.391 . S
C1378 H1368 0.950 . S
C1378 C1379 1.386 . S
C1378 C1380 1.391 . S
C1379 C1378 1.386 . S
C1379 C1383 1.393 . S
C1380 H1369 0.950 . S
C1380 C1378 1.391 . S
C1380 C1381 1.400 . S
C1381 C1375 1.491 . S
C1381 C1380 1.400 . S
C1381 C1382 1.398 . S
C1382 H1370 0.950 . S
C1382 C1381 1.398 . S
C1382 C1383 1.391 . S
C1383 H1371 0.950 . S
C1383 C1379 1.393 . S
C1383 C1382 1.391 . S
H1384 C1392 0.950 . S
H1385 C1397 0.950 . S
H1386 C1394 0.950 . S
H1387 C1396 0.950 . S
H1388 C1398 0.950 . S
H1389 C1400 0.950 . S
H1390 C1402 0.950 . S
H1391 C1403 0.950 . S
C1392 H1384 0.950 . S
C1392 C1393 1.386 . S
C1392 C1394 1.391 . S
C1393 C1392 1.386 . S
C1393 C1397 1.393 . S
C1394 H1386 0.950 . S
C1394 C1392 1.391 . S
C1394 C1395 1.400 . S
C1395 C1394 1.400 . S
C1395 C1396 1.398 . S
C1395 C1401 1.491 . S
C1396 H1387 0.950 . S
C1396 C1395 1.398 . S
C1396 C1397 1.391 . S
C1397 H1385 0.950 . S
C1397 C1393 1.393 . S
C1397 C1396 1.391 . S
C1398 H1388 0.950 . S
C1398 C1399 1.386 . S
C1398 C1400 1.391 . S
C1399 C1398 1.386 . S
C1399 C1403 1.393 . S
C1400 H1389 0.950 . S
C1400 C1398 1.391 . S
C1400 C1401 1.400 . S
C1401 C1395 1.491 . S
C1401 C1400 1.400 . S
C1401 C1402 1.398 . S
C1402 H1390 0.950 . S
C1402 C1401 1.398 . S
C1402 C1403 1.391 . S
C1403 H1391 0.950 . S
C1403 C1399 1.393 . S
C1403 C1402 1.391 . S
H1404 C1412 0.950 . S
H1405 C1417 0.950 . S
H1406 C1414 0.950 . S
H1407 C1416 0.950 . S
H1408 C1418 0.950 . S
H1409 C1420 0.950 . S
H1410 C1422 0.950 . S
H1411 C1423 0.950 . S
C1412 H1404 0.950 . S
C1412 C1413 1.386 . S
C1412 C1414 1.391 . S
C1413 C1412 1.386 . S
C1413 C1417 1.393 . S
C1414 H1406 0.950 . S
C1414 C1412 1.391 . S
C1414 C1415 1.400 . S
C1415 C1414 1.400 . S
C1415 C1416 1.398 . S
C1415 C1421 1.491 . S
C1416 H1407 0.950 . S
C1416 C1415 1.398 . S
C1416 C1417 1.391 . S
C1417 H1405 0.950 . S
C1417 C1413 1.393 . S
C1417 C1416 1.391 . S
C1418 H1408 0.950 . S
C1418 C1419 1.386 . S
C1418 C1420 1.391 . S
C1419 C1418 1.386 . S
C1419 C1423 1.393 . S
C1420 H1409 0.950 . S
C1420 C1418 1.391 . S
C1420 C1421 1.400 . S
C1421 C1415 1.491 . S
C1421 C1420 1.400 . S
C1421 C1422 1.398 . S
C1422 H1410 0.950 . S
C1422 C1421 1.398 . S
C1422 C1423 1.391 . S
C1423 H1411 0.950 . S
C1423 C1419 1.393 . S
C1423 C1422 1.391 . S
H1424 C1432 0.950 . S
H1425 C1437 0.950 . S
H1426 C1434 0.950 . S
H1427 C1436 0.950 . S
H1428 C1438 0.950 1_556 S
H1429 C1440 0.950 . S
H1430 C1442 0.950 . S
H1431 C1443 0.950 . S
C1432 H1424 0.950 . S
C1432 C1433 1.386 . S
C1432 C1434 1.391 . S
C1433 C1432 1.386 . S
C1433 C1437 1.393 . S
C1434 H1426 0.950 . S
C1434 C1432 1.391 . S
C1434 C1435 1.400 . S
C1435 C1434 1.400 . S
C1435 C1436 1.398 . S
C1435 C1441 1.491 . S
C1436 H1427 0.950 . S
C1436 C1435 1.398 . S
C1436 C1437 1.391 . S
C1437 H1425 0.950 . S
C1437 C1433 1.393 . S
C1437 C1436 1.391 . S
C1438 H1428 0.950 1_554 S
C1438 C1439 1.386 . S
C1438 C1440 1.391 . S
C1439 C1438 1.386 . S
C1439 C1443 1.393 . S
C1440 H1429 0.950 . S
C1440 C1438 1.391 . S
C1440 C1441 1.400 . S
C1441 C1435 1.491 . S
C1441 C1440 1.400 . S
C1441 C1442 1.398 . S
C1442 H1430 0.950 . S
C1442 C1441 1.398 . S
C1442 C1443 1.391 . S
C1443 H1431 0.950 . S
C1443 C1439 1.393 . S
C1443 C1442 1.391 . S
H1444 C1452 0.950 . S
H1445 C1457 0.950 . S
H1446 C1454 0.950 . S
H1447 C1456 0.950 . S
H1448 C1458 0.950 . S
H1449 C1460 0.950 . S
H1450 C1462 0.950 . S
H1451 C1463 0.950 . S
C1452 H1444 0.950 . S
C1452 C1453 1.386 . S
C1452 C1454 1.391 . S
C1453 C1452 1.386 . S
C1453 C1457 1.393 . S
C1454 H1446 0.950 . S
C1454 C1452 1.391 . S
C1454 C1455 1.400 . S
C1455 C1454 1.400 . S
C1455 C1456 1.398 . S
C1455 C1461 1.491 . S
C1456 H1447 0.950 . S
C1456 C1455 1.398 . S
C1456 C1457 1.391 . S
C1457 H1445 0.950 . S
C1457 C1453 1.393 . S
C1457 C1456 1.391 . S
C1458 H1448 0.950 . S
C1458 C1459 1.386 . S
C1458 C1460 1.391 . S
C1459 C1458 1.386 . S
C1459 C1463 1.393 . S
C1460 H1449 0.950 . S
C1460 C1458 1.391 . S
C1460 C1461 1.400 . S
C1461 C1455 1.491 . S
C1461 C1460 1.400 . S
C1461 C1462 1.398 . S
C1462 H1450 0.950 . S
C1462 C1461 1.398 . S
C1462 C1463 1.391 . S
C1463 H1451 0.950 . S
C1463 C1459 1.393 . S
C1463 C1462 1.391 . S
H1464 C1472 0.950 . S
H1465 C1477 0.950 . S
H1466 C1474 0.950 . S
H1467 C1476 0.950 . S
H1468 C1478 0.950 . S
H1469 C1480 0.950 . S
H1470 C1482 0.950 . S
H1471 C1483 0.950 . S
C1472 H1464 0.950 . S
C1472 C1473 1.386 . S
C1472 C1474 1.391 . S
C1473 C1472 1.386 . S
C1473 C1477 1.393 . S
C1474 H1466 0.950 . S
C1474 C1472 1.391 . S
C1474 C1475 1.400 . S
C1475 C1474 1.400 . S
C1475 C1476 1.398 . S
C1475 C1481 1.491 . S
C1476 H1467 0.950 . S
C1476 C1475 1.398 . S
C1476 C1477 1.391 . S
C1477 H1465 0.950 . S
C1477 C1473 1.393 . S
C1477 C1476 1.391 . S
C1478 H1468 0.950 . S
C1478 C1479 1.386 . S
C1478 C1480 1.391 . S
C1479 C1478 1.386 . S
C1479 C1483 1.393 . S
C1480 H1469 0.950 . S
C1480 C1478 1.391 . S
C1480 C1481 1.400 . S
C1481 C1475 1.491 . S
C1481 C1480 1.400 . S
C1481 C1482 1.398 . S
C1482 H1470 0.950 . S
C1482 C1481 1.398 . S
C1482 C1483 1.391 . S
C1483 H1471 0.950 . S
C1483 C1479 1.393 . S
C1483 C1482 1.391 . S
H1484 C1492 0.950 . S
H1485 C1497 0.950 . S
H1486 C1494 0.950 . S
H1487 C1496 0.950 . S
H1488 C1498 0.950 . S
H1489 C1500 0.950 . S
H1490 C1502 0.950 . S
H1491 C1503 0.950 . S
C1492 H1484 0.950 . S
C1492 C1493 1.386 . S
C1492 C1494 1.391 . S
C1493 C1492 1.386 . S
C1493 C1497 1.393 . S
C1494 H1486 0.950 . S
C1494 C1492 1.391 . S
C1494 C1495 1.400 . S
C1495 C1494 1.400 . S
C1495 C1496 1.398 . S
C1495 C1501 1.491 . S
C1496 H1487 0.950 . S
C1496 C1495 1.398 . S
C1496 C1497 1.391 . S
C1497 H1485 0.950 . S
C1497 C1493 1.393 . S
C1497 C1496 1.391 . S
C1498 H1488 0.950 . S
C1498 C1499 1.386 . S
C1498 C1500 1.391 . S
C1499 C1498 1.386 . S
C1499 C1503 1.393 . S
C1500 H1489 0.950 . S
C1500 C1498 1.391 . S
C1500 C1501 1.400 . S
C1501 C1495 1.491 . S
C1501 C1500 1.400 . S
C1501 C1502 1.398 . S
C1502 H1490 0.950 . S
C1502 C1501 1.398 . S
C1502 C1503 1.391 . S
C1503 H1491 0.950 . S
C1503 C1499 1.393 . S
C1503 C1502 1.391 . S
H1504 C1512 0.950 . S
H1505 C1517 0.950 . S
H1506 C1514 0.950 . S
H1507 C1516 0.950 . S
H1508 C1518 0.950 . S
H1509 C1520 0.950 . S
H1510 C1522 0.950 . S
H1511 C1523 0.950 . S
C1512 H1504 0.950 . S
C1512 C1513 1.386 . S
C1512 C1514 1.391 . S
C1513 C1512 1.386 . S
C1513 C1517 1.393 . S
C1514 H1506 0.950 . S
C1514 C1512 1.391 . S
C1514 C1515 1.400 . S
C1515 C1514 1.400 . S
C1515 C1516 1.398 . S
C1515 C1521 1.491 . S
C1516 H1507 0.950 . S
C1516 C1515 1.398 . S
C1516 C1517 1.391 . S
C1517 H1505 0.950 . S
C1517 C1513 1.393 . S
C1517 C1516 1.391 . S
C1518 H1508 0.950 . S
C1518 C1519 1.386 . S
C1518 C1520 1.391 . S
C1519 C1518 1.386 . S
C1519 C1523 1.393 . S
C1520 H1509 0.950 . S
C1520 C1518 1.391 . S
C1520 C1521 1.400 . S
C1521 C1515 1.491 . S
C1521 C1520 1.400 . S
C1521 C1522 1.398 . S
C1522 H1510 0.950 . S
C1522 C1521 1.398 . S
C1522 C1523 1.391 . S
C1523 H1511 0.950 . S
C1523 C1519 1.393 . S
C1523 C1522 1.391 . S
H1524 C1532 0.950 . S
H1525 C1537 0.950 . S
H1526 C1534 0.950 . S
H1527 C1536 0.950 . S
H1528 C1538 0.950 . S
H1529 C1540 0.950 . S
H1530 C1542 0.950 . S
H1531 C1543 0.950 . S
C1532 H1524 0.950 . S
C1532 C1533 1.386 . S
C1532 C1534 1.391 . S
C1533 C1532 1.386 . S
C1533 C1537 1.393 . S
C1534 H1526 0.950 . S
C1534 C1532 1.391 . S
C1534 C1535 1.400 . S
C1535 C1534 1.400 . S
C1535 C1536 1.398 . S
C1535 C1541 1.491 . S
C1536 H1527 0.950 . S
C1536 C1535 1.398 . S
C1536 C1537 1.391 . S
C1537 H1525 0.950 . S
C1537 C1533 1.393 . S
C1537 C1536 1.391 . S
C1538 H1528 0.950 . S
C1538 C1539 1.386 . S
C1538 C1540 1.391 . S
C1539 C1538 1.386 . S
C1539 C1543 1.393 . S
C1540 H1529 0.950 . S
C1540 C1538 1.391 . S
C1540 C1541 1.400 . S
C1541 C1535 1.491 . S
C1541 C1540 1.400 . S
C1541 C1542 1.398 . S
C1542 H1530 0.950 . S
C1542 C1541 1.398 . S
C1542 C1543 1.391 . S
C1543 H1531 0.950 . S
C1543 C1539 1.393 . S
C1543 C1542 1.391 . S
H1544 C1552 0.950 . S
H1545 C1557 0.950 . S
H1546 C1554 0.950 . S
H1547 C1556 0.950 . S
H1548 C1558 0.950 . S
H1549 C1560 0.950 . S
H1550 C1562 0.950 . S
H1551 C1563 0.950 . S
C1552 H1544 0.950 . S
C1552 C1553 1.386 . S
C1552 C1554 1.391 . S
C1553 C1552 1.386 . S
C1553 C1557 1.393 . S
C1554 H1546 0.950 . S
C1554 C1552 1.391 . S
C1554 C1555 1.400 . S
C1555 C1554 1.400 . S
C1555 C1556 1.398 . S
C1555 C1561 1.491 . S
C1556 H1547 0.950 . S
C1556 C1555 1.398 . S
C1556 C1557 1.391 . S
C1557 H1545 0.950 . S
C1557 C1553 1.393 . S
C1557 C1556 1.391 . S
C1558 H1548 0.950 . S
C1558 C1559 1.386 . S
C1558 C1560 1.391 . S
C1559 C1558 1.386 . S
C1559 C1563 1.393 . S
C1560 H1549 0.950 . S
C1560 C1558 1.391 . S
C1560 C1561 1.400 . S
C1561 C1555 1.491 . S
C1561 C1560 1.400 . S
C1561 C1562 1.398 . S
C1562 H1550 0.950 . S
C1562 C1561 1.398 . S
C1562 C1563 1.391 . S
C1563 H1551 0.950 . S
C1563 C1559 1.393 . S
C1563 C1562 1.391 . S
H1564 C1572 0.950 . S
H1565 C1577 0.950 . S
H1566 C1574 0.950 . S
H1567 C1576 0.950 . S
H1568 C1578 0.950 . S
H1569 C1580 0.950 . S
H1570 C1582 0.950 . S
H1571 C1583 0.950 . S
C1572 H1564 0.950 . S
C1572 C1573 1.386 . S
C1572 C1574 1.391 . S
C1573 C1572 1.386 . S
C1573 C1577 1.393 . S
C1574 H1566 0.950 . S
C1574 C1572 1.391 . S
C1574 C1575 1.400 . S
C1575 C1574 1.400 . S
C1575 C1576 1.398 . S
C1575 C1581 1.491 . S
C1576 H1567 0.950 . S
C1576 C1575 1.398 . S
C1576 C1577 1.391 . S
C1577 H1565 0.950 . S
C1577 C1573 1.393 . S
C1577 C1576 1.391 . S
C1578 H1568 0.950 . S
C1578 C1579 1.386 . S
C1578 C1580 1.391 . S
C1579 C1578 1.386 . S
C1579 C1583 1.393 . S
C1580 H1569 0.950 . S
C1580 C1578 1.391 . S
C1580 C1581 1.400 . S
C1581 C1575 1.491 . S
C1581 C1580 1.400 . S
C1581 C1582 1.398 . S
C1582 H1570 0.950 . S
C1582 C1581 1.398 . S
C1582 C1583 1.391 . S
C1583 H1571 0.950 . S
C1583 C1579 1.393 . S
C1583 C1582 1.391 . S
H1584 C1592 0.950 . S
H1585 C1597 0.950 . S
H1586 C1594 0.950 1_556 S
H1587 C1596 0.950 . S
H1588 C1598 0.950 . S
H1589 C1600 0.950 . S
H1590 C1602 0.950 . S
H1591 C1603 0.950 . S
C1592 H1584 0.950 . S
C1592 C1593 1.386 1_556 S
C1592 C1594 1.391 1_556 S
C1593 C1592 1.386 1_554 S
C1593 C1597 1.393 . S
C1594 H1586 0.950 1_554 S
C1594 C1592 1.391 1_554 S
C1594 C1595 1.400 . S
C1595 C1594 1.400 . S
C1595 C1596 1.398 . S
C1595 C1601 1.491 . S
C1596 H1587 0.950 . S
C1596 C1595 1.398 . S
C1596 C1597 1.391 . S
C1597 H1585 0.950 . S
C1597 C1593 1.393 . S
C1597 C1596 1.391 . S
C1598 H1588 0.950 . S
C1598 C1599 1.386 . S
C1598 C1600 1.391 . S
C1599 C1598 1.386 . S
C1599 C1603 1.393 . S
C1600 H1589 0.950 . S
C1600 C1598 1.391 . S
C1600 C1601 1.400 . S
C1601 C1595 1.491 . S
C1601 C1600 1.400 . S
C1601 C1602 1.398 . S
C1602 H1590 0.950 . S
C1602 C1601 1.398 . S
C1602 C1603 1.391 . S
C1603 H1591 0.950 . S
C1603 C1599 1.393 . S
C1603 C1602 1.391 . S
H1604 C1612 0.950 . S
H1605 C1617 0.950 . S
H1606 C1614 0.950 . S
H1607 C1616 0.950 . S
H1608 C1618 0.950 . S
H1609 C1620 0.950 . S
H1610 C1622 0.950 . S
H1611 C1623 0.950 . S
C1612 H1604 0.950 . S
C1612 C1613 1.386 . S
C1612 C1614 1.391 . S
C1613 C1612 1.386 . S
C1613 C1617 1.393 . S
C1614 H1606 0.950 . S
C1614 C1612 1.391 . S
C1614 C1615 1.400 . S
C1615 C1614 1.400 . S
C1615 C1616 1.398 . S
C1615 C1621 1.491 . S
C1616 H1607 0.950 . S
C1616 C1615 1.398 . S
C1616 C1617 1.391 . S
C1617 H1605 0.950 . S
C1617 C1613 1.393 . S
C1617 C1616 1.391 . S
C1618 H1608 0.950 . S
C1618 C1619 1.390 . S
C1618 C1620 1.391 . S
C1619 C1618 1.390 . S
C1619 C1623 1.392 1_554 S
C1620 H1609 0.950 . S
C1620 C1618 1.391 . S
C1620 C1621 1.400 . S
C1621 C1615 1.491 . S
C1621 C1620 1.400 . S
C1621 C1622 1.398 . S
C1622 H1610 0.950 . S
C1622 C1621 1.398 . S
C1622 C1623 1.391 1_554 S
C1623 H1611 0.950 . S
C1623 C1619 1.392 1_556 S
C1623 C1622 1.391 1_556 S
H1624 C1632 0.950 . S
H1625 C1637 0.950 . S
H1626 C1634 0.950 1_556 S
H1627 C1636 0.950 . S
H1628 C1638 0.950 . S
H1629 C1640 0.950 . S
H1630 C1642 0.950 . S
H1631 C1643 0.950 . S
C1632 H1624 0.950 . S
C1632 C1633 1.386 1_556 S
C1632 C1634 1.391 1_556 S
C1633 C1632 1.386 1_554 S
C1633 C1637 1.393 . S
C1634 H1626 0.950 1_554 S
C1634 C1632 1.391 1_554 S
C1634 C1635 1.400 . S
C1635 C1634 1.400 . S
C1635 C1636 1.398 . S
C1635 C1641 1.491 . S
C1636 H1627 0.950 . S
C1636 C1635 1.398 . S
C1636 C1637 1.391 . S
C1637 H1625 0.950 . S
C1637 C1633 1.393 . S
C1637 C1636 1.391 . S
C1638 H1628 0.950 . S
C1638 C1639 1.386 . S
C1638 C1640 1.391 . S
C1639 C1638 1.386 . S
C1639 C1643 1.393 . S
C1640 H1629 0.950 . S
C1640 C1638 1.391 . S
C1640 C1641 1.400 . S
C1641 C1635 1.491 . S
C1641 C1640 1.400 . S
C1641 C1642 1.398 . S
C1642 H1630 0.950 . S
C1642 C1641 1.398 . S
C1642 C1643 1.391 . S
C1643 H1631 0.950 . S
C1643 C1639 1.393 . S
C1643 C1642 1.391 . S
H1644 C1652 0.950 . S
H1645 C1657 0.950 . S
H1646 C1654 0.950 . S
H1647 C1656 0.950 . S
H1648 C1658 0.950 . S
H1649 C1660 0.950 . S
H1650 C1662 0.950 . S
H1651 C1663 0.950 . S
C1652 H1644 0.950 . S
C1652 C1653 1.386 . S
C1652 C1654 1.391 . S
C1653 C1652 1.386 . S
C1653 C1657 1.393 . S
C1654 H1646 0.950 . S
C1654 C1652 1.391 . S
C1654 C1655 1.400 . S
C1655 C1654 1.400 . S
C1655 C1656 1.398 . S
C1655 C1661 1.491 . S
C1656 H1647 0.950 . S
C1656 C1655 1.398 . S
C1656 C1657 1.391 . S
C1657 H1645 0.950 . S
C1657 C1653 1.393 . S
C1657 C1656 1.391 . S
C1658 H1648 0.950 . S
C1658 C1659 1.386 . S
C1658 C1660 1.391 . S
C1659 C1658 1.386 . S
C1659 C1663 1.393 . S
C1660 H1649 0.950 . S
C1660 C1658 1.391 . S
C1660 C1661 1.400 . S
C1661 C1655 1.491 . S
C1661 C1660 1.400 . S
C1661 C1662 1.398 . S
C1662 H1650 0.950 . S
C1662 C1661 1.398 . S
C1662 C1663 1.391 . S
C1663 H1651 0.950 . S
C1663 C1659 1.393 . S
C1663 C1662 1.391 . S
H1664 C1672 0.950 . S
H1665 C1677 0.950 . S
H1666 C1674 0.950 . S
H1667 C1676 0.950 . S
H1668 C1678 0.950 . S
H1669 C1680 0.950 . S
H1670 C1682 0.950 . S
H1671 C1683 0.950 . S
C1672 H1664 0.950 . S
C1672 C1673 1.386 . S
C1672 C1674 1.391 . S
C1673 C1672 1.386 . S
C1673 C1677 1.393 . S
C1674 H1666 0.950 . S
C1674 C1672 1.391 . S
C1674 C1675 1.400 . S
C1675 C1674 1.400 . S
C1675 C1676 1.398 . S
C1675 C1681 1.491 . S
C1676 H1667 0.950 . S
C1676 C1675 1.398 . S
C1676 C1677 1.391 . S
C1677 H1665 0.950 . S
C1677 C1673 1.393 . S
C1677 C1676 1.391 . S
C1678 H1668 0.950 . S
C1678 C1679 1.386 . S
C1678 C1680 1.391 . S
C1679 C1678 1.386 . S
C1679 C1683 1.393 . S
C1680 H1669 0.950 . S
C1680 C1678 1.391 . S
C1680 C1681 1.400 . S
C1681 C1675 1.491 . S
C1681 C1680 1.400 . S
C1681 C1682 1.398 . S
C1682 H1670 0.950 . S
C1682 C1681 1.398 . S
C1682 C1683 1.391 . S
C1683 H1671 0.950 . S
C1683 C1679 1.393 . S
C1683 C1682 1.391 . S
H1684 C1692 0.950 . S
H1685 C1697 0.950 . S
H1686 C1694 0.950 . S
H1687 C1696 0.950 . S
H1688 C1698 0.950 . S
H1689 C1700 0.950 . S
H1690 C1702 0.950 . S
H1691 C1703 0.950 . S
C1692 H1684 0.950 . S
C1692 C1693 1.386 . S
C1692 C1694 1.391 . S
C1693 C1692 1.386 . S
C1693 C1697 1.393 . S
C1694 H1686 0.950 . S
C1694 C1692 1.391 . S
C1694 C1695 1.400 . S
C1695 C1694 1.400 . S
C1695 C1696 1.398 . S
C1695 C1701 1.491 . S
C1696 H1687 0.950 . S
C1696 C1695 1.398 . S
C1696 C1697 1.391 . S
C1697 H1685 0.950 . S
C1697 C1693 1.393 . S
C1697 C1696 1.391 . S
C1698 H1688 0.950 . S
C1698 C1699 1.386 . S
C1698 C1700 1.391 . S
C1699 C1698 1.386 . S
C1699 C1703 1.393 . S
C1700 H1689 0.950 . S
C1700 C1698 1.391 . S
C1700 C1701 1.400 . S
C1701 C1695 1.491 . S
C1701 C1700 1.400 . S
C1701 C1702 1.398 . S
C1702 H1690 0.950 . S
C1702 C1701 1.398 . S
C1702 C1703 1.391 . S
C1703 H1691 0.950 . S
C1703 C1699 1.393 . S
C1703 C1702 1.391 . S
H1704 C1712 0.950 . S
H1705 C1717 0.950 . S
H1706 C1714 0.950 . S
H1707 C1716 0.950 . S
H1708 C1718 0.950 . S
H1709 C1720 0.950 . S
H1710 C1722 0.950 . S
H1711 C1723 0.950 . S
C1712 H1704 0.950 . S
C1712 C1713 1.386 . S
C1712 C1714 1.391 . S
C1713 C1712 1.386 . S
C1713 C1717 1.393 . S
C1714 H1706 0.950 . S
C1714 C1712 1.391 . S
C1714 C1715 1.400 . S
C1715 C1714 1.400 . S
C1715 C1716 1.398 . S
C1715 C1721 1.491 . S
C1716 H1707 0.950 . S
C1716 C1715 1.398 . S
C1716 C1717 1.391 . S
C1717 H1705 0.950 . S
C1717 C1713 1.393 . S
C1717 C1716 1.391 . S
C1718 H1708 0.950 . S
C1718 C1719 1.386 1_554 S
C1718 C1720 1.391 1_554 S
C1719 C1718 1.386 1_556 S
C1719 C1723 1.393 . S
C1720 H1709 0.950 . S
C1720 C1718 1.391 1_556 S
C1720 C1721 1.400 . S
C1721 C1715 1.491 . S
C1721 C1720 1.400 . S
C1721 C1722 1.398 . S
C1722 H1710 0.950 . S
C1722 C1721 1.398 . S
C1722 C1723 1.391 . S
C1723 H1711 0.950 . S
C1723 C1719 1.393 . S
C1723 C1722 1.391 . S
H1724 C1732 0.950 1_554 S
H1725 C1737 0.950 . S
H1726 C1734 0.950 . S
H1727 C1736 0.950 . S
H1728 C1738 0.950 . S
H1729 C1740 0.950 . S
H1730 C1742 0.950 . S
H1731 C1743 0.950 . S
C1732 H1724 0.950 1_556 S
C1732 C1733 1.386 . S
C1732 C1734 1.391 . S
C1733 C1732 1.386 . S
C1733 C1737 1.393 . S
C1734 H1726 0.950 . S
C1734 C1732 1.391 . S
C1734 C1735 1.400 . S
C1735 C1734 1.400 . S
C1735 C1736 1.398 . S
C1735 C1741 1.491 . S
C1736 H1727 0.950 . S
C1736 C1735 1.398 . S
C1736 C1737 1.391 . S
C1737 H1725 0.950 . S
C1737 C1733 1.393 . S
C1737 C1736 1.391 . S
C1738 H1728 0.950 . S
C1738 C1739 1.386 . S
C1738 C1740 1.391 . S
C1739 C1738 1.386 . S
C1739 C1743 1.393 . S
C1740 H1729 0.950 . S
C1740 C1738 1.391 . S
C1740 C1741 1.400 . S
C1741 C1735 1.491 . S
C1741 C1740 1.400 . S
C1741 C1742 1.398 . S
C1742 H1730 0.950 . S
C1742 C1741 1.398 . S
C1742 C1743 1.391 . S
C1743 H1731 0.950 . S
C1743 C1739 1.393 . S
C1743 C1742 1.391 . S
H1744 C1752 0.950 . S
H1745 C1757 0.950 . S
H1746 C1754 0.950 . S
H1747 C1756 0.950 . S
H1748 C1758 0.950 . S
H1749 C1760 0.950 . S
H1750 C1762 0.950 . S
H1751 C1763 0.950 1_554 S
C1752 H1744 0.950 . S
C1752 C1753 1.386 . S
C1752 C1754 1.391 . S
C1753 C1752 1.386 . S
C1753 C1757 1.393 . S
C1754 H1746 0.950 . S
C1754 C1752 1.391 . S
C1754 C1755 1.400 . S
C1755 C1754 1.400 . S
C1755 C1756 1.398 . S
C1755 C1761 1.491 . S
C1756 H1747 0.950 . S
C1756 C1755 1.398 . S
C1756 C1757 1.391 . S
C1757 H1745 0.950 . S
C1757 C1753 1.393 . S
C1757 C1756 1.391 . S
C1758 H1748 0.950 . S
C1758 C1759 1.387 . S
C1758 C1760 1.391 . S
C1759 C1758 1.387 . S
C1759 C1763 1.393 . S
C1760 H1749 0.950 . S
C1760 C1758 1.391 . S
C1760 C1761 1.400 . S
C1761 C1755 1.491 . S
C1761 C1760 1.400 . S
C1761 C1762 1.398 . S
C1762 H1750 0.950 . S
C1762 C1761 1.398 . S
C1762 C1763 1.391 . S
C1763 H1751 0.950 1_556 S
C1763 C1759 1.393 . S
C1763 C1762 1.391 . S
H1764 C1772 0.950 . S
H1765 C1777 0.950 . S
H1766 C1774 0.950 . S
H1767 C1776 0.950 . S
H1768 C1778 0.950 . S
H1769 C1780 0.950 . S
H1770 C1782 0.950 . S
H1771 C1783 0.950 . S
C1772 H1764 0.950 . S
C1772 C1773 1.386 . S
C1772 C1774 1.391 . S
C1773 C1772 1.386 . S
C1773 C1777 1.393 . S
C1774 H1766 0.950 . S
C1774 C1772 1.391 . S
C1774 C1775 1.400 . S
C1775 C1774 1.400 . S
C1775 C1776 1.398 . S
C1775 C1781 1.491 . S
C1776 H1767 0.950 . S
C1776 C1775 1.398 . S
C1776 C1777 1.391 . S
C1777 H1765 0.950 . S
C1777 C1773 1.393 . S
C1777 C1776 1.391 . S
C1778 H1768 0.950 . S
C1778 C1779 1.386 . S
C1778 C1780 1.391 . S
C1779 C1778 1.386 . S
C1779 C1783 1.393 . S
C1780 H1769 0.950 . S
C1780 C1778 1.391 . S
C1780 C1781 1.400 . S
C1781 C1775 1.491 . S
C1781 C1780 1.400 . S
C1781 C1782 1.398 . S
C1782 H1770 0.950 . S
C1782 C1781 1.398 . S
C1782 C1783 1.391 . S
C1783 H1771 0.950 . S
C1783 C1779 1.393 . S
C1783 C1782 1.391 . S
H1784 C1792 0.950 . S
H1785 C1797 0.950 . S
H1786 C1794 0.950 . S
H1787 C1796 0.950 . S
H1788 C1798 0.950 . S
H1789 C1800 0.950 . S
H1790 C1802 0.950 . S
H1791 C1803 0.950 . S
C1792 H1784 0.950 . S
C1792 C1793 1.386 . S
C1792 C1794 1.391 . S
C1793 C1792 1.386 . S
C1793 C1797 1.393 . S
C1794 H1786 0.950 . S
C1794 C1792 1.391 . S
C1794 C1795 1.400 . S
C1795 C1794 1.400 . S
C1795 C1796 1.398 . S
C1795 C1801 1.491 . S
C1796 H1787 0.950 . S
C1796 C1795 1.398 . S
C1796 C1797 1.391 . S
C1797 H1785 0.950 . S
C1797 C1793 1.393 . S
C1797 C1796 1.391 . S
C1798 H1788 0.950 . S
C1798 C1799 1.386 . S
C1798 C1800 1.391 . S
C1799 C1798 1.386 . S
C1799 C1803 1.393 . S
C1800 H1789 0.950 . S
C1800 C1798 1.391 . S
C1800 C1801 1.400 . S
C1801 C1795 1.491 . S
C1801 C1800 1.400 . S
C1801 C1802 1.398 . S
C1802 H1790 0.950 . S
C1802 C1801 1.398 . S
C1802 C1803 1.391 . S
C1803 H1791 0.950 . S
C1803 C1799 1.393 . S
C1803 C1802 1.391 . S
H1804 C1812 0.950 . S
H1805 C1817 0.950 . S
H1806 C1814 0.950 . S
H1807 C1816 0.950 . S
H1808 C1818 0.950 . S
H1809 C1820 0.950 . S
H1810 C1822 0.950 . S
H1811 C1823 0.950 . S
C1812 H1804 0.950 . S
C1812 C1813 1.386 . S
C1812 C1814 1.391 . S
C1813 C1812 1.386 . S
C1813 C1817 1.393 . S
C1814 H1806 0.950 . S
C1814 C1812 1.391 . S
C1814 C1815 1.400 . S
C1815 C1814 1.400 . S
C1815 C1816 1.398 . S
C1815 C1821 1.491 . S
C1816 H1807 0.950 . S
C1816 C1815 1.398 . S
C1816 C1817 1.391 . S
C1817 H1805 0.950 . S
C1817 C1813 1.393 . S
C1817 C1816 1.391 . S
C1818 H1808 0.950 . S
C1818 C1819 1.386 . S
C1818 C1820 1.391 . S
C1819 C1818 1.386 . S
C1819 C1823 1.393 . S
C1820 H1809 0.950 . S
C1820 C1818 1.391 . S
C1820 C1821 1.400 . S
C1821 C1815 1.491 . S
C1821 C1820 1.400 . S
C1821 C1822 1.398 . S
C1822 H1810 0.950 . S
C1822 C1821 1.398 . S
C1822 C1823 1.391 . S
C1823 H1811 0.950 . S
C1823 C1819 1.393 . S
C1823 C1822 1.391 . S
H1824 C1832 0.950 . S
H1825 C1837 0.950 . S
H1826 C1834 0.950 . S
H1827 C1836 0.950 1_655 S
H1828 C1838 0.950 . S
H1829 C1840 0.950 . S
H1830 C1842 0.950 1_455 S
H1831 C1843 0.950 . S
C1832 H1824 0.950 . S
C1832 C1833 1.386 . S
C1832 C1834 1.391 . S
C1833 C1832 1.386 . S
C1833 C1837 1.393 . S
C1834 H1826 0.950 . S
C1834 C1832 1.391 . S
C1834 C1835 1.400 . S
C1835 C1834 1.400 . S
C1835 C1836 1.398 . S
C1835 C1841 1.491 1_455 S
C1836 H1827 0.950 1_455 S
C1836 C1835 1.398 . S
C1836 C1837 1.391 . S
C1837 H1825 0.950 . S
C1837 C1833 1.393 . S
C1837 C1836 1.391 . S
C1838 H1828 0.950 . S
C1838 C1839 1.386 . S
C1838 C1840 1.391 . S
C1839 C1838 1.386 . S
C1839 C1843 1.393 . S
C1840 H1829 0.950 . S
C1840 C1838 1.391 . S
C1840 C1841 1.400 . S
C1841 C1835 1.491 1_655 S
C1841 C1840 1.400 . S
C1841 C1842 1.398 . S
C1842 H1830 0.950 1_655 S
C1842 C1841 1.398 . S
C1842 C1843 1.391 . S
C1843 H1831 0.950 . S
C1843 C1839 1.393 . S
C1843 C1842 1.391 . S
H1844 C1852 0.950 . S
H1845 C1857 0.950 . S
H1846 C1854 0.950 . S
H1847 C1856 0.950 . S
H1848 C1858 0.950 . S
H1849 C1860 0.950 . S
H1850 C1862 0.950 . S
H1851 C1863 0.950 . S
C1852 H1844 0.950 . S
C1852 C1853 1.386 . S
C1852 C1854 1.391 . S
C1853 C1852 1.386 . S
C1853 C1857 1.393 . S
C1854 H1846 0.950 . S
C1854 C1852 1.391 . S
C1854 C1855 1.400 . S
C1855 C1854 1.400 . S
C1855 C1856 1.398 . S
C1855 C1861 1.491 . S
C1856 H1847 0.950 . S
C1856 C1855 1.398 . S
C1856 C1857 1.391 . S
C1857 H1845 0.950 . S
C1857 C1853 1.393 . S
C1857 C1856 1.391 . S
C1858 H1848 0.950 . S
C1858 C1859 1.386 . S
C1858 C1860 1.391 . S
C1859 C1858 1.386 . S
C1859 C1863 1.393 . S
C1860 H1849 0.950 . S
C1860 C1858 1.391 . S
C1860 C1861 1.400 . S
C1861 C1855 1.491 . S
C1861 C1860 1.400 . S
C1861 C1862 1.398 . S
C1862 H1850 0.950 . S
C1862 C1861 1.398 . S
C1862 C1863 1.391 . S
C1863 H1851 0.950 . S
C1863 C1859 1.393 . S
C1863 C1862 1.391 . S
H1864 C1872 0.950 . S
H1865 C1877 0.950 . S
H1866 C1874 0.950 . S
H1867 C1876 0.950 1_545 S
H1868 C1878 0.950 . S
H1869 C1880 0.950 . S
H1870 C1882 0.950 1_565 S
H1871 C1883 0.950 . S
C1872 H1864 0.950 . S
C1872 C1873 1.386 . S
C1872 C1874 1.391 . S
C1873 C1872 1.386 . S
C1873 C1877 1.393 . S
C1874 H1866 0.950 . S
C1874 C1872 1.391 . S
C1874 C1875 1.400 . S
C1875 C1874 1.400 . S
C1875 C1876 1.398 . S
C1875 C1881 1.491 1_565 S
C1876 H1867 0.950 1_565 S
C1876 C1875 1.398 . S
C1876 C1877 1.391 . S
C1877 H1865 0.950 . S
C1877 C1873 1.393 . S
C1877 C1876 1.391 . S
C1878 H1868 0.950 . S
C1878 C1879 1.386 . S
C1878 C1880 1.391 . S
C1879 C1878 1.386 . S
C1879 C1883 1.393 . S
C1880 H1869 0.950 . S
C1880 C1878 1.391 . S
C1880 C1881 1.400 . S
C1881 C1875 1.491 1_545 S
C1881 C1880 1.400 . S
C1881 C1882 1.398 . S
C1882 H1870 0.950 1_545 S
C1882 C1881 1.398 . S
C1882 C1883 1.391 . S
C1883 H1871 0.950 . S
C1883 C1879 1.393 . S
C1883 C1882 1.391 . S
H1884 C1892 0.950 . S
H1885 C1897 0.950 . S
H1886 C1894 0.950 . S
H1887 C1896 0.950 . S
H1888 C1898 0.950 . S
H1889 C1900 0.950 . S
H1890 C1902 0.950 . S
H1891 C1903 0.950 . S
C1892 H1884 0.950 . S
C1892 C1893 1.386 . S
C1892 C1894 1.391 . S
C1893 C1892 1.386 . S
C1893 C1897 1.393 . S
C1894 H1886 0.950 . S
C1894 C1892 1.391 . S
C1894 C1895 1.400 . S
C1895 C1894 1.400 . S
C1895 C1896 1.398 . S
C1895 C1901 1.491 1_545 S
C1896 H1887 0.950 . S
C1896 C1895 1.398 . S
C1896 C1897 1.391 . S
C1897 H1885 0.950 . S
C1897 C1893 1.393 . S
C1897 C1896 1.391 . S
C1898 H1888 0.950 . S
C1898 C1899 1.386 . S
C1898 C1900 1.391 . S
C1899 C1898 1.386 . S
C1899 C1903 1.393 . S
C1900 H1889 0.950 . S
C1900 C1898 1.391 . S
C1900 C1901 1.400 . S
C1901 C1895 1.491 1_565 S
C1901 C1900 1.400 . S
C1901 C1902 1.398 . S
C1902 H1890 0.950 . S
C1902 C1901 1.398 . S
C1902 C1903 1.391 . S
C1903 H1891 0.950 . S
C1903 C1899 1.393 . S
C1903 C1902 1.391 . S
H1904 C1912 0.950 . S
H1905 C1917 0.950 . S
H1906 C1914 0.950 . S
H1907 C1916 0.950 . S
H1908 C1918 0.950 . S
H1909 C1920 0.950 . S
H1910 C1922 0.950 . S
H1911 C1923 0.950 . S
C1912 H1904 0.950 . S
C1912 C1913 1.386 . S
C1912 C1914 1.391 . S
C1913 C1912 1.386 . S
C1913 C1917 1.393 . S
C1914 H1906 0.950 . S
C1914 C1912 1.391 . S
C1914 C1915 1.400 . S
C1915 C1914 1.400 . S
C1915 C1916 1.398 . S
C1915 C1921 1.491 1_455 S
C1916 H1907 0.950 . S
C1916 C1915 1.398 . S
C1916 C1917 1.391 . S
C1917 H1905 0.950 . S
C1917 C1913 1.393 . S
C1917 C1916 1.391 . S
C1918 H1908 0.950 . S
C1918 C1919 1.386 . S
C1918 C1920 1.391 . S
C1919 C1918 1.386 . S
C1919 C1923 1.393 . S
C1920 H1909 0.950 . S
C1920 C1918 1.391 . S
C1920 C1921 1.400 . S
C1921 C1915 1.491 1_655 S
C1921 C1920 1.400 . S
C1921 C1922 1.398 . S
C1922 H1910 0.950 . S
C1922 C1921 1.398 . S
C1922 C1923 1.391 . S
C1923 H1911 0.950 . S
C1923 C1919 1.393 . S
C1923 C1922 1.391 . S
H1924 C1932 0.950 . S
H1925 C1937 0.950 . S
H1926 C1934 0.950 . S
H1927 C1936 0.950 . S
H1928 C1938 0.950 . S
H1929 C1940 0.950 . S
H1930 C1942 0.950 . S
H1931 C1943 0.950 . S
C1932 H1924 0.950 . S
C1932 C1933 1.386 . S
C1932 C1934 1.391 . S
C1933 C1932 1.386 . S
C1933 C1937 1.393 . S
C1934 H1926 0.950 . S
C1934 C1932 1.391 . S
C1934 C1935 1.400 . S
C1935 C1934 1.400 . S
C1935 C1936 1.398 . S
C1935 C1941 1.491 . S
C1936 H1927 0.950 . S
C1936 C1935 1.398 . S
C1936 C1937 1.391 . S
C1937 H1925 0.950 . S
C1937 C1933 1.393 . S
C1937 C1936 1.391 . S
C1938 H1928 0.950 . S
C1938 C1939 1.386 . S
C1938 C1940 1.391 . S
C1939 C1938 1.386 . S
C1939 C1943 1.393 . S
C1940 H1929 0.950 . S
C1940 C1938 1.391 . S
C1940 C1941 1.400 . S
C1941 C1935 1.491 . S
C1941 C1940 1.400 . S
C1941 C1942 1.398 . S
C1942 H1930 0.950 . S
C1942 C1941 1.398 . S
C1942 C1943 1.391 . S
C1943 H1931 0.950 . S
C1943 C1939 1.393 . S
C1943 C1942 1.391 . S
C513 C48 1.273 . S
C519 C6 1.265 . S
C533 C62 1.294 . S
C539 C20 1.296 . S
C553 C76 1.264 . S
C559 C34 1.267 . S
C573 C90 1.296 . S
C579 C132 1.291 . S
C593 C104 1.290 . S
C599 C146 1.280 . S
C613 C160 1.294 . S
C619 C118 1.287 . S
C633 C174 1.270 . S
C639 C216 1.264 . S
C653 C188 1.296 . S
C659 C230 1.295 . S
C673 C202 1.269 . S
C679 C244 1.264 . S
C693 C258 1.294 . S
C699 C300 1.286 . S
C713 C314 1.289 . S
C719 C272 1.296 . S
C733 C286 1.266 . S
C739 C328 1.264 . S
C753 C342 1.276 . S
C759 C384 1.267 . S
C773 C356 1.280 . S
C779 C398 1.270 . S
C793 C412 1.265 . S
C799 C370 1.264 . S
C813 C468 1.288 . S
C819 C426 1.295 . S
C833 C482 1.266 . S
C839 C440 1.274 . S
C853 C496 1.263 . S
C859 C454 1.268 . S
C873 C161 1.524 . S
C879 C9 1.585 . S
C893 C23 1.592 . S
C899 C133 1.515 . S
C913 C37 1.584 . S
C919 C147 1.537 . S
C933 C105 1.536 . S
C939 C51 1.583 . S
C953 C65 1.585 . S
C959 C119 1.542 . S
C973 C91 1.516 . S
C979 C79 1.595 . S
C993 C93 1.587 . S
C999 C77 1.543 . S
C1013 C107 1.583 . S
C1019 C49 1.536 . S
C1033 C63 1.515 . S
C1039 C121 1.595 . S
C1053 C21 1.523 . S
C1059 C135 1.596 . S
C1073 C35 1.525 . S
C1079 C149 1.585 . S
C1093 C163 1.584 . S
C1099 C7 1.539 . S
C1113 C177 1.589 . S
C1119 C329 1.517 . S
C1133 C301 1.529 . S
C1139 C191 1.584 . S
C1153 C315 1.531 . S
C1159 C205 1.595 . S
C1173 C219 1.596 . S
C1179 C273 1.524 . S
C1193 C287 1.532 . S
C1199 C233 1.583 . S
C1213 C247 1.588 . S
C1219 C259 1.542 . S
C1233 C261 1.585 . S
C1239 C245 1.541 . S
C1253 C275 1.585 . S
C1259 C217 1.542 . S
C1273 C231 1.515 . S
C1279 C289 1.594 . S
C1293 C189 1.534 . S
C1299 C303 1.594 1_556 S
C1313 C203 1.521 . S
C1319 C317 1.596 1_556 S
C1333 C331 1.592 1_556 S
C1339 C175 1.538 . S
C1353 C497 1.533 . S
C1359 C345 1.584 . S
C1373 C359 1.585 . S
C1379 C469 1.542 . S
C1393 C373 1.597 . S
C1399 C483 1.521 . S
C1413 C387 1.596 1_554 S
C1419 C441 1.528 . S
C1433 C455 1.515 . S
C1439 C401 1.593 1_554 S
C1453 C415 1.591 1_554 S
C1459 C427 1.540 . S
C1473 C413 1.515 . S
C1479 C429 1.593 . S
C1493 C385 1.514 . S
C1499 C443 1.593 . S
C1513 C399 1.518 . S
C1519 C457 1.588 . S
C1533 C357 1.542 . S
C1539 C471 1.589 . S
C1553 C371 1.519 . S
C1559 C485 1.596 . S
C1573 C343 1.530 . S
C1579 C499 1.595 . S
C1593 C414 1.173 1_554 S
C1599 C8 1.168 . S
C1613 C22 1.179 . S
C1619 C386 1.179 1_554 S
C1633 C400 1.173 1_554 S
C1639 C36 1.168 . S
C1653 C50 1.174 . S
C1659 C190 1.179 . S
C1673 C204 1.163 . S
C1679 C64 1.165 . S
C1693 C78 1.163 . S
C1699 C176 1.164 . S
C1713 C92 1.163 . S
C1719 C330 1.166 1_556 S
C1733 C302 1.163 1_556 S
C1739 C106 1.164 . S
C1753 C120 1.182 . S
C1759 C316 1.179 1_556 S
C1773 C134 1.170 . S
C1779 C442 1.175 . S
C1793 C148 1.174 . S
C1799 C456 1.168 . S
C1813 C428 1.168 . S
C1819 C162 1.174 . S
C1833 C358 1.173 . S
C1839 C218 1.178 . S
C1853 C372 1.177 . S
C1859 C232 1.172 . S
C1873 C344 1.167 . S
C1879 C246 1.173 . S
C1893 C260 1.166 . S
C1899 C498 1.163 . S
C1913 C470 1.181 . S
C1919 C274 1.181 . S
C1933 C288 1.163 . S
C1939 C484 1.163 . S
