# Generated by pormake.
# Topology snl, (6)-cn, num edge types: 1
# Building blocks:
#     Node 0, Type 0, BuildingBlock: PAMTOO_clean_sbu_0, # of connection points: 6
#     Node 1, Type 0, BuildingBlock: PAMTOO_clean_sbu_0, # of connection points: 6
#     Node 2, Type 0, BuildingBlock: PAMTOO_clean_sbu_0, # of connection points: 6
#     Node 3, Type 0, BuildingBlock: PAMTOO_clean_sbu_0, # of connection points: 6
#     Node 4, Type 0, BuildingBlock: PAMTOO_clean_sbu_0, # of connection points: 6
#     Node 5, Type 0, BuildingBlock: PAMTOO_clean_sbu_0, # of connection points: 6
#     Node 6, Type 0, BuildingBlock: PAMTOO_clean_sbu_0, # of connection points: 6
#     Node 7, Type 0, BuildingBlock: PAMTOO_clean_sbu_0, # of connection points: 6
#     Node 8, Type 0, BuildingBlock: PAMTOO_clean_sbu_0, # of connection points: 6
#     Node 9, Type 0, BuildingBlock: PAMTOO_clean_sbu_0, # of connection points: 6
#     Node 10, Type 0, BuildingBlock: PAMTOO_clean_sbu_0, # of connection points: 6
#     Node 11, Type 0, BuildingBlock: PAMTOO_clean_sbu_0, # of connection points: 6
#     Node 12, Type 0, BuildingBlock: PAMTOO_clean_sbu_0, # of connection points: 6
#     Node 13, Type 0, BuildingBlock: PAMTOO_clean_sbu_0, # of connection points: 6
#     Node 14, Type 0, BuildingBlock: PAMTOO_clean_sbu_0, # of connection points: 6
#     Node 15, Type 0, BuildingBlock: PAMTOO_clean_sbu_0, # of connection points: 6
#     Edge 16, Type (0, 0), BuildingBlock: AJUNOK_clean_linker_0, # of connection points: 2
#     Edge 17, Type (0, 0), BuildingBlock: AJUNOK_clean_linker_0, # of connection points: 2
#     Edge 18, Type (0, 0), BuildingBlock: AJUNOK_clean_linker_0, # of connection points: 2
#     Edge 19, Type (0, 0), BuildingBlock: AJUNOK_clean_linker_0, # of connection points: 2
#     Edge 20, Type (0, 0), BuildingBlock: AJUNOK_clean_linker_0, # of connection points: 2
#     Edge 21, Type (0, 0), BuildingBlock: AJUNOK_clean_linker_0, # of connection points: 2
#     Edge 22, Type (0, 0), BuildingBlock: AJUNOK_clean_linker_0, # of connection points: 2
#     Edge 23, Type (0, 0), BuildingBlock: AJUNOK_clean_linker_0, # of connection points: 2
#     Edge 24, Type (0, 0), BuildingBlock: AJUNOK_clean_linker_0, # of connection points: 2
#     Edge 25, Type (0, 0), BuildingBlock: AJUNOK_clean_linker_0, # of connection points: 2
#     Edge 26, Type (0, 0), BuildingBlock: AJUNOK_clean_linker_0, # of connection points: 2
#     Edge 27, Type (0, 0), BuildingBlock: AJUNOK_clean_linker_0, # of connection points: 2
#     Edge 28, Type (0, 0), BuildingBlock: AJUNOK_clean_linker_0, # of connection points: 2
#     Edge 29, Type (0, 0), BuildingBlock: AJUNOK_clean_linker_0, # of connection points: 2
#     Edge 30, Type (0, 0), BuildingBlock: AJUNOK_clean_linker_0, # of connection points: 2
#     Edge 31, Type (0, 0), BuildingBlock: AJUNOK_clean_linker_0, # of connection points: 2
#     Edge 32, Type (0, 0), BuildingBlock: AJUNOK_clean_linker_0, # of connection points: 2
#     Edge 33, Type (0, 0), BuildingBlock: AJUNOK_clean_linker_0, # of connection points: 2
#     Edge 34, Type (0, 0), BuildingBlock: AJUNOK_clean_linker_0, # of connection points: 2
#     Edge 35, Type (0, 0), BuildingBlock: AJUNOK_clean_linker_0, # of connection points: 2
#     Edge 36, Type (0, 0), BuildingBlock: AJUNOK_clean_linker_0, # of connection points: 2
#     Edge 37, Type (0, 0), BuildingBlock: AJUNOK_clean_linker_0, # of connection points: 2
#     Edge 38, Type (0, 0), BuildingBlock: AJUNOK_clean_linker_0, # of connection points: 2
#     Edge 39, Type (0, 0), BuildingBlock: AJUNOK_clean_linker_0, # of connection points: 2
#     Edge 40, Type (0, 0), BuildingBlock: AJUNOK_clean_linker_0, # of connection points: 2
#     Edge 41, Type (0, 0), BuildingBlock: AJUNOK_clean_linker_0, # of connection points: 2
#     Edge 42, Type (0, 0), BuildingBlock: AJUNOK_clean_linker_0, # of connection points: 2
#     Edge 43, Type (0, 0), BuildingBlock: AJUNOK_clean_linker_0, # of connection points: 2
#     Edge 44, Type (0, 0), BuildingBlock: AJUNOK_clean_linker_0, # of connection points: 2
#     Edge 45, Type (0, 0), BuildingBlock: AJUNOK_clean_linker_0, # of connection points: 2
#     Edge 46, Type (0, 0), BuildingBlock: AJUNOK_clean_linker_0, # of connection points: 2
#     Edge 47, Type (0, 0), BuildingBlock: AJUNOK_clean_linker_0, # of connection points: 2
#     Edge 48, Type (0, 0), BuildingBlock: AJUNOK_clean_linker_0, # of connection points: 2
#     Edge 49, Type (0, 0), BuildingBlock: AJUNOK_clean_linker_0, # of connection points: 2
#     Edge 50, Type (0, 0), BuildingBlock: AJUNOK_clean_linker_0, # of connection points: 2
#     Edge 51, Type (0, 0), BuildingBlock: AJUNOK_clean_linker_0, # of connection points: 2
#     Edge 52, Type (0, 0), BuildingBlock: AJUNOK_clean_linker_0, # of connection points: 2
#     Edge 53, Type (0, 0), BuildingBlock: AJUNOK_clean_linker_0, # of connection points: 2
#     Edge 54, Type (0, 0), BuildingBlock: AJUNOK_clean_linker_0, # of connection points: 2
#     Edge 55, Type (0, 0), BuildingBlock: AJUNOK_clean_linker_0, # of connection points: 2
#     Edge 56, Type (0, 0), BuildingBlock: AJUNOK_clean_linker_0, # of connection points: 2
#     Edge 57, Type (0, 0), BuildingBlock: AJUNOK_clean_linker_0, # of connection points: 2
#     Edge 58, Type (0, 0), BuildingBlock: AJUNOK_clean_linker_0, # of connection points: 2
#     Edge 59, Type (0, 0), BuildingBlock: AJUNOK_clean_linker_0, # of connection points: 2
#     Edge 60, Type (0, 0), BuildingBlock: AJUNOK_clean_linker_0, # of connection points: 2
#     Edge 61, Type (0, 0), BuildingBlock: AJUNOK_clean_linker_0, # of connection points: 2
#     Edge 62, Type (0, 0), BuildingBlock: AJUNOK_clean_linker_0, # of connection points: 2
#     Edge 63, Type (0, 0), BuildingBlock: AJUNOK_clean_linker_0, # of connection points: 2
# Relax obj value: 0.163
# Max RMSD: 0.253
# Mean RMSD: 0.229
data_MOF--net-snl--node1-PAMTOO_clean_sbu_0--edge1-AJUNOK_clean_linker_0
_symmetry_space_group_name_H-M    P1
_symmetry_Int_Tables_number       1
_symmetry_cell_setting            triclinic
loop_
_symmetry_equiv_pos_as_xyz
'x, y, z'
_cell_length_a     41.135056
_cell_length_b     41.431815
_cell_length_c     21.537766
_cell_angle_alpha  88.048546
_cell_angle_beta   91.914456
_cell_angle_gamma 90.238345
loop_
_atom_site_label
_atom_site_type_symbol
_atom_site_fract_x
_atom_site_fract_y
_atom_site_fract_z
_atom_type_partial_charge
Dy0 Dy 0.15102 0.6441 0.08351 0.0
Dy1 Dy 0.12922 0.61373 0.22149 0.0
C2 C 0.07591 0.63437 0.11573 0.0
O3 O 0.13269 0.68555 0.13419 0.0
O4 O 0.13942 0.66689 0.23585 0.0
O5 O 0.14373 0.67596 1.00291 0.0
O6 O 0.18641 0.6455 1.0111 0.0
O7 O 0.18294 0.61277 0.22501 0.0
O8 O 0.19321 0.65271 0.15173 0.0
O9 O 0.12104 0.57371 0.15313 0.0
O10 O 0.15473 0.59114 0.07577 0.0
O11 O 0.13584 0.57858 0.29752 0.0
O12 O 0.09714 0.61368 0.29899 0.0
C13 C 0.13413 0.69052 0.19404 0.0
O14 O 0.09735 0.63213 0.07184 0.0
O15 O 0.08444 0.63298 0.17484 0.0
C16 C 0.16398 0.65597 0.90975 0.0
C17 C 0.15476 0.64108 0.78325 0.0
C18 C 0.1289 0.63819 0.82423 0.0
C19 C 0.13347 0.64548 0.88689 0.0
C20 C 0.19002 0.65811 0.86929 0.0
C21 C 0.1855 0.6506 0.80665 0.0
C22 C 0.16899 0.66513 0.97512 0.0
C23 C 0.20202 0.63488 0.20133 0.0
C24 C 0.13622 0.56898 0.10111 0.0
C25 C 0.12079 0.59712 0.39595 0.0
C26 C 0.1331 0.61173 0.52181 0.0
C27 C 0.15839 0.61292 0.47937 0.0
C28 C 0.15226 0.60582 0.41684 0.0
C29 C 0.09577 0.59521 0.43855 0.0
C30 C 0.10184 0.60237 0.50082 0.0
C31 C 0.11306 0.59095 0.32997 0.0
H32 H 0.10512 0.63025 0.80775 0.0
H33 H 0.11308 0.64315 0.91731 0.0
H34 H 0.21381 0.66593 0.88603 0.0
H35 H 0.20587 0.65293 0.77616 0.0
H36 H 0.18272 0.61999 0.49429 0.0
H37 H 0.17198 0.60745 0.38478 0.0
H38 H 0.07136 0.58843 0.42346 0.0
H39 H 0.08203 0.60056 0.53268 0.0
Dy40 Dy 0.63361 0.90502 0.33847 0.0
Dy41 Dy 0.66074 0.87578 0.47775 0.0
C42 C 0.63777 0.82909 0.37054 0.0
O43 O 0.58906 0.89394 0.39098 0.0
O44 O 0.609 0.89032 0.49282 0.0
O45 O 0.60115 0.90177 0.25815 0.0
O46 O 0.6382 0.93903 0.2602 0.0
O47 O 0.66449 0.92919 0.48223 0.0
O48 O 0.628 0.94599 0.4045 0.0
O49 O 0.69989 0.86693 0.40829 0.0
O50 O 0.68724 0.90919 0.34095 0.0
O51 O 0.69713 0.87612 0.55274 0.0
O52 O 0.65688 0.84243 0.55683 0.0
C53 C 0.58482 0.89272 0.45122 0.0
O54 O 0.64378 0.8519 0.32844 0.0
O55 O 0.6363 0.83533 0.42961 0.0
C56 C 0.62491 0.91668 0.16206 0.0
C57 C 0.63847 0.90322 0.03728 0.0
C58 C 0.63339 0.87798 0.08132 0.0
C59 C 0.62671 0.88461 0.14298 0.0
C60 C 0.63064 0.94188 0.11849 0.0
C61 C 0.63748 0.93525 0.05684 0.0
C62 C 0.61625 0.92425 0.22634 0.0
C63 C 0.64464 0.95098 0.45694 0.0
C64 C 0.70683 0.88593 0.36006 0.0
C65 C 0.67633 0.86269 0.65267 0.0
C66 C 0.66407 0.87605 0.77806 0.0
C67 C 0.66984 0.90131 0.7344 0.0
C68 C 0.67583 0.89472 0.67232 0.0
C69 C 0.67116 0.83748 0.69644 0.0
C70 C 0.66517 0.84404 0.7584 0.0
C71 C 0.68159 0.85494 0.58699 0.0
H72 H 0.63477 0.85304 0.06817 0.0
H73 H 0.62286 0.86459 0.17561 0.0
H74 H 0.62943 0.96679 0.13198 0.0
H75 H 0.64128 0.95521 1.02408 0.0
H76 H 0.66917 0.92622 0.74803 0.0
H77 H 0.67987 0.91465 0.6397 0.0
H78 H 0.67162 0.81259 0.68259 0.0
H79 H 0.66156 0.824 0.79106 0.0
Dy80 Dy 0.35909 0.37793 0.59051 0.0
Dy81 Dy 0.39097 0.40197 0.72577 0.0
C82 C 0.43679 0.38919 0.61049 0.0
O83 O 0.38337 0.33545 0.6359 0.0
O84 O 0.37803 0.34892 0.73727 0.0
O85 O 0.35659 0.34534 0.51419 0.0
O86 O 0.32278 0.38496 0.51583 0.0
O87 O 0.33842 0.41299 0.72053 0.0
O88 O 0.32132 0.37022 0.66486 0.0
O89 O 0.40004 0.44329 0.65681 0.0
O90 O 0.35913 0.43155 0.58584 0.0
O91 O 0.39141 0.43612 0.79963 0.0
O92 O 0.42128 0.3933 0.80884 0.0
C93 C 0.38314 0.32737 0.69508 0.0
O94 O 0.41165 0.38877 0.57078 0.0
O95 O 0.43397 0.39037 0.671 0.0
C96 C 0.34083 0.37013 0.41727 0.0
C97 C 0.35363 0.38402 0.29042 0.0
C98 C 0.3767 0.3914 0.33772 0.0
C99 C 0.37031 0.38466 0.40044 0.0
C100 C 0.31772 0.3628 0.3704 0.0
C101 C 0.32404 0.36962 0.30767 0.0
C102 C 0.33423 0.36191 0.48316 0.0
C103 C 0.31621 0.39144 0.70781 0.0
C104 C 0.3819 0.45098 0.6067 0.0
C105 C 0.40114 0.41377 0.90157 0.0
C106 C 0.38413 0.40548 1.02772 0.0
C107 C 0.36196 0.39745 0.97929 0.0
C108 C 0.37035 0.40163 0.91679 0.0
C109 C 0.42337 0.42142 0.94967 0.0
C110 C 0.41502 0.41729 1.01199 0.0
C111 C 0.41069 0.4186 0.83623 0.0
H112 H 0.40001 0.40184 0.32623 0.0
H113 H 0.38857 0.39047 0.43579 0.0
H114 H 0.29479 0.35162 0.38229 0.0
H115 H 0.30568 0.36374 0.27259 0.0
H116 H 0.338 0.38827 0.98977 0.0
H117 H 0.35282 0.39546 0.88039 0.0
H118 H 0.44733 0.43058 0.93902 0.0
H119 H 0.43296 0.42298 0.04795 0.0
Dy120 Dy 0.89671 0.11643 0.84157 0.0
Dy121 Dy 0.86858 0.14302 0.97312 0.0
C122 C 0.88325 0.19169 0.86052 0.0
O123 O 0.93972 0.13496 0.89435 0.0
O124 O 0.92101 0.12901 0.99355 0.0
O125 O 0.92786 0.12141 0.76304 0.0
O126 O 0.89515 0.08055 0.77037 0.0
O127 O 0.86128 0.09003 0.97374 0.0
O128 O 0.90396 0.07607 0.91496 0.0
O129 O 0.828 0.15003 0.89973 0.0
O130 O 0.84331 0.10863 0.83968 0.0
O131 O 0.83274 0.14076 0.04451 0.0
O132 O 0.87301 0.17424 0.05154 0.0
C133 C 0.94489 0.13293 0.95468 0.0
O134 O 0.88083 0.16804 0.8212 0.0
O135 O 0.88618 0.18616 0.92064 0.0
C136 C 0.90574 0.10124 0.66884 0.0
C137 C 0.89099 0.11061 0.54 0.0
C138 C 0.88454 0.13496 0.5819 0.0
C139 C 0.89184 0.13034 0.64565 0.0
C140 C 0.91132 0.07657 0.62748 0.0
C141 C 0.90395 0.08114 0.56379 0.0
C142 C 0.91537 0.0965 0.73537 0.0
C143 C 0.88283 0.06891 0.95821 0.0
C144 C 0.82155 0.12955 0.85529 0.0
C145 C 0.8534 0.15218 0.14571 0.0
C146 C 0.86507 0.13644 0.27355 0.0
C147 C 0.87137 0.11386 0.22798 0.0
C148 C 0.86572 0.12171 0.16465 0.0
C149 C 0.84669 0.17455 0.19096 0.0
C150 C 0.85239 0.16677 0.25419 0.0
C151 C 0.84818 0.1614 0.07923 0.0
H152 H 0.87452 0.15791 0.56516 0.0
H153 H 0.88706 0.14967 0.6767 0.0
H154 H 0.92171 0.05381 0.64439 0.0
H155 H 0.90843 0.06158 0.53312 0.0
H156 H 0.88052 0.09007 0.24129 0.0
H157 H 0.87107 0.10405 0.13048 0.0
H158 H 0.83728 0.19823 0.17734 0.0
H159 H 0.84742 0.18475 0.28794 0.0
Dy160 Dy 0.12983 0.40616 0.84252 0.0
Dy161 Dy 0.15711 0.37676 0.98113 0.0
C162 C 0.14304 0.33015 0.86755 0.0
O163 O 0.08735 0.38377 0.88829 0.0
O164 O 0.10367 0.38707 0.99102 0.0
O165 O 0.09771 0.40368 0.76101 0.0
O166 O 0.13382 0.44151 0.76667 0.0
O167 O 0.16015 0.43027 0.983 0.0
O168 O 0.11969 0.4447 0.91172 0.0
O169 O 0.19764 0.37099 0.91295 0.0
O170 O 0.18304 0.41457 0.85089 0.0
O171 O 0.19272 0.37867 0.05774 0.0
O172 O 0.15276 0.34464 0.06155 0.0
C173 C 0.08087 0.38316 0.9475 0.0
O174 O 0.14463 0.35474 0.82724 0.0
O175 O 0.14239 0.3338 0.9278 0.0
C176 C 0.12056 0.42167 0.66651 0.0
C177 C 0.13523 0.41046 0.54122 0.0
C178 C 0.15797 0.40299 0.58995 0.0
C179 C 0.15073 0.40855 0.65199 0.0
C180 C 0.09777 0.42885 0.61819 0.0
C181 C 0.10494 0.42324 0.55634 0.0
C182 C 0.11202 0.42741 0.73149 0.0
C183 C 0.13777 0.45062 0.96198 0.0
C184 C 0.20422 0.39235 0.86823 0.0
C185 C 0.17117 0.36651 0.15705 0.0
C186 C 0.16047 0.38228 0.28196 0.0
C187 C 0.13564 0.38629 0.23578 0.0
C188 C 0.14092 0.37852 0.17402 0.0
C189 C 0.19593 0.36235 0.20305 0.0
C190 C 0.19063 0.37002 0.26488 0.0
C191 C 0.17705 0.35769 0.09216 0.0
H192 H 0.18149 0.39308 0.58004 0.0
H193 H 0.16863 0.40257 0.68857 0.0
H194 H 0.07422 0.43864 0.62835 0.0
H195 H 0.0865 0.42846 0.52039 0.0
H196 H 0.11198 0.3952 0.24754 0.0
H197 H 0.12135 0.38191 0.13954 0.0
H198 H 0.21942 0.35304 0.19119 0.0
H199 H 0.21023 0.36665 0.2993 0.0
Dy200 Dy 0.89729 0.89959 0.2243 0.0
Dy201 Dy 0.8649 0.87723 0.08778 0.0
C202 C 0.88216 0.82477 0.19608 0.0
O203 O 0.93902 0.88416 0.16986 0.0
O204 O 0.917 0.89156 0.07059 0.0
O205 O 0.9288 0.8919 0.30577 0.0
O206 O 0.89989 0.93538 0.29535 0.0
O207 O 0.85701 0.92967 0.09624 0.0
O208 O 0.9026 0.9414 0.15399 0.0
O209 O 0.82562 0.86821 0.15797 0.0
O210 O 0.84382 0.90379 0.23121 0.0
O211 O 0.82948 0.88452 1.01184 0.0
O212 O 0.86534 0.84676 1.00824 0.0
C213 C 0.94219 0.88786 0.10964 0.0
O214 O 0.88339 0.84702 0.23845 0.0
O215 O 0.88161 0.83199 0.13634 0.0
C216 C 0.90916 0.91382 0.39762 0.0
C217 C 0.8916 0.90648 0.52351 0.0
C218 C 0.87914 0.8854 0.47852 0.0
C219 C 0.88775 0.8891 0.41618 0.0
C220 C 0.92153 0.93495 0.44221 0.0
C221 C 0.91291 0.93131 0.5045 0.0
C222 C 0.91894 0.9178 0.3323 0.0
C223 C 0.88009 0.94991 0.1116 0.0
C224 C 0.82151 0.88419 0.20926 0.0
C225 C 0.84792 0.87131 0.91239 0.0
C226 C 0.86076 0.88529 0.78579 0.0
C227 C 0.87391 0.90475 0.8329 0.0
C228 C 0.86756 0.89781 0.89564 0.0
C229 C 0.83461 0.85204 0.86561 0.0
C230 C 0.84098 0.85891 0.80305 0.0
C231 C 0.84206 0.86249 0.97818 0.0
H232 H 0.8626 0.86611 0.49155 0.0
H233 H 0.87781 0.87256 0.38251 0.0
H234 H 0.93814 0.95414 0.42893 0.0
H235 H 0.92344 0.94757 0.53803 0.0
H236 H 0.88974 0.92487 0.82141 0.0
H237 H 0.87832 0.91283 0.9311 0.0
H238 H 0.8195 0.83141 0.87754 0.0
H239 H 0.83037 0.84353 0.76804 0.0
Dy240 Dy 0.39578 0.61952 0.34017 0.0
Dy241 Dy 0.36861 0.64534 0.47403 0.0
C242 C 0.38875 0.69456 0.36518 0.0
O243 O 0.43905 0.63692 0.39357 0.0
O244 O 0.42151 0.63311 0.49419 0.0
O245 O 0.42642 0.6259 0.26108 0.0
O246 O 0.3946 0.58439 0.26792 0.0
O247 O 0.36727 0.59192 0.48351 0.0
O248 O 0.40395 0.57812 0.41034 0.0
O249 O 0.32849 0.65349 0.39998 0.0
O250 O 0.34238 0.61337 0.33591 0.0
O251 O 0.33202 0.64335 0.54416 0.0
O252 O 0.37183 0.67739 0.55106 0.0
C253 C 0.44485 0.63623 0.45388 0.0
O254 O 0.38301 0.67228 0.32395 0.0
O255 O 0.39055 0.68749 0.42491 0.0
C256 C 0.40462 0.60588 0.16715 0.0
C257 C 0.38777 0.6164 0.03968 0.0
C258 C 0.37172 0.63319 0.08541 0.0
C259 C 0.38007 0.62797 0.14862 0.0
C260 C 0.42045 0.58892 0.12183 0.0
C261 C 0.41218 0.59416 0.05873 0.0
C262 C 0.41456 0.60082 0.23318 0.0
C263 C 0.38738 0.57135 0.46065 0.0
C264 C 0.32167 0.63498 0.35254 0.0
C265 C 0.35141 0.65618 0.64509 0.0
C266 C 0.361 0.64169 0.77374 0.0
C267 C 0.37988 0.62659 0.72979 0.0
C268 C 0.37514 0.6338 0.66609 0.0
C269 C 0.33247 0.67124 0.68856 0.0
C270 C 0.33727 0.66417 0.75228 0.0
C271 C 0.34678 0.66469 0.57831 0.0
H272 H 0.35322 0.65089 0.07225 0.0
H273 H 0.36769 0.64144 0.18297 0.0
H274 H 0.43945 0.57177 0.13523 0.0
H275 H 0.42488 0.58075 1.02472 0.0
H276 H 0.39834 0.60918 0.74471 0.0
H277 H 0.39016 0.62217 0.6332 0.0
H278 H 0.31422 0.68881 0.67327 0.0
H279 H 0.32286 0.67684 0.78479 0.0
Dy280 Dy 0.65264 0.14485 0.58525 0.0
Dy281 Dy 0.63064 0.11149 0.72112 0.0
C282 C 0.57751 0.12508 0.609 0.0
O283 O 0.62944 0.18381 0.63573 0.0
O284 O 0.64061 0.16467 0.73529 0.0
O285 O 0.6472 0.1789 0.50733 0.0
O286 O 0.68858 0.14683 0.51374 0.0
O287 O 0.68324 0.10415 0.71024 0.0
O288 O 0.69346 0.15131 0.65808 0.0
O289 O 0.62466 0.07078 0.65385 0.0
O290 O 0.65444 0.09193 0.57279 0.0
O291 O 0.64123 0.07941 0.80071 0.0
O292 O 0.59893 0.1102 0.79943 0.0
C293 C 0.63252 0.18838 0.69547 0.0
O294 O 0.59995 0.13168 0.56803 0.0
O295 O 0.58399 0.11999 0.66862 0.0
C296 C 0.66651 0.15965 0.41286 0.0
C297 C 0.65615 0.14529 0.28585 0.0
C298 C 0.63287 0.13669 0.33003 0.0
C299 C 0.63799 0.14379 0.39282 0.0
C300 C 0.69 0.16783 0.36918 0.0
C301 C 0.68493 0.16067 0.30638 0.0
C302 C 0.67207 0.16773 0.47888 0.0
C303 C 0.70287 0.12814 0.69806 0.0
C304 C 0.63815 0.06824 0.59927 0.0
C305 C 0.62413 0.09815 0.89781 0.0
C306 C 0.635 0.1145 1.02363 0.0
C307 C 0.65797 0.12275 0.97862 0.0
C308 C 0.65251 0.11481 0.9162 0.0
C309 C 0.60148 0.08952 0.94276 0.0
C310 C 0.60684 0.09753 1.00492 0.0
C311 C 0.61718 0.08997 0.83228 0.0
H312 H 0.61077 0.12417 0.31615 0.0
H313 H 0.61963 0.13691 0.42572 0.0
H314 H 0.71225 0.17995 0.38361 0.0
H315 H 0.70334 0.16763 0.27365 0.0
H316 H 0.67988 0.13583 0.99154 0.0
H317 H 0.67032 0.12184 0.88229 0.0
H318 H 0.57948 0.07658 0.9297 0.0
H319 H 0.589 0.09021 0.03853 0.0
Dy320 Dy 0.89016 0.40449 0.84124 0.0
Dy321 Dy 0.86671 0.37417 0.97773 0.0
C322 C 0.81662 0.38774 0.86235 0.0
O323 O 0.90057 0.443 0.91174 0.0
O324 O 0.86172 0.42735 0.98034 0.0
O325 O 0.88402 0.43998 0.76557 0.0
O326 O 0.92192 0.40423 0.76321 0.0
O327 O 0.92026 0.3858 0.99009 0.0
O328 O 0.93361 0.38191 0.88804 0.0
O329 O 0.88061 0.33164 0.92468 0.0
O330 O 0.87622 0.35262 0.82398 0.0
O331 O 0.87409 0.34338 0.0599 0.0
O332 O 0.83107 0.37326 0.04962 0.0
C333 C 0.88291 0.44858 0.96035 0.0
O334 O 0.8366 0.41051 0.8442 0.0
O335 O 0.82504 0.367 0.90775 0.0
C336 C 0.89772 0.4213 0.66696 0.0
C337 C 0.88378 0.40769 0.54089 0.0
C338 C 0.86414 0.39497 0.58825 0.0
C339 C 0.87112 0.40161 0.65073 0.0
C340 C 0.91695 0.43453 0.61989 0.0
C341 C 0.91004 0.42787 0.55749 0.0
C342 C 0.90642 0.42737 0.73261 0.0
C343 C 0.94189 0.38187 0.94728 0.0
C344 C 0.87845 0.32796 0.86438 0.0
C345 C 0.85261 0.36319 0.15183 0.0
C346 C 0.86142 0.3783 0.27854 0.0
C347 C 0.88217 0.39152 0.2335 0.0
C348 C 0.87782 0.38401 0.17071 0.0
C349 C 0.83143 0.35062 0.19629 0.0
C350 C 0.8357 0.35815 0.25894 0.0
C351 C 0.84831 0.35386 0.08645 0.0
H352 H 0.84334 0.3799 0.57701 0.0
H353 H 0.85592 0.39119 0.6864 0.0
H354 H 0.93763 0.44973 0.63148 0.0
H355 H 0.92569 0.43795 0.52228 0.0
H356 H 0.90216 0.40715 0.24702 0.0
H357 H 0.89435 0.39415 0.13704 0.0
H358 H 0.81165 0.33475 0.1826 0.0
H359 H 0.81878 0.34824 0.29207 0.0
Dy360 Dy 0.36372 0.14237 0.58549 0.0
Dy361 Dy 0.39167 0.11384 0.72471 0.0
C362 C 0.37866 0.06786 0.60798 0.0
O363 O 0.32477 0.15171 0.65498 0.0
O364 O 0.33796 0.10986 0.72308 0.0
O365 O 0.32755 0.14081 0.51008 0.0
O366 O 0.36749 0.17467 0.50497 0.0
O367 O 0.38079 0.16675 0.73501 0.0
O368 O 0.38687 0.18363 0.63339 0.0
O369 O 0.43583 0.1268 0.67218 0.0
O370 O 0.41543 0.12749 0.57073 0.0
O371 O 0.42323 0.11795 0.80627 0.0
O372 O 0.38857 0.07866 0.80127 0.0
C373 C 0.31805 0.13282 0.70358 0.0
O374 O 0.35718 0.08916 0.58709 0.0
O375 O 0.39755 0.07348 0.65732 0.0
C376 C 0.34786 0.15362 0.41017 0.0
C377 C 0.35943 0.14014 0.28458 0.0
C378 C 0.37244 0.12019 0.33348 0.0
C379 C 0.36685 0.12696 0.3957 0.0
C380 C 0.33434 0.17316 0.36158 0.0
C381 C 0.34 0.16648 0.29949 0.0
C382 C 0.3427 0.16202 0.47537 0.0
C383 C 0.38588 0.1897 0.69264 0.0
C384 C 0.43988 0.12707 0.6119 0.0
C385 C 0.40017 0.10002 0.90059 0.0
C386 C 0.38526 0.11303 1.02495 0.0
C387 C 0.37306 0.13283 0.97506 0.0
C388 C 0.38049 0.12644 0.91355 0.0
C389 C 0.41172 0.07979 0.94997 0.0
C390 C 0.40429 0.08615 1.01146 0.0
C391 C 0.40964 0.09389 0.83632 0.0
H392 H 0.38753 0.09974 0.32362 0.0
H393 H 0.37764 0.11163 0.43251 0.0
H394 H 0.31955 0.19379 0.37166 0.0
H395 H 0.32904 0.18193 0.26306 0.0
H396 H 0.35773 0.1533 0.98357 0.0
H397 H 0.37115 0.1423 0.87614 0.0
H398 H 0.42691 0.05926 0.94105 0.0
H399 H 0.41409 0.07043 0.04866 0.0
Dy400 Dy 0.62679 0.61694 0.33843 0.0
Dy401 Dy 0.65938 0.63894 0.47367 0.0
C402 C 0.70212 0.62791 0.35514 0.0
O403 O 0.6172 0.57642 0.4092 0.0
O404 O 0.66336 0.58587 0.46689 0.0
O405 O 0.62384 0.58157 0.26666 0.0
O406 O 0.59643 0.62586 0.25559 0.0
O407 O 0.60651 0.62795 0.49168 0.0
O408 O 0.5859 0.63557 0.3914 0.0
O409 O 0.6392 0.68334 0.42729 0.0
O410 O 0.64154 0.66943 0.32519 0.0
O411 O 0.66174 0.66993 0.5525 0.0
O412 O 0.69474 0.62976 0.54923 0.0
C413 C 0.63886 0.56703 0.45258 0.0
O414 O 0.67967 0.60698 0.33981 0.0
O415 O 0.69753 0.64774 0.40079 0.0
C416 C 0.61527 0.60316 0.16399 0.0
C417 C 0.63267 0.60995 0.03783 0.0
C418 C 0.65332 0.62151 0.08574 0.0
C419 C 0.64475 0.61807 0.14824 0.0
C420 C 0.5946 0.59175 0.11644 0.0
C421 C 0.60314 0.59514 0.05408 0.0
C422 C 0.60545 0.59962 0.22935 0.0
C423 C 0.58204 0.63372 0.4517 0.0
C424 C 0.63878 0.69126 0.36787 0.0
C425 C 0.67706 0.644 0.64851 0.0
C426 C 0.66378 0.6302 0.77515 0.0
C427 C 0.64222 0.62014 0.72729 0.0
C428 C 0.64883 0.62691 0.66463 0.0
C429 C 0.6987 0.65387 0.69595 0.0
C430 C 0.69213 0.6471 0.75854 0.0
C431 C 0.68375 0.65262 0.58286 0.0
H432 H 0.67623 0.63302 0.07489 0.0
H433 H 0.66107 0.62711 0.18423 0.0
H434 H 0.57165 0.58037 0.12751 0.0
H435 H 0.5863 0.58665 1.01846 0.0
H436 H 0.61985 0.60766 0.73829 0.0
H437 H 0.63169 0.6192 0.62878 0.0
H438 H 0.72061 0.6671 0.68459 0.0
H439 H 0.70932 0.65507 0.79407 0.0
Dy440 Dy 0.15532 0.87709 0.09185 0.0
Dy441 Dy 0.12778 0.90326 0.22481 0.0
C442 C 0.14444 0.95101 0.10983 0.0
O443 O 0.19483 0.86582 0.16505 0.0
O444 O 0.18157 0.90439 0.23392 0.0
O445 O 0.19096 0.87984 1.02011 0.0
O446 O 0.15081 0.84626 1.01292 0.0
O447 O 0.13713 0.84984 0.24231 0.0
O448 O 0.13425 0.83449 0.14054 0.0
O449 O 0.08395 0.88896 0.16974 0.0
O450 O 0.10345 0.89299 0.07064 0.0
O451 O 0.09606 0.89961 0.30258 0.0
O452 O 0.13022 0.93934 0.2954 0.0
C453 C 0.20173 0.88282 0.21461 0.0
O454 O 0.16576 0.92946 0.0956 0.0
O455 O 0.12277 0.94419 0.15211 0.0
C456 C 0.17019 0.86865 0.91905 0.0
C457 C 0.15813 0.88455 0.79157 0.0
C458 C 0.14991 0.90622 0.83752 0.0
C459 C 0.15579 0.89829 0.90073 0.0
C460 C 0.17879 0.84721 0.87343 0.0
C461 C 0.1729 0.85508 0.81034 0.0
C462 C 0.17557 0.85924 0.98528 0.0
C463 C 0.13362 0.82757 0.20031 0.0
C464 C 0.07922 0.89115 0.10927 0.0
C465 C 0.11811 0.91966 0.39662 0.0
C466 C 0.13212 0.91024 0.5255 0.0
C467 C 0.14113 0.88696 0.48319 0.0
C468 C 0.1342 0.89162 0.41935 0.0
C469 C 0.10985 0.94328 0.43839 0.0
C470 C 0.11687 0.9387 0.50216 0.0
C471 C 0.10912 0.92434 0.32997 0.0
H472 H 0.13908 0.92936 0.8246 0.0
H473 H 0.14897 0.9152 0.93528 0.0
H474 H 0.18981 0.82417 0.88665 0.0
H475 H 0.17935 0.83781 0.77621 0.0
H476 H 0.15295 0.86482 0.49963 0.0
H477 H 0.14102 0.87316 0.38784 0.0
H478 H 0.09771 0.96522 0.42173 0.0
H479 H 0.11038 0.95748 0.53321 0.0
Dy480 Dy 0.8605 0.64019 0.08085 0.0
Dy481 Dy 0.88655 0.61097 0.22018 0.0
C482 C 0.88129 0.56618 0.10062 0.0
O483 O 0.82081 0.64726 0.15012 0.0
O484 O 0.83349 0.60233 0.20885 0.0
O485 O 0.82329 0.63929 1.00753 0.0
O486 O 0.86444 0.67179 0.99929 0.0
O487 O 0.87378 0.66338 0.23323 0.0
O488 O 0.87721 0.68305 0.13211 0.0
O489 O 0.93043 0.62955 0.17382 0.0
O490 O 0.91407 0.63124 0.07016 0.0
O491 O 0.91765 0.61311 0.30272 0.0
O492 O 0.88086 0.57585 0.29628 0.0
C493 C 0.81332 0.62568 0.19364 0.0
O494 O 0.86012 0.58669 0.0754 0.0
O495 O 0.89743 0.5719 0.15314 0.0
C496 C 0.84314 0.65012 0.90607 0.0
C497 C 0.85296 0.63382 0.78132 0.0
C498 C 0.84775 0.60959 0.82738 0.0
C499 C 0.84303 0.61763 0.88917 0.0
C500 C 0.84782 0.67432 0.86002 0.0
C501 C 0.85264 0.66629 0.79836 0.0
C502 C 0.83899 0.65938 0.97119 0.0
C503 C 0.87623 0.68753 0.19201 0.0
C504 C 0.93682 0.63251 0.11456 0.0
C505 C 0.89288 0.59601 0.3966 0.0
C506 C 0.878 0.60645 0.52201 0.0
C507 C 0.88221 0.63268 0.4797 0.0
C508 C 0.88952 0.62754 0.41771 0.0
C509 C 0.88797 0.5698 0.43831 0.0
C510 C 0.88046 0.57493 0.50021 0.0
C511 C 0.90232 0.58996 0.33216 0.0
H512 H 0.84718 0.58439 0.81559 0.0
H513 H 0.83941 0.59843 0.92367 0.0
H514 H 0.84802 0.69953 0.87189 0.0
H515 H 0.85667 0.68552 0.76411 0.0
H516 H 0.8805 0.65725 0.49486 0.0
H517 H 0.89294 0.64827 0.38656 0.0
H518 H 0.89017 0.54527 0.42308 0.0
H519 H 0.87651 0.55416 0.53097 0.0
Dy520 Dy 0.15984 0.14034 0.97525 0.0
Dy521 Dy 0.12598 0.11815 0.83924 0.0
C522 C 0.14503 0.06829 0.95104 0.0
O523 O 0.19969 0.14889 0.90653 0.0
O524 O 0.17935 0.11805 0.8266 0.0
O525 O 0.19373 0.13108 0.05293 0.0
O526 O 0.16008 0.17095 0.05475 0.0
O527 O 0.13667 0.17119 0.82367 0.0
O528 O 0.14893 0.18662 0.92431 0.0
O529 O 0.08506 0.13641 0.89234 0.0
O530 O 0.10702 0.12812 0.99131 0.0
O531 O 0.09273 0.12347 0.75971 0.0
O532 O 0.12444 0.08191 0.76885 0.0
C533 C 0.20248 0.13561 0.85199 0.0
O534 O 0.1687 0.08837 0.96324 0.0
O535 O 0.12137 0.07708 0.91139 0.0
C536 C 0.17486 0.14569 0.15173 0.0
C537 C 0.16074 0.13234 0.27806 0.0
C538 C 0.15549 0.10875 0.23314 0.0
C539 C 0.16243 0.11537 0.17053 0.0
C540 C 0.1801 0.16917 0.19642 0.0
C541 C 0.17307 0.16263 0.25878 0.0
C542 C 0.18191 0.1538 0.086 0.0
C543 C 0.14293 0.19334 0.86504 0.0
C544 C 0.08199 0.13357 0.9526 0.0
C545 C 0.11303 0.10302 0.66672 0.0
C546 C 0.12967 0.11104 0.54029 0.0
C547 C 0.13407 0.13642 0.58162 0.0
C548 C 0.126 0.13242 0.64419 0.0
C549 C 0.10858 0.07766 0.62565 0.0
C550 C 0.11675 0.08161 0.56312 0.0
C551 C 0.10408 0.09838 0.73258 0.0
H552 H 0.14545 0.08538 0.24618 0.0
H553 H 0.15784 0.09693 0.13682 0.0
H554 H 0.18958 0.19275 0.183 0.0
H555 H 0.17751 0.18128 0.29212 0.0
H556 H 0.14407 0.15935 0.56566 0.0
H557 H 0.12989 0.15234 0.67493 0.0
H558 H 0.09856 0.05479 0.64189 0.0
H559 H 0.11242 0.06177 0.53241 0.0
Dy560 Dy 0.65006 0.37443 0.59075 0.0
Dy561 Dy 0.62272 0.40067 0.72298 0.0
C562 C 0.6345 0.44833 0.60567 0.0
O563 O 0.68964 0.36584 0.66552 0.0
O564 O 0.67595 0.40882 0.7221 0.0
O565 O 0.68654 0.37685 0.52051 0.0
O566 O 0.64649 0.34323 0.51229 0.0
O567 O 0.63556 0.3479 0.74027 0.0
O568 O 0.62834 0.33213 0.63969 0.0
O569 O 0.57855 0.38618 0.66886 0.0
O570 O 0.59777 0.3886 0.56929 0.0
O571 O 0.59268 0.39533 0.80307 0.0
O572 O 0.62509 0.43633 0.7944 0.0
C573 C 0.69693 0.38669 0.70885 0.0
O574 O 0.65633 0.4277 0.58918 0.0
O575 O 0.6144 0.4411 0.65057 0.0
C576 C 0.66701 0.36521 0.4189 0.0
C577 C 0.65718 0.3807 0.2906 0.0
C578 C 0.64394 0.4002 0.33571 0.0
C579 C 0.64882 0.39253 0.3993 0.0
C580 C 0.68032 0.34581 0.37417 0.0
C581 C 0.67543 0.35343 0.3107 0.0
C582 C 0.67158 0.35605 0.48546 0.0
C583 C 0.63026 0.3253 0.69947 0.0
C584 C 0.57371 0.38714 0.60834 0.0
C585 C 0.61524 0.41591 0.8962 0.0
C586 C 0.63175 0.40645 1.02421 0.0
C587 C 0.64343 0.38537 0.98015 0.0
C588 C 0.63535 0.39011 0.91672 0.0
C589 C 0.60383 0.43715 0.93981 0.0
C590 C 0.61193 0.43247 1.00317 0.0
C591 C 0.60512 0.42046 0.83003 0.0
H592 H 0.62924 0.42101 0.32184 0.0
H593 H 0.63811 0.40768 0.43314 0.0
H594 H 0.69436 0.32459 0.38835 0.0
H595 H 0.68604 0.33799 0.27724 0.0
H596 H 0.65883 0.36519 0.99481 0.0
H597 H 0.6445 0.37347 0.88378 0.0
H598 H 0.5882 0.45714 0.92495 0.0
H599 H 0.60199 0.44877 0.03586 0.0
Dy600 Dy 0.39406 0.90807 0.34139 0.0
Dy601 Dy 0.37298 0.87506 0.47938 0.0
C602 C 0.32216 0.88502 0.36197 0.0
O603 O 0.39767 0.94919 0.40795 0.0
O604 O 0.36895 0.9279 0.49041 0.0
O605 O 0.38576 0.94182 0.26313 0.0
O606 O 0.42572 0.90802 0.26362 0.0
O607 O 0.42498 0.8904 0.49557 0.0
O608 O 0.4406 0.8985 0.39388 0.0
O609 O 0.3964 0.8364 0.42799 0.0
O610 O 0.38498 0.85488 0.328 0.0
O611 O 0.3811 0.84214 0.55859 0.0
O612 O 0.33728 0.87089 0.55065 0.0
C613 C 0.3842 0.9518 0.46242 0.0
O614 O 0.34033 0.90872 0.34139 0.0
O615 O 0.33165 0.86609 0.40957 0.0
C616 C 0.40048 0.92159 0.16609 0.0
C617 C 0.38881 0.90613 0.04025 0.0
C618 C 0.38551 0.88248 0.08814 0.0
C619 C 0.39135 0.89012 0.15041 0.0
C620 C 0.40295 0.94544 0.11865 0.0
C621 C 0.39709 0.93783 0.05634 0.0
C622 C 0.40878 0.92954 0.23114 0.0
C623 C 0.44728 0.89546 0.45382 0.0
C624 C 0.39287 0.83143 0.36839 0.0
C625 C 0.35963 0.85984 0.65194 0.0
C626 C 0.36928 0.87482 0.77848 0.0
C627 C 0.37264 0.89883 0.73129 0.0
C628 C 0.36797 0.89139 0.66857 0.0
C629 C 0.35588 0.83596 0.69885 0.0
C630 C 0.36056 0.84336 0.76149 0.0
C631 C 0.35514 0.85137 0.58612 0.0
H632 H 0.37842 0.85804 0.07747 0.0
H633 H 0.38905 0.87134 0.18626 0.0
H634 H 0.40995 0.96987 0.12971 0.0
H635 H 0.39983 0.95657 1.02058 0.0
H636 H 0.37935 0.92326 0.74287 0.0
H637 H 0.37096 0.9102 0.63306 0.0
H638 H 0.34932 0.81152 0.68703 0.0
H639 H 0.35712 0.82448 0.79671 0.0
C640 C 0.17016 0.61337 0.68637 0.0
C641 C 0.14951 0.63456 0.7161 0.0
C642 C 0.16502 0.60639 0.62335 0.0
C643 C 0.13907 0.62039 0.58778 0.0
H644 H 0.19007 0.60164 0.71231 0.0
H645 H 0.18108 0.58944 0.60266 0.0
S646 S 0.08052 0.68041 0.64177 0.0
N647 N 0.10377 0.6714 0.70387 0.0
N648 N 0.09419 0.65843 0.58573 0.0
C649 C 0.11889 0.64234 0.61655 0.0
C650 C 0.12408 0.64939 0.68058 0.0
C651 C 0.6704 0.91115 0.93994 0.0
C652 C 0.64445 0.8962 0.97101 0.0
C653 C 0.67649 0.90469 0.87766 0.0
C654 C 0.65687 0.88302 0.84387 0.0
H655 H 0.68644 0.92764 0.96424 0.0
H656 H 0.69704 0.9164 0.85608 0.0
S657 S 0.58386 0.84014 0.90165 0.0
N658 N 0.59769 0.86043 0.96174 0.0
N659 N 0.60906 0.84837 0.84513 0.0
C660 C 0.63046 0.86845 0.87404 0.0
C661 C 0.62428 0.875 0.93737 0.0
C662 C 0.35425 0.36671 0.1792 0.0
C663 C 0.36065 0.39052 0.22327 0.0
C664 C 0.36144 0.37187 0.11618 0.0
C665 C 0.37539 0.40106 0.09444 0.0
H666 H 0.3442 0.34357 0.19372 0.0
H667 H 0.35667 0.35254 0.08447 0.0
S668 S 0.39363 0.47256 0.18916 0.0
N669 N 0.37952 0.44539 0.23936 0.0
N670 N 0.39308 0.455 0.12144 0.0
C671 C 0.38115 0.42537 0.13767 0.0
C672 C 0.37379 0.42014 0.2018 0.0
C673 C 0.85496 0.12978 0.44927 0.0
C674 C 0.8846 0.11619 0.4717 0.0
C675 C 0.84873 0.1359 0.38535 0.0
C676 C 0.87188 0.12871 0.34108 0.0
H677 H 0.8363 0.13558 0.48138 0.0
H678 H 0.82549 0.14621 0.37046 0.0
S679 S 0.95426 0.09508 0.37574 0.0
N680 N 0.93791 0.09712 0.44447 0.0
N681 N 0.92625 0.10861 0.32475 0.0
C682 C 0.90168 0.11529 0.36291 0.0
C683 C 0.90802 0.10905 0.42798 0.0
C684 C 0.16237 0.36794 0.39678 0.0
C685 C 0.1548 0.3904 0.34789 0.0
C686 C 0.15638 0.37472 0.45898 0.0
C687 C 0.14269 0.40432 0.47501 0.0
H688 H 0.1724 0.34462 0.38675 0.0
H689 H 0.1619 0.35633 0.49467 0.0
S690 S 0.12211 0.47285 0.36519 0.0
N691 N 0.13513 0.44437 0.32042 0.0
N692 N 0.1243 0.4573 0.43683 0.0
C693 C 0.13594 0.42735 0.42667 0.0
C694 C 0.14188 0.42036 0.36339 0.0
C695 C 0.87798 0.86594 0.68239 0.0
C696 C 0.86839 0.89157 0.71899 0.0
C697 C 0.88521 0.87097 0.61948 0.0
C698 C 0.88321 0.90187 0.5903 0.0
H699 H 0.88034 0.84177 0.70277 0.0
H700 H 0.89292 0.85051 0.5937 0.0
S701 S 0.85684 0.97676 0.66384 0.0
N702 N 0.85569 0.94879 0.72026 0.0
N703 N 0.8693 0.95825 0.60224 0.0
C704 C 0.87329 0.92768 0.62609 0.0
C705 C 0.8659 0.92255 0.69024 0.0
C706 C 0.39899 0.63432 0.86696 0.0
C707 C 0.36696 0.63484 0.84173 0.0
C708 C 0.4054 0.62835 0.93074 0.0
C709 C 0.38006 0.62269 0.97215 0.0
H710 H 0.41934 0.63905 0.83728 0.0
H711 H 0.43045 0.62859 0.94791 0.0
S712 S 0.29199 0.61907 0.92942 0.0
N713 N 0.30964 0.62753 0.86303 0.0
N714 N 0.3217 0.61651 0.98285 0.0
C715 C 0.34792 0.62282 0.94758 0.0
C716 C 0.34138 0.62883 0.8825 0.0
C717 C 0.67005 0.11659 0.12185 0.0
C718 C 0.64028 0.12341 0.08996 0.0
C719 C 0.67505 0.12383 0.18487 0.0
C720 C 0.65049 0.13823 0.21862 0.0
H721 H 0.68945 0.105 0.09823 0.0
H722 H 0.69816 0.11759 0.20762 0.0
S723 S 0.56943 0.16419 0.15493 0.0
N724 N 0.58678 0.14754 0.09589 0.0
N725 N 0.59615 0.16118 0.21375 0.0
C726 C 0.62092 0.14588 0.1868 0.0
C727 C 0.61583 0.13849 0.12275 0.0
C728 C 0.87228 0.41716 0.36443 0.0
C729 C 0.86675 0.38529 0.34577 0.0
C730 C 0.87747 0.42421 0.42741 0.0
C731 C 0.87737 0.3997 0.47441 0.0
H732 H 0.87228 0.43688 0.33011 0.0
H733 H 0.88136 0.44914 0.43943 0.0
S734 S 0.86673 0.31198 0.44988 0.0
N735 N 0.86324 0.3288 0.37938 0.0
N736 N 0.87298 0.34202 0.49732 0.0
C737 C 0.87221 0.3677 0.45632 0.0
C738 C 0.86692 0.36052 0.39223 0.0
C739 C 0.36242 0.10241 0.19531 0.0
C740 C 0.36627 0.13368 0.21828 0.0
C741 C 0.36844 0.09596 0.13296 0.0
C742 C 0.37861 0.1205 0.0909 0.0
H743 H 0.35427 0.08281 0.22559 0.0
H744 H 0.36477 0.07159 0.1174 0.0
S745 S 0.39544 0.20579 0.12914 0.0
N746 N 0.38291 0.18899 0.19475 0.0
N747 N 0.39426 0.17691 0.07814 0.0
C748 C 0.38308 0.15174 0.1136 0.0
C749 C 0.37693 0.15831 0.177 0.0
C750 C 0.65234 0.64427 0.94764 0.0
C751 C 0.64141 0.61413 0.97106 0.0
C752 C 0.65964 0.64914 0.88465 0.0
C753 C 0.65637 0.62407 0.8422 0.0
H754 H 0.65467 0.66453 0.97801 0.0
H755 H 0.66737 0.67296 0.86884 0.0
S756 S 0.63181 0.53961 0.88101 0.0
N757 N 0.62979 0.5582 0.94739 0.0
N758 N 0.64349 0.56731 0.82939 0.0
C759 C 0.64613 0.5936 0.86528 0.0
C760 C 0.63869 0.58865 0.92945 0.0
C761 C 0.16896 0.89348 0.61651 0.0
C762 C 0.1384 0.90465 0.59373 0.0
C763 C 0.17522 0.88742 0.68038 0.0
C764 C 0.15119 0.89228 0.7242 0.0
H765 H 0.18831 0.88956 0.58473 0.0
H766 H 0.19916 0.87899 0.69562 0.0
S767 S 0.06644 0.91911 0.68848 0.0
N768 N 0.08339 0.91894 0.62007 0.0
N769 N 0.09516 0.90763 0.73981 0.0
C770 C 0.12049 0.90331 0.70205 0.0
C771 C 0.1141 0.90946 0.63701 0.0
C772 C 0.84222 0.64195 0.66609 0.0
C773 C 0.85894 0.62551 0.71571 0.0
C774 C 0.84824 0.6354 0.60392 0.0
C775 C 0.87129 0.61215 0.5886 0.0
H776 H 0.8242 0.66 0.67539 0.0
H777 H 0.83459 0.6486 0.5675 0.0
S778 S 0.92303 0.56367 0.70116 0.0
N779 N 0.90035 0.58569 0.74516 0.0
N780 N 0.91178 0.57348 0.62867 0.0
C781 C 0.88821 0.59555 0.63782 0.0
C782 C 0.88202 0.60219 0.70114 0.0
C783 C 0.12748 0.14359 0.43934 0.0
C784 C 0.13785 0.11564 0.47334 0.0
C785 C 0.13481 0.14862 0.37646 0.0
C786 C 0.15282 0.12592 0.34468 0.0
H787 H 0.11325 0.16165 0.46135 0.0
H788 H 0.12602 0.1704 0.35233 0.0
S789 S 0.18776 0.04981 0.41335 0.0
N790 N 0.16846 0.06564 0.47099 0.0
N791 N 0.18211 0.07506 0.35299 0.0
C792 C 0.16355 0.09797 0.37816 0.0
C793 C 0.15612 0.09285 0.4423 0.0
C794 C 0.64109 0.3633 0.1831 0.0
C795 C 0.65127 0.38802 0.22274 0.0
C796 C 0.63516 0.36943 0.11917 0.0
C797 C 0.63915 0.40054 0.09205 0.0
H798 H 0.63717 0.33905 0.20181 0.0
H799 H 0.62681 0.3497 0.09093 0.0
S800 S 0.66806 0.47312 0.17425 0.0
N801 N 0.66685 0.44448 0.22939 0.0
N802 N 0.65573 0.45599 0.10942 0.0
C803 C 0.64982 0.42539 0.13094 0.0
C804 C 0.65585 0.41914 0.19611 0.0
C805 C 0.36464 0.9172 0.93262 0.0
C806 C 0.38415 0.89773 0.97365 0.0
C807 C 0.36006 0.90975 0.86969 0.0
C808 C 0.37481 0.88254 0.84524 0.0
H809 H 0.35247 0.93816 0.94945 0.0
H810 H 0.34448 0.9252 0.84015 0.0
S811 S 0.43075 0.8256 0.93152 0.0
N812 N 0.42001 0.85125 0.9841 0.0
N813 N 0.41141 0.83729 0.86625 0.0
C814 C 0.39483 0.86322 0.8855 0.0
C815 C 0.39949 0.8708 0.94949 0.0
C816 C 0.15129 0.74067 0.25066 0.0
C817 C 0.12883 0.72432 0.21198 0.0
C818 C 0.15098 0.77478 0.25293 0.0
C819 C 0.12786 0.79317 0.21739 0.0
H820 H 0.1708 0.72739 0.27481 0.0
H821 H 0.17046 0.78682 0.27819 0.0
S822 S 0.0612 0.76154 0.11661 0.0
N823 N 0.08144 0.72919 0.14211 0.0
N824 N 0.07967 0.79229 0.14954 0.0
C825 C 0.10352 0.77672 0.18392 0.0
C826 C 0.10434 0.74254 0.1803 0.0
C827 C 0.53349 0.8697 0.4937 0.0
C828 C 0.55112 0.89649 0.47089 0.0
C829 C 0.49925 0.87047 0.4947 0.0
C830 C 0.48193 0.89802 0.47278 0.0
H831 H 0.54595 0.84728 0.50598 0.0
H832 H 0.48624 0.84859 0.50757 0.0
S833 S 0.51729 0.97566 0.417 0.0
N834 N 0.54911 0.95222 0.43268 0.0
N835 N 0.48506 0.95365 0.43436 0.0
C836 C 0.49956 0.92566 0.45483 0.0
C837 C 0.53415 0.92489 0.4539 0.0
C838 C 0.4122 0.2765 0.6788 0.0
C839 C 0.38855 0.29278 0.71139 0.0
C840 C 0.41274 0.2428 0.6777 0.0
C841 C 0.38974 0.2239 0.70936 0.0
H842 H 0.42918 0.29001 0.65048 0.0
H843 H 0.43016 0.23149 0.64872 0.0
S844 S 0.32474 0.2545 0.80678 0.0
N845 N 0.34317 0.28751 0.78039 0.0
N846 N 0.34433 0.22371 0.77872 0.0
C847 C 0.3676 0.23964 0.74642 0.0
C848 C 0.36698 0.27426 0.74737 0.0
C849 C 0.9969 0.10476 0.98237 0.0
C850 C 0.97918 0.13374 0.97688 0.0
C851 C 0.03111 0.10492 0.98154 0.0
C852 C 0.04852 0.13407 0.97502 0.0
H853 H 0.9842 0.08179 0.98192 0.0
H854 H 0.04378 0.08208 0.98064 0.0
S855 S 0.01358 0.21637 0.96449 0.0
N856 N 0.98161 0.19224 0.96947 0.0
N857 N 0.04575 0.19253 0.9677 0.0
C858 C 0.03117 0.16317 0.9739 0.0
C859 C 0.99647 0.16301 0.97489 0.0
C860 C 0.17319 0.27892 0.86285 0.0
C861 C 0.14493 0.29667 0.84705 0.0
C862 C 0.17309 0.2451 0.86237 0.0
C863 C 0.14473 0.22785 0.84606 0.0
H864 H 0.19486 0.29114 0.88003 0.0
H865 H 0.19474 0.23227 0.87907 0.0
S866 S 0.06491 0.26316 0.79779 0.0
N867 N 0.08835 0.29481 0.8116 0.0
N868 N 0.0882 0.23101 0.8104 0.0
C869 C 0.11693 0.24535 0.82607 0.0
C870 C 0.11701 0.2799 0.82675 0.0
C871 C 0.02719 0.92046 0.1089 0.0
C872 C 0.04501 0.89451 0.08722 0.0
C873 C 0.99315 0.91949 0.1096 0.0
C874 C 0.9757 0.89254 0.08859 0.0
H875 H 0.03977 0.94049 0.1303 0.0
H876 H 0.98056 0.93885 0.13127 0.0
S877 S 0.01059 0.81995 1.02094 0.0
N878 N 0.04264 0.8424 0.039 0.0
N879 N 0.97837 0.8406 0.0403 0.0
C880 C 0.99296 0.86762 0.062 0.0
C881 C 0.02778 0.86861 0.06126 0.0
C882 C 0.41996 0.74504 0.3769 0.0
C883 C 0.39409 0.72884 0.34696 0.0
C884 C 0.42091 0.77874 0.37814 0.0
C885 C 0.39608 0.79765 0.34933 0.0
H886 H 0.43841 0.73147 0.40358 0.0
H887 H 0.4401 0.79001 0.4056 0.0
S888 S 0.32487 0.76723 0.25865 0.0
N889 N 0.34458 0.73419 0.28284 0.0
N890 N 0.34648 0.79796 0.28478 0.0
C891 C 0.37159 0.78199 0.31437 0.0
C892 C 0.37056 0.74739 0.31328 0.0
C893 C 0.52546 0.15118 0.57172 0.0
C894 C 0.54285 0.12299 0.58949 0.0
C895 C 0.49122 0.15176 0.57304 0.0
C896 C 0.47361 0.12413 0.59182 0.0
H897 H 0.53841 0.17351 0.56202 0.0
H898 H 0.47872 0.17449 0.56408 0.0
S899 S 0.5076 0.04352 0.63475 0.0
N900 N 0.5398 0.06619 0.62028 0.0
N901 N 0.47573 0.06728 0.62236 0.0
C902 C 0.49063 0.09531 0.60478 0.0
C903 C 0.52525 0.09473 0.60365 0.0
C904 C 0.90176 0.24477 0.81421 0.0
C905 C 0.87713 0.22563 0.8407 0.0
C906 C 0.90058 0.27881 0.81564 0.0
C907 C 0.87497 0.29437 0.84432 0.0
H908 H 0.92324 0.23343 0.79716 0.0
H909 H 0.9211 0.29276 0.79925 0.0
S910 S 0.80351 0.25496 0.91535 0.0
N911 N 0.8252 0.22478 0.89082 0.0
N912 N 0.82371 0.28811 0.89603 0.0
C913 C 0.84935 0.27542 0.86709 0.0
C914 C 0.85023 0.24117 0.86455 0.0
C915 C 0.61056 0.77621 0.38631 0.0
C916 C 0.63344 0.79489 0.35388 0.0
C917 C 0.61069 0.74251 0.38516 0.0
C918 C 0.63378 0.72595 0.3517 0.0
H919 H 0.59354 0.78768 0.41591 0.0
H920 H 0.59383 0.7292 0.41408 0.0
S921 S 0.69667 0.76359 0.25318 0.0
N922 N 0.6779 0.79459 0.28233 0.0
N923 N 0.67826 0.73076 0.28049 0.0
C924 C 0.65513 0.74425 0.3148 0.0
C925 C 0.65493 0.7789 0.31582 0.0
C926 C 0.90003 0.7371 0.24057 0.0
C927 C 0.87378 0.72148 0.2103 0.0
C928 C 0.90156 0.77117 0.24176 0.0
C929 C 0.87677 0.79032 0.21301 0.0
H930 H 0.92059 0.72311 0.25895 0.0
H931 H 0.92327 0.78252 0.26087 0.0
S932 S 0.80152 0.76086 0.13387 0.0
N933 N 0.82172 0.72771 0.15501 0.0
N934 N 0.82401 0.7911 0.15917 0.0
C935 C 0.84941 0.77474 0.18711 0.0
C936 C 0.84808 0.74046 0.18517 0.0
C937 C 0.60195 0.23969 0.68744 0.0
C938 C 0.6279 0.2219 0.71527 0.0
C939 C 0.60128 0.27341 0.68885 0.0
C940 C 0.62655 0.29079 0.71807 0.0
H941 H 0.58312 0.22758 0.6605 0.0
H942 H 0.58201 0.28613 0.66276 0.0
S943 S 0.69829 0.25554 0.80373 0.0
N944 N 0.678 0.22386 0.77806 0.0
N945 N 0.67679 0.28764 0.7805 0.0
C946 C 0.65124 0.27328 0.75081 0.0
C947 C 0.6519 0.23866 0.74946 0.0
C948 C 0.9942 0.35539 0.92836 0.0
C949 C 0.97692 0.37729 0.96316 0.0
C950 C 0.02817 0.35578 0.92818 0.0
C951 C 0.04638 0.37804 0.9629 0.0
H952 H 0.98127 0.33905 0.8979 0.0
H953 H 0.04022 0.33972 0.89765 0.0
S954 S 0.01316 0.4382 0.06715 0.0
N955 N 0.98058 0.41999 0.03769 0.0
N956 N 0.04489 0.42064 0.03755 0.0
C957 C 0.02968 0.39831 1.00203 0.0
C958 C 0.99477 0.39795 1.00214 0.0
C959 C 0.49691 0.66528 0.44487 0.0
C960 C 0.47927 0.64026 0.47396 0.0
C961 C 0.53086 0.66454 0.44402 0.0
C962 C 0.54857 0.63876 0.47229 0.0
H963 H 0.48424 0.68428 0.41815 0.0
H964 H 0.5432 0.68306 0.41684 0.0
S965 S 0.51421 0.56979 0.56274 0.0
N966 N 0.48202 0.59092 0.53803 0.0
N967 N 0.5463 0.5896 0.53683 0.0
C968 C 0.53155 0.61524 0.50698 0.0
C969 C 0.49669 0.61597 0.50771 0.0
C970 C 0.48866 0.41875 0.60039 0.0
C971 C 0.47024 0.39092 0.58817 0.0
C972 C 0.5227 0.41826 0.59965 0.0
C973 C 0.53952 0.39001 0.58627 0.0
H974 H 0.4768 0.44028 0.61563 0.0
H975 H 0.53598 0.43932 0.61503 0.0
S976 S 0.50245 0.31129 0.54776 0.0
N977 N 0.47102 0.33488 0.55902 0.0
N978 N 0.53525 0.33401 0.55741 0.0
C979 C 0.52134 0.36267 0.56972 0.0
C980 C 0.48656 0.36313 0.57062 0.0
C981 C 0.02282 0.62034 0.05981 0.0
C982 C 0.04073 0.63963 0.10152 0.0
C983 C 0.98839 0.61984 0.05946 0.0
C984 C 0.97124 0.6389 0.10031 0.0
H985 H 0.03536 0.60378 1.03108 0.0
H986 H 0.97536 0.60282 1.03067 0.0
S987 S 1.00661 0.69705 0.2109 0.0
N988 N 0.03828 0.68024 0.18007 0.0
N989 N 0.97448 0.6806 0.17663 0.0
C990 C 0.98892 0.66035 0.1375 0.0
C991 C 0.02346 0.66036 0.13887 0.0
C992 C 0.12881 0.53915 1.00204 0.0
C993 C 0.1324 0.53827 0.06758 0.0
C994 C 0.12873 0.51069 0.96792 0.0
C995 C 0.13324 0.48033 0.99795 0.0
H996 H 0.12656 0.56214 0.97678 0.0
H997 H 0.12664 0.51263 0.91766 0.0
S998 S 0.14253 0.46479 0.16858 0.0
N999 N 0.13898 0.50441 0.16097 0.0
N1000 N 0.13996 0.45109 0.09746 0.0
C1001 C 0.13601 0.47914 0.06356 0.0
C1002 C 0.13527 0.50802 0.09822 0.0
C1003 C 0.7672 0.88012 0.3493 0.0
C1004 C 0.73572 0.88034 0.32222 0.0
C1005 C 0.7947 0.8803 0.31208 0.0
C1006 C 0.79181 0.87991 0.24648 0.0
H1007 H 0.77062 0.88148 0.39924 0.0
H1008 H 0.81853 0.88143 0.33491 0.0
S1009 S 0.71458 0.87724 0.15347 0.0
N1010 N 0.70307 0.87828 0.22615 0.0
N1011 N 0.75476 0.87749 0.15677 0.0
C1012 C 0.76046 0.87821 0.21919 0.0
C1013 C 0.73244 0.87879 0.25693 0.0
C1014 C 0.37862 0.48259 0.50529 0.0
C1015 C 0.38738 0.48141 0.56943 0.0
C1016 C 0.38083 0.5113 0.46889 0.0
C1017 C 0.39152 0.54006 0.49536 0.0
H1018 H 0.36938 0.4612 0.48299 0.0
H1019 H 0.37263 0.51131 0.42056 0.0
S1020 S 0.42003 0.54988 0.65892 0.0
N1021 N 0.40958 0.51139 0.65613 0.0
N1022 N 0.41291 0.56546 0.58816 0.0
C1023 C 0.40158 0.53906 0.55856 0.0
C1024 C 0.39984 0.50971 0.59545 0.0
C1025 C 0.77474 0.15865 0.79816 0.0
C1026 C 0.79002 0.12969 0.81909 0.0
C1027 C 0.74735 0.15844 0.75654 0.0
C1028 C 0.73418 0.12919 0.73503 0.0
H1029 H 0.78446 0.18165 0.81273 0.0
H1030 H 0.73606 0.18116 0.74225 0.0
S1031 S 0.76501 0.04685 0.77676 0.0
N1032 N 0.78957 0.07115 0.81547 0.0
N1033 N 0.73877 0.07066 0.73822 0.0
C1034 C 0.74928 0.10024 0.75609 0.0
C1035 C 0.77696 0.10045 0.79782 0.0
C1036 C 0.88102 0.50577 0.09525 0.0
C1037 C 0.88673 0.53613 0.06686 0.0
C1038 C 0.88077 0.47763 0.06044 0.0
C1039 C 0.88683 0.47865 0.99613 0.0
H1040 H 0.87518 0.5039 0.14392 0.0
H1041 H 0.87517 0.45486 0.08403 0.0
S1042 S 0.90662 0.55213 0.90178 0.0
N1043 N 0.90071 0.56555 0.97188 0.0
N1044 N 0.90118 0.51261 0.90704 0.0
C1045 C 0.89441 0.50872 0.96814 0.0
C1046 C 0.89402 0.53745 1.00332 0.0
C1047 C 0.2632 0.13332 0.8428 0.0
C1048 C 0.23238 0.14002 0.81568 0.0
C1049 C 0.29079 0.13192 0.80602 0.0
C1050 C 0.28877 0.13788 0.74095 0.0
H1051 H 0.26577 0.1275 0.89214 0.0
H1052 H 0.31387 0.12549 0.82871 0.0
S1053 S 0.21407 0.15964 0.64859 0.0
N1054 N 0.20166 0.15463 0.72046 0.0
N1055 N 0.25366 0.15297 0.65209 0.0
C1056 C 0.25841 0.14643 0.71395 0.0
C1057 C 0.2302 0.14718 0.75112 0.0
C1058 C 0.66393 0.52418 0.52278 0.0
C1059 C 0.63609 0.53607 0.48958 0.0
C1060 C 0.66265 0.49658 0.56199 0.0
C1061 C 0.63337 0.47986 0.57105 0.0
H1062 H 0.68723 0.53614 0.51824 0.0
H1063 H 0.68495 0.48807 0.58514 0.0
S1064 S 0.55363 0.49953 0.49403 0.0
N1065 N 0.57828 0.52805 0.46749 0.0
N1066 N 0.57599 0.47615 0.54207 0.0
C1067 C 0.60525 0.49122 0.53848 0.0
C1068 C 0.6066 0.51925 0.49747 0.0
C1069 C 0.26135 0.88113 0.35359 0.0
C1070 C 0.2916 0.87863 0.32606 0.0
C1071 C 0.23234 0.88116 0.31707 0.0
C1072 C 0.2325 0.87802 0.25193 0.0
H1073 H 0.26016 0.88484 0.40301 0.0
H1074 H 0.20958 0.88452 0.33992 0.0
S1075 S 0.30552 0.86761 0.15872 0.0
N1076 N 0.3201 0.87105 0.23062 0.0
N1077 N 0.26555 0.87001 0.16255 0.0
C1078 C 0.26253 0.87351 0.22456 0.0
C1079 C 0.29208 0.87419 0.26151 0.0
C1080 C 0.6449 0.97998 0.55767 0.0
C1081 C 0.64001 0.98097 0.49227 0.0
C1082 C 0.6424 1.00783 0.59291 0.0
C1083 C 0.63543 0.03798 0.56404 0.0
H1084 H 0.65095 0.95743 0.58205 0.0
H1085 H 0.64733 1.00596 0.64263 0.0
S1086 S 0.61771 0.05365 0.39539 0.0
N1087 N 0.6254 0.01455 0.40116 0.0
N1088 N 0.62147 0.06694 0.46672 0.0
C1089 C 0.62932 0.03918 0.49908 0.0
C1090 C 0.63132 0.01071 0.4634 0.0
C1091 C 0.24606 0.36219 0.80892 0.0
C1092 C 0.23456 0.39127 0.83238 0.0
C1093 C 0.27156 0.36216 0.7663 0.0
C1094 C 0.28657 0.39118 0.74615 0.0
H1095 H 0.23466 0.33948 0.82212 0.0
H1096 H 0.27996 0.3393 0.75001 0.0
S1097 S 0.26549 0.47359 0.79444 0.0
N1098 N 0.24035 0.44957 0.8324 0.0
N1099 N 0.28777 0.44963 0.75354 0.0
C1100 C 0.27527 0.42023 0.76985 0.0
C1101 C 0.24945 0.42023 0.81255 0.0
C1102 C 0.91098 0.99534 0.05784 0.0
C1103 C 0.88124 0.98122 0.07545 0.0
C1104 C 0.91173 0.02283 1.01706 0.0
C1105 C 0.88276 0.03726 0.99308 0.0
H1106 H 0.93377 0.9847 0.07461 0.0
H1107 H 0.93502 0.03331 1.00558 0.0
S1108 S 0.79874 0.00972 1.0247 0.0
N1109 N 0.82227 0.98402 0.06528 0.0
N1110 N 0.82372 0.03513 0.98968 0.0
C1111 C 0.85305 0.02329 1.01044 0.0
C1112 C 0.85228 0.99547 0.05129 0.0
C1113 C 0.26256 0.63054 0.21274 0.0
C1114 C 0.23305 0.64074 0.23601 0.0
C1115 C 0.29108 0.6296 0.25062 0.0
C1116 C 0.2913 0.63909 0.31316 0.0
H1117 H 0.2633 0.62174 0.166 0.0
H1118 H 0.31306 0.6207 0.23089 0.0
S1119 S 0.22034 0.67004 0.39424 0.0
N1120 N 0.20572 0.66195 0.32406 0.0
N1121 N 0.25942 0.66093 0.39478 0.0
C1122 C 0.26216 0.65085 0.33583 0.0
C1123 C 0.23302 0.65137 0.29744 0.0
C1124 C 0.37198 0.01059 0.47257 0.0
C1125 C 0.38679 0.98224 0.49661 0.0
C1126 C 0.36966 0.03794 0.50913 0.0
C1127 C 0.38242 0.03823 0.57103 0.0
H1128 H 0.36097 0.01124 0.42614 0.0
H1129 H 0.35745 0.05899 0.48853 0.0
S1130 S 0.42609 0.97038 0.65331 0.0
N1131 N 0.41591 0.95626 0.5845 0.0
N1132 N 0.41225 1.00777 0.65267 0.0
C1133 C 0.39851 0.0103 0.59449 0.0
C1134 C 0.40044 0.98231 0.55748 0.0
C1135 C 0.76649 0.6 0.24666 0.0
C1136 C 0.78379 0.62827 0.23115 0.0
C1137 C 0.74089 0.60028 0.28799 0.0
C1138 C 0.73179 0.62871 0.31711 0.0
H1139 H 0.77288 0.57731 0.22672 0.0
H1140 H 0.72813 0.5778 0.29732 0.0
S1141 S 0.77069 0.70903 0.2952 0.0
N1142 N 0.79092 0.68537 0.24991 0.0
N1143 N 0.74281 0.68594 0.32815 0.0
C1144 C 0.74925 0.65714 0.30295 0.0
C1145 C 0.77515 0.65693 0.25977 0.0
C1146 C 0.11504 0.02402 1.00987 0.0
C1147 C 0.1444 0.03733 0.98839 0.0
C1148 C 0.11501 0.99697 0.05176 0.0
C1149 C 0.14428 0.98212 0.07298 0.0
H1150 H 0.09205 0.03497 0.99535 0.0
H1151 H 0.09191 0.98716 0.06637 0.0
S1152 S 0.22754 1.00754 1.03055 0.0
N1153 N 0.20337 0.03338 0.99182 0.0
N1154 N 0.20325 0.98298 0.06936 0.0
C1155 C 0.17364 0.99524 0.05161 0.0
C1156 C 0.17368 0.02268 1.00969 0.0
C1157 C 0.73785 0.41309 0.77928 0.0
C1158 C 0.7281 0.38556 0.74646 0.0
C1159 C 0.76584 0.41305 0.81824 0.0
C1160 C 0.78505 0.3853 0.82745 0.0
H1161 H 0.72388 0.4352 0.77452 0.0
H1162 H 0.77266 0.43509 0.84111 0.0
S1163 S 0.77158 0.30717 0.75135 0.0
N1164 N 0.74078 0.32983 0.72506 0.0
N1165 N 0.79346 0.32992 0.79856 0.0
C1166 C 0.77587 0.35758 0.79509 0.0
C1167 C 0.74744 0.35767 0.75452 0.0
loop_
_geom_bond_atom_site_label_1
_geom_bond_atom_site_label_2
_geom_bond_distance
_geom_bond_site_symmetry_2
_ccdc_geom_bond_type
Dy0 O3 2.307 1_556 S
Dy0 O5 2.395 . S
Dy0 O6 2.379 . S
Dy0 O8 2.339 1_556 S
Dy0 O10 2.298 1_556 S
Dy0 O14 2.275 1_556 S
Dy0 C22 2.738 . S
Dy1 O4 2.298 . S
Dy1 O7 2.275 . S
Dy1 O9 2.307 . S
Dy1 O11 2.395 . S
Dy1 O12 2.379 . S
Dy1 O15 2.339 . S
Dy1 C31 2.738 . S
C2 O14 1.254 . S
C2 O15 1.257 . S
O3 Dy0 2.307 1_554 S
O3 C13 1.266 . S
O4 Dy1 2.298 . S
O4 C13 1.236 . S
O5 Dy0 2.395 . S
O5 C22 1.255 . S
O6 Dy0 2.379 . S
O6 C22 1.249 . S
O7 Dy1 2.275 . S
O7 C23 1.254 . S
O8 Dy0 2.339 1_554 S
O8 C23 1.257 . S
O9 Dy1 2.307 . S
O9 C24 1.266 . S
O10 Dy0 2.298 1_554 S
O10 C24 1.236 . S
O11 Dy1 2.395 . S
O11 C31 1.255 . S
O12 Dy1 2.379 . S
O12 C31 1.249 . S
C13 O3 1.266 . S
C13 O4 1.236 . S
O14 Dy0 2.275 1_554 S
O14 C2 1.254 . S
O15 Dy1 2.339 . S
O15 C2 1.257 . S
C16 C19 1.344 . S
C16 C20 1.328 . S
C16 C22 1.516 . S
C17 C18 1.304 . S
C17 C21 1.323 . S
C18 C17 1.304 . S
C18 C19 1.371 . S
C18 H32 0.930 . S
C19 C16 1.344 . S
C19 C18 1.371 . S
C19 H33 0.931 . S
C20 C16 1.328 . S
C20 C21 1.433 . S
C20 H34 0.931 . S
C21 C17 1.323 . S
C21 C20 1.433 . S
C21 H35 0.933 . S
C22 Dy0 2.738 . S
C22 O5 1.255 . S
C22 O6 1.249 . S
C22 C16 1.516 . S
C23 O7 1.254 . S
C23 O8 1.257 . S
C24 O9 1.266 . S
C24 O10 1.236 . S
C25 C28 1.344 . S
C25 C29 1.328 . S
C25 C31 1.516 . S
C26 C27 1.304 . S
C26 C30 1.323 . S
C27 C26 1.304 . S
C27 C28 1.371 . S
C27 H36 0.930 . S
C28 C25 1.344 . S
C28 C27 1.371 . S
C28 H37 0.931 . S
C29 C25 1.328 . S
C29 C30 1.433 . S
C29 H38 0.931 . S
C30 C26 1.323 . S
C30 C29 1.433 . S
C30 H39 0.933 . S
C31 Dy1 2.738 . S
C31 O11 1.255 . S
C31 O12 1.249 . S
C31 C25 1.516 . S
H32 C18 0.930 . S
H33 C19 0.931 . S
H34 C20 0.931 . S
H35 C21 0.933 . S
H36 C27 0.930 . S
H37 C28 0.931 . S
H38 C29 0.931 . S
H39 C30 0.933 . S
Dy40 O43 2.307 . S
Dy40 O45 2.395 . S
Dy40 O46 2.379 . S
Dy40 O48 2.339 . S
Dy40 O50 2.298 . S
Dy40 O54 2.275 . S
Dy40 C62 2.738 . S
Dy41 O44 2.298 . S
Dy41 O47 2.275 . S
Dy41 O49 2.307 . S
Dy41 O51 2.395 . S
Dy41 O52 2.379 . S
Dy41 O55 2.339 . S
Dy41 C71 2.738 . S
C42 O54 1.254 . S
C42 O55 1.257 . S
O43 Dy40 2.307 . S
O43 C53 1.266 . S
O44 Dy41 2.298 . S
O44 C53 1.236 . S
O45 Dy40 2.395 . S
O45 C62 1.255 . S
O46 Dy40 2.379 . S
O46 C62 1.249 . S
O47 Dy41 2.275 . S
O47 C63 1.254 . S
O48 Dy40 2.339 . S
O48 C63 1.257 . S
O49 Dy41 2.307 . S
O49 C64 1.266 . S
O50 Dy40 2.298 . S
O50 C64 1.236 . S
O51 Dy41 2.395 . S
O51 C71 1.255 . S
O52 Dy41 2.379 . S
O52 C71 1.249 . S
C53 O43 1.266 . S
C53 O44 1.236 . S
O54 Dy40 2.275 . S
O54 C42 1.254 . S
O55 Dy41 2.339 . S
O55 C42 1.257 . S
C56 C59 1.344 . S
C56 C60 1.328 . S
C56 C62 1.516 . S
C57 C58 1.304 1_556 S
C57 C61 1.323 1_556 S
C58 C57 1.304 1_554 S
C58 C59 1.371 . S
C58 H72 0.930 . S
C59 C56 1.344 . S
C59 C58 1.371 . S
C59 H73 0.931 . S
C60 C56 1.328 . S
C60 C61 1.433 . S
C60 H74 0.931 . S
C61 C57 1.323 1_554 S
C61 C60 1.433 . S
C61 H75 0.933 1_554 S
C62 Dy40 2.738 . S
C62 O45 1.255 . S
C62 O46 1.249 . S
C62 C56 1.516 . S
C63 O47 1.254 . S
C63 O48 1.257 . S
C64 O49 1.266 . S
C64 O50 1.236 . S
C65 C68 1.344 . S
C65 C69 1.328 . S
C65 C71 1.516 . S
C66 C67 1.304 . S
C66 C70 1.323 . S
C67 C66 1.304 . S
C67 C68 1.371 . S
C67 H76 0.930 . S
C68 C65 1.344 . S
C68 C67 1.371 . S
C68 H77 0.931 . S
C69 C65 1.328 . S
C69 C70 1.433 . S
C69 H78 0.931 . S
C70 C66 1.323 . S
C70 C69 1.433 . S
C70 H79 0.933 . S
C71 Dy41 2.738 . S
C71 O51 1.255 . S
C71 O52 1.249 . S
C71 C65 1.516 . S
H72 C58 0.930 . S
H73 C59 0.931 . S
H74 C60 0.931 . S
H75 C61 0.933 1_556 S
H76 C67 0.930 . S
H77 C68 0.931 . S
H78 C69 0.931 . S
H79 C70 0.933 . S
Dy80 O83 2.307 . S
Dy80 O85 2.395 . S
Dy80 O86 2.379 . S
Dy80 O88 2.339 . S
Dy80 O90 2.298 . S
Dy80 O94 2.275 . S
Dy80 C102 2.738 . S
Dy81 O84 2.298 . S
Dy81 O87 2.275 . S
Dy81 O89 2.307 . S
Dy81 O91 2.395 . S
Dy81 O92 2.379 . S
Dy81 O95 2.339 . S
Dy81 C111 2.738 . S
C82 O94 1.254 . S
C82 O95 1.257 . S
O83 Dy80 2.307 . S
O83 C93 1.266 . S
O84 Dy81 2.298 . S
O84 C93 1.236 . S
O85 Dy80 2.395 . S
O85 C102 1.255 . S
O86 Dy80 2.379 . S
O86 C102 1.249 . S
O87 Dy81 2.275 . S
O87 C103 1.254 . S
O88 Dy80 2.339 . S
O88 C103 1.257 . S
O89 Dy81 2.307 . S
O89 C104 1.266 . S
O90 Dy80 2.298 . S
O90 C104 1.236 . S
O91 Dy81 2.395 . S
O91 C111 1.255 . S
O92 Dy81 2.379 . S
O92 C111 1.249 . S
C93 O83 1.266 . S
C93 O84 1.236 . S
O94 Dy80 2.275 . S
O94 C82 1.254 . S
O95 Dy81 2.339 . S
O95 C82 1.257 . S
C96 C99 1.344 . S
C96 C100 1.328 . S
C96 C102 1.516 . S
C97 C98 1.304 . S
C97 C101 1.323 . S
C98 C97 1.304 . S
C98 C99 1.371 . S
C98 H112 0.930 . S
C99 C96 1.344 . S
C99 C98 1.371 . S
C99 H113 0.931 . S
C100 C96 1.328 . S
C100 C101 1.433 . S
C100 H114 0.931 . S
C101 C97 1.323 . S
C101 C100 1.433 . S
C101 H115 0.933 . S
C102 Dy80 2.738 . S
C102 O85 1.255 . S
C102 O86 1.249 . S
C102 C96 1.516 . S
C103 O87 1.254 . S
C103 O88 1.257 . S
C104 O89 1.266 . S
C104 O90 1.236 . S
C105 C108 1.344 . S
C105 C109 1.328 . S
C105 C111 1.516 . S
C106 C107 1.304 . S
C106 C110 1.323 . S
C107 C106 1.304 . S
C107 C108 1.371 . S
C107 H116 0.930 . S
C108 C105 1.344 . S
C108 C107 1.371 . S
C108 H117 0.931 . S
C109 C105 1.328 . S
C109 C110 1.433 . S
C109 H118 0.931 . S
C110 C106 1.323 . S
C110 C109 1.433 . S
C110 H119 0.933 . S
C111 Dy81 2.738 . S
C111 O91 1.255 . S
C111 O92 1.249 . S
C111 C105 1.516 . S
H112 C98 0.930 . S
H113 C99 0.931 . S
H114 C100 0.931 . S
H115 C101 0.933 . S
H116 C107 0.930 . S
H117 C108 0.931 . S
H118 C109 0.931 . S
H119 C110 0.933 . S
Dy120 O123 2.307 . S
Dy120 O125 2.395 . S
Dy120 O126 2.379 . S
Dy120 O128 2.339 . S
Dy120 O130 2.298 . S
Dy120 O134 2.275 . S
Dy120 C142 2.738 . S
Dy121 O124 2.298 . S
Dy121 O127 2.275 . S
Dy121 O129 2.307 . S
Dy121 O131 2.395 1_556 S
Dy121 O132 2.379 1_556 S
Dy121 O135 2.339 . S
Dy121 C151 2.738 1_556 S
C122 O134 1.254 . S
C122 O135 1.257 . S
O123 Dy120 2.307 . S
O123 C133 1.266 . S
O124 Dy121 2.298 . S
O124 C133 1.236 . S
O125 Dy120 2.395 . S
O125 C142 1.255 . S
O126 Dy120 2.379 . S
O126 C142 1.249 . S
O127 Dy121 2.275 . S
O127 C143 1.254 . S
O128 Dy120 2.339 . S
O128 C143 1.257 . S
O129 Dy121 2.307 . S
O129 C144 1.266 . S
O130 Dy120 2.298 . S
O130 C144 1.236 . S
O131 Dy121 2.395 1_554 S
O131 C151 1.255 . S
O132 Dy121 2.379 1_554 S
O132 C151 1.249 . S
C133 O123 1.266 . S
C133 O124 1.236 . S
O134 Dy120 2.275 . S
O134 C122 1.254 . S
O135 Dy121 2.339 . S
O135 C122 1.257 . S
C136 C139 1.344 . S
C136 C140 1.328 . S
C136 C142 1.516 . S
C137 C138 1.304 . S
C137 C141 1.323 . S
C138 C137 1.304 . S
C138 C139 1.371 . S
C138 H152 0.930 . S
C139 C136 1.344 . S
C139 C138 1.371 . S
C139 H153 0.931 . S
C140 C136 1.328 . S
C140 C141 1.433 . S
C140 H154 0.931 . S
C141 C137 1.323 . S
C141 C140 1.433 . S
C141 H155 0.933 . S
C142 Dy120 2.738 . S
C142 O125 1.255 . S
C142 O126 1.249 . S
C142 C136 1.516 . S
C143 O127 1.254 . S
C143 O128 1.257 . S
C144 O129 1.266 . S
C144 O130 1.236 . S
C145 C148 1.344 . S
C145 C149 1.328 . S
C145 C151 1.516 . S
C146 C147 1.304 . S
C146 C150 1.323 . S
C147 C146 1.304 . S
C147 C148 1.371 . S
C147 H156 0.930 . S
C148 C145 1.344 . S
C148 C147 1.371 . S
C148 H157 0.931 . S
C149 C145 1.328 . S
C149 C150 1.433 . S
C149 H158 0.931 . S
C150 C146 1.323 . S
C150 C149 1.433 . S
C150 H159 0.933 . S
C151 Dy121 2.738 1_554 S
C151 O131 1.255 . S
C151 O132 1.249 . S
C151 C145 1.516 . S
H152 C138 0.930 . S
H153 C139 0.931 . S
H154 C140 0.931 . S
H155 C141 0.933 . S
H156 C147 0.930 . S
H157 C148 0.931 . S
H158 C149 0.931 . S
H159 C150 0.933 . S
Dy160 O163 2.307 . S
Dy160 O165 2.395 . S
Dy160 O166 2.379 . S
Dy160 O168 2.339 . S
Dy160 O170 2.298 . S
Dy160 O174 2.275 . S
Dy160 C182 2.738 . S
Dy161 O164 2.298 . S
Dy161 O167 2.275 . S
Dy161 O169 2.307 . S
Dy161 O171 2.395 1_556 S
Dy161 O172 2.379 1_556 S
Dy161 O175 2.339 . S
Dy161 C191 2.738 1_556 S
C162 O174 1.254 . S
C162 O175 1.257 . S
O163 Dy160 2.307 . S
O163 C173 1.266 . S
O164 Dy161 2.298 . S
O164 C173 1.236 . S
O165 Dy160 2.395 . S
O165 C182 1.255 . S
O166 Dy160 2.379 . S
O166 C182 1.249 . S
O167 Dy161 2.275 . S
O167 C183 1.254 . S
O168 Dy160 2.339 . S
O168 C183 1.257 . S
O169 Dy161 2.307 . S
O169 C184 1.266 . S
O170 Dy160 2.298 . S
O170 C184 1.236 . S
O171 Dy161 2.395 1_554 S
O171 C191 1.255 . S
O172 Dy161 2.379 1_554 S
O172 C191 1.249 . S
C173 O163 1.266 . S
C173 O164 1.236 . S
O174 Dy160 2.275 . S
O174 C162 1.254 . S
O175 Dy161 2.339 . S
O175 C162 1.257 . S
C176 C179 1.344 . S
C176 C180 1.328 . S
C176 C182 1.516 . S
C177 C178 1.304 . S
C177 C181 1.323 . S
C178 C177 1.304 . S
C178 C179 1.371 . S
C178 H192 0.930 . S
C179 C176 1.344 . S
C179 C178 1.371 . S
C179 H193 0.931 . S
C180 C176 1.328 . S
C180 C181 1.433 . S
C180 H194 0.931 . S
C181 C177 1.323 . S
C181 C180 1.433 . S
C181 H195 0.933 . S
C182 Dy160 2.738 . S
C182 O165 1.255 . S
C182 O166 1.249 . S
C182 C176 1.516 . S
C183 O167 1.254 . S
C183 O168 1.257 . S
C184 O169 1.266 . S
C184 O170 1.236 . S
C185 C188 1.344 . S
C185 C189 1.328 . S
C185 C191 1.516 . S
C186 C187 1.304 . S
C186 C190 1.323 . S
C187 C186 1.304 . S
C187 C188 1.371 . S
C187 H196 0.930 . S
C188 C185 1.344 . S
C188 C187 1.371 . S
C188 H197 0.931 . S
C189 C185 1.328 . S
C189 C190 1.433 . S
C189 H198 0.931 . S
C190 C186 1.323 . S
C190 C189 1.433 . S
C190 H199 0.933 . S
C191 Dy161 2.738 1_554 S
C191 O171 1.255 . S
C191 O172 1.249 . S
C191 C185 1.516 . S
H192 C178 0.930 . S
H193 C179 0.931 . S
H194 C180 0.931 . S
H195 C181 0.933 . S
H196 C187 0.930 . S
H197 C188 0.931 . S
H198 C189 0.931 . S
H199 C190 0.933 . S
Dy200 O203 2.307 . S
Dy200 O205 2.395 . S
Dy200 O206 2.379 . S
Dy200 O208 2.339 . S
Dy200 O210 2.298 . S
Dy200 O214 2.275 . S
Dy200 C222 2.738 . S
Dy201 O204 2.298 . S
Dy201 O207 2.275 . S
Dy201 O209 2.307 . S
Dy201 O211 2.395 1_554 S
Dy201 O212 2.379 1_554 S
Dy201 O215 2.339 . S
Dy201 C231 2.738 1_554 S
C202 O214 1.254 . S
C202 O215 1.257 . S
O203 Dy200 2.307 . S
O203 C213 1.266 . S
O204 Dy201 2.298 . S
O204 C213 1.236 . S
O205 Dy200 2.395 . S
O205 C222 1.255 . S
O206 Dy200 2.379 . S
O206 C222 1.249 . S
O207 Dy201 2.275 . S
O207 C223 1.254 . S
O208 Dy200 2.339 . S
O208 C223 1.257 . S
O209 Dy201 2.307 . S
O209 C224 1.266 . S
O210 Dy200 2.298 . S
O210 C224 1.236 . S
O211 Dy201 2.395 1_556 S
O211 C231 1.255 . S
O212 Dy201 2.379 1_556 S
O212 C231 1.249 . S
C213 O203 1.266 . S
C213 O204 1.236 . S
O214 Dy200 2.275 . S
O214 C202 1.254 . S
O215 Dy201 2.339 . S
O215 C202 1.257 . S
C216 C219 1.344 . S
C216 C220 1.328 . S
C216 C222 1.516 . S
C217 C218 1.304 . S
C217 C221 1.323 . S
C218 C217 1.304 . S
C218 C219 1.371 . S
C218 H232 0.930 . S
C219 C216 1.344 . S
C219 C218 1.371 . S
C219 H233 0.931 . S
C220 C216 1.328 . S
C220 C221 1.433 . S
C220 H234 0.931 . S
C221 C217 1.323 . S
C221 C220 1.433 . S
C221 H235 0.933 . S
C222 Dy200 2.738 . S
C222 O205 1.255 . S
C222 O206 1.249 . S
C222 C216 1.516 . S
C223 O207 1.254 . S
C223 O208 1.257 . S
C224 O209 1.266 . S
C224 O210 1.236 . S
C225 C228 1.344 . S
C225 C229 1.328 . S
C225 C231 1.516 . S
C226 C227 1.304 . S
C226 C230 1.323 . S
C227 C226 1.304 . S
C227 C228 1.371 . S
C227 H236 0.930 . S
C228 C225 1.344 . S
C228 C227 1.371 . S
C228 H237 0.931 . S
C229 C225 1.328 . S
C229 C230 1.433 . S
C229 H238 0.931 . S
C230 C226 1.323 . S
C230 C229 1.433 . S
C230 H239 0.933 . S
C231 Dy201 2.738 1_556 S
C231 O211 1.255 . S
C231 O212 1.249 . S
C231 C225 1.516 . S
H232 C218 0.930 . S
H233 C219 0.931 . S
H234 C220 0.931 . S
H235 C221 0.933 . S
H236 C227 0.930 . S
H237 C228 0.931 . S
H238 C229 0.931 . S
H239 C230 0.933 . S
Dy240 O243 2.307 . S
Dy240 O245 2.395 . S
Dy240 O246 2.379 . S
Dy240 O248 2.339 . S
Dy240 O250 2.298 . S
Dy240 O254 2.275 . S
Dy240 C262 2.738 . S
Dy241 O244 2.298 . S
Dy241 O247 2.275 . S
Dy241 O249 2.307 . S
Dy241 O251 2.395 . S
Dy241 O252 2.379 . S
Dy241 O255 2.339 . S
Dy241 C271 2.738 . S
C242 O254 1.254 . S
C242 O255 1.257 . S
O243 Dy240 2.307 . S
O243 C253 1.266 . S
O244 Dy241 2.298 . S
O244 C253 1.236 . S
O245 Dy240 2.395 . S
O245 C262 1.255 . S
O246 Dy240 2.379 . S
O246 C262 1.249 . S
O247 Dy241 2.275 . S
O247 C263 1.254 . S
O248 Dy240 2.339 . S
O248 C263 1.257 . S
O249 Dy241 2.307 . S
O249 C264 1.266 . S
O250 Dy240 2.298 . S
O250 C264 1.236 . S
O251 Dy241 2.395 . S
O251 C271 1.255 . S
O252 Dy241 2.379 . S
O252 C271 1.249 . S
C253 O243 1.266 . S
C253 O244 1.236 . S
O254 Dy240 2.275 . S
O254 C242 1.254 . S
O255 Dy241 2.339 . S
O255 C242 1.257 . S
C256 C259 1.344 . S
C256 C260 1.328 . S
C256 C262 1.516 . S
C257 C258 1.304 . S
C257 C261 1.323 . S
C258 C257 1.304 . S
C258 C259 1.371 1_556 S
C258 H272 0.930 . S
C259 C256 1.344 . S
C259 C258 1.371 1_554 S
C259 H273 0.931 . S
C260 C256 1.328 . S
C260 C261 1.433 1_554 S
C260 H274 0.931 . S
C261 C257 1.323 . S
C261 C260 1.433 1_556 S
C261 H275 0.933 . S
C262 Dy240 2.738 . S
C262 O245 1.255 . S
C262 O246 1.249 . S
C262 C256 1.516 . S
C263 O247 1.254 . S
C263 O248 1.257 . S
C264 O249 1.266 . S
C264 O250 1.236 . S
C265 C268 1.344 . S
C265 C269 1.328 . S
C265 C271 1.516 . S
C266 C267 1.304 . S
C266 C270 1.323 . S
C267 C266 1.304 . S
C267 C268 1.371 . S
C267 H276 0.930 . S
C268 C265 1.344 . S
C268 C267 1.371 . S
C268 H277 0.931 . S
C269 C265 1.328 . S
C269 C270 1.433 . S
C269 H278 0.931 . S
C270 C266 1.323 . S
C270 C269 1.433 . S
C270 H279 0.933 . S
C271 Dy241 2.738 . S
C271 O251 1.255 . S
C271 O252 1.249 . S
C271 C265 1.516 . S
H272 C258 0.930 . S
H273 C259 0.931 . S
H274 C260 0.931 . S
H275 C261 0.933 . S
H276 C267 0.930 . S
H277 C268 0.931 . S
H278 C269 0.931 . S
H279 C270 0.933 . S
Dy280 O283 2.307 . S
Dy280 O285 2.395 . S
Dy280 O286 2.379 . S
Dy280 O288 2.339 . S
Dy280 O290 2.298 . S
Dy280 O294 2.275 . S
Dy280 C302 2.738 . S
Dy281 O284 2.298 . S
Dy281 O287 2.275 . S
Dy281 O289 2.307 . S
Dy281 O291 2.395 . S
Dy281 O292 2.379 . S
Dy281 O295 2.339 . S
Dy281 C311 2.738 . S
C282 O294 1.254 . S
C282 O295 1.257 . S
O283 Dy280 2.307 . S
O283 C293 1.266 . S
O284 Dy281 2.298 . S
O284 C293 1.236 . S
O285 Dy280 2.395 . S
O285 C302 1.255 . S
O286 Dy280 2.379 . S
O286 C302 1.249 . S
O287 Dy281 2.275 . S
O287 C303 1.254 . S
O288 Dy280 2.339 . S
O288 C303 1.257 . S
O289 Dy281 2.307 . S
O289 C304 1.266 . S
O290 Dy280 2.298 . S
O290 C304 1.236 . S
O291 Dy281 2.395 . S
O291 C311 1.255 . S
O292 Dy281 2.379 . S
O292 C311 1.249 . S
C293 O283 1.266 . S
C293 O284 1.236 . S
O294 Dy280 2.275 . S
O294 C282 1.254 . S
O295 Dy281 2.339 . S
O295 C282 1.257 . S
C296 C299 1.344 . S
C296 C300 1.328 . S
C296 C302 1.516 . S
C297 C298 1.304 . S
C297 C301 1.323 . S
C298 C297 1.304 . S
C298 C299 1.371 . S
C298 H312 0.930 . S
C299 C296 1.344 . S
C299 C298 1.371 . S
C299 H313 0.931 . S
C300 C296 1.328 . S
C300 C301 1.433 . S
C300 H314 0.931 . S
C301 C297 1.323 . S
C301 C300 1.433 . S
C301 H315 0.933 . S
C302 Dy280 2.738 . S
C302 O285 1.255 . S
C302 O286 1.249 . S
C302 C296 1.516 . S
C303 O287 1.254 . S
C303 O288 1.257 . S
C304 O289 1.266 . S
C304 O290 1.236 . S
C305 C308 1.344 . S
C305 C309 1.328 . S
C305 C311 1.516 . S
C306 C307 1.304 . S
C306 C310 1.323 . S
C307 C306 1.304 . S
C307 C308 1.371 . S
C307 H316 0.930 . S
C308 C305 1.344 . S
C308 C307 1.371 . S
C308 H317 0.931 . S
C309 C305 1.328 . S
C309 C310 1.433 . S
C309 H318 0.931 . S
C310 C306 1.323 . S
C310 C309 1.433 . S
C310 H319 0.933 . S
C311 Dy281 2.738 . S
C311 O291 1.255 . S
C311 O292 1.249 . S
C311 C305 1.516 . S
H312 C298 0.930 . S
H313 C299 0.931 . S
H314 C300 0.931 . S
H315 C301 0.933 . S
H316 C307 0.930 . S
H317 C308 0.931 . S
H318 C309 0.931 . S
H319 C310 0.933 . S
Dy320 O323 2.307 . S
Dy320 O325 2.395 . S
Dy320 O326 2.379 . S
Dy320 O328 2.339 . S
Dy320 O330 2.298 . S
Dy320 O334 2.275 . S
Dy320 C342 2.738 . S
Dy321 O324 2.298 1_554 S
Dy321 O327 2.275 1_554 S
Dy321 O329 2.307 1_554 S
Dy321 O331 2.395 . S
Dy321 O332 2.379 . S
Dy321 O335 2.339 1_554 S
Dy321 C351 2.738 . S
C322 O334 1.254 . S
C322 O335 1.257 . S
O323 Dy320 2.307 . S
O323 C333 1.266 . S
O324 Dy321 2.298 1_556 S
O324 C333 1.236 . S
O325 Dy320 2.395 . S
O325 C342 1.255 . S
O326 Dy320 2.379 . S
O326 C342 1.249 . S
O327 Dy321 2.275 1_556 S
O327 C343 1.254 . S
O328 Dy320 2.339 . S
O328 C343 1.257 . S
O329 Dy321 2.307 1_556 S
O329 C344 1.266 . S
O330 Dy320 2.298 . S
O330 C344 1.236 . S
O331 Dy321 2.395 . S
O331 C351 1.255 . S
O332 Dy321 2.379 . S
O332 C351 1.249 . S
C333 O323 1.266 . S
C333 O324 1.236 . S
O334 Dy320 2.275 . S
O334 C322 1.254 . S
O335 Dy321 2.339 1_556 S
O335 C322 1.257 . S
C336 C339 1.344 . S
C336 C340 1.328 . S
C336 C342 1.516 . S
C337 C338 1.304 . S
C337 C341 1.323 . S
C338 C337 1.304 . S
C338 C339 1.371 . S
C338 H352 0.930 . S
C339 C336 1.344 . S
C339 C338 1.371 . S
C339 H353 0.931 . S
C340 C336 1.328 . S
C340 C341 1.433 . S
C340 H354 0.931 . S
C341 C337 1.323 . S
C341 C340 1.433 . S
C341 H355 0.933 . S
C342 Dy320 2.738 . S
C342 O325 1.255 . S
C342 O326 1.249 . S
C342 C336 1.516 . S
C343 O327 1.254 . S
C343 O328 1.257 . S
C344 O329 1.266 . S
C344 O330 1.236 . S
C345 C348 1.344 . S
C345 C349 1.328 . S
C345 C351 1.516 . S
C346 C347 1.304 . S
C346 C350 1.323 . S
C347 C346 1.304 . S
C347 C348 1.371 . S
C347 H356 0.930 . S
C348 C345 1.344 . S
C348 C347 1.371 . S
C348 H357 0.931 . S
C349 C345 1.328 . S
C349 C350 1.433 . S
C349 H358 0.931 . S
C350 C346 1.323 . S
C350 C349 1.433 . S
C350 H359 0.933 . S
C351 Dy321 2.738 . S
C351 O331 1.255 . S
C351 O332 1.249 . S
C351 C345 1.516 . S
H352 C338 0.930 . S
H353 C339 0.931 . S
H354 C340 0.931 . S
H355 C341 0.933 . S
H356 C347 0.930 . S
H357 C348 0.931 . S
H358 C349 0.931 . S
H359 C350 0.933 . S
Dy360 O363 2.307 . S
Dy360 O365 2.395 . S
Dy360 O366 2.379 . S
Dy360 O368 2.339 . S
Dy360 O370 2.298 . S
Dy360 O374 2.275 . S
Dy360 C382 2.738 . S
Dy361 O364 2.298 . S
Dy361 O367 2.275 . S
Dy361 O369 2.307 . S
Dy361 O371 2.395 . S
Dy361 O372 2.379 . S
Dy361 O375 2.339 . S
Dy361 C391 2.738 . S
C362 O374 1.254 . S
C362 O375 1.257 . S
O363 Dy360 2.307 . S
O363 C373 1.266 . S
O364 Dy361 2.298 . S
O364 C373 1.236 . S
O365 Dy360 2.395 . S
O365 C382 1.255 . S
O366 Dy360 2.379 . S
O366 C382 1.249 . S
O367 Dy361 2.275 . S
O367 C383 1.254 . S
O368 Dy360 2.339 . S
O368 C383 1.257 . S
O369 Dy361 2.307 . S
O369 C384 1.266 . S
O370 Dy360 2.298 . S
O370 C384 1.236 . S
O371 Dy361 2.395 . S
O371 C391 1.255 . S
O372 Dy361 2.379 . S
O372 C391 1.249 . S
C373 O363 1.266 . S
C373 O364 1.236 . S
O374 Dy360 2.275 . S
O374 C362 1.254 . S
O375 Dy361 2.339 . S
O375 C362 1.257 . S
C376 C379 1.344 . S
C376 C380 1.328 . S
C376 C382 1.516 . S
C377 C378 1.304 . S
C377 C381 1.323 . S
C378 C377 1.304 . S
C378 C379 1.371 . S
C378 H392 0.930 . S
C379 C376 1.344 . S
C379 C378 1.371 . S
C379 H393 0.931 . S
C380 C376 1.328 . S
C380 C381 1.433 . S
C380 H394 0.931 . S
C381 C377 1.323 . S
C381 C380 1.433 . S
C381 H395 0.933 . S
C382 Dy360 2.738 . S
C382 O365 1.255 . S
C382 O366 1.249 . S
C382 C376 1.516 . S
C383 O367 1.254 . S
C383 O368 1.257 . S
C384 O369 1.266 . S
C384 O370 1.236 . S
C385 C388 1.344 . S
C385 C389 1.328 . S
C385 C391 1.516 . S
C386 C387 1.304 1_554 S
C386 C390 1.323 1_554 S
C387 C386 1.304 1_556 S
C387 C388 1.371 . S
C387 H396 0.930 . S
C388 C385 1.344 . S
C388 C387 1.371 . S
C388 H397 0.931 . S
C389 C385 1.328 . S
C389 C390 1.433 . S
C389 H398 0.931 . S
C390 C386 1.323 1_556 S
C390 C389 1.433 . S
C390 H399 0.933 1_556 S
C391 Dy361 2.738 . S
C391 O371 1.255 . S
C391 O372 1.249 . S
C391 C385 1.516 . S
H392 C378 0.930 . S
H393 C379 0.931 . S
H394 C380 0.931 . S
H395 C381 0.933 . S
H396 C387 0.930 . S
H397 C388 0.931 . S
H398 C389 0.931 . S
H399 C390 0.933 1_554 S
Dy400 O403 2.307 . S
Dy400 O405 2.395 . S
Dy400 O406 2.379 . S
Dy400 O408 2.339 . S
Dy400 O410 2.298 . S
Dy400 O414 2.275 . S
Dy400 C422 2.738 . S
Dy401 O404 2.298 . S
Dy401 O407 2.275 . S
Dy401 O409 2.307 . S
Dy401 O411 2.395 . S
Dy401 O412 2.379 . S
Dy401 O415 2.339 . S
Dy401 C431 2.738 . S
C402 O414 1.254 . S
C402 O415 1.257 . S
O403 Dy400 2.307 . S
O403 C413 1.266 . S
O404 Dy401 2.298 . S
O404 C413 1.236 . S
O405 Dy400 2.395 . S
O405 C422 1.255 . S
O406 Dy400 2.379 . S
O406 C422 1.249 . S
O407 Dy401 2.275 . S
O407 C423 1.254 . S
O408 Dy400 2.339 . S
O408 C423 1.257 . S
O409 Dy401 2.307 . S
O409 C424 1.266 . S
O410 Dy400 2.298 . S
O410 C424 1.236 . S
O411 Dy401 2.395 . S
O411 C431 1.255 . S
O412 Dy401 2.379 . S
O412 C431 1.249 . S
C413 O403 1.266 . S
C413 O404 1.236 . S
O414 Dy400 2.275 . S
O414 C402 1.254 . S
O415 Dy401 2.339 . S
O415 C402 1.257 . S
C416 C419 1.344 . S
C416 C420 1.328 . S
C416 C422 1.516 . S
C417 C418 1.304 . S
C417 C421 1.323 . S
C418 C417 1.304 . S
C418 C419 1.371 . S
C418 H432 0.930 . S
C419 C416 1.344 . S
C419 C418 1.371 . S
C419 H433 0.931 . S
C420 C416 1.328 . S
C420 C421 1.433 . S
C420 H434 0.931 . S
C421 C417 1.323 . S
C421 C420 1.433 . S
C421 H435 0.933 . S
C422 Dy400 2.738 . S
C422 O405 1.255 . S
C422 O406 1.249 . S
C422 C416 1.516 . S
C423 O407 1.254 . S
C423 O408 1.257 . S
C424 O409 1.266 . S
C424 O410 1.236 . S
C425 C428 1.344 . S
C425 C429 1.328 . S
C425 C431 1.516 . S
C426 C427 1.304 . S
C426 C430 1.323 . S
C427 C426 1.304 . S
C427 C428 1.371 . S
C427 H436 0.930 . S
C428 C425 1.344 . S
C428 C427 1.371 . S
C428 H437 0.931 . S
C429 C425 1.328 . S
C429 C430 1.433 . S
C429 H438 0.931 . S
C430 C426 1.323 . S
C430 C429 1.433 . S
C430 H439 0.933 . S
C431 Dy401 2.738 . S
C431 O411 1.255 . S
C431 O412 1.249 . S
C431 C425 1.516 . S
H432 C418 0.930 . S
H433 C419 0.931 . S
H434 C420 0.931 . S
H435 C421 0.933 . S
H436 C427 0.930 . S
H437 C428 0.931 . S
H438 C429 0.931 . S
H439 C430 0.933 . S
Dy440 O443 2.307 . S
Dy440 O445 2.395 1_554 S
Dy440 O446 2.379 1_554 S
Dy440 O448 2.339 . S
Dy440 O450 2.298 . S
Dy440 O454 2.275 . S
Dy440 C462 2.738 1_554 S
Dy441 O444 2.298 . S
Dy441 O447 2.275 . S
Dy441 O449 2.307 . S
Dy441 O451 2.395 . S
Dy441 O452 2.379 . S
Dy441 O455 2.339 . S
Dy441 C471 2.738 . S
C442 O454 1.254 . S
C442 O455 1.257 . S
O443 Dy440 2.307 . S
O443 C453 1.266 . S
O444 Dy441 2.298 . S
O444 C453 1.236 . S
O445 Dy440 2.395 1_556 S
O445 C462 1.255 . S
O446 Dy440 2.379 1_556 S
O446 C462 1.249 . S
O447 Dy441 2.275 . S
O447 C463 1.254 . S
O448 Dy440 2.339 . S
O448 C463 1.257 . S
O449 Dy441 2.307 . S
O449 C464 1.266 . S
O450 Dy440 2.298 . S
O450 C464 1.236 . S
O451 Dy441 2.395 . S
O451 C471 1.255 . S
O452 Dy441 2.379 . S
O452 C471 1.249 . S
C453 O443 1.266 . S
C453 O444 1.236 . S
O454 Dy440 2.275 . S
O454 C442 1.254 . S
O455 Dy441 2.339 . S
O455 C442 1.257 . S
C456 C459 1.344 . S
C456 C460 1.328 . S
C456 C462 1.516 . S
C457 C458 1.304 . S
C457 C461 1.323 . S
C458 C457 1.304 . S
C458 C459 1.371 . S
C458 H472 0.930 . S
C459 C456 1.344 . S
C459 C458 1.371 . S
C459 H473 0.931 . S
C460 C456 1.328 . S
C460 C461 1.433 . S
C460 H474 0.931 . S
C461 C457 1.323 . S
C461 C460 1.433 . S
C461 H475 0.933 . S
C462 Dy440 2.738 1_556 S
C462 O445 1.255 . S
C462 O446 1.249 . S
C462 C456 1.516 . S
C463 O447 1.254 . S
C463 O448 1.257 . S
C464 O449 1.266 . S
C464 O450 1.236 . S
C465 C468 1.344 . S
C465 C469 1.328 . S
C465 C471 1.516 . S
C466 C467 1.304 . S
C466 C470 1.323 . S
C467 C466 1.304 . S
C467 C468 1.371 . S
C467 H476 0.930 . S
C468 C465 1.344 . S
C468 C467 1.371 . S
C468 H477 0.931 . S
C469 C465 1.328 . S
C469 C470 1.433 . S
C469 H478 0.931 . S
C470 C466 1.323 . S
C470 C469 1.433 . S
C470 H479 0.933 . S
C471 Dy441 2.738 . S
C471 O451 1.255 . S
C471 O452 1.249 . S
C471 C465 1.516 . S
H472 C458 0.930 . S
H473 C459 0.931 . S
H474 C460 0.931 . S
H475 C461 0.933 . S
H476 C467 0.930 . S
H477 C468 0.931 . S
H478 C469 0.931 . S
H479 C470 0.933 . S
Dy480 O483 2.307 . S
Dy480 O485 2.395 1_554 S
Dy480 O486 2.379 1_554 S
Dy480 O488 2.339 . S
Dy480 O490 2.298 . S
Dy480 O494 2.275 . S
Dy480 C502 2.738 1_554 S
Dy481 O484 2.298 . S
Dy481 O487 2.275 . S
Dy481 O489 2.307 . S
Dy481 O491 2.395 . S
Dy481 O492 2.379 . S
Dy481 O495 2.339 . S
Dy481 C511 2.738 . S
C482 O494 1.254 . S
C482 O495 1.257 . S
O483 Dy480 2.307 . S
O483 C493 1.266 . S
O484 Dy481 2.298 . S
O484 C493 1.236 . S
O485 Dy480 2.395 1_556 S
O485 C502 1.255 . S
O486 Dy480 2.379 1_556 S
O486 C502 1.249 . S
O487 Dy481 2.275 . S
O487 C503 1.254 . S
O488 Dy480 2.339 . S
O488 C503 1.257 . S
O489 Dy481 2.307 . S
O489 C504 1.266 . S
O490 Dy480 2.298 . S
O490 C504 1.236 . S
O491 Dy481 2.395 . S
O491 C511 1.255 . S
O492 Dy481 2.379 . S
O492 C511 1.249 . S
C493 O483 1.266 . S
C493 O484 1.236 . S
O494 Dy480 2.275 . S
O494 C482 1.254 . S
O495 Dy481 2.339 . S
O495 C482 1.257 . S
C496 C499 1.344 . S
C496 C500 1.328 . S
C496 C502 1.516 . S
C497 C498 1.304 . S
C497 C501 1.323 . S
C498 C497 1.304 . S
C498 C499 1.371 . S
C498 H512 0.930 . S
C499 C496 1.344 . S
C499 C498 1.371 . S
C499 H513 0.931 . S
C500 C496 1.328 . S
C500 C501 1.433 . S
C500 H514 0.931 . S
C501 C497 1.323 . S
C501 C500 1.433 . S
C501 H515 0.933 . S
C502 Dy480 2.738 1_556 S
C502 O485 1.255 . S
C502 O486 1.249 . S
C502 C496 1.516 . S
C503 O487 1.254 . S
C503 O488 1.257 . S
C504 O489 1.266 . S
C504 O490 1.236 . S
C505 C508 1.344 . S
C505 C509 1.328 . S
C505 C511 1.516 . S
C506 C507 1.304 . S
C506 C510 1.323 . S
C507 C506 1.304 . S
C507 C508 1.371 . S
C507 H516 0.930 . S
C508 C505 1.344 . S
C508 C507 1.371 . S
C508 H517 0.931 . S
C509 C505 1.328 . S
C509 C510 1.433 . S
C509 H518 0.931 . S
C510 C506 1.323 . S
C510 C509 1.433 . S
C510 H519 0.933 . S
C511 Dy481 2.738 . S
C511 O491 1.255 . S
C511 O492 1.249 . S
C511 C505 1.516 . S
H512 C498 0.930 . S
H513 C499 0.931 . S
H514 C500 0.931 . S
H515 C501 0.933 . S
H516 C507 0.930 . S
H517 C508 0.931 . S
H518 C509 0.931 . S
H519 C510 0.933 . S
Dy520 O523 2.307 . S
Dy520 O525 2.395 1_556 S
Dy520 O526 2.379 1_556 S
Dy520 O528 2.339 . S
Dy520 O530 2.298 . S
Dy520 O534 2.275 . S
Dy520 C542 2.738 1_556 S
Dy521 O524 2.298 . S
Dy521 O527 2.275 . S
Dy521 O529 2.307 . S
Dy521 O531 2.395 . S
Dy521 O532 2.379 . S
Dy521 O535 2.339 . S
Dy521 C551 2.738 . S
C522 O534 1.254 . S
C522 O535 1.257 . S
O523 Dy520 2.307 . S
O523 C533 1.266 . S
O524 Dy521 2.298 . S
O524 C533 1.236 . S
O525 Dy520 2.395 1_554 S
O525 C542 1.255 . S
O526 Dy520 2.379 1_554 S
O526 C542 1.249 . S
O527 Dy521 2.275 . S
O527 C543 1.254 . S
O528 Dy520 2.339 . S
O528 C543 1.257 . S
O529 Dy521 2.307 . S
O529 C544 1.266 . S
O530 Dy520 2.298 . S
O530 C544 1.236 . S
O531 Dy521 2.395 . S
O531 C551 1.255 . S
O532 Dy521 2.379 . S
O532 C551 1.249 . S
C533 O523 1.266 . S
C533 O524 1.236 . S
O534 Dy520 2.275 . S
O534 C522 1.254 . S
O535 Dy521 2.339 . S
O535 C522 1.257 . S
C536 C539 1.344 . S
C536 C540 1.328 . S
C536 C542 1.516 . S
C537 C538 1.304 . S
C537 C541 1.323 . S
C538 C537 1.304 . S
C538 C539 1.371 . S
C538 H552 0.930 . S
C539 C536 1.344 . S
C539 C538 1.371 . S
C539 H553 0.931 . S
C540 C536 1.328 . S
C540 C541 1.433 . S
C540 H554 0.931 . S
C541 C537 1.323 . S
C541 C540 1.433 . S
C541 H555 0.933 . S
C542 Dy520 2.738 1_554 S
C542 O525 1.255 . S
C542 O526 1.249 . S
C542 C536 1.516 . S
C543 O527 1.254 . S
C543 O528 1.257 . S
C544 O529 1.266 . S
C544 O530 1.236 . S
C545 C548 1.344 . S
C545 C549 1.328 . S
C545 C551 1.516 . S
C546 C547 1.304 . S
C546 C550 1.323 . S
C547 C546 1.304 . S
C547 C548 1.371 . S
C547 H556 0.930 . S
C548 C545 1.344 . S
C548 C547 1.371 . S
C548 H557 0.931 . S
C549 C545 1.328 . S
C549 C550 1.433 . S
C549 H558 0.931 . S
C550 C546 1.323 . S
C550 C549 1.433 . S
C550 H559 0.933 . S
C551 Dy521 2.738 . S
C551 O531 1.255 . S
C551 O532 1.249 . S
C551 C545 1.516 . S
H552 C538 0.930 . S
H553 C539 0.931 . S
H554 C540 0.931 . S
H555 C541 0.933 . S
H556 C547 0.930 . S
H557 C548 0.931 . S
H558 C549 0.931 . S
H559 C550 0.933 . S
Dy560 O563 2.307 . S
Dy560 O565 2.395 . S
Dy560 O566 2.379 . S
Dy560 O568 2.339 . S
Dy560 O570 2.298 . S
Dy560 O574 2.275 . S
Dy560 C582 2.738 . S
Dy561 O564 2.298 . S
Dy561 O567 2.275 . S
Dy561 O569 2.307 . S
Dy561 O571 2.395 . S
Dy561 O572 2.379 . S
Dy561 O575 2.339 . S
Dy561 C591 2.738 . S
C562 O574 1.254 . S
C562 O575 1.257 . S
O563 Dy560 2.307 . S
O563 C573 1.266 . S
O564 Dy561 2.298 . S
O564 C573 1.236 . S
O565 Dy560 2.395 . S
O565 C582 1.255 . S
O566 Dy560 2.379 . S
O566 C582 1.249 . S
O567 Dy561 2.275 . S
O567 C583 1.254 . S
O568 Dy560 2.339 . S
O568 C583 1.257 . S
O569 Dy561 2.307 . S
O569 C584 1.266 . S
O570 Dy560 2.298 . S
O570 C584 1.236 . S
O571 Dy561 2.395 . S
O571 C591 1.255 . S
O572 Dy561 2.379 . S
O572 C591 1.249 . S
C573 O563 1.266 . S
C573 O564 1.236 . S
O574 Dy560 2.275 . S
O574 C562 1.254 . S
O575 Dy561 2.339 . S
O575 C562 1.257 . S
C576 C579 1.344 . S
C576 C580 1.328 . S
C576 C582 1.516 . S
C577 C578 1.304 . S
C577 C581 1.323 . S
C578 C577 1.304 . S
C578 C579 1.371 . S
C578 H592 0.930 . S
C579 C576 1.344 . S
C579 C578 1.371 . S
C579 H593 0.931 . S
C580 C576 1.328 . S
C580 C581 1.433 . S
C580 H594 0.931 . S
C581 C577 1.323 . S
C581 C580 1.433 . S
C581 H595 0.933 . S
C582 Dy560 2.738 . S
C582 O565 1.255 . S
C582 O566 1.249 . S
C582 C576 1.516 . S
C583 O567 1.254 . S
C583 O568 1.257 . S
C584 O569 1.266 . S
C584 O570 1.236 . S
C585 C588 1.344 . S
C585 C589 1.328 . S
C585 C591 1.516 . S
C586 C587 1.304 . S
C586 C590 1.323 . S
C587 C586 1.304 . S
C587 C588 1.371 1_554 S
C587 H596 0.930 . S
C588 C585 1.344 . S
C588 C587 1.371 1_556 S
C588 H597 0.931 . S
C589 C585 1.328 . S
C589 C590 1.433 1_556 S
C589 H598 0.931 . S
C590 C586 1.323 . S
C590 C589 1.433 1_554 S
C590 H599 0.933 . S
C591 Dy561 2.738 . S
C591 O571 1.255 . S
C591 O572 1.249 . S
C591 C585 1.516 . S
H592 C578 0.930 . S
H593 C579 0.931 . S
H594 C580 0.931 . S
H595 C581 0.933 . S
H596 C587 0.930 . S
H597 C588 0.931 . S
H598 C589 0.931 . S
H599 C590 0.933 . S
Dy600 O603 2.307 . S
Dy600 O605 2.395 . S
Dy600 O606 2.379 . S
Dy600 O608 2.339 . S
Dy600 O610 2.298 . S
Dy600 O614 2.275 . S
Dy600 C622 2.738 . S
Dy601 O604 2.298 . S
Dy601 O607 2.275 . S
Dy601 O609 2.307 . S
Dy601 O611 2.395 . S
Dy601 O612 2.379 . S
Dy601 O615 2.339 . S
Dy601 C631 2.738 . S
C602 O614 1.254 . S
C602 O615 1.257 . S
O603 Dy600 2.307 . S
O603 C613 1.266 . S
O604 Dy601 2.298 . S
O604 C613 1.236 . S
O605 Dy600 2.395 . S
O605 C622 1.255 . S
O606 Dy600 2.379 . S
O606 C622 1.249 . S
O607 Dy601 2.275 . S
O607 C623 1.254 . S
O608 Dy600 2.339 . S
O608 C623 1.257 . S
O609 Dy601 2.307 . S
O609 C624 1.266 . S
O610 Dy600 2.298 . S
O610 C624 1.236 . S
O611 Dy601 2.395 . S
O611 C631 1.255 . S
O612 Dy601 2.379 . S
O612 C631 1.249 . S
C613 O603 1.266 . S
C613 O604 1.236 . S
O614 Dy600 2.275 . S
O614 C602 1.254 . S
O615 Dy601 2.339 . S
O615 C602 1.257 . S
C616 C619 1.344 . S
C616 C620 1.328 . S
C616 C622 1.516 . S
C617 C618 1.304 . S
C617 C621 1.323 . S
C618 C617 1.304 . S
C618 C619 1.371 . S
C618 H632 0.930 . S
C619 C616 1.344 . S
C619 C618 1.371 . S
C619 H633 0.931 . S
C620 C616 1.328 . S
C620 C621 1.433 . S
C620 H634 0.931 . S
C621 C617 1.323 . S
C621 C620 1.433 . S
C621 H635 0.933 . S
C622 Dy600 2.738 . S
C622 O605 1.255 . S
C622 O606 1.249 . S
C622 C616 1.516 . S
C623 O607 1.254 . S
C623 O608 1.257 . S
C624 O609 1.266 . S
C624 O610 1.236 . S
C625 C628 1.344 . S
C625 C629 1.328 . S
C625 C631 1.516 . S
C626 C627 1.304 . S
C626 C630 1.323 . S
C627 C626 1.304 . S
C627 C628 1.371 . S
C627 H636 0.930 . S
C628 C625 1.344 . S
C628 C627 1.371 . S
C628 H637 0.931 . S
C629 C625 1.328 . S
C629 C630 1.433 . S
C629 H638 0.931 . S
C630 C626 1.323 . S
C630 C629 1.433 . S
C630 H639 0.933 . S
C631 Dy601 2.738 . S
C631 O611 1.255 . S
C631 O612 1.249 . S
C631 C625 1.516 . S
H632 C618 0.930 . S
H633 C619 0.931 . S
H634 C620 0.931 . S
H635 C621 0.933 . S
H636 C627 0.930 . S
H637 C628 0.931 . S
H638 C629 0.931 . S
H639 C630 0.933 . S
C640 C641 1.369 . S
C640 C642 1.419 . S
C640 H644 0.930 . S
C641 C640 1.369 . S
C641 C650 1.429 . S
C642 C640 1.419 . S
C642 C643 1.363 . S
C642 H645 0.929 . S
C643 C642 1.363 . S
C643 C649 1.428 . S
H644 C640 0.930 . S
H645 C642 0.929 . S
S646 N647 1.613 . S
S646 N648 1.610 . S
N647 S646 1.613 . S
N647 C650 1.350 . S
N648 S646 1.610 . S
N648 C649 1.351 . S
C649 C643 1.428 . S
C649 N648 1.351 . S
C649 C650 1.434 . S
C650 C641 1.429 . S
C650 N647 1.350 . S
C650 C649 1.434 . S
C651 C652 1.369 . S
C651 C653 1.419 . S
C651 H655 0.930 . S
C652 C651 1.369 . S
C652 C661 1.429 . S
C653 C651 1.419 . S
C653 C654 1.363 . S
C653 H656 0.929 . S
C654 C653 1.363 . S
C654 C660 1.428 . S
H655 C651 0.930 . S
H656 C653 0.929 . S
S657 N658 1.613 . S
S657 N659 1.610 . S
N658 S657 1.613 . S
N658 C661 1.350 . S
N659 S657 1.610 . S
N659 C660 1.351 . S
C660 C654 1.428 . S
C660 N659 1.351 . S
C660 C661 1.434 . S
C661 C652 1.429 . S
C661 N658 1.350 . S
C661 C660 1.434 . S
C662 C663 1.369 . S
C662 C664 1.419 . S
C662 H666 0.930 . S
C663 C662 1.369 . S
C663 C672 1.429 . S
C664 C662 1.419 . S
C664 C665 1.363 . S
C664 H667 0.929 . S
C665 C664 1.363 . S
C665 C671 1.428 . S
H666 C662 0.930 . S
H667 C664 0.929 . S
S668 N669 1.613 . S
S668 N670 1.610 . S
N669 S668 1.613 . S
N669 C672 1.350 . S
N670 S668 1.610 . S
N670 C671 1.351 . S
C671 C665 1.428 . S
C671 N670 1.351 . S
C671 C672 1.434 . S
C672 C663 1.429 . S
C672 N669 1.350 . S
C672 C671 1.434 . S
C673 C674 1.369 . S
C673 C675 1.419 . S
C673 H677 0.930 . S
C674 C673 1.369 . S
C674 C683 1.429 . S
C675 C673 1.419 . S
C675 C676 1.363 . S
C675 H678 0.929 . S
C676 C675 1.363 . S
C676 C682 1.428 . S
H677 C673 0.930 . S
H678 C675 0.929 . S
S679 N680 1.613 . S
S679 N681 1.610 . S
N680 S679 1.613 . S
N680 C683 1.350 . S
N681 S679 1.610 . S
N681 C682 1.351 . S
C682 C676 1.428 . S
C682 N681 1.351 . S
C682 C683 1.434 . S
C683 C674 1.429 . S
C683 N680 1.350 . S
C683 C682 1.434 . S
C684 C685 1.369 . S
C684 C686 1.419 . S
C684 H688 0.930 . S
C685 C684 1.369 . S
C685 C694 1.429 . S
C686 C684 1.419 . S
C686 C687 1.363 . S
C686 H689 0.929 . S
C687 C686 1.363 . S
C687 C693 1.428 . S
H688 C684 0.930 . S
H689 C686 0.929 . S
S690 N691 1.613 . S
S690 N692 1.610 . S
N691 S690 1.613 . S
N691 C694 1.350 . S
N692 S690 1.610 . S
N692 C693 1.351 . S
C693 C687 1.428 . S
C693 N692 1.351 . S
C693 C694 1.434 . S
C694 C685 1.429 . S
C694 N691 1.350 . S
C694 C693 1.434 . S
C695 C696 1.369 . S
C695 C697 1.419 . S
C695 H699 0.930 . S
C696 C695 1.369 . S
C696 C705 1.429 . S
C697 C695 1.419 . S
C697 C698 1.363 . S
C697 H700 0.929 . S
C698 C697 1.363 . S
C698 C704 1.428 . S
H699 C695 0.930 . S
H700 C697 0.929 . S
S701 N702 1.613 . S
S701 N703 1.610 . S
N702 S701 1.613 . S
N702 C705 1.350 . S
N703 S701 1.610 . S
N703 C704 1.351 . S
C704 C698 1.428 . S
C704 N703 1.351 . S
C704 C705 1.434 . S
C705 C696 1.429 . S
C705 N702 1.350 . S
C705 C704 1.434 . S
C706 C707 1.369 . S
C706 C708 1.419 . S
C706 H710 0.930 . S
C707 C706 1.369 . S
C707 C716 1.429 . S
C708 C706 1.419 . S
C708 C709 1.363 . S
C708 H711 0.929 . S
C709 C708 1.363 . S
C709 C715 1.428 . S
H710 C706 0.930 . S
H711 C708 0.929 . S
S712 N713 1.613 . S
S712 N714 1.610 . S
N713 S712 1.613 . S
N713 C716 1.350 . S
N714 S712 1.610 . S
N714 C715 1.351 . S
C715 C709 1.428 . S
C715 N714 1.351 . S
C715 C716 1.434 . S
C716 C707 1.429 . S
C716 N713 1.350 . S
C716 C715 1.434 . S
C717 C718 1.369 . S
C717 C719 1.419 . S
C717 H721 0.930 . S
C718 C717 1.369 . S
C718 C727 1.429 . S
C719 C717 1.419 . S
C719 C720 1.363 . S
C719 H722 0.929 . S
C720 C719 1.363 . S
C720 C726 1.428 . S
H721 C717 0.930 . S
H722 C719 0.929 . S
S723 N724 1.613 . S
S723 N725 1.610 . S
N724 S723 1.613 . S
N724 C727 1.350 . S
N725 S723 1.610 . S
N725 C726 1.351 . S
C726 C720 1.428 . S
C726 N725 1.351 . S
C726 C727 1.434 . S
C727 C718 1.429 . S
C727 N724 1.350 . S
C727 C726 1.434 . S
C728 C729 1.369 . S
C728 C730 1.419 . S
C728 H732 0.930 . S
C729 C728 1.369 . S
C729 C738 1.429 . S
C730 C728 1.419 . S
C730 C731 1.363 . S
C730 H733 0.929 . S
C731 C730 1.363 . S
C731 C737 1.428 . S
H732 C728 0.930 . S
H733 C730 0.929 . S
S734 N735 1.613 . S
S734 N736 1.610 . S
N735 S734 1.613 . S
N735 C738 1.350 . S
N736 S734 1.610 . S
N736 C737 1.351 . S
C737 C731 1.428 . S
C737 N736 1.351 . S
C737 C738 1.434 . S
C738 C729 1.429 . S
C738 N735 1.350 . S
C738 C737 1.434 . S
C739 C740 1.369 . S
C739 C741 1.419 . S
C739 H743 0.930 . S
C740 C739 1.369 . S
C740 C749 1.429 . S
C741 C739 1.419 . S
C741 C742 1.363 . S
C741 H744 0.929 . S
C742 C741 1.363 . S
C742 C748 1.428 . S
H743 C739 0.930 . S
H744 C741 0.929 . S
S745 N746 1.613 . S
S745 N747 1.610 . S
N746 S745 1.613 . S
N746 C749 1.350 . S
N747 S745 1.610 . S
N747 C748 1.351 . S
C748 C742 1.428 . S
C748 N747 1.351 . S
C748 C749 1.434 . S
C749 C740 1.429 . S
C749 N746 1.350 . S
C749 C748 1.434 . S
C750 C751 1.369 . S
C750 C752 1.419 . S
C750 H754 0.930 . S
C751 C750 1.369 . S
C751 C760 1.429 . S
C752 C750 1.419 . S
C752 C753 1.363 . S
C752 H755 0.929 . S
C753 C752 1.363 . S
C753 C759 1.428 . S
H754 C750 0.930 . S
H755 C752 0.929 . S
S756 N757 1.613 1_556 S
S756 N758 1.610 . S
N757 S756 1.613 1_554 S
N757 C760 1.350 1_554 S
N758 S756 1.610 . S
N758 C759 1.351 . S
C759 C753 1.428 . S
C759 N758 1.351 . S
C759 C760 1.434 . S
C760 C751 1.429 . S
C760 N757 1.350 1_556 S
C760 C759 1.434 . S
C761 C762 1.369 . S
C761 C763 1.419 . S
C761 H765 0.930 . S
C762 C761 1.369 . S
C762 C771 1.429 . S
C763 C761 1.419 . S
C763 C764 1.363 . S
C763 H766 0.929 . S
C764 C763 1.363 . S
C764 C770 1.428 . S
H765 C761 0.930 . S
H766 C763 0.929 . S
S767 N768 1.613 . S
S767 N769 1.610 . S
N768 S767 1.613 . S
N768 C771 1.350 . S
N769 S767 1.610 . S
N769 C770 1.351 . S
C770 C764 1.428 . S
C770 N769 1.351 . S
C770 C771 1.434 . S
C771 C762 1.429 . S
C771 N768 1.350 . S
C771 C770 1.434 . S
C772 C773 1.369 . S
C772 C774 1.419 . S
C772 H776 0.930 . S
C773 C772 1.369 . S
C773 C782 1.429 . S
C774 C772 1.419 . S
C774 C775 1.363 . S
C774 H777 0.929 . S
C775 C774 1.363 . S
C775 C781 1.428 . S
H776 C772 0.930 . S
H777 C774 0.929 . S
S778 N779 1.613 . S
S778 N780 1.610 . S
N779 S778 1.613 . S
N779 C782 1.350 . S
N780 S778 1.610 . S
N780 C781 1.351 . S
C781 C775 1.428 . S
C781 N780 1.351 . S
C781 C782 1.434 . S
C782 C773 1.429 . S
C782 N779 1.350 . S
C782 C781 1.434 . S
C783 C784 1.369 . S
C783 C785 1.419 . S
C783 H787 0.930 . S
C784 C783 1.369 . S
C784 C793 1.429 . S
C785 C783 1.419 . S
C785 C786 1.363 . S
C785 H788 0.929 . S
C786 C785 1.363 . S
C786 C792 1.428 . S
H787 C783 0.930 . S
H788 C785 0.929 . S
S789 N790 1.613 . S
S789 N791 1.610 . S
N790 S789 1.613 . S
N790 C793 1.350 . S
N791 S789 1.610 . S
N791 C792 1.351 . S
C792 C786 1.428 . S
C792 N791 1.351 . S
C792 C793 1.434 . S
C793 C784 1.429 . S
C793 N790 1.350 . S
C793 C792 1.434 . S
C794 C795 1.369 . S
C794 C796 1.419 . S
C794 H798 0.930 . S
C795 C794 1.369 . S
C795 C804 1.429 . S
C796 C794 1.419 . S
C796 C797 1.363 . S
C796 H799 0.929 . S
C797 C796 1.363 . S
C797 C803 1.428 . S
H798 C794 0.930 . S
H799 C796 0.929 . S
S800 N801 1.613 . S
S800 N802 1.610 . S
N801 S800 1.613 . S
N801 C804 1.350 . S
N802 S800 1.610 . S
N802 C803 1.351 . S
C803 C797 1.428 . S
C803 N802 1.351 . S
C803 C804 1.434 . S
C804 C795 1.429 . S
C804 N801 1.350 . S
C804 C803 1.434 . S
C805 C806 1.369 . S
C805 C807 1.419 . S
C805 H809 0.930 . S
C806 C805 1.369 . S
C806 C815 1.429 . S
C807 C805 1.419 . S
C807 C808 1.363 . S
C807 H810 0.929 . S
C808 C807 1.363 . S
C808 C814 1.428 . S
H809 C805 0.930 . S
H810 C807 0.929 . S
S811 N812 1.613 . S
S811 N813 1.610 . S
N812 S811 1.613 . S
N812 C815 1.350 . S
N813 S811 1.610 . S
N813 C814 1.351 . S
C814 C808 1.428 . S
C814 N813 1.351 . S
C814 C815 1.434 . S
C815 C806 1.429 . S
C815 N812 1.350 . S
C815 C814 1.434 . S
C816 C817 1.369 . S
C816 C818 1.419 . S
C816 H820 0.930 . S
C817 C816 1.369 . S
C817 C826 1.429 . S
C818 C816 1.419 . S
C818 C819 1.363 . S
C818 H821 0.929 . S
C819 C818 1.363 . S
C819 C825 1.428 . S
H820 C816 0.930 . S
H821 C818 0.929 . S
S822 N823 1.613 . S
S822 N824 1.610 . S
N823 S822 1.613 . S
N823 C826 1.350 . S
N824 S822 1.610 . S
N824 C825 1.351 . S
C825 C819 1.428 . S
C825 N824 1.351 . S
C825 C826 1.434 . S
C826 C817 1.429 . S
C826 N823 1.350 . S
C826 C825 1.434 . S
C827 C828 1.369 . S
C827 C829 1.419 . S
C827 H831 0.930 . S
C828 C827 1.369 . S
C828 C837 1.429 . S
C829 C827 1.419 . S
C829 C830 1.363 . S
C829 H832 0.929 . S
C830 C829 1.363 . S
C830 C836 1.428 . S
H831 C827 0.930 . S
H832 C829 0.929 . S
S833 N834 1.613 . S
S833 N835 1.610 . S
N834 S833 1.613 . S
N834 C837 1.350 . S
N835 S833 1.610 . S
N835 C836 1.351 . S
C836 C830 1.428 . S
C836 N835 1.351 . S
C836 C837 1.434 . S
C837 C828 1.429 . S
C837 N834 1.350 . S
C837 C836 1.434 . S
C838 C839 1.369 . S
C838 C840 1.419 . S
C838 H842 0.930 . S
C839 C838 1.369 . S
C839 C848 1.429 . S
C840 C838 1.419 . S
C840 C841 1.363 . S
C840 H843 0.929 . S
C841 C840 1.363 . S
C841 C847 1.428 . S
H842 C838 0.930 . S
H843 C840 0.929 . S
S844 N845 1.613 . S
S844 N846 1.610 . S
N845 S844 1.613 . S
N845 C848 1.350 . S
N846 S844 1.610 . S
N846 C847 1.351 . S
C847 C841 1.428 . S
C847 N846 1.351 . S
C847 C848 1.434 . S
C848 C839 1.429 . S
C848 N845 1.350 . S
C848 C847 1.434 . S
C849 C850 1.369 . S
C849 C851 1.419 1_655 S
C849 H853 0.930 . S
C850 C849 1.369 . S
C850 C859 1.429 . S
C851 C849 1.419 1_455 S
C851 C852 1.363 . S
C851 H854 0.929 . S
C852 C851 1.363 . S
C852 C858 1.428 . S
H853 C849 0.930 . S
H854 C851 0.929 . S
S855 N856 1.613 . S
S855 N857 1.610 1_655 S
N856 S855 1.613 . S
N856 C859 1.350 . S
N857 S855 1.610 1_455 S
N857 C858 1.351 . S
C858 C852 1.428 . S
C858 N857 1.351 . S
C858 C859 1.434 1_455 S
C859 C850 1.429 . S
C859 N856 1.350 . S
C859 C858 1.434 1_655 S
C860 C861 1.369 . S
C860 C862 1.419 . S
C860 H864 0.930 . S
C861 C860 1.369 . S
C861 C870 1.429 . S
C862 C860 1.419 . S
C862 C863 1.363 . S
C862 H865 0.929 . S
C863 C862 1.363 . S
C863 C869 1.428 . S
H864 C860 0.930 . S
H865 C862 0.929 . S
S866 N867 1.613 . S
S866 N868 1.610 . S
N867 S866 1.613 . S
N867 C870 1.350 . S
N868 S866 1.610 . S
N868 C869 1.351 . S
C869 C863 1.428 . S
C869 N868 1.351 . S
C869 C870 1.434 . S
C870 C861 1.429 . S
C870 N867 1.350 . S
C870 C869 1.434 . S
C871 C872 1.369 . S
C871 C873 1.419 1_455 S
C871 H875 0.930 . S
C872 C871 1.369 . S
C872 C881 1.429 . S
C873 C871 1.419 1_655 S
C873 C874 1.363 . S
C873 H876 0.929 . S
C874 C873 1.363 . S
C874 C880 1.428 . S
H875 C871 0.930 . S
H876 C873 0.929 . S
S877 N878 1.613 . S
S877 N879 1.610 1_455 S
N878 S877 1.613 . S
N878 C881 1.350 1_556 S
N879 S877 1.610 1_655 S
N879 C880 1.351 1_556 S
C880 C874 1.428 . S
C880 N879 1.351 1_554 S
C880 C881 1.434 1_655 S
C881 C872 1.429 . S
C881 N878 1.350 1_554 S
C881 C880 1.434 1_455 S
C882 C883 1.369 . S
C882 C884 1.419 . S
C882 H886 0.930 . S
C883 C882 1.369 . S
C883 C892 1.429 . S
C884 C882 1.419 . S
C884 C885 1.363 . S
C884 H887 0.929 . S
C885 C884 1.363 . S
C885 C891 1.428 . S
H886 C882 0.930 . S
H887 C884 0.929 . S
S888 N889 1.613 . S
S888 N890 1.610 . S
N889 S888 1.613 . S
N889 C892 1.350 . S
N890 S888 1.610 . S
N890 C891 1.351 . S
C891 C885 1.428 . S
C891 N890 1.351 . S
C891 C892 1.434 . S
C892 C883 1.429 . S
C892 N889 1.350 . S
C892 C891 1.434 . S
C893 C894 1.369 . S
C893 C895 1.419 . S
C893 H897 0.930 . S
C894 C893 1.369 . S
C894 C903 1.429 . S
C895 C893 1.419 . S
C895 C896 1.363 . S
C895 H898 0.929 . S
C896 C895 1.363 . S
C896 C902 1.428 . S
H897 C893 0.930 . S
H898 C895 0.929 . S
S899 N900 1.613 . S
S899 N901 1.610 . S
N900 S899 1.613 . S
N900 C903 1.350 . S
N901 S899 1.610 . S
N901 C902 1.351 . S
C902 C896 1.428 . S
C902 N901 1.351 . S
C902 C903 1.434 . S
C903 C894 1.429 . S
C903 N900 1.350 . S
C903 C902 1.434 . S
C904 C905 1.369 . S
C904 C906 1.419 . S
C904 H908 0.930 . S
C905 C904 1.369 . S
C905 C914 1.429 . S
C906 C904 1.419 . S
C906 C907 1.363 . S
C906 H909 0.929 . S
C907 C906 1.363 . S
C907 C913 1.428 . S
H908 C904 0.930 . S
H909 C906 0.929 . S
S910 N911 1.613 . S
S910 N912 1.610 . S
N911 S910 1.613 . S
N911 C914 1.350 . S
N912 S910 1.610 . S
N912 C913 1.351 . S
C913 C907 1.428 . S
C913 N912 1.351 . S
C913 C914 1.434 . S
C914 C905 1.429 . S
C914 N911 1.350 . S
C914 C913 1.434 . S
C915 C916 1.369 . S
C915 C917 1.419 . S
C915 H919 0.930 . S
C916 C915 1.369 . S
C916 C925 1.429 . S
C917 C915 1.419 . S
C917 C918 1.363 . S
C917 H920 0.929 . S
C918 C917 1.363 . S
C918 C924 1.428 . S
H919 C915 0.930 . S
H920 C917 0.929 . S
S921 N922 1.613 . S
S921 N923 1.610 . S
N922 S921 1.613 . S
N922 C925 1.350 . S
N923 S921 1.610 . S
N923 C924 1.351 . S
C924 C918 1.428 . S
C924 N923 1.351 . S
C924 C925 1.434 . S
C925 C916 1.429 . S
C925 N922 1.350 . S
C925 C924 1.434 . S
C926 C927 1.369 . S
C926 C928 1.419 . S
C926 H930 0.930 . S
C927 C926 1.369 . S
C927 C936 1.429 . S
C928 C926 1.419 . S
C928 C929 1.363 . S
C928 H931 0.929 . S
C929 C928 1.363 . S
C929 C935 1.428 . S
H930 C926 0.930 . S
H931 C928 0.929 . S
S932 N933 1.613 . S
S932 N934 1.610 . S
N933 S932 1.613 . S
N933 C936 1.350 . S
N934 S932 1.610 . S
N934 C935 1.351 . S
C935 C929 1.428 . S
C935 N934 1.351 . S
C935 C936 1.434 . S
C936 C927 1.429 . S
C936 N933 1.350 . S
C936 C935 1.434 . S
C937 C938 1.369 . S
C937 C939 1.419 . S
C937 H941 0.930 . S
C938 C937 1.369 . S
C938 C947 1.429 . S
C939 C937 1.419 . S
C939 C940 1.363 . S
C939 H942 0.929 . S
C940 C939 1.363 . S
C940 C946 1.428 . S
H941 C937 0.930 . S
H942 C939 0.929 . S
S943 N944 1.613 . S
S943 N945 1.610 . S
N944 S943 1.613 . S
N944 C947 1.350 . S
N945 S943 1.610 . S
N945 C946 1.351 . S
C946 C940 1.428 . S
C946 N945 1.351 . S
C946 C947 1.434 . S
C947 C938 1.429 . S
C947 N944 1.350 . S
C947 C946 1.434 . S
C948 C949 1.369 . S
C948 C950 1.419 1_655 S
C948 H952 0.930 . S
C949 C948 1.369 . S
C949 C958 1.429 . S
C950 C948 1.419 1_455 S
C950 C951 1.363 . S
C950 H953 0.929 . S
C951 C950 1.363 . S
C951 C957 1.428 . S
H952 C948 0.930 . S
H953 C950 0.929 . S
S954 N955 1.613 1_455 S
S954 N956 1.610 . S
N955 S954 1.613 1_655 S
N955 C958 1.350 1_554 S
N956 S954 1.610 . S
N956 C957 1.351 1_554 S
C957 C951 1.428 . S
C957 N956 1.351 1_556 S
C957 C958 1.434 1_455 S
C958 C949 1.429 . S
C958 N955 1.350 1_556 S
C958 C957 1.434 1_655 S
C959 C960 1.369 . S
C959 C961 1.419 . S
C959 H963 0.930 . S
C960 C959 1.369 . S
C960 C969 1.429 . S
C961 C959 1.419 . S
C961 C962 1.363 . S
C961 H964 0.929 . S
C962 C961 1.363 . S
C962 C968 1.428 . S
H963 C959 0.930 . S
H964 C961 0.929 . S
S965 N966 1.613 . S
S965 N967 1.610 . S
N966 S965 1.613 . S
N966 C969 1.350 . S
N967 S965 1.610 . S
N967 C968 1.351 . S
C968 C962 1.428 . S
C968 N967 1.351 . S
C968 C969 1.434 . S
C969 C960 1.429 . S
C969 N966 1.350 . S
C969 C968 1.434 . S
C970 C971 1.369 . S
C970 C972 1.419 . S
C970 H974 0.930 . S
C971 C970 1.369 . S
C971 C980 1.429 . S
C972 C970 1.419 . S
C972 C973 1.363 . S
C972 H975 0.929 . S
C973 C972 1.363 . S
C973 C979 1.428 . S
H974 C970 0.930 . S
H975 C972 0.929 . S
S976 N977 1.613 . S
S976 N978 1.610 . S
N977 S976 1.613 . S
N977 C980 1.350 . S
N978 S976 1.610 . S
N978 C979 1.351 . S
C979 C973 1.428 . S
C979 N978 1.351 . S
C979 C980 1.434 . S
C980 C971 1.429 . S
C980 N977 1.350 . S
C980 C979 1.434 . S
C981 C982 1.369 . S
C981 C983 1.419 1_455 S
C981 H985 0.930 1_554 S
C982 C981 1.369 . S
C982 C991 1.429 . S
C983 C981 1.419 1_655 S
C983 C984 1.363 . S
C983 H986 0.929 1_554 S
C984 C983 1.363 . S
C984 C990 1.428 . S
H985 C981 0.930 1_556 S
H986 C983 0.929 1_556 S
S987 N988 1.613 . S
S987 N989 1.610 1_455 S
N988 S987 1.613 . S
N988 C991 1.350 . S
N989 S987 1.610 1_655 S
N989 C990 1.351 . S
C990 C984 1.428 . S
C990 N989 1.351 . S
C990 C991 1.434 1_655 S
C991 C982 1.429 . S
C991 N988 1.350 . S
C991 C990 1.434 1_455 S
C992 C993 1.369 . S
C992 C994 1.419 . S
C992 H996 0.930 . S
C993 C992 1.369 . S
C993 C1002 1.429 1_556 S
C994 C992 1.419 . S
C994 C995 1.363 . S
C994 H997 0.929 . S
C995 C994 1.363 . S
C995 C1001 1.428 . S
H996 C992 0.930 . S
H997 C994 0.929 . S
S998 N999 1.613 . S
S998 N1000 1.610 1_554 S
N999 S998 1.613 . S
N999 C1002 1.350 . S
N1000 S998 1.610 1_556 S
N1000 C1001 1.351 . S
C1001 C995 1.428 . S
C1001 N1000 1.351 . S
C1001 C1002 1.434 1_556 S
C1002 C993 1.429 1_554 S
C1002 N999 1.350 . S
C1002 C1001 1.434 1_554 S
C1003 C1004 1.369 . S
C1003 C1005 1.419 . S
C1003 H1007 0.930 . S
C1004 C1003 1.369 . S
C1004 C1013 1.429 . S
C1005 C1003 1.419 . S
C1005 C1006 1.363 . S
C1005 H1008 0.929 . S
C1006 C1005 1.363 . S
C1006 C1012 1.428 . S
H1007 C1003 0.930 . S
H1008 C1005 0.929 . S
S1009 N1010 1.613 . S
S1009 N1011 1.610 . S
N1010 S1009 1.613 . S
N1010 C1013 1.350 . S
N1011 S1009 1.610 . S
N1011 C1012 1.351 . S
C1012 C1006 1.428 . S
C1012 N1011 1.351 . S
C1012 C1013 1.434 . S
C1013 C1004 1.429 . S
C1013 N1010 1.350 . S
C1013 C1012 1.434 . S
C1014 C1015 1.369 . S
C1014 C1016 1.419 . S
C1014 H1018 0.930 . S
C1015 C1014 1.369 . S
C1015 C1024 1.429 . S
C1016 C1014 1.419 . S
C1016 C1017 1.363 . S
C1016 H1019 0.929 . S
C1017 C1016 1.363 . S
C1017 C1023 1.428 . S
H1018 C1014 0.930 . S
H1019 C1016 0.929 . S
S1020 N1021 1.613 . S
S1020 N1022 1.610 . S
N1021 S1020 1.613 . S
N1021 C1024 1.350 . S
N1022 S1020 1.610 . S
N1022 C1023 1.351 . S
C1023 C1017 1.428 . S
C1023 N1022 1.351 . S
C1023 C1024 1.434 . S
C1024 C1015 1.429 . S
C1024 N1021 1.350 . S
C1024 C1023 1.434 . S
C1025 C1026 1.369 . S
C1025 C1027 1.419 . S
C1025 H1029 0.930 . S
C1026 C1025 1.369 . S
C1026 C1035 1.429 . S
C1027 C1025 1.419 . S
C1027 C1028 1.363 . S
C1027 H1030 0.929 . S
C1028 C1027 1.363 . S
C1028 C1034 1.428 . S
H1029 C1025 0.930 . S
H1030 C1027 0.929 . S
S1031 N1032 1.613 . S
S1031 N1033 1.610 . S
N1032 S1031 1.613 . S
N1032 C1035 1.350 . S
N1033 S1031 1.610 . S
N1033 C1034 1.351 . S
C1034 C1028 1.428 . S
C1034 N1033 1.351 . S
C1034 C1035 1.434 . S
C1035 C1026 1.429 . S
C1035 N1032 1.350 . S
C1035 C1034 1.434 . S
C1036 C1037 1.369 . S
C1036 C1038 1.419 . S
C1036 H1040 0.930 . S
C1037 C1036 1.369 . S
C1037 C1046 1.429 . S
C1038 C1036 1.419 . S
C1038 C1039 1.363 . S
C1038 H1041 0.929 . S
C1039 C1038 1.363 . S
C1039 C1045 1.428 1_554 S
H1040 C1036 0.930 . S
H1041 C1038 0.929 . S
S1042 N1043 1.613 1_556 S
S1042 N1044 1.610 . S
N1043 S1042 1.613 1_554 S
N1043 C1046 1.350 . S
N1044 S1042 1.610 . S
N1044 C1045 1.351 . S
C1045 C1039 1.428 1_556 S
C1045 N1044 1.351 . S
C1045 C1046 1.434 1_556 S
C1046 C1037 1.429 . S
C1046 N1043 1.350 . S
C1046 C1045 1.434 1_554 S
C1047 C1048 1.369 . S
C1047 C1049 1.419 . S
C1047 H1051 0.930 . S
C1048 C1047 1.369 . S
C1048 C1057 1.429 . S
C1049 C1047 1.419 . S
C1049 C1050 1.363 . S
C1049 H1052 0.929 . S
C1050 C1049 1.363 . S
C1050 C1056 1.428 . S
H1051 C1047 0.930 . S
H1052 C1049 0.929 . S
S1053 N1054 1.613 . S
S1053 N1055 1.610 . S
N1054 S1053 1.613 . S
N1054 C1057 1.350 . S
N1055 S1053 1.610 . S
N1055 C1056 1.351 . S
C1056 C1050 1.428 . S
C1056 N1055 1.351 . S
C1056 C1057 1.434 . S
C1057 C1048 1.429 . S
C1057 N1054 1.350 . S
C1057 C1056 1.434 . S
C1058 C1059 1.369 . S
C1058 C1060 1.419 . S
C1058 H1062 0.930 . S
C1059 C1058 1.369 . S
C1059 C1068 1.429 . S
C1060 C1058 1.419 . S
C1060 C1061 1.363 . S
C1060 H1063 0.929 . S
C1061 C1060 1.363 . S
C1061 C1067 1.428 . S
H1062 C1058 0.930 . S
H1063 C1060 0.929 . S
S1064 N1065 1.613 . S
S1064 N1066 1.610 . S
N1065 S1064 1.613 . S
N1065 C1068 1.350 . S
N1066 S1064 1.610 . S
N1066 C1067 1.351 . S
C1067 C1061 1.428 . S
C1067 N1066 1.351 . S
C1067 C1068 1.434 . S
C1068 C1059 1.429 . S
C1068 N1065 1.350 . S
C1068 C1067 1.434 . S
C1069 C1070 1.369 . S
C1069 C1071 1.419 . S
C1069 H1073 0.930 . S
C1070 C1069 1.369 . S
C1070 C1079 1.429 . S
C1071 C1069 1.419 . S
C1071 C1072 1.363 . S
C1071 H1074 0.929 . S
C1072 C1071 1.363 . S
C1072 C1078 1.428 . S
H1073 C1069 0.930 . S
H1074 C1071 0.929 . S
S1075 N1076 1.613 . S
S1075 N1077 1.610 . S
N1076 S1075 1.613 . S
N1076 C1079 1.350 . S
N1077 S1075 1.610 . S
N1077 C1078 1.351 . S
C1078 C1072 1.428 . S
C1078 N1077 1.351 . S
C1078 C1079 1.434 . S
C1079 C1070 1.429 . S
C1079 N1076 1.350 . S
C1079 C1078 1.434 . S
C1080 C1081 1.369 . S
C1080 C1082 1.419 . S
C1080 H1084 0.930 . S
C1081 C1080 1.369 . S
C1081 C1090 1.429 1_565 S
C1082 C1080 1.419 . S
C1082 C1083 1.363 1_565 S
C1082 H1085 0.929 . S
C1083 C1082 1.363 1_545 S
C1083 C1089 1.428 . S
H1084 C1080 0.930 . S
H1085 C1082 0.929 . S
S1086 N1087 1.613 . S
S1086 N1088 1.610 . S
N1087 S1086 1.613 . S
N1087 C1090 1.350 . S
N1088 S1086 1.610 . S
N1088 C1089 1.351 . S
C1089 C1083 1.428 . S
C1089 N1088 1.351 . S
C1089 C1090 1.434 . S
C1090 C1081 1.429 1_545 S
C1090 N1087 1.350 . S
C1090 C1089 1.434 . S
C1091 C1092 1.369 . S
C1091 C1093 1.419 . S
C1091 H1095 0.930 . S
C1092 C1091 1.369 . S
C1092 C1101 1.429 . S
C1093 C1091 1.419 . S
C1093 C1094 1.363 . S
C1093 H1096 0.929 . S
C1094 C1093 1.363 . S
C1094 C1100 1.428 . S
H1095 C1091 0.930 . S
H1096 C1093 0.929 . S
S1097 N1098 1.613 . S
S1097 N1099 1.610 . S
N1098 S1097 1.613 . S
N1098 C1101 1.350 . S
N1099 S1097 1.610 . S
N1099 C1100 1.351 . S
C1100 C1094 1.428 . S
C1100 N1099 1.351 . S
C1100 C1101 1.434 . S
C1101 C1092 1.429 . S
C1101 N1098 1.350 . S
C1101 C1100 1.434 . S
C1102 C1103 1.369 1_556 S
C1102 C1104 1.419 . S
C1102 H1106 0.930 . S
C1103 C1102 1.369 1_554 S
C1103 C1112 1.429 . S
C1104 C1102 1.419 . S
C1104 C1105 1.363 1_565 S
C1104 H1107 0.929 . S
C1105 C1104 1.363 1_545 S
C1105 C1111 1.428 . S
H1106 C1102 0.930 . S
H1107 C1104 0.929 . S
S1108 N1109 1.613 1_545 S
S1108 N1110 1.610 1_554 S
N1109 S1108 1.613 1_565 S
N1109 C1112 1.350 . S
N1110 S1108 1.610 1_556 S
N1110 C1111 1.351 . S
C1111 C1105 1.428 . S
C1111 N1110 1.351 . S
C1111 C1112 1.434 1_546 S
C1112 C1103 1.429 . S
C1112 N1109 1.350 . S
C1112 C1111 1.434 1_564 S
C1113 C1114 1.369 . S
C1113 C1115 1.419 . S
C1113 H1117 0.930 . S
C1114 C1113 1.369 . S
C1114 C1123 1.429 . S
C1115 C1113 1.419 . S
C1115 C1116 1.363 . S
C1115 H1118 0.929 . S
C1116 C1115 1.363 . S
C1116 C1122 1.428 . S
H1117 C1113 0.930 . S
H1118 C1115 0.929 . S
S1119 N1120 1.613 . S
S1119 N1121 1.610 . S
N1120 S1119 1.613 . S
N1120 C1123 1.350 . S
N1121 S1119 1.610 . S
N1121 C1122 1.351 . S
C1122 C1116 1.428 . S
C1122 N1121 1.351 . S
C1122 C1123 1.434 . S
C1123 C1114 1.429 . S
C1123 N1120 1.350 . S
C1123 C1122 1.434 . S
C1124 C1125 1.369 . S
C1124 C1126 1.419 1_565 S
C1124 H1128 0.929 1_565 S
C1125 C1124 1.369 . S
C1125 C1134 1.429 . S
C1126 C1124 1.419 1_545 S
C1126 C1127 1.363 . S
C1126 H1129 0.929 . S
C1127 C1126 1.363 . S
C1127 C1133 1.428 1_545 S
H1128 C1124 0.929 1_545 S
H1129 C1126 0.929 . S
S1130 N1131 1.613 . S
S1130 N1132 1.610 . S
N1131 S1130 1.613 . S
N1131 C1134 1.350 . S
N1132 S1130 1.610 . S
N1132 C1133 1.351 . S
C1133 C1127 1.428 1_565 S
C1133 N1132 1.351 . S
C1133 C1134 1.434 . S
C1134 C1125 1.429 . S
C1134 N1131 1.350 . S
C1134 C1133 1.434 . S
C1135 C1136 1.369 . S
C1135 C1137 1.419 . S
C1135 H1139 0.930 . S
C1136 C1135 1.369 . S
C1136 C1145 1.429 . S
C1137 C1135 1.419 . S
C1137 C1138 1.363 . S
C1137 H1140 0.929 . S
C1138 C1137 1.363 . S
C1138 C1144 1.428 . S
H1139 C1135 0.930 . S
H1140 C1137 0.929 . S
S1141 N1142 1.613 . S
S1141 N1143 1.610 . S
N1142 S1141 1.613 . S
N1142 C1145 1.350 . S
N1143 S1141 1.610 . S
N1143 C1144 1.351 . S
C1144 C1138 1.428 . S
C1144 N1143 1.351 . S
C1144 C1145 1.434 . S
C1145 C1136 1.429 . S
C1145 N1142 1.350 . S
C1145 C1144 1.434 . S
C1146 C1147 1.369 . S
C1146 C1148 1.419 1_546 S
C1146 H1150 0.930 . S
C1147 C1146 1.369 . S
C1147 C1156 1.429 . S
C1148 C1146 1.419 1_564 S
C1148 C1149 1.363 . S
C1148 H1151 0.929 . S
C1149 C1148 1.363 . S
C1149 C1155 1.428 . S
H1150 C1146 0.930 . S
H1151 C1148 0.929 . S
S1152 N1153 1.613 1_564 S
S1152 N1154 1.610 . S
N1153 S1152 1.613 1_546 S
N1153 C1156 1.350 . S
N1154 S1152 1.610 . S
N1154 C1155 1.351 . S
C1155 C1149 1.428 . S
C1155 N1154 1.351 . S
C1155 C1156 1.434 1_564 S
C1156 C1147 1.429 . S
C1156 N1153 1.350 . S
C1156 C1155 1.434 1_546 S
C1157 C1158 1.369 . S
C1157 C1159 1.419 . S
C1157 H1161 0.930 . S
C1158 C1157 1.369 . S
C1158 C1167 1.429 . S
C1159 C1157 1.419 . S
C1159 C1160 1.363 . S
C1159 H1162 0.929 . S
C1160 C1159 1.363 . S
C1160 C1166 1.428 . S
H1161 C1157 0.930 . S
H1162 C1159 0.929 . S
S1163 N1164 1.613 . S
S1163 N1165 1.610 . S
N1164 S1163 1.613 . S
N1164 C1167 1.350 . S
N1165 S1163 1.610 . S
N1165 C1166 1.351 . S
C1166 C1160 1.428 . S
C1166 N1165 1.351 . S
C1166 C1167 1.434 . S
C1167 C1158 1.429 . S
C1167 N1164 1.350 . S
C1167 C1166 1.434 . S
C641 C17 1.510 . S
C643 C26 1.516 . S
C652 C57 1.448 . S
C654 C66 1.452 . S
C663 C97 1.589 . S
C665 C106 1.586 1_554 S
C674 C137 1.548 . S
C676 C146 1.555 . S
C685 C186 1.404 . S
C687 C177 1.409 . S
C696 C226 1.574 . S
C698 C217 1.582 . S
C707 C266 1.505 . S
C709 C257 1.509 . S
C718 C306 1.454 1_554 S
C720 C297 1.447 . S
C729 C346 1.512 . S
C731 C337 1.515 . S
C740 C377 1.453 . S
C742 C386 1.448 . S
C751 C417 1.583 1_556 S
C753 C426 1.590 . S
C762 C466 1.550 . S
C764 C457 1.554 . S
C773 C497 1.410 . S
C775 C506 1.405 . S
C784 C546 1.583 . S
C786 C537 1.575 . S
C795 C577 1.507 . S
C797 C586 1.508 . S
C806 C617 1.454 1_556 S
C808 C626 1.447 . S
C817 C13 1.649 . S
C819 C463 1.581 . S
C828 C53 1.781 . S
C830 C623 1.700 . S
C839 C93 1.731 . S
C841 C383 1.687 . S
C850 C133 1.836 . S
C852 C544 1.822 . S
C861 C162 1.598 . S
C863 C543 1.683 . S
C872 C464 1.840 . S
C874 C213 1.825 . S
C883 C242 1.643 . S
C885 C624 1.756 . S
C894 C282 1.702 . S
C896 C384 1.783 . S
C905 C122 1.581 . S
C907 C344 1.652 . S
C916 C42 1.688 . S
C918 C424 1.731 . S
C927 C503 1.593 . S
C929 C202 1.681 . S
C938 C293 1.757 . S
C940 C583 1.642 . S
C949 C343 1.699 . S
C951 C173 1.811 . S
C960 C253 1.758 . S
C962 C423 1.668 . S
C971 C82 1.667 . S
C973 C584 1.757 . S
C982 C2 1.690 . S
C984 C504 1.808 . S
C993 C24 1.795 1_556 S
C995 C183 1.811 . S
C1004 C64 1.818 . S
C1006 C224 1.803 . S
C1015 C104 1.832 . S
C1017 C263 1.845 . S
C1026 C144 1.873 . S
C1028 C303 1.910 . S
C1037 C482 1.811 . S
C1039 C333 1.795 1_554 S
C1048 C533 1.800 . S
C1050 C373 1.822 . S
C1059 C413 1.828 . S
C1061 C562 1.847 . S
C1070 C602 1.907 . S
C1072 C453 1.879 . S
C1081 C63 1.925 . S
C1083 C304 1.902 . S
C1092 C184 2.032 . S
C1094 C103 2.054 . S
C1103 C223 1.701 . S
C1105 C143 1.698 . S
C1114 C23 1.800 . S
C1116 C264 1.784 . S
C1125 C613 1.901 . S
C1127 C362 1.925 . S
C1136 C493 2.030 . S
C1138 C402 2.055 . S
C1147 C522 1.701 . S
C1149 C442 1.698 . S
C1158 C573 1.783 . S
C1160 C322 1.801 . S
