# Generated by pormake.
# Topology una, (4)-cn, num edge types: 1
# Building blocks:
#     Node 0, Type 0, BuildingBlock: KUFVIS_clean_sbu_0, # of connection points: 4
#     Node 1, Type 0, BuildingBlock: KUFVIS_clean_sbu_0, # of connection points: 4
#     Node 2, Type 0, BuildingBlock: KUFVIS_clean_sbu_0, # of connection points: 4
#     Node 3, Type 0, BuildingBlock: KUFVIS_clean_sbu_0, # of connection points: 4
#     Node 4, Type 0, BuildingBlock: KUFVIS_clean_sbu_0, # of connection points: 4
#     Node 5, Type 0, BuildingBlock: KUFVIS_clean_sbu_0, # of connection points: 4
#     Node 6, Type 0, BuildingBlock: KUFVIS_clean_sbu_0, # of connection points: 4
#     Node 7, Type 0, BuildingBlock: KUFVIS_clean_sbu_0, # of connection points: 4
#     Node 8, Type 0, BuildingBlock: KUFVIS_clean_sbu_0, # of connection points: 4
#     Node 9, Type 0, BuildingBlock: KUFVIS_clean_sbu_0, # of connection points: 4
#     Node 10, Type 0, BuildingBlock: KUFVIS_clean_sbu_0, # of connection points: 4
#     Node 11, Type 0, BuildingBlock: KUFVIS_clean_sbu_0, # of connection points: 4
#     Edge 12, Type (0, 0), BuildingBlock: XUDNAN_clean_linker_2, # of connection points: 2
#     Edge 13, Type (0, 0), BuildingBlock: XUDNAN_clean_linker_2, # of connection points: 2
#     Edge 14, Type (0, 0), BuildingBlock: XUDNAN_clean_linker_2, # of connection points: 2
#     Edge 15, Type (0, 0), BuildingBlock: XUDNAN_clean_linker_2, # of connection points: 2
#     Edge 16, Type (0, 0), BuildingBlock: XUDNAN_clean_linker_2, # of connection points: 2
#     Edge 17, Type (0, 0), BuildingBlock: XUDNAN_clean_linker_2, # of connection points: 2
#     Edge 18, Type (0, 0), BuildingBlock: XUDNAN_clean_linker_2, # of connection points: 2
#     Edge 19, Type (0, 0), BuildingBlock: XUDNAN_clean_linker_2, # of connection points: 2
#     Edge 20, Type (0, 0), BuildingBlock: XUDNAN_clean_linker_2, # of connection points: 2
#     Edge 21, Type (0, 0), BuildingBlock: XUDNAN_clean_linker_2, # of connection points: 2
#     Edge 22, Type (0, 0), BuildingBlock: XUDNAN_clean_linker_2, # of connection points: 2
#     Edge 23, Type (0, 0), BuildingBlock: XUDNAN_clean_linker_2, # of connection points: 2
#     Edge 24, Type (0, 0), BuildingBlock: XUDNAN_clean_linker_2, # of connection points: 2
#     Edge 25, Type (0, 0), BuildingBlock: XUDNAN_clean_linker_2, # of connection points: 2
#     Edge 26, Type (0, 0), BuildingBlock: XUDNAN_clean_linker_2, # of connection points: 2
#     Edge 27, Type (0, 0), BuildingBlock: XUDNAN_clean_linker_2, # of connection points: 2
#     Edge 28, Type (0, 0), BuildingBlock: XUDNAN_clean_linker_2, # of connection points: 2
#     Edge 29, Type (0, 0), BuildingBlock: XUDNAN_clean_linker_2, # of connection points: 2
#     Edge 30, Type (0, 0), BuildingBlock: XUDNAN_clean_linker_2, # of connection points: 2
#     Edge 31, Type (0, 0), BuildingBlock: XUDNAN_clean_linker_2, # of connection points: 2
#     Edge 32, Type (0, 0), BuildingBlock: XUDNAN_clean_linker_2, # of connection points: 2
#     Edge 33, Type (0, 0), BuildingBlock: XUDNAN_clean_linker_2, # of connection points: 2
#     Edge 34, Type (0, 0), BuildingBlock: XUDNAN_clean_linker_2, # of connection points: 2
#     Edge 35, Type (0, 0), BuildingBlock: XUDNAN_clean_linker_2, # of connection points: 2
# Relax obj value: 0.032
# Max RMSD: 0.075
# Mean RMSD: 0.075
data_MOF--net-una--node1-KUFVIS_clean_sbu_0--edge1-XUDNAN_clean_linker_2
_symmetry_space_group_name_H-M    P1
_symmetry_Int_Tables_number       1
_symmetry_cell_setting            triclinic
loop_
_symmetry_equiv_pos_as_xyz
'x, y, z'
_cell_length_a     57.623069
_cell_length_b     57.570628
_cell_length_c     21.95753
_cell_angle_alpha  89.791261
_cell_angle_beta   90.103514
_cell_angle_gamma 120.0174
loop_
_atom_site_label
_atom_site_type_symbol
_atom_site_fract_x
_atom_site_fract_y
_atom_site_fract_z
_atom_type_partial_charge
Mn0 Mn 0.14241 0.44519 0.05712 0.0
Mn1 Mn 0.14141 0.47865 0.93029 0.0
C2 C 0.16613 0.44654 0.97104 0.0
C3 C 0.16254 0.44331 0.14927 0.0
C4 C 0.09526 0.42421 0.96628 0.0
O5 O 0.12916 0.46979 0.09051 0.0
O6 O 0.13022 0.4908 1.00245 0.0
C7 C 0.18532 0.53293 0.96243 0.0
N8 N 0.17411 0.51202 0.92277 0.0
C9 C 0.20887 0.53632 0.8489 0.0
C10 C 0.22075 0.55818 0.88886 0.0
C11 C 0.20897 0.55644 0.94595 0.0
C12 C 0.18531 0.51344 0.8678 0.0
H13 H 0.17623 0.53167 0.00622 0.0
C14 C 0.1257 0.48674 0.0596 0.0
O15 O 0.13769 0.42609 0.13679 0.0
O16 O 0.1751 0.46257 0.11033 0.0
N17 N 0.15176 0.46895 0.85624 0.0
C18 C 0.13889 0.44537 0.82516 0.0
C19 C 0.1486 0.44339 0.76796 0.0
C20 C 0.17128 0.46571 0.7431 0.0
C21 C 0.184 0.48986 0.77564 0.0
C22 C 0.1733 0.49068 0.83228 0.0
H23 H 0.12134 0.42821 0.84389 0.0
O24 O 0.15902 0.42739 0.01058 0.0
O25 O 0.15893 0.46415 0.98225 0.0
O26 O 0.10561 0.421 0.01507 0.0
O27 O 0.10727 0.44492 0.93247 0.0
C28 C 0.20729 0.51292 0.75492 0.0
C29 C 0.21977 0.5361 0.79161 0.0
H30 H 0.23905 0.57631 0.87643 0.0
H31 H 0.21808 0.5732 0.97711 0.0
H32 H 0.13859 0.42471 0.74306 0.0
H33 H 0.17889 0.464 0.69927 0.0
H34 H 0.21609 0.51285 0.71142 0.0
H35 H 0.23798 0.55351 0.77572 0.0
Mn36 Mn 0.70109 0.14128 0.20805 0.0
Mn37 Mn 0.66522 0.13857 0.08293 0.0
C38 C 0.72283 0.15762 0.11601 0.0
C39 C 0.72495 0.16299 0.29706 0.0
C40 C 0.66837 0.09072 0.1308 0.0
O41 O 0.66517 0.13327 0.24371 0.0
O42 O 0.64469 0.13512 0.15801 0.0
C43 C 0.66234 0.18805 0.09935 0.0
N44 N 0.66867 0.17254 0.06434 0.0
C45 C 0.67246 0.19831 0.97466 0.0
C46 C 0.66608 0.21467 0.00972 0.0
C47 C 0.66134 0.20972 0.07251 0.0
C48 C 0.67422 0.17772 1.00444 0.0
H49 H 0.65765 0.18361 0.14709 0.0
C50 C 0.64543 0.13265 0.21575 0.0
O51 O 0.71465 0.13737 0.28918 0.0
O52 O 0.72041 0.17593 0.25456 0.0
N53 N 0.68189 0.14172 0.00586 0.0
C54 C 0.68903 0.12484 0.97945 0.0
C55 C 0.6962 0.12817 0.9176 0.0
C56 C 0.69482 0.14805 0.88304 0.0
C57 C 0.68689 0.16483 0.91103 0.0
C58 C 0.68122 0.16137 0.9734 0.0
H59 H 0.68905 0.10885 1.00533 0.0
O60 O 0.73375 0.1515 0.16027 0.0
O61 O 0.69959 0.15547 0.12746 0.0
O62 O 0.68444 0.1025 0.17505 0.0
O63 O 0.65972 0.10238 0.09572 0.0
C64 C 0.68399 0.1846 0.87941 0.0
C65 C 0.67675 0.20132 0.91121 0.0
H66 H 0.66468 0.23101 0.9889 0.0
H67 H 0.65628 0.22218 0.09983 0.0
H68 H 0.70212 0.11502 0.89624 0.0
H69 H 0.69973 0.15014 0.83501 0.0
H70 H 0.68778 0.18745 0.8309 0.0
H71 H 0.67508 0.21678 0.88666 0.0
Mn72 Mn 0.56786 0.69759 0.38217 0.0
Mn73 Mn 0.53566 0.66279 0.25551 0.0
C74 C 0.57292 0.72035 0.29151 0.0
C75 C 0.56914 0.72024 0.47247 0.0
C76 C 0.58689 0.66653 0.30306 0.0
O77 O 0.54047 0.66089 0.41607 0.0
O78 O 0.51852 0.6412 0.32954 0.0
C79 C 0.48256 0.65819 0.27184 0.0
N80 N 0.50474 0.6655 0.23716 0.0
C81 C 0.48267 0.66894 0.14737 0.0
C82 C 0.45958 0.66155 0.1821 0.0
C83 C 0.45965 0.6565 0.24479 0.0
C84 C 0.50521 0.67137 0.1774 0.0
H85 H 0.48224 0.65323 0.31944 0.0
C86 C 0.52167 0.64125 0.38719 0.0
O87 O 0.58495 0.71058 0.46374 0.0
O88 O 0.55165 0.71567 0.43013 0.0
N89 N 0.54935 0.68054 0.17938 0.0
C90 C 0.57372 0.68878 0.15348 0.0
C91 C 0.57774 0.69654 0.09192 0.0
C92 C 0.55634 0.69462 0.05712 0.0
C93 C 0.5313 0.68559 0.08462 0.0
C94 C 0.5289 0.67941 0.14677 0.0
H95 H 0.58984 0.68918 0.1795 0.0
O96 O 0.58982 0.731 0.33596 0.0
O97 O 0.55221 0.69665 0.3019 0.0
O98 O 0.59083 0.68217 0.3479 0.0
O99 O 0.56671 0.65792 0.26779 0.0
C100 C 0.5085 0.68208 0.05271 0.0
C101 C 0.48416 0.67368 0.08405 0.0
H102 H 0.44167 0.65961 0.16109 0.0
H103 H 0.44188 0.65067 0.27183 0.0
H104 H 0.59707 0.70331 0.07093 0.0
H105 H 0.55932 0.69997 0.00928 0.0
H106 H 0.5096 0.68625 1.00434 0.0
H107 H 0.46692 0.67153 0.05929 0.0
Mn108 Mn 0.87204 0.55976 0.55187 0.0
Mn109 Mn 0.87043 0.5289 0.41927 0.0
C110 C 0.84594 0.5593 0.47127 0.0
C111 C 0.85452 0.56105 0.64775 0.0
C112 C 0.91616 0.58343 0.45331 0.0
O113 O 0.88588 0.53473 0.57868 0.0
O114 O 0.88541 0.51731 0.48638 0.0
C115 C 0.82998 0.4735 0.45533 0.0
N116 N 0.8386 0.49454 0.4159 0.0
C117 C 0.80134 0.469 0.34871 0.0
C118 C 0.79214 0.44702 0.38845 0.0
C119 C 0.80647 0.44932 0.44209 0.0
C120 C 0.82489 0.49257 0.3643 0.0
H121 H 0.84098 0.47515 0.49649 0.0
C122 C 0.89018 0.51952 0.5437 0.0
O123 O 0.87911 0.57809 0.6327 0.0
O124 O 0.8408 0.54206 0.60914 0.0
N125 N 0.85615 0.53772 0.34991 0.0
C126 C 0.86661 0.56135 0.3188 0.0
C127 C 0.85421 0.56272 0.26488 0.0
C128 C 0.83128 0.53976 0.24329 0.0
C129 C 0.82103 0.51558 0.27573 0.0
C130 C 0.83437 0.51539 0.32897 0.0
H131 H 0.88426 0.57899 0.33501 0.0
O132 O 0.85441 0.57813 0.51174 0.0
O133 O 0.85352 0.54164 0.47779 0.0
O134 O 0.90776 0.58444 0.50658 0.0
O135 O 0.90346 0.56394 0.41679 0.0
C136 C 0.79772 0.49184 0.25822 0.0
C137 C 0.78781 0.4686 0.29483 0.0
H138 H 0.77398 0.42835 0.3785 0.0
H139 H 0.79943 0.43248 0.4731 0.0
H140 H 0.8624 0.58142 0.23992 0.0
H141 H 0.82159 0.54099 0.20205 0.0
H142 H 0.78696 0.49139 0.21732 0.0
H143 H 0.76957 0.45064 0.28151 0.0
Mn144 Mn 0.31245 0.86409 0.69461 0.0
Mn145 Mn 0.34442 0.87152 0.56022 0.0
C146 C 0.28859 0.8518 0.60383 0.0
C147 C 0.28848 0.83697 0.77923 0.0
C148 C 0.34251 0.9172 0.6223 0.0
O149 O 0.34871 0.86933 0.72305 0.0
O150 O 0.3674 0.87532 0.63043 0.0
C151 C 0.35077 0.82365 0.56675 0.0
N152 N 0.34239 0.83875 0.53621 0.0
C153 C 0.33826 0.81542 0.44262 0.0
C154 C 0.34668 0.79946 0.47308 0.0
C155 C 0.35261 0.80336 0.53562 0.0
C156 C 0.33566 0.83449 0.47668 0.0
H157 H 0.35647 0.82743 0.61414 0.0
C158 C 0.36849 0.87434 0.68839 0.0
O159 O 0.29974 0.86295 0.78137 0.0
O160 O 0.29261 0.82719 0.73022 0.0
N161 N 0.32546 0.86861 0.48662 0.0
C162 C 0.31671 0.88507 0.46486 0.0
C163 C 0.30825 0.88259 0.40401 0.0
C164 C 0.3101 0.86412 0.36552 0.0
C165 C 0.31983 0.84787 0.38863 0.0
C166 C 0.32669 0.85033 0.45035 0.0
H167 H 0.31643 0.90011 0.49366 0.0
O168 O 0.27918 0.85703 0.65217 0.0
O169 O 0.31169 0.85303 0.60963 0.0
O170 O 0.33001 0.90471 0.67086 0.0
O171 O 0.34796 0.9061 0.57903 0.0
C172 C 0.32342 0.82964 0.35272 0.0
C173 C 0.33265 0.81343 0.37969 0.0
H174 H 0.34875 0.78423 0.44888 0.0
H175 H 0.35926 0.79122 0.55938 0.0
H176 H 0.30102 0.89538 0.38636 0.0
H177 H 0.30421 0.86275 0.3182 0.0
H178 H 0.31869 0.82759 0.30458 0.0
H179 H 0.33486 0.79915 0.35188 0.0
Mn180 Mn 0.45071 0.31047 0.85796 0.0
Mn181 Mn 0.47155 0.34282 0.7224 0.0
C182 C 0.43807 0.28678 0.76711 0.0
C183 C 0.45652 0.28709 0.94059 0.0
C184 C 0.42408 0.33835 0.79048 0.0
O185 O 0.48152 0.34709 0.88424 0.0
O186 O 0.49117 0.36632 0.79159 0.0
C187 C 0.52689 0.35199 0.72334 0.0
N188 N 0.50283 0.3426 0.69491 0.0
C189 C 0.52119 0.33909 0.59941 0.0
C190 C 0.54618 0.34861 0.62764 0.0
C191 C 0.54894 0.35475 0.69009 0.0
C192 C 0.49971 0.33568 0.6355 0.0
H193 H 0.52932 0.35775 0.77069 0.0
C194 C 0.49471 0.36726 0.84915 0.0
O195 O 0.4412 0.29759 0.94555 0.0
O196 O 0.46939 0.29157 0.88975 0.0
N197 N 0.45502 0.32349 0.64957 0.0
C198 C 0.42932 0.31353 0.63007 0.0
C199 C 0.4227 0.30478 0.56962 0.0
C200 C 0.44281 0.3075 0.5292 0.0
C201 C 0.46925 0.3184 0.55 0.0
C202 C 0.47437 0.32558 0.61142 0.0
H203 H 0.41405 0.31235 0.66046 0.0
O204 O 0.42438 0.27685 0.81665 0.0
O205 O 0.45955 0.31026 0.77163 0.0
O206 O 0.42641 0.32713 0.83904 0.0
O207 O 0.43966 0.34421 0.74494 0.0
C208 C 0.49082 0.32281 0.51207 0.0
C209 C 0.51679 0.33315 0.53676 0.0
H210 H 0.56338 0.35136 0.60182 0.0
H211 H 0.56818 0.36221 0.71216 0.0
H212 H 0.40229 0.29658 0.5538 0.0
H213 H 0.43776 0.30133 0.48222 0.0
H214 H 0.48757 0.31785 0.46412 0.0
H215 H 0.5331 0.33597 0.50743 0.0
Mn216 Mn 0.56555 0.85798 0.89053 0.0
Mn217 Mn 0.53136 0.86016 0.01381 0.0
C218 C 0.57032 0.84129 0.98268 0.0
C219 C 0.56797 0.83654 0.80148 0.0
C220 C 0.58251 0.90824 0.9678 0.0
O221 O 0.53809 0.8664 0.85391 0.0
O222 O 0.51455 0.86364 0.93798 0.0
C223 C 0.4793 0.81049 0.99596 0.0
N224 N 0.50095 0.82602 0.03158 0.0
C225 C 0.47884 0.79977 0.12053 0.0
C226 C 0.4563 0.78338 0.08482 0.0
C227 C 0.45666 0.78857 0.0221 0.0
C228 C 0.50116 0.82065 0.09144 0.0
H229 H 0.47916 0.81511 0.94827 0.0
C230 C 0.51858 0.8667 0.88053 0.0
O231 O 0.58344 0.86211 0.80998 0.0
O232 O 0.55029 0.82352 0.84342 0.0
N233 N 0.54463 0.85699 0.09134 0.0
C234 C 0.56851 0.87392 0.11839 0.0
C235 C 0.5722 0.87035 0.18024 0.0
C236 C 0.55096 0.85017 0.21413 0.0
C237 C 0.5264 0.83333 0.18547 0.0
C238 C 0.52433 0.83706 0.12314 0.0
H239 H 0.5845 0.8901 0.093 0.0
O240 O 0.58758 0.84744 0.93905 0.0
O241 O 0.54933 0.84355 0.97035 0.0
O242 O 0.58748 0.89657 0.92453 0.0
O243 O 0.56186 0.89654 1.00169 0.0
C244 C 0.50376 0.81323 0.21638 0.0
C245 C 0.47995 0.79649 0.18394 0.0
H246 H 0.43859 0.76682 0.10509 0.0
H247 H 0.43931 0.7761 0.99429 0.0
H248 H 0.59116 0.88354 0.20212 0.0
H249 H 0.55367 0.84788 0.26216 0.0
H250 H 0.50458 0.81015 0.26485 0.0
H251 H 0.46285 0.7808 0.20796 0.0
Mn252 Mn 0.71065 0.55954 0.05512 0.0
Mn253 Mn 0.6729 0.52315 0.17513 0.0
C254 C 0.7311 0.55783 0.14414 0.0
C255 C 0.73424 0.56256 0.96525 0.0
C256 C 0.67945 0.57697 0.13765 0.0
O257 O 0.67376 0.53497 0.01742 0.0
O258 O 0.65243 0.50878 0.09881 0.0
C259 C 0.66819 0.47044 0.1505 0.0
N260 N 0.67518 0.49156 0.18852 0.0
C261 C 0.68622 0.47019 0.26883 0.0
C262 C 0.67899 0.44813 0.23065 0.0
C263 C 0.67001 0.4483 0.17118 0.0
C264 C 0.68376 0.49158 0.2459 0.0
H265 H 0.66129 0.47052 0.10478 0.0
C266 C 0.65357 0.51483 0.04227 0.0
O267 O 0.72622 0.57952 0.97713 0.0
O268 O 0.72732 0.54307 1.00373 0.0
N269 N 0.69064 0.53493 0.25199 0.0
C270 C 0.69969 0.55898 0.28025 0.0
C271 C 0.71098 0.56286 0.33867 0.0
C272 C 0.71261 0.54192 0.36762 0.0
C273 C 0.70306 0.51731 0.33773 0.0
C274 C 0.69198 0.5146 0.27956 0.0
H275 H 0.69847 0.57513 0.25823 0.0
O276 O 0.7439 0.57729 0.10566 0.0
O277 O 0.70675 0.53991 0.12948 0.0
O278 O 0.69677 0.58273 0.09547 0.0
O279 O 0.66882 0.55497 0.16733 0.0
C280 C 0.70497 0.4957 0.36244 0.0
C281 C 0.69654 0.47215 0.32804 0.0
H282 H 0.68059 0.43111 0.24623 0.0
H283 H 0.66454 0.4314 0.14135 0.0
H284 H 0.71847 0.58196 0.36128 0.0
H285 H 0.72159 0.54509 0.41241 0.0
H286 H 0.71351 0.49724 0.40725 0.0
H287 H 0.69869 0.45593 0.34698 0.0
Mn288 Mn 0.1481 0.70627 0.20975 0.0
Mn289 Mn 0.14697 0.67458 0.34136 0.0
C290 C 0.16462 0.73066 0.29854 0.0
C291 C 0.16983 0.72737 0.11752 0.0
C292 C 0.0984 0.67579 0.29211 0.0
O293 O 0.14049 0.66962 0.18031 0.0
O294 O 0.14155 0.65138 0.2703 0.0
C295 C 0.19558 0.67031 0.32379 0.0
N296 N 0.18095 0.6779 0.35838 0.0
C297 C 0.20718 0.6823 0.44739 0.0
C298 C 0.22265 0.67461 0.41277 0.0
C299 C 0.21706 0.66896 0.35047 0.0
C300 C 0.18686 0.68446 0.4176 0.0
H301 H 0.19056 0.66486 0.27659 0.0
C302 C 0.13895 0.65041 0.21248 0.0
O303 O 0.1441 0.7168 0.12453 0.0
O304 O 0.18281 0.72516 0.16329 0.0
N305 N 0.15181 0.69354 0.41577 0.0
C306 C 0.13558 0.70162 0.44179 0.0
C307 C 0.13967 0.70981 0.50294 0.0
C308 C 0.15949 0.70835 0.53739 0.0
C309 C 0.17549 0.69932 0.50993 0.0
C310 C 0.1714 0.69277 0.44807 0.0
H311 H 0.1195 0.70152 0.4162 0.0
O312 O 0.15779 0.74012 0.25249 0.0
O313 O 0.1629 0.70738 0.29093 0.0
O314 O 0.10912 0.68924 0.24334 0.0
O315 O 0.11113 0.66961 0.3302 0.0
C316 C 0.19502 0.69611 0.54165 0.0
C317 C 0.21087 0.6876 0.5104 0.0
H318 H 0.23879 0.67289 0.43356 0.0
H319 H 0.22882 0.6629 0.3235 0.0
H320 H 0.12706 0.71649 0.52397 0.0
H321 H 0.1621 0.71399 0.58498 0.0
H322 H 0.19836 0.7006 0.5898 0.0
H323 H 0.22616 0.68571 0.53498 0.0
Mn324 Mn 0.44656 0.14794 0.37482 0.0
Mn325 Mn 0.4689 0.14317 0.51484 0.0
C326 C 0.43551 0.164 0.46001 0.0
C327 C 0.45086 0.17076 0.28181 0.0
C328 C 0.42058 0.0974 0.45699 0.0
O329 O 0.47687 0.14059 0.3535 0.0
O330 O 0.48695 0.13483 0.44914 0.0
C331 C 0.52458 0.18821 0.50272 0.0
N332 N 0.50103 0.17563 0.53399 0.0
C333 C 0.52164 0.20214 0.62326 0.0
C334 C 0.54612 0.21552 0.59198 0.0
C335 C 0.5475 0.20877 0.53116 0.0
C336 C 0.49924 0.18272 0.59159 0.0
H337 H 0.52596 0.18225 0.4569 0.0
C338 C 0.48991 0.13467 0.39154 0.0
O339 O 0.4356 0.14494 0.28687 0.0
O340 O 0.46433 0.18325 0.32991 0.0
N341 N 0.45404 0.15048 0.58492 0.0
C342 C 0.42874 0.13612 0.60786 0.0
C343 C 0.42353 0.14149 0.66705 0.0
C344 C 0.44463 0.16054 0.70308 0.0
C345 C 0.47065 0.1745 0.67903 0.0
C346 C 0.47433 0.16932 0.61869 0.0
H347 H 0.41276 0.12057 0.58128 0.0
O348 O 0.42101 0.1576 0.411 0.0
O349 O 0.45679 0.16157 0.45814 0.0
O350 O 0.42268 0.10844 0.40492 0.0
O351 O 0.43621 0.10903 0.50148 0.0
C352 C 0.49316 0.19307 0.7128 0.0
C353 C 0.51862 0.207 0.68483 0.0
H354 H 0.56399 0.23091 0.61428 0.0
H355 H 0.56634 0.2189 0.50681 0.0
H356 H 0.40344 0.13043 0.68549 0.0
H357 H 0.44067 0.16411 0.74929 0.0
H358 H 0.49101 0.19721 0.75989 0.0
H359 H 0.53566 0.22161 0.71084 0.0
Mn360 Mn 0.3062 0.44963 0.56136 0.0
Mn361 Mn 0.33643 0.48318 0.69085 0.0
C362 C 0.2811 0.45097 0.64162 0.0
C363 C 0.28639 0.44675 0.46549 0.0
C364 C 0.32703 0.42785 0.6644 0.0
O365 O 0.3447 0.47403 0.53218 0.0
O366 O 0.36236 0.49209 0.62344 0.0
C367 C 0.3518 0.5374 0.64436 0.0
N368 N 0.33983 0.51793 0.68762 0.0
C369 C 0.33024 0.5465 0.74961 0.0
C370 C 0.34261 0.56691 0.70589 0.0
C371 C 0.35333 0.56229 0.65292 0.0
C372 C 0.32927 0.5221 0.73852 0.0
H373 H 0.36015 0.53397 0.6037 0.0
C374 C 0.36458 0.48898 0.56648 0.0
O375 O 0.29408 0.42992 0.48189 0.0
O376 O 0.29204 0.46629 0.5026 0.0
N377 N 0.31453 0.47734 0.76112 0.0
C378 C 0.30163 0.45501 0.79672 0.0
C379 C 0.28956 0.45614 0.85126 0.0
C380 C 0.29088 0.48021 0.86875 0.0
C381 C 0.30434 0.50298 0.83152 0.0
C382 C 0.31632 0.50074 0.77807 0.0
H383 H 0.30044 0.43647 0.78338 0.0
O384 O 0.27065 0.43159 0.60254 0.0
O385 O 0.30614 0.46903 0.63366 0.0
O386 O 0.31813 0.42617 0.61002 0.0
O387 O 0.33336 0.4478 0.69925 0.0
C388 C 0.30568 0.52758 0.84442 0.0
C389 C 0.31849 0.54928 0.80332 0.0
H390 H 0.34381 0.58613 0.71229 0.0
H391 H 0.36281 0.5779 0.61885 0.0
H392 H 0.27935 0.43852 0.87987 0.0
H393 H 0.28122 0.48089 0.91045 0.0
H394 H 0.29647 0.52986 0.8852 0.0
H395 H 0.31898 0.56794 0.8132 0.0
Mn396 Mn 0.86511 0.30069 0.71662 0.0
Mn397 Mn 0.86867 0.33472 0.84551 0.0
C398 C 0.84623 0.2774 0.806 0.0
C399 C 0.84386 0.2791 0.62517 0.0
C400 C 0.91438 0.32777 0.80054 0.0
O401 O 0.87621 0.33803 0.68414 0.0
O402 O 0.87668 0.35793 0.77249 0.0
C403 C 0.82313 0.34372 0.82255 0.0
N404 N 0.83597 0.33467 0.85937 0.0
C405 C 0.80858 0.33149 0.94502 0.0
C406 C 0.79498 0.34074 0.90807 0.0
C407 C 0.80206 0.34654 0.84634 0.0
C408 C 0.82863 0.32804 0.91809 0.0
H409 H 0.8292 0.3491 0.77572 0.0
C410 C 0.87942 0.35825 0.71467 0.0
O411 O 0.86915 0.28793 0.63484 0.0
O412 O 0.83113 0.28406 0.66714 0.0
N413 N 0.86146 0.31581 0.92111 0.0
C414 C 0.87579 0.30598 0.94958 0.0
C415 C 0.87017 0.29772 0.01065 0.0
C416 C 0.85075 0.3008 0.04254 0.0
C417 C 0.83666 0.31151 0.01258 0.0
C418 C 0.84225 0.31817 0.95094 0.0
H419 H 0.89151 0.30468 0.92594 0.0
O420 O 0.85214 0.26666 0.76128 0.0
O421 O 0.85025 0.30158 0.79675 0.0
O422 O 0.90308 0.3145 0.75234 0.0
O423 O 0.90331 0.33621 0.83757 0.0
C424 C 0.81752 0.31612 0.04155 0.0
C425 C 0.80338 0.32599 0.0077 0.0
H426 H 0.77915 0.34354 0.92663 0.0
H427 H 0.79173 0.35377 0.81758 0.0
H428 H 0.88125 0.28966 0.03357 0.0
H429 H 0.84691 0.29501 0.09005 0.0
H430 H 0.81306 0.31156 0.08946 0.0
H431 H 0.7883 0.32889 0.03013 0.0
H432 H 0.20596 0.48125 0.21481 0.0
H433 H 0.15267 0.39549 0.19689 0.0
H434 H 0.18021 0.38726 0.27075 0.0
H435 H 0.26746 0.48116 0.23193 0.0
H436 H 0.28107 0.50676 0.28967 0.0
H437 H 0.25748 0.50624 0.23493 0.0
H438 H 0.22649 0.50464 0.32208 0.0
H439 H 0.2502 0.50563 0.37707 0.0
H440 H 0.21581 0.47887 0.37958 0.0
H441 H 0.21583 0.38829 0.34008 0.0
H442 H 0.25145 0.39828 0.41562 0.0
H443 H 0.27915 0.48327 0.39807 0.0
C444 C 0.19995 0.46076 0.22707 0.0
C445 C 0.17714 0.43897 0.2 0.0
C446 C 0.16988 0.41247 0.21737 0.0
C447 C 0.18557 0.4076 0.25889 0.0
C448 C 0.20822 0.42945 0.28386 0.0
C449 C 0.21498 0.45553 0.26998 0.0
C450 C 0.23953 0.47538 0.3059 0.0
C451 C 0.26275 0.49345 0.26304 0.0
C452 C 0.23259 0.49211 0.34871 0.0
C453 C 0.24569 0.45639 0.34149 0.0
C454 C 0.22769 0.43001 0.32705 0.0
C455 C 0.22983 0.40887 0.35225 0.0
C456 C 0.25032 0.41476 0.39474 0.0
C457 C 0.26813 0.44153 0.41281 0.0
C458 C 0.26586 0.4626 0.38519 0.0
H459 H 0.8003 0.27388 0.55926 0.0
H460 H 0.85495 0.24293 0.57458 0.0
H461 H 0.82953 0.2093 0.49547 0.0
H462 H 0.73997 0.21179 0.53068 0.0
H463 H 0.72707 0.2251 0.47401 0.0
H464 H 0.74903 0.24663 0.53291 0.0
H465 H 0.78133 0.27937 0.45134 0.0
H466 H 0.75933 0.25808 0.3922 0.0
H467 H 0.79407 0.26687 0.39275 0.0
H468 H 0.79611 0.17651 0.42171 0.0
H469 H 0.76159 0.15155 0.34376 0.0
H470 H 0.73133 0.20655 0.36441 0.0
C471 C 0.80696 0.26012 0.54549 0.0
C472 C 0.8296 0.26096 0.57327 0.0
C473 C 0.83782 0.24278 0.55375 0.0
C474 C 0.82338 0.22346 0.50911 0.0
C475 C 0.80103 0.22291 0.48307 0.0
C476 C 0.79322 0.24117 0.49923 0.0
C477 C 0.76925 0.23693 0.46135 0.0
C478 C 0.74489 0.22968 0.50219 0.0
C479 C 0.77643 0.26179 0.42208 0.0
C480 C 0.76463 0.21321 0.4222 0.0
C481 C 0.78292 0.20518 0.43659 0.0
C482 C 0.78195 0.18287 0.40938 0.0
C483 C 0.76214 0.1687 0.36543 0.0
C484 C 0.74389 0.17716 0.34778 0.0
C485 C 0.74518 0.19976 0.37665 0.0
H486 H 0.53126 0.72591 0.53851 0.0
H487 H 0.6167 0.75635 0.52228 0.0
H488 H 0.62537 0.79012 0.60139 0.0
H489 H 0.53349 0.78825 0.56747 0.0
H490 H 0.50744 0.775 0.62435 0.0
H491 H 0.50759 0.75347 0.56519 0.0
H492 H 0.50719 0.72055 0.64638 0.0
H493 H 0.50678 0.74185 0.70578 0.0
H494 H 0.5326 0.73288 0.70476 0.0
H495 H 0.62515 0.82299 0.67567 0.0
H496 H 0.61593 0.84792 0.75424 0.0
H497 H 0.53059 0.79328 0.73389 0.0
C498 C 0.55175 0.73961 0.55203 0.0
C499 C 0.57337 0.7386 0.52405 0.0
C500 C 0.59986 0.75667 0.54328 0.0
C501 C 0.605 0.77606 0.5879 0.0
C502 C 0.58336 0.77677 0.6142 0.0
C503 C 0.55721 0.75862 0.59825 0.0
C504 C 0.53767 0.76294 0.63644 0.0
C505 C 0.52054 0.77035 0.59593 0.0
C506 C 0.52002 0.73807 0.67567 0.0
C507 C 0.55696 0.78657 0.67558 0.0
C508 C 0.58322 0.79451 0.66091 0.0
C509 C 0.60468 0.81671 0.6882 0.0
C510 C 0.59925 0.83087 0.7325 0.0
C511 C 0.57261 0.82248 0.75041 0.0
C512 C 0.55117 0.8 0.72144 0.0
H513 H 0.81027 0.52396 0.71293 0.0
H514 H 0.86837 0.60892 0.70062 0.0
H515 H 0.84297 0.61842 0.77734 0.0
H516 H 0.75194 0.52899 0.73297 0.0
H517 H 0.73649 0.50254 0.7888 0.0
H518 H 0.75924 0.50198 0.73346 0.0
H519 H 0.78858 0.49943 0.81978 0.0
H520 H 0.76566 0.49952 0.87537 0.0
H521 H 0.80078 0.5243 0.8792 0.0
H522 H 0.80869 0.61921 0.84711 0.0
H523 H 0.77288 0.61065 0.92085 0.0
H524 H 0.7394 0.52497 0.89786 0.0
C525 C 0.81784 0.5445 0.7272 0.0
C526 C 0.84135 0.56572 0.70073 0.0
C527 C 0.8506 0.59232 0.72059 0.0
C528 C 0.83615 0.59795 0.76379 0.0
C529 C 0.81275 0.5767 0.78794 0.0
C530 C 0.80404 0.55042 0.77176 0.0
C531 C 0.77877 0.53128 0.80659 0.0
C532 C 0.75522 0.51526 0.76283 0.0
C533 C 0.78375 0.51253 0.84768 0.0
C534 C 0.77441 0.55094 0.84401 0.0
C535 C 0.79398 0.57706 0.83156 0.0
C536 C 0.7935 0.59882 0.85793 0.0
C537 C 0.77294 0.59377 0.89936 0.0
C538 C 0.75341 0.56719 0.91521 0.0
C539 C 0.75415 0.54551 0.88681 0.0
H540 H 0.29071 0.83611 0.90661 0.0
H541 H 0.23938 0.79637 0.75172 0.0
H542 H 0.20347 0.76522 0.82087 0.0
H543 H 0.27003 0.77444 0.99163 0.0
H544 H 0.27169 0.78911 0.06503 0.0
H545 H 0.29305 0.80962 1.00399 0.0
H546 H 0.27461 0.84214 0.01614 0.0
H547 H 0.25318 0.82171 0.07719 0.0
H548 H 0.23897 0.82923 0.01205 0.0
H549 H 0.17217 0.73938 0.9063 0.0
H550 H 0.14935 0.71713 1.0023 0.0
H551 H 0.22166 0.76951 0.1032 0.0
C552 C 0.27183 0.82093 0.88756 0.0
C553 C 0.26774 0.81881 0.82366 0.0
C554 C 0.24294 0.79837 0.8004 0.0
C555 C 0.22236 0.78062 0.83937 0.0
C556 C 0.2269 0.78303 0.90194 0.0
C557 C 0.25114 0.80234 0.92608 0.0
C558 C 0.25109 0.79929 0.99506 0.0
C559 C 0.27275 0.79272 0.0151 0.0
C560 C 0.25467 0.8246 0.02699 0.0
C561 C 0.22305 0.7755 0.00562 0.0
C562 C 0.20935 0.76677 0.95122 0.0
C563 C 0.18281 0.74584 0.94913 0.0
C564 C 0.16995 0.73334 1.00392 0.0
C565 C 0.18373 0.74131 0.06017 0.0
C566 C 0.2107 0.76269 0.06079 0.0
H567 H 0.45363 0.21983 0.26736 0.0
H568 H 0.45092 0.15405 0.16598 0.0
H569 H 0.45339 0.17744 0.06936 0.0
H570 H 0.41041 0.22983 0.16319 0.0
H571 H 0.42772 0.26577 0.17191 0.0
H572 H 0.42755 0.24487 0.2334 0.0
H573 H 0.4794 0.27127 0.23549 0.0
H574 H 0.47975 0.29224 0.17395 0.0
H575 H 0.49778 0.2743 0.16674 0.0
H576 H 0.45822 0.20869 0.98414 0.0
H577 H 0.45945 0.24289 0.91438 0.0
H578 H 0.45372 0.28688 0.0681 0.0
C579 C 0.45379 0.21053 0.22471 0.0
C580 C 0.45249 0.18524 0.22413 0.0
C581 C 0.45206 0.1734 0.1675 0.0
C582 C 0.45352 0.1866 0.11241 0.0
C583 C 0.45474 0.21143 0.11441 0.0
C584 C 0.4544 0.22311 0.16898 0.0
C585 C 0.45419 0.24918 0.15777 0.0
C586 C 0.42843 0.24729 0.18307 0.0
C587 C 0.47928 0.27317 0.18512 0.0
C588 C 0.45473 0.25043 0.08842 0.0
C589 C 0.45552 0.22861 0.06468 0.0
C590 C 0.45732 0.22568 1.00224 0.0
C591 C 0.45812 0.24534 0.96292 0.0
C592 C 0.45654 0.26754 0.9855 0.0
C593 C 0.45469 0.27002 0.04935 0.0
H594 H 0.1462 0.51711 0.16276 0.0
H595 H 0.08793 0.49727 0.01839 0.0
H596 H 0.08332 0.53627 0.04521 0.0
H597 H 0.11495 0.54514 0.27185 0.0
H598 H 0.14751 0.57087 0.29734 0.0
H599 H 0.1425 0.53868 0.27402 0.0
H600 H 0.18147 0.56265 0.19698 0.0
H601 H 0.18608 0.59481 0.2185 0.0
H602 H 0.17992 0.58445 0.13996 0.0
H603 H 0.09165 0.58161 0.07312 0.0
H604 H 0.10599 0.62668 0.11499 0.0
H605 H 0.15716 0.61651 0.24466 0.0
C606 C 0.13147 0.52024 0.13916 0.0
C607 C 0.11714 0.5041 0.08912 0.0
C608 C 0.09882 0.50933 0.05737 0.0
C609 C 0.09619 0.53151 0.07199 0.0
C610 C 0.11181 0.54809 0.119 0.0
C611 C 0.12852 0.54238 0.15342 0.0
C612 C 0.14441 0.5646 0.1987 0.0
C613 C 0.13688 0.5542 0.26438 0.0
C614 C 0.17476 0.57737 0.18784 0.0
C615 C 0.13469 0.58394 0.18271 0.0
C616 C 0.116 0.5741 0.1364 0.0
C617 C 0.10577 0.5893 0.11048 0.0
C618 C 0.11425 0.61496 0.13392 0.0
C619 C 0.13251 0.62491 0.1831 0.0
C620 C 0.14292 0.60922 0.20743 0.0
H621 H 0.60782 0.14575 0.18008 0.0
H622 H 0.63021 0.11209 0.33116 0.0
H623 H 0.59064 0.10592 0.38863 0.0
H624 H 0.58671 0.18289 0.27104 0.0
H625 H 0.55959 0.1775 0.22115 0.0
H626 H 0.58871 0.17774 0.19072 0.0
H627 H 0.55832 0.13057 0.1448 0.0
H628 H 0.5291 0.13009 0.17553 0.0
H629 H 0.53575 0.10341 0.19376 0.0
H630 H 0.54941 0.10389 0.42964 0.0
H631 H 0.51124 0.10956 0.45657 0.0
H632 H 0.51601 0.14605 0.28 0.0
C633 C 0.60432 0.13686 0.22508 0.0
C634 C 0.62202 0.12919 0.25102 0.0
C635 C 0.61695 0.11809 0.31041 0.0
C636 C 0.59445 0.11438 0.34319 0.0
C637 C 0.57738 0.12204 0.31608 0.0
C638 C 0.58217 0.13329 0.25864 0.0
C639 C 0.56153 0.1412 0.24136 0.0
C640 C 0.57494 0.17164 0.23045 0.0
C641 C 0.54521 0.12537 0.18555 0.0
C642 C 0.54443 0.13279 0.29837 0.0
C643 C 0.55383 0.12151 0.34046 0.0
C644 C 0.54188 0.1127 0.39711 0.0
C645 C 0.52017 0.11607 0.41191 0.0
C646 C 0.51061 0.12839 0.37049 0.0
C647 C 0.52264 0.13636 0.31241 0.0
H648 H 0.37839 0.5135 0.45393 0.0
H649 H 0.41178 0.50386 0.62299 0.0
H650 H 0.45653 0.54006 0.59246 0.0
H651 H 0.43928 0.53194 0.35697 0.0
H652 H 0.43455 0.55594 0.3138 0.0
H653 H 0.40597 0.52645 0.34459 0.0
H654 H 0.39115 0.55671 0.39919 0.0
H655 H 0.41992 0.58628 0.36973 0.0
H656 H 0.41403 0.58231 0.45069 0.0
H657 H 0.4958 0.58178 0.55218 0.0
H658 H 0.52852 0.62297 0.49766 0.0
H659 H 0.4704 0.60492 0.3533 0.0
C660 C 0.39534 0.51828 0.48321 0.0
C661 C 0.39167 0.50577 0.5406 0.0
C662 C 0.41419 0.51316 0.57869 0.0
C663 C 0.4397 0.53373 0.56184 0.0
C664 C 0.44248 0.54663 0.50643 0.0
C665 C 0.42108 0.53889 0.467 0.0
C666 C 0.42925 0.55738 0.41214 0.0
C667 C 0.42714 0.542 0.35339 0.0
C668 C 0.4126 0.5715 0.40773 0.0
C669 C 0.45822 0.57705 0.42796 0.0
C670 C 0.46547 0.5705 0.48251 0.0
C671 C 0.49058 0.58683 0.5087 0.0
C672 C 0.50895 0.61029 0.47774 0.0
C673 C 0.50213 0.61704 0.42107 0.0
C674 C 0.4764 0.60009 0.39609 0.0
H675 H 0.87702 0.49377 0.65487 0.0
H676 H 0.92061 0.50218 0.48774 0.0
H677 H 0.92531 0.46338 0.51671 0.0
H678 H 0.91491 0.46953 0.75227 0.0
H679 H 0.88496 0.44657 0.79324 0.0
H680 H 0.8888 0.47762 0.76412 0.0
H681 H 0.84376 0.4509 0.70657 0.0
H682 H 0.84003 0.41978 0.73431 0.0
H683 H 0.8394 0.42518 0.65355 0.0
H684 H 0.91865 0.4195 0.55442 0.0
H685 H 0.90614 0.37653 0.60613 0.0
H686 H 0.86842 0.39717 0.75064 0.0
C687 C 0.88855 0.48814 0.62579 0.0
C688 C 0.89862 0.5011 0.56929 0.0
C689 C 0.91283 0.49258 0.53137 0.0
C690 C 0.91557 0.47053 0.54734 0.0
C691 C 0.90422 0.45727 0.60174 0.0
C692 C 0.8915 0.46604 0.64114 0.0
C693 C 0.87944 0.44698 0.69466 0.0
C694 C 0.89283 0.46101 0.75463 0.0
C695 C 0.84885 0.43501 0.69738 0.0
C696 C 0.88668 0.42584 0.67807 0.0
C697 C 0.90095 0.43213 0.62429 0.0
C698 C 0.90801 0.41461 0.59734 0.0
C699 C 0.90063 0.39017 0.62668 0.0
C700 C 0.88655 0.38362 0.68259 0.0
C701 C 0.87959 0.4018 0.70843 0.0
H702 H 0.37878 0.85828 0.80014 0.0
H703 H 0.4169 0.90076 0.63283 0.0
H704 H 0.4592 0.90417 0.66509 0.0
H705 H 0.43863 0.89669 0.89829 0.0
H706 H 0.4318 0.86768 0.94322 0.0
H707 H 0.40455 0.87009 0.90939 0.0
H708 H 0.38812 0.82434 0.85637 0.0
H709 H 0.41548 0.82196 0.88942 0.0
H710 H 0.41082 0.81984 0.80801 0.0
H711 H 0.49613 0.89946 0.70894 0.0
H712 H 0.52729 0.89062 0.76852 0.0
H713 H 0.46689 0.85285 0.90972 0.0
C714 C 0.39618 0.86878 0.77105 0.0
C715 C 0.39435 0.87906 0.71376 0.0
C716 C 0.41759 0.89243 0.67666 0.0
C717 C 0.44184 0.89456 0.69454 0.0
C718 C 0.4428 0.88349 0.75005 0.0
C719 C 0.42082 0.87122 0.78836 0.0
C720 C 0.42746 0.86046 0.84494 0.0
C721 C 0.4255 0.87458 0.90236 0.0
C722 C 0.40939 0.82983 0.84994 0.0
C723 C 0.4563 0.86821 0.83152 0.0
C724 C 0.46466 0.88141 0.77642 0.0
C725 C 0.49001 0.88947 0.75266 0.0
C726 C 0.5075 0.88421 0.78659 0.0
C727 C 0.49963 0.87122 0.84386 0.0
C728 C 0.47363 0.86312 0.8664 0.0
H729 H 0.52087 0.37744 0.96035 0.0
H730 H 0.51792 0.41575 0.79191 0.0
H731 H 0.55728 0.45781 0.82398 0.0
H732 H 0.54297 0.43721 0.05755 0.0
H733 H 0.56454 0.42973 0.1029 0.0
H734 H 0.53474 0.40288 0.0688 0.0
H735 H 0.56349 0.38565 0.01636 0.0
H736 H 0.59339 0.4126 0.04971 0.0
H737 H 0.59109 0.40808 0.9683 0.0
H738 H 0.59937 0.4947 0.86912 0.0
H739 H 0.63942 0.52506 0.92979 0.0
H740 H 0.61451 0.46362 0.06975 0.0
C741 C 0.52817 0.39481 0.93086 0.0
C742 C 0.51627 0.39312 0.87353 0.0
C743 C 0.5267 0.41635 0.83594 0.0
C744 C 0.5491 0.44045 0.85368 0.0
C745 C 0.56084 0.44125 0.90947 0.0
C746 C 0.5506 0.41922 0.94796 0.0
C747 C 0.56766 0.42541 1.00469 0.0
C748 C 0.55151 0.42371 0.06187 0.0
C749 C 0.57961 0.40683 0.01004 0.0
C750 C 0.58917 0.45409 0.99133 0.0
C751 C 0.58492 0.46285 0.93615 0.0
C752 C 0.60278 0.48824 0.91289 0.0
C753 C 0.62553 0.50529 0.94743 0.0
C754 C 0.63004 0.49686 1.00466 0.0
C755 C 0.61153 0.47087 0.02653 0.0
H756 H 0.23864 0.41201 0.70579 0.0
H757 H 0.28239 0.49737 0.66835 0.0
H758 H 0.25862 0.50505 0.75259 0.0
H759 H 0.17606 0.41363 0.73393 0.0
H760 H 0.16338 0.38741 0.79068 0.0
H761 H 0.1841 0.38725 0.72944 0.0
H762 H 0.21826 0.38651 0.80461 0.0
H763 H 0.19696 0.38495 0.86631 0.0
H764 H 0.2316 0.41092 0.86495 0.0
H765 H 0.24134 0.50358 0.85876 0.0
H766 H 0.21057 0.49356 0.94573 0.0
H767 H 0.16889 0.4093 0.89822 0.0
C768 C 0.24312 0.43226 0.71561 0.0
C769 C 0.26393 0.45452 0.68502 0.0
C770 C 0.26795 0.48047 0.69513 0.0
C771 C 0.25447 0.48496 0.7423 0.0
C772 C 0.23627 0.46299 0.77644 0.0
C773 C 0.22906 0.43701 0.76108 0.0
C774 C 0.20605 0.41695 0.80028 0.0
C775 C 0.18089 0.40033 0.76132 0.0
C776 C 0.21371 0.39877 0.8361 0.0
C777 C 0.20272 0.43592 0.84222 0.0
C778 C 0.22132 0.4623 0.82916 0.0
C779 C 0.22534 0.48327 0.86702 0.0
C780 C 0.20782 0.47743 0.91593 0.0
C781 C 0.18612 0.45116 0.92454 0.0
C782 C 0.18438 0.42983 0.88968 0.0
H783 H 0.72788 0.20025 0.04757 0.0
H784 H 0.75594 0.1433 0.06395 0.0
H785 H 0.7921 0.16966 0.99071 0.0
H786 H 0.7424 0.21202 0.88055 0.0
H787 H 0.75354 0.24739 0.88363 0.0
H788 H 0.72856 0.22496 0.93617 0.0
H789 H 0.75443 0.24926 0.02995 0.0
H790 H 0.77844 0.2736 0.97849 0.0
H791 H 0.78916 0.25834 0.03627 0.0
H792 H 0.82811 0.20455 0.92703 0.0
H793 H 0.85674 0.24104 0.85628 0.0
H794 H 0.80372 0.27384 0.87178 0.0
C795 C 0.74076 0.19263 0.03319 0.0
C796 C 0.73889 0.16954 0.0606 0.0
C797 C 0.75695 0.16086 0.04301 0.0
C798 C 0.77763 0.17575 1.00173 0.0
C799 C 0.7797 0.19905 0.97754 0.0
C800 C 0.76119 0.20692 0.99046 0.0
C801 C 0.76843 0.23298 0.95801 0.0
C802 C 0.74692 0.229 0.91156 0.0
C803 C 0.77297 0.25487 1.00367 0.0
C804 C 0.79418 0.23888 0.92646 0.0
C805 C 0.80039 0.2191 0.93912 0.0
C806 C 0.82326 0.21997 0.91604 0.0
C807 C 0.83947 0.24086 0.87626 0.0
C808 C 0.83263 0.26044 0.85938 0.0
C809 C 0.8099 0.25968 0.88554 0.0
H810 H 0.53417 0.72413 0.22495 0.0
H811 H 0.6199 0.75653 0.2415 0.0
H812 H 0.62798 0.79333 0.17143 0.0
H813 H 0.53633 0.73991 0.06048 0.0
H814 H 0.51056 0.74892 0.06467 0.0
H815 H 0.50982 0.72453 0.11669 0.0
H816 H 0.51016 0.74977 0.21156 0.0
H817 H 0.50764 0.77239 0.15943 0.0
H818 H 0.53401 0.78521 0.21618 0.0
H819 H 0.62704 0.82885 0.10928 0.0
H820 H 0.61745 0.85564 0.0366 0.0
H821 H 0.53246 0.7983 0.04969 0.0
C822 C 0.55453 0.7382 0.21141 0.0
C823 C 0.5764 0.73727 0.23786 0.0
C824 C 0.60286 0.75682 0.22133 0.0
C825 C 0.60767 0.7779 0.18195 0.0
C826 C 0.58576 0.77893 0.15866 0.0
C827 C 0.55974 0.75911 0.17062 0.0
C828 C 0.54001 0.7651 0.13844 0.0
C829 C 0.52325 0.74329 0.09202 0.0
C830 C 0.52195 0.7684 0.18442 0.0
C831 C 0.55892 0.79135 0.10702 0.0
C832 C 0.58524 0.79919 0.12065 0.0
C833 C 0.60652 0.82275 0.09765 0.0
C834 C 0.60084 0.8379 0.05674 0.0
C835 C 0.57418 0.82923 0.03832 0.0
C836 C 0.55289 0.80592 0.06471 0.0
H837 H 0.83902 0.59698 0.40945 0.0
H838 H 0.80171 0.51186 0.4472 0.0
H839 H 0.76823 0.50247 0.36653 0.0
H840 H 0.77134 0.59132 0.3853 0.0
H841 H 0.78415 0.618 0.32975 0.0
H842 H 0.80536 0.61863 0.39099 0.0
H843 H 0.84097 0.62193 0.31309 0.0
H844 H 0.81999 0.62232 0.25269 0.0
H845 H 0.83042 0.59765 0.25251 0.0
H846 H 0.75044 0.50276 0.26195 0.0
H847 H 0.72966 0.51153 0.17287 0.0
H848 H 0.76869 0.5957 0.21997 0.0
C849 C 0.82369 0.57644 0.40061 0.0
C850 C 0.82408 0.55481 0.43005 0.0
C851 C 0.80279 0.52837 0.42114 0.0
C852 C 0.78362 0.5229 0.3761 0.0
C853 C 0.78545 0.54436 0.34305 0.0
C854 C 0.80363 0.57068 0.35744 0.0
C855 C 0.79897 0.58987 0.31888 0.0
C856 C 0.78938 0.60537 0.35859 0.0
C857 C 0.82411 0.60907 0.28219 0.0
C858 C 0.77678 0.57013 0.27769 0.0
C859 C 0.77007 0.54407 0.29131 0.0
C860 C 0.75381 0.52274 0.25344 0.0
C861 C 0.74202 0.52784 0.20341 0.0
C862 C 0.74558 0.55367 0.19383 0.0
C863 C 0.76423 0.5754 0.22938 0.0
H864 H 0.20816 0.73677 0.36183 0.0
H865 H 0.15222 0.76606 0.34809 0.0
H866 H 0.17959 0.80239 0.42064 0.0
H867 H 0.22371 0.75184 0.52573 0.0
H868 H 0.25852 0.76189 0.51573 0.0
H869 H 0.23405 0.73737 0.46562 0.0
H870 H 0.25763 0.76445 0.3709 0.0
H871 H 0.28271 0.78803 0.42143 0.0
H872 H 0.26657 0.79926 0.36729 0.0
H873 H 0.21439 0.83675 0.49048 0.0
H874 H 0.25123 0.86349 0.56251 0.0
H875 H 0.28377 0.81106 0.53194 0.0
C876 C 0.20109 0.75011 0.37626 0.0
C877 C 0.17783 0.74833 0.35075 0.0
C878 C 0.16986 0.76698 0.36804 0.0
C879 C 0.18531 0.7877 0.40891 0.0
C880 C 0.20864 0.78941 0.43192 0.0
C881 C 0.21613 0.77075 0.41746 0.0
C882 C 0.24254 0.7777 0.44682 0.0
C883 C 0.23942 0.75584 0.49138 0.0
C884 C 0.26364 0.78275 0.39845 0.0
C885 C 0.24879 0.80307 0.48014 0.0
C886 C 0.22906 0.80964 0.47058 0.0
C887 C 0.22994 0.83177 0.49829 0.0
C888 C 0.25096 0.84687 0.53886 0.0
C889 C 0.27065 0.83967 0.55138 0.0
C890 C 0.26968 0.81769 0.52108 0.0
H891 H 0.47357 0.2829 0.69252 0.0
H892 H 0.38876 0.24964 0.72635 0.0
H893 H 0.37842 0.21412 0.65033 0.0
H894 H 0.46788 0.26674 0.52534 0.0
H895 H 0.49396 0.25817 0.52894 0.0
H896 H 0.49519 0.28315 0.5794 0.0
H897 H 0.49827 0.25917 0.6713 0.0
H898 H 0.49668 0.23304 0.62417 0.0
H899 H 0.47266 0.22504 0.68551 0.0
H900 H 0.37779 0.18072 0.57516 0.0
H901 H 0.38694 0.15315 0.50338 0.0
H902 H 0.47225 0.20759 0.52295 0.0
C903 C 0.45283 0.26896 0.68157 0.0
C904 C 0.43192 0.26933 0.71374 0.0
C905 C 0.40499 0.24983 0.70114 0.0
C906 C 0.39896 0.22965 0.65812 0.0
C907 C 0.42012 0.22936 0.62829 0.0
C908 C 0.44648 0.24887 0.63844 0.0
C909 C 0.46557 0.24267 0.60477 0.0
C910 C 0.48154 0.26399 0.55653 0.0
C911 C 0.4844 0.23971 0.64923 0.0
C912 C 0.44602 0.21638 0.57531 0.0
C913 C 0.41984 0.20919 0.58866 0.0
C914 C 0.39822 0.18617 0.56444 0.0
C915 C 0.40358 0.17063 0.52401 0.0
C916 C 0.43028 0.17801 0.50913 0.0
C917 C 0.45171 0.20105 0.5354 0.0
H918 H 0.06516 0.42964 0.87752 0.0
H919 H 0.06312 0.37205 0.00875 0.0
H920 H 0.01784 0.33853 0.97131 0.0
H921 H 0.99796 0.41295 0.89411 0.0
H922 H 0.99388 0.4185 0.81493 0.0
H923 H 0.02643 0.43655 0.84978 0.0
H924 H 0.04554 0.41888 0.76659 0.0
H925 H 0.01289 0.40045 0.73192 0.0
H926 H 0.03044 0.38325 0.75474 0.0
H927 H 0.97137 0.31213 0.92112 0.0
H928 H 0.92762 0.29715 0.87046 0.0
H929 H 0.96125 0.37281 0.7741 0.0
C930 C 0.05549 0.40992 0.89836 0.0
C931 C 0.06794 0.40349 0.94604 0.0
C932 C 0.0541 0.3775 0.97221 0.0
C933 C 0.02844 0.3583 0.95091 0.0
C934 C 0.01695 0.36542 0.90347 0.0
C935 C 0.03008 0.39076 0.87799 0.0
C936 C 0.01311 0.39435 0.83034 0.0
C937 C 0.00751 0.41691 0.8484 0.0
C938 C 0.02628 0.39953 0.76716 0.0
C939 C 0.98799 0.36715 0.83326 0.0
C940 C 0.99062 0.35053 0.87506 0.0
C941 C 0.96934 0.32488 0.88773 0.0
C942 C 0.94466 0.31642 0.85842 0.0
C943 C 0.9415 0.33356 0.81709 0.0
C944 C 0.96354 0.35902 0.80378 0.0
H945 H 0.57155 0.94848 0.98206 0.0
H946 H 0.63608 0.93068 0.99278 0.0
H947 H 0.66539 0.97521 0.04001 0.0
H948 H 0.61439 0.02028 0.94522 0.0
H949 H 0.59355 0.02936 0.98836 0.0
H950 H 0.579 0.99692 0.95279 0.0
H951 H 0.55997 0.97448 0.05743 0.0
H952 H 0.57506 0.0068 0.09362 0.0
H953 H 0.58251 0.98166 0.12075 0.0
H954 H 0.68592 0.02071 0.09589 0.0
H955 H 0.69807 0.06533 0.13847 0.0
H956 H 0.62023 0.05302 0.08541 0.0
C957 C 0.5921 0.95429 0.99294 0.0
C958 C 0.60177 0.93643 0.9832 0.0
C959 C 0.62857 0.94441 0.99875 0.0
C960 C 0.64519 0.9695 0.02622 0.0
C961 C 0.63474 0.98641 0.0369 0.0
C962 C 0.60898 0.97932 0.01918 0.0
C963 C 0.60237 1.00092 0.03491 0.0
C964 C 0.59702 0.01256 0.97687 0.0
C965 C 0.57857 0.99032 0.07932 0.0
C966 C 0.62821 0.02115 0.06535 0.0
C967 C 0.64663 0.01245 0.06682 0.0
C968 C 0.67169 0.02777 0.09434 0.0
C969 C 0.67833 0.05293 0.11905 0.0
C970 C 0.66008 0.06258 0.11534 0.0
C971 C 0.63462 0.04619 0.08888 0.0
H972 H 0.62919 0.56585 0.1657 0.0
H973 H 0.71097 0.63161 0.15333 0.0
H974 H 0.69704 0.66204 0.20008 0.0
H975 H 0.59744 0.60517 0.12871 0.0
H976 H 0.56973 0.58595 0.17954 0.0
H977 H 0.5867 0.57045 0.14408 0.0
H978 H 0.59535 0.55676 0.2507 0.0
H979 H 0.57896 0.57277 0.28656 0.0
H980 H 0.61282 0.58225 0.30746 0.0
H981 H 0.6735 0.68425 0.25612 0.0
H982 H 0.64193 0.69743 0.29964 0.0
H983 H 0.576 0.6169 0.26933 0.0
C984 C 0.64412 0.58677 0.17203 0.0
C985 C 0.67113 0.59647 0.15585 0.0
C986 C 0.6901 0.62392 0.16475 0.0
C987 C 0.68239 0.64122 0.19184 0.0
C988 C 0.65559 0.63075 0.20886 0.0
C989 C 0.6367 0.60424 0.1979 0.0
C990 C 0.6091 0.59775 0.21873 0.0
C991 C 0.5896 0.58935 0.16454 0.0
C992 C 0.59845 0.57611 0.26883 0.0
C993 C 0.61527 0.62466 0.24376 0.0
C994 C 0.6422 0.64347 0.23862 0.0
C995 C 0.65237 0.66966 0.25992 0.0
C996 C 0.63441 0.67692 0.28518 0.0
C997 C 0.60663 0.65813 0.28805 0.0
C998 C 0.59718 0.63165 0.26783 0.0
H999 H 0.07071 0.6461 0.39123 0.0
H1000 H 0.06151 0.68505 0.23061 0.0
H1001 H 0.01454 0.66972 0.26126 0.0
H1002 H 0.00684 0.58845 0.38638 0.0
H1003 H 1.00313 0.58559 0.468 0.0
H1004 H 0.03601 0.60113 0.43459 0.0
H1005 H 0.05001 0.6438 0.49895 0.0
H1006 H 0.017 0.62846 0.53212 0.0
H1007 H 0.03063 0.66047 0.49419 0.0
H1008 H 0.96747 0.6474 0.30777 0.0
H1009 H 0.92468 0.61862 0.36157 0.0
H1010 H 0.96586 0.59526 0.49154 0.0
C1011 C 0.05907 0.6517 0.36223 0.0
C1012 C 0.07002 0.66691 0.30823 0.0
C1013 C 0.05371 0.67345 0.27205 0.0
C1014 C 0.02704 0.66493 0.28935 0.0
C1015 C 0.01708 0.65003 0.34307 0.0
C1016 C 0.0327 0.64346 0.37873 0.0
C1017 C 0.01722 0.62617 0.43266 0.0
C1018 C 0.01571 0.59871 0.43022 0.0
C1019 C 0.02945 0.6406 0.49305 0.0
C1020 C 0.9901 0.62353 0.42164 0.0
C1021 C 0.99042 0.63761 0.37001 0.0
C1022 C 0.96718 0.63667 0.3486 0.0
C1023 C 0.94298 0.62034 0.37951 0.0
C1024 C 0.9422 0.60527 0.43137 0.0
C1025 C 0.96615 0.60736 0.45334 0.0
H1026 H 0.42563 0.05376 0.44104 0.0
H1027 H 0.3718 0.07949 0.50913 0.0
H1028 H 0.34526 0.0359 0.56259 0.0
H1029 H 0.3751 0.98092 0.4239 0.0
H1030 H 0.39907 0.97143 0.44846 0.0
H1031 H 0.41028 1.00261 0.40842 0.0
H1032 H 0.44275 0.02765 0.49761 0.0
H1033 H 0.43091 0.99672 0.53899 0.0
H1034 H 0.42952 0.02436 0.57349 0.0
H1035 H 0.32744 0.99018 0.6179 0.0
H1036 H 0.31756 0.94563 0.65811 0.0
H1037 H 0.38545 0.95281 0.55714 0.0
C1038 C 0.40739 0.04956 0.46442 0.0
C1039 C 0.39997 0.06937 0.4688 0.0
C1040 C 0.377 0.06398 0.50308 0.0
C1041 C 0.3621 0.03946 0.53435 0.0
C1042 C 0.37064 0.02068 0.53129 0.0
C1043 C 0.39253 0.02536 0.49618 0.0
C1044 C 0.39895 1.00307 0.50342 0.0
C1045 C 0.39564 0.98865 0.44244 0.0
C1046 C 0.4272 0.0136 0.52996 0.0
C1047 C 0.37755 0.98525 0.54855 0.0
C1048 C 0.36127 0.99549 0.56433 0.0
C1049 C 0.34006 0.98198 0.60551 0.0
C1050 C 0.33478 0.95689 0.6289 0.0
C1051 C 0.35075 0.94576 0.61104 0.0
C1052 C 0.3728 0.9607 0.5718 0.0
H1053 H 0.35118 0.40293 0.60818 0.0
H1054 H 0.31564 0.40667 0.77882 0.0
H1055 H 0.33204 0.37921 0.82851 0.0
H1056 H 0.3417 0.33364 0.63003 0.0
H1057 H 0.37382 0.34358 0.59616 0.0
H1058 H 0.35485 0.35903 0.57137 0.0
H1059 H 0.3955 0.40588 0.59512 0.0
H1060 H 0.41444 0.3906 0.62045 0.0
H1061 H 0.4098 0.41269 0.67053 0.0
H1062 H 0.35803 0.3566 0.86362 0.0
H1063 H 0.39058 0.34069 0.8786 0.0
H1064 H 0.40907 0.35248 0.68538 0.0
C1065 C 0.34588 0.39695 0.65524 0.0
C1066 C 0.33177 0.40661 0.68932 0.0
C1067 C 0.32621 0.39933 0.75161 0.0
C1068 C 0.33543 0.38367 0.78034 0.0
C1069 C 0.35029 0.37536 0.74627 0.0
C1070 C 0.35526 0.38154 0.68485 0.0
C1071 C 0.37419 0.37282 0.66019 0.0
C1072 C 0.3603 0.35096 0.61157 0.0
C1073 C 0.4 0.39693 0.63514 0.0
C1074 C 0.37966 0.3616 0.71751 0.0
C1075 C 0.36551 0.36284 0.76669 0.0
C1076 C 0.36891 0.35513 0.82511 0.0
C1077 C 0.38744 0.34614 0.83334 0.0
C1078 C 0.40253 0.3453 0.78349 0.0
C1079 C 0.39799 0.35274 0.72488 0.0
loop_
_geom_bond_atom_site_label_1
_geom_bond_atom_site_label_2
_geom_bond_distance
_geom_bond_site_symmetry_2
_ccdc_geom_bond_type
Mn0 O5 2.095 . S
Mn0 O15 2.162 . S
Mn0 O16 2.297 . S
Mn0 O24 2.385 1_554 S
Mn0 O25 2.209 1_554 S
Mn0 O26 2.094 . S
Mn1 O6 2.121 . S
Mn1 N8 2.257 . S
Mn1 N17 2.282 . S
Mn1 O25 2.215 . S
Mn1 O27 2.117 . S
C2 O24 1.234 . S
C2 O25 1.283 . S
C3 O15 1.281 . S
C3 O16 1.236 . S
C4 O26 1.240 1_556 S
C4 O27 1.264 . S
O5 Mn0 2.095 . S
O5 C14 1.250 . S
O6 Mn1 2.121 . S
O6 C14 1.258 1_556 S
C7 N8 1.326 . S
C7 C11 1.460 . S
C7 H13 0.929 . S
N8 Mn1 2.257 . S
N8 C7 1.326 . S
N8 C12 1.362 . S
C9 C10 1.258 . S
C9 C12 1.431 . S
C9 C29 1.449 . S
C10 C9 1.258 . S
C10 C11 1.477 . S
C10 H30 0.931 . S
C11 C7 1.460 . S
C11 C10 1.477 . S
C11 H31 0.930 . S
C12 N8 1.362 . S
C12 C9 1.431 . S
C12 C22 1.476 . S
H13 C7 0.929 . S
C14 O5 1.250 . S
C14 O6 1.258 1_554 S
O15 Mn0 2.162 . S
O15 C3 1.281 . S
O16 Mn0 2.297 . S
O16 C3 1.236 . S
N17 Mn1 2.282 . S
N17 C18 1.328 . S
N17 C22 1.318 . S
C18 N17 1.328 . S
C18 C19 1.457 . S
C18 H23 0.929 . S
C19 C18 1.457 . S
C19 C20 1.291 . S
C19 H32 0.931 . S
C20 C19 1.291 . S
C20 C21 1.373 . S
C20 H33 0.929 . S
C21 C20 1.373 . S
C21 C22 1.396 . S
C21 C28 1.403 . S
C22 C12 1.476 . S
C22 N17 1.318 . S
C22 C21 1.396 . S
H23 C18 0.929 . S
O24 Mn0 2.385 1_556 S
O24 C2 1.234 . S
O25 Mn0 2.209 1_556 S
O25 Mn1 2.215 . S
O25 C2 1.283 . S
O26 Mn0 2.094 . S
O26 C4 1.240 1_554 S
O27 Mn1 2.117 . S
O27 C4 1.264 . S
C28 C21 1.403 . S
C28 C29 1.399 . S
C28 H34 0.929 . S
C29 C9 1.449 . S
C29 C28 1.399 . S
C29 H35 0.930 . S
H30 C10 0.931 . S
H31 C11 0.930 . S
H32 C19 0.931 . S
H33 C20 0.929 . S
H34 C28 0.929 . S
H35 C29 0.930 . S
Mn36 O41 2.095 . S
Mn36 O51 2.162 . S
Mn36 O52 2.297 . S
Mn36 O60 2.385 . S
Mn36 O61 2.209 . S
Mn36 O62 2.094 . S
Mn37 O42 2.121 . S
Mn37 N44 2.257 . S
Mn37 N53 2.282 1_554 S
Mn37 O61 2.215 . S
Mn37 O63 2.117 . S
C38 O60 1.234 . S
C38 O61 1.283 . S
C39 O51 1.281 . S
C39 O52 1.236 . S
C40 O62 1.240 . S
C40 O63 1.264 . S
O41 Mn36 2.095 . S
O41 C50 1.250 . S
O42 Mn37 2.121 . S
O42 C50 1.258 . S
C43 N44 1.326 . S
C43 C47 1.460 . S
C43 H49 0.929 . S
N44 Mn37 2.257 . S
N44 C43 1.326 . S
N44 C48 1.362 1_554 S
C45 C46 1.258 . S
C45 C48 1.431 . S
C45 C65 1.449 . S
C46 C45 1.258 . S
C46 C47 1.477 1_556 S
C46 H66 0.931 . S
C47 C43 1.460 . S
C47 C46 1.477 1_554 S
C47 H67 0.930 . S
C48 N44 1.362 1_556 S
C48 C45 1.431 . S
C48 C58 1.476 . S
H49 C43 0.929 . S
C50 O41 1.250 . S
C50 O42 1.258 . S
O51 Mn36 2.162 . S
O51 C39 1.281 . S
O52 Mn36 2.297 . S
O52 C39 1.236 . S
N53 Mn37 2.282 1_556 S
N53 C54 1.328 . S
N53 C58 1.318 . S
C54 N53 1.328 . S
C54 C55 1.457 . S
C54 H59 0.929 1_556 S
C55 C54 1.457 . S
C55 C56 1.291 . S
C55 H68 0.931 . S
C56 C55 1.291 . S
C56 C57 1.373 . S
C56 H69 0.929 . S
C57 C56 1.373 . S
C57 C58 1.396 . S
C57 C64 1.403 . S
C58 C48 1.476 . S
C58 N53 1.318 . S
C58 C57 1.396 . S
H59 C54 0.929 1_554 S
O60 Mn36 2.385 . S
O60 C38 1.234 . S
O61 Mn36 2.209 . S
O61 Mn37 2.215 . S
O61 C38 1.283 . S
O62 Mn36 2.094 . S
O62 C40 1.240 . S
O63 Mn37 2.117 . S
O63 C40 1.264 . S
C64 C57 1.403 . S
C64 C65 1.399 . S
C64 H70 0.929 . S
C65 C45 1.449 . S
C65 C64 1.399 . S
C65 H71 0.930 . S
H66 C46 0.931 . S
H67 C47 0.930 . S
H68 C55 0.931 . S
H69 C56 0.929 . S
H70 C64 0.929 . S
H71 C65 0.930 . S
Mn72 O77 2.095 . S
Mn72 O87 2.162 . S
Mn72 O88 2.297 . S
Mn72 O96 2.385 . S
Mn72 O97 2.209 . S
Mn72 O98 2.094 . S
Mn73 O78 2.121 . S
Mn73 N80 2.257 . S
Mn73 N89 2.282 . S
Mn73 O97 2.215 . S
Mn73 O99 2.117 . S
C74 O96 1.234 . S
C74 O97 1.283 . S
C75 O87 1.281 . S
C75 O88 1.236 . S
C76 O98 1.240 . S
C76 O99 1.264 . S
O77 Mn72 2.095 . S
O77 C86 1.250 . S
O78 Mn73 2.121 . S
O78 C86 1.258 . S
C79 N80 1.326 . S
C79 C83 1.460 . S
C79 H85 0.929 . S
N80 Mn73 2.257 . S
N80 C79 1.326 . S
N80 C84 1.362 . S
C81 C82 1.258 . S
C81 C84 1.431 . S
C81 C101 1.449 . S
C82 C81 1.258 . S
C82 C83 1.477 . S
C82 H102 0.931 . S
C83 C79 1.460 . S
C83 C82 1.477 . S
C83 H103 0.930 . S
C84 N80 1.362 . S
C84 C81 1.431 . S
C84 C94 1.476 . S
H85 C79 0.929 . S
C86 O77 1.250 . S
C86 O78 1.258 . S
O87 Mn72 2.162 . S
O87 C75 1.281 . S
O88 Mn72 2.297 . S
O88 C75 1.236 . S
N89 Mn73 2.282 . S
N89 C90 1.328 . S
N89 C94 1.318 . S
C90 N89 1.328 . S
C90 C91 1.457 . S
C90 H95 0.929 . S
C91 C90 1.457 . S
C91 C92 1.291 . S
C91 H104 0.931 . S
C92 C91 1.291 . S
C92 C93 1.373 . S
C92 H105 0.929 . S
C93 C92 1.373 . S
C93 C94 1.396 . S
C93 C100 1.403 . S
C94 C84 1.476 . S
C94 N89 1.318 . S
C94 C93 1.396 . S
H95 C90 0.929 . S
O96 Mn72 2.385 . S
O96 C74 1.234 . S
O97 Mn72 2.209 . S
O97 Mn73 2.215 . S
O97 C74 1.283 . S
O98 Mn72 2.094 . S
O98 C76 1.240 . S
O99 Mn73 2.117 . S
O99 C76 1.264 . S
C100 C93 1.403 . S
C100 C101 1.399 . S
C100 H106 0.929 1_554 S
C101 C81 1.449 . S
C101 C100 1.399 . S
C101 H107 0.930 . S
H102 C82 0.931 . S
H103 C83 0.930 . S
H104 C91 0.931 . S
H105 C92 0.929 . S
H106 C100 0.929 1_556 S
H107 C101 0.930 . S
Mn108 O113 2.095 . S
Mn108 O123 2.162 . S
Mn108 O124 2.297 . S
Mn108 O132 2.385 . S
Mn108 O133 2.209 . S
Mn108 O134 2.094 . S
Mn109 O114 2.121 . S
Mn109 N116 2.257 . S
Mn109 N125 2.282 . S
Mn109 O133 2.215 . S
Mn109 O135 2.117 . S
C110 O132 1.234 . S
C110 O133 1.283 . S
C111 O123 1.281 . S
C111 O124 1.236 . S
C112 O134 1.240 . S
C112 O135 1.264 . S
O113 Mn108 2.095 . S
O113 C122 1.250 . S
O114 Mn109 2.121 . S
O114 C122 1.258 . S
C115 N116 1.326 . S
C115 C119 1.460 . S
C115 H121 0.929 . S
N116 Mn109 2.257 . S
N116 C115 1.326 . S
N116 C120 1.362 . S
C117 C118 1.258 . S
C117 C120 1.431 . S
C117 C137 1.449 . S
C118 C117 1.258 . S
C118 C119 1.477 . S
C118 H138 0.931 . S
C119 C115 1.460 . S
C119 C118 1.477 . S
C119 H139 0.930 . S
C120 N116 1.362 . S
C120 C117 1.431 . S
C120 C130 1.476 . S
H121 C115 0.929 . S
C122 O113 1.250 . S
C122 O114 1.258 . S
O123 Mn108 2.162 . S
O123 C111 1.281 . S
O124 Mn108 2.297 . S
O124 C111 1.236 . S
N125 Mn109 2.282 . S
N125 C126 1.328 . S
N125 C130 1.318 . S
C126 N125 1.328 . S
C126 C127 1.457 . S
C126 H131 0.929 . S
C127 C126 1.457 . S
C127 C128 1.291 . S
C127 H140 0.931 . S
C128 C127 1.291 . S
C128 C129 1.373 . S
C128 H141 0.929 . S
C129 C128 1.373 . S
C129 C130 1.396 . S
C129 C136 1.403 . S
C130 C120 1.476 . S
C130 N125 1.318 . S
C130 C129 1.396 . S
H131 C126 0.929 . S
O132 Mn108 2.385 . S
O132 C110 1.234 . S
O133 Mn108 2.209 . S
O133 Mn109 2.215 . S
O133 C110 1.283 . S
O134 Mn108 2.094 . S
O134 C112 1.240 . S
O135 Mn109 2.117 . S
O135 C112 1.264 . S
C136 C129 1.403 . S
C136 C137 1.399 . S
C136 H142 0.929 . S
C137 C117 1.449 . S
C137 C136 1.399 . S
C137 H143 0.930 . S
H138 C118 0.931 . S
H139 C119 0.930 . S
H140 C127 0.931 . S
H141 C128 0.929 . S
H142 C136 0.929 . S
H143 C137 0.930 . S
Mn144 O149 2.095 . S
Mn144 O159 2.162 . S
Mn144 O160 2.297 . S
Mn144 O168 2.385 . S
Mn144 O169 2.209 . S
Mn144 O170 2.094 . S
Mn145 O150 2.121 . S
Mn145 N152 2.257 . S
Mn145 N161 2.282 . S
Mn145 O169 2.215 . S
Mn145 O171 2.117 . S
C146 O168 1.234 . S
C146 O169 1.283 . S
C147 O159 1.281 . S
C147 O160 1.236 . S
C148 O170 1.240 . S
C148 O171 1.264 . S
O149 Mn144 2.095 . S
O149 C158 1.250 . S
O150 Mn145 2.121 . S
O150 C158 1.258 . S
C151 N152 1.326 . S
C151 C155 1.460 . S
C151 H157 0.929 . S
N152 Mn145 2.257 . S
N152 C151 1.326 . S
N152 C156 1.362 . S
C153 C154 1.258 . S
C153 C156 1.431 . S
C153 C173 1.449 . S
C154 C153 1.258 . S
C154 C155 1.477 . S
C154 H174 0.931 . S
C155 C151 1.460 . S
C155 C154 1.477 . S
C155 H175 0.930 . S
C156 N152 1.362 . S
C156 C153 1.431 . S
C156 C166 1.476 . S
H157 C151 0.929 . S
C158 O149 1.250 . S
C158 O150 1.258 . S
O159 Mn144 2.162 . S
O159 C147 1.281 . S
O160 Mn144 2.297 . S
O160 C147 1.236 . S
N161 Mn145 2.282 . S
N161 C162 1.328 . S
N161 C166 1.318 . S
C162 N161 1.328 . S
C162 C163 1.457 . S
C162 H167 0.929 . S
C163 C162 1.457 . S
C163 C164 1.291 . S
C163 H176 0.931 . S
C164 C163 1.291 . S
C164 C165 1.373 . S
C164 H177 0.929 . S
C165 C164 1.373 . S
C165 C166 1.396 . S
C165 C172 1.403 . S
C166 C156 1.476 . S
C166 N161 1.318 . S
C166 C165 1.396 . S
H167 C162 0.929 . S
O168 Mn144 2.385 . S
O168 C146 1.234 . S
O169 Mn144 2.209 . S
O169 Mn145 2.215 . S
O169 C146 1.283 . S
O170 Mn144 2.094 . S
O170 C148 1.240 . S
O171 Mn145 2.117 . S
O171 C148 1.264 . S
C172 C165 1.403 . S
C172 C173 1.399 . S
C172 H178 0.929 . S
C173 C153 1.449 . S
C173 C172 1.399 . S
C173 H179 0.930 . S
H174 C154 0.931 . S
H175 C155 0.930 . S
H176 C163 0.931 . S
H177 C164 0.929 . S
H178 C172 0.929 . S
H179 C173 0.930 . S
Mn180 O185 2.095 . S
Mn180 O195 2.162 . S
Mn180 O196 2.297 . S
Mn180 O204 2.385 . S
Mn180 O205 2.209 . S
Mn180 O206 2.094 . S
Mn181 O186 2.121 . S
Mn181 N188 2.257 . S
Mn181 N197 2.282 . S
Mn181 O205 2.215 . S
Mn181 O207 2.117 . S
C182 O204 1.234 . S
C182 O205 1.283 . S
C183 O195 1.281 . S
C183 O196 1.236 . S
C184 O206 1.240 . S
C184 O207 1.264 . S
O185 Mn180 2.095 . S
O185 C194 1.250 . S
O186 Mn181 2.121 . S
O186 C194 1.258 . S
C187 N188 1.326 . S
C187 C191 1.460 . S
C187 H193 0.929 . S
N188 Mn181 2.257 . S
N188 C187 1.326 . S
N188 C192 1.362 . S
C189 C190 1.258 . S
C189 C192 1.431 . S
C189 C209 1.449 . S
C190 C189 1.258 . S
C190 C191 1.477 . S
C190 H210 0.931 . S
C191 C187 1.460 . S
C191 C190 1.477 . S
C191 H211 0.930 . S
C192 N188 1.362 . S
C192 C189 1.431 . S
C192 C202 1.476 . S
H193 C187 0.929 . S
C194 O185 1.250 . S
C194 O186 1.258 . S
O195 Mn180 2.162 . S
O195 C183 1.281 . S
O196 Mn180 2.297 . S
O196 C183 1.236 . S
N197 Mn181 2.282 . S
N197 C198 1.328 . S
N197 C202 1.318 . S
C198 N197 1.328 . S
C198 C199 1.457 . S
C198 H203 0.929 . S
C199 C198 1.457 . S
C199 C200 1.291 . S
C199 H212 0.931 . S
C200 C199 1.291 . S
C200 C201 1.373 . S
C200 H213 0.929 . S
C201 C200 1.373 . S
C201 C202 1.396 . S
C201 C208 1.403 . S
C202 C192 1.476 . S
C202 N197 1.318 . S
C202 C201 1.396 . S
H203 C198 0.929 . S
O204 Mn180 2.385 . S
O204 C182 1.234 . S
O205 Mn180 2.209 . S
O205 Mn181 2.215 . S
O205 C182 1.283 . S
O206 Mn180 2.094 . S
O206 C184 1.240 . S
O207 Mn181 2.117 . S
O207 C184 1.264 . S
C208 C201 1.403 . S
C208 C209 1.399 . S
C208 H214 0.929 . S
C209 C189 1.449 . S
C209 C208 1.399 . S
C209 H215 0.930 . S
H210 C190 0.931 . S
H211 C191 0.930 . S
H212 C199 0.931 . S
H213 C200 0.929 . S
H214 C208 0.929 . S
H215 C209 0.930 . S
Mn216 O221 2.095 . S
Mn216 O231 2.162 . S
Mn216 O232 2.297 . S
Mn216 O240 2.385 . S
Mn216 O241 2.209 . S
Mn216 O242 2.094 . S
Mn217 O222 2.121 . S
Mn217 N224 2.257 1_556 S
Mn217 N233 2.282 1_556 S
Mn217 O241 2.215 . S
Mn217 O243 2.117 . S
C218 O240 1.234 . S
C218 O241 1.283 . S
C219 O231 1.281 . S
C219 O232 1.236 . S
C220 O242 1.240 . S
C220 O243 1.264 . S
O221 Mn216 2.095 . S
O221 C230 1.250 . S
O222 Mn217 2.121 . S
O222 C230 1.258 . S
C223 N224 1.326 . S
C223 C227 1.460 . S
C223 H229 0.929 1_554 S
N224 Mn217 2.257 1_554 S
N224 C223 1.326 . S
N224 C228 1.362 . S
C225 C226 1.258 . S
C225 C228 1.431 . S
C225 C245 1.449 . S
C226 C225 1.258 . S
C226 C227 1.477 . S
C226 H246 0.931 . S
C227 C223 1.460 . S
C227 C226 1.477 . S
C227 H247 0.930 . S
C228 N224 1.362 . S
C228 C225 1.431 . S
C228 C238 1.476 . S
H229 C223 0.929 1_556 S
C230 O221 1.250 . S
C230 O222 1.258 . S
O231 Mn216 2.162 . S
O231 C219 1.281 . S
O232 Mn216 2.297 . S
O232 C219 1.236 . S
N233 Mn217 2.282 1_554 S
N233 C234 1.328 . S
N233 C238 1.318 . S
C234 N233 1.328 . S
C234 C235 1.457 . S
C234 H239 0.929 . S
C235 C234 1.457 . S
C235 C236 1.291 . S
C235 H248 0.931 . S
C236 C235 1.291 . S
C236 C237 1.373 . S
C236 H249 0.929 . S
C237 C236 1.373 . S
C237 C238 1.396 . S
C237 C244 1.403 . S
C238 C228 1.476 . S
C238 N233 1.318 . S
C238 C237 1.396 . S
H239 C234 0.929 . S
O240 Mn216 2.385 . S
O240 C218 1.234 . S
O241 Mn216 2.209 . S
O241 Mn217 2.215 . S
O241 C218 1.283 . S
O242 Mn216 2.094 . S
O242 C220 1.240 . S
O243 Mn217 2.117 . S
O243 C220 1.264 . S
C244 C237 1.403 . S
C244 C245 1.399 . S
C244 H250 0.929 . S
C245 C225 1.449 . S
C245 C244 1.399 . S
C245 H251 0.930 . S
H246 C226 0.931 . S
H247 C227 0.930 . S
H248 C235 0.931 . S
H249 C236 0.929 . S
H250 C244 0.929 . S
H251 C245 0.930 . S
Mn252 O257 2.095 . S
Mn252 O267 2.162 1_554 S
Mn252 O268 2.297 1_554 S
Mn252 O276 2.385 . S
Mn252 O277 2.209 . S
Mn252 O278 2.094 . S
Mn253 O258 2.121 . S
Mn253 N260 2.257 . S
Mn253 N269 2.282 . S
Mn253 O277 2.215 . S
Mn253 O279 2.117 . S
C254 O276 1.234 . S
C254 O277 1.283 . S
C255 O267 1.281 . S
C255 O268 1.236 . S
C256 O278 1.240 . S
C256 O279 1.264 . S
O257 Mn252 2.095 . S
O257 C266 1.250 . S
O258 Mn253 2.121 . S
O258 C266 1.258 . S
C259 N260 1.326 . S
C259 C263 1.460 . S
C259 H265 0.929 . S
N260 Mn253 2.257 . S
N260 C259 1.326 . S
N260 C264 1.362 . S
C261 C262 1.258 . S
C261 C264 1.431 . S
C261 C281 1.449 . S
C262 C261 1.258 . S
C262 C263 1.477 . S
C262 H282 0.931 . S
C263 C259 1.460 . S
C263 C262 1.477 . S
C263 H283 0.930 . S
C264 N260 1.362 . S
C264 C261 1.431 . S
C264 C274 1.476 . S
H265 C259 0.929 . S
C266 O257 1.250 . S
C266 O258 1.258 . S
O267 Mn252 2.162 1_556 S
O267 C255 1.281 . S
O268 Mn252 2.297 1_556 S
O268 C255 1.236 . S
N269 Mn253 2.282 . S
N269 C270 1.328 . S
N269 C274 1.318 . S
C270 N269 1.328 . S
C270 C271 1.457 . S
C270 H275 0.929 . S
C271 C270 1.457 . S
C271 C272 1.291 . S
C271 H284 0.931 . S
C272 C271 1.291 . S
C272 C273 1.373 . S
C272 H285 0.929 . S
C273 C272 1.373 . S
C273 C274 1.396 . S
C273 C280 1.403 . S
C274 C264 1.476 . S
C274 N269 1.318 . S
C274 C273 1.396 . S
H275 C270 0.929 . S
O276 Mn252 2.385 . S
O276 C254 1.234 . S
O277 Mn252 2.209 . S
O277 Mn253 2.215 . S
O277 C254 1.283 . S
O278 Mn252 2.094 . S
O278 C256 1.240 . S
O279 Mn253 2.117 . S
O279 C256 1.264 . S
C280 C273 1.403 . S
C280 C281 1.399 . S
C280 H286 0.929 . S
C281 C261 1.449 . S
C281 C280 1.399 . S
C281 H287 0.930 . S
H282 C262 0.931 . S
H283 C263 0.930 . S
H284 C271 0.931 . S
H285 C272 0.929 . S
H286 C280 0.929 . S
H287 C281 0.930 . S
Mn288 O293 2.095 . S
Mn288 O303 2.162 . S
Mn288 O304 2.297 . S
Mn288 O312 2.385 . S
Mn288 O313 2.209 . S
Mn288 O314 2.094 . S
Mn289 O294 2.121 . S
Mn289 N296 2.257 . S
Mn289 N305 2.282 . S
Mn289 O313 2.215 . S
Mn289 O315 2.117 . S
C290 O312 1.234 . S
C290 O313 1.283 . S
C291 O303 1.281 . S
C291 O304 1.236 . S
C292 O314 1.240 . S
C292 O315 1.264 . S
O293 Mn288 2.095 . S
O293 C302 1.250 . S
O294 Mn289 2.121 . S
O294 C302 1.258 . S
C295 N296 1.326 . S
C295 C299 1.460 . S
C295 H301 0.929 . S
N296 Mn289 2.257 . S
N296 C295 1.326 . S
N296 C300 1.362 . S
C297 C298 1.258 . S
C297 C300 1.431 . S
C297 C317 1.449 . S
C298 C297 1.258 . S
C298 C299 1.477 . S
C298 H318 0.931 . S
C299 C295 1.460 . S
C299 C298 1.477 . S
C299 H319 0.930 . S
C300 N296 1.362 . S
C300 C297 1.431 . S
C300 C310 1.476 . S
H301 C295 0.929 . S
C302 O293 1.250 . S
C302 O294 1.258 . S
O303 Mn288 2.162 . S
O303 C291 1.281 . S
O304 Mn288 2.297 . S
O304 C291 1.236 . S
N305 Mn289 2.282 . S
N305 C306 1.328 . S
N305 C310 1.318 . S
C306 N305 1.328 . S
C306 C307 1.457 . S
C306 H311 0.929 . S
C307 C306 1.457 . S
C307 C308 1.291 . S
C307 H320 0.931 . S
C308 C307 1.291 . S
C308 C309 1.373 . S
C308 H321 0.929 . S
C309 C308 1.373 . S
C309 C310 1.396 . S
C309 C316 1.403 . S
C310 C300 1.476 . S
C310 N305 1.318 . S
C310 C309 1.396 . S
H311 C306 0.929 . S
O312 Mn288 2.385 . S
O312 C290 1.234 . S
O313 Mn288 2.209 . S
O313 Mn289 2.215 . S
O313 C290 1.283 . S
O314 Mn288 2.094 . S
O314 C292 1.240 . S
O315 Mn289 2.117 . S
O315 C292 1.264 . S
C316 C309 1.403 . S
C316 C317 1.399 . S
C316 H322 0.929 . S
C317 C297 1.449 . S
C317 C316 1.399 . S
C317 H323 0.930 . S
H318 C298 0.931 . S
H319 C299 0.930 . S
H320 C307 0.931 . S
H321 C308 0.929 . S
H322 C316 0.929 . S
H323 C317 0.930 . S
Mn324 O329 2.095 . S
Mn324 O339 2.162 . S
Mn324 O340 2.297 . S
Mn324 O348 2.385 . S
Mn324 O349 2.209 . S
Mn324 O350 2.094 . S
Mn325 O330 2.121 . S
Mn325 N332 2.257 . S
Mn325 N341 2.282 . S
Mn325 O349 2.215 . S
Mn325 O351 2.117 . S
C326 O348 1.234 . S
C326 O349 1.283 . S
C327 O339 1.281 . S
C327 O340 1.236 . S
C328 O350 1.240 . S
C328 O351 1.264 . S
O329 Mn324 2.095 . S
O329 C338 1.250 . S
O330 Mn325 2.121 . S
O330 C338 1.258 . S
C331 N332 1.326 . S
C331 C335 1.460 . S
C331 H337 0.929 . S
N332 Mn325 2.257 . S
N332 C331 1.326 . S
N332 C336 1.362 . S
C333 C334 1.258 . S
C333 C336 1.431 . S
C333 C353 1.449 . S
C334 C333 1.258 . S
C334 C335 1.477 . S
C334 H354 0.931 . S
C335 C331 1.460 . S
C335 C334 1.477 . S
C335 H355 0.930 . S
C336 N332 1.362 . S
C336 C333 1.431 . S
C336 C346 1.476 . S
H337 C331 0.929 . S
C338 O329 1.250 . S
C338 O330 1.258 . S
O339 Mn324 2.162 . S
O339 C327 1.281 . S
O340 Mn324 2.297 . S
O340 C327 1.236 . S
N341 Mn325 2.282 . S
N341 C342 1.328 . S
N341 C346 1.318 . S
C342 N341 1.328 . S
C342 C343 1.457 . S
C342 H347 0.929 . S
C343 C342 1.457 . S
C343 C344 1.291 . S
C343 H356 0.931 . S
C344 C343 1.291 . S
C344 C345 1.373 . S
C344 H357 0.929 . S
C345 C344 1.373 . S
C345 C346 1.396 . S
C345 C352 1.403 . S
C346 C336 1.476 . S
C346 N341 1.318 . S
C346 C345 1.396 . S
H347 C342 0.929 . S
O348 Mn324 2.385 . S
O348 C326 1.234 . S
O349 Mn324 2.209 . S
O349 Mn325 2.215 . S
O349 C326 1.283 . S
O350 Mn324 2.094 . S
O350 C328 1.240 . S
O351 Mn325 2.117 . S
O351 C328 1.264 . S
C352 C345 1.403 . S
C352 C353 1.399 . S
C352 H358 0.929 . S
C353 C333 1.449 . S
C353 C352 1.399 . S
C353 H359 0.930 . S
H354 C334 0.931 . S
H355 C335 0.930 . S
H356 C343 0.931 . S
H357 C344 0.929 . S
H358 C352 0.929 . S
H359 C353 0.930 . S
Mn360 O365 2.095 . S
Mn360 O375 2.162 . S
Mn360 O376 2.297 . S
Mn360 O384 2.385 . S
Mn360 O385 2.209 . S
Mn360 O386 2.094 . S
Mn361 O366 2.121 . S
Mn361 N368 2.257 . S
Mn361 N377 2.282 . S
Mn361 O385 2.215 . S
Mn361 O387 2.117 . S
C362 O384 1.234 . S
C362 O385 1.283 . S
C363 O375 1.281 . S
C363 O376 1.236 . S
C364 O386 1.240 . S
C364 O387 1.264 . S
O365 Mn360 2.095 . S
O365 C374 1.250 . S
O366 Mn361 2.121 . S
O366 C374 1.258 . S
C367 N368 1.326 . S
C367 C371 1.460 . S
C367 H373 0.929 . S
N368 Mn361 2.257 . S
N368 C367 1.326 . S
N368 C372 1.362 . S
C369 C370 1.258 . S
C369 C372 1.431 . S
C369 C389 1.449 . S
C370 C369 1.258 . S
C370 C371 1.477 . S
C370 H390 0.931 . S
C371 C367 1.460 . S
C371 C370 1.477 . S
C371 H391 0.930 . S
C372 N368 1.362 . S
C372 C369 1.431 . S
C372 C382 1.476 . S
H373 C367 0.929 . S
C374 O365 1.250 . S
C374 O366 1.258 . S
O375 Mn360 2.162 . S
O375 C363 1.281 . S
O376 Mn360 2.297 . S
O376 C363 1.236 . S
N377 Mn361 2.282 . S
N377 C378 1.328 . S
N377 C382 1.318 . S
C378 N377 1.328 . S
C378 C379 1.457 . S
C378 H383 0.929 . S
C379 C378 1.457 . S
C379 C380 1.291 . S
C379 H392 0.931 . S
C380 C379 1.291 . S
C380 C381 1.373 . S
C380 H393 0.929 . S
C381 C380 1.373 . S
C381 C382 1.396 . S
C381 C388 1.403 . S
C382 C372 1.476 . S
C382 N377 1.318 . S
C382 C381 1.396 . S
H383 C378 0.929 . S
O384 Mn360 2.385 . S
O384 C362 1.234 . S
O385 Mn360 2.209 . S
O385 Mn361 2.215 . S
O385 C362 1.283 . S
O386 Mn360 2.094 . S
O386 C364 1.240 . S
O387 Mn361 2.117 . S
O387 C364 1.264 . S
C388 C381 1.403 . S
C388 C389 1.399 . S
C388 H394 0.929 . S
C389 C369 1.449 . S
C389 C388 1.399 . S
C389 H395 0.930 . S
H390 C370 0.931 . S
H391 C371 0.930 . S
H392 C379 0.931 . S
H393 C380 0.929 . S
H394 C388 0.929 . S
H395 C389 0.930 . S
Mn396 O401 2.095 . S
Mn396 O411 2.162 . S
Mn396 O412 2.297 . S
Mn396 O420 2.385 . S
Mn396 O421 2.209 . S
Mn396 O422 2.094 . S
Mn397 O402 2.121 . S
Mn397 N404 2.257 . S
Mn397 N413 2.282 . S
Mn397 O421 2.215 . S
Mn397 O423 2.117 . S
C398 O420 1.234 . S
C398 O421 1.283 . S
C399 O411 1.281 . S
C399 O412 1.236 . S
C400 O422 1.240 . S
C400 O423 1.264 . S
O401 Mn396 2.095 . S
O401 C410 1.250 . S
O402 Mn397 2.121 . S
O402 C410 1.258 . S
C403 N404 1.326 . S
C403 C407 1.460 . S
C403 H409 0.929 . S
N404 Mn397 2.257 . S
N404 C403 1.326 . S
N404 C408 1.362 . S
C405 C406 1.258 . S
C405 C408 1.431 . S
C405 C425 1.449 1_556 S
C406 C405 1.258 . S
C406 C407 1.477 . S
C406 H426 0.931 . S
C407 C403 1.460 . S
C407 C406 1.477 . S
C407 H427 0.930 . S
C408 N404 1.362 . S
C408 C405 1.431 . S
C408 C418 1.476 . S
H409 C403 0.929 . S
C410 O401 1.250 . S
C410 O402 1.258 . S
O411 Mn396 2.162 . S
O411 C399 1.281 . S
O412 Mn396 2.297 . S
O412 C399 1.236 . S
N413 Mn397 2.282 . S
N413 C414 1.328 . S
N413 C418 1.318 . S
C414 N413 1.328 . S
C414 C415 1.457 . S
C414 H419 0.929 . S
C415 C414 1.457 . S
C415 C416 1.291 1_556 S
C415 H428 0.931 . S
C416 C415 1.291 1_554 S
C416 C417 1.373 . S
C416 H429 0.929 . S
C417 C416 1.373 . S
C417 C418 1.396 1_554 S
C417 C424 1.403 . S
C418 C408 1.476 . S
C418 N413 1.318 . S
C418 C417 1.396 1_556 S
H419 C414 0.929 . S
O420 Mn396 2.385 . S
O420 C398 1.234 . S
O421 Mn396 2.209 . S
O421 Mn397 2.215 . S
O421 C398 1.283 . S
O422 Mn396 2.094 . S
O422 C400 1.240 . S
O423 Mn397 2.117 . S
O423 C400 1.264 . S
C424 C417 1.403 . S
C424 C425 1.399 . S
C424 H430 0.929 . S
C425 C405 1.449 1_554 S
C425 C424 1.399 . S
C425 H431 0.930 . S
H426 C406 0.931 . S
H427 C407 0.930 . S
H428 C415 0.931 . S
H429 C416 0.929 . S
H430 C424 0.929 . S
H431 C425 0.930 . S
H432 C444 0.930 . S
H433 C446 0.930 . S
H434 C447 0.930 . S
H435 C451 0.959 . S
H436 C451 0.959 . S
H437 C451 0.961 . S
H438 C452 0.960 . S
H439 C452 0.961 . S
H440 C452 0.959 . S
H441 C455 0.929 . S
H442 C456 0.931 . S
H443 C458 0.930 . S
C444 H432 0.930 . S
C444 C445 1.399 . S
C444 C449 1.399 . S
C445 C444 1.399 . S
C445 C446 1.376 . S
C446 H433 0.930 . S
C446 C445 1.376 . S
C446 C447 1.388 . S
C447 H434 0.930 . S
C447 C446 1.388 . S
C447 C448 1.390 . S
C448 C447 1.390 . S
C448 C449 1.394 . S
C448 C454 1.465 . S
C449 C444 1.399 . S
C449 C448 1.394 . S
C449 C450 1.516 . S
C450 C449 1.516 . S
C450 C451 1.502 . S
C450 C452 1.561 . S
C450 C453 1.526 . S
C451 H435 0.959 . S
C451 H436 0.959 . S
C451 H437 0.961 . S
C451 C450 1.502 . S
C452 H438 0.960 . S
C452 H439 0.961 . S
C452 H440 0.959 . S
C452 C450 1.561 . S
C453 C450 1.526 . S
C453 C454 1.396 . S
C453 C458 1.390 . S
C454 C448 1.465 . S
C454 C453 1.396 . S
C454 C455 1.399 . S
C455 H441 0.929 . S
C455 C454 1.399 . S
C455 C456 1.385 . S
C456 H442 0.931 . S
C456 C455 1.385 . S
C456 C457 1.389 . S
C457 C456 1.389 . S
C457 C458 1.387 . S
C458 H443 0.930 . S
C458 C453 1.390 . S
C458 C457 1.387 . S
H459 C471 0.930 . S
H460 C473 0.930 . S
H461 C474 0.930 . S
H462 C478 0.959 . S
H463 C478 0.959 . S
H464 C478 0.961 . S
H465 C479 0.960 . S
H466 C479 0.961 . S
H467 C479 0.959 . S
H468 C482 0.929 . S
H469 C483 0.931 . S
H470 C485 0.930 . S
C471 H459 0.930 . S
C471 C472 1.399 . S
C471 C476 1.399 . S
C472 C471 1.399 . S
C472 C473 1.376 . S
C473 H460 0.930 . S
C473 C472 1.376 . S
C473 C474 1.388 . S
C474 H461 0.930 . S
C474 C473 1.388 . S
C474 C475 1.390 . S
C475 C474 1.390 . S
C475 C476 1.394 . S
C475 C481 1.465 . S
C476 C471 1.399 . S
C476 C475 1.394 . S
C476 C477 1.516 . S
C477 C476 1.516 . S
C477 C478 1.502 . S
C477 C479 1.561 . S
C477 C480 1.526 . S
C478 H462 0.959 . S
C478 H463 0.959 . S
C478 H464 0.961 . S
C478 C477 1.502 . S
C479 H465 0.960 . S
C479 H466 0.961 . S
C479 H467 0.959 . S
C479 C477 1.561 . S
C480 C477 1.526 . S
C480 C481 1.396 . S
C480 C485 1.390 . S
C481 C475 1.465 . S
C481 C480 1.396 . S
C481 C482 1.399 . S
C482 H468 0.929 . S
C482 C481 1.399 . S
C482 C483 1.385 . S
C483 H469 0.931 . S
C483 C482 1.385 . S
C483 C484 1.389 . S
C484 C483 1.389 . S
C484 C485 1.387 . S
C485 H470 0.930 . S
C485 C480 1.390 . S
C485 C484 1.387 . S
H486 C498 0.930 . S
H487 C500 0.930 . S
H488 C501 0.930 . S
H489 C505 0.959 . S
H490 C505 0.959 . S
H491 C505 0.961 . S
H492 C506 0.960 . S
H493 C506 0.961 . S
H494 C506 0.959 . S
H495 C509 0.929 . S
H496 C510 0.931 . S
H497 C512 0.930 . S
C498 H486 0.930 . S
C498 C499 1.399 . S
C498 C503 1.399 . S
C499 C498 1.399 . S
C499 C500 1.376 . S
C500 H487 0.930 . S
C500 C499 1.376 . S
C500 C501 1.388 . S
C501 H488 0.930 . S
C501 C500 1.388 . S
C501 C502 1.390 . S
C502 C501 1.390 . S
C502 C503 1.394 . S
C502 C508 1.465 . S
C503 C498 1.399 . S
C503 C502 1.394 . S
C503 C504 1.516 . S
C504 C503 1.516 . S
C504 C505 1.502 . S
C504 C506 1.561 . S
C504 C507 1.526 . S
C505 H489 0.959 . S
C505 H490 0.959 . S
C505 H491 0.961 . S
C505 C504 1.502 . S
C506 H492 0.960 . S
C506 H493 0.961 . S
C506 H494 0.959 . S
C506 C504 1.561 . S
C507 C504 1.526 . S
C507 C508 1.396 . S
C507 C512 1.390 . S
C508 C502 1.465 . S
C508 C507 1.396 . S
C508 C509 1.399 . S
C509 H495 0.929 . S
C509 C508 1.399 . S
C509 C510 1.385 . S
C510 H496 0.931 . S
C510 C509 1.385 . S
C510 C511 1.389 . S
C511 C510 1.389 . S
C511 C512 1.387 . S
C512 H497 0.930 . S
C512 C507 1.390 . S
C512 C511 1.387 . S
H513 C525 0.930 . S
H514 C527 0.930 . S
H515 C528 0.930 . S
H516 C532 0.959 . S
H517 C532 0.959 . S
H518 C532 0.961 . S
H519 C533 0.960 . S
H520 C533 0.961 . S
H521 C533 0.959 . S
H522 C536 0.929 . S
H523 C537 0.931 . S
H524 C539 0.930 . S
C525 H513 0.930 . S
C525 C526 1.399 . S
C525 C530 1.399 . S
C526 C525 1.399 . S
C526 C527 1.376 . S
C527 H514 0.930 . S
C527 C526 1.376 . S
C527 C528 1.388 . S
C528 H515 0.930 . S
C528 C527 1.388 . S
C528 C529 1.390 . S
C529 C528 1.390 . S
C529 C530 1.394 . S
C529 C535 1.465 . S
C530 C525 1.399 . S
C530 C529 1.394 . S
C530 C531 1.516 . S
C531 C530 1.516 . S
C531 C532 1.502 . S
C531 C533 1.561 . S
C531 C534 1.526 . S
C532 H516 0.959 . S
C532 H517 0.959 . S
C532 H518 0.961 . S
C532 C531 1.502 . S
C533 H519 0.960 . S
C533 H520 0.961 . S
C533 H521 0.959 . S
C533 C531 1.561 . S
C534 C531 1.526 . S
C534 C535 1.396 . S
C534 C539 1.390 . S
C535 C529 1.465 . S
C535 C534 1.396 . S
C535 C536 1.399 . S
C536 H522 0.929 . S
C536 C535 1.399 . S
C536 C537 1.385 . S
C537 H523 0.931 . S
C537 C536 1.385 . S
C537 C538 1.389 . S
C538 C537 1.389 . S
C538 C539 1.387 . S
C539 H524 0.930 . S
C539 C534 1.390 . S
C539 C538 1.387 . S
H540 C552 0.930 . S
H541 C554 0.930 . S
H542 C555 0.930 . S
H543 C559 0.959 . S
H544 C559 0.959 . S
H545 C559 0.961 . S
H546 C560 0.958 1_556 S
H547 C560 0.966 . S
H548 C560 0.955 1_556 S
H549 C563 0.929 . S
H550 C564 0.931 . S
H551 C566 0.930 . S
C552 H540 0.930 . S
C552 C553 1.399 . S
C552 C557 1.399 . S
C553 C552 1.399 . S
C553 C554 1.376 . S
C554 H541 0.930 . S
C554 C553 1.376 . S
C554 C555 1.388 . S
C555 H542 0.930 . S
C555 C554 1.388 . S
C555 C556 1.390 . S
C556 C555 1.390 . S
C556 C557 1.394 . S
C556 C562 1.465 . S
C557 C552 1.399 . S
C557 C556 1.394 . S
C557 C558 1.534 . S
C558 C557 1.534 . S
C558 C559 1.489 1_556 S
C558 C560 1.561 1_556 S
C558 C561 1.522 1_556 S
C559 H543 0.959 . S
C559 H544 0.959 . S
C559 H545 0.961 . S
C559 C558 1.489 1_554 S
C560 H546 0.958 1_554 S
C560 H547 0.966 . S
C560 H548 0.955 1_554 S
C560 C558 1.561 1_554 S
C561 C558 1.522 1_554 S
C561 C562 1.396 1_554 S
C561 C566 1.390 . S
C562 C556 1.465 . S
C562 C561 1.396 1_556 S
C562 C563 1.399 . S
C563 H549 0.929 . S
C563 C562 1.399 . S
C563 C564 1.385 1_556 S
C564 H550 0.931 . S
C564 C563 1.385 1_554 S
C564 C565 1.389 . S
C565 C564 1.389 . S
C565 C566 1.387 . S
C566 H551 0.930 . S
C566 C561 1.390 . S
C566 C565 1.387 . S
H567 C579 0.930 . S
H568 C581 0.930 . S
H569 C582 0.930 . S
H570 C586 0.959 . S
H571 C586 0.959 . S
H572 C586 0.961 . S
H573 C587 0.960 . S
H574 C587 0.961 . S
H575 C587 0.959 . S
H576 C590 0.929 . S
H577 C591 0.931 . S
H578 C593 0.930 . S
C579 H567 0.930 . S
C579 C580 1.399 . S
C579 C584 1.399 . S
C580 C579 1.399 . S
C580 C581 1.376 . S
C581 H568 0.930 . S
C581 C580 1.376 . S
C581 C582 1.388 . S
C582 H569 0.930 . S
C582 C581 1.388 . S
C582 C583 1.390 . S
C583 C582 1.390 . S
C583 C584 1.394 . S
C583 C589 1.465 . S
C584 C579 1.399 . S
C584 C583 1.394 . S
C584 C585 1.516 . S
C585 C584 1.516 . S
C585 C586 1.502 . S
C585 C587 1.561 . S
C585 C588 1.526 . S
C586 H570 0.959 . S
C586 H571 0.959 . S
C586 H572 0.961 . S
C586 C585 1.502 . S
C587 H573 0.960 . S
C587 H574 0.961 . S
C587 H575 0.959 . S
C587 C585 1.561 . S
C588 C585 1.526 . S
C588 C589 1.396 . S
C588 C593 1.390 . S
C589 C583 1.465 . S
C589 C588 1.396 . S
C589 C590 1.399 . S
C590 H576 0.929 . S
C590 C589 1.399 . S
C590 C591 1.385 1_554 S
C591 H577 0.931 . S
C591 C590 1.385 1_556 S
C591 C592 1.389 1_556 S
C592 C591 1.389 1_554 S
C592 C593 1.387 . S
C593 H578 0.930 . S
C593 C588 1.390 . S
C593 C592 1.387 . S
H594 C606 0.930 . S
H595 C608 0.930 1_556 S
H596 C609 0.930 1_556 S
H597 C613 0.959 . S
H598 C613 0.959 . S
H599 C613 0.961 . S
H600 C614 0.960 . S
H601 C614 0.961 . S
H602 C614 0.959 . S
H603 C617 0.929 . S
H604 C618 0.931 . S
H605 C620 0.930 . S
C606 H594 0.930 . S
C606 C607 1.399 . S
C606 C611 1.399 . S
C607 C606 1.399 . S
C607 C608 1.376 . S
C608 H595 0.930 1_554 S
C608 C607 1.376 . S
C608 C609 1.388 . S
C609 H596 0.930 1_554 S
C609 C608 1.388 . S
C609 C610 1.390 . S
C610 C609 1.390 . S
C610 C611 1.394 . S
C610 C616 1.465 . S
C611 C606 1.399 . S
C611 C610 1.394 . S
C611 C612 1.516 . S
C612 C611 1.516 . S
C612 C613 1.502 . S
C612 C614 1.561 . S
C612 C615 1.526 . S
C613 H597 0.959 . S
C613 H598 0.959 . S
C613 H599 0.961 . S
C613 C612 1.502 . S
C614 H600 0.960 . S
C614 H601 0.961 . S
C614 H602 0.959 . S
C614 C612 1.561 . S
C615 C612 1.526 . S
C615 C616 1.396 . S
C615 C620 1.390 . S
C616 C610 1.465 . S
C616 C615 1.396 . S
C616 C617 1.399 . S
C617 H603 0.929 . S
C617 C616 1.399 . S
C617 C618 1.385 . S
C618 H604 0.931 . S
C618 C617 1.385 . S
C618 C619 1.389 . S
C619 C618 1.389 . S
C619 C620 1.387 . S
C620 H605 0.930 . S
C620 C615 1.390 . S
C620 C619 1.387 . S
H621 C633 0.930 . S
H622 C635 0.930 . S
H623 C636 0.930 . S
H624 C640 0.959 . S
H625 C640 0.959 . S
H626 C640 0.961 . S
H627 C641 0.960 . S
H628 C641 0.961 . S
H629 C641 0.959 . S
H630 C644 0.929 . S
H631 C645 0.931 . S
H632 C647 0.930 . S
C633 H621 0.930 . S
C633 C634 1.399 . S
C633 C638 1.399 . S
C634 C633 1.399 . S
C634 C635 1.376 . S
C635 H622 0.930 . S
C635 C634 1.376 . S
C635 C636 1.388 . S
C636 H623 0.930 . S
C636 C635 1.388 . S
C636 C637 1.390 . S
C637 C636 1.390 . S
C637 C638 1.394 . S
C637 C643 1.465 . S
C638 C633 1.399 . S
C638 C637 1.394 . S
C638 C639 1.516 . S
C639 C638 1.516 . S
C639 C640 1.502 . S
C639 C641 1.561 . S
C639 C642 1.526 . S
C640 H624 0.959 . S
C640 H625 0.959 . S
C640 H626 0.961 . S
C640 C639 1.502 . S
C641 H627 0.960 . S
C641 H628 0.961 . S
C641 H629 0.959 . S
C641 C639 1.561 . S
C642 C639 1.526 . S
C642 C643 1.396 . S
C642 C647 1.390 . S
C643 C637 1.465 . S
C643 C642 1.396 . S
C643 C644 1.399 . S
C644 H630 0.929 . S
C644 C643 1.399 . S
C644 C645 1.385 . S
C645 H631 0.931 . S
C645 C644 1.385 . S
C645 C646 1.389 . S
C646 C645 1.389 . S
C646 C647 1.387 . S
C647 H632 0.930 . S
C647 C642 1.390 . S
C647 C646 1.387 . S
H648 C660 0.930 . S
H649 C662 0.930 . S
H650 C663 0.930 . S
H651 C667 0.959 . S
H652 C667 0.959 . S
H653 C667 0.961 . S
H654 C668 0.960 . S
H655 C668 0.961 . S
H656 C668 0.959 . S
H657 C671 0.929 . S
H658 C672 0.931 . S
H659 C674 0.930 . S
C660 H648 0.930 . S
C660 C661 1.399 . S
C660 C665 1.399 . S
C661 C660 1.399 . S
C661 C662 1.376 . S
C662 H649 0.930 . S
C662 C661 1.376 . S
C662 C663 1.388 . S
C663 H650 0.930 . S
C663 C662 1.388 . S
C663 C664 1.390 . S
C664 C663 1.390 . S
C664 C665 1.394 . S
C664 C670 1.465 . S
C665 C660 1.399 . S
C665 C664 1.394 . S
C665 C666 1.516 . S
C666 C665 1.516 . S
C666 C667 1.502 . S
C666 C668 1.561 . S
C666 C669 1.526 . S
C667 H651 0.959 . S
C667 H652 0.959 . S
C667 H653 0.961 . S
C667 C666 1.502 . S
C668 H654 0.960 . S
C668 H655 0.961 . S
C668 H656 0.959 . S
C668 C666 1.561 . S
C669 C666 1.526 . S
C669 C670 1.396 . S
C669 C674 1.390 . S
C670 C664 1.465 . S
C670 C669 1.396 . S
C670 C671 1.399 . S
C671 H657 0.929 . S
C671 C670 1.399 . S
C671 C672 1.385 . S
C672 H658 0.931 . S
C672 C671 1.385 . S
C672 C673 1.389 . S
C673 C672 1.389 . S
C673 C674 1.387 . S
C674 H659 0.930 . S
C674 C669 1.390 . S
C674 C673 1.387 . S
H675 C687 0.930 . S
H676 C689 0.930 . S
H677 C690 0.930 . S
H678 C694 0.959 . S
H679 C694 0.959 . S
H680 C694 0.961 . S
H681 C695 0.960 . S
H682 C695 0.961 . S
H683 C695 0.959 . S
H684 C698 0.929 . S
H685 C699 0.931 . S
H686 C701 0.930 . S
C687 H675 0.930 . S
C687 C688 1.399 . S
C687 C692 1.399 . S
C688 C687 1.399 . S
C688 C689 1.376 . S
C689 H676 0.930 . S
C689 C688 1.376 . S
C689 C690 1.388 . S
C690 H677 0.930 . S
C690 C689 1.388 . S
C690 C691 1.390 . S
C691 C690 1.390 . S
C691 C692 1.394 . S
C691 C697 1.465 . S
C692 C687 1.399 . S
C692 C691 1.394 . S
C692 C693 1.516 . S
C693 C692 1.516 . S
C693 C694 1.502 . S
C693 C695 1.561 . S
C693 C696 1.526 . S
C694 H678 0.959 . S
C694 H679 0.959 . S
C694 H680 0.961 . S
C694 C693 1.502 . S
C695 H681 0.960 . S
C695 H682 0.961 . S
C695 H683 0.959 . S
C695 C693 1.561 . S
C696 C693 1.526 . S
C696 C697 1.396 . S
C696 C701 1.390 . S
C697 C691 1.465 . S
C697 C696 1.396 . S
C697 C698 1.399 . S
C698 H684 0.929 . S
C698 C697 1.399 . S
C698 C699 1.385 . S
C699 H685 0.931 . S
C699 C698 1.385 . S
C699 C700 1.389 . S
C700 C699 1.389 . S
C700 C701 1.387 . S
C701 H686 0.930 . S
C701 C696 1.390 . S
C701 C700 1.387 . S
H702 C714 0.930 . S
H703 C716 0.930 . S
H704 C717 0.930 . S
H705 C721 0.959 . S
H706 C721 0.959 . S
H707 C721 0.961 . S
H708 C722 0.960 . S
H709 C722 0.961 . S
H710 C722 0.959 . S
H711 C725 0.929 . S
H712 C726 0.931 . S
H713 C728 0.930 . S
C714 H702 0.930 . S
C714 C715 1.399 . S
C714 C719 1.399 . S
C715 C714 1.399 . S
C715 C716 1.376 . S
C716 H703 0.930 . S
C716 C715 1.376 . S
C716 C717 1.388 . S
C717 H704 0.930 . S
C717 C716 1.388 . S
C717 C718 1.390 . S
C718 C717 1.390 . S
C718 C719 1.394 . S
C718 C724 1.465 . S
C719 C714 1.399 . S
C719 C718 1.394 . S
C719 C720 1.516 . S
C720 C719 1.516 . S
C720 C721 1.502 . S
C720 C722 1.561 . S
C720 C723 1.526 . S
C721 H705 0.959 . S
C721 H706 0.959 . S
C721 H707 0.961 . S
C721 C720 1.502 . S
C722 H708 0.960 . S
C722 H709 0.961 . S
C722 H710 0.959 . S
C722 C720 1.561 . S
C723 C720 1.526 . S
C723 C724 1.396 . S
C723 C728 1.390 . S
C724 C718 1.465 . S
C724 C723 1.396 . S
C724 C725 1.399 . S
C725 H711 0.929 . S
C725 C724 1.399 . S
C725 C726 1.385 . S
C726 H712 0.931 . S
C726 C725 1.385 . S
C726 C727 1.389 . S
C727 C726 1.389 . S
C727 C728 1.387 . S
C728 H713 0.930 . S
C728 C723 1.390 . S
C728 C727 1.387 . S
H729 C741 0.930 . S
H730 C743 0.930 . S
H731 C744 0.930 . S
H732 C748 0.959 . S
H733 C748 0.959 . S
H734 C748 0.961 . S
H735 C749 0.960 . S
H736 C749 0.961 . S
H737 C749 0.959 . S
H738 C752 0.929 . S
H739 C753 0.931 . S
H740 C755 0.930 . S
C741 H729 0.930 . S
C741 C742 1.399 . S
C741 C746 1.399 . S
C742 C741 1.399 . S
C742 C743 1.376 . S
C743 H730 0.930 . S
C743 C742 1.376 . S
C743 C744 1.388 . S
C744 H731 0.930 . S
C744 C743 1.388 . S
C744 C745 1.390 . S
C745 C744 1.390 . S
C745 C746 1.394 . S
C745 C751 1.465 . S
C746 C741 1.399 . S
C746 C745 1.394 . S
C746 C747 1.516 1_556 S
C747 C746 1.516 1_554 S
C747 C748 1.502 . S
C747 C749 1.561 . S
C747 C750 1.520 1_554 S
C748 H732 0.959 . S
C748 H733 0.959 . S
C748 H734 0.961 . S
C748 C747 1.502 . S
C749 H735 0.960 . S
C749 H736 0.961 . S
C749 H737 0.959 . S
C749 C747 1.561 . S
C750 C747 1.520 1_556 S
C750 C751 1.411 . S
C750 C755 1.383 1_556 S
C751 C745 1.465 . S
C751 C750 1.411 . S
C751 C752 1.399 . S
C752 H738 0.929 . S
C752 C751 1.399 . S
C752 C753 1.385 . S
C753 H739 0.931 . S
C753 C752 1.385 . S
C753 C754 1.389 . S
C754 C753 1.389 . S
C754 C755 1.387 1_556 S
C755 H740 0.930 . S
C755 C750 1.383 1_554 S
C755 C754 1.387 1_554 S
H756 C768 0.930 . S
H757 C770 0.930 . S
H758 C771 0.930 . S
H759 C775 0.959 . S
H760 C775 0.959 . S
H761 C775 0.961 . S
H762 C776 0.960 . S
H763 C776 0.961 . S
H764 C776 0.959 . S
H765 C779 0.929 . S
H766 C780 0.931 . S
H767 C782 0.930 . S
C768 H756 0.930 . S
C768 C769 1.399 . S
C768 C773 1.399 . S
C769 C768 1.399 . S
C769 C770 1.376 . S
C770 H757 0.930 . S
C770 C769 1.376 . S
C770 C771 1.388 . S
C771 H758 0.930 . S
C771 C770 1.388 . S
C771 C772 1.390 . S
C772 C771 1.390 . S
C772 C773 1.394 . S
C772 C778 1.465 . S
C773 C768 1.399 . S
C773 C772 1.394 . S
C773 C774 1.516 . S
C774 C773 1.516 . S
C774 C775 1.502 . S
C774 C776 1.561 . S
C774 C777 1.526 . S
C775 H759 0.959 . S
C775 H760 0.959 . S
C775 H761 0.961 . S
C775 C774 1.502 . S
C776 H762 0.960 . S
C776 H763 0.961 . S
C776 H764 0.959 . S
C776 C774 1.561 . S
C777 C774 1.526 . S
C777 C778 1.396 . S
C777 C782 1.390 . S
C778 C772 1.465 . S
C778 C777 1.396 . S
C778 C779 1.399 . S
C779 H765 0.929 . S
C779 C778 1.399 . S
C779 C780 1.385 . S
C780 H766 0.931 . S
C780 C779 1.385 . S
C780 C781 1.389 . S
C781 C780 1.389 . S
C781 C782 1.387 . S
C782 H767 0.930 . S
C782 C777 1.390 . S
C782 C781 1.387 . S
H783 C795 0.930 . S
H784 C797 0.930 . S
H785 C798 0.930 . S
H786 C802 0.959 . S
H787 C802 0.959 . S
H788 C802 0.961 . S
H789 C803 0.960 . S
H790 C803 0.961 . S
H791 C803 0.959 . S
H792 C806 0.929 . S
H793 C807 0.931 . S
H794 C809 0.930 . S
C795 H783 0.930 . S
C795 C796 1.399 . S
C795 C800 1.399 . S
C796 C795 1.399 . S
C796 C797 1.376 . S
C797 H784 0.930 . S
C797 C796 1.376 . S
C797 C798 1.388 1_554 S
C798 H785 0.930 . S
C798 C797 1.388 1_556 S
C798 C799 1.390 . S
C799 C798 1.390 . S
C799 C800 1.394 1_556 S
C799 C805 1.465 . S
C800 C795 1.399 . S
C800 C799 1.394 1_554 S
C800 C801 1.516 . S
C801 C800 1.516 . S
C801 C802 1.502 . S
C801 C803 1.561 . S
C801 C804 1.526 1_554 S
C802 H786 0.959 . S
C802 H787 0.959 . S
C802 H788 0.961 . S
C802 C801 1.502 . S
C803 H789 0.960 . S
C803 H790 0.961 . S
C803 H791 0.959 . S
C803 C801 1.561 . S
C804 C801 1.526 1_556 S
C804 C805 1.396 . S
C804 C809 1.390 . S
C805 C799 1.465 . S
C805 C804 1.396 . S
C805 C806 1.399 . S
C806 H792 0.929 . S
C806 C805 1.399 . S
C806 C807 1.385 . S
C807 H793 0.931 . S
C807 C806 1.385 . S
C807 C808 1.389 . S
C808 C807 1.389 . S
C808 C809 1.387 . S
C809 H794 0.930 . S
C809 C804 1.390 . S
C809 C808 1.387 . S
H810 C822 0.930 . S
H811 C824 0.930 . S
H812 C825 0.930 . S
H813 C829 0.959 . S
H814 C829 0.959 1_556 S
H815 C829 0.961 . S
H816 C830 0.960 . S
H817 C830 0.961 . S
H818 C830 0.959 . S
H819 C833 0.929 . S
H820 C834 0.931 . S
H821 C836 0.930 1_556 S
C822 H810 0.930 . S
C822 C823 1.399 . S
C822 C827 1.399 . S
C823 C822 1.399 . S
C823 C824 1.376 . S
C824 H811 0.930 . S
C824 C823 1.376 . S
C824 C825 1.388 . S
C825 H812 0.930 . S
C825 C824 1.388 . S
C825 C826 1.390 . S
C826 C825 1.390 . S
C826 C827 1.394 . S
C826 C832 1.465 . S
C827 C822 1.399 . S
C827 C826 1.394 . S
C827 C828 1.516 . S
C828 C827 1.516 . S
C828 C829 1.502 . S
C828 C830 1.561 . S
C828 C831 1.526 . S
C829 H813 0.959 . S
C829 H814 0.959 1_554 S
C829 H815 0.961 . S
C829 C828 1.502 . S
C830 H816 0.960 . S
C830 H817 0.961 . S
C830 H818 0.959 . S
C830 C828 1.561 . S
C831 C828 1.526 . S
C831 C832 1.396 . S
C831 C836 1.390 . S
C832 C826 1.465 . S
C832 C831 1.396 . S
C832 C833 1.399 . S
C833 H819 0.929 . S
C833 C832 1.399 . S
C833 C834 1.385 . S
C834 H820 0.931 . S
C834 C833 1.385 . S
C834 C835 1.389 . S
C835 C834 1.389 . S
C835 C836 1.387 . S
C836 H821 0.930 1_554 S
C836 C831 1.390 . S
C836 C835 1.387 . S
H837 C849 0.930 . S
H838 C851 0.930 . S
H839 C852 0.930 . S
H840 C856 0.959 . S
H841 C856 0.959 . S
H842 C856 0.961 . S
H843 C857 0.960 . S
H844 C857 0.961 . S
H845 C857 0.959 . S
H846 C860 0.929 . S
H847 C861 0.931 . S
H848 C863 0.930 . S
C849 H837 0.930 . S
C849 C850 1.399 . S
C849 C854 1.399 . S
C850 C849 1.399 . S
C850 C851 1.376 . S
C851 H838 0.930 . S
C851 C850 1.376 . S
C851 C852 1.388 . S
C852 H839 0.930 . S
C852 C851 1.388 . S
C852 C853 1.390 . S
C853 C852 1.390 . S
C853 C854 1.394 . S
C853 C859 1.465 . S
C854 C849 1.399 . S
C854 C853 1.394 . S
C854 C855 1.516 . S
C855 C854 1.516 . S
C855 C856 1.502 . S
C855 C857 1.561 . S
C855 C858 1.526 . S
C856 H840 0.959 . S
C856 H841 0.959 . S
C856 H842 0.961 . S
C856 C855 1.502 . S
C857 H843 0.960 . S
C857 H844 0.961 . S
C857 H845 0.959 . S
C857 C855 1.561 . S
C858 C855 1.526 . S
C858 C859 1.396 . S
C858 C863 1.390 . S
C859 C853 1.465 . S
C859 C858 1.396 . S
C859 C860 1.399 . S
C860 H846 0.929 . S
C860 C859 1.399 . S
C860 C861 1.385 . S
C861 H847 0.931 . S
C861 C860 1.385 . S
C861 C862 1.389 . S
C862 C861 1.389 . S
C862 C863 1.387 . S
C863 H848 0.930 . S
C863 C858 1.390 . S
C863 C862 1.387 . S
H864 C876 0.930 . S
H865 C878 0.930 . S
H866 C879 0.930 . S
H867 C883 0.959 . S
H868 C883 0.959 . S
H869 C883 0.961 . S
H870 C884 0.960 . S
H871 C884 0.961 . S
H872 C884 0.959 . S
H873 C887 0.929 . S
H874 C888 0.931 . S
H875 C890 0.930 . S
C876 H864 0.930 . S
C876 C877 1.399 . S
C876 C881 1.399 . S
C877 C876 1.399 . S
C877 C878 1.376 . S
C878 H865 0.930 . S
C878 C877 1.376 . S
C878 C879 1.388 . S
C879 H866 0.930 . S
C879 C878 1.388 . S
C879 C880 1.390 . S
C880 C879 1.390 . S
C880 C881 1.394 . S
C880 C886 1.465 . S
C881 C876 1.399 . S
C881 C880 1.394 . S
C881 C882 1.516 . S
C882 C881 1.516 . S
C882 C883 1.502 . S
C882 C884 1.561 . S
C882 C885 1.526 . S
C883 H867 0.959 . S
C883 H868 0.959 . S
C883 H869 0.961 . S
C883 C882 1.502 . S
C884 H870 0.960 . S
C884 H871 0.961 . S
C884 H872 0.959 . S
C884 C882 1.561 . S
C885 C882 1.526 . S
C885 C886 1.396 . S
C885 C890 1.390 . S
C886 C880 1.465 . S
C886 C885 1.396 . S
C886 C887 1.399 . S
C887 H873 0.929 . S
C887 C886 1.399 . S
C887 C888 1.385 . S
C888 H874 0.931 . S
C888 C887 1.385 . S
C888 C889 1.389 . S
C889 C888 1.389 . S
C889 C890 1.387 . S
C890 H875 0.930 . S
C890 C885 1.390 . S
C890 C889 1.387 . S
H891 C903 0.930 . S
H892 C905 0.930 . S
H893 C906 0.930 . S
H894 C910 0.959 . S
H895 C910 0.959 . S
H896 C910 0.961 . S
H897 C911 0.960 . S
H898 C911 0.961 . S
H899 C911 0.959 . S
H900 C914 0.929 . S
H901 C915 0.931 . S
H902 C917 0.930 . S
C903 H891 0.930 . S
C903 C904 1.399 . S
C903 C908 1.399 . S
C904 C903 1.399 . S
C904 C905 1.376 . S
C905 H892 0.930 . S
C905 C904 1.376 . S
C905 C906 1.388 . S
C906 H893 0.930 . S
C906 C905 1.388 . S
C906 C907 1.390 . S
C907 C906 1.390 . S
C907 C908 1.394 . S
C907 C913 1.465 . S
C908 C903 1.399 . S
C908 C907 1.394 . S
C908 C909 1.516 . S
C909 C908 1.516 . S
C909 C910 1.502 . S
C909 C911 1.561 . S
C909 C912 1.526 . S
C910 H894 0.959 . S
C910 H895 0.959 . S
C910 H896 0.961 . S
C910 C909 1.502 . S
C911 H897 0.960 . S
C911 H898 0.961 . S
C911 H899 0.959 . S
C911 C909 1.561 . S
C912 C909 1.526 . S
C912 C913 1.396 . S
C912 C917 1.390 . S
C913 C907 1.465 . S
C913 C912 1.396 . S
C913 C914 1.399 . S
C914 H900 0.929 . S
C914 C913 1.399 . S
C914 C915 1.385 . S
C915 H901 0.931 . S
C915 C914 1.385 . S
C915 C916 1.389 . S
C916 C915 1.389 . S
C916 C917 1.387 . S
C917 H902 0.930 . S
C917 C912 1.390 . S
C917 C916 1.387 . S
H918 C930 0.930 . S
H919 C932 0.930 . S
H920 C933 0.930 . S
H921 C937 0.959 . S
H922 C937 0.959 1_655 S
H923 C937 0.961 . S
H924 C938 0.960 . S
H925 C938 0.961 . S
H926 C938 0.959 . S
H927 C941 0.929 . S
H928 C942 0.931 . S
H929 C944 0.930 . S
C930 H918 0.930 . S
C930 C931 1.399 . S
C930 C935 1.399 . S
C931 C930 1.399 . S
C931 C932 1.376 . S
C932 H919 0.930 . S
C932 C931 1.376 . S
C932 C933 1.388 . S
C933 H920 0.930 . S
C933 C932 1.388 . S
C933 C934 1.390 . S
C934 C933 1.390 . S
C934 C935 1.394 . S
C934 C940 1.465 1_455 S
C935 C930 1.399 . S
C935 C934 1.394 . S
C935 C936 1.516 1_455 S
C936 C935 1.516 1_655 S
C936 C937 1.502 1_655 S
C936 C938 1.561 . S
C936 C939 1.526 . S
C937 H921 0.959 . S
C937 H922 0.959 1_455 S
C937 H923 0.961 . S
C937 C936 1.502 1_455 S
C938 H924 0.960 . S
C938 H925 0.961 . S
C938 H926 0.959 . S
C938 C936 1.561 . S
C939 C936 1.526 . S
C939 C940 1.396 . S
C939 C944 1.390 . S
C940 C934 1.465 1_655 S
C940 C939 1.396 . S
C940 C941 1.399 . S
C941 H927 0.929 . S
C941 C940 1.399 . S
C941 C942 1.385 . S
C942 H928 0.931 . S
C942 C941 1.385 . S
C942 C943 1.389 . S
C943 C942 1.389 . S
C943 C944 1.387 . S
C944 H929 0.930 . S
C944 C939 1.390 . S
C944 C943 1.387 . S
H945 C957 0.930 . S
H946 C959 0.930 . S
H947 C960 0.932 . S
H948 C964 0.959 . S
H949 C964 0.959 1_545 S
H950 C964 0.961 . S
H951 C965 0.960 . S
H952 C965 0.961 . S
H953 C965 0.959 . S
H954 C968 0.929 . S
H955 C969 0.931 . S
H956 C971 0.930 . S
C957 H945 0.930 . S
C957 C958 1.399 . S
C957 C962 1.399 1_556 S
C958 C957 1.399 . S
C958 C959 1.376 . S
C959 H946 0.930 . S
C959 C958 1.376 . S
C959 C960 1.384 1_556 S
C960 H947 0.932 . S
C960 C959 1.384 1_554 S
C960 C961 1.392 . S
C961 C960 1.392 . S
C961 C962 1.394 . S
C961 C967 1.465 1_565 S
C962 C957 1.399 1_554 S
C962 C961 1.394 . S
C962 C963 1.516 1_565 S
C963 C962 1.516 1_545 S
C963 C964 1.502 1_545 S
C963 C965 1.561 1_554 S
C963 C966 1.526 . S
C964 H948 0.959 . S
C964 H949 0.959 1_565 S
C964 H950 0.961 . S
C964 C963 1.502 1_565 S
C965 H951 0.960 . S
C965 H952 0.961 . S
C965 H953 0.959 . S
C965 C963 1.561 1_556 S
C966 C963 1.526 . S
C966 C967 1.396 . S
C966 C971 1.390 . S
C967 C961 1.465 1_545 S
C967 C966 1.396 . S
C967 C968 1.399 . S
C968 H954 0.929 . S
C968 C967 1.399 . S
C968 C969 1.385 . S
C969 H955 0.931 . S
C969 C968 1.385 . S
C969 C970 1.389 . S
C970 C969 1.389 . S
C970 C971 1.387 . S
C971 H956 0.930 . S
C971 C966 1.390 . S
C971 C970 1.387 . S
H972 C984 0.930 . S
H973 C986 0.930 . S
H974 C987 0.930 . S
H975 C991 0.959 . S
H976 C991 0.959 . S
H977 C991 0.961 . S
H978 C992 0.960 . S
H979 C992 0.961 . S
H980 C992 0.959 . S
H981 C995 0.929 . S
H982 C996 0.931 . S
H983 C998 0.930 . S
C984 H972 0.930 . S
C984 C985 1.399 . S
C984 C989 1.399 . S
C985 C984 1.399 . S
C985 C986 1.376 . S
C986 H973 0.930 . S
C986 C985 1.376 . S
C986 C987 1.388 . S
C987 H974 0.930 . S
C987 C986 1.388 . S
C987 C988 1.390 . S
C988 C987 1.390 . S
C988 C989 1.394 . S
C988 C994 1.465 . S
C989 C984 1.399 . S
C989 C988 1.394 . S
C989 C990 1.516 . S
C990 C989 1.516 . S
C990 C991 1.502 . S
C990 C992 1.561 . S
C990 C993 1.526 . S
C991 H975 0.959 . S
C991 H976 0.959 . S
C991 H977 0.961 . S
C991 C990 1.502 . S
C992 H978 0.960 . S
C992 H979 0.961 . S
C992 H980 0.959 . S
C992 C990 1.561 . S
C993 C990 1.526 . S
C993 C994 1.396 . S
C993 C998 1.390 . S
C994 C988 1.465 . S
C994 C993 1.396 . S
C994 C995 1.399 . S
C995 H981 0.929 . S
C995 C994 1.399 . S
C995 C996 1.385 . S
C996 H982 0.931 . S
C996 C995 1.385 . S
C996 C997 1.389 . S
C997 C996 1.389 . S
C997 C998 1.387 . S
C998 H983 0.930 . S
C998 C993 1.390 . S
C998 C997 1.387 . S
H999 C1011 0.930 . S
H1000 C1013 0.930 . S
H1001 C1014 0.930 1_655 S
H1002 C1018 0.959 . S
H1003 C1018 0.959 . S
H1004 C1018 0.961 . S
H1005 C1019 0.960 . S
H1006 C1019 0.961 . S
H1007 C1019 0.959 . S
H1008 C1022 0.929 . S
H1009 C1023 0.931 . S
H1010 C1025 0.930 . S
C1011 H999 0.930 . S
C1011 C1012 1.399 . S
C1011 C1016 1.399 . S
C1012 C1011 1.399 . S
C1012 C1013 1.376 . S
C1013 H1000 0.930 . S
C1013 C1012 1.376 . S
C1013 C1014 1.388 . S
C1014 H1001 0.930 1_455 S
C1014 C1013 1.388 . S
C1014 C1015 1.390 . S
C1015 C1014 1.390 . S
C1015 C1016 1.394 . S
C1015 C1021 1.465 1_455 S
C1016 C1011 1.399 . S
C1016 C1015 1.394 . S
C1016 C1017 1.516 . S
C1017 C1016 1.516 . S
C1017 C1018 1.502 . S
C1017 C1019 1.561 . S
C1017 C1020 1.526 1_455 S
C1018 H1002 0.959 . S
C1018 H1003 0.959 . S
C1018 H1004 0.961 . S
C1018 C1017 1.502 . S
C1019 H1005 0.960 . S
C1019 H1006 0.961 . S
C1019 H1007 0.959 . S
C1019 C1017 1.561 . S
C1020 C1017 1.526 1_655 S
C1020 C1021 1.396 . S
C1020 C1025 1.390 . S
C1021 C1015 1.465 1_655 S
C1021 C1020 1.396 . S
C1021 C1022 1.399 . S
C1022 H1008 0.929 . S
C1022 C1021 1.399 . S
C1022 C1023 1.385 . S
C1023 H1009 0.931 . S
C1023 C1022 1.385 . S
C1023 C1024 1.389 . S
C1024 C1023 1.389 . S
C1024 C1025 1.387 . S
C1025 H1010 0.930 . S
C1025 C1020 1.390 . S
C1025 C1024 1.387 . S
H1026 C1038 0.930 . S
H1027 C1040 0.930 . S
H1028 C1041 0.930 . S
H1029 C1045 0.959 . S
H1030 C1045 0.959 . S
H1031 C1045 0.961 . S
H1032 C1046 0.960 . S
H1033 C1046 0.961 . S
H1034 C1046 0.959 . S
H1035 C1049 0.929 . S
H1036 C1050 0.931 . S
H1037 C1052 0.930 . S
C1038 H1026 0.930 . S
C1038 C1039 1.399 . S
C1038 C1043 1.399 . S
C1039 C1038 1.399 . S
C1039 C1040 1.376 . S
C1040 H1027 0.930 . S
C1040 C1039 1.376 . S
C1040 C1041 1.388 . S
C1041 H1028 0.930 . S
C1041 C1040 1.388 . S
C1041 C1042 1.390 . S
C1042 C1041 1.390 . S
C1042 C1043 1.394 . S
C1042 C1048 1.465 1_545 S
C1043 C1038 1.399 . S
C1043 C1042 1.394 . S
C1043 C1044 1.516 1_545 S
C1044 C1043 1.516 1_565 S
C1044 C1045 1.502 . S
C1044 C1046 1.561 . S
C1044 C1047 1.526 . S
C1045 H1029 0.959 . S
C1045 H1030 0.959 . S
C1045 H1031 0.961 . S
C1045 C1044 1.502 . S
C1046 H1032 0.960 . S
C1046 H1033 0.961 . S
C1046 H1034 0.959 . S
C1046 C1044 1.561 . S
C1047 C1044 1.526 . S
C1047 C1048 1.396 . S
C1047 C1052 1.390 . S
C1048 C1042 1.465 1_565 S
C1048 C1047 1.396 . S
C1048 C1049 1.399 . S
C1049 H1035 0.929 . S
C1049 C1048 1.399 . S
C1049 C1050 1.385 . S
C1050 H1036 0.931 . S
C1050 C1049 1.385 . S
C1050 C1051 1.389 . S
C1051 C1050 1.389 . S
C1051 C1052 1.387 . S
C1052 H1037 0.930 . S
C1052 C1047 1.390 . S
C1052 C1051 1.387 . S
H1053 C1065 0.930 . S
H1054 C1067 0.930 . S
H1055 C1068 0.930 . S
H1056 C1072 0.959 . S
H1057 C1072 0.959 . S
H1058 C1072 0.961 . S
H1059 C1073 0.960 . S
H1060 C1073 0.961 . S
H1061 C1073 0.959 . S
H1062 C1076 0.929 . S
H1063 C1077 0.931 . S
H1064 C1079 0.930 . S
C1065 H1053 0.930 . S
C1065 C1066 1.399 . S
C1065 C1070 1.399 . S
C1066 C1065 1.399 . S
C1066 C1067 1.376 . S
C1067 H1054 0.930 . S
C1067 C1066 1.376 . S
C1067 C1068 1.388 . S
C1068 H1055 0.930 . S
C1068 C1067 1.388 . S
C1068 C1069 1.390 . S
C1069 C1068 1.390 . S
C1069 C1070 1.394 . S
C1069 C1075 1.465 . S
C1070 C1065 1.399 . S
C1070 C1069 1.394 . S
C1070 C1071 1.516 . S
C1071 C1070 1.516 . S
C1071 C1072 1.502 . S
C1071 C1073 1.561 . S
C1071 C1074 1.526 . S
C1072 H1056 0.959 . S
C1072 H1057 0.959 . S
C1072 H1058 0.961 . S
C1072 C1071 1.502 . S
C1073 H1059 0.960 . S
C1073 H1060 0.961 . S
C1073 H1061 0.959 . S
C1073 C1071 1.561 . S
C1074 C1071 1.526 . S
C1074 C1075 1.396 . S
C1074 C1079 1.390 . S
C1075 C1069 1.465 . S
C1075 C1074 1.396 . S
C1075 C1076 1.399 . S
C1076 H1062 0.929 . S
C1076 C1075 1.399 . S
C1076 C1077 1.385 . S
C1077 H1063 0.931 . S
C1077 C1076 1.385 . S
C1077 C1078 1.389 . S
C1078 C1077 1.389 . S
C1078 C1079 1.387 . S
C1079 H1064 0.930 . S
C1079 C1074 1.390 . S
C1079 C1078 1.387 . S
C445 C3 1.284 . S
C457 C363 1.285 . S
C472 C399 1.302 . S
C484 C39 1.303 . S
C499 C75 1.303 . S
C511 C219 1.303 . S
C526 C111 1.302 . S
C538 C255 1.301 . S
C553 C147 1.287 . S
C565 C291 1.288 . S
C580 C327 1.292 . S
C592 C183 1.291 1_554 S
C607 C14 1.527 . S
C619 C302 1.578 . S
C634 C50 1.578 . S
C646 C338 1.524 . S
C661 C374 1.542 . S
C673 C86 1.576 . S
C688 C122 1.534 . S
C700 C410 1.578 . S
C715 C158 1.516 . S
C727 C230 1.548 . S
C742 C194 1.530 . S
C754 C266 1.578 1_556 S
C769 C362 1.442 . S
C781 C2 1.440 . S
C796 C38 1.421 . S
C808 C398 1.419 . S
C823 C74 1.429 . S
C835 C218 1.432 1_554 S
C850 C110 1.442 . S
C862 C254 1.440 . S
C877 C290 1.425 . S
C889 C146 1.423 . S
C904 C182 1.418 . S
C916 C326 1.416 . S
C931 C4 1.352 . S
C943 C400 1.334 . S
C958 C220 1.348 . S
C970 C40 1.337 . S
C985 C256 1.335 . S
C997 C76 1.384 . S
C1012 C292 1.384 . S
C1024 C112 1.323 . S
C1039 C328 1.326 . S
C1051 C148 1.362 . S
C1066 C364 1.374 . S
C1078 C184 1.322 . S
