# Generated by pormake.
# Topology uni, (4)-cn, num edge types: 1
# Building blocks:
#     Node 0, Type 0, BuildingBlock: UXUYUI_clean_sbu_0, # of connection points: 4
#     Node 1, Type 0, BuildingBlock: UXUYUI_clean_sbu_0, # of connection points: 4
#     Node 2, Type 0, BuildingBlock: UXUYUI_clean_sbu_0, # of connection points: 4
#     Node 3, Type 0, BuildingBlock: UXUYUI_clean_sbu_0, # of connection points: 4
#     Node 4, Type 0, BuildingBlock: UXUYUI_clean_sbu_0, # of connection points: 4
#     Node 5, Type 0, BuildingBlock: UXUYUI_clean_sbu_0, # of connection points: 4
#     Edge 6, Type (0, 0), BuildingBlock: EZIPEK_clean_linker_0, # of connection points: 2
#     Edge 7, Type (0, 0), BuildingBlock: EZIPEK_clean_linker_0, # of connection points: 2
#     Edge 8, Type (0, 0), BuildingBlock: EZIPEK_clean_linker_0, # of connection points: 2
#     Edge 9, Type (0, 0), BuildingBlock: EZIPEK_clean_linker_0, # of connection points: 2
#     Edge 10, Type (0, 0), BuildingBlock: EZIPEK_clean_linker_0, # of connection points: 2
#     Edge 11, Type (0, 0), BuildingBlock: EZIPEK_clean_linker_0, # of connection points: 2
#     Edge 12, Type (0, 0), BuildingBlock: EZIPEK_clean_linker_0, # of connection points: 2
#     Edge 13, Type (0, 0), BuildingBlock: EZIPEK_clean_linker_0, # of connection points: 2
#     Edge 14, Type (0, 0), BuildingBlock: EZIPEK_clean_linker_0, # of connection points: 2
#     Edge 15, Type (0, 0), BuildingBlock: EZIPEK_clean_linker_0, # of connection points: 2
#     Edge 16, Type (0, 0), BuildingBlock: EZIPEK_clean_linker_0, # of connection points: 2
#     Edge 17, Type (0, 0), BuildingBlock: EZIPEK_clean_linker_0, # of connection points: 2
# Relax obj value: 0.104
# Max RMSD: 0.125
# Mean RMSD: 0.125
data_MOF--net-uni--node1-UXUYUI_clean_sbu_0--edge1-EZIPEK_clean_linker_0
_symmetry_space_group_name_H-M    P1
_symmetry_Int_Tables_number       1
_symmetry_cell_setting            triclinic
loop_
_symmetry_equiv_pos_as_xyz
'x, y, z'
_cell_length_a     46.406701
_cell_length_b     46.356403
_cell_length_c     27.850432
_cell_angle_alpha  90.123527
_cell_angle_beta   89.906657
_cell_angle_gamma 119.97717
loop_
_atom_site_label
_atom_site_type_symbol
_atom_site_fract_x
_atom_site_fract_y
_atom_site_fract_z
_atom_type_partial_charge
Li0 Li 0.68053 0.04638 0.04838 0.0
Li1 Li 0.63192 0.02666 0.10185 0.0
Li2 Li 0.65162 0.98844 0.07022 0.0
Li3 Li 0.62305 0.00819 0.01654 0.0
C4 C 0.7038 0.0494 0.13564 0.0
N5 N 0.76348 0.09556 0.17658 0.0
C6 C 0.70485 0.07294 0.16809 0.0
C7 C 0.73299 0.04906 0.1244 0.0
C8 C 0.7353 0.09612 0.18836 0.0
C9 C 0.76296 0.07272 0.14532 0.0
C10 C 0.62853 0.07379 0.03576 0.0
C11 C 0.58083 0.08003 0.01982 0.0
N12 N 0.60084 0.1137 0.02002 0.0
C13 C 0.64864 0.10845 0.03539 0.0
C14 C 0.59435 0.05946 0.02765 0.0
C15 C 0.63416 0.12819 0.02756 0.0
C16 C 0.74015 0.08242 0.99497 0.0
N17 N 0.72232 0.08445 0.03233 0.0
C18 C 0.76259 0.14192 0.04421 0.0
C19 C 0.73292 0.1134 0.05697 0.0
C20 C 0.78117 0.14052 0.00549 0.0
C21 C 0.76989 0.11039 0.98082 0.0
H22 H 0.73099 0.05923 0.97562 0.0
H23 H 0.71807 0.11448 0.08609 0.0
C24 C 0.5984 0.01142 0.18942 0.0
N25 N 0.61191 0.03562 0.15539 0.0
C26 C 0.5803 0.01417 0.22748 0.0
C27 C 0.59118 0.06719 0.19562 0.0
C28 C 0.60925 0.06351 0.15827 0.0
C29 C 0.5762 0.04207 0.23026 0.0
H30 H 0.60089 0.98951 0.18613 0.0
H31 H 0.62051 0.0826 0.13122 0.0
C32 C 0.67244 0.98579 0.98253 0.0
N33 N 0.68659 0.94038 0.94012 0.0
C34 C 0.65046 0.96288 0.94907 0.0
C35 C 0.70178 0.98587 0.99406 0.0
C36 C 0.65805 0.94008 0.92806 0.0
C37 C 0.70842 0.9626 0.97237 0.0
C38 C 0.57212 0.96028 0.08112 0.0
C39 C 0.55822 0.92572 0.07855 0.0
C40 C 0.55157 0.97369 0.09059 0.0
C41 C 0.52395 0.90519 0.08478 0.0
C42 C 0.51744 0.95234 0.09672 0.0
N43 N 0.50444 0.91881 0.09365 0.0
C44 C 0.67447 0.95206 0.12439 0.0
C45 C 0.63826 0.92183 0.06024 0.0
C46 C 0.67641 0.9241 0.1382 0.0
N47 N 0.6555 0.95039 0.08613 0.0
C48 C 0.63966 0.89338 0.07258 0.0
C49 C 0.6587 0.89438 0.11219 0.0
H50 H 0.68766 0.97495 0.14466 0.0
H51 H 0.62304 0.92101 0.03038 0.0
C52 C 0.60628 0.02379 0.92845 0.0
N53 N 0.59474 0.99956 0.9625 0.0
C54 C 0.58613 0.02152 0.88982 0.0
C55 C 0.54292 0.96888 0.92115 0.0
C56 C 0.56399 0.97206 0.95908 0.0
C57 C 0.55393 0.99406 0.8865 0.0
H58 H 0.63082 0.04537 0.93217 0.0
H59 H 0.55547 0.95293 0.98613 0.0
O60 O 0.67435 0.02689 0.11484 0.0
O61 O 0.64243 0.05415 0.0431 0.0
O62 O 0.66522 0.008 1.00392 0.0
O63 O 0.6057 0.98069 0.07534 0.0
H64 H 0.68244 0.07349 0.17719 0.0
H65 H 0.73254 0.03094 0.09941 0.0
H66 H 0.73654 0.11461 0.21333 0.0
H67 H 0.7858 0.07295 0.13665 0.0
H68 H 0.55443 0.06923 0.01341 0.0
H69 H 0.67515 0.12003 0.04114 0.0
H70 H 0.57844 0.03277 0.02674 0.0
H71 H 0.64944 0.15504 0.02739 0.0
H72 H 0.77067 0.16495 0.0637 0.0
H73 H 0.78372 0.10871 0.95062 0.0
H74 H 0.56891 0.99439 0.25376 0.0
H75 H 0.58841 0.08903 0.19707 0.0
H76 H 0.62767 0.96255 0.93971 0.0
H77 H 0.71906 1.0035 0.01983 0.0
H78 H 0.6412 0.92209 0.90228 0.0
H79 H 0.73089 0.96218 0.98124 0.0
H80 H 0.57367 0.91482 0.07172 0.0
H81 H 0.56179 1.00024 0.09375 0.0
H82 H 0.51288 0.87842 0.08266 0.0
H83 H 0.50131 0.96243 0.10411 0.0
H84 H 0.69118 0.92547 0.1691 0.0
H85 H 0.6256 0.87067 0.05205 0.0
H86 H 0.59518 0.04135 0.86354 0.0
H87 H 0.51813 0.94738 0.9193 0.0
Li88 Li 0.65384 0.67442 0.21249 0.0
Li89 Li 0.62727 0.62595 0.26698 0.0
Li90 Li 0.68315 0.64754 0.23591 0.0
Li91 Li 0.63529 0.61899 0.18108 0.0
C92 C 0.69048 0.68182 0.31395 0.0
N93 N 0.73962 0.70275 0.38314 0.0
C94 C 0.68405 0.66498 0.35771 0.0
C95 C 0.72179 0.70968 0.30578 0.0
C96 C 0.70922 0.67587 0.39216 0.0
C97 C 0.74634 0.71975 0.34106 0.0
C98 C 0.57478 0.61266 0.20505 0.0
C99 C 0.52998 0.55571 0.20904 0.0
N100 N 0.50846 0.5655 0.19335 0.0
C101 C 0.55224 0.62215 0.1889 0.0
C102 C 0.56361 0.57916 0.21515 0.0
C103 C 0.5188 0.59793 0.18326 0.0
C104 C 0.63724 0.71507 0.15817 0.0
N105 N 0.65566 0.71529 0.19626 0.0
C106 C 0.67659 0.77348 0.20863 0.0
C107 C 0.67499 0.74362 0.22167 0.0
C108 C 0.65781 0.77386 0.16951 0.0
C109 C 0.63791 0.74431 0.14412 0.0
H110 H 0.62214 0.69215 0.13864 0.0
H111 H 0.68924 0.74304 0.25191 0.0
C112 C 0.60306 0.58328 0.34623 0.0
N113 N 0.59801 0.60489 0.31958 0.0
C114 C 0.58163 0.56587 0.384 0.0
C115 C 0.54996 0.59306 0.36601 0.0
C116 C 0.5723 0.61031 0.32888 0.0
C117 C 0.55465 0.57058 0.39386 0.0
H118 H 0.62379 0.57962 0.33808 0.0
H119 H 0.56888 0.62761 0.30701 0.0
C120 C 0.6926 0.68618 0.13807 0.0
N121 N 0.71892 0.73988 0.07602 0.0
C122 C 0.68112 0.68223 0.09082 0.0
C123 C 0.71803 0.71731 0.15337 0.0
C124 C 0.69461 0.70969 0.06008 0.0
C125 C 0.73084 0.7442 0.12161 0.0
C126 C 0.65735 0.57888 0.22619 0.0
C127 C 0.68057 0.58708 0.18915 0.0
C128 C 0.64599 0.54898 0.25109 0.0
C129 C 0.69205 0.56521 0.17776 0.0
C130 C 0.65802 0.52773 0.23852 0.0
N131 N 0.68063 0.53624 0.20245 0.0
C132 C 0.72457 0.63285 0.29124 0.0
C133 C 0.75335 0.67148 0.22881 0.0
C134 C 0.75377 0.63375 0.30573 0.0
N135 N 0.72487 0.65153 0.25342 0.0
C136 C 0.78323 0.67331 0.24232 0.0
C137 C 0.78342 0.65414 0.28106 0.0
H138 H 0.70151 0.61708 0.30999 0.0
H139 H 0.75283 0.68575 0.19855 0.0
C140 C 0.60049 0.6017 0.09418 0.0
N141 N 0.61305 0.58973 0.12782 0.0
C142 C 0.58139 0.58153 0.0562 0.0
C143 C 0.58764 0.53664 0.08859 0.0
C144 C 0.60672 0.55771 0.12589 0.0
C145 C 0.57475 0.5486 0.05343 0.0
H146 H 0.60459 0.62672 0.09763 0.0
H147 H 0.61546 0.54798 0.15385 0.0
O148 O 0.66638 0.67091 0.27924 0.0
O149 O 0.60772 0.63604 0.20972 0.0
O150 O 0.67911 0.65974 0.16911 0.0
O151 O 0.6463 0.60024 0.23886 0.0
H152 H 0.65997 0.64363 0.36499 0.0
H153 H 0.72729 0.72316 0.27235 0.0
H154 H 0.70461 0.6629 0.42602 0.0
H155 H 0.77078 0.74103 0.33493 0.0
H156 H 0.52101 0.52971 0.21666 0.0
H157 H 0.56056 0.64795 0.18066 0.0
H158 H 0.5807 0.57127 0.22735 0.0
H159 H 0.50108 0.60492 0.17077 0.0
H160 H 0.69208 0.79597 0.22892 0.0
H161 H 0.62315 0.74394 0.11379 0.0
H162 H 0.58575 0.54859 0.40493 0.0
H163 H 0.52923 0.59705 0.37284 0.0
H164 H 0.66217 0.65821 0.07784 0.0
H165 H 0.72741 0.72084 0.18961 0.0
H166 H 0.68578 0.70699 0.02351 0.0
H167 H 0.7502 0.76851 0.13326 0.0
H168 H 0.68972 0.61008 0.16944 0.0
H169 H 0.628 0.54219 0.27978 0.0
H170 H 0.71006 0.57128 0.14929 0.0
H171 H 0.64942 0.5045 0.25747 0.0
H172 H 0.75324 0.61864 0.33569 0.0
H173 H 0.80582 0.68914 0.22252 0.0
H174 H 0.57127 0.59122 0.02987 0.0
H175 H 0.58242 0.51111 0.08764 0.0
Li176 Li 0.9975 0.64758 0.38031 0.0
Li177 Li 0.01756 0.6181 0.43546 0.0
Li178 Li 0.05524 0.67527 0.40041 0.0
Li179 Li 0.03297 0.62713 0.35078 0.0
C180 C 0.99412 0.66604 0.46884 0.0
N181 N 0.94597 0.67548 0.51265 0.0
C182 C 0.97168 0.64238 0.50108 0.0
C183 C 0.99228 0.69467 0.45926 0.0
C184 C 0.9475 0.64759 0.52282 0.0
C185 C 0.96767 0.69891 0.48161 0.0
C186 C 0.97 0.57662 0.34685 0.0
C187 C 0.94613 0.51998 0.31886 0.0
N188 N 0.93596 0.52834 0.27806 0.0
C189 C 0.95932 0.58466 0.30465 0.0
C190 C 0.96336 0.54403 0.35409 0.0
C191 C 0.94215 0.5599 0.27031 0.0
C192 C 0.96117 0.67172 0.32878 0.0
N193 N 0.95936 0.65142 0.36528 0.0
C194 C 0.90171 0.63323 0.37712 0.0
C195 C 0.93035 0.63211 0.38917 0.0
C196 C 0.903 0.65393 0.33959 0.0
C197 C 0.93307 0.67339 0.31528 0.0
H198 H 0.98421 0.68602 0.30937 0.0
H199 H 0.92937 0.61549 0.41711 0.0
C200 C 0.03357 0.5997 0.52255 0.0
N201 N 1.00907 0.58987 0.48917 0.0
C202 C 0.03014 0.57876 0.56072 0.0
C203 C 0.97574 0.5385 0.53051 0.0
C204 C 0.98028 0.5602 0.49274 0.0
C205 C 1.00115 0.54763 0.56448 0.0
H206 H 0.05617 0.62346 0.51865 0.0
H207 H 0.96111 0.55322 0.4659 0.0
C208 C 0.05717 0.70118 0.3191 0.0
N209 N 0.10273 0.76496 0.28961 0.0
C210 C 0.08371 0.70662 0.28932 0.0
C211 C 0.05372 0.72819 0.33359 0.0
C212 C 0.10646 0.73903 0.2748 0.0
C213 C 0.07706 0.76024 0.31843 0.0
C214 C 0.08287 0.62457 0.39324 0.0
C215 C 0.10522 0.6393 0.35523 0.0
C216 C 0.08098 0.59702 0.41665 0.0
C217 C 0.12514 0.62607 0.34102 0.0
C218 C 0.1014 0.58459 0.40147 0.0
N219 N 0.12285 0.59922 0.36425 0.0
C220 C 0.08936 0.73626 0.45125 0.0
C221 C 0.12343 0.72723 0.39687 0.0
C222 C 0.11654 0.7664 0.46614 0.0
N223 N 0.09324 0.71735 0.41723 0.0
C224 C 0.15124 0.75725 0.41052 0.0
C225 C 0.14787 0.77696 0.44577 0.0
H226 H 0.06526 0.72774 0.46736 0.0
H227 H 0.12606 0.71179 0.37024 0.0
C228 C 0.04003 0.61552 0.25208 0.0
N229 N 0.0385 0.60399 0.29744 0.0
C230 C 0.04181 0.59776 0.21268 0.0
C231 C 0.03978 0.5563 0.26728 0.0
C232 C 0.03805 0.57482 0.30555 0.0
C233 C 0.0416 0.56777 0.22031 0.0
H234 H 0.03901 0.63804 0.24642 0.0
H235 H 0.03548 0.56548 0.34172 0.0
O236 O 0.01761 0.66108 0.44655 0.0
O237 O 0.98754 0.60072 0.38036 0.0
O238 O 0.03504 0.66971 0.33469 0.0
O239 O 0.06288 0.63694 0.40742 0.0
H240 H 0.97272 0.62011 0.50902 0.0
H241 H 1.00943 0.71326 0.43449 0.0
H242 H 0.92987 0.6294 0.54766 0.0
H243 H 0.9658 0.72082 0.47421 0.0
H244 H 0.94098 0.4947 0.32385 0.0
H245 H 0.96465 0.60985 0.29815 0.0
H246 H 0.97186 0.53749 0.38622 0.0
H247 H 0.93388 0.56579 0.23738 0.0
H248 H 0.87867 0.61767 0.39613 0.0
H249 H 0.93462 0.68932 0.2858 0.0
H250 H 0.05011 0.58645 0.58652 0.0
H251 H 0.95302 0.51464 0.53275 0.0
H252 H 0.08702 0.68615 0.27799 0.0
H253 H 0.03349 0.72452 0.3568 0.0
H254 H 0.1272 0.7436 0.25199 0.0
H255 H 0.07481 0.78138 0.32972 0.0
H256 H 0.10659 0.66017 0.33608 0.0
H257 H 0.06371 0.5851 0.44588 0.0
H258 H 0.14229 0.63703 0.31135 0.0
H259 H 0.10009 0.56321 0.41915 0.0
H260 H 0.1133 0.7811 0.49363 0.0
H261 H 0.17521 0.76479 0.39434 0.0
H262 H 0.04273 0.60693 0.17665 0.0
H263 H 0.0391 0.53297 0.27412 0.0
Li264 Li 0.4168 0.01064 0.60147 0.0
Li265 Li 0.36875 0.98947 0.55155 0.0
Li266 Li 0.4231 0.02365 0.51702 0.0
Li267 Li 0.39665 0.04879 0.5699 0.0
C268 C 0.41495 0.95854 0.56588 0.0
N269 N 0.43509 0.91739 0.60739 0.0
C270 C 0.3915 0.92819 0.58621 0.0
C271 C 0.44863 0.96785 0.56652 0.0
C272 C 0.40218 0.90773 0.60697 0.0
C273 C 0.45832 0.94676 0.58778 0.0
C274 C 0.34443 0.99395 0.63692 0.0
C275 C 0.29414 0.99145 0.66548 0.0
N276 N 0.2825 0.95942 0.67956 0.0
C277 C 0.33206 0.96109 0.65191 0.0
C278 C 0.32541 0.00935 0.64386 0.0
C279 C 0.30065 0.94401 0.67326 0.0
C280 C 0.47016 0.02892 0.66504 0.0
N281 N 0.43836 1.00458 0.65606 0.0
C282 C 0.43962 0.97298 0.72305 0.0
C283 C 0.42275 0.97715 0.68456 0.0
C284 C 0.47254 0.99761 0.73248 0.0
C285 C 0.48783 0.02592 0.70331 0.0
H286 H 0.48187 0.05074 0.64253 0.0
H287 H 0.39736 0.95834 0.67723 0.0
C288 C 0.32671 0.92625 0.51202 0.0
N289 N 0.32601 0.95166 0.53553 0.0
C290 C 0.2972 0.89816 0.49775 0.0
C291 C 0.26656 0.92322 0.53038 0.0
C292 C 0.29672 0.95086 0.54413 0.0
C293 C 0.26677 0.89649 0.50714 0.0
H294 H 0.35028 0.92794 0.50385 0.0
H295 H 0.29669 0.97183 0.56099 0.0
C296 C 0.47231 0.07989 0.55314 0.0
N297 N 0.53109 0.12857 0.51288 0.0
C298 C 0.47583 0.11059 0.54013 0.0
C299 C 0.49882 0.07407 0.54605 0.0
C300 C 0.50573 0.13487 0.5198 0.0
C301 C 0.52828 0.09894 0.52548 0.0
C302 C 0.35696 0.01546 0.47508 0.0
C303 C 0.35588 0.99564 0.43648 0.0
C304 C 0.33066 0.0215 0.48258 0.0
C305 C 0.3282 0.98187 0.40615 0.0
C306 C 0.30346 1.00733 0.45139 0.0
N307 N 0.3028 0.98795 0.41417 0.0
C308 C 0.45498 1.005 0.44817 0.0
C309 C 0.46357 0.05938 0.43614 0.0
C310 C 0.47543 0.00862 0.40923 0.0
N311 N 0.44996 0.03041 0.46142 0.0
C312 C 0.48445 0.06416 0.39702 0.0
C313 C 0.49065 0.03859 0.38367 0.0
H314 H 0.44314 0.98188 0.4679 0.0
H315 H 0.45854 0.07889 0.44668 0.0
C316 C 0.39902 0.0972 0.63187 0.0
N317 N 0.39334 0.08699 0.58531 0.0
C318 C 0.39798 0.12556 0.6461 0.0
C319 C 0.38532 0.13245 0.56413 0.0
C320 C 0.38657 0.10387 0.55145 0.0
C321 C 0.39117 0.1435 0.61195 0.0
H322 H 0.40451 0.08332 0.65788 0.0
H323 H 0.38254 0.09537 0.51458 0.0
O324 O 0.40508 0.97925 0.54609 0.0
O325 O 0.37513 0.01114 0.61598 0.0
O326 O 0.44305 0.05564 0.57255 0.0
O327 O 0.38341 0.02842 0.50585 0.0
H328 H 0.36539 0.92067 0.58668 0.0
H329 H 0.46714 0.99128 0.55119 0.0
H330 H 0.38432 0.88427 0.62304 0.0
H331 H 0.48432 0.9538 0.58881 0.0
H332 H 0.2791 1.003 0.67095 0.0
H333 H 0.34629 0.94871 0.64638 0.0
H334 H 0.33456 0.03474 0.63238 0.0
H335 H 0.29065 0.91847 0.68468 0.0
H336 H 0.42719 0.95093 0.74527 0.0
H337 H 0.5132 0.0454 0.71003 0.0
H338 H 0.29807 0.87799 0.47936 0.0
H339 H 0.24337 0.92271 0.53759 0.0
H340 H 0.45566 0.11561 0.54539 0.0
H341 H 0.49658 0.05049 0.55587 0.0
H342 H 0.50874 0.1587 0.50939 0.0
H343 H 0.54887 0.09466 0.51944 0.0
H344 H 0.37603 0.99065 0.43038 0.0
H345 H 0.33102 0.03653 0.51262 0.0
H346 H 0.32687 0.96627 0.37631 0.0
H347 H 0.2828 0.01158 0.45692 0.0
H348 H 0.47956 0.98835 0.39933 0.0
H349 H 0.4957 0.08748 0.37753 0.0
H350 H 0.40267 0.1336 0.68323 0.0
H351 H 0.38017 0.14596 0.53699 0.0
Li352 Li 0.42166 0.41461 0.7659 0.0
Li353 Li 0.3956 0.3632 0.71288 0.0
Li354 Li 0.41559 0.42163 0.68125 0.0
Li355 Li 0.36723 0.39416 0.73128 0.0
C356 C 0.47137 0.40861 0.72921 0.0
N357 N 0.53078 0.42009 0.76868 0.0
C358 C 0.4753 0.38186 0.74333 0.0
C359 C 0.49776 0.44118 0.73473 0.0
C360 C 0.50553 0.38819 0.76325 0.0
C361 C 0.52754 0.44647 0.75496 0.0
C362 C 0.3555 0.35685 0.8077 0.0
C363 C 0.30038 0.31329 0.829 0.0
N364 N 0.30107 0.33121 0.86815 0.0
C365 C 0.35576 0.37479 0.84824 0.0
C366 C 0.3277 0.3258 0.798 0.0
C367 C 0.32795 0.36141 0.87833 0.0
C368 C 0.45339 0.46544 0.83425 0.0
N369 N 0.44858 0.43504 0.82129 0.0
C370 C 0.48311 0.43623 0.88587 0.0
C371 C 0.46236 0.41994 0.84675 0.0
C372 C 0.48902 0.46794 0.89903 0.0
C373 C 0.47371 0.48247 0.8732 0.0
H374 H 0.44148 0.47655 0.81433 0.0
H375 H 0.45751 0.39542 0.83642 0.0
C376 C 0.40117 0.31869 0.65159 0.0
N377 N 0.39263 0.32192 0.69718 0.0
C378 C 0.40042 0.28944 0.63727 0.0
C379 C 0.382 0.26731 0.71711 0.0
C380 C 0.38314 0.29706 0.72995 0.0
C381 C 0.39082 0.26346 0.6703 0.0
H382 H 0.40873 0.33899 0.62647 0.0
H383 H 0.37676 0.30047 0.76607 0.0
C384 C 0.41201 0.4713 0.71834 0.0
N385 N 0.42953 0.53287 0.68 0.0
C386 C 0.38747 0.47774 0.70123 0.0
C387 C 0.44544 0.49625 0.71616 0.0
C388 C 0.39684 0.50904 0.68202 0.0
C389 C 0.4538 0.52717 0.69651 0.0
C390 C 0.34468 0.36666 0.64292 0.0
C391 C 0.33328 0.38777 0.6271 0.0
C392 C 0.32598 0.33251 0.63355 0.0
C393 C 0.3031 0.37428 0.60239 0.0
C394 C 0.29597 0.31999 0.60862 0.0
N395 N 0.28523 0.34096 0.59374 0.0
C396 C 0.46746 0.45366 0.61467 0.0
C397 C 0.42286 0.46372 0.60068 0.0
C398 C 0.4851 0.47382 0.57592 0.0
N399 N 0.43707 0.44922 0.6266 0.0
C400 C 0.43985 0.48447 0.56195 0.0
C401 C 0.4713 0.48956 0.54939 0.0
H402 H 0.47804 0.44149 0.63521 0.0
H403 H 0.3985 0.45946 0.61019 0.0
C404 C 0.32563 0.41328 0.77659 0.0
N405 N 0.32454 0.38925 0.74725 0.0
C406 C 0.29633 0.41195 0.7918 0.0
C407 C 0.265 0.36081 0.74698 0.0
C408 C 0.29495 0.3629 0.73316 0.0
C409 C 0.2656 0.38563 0.77657 0.0
H410 H 0.34938 0.43342 0.78858 0.0
H411 H 0.29445 0.34321 0.71181 0.0
O412 O 0.44181 0.40294 0.71025 0.0
O413 O 0.38206 0.36998 0.77708 0.0
O414 O 0.40341 0.4407 0.73685 0.0
O415 O 0.37418 0.37932 0.66702 0.0
H416 H 0.45517 0.3565 0.73931 0.0
H417 H 0.49516 0.46215 0.7239 0.0
H418 H 0.50887 0.36774 0.77453 0.0
H419 H 0.54807 0.47155 0.75981 0.0
H420 H 0.27857 0.28941 0.82178 0.0
H421 H 0.37708 0.39894 0.85603 0.0
H422 H 0.32704 0.31179 0.76647 0.0
H423 H 0.32768 0.37509 0.90969 0.0
H424 H 0.49447 0.42436 0.90553 0.0
H425 H 0.47765 0.50683 0.8829 0.0
H426 H 0.40742 0.28714 0.60095 0.0
H427 H 0.37463 0.24765 0.74337 0.0
H428 H 0.36151 0.45869 0.70212 0.0
H429 H 0.46476 0.49168 0.72909 0.0
H430 H 0.37812 0.5143 0.66845 0.0
H431 H 0.47958 0.54661 0.69429 0.0
H432 H 0.34726 0.41417 0.63452 0.0
H433 H 0.33447 0.31583 0.64557 0.0
H434 H 0.29384 0.39028 0.59023 0.0
H435 H 0.28118 0.29361 0.60121 0.0
H436 H 0.50933 0.47727 0.56685 0.0
H437 H 0.42858 0.49627 0.54188 0.0
H438 H 0.29757 0.4313 0.81505 0.0
H439 H 0.2416 0.33996 0.73512 0.0
Li440 Li 0.03022 0.41772 0.93241 0.0
Li441 Li 0.05106 0.39031 0.8809 0.0
Li442 Li 0.01491 0.4091 0.84883 0.0
Li443 Li 0.99319 0.36207 0.90258 0.0
C444 C 0.09219 0.45805 0.89015 0.0
N445 N 0.15714 0.5006 0.91808 0.0
C446 C 0.10385 0.45327 0.93398 0.0
C447 C 0.11356 0.48453 0.8606 0.0
C448 C 0.13676 0.47503 0.94744 0.0
C449 C 0.14631 0.50576 0.87534 0.0
C450 C 0.03329 0.34925 0.96146 0.0
C451 C 0.0327 0.29794 0.94425 0.0
N452 N 0.03575 0.29384 0.99196 0.0
C453 C 0.03644 0.34455 0.01028 0.0
C454 C 0.03141 0.32578 0.92812 0.0
C455 C 0.03763 0.31637 0.025 0.0
C456 C 0.02337 0.43209 0.02821 0.0
N457 N 0.03778 0.44653 0.98573 0.0
C458 C 0.05704 0.50083 0.01853 0.0
C459 C 0.05462 0.48021 0.9803 0.0
C460 C 0.04186 0.48651 0.06239 0.0
C461 C 0.02516 0.45179 0.06737 0.0
H462 H 1.00978 0.40524 0.0312 0.0
H463 H 0.0654 0.49107 0.94594 0.0
C464 C 0.09311 0.38155 0.81787 0.0
N465 N 0.08866 0.3858 0.86507 0.0
C466 C 0.12099 0.37987 0.80305 0.0
C467 C 0.13926 0.38703 0.88571 0.0
C468 C 0.11077 0.38813 0.89904 0.0
C469 C 0.14463 0.38307 0.83715 0.0
H470 H 0.07521 0.37998 0.79167 0.0
H471 H 0.10659 0.39138 0.93636 0.0
C472 C 0.9758 0.42381 0.9091 0.0
N473 N 0.95718 0.4716 0.91897 0.0
C474 C 0.94471 0.4153 0.9283 0.0
C475 C 0.99741 0.45665 0.8949 0.0
C476 C 0.93576 0.43981 0.93303 0.0
C477 C 0.98753 0.48043 0.90014 0.0
C478 C 0.9876 0.34763 0.80489 0.0
C479 C 0.95633 0.34483 0.81022 0.0
C480 C 0.99344 0.33197 0.76621 0.0
C481 C 0.93144 0.32644 0.77666 0.0
C482 C 0.96789 0.31381 0.73339 0.0
N483 N 0.93768 0.31145 0.73925 0.0
C484 C 0.03389 0.44789 0.76587 0.0
C485 C 0.9767 0.42528 0.78455 0.0
C486 C 0.03113 0.46554 0.72734 0.0
N487 N 1.00702 0.42866 0.79389 0.0
C488 C 0.97279 0.44243 0.7462 0.0
C489 C 1.0004 0.46318 0.71767 0.0
H490 H 0.05761 0.44997 0.77409 0.0
H491 H 0.95575 0.40992 0.80749 0.0
C492 C 0.93445 0.32103 0.95322 0.0
N493 N 0.95543 0.32041 0.91964 0.0
C494 C 0.90623 0.29154 0.96735 0.0
C495 C 0.92198 0.26121 0.91257 0.0
C496 C 0.94982 0.29133 0.89929 0.0
C497 C 0.89987 0.26129 0.94685 0.0
H498 H 0.93968 0.3445 0.96898 0.0
H499 H 0.9669 0.29151 0.87268 0.0
O500 O 0.06013 0.43696 0.87584 0.0
O501 O 0.03193 0.37669 0.94678 0.0
O502 O 0.98496 0.40006 0.90492 0.0
O503 O 0.01249 0.36542 0.83723 0.0
H504 H 0.08776 0.43298 0.95742 0.0
H505 H 0.10495 0.48866 0.82661 0.0
H506 H 0.14609 0.47157 0.98122 0.0
H507 H 0.16312 0.52633 0.85278 0.0
H508 H 0.03125 0.27957 0.91885 0.0
H509 H 0.03791 0.3625 0.03653 0.0
H510 H 0.02895 0.32892 0.89019 0.0
H511 H 0.04004 0.3124 0.0627 0.0
H512 H 0.06991 0.52759 0.01368 0.0
H513 H 0.01307 0.44012 0.10084 0.0
H514 H 0.1245 0.37684 0.76529 0.0
H515 H 0.1571 0.38959 0.91283 0.0
H516 H 0.92768 0.39 0.9395 0.0
H517 H 0.02159 0.4638 0.88003 0.0
H518 H 0.91178 0.43357 0.94789 0.0
H519 H 1.00403 0.50592 0.88929 0.0
H520 H 0.95118 0.35656 0.83997 0.0
H521 H 0.01746 0.33381 0.76164 0.0
H522 H 0.90714 0.32406 0.78039 0.0
H523 H 0.97208 0.30158 0.70328 0.0
H524 H 0.05283 0.48131 0.70577 0.0
H525 H 0.94875 0.44012 0.73942 0.0
H526 H 0.88954 0.29226 0.99393 0.0
H527 H 0.91758 0.23816 0.89615 0.0
C528 C 0.52011 0.02958 0.26009 0.0
C529 C 0.55481 0.04404 0.2683 0.0
C530 C 0.54776 0.05663 0.35163 0.0
C531 C 0.51319 0.04286 0.34307 0.0
N532 N 0.46702 0.02157 0.2881 0.0
N533 N 0.60283 0.07608 0.31825 0.0
C534 C 0.49955 0.031 0.29686 0.0
C535 C 0.56901 0.05911 0.31302 0.0
N536 N 0.50674 0.0136 0.21761 0.0
N537 N 0.56001 0.06624 0.3971 0.0
H538 H 0.61904 0.07765 0.29104 0.0
H539 H 0.61506 0.09061 0.34807 0.0
H540 H 0.5454 0.06582 0.4259 0.0
H541 H 0.58411 0.07281 0.40714 0.0
H542 H 0.4813 0.99912 0.21137 0.0
H543 H 0.52113 0.01308 0.18916 0.0
H544 H 0.45632 0.01595 0.25409 0.0
H545 H 0.45115 0.02182 0.31447 0.0
C546 C 0.53502 0.56523 0.47912 0.0
C547 C 0.53091 0.55107 0.43265 0.0
C548 C 0.48401 0.49838 0.4613 0.0
C549 C 0.49019 0.51152 0.50864 0.0
N550 N 0.5214 0.5565 0.5641 0.0
N551 N 0.50277 0.50454 0.37851 0.0
C552 C 0.51551 0.54481 0.51791 0.0
C553 C 0.50555 0.51778 0.42338 0.0
N554 N 0.55744 0.59828 0.48589 0.0
N555 N 0.45736 0.46742 0.45273 0.0
H556 H 0.51689 0.5185 0.34927 0.0
H557 H 0.48768 0.47943 0.37035 0.0
H558 H 0.44181 0.45204 0.47988 0.0
H559 H 0.44917 0.45758 0.4186 0.0
H560 H 0.55944 0.61121 0.51743 0.0
H561 H 0.57295 0.61365 0.45869 0.0
H562 H 0.54181 0.57899 0.57453 0.0
H563 H 0.5065 0.54287 0.59299 0.0
C564 C 0.99559 0.51207 0.6893 0.0
C565 C 0.99762 0.48321 0.67829 0.0
C566 C 1.00211 0.49661 0.59254 0.0
C567 C 0.99808 0.52434 0.60332 0.0
N568 N 0.98443 0.55484 0.66037 0.0
N569 N 0.99607 0.44417 0.61962 0.0
C570 C 0.99279 0.53094 0.65129 0.0
C571 C 0.9988 0.4743 0.62988 0.0
N572 N 0.99779 0.52226 0.73594 0.0
N573 N 1.01054 0.49238 0.54704 0.0
H574 H 0.99357 0.42721 0.64614 0.0
H575 H 0.99327 0.43472 0.58492 0.0
H576 H 0.0132 0.50814 0.51862 0.0
H577 H 0.01753 0.4749 0.53824 0.0
H578 H 1.00029 0.54508 0.74578 0.0
H579 H 0.99981 0.50913 0.76487 0.0
H580 H 0.97688 0.55848 0.69396 0.0
H581 H 0.98218 0.56914 0.63334 0.0
C582 C 0.52999 0.97703 0.80372 0.0
C583 C 0.53122 0.99272 0.84806 0.0
C584 C 0.49008 1.007 0.81877 0.0
C585 C 0.49123 0.9941 0.77302 0.0
N586 N 0.51334 0.9688 0.71988 0.0
N587 N 0.51487 0.0248 0.89773 0.0
C588 C 0.51137 0.97948 0.76497 0.0
C589 C 0.51178 0.00817 0.85567 0.0
N590 N 0.54631 0.95945 0.79903 0.0
N591 N 0.46783 0.01767 0.827 0.0
H592 H 0.52953 0.02515 0.92633 0.0
H593 H 0.50458 0.03997 0.9035 0.0
H594 H 0.45217 0.01798 0.80044 0.0
H595 H 0.46306 0.02399 0.86078 0.0
H596 H 0.54372 0.94448 0.76959 0.0
H597 H 0.56088 0.95792 0.82629 0.0
H598 H 0.53037 0.96147 0.71003 0.0
H599 H 0.49906 0.969 0.69112 0.0
C600 C 0.56729 0.5256 0.96987 0.0
C601 C 0.55311 0.52628 0.01472 0.0
C602 C 0.49775 0.48462 0.98581 0.0
C603 C 0.51145 0.4864 0.93961 0.0
N604 N 0.55832 0.51014 0.88557 0.0
N605 N 0.50495 0.50915 0.0651 0.0
C606 C 0.54603 0.5072 0.93109 0.0
C607 C 0.51834 0.50639 0.02272 0.0
N608 N 0.60112 0.54213 0.96471 0.0
N609 N 0.46514 0.46167 0.99447 0.0
H610 H 0.51933 0.52415 0.09347 0.0
H611 H 0.47951 0.49837 0.07124 0.0
H612 H 0.44924 0.44572 0.968 0.0
H613 H 0.4544 0.45656 0.02848 0.0
H614 H 0.61327 0.53982 0.93476 0.0
H615 H 0.61738 0.55644 0.99205 0.0
H616 H 0.58245 0.52774 0.87567 0.0
H617 H 0.54371 0.49624 0.8566 0.0
C618 C 0.01337 0.51042 0.11129 0.0
C619 C 0.0421 0.50782 0.10241 0.0
C620 C 0.07166 0.54742 0.1675 0.0
C621 C 0.04197 0.54762 0.1791 0.0
N622 N 0.98318 0.52574 0.16721 0.0
N623 N 0.09717 0.52005 0.12518 0.0
C624 C 0.01241 0.52816 0.15236 0.0
C625 C 0.07092 0.52532 0.13135 0.0
N626 N 0.98735 0.49672 0.07966 0.0
N627 N 0.10071 0.56899 0.1902 0.0
H628 H 0.09763 0.50434 0.09868 0.0
H629 H 0.11738 0.52917 0.14846 0.0
H630 H 0.10211 0.58534 0.2171 0.0
H631 H 0.12387 0.57264 0.17989 0.0
H632 H 0.96731 0.5009 0.08123 0.0
H633 H 0.98701 0.48332 0.0493 0.0
H634 H 0.96012 0.509 0.15256 0.0
H635 H 0.98151 0.5386 0.19688 0.0
C636 C 0.68138 0.82597 0.11984 0.0
C637 C 0.65858 0.80514 0.15546 0.0
C638 C 0.63501 0.84208 0.16118 0.0
C639 C 0.659 0.86385 0.12751 0.0
N640 N 0.70744 0.8793 0.07867 0.0
N641 N 0.61649 0.79472 0.21458 0.0
C642 C 0.6829 0.85657 0.10791 0.0
C643 C 0.63619 0.81361 0.17747 0.0
N644 N 0.70104 0.81607 0.09676 0.0
N645 N 0.61055 0.8482 0.17655 0.0
H646 H 0.61579 0.77304 0.22636 0.0
H647 H 0.60244 0.80155 0.23593 0.0
H648 H 0.60945 0.8693 0.16657 0.0
H649 H 0.59004 0.83143 0.1966 0.0
H650 H 0.71549 0.82804 0.0668 0.0
H651 H 0.70144 0.79444 0.10576 0.0
H652 H 0.72777 0.87737 0.06724 0.0
H653 H 0.70875 0.90152 0.06819 0.0
C654 C 0.85109 0.63074 0.28988 0.0
C655 C 0.8725 0.65425 0.3244 0.0
C656 C 0.83497 0.67703 0.33172 0.0
C657 C 0.81452 0.65472 0.29532 0.0
N658 N 0.80426 0.61294 0.23563 0.0
N659 N 0.88755 0.70207 0.37468 0.0
C660 C 0.82293 0.6323 0.2732 0.0
C661 C 0.8652 0.67808 0.34435 0.0
N662 N 0.85734 0.60646 0.27391 0.0
N663 N 0.82501 0.69664 0.35488 0.0
H664 H 0.90935 0.70287 0.386 0.0
H665 H 0.88571 0.72241 0.38639 0.0
H666 H 0.80366 0.69739 0.34539 0.0
H667 H 0.83662 0.71069 0.38533 0.0
H668 H 0.84084 0.58625 0.25311 0.0
H669 H 0.87834 0.60522 0.28398 0.0
H670 H 0.81101 0.59883 0.21427 0.0
H671 H 0.78281 0.61256 0.22351 0.0
C672 C 0.19424 0.80754 0.50482 0.0
C673 C 0.17746 0.80808 0.46255 0.0
C674 C 0.21949 0.8666 0.44899 0.0
C675 C 0.23519 0.86653 0.49266 0.0
N676 N 0.23493 0.83924 0.56634 0.0
N677 N 0.17055 0.83873 0.39817 0.0
C678 C 0.22176 0.83764 0.52185 0.0
C679 C 0.18905 0.83784 0.43572 0.0
N680 N 0.1845 0.77801 0.52777 0.0
N681 N 0.23428 0.89377 0.41951 0.0
H682 H 0.14843 0.81798 0.38703 0.0
H683 H 0.17567 0.86049 0.38032 0.0
H684 H 0.25622 0.91548 0.4285 0.0
H685 H 0.22619 0.89411 0.38479 0.0
H686 H 0.19799 0.77523 0.55539 0.0
H687 H 0.16409 0.75553 0.5169 0.0
H688 H 0.22411 0.82017 0.59153 0.0
H689 H 0.25533 0.86079 0.57979 0.0
C690 C 0.36027 0.20351 0.644 0.0
C691 C 0.39071 0.23251 0.65591 0.0
C692 C 0.42152 0.20408 0.63437 0.0
C693 C 0.39092 0.17428 0.62631 0.0
N694 N 0.331 0.14385 0.62998 0.0
N695 N 0.44981 0.25929 0.66979 0.0
C696 C 0.3602 0.1735 0.63289 0.0
C697 C 0.42123 0.23249 0.65315 0.0
N698 N 0.33158 0.20496 0.64194 0.0
N699 N 0.45084 0.20551 0.62267 0.0
H700 H 0.45062 0.28065 0.68351 0.0
H701 H 0.47216 0.25937 0.67373 0.0
H702 H 0.45206 0.18518 0.60897 0.0
H703 H 0.47373 0.22746 0.62271 0.0
H704 H 0.30928 0.18583 0.62832 0.0
H705 H 0.33059 0.22638 0.65045 0.0
H706 H 0.30802 0.14095 0.63962 0.0
H707 H 0.32997 0.12143 0.62143 0.0
C708 C 0.1995 0.41048 0.79382 0.0
C709 C 0.17553 0.38348 0.82167 0.0
C710 C 0.21195 0.35924 0.82347 0.0
C711 C 0.23419 0.38436 0.79146 0.0
N712 N 0.24576 0.43004 0.73845 0.0
N713 N 0.15603 0.32901 0.85581 0.0
C714 C 0.22699 0.4089 0.77438 0.0
C715 C 0.18092 0.35692 0.8345 0.0
N716 N 0.19671 0.43822 0.78741 0.0
N717 N 0.22096 0.33838 0.84475 0.0
H718 H 0.13284 0.32623 0.86403 0.0
H719 H 0.1573 0.30746 0.86137 0.0
H720 H 0.24364 0.33953 0.83806 0.0
H721 H 0.20732 0.32196 0.87222 0.0
H722 H 0.2153 0.46002 0.77175 0.0
H723 H 0.17731 0.44069 0.80187 0.0
H724 H 0.23953 0.44608 0.72118 0.0
H725 H 0.2658 0.42933 0.72265 0.0
C726 C 0.87144 0.21065 0.99949 0.0
C727 C 0.86974 0.22975 0.96096 0.0
C728 C 0.80978 0.19111 0.953 0.0
C729 C 0.81182 0.171 0.98971 0.0
N730 N 0.8446 0.15861 0.04387 0.0
N731 N 0.83903 0.23637 0.89638 0.0
C732 C 0.8427 0.17992 0.01183 0.0
C733 C 0.83937 0.21943 0.93633 0.0
N734 N 0.90034 0.22238 0.02498 0.0
N735 N 0.77937 0.18361 0.9351 0.0
H736 H 0.86004 0.25772 0.88382 0.0
H737 H 0.81865 0.22807 0.87357 0.0
H738 H 0.75723 0.16263 0.94556 0.0
H739 H 0.77566 0.19926 0.91241 0.0
H740 H 0.90231 0.21173 0.05676 0.0
H741 H 0.92213 0.24425 0.01604 0.0
H742 H 0.86687 0.16175 0.05745 0.0
H743 H 0.82391 0.13628 0.05453 0.0
loop_
_geom_bond_atom_site_label_1
_geom_bond_atom_site_label_2
_geom_bond_distance
_geom_bond_site_symmetry_2
_ccdc_geom_bond_type
Li0 N17 1.990 . S
Li0 O60 1.956 . S
Li0 O61 1.970 . S
Li0 O62 1.967 . S
Li1 N25 1.990 . S
Li1 O60 1.970 . S
Li1 O61 1.956 . S
Li1 O63 1.961 1_545 S
Li2 N47 1.990 . S
Li2 O60 1.961 1_565 S
Li2 O62 1.964 1_565 S
Li2 O63 1.970 . S
Li3 N53 1.990 1_544 S
Li3 O61 1.961 . S
Li3 O62 1.971 . S
Li3 O63 1.956 1_545 S
C4 C6 1.348 . S
C4 C7 1.356 . S
C4 O60 1.325 . S
N5 C8 1.314 . S
N5 C9 1.279 . S
C6 C4 1.348 . S
C6 C8 1.353 . S
C6 H64 0.929 . S
C7 C4 1.356 . S
C7 C9 1.358 . S
C7 H65 0.930 . S
C8 N5 1.314 . S
C8 C6 1.353 . S
C8 H66 0.930 . S
C9 N5 1.279 . S
C9 C7 1.358 . S
C9 H67 0.930 . S
C10 C13 1.348 . S
C10 C14 1.356 . S
C10 O61 1.325 . S
C11 N12 1.279 . S
C11 C14 1.358 . S
C11 H68 0.930 . S
N12 C11 1.279 . S
N12 C15 1.314 . S
C13 C10 1.348 . S
C13 C15 1.353 . S
C13 H69 0.929 . S
C14 C10 1.356 . S
C14 C11 1.358 . S
C14 H70 0.930 . S
C15 N12 1.314 . S
C15 C13 1.353 . S
C15 H71 0.930 . S
C16 N17 1.314 1_556 S
C16 C21 1.353 . S
C16 H22 0.930 . S
N17 Li0 1.990 . S
N17 C16 1.314 1_554 S
N17 C19 1.279 . S
C18 C19 1.358 . S
C18 C20 1.356 . S
C18 H72 0.930 . S
C19 N17 1.279 . S
C19 C18 1.358 . S
C19 H23 0.930 . S
C20 C18 1.356 . S
C20 C21 1.348 1_554 S
C21 C16 1.353 . S
C21 C20 1.348 1_556 S
C21 H73 0.929 . S
H22 C16 0.930 . S
H23 C19 0.930 . S
C24 N25 1.314 1_565 S
C24 C26 1.343 1_565 S
C24 H30 0.930 . S
N25 Li1 1.990 . S
N25 C24 1.314 1_545 S
N25 C28 1.279 . S
C26 C24 1.343 1_545 S
C26 C29 1.378 . S
C26 H74 0.909 1_545 S
C27 C28 1.358 . S
C27 C29 1.356 . S
C27 H75 0.930 . S
C28 N25 1.279 . S
C28 C27 1.358 . S
C28 H31 0.930 . S
C29 C26 1.378 . S
C29 C27 1.356 . S
H30 C24 0.930 . S
H31 C28 0.930 . S
C32 C34 1.342 1_545 S
C32 C35 1.346 . S
C32 O62 1.331 1_556 S
N33 C36 1.314 . S
N33 C37 1.279 1_565 S
C34 C32 1.342 1_565 S
C34 C36 1.353 . S
C34 H76 0.929 . S
C35 C32 1.346 . S
C35 C37 1.358 . S
C35 H77 0.930 . S
C36 N33 1.314 . S
C36 C34 1.353 . S
C36 H78 0.930 . S
C37 N33 1.279 1_545 S
C37 C35 1.358 . S
C37 H79 0.930 . S
C38 C39 1.348 . S
C38 C40 1.356 . S
C38 O63 1.325 . S
C39 C38 1.348 . S
C39 C41 1.353 . S
C39 H80 0.929 . S
C40 C38 1.356 . S
C40 C42 1.358 . S
C40 H81 0.930 . S
C41 C39 1.353 . S
C41 N43 1.314 . S
C41 H82 0.930 . S
C42 C40 1.358 . S
C42 N43 1.279 . S
C42 H83 0.930 . S
N43 C41 1.314 . S
N43 C42 1.279 . S
C44 C46 1.353 . S
C44 N47 1.314 . S
C44 H50 0.930 . S
C45 N47 1.279 . S
C45 C48 1.358 . S
C45 H51 0.930 . S
C46 C44 1.353 . S
C46 C49 1.348 . S
C46 H84 0.929 . S
N47 Li2 1.990 . S
N47 C44 1.314 . S
N47 C45 1.279 . S
C48 C45 1.358 . S
C48 C49 1.356 . S
C48 H85 0.930 . S
C49 C46 1.348 . S
C49 C48 1.356 . S
H50 C44 0.930 . S
H51 C45 0.930 . S
C52 N53 1.314 1_545 S
C52 C54 1.353 . S
C52 H58 0.930 . S
N53 Li3 1.990 1_566 S
N53 C52 1.314 1_565 S
N53 C56 1.279 . S
C54 C52 1.353 . S
C54 C57 1.348 1_545 S
C54 H86 0.929 . S
C55 C56 1.358 . S
C55 C57 1.356 . S
C55 H87 0.930 . S
C56 N53 1.279 . S
C56 C55 1.358 . S
C56 H59 0.930 . S
C57 C54 1.348 1_565 S
C57 C55 1.356 . S
H58 C52 0.930 . S
H59 C56 0.930 . S
O60 Li0 1.956 . S
O60 Li1 1.970 . S
O60 Li2 1.961 1_545 S
O60 C4 1.325 . S
O61 Li0 1.970 . S
O61 Li1 1.956 . S
O61 Li3 1.961 . S
O61 C10 1.325 . S
O62 Li0 1.967 . S
O62 Li2 1.964 1_545 S
O62 Li3 1.971 . S
O62 C32 1.331 1_554 S
O63 Li1 1.961 1_565 S
O63 Li2 1.970 . S
O63 Li3 1.956 1_565 S
O63 C38 1.325 . S
H64 C6 0.929 . S
H65 C7 0.930 . S
H66 C8 0.930 . S
H67 C9 0.930 . S
H68 C11 0.930 . S
H69 C13 0.929 . S
H70 C14 0.930 . S
H71 C15 0.930 . S
H72 C18 0.930 . S
H73 C21 0.929 . S
H74 C26 0.909 1_565 S
H75 C27 0.930 . S
H76 C34 0.929 . S
H77 C35 0.930 . S
H78 C36 0.930 . S
H79 C37 0.930 . S
H80 C39 0.929 . S
H81 C40 0.930 . S
H82 C41 0.930 . S
H83 C42 0.930 . S
H84 C46 0.929 . S
H85 C48 0.930 . S
H86 C54 0.929 . S
H87 C55 0.930 . S
Li88 N105 1.990 . S
Li88 O148 1.956 . S
Li88 O149 1.970 . S
Li88 O150 1.961 . S
Li89 N113 1.990 . S
Li89 O148 1.970 . S
Li89 O149 1.956 . S
Li89 O151 1.961 . S
Li90 N135 1.990 . S
Li90 O148 1.961 . S
Li90 O150 1.956 . S
Li90 O151 1.970 . S
Li91 N141 1.990 . S
Li91 O149 1.961 . S
Li91 O150 1.970 . S
Li91 O151 1.956 . S
C92 C94 1.348 . S
C92 C95 1.356 . S
C92 O148 1.325 . S
N93 C96 1.314 . S
N93 C97 1.279 . S
C94 C92 1.348 . S
C94 C96 1.353 . S
C94 H152 0.929 . S
C95 C92 1.356 . S
C95 C97 1.358 . S
C95 H153 0.930 . S
C96 N93 1.314 . S
C96 C94 1.353 . S
C96 H154 0.930 . S
C97 N93 1.279 . S
C97 C95 1.358 . S
C97 H155 0.930 . S
C98 C101 1.348 . S
C98 C102 1.356 . S
C98 O149 1.325 . S
C99 N100 1.279 . S
C99 C102 1.358 . S
C99 H156 0.930 . S
N100 C99 1.279 . S
N100 C103 1.314 . S
C101 C98 1.348 . S
C101 C103 1.353 . S
C101 H157 0.929 . S
C102 C98 1.356 . S
C102 C99 1.358 . S
C102 H158 0.930 . S
C103 N100 1.314 . S
C103 C101 1.353 . S
C103 H159 0.930 . S
C104 N105 1.314 . S
C104 C109 1.353 . S
C104 H110 0.930 . S
N105 Li88 1.990 . S
N105 C104 1.314 . S
N105 C107 1.279 . S
C106 C107 1.358 . S
C106 C108 1.356 . S
C106 H160 0.930 . S
C107 N105 1.279 . S
C107 C106 1.358 . S
C107 H111 0.930 . S
C108 C106 1.356 . S
C108 C109 1.348 . S
C109 C104 1.353 . S
C109 C108 1.348 . S
C109 H161 0.929 . S
H110 C104 0.930 . S
H111 C107 0.930 . S
C112 N113 1.314 . S
C112 C114 1.353 . S
C112 H118 0.930 . S
N113 Li89 1.990 . S
N113 C112 1.314 . S
N113 C116 1.279 . S
C114 C112 1.353 . S
C114 C117 1.348 . S
C114 H162 0.929 . S
C115 C116 1.358 . S
C115 C117 1.356 . S
C115 H163 0.930 . S
C116 N113 1.279 . S
C116 C115 1.358 . S
C116 H119 0.930 . S
C117 C114 1.348 . S
C117 C115 1.356 . S
H118 C112 0.930 . S
H119 C116 0.930 . S
C120 C122 1.348 . S
C120 C123 1.356 . S
C120 O150 1.325 . S
N121 C124 1.314 . S
N121 C125 1.279 . S
C122 C120 1.348 . S
C122 C124 1.353 . S
C122 H164 0.929 . S
C123 C120 1.356 . S
C123 C125 1.358 . S
C123 H165 0.930 . S
C124 N121 1.314 . S
C124 C122 1.353 . S
C124 H166 0.930 . S
C125 N121 1.279 . S
C125 C123 1.358 . S
C125 H167 0.930 . S
C126 C127 1.348 . S
C126 C128 1.356 . S
C126 O151 1.325 . S
C127 C126 1.348 . S
C127 C129 1.353 . S
C127 H168 0.929 . S
C128 C126 1.356 . S
C128 C130 1.358 . S
C128 H169 0.930 . S
C129 C127 1.353 . S
C129 N131 1.314 . S
C129 H170 0.930 . S
C130 C128 1.358 . S
C130 N131 1.279 . S
C130 H171 0.930 . S
N131 C129 1.314 . S
N131 C130 1.279 . S
C132 C134 1.353 . S
C132 N135 1.314 . S
C132 H138 0.930 . S
C133 N135 1.279 . S
C133 C136 1.358 . S
C133 H139 0.930 . S
C134 C132 1.353 . S
C134 C137 1.348 . S
C134 H172 0.929 . S
N135 Li90 1.990 . S
N135 C132 1.314 . S
N135 C133 1.279 . S
C136 C133 1.358 . S
C136 C137 1.356 . S
C136 H173 0.930 . S
C137 C134 1.348 . S
C137 C136 1.356 . S
H138 C132 0.930 . S
H139 C133 0.930 . S
C140 N141 1.314 . S
C140 C142 1.353 . S
C140 H146 0.930 . S
N141 Li91 1.990 . S
N141 C140 1.314 . S
N141 C144 1.279 . S
C142 C140 1.353 . S
C142 C145 1.348 . S
C142 H174 0.929 . S
C143 C144 1.358 . S
C143 C145 1.356 . S
C143 H175 0.930 . S
C144 N141 1.279 . S
C144 C143 1.358 . S
C144 H147 0.930 . S
C145 C142 1.348 . S
C145 C143 1.356 . S
H146 C140 0.930 . S
H147 C144 0.930 . S
O148 Li88 1.956 . S
O148 Li89 1.970 . S
O148 Li90 1.961 . S
O148 C92 1.325 . S
O149 Li88 1.970 . S
O149 Li89 1.956 . S
O149 Li91 1.961 . S
O149 C98 1.325 . S
O150 Li88 1.961 . S
O150 Li90 1.956 . S
O150 Li91 1.970 . S
O150 C120 1.325 . S
O151 Li89 1.961 . S
O151 Li90 1.970 . S
O151 Li91 1.956 . S
O151 C126 1.325 . S
H152 C94 0.929 . S
H153 C95 0.930 . S
H154 C96 0.930 . S
H155 C97 0.930 . S
H156 C99 0.930 . S
H157 C101 0.929 . S
H158 C102 0.930 . S
H159 C103 0.930 . S
H160 C106 0.930 . S
H161 C109 0.929 . S
H162 C114 0.929 . S
H163 C115 0.930 . S
H164 C122 0.929 . S
H165 C123 0.930 . S
H166 C124 0.930 . S
H167 C125 0.930 . S
H168 C127 0.929 . S
H169 C128 0.930 . S
H170 C129 0.930 . S
H171 C130 0.930 . S
H172 C134 0.929 . S
H173 C136 0.930 . S
H174 C142 0.929 . S
H175 C143 0.930 . S
Li176 N193 1.990 . S
Li176 O236 1.956 1_655 S
Li176 O237 1.970 . S
Li176 O238 1.961 1_655 S
Li177 N201 1.995 1_455 S
Li177 O236 1.970 . S
Li177 O237 1.956 1_455 S
Li177 O239 1.961 . S
Li178 N223 1.990 . S
Li178 O236 1.961 . S
Li178 O238 1.956 . S
Li178 O239 1.970 . S
Li179 N229 1.990 . S
Li179 O237 1.961 1_455 S
Li179 O238 1.970 . S
Li179 O239 1.956 . S
C180 C182 1.348 1_455 S
C180 C183 1.356 . S
C180 O236 1.325 . S
N181 C184 1.314 . S
N181 C185 1.279 1_655 S
C182 C180 1.348 1_655 S
C182 C184 1.353 . S
C182 H240 0.929 . S
C183 C180 1.356 . S
C183 C185 1.358 . S
C183 H241 0.930 . S
C184 N181 1.314 . S
C184 C182 1.353 . S
C184 H242 0.930 . S
C185 N181 1.279 1_455 S
C185 C183 1.358 . S
C185 H243 0.930 . S
C186 C189 1.348 . S
C186 C190 1.356 . S
C186 O237 1.325 . S
C187 N188 1.279 . S
C187 C190 1.358 . S
C187 H244 0.930 . S
N188 C187 1.279 . S
N188 C191 1.314 . S
C189 C186 1.348 . S
C189 C191 1.353 . S
C189 H245 0.929 . S
C190 C186 1.356 . S
C190 C187 1.358 . S
C190 H246 0.930 . S
C191 N188 1.314 . S
C191 C189 1.353 . S
C191 H247 0.930 . S
C192 N193 1.314 . S
C192 C197 1.353 . S
C192 H198 0.930 . S
N193 Li176 1.990 . S
N193 C192 1.314 . S
N193 C195 1.279 . S
C194 C195 1.358 . S
C194 C196 1.356 . S
C194 H248 0.930 . S
C195 N193 1.279 . S
C195 C194 1.358 . S
C195 H199 0.930 . S
C196 C194 1.356 . S
C196 C197 1.348 . S
C197 C192 1.353 . S
C197 C196 1.348 . S
C197 H249 0.929 . S
H198 C192 0.930 . S
H199 C195 0.930 . S
C200 N201 1.297 1_455 S
C200 C202 1.353 . S
C200 H206 0.930 . S
N201 Li177 1.995 1_655 S
N201 C200 1.297 1_655 S
N201 C204 1.291 . S
C202 C200 1.353 . S
C202 C205 1.348 1_455 S
C202 H250 0.929 . S
C203 C204 1.358 . S
C203 C205 1.356 . S
C203 H251 0.930 . S
C204 N201 1.291 . S
C204 C203 1.358 . S
C204 H207 0.930 . S
C205 C202 1.348 1_655 S
C205 C203 1.356 . S
H206 C200 0.930 . S
H207 C204 0.930 . S
C208 C210 1.348 . S
C208 C211 1.356 . S
C208 O238 1.325 . S
N209 C212 1.314 . S
N209 C213 1.279 . S
C210 C208 1.348 . S
C210 C212 1.353 . S
C210 H252 0.929 . S
C211 C208 1.356 . S
C211 C213 1.358 . S
C211 H253 0.930 . S
C212 N209 1.314 . S
C212 C210 1.353 . S
C212 H254 0.930 . S
C213 N209 1.279 . S
C213 C211 1.358 . S
C213 H255 0.930 . S
C214 C215 1.348 . S
C214 C216 1.356 . S
C214 O239 1.325 . S
C215 C214 1.348 . S
C215 C217 1.353 . S
C215 H256 0.929 . S
C216 C214 1.356 . S
C216 C218 1.358 . S
C216 H257 0.930 . S
C217 C215 1.353 . S
C217 N219 1.314 . S
C217 H258 0.930 . S
C218 C216 1.358 . S
C218 N219 1.279 . S
C218 H259 0.930 . S
N219 C217 1.314 . S
N219 C218 1.279 . S
C220 C222 1.353 . S
C220 N223 1.314 . S
C220 H226 0.930 . S
C221 N223 1.279 . S
C221 C224 1.358 . S
C221 H227 0.930 . S
C222 C220 1.353 . S
C222 C225 1.348 . S
C222 H260 0.929 . S
N223 Li178 1.990 . S
N223 C220 1.314 . S
N223 C221 1.279 . S
C224 C221 1.358 . S
C224 C225 1.356 . S
C224 H261 0.930 . S
C225 C222 1.348 . S
C225 C224 1.356 . S
H226 C220 0.930 . S
H227 C221 0.930 . S
C228 N229 1.322 . S
C228 C230 1.357 . S
C228 H234 0.916 1_455 S
N229 Li179 1.990 . S
N229 C228 1.322 . S
N229 C232 1.279 . S
C230 C228 1.357 . S
C230 C233 1.348 . S
C230 H262 0.929 1_455 S
C231 C232 1.358 . S
C231 C233 1.356 . S
C231 H263 0.930 . S
C232 N229 1.279 . S
C232 C231 1.358 . S
C232 H235 0.930 . S
C233 C230 1.348 . S
C233 C231 1.356 . S
H234 C228 0.916 1_655 S
H235 C232 0.930 . S
O236 Li176 1.956 1_455 S
O236 Li177 1.970 . S
O236 Li178 1.961 . S
O236 C180 1.325 . S
O237 Li176 1.970 . S
O237 Li177 1.956 1_655 S
O237 Li179 1.961 1_655 S
O237 C186 1.325 . S
O238 Li176 1.961 1_455 S
O238 Li178 1.956 . S
O238 Li179 1.970 . S
O238 C208 1.325 . S
O239 Li177 1.961 . S
O239 Li178 1.970 . S
O239 Li179 1.956 . S
O239 C214 1.325 . S
H240 C182 0.929 . S
H241 C183 0.930 . S
H242 C184 0.930 . S
H243 C185 0.930 . S
H244 C187 0.930 . S
H245 C189 0.929 . S
H246 C190 0.930 . S
H247 C191 0.930 . S
H248 C194 0.930 . S
H249 C197 0.929 . S
H250 C202 0.929 . S
H251 C203 0.930 . S
H252 C210 0.929 . S
H253 C211 0.930 . S
H254 C212 0.930 . S
H255 C213 0.930 . S
H256 C215 0.929 . S
H257 C216 0.930 . S
H258 C217 0.930 . S
H259 C218 0.930 . S
H260 C222 0.929 . S
H261 C224 0.930 . S
H262 C230 0.929 1_655 S
H263 C231 0.930 . S
Li264 N281 1.990 1_545 S
Li264 O324 1.956 1_545 S
Li264 O325 1.970 . S
Li264 O326 1.961 . S
Li265 N289 1.990 . S
Li265 O324 1.970 . S
Li265 O325 1.956 1_565 S
Li265 O327 1.961 1_565 S
Li266 N311 1.990 . S
Li266 O324 1.961 1_545 S
Li266 O326 1.956 . S
Li266 O327 1.970 . S
Li267 N317 1.990 . S
Li267 O325 1.961 . S
Li267 O326 1.970 . S
Li267 O327 1.956 . S
C268 C270 1.348 . S
C268 C271 1.356 . S
C268 O324 1.325 . S
N269 C272 1.314 . S
N269 C273 1.279 . S
C270 C268 1.348 . S
C270 C272 1.353 . S
C270 H328 0.929 . S
C271 C268 1.356 . S
C271 C273 1.358 . S
C271 H329 0.930 . S
C272 N269 1.314 . S
C272 C270 1.353 . S
C272 H330 0.930 . S
C273 N269 1.279 . S
C273 C271 1.358 . S
C273 H331 0.930 . S
C274 C277 1.332 1_545 S
C274 C278 1.376 . S
C274 O325 1.320 . S
C275 N276 1.279 1_545 S
C275 C278 1.358 . S
C275 H332 0.930 . S
N276 C275 1.279 1_565 S
N276 C279 1.314 . S
C277 C274 1.332 1_565 S
C277 C279 1.353 . S
C277 H333 0.929 . S
C278 C274 1.376 . S
C278 C275 1.358 . S
C278 H334 0.930 . S
C279 N276 1.314 . S
C279 C277 1.353 . S
C279 H335 0.930 . S
C280 N281 1.314 1_545 S
C280 C285 1.353 . S
C280 H286 0.930 . S
N281 Li264 1.990 1_565 S
N281 C280 1.314 1_565 S
N281 C283 1.279 . S
C282 C283 1.358 . S
C282 C284 1.356 . S
C282 H336 0.930 . S
C283 N281 1.279 . S
C283 C282 1.358 . S
C283 H287 0.930 . S
C284 C282 1.356 . S
C284 C285 1.348 1_565 S
C285 C280 1.353 . S
C285 C284 1.348 1_545 S
C285 H337 0.929 . S
H286 C280 0.930 . S
H287 C283 0.930 . S
C288 N289 1.314 . S
C288 C290 1.353 . S
C288 H294 0.930 . S
N289 Li265 1.990 . S
N289 C288 1.314 . S
N289 C292 1.279 . S
C290 C288 1.353 . S
C290 C293 1.348 . S
C290 H338 0.929 . S
C291 C292 1.358 . S
C291 C293 1.356 . S
C291 H339 0.930 . S
C292 N289 1.279 . S
C292 C291 1.358 . S
C292 H295 0.930 . S
C293 C290 1.348 . S
C293 C291 1.356 . S
H294 C288 0.930 . S
H295 C292 0.930 . S
C296 C298 1.348 . S
C296 C299 1.356 . S
C296 O326 1.325 . S
N297 C300 1.314 . S
N297 C301 1.279 . S
C298 C296 1.348 . S
C298 C300 1.353 . S
C298 H340 0.929 . S
C299 C296 1.356 . S
C299 C301 1.358 . S
C299 H341 0.930 . S
C300 N297 1.314 . S
C300 C298 1.353 . S
C300 H342 0.930 . S
C301 N297 1.279 . S
C301 C299 1.358 . S
C301 H343 0.930 . S
C302 C303 1.348 . S
C302 C304 1.356 . S
C302 O327 1.325 . S
C303 C302 1.348 . S
C303 C305 1.353 . S
C303 H344 0.929 . S
C304 C302 1.356 . S
C304 C306 1.358 . S
C304 H345 0.930 . S
C305 C303 1.353 . S
C305 N307 1.314 . S
C305 H346 0.930 . S
C306 C304 1.358 . S
C306 N307 1.279 . S
C306 H347 0.930 . S
N307 C305 1.314 . S
N307 C306 1.279 . S
C308 C310 1.360 1_565 S
C308 N311 1.314 1_565 S
C308 H314 0.930 . S
C309 N311 1.279 . S
C309 C312 1.358 . S
C309 H315 0.930 . S
C310 C308 1.360 1_545 S
C310 C313 1.365 . S
C310 H348 0.906 1_545 S
N311 Li266 1.990 . S
N311 C308 1.314 1_545 S
N311 C309 1.279 . S
C312 C309 1.358 . S
C312 C313 1.356 . S
C312 H349 0.930 . S
C313 C310 1.365 . S
C313 C312 1.356 . S
H314 C308 0.930 . S
H315 C309 0.930 . S
C316 N317 1.314 . S
C316 C318 1.353 . S
C316 H322 0.930 . S
N317 Li267 1.990 . S
N317 C316 1.314 . S
N317 C320 1.279 . S
C318 C316 1.353 . S
C318 C321 1.348 . S
C318 H350 0.929 . S
C319 C320 1.358 . S
C319 C321 1.356 . S
C319 H351 0.930 . S
C320 N317 1.279 . S
C320 C319 1.358 . S
C320 H323 0.930 . S
C321 C318 1.348 . S
C321 C319 1.356 . S
H322 C316 0.930 . S
H323 C320 0.930 . S
O324 Li264 1.956 1_565 S
O324 Li265 1.970 . S
O324 Li266 1.961 1_565 S
O324 C268 1.325 . S
O325 Li264 1.970 . S
O325 Li265 1.956 1_545 S
O325 Li267 1.961 . S
O325 C274 1.320 . S
O326 Li264 1.961 . S
O326 Li266 1.956 . S
O326 Li267 1.970 . S
O326 C296 1.325 . S
O327 Li265 1.961 1_545 S
O327 Li266 1.970 . S
O327 Li267 1.956 . S
O327 C302 1.325 . S
H328 C270 0.929 . S
H329 C271 0.930 . S
H330 C272 0.930 . S
H331 C273 0.930 . S
H332 C275 0.930 . S
H333 C277 0.929 . S
H334 C278 0.930 . S
H335 C279 0.930 . S
H336 C282 0.930 . S
H337 C285 0.929 . S
H338 C290 0.929 . S
H339 C291 0.930 . S
H340 C298 0.929 . S
H341 C299 0.930 . S
H342 C300 0.930 . S
H343 C301 0.930 . S
H344 C303 0.929 . S
H345 C304 0.930 . S
H346 C305 0.930 . S
H347 C306 0.930 . S
H348 C310 0.906 1_565 S
H349 C312 0.930 . S
H350 C318 0.929 . S
H351 C319 0.930 . S
Li352 N369 1.990 . S
Li352 O412 1.956 . S
Li352 O413 1.970 . S
Li352 O414 1.961 . S
Li353 N377 1.990 . S
Li353 O412 1.970 . S
Li353 O413 1.956 . S
Li353 O415 1.961 . S
Li354 N399 1.990 . S
Li354 O412 1.961 . S
Li354 O414 1.956 . S
Li354 O415 1.970 . S
Li355 N405 1.990 . S
Li355 O413 1.961 . S
Li355 O414 1.970 . S
Li355 O415 1.956 . S
C356 C358 1.348 . S
C356 C359 1.356 . S
C356 O412 1.325 . S
N357 C360 1.314 . S
N357 C361 1.279 . S
C358 C356 1.348 . S
C358 C360 1.353 . S
C358 H416 0.929 . S
C359 C356 1.356 . S
C359 C361 1.358 . S
C359 H417 0.930 . S
C360 N357 1.314 . S
C360 C358 1.353 . S
C360 H418 0.930 . S
C361 N357 1.279 . S
C361 C359 1.358 . S
C361 H419 0.930 . S
C362 C365 1.348 . S
C362 C366 1.356 . S
C362 O413 1.325 . S
C363 N364 1.279 . S
C363 C366 1.358 . S
C363 H420 0.930 . S
N364 C363 1.279 . S
N364 C367 1.314 . S
C365 C362 1.348 . S
C365 C367 1.353 . S
C365 H421 0.929 . S
C366 C362 1.356 . S
C366 C363 1.358 . S
C366 H422 0.930 . S
C367 N364 1.314 . S
C367 C365 1.353 . S
C367 H423 0.930 . S
C368 N369 1.314 . S
C368 C373 1.353 . S
C368 H374 0.930 . S
N369 Li352 1.990 . S
N369 C368 1.314 . S
N369 C371 1.279 . S
C370 C371 1.358 . S
C370 C372 1.356 . S
C370 H424 0.930 . S
C371 N369 1.279 . S
C371 C370 1.358 . S
C371 H375 0.930 . S
C372 C370 1.356 . S
C372 C373 1.348 . S
C373 C368 1.353 . S
C373 C372 1.348 . S
C373 H425 0.929 . S
H374 C368 0.930 . S
H375 C371 0.930 . S
C376 N377 1.314 . S
C376 C378 1.353 . S
C376 H382 0.930 . S
N377 Li353 1.990 . S
N377 C376 1.314 . S
N377 C380 1.279 . S
C378 C376 1.353 . S
C378 C381 1.348 . S
C378 H426 0.929 . S
C379 C380 1.358 . S
C379 C381 1.356 . S
C379 H427 0.930 . S
C380 N377 1.279 . S
C380 C379 1.358 . S
C380 H383 0.930 . S
C381 C378 1.348 . S
C381 C379 1.356 . S
H382 C376 0.930 . S
H383 C380 0.930 . S
C384 C386 1.348 . S
C384 C387 1.356 . S
C384 O414 1.325 . S
N385 C388 1.314 . S
N385 C389 1.279 . S
C386 C384 1.348 . S
C386 C388 1.353 . S
C386 H428 0.929 . S
C387 C384 1.356 . S
C387 C389 1.358 . S
C387 H429 0.930 . S
C388 N385 1.314 . S
C388 C386 1.353 . S
C388 H430 0.930 . S
C389 N385 1.279 . S
C389 C387 1.358 . S
C389 H431 0.930 . S
C390 C391 1.348 . S
C390 C392 1.356 . S
C390 O415 1.325 . S
C391 C390 1.348 . S
C391 C393 1.353 . S
C391 H432 0.929 . S
C392 C390 1.356 . S
C392 C394 1.358 . S
C392 H433 0.930 . S
C393 C391 1.353 . S
C393 N395 1.314 . S
C393 H434 0.930 . S
C394 C392 1.358 . S
C394 N395 1.279 . S
C394 H435 0.930 . S
N395 C393 1.314 . S
N395 C394 1.279 . S
C396 C398 1.353 . S
C396 N399 1.314 . S
C396 H402 0.930 . S
C397 N399 1.279 . S
C397 C400 1.358 . S
C397 H403 0.930 . S
C398 C396 1.353 . S
C398 C401 1.348 . S
C398 H436 0.929 . S
N399 Li354 1.990 . S
N399 C396 1.314 . S
N399 C397 1.279 . S
C400 C397 1.358 . S
C400 C401 1.356 . S
C400 H437 0.930 . S
C401 C398 1.348 . S
C401 C400 1.356 . S
H402 C396 0.930 . S
H403 C397 0.930 . S
C404 N405 1.314 . S
C404 C406 1.353 . S
C404 H410 0.930 . S
N405 Li355 1.990 . S
N405 C404 1.314 . S
N405 C408 1.279 . S
C406 C404 1.353 . S
C406 C409 1.348 . S
C406 H438 0.929 . S
C407 C408 1.358 . S
C407 C409 1.356 . S
C407 H439 0.930 . S
C408 N405 1.279 . S
C408 C407 1.358 . S
C408 H411 0.930 . S
C409 C406 1.348 . S
C409 C407 1.356 . S
H410 C404 0.930 . S
H411 C408 0.930 . S
O412 Li352 1.956 . S
O412 Li353 1.970 . S
O412 Li354 1.961 . S
O412 C356 1.325 . S
O413 Li352 1.970 . S
O413 Li353 1.956 . S
O413 Li355 1.961 . S
O413 C362 1.325 . S
O414 Li352 1.961 . S
O414 Li354 1.956 . S
O414 Li355 1.970 . S
O414 C384 1.325 . S
O415 Li353 1.961 . S
O415 Li354 1.970 . S
O415 Li355 1.956 . S
O415 C390 1.325 . S
H416 C358 0.929 . S
H417 C359 0.930 . S
H418 C360 0.930 . S
H419 C361 0.930 . S
H420 C363 0.930 . S
H421 C365 0.929 . S
H422 C366 0.930 . S
H423 C367 0.930 . S
H424 C370 0.930 . S
H425 C373 0.929 . S
H426 C378 0.929 . S
H427 C379 0.930 . S
H428 C386 0.929 . S
H429 C387 0.930 . S
H430 C388 0.930 . S
H431 C389 0.930 . S
H432 C391 0.929 . S
H433 C392 0.930 . S
H434 C393 0.930 . S
H435 C394 0.930 . S
H436 C398 0.929 . S
H437 C400 0.930 . S
H438 C406 0.929 . S
H439 C407 0.930 . S
Li440 N457 1.990 . S
Li440 O500 1.956 . S
Li440 O501 1.970 . S
Li440 O502 1.961 1_455 S
Li441 N465 1.990 . S
Li441 O500 1.970 . S
Li441 O501 1.956 . S
Li441 O503 1.961 . S
Li442 N487 1.980 1_455 S
Li442 O500 1.961 . S
Li442 O502 1.956 1_455 S
Li442 O503 1.970 . S
Li443 N493 1.990 . S
Li443 O501 1.961 1_655 S
Li443 O502 1.970 . S
Li443 O503 1.956 1_655 S
C444 C446 1.348 . S
C444 C447 1.356 . S
C444 O500 1.325 . S
N445 C448 1.314 . S
N445 C449 1.279 . S
C446 C444 1.348 . S
C446 C448 1.353 . S
C446 H504 0.929 . S
C447 C444 1.356 . S
C447 C449 1.358 . S
C447 H505 0.930 . S
C448 N445 1.314 . S
C448 C446 1.353 . S
C448 H506 0.930 . S
C449 N445 1.279 . S
C449 C447 1.358 . S
C449 H507 0.930 . S
C450 C453 1.348 1_556 S
C450 C454 1.356 . S
C450 O501 1.325 . S
C451 N452 1.279 . S
C451 C454 1.358 1_554 S
C451 H508 0.930 . S
N452 C451 1.279 . S
N452 C455 1.314 . S
C453 C450 1.348 1_554 S
C453 C455 1.353 . S
C453 H509 0.929 . S
C454 C450 1.356 . S
C454 C451 1.358 1_556 S
C454 H510 0.930 . S
C455 N452 1.314 . S
C455 C453 1.353 . S
C455 H511 0.930 . S
C456 N457 1.324 1_554 S
C456 C461 1.350 . S
C456 H462 0.922 1_455 S
N457 Li440 1.990 . S
N457 C456 1.324 1_556 S
N457 C459 1.279 . S
C458 C459 1.358 1_554 S
C458 C460 1.356 . S
C458 H512 0.930 . S
C459 N457 1.279 . S
C459 C458 1.358 1_556 S
C459 H463 0.930 . S
C460 C458 1.356 . S
C460 C461 1.348 . S
C461 C456 1.350 . S
C461 C460 1.348 . S
C461 H513 0.929 1_455 S
H462 C456 0.922 1_655 S
H463 C459 0.930 . S
C464 N465 1.314 . S
C464 C466 1.353 . S
C464 H470 0.930 . S
N465 Li441 1.990 . S
N465 C464 1.314 . S
N465 C468 1.279 . S
C466 C464 1.353 . S
C466 C469 1.348 . S
C466 H514 0.929 . S
C467 C468 1.358 . S
C467 C469 1.356 . S
C467 H515 0.930 . S
C468 N465 1.279 . S
C468 C467 1.358 . S
C468 H471 0.930 . S
C469 C466 1.348 . S
C469 C467 1.356 . S
H470 C464 0.930 . S
H471 C468 0.930 . S
C472 C474 1.348 . S
C472 C475 1.356 . S
C472 O502 1.325 . S
N473 C476 1.314 . S
N473 C477 1.279 . S
C474 C472 1.348 . S
C474 C476 1.353 . S
C474 H516 0.929 . S
C475 C472 1.356 . S
C475 C477 1.358 . S
C475 H517 0.930 . S
C476 N473 1.314 . S
C476 C474 1.353 . S
C476 H518 0.930 . S
C477 N473 1.279 . S
C477 C475 1.358 . S
C477 H519 0.930 . S
C478 C479 1.348 1_455 S
C478 C480 1.356 . S
C478 O503 1.325 . S
C479 C478 1.348 1_655 S
C479 C481 1.353 . S
C479 H520 0.929 . S
C480 C478 1.356 . S
C480 C482 1.358 . S
C480 H521 0.930 . S
C481 C479 1.353 . S
C481 N483 1.314 . S
C481 H522 0.930 . S
C482 C480 1.358 . S
C482 N483 1.279 1_455 S
C482 H523 0.930 . S
N483 C481 1.314 . S
N483 C482 1.279 1_655 S
C484 C486 1.353 . S
C484 N487 1.301 1_455 S
C484 H490 0.930 . S
C485 N487 1.303 . S
C485 C488 1.358 . S
C485 H491 0.930 . S
C486 C484 1.353 . S
C486 C489 1.348 1_455 S
C486 H524 0.929 . S
N487 Li442 1.980 1_655 S
N487 C484 1.301 1_655 S
N487 C485 1.303 . S
C488 C485 1.358 . S
C488 C489 1.356 . S
C488 H525 0.930 . S
C489 C486 1.348 1_655 S
C489 C488 1.356 . S
H490 C484 0.930 . S
H491 C485 0.930 . S
C492 N493 1.314 . S
C492 C494 1.353 . S
C492 H498 0.930 . S
N493 Li443 1.990 . S
N493 C492 1.314 . S
N493 C496 1.279 . S
C494 C492 1.353 . S
C494 C497 1.348 . S
C494 H526 0.929 . S
C495 C496 1.358 . S
C495 C497 1.356 . S
C495 H527 0.930 . S
C496 N493 1.279 . S
C496 C495 1.358 . S
C496 H499 0.930 . S
C497 C494 1.348 . S
C497 C495 1.356 . S
H498 C492 0.930 . S
H499 C496 0.930 . S
O500 Li440 1.956 . S
O500 Li441 1.970 . S
O500 Li442 1.961 . S
O500 C444 1.325 . S
O501 Li440 1.970 . S
O501 Li441 1.956 . S
O501 Li443 1.961 1_455 S
O501 C450 1.325 . S
O502 Li440 1.961 1_655 S
O502 Li442 1.956 1_655 S
O502 Li443 1.970 . S
O502 C472 1.325 . S
O503 Li441 1.961 . S
O503 Li442 1.970 . S
O503 Li443 1.956 1_455 S
O503 C478 1.325 . S
H504 C446 0.929 . S
H505 C447 0.930 . S
H506 C448 0.930 . S
H507 C449 0.930 . S
H508 C451 0.930 . S
H509 C453 0.929 . S
H510 C454 0.930 . S
H511 C455 0.930 . S
H512 C458 0.930 . S
H513 C461 0.929 1_655 S
H514 C466 0.929 . S
H515 C467 0.930 . S
H516 C474 0.929 . S
H517 C475 0.930 . S
H518 C476 0.930 . S
H519 C477 0.930 . S
H520 C479 0.929 . S
H521 C480 0.930 . S
H522 C481 0.930 . S
H523 C482 0.930 . S
H524 C486 0.929 . S
H525 C488 0.930 . S
H526 C494 0.929 . S
H527 C495 0.930 . S
C528 C529 1.363 . S
C528 C534 1.379 . S
C528 N536 1.356 1_545 S
C529 C528 1.363 . S
C529 C535 1.363 . S
C530 C531 1.363 . S
C530 C535 1.379 . S
C530 N537 1.356 . S
C531 C530 1.363 . S
C531 C534 1.363 . S
N532 C534 1.356 1_565 S
N532 H544 0.984 . S
N532 H545 0.985 . S
N533 C535 1.356 . S
N533 H538 0.984 . S
N533 H539 0.985 . S
C534 C528 1.379 . S
C534 C531 1.363 . S
C534 N532 1.356 1_545 S
C535 C529 1.363 . S
C535 C530 1.379 . S
C535 N533 1.356 . S
N536 C528 1.356 1_565 S
N536 H542 0.984 . S
N536 H543 0.984 . S
N537 C530 1.356 . S
N537 H540 0.984 . S
N537 H541 0.985 . S
H538 N533 0.984 . S
H539 N533 0.985 . S
H540 N537 0.984 . S
H541 N537 0.985 . S
H542 N536 0.984 . S
H543 N536 0.984 . S
H544 N532 0.984 . S
H545 N532 0.985 . S
C546 C547 1.363 . S
C546 C552 1.379 . S
C546 N554 1.356 . S
C547 C546 1.363 . S
C547 C553 1.363 . S
C548 C549 1.363 . S
C548 C553 1.379 . S
C548 N555 1.356 . S
C549 C548 1.363 . S
C549 C552 1.363 . S
N550 C552 1.356 . S
N550 H562 0.984 . S
N550 H563 0.985 . S
N551 C553 1.356 . S
N551 H556 0.984 . S
N551 H557 0.985 . S
C552 C546 1.379 . S
C552 C549 1.363 . S
C552 N550 1.356 . S
C553 C547 1.363 . S
C553 C548 1.379 . S
C553 N551 1.356 . S
N554 C546 1.356 . S
N554 H560 0.984 . S
N554 H561 0.984 . S
N555 C548 1.356 . S
N555 H558 0.984 . S
N555 H559 0.985 . S
H556 N551 0.984 . S
H557 N551 0.985 . S
H558 N555 0.984 . S
H559 N555 0.985 . S
H560 N554 0.984 . S
H561 N554 0.984 . S
H562 N550 0.984 . S
H563 N550 0.985 . S
C564 C565 1.363 . S
C564 C570 1.379 . S
C564 N572 1.356 . S
C565 C564 1.363 . S
C565 C571 1.363 . S
C566 C567 1.363 . S
C566 C571 1.379 . S
C566 N573 1.356 1_655 S
C567 C566 1.363 . S
C567 C570 1.363 . S
N568 C570 1.356 . S
N568 H580 0.984 . S
N568 H581 0.985 . S
N569 C571 1.351 1_455 S
N569 H574 0.987 1_455 S
N569 H575 0.988 . S
C570 C564 1.379 . S
C570 C567 1.363 . S
C570 N568 1.356 . S
C571 C565 1.363 . S
C571 C566 1.379 . S
C571 N569 1.351 1_655 S
N572 C564 1.356 . S
N572 H578 0.984 . S
N572 H579 0.984 . S
N573 C566 1.356 1_455 S
N573 H576 0.980 1_455 S
N573 H577 0.989 . S
H574 N569 0.987 1_655 S
H575 N569 0.988 . S
H576 N573 0.980 1_655 S
H577 N573 0.989 . S
H578 N572 0.984 . S
H579 N572 0.984 . S
H580 N568 0.984 . S
H581 N568 0.985 . S
C582 C583 1.363 . S
C582 C588 1.379 . S
C582 N590 1.356 . S
C583 C582 1.363 . S
C583 C589 1.363 1_565 S
C584 C585 1.363 1_545 S
C584 C589 1.379 . S
C584 N591 1.356 . S
C585 C584 1.363 1_565 S
C585 C588 1.363 . S
N586 C588 1.356 . S
N586 H598 0.984 . S
N586 H599 0.985 . S
N587 C589 1.356 . S
N587 H592 0.984 . S
N587 H593 0.985 . S
C588 C582 1.379 . S
C588 C585 1.363 . S
C588 N586 1.356 . S
C589 C583 1.363 1_545 S
C589 C584 1.379 . S
C589 N587 1.356 . S
N590 C582 1.356 . S
N590 H596 0.984 . S
N590 H597 0.984 . S
N591 C584 1.356 . S
N591 H594 0.984 . S
N591 H595 0.985 . S
H592 N587 0.984 . S
H593 N587 0.985 . S
H594 N591 0.984 . S
H595 N591 0.985 . S
H596 N590 0.984 . S
H597 N590 0.984 . S
H598 N586 0.984 . S
H599 N586 0.985 . S
C600 C601 1.363 . S
C600 C606 1.379 . S
C600 N608 1.356 . S
C601 C600 1.363 . S
C601 C607 1.363 1_556 S
C602 C603 1.363 . S
C602 C607 1.376 1_556 S
C602 N609 1.356 . S
C603 C602 1.363 . S
C603 C606 1.363 . S
N604 C606 1.356 . S
N604 H616 0.984 . S
N604 H617 0.985 . S
N605 C607 1.360 . S
N605 H610 0.984 . S
N605 H611 0.985 . S
C606 C600 1.379 . S
C606 C603 1.363 . S
C606 N604 1.356 . S
C607 C601 1.363 1_554 S
C607 C602 1.376 1_554 S
C607 N605 1.360 . S
N608 C600 1.356 . S
N608 H614 0.984 . S
N608 H615 0.984 . S
N609 C602 1.356 . S
N609 H612 0.984 . S
N609 H613 0.985 . S
H610 N605 0.984 . S
H611 N605 0.985 . S
H612 N609 0.984 . S
H613 N609 0.985 . S
H614 N608 0.984 . S
H615 N608 0.984 . S
H616 N604 0.984 . S
H617 N604 0.985 . S
C618 C619 1.363 . S
C618 C624 1.379 . S
C618 N626 1.356 1_455 S
C619 C618 1.363 . S
C619 C625 1.363 . S
C620 C621 1.363 . S
C620 C625 1.379 . S
C620 N627 1.356 . S
C621 C620 1.363 . S
C621 C624 1.363 . S
N622 C624 1.356 1_655 S
N622 H634 0.984 . S
N622 H635 0.985 . S
N623 C625 1.356 . S
N623 H628 0.984 . S
N623 H629 0.985 . S
C624 C618 1.379 . S
C624 C621 1.363 . S
C624 N622 1.356 1_455 S
C625 C619 1.363 . S
C625 C620 1.379 . S
C625 N623 1.356 . S
N626 C618 1.356 1_655 S
N626 H632 0.984 . S
N626 H633 0.984 . S
N627 C620 1.356 . S
N627 H630 0.984 . S
N627 H631 0.985 . S
H628 N623 0.984 . S
H629 N623 0.985 . S
H630 N627 0.984 . S
H631 N627 0.985 . S
H632 N626 0.984 . S
H633 N626 0.984 . S
H634 N622 0.984 . S
H635 N622 0.985 . S
C636 C637 1.363 . S
C636 C642 1.379 . S
C636 N644 1.356 . S
C637 C636 1.363 . S
C637 C643 1.363 . S
C638 C639 1.363 . S
C638 C643 1.379 . S
C638 N645 1.356 . S
C639 C638 1.363 . S
C639 C642 1.363 . S
N640 C642 1.356 . S
N640 H652 0.984 . S
N640 H653 0.985 . S
N641 C643 1.356 . S
N641 H646 0.984 . S
N641 H647 0.985 . S
C642 C636 1.379 . S
C642 C639 1.363 . S
C642 N640 1.356 . S
C643 C637 1.363 . S
C643 C638 1.379 . S
C643 N641 1.356 . S
N644 C636 1.356 . S
N644 H650 0.984 . S
N644 H651 0.984 . S
N645 C638 1.356 . S
N645 H648 0.984 . S
N645 H649 0.985 . S
H646 N641 0.984 . S
H647 N641 0.985 . S
H648 N645 0.984 . S
H649 N645 0.985 . S
H650 N644 0.984 . S
H651 N644 0.984 . S
H652 N640 0.984 . S
H653 N640 0.985 . S
C654 C655 1.363 . S
C654 C660 1.379 . S
C654 N662 1.356 . S
C655 C654 1.363 . S
C655 C661 1.363 . S
C656 C657 1.363 . S
C656 C661 1.379 . S
C656 N663 1.356 . S
C657 C656 1.363 . S
C657 C660 1.363 . S
N658 C660 1.356 . S
N658 H670 0.984 . S
N658 H671 0.985 . S
N659 C661 1.356 . S
N659 H664 0.984 . S
N659 H665 0.985 . S
C660 C654 1.379 . S
C660 C657 1.363 . S
C660 N658 1.356 . S
C661 C655 1.363 . S
C661 C656 1.379 . S
C661 N659 1.356 . S
N662 C654 1.356 . S
N662 H668 0.984 . S
N662 H669 0.984 . S
N663 C656 1.356 . S
N663 H666 0.984 . S
N663 H667 0.985 . S
H664 N659 0.984 . S
H665 N659 0.985 . S
H666 N663 0.984 . S
H667 N663 0.985 . S
H668 N662 0.984 . S
H669 N662 0.984 . S
H670 N658 0.984 . S
H671 N658 0.985 . S
C672 C673 1.363 . S
C672 C678 1.379 . S
C672 N680 1.356 . S
C673 C672 1.363 . S
C673 C679 1.363 . S
C674 C675 1.363 . S
C674 C679 1.379 . S
C674 N681 1.356 . S
C675 C674 1.363 . S
C675 C678 1.363 . S
N676 C678 1.356 . S
N676 H688 0.984 . S
N676 H689 0.985 . S
N677 C679 1.356 . S
N677 H682 0.984 . S
N677 H683 0.985 . S
C678 C672 1.379 . S
C678 C675 1.363 . S
C678 N676 1.356 . S
C679 C673 1.363 . S
C679 C674 1.379 . S
C679 N677 1.356 . S
N680 C672 1.356 . S
N680 H686 0.984 . S
N680 H687 0.984 . S
N681 C674 1.356 . S
N681 H684 0.984 . S
N681 H685 0.985 . S
H682 N677 0.984 . S
H683 N677 0.985 . S
H684 N681 0.984 . S
H685 N681 0.985 . S
H686 N680 0.984 . S
H687 N680 0.984 . S
H688 N676 0.984 . S
H689 N676 0.985 . S
C690 C691 1.363 . S
C690 C696 1.379 . S
C690 N698 1.356 . S
C691 C690 1.363 . S
C691 C697 1.363 . S
C692 C693 1.363 . S
C692 C697 1.379 . S
C692 N699 1.356 . S
C693 C692 1.363 . S
C693 C696 1.363 . S
N694 C696 1.356 . S
N694 H706 0.984 . S
N694 H707 0.985 . S
N695 C697 1.356 . S
N695 H700 0.984 . S
N695 H701 0.985 . S
C696 C690 1.379 . S
C696 C693 1.363 . S
C696 N694 1.356 . S
C697 C691 1.363 . S
C697 C692 1.379 . S
C697 N695 1.356 . S
N698 C690 1.356 . S
N698 H704 0.984 . S
N698 H705 0.984 . S
N699 C692 1.356 . S
N699 H702 0.984 . S
N699 H703 0.985 . S
H700 N695 0.984 . S
H701 N695 0.985 . S
H702 N699 0.984 . S
H703 N699 0.985 . S
H704 N698 0.984 . S
H705 N698 0.984 . S
H706 N694 0.984 . S
H707 N694 0.985 . S
C708 C709 1.363 . S
C708 C714 1.379 . S
C708 N716 1.356 . S
C709 C708 1.363 . S
C709 C715 1.363 . S
C710 C711 1.363 . S
C710 C715 1.379 . S
C710 N717 1.356 . S
C711 C710 1.363 . S
C711 C714 1.363 . S
N712 C714 1.356 . S
N712 H724 0.984 . S
N712 H725 0.985 . S
N713 C715 1.356 . S
N713 H718 0.984 . S
N713 H719 0.985 . S
C714 C708 1.379 . S
C714 C711 1.363 . S
C714 N712 1.356 . S
C715 C709 1.363 . S
C715 C710 1.379 . S
C715 N713 1.356 . S
N716 C708 1.356 . S
N716 H722 0.984 . S
N716 H723 0.984 . S
N717 C710 1.356 . S
N717 H720 0.984 . S
N717 H721 0.985 . S
H718 N713 0.984 . S
H719 N713 0.985 . S
H720 N717 0.984 . S
H721 N717 0.985 . S
H722 N716 0.984 . S
H723 N716 0.984 . S
H724 N712 0.984 . S
H725 N712 0.985 . S
C726 C727 1.363 . S
C726 C732 1.379 1_556 S
C726 N734 1.356 . S
C727 C726 1.363 . S
C727 C733 1.363 . S
C728 C729 1.363 1_556 S
C728 C733 1.379 . S
C728 N735 1.356 . S
C729 C728 1.363 1_554 S
C729 C732 1.363 . S
N730 C732 1.356 . S
N730 H742 0.984 . S
N730 H743 0.985 . S
N731 C733 1.356 . S
N731 H736 0.984 . S
N731 H737 0.985 . S
C732 C726 1.379 1_554 S
C732 C729 1.363 . S
C732 N730 1.356 . S
C733 C727 1.363 . S
C733 C728 1.379 . S
C733 N731 1.356 . S
N734 C726 1.356 . S
N734 H740 0.984 1_556 S
N734 H741 0.984 . S
N735 C728 1.356 . S
N735 H738 0.984 . S
N735 H739 0.985 . S
H736 N731 0.984 . S
H737 N731 0.985 . S
H738 N735 0.984 . S
H739 N735 0.985 . S
H740 N734 0.984 1_554 S
H741 N734 0.984 . S
H742 N730 0.984 . S
H743 N730 0.985 . S
C529 C29 1.367 . S
C531 C313 1.367 . S
C547 C117 1.367 . S
C549 C401 1.367 . S
C565 C489 1.367 . S
C567 C205 1.367 . S
C583 C57 1.367 . S
C585 C284 1.367 . S
C601 C145 1.367 1_556 S
C603 C372 1.367 . S
C619 C460 1.367 . S
C621 C233 1.367 . S
C637 C108 1.587 . S
C639 C49 1.587 . S
C655 C196 1.586 . S
C657 C137 1.586 . S
C673 C225 1.586 . S
C675 C293 1.586 . S
C691 C381 1.586 . S
C693 C321 1.586 . S
C709 C469 1.586 . S
C711 C409 1.586 . S
C727 C497 1.586 . S
C729 C20 1.586 . S
