# Generated by pormake.
# Topology uke, (4)-cn, num edge types: 1
# Building blocks:
#     Node 0, Type 0, BuildingBlock: CEKHIL_clean_sbu_0, # of connection points: 4
#     Node 1, Type 0, BuildingBlock: CEKHIL_clean_sbu_0, # of connection points: 4
#     Node 2, Type 0, BuildingBlock: CEKHIL_clean_sbu_0, # of connection points: 4
#     Node 3, Type 0, BuildingBlock: CEKHIL_clean_sbu_0, # of connection points: 4
#     Node 4, Type 0, BuildingBlock: CEKHIL_clean_sbu_0, # of connection points: 4
#     Node 5, Type 0, BuildingBlock: CEKHIL_clean_sbu_0, # of connection points: 4
#     Node 6, Type 0, BuildingBlock: CEKHIL_clean_sbu_0, # of connection points: 4
#     Node 7, Type 0, BuildingBlock: CEKHIL_clean_sbu_0, # of connection points: 4
#     Node 8, Type 0, BuildingBlock: CEKHIL_clean_sbu_0, # of connection points: 4
#     Node 9, Type 0, BuildingBlock: CEKHIL_clean_sbu_0, # of connection points: 4
#     Node 10, Type 0, BuildingBlock: CEKHIL_clean_sbu_0, # of connection points: 4
#     Node 11, Type 0, BuildingBlock: CEKHIL_clean_sbu_0, # of connection points: 4
#     Node 12, Type 0, BuildingBlock: CEKHIL_clean_sbu_0, # of connection points: 4
#     Node 13, Type 0, BuildingBlock: CEKHIL_clean_sbu_0, # of connection points: 4
#     Node 14, Type 0, BuildingBlock: CEKHIL_clean_sbu_0, # of connection points: 4
#     Node 15, Type 0, BuildingBlock: CEKHIL_clean_sbu_0, # of connection points: 4
#     Node 16, Type 0, BuildingBlock: CEKHIL_clean_sbu_0, # of connection points: 4
#     Node 17, Type 0, BuildingBlock: CEKHIL_clean_sbu_0, # of connection points: 4
#     Node 18, Type 0, BuildingBlock: CEKHIL_clean_sbu_0, # of connection points: 4
#     Node 19, Type 0, BuildingBlock: CEKHIL_clean_sbu_0, # of connection points: 4
#     Node 20, Type 0, BuildingBlock: CEKHIL_clean_sbu_0, # of connection points: 4
#     Node 21, Type 0, BuildingBlock: CEKHIL_clean_sbu_0, # of connection points: 4
#     Node 22, Type 0, BuildingBlock: CEKHIL_clean_sbu_0, # of connection points: 4
#     Node 23, Type 0, BuildingBlock: CEKHIL_clean_sbu_0, # of connection points: 4
#     Node 24, Type 0, BuildingBlock: CEKHIL_clean_sbu_0, # of connection points: 4
#     Node 25, Type 0, BuildingBlock: CEKHIL_clean_sbu_0, # of connection points: 4
#     Node 26, Type 0, BuildingBlock: CEKHIL_clean_sbu_0, # of connection points: 4
#     Node 27, Type 0, BuildingBlock: CEKHIL_clean_sbu_0, # of connection points: 4
#     Node 28, Type 0, BuildingBlock: CEKHIL_clean_sbu_0, # of connection points: 4
#     Node 29, Type 0, BuildingBlock: CEKHIL_clean_sbu_0, # of connection points: 4
#     Node 30, Type 0, BuildingBlock: CEKHIL_clean_sbu_0, # of connection points: 4
#     Node 31, Type 0, BuildingBlock: CEKHIL_clean_sbu_0, # of connection points: 4
#     Edge 32, Type (0, 0), BuildingBlock: MIFKUJ_clean_linker_0, # of connection points: 2
#     Edge 33, Type (0, 0), BuildingBlock: MIFKUJ_clean_linker_0, # of connection points: 2
#     Edge 34, Type (0, 0), BuildingBlock: MIFKUJ_clean_linker_0, # of connection points: 2
#     Edge 35, Type (0, 0), BuildingBlock: MIFKUJ_clean_linker_0, # of connection points: 2
#     Edge 36, Type (0, 0), BuildingBlock: MIFKUJ_clean_linker_0, # of connection points: 2
#     Edge 37, Type (0, 0), BuildingBlock: MIFKUJ_clean_linker_0, # of connection points: 2
#     Edge 38, Type (0, 0), BuildingBlock: MIFKUJ_clean_linker_0, # of connection points: 2
#     Edge 39, Type (0, 0), BuildingBlock: MIFKUJ_clean_linker_0, # of connection points: 2
#     Edge 40, Type (0, 0), BuildingBlock: MIFKUJ_clean_linker_0, # of connection points: 2
#     Edge 41, Type (0, 0), BuildingBlock: MIFKUJ_clean_linker_0, # of connection points: 2
#     Edge 42, Type (0, 0), BuildingBlock: MIFKUJ_clean_linker_0, # of connection points: 2
#     Edge 43, Type (0, 0), BuildingBlock: MIFKUJ_clean_linker_0, # of connection points: 2
#     Edge 44, Type (0, 0), BuildingBlock: MIFKUJ_clean_linker_0, # of connection points: 2
#     Edge 45, Type (0, 0), BuildingBlock: MIFKUJ_clean_linker_0, # of connection points: 2
#     Edge 46, Type (0, 0), BuildingBlock: MIFKUJ_clean_linker_0, # of connection points: 2
#     Edge 47, Type (0, 0), BuildingBlock: MIFKUJ_clean_linker_0, # of connection points: 2
#     Edge 48, Type (0, 0), BuildingBlock: MIFKUJ_clean_linker_0, # of connection points: 2
#     Edge 49, Type (0, 0), BuildingBlock: MIFKUJ_clean_linker_0, # of connection points: 2
#     Edge 50, Type (0, 0), BuildingBlock: MIFKUJ_clean_linker_0, # of connection points: 2
#     Edge 51, Type (0, 0), BuildingBlock: MIFKUJ_clean_linker_0, # of connection points: 2
#     Edge 52, Type (0, 0), BuildingBlock: MIFKUJ_clean_linker_0, # of connection points: 2
#     Edge 53, Type (0, 0), BuildingBlock: MIFKUJ_clean_linker_0, # of connection points: 2
#     Edge 54, Type (0, 0), BuildingBlock: MIFKUJ_clean_linker_0, # of connection points: 2
#     Edge 55, Type (0, 0), BuildingBlock: MIFKUJ_clean_linker_0, # of connection points: 2
#     Edge 56, Type (0, 0), BuildingBlock: MIFKUJ_clean_linker_0, # of connection points: 2
#     Edge 57, Type (0, 0), BuildingBlock: MIFKUJ_clean_linker_0, # of connection points: 2
#     Edge 58, Type (0, 0), BuildingBlock: MIFKUJ_clean_linker_0, # of connection points: 2
#     Edge 59, Type (0, 0), BuildingBlock: MIFKUJ_clean_linker_0, # of connection points: 2
#     Edge 60, Type (0, 0), BuildingBlock: MIFKUJ_clean_linker_0, # of connection points: 2
#     Edge 61, Type (0, 0), BuildingBlock: MIFKUJ_clean_linker_0, # of connection points: 2
#     Edge 62, Type (0, 0), BuildingBlock: MIFKUJ_clean_linker_0, # of connection points: 2
#     Edge 63, Type (0, 0), BuildingBlock: MIFKUJ_clean_linker_0, # of connection points: 2
#     Edge 64, Type (0, 0), BuildingBlock: MIFKUJ_clean_linker_0, # of connection points: 2
#     Edge 65, Type (0, 0), BuildingBlock: MIFKUJ_clean_linker_0, # of connection points: 2
#     Edge 66, Type (0, 0), BuildingBlock: MIFKUJ_clean_linker_0, # of connection points: 2
#     Edge 67, Type (0, 0), BuildingBlock: MIFKUJ_clean_linker_0, # of connection points: 2
#     Edge 68, Type (0, 0), BuildingBlock: MIFKUJ_clean_linker_0, # of connection points: 2
#     Edge 69, Type (0, 0), BuildingBlock: MIFKUJ_clean_linker_0, # of connection points: 2
#     Edge 70, Type (0, 0), BuildingBlock: MIFKUJ_clean_linker_0, # of connection points: 2
#     Edge 71, Type (0, 0), BuildingBlock: MIFKUJ_clean_linker_0, # of connection points: 2
#     Edge 72, Type (0, 0), BuildingBlock: MIFKUJ_clean_linker_0, # of connection points: 2
#     Edge 73, Type (0, 0), BuildingBlock: MIFKUJ_clean_linker_0, # of connection points: 2
#     Edge 74, Type (0, 0), BuildingBlock: MIFKUJ_clean_linker_0, # of connection points: 2
#     Edge 75, Type (0, 0), BuildingBlock: MIFKUJ_clean_linker_0, # of connection points: 2
#     Edge 76, Type (0, 0), BuildingBlock: MIFKUJ_clean_linker_0, # of connection points: 2
#     Edge 77, Type (0, 0), BuildingBlock: MIFKUJ_clean_linker_0, # of connection points: 2
#     Edge 78, Type (0, 0), BuildingBlock: MIFKUJ_clean_linker_0, # of connection points: 2
#     Edge 79, Type (0, 0), BuildingBlock: MIFKUJ_clean_linker_0, # of connection points: 2
#     Edge 80, Type (0, 0), BuildingBlock: MIFKUJ_clean_linker_0, # of connection points: 2
#     Edge 81, Type (0, 0), BuildingBlock: MIFKUJ_clean_linker_0, # of connection points: 2
#     Edge 82, Type (0, 0), BuildingBlock: MIFKUJ_clean_linker_0, # of connection points: 2
#     Edge 83, Type (0, 0), BuildingBlock: MIFKUJ_clean_linker_0, # of connection points: 2
#     Edge 84, Type (0, 0), BuildingBlock: MIFKUJ_clean_linker_0, # of connection points: 2
#     Edge 85, Type (0, 0), BuildingBlock: MIFKUJ_clean_linker_0, # of connection points: 2
#     Edge 86, Type (0, 0), BuildingBlock: MIFKUJ_clean_linker_0, # of connection points: 2
#     Edge 87, Type (0, 0), BuildingBlock: MIFKUJ_clean_linker_0, # of connection points: 2
#     Edge 88, Type (0, 0), BuildingBlock: MIFKUJ_clean_linker_0, # of connection points: 2
#     Edge 89, Type (0, 0), BuildingBlock: MIFKUJ_clean_linker_0, # of connection points: 2
#     Edge 90, Type (0, 0), BuildingBlock: MIFKUJ_clean_linker_0, # of connection points: 2
#     Edge 91, Type (0, 0), BuildingBlock: MIFKUJ_clean_linker_0, # of connection points: 2
#     Edge 92, Type (0, 0), BuildingBlock: MIFKUJ_clean_linker_0, # of connection points: 2
#     Edge 93, Type (0, 0), BuildingBlock: MIFKUJ_clean_linker_0, # of connection points: 2
#     Edge 94, Type (0, 0), BuildingBlock: MIFKUJ_clean_linker_0, # of connection points: 2
#     Edge 95, Type (0, 0), BuildingBlock: MIFKUJ_clean_linker_0, # of connection points: 2
# Relax obj value: 0.084
# Max RMSD: 0.185
# Mean RMSD: 0.185
data_MOF--net-uke--node1-CEKHIL_clean_sbu_0--edge1-MIFKUJ_clean_linker_0
_symmetry_space_group_name_H-M    P1
_symmetry_Int_Tables_number       1
_symmetry_cell_setting            triclinic
loop_
_symmetry_equiv_pos_as_xyz
'x, y, z'
_cell_length_a     25.482723
_cell_length_b     141.62498
_cell_length_c     69.670352
_cell_angle_alpha  90.000255
_cell_angle_beta   90.007351
_cell_angle_gamma 90.002782
loop_
_atom_site_label
_atom_site_type_symbol
_atom_site_fract_x
_atom_site_fract_y
_atom_site_fract_z
_atom_type_partial_charge
Co0 Co 0.10583 0.05875 0.268 0.0
O1 O 0.08969 0.05859 0.29478 0.0
O2 O 0.0374 0.06446 0.27226 0.0
C3 C 0.13369 0.04381 0.26591 0.0
O4 O 0.11124 0.05978 0.23871 0.0
Co5 Co 0.22264 0.05647 0.25624 0.0
O6 O 0.19037 0.05375 0.23091 0.0
C7 C 0.18738 0.07431 0.27287 0.0
C8 C 0.04631 0.06283 0.29038 0.0
C9 C 0.14457 0.05658 0.22635 0.0
O10 O 0.14007 0.07131 0.2717 0.0
O11 O 0.22756 0.06938 0.26832 0.0
O12 O 0.08383 0.04571 0.2652 0.0
O13 O 0.16417 0.05084 0.27004 0.0
Co14 Co 0.15621 0.18485 0.27372 0.0
O15 O 0.17945 0.18607 0.29975 0.0
O16 O 0.22472 0.17895 0.27671 0.0
C17 C 0.12917 0.19977 0.26996 0.0
O18 O 0.14345 0.1827 0.24491 0.0
Co19 Co 0.03701 0.18696 0.26611 0.0
O20 O 0.05878 0.18632 0.23887 0.0
C21 C 0.07535 0.16956 0.28336 0.0
C22 C 0.22089 0.18143 0.29467 0.0
C23 C 0.10453 0.18394 0.23327 0.0
O24 O 0.12217 0.17257 0.28061 0.0
O25 O 0.03427 0.17436 0.27939 0.0
O26 O 0.17843 0.19762 0.26788 0.0
O27 O 0.09928 0.19309 0.27643 0.0
Co28 Co 0.08706 0.18533 0.98565 0.0
O29 O 0.07015 0.186 0.95904 0.0
O30 O 0.01434 0.18144 0.98149 0.0
C31 C 0.12669 0.19939 0.98714 0.0
O32 O 0.09407 0.18423 0.015 0.0
Co33 Co 0.20582 0.18443 0.99525 0.0
O34 O 0.17915 0.18736 0.02131 0.0
C35 C 0.15421 0.16773 0.97943 0.0
C36 C 0.02385 0.18294 0.96333 0.0
C37 C 0.13193 0.18607 0.02682 0.0
O38 O 0.11021 0.17195 0.98191 0.0
O39 O 0.19851 0.17169 0.98264 0.0
O40 O 0.07595 0.19881 0.98846 0.0
O41 O 0.15076 0.19163 0.98284 0.0
Co42 Co 0.19268 0.05137 0.98074 0.0
O43 O 0.2098 0.04948 0.95442 0.0
O44 O 0.26438 0.05558 0.97586 0.0
C45 C 0.15574 0.0372 0.98505 0.0
O46 O 0.18602 0.05382 0.00963 0.0
Co47 Co 0.07422 0.05184 0.99108 0.0
O48 O 0.10302 0.04966 0.0172 0.0
C49 C 0.1221 0.06844 0.97312 0.0
C50 C 0.25553 0.05296 0.9582 0.0
C51 C 0.14983 0.05182 0.02196 0.0
O52 O 0.16685 0.06438 0.97474 0.0
O53 O 0.07883 0.0644 0.97759 0.0
O54 O 0.20637 0.03815 0.98615 0.0
O55 O 0.13018 0.04458 0.97936 0.0
Co56 Co 0.90122 0.93742 0.7445 0.0
O57 O 0.92158 0.94093 0.71919 0.0
O58 O 0.97488 0.93416 0.74011 0.0
C59 C 0.85916 0.95086 0.75139 0.0
O60 O 0.89047 0.93338 0.77256 0.0
Co61 Co 0.7818 0.93503 0.75058 0.0
O62 O 0.80363 0.93494 0.77791 0.0
C63 C 0.83858 0.92043 0.72977 0.0
C64 C 0.96754 0.93755 0.72289 0.0
C65 C 0.85031 0.93356 0.78393 0.0
O66 O 0.88104 0.9246 0.7348 0.0
O67 O 0.79306 0.92383 0.73328 0.0
O68 O 0.90976 0.9503 0.7534 0.0
O69 O 0.83701 0.94372 0.74309 0.0
Co70 Co 0.84894 0.80604 0.73373 0.0
O71 O 0.82454 0.80367 0.70828 0.0
O72 O 0.77552 0.80983 0.7314 0.0
C73 C 0.88909 0.79214 0.73743 0.0
O74 O 0.86328 0.80881 0.76226 0.0
Co75 Co 0.96895 0.80756 0.73916 0.0
O76 O 0.94933 0.8058 0.76645 0.0
C77 C 0.91332 0.82334 0.72162 0.0
C78 C 0.7797 0.80701 0.71364 0.0
C79 C 0.90361 0.80738 0.77318 0.0
O80 O 0.87043 0.81908 0.72582 0.0
O81 O 0.9586 0.81974 0.72473 0.0
O82 O 0.83891 0.79291 0.74034 0.0
O83 O 0.91202 0.79951 0.7303 0.0
Co84 Co 0.8985 0.80279 0.02111 0.0
O85 O 0.91209 0.80083 0.04772 0.0
O86 O 0.97191 0.80563 0.02693 0.0
C87 C 0.85437 0.78929 0.01679 0.0
O88 O 0.89567 0.80506 0.99198 0.0
Co89 Co 0.78217 0.80545 0.00983 0.0
O90 O 0.81087 0.80284 0.98391 0.0
C91 C 0.83728 0.82101 0.02851 0.0
C92 C 0.95991 0.80344 0.0446 0.0
C93 C 0.85904 0.80384 0.97936 0.0
O94 O 0.87974 0.81624 0.02665 0.0
O95 O 0.79218 0.81775 0.02387 0.0
O96 O 0.9053 0.78939 0.0161 0.0
O97 O 0.83233 0.7971 0.02213 0.0
Co98 Co 0.84611 0.9371 0.03126 0.0
O99 O 0.82743 0.9393 0.05737 0.0
O100 O 0.77249 0.93378 0.03554 0.0
C101 C 0.8883 0.95082 0.02707 0.0
O102 O 0.8549 0.93444 1.00239 0.0
Co103 Co 0.96565 0.93523 0.02333 0.0
O104 O 0.94139 0.93613 0.99637 0.0
C105 C 0.90993 0.9194 0.04093 0.0
C106 C 0.78089 0.93628 0.05331 0.0
C107 C 0.89426 0.93494 0.99067 0.0
O108 O 0.86678 0.92383 0.03795 0.0
O109 O 0.95501 0.92299 0.0374 0.0
O110 O 0.83757 0.95043 0.02538 0.0
O111 O 0.91056 0.94323 0.03337 0.0
Co112 Co 0.11602 0.55619 0.7696 0.0
O113 O 0.10397 0.55621 0.79667 0.0
O114 O 0.04569 0.56093 0.77513 0.0
C115 C 0.14998 0.54164 0.76787 0.0
O116 O 0.11771 0.55683 0.7401 0.0
Co117 Co 0.23345 0.55538 0.75717 0.0
O118 O 0.20201 0.55429 0.73133 0.0
C119 C 0.18977 0.57323 0.77075 0.0
C120 C 0.05807 0.55969 0.79312 0.0
C121 C 0.15384 0.55568 0.72724 0.0
O122 O 0.14448 0.56933 0.77157 0.0
O123 O 0.23187 0.56886 0.76622 0.0
O124 O 0.09948 0.54285 0.76802 0.0
O125 O 0.17777 0.54911 0.77118 0.0
Co126 Co 0.15306 0.68712 0.77257 0.0
O127 O 0.16817 0.68659 0.79942 0.0
O128 O 0.22287 0.68183 0.77665 0.0
C129 C 0.1218 0.70189 0.77239 0.0
O130 O 0.14812 0.68695 0.74305 0.0
Co131 Co 0.03563 0.68883 0.76128 0.0
O132 O 0.06618 0.6918 0.73586 0.0
C133 C 0.0759 0.67058 0.77406 0.0
C134 C 0.21273 0.68284 0.79488 0.0
C135 C 0.11282 0.68965 0.73085 0.0
O136 O 0.12201 0.67419 0.77437 0.0
O137 O 0.03449 0.67526 0.76992 0.0
O138 O 0.17203 0.70037 0.77155 0.0
O139 O 0.09294 0.69452 0.77553 0.0
Co140 Co 0.10829 0.68576 0.48379 0.0
O141 O 0.09029 0.68687 0.45734 0.0
O142 O 0.03745 0.68093 0.47949 0.0
C143 C 0.14208 0.70025 0.48695 0.0
O144 O 0.11654 0.68393 0.51293 0.0
Co145 Co 0.22746 0.68602 0.49267 0.0
O146 O 0.20244 0.68615 0.51958 0.0
C147 C 0.182 0.66934 0.47485 0.0
C148 C 0.0461 0.68287 0.46145 0.0
C149 C 0.15522 0.68469 0.52488 0.0
O150 O 0.13671 0.67289 0.47829 0.0
O151 O 0.22498 0.67367 0.47838 0.0
O152 O 0.09174 0.69893 0.4883 0.0
O153 O 0.16917 0.69299 0.48155 0.0
Co154 Co 0.16055 0.55312 0.48059 0.0
O155 O 0.17331 0.55319 0.45364 0.0
O156 O 0.23383 0.5564 0.47544 0.0
C157 C 0.1165 0.53947 0.48088 0.0
O158 O 0.15786 0.55321 0.51009 0.0
Co159 Co 0.04342 0.5549 0.49245 0.0
O160 O 0.07274 0.55061 0.51739 0.0
C161 C 0.09924 0.57162 0.47898 0.0
C162 C 0.2213 0.55547 0.45736 0.0
C163 C 0.12094 0.55126 0.52223 0.0
O164 O 0.14177 0.5668 0.4796 0.0
O165 O 0.05385 0.56802 0.4819 0.0
O166 O 0.16746 0.53949 0.48115 0.0
O167 O 0.09451 0.54759 0.47819 0.0
Co168 Co 0.88521 0.43689 0.23399 0.0
O169 O 0.90226 0.43711 0.20735 0.0
O170 O 0.95481 0.43156 0.23005 0.0
C171 C 0.8547 0.45168 0.23553 0.0
O172 O 0.87857 0.43592 0.26329 0.0
Co173 Co 0.7679 0.43833 0.24477 0.0
O174 O 0.79783 0.44145 0.27029 0.0
C175 C 0.80794 0.42048 0.22971 0.0
C176 C 0.94619 0.43311 0.21186 0.0
C177 C 0.84381 0.43893 0.27532 0.0
O178 O 0.85399 0.42409 0.2304 0.0
O179 O 0.76637 0.42505 0.23419 0.0
O180 O 0.90473 0.45003 0.23674 0.0
O181 O 0.8255 0.44447 0.23132 0.0
Co182 Co 0.86009 0.30413 0.23864 0.0
O183 O 0.84854 0.30534 0.21169 0.0
O184 O 0.78673 0.30719 0.23369 0.0
C185 C 0.90617 0.2907 0.23753 0.0
O186 O 0.86072 0.30311 0.26797 0.0
Co187 Co 0.97571 0.3061 0.25194 0.0
O188 O 0.94559 0.30087 0.27602 0.0
C189 C 0.91766 0.32303 0.24121 0.0
C190 C 0.80014 0.30729 0.21562 0.0
C191 C 0.89689 0.30106 0.28029 0.0
O192 O 0.87638 0.3179 0.24019 0.0
O193 O 0.9636 0.31964 0.24402 0.0
O194 O 0.85524 0.29052 0.23705 0.0
O195 O 0.92735 0.29898 0.236 0.0
Co196 Co 0.90912 0.30309 0.52593 0.0
O197 O 0.92923 0.30289 0.55234 0.0
O198 O 0.98106 0.30753 0.52854 0.0
C199 C 0.87254 0.28875 0.52504 0.0
O200 O 0.89952 0.30396 0.49675 0.0
Co201 Co 0.78954 0.3031 0.51765 0.0
O202 O 0.81312 0.30207 0.49067 0.0
C203 C 0.83896 0.32046 0.53107 0.0
C204 C 0.97396 0.30628 0.54689 0.0
C205 C 0.86039 0.30313 0.48507 0.0
O206 O 0.88346 0.31632 0.52945 0.0
O207 O 0.79512 0.31631 0.52808 0.0
O208 O 0.92299 0.28972 0.52323 0.0
O209 O 0.84696 0.2963 0.52973 0.0
Co210 Co 0.83414 0.43666 0.52305 0.0
O211 O 0.82793 0.43683 0.55039 0.0
O212 O 0.76536 0.432 0.53066 0.0
C213 C 0.86842 0.45112 0.52025 0.0
O214 O 0.82822 0.43588 0.4937 0.0
Co215 Co 0.94581 0.4375 0.50523 0.0
O216 O 0.90555 0.44111 0.48205 0.0
C217 C 0.90735 0.41963 0.52113 0.0
C218 C 0.78119 0.43341 0.54823 0.0
C219 C 0.85761 0.43883 0.47983 0.0
O220 O 0.86294 0.42355 0.52445 0.0
O221 O 0.94687 0.42396 0.51401 0.0
O222 O 0.81798 0.45003 0.52179 0.0
O223 O 0.89645 0.44358 0.52246 0.0
Co224 Co 0.57013 0.05484 0.7592 0.0
O225 O 0.5487 0.05535 0.78534 0.0
O226 O 0.49643 0.05851 0.76066 0.0
C227 C 0.61167 0.04096 0.76115 0.0
O228 O 0.58241 0.05471 0.73019 0.0
Co229 Co 0.69011 0.0561 0.7529 0.0
O230 O 0.66953 0.05266 0.72627 0.0
C231 C 0.63268 0.07303 0.76366 0.0
C232 C 0.50318 0.05797 0.7792 0.0
C233 C 0.62303 0.0532 0.71953 0.0
O234 O 0.59028 0.06844 0.76055 0.0
O235 O 0.67816 0.06921 0.76341 0.0
O236 O 0.56124 0.04126 0.75854 0.0
O237 O 0.63397 0.04897 0.76487 0.0
Co238 Co 0.63378 0.18571 0.77593 0.0
O239 O 0.6503 0.18672 0.80256 0.0
O240 O 0.70147 0.17978 0.78107 0.0
C241 C 0.60835 0.20072 0.77209 0.0
O242 O 0.62698 0.1837 0.7468 0.0
Co243 Co 0.51628 0.18823 0.76538 0.0
O244 O 0.54377 0.18754 0.73886 0.0
C245 C 0.55041 0.17054 0.78283 0.0
C246 C 0.69278 0.18206 0.79894 0.0
C247 C 0.59013 0.185 0.73429 0.0
O248 O 0.59788 0.17344 0.78133 0.0
O249 O 0.5106 0.17555 0.77819 0.0
O250 O 0.65777 0.1985 0.7712 0.0
O251 O 0.57703 0.19402 0.77735 0.0
Co252 Co 0.5778 0.18628 0.48843 0.0
O253 O 0.55604 0.18884 0.46274 0.0
O254 O 0.50421 0.18272 0.48498 0.0
C255 C 0.61944 0.19999 0.49312 0.0
O256 O 0.58975 0.18327 0.51698 0.0
Co257 Co 0.69775 0.18437 0.49458 0.0
O258 O 0.67629 0.18557 0.52181 0.0
C259 C 0.64127 0.1688 0.47665 0.0
C260 C 0.51044 0.18553 0.46728 0.0
C261 C 0.62999 0.18418 0.52819 0.0
O262 O 0.59858 0.17318 0.48059 0.0
O263 O 0.6867 0.17231 0.47984 0.0
O264 O 0.56889 0.19945 0.49535 0.0
O265 O 0.64165 0.19259 0.48587 0.0
Co266 Co 0.65008 0.05314 0.47308 0.0
O267 O 0.67267 0.05134 0.44724 0.0
O268 O 0.72258 0.05724 0.47035 0.0
C269 C 0.61167 0.03907 0.47674 0.0
O270 O 0.63792 0.05548 0.50177 0.0
Co271 Co 0.52963 0.05399 0.47964 0.0
O272 O 0.55119 0.05346 0.50694 0.0
C273 C 0.58236 0.07029 0.46269 0.0
C274 C 0.71747 0.05483 0.45237 0.0
C275 C 0.59781 0.05479 0.51305 0.0
O276 O 0.62628 0.06625 0.46638 0.0
O277 O 0.53799 0.0663 0.46555 0.0
O278 O 0.66213 0.03992 0.47877 0.0
O279 O 0.58756 0.04643 0.47016 0.0
Co280 Co 0.40092 0.93842 0.24188 0.0
O281 O 0.42028 0.938 0.21543 0.0
O282 O 0.47387 0.9343 0.2393 0.0
C283 C 0.36141 0.95254 0.24086 0.0
O284 O 0.39059 0.93829 0.27115 0.0
Co285 Co 0.28063 0.93777 0.24903 0.0
O286 O 0.3033 0.93976 0.27598 0.0
C287 C 0.33457 0.92076 0.23636 0.0
C288 C 0.46567 0.93494 0.22085 0.0
C289 C 0.35023 0.93917 0.28231 0.0
O290 O 0.37786 0.92499 0.24003 0.0
O291 O 0.28998 0.9249 0.23709 0.0
O292 O 0.41202 0.95199 0.24284 0.0
O293 O 0.33783 0.94466 0.23724 0.0
Co294 Co 0.3584 0.8049 0.23144 0.0
O295 O 0.33989 0.80427 0.20491 0.0
O296 O 0.28437 0.80804 0.22814 0.0
C297 C 0.40244 0.79124 0.23238 0.0
O298 O 0.36655 0.80594 0.26077 0.0
Co299 Co 0.47724 0.80696 0.24016 0.0
O300 O 0.45341 0.80512 0.26695 0.0
C301 C 0.41968 0.8231 0.22481 0.0
C302 C 0.29317 0.80686 0.20985 0.0
C303 C 0.40578 0.80549 0.27254 0.0
O304 O 0.37713 0.81849 0.22774 0.0
O305 O 0.46531 0.81959 0.22761 0.0
O306 O 0.35167 0.79134 0.23408 0.0
O307 O 0.42392 0.79923 0.22798 0.0
Co308 Co 0.43326 0.80317 0.5191 0.0
O309 O 0.45779 0.80213 0.54496 0.0
O310 O 0.50665 0.80698 0.52052 0.0
C311 C 0.39215 0.78924 0.51826 0.0
O312 O 0.41908 0.80455 0.49017 0.0
Co313 Co 0.31285 0.80435 0.51303 0.0
O314 O 0.33309 0.80137 0.4862 0.0
C315 C 0.36887 0.82094 0.52732 0.0
C316 C 0.50257 0.80516 0.5388 0.0
C317 C 0.379 0.80269 0.4794 0.0
O318 O 0.41202 0.81656 0.52408 0.0
O319 O 0.32377 0.81711 0.5251 0.0
O320 O 0.44246 0.7897 0.51533 0.0
O321 O 0.36995 0.79699 0.52377 0.0
Co322 Co 0.32624 0.93827 0.52968 0.0
O323 O 0.30656 0.93747 0.5561 0.0
O324 O 0.25422 0.93369 0.53188 0.0
C325 C 0.36233 0.95269 0.5311 0.0
O326 O 0.33649 0.93853 0.50036 0.0
Co327 Co 0.44647 0.93885 0.52197 0.0
O328 O 0.42218 0.94181 0.49562 0.0
C329 C 0.39764 0.92106 0.53349 0.0
C330 C 0.26166 0.93431 0.55036 0.0
C331 C 0.37572 0.94056 0.48926 0.0
O332 O 0.3527 0.92497 0.53109 0.0
O333 O 0.44094 0.92558 0.53214 0.0
O334 O 0.31187 0.95176 0.52924 0.0
O335 O 0.38782 0.94497 0.53445 0.0
Co336 Co 0.59425 0.55715 0.2678 0.0
O337 O 0.57384 0.558 0.29405 0.0
O338 O 0.5212 0.56132 0.26966 0.0
C339 C 0.63251 0.54297 0.26964 0.0
O340 O 0.60644 0.5567 0.23866 0.0
Co341 Co 0.71493 0.55767 0.26191 0.0
O342 O 0.69371 0.55445 0.23527 0.0
C343 C 0.66057 0.57501 0.27186 0.0
C344 C 0.52852 0.56087 0.28819 0.0
C345 C 0.64754 0.55508 0.22822 0.0
O346 O 0.61752 0.57062 0.26869 0.0
O347 O 0.70535 0.57093 0.27201 0.0
O348 O 0.58202 0.54367 0.26761 0.0
O349 O 0.65677 0.55081 0.27322 0.0
Co350 Co 0.6505 0.68656 0.27684 0.0
O351 O 0.66907 0.6873 0.30333 0.0
O352 O 0.7171 0.68012 0.28123 0.0
C353 C 0.62771 0.7017 0.27329 0.0
O354 O 0.64134 0.68483 0.24769 0.0
Co355 Co 0.53293 0.68977 0.26709 0.0
O356 O 0.56205 0.69107 0.24085 0.0
C357 C 0.56473 0.67186 0.28407 0.0
C358 C 0.71026 0.68236 0.29923 0.0
C359 C 0.60641 0.68778 0.2356 0.0
O360 O 0.61253 0.67452 0.28231 0.0
O361 O 0.52541 0.67701 0.27955 0.0
O362 O 0.67675 0.69923 0.27227 0.0
O363 O 0.59543 0.69516 0.27871 0.0
Co364 Co 0.57148 0.68528 0.98979 0.0
O365 O 0.5537 0.68834 0.96393 0.0
O366 O 0.49957 0.68136 0.98429 0.0
C367 C 0.60874 0.69918 0.99677 0.0
O368 O 0.57844 0.68158 0.01816 0.0
Co369 Co 0.69018 0.68418 0.99912 0.0
O370 O 0.66445 0.68266 0.02577 0.0
C371 C 0.64204 0.669 0.97695 0.0
C372 C 0.50811 0.68464 0.96707 0.0
C373 C 0.61661 0.6813 0.03038 0.0
O374 O 0.59709 0.67257 0.981 0.0
O375 O 0.68534 0.673 0.98145 0.0
O376 O 0.55814 0.69817 0.99786 0.0
O377 O 0.63405 0.69213 0.98946 0.0
Co378 Co 0.66867 0.55282 0.98063 0.0
O379 O 0.68767 0.55154 0.95431 0.0
O380 O 0.74218 0.55635 0.97698 0.0
C381 C 0.62687 0.539 0.98302 0.0
O382 O 0.65942 0.55446 0.00979 0.0
Co383 Co 0.54911 0.55445 0.98853 0.0
O384 O 0.57309 0.55217 0.0152 0.0
C385 C 0.60458 0.57063 0.97238 0.0
C386 C 0.73397 0.55451 0.95886 0.0
C387 C 0.62001 0.5532 0.02126 0.0
O388 O 0.6477 0.56624 0.97562 0.0
O389 O 0.55946 0.56692 0.97521 0.0
O390 O 0.67762 0.53937 0.98471 0.0
O391 O 0.60442 0.54675 0.97763 0.0
Co392 Co 0.39388 0.43492 0.7343 0.0
O393 O 0.41081 0.43386 0.70766 0.0
O394 O 0.46377 0.42954 0.73129 0.0
C395 C 0.36298 0.4497 0.73324 0.0
O396 O 0.38717 0.43531 0.76355 0.0
Co397 Co 0.27524 0.43693 0.74414 0.0
O398 O 0.30475 0.44039 0.76963 0.0
C399 C 0.316 0.41862 0.73212 0.0
C400 C 0.45529 0.43029 0.71289 0.0
C401 C 0.35118 0.43832 0.77506 0.0
O402 O 0.3625 0.42199 0.73366 0.0
O403 O 0.27442 0.42362 0.73378 0.0
O404 O 0.41316 0.44818 0.73435 0.0
O405 O 0.33425 0.4423 0.73039 0.0
Co406 Co 0.35474 0.3058 0.73724 0.0
O407 O 0.33805 0.30249 0.7114 0.0
O408 O 0.28143 0.30868 0.73198 0.0
C409 C 0.39824 0.29258 0.7444 0.0
O410 O 0.35984 0.30949 0.76566 0.0
Co411 Co 0.47222 0.30884 0.74676 0.0
O412 O 0.44586 0.30923 0.77347 0.0
C413 C 0.41672 0.32332 0.72511 0.0
C414 C 0.29106 0.30554 0.71474 0.0
C415 C 0.39757 0.30993 0.77802 0.0
O416 O 0.37408 0.3188 0.72838 0.0
O417 O 0.46191 0.32034 0.7303 0.0
O418 O 0.3473 0.2928 0.74527 0.0
O419 O 0.42053 0.29994 0.73699 0.0
Co420 Co 0.42015 0.30181 0.02422 0.0
O421 O 0.42974 0.30162 0.05134 0.0
O422 O 0.49113 0.30594 0.03068 0.0
C423 C 0.38203 0.28763 0.02208 0.0
O424 O 0.42105 0.3025 0.99475 0.0
Co425 Co 0.30455 0.30219 0.01011 0.0
O426 O 0.33891 0.29853 0.98567 0.0
C427 C 0.3514 0.31953 0.02517 0.0
C428 C 0.47682 0.30471 0.0485 0.0
C429 C 0.38706 0.30011 0.98183 0.0
O430 O 0.39543 0.31518 0.02598 0.0
O431 O 0.30848 0.31549 0.02026 0.0
O432 O 0.43282 0.28833 0.02272 0.0
O433 O 0.35638 0.29538 0.02505 0.0
Co434 Co 0.32402 0.43781 0.02166 0.0
O435 O 0.31776 0.43709 0.04888 0.0
O436 O 0.25338 0.43379 0.02863 0.0
C437 C 0.36392 0.45186 0.02089 0.0
O438 O 0.31909 0.43812 0.99233 0.0
Co439 Co 0.43745 0.4376 0.00528 0.0
O440 O 0.40015 0.44206 0.98194 0.0
C441 C 0.39058 0.41995 0.01885 0.0
C442 C 0.26988 0.43434 0.04633 0.0
C443 C 0.35127 0.44075 0.97905 0.0
O444 O 0.34697 0.42434 0.02092 0.0
O445 O 0.43347 0.42407 0.0142 0.0
O446 O 0.31316 0.45137 0.02226 0.0
O447 O 0.38878 0.44393 0.02231 0.0
H448 H 0.18409 0.06693 0.04274 0.0
H449 H 0.18115 0.06854 0.07779 0.0
H450 H 0.13558 0.03925 0.0827 0.0
H451 H 0.13553 0.03788 0.04774 0.0
H452 H 0.07467 0.04853 0.1035 0.0
H453 H 0.26191 0.04882 0.09694 0.0
H454 H 0.34782 0.05409 0.08464 0.0
H455 H 0.32007 0.0819 0.10696 0.0
H456 H 0.23367 0.07683 0.11919 0.0
H457 H 0.14977 0.04157 0.20264 0.0
H458 H 0.14573 0.04168 0.16747 0.0
H459 H 0.11193 0.07151 0.16834 0.0
H460 H 0.11416 0.07134 0.20372 0.0
H461 H 0.20894 0.06341 0.14519 0.0
H462 H 0.02106 0.0616 0.15373 0.0
H463 H 0.93951 0.05494 0.16712 0.0
H464 H 0.97541 0.02804 0.14191 0.0
H465 H 0.05764 0.0345 0.12862 0.0
C466 C 0.17494 0.0608 0.05142 0.0
C467 C 0.16064 0.05226 0.04269 0.0
C468 C 0.17314 0.06171 0.07146 0.0
C469 C 0.15831 0.05401 0.08306 0.0
C470 C 0.14674 0.04533 0.07419 0.0
C471 C 0.14729 0.04451 0.05423 0.0
C472 C 0.15122 0.05506 0.10423 0.0
C473 C 0.10449 0.0517 0.11256 0.0
C474 C 0.18926 0.0594 0.11618 0.0
C475 C 0.24108 0.06248 0.10878 0.0
C476 C 0.27394 0.05608 0.09908 0.0
C477 C 0.32276 0.05903 0.09215 0.0
C478 C 0.33932 0.06833 0.09497 0.0
C479 C 0.30715 0.0747 0.10476 0.0
C480 C 0.25827 0.0718 0.11171 0.0
C481 C 0.13994 0.04808 0.1953 0.0
C482 C 0.13163 0.05642 0.20577 0.0
C483 C 0.1379 0.04815 0.17528 0.0
C484 C 0.1287 0.05661 0.16538 0.0
C485 C 0.11893 0.06491 0.17579 0.0
C486 C 0.1197 0.0648 0.19592 0.0
C487 C 0.13309 0.05677 0.14419 0.0
C488 C 0.17925 0.06033 0.13595 0.0
C489 C 0.09518 0.05242 0.13236 0.0
C490 C 0.0458 0.04851 0.14036 0.0
C491 C 0.01187 0.05424 0.15123 0.0
C492 C 0.96544 0.0505 0.15875 0.0
C493 C 0.95236 0.04106 0.15542 0.0
C494 C 0.98563 0.03534 0.14451 0.0
C495 C 0.03213 0.03904 0.13696 0.0
H496 H 0.91638 0.03819 0.16124 0.0
H497 H 0.37714 0.0706 0.0896 0.0
H498 H 0.05006 0.17847 0.04791 0.0
H499 H 0.04323 0.1777 0.08312 0.0
H500 H 0.18662 0.19368 0.08834 0.0
H501 H 0.19373 0.19447 0.05362 0.0
H502 H 0.18965 0.17804 0.11042 0.0
H503 H 0.0688 0.20361 0.09832 0.0
H504 H 0.99125 0.21114 0.08369 0.0
H505 H 0.89123 0.19031 0.10951 0.0
H506 H 0.96831 0.18257 0.12409 0.0
H507 H 0.189 0.18885 0.21084 0.0
H508 H 0.19276 0.18884 0.17561 0.0
H509 H 0.03913 0.17603 0.17345 0.0
H510 H 0.03448 0.17644 0.20839 0.0
H511 H 0.04002 0.18949 0.14946 0.0
H512 H 0.15888 0.16393 0.16205 0.0
H513 H 0.23563 0.15608 0.17657 0.0
H514 H 0.33819 0.17619 0.14972 0.0
H515 H 0.26197 0.18423 0.13523 0.0
C516 C 0.07962 0.18193 0.0566 0.0
C517 C 0.12269 0.18643 0.0479 0.0
C518 C 0.07578 0.18147 0.07671 0.0
C519 C 0.11472 0.18557 0.08841 0.0
C520 C 0.15649 0.19036 0.07968 0.0
C521 C 0.16037 0.19081 0.05975 0.0
C522 C 0.11359 0.18467 0.10971 0.0
C523 C 0.1571 0.18062 0.11899 0.0
C524 C 0.07069 0.18781 0.12088 0.0
C525 C 0.02438 0.19245 0.11211 0.0
C526 C 0.03032 0.20058 0.10073 0.0
C527 C 0.98644 0.2049 0.09248 0.0
C528 C 0.93636 0.20119 0.09562 0.0
C529 C 0.93005 0.19316 0.10706 0.0
C530 C 0.97381 0.18881 0.11533 0.0
C531 C 0.15658 0.18589 0.20279 0.0
C532 C 0.1115 0.18265 0.21233 0.0
C533 C 0.15866 0.18587 0.18264 0.0
C534 C 0.11625 0.18239 0.17173 0.0
C535 C 0.07219 0.17882 0.18141 0.0
C536 C 0.06971 0.17901 0.20142 0.0
C537 C 0.11619 0.18284 0.15029 0.0
C538 C 0.07249 0.18683 0.14096 0.0
C539 C 0.15878 0.17957 0.13905 0.0
C540 C 0.20467 0.17473 0.1477 0.0
C541 C 0.19777 0.16672 0.15935 0.0
C542 C 0.24119 0.16223 0.16756 0.0
C543 C 0.29174 0.16565 0.16411 0.0
C544 C 0.299 0.17356 0.1524 0.0
C545 C 0.25572 0.17807 0.14417 0.0
H546 H 0.3253 0.16217 0.17048 0.0
H547 H 0.90243 0.20454 0.08923 0.0
H548 H 0.80161 0.93476 0.96968 0.0
H549 H 0.79267 0.93389 0.93455 0.0
H550 H 0.96094 0.93207 0.92899 0.0
H551 H 0.97026 0.93307 0.96348 0.0
H552 H 0.92455 0.94436 0.90424 0.0
H553 H 0.87898 0.91259 0.92341 0.0
H554 H 0.82801 0.90053 0.94087 0.0
H555 H 0.68675 0.90996 0.91327 0.0
H556 H 0.7368 0.92216 0.89582 0.0
H557 H 0.94197 0.93199 0.80515 0.0
H558 H 0.94989 0.93128 0.84027 0.0
H559 H 0.78131 0.93224 0.8455 0.0
H560 H 0.77298 0.93266 0.8109 0.0
H561 H 0.81735 0.92033 0.87045 0.0
H562 H 0.86085 0.95212 0.85172 0.0
H563 H 0.91019 0.96437 0.83418 0.0
H564 H 0.05314 0.95526 0.86108 0.0
H565 H 0.00472 0.94287 0.87857 0.0
C566 C 0.83659 0.93414 0.96095 0.0
C567 C 0.88657 0.93403 0.96953 0.0
C568 C 0.83147 0.93361 0.94087 0.0
C569 C 0.87622 0.93289 0.92907 0.0
C570 C 0.92584 0.93269 0.93768 0.0
C571 C 0.93098 0.93325 0.95755 0.0
C572 C 0.87242 0.93249 0.90772 0.0
C573 C 0.90152 0.93903 0.89687 0.0
C574 C 0.84161 0.92569 0.89801 0.0
C575 C 0.81154 0.91835 0.90847 0.0
C576 C 0.83698 0.91214 0.92118 0.0
C577 C 0.80827 0.90527 0.93105 0.0
C578 C 0.75415 0.9045 0.92822 0.0
C579 C 0.72865 0.91058 0.91547 0.0
C580 C 0.75717 0.91746 0.90558 0.0
C581 C 0.90665 0.93195 0.81379 0.0
C582 C 0.85692 0.93245 0.80507 0.0
C583 C 0.91119 0.9316 0.83389 0.0
C584 C 0.86613 0.93184 0.84561 0.0
C585 C 0.81667 0.93205 0.83687 0.0
C586 C 0.81209 0.93234 0.81694 0.0
C587 C 0.86972 0.93216 0.86698 0.0
C588 C 0.84049 0.92564 0.87782 0.0
C589 C 0.90017 0.93902 0.87671 0.0
C590 C 0.92926 0.9465 0.86629 0.0
C591 C 0.90287 0.95269 0.85379 0.0
C592 C 0.93065 0.95966 0.84387 0.0
C593 C 0.98479 0.96058 0.84648 0.0
C594 C 0.01122 0.95454 0.85905 0.0
C595 C 0.98363 0.94754 0.86897 0.0
H596 H 0.00623 0.96598 0.83879 0.0
H597 H 0.73199 0.89917 0.93588 0.0
H598 H 0.93933 0.81278 0.95973 0.0
H599 H 0.95072 0.81354 0.92462 0.0
H600 H 0.81676 0.79529 0.91718 0.0
H601 H 0.80542 0.79448 0.95179 0.0
H602 H 0.89464 0.79038 0.89326 0.0
H603 H 0.80432 0.81891 0.91248 0.0
H604 H 0.79554 0.83368 0.93096 0.0
H605 H 0.93589 0.84447 0.90484 0.0
H606 H 0.94589 0.82969 0.8864 0.0
H607 H 0.82075 0.81359 0.79566 0.0
H608 H 0.81491 0.81322 0.83094 0.0
H609 H 0.96888 0.8007 0.83389 0.0
H610 H 0.97507 0.80098 0.79915 0.0
H611 H 0.8801 0.82125 0.85996 0.0
H612 H 0.96729 0.78384 0.8688 0.0
H613 H 0.97263 0.76882 0.85093 0.0
H614 H 0.83005 0.77558 0.82111 0.0
H615 H 0.82337 0.79055 0.83902 0.0
C616 C 0.91292 0.80883 0.95056 0.0
C617 C 0.87126 0.80363 0.95853 0.0
C618 C 0.91918 0.80932 0.93053 0.0
C619 C 0.88418 0.80455 0.91824 0.0
C620 C 0.84416 0.79905 0.9263 0.0
C621 C 0.83763 0.79863 0.94614 0.0
C622 C 0.88738 0.80542 0.89697 0.0
C623 C 0.89187 0.79714 0.886 0.0
C624 C 0.88272 0.81421 0.88745 0.0
C625 C 0.87613 0.82317 0.89821 0.0
C626 C 0.83347 0.82441 0.91076 0.0
C627 C 0.82826 0.83278 0.92122 0.0
C628 C 0.86523 0.84 0.91912 0.0
C629 C 0.90734 0.83887 0.90648 0.0
C630 C 0.91277 0.8305 0.89601 0.0
C631 C 0.85329 0.81077 0.80385 0.0
C632 C 0.89833 0.80734 0.79447 0.0
C633 C 0.85005 0.81062 0.824 0.0
C634 C 0.89142 0.8069 0.83504 0.0
C635 C 0.93637 0.80355 0.8257 0.0
C636 C 0.93979 0.80375 0.80574 0.0
C637 C 0.8877 0.80621 0.85631 0.0
C638 C 0.8832 0.8145 0.86724 0.0
C639 C 0.89186 0.79741 0.86585 0.0
C640 C 0.89511 0.78836 0.85515 0.0
C641 C 0.93692 0.78209 0.8585 0.0
C642 C 0.94015 0.77359 0.84839 0.0
C643 C 0.90167 0.77125 0.83491 0.0
C644 C 0.85985 0.7774 0.83154 0.0
C645 C 0.85636 0.78591 0.84166 0.0
H646 H 0.90438 0.76468 0.82704 0.0
H647 H 0.86119 0.84647 0.92726 0.0
H648 H 0.21243 0.56425 0.70025 0.0
H649 H 0.20288 0.56345 0.66555 0.0
H650 H 0.05978 0.54751 0.67217 0.0
H651 H 0.06939 0.5483 0.7074 0.0
H652 H 0.13083 0.53918 0.64692 0.0
H653 H 0.05386 0.56964 0.65522 0.0
H654 H 0.04774 0.58594 0.66743 0.0
H655 H 0.18996 0.59321 0.63787 0.0
H656 H 0.19736 0.57691 0.62569 0.0
H657 H 0.06605 0.54087 0.548 0.0
H658 H 0.07232 0.54126 0.5828 0.0
H659 H 0.20692 0.55964 0.57883 0.0
H660 H 0.20007 0.55941 0.54361 0.0
H661 H 0.13679 0.56673 0.60299 0.0
H662 H 0.21761 0.5364 0.59637 0.0
H663 H 0.22866 0.51992 0.58573 0.0
H664 H 0.08273 0.51239 0.61246 0.0
H665 H 0.0708 0.52884 0.62327 0.0
C666 C 0.17834 0.56071 0.69436 0.0
C667 C 0.14158 0.55634 0.70653 0.0
C668 C 0.17287 0.56029 0.67449 0.0
C669 C 0.13052 0.55547 0.66621 0.0
C670 C 0.09271 0.5513 0.67828 0.0
C671 C 0.09791 0.55181 0.69836 0.0
C672 C 0.12851 0.55434 0.64498 0.0
C673 C 0.13096 0.5452 0.63728 0.0
C674 C 0.13081 0.56219 0.63244 0.0
C675 C 0.12635 0.57202 0.63965 0.0
C676 C 0.08405 0.57469 0.65143 0.0
C677 C 0.08031 0.58394 0.65833 0.0
C678 C 0.11849 0.5906 0.65346 0.0
C679 C 0.16042 0.58804 0.64164 0.0
C680 C 0.16437 0.5788 0.63471 0.0
C681 C 0.09762 0.54488 0.55448 0.0
C682 C 0.13235 0.55018 0.54301 0.0
C683 C 0.10136 0.54504 0.57445 0.0
C684 C 0.14015 0.55046 0.58355 0.0
C685 C 0.17657 0.55541 0.57215 0.0
C686 C 0.17295 0.55522 0.55202 0.0
C687 C 0.13939 0.55155 0.60485 0.0
C688 C 0.1364 0.5607 0.61259 0.0
C689 C 0.13687 0.5437 0.61744 0.0
C690 C 0.14312 0.53387 0.61049 0.0
C691 C 0.18765 0.53125 0.59983 0.0
C692 C 0.19418 0.5219 0.59385 0.0
C693 C 0.1564 0.51511 0.59841 0.0
C694 C 0.11197 0.51765 0.60895 0.0
C695 C 0.10539 0.52698 0.61506 0.0
H696 H 0.16155 0.50787 0.59378 0.0
H697 H 0.11553 0.59775 0.65882 0.0
H698 H 0.05435 0.69803 0.70295 0.0
H699 H 0.06385 0.6967 0.66839 0.0
H700 H 0.20477 0.68027 0.67589 0.0
H701 H 0.19548 0.68153 0.71098 0.0
H702 H 0.2115 0.69372 0.64599 0.0
H703 H 0.096 0.66896 0.6657 0.0
H704 H 0.02016 0.662 0.6825 0.0
H705 H 0.91534 0.6794 0.64967 0.0
H706 H 0.99066 0.68657 0.63286 0.0
H707 H 0.22184 0.67726 0.55108 0.0
H708 H 0.21539 0.67778 0.58592 0.0
H709 H 0.06423 0.69133 0.58142 0.0
H710 H 0.06992 0.69054 0.54617 0.0
H711 H 0.06415 0.67903 0.61019 0.0
H712 H 0.18106 0.70398 0.59066 0.0
H713 H 0.258 0.71098 0.57444 0.0
H714 H 0.36083 0.69321 0.60717 0.0
H715 H 0.28473 0.68601 0.62343 0.0
C716 C 0.08773 0.69416 0.69739 0.0
C717 C 0.12387 0.68978 0.70987 0.0
C718 C 0.09294 0.6934 0.67753 0.0
C719 C 0.13434 0.68823 0.66953 0.0
C720 C 0.17222 0.68424 0.6818 0.0
C721 C 0.16697 0.68499 0.70183 0.0
C722 C 0.13661 0.68684 0.64836 0.0
C723 C 0.17973 0.69038 0.63816 0.0
C724 C 0.09447 0.68269 0.63812 0.0
C725 C 0.04903 0.67837 0.64815 0.0
C726 C 0.05681 0.67136 0.66218 0.0
C727 C 0.01391 0.66737 0.67168 0.0
C728 C 0.96297 0.67027 0.66719 0.0
C729 C 0.95483 0.67716 0.65315 0.0
C730 C 0.99761 0.68119 0.64361 0.0
C731 C 0.18688 0.68027 0.55748 0.0
C732 C 0.14651 0.68393 0.54587 0.0
C733 C 0.18345 0.68063 0.57744 0.0
C734 C 0.14011 0.68486 0.58638 0.0
C735 C 0.09839 0.68811 0.57487 0.0
C736 C 0.10148 0.68763 0.55474 0.0
C737 C 0.13905 0.68596 0.60769 0.0
C738 C 0.09605 0.68237 0.61795 0.0
C739 C 0.18137 0.69008 0.61799 0.0
C740 C 0.22712 0.6944 0.60814 0.0
C741 C 0.22005 0.70151 0.59429 0.0
C742 C 0.26348 0.70552 0.58511 0.0
C743 C 0.31414 0.70252 0.58974 0.0
C744 C 0.32155 0.69552 0.60359 0.0
C745 C 0.27831 0.69148 0.6128 0.0
H746 H 0.34767 0.70564 0.58261 0.0
H747 H 0.9298 0.66717 0.67456 0.0
H748 H 0.83063 0.42362 0.45829 0.0
H749 H 0.82468 0.42322 0.42306 0.0
H750 H 0.83956 0.45354 0.4213 0.0
H751 H 0.84711 0.45391 0.4564 0.0
H752 H 0.76196 0.44465 0.39429 0.0
H753 H 0.94365 0.443 0.41572 0.0
H754 H 0.01535 0.43598 0.43473 0.0
H755 H 0.99135 0.40932 0.40671 0.0
H756 H 0.91885 0.41615 0.38775 0.0
H757 H 0.83201 0.45373 0.29929 0.0
H758 H 0.83185 0.45344 0.33437 0.0
H759 H 0.87497 0.42396 0.33331 0.0
H760 H 0.8775 0.42442 0.29806 0.0
H761 H 0.91965 0.43141 0.36228 0.0
H762 H 0.7431 0.43202 0.34019 0.0
H763 H 0.66289 0.43724 0.32347 0.0
H764 H 0.66897 0.46379 0.35314 0.0
H765 H 0.74955 0.45876 0.3699 0.0
C766 C 0.8306 0.43021 0.45037 0.0
C767 C 0.83838 0.43881 0.45994 0.0
C768 C 0.82779 0.42997 0.4303 0.0
C769 C 0.83208 0.43835 0.41962 0.0
C770 C 0.83606 0.44701 0.42929 0.0
C771 C 0.84 0.44723 0.4493 0.0
C772 C 0.83698 0.43807 0.39842 0.0
C773 C 0.79657 0.44185 0.38722 0.0
C774 C 0.88144 0.43412 0.3893 0.0
C775 C 0.92547 0.43005 0.40049 0.0
C776 C 0.95336 0.43562 0.41374 0.0
C777 C 0.99419 0.43168 0.42448 0.0
C778 C 0.0078 0.4222 0.42197 0.0
C779 C 0.9807 0.41665 0.40866 0.0
C780 C 0.93976 0.42056 0.39791 0.0
C781 C 0.8426 0.44726 0.30662 0.0
C782 C 0.85486 0.43911 0.29608 0.0
C783 C 0.84184 0.44705 0.32666 0.0
C784 C 0.85163 0.43859 0.33659 0.0
C785 C 0.86682 0.43056 0.32604 0.0
C786 C 0.86864 0.43083 0.30592 0.0
C787 C 0.84462 0.43812 0.35785 0.0
C788 C 0.88474 0.43419 0.36916 0.0
C789 C 0.79923 0.44177 0.36708 0.0
C790 C 0.75253 0.44503 0.35622 0.0
C791 C 0.72769 0.43901 0.34298 0.0
C792 C 0.68204 0.44192 0.33356 0.0
C793 C 0.66069 0.45081 0.33735 0.0
C794 C 0.68541 0.45688 0.35031 0.0
C795 C 0.73106 0.45401 0.35977 0.0
H796 H 0.62489 0.453 0.33027 0.0
H797 H 0.03942 0.41916 0.4303 0.0
H798 H 0.95058 0.29041 0.30594 0.0
H799 H 0.93988 0.28999 0.34067 0.0
H800 H 0.80361 0.30793 0.33599 0.0
H801 H 0.81438 0.30837 0.30094 0.0
H802 H 0.87315 0.31492 0.36122 0.0
H803 H 0.7923 0.28534 0.35065 0.0
H804 H 0.77864 0.26908 0.33909 0.0
H805 H 0.91477 0.25984 0.37016 0.0
H806 H 0.93004 0.2761 0.38157 0.0
H807 H 0.79452 0.31058 0.45868 0.0
H808 H 0.80165 0.30997 0.42381 0.0
H809 H 0.95078 0.29579 0.42876 0.0
H810 H 0.94416 0.2965 0.46404 0.0
H811 H 0.87425 0.28682 0.40372 0.0
H812 H 0.95355 0.31718 0.41371 0.0
H813 H 0.95929 0.33332 0.42681 0.0
H814 H 0.81717 0.34088 0.39748 0.0
H815 H 0.81015 0.32474 0.38443 0.0
C816 C 0.91765 0.29411 0.31225 0.0
C817 C 0.88349 0.29947 0.30072 0.0
C818 C 0.91145 0.29383 0.33214 0.0
C819 C 0.87099 0.29893 0.34099 0.0
C820 C 0.83519 0.30394 0.32945 0.0
C821 C 0.8411 0.30414 0.30944 0.0
C822 C 0.86951 0.29973 0.36227 0.0
C823 C 0.87251 0.30877 0.37049 0.0
C824 C 0.87015 0.29169 0.3744 0.0
C825 C 0.86261 0.28198 0.36683 0.0
C826 C 0.81984 0.27988 0.35479 0.0
C827 C 0.81168 0.27065 0.34832 0.0
C828 C 0.84572 0.26343 0.35394 0.0
C829 C 0.88831 0.26544 0.36589 0.0
C830 C 0.89681 0.27466 0.37233 0.0
C831 C 0.8292 0.30742 0.45239 0.0
C832 C 0.86879 0.30357 0.46408 0.0
C833 C 0.83323 0.3071 0.43245 0.0
C834 C 0.8767 0.30285 0.42371 0.0
C835 C 0.91692 0.29912 0.43528 0.0
C836 C 0.91331 0.29958 0.45537 0.0
C837 C 0.87828 0.30197 0.4025 0.0
C838 C 0.87517 0.29294 0.39434 0.0
C839 C 0.87691 0.30999 0.39043 0.0
C840 C 0.88108 0.31972 0.39823 0.0
C841 C 0.92326 0.32225 0.41019 0.0
C842 C 0.9268 0.33141 0.41758 0.0
C843 C 0.88855 0.33811 0.41302 0.0
C844 C 0.84674 0.33568 0.40102 0.0
C845 C 0.843 0.32653 0.39361 0.0
H846 H 0.89136 0.3452 0.41875 0.0
H847 H 0.83908 0.25628 0.34903 0.0
H848 H 0.53795 0.0579 0.69695 0.0
H849 H 0.53379 0.05788 0.66175 0.0
H850 H 0.69108 0.0467 0.6592 0.0
H851 H 0.6958 0.04677 0.69404 0.0
H852 H 0.68133 0.06132 0.63562 0.0
H853 H 0.58396 0.033 0.64903 0.0
H854 H 0.51388 0.02346 0.66386 0.0
H855 H 0.39705 0.04057 0.63622 0.0
H856 H 0.46646 0.05029 0.62144 0.0
H857 H 0.68545 0.05074 0.53472 0.0
H858 H 0.69109 0.0502 0.56991 0.0
H859 H 0.53068 0.05978 0.57394 0.0
H860 H 0.52446 0.06007 0.53914 0.0
H861 H 0.54335 0.04564 0.59687 0.0
H862 H 0.63989 0.07426 0.58418 0.0
H863 H 0.70956 0.08398 0.56956 0.0
H864 H 0.82717 0.06657 0.59594 0.0
H865 H 0.75816 0.05667 0.61052 0.0
C866 C 0.57136 0.05533 0.68888 0.0
C867 C 0.61729 0.0524 0.69837 0.0
C868 C 0.56896 0.05532 0.66876 0.0
C869 C 0.61222 0.05229 0.65782 0.0
C870 C 0.6574 0.04913 0.6673 0.0
C871 C 0.6599 0.04917 0.68729 0.0
C872 C 0.61163 0.05271 0.63649 0.0
C873 C 0.65148 0.0578 0.62713 0.0
C874 C 0.57219 0.04828 0.62541 0.0
C875 C 0.53042 0.04244 0.6343 0.0
C876 C 0.54333 0.03478 0.64625 0.0
C877 C 0.50372 0.02933 0.65462 0.0
C878 C 0.45105 0.03142 0.65103 0.0
C879 C 0.43787 0.03896 0.63902 0.0
C880 C 0.47732 0.04444 0.63063 0.0
C881 C 0.65174 0.05285 0.54316 0.0
C882 C 0.60453 0.05542 0.53414 0.0
C883 C 0.65493 0.05254 0.56327 0.0
C884 C 0.61127 0.05497 0.57464 0.0
C885 C 0.56475 0.05779 0.56556 0.0
C886 C 0.56136 0.05799 0.5456 0.0
C887 C 0.6128 0.05433 0.59596 0.0
C888 C 0.5732 0.04918 0.60534 0.0
C889 C 0.65237 0.05874 0.60706 0.0
C890 C 0.69386 0.06467 0.59827 0.0
C891 C 0.68061 0.07246 0.58673 0.0
C892 C 0.71998 0.07801 0.57848 0.0
C893 C 0.77275 0.07588 0.58177 0.0
C894 C 0.78627 0.0682 0.59337 0.0
C895 C 0.74706 0.06263 0.60164 0.0
H896 H 0.80317 0.08018 0.57538 0.0
H897 H 0.42044 0.02719 0.65752 0.0
H898 H 0.51876 0.17957 0.70772 0.0
H899 H 0.52933 0.17851 0.67313 0.0
H900 H 0.69297 0.18578 0.67869 0.0
H901 H 0.6825 0.18689 0.71381 0.0
H902 H 0.64165 0.19647 0.65113 0.0
H903 H 0.65999 0.16371 0.66572 0.0
H904 H 0.63746 0.14839 0.68033 0.0
H905 H 0.49001 0.14833 0.65051 0.0
H906 H 0.51147 0.1637 0.63581 0.0
H907 H 0.70599 0.18726 0.55497 0.0
H908 H 0.69911 0.18676 0.5896 0.0
H909 H 0.53497 0.17972 0.58516 0.0
H910 H 0.54144 0.18014 0.54989 0.0
H911 H 0.58803 0.16876 0.61216 0.0
H912 H 0.56999 0.20161 0.59766 0.0
H913 H 0.59373 0.21675 0.58252 0.0
H914 H 0.7412 0.21667 0.61233 0.0
H915 H 0.71871 0.20144 0.62743 0.0
C916 C 0.55727 0.18087 0.70168 0.0
C917 C 0.5998 0.18337 0.71354 0.0
C918 C 0.56327 0.1802 0.68185 0.0
C919 C 0.61195 0.18201 0.67327 0.0
C920 C 0.65502 0.18433 0.68503 0.0
C921 C 0.64913 0.18491 0.70507 0.0
C922 C 0.61625 0.18198 0.65195 0.0
C923 C 0.63092 0.19036 0.64262 0.0
C924 C 0.60049 0.1741 0.64081 0.0
C925 C 0.58719 0.1649 0.64977 0.0
C926 C 0.62256 0.16048 0.6624 0.0
C927 C 0.61003 0.15177 0.67067 0.0
C928 C 0.56227 0.1474 0.66639 0.0
C929 C 0.52697 0.15173 0.65382 0.0
C930 C 0.53935 0.16043 0.64548 0.0
C931 C 0.66814 0.18559 0.56116 0.0
C932 C 0.62412 0.18375 0.54946 0.0
C933 C 0.66436 0.18535 0.5811 0.0
C934 C 0.61645 0.18333 0.59003 0.0
C935 C 0.57235 0.18134 0.57854 0.0
C936 C 0.57605 0.1816 0.5584 0.0
C937 C 0.6134 0.18325 0.61136 0.0
C938 C 0.59888 0.17487 0.62069 0.0
C939 C 0.62932 0.19112 0.6225 0.0
C940 C 0.64284 0.20033 0.61355 0.0
C941 C 0.60767 0.20478 0.60087 0.0
C942 C 0.62087 0.21338 0.59232 0.0
C943 C 0.669 0.21766 0.59642 0.0
C944 C 0.70396 0.21334 0.60915 0.0
C945 C 0.69098 0.20473 0.61772 0.0
H946 H 0.67915 0.22432 0.58978 0.0
H947 H 0.55268 0.14065 0.67277 0.0
H948 H 0.44969 0.94557 0.46298 0.0
H949 H 0.44319 0.9458 0.42833 0.0
H950 H 0.28147 0.93704 0.43182 0.0
H951 H 0.2876 0.93675 0.4671 0.0
H952 H 0.33679 0.92673 0.40545 0.0
H953 H 0.31063 0.95962 0.41766 0.0
H954 H 0.3282 0.97534 0.43149 0.0
H955 H 0.48029 0.97566 0.405 0.0
H956 H 0.46367 0.95993 0.39103 0.0
H957 H 0.27426 0.9359 0.30886 0.0
H958 H 0.28083 0.93625 0.34357 0.0
H959 H 0.44555 0.94287 0.33945 0.0
H960 H 0.43943 0.94252 0.30412 0.0
H961 H 0.38929 0.95435 0.36601 0.0
H962 H 0.41317 0.92153 0.35286 0.0
H963 H 0.39297 0.90613 0.33812 0.0
H964 H 0.24338 0.90573 0.36647 0.0
H965 H 0.26236 0.92121 0.38117 0.0
C966 C 0.41229 0.94378 0.45657 0.0
C967 C 0.369 0.94118 0.46802 0.0
C968 C 0.40869 0.94397 0.43661 0.0
C969 C 0.36173 0.94157 0.42739 0.0
C970 C 0.31812 0.93898 0.43864 0.0
C971 C 0.3216 0.93884 0.4588 0.0
C972 C 0.35985 0.94135 0.40601 0.0
C973 C 0.34733 0.93282 0.39683 0.0
C974 C 0.3754 0.9492 0.39472 0.0
C975 C 0.38601 0.95858 0.40339 0.0
C976 C 0.34795 0.96302 0.41488 0.0
C977 C 0.35761 0.97196 0.42265 0.0
C978 C 0.40525 0.97651 0.41906 0.0
C979 C 0.44333 0.97214 0.4077 0.0
C980 C 0.43375 0.96323 0.39981 0.0
C981 C 0.31215 0.93743 0.31518 0.0
C982 C 0.35641 0.9392 0.30357 0.0
C983 C 0.31577 0.93758 0.33513 0.0
C984 C 0.36368 0.93951 0.34415 0.0
C985 C 0.40815 0.94134 0.33275 0.0
C986 C 0.40468 0.94109 0.31259 0.0
C987 C 0.36612 0.93974 0.3655 0.0
C988 C 0.37879 0.94826 0.37466 0.0
C989 C 0.35057 0.9319 0.37677 0.0
C990 C 0.33901 0.92257 0.36798 0.0
C991 C 0.37577 0.9182 0.35582 0.0
C992 C 0.36458 0.90945 0.3475 0.0
C993 C 0.31687 0.90496 0.35132 0.0
C994 C 0.2803 0.90922 0.36351 0.0
C995 C 0.29128 0.91797 0.37186 0.0
H996 H 0.30828 0.89819 0.34486 0.0
H997 H 0.41276 0.98341 0.42518 0.0
H998 H 0.45878 0.80964 0.45653 0.0
H999 H 0.46173 0.80985 0.42128 0.0
H1000 H 0.31388 0.79505 0.41917 0.0
H1001 H 0.31113 0.79466 0.45403 0.0
H1002 H 0.3758 0.78832 0.39257 0.0
H1003 H 0.32103 0.81906 0.41244 0.0
H1004 H 0.32636 0.83413 0.43007 0.0
H1005 H 0.47121 0.84072 0.40157 0.0
H1006 H 0.46713 0.82561 0.38397 0.0
H1007 H 0.31928 0.79952 0.29334 0.0
H1008 H 0.31132 0.79874 0.32858 0.0
H1009 H 0.46573 0.81087 0.33436 0.0
H1010 H 0.47394 0.81164 0.29965 0.0
H1011 H 0.39566 0.81899 0.35898 0.0
H1012 H 0.44855 0.78737 0.33971 0.0
H1013 H 0.43918 0.77217 0.32271 0.0
H1014 H 0.29052 0.76752 0.35004 0.0
H1015 H 0.29884 0.7827 0.36718 0.0
C1016 C 0.42724 0.80635 0.44853 0.0
C1017 C 0.38444 0.80225 0.45816 0.0
C1018 C 0.42874 0.80653 0.42838 0.0
C1019 C 0.3875 0.80261 0.41751 0.0
C1020 C 0.34601 0.79817 0.42715 0.0
C1021 C 0.34441 0.79801 0.44716 0.0
C1022 C 0.38645 0.80332 0.39615 0.0
C1023 C 0.37958 0.79505 0.38526 0.0
C1024 C 0.39143 0.81207 0.3865 0.0
C1025 C 0.39407 0.82116 0.39705 0.0
C1026 C 0.35425 0.82368 0.41006 0.0
C1027 C 0.35701 0.83224 0.42002 0.0
C1028 C 0.39918 0.83836 0.41699 0.0
C1029 C 0.43862 0.83596 0.40394 0.0
C1030 C 0.4361 0.8274 0.39396 0.0
C1031 C 0.35118 0.80209 0.30217 0.0
C1032 C 0.39729 0.80559 0.29366 0.0
C1033 C 0.34679 0.80159 0.32228 0.0
C1034 C 0.38819 0.80468 0.33413 0.0
C1035 C 0.43335 0.80843 0.32558 0.0
C1036 C 0.43798 0.80883 0.30566 0.0
C1037 C 0.38561 0.80399 0.35544 0.0
C1038 C 0.39172 0.81227 0.36632 0.0
C1039 C 0.37924 0.79527 0.36507 0.0
C1040 C 0.37399 0.78622 0.35454 0.0
C1041 C 0.41362 0.78316 0.34195 0.0
C1042 C 0.40857 0.77454 0.33232 0.0
C1043 C 0.36418 0.76892 0.33519 0.0
C1044 C 0.32481 0.77189 0.34777 0.0
C1045 C 0.3297 0.78049 0.35747 0.0
H1046 H 0.36041 0.76226 0.32773 0.0
H1047 H 0.40122 0.84498 0.42471 0.0
H1048 H 0.54424 0.55084 0.04841 0.0
H1049 H 0.55295 0.55082 0.083 0.0
H1050 H 0.71993 0.5549 0.0778 0.0
H1051 H 0.71176 0.55496 0.04253 0.0
H1052 H 0.68708 0.54077 0.10594 0.0
H1053 H 0.65214 0.57313 0.08965 0.0
H1054 H 0.60455 0.58599 0.07335 0.0
H1055 H 0.46268 0.57816 0.10254 0.0
H1056 H 0.50926 0.56516 0.11881 0.0
H1057 H 0.72765 0.55295 0.20264 0.0
H1058 H 0.72364 0.55213 0.16802 0.0
H1059 H 0.55479 0.55402 0.17015 0.0
H1060 H 0.55849 0.55519 0.20534 0.0
H1061 H 0.59062 0.56512 0.14313 0.0
H1062 H 0.62197 0.53277 0.15897 0.0
H1063 H 0.66597 0.51931 0.17462 0.0
H1064 H 0.81029 0.52639 0.14629 0.0
H1065 H 0.7673 0.53996 0.13059 0.0
C1066 C 0.58312 0.55175 0.05441 0.0
C1067 C 0.62735 0.553 0.04249 0.0
C1068 C 0.58787 0.55174 0.07432 0.0
C1069 C 0.63689 0.55297 0.083 0.0
C1070 C 0.68162 0.55397 0.07133 0.0
C1071 C 0.67688 0.55404 0.05121 0.0
C1072 C 0.64017 0.55337 0.1043 0.0
C1073 C 0.66689 0.54619 0.11412 0.0
C1074 C 0.6121 0.56023 0.11493 0.0
C1075 C 0.58412 0.56812 0.10534 0.0
C1076 C 0.61071 0.57411 0.09249 0.0
C1077 C 0.58393 0.58143 0.08327 0.0
C1078 C 0.5306 0.58288 0.08688 0.0
C1079 C 0.50398 0.57703 0.09976 0.0
C1080 C 0.53057 0.56969 0.109 0.0
C1081 C 0.68933 0.55316 0.19593 0.0
C1082 C 0.64324 0.55415 0.20696 0.0
C1083 C 0.68721 0.5526 0.17598 0.0
C1084 C 0.63892 0.55283 0.16636 0.0
C1085 C 0.5926 0.55378 0.17724 0.0
C1086 C 0.5947 0.55443 0.19736 0.0
C1087 C 0.63758 0.5525 0.14496 0.0
C1088 C 0.61106 0.5597 0.13506 0.0
C1089 C 0.66546 0.54558 0.13428 0.0
C1090 C 0.69146 0.53742 0.14369 0.0
C1091 C 0.66316 0.53149 0.15615 0.0
C1092 C 0.68787 0.52382 0.16498 0.0
C1093 C 0.74085 0.52198 0.16141 0.0
C1094 C 0.76922 0.52781 0.149 0.0
C1095 C 0.74467 0.53548 0.1401 0.0
H1096 H 0.75995 0.51606 0.16831 0.0
H1097 H 0.50993 0.58856 0.07972 0.0
H1098 H 0.67108 0.67559 0.21554 0.0
H1099 H 0.67348 0.67333 0.18053 0.0
H1100 H 0.56323 0.69618 0.1734 0.0
H1101 H 0.56019 0.69837 0.20798 0.0
H1102 H 0.53177 0.68106 0.1538 0.0
H1103 H 0.69374 0.69845 0.16153 0.0
H1104 H 0.78216 0.70138 0.17465 0.0
H1105 H 0.83575 0.67497 0.15156 0.0
H1106 H 0.74743 0.67183 0.13851 0.0
H1107 H 0.54371 0.69003 0.05303 0.0
H1108 H 0.54138 0.69003 0.08821 0.0
H1109 H 0.66463 0.66911 0.08928 0.0
H1110 H 0.66872 0.66952 0.05426 0.0
H1111 H 0.68998 0.68197 0.11249 0.0
H1112 H 0.53008 0.66474 0.1033 0.0
H1113 H 0.44182 0.66157 0.09026 0.0
H1114 H 0.38398 0.68702 0.11623 0.0
H1115 H 0.47204 0.69041 0.12922 0.0
C1116 C 0.64815 0.68022 0.20645 0.0
C1117 C 0.61517 0.68711 0.21457 0.0
C1118 C 0.6494 0.67892 0.18645 0.0
C1119 C 0.61816 0.68454 0.1743 0.0
C1120 C 0.58713 0.69167 0.18242 0.0
C1121 C 0.58565 0.69293 0.20225 0.0
C1122 C 0.61566 0.68289 0.15319 0.0
C1123 C 0.56633 0.68133 0.14472 0.0
C1124 C 0.6608 0.68297 0.14139 0.0
C1125 C 0.71385 0.68486 0.14924 0.0
C1126 C 0.72427 0.69323 0.1594 0.0
C1127 C 0.77439 0.69494 0.16679 0.0
C1128 C 0.8145 0.68835 0.16399 0.0
C1129 C 0.80462 0.68006 0.15375 0.0
C1130 C 0.75456 0.67832 0.14634 0.0
C1131 C 0.56915 0.68525 0.06082 0.0
C1132 C 0.60612 0.67973 0.05098 0.0
C1133 C 0.56793 0.68524 0.08096 0.0
C1134 C 0.60273 0.67953 0.09157 0.0
C1135 C 0.63761 0.67363 0.08156 0.0
C1136 C 0.63962 0.6738 0.06153 0.0
C1137 C 0.60586 0.68019 0.11295 0.0
C1138 C 0.65533 0.68159 0.12151 0.0
C1139 C 0.56083 0.6799 0.12485 0.0
C1140 C 0.50778 0.67786 0.1171 0.0
C1141 C 0.49862 0.66969 0.10612 0.0
C1142 C 0.44861 0.66785 0.09876 0.0
C1143 C 0.40735 0.6741 0.10238 0.0
C1144 C 0.41598 0.68219 0.11342 0.0
C1145 C 0.46592 0.68407 0.12081 0.0
H1146 H 0.36867 0.67267 0.09666 0.0
H1147 H 0.85328 0.68969 0.16973 0.0
H1148 H 0.3382 0.45373 0.79722 0.0
H1149 H 0.33838 0.45442 0.83247 0.0
H1150 H 0.38224 0.42504 0.83474 0.0
H1151 H 0.38389 0.42445 0.7994 0.0
H1152 H 0.27922 0.43295 0.85587 0.0
H1153 H 0.46849 0.43586 0.84893 0.0
H1154 H 0.54884 0.44313 0.83588 0.0
H1155 H 0.50366 0.46993 0.85949 0.0
H1156 H 0.42257 0.46284 0.87242 0.0
H1157 H 0.31279 0.42672 0.95663 0.0
H1158 H 0.30958 0.42673 0.92154 0.0
H1159 H 0.34942 0.45638 0.92114 0.0
H1160 H 0.35554 0.45616 0.95621 0.0
H1161 H 0.40994 0.44841 0.8982 0.0
H1162 H 0.22459 0.44679 0.90562 0.0
H1163 H 0.13952 0.44099 0.91767 0.0
H1164 H 0.16891 0.41384 0.89244 0.0
H1165 H 0.2545 0.41944 0.88043 0.0
C1166 C 0.34938 0.44753 0.80532 0.0
C1167 C 0.36174 0.43909 0.79576 0.0
C1168 C 0.34919 0.4479 0.82536 0.0
C1169 C 0.36015 0.43978 0.83613 0.0
C1170 C 0.37385 0.43139 0.82661 0.0
C1171 C 0.3753 0.43108 0.80651 0.0
C1172 C 0.35393 0.43997 0.85725 0.0
C1173 C 0.30805 0.43618 0.86526 0.0
C1174 C 0.39048 0.44458 0.86922 0.0
C1175 C 0.43916 0.44884 0.86143 0.0
C1176 C 0.47537 0.44333 0.85114 0.0
C1177 C 0.52113 0.44741 0.84381 0.0
C1178 C 0.53126 0.45699 0.84679 0.0
C1179 C 0.49571 0.46251 0.85715 0.0
C1180 C 0.44987 0.45846 0.86449 0.0
C1181 C 0.31891 0.4333 0.94901 0.0
C1182 C 0.33373 0.44147 0.959 0.0
C1183 C 0.31721 0.43332 0.92892 0.0
C1184 C 0.32909 0.44157 0.91852 0.0
C1185 C 0.34043 0.4499 0.92871 0.0
C1186 C 0.34332 0.44981 0.94874 0.0
C1187 C 0.33492 0.44132 0.8972 0.0
C1188 C 0.38075 0.44514 0.88902 0.0
C1189 C 0.29757 0.43693 0.88502 0.0
C1190 C 0.24622 0.43351 0.89229 0.0
C1191 C 0.21312 0.43956 0.90278 0.0
C1192 C 0.16476 0.43631 0.90957 0.0
C1193 C 0.14889 0.42705 0.90587 0.0
C1194 C 0.18129 0.42102 0.89532 0.0
C1195 C 0.22971 0.42422 0.88849 0.0
H1196 H 0.11142 0.42455 0.91113 0.0
H1197 H 0.56674 0.46014 0.84112 0.0
H1198 H 0.44464 0.32145 0.80377 0.0
H1199 H 0.4423 0.32009 0.83872 0.0
H1200 H 0.32684 0.29791 0.83409 0.0
H1201 H 0.3275 0.29959 0.79898 0.0
H1202 H 0.30845 0.30787 0.86522 0.0
H1203 H 0.46032 0.29329 0.83822 0.0
H1204 H 0.54061 0.29243 0.81852 0.0
H1205 H 0.61228 0.31394 0.85313 0.0
H1206 H 0.53201 0.31508 0.8728 0.0
H1207 H 0.35076 0.28786 0.95527 0.0
H1208 H 0.35576 0.2894 0.92045 0.0
H1209 H 0.45718 0.31359 0.92675 0.0
H1210 H 0.45319 0.31191 0.96189 0.0
H1211 H 0.48302 0.30248 0.89497 0.0
H1212 H 0.32633 0.31688 0.92148 0.0
H1213 H 0.24623 0.31666 0.94136 0.0
H1214 H 0.18444 0.29386 0.90757 0.0
H1215 H 0.26443 0.29389 0.8876 0.0
C1216 C 0.41759 0.31649 0.81027 0.0
C1217 C 0.38616 0.31064 0.79874 0.0
C1218 C 0.41671 0.31563 0.83023 0.0
C1219 C 0.38568 0.30868 0.83906 0.0
C1220 C 0.35145 0.30327 0.82763 0.0
C1221 C 0.35154 0.30427 0.80759 0.0
C1222 C 0.3915 0.3067 0.85998 0.0
C1223 C 0.3466 0.3066 0.87163 0.0
C1224 C 0.44133 0.30509 0.86852 0.0
C1225 C 0.48996 0.30433 0.85688 0.0
C1226 C 0.49308 0.29788 0.84156 0.0
C1227 C 0.53858 0.29734 0.8304 0.0
C1228 C 0.58148 0.30313 0.83457 0.0
C1229 C 0.579 0.30946 0.84992 0.0
C1230 C 0.53351 0.31006 0.86107 0.0
C1231 C 0.37531 0.29336 0.94923 0.0
C1232 C 0.40132 0.29981 0.96127 0.0
C1233 C 0.37784 0.29427 0.92933 0.0
C1234 C 0.40562 0.30177 0.92099 0.0
C1235 C 0.43514 0.30779 0.9329 0.0
C1236 C 0.4331 0.30681 0.95295 0.0
C1237 C 0.40011 0.30373 0.9001 0.0
C1238 C 0.44501 0.30379 0.88849 0.0
C1239 C 0.35026 0.30516 0.89154 0.0
C1240 C 0.30143 0.30536 0.90311 0.0
C1241 C 0.29567 0.31181 0.91831 0.0
C1242 C 0.25032 0.31172 0.9296 0.0
C1243 C 0.2103 0.30524 0.92574 0.0
C1244 C 0.21545 0.29888 0.91053 0.0
C1245 C 0.26073 0.29894 0.8992 0.0
H1246 H 0.17527 0.30516 0.93452 0.0
H1247 H 0.61667 0.3027 0.82592 0.0
H1248 H 0.40505 0.96987 0.24534 0.0
H1249 H 0.36018 0.98505 0.24727 0.0
H1250 H 0.21084 0.97106 0.24069 0.0
H1251 H 0.25566 0.95575 0.23882 0.0
H1252 H 0.29559 0.99412 0.22148 0.0
H1253 H 0.12287 0.98318 0.26957 0.0
H1254 H 0.10078 0.97095 0.29348 0.0
H1255 H 0.26326 0.96865 0.30917 0.0
H1256 H 0.28615 0.98096 0.28557 0.0
H1257 H 0.07655 0.02796 0.25895 0.0
H1258 H 0.10948 0.01209 0.2522 0.0
H1259 H 0.26856 0.02228 0.2568 0.0
H1260 H 0.23592 0.03819 0.26348 0.0
H1261 H 0.17071 0.00063 0.27452 0.0
H1262 H 0.34327 0.01073 0.22402 0.0
H1263 H 0.3644 0.02296 0.2 0.0
H1264 H 0.2003 0.027 0.18868 0.0
H1265 H 0.1782 0.01474 0.21247 0.0
C1266 C 0.36264 0.97001 0.2443 0.0
C1267 C 0.33374 0.96164 0.24201 0.0
C1268 C 0.33715 0.97869 0.24529 0.0
C1269 C 0.28232 0.97915 0.24417 0.0
C1270 C 0.25324 0.97082 0.2417 0.0
C1271 C 0.27882 0.9621 0.24064 0.0
C1272 C 0.25593 0.98838 0.24617 0.0
C1273 C 0.26852 -0.00442 0.23313 0.0
C1274 C 0.21962 0.99016 0.26108 0.0
C1275 C 0.20623 0.98291 0.27564 0.0
C1276 C 0.15382 0.98009 0.27818 0.0
C1277 C 0.14117 0.97314 0.29168 0.0
C1278 C 0.18062 0.969 0.30279 0.0
C1279 C 0.23276 0.97184 0.30051 0.0
C1280 C 0.24559 0.97879 0.28706 0.0
C1281 C 0.11856 0.02682 0.25847 0.0
C1282 C 0.15376 0.03429 0.26173 0.0
C1283 C 0.13723 0.01776 0.25466 0.0
C1284 C 0.19133 0.01605 0.25387 0.0
C1285 C 0.2266 0.0235 0.25712 0.0
C1286 C 0.20795 0.03256 0.26101 0.0
C1287 C 0.21112 0.00644 0.25003 0.0
C1288 C 0.19728 -0.00084 0.26272 0.0
C1289 C 0.24613 0.00458 0.23475 0.0
C1290 C 0.25911 0.01186 0.22017 0.0
C1291 C 0.31171 0.0142 0.21635 0.0
C1292 C 0.32384 0.02115 0.2028 0.0
C1293 C 0.2837 0.02578 0.19289 0.0
C1294 C 0.23134 0.02345 0.19645 0.0
C1295 C 0.21899 0.01651 0.20999 0.0
H1296 H 0.29318 0.03116 0.18241 0.0
H1297 H 0.17076 0.96361 0.3132 0.0
H1298 H 0.86764 0.27375 0.2484 0.0
H1299 H 0.91581 0.25919 0.25402 0.0
H1300 H 0.06092 0.27319 0.23973 0.0
H1301 H 0.01256 0.28802 0.2342 0.0
H1302 H 0.04138 0.25455 0.22141 0.0
H1303 H 0.05138 0.26891 0.28351 0.0
H1304 H 0.01609 0.27757 0.31135 0.0
H1305 H 0.90441 0.2554 0.32126 0.0
H1306 H 0.93916 0.24659 0.29353 0.0
H1307 H 0.18451 0.21451 0.25529 0.0
H1308 H 0.15375 0.2306 0.24964 0.0
H1309 H -0.00045 0.22282 0.26974 0.0
H1310 H 0.03021 0.20667 0.27558 0.0
H1311 H 0.03462 0.2394 0.28565 0.0
H1312 H 0.02191 0.22539 0.22287 0.0
H1313 H 0.05506 0.21681 0.19455 0.0
H1314 H 0.17003 0.23848 0.18507 0.0
H1315 H 0.13809 0.24712 0.21354 0.0
C1316 C 0.90981 0.27377 0.24642 0.0
C1317 C 0.93645 0.28201 0.24084 0.0
C1318 C 0.93723 0.26545 0.24969 0.0
C1319 C 0.99177 0.26517 0.24736 0.0
C1320 C 0.01873 0.27333 0.24159 0.0
C1321 C 0.9912 0.28175 0.23851 0.0
C1322 C 0.01961 0.25623 0.25107 0.0
C1323 C 0.04121 0.2513 0.23552 0.0
C1324 C 0.01797 0.25197 0.26939 0.0
C1325 C 0.99766 0.25712 0.28638 0.0
C1326 C 0.01916 0.2659 0.2916 0.0
C1327 C 0.99927 0.27083 0.30737 0.0
C1328 C 0.95776 0.26708 0.31801 0.0
C1329 C 0.93647 0.25832 0.31302 0.0
C1330 C 0.95641 0.25333 0.29732 0.0
C1331 C 0.14397 0.21621 0.25844 0.0
C1332 C 0.10968 0.20935 0.26588 0.0
C1333 C 0.12649 0.22539 0.25517 0.0
C1334 C 0.07438 0.22786 0.2592 0.0
C1335 C 0.03998 0.22103 0.26658 0.0
C1336 C 0.05743 0.21182 0.26982 0.0
C1337 C 0.0559 0.23762 0.25593 0.0
C1338 C 0.03582 0.24269 0.27158 0.0
C1339 C 0.05903 0.24199 0.23768 0.0
C1340 C 0.078 0.23684 0.22047 0.0
C1341 C 0.05456 0.22828 0.21485 0.0
C1342 C 0.07308 0.22342 0.19875 0.0
C1343 C 0.11472 0.22709 0.18805 0.0
C1344 C 0.13783 0.23564 0.19339 0.0
C1345 C 0.11952 0.24053 0.2095 0.0
H1346 H 0.129 0.22331 0.1756 0.0
H1347 H 0.94222 0.27096 0.33011 0.0
H1348 H 0.23235 0.20233 0.98996 0.0
H1349 H 0.27713 0.21746 0.99497 0.0
H1350 H 0.12777 0.2318 0.99546 0.0
H1351 H 0.08283 0.21676 0.99055 0.0
H1352 H 0.20459 0.2409 0.97306 0.0
H1353 H 0.18233 0.2276 0.03613 0.0
H1354 H 0.18988 0.21497 0.06034 0.0
H1355 H 0.35775 0.21561 0.05517 0.0
H1356 H 0.35114 0.22813 0.03064 0.0
H1357 H 0.2775 0.28442 0.01632 0.0
H1358 H 0.23528 0.26925 0.00945 0.0
H1359 H 0.3859 0.25537 0.01161 0.0
H1360 H 0.42829 0.27046 0.01851 0.0
H1361 H 0.30987 0.24592 0.03215 0.0
H1362 H 0.33303 0.259 0.96912 0.0
H1363 H 0.3265 0.27134 0.94427 0.0
H1364 H 0.15858 0.27115 0.94933 0.0
H1365 H 0.16414 0.2588 0.97426 0.0
C1366 C 0.20918 0.20872 0.99109 0.0
C1367 C 0.15422 0.2084 0.98996 0.0
C1368 C 0.23472 0.21732 0.99395 0.0
C1369 C 0.20556 0.22569 0.99561 0.0
C1370 C 0.15079 0.2254 0.99414 0.0
C1371 C 0.12526 0.21681 0.99146 0.0
C1372 C 0.23194 0.23474 0.99952 0.0
C1373 C 0.22719 0.24205 0.98606 0.0
C1374 C 0.26205 0.23611 0.01633 0.0
C1375 C 0.26621 0.22874 0.03139 0.0
C1376 C 0.22085 0.225 0.04005 0.0
C1377 C 0.22494 0.21786 0.05384 0.0
C1378 C 0.27425 0.21447 0.05925 0.0
C1379 C 0.31957 0.21824 0.05094 0.0
C1380 C 0.31568 0.22536 0.03709 0.0
C1381 C 0.30152 0.27813 0.01533 0.0
C1382 C 0.35608 0.2786 0.01793 0.0
C1383 C 0.27745 0.2695 0.01136 0.0
C1384 C 0.30766 0.26124 0.00995 0.0
C1385 C 0.36204 0.26169 0.01268 0.0
C1386 C 0.38613 0.27031 0.01654 0.0
C1387 C 0.28252 0.2521 0.0057 0.0
C1388 C 0.28742 0.24477 0.01913 0.0
C1389 C 0.25265 0.25071 0.98884 0.0
C1390 C 0.24903 0.25804 0.97368 0.0
C1391 C 0.29472 0.26163 0.96501 0.0
C1392 C 0.2912 0.26862 0.9509 0.0
C1393 C 0.24218 0.27208 0.9453 0.0
C1394 C 0.19654 0.26849 0.95371 0.0
C1395 C 0.19984 0.26147 0.96779 0.0
H1396 H 0.23956 0.27751 0.93442 0.0
H1397 H 0.27734 0.20894 0.06991 0.0
H1398 H 0.05086 0.03341 0.98433 0.0
H1399 H 0.00795 0.01845 0.99217 0.0
H1400 H 0.15852 0.006 0.00497 0.0
H1401 H 0.20175 0.0209 0.99697 0.0
H1402 H 0.098 0.99449 0.98279 0.0
H1403 H 0.08008 0.01228 0.04079 0.0
H1404 H 0.05684 0.02621 0.06027 0.0
H1405 H 0.89563 0.02345 0.04322 0.0
H1406 H 0.91805 0.00959 0.0234 0.0
H1407 H 0.99428 0.95354 0.02907 0.0
H1408 H 0.04233 0.96816 0.02242 0.0
H1409 H 0.89688 0.98212 0.00826 0.0
H1410 H 0.84867 0.9676 0.01501 0.0
H1411 H 0.95819 0.99269 0.03225 0.0
H1412 H 0.97756 0.97514 0.97338 0.0
H1413 H 0.00157 0.96125 0.95391 0.0
H1414 H 0.16133 0.96355 0.97296 0.0
H1415 H 0.13807 0.97736 0.9928 0.0
C1416 C 0.07476 0.02749 0.98885 0.0
C1417 C 0.12955 0.0283 0.99007 0.0
C1418 C 0.05024 0.01897 0.99336 0.0
C1419 C 0.08015 0.01117 0.99927 0.0
C1420 C 0.13487 0.01195 1.00042 0.0
C1421 C 0.1594 0.02047 0.99591 0.0
C1422 C 0.05426 0.00217 0.00417 0.0
C1423 C 0.06797 0.99405 0.9938 0.0
C1424 C 0.01462 0.00169 0.01833 0.0
C1425 C 0.00084 0.00994 0.03048 0.0
C1426 C 0.03973 0.01468 0.04109 0.0
C1427 C 0.02671 0.02256 0.05221 0.0
C1428 C 0.97482 0.02572 0.05295 0.0
C1429 C 0.93582 0.02099 0.04262 0.0
C1430 C 0.94865 0.01312 0.03146 0.0
C1431 C 0.97266 0.95972 0.02449 0.0
C1432 C 0.91783 0.95946 0.02255 0.0
C1433 C 9e-05 0.96805 0.02067 0.0
C1434 C 0.97305 0.97618 0.0148 0.0
C1435 C 0.91834 0.97591 0.01284 0.0
C1436 C 0.89095 0.96761 0.01662 0.0
C1437 C 0.00157 0.98503 0.01075 0.0
C1438 C 0.98839 0.99312 0.02131 0.0
C1439 C 0.04181 0.98548 0.99681 0.0
C1440 C 0.05596 0.97723 0.98473 0.0
C1441 C 0.01773 0.97264 0.97353 0.0
C1442 C 0.03121 0.96479 0.96241 0.0
C1443 C 0.08291 0.96151 0.96224 0.0
C1444 C 0.12128 0.96609 0.97314 0.0
C1445 C 0.10797 0.97393 0.98431 0.0
H1446 H 0.09328 0.95543 0.95362 0.0
H1447 H 0.96481 0.03182 0.06156 0.0
H1448 H 0.57826 0.02448 0.74578 0.0
H1449 H 0.62146 0.00915 0.74713 0.0
H1450 H 0.75117 0.02157 0.77799 0.0
H1451 H 0.70865 0.03709 0.77604 0.0
H1452 H 0.7857 0.00966 0.75202 0.0
H1453 H 0.65477 0.00827 0.80116 0.0
H1454 H 0.566 0.00974 0.81493 0.0
H1455 H 0.5089 0.98866 0.77587 0.0
H1456 H 0.59717 0.98715 0.76167 0.0
H1457 H 0.89386 0.96526 0.77373 0.0
H1458 H 0.85123 0.98048 0.77908 0.0
H1459 H 0.71807 0.97129 0.74566 0.0
H1460 H 0.76002 0.95592 0.74068 0.0
H1461 H 0.68791 0.98175 0.7761 0.0
H1462 H 0.81683 0.98428 0.72532 0.0
H1463 H 0.90548 0.98281 0.71141 0.0
H1464 H 0.96604 0.00185 0.75398 0.0
H1465 H 0.87783 0.00332 0.76829 0.0
C1466 C 0.6161 0.02396 0.75279 0.0
C1467 C 0.64004 0.03193 0.76095 0.0
C1468 C 0.64055 0.01518 0.75368 0.0
C1469 C 0.68883 0.01417 0.76313 0.0
C1470 C 0.71364 0.02219 0.77079 0.0
C1471 C 0.68946 0.03104 0.76965 0.0
C1472 C 0.71352 0.00475 0.76465 0.0
C1473 C 0.76467 0.0036 0.75764 0.0
C1474 C 0.68566 -0.0032 0.77165 0.0
C1475 C 0.63256 -0.00236 0.78027 0.0
C1476 C 0.62322 0.00399 0.79542 0.0
C1477 C 0.57299 0.00482 0.80332 0.0
C1478 C 0.53182 -0.00069 0.79626 0.0
C1479 C 0.54082 0.99293 0.78132 0.0
C1480 C 0.59096 0.99207 0.77336 0.0
C1481 C 0.85519 0.96644 0.76773 0.0
C1482 C 0.83045 0.95949 0.75655 0.0
C1483 C 0.83099 0.97514 0.77076 0.0
C1484 C 0.78211 0.97707 0.76239 0.0
C1485 C 0.75598 0.96994 0.75215 0.0
C1486 C 0.77997 0.96119 0.74928 0.0
C1487 C 0.75969 0.98668 0.76328 0.0
C1488 C 0.70903 0.98786 0.77072 0.0
C1489 C 0.78797 0.99465 0.75669 0.0
C1490 C 0.84088 0.99384 0.74798 0.0
C1491 C 0.84913 0.9881 0.73178 0.0
C1492 C 0.89928 0.98728 0.72382 0.0
C1493 C 0.94139 0.99221 0.73184 0.0
C1494 C 0.93341 -0.00199 0.7478 0.0
C1495 C 0.88335 -0.00115 0.75583 0.0
H1496 H 0.98019 0.99156 0.72566 0.0
H1497 H 0.49296 -4e-05 0.80238 0.0
H1498 H 0.01846 0.70695 0.77104 0.0
H1499 H 0.98281 0.72277 0.76543 0.0
H1500 H 0.13987 0.73399 0.76162 0.0
H1501 H 0.17576 0.71825 0.76737 0.0
H1502 H 0.07485 0.74545 0.7827 0.0
H1503 H 0.07547 0.73005 0.72168 0.0
H1504 H 0.05733 0.71706 0.69908 0.0
H1505 H 0.8918 0.72046 0.70829 0.0
H1506 H 0.90901 0.73339 0.73119 0.0
H1507 H 0.99498 0.78878 0.73684 0.0
H1508 H 0.03913 0.77363 0.74276 0.0
H1509 H 0.88898 0.76031 0.75199 0.0
H1510 H 0.84488 0.77531 0.74628 0.0
H1511 H 0.95601 0.75027 0.7271 0.0
H1512 H 0.95857 0.76627 0.78836 0.0
H1513 H 0.98021 0.77973 0.80938 0.0
H1514 H 0.14439 0.77535 0.79894 0.0
H1515 H 0.12374 0.76214 0.77714 0.0
C1516 C 0.04532 0.7128 0.76909 0.0
C1517 C 0.0998 0.71138 0.76953 0.0
C1518 C 0.02497 0.72181 0.76587 0.0
C1519 C 0.05882 0.72951 0.76297 0.0
C1520 C 0.1132 0.72814 0.76385 0.0
C1521 C 0.13355 0.71914 0.76703 0.0
C1522 C 0.03745 0.73892 0.75833 0.0
C1523 C 0.04938 0.74655 0.77042 0.0
C1524 C 0.00419 0.74029 0.74233 0.0
C1525 C 0.99356 0.73263 0.72829 0.0
C1526 C 0.03521 0.72799 0.71899 0.0
C1527 C 0.0251 0.72064 0.70611 0.0
C1528 C 0.97345 0.71791 0.7023 0.0
C1529 C 0.9318 0.72257 0.71129 0.0
C1530 C 0.9417 0.72992 0.7242 0.0
C1531 C 0.97156 0.78261 0.74014 0.0
C1532 C 0.91662 0.7832 0.74113 0.0
C1533 C 0.99672 0.77399 0.74351 0.0
C1534 C 0.96711 0.7659 0.74778 0.0
C1535 C 0.91234 0.76649 0.74863 0.0
C1536 C 0.88731 0.77507 0.74547 0.0
C1537 C 0.99276 0.75677 0.75162 0.0
C1538 C 0.98168 0.74918 0.73933 0.0
C1539 C 0.02715 0.75549 0.76733 0.0
C1540 C 0.03956 0.76327 0.78089 0.0
C1541 C 0.99928 0.76823 0.79037 0.0
C1542 C 0.01135 0.77581 0.80245 0.0
C1543 C 0.0636 0.77837 0.80554 0.0
C1544 C 0.10391 0.77336 0.79652 0.0
C1545 C 0.09204 0.76585 0.78424 0.0
H1546 H 0.07283 0.78423 0.81493 0.0
H1547 H 0.96572 0.71221 0.69234 0.0
H1548 H 0.56489 0.71435 0.0145 0.0
H1549 H 0.60462 0.72984 0.01967 0.0
H1550 H 0.74937 0.71988 0.99469 0.0
H1551 H 0.7102 0.70428 0.98989 0.0
H1552 H 0.76759 0.73079 0.02538 0.0
H1553 H 0.66047 0.73262 0.96831 0.0
H1554 H 0.57853 0.73113 0.94972 0.0
H1555 H 0.50316 0.75115 0.98689 0.0
H1556 H 0.5845 0.75266 0.00587 0.0
H1557 H 0.89058 0.77314 1.0007 0.0
H1558 H 0.84539 0.75801 0.99841 0.0
H1559 H 0.707 0.77037 0.02378 0.0
H1560 H 0.75183 0.78567 0.02569 0.0
H1561 H 0.68219 0.75852 0.99497 0.0
H1562 H 0.79118 0.75736 0.05098 0.0
H1563 H 0.87349 0.75891 0.06933 0.0
H1564 H 0.94554 0.73765 0.03417 0.0
H1565 H 0.86389 0.73606 0.01543 0.0
C1566 C 0.60536 0.71544 0.01029 0.0
C1567 C 0.63438 0.70817 1.00161 0.0
C1568 C 0.62788 0.72429 0.01317 0.0
C1569 C 0.67953 0.72604 0.00719 0.0
C1570 C 0.70933 0.71867 0.99931 0.0
C1571 C 0.68694 0.70978 0.99655 0.0
C1572 C 0.70203 0.73564 0.00856 0.0
C1573 C 0.74923 0.73684 0.01858 0.0
C1574 C 0.6772 0.74355 1.00009 0.0
C1575 C 0.62839 0.74268 0.98863 0.0
C1576 C 0.62631 0.73665 0.9726 0.0
C1577 C 0.57999 0.73581 0.96198 0.0
C1578 C 0.53563 0.74102 0.96715 0.0
C1579 C 0.53753 0.7471 0.98292 0.0
C1580 C 0.58373 0.74796 0.99361 0.0
C1581 C 0.85036 0.77267 0.00564 0.0
C1582 C 0.82481 0.78053 0.01358 0.0
C1583 C 0.82471 0.76401 0.0044 0.0
C1584 C 0.77338 0.76303 0.01138 0.0
C1585 C 0.74683 0.77098 0.01848 0.0
C1586 C 0.77239 0.7797 0.01955 0.0
C1587 C 0.74812 0.75364 0.01158 0.0
C1588 C 0.70038 0.75248 1.00188 0.0
C1589 C 0.77245 0.74576 0.02035 0.0
C1590 C 0.82151 0.74665 0.03171 0.0
C1591 C 0.82468 0.75306 0.04708 0.0
C1592 C 0.87121 0.75394 0.05756 0.0
C1593 C 0.91475 0.7484 0.0529 0.0
C1594 C 0.9118 0.74195 0.03777 0.0
C1595 C 0.86539 0.74104 0.02722 0.0
H1596 H 0.95073 0.74909 0.06103 0.0
H1597 H 0.49981 0.74036 0.95891 0.0
H1598 H 0.25324 0.53732 0.76162 0.0
H1599 H 0.29031 0.52165 0.75517 0.0
H1600 H 0.13581 0.50936 0.75933 0.0
H1601 H 0.0986 0.52492 0.76568 0.0
H1602 H 0.21151 0.49955 0.78007 0.0
H1603 H 0.18582 0.51237 0.71685 0.0
H1604 H 0.19527 0.52436 0.69141 0.0
H1605 H 0.36278 0.52117 0.69311 0.0
H1606 H 0.35436 0.50927 0.71881 0.0
H1607 H 0.26017 0.45453 0.73858 0.0
H1608 H 0.22492 0.47037 0.74446 0.0
H1609 H 0.38085 0.48205 0.7403 0.0
H1610 H 0.41637 0.46627 0.73455 0.0
H1611 H 0.30557 0.49223 0.71947 0.0
H1612 H 0.33342 0.48107 0.78414 0.0
H1613 H 0.32728 0.46982 0.81105 0.0
H1614 H 0.1592 0.46993 0.80652 0.0
H1615 H 0.16443 0.48136 0.7798 0.0
C1616 C 0.22731 0.53127 0.76116 0.0
C1617 C 0.17313 0.53231 0.76411 0.0
C1618 C 0.24843 0.52235 0.75743 0.0
C1619 C 0.21561 0.5144 0.75671 0.0
C1620 C 0.16165 0.51543 0.75986 0.0
C1621 C 0.14052 0.52432 0.76341 0.0
C1622 C 0.23733 0.50495 0.75273 0.0
C1623 C 0.23149 0.49791 0.76672 0.0
C1624 C 0.26434 0.50292 0.73549 0.0
C1625 C 0.26949 0.51 0.7199 0.0
C1626 C 0.2247 0.51428 0.71191 0.0
C1627 C 0.22986 0.52105 0.69743 0.0
C1628 C 0.2796 0.52354 0.69068 0.0
C1629 C 0.32428 0.51924 0.69837 0.0
C1630 C 0.31933 0.51248 0.71289 0.0
C1631 C 0.28683 0.46048 0.73886 0.0
C1632 C 0.34094 0.45919 0.73615 0.0
C1633 C 0.26674 0.4695 0.74228 0.0
C1634 C 0.30046 0.47733 0.74289 0.0
C1635 C 0.35432 0.47608 0.73986 0.0
C1636 C 0.37448 0.46707 0.73664 0.0
C1637 C 0.27955 0.48685 0.74679 0.0
C1638 C 0.28551 0.49389 0.73279 0.0
C1639 C 0.25285 0.48891 0.76404 0.0
C1640 C 0.24934 0.48198 0.7799 0.0
C1641 C 0.29519 0.47865 0.78883 0.0
C1642 C 0.29186 0.47227 0.80408 0.0
C1643 C 0.2429 0.46908 0.81038 0.0
C1644 C 0.19711 0.47237 0.80158 0.0
C1645 C 0.20021 0.47885 0.78647 0.0
H1646 H 0.24045 0.4641 0.82213 0.0
H1647 H 0.28352 0.52878 0.67947 0.0
H1648 H 0.43137 0.77229 0.50715 0.0
H1649 H 0.38297 0.75775 0.50115 0.0
H1650 H 0.23785 0.77185 0.5152 0.0
H1651 H 0.28636 0.78648 0.52154 0.0
H1652 H 0.24382 0.75465 0.53178 0.0
H1653 H 0.26577 0.76745 0.4696 0.0
H1654 H 0.31313 0.7747 0.4425 0.0
H1655 H 0.40911 0.74993 0.43713 0.0
H1656 H 0.36301 0.74258 0.46445 0.0
H1657 H 0.09109 0.71656 0.49545 0.0
H1658 H 0.12915 0.73222 0.49983 0.0
H1659 H 0.28379 0.72079 0.49001 0.0
H1660 H 0.24579 0.70506 0.48527 0.0
H1661 H 0.26559 0.73743 0.47023 0.0
H1662 H 0.23813 0.72505 0.53445 0.0
H1663 H 0.18283 0.71839 0.56015 0.0
H1664 H 0.08853 0.74348 0.56044 0.0
H1665 H 0.14183 0.75016 0.5342 0.0
C1666 C 0.38915 0.77231 0.50896 0.0
C1667 C 0.36253 0.7805 0.51476 0.0
C1668 C 0.36156 0.76401 0.50545 0.0
C1669 C 0.30683 0.76378 0.50749 0.0
C1670 C 0.28011 0.77192 0.5135 0.0
C1671 C 0.30779 0.78025 0.51707 0.0
C1672 C 0.27802 0.75495 0.50351 0.0
C1673 C 0.24783 0.75094 0.51822 0.0
C1674 C 0.28361 0.75015 0.48582 0.0
C1675 C 0.31116 0.75449 0.46921 0.0
C1676 C 0.29725 0.76357 0.46274 0.0
C1677 C 0.32384 0.7677 0.44733 0.0
C1678 C 0.36416 0.76278 0.43812 0.0
C1679 C 0.37788 0.75372 0.44429 0.0
C1680 C 0.35151 0.74957 0.45974 0.0
C1681 C 0.13323 0.71737 0.49427 0.0
C1682 C 0.16561 0.7096 0.49011 0.0
C1683 C 0.15485 0.72631 0.49678 0.0
C1684 C 0.20923 0.72762 0.4954 0.0
C1685 C 0.24167 0.71989 0.49112 0.0
C1686 C 0.22001 0.71093 0.48852 0.0
C1687 C 0.23241 0.73703 0.49865 0.0
C1688 C 0.26142 0.74116 0.48375 0.0
C1689 C 0.22481 0.74202 0.51603 0.0
C1690 C 0.19374 0.73807 0.5322 0.0
C1691 C 0.20538 0.72912 0.53988 0.0
C1692 C 0.17441 0.72534 0.55455 0.0
C1693 C 0.13237 0.73051 0.56196 0.0
C1694 C 0.12112 0.73948 0.55468 0.0
C1695 C 0.1516 0.74326 0.53987 0.0
H1696 H 0.10851 0.72757 0.57334 0.0
H1697 H 0.38469 0.76599 0.42619 0.0
H1698 H 0.81755 0.46786 0.51588 0.0
H1699 H 0.85623 0.48325 0.50885 0.0
H1700 H 0.01024 0.4706 0.50724 0.0
H1701 H 0.97186 0.45518 0.51459 0.0
H1702 H 0.0104 0.48664 0.52766 0.0
H1703 H 0.94829 0.47644 0.46627 0.0
H1704 H 0.88343 0.47042 0.44304 0.0
H1705 H 0.78746 0.49494 0.45216 0.0
H1706 H 0.85146 0.50105 0.47568 0.0
H1707 H 0.15539 0.52171 0.48172 0.0
H1708 H 0.10781 0.5071 0.48774 0.0
H1709 H 0.96311 0.52272 0.49285 0.0
H1710 H 0.01066 0.53748 0.48639 0.0
H1711 H 0.95381 0.50581 0.47168 0.0
H1712 H 0.02446 0.5161 0.53275 0.0
H1713 H 0.09729 0.52193 0.5529 0.0
H1714 H 0.18412 0.49653 0.54177 0.0
H1715 H 0.11214 0.4906 0.5214 0.0
C1716 C 0.85965 0.46836 0.514 0.0
C1717 C 0.89178 0.46035 0.51576 0.0
C1718 C 0.88162 0.47714 0.50992 0.0
C1719 C 0.93597 0.47802 0.50737 0.0
C1720 C 0.96817 0.47004 0.50918 0.0
C1721 C 0.94623 0.46125 0.51332 0.0
C1722 C 0.95936 0.48731 0.50302 0.0
C1723 C 0.99828 0.4908 0.51535 0.0
C1724 C 0.94282 0.49278 0.48712 0.0
C1725 C 0.90439 0.48915 0.4729 0.0
C1726 C 0.91314 0.48051 0.46345 0.0
C1727 C 0.87657 0.47709 0.45021 0.0
C1728 C 0.83126 0.48228 0.44618 0.0
C1729 C 0.82253 0.49092 0.45533 0.0
C1730 C 0.85896 0.49437 0.46861 0.0
C1731 C 0.11341 0.52205 0.48405 0.0
C1732 C 0.08668 0.53072 0.48378 0.0
C1733 C 0.08633 0.5137 0.48749 0.0
C1734 C 0.03223 0.51389 0.49104 0.0
C1735 C 0.00498 0.52248 0.49021 0.0
C1736 C 0.03211 0.53088 0.4866 0.0
C1737 C 0.00495 0.50507 0.49624 0.0
C1738 C 0.96531 0.50169 0.48412 0.0
C1739 C 0.0213 0.49963 0.51218 0.0
C1740 C 0.06304 0.50294 0.52545 0.0
C1741 C 0.05907 0.51176 0.53462 0.0
C1742 C 0.10022 0.51509 0.54605 0.0
C1743 C 0.14539 0.50963 0.54848 0.0
C1744 C 0.14915 0.50076 0.5398 0.0
C1745 C 0.10814 0.4974 0.52836 0.0
H1746 H 0.17762 0.51226 0.55702 0.0
H1747 H 0.80299 0.47962 0.43593 0.0
H1748 H 0.73784 0.53902 0.27224 0.0
H1749 H 0.77995 0.5236 0.26722 0.0
H1750 H 0.6285 0.5111 0.25606 0.0
H1751 H 0.58654 0.52627 0.26137 0.0
H1752 H 0.68402 0.50001 0.27848 0.0
H1753 H 0.70985 0.51742 0.22053 0.0
H1754 H 0.73924 0.53103 0.2013 0.0
H1755 H 0.89916 0.52541 0.21694 0.0
H1756 H 0.87053 0.512 0.23698 0.0
H1757 H 0.75307 0.45755 0.23166 0.0
H1758 H 0.7188 0.47349 0.23704 0.0
H1759 H 0.87411 0.48317 0.25192 0.0
H1760 H 0.90876 0.46735 0.24621 0.0
H1761 H 0.82081 0.49581 0.2285 0.0
H1762 H 0.78766 0.47797 0.28742 0.0
H1763 H 0.7525 0.46389 0.30393 0.0
H1764 H 0.59876 0.46987 0.28187 0.0
H1765 H 0.63291 0.48398 0.26527 0.0
C1766 C 0.71373 0.53295 0.26882 0.0
C1767 C 0.65904 0.53383 0.26716 0.0
C1768 C 0.73772 0.52418 0.26592 0.0
C1769 C 0.70726 0.51624 0.26117 0.0
C1770 C 0.65267 0.51712 0.25979 0.0
C1771 C 0.62881 0.52582 0.26275 0.0
C1772 C 0.73166 0.50698 0.25717 0.0
C1773 C 0.71382 0.4991 0.26751 0.0
C1774 C 0.77051 0.50581 0.24285 0.0
C1775 C 0.78796 0.51377 0.23049 0.0
C1776 C 0.75125 0.51914 0.22005 0.0
C1777 C 0.76775 0.52683 0.20901 0.0
C1778 C 0.82102 0.52907 0.20786 0.0
C1779 C 0.85789 0.52366 0.21785 0.0
C1780 C 0.84152 0.51604 0.22912 0.0
C1781 C 0.77984 0.46309 0.23602 0.0
C1782 C 0.83344 0.46121 0.23864 0.0
C1783 C 0.7603 0.47217 0.23909 0.0
C1784 C 0.79396 0.47946 0.24504 0.0
C1785 C 0.8476 0.47764 0.2473 0.0
C1786 C 0.8672 0.46858 0.24414 0.0
C1787 C 0.77294 0.4889 0.24977 0.0
C1788 C 0.79145 0.49678 0.2396 0.0
C1789 C 0.73389 0.49008 0.26396 0.0
C1790 C 0.71287 0.48198 0.27503 0.0
C1791 C 0.74633 0.47629 0.28616 0.0
C1792 C 0.72663 0.4683 0.29549 0.0
C1793 C 0.67358 0.46596 0.2938 0.0
C1794 C 0.63987 0.47169 0.28311 0.0
C1795 C 0.65931 0.4797 0.27381 0.0
H1796 H 0.65858 0.45968 0.30066 0.0
H1797 H 0.83372 0.535 0.19923 0.0
H1798 H 0.77145 0.28377 0.53349 0.0
H1799 H 0.73097 0.26818 0.52924 0.0
H1800 H 0.87573 0.25752 0.50555 0.0
H1801 H 0.91637 0.27299 0.50982 0.0
H1802 H 0.78857 0.25259 0.48417 0.0
H1803 H 0.8465 0.25194 0.54948 0.0
H1804 H 0.85464 0.25758 0.58282 0.0
H1805 H 0.68789 0.25521 0.59026 0.0
H1806 H 0.67863 0.2497 0.55683 0.0
H1807 H 0.72272 0.20389 0.48613 0.0
H1808 H 0.76901 0.2187 0.49282 0.0
H1809 H 0.62833 0.23021 0.51812 0.0
H1810 H 0.58202 0.21547 0.51157 0.0
H1811 H 0.71647 0.23443 0.53909 0.0
H1812 H 0.65848 0.23581 0.4733 0.0
H1813 H 0.65049 0.23015 0.43995 0.0
H1814 H 0.818 0.23115 0.43356 0.0
H1815 H 0.82702 0.23669 0.46698 0.0
C1816 C 0.79449 0.27809 0.52735 0.0
C1817 C 0.84701 0.27955 0.52204 0.0
C1818 C 0.77148 0.26921 0.52501 0.0
C1819 C 0.80064 0.26172 0.51724 0.0
C1820 C 0.85273 0.26322 0.51161 0.0
C1821 C 0.87585 0.27205 0.51411 0.0
C1822 C 0.77682 0.2523 0.51478 0.0
C1823 C 0.77341 0.24856 0.49619 0.0
C1824 C 0.75643 0.24715 0.53048 0.0
C1825 C 0.7618 0.25052 0.55056 0.0
C1826 C 0.81148 0.25272 0.55815 0.0
C1827 C 0.81632 0.25587 0.57708 0.0
C1828 C 0.77179 0.25678 0.58863 0.0
C1829 C 0.72234 0.25452 0.58128 0.0
C1830 C 0.71727 0.25138 0.56234 0.0
C1831 C 0.70187 0.20956 0.49324 0.0
C1832 C 0.64872 0.20859 0.49816 0.0
C1833 C 0.72825 0.218 0.49701 0.0
C1834 C 0.7018 0.22556 0.50576 0.0
C1835 C 0.64932 0.22446 0.51132 0.0
C1836 C 0.62291 0.21606 0.50748 0.0
C1837 C 0.72797 0.23476 0.50847 0.0
C1838 C 0.73181 0.23846 0.52709 0.0
C1839 C 0.74878 0.23988 0.4928 0.0
C1840 C 0.74345 0.23656 0.4727 0.0
C1841 C 0.69364 0.23474 0.46483 0.0
C1842 C 0.68892 0.23157 0.44591 0.0
C1843 C 0.73372 0.23027 0.43466 0.0
C1844 C 0.78334 0.23215 0.4423 0.0
C1845 C 0.78828 0.23531 0.46123 0.0
H1846 H 0.72999 0.22782 0.42001 0.0
H1847 H 0.77562 0.25921 0.60329 0.0
H1848 H 0.35861 0.27681 0.76091 0.0
H1849 H 0.40446 0.26217 0.76793 0.0
H1850 H 0.54999 0.27453 0.74861 0.0
H1851 H 0.50376 0.28929 0.74116 0.0
H1852 H 0.53224 0.25764 0.7322 0.0
H1853 H 0.53219 0.26961 0.79607 0.0
H1854 H 0.49476 0.27689 0.82515 0.0
H1855 H 0.38779 0.25368 0.83121 0.0
H1856 H 0.4242 0.24628 0.80207 0.0
H1857 H 0.66718 0.21574 0.76083 0.0
H1858 H 0.63891 0.23215 0.75767 0.0
H1859 H 0.48119 0.22413 0.77324 0.0
H1860 H 0.50928 0.20768 0.77658 0.0
H1861 H 0.51654 0.23971 0.79313 0.0
H1862 H 0.51032 0.22873 0.72762 0.0
H1863 H 0.54634 0.22147 0.69828 0.0
H1864 H 0.66445 0.24304 0.69524 0.0
H1865 H 0.6296 0.25035 0.72476 0.0
C1866 C 0.4005 0.27647 0.75835 0.0
C1867 C 0.42764 0.28415 0.75037 0.0
C1868 C 0.42672 0.26811 0.76251 0.0
C1869 C 0.48069 0.26731 0.75898 0.0
C1870 C 0.50831 0.27505 0.75149 0.0
C1871 C 0.48196 0.28346 0.74728 0.0
C1872 C 0.50669 0.25809 0.76168 0.0
C1873 C 0.53 0.2538 0.74565 0.0
C1874 C 0.50252 0.25303 0.77912 0.0
C1875 C 0.48079 0.25741 0.79679 0.0
C1876 C 0.50047 0.26608 0.80353 0.0
C1877 C 0.47945 0.27023 0.82003 0.0
C1878 C 0.43882 0.26577 0.82998 0.0
C1879 C 0.41926 0.25713 0.82348 0.0
C1880 C 0.44017 0.25294 0.807 0.0
C1881 C 0.62639 0.21746 0.76347 0.0
C1882 C 0.59035 0.21046 0.76896 0.0
C1883 C 0.61036 0.22683 0.76164 0.0
C1884 C 0.55803 0.22931 0.76519 0.0
C1885 C 0.52183 0.22232 0.7705 0.0
C1886 C 0.53782 0.21294 0.7723 0.0
C1887 C 0.54106 0.23924 0.76356 0.0
C1888 C 0.51953 0.24363 0.77979 0.0
C1889 C 0.54686 0.24439 0.74631 0.0
C1890 C 0.56774 0.24002 0.72853 0.0
C1891 C 0.54427 0.23187 0.7208 0.0
C1892 C 0.56441 0.22776 0.70412 0.0
C1893 C 0.60776 0.23177 0.69493 0.0
C1894 C 0.63095 0.23993 0.70239 0.0
C1895 C 0.611 0.24406 0.71909 0.0
H1896 H 0.62329 0.22858 0.68202 0.0
H1897 H 0.42258 0.26901 0.84274 0.0
H1898 H 0.50638 0.0365 0.4824 0.0
H1899 H 0.46256 0.02197 0.49303 0.0
H1900 H 0.6118 0.0076 0.49442 0.0
H1901 H 0.65576 0.02205 0.48406 0.0
H1902 H 0.53137 -0.00245 0.47556 0.0
H1903 H 0.5639 0.01423 0.53445 0.0
H1904 H 0.55975 0.02798 0.55611 0.0
H1905 H 0.39142 0.0267 0.55564 0.0
H1906 H 0.39453 0.01305 0.53364 0.0
H1907 H 0.46724 0.9561 0.52691 0.0
H1908 H 0.50888 0.9712 0.51897 0.0
H1909 H 0.35781 0.98493 0.52025 0.0
H1910 H 0.31593 0.96989 0.52809 0.0
H1911 H 0.43698 -0.00444 0.53775 0.0
H1912 H 0.40495 0.97839 0.47973 0.0
H1913 H 0.4096 0.96489 0.45755 0.0
H1914 H 0.57736 0.96742 0.45531 0.0
H1915 H 0.57398 0.98069 0.47819 0.0
C1916 C 0.52968 0.03022 0.48492 0.0
C1917 C 0.58436 0.03037 0.48244 0.0
C1918 C 0.50473 0.02197 0.49104 0.0
C1919 C 0.53416 0.01377 0.49455 0.0
C1920 C 0.58857 0.01388 0.49176 0.0
C1921 C 0.61355 0.02213 0.4859 0.0
C1922 C 0.5085 0.00503 0.50111 0.0
C1923 C 0.51123 -0.00295 0.48925 0.0
C1924 C 0.48143 0.00454 0.51879 0.0
C1925 C 0.47944 0.01268 0.5322 0.0
C1926 C 0.52597 0.01694 0.53881 0.0
C1927 C 0.52382 0.02471 0.55117 0.0
C1928 C 0.47535 0.02823 0.55721 0.0
C1929 C 0.42894 0.02397 0.55092 0.0
C1930 C 0.43087 0.01622 0.53851 0.0
C1931 C 0.44303 0.96236 0.52569 0.0
C1932 C 0.38837 0.96183 0.52794 0.0
C1933 C 0.46681 0.97096 0.52115 0.0
C1934 C 0.43624 0.97913 0.51889 0.0
C1935 C 0.38196 0.97869 0.52194 0.0
C1936 C 0.35814 0.97009 0.52632 0.0
C1937 C 0.46038 0.98802 0.51227 0.0
C1938 C 0.45718 -0.00396 0.52407 0.0
C1939 C 0.48711 0.98856 0.4945 0.0
C1940 C 0.48924 0.98048 0.4809 0.0
C1941 C 0.44293 0.97598 0.47477 0.0
C1942 C 0.44535 0.96837 0.46205 0.0
C1943 C 0.49373 0.96531 0.45497 0.0
C1944 C 0.53989 0.9698 0.4608 0.0
C1945 C 0.53777 0.97734 0.47372 0.0
H1946 H 0.49549 0.9595 0.44492 0.0
H1947 H 0.47378 0.03424 0.56678 0.0
H1948 H 0.52728 0.70796 0.26883 0.0
H1949 H 0.49911 0.72377 0.25916 0.0
H1950 H 0.66069 0.73272 0.25586 0.0
H1951 H 0.68923 0.71692 0.26547 0.0
H1952 H 0.59672 0.74558 0.27494 0.0
H1953 H 0.60158 0.72912 0.21569 0.0
H1954 H 0.58487 0.71593 0.19342 0.0
H1955 H 0.41882 0.7203 0.19889 0.0
H1956 H 0.4345 0.73345 0.22141 0.0
H1957 H 0.50918 0.78895 0.23154 0.0
H1958 H 0.55788 0.77411 0.23554 0.0
H1959 H 0.41187 0.75903 0.24221 0.0
H1960 H 0.36328 0.7737 0.23818 0.0
H1961 H 0.4818 0.7499 0.21808 0.0
H1962 H 0.48099 0.76598 0.27992 0.0
H1963 H 0.50152 0.77951 0.30091 0.0
H1964 H 0.66587 0.77589 0.28966 0.0
H1965 H 0.64627 0.76257 0.26799 0.0
C1966 C 0.55676 0.7133 0.26607 0.0
C1967 C 0.61037 0.71123 0.26785 0.0
C1968 C 0.54068 0.7223 0.26049 0.0
C1969 C 0.57795 0.72935 0.25667 0.0
C1970 C 0.63147 0.72735 0.25873 0.0
C1971 C 0.64761 0.71833 0.26416 0.0
C1972 C 0.56062 0.73882 0.25057 0.0
C1973 C 0.57239 0.74658 0.26232 0.0
C1974 C 0.52903 0.74006 0.2341 0.0
C1975 C 0.51923 0.73223 0.22037 0.0
C1976 C 0.56148 0.72723 0.21226 0.0
C1977 C 0.5522 0.71977 0.19956 0.0
C1978 C 0.50082 0.71726 0.19478 0.0
C1979 C 0.45861 0.72224 0.20262 0.0
C1980 C 0.46767 0.72971 0.21533 0.0
C1981 C 0.48763 0.78245 0.2338 0.0
C1982 C 0.43255 0.78246 0.23465 0.0
C1983 C 0.5154 0.77401 0.23605 0.0
C1984 C 0.48831 0.76552 0.23918 0.0
C1985 C 0.43337 0.76552 0.23971 0.0
C1986 C 0.40573 0.77392 0.23754 0.0
C1987 C 0.51654 0.7566 0.24277 0.0
C1988 C 0.50683 0.74893 0.23053 0.0
C1989 C 0.55046 0.75548 0.25869 0.0
C1990 C 0.56212 0.76334 0.27212 0.0
C1991 C 0.52148 0.76811 0.28177 0.0
C1992 C 0.53293 0.77574 0.29381 0.0
C1993 C 0.58492 0.77854 0.29664 0.0
C1994 C 0.6256 0.77372 0.28743 0.0
C1995 C 0.61434 0.76615 0.27522 0.0
H1996 H 0.59368 0.78444 0.30599 0.0
H1997 H 0.49372 0.71147 0.18497 0.0
H1998 H 0.31883 0.46858 0.01141 0.0
H1999 H 0.36276 0.48361 0.0053 0.0
H2000 H 0.51287 0.47057 0.01612 0.0
H2001 H 0.46912 0.45543 0.02215 0.0
H2002 H 0.49671 0.4883 0.03503 0.0
H2003 H 0.48376 0.47436 0.9722 0.0
H2004 H 0.4375 0.46669 0.9453 0.0
H2005 H 0.33615 0.49076 0.93984 0.0
H2006 H 0.38149 0.49854 0.96686 0.0
H2007 H 0.66648 0.52237 0.99579 0.0
H2008 H 0.61853 0.50789 1.0028 0.0
H2009 H 0.47318 0.52151 0.98723 0.0
H2010 H 0.52117 0.5361 0.98 0.0
H2011 H 0.48381 0.50378 0.97126 0.0
H2012 H 0.49959 0.51817 0.03291 0.0
H2013 H 0.54601 0.52593 0.05965 0.0
H2014 H 0.64062 0.50117 0.06781 0.0
H2015 H 0.59548 0.49332 0.04085 0.0
C2016 C 0.3612 0.46891 0.0125 0.0
C2017 C 0.3907 0.46086 0.01723 0.0
C2018 C 0.38615 0.47748 0.00898 0.0
C2019 C 0.44089 0.47814 0.01021 0.0
C2020 C 0.4705 0.47015 0.01514 0.0
C2021 C 0.44556 0.46153 0.01849 0.0
C2022 C 0.46709 0.48719 0.00617 0.0
C2023 C 0.49456 0.49165 0.02105 0.0
C2024 C 0.46269 0.49161 0.98806 0.0
C2025 C 0.43569 0.48699 0.97168 0.0
C2026 C 0.45135 0.47799 0.96536 0.0
C2027 C 0.42536 0.47363 0.95007 0.0
C2028 C 0.38379 0.47822 0.94092 0.0
C2029 C 0.3683 0.4872 0.94697 0.0
C2030 C 0.39419 0.4916 0.96225 0.0
C2031 C 0.62429 0.5223 0.99388 0.0
C2032 C 0.59744 0.53035 0.98738 0.0
C2033 C 0.59699 0.51404 0.99795 0.0
C2034 C 0.54238 0.51369 0.9957 0.0
C2035 C 0.51538 0.52168 0.98907 0.0
C2036 C 0.54274 0.52999 0.98501 0.0
C2037 C 0.51387 0.50489 1.00008 0.0
C2038 C 0.48586 0.50047 0.98528 0.0
C2039 C 0.51766 0.50053 0.0183 0.0
C2040 C 0.54441 0.50518 0.03473 0.0
C2041 C 0.53056 0.5144 0.0403 0.0
C2042 C 0.55662 0.51882 0.05551 0.0
C2043 C 0.5963 0.51405 0.0654 0.0
C2044 C 0.6099 0.50485 0.06012 0.0
C2045 C 0.58407 0.50041 0.04488 0.0
H2046 H 0.61644 0.51749 0.07717 0.0
H2047 H 0.36367 0.47482 0.9291 0.0
H2048 H 0.12024 0.16211 0.31496 0.0
H2049 H 0.13676 0.14532 0.32063 0.0
H2050 H 0.04084 0.13831 0.27158 0.0
H2051 H 0.02278 0.15512 0.26637 0.0
H2052 H 0.03773 0.12437 0.29837 0.0
H2053 H 0.17097 0.14313 0.26587 0.0
H2054 H 0.23124 0.15674 0.26406 0.0
H2055 H 0.31031 0.14724 0.31494 0.0
H2056 H 0.25003 0.13362 0.31718 0.0
H2057 H 0.2264 0.0895 0.25374 0.0
H2058 H 0.21007 0.10607 0.26226 0.0
H2059 H 0.14443 0.09723 0.31647 0.0
H2060 H 0.15878 0.08072 0.30761 0.0
H2061 H 0.22917 0.11904 0.29017 0.0
H2062 H 0.03174 0.10889 0.3237 0.0
H2063 H 0.97005 0.09544 0.324 0.0
H2064 H 0.0181 0.08781 0.26701 0.0
H2065 H 0.07954 0.10127 0.26629 0.0
C2066 C 0.10099 0.15693 0.30592 0.0
C2067 C 0.07059 0.15982 0.29019 0.0
C2068 C 0.11061 0.14737 0.30909 0.0
C2069 C 0.09126 0.14061 0.29619 0.0
C2070 C 0.05636 0.14343 0.28165 0.0
C2071 C 0.0459 0.15302 0.2787 0.0
C2072 C 0.11357 0.13096 0.29591 0.0
C2073 C 0.07959 0.12319 0.2968 0.0
C2074 C 0.16822 0.12945 0.29355 0.0
C2075 C 0.20586 0.13739 0.29175 0.0
C2076 C 0.20123 0.14394 0.27666 0.0
C2077 C 0.23534 0.15166 0.27557 0.0
C2078 C 0.27462 0.15284 0.28936 0.0
C2079 C 0.27994 0.1463 0.30425 0.0
C2080 C 0.24585 0.13858 0.30543 0.0
C2081 C 0.21039 0.09117 0.26774 0.0
C2082 C 0.19378 0.08395 0.28007 0.0
C2083 C 0.20091 0.1006 0.27259 0.0
C2084 C 0.17496 0.10284 0.28981 0.0
C2085 C 0.16362 0.09564 0.30298 0.0
C2086 C 0.17218 0.08623 0.29799 0.0
C2087 C 0.15336 0.11244 0.29271 0.0
C2088 C 0.18744 0.1202 0.29216 0.0
C2089 C 0.0987 0.11395 0.29506 0.0
C2090 C 0.06045 0.10605 0.29501 0.0
C2091 C 0.02883 0.10438 0.31119 0.0
C2092 C 0.99398 0.09675 0.31144 0.0
C2093 C 0.99015 0.09078 0.29553 0.0
C2094 C 0.0211 0.09244 0.27932 0.0
C2095 C 0.05593 0.10007 0.27898 0.0
H2096 H 0.96312 0.08489 0.29575 0.0
H2097 H 0.30088 0.15883 0.28853 0.0
H2098 H 0.06978 0.15837 0.96496 0.0
H2099 H 0.06273 0.14166 0.95732 0.0
H2100 H 0.22606 0.13773 0.97141 0.0
H2101 H 0.23383 0.15459 0.97909 0.0
H2102 H 0.19058 0.12711 0.9386 0.0
H2103 H 0.14096 0.13326 0.00465 0.0
H2104 H 0.09089 0.14141 0.03 0.0
H2105 H 0.94635 0.13193 0.00484 0.0
H2106 H 0.99562 0.12383 0.97917 0.0
H2107 H 0.20705 0.07974 0.96711 0.0
H2108 H 0.20808 0.09659 0.96129 0.0
H2109 H 0.03883 0.09686 0.95887 0.0
H2110 H 0.03726 0.07989 0.96555 0.0
H2111 H 0.0705 0.10968 0.98208 0.0
H2112 H 0.11946 0.10159 0.91842 0.0
H2113 H 0.16849 0.09345 0.89279 0.0
H2114 H 0.3116 0.10635 0.91201 0.0
H2115 H 0.26362 0.11446 0.93794 0.0
C2116 C 0.10449 0.154 0.96633 0.0
C2117 C 0.15223 0.15778 0.97301 0.0
C2118 C 0.10034 0.14446 0.96185 0.0
C2119 C 0.14366 0.13848 0.96405 0.0
C2120 C 0.19219 0.14228 0.96965 0.0
C2121 C 0.19649 0.15188 0.97412 0.0
C2122 C 0.13673 0.12816 0.96227 0.0
C2123 C 0.16471 0.12324 0.94814 0.0
C2124 C 0.10154 0.12324 0.97435 0.0
C2125 C 0.07194 0.12803 0.98989 0.0
C2126 C 0.09849 0.13297 0.00445 0.0
C2127 C 0.07027 0.13758 0.01888 0.0
C2128 C 0.01547 0.13722 0.019 0.0
C2129 C 0.9888 0.13222 0.00471 0.0
C2130 C 0.01685 0.12762 0.99023 0.0
C2131 C 0.16985 0.08331 0.96508 0.0
C2132 C 0.12194 0.07845 0.96702 0.0
C2133 C 0.17062 0.09298 0.96152 0.0
C2134 C 0.12359 0.098 0.95939 0.0
C2135 C 0.07565 0.09312 0.96044 0.0
C2136 C 0.07479 0.08342 0.96426 0.0
C2137 C 0.12478 0.10846 0.95845 0.0
C2138 C 0.09578 0.11347 0.9722 0.0
C2139 C 0.15881 0.11343 0.9459 0.0
C2140 C 0.18789 0.1086 0.93023 0.0
C2141 C 0.16144 0.10264 0.91728 0.0
C2142 C 0.18906 0.09804 0.90267 0.0
C2143 C 0.24314 0.09937 0.90079 0.0
C2144 C 0.2697 0.10533 0.91348 0.0
C2145 C 0.24229 0.10994 0.92812 0.0
H2146 H 0.26446 0.09579 0.88948 0.0
H2147 H 0.99368 0.14078 0.03019 0.0
H2148 H 0.76046 0.90895 0.71553 0.0
H2149 H 0.76981 0.89264 0.70438 0.0
H2150 H 0.93731 0.89429 0.713 0.0
H2151 H 0.92876 0.91058 0.72319 0.0
H2152 H 0.91993 0.88333 0.68425 0.0
H2153 H 0.84895 0.886 0.74869 0.0
H2154 H 0.78452 0.89119 0.77293 0.0
H2155 H 0.66211 0.87654 0.74279 0.0
H2156 H 0.7258 0.87136 0.71825 0.0
H2157 H 0.98756 0.83745 0.72111 0.0
H2158 H 0.97286 0.85409 0.71291 0.0
H2159 H 0.81399 0.84759 0.6961 0.0
H2160 H 0.82808 0.83108 0.70428 0.0
H2161 H 0.81836 0.86074 0.72392 0.0
H2162 H 0.90132 0.85515 0.66349 0.0
H2163 H 0.97094 0.84991 0.64137 0.0
H2164 H 0.07792 0.86987 0.66631 0.0
H2165 H 0.0093 0.8751 0.68885 0.0
C2166 C 0.79933 0.90588 0.71475 0.0
C2167 C 0.84363 0.91101 0.72074 0.0
C2168 C 0.80464 0.89655 0.7084 0.0
C2169 C 0.85412 0.89215 0.70838 0.0
C2170 C 0.89866 0.89749 0.71301 0.0
C2171 C 0.89354 0.90682 0.71904 0.0
C2172 C 0.85954 0.88181 0.70566 0.0
C2173 C 0.89788 0.87837 0.69294 0.0
C2174 C 0.83015 0.87532 0.71677 0.0
C2175 C 0.79193 0.8784 0.73154 0.0
C2176 C 0.80822 0.88394 0.74719 0.0
C2177 C 0.77186 0.88687 0.76098 0.0
C2178 C 0.71922 0.88422 0.75937 0.0
C2179 C 0.70286 0.87861 0.74399 0.0
C2180 C 0.73906 0.87567 0.73014 0.0
C2181 C 0.94996 0.83954 0.71523 0.0
C2182 C 0.90871 0.83299 0.7137 0.0
C2183 C 0.94167 0.84903 0.71047 0.0
C2184 C 0.89224 0.85206 0.70396 0.0
C2185 C 0.85232 0.8454 0.70117 0.0
C2186 C 0.86044 0.83597 0.70596 0.0
C2187 C 0.8796 0.86225 0.70281 0.0
C2188 C 0.83987 0.86565 0.71491 0.0
C2189 C 0.90863 0.86867 0.69145 0.0
C2190 C 0.95019 0.86546 0.67801 0.0
C2191 C 0.93984 0.85835 0.66442 0.0
C2192 C 0.97913 0.85539 0.65177 0.0
C2193 C 0.02886 0.85953 0.65247 0.0
C2194 C 0.03941 0.86665 0.66581 0.0
C2195 C 0.00031 0.86962 0.67852 0.0
H2196 H 0.0592 0.85724 0.64265 0.0
H2197 H 0.69112 0.8865 0.77006 0.0
H2198 H 0.82252 0.90995 0.05301 0.0
H2199 H 0.81289 0.89302 0.05759 0.0
H2200 H 0.97881 0.88924 0.04789 0.0
H2201 H 0.98873 0.90622 0.0428 0.0
H2202 H 0.92408 0.8786 0.02451 0.0
H2203 H 0.9216 0.88429 0.0918 0.0
H2204 H 0.89521 0.8915 0.12252 0.0
H2205 H 0.73721 0.88182 0.11415 0.0
H2206 H 0.76245 0.87465 0.08324 0.0
H2207 H 0.92658 0.8299 0.04022 0.0
H2208 H 0.93771 0.84647 0.04834 0.0
H2209 H 0.77163 0.8511 0.04133 0.0
H2210 H 0.75969 0.8344 0.03288 0.0
H2211 H 0.82777 0.86092 0.07493 0.0
H2212 H 0.83109 0.85666 0.00588 0.0
H2213 H 0.86013 0.84883 0.9761 0.0
H2214 H 0.02023 0.85583 0.98905 0.0
H2215 H 0.99215 0.86358 0.01908 0.0
C2216 C 0.85726 0.90556 0.05215 0.0
C2217 C 0.90631 0.90943 0.04717 0.0
C2218 C 0.85169 0.89586 0.05497 0.0
C2219 C 0.8951 0.88985 0.05308 0.0
C2220 C 0.94475 0.89376 0.04936 0.0
C2221 C 0.95037 0.90347 0.04648 0.0
C2222 C 0.88733 0.87949 0.05235 0.0
C2223 C 0.9039 0.87474 0.03575 0.0
C2224 C 0.85957 0.87448 0.06673 0.0
C2225 C 0.84389 0.87898 0.08512 0.0
C2226 C 0.88111 0.88378 0.09641 0.0
C2227 C 0.8664 0.88783 0.1139 0.0
C2228 C 0.81463 0.88709 0.12032 0.0
C2229 C 0.77736 0.88235 0.1092 0.0
C2230 C 0.79186 0.87829 0.0917 0.0
C2231 C 0.89208 0.83437 0.04055 0.0
C2232 C 0.84224 0.83084 0.03554 0.0
C2233 C 0.89863 0.84383 0.04532 0.0
C2234 C 0.85556 0.84996 0.04529 0.0
C2235 C 0.80524 0.84642 0.04145 0.0
C2236 C 0.7986 0.83691 0.03652 0.0
C2237 C 0.86458 0.8602 0.0472 0.0
C2238 C 0.84815 0.86487 0.06387 0.0
C2239 C 0.89264 0.86518 0.03295 0.0
C2240 C 0.90958 0.86061 0.01482 0.0
C2241 C 0.87253 0.85645 1.00246 0.0
C2242 C 0.8888 0.85205 0.98552 0.0
C2243 C 0.94201 0.85181 0.98071 0.0
C2244 C 0.97903 0.85601 0.99281 0.0
C2245 C 0.96296 0.86041 0.00978 0.0
H2246 H 0.95452 0.8484 0.96758 0.0
H2247 H 0.80334 0.89022 0.13388 0.0
H2248 H 0.20269 0.5865 0.74353 0.0
H2249 H 0.18145 0.60325 0.74652 0.0
H2250 H 0.15638 0.59958 0.80742 0.0
H2251 H 0.17412 0.58265 0.804 0.0
H2252 H 0.08014 0.60875 0.79472 0.0
H2253 H 0.26447 0.61264 0.78687 0.0
H2254 H 0.35184 0.61051 0.7723 0.0
H2255 H 0.29709 0.62314 0.71997 0.0
H2256 H 0.20916 0.62523 0.73414 0.0
H2257 H 0.12262 0.66118 0.80302 0.0
H2258 H 0.13593 0.6441 0.80526 0.0
H2259 H 0.04009 0.64006 0.75492 0.0
H2260 H 0.02498 0.65719 0.75303 0.0
H2261 H 0.17618 0.63514 0.76382 0.0
H2262 H 0.98505 0.62901 0.7743 0.0
H2263 H 0.90352 0.63178 0.79255 0.0
H2264 H 0.9822 0.62424 0.84486 0.0
H2265 H 0.06442 0.62157 0.82691 0.0
C2266 C 0.19431 0.58938 0.75761 0.0
C2267 C 0.19104 0.58344 0.77363 0.0
C2268 C 0.18212 0.59894 0.75935 0.0
C2269 C 0.16787 0.60275 0.77726 0.0
C2270 C 0.16718 0.59683 0.79346 0.0
C2271 C 0.17798 0.58721 0.79159 0.0
C2272 C 0.14956 0.61268 0.77874 0.0
C2273 C 0.10164 0.6145 0.78809 0.0
C2274 C 0.17718 0.62025 0.7701 0.0
C2275 C 0.23008 0.61902 0.76153 0.0
C2276 C 0.27095 0.6149 0.77221 0.0
C2277 C 0.3206 0.61371 0.76403 0.0
C2278 C 0.32998 0.61667 0.74521 0.0
C2279 C 0.28976 0.62085 0.73454 0.0
C2280 C 0.24003 0.62205 0.74265 0.0
C2281 C 0.10273 0.6566 0.7929 0.0
C2282 C 0.07258 0.66042 0.77792 0.0
C2283 C 0.11039 0.64688 0.79418 0.0
C2284 C 0.08862 0.64088 0.78035 0.0
C2285 C 0.05626 0.64462 0.76593 0.0
C2286 C 0.0476 0.65436 0.76488 0.0
C2287 C 0.10686 0.63104 0.77933 0.0
C2288 C 0.15498 0.6293 0.77027 0.0
C2289 C 0.08023 0.62362 0.7886 0.0
C2290 C 0.03095 0.62524 0.79932 0.0
C2291 C 0.9851 0.62807 0.78972 0.0
C2292 C 0.93874 0.62959 0.8 0.0
C2293 C 0.93773 0.62823 0.81986 0.0
C2294 C 0.98306 0.62532 0.82948 0.0
C2295 C 0.02952 0.6238 0.81927 0.0
H2296 H 0.90179 0.6294 0.82779 0.0
H2297 H 0.36844 0.61574 0.73889 0.0
H2298 H 0.11318 0.66177 0.44969 0.0
H2299 H 0.10127 0.64506 0.44234 0.0
H2300 H 0.23848 0.6383 0.47592 0.0
H2301 H 0.25144 0.65513 0.48294 0.0
H2302 H 0.22393 0.62612 0.44432 0.0
H2303 H 0.12114 0.63921 0.49733 0.0
H2304 H 0.05838 0.65067 0.5109 0.0
H2305 H 0.94143 0.64178 0.47037 0.0
H2306 H 0.00387 0.63038 0.45633 0.0
H2307 H 0.18358 0.58256 0.48668 0.0
H2308 H 0.19636 0.59912 0.47908 0.0
H2309 H 0.0414 0.60034 0.45415 0.0
H2310 H 0.0275 0.58365 0.46247 0.0
H2311 H 0.05832 0.61533 0.47483 0.0
H2312 H 0.1543 0.60007 0.42571 0.0
H2313 H 0.21587 0.58851 0.4118 0.0
H2314 H 0.3432 0.60118 0.44286 0.0
H2315 H 0.28231 0.61272 0.45723 0.0
C2316 C 0.14163 0.65674 0.45509 0.0
C2317 C 0.18271 0.65967 0.46717 0.0
C2318 C 0.13481 0.64721 0.45084 0.0
C2319 C 0.16826 0.64046 0.45897 0.0
C2320 C 0.21214 0.64343 0.46959 0.0
C2321 C 0.21949 0.65302 0.47362 0.0
C2322 C 0.15322 0.63038 0.4588 0.0
C2323 C 0.18787 0.62372 0.451 0.0
C2324 C 0.1052 0.62732 0.46694 0.0
C2325 C 0.06729 0.63401 0.47568 0.0
C2326 C 0.08212 0.63973 0.49126 0.0
C2327 C 0.04663 0.64622 0.49902 0.0
C2328 C 0.99601 0.64697 0.49145 0.0
C2329 C 0.98071 0.64121 0.47616 0.0
C2330 C 0.01611 0.63473 0.46831 0.0
C2331 C 0.15212 0.58633 0.47955 0.0
C2332 C 0.10463 0.5818 0.47502 0.0
C2333 C 0.1597 0.59579 0.47505 0.0
C2334 C 0.12052 0.6009 0.46549 0.0
C2335 C 0.07242 0.59648 0.46132 0.0
C2336 C 0.06443 0.58698 0.46613 0.0
C2337 C 0.12966 0.61096 0.46079 0.0
C2338 C 0.09389 0.61766 0.46771 0.0
C2339 C 0.17638 0.61403 0.45163 0.0
C2340 C 0.21357 0.60725 0.44263 0.0
C2341 C 0.19539 0.60037 0.42965 0.0
C2342 C 0.23018 0.59382 0.42168 0.0
C2343 C 0.28339 0.5941 0.42647 0.0
C2344 C 0.30196 0.60097 0.43917 0.0
C2345 C 0.26732 0.60753 0.44721 0.0
H2346 H 0.31023 0.58901 0.42032 0.0
H2347 H 0.96861 0.65201 0.49747 0.0
H2348 H 0.83301 0.3329 0.25283 0.0
H2349 H 0.81294 0.34941 0.24677 0.0
H2350 H 0.96254 0.35289 0.21859 0.0
H2351 H 0.9837 0.33624 0.22522 0.0
H2352 H 0.94 0.36788 0.23999 0.0
H2353 H 0.84991 0.35032 0.19245 0.0
H2354 H 0.7941 0.33751 0.17989 0.0
H2355 H 0.66248 0.3484 0.21133 0.0
H2356 H 0.71773 0.36118 0.22439 0.0
H2357 H 0.86918 0.41157 0.20384 0.0
H2358 H 0.88203 0.39458 0.20073 0.0
H2359 H 0.75555 0.38964 0.24061 0.0
H2360 H 0.74205 0.40677 0.24369 0.0
H2361 H 0.76889 0.37536 0.20932 0.0
H2362 H 0.86742 0.39177 0.2595 0.0
H2363 H 0.92513 0.4047 0.27038 0.0
H2364 H 0.04398 0.3958 0.2306 0.0
H2365 H 0.98654 0.38291 0.21928 0.0
C2366 C 0.86189 0.33719 0.24545 0.0
C2367 C 0.90971 0.33328 0.23929 0.0
C2368 C 0.85019 0.34661 0.24189 0.0
C2369 C 0.8855 0.3523 0.2317 0.0
C2370 C 0.93448 0.34857 0.22628 0.0
C2371 C 0.94663 0.3391 0.23012 0.0
C2372 C 0.87051 0.36211 0.22683 0.0
C2373 C 0.90306 0.36949 0.23296 0.0
C2374 C 0.82203 0.36422 0.21775 0.0
C2375 C 0.78814 0.35669 0.20952 0.0
C2376 C 0.80913 0.34996 0.19678 0.0
C2377 C 0.7776 0.3427 0.18956 0.0
C2378 C 0.72481 0.34213 0.19483 0.0
C2379 C 0.7034 0.34885 0.20726 0.0
C2380 C 0.7348 0.35611 0.21457 0.0
C2381 C 0.84299 0.40686 0.21151 0.0
C2382 C 0.80516 0.41045 0.22426 0.0
C2383 C 0.85033 0.39717 0.20967 0.0
C2384 C 0.82037 0.39091 0.2207 0.0
C2385 C 0.77904 0.39441 0.232 0.0
C2386 C 0.77136 0.40417 0.23376 0.0
C2387 C 0.83797 0.38102 0.22281 0.0
C2388 C 0.80598 0.37368 0.21615 0.0
C2389 C 0.88731 0.37892 0.23113 0.0
C2390 C 0.92256 0.38644 0.23845 0.0
C2391 C 0.90578 0.3926 0.25303 0.0
C2392 C 0.93842 0.39992 0.25926 0.0
C2393 C 0.98815 0.40108 0.25115 0.0
C2394 C 0.00543 0.3949 0.23685 0.0
C2395 C 0.97288 0.38758 0.23054 0.0
H2396 H 0.01333 0.40676 0.25597 0.0
H2397 H 0.7005 0.33649 0.18926 0.0
H2398 H 0.91158 0.32963 0.55241 0.0
H2399 H 0.92345 0.34664 0.55544 0.0
H2400 H 0.78313 0.35127 0.522 0.0
H2401 H 0.77021 0.33417 0.51942 0.0
H2402 H 0.94465 0.35794 0.52761 0.0
H2403 H 0.73223 0.3729 0.53193 0.0
H2404 H 0.64701 0.36875 0.54645 0.0
H2405 H 0.72558 0.3522 0.58936 0.0
H2406 H 0.81126 0.35636 0.57527 0.0
H2407 H 0.93954 0.40566 0.49717 0.0
H2408 H 0.92955 0.38866 0.50237 0.0
H2409 H 0.87419 0.394 0.55999 0.0
H2410 H 0.88066 0.41098 0.5542 0.0
H2411 H 0.81338 0.38226 0.54526 0.0
H2412 H 0.00095 0.38393 0.54848 0.0
H2413 H 0.09002 0.38813 0.53757 0.0
H2414 H 0.06892 0.37137 0.48679 0.0
H2415 H 0.97948 0.36716 0.49728 0.0
C2416 C 0.88263 0.33428 0.54604 0.0
C2417 C 0.84013 0.33061 0.53557 0.0
C2418 C 0.88957 0.34399 0.54773 0.0
C2419 C 0.85443 0.35023 0.53885 0.0
C2420 C 0.81043 0.34659 0.52916 0.0
C2421 C 0.80304 0.33683 0.52769 0.0
C2422 C 0.86653 0.36045 0.53836 0.0
C2423 C 0.91605 0.36326 0.5316 0.0
C2424 C 0.82955 0.36739 0.54379 0.0
C2425 C 0.77814 0.36487 0.5524 0.0
C2426 C 0.73133 0.3684 0.54449 0.0
C2427 C 0.68293 0.36604 0.55265 0.0
C2428 C 0.68087 0.36018 0.56877 0.0
C2429 C 0.72721 0.3567 0.57681 0.0
C2430 C 0.77569 0.35904 0.56873 0.0
C2431 C 0.92637 0.40314 0.51104 0.0
C2432 C 0.91124 0.40953 0.52536 0.0
C2433 C 0.92071 0.39344 0.51405 0.0
C2434 C 0.90157 0.39001 0.53167 0.0
C2435 C 0.88875 0.39645 0.54625 0.0
C2436 C 0.89288 0.40613 0.54303 0.0
C2437 C 0.89164 0.37978 0.53452 0.0
C2438 C 0.8423 0.37695 0.54152 0.0
C2439 C 0.92942 0.37282 0.52989 0.0
C2440 C 0.98338 0.37528 0.52361 0.0
C2441 C 0.01521 0.38118 0.53494 0.0
C2442 C 0.06577 0.38356 0.52883 0.0
C2443 C 0.08508 0.38003 0.51148 0.0
C2444 C 0.05391 0.3741 0.50023 0.0
C2445 C 0.00331 0.3717 0.50626 0.0
H2446 H 0.12421 0.38189 0.50677 0.0
H2447 H 0.64337 0.35837 0.57506 0.0
H2448 H 0.68573 0.08412 0.78951 0.0
H2449 H 0.6667 0.10076 0.79727 0.0
H2450 H 0.54735 0.1013 0.75339 0.0
H2451 H 0.56509 0.08477 0.74595 0.0
H2452 H 0.62307 0.11694 0.7533 0.0
H2453 H 0.4951 0.10091 0.79254 0.0
H2454 H 0.4623 0.08959 0.81655 0.0
H2455 H 0.56698 0.10119 0.85873 0.0
H2456 H 0.59979 0.11271 0.83495 0.0
H2457 H 0.48041 0.15797 0.76808 0.0
H2458 H 0.48807 0.14075 0.76992 0.0
H2459 H 0.61325 0.14352 0.81118 0.0
H2460 H 0.60656 0.16072 0.80912 0.0
H2461 H 0.53653 0.12626 0.81435 0.0
H2462 H 0.65955 0.14333 0.7724 0.0
H2463 H 0.67629 0.15554 0.7479 0.0
H2464 H 0.5703 0.14163 0.70921 0.0
H2465 H 0.5524 0.12942 0.73361 0.0
C2466 C 0.65598 0.08786 0.78142 0.0
C2467 C 0.62695 0.08322 0.76712 0.0
C2468 C 0.64484 0.09729 0.78595 0.0
C2469 C 0.60541 0.10217 0.77595 0.0
C2470 C 0.57775 0.09762 0.76128 0.0
C2471 C 0.58802 0.0882 0.75704 0.0
C2472 C 0.59289 0.11208 0.78046 0.0
C2473 C 0.60422 0.11897 0.76665 0.0
C2474 C 0.56812 0.11468 0.79782 0.0
C2475 C 0.55043 0.10755 0.81193 0.0
C2476 C 0.51157 0.10096 0.80687 0.0
C2477 C 0.4928 0.09454 0.82046 0.0
C2478 C 0.5129 0.0946 0.83913 0.0
C2479 C 0.5516 0.10112 0.84425 0.0
C2480 C 0.57015 0.10763 0.83075 0.0
C2481 C 0.50794 0.1549 0.77815 0.0
C2482 C 0.54329 0.16061 0.7883 0.0
C2483 C 0.51232 0.14508 0.77917 0.0
C2484 C 0.55149 0.14094 0.79057 0.0
C2485 C 0.58272 0.14663 0.80238 0.0
C2486 C 0.579 0.15643 0.80111 0.0
C2487 C 0.56687 0.13106 0.78722 0.0
C2488 C 0.55616 0.12421 0.80117 0.0
C2489 C 0.59165 0.12845 0.76986 0.0
C2490 C 0.60434 0.13551 0.75486 0.0
C2491 C 0.6397 0.1429 0.75868 0.0
C2492 C 0.64941 0.14982 0.74482 0.0
C2493 C 0.62432 0.14937 0.727 0.0
C2494 C 0.58975 0.14197 0.72299 0.0
C2495 C 0.57984 0.13504 0.73683 0.0
H2496 H 0.63169 0.15476 0.71632 0.0
H2497 H 0.49829 0.08962 0.84964 0.0
H2498 H 0.55172 0.15986 0.46537 0.0
H2499 H 0.54099 0.14334 0.45674 0.0
H2500 H 0.70788 0.13903 0.46179 0.0
H2501 H 0.71939 0.15567 0.47064 0.0
H2502 H 0.65545 0.12926 0.42946 0.0
H2503 H 0.64266 0.1335 0.49825 0.0
H2504 H 0.60852 0.14107 0.52758 0.0
H2505 H 0.45178 0.13285 0.51228 0.0
H2506 H 0.48496 0.12537 0.48269 0.0
H2507 H 0.66815 0.08037 0.45114 0.0
H2508 H 0.67407 0.09733 0.44628 0.0
H2509 H 0.50682 0.09987 0.45449 0.0
H2510 H 0.50063 0.08285 0.45986 0.0
H2511 H 0.55615 0.11094 0.4781 0.0
H2512 H 0.56629 0.10574 0.41083 0.0
H2513 H 0.59584 0.09926 0.37982 0.0
H2514 H 0.75195 0.10935 0.3906 0.0
H2515 H 0.72343 0.11586 0.42174 0.0
C2516 C 0.58644 0.15547 0.46449 0.0
C2517 C 0.63644 0.15907 0.46905 0.0
C2518 C 0.58012 0.14603 0.45946 0.0
C2519 C 0.62354 0.13999 0.45886 0.0
C2520 C 0.67393 0.14363 0.46221 0.0
C2521 C 0.68037 0.15312 0.46734 0.0
C2522 C 0.61526 0.12973 0.45657 0.0
C2523 C 0.63436 0.12518 0.44014 0.0
C2524 C 0.58616 0.12456 0.47026 0.0
C2525 C 0.56623 0.12896 0.48816 0.0
C2526 C 0.60087 0.13338 0.50106 0.0
C2527 C 0.5817 0.13764 0.51775 0.0
C2528 C 0.528 0.13746 0.52177 0.0
C2529 C 0.49337 0.133 0.50914 0.0
C2530 C 0.51233 0.12874 0.49241 0.0
C2531 C 0.63236 0.08449 0.45162 0.0
C2532 C 0.58399 0.08026 0.4563 0.0
C2533 C 0.6358 0.09421 0.4486 0.0
C2534 C 0.59092 0.09989 0.45003 0.0
C2535 C 0.54201 0.09561 0.45338 0.0
C2536 C 0.53852 0.08588 0.45644 0.0
C2537 C 0.59632 0.11031 0.45086 0.0
C2538 C 0.5769 0.11494 0.4672 0.0
C2539 C 0.62479 0.11553 0.43698 0.0
C2540 C 0.64275 0.11124 0.41869 0.0
C2541 C 0.60705 0.1065 0.40669 0.0
C2542 C 0.62354 0.10287 0.38904 0.0
C2543 C 0.67566 0.10394 0.38321 0.0
C2544 C 0.71152 0.10857 0.39509 0.0
C2545 C 0.69519 0.11225 0.41273 0.0
H2546 H 0.68834 0.10113 0.36952 0.0
H2547 H 0.51323 0.14077 0.53469 0.0
H2548 H 0.41838 0.90922 0.2413 0.0
H2549 H 0.42751 0.89286 0.23187 0.0
H2550 H 0.26936 0.8929 0.20973 0.0
H2551 H 0.25925 0.90947 0.2196 0.0
H2552 H 0.28875 0.87749 0.23069 0.0
H2553 H 0.37447 0.89291 0.17913 0.0
H2554 H 0.43405 0.90439 0.16386 0.0
H2555 H 0.56645 0.89093 0.19036 0.0
H2556 H 0.50768 0.87948 0.20613 0.0
H2557 H 0.33926 0.83068 0.2045 0.0
H2558 H 0.3223 0.84737 0.19849 0.0
H2559 H 0.46952 0.8546 0.22532 0.0
H2560 H 0.48742 0.83782 0.23102 0.0
H2561 H 0.44577 0.86642 0.19499 0.0
H2562 H 0.35817 0.85385 0.25162 0.0
H2563 H 0.29952 0.84272 0.26841 0.0
H2564 H 0.17116 0.85125 0.23243 0.0
H2565 H 0.22931 0.86234 0.21525 0.0
C2566 C 0.38535 0.90581 0.23437 0.0
C2567 C 0.33806 0.91068 0.23111 0.0
C2568 C 0.3909 0.89645 0.22883 0.0
C2569 C 0.34967 0.89174 0.21961 0.0
C2570 C 0.30189 0.89647 0.21661 0.0
C2571 C 0.29609 0.9059 0.22232 0.0
C2572 C 0.35643 0.88171 0.21428 0.0
C2573 C 0.32224 0.87508 0.22241 0.0
C2574 C 0.40071 0.87858 0.20372 0.0
C2575 C 0.4365 0.88533 0.19389 0.0
C2576 C 0.41626 0.89241 0.18179 0.0
C2577 C 0.44991 0.89892 0.17305 0.0
C2578 C 0.50399 0.89838 0.17614 0.0
C2579 C 0.52454 0.89133 0.18796 0.0
C2580 C 0.49107 0.88482 0.19679 0.0
C2581 C 0.36847 0.83582 0.20885 0.0
C2582 C 0.41422 0.83299 0.21859 0.0
C2583 C 0.35874 0.84534 0.20535 0.0
C2584 C 0.39411 0.85221 0.21183 0.0
C2585 C 0.44166 0.84938 0.22027 0.0
C2586 C 0.45179 0.83981 0.22358 0.0
C2587 C 0.37891 0.86228 0.21187 0.0
C2588 C 0.41154 0.86888 0.20278 0.0
C2589 C 0.33324 0.86541 0.22155 0.0
C2590 C 0.29817 0.85884 0.23203 0.0
C2591 C 0.31751 0.8533 0.24722 0.0
C2592 C 0.28437 0.84701 0.25681 0.0
C2593 C 0.23169 0.84626 0.25145 0.0
C2594 C 0.212 0.85182 0.23653 0.0
C2595 C 0.24501 0.85812 0.22687 0.0
H2596 H 0.20609 0.84138 0.25889 0.0
H2597 H 0.52998 0.90343 0.16936 0.0
H2598 H 0.48316 0.90949 0.53884 0.0
H2599 H 0.48276 0.89234 0.5432 0.0
H2600 H 0.31355 0.89227 0.54092 0.0
H2601 H 0.31335 0.90931 0.53711 0.0
H2602 H 0.34667 0.88012 0.56722 0.0
H2603 H 0.38785 0.8873 0.50109 0.0
H2604 H 0.43851 0.8947 0.47494 0.0
H2605 H 0.57744 0.88019 0.49358 0.0
H2606 H 0.52768 0.8728 0.52 0.0
H2607 H 0.28921 0.83393 0.53106 0.0
H2608 H 0.29823 0.85084 0.53763 0.0
H2609 H 0.46575 0.84749 0.54332 0.0
H2610 H 0.4574 0.8307 0.53676 0.0
H2611 H 0.44012 0.8612 0.51802 0.0
H2612 H 0.39334 0.85242 0.58209 0.0
H2613 H 0.33977 0.84489 0.60727 0.0
H2614 H 0.20808 0.86216 0.59158 0.0
H2615 H 0.26065 0.8697 0.56611 0.0
C2616 C 0.44588 0.90583 0.53944 0.0
C2617 C 0.39836 0.91078 0.53735 0.0
C2618 C 0.44571 0.89604 0.54191 0.0
C2619 C 0.39811 0.89103 0.54211 0.0
C2620 C 0.35071 0.89599 0.5408 0.0
C2621 C 0.35079 0.90575 0.53847 0.0
C2622 C 0.39724 0.88058 0.54244 0.0
C2623 C 0.36689 0.87597 0.55642 0.0
C2624 C 0.42431 0.87517 0.52853 0.0
C2625 C 0.45422 0.87959 0.51264 0.0
C2626 C 0.4293 0.88575 0.49969 0.0
C2627 C 0.45782 0.88993 0.48481 0.0
C2628 C 0.5112 0.88794 0.48263 0.0
C2629 C 0.53612 0.88174 0.49531 0.0
C2630 C 0.50778 0.87755 0.51023 0.0
C2631 C 0.32786 0.83677 0.53397 0.0
C2632 C 0.37259 0.83097 0.53314 0.0
C2633 C 0.33292 0.84642 0.5378 0.0
C2634 C 0.38269 0.85039 0.54096 0.0
C2635 C 0.42705 0.84456 0.54086 0.0
C2636 C 0.42209 0.83495 0.53705 0.0
C2637 C 0.38921 0.86073 0.5427 0.0
C2638 C 0.4205 0.86532 0.52902 0.0
C2639 C 0.3626 0.86609 0.55677 0.0
C2640 C 0.33084 0.86157 0.57207 0.0
C2641 C 0.35283 0.85455 0.5839 0.0
C2642 C 0.32266 0.8503 0.59825 0.0
C2643 C 0.27052 0.85303 0.601 0.0
C2644 C 0.24847 0.86004 0.58943 0.0
C2645 C 0.27845 0.86432 0.57504 0.0
H2646 H 0.24723 0.84973 0.61212 0.0
H2647 H 0.53322 0.89118 0.4711 0.0
H2648 H 0.61068 0.66358 0.31456 0.0
H2649 H 0.62056 0.6466 0.31967 0.0
H2650 H 0.51542 0.6412 0.27237 0.0
H2651 H 0.50397 0.65825 0.26768 0.0
H2652 H 0.51079 0.62724 0.30066 0.0
H2653 H 0.64506 0.64426 0.264 0.0
H2654 H 0.70978 0.65715 0.26122 0.0
H2655 H 0.79311 0.64635 0.31009 0.0
H2656 H 0.7284 0.63347 0.31331 0.0
H2657 H 0.59197 0.58684 0.25497 0.0
H2658 H 0.57408 0.60321 0.26307 0.0
H2659 H 0.69901 0.60275 0.30489 0.0
H2660 H 0.71824 0.58622 0.29633 0.0
H2661 H 0.69646 0.61935 0.28587 0.0
H2662 H 0.57116 0.60168 0.32146 0.0
H2663 H 0.50551 0.58926 0.32705 0.0
H2664 H 0.407 0.60103 0.28315 0.0
H2665 H 0.4719 0.61369 0.27755 0.0
C2666 C 0.58795 0.65875 0.30581 0.0
C2667 C 0.55687 0.66213 0.29065 0.0
C2668 C 0.59382 0.64907 0.30867 0.0
C2669 C 0.56991 0.64268 0.29604 0.0
C2670 C 0.53443 0.64604 0.28219 0.0
C2671 C 0.52776 0.65576 0.27954 0.0
C2672 C 0.58802 0.63277 0.29524 0.0
C2673 C 0.55128 0.62551 0.29739 0.0
C2674 C 0.64132 0.63052 0.29157 0.0
C2675 C 0.68177 0.63794 0.28896 0.0
C2676 C 0.67723 0.64463 0.27413 0.0
C2677 C 0.71383 0.65195 0.27251 0.0
C2678 C 0.75548 0.65258 0.28549 0.0
C2679 C 0.76082 0.64586 0.30005 0.0
C2680 C 0.72423 0.63854 0.30177 0.0
C2681 C 0.61607 0.59024 0.26577 0.0
C2682 C 0.65619 0.58526 0.27517 0.0
C2683 C 0.60551 0.59958 0.2705 0.0
C2684 C 0.63404 0.6041 0.28503 0.0
C2685 C 0.67609 0.59933 0.2938 0.0
C2686 C 0.68723 0.58994 0.28885 0.0
C2687 C 0.61892 0.61379 0.29084 0.0
C2688 C 0.65617 0.62104 0.28954 0.0
C2689 C 0.56626 0.61603 0.29555 0.0
C2690 C 0.52654 0.60857 0.299 0.0
C2691 C 0.53555 0.6016 0.31296 0.0
C2692 C 0.49844 0.59452 0.31614 0.0
C2693 C 0.45233 0.59427 0.3053 0.0
C2694 C 0.44283 0.60121 0.29149 0.0
C2695 C 0.47961 0.60839 0.28839 0.0
H2696 H 0.42398 0.5887 0.30762 0.0
H2697 H 0.78365 0.65827 0.28426 0.0
H2698 H 0.72762 0.65777 0.96976 0.0
H2699 H 0.72697 0.64121 0.95997 0.0
H2700 H 0.55829 0.64211 0.95477 0.0
H2701 H 0.55863 0.65866 0.96401 0.0
H2702 H 0.68549 0.62829 0.98122 0.0
H2703 H 0.51146 0.62487 0.92707 0.0
H2704 H 0.47714 0.63278 0.89813 0.0
H2705 H 0.62922 0.64462 0.88699 0.0
H2706 H 0.66447 0.63679 0.91584 0.0
H2707 H 0.52568 0.58381 0.96936 0.0
H2708 H 0.53568 0.60069 0.9624 0.0
H2709 H 0.70174 0.59672 0.95375 0.0
H2710 H 0.69246 0.57995 0.96056 0.0
H2711 H 0.58295 0.61172 0.93091 0.0
H2712 H 0.76057 0.61395 0.98099 0.0
H2713 H 0.79949 0.60535 0.00833 0.0
H2714 H 0.64644 0.59597 0.02568 0.0
H2715 H 0.60661 0.60462 0.99862 0.0
C2716 C 0.6905 0.65451 0.96609 0.0
C2717 C 0.6431 0.6595 0.96807 0.0
C2718 C 0.6902 0.64504 0.96047 0.0
C2719 C 0.6426 0.6404 0.95667 0.0
C2720 C 0.59561 0.64555 0.95736 0.0
C2721 C 0.59586 0.65501 0.9629 0.0
C2722 C 0.64099 0.62996 0.95508 0.0
C2723 C 0.66412 0.6247 0.96991 0.0
C2724 C 0.61197 0.62523 0.94064 0.0
C2725 C 0.59051 0.63028 0.9237 0.0
C2726 C 0.53757 0.62917 0.91845 0.0
C2727 C 0.51795 0.63364 0.90206 0.0
C2728 C 0.55102 0.63917 0.8907 0.0
C2729 C 0.60365 0.64033 0.89581 0.0
C2730 C 0.62339 0.63592 0.91225 0.0
C2731 C 0.56415 0.5865 0.96566 0.0
C2732 C 0.60839 0.58056 0.96591 0.0
C2733 C 0.56971 0.59612 0.96159 0.0
C2734 C 0.61951 0.59991 0.9578 0.0
C2735 C 0.66308 0.59391 0.95683 0.0
C2736 C 0.65763 0.58433 0.96085 0.0
C2737 C 0.62714 0.61023 0.95703 0.0
C2738 C 0.60492 0.61541 0.94194 0.0
C2739 C 0.6574 0.61492 0.97111 0.0
C2740 C 0.68075 0.60983 0.98765 0.0
C2741 C 0.73525 0.61007 0.99068 0.0
C2742 C 0.75746 0.60519 0.00612 0.0
C2743 C 0.72548 0.60009 0.01869 0.0
C2744 C 0.67119 0.59989 0.01589 0.0
C2745 C 0.64879 0.60477 1.00049 0.0
H2746 H 0.74275 0.5963 0.03062 0.0
H2747 H 0.5358 0.6426 0.87798 0.0
H2748 H 0.37543 0.40511 0.74819 0.0
H2749 H 0.38267 0.38867 0.73843 0.0
H2750 H 0.25766 0.39261 0.69744 0.0
H2751 H 0.24936 0.40925 0.70761 0.0
H2752 H 0.25813 0.37446 0.71777 0.0
H2753 H 0.37289 0.39301 0.67846 0.0
H2754 H 0.43516 0.40613 0.67382 0.0
H2755 H 0.54379 0.39298 0.7126 0.0
H2756 H 0.48216 0.37976 0.71746 0.0
H2757 H 0.34766 0.32872 0.69748 0.0
H2758 H 0.32603 0.34491 0.68819 0.0
H2759 H 0.44968 0.35529 0.72491 0.0
H2760 H 0.47319 0.3391 0.7334 0.0
H2761 H 0.4384 0.36672 0.69565 0.0
H2762 H 0.31735 0.35085 0.74049 0.0
H2763 H 0.25472 0.33811 0.7482 0.0
H2764 H 0.15723 0.3465 0.70089 0.0
H2765 H 0.21956 0.35924 0.69284 0.0
C2766 C 0.34875 0.40244 0.73736 0.0
C2767 C 0.31221 0.40842 0.72849 0.0
C2768 C 0.35303 0.39307 0.73176 0.0
C2769 C 0.32164 0.38953 0.71689 0.0
C2770 C 0.2825 0.39528 0.70883 0.0
C2771 C 0.27768 0.40472 0.71467 0.0
C2772 C 0.33322 0.38002 0.70933 0.0
C2773 C 0.29691 0.37276 0.71235 0.0
C2774 C 0.38394 0.37785 0.70233 0.0
C2775 C 0.42283 0.38541 0.69835 0.0
C2776 C 0.41012 0.39291 0.68596 0.0
C2777 C 0.44521 0.40039 0.68336 0.0
C2778 C 0.49309 0.40045 0.69313 0.0
C2779 C 0.50649 0.39295 0.70517 0.0
C2780 C 0.47165 0.38543 0.70775 0.0
C2781 C 0.37118 0.33447 0.70309 0.0
C2782 C 0.4116 0.33272 0.71637 0.0
C2783 C 0.35867 0.3437 0.69782 0.0
C2784 C 0.38512 0.35132 0.70631 0.0
C2785 C 0.42847 0.34953 0.71826 0.0
C2786 C 0.4419 0.34028 0.72314 0.0
C2787 C 0.36415 0.36106 0.70497 0.0
C2788 C 0.39882 0.36839 0.70027 0.0
C2789 C 0.31191 0.36327 0.71049 0.0
C2790 C 0.2734 0.3559 0.7159 0.0
C2791 C 0.28255 0.34997 0.73174 0.0
C2792 C 0.24716 0.34274 0.73615 0.0
C2793 C 0.20214 0.34147 0.72499 0.0
C2794 C 0.19219 0.34747 0.70949 0.0
C2795 C 0.2275 0.3547 0.705 0.0
H2796 H 0.1749 0.33585 0.72837 0.0
H2797 H 0.52017 0.40625 0.69118 0.0
H2798 H 0.47233 0.40803 0.02763 0.0
H2799 H 0.46756 0.39089 0.03256 0.0
H2800 H 0.30161 0.39152 0.0201 0.0
H2801 H 0.30568 0.40852 0.01593 0.0
H2802 H 0.31689 0.38058 0.04899 0.0
H2803 H 0.39694 0.38421 0.98663 0.0
H2804 H 0.46328 0.38992 0.96361 0.0
H2805 H 0.58429 0.37559 0.99508 0.0
H2806 H 0.5187 0.36988 0.01842 0.0
H2807 H 0.27329 0.33261 0.01898 0.0
H2808 H 0.28072 0.34981 0.02207 0.0
H2809 H 0.43879 0.34675 0.04331 0.0
H2810 H 0.43194 0.3297 0.0404 0.0
H2811 H 0.43178 0.35877 0.01249 0.0
H2812 H 0.34578 0.35375 0.07295 0.0
H2813 H 0.27634 0.34792 0.09454 0.0
H2814 H 0.16219 0.36474 0.06476 0.0
H2815 H 0.23081 0.37056 0.04278 0.0
C2816 C 0.43496 0.40448 0.02594 0.0
C2817 C 0.38944 0.40961 0.02141 0.0
C2818 C 0.43224 0.3947 0.02872 0.0
C2819 C 0.38424 0.38991 0.02655 0.0
C2820 C 0.33897 0.39506 0.022 0.0
C2821 C 0.34146 0.40479 0.01955 0.0
C2822 C 0.38056 0.37953 0.0287 0.0
C2823 C 0.34175 0.37581 0.04089 0.0
C2824 C 0.4136 0.3733 0.01841 0.0
C2825 C 0.45303 0.37671 0.00438 0.0
C2826 C 0.43776 0.38234 0.98871 0.0
C2827 C 0.4752 0.38556 0.9756 0.0
C2828 C 0.52799 0.38314 0.97791 0.0
C2829 C 0.54341 0.37747 0.99332 0.0
C2830 C 0.50612 0.37423 0.00649 0.0
C2831 C 0.30926 0.3356 0.02462 0.0
C2832 C 0.3522 0.32978 0.02919 0.0
C2833 C 0.31342 0.34541 0.0264 0.0
C2834 C 0.36041 0.34951 0.03285 0.0
C2835 C 0.40235 0.34371 0.03821 0.0
C2836 C 0.39825 0.33395 0.03649 0.0
C2837 C 0.36768 0.35985 0.03254 0.0
C2838 C 0.40721 0.36355 0.0207 0.0
C2839 C 0.33477 0.36604 0.04291 0.0
C2840 C 0.29339 0.36252 0.05608 0.0
C2841 C 0.30579 0.35614 0.07087 0.0
C2842 C 0.26658 0.35285 0.08321 0.0
C2843 C 0.21486 0.35593 0.08099 0.0
C2844 C 0.20226 0.36234 0.06645 0.0
C2845 C 0.2413 0.36564 0.05405 0.0
H2846 H 0.18458 0.35338 0.09057 0.0
H2847 H 0.55692 0.38565 0.96774 0.0
H2848 H 0.07268 0.07157 0.32327 0.0
H2849 H 0.01842 0.07341 0.35194 0.0
H2850 H 0.88591 0.06179 0.32142 0.0
H2851 H 0.93997 0.06035 0.29232 0.0
H2852 H 0.85317 0.07445 0.3473 0.0
H2853 H 0.96871 0.0476 0.34745 0.0
H2854 H 0.05384 0.0394 0.34504 0.0
H2855 H 0.11187 0.05515 0.39324 0.0
H2856 H 0.02724 0.06355 0.39576 0.0
H2857 H 0.71622 0.04872 0.41562 0.0
H2858 H 0.77664 0.05271 0.38992 0.0
H2859 H 0.87187 0.0686 0.42958 0.0
H2860 H 0.81062 0.06465 0.45578 0.0
H2861 H 0.92752 0.05613 0.4017 0.0
H2862 H 0.79837 0.08075 0.4038 0.0
H2863 H 0.70667 0.0861 0.40666 0.0
H2864 H 0.66878 0.07245 0.3534 0.0
H2865 H 0.75986 0.06674 0.35053 0.0
C2866 C 0.03156 0.06965 0.32258 0.0
C2867 C 0.0104 0.06571 0.30579 0.0
C2868 C 0.00067 0.07067 0.33896 0.0
C2869 C 0.94857 0.06747 0.33901 0.0
C2870 C 0.92616 0.06425 0.32174 0.0
C2871 C 0.95693 0.06342 0.30515 0.0
C2872 C 0.91969 0.06648 0.35742 0.0
C2873 C 0.86948 0.07046 0.35919 0.0
C2874 C 0.94111 0.06134 0.37306 0.0
C2875 C 0.99192 0.05628 0.37164 0.0
C2876 C -0.00023 0.04936 0.35744 0.0
C2877 C 0.0479 0.04467 0.35607 0.0
C2878 C 0.0883 0.04678 0.36894 0.0
C2879 C 0.08058 0.05355 0.38325 0.0
C2880 C 0.03255 0.05827 0.38466 0.0
C2881 C 0.75016 0.05301 0.41903 0.0
C2882 C 0.7584 0.05646 0.43772 0.0
C2883 C 0.78462 0.05528 0.40428 0.0
C2884 C 0.82807 0.06107 0.40782 0.0
C2885 C 0.8382 0.06417 0.42662 0.0
C2886 C 0.80334 0.0619 0.44152 0.0
C2887 C 0.8612 0.06403 0.39146 0.0
C2888 C 0.91199 0.06036 0.39002 0.0
C2889 C 0.83989 0.06929 0.37603 0.0
C2890 C 0.78598 0.07327 0.37702 0.0
C2891 C 0.77047 0.07886 0.39272 0.0
C2892 C 0.71854 0.08192 0.39438 0.0
C2893 C 0.68189 0.07958 0.38025 0.0
C2894 C 0.69721 0.07424 0.36435 0.0
C2895 C 0.749 0.07108 0.36271 0.0
H2896 H 0.64164 0.08192 0.38159 0.0
H2897 H 0.12553 0.04314 0.36786 0.0
H2898 H 0.30965 0.19077 0.30449 0.0
H2899 H 0.35938 0.18877 0.33432 0.0
H2900 H 0.26478 0.1645 0.34873 0.0
H2901 H 0.21463 0.16664 0.31897 0.0
H2902 H 0.26685 0.1765 0.37784 0.0
H2903 H 0.39603 0.1621 0.33864 0.0
H2904 H 0.45522 0.16027 0.31092 0.0
H2905 H 0.53727 0.18554 0.32703 0.0
H2906 H 0.47805 0.18761 0.3547 0.0
H2907 H 0.43279 0.17205 0.46353 0.0
H2908 H 0.38097 0.16889 0.43432 0.0
H2909 H 0.44853 0.19348 0.4074 0.0
H2910 H 0.49992 0.19659 0.43613 0.0
H2911 H 0.46016 0.17785 0.38533 0.0
H2912 H 0.32125 0.1931 0.42185 0.0
H2913 H 0.26117 0.19475 0.44939 0.0
H2914 H 0.19801 0.16718 0.43822 0.0
H2915 H 0.25823 0.16532 0.41073 0.0
C2916 C 0.30099 0.18481 0.31371 0.0
C2917 C 0.25929 0.17873 0.30937 0.0
C2918 C 0.32916 0.18368 0.3308 0.0
C2919 C 0.31601 0.17645 0.3438 0.0
C2920 C 0.27568 0.17012 0.33897 0.0
C2921 C 0.24744 0.17128 0.32191 0.0
C2922 C 0.34122 0.17609 0.36307 0.0
C2923 C 0.30918 0.17658 0.37949 0.0
C2924 C 0.39638 0.17627 0.3653 0.0
C2925 C 0.43235 0.17504 0.34871 0.0
C2926 C 0.42646 0.16731 0.33621 0.0
C2927 C 0.46006 0.16622 0.32051 0.0
C2928 C 0.49994 0.17279 0.3172 0.0
C2929 C 0.50636 0.18046 0.32961 0.0
C2930 C 0.47283 0.18158 0.34533 0.0
C2931 C 0.43527 0.1769 0.45154 0.0
C2932 C 0.47042 0.18455 0.45205 0.0
C2933 C 0.40602 0.17506 0.43483 0.0
C2934 C 0.41143 0.18089 0.41857 0.0
C2935 C 0.44423 0.18881 0.41963 0.0
C2936 C 0.47334 0.19061 0.43613 0.0
C2937 C 0.38579 0.17862 0.39995 0.0
C2938 C 0.41785 0.1776 0.38366 0.0
C2939 C 0.33075 0.1779 0.39788 0.0
C2940 C 0.29469 0.17902 0.41441 0.0
C2941 C 0.2949 0.18735 0.42538 0.0
C2942 C 0.26074 0.18834 0.44095 0.0
C2943 C 0.22592 0.18107 0.4456 0.0
C2944 C 0.22508 0.1728 0.43464 0.0
C2945 C 0.25919 0.17178 0.41906 0.0
H2946 H 0.1995 0.18184 0.45766 0.0
H2947 H 0.52592 0.17194 0.30503 0.0
H2948 H 0.80063 0.18078 0.8001 0.0
H2949 H 0.85463 0.17847 0.82901 0.0
H2950 H 0.7142 0.17444 0.86271 0.0
H2951 H 0.66081 0.17709 0.83424 0.0
H2952 H 0.77191 0.18668 0.87949 0.0
H2953 H 0.80375 0.15612 0.85254 0.0
H2954 H 0.8299 0.14468 0.82764 0.0
H2955 H 0.9849 0.15655 0.8264 0.0
H2956 H 0.95949 0.16816 0.8511 0.0
H2957 H 0.91933 0.17769 0.96578 0.0
H2958 H 0.85871 0.17498 0.93875 0.0
H2959 H 0.98329 0.18125 0.89881 0.0
H2960 H 0.0432 0.18386 0.92526 0.0
H2961 H 0.92834 0.16621 0.88696 0.0
H2962 H 0.89235 0.1978 0.91081 0.0
H2963 H 0.86626 0.20942 0.9354 0.0
H2964 H 0.71813 0.19536 0.94225 0.0
H2965 H 0.74366 0.18359 0.91785 0.0
C2966 C 0.78165 0.17922 0.81364 0.0
C2967 C 0.72674 0.1792 0.81504 0.0
C2968 C 0.81238 0.17789 0.83015 0.0
C2969 C 0.78847 0.17629 0.84812 0.0
C2970 C 0.73362 0.17575 0.84913 0.0
C2971 C 0.70315 0.17725 0.83283 0.0
C2972 C 0.81974 0.17596 0.86615 0.0
C2973 C 0.80549 0.18205 0.88121 0.0
C2974 C 0.86411 0.17005 0.86839 0.0
C2975 C 0.87956 0.16306 0.85356 0.0
C2976 C 0.8433 0.15634 0.84685 0.0
C2977 C 0.85801 0.14981 0.83279 0.0
C2978 C 0.90899 0.1499 0.82541 0.0
C2979 C 0.94541 0.1565 0.83211 0.0
C2980 C 0.93089 0.16304 0.84616 0.0
C2981 C 0.93359 0.17844 0.95122 0.0
C2982 C 0.98591 0.18106 0.9477 0.0
C2983 C 0.89905 0.1769 0.93581 0.0
C2984 C 0.91653 0.17794 0.91674 0.0
C2985 C 0.96895 0.18036 0.91334 0.0
C2986 C 0.0031 0.18192 0.92858 0.0
C2987 C 0.88058 0.17697 0.90009 0.0
C2988 C 0.89409 0.17068 0.88528 0.0
C2989 C 0.83546 0.18268 0.89805 0.0
C2990 C 0.82017 0.18975 0.9127 0.0
C2991 C 0.8544 0.19714 0.91768 0.0
C2992 C 0.83969 0.20376 0.93156 0.0
C2993 C 0.79064 0.20311 0.94044 0.0
C2994 C 0.75615 0.19584 0.93541 0.0
C2995 C 0.77071 0.1892 0.92155 0.0
H2996 H 0.77931 0.20824 0.95117 0.0
H2997 H 0.92031 0.14484 0.81453 0.0
H2998 H 0.26576 0.04134 0.92809 0.0
H2999 H 0.31418 0.04409 0.89865 0.0
H3000 H 0.37834 0.06977 0.92238 0.0
H3001 H 0.32855 0.06703 0.95227 0.0
H3002 H 0.33922 0.07272 0.88678 0.0
H3003 H 0.45947 0.05145 0.91352 0.0
H3004 H 0.49241 0.03741 0.93061 0.0
H3005 H 0.42938 0.01946 0.88663 0.0
H3006 H 0.39531 0.03337 0.86939 0.0
H3007 H 0.50701 0.07299 0.80249 0.0
H3008 H 0.46504 0.07401 0.83398 0.0
H3009 H 0.37307 0.04929 0.82086 0.0
H3010 H 0.41575 0.04819 0.78932 0.0
H3011 H 0.43824 0.04755 0.85302 0.0
H3012 H 0.31406 0.07056 0.82785 0.0
H3013 H 0.29136 0.08543 0.81141 0.0
H3014 H 0.37705 0.10118 0.85374 0.0
H3015 H 0.40074 0.08639 0.87032 0.0
C3016 C 0.29105 0.04748 0.92724 0.0
C3017 C 0.29362 0.05396 0.94244 0.0
C3018 C 0.31889 0.04903 0.9104 0.0
C3019 C 0.35024 0.0571 0.90831 0.0
C3020 C 0.35449 0.06348 0.92374 0.0
C3021 C 0.3266 0.06187 0.94083 0.0
C3022 C 0.3749 0.05898 0.88939 0.0
C3023 C 0.36185 0.06731 0.87952 0.0
C3024 C 0.40437 0.05192 0.87989 0.0
C3025 C 0.42452 0.04347 0.89021 0.0
C3026 C 0.45222 0.0445 0.90756 0.0
C3027 C 0.47118 0.03657 0.91726 0.0
C3028 C 0.46292 0.02755 0.90972 0.0
C3029 C 0.43574 0.02645 0.89245 0.0
C3030 C 0.41666 0.03436 0.88269 0.0
C3031 C 0.47573 0.06809 0.80595 0.0
C3032 C 0.46362 0.06063 0.79343 0.0
C3033 C 0.45203 0.06865 0.82397 0.0
C3034 C 0.41592 0.06175 0.82973 0.0
C3035 C 0.40071 0.05471 0.81661 0.0
C3036 C 0.42443 0.05416 0.79852 0.0
C3037 C 0.40033 0.06106 0.85017 0.0
C3038 C 0.41579 0.05298 0.86034 0.0
C3039 C 0.37461 0.06847 0.86002 0.0
C3040 C 0.35952 0.07736 0.85023 0.0
C3041 C 0.32833 0.07719 0.83358 0.0
C3042 C 0.31522 0.08561 0.82426 0.0
C3043 C 0.33285 0.09425 0.8315 0.0
C3044 C 0.36341 0.09449 0.84815 0.0
C3045 C 0.3766 0.08609 0.85753 0.0
H3046 H 0.32274 0.10075 0.82424 0.0
H3047 H 0.47766 0.02141 0.91725 0.0
H3048 H 0.16084 0.94058 0.55465 0.0
H3049 H 0.10824 0.93927 0.58416 0.0
H3050 H 0.22446 0.92068 0.60856 0.0
H3051 H 0.27721 0.92211 0.57936 0.0
H3052 H 0.11677 0.91638 0.6199 0.0
H3053 H 0.24179 0.94222 0.61686 0.0
H3054 H 0.2814 0.95621 0.60154 0.0
H3055 H 0.133 0.97054 0.6036 0.0
H3056 H 0.0923 0.95656 0.61862 0.0
H3057 H 0.05218 0.92549 0.71861 0.0
H3058 H 0.10514 0.92341 0.6893 0.0
H3059 H 0.0203 0.9462 0.66228 0.0
H3060 H 0.96939 0.94846 0.69129 0.0
H3061 H 0.11691 0.94748 0.65274 0.0
H3062 H 0.99025 0.92217 0.65599 0.0
H3063 H 0.94791 0.90823 0.67056 0.0
H3064 H 0.09312 0.89295 0.66739 0.0
H3065 H 0.13666 0.90686 0.65318 0.0
C3066 C 0.17388 0.93592 0.56602 0.0
C3067 C 0.22279 0.93143 0.56483 0.0
C3068 C 0.14409 0.93521 0.58289 0.0
C3069 C 0.16277 0.92993 0.5986 0.0
C3070 C 0.20925 0.92475 0.59663 0.0
C3071 C 0.23933 0.92558 0.57996 0.0
C3072 C 0.13892 0.93102 0.61791 0.0
C3073 C 0.11694 0.92315 0.62719 0.0
C3074 C 0.13928 0.93985 0.62737 0.0
C3075 C 0.16391 0.94832 0.61867 0.0
C3076 C 0.21754 0.94833 0.61391 0.0
C3077 C 0.24019 0.95626 0.6053 0.0
C3078 C 0.20971 0.96426 0.60156 0.0
C3079 C 0.15654 0.96434 0.60648 0.0
C3080 C 0.13367 0.95642 0.61504 0.0
C3081 C 0.04601 0.93019 0.70655 0.0
C3082 C 0.00655 0.93711 0.7072 0.0
C3083 C 0.07572 0.92892 0.68973 0.0
C3084 C 0.06604 0.93454 0.6734 0.0
C3085 C 0.02854 0.94175 0.67457 0.0
C3086 C 0.9993 0.94302 0.69122 0.0
C3087 C 0.09309 0.9329 0.65474 0.0
C3088 C 0.11638 0.94068 0.64557 0.0
C3089 C 0.09321 0.924 0.64537 0.0
C3090 C 0.06691 0.9156 0.65374 0.0
C3091 C 0.01328 0.91586 0.65855 0.0
C3092 C 0.98905 0.90797 0.66673 0.0
C3093 C 0.01786 0.89972 0.66995 0.0
C3094 C 0.07091 0.89935 0.66494 0.0
C3095 C 0.0954 0.90724 0.65683 0.0
H3096 H 0.99907 0.89362 0.67629 0.0
H3097 H 0.22731 0.97039 0.59489 0.0
H3098 H 0.72736 0.82279 0.70165 0.0
H3099 H 0.67973 0.8243 0.67107 0.0
H3100 H 0.69319 0.79423 0.66229 0.0
H3101 H 0.7417 0.7928 0.69236 0.0
H3102 H 0.7318 0.80343 0.63269 0.0
H3103 H 0.57393 0.80535 0.67077 0.0
H3104 H 0.51589 0.81189 0.69578 0.0
H3105 H 0.517 0.83882 0.66747 0.0
H3106 H 0.57565 0.83246 0.64241 0.0
H3107 H 0.55375 0.79179 0.55881 0.0
H3108 H 0.60539 0.79417 0.58802 0.0
H3109 H 0.59268 0.82435 0.58097 0.0
H3110 H 0.54149 0.82193 0.55138 0.0
H3111 H 0.55961 0.81784 0.61722 0.0
H3112 H 0.70983 0.81502 0.577 0.0
H3113 H 0.76605 0.80808 0.55191 0.0
H3114 H 0.77805 0.7824 0.58437 0.0
H3115 H 0.72125 0.78913 0.60955 0.0
C3116 C 0.71806 0.81649 0.69351 0.0
C3117 C 0.73743 0.80766 0.69936 0.0
C3118 C 0.69128 0.81735 0.67598 0.0
C3119 C 0.68327 0.80938 0.66427 0.0
C3120 C 0.69929 0.80049 0.67096 0.0
C3121 C 0.72643 0.79965 0.68824 0.0
C3122 C 0.66319 0.81027 0.64428 0.0
C3123 C 0.69389 0.80651 0.62936 0.0
C3124 C 0.61479 0.81463 0.63978 0.0
C3125 C 0.57972 0.81846 0.65486 0.0
C3126 C 0.56222 0.81269 0.66998 0.0
C3127 C 0.52911 0.81636 0.68414 0.0
C3128 C 0.51292 0.82577 0.68325 0.0
C3129 C 0.52967 0.83153 0.66816 0.0
C3130 C 0.56282 0.8279 0.65398 0.0
C3131 C 0.56394 0.79892 0.56308 0.0
C3132 C 0.54504 0.80668 0.55268 0.0
C3133 C 0.59306 0.80028 0.57983 0.0
C3134 C 0.60297 0.80944 0.58666 0.0
C3135 C 0.58566 0.81723 0.57589 0.0
C3136 C 0.55713 0.81585 0.5589 0.0
C3137 C 0.62747 0.81069 0.60583 0.0
C3138 C 0.59781 0.81488 0.62056 0.0
C3139 C 0.67674 0.80666 0.61023 0.0
C3140 C 0.71096 0.80257 0.59512 0.0
C3141 C 0.72409 0.80787 0.57873 0.0
C3142 C 0.75615 0.80397 0.5645 0.0
C3143 C 0.77554 0.7948 0.56653 0.0
C3144 C 0.76299 0.78951 0.58282 0.0
C3145 C 0.73092 0.79336 0.59709 0.0
H3146 H 0.80036 0.7918 0.5555 0.0
H3147 H 0.48726 0.8286 0.69422 0.0
H3148 H 0.18636 0.80388 0.21084 0.0
H3149 H 0.12597 0.80466 0.18322 0.0
H3150 H 0.25227 0.81469 0.1474 0.0
H3151 H 0.31222 0.81384 0.17463 0.0
H3152 H 0.15666 0.82358 0.13925 0.0
H3153 H 0.22811 0.79212 0.14786 0.0
H3154 H 0.24576 0.77758 0.16625 0.0
H3155 H 0.08026 0.77314 0.17358 0.0
H3156 H 0.06168 0.78774 0.15546 0.0
H3157 H 0.0601 0.811 0.04575 0.0
H3158 H 0.11646 0.81265 0.0743 0.0
H3159 H 0.99746 0.79921 0.10887 0.0
H3160 H 0.94233 0.79739 0.0808 0.0
H3161 H 0.08885 0.79244 0.11806 0.0
H3162 H 0.01534 0.82329 0.10862 0.0
H3163 H 0.99572 0.83785 0.09058 0.0
H3164 H 0.16048 0.84369 0.08547 0.0
H3165 H 0.18113 0.82906 0.1032 0.0
C3166 C 0.20069 0.80644 0.19715 0.0
C3167 C 0.25391 0.80869 0.19475 0.0
C3168 C 0.16638 0.80685 0.18141 0.0
C3169 C 0.18489 0.80965 0.16323 0.0
C3170 C 0.23718 0.81251 0.16125 0.0
C3171 C 0.27142 0.81196 0.1768 0.0
C3172 C 0.15186 0.80874 0.14579 0.0
C3173 C 0.14194 0.81678 0.13454 0.0
C3174 C 0.13241 0.79988 0.13974 0.0
C3175 C 0.14354 0.79107 0.1505 0.0
C3176 C 0.19551 0.78808 0.15353 0.0
C3177 C 0.20568 0.77983 0.16388 0.0
C3178 C 0.16416 0.77446 0.17113 0.0
C3179 C 0.11238 0.77732 0.16799 0.0
C3180 C 0.10201 0.78558 0.15768 0.0
C3181 C 0.04639 0.80834 0.05943 0.0
C3182 C 0.99674 0.80409 0.06099 0.0
C3183 C 0.07835 0.80934 0.07574 0.0
C3184 C 0.06092 0.80613 0.0938 0.0
C3185 C 0.01187 0.80173 0.09516 0.0
C3186 C 0.98026 0.80073 0.07902 0.0
C3187 C 0.09298 0.8073 0.11148 0.0
C3188 C 0.10309 0.79928 0.12276 0.0
C3189 C 0.11209 0.8162 0.11759 0.0
C3190 C 0.0998 0.82502 0.10704 0.0
C3191 C 0.04741 0.82764 0.10351 0.0
C3192 C 0.03609 0.83591 0.09336 0.0
C3193 C 0.07683 0.84168 0.08684 0.0
C3194 C 0.12897 0.8392 0.0905 0.0
C3195 C 0.1405 0.83092 0.1006 0.0
H3196 H 0.06799 0.84808 0.07899 0.0
H3197 H 0.17211 0.76807 0.17914 0.0
H3198 H 0.7893 0.94343 0.0891 0.0
H3199 H 0.73272 0.94073 0.11652 0.0
H3200 H 0.6272 0.92446 0.08121 0.0
H3201 H 0.68477 0.92711 0.0532 0.0
H3202 H 0.57765 0.93763 0.10793 0.0
H3203 H 0.70184 0.91277 0.10775 0.0
H3204 H 0.7903 0.90598 0.10451 0.0
H3205 H 0.84037 0.92083 0.15503 0.0
H3206 H 0.75268 0.92803 0.15814 0.0
H3207 H 0.44337 0.92397 0.19056 0.0
H3208 H 0.4966 0.92157 0.16187 0.0
H3209 H 0.62436 0.93675 0.18828 0.0
H3210 H 0.57095 0.93902 0.21744 0.0
H3211 H 0.65856 0.92187 0.16436 0.0
H3212 H 0.53973 0.94848 0.16094 0.0
H3213 H 0.45303 0.95615 0.16315 0.0
H3214 H 0.39373 0.93785 0.11903 0.0
H3215 H 0.47995 0.92999 0.11677 0.0
C3216 C 0.75396 0.93931 0.08698 0.0
C3217 C 0.74182 0.93539 0.06895 0.0
C3218 C 0.72168 0.93777 0.10276 0.0
C3219 C 0.67636 0.93226 0.10099 0.0
C3220 C 0.66235 0.92869 0.08285 0.0
C3221 C 0.69509 0.93021 0.0669 0.0
C3222 C 0.64523 0.93017 0.11847 0.0
C3223 C 0.59477 0.93398 0.12011 0.0
C3224 C 0.6682 0.92557 0.13449 0.0
C3225 C 0.72062 0.92101 0.1331 0.0
C3226 C 0.73177 0.91466 0.1181 0.0
C3227 C 0.78184 0.91074 0.11627 0.0
C3228 C 0.82093 0.91295 0.12958 0.0
C3229 C 0.81002 0.91911 0.14473 0.0
C3230 C 0.76014 0.92314 0.14651 0.0
C3231 C 0.48335 0.92658 0.19044 0.0
C3232 C 0.50306 0.93176 0.20607 0.0
C3233 C 0.51364 0.92522 0.17402 0.0
C3234 C 0.56396 0.92917 0.17275 0.0
C3235 C 0.58546 0.93369 0.18895 0.0
C3236 C 0.55513 0.93496 0.20559 0.0
C3237 C 0.59125 0.92947 0.1539 0.0
C3238 C 0.64106 0.92536 0.15206 0.0
C3239 C 0.5677 0.93378 0.13765 0.0
C3240 C 0.51609 0.93859 0.13882 0.0
C3241 C 0.50809 0.94606 0.1518 0.0
C3242 C 0.45906 0.95044 0.15306 0.0
C3243 C 0.41785 0.94747 0.14128 0.0
C3244 C 0.42566 0.94013 0.12817 0.0
C3245 C 0.4746 0.93572 0.12689 0.0
H3246 H 0.37991 0.95087 0.14227 0.0
H3247 H 0.85965 0.9099 0.12816 0.0
H3248 H 0.08826 0.56661 0.82736 0.0
H3249 H 0.03563 0.5683 0.85637 0.0
H3250 H 0.89776 0.55958 0.82507 0.0
H3251 H 0.95055 0.55821 0.79558 0.0
H3252 H 0.87356 0.57282 0.85184 0.0
H3253 H 0.97079 0.54362 0.85087 0.0
H3254 H 0.05049 0.53384 0.84808 0.0
H3255 H 0.11779 0.54795 0.89677 0.0
H3256 H 0.03872 0.55791 0.89968 0.0
H3257 H 0.72145 0.55064 0.92117 0.0
H3258 H 0.78048 0.55401 0.89481 0.0
H3259 H 0.89423 0.56536 0.9344 0.0
H3260 H 0.83424 0.56202 0.96139 0.0
H3261 H 0.93571 0.55273 0.90567 0.0
H3262 H 0.83045 0.58044 0.90899 0.0
H3263 H 0.74775 0.58935 0.91195 0.0
H3264 H 0.69289 0.57744 0.85895 0.0
H3265 H 0.77485 0.5683 0.85585 0.0
C3266 C 0.0465 0.56522 0.82657 0.0
C3267 C 0.02346 0.56217 0.80932 0.0
C3268 C 0.01652 0.56615 0.84318 0.0
C3269 C 0.96306 0.56381 0.84305 0.0
C3270 C 0.93909 0.56136 0.82553 0.0
C3271 C 0.96912 0.56058 0.8087 0.0
C3272 C 0.93359 0.56322 0.86144 0.0
C3273 C 0.88698 0.56839 0.86355 0.0
C3274 C 0.95178 0.55762 0.87697 0.0
C3275 C 0.9991 0.55157 0.87537 0.0
C3276 C 0.00273 0.54468 0.8609 0.0
C3277 C 0.04777 0.53909 0.85931 0.0
C3278 C 0.08924 0.54029 0.87221 0.0
C3279 C 0.08568 0.54704 0.88677 0.0
C3280 C 0.04075 0.55265 0.8884 0.0
C3281 C 0.75899 0.55384 0.92445 0.0
C3282 C 0.77301 0.55611 0.94345 0.0
C3283 C 0.79263 0.5558 0.90927 0.0
C3284 C 0.84126 0.56008 0.9126 0.0
C3285 C 0.85653 0.56212 0.93156 0.0
C3286 C 0.82239 0.56019 0.94693 0.0
C3287 C 0.8755 0.56223 0.89596 0.0
C3288 C 0.92287 0.55731 0.8941 0.0
C3289 C 0.85779 0.56801 0.88066 0.0
C3290 C 0.80879 0.57364 0.88224 0.0
C3291 C 0.80065 0.57967 0.89802 0.0
C3292 C 0.75389 0.58477 0.89972 0.0
C3293 C 0.71508 0.58396 0.88565 0.0
C3294 C 0.72301 0.57806 0.86983 0.0
C3295 C 0.76965 0.57293 0.86808 0.0
H3296 H 0.67889 0.5879 0.887 0.0
H3297 H 0.12408 0.53596 0.87095 0.0
H3298 H 0.18582 0.67208 0.82503 0.0
H3299 H 0.23575 0.66964 0.85453 0.0
H3300 H 0.36688 0.68466 0.82993 0.0
H3301 H 0.31727 0.68674 0.7999 0.0
H3302 H 0.40078 0.67095 0.854 0.0
H3303 H 0.27419 0.69616 0.85679 0.0
H3304 H 0.18613 0.70323 0.85377 0.0
H3305 H 0.12712 0.68423 0.89668 0.0
H3306 H 0.21475 0.67695 0.89974 0.0
H3307 H 0.51551 0.69309 0.9324 0.0
H3308 H 0.46202 0.69041 0.90408 0.0
H3309 H 0.36194 0.67167 0.93628 0.0
H3310 H 0.41626 0.67427 0.96512 0.0
H3311 H 0.30928 0.68512 0.90999 0.0
H3312 H 0.44503 0.6619 0.91039 0.0
H3313 H 0.53695 0.65695 0.91461 0.0
H3314 H 0.58209 0.67343 0.86558 0.0
H3315 H 0.49076 0.67883 0.86157 0.0
C3316 C 0.22593 0.6746 0.82574 0.0
C3317 C 0.24782 0.67962 0.81032 0.0
C3318 C 0.25429 0.67326 0.84263 0.0
C3319 C 0.30449 0.6772 0.84467 0.0
C3320 C 0.32805 0.6816 0.82872 0.0
C3321 C 0.29987 0.68278 0.81157 0.0
C3322 C 0.32972 0.67758 0.86392 0.0
C3323 C 0.38083 0.67407 0.86621 0.0
C3324 C 0.3034 0.68152 0.88 0.0
C3325 C 0.25085 0.68595 0.87834 0.0
C3326 C 0.24234 0.69345 0.86549 0.0
C3327 C 0.19253 0.6975 0.86378 0.0
C3328 C 0.15102 0.69416 0.87499 0.0
C3329 C 0.15929 0.68679 0.88798 0.0
C3330 C 0.20902 0.68271 0.88971 0.0
C3331 C 0.4819 0.68844 0.93363 0.0
C3332 C 0.47044 0.68381 0.951 0.0
C3333 C 0.4514 0.68693 0.91737 0.0
C3334 C 0.40868 0.68073 0.91802 0.0
C3335 C 0.39509 0.67644 0.93553 0.0
C3336 C 0.42599 0.67794 0.95196 0.0
C3337 C 0.38025 0.67856 0.89999 0.0
C3338 C 0.3287 0.6818 0.89788 0.0
C3339 C 0.40643 0.67448 0.88407 0.0
C3340 C 0.46095 0.67084 0.88577 0.0
C3341 C 0.47457 0.66453 0.90058 0.0
C3342 C 0.52663 0.66167 0.90298 0.0
C3343 C 0.56535 0.66488 0.89037 0.0
C3344 C 0.55204 0.67095 0.87534 0.0
C3345 C 0.50012 0.67394 0.87303 0.0
H3346 H 0.60565 0.66265 0.89225 0.0
H3347 H 0.11248 0.69731 0.87365 0.0
H3348 H 0.93838 0.68045 0.46195 0.0
H3349 H 0.88166 0.67755 0.4339 0.0
H3350 H 0.01867 0.67588 0.39763 0.0
H3351 H 0.07451 0.67901 0.42514 0.0
H3352 H 0.95235 0.68748 0.3826 0.0
H3353 H 0.94288 0.65626 0.40846 0.0
H3354 H 0.92732 0.64421 0.43335 0.0
H3355 H 0.76619 0.65285 0.43758 0.0
H3356 H 0.78096 0.66502 0.41283 0.0
H3357 H 0.81353 0.67658 0.297 0.0
H3358 H 0.87289 0.67353 0.32422 0.0
H3359 H 0.74518 0.67825 0.36371 0.0
H3360 H 0.68639 0.68127 0.3369 0.0
H3361 H 0.8097 0.66388 0.37603 0.0
H3362 H 0.82402 0.69609 0.35244 0.0
H3363 H 0.84087 0.70816 0.32767 0.0
H3364 H 0.99633 0.6972 0.31932 0.0
H3365 H 0.98008 0.68498 0.34389 0.0
C3366 C 0.9561 0.67935 0.448 0.0
C3367 C 0.01064 0.68012 0.44564 0.0
C3368 C 0.92383 0.67766 0.432 0.0
C3369 C 0.94594 0.67654 0.41359 0.0
C3370 C 0.00059 0.67684 0.41158 0.0
C3371 C 0.03247 0.67864 0.42736 0.0
C3372 C 0.91279 0.67576 0.39609 0.0
C3373 C 0.92184 0.68218 0.38108 0.0
C3374 C 0.87236 0.66897 0.39415 0.0
C3375 C 0.86316 0.66161 0.40892 0.0
C3376 C 0.90421 0.65563 0.41479 0.0
C3377 C 0.89553 0.64877 0.42886 0.0
C3378 C 0.84584 0.64779 0.4371 0.0
C3379 C 0.80468 0.65363 0.43121 0.0
C3380 C 0.81317 0.6605 0.41714 0.0
C3381 C 0.79816 0.67682 0.31149 0.0
C3382 C 0.7457 0.67934 0.31486 0.0
C3383 C 0.83196 0.67507 0.327 0.0
C3384 C 0.81347 0.67577 0.346 0.0
C3385 C 0.76032 0.67768 0.34922 0.0
C3386 C 0.72689 0.6795 0.33384 0.0
C3387 C 0.84978 0.67554 0.36265 0.0
C3388 C 0.84096 0.66902 0.37752 0.0
C3389 C 0.8908 0.6822 0.3645 0.0
C3390 C 0.90062 0.68956 0.34981 0.0
C3391 C 0.86164 0.69622 0.34521 0.0
C3392 C 0.8711 0.70309 0.33123 0.0
C3393 C 0.91958 0.70343 0.32188 0.0
C3394 C 0.95875 0.69691 0.32654 0.0
C3395 C 0.94945 0.69002 0.34049 0.0
H3396 H 0.92684 0.70876 0.31107 0.0
H3397 H 0.83921 0.64248 0.44801 0.0
H3398 H 0.42462 0.5558 0.29121 0.0
H3399 H 0.37037 0.55743 0.32022 0.0
H3400 H 0.49273 0.57391 0.34695 0.0
H3401 H 0.547 0.57201 0.31843 0.0
H3402 H 0.46849 0.56073 0.3697 0.0
H3403 H 0.36739 0.58345 0.3352 0.0
H3404 H 0.31657 0.5898 0.30796 0.0
H3405 H 0.2034 0.56755 0.31441 0.0
H3406 H 0.25402 0.56099 0.34149 0.0
H3407 H 0.31166 0.56631 0.456 0.0
H3408 H 0.36425 0.56987 0.42716 0.0
H3409 H 0.26447 0.5516 0.39361 0.0
H3410 H 0.21222 0.54818 0.42188 0.0
H3411 H 0.279 0.56804 0.37555 0.0
H3412 H 0.38781 0.54479 0.40858 0.0
H3413 H 0.44018 0.53889 0.43584 0.0
H3414 H 0.54004 0.56325 0.43239 0.0
H3415 H 0.48784 0.56935 0.40523 0.0
C3416 C 0.43887 0.56004 0.30306 0.0
C3417 C 0.48974 0.56381 0.30265 0.0
C3418 C 0.40803 0.56096 0.31967 0.0
C3419 C 0.42747 0.56579 0.33589 0.0
C3420 C 0.47692 0.57009 0.33478 0.0
C3421 C 0.50777 0.56906 0.31842 0.0
C3422 C 0.39939 0.56554 0.35465 0.0
C3423 C 0.42725 0.56253 0.37099 0.0
C3424 C 0.3455 0.56776 0.35646 0.0
C3425 C 0.3148 0.57168 0.34023 0.0
C3426 C 0.33192 0.57987 0.33068 0.0
C3427 C 0.3031 0.58351 0.3153 0.0
C3428 C 0.25686 0.57907 0.30942 0.0
C3429 C 0.23926 0.57098 0.31896 0.0
C3430 C 0.26798 0.5673 0.33434 0.0
C3431 C 0.30164 0.56298 0.4425 0.0
C3432 C 0.25788 0.55698 0.44118 0.0
C3433 C 0.33143 0.56504 0.42603 0.0
C3434 C 0.31805 0.56103 0.40818 0.0
C3435 C 0.27518 0.55487 0.40712 0.0
C3436 C 0.24551 0.55288 0.42337 0.0
C3437 C 0.34797 0.56309 0.39035 0.0
C3438 C 0.32045 0.56642 0.37422 0.0
C3439 C 0.40229 0.56125 0.38875 0.0
C3440 C 0.43358 0.55758 0.40505 0.0
C3441 C 0.42068 0.54892 0.41374 0.0
C3442 C 0.45038 0.54554 0.42915 0.0
C3443 C 0.4933 0.55071 0.43588 0.0
C3444 C 0.50672 0.55927 0.42718 0.0
C3445 C 0.47711 0.56269 0.41178 0.0
H3446 H 0.51625 0.54807 0.44781 0.0
H3447 H 0.23459 0.5819 0.29751 0.0
H3448 H 0.05288 0.4301 0.2141 0.0
H3449 H 0.11295 0.42749 0.18692 0.0
H3450 H 0.98116 0.42726 0.14803 0.0
H3451 H 0.92168 0.42983 0.17482 0.0
H3452 H 0.05521 0.41423 0.1376 0.0
H3453 H 0.04569 0.44729 0.1556 0.0
H3454 H 0.05401 0.4607 0.17799 0.0
H3455 H 0.21702 0.45421 0.18641 0.0
H3456 H 0.20942 0.44068 0.16425 0.0
H3457 H 0.1634 0.43076 0.04809 0.0
H3458 H 0.11126 0.42792 0.07727 0.0
H3459 H 0.25197 0.42953 0.11156 0.0
H3460 H 0.30355 0.43244 0.08291 0.0
H3461 H 0.17835 0.44071 0.12564 0.0
H3462 H 0.19049 0.40865 0.10454 0.0
H3463 H 0.18197 0.39535 0.08191 0.0
H3464 H 0.0155 0.39981 0.07894 0.0
H3465 H 0.02311 0.41323 0.10135 0.0
C3466 C 0.03691 0.42933 0.19978 0.0
C3467 C 0.98286 0.43033 0.19649 0.0
C3468 C 0.0711 0.42785 0.1843 0.0
C3469 C 0.05142 0.42728 0.16545 0.0
C3470 C 0.99718 0.42767 0.16242 0.0
C3471 C 0.9633 0.42923 0.17775 0.0
C3472 C 0.08678 0.42727 0.14857 0.0
C3473 C 0.08217 0.42001 0.13493 0.0
C3474 C 0.12221 0.43477 0.14521 0.0
C3475 C 0.12683 0.44291 0.15848 0.0
C3476 C 0.08319 0.44868 0.16236 0.0
C3477 C 0.08779 0.45631 0.17498 0.0
C3478 C 0.13597 0.45829 0.18367 0.0
C3479 C 0.17969 0.45266 0.17971 0.0
C3480 C 0.17527 0.44501 0.16712 0.0
C3481 C 0.18306 0.43042 0.06185 0.0
C3482 C 0.23741 0.43193 0.06321 0.0
C3483 C 0.15338 0.42876 0.07848 0.0
C3484 C 0.17785 0.42852 0.0966 0.0
C3485 C 0.23224 0.42974 0.09779 0.0
C3486 C 0.26165 0.43142 0.08133 0.0
C3487 C 0.14697 0.42766 0.11455 0.0
C3488 C 0.15213 0.43482 0.12836 0.0
C3489 C 0.11219 0.42006 0.118 0.0
C3490 C 0.10746 0.41201 0.10448 0.0
C3491 C 0.15212 0.40685 0.09892 0.0
C3492 C 0.14744 0.39928 0.08616 0.0
C3493 C 0.09825 0.39675 0.07895 0.0
C3494 C 0.0536 0.40179 0.08452 0.0
C3495 C 0.05806 0.40937 0.09727 0.0
H3496 H 0.09471 0.39089 0.06908 0.0
H3497 H 0.13947 0.4642 0.19344 0.0
H3498 H 0.69196 0.30807 0.21636 0.0
H3499 H 0.63338 0.30998 0.18855 0.0
H3500 H 0.76789 0.31329 0.15155 0.0
H3501 H 0.8259 0.31156 0.17898 0.0
H3502 H 0.69104 0.32469 0.14009 0.0
H3503 H 0.70955 0.29179 0.15751 0.0
H3504 H 0.70418 0.2781 0.17931 0.0
H3505 H 0.53861 0.28265 0.18614 0.0
H3506 H 0.54317 0.29645 0.16456 0.0
H3507 H 0.58312 0.30872 0.04956 0.0
H3508 H 0.63698 0.31122 0.07851 0.0
H3509 H 0.49909 0.30816 0.11389 0.0
H3510 H 0.44598 0.30557 0.08553 0.0
H3511 H 0.57562 0.29728 0.12667 0.0
H3512 H 0.55668 0.32961 0.10672 0.0
H3513 H 0.56339 0.34303 0.0843 0.0
H3514 H 0.73048 0.33937 0.08144 0.0
H3515 H 0.72468 0.32584 0.10364 0.0
C3516 C 0.7088 0.30935 0.20233 0.0
C3517 C 0.76345 0.30948 0.1998 0.0
C3518 C 0.67542 0.31042 0.18646 0.0
C3519 C 0.69637 0.31162 0.16791 0.0
C3520 C 0.7508 0.31234 0.16566 0.0
C3521 C 0.78394 0.31126 0.18139 0.0
C3522 C 0.66261 0.31131 0.15056 0.0
C3523 C 0.66589 0.31869 0.1371 0.0
C3524 C 0.62962 0.30351 0.14669 0.0
C3525 C 0.62682 0.29521 0.15961 0.0
C3526 C 0.67208 0.28991 0.16378 0.0
C3527 C 0.66917 0.28213 0.17607 0.0
C3528 C 0.62111 0.27952 0.18415 0.0
C3529 C 0.57583 0.28468 0.1799 0.0
C3530 C 0.57855 0.29248 0.16764 0.0
C3531 C 0.56448 0.30866 0.06353 0.0
C3532 C 0.51048 0.30684 0.06525 0.0
C3533 C 0.59514 0.31012 0.08003 0.0
C3534 C 0.57197 0.30986 0.09838 0.0
C3535 C 0.5179 0.30832 0.09994 0.0
C3536 C 0.48759 0.30683 0.08363 0.0
C3537 C 0.60366 0.31068 0.11618 0.0
C3538 C 0.60027 0.30335 0.1297 0.0
C3539 C 0.6366 0.3185 0.11999 0.0
C3540 C 0.64017 0.32665 0.10668 0.0
C3541 C 0.59481 0.33162 0.10118 0.0
C3542 C 0.59845 0.33925 0.08854 0.0
C3543 C 0.64731 0.34204 0.08141 0.0
C3544 C 0.69265 0.3372 0.08695 0.0
C3545 C 0.68921 0.32955 0.09957 0.0
H3546 H 0.65006 0.34795 0.07163 0.0
H3547 H 0.61893 0.27349 0.19366 0.0
H3548 H 0.07671 0.30087 0.54946 0.0
H3549 H 0.13277 0.30237 0.5781 0.0
H3550 H 0.01315 0.31902 0.60589 0.0
H3551 H 0.95681 0.31729 0.57765 0.0
H3552 H 0.12392 0.32481 0.61353 0.0
H3553 H 0.00478 0.29802 0.61506 0.0
H3554 H 0.96508 0.28363 0.60139 0.0
H3555 H 0.11675 0.27047 0.59896 0.0
H3556 H 0.15746 0.28487 0.61231 0.0
H3557 H 0.20287 0.31667 0.71109 0.0
H3558 H 0.14695 0.31813 0.68241 0.0
H3559 H 0.23884 0.29668 0.654 0.0
H3560 H 0.29366 0.29512 0.68236 0.0
H3561 H 0.13856 0.29399 0.64704 0.0
H3562 H 0.25928 0.32001 0.64541 0.0
H3563 H 0.30307 0.33434 0.65752 0.0
H3564 H 0.15515 0.34883 0.65918 0.0
H3565 H 0.11028 0.33452 0.64731 0.0
C3566 C 0.06334 0.30509 0.56146 0.0
C3567 C 0.01273 0.30896 0.5615 0.0
C3568 C 0.09514 0.30593 0.57779 0.0
C3569 C 0.07684 0.31078 0.59409 0.0
C3570 C 0.02801 0.3153 0.59344 0.0
C3571 C 0.9959 0.31428 0.57735 0.0
C3572 C 0.10475 0.31001 0.61265 0.0
C3573 C 0.12685 0.3181 0.62099 0.0
C3574 C 0.10869 0.30125 0.62224 0.0
C3575 C 0.08421 0.29255 0.61447 0.0
C3576 C 0.02971 0.29209 0.61145 0.0
C3577 C 0.00702 0.28393 0.60379 0.0
C3578 C 0.03839 0.27615 0.59926 0.0
C3579 C 0.09251 0.27651 0.60244 0.0
C3580 C 0.11541 0.28466 0.61006 0.0
C3581 C 0.2103 0.31216 0.69883 0.0
C3582 C 0.25257 0.30579 0.69892 0.0
C3583 C 0.17876 0.31306 0.68241 0.0
C3584 C 0.18915 0.30758 0.66598 0.0
C3585 C 0.23007 0.30098 0.66646 0.0
C3586 C 0.26147 0.30012 0.6827 0.0
C3587 C 0.15879 0.30876 0.64795 0.0
C3588 C 0.13575 0.30072 0.6397 0.0
C3589 C 0.15463 0.31757 0.63841 0.0
C3590 C 0.18135 0.32616 0.64566 0.0
C3591 C 0.236 0.32622 0.64852 0.0
C3592 C 0.26103 0.33434 0.65531 0.0
C3593 C 0.2319 0.34249 0.65911 0.0
C3594 C 0.17764 0.34251 0.6562 0.0
C3595 C 0.15238 0.3344 0.64945 0.0
H3596 H 0.25141 0.34879 0.66422 0.0
H3597 H 0.02076 0.26984 0.59333 0.0
H3598 H 0.43382 0.42536 0.67631 0.0
H3599 H 0.49546 0.42289 0.65012 0.0
H3600 H 0.62501 0.4266 0.68924 0.0
H3601 H 0.56277 0.42894 0.71588 0.0
H3602 H 0.62514 0.43898 0.65767 0.0
H3603 H 0.62433 0.40501 0.66595 0.0
H3604 H 0.58444 0.38933 0.67116 0.0
H3605 H 0.4843 0.39349 0.62231 0.0
H3606 H 0.52471 0.40909 0.61652 0.0
H3607 H 0.81303 0.43361 0.58532 0.0
H3608 H 0.76106 0.43083 0.614 0.0
H3609 H 0.62445 0.42553 0.57906 0.0
H3610 H 0.677 0.42819 0.5499 0.0
H3611 H 0.63225 0.41309 0.60972 0.0
H3612 H 0.63852 0.44656 0.60003 0.0
H3613 H 0.68068 0.46196 0.59418 0.0
H3614 H 0.76795 0.45923 0.64661 0.0
H3615 H 0.72684 0.44373 0.65264 0.0
C3616 C 0.47545 0.42547 0.67946 0.0
C3617 C 0.49358 0.42742 0.6981 0.0
C3618 C 0.51065 0.42397 0.66448 0.0
C3619 C 0.5648 0.42451 0.66773 0.0
C3620 C 0.58327 0.42608 0.68649 0.0
C3621 C 0.54782 0.42741 0.70167 0.0
C3622 C 0.60075 0.4248 0.65103 0.0
C3623 C 0.62781 0.43323 0.64742 0.0
C3624 C 0.60244 0.41745 0.6373 0.0
C3625 C 0.57722 0.40821 0.6409 0.0
C3626 C 0.59373 0.40258 0.65635 0.0
C3627 C 0.57136 0.39368 0.65931 0.0
C3628 C 0.53171 0.39043 0.64712 0.0
C3629 C 0.51493 0.39602 0.63177 0.0
C3630 C 0.53786 0.40485 0.62854 0.0
C3631 C 0.77195 0.43183 0.58362 0.0
C3632 C 0.74892 0.43123 0.56531 0.0
C3633 C 0.74229 0.43024 0.60009 0.0
C3634 C 0.68873 0.42813 0.59869 0.0
C3635 C 0.66577 0.42719 0.58043 0.0
C3636 C 0.69569 0.42875 0.56382 0.0
C3637 C 0.65687 0.42726 0.61642 0.0
C3638 C 0.63022 0.41879 0.6201 0.0
C3639 C 0.65535 0.4346 0.63023 0.0
C3640 C 0.67999 0.44394 0.62669 0.0
C3641 C 0.66702 0.44921 0.61024 0.0
C3642 C 0.69067 0.45796 0.6069 0.0
C3643 C 0.72708 0.46156 0.61999 0.0
C3644 C 0.7398 0.45642 0.63647 0.0
C3645 C 0.7163 0.44766 0.63987 0.0
H3646 H 0.74535 0.46834 0.61739 0.0
H3647 H 0.51402 0.38359 0.64958 0.0
loop_
_geom_bond_atom_site_label_1
_geom_bond_atom_site_label_2
_geom_bond_distance
_geom_bond_site_symmetry_2
_ccdc_geom_bond_type
Co0 O1 2.216 . S
Co0 O2 2.091 1_455 S
Co0 O4 2.004 . S
Co0 O10 2.021 . S
Co0 O12 2.137 . S
Co0 O13 2.244 . S
O1 Co0 2.216 . S
O1 C8 1.247 . S
O2 Co0 2.091 1_655 S
O2 C8 1.261 1_655 S
C3 O12 1.247 . S
C3 O13 1.272 . S
O4 Co0 2.004 . S
O4 C9 1.259 . S
Co5 O6 2.061 . S
Co5 O11 2.052 . S
Co5 O13 2.135 . S
O6 Co5 2.061 . S
O6 C9 1.235 . S
C7 O10 1.238 . S
C7 O11 1.241 . S
C8 O1 1.247 . S
C8 O2 1.261 1_455 S
C9 O4 1.259 . S
C9 O6 1.235 . S
O10 Co0 2.021 . S
O10 C7 1.238 . S
O11 Co5 2.052 . S
O11 C7 1.241 . S
O12 Co0 2.137 . S
O12 C3 1.247 . S
O13 Co0 2.244 . S
O13 C3 1.272 . S
O13 Co5 2.135 . S
Co14 O15 2.216 . S
Co14 O16 2.091 . S
Co14 O18 2.004 . S
Co14 O24 2.021 . S
Co14 O26 2.137 . S
Co14 O27 2.244 . S
O15 Co14 2.216 . S
O15 C22 1.247 . S
O16 Co14 2.091 . S
O16 C22 1.261 . S
C17 O26 1.247 . S
C17 O27 1.272 . S
O18 Co14 2.004 . S
O18 C23 1.259 . S
Co19 O20 2.061 . S
Co19 O25 2.052 . S
Co19 O27 2.135 . S
O20 Co19 2.061 . S
O20 C23 1.235 . S
C21 O24 1.238 . S
C21 O25 1.241 . S
C22 O15 1.247 . S
C22 O16 1.261 . S
C23 O18 1.259 . S
C23 O20 1.235 . S
O24 Co14 2.021 . S
O24 C21 1.238 . S
O25 Co19 2.052 . S
O25 C21 1.241 . S
O26 Co14 2.137 . S
O26 C17 1.247 . S
O27 Co14 2.244 . S
O27 C17 1.272 . S
O27 Co19 2.135 . S
Co28 O29 2.216 . S
Co28 O30 2.091 1_455 S
Co28 O32 2.004 1_556 S
Co28 O38 2.021 . S
Co28 O40 2.137 . S
Co28 O41 2.244 . S
O29 Co28 2.216 . S
O29 C36 1.247 . S
O30 Co28 2.091 1_655 S
O30 C36 1.261 1_655 S
C31 O40 1.247 . S
C31 O41 1.272 . S
O32 Co28 2.004 1_554 S
O32 C37 1.259 . S
Co33 O34 2.061 . S
Co33 O39 2.052 1_554 S
Co33 O41 2.135 1_554 S
O34 Co33 2.061 . S
O34 C37 1.235 . S
C35 O38 1.238 . S
C35 O39 1.241 . S
C36 O29 1.247 . S
C36 O30 1.261 1_455 S
C37 O32 1.259 . S
C37 O34 1.235 . S
O38 Co28 2.021 . S
O38 C35 1.238 . S
O39 Co33 2.052 1_556 S
O39 C35 1.241 . S
O40 Co28 2.137 . S
O40 C31 1.247 . S
O41 Co28 2.244 . S
O41 C31 1.272 . S
O41 Co33 2.135 1_556 S
Co42 O43 2.216 . S
Co42 O44 2.091 . S
Co42 O46 2.004 1_556 S
Co42 O52 2.021 . S
Co42 O54 2.137 . S
Co42 O55 2.244 . S
O43 Co42 2.216 . S
O43 C50 1.247 . S
O44 Co42 2.091 . S
O44 C50 1.261 . S
C45 O54 1.247 . S
C45 O55 1.272 . S
O46 Co42 2.004 1_554 S
O46 C51 1.259 . S
Co47 O48 2.061 . S
Co47 O53 2.052 1_554 S
Co47 O55 2.135 1_554 S
O48 Co47 2.061 . S
O48 C51 1.235 . S
C49 O52 1.238 . S
C49 O53 1.241 . S
C50 O43 1.247 . S
C50 O44 1.261 . S
C51 O46 1.259 . S
C51 O48 1.235 . S
O52 Co42 2.021 . S
O52 C49 1.238 . S
O53 Co47 2.052 1_556 S
O53 C49 1.241 . S
O54 Co42 2.137 . S
O54 C45 1.247 . S
O55 Co42 2.244 . S
O55 C45 1.272 . S
O55 Co47 2.135 1_556 S
Co56 O57 2.216 . S
Co56 O58 2.091 1_655 S
Co56 O60 2.004 . S
Co56 O66 2.021 . S
Co56 O68 2.137 . S
Co56 O69 2.244 . S
O57 Co56 2.216 . S
O57 C64 1.247 . S
O58 Co56 2.091 1_455 S
O58 C64 1.261 1_455 S
C59 O68 1.247 . S
C59 O69 1.272 . S
O60 Co56 2.004 . S
O60 C65 1.259 . S
Co61 O62 2.061 . S
Co61 O67 2.052 . S
Co61 O69 2.135 . S
O62 Co61 2.061 . S
O62 C65 1.235 . S
C63 O66 1.238 . S
C63 O67 1.241 . S
C64 O57 1.247 . S
C64 O58 1.261 1_655 S
C65 O60 1.259 . S
C65 O62 1.235 . S
O66 Co56 2.021 . S
O66 C63 1.238 . S
O67 Co61 2.052 . S
O67 C63 1.241 . S
O68 Co56 2.137 . S
O68 C59 1.247 . S
O69 Co56 2.244 . S
O69 C59 1.272 . S
O69 Co61 2.135 . S
Co70 O71 2.216 . S
Co70 O72 2.091 . S
Co70 O74 2.004 . S
Co70 O80 2.021 . S
Co70 O82 2.137 . S
Co70 O83 2.244 . S
O71 Co70 2.216 . S
O71 C78 1.247 . S
O72 Co70 2.091 . S
O72 C78 1.261 . S
C73 O82 1.247 . S
C73 O83 1.272 . S
O74 Co70 2.004 . S
O74 C79 1.259 . S
Co75 O76 2.061 . S
Co75 O81 2.052 . S
Co75 O83 2.135 . S
O76 Co75 2.061 . S
O76 C79 1.235 . S
C77 O80 1.238 . S
C77 O81 1.241 . S
C78 O71 1.247 . S
C78 O72 1.261 . S
C79 O74 1.259 . S
C79 O76 1.235 . S
O80 Co70 2.021 . S
O80 C77 1.238 . S
O81 Co75 2.052 . S
O81 C77 1.241 . S
O82 Co70 2.137 . S
O82 C73 1.247 . S
O83 Co70 2.244 . S
O83 C73 1.272 . S
O83 Co75 2.135 . S
Co84 O85 2.216 . S
Co84 O86 2.091 1_655 S
Co84 O88 2.004 1_554 S
Co84 O94 2.021 . S
Co84 O96 2.137 . S
Co84 O97 2.244 . S
O85 Co84 2.216 . S
O85 C92 1.247 . S
O86 Co84 2.091 1_455 S
O86 C92 1.261 1_455 S
C87 O96 1.247 . S
C87 O97 1.272 . S
O88 Co84 2.004 1_556 S
O88 C93 1.259 . S
Co89 O90 2.061 . S
Co89 O95 2.052 1_556 S
Co89 O97 2.135 1_556 S
O90 Co89 2.061 . S
O90 C93 1.235 . S
C91 O94 1.238 . S
C91 O95 1.241 . S
C92 O85 1.247 . S
C92 O86 1.261 1_655 S
C93 O88 1.259 . S
C93 O90 1.235 . S
O94 Co84 2.021 . S
O94 C91 1.238 . S
O95 Co89 2.052 1_554 S
O95 C91 1.241 . S
O96 Co84 2.137 . S
O96 C87 1.247 . S
O97 Co84 2.244 . S
O97 C87 1.272 . S
O97 Co89 2.135 1_554 S
Co98 O99 2.216 . S
Co98 O100 2.091 . S
Co98 O102 2.004 1_554 S
Co98 O108 2.021 . S
Co98 O110 2.137 . S
Co98 O111 2.244 . S
O99 Co98 2.216 . S
O99 C106 1.247 . S
O100 Co98 2.091 . S
O100 C106 1.261 . S
C101 O110 1.247 . S
C101 O111 1.272 . S
O102 Co98 2.004 1_556 S
O102 C107 1.259 . S
Co103 O104 2.061 . S
Co103 O109 2.052 1_556 S
Co103 O111 2.135 1_556 S
O104 Co103 2.061 . S
O104 C107 1.235 . S
C105 O108 1.238 . S
C105 O109 1.241 . S
C106 O99 1.247 . S
C106 O100 1.261 . S
C107 O102 1.259 . S
C107 O104 1.235 . S
O108 Co98 2.021 . S
O108 C105 1.238 . S
O109 Co103 2.052 1_554 S
O109 C105 1.241 . S
O110 Co98 2.137 . S
O110 C101 1.247 . S
O111 Co98 2.244 . S
O111 C101 1.272 . S
O111 Co103 2.135 1_554 S
Co112 O113 2.216 . S
Co112 O114 2.091 1_455 S
Co112 O116 2.004 . S
Co112 O122 2.021 . S
Co112 O124 2.137 . S
Co112 O125 2.244 . S
O113 Co112 2.216 . S
O113 C120 1.247 . S
O114 Co112 2.091 1_655 S
O114 C120 1.261 1_655 S
C115 O124 1.247 . S
C115 O125 1.272 . S
O116 Co112 2.004 . S
O116 C121 1.259 . S
Co117 O118 2.061 . S
Co117 O123 2.052 . S
Co117 O125 2.135 . S
O118 Co117 2.061 . S
O118 C121 1.235 . S
C119 O122 1.238 . S
C119 O123 1.241 . S
C120 O113 1.247 . S
C120 O114 1.261 1_455 S
C121 O116 1.259 . S
C121 O118 1.235 . S
O122 Co112 2.021 . S
O122 C119 1.238 . S
O123 Co117 2.052 . S
O123 C119 1.241 . S
O124 Co112 2.137 . S
O124 C115 1.247 . S
O125 Co112 2.244 . S
O125 C115 1.272 . S
O125 Co117 2.135 . S
Co126 O127 2.216 . S
Co126 O128 2.091 . S
Co126 O130 2.004 . S
Co126 O136 2.021 . S
Co126 O138 2.137 . S
Co126 O139 2.244 . S
O127 Co126 2.216 . S
O127 C134 1.247 . S
O128 Co126 2.091 . S
O128 C134 1.261 . S
C129 O138 1.247 . S
C129 O139 1.272 . S
O130 Co126 2.004 . S
O130 C135 1.259 . S
Co131 O132 2.061 . S
Co131 O137 2.052 . S
Co131 O139 2.135 . S
O132 Co131 2.061 . S
O132 C135 1.235 . S
C133 O136 1.238 . S
C133 O137 1.241 . S
C134 O127 1.247 . S
C134 O128 1.261 . S
C135 O130 1.259 . S
C135 O132 1.235 . S
O136 Co126 2.021 . S
O136 C133 1.238 . S
O137 Co131 2.052 . S
O137 C133 1.241 . S
O138 Co126 2.137 . S
O138 C129 1.247 . S
O139 Co126 2.244 . S
O139 C129 1.272 . S
O139 Co131 2.135 . S
Co140 O141 2.216 . S
Co140 O142 2.091 1_455 S
Co140 O144 2.004 . S
Co140 O150 2.021 . S
Co140 O152 2.137 . S
Co140 O153 2.244 . S
O141 Co140 2.216 . S
O141 C148 1.247 . S
O142 Co140 2.091 1_655 S
O142 C148 1.261 1_655 S
C143 O152 1.247 . S
C143 O153 1.272 . S
O144 Co140 2.004 . S
O144 C149 1.259 . S
Co145 O146 2.061 . S
Co145 O151 2.052 . S
Co145 O153 2.135 . S
O146 Co145 2.061 . S
O146 C149 1.235 . S
C147 O150 1.238 . S
C147 O151 1.241 . S
C148 O141 1.247 . S
C148 O142 1.261 1_455 S
C149 O144 1.259 . S
C149 O146 1.235 . S
O150 Co140 2.021 . S
O150 C147 1.238 . S
O151 Co145 2.052 . S
O151 C147 1.241 . S
O152 Co140 2.137 . S
O152 C143 1.247 . S
O153 Co140 2.244 . S
O153 C143 1.272 . S
O153 Co145 2.135 . S
Co154 O155 2.216 . S
Co154 O156 2.091 . S
Co154 O158 2.004 . S
Co154 O164 2.021 . S
Co154 O166 2.137 . S
Co154 O167 2.244 . S
O155 Co154 2.216 . S
O155 C162 1.247 . S
O156 Co154 2.091 . S
O156 C162 1.261 . S
C157 O166 1.247 . S
C157 O167 1.272 . S
O158 Co154 2.004 . S
O158 C163 1.259 . S
Co159 O160 2.061 . S
Co159 O165 2.052 . S
Co159 O167 2.135 . S
O160 Co159 2.061 . S
O160 C163 1.235 . S
C161 O164 1.238 . S
C161 O165 1.241 . S
C162 O155 1.247 . S
C162 O156 1.261 . S
C163 O158 1.259 . S
C163 O160 1.235 . S
O164 Co154 2.021 . S
O164 C161 1.238 . S
O165 Co159 2.052 . S
O165 C161 1.241 . S
O166 Co154 2.137 . S
O166 C157 1.247 . S
O167 Co154 2.244 . S
O167 C157 1.272 . S
O167 Co159 2.135 . S
Co168 O169 2.216 . S
Co168 O170 2.091 1_655 S
Co168 O172 2.004 . S
Co168 O178 2.021 . S
Co168 O180 2.137 . S
Co168 O181 2.244 . S
O169 Co168 2.216 . S
O169 C176 1.247 . S
O170 Co168 2.091 1_455 S
O170 C176 1.261 1_455 S
C171 O180 1.247 . S
C171 O181 1.272 . S
O172 Co168 2.004 . S
O172 C177 1.259 . S
Co173 O174 2.061 . S
Co173 O179 2.052 . S
Co173 O181 2.135 . S
O174 Co173 2.061 . S
O174 C177 1.235 . S
C175 O178 1.238 . S
C175 O179 1.241 . S
C176 O169 1.247 . S
C176 O170 1.261 1_655 S
C177 O172 1.259 . S
C177 O174 1.235 . S
O178 Co168 2.021 . S
O178 C175 1.238 . S
O179 Co173 2.052 . S
O179 C175 1.241 . S
O180 Co168 2.137 . S
O180 C171 1.247 . S
O181 Co168 2.244 . S
O181 C171 1.272 . S
O181 Co173 2.135 . S
Co182 O183 2.216 . S
Co182 O184 2.091 . S
Co182 O186 2.004 . S
Co182 O192 2.021 . S
Co182 O194 2.137 . S
Co182 O195 2.244 . S
O183 Co182 2.216 . S
O183 C190 1.247 . S
O184 Co182 2.091 . S
O184 C190 1.261 . S
C185 O194 1.247 . S
C185 O195 1.272 . S
O186 Co182 2.004 . S
O186 C191 1.259 . S
Co187 O188 2.061 . S
Co187 O193 2.052 . S
Co187 O195 2.135 . S
O188 Co187 2.061 . S
O188 C191 1.235 . S
C189 O192 1.238 . S
C189 O193 1.241 . S
C190 O183 1.247 . S
C190 O184 1.261 . S
C191 O186 1.259 . S
C191 O188 1.235 . S
O192 Co182 2.021 . S
O192 C189 1.238 . S
O193 Co187 2.052 . S
O193 C189 1.241 . S
O194 Co182 2.137 . S
O194 C185 1.247 . S
O195 Co182 2.244 . S
O195 C185 1.272 . S
O195 Co187 2.135 . S
Co196 O197 2.216 . S
Co196 O198 2.091 1_655 S
Co196 O200 2.004 . S
Co196 O206 2.021 . S
Co196 O208 2.137 . S
Co196 O209 2.244 . S
O197 Co196 2.216 . S
O197 C204 1.247 . S
O198 Co196 2.091 1_455 S
O198 C204 1.261 1_455 S
C199 O208 1.247 . S
C199 O209 1.272 . S
O200 Co196 2.004 . S
O200 C205 1.259 . S
Co201 O202 2.061 . S
Co201 O207 2.052 . S
Co201 O209 2.135 . S
O202 Co201 2.061 . S
O202 C205 1.235 . S
C203 O206 1.238 . S
C203 O207 1.241 . S
C204 O197 1.247 . S
C204 O198 1.261 1_655 S
C205 O200 1.259 . S
C205 O202 1.235 . S
O206 Co196 2.021 . S
O206 C203 1.238 . S
O207 Co201 2.052 . S
O207 C203 1.241 . S
O208 Co196 2.137 . S
O208 C199 1.247 . S
O209 Co196 2.244 . S
O209 C199 1.272 . S
O209 Co201 2.135 . S
Co210 O211 2.216 . S
Co210 O212 2.091 . S
Co210 O214 2.004 . S
Co210 O220 2.021 . S
Co210 O222 2.137 . S
Co210 O223 2.244 . S
O211 Co210 2.216 . S
O211 C218 1.247 . S
O212 Co210 2.091 . S
O212 C218 1.261 . S
C213 O222 1.247 . S
C213 O223 1.272 . S
O214 Co210 2.004 . S
O214 C219 1.259 . S
Co215 O216 2.061 . S
Co215 O221 2.052 . S
Co215 O223 2.135 . S
O216 Co215 2.061 . S
O216 C219 1.235 . S
C217 O220 1.238 . S
C217 O221 1.241 . S
C218 O211 1.247 . S
C218 O212 1.261 . S
C219 O214 1.259 . S
C219 O216 1.235 . S
O220 Co210 2.021 . S
O220 C217 1.238 . S
O221 Co215 2.052 . S
O221 C217 1.241 . S
O222 Co210 2.137 . S
O222 C213 1.247 . S
O223 Co210 2.244 . S
O223 C213 1.272 . S
O223 Co215 2.135 . S
Co224 O225 2.216 . S
Co224 O226 2.091 . S
Co224 O228 2.004 . S
Co224 O234 2.021 . S
Co224 O236 2.137 . S
Co224 O237 2.244 . S
O225 Co224 2.216 . S
O225 C232 1.247 . S
O226 Co224 2.091 . S
O226 C232 1.261 . S
C227 O236 1.247 . S
C227 O237 1.272 . S
O228 Co224 2.004 . S
O228 C233 1.259 . S
Co229 O230 2.061 . S
Co229 O235 2.052 . S
Co229 O237 2.135 . S
O230 Co229 2.061 . S
O230 C233 1.235 . S
C231 O234 1.238 . S
C231 O235 1.241 . S
C232 O225 1.247 . S
C232 O226 1.261 . S
C233 O228 1.259 . S
C233 O230 1.235 . S
O234 Co224 2.021 . S
O234 C231 1.238 . S
O235 Co229 2.052 . S
O235 C231 1.241 . S
O236 Co224 2.137 . S
O236 C227 1.247 . S
O237 Co224 2.244 . S
O237 C227 1.272 . S
O237 Co229 2.135 . S
Co238 O239 2.216 . S
Co238 O240 2.091 . S
Co238 O242 2.004 . S
Co238 O248 2.021 . S
Co238 O250 2.137 . S
Co238 O251 2.244 . S
O239 Co238 2.216 . S
O239 C246 1.247 . S
O240 Co238 2.091 . S
O240 C246 1.261 . S
C241 O250 1.247 . S
C241 O251 1.272 . S
O242 Co238 2.004 . S
O242 C247 1.259 . S
Co243 O244 2.061 . S
Co243 O249 2.052 . S
Co243 O251 2.135 . S
O244 Co243 2.061 . S
O244 C247 1.235 . S
C245 O248 1.238 . S
C245 O249 1.241 . S
C246 O239 1.247 . S
C246 O240 1.261 . S
C247 O242 1.259 . S
C247 O244 1.235 . S
O248 Co238 2.021 . S
O248 C245 1.238 . S
O249 Co243 2.052 . S
O249 C245 1.241 . S
O250 Co238 2.137 . S
O250 C241 1.247 . S
O251 Co238 2.244 . S
O251 C241 1.272 . S
O251 Co243 2.135 . S
Co252 O253 2.216 . S
Co252 O254 2.091 . S
Co252 O256 2.004 . S
Co252 O262 2.021 . S
Co252 O264 2.137 . S
Co252 O265 2.244 . S
O253 Co252 2.216 . S
O253 C260 1.247 . S
O254 Co252 2.091 . S
O254 C260 1.261 . S
C255 O264 1.247 . S
C255 O265 1.272 . S
O256 Co252 2.004 . S
O256 C261 1.259 . S
Co257 O258 2.061 . S
Co257 O263 2.052 . S
Co257 O265 2.135 . S
O258 Co257 2.061 . S
O258 C261 1.235 . S
C259 O262 1.238 . S
C259 O263 1.241 . S
C260 O253 1.247 . S
C260 O254 1.261 . S
C261 O256 1.259 . S
C261 O258 1.235 . S
O262 Co252 2.021 . S
O262 C259 1.238 . S
O263 Co257 2.052 . S
O263 C259 1.241 . S
O264 Co252 2.137 . S
O264 C255 1.247 . S
O265 Co252 2.244 . S
O265 C255 1.272 . S
O265 Co257 2.135 . S
Co266 O267 2.216 . S
Co266 O268 2.091 . S
Co266 O270 2.004 . S
Co266 O276 2.021 . S
Co266 O278 2.137 . S
Co266 O279 2.244 . S
O267 Co266 2.216 . S
O267 C274 1.247 . S
O268 Co266 2.091 . S
O268 C274 1.261 . S
C269 O278 1.247 . S
C269 O279 1.272 . S
O270 Co266 2.004 . S
O270 C275 1.259 . S
Co271 O272 2.061 . S
Co271 O277 2.052 . S
Co271 O279 2.135 . S
O272 Co271 2.061 . S
O272 C275 1.235 . S
C273 O276 1.238 . S
C273 O277 1.241 . S
C274 O267 1.247 . S
C274 O268 1.261 . S
C275 O270 1.259 . S
C275 O272 1.235 . S
O276 Co266 2.021 . S
O276 C273 1.238 . S
O277 Co271 2.052 . S
O277 C273 1.241 . S
O278 Co266 2.137 . S
O278 C269 1.247 . S
O279 Co266 2.244 . S
O279 C269 1.272 . S
O279 Co271 2.135 . S
Co280 O281 2.216 . S
Co280 O282 2.091 . S
Co280 O284 2.004 . S
Co280 O290 2.021 . S
Co280 O292 2.137 . S
Co280 O293 2.244 . S
O281 Co280 2.216 . S
O281 C288 1.247 . S
O282 Co280 2.091 . S
O282 C288 1.261 . S
C283 O292 1.247 . S
C283 O293 1.272 . S
O284 Co280 2.004 . S
O284 C289 1.259 . S
Co285 O286 2.061 . S
Co285 O291 2.052 . S
Co285 O293 2.135 . S
O286 Co285 2.061 . S
O286 C289 1.235 . S
C287 O290 1.238 . S
C287 O291 1.241 . S
C288 O281 1.247 . S
C288 O282 1.261 . S
C289 O284 1.259 . S
C289 O286 1.235 . S
O290 Co280 2.021 . S
O290 C287 1.238 . S
O291 Co285 2.052 . S
O291 C287 1.241 . S
O292 Co280 2.137 . S
O292 C283 1.247 . S
O293 Co280 2.244 . S
O293 C283 1.272 . S
O293 Co285 2.135 . S
Co294 O295 2.216 . S
Co294 O296 2.091 . S
Co294 O298 2.004 . S
Co294 O304 2.021 . S
Co294 O306 2.137 . S
Co294 O307 2.244 . S
O295 Co294 2.216 . S
O295 C302 1.247 . S
O296 Co294 2.091 . S
O296 C302 1.261 . S
C297 O306 1.247 . S
C297 O307 1.272 . S
O298 Co294 2.004 . S
O298 C303 1.259 . S
Co299 O300 2.061 . S
Co299 O305 2.052 . S
Co299 O307 2.135 . S
O300 Co299 2.061 . S
O300 C303 1.235 . S
C301 O304 1.238 . S
C301 O305 1.241 . S
C302 O295 1.247 . S
C302 O296 1.261 . S
C303 O298 1.259 . S
C303 O300 1.235 . S
O304 Co294 2.021 . S
O304 C301 1.238 . S
O305 Co299 2.052 . S
O305 C301 1.241 . S
O306 Co294 2.137 . S
O306 C297 1.247 . S
O307 Co294 2.244 . S
O307 C297 1.272 . S
O307 Co299 2.135 . S
Co308 O309 2.216 . S
Co308 O310 2.091 . S
Co308 O312 2.004 . S
Co308 O318 2.021 . S
Co308 O320 2.137 . S
Co308 O321 2.244 . S
O309 Co308 2.216 . S
O309 C316 1.247 . S
O310 Co308 2.091 . S
O310 C316 1.261 . S
C311 O320 1.247 . S
C311 O321 1.272 . S
O312 Co308 2.004 . S
O312 C317 1.259 . S
Co313 O314 2.061 . S
Co313 O319 2.052 . S
Co313 O321 2.135 . S
O314 Co313 2.061 . S
O314 C317 1.235 . S
C315 O318 1.238 . S
C315 O319 1.241 . S
C316 O309 1.247 . S
C316 O310 1.261 . S
C317 O312 1.259 . S
C317 O314 1.235 . S
O318 Co308 2.021 . S
O318 C315 1.238 . S
O319 Co313 2.052 . S
O319 C315 1.241 . S
O320 Co308 2.137 . S
O320 C311 1.247 . S
O321 Co308 2.244 . S
O321 C311 1.272 . S
O321 Co313 2.135 . S
Co322 O323 2.216 . S
Co322 O324 2.091 . S
Co322 O326 2.004 . S
Co322 O332 2.021 . S
Co322 O334 2.137 . S
Co322 O335 2.244 . S
O323 Co322 2.216 . S
O323 C330 1.247 . S
O324 Co322 2.091 . S
O324 C330 1.261 . S
C325 O334 1.247 . S
C325 O335 1.272 . S
O326 Co322 2.004 . S
O326 C331 1.259 . S
Co327 O328 2.061 . S
Co327 O333 2.052 . S
Co327 O335 2.135 . S
O328 Co327 2.061 . S
O328 C331 1.235 . S
C329 O332 1.238 . S
C329 O333 1.241 . S
C330 O323 1.247 . S
C330 O324 1.261 . S
C331 O326 1.259 . S
C331 O328 1.235 . S
O332 Co322 2.021 . S
O332 C329 1.238 . S
O333 Co327 2.052 . S
O333 C329 1.241 . S
O334 Co322 2.137 . S
O334 C325 1.247 . S
O335 Co322 2.244 . S
O335 C325 1.272 . S
O335 Co327 2.135 . S
Co336 O337 2.216 . S
Co336 O338 2.091 . S
Co336 O340 2.004 . S
Co336 O346 2.021 . S
Co336 O348 2.137 . S
Co336 O349 2.244 . S
O337 Co336 2.216 . S
O337 C344 1.247 . S
O338 Co336 2.091 . S
O338 C344 1.261 . S
C339 O348 1.247 . S
C339 O349 1.272 . S
O340 Co336 2.004 . S
O340 C345 1.259 . S
Co341 O342 2.061 . S
Co341 O347 2.052 . S
Co341 O349 2.135 . S
O342 Co341 2.061 . S
O342 C345 1.235 . S
C343 O346 1.238 . S
C343 O347 1.241 . S
C344 O337 1.247 . S
C344 O338 1.261 . S
C345 O340 1.259 . S
C345 O342 1.235 . S
O346 Co336 2.021 . S
O346 C343 1.238 . S
O347 Co341 2.052 . S
O347 C343 1.241 . S
O348 Co336 2.137 . S
O348 C339 1.247 . S
O349 Co336 2.244 . S
O349 C339 1.272 . S
O349 Co341 2.135 . S
Co350 O351 2.216 . S
Co350 O352 2.091 . S
Co350 O354 2.004 . S
Co350 O360 2.021 . S
Co350 O362 2.137 . S
Co350 O363 2.244 . S
O351 Co350 2.216 . S
O351 C358 1.247 . S
O352 Co350 2.091 . S
O352 C358 1.261 . S
C353 O362 1.247 . S
C353 O363 1.272 . S
O354 Co350 2.004 . S
O354 C359 1.259 . S
Co355 O356 2.061 . S
Co355 O361 2.052 . S
Co355 O363 2.135 . S
O356 Co355 2.061 . S
O356 C359 1.235 . S
C357 O360 1.238 . S
C357 O361 1.241 . S
C358 O351 1.247 . S
C358 O352 1.261 . S
C359 O354 1.259 . S
C359 O356 1.235 . S
O360 Co350 2.021 . S
O360 C357 1.238 . S
O361 Co355 2.052 . S
O361 C357 1.241 . S
O362 Co350 2.137 . S
O362 C353 1.247 . S
O363 Co350 2.244 . S
O363 C353 1.272 . S
O363 Co355 2.135 . S
Co364 O365 2.216 . S
Co364 O366 2.091 . S
Co364 O368 2.004 1_556 S
Co364 O374 2.021 . S
Co364 O376 2.137 . S
Co364 O377 2.244 . S
O365 Co364 2.216 . S
O365 C372 1.247 . S
O366 Co364 2.091 . S
O366 C372 1.261 . S
C367 O376 1.247 . S
C367 O377 1.272 . S
O368 Co364 2.004 1_554 S
O368 C373 1.259 . S
Co369 O370 2.061 . S
Co369 O375 2.052 1_554 S
Co369 O377 2.135 1_554 S
O370 Co369 2.061 . S
O370 C373 1.235 . S
C371 O374 1.238 . S
C371 O375 1.241 . S
C372 O365 1.247 . S
C372 O366 1.261 . S
C373 O368 1.259 . S
C373 O370 1.235 . S
O374 Co364 2.021 . S
O374 C371 1.238 . S
O375 Co369 2.052 1_556 S
O375 C371 1.241 . S
O376 Co364 2.137 . S
O376 C367 1.247 . S
O377 Co364 2.244 . S
O377 C367 1.272 . S
O377 Co369 2.135 1_556 S
Co378 O379 2.216 . S
Co378 O380 2.091 . S
Co378 O382 2.004 1_556 S
Co378 O388 2.021 . S
Co378 O390 2.137 . S
Co378 O391 2.244 . S
O379 Co378 2.216 . S
O379 C386 1.247 . S
O380 Co378 2.091 . S
O380 C386 1.261 . S
C381 O390 1.247 . S
C381 O391 1.272 . S
O382 Co378 2.004 1_554 S
O382 C387 1.259 . S
Co383 O384 2.061 . S
Co383 O389 2.052 1_554 S
Co383 O391 2.135 1_554 S
O384 Co383 2.061 . S
O384 C387 1.235 . S
C385 O388 1.238 . S
C385 O389 1.241 . S
C386 O379 1.247 . S
C386 O380 1.261 . S
C387 O382 1.259 . S
C387 O384 1.235 . S
O388 Co378 2.021 . S
O388 C385 1.238 . S
O389 Co383 2.052 1_556 S
O389 C385 1.241 . S
O390 Co378 2.137 . S
O390 C381 1.247 . S
O391 Co378 2.244 . S
O391 C381 1.272 . S
O391 Co383 2.135 1_556 S
Co392 O393 2.216 . S
Co392 O394 2.091 . S
Co392 O396 2.004 . S
Co392 O402 2.021 . S
Co392 O404 2.137 . S
Co392 O405 2.244 . S
O393 Co392 2.216 . S
O393 C400 1.247 . S
O394 Co392 2.091 . S
O394 C400 1.261 . S
C395 O404 1.247 . S
C395 O405 1.272 . S
O396 Co392 2.004 . S
O396 C401 1.259 . S
Co397 O398 2.061 . S
Co397 O403 2.052 . S
Co397 O405 2.135 . S
O398 Co397 2.061 . S
O398 C401 1.235 . S
C399 O402 1.238 . S
C399 O403 1.241 . S
C400 O393 1.247 . S
C400 O394 1.261 . S
C401 O396 1.259 . S
C401 O398 1.235 . S
O402 Co392 2.021 . S
O402 C399 1.238 . S
O403 Co397 2.052 . S
O403 C399 1.241 . S
O404 Co392 2.137 . S
O404 C395 1.247 . S
O405 Co392 2.244 . S
O405 C395 1.272 . S
O405 Co397 2.135 . S
Co406 O407 2.216 . S
Co406 O408 2.091 . S
Co406 O410 2.004 . S
Co406 O416 2.021 . S
Co406 O418 2.137 . S
Co406 O419 2.244 . S
O407 Co406 2.216 . S
O407 C414 1.247 . S
O408 Co406 2.091 . S
O408 C414 1.261 . S
C409 O418 1.247 . S
C409 O419 1.272 . S
O410 Co406 2.004 . S
O410 C415 1.259 . S
Co411 O412 2.061 . S
Co411 O417 2.052 . S
Co411 O419 2.135 . S
O412 Co411 2.061 . S
O412 C415 1.235 . S
C413 O416 1.238 . S
C413 O417 1.241 . S
C414 O407 1.247 . S
C414 O408 1.261 . S
C415 O410 1.259 . S
C415 O412 1.235 . S
O416 Co406 2.021 . S
O416 C413 1.238 . S
O417 Co411 2.052 . S
O417 C413 1.241 . S
O418 Co406 2.137 . S
O418 C409 1.247 . S
O419 Co406 2.244 . S
O419 C409 1.272 . S
O419 Co411 2.135 . S
Co420 O421 2.216 . S
Co420 O422 2.091 . S
Co420 O424 2.004 1_554 S
Co420 O430 2.021 . S
Co420 O432 2.137 . S
Co420 O433 2.244 . S
O421 Co420 2.216 . S
O421 C428 1.247 . S
O422 Co420 2.091 . S
O422 C428 1.261 . S
C423 O432 1.247 . S
C423 O433 1.272 . S
O424 Co420 2.004 1_556 S
O424 C429 1.259 . S
Co425 O426 2.061 . S
Co425 O431 2.052 1_556 S
Co425 O433 2.135 1_556 S
O426 Co425 2.061 . S
O426 C429 1.235 . S
C427 O430 1.238 . S
C427 O431 1.241 . S
C428 O421 1.247 . S
C428 O422 1.261 . S
C429 O424 1.259 . S
C429 O426 1.235 . S
O430 Co420 2.021 . S
O430 C427 1.238 . S
O431 Co425 2.052 1_554 S
O431 C427 1.241 . S
O432 Co420 2.137 . S
O432 C423 1.247 . S
O433 Co420 2.244 . S
O433 C423 1.272 . S
O433 Co425 2.135 1_554 S
Co434 O435 2.216 . S
Co434 O436 2.091 . S
Co434 O438 2.004 1_554 S
Co434 O444 2.021 . S
Co434 O446 2.137 . S
Co434 O447 2.244 . S
O435 Co434 2.216 . S
O435 C442 1.247 . S
O436 Co434 2.091 . S
O436 C442 1.261 . S
C437 O446 1.247 . S
C437 O447 1.272 . S
O438 Co434 2.004 1_556 S
O438 C443 1.259 . S
Co439 O440 2.061 . S
Co439 O445 2.052 1_556 S
Co439 O447 2.135 1_556 S
O440 Co439 2.061 . S
O440 C443 1.235 . S
C441 O444 1.238 . S
C441 O445 1.241 . S
C442 O435 1.247 . S
C442 O436 1.261 . S
C443 O438 1.259 . S
C443 O440 1.235 . S
O444 Co434 2.021 . S
O444 C441 1.238 . S
O445 Co439 2.052 1_554 S
O445 C441 1.241 . S
O446 Co434 2.137 . S
O446 C437 1.247 . S
O447 Co434 2.244 . S
O447 C437 1.272 . S
O447 Co439 2.135 1_554 S
H448 C466 0.951 . S
H449 C468 0.951 . S
H450 C470 0.950 . S
H451 C471 0.950 . S
H452 C473 0.950 . S
H453 C476 0.950 . S
H454 C477 0.950 . S
H455 C479 0.950 . S
H456 C480 0.950 . S
H457 C481 0.951 . S
H458 C483 0.951 . S
H459 C485 0.950 . S
H460 C486 0.950 . S
H461 C488 0.950 . S
H462 C491 0.953 . S
H463 C492 0.950 . S
H464 C494 0.950 . S
H465 C495 0.950 . S
C466 H448 0.951 . S
C466 C467 1.366 . S
C466 C468 1.388 . S
C467 C466 1.366 . S
C467 C471 1.385 . S
C468 H449 0.951 . S
C468 C466 1.388 . S
C468 C469 1.366 . S
C469 C468 1.366 . S
C469 C470 1.414 . S
C469 C472 1.499 . S
C470 H450 0.950 . S
C470 C469 1.414 . S
C470 C471 1.374 . S
C471 H451 0.950 . S
C471 C467 1.385 . S
C471 C470 1.374 . S
C472 C469 1.499 . S
C472 C473 1.373 . S
C472 C474 1.389 . S
C473 H452 0.950 . S
C473 C472 1.373 . S
C473 C489 1.377 . S
C474 C472 1.389 . S
C474 C475 1.524 . S
C474 C488 1.377 . S
C475 C474 1.524 . S
C475 C476 1.397 . S
C475 C480 1.363 . S
C476 H453 0.950 . S
C476 C475 1.397 . S
C476 C477 1.334 . S
C477 H454 0.950 . S
C477 C476 1.334 . S
C477 C478 1.287 . S
C478 C477 1.287 . S
C478 C479 1.524 . S
C478 H497 0.913 . S
C479 H455 0.950 . S
C479 C478 1.524 . S
C479 C480 1.415 . S
C480 H456 0.950 . S
C480 C475 1.363 . S
C480 C479 1.415 . S
C481 H457 0.951 . S
C481 C482 1.366 . S
C481 C483 1.388 . S
C482 C481 1.366 . S
C482 C486 1.385 . S
C483 H458 0.951 . S
C483 C481 1.388 . S
C483 C484 1.366 . S
C484 C483 1.366 . S
C484 C485 1.414 . S
C484 C487 1.499 . S
C485 H459 0.950 . S
C485 C484 1.414 . S
C485 C486 1.374 . S
C486 H460 0.950 . S
C486 C482 1.385 . S
C486 C485 1.374 . S
C487 C484 1.499 . S
C487 C488 1.373 . S
C487 C489 1.389 . S
C488 H461 0.950 . S
C488 C474 1.377 . S
C488 C487 1.373 . S
C489 C473 1.377 . S
C489 C487 1.389 . S
C489 C490 1.524 . S
C490 C489 1.524 . S
C490 C491 1.397 1_455 S
C490 C495 1.363 . S
C491 H462 0.953 . S
C491 C490 1.397 1_655 S
C491 C492 1.334 . S
C492 H463 0.950 . S
C492 C491 1.334 . S
C492 C493 1.287 . S
C493 C492 1.287 . S
C493 C494 1.524 . S
C493 H496 0.999 . S
C494 H464 0.950 . S
C494 C493 1.524 . S
C494 C495 1.415 1_655 S
C495 H465 0.950 . S
C495 C490 1.363 . S
C495 C494 1.415 1_455 S
H496 C493 0.999 . S
H497 C478 0.913 . S
H498 C516 0.951 . S
H499 C518 0.951 . S
H500 C520 0.950 . S
H501 C521 0.950 . S
H502 C523 0.950 . S
H503 C526 0.950 . S
H504 C527 0.950 . S
H505 C529 0.950 . S
H506 C530 0.950 . S
H507 C531 0.951 . S
H508 C533 0.951 . S
H509 C535 0.950 . S
H510 C536 0.950 . S
H511 C538 0.950 . S
H512 C541 0.950 . S
H513 C542 0.950 . S
H514 C544 0.950 . S
H515 C545 0.950 . S
C516 H498 0.951 . S
C516 C517 1.366 . S
C516 C518 1.388 . S
C517 C516 1.366 . S
C517 C521 1.385 . S
C518 H499 0.951 . S
C518 C516 1.388 . S
C518 C519 1.366 . S
C519 C518 1.366 . S
C519 C520 1.414 . S
C519 C522 1.499 . S
C520 H500 0.950 . S
C520 C519 1.414 . S
C520 C521 1.374 . S
C521 H501 0.950 . S
C521 C517 1.385 . S
C521 C520 1.374 . S
C522 C519 1.499 . S
C522 C523 1.373 . S
C522 C524 1.389 . S
C523 H502 0.950 . S
C523 C522 1.373 . S
C523 C539 1.377 . S
C524 C522 1.389 . S
C524 C525 1.524 . S
C524 C538 1.377 . S
C525 C524 1.524 . S
C525 C526 1.397 . S
C525 C530 1.363 1_455 S
C526 H503 0.950 . S
C526 C525 1.397 . S
C526 C527 1.334 1_455 S
C527 H504 0.950 . S
C527 C526 1.334 1_655 S
C527 C528 1.287 . S
C528 C527 1.287 . S
C528 C529 1.524 . S
C528 H547 0.913 . S
C529 H505 0.950 . S
C529 C528 1.524 . S
C529 C530 1.415 . S
C530 H506 0.950 . S
C530 C525 1.363 1_655 S
C530 C529 1.415 . S
C531 H507 0.951 . S
C531 C532 1.366 . S
C531 C533 1.388 . S
C532 C531 1.366 . S
C532 C536 1.385 . S
C533 H508 0.951 . S
C533 C531 1.388 . S
C533 C534 1.366 . S
C534 C533 1.366 . S
C534 C535 1.414 . S
C534 C537 1.499 . S
C535 H509 0.950 . S
C535 C534 1.414 . S
C535 C536 1.374 . S
C536 H510 0.950 . S
C536 C532 1.385 . S
C536 C535 1.374 . S
C537 C534 1.499 . S
C537 C538 1.373 . S
C537 C539 1.389 . S
C538 H511 0.950 . S
C538 C524 1.377 . S
C538 C537 1.373 . S
C539 C523 1.377 . S
C539 C537 1.389 . S
C539 C540 1.524 . S
C540 C539 1.524 . S
C540 C541 1.397 . S
C540 C545 1.363 . S
C541 H512 0.950 . S
C541 C540 1.397 . S
C541 C542 1.334 . S
C542 H513 0.950 . S
C542 C541 1.334 . S
C542 C543 1.287 . S
C543 C542 1.287 . S
C543 C544 1.524 . S
C543 H546 0.999 . S
C544 H514 0.950 . S
C544 C543 1.524 . S
C544 C545 1.415 . S
C545 H515 0.950 . S
C545 C540 1.363 . S
C545 C544 1.415 . S
H546 C543 0.999 . S
H547 C528 0.913 . S
H548 C566 0.951 . S
H549 C568 0.951 . S
H550 C570 0.950 . S
H551 C571 0.950 . S
H552 C573 0.950 . S
H553 C576 0.950 . S
H554 C577 0.950 . S
H555 C579 0.950 . S
H556 C580 0.950 . S
H557 C581 0.972 . S
H558 C583 0.951 . S
H559 C585 0.950 . S
H560 C586 0.950 . S
H561 C588 0.950 . S
H562 C591 0.950 . S
H563 C592 0.950 . S
H564 C594 0.950 . S
H565 C595 0.950 . S
C566 H548 0.951 . S
C566 C567 1.366 . S
C566 C568 1.388 . S
C567 C566 1.366 . S
C567 C571 1.385 . S
C568 H549 0.951 . S
C568 C566 1.388 . S
C568 C569 1.366 . S
C569 C568 1.366 . S
C569 C570 1.414 . S
C569 C572 1.499 . S
C570 H550 0.950 . S
C570 C569 1.414 . S
C570 C571 1.374 . S
C571 H551 0.950 . S
C571 C567 1.385 . S
C571 C570 1.374 . S
C572 C569 1.499 . S
C572 C573 1.373 . S
C572 C574 1.389 . S
C573 H552 0.950 . S
C573 C572 1.373 . S
C573 C589 1.377 . S
C574 C572 1.389 . S
C574 C575 1.524 . S
C574 C588 1.377 . S
C575 C574 1.524 . S
C575 C576 1.397 . S
C575 C580 1.363 . S
C576 H553 0.950 . S
C576 C575 1.397 . S
C576 C577 1.334 . S
C577 H554 0.950 . S
C577 C576 1.334 . S
C577 C578 1.287 . S
C578 C577 1.287 . S
C578 C579 1.524 . S
C578 H597 0.913 . S
C579 H555 0.950 . S
C579 C578 1.524 . S
C579 C580 1.415 . S
C580 H556 0.950 . S
C580 C575 1.363 . S
C580 C579 1.415 . S
C581 H557 0.972 . S
C581 C582 1.366 . S
C581 C583 1.388 . S
C582 C581 1.366 . S
C582 C586 1.385 . S
C583 H558 0.951 . S
C583 C581 1.388 . S
C583 C584 1.366 . S
C584 C583 1.366 . S
C584 C585 1.414 . S
C584 C587 1.499 . S
C585 H559 0.950 . S
C585 C584 1.414 . S
C585 C586 1.374 . S
C586 H560 0.950 . S
C586 C582 1.385 . S
C586 C585 1.374 . S
C587 C584 1.499 . S
C587 C588 1.373 . S
C587 C589 1.389 . S
C588 H561 0.950 . S
C588 C574 1.377 . S
C588 C587 1.373 . S
C589 C573 1.377 . S
C589 C587 1.389 . S
C589 C590 1.524 . S
C590 C589 1.524 . S
C590 C591 1.397 . S
C590 C595 1.363 1_655 S
C591 H562 0.950 . S
C591 C590 1.397 . S
C591 C592 1.334 . S
C592 H563 0.950 . S
C592 C591 1.334 . S
C592 C593 1.287 1_655 S
C593 C592 1.287 1_455 S
C593 C594 1.524 . S
C593 H596 0.999 . S
C594 H564 0.950 . S
C594 C593 1.524 . S
C594 C595 1.415 . S
C595 H565 0.950 . S
C595 C590 1.363 1_455 S
C595 C594 1.415 . S
H596 C593 0.999 . S
H597 C578 0.913 . S
H598 C616 0.951 . S
H599 C618 0.951 . S
H600 C620 0.950 . S
H601 C621 0.950 . S
H602 C623 0.950 . S
H603 C626 0.950 . S
H604 C627 0.950 . S
H605 C629 0.950 . S
H606 C630 0.950 . S
H607 C631 0.951 . S
H608 C633 0.951 . S
H609 C635 0.950 . S
H610 C636 0.950 . S
H611 C638 0.950 . S
H612 C641 0.950 . S
H613 C642 0.950 . S
H614 C644 0.950 . S
H615 C645 0.950 . S
C616 H598 0.951 . S
C616 C617 1.366 . S
C616 C618 1.388 . S
C617 C616 1.366 . S
C617 C621 1.385 . S
C618 H599 0.951 . S
C618 C616 1.388 . S
C618 C619 1.366 . S
C619 C618 1.366 . S
C619 C620 1.414 . S
C619 C622 1.499 . S
C620 H600 0.950 . S
C620 C619 1.414 . S
C620 C621 1.374 . S
C621 H601 0.950 . S
C621 C617 1.385 . S
C621 C620 1.374 . S
C622 C619 1.499 . S
C622 C623 1.373 . S
C622 C624 1.389 . S
C623 H602 0.950 . S
C623 C622 1.373 . S
C623 C639 1.377 . S
C624 C622 1.389 . S
C624 C625 1.524 . S
C624 C638 1.377 . S
C625 C624 1.524 . S
C625 C626 1.397 . S
C625 C630 1.363 . S
C626 H603 0.950 . S
C626 C625 1.397 . S
C626 C627 1.334 . S
C627 H604 0.950 . S
C627 C626 1.334 . S
C627 C628 1.287 . S
C628 C627 1.287 . S
C628 C629 1.524 . S
C628 H647 0.913 . S
C629 H605 0.950 . S
C629 C628 1.524 . S
C629 C630 1.415 . S
C630 H606 0.950 . S
C630 C625 1.363 . S
C630 C629 1.415 . S
C631 H607 0.951 . S
C631 C632 1.366 . S
C631 C633 1.388 . S
C632 C631 1.366 . S
C632 C636 1.385 . S
C633 H608 0.951 . S
C633 C631 1.388 . S
C633 C634 1.366 . S
C634 C633 1.366 . S
C634 C635 1.414 . S
C634 C637 1.499 . S
C635 H609 0.950 . S
C635 C634 1.414 . S
C635 C636 1.374 . S
C636 H610 0.950 . S
C636 C632 1.385 . S
C636 C635 1.374 . S
C637 C634 1.499 . S
C637 C638 1.373 . S
C637 C639 1.389 . S
C638 H611 0.950 . S
C638 C624 1.377 . S
C638 C637 1.373 . S
C639 C623 1.377 . S
C639 C637 1.389 . S
C639 C640 1.524 . S
C640 C639 1.524 . S
C640 C641 1.397 . S
C640 C645 1.363 . S
C641 H612 0.950 . S
C641 C640 1.397 . S
C641 C642 1.334 . S
C642 H613 0.950 . S
C642 C641 1.334 . S
C642 C643 1.287 . S
C643 C642 1.287 . S
C643 C644 1.524 . S
C643 H646 0.999 . S
C644 H614 0.950 . S
C644 C643 1.524 . S
C644 C645 1.415 . S
C645 H615 0.950 . S
C645 C640 1.363 . S
C645 C644 1.415 . S
H646 C643 0.999 . S
H647 C628 0.913 . S
H648 C666 0.951 . S
H649 C668 0.951 . S
H650 C670 0.950 . S
H651 C671 0.950 . S
H652 C673 0.950 . S
H653 C676 0.950 . S
H654 C677 0.950 . S
H655 C679 0.950 . S
H656 C680 0.950 . S
H657 C681 0.951 . S
H658 C683 0.951 . S
H659 C685 0.950 . S
H660 C686 0.950 . S
H661 C688 0.950 . S
H662 C691 0.950 . S
H663 C692 0.950 . S
H664 C694 0.950 . S
H665 C695 0.950 . S
C666 H648 0.951 . S
C666 C667 1.366 . S
C666 C668 1.388 . S
C667 C666 1.366 . S
C667 C671 1.385 . S
C668 H649 0.951 . S
C668 C666 1.388 . S
C668 C669 1.366 . S
C669 C668 1.366 . S
C669 C670 1.414 . S
C669 C672 1.499 . S
C670 H650 0.950 . S
C670 C669 1.414 . S
C670 C671 1.374 . S
C671 H651 0.950 . S
C671 C667 1.385 . S
C671 C670 1.374 . S
C672 C669 1.499 . S
C672 C673 1.373 . S
C672 C674 1.389 . S
C673 H652 0.950 . S
C673 C672 1.373 . S
C673 C689 1.377 . S
C674 C672 1.389 . S
C674 C675 1.524 . S
C674 C688 1.377 . S
C675 C674 1.524 . S
C675 C676 1.397 . S
C675 C680 1.363 . S
C676 H653 0.950 . S
C676 C675 1.397 . S
C676 C677 1.334 . S
C677 H654 0.950 . S
C677 C676 1.334 . S
C677 C678 1.287 . S
C678 C677 1.287 . S
C678 C679 1.524 . S
C678 H697 0.913 . S
C679 H655 0.950 . S
C679 C678 1.524 . S
C679 C680 1.415 . S
C680 H656 0.950 . S
C680 C675 1.363 . S
C680 C679 1.415 . S
C681 H657 0.951 . S
C681 C682 1.366 . S
C681 C683 1.388 . S
C682 C681 1.366 . S
C682 C686 1.385 . S
C683 H658 0.951 . S
C683 C681 1.388 . S
C683 C684 1.366 . S
C684 C683 1.366 . S
C684 C685 1.414 . S
C684 C687 1.499 . S
C685 H659 0.950 . S
C685 C684 1.414 . S
C685 C686 1.374 . S
C686 H660 0.950 . S
C686 C682 1.385 . S
C686 C685 1.374 . S
C687 C684 1.499 . S
C687 C688 1.373 . S
C687 C689 1.389 . S
C688 H661 0.950 . S
C688 C674 1.377 . S
C688 C687 1.373 . S
C689 C673 1.377 . S
C689 C687 1.389 . S
C689 C690 1.524 . S
C690 C689 1.524 . S
C690 C691 1.397 . S
C690 C695 1.363 . S
C691 H662 0.950 . S
C691 C690 1.397 . S
C691 C692 1.334 . S
C692 H663 0.950 . S
C692 C691 1.334 . S
C692 C693 1.287 . S
C693 C692 1.287 . S
C693 C694 1.524 . S
C693 H696 0.999 . S
C694 H664 0.950 . S
C694 C693 1.524 . S
C694 C695 1.415 . S
C695 H665 0.950 . S
C695 C690 1.363 . S
C695 C694 1.415 . S
H696 C693 0.999 . S
H697 C678 0.913 . S
H698 C716 0.951 . S
H699 C718 0.951 . S
H700 C720 0.950 . S
H701 C721 0.950 . S
H702 C723 0.950 . S
H703 C726 0.950 . S
H704 C727 0.950 . S
H705 C729 0.950 . S
H706 C730 0.950 1_655 S
H707 C731 0.951 . S
H708 C733 0.951 . S
H709 C735 0.950 . S
H710 C736 0.967 . S
H711 C738 0.950 . S
H712 C741 0.950 . S
H713 C742 0.950 . S
H714 C744 0.950 . S
H715 C745 0.950 . S
C716 H698 0.951 . S
C716 C717 1.366 . S
C716 C718 1.388 . S
C717 C716 1.366 . S
C717 C721 1.385 . S
C718 H699 0.951 . S
C718 C716 1.388 . S
C718 C719 1.366 . S
C719 C718 1.366 . S
C719 C720 1.414 . S
C719 C722 1.499 . S
C720 H700 0.950 . S
C720 C719 1.414 . S
C720 C721 1.374 . S
C721 H701 0.950 . S
C721 C717 1.385 . S
C721 C720 1.374 . S
C722 C719 1.499 . S
C722 C723 1.373 . S
C722 C724 1.389 . S
C723 H702 0.950 . S
C723 C722 1.373 . S
C723 C739 1.377 . S
C724 C722 1.389 . S
C724 C725 1.524 . S
C724 C738 1.377 . S
C725 C724 1.524 . S
C725 C726 1.397 . S
C725 C730 1.363 . S
C726 H703 0.950 . S
C726 C725 1.397 . S
C726 C727 1.334 . S
C727 H704 0.950 . S
C727 C726 1.334 . S
C727 C728 1.287 . S
C728 C727 1.287 . S
C728 C729 1.524 1_455 S
C728 H747 0.913 . S
C729 H705 0.950 . S
C729 C728 1.524 1_655 S
C729 C730 1.415 1_655 S
C730 H706 0.950 1_455 S
C730 C725 1.363 . S
C730 C729 1.415 1_455 S
C731 H707 0.951 . S
C731 C732 1.366 . S
C731 C733 1.388 . S
C732 C731 1.366 . S
C732 C736 1.385 . S
C733 H708 0.951 . S
C733 C731 1.388 . S
C733 C734 1.366 . S
C734 C733 1.366 . S
C734 C735 1.414 . S
C734 C737 1.499 . S
C735 H709 0.950 . S
C735 C734 1.414 . S
C735 C736 1.374 . S
C736 H710 0.967 . S
C736 C732 1.385 . S
C736 C735 1.374 . S
C737 C734 1.499 . S
C737 C738 1.373 . S
C737 C739 1.389 . S
C738 H711 0.950 . S
C738 C724 1.377 . S
C738 C737 1.373 . S
C739 C723 1.377 . S
C739 C737 1.389 . S
C739 C740 1.524 . S
C740 C739 1.524 . S
C740 C741 1.397 . S
C740 C745 1.363 . S
C741 H712 0.950 . S
C741 C740 1.397 . S
C741 C742 1.334 . S
C742 H713 0.950 . S
C742 C741 1.334 . S
C742 C743 1.287 . S
C743 C742 1.287 . S
C743 C744 1.524 . S
C743 H746 0.999 . S
C744 H714 0.950 . S
C744 C743 1.524 . S
C744 C745 1.415 . S
C745 H715 0.950 . S
C745 C740 1.363 . S
C745 C744 1.415 . S
H746 C743 0.999 . S
H747 C728 0.913 . S
H748 C766 0.951 . S
H749 C768 0.951 . S
H750 C770 0.950 . S
H751 C771 0.950 . S
H752 C773 0.950 . S
H753 C776 0.950 . S
H754 C777 0.950 . S
H755 C779 0.950 . S
H756 C780 0.950 . S
H757 C781 0.951 . S
H758 C783 0.951 . S
H759 C785 0.950 . S
H760 C786 0.950 . S
H761 C788 0.950 . S
H762 C791 0.950 . S
H763 C792 0.950 . S
H764 C794 0.950 . S
H765 C795 0.950 . S
C766 H748 0.951 . S
C766 C767 1.366 . S
C766 C768 1.388 . S
C767 C766 1.366 . S
C767 C771 1.385 . S
C768 H749 0.951 . S
C768 C766 1.388 . S
C768 C769 1.366 . S
C769 C768 1.366 . S
C769 C770 1.414 . S
C769 C772 1.499 . S
C770 H750 0.950 . S
C770 C769 1.414 . S
C770 C771 1.374 . S
C771 H751 0.950 . S
C771 C767 1.385 . S
C771 C770 1.374 . S
C772 C769 1.499 . S
C772 C773 1.373 . S
C772 C774 1.389 . S
C773 H752 0.950 . S
C773 C772 1.373 . S
C773 C789 1.377 . S
C774 C772 1.389 . S
C774 C775 1.524 . S
C774 C788 1.377 . S
C775 C774 1.524 . S
C775 C776 1.397 . S
C775 C780 1.363 . S
C776 H753 0.950 . S
C776 C775 1.397 . S
C776 C777 1.334 1_655 S
C777 H754 0.950 . S
C777 C776 1.334 1_455 S
C777 C778 1.287 . S
C778 C777 1.287 . S
C778 C779 1.524 . S
C778 H797 0.913 . S
C779 H755 0.950 . S
C779 C778 1.524 . S
C779 C780 1.415 1_455 S
C780 H756 0.950 . S
C780 C775 1.363 . S
C780 C779 1.415 1_655 S
C781 H757 0.951 . S
C781 C782 1.366 . S
C781 C783 1.388 . S
C782 C781 1.366 . S
C782 C786 1.385 . S
C783 H758 0.951 . S
C783 C781 1.388 . S
C783 C784 1.366 . S
C784 C783 1.366 . S
C784 C785 1.414 . S
C784 C787 1.499 . S
C785 H759 0.950 . S
C785 C784 1.414 . S
C785 C786 1.374 . S
C786 H760 0.950 . S
C786 C782 1.385 . S
C786 C785 1.374 . S
C787 C784 1.499 . S
C787 C788 1.373 . S
C787 C789 1.389 . S
C788 H761 0.950 . S
C788 C774 1.377 . S
C788 C787 1.373 . S
C789 C773 1.377 . S
C789 C787 1.389 . S
C789 C790 1.524 . S
C790 C789 1.524 . S
C790 C791 1.397 . S
C790 C795 1.363 . S
C791 H762 0.950 . S
C791 C790 1.397 . S
C791 C792 1.334 . S
C792 H763 0.950 . S
C792 C791 1.334 . S
C792 C793 1.287 . S
C793 C792 1.287 . S
C793 C794 1.524 . S
C793 H796 0.999 . S
C794 H764 0.950 . S
C794 C793 1.524 . S
C794 C795 1.415 . S
C795 H765 0.950 . S
C795 C790 1.363 . S
C795 C794 1.415 . S
H796 C793 0.999 . S
H797 C778 0.913 . S
H798 C816 0.951 . S
H799 C818 0.951 . S
H800 C820 0.950 . S
H801 C821 0.950 . S
H802 C823 0.950 . S
H803 C826 0.950 . S
H804 C827 0.950 . S
H805 C829 0.950 . S
H806 C830 0.950 . S
H807 C831 0.951 . S
H808 C833 0.951 . S
H809 C835 0.950 . S
H810 C836 0.950 . S
H811 C838 0.950 . S
H812 C841 0.950 . S
H813 C842 0.950 . S
H814 C844 0.950 . S
H815 C845 0.950 . S
C816 H798 0.951 . S
C816 C817 1.366 . S
C816 C818 1.388 . S
C817 C816 1.366 . S
C817 C821 1.385 . S
C818 H799 0.951 . S
C818 C816 1.388 . S
C818 C819 1.366 . S
C819 C818 1.366 . S
C819 C820 1.414 . S
C819 C822 1.499 . S
C820 H800 0.950 . S
C820 C819 1.414 . S
C820 C821 1.374 . S
C821 H801 0.950 . S
C821 C817 1.385 . S
C821 C820 1.374 . S
C822 C819 1.499 . S
C822 C823 1.373 . S
C822 C824 1.389 . S
C823 H802 0.950 . S
C823 C822 1.373 . S
C823 C839 1.377 . S
C824 C822 1.389 . S
C824 C825 1.524 . S
C824 C838 1.377 . S
C825 C824 1.524 . S
C825 C826 1.397 . S
C825 C830 1.363 . S
C826 H803 0.950 . S
C826 C825 1.397 . S
C826 C827 1.334 . S
C827 H804 0.950 . S
C827 C826 1.334 . S
C827 C828 1.287 . S
C828 C827 1.287 . S
C828 C829 1.524 . S
C828 H847 0.913 . S
C829 H805 0.950 . S
C829 C828 1.524 . S
C829 C830 1.415 . S
C830 H806 0.950 . S
C830 C825 1.363 . S
C830 C829 1.415 . S
C831 H807 0.951 . S
C831 C832 1.366 . S
C831 C833 1.388 . S
C832 C831 1.366 . S
C832 C836 1.385 . S
C833 H808 0.951 . S
C833 C831 1.388 . S
C833 C834 1.366 . S
C834 C833 1.366 . S
C834 C835 1.414 . S
C834 C837 1.499 . S
C835 H809 0.950 . S
C835 C834 1.414 . S
C835 C836 1.374 . S
C836 H810 0.950 . S
C836 C832 1.385 . S
C836 C835 1.374 . S
C837 C834 1.499 . S
C837 C838 1.373 . S
C837 C839 1.389 . S
C838 H811 0.950 . S
C838 C824 1.377 . S
C838 C837 1.373 . S
C839 C823 1.377 . S
C839 C837 1.389 . S
C839 C840 1.524 . S
C840 C839 1.524 . S
C840 C841 1.397 . S
C840 C845 1.363 . S
C841 H812 0.950 . S
C841 C840 1.397 . S
C841 C842 1.334 1_655 S
C842 H813 0.950 . S
C842 C841 1.334 1_455 S
C842 C843 1.287 1_455 S
C843 C842 1.287 1_655 S
C843 C844 1.524 . S
C843 H846 0.999 1_655 S
C844 H814 0.950 . S
C844 C843 1.524 . S
C844 C845 1.415 . S
C845 H815 0.950 . S
C845 C840 1.363 . S
C845 C844 1.415 . S
H846 C843 0.999 1_455 S
H847 C828 0.913 . S
H848 C866 0.951 . S
H849 C868 0.951 . S
H850 C870 0.950 . S
H851 C871 0.950 . S
H852 C873 0.950 . S
H853 C876 0.950 . S
H854 C877 0.950 . S
H855 C879 0.950 . S
H856 C880 0.950 . S
H857 C881 0.951 . S
H858 C883 0.951 . S
H859 C885 0.950 . S
H860 C886 0.950 . S
H861 C888 0.950 . S
H862 C891 0.950 . S
H863 C892 0.950 . S
H864 C894 0.950 . S
H865 C895 0.950 . S
C866 H848 0.951 . S
C866 C867 1.366 . S
C866 C868 1.388 . S
C867 C866 1.366 . S
C867 C871 1.385 . S
C868 H849 0.951 . S
C868 C866 1.388 . S
C868 C869 1.366 . S
C869 C868 1.366 . S
C869 C870 1.414 . S
C869 C872 1.499 . S
C870 H850 0.950 . S
C870 C869 1.414 . S
C870 C871 1.374 . S
C871 H851 0.950 . S
C871 C867 1.385 . S
C871 C870 1.374 . S
C872 C869 1.499 . S
C872 C873 1.373 . S
C872 C874 1.389 . S
C873 H852 0.950 . S
C873 C872 1.373 . S
C873 C889 1.377 . S
C874 C872 1.389 . S
C874 C875 1.524 . S
C874 C888 1.377 . S
C875 C874 1.524 . S
C875 C876 1.397 . S
C875 C880 1.363 . S
C876 H853 0.950 . S
C876 C875 1.397 . S
C876 C877 1.334 . S
C877 H854 0.950 . S
C877 C876 1.334 . S
C877 C878 1.287 . S
C878 C877 1.287 . S
C878 C879 1.524 . S
C878 H897 0.913 . S
C879 H855 0.950 . S
C879 C878 1.524 . S
C879 C880 1.415 . S
C880 H856 0.950 . S
C880 C875 1.363 . S
C880 C879 1.415 . S
C881 H857 0.951 . S
C881 C882 1.366 . S
C881 C883 1.388 . S
C882 C881 1.366 . S
C882 C886 1.385 . S
C883 H858 0.951 . S
C883 C881 1.388 . S
C883 C884 1.366 . S
C884 C883 1.366 . S
C884 C885 1.414 . S
C884 C887 1.499 . S
C885 H859 0.950 . S
C885 C884 1.414 . S
C885 C886 1.374 . S
C886 H860 0.950 . S
C886 C882 1.385 . S
C886 C885 1.374 . S
C887 C884 1.499 . S
C887 C888 1.373 . S
C887 C889 1.389 . S
C888 H861 0.950 . S
C888 C874 1.377 . S
C888 C887 1.373 . S
C889 C873 1.377 . S
C889 C887 1.389 . S
C889 C890 1.524 . S
C890 C889 1.524 . S
C890 C891 1.397 . S
C890 C895 1.363 . S
C891 H862 0.950 . S
C891 C890 1.397 . S
C891 C892 1.334 . S
C892 H863 0.950 . S
C892 C891 1.334 . S
C892 C893 1.287 . S
C893 C892 1.287 . S
C893 C894 1.524 . S
C893 H896 0.999 . S
C894 H864 0.950 . S
C894 C893 1.524 . S
C894 C895 1.415 . S
C895 H865 0.950 . S
C895 C890 1.363 . S
C895 C894 1.415 . S
H896 C893 0.999 . S
H897 C878 0.913 . S
H898 C916 0.951 . S
H899 C918 0.951 . S
H900 C920 0.950 . S
H901 C921 0.950 . S
H902 C923 0.950 . S
H903 C926 0.950 . S
H904 C927 0.950 . S
H905 C929 0.950 . S
H906 C930 0.950 . S
H907 C931 0.951 . S
H908 C933 0.951 . S
H909 C935 0.950 . S
H910 C936 0.950 . S
H911 C938 0.950 . S
H912 C941 0.950 . S
H913 C942 0.950 . S
H914 C944 0.950 . S
H915 C945 0.950 . S
C916 H898 0.951 . S
C916 C917 1.366 . S
C916 C918 1.388 . S
C917 C916 1.366 . S
C917 C921 1.385 . S
C918 H899 0.951 . S
C918 C916 1.388 . S
C918 C919 1.366 . S
C919 C918 1.366 . S
C919 C920 1.414 . S
C919 C922 1.499 . S
C920 H900 0.950 . S
C920 C919 1.414 . S
C920 C921 1.374 . S
C921 H901 0.950 . S
C921 C917 1.385 . S
C921 C920 1.374 . S
C922 C919 1.499 . S
C922 C923 1.373 . S
C922 C924 1.389 . S
C923 H902 0.950 . S
C923 C922 1.373 . S
C923 C939 1.377 . S
C924 C922 1.389 . S
C924 C925 1.524 . S
C924 C938 1.377 . S
C925 C924 1.524 . S
C925 C926 1.397 . S
C925 C930 1.363 . S
C926 H903 0.950 . S
C926 C925 1.397 . S
C926 C927 1.334 . S
C927 H904 0.950 . S
C927 C926 1.334 . S
C927 C928 1.287 . S
C928 C927 1.287 . S
C928 C929 1.524 . S
C928 H947 0.913 . S
C929 H905 0.950 . S
C929 C928 1.524 . S
C929 C930 1.415 . S
C930 H906 0.950 . S
C930 C925 1.363 . S
C930 C929 1.415 . S
C931 H907 0.951 . S
C931 C932 1.366 . S
C931 C933 1.388 . S
C932 C931 1.366 . S
C932 C936 1.385 . S
C933 H908 0.951 . S
C933 C931 1.388 . S
C933 C934 1.366 . S
C934 C933 1.366 . S
C934 C935 1.414 . S
C934 C937 1.499 . S
C935 H909 0.950 . S
C935 C934 1.414 . S
C935 C936 1.374 . S
C936 H910 0.950 . S
C936 C932 1.385 . S
C936 C935 1.374 . S
C937 C934 1.499 . S
C937 C938 1.373 . S
C937 C939 1.389 . S
C938 H911 0.950 . S
C938 C924 1.377 . S
C938 C937 1.373 . S
C939 C923 1.377 . S
C939 C937 1.389 . S
C939 C940 1.524 . S
C940 C939 1.524 . S
C940 C941 1.397 . S
C940 C945 1.363 . S
C941 H912 0.950 . S
C941 C940 1.397 . S
C941 C942 1.334 . S
C942 H913 0.950 . S
C942 C941 1.334 . S
C942 C943 1.287 . S
C943 C942 1.287 . S
C943 C944 1.524 . S
C943 H946 0.999 . S
C944 H914 0.950 . S
C944 C943 1.524 . S
C944 C945 1.415 . S
C945 H915 0.950 . S
C945 C940 1.363 . S
C945 C944 1.415 . S
H946 C943 0.999 . S
H947 C928 0.913 . S
H948 C966 0.951 . S
H949 C968 0.951 . S
H950 C970 0.950 . S
H951 C971 0.950 . S
H952 C973 0.950 . S
H953 C976 0.950 . S
H954 C977 0.950 . S
H955 C979 0.950 . S
H956 C980 0.950 . S
H957 C981 0.951 . S
H958 C983 0.951 . S
H959 C985 0.950 . S
H960 C986 0.950 . S
H961 C988 0.950 . S
H962 C991 0.950 . S
H963 C992 0.950 . S
H964 C994 0.950 . S
H965 C995 0.950 . S
C966 H948 0.951 . S
C966 C967 1.366 . S
C966 C968 1.388 . S
C967 C966 1.366 . S
C967 C971 1.385 . S
C968 H949 0.951 . S
C968 C966 1.388 . S
C968 C969 1.366 . S
C969 C968 1.366 . S
C969 C970 1.414 . S
C969 C972 1.499 . S
C970 H950 0.950 . S
C970 C969 1.414 . S
C970 C971 1.374 . S
C971 H951 0.950 . S
C971 C967 1.385 . S
C971 C970 1.374 . S
C972 C969 1.499 . S
C972 C973 1.373 . S
C972 C974 1.389 . S
C973 H952 0.950 . S
C973 C972 1.373 . S
C973 C989 1.377 . S
C974 C972 1.389 . S
C974 C975 1.524 . S
C974 C988 1.377 . S
C975 C974 1.524 . S
C975 C976 1.397 . S
C975 C980 1.363 . S
C976 H953 0.950 . S
C976 C975 1.397 . S
C976 C977 1.334 . S
C977 H954 0.950 . S
C977 C976 1.334 . S
C977 C978 1.287 . S
C978 C977 1.287 . S
C978 C979 1.524 . S
C978 H997 0.913 . S
C979 H955 0.950 . S
C979 C978 1.524 . S
C979 C980 1.415 . S
C980 H956 0.950 . S
C980 C975 1.363 . S
C980 C979 1.415 . S
C981 H957 0.951 . S
C981 C982 1.366 . S
C981 C983 1.388 . S
C982 C981 1.366 . S
C982 C986 1.385 . S
C983 H958 0.951 . S
C983 C981 1.388 . S
C983 C984 1.366 . S
C984 C983 1.366 . S
C984 C985 1.414 . S
C984 C987 1.499 . S
C985 H959 0.950 . S
C985 C984 1.414 . S
C985 C986 1.374 . S
C986 H960 0.950 . S
C986 C982 1.385 . S
C986 C985 1.374 . S
C987 C984 1.499 . S
C987 C988 1.373 . S
C987 C989 1.389 . S
C988 H961 0.950 . S
C988 C974 1.377 . S
C988 C987 1.373 . S
C989 C973 1.377 . S
C989 C987 1.389 . S
C989 C990 1.524 . S
C990 C989 1.524 . S
C990 C991 1.397 . S
C990 C995 1.363 . S
C991 H962 0.950 . S
C991 C990 1.397 . S
C991 C992 1.334 . S
C992 H963 0.950 . S
C992 C991 1.334 . S
C992 C993 1.287 . S
C993 C992 1.287 . S
C993 C994 1.524 . S
C993 H996 0.999 . S
C994 H964 0.950 . S
C994 C993 1.524 . S
C994 C995 1.415 . S
C995 H965 0.950 . S
C995 C990 1.363 . S
C995 C994 1.415 . S
H996 C993 0.999 . S
H997 C978 0.913 . S
H998 C1016 0.951 . S
H999 C1018 0.951 . S
H1000 C1020 0.950 . S
H1001 C1021 0.950 . S
H1002 C1023 0.950 . S
H1003 C1026 0.950 . S
H1004 C1027 0.950 . S
H1005 C1029 0.950 . S
H1006 C1030 0.950 . S
H1007 C1031 0.951 . S
H1008 C1033 0.951 . S
H1009 C1035 0.950 . S
H1010 C1036 0.950 . S
H1011 C1038 0.950 . S
H1012 C1041 0.950 . S
H1013 C1042 0.950 . S
H1014 C1044 0.950 . S
H1015 C1045 0.950 . S
C1016 H998 0.951 . S
C1016 C1017 1.366 . S
C1016 C1018 1.388 . S
C1017 C1016 1.366 . S
C1017 C1021 1.385 . S
C1018 H999 0.951 . S
C1018 C1016 1.388 . S
C1018 C1019 1.366 . S
C1019 C1018 1.366 . S
C1019 C1020 1.414 . S
C1019 C1022 1.499 . S
C1020 H1000 0.950 . S
C1020 C1019 1.414 . S
C1020 C1021 1.374 . S
C1021 H1001 0.950 . S
C1021 C1017 1.385 . S
C1021 C1020 1.374 . S
C1022 C1019 1.499 . S
C1022 C1023 1.373 . S
C1022 C1024 1.389 . S
C1023 H1002 0.950 . S
C1023 C1022 1.373 . S
C1023 C1039 1.377 . S
C1024 C1022 1.389 . S
C1024 C1025 1.524 . S
C1024 C1038 1.377 . S
C1025 C1024 1.524 . S
C1025 C1026 1.397 . S
C1025 C1030 1.363 . S
C1026 H1003 0.950 . S
C1026 C1025 1.397 . S
C1026 C1027 1.334 . S
C1027 H1004 0.950 . S
C1027 C1026 1.334 . S
C1027 C1028 1.287 . S
C1028 C1027 1.287 . S
C1028 C1029 1.524 . S
C1028 H1047 0.913 . S
C1029 H1005 0.950 . S
C1029 C1028 1.524 . S
C1029 C1030 1.415 . S
C1030 H1006 0.950 . S
C1030 C1025 1.363 . S
C1030 C1029 1.415 . S
C1031 H1007 0.951 . S
C1031 C1032 1.366 . S
C1031 C1033 1.388 . S
C1032 C1031 1.366 . S
C1032 C1036 1.385 . S
C1033 H1008 0.951 . S
C1033 C1031 1.388 . S
C1033 C1034 1.366 . S
C1034 C1033 1.366 . S
C1034 C1035 1.414 . S
C1034 C1037 1.499 . S
C1035 H1009 0.950 . S
C1035 C1034 1.414 . S
C1035 C1036 1.374 . S
C1036 H1010 0.950 . S
C1036 C1032 1.385 . S
C1036 C1035 1.374 . S
C1037 C1034 1.499 . S
C1037 C1038 1.373 . S
C1037 C1039 1.389 . S
C1038 H1011 0.950 . S
C1038 C1024 1.377 . S
C1038 C1037 1.373 . S
C1039 C1023 1.377 . S
C1039 C1037 1.389 . S
C1039 C1040 1.524 . S
C1040 C1039 1.524 . S
C1040 C1041 1.397 . S
C1040 C1045 1.363 . S
C1041 H1012 0.950 . S
C1041 C1040 1.397 . S
C1041 C1042 1.334 . S
C1042 H1013 0.950 . S
C1042 C1041 1.334 . S
C1042 C1043 1.287 . S
C1043 C1042 1.287 . S
C1043 C1044 1.524 . S
C1043 H1046 0.999 . S
C1044 H1014 0.950 . S
C1044 C1043 1.524 . S
C1044 C1045 1.415 . S
C1045 H1015 0.950 . S
C1045 C1040 1.363 . S
C1045 C1044 1.415 . S
H1046 C1043 0.999 . S
H1047 C1028 0.913 . S
H1048 C1066 0.951 . S
H1049 C1068 0.951 . S
H1050 C1070 0.950 . S
H1051 C1071 0.950 . S
H1052 C1073 0.950 . S
H1053 C1076 0.950 . S
H1054 C1077 0.950 . S
H1055 C1079 0.950 . S
H1056 C1080 0.950 . S
H1057 C1081 0.951 . S
H1058 C1083 0.951 . S
H1059 C1085 0.950 . S
H1060 C1086 0.950 . S
H1061 C1088 0.950 . S
H1062 C1091 0.950 . S
H1063 C1092 0.950 . S
H1064 C1094 0.950 . S
H1065 C1095 0.950 . S
C1066 H1048 0.951 . S
C1066 C1067 1.366 . S
C1066 C1068 1.388 . S
C1067 C1066 1.366 . S
C1067 C1071 1.385 . S
C1068 H1049 0.951 . S
C1068 C1066 1.388 . S
C1068 C1069 1.366 . S
C1069 C1068 1.366 . S
C1069 C1070 1.414 . S
C1069 C1072 1.499 . S
C1070 H1050 0.950 . S
C1070 C1069 1.414 . S
C1070 C1071 1.374 . S
C1071 H1051 0.950 . S
C1071 C1067 1.385 . S
C1071 C1070 1.374 . S
C1072 C1069 1.499 . S
C1072 C1073 1.373 . S
C1072 C1074 1.389 . S
C1073 H1052 0.950 . S
C1073 C1072 1.373 . S
C1073 C1089 1.377 . S
C1074 C1072 1.389 . S
C1074 C1075 1.524 . S
C1074 C1088 1.377 . S
C1075 C1074 1.524 . S
C1075 C1076 1.397 . S
C1075 C1080 1.363 . S
C1076 H1053 0.950 . S
C1076 C1075 1.397 . S
C1076 C1077 1.334 . S
C1077 H1054 0.950 . S
C1077 C1076 1.334 . S
C1077 C1078 1.287 . S
C1078 C1077 1.287 . S
C1078 C1079 1.524 . S
C1078 H1097 0.913 . S
C1079 H1055 0.950 . S
C1079 C1078 1.524 . S
C1079 C1080 1.415 . S
C1080 H1056 0.950 . S
C1080 C1075 1.363 . S
C1080 C1079 1.415 . S
C1081 H1057 0.951 . S
C1081 C1082 1.366 . S
C1081 C1083 1.388 . S
C1082 C1081 1.366 . S
C1082 C1086 1.385 . S
C1083 H1058 0.951 . S
C1083 C1081 1.388 . S
C1083 C1084 1.366 . S
C1084 C1083 1.366 . S
C1084 C1085 1.414 . S
C1084 C1087 1.499 . S
C1085 H1059 0.950 . S
C1085 C1084 1.414 . S
C1085 C1086 1.374 . S
C1086 H1060 0.950 . S
C1086 C1082 1.385 . S
C1086 C1085 1.374 . S
C1087 C1084 1.499 . S
C1087 C1088 1.373 . S
C1087 C1089 1.389 . S
C1088 H1061 0.950 . S
C1088 C1074 1.377 . S
C1088 C1087 1.373 . S
C1089 C1073 1.377 . S
C1089 C1087 1.389 . S
C1089 C1090 1.524 . S
C1090 C1089 1.524 . S
C1090 C1091 1.397 . S
C1090 C1095 1.363 . S
C1091 H1062 0.950 . S
C1091 C1090 1.397 . S
C1091 C1092 1.334 . S
C1092 H1063 0.950 . S
C1092 C1091 1.334 . S
C1092 C1093 1.287 . S
C1093 C1092 1.287 . S
C1093 C1094 1.524 . S
C1093 H1096 0.999 . S
C1094 H1064 0.950 . S
C1094 C1093 1.524 . S
C1094 C1095 1.415 . S
C1095 H1065 0.950 . S
C1095 C1090 1.363 . S
C1095 C1094 1.415 . S
H1096 C1093 0.999 . S
H1097 C1078 0.913 . S
H1098 C1116 0.951 . S
H1099 C1118 0.951 . S
H1100 C1120 0.950 . S
H1101 C1121 0.950 . S
H1102 C1123 0.950 . S
H1103 C1126 0.950 . S
H1104 C1127 0.950 . S
H1105 C1129 0.950 . S
H1106 C1130 0.950 . S
H1107 C1131 0.951 . S
H1108 C1133 0.951 . S
H1109 C1135 0.950 . S
H1110 C1136 0.950 . S
H1111 C1138 0.950 . S
H1112 C1141 0.950 . S
H1113 C1142 0.950 . S
H1114 C1144 0.950 . S
H1115 C1145 0.950 . S
C1116 H1098 0.951 . S
C1116 C1117 1.366 . S
C1116 C1118 1.388 . S
C1117 C1116 1.366 . S
C1117 C1121 1.385 . S
C1118 H1099 0.951 . S
C1118 C1116 1.388 . S
C1118 C1119 1.366 . S
C1119 C1118 1.366 . S
C1119 C1120 1.414 . S
C1119 C1122 1.499 . S
C1120 H1100 0.950 . S
C1120 C1119 1.414 . S
C1120 C1121 1.374 . S
C1121 H1101 0.950 . S
C1121 C1117 1.385 . S
C1121 C1120 1.374 . S
C1122 C1119 1.499 . S
C1122 C1123 1.373 . S
C1122 C1124 1.389 . S
C1123 H1102 0.950 . S
C1123 C1122 1.373 . S
C1123 C1139 1.377 . S
C1124 C1122 1.389 . S
C1124 C1125 1.524 . S
C1124 C1138 1.377 . S
C1125 C1124 1.524 . S
C1125 C1126 1.397 . S
C1125 C1130 1.363 . S
C1126 H1103 0.950 . S
C1126 C1125 1.397 . S
C1126 C1127 1.334 . S
C1127 H1104 0.950 . S
C1127 C1126 1.334 . S
C1127 C1128 1.287 . S
C1128 C1127 1.287 . S
C1128 C1129 1.524 . S
C1128 H1147 0.913 . S
C1129 H1105 0.950 . S
C1129 C1128 1.524 . S
C1129 C1130 1.415 . S
C1130 H1106 0.950 . S
C1130 C1125 1.363 . S
C1130 C1129 1.415 . S
C1131 H1107 0.951 . S
C1131 C1132 1.366 . S
C1131 C1133 1.388 . S
C1132 C1131 1.366 . S
C1132 C1136 1.385 . S
C1133 H1108 0.951 . S
C1133 C1131 1.388 . S
C1133 C1134 1.366 . S
C1134 C1133 1.366 . S
C1134 C1135 1.414 . S
C1134 C1137 1.499 . S
C1135 H1109 0.950 . S
C1135 C1134 1.414 . S
C1135 C1136 1.374 . S
C1136 H1110 0.950 . S
C1136 C1132 1.385 . S
C1136 C1135 1.374 . S
C1137 C1134 1.499 . S
C1137 C1138 1.373 . S
C1137 C1139 1.389 . S
C1138 H1111 0.950 . S
C1138 C1124 1.377 . S
C1138 C1137 1.373 . S
C1139 C1123 1.377 . S
C1139 C1137 1.389 . S
C1139 C1140 1.524 . S
C1140 C1139 1.524 . S
C1140 C1141 1.397 . S
C1140 C1145 1.363 . S
C1141 H1112 0.950 . S
C1141 C1140 1.397 . S
C1141 C1142 1.334 . S
C1142 H1113 0.950 . S
C1142 C1141 1.334 . S
C1142 C1143 1.287 . S
C1143 C1142 1.287 . S
C1143 C1144 1.524 . S
C1143 H1146 0.999 . S
C1144 H1114 0.950 . S
C1144 C1143 1.524 . S
C1144 C1145 1.415 . S
C1145 H1115 0.950 . S
C1145 C1140 1.363 . S
C1145 C1144 1.415 . S
H1146 C1143 0.999 . S
H1147 C1128 0.913 . S
H1148 C1166 0.951 . S
H1149 C1168 0.951 . S
H1150 C1170 0.950 . S
H1151 C1171 0.950 . S
H1152 C1173 0.950 . S
H1153 C1176 0.950 . S
H1154 C1177 0.950 . S
H1155 C1179 0.950 . S
H1156 C1180 0.950 . S
H1157 C1181 0.951 . S
H1158 C1183 0.951 . S
H1159 C1185 0.950 . S
H1160 C1186 0.950 . S
H1161 C1188 0.950 . S
H1162 C1191 0.950 . S
H1163 C1192 0.950 . S
H1164 C1194 0.950 . S
H1165 C1195 0.950 . S
C1166 H1148 0.951 . S
C1166 C1167 1.366 . S
C1166 C1168 1.388 . S
C1167 C1166 1.366 . S
C1167 C1171 1.385 . S
C1168 H1149 0.951 . S
C1168 C1166 1.388 . S
C1168 C1169 1.366 . S
C1169 C1168 1.366 . S
C1169 C1170 1.414 . S
C1169 C1172 1.499 . S
C1170 H1150 0.950 . S
C1170 C1169 1.414 . S
C1170 C1171 1.374 . S
C1171 H1151 0.950 . S
C1171 C1167 1.385 . S
C1171 C1170 1.374 . S
C1172 C1169 1.499 . S
C1172 C1173 1.373 . S
C1172 C1174 1.389 . S
C1173 H1152 0.950 . S
C1173 C1172 1.373 . S
C1173 C1189 1.377 . S
C1174 C1172 1.389 . S
C1174 C1175 1.524 . S
C1174 C1188 1.377 . S
C1175 C1174 1.524 . S
C1175 C1176 1.397 . S
C1175 C1180 1.363 . S
C1176 H1153 0.950 . S
C1176 C1175 1.397 . S
C1176 C1177 1.334 . S
C1177 H1154 0.950 . S
C1177 C1176 1.334 . S
C1177 C1178 1.287 . S
C1178 C1177 1.287 . S
C1178 C1179 1.524 . S
C1178 H1197 0.913 . S
C1179 H1155 0.950 . S
C1179 C1178 1.524 . S
C1179 C1180 1.415 . S
C1180 H1156 0.950 . S
C1180 C1175 1.363 . S
C1180 C1179 1.415 . S
C1181 H1157 0.951 . S
C1181 C1182 1.366 . S
C1181 C1183 1.388 . S
C1182 C1181 1.366 . S
C1182 C1186 1.385 . S
C1183 H1158 0.951 . S
C1183 C1181 1.388 . S
C1183 C1184 1.366 . S
C1184 C1183 1.366 . S
C1184 C1185 1.414 . S
C1184 C1187 1.499 . S
C1185 H1159 0.950 . S
C1185 C1184 1.414 . S
C1185 C1186 1.374 . S
C1186 H1160 0.950 . S
C1186 C1182 1.385 . S
C1186 C1185 1.374 . S
C1187 C1184 1.499 . S
C1187 C1188 1.373 . S
C1187 C1189 1.389 . S
C1188 H1161 0.950 . S
C1188 C1174 1.377 . S
C1188 C1187 1.373 . S
C1189 C1173 1.377 . S
C1189 C1187 1.389 . S
C1189 C1190 1.524 . S
C1190 C1189 1.524 . S
C1190 C1191 1.397 . S
C1190 C1195 1.363 . S
C1191 H1162 0.950 . S
C1191 C1190 1.397 . S
C1191 C1192 1.334 . S
C1192 H1163 0.950 . S
C1192 C1191 1.334 . S
C1192 C1193 1.287 . S
C1193 C1192 1.287 . S
C1193 C1194 1.524 . S
C1193 H1196 0.999 . S
C1194 H1164 0.950 . S
C1194 C1193 1.524 . S
C1194 C1195 1.415 . S
C1195 H1165 0.950 . S
C1195 C1190 1.363 . S
C1195 C1194 1.415 . S
H1196 C1193 0.999 . S
H1197 C1178 0.913 . S
H1198 C1216 0.951 . S
H1199 C1218 0.951 . S
H1200 C1220 0.950 . S
H1201 C1221 0.950 . S
H1202 C1223 0.950 . S
H1203 C1226 0.950 . S
H1204 C1227 0.950 . S
H1205 C1229 0.950 . S
H1206 C1230 0.950 . S
H1207 C1231 0.951 . S
H1208 C1233 0.951 . S
H1209 C1235 0.950 . S
H1210 C1236 0.950 . S
H1211 C1238 0.950 . S
H1212 C1241 0.950 . S
H1213 C1242 0.950 . S
H1214 C1244 0.950 . S
H1215 C1245 0.950 . S
C1216 H1198 0.951 . S
C1216 C1217 1.366 . S
C1216 C1218 1.388 . S
C1217 C1216 1.366 . S
C1217 C1221 1.385 . S
C1218 H1199 0.951 . S
C1218 C1216 1.388 . S
C1218 C1219 1.366 . S
C1219 C1218 1.366 . S
C1219 C1220 1.414 . S
C1219 C1222 1.499 . S
C1220 H1200 0.950 . S
C1220 C1219 1.414 . S
C1220 C1221 1.374 . S
C1221 H1201 0.950 . S
C1221 C1217 1.385 . S
C1221 C1220 1.374 . S
C1222 C1219 1.499 . S
C1222 C1223 1.373 . S
C1222 C1224 1.389 . S
C1223 H1202 0.950 . S
C1223 C1222 1.373 . S
C1223 C1239 1.377 . S
C1224 C1222 1.389 . S
C1224 C1225 1.524 . S
C1224 C1238 1.377 . S
C1225 C1224 1.524 . S
C1225 C1226 1.397 . S
C1225 C1230 1.363 . S
C1226 H1203 0.950 . S
C1226 C1225 1.397 . S
C1226 C1227 1.334 . S
C1227 H1204 0.950 . S
C1227 C1226 1.334 . S
C1227 C1228 1.287 . S
C1228 C1227 1.287 . S
C1228 C1229 1.524 . S
C1228 H1247 0.913 . S
C1229 H1205 0.950 . S
C1229 C1228 1.524 . S
C1229 C1230 1.415 . S
C1230 H1206 0.950 . S
C1230 C1225 1.363 . S
C1230 C1229 1.415 . S
C1231 H1207 0.951 . S
C1231 C1232 1.366 . S
C1231 C1233 1.388 . S
C1232 C1231 1.366 . S
C1232 C1236 1.385 . S
C1233 H1208 0.951 . S
C1233 C1231 1.388 . S
C1233 C1234 1.366 . S
C1234 C1233 1.366 . S
C1234 C1235 1.414 . S
C1234 C1237 1.499 . S
C1235 H1209 0.950 . S
C1235 C1234 1.414 . S
C1235 C1236 1.374 . S
C1236 H1210 0.950 . S
C1236 C1232 1.385 . S
C1236 C1235 1.374 . S
C1237 C1234 1.499 . S
C1237 C1238 1.373 . S
C1237 C1239 1.389 . S
C1238 H1211 0.950 . S
C1238 C1224 1.377 . S
C1238 C1237 1.373 . S
C1239 C1223 1.377 . S
C1239 C1237 1.389 . S
C1239 C1240 1.524 . S
C1240 C1239 1.524 . S
C1240 C1241 1.397 . S
C1240 C1245 1.363 . S
C1241 H1212 0.950 . S
C1241 C1240 1.397 . S
C1241 C1242 1.334 . S
C1242 H1213 0.950 . S
C1242 C1241 1.334 . S
C1242 C1243 1.287 . S
C1243 C1242 1.287 . S
C1243 C1244 1.524 . S
C1243 H1246 0.999 . S
C1244 H1214 0.950 . S
C1244 C1243 1.524 . S
C1244 C1245 1.415 . S
C1245 H1215 0.950 . S
C1245 C1240 1.363 . S
C1245 C1244 1.415 . S
H1246 C1243 0.999 . S
H1247 C1228 0.913 . S
H1248 C1266 0.951 . S
H1249 C1268 0.951 . S
H1250 C1270 0.950 . S
H1251 C1271 0.950 . S
H1252 C1273 0.950 . S
H1253 C1276 0.950 . S
H1254 C1277 0.950 . S
H1255 C1279 0.950 . S
H1256 C1280 0.950 . S
H1257 C1281 0.951 . S
H1258 C1283 0.951 . S
H1259 C1285 0.950 . S
H1260 C1286 0.950 . S
H1261 C1288 0.950 . S
H1262 C1291 0.950 . S
H1263 C1292 0.950 . S
H1264 C1294 0.950 . S
H1265 C1295 0.950 . S
C1266 H1248 0.951 . S
C1266 C1267 1.366 . S
C1266 C1268 1.388 . S
C1267 C1266 1.366 . S
C1267 C1271 1.385 . S
C1268 H1249 0.951 . S
C1268 C1266 1.388 . S
C1268 C1269 1.366 . S
C1269 C1268 1.366 . S
C1269 C1270 1.414 . S
C1269 C1272 1.499 . S
C1270 H1250 0.950 . S
C1270 C1269 1.414 . S
C1270 C1271 1.374 . S
C1271 H1251 0.950 . S
C1271 C1267 1.385 . S
C1271 C1270 1.374 . S
C1272 C1269 1.499 . S
C1272 C1273 1.373 . S
C1272 C1274 1.389 . S
C1273 H1252 0.950 . S
C1273 C1272 1.373 . S
C1273 C1289 1.377 1_565 S
C1274 C1272 1.389 . S
C1274 C1275 1.524 . S
C1274 C1288 1.377 1_565 S
C1275 C1274 1.524 . S
C1275 C1276 1.397 . S
C1275 C1280 1.363 . S
C1276 H1253 0.950 . S
C1276 C1275 1.397 . S
C1276 C1277 1.334 . S
C1277 H1254 0.950 . S
C1277 C1276 1.334 . S
C1277 C1278 1.287 . S
C1278 C1277 1.287 . S
C1278 C1279 1.524 . S
C1278 H1297 0.913 . S
C1279 H1255 0.950 . S
C1279 C1278 1.524 . S
C1279 C1280 1.415 . S
C1280 H1256 0.950 . S
C1280 C1275 1.363 . S
C1280 C1279 1.415 . S
C1281 H1257 0.951 . S
C1281 C1282 1.366 . S
C1281 C1283 1.388 . S
C1282 C1281 1.366 . S
C1282 C1286 1.385 . S
C1283 H1258 0.951 . S
C1283 C1281 1.388 . S
C1283 C1284 1.366 . S
C1284 C1283 1.366 . S
C1284 C1285 1.414 . S
C1284 C1287 1.499 . S
C1285 H1259 0.950 . S
C1285 C1284 1.414 . S
C1285 C1286 1.374 . S
C1286 H1260 0.950 . S
C1286 C1282 1.385 . S
C1286 C1285 1.374 . S
C1287 C1284 1.499 . S
C1287 C1288 1.373 . S
C1287 C1289 1.389 . S
C1288 H1261 0.950 . S
C1288 C1274 1.377 1_545 S
C1288 C1287 1.373 . S
C1289 C1273 1.377 1_545 S
C1289 C1287 1.389 . S
C1289 C1290 1.524 . S
C1290 C1289 1.524 . S
C1290 C1291 1.397 . S
C1290 C1295 1.363 . S
C1291 H1262 0.950 . S
C1291 C1290 1.397 . S
C1291 C1292 1.334 . S
C1292 H1263 0.950 . S
C1292 C1291 1.334 . S
C1292 C1293 1.287 . S
C1293 C1292 1.287 . S
C1293 C1294 1.524 . S
C1293 H1296 0.999 . S
C1294 H1264 0.950 . S
C1294 C1293 1.524 . S
C1294 C1295 1.415 . S
C1295 H1265 0.950 . S
C1295 C1290 1.363 . S
C1295 C1294 1.415 . S
H1296 C1293 0.999 . S
H1297 C1278 0.913 . S
H1298 C1316 0.951 . S
H1299 C1318 0.951 . S
H1300 C1320 0.950 1_455 S
H1301 C1321 0.950 . S
H1302 C1323 0.950 . S
H1303 C1326 0.950 . S
H1304 C1327 0.950 1_455 S
H1305 C1329 0.950 . S
H1306 C1330 0.950 . S
H1307 C1331 0.951 . S
H1308 C1333 0.951 . S
H1309 C1335 0.950 1_655 S
H1310 C1336 0.950 . S
H1311 C1338 0.950 . S
H1312 C1341 0.950 . S
H1313 C1342 0.950 1_655 S
H1314 C1344 0.950 . S
H1315 C1345 0.950 . S
C1316 H1298 0.951 . S
C1316 C1317 1.366 . S
C1316 C1318 1.388 . S
C1317 C1316 1.366 . S
C1317 C1321 1.385 . S
C1318 H1299 0.951 . S
C1318 C1316 1.388 . S
C1318 C1319 1.366 . S
C1319 C1318 1.366 . S
C1319 C1320 1.414 . S
C1319 C1322 1.499 . S
C1320 H1300 0.950 1_655 S
C1320 C1319 1.414 . S
C1320 C1321 1.374 . S
C1321 H1301 0.950 . S
C1321 C1317 1.385 . S
C1321 C1320 1.374 . S
C1322 C1319 1.499 . S
C1322 C1323 1.373 . S
C1322 C1324 1.389 . S
C1323 H1302 0.950 . S
C1323 C1322 1.373 . S
C1323 C1339 1.377 1_655 S
C1324 C1322 1.389 . S
C1324 C1325 1.524 . S
C1324 C1338 1.377 1_655 S
C1325 C1324 1.524 . S
C1325 C1326 1.397 1_655 S
C1325 C1330 1.363 . S
C1326 H1303 0.950 . S
C1326 C1325 1.397 1_455 S
C1326 C1327 1.334 1_455 S
C1327 H1304 0.950 1_655 S
C1327 C1326 1.334 1_655 S
C1327 C1328 1.287 . S
C1328 C1327 1.287 . S
C1328 C1329 1.524 . S
C1328 H1347 0.913 . S
C1329 H1305 0.950 . S
C1329 C1328 1.524 . S
C1329 C1330 1.415 . S
C1330 H1306 0.950 . S
C1330 C1325 1.363 . S
C1330 C1329 1.415 . S
C1331 H1307 0.951 . S
C1331 C1332 1.366 . S
C1331 C1333 1.388 . S
C1332 C1331 1.366 . S
C1332 C1336 1.385 . S
C1333 H1308 0.951 . S
C1333 C1331 1.388 . S
C1333 C1334 1.366 . S
C1334 C1333 1.366 . S
C1334 C1335 1.414 . S
C1334 C1337 1.499 . S
C1335 H1309 0.950 1_455 S
C1335 C1334 1.414 . S
C1335 C1336 1.374 . S
C1336 H1310 0.950 . S
C1336 C1332 1.385 . S
C1336 C1335 1.374 . S
C1337 C1334 1.499 . S
C1337 C1338 1.373 . S
C1337 C1339 1.389 . S
C1338 H1311 0.950 . S
C1338 C1324 1.377 1_455 S
C1338 C1337 1.373 . S
C1339 C1323 1.377 1_455 S
C1339 C1337 1.389 . S
C1339 C1340 1.524 . S
C1340 C1339 1.524 . S
C1340 C1341 1.397 1_455 S
C1340 C1345 1.363 . S
C1341 H1312 0.950 . S
C1341 C1340 1.397 1_655 S
C1341 C1342 1.334 1_655 S
C1342 H1313 0.950 1_455 S
C1342 C1341 1.334 1_455 S
C1342 C1343 1.287 . S
C1343 C1342 1.287 . S
C1343 C1344 1.524 . S
C1343 H1346 0.999 . S
C1344 H1314 0.950 . S
C1344 C1343 1.524 . S
C1344 C1345 1.415 . S
C1345 H1315 0.950 . S
C1345 C1340 1.363 . S
C1345 C1344 1.415 . S
H1346 C1343 0.999 . S
H1347 C1328 0.913 . S
H1348 C1366 0.951 . S
H1349 C1368 0.951 . S
H1350 C1370 0.950 . S
H1351 C1371 0.950 . S
H1352 C1373 0.950 . S
H1353 C1376 0.950 . S
H1354 C1377 0.950 . S
H1355 C1379 0.950 . S
H1356 C1380 0.950 . S
H1357 C1381 0.951 . S
H1358 C1383 0.951 . S
H1359 C1385 0.950 . S
H1360 C1386 0.950 . S
H1361 C1388 0.950 . S
H1362 C1391 0.950 . S
H1363 C1392 0.950 . S
H1364 C1394 0.950 . S
H1365 C1395 0.950 . S
C1366 H1348 0.951 . S
C1366 C1367 1.366 . S
C1366 C1368 1.388 . S
C1367 C1366 1.366 . S
C1367 C1371 1.385 . S
C1368 H1349 0.951 . S
C1368 C1366 1.388 . S
C1368 C1369 1.366 . S
C1369 C1368 1.366 . S
C1369 C1370 1.414 . S
C1369 C1372 1.499 . S
C1370 H1350 0.950 . S
C1370 C1369 1.414 . S
C1370 C1371 1.374 . S
C1371 H1351 0.950 . S
C1371 C1367 1.385 . S
C1371 C1370 1.374 . S
C1372 C1369 1.499 . S
C1372 C1373 1.373 . S
C1372 C1374 1.389 1_556 S
C1373 H1352 0.950 . S
C1373 C1372 1.373 . S
C1373 C1389 1.377 . S
C1374 C1372 1.389 1_554 S
C1374 C1375 1.524 . S
C1374 C1388 1.377 . S
C1375 C1374 1.524 . S
C1375 C1376 1.397 . S
C1375 C1380 1.363 . S
C1376 H1353 0.950 . S
C1376 C1375 1.397 . S
C1376 C1377 1.334 . S
C1377 H1354 0.950 . S
C1377 C1376 1.334 . S
C1377 C1378 1.287 . S
C1378 C1377 1.287 . S
C1378 C1379 1.524 . S
C1378 H1397 0.913 . S
C1379 H1355 0.950 . S
C1379 C1378 1.524 . S
C1379 C1380 1.415 . S
C1380 H1356 0.950 . S
C1380 C1375 1.363 . S
C1380 C1379 1.415 . S
C1381 H1357 0.951 . S
C1381 C1382 1.366 . S
C1381 C1383 1.388 . S
C1382 C1381 1.366 . S
C1382 C1386 1.385 . S
C1383 H1358 0.951 . S
C1383 C1381 1.388 . S
C1383 C1384 1.366 . S
C1384 C1383 1.366 . S
C1384 C1385 1.414 . S
C1384 C1387 1.499 . S
C1385 H1359 0.950 . S
C1385 C1384 1.414 . S
C1385 C1386 1.374 . S
C1386 H1360 0.950 . S
C1386 C1382 1.385 . S
C1386 C1385 1.374 . S
C1387 C1384 1.499 . S
C1387 C1388 1.373 . S
C1387 C1389 1.389 1_554 S
C1388 H1361 0.950 . S
C1388 C1374 1.377 . S
C1388 C1387 1.373 . S
C1389 C1373 1.377 . S
C1389 C1387 1.389 1_556 S
C1389 C1390 1.524 . S
C1390 C1389 1.524 . S
C1390 C1391 1.397 . S
C1390 C1395 1.363 . S
C1391 H1362 0.950 . S
C1391 C1390 1.397 . S
C1391 C1392 1.334 . S
C1392 H1363 0.950 . S
C1392 C1391 1.334 . S
C1392 C1393 1.287 . S
C1393 C1392 1.287 . S
C1393 C1394 1.524 . S
C1393 H1396 0.999 . S
C1394 H1364 0.950 . S
C1394 C1393 1.524 . S
C1394 C1395 1.415 . S
C1395 H1365 0.950 . S
C1395 C1390 1.363 . S
C1395 C1394 1.415 . S
H1396 C1393 0.999 . S
H1397 C1378 0.913 . S
H1398 C1416 0.951 . S
H1399 C1418 0.951 . S
H1400 C1420 0.950 . S
H1401 C1421 0.950 . S
H1402 C1423 0.950 . S
H1403 C1426 0.950 . S
H1404 C1427 0.950 . S
H1405 C1429 0.950 . S
H1406 C1430 0.950 . S
H1407 C1431 0.951 . S
H1408 C1433 0.951 . S
H1409 C1435 0.950 . S
H1410 C1436 0.950 . S
H1411 C1438 0.950 . S
H1412 C1441 0.950 . S
H1413 C1442 0.950 . S
H1414 C1444 0.950 . S
H1415 C1445 0.950 . S
C1416 H1398 0.951 . S
C1416 C1417 1.366 . S
C1416 C1418 1.388 . S
C1417 C1416 1.366 . S
C1417 C1421 1.385 1_556 S
C1418 H1399 0.951 . S
C1418 C1416 1.388 . S
C1418 C1419 1.366 . S
C1419 C1418 1.366 . S
C1419 C1420 1.414 1_556 S
C1419 C1422 1.499 . S
C1420 H1400 0.950 . S
C1420 C1419 1.414 1_554 S
C1420 C1421 1.374 . S
C1421 H1401 0.950 . S
C1421 C1417 1.385 1_554 S
C1421 C1420 1.374 . S
C1422 C1419 1.499 . S
C1422 C1423 1.373 1_556 S
C1422 C1424 1.389 1_455 S
C1423 H1402 0.950 . S
C1423 C1422 1.373 1_554 S
C1423 C1439 1.377 1_545 S
C1424 C1422 1.389 1_655 S
C1424 C1425 1.524 . S
C1424 C1438 1.377 1_545 S
C1425 C1424 1.524 . S
C1425 C1426 1.397 1_556 S
C1425 C1430 1.363 . S
C1426 H1403 0.950 . S
C1426 C1425 1.397 1_554 S
C1426 C1427 1.334 . S
C1427 H1404 0.950 . S
C1427 C1426 1.334 . S
C1427 C1428 1.287 1_554 S
C1428 C1427 1.287 1_556 S
C1428 C1429 1.524 . S
C1428 H1447 0.913 . S
C1429 H1405 0.950 . S
C1429 C1428 1.524 . S
C1429 C1430 1.415 . S
C1430 H1406 0.950 . S
C1430 C1425 1.363 . S
C1430 C1429 1.415 . S
C1431 H1407 0.951 . S
C1431 C1432 1.366 . S
C1431 C1433 1.388 . S
C1432 C1431 1.366 . S
C1432 C1436 1.385 1_554 S
C1433 H1408 0.951 . S
C1433 C1431 1.388 . S
C1433 C1434 1.366 . S
C1434 C1433 1.366 . S
C1434 C1435 1.414 1_554 S
C1434 C1437 1.499 . S
C1435 H1409 0.950 . S
C1435 C1434 1.414 1_556 S
C1435 C1436 1.374 . S
C1436 H1410 0.950 . S
C1436 C1432 1.385 1_556 S
C1436 C1435 1.374 . S
C1437 C1434 1.499 . S
C1437 C1438 1.373 1_554 S
C1437 C1439 1.389 1_655 S
C1438 H1411 0.950 . S
C1438 C1424 1.377 1_565 S
C1438 C1437 1.373 1_556 S
C1439 C1423 1.377 1_565 S
C1439 C1437 1.389 1_455 S
C1439 C1440 1.524 . S
C1440 C1439 1.524 . S
C1440 C1441 1.397 1_554 S
C1440 C1445 1.363 . S
C1441 H1412 0.950 . S
C1441 C1440 1.397 1_556 S
C1441 C1442 1.334 . S
C1442 H1413 0.950 . S
C1442 C1441 1.334 . S
C1442 C1443 1.287 1_556 S
C1443 C1442 1.287 1_554 S
C1443 C1444 1.524 . S
C1443 H1446 0.999 . S
C1444 H1414 0.950 . S
C1444 C1443 1.524 . S
C1444 C1445 1.415 . S
C1445 H1415 0.950 . S
C1445 C1440 1.363 . S
C1445 C1444 1.415 . S
H1446 C1443 0.999 . S
H1447 C1428 0.913 . S
H1448 C1466 0.951 . S
H1449 C1468 0.951 . S
H1450 C1470 0.950 . S
H1451 C1471 0.950 . S
H1452 C1473 0.950 . S
H1453 C1476 0.950 . S
H1454 C1477 0.950 . S
H1455 C1479 0.950 . S
H1456 C1480 0.950 . S
H1457 C1481 0.951 . S
H1458 C1483 0.951 . S
H1459 C1485 0.950 . S
H1460 C1486 0.950 . S
H1461 C1488 0.950 . S
H1462 C1491 0.950 . S
H1463 C1492 0.950 . S
H1464 C1494 0.950 . S
H1465 C1495 0.950 . S
C1466 H1448 0.951 . S
C1466 C1467 1.366 . S
C1466 C1468 1.388 . S
C1467 C1466 1.366 . S
C1467 C1471 1.385 . S
C1468 H1449 0.951 . S
C1468 C1466 1.388 . S
C1468 C1469 1.366 . S
C1469 C1468 1.366 . S
C1469 C1470 1.414 . S
C1469 C1472 1.499 . S
C1470 H1450 0.950 . S
C1470 C1469 1.414 . S
C1470 C1471 1.374 . S
C1471 H1451 0.950 . S
C1471 C1467 1.385 . S
C1471 C1470 1.374 . S
C1472 C1469 1.499 . S
C1472 C1473 1.373 . S
C1472 C1474 1.389 . S
C1473 H1452 0.950 . S
C1473 C1472 1.373 . S
C1473 C1489 1.377 1_545 S
C1474 C1472 1.389 . S
C1474 C1475 1.524 . S
C1474 C1488 1.377 1_545 S
C1475 C1474 1.524 . S
C1475 C1476 1.397 . S
C1475 C1480 1.363 . S
C1476 H1453 0.950 . S
C1476 C1475 1.397 . S
C1476 C1477 1.334 . S
C1477 H1454 0.950 . S
C1477 C1476 1.334 . S
C1477 C1478 1.287 . S
C1478 C1477 1.287 . S
C1478 C1479 1.524 . S
C1478 H1497 0.913 . S
C1479 H1455 0.950 . S
C1479 C1478 1.524 . S
C1479 C1480 1.415 . S
C1480 H1456 0.950 . S
C1480 C1475 1.363 . S
C1480 C1479 1.415 . S
C1481 H1457 0.951 . S
C1481 C1482 1.366 . S
C1481 C1483 1.388 . S
C1482 C1481 1.366 . S
C1482 C1486 1.385 . S
C1483 H1458 0.951 . S
C1483 C1481 1.388 . S
C1483 C1484 1.366 . S
C1484 C1483 1.366 . S
C1484 C1485 1.414 . S
C1484 C1487 1.499 . S
C1485 H1459 0.950 . S
C1485 C1484 1.414 . S
C1485 C1486 1.374 . S
C1486 H1460 0.950 . S
C1486 C1482 1.385 . S
C1486 C1485 1.374 . S
C1487 C1484 1.499 . S
C1487 C1488 1.373 . S
C1487 C1489 1.389 . S
C1488 H1461 0.950 . S
C1488 C1474 1.377 1_565 S
C1488 C1487 1.373 . S
C1489 C1473 1.377 1_565 S
C1489 C1487 1.389 . S
C1489 C1490 1.524 . S
C1490 C1489 1.524 . S
C1490 C1491 1.397 . S
C1490 C1495 1.363 . S
C1491 H1462 0.950 . S
C1491 C1490 1.397 . S
C1491 C1492 1.334 . S
C1492 H1463 0.950 . S
C1492 C1491 1.334 . S
C1492 C1493 1.287 . S
C1493 C1492 1.287 . S
C1493 C1494 1.524 . S
C1493 H1496 0.999 . S
C1494 H1464 0.950 . S
C1494 C1493 1.524 . S
C1494 C1495 1.415 . S
C1495 H1465 0.950 . S
C1495 C1490 1.363 . S
C1495 C1494 1.415 . S
H1496 C1493 0.999 . S
H1497 C1478 0.913 . S
H1498 C1516 0.951 . S
H1499 C1518 0.951 1_655 S
H1500 C1520 0.950 . S
H1501 C1521 0.950 . S
H1502 C1523 0.950 . S
H1503 C1526 0.950 . S
H1504 C1527 0.950 . S
H1505 C1529 0.950 . S
H1506 C1530 0.950 . S
H1507 C1531 0.951 . S
H1508 C1533 0.951 1_455 S
H1509 C1535 0.950 . S
H1510 C1536 0.950 . S
H1511 C1538 0.950 . S
H1512 C1541 0.950 . S
H1513 C1542 0.950 . S
H1514 C1544 0.950 . S
H1515 C1545 0.950 . S
C1516 H1498 0.951 . S
C1516 C1517 1.366 . S
C1516 C1518 1.388 . S
C1517 C1516 1.366 . S
C1517 C1521 1.385 . S
C1518 H1499 0.951 1_455 S
C1518 C1516 1.388 . S
C1518 C1519 1.366 . S
C1519 C1518 1.366 . S
C1519 C1520 1.414 . S
C1519 C1522 1.499 . S
C1520 H1500 0.950 . S
C1520 C1519 1.414 . S
C1520 C1521 1.374 . S
C1521 H1501 0.950 . S
C1521 C1517 1.385 . S
C1521 C1520 1.374 . S
C1522 C1519 1.499 . S
C1522 C1523 1.373 . S
C1522 C1524 1.389 1_455 S
C1523 H1502 0.950 . S
C1523 C1522 1.373 . S
C1523 C1539 1.377 . S
C1524 C1522 1.389 1_655 S
C1524 C1525 1.524 . S
C1524 C1538 1.377 . S
C1525 C1524 1.524 . S
C1525 C1526 1.397 1_655 S
C1525 C1530 1.363 . S
C1526 H1503 0.950 . S
C1526 C1525 1.397 1_455 S
C1526 C1527 1.334 . S
C1527 H1504 0.950 . S
C1527 C1526 1.334 . S
C1527 C1528 1.287 . S
C1528 C1527 1.287 . S
C1528 C1529 1.524 1_455 S
C1528 H1547 0.913 . S
C1529 H1505 0.950 . S
C1529 C1528 1.524 1_655 S
C1529 C1530 1.415 . S
C1530 H1506 0.950 . S
C1530 C1525 1.363 . S
C1530 C1529 1.415 . S
C1531 H1507 0.951 . S
C1531 C1532 1.366 . S
C1531 C1533 1.388 . S
C1532 C1531 1.366 . S
C1532 C1536 1.385 . S
C1533 H1508 0.951 1_655 S
C1533 C1531 1.388 . S
C1533 C1534 1.366 . S
C1534 C1533 1.366 . S
C1534 C1535 1.414 . S
C1534 C1537 1.499 . S
C1535 H1509 0.950 . S
C1535 C1534 1.414 . S
C1535 C1536 1.374 . S
C1536 H1510 0.950 . S
C1536 C1532 1.385 . S
C1536 C1535 1.374 . S
C1537 C1534 1.499 . S
C1537 C1538 1.373 . S
C1537 C1539 1.389 1_655 S
C1538 H1511 0.950 . S
C1538 C1524 1.377 . S
C1538 C1537 1.373 . S
C1539 C1523 1.377 . S
C1539 C1537 1.389 1_455 S
C1539 C1540 1.524 . S
C1540 C1539 1.524 . S
C1540 C1541 1.397 1_455 S
C1540 C1545 1.363 . S
C1541 H1512 0.950 . S
C1541 C1540 1.397 1_655 S
C1541 C1542 1.334 . S
C1542 H1513 0.950 . S
C1542 C1541 1.334 . S
C1542 C1543 1.287 . S
C1543 C1542 1.287 . S
C1543 C1544 1.524 1_655 S
C1543 H1546 0.999 . S
C1544 H1514 0.950 . S
C1544 C1543 1.524 1_455 S
C1544 C1545 1.415 . S
C1545 H1515 0.950 . S
C1545 C1540 1.363 . S
C1545 C1544 1.415 . S
H1546 C1543 0.999 . S
H1547 C1528 0.913 . S
H1548 C1566 0.951 . S
H1549 C1568 0.951 . S
H1550 C1570 0.950 . S
H1551 C1571 0.950 . S
H1552 C1573 0.950 . S
H1553 C1576 0.950 1_556 S
H1554 C1577 0.950 . S
H1555 C1579 0.950 . S
H1556 C1580 0.950 . S
H1557 C1581 0.951 . S
H1558 C1583 0.951 . S
H1559 C1585 0.950 . S
H1560 C1586 0.950 . S
H1561 C1588 0.950 . S
H1562 C1591 0.950 1_554 S
H1563 C1592 0.950 . S
H1564 C1594 0.950 . S
H1565 C1595 0.950 . S
C1566 H1548 0.951 . S
C1566 C1567 1.366 1_554 S
C1566 C1568 1.388 . S
C1567 C1566 1.366 1_556 S
C1567 C1571 1.385 . S
C1568 H1549 0.951 . S
C1568 C1566 1.388 . S
C1568 C1569 1.366 1_554 S
C1569 C1568 1.366 1_556 S
C1569 C1570 1.414 . S
C1569 C1572 1.499 . S
C1570 H1550 0.950 . S
C1570 C1569 1.414 . S
C1570 C1571 1.374 . S
C1571 H1551 0.950 . S
C1571 C1567 1.385 . S
C1571 C1570 1.374 . S
C1572 C1569 1.499 . S
C1572 C1573 1.373 . S
C1572 C1574 1.389 1_556 S
C1573 H1552 0.950 . S
C1573 C1572 1.373 . S
C1573 C1589 1.377 . S
C1574 C1572 1.389 1_554 S
C1574 C1575 1.524 . S
C1574 C1588 1.377 . S
C1575 C1574 1.524 . S
C1575 C1576 1.397 . S
C1575 C1580 1.363 . S
C1576 H1553 0.950 1_554 S
C1576 C1575 1.397 . S
C1576 C1577 1.334 . S
C1577 H1554 0.950 . S
C1577 C1576 1.334 . S
C1577 C1578 1.287 . S
C1578 C1577 1.287 . S
C1578 C1579 1.524 . S
C1578 H1597 0.913 . S
C1579 H1555 0.950 . S
C1579 C1578 1.524 . S
C1579 C1580 1.415 . S
C1580 H1556 0.950 . S
C1580 C1575 1.363 . S
C1580 C1579 1.415 . S
C1581 H1557 0.951 . S
C1581 C1582 1.366 1_556 S
C1581 C1583 1.388 . S
C1582 C1581 1.366 1_554 S
C1582 C1586 1.385 . S
C1583 H1558 0.951 . S
C1583 C1581 1.388 . S
C1583 C1584 1.366 1_556 S
C1584 C1583 1.366 1_554 S
C1584 C1585 1.414 . S
C1584 C1587 1.499 . S
C1585 H1559 0.950 . S
C1585 C1584 1.414 . S
C1585 C1586 1.374 . S
C1586 H1560 0.950 . S
C1586 C1582 1.385 . S
C1586 C1585 1.374 . S
C1587 C1584 1.499 . S
C1587 C1588 1.373 . S
C1587 C1589 1.389 1_554 S
C1588 H1561 0.950 . S
C1588 C1574 1.377 . S
C1588 C1587 1.373 . S
C1589 C1573 1.377 . S
C1589 C1587 1.389 1_556 S
C1589 C1590 1.524 . S
C1590 C1589 1.524 . S
C1590 C1591 1.397 . S
C1590 C1595 1.363 . S
C1591 H1562 0.950 1_556 S
C1591 C1590 1.397 . S
C1591 C1592 1.334 . S
C1592 H1563 0.950 . S
C1592 C1591 1.334 . S
C1592 C1593 1.287 . S
C1593 C1592 1.287 . S
C1593 C1594 1.524 . S
C1593 H1596 0.999 . S
C1594 H1564 0.950 . S
C1594 C1593 1.524 . S
C1594 C1595 1.415 . S
C1595 H1565 0.950 . S
C1595 C1590 1.363 . S
C1595 C1594 1.415 . S
H1596 C1593 0.999 . S
H1597 C1578 0.913 . S
H1598 C1616 0.951 . S
H1599 C1618 0.951 . S
H1600 C1620 0.950 . S
H1601 C1621 0.950 . S
H1602 C1623 0.950 . S
H1603 C1626 0.950 . S
H1604 C1627 0.950 . S
H1605 C1629 0.950 . S
H1606 C1630 0.950 . S
H1607 C1631 0.951 . S
H1608 C1633 0.951 . S
H1609 C1635 0.950 . S
H1610 C1636 0.950 . S
H1611 C1638 0.950 . S
H1612 C1641 0.950 . S
H1613 C1642 0.950 . S
H1614 C1644 0.950 . S
H1615 C1645 0.950 . S
C1616 H1598 0.951 . S
C1616 C1617 1.366 . S
C1616 C1618 1.388 . S
C1617 C1616 1.366 . S
C1617 C1621 1.385 . S
C1618 H1599 0.951 . S
C1618 C1616 1.388 . S
C1618 C1619 1.366 . S
C1619 C1618 1.366 . S
C1619 C1620 1.414 . S
C1619 C1622 1.499 . S
C1620 H1600 0.950 . S
C1620 C1619 1.414 . S
C1620 C1621 1.374 . S
C1621 H1601 0.950 . S
C1621 C1617 1.385 . S
C1621 C1620 1.374 . S
C1622 C1619 1.499 . S
C1622 C1623 1.373 . S
C1622 C1624 1.389 . S
C1623 H1602 0.950 . S
C1623 C1622 1.373 . S
C1623 C1639 1.377 . S
C1624 C1622 1.389 . S
C1624 C1625 1.524 . S
C1624 C1638 1.377 . S
C1625 C1624 1.524 . S
C1625 C1626 1.397 . S
C1625 C1630 1.363 . S
C1626 H1603 0.950 . S
C1626 C1625 1.397 . S
C1626 C1627 1.334 . S
C1627 H1604 0.950 . S
C1627 C1626 1.334 . S
C1627 C1628 1.287 . S
C1628 C1627 1.287 . S
C1628 C1629 1.524 . S
C1628 H1647 0.913 . S
C1629 H1605 0.950 . S
C1629 C1628 1.524 . S
C1629 C1630 1.415 . S
C1630 H1606 0.950 . S
C1630 C1625 1.363 . S
C1630 C1629 1.415 . S
C1631 H1607 0.951 . S
C1631 C1632 1.366 . S
C1631 C1633 1.388 . S
C1632 C1631 1.366 . S
C1632 C1636 1.385 . S
C1633 H1608 0.951 . S
C1633 C1631 1.388 . S
C1633 C1634 1.366 . S
C1634 C1633 1.366 . S
C1634 C1635 1.414 . S
C1634 C1637 1.499 . S
C1635 H1609 0.950 . S
C1635 C1634 1.414 . S
C1635 C1636 1.374 . S
C1636 H1610 0.950 . S
C1636 C1632 1.385 . S
C1636 C1635 1.374 . S
C1637 C1634 1.499 . S
C1637 C1638 1.373 . S
C1637 C1639 1.389 . S
C1638 H1611 0.950 . S
C1638 C1624 1.377 . S
C1638 C1637 1.373 . S
C1639 C1623 1.377 . S
C1639 C1637 1.389 . S
C1639 C1640 1.524 . S
C1640 C1639 1.524 . S
C1640 C1641 1.397 . S
C1640 C1645 1.363 . S
C1641 H1612 0.950 . S
C1641 C1640 1.397 . S
C1641 C1642 1.334 . S
C1642 H1613 0.950 . S
C1642 C1641 1.334 . S
C1642 C1643 1.287 . S
C1643 C1642 1.287 . S
C1643 C1644 1.524 . S
C1643 H1646 0.999 . S
C1644 H1614 0.950 . S
C1644 C1643 1.524 . S
C1644 C1645 1.415 . S
C1645 H1615 0.950 . S
C1645 C1640 1.363 . S
C1645 C1644 1.415 . S
H1646 C1643 0.999 . S
H1647 C1628 0.913 . S
H1648 C1666 0.951 . S
H1649 C1668 0.951 . S
H1650 C1670 0.950 . S
H1651 C1671 0.950 . S
H1652 C1673 0.950 . S
H1653 C1676 0.950 . S
H1654 C1677 0.950 . S
H1655 C1679 0.950 . S
H1656 C1680 0.950 . S
H1657 C1681 0.951 . S
H1658 C1683 0.951 . S
H1659 C1685 0.950 . S
H1660 C1686 0.950 . S
H1661 C1688 0.950 . S
H1662 C1691 0.950 . S
H1663 C1692 0.950 . S
H1664 C1694 0.950 . S
H1665 C1695 0.950 . S
C1666 H1648 0.951 . S
C1666 C1667 1.366 . S
C1666 C1668 1.388 . S
C1667 C1666 1.366 . S
C1667 C1671 1.385 . S
C1668 H1649 0.951 . S
C1668 C1666 1.388 . S
C1668 C1669 1.366 . S
C1669 C1668 1.366 . S
C1669 C1670 1.414 . S
C1669 C1672 1.499 . S
C1670 H1650 0.950 . S
C1670 C1669 1.414 . S
C1670 C1671 1.374 . S
C1671 H1651 0.950 . S
C1671 C1667 1.385 . S
C1671 C1670 1.374 . S
C1672 C1669 1.499 . S
C1672 C1673 1.373 . S
C1672 C1674 1.389 . S
C1673 H1652 0.950 . S
C1673 C1672 1.373 . S
C1673 C1689 1.377 . S
C1674 C1672 1.389 . S
C1674 C1675 1.524 . S
C1674 C1688 1.377 . S
C1675 C1674 1.524 . S
C1675 C1676 1.397 . S
C1675 C1680 1.363 . S
C1676 H1653 0.950 . S
C1676 C1675 1.397 . S
C1676 C1677 1.334 . S
C1677 H1654 0.950 . S
C1677 C1676 1.334 . S
C1677 C1678 1.287 . S
C1678 C1677 1.287 . S
C1678 C1679 1.524 . S
C1678 H1697 0.913 . S
C1679 H1655 0.950 . S
C1679 C1678 1.524 . S
C1679 C1680 1.415 . S
C1680 H1656 0.950 . S
C1680 C1675 1.363 . S
C1680 C1679 1.415 . S
C1681 H1657 0.951 . S
C1681 C1682 1.366 . S
C1681 C1683 1.388 . S
C1682 C1681 1.366 . S
C1682 C1686 1.385 . S
C1683 H1658 0.951 . S
C1683 C1681 1.388 . S
C1683 C1684 1.366 . S
C1684 C1683 1.366 . S
C1684 C1685 1.414 . S
C1684 C1687 1.499 . S
C1685 H1659 0.950 . S
C1685 C1684 1.414 . S
C1685 C1686 1.374 . S
C1686 H1660 0.950 . S
C1686 C1682 1.385 . S
C1686 C1685 1.374 . S
C1687 C1684 1.499 . S
C1687 C1688 1.373 . S
C1687 C1689 1.389 . S
C1688 H1661 0.950 . S
C1688 C1674 1.377 . S
C1688 C1687 1.373 . S
C1689 C1673 1.377 . S
C1689 C1687 1.389 . S
C1689 C1690 1.524 . S
C1690 C1689 1.524 . S
C1690 C1691 1.397 . S
C1690 C1695 1.363 . S
C1691 H1662 0.950 . S
C1691 C1690 1.397 . S
C1691 C1692 1.334 . S
C1692 H1663 0.950 . S
C1692 C1691 1.334 . S
C1692 C1693 1.287 . S
C1693 C1692 1.287 . S
C1693 C1694 1.524 . S
C1693 H1696 0.999 . S
C1694 H1664 0.950 . S
C1694 C1693 1.524 . S
C1694 C1695 1.415 . S
C1695 H1665 0.950 . S
C1695 C1690 1.363 . S
C1695 C1694 1.415 . S
H1696 C1693 0.999 . S
H1697 C1678 0.913 . S
H1698 C1716 0.951 . S
H1699 C1718 0.951 . S
H1700 C1720 0.950 1_455 S
H1701 C1721 0.950 . S
H1702 C1723 0.950 . S
H1703 C1726 0.950 . S
H1704 C1727 0.950 . S
H1705 C1729 0.950 . S
H1706 C1730 0.950 . S
H1707 C1731 0.951 . S
H1708 C1733 0.951 . S
H1709 C1735 0.950 1_655 S
H1710 C1736 0.950 . S
H1711 C1738 0.950 . S
H1712 C1741 0.950 . S
H1713 C1742 0.950 . S
H1714 C1744 0.950 . S
H1715 C1745 0.950 . S
C1716 H1698 0.951 . S
C1716 C1717 1.366 . S
C1716 C1718 1.388 . S
C1717 C1716 1.366 . S
C1717 C1721 1.385 . S
C1718 H1699 0.951 . S
C1718 C1716 1.388 . S
C1718 C1719 1.366 . S
C1719 C1718 1.366 . S
C1719 C1720 1.414 . S
C1719 C1722 1.499 . S
C1720 H1700 0.950 1_655 S
C1720 C1719 1.414 . S
C1720 C1721 1.374 . S
C1721 H1701 0.950 . S
C1721 C1717 1.385 . S
C1721 C1720 1.374 . S
C1722 C1719 1.499 . S
C1722 C1723 1.373 1_655 S
C1722 C1724 1.389 . S
C1723 H1702 0.950 . S
C1723 C1722 1.373 1_455 S
C1723 C1739 1.377 . S
C1724 C1722 1.389 . S
C1724 C1725 1.524 . S
C1724 C1738 1.377 . S
C1725 C1724 1.524 . S
C1725 C1726 1.397 . S
C1725 C1730 1.363 . S
C1726 H1703 0.950 . S
C1726 C1725 1.397 . S
C1726 C1727 1.334 . S
C1727 H1704 0.950 . S
C1727 C1726 1.334 . S
C1727 C1728 1.287 . S
C1728 C1727 1.287 . S
C1728 C1729 1.524 . S
C1728 H1747 0.913 . S
C1729 H1705 0.950 . S
C1729 C1728 1.524 . S
C1729 C1730 1.415 . S
C1730 H1706 0.950 . S
C1730 C1725 1.363 . S
C1730 C1729 1.415 . S
C1731 H1707 0.951 . S
C1731 C1732 1.366 . S
C1731 C1733 1.388 . S
C1732 C1731 1.366 . S
C1732 C1736 1.385 . S
C1733 H1708 0.951 . S
C1733 C1731 1.388 . S
C1733 C1734 1.366 . S
C1734 C1733 1.366 . S
C1734 C1735 1.414 . S
C1734 C1737 1.499 . S
C1735 H1709 0.950 1_455 S
C1735 C1734 1.414 . S
C1735 C1736 1.374 . S
C1736 H1710 0.950 . S
C1736 C1732 1.385 . S
C1736 C1735 1.374 . S
C1737 C1734 1.499 . S
C1737 C1738 1.373 1_455 S
C1737 C1739 1.389 . S
C1738 H1711 0.950 . S
C1738 C1724 1.377 . S
C1738 C1737 1.373 1_655 S
C1739 C1723 1.377 . S
C1739 C1737 1.389 . S
C1739 C1740 1.524 . S
C1740 C1739 1.524 . S
C1740 C1741 1.397 . S
C1740 C1745 1.363 . S
C1741 H1712 0.950 . S
C1741 C1740 1.397 . S
C1741 C1742 1.334 . S
C1742 H1713 0.950 . S
C1742 C1741 1.334 . S
C1742 C1743 1.287 . S
C1743 C1742 1.287 . S
C1743 C1744 1.524 . S
C1743 H1746 0.999 . S
C1744 H1714 0.950 . S
C1744 C1743 1.524 . S
C1744 C1745 1.415 . S
C1745 H1715 0.950 . S
C1745 C1740 1.363 . S
C1745 C1744 1.415 . S
H1746 C1743 0.999 . S
H1747 C1728 0.913 . S
H1748 C1766 0.951 . S
H1749 C1768 0.951 . S
H1750 C1770 0.950 . S
H1751 C1771 0.950 . S
H1752 C1773 0.950 . S
H1753 C1776 0.950 . S
H1754 C1777 0.950 . S
H1755 C1779 0.950 . S
H1756 C1780 0.950 . S
H1757 C1781 0.951 . S
H1758 C1783 0.951 . S
H1759 C1785 0.950 . S
H1760 C1786 0.950 . S
H1761 C1788 0.950 . S
H1762 C1791 0.950 . S
H1763 C1792 0.950 . S
H1764 C1794 0.950 . S
H1765 C1795 0.950 . S
C1766 H1748 0.951 . S
C1766 C1767 1.366 . S
C1766 C1768 1.388 . S
C1767 C1766 1.366 . S
C1767 C1771 1.385 . S
C1768 H1749 0.951 . S
C1768 C1766 1.388 . S
C1768 C1769 1.366 . S
C1769 C1768 1.366 . S
C1769 C1770 1.414 . S
C1769 C1772 1.499 . S
C1770 H1750 0.950 . S
C1770 C1769 1.414 . S
C1770 C1771 1.374 . S
C1771 H1751 0.950 . S
C1771 C1767 1.385 . S
C1771 C1770 1.374 . S
C1772 C1769 1.499 . S
C1772 C1773 1.373 . S
C1772 C1774 1.389 . S
C1773 H1752 0.950 . S
C1773 C1772 1.373 . S
C1773 C1789 1.377 . S
C1774 C1772 1.389 . S
C1774 C1775 1.524 . S
C1774 C1788 1.377 . S
C1775 C1774 1.524 . S
C1775 C1776 1.397 . S
C1775 C1780 1.363 . S
C1776 H1753 0.950 . S
C1776 C1775 1.397 . S
C1776 C1777 1.334 . S
C1777 H1754 0.950 . S
C1777 C1776 1.334 . S
C1777 C1778 1.287 . S
C1778 C1777 1.287 . S
C1778 C1779 1.524 . S
C1778 H1797 0.913 . S
C1779 H1755 0.950 . S
C1779 C1778 1.524 . S
C1779 C1780 1.415 . S
C1780 H1756 0.950 . S
C1780 C1775 1.363 . S
C1780 C1779 1.415 . S
C1781 H1757 0.951 . S
C1781 C1782 1.366 . S
C1781 C1783 1.388 . S
C1782 C1781 1.366 . S
C1782 C1786 1.385 . S
C1783 H1758 0.951 . S
C1783 C1781 1.388 . S
C1783 C1784 1.366 . S
C1784 C1783 1.366 . S
C1784 C1785 1.414 . S
C1784 C1787 1.499 . S
C1785 H1759 0.950 . S
C1785 C1784 1.414 . S
C1785 C1786 1.374 . S
C1786 H1760 0.950 . S
C1786 C1782 1.385 . S
C1786 C1785 1.374 . S
C1787 C1784 1.499 . S
C1787 C1788 1.373 . S
C1787 C1789 1.389 . S
C1788 H1761 0.950 . S
C1788 C1774 1.377 . S
C1788 C1787 1.373 . S
C1789 C1773 1.377 . S
C1789 C1787 1.389 . S
C1789 C1790 1.524 . S
C1790 C1789 1.524 . S
C1790 C1791 1.397 . S
C1790 C1795 1.363 . S
C1791 H1762 0.950 . S
C1791 C1790 1.397 . S
C1791 C1792 1.334 . S
C1792 H1763 0.950 . S
C1792 C1791 1.334 . S
C1792 C1793 1.287 . S
C1793 C1792 1.287 . S
C1793 C1794 1.524 . S
C1793 H1796 0.999 . S
C1794 H1764 0.950 . S
C1794 C1793 1.524 . S
C1794 C1795 1.415 . S
C1795 H1765 0.950 . S
C1795 C1790 1.363 . S
C1795 C1794 1.415 . S
H1796 C1793 0.999 . S
H1797 C1778 0.913 . S
H1798 C1816 0.951 . S
H1799 C1818 0.951 . S
H1800 C1820 0.950 . S
H1801 C1821 0.950 . S
H1802 C1823 0.950 . S
H1803 C1826 0.950 . S
H1804 C1827 0.950 . S
H1805 C1829 0.950 . S
H1806 C1830 0.950 . S
H1807 C1831 0.951 . S
H1808 C1833 0.951 . S
H1809 C1835 0.950 . S
H1810 C1836 0.950 . S
H1811 C1838 0.950 . S
H1812 C1841 0.950 . S
H1813 C1842 0.950 . S
H1814 C1844 0.950 . S
H1815 C1845 0.950 . S
C1816 H1798 0.951 . S
C1816 C1817 1.366 . S
C1816 C1818 1.388 . S
C1817 C1816 1.366 . S
C1817 C1821 1.385 . S
C1818 H1799 0.951 . S
C1818 C1816 1.388 . S
C1818 C1819 1.366 . S
C1819 C1818 1.366 . S
C1819 C1820 1.414 . S
C1819 C1822 1.499 . S
C1820 H1800 0.950 . S
C1820 C1819 1.414 . S
C1820 C1821 1.374 . S
C1821 H1801 0.950 . S
C1821 C1817 1.385 . S
C1821 C1820 1.374 . S
C1822 C1819 1.499 . S
C1822 C1823 1.373 . S
C1822 C1824 1.389 . S
C1823 H1802 0.950 . S
C1823 C1822 1.373 . S
C1823 C1839 1.377 . S
C1824 C1822 1.389 . S
C1824 C1825 1.524 . S
C1824 C1838 1.377 . S
C1825 C1824 1.524 . S
C1825 C1826 1.397 . S
C1825 C1830 1.363 . S
C1826 H1803 0.950 . S
C1826 C1825 1.397 . S
C1826 C1827 1.334 . S
C1827 H1804 0.950 . S
C1827 C1826 1.334 . S
C1827 C1828 1.287 . S
C1828 C1827 1.287 . S
C1828 C1829 1.524 . S
C1828 H1847 0.913 . S
C1829 H1805 0.950 . S
C1829 C1828 1.524 . S
C1829 C1830 1.415 . S
C1830 H1806 0.950 . S
C1830 C1825 1.363 . S
C1830 C1829 1.415 . S
C1831 H1807 0.951 . S
C1831 C1832 1.366 . S
C1831 C1833 1.388 . S
C1832 C1831 1.366 . S
C1832 C1836 1.385 . S
C1833 H1808 0.951 . S
C1833 C1831 1.388 . S
C1833 C1834 1.366 . S
C1834 C1833 1.366 . S
C1834 C1835 1.414 . S
C1834 C1837 1.499 . S
C1835 H1809 0.950 . S
C1835 C1834 1.414 . S
C1835 C1836 1.374 . S
C1836 H1810 0.950 . S
C1836 C1832 1.385 . S
C1836 C1835 1.374 . S
C1837 C1834 1.499 . S
C1837 C1838 1.373 . S
C1837 C1839 1.389 . S
C1838 H1811 0.950 . S
C1838 C1824 1.377 . S
C1838 C1837 1.373 . S
C1839 C1823 1.377 . S
C1839 C1837 1.389 . S
C1839 C1840 1.524 . S
C1840 C1839 1.524 . S
C1840 C1841 1.397 . S
C1840 C1845 1.363 . S
C1841 H1812 0.950 . S
C1841 C1840 1.397 . S
C1841 C1842 1.334 . S
C1842 H1813 0.950 . S
C1842 C1841 1.334 . S
C1842 C1843 1.287 . S
C1843 C1842 1.287 . S
C1843 C1844 1.524 . S
C1843 H1846 0.999 . S
C1844 H1814 0.950 . S
C1844 C1843 1.524 . S
C1844 C1845 1.415 . S
C1845 H1815 0.950 . S
C1845 C1840 1.363 . S
C1845 C1844 1.415 . S
H1846 C1843 0.999 . S
H1847 C1828 0.913 . S
H1848 C1866 0.951 . S
H1849 C1868 0.951 . S
H1850 C1870 0.950 . S
H1851 C1871 0.950 . S
H1852 C1873 0.950 . S
H1853 C1876 0.950 . S
H1854 C1877 0.950 . S
H1855 C1879 0.950 . S
H1856 C1880 0.950 . S
H1857 C1881 0.951 . S
H1858 C1883 0.951 . S
H1859 C1885 0.950 . S
H1860 C1886 0.950 . S
H1861 C1888 0.950 . S
H1862 C1891 0.950 . S
H1863 C1892 0.950 . S
H1864 C1894 0.950 . S
H1865 C1895 0.950 . S
C1866 H1848 0.951 . S
C1866 C1867 1.366 . S
C1866 C1868 1.388 . S
C1867 C1866 1.366 . S
C1867 C1871 1.385 . S
C1868 H1849 0.951 . S
C1868 C1866 1.388 . S
C1868 C1869 1.366 . S
C1869 C1868 1.366 . S
C1869 C1870 1.414 . S
C1869 C1872 1.499 . S
C1870 H1850 0.950 . S
C1870 C1869 1.414 . S
C1870 C1871 1.374 . S
C1871 H1851 0.950 . S
C1871 C1867 1.385 . S
C1871 C1870 1.374 . S
C1872 C1869 1.499 . S
C1872 C1873 1.373 . S
C1872 C1874 1.389 . S
C1873 H1852 0.950 . S
C1873 C1872 1.373 . S
C1873 C1889 1.377 . S
C1874 C1872 1.389 . S
C1874 C1875 1.524 . S
C1874 C1888 1.377 . S
C1875 C1874 1.524 . S
C1875 C1876 1.397 . S
C1875 C1880 1.363 . S
C1876 H1853 0.950 . S
C1876 C1875 1.397 . S
C1876 C1877 1.334 . S
C1877 H1854 0.950 . S
C1877 C1876 1.334 . S
C1877 C1878 1.287 . S
C1878 C1877 1.287 . S
C1878 C1879 1.524 . S
C1878 H1897 0.913 . S
C1879 H1855 0.950 . S
C1879 C1878 1.524 . S
C1879 C1880 1.415 . S
C1880 H1856 0.950 . S
C1880 C1875 1.363 . S
C1880 C1879 1.415 . S
C1881 H1857 0.951 . S
C1881 C1882 1.366 . S
C1881 C1883 1.388 . S
C1882 C1881 1.366 . S
C1882 C1886 1.385 . S
C1883 H1858 0.951 . S
C1883 C1881 1.388 . S
C1883 C1884 1.366 . S
C1884 C1883 1.366 . S
C1884 C1885 1.414 . S
C1884 C1887 1.499 . S
C1885 H1859 0.950 . S
C1885 C1884 1.414 . S
C1885 C1886 1.374 . S
C1886 H1860 0.950 . S
C1886 C1882 1.385 . S
C1886 C1885 1.374 . S
C1887 C1884 1.499 . S
C1887 C1888 1.373 . S
C1887 C1889 1.389 . S
C1888 H1861 0.950 . S
C1888 C1874 1.377 . S
C1888 C1887 1.373 . S
C1889 C1873 1.377 . S
C1889 C1887 1.389 . S
C1889 C1890 1.524 . S
C1890 C1889 1.524 . S
C1890 C1891 1.397 . S
C1890 C1895 1.363 . S
C1891 H1862 0.950 . S
C1891 C1890 1.397 . S
C1891 C1892 1.334 . S
C1892 H1863 0.950 . S
C1892 C1891 1.334 . S
C1892 C1893 1.287 . S
C1893 C1892 1.287 . S
C1893 C1894 1.524 . S
C1893 H1896 0.999 . S
C1894 H1864 0.950 . S
C1894 C1893 1.524 . S
C1894 C1895 1.415 . S
C1895 H1865 0.950 . S
C1895 C1890 1.363 . S
C1895 C1894 1.415 . S
H1896 C1893 0.999 . S
H1897 C1878 0.913 . S
H1898 C1916 0.951 . S
H1899 C1918 0.951 . S
H1900 C1920 0.950 . S
H1901 C1921 0.950 . S
H1902 C1923 0.950 . S
H1903 C1926 0.950 . S
H1904 C1927 0.950 . S
H1905 C1929 0.950 . S
H1906 C1930 0.950 . S
H1907 C1931 0.951 . S
H1908 C1933 0.951 . S
H1909 C1935 0.950 . S
H1910 C1936 0.950 . S
H1911 C1938 0.950 . S
H1912 C1941 0.950 . S
H1913 C1942 0.950 . S
H1914 C1944 0.950 . S
H1915 C1945 0.950 . S
C1916 H1898 0.951 . S
C1916 C1917 1.366 . S
C1916 C1918 1.388 . S
C1917 C1916 1.366 . S
C1917 C1921 1.385 . S
C1918 H1899 0.951 . S
C1918 C1916 1.388 . S
C1918 C1919 1.366 . S
C1919 C1918 1.366 . S
C1919 C1920 1.414 . S
C1919 C1922 1.499 . S
C1920 H1900 0.950 . S
C1920 C1919 1.414 . S
C1920 C1921 1.374 . S
C1921 H1901 0.950 . S
C1921 C1917 1.385 . S
C1921 C1920 1.374 . S
C1922 C1919 1.499 . S
C1922 C1923 1.373 . S
C1922 C1924 1.389 . S
C1923 H1902 0.950 . S
C1923 C1922 1.373 . S
C1923 C1939 1.377 1_545 S
C1924 C1922 1.389 . S
C1924 C1925 1.524 . S
C1924 C1938 1.377 1_545 S
C1925 C1924 1.524 . S
C1925 C1926 1.397 . S
C1925 C1930 1.363 . S
C1926 H1903 0.950 . S
C1926 C1925 1.397 . S
C1926 C1927 1.334 . S
C1927 H1904 0.950 . S
C1927 C1926 1.334 . S
C1927 C1928 1.287 . S
C1928 C1927 1.287 . S
C1928 C1929 1.524 . S
C1928 H1947 0.913 . S
C1929 H1905 0.950 . S
C1929 C1928 1.524 . S
C1929 C1930 1.415 . S
C1930 H1906 0.950 . S
C1930 C1925 1.363 . S
C1930 C1929 1.415 . S
C1931 H1907 0.951 . S
C1931 C1932 1.366 . S
C1931 C1933 1.388 . S
C1932 C1931 1.366 . S
C1932 C1936 1.385 . S
C1933 H1908 0.951 . S
C1933 C1931 1.388 . S
C1933 C1934 1.366 . S
C1934 C1933 1.366 . S
C1934 C1935 1.414 . S
C1934 C1937 1.499 . S
C1935 H1909 0.950 . S
C1935 C1934 1.414 . S
C1935 C1936 1.374 . S
C1936 H1910 0.950 . S
C1936 C1932 1.385 . S
C1936 C1935 1.374 . S
C1937 C1934 1.499 . S
C1937 C1938 1.373 . S
C1937 C1939 1.389 . S
C1938 H1911 0.950 . S
C1938 C1924 1.377 1_565 S
C1938 C1937 1.373 . S
C1939 C1923 1.377 1_565 S
C1939 C1937 1.389 . S
C1939 C1940 1.524 . S
C1940 C1939 1.524 . S
C1940 C1941 1.397 . S
C1940 C1945 1.363 . S
C1941 H1912 0.950 . S
C1941 C1940 1.397 . S
C1941 C1942 1.334 . S
C1942 H1913 0.950 . S
C1942 C1941 1.334 . S
C1942 C1943 1.287 . S
C1943 C1942 1.287 . S
C1943 C1944 1.524 . S
C1943 H1946 0.999 . S
C1944 H1914 0.950 . S
C1944 C1943 1.524 . S
C1944 C1945 1.415 . S
C1945 H1915 0.950 . S
C1945 C1940 1.363 . S
C1945 C1944 1.415 . S
H1946 C1943 0.999 . S
H1947 C1928 0.913 . S
H1948 C1966 0.951 . S
H1949 C1968 0.951 . S
H1950 C1970 0.950 . S
H1951 C1971 0.950 . S
H1952 C1973 0.950 . S
H1953 C1976 0.950 . S
H1954 C1977 0.950 . S
H1955 C1979 0.950 . S
H1956 C1980 0.950 . S
H1957 C1981 0.951 . S
H1958 C1983 0.951 . S
H1959 C1985 0.950 . S
H1960 C1986 0.950 . S
H1961 C1988 0.950 . S
H1962 C1991 0.950 . S
H1963 C1992 0.950 . S
H1964 C1994 0.950 . S
H1965 C1995 0.950 . S
C1966 H1948 0.951 . S
C1966 C1967 1.366 . S
C1966 C1968 1.388 . S
C1967 C1966 1.366 . S
C1967 C1971 1.385 . S
C1968 H1949 0.951 . S
C1968 C1966 1.388 . S
C1968 C1969 1.366 . S
C1969 C1968 1.366 . S
C1969 C1970 1.414 . S
C1969 C1972 1.499 . S
C1970 H1950 0.950 . S
C1970 C1969 1.414 . S
C1970 C1971 1.374 . S
C1971 H1951 0.950 . S
C1971 C1967 1.385 . S
C1971 C1970 1.374 . S
C1972 C1969 1.499 . S
C1972 C1973 1.373 . S
C1972 C1974 1.389 . S
C1973 H1952 0.950 . S
C1973 C1972 1.373 . S
C1973 C1989 1.377 . S
C1974 C1972 1.389 . S
C1974 C1975 1.524 . S
C1974 C1988 1.377 . S
C1975 C1974 1.524 . S
C1975 C1976 1.397 . S
C1975 C1980 1.363 . S
C1976 H1953 0.950 . S
C1976 C1975 1.397 . S
C1976 C1977 1.334 . S
C1977 H1954 0.950 . S
C1977 C1976 1.334 . S
C1977 C1978 1.287 . S
C1978 C1977 1.287 . S
C1978 C1979 1.524 . S
C1978 H1997 0.913 . S
C1979 H1955 0.950 . S
C1979 C1978 1.524 . S
C1979 C1980 1.415 . S
C1980 H1956 0.950 . S
C1980 C1975 1.363 . S
C1980 C1979 1.415 . S
C1981 H1957 0.951 . S
C1981 C1982 1.366 . S
C1981 C1983 1.388 . S
C1982 C1981 1.366 . S
C1982 C1986 1.385 . S
C1983 H1958 0.951 . S
C1983 C1981 1.388 . S
C1983 C1984 1.366 . S
C1984 C1983 1.366 . S
C1984 C1985 1.414 . S
C1984 C1987 1.499 . S
C1985 H1959 0.950 . S
C1985 C1984 1.414 . S
C1985 C1986 1.374 . S
C1986 H1960 0.950 . S
C1986 C1982 1.385 . S
C1986 C1985 1.374 . S
C1987 C1984 1.499 . S
C1987 C1988 1.373 . S
C1987 C1989 1.389 . S
C1988 H1961 0.950 . S
C1988 C1974 1.377 . S
C1988 C1987 1.373 . S
C1989 C1973 1.377 . S
C1989 C1987 1.389 . S
C1989 C1990 1.524 . S
C1990 C1989 1.524 . S
C1990 C1991 1.397 . S
C1990 C1995 1.363 . S
C1991 H1962 0.950 . S
C1991 C1990 1.397 . S
C1991 C1992 1.334 . S
C1992 H1963 0.950 . S
C1992 C1991 1.334 . S
C1992 C1993 1.287 . S
C1993 C1992 1.287 . S
C1993 C1994 1.524 . S
C1993 H1996 0.999 . S
C1994 H1964 0.950 . S
C1994 C1993 1.524 . S
C1994 C1995 1.415 . S
C1995 H1965 0.950 . S
C1995 C1990 1.363 . S
C1995 C1994 1.415 . S
H1996 C1993 0.999 . S
H1997 C1978 0.913 . S
H1998 C2016 0.951 . S
H1999 C2018 0.951 . S
H2000 C2020 0.950 1_556 S
H2001 C2021 0.950 . S
H2002 C2023 0.950 . S
H2003 C2026 0.950 . S
H2004 C2027 0.950 . S
H2005 C2029 0.950 . S
H2006 C2030 0.950 . S
H2007 C2031 0.951 . S
H2008 C2033 0.951 . S
H2009 C2035 0.950 1_554 S
H2010 C2036 0.950 . S
H2011 C2038 0.950 . S
H2012 C2041 0.950 . S
H2013 C2042 0.950 . S
H2014 C2044 0.950 . S
H2015 C2045 0.950 . S
C2016 H1998 0.951 . S
C2016 C2017 1.366 . S
C2016 C2018 1.388 . S
C2017 C2016 1.366 . S
C2017 C2021 1.385 . S
C2018 H1999 0.951 . S
C2018 C2016 1.388 . S
C2018 C2019 1.366 . S
C2019 C2018 1.366 . S
C2019 C2020 1.414 . S
C2019 C2022 1.499 . S
C2020 H2000 0.950 1_554 S
C2020 C2019 1.414 . S
C2020 C2021 1.374 . S
C2021 H2001 0.950 . S
C2021 C2017 1.385 . S
C2021 C2020 1.374 . S
C2022 C2019 1.499 . S
C2022 C2023 1.373 . S
C2022 C2024 1.389 1_554 S
C2023 H2002 0.950 . S
C2023 C2022 1.373 . S
C2023 C2039 1.377 . S
C2024 C2022 1.389 1_556 S
C2024 C2025 1.524 . S
C2024 C2038 1.377 . S
C2025 C2024 1.524 . S
C2025 C2026 1.397 . S
C2025 C2030 1.363 . S
C2026 H2003 0.950 . S
C2026 C2025 1.397 . S
C2026 C2027 1.334 . S
C2027 H2004 0.950 . S
C2027 C2026 1.334 . S
C2027 C2028 1.287 . S
C2028 C2027 1.287 . S
C2028 C2029 1.524 . S
C2028 H2047 0.913 . S
C2029 H2005 0.950 . S
C2029 C2028 1.524 . S
C2029 C2030 1.415 . S
C2030 H2006 0.950 . S
C2030 C2025 1.363 . S
C2030 C2029 1.415 . S
C2031 H2007 0.951 . S
C2031 C2032 1.366 . S
C2031 C2033 1.388 . S
C2032 C2031 1.366 . S
C2032 C2036 1.385 . S
C2033 H2008 0.951 . S
C2033 C2031 1.388 . S
C2033 C2034 1.366 . S
C2034 C2033 1.366 . S
C2034 C2035 1.414 . S
C2034 C2037 1.499 . S
C2035 H2009 0.950 1_556 S
C2035 C2034 1.414 . S
C2035 C2036 1.374 . S
C2036 H2010 0.950 . S
C2036 C2032 1.385 . S
C2036 C2035 1.374 . S
C2037 C2034 1.499 . S
C2037 C2038 1.373 . S
C2037 C2039 1.389 1_556 S
C2038 H2011 0.950 . S
C2038 C2024 1.377 . S
C2038 C2037 1.373 . S
C2039 C2023 1.377 . S
C2039 C2037 1.389 1_554 S
C2039 C2040 1.524 . S
C2040 C2039 1.524 . S
C2040 C2041 1.397 . S
C2040 C2045 1.363 . S
C2041 H2012 0.950 . S
C2041 C2040 1.397 . S
C2041 C2042 1.334 . S
C2042 H2013 0.950 . S
C2042 C2041 1.334 . S
C2042 C2043 1.287 . S
C2043 C2042 1.287 . S
C2043 C2044 1.524 . S
C2043 H2046 0.999 . S
C2044 H2014 0.950 . S
C2044 C2043 1.524 . S
C2044 C2045 1.415 . S
C2045 H2015 0.950 . S
C2045 C2040 1.363 . S
C2045 C2044 1.415 . S
H2046 C2043 0.999 . S
H2047 C2028 0.913 . S
H2048 C2066 0.951 . S
H2049 C2068 0.951 . S
H2050 C2070 0.950 . S
H2051 C2071 0.950 . S
H2052 C2073 0.950 . S
H2053 C2076 0.950 . S
H2054 C2077 0.950 . S
H2055 C2079 0.950 . S
H2056 C2080 0.950 . S
H2057 C2081 0.951 . S
H2058 C2083 0.951 . S
H2059 C2085 0.950 . S
H2060 C2086 0.950 . S
H2061 C2088 0.950 . S
H2062 C2091 0.950 . S
H2063 C2092 0.950 . S
H2064 C2094 0.950 . S
H2065 C2095 0.950 . S
C2066 H2048 0.951 . S
C2066 C2067 1.366 . S
C2066 C2068 1.388 . S
C2067 C2066 1.366 . S
C2067 C2071 1.385 . S
C2068 H2049 0.951 . S
C2068 C2066 1.388 . S
C2068 C2069 1.366 . S
C2069 C2068 1.366 . S
C2069 C2070 1.414 . S
C2069 C2072 1.499 . S
C2070 H2050 0.950 . S
C2070 C2069 1.414 . S
C2070 C2071 1.374 . S
C2071 H2051 0.950 . S
C2071 C2067 1.385 . S
C2071 C2070 1.374 . S
C2072 C2069 1.499 . S
C2072 C2073 1.373 . S
C2072 C2074 1.389 . S
C2073 H2052 0.950 . S
C2073 C2072 1.373 . S
C2073 C2089 1.377 . S
C2074 C2072 1.389 . S
C2074 C2075 1.524 . S
C2074 C2088 1.377 . S
C2075 C2074 1.524 . S
C2075 C2076 1.397 . S
C2075 C2080 1.363 . S
C2076 H2053 0.950 . S
C2076 C2075 1.397 . S
C2076 C2077 1.334 . S
C2077 H2054 0.950 . S
C2077 C2076 1.334 . S
C2077 C2078 1.287 . S
C2078 C2077 1.287 . S
C2078 C2079 1.524 . S
C2078 H2097 0.913 . S
C2079 H2055 0.950 . S
C2079 C2078 1.524 . S
C2079 C2080 1.415 . S
C2080 H2056 0.950 . S
C2080 C2075 1.363 . S
C2080 C2079 1.415 . S
C2081 H2057 0.951 . S
C2081 C2082 1.366 . S
C2081 C2083 1.388 . S
C2082 C2081 1.366 . S
C2082 C2086 1.385 . S
C2083 H2058 0.951 . S
C2083 C2081 1.388 . S
C2083 C2084 1.366 . S
C2084 C2083 1.366 . S
C2084 C2085 1.414 . S
C2084 C2087 1.499 . S
C2085 H2059 0.950 . S
C2085 C2084 1.414 . S
C2085 C2086 1.374 . S
C2086 H2060 0.950 . S
C2086 C2082 1.385 . S
C2086 C2085 1.374 . S
C2087 C2084 1.499 . S
C2087 C2088 1.373 . S
C2087 C2089 1.389 . S
C2088 H2061 0.950 . S
C2088 C2074 1.377 . S
C2088 C2087 1.373 . S
C2089 C2073 1.377 . S
C2089 C2087 1.389 . S
C2089 C2090 1.524 . S
C2090 C2089 1.524 . S
C2090 C2091 1.397 . S
C2090 C2095 1.363 . S
C2091 H2062 0.950 . S
C2091 C2090 1.397 . S
C2091 C2092 1.334 1_455 S
C2092 H2063 0.950 . S
C2092 C2091 1.334 1_655 S
C2092 C2093 1.287 . S
C2093 C2092 1.287 . S
C2093 C2094 1.524 . S
C2093 H2096 0.999 . S
C2094 H2064 0.950 . S
C2094 C2093 1.524 . S
C2094 C2095 1.415 1_655 S
C2095 H2065 0.950 . S
C2095 C2090 1.363 . S
C2095 C2094 1.415 1_455 S
H2096 C2093 0.999 . S
H2097 C2078 0.913 . S
H2098 C2116 0.951 . S
H2099 C2118 0.951 . S
H2100 C2120 0.950 . S
H2101 C2121 0.950 . S
H2102 C2123 0.950 . S
H2103 C2126 0.950 . S
H2104 C2127 0.950 . S
H2105 C2129 0.950 . S
H2106 C2130 0.910 1_556 S
H2107 C2131 0.951 . S
H2108 C2133 0.951 . S
H2109 C2135 0.950 . S
H2110 C2136 0.950 . S
H2111 C2138 0.950 1_554 S
H2112 C2141 0.950 . S
H2113 C2142 0.950 . S
H2114 C2144 0.950 . S
H2115 C2145 0.950 . S
C2116 H2098 0.951 . S
C2116 C2117 1.366 . S
C2116 C2118 1.388 . S
C2117 C2116 1.366 . S
C2117 C2121 1.385 . S
C2118 H2099 0.951 . S
C2118 C2116 1.388 . S
C2118 C2119 1.366 . S
C2119 C2118 1.366 . S
C2119 C2120 1.414 . S
C2119 C2122 1.499 . S
C2120 H2100 0.950 . S
C2120 C2119 1.414 . S
C2120 C2121 1.374 . S
C2121 H2101 0.950 . S
C2121 C2117 1.385 . S
C2121 C2120 1.374 . S
C2122 C2119 1.499 . S
C2122 C2123 1.373 . S
C2122 C2124 1.389 . S
C2123 H2102 0.950 . S
C2123 C2122 1.373 . S
C2123 C2139 1.377 . S
C2124 C2122 1.389 . S
C2124 C2125 1.524 1_556 S
C2124 C2138 1.377 . S
C2125 C2124 1.524 1_554 S
C2125 C2126 1.397 . S
C2125 C2130 1.363 1_455 S
C2126 H2103 0.950 . S
C2126 C2125 1.397 . S
C2126 C2127 1.334 . S
C2127 H2104 0.950 . S
C2127 C2126 1.334 . S
C2127 C2128 1.287 1_455 S
C2128 C2127 1.287 1_655 S
C2128 C2129 1.524 . S
C2128 H2147 0.913 . S
C2129 H2105 0.950 . S
C2129 C2128 1.524 . S
C2129 C2130 1.415 . S
C2130 H2106 0.910 1_554 S
C2130 C2125 1.363 1_655 S
C2130 C2129 1.415 . S
C2131 H2107 0.951 . S
C2131 C2132 1.366 . S
C2131 C2133 1.388 . S
C2132 C2131 1.366 . S
C2132 C2136 1.385 . S
C2133 H2108 0.951 . S
C2133 C2131 1.388 . S
C2133 C2134 1.366 . S
C2134 C2133 1.366 . S
C2134 C2135 1.414 . S
C2134 C2137 1.499 . S
C2135 H2109 0.950 . S
C2135 C2134 1.414 . S
C2135 C2136 1.374 . S
C2136 H2110 0.950 . S
C2136 C2132 1.385 . S
C2136 C2135 1.374 . S
C2137 C2134 1.499 . S
C2137 C2138 1.373 . S
C2137 C2139 1.389 . S
C2138 H2111 0.950 1_556 S
C2138 C2124 1.377 . S
C2138 C2137 1.373 . S
C2139 C2123 1.377 . S
C2139 C2137 1.389 . S
C2139 C2140 1.524 . S
C2140 C2139 1.524 . S
C2140 C2141 1.397 . S
C2140 C2145 1.363 . S
C2141 H2112 0.950 . S
C2141 C2140 1.397 . S
C2141 C2142 1.334 . S
C2142 H2113 0.950 . S
C2142 C2141 1.334 . S
C2142 C2143 1.287 . S
C2143 C2142 1.287 . S
C2143 C2144 1.524 . S
C2143 H2146 0.999 . S
C2144 H2114 0.950 . S
C2144 C2143 1.524 . S
C2144 C2145 1.415 . S
C2145 H2115 0.950 . S
C2145 C2140 1.363 . S
C2145 C2144 1.415 . S
H2146 C2143 0.999 . S
H2147 C2128 0.913 . S
H2148 C2166 0.951 . S
H2149 C2168 0.951 . S
H2150 C2170 0.950 . S
H2151 C2171 0.950 . S
H2152 C2173 0.950 . S
H2153 C2176 0.950 . S
H2154 C2177 0.950 . S
H2155 C2179 0.950 . S
H2156 C2180 0.950 . S
H2157 C2181 0.951 . S
H2158 C2183 0.951 . S
H2159 C2185 0.950 . S
H2160 C2186 0.950 . S
H2161 C2188 0.950 . S
H2162 C2191 0.950 . S
H2163 C2192 0.950 . S
H2164 C2194 0.950 . S
H2165 C2195 0.950 . S
C2166 H2148 0.951 . S
C2166 C2167 1.366 . S
C2166 C2168 1.388 . S
C2167 C2166 1.366 . S
C2167 C2171 1.385 . S
C2168 H2149 0.951 . S
C2168 C2166 1.388 . S
C2168 C2169 1.366 . S
C2169 C2168 1.366 . S
C2169 C2170 1.414 . S
C2169 C2172 1.499 . S
C2170 H2150 0.950 . S
C2170 C2169 1.414 . S
C2170 C2171 1.374 . S
C2171 H2151 0.950 . S
C2171 C2167 1.385 . S
C2171 C2170 1.374 . S
C2172 C2169 1.499 . S
C2172 C2173 1.373 . S
C2172 C2174 1.389 . S
C2173 H2152 0.950 . S
C2173 C2172 1.373 . S
C2173 C2189 1.377 . S
C2174 C2172 1.389 . S
C2174 C2175 1.524 . S
C2174 C2188 1.377 . S
C2175 C2174 1.524 . S
C2175 C2176 1.397 . S
C2175 C2180 1.363 . S
C2176 H2153 0.950 . S
C2176 C2175 1.397 . S
C2176 C2177 1.334 . S
C2177 H2154 0.950 . S
C2177 C2176 1.334 . S
C2177 C2178 1.287 . S
C2178 C2177 1.287 . S
C2178 C2179 1.524 . S
C2178 H2197 0.913 . S
C2179 H2155 0.950 . S
C2179 C2178 1.524 . S
C2179 C2180 1.415 . S
C2180 H2156 0.950 . S
C2180 C2175 1.363 . S
C2180 C2179 1.415 . S
C2181 H2157 0.951 . S
C2181 C2182 1.366 . S
C2181 C2183 1.388 . S
C2182 C2181 1.366 . S
C2182 C2186 1.385 . S
C2183 H2158 0.951 . S
C2183 C2181 1.388 . S
C2183 C2184 1.366 . S
C2184 C2183 1.366 . S
C2184 C2185 1.414 . S
C2184 C2187 1.499 . S
C2185 H2159 0.950 . S
C2185 C2184 1.414 . S
C2185 C2186 1.374 . S
C2186 H2160 0.950 . S
C2186 C2182 1.385 . S
C2186 C2185 1.374 . S
C2187 C2184 1.499 . S
C2187 C2188 1.373 . S
C2187 C2189 1.389 . S
C2188 H2161 0.950 . S
C2188 C2174 1.377 . S
C2188 C2187 1.373 . S
C2189 C2173 1.377 . S
C2189 C2187 1.389 . S
C2189 C2190 1.524 . S
C2190 C2189 1.524 . S
C2190 C2191 1.397 . S
C2190 C2195 1.363 1_655 S
C2191 H2162 0.950 . S
C2191 C2190 1.397 . S
C2191 C2192 1.334 1_655 S
C2192 H2163 0.950 . S
C2192 C2191 1.334 1_455 S
C2192 C2193 1.287 . S
C2193 C2192 1.287 . S
C2193 C2194 1.524 . S
C2193 H2196 0.999 . S
C2194 H2164 0.950 . S
C2194 C2193 1.524 . S
C2194 C2195 1.415 . S
C2195 H2165 0.950 . S
C2195 C2190 1.363 1_455 S
C2195 C2194 1.415 . S
H2196 C2193 0.999 . S
H2197 C2178 0.913 . S
H2198 C2216 0.951 . S
H2199 C2218 0.951 . S
H2200 C2220 0.950 . S
H2201 C2221 0.950 . S
H2202 C2223 0.950 . S
H2203 C2226 0.950 . S
H2204 C2227 0.950 . S
H2205 C2229 0.950 . S
H2206 C2230 0.950 . S
H2207 C2231 0.951 . S
H2208 C2233 0.951 . S
H2209 C2235 0.950 . S
H2210 C2236 0.950 . S
H2211 C2238 0.950 . S
H2212 C2241 0.950 . S
H2213 C2242 0.950 . S
H2214 C2244 0.950 . S
H2215 C2245 0.950 1_455 S
C2216 H2198 0.951 . S
C2216 C2217 1.366 . S
C2216 C2218 1.388 . S
C2217 C2216 1.366 . S
C2217 C2221 1.385 . S
C2218 H2199 0.951 . S
C2218 C2216 1.388 . S
C2218 C2219 1.366 . S
C2219 C2218 1.366 . S
C2219 C2220 1.414 . S
C2219 C2222 1.499 . S
C2220 H2200 0.950 . S
C2220 C2219 1.414 . S
C2220 C2221 1.374 . S
C2221 H2201 0.950 . S
C2221 C2217 1.385 . S
C2221 C2220 1.374 . S
C2222 C2219 1.499 . S
C2222 C2223 1.373 1_554 S
C2222 C2224 1.389 . S
C2223 H2202 0.950 . S
C2223 C2222 1.373 1_556 S
C2223 C2239 1.377 . S
C2224 C2222 1.389 . S
C2224 C2225 1.524 . S
C2224 C2238 1.377 . S
C2225 C2224 1.524 . S
C2225 C2226 1.397 . S
C2225 C2230 1.363 . S
C2226 H2203 0.950 . S
C2226 C2225 1.397 . S
C2226 C2227 1.334 . S
C2227 H2204 0.950 . S
C2227 C2226 1.334 . S
C2227 C2228 1.287 . S
C2228 C2227 1.287 . S
C2228 C2229 1.524 . S
C2228 H2247 0.913 . S
C2229 H2205 0.950 . S
C2229 C2228 1.524 . S
C2229 C2230 1.415 . S
C2230 H2206 0.950 . S
C2230 C2225 1.363 . S
C2230 C2229 1.415 . S
C2231 H2207 0.951 . S
C2231 C2232 1.366 . S
C2231 C2233 1.388 . S
C2232 C2231 1.366 . S
C2232 C2236 1.385 . S
C2233 H2208 0.951 . S
C2233 C2231 1.388 . S
C2233 C2234 1.366 . S
C2234 C2233 1.366 . S
C2234 C2235 1.414 . S
C2234 C2237 1.499 . S
C2235 H2209 0.950 . S
C2235 C2234 1.414 . S
C2235 C2236 1.374 . S
C2236 H2210 0.950 . S
C2236 C2232 1.385 . S
C2236 C2235 1.374 . S
C2237 C2234 1.499 . S
C2237 C2238 1.373 . S
C2237 C2239 1.389 1_554 S
C2238 H2211 0.950 . S
C2238 C2224 1.377 . S
C2238 C2237 1.373 . S
C2239 C2223 1.377 . S
C2239 C2237 1.389 1_556 S
C2239 C2240 1.524 . S
C2240 C2239 1.524 . S
C2240 C2241 1.397 . S
C2240 C2245 1.363 . S
C2241 H2212 0.950 . S
C2241 C2240 1.397 . S
C2241 C2242 1.334 . S
C2242 H2213 0.950 . S
C2242 C2241 1.334 . S
C2242 C2243 1.287 . S
C2243 C2242 1.287 . S
C2243 C2244 1.524 1_655 S
C2243 H2246 0.999 1_655 S
C2244 H2214 0.950 . S
C2244 C2243 1.524 1_455 S
C2244 C2245 1.415 1_455 S
C2245 H2215 0.950 1_655 S
C2245 C2240 1.363 . S
C2245 C2244 1.415 1_655 S
H2246 C2243 0.999 1_455 S
H2247 C2228 0.913 . S
H2248 C2266 0.951 . S
H2249 C2268 0.951 . S
H2250 C2270 0.950 . S
H2251 C2271 0.950 . S
H2252 C2273 0.950 . S
H2253 C2276 0.950 . S
H2254 C2277 0.950 . S
H2255 C2279 0.950 . S
H2256 C2280 0.950 . S
H2257 C2281 0.951 . S
H2258 C2283 0.951 . S
H2259 C2285 0.950 . S
H2260 C2286 0.950 . S
H2261 C2288 0.950 . S
H2262 C2291 0.950 . S
H2263 C2292 0.950 . S
H2264 C2294 0.950 . S
H2265 C2295 0.950 . S
C2266 H2248 0.951 . S
C2266 C2267 1.366 . S
C2266 C2268 1.388 . S
C2267 C2266 1.366 . S
C2267 C2271 1.385 . S
C2268 H2249 0.951 . S
C2268 C2266 1.388 . S
C2268 C2269 1.366 . S
C2269 C2268 1.366 . S
C2269 C2270 1.414 . S
C2269 C2272 1.499 . S
C2270 H2250 0.950 . S
C2270 C2269 1.414 . S
C2270 C2271 1.374 . S
C2271 H2251 0.950 . S
C2271 C2267 1.385 . S
C2271 C2270 1.374 . S
C2272 C2269 1.499 . S
C2272 C2273 1.373 . S
C2272 C2274 1.389 . S
C2273 H2252 0.950 . S
C2273 C2272 1.373 . S
C2273 C2289 1.377 . S
C2274 C2272 1.389 . S
C2274 C2275 1.524 . S
C2274 C2288 1.377 . S
C2275 C2274 1.524 . S
C2275 C2276 1.397 . S
C2275 C2280 1.363 . S
C2276 H2253 0.950 . S
C2276 C2275 1.397 . S
C2276 C2277 1.334 . S
C2277 H2254 0.950 . S
C2277 C2276 1.334 . S
C2277 C2278 1.287 . S
C2278 C2277 1.287 . S
C2278 C2279 1.524 . S
C2278 H2297 0.913 . S
C2279 H2255 0.950 . S
C2279 C2278 1.524 . S
C2279 C2280 1.415 . S
C2280 H2256 0.950 . S
C2280 C2275 1.363 . S
C2280 C2279 1.415 . S
C2281 H2257 0.951 . S
C2281 C2282 1.366 . S
C2281 C2283 1.388 . S
C2282 C2281 1.366 . S
C2282 C2286 1.385 . S
C2283 H2258 0.951 . S
C2283 C2281 1.388 . S
C2283 C2284 1.366 . S
C2284 C2283 1.366 . S
C2284 C2285 1.414 . S
C2284 C2287 1.499 . S
C2285 H2259 0.950 . S
C2285 C2284 1.414 . S
C2285 C2286 1.374 . S
C2286 H2260 0.950 . S
C2286 C2282 1.385 . S
C2286 C2285 1.374 . S
C2287 C2284 1.499 . S
C2287 C2288 1.373 . S
C2287 C2289 1.389 . S
C2288 H2261 0.950 . S
C2288 C2274 1.377 . S
C2288 C2287 1.373 . S
C2289 C2273 1.377 . S
C2289 C2287 1.389 . S
C2289 C2290 1.524 . S
C2290 C2289 1.524 . S
C2290 C2291 1.397 . S
C2290 C2295 1.363 . S
C2291 H2262 0.950 . S
C2291 C2290 1.397 . S
C2291 C2292 1.334 1_455 S
C2292 H2263 0.950 . S
C2292 C2291 1.334 1_655 S
C2292 C2293 1.287 . S
C2293 C2292 1.287 . S
C2293 C2294 1.524 . S
C2293 H2296 0.999 . S
C2294 H2264 0.950 . S
C2294 C2293 1.524 . S
C2294 C2295 1.415 1_655 S
C2295 H2265 0.950 . S
C2295 C2290 1.363 . S
C2295 C2294 1.415 1_455 S
H2296 C2293 0.999 . S
H2297 C2278 0.913 . S
H2298 C2316 0.951 . S
H2299 C2318 0.951 . S
H2300 C2320 0.950 . S
H2301 C2321 0.950 . S
H2302 C2323 0.950 . S
H2303 C2326 0.950 . S
H2304 C2327 0.950 . S
H2305 C2329 0.950 . S
H2306 C2330 0.950 . S
H2307 C2331 0.951 . S
H2308 C2333 0.951 . S
H2309 C2335 0.950 . S
H2310 C2336 0.950 . S
H2311 C2338 0.950 . S
H2312 C2341 0.950 . S
H2313 C2342 0.950 . S
H2314 C2344 0.950 . S
H2315 C2345 0.950 . S
C2316 H2298 0.951 . S
C2316 C2317 1.366 . S
C2316 C2318 1.388 . S
C2317 C2316 1.366 . S
C2317 C2321 1.385 . S
C2318 H2299 0.951 . S
C2318 C2316 1.388 . S
C2318 C2319 1.366 . S
C2319 C2318 1.366 . S
C2319 C2320 1.414 . S
C2319 C2322 1.499 . S
C2320 H2300 0.950 . S
C2320 C2319 1.414 . S
C2320 C2321 1.374 . S
C2321 H2301 0.950 . S
C2321 C2317 1.385 . S
C2321 C2320 1.374 . S
C2322 C2319 1.499 . S
C2322 C2323 1.373 . S
C2322 C2324 1.389 . S
C2323 H2302 0.950 . S
C2323 C2322 1.373 . S
C2323 C2339 1.377 . S
C2324 C2322 1.389 . S
C2324 C2325 1.524 . S
C2324 C2338 1.377 . S
C2325 C2324 1.524 . S
C2325 C2326 1.397 . S
C2325 C2330 1.363 1_455 S
C2326 H2303 0.950 . S
C2326 C2325 1.397 . S
C2326 C2327 1.334 1_455 S
C2327 H2304 0.950 . S
C2327 C2326 1.334 1_655 S
C2327 C2328 1.287 . S
C2328 C2327 1.287 . S
C2328 C2329 1.524 . S
C2328 H2347 0.913 . S
C2329 H2305 0.950 . S
C2329 C2328 1.524 . S
C2329 C2330 1.415 . S
C2330 H2306 0.950 . S
C2330 C2325 1.363 1_655 S
C2330 C2329 1.415 . S
C2331 H2307 0.951 . S
C2331 C2332 1.366 . S
C2331 C2333 1.388 . S
C2332 C2331 1.366 . S
C2332 C2336 1.385 . S
C2333 H2308 0.951 . S
C2333 C2331 1.388 . S
C2333 C2334 1.366 . S
C2334 C2333 1.366 . S
C2334 C2335 1.414 . S
C2334 C2337 1.499 . S
C2335 H2309 0.950 . S
C2335 C2334 1.414 . S
C2335 C2336 1.374 . S
C2336 H2310 0.950 . S
C2336 C2332 1.385 . S
C2336 C2335 1.374 . S
C2337 C2334 1.499 . S
C2337 C2338 1.373 . S
C2337 C2339 1.389 . S
C2338 H2311 0.950 . S
C2338 C2324 1.377 . S
C2338 C2337 1.373 . S
C2339 C2323 1.377 . S
C2339 C2337 1.389 . S
C2339 C2340 1.524 . S
C2340 C2339 1.524 . S
C2340 C2341 1.397 . S
C2340 C2345 1.363 . S
C2341 H2312 0.950 . S
C2341 C2340 1.397 . S
C2341 C2342 1.334 . S
C2342 H2313 0.950 . S
C2342 C2341 1.334 . S
C2342 C2343 1.287 . S
C2343 C2342 1.287 . S
C2343 C2344 1.524 . S
C2343 H2346 0.999 . S
C2344 H2314 0.950 . S
C2344 C2343 1.524 . S
C2344 C2345 1.415 . S
C2345 H2315 0.950 . S
C2345 C2340 1.363 . S
C2345 C2344 1.415 . S
H2346 C2343 0.999 . S
H2347 C2328 0.913 . S
H2348 C2366 0.951 . S
H2349 C2368 0.951 . S
H2350 C2370 0.950 . S
H2351 C2371 0.950 . S
H2352 C2373 0.950 . S
H2353 C2376 0.950 . S
H2354 C2377 0.950 . S
H2355 C2379 0.950 . S
H2356 C2380 0.950 . S
H2357 C2381 0.951 . S
H2358 C2383 0.951 . S
H2359 C2385 0.950 . S
H2360 C2386 0.950 . S
H2361 C2388 0.950 . S
H2362 C2391 0.950 . S
H2363 C2392 0.950 . S
H2364 C2394 0.950 . S
H2365 C2395 0.950 . S
C2366 H2348 0.951 . S
C2366 C2367 1.366 . S
C2366 C2368 1.388 . S
C2367 C2366 1.366 . S
C2367 C2371 1.385 . S
C2368 H2349 0.951 . S
C2368 C2366 1.388 . S
C2368 C2369 1.366 . S
C2369 C2368 1.366 . S
C2369 C2370 1.414 . S
C2369 C2372 1.499 . S
C2370 H2350 0.950 . S
C2370 C2369 1.414 . S
C2370 C2371 1.374 . S
C2371 H2351 0.950 . S
C2371 C2367 1.385 . S
C2371 C2370 1.374 . S
C2372 C2369 1.499 . S
C2372 C2373 1.373 . S
C2372 C2374 1.389 . S
C2373 H2352 0.950 . S
C2373 C2372 1.373 . S
C2373 C2389 1.377 . S
C2374 C2372 1.389 . S
C2374 C2375 1.524 . S
C2374 C2388 1.377 . S
C2375 C2374 1.524 . S
C2375 C2376 1.397 . S
C2375 C2380 1.363 . S
C2376 H2353 0.950 . S
C2376 C2375 1.397 . S
C2376 C2377 1.334 . S
C2377 H2354 0.950 . S
C2377 C2376 1.334 . S
C2377 C2378 1.287 . S
C2378 C2377 1.287 . S
C2378 C2379 1.524 . S
C2378 H2397 0.913 . S
C2379 H2355 0.950 . S
C2379 C2378 1.524 . S
C2379 C2380 1.415 . S
C2380 H2356 0.950 . S
C2380 C2375 1.363 . S
C2380 C2379 1.415 . S
C2381 H2357 0.951 . S
C2381 C2382 1.366 . S
C2381 C2383 1.388 . S
C2382 C2381 1.366 . S
C2382 C2386 1.385 . S
C2383 H2358 0.951 . S
C2383 C2381 1.388 . S
C2383 C2384 1.366 . S
C2384 C2383 1.366 . S
C2384 C2385 1.414 . S
C2384 C2387 1.499 . S
C2385 H2359 0.950 . S
C2385 C2384 1.414 . S
C2385 C2386 1.374 . S
C2386 H2360 0.950 . S
C2386 C2382 1.385 . S
C2386 C2385 1.374 . S
C2387 C2384 1.499 . S
C2387 C2388 1.373 . S
C2387 C2389 1.389 . S
C2388 H2361 0.950 . S
C2388 C2374 1.377 . S
C2388 C2387 1.373 . S
C2389 C2373 1.377 . S
C2389 C2387 1.389 . S
C2389 C2390 1.524 . S
C2390 C2389 1.524 . S
C2390 C2391 1.397 . S
C2390 C2395 1.363 1_655 S
C2391 H2362 0.950 . S
C2391 C2390 1.397 . S
C2391 C2392 1.334 1_655 S
C2392 H2363 0.950 . S
C2392 C2391 1.334 1_455 S
C2392 C2393 1.287 . S
C2393 C2392 1.287 . S
C2393 C2394 1.524 . S
C2393 H2396 0.999 . S
C2394 H2364 0.950 . S
C2394 C2393 1.524 . S
C2394 C2395 1.415 . S
C2395 H2365 0.950 . S
C2395 C2390 1.363 1_455 S
C2395 C2394 1.415 . S
H2396 C2393 0.999 . S
H2397 C2378 0.913 . S
H2398 C2416 0.951 . S
H2399 C2418 0.951 . S
H2400 C2420 0.950 . S
H2401 C2421 0.950 . S
H2402 C2423 0.950 . S
H2403 C2426 0.950 . S
H2404 C2427 0.950 . S
H2405 C2429 0.950 . S
H2406 C2430 0.950 . S
H2407 C2431 0.951 . S
H2408 C2433 0.951 . S
H2409 C2435 0.950 . S
H2410 C2436 0.950 . S
H2411 C2438 0.950 . S
H2412 C2441 0.950 . S
H2413 C2442 0.950 . S
H2414 C2444 0.950 . S
H2415 C2445 0.950 . S
C2416 H2398 0.951 . S
C2416 C2417 1.366 . S
C2416 C2418 1.388 . S
C2417 C2416 1.366 . S
C2417 C2421 1.385 . S
C2418 H2399 0.951 . S
C2418 C2416 1.388 . S
C2418 C2419 1.366 . S
C2419 C2418 1.366 . S
C2419 C2420 1.414 . S
C2419 C2422 1.499 . S
C2420 H2400 0.950 . S
C2420 C2419 1.414 . S
C2420 C2421 1.374 . S
C2421 H2401 0.950 . S
C2421 C2417 1.385 . S
C2421 C2420 1.374 . S
C2422 C2419 1.499 . S
C2422 C2423 1.373 . S
C2422 C2424 1.389 . S
C2423 H2402 0.950 . S
C2423 C2422 1.373 . S
C2423 C2439 1.377 . S
C2424 C2422 1.389 . S
C2424 C2425 1.524 . S
C2424 C2438 1.377 . S
C2425 C2424 1.524 . S
C2425 C2426 1.397 . S
C2425 C2430 1.363 . S
C2426 H2403 0.950 . S
C2426 C2425 1.397 . S
C2426 C2427 1.334 . S
C2427 H2404 0.950 . S
C2427 C2426 1.334 . S
C2427 C2428 1.287 . S
C2428 C2427 1.287 . S
C2428 C2429 1.524 . S
C2428 H2447 0.913 . S
C2429 H2405 0.950 . S
C2429 C2428 1.524 . S
C2429 C2430 1.415 . S
C2430 H2406 0.950 . S
C2430 C2425 1.363 . S
C2430 C2429 1.415 . S
C2431 H2407 0.951 . S
C2431 C2432 1.366 . S
C2431 C2433 1.388 . S
C2432 C2431 1.366 . S
C2432 C2436 1.385 . S
C2433 H2408 0.951 . S
C2433 C2431 1.388 . S
C2433 C2434 1.366 . S
C2434 C2433 1.366 . S
C2434 C2435 1.414 . S
C2434 C2437 1.499 . S
C2435 H2409 0.950 . S
C2435 C2434 1.414 . S
C2435 C2436 1.374 . S
C2436 H2410 0.950 . S
C2436 C2432 1.385 . S
C2436 C2435 1.374 . S
C2437 C2434 1.499 . S
C2437 C2438 1.373 . S
C2437 C2439 1.389 . S
C2438 H2411 0.950 . S
C2438 C2424 1.377 . S
C2438 C2437 1.373 . S
C2439 C2423 1.377 . S
C2439 C2437 1.389 . S
C2439 C2440 1.524 . S
C2440 C2439 1.524 . S
C2440 C2441 1.397 . S
C2440 C2445 1.363 . S
C2441 H2412 0.950 . S
C2441 C2440 1.397 . S
C2441 C2442 1.334 1_655 S
C2442 H2413 0.950 . S
C2442 C2441 1.334 1_455 S
C2442 C2443 1.287 . S
C2443 C2442 1.287 . S
C2443 C2444 1.524 1_455 S
C2443 H2446 0.999 . S
C2444 H2414 0.950 . S
C2444 C2443 1.524 1_655 S
C2444 C2445 1.415 . S
C2445 H2415 0.950 . S
C2445 C2440 1.363 . S
C2445 C2444 1.415 . S
H2446 C2443 0.999 . S
H2447 C2428 0.913 . S
H2448 C2466 0.951 . S
H2449 C2468 0.951 . S
H2450 C2470 0.950 . S
H2451 C2471 0.950 . S
H2452 C2473 0.950 . S
H2453 C2476 0.950 . S
H2454 C2477 0.950 . S
H2455 C2479 0.950 . S
H2456 C2480 0.950 . S
H2457 C2481 0.951 . S
H2458 C2483 0.951 . S
H2459 C2485 0.950 . S
H2460 C2486 0.950 . S
H2461 C2488 0.950 . S
H2462 C2491 0.950 . S
H2463 C2492 0.950 . S
H2464 C2494 0.950 . S
H2465 C2495 0.950 . S
C2466 H2448 0.951 . S
C2466 C2467 1.366 . S
C2466 C2468 1.388 . S
C2467 C2466 1.366 . S
C2467 C2471 1.385 . S
C2468 H2449 0.951 . S
C2468 C2466 1.388 . S
C2468 C2469 1.366 . S
C2469 C2468 1.366 . S
C2469 C2470 1.414 . S
C2469 C2472 1.499 . S
C2470 H2450 0.950 . S
C2470 C2469 1.414 . S
C2470 C2471 1.374 . S
C2471 H2451 0.950 . S
C2471 C2467 1.385 . S
C2471 C2470 1.374 . S
C2472 C2469 1.499 . S
C2472 C2473 1.373 . S
C2472 C2474 1.389 . S
C2473 H2452 0.950 . S
C2473 C2472 1.373 . S
C2473 C2489 1.377 . S
C2474 C2472 1.389 . S
C2474 C2475 1.524 . S
C2474 C2488 1.377 . S
C2475 C2474 1.524 . S
C2475 C2476 1.397 . S
C2475 C2480 1.363 . S
C2476 H2453 0.950 . S
C2476 C2475 1.397 . S
C2476 C2477 1.334 . S
C2477 H2454 0.950 . S
C2477 C2476 1.334 . S
C2477 C2478 1.287 . S
C2478 C2477 1.287 . S
C2478 C2479 1.524 . S
C2478 H2497 0.913 . S
C2479 H2455 0.950 . S
C2479 C2478 1.524 . S
C2479 C2480 1.415 . S
C2480 H2456 0.950 . S
C2480 C2475 1.363 . S
C2480 C2479 1.415 . S
C2481 H2457 0.951 . S
C2481 C2482 1.366 . S
C2481 C2483 1.388 . S
C2482 C2481 1.366 . S
C2482 C2486 1.385 . S
C2483 H2458 0.951 . S
C2483 C2481 1.388 . S
C2483 C2484 1.366 . S
C2484 C2483 1.366 . S
C2484 C2485 1.414 . S
C2484 C2487 1.499 . S
C2485 H2459 0.950 . S
C2485 C2484 1.414 . S
C2485 C2486 1.374 . S
C2486 H2460 0.950 . S
C2486 C2482 1.385 . S
C2486 C2485 1.374 . S
C2487 C2484 1.499 . S
C2487 C2488 1.373 . S
C2487 C2489 1.389 . S
C2488 H2461 0.950 . S
C2488 C2474 1.377 . S
C2488 C2487 1.373 . S
C2489 C2473 1.377 . S
C2489 C2487 1.389 . S
C2489 C2490 1.524 . S
C2490 C2489 1.524 . S
C2490 C2491 1.397 . S
C2490 C2495 1.363 . S
C2491 H2462 0.950 . S
C2491 C2490 1.397 . S
C2491 C2492 1.334 . S
C2492 H2463 0.950 . S
C2492 C2491 1.334 . S
C2492 C2493 1.287 . S
C2493 C2492 1.287 . S
C2493 C2494 1.524 . S
C2493 H2496 0.999 . S
C2494 H2464 0.950 . S
C2494 C2493 1.524 . S
C2494 C2495 1.415 . S
C2495 H2465 0.950 . S
C2495 C2490 1.363 . S
C2495 C2494 1.415 . S
H2496 C2493 0.999 . S
H2497 C2478 0.913 . S
H2498 C2516 0.951 . S
H2499 C2518 0.951 . S
H2500 C2520 0.950 . S
H2501 C2521 0.950 . S
H2502 C2523 0.950 . S
H2503 C2526 0.950 . S
H2504 C2527 0.950 . S
H2505 C2529 0.950 . S
H2506 C2530 0.950 . S
H2507 C2531 0.951 . S
H2508 C2533 0.951 . S
H2509 C2535 0.950 . S
H2510 C2536 0.950 . S
H2511 C2538 0.950 . S
H2512 C2541 0.950 . S
H2513 C2542 0.950 . S
H2514 C2544 0.950 . S
H2515 C2545 0.950 . S
C2516 H2498 0.951 . S
C2516 C2517 1.366 . S
C2516 C2518 1.388 . S
C2517 C2516 1.366 . S
C2517 C2521 1.385 . S
C2518 H2499 0.951 . S
C2518 C2516 1.388 . S
C2518 C2519 1.366 . S
C2519 C2518 1.366 . S
C2519 C2520 1.414 . S
C2519 C2522 1.499 . S
C2520 H2500 0.950 . S
C2520 C2519 1.414 . S
C2520 C2521 1.374 . S
C2521 H2501 0.950 . S
C2521 C2517 1.385 . S
C2521 C2520 1.374 . S
C2522 C2519 1.499 . S
C2522 C2523 1.373 . S
C2522 C2524 1.389 . S
C2523 H2502 0.950 . S
C2523 C2522 1.373 . S
C2523 C2539 1.377 . S
C2524 C2522 1.389 . S
C2524 C2525 1.524 . S
C2524 C2538 1.377 . S
C2525 C2524 1.524 . S
C2525 C2526 1.397 . S
C2525 C2530 1.363 . S
C2526 H2503 0.950 . S
C2526 C2525 1.397 . S
C2526 C2527 1.334 . S
C2527 H2504 0.950 . S
C2527 C2526 1.334 . S
C2527 C2528 1.287 . S
C2528 C2527 1.287 . S
C2528 C2529 1.524 . S
C2528 H2547 0.913 . S
C2529 H2505 0.950 . S
C2529 C2528 1.524 . S
C2529 C2530 1.415 . S
C2530 H2506 0.950 . S
C2530 C2525 1.363 . S
C2530 C2529 1.415 . S
C2531 H2507 0.951 . S
C2531 C2532 1.366 . S
C2531 C2533 1.388 . S
C2532 C2531 1.366 . S
C2532 C2536 1.385 . S
C2533 H2508 0.951 . S
C2533 C2531 1.388 . S
C2533 C2534 1.366 . S
C2534 C2533 1.366 . S
C2534 C2535 1.414 . S
C2534 C2537 1.499 . S
C2535 H2509 0.950 . S
C2535 C2534 1.414 . S
C2535 C2536 1.374 . S
C2536 H2510 0.950 . S
C2536 C2532 1.385 . S
C2536 C2535 1.374 . S
C2537 C2534 1.499 . S
C2537 C2538 1.373 . S
C2537 C2539 1.389 . S
C2538 H2511 0.950 . S
C2538 C2524 1.377 . S
C2538 C2537 1.373 . S
C2539 C2523 1.377 . S
C2539 C2537 1.389 . S
C2539 C2540 1.524 . S
C2540 C2539 1.524 . S
C2540 C2541 1.397 . S
C2540 C2545 1.363 . S
C2541 H2512 0.950 . S
C2541 C2540 1.397 . S
C2541 C2542 1.334 . S
C2542 H2513 0.950 . S
C2542 C2541 1.334 . S
C2542 C2543 1.287 . S
C2543 C2542 1.287 . S
C2543 C2544 1.524 . S
C2543 H2546 0.999 . S
C2544 H2514 0.950 . S
C2544 C2543 1.524 . S
C2544 C2545 1.415 . S
C2545 H2515 0.950 . S
C2545 C2540 1.363 . S
C2545 C2544 1.415 . S
H2546 C2543 0.999 . S
H2547 C2528 0.913 . S
H2548 C2566 0.951 . S
H2549 C2568 0.951 . S
H2550 C2570 0.950 . S
H2551 C2571 0.950 . S
H2552 C2573 0.950 . S
H2553 C2576 0.950 . S
H2554 C2577 0.950 . S
H2555 C2579 0.950 . S
H2556 C2580 0.950 . S
H2557 C2581 0.951 . S
H2558 C2583 0.951 . S
H2559 C2585 0.950 . S
H2560 C2586 0.950 . S
H2561 C2588 0.950 . S
H2562 C2591 0.950 . S
H2563 C2592 0.950 . S
H2564 C2594 0.950 . S
H2565 C2595 0.950 . S
C2566 H2548 0.951 . S
C2566 C2567 1.366 . S
C2566 C2568 1.388 . S
C2567 C2566 1.366 . S
C2567 C2571 1.385 . S
C2568 H2549 0.951 . S
C2568 C2566 1.388 . S
C2568 C2569 1.366 . S
C2569 C2568 1.366 . S
C2569 C2570 1.414 . S
C2569 C2572 1.499 . S
C2570 H2550 0.950 . S
C2570 C2569 1.414 . S
C2570 C2571 1.374 . S
C2571 H2551 0.950 . S
C2571 C2567 1.385 . S
C2571 C2570 1.374 . S
C2572 C2569 1.499 . S
C2572 C2573 1.373 . S
C2572 C2574 1.389 . S
C2573 H2552 0.950 . S
C2573 C2572 1.373 . S
C2573 C2589 1.377 . S
C2574 C2572 1.389 . S
C2574 C2575 1.524 . S
C2574 C2588 1.377 . S
C2575 C2574 1.524 . S
C2575 C2576 1.397 . S
C2575 C2580 1.363 . S
C2576 H2553 0.950 . S
C2576 C2575 1.397 . S
C2576 C2577 1.334 . S
C2577 H2554 0.950 . S
C2577 C2576 1.334 . S
C2577 C2578 1.287 . S
C2578 C2577 1.287 . S
C2578 C2579 1.524 . S
C2578 H2597 0.913 . S
C2579 H2555 0.950 . S
C2579 C2578 1.524 . S
C2579 C2580 1.415 . S
C2580 H2556 0.950 . S
C2580 C2575 1.363 . S
C2580 C2579 1.415 . S
C2581 H2557 0.951 . S
C2581 C2582 1.366 . S
C2581 C2583 1.388 . S
C2582 C2581 1.366 . S
C2582 C2586 1.385 . S
C2583 H2558 0.951 . S
C2583 C2581 1.388 . S
C2583 C2584 1.366 . S
C2584 C2583 1.366 . S
C2584 C2585 1.414 . S
C2584 C2587 1.499 . S
C2585 H2559 0.950 . S
C2585 C2584 1.414 . S
C2585 C2586 1.374 . S
C2586 H2560 0.950 . S
C2586 C2582 1.385 . S
C2586 C2585 1.374 . S
C2587 C2584 1.499 . S
C2587 C2588 1.373 . S
C2587 C2589 1.389 . S
C2588 H2561 0.950 . S
C2588 C2574 1.377 . S
C2588 C2587 1.373 . S
C2589 C2573 1.377 . S
C2589 C2587 1.389 . S
C2589 C2590 1.524 . S
C2590 C2589 1.524 . S
C2590 C2591 1.397 . S
C2590 C2595 1.363 . S
C2591 H2562 0.950 . S
C2591 C2590 1.397 . S
C2591 C2592 1.334 . S
C2592 H2563 0.950 . S
C2592 C2591 1.334 . S
C2592 C2593 1.287 . S
C2593 C2592 1.287 . S
C2593 C2594 1.524 . S
C2593 H2596 0.999 . S
C2594 H2564 0.950 . S
C2594 C2593 1.524 . S
C2594 C2595 1.415 . S
C2595 H2565 0.950 . S
C2595 C2590 1.363 . S
C2595 C2594 1.415 . S
H2596 C2593 0.999 . S
H2597 C2578 0.913 . S
H2598 C2616 0.951 . S
H2599 C2618 0.951 . S
H2600 C2620 0.950 . S
H2601 C2621 0.950 . S
H2602 C2623 0.950 . S
H2603 C2626 0.950 . S
H2604 C2627 0.950 . S
H2605 C2629 0.950 . S
H2606 C2630 0.950 . S
H2607 C2631 0.951 . S
H2608 C2633 0.951 . S
H2609 C2635 0.950 . S
H2610 C2636 0.950 . S
H2611 C2638 0.950 . S
H2612 C2641 0.950 . S
H2613 C2642 0.950 . S
H2614 C2644 0.950 . S
H2615 C2645 0.950 . S
C2616 H2598 0.951 . S
C2616 C2617 1.366 . S
C2616 C2618 1.388 . S
C2617 C2616 1.366 . S
C2617 C2621 1.385 . S
C2618 H2599 0.951 . S
C2618 C2616 1.388 . S
C2618 C2619 1.366 . S
C2619 C2618 1.366 . S
C2619 C2620 1.414 . S
C2619 C2622 1.499 . S
C2620 H2600 0.950 . S
C2620 C2619 1.414 . S
C2620 C2621 1.374 . S
C2621 H2601 0.950 . S
C2621 C2617 1.385 . S
C2621 C2620 1.374 . S
C2622 C2619 1.499 . S
C2622 C2623 1.373 . S
C2622 C2624 1.389 . S
C2623 H2602 0.950 . S
C2623 C2622 1.373 . S
C2623 C2639 1.377 . S
C2624 C2622 1.389 . S
C2624 C2625 1.524 . S
C2624 C2638 1.377 . S
C2625 C2624 1.524 . S
C2625 C2626 1.397 . S
C2625 C2630 1.363 . S
C2626 H2603 0.950 . S
C2626 C2625 1.397 . S
C2626 C2627 1.334 . S
C2627 H2604 0.950 . S
C2627 C2626 1.334 . S
C2627 C2628 1.287 . S
C2628 C2627 1.287 . S
C2628 C2629 1.524 . S
C2628 H2647 0.913 . S
C2629 H2605 0.950 . S
C2629 C2628 1.524 . S
C2629 C2630 1.415 . S
C2630 H2606 0.950 . S
C2630 C2625 1.363 . S
C2630 C2629 1.415 . S
C2631 H2607 0.951 . S
C2631 C2632 1.366 . S
C2631 C2633 1.388 . S
C2632 C2631 1.366 . S
C2632 C2636 1.385 . S
C2633 H2608 0.951 . S
C2633 C2631 1.388 . S
C2633 C2634 1.366 . S
C2634 C2633 1.366 . S
C2634 C2635 1.414 . S
C2634 C2637 1.499 . S
C2635 H2609 0.950 . S
C2635 C2634 1.414 . S
C2635 C2636 1.374 . S
C2636 H2610 0.950 . S
C2636 C2632 1.385 . S
C2636 C2635 1.374 . S
C2637 C2634 1.499 . S
C2637 C2638 1.373 . S
C2637 C2639 1.389 . S
C2638 H2611 0.950 . S
C2638 C2624 1.377 . S
C2638 C2637 1.373 . S
C2639 C2623 1.377 . S
C2639 C2637 1.389 . S
C2639 C2640 1.524 . S
C2640 C2639 1.524 . S
C2640 C2641 1.397 . S
C2640 C2645 1.363 . S
C2641 H2612 0.950 . S
C2641 C2640 1.397 . S
C2641 C2642 1.334 . S
C2642 H2613 0.950 . S
C2642 C2641 1.334 . S
C2642 C2643 1.287 . S
C2643 C2642 1.287 . S
C2643 C2644 1.524 . S
C2643 H2646 0.999 . S
C2644 H2614 0.950 . S
C2644 C2643 1.524 . S
C2644 C2645 1.415 . S
C2645 H2615 0.950 . S
C2645 C2640 1.363 . S
C2645 C2644 1.415 . S
H2646 C2643 0.999 . S
H2647 C2628 0.913 . S
H2648 C2666 0.951 . S
H2649 C2668 0.951 . S
H2650 C2670 0.950 . S
H2651 C2671 0.950 . S
H2652 C2673 0.950 . S
H2653 C2676 0.950 . S
H2654 C2677 0.950 . S
H2655 C2679 0.950 . S
H2656 C2680 0.950 . S
H2657 C2681 0.951 . S
H2658 C2683 0.951 . S
H2659 C2685 0.950 . S
H2660 C2686 0.950 . S
H2661 C2688 0.950 . S
H2662 C2691 0.950 . S
H2663 C2692 0.950 . S
H2664 C2694 0.950 . S
H2665 C2695 0.950 . S
C2666 H2648 0.951 . S
C2666 C2667 1.366 . S
C2666 C2668 1.388 . S
C2667 C2666 1.366 . S
C2667 C2671 1.385 . S
C2668 H2649 0.951 . S
C2668 C2666 1.388 . S
C2668 C2669 1.366 . S
C2669 C2668 1.366 . S
C2669 C2670 1.414 . S
C2669 C2672 1.499 . S
C2670 H2650 0.950 . S
C2670 C2669 1.414 . S
C2670 C2671 1.374 . S
C2671 H2651 0.950 . S
C2671 C2667 1.385 . S
C2671 C2670 1.374 . S
C2672 C2669 1.499 . S
C2672 C2673 1.373 . S
C2672 C2674 1.389 . S
C2673 H2652 0.950 . S
C2673 C2672 1.373 . S
C2673 C2689 1.377 . S
C2674 C2672 1.389 . S
C2674 C2675 1.524 . S
C2674 C2688 1.377 . S
C2675 C2674 1.524 . S
C2675 C2676 1.397 . S
C2675 C2680 1.363 . S
C2676 H2653 0.950 . S
C2676 C2675 1.397 . S
C2676 C2677 1.334 . S
C2677 H2654 0.950 . S
C2677 C2676 1.334 . S
C2677 C2678 1.287 . S
C2678 C2677 1.287 . S
C2678 C2679 1.524 . S
C2678 H2697 0.913 . S
C2679 H2655 0.950 . S
C2679 C2678 1.524 . S
C2679 C2680 1.415 . S
C2680 H2656 0.950 . S
C2680 C2675 1.363 . S
C2680 C2679 1.415 . S
C2681 H2657 0.951 . S
C2681 C2682 1.366 . S
C2681 C2683 1.388 . S
C2682 C2681 1.366 . S
C2682 C2686 1.385 . S
C2683 H2658 0.951 . S
C2683 C2681 1.388 . S
C2683 C2684 1.366 . S
C2684 C2683 1.366 . S
C2684 C2685 1.414 . S
C2684 C2687 1.499 . S
C2685 H2659 0.950 . S
C2685 C2684 1.414 . S
C2685 C2686 1.374 . S
C2686 H2660 0.950 . S
C2686 C2682 1.385 . S
C2686 C2685 1.374 . S
C2687 C2684 1.499 . S
C2687 C2688 1.373 . S
C2687 C2689 1.389 . S
C2688 H2661 0.950 . S
C2688 C2674 1.377 . S
C2688 C2687 1.373 . S
C2689 C2673 1.377 . S
C2689 C2687 1.389 . S
C2689 C2690 1.524 . S
C2690 C2689 1.524 . S
C2690 C2691 1.397 . S
C2690 C2695 1.363 . S
C2691 H2662 0.950 . S
C2691 C2690 1.397 . S
C2691 C2692 1.334 . S
C2692 H2663 0.950 . S
C2692 C2691 1.334 . S
C2692 C2693 1.287 . S
C2693 C2692 1.287 . S
C2693 C2694 1.524 . S
C2693 H2696 0.999 . S
C2694 H2664 0.950 . S
C2694 C2693 1.524 . S
C2694 C2695 1.415 . S
C2695 H2665 0.950 . S
C2695 C2690 1.363 . S
C2695 C2694 1.415 . S
H2696 C2693 0.999 . S
H2697 C2678 0.913 . S
H2698 C2716 0.951 . S
H2699 C2718 0.951 . S
H2700 C2720 0.950 . S
H2701 C2721 0.950 . S
H2702 C2723 0.950 . S
H2703 C2726 0.950 . S
H2704 C2727 0.950 . S
H2705 C2729 0.950 . S
H2706 C2730 0.950 . S
H2707 C2731 0.951 . S
H2708 C2733 0.951 . S
H2709 C2735 0.950 . S
H2710 C2736 0.950 . S
H2711 C2738 0.950 . S
H2712 C2741 0.971 . S
H2713 C2742 0.950 . S
H2714 C2744 0.950 . S
H2715 C2745 0.950 . S
C2716 H2698 0.951 . S
C2716 C2717 1.366 . S
C2716 C2718 1.388 . S
C2717 C2716 1.366 . S
C2717 C2721 1.385 1_556 S
C2718 H2699 0.951 . S
C2718 C2716 1.388 . S
C2718 C2719 1.366 . S
C2719 C2718 1.366 . S
C2719 C2720 1.414 1_556 S
C2719 C2722 1.499 . S
C2720 H2700 0.950 . S
C2720 C2719 1.414 1_554 S
C2720 C2721 1.374 . S
C2721 H2701 0.950 . S
C2721 C2717 1.385 1_554 S
C2721 C2720 1.374 . S
C2722 C2719 1.499 . S
C2722 C2723 1.373 1_556 S
C2722 C2724 1.389 . S
C2723 H2702 0.950 . S
C2723 C2722 1.373 1_554 S
C2723 C2739 1.377 . S
C2724 C2722 1.389 . S
C2724 C2725 1.524 . S
C2724 C2738 1.377 . S
C2725 C2724 1.524 . S
C2725 C2726 1.397 . S
C2725 C2730 1.363 . S
C2726 H2703 0.950 . S
C2726 C2725 1.397 . S
C2726 C2727 1.334 . S
C2727 H2704 0.950 . S
C2727 C2726 1.334 . S
C2727 C2728 1.287 . S
C2728 C2727 1.287 . S
C2728 C2729 1.524 . S
C2728 H2747 0.913 . S
C2729 H2705 0.950 . S
C2729 C2728 1.524 . S
C2729 C2730 1.415 . S
C2730 H2706 0.950 . S
C2730 C2725 1.363 . S
C2730 C2729 1.415 . S
C2731 H2707 0.951 . S
C2731 C2732 1.366 1_554 S
C2731 C2733 1.388 . S
C2732 C2731 1.366 1_556 S
C2732 C2736 1.385 . S
C2733 H2708 0.951 . S
C2733 C2731 1.388 . S
C2733 C2734 1.366 1_554 S
C2734 C2733 1.366 1_556 S
C2734 C2735 1.414 . S
C2734 C2737 1.499 . S
C2735 H2709 0.950 . S
C2735 C2734 1.414 . S
C2735 C2736 1.374 . S
C2736 H2710 0.950 . S
C2736 C2732 1.385 . S
C2736 C2735 1.374 . S
C2737 C2734 1.499 . S
C2737 C2738 1.373 . S
C2737 C2739 1.389 1_556 S
C2738 H2711 0.950 . S
C2738 C2724 1.377 . S
C2738 C2737 1.373 . S
C2739 C2723 1.377 . S
C2739 C2737 1.389 1_554 S
C2739 C2740 1.524 . S
C2740 C2739 1.524 . S
C2740 C2741 1.397 . S
C2740 C2745 1.363 . S
C2741 H2712 0.971 . S
C2741 C2740 1.397 . S
C2741 C2742 1.334 . S
C2742 H2713 0.950 . S
C2742 C2741 1.334 . S
C2742 C2743 1.287 . S
C2743 C2742 1.287 . S
C2743 C2744 1.524 . S
C2743 H2746 0.999 . S
C2744 H2714 0.950 . S
C2744 C2743 1.524 . S
C2744 C2745 1.415 . S
C2745 H2715 0.950 . S
C2745 C2740 1.363 . S
C2745 C2744 1.415 . S
H2746 C2743 0.999 . S
H2747 C2728 0.913 . S
H2748 C2766 0.951 . S
H2749 C2768 0.951 . S
H2750 C2770 0.950 . S
H2751 C2771 0.950 . S
H2752 C2773 0.950 . S
H2753 C2776 0.950 . S
H2754 C2777 0.950 . S
H2755 C2779 0.950 . S
H2756 C2780 0.950 . S
H2757 C2781 0.951 . S
H2758 C2783 0.951 . S
H2759 C2785 0.950 . S
H2760 C2786 0.950 . S
H2761 C2788 0.950 . S
H2762 C2791 0.950 . S
H2763 C2792 0.950 . S
H2764 C2794 0.950 . S
H2765 C2795 0.950 . S
C2766 H2748 0.951 . S
C2766 C2767 1.366 . S
C2766 C2768 1.388 . S
C2767 C2766 1.366 . S
C2767 C2771 1.385 . S
C2768 H2749 0.951 . S
C2768 C2766 1.388 . S
C2768 C2769 1.366 . S
C2769 C2768 1.366 . S
C2769 C2770 1.414 . S
C2769 C2772 1.499 . S
C2770 H2750 0.950 . S
C2770 C2769 1.414 . S
C2770 C2771 1.374 . S
C2771 H2751 0.950 . S
C2771 C2767 1.385 . S
C2771 C2770 1.374 . S
C2772 C2769 1.499 . S
C2772 C2773 1.373 . S
C2772 C2774 1.389 . S
C2773 H2752 0.950 . S
C2773 C2772 1.373 . S
C2773 C2789 1.377 . S
C2774 C2772 1.389 . S
C2774 C2775 1.524 . S
C2774 C2788 1.377 . S
C2775 C2774 1.524 . S
C2775 C2776 1.397 . S
C2775 C2780 1.363 . S
C2776 H2753 0.950 . S
C2776 C2775 1.397 . S
C2776 C2777 1.334 . S
C2777 H2754 0.950 . S
C2777 C2776 1.334 . S
C2777 C2778 1.287 . S
C2778 C2777 1.287 . S
C2778 C2779 1.524 . S
C2778 H2797 0.913 . S
C2779 H2755 0.950 . S
C2779 C2778 1.524 . S
C2779 C2780 1.415 . S
C2780 H2756 0.950 . S
C2780 C2775 1.363 . S
C2780 C2779 1.415 . S
C2781 H2757 0.951 . S
C2781 C2782 1.366 . S
C2781 C2783 1.388 . S
C2782 C2781 1.366 . S
C2782 C2786 1.385 . S
C2783 H2758 0.951 . S
C2783 C2781 1.388 . S
C2783 C2784 1.366 . S
C2784 C2783 1.366 . S
C2784 C2785 1.414 . S
C2784 C2787 1.499 . S
C2785 H2759 0.950 . S
C2785 C2784 1.414 . S
C2785 C2786 1.374 . S
C2786 H2760 0.950 . S
C2786 C2782 1.385 . S
C2786 C2785 1.374 . S
C2787 C2784 1.499 . S
C2787 C2788 1.373 . S
C2787 C2789 1.389 . S
C2788 H2761 0.950 . S
C2788 C2774 1.377 . S
C2788 C2787 1.373 . S
C2789 C2773 1.377 . S
C2789 C2787 1.389 . S
C2789 C2790 1.524 . S
C2790 C2789 1.524 . S
C2790 C2791 1.397 . S
C2790 C2795 1.363 . S
C2791 H2762 0.950 . S
C2791 C2790 1.397 . S
C2791 C2792 1.334 . S
C2792 H2763 0.950 . S
C2792 C2791 1.334 . S
C2792 C2793 1.287 . S
C2793 C2792 1.287 . S
C2793 C2794 1.524 . S
C2793 H2796 0.999 . S
C2794 H2764 0.950 . S
C2794 C2793 1.524 . S
C2794 C2795 1.415 . S
C2795 H2765 0.950 . S
C2795 C2790 1.363 . S
C2795 C2794 1.415 . S
H2796 C2793 0.999 . S
H2797 C2778 0.913 . S
H2798 C2816 0.951 . S
H2799 C2818 0.951 . S
H2800 C2820 0.950 1_556 S
H2801 C2821 0.950 1_556 S
H2802 C2823 0.950 . S
H2803 C2826 0.950 . S
H2804 C2827 0.950 . S
H2805 C2829 0.950 . S
H2806 C2830 0.946 1_554 S
H2807 C2831 0.951 1_556 S
H2808 C2833 0.951 1_556 S
H2809 C2835 0.950 . S
H2810 C2836 0.950 . S
H2811 C2838 0.950 . S
H2812 C2841 0.950 . S
H2813 C2842 0.950 . S
H2814 C2844 0.950 . S
H2815 C2845 0.950 . S
C2816 H2798 0.951 . S
C2816 C2817 1.366 . S
C2816 C2818 1.388 . S
C2817 C2816 1.366 . S
C2817 C2821 1.385 . S
C2818 H2799 0.951 . S
C2818 C2816 1.388 . S
C2818 C2819 1.366 . S
C2819 C2818 1.366 . S
C2819 C2820 1.414 . S
C2819 C2822 1.499 . S
C2820 H2800 0.950 1_554 S
C2820 C2819 1.414 . S
C2820 C2821 1.374 . S
C2821 H2801 0.950 1_554 S
C2821 C2817 1.385 . S
C2821 C2820 1.374 . S
C2822 C2819 1.499 . S
C2822 C2823 1.373 . S
C2822 C2824 1.389 . S
C2823 H2802 0.950 . S
C2823 C2822 1.373 . S
C2823 C2839 1.377 . S
C2824 C2822 1.389 . S
C2824 C2825 1.524 1_554 S
C2824 C2838 1.377 . S
C2825 C2824 1.524 1_556 S
C2825 C2826 1.397 . S
C2825 C2830 1.364 . S
C2826 H2803 0.950 . S
C2826 C2825 1.397 . S
C2826 C2827 1.334 . S
C2827 H2804 0.950 . S
C2827 C2826 1.334 . S
C2827 C2828 1.287 . S
C2828 C2827 1.287 . S
C2828 C2829 1.524 . S
C2828 H2847 0.913 . S
C2829 H2805 0.950 . S
C2829 C2828 1.524 . S
C2829 C2830 1.418 . S
C2830 H2806 0.946 1_556 S
C2830 C2825 1.364 . S
C2830 C2829 1.418 . S
C2831 H2807 0.951 1_554 S
C2831 C2832 1.366 . S
C2831 C2833 1.388 . S
C2832 C2831 1.366 . S
C2832 C2836 1.385 . S
C2833 H2808 0.951 1_554 S
C2833 C2831 1.388 . S
C2833 C2834 1.366 . S
C2834 C2833 1.366 . S
C2834 C2835 1.414 . S
C2834 C2837 1.499 . S
C2835 H2809 0.950 . S
C2835 C2834 1.414 . S
C2835 C2836 1.374 . S
C2836 H2810 0.950 . S
C2836 C2832 1.385 . S
C2836 C2835 1.374 . S
C2837 C2834 1.499 . S
C2837 C2838 1.373 . S
C2837 C2839 1.389 . S
C2838 H2811 0.950 . S
C2838 C2824 1.377 . S
C2838 C2837 1.373 . S
C2839 C2823 1.377 . S
C2839 C2837 1.389 . S
C2839 C2840 1.524 . S
C2840 C2839 1.524 . S
C2840 C2841 1.397 . S
C2840 C2845 1.363 . S
C2841 H2812 0.950 . S
C2841 C2840 1.397 . S
C2841 C2842 1.334 . S
C2842 H2813 0.950 . S
C2842 C2841 1.334 . S
C2842 C2843 1.287 . S
C2843 C2842 1.287 . S
C2843 C2844 1.524 . S
C2843 H2846 0.999 . S
C2844 H2814 0.950 . S
C2844 C2843 1.524 . S
C2844 C2845 1.415 . S
C2845 H2815 0.950 . S
C2845 C2840 1.363 . S
C2845 C2844 1.415 . S
H2846 C2843 0.999 . S
H2847 C2828 0.913 . S
H2848 C2866 0.951 . S
H2849 C2868 0.944 1_455 S
H2850 C2870 0.950 . S
H2851 C2871 0.950 . S
H2852 C2873 0.950 . S
H2853 C2876 0.950 . S
H2854 C2877 0.950 . S
H2855 C2879 0.950 1_455 S
H2856 C2880 0.950 . S
H2857 C2881 0.951 . S
H2858 C2883 0.951 . S
H2859 C2885 0.950 . S
H2860 C2886 0.950 . S
H2861 C2888 0.950 . S
H2862 C2891 0.950 . S
H2863 C2892 0.950 . S
H2864 C2894 0.950 . S
H2865 C2895 0.950 . S
C2866 H2848 0.951 . S
C2866 C2867 1.366 1_455 S
C2866 C2868 1.388 1_455 S
C2867 C2866 1.366 1_655 S
C2867 C2871 1.385 . S
C2868 H2849 0.944 1_655 S
C2868 C2866 1.388 1_655 S
C2868 C2869 1.366 . S
C2869 C2868 1.366 . S
C2869 C2870 1.414 . S
C2869 C2872 1.499 . S
C2870 H2850 0.950 . S
C2870 C2869 1.414 . S
C2870 C2871 1.374 . S
C2871 H2851 0.950 . S
C2871 C2867 1.385 . S
C2871 C2870 1.374 . S
C2872 C2869 1.499 . S
C2872 C2873 1.373 . S
C2872 C2874 1.389 . S
C2873 H2852 0.950 . S
C2873 C2872 1.373 . S
C2873 C2889 1.377 . S
C2874 C2872 1.389 . S
C2874 C2875 1.524 . S
C2874 C2888 1.377 . S
C2875 C2874 1.524 . S
C2875 C2876 1.397 . S
C2875 C2880 1.363 . S
C2876 H2853 0.950 . S
C2876 C2875 1.397 . S
C2876 C2877 1.334 . S
C2877 H2854 0.950 . S
C2877 C2876 1.334 . S
C2877 C2878 1.287 . S
C2878 C2877 1.287 . S
C2878 C2879 1.524 . S
C2878 H2897 0.913 . S
C2879 H2855 0.950 1_655 S
C2879 C2878 1.524 . S
C2879 C2880 1.415 . S
C2880 H2856 0.950 . S
C2880 C2875 1.363 . S
C2880 C2879 1.415 . S
C2881 H2857 0.951 . S
C2881 C2882 1.366 . S
C2881 C2883 1.388 . S
C2882 C2881 1.366 . S
C2882 C2886 1.385 . S
C2883 H2858 0.951 . S
C2883 C2881 1.388 . S
C2883 C2884 1.366 . S
C2884 C2883 1.366 . S
C2884 C2885 1.414 . S
C2884 C2887 1.499 . S
C2885 H2859 0.950 . S
C2885 C2884 1.414 . S
C2885 C2886 1.374 . S
C2886 H2860 0.950 . S
C2886 C2882 1.385 . S
C2886 C2885 1.374 . S
C2887 C2884 1.499 . S
C2887 C2888 1.373 . S
C2887 C2889 1.389 . S
C2888 H2861 0.950 . S
C2888 C2874 1.377 . S
C2888 C2887 1.373 . S
C2889 C2873 1.377 . S
C2889 C2887 1.389 . S
C2889 C2890 1.524 . S
C2890 C2889 1.524 . S
C2890 C2891 1.397 . S
C2890 C2895 1.363 . S
C2891 H2862 0.950 . S
C2891 C2890 1.397 . S
C2891 C2892 1.334 . S
C2892 H2863 0.950 . S
C2892 C2891 1.334 . S
C2892 C2893 1.287 . S
C2893 C2892 1.287 . S
C2893 C2894 1.524 . S
C2893 H2896 0.999 . S
C2894 H2864 0.950 . S
C2894 C2893 1.524 . S
C2894 C2895 1.415 . S
C2895 H2865 0.950 . S
C2895 C2890 1.363 . S
C2895 C2894 1.415 . S
H2896 C2893 0.999 . S
H2897 C2878 0.913 . S
H2898 C2916 0.951 . S
H2899 C2918 0.951 . S
H2900 C2920 0.950 . S
H2901 C2921 0.950 . S
H2902 C2923 0.950 . S
H2903 C2926 0.950 . S
H2904 C2927 0.950 . S
H2905 C2929 0.950 . S
H2906 C2930 0.950 . S
H2907 C2931 0.951 . S
H2908 C2933 0.951 . S
H2909 C2935 0.950 . S
H2910 C2936 0.950 . S
H2911 C2938 0.950 . S
H2912 C2941 0.950 . S
H2913 C2942 0.950 . S
H2914 C2944 0.950 . S
H2915 C2945 0.950 . S
C2916 H2898 0.951 . S
C2916 C2917 1.366 . S
C2916 C2918 1.388 . S
C2917 C2916 1.366 . S
C2917 C2921 1.385 . S
C2918 H2899 0.951 . S
C2918 C2916 1.388 . S
C2918 C2919 1.366 . S
C2919 C2918 1.366 . S
C2919 C2920 1.414 . S
C2919 C2922 1.499 . S
C2920 H2900 0.950 . S
C2920 C2919 1.414 . S
C2920 C2921 1.374 . S
C2921 H2901 0.950 . S
C2921 C2917 1.385 . S
C2921 C2920 1.374 . S
C2922 C2919 1.499 . S
C2922 C2923 1.373 . S
C2922 C2924 1.389 . S
C2923 H2902 0.950 . S
C2923 C2922 1.373 . S
C2923 C2939 1.377 . S
C2924 C2922 1.389 . S
C2924 C2925 1.524 . S
C2924 C2938 1.377 . S
C2925 C2924 1.524 . S
C2925 C2926 1.397 . S
C2925 C2930 1.363 . S
C2926 H2903 0.950 . S
C2926 C2925 1.397 . S
C2926 C2927 1.334 . S
C2927 H2904 0.950 . S
C2927 C2926 1.334 . S
C2927 C2928 1.287 . S
C2928 C2927 1.287 . S
C2928 C2929 1.524 . S
C2928 H2947 0.913 . S
C2929 H2905 0.950 . S
C2929 C2928 1.524 . S
C2929 C2930 1.415 . S
C2930 H2906 0.950 . S
C2930 C2925 1.363 . S
C2930 C2929 1.415 . S
C2931 H2907 0.951 . S
C2931 C2932 1.366 . S
C2931 C2933 1.388 . S
C2932 C2931 1.366 . S
C2932 C2936 1.385 . S
C2933 H2908 0.951 . S
C2933 C2931 1.388 . S
C2933 C2934 1.366 . S
C2934 C2933 1.366 . S
C2934 C2935 1.414 . S
C2934 C2937 1.499 . S
C2935 H2909 0.950 . S
C2935 C2934 1.414 . S
C2935 C2936 1.374 . S
C2936 H2910 0.950 . S
C2936 C2932 1.385 . S
C2936 C2935 1.374 . S
C2937 C2934 1.499 . S
C2937 C2938 1.373 . S
C2937 C2939 1.389 . S
C2938 H2911 0.950 . S
C2938 C2924 1.377 . S
C2938 C2937 1.373 . S
C2939 C2923 1.377 . S
C2939 C2937 1.389 . S
C2939 C2940 1.524 . S
C2940 C2939 1.524 . S
C2940 C2941 1.397 . S
C2940 C2945 1.363 . S
C2941 H2912 0.950 . S
C2941 C2940 1.397 . S
C2941 C2942 1.334 . S
C2942 H2913 0.950 . S
C2942 C2941 1.334 . S
C2942 C2943 1.287 . S
C2943 C2942 1.287 . S
C2943 C2944 1.524 . S
C2943 H2946 0.999 . S
C2944 H2914 0.950 . S
C2944 C2943 1.524 . S
C2944 C2945 1.415 . S
C2945 H2915 0.950 . S
C2945 C2940 1.363 . S
C2945 C2944 1.415 . S
H2946 C2943 0.999 . S
H2947 C2928 0.913 . S
H2948 C2966 0.951 . S
H2949 C2968 0.951 . S
H2950 C2970 0.950 . S
H2951 C2971 0.950 . S
H2952 C2973 0.950 . S
H2953 C2976 0.950 . S
H2954 C2977 0.950 . S
H2955 C2979 0.950 1_455 S
H2956 C2980 0.950 . S
H2957 C2981 0.951 . S
H2958 C2983 0.951 . S
H2959 C2985 0.950 1_455 S
H2960 C2986 0.950 . S
H2961 C2988 0.950 . S
H2962 C2991 0.950 . S
H2963 C2992 0.950 . S
H2964 C2994 0.950 . S
H2965 C2995 0.950 . S
C2966 H2948 0.951 . S
C2966 C2967 1.366 . S
C2966 C2968 1.388 . S
C2967 C2966 1.366 . S
C2967 C2971 1.385 . S
C2968 H2949 0.951 . S
C2968 C2966 1.388 . S
C2968 C2969 1.366 . S
C2969 C2968 1.366 . S
C2969 C2970 1.414 . S
C2969 C2972 1.499 . S
C2970 H2950 0.950 . S
C2970 C2969 1.414 . S
C2970 C2971 1.374 . S
C2971 H2951 0.950 . S
C2971 C2967 1.385 . S
C2971 C2970 1.374 . S
C2972 C2969 1.499 . S
C2972 C2973 1.373 . S
C2972 C2974 1.389 . S
C2973 H2952 0.950 . S
C2973 C2972 1.373 . S
C2973 C2989 1.377 . S
C2974 C2972 1.389 . S
C2974 C2975 1.524 . S
C2974 C2988 1.377 . S
C2975 C2974 1.524 . S
C2975 C2976 1.397 . S
C2975 C2980 1.363 . S
C2976 H2953 0.950 . S
C2976 C2975 1.397 . S
C2976 C2977 1.334 . S
C2977 H2954 0.950 . S
C2977 C2976 1.334 . S
C2977 C2978 1.287 . S
C2978 C2977 1.287 . S
C2978 C2979 1.524 . S
C2978 H2997 0.913 . S
C2979 H2955 0.950 1_655 S
C2979 C2978 1.524 . S
C2979 C2980 1.415 . S
C2980 H2956 0.950 . S
C2980 C2975 1.363 . S
C2980 C2979 1.415 . S
C2981 H2957 0.951 . S
C2981 C2982 1.366 . S
C2981 C2983 1.388 . S
C2982 C2981 1.366 . S
C2982 C2986 1.385 1_655 S
C2983 H2958 0.951 . S
C2983 C2981 1.388 . S
C2983 C2984 1.366 . S
C2984 C2983 1.366 . S
C2984 C2985 1.414 . S
C2984 C2987 1.499 . S
C2985 H2959 0.950 1_655 S
C2985 C2984 1.414 . S
C2985 C2986 1.374 1_655 S
C2986 H2960 0.950 . S
C2986 C2982 1.385 1_455 S
C2986 C2985 1.374 1_455 S
C2987 C2984 1.499 . S
C2987 C2988 1.373 . S
C2987 C2989 1.389 . S
C2988 H2961 0.950 . S
C2988 C2974 1.377 . S
C2988 C2987 1.373 . S
C2989 C2973 1.377 . S
C2989 C2987 1.389 . S
C2989 C2990 1.524 . S
C2990 C2989 1.524 . S
C2990 C2991 1.397 . S
C2990 C2995 1.363 . S
C2991 H2962 0.950 . S
C2991 C2990 1.397 . S
C2991 C2992 1.334 . S
C2992 H2963 0.950 . S
C2992 C2991 1.334 . S
C2992 C2993 1.287 . S
C2993 C2992 1.287 . S
C2993 C2994 1.524 . S
C2993 H2996 0.999 . S
C2994 H2964 0.950 . S
C2994 C2993 1.524 . S
C2994 C2995 1.415 . S
C2995 H2965 0.950 . S
C2995 C2990 1.363 . S
C2995 C2994 1.415 . S
H2996 C2993 0.999 . S
H2997 C2978 0.913 . S
H2998 C3016 0.951 . S
H2999 C3018 0.951 . S
H3000 C3020 0.950 . S
H3001 C3021 0.950 . S
H3002 C3023 0.950 . S
H3003 C3026 0.950 . S
H3004 C3027 0.950 . S
H3005 C3029 0.950 . S
H3006 C3030 0.950 . S
H3007 C3031 0.951 . S
H3008 C3033 0.951 . S
H3009 C3035 0.950 . S
H3010 C3036 0.950 . S
H3011 C3038 0.950 . S
H3012 C3041 0.950 . S
H3013 C3042 0.950 . S
H3014 C3044 0.950 . S
H3015 C3045 0.950 . S
C3016 H2998 0.951 . S
C3016 C3017 1.366 . S
C3016 C3018 1.388 . S
C3017 C3016 1.366 . S
C3017 C3021 1.385 . S
C3018 H2999 0.951 . S
C3018 C3016 1.388 . S
C3018 C3019 1.366 . S
C3019 C3018 1.366 . S
C3019 C3020 1.414 . S
C3019 C3022 1.499 . S
C3020 H3000 0.950 . S
C3020 C3019 1.414 . S
C3020 C3021 1.374 . S
C3021 H3001 0.950 . S
C3021 C3017 1.385 . S
C3021 C3020 1.374 . S
C3022 C3019 1.499 . S
C3022 C3023 1.373 . S
C3022 C3024 1.389 . S
C3023 H3002 0.950 . S
C3023 C3022 1.373 . S
C3023 C3039 1.377 . S
C3024 C3022 1.389 . S
C3024 C3025 1.524 . S
C3024 C3038 1.377 . S
C3025 C3024 1.524 . S
C3025 C3026 1.397 . S
C3025 C3030 1.363 . S
C3026 H3003 0.950 . S
C3026 C3025 1.397 . S
C3026 C3027 1.334 . S
C3027 H3004 0.950 . S
C3027 C3026 1.334 . S
C3027 C3028 1.287 . S
C3028 C3027 1.287 . S
C3028 C3029 1.524 . S
C3028 H3047 0.913 . S
C3029 H3005 0.950 . S
C3029 C3028 1.524 . S
C3029 C3030 1.415 . S
C3030 H3006 0.950 . S
C3030 C3025 1.363 . S
C3030 C3029 1.415 . S
C3031 H3007 0.951 . S
C3031 C3032 1.366 . S
C3031 C3033 1.388 . S
C3032 C3031 1.366 . S
C3032 C3036 1.385 . S
C3033 H3008 0.951 . S
C3033 C3031 1.388 . S
C3033 C3034 1.366 . S
C3034 C3033 1.366 . S
C3034 C3035 1.414 . S
C3034 C3037 1.499 . S
C3035 H3009 0.950 . S
C3035 C3034 1.414 . S
C3035 C3036 1.374 . S
C3036 H3010 0.950 . S
C3036 C3032 1.385 . S
C3036 C3035 1.374 . S
C3037 C3034 1.499 . S
C3037 C3038 1.373 . S
C3037 C3039 1.389 . S
C3038 H3011 0.950 . S
C3038 C3024 1.377 . S
C3038 C3037 1.373 . S
C3039 C3023 1.377 . S
C3039 C3037 1.389 . S
C3039 C3040 1.524 . S
C3040 C3039 1.524 . S
C3040 C3041 1.397 . S
C3040 C3045 1.363 . S
C3041 H3012 0.950 . S
C3041 C3040 1.397 . S
C3041 C3042 1.334 . S
C3042 H3013 0.950 . S
C3042 C3041 1.334 . S
C3042 C3043 1.287 . S
C3043 C3042 1.287 . S
C3043 C3044 1.524 . S
C3043 H3046 0.999 . S
C3044 H3014 0.950 . S
C3044 C3043 1.524 . S
C3044 C3045 1.415 . S
C3045 H3015 0.950 . S
C3045 C3040 1.363 . S
C3045 C3044 1.415 . S
H3046 C3043 0.999 . S
H3047 C3028 0.913 . S
H3048 C3066 0.951 . S
H3049 C3068 0.951 . S
H3050 C3070 0.950 . S
H3051 C3071 0.950 . S
H3052 C3073 0.950 . S
H3053 C3076 0.950 . S
H3054 C3077 0.950 . S
H3055 C3079 0.950 . S
H3056 C3080 0.950 . S
H3057 C3081 0.951 . S
H3058 C3083 0.951 . S
H3059 C3085 0.950 . S
H3060 C3086 0.950 . S
H3061 C3088 0.950 . S
H3062 C3091 0.950 . S
H3063 C3092 0.950 . S
H3064 C3094 0.950 . S
H3065 C3095 0.950 . S
C3066 H3048 0.951 . S
C3066 C3067 1.366 . S
C3066 C3068 1.388 . S
C3067 C3066 1.366 . S
C3067 C3071 1.385 . S
C3068 H3049 0.951 . S
C3068 C3066 1.388 . S
C3068 C3069 1.366 . S
C3069 C3068 1.366 . S
C3069 C3070 1.414 . S
C3069 C3072 1.499 . S
C3070 H3050 0.950 . S
C3070 C3069 1.414 . S
C3070 C3071 1.374 . S
C3071 H3051 0.950 . S
C3071 C3067 1.385 . S
C3071 C3070 1.374 . S
C3072 C3069 1.499 . S
C3072 C3073 1.373 . S
C3072 C3074 1.389 . S
C3073 H3052 0.950 . S
C3073 C3072 1.373 . S
C3073 C3089 1.377 . S
C3074 C3072 1.389 . S
C3074 C3075 1.524 . S
C3074 C3088 1.377 . S
C3075 C3074 1.524 . S
C3075 C3076 1.397 . S
C3075 C3080 1.363 . S
C3076 H3053 0.950 . S
C3076 C3075 1.397 . S
C3076 C3077 1.334 . S
C3077 H3054 0.950 . S
C3077 C3076 1.334 . S
C3077 C3078 1.287 . S
C3078 C3077 1.287 . S
C3078 C3079 1.524 . S
C3078 H3097 0.913 . S
C3079 H3055 0.950 . S
C3079 C3078 1.524 . S
C3079 C3080 1.415 . S
C3080 H3056 0.950 . S
C3080 C3075 1.363 . S
C3080 C3079 1.415 . S
C3081 H3057 0.951 . S
C3081 C3082 1.366 . S
C3081 C3083 1.388 . S
C3082 C3081 1.366 . S
C3082 C3086 1.385 1_455 S
C3083 H3058 0.951 . S
C3083 C3081 1.388 . S
C3083 C3084 1.366 . S
C3084 C3083 1.366 . S
C3084 C3085 1.414 . S
C3084 C3087 1.499 . S
C3085 H3059 0.950 . S
C3085 C3084 1.414 . S
C3085 C3086 1.374 1_455 S
C3086 H3060 0.950 . S
C3086 C3082 1.385 1_655 S
C3086 C3085 1.374 1_655 S
C3087 C3084 1.499 . S
C3087 C3088 1.373 . S
C3087 C3089 1.389 . S
C3088 H3061 0.950 . S
C3088 C3074 1.377 . S
C3088 C3087 1.373 . S
C3089 C3073 1.377 . S
C3089 C3087 1.389 . S
C3089 C3090 1.524 . S
C3090 C3089 1.524 . S
C3090 C3091 1.397 . S
C3090 C3095 1.363 . S
C3091 H3062 0.950 . S
C3091 C3090 1.397 . S
C3091 C3092 1.334 . S
C3092 H3063 0.950 . S
C3092 C3091 1.334 . S
C3092 C3093 1.287 . S
C3093 C3092 1.287 . S
C3093 C3094 1.524 . S
C3093 H3096 0.999 . S
C3094 H3064 0.950 . S
C3094 C3093 1.524 . S
C3094 C3095 1.415 . S
C3095 H3065 0.950 . S
C3095 C3090 1.363 . S
C3095 C3094 1.415 . S
H3096 C3093 0.999 . S
H3097 C3078 0.913 . S
H3098 C3116 0.951 . S
H3099 C3118 0.951 . S
H3100 C3120 0.950 . S
H3101 C3121 0.950 . S
H3102 C3123 0.950 . S
H3103 C3126 0.950 . S
H3104 C3127 0.950 . S
H3105 C3129 0.950 . S
H3106 C3130 0.950 . S
H3107 C3131 0.951 . S
H3108 C3133 0.951 . S
H3109 C3135 0.950 . S
H3110 C3136 0.950 . S
H3111 C3138 0.950 . S
H3112 C3141 0.950 . S
H3113 C3142 0.950 . S
H3114 C3144 0.950 . S
H3115 C3145 0.950 . S
C3116 H3098 0.951 . S
C3116 C3117 1.366 . S
C3116 C3118 1.388 . S
C3117 C3116 1.366 . S
C3117 C3121 1.385 . S
C3118 H3099 0.951 . S
C3118 C3116 1.388 . S
C3118 C3119 1.366 . S
C3119 C3118 1.366 . S
C3119 C3120 1.414 . S
C3119 C3122 1.499 . S
C3120 H3100 0.950 . S
C3120 C3119 1.414 . S
C3120 C3121 1.374 . S
C3121 H3101 0.950 . S
C3121 C3117 1.385 . S
C3121 C3120 1.374 . S
C3122 C3119 1.499 . S
C3122 C3123 1.373 . S
C3122 C3124 1.389 . S
C3123 H3102 0.950 . S
C3123 C3122 1.373 . S
C3123 C3139 1.377 . S
C3124 C3122 1.389 . S
C3124 C3125 1.524 . S
C3124 C3138 1.377 . S
C3125 C3124 1.524 . S
C3125 C3126 1.397 . S
C3125 C3130 1.363 . S
C3126 H3103 0.950 . S
C3126 C3125 1.397 . S
C3126 C3127 1.334 . S
C3127 H3104 0.950 . S
C3127 C3126 1.334 . S
C3127 C3128 1.287 . S
C3128 C3127 1.287 . S
C3128 C3129 1.524 . S
C3128 H3147 0.913 . S
C3129 H3105 0.950 . S
C3129 C3128 1.524 . S
C3129 C3130 1.415 . S
C3130 H3106 0.950 . S
C3130 C3125 1.363 . S
C3130 C3129 1.415 . S
C3131 H3107 0.951 . S
C3131 C3132 1.366 . S
C3131 C3133 1.388 . S
C3132 C3131 1.366 . S
C3132 C3136 1.385 . S
C3133 H3108 0.951 . S
C3133 C3131 1.388 . S
C3133 C3134 1.366 . S
C3134 C3133 1.366 . S
C3134 C3135 1.414 . S
C3134 C3137 1.499 . S
C3135 H3109 0.950 . S
C3135 C3134 1.414 . S
C3135 C3136 1.374 . S
C3136 H3110 0.950 . S
C3136 C3132 1.385 . S
C3136 C3135 1.374 . S
C3137 C3134 1.499 . S
C3137 C3138 1.373 . S
C3137 C3139 1.389 . S
C3138 H3111 0.950 . S
C3138 C3124 1.377 . S
C3138 C3137 1.373 . S
C3139 C3123 1.377 . S
C3139 C3137 1.389 . S
C3139 C3140 1.524 . S
C3140 C3139 1.524 . S
C3140 C3141 1.397 . S
C3140 C3145 1.363 . S
C3141 H3112 0.950 . S
C3141 C3140 1.397 . S
C3141 C3142 1.334 . S
C3142 H3113 0.950 . S
C3142 C3141 1.334 . S
C3142 C3143 1.287 . S
C3143 C3142 1.287 . S
C3143 C3144 1.524 . S
C3143 H3146 0.999 . S
C3144 H3114 0.950 . S
C3144 C3143 1.524 . S
C3144 C3145 1.415 . S
C3145 H3115 0.950 . S
C3145 C3140 1.363 . S
C3145 C3144 1.415 . S
H3146 C3143 0.999 . S
H3147 C3128 0.913 . S
H3148 C3166 0.951 . S
H3149 C3168 0.951 . S
H3150 C3170 0.950 . S
H3151 C3171 0.950 . S
H3152 C3173 0.950 . S
H3153 C3176 0.950 . S
H3154 C3177 0.950 . S
H3155 C3179 0.950 . S
H3156 C3180 0.950 . S
H3157 C3181 0.951 . S
H3158 C3183 0.951 . S
H3159 C3185 0.950 . S
H3160 C3186 0.950 . S
H3161 C3188 0.950 . S
H3162 C3191 0.950 . S
H3163 C3192 0.950 . S
H3164 C3194 0.950 . S
H3165 C3195 0.950 . S
C3166 H3148 0.951 . S
C3166 C3167 1.366 . S
C3166 C3168 1.388 . S
C3167 C3166 1.366 . S
C3167 C3171 1.385 . S
C3168 H3149 0.951 . S
C3168 C3166 1.388 . S
C3168 C3169 1.366 . S
C3169 C3168 1.366 . S
C3169 C3170 1.414 . S
C3169 C3172 1.499 . S
C3170 H3150 0.950 . S
C3170 C3169 1.414 . S
C3170 C3171 1.374 . S
C3171 H3151 0.950 . S
C3171 C3167 1.385 . S
C3171 C3170 1.374 . S
C3172 C3169 1.499 . S
C3172 C3173 1.373 . S
C3172 C3174 1.389 . S
C3173 H3152 0.950 . S
C3173 C3172 1.373 . S
C3173 C3189 1.377 . S
C3174 C3172 1.389 . S
C3174 C3175 1.524 . S
C3174 C3188 1.377 . S
C3175 C3174 1.524 . S
C3175 C3176 1.397 . S
C3175 C3180 1.363 . S
C3176 H3153 0.950 . S
C3176 C3175 1.397 . S
C3176 C3177 1.334 . S
C3177 H3154 0.950 . S
C3177 C3176 1.334 . S
C3177 C3178 1.287 . S
C3178 C3177 1.287 . S
C3178 C3179 1.524 . S
C3178 H3197 0.913 . S
C3179 H3155 0.950 . S
C3179 C3178 1.524 . S
C3179 C3180 1.415 . S
C3180 H3156 0.950 . S
C3180 C3175 1.363 . S
C3180 C3179 1.415 . S
C3181 H3157 0.951 . S
C3181 C3182 1.366 . S
C3181 C3183 1.388 . S
C3182 C3181 1.366 . S
C3182 C3186 1.385 1_455 S
C3183 H3158 0.951 . S
C3183 C3181 1.388 . S
C3183 C3184 1.366 . S
C3184 C3183 1.366 . S
C3184 C3185 1.414 . S
C3184 C3187 1.499 . S
C3185 H3159 0.950 . S
C3185 C3184 1.414 . S
C3185 C3186 1.374 1_455 S
C3186 H3160 0.950 . S
C3186 C3182 1.385 1_655 S
C3186 C3185 1.374 1_655 S
C3187 C3184 1.499 . S
C3187 C3188 1.373 . S
C3187 C3189 1.389 . S
C3188 H3161 0.950 . S
C3188 C3174 1.377 . S
C3188 C3187 1.373 . S
C3189 C3173 1.377 . S
C3189 C3187 1.389 . S
C3189 C3190 1.524 . S
C3190 C3189 1.524 . S
C3190 C3191 1.397 . S
C3190 C3195 1.363 . S
C3191 H3162 0.950 . S
C3191 C3190 1.397 . S
C3191 C3192 1.334 . S
C3192 H3163 0.950 . S
C3192 C3191 1.334 . S
C3192 C3193 1.287 . S
C3193 C3192 1.287 . S
C3193 C3194 1.524 . S
C3193 H3196 0.999 . S
C3194 H3164 0.950 . S
C3194 C3193 1.524 . S
C3194 C3195 1.415 . S
C3195 H3165 0.950 . S
C3195 C3190 1.363 . S
C3195 C3194 1.415 . S
H3196 C3193 0.999 . S
H3197 C3178 0.913 . S
H3198 C3216 0.951 . S
H3199 C3218 0.951 . S
H3200 C3220 0.950 . S
H3201 C3221 0.950 . S
H3202 C3223 0.950 . S
H3203 C3226 0.950 . S
H3204 C3227 0.950 . S
H3205 C3229 0.950 . S
H3206 C3230 0.950 . S
H3207 C3231 0.951 . S
H3208 C3233 0.951 . S
H3209 C3235 0.950 . S
H3210 C3236 0.950 . S
H3211 C3238 0.950 . S
H3212 C3241 0.950 . S
H3213 C3242 0.950 . S
H3214 C3244 0.950 . S
H3215 C3245 0.950 . S
C3216 H3198 0.951 . S
C3216 C3217 1.366 . S
C3216 C3218 1.388 . S
C3217 C3216 1.366 . S
C3217 C3221 1.385 . S
C3218 H3199 0.951 . S
C3218 C3216 1.388 . S
C3218 C3219 1.366 . S
C3219 C3218 1.366 . S
C3219 C3220 1.414 . S
C3219 C3222 1.499 . S
C3220 H3200 0.950 . S
C3220 C3219 1.414 . S
C3220 C3221 1.374 . S
C3221 H3201 0.950 . S
C3221 C3217 1.385 . S
C3221 C3220 1.374 . S
C3222 C3219 1.499 . S
C3222 C3223 1.373 . S
C3222 C3224 1.389 . S
C3223 H3202 0.950 . S
C3223 C3222 1.373 . S
C3223 C3239 1.377 . S
C3224 C3222 1.389 . S
C3224 C3225 1.524 . S
C3224 C3238 1.377 . S
C3225 C3224 1.524 . S
C3225 C3226 1.397 . S
C3225 C3230 1.363 . S
C3226 H3203 0.950 . S
C3226 C3225 1.397 . S
C3226 C3227 1.334 . S
C3227 H3204 0.950 . S
C3227 C3226 1.334 . S
C3227 C3228 1.287 . S
C3228 C3227 1.287 . S
C3228 C3229 1.524 . S
C3228 H3247 0.913 . S
C3229 H3205 0.950 . S
C3229 C3228 1.524 . S
C3229 C3230 1.415 . S
C3230 H3206 0.950 . S
C3230 C3225 1.363 . S
C3230 C3229 1.415 . S
C3231 H3207 0.951 . S
C3231 C3232 1.366 . S
C3231 C3233 1.388 . S
C3232 C3231 1.366 . S
C3232 C3236 1.385 . S
C3233 H3208 0.951 . S
C3233 C3231 1.388 . S
C3233 C3234 1.366 . S
C3234 C3233 1.366 . S
C3234 C3235 1.414 . S
C3234 C3237 1.499 . S
C3235 H3209 0.950 . S
C3235 C3234 1.414 . S
C3235 C3236 1.374 . S
C3236 H3210 0.950 . S
C3236 C3232 1.385 . S
C3236 C3235 1.374 . S
C3237 C3234 1.499 . S
C3237 C3238 1.373 . S
C3237 C3239 1.389 . S
C3238 H3211 0.950 . S
C3238 C3224 1.377 . S
C3238 C3237 1.373 . S
C3239 C3223 1.377 . S
C3239 C3237 1.389 . S
C3239 C3240 1.524 . S
C3240 C3239 1.524 . S
C3240 C3241 1.397 . S
C3240 C3245 1.363 . S
C3241 H3212 0.950 . S
C3241 C3240 1.397 . S
C3241 C3242 1.334 . S
C3242 H3213 0.950 . S
C3242 C3241 1.334 . S
C3242 C3243 1.287 . S
C3243 C3242 1.287 . S
C3243 C3244 1.524 . S
C3243 H3246 0.999 . S
C3244 H3214 0.950 . S
C3244 C3243 1.524 . S
C3244 C3245 1.415 . S
C3245 H3215 0.950 . S
C3245 C3240 1.363 . S
C3245 C3244 1.415 . S
H3246 C3243 0.999 . S
H3247 C3228 0.913 . S
H3248 C3266 0.967 . S
H3249 C3268 0.951 . S
H3250 C3270 0.950 . S
H3251 C3271 0.950 . S
H3252 C3273 0.950 . S
H3253 C3276 0.956 . S
H3254 C3277 0.950 . S
H3255 C3279 0.950 . S
H3256 C3280 0.950 . S
H3257 C3281 0.951 . S
H3258 C3283 0.951 . S
H3259 C3285 0.950 . S
H3260 C3286 0.950 . S
H3261 C3288 0.950 . S
H3262 C3291 0.950 . S
H3263 C3292 0.950 . S
H3264 C3294 0.950 . S
H3265 C3295 0.950 . S
C3266 H3248 0.967 . S
C3266 C3267 1.359 1_455 S
C3266 C3268 1.379 1_455 S
C3267 C3266 1.359 1_655 S
C3267 C3271 1.385 . S
C3268 H3249 0.951 . S
C3268 C3266 1.379 1_655 S
C3268 C3269 1.366 . S
C3269 C3268 1.366 . S
C3269 C3270 1.414 . S
C3269 C3272 1.499 . S
C3270 H3250 0.950 . S
C3270 C3269 1.414 . S
C3270 C3271 1.374 . S
C3271 H3251 0.950 . S
C3271 C3267 1.385 . S
C3271 C3270 1.374 . S
C3272 C3269 1.499 . S
C3272 C3273 1.373 . S
C3272 C3274 1.389 . S
C3273 H3252 0.950 . S
C3273 C3272 1.373 . S
C3273 C3289 1.377 . S
C3274 C3272 1.389 . S
C3274 C3275 1.524 . S
C3274 C3288 1.377 . S
C3275 C3274 1.524 . S
C3275 C3276 1.399 . S
C3275 C3280 1.363 1_655 S
C3276 H3253 0.956 . S
C3276 C3275 1.399 . S
C3276 C3277 1.325 1_655 S
C3277 H3254 0.950 . S
C3277 C3276 1.325 1_455 S
C3277 C3278 1.287 . S
C3278 C3277 1.287 . S
C3278 C3279 1.524 . S
C3278 H3297 0.913 . S
C3279 H3255 0.950 . S
C3279 C3278 1.524 . S
C3279 C3280 1.415 . S
C3280 H3256 0.950 . S
C3280 C3275 1.363 1_455 S
C3280 C3279 1.415 . S
C3281 H3257 0.951 . S
C3281 C3282 1.366 . S
C3281 C3283 1.388 . S
C3282 C3281 1.366 . S
C3282 C3286 1.385 . S
C3283 H3258 0.951 . S
C3283 C3281 1.388 . S
C3283 C3284 1.366 . S
C3284 C3283 1.366 . S
C3284 C3285 1.414 . S
C3284 C3287 1.499 . S
C3285 H3259 0.950 . S
C3285 C3284 1.414 . S
C3285 C3286 1.374 . S
C3286 H3260 0.950 . S
C3286 C3282 1.385 . S
C3286 C3285 1.374 . S
C3287 C3284 1.499 . S
C3287 C3288 1.373 . S
C3287 C3289 1.389 . S
C3288 H3261 0.950 . S
C3288 C3274 1.377 . S
C3288 C3287 1.373 . S
C3289 C3273 1.377 . S
C3289 C3287 1.389 . S
C3289 C3290 1.524 . S
C3290 C3289 1.524 . S
C3290 C3291 1.397 . S
C3290 C3295 1.363 . S
C3291 H3262 0.950 . S
C3291 C3290 1.397 . S
C3291 C3292 1.334 . S
C3292 H3263 0.950 . S
C3292 C3291 1.334 . S
C3292 C3293 1.287 . S
C3293 C3292 1.287 . S
C3293 C3294 1.524 . S
C3293 H3296 0.999 . S
C3294 H3264 0.950 . S
C3294 C3293 1.524 . S
C3294 C3295 1.415 . S
C3295 H3265 0.950 . S
C3295 C3290 1.363 . S
C3295 C3294 1.415 . S
H3296 C3293 0.999 . S
H3297 C3278 0.913 . S
H3298 C3316 0.951 . S
H3299 C3318 0.951 . S
H3300 C3320 0.950 . S
H3301 C3321 0.950 . S
H3302 C3323 0.950 . S
H3303 C3326 0.950 . S
H3304 C3327 0.950 . S
H3305 C3329 0.950 . S
H3306 C3330 0.950 . S
H3307 C3331 0.951 . S
H3308 C3333 0.951 . S
H3309 C3335 0.950 . S
H3310 C3336 0.950 . S
H3311 C3338 0.950 . S
H3312 C3341 0.950 . S
H3313 C3342 0.950 . S
H3314 C3344 0.950 . S
H3315 C3345 0.950 . S
C3316 H3298 0.951 . S
C3316 C3317 1.366 . S
C3316 C3318 1.388 . S
C3317 C3316 1.366 . S
C3317 C3321 1.385 . S
C3318 H3299 0.951 . S
C3318 C3316 1.388 . S
C3318 C3319 1.366 . S
C3319 C3318 1.366 . S
C3319 C3320 1.414 . S
C3319 C3322 1.499 . S
C3320 H3300 0.950 . S
C3320 C3319 1.414 . S
C3320 C3321 1.374 . S
C3321 H3301 0.950 . S
C3321 C3317 1.385 . S
C3321 C3320 1.374 . S
C3322 C3319 1.499 . S
C3322 C3323 1.373 . S
C3322 C3324 1.389 . S
C3323 H3302 0.950 . S
C3323 C3322 1.373 . S
C3323 C3339 1.377 . S
C3324 C3322 1.389 . S
C3324 C3325 1.524 . S
C3324 C3338 1.377 . S
C3325 C3324 1.524 . S
C3325 C3326 1.397 . S
C3325 C3330 1.363 . S
C3326 H3303 0.950 . S
C3326 C3325 1.397 . S
C3326 C3327 1.334 . S
C3327 H3304 0.950 . S
C3327 C3326 1.334 . S
C3327 C3328 1.287 . S
C3328 C3327 1.287 . S
C3328 C3329 1.524 . S
C3328 H3347 0.913 . S
C3329 H3305 0.950 . S
C3329 C3328 1.524 . S
C3329 C3330 1.415 . S
C3330 H3306 0.950 . S
C3330 C3325 1.363 . S
C3330 C3329 1.415 . S
C3331 H3307 0.951 . S
C3331 C3332 1.366 . S
C3331 C3333 1.388 . S
C3332 C3331 1.366 . S
C3332 C3336 1.385 . S
C3333 H3308 0.951 . S
C3333 C3331 1.388 . S
C3333 C3334 1.366 . S
C3334 C3333 1.366 . S
C3334 C3335 1.414 . S
C3334 C3337 1.499 . S
C3335 H3309 0.950 . S
C3335 C3334 1.414 . S
C3335 C3336 1.374 . S
C3336 H3310 0.950 . S
C3336 C3332 1.385 . S
C3336 C3335 1.374 . S
C3337 C3334 1.499 . S
C3337 C3338 1.373 . S
C3337 C3339 1.389 . S
C3338 H3311 0.950 . S
C3338 C3324 1.377 . S
C3338 C3337 1.373 . S
C3339 C3323 1.377 . S
C3339 C3337 1.389 . S
C3339 C3340 1.524 . S
C3340 C3339 1.524 . S
C3340 C3341 1.397 . S
C3340 C3345 1.363 . S
C3341 H3312 0.950 . S
C3341 C3340 1.397 . S
C3341 C3342 1.334 . S
C3342 H3313 0.950 . S
C3342 C3341 1.334 . S
C3342 C3343 1.287 . S
C3343 C3342 1.287 . S
C3343 C3344 1.524 . S
C3343 H3346 0.999 . S
C3344 H3314 0.950 . S
C3344 C3343 1.524 . S
C3344 C3345 1.415 . S
C3345 H3315 0.950 . S
C3345 C3340 1.363 . S
C3345 C3344 1.415 . S
H3346 C3343 0.999 . S
H3347 C3328 0.913 . S
H3348 C3366 0.951 . S
H3349 C3368 0.951 . S
H3350 C3370 0.950 1_455 S
H3351 C3371 0.950 . S
H3352 C3373 0.950 . S
H3353 C3376 0.950 . S
H3354 C3377 0.950 . S
H3355 C3379 0.950 . S
H3356 C3380 0.950 . S
H3357 C3381 0.951 . S
H3358 C3383 0.951 . S
H3359 C3385 0.950 . S
H3360 C3386 0.950 . S
H3361 C3388 0.950 . S
H3362 C3391 0.950 . S
H3363 C3392 0.950 . S
H3364 C3394 0.950 1_455 S
H3365 C3395 0.950 . S
C3366 H3348 0.951 . S
C3366 C3367 1.366 . S
C3366 C3368 1.388 . S
C3367 C3366 1.366 . S
C3367 C3371 1.385 1_655 S
C3368 H3349 0.951 . S
C3368 C3366 1.388 . S
C3368 C3369 1.366 . S
C3369 C3368 1.366 . S
C3369 C3370 1.414 . S
C3369 C3372 1.499 . S
C3370 H3350 0.950 1_655 S
C3370 C3369 1.414 . S
C3370 C3371 1.374 1_655 S
C3371 H3351 0.950 . S
C3371 C3367 1.385 1_455 S
C3371 C3370 1.374 1_455 S
C3372 C3369 1.499 . S
C3372 C3373 1.373 . S
C3372 C3374 1.389 . S
C3373 H3352 0.950 . S
C3373 C3372 1.373 . S
C3373 C3389 1.377 . S
C3374 C3372 1.389 . S
C3374 C3375 1.524 . S
C3374 C3388 1.377 . S
C3375 C3374 1.524 . S
C3375 C3376 1.397 . S
C3375 C3380 1.363 . S
C3376 H3353 0.950 . S
C3376 C3375 1.397 . S
C3376 C3377 1.334 . S
C3377 H3354 0.950 . S
C3377 C3376 1.334 . S
C3377 C3378 1.287 . S
C3378 C3377 1.287 . S
C3378 C3379 1.524 . S
C3378 H3397 0.913 . S
C3379 H3355 0.950 . S
C3379 C3378 1.524 . S
C3379 C3380 1.415 . S
C3380 H3356 0.950 . S
C3380 C3375 1.363 . S
C3380 C3379 1.415 . S
C3381 H3357 0.951 . S
C3381 C3382 1.366 . S
C3381 C3383 1.388 . S
C3382 C3381 1.366 . S
C3382 C3386 1.385 . S
C3383 H3358 0.951 . S
C3383 C3381 1.388 . S
C3383 C3384 1.366 . S
C3384 C3383 1.366 . S
C3384 C3385 1.414 . S
C3384 C3387 1.499 . S
C3385 H3359 0.950 . S
C3385 C3384 1.414 . S
C3385 C3386 1.374 . S
C3386 H3360 0.950 . S
C3386 C3382 1.385 . S
C3386 C3385 1.374 . S
C3387 C3384 1.499 . S
C3387 C3388 1.373 . S
C3387 C3389 1.389 . S
C3388 H3361 0.950 . S
C3388 C3374 1.377 . S
C3388 C3387 1.373 . S
C3389 C3373 1.377 . S
C3389 C3387 1.389 . S
C3389 C3390 1.524 . S
C3390 C3389 1.524 . S
C3390 C3391 1.397 . S
C3390 C3395 1.363 . S
C3391 H3362 0.950 . S
C3391 C3390 1.397 . S
C3391 C3392 1.334 . S
C3392 H3363 0.950 . S
C3392 C3391 1.334 . S
C3392 C3393 1.287 . S
C3393 C3392 1.287 . S
C3393 C3394 1.524 . S
C3393 H3396 0.999 . S
C3394 H3364 0.950 1_655 S
C3394 C3393 1.524 . S
C3394 C3395 1.415 . S
C3395 H3365 0.950 . S
C3395 C3390 1.363 . S
C3395 C3394 1.415 . S
H3396 C3393 0.999 . S
H3397 C3378 0.913 . S
H3398 C3416 0.951 . S
H3399 C3418 0.951 . S
H3400 C3420 0.950 . S
H3401 C3421 0.950 . S
H3402 C3423 0.950 . S
H3403 C3426 0.950 . S
H3404 C3427 0.950 . S
H3405 C3429 0.950 . S
H3406 C3430 0.950 . S
H3407 C3431 0.951 . S
H3408 C3433 0.951 . S
H3409 C3435 0.950 . S
H3410 C3436 0.950 . S
H3411 C3438 0.950 . S
H3412 C3441 0.950 . S
H3413 C3442 0.950 . S
H3414 C3444 0.950 . S
H3415 C3445 0.950 . S
C3416 H3398 0.951 . S
C3416 C3417 1.366 . S
C3416 C3418 1.388 . S
C3417 C3416 1.366 . S
C3417 C3421 1.385 . S
C3418 H3399 0.951 . S
C3418 C3416 1.388 . S
C3418 C3419 1.366 . S
C3419 C3418 1.366 . S
C3419 C3420 1.414 . S
C3419 C3422 1.499 . S
C3420 H3400 0.950 . S
C3420 C3419 1.414 . S
C3420 C3421 1.374 . S
C3421 H3401 0.950 . S
C3421 C3417 1.385 . S
C3421 C3420 1.374 . S
C3422 C3419 1.499 . S
C3422 C3423 1.373 . S
C3422 C3424 1.389 . S
C3423 H3402 0.950 . S
C3423 C3422 1.373 . S
C3423 C3439 1.377 . S
C3424 C3422 1.389 . S
C3424 C3425 1.524 . S
C3424 C3438 1.377 . S
C3425 C3424 1.524 . S
C3425 C3426 1.397 . S
C3425 C3430 1.363 . S
C3426 H3403 0.950 . S
C3426 C3425 1.397 . S
C3426 C3427 1.334 . S
C3427 H3404 0.950 . S
C3427 C3426 1.334 . S
C3427 C3428 1.287 . S
C3428 C3427 1.287 . S
C3428 C3429 1.524 . S
C3428 H3447 0.913 . S
C3429 H3405 0.950 . S
C3429 C3428 1.524 . S
C3429 C3430 1.415 . S
C3430 H3406 0.950 . S
C3430 C3425 1.363 . S
C3430 C3429 1.415 . S
C3431 H3407 0.951 . S
C3431 C3432 1.366 . S
C3431 C3433 1.388 . S
C3432 C3431 1.366 . S
C3432 C3436 1.385 . S
C3433 H3408 0.951 . S
C3433 C3431 1.388 . S
C3433 C3434 1.366 . S
C3434 C3433 1.366 . S
C3434 C3435 1.414 . S
C3434 C3437 1.499 . S
C3435 H3409 0.950 . S
C3435 C3434 1.414 . S
C3435 C3436 1.374 . S
C3436 H3410 0.950 . S
C3436 C3432 1.385 . S
C3436 C3435 1.374 . S
C3437 C3434 1.499 . S
C3437 C3438 1.373 . S
C3437 C3439 1.389 . S
C3438 H3411 0.950 . S
C3438 C3424 1.377 . S
C3438 C3437 1.373 . S
C3439 C3423 1.377 . S
C3439 C3437 1.389 . S
C3439 C3440 1.524 . S
C3440 C3439 1.524 . S
C3440 C3441 1.397 . S
C3440 C3445 1.363 . S
C3441 H3412 0.950 . S
C3441 C3440 1.397 . S
C3441 C3442 1.334 . S
C3442 H3413 0.950 . S
C3442 C3441 1.334 . S
C3442 C3443 1.287 . S
C3443 C3442 1.287 . S
C3443 C3444 1.524 . S
C3443 H3446 0.999 . S
C3444 H3414 0.950 . S
C3444 C3443 1.524 . S
C3444 C3445 1.415 . S
C3445 H3415 0.950 . S
C3445 C3440 1.363 . S
C3445 C3444 1.415 . S
H3446 C3443 0.999 . S
H3447 C3428 0.913 . S
H3448 C3466 0.951 . S
H3449 C3468 0.951 . S
H3450 C3470 0.950 1_655 S
H3451 C3471 0.950 . S
H3452 C3473 0.950 . S
H3453 C3476 0.950 . S
H3454 C3477 0.950 . S
H3455 C3479 0.950 . S
H3456 C3480 0.950 . S
H3457 C3481 0.951 . S
H3458 C3483 0.951 . S
H3459 C3485 0.950 . S
H3460 C3486 0.950 . S
H3461 C3488 0.950 . S
H3462 C3491 0.950 . S
H3463 C3492 0.950 . S
H3464 C3494 0.950 . S
H3465 C3495 0.950 . S
C3466 H3448 0.951 . S
C3466 C3467 1.366 . S
C3466 C3468 1.388 . S
C3467 C3466 1.366 . S
C3467 C3471 1.385 1_455 S
C3468 H3449 0.951 . S
C3468 C3466 1.388 . S
C3468 C3469 1.366 . S
C3469 C3468 1.366 . S
C3469 C3470 1.414 . S
C3469 C3472 1.499 . S
C3470 H3450 0.950 1_455 S
C3470 C3469 1.414 . S
C3470 C3471 1.374 1_455 S
C3471 H3451 0.950 . S
C3471 C3467 1.385 1_655 S
C3471 C3470 1.374 1_655 S
C3472 C3469 1.499 . S
C3472 C3473 1.373 . S
C3472 C3474 1.389 . S
C3473 H3452 0.950 . S
C3473 C3472 1.373 . S
C3473 C3489 1.377 . S
C3474 C3472 1.389 . S
C3474 C3475 1.524 . S
C3474 C3488 1.377 . S
C3475 C3474 1.524 . S
C3475 C3476 1.397 . S
C3475 C3480 1.363 . S
C3476 H3453 0.950 . S
C3476 C3475 1.397 . S
C3476 C3477 1.334 . S
C3477 H3454 0.950 . S
C3477 C3476 1.334 . S
C3477 C3478 1.287 . S
C3478 C3477 1.287 . S
C3478 C3479 1.524 . S
C3478 H3497 0.913 . S
C3479 H3455 0.950 . S
C3479 C3478 1.524 . S
C3479 C3480 1.415 . S
C3480 H3456 0.950 . S
C3480 C3475 1.363 . S
C3480 C3479 1.415 . S
C3481 H3457 0.951 . S
C3481 C3482 1.366 . S
C3481 C3483 1.388 . S
C3482 C3481 1.366 . S
C3482 C3486 1.385 . S
C3483 H3458 0.951 . S
C3483 C3481 1.388 . S
C3483 C3484 1.366 . S
C3484 C3483 1.366 . S
C3484 C3485 1.414 . S
C3484 C3487 1.499 . S
C3485 H3459 0.950 . S
C3485 C3484 1.414 . S
C3485 C3486 1.374 . S
C3486 H3460 0.950 . S
C3486 C3482 1.385 . S
C3486 C3485 1.374 . S
C3487 C3484 1.499 . S
C3487 C3488 1.373 . S
C3487 C3489 1.389 . S
C3488 H3461 0.950 . S
C3488 C3474 1.377 . S
C3488 C3487 1.373 . S
C3489 C3473 1.377 . S
C3489 C3487 1.389 . S
C3489 C3490 1.524 . S
C3490 C3489 1.524 . S
C3490 C3491 1.397 . S
C3490 C3495 1.363 . S
C3491 H3462 0.950 . S
C3491 C3490 1.397 . S
C3491 C3492 1.334 . S
C3492 H3463 0.950 . S
C3492 C3491 1.334 . S
C3492 C3493 1.287 . S
C3493 C3492 1.287 . S
C3493 C3494 1.524 . S
C3493 H3496 0.999 . S
C3494 H3464 0.950 . S
C3494 C3493 1.524 . S
C3494 C3495 1.415 . S
C3495 H3465 0.950 . S
C3495 C3490 1.363 . S
C3495 C3494 1.415 . S
H3496 C3493 0.999 . S
H3497 C3478 0.913 . S
H3498 C3516 0.951 . S
H3499 C3518 0.951 . S
H3500 C3520 0.950 . S
H3501 C3521 0.950 . S
H3502 C3523 0.950 . S
H3503 C3526 0.950 . S
H3504 C3527 0.950 . S
H3505 C3529 0.950 . S
H3506 C3530 0.950 . S
H3507 C3531 0.951 . S
H3508 C3533 0.951 . S
H3509 C3535 0.950 . S
H3510 C3536 0.950 . S
H3511 C3538 0.950 . S
H3512 C3541 0.950 . S
H3513 C3542 0.950 . S
H3514 C3544 0.950 . S
H3515 C3545 0.950 . S
C3516 H3498 0.951 . S
C3516 C3517 1.366 . S
C3516 C3518 1.388 . S
C3517 C3516 1.366 . S
C3517 C3521 1.385 . S
C3518 H3499 0.951 . S
C3518 C3516 1.388 . S
C3518 C3519 1.366 . S
C3519 C3518 1.366 . S
C3519 C3520 1.414 . S
C3519 C3522 1.499 . S
C3520 H3500 0.950 . S
C3520 C3519 1.414 . S
C3520 C3521 1.374 . S
C3521 H3501 0.950 . S
C3521 C3517 1.385 . S
C3521 C3520 1.374 . S
C3522 C3519 1.499 . S
C3522 C3523 1.373 . S
C3522 C3524 1.389 . S
C3523 H3502 0.950 . S
C3523 C3522 1.373 . S
C3523 C3539 1.377 . S
C3524 C3522 1.389 . S
C3524 C3525 1.524 . S
C3524 C3538 1.377 . S
C3525 C3524 1.524 . S
C3525 C3526 1.397 . S
C3525 C3530 1.363 . S
C3526 H3503 0.950 . S
C3526 C3525 1.397 . S
C3526 C3527 1.334 . S
C3527 H3504 0.950 . S
C3527 C3526 1.334 . S
C3527 C3528 1.287 . S
C3528 C3527 1.287 . S
C3528 C3529 1.524 . S
C3528 H3547 0.913 . S
C3529 H3505 0.950 . S
C3529 C3528 1.524 . S
C3529 C3530 1.415 . S
C3530 H3506 0.950 . S
C3530 C3525 1.363 . S
C3530 C3529 1.415 . S
C3531 H3507 0.951 . S
C3531 C3532 1.366 . S
C3531 C3533 1.388 . S
C3532 C3531 1.366 . S
C3532 C3536 1.385 . S
C3533 H3508 0.951 . S
C3533 C3531 1.388 . S
C3533 C3534 1.366 . S
C3534 C3533 1.366 . S
C3534 C3535 1.414 . S
C3534 C3537 1.499 . S
C3535 H3509 0.950 . S
C3535 C3534 1.414 . S
C3535 C3536 1.374 . S
C3536 H3510 0.950 . S
C3536 C3532 1.385 . S
C3536 C3535 1.374 . S
C3537 C3534 1.499 . S
C3537 C3538 1.373 . S
C3537 C3539 1.389 . S
C3538 H3511 0.950 . S
C3538 C3524 1.377 . S
C3538 C3537 1.373 . S
C3539 C3523 1.377 . S
C3539 C3537 1.389 . S
C3539 C3540 1.524 . S
C3540 C3539 1.524 . S
C3540 C3541 1.397 . S
C3540 C3545 1.363 . S
C3541 H3512 0.950 . S
C3541 C3540 1.397 . S
C3541 C3542 1.334 . S
C3542 H3513 0.950 . S
C3542 C3541 1.334 . S
C3542 C3543 1.287 . S
C3543 C3542 1.287 . S
C3543 C3544 1.524 . S
C3543 H3546 0.999 . S
C3544 H3514 0.950 . S
C3544 C3543 1.524 . S
C3544 C3545 1.415 . S
C3545 H3515 0.950 . S
C3545 C3540 1.363 . S
C3545 C3544 1.415 . S
H3546 C3543 0.999 . S
H3547 C3528 0.913 . S
H3548 C3566 0.951 . S
H3549 C3568 0.951 . S
H3550 C3570 0.950 . S
H3551 C3571 0.950 1_655 S
H3552 C3573 0.950 . S
H3553 C3576 0.950 1_655 S
H3554 C3577 0.950 . S
H3555 C3579 0.950 . S
H3556 C3580 0.950 . S
H3557 C3581 0.951 . S
H3558 C3583 0.951 . S
H3559 C3585 0.950 . S
H3560 C3586 0.950 . S
H3561 C3588 0.950 . S
H3562 C3591 0.950 . S
H3563 C3592 0.950 . S
H3564 C3594 0.950 . S
H3565 C3595 0.950 . S
C3566 H3548 0.951 . S
C3566 C3567 1.366 . S
C3566 C3568 1.388 . S
C3567 C3566 1.366 . S
C3567 C3571 1.385 . S
C3568 H3549 0.951 . S
C3568 C3566 1.388 . S
C3568 C3569 1.366 . S
C3569 C3568 1.366 . S
C3569 C3570 1.414 . S
C3569 C3572 1.499 . S
C3570 H3550 0.950 . S
C3570 C3569 1.414 . S
C3570 C3571 1.374 . S
C3571 H3551 0.950 1_455 S
C3571 C3567 1.385 . S
C3571 C3570 1.374 . S
C3572 C3569 1.499 . S
C3572 C3573 1.373 . S
C3572 C3574 1.389 . S
C3573 H3552 0.950 . S
C3573 C3572 1.373 . S
C3573 C3589 1.377 . S
C3574 C3572 1.389 . S
C3574 C3575 1.524 . S
C3574 C3588 1.377 . S
C3575 C3574 1.524 . S
C3575 C3576 1.397 . S
C3575 C3580 1.363 . S
C3576 H3553 0.950 1_455 S
C3576 C3575 1.397 . S
C3576 C3577 1.334 1_455 S
C3577 H3554 0.950 . S
C3577 C3576 1.334 1_655 S
C3577 C3578 1.287 1_655 S
C3578 C3577 1.287 1_455 S
C3578 C3579 1.524 . S
C3578 H3597 0.913 1_455 S
C3579 H3555 0.950 . S
C3579 C3578 1.524 . S
C3579 C3580 1.415 . S
C3580 H3556 0.950 . S
C3580 C3575 1.363 . S
C3580 C3579 1.415 . S
C3581 H3557 0.951 . S
C3581 C3582 1.366 . S
C3581 C3583 1.388 . S
C3582 C3581 1.366 . S
C3582 C3586 1.385 . S
C3583 H3558 0.951 . S
C3583 C3581 1.388 . S
C3583 C3584 1.366 . S
C3584 C3583 1.366 . S
C3584 C3585 1.414 . S
C3584 C3587 1.499 . S
C3585 H3559 0.950 . S
C3585 C3584 1.414 . S
C3585 C3586 1.374 . S
C3586 H3560 0.950 . S
C3586 C3582 1.385 . S
C3586 C3585 1.374 . S
C3587 C3584 1.499 . S
C3587 C3588 1.373 . S
C3587 C3589 1.389 . S
C3588 H3561 0.950 . S
C3588 C3574 1.377 . S
C3588 C3587 1.373 . S
C3589 C3573 1.377 . S
C3589 C3587 1.389 . S
C3589 C3590 1.524 . S
C3590 C3589 1.524 . S
C3590 C3591 1.397 . S
C3590 C3595 1.363 . S
C3591 H3562 0.950 . S
C3591 C3590 1.397 . S
C3591 C3592 1.334 . S
C3592 H3563 0.950 . S
C3592 C3591 1.334 . S
C3592 C3593 1.287 . S
C3593 C3592 1.287 . S
C3593 C3594 1.524 . S
C3593 H3596 0.999 . S
C3594 H3564 0.950 . S
C3594 C3593 1.524 . S
C3594 C3595 1.415 . S
C3595 H3565 0.950 . S
C3595 C3590 1.363 . S
C3595 C3594 1.415 . S
H3596 C3593 0.999 . S
H3597 C3578 0.913 1_655 S
H3598 C3616 0.951 . S
H3599 C3618 0.951 . S
H3600 C3620 0.950 . S
H3601 C3621 0.950 . S
H3602 C3623 0.950 . S
H3603 C3626 0.950 . S
H3604 C3627 0.950 . S
H3605 C3629 0.950 . S
H3606 C3630 0.950 . S
H3607 C3631 0.951 . S
H3608 C3633 0.951 . S
H3609 C3635 0.950 . S
H3610 C3636 0.950 . S
H3611 C3638 0.950 . S
H3612 C3641 0.950 . S
H3613 C3642 0.950 . S
H3614 C3644 0.950 . S
H3615 C3645 0.950 . S
C3616 H3598 0.951 . S
C3616 C3617 1.366 . S
C3616 C3618 1.388 . S
C3617 C3616 1.366 . S
C3617 C3621 1.385 . S
C3618 H3599 0.951 . S
C3618 C3616 1.388 . S
C3618 C3619 1.366 . S
C3619 C3618 1.366 . S
C3619 C3620 1.414 . S
C3619 C3622 1.499 . S
C3620 H3600 0.950 . S
C3620 C3619 1.414 . S
C3620 C3621 1.374 . S
C3621 H3601 0.950 . S
C3621 C3617 1.385 . S
C3621 C3620 1.374 . S
C3622 C3619 1.499 . S
C3622 C3623 1.373 . S
C3622 C3624 1.389 . S
C3623 H3602 0.950 . S
C3623 C3622 1.373 . S
C3623 C3639 1.377 . S
C3624 C3622 1.389 . S
C3624 C3625 1.524 . S
C3624 C3638 1.377 . S
C3625 C3624 1.524 . S
C3625 C3626 1.397 . S
C3625 C3630 1.363 . S
C3626 H3603 0.950 . S
C3626 C3625 1.397 . S
C3626 C3627 1.334 . S
C3627 H3604 0.950 . S
C3627 C3626 1.334 . S
C3627 C3628 1.287 . S
C3628 C3627 1.287 . S
C3628 C3629 1.524 . S
C3628 H3647 0.913 . S
C3629 H3605 0.950 . S
C3629 C3628 1.524 . S
C3629 C3630 1.415 . S
C3630 H3606 0.950 . S
C3630 C3625 1.363 . S
C3630 C3629 1.415 . S
C3631 H3607 0.951 . S
C3631 C3632 1.366 . S
C3631 C3633 1.388 . S
C3632 C3631 1.366 . S
C3632 C3636 1.385 . S
C3633 H3608 0.951 . S
C3633 C3631 1.388 . S
C3633 C3634 1.366 . S
C3634 C3633 1.366 . S
C3634 C3635 1.414 . S
C3634 C3637 1.499 . S
C3635 H3609 0.950 . S
C3635 C3634 1.414 . S
C3635 C3636 1.374 . S
C3636 H3610 0.950 . S
C3636 C3632 1.385 . S
C3636 C3635 1.374 . S
C3637 C3634 1.499 . S
C3637 C3638 1.373 . S
C3637 C3639 1.389 . S
C3638 H3611 0.950 . S
C3638 C3624 1.377 . S
C3638 C3637 1.373 . S
C3639 C3623 1.377 . S
C3639 C3637 1.389 . S
C3639 C3640 1.524 . S
C3640 C3639 1.524 . S
C3640 C3641 1.397 . S
C3640 C3645 1.363 . S
C3641 H3612 0.950 . S
C3641 C3640 1.397 . S
C3641 C3642 1.334 . S
C3642 H3613 0.950 . S
C3642 C3641 1.334 . S
C3642 C3643 1.287 . S
C3643 C3642 1.287 . S
C3643 C3644 1.524 . S
C3643 H3646 0.999 . S
C3644 H3614 0.950 . S
C3644 C3643 1.524 . S
C3644 C3645 1.415 . S
C3645 H3615 0.950 . S
C3645 C3640 1.363 . S
C3645 C3644 1.415 . S
H3646 C3643 0.999 . S
H3647 C3628 0.913 . S
C467 C51 0.908 . S
C482 C9 0.908 . S
C517 C37 0.908 . S
C532 C23 0.908 . S
C567 C107 0.909 . S
C582 C65 0.908 . S
C617 C93 0.910 . S
C632 C79 0.909 . S
C667 C121 0.909 . S
C682 C163 0.908 . S
C717 C135 0.910 . S
C732 C149 0.909 . S
C767 C219 0.910 . S
C782 C177 0.910 . S
C817 C191 0.908 . S
C832 C205 0.908 . S
C867 C233 0.908 . S
C882 C275 0.908 . S
C917 C247 0.909 . S
C932 C261 0.909 . S
C967 C331 0.909 . S
C982 C289 0.909 . S
C1017 C317 0.910 . S
C1032 C303 0.910 . S
C1067 C387 0.909 . S
C1082 C345 0.909 . S
C1117 C359 0.908 . S
C1132 C373 0.908 . S
C1167 C401 0.908 . S
C1182 C443 0.908 . S
C1217 C415 0.910 . S
C1232 C429 0.910 . S
C1267 C283 1.166 . S
C1282 C3 1.166 . S
C1317 C185 1.167 . S
C1332 C17 1.167 . S
C1367 C31 1.166 . S
C1382 C423 1.166 . S
C1417 C45 1.166 . S
C1432 C101 1.166 . S
C1467 C227 1.167 . S
C1482 C59 1.167 . S
C1517 C129 1.167 . S
C1532 C73 1.167 . S
C1567 C367 1.167 . S
C1582 C87 1.167 . S
C1617 C115 1.166 . S
C1632 C395 1.166 . S
C1667 C311 1.167 . S
C1682 C143 1.166 . S
C1717 C213 1.168 . S
C1732 C157 1.168 . S
C1767 C339 1.165 . S
C1782 C171 1.165 . S
C1817 C199 1.166 . S
C1832 C255 1.166 . S
C1867 C409 1.167 . S
C1882 C241 1.167 . S
C1917 C269 1.167 . S
C1932 C325 1.167 . S
C1967 C353 1.167 . S
C1982 C297 1.167 . S
C2017 C437 1.168 . S
C2032 C381 1.168 . S
C2067 C21 1.238 . S
C2082 C7 1.238 . S
C2117 C35 1.239 . S
C2132 C49 1.238 . S
C2167 C63 1.238 . S
C2182 C77 1.238 . S
C2217 C105 1.238 . S
C2232 C91 1.239 . S
C2267 C119 1.239 . S
C2282 C133 1.238 . S
C2317 C147 1.238 . S
C2332 C161 1.238 . S
C2367 C189 1.238 . S
C2382 C175 1.239 . S
C2417 C203 1.238 . S
C2432 C217 1.238 . S
C2467 C231 1.238 . S
C2482 C245 1.238 . S
C2517 C259 1.239 . S
C2532 C273 1.238 . S
C2567 C287 1.238 . S
C2582 C301 1.238 . S
C2617 C329 1.239 . S
C2632 C315 1.238 . S
C2667 C357 1.238 . S
C2682 C343 1.238 . S
C2717 C371 1.238 . S
C2732 C385 1.238 . S
C2767 C399 1.238 . S
C2782 C413 1.238 . S
C2817 C441 1.238 . S
C2832 C427 1.238 . S
C2867 C8 1.505 1_655 S
C2882 C274 1.505 . S
C2917 C22 1.505 . S
C2932 C260 1.505 . S
C2967 C246 1.505 . S
C2982 C36 1.505 1_655 S
C3017 C50 1.505 . S
C3032 C232 1.505 . S
C3067 C330 1.505 . S
C3082 C64 1.506 1_455 S
C3117 C78 1.505 . S
C3132 C316 1.505 . S
C3167 C302 1.505 . S
C3182 C92 1.505 1_455 S
C3217 C106 1.505 . S
C3232 C288 1.505 . S
C3267 C120 1.505 1_655 S
C3282 C386 1.505 . S
C3317 C134 1.505 . S
C3332 C372 1.505 . S
C3367 C148 1.505 1_655 S
C3382 C358 1.505 . S
C3417 C344 1.505 . S
C3432 C162 1.505 . S
C3467 C176 1.505 1_455 S
C3482 C442 1.505 . S
C3517 C190 1.505 . S
C3532 C428 1.505 . S
C3567 C204 1.505 1_455 S
C3582 C414 1.505 . S
C3617 C400 1.505 . S
C3632 C218 1.505 . S
