# Generated by pormake.
# Topology mmt, (4)-cn, num edge types: 1
# Building blocks:
#     Node 0, Type 0, BuildingBlock: KUFVIS_clean_sbu_0, # of connection points: 4
#     Node 1, Type 0, BuildingBlock: KUFVIS_clean_sbu_0, # of connection points: 4
#     Node 2, Type 0, BuildingBlock: KUFVIS_clean_sbu_0, # of connection points: 4
#     Node 3, Type 0, BuildingBlock: KUFVIS_clean_sbu_0, # of connection points: 4
#     Node 4, Type 0, BuildingBlock: KUFVIS_clean_sbu_0, # of connection points: 4
#     Node 5, Type 0, BuildingBlock: KUFVIS_clean_sbu_0, # of connection points: 4
#     Node 6, Type 0, BuildingBlock: KUFVIS_clean_sbu_0, # of connection points: 4
#     Node 7, Type 0, BuildingBlock: KUFVIS_clean_sbu_0, # of connection points: 4
#     Edge 8, Type (0, 0), BuildingBlock: EZIPEK_clean_linker_0, # of connection points: 2
#     Edge 9, Type (0, 0), BuildingBlock: EZIPEK_clean_linker_0, # of connection points: 2
#     Edge 10, Type (0, 0), BuildingBlock: EZIPEK_clean_linker_0, # of connection points: 2
#     Edge 11, Type (0, 0), BuildingBlock: EZIPEK_clean_linker_0, # of connection points: 2
#     Edge 12, Type (0, 0), BuildingBlock: EZIPEK_clean_linker_0, # of connection points: 2
#     Edge 13, Type (0, 0), BuildingBlock: EZIPEK_clean_linker_0, # of connection points: 2
#     Edge 14, Type (0, 0), BuildingBlock: EZIPEK_clean_linker_0, # of connection points: 2
#     Edge 15, Type (0, 0), BuildingBlock: EZIPEK_clean_linker_0, # of connection points: 2
#     Edge 16, Type (0, 0), BuildingBlock: EZIPEK_clean_linker_0, # of connection points: 2
#     Edge 17, Type (0, 0), BuildingBlock: EZIPEK_clean_linker_0, # of connection points: 2
#     Edge 18, Type (0, 0), BuildingBlock: EZIPEK_clean_linker_0, # of connection points: 2
#     Edge 19, Type (0, 0), BuildingBlock: EZIPEK_clean_linker_0, # of connection points: 2
#     Edge 20, Type (0, 0), BuildingBlock: EZIPEK_clean_linker_0, # of connection points: 2
#     Edge 21, Type (0, 0), BuildingBlock: EZIPEK_clean_linker_0, # of connection points: 2
#     Edge 22, Type (0, 0), BuildingBlock: EZIPEK_clean_linker_0, # of connection points: 2
#     Edge 23, Type (0, 0), BuildingBlock: EZIPEK_clean_linker_0, # of connection points: 2
# Relax obj value: 0.033
# Max RMSD: 0.059
# Mean RMSD: 0.059
data_MOF--net-mmt--node1-KUFVIS_clean_sbu_0--edge1-EZIPEK_clean_linker_0
_symmetry_space_group_name_H-M    P1
_symmetry_Int_Tables_number       1
_symmetry_cell_setting            triclinic
loop_
_symmetry_equiv_pos_as_xyz
'x, y, z'
_cell_length_a     16.333011
_cell_length_b     26.737316
_cell_length_c     32.129587
_cell_angle_alpha  90.114621
_cell_angle_beta   90.097523
_cell_angle_gamma 89.942336
loop_
_atom_site_label
_atom_site_type_symbol
_atom_site_fract_x
_atom_site_fract_y
_atom_site_fract_z
_atom_type_partial_charge
Mn0 Mn 0.10254 0.5686 0.36169 0.0
Mn1 Mn 0.09955 0.63559 0.27236 0.0
C2 C 0.01822 0.54419 0.30718 0.0
C3 C 0.0522 0.55097 0.42779 0.0
C4 C 0.23695 0.56453 0.29568 0.0
O5 O 0.15489 0.63488 0.37928 0.0
O6 O 0.14146 0.67813 0.31914 0.0
C7 C 0.97319 0.71161 0.292 0.0
N8 N 0.99999 0.67301 0.26793 0.0
C9 C 0.88243 0.67998 0.22298 0.0
C10 C 0.85323 0.71941 0.24762 0.0
C11 C 0.89883 0.73533 0.28228 0.0
C12 C 0.95683 0.65772 0.23427 0.0
H13 H 0.00855 0.72432 0.3182 0.0
C14 C 0.16297 0.67461 0.35755 0.0
O15 O 0.12501 0.53691 0.41662 0.0
O16 O 0.01049 0.57776 0.40166 0.0
N17 N 0.05997 0.59869 0.22529 0.0
C18 C 0.09673 0.56031 0.20448 0.0
C19 C 0.05823 0.53955 0.16938 0.0
C20 C 0.98306 0.55897 0.15559 0.0
C21 C 0.94746 0.59933 0.17683 0.0
C22 C 0.98858 0.61839 0.2117 0.0
H23 H 0.15463 0.54524 0.21479 0.0
O24 O 0.04053 0.51252 0.33551 0.0
O25 O 0.04691 0.58937 0.31129 0.0
O26 O 0.20691 0.54908 0.32993 0.0
O27 O 0.20301 0.59754 0.27279 0.0
C28 C 0.87264 0.62128 0.16483 0.0
C29 C 0.84026 0.66168 0.18782 0.0
H30 H 0.79597 0.73768 0.24009 0.0
H31 H 0.87692 0.76596 0.30133 0.0
H32 H 0.08639 0.50858 0.15303 0.0
H33 H 0.95339 0.54275 0.12859 0.0
H34 H 0.83932 0.60725 0.13807 0.0
H35 H 0.78247 0.67809 0.17842 0.0
Mn36 Mn 0.37704 0.96463 0.36307 0.0
Mn37 Mn 0.39418 0.89138 0.27738 0.0
C38 C 0.46496 0.98683 0.30938 0.0
C39 C 0.42017 0.98705 0.42997 0.0
C40 C 0.25138 0.96168 0.2923 0.0
O41 O 0.32511 0.89876 0.38217 0.0
O42 O 0.34674 0.85234 0.32433 0.0
C43 C 0.52309 0.82366 0.30946 0.0
N44 N 0.49652 0.85668 0.28024 0.0
C45 C 0.62414 0.85092 0.24315 0.0
C46 C 0.65293 0.81708 0.27305 0.0
C47 C 0.60212 0.80332 0.30632 0.0
C48 C 0.54509 0.8703 0.24817 0.0
H49 H 0.4844 0.81325 0.33502 0.0
C50 C 0.32028 0.8578 0.36164 0.0
O51 O 0.34816 0.99946 0.4162 0.0
O52 O 0.46528 0.95966 0.40584 0.0
N53 N 0.43897 0.92382 0.22946 0.0
C54 C 0.40137 0.95625 0.20287 0.0
C55 C 0.44301 0.97263 0.16721 0.0
C56 C 0.52245 0.9551 0.15898 0.0
C57 C 0.5591 0.9208 0.18622 0.0
C58 C 0.51409 0.90524 0.22091 0.0
H59 H 0.34017 0.96973 0.20887 0.0
O60 O 0.43954 0.02011 0.33573 0.0
O61 O 0.43824 0.94169 0.31532 0.0
O62 O 0.27572 0.9793 0.32717 0.0
O63 O 0.28962 0.928 0.27172 0.0
C64 C 0.63848 0.9014 0.18028 0.0
C65 C 0.67116 0.86669 0.20886 0.0
H66 H 0.7141 0.80175 0.27098 0.0
H67 H 0.62393 0.77724 0.32956 0.0
H68 H 0.41409 0.99891 0.14623 0.0
H69 H 0.5547 0.96822 0.13168 0.0
H70 H 0.67506 0.91314 0.15397 0.0
H71 H 0.73258 0.85241 0.20423 0.0
Mn72 Mn 0.60287 0.46277 0.15198 0.0
Mn73 Mn 0.59876 0.40465 0.2456 0.0
C74 C 0.51733 0.49217 0.20451 0.0
C75 C 0.55426 0.47509 0.08448 0.0
C76 C 0.73677 0.47263 0.21792 0.0
O77 O 0.65577 0.39477 0.13914 0.0
O78 O 0.64033 0.35761 0.2019 0.0
C79 C 0.47097 0.32807 0.23075 0.0
N80 N 0.49873 0.36834 0.25247 0.0
C81 C 0.38201 0.36567 0.29811 0.0
C82 C 0.35189 0.32443 0.27587 0.0
C83 C 0.39661 0.30556 0.242 0.0
C84 C 0.45632 0.38665 0.28525 0.0
H85 H 0.50558 0.31323 0.20525 0.0
C86 C 0.66328 0.35729 0.16361 0.0
O87 O 0.62724 0.48907 0.09541 0.0
O88 O 0.5115 0.4508 0.11178 0.0
N89 N 0.55967 0.44614 0.29005 0.0
C90 C 0.59682 0.48629 0.3082 0.0
C91 C 0.55914 0.5102 0.34209 0.0
C92 C 0.48438 0.49213 0.35743 0.0
C93 C 0.44832 0.45002 0.33895 0.0
C94 C 0.48862 0.42782 0.30517 0.0
H95 H 0.65444 0.5003 0.29672 0.0
O96 O 0.53984 0.52114 0.17433 0.0
O97 O 0.54653 0.44689 0.20339 0.0
O98 O 0.70662 0.48518 0.18287 0.0
O99 O 0.70281 0.44188 0.24278 0.0
C100 C 0.3738 0.42931 0.35262 0.0
C101 C 0.34079 0.38707 0.33229 0.0
H102 H 0.29454 0.30699 0.28449 0.0
H103 H 0.37403 0.27361 0.22475 0.0
H104 H 0.58763 0.54253 0.35631 0.0
H105 H 0.45534 0.51079 0.38348 0.0
H106 H 0.34113 0.44575 0.37858 0.0
H107 H 0.28315 0.3717 0.34289 0.0
Mn108 Mn 0.87818 0.06348 0.15126 0.0
Mn109 Mn 0.89094 0.11779 0.24637 0.0
C110 C 0.96721 0.03141 0.20105 0.0
C111 C 0.92152 0.05239 0.08289 0.0
C112 C 0.75121 0.04932 0.22051 0.0
O113 O 0.82568 0.13217 0.1413 0.0
O114 O 0.83992 0.16503 0.20576 0.0
C115 C 0.01006 0.19792 0.22693 0.0
N116 N 0.98872 0.15702 0.24965 0.0
C117 C 0.11003 0.16436 0.29188 0.0
C118 C 0.13335 0.20646 0.26883 0.0
C119 C 0.08327 0.22318 0.2361 0.0
C120 C 0.03692 0.14034 0.28093 0.0
H121 H 0.97128 0.21136 0.20219 0.0
C122 C 0.81786 0.16795 0.16752 0.0
O123 O 0.84874 0.03909 0.09459 0.0
O124 O 0.96639 0.07612 0.1098 0.0
N125 N 0.94022 0.07724 0.2887 0.0
C126 C 0.909 0.03635 0.30821 0.0
C127 C 0.95323 1.01379 0.34065 0.0
C128 C 0.02794 0.03453 0.35369 0.0
C129 C 0.05738 0.07784 0.33431 0.0
C130 C 0.01124 0.0981 0.30162 0.0
H131 H 0.8505 0.0214 0.29937 0.0
O132 O 0.94179 1.00408 0.1703 0.0
O133 O 0.93955 0.07717 0.20183 0.0
O134 O 0.77668 0.04028 0.18375 0.0
O135 O 0.78926 0.07728 0.24643 0.0
C136 C 0.13062 0.10175 0.34621 0.0
C137 C 0.15675 0.14511 0.32512 0.0
H138 H 0.18958 0.22618 0.27594 0.0
H139 H 0.10074 0.25569 0.21819 0.0
H140 H 0.92932 0.98083 0.35586 0.0
H141 H 0.06174 0.0172 0.37887 0.0
H142 H 0.16755 0.08695 0.37137 0.0
H143 H 0.21349 0.16295 0.33433 0.0
Mn144 Mn 0.89348 0.46612 0.65396 0.0
Mn145 Mn 0.93394 0.40656 0.74434 0.0
C146 C 0.99243 0.49748 0.69801 0.0
C147 C 0.91918 0.47996 0.58377 0.0
C148 C 0.78468 0.47327 0.73169 0.0
O149 O 0.83937 0.39764 0.64541 0.0
O150 O 0.87524 0.36022 0.7057 0.0
C151 C 0.0515 0.33065 0.71371 0.0
N152 N 0.0334 0.36915 0.73993 0.0
C153 C 0.16084 0.35866 0.77662 0.0
C154 C 0.18089 0.31897 0.74992 0.0
C155 C 0.12613 0.30507 0.7182 0.0
C156 C 0.08593 0.38305 0.77035 0.0
H157 H 0.00904 0.31935 0.68978 0.0
C158 C 0.84084 0.35991 0.66983 0.0
O159 O 0.84949 0.49241 0.60028 0.0
O160 O 0.97032 0.45544 0.60691 0.0
N161 N 0.99185 0.44602 0.78472 0.0
C162 C 0.96912 0.48936 0.80373 0.0
C163 C 0.01891 0.50994 0.83505 0.0
C164 C 0.09222 0.48597 0.84622 0.0
C165 C 0.1159 0.44227 0.82527 0.0
C166 C 0.06372 0.42363 0.79426 0.0
H167 H 0.91586 0.50948 0.79338 0.0
O168 O 0.9588 0.52562 0.67002 0.0
O169 O 0.96805 0.45098 0.69898 0.0
O170 O 0.80228 0.48681 0.69465 0.0
O171 O 0.82988 0.44352 0.75272 0.0
C172 C 0.19035 0.41729 0.8331 0.0
C173 C 0.21271 0.3754 0.80886 0.0
H174 H 0.23834 0.29916 0.75332 0.0
H175 H 0.14113 0.27446 0.69747 0.0
H176 H 1.00156 0.54467 0.84998 0.0
H177 H 0.13092 0.50221 0.87008 0.0
H178 H 0.23177 0.43071 0.857 0.0
H179 H 0.27083 0.3571 0.81459 0.0
Mn180 Mn 0.60927 0.06971 0.65331 0.0
Mn181 Mn 0.60631 0.12677 0.74749 0.0
C182 C 0.52553 0.03959 0.70601 0.0
C183 C 0.55754 0.05835 0.58611 0.0
C184 C 0.74441 0.0594 0.71851 0.0
O185 O 0.66191 0.13781 0.641 0.0
O186 O 0.64679 0.17445 0.70414 0.0
C187 C 0.47633 0.20242 0.73386 0.0
N188 N 0.50569 0.1624 0.75523 0.0
C189 C 0.39014 0.16415 0.8017 0.0
C190 C 0.35872 0.20536 0.78 0.0
C191 C 0.40195 0.2245 0.74583 0.0
C192 C 0.46433 0.14355 0.78807 0.0
H193 H 0.50966 0.2173 0.70805 0.0
C194 C 0.66992 0.17504 0.66585 0.0
O195 O 0.63077 0.0437 0.5961 0.0
O196 O 0.51663 0.08278 0.61413 0.0
N197 N 0.56869 0.08454 0.79164 0.0
C198 C 0.60697 0.04445 0.80921 0.0
C199 C 0.57044 0.01998 0.84305 0.0
C200 C 0.49571 0.03749 0.85898 0.0
C201 C 0.45855 0.07961 0.84115 0.0
C202 C 0.49767 0.10231 0.80734 0.0
H203 H 0.66464 0.0309 0.79732 0.0
O204 O 0.54752 1.01095 0.67542 0.0
O205 O 0.55403 0.08496 0.70511 0.0
O206 O 0.71384 0.04701 0.68343 0.0
O207 O 0.71069 0.08999 0.74371 0.0
C208 C 0.3842 0.09993 0.85558 0.0
C209 C 0.35021 0.14232 0.83599 0.0
H210 H 0.30137 0.22244 0.78922 0.0
H211 H 0.37821 0.25631 0.72886 0.0
H212 H 0.59984 0.98769 0.8568 0.0
H213 H 0.46761 0.01846 0.88503 0.0
H214 H 0.35247 0.08312 0.88161 0.0
H215 H 0.29271 0.1574 0.84717 0.0
Mn216 Mn 0.39219 0.56924 0.85927 0.0
Mn217 Mn 0.42293 0.644 0.77585 0.0
C218 C 0.4846 0.54593 0.80782 0.0
C219 C 0.42568 0.54521 0.92686 0.0
C220 C 0.27617 0.57536 0.78453 0.0
O221 O 0.34073 0.6352 0.87814 0.0
O222 O 0.36908 0.68227 0.82175 0.0
C223 C 0.54797 0.70922 0.81489 0.0
N224 N 0.52598 0.67658 0.78434 0.0
C225 C 0.66243 0.67706 0.75604 0.0
C226 C 0.68656 0.71028 0.78754 0.0
C227 C 0.62897 0.72659 0.817 0.0
C228 C 0.581 0.6607 0.75581 0.0
H229 H 0.50408 0.72166 0.83751 0.0
C230 C 0.33839 0.6764 0.85813 0.0
O231 O 0.35499 0.53416 0.91075 0.0
O232 O 0.47509 0.57199 0.90464 0.0
N233 N 0.47441 0.61294 0.72893 0.0
C234 C 0.43841 0.58644 0.69759 0.0
C235 C 0.48595 0.57016 0.66376 0.0
C236 C 0.56954 0.58226 0.66204 0.0
C237 C 0.60413 0.61197 0.69347 0.0
C238 C 0.55325 0.6278 0.72598 0.0
H239 H 0.37403 0.57734 0.6986 0.0
O240 O 0.4545 0.51304 0.83307 0.0
O241 O 0.46013 0.59166 0.81377 0.0
O242 O 0.29533 0.55743 0.82004 0.0
O243 O 0.31821 0.60845 0.76522 0.0
C244 C 0.68658 0.62741 0.69334 0.0
C245 C 0.7159 0.65965 0.72481 0.0
H246 H 0.74902 0.72357 0.78934 0.0
H247 H 0.64701 0.7524 0.84132 0.0
H248 H 0.45831 0.54813 0.6392 0.0
H249 H 0.60621 0.56926 0.63612 0.0
H250 H 0.72773 0.61513 0.66895 0.0
H251 H 0.77931 0.67148 0.72432 0.0
Mn252 Mn 0.11102 0.96355 0.86161 0.0
Mn253 Mn 0.1052 0.89614 0.77224 0.0
C254 C 0.02599 0.988 0.80736 0.0
C255 C 0.06343 0.98229 0.92807 0.0
C256 C 0.24332 0.96691 0.79456 0.0
O257 O 0.16324 0.89714 0.87898 0.0
O258 O 0.14914 0.85408 0.81867 0.0
C259 C 0.97942 0.82083 0.79377 0.0
N260 N 0.00559 0.85873 0.76897 0.0
C261 C 0.88752 0.85021 0.72454 0.0
C262 C 0.85909 0.81133 0.74988 0.0
C263 C 0.90525 0.79663 0.7847 0.0
C264 C 0.96163 0.87315 0.73536 0.0
H265 H 0.01522 0.80902 0.82003 0.0
C266 C 0.17147 0.85754 0.85695 0.0
O267 O 0.13606 0.99561 0.91618 0.0
O268 O 0.02024 0.95555 0.90244 0.0
N269 N 0.06386 0.93234 0.72528 0.0
C270 C 0.1 0.97024 0.70377 0.0
C271 C 0.06075 0.99005 0.66855 0.0
C272 C 0.98566 0.97002 0.65527 0.0
C273 C 0.95084 0.93006 0.67715 0.0
C274 C 0.99252 0.9121 0.71221 0.0
H275 H 0.15799 0.98563 0.7136 0.0
O276 O 0.04905 0.01978 0.83554 0.0
O277 O 0.05386 0.94266 0.81156 0.0
O278 O 0.21463 0.98202 0.82924 0.0
O279 O 0.20849 0.93427 0.77158 0.0
C280 C 0.87645 0.90732 0.66553 0.0
C281 C 0.84497 0.86728 0.68911 0.0
H282 H 0.80199 0.79254 0.74285 0.0
H283 H 0.88405 0.76651 0.80436 0.0
H284 H 0.08837 0.02066 0.65166 0.0
H285 H 0.95552 0.98542 0.6281 0.0
H286 H 0.84278 0.92045 0.6386 0.0
H287 H 0.78749 0.85027 0.68001 0.0
C288 C 0.31278 0.4943 0.2618 0.0
C289 C 0.31439 0.54254 0.27998 0.0
C290 C 0.45457 0.55413 0.25438 0.0
C291 C 0.44916 0.50808 0.23229 0.0
N292 N 0.36186 0.4392 0.2095 0.0
N293 N 0.38312 0.62142 0.28968 0.0
C294 C 0.37571 0.47967 0.23434 0.0
C295 C 0.38448 0.57328 0.27529 0.0
N296 N 0.24936 0.46249 0.26937 0.0
N297 N 0.52739 0.57896 0.25633 0.0
H298 H 0.33389 0.63615 0.30626 0.0
H299 H 0.42807 0.64773 0.28287 0.0
H300 H 0.57977 0.56552 0.24188 0.0
H301 H 0.53807 0.60969 0.27553 0.0
H302 H 0.24469 0.42738 0.25527 0.0
H303 H 0.20619 0.46944 0.29246 0.0
H304 H 0.40171 0.42659 0.18642 0.0
H305 H 0.40171 0.42659 0.18642 0.0
C306 C 0.03646 0.9666 0.24638 0.0
C307 C 0.03832 1.01408 0.22636 0.0
C308 C 0.17472 0.02978 0.25558 0.0
C309 C 0.17483 0.98142 0.2736 0.0
N310 N 0.111 0.90087 0.28205 0.0
N311 N 0.1206 0.08274 0.20116 0.0
C312 C 0.10695 0.94907 0.26797 0.0
C313 C 0.1107 0.04346 0.22789 0.0
N314 N 0.96722 0.93812 0.24493 0.0
N315 N 0.2357 0.06285 0.26495 0.0
H316 H 0.07747 0.09261 0.17871 0.0
H317 H 0.17532 0.10229 0.19797 0.0
H318 H 0.28017 0.05553 0.28732 0.0
H319 H 0.23697 0.09961 0.25438 0.0
H320 H 0.9568 0.90751 0.26417 0.0
H321 H 0.91842 0.94609 0.22534 0.0
H322 H 0.06838 0.87336 0.27457 0.0
H323 H 0.16015 0.88721 0.29934 0.0
C324 C 0.81307 0.54341 0.25024 0.0
C325 C 0.81477 0.49533 0.23193 0.0
C326 C 0.95695 0.48528 0.25476 0.0
C327 C 0.95083 0.53027 0.27825 0.0
N328 N 0.86187 0.59726 0.30347 0.0
N329 N 0.88529 0.41739 0.22048 0.0
C330 C 0.87644 0.55796 0.27749 0.0
C331 C 0.88614 0.46543 0.23502 0.0
N332 N 0.74907 0.57495 0.24305 0.0
N333 N 0.03089 0.46206 0.25061 0.0
H334 H 0.83481 0.40209 0.20525 0.0
H335 H 0.93206 0.39175 0.22609 0.0
H336 H 0.08397 0.47668 0.26364 0.0
H337 H 0.04116 0.43195 0.23068 0.0
H338 H 0.74416 0.60995 0.25733 0.0
H339 H 0.70618 0.56783 0.21979 0.0
H340 H 0.90205 0.60955 0.32656 0.0
H341 H 0.90205 0.60955 0.32656 0.0
C342 C 0.59776 0.04377 0.22409 0.0
C343 C 0.67518 0.02468 0.23545 0.0
C344 C 0.61275 0.97508 0.29095 0.0
C345 C 0.53602 0.99797 0.28229 0.0
N346 N 0.45696 0.05846 0.24367 0.0
N347 N 0.75045 0.95818 0.26728 0.0
C348 C 0.52896 0.0336 0.2497 0.0
C349 C 0.68095 0.98624 0.26541 0.0
N350 N 0.58894 0.06807 0.18707 0.0
N351 N 0.62212 0.94523 0.32518 0.0
H352 H 0.79846 0.96452 0.24685 0.0
H353 H 0.75683 0.92595 0.28513 0.0
H354 H 0.57458 0.93636 0.34538 0.0
H355 H 0.67866 0.93236 0.33567 0.0
H356 H 0.53269 0.07931 0.17498 0.0
H357 H 0.63712 0.07136 0.16601 0.0
H358 H 0.45075 0.08913 0.22398 0.0
H359 H 0.40422 0.04978 0.26014 0.0
C360 C 0.63669 0.54328 0.80315 0.0
C361 C 0.56003 0.53298 0.7846 0.0
C362 C 0.62995 0.48695 0.72913 0.0
C363 C 0.70623 0.49175 0.75066 0.0
N364 N 0.76528 0.50541 0.81942 0.0
N365 N 0.48322 0.48684 0.73316 0.0
C366 C 0.70565 0.51487 0.79076 0.0
C367 C 0.55664 0.50183 0.74899 0.0
N368 N 0.64369 0.57805 0.83415 0.0
N369 N 0.62323 0.46709 0.69021 0.0
H370 H 0.428 0.49919 0.74542 0.0
H371 H 0.47828 0.46271 0.70768 0.0
H372 H 0.67201 0.45511 0.67189 0.0
H373 H 0.67201 0.45511 0.67189 0.0
H374 H 0.70039 0.58965 0.84561 0.0
H375 H 0.5944 0.59876 0.84538 0.0
H376 H 0.76454 0.5204 0.8494 0.0
H377 H 0.80461 0.47512 0.81702 0.0
C378 C 0.89401 0.06614 0.7349 0.0
C379 C 0.82236 0.03652 0.73235 0.0
C380 C 0.88382 0.97458 0.77873 0.0
C381 C 0.95849 1.00184 0.77849 0.0
N382 N 0.03903 0.06906 0.74999 0.0
N383 N 0.7577 0.95665 0.74207 0.0
C384 C 0.96488 0.04629 0.75453 0.0
C385 C 0.82042 0.98861 0.75089 0.0
N386 N 0.89347 0.11386 0.71979 0.0
N387 N 0.87099 0.93742 0.80713 0.0
H388 H 0.71453 0.96459 0.71914 0.0
H389 H 0.75453 0.92024 0.75341 0.0
H390 H 0.91389 0.92708 0.82952 0.0
H391 H 0.81451 0.92002 0.81113 0.0
H392 H 0.94056 0.13938 0.72496 0.0
H393 H 0.84307 0.12904 0.70439 0.0
H394 H 0.04936 0.09878 0.72977 0.0
H395 H 0.09215 0.0545 0.76307 0.0
C396 C 0.13125 0.58528 0.75946 0.0
C397 C 0.20229 0.55519 0.76367 0.0
C398 C 0.13952 0.49057 0.72004 0.0
C399 C 0.06416 0.51686 0.72131 0.0
N400 N 0.98536 0.58763 0.74585 0.0
N401 N 0.2681 0.47495 0.7547 0.0
C402 C 0.05933 0.5641 0.7417 0.0
C403 C 0.20462 0.50651 0.74604 0.0
N404 N 0.13251 0.63407 0.7722 0.0
N405 N 0.1504 0.45176 0.69283 0.0
H406 H 0.31271 0.48327 0.77678 0.0
H407 H 0.27123 0.43826 0.74394 0.0
H408 H 0.10558 0.4401 0.67185 0.0
H409 H 0.20681 0.43455 0.68789 0.0
H410 H 0.08566 0.65939 0.76585 0.0
H411 H 0.18326 0.65044 0.78644 0.0
H412 H 0.97657 0.6193 0.76422 0.0
H413 H 0.93071 0.57273 0.73452 0.0
C414 C 0.39089 0.95791 0.77452 0.0
C415 C 0.32065 0.98867 0.77884 0.0
C416 C 0.38338 0.05204 0.73437 0.0
C417 C 0.45705 0.02375 0.73337 0.0
N418 N 0.53483 0.95274 0.7574 0.0
N419 N 0.25818 0.06992 0.77157 0.0
C420 C 0.46189 0.97749 0.75494 0.0
C421 C 0.31978 0.03746 0.76177 0.0
N422 N 0.38907 0.90955 0.7882 0.0
N423 N 0.37173 0.09102 0.70751 0.0
H424 H 0.21403 0.06174 0.79383 0.0
H425 H 0.25659 0.10696 0.76164 0.0
H426 H 0.41478 0.10193 0.68547 0.0
H427 H 0.31588 0.10942 0.70413 0.0
H428 H 0.43457 0.88341 0.78161 0.0
H429 H 0.33917 0.89448 0.80396 0.0
H430 H 0.54474 0.92168 0.77625 0.0
H431 H 0.58786 0.96646 0.74379 0.0
C432 C 0.99644 0.48157 0.47183 0.0
C433 C 0.01497 0.53317 0.46713 0.0
C434 C 0.95695 0.55076 0.53606 0.0
C435 C 0.94502 0.49849 0.54225 0.0
N436 N 0.95826 0.41359 0.51783 0.0
N437 N 0.02129 0.61646 0.49541 0.0
C438 C 0.96629 0.46375 0.51062 0.0
C439 C 0.99665 0.56777 0.49924 0.0
N440 N 0.00438 0.44992 0.43855 0.0
N441 N 0.93143 0.58423 0.56559 0.0
H442 H 0.05035 0.63019 0.4689 0.0
H443 H 0.01885 0.64258 0.51941 0.0
H444 H 0.90848 0.57386 0.59451 0.0
H445 H 0.92849 0.62265 0.56071 0.0
H446 H 0.98339 0.41319 0.43835 0.0
H447 H 0.02617 0.46141 0.40964 0.0
H448 H 0.98265 0.38607 0.49852 0.0
H449 H 0.93043 0.39921 0.54444 0.0
C450 C 0.41522 0.99364 0.50811 0.0
C451 C 0.45294 1.00689 0.46998 0.0
C452 C 0.55535 0.05738 0.50776 0.0
C453 C 0.51908 0.04292 0.54601 0.0
N454 N 0.42205 0.99186 0.58349 0.0
N455 N 0.54962 0.05751 0.43215 0.0
C456 C 0.45023 1.01018 0.54643 0.0
C457 C 0.52102 0.04013 0.46945 0.0
N458 N 0.34548 0.9653 0.50765 0.0
N459 N 0.62337 0.08723 0.50824 0.0
H460 H 0.52532 0.04667 0.40353 0.0
H461 H 0.59359 0.08531 0.42902 0.0
H462 H 0.64595 0.10394 0.53528 0.0
H463 H 0.65978 0.0943 0.48241 0.0
H464 H 0.30824 0.95984 0.53348 0.0
H465 H 0.3216 0.9492 0.48067 0.0
H466 H 0.37914 0.96333 0.58608 0.0
H467 H 0.44568 1.00235 0.6123 0.0
C468 C 0.49521 0.45712 0.01349 0.0
C469 C 0.51733 0.49229 0.04467 0.0
C470 C 0.46597 0.561 1.00088 0.0
C471 C 0.45145 0.52638 0.96827 0.0
N472 N 0.4597 0.44238 0.94108 0.0
N473 N 0.52707 0.57804 0.06821 0.0
C474 C 0.4672 0.47456 0.97403 0.0
C475 C 0.50377 0.54436 0.03835 0.0
N476 N 0.50134 0.40705 0.02154 0.0
N477 N 0.44044 0.60948 0.99653 0.0
H478 H 0.54806 0.56768 0.09759 0.0
H479 H 0.52942 0.61648 0.06337 0.0
H480 H 0.41196 0.62276 0.96963 0.0
H481 H 0.44089 0.63567 0.02053 0.0
H482 H 0.47724 0.37945 1.00221 0.0
H483 H 0.52622 0.39289 0.04902 0.0
H484 H 0.47933 0.40535 0.94166 0.0
H485 H 0.43901 0.45352 0.91181 0.0
C486 C 0.00931 0.96561 0.99966 0.0
C487 C 0.02837 1.00034 0.96792 0.0
C488 C 0.98125 0.06974 0.01225 0.0
C489 C 0.95659 0.0347 0.04284 0.0
N490 N 0.94169 0.9488 0.0652 0.0
N491 N 0.02215 0.08433 0.94074 0.0
C492 C 0.96861 0.98245 0.03628 0.0
C493 C 0.01206 0.05218 0.97341 0.0
N494 N 0.03385 0.91688 0.99561 0.0
N495 N 0.97527 0.11985 0.02033 0.0
H496 H 0.04425 0.07308 0.91178 0.0
H497 H 0.00267 0.1214 0.94105 0.0
H498 H 0.94792 0.13419 0.04714 0.0
H499 H 1.00158 0.14729 1.00173 0.0
H500 H 0.03058 0.89062 0.0194 0.0
H501 H 0.06394 0.90331 0.96928 0.0
H502 H 0.93833 0.91046 0.05984 0.0
H503 H 0.91853 0.95903 0.09417 0.0
C504 C 0.15309 0.76345 0.3816 0.0
C505 C 0.20114 0.71976 0.37663 0.0
C506 C 0.32503 0.76984 0.38713 0.0
C507 C 0.27847 0.81362 0.37998 0.0
N508 N 0.14682 0.85408 0.3775 0.0
N509 N 0.33264 0.67934 0.38191 0.0
C510 C 0.19176 0.81116 0.38036 0.0
C511 C 0.28714 0.72218 0.38255 0.0
N512 N 0.07094 0.75878 0.38812 0.0
N513 N 0.40505 0.77444 0.39873 0.0
H514 H 0.30616 0.64389 0.38082 0.0
H515 H 0.39635 0.67889 0.38101 0.0
H516 H 0.43158 0.80949 0.40375 0.0
H517 H 0.44208 0.74441 0.40716 0.0
H518 H 0.03237 0.78874 0.39483 0.0
H519 H 0.04312 0.72376 0.39071 0.0
H520 H 0.0838 0.85467 0.37264 0.0
H521 H 0.17356 0.88947 0.37851 0.0
C522 C 0.6903 0.2199 0.16 0.0
C523 C 0.77604 0.21497 0.15459 0.0
C524 C 0.78555 0.30526 0.14091 0.0
C525 C 0.70005 0.30966 0.14811 0.0
N526 N 0.56983 0.2689 0.14374 0.0
N527 N 0.9016 0.2498 0.12848 0.0
C528 C 0.65202 0.26603 0.15067 0.0
C529 C 0.82254 0.25671 0.14101 0.0
N530 N 0.64607 0.18184 0.17685 0.0
N531 N 0.83149 0.34733 0.13552 0.0
H532 H 0.92913 0.21455 0.12802 0.0
H533 H 0.93727 0.27785 0.11533 0.0
H534 H 0.80533 0.38277 0.13284 0.0
H535 H 0.89522 0.34739 0.13516 0.0
H536 H 0.58445 0.18527 0.18481 0.0
H537 H 0.67364 0.14892 0.18689 0.0
H538 H 0.53214 0.23749 0.14232 0.0
H539 H 0.54195 0.30248 0.135 0.0
C540 C 0.66584 0.26726 0.65748 0.0
C541 C 0.70917 0.22229 0.65113 0.0
C542 C 0.83438 0.27195 0.64105 0.0
C543 C 0.79398 0.31415 0.6584 0.0
N544 N 0.67193 0.3483 0.68988 0.0
N545 N 0.83624 0.1815 0.63324 0.0
C546 C 0.70949 0.31113 0.66796 0.0
C547 C 0.79389 0.22449 0.64108 0.0
N548 N 0.58297 0.26796 0.65293 0.0
N549 N 0.91088 0.27733 0.62464 0.0
H550 H 0.80795 0.14669 0.63102 0.0
H551 H 0.89977 0.18007 0.63079 0.0
H552 H 0.94053 0.31188 0.62366 0.0
H553 H 0.9413 0.24898 0.60864 0.0
H554 H 0.54851 0.30075 0.65479 0.0
H555 H 0.55125 0.23646 0.64237 0.0
H556 H 0.61152 0.34575 0.70012 0.0
H557 H 0.70426 0.37852 0.70204 0.0
C558 C 0.20655 0.72108 0.87492 0.0
C559 C 0.29337 0.71993 0.87577 0.0
C560 C 0.29765 0.8113 0.88125 0.0
C561 C 0.2116 0.81261 0.87523 0.0
N562 N 0.08368 0.77078 0.8858 0.0
N563 N 0.41659 0.76039 0.89824 0.0
C564 C 0.16577 0.76794 0.8785 0.0
C565 C 0.33741 0.7641 0.88507 0.0
N566 N 0.16336 0.67804 0.86856 0.0
N567 N 0.3416 0.85468 0.88138 0.0
H568 H 0.44417 0.72563 0.90321 0.0
H569 H 0.4512 0.79079 0.90831 0.0
H570 H 0.31397 0.88983 0.88052 0.0
H571 H 0.40531 0.85575 0.88057 0.0
H572 H 0.10065 0.67744 0.86264 0.0
H573 H 0.1911 0.64294 0.86728 0.0
H574 H 0.04703 0.73969 0.8915 0.0
H575 H 0.05449 0.80512 0.89044 0.0
loop_
_geom_bond_atom_site_label_1
_geom_bond_atom_site_label_2
_geom_bond_distance
_geom_bond_site_symmetry_2
_ccdc_geom_bond_type
Mn0 O5 2.095 . S
Mn0 O15 2.162 . S
Mn0 O16 2.297 . S
Mn0 O24 2.385 . S
Mn0 O25 2.209 . S
Mn0 O26 2.094 . S
Mn1 O6 2.121 . S
Mn1 N8 2.257 . S
Mn1 N17 2.282 . S
Mn1 O25 2.215 . S
Mn1 O27 2.117 . S
C2 O24 1.234 . S
C2 O25 1.283 . S
C3 O15 1.281 . S
C3 O16 1.236 . S
C4 O26 1.240 . S
C4 O27 1.264 . S
O5 Mn0 2.095 . S
O5 C14 1.250 . S
O6 Mn1 2.121 . S
O6 C14 1.258 . S
C7 N8 1.326 . S
C7 C11 1.460 1_455 S
C7 H13 0.929 . S
N8 Mn1 2.257 . S
N8 C7 1.326 . S
N8 C12 1.362 . S
C9 C10 1.258 . S
C9 C12 1.431 1_655 S
C9 C29 1.449 . S
C10 C9 1.258 . S
C10 C11 1.477 . S
C10 H30 0.931 . S
C11 C7 1.460 1_655 S
C11 C10 1.477 . S
C11 H31 0.930 . S
C12 N8 1.362 . S
C12 C9 1.431 1_455 S
C12 C22 1.476 . S
H13 C7 0.929 . S
C14 O5 1.250 . S
C14 O6 1.258 . S
O15 Mn0 2.162 . S
O15 C3 1.281 . S
O16 Mn0 2.297 . S
O16 C3 1.236 . S
N17 Mn1 2.282 . S
N17 C18 1.328 . S
N17 C22 1.318 . S
C18 N17 1.328 . S
C18 C19 1.457 . S
C18 H23 0.929 . S
C19 C18 1.457 . S
C19 C20 1.291 . S
C19 H32 0.931 . S
C20 C19 1.291 . S
C20 C21 1.373 . S
C20 H33 0.929 . S
C21 C20 1.373 . S
C21 C22 1.396 . S
C21 C28 1.403 1_455 S
C22 C12 1.476 . S
C22 N17 1.318 . S
C22 C21 1.396 . S
H23 C18 0.929 . S
O24 Mn0 2.385 . S
O24 C2 1.234 . S
O25 Mn0 2.209 . S
O25 Mn1 2.215 . S
O25 C2 1.283 . S
O26 Mn0 2.094 . S
O26 C4 1.240 . S
O27 Mn1 2.117 . S
O27 C4 1.264 . S
C28 C21 1.403 1_655 S
C28 C29 1.399 . S
C28 H34 0.929 . S
C29 C9 1.449 . S
C29 C28 1.399 . S
C29 H35 0.930 . S
H30 C10 0.931 . S
H31 C11 0.930 . S
H32 C19 0.931 . S
H33 C20 0.929 . S
H34 C28 0.929 . S
H35 C29 0.930 . S
Mn36 O41 2.095 . S
Mn36 O51 2.162 . S
Mn36 O52 2.297 . S
Mn36 O60 2.385 1_565 S
Mn36 O61 2.209 . S
Mn36 O62 2.094 . S
Mn37 O42 2.121 . S
Mn37 N44 2.257 . S
Mn37 N53 2.282 . S
Mn37 O61 2.215 . S
Mn37 O63 2.117 . S
C38 O60 1.234 1_565 S
C38 O61 1.283 . S
C39 O51 1.281 . S
C39 O52 1.236 . S
C40 O62 1.240 . S
C40 O63 1.264 . S
O41 Mn36 2.095 . S
O41 C50 1.250 . S
O42 Mn37 2.121 . S
O42 C50 1.258 . S
C43 N44 1.326 . S
C43 C47 1.460 . S
C43 H49 0.929 . S
N44 Mn37 2.257 . S
N44 C43 1.326 . S
N44 C48 1.362 . S
C45 C46 1.258 . S
C45 C48 1.431 . S
C45 C65 1.449 . S
C46 C45 1.258 . S
C46 C47 1.477 . S
C46 H66 0.931 . S
C47 C43 1.460 . S
C47 C46 1.477 . S
C47 H67 0.930 . S
C48 N44 1.362 . S
C48 C45 1.431 . S
C48 C58 1.476 . S
H49 C43 0.929 . S
C50 O41 1.250 . S
C50 O42 1.258 . S
O51 Mn36 2.162 . S
O51 C39 1.281 . S
O52 Mn36 2.297 . S
O52 C39 1.236 . S
N53 Mn37 2.282 . S
N53 C54 1.328 . S
N53 C58 1.318 . S
C54 N53 1.328 . S
C54 C55 1.457 1_565 S
C54 H59 0.929 1_565 S
C55 C54 1.457 1_545 S
C55 C56 1.291 1_545 S
C55 H68 0.931 . S
C56 C55 1.291 1_565 S
C56 C57 1.373 . S
C56 H69 0.929 1_565 S
C57 C56 1.373 . S
C57 C58 1.396 . S
C57 C64 1.403 . S
C58 C48 1.476 . S
C58 N53 1.318 . S
C58 C57 1.396 . S
H59 C54 0.929 1_545 S
O60 Mn36 2.385 1_545 S
O60 C38 1.234 1_545 S
O61 Mn36 2.209 . S
O61 Mn37 2.215 . S
O61 C38 1.283 . S
O62 Mn36 2.094 . S
O62 C40 1.240 . S
O63 Mn37 2.117 . S
O63 C40 1.264 . S
C64 C57 1.403 . S
C64 C65 1.399 . S
C64 H70 0.929 . S
C65 C45 1.449 . S
C65 C64 1.399 . S
C65 H71 0.930 . S
H66 C46 0.931 . S
H67 C47 0.930 . S
H68 C55 0.931 . S
H69 C56 0.929 1_545 S
H70 C64 0.929 . S
H71 C65 0.930 . S
Mn72 O77 2.095 . S
Mn72 O87 2.162 . S
Mn72 O88 2.297 . S
Mn72 O96 2.385 . S
Mn72 O97 2.209 . S
Mn72 O98 2.094 . S
Mn73 O78 2.121 . S
Mn73 N80 2.257 . S
Mn73 N89 2.282 . S
Mn73 O97 2.215 . S
Mn73 O99 2.117 . S
C74 O96 1.234 . S
C74 O97 1.283 . S
C75 O87 1.281 . S
C75 O88 1.236 . S
C76 O98 1.240 . S
C76 O99 1.264 . S
O77 Mn72 2.095 . S
O77 C86 1.250 . S
O78 Mn73 2.121 . S
O78 C86 1.258 . S
C79 N80 1.326 . S
C79 C83 1.460 . S
C79 H85 0.929 . S
N80 Mn73 2.257 . S
N80 C79 1.326 . S
N80 C84 1.362 . S
C81 C82 1.258 . S
C81 C84 1.431 . S
C81 C101 1.449 . S
C82 C81 1.258 . S
C82 C83 1.477 . S
C82 H102 0.931 . S
C83 C79 1.460 . S
C83 C82 1.477 . S
C83 H103 0.930 . S
C84 N80 1.362 . S
C84 C81 1.431 . S
C84 C94 1.476 . S
H85 C79 0.929 . S
C86 O77 1.250 . S
C86 O78 1.258 . S
O87 Mn72 2.162 . S
O87 C75 1.281 . S
O88 Mn72 2.297 . S
O88 C75 1.236 . S
N89 Mn73 2.282 . S
N89 C90 1.328 . S
N89 C94 1.318 . S
C90 N89 1.328 . S
C90 C91 1.457 . S
C90 H95 0.929 . S
C91 C90 1.457 . S
C91 C92 1.291 . S
C91 H104 0.931 . S
C92 C91 1.291 . S
C92 C93 1.373 . S
C92 H105 0.929 . S
C93 C92 1.373 . S
C93 C94 1.396 . S
C93 C100 1.403 . S
C94 C84 1.476 . S
C94 N89 1.318 . S
C94 C93 1.396 . S
H95 C90 0.929 . S
O96 Mn72 2.385 . S
O96 C74 1.234 . S
O97 Mn72 2.209 . S
O97 Mn73 2.215 . S
O97 C74 1.283 . S
O98 Mn72 2.094 . S
O98 C76 1.240 . S
O99 Mn73 2.117 . S
O99 C76 1.264 . S
C100 C93 1.403 . S
C100 C101 1.399 . S
C100 H106 0.929 . S
C101 C81 1.449 . S
C101 C100 1.399 . S
C101 H107 0.930 . S
H102 C82 0.931 . S
H103 C83 0.930 . S
H104 C91 0.931 . S
H105 C92 0.929 . S
H106 C100 0.929 . S
H107 C101 0.930 . S
Mn108 O113 2.095 . S
Mn108 O123 2.162 . S
Mn108 O124 2.297 . S
Mn108 O132 2.385 1_545 S
Mn108 O133 2.209 . S
Mn108 O134 2.094 . S
Mn109 O114 2.121 . S
Mn109 N116 2.257 . S
Mn109 N125 2.282 . S
Mn109 O133 2.215 . S
Mn109 O135 2.117 . S
C110 O132 1.234 1_545 S
C110 O133 1.283 . S
C111 O123 1.281 . S
C111 O124 1.236 . S
C112 O134 1.240 . S
C112 O135 1.264 . S
O113 Mn108 2.095 . S
O113 C122 1.250 . S
O114 Mn109 2.121 . S
O114 C122 1.258 . S
C115 N116 1.326 . S
C115 C119 1.460 1_655 S
C115 H121 0.929 . S
N116 Mn109 2.257 . S
N116 C115 1.326 . S
N116 C120 1.362 . S
C117 C118 1.258 . S
C117 C120 1.431 1_455 S
C117 C137 1.449 . S
C118 C117 1.258 . S
C118 C119 1.477 . S
C118 H138 0.931 . S
C119 C115 1.460 1_455 S
C119 C118 1.477 . S
C119 H139 0.930 . S
C120 N116 1.362 . S
C120 C117 1.431 1_655 S
C120 C130 1.476 . S
H121 C115 0.929 . S
C122 O113 1.250 . S
C122 O114 1.258 . S
O123 Mn108 2.162 . S
O123 C111 1.281 . S
O124 Mn108 2.297 . S
O124 C111 1.236 . S
N125 Mn109 2.282 . S
N125 C126 1.328 . S
N125 C130 1.318 . S
C126 N125 1.328 . S
C126 C127 1.457 1_545 S
C126 H131 0.929 1_545 S
C127 C126 1.457 1_565 S
C127 C128 1.291 1_565 S
C127 H140 0.931 . S
C128 C127 1.291 1_545 S
C128 C129 1.373 . S
C128 H141 0.929 1_545 S
C129 C128 1.373 . S
C129 C130 1.396 . S
C129 C136 1.403 1_655 S
C130 C120 1.476 . S
C130 N125 1.318 . S
C130 C129 1.396 . S
H131 C126 0.929 1_565 S
O132 Mn108 2.385 1_565 S
O132 C110 1.234 1_565 S
O133 Mn108 2.209 . S
O133 Mn109 2.215 . S
O133 C110 1.283 . S
O134 Mn108 2.094 . S
O134 C112 1.240 . S
O135 Mn109 2.117 . S
O135 C112 1.264 . S
C136 C129 1.403 1_455 S
C136 C137 1.399 . S
C136 H142 0.929 . S
C137 C117 1.449 . S
C137 C136 1.399 . S
C137 H143 0.930 . S
H138 C118 0.931 . S
H139 C119 0.930 . S
H140 C127 0.931 . S
H141 C128 0.929 1_565 S
H142 C136 0.929 . S
H143 C137 0.930 . S
Mn144 O149 2.095 . S
Mn144 O159 2.162 . S
Mn144 O160 2.297 . S
Mn144 O168 2.385 . S
Mn144 O169 2.209 . S
Mn144 O170 2.094 . S
Mn145 O150 2.121 . S
Mn145 N152 2.257 . S
Mn145 N161 2.282 . S
Mn145 O169 2.215 . S
Mn145 O171 2.117 . S
C146 O168 1.234 . S
C146 O169 1.283 . S
C147 O159 1.281 . S
C147 O160 1.236 . S
C148 O170 1.240 . S
C148 O171 1.264 . S
O149 Mn144 2.095 . S
O149 C158 1.250 . S
O150 Mn145 2.121 . S
O150 C158 1.258 . S
C151 N152 1.326 . S
C151 C155 1.460 1_655 S
C151 H157 0.929 . S
N152 Mn145 2.257 . S
N152 C151 1.326 . S
N152 C156 1.362 . S
C153 C154 1.258 . S
C153 C156 1.431 1_455 S
C153 C173 1.449 . S
C154 C153 1.258 . S
C154 C155 1.477 . S
C154 H174 0.931 . S
C155 C151 1.460 1_455 S
C155 C154 1.477 . S
C155 H175 0.930 . S
C156 N152 1.362 . S
C156 C153 1.431 1_655 S
C156 C166 1.476 . S
H157 C151 0.929 . S
C158 O149 1.250 . S
C158 O150 1.258 . S
O159 Mn144 2.162 . S
O159 C147 1.281 . S
O160 Mn144 2.297 . S
O160 C147 1.236 . S
N161 Mn145 2.282 . S
N161 C162 1.328 . S
N161 C166 1.318 . S
C162 N161 1.328 . S
C162 C163 1.457 . S
C162 H167 0.929 . S
C163 C162 1.457 . S
C163 C164 1.291 . S
C163 H176 0.931 . S
C164 C163 1.291 . S
C164 C165 1.373 . S
C164 H177 0.929 . S
C165 C164 1.373 . S
C165 C166 1.396 . S
C165 C172 1.403 1_655 S
C166 C156 1.476 . S
C166 N161 1.318 . S
C166 C165 1.396 . S
H167 C162 0.929 . S
O168 Mn144 2.385 . S
O168 C146 1.234 . S
O169 Mn144 2.209 . S
O169 Mn145 2.215 . S
O169 C146 1.283 . S
O170 Mn144 2.094 . S
O170 C148 1.240 . S
O171 Mn145 2.117 . S
O171 C148 1.264 . S
C172 C165 1.403 1_455 S
C172 C173 1.399 . S
C172 H178 0.929 . S
C173 C153 1.449 . S
C173 C172 1.399 . S
C173 H179 0.930 . S
H174 C154 0.931 . S
H175 C155 0.930 . S
H176 C163 0.931 . S
H177 C164 0.929 . S
H178 C172 0.929 . S
H179 C173 0.930 . S
Mn180 O185 2.095 . S
Mn180 O195 2.162 . S
Mn180 O196 2.297 . S
Mn180 O204 2.385 1_545 S
Mn180 O205 2.209 . S
Mn180 O206 2.094 . S
Mn181 O186 2.121 . S
Mn181 N188 2.257 . S
Mn181 N197 2.282 . S
Mn181 O205 2.215 . S
Mn181 O207 2.117 . S
C182 O204 1.234 1_545 S
C182 O205 1.283 . S
C183 O195 1.281 . S
C183 O196 1.236 . S
C184 O206 1.240 . S
C184 O207 1.264 . S
O185 Mn180 2.095 . S
O185 C194 1.250 . S
O186 Mn181 2.121 . S
O186 C194 1.258 . S
C187 N188 1.326 . S
C187 C191 1.460 . S
C187 H193 0.929 . S
N188 Mn181 2.257 . S
N188 C187 1.326 . S
N188 C192 1.362 . S
C189 C190 1.258 . S
C189 C192 1.431 . S
C189 C209 1.449 . S
C190 C189 1.258 . S
C190 C191 1.477 . S
C190 H210 0.931 . S
C191 C187 1.460 . S
C191 C190 1.477 . S
C191 H211 0.930 . S
C192 N188 1.362 . S
C192 C189 1.431 . S
C192 C202 1.476 . S
H193 C187 0.929 . S
C194 O185 1.250 . S
C194 O186 1.258 . S
O195 Mn180 2.162 . S
O195 C183 1.281 . S
O196 Mn180 2.297 . S
O196 C183 1.236 . S
N197 Mn181 2.282 . S
N197 C198 1.328 . S
N197 C202 1.318 . S
C198 N197 1.328 . S
C198 C199 1.457 1_545 S
C198 H203 0.929 1_545 S
C199 C198 1.457 1_565 S
C199 C200 1.291 1_565 S
C199 H212 0.931 . S
C200 C199 1.291 1_545 S
C200 C201 1.373 . S
C200 H213 0.929 1_545 S
C201 C200 1.373 . S
C201 C202 1.396 . S
C201 C208 1.403 . S
C202 C192 1.476 . S
C202 N197 1.318 . S
C202 C201 1.396 . S
H203 C198 0.929 1_565 S
O204 Mn180 2.385 1_565 S
O204 C182 1.234 1_565 S
O205 Mn180 2.209 . S
O205 Mn181 2.215 . S
O205 C182 1.283 . S
O206 Mn180 2.094 . S
O206 C184 1.240 . S
O207 Mn181 2.117 . S
O207 C184 1.264 . S
C208 C201 1.403 . S
C208 C209 1.399 . S
C208 H214 0.929 . S
C209 C189 1.449 . S
C209 C208 1.399 . S
C209 H215 0.930 . S
H210 C190 0.931 . S
H211 C191 0.930 . S
H212 C199 0.931 . S
H213 C200 0.929 1_565 S
H214 C208 0.929 . S
H215 C209 0.930 . S
Mn216 O221 2.095 . S
Mn216 O231 2.162 . S
Mn216 O232 2.297 . S
Mn216 O240 2.385 . S
Mn216 O241 2.209 . S
Mn216 O242 2.094 . S
Mn217 O222 2.121 . S
Mn217 N224 2.257 . S
Mn217 N233 2.282 . S
Mn217 O241 2.215 . S
Mn217 O243 2.117 . S
C218 O240 1.234 . S
C218 O241 1.283 . S
C219 O231 1.281 . S
C219 O232 1.236 . S
C220 O242 1.240 . S
C220 O243 1.264 . S
O221 Mn216 2.095 . S
O221 C230 1.250 . S
O222 Mn217 2.121 . S
O222 C230 1.258 . S
C223 N224 1.326 . S
C223 C227 1.460 . S
C223 H229 0.929 . S
N224 Mn217 2.257 . S
N224 C223 1.326 . S
N224 C228 1.362 . S
C225 C226 1.258 . S
C225 C228 1.431 . S
C225 C245 1.449 . S
C226 C225 1.258 . S
C226 C227 1.477 . S
C226 H246 0.931 . S
C227 C223 1.460 . S
C227 C226 1.477 . S
C227 H247 0.930 . S
C228 N224 1.362 . S
C228 C225 1.431 . S
C228 C238 1.476 . S
H229 C223 0.929 . S
C230 O221 1.250 . S
C230 O222 1.258 . S
O231 Mn216 2.162 . S
O231 C219 1.281 . S
O232 Mn216 2.297 . S
O232 C219 1.236 . S
N233 Mn217 2.282 . S
N233 C234 1.328 . S
N233 C238 1.318 . S
C234 N233 1.328 . S
C234 C235 1.457 . S
C234 H239 0.929 . S
C235 C234 1.457 . S
C235 C236 1.291 . S
C235 H248 0.931 . S
C236 C235 1.291 . S
C236 C237 1.373 . S
C236 H249 0.929 . S
C237 C236 1.373 . S
C237 C238 1.396 . S
C237 C244 1.403 . S
C238 C228 1.476 . S
C238 N233 1.318 . S
C238 C237 1.396 . S
H239 C234 0.929 . S
O240 Mn216 2.385 . S
O240 C218 1.234 . S
O241 Mn216 2.209 . S
O241 Mn217 2.215 . S
O241 C218 1.283 . S
O242 Mn216 2.094 . S
O242 C220 1.240 . S
O243 Mn217 2.117 . S
O243 C220 1.264 . S
C244 C237 1.403 . S
C244 C245 1.399 . S
C244 H250 0.929 . S
C245 C225 1.449 . S
C245 C244 1.399 . S
C245 H251 0.930 . S
H246 C226 0.931 . S
H247 C227 0.930 . S
H248 C235 0.931 . S
H249 C236 0.929 . S
H250 C244 0.929 . S
H251 C245 0.930 . S
Mn252 O257 2.095 . S
Mn252 O267 2.162 . S
Mn252 O268 2.297 . S
Mn252 O276 2.385 1_565 S
Mn252 O277 2.209 . S
Mn252 O278 2.094 . S
Mn253 O258 2.121 . S
Mn253 N260 2.257 . S
Mn253 N269 2.282 . S
Mn253 O277 2.215 . S
Mn253 O279 2.117 . S
C254 O276 1.234 1_565 S
C254 O277 1.283 . S
C255 O267 1.281 . S
C255 O268 1.236 . S
C256 O278 1.240 . S
C256 O279 1.264 . S
O257 Mn252 2.095 . S
O257 C266 1.250 . S
O258 Mn253 2.121 . S
O258 C266 1.258 . S
C259 N260 1.326 . S
C259 C263 1.460 1_455 S
C259 H265 0.929 . S
N260 Mn253 2.257 . S
N260 C259 1.326 . S
N260 C264 1.362 . S
C261 C262 1.258 . S
C261 C264 1.431 1_655 S
C261 C281 1.449 . S
C262 C261 1.258 . S
C262 C263 1.477 . S
C262 H282 0.931 . S
C263 C259 1.460 1_655 S
C263 C262 1.477 . S
C263 H283 0.930 . S
C264 N260 1.362 . S
C264 C261 1.431 1_455 S
C264 C274 1.476 . S
H265 C259 0.929 . S
C266 O257 1.250 . S
C266 O258 1.258 . S
O267 Mn252 2.162 . S
O267 C255 1.281 . S
O268 Mn252 2.297 . S
O268 C255 1.236 . S
N269 Mn253 2.282 . S
N269 C270 1.328 . S
N269 C274 1.318 . S
C270 N269 1.328 . S
C270 C271 1.457 1_565 S
C270 H275 0.929 1_565 S
C271 C270 1.457 1_545 S
C271 C272 1.291 1_545 S
C271 H284 0.931 . S
C272 C271 1.291 1_565 S
C272 C273 1.373 . S
C272 H285 0.929 1_565 S
C273 C272 1.373 . S
C273 C274 1.396 . S
C273 C280 1.403 1_455 S
C274 C264 1.476 . S
C274 N269 1.318 . S
C274 C273 1.396 . S
H275 C270 0.929 1_545 S
O276 Mn252 2.385 1_545 S
O276 C254 1.234 1_545 S
O277 Mn252 2.209 . S
O277 Mn253 2.215 . S
O277 C254 1.283 . S
O278 Mn252 2.094 . S
O278 C256 1.240 . S
O279 Mn253 2.117 . S
O279 C256 1.264 . S
C280 C273 1.403 1_655 S
C280 C281 1.399 . S
C280 H286 0.929 . S
C281 C261 1.449 . S
C281 C280 1.399 . S
C281 H287 0.930 . S
H282 C262 0.931 . S
H283 C263 0.930 . S
H284 C271 0.931 . S
H285 C272 0.929 1_545 S
H286 C280 0.929 . S
H287 C281 0.930 . S
C288 C289 1.363 . S
C288 C294 1.379 . S
C288 N296 1.356 . S
C289 C288 1.363 . S
C289 C295 1.363 . S
C290 C291 1.363 . S
C290 C295 1.379 . S
C290 N297 1.356 . S
C291 C290 1.363 . S
C291 C294 1.363 . S
N292 C294 1.356 . S
N292 H304 0.984 . S
N292 H305 0.985 . S
N293 C295 1.356 . S
N293 H298 0.984 . S
N293 H299 0.985 . S
C294 C288 1.379 . S
C294 C291 1.363 . S
C294 N292 1.356 . S
C295 C289 1.363 . S
C295 C290 1.379 . S
C295 N293 1.356 . S
N296 C288 1.356 . S
N296 H302 0.984 . S
N296 H303 0.984 . S
N297 C290 1.356 . S
N297 H300 0.984 . S
N297 H301 0.985 . S
H298 N293 0.984 . S
H299 N293 0.985 . S
H300 N297 0.984 . S
H301 N297 0.985 . S
H302 N296 0.984 . S
H303 N296 0.984 . S
H304 N292 0.984 . S
H305 N292 0.985 . S
C306 C307 1.363 1_565 S
C306 C312 1.379 . S
C306 N314 1.356 1_455 S
C307 C306 1.363 1_545 S
C307 C313 1.363 . S
C308 C309 1.363 1_545 S
C308 C313 1.379 . S
C308 N315 1.356 . S
C309 C308 1.363 1_565 S
C309 C312 1.363 . S
N310 C312 1.356 . S
N310 H322 0.984 . S
N310 H323 0.985 . S
N311 C313 1.356 . S
N311 H316 0.984 . S
N311 H317 0.985 . S
C312 C306 1.379 . S
C312 C309 1.363 . S
C312 N310 1.356 . S
C313 C307 1.363 . S
C313 C308 1.379 . S
C313 N311 1.356 . S
N314 C306 1.356 1_655 S
N314 H320 0.984 . S
N314 H321 0.984 . S
N315 C308 1.356 . S
N315 H318 0.984 . S
N315 H319 0.985 . S
H316 N311 0.984 . S
H317 N311 0.985 . S
H318 N315 0.984 . S
H319 N315 0.985 . S
H320 N314 0.984 . S
H321 N314 0.984 . S
H322 N310 0.984 . S
H323 N310 0.985 . S
C324 C325 1.363 . S
C324 C330 1.379 . S
C324 N332 1.356 . S
C325 C324 1.363 . S
C325 C331 1.363 . S
C326 C327 1.363 . S
C326 C331 1.379 . S
C326 N333 1.356 . S
C327 C326 1.363 . S
C327 C330 1.363 . S
N328 C330 1.356 1_455 S
N328 H340 0.984 . S
N328 H341 0.985 . S
N329 C331 1.356 . S
N329 H334 0.984 . S
N329 H335 0.985 . S
C330 C324 1.379 . S
C330 C327 1.363 . S
C330 N328 1.356 1_655 S
C331 C325 1.363 . S
C331 C326 1.379 . S
C331 N329 1.356 . S
N332 C324 1.356 . S
N332 H338 0.984 . S
N332 H339 0.984 . S
N333 C326 1.356 . S
N333 H336 0.984 . S
N333 H337 0.985 . S
H334 N329 0.984 . S
H335 N329 0.985 . S
H336 N333 0.984 . S
H337 N333 0.985 . S
H338 N332 0.984 . S
H339 N332 0.984 . S
H340 N328 0.984 . S
H341 N328 0.985 . S
C342 C343 1.363 . S
C342 C348 1.379 1_545 S
C342 N350 1.356 . S
C343 C342 1.363 . S
C343 C349 1.363 1_545 S
C344 C345 1.363 . S
C344 C349 1.379 . S
C344 N351 1.356 . S
C345 C344 1.363 . S
C345 C348 1.363 . S
N346 C348 1.356 . S
N346 H358 0.984 . S
N346 H359 0.985 . S
N347 C349 1.356 . S
N347 H352 0.984 1_565 S
N347 H353 0.985 . S
C348 C342 1.379 1_565 S
C348 C345 1.363 . S
C348 N346 1.356 . S
C349 C343 1.363 1_565 S
C349 C344 1.379 . S
C349 N347 1.356 . S
N350 C342 1.356 . S
N350 H356 0.984 . S
N350 H357 0.984 . S
N351 C344 1.356 . S
N351 H354 0.984 . S
N351 H355 0.985 . S
H352 N347 0.984 1_545 S
H353 N347 0.985 . S
H354 N351 0.984 . S
H355 N351 0.985 . S
H356 N350 0.984 . S
H357 N350 0.984 . S
H358 N346 0.984 . S
H359 N346 0.985 . S
C360 C361 1.363 . S
C360 C366 1.379 . S
C360 N368 1.356 . S
C361 C360 1.363 . S
C361 C367 1.363 . S
C362 C363 1.363 . S
C362 C367 1.379 . S
C362 N369 1.356 . S
C363 C362 1.363 . S
C363 C366 1.363 . S
N364 C366 1.356 . S
N364 H376 0.984 . S
N364 H377 0.985 . S
N365 C367 1.356 . S
N365 H370 0.984 . S
N365 H371 0.985 . S
C366 C360 1.379 . S
C366 C363 1.363 . S
C366 N364 1.356 . S
C367 C361 1.363 . S
C367 C362 1.379 . S
C367 N365 1.356 . S
N368 C360 1.356 . S
N368 H374 0.984 . S
N368 H375 0.984 . S
N369 C362 1.356 . S
N369 H372 0.984 . S
N369 H373 0.985 . S
H370 N365 0.984 . S
H371 N365 0.985 . S
H372 N369 0.984 . S
H373 N369 0.985 . S
H374 N368 0.984 . S
H375 N368 0.984 . S
H376 N364 0.984 . S
H377 N364 0.985 . S
C378 C379 1.363 . S
C378 C384 1.379 . S
C378 N386 1.356 . S
C379 C378 1.363 . S
C379 C385 1.363 1_545 S
C380 C381 1.363 . S
C380 C385 1.379 . S
C380 N387 1.356 . S
C381 C380 1.363 . S
C381 C384 1.363 1_565 S
N382 C384 1.356 1_455 S
N382 H394 0.984 . S
N382 H395 0.985 . S
N383 C385 1.356 . S
N383 H388 0.984 . S
N383 H389 0.985 . S
C384 C378 1.379 . S
C384 C381 1.363 1_545 S
C384 N382 1.356 1_655 S
C385 C379 1.363 1_565 S
C385 C380 1.379 . S
C385 N383 1.356 . S
N386 C378 1.356 . S
N386 H392 0.984 . S
N386 H393 0.984 . S
N387 C380 1.356 . S
N387 H390 0.984 . S
N387 H391 0.985 . S
H388 N383 0.984 . S
H389 N383 0.985 . S
H390 N387 0.984 . S
H391 N387 0.985 . S
H392 N386 0.984 . S
H393 N386 0.984 . S
H394 N382 0.984 . S
H395 N382 0.985 . S
C396 C397 1.363 . S
C396 C402 1.379 . S
C396 N404 1.356 . S
C397 C396 1.363 . S
C397 C403 1.363 . S
C398 C399 1.363 . S
C398 C403 1.379 . S
C398 N405 1.356 . S
C399 C398 1.363 . S
C399 C402 1.363 . S
N400 C402 1.356 1_655 S
N400 H412 0.984 . S
N400 H413 0.985 . S
N401 C403 1.356 . S
N401 H406 0.984 . S
N401 H407 0.985 . S
C402 C396 1.379 . S
C402 C399 1.363 . S
C402 N400 1.356 1_455 S
C403 C397 1.363 . S
C403 C398 1.379 . S
C403 N401 1.356 . S
N404 C396 1.356 . S
N404 H410 0.984 . S
N404 H411 0.984 . S
N405 C398 1.356 . S
N405 H408 0.984 . S
N405 H409 0.985 . S
H406 N401 0.984 . S
H407 N401 0.985 . S
H408 N405 0.984 . S
H409 N405 0.985 . S
H410 N404 0.984 . S
H411 N404 0.984 . S
H412 N400 0.984 . S
H413 N400 0.985 . S
C414 C415 1.363 . S
C414 C420 1.379 . S
C414 N422 1.356 . S
C415 C414 1.363 . S
C415 C421 1.363 1_565 S
C416 C417 1.363 . S
C416 C421 1.379 . S
C416 N423 1.356 . S
C417 C416 1.363 . S
C417 C420 1.363 1_545 S
N418 C420 1.356 . S
N418 H430 0.984 . S
N418 H431 0.985 . S
N419 C421 1.356 . S
N419 H424 0.984 . S
N419 H425 0.985 . S
C420 C414 1.379 . S
C420 C417 1.363 1_565 S
C420 N418 1.356 . S
C421 C415 1.363 1_545 S
C421 C416 1.379 . S
C421 N419 1.356 . S
N422 C414 1.356 . S
N422 H428 0.984 . S
N422 H429 0.984 . S
N423 C416 1.356 . S
N423 H426 0.984 . S
N423 H427 0.985 . S
H424 N419 0.984 . S
H425 N419 0.985 . S
H426 N423 0.984 . S
H427 N423 0.985 . S
H428 N422 0.984 . S
H429 N422 0.984 . S
H430 N418 0.984 . S
H431 N418 0.985 . S
C432 C433 1.363 . S
C432 C438 1.379 1_455 S
C432 N440 1.356 . S
C433 C432 1.363 . S
C433 C439 1.363 . S
C434 C435 1.363 . S
C434 C439 1.379 1_655 S
C434 N441 1.356 . S
C435 C434 1.363 . S
C435 C438 1.363 . S
N436 C438 1.356 . S
N436 H448 0.984 . S
N436 H449 0.985 . S
N437 C439 1.356 . S
N437 H442 0.984 . S
N437 H443 0.985 . S
C438 C432 1.379 1_655 S
C438 C435 1.363 . S
C438 N436 1.356 . S
C439 C433 1.363 . S
C439 C434 1.379 1_455 S
C439 N437 1.356 . S
N440 C432 1.356 . S
N440 H446 0.984 . S
N440 H447 0.984 . S
N441 C434 1.356 . S
N441 H444 0.984 . S
N441 H445 0.985 . S
H442 N437 0.984 . S
H443 N437 0.985 . S
H444 N441 0.984 . S
H445 N441 0.985 . S
H446 N440 0.984 . S
H447 N440 0.984 . S
H448 N436 0.984 . S
H449 N436 0.985 . S
C450 C451 1.363 . S
C450 C456 1.379 . S
C450 N458 1.356 . S
C451 C450 1.363 . S
C451 C457 1.363 1_565 S
C452 C453 1.363 . S
C452 C457 1.379 . S
C452 N459 1.356 . S
C453 C452 1.363 . S
C453 C456 1.363 1_545 S
N454 C456 1.356 . S
N454 H466 0.984 . S
N454 H467 0.985 . S
N455 C457 1.356 . S
N455 H460 0.984 . S
N455 H461 0.985 . S
C456 C450 1.379 . S
C456 C453 1.363 1_565 S
C456 N454 1.356 . S
C457 C451 1.363 1_545 S
C457 C452 1.379 . S
C457 N455 1.356 . S
N458 C450 1.356 . S
N458 H464 0.984 . S
N458 H465 0.984 . S
N459 C452 1.356 . S
N459 H462 0.984 . S
N459 H463 0.985 . S
H460 N455 0.984 . S
H461 N455 0.985 . S
H462 N459 0.984 . S
H463 N459 0.985 . S
H464 N458 0.984 . S
H465 N458 0.984 . S
H466 N454 0.984 . S
H467 N454 0.985 . S
C468 C469 1.363 . S
C468 C474 1.379 1_554 S
C468 N476 1.356 . S
C469 C468 1.363 . S
C469 C475 1.363 . S
C470 C471 1.363 . S
C470 C475 1.379 1_556 S
C470 N477 1.356 . S
C471 C470 1.363 . S
C471 C474 1.363 . S
N472 C474 1.356 . S
N472 H484 0.984 . S
N472 H485 0.985 . S
N473 C475 1.356 . S
N473 H478 0.984 . S
N473 H479 0.985 . S
C474 C468 1.379 1_556 S
C474 C471 1.363 . S
C474 N472 1.356 . S
C475 C469 1.363 . S
C475 C470 1.379 1_554 S
C475 N473 1.356 . S
N476 C468 1.356 . S
N476 H482 0.984 . S
N476 H483 0.984 . S
N477 C470 1.356 . S
N477 H480 0.984 . S
N477 H481 0.985 . S
H478 N473 0.984 . S
H479 N473 0.985 . S
H480 N477 0.984 . S
H481 N477 0.985 . S
H482 N476 0.984 . S
H483 N476 0.984 . S
H484 N472 0.984 . S
H485 N472 0.985 . S
C486 C487 1.363 1_655 S
C486 C492 1.379 1_556 S
C486 N494 1.356 . S
C487 C486 1.363 1_455 S
C487 C493 1.363 1_565 S
C488 C489 1.363 1_455 S
C488 C493 1.379 1_554 S
C488 N495 1.356 . S
C489 C488 1.363 1_655 S
C489 C492 1.363 1_545 S
N490 C492 1.356 . S
N490 H502 0.984 . S
N490 H503 0.985 . S
N491 C493 1.356 . S
N491 H496 0.984 . S
N491 H497 0.985 . S
C492 C486 1.379 1_554 S
C492 C489 1.363 1_565 S
C492 N490 1.356 . S
C493 C487 1.363 1_545 S
C493 C488 1.379 1_556 S
C493 N491 1.356 . S
N494 C486 1.356 . S
N494 H500 0.984 . S
N494 H501 0.984 1_655 S
N495 C488 1.356 . S
N495 H498 0.984 1_455 S
N495 H499 0.985 . S
H496 N491 0.984 . S
H497 N491 0.985 . S
H498 N495 0.984 1_655 S
H499 N495 0.985 . S
H500 N494 0.984 . S
H501 N494 0.984 1_455 S
H502 N490 0.984 . S
H503 N490 0.985 . S
C504 C505 1.363 . S
C504 C510 1.379 . S
C504 N512 1.356 . S
C505 C504 1.363 . S
C505 C511 1.363 . S
C506 C507 1.363 . S
C506 C511 1.379 . S
C506 N513 1.356 . S
C507 C506 1.363 . S
C507 C510 1.363 . S
N508 C510 1.356 . S
N508 H520 0.984 . S
N508 H521 0.985 . S
N509 C511 1.356 . S
N509 H514 0.984 . S
N509 H515 0.985 . S
C510 C504 1.379 . S
C510 C507 1.363 . S
C510 N508 1.356 . S
C511 C505 1.363 . S
C511 C506 1.379 . S
C511 N509 1.356 . S
N512 C504 1.356 . S
N512 H518 0.984 . S
N512 H519 0.984 . S
N513 C506 1.356 . S
N513 H516 0.984 . S
N513 H517 0.985 . S
H514 N509 0.984 . S
H515 N509 0.985 . S
H516 N513 0.984 . S
H517 N513 0.985 . S
H518 N512 0.984 . S
H519 N512 0.984 . S
H520 N508 0.984 . S
H521 N508 0.985 . S
C522 C523 1.363 . S
C522 C528 1.379 . S
C522 N530 1.356 . S
C523 C522 1.363 . S
C523 C529 1.363 . S
C524 C525 1.363 . S
C524 C529 1.379 . S
C524 N531 1.356 . S
C525 C524 1.363 . S
C525 C528 1.363 . S
N526 C528 1.356 . S
N526 H538 0.984 . S
N526 H539 0.985 . S
N527 C529 1.356 . S
N527 H532 0.984 . S
N527 H533 0.985 . S
C528 C522 1.379 . S
C528 C525 1.363 . S
C528 N526 1.356 . S
C529 C523 1.363 . S
C529 C524 1.379 . S
C529 N527 1.356 . S
N530 C522 1.356 . S
N530 H536 0.984 . S
N530 H537 0.984 . S
N531 C524 1.356 . S
N531 H534 0.984 . S
N531 H535 0.985 . S
H532 N527 0.984 . S
H533 N527 0.985 . S
H534 N531 0.984 . S
H535 N531 0.985 . S
H536 N530 0.984 . S
H537 N530 0.984 . S
H538 N526 0.984 . S
H539 N526 0.985 . S
C540 C541 1.363 . S
C540 C546 1.379 . S
C540 N548 1.356 . S
C541 C540 1.363 . S
C541 C547 1.363 . S
C542 C543 1.363 . S
C542 C547 1.379 . S
C542 N549 1.356 . S
C543 C542 1.363 . S
C543 C546 1.363 . S
N544 C546 1.356 . S
N544 H556 0.984 . S
N544 H557 0.985 . S
N545 C547 1.356 . S
N545 H550 0.984 . S
N545 H551 0.985 . S
C546 C540 1.379 . S
C546 C543 1.363 . S
C546 N544 1.356 . S
C547 C541 1.363 . S
C547 C542 1.379 . S
C547 N545 1.356 . S
N548 C540 1.356 . S
N548 H554 0.984 . S
N548 H555 0.984 . S
N549 C542 1.356 . S
N549 H552 0.984 . S
N549 H553 0.985 . S
H550 N545 0.984 . S
H551 N545 0.985 . S
H552 N549 0.984 . S
H553 N549 0.985 . S
H554 N548 0.984 . S
H555 N548 0.984 . S
H556 N544 0.984 . S
H557 N544 0.985 . S
C558 C559 1.363 . S
C558 C564 1.379 . S
C558 N566 1.356 . S
C559 C558 1.363 . S
C559 C565 1.363 . S
C560 C561 1.363 . S
C560 C565 1.379 . S
C560 N567 1.356 . S
C561 C560 1.363 . S
C561 C564 1.363 . S
N562 C564 1.356 . S
N562 H574 0.984 . S
N562 H575 0.985 . S
N563 C565 1.356 . S
N563 H568 0.984 . S
N563 H569 0.985 . S
C564 C558 1.379 . S
C564 C561 1.363 . S
C564 N562 1.356 . S
C565 C559 1.363 . S
C565 C560 1.379 . S
C565 N563 1.356 . S
N566 C558 1.356 . S
N566 H572 0.984 . S
N566 H573 0.984 . S
N567 C560 1.356 . S
N567 H570 0.984 . S
N567 H571 0.985 . S
H568 N563 0.984 . S
H569 N563 0.985 . S
H570 N567 0.984 . S
H571 N567 0.985 . S
H572 N566 0.984 . S
H573 N566 0.984 . S
H574 N562 0.984 . S
H575 N562 0.985 . S
C289 C4 1.375 . S
C291 C74 1.392 . S
C307 C110 1.392 1_455 S
C309 C40 1.375 . S
C325 C76 1.375 . S
C327 C2 1.392 1_655 S
C343 C112 1.375 . S
C345 C38 1.392 . S
C361 C218 1.392 . S
C363 C148 1.375 . S
C379 C184 1.375 . S
C381 C254 1.392 1_655 S
C397 C220 1.375 . S
C399 C146 1.392 1_455 S
C415 C256 1.375 . S
C417 C182 1.392 . S
C433 C3 1.528 . S
C435 C147 1.528 . S
C451 C39 1.528 . S
C453 C183 1.528 . S
C469 C75 1.528 . S
C471 C219 1.528 . S
C487 C255 1.528 . S
C489 C111 1.528 . S
C505 C14 1.447 . S
C507 C50 1.447 . S
C523 C122 1.447 . S
C525 C86 1.447 . S
C541 C194 1.447 . S
C543 C158 1.447 . S
C559 C230 1.447 . S
C561 C266 1.447 . S
