# Generated by pormake.
# Topology uow, (4)-cn, num edge types: 1
# Building blocks:
#     Node 0, Type 0, BuildingBlock: ESEHIV_clean_sbu_0, # of connection points: 4
#     Node 1, Type 0, BuildingBlock: ESEHIV_clean_sbu_0, # of connection points: 4
#     Node 2, Type 0, BuildingBlock: ESEHIV_clean_sbu_0, # of connection points: 4
#     Node 3, Type 0, BuildingBlock: ESEHIV_clean_sbu_0, # of connection points: 4
#     Node 4, Type 0, BuildingBlock: ESEHIV_clean_sbu_0, # of connection points: 4
#     Node 5, Type 0, BuildingBlock: ESEHIV_clean_sbu_0, # of connection points: 4
#     Node 6, Type 0, BuildingBlock: ESEHIV_clean_sbu_0, # of connection points: 4
#     Node 7, Type 0, BuildingBlock: ESEHIV_clean_sbu_0, # of connection points: 4
#     Node 8, Type 0, BuildingBlock: ESEHIV_clean_sbu_0, # of connection points: 4
#     Node 9, Type 0, BuildingBlock: ESEHIV_clean_sbu_0, # of connection points: 4
#     Node 10, Type 0, BuildingBlock: ESEHIV_clean_sbu_0, # of connection points: 4
#     Node 11, Type 0, BuildingBlock: ESEHIV_clean_sbu_0, # of connection points: 4
#     Node 12, Type 0, BuildingBlock: ESEHIV_clean_sbu_0, # of connection points: 4
#     Node 13, Type 0, BuildingBlock: ESEHIV_clean_sbu_0, # of connection points: 4
#     Node 14, Type 0, BuildingBlock: ESEHIV_clean_sbu_0, # of connection points: 4
#     Node 15, Type 0, BuildingBlock: ESEHIV_clean_sbu_0, # of connection points: 4
#     Node 16, Type 0, BuildingBlock: ESEHIV_clean_sbu_0, # of connection points: 4
#     Node 17, Type 0, BuildingBlock: ESEHIV_clean_sbu_0, # of connection points: 4
#     Node 18, Type 0, BuildingBlock: ESEHIV_clean_sbu_0, # of connection points: 4
#     Node 19, Type 0, BuildingBlock: ESEHIV_clean_sbu_0, # of connection points: 4
#     Node 20, Type 0, BuildingBlock: ESEHIV_clean_sbu_0, # of connection points: 4
#     Node 21, Type 0, BuildingBlock: ESEHIV_clean_sbu_0, # of connection points: 4
#     Node 22, Type 0, BuildingBlock: ESEHIV_clean_sbu_0, # of connection points: 4
#     Node 23, Type 0, BuildingBlock: ESEHIV_clean_sbu_0, # of connection points: 4
#     Node 24, Type 0, BuildingBlock: ESEHIV_clean_sbu_0, # of connection points: 4
#     Node 25, Type 0, BuildingBlock: ESEHIV_clean_sbu_0, # of connection points: 4
#     Node 26, Type 0, BuildingBlock: ESEHIV_clean_sbu_0, # of connection points: 4
#     Node 27, Type 0, BuildingBlock: ESEHIV_clean_sbu_0, # of connection points: 4
#     Node 28, Type 0, BuildingBlock: ESEHIV_clean_sbu_0, # of connection points: 4
#     Node 29, Type 0, BuildingBlock: ESEHIV_clean_sbu_0, # of connection points: 4
#     Node 30, Type 0, BuildingBlock: ESEHIV_clean_sbu_0, # of connection points: 4
#     Node 31, Type 0, BuildingBlock: ESEHIV_clean_sbu_0, # of connection points: 4
#     Edge 32, Type (0, 0), BuildingBlock: AJUNOK_clean_linker_0, # of connection points: 2
#     Edge 33, Type (0, 0), BuildingBlock: AJUNOK_clean_linker_0, # of connection points: 2
#     Edge 34, Type (0, 0), BuildingBlock: AJUNOK_clean_linker_0, # of connection points: 2
#     Edge 35, Type (0, 0), BuildingBlock: AJUNOK_clean_linker_0, # of connection points: 2
#     Edge 36, Type (0, 0), BuildingBlock: AJUNOK_clean_linker_0, # of connection points: 2
#     Edge 37, Type (0, 0), BuildingBlock: AJUNOK_clean_linker_0, # of connection points: 2
#     Edge 38, Type (0, 0), BuildingBlock: AJUNOK_clean_linker_0, # of connection points: 2
#     Edge 39, Type (0, 0), BuildingBlock: AJUNOK_clean_linker_0, # of connection points: 2
#     Edge 40, Type (0, 0), BuildingBlock: AJUNOK_clean_linker_0, # of connection points: 2
#     Edge 41, Type (0, 0), BuildingBlock: AJUNOK_clean_linker_0, # of connection points: 2
#     Edge 42, Type (0, 0), BuildingBlock: AJUNOK_clean_linker_0, # of connection points: 2
#     Edge 43, Type (0, 0), BuildingBlock: AJUNOK_clean_linker_0, # of connection points: 2
#     Edge 44, Type (0, 0), BuildingBlock: AJUNOK_clean_linker_0, # of connection points: 2
#     Edge 45, Type (0, 0), BuildingBlock: AJUNOK_clean_linker_0, # of connection points: 2
#     Edge 46, Type (0, 0), BuildingBlock: AJUNOK_clean_linker_0, # of connection points: 2
#     Edge 47, Type (0, 0), BuildingBlock: AJUNOK_clean_linker_0, # of connection points: 2
#     Edge 48, Type (0, 0), BuildingBlock: AJUNOK_clean_linker_0, # of connection points: 2
#     Edge 49, Type (0, 0), BuildingBlock: AJUNOK_clean_linker_0, # of connection points: 2
#     Edge 50, Type (0, 0), BuildingBlock: AJUNOK_clean_linker_0, # of connection points: 2
#     Edge 51, Type (0, 0), BuildingBlock: AJUNOK_clean_linker_0, # of connection points: 2
#     Edge 52, Type (0, 0), BuildingBlock: AJUNOK_clean_linker_0, # of connection points: 2
#     Edge 53, Type (0, 0), BuildingBlock: AJUNOK_clean_linker_0, # of connection points: 2
#     Edge 54, Type (0, 0), BuildingBlock: AJUNOK_clean_linker_0, # of connection points: 2
#     Edge 55, Type (0, 0), BuildingBlock: AJUNOK_clean_linker_0, # of connection points: 2
#     Edge 56, Type (0, 0), BuildingBlock: AJUNOK_clean_linker_0, # of connection points: 2
#     Edge 57, Type (0, 0), BuildingBlock: AJUNOK_clean_linker_0, # of connection points: 2
#     Edge 58, Type (0, 0), BuildingBlock: AJUNOK_clean_linker_0, # of connection points: 2
#     Edge 59, Type (0, 0), BuildingBlock: AJUNOK_clean_linker_0, # of connection points: 2
#     Edge 60, Type (0, 0), BuildingBlock: AJUNOK_clean_linker_0, # of connection points: 2
#     Edge 61, Type (0, 0), BuildingBlock: AJUNOK_clean_linker_0, # of connection points: 2
#     Edge 62, Type (0, 0), BuildingBlock: AJUNOK_clean_linker_0, # of connection points: 2
#     Edge 63, Type (0, 0), BuildingBlock: AJUNOK_clean_linker_0, # of connection points: 2
#     Edge 64, Type (0, 0), BuildingBlock: AJUNOK_clean_linker_0, # of connection points: 2
#     Edge 65, Type (0, 0), BuildingBlock: AJUNOK_clean_linker_0, # of connection points: 2
#     Edge 66, Type (0, 0), BuildingBlock: AJUNOK_clean_linker_0, # of connection points: 2
#     Edge 67, Type (0, 0), BuildingBlock: AJUNOK_clean_linker_0, # of connection points: 2
#     Edge 68, Type (0, 0), BuildingBlock: AJUNOK_clean_linker_0, # of connection points: 2
#     Edge 69, Type (0, 0), BuildingBlock: AJUNOK_clean_linker_0, # of connection points: 2
#     Edge 70, Type (0, 0), BuildingBlock: AJUNOK_clean_linker_0, # of connection points: 2
#     Edge 71, Type (0, 0), BuildingBlock: AJUNOK_clean_linker_0, # of connection points: 2
#     Edge 72, Type (0, 0), BuildingBlock: AJUNOK_clean_linker_0, # of connection points: 2
#     Edge 73, Type (0, 0), BuildingBlock: AJUNOK_clean_linker_0, # of connection points: 2
#     Edge 74, Type (0, 0), BuildingBlock: AJUNOK_clean_linker_0, # of connection points: 2
#     Edge 75, Type (0, 0), BuildingBlock: AJUNOK_clean_linker_0, # of connection points: 2
#     Edge 76, Type (0, 0), BuildingBlock: AJUNOK_clean_linker_0, # of connection points: 2
#     Edge 77, Type (0, 0), BuildingBlock: AJUNOK_clean_linker_0, # of connection points: 2
#     Edge 78, Type (0, 0), BuildingBlock: AJUNOK_clean_linker_0, # of connection points: 2
#     Edge 79, Type (0, 0), BuildingBlock: AJUNOK_clean_linker_0, # of connection points: 2
#     Edge 80, Type (0, 0), BuildingBlock: AJUNOK_clean_linker_0, # of connection points: 2
#     Edge 81, Type (0, 0), BuildingBlock: AJUNOK_clean_linker_0, # of connection points: 2
#     Edge 82, Type (0, 0), BuildingBlock: AJUNOK_clean_linker_0, # of connection points: 2
#     Edge 83, Type (0, 0), BuildingBlock: AJUNOK_clean_linker_0, # of connection points: 2
#     Edge 84, Type (0, 0), BuildingBlock: AJUNOK_clean_linker_0, # of connection points: 2
#     Edge 85, Type (0, 0), BuildingBlock: AJUNOK_clean_linker_0, # of connection points: 2
#     Edge 86, Type (0, 0), BuildingBlock: AJUNOK_clean_linker_0, # of connection points: 2
#     Edge 87, Type (0, 0), BuildingBlock: AJUNOK_clean_linker_0, # of connection points: 2
#     Edge 88, Type (0, 0), BuildingBlock: AJUNOK_clean_linker_0, # of connection points: 2
#     Edge 89, Type (0, 0), BuildingBlock: AJUNOK_clean_linker_0, # of connection points: 2
#     Edge 90, Type (0, 0), BuildingBlock: AJUNOK_clean_linker_0, # of connection points: 2
#     Edge 91, Type (0, 0), BuildingBlock: AJUNOK_clean_linker_0, # of connection points: 2
#     Edge 92, Type (0, 0), BuildingBlock: AJUNOK_clean_linker_0, # of connection points: 2
#     Edge 93, Type (0, 0), BuildingBlock: AJUNOK_clean_linker_0, # of connection points: 2
#     Edge 94, Type (0, 0), BuildingBlock: AJUNOK_clean_linker_0, # of connection points: 2
#     Edge 95, Type (0, 0), BuildingBlock: AJUNOK_clean_linker_0, # of connection points: 2
# Relax obj value: 0.069
# Max RMSD: 0.251
# Mean RMSD: 0.224
data_MOF--net-uow--node1-ESEHIV_clean_sbu_0--edge1-AJUNOK_clean_linker_0
_symmetry_space_group_name_H-M    P1
_symmetry_Int_Tables_number       1
_symmetry_cell_setting            triclinic
loop_
_symmetry_equiv_pos_as_xyz
'x, y, z'
_cell_length_a     47.269211
_cell_length_b     52.861613
_cell_length_c     35.759419
_cell_angle_alpha  90.257615
_cell_angle_beta   89.982297
_cell_angle_gamma 90.111204
loop_
_atom_site_label
_atom_site_type_symbol
_atom_site_fract_x
_atom_site_fract_y
_atom_site_fract_z
_atom_type_partial_charge
Cu0 Cu 0.09174 0.39701 0.32023 0.0
N1 N 0.1107 0.37953 0.35792 0.0
N2 N 0.11881 0.35191 0.40385 0.0
C3 C 0.10043 0.35988 0.37758 0.0
C4 C 0.14173 0.36698 0.40027 0.0
C5 C 0.1366 0.38409 0.37203 0.0
O6 O 0.05196 0.39429 0.33193 0.0
C7 C 0.0887 0.3868 0.24179 0.0
O8 O 0.06881 0.40411 0.24143 0.0
H9 H 0.08013 0.35122 0.37222 0.0
H10 H 0.15068 0.39889 0.36253 0.0
N11 N 0.10161 0.4312 0.32297 0.0
N12 N 0.10752 0.47213 0.30971 0.0
C13 C 0.10335 0.44863 0.29562 0.0
C14 C 0.1048 0.44414 0.35519 0.0
C15 C 0.10837 0.46937 0.34713 0.0
C16 C 0.03799 0.37383 0.32862 0.0
O17 O 0.04965 0.35445 0.31146 0.0
H18 H 0.10026 0.44443 0.26626 0.0
H19 H 0.10354 0.43585 0.38274 0.0
O20 O 0.10093 0.38155 0.27245 0.0
H21 H 0.16076 0.36579 0.417 0.0
H22 H 0.11081 0.48461 0.36721 0.0
Cu23 Cu 0.88814 0.83839 0.54506 0.0
N24 N 0.91176 0.84693 0.50525 0.0
N25 N 0.92661 0.85911 0.44874 0.0
C26 C 0.90399 0.85503 0.47111 0.0
C27 C 0.94938 0.85306 0.46963 0.0
C28 C 0.94016 0.84557 0.50444 0.0
O29 O 0.84966 0.84928 0.53413 0.0
C30 C 0.92001 0.86972 0.596 0.0
O31 O 0.92373 0.88496 0.56751 0.0
H32 H 0.88216 0.8572 0.46266 0.0
H33 H 0.95319 0.83947 0.52756 0.0
N34 N 0.8877 0.80344 0.54978 0.0
N35 N 0.89729 0.76546 0.57379 0.0
C36 C 0.90579 0.78977 0.5705 0.0
C37 C 0.86726 0.78732 0.53897 0.0
C38 C 0.87316 0.76385 0.55362 0.0
C39 C 0.82918 0.84578 0.55666 0.0
O40 O 0.83454 0.83668 0.59004 0.0
H41 H 0.9244 0.79784 0.58349 0.0
H42 H 0.84867 0.79257 0.5232 0.0
O43 O 0.90383 0.85061 0.59222 0.0
H44 H 0.97118 0.85409 0.46046 0.0
H45 H 0.85985 0.74724 0.55125 0.0
Cu46 Cu 0.43621 0.64326 0.82025 0.0
N47 N 0.41841 0.66578 0.85329 0.0
N48 N 0.41337 0.69601 0.89696 0.0
C49 C 0.43066 0.67826 0.88205 0.0
C50 C 0.3891 0.69415 0.87719 0.0
C51 C 0.39232 0.67562 0.85022 0.0
O52 O 0.47613 0.64424 0.83211 0.0
C53 C 0.4426 0.64493 0.74163 0.0
O54 O 0.46299 0.62867 0.7481 0.0
H55 H 0.45203 0.67467 0.89134 0.0
H56 H 0.37719 0.67045 0.82881 0.0
N57 N 0.4237 0.61004 0.82788 0.0
N58 N 0.41545 0.56881 0.81819 0.0
C59 C 0.42047 0.5915 0.80215 0.0
C60 C 0.42057 0.59867 0.86123 0.0
C61 C 0.41559 0.57324 0.85535 0.0
C62 C 0.49082 0.66441 0.83116 0.0
O63 O 0.47954 0.68495 0.817 0.0
H64 H 0.42333 0.59427 0.77243 0.0
H65 H 0.42306 0.60806 0.88798 0.0
O66 O 0.42867 0.6537 0.76917 0.0
H67 H 0.37079 0.7062 0.88075 0.0
H68 H 0.41302 0.55898 0.87673 0.0
Cu69 Cu 0.65704 0.21121 0.05318 0.0
N70 N 0.63547 0.21166 1.00939 0.0
N71 N 0.61771 0.20104 0.95359 0.0
C72 C 0.63258 0.19314 0.98361 0.0
C73 C 0.61112 0.2254 0.96073 0.0
C74 C 0.62202 0.23187 0.99518 0.0
O75 O 0.69364 0.1965 0.04031 0.0
C76 C 0.61059 0.20135 0.099 0.0
O77 O 0.59926 0.21743 0.0755 0.0
H78 H 0.64233 0.17471 0.986 0.0
H79 H 0.62098 0.25026 1.00851 0.0
N80 N 0.66359 0.24461 0.06801 0.0
N81 N 0.65994 0.28159 0.09791 0.0
C82 C 0.64939 0.25803 0.09398 0.0
C83 C 0.68375 0.26029 0.05497 0.0
C84 C 0.68157 0.28317 0.07343 0.0
C85 C 0.71564 0.19917 0.06051 0.0
O86 O 0.71304 0.2093 0.09394 0.0
H87 H 0.63187 0.2507 0.1101 0.0
H88 H 0.6989 0.25539 0.03345 0.0
O89 O 0.63614 0.19444 0.0935 0.0
H90 H 0.5997 0.23776 0.942 0.0
H91 H 0.69447 0.2998 0.06873 0.0
Cu92 Cu 0.09171 0.64224 0.22578 0.0
N93 N 0.11457 0.6621 0.1949 0.0
N94 N 0.12698 0.69087 0.15215 0.0
C95 C 0.10621 0.68216 0.17463 0.0
C96 C 0.14928 0.67553 0.1584 0.0
C97 C 0.14156 0.65783 0.1848 0.0
O98 O 0.05341 0.64513 0.20712 0.0
C99 C 0.11696 0.65203 0.29645 0.0
O100 O 0.13972 0.64273 0.28044 0.0
H101 H 0.08515 0.69 0.17577 0.0
H102 H 0.15434 0.64235 0.1949 0.0
N103 N 0.10204 0.60834 0.22066 0.0
N104 N 0.10857 0.56716 0.23222 0.0
C105 C 0.10357 0.59033 0.24714 0.0
C106 C 0.10606 0.59625 0.18796 0.0
C107 C 0.10998 0.57091 0.19492 0.0
C108 C 0.03854 0.66507 0.21002 0.0
O109 O 0.04832 0.68438 0.22937 0.0
H110 H 0.10033 0.59408 0.27661 0.0
H111 H 0.10493 0.60513 0.16081 0.0
O112 O 0.09416 0.65333 0.2776 0.0
H113 H 0.16934 0.67626 0.14387 0.0
H114 H 0.11208 0.55628 0.17386 0.0
Cu115 Cu 0.65378 0.83269 0.51024 0.0
N116 N 0.62955 0.84047 0.54985 0.0
N117 N 0.61396 0.85257 0.60621 0.0
C118 C 0.63684 0.84873 0.58422 0.0
C119 C 0.59144 0.84666 0.5846 0.0
C120 C 0.60114 0.83906 0.54997 0.0
O121 O 0.69165 0.84471 0.52263 0.0
C122 C 0.62226 0.86432 0.46019 0.0
O123 O 0.61864 0.8793 0.48921 0.0
H124 H 0.65852 0.85171 0.59299 0.0
H125 H 0.58841 0.83324 0.52631 0.0
N126 N 0.65499 0.79775 0.5044 0.0
N127 N 0.64558 0.75953 0.48033 0.0
C128 C 0.63688 0.78376 0.48386 0.0
C129 C 0.67589 0.78198 0.51436 0.0
C130 C 0.67023 0.75843 0.49944 0.0
C131 C 0.71308 0.84172 0.50153 0.0
O132 O 0.70937 0.8322 0.46787 0.0
H133 H 0.61828 0.79154 0.47057 0.0
H134 H 0.69469 0.78758 0.52954 0.0
O135 O 0.63838 0.84521 0.46334 0.0
H136 H 0.56948 0.84832 0.59277 0.0
H137 H 0.68426 0.74231 0.50056 0.0
Cu138 Cu 0.43286 0.39726 0.73673 0.0
N139 N 0.41338 0.37591 0.70372 0.0
N140 N 0.40742 0.3454 0.66072 0.0
C141 C 0.42456 0.36394 0.6738 0.0
C142 C 0.38421 0.34634 0.68273 0.0
C143 C 0.38802 0.36504 0.7093 0.0
O144 O 0.47202 0.39569 0.72165 0.0
C145 C 0.4401 0.39234 0.81603 0.0
O146 O 0.45808 0.41121 0.81325 0.0
H147 H 0.44532 0.36817 0.66279 0.0
H148 H 0.37414 0.36927 0.73254 0.0
N149 N 0.42066 0.43081 0.73198 0.0
N150 N 0.41298 0.47199 0.74369 0.0
C151 C 0.41825 0.44892 0.75855 0.0
C152 C 0.41684 0.44277 0.6993 0.0
C153 C 0.41222 0.46807 0.70634 0.0
C154 C 0.48555 0.37492 0.72055 0.0
O155 O 0.47393 0.35459 0.735 0.0
H156 H 0.42118 0.44541 0.78806 0.0
H157 H 0.41883 0.43391 0.67211 0.0
O158 O 0.42754 0.38422 0.7869 0.0
H159 H 0.36654 0.33331 0.68133 0.0
H160 H 0.41029 0.48259 0.68529 0.0
Cu161 Cu 0.88709 0.20948 0.99302 0.0
N162 N 0.91371 0.20361 0.0305 0.0
N163 N 0.9339 0.19152 0.08403 0.0
C164 C 0.90966 0.19261 0.06402 0.0
C165 C 0.95387 0.20211 0.06207 0.0
C166 C 0.94133 0.20963 0.02919 0.0
O167 O 0.85032 0.19711 1.00976 0.0
C168 C 0.91666 0.1762 0.94311 0.0
O169 O 0.92056 0.16205 0.97276 0.0
H170 H 0.88949 0.18513 0.07314 0.0
H171 H 0.9516 0.2188 1.00583 0.0
N172 N 0.88467 0.24422 0.98562 0.0
N173 N 0.89209 0.28217 0.96022 0.0
C174 C 0.89913 0.25744 0.95982 0.0
C175 C 0.86806 0.26111 1.00325 0.0
C176 C 0.87271 0.28462 0.98773 0.0
C177 C 0.82748 0.20065 0.99169 0.0
O178 O 0.82885 0.21074 0.95823 0.0
H179 H 0.91476 0.24905 0.94149 0.0
H180 H 0.85345 0.25657 1.02554 0.0
O181 O 0.90106 0.19572 0.94581 0.0
H182 H 0.97594 0.20446 0.06945 0.0
H183 H 0.86234 0.30209 0.99566 0.0
Cu184 Cu 0.9818 0.64242 0.73807 0.0
N185 N 0.95459 0.65905 0.70913 0.0
N186 N 0.93311 0.68526 0.66955 0.0
C187 C 0.95749 0.67967 0.68735 0.0
C188 C 0.91422 0.66773 0.68054 0.0
C189 C 0.92742 0.65175 0.70513 0.0
O190 O 1.01894 0.64695 0.71475 0.0
C191 C 0.95528 0.65475 0.80628 0.0
O192 O 0.9345 0.64241 0.79004 0.0
H193 H 0.97707 0.69007 0.68403 0.0
H194 H 0.9179 0.63566 0.71884 0.0
N195 N 0.97355 0.60763 0.73554 0.0
N196 N 0.97289 0.56574 0.74458 0.0
C197 C 0.98178 0.58845 0.75787 0.0
C198 C 0.95967 0.59648 0.70698 0.0
C199 C 0.95906 0.57079 0.71258 0.0
C200 C 0.03329 0.66737 0.71407 0.0
O201 O 0.02368 0.68726 0.73214 0.0
H202 H 0.99452 0.591 0.78276 0.0
H203 H 0.95155 0.60624 0.68278 0.0
O204 O 0.97903 0.65596 0.78931 0.0
H205 H 0.89236 0.66673 0.67157 0.0
H206 H 0.95042 0.55679 0.69355 0.0
Cu207 Cu 0.12552 0.21452 0.51974 0.0
N208 N 0.09758 0.19691 0.494 0.0
N209 N 0.07204 0.18006 0.44783 0.0
C210 C 0.09186 0.19737 0.45712 0.0
C211 C 0.06477 0.16861 0.48009 0.0
C212 C 0.08068 0.17898 0.50851 0.0
O213 O 0.12782 0.24872 0.50075 0.0
C214 C 0.12519 0.19598 0.59379 0.0
O215 O 0.14353 0.17983 0.57995 0.0
H216 H 0.10244 0.20968 0.43743 0.0
H217 H 0.08028 0.1736 0.53765 0.0
N218 N 0.1597 0.19828 0.50916 0.0
N219 N 0.20548 0.18841 0.50487 0.0
C220 C 0.18635 0.20521 0.51801 0.0
C221 C 0.16219 0.17666 0.48943 0.0
C222 C 0.19036 0.17052 0.48674 0.0
C223 C 0.10601 0.26199 0.49404 0.0
O224 O 0.08096 0.25284 0.50246 0.0
H225 H 0.19156 0.22189 0.5343 0.0
H226 H 0.14467 0.16607 0.47777 0.0
O227 O 0.11563 0.21341 0.57286 0.0
H228 H 0.04883 0.15402 0.48299 0.0
H229 H 0.19908 0.15422 0.47241 0.0
Cu230 Cu 0.5521 0.3901 0.25397 0.0
N231 N 0.5852 0.38089 0.22935 0.0
N232 N 0.61577 0.35918 0.19407 0.0
C233 C 0.59039 0.35894 0.21147 0.0
C234 C 0.62676 0.38232 0.20112 0.0
C235 C 0.60789 0.39562 0.22299 0.0
O236 O 0.52148 0.3709 0.23027 0.0
C237 C 0.5682 0.36369 0.32016 0.0
O238 O 0.57295 0.34493 0.29679 0.0
H239 H 0.57563 0.34326 0.21083 0.0
H240 H 0.61008 0.41497 0.23255 0.0
N241 N 0.54674 0.4245 0.24437 0.0
N242 N 0.54806 0.46672 0.24806 0.0
C243 C 0.55285 0.44469 0.2661 0.0
C244 C 0.53783 0.43408 0.21165 0.0
C245 C 0.53835 0.46006 0.21393 0.0
C246 C 0.49662 0.37935 0.22436 0.0
O247 O 0.48908 0.40088 0.23987 0.0
H248 H 0.56133 0.44326 0.29413 0.0
H249 H 0.53158 0.42286 0.18766 0.0
O250 O 0.55756 0.38413 0.30756 0.0
H251 H 0.6464 0.38963 0.18994 0.0
H252 H 0.53179 0.47299 0.19224 0.0
Cu253 Cu 0.41428 0.82317 0.03702 0.0
N254 N 0.426 0.84599 1.00039 0.0
N255 N 0.45062 0.86428 0.95456 0.0
C256 C 0.44966 0.84519 0.97947 0.0
C257 C 0.4266 0.87755 0.95988 0.0
C258 C 0.41146 0.86621 0.98818 0.0
O259 O 0.41262 0.78956 1.01445 0.0
C260 C 0.44593 0.84747 0.09335 0.0
O261 O 0.43888 0.86746 0.07377 0.0
H262 H 0.4659 0.83096 0.98239 0.0
H263 H 0.39104 0.87205 0.99873 0.0
N264 N 0.37755 0.83179 0.05077 0.0
N265 N 0.33076 0.83713 0.04787 0.0
C266 C 0.35388 0.82749 0.03081 0.0
C267 C 0.36921 0.84438 0.0816 0.0
C268 C 0.34032 0.84763 0.07995 0.0
C269 C 0.43411 0.77725 1.00317 0.0
O270 O 0.45948 0.78615 1.01046 0.0
H271 H 0.35372 0.81729 1.00452 0.0
H272 H 0.38318 0.85097 0.10353 0.0
O273 O 0.43829 0.8257 0.08147 0.0
H274 H 0.42006 0.89381 0.94379 0.0
H275 H 0.32741 0.85738 0.10043 0.0
Cu276 Cu 1.00041 0.38875 0.80111 0.0
N277 N 0.96982 0.38179 0.83275 0.0
N278 N 0.93959 0.36135 0.87015 0.0
C279 C 0.96077 0.3591 0.84498 0.0
C280 C 0.93508 0.38644 0.87374 0.0
C281 C 0.95367 0.39897 0.85056 0.0
O282 O 0.03481 0.37558 0.82424 0.0
C283 C 0.96893 0.3735 0.73668 0.0
O284 O 0.9477 0.3834 0.75537 0.0
H285 H 0.97019 0.34136 0.83671 0.0
H286 H 0.95578 0.41924 0.84764 0.0
N287 N 1.00606 0.42383 0.80086 0.0
N288 N 1.00295 0.46579 0.79312 0.0
C289 C 0.99339 0.44273 0.78188 0.0
C290 C 0.02405 0.43532 0.82462 0.0
C291 C 0.02227 0.46101 0.8199 0.0
C292 C 0.03946 0.35283 0.83381 0.0
O293 O 0.02133 0.33507 0.82448 0.0
H294 H 0.97763 0.43957 0.76043 0.0
H295 H 0.03716 0.42561 0.84473 0.0
O296 O 0.99363 0.37443 0.7511 0.0
H297 H 0.91976 0.39512 0.89225 0.0
H298 H 0.03381 0.47514 0.83575 0.0
Cu299 Cu 0.40673 0.212 0.5359 0.0
N300 N 0.42947 0.19144 0.56608 0.0
N301 N 0.45961 0.17757 0.6097 0.0
C302 C 0.45051 0.19776 0.58987 0.0
C303 C 0.44374 0.15793 0.59763 0.0
C304 C 0.42534 0.16648 0.57092 0.0
O305 O 0.40609 0.24631 0.55587 0.0
C306 C 0.42318 0.18824 0.46838 0.0
O307 O 0.41489 0.16807 0.48666 0.0
H308 H 0.45892 0.21668 0.59245 0.0
H309 H 0.40924 0.15537 0.55697 0.0
N310 N 0.36983 0.19983 0.54209 0.0
N311 N 0.32377 0.19102 0.53739 0.0
C312 C 0.34655 0.20136 0.52031 0.0
C313 C 0.36108 0.18886 0.57399 0.0
C314 C 0.33286 0.18324 0.57108 0.0
C315 C 0.42708 0.26114 0.56008 0.0
O316 O 0.45205 0.25434 0.54751 0.0
H317 H 0.34619 0.21003 0.49295 0.0
H318 H 0.3742 0.18582 0.5983 0.0
O319 O 0.42014 0.20985 0.48394 0.0
H320 H 0.44478 0.13876 0.60806 0.0
H321 H 0.31973 0.17487 0.59255 0.0
Cu322 Cu 0.55534 0.64366 0.30838 0.0
N323 N 0.58346 0.66025 0.33584 0.0
N324 N 0.60706 0.68409 0.37692 0.0
C325 C 0.58169 0.67927 0.36102 0.0
C326 C 0.6254 0.66779 0.36109 0.0
C327 C 0.61081 0.65318 0.3357 0.0
O328 O 0.51786 0.6492 0.32993 0.0
C329 C 0.56949 0.67296 0.24368 0.0
O330 O 0.57323 0.69147 0.26782 0.0
H331 H 0.56225 0.68887 0.36833 0.0
H332 H 0.61936 0.63802 0.31876 0.0
N333 N 0.56201 0.60914 0.31473 0.0
N334 N 0.56286 0.56717 0.30703 0.0
C335 C 0.5568 0.58972 0.29115 0.0
C336 C 0.5715 0.59854 0.34646 0.0
C337 C 0.57204 0.5727 0.34182 0.0
C338 C 0.50435 0.66975 0.33478 0.0
O339 O 0.51514 0.69096 0.32207 0.0
H340 H 0.54784 0.59204 0.26353 0.0
H341 H 0.57715 0.60892 0.37151 0.0
O342 O 0.55995 0.6518 0.25531 0.0
H343 H 0.64773 0.66657 0.36755 0.0
H344 H 0.57856 0.559 0.3625 0.0
Cu345 Cu 0.13227 0.8222 1.01847 0.0
N346 N 0.12098 0.84518 0.05495 0.0
N347 N 0.09833 0.86161 0.10423 0.0
C348 C 0.10735 0.84023 0.08713 0.0
C349 C 0.10681 0.88066 0.08173 0.0
C350 C 0.12086 0.87047 0.05153 0.0
O351 O 0.13531 0.78903 0.04105 0.0
C352 C 0.1092 0.81811 0.94448 0.0
O353 O 0.13278 0.80622 0.93618 0.0
H354 H 0.10299 0.82128 0.09684 0.0
H355 H 0.12885 0.88062 0.02753 0.0
N356 N 0.16788 0.832 1.00177 0.0
N357 N 0.21473 0.83741 1.00028 0.0
C358 C 0.19286 0.82538 1.01683 0.0
C359 C 0.17401 0.8489 0.97496 0.0
C360 C 0.20292 0.85231 0.97397 0.0
C361 C 0.11432 0.7757 0.0513 0.0
O362 O 0.08861 0.78341 0.04338 0.0
H363 H 0.19486 0.81242 0.04003 0.0
H364 H 0.15845 0.85872 0.95829 0.0
O365 O 0.10478 0.82474 0.97821 0.0
H366 H 0.10138 0.90041 0.0851 0.0
H367 H 0.21416 0.86565 0.95654 0.0
Cu368 Cu 0.59516 0.90025 0.83197 0.0
N369 N 0.61667 0.87772 0.86076 0.0
N370 N 0.62597 0.8455 0.8995 0.0
C371 C 0.60662 0.86258 0.88803 0.0
C372 C 0.64923 0.85024 0.87868 0.0
C373 C 0.64344 0.8701 0.85491 0.0
O374 O 0.55731 0.89952 0.85252 0.0
C375 C 0.61521 0.8913 0.7582 0.0
O376 O 0.63791 0.90323 0.77013 0.0
H377 H 0.58514 0.86342 0.89836 0.0
H378 H 0.65724 0.87749 0.83344 0.0
N379 N 0.6088 0.93356 0.83508 0.0
N380 N 0.61706 0.9742 0.82129 0.0
C381 C 0.60852 0.9514 0.80816 0.0
C382 C 0.61769 0.94554 0.86622 0.0
C383 C 0.6227 0.97062 0.85784 0.0
C384 C 0.54238 0.87953 0.85038 0.0
O385 O 0.55214 0.86014 0.83123 0.0
H386 H 0.60106 0.94799 0.77996 0.0
H387 H 0.61952 0.93679 0.8934 0.0
O388 O 0.59438 0.88848 0.78037 0.0
H389 H 0.66843 0.83914 0.87873 0.0
H390 H 0.62961 0.98518 0.87718 0.0
Cu391 Cu 0.38182 0.32914 0.05494 0.0
N392 N 0.40342 0.32911 1.01119 0.0
N393 N 0.4208 0.34006 0.95547 0.0
C394 C 0.40592 0.34772 0.98573 0.0
C395 C 0.4278 0.31578 0.96212 0.0
C396 C 0.41713 0.3091 0.99653 0.0
O397 O 0.34488 0.3431 0.04226 0.0
C398 C 0.42805 0.33917 0.10119 0.0
O399 O 0.43946 0.32304 0.07761 0.0
H400 H 0.39584 0.366 0.98848 0.0
H401 H 0.41846 0.29069 1.00948 0.0
N402 N 0.37558 0.29562 0.06877 0.0
N403 N 0.37926 0.25842 0.0975 0.0
C404 C 0.3897 0.28206 0.09447 0.0
C405 C 0.3556 0.27996 0.05503 0.0
C406 C 0.3578 0.25693 0.07276 0.0
C407 C 0.32327 0.34046 0.06316 0.0
O408 O 0.32671 0.33151 0.09707 0.0
H409 H 0.40707 0.28934 0.11099 0.0
H410 H 0.34056 0.28496 0.03352 0.0
O411 O 0.40249 0.34601 0.09569 0.0
H412 H 0.43929 0.3036 0.94304 0.0
H413 H 0.34506 0.24028 0.06735 0.0
Cu414 Cu 0.94784 0.14335 0.30942 0.0
N415 N 0.93017 0.16423 0.3449 0.0
N416 N 0.92514 0.19337 0.39014 0.0
C417 C 0.94322 0.1779 0.37184 0.0
C418 C 0.89958 0.18883 0.37461 0.0
C419 C 0.90278 0.17095 0.34663 0.0
O420 O 0.98768 0.14438 0.32104 0.0
C421 C 0.95548 0.15072 0.23155 0.0
O422 O 0.97812 0.13678 0.23665 0.0
H423 H 0.9656 0.17673 0.37767 0.0
H424 H 0.88649 0.164 0.32798 0.0
N425 N 0.93606 0.10977 0.31449 0.0
N426 N 0.93075 0.06845 0.30274 0.0
C427 C 0.93605 0.09149 0.28804 0.0
C428 C 0.93059 0.09787 0.3469 0.0
C429 C 0.92741 0.07236 0.33976 0.0
C430 C 1.00209 0.16467 0.31994 0.0
O431 O 0.99095 0.1847 0.30408 0.0
H432 H 0.94147 0.09476 0.25905 0.0
H433 H 0.93032 0.10699 0.37404 0.0
O434 O 0.93975 0.15573 0.25946 0.0
H435 H 0.88019 0.19856 0.38184 0.0
H436 H 0.9237 0.05772 0.36027 0.0
Cu437 Cu 0.15349 0.70633 0.55036 0.0
N438 N 0.1339 0.69064 0.51099 0.0
N439 N 0.11989 0.67838 0.45393 0.0
C440 C 0.14148 0.68759 0.47482 0.0
C441 C 0.09814 0.67531 0.4779 0.0
C442 C 0.10673 0.68311 0.51281 0.0
O443 O 0.19469 0.70231 0.54678 0.0
C444 C 0.12609 0.67481 0.60611 0.0
O445 O 0.12987 0.65579 0.58288 0.0
H446 H 0.16194 0.69298 0.46377 0.0
H447 H 0.09374 0.68397 0.53768 0.0
N448 N 0.14568 0.74077 0.54781 0.0
N449 N 0.13329 0.77937 0.56717 0.0
C450 C 0.14302 0.75646 0.57734 0.0
C451 C 0.13758 0.75427 0.51785 0.0
C452 C 0.12992 0.77818 0.52974 0.0
C453 C 0.20781 0.68288 0.53466 0.0
O454 O 0.19321 0.66264 0.52538 0.0
H455 H 0.1468 0.7508 0.60597 0.0
H456 H 0.13634 0.74694 0.48961 0.0
O457 O 0.13685 0.69624 0.59821 0.0
H458 H 0.07739 0.6681 0.47068 0.0
H459 H 0.12209 0.79335 0.51236 0.0
Cu460 Cu 0.6025 0.1445 0.73389 0.0
N461 N 0.62372 0.16458 0.70112 0.0
N462 N 0.63235 0.19488 0.65886 0.0
C463 C 0.61361 0.17759 0.67162 0.0
C464 C 0.65528 0.19237 0.68109 0.0
C465 C 0.6499 0.17371 0.70701 0.0
O466 O 0.56361 0.148 0.71833 0.0
C467 C 0.5962 0.14927 0.81353 0.0
O468 O 0.57832 0.1303 0.81089 0.0
H469 H 0.59232 0.17542 0.661 0.0
H470 H 0.66326 0.16854 0.73031 0.0
N471 N 0.61207 0.11016 0.72929 0.0
N472 N 0.61789 0.06886 0.74177 0.0
C473 C 0.61617 0.09261 0.75613 0.0
C474 C 0.61114 0.09711 0.69699 0.0
C475 C 0.61457 0.07179 0.7045 0.0
C476 C 0.55128 0.16932 0.71624 0.0
O477 O 0.56395 0.18945 0.73 0.0
H478 H 0.61692 0.09707 0.78566 0.0
H479 H 0.60656 0.10535 0.67003 0.0
O480 O 0.60826 0.15753 0.7842 0.0
H481 H 0.67373 0.20451 0.68077 0.0
H482 H 0.61281 0.05667 0.68416 0.0
Cu483 Cu 0.15193 0.31594 1.00897 0.0
N484 N 0.13345 0.31524 0.055 0.0
N485 N 0.11634 0.32754 0.11037 0.0
C486 C 0.12866 0.33496 0.07813 0.0
C487 C 0.11342 0.30222 0.10742 0.0
C488 C 0.12387 0.2947 0.07316 0.0
O489 O 0.18803 0.33303 1.01765 0.0
C490 C 0.13168 0.33525 0.93864 0.0
O491 O 0.15766 0.33262 0.92622 0.0
H492 H 0.13503 0.35418 0.07202 0.0
H493 H 0.12496 0.27554 0.06251 0.0
N494 N 0.15795 0.28266 0.99348 0.0
N495 N 0.15132 0.24585 0.96385 0.0
C496 C 0.14276 0.27006 0.96757 0.0
C497 C 0.17667 0.26584 1.00688 0.0
C498 C 0.17256 0.24304 0.98869 0.0
C499 C 0.21071 0.32858 0.99958 0.0
O500 O 0.20956 0.31423 0.96953 0.0
H501 H 0.12514 0.27828 0.9527 0.0
H502 H 0.19189 0.26982 0.02872 0.0
O503 O 0.12623 0.33112 0.97294 0.0
H504 H 0.10456 0.29003 0.12869 0.0
H505 H 0.18421 0.22573 0.99341 0.0
Cu506 Cu 0.95689 0.89732 0.22324 0.0
N507 N 0.93641 0.87596 0.19101 0.0
N508 N 0.92701 0.84696 0.14674 0.0
C509 C 0.94699 0.86168 0.1629 0.0
C510 C 0.90288 0.85224 0.16542 0.0
C511 C 0.90872 0.87015 0.19256 0.0
O512 O 0.99623 0.89428 0.20939 0.0
C513 C 0.9301 0.89125 0.29398 0.0
O514 O 0.90889 0.90309 0.2781 0.0
H515 H 0.96903 0.86174 0.15475 0.0
H516 H 0.89401 0.87778 0.21281 0.0
N517 N 0.94617 0.93108 0.21666 0.0
N518 N 0.93773 0.97225 0.2272 0.0
C519 C 0.94302 0.9494 0.24273 0.0
C520 C 0.94305 0.94268 0.18358 0.0
C521 C 0.93798 0.968 0.18991 0.0
C522 C 1.00852 0.87295 0.211 0.0
O523 O 0.9948 0.8535 0.2249 0.0
H524 H 0.94513 0.9461 0.27244 0.0
H525 H 0.94542 0.9335 0.15667 0.0
O526 O 0.95233 0.88686 0.27497 0.0
H527 H 0.88271 0.84295 0.16108 0.0
H528 H 0.93612 0.98226 0.16847 0.0
Cu529 Cu 0.38554 0.70706 0.49757 0.0
N530 N 0.40773 0.69247 0.53498 0.0
N531 N 0.42428 0.67702 0.58883 0.0
C532 C 0.4011 0.68495 0.56994 0.0
C533 C 0.44607 0.67971 0.56481 0.0
C534 C 0.43586 0.68937 0.53191 0.0
O535 O 0.34474 0.70327 0.50595 0.0
C536 C 0.41155 0.67468 0.44248 0.0
O537 O 0.41017 0.65696 0.46806 0.0
H538 H 0.37985 0.68534 0.58119 0.0
H539 H 0.44818 0.69428 0.50748 0.0
N540 N 0.39341 0.74151 0.49796 0.0
N541 N 0.40638 0.77937 0.47657 0.0
C542 C 0.39966 0.75532 0.46759 0.0
C543 C 0.39612 0.75733 0.52732 0.0
C544 C 0.40409 0.78083 0.51416 0.0
C545 C 0.33069 0.68277 0.50871 0.0
O546 O 0.34392 0.66108 0.50481 0.0
H547 H 0.39993 0.74769 0.43944 0.0
H548 H 0.39286 0.75206 0.55619 0.0
O549 O 0.39949 0.6958 0.44875 0.0
H550 H 0.46801 0.67564 0.57101 0.0
H551 H 0.40761 0.79766 0.53087 0.0
Cu552 Cu 0.48751 0.15093 0.25204 0.0
N553 N 0.45441 0.15928 0.22701 0.0
N554 N 0.42374 0.1805 0.19162 0.0
C555 C 0.44891 0.18116 0.20945 0.0
C556 C 0.41317 0.15717 0.19806 0.0
C557 C 0.43213 0.14415 0.22001 0.0
O558 O 0.51772 0.1705 0.2285 0.0
C559 C 0.47068 0.17796 0.31751 0.0
O560 O 0.46607 0.1964 0.29379 0.0
H561 H 0.4633 0.19712 0.2094 0.0
H562 H 0.43028 0.12475 0.22921 0.0
N563 N 0.49392 0.11661 0.24282 0.0
N564 N 0.49359 0.07442 0.2467 0.0
C565 C 0.48749 0.09649 0.26423 0.0
C566 C 0.50436 0.10697 0.2108 0.0
C567 C 0.50448 0.08102 0.21324 0.0
C568 C 0.54294 0.16266 0.22349 0.0
O569 O 0.55108 0.14179 0.24009 0.0
H570 H 0.4779 0.09798 0.29165 0.0
H571 H 0.51127 0.11813 0.18721 0.0
O572 O 0.48157 0.15742 0.3054 0.0
H573 H 0.39379 0.14958 0.18646 0.0
H574 H 0.51232 0.06808 0.19214 0.0
Cu575 Cu 0.62442 0.70898 1.02254 0.0
N576 N 0.59771 0.69031 0.99527 0.0
N577 N 0.57123 0.67428 0.94911 0.0
C578 C 0.59119 0.69151 0.95856 0.0
C579 C 0.56477 0.6621 0.98102 0.0
C580 C 0.58111 0.67194 1.0093 0.0
O581 O 0.62685 0.74356 1.00354 0.0
C582 C 0.61608 0.68642 0.09302 0.0
O583 O 0.62845 0.66737 0.07591 0.0
H584 H 0.60072 0.70476 0.93927 0.0
H585 H 0.58047 0.66629 0.03826 0.0
N586 N 0.6599 0.69433 1.01445 0.0
N587 N 0.70693 0.68921 1.01209 0.0
C588 C 0.68515 0.70209 0.02777 0.0
C589 C 0.66582 0.67601 0.98946 0.0
C590 C 0.69471 0.67286 0.98783 0.0
C591 C 0.60633 0.75589 0.98951 0.0
O592 O 0.58086 0.74591 0.99016 0.0
H593 H 0.68746 0.71737 0.04778 0.0
H594 H 0.65026 0.66646 0.97226 0.0
O595 O 0.61363 0.70732 0.07557 0.0
H596 H 0.54857 0.64775 0.984 0.0
H597 H 0.70574 0.66049 0.96862 0.0
Cu598 Cu 0.05431 0.88812 0.75028 0.0
N599 N 0.08197 0.87968 0.71524 0.0
N600 N 0.10522 0.85838 0.67085 0.0
C601 C 0.08053 0.86109 0.68942 0.0
C602 C 0.12288 0.8758 0.68566 0.0
C603 C 0.10843 0.889 0.71294 0.0
O604 O 1.01818 0.88969 0.72427 0.0
C605 C 0.04885 0.86714 0.82308 0.0
O606 O 0.03481 0.88801 0.83042 0.0
H607 H 0.06223 0.84904 0.68557 0.0
H608 H 0.11689 0.90382 0.73064 0.0
N609 N 0.06324 0.91966 0.77095 0.0
N610 N 0.06422 0.96115 0.78363 0.0
C611 C 0.05111 0.94229 0.76458 0.0
C612 C 0.0847 0.9243 0.79466 0.0
C613 C 0.0855 0.94982 0.80234 0.0
C614 C 1.00351 0.87026 0.71601 0.0
O615 O 1.0115 0.8481 0.72868 0.0
H616 H 0.03332 0.94488 0.74594 0.0
H617 H 0.09927 0.91013 0.80476 0.0
O618 O 0.05677 0.8629 0.78963 0.0
H619 H 0.14479 0.87845 0.67776 0.0
H620 H 0.10146 0.95933 0.81892 0.0
Cu621 Cu 0.91398 0.31999 0.52365 0.0
N622 N 0.93621 0.34212 0.49571 0.0
N623 N 0.95991 0.36012 0.44881 0.0
C624 C 0.94418 0.3401 0.45963 0.0
C625 C 0.96187 0.37523 0.47922 0.0
C626 C 0.94705 0.36418 0.50796 0.0
O627 O 0.92123 0.28495 0.50932 0.0
C628 C 0.94531 0.32759 0.58993 0.0
O629 O 0.96605 0.32055 0.56777 0.0
H630 H 0.93878 0.32421 0.44179 0.0
H631 H 0.94465 0.37153 0.53606 0.0
N632 N 0.87676 0.32516 0.50832 0.0
N633 N 0.83013 0.33117 0.50481 0.0
C634 C 0.85329 0.33228 0.52703 0.0
C635 C 0.86807 0.3195 0.47344 0.0
C636 C 0.83936 0.32308 0.47121 0.0
C637 C 0.94332 0.27682 0.49286 0.0
O638 O 0.96576 0.29144 0.49114 0.0
H639 H 0.85299 0.33723 0.55644 0.0
H640 H 0.88172 0.31257 0.45139 0.0
O641 O 0.92017 0.3275 0.57686 0.0
H642 H 0.97407 0.39254 0.48104 0.0
H643 H 0.82617 0.31978 0.44692 0.0
Cu644 Cu 0.49082 0.8983 0.30891 0.0
N645 N 0.46162 0.88056 0.33196 0.0
N646 N 0.43691 0.85515 0.36949 0.0
C647 C 0.46288 0.86388 0.36027 0.0
C648 C 0.4188 0.8667 0.34596 0.0
C649 C 0.43409 0.88242 0.32298 0.0
O650 O 0.52595 0.89349 0.33645 0.0
C651 C 0.48601 0.86599 0.24553 0.0
O652 O 0.48209 0.84858 0.2711 0.0
H653 H 0.48243 0.85788 0.37316 0.0
H654 H 0.4258 0.89439 0.30114 0.0
N655 N 0.48185 0.93249 0.31363 0.0
N656 N 0.47932 0.97425 0.30523 0.0
C657 C 0.48794 0.95189 0.29067 0.0
C658 C 0.46906 0.9429 0.34356 0.0
C659 C 0.46753 0.96865 0.33852 0.0
C660 C 0.53997 0.87308 0.33927 0.0
O661 O 0.53166 0.85301 0.32049 0.0
H662 H 0.49927 0.94976 0.26453 0.0
H663 H 0.46181 0.93246 0.3677 0.0
O664 O 0.49176 0.88853 0.25606 0.0
H665 H 0.39608 0.86404 0.34555 0.0
H666 H 0.45854 0.98225 0.35787 0.0
Cu667 Cu 0.90926 0.71662 1.01941 0.0
N668 N 0.93091 0.69419 0.04763 0.0
N669 N 0.95625 0.67652 0.09333 0.0
C670 C 0.94071 0.69673 0.08286 0.0
C671 C 0.95604 0.66071 0.06359 0.0
C672 C 0.94023 0.67154 0.03567 0.0
O673 O 0.91797 0.75185 0.03164 0.0
C674 C 0.93812 0.70523 0.95137 0.0
O675 O 0.96061 0.71122 0.97113 0.0
H676 H 0.93691 0.71319 0.10025 0.0
H677 H 0.93634 0.66373 1.00814 0.0
N678 N 0.87175 0.71334 0.0351 0.0
N679 N 0.82484 0.70887 0.03842 0.0
C680 C 0.8483 0.70478 1.01753 0.0
C681 C 0.86271 0.72294 0.06789 0.0
C682 C 0.83384 0.72032 0.06996 0.0
C683 C 0.93981 0.76052 0.04819 0.0
O684 O 0.96199 0.74588 0.05232 0.0
H685 H 0.84823 0.69676 0.98962 0.0
H686 H 0.87623 0.73201 0.08836 0.0
O687 O 0.91376 0.7077 0.96641 0.0
H688 H 0.96759 0.64311 0.0614 0.0
H689 H 0.82037 0.72665 0.09263 0.0
Cu690 Cu 0.04822 0.14335 0.79108 0.0
N691 N 0.07442 0.14839 0.82952 0.0
N692 N 0.1017 0.16847 0.87126 0.0
C693 C 0.0807 0.17069 0.84587 0.0
C694 C 0.10856 0.14368 0.87116 0.0
C695 C 0.09178 0.13136 0.84529 0.0
O696 O 1.01077 0.14698 0.81328 0.0
C697 C 0.0837 0.16654 0.74057 0.0
O698 O 0.10149 0.15321 0.76065 0.0
H699 H 0.06989 0.18812 0.83928 0.0
H700 H 0.09252 0.1115 0.83803 0.0
N701 N 0.0517 0.11063 0.77139 0.0
N702 N 0.05362 0.06856 0.76435 0.0
C703 C 0.04879 0.08801 0.78833 0.0
C704 C 0.0582 0.10529 0.73561 0.0
C705 C 0.05946 0.07951 0.73121 0.0
C706 C 1.00034 0.16794 0.82413 0.0
O707 O 1.01356 0.18904 0.81569 0.0
H708 H 0.04295 0.08601 0.81741 0.0
H709 H 0.06196 0.11923 0.71413 0.0
O710 O 0.05764 0.16637 0.75 0.0
H711 H 0.12498 0.13516 0.888 0.0
H712 H 0.06486 0.06959 0.70565 0.0
Cu713 Cu 0.63002 0.33181 0.54026 0.0
N714 N 0.6073 0.35242 0.57065 0.0
N715 N 0.57723 0.36676 0.61416 0.0
C716 C 0.5868 0.34623 0.59526 0.0
C717 C 0.59222 0.38647 0.60078 0.0
C718 C 0.61065 0.37761 0.57418 0.0
O719 O 0.6315 0.29739 0.5597 0.0
C720 C 0.61417 0.35495 0.47204 0.0
O721 O 0.6231 0.37525 0.4897 0.0
H722 H 0.57903 0.32721 0.59911 0.0
H723 H 0.62619 0.38872 0.55931 0.0
N724 N 0.6669 0.34415 0.54603 0.0
N725 N 0.71391 0.34892 0.5427 0.0
C726 C 0.69034 0.34009 0.52535 0.0
C727 C 0.67606 0.35551 0.57754 0.0
C728 C 0.70484 0.3585 0.57559 0.0
C729 C 0.61116 0.28204 0.56524 0.0
O730 O 0.58534 0.28853 0.55578 0.0
H731 H 0.69027 0.32991 0.49902 0.0
H732 H 0.66293 0.3598 0.60149 0.0
O733 O 0.6165 0.33357 0.48824 0.0
H734 H 0.59044 0.4059 0.61015 0.0
H735 H 0.71819 0.36547 0.59795 0.0
C736 C 0.10934 0.34866 0.2104 0.0
C737 C 0.09597 0.37236 0.20736 0.0
C738 C 0.1158 0.33415 0.17864 0.0
C739 C 0.10962 0.34292 0.14252 0.0
H740 H 0.11452 0.34101 0.2376 0.0
H741 H 0.12599 0.31601 0.18232 0.0
S742 S 0.075 0.40363 0.11885 0.0
N743 N 0.07685 0.40392 0.16498 0.0
N744 N 0.08937 0.37664 0.10532 0.0
C745 C 0.09656 0.36663 0.13891 0.0
C746 C 0.0896 0.38132 0.17131 0.0
C747 C 0.94813 0.86575 0.34785 0.0
C748 C 0.92841 0.8832 0.33373 0.0
C749 C 0.9473 0.85794 0.38527 0.0
C750 C 0.92675 0.86727 0.41023 0.0
H751 H 0.96433 0.85787 0.32982 0.0
H752 H 0.96273 0.84426 0.39463 0.0
S753 S 0.87139 0.9146 0.38821 0.0
N754 N 0.88823 0.91026 0.34825 0.0
N755 N 0.88704 0.89587 0.41863 0.0
C756 C 0.90705 0.8849 0.39666 0.0
C757 C 0.9078 0.8928 0.35846 0.0
C758 C 0.45082 0.64157 0.67261 0.0
C759 C 0.43613 0.65282 0.70261 0.0
C760 C 0.44615 0.6491 0.63562 0.0
C761 C 0.42654 0.66815 0.62685 0.0
H762 H 0.46635 0.62694 0.67763 0.0
H763 H 0.45819 0.64001 0.61359 0.0
S764 S 0.38228 0.70367 0.69465 0.0
N765 N 0.40064 0.68392 0.72075 0.0
N766 N 0.3922 0.69814 0.65111 0.0
C767 C 0.41124 0.67928 0.65633 0.0
C768 C 0.41599 0.67164 0.69419 0.0
C769 C 0.61147 0.18702 0.85083 0.0
C770 C 0.60172 0.16183 0.85005 0.0
C771 C 0.6165 0.19966 0.88471 0.0
C772 C 0.61252 0.18751 0.9192 0.0
H773 H 0.61491 0.19724 0.82502 0.0
H774 H 0.62389 0.21906 0.88397 0.0
S775 S 0.58766 0.12168 0.93295 0.0
N776 N 0.58836 0.12517 0.88707 0.0
N777 N 0.59832 0.14897 0.95075 0.0
C778 C 0.6031 0.16229 0.91898 0.0
C779 C 0.59752 0.14948 0.88443 0.0
C780 C 0.14177 0.65509 0.35855 0.0
C781 C 0.11773 0.66013 0.33643 0.0
C782 C 0.14266 0.66167 0.39667 0.0
C783 C 0.11952 0.67341 0.41421 0.0
H784 H 0.15994 0.64561 0.34656 0.0
H785 H 0.16127 0.65692 0.41281 0.0
S786 S 0.05283 0.69337 0.36838 0.0
N787 N 0.07099 0.67939 0.33475 0.0
N788 N 0.07288 0.69178 0.40607 0.0
C789 C 0.09576 0.67932 0.39227 0.0
C790 C 0.09482 0.67268 0.3535 0.0
C791 C 0.63416 0.87962 0.65613 0.0
C792 C 0.61377 0.8619 0.64426 0.0
C793 C 0.63436 0.88904 0.69288 0.0
C794 C 0.61415 0.88115 0.71935 0.0
H795 H 0.64991 0.88654 0.63669 0.0
H796 H 0.65043 0.90277 0.70045 0.0
S797 S 0.55739 0.83365 0.7032 0.0
N798 N 0.57375 0.83578 0.66254 0.0
N799 N 0.57377 0.85372 0.73134 0.0
C800 C 0.59375 0.86326 0.70794 0.0
C801 C 0.59364 0.85359 0.67051 0.0
C802 C 0.42113 0.34162 0.88664 0.0
C803 C 0.42548 0.3537 0.92125 0.0
C804 C 0.4256 0.3544 0.8529 0.0
C805 C 0.43515 0.37965 0.85241 0.0
H806 H 0.41387 0.32219 0.88569 0.0
H807 H 0.42189 0.34425 0.82697 0.0
S808 S 0.45005 0.41962 0.93575 0.0
N809 N 0.43982 0.39221 0.95325 0.0
N810 N 0.44878 0.41627 0.88982 0.0
C811 C 0.43975 0.39192 0.88692 0.0
C812 C 0.43471 0.37897 0.92133 0.0
C813 C 0.96343 0.16798 0.12887 0.0
C814 C 0.93821 0.1809 0.12072 0.0
C815 C 0.96859 0.15808 0.16454 0.0
C816 C 0.94884 0.16089 0.19377 0.0
H817 H 0.9793 0.16535 0.10736 0.0
H818 H 0.98842 0.14837 0.16922 0.0
S819 S 0.87947 0.19356 0.18699 0.0
N820 N 0.89332 0.19623 0.1448 0.0
N821 N 0.9028 0.17761 0.21183 0.0
C822 C 0.9234 0.17373 0.18592 0.0
C823 C 0.91812 0.18368 0.14944 0.0
C824 C 0.97303 0.67887 0.86281 0.0
C825 C 0.95038 0.66792 0.84292 0.0
C826 C 0.96876 0.69122 0.89734 0.0
C827 C 0.94161 0.69338 0.91351 0.0
H828 H 0.99436 0.67773 0.85185 0.0
H829 H 0.98706 0.69898 0.91158 0.0
S830 S 0.87481 0.66884 0.87227 0.0
N831 N 0.89944 0.66072 0.84182 0.0
N832 N 0.89157 0.68388 0.9062 0.0
C833 C 0.91869 0.68288 0.89362 0.0
C834 C 0.92303 0.67018 0.85858 0.0
C835 C 0.1322 0.18022 0.65855 0.0
C836 C 0.11464 0.19229 0.63253 0.0
C837 C 0.12219 0.17329 0.69387 0.0
C838 C 0.09393 0.17767 0.70474 0.0
H839 H 0.15383 0.17554 0.65129 0.0
H840 H 0.13669 0.16352 0.71224 0.0
S841 S 0.03964 0.21032 0.64767 0.0
N842 N 0.068 0.20986 0.62066 0.0
N843 N 0.0489 0.19636 0.68705 0.0
C844 C 0.07635 0.1907 0.67954 0.0
C845 C 0.08676 0.19812 0.64349 0.0
C846 C 0.59833 0.33608 0.41048 0.0
C847 C 0.60115 0.35731 0.43408 0.0
C848 C 0.58712 0.33825 0.37414 0.0
C849 C 0.57788 0.36169 0.3599 0.0
H850 H 0.60536 0.31767 0.41981 0.0
H851 H 0.586 0.32136 0.35694 0.0
S852 S 0.57889 0.42293 0.41126 0.0
N853 N 0.5925 0.4025 0.44099 0.0
N854 N 0.57137 0.40645 0.37323 0.0
C855 C 0.57982 0.38295 0.38364 0.0
C856 C 0.59147 0.3808 0.42048 0.0
C857 C 0.47605 0.88012 0.17984 0.0
C858 C 0.47954 0.86026 0.20549 0.0
C859 C 0.46625 0.87559 0.14335 0.0
C860 C 0.45954 0.85098 0.13072 0.0
H861 H 0.4799 0.89952 0.18833 0.0
H862 H 0.46315 0.89174 0.1253 0.0
S863 S 0.4682 0.79192 0.18534 0.0
N864 N 0.47787 0.81464 0.21449 0.0
N865 N 0.45948 0.8062 0.14605 0.0
C866 C 0.46437 0.83077 0.15541 0.0
C867 C 0.47433 0.83539 0.19268 0.0
C868 C 0.9361 0.3609 0.68428 0.0
C869 C 0.96363 0.36111 0.69957 0.0
C870 C 0.93026 0.34959 0.64942 0.0
C871 C 0.95167 0.33794 0.62809 0.0
H872 H 0.91877 0.36971 0.6992 0.0
H873 H 0.90879 0.35036 0.63892 0.0
S874 S 0.02723 0.33223 0.6559 0.0
N875 N 1.01243 0.34786 0.69082 0.0
N876 N 1.00158 0.32667 0.62564 0.0
C877 C 0.97925 0.33764 0.64329 0.0
C878 C 0.98519 0.34918 0.67883 0.0
C879 C 0.4507 0.20388 0.3706 0.0
C880 C 0.46055 0.18038 0.357 0.0
C881 C 0.43908 0.2064 0.40668 0.0
C882 C 0.43646 0.18547 0.43064 0.0
H883 H 0.45167 0.22052 0.3531 0.0
H884 H 0.43161 0.22484 0.41554 0.0
S885 S 0.46023 0.11989 0.40949 0.0
N886 N 0.4678 0.13592 0.37128 0.0
N887 N 0.44592 0.14054 0.43859 0.0
C888 C 0.44672 0.16195 0.41768 0.0
C889 C 0.45878 0.15944 0.38109 0.0
C890 C 0.58591 0.70024 0.19021 0.0
C891 C 0.57942 0.676 0.20423 0.0
C892 C 0.59734 0.70355 0.15418 0.0
C893 C 0.60328 0.68272 0.13082 0.0
H894 H 0.58233 0.71689 0.20731 0.0
H895 H 0.60208 0.72256 0.14487 0.0
S896 S 0.58922 0.61521 0.15334 0.0
N897 N 0.57896 0.63082 0.19102 0.0
N898 N 0.60064 0.63692 0.1239 0.0
C899 C 0.59648 0.65838 0.14426 0.0
C900 C 0.5845 0.65505 0.18071 0.0
C901 C 0.08262 0.83441 0.84711 0.0
C902 C 0.06039 0.85152 0.85415 0.0
C903 C 0.09729 0.82269 0.87642 0.0
C904 C 0.09032 0.82744 0.91409 0.0
H905 H 0.08975 0.8309 0.81877 0.0
H906 H 0.11499 0.8106 0.86937 0.0
S907 S 0.03094 0.86765 0.94754 0.0
N908 N 0.03008 0.8704 0.90159 0.0
N909 N 0.05743 0.84833 0.95658 0.0
C910 C 0.06682 0.84312 0.92145 0.0
C911 C 0.05195 0.85515 0.89156 0.0
C912 C 0.13863 0.3152 0.43716 0.0
C913 C 0.11537 0.33067 0.42868 0.0
C914 C 0.13548 0.29347 0.45909 0.0
C915 C 0.10891 0.28628 0.47352 0.0
H916 H 0.1593 0.31949 0.42579 0.0
H917 H 0.154 0.28191 0.46396 0.0
S918 S 0.04182 0.32204 0.4629 0.0
N919 N 0.06531 0.33859 0.43908 0.0
N920 N 0.0592 0.29758 0.47981 0.0
C921 C 0.08561 0.30211 0.46633 0.0
C922 C 0.08887 0.32431 0.44402 0.0
C923 C 0.9424 0.85059 0.65285 0.0
C924 C 0.93847 0.8718 0.62969 0.0
C925 C 0.9627 0.85063 0.68151 0.0
C926 C 0.97979 0.87197 0.6886 0.0
H927 H 0.93057 0.83333 0.64789 0.0
H928 H 0.96548 0.83348 0.69754 0.0
S929 S 0.97579 0.93339 0.63866 0.0
N930 N 0.95193 0.91543 0.61772 0.0
N931 N 0.98978 0.91567 0.67171 0.0
C932 C 0.97502 0.8938 0.66697 0.0
C933 C 0.95448 0.89367 0.63752 0.0
C934 C 0.40343 0.7432 0.97523 0.0
C935 C 0.43021 0.75477 0.97833 0.0
C936 C 0.39838 0.72362 0.94939 0.0
C937 C 0.41984 0.71475 0.9254 0.0
H938 H 0.386 0.74958 0.99252 0.0
H939 H 0.37736 0.71551 0.9479 0.0
S940 S 0.49359 0.73903 0.92151 0.0
N941 N 0.47855 0.75579 0.95504 0.0
N942 N 0.46891 0.71947 0.90608 0.0
C943 C 0.44686 0.72587 0.92855 0.0
C944 C 0.45206 0.74572 0.95507 0.0
C945 C 0.60297 0.17177 0.15325 0.0
C946 C 0.59404 0.19269 0.13214 0.0
C947 C 0.58689 0.1628 0.18358 0.0
C948 C 0.56126 0.17444 0.19426 0.0
H949 H 0.6222 0.16184 0.1458 0.0
H950 H 0.59434 0.14617 0.19813 0.0
S951 S 0.52995 0.23158 0.1506 0.0
N952 N 0.5588 0.226 0.12597 0.0
N953 N 0.52886 0.20924 0.18265 0.0
C954 C 0.5527 0.19602 0.17429 0.0
C955 C 0.56898 0.20508 0.14336 0.0
C956 C 0.09886 0.71646 0.1079 0.0
C957 C 0.1248 0.7114 0.12572 0.0
C958 C 0.09586 0.73688 0.0833 0.0
C959 C 0.1187 0.75311 0.07533 0.0
H960 H 0.08065 0.7045 0.11295 0.0
H961 H 0.07535 0.74005 0.07067 0.0
S962 S 0.19106 0.74849 0.11543 0.0
N963 N 0.17362 0.72466 0.13426 0.0
N964 N 0.16829 0.76268 0.08758 0.0
C965 C 0.14492 0.74806 0.0926 0.0
C966 C 0.14789 0.72732 0.11784 0.0
C967 C 0.56706 0.8909 0.39375 0.0
C968 C 0.56342 0.87146 0.36707 0.0
C969 C 0.58691 0.88886 0.42274 0.0
C970 C 0.60424 0.86738 0.42626 0.0
H971 H 0.55378 0.90757 0.39312 0.0
H972 H 0.58809 0.90403 0.44315 0.0
S973 S 0.60518 0.81212 0.36152 0.0
N974 N 0.58034 0.83072 0.34455 0.0
N975 N 0.61775 0.82691 0.39873 0.0
C976 C 0.60182 0.84829 0.3987 0.0
C977 C 0.58141 0.85031 0.36927 0.0
C978 C 0.39634 0.29511 0.58726 0.0
C979 C 0.42348 0.28459 0.58275 0.0
C980 C 0.39156 0.31551 0.61168 0.0
C981 C 0.41365 0.32621 0.6329 0.0
H982 H 0.37844 0.28725 0.57224 0.0
H983 H 0.37024 0.32272 0.61444 0.0
S984 S 0.48874 0.30536 0.63186 0.0
N985 N 0.4729 0.28659 0.60134 0.0
N986 N 0.46388 0.32443 0.64789 0.0
C987 C 0.44108 0.3162 0.62813 0.0
C988 C 0.44599 0.29554 0.60292 0.0
C989 C 0.96175 0.19134 0.85791 0.0
C990 C 0.976 0.16846 0.85072 0.0
C991 C 0.94133 0.19326 0.88635 0.0
C992 C 0.93461 0.17247 0.90927 0.0
H993 H 0.96695 0.20817 0.84215 0.0
H994 H 0.93178 0.21156 0.89152 0.0
S995 S 0.96385 0.10764 0.90006 0.0
N996 N 0.9802 0.12397 0.86724 0.0
N997 N 0.9423 0.12777 0.92096 0.0
C998 C 0.94773 0.14919 0.90132 0.0
C999 C 0.96824 0.14713 0.87199 0.0
C1000 C 0.91386 0.7005 0.61002 0.0
C1001 C 0.92759 0.70555 0.64404 0.0
C1002 C 0.90514 0.72017 0.58662 0.0
C1003 C 0.90933 0.7457 0.59664 0.0
H1004 H 0.90946 0.68115 0.60181 0.0
H1005 H 0.89455 0.7153 0.56073 0.0
S1006 S 0.94398 0.7686 0.6839 0.0
N1007 N 0.94545 0.73746 0.68677 0.0
N1008 N 0.92815 0.7747 0.64379 0.0
C1009 C 0.9236 0.75093 0.63053 0.0
C1010 C 0.93292 0.73077 0.65399 0.0
C1011 C 0.0352 0.1921 0.35689 0.0
C1012 C 0.02597 0.16767 0.34656 0.0
C1013 C 0.05182 0.19597 0.38893 0.0
C1014 C 0.05975 0.17556 0.41163 0.0
H1015 H 0.02801 0.20854 0.34167 0.0
H1016 H 0.05694 0.21514 0.39732 0.0
S1017 S 0.04729 0.10759 0.39198 0.0
N1018 N 0.03057 0.12246 0.35805 0.0
N1019 N 0.06169 0.12995 0.41818 0.0
C1020 C 0.05317 0.15095 0.39959 0.0
C1021 C 0.03641 0.14695 0.36697 0.0
C1022 C 0.62008 0.30483 0.126 0.0
C1023 C 0.64937 0.30111 0.12227 0.0
C1024 C 0.60929 0.32377 0.14949 0.0
C1025 C 0.6274 0.33958 0.17045 0.0
H1026 H 0.60543 0.29324 0.11011 0.0
H1027 H 0.58659 0.3263 0.15074 0.0
S1028 S 0.70578 0.33553 0.1734 0.0
N1029 N 0.69627 0.31357 0.14291 0.0
N1030 N 0.67612 0.34884 0.18785 0.0
C1031 C 0.65678 0.3356 0.16756 0.0
C1032 C 0.66773 0.31646 0.1433 0.0
C1033 C 0.48503 0.84826 0.90841 0.0
C1034 C 0.47233 0.86875 0.92708 0.0
C1035 C 0.50686 0.85205 0.8825 0.0
C1036 C 0.51711 0.87649 0.8746 0.0
H1037 H 0.47804 0.82911 0.91396 0.0
H1038 H 0.51628 0.83557 0.86944 0.0
S1039 S 0.49063 0.93653 0.91587 0.0
N1040 N 0.47123 0.91433 0.93572 0.0
N1041 N 0.51225 0.92159 0.88704 0.0
C1042 C 0.50421 0.8972 0.89266 0.0
C1043 C 0.48182 0.89331 0.91886 0.0
C1044 C 0.90801 0.32629 0.95156 0.0
C1045 C 0.90329 0.30195 0.93677 0.0
C1046 C 0.91953 0.34563 0.92954 0.0
C1047 C 0.92672 0.34142 0.89181 0.0
H1048 H 0.90335 0.33025 0.98064 0.0
H1049 H 0.92346 0.36387 0.94242 0.0
S1050 S 0.91557 0.28185 0.83854 0.0
N1051 N 0.90472 0.27523 0.88129 0.0
N1052 N 0.92628 0.31159 0.83991 0.0
C1053 C 0.92142 0.31735 0.8764 0.0
C1054 C 0.90973 0.29763 0.89885 0.0
C1055 C 0.51826 0.1513 0.66869 0.0
C1056 C 0.52623 0.17187 0.69148 0.0
C1057 C 0.49673 0.15351 0.64218 0.0
C1058 C 0.48183 0.17628 0.63739 0.0
H1059 H 0.52924 0.13338 0.67047 0.0
H1060 H 0.49218 0.13724 0.62472 0.0
S1061 S 0.49305 0.23551 0.69179 0.0
N1062 N 0.51688 0.21572 0.7084 0.0
N1063 N 0.47559 0.2196 0.65932 0.0
C1064 C 0.48905 0.19694 0.66057 0.0
C1065 C 0.51135 0.19477 0.68747 0.0
C1066 C 0.61854 0.74683 0.4238 0.0
C1067 C 0.63344 0.74016 0.45652 0.0
C1068 C 0.60875 0.72834 0.39861 0.0
C1069 C 0.61379 0.70259 0.40504 0.0
H1070 H 0.61533 0.76649 0.41679 0.0
H1071 H 0.59829 0.73421 0.37315 0.0
S1072 S 0.64788 0.67465 0.4883 0.0
N1073 N 0.64954 0.70549 0.49568 0.0
N1074 N 0.63213 0.671 0.44741 0.0
C1075 C 0.6275 0.69553 0.43812 0.0
C1076 C 0.63708 0.71424 0.46408 0.0
C1077 C 0.05914 0.84375 0.14165 0.0
C1078 C 0.07878 0.86335 0.1352 0.0
C1079 C 0.03753 0.84641 0.16813 0.0
C1080 C 0.03446 0.86888 0.18884 0.0
H1081 H 0.05944 0.8267 0.12483 0.0
H1082 H 0.02213 0.8313 0.17074 0.0
S1083 S 0.08282 0.92411 0.18748 0.0
N1084 N 0.09598 0.90454 0.15585 0.0
N1085 N 0.05444 0.90993 0.20441 0.0
C1086 C 0.05477 0.88803 0.18436 0.0
C1087 C 0.07714 0.88517 0.15786 0.0
C1088 C 0.58974 0.79083 0.94746 0.0
C1089 C 0.61151 0.78007 0.96908 0.0
C1090 C 0.59446 0.81242 0.92554 0.0
C1091 C 0.62117 0.82426 0.92421 0.0
H1092 H 0.56895 0.78219 0.94663 0.0
H1093 H 0.57721 0.81938 0.90859 0.0
S1094 S 0.68462 0.80533 0.97834 0.0
N1095 N 0.66046 0.78407 0.9895 0.0
N1096 N 0.66909 0.82474 0.94872 0.0
C1097 C 0.64288 0.81425 0.94661 0.0
C1098 C 0.63811 0.79221 0.96894 0.0
C1099 C 0.45255 0.37901 0.18463 0.0
C1100 C 0.47803 0.36725 0.19553 0.0
C1101 C 0.4362 0.36963 0.1547 0.0
C1102 C 0.4447 0.34818 0.13418 0.0
H1103 H 0.44542 0.39602 0.1987 0.0
H1104 H 0.41713 0.37967 0.14703 0.0
S1105 S 0.50818 0.3088 0.15347 0.0
N1106 N 0.50978 0.33177 0.18479 0.0
N1107 N 0.47933 0.31426 0.12887 0.0
C1108 C 0.46958 0.33568 0.14566 0.0
C1109 C 0.48613 0.34515 0.17619 0.0
C1110 C 0.91714 0.23779 0.47213 0.0
C1111 C 0.94134 0.25335 0.46963 0.0
C1112 C 0.91245 0.21785 0.44678 0.0
C1113 C 0.93177 0.21248 0.41791 0.0
H1114 H 0.90117 0.24148 0.49317 0.0
H1115 H 0.89328 0.20676 0.44942 0.0
S1116 S 0.99857 0.24725 0.39898 0.0
N1117 N 0.98522 0.26149 0.43611 0.0
N1118 N 0.97617 0.22433 0.38837 0.0
C1119 C 0.95648 0.22734 0.4157 0.0
C1120 C 0.96132 0.24765 0.44157 0.0
C1121 C 0.08997 0.64991 0.64237 0.0
C1122 C 0.10521 0.67259 0.63742 0.0
C1123 C 0.06752 0.64822 0.66802 0.0
C1124 C 0.05915 0.66912 0.69 0.0
H1125 H 0.09477 0.63344 0.62543 0.0
H1126 H 0.05612 0.63047 0.66977 0.0
S1127 S 0.09373 0.73235 0.69051 0.0
N1128 N 0.11149 0.71602 0.65887 0.0
N1129 N 0.06941 0.71285 0.70684 0.0
C1130 C 0.07502 0.69161 0.6866 0.0
C1131 C 0.09796 0.69334 0.66046 0.0
C1132 C 0.59449 0.24664 0.60648 0.0
C1133 C 0.61643 0.25813 0.58598 0.0
C1134 C 0.59963 0.22558 0.62935 0.0
C1135 C 0.62691 0.21502 0.63248 0.0
H1136 H 0.57335 0.25452 0.60602 0.0
H1137 H 0.58228 0.21816 0.64575 0.0
S1138 S 0.69078 0.23585 0.58061 0.0
N1139 N 0.66597 0.25597 0.56784 0.0
N1140 N 0.67541 0.21617 0.61005 0.0
C1141 C 0.6487 0.22558 0.61073 0.0
C1142 C 0.64352 0.24714 0.58769 0.0
C1143 C 0.08896 0.36068 0.85674 0.0
C1144 C 0.06329 0.34722 0.85947 0.0
C1145 C 0.1112 0.35654 0.88213 0.0
C1146 C 0.10814 0.33952 0.91199 0.0
H1147 H 0.09192 0.37442 0.83469 0.0
H1148 H 0.1307 0.3671 0.87882 0.0
S1149 S 0.0452 0.29962 0.93162 0.0
N1150 N 0.03639 0.31582 0.89403 0.0
N1151 N 0.07757 0.30885 0.94249 0.0
C1152 C 0.08255 0.32604 0.91509 0.0
C1153 C 0.0603 0.32968 0.88865 0.0
C1154 C 0.95921 0.79176 0.09496 0.0
C1155 C 0.93793 0.78499 0.06914 0.0
C1156 C 0.95597 0.81254 0.11926 0.0
C1157 C 0.93127 0.82739 0.11889 0.0
H1158 H 0.97812 0.78036 0.09757 0.0
H1159 H 0.97242 0.81632 0.1396 0.0
S1160 S 0.87098 0.82017 0.05335 0.0
N1161 N 0.89242 0.79667 0.04236 0.0
N1162 N 0.88658 0.83561 0.08789 0.0
C1163 C 0.91054 0.82173 0.09194 0.0
C1164 C 0.91382 0.80064 0.06709 0.0
C1165 C 0.44212 0.69416 0.39262 0.0
C1166 C 0.43203 0.67231 0.41082 0.0
C1167 C 0.46472 0.69303 0.36708 0.0
C1168 C 0.47818 0.66999 0.35837 0.0
H1169 H 0.43338 0.71255 0.39935 0.0
H1170 H 0.47225 0.71056 0.35504 0.0
S1171 S 0.45743 0.60675 0.39462 0.0
N1172 N 0.43561 0.62659 0.41562 0.0
N1173 N 0.47774 0.62434 0.36761 0.0
C1174 C 0.46719 0.64777 0.37473 0.0
C1175 C 0.44426 0.64897 0.4009 0.0
C1176 C 0.43004 0.21615 0.14797 0.0
C1177 C 0.41198 0.20002 0.16825 0.0
C1178 C 0.41918 0.23521 0.12503 0.0
C1179 C 0.38988 0.23871 0.12119 0.0
H1180 H 0.45276 0.21383 0.14938 0.0
H1181 H 0.4338 0.24707 0.10968 0.0
S1182 S 0.33355 0.20322 0.17047 0.0
N1183 N 0.36328 0.19006 0.18476 0.0
N1184 N 0.34298 0.22559 0.14086 0.0
C1185 C 0.37156 0.22297 0.14146 0.0
C1186 C 0.38258 0.20369 0.16516 0.0
C1187 C 0.52743 0.69012 0.86515 0.0
C1188 C 0.51672 0.66622 0.85461 0.0
C1189 C 0.54707 0.69263 0.89442 0.0
C1190 C 0.55666 0.67134 0.91402 0.0
H1191 H 0.51922 0.70718 0.85252 0.0
H1192 H 0.55323 0.71142 0.90349 0.0
S1193 S 0.54083 0.60432 0.89144 0.0
N1194 N 0.52134 0.62061 0.86179 0.0
N1195 N 0.55816 0.62552 0.91662 0.0
C1196 C 0.54846 0.64728 0.9012 0.0
C1197 C 0.52856 0.64467 0.87147 0.0
C1198 C 0.13807 0.82614 0.64629 0.0
C1199 C 0.11223 0.83917 0.64375 0.0
C1200 C 0.14483 0.80668 0.62106 0.0
C1201 C 0.12629 0.79997 0.59192 0.0
H1202 H 0.15284 0.83063 0.66849 0.0
H1203 H 0.16474 0.79682 0.62422 0.0
S1204 S 0.05623 0.82858 0.57284 0.0
N1205 N 0.06817 0.8442 0.60973 0.0
N1206 N 0.08101 0.80778 0.56202 0.0
C1207 C 0.10057 0.81308 0.58875 0.0
C1208 C 0.09349 0.83262 0.61479 0.0
C1209 C 0.98801 0.34237 0.39678 0.0
C1210 C 0.97487 0.36322 0.41404 0.0
C1211 C 1.00685 0.34571 0.36687 0.0
C1212 C 1.0131 0.37003 0.35316 0.0
H1213 H 0.98518 0.32354 0.40802 0.0
H1214 H 1.01796 0.32928 0.35623 0.0
S1215 S 0.97943 0.43004 0.38357 0.0
N1216 N 0.96583 0.40838 0.41148 0.0
N1217 N 1.00131 0.41478 0.35546 0.0
C1218 C 0.99813 0.39071 0.36806 0.0
C1219 C 0.97902 0.38729 0.39847 0.0
C1220 C 0.40806 0.81881 0.38959 0.0
C1221 C 0.42967 0.83644 0.39708 0.0
C1222 C 0.40053 0.8004 0.41579 0.0
C1223 C 0.4141 0.79902 0.4507 0.0
H1224 H 0.39713 0.81903 0.363 0.0
H1225 H 0.3838 0.7872 0.40877 0.0
S1226 S 0.47192 0.84085 0.48428 0.0
N1227 N 0.46433 0.8516 0.44217 0.0
N1228 N 0.45039 0.81669 0.49132 0.0
C1229 C 0.43565 0.81659 0.45872 0.0
C1230 C 0.44345 0.83531 0.43189 0.0
C1231 C 1.00699 0.69221 0.17098 0.0
C1232 C 1.01375 0.66816 0.18516 0.0
C1233 C 0.98708 0.69501 0.14218 0.0
C1234 C 0.97314 0.67388 0.12667 0.0
H1235 H 1.0183 0.70885 0.18062 0.0
H1236 H 0.98376 0.71366 0.13062 0.0
S1237 S 0.97943 0.6075 0.15879 0.0
N1238 N 1.00238 0.6233 0.18476 0.0
N1239 N 0.96456 0.62866 0.13128 0.0
C1240 C 0.97818 0.65002 0.14255 0.0
C1241 C 0.99856 0.64714 0.17163 0.0
C1242 C 0.13625 0.20167 0.95276 0.0
C1243 C 0.13921 0.22664 0.93993 0.0
C1244 C 0.12399 0.18284 0.93021 0.0
C1245 C 0.1143 0.18821 0.89387 0.0
H1246 H 0.143 0.19677 0.98073 0.0
H1247 H 0.12167 0.164 0.94154 0.0
S1248 S 0.11982 0.25017 0.84582 0.0
N1249 N 0.13307 0.25545 0.88785 0.0
N1250 N 0.1104 0.22008 0.84525 0.0
C1251 C 0.11769 0.21304 0.88043 0.0
C1252 C 0.13005 0.23223 0.9035 0.0
C1253 C 0.53836 0.39014 0.64426 0.0
C1254 C 0.55512 0.36824 0.64192 0.0
C1255 C 0.51677 0.39242 0.67072 0.0
C1256 C 0.51074 0.37278 0.69596 0.0
H1257 H 0.54153 0.40556 0.62487 0.0
H1258 H 0.50419 0.40952 0.67053 0.0
S1259 S 0.54972 0.3121 0.70353 0.0
N1260 N 0.56541 0.32707 0.66878 0.0
N1261 N 0.52422 0.33105 0.71813 0.0
C1262 C 0.52766 0.35089 0.69453 0.0
C1263 C 0.54991 0.34865 0.66757 0.0
C1264 C 0.09281 0.51663 0.3033 0.0
C1265 C 0.10808 0.49571 0.28973 0.0
C1266 C 0.0932 0.53986 0.28453 0.0
C1267 C 0.10914 0.5432 0.25162 0.0
H1268 H 0.08008 0.51485 0.32833 0.0
H1269 H 0.08048 0.55515 0.2956 0.0
S1270 S 0.155 0.49472 0.20683 0.0
N1271 N 0.1406 0.47996 0.24273 0.0
N1272 N 0.14221 0.52377 0.20788 0.0
C1273 C 0.12502 0.52248 0.23826 0.0
C1274 C 0.12427 0.49872 0.25718 0.0
C1275 C 0.79345 0.84696 0.50475 0.0
C1276 C 0.79944 0.84807 0.54332 0.0
C1277 C 0.7655 0.84575 0.49151 0.0
C1278 C 0.74227 0.84596 0.51619 0.0
H1279 H 0.8105 0.84597 0.48456 0.0
H1280 H 0.76215 0.84406 0.46164 0.0
S1281 S 0.74636 0.85124 0.61975 0.0
N1282 N 0.77969 0.85106 0.60596 0.0
N1283 N 0.72727 0.84916 0.5812 0.0
C1284 C 0.74793 0.84836 0.55477 0.0
C1285 C 0.77644 0.84929 0.56827 0.0
C1286 C 0.4277 0.49991 0.79623 0.0
C1287 C 0.41209 0.49614 0.76306 0.0
C1288 C 0.42837 0.52355 0.81433 0.0
C1289 C 0.41372 0.54447 0.79984 0.0
H1290 H 0.4401 0.48468 0.80787 0.0
H1291 H 0.44105 0.52567 0.83937 0.0
S1292 S 0.36728 0.54434 0.71645 0.0
N1293 N 0.37956 0.51516 0.71854 0.0
N1294 N 0.3817 0.55963 0.75204 0.0
C1295 C 0.39759 0.54095 0.7673 0.0
C1296 C 0.39655 0.51681 0.74908 0.0
C1297 C 0.7746 0.19674 0.98806 0.0
C1298 C 0.79941 0.19659 1.00985 0.0
C1299 C 0.74764 0.19608 1.0046 0.0
C1300 C 0.74427 0.19561 0.04375 0.0
H1301 H 0.77593 0.19806 0.95789 0.0
H1302 H 0.72932 0.19713 0.98649 0.0
S1303 S 0.80233 0.1927 0.11354 0.0
N1304 N 0.81874 0.19398 0.07283 0.0
N1305 N 0.76819 0.19314 0.10381 0.0
C1306 C 0.76888 0.19432 0.06586 0.0
C1307 C 0.79637 0.19467 0.04897 0.0
C1308 C 1.01463 0.51065 0.78092 0.0
C1309 C 0.99476 0.49068 0.78048 0.0
C1310 C 1.00719 0.53526 0.77024 0.0
C1311 C 0.97963 0.54087 0.75834 0.0
H1312 H 0.0363 0.50718 0.78915 0.0
H1313 H 0.02329 0.54985 0.77032 0.0
S1314 S 0.91899 0.49631 0.75479 0.0
N1315 N 0.94573 0.47887 0.76932 0.0
N1316 N 0.93197 0.525 0.74846 0.0
C1317 C 0.95943 0.52129 0.75814 0.0
C1318 C 0.96693 0.49624 0.76932 0.0
C1319 C 0.2806 0.21165 0.51355 0.0
C1320 C 0.29498 0.18969 0.5247 0.0
C1321 C 0.25127 0.21117 0.50694 0.0
C1322 C 0.23562 0.18862 0.51066 0.0
H1323 H 0.2919 0.22942 0.51148 0.0
H1324 H 0.24069 0.2285 0.49909 0.0
S1325 S 0.2639 0.12601 0.53813 0.0
N1326 N 0.29178 0.14488 0.53825 0.0
N1327 N 0.23688 0.14386 0.52573 0.0
C1328 C 0.25003 0.16647 0.52079 0.0
C1329 C 0.27967 0.16704 0.52784 0.0
C1330 C 0.54977 0.52219 0.3143 0.0
C1331 C 0.55907 0.54218 0.29144 0.0
C1332 C 0.54641 0.49762 0.30002 0.0
C1333 C 0.5522 0.49205 0.26232 0.0
H1334 H 0.54471 0.52566 0.3434 0.0
H1335 H 0.53879 0.48293 0.31849 0.0
S1336 S 0.57975 0.53714 0.1917 0.0
N1337 N 0.57566 0.55444 0.22986 0.0
N1338 N 0.56952 0.50827 0.20297 0.0
C1339 C 0.56197 0.51178 0.23928 0.0
C1340 C 0.56533 0.53683 0.25384 0.0
C1341 C 0.2513 0.834 0.04928 0.0
C1342 C 0.24406 0.83656 1.01132 0.0
C1343 C 0.27961 0.83408 0.06089 0.0
C1344 C 0.30185 0.83653 0.035 0.0
H1345 H 0.23494 0.83245 0.07033 0.0
H1346 H 0.28415 0.83211 0.0904 0.0
S1347 S 0.29427 0.84326 0.93221 0.0
N1348 N 0.26148 0.84086 0.94771 0.0
N1349 N 0.31467 0.84169 0.96959 0.0
C1350 C 0.29494 0.83886 0.99689 0.0
C1351 C 0.26607 0.83877 0.98506 0.0
C1352 C 0.6074 0.02013 0.81769 0.0
C1353 C 0.61809 0.99787 0.80131 0.0
C1354 C 0.60775 0.04326 0.79839 0.0
C1355 C 0.61916 0.04514 0.76205 0.0
H1356 H 0.59808 0.01952 0.84533 0.0
H1357 H 0.59839 0.05961 0.81179 0.0
S1358 S 0.65311 0.9927 0.70895 0.0
N1359 N 0.64211 0.97934 0.74799 0.0
N1360 N 0.64386 0.02274 0.71212 0.0
C1361 C 0.63086 0.02306 0.746 0.0
C1362 C 0.63005 0.99947 0.76549 0.0
C1363 C 0.29034 0.33796 1.00819 0.0
C1364 C 0.29433 0.342 0.04681 0.0
C1365 C 0.26317 0.33479 0.99291 0.0
C1366 C 0.23876 0.33595 1.01545 0.0
H1367 H 0.30841 0.33586 0.9898 0.0
H1368 H 0.26137 0.3306 0.96333 0.0
S1369 S 0.23747 0.34909 0.11764 0.0
N1370 N 0.27142 0.34901 0.10678 0.0
N1371 N 0.22042 0.34359 0.07814 0.0
C1372 C 0.24237 0.3416 0.05375 0.0
C1373 C 0.2701 0.34444 0.06939 0.0
C1374 C 0.94684 0.02406 0.29929 0.0
C1375 C 0.93175 0.04435 0.28376 0.0
C1376 C 0.94855 1.0006 0.28085 0.0
C1377 C 0.93492 0.99637 0.2463 0.0
H1378 H 0.95794 0.02655 0.32555 0.0
H1379 H 0.96114 0.98586 0.29347 0.0
S1380 S 0.88995 0.04288 0.19626 0.0
N1381 N 0.9016 0.05849 0.23328 0.0
N1382 N 0.90374 1.01427 0.19909 0.0
C1383 C 0.91901 1.01643 0.23111 0.0
C1384 C 0.9177 0.04042 0.2497 0.0
C1385 C 0.28324 0.66106 0.51314 0.0
C1386 C 0.2995 0.68336 0.51617 0.0
C1387 C 0.25385 0.66109 0.51943 0.0
C1388 C 0.23927 0.68338 0.52938 0.0
H1389 H 0.29322 0.64336 0.50544 0.0
H1390 H 0.24247 0.6434 0.51634 0.0
S1391 S 0.2719 0.74689 0.54205 0.0
N1392 N 0.29864 0.72841 0.53049 0.0
N1393 N 0.2437 0.72844 0.54246 0.0
C1394 C 0.25531 0.70579 0.53298 0.0
C1395 C 0.28524 0.70579 0.52633 0.0
C1396 C 0.4935 0.04413 0.29909 0.0
C1397 C 0.48958 0.04915 0.26085 0.0
C1398 C 0.49022 0.01962 0.31332 0.0
C1399 C 0.48299 0.99918 0.28984 0.0
H1400 H 0.49958 0.05921 0.31807 0.0
H1401 H 0.49374 1.01656 0.34287 0.0
S1402 S 0.46752 1.00256 0.18843 0.0
N1403 N 0.47601 0.03183 0.20027 0.0
N1404 N 0.47026 0.98577 0.22708 0.0
C1405 C 0.4786 1.00394 0.25171 0.0
C1406 C 0.48177 0.02892 0.23721 0.0
C1407 C 0.77539 0.72296 0.03365 0.0
C1408 C 0.79577 0.7039 0.02898 0.0
C1409 C 0.74657 0.71809 0.02771 0.0
C1410 C 0.73689 0.6938 1.01746 0.0
H1411 H 0.78187 0.74181 0.04202 0.0
H1412 H 0.73183 0.73356 0.03108 0.0
S1413 S 0.78212 0.63698 1.0042 0.0
N1414 N 0.80469 0.65987 1.0144 0.0
N1415 N 0.75046 0.65015 1.00454 0.0
C1416 C 0.75724 0.6745 1.01289 0.0
C1417 C 0.78668 0.67969 1.01834 0.0
C1418 C 0.04642 0.02458 0.74264 0.0
C1419 C 0.05363 0.04164 0.7715 0.0
C1420 C 0.04904 0.99837 0.74722 0.0
C1421 C 0.05894 0.98803 0.78091 0.0
H1422 H 0.03909 0.03154 0.71594 0.0
H1423 H 0.04422 0.98622 0.72363 0.0
S1424 S 0.07811 0.02419 0.86656 0.0
N1425 N 0.06982 0.04611 0.83574 0.0
N1426 N 0.07353 0.99684 0.84491 0.0
C1427 C 0.06494 1.00477 0.81067 0.0
C1428 C 0.0625 0.03154 0.80589 0.0
C1429 C 0.75127 0.32366 0.51177 0.0
C1430 C 0.74307 0.34543 0.53177 0.0
C1431 C 0.77977 0.31911 0.50321 0.0
C1432 C 0.80114 0.33598 0.51468 0.0
H1433 H 0.73568 0.30972 0.50341 0.0
H1434 H 0.78524 0.30203 0.48802 0.0
S1435 S 0.7909 0.39692 0.56412 0.0
N1436 N 0.75868 0.38509 0.55997 0.0
N1437 N 0.81227 0.37593 0.54477 0.0
C1438 C 0.79332 0.35796 0.53406 0.0
C1439 C 0.76428 0.36284 0.54234 0.0
loop_
_geom_bond_atom_site_label_1
_geom_bond_atom_site_label_2
_geom_bond_distance
_geom_bond_site_symmetry_2
_ccdc_geom_bond_type
Cu0 N1 1.999 . S
Cu0 O6 1.974 . S
Cu0 N11 1.985 . S
Cu0 O20 1.959 . S
N1 Cu0 1.999 . S
N1 C3 1.263 . S
N1 C5 1.389 . S
N2 C3 1.358 . S
N2 C4 1.400 . S
C3 N1 1.263 . S
C3 N2 1.358 . S
C3 H9 0.930 . S
C4 N2 1.400 . S
C4 C5 1.351 . S
C4 H21 0.930 . S
C5 N1 1.389 . S
C5 C4 1.351 . S
C5 H10 0.930 . S
O6 Cu0 1.974 . S
O6 C16 1.282 . S
C7 O8 1.261 . S
C7 O20 1.251 . S
O8 C7 1.261 . S
H9 C3 0.930 . S
H10 C5 0.930 . S
N11 Cu0 1.985 . S
N11 C13 1.335 . S
N11 C14 1.390 . S
N12 C13 1.345 . S
N12 C15 1.336 . S
C13 N11 1.335 . S
C13 N12 1.345 . S
C13 H18 0.930 . S
C14 N11 1.390 . S
C14 C15 1.346 . S
C14 H19 0.930 . S
C15 N12 1.336 . S
C15 C14 1.346 . S
C15 H22 0.929 . S
C16 O6 1.282 . S
C16 O17 1.216 . S
O17 C16 1.216 . S
H18 C13 0.930 . S
H19 C14 0.930 . S
O20 Cu0 1.959 . S
O20 C7 1.251 . S
H21 C4 0.930 . S
H22 C15 0.929 . S
Cu23 N24 1.999 . S
Cu23 O29 1.974 . S
Cu23 N34 1.985 . S
Cu23 O43 1.959 . S
N24 Cu23 1.999 . S
N24 C26 1.263 . S
N24 C28 1.389 . S
N25 C26 1.358 . S
N25 C27 1.400 . S
C26 N24 1.263 . S
C26 N25 1.358 . S
C26 H32 0.930 . S
C27 N25 1.400 . S
C27 C28 1.351 . S
C27 H44 0.930 . S
C28 N24 1.389 . S
C28 C27 1.351 . S
C28 H33 0.930 . S
O29 Cu23 1.974 . S
O29 C39 1.282 . S
C30 O31 1.261 . S
C30 O43 1.251 . S
O31 C30 1.261 . S
H32 C26 0.930 . S
H33 C28 0.930 . S
N34 Cu23 1.985 . S
N34 C36 1.335 . S
N34 C37 1.390 . S
N35 C36 1.345 . S
N35 C38 1.336 . S
C36 N34 1.335 . S
C36 N35 1.345 . S
C36 H41 0.930 . S
C37 N34 1.390 . S
C37 C38 1.346 . S
C37 H42 0.930 . S
C38 N35 1.336 . S
C38 C37 1.346 . S
C38 H45 0.929 . S
C39 O29 1.282 . S
C39 O40 1.216 . S
O40 C39 1.216 . S
H41 C36 0.930 . S
H42 C37 0.930 . S
O43 Cu23 1.959 . S
O43 C30 1.251 . S
H44 C27 0.930 . S
H45 C38 0.929 . S
Cu46 N47 1.999 . S
Cu46 O52 1.974 . S
Cu46 N57 1.985 . S
Cu46 O66 1.959 . S
N47 Cu46 1.999 . S
N47 C49 1.263 . S
N47 C51 1.389 . S
N48 C49 1.358 . S
N48 C50 1.400 . S
C49 N47 1.263 . S
C49 N48 1.358 . S
C49 H55 0.930 . S
C50 N48 1.400 . S
C50 C51 1.351 . S
C50 H67 0.930 . S
C51 N47 1.389 . S
C51 C50 1.351 . S
C51 H56 0.930 . S
O52 Cu46 1.974 . S
O52 C62 1.282 . S
C53 O54 1.261 . S
C53 O66 1.251 . S
O54 C53 1.261 . S
H55 C49 0.930 . S
H56 C51 0.930 . S
N57 Cu46 1.985 . S
N57 C59 1.335 . S
N57 C60 1.390 . S
N58 C59 1.345 . S
N58 C61 1.336 . S
C59 N57 1.335 . S
C59 N58 1.345 . S
C59 H64 0.930 . S
C60 N57 1.390 . S
C60 C61 1.346 . S
C60 H65 0.930 . S
C61 N58 1.336 . S
C61 C60 1.346 . S
C61 H68 0.929 . S
C62 O52 1.282 . S
C62 O63 1.216 . S
O63 C62 1.216 . S
H64 C59 0.930 . S
H65 C60 0.930 . S
O66 Cu46 1.959 . S
O66 C53 1.251 . S
H67 C50 0.930 . S
H68 C61 0.929 . S
Cu69 N70 1.999 1_554 S
Cu69 O75 1.974 . S
Cu69 N80 1.985 . S
Cu69 O89 1.959 . S
N70 Cu69 1.999 1_556 S
N70 C72 1.263 . S
N70 C74 1.389 . S
N71 C72 1.358 . S
N71 C73 1.400 . S
C72 N70 1.263 . S
C72 N71 1.358 . S
C72 H78 0.930 . S
C73 N71 1.400 . S
C73 C74 1.351 . S
C73 H90 0.930 . S
C74 N70 1.389 . S
C74 C73 1.351 . S
C74 H79 0.930 . S
O75 Cu69 1.974 . S
O75 C85 1.282 . S
C76 O77 1.261 . S
C76 O89 1.251 . S
O77 C76 1.261 . S
H78 C72 0.930 . S
H79 C74 0.930 . S
N80 Cu69 1.985 . S
N80 C82 1.335 . S
N80 C83 1.390 . S
N81 C82 1.345 . S
N81 C84 1.336 . S
C82 N80 1.335 . S
C82 N81 1.345 . S
C82 H87 0.930 . S
C83 N80 1.390 . S
C83 C84 1.346 . S
C83 H88 0.930 . S
C84 N81 1.336 . S
C84 C83 1.346 . S
C84 H91 0.929 . S
C85 O75 1.282 . S
C85 O86 1.216 . S
O86 C85 1.216 . S
H87 C82 0.930 . S
H88 C83 0.930 . S
O89 Cu69 1.959 . S
O89 C76 1.251 . S
H90 C73 0.930 . S
H91 C84 0.929 . S
Cu92 N93 1.999 . S
Cu92 O98 1.974 . S
Cu92 N103 1.985 . S
Cu92 O112 1.959 . S
N93 Cu92 1.999 . S
N93 C95 1.263 . S
N93 C97 1.389 . S
N94 C95 1.358 . S
N94 C96 1.400 . S
C95 N93 1.263 . S
C95 N94 1.358 . S
C95 H101 0.930 . S
C96 N94 1.400 . S
C96 C97 1.351 . S
C96 H113 0.930 . S
C97 N93 1.389 . S
C97 C96 1.351 . S
C97 H102 0.930 . S
O98 Cu92 1.974 . S
O98 C108 1.282 . S
C99 O100 1.261 . S
C99 O112 1.251 . S
O100 C99 1.261 . S
H101 C95 0.930 . S
H102 C97 0.930 . S
N103 Cu92 1.985 . S
N103 C105 1.335 . S
N103 C106 1.390 . S
N104 C105 1.345 . S
N104 C107 1.336 . S
C105 N103 1.335 . S
C105 N104 1.345 . S
C105 H110 0.930 . S
C106 N103 1.390 . S
C106 C107 1.346 . S
C106 H111 0.930 . S
C107 N104 1.336 . S
C107 C106 1.346 . S
C107 H114 0.929 . S
C108 O98 1.282 . S
C108 O109 1.216 . S
O109 C108 1.216 . S
H110 C105 0.930 . S
H111 C106 0.930 . S
O112 Cu92 1.959 . S
O112 C99 1.251 . S
H113 C96 0.930 . S
H114 C107 0.929 . S
Cu115 N116 1.999 . S
Cu115 O121 1.974 . S
Cu115 N126 1.985 . S
Cu115 O135 1.959 . S
N116 Cu115 1.999 . S
N116 C118 1.263 . S
N116 C120 1.389 . S
N117 C118 1.358 . S
N117 C119 1.400 . S
C118 N116 1.263 . S
C118 N117 1.358 . S
C118 H124 0.930 . S
C119 N117 1.400 . S
C119 C120 1.351 . S
C119 H136 0.930 . S
C120 N116 1.389 . S
C120 C119 1.351 . S
C120 H125 0.930 . S
O121 Cu115 1.974 . S
O121 C131 1.282 . S
C122 O123 1.261 . S
C122 O135 1.251 . S
O123 C122 1.261 . S
H124 C118 0.930 . S
H125 C120 0.930 . S
N126 Cu115 1.985 . S
N126 C128 1.335 . S
N126 C129 1.390 . S
N127 C128 1.345 . S
N127 C130 1.336 . S
C128 N126 1.335 . S
C128 N127 1.345 . S
C128 H133 0.930 . S
C129 N126 1.390 . S
C129 C130 1.346 . S
C129 H134 0.930 . S
C130 N127 1.336 . S
C130 C129 1.346 . S
C130 H137 0.929 . S
C131 O121 1.282 . S
C131 O132 1.216 . S
O132 C131 1.216 . S
H133 C128 0.930 . S
H134 C129 0.930 . S
O135 Cu115 1.959 . S
O135 C122 1.251 . S
H136 C119 0.930 . S
H137 C130 0.929 . S
Cu138 N139 1.999 . S
Cu138 O144 1.974 . S
Cu138 N149 1.985 . S
Cu138 O158 1.959 . S
N139 Cu138 1.999 . S
N139 C141 1.263 . S
N139 C143 1.389 . S
N140 C141 1.358 . S
N140 C142 1.400 . S
C141 N139 1.263 . S
C141 N140 1.358 . S
C141 H147 0.930 . S
C142 N140 1.400 . S
C142 C143 1.351 . S
C142 H159 0.930 . S
C143 N139 1.389 . S
C143 C142 1.351 . S
C143 H148 0.930 . S
O144 Cu138 1.974 . S
O144 C154 1.282 . S
C145 O146 1.261 . S
C145 O158 1.251 . S
O146 C145 1.261 . S
H147 C141 0.930 . S
H148 C143 0.930 . S
N149 Cu138 1.985 . S
N149 C151 1.335 . S
N149 C152 1.390 . S
N150 C151 1.345 . S
N150 C153 1.336 . S
C151 N149 1.335 . S
C151 N150 1.345 . S
C151 H156 0.930 . S
C152 N149 1.390 . S
C152 C153 1.346 . S
C152 H157 0.930 . S
C153 N150 1.336 . S
C153 C152 1.346 . S
C153 H160 0.929 . S
C154 O144 1.282 . S
C154 O155 1.216 . S
O155 C154 1.216 . S
H156 C151 0.930 . S
H157 C152 0.930 . S
O158 Cu138 1.959 . S
O158 C145 1.251 . S
H159 C142 0.930 . S
H160 C153 0.929 . S
Cu161 N162 1.999 1_556 S
Cu161 O167 1.974 . S
Cu161 N172 1.985 . S
Cu161 O181 1.959 . S
N162 Cu161 1.999 1_554 S
N162 C164 1.263 . S
N162 C166 1.389 . S
N163 C164 1.358 . S
N163 C165 1.400 . S
C164 N162 1.263 . S
C164 N163 1.358 . S
C164 H170 0.930 . S
C165 N163 1.400 . S
C165 C166 1.351 . S
C165 H182 0.930 . S
C166 N162 1.389 . S
C166 C165 1.351 . S
C166 H171 0.930 . S
O167 Cu161 1.974 . S
O167 C177 1.282 . S
C168 O169 1.261 . S
C168 O181 1.251 . S
O169 C168 1.261 . S
H170 C164 0.930 . S
H171 C166 0.930 . S
N172 Cu161 1.985 . S
N172 C174 1.335 . S
N172 C175 1.390 . S
N173 C174 1.345 . S
N173 C176 1.336 . S
C174 N172 1.335 . S
C174 N173 1.345 . S
C174 H179 0.930 . S
C175 N172 1.390 . S
C175 C176 1.346 . S
C175 H180 0.930 . S
C176 N173 1.336 . S
C176 C175 1.346 . S
C176 H183 0.929 . S
C177 O167 1.282 . S
C177 O178 1.216 . S
O178 C177 1.216 . S
H179 C174 0.930 . S
H180 C175 0.930 . S
O181 Cu161 1.959 . S
O181 C168 1.251 . S
H182 C165 0.930 . S
H183 C176 0.929 . S
Cu184 N185 1.999 . S
Cu184 O190 1.974 . S
Cu184 N195 1.985 . S
Cu184 O204 1.959 . S
N185 Cu184 1.999 . S
N185 C187 1.263 . S
N185 C189 1.389 . S
N186 C187 1.358 . S
N186 C188 1.400 . S
C187 N185 1.263 . S
C187 N186 1.358 . S
C187 H193 0.930 . S
C188 N186 1.400 . S
C188 C189 1.351 . S
C188 H205 0.930 . S
C189 N185 1.389 . S
C189 C188 1.351 . S
C189 H194 0.930 . S
O190 Cu184 1.974 . S
O190 C200 1.282 . S
C191 O192 1.261 . S
C191 O204 1.251 . S
O192 C191 1.261 . S
H193 C187 0.930 . S
H194 C189 0.930 . S
N195 Cu184 1.985 . S
N195 C197 1.335 . S
N195 C198 1.390 . S
N196 C197 1.345 . S
N196 C199 1.336 . S
C197 N195 1.335 . S
C197 N196 1.345 . S
C197 H202 0.930 . S
C198 N195 1.390 . S
C198 C199 1.346 . S
C198 H203 0.930 . S
C199 N196 1.336 . S
C199 C198 1.346 . S
C199 H206 0.929 . S
C200 O190 1.282 . S
C200 O201 1.216 . S
O201 C200 1.216 . S
H202 C197 0.930 . S
H203 C198 0.930 . S
O204 Cu184 1.959 . S
O204 C191 1.251 . S
H205 C188 0.930 . S
H206 C199 0.929 . S
Cu207 N208 1.999 . S
Cu207 O213 1.974 . S
Cu207 N218 1.985 . S
Cu207 O227 1.959 . S
N208 Cu207 1.999 . S
N208 C210 1.263 . S
N208 C212 1.389 . S
N209 C210 1.358 . S
N209 C211 1.400 . S
C210 N208 1.263 . S
C210 N209 1.358 . S
C210 H216 0.930 . S
C211 N209 1.400 . S
C211 C212 1.351 . S
C211 H228 0.930 . S
C212 N208 1.389 . S
C212 C211 1.351 . S
C212 H217 0.930 . S
O213 Cu207 1.974 . S
O213 C223 1.282 . S
C214 O215 1.261 . S
C214 O227 1.251 . S
O215 C214 1.261 . S
H216 C210 0.930 . S
H217 C212 0.930 . S
N218 Cu207 1.985 . S
N218 C220 1.335 . S
N218 C221 1.390 . S
N219 C220 1.345 . S
N219 C222 1.336 . S
C220 N218 1.335 . S
C220 N219 1.345 . S
C220 H225 0.930 . S
C221 N218 1.390 . S
C221 C222 1.346 . S
C221 H226 0.930 . S
C222 N219 1.336 . S
C222 C221 1.346 . S
C222 H229 0.929 . S
C223 O213 1.282 . S
C223 O224 1.216 . S
O224 C223 1.216 . S
H225 C220 0.930 . S
H226 C221 0.930 . S
O227 Cu207 1.959 . S
O227 C214 1.251 . S
H228 C211 0.930 . S
H229 C222 0.929 . S
Cu230 N231 1.999 . S
Cu230 O236 1.974 . S
Cu230 N241 1.985 . S
Cu230 O250 1.959 . S
N231 Cu230 1.999 . S
N231 C233 1.263 . S
N231 C235 1.389 . S
N232 C233 1.358 . S
N232 C234 1.400 . S
C233 N231 1.263 . S
C233 N232 1.358 . S
C233 H239 0.930 . S
C234 N232 1.400 . S
C234 C235 1.351 . S
C234 H251 0.930 . S
C235 N231 1.389 . S
C235 C234 1.351 . S
C235 H240 0.930 . S
O236 Cu230 1.974 . S
O236 C246 1.282 . S
C237 O238 1.261 . S
C237 O250 1.251 . S
O238 C237 1.261 . S
H239 C233 0.930 . S
H240 C235 0.930 . S
N241 Cu230 1.985 . S
N241 C243 1.335 . S
N241 C244 1.390 . S
N242 C243 1.345 . S
N242 C245 1.336 . S
C243 N241 1.335 . S
C243 N242 1.345 . S
C243 H248 0.930 . S
C244 N241 1.390 . S
C244 C245 1.346 . S
C244 H249 0.930 . S
C245 N242 1.336 . S
C245 C244 1.346 . S
C245 H252 0.929 . S
C246 O236 1.282 . S
C246 O247 1.216 . S
O247 C246 1.216 . S
H248 C243 0.930 . S
H249 C244 0.930 . S
O250 Cu230 1.959 . S
O250 C237 1.251 . S
H251 C234 0.930 . S
H252 C245 0.929 . S
Cu253 N254 1.999 . S
Cu253 O259 1.974 . S
Cu253 N264 1.985 . S
Cu253 O273 1.959 . S
N254 Cu253 1.999 . S
N254 C256 1.263 . S
N254 C258 1.389 . S
N255 C256 1.358 . S
N255 C257 1.400 . S
C256 N254 1.263 . S
C256 N255 1.358 . S
C256 H262 0.930 . S
C257 N255 1.400 . S
C257 C258 1.351 . S
C257 H274 0.930 . S
C258 N254 1.389 . S
C258 C257 1.351 . S
C258 H263 0.930 . S
O259 Cu253 1.974 . S
O259 C269 1.282 . S
C260 O261 1.261 . S
C260 O273 1.251 1_554 S
O261 C260 1.261 . S
H262 C256 0.930 . S
H263 C258 0.930 . S
N264 Cu253 1.985 . S
N264 C266 1.335 . S
N264 C267 1.390 . S
N265 C266 1.340 1_554 S
N265 C268 1.322 1_554 S
C266 N264 1.335 . S
C266 N265 1.340 1_556 S
C266 H271 0.930 1_556 S
C267 N264 1.390 . S
C267 C268 1.346 . S
C267 H272 0.930 . S
C268 N265 1.322 1_556 S
C268 C267 1.346 . S
C268 H275 0.929 . S
C269 O259 1.282 . S
C269 O270 1.216 . S
O270 C269 1.216 . S
H271 C266 0.930 1_554 S
H272 C267 0.930 . S
O273 Cu253 1.959 . S
O273 C260 1.251 1_556 S
H274 C257 0.930 . S
H275 C268 0.929 . S
Cu276 N277 1.999 . S
Cu276 O282 1.974 . S
Cu276 N287 1.985 . S
Cu276 O296 1.959 . S
N277 Cu276 1.999 . S
N277 C279 1.263 . S
N277 C281 1.389 . S
N278 C279 1.358 . S
N278 C280 1.400 . S
C279 N277 1.263 . S
C279 N278 1.358 . S
C279 H285 0.930 . S
C280 N278 1.400 . S
C280 C281 1.351 . S
C280 H297 0.930 . S
C281 N277 1.389 . S
C281 C280 1.351 . S
C281 H286 0.930 . S
O282 Cu276 1.974 . S
O282 C292 1.282 . S
C283 O284 1.261 . S
C283 O296 1.251 . S
O284 C283 1.261 . S
H285 C279 0.930 . S
H286 C281 0.930 . S
N287 Cu276 1.985 . S
N287 C289 1.335 . S
N287 C290 1.390 . S
N288 C289 1.345 . S
N288 C291 1.336 . S
C289 N287 1.335 . S
C289 N288 1.345 . S
C289 H294 0.930 . S
C290 N287 1.390 . S
C290 C291 1.346 . S
C290 H295 0.930 . S
C291 N288 1.336 . S
C291 C290 1.346 . S
C291 H298 0.929 . S
C292 O282 1.282 . S
C292 O293 1.216 . S
O293 C292 1.216 . S
H294 C289 0.930 . S
H295 C290 0.930 . S
O296 Cu276 1.959 . S
O296 C283 1.251 . S
H297 C280 0.930 . S
H298 C291 0.929 . S
Cu299 N300 1.999 . S
Cu299 O305 1.974 . S
Cu299 N310 1.985 . S
Cu299 O319 1.959 . S
N300 Cu299 1.999 . S
N300 C302 1.263 . S
N300 C304 1.389 . S
N301 C302 1.358 . S
N301 C303 1.400 . S
C302 N300 1.263 . S
C302 N301 1.358 . S
C302 H308 0.930 . S
C303 N301 1.400 . S
C303 C304 1.351 . S
C303 H320 0.930 . S
C304 N300 1.389 . S
C304 C303 1.351 . S
C304 H309 0.930 . S
O305 Cu299 1.974 . S
O305 C315 1.282 . S
C306 O307 1.261 . S
C306 O319 1.251 . S
O307 C306 1.261 . S
H308 C302 0.930 . S
H309 C304 0.930 . S
N310 Cu299 1.985 . S
N310 C312 1.335 . S
N310 C313 1.390 . S
N311 C312 1.345 . S
N311 C314 1.336 . S
C312 N310 1.335 . S
C312 N311 1.345 . S
C312 H317 0.930 . S
C313 N310 1.390 . S
C313 C314 1.346 . S
C313 H318 0.930 . S
C314 N311 1.336 . S
C314 C313 1.346 . S
C314 H321 0.929 . S
C315 O305 1.282 . S
C315 O316 1.216 . S
O316 C315 1.216 . S
H317 C312 0.930 . S
H318 C313 0.930 . S
O319 Cu299 1.959 . S
O319 C306 1.251 . S
H320 C303 0.930 . S
H321 C314 0.929 . S
Cu322 N323 1.999 . S
Cu322 O328 1.974 . S
Cu322 N333 1.985 . S
Cu322 O342 1.959 . S
N323 Cu322 1.999 . S
N323 C325 1.263 . S
N323 C327 1.389 . S
N324 C325 1.358 . S
N324 C326 1.400 . S
C325 N323 1.263 . S
C325 N324 1.358 . S
C325 H331 0.930 . S
C326 N324 1.400 . S
C326 C327 1.351 . S
C326 H343 0.930 . S
C327 N323 1.389 . S
C327 C326 1.351 . S
C327 H332 0.930 . S
O328 Cu322 1.974 . S
O328 C338 1.282 . S
C329 O330 1.261 . S
C329 O342 1.251 . S
O330 C329 1.261 . S
H331 C325 0.930 . S
H332 C327 0.930 . S
N333 Cu322 1.985 . S
N333 C335 1.335 . S
N333 C336 1.390 . S
N334 C335 1.345 . S
N334 C337 1.336 . S
C335 N333 1.335 . S
C335 N334 1.345 . S
C335 H340 0.930 . S
C336 N333 1.390 . S
C336 C337 1.346 . S
C336 H341 0.930 . S
C337 N334 1.336 . S
C337 C336 1.346 . S
C337 H344 0.929 . S
C338 O328 1.282 . S
C338 O339 1.216 . S
O339 C338 1.216 . S
H340 C335 0.930 . S
H341 C336 0.930 . S
O342 Cu322 1.959 . S
O342 C329 1.251 . S
H343 C326 0.930 . S
H344 C337 0.929 . S
Cu345 N346 1.999 . S
Cu345 O351 1.974 . S
Cu345 N356 1.985 . S
Cu345 O365 1.959 . S
N346 Cu345 1.999 . S
N346 C348 1.263 . S
N346 C350 1.389 . S
N347 C348 1.358 . S
N347 C349 1.400 . S
C348 N346 1.263 . S
C348 N347 1.358 . S
C348 H354 0.930 . S
C349 N347 1.400 . S
C349 C350 1.351 . S
C349 H366 0.930 . S
C350 N346 1.389 . S
C350 C349 1.351 . S
C350 H355 0.930 . S
O351 Cu345 1.974 . S
O351 C361 1.282 . S
C352 O353 1.261 . S
C352 O365 1.251 1_556 S
O353 C352 1.261 . S
H354 C348 0.930 . S
H355 C350 0.930 . S
N356 Cu345 1.985 . S
N356 C358 1.335 . S
N356 C359 1.390 . S
N357 C358 1.340 1_556 S
N357 C360 1.322 1_556 S
C358 N356 1.335 . S
C358 N357 1.340 1_554 S
C358 H363 0.930 1_554 S
C359 N356 1.390 . S
C359 C360 1.346 . S
C359 H364 0.930 . S
C360 N357 1.322 1_554 S
C360 C359 1.346 . S
C360 H367 0.929 . S
C361 O351 1.282 . S
C361 O362 1.216 . S
O362 C361 1.216 . S
H363 C358 0.930 1_556 S
H364 C359 0.930 . S
O365 Cu345 1.959 . S
O365 C352 1.251 1_554 S
H366 C349 0.930 . S
H367 C360 0.929 . S
Cu368 N369 1.999 . S
Cu368 O374 1.974 . S
Cu368 N379 1.985 . S
Cu368 O388 1.959 . S
N369 Cu368 1.999 . S
N369 C371 1.263 . S
N369 C373 1.389 . S
N370 C371 1.358 . S
N370 C372 1.400 . S
C371 N369 1.263 . S
C371 N370 1.358 . S
C371 H377 0.930 . S
C372 N370 1.400 . S
C372 C373 1.351 . S
C372 H389 0.930 . S
C373 N369 1.389 . S
C373 C372 1.351 . S
C373 H378 0.930 . S
O374 Cu368 1.974 . S
O374 C384 1.282 . S
C375 O376 1.261 . S
C375 O388 1.251 . S
O376 C375 1.261 . S
H377 C371 0.930 . S
H378 C373 0.930 . S
N379 Cu368 1.985 . S
N379 C381 1.335 . S
N379 C382 1.390 . S
N380 C381 1.345 . S
N380 C383 1.336 . S
C381 N379 1.335 . S
C381 N380 1.345 . S
C381 H386 0.930 . S
C382 N379 1.390 . S
C382 C383 1.346 . S
C382 H387 0.930 . S
C383 N380 1.336 . S
C383 C382 1.346 . S
C383 H390 0.929 . S
C384 O374 1.282 . S
C384 O385 1.216 . S
O385 C384 1.216 . S
H386 C381 0.930 . S
H387 C382 0.930 . S
O388 Cu368 1.959 . S
O388 C375 1.251 . S
H389 C372 0.930 . S
H390 C383 0.929 . S
Cu391 N392 1.999 1_554 S
Cu391 O397 1.974 . S
Cu391 N402 1.985 . S
Cu391 O411 1.959 . S
N392 Cu391 1.999 1_556 S
N392 C394 1.263 . S
N392 C396 1.389 . S
N393 C394 1.358 . S
N393 C395 1.400 . S
C394 N392 1.263 . S
C394 N393 1.358 . S
C394 H400 0.930 . S
C395 N393 1.400 . S
C395 C396 1.351 . S
C395 H412 0.930 . S
C396 N392 1.389 . S
C396 C395 1.351 . S
C396 H401 0.930 . S
O397 Cu391 1.974 . S
O397 C407 1.282 . S
C398 O399 1.261 . S
C398 O411 1.251 . S
O399 C398 1.261 . S
H400 C394 0.930 . S
H401 C396 0.930 . S
N402 Cu391 1.985 . S
N402 C404 1.335 . S
N402 C405 1.390 . S
N403 C404 1.345 . S
N403 C406 1.336 . S
C404 N402 1.335 . S
C404 N403 1.345 . S
C404 H409 0.930 . S
C405 N402 1.390 . S
C405 C406 1.346 . S
C405 H410 0.930 . S
C406 N403 1.336 . S
C406 C405 1.346 . S
C406 H413 0.929 . S
C407 O397 1.282 . S
C407 O408 1.216 . S
O408 C407 1.216 . S
H409 C404 0.930 . S
H410 C405 0.930 . S
O411 Cu391 1.959 . S
O411 C398 1.251 . S
H412 C395 0.930 . S
H413 C406 0.929 . S
Cu414 N415 1.999 . S
Cu414 O420 1.974 . S
Cu414 N425 1.985 . S
Cu414 O434 1.959 . S
N415 Cu414 1.999 . S
N415 C417 1.263 . S
N415 C419 1.389 . S
N416 C417 1.358 . S
N416 C418 1.400 . S
C417 N415 1.263 . S
C417 N416 1.358 . S
C417 H423 0.930 . S
C418 N416 1.400 . S
C418 C419 1.351 . S
C418 H435 0.930 . S
C419 N415 1.389 . S
C419 C418 1.351 . S
C419 H424 0.930 . S
O420 Cu414 1.974 . S
O420 C430 1.282 . S
C421 O422 1.261 . S
C421 O434 1.251 . S
O422 C421 1.261 . S
H423 C417 0.930 . S
H424 C419 0.930 . S
N425 Cu414 1.985 . S
N425 C427 1.335 . S
N425 C428 1.390 . S
N426 C427 1.345 . S
N426 C429 1.336 . S
C427 N425 1.335 . S
C427 N426 1.345 . S
C427 H432 0.930 . S
C428 N425 1.390 . S
C428 C429 1.346 . S
C428 H433 0.930 . S
C429 N426 1.336 . S
C429 C428 1.346 . S
C429 H436 0.929 . S
C430 O420 1.282 . S
C430 O431 1.216 . S
O431 C430 1.216 . S
H432 C427 0.930 . S
H433 C428 0.930 . S
O434 Cu414 1.959 . S
O434 C421 1.251 . S
H435 C418 0.930 . S
H436 C429 0.929 . S
Cu437 N438 1.999 . S
Cu437 O443 1.974 . S
Cu437 N448 1.985 . S
Cu437 O457 1.959 . S
N438 Cu437 1.999 . S
N438 C440 1.263 . S
N438 C442 1.389 . S
N439 C440 1.358 . S
N439 C441 1.400 . S
C440 N438 1.263 . S
C440 N439 1.358 . S
C440 H446 0.930 . S
C441 N439 1.400 . S
C441 C442 1.351 . S
C441 H458 0.930 . S
C442 N438 1.389 . S
C442 C441 1.351 . S
C442 H447 0.930 . S
O443 Cu437 1.974 . S
O443 C453 1.282 . S
C444 O445 1.261 . S
C444 O457 1.251 . S
O445 C444 1.261 . S
H446 C440 0.930 . S
H447 C442 0.930 . S
N448 Cu437 1.985 . S
N448 C450 1.335 . S
N448 C451 1.390 . S
N449 C450 1.345 . S
N449 C452 1.336 . S
C450 N448 1.335 . S
C450 N449 1.345 . S
C450 H455 0.930 . S
C451 N448 1.390 . S
C451 C452 1.346 . S
C451 H456 0.930 . S
C452 N449 1.336 . S
C452 C451 1.346 . S
C452 H459 0.929 . S
C453 O443 1.282 . S
C453 O454 1.216 . S
O454 C453 1.216 . S
H455 C450 0.930 . S
H456 C451 0.930 . S
O457 Cu437 1.959 . S
O457 C444 1.251 . S
H458 C441 0.930 . S
H459 C452 0.929 . S
Cu460 N461 1.999 . S
Cu460 O466 1.974 . S
Cu460 N471 1.985 . S
Cu460 O480 1.959 . S
N461 Cu460 1.999 . S
N461 C463 1.263 . S
N461 C465 1.389 . S
N462 C463 1.358 . S
N462 C464 1.400 . S
C463 N461 1.263 . S
C463 N462 1.358 . S
C463 H469 0.930 . S
C464 N462 1.400 . S
C464 C465 1.351 . S
C464 H481 0.930 . S
C465 N461 1.389 . S
C465 C464 1.351 . S
C465 H470 0.930 . S
O466 Cu460 1.974 . S
O466 C476 1.282 . S
C467 O468 1.261 . S
C467 O480 1.251 . S
O468 C467 1.261 . S
H469 C463 0.930 . S
H470 C465 0.930 . S
N471 Cu460 1.985 . S
N471 C473 1.335 . S
N471 C474 1.390 . S
N472 C473 1.345 . S
N472 C475 1.336 . S
C473 N471 1.335 . S
C473 N472 1.345 . S
C473 H478 0.930 . S
C474 N471 1.390 . S
C474 C475 1.346 . S
C474 H479 0.930 . S
C475 N472 1.336 . S
C475 C474 1.346 . S
C475 H482 0.929 . S
C476 O466 1.282 . S
C476 O477 1.216 . S
O477 C476 1.216 . S
H478 C473 0.930 . S
H479 C474 0.930 . S
O480 Cu460 1.959 . S
O480 C467 1.251 . S
H481 C464 0.930 . S
H482 C475 0.929 . S
Cu483 N484 1.999 1_556 S
Cu483 O489 1.974 . S
Cu483 N494 1.985 . S
Cu483 O503 1.959 . S
N484 Cu483 1.999 1_554 S
N484 C486 1.263 . S
N484 C488 1.389 . S
N485 C486 1.358 . S
N485 C487 1.400 . S
C486 N484 1.263 . S
C486 N485 1.358 . S
C486 H492 0.930 . S
C487 N485 1.400 . S
C487 C488 1.351 . S
C487 H504 0.930 . S
C488 N484 1.389 . S
C488 C487 1.351 . S
C488 H493 0.930 . S
O489 Cu483 1.974 . S
O489 C499 1.282 . S
C490 O491 1.261 . S
C490 O503 1.251 . S
O491 C490 1.261 . S
H492 C486 0.930 . S
H493 C488 0.930 . S
N494 Cu483 1.985 . S
N494 C496 1.335 . S
N494 C497 1.390 . S
N495 C496 1.345 . S
N495 C498 1.336 . S
C496 N494 1.335 . S
C496 N495 1.345 . S
C496 H501 0.930 . S
C497 N494 1.390 . S
C497 C498 1.346 . S
C497 H502 0.930 . S
C498 N495 1.336 . S
C498 C497 1.346 . S
C498 H505 0.929 . S
C499 O489 1.282 . S
C499 O500 1.216 . S
O500 C499 1.216 . S
H501 C496 0.930 . S
H502 C497 0.930 . S
O503 Cu483 1.959 . S
O503 C490 1.251 . S
H504 C487 0.930 . S
H505 C498 0.929 . S
Cu506 N507 1.999 . S
Cu506 O512 1.974 . S
Cu506 N517 1.985 . S
Cu506 O526 1.959 . S
N507 Cu506 1.999 . S
N507 C509 1.263 . S
N507 C511 1.389 . S
N508 C509 1.358 . S
N508 C510 1.400 . S
C509 N507 1.263 . S
C509 N508 1.358 . S
C509 H515 0.930 . S
C510 N508 1.400 . S
C510 C511 1.351 . S
C510 H527 0.930 . S
C511 N507 1.389 . S
C511 C510 1.351 . S
C511 H516 0.930 . S
O512 Cu506 1.974 . S
O512 C522 1.282 . S
C513 O514 1.261 . S
C513 O526 1.251 . S
O514 C513 1.261 . S
H515 C509 0.930 . S
H516 C511 0.930 . S
N517 Cu506 1.985 . S
N517 C519 1.335 . S
N517 C520 1.390 . S
N518 C519 1.345 . S
N518 C521 1.336 . S
C519 N517 1.335 . S
C519 N518 1.345 . S
C519 H524 0.930 . S
C520 N517 1.390 . S
C520 C521 1.346 . S
C520 H525 0.930 . S
C521 N518 1.336 . S
C521 C520 1.346 . S
C521 H528 0.929 . S
C522 O512 1.282 . S
C522 O523 1.216 . S
O523 C522 1.216 . S
H524 C519 0.930 . S
H525 C520 0.930 . S
O526 Cu506 1.959 . S
O526 C513 1.251 . S
H527 C510 0.930 . S
H528 C521 0.929 . S
Cu529 N530 1.999 . S
Cu529 O535 1.974 . S
Cu529 N540 1.985 . S
Cu529 O549 1.959 . S
N530 Cu529 1.999 . S
N530 C532 1.263 . S
N530 C534 1.389 . S
N531 C532 1.358 . S
N531 C533 1.400 . S
C532 N530 1.263 . S
C532 N531 1.358 . S
C532 H538 0.930 . S
C533 N531 1.400 . S
C533 C534 1.351 . S
C533 H550 0.930 . S
C534 N530 1.389 . S
C534 C533 1.351 . S
C534 H539 0.930 . S
O535 Cu529 1.974 . S
O535 C545 1.282 . S
C536 O537 1.261 . S
C536 O549 1.251 . S
O537 C536 1.261 . S
H538 C532 0.930 . S
H539 C534 0.930 . S
N540 Cu529 1.985 . S
N540 C542 1.335 . S
N540 C543 1.390 . S
N541 C542 1.345 . S
N541 C544 1.336 . S
C542 N540 1.335 . S
C542 N541 1.345 . S
C542 H547 0.930 . S
C543 N540 1.390 . S
C543 C544 1.346 . S
C543 H548 0.930 . S
C544 N541 1.336 . S
C544 C543 1.346 . S
C544 H551 0.929 . S
C545 O535 1.282 . S
C545 O546 1.216 . S
O546 C545 1.216 . S
H547 C542 0.930 . S
H548 C543 0.930 . S
O549 Cu529 1.959 . S
O549 C536 1.251 . S
H550 C533 0.930 . S
H551 C544 0.929 . S
Cu552 N553 1.999 . S
Cu552 O558 1.974 . S
Cu552 N563 1.985 . S
Cu552 O572 1.959 . S
N553 Cu552 1.999 . S
N553 C555 1.263 . S
N553 C557 1.389 . S
N554 C555 1.358 . S
N554 C556 1.400 . S
C555 N553 1.263 . S
C555 N554 1.358 . S
C555 H561 0.930 . S
C556 N554 1.400 . S
C556 C557 1.351 . S
C556 H573 0.930 . S
C557 N553 1.389 . S
C557 C556 1.351 . S
C557 H562 0.930 . S
O558 Cu552 1.974 . S
O558 C568 1.282 . S
C559 O560 1.261 . S
C559 O572 1.251 . S
O560 C559 1.261 . S
H561 C555 0.930 . S
H562 C557 0.930 . S
N563 Cu552 1.985 . S
N563 C565 1.335 . S
N563 C566 1.390 . S
N564 C565 1.345 . S
N564 C567 1.336 . S
C565 N563 1.335 . S
C565 N564 1.345 . S
C565 H570 0.930 . S
C566 N563 1.390 . S
C566 C567 1.346 . S
C566 H571 0.930 . S
C567 N564 1.336 . S
C567 C566 1.346 . S
C567 H574 0.929 . S
C568 O558 1.282 . S
C568 O569 1.216 . S
O569 C568 1.216 . S
H570 C565 0.930 . S
H571 C566 0.930 . S
O572 Cu552 1.959 . S
O572 C559 1.251 . S
H573 C556 0.930 . S
H574 C567 0.929 . S
Cu575 N576 1.999 . S
Cu575 O581 1.974 . S
Cu575 N586 1.985 . S
Cu575 O595 1.959 . S
N576 Cu575 1.999 . S
N576 C578 1.263 . S
N576 C580 1.389 . S
N577 C578 1.358 . S
N577 C579 1.400 . S
C578 N576 1.263 . S
C578 N577 1.358 . S
C578 H584 0.930 . S
C579 N577 1.400 . S
C579 C580 1.351 . S
C579 H596 0.930 . S
C580 N576 1.389 . S
C580 C579 1.351 . S
C580 H585 0.930 . S
O581 Cu575 1.974 . S
O581 C591 1.282 . S
C582 O583 1.261 . S
C582 O595 1.251 1_554 S
O583 C582 1.261 . S
H584 C578 0.930 . S
H585 C580 0.930 . S
N586 Cu575 1.985 . S
N586 C588 1.335 . S
N586 C589 1.390 . S
N587 C588 1.340 1_554 S
N587 C590 1.322 1_554 S
C588 N586 1.335 . S
C588 N587 1.340 1_556 S
C588 H593 0.930 1_556 S
C589 N586 1.390 . S
C589 C590 1.346 . S
C589 H594 0.930 . S
C590 N587 1.322 1_556 S
C590 C589 1.346 . S
C590 H597 0.929 . S
C591 O581 1.282 . S
C591 O592 1.216 . S
O592 C591 1.216 . S
H593 C588 0.930 1_554 S
H594 C589 0.930 . S
O595 Cu575 1.959 . S
O595 C582 1.251 1_556 S
H596 C579 0.930 . S
H597 C590 0.929 . S
Cu598 N599 1.999 . S
Cu598 O604 1.974 . S
Cu598 N609 1.985 . S
Cu598 O618 1.959 . S
N599 Cu598 1.999 . S
N599 C601 1.263 . S
N599 C603 1.389 . S
N600 C601 1.358 . S
N600 C602 1.400 . S
C601 N599 1.263 . S
C601 N600 1.358 . S
C601 H607 0.930 . S
C602 N600 1.400 . S
C602 C603 1.351 . S
C602 H619 0.930 . S
C603 N599 1.389 . S
C603 C602 1.351 . S
C603 H608 0.930 . S
O604 Cu598 1.974 . S
O604 C614 1.282 . S
C605 O606 1.261 . S
C605 O618 1.251 . S
O606 C605 1.261 . S
H607 C601 0.930 . S
H608 C603 0.930 . S
N609 Cu598 1.985 . S
N609 C611 1.335 . S
N609 C612 1.390 . S
N610 C611 1.345 . S
N610 C613 1.336 . S
C611 N609 1.335 . S
C611 N610 1.345 . S
C611 H616 0.930 . S
C612 N609 1.390 . S
C612 C613 1.346 . S
C612 H617 0.930 . S
C613 N610 1.336 . S
C613 C612 1.346 . S
C613 H620 0.929 . S
C614 O604 1.282 . S
C614 O615 1.216 . S
O615 C614 1.216 . S
H616 C611 0.930 . S
H617 C612 0.930 . S
O618 Cu598 1.959 . S
O618 C605 1.251 . S
H619 C602 0.930 . S
H620 C613 0.929 . S
Cu621 N622 1.999 . S
Cu621 O627 1.974 . S
Cu621 N632 1.985 . S
Cu621 O641 1.959 . S
N622 Cu621 1.999 . S
N622 C624 1.263 . S
N622 C626 1.389 . S
N623 C624 1.358 . S
N623 C625 1.400 . S
C624 N622 1.263 . S
C624 N623 1.358 . S
C624 H630 0.930 . S
C625 N623 1.400 . S
C625 C626 1.351 . S
C625 H642 0.930 . S
C626 N622 1.389 . S
C626 C625 1.351 . S
C626 H631 0.930 . S
O627 Cu621 1.974 . S
O627 C637 1.282 . S
C628 O629 1.261 . S
C628 O641 1.251 . S
O629 C628 1.261 . S
H630 C624 0.930 . S
H631 C626 0.930 . S
N632 Cu621 1.985 . S
N632 C634 1.335 . S
N632 C635 1.390 . S
N633 C634 1.345 . S
N633 C636 1.336 . S
C634 N632 1.335 . S
C634 N633 1.345 . S
C634 H639 0.930 . S
C635 N632 1.390 . S
C635 C636 1.346 . S
C635 H640 0.930 . S
C636 N633 1.336 . S
C636 C635 1.346 . S
C636 H643 0.929 . S
C637 O627 1.282 . S
C637 O638 1.216 . S
O638 C637 1.216 . S
H639 C634 0.930 . S
H640 C635 0.930 . S
O641 Cu621 1.959 . S
O641 C628 1.251 . S
H642 C625 0.930 . S
H643 C636 0.929 . S
Cu644 N645 1.999 . S
Cu644 O650 1.974 . S
Cu644 N655 1.985 . S
Cu644 O664 1.959 . S
N645 Cu644 1.999 . S
N645 C647 1.263 . S
N645 C649 1.389 . S
N646 C647 1.358 . S
N646 C648 1.400 . S
C647 N645 1.263 . S
C647 N646 1.358 . S
C647 H653 0.930 . S
C648 N646 1.400 . S
C648 C649 1.351 . S
C648 H665 0.930 . S
C649 N645 1.389 . S
C649 C648 1.351 . S
C649 H654 0.930 . S
O650 Cu644 1.974 . S
O650 C660 1.282 . S
C651 O652 1.261 . S
C651 O664 1.251 . S
O652 C651 1.261 . S
H653 C647 0.930 . S
H654 C649 0.930 . S
N655 Cu644 1.985 . S
N655 C657 1.335 . S
N655 C658 1.390 . S
N656 C657 1.345 . S
N656 C659 1.336 . S
C657 N655 1.335 . S
C657 N656 1.345 . S
C657 H662 0.930 . S
C658 N655 1.390 . S
C658 C659 1.346 . S
C658 H663 0.930 . S
C659 N656 1.336 . S
C659 C658 1.346 . S
C659 H666 0.929 . S
C660 O650 1.282 . S
C660 O661 1.216 . S
O661 C660 1.216 . S
H662 C657 0.930 . S
H663 C658 0.930 . S
O664 Cu644 1.959 . S
O664 C651 1.251 . S
H665 C648 0.930 . S
H666 C659 0.929 . S
Cu667 N668 1.999 . S
Cu667 O673 1.974 . S
Cu667 N678 1.985 . S
Cu667 O687 1.959 . S
N668 Cu667 1.999 . S
N668 C670 1.263 . S
N668 C672 1.389 . S
N669 C670 1.358 . S
N669 C671 1.400 . S
C670 N668 1.263 . S
C670 N669 1.358 . S
C670 H676 0.930 . S
C671 N669 1.400 . S
C671 C672 1.351 . S
C671 H688 0.930 . S
C672 N668 1.389 . S
C672 C671 1.351 . S
C672 H677 0.930 . S
O673 Cu667 1.974 . S
O673 C683 1.282 . S
C674 O675 1.261 . S
C674 O687 1.251 1_556 S
O675 C674 1.261 . S
H676 C670 0.930 . S
H677 C672 0.930 . S
N678 Cu667 1.985 . S
N678 C680 1.335 . S
N678 C681 1.390 . S
N679 C680 1.340 1_556 S
N679 C682 1.322 1_556 S
C680 N678 1.335 . S
C680 N679 1.340 1_554 S
C680 H685 0.930 1_554 S
C681 N678 1.390 . S
C681 C682 1.346 . S
C681 H686 0.930 . S
C682 N679 1.322 1_554 S
C682 C681 1.346 . S
C682 H689 0.929 . S
C683 O673 1.282 . S
C683 O684 1.216 . S
O684 C683 1.216 . S
H685 C680 0.930 1_556 S
H686 C681 0.930 . S
O687 Cu667 1.959 . S
O687 C674 1.251 1_554 S
H688 C671 0.930 . S
H689 C682 0.929 . S
Cu690 N691 1.999 . S
Cu690 O696 1.974 . S
Cu690 N701 1.985 . S
Cu690 O710 1.959 . S
N691 Cu690 1.999 . S
N691 C693 1.263 . S
N691 C695 1.389 . S
N692 C693 1.358 . S
N692 C694 1.400 . S
C693 N691 1.263 . S
C693 N692 1.358 . S
C693 H699 0.930 . S
C694 N692 1.400 . S
C694 C695 1.351 . S
C694 H711 0.930 . S
C695 N691 1.389 . S
C695 C694 1.351 . S
C695 H700 0.930 . S
O696 Cu690 1.974 . S
O696 C706 1.282 . S
C697 O698 1.261 . S
C697 O710 1.251 . S
O698 C697 1.261 . S
H699 C693 0.930 . S
H700 C695 0.930 . S
N701 Cu690 1.985 . S
N701 C703 1.335 . S
N701 C704 1.390 . S
N702 C703 1.345 . S
N702 C705 1.336 . S
C703 N701 1.335 . S
C703 N702 1.345 . S
C703 H708 0.930 . S
C704 N701 1.390 . S
C704 C705 1.346 . S
C704 H709 0.930 . S
C705 N702 1.336 . S
C705 C704 1.346 . S
C705 H712 0.929 . S
C706 O696 1.282 . S
C706 O707 1.216 . S
O707 C706 1.216 . S
H708 C703 0.930 . S
H709 C704 0.930 . S
O710 Cu690 1.959 . S
O710 C697 1.251 . S
H711 C694 0.930 . S
H712 C705 0.929 . S
Cu713 N714 1.999 . S
Cu713 O719 1.974 . S
Cu713 N724 1.985 . S
Cu713 O733 1.959 . S
N714 Cu713 1.999 . S
N714 C716 1.263 . S
N714 C718 1.389 . S
N715 C716 1.358 . S
N715 C717 1.400 . S
C716 N714 1.263 . S
C716 N715 1.358 . S
C716 H722 0.930 . S
C717 N715 1.400 . S
C717 C718 1.351 . S
C717 H734 0.930 . S
C718 N714 1.389 . S
C718 C717 1.351 . S
C718 H723 0.930 . S
O719 Cu713 1.974 . S
O719 C729 1.282 . S
C720 O721 1.261 . S
C720 O733 1.251 . S
O721 C720 1.261 . S
H722 C716 0.930 . S
H723 C718 0.930 . S
N724 Cu713 1.985 . S
N724 C726 1.335 . S
N724 C727 1.390 . S
N725 C726 1.345 . S
N725 C728 1.336 . S
C726 N724 1.335 . S
C726 N725 1.345 . S
C726 H731 0.930 . S
C727 N724 1.390 . S
C727 C728 1.346 . S
C727 H732 0.930 . S
C728 N725 1.336 . S
C728 C727 1.346 . S
C728 H735 0.929 . S
C729 O719 1.282 . S
C729 O730 1.216 . S
O730 C729 1.216 . S
H731 C726 0.930 . S
H732 C727 0.930 . S
O733 Cu713 1.959 . S
O733 C720 1.251 . S
H734 C717 0.930 . S
H735 C728 0.929 . S
C736 C737 1.369 . S
C736 C738 1.419 . S
C736 H740 0.930 . S
C737 C736 1.369 . S
C737 C746 1.429 . S
C738 C736 1.419 . S
C738 C739 1.363 . S
C738 H741 0.929 . S
C739 C738 1.363 . S
C739 C745 1.428 . S
H740 C736 0.930 . S
H741 C738 0.929 . S
S742 N743 1.613 . S
S742 N744 1.610 . S
N743 S742 1.613 . S
N743 C746 1.350 . S
N744 S742 1.610 . S
N744 C745 1.351 . S
C745 C739 1.428 . S
C745 N744 1.351 . S
C745 C746 1.434 . S
C746 C737 1.429 . S
C746 N743 1.350 . S
C746 C745 1.434 . S
C747 C748 1.369 . S
C747 C749 1.419 . S
C747 H751 0.930 . S
C748 C747 1.369 . S
C748 C757 1.429 . S
C749 C747 1.419 . S
C749 C750 1.363 . S
C749 H752 0.929 . S
C750 C749 1.363 . S
C750 C756 1.428 . S
H751 C747 0.930 . S
H752 C749 0.929 . S
S753 N754 1.613 . S
S753 N755 1.610 . S
N754 S753 1.613 . S
N754 C757 1.350 . S
N755 S753 1.610 . S
N755 C756 1.351 . S
C756 C750 1.428 . S
C756 N755 1.351 . S
C756 C757 1.434 . S
C757 C748 1.429 . S
C757 N754 1.350 . S
C757 C756 1.434 . S
C758 C759 1.369 . S
C758 C760 1.419 . S
C758 H762 0.930 . S
C759 C758 1.369 . S
C759 C768 1.429 . S
C760 C758 1.419 . S
C760 C761 1.363 . S
C760 H763 0.929 . S
C761 C760 1.363 . S
C761 C767 1.428 . S
H762 C758 0.930 . S
H763 C760 0.929 . S
S764 N765 1.613 . S
S764 N766 1.610 . S
N765 S764 1.613 . S
N765 C768 1.350 . S
N766 S764 1.610 . S
N766 C767 1.351 . S
C767 C761 1.428 . S
C767 N766 1.351 . S
C767 C768 1.434 . S
C768 C759 1.429 . S
C768 N765 1.350 . S
C768 C767 1.434 . S
C769 C770 1.369 . S
C769 C771 1.419 . S
C769 H773 0.930 . S
C770 C769 1.369 . S
C770 C779 1.429 . S
C771 C769 1.419 . S
C771 C772 1.363 . S
C771 H774 0.929 . S
C772 C771 1.363 . S
C772 C778 1.428 . S
H773 C769 0.930 . S
H774 C771 0.929 . S
S775 N776 1.613 . S
S775 N777 1.610 . S
N776 S775 1.613 . S
N776 C779 1.350 . S
N777 S775 1.610 . S
N777 C778 1.351 . S
C778 C772 1.428 . S
C778 N777 1.351 . S
C778 C779 1.434 . S
C779 C770 1.429 . S
C779 N776 1.350 . S
C779 C778 1.434 . S
C780 C781 1.369 . S
C780 C782 1.419 . S
C780 H784 0.930 . S
C781 C780 1.369 . S
C781 C790 1.429 . S
C782 C780 1.419 . S
C782 C783 1.363 . S
C782 H785 0.929 . S
C783 C782 1.363 . S
C783 C789 1.428 . S
H784 C780 0.930 . S
H785 C782 0.929 . S
S786 N787 1.613 . S
S786 N788 1.610 . S
N787 S786 1.613 . S
N787 C790 1.350 . S
N788 S786 1.610 . S
N788 C789 1.351 . S
C789 C783 1.428 . S
C789 N788 1.351 . S
C789 C790 1.434 . S
C790 C781 1.429 . S
C790 N787 1.350 . S
C790 C789 1.434 . S
C791 C792 1.369 . S
C791 C793 1.419 . S
C791 H795 0.930 . S
C792 C791 1.369 . S
C792 C801 1.429 . S
C793 C791 1.419 . S
C793 C794 1.363 . S
C793 H796 0.929 . S
C794 C793 1.363 . S
C794 C800 1.428 . S
H795 C791 0.930 . S
H796 C793 0.929 . S
S797 N798 1.613 . S
S797 N799 1.610 . S
N798 S797 1.613 . S
N798 C801 1.350 . S
N799 S797 1.610 . S
N799 C800 1.351 . S
C800 C794 1.428 . S
C800 N799 1.351 . S
C800 C801 1.434 . S
C801 C792 1.429 . S
C801 N798 1.350 . S
C801 C800 1.434 . S
C802 C803 1.369 . S
C802 C804 1.419 . S
C802 H806 0.930 . S
C803 C802 1.369 . S
C803 C812 1.429 . S
C804 C802 1.419 . S
C804 C805 1.363 . S
C804 H807 0.929 . S
C805 C804 1.363 . S
C805 C811 1.428 . S
H806 C802 0.930 . S
H807 C804 0.929 . S
S808 N809 1.613 . S
S808 N810 1.610 . S
N809 S808 1.613 . S
N809 C812 1.350 . S
N810 S808 1.610 . S
N810 C811 1.351 . S
C811 C805 1.428 . S
C811 N810 1.351 . S
C811 C812 1.434 . S
C812 C803 1.429 . S
C812 N809 1.350 . S
C812 C811 1.434 . S
C813 C814 1.369 . S
C813 C815 1.419 . S
C813 H817 0.930 . S
C814 C813 1.369 . S
C814 C823 1.429 . S
C815 C813 1.419 . S
C815 C816 1.363 . S
C815 H818 0.929 . S
C816 C815 1.363 . S
C816 C822 1.428 . S
H817 C813 0.930 . S
H818 C815 0.929 . S
S819 N820 1.613 . S
S819 N821 1.610 . S
N820 S819 1.613 . S
N820 C823 1.350 . S
N821 S819 1.610 . S
N821 C822 1.351 . S
C822 C816 1.428 . S
C822 N821 1.351 . S
C822 C823 1.434 . S
C823 C814 1.429 . S
C823 N820 1.350 . S
C823 C822 1.434 . S
C824 C825 1.369 . S
C824 C826 1.419 . S
C824 H828 0.930 . S
C825 C824 1.369 . S
C825 C834 1.429 . S
C826 C824 1.419 . S
C826 C827 1.363 . S
C826 H829 0.929 . S
C827 C826 1.363 . S
C827 C833 1.428 . S
H828 C824 0.930 . S
H829 C826 0.929 . S
S830 N831 1.613 . S
S830 N832 1.610 . S
N831 S830 1.613 . S
N831 C834 1.350 . S
N832 S830 1.610 . S
N832 C833 1.351 . S
C833 C827 1.428 . S
C833 N832 1.351 . S
C833 C834 1.434 . S
C834 C825 1.429 . S
C834 N831 1.350 . S
C834 C833 1.434 . S
C835 C836 1.369 . S
C835 C837 1.419 . S
C835 H839 0.930 . S
C836 C835 1.369 . S
C836 C845 1.429 . S
C837 C835 1.419 . S
C837 C838 1.363 . S
C837 H840 0.929 . S
C838 C837 1.363 . S
C838 C844 1.428 . S
H839 C835 0.930 . S
H840 C837 0.929 . S
S841 N842 1.613 . S
S841 N843 1.610 . S
N842 S841 1.613 . S
N842 C845 1.350 . S
N843 S841 1.610 . S
N843 C844 1.351 . S
C844 C838 1.428 . S
C844 N843 1.351 . S
C844 C845 1.434 . S
C845 C836 1.429 . S
C845 N842 1.350 . S
C845 C844 1.434 . S
C846 C847 1.369 . S
C846 C848 1.419 . S
C846 H850 0.930 . S
C847 C846 1.369 . S
C847 C856 1.429 . S
C848 C846 1.419 . S
C848 C849 1.363 . S
C848 H851 0.929 . S
C849 C848 1.363 . S
C849 C855 1.428 . S
H850 C846 0.930 . S
H851 C848 0.929 . S
S852 N853 1.613 . S
S852 N854 1.610 . S
N853 S852 1.613 . S
N853 C856 1.350 . S
N854 S852 1.610 . S
N854 C855 1.351 . S
C855 C849 1.428 . S
C855 N854 1.351 . S
C855 C856 1.434 . S
C856 C847 1.429 . S
C856 N853 1.350 . S
C856 C855 1.434 . S
C857 C858 1.369 . S
C857 C859 1.419 . S
C857 H861 0.930 . S
C858 C857 1.369 . S
C858 C867 1.429 . S
C859 C857 1.419 . S
C859 C860 1.363 . S
C859 H862 0.929 . S
C860 C859 1.363 . S
C860 C866 1.428 . S
H861 C857 0.930 . S
H862 C859 0.929 . S
S863 N864 1.613 . S
S863 N865 1.610 . S
N864 S863 1.613 . S
N864 C867 1.350 . S
N865 S863 1.610 . S
N865 C866 1.351 . S
C866 C860 1.428 . S
C866 N865 1.351 . S
C866 C867 1.434 . S
C867 C858 1.429 . S
C867 N864 1.350 . S
C867 C866 1.434 . S
C868 C869 1.369 . S
C868 C870 1.419 . S
C868 H872 0.930 . S
C869 C868 1.369 . S
C869 C878 1.429 . S
C870 C868 1.419 . S
C870 C871 1.363 . S
C870 H873 0.929 . S
C871 C870 1.363 . S
C871 C877 1.428 . S
H872 C868 0.930 . S
H873 C870 0.929 . S
S874 N875 1.613 . S
S874 N876 1.610 . S
N875 S874 1.613 . S
N875 C878 1.350 . S
N876 S874 1.610 . S
N876 C877 1.351 . S
C877 C871 1.428 . S
C877 N876 1.351 . S
C877 C878 1.434 . S
C878 C869 1.429 . S
C878 N875 1.350 . S
C878 C877 1.434 . S
C879 C880 1.369 . S
C879 C881 1.419 . S
C879 H883 0.930 . S
C880 C879 1.369 . S
C880 C889 1.429 . S
C881 C879 1.419 . S
C881 C882 1.363 . S
C881 H884 0.929 . S
C882 C881 1.363 . S
C882 C888 1.428 . S
H883 C879 0.930 . S
H884 C881 0.929 . S
S885 N886 1.613 . S
S885 N887 1.610 . S
N886 S885 1.613 . S
N886 C889 1.350 . S
N887 S885 1.610 . S
N887 C888 1.351 . S
C888 C882 1.428 . S
C888 N887 1.351 . S
C888 C889 1.434 . S
C889 C880 1.429 . S
C889 N886 1.350 . S
C889 C888 1.434 . S
C890 C891 1.369 . S
C890 C892 1.419 . S
C890 H894 0.930 . S
C891 C890 1.369 . S
C891 C900 1.429 . S
C892 C890 1.419 . S
C892 C893 1.363 . S
C892 H895 0.929 . S
C893 C892 1.363 . S
C893 C899 1.428 . S
H894 C890 0.930 . S
H895 C892 0.929 . S
S896 N897 1.613 . S
S896 N898 1.610 . S
N897 S896 1.613 . S
N897 C900 1.350 . S
N898 S896 1.610 . S
N898 C899 1.351 . S
C899 C893 1.428 . S
C899 N898 1.351 . S
C899 C900 1.434 . S
C900 C891 1.429 . S
C900 N897 1.350 . S
C900 C899 1.434 . S
C901 C902 1.369 . S
C901 C903 1.419 . S
C901 H905 0.930 . S
C902 C901 1.369 . S
C902 C911 1.429 . S
C903 C901 1.419 . S
C903 C904 1.363 . S
C903 H906 0.929 . S
C904 C903 1.363 . S
C904 C910 1.428 . S
H905 C901 0.930 . S
H906 C903 0.929 . S
S907 N908 1.613 . S
S907 N909 1.610 . S
N908 S907 1.613 . S
N908 C911 1.350 . S
N909 S907 1.610 . S
N909 C910 1.351 . S
C910 C904 1.428 . S
C910 N909 1.351 . S
C910 C911 1.434 . S
C911 C902 1.429 . S
C911 N908 1.350 . S
C911 C910 1.434 . S
C912 C913 1.369 . S
C912 C914 1.419 . S
C912 H916 0.930 . S
C913 C912 1.369 . S
C913 C922 1.429 . S
C914 C912 1.419 . S
C914 C915 1.363 . S
C914 H917 0.929 . S
C915 C914 1.363 . S
C915 C921 1.428 . S
H916 C912 0.930 . S
H917 C914 0.929 . S
S918 N919 1.613 . S
S918 N920 1.610 . S
N919 S918 1.613 . S
N919 C922 1.350 . S
N920 S918 1.610 . S
N920 C921 1.351 . S
C921 C915 1.428 . S
C921 N920 1.351 . S
C921 C922 1.434 . S
C922 C913 1.429 . S
C922 N919 1.350 . S
C922 C921 1.434 . S
C923 C924 1.369 . S
C923 C925 1.419 . S
C923 H927 0.930 . S
C924 C923 1.369 . S
C924 C933 1.429 . S
C925 C923 1.419 . S
C925 C926 1.369 . S
C925 H928 0.929 1_655 S
C926 C925 1.369 . S
C926 C932 1.444 . S
H927 C923 0.930 . S
H928 C925 0.929 1_455 S
S929 N930 1.613 . S
S929 N931 1.610 . S
N930 S929 1.613 . S
N930 C933 1.350 . S
N931 S929 1.610 . S
N931 C932 1.351 . S
C932 C926 1.444 . S
C932 N931 1.351 . S
C932 C933 1.434 . S
C933 C924 1.429 . S
C933 N930 1.350 . S
C933 C932 1.434 . S
C934 C935 1.369 . S
C934 C936 1.419 . S
C934 H938 0.930 . S
C935 C934 1.369 . S
C935 C944 1.429 . S
C936 C934 1.419 . S
C936 C937 1.363 . S
C936 H939 0.929 . S
C937 C936 1.363 . S
C937 C943 1.428 . S
H938 C934 0.930 . S
H939 C936 0.929 . S
S940 N941 1.613 . S
S940 N942 1.610 . S
N941 S940 1.613 . S
N941 C944 1.350 . S
N942 S940 1.610 . S
N942 C943 1.351 . S
C943 C937 1.428 . S
C943 N942 1.351 . S
C943 C944 1.434 . S
C944 C935 1.429 . S
C944 N941 1.350 . S
C944 C943 1.434 . S
C945 C946 1.369 . S
C945 C947 1.419 . S
C945 H949 0.930 . S
C946 C945 1.369 . S
C946 C955 1.429 . S
C947 C945 1.419 . S
C947 C948 1.363 . S
C947 H950 0.929 . S
C948 C947 1.363 . S
C948 C954 1.428 . S
H949 C945 0.930 . S
H950 C947 0.929 . S
S951 N952 1.613 . S
S951 N953 1.610 . S
N952 S951 1.613 . S
N952 C955 1.350 . S
N953 S951 1.610 . S
N953 C954 1.351 . S
C954 C948 1.428 . S
C954 N953 1.351 . S
C954 C955 1.434 . S
C955 C946 1.429 . S
C955 N952 1.350 . S
C955 C954 1.434 . S
C956 C957 1.369 . S
C956 C958 1.419 . S
C956 H960 0.930 . S
C957 C956 1.369 . S
C957 C966 1.429 . S
C958 C956 1.419 . S
C958 C959 1.363 . S
C958 H961 0.929 . S
C959 C958 1.363 . S
C959 C965 1.428 . S
H960 C956 0.930 . S
H961 C958 0.929 . S
S962 N963 1.613 . S
S962 N964 1.610 . S
N963 S962 1.613 . S
N963 C966 1.350 . S
N964 S962 1.610 . S
N964 C965 1.351 . S
C965 C959 1.428 . S
C965 N964 1.351 . S
C965 C966 1.434 . S
C966 C957 1.429 . S
C966 N963 1.350 . S
C966 C965 1.434 . S
C967 C968 1.369 . S
C967 C969 1.419 . S
C967 H971 0.930 . S
C968 C967 1.369 . S
C968 C977 1.429 . S
C969 C967 1.419 . S
C969 C970 1.363 . S
C969 H972 0.929 . S
C970 C969 1.363 . S
C970 C976 1.428 . S
H971 C967 0.930 . S
H972 C969 0.929 . S
S973 N974 1.613 . S
S973 N975 1.610 . S
N974 S973 1.613 . S
N974 C977 1.350 . S
N975 S973 1.610 . S
N975 C976 1.351 . S
C976 C970 1.428 . S
C976 N975 1.351 . S
C976 C977 1.434 . S
C977 C968 1.429 . S
C977 N974 1.350 . S
C977 C976 1.434 . S
C978 C979 1.369 . S
C978 C980 1.419 . S
C978 H982 0.930 . S
C979 C978 1.369 . S
C979 C988 1.429 . S
C980 C978 1.419 . S
C980 C981 1.363 . S
C980 H983 0.929 . S
C981 C980 1.363 . S
C981 C987 1.428 . S
H982 C978 0.930 . S
H983 C980 0.929 . S
S984 N985 1.613 . S
S984 N986 1.610 . S
N985 S984 1.613 . S
N985 C988 1.350 . S
N986 S984 1.610 . S
N986 C987 1.351 . S
C987 C981 1.428 . S
C987 N986 1.351 . S
C987 C988 1.434 . S
C988 C979 1.429 . S
C988 N985 1.350 . S
C988 C987 1.434 . S
C989 C990 1.376 . S
C989 C991 1.419 . S
C989 H993 0.930 1_655 S
C990 C989 1.376 . S
C990 C999 1.449 . S
C991 C989 1.419 . S
C991 C992 1.363 . S
C991 H994 0.929 . S
C992 C991 1.363 . S
C992 C998 1.428 . S
H993 C989 0.930 1_455 S
H994 C991 0.929 . S
S995 N996 1.613 . S
S995 N997 1.610 . S
N996 S995 1.613 . S
N996 C999 1.350 . S
N997 S995 1.610 . S
N997 C998 1.351 . S
C998 C992 1.428 . S
C998 N997 1.351 . S
C998 C999 1.434 . S
C999 C990 1.449 . S
C999 N996 1.350 . S
C999 C998 1.434 . S
C1000 C1001 1.369 . S
C1000 C1002 1.419 . S
C1000 H1004 0.930 . S
C1001 C1000 1.369 . S
C1001 C1010 1.429 . S
C1002 C1000 1.419 . S
C1002 C1003 1.363 . S
C1002 H1005 0.929 . S
C1003 C1002 1.363 . S
C1003 C1009 1.428 . S
H1004 C1000 0.930 . S
H1005 C1002 0.929 . S
S1006 N1007 1.613 . S
S1006 N1008 1.610 . S
N1007 S1006 1.613 . S
N1007 C1010 1.350 . S
N1008 S1006 1.610 . S
N1008 C1009 1.351 . S
C1009 C1003 1.428 . S
C1009 N1008 1.351 . S
C1009 C1010 1.434 . S
C1010 C1001 1.429 . S
C1010 N1007 1.350 . S
C1010 C1009 1.434 . S
C1011 C1012 1.369 . S
C1011 C1013 1.419 . S
C1011 H1015 0.930 . S
C1012 C1011 1.369 . S
C1012 C1021 1.429 . S
C1013 C1011 1.419 . S
C1013 C1014 1.363 1_655 S
C1013 H1016 0.929 . S
C1014 C1013 1.363 1_455 S
C1014 C1020 1.428 . S
H1015 C1011 0.930 . S
H1016 C1013 0.929 . S
S1017 N1018 1.613 1_455 S
S1017 N1019 1.610 . S
N1018 S1017 1.613 1_655 S
N1018 C1021 1.350 . S
N1019 S1017 1.610 . S
N1019 C1020 1.351 . S
C1020 C1014 1.428 . S
C1020 N1019 1.351 . S
C1020 C1021 1.434 1_455 S
C1021 C1012 1.429 . S
C1021 N1018 1.350 . S
C1021 C1020 1.434 1_655 S
C1022 C1023 1.369 . S
C1022 C1024 1.419 . S
C1022 H1026 0.930 . S
C1023 C1022 1.369 . S
C1023 C1032 1.429 . S
C1024 C1022 1.419 . S
C1024 C1025 1.363 . S
C1024 H1027 0.929 . S
C1025 C1024 1.363 . S
C1025 C1031 1.428 . S
H1026 C1022 0.930 . S
H1027 C1024 0.929 . S
S1028 N1029 1.613 . S
S1028 N1030 1.610 . S
N1029 S1028 1.613 . S
N1029 C1032 1.350 . S
N1030 S1028 1.610 . S
N1030 C1031 1.351 . S
C1031 C1025 1.428 . S
C1031 N1030 1.351 . S
C1031 C1032 1.434 . S
C1032 C1023 1.429 . S
C1032 N1029 1.350 . S
C1032 C1031 1.434 . S
C1033 C1034 1.369 . S
C1033 C1035 1.419 . S
C1033 H1037 0.930 . S
C1034 C1033 1.369 . S
C1034 C1043 1.429 . S
C1035 C1033 1.419 . S
C1035 C1036 1.363 . S
C1035 H1038 0.929 . S
C1036 C1035 1.363 . S
C1036 C1042 1.428 . S
H1037 C1033 0.930 . S
H1038 C1035 0.929 . S
S1039 N1040 1.613 . S
S1039 N1041 1.610 . S
N1040 S1039 1.613 . S
N1040 C1043 1.350 . S
N1041 S1039 1.610 . S
N1041 C1042 1.351 . S
C1042 C1036 1.428 . S
C1042 N1041 1.351 . S
C1042 C1043 1.434 . S
C1043 C1034 1.429 . S
C1043 N1040 1.350 . S
C1043 C1042 1.434 . S
C1044 C1045 1.369 . S
C1044 C1046 1.419 . S
C1044 H1048 0.930 . S
C1045 C1044 1.369 . S
C1045 C1054 1.429 . S
C1046 C1044 1.419 . S
C1046 C1047 1.363 . S
C1046 H1049 0.929 . S
C1047 C1046 1.363 . S
C1047 C1053 1.428 . S
H1048 C1044 0.930 . S
H1049 C1046 0.929 . S
S1050 N1051 1.613 . S
S1050 N1052 1.610 . S
N1051 S1050 1.613 . S
N1051 C1054 1.350 . S
N1052 S1050 1.610 . S
N1052 C1053 1.351 . S
C1053 C1047 1.428 . S
C1053 N1052 1.351 . S
C1053 C1054 1.434 . S
C1054 C1045 1.429 . S
C1054 N1051 1.350 . S
C1054 C1053 1.434 . S
C1055 C1056 1.369 . S
C1055 C1057 1.419 . S
C1055 H1059 0.930 . S
C1056 C1055 1.369 . S
C1056 C1065 1.429 . S
C1057 C1055 1.419 . S
C1057 C1058 1.363 . S
C1057 H1060 0.929 . S
C1058 C1057 1.363 . S
C1058 C1064 1.428 . S
H1059 C1055 0.930 . S
H1060 C1057 0.929 . S
S1061 N1062 1.613 . S
S1061 N1063 1.610 . S
N1062 S1061 1.613 . S
N1062 C1065 1.350 . S
N1063 S1061 1.610 . S
N1063 C1064 1.351 . S
C1064 C1058 1.428 . S
C1064 N1063 1.351 . S
C1064 C1065 1.434 . S
C1065 C1056 1.429 . S
C1065 N1062 1.350 . S
C1065 C1064 1.434 . S
C1066 C1067 1.369 . S
C1066 C1068 1.419 . S
C1066 H1070 0.930 . S
C1067 C1066 1.369 . S
C1067 C1076 1.429 . S
C1068 C1066 1.419 . S
C1068 C1069 1.363 . S
C1068 H1071 0.929 . S
C1069 C1068 1.363 . S
C1069 C1075 1.428 . S
H1070 C1066 0.930 . S
H1071 C1068 0.929 . S
S1072 N1073 1.613 . S
S1072 N1074 1.610 . S
N1073 S1072 1.613 . S
N1073 C1076 1.350 . S
N1074 S1072 1.610 . S
N1074 C1075 1.351 . S
C1075 C1069 1.428 . S
C1075 N1074 1.351 . S
C1075 C1076 1.434 . S
C1076 C1067 1.429 . S
C1076 N1073 1.350 . S
C1076 C1075 1.434 . S
C1077 C1078 1.369 1_655 S
C1077 C1079 1.419 . S
C1077 H1081 0.930 . S
C1078 C1077 1.369 1_455 S
C1078 C1087 1.429 . S
C1079 C1077 1.419 . S
C1079 C1080 1.363 . S
C1079 H1082 0.929 . S
C1080 C1079 1.363 . S
C1080 C1086 1.428 . S
H1081 C1077 0.930 . S
H1082 C1079 0.929 . S
S1083 N1084 1.613 . S
S1083 N1085 1.610 1_455 S
N1084 S1083 1.613 . S
N1084 C1087 1.350 . S
N1085 S1083 1.610 1_655 S
N1085 C1086 1.351 . S
C1086 C1080 1.428 . S
C1086 N1085 1.351 . S
C1086 C1087 1.434 1_655 S
C1087 C1078 1.429 . S
C1087 N1084 1.350 . S
C1087 C1086 1.434 1_455 S
C1088 C1089 1.369 . S
C1088 C1090 1.419 . S
C1088 H1092 0.930 . S
C1089 C1088 1.369 . S
C1089 C1098 1.429 . S
C1090 C1088 1.419 . S
C1090 C1091 1.363 . S
C1090 H1093 0.929 . S
C1091 C1090 1.363 . S
C1091 C1097 1.428 . S
H1092 C1088 0.930 . S
H1093 C1090 0.929 . S
S1094 N1095 1.613 . S
S1094 N1096 1.610 . S
N1095 S1094 1.613 . S
N1095 C1098 1.350 . S
N1096 S1094 1.610 . S
N1096 C1097 1.351 . S
C1097 C1091 1.428 . S
C1097 N1096 1.351 . S
C1097 C1098 1.434 . S
C1098 C1089 1.429 . S
C1098 N1095 1.350 . S
C1098 C1097 1.434 . S
C1099 C1100 1.369 . S
C1099 C1101 1.419 . S
C1099 H1103 0.930 . S
C1100 C1099 1.369 . S
C1100 C1109 1.429 . S
C1101 C1099 1.419 . S
C1101 C1102 1.363 . S
C1101 H1104 0.929 . S
C1102 C1101 1.363 . S
C1102 C1108 1.428 . S
H1103 C1099 0.930 . S
H1104 C1101 0.929 . S
S1105 N1106 1.613 . S
S1105 N1107 1.610 . S
N1106 S1105 1.613 . S
N1106 C1109 1.350 . S
N1107 S1105 1.610 . S
N1107 C1108 1.351 . S
C1108 C1102 1.428 . S
C1108 N1107 1.351 . S
C1108 C1109 1.434 . S
C1109 C1100 1.429 . S
C1109 N1106 1.350 . S
C1109 C1108 1.434 . S
C1110 C1111 1.369 . S
C1110 C1112 1.419 . S
C1110 H1114 0.930 . S
C1111 C1110 1.369 . S
C1111 C1120 1.429 . S
C1112 C1110 1.419 . S
C1112 C1113 1.363 . S
C1112 H1115 0.929 . S
C1113 C1112 1.363 . S
C1113 C1119 1.428 . S
H1114 C1110 0.930 . S
H1115 C1112 0.929 . S
S1116 N1117 1.613 . S
S1116 N1118 1.610 . S
N1117 S1116 1.613 . S
N1117 C1120 1.350 . S
N1118 S1116 1.610 . S
N1118 C1119 1.351 . S
C1119 C1113 1.428 . S
C1119 N1118 1.351 . S
C1119 C1120 1.434 . S
C1120 C1111 1.429 . S
C1120 N1117 1.350 . S
C1120 C1119 1.434 . S
C1121 C1122 1.369 . S
C1121 C1123 1.419 . S
C1121 H1125 0.930 . S
C1122 C1121 1.369 . S
C1122 C1131 1.429 . S
C1123 C1121 1.419 . S
C1123 C1124 1.377 . S
C1123 H1126 0.929 . S
C1124 C1123 1.377 . S
C1124 C1130 1.429 . S
H1125 C1121 0.930 . S
H1126 C1123 0.929 . S
S1127 N1128 1.613 1_655 S
S1127 N1129 1.610 . S
N1128 S1127 1.613 1_455 S
N1128 C1131 1.350 . S
N1129 S1127 1.610 . S
N1129 C1130 1.351 1_655 S
C1130 C1124 1.429 . S
C1130 N1129 1.351 1_455 S
C1130 C1131 1.434 . S
C1131 C1122 1.429 . S
C1131 N1128 1.350 . S
C1131 C1130 1.434 . S
C1132 C1133 1.369 . S
C1132 C1134 1.419 . S
C1132 H1136 0.930 . S
C1133 C1132 1.369 . S
C1133 C1142 1.429 . S
C1134 C1132 1.419 . S
C1134 C1135 1.363 . S
C1134 H1137 0.929 . S
C1135 C1134 1.363 . S
C1135 C1141 1.428 . S
H1136 C1132 0.930 . S
H1137 C1134 0.929 . S
S1138 N1139 1.613 . S
S1138 N1140 1.610 . S
N1139 S1138 1.613 . S
N1139 C1142 1.350 . S
N1140 S1138 1.610 . S
N1140 C1141 1.351 . S
C1141 C1135 1.428 . S
C1141 N1140 1.351 . S
C1141 C1142 1.434 . S
C1142 C1133 1.429 . S
C1142 N1139 1.350 . S
C1142 C1141 1.434 . S
C1143 C1144 1.380 . S
C1143 C1145 1.419 . S
C1143 H1147 0.930 . S
C1144 C1143 1.380 . S
C1144 C1153 1.430 . S
C1145 C1143 1.419 . S
C1145 C1146 1.363 . S
C1145 H1148 0.929 . S
C1146 C1145 1.363 . S
C1146 C1152 1.428 . S
H1147 C1143 0.930 . S
H1148 C1145 0.929 . S
S1149 N1150 1.613 . S
S1149 N1151 1.610 1_655 S
N1150 S1149 1.613 . S
N1150 C1153 1.350 1_655 S
N1151 S1149 1.610 1_455 S
N1151 C1152 1.351 . S
C1152 C1146 1.428 . S
C1152 N1151 1.351 . S
C1152 C1153 1.434 . S
C1153 C1144 1.430 . S
C1153 N1150 1.350 1_455 S
C1153 C1152 1.434 . S
C1154 C1155 1.369 . S
C1154 C1156 1.419 . S
C1154 H1158 0.930 . S
C1155 C1154 1.369 . S
C1155 C1164 1.429 . S
C1156 C1154 1.419 . S
C1156 C1157 1.363 . S
C1156 H1159 0.929 . S
C1157 C1156 1.363 . S
C1157 C1163 1.428 . S
H1158 C1154 0.930 . S
H1159 C1156 0.929 . S
S1160 N1161 1.613 . S
S1160 N1162 1.610 . S
N1161 S1160 1.613 . S
N1161 C1164 1.350 . S
N1162 S1160 1.610 . S
N1162 C1163 1.351 . S
C1163 C1157 1.428 . S
C1163 N1162 1.351 . S
C1163 C1164 1.434 . S
C1164 C1155 1.429 . S
C1164 N1161 1.350 . S
C1164 C1163 1.434 . S
C1165 C1166 1.369 . S
C1165 C1167 1.419 . S
C1165 H1169 0.930 . S
C1166 C1165 1.369 . S
C1166 C1175 1.429 . S
C1167 C1165 1.419 . S
C1167 C1168 1.363 . S
C1167 H1170 0.929 . S
C1168 C1167 1.363 . S
C1168 C1174 1.428 . S
H1169 C1165 0.930 . S
H1170 C1167 0.929 . S
S1171 N1172 1.613 . S
S1171 N1173 1.610 . S
N1172 S1171 1.613 . S
N1172 C1175 1.350 . S
N1173 S1171 1.610 . S
N1173 C1174 1.351 . S
C1174 C1168 1.428 . S
C1174 N1173 1.351 . S
C1174 C1175 1.434 . S
C1175 C1166 1.429 . S
C1175 N1172 1.350 . S
C1175 C1174 1.434 . S
C1176 C1177 1.369 . S
C1176 C1178 1.419 . S
C1176 H1180 0.930 . S
C1177 C1176 1.369 . S
C1177 C1186 1.429 . S
C1178 C1176 1.419 . S
C1178 C1179 1.363 . S
C1178 H1181 0.929 . S
C1179 C1178 1.363 . S
C1179 C1185 1.428 . S
H1180 C1176 0.930 . S
H1181 C1178 0.929 . S
S1182 N1183 1.613 . S
S1182 N1184 1.610 . S
N1183 S1182 1.613 . S
N1183 C1186 1.350 . S
N1184 S1182 1.610 . S
N1184 C1185 1.351 . S
C1185 C1179 1.428 . S
C1185 N1184 1.351 . S
C1185 C1186 1.434 . S
C1186 C1177 1.429 . S
C1186 N1183 1.350 . S
C1186 C1185 1.434 . S
C1187 C1188 1.369 . S
C1187 C1189 1.419 . S
C1187 H1191 0.930 . S
C1188 C1187 1.369 . S
C1188 C1197 1.429 . S
C1189 C1187 1.419 . S
C1189 C1190 1.363 . S
C1189 H1192 0.929 . S
C1190 C1189 1.363 . S
C1190 C1196 1.428 . S
H1191 C1187 0.930 . S
H1192 C1189 0.929 . S
S1193 N1194 1.613 . S
S1193 N1195 1.610 . S
N1194 S1193 1.613 . S
N1194 C1197 1.350 . S
N1195 S1193 1.610 . S
N1195 C1196 1.351 . S
C1196 C1190 1.428 . S
C1196 N1195 1.351 . S
C1196 C1197 1.434 . S
C1197 C1188 1.429 . S
C1197 N1194 1.350 . S
C1197 C1196 1.434 . S
C1198 C1199 1.369 . S
C1198 C1200 1.419 . S
C1198 H1202 0.930 . S
C1199 C1198 1.369 . S
C1199 C1208 1.429 . S
C1200 C1198 1.419 . S
C1200 C1201 1.363 . S
C1200 H1203 0.929 . S
C1201 C1200 1.363 . S
C1201 C1207 1.428 . S
H1202 C1198 0.930 . S
H1203 C1200 0.929 . S
S1204 N1205 1.613 . S
S1204 N1206 1.610 . S
N1205 S1204 1.613 . S
N1205 C1208 1.350 . S
N1206 S1204 1.610 . S
N1206 C1207 1.351 . S
C1207 C1201 1.428 . S
C1207 N1206 1.351 . S
C1207 C1208 1.434 . S
C1208 C1199 1.429 . S
C1208 N1205 1.350 . S
C1208 C1207 1.434 . S
C1209 C1210 1.369 1_455 S
C1209 C1211 1.419 . S
C1209 H1213 0.930 . S
C1210 C1209 1.369 1_655 S
C1210 C1219 1.429 . S
C1211 C1209 1.419 . S
C1211 C1212 1.363 . S
C1211 H1214 0.929 . S
C1212 C1211 1.363 . S
C1212 C1218 1.428 . S
H1213 C1209 0.930 . S
H1214 C1211 0.929 . S
S1215 N1216 1.613 . S
S1215 N1217 1.610 1_655 S
N1216 S1215 1.613 . S
N1216 C1219 1.350 . S
N1217 S1215 1.610 1_455 S
N1217 C1218 1.351 . S
C1218 C1212 1.428 . S
C1218 N1217 1.351 . S
C1218 C1219 1.434 1_455 S
C1219 C1210 1.429 . S
C1219 N1216 1.350 . S
C1219 C1218 1.434 1_655 S
C1220 C1221 1.369 . S
C1220 C1222 1.419 . S
C1220 H1224 0.930 . S
C1221 C1220 1.369 . S
C1221 C1230 1.429 . S
C1222 C1220 1.419 . S
C1222 C1223 1.363 . S
C1222 H1225 0.929 . S
C1223 C1222 1.363 . S
C1223 C1229 1.428 . S
H1224 C1220 0.930 . S
H1225 C1222 0.929 . S
S1226 N1227 1.613 . S
S1226 N1228 1.610 . S
N1227 S1226 1.613 . S
N1227 C1230 1.350 . S
N1228 S1226 1.610 . S
N1228 C1229 1.351 . S
C1229 C1223 1.428 . S
C1229 N1228 1.351 . S
C1229 C1230 1.434 . S
C1230 C1221 1.429 . S
C1230 N1227 1.350 . S
C1230 C1229 1.434 . S
C1231 C1232 1.369 . S
C1231 C1233 1.419 . S
C1231 H1235 0.930 . S
C1232 C1231 1.369 . S
C1232 C1241 1.429 . S
C1233 C1231 1.419 . S
C1233 C1234 1.363 1_455 S
C1233 H1236 0.929 . S
C1234 C1233 1.363 1_655 S
C1234 C1240 1.428 . S
H1235 C1231 0.930 . S
H1236 C1233 0.929 . S
S1237 N1238 1.613 1_655 S
S1237 N1239 1.610 . S
N1238 S1237 1.613 1_455 S
N1238 C1241 1.350 . S
N1239 S1237 1.610 . S
N1239 C1240 1.351 . S
C1240 C1234 1.428 . S
C1240 N1239 1.351 . S
C1240 C1241 1.434 1_655 S
C1241 C1232 1.429 . S
C1241 N1238 1.350 . S
C1241 C1240 1.434 1_455 S
C1242 C1243 1.369 . S
C1242 C1244 1.419 . S
C1242 H1246 0.930 . S
C1243 C1242 1.369 . S
C1243 C1252 1.429 . S
C1244 C1242 1.419 . S
C1244 C1245 1.363 . S
C1244 H1247 0.929 . S
C1245 C1244 1.363 . S
C1245 C1251 1.428 . S
H1246 C1242 0.930 . S
H1247 C1244 0.929 . S
S1248 N1249 1.613 . S
S1248 N1250 1.610 . S
N1249 S1248 1.613 . S
N1249 C1252 1.350 . S
N1250 S1248 1.610 . S
N1250 C1251 1.351 . S
C1251 C1245 1.428 . S
C1251 N1250 1.351 . S
C1251 C1252 1.434 . S
C1252 C1243 1.429 . S
C1252 N1249 1.350 . S
C1252 C1251 1.434 . S
C1253 C1254 1.369 . S
C1253 C1255 1.419 . S
C1253 H1257 0.930 . S
C1254 C1253 1.369 . S
C1254 C1263 1.429 . S
C1255 C1253 1.419 . S
C1255 C1256 1.363 . S
C1255 H1258 0.929 . S
C1256 C1255 1.363 . S
C1256 C1262 1.428 . S
H1257 C1253 0.930 . S
H1258 C1255 0.929 . S
S1259 N1260 1.613 . S
S1259 N1261 1.610 . S
N1260 S1259 1.613 . S
N1260 C1263 1.350 . S
N1261 S1259 1.610 . S
N1261 C1262 1.351 . S
C1262 C1256 1.428 . S
C1262 N1261 1.351 . S
C1262 C1263 1.434 . S
C1263 C1254 1.429 . S
C1263 N1260 1.350 . S
C1263 C1262 1.434 . S
C1264 C1265 1.369 . S
C1264 C1266 1.419 . S
C1264 H1268 0.930 . S
C1265 C1264 1.369 . S
C1265 C1274 1.429 . S
C1266 C1264 1.419 . S
C1266 C1267 1.363 . S
C1266 H1269 0.929 . S
C1267 C1266 1.363 . S
C1267 C1273 1.428 . S
H1268 C1264 0.930 . S
H1269 C1266 0.929 . S
S1270 N1271 1.613 . S
S1270 N1272 1.610 . S
N1271 S1270 1.613 . S
N1271 C1274 1.350 . S
N1272 S1270 1.610 . S
N1272 C1273 1.351 . S
C1273 C1267 1.428 . S
C1273 N1272 1.351 . S
C1273 C1274 1.434 . S
C1274 C1265 1.429 . S
C1274 N1271 1.350 . S
C1274 C1273 1.434 . S
C1275 C1276 1.369 . S
C1275 C1277 1.419 . S
C1275 H1279 0.930 . S
C1276 C1275 1.369 . S
C1276 C1285 1.429 . S
C1277 C1275 1.419 . S
C1277 C1278 1.363 . S
C1277 H1280 0.929 . S
C1278 C1277 1.363 . S
C1278 C1284 1.428 . S
H1279 C1275 0.930 . S
H1280 C1277 0.929 . S
S1281 N1282 1.613 . S
S1281 N1283 1.610 . S
N1282 S1281 1.613 . S
N1282 C1285 1.350 . S
N1283 S1281 1.610 . S
N1283 C1284 1.351 . S
C1284 C1278 1.428 . S
C1284 N1283 1.351 . S
C1284 C1285 1.434 . S
C1285 C1276 1.429 . S
C1285 N1282 1.350 . S
C1285 C1284 1.434 . S
C1286 C1287 1.369 . S
C1286 C1288 1.419 . S
C1286 H1290 0.930 . S
C1287 C1286 1.369 . S
C1287 C1296 1.429 . S
C1288 C1286 1.419 . S
C1288 C1289 1.363 . S
C1288 H1291 0.929 . S
C1289 C1288 1.363 . S
C1289 C1295 1.428 . S
H1290 C1286 0.930 . S
H1291 C1288 0.929 . S
S1292 N1293 1.613 . S
S1292 N1294 1.610 . S
N1293 S1292 1.613 . S
N1293 C1296 1.350 . S
N1294 S1292 1.610 . S
N1294 C1295 1.351 . S
C1295 C1289 1.428 . S
C1295 N1294 1.351 . S
C1295 C1296 1.434 . S
C1296 C1287 1.429 . S
C1296 N1293 1.350 . S
C1296 C1295 1.434 . S
C1297 C1298 1.369 . S
C1297 C1299 1.419 . S
C1297 H1301 0.930 . S
C1298 C1297 1.369 . S
C1298 C1307 1.429 1_556 S
C1299 C1297 1.419 . S
C1299 C1300 1.363 1_556 S
C1299 H1302 0.929 . S
C1300 C1299 1.363 1_554 S
C1300 C1306 1.428 . S
H1301 C1297 0.930 . S
H1302 C1299 0.929 . S
S1303 N1304 1.613 . S
S1303 N1305 1.610 . S
N1304 S1303 1.613 . S
N1304 C1307 1.350 . S
N1305 S1303 1.610 . S
N1305 C1306 1.351 . S
C1306 C1300 1.428 . S
C1306 N1305 1.351 . S
C1306 C1307 1.434 . S
C1307 C1298 1.429 1_554 S
C1307 N1304 1.350 . S
C1307 C1306 1.434 . S
C1308 C1309 1.369 . S
C1308 C1310 1.419 . S
C1308 H1312 0.930 . S
C1309 C1308 1.369 . S
C1309 C1318 1.429 . S
C1310 C1308 1.419 . S
C1310 C1311 1.363 . S
C1310 H1313 0.929 . S
C1311 C1310 1.363 . S
C1311 C1317 1.428 . S
H1312 C1308 0.930 . S
H1313 C1310 0.929 . S
S1314 N1315 1.613 . S
S1314 N1316 1.610 . S
N1315 S1314 1.613 . S
N1315 C1318 1.350 . S
N1316 S1314 1.610 . S
N1316 C1317 1.351 . S
C1317 C1311 1.428 . S
C1317 N1316 1.351 . S
C1317 C1318 1.434 . S
C1318 C1309 1.429 . S
C1318 N1315 1.350 . S
C1318 C1317 1.434 . S
C1319 C1320 1.369 . S
C1319 C1321 1.419 . S
C1319 H1323 0.930 . S
C1320 C1319 1.369 . S
C1320 C1329 1.429 . S
C1321 C1319 1.419 . S
C1321 C1322 1.363 . S
C1321 H1324 0.929 . S
C1322 C1321 1.363 . S
C1322 C1328 1.428 . S
H1323 C1319 0.930 . S
H1324 C1321 0.929 . S
S1325 N1326 1.613 . S
S1325 N1327 1.610 . S
N1326 S1325 1.613 . S
N1326 C1329 1.350 . S
N1327 S1325 1.610 . S
N1327 C1328 1.351 . S
C1328 C1322 1.428 . S
C1328 N1327 1.351 . S
C1328 C1329 1.434 . S
C1329 C1320 1.429 . S
C1329 N1326 1.350 . S
C1329 C1328 1.434 . S
C1330 C1331 1.369 . S
C1330 C1332 1.419 . S
C1330 H1334 0.930 . S
C1331 C1330 1.369 . S
C1331 C1340 1.429 . S
C1332 C1330 1.419 . S
C1332 C1333 1.363 . S
C1332 H1335 0.929 . S
C1333 C1332 1.363 . S
C1333 C1339 1.428 . S
H1334 C1330 0.930 . S
H1335 C1332 0.929 . S
S1336 N1337 1.613 . S
S1336 N1338 1.610 . S
N1337 S1336 1.613 . S
N1337 C1340 1.350 . S
N1338 S1336 1.610 . S
N1338 C1339 1.351 . S
C1339 C1333 1.428 . S
C1339 N1338 1.351 . S
C1339 C1340 1.434 . S
C1340 C1331 1.429 . S
C1340 N1337 1.350 . S
C1340 C1339 1.434 . S
C1341 C1342 1.369 . S
C1341 C1343 1.419 . S
C1341 H1345 0.930 . S
C1342 C1341 1.369 . S
C1342 C1351 1.429 1_556 S
C1343 C1341 1.419 . S
C1343 C1344 1.363 1_556 S
C1343 H1346 0.929 . S
C1344 C1343 1.363 1_554 S
C1344 C1350 1.428 . S
H1345 C1341 0.930 . S
H1346 C1343 0.929 . S
S1347 N1348 1.613 . S
S1347 N1349 1.610 . S
N1348 S1347 1.613 . S
N1348 C1351 1.350 . S
N1349 S1347 1.610 . S
N1349 C1350 1.351 . S
C1350 C1344 1.428 . S
C1350 N1349 1.351 . S
C1350 C1351 1.434 . S
C1351 C1342 1.429 1_554 S
C1351 N1348 1.350 . S
C1351 C1350 1.434 . S
C1352 C1353 1.369 . S
C1352 C1354 1.419 1_565 S
C1352 H1356 0.930 . S
C1353 C1352 1.369 . S
C1353 C1362 1.429 . S
C1354 C1352 1.419 1_545 S
C1354 C1355 1.363 . S
C1354 H1357 0.929 . S
C1355 C1354 1.363 . S
C1355 C1361 1.428 . S
H1356 C1352 0.930 . S
H1357 C1354 0.929 . S
S1358 N1359 1.613 . S
S1358 N1360 1.610 1_565 S
N1359 S1358 1.613 . S
N1359 C1362 1.350 . S
N1360 S1358 1.610 1_545 S
N1360 C1361 1.351 . S
C1361 C1355 1.428 . S
C1361 N1360 1.351 . S
C1361 C1362 1.434 1_545 S
C1362 C1353 1.429 . S
C1362 N1359 1.350 . S
C1362 C1361 1.434 1_565 S
C1363 C1364 1.369 1_556 S
C1363 C1365 1.419 . S
C1363 H1367 0.930 . S
C1364 C1363 1.369 1_554 S
C1364 C1373 1.429 . S
C1365 C1363 1.419 . S
C1365 C1366 1.363 . S
C1365 H1368 0.929 . S
C1366 C1365 1.363 . S
C1366 C1372 1.428 1_556 S
H1367 C1363 0.930 . S
H1368 C1365 0.929 . S
S1369 N1370 1.613 . S
S1369 N1371 1.610 . S
N1370 S1369 1.613 . S
N1370 C1373 1.350 . S
N1371 S1369 1.610 . S
N1371 C1372 1.351 . S
C1372 C1366 1.428 1_554 S
C1372 N1371 1.351 . S
C1372 C1373 1.434 . S
C1373 C1364 1.429 . S
C1373 N1370 1.350 . S
C1373 C1372 1.434 . S
C1374 C1375 1.369 . S
C1374 C1376 1.419 1_545 S
C1374 H1378 0.930 . S
C1375 C1374 1.369 . S
C1375 C1384 1.429 . S
C1376 C1374 1.419 1_565 S
C1376 C1377 1.363 . S
C1376 H1379 0.929 . S
C1377 C1376 1.363 . S
C1377 C1383 1.428 . S
H1378 C1374 0.930 . S
H1379 C1376 0.929 . S
S1380 N1381 1.613 . S
S1380 N1382 1.610 1_545 S
N1381 S1380 1.613 . S
N1381 C1384 1.350 . S
N1382 S1380 1.610 1_565 S
N1382 C1383 1.351 . S
C1383 C1377 1.428 . S
C1383 N1382 1.351 . S
C1383 C1384 1.434 1_565 S
C1384 C1375 1.429 . S
C1384 N1381 1.350 . S
C1384 C1383 1.434 1_545 S
C1385 C1386 1.369 . S
C1385 C1387 1.419 . S
C1385 H1389 0.930 . S
C1386 C1385 1.369 . S
C1386 C1395 1.429 . S
C1387 C1385 1.419 . S
C1387 C1388 1.363 . S
C1387 H1390 0.929 . S
C1388 C1387 1.363 . S
C1388 C1394 1.428 . S
H1389 C1385 0.930 . S
H1390 C1387 0.929 . S
S1391 N1392 1.613 . S
S1391 N1393 1.610 . S
N1392 S1391 1.613 . S
N1392 C1395 1.350 . S
N1393 S1391 1.610 . S
N1393 C1394 1.351 . S
C1394 C1388 1.428 . S
C1394 N1393 1.351 . S
C1394 C1395 1.434 . S
C1395 C1386 1.429 . S
C1395 N1392 1.350 . S
C1395 C1394 1.434 . S
C1396 C1397 1.369 . S
C1396 C1398 1.419 1_545 S
C1396 H1400 0.930 . S
C1397 C1396 1.369 . S
C1397 C1406 1.429 . S
C1398 C1396 1.419 1_565 S
C1398 C1399 1.363 . S
C1398 H1401 0.929 . S
C1399 C1398 1.363 . S
C1399 C1405 1.428 . S
H1400 C1396 0.930 . S
H1401 C1398 0.929 . S
S1402 N1403 1.613 . S
S1402 N1404 1.610 1_545 S
N1403 S1402 1.613 . S
N1403 C1406 1.350 . S
N1404 S1402 1.610 1_565 S
N1404 C1405 1.351 . S
C1405 C1399 1.428 . S
C1405 N1404 1.351 . S
C1405 C1406 1.434 1_565 S
C1406 C1397 1.429 . S
C1406 N1403 1.350 . S
C1406 C1405 1.434 1_545 S
C1407 C1408 1.369 1_554 S
C1407 C1409 1.419 . S
C1407 H1411 0.930 . S
C1408 C1407 1.369 1_556 S
C1408 C1417 1.429 . S
C1409 C1407 1.419 . S
C1409 C1410 1.363 . S
C1409 H1412 0.929 . S
C1410 C1409 1.363 . S
C1410 C1416 1.428 1_554 S
H1411 C1407 0.930 . S
H1412 C1409 0.929 . S
S1413 N1414 1.613 . S
S1413 N1415 1.610 . S
N1414 S1413 1.613 . S
N1414 C1417 1.350 . S
N1415 S1413 1.610 . S
N1415 C1416 1.351 . S
C1416 C1410 1.428 1_556 S
C1416 N1415 1.351 . S
C1416 C1417 1.434 . S
C1417 C1408 1.429 . S
C1417 N1414 1.350 . S
C1417 C1416 1.434 . S
C1418 C1419 1.369 . S
C1418 C1420 1.419 1_545 S
C1418 H1422 0.930 . S
C1419 C1418 1.369 . S
C1419 C1428 1.429 . S
C1420 C1418 1.419 1_565 S
C1420 C1421 1.363 . S
C1420 H1423 0.929 . S
C1421 C1420 1.363 . S
C1421 C1427 1.428 . S
H1422 C1418 0.930 . S
H1423 C1420 0.929 . S
S1424 N1425 1.613 1_565 S
S1424 N1426 1.610 . S
N1425 S1424 1.613 1_545 S
N1425 C1428 1.350 . S
N1426 S1424 1.610 . S
N1426 C1427 1.351 . S
C1427 C1421 1.428 . S
C1427 N1426 1.351 . S
C1427 C1428 1.434 1_565 S
C1428 C1419 1.429 . S
C1428 N1425 1.350 . S
C1428 C1427 1.434 1_545 S
C1429 C1430 1.369 . S
C1429 C1431 1.419 . S
C1429 H1433 0.930 . S
C1430 C1429 1.369 . S
C1430 C1439 1.429 . S
C1431 C1429 1.419 . S
C1431 C1432 1.363 . S
C1431 H1434 0.929 . S
C1432 C1431 1.363 . S
C1432 C1438 1.428 . S
H1433 C1429 0.930 . S
H1434 C1431 0.929 . S
S1435 N1436 1.613 . S
S1435 N1437 1.610 . S
N1436 S1435 1.613 . S
N1436 C1439 1.350 . S
N1437 S1435 1.610 . S
N1437 C1438 1.351 . S
C1438 C1432 1.428 . S
C1438 N1437 1.351 . S
C1438 C1439 1.434 . S
C1439 C1430 1.429 . S
C1439 N1436 1.350 . S
C1439 C1438 1.434 . S
C737 C7 2.105 . S
C739 N485 1.902 . S
C748 C513 2.110 . S
C750 N25 1.907 . S
C759 C53 2.107 . S
C761 N531 1.898 . S
C770 C467 2.107 . S
C772 N71 1.907 . S
C781 C99 2.107 . S
C783 N439 1.898 . S
C792 N117 1.898 . S
C794 C375 2.106 . S
C803 N393 1.907 . S
C805 C145 2.106 . S
C814 N163 1.897 . S
C816 C421 2.108 . S
C825 C191 2.316 . S
C827 C674 2.298 . S
C836 C214 2.293 . S
C838 C697 2.312 . S
C847 C720 2.299 . S
C849 C237 2.315 . S
C858 C651 2.313 . S
C860 C260 2.294 . S
C869 C283 2.314 . S
C871 C628 2.298 . S
C880 C559 2.315 . S
C882 C306 2.296 . S
C891 C329 2.315 . S
C893 C582 2.295 . S
C902 C605 2.313 . S
C904 C352 2.298 . S
C913 N2 1.852 . S
C915 C223 1.767 . S
C924 C30 2.027 . S
C926 C614 1.901 1_655 S
C935 C269 1.775 . S
C937 N48 1.851 . S
C946 C76 2.028 . S
C948 C568 1.920 . S
C957 N94 1.848 . S
C959 C361 1.773 . S
C968 C660 1.920 . S
C970 C122 2.028 . S
C979 C315 1.774 . S
C981 N140 1.852 . S
C990 C706 1.894 1_655 S
C992 C168 2.027 . S
C1001 N186 1.616 . S
C1003 N35 1.674 . S
C1012 C430 1.368 . S
C1014 N209 1.383 . S
C1023 N81 1.674 . S
C1025 N232 1.609 . S
C1034 N255 1.381 . S
C1036 C384 1.373 . S
C1045 N173 1.673 . S
C1047 N278 1.617 . S
C1056 C476 1.365 . S
C1058 N301 1.391 . S
C1067 N127 1.670 . S
C1069 N324 1.609 . S
C1078 N347 1.383 . S
C1080 C522 1.368 . S
C1089 C591 1.766 . S
C1091 N370 1.850 . S
C1100 C246 1.921 . S
C1102 C398 2.028 . S
C1111 C637 1.776 . S
C1113 N416 1.851 . S
C1122 C444 2.028 . S
C1124 C200 1.907 1_455 S
C1133 C729 1.767 . S
C1135 N462 1.849 . S
C1144 C292 1.911 1_455 S
C1146 C490 2.028 . S
C1155 C683 1.766 . S
C1157 N508 1.850 . S
C1166 C536 2.027 . S
C1168 C338 1.916 . S
C1177 N554 1.608 . S
C1179 N403 1.673 . S
C1188 C62 1.369 . S
C1190 N577 1.383 . S
C1199 N600 1.609 . S
C1201 N449 1.669 . S
C1210 N623 1.383 . S
C1212 C16 1.368 . S
C1221 N646 1.616 . S
C1223 N541 1.668 . S
C1232 C108 1.375 . S
C1234 N669 1.382 . S
C1243 N495 1.671 . S
C1245 N692 1.618 . S
C1254 N715 1.392 . S
C1256 C154 1.367 . S
C1265 N12 1.552 . S
C1267 N104 1.545 . S
C1276 C39 1.738 . S
C1278 C131 1.743 . S
C1287 N150 1.545 . S
C1289 N58 1.552 . S
C1298 C177 1.741 . S
C1300 C85 1.739 . S
C1309 N288 1.489 . S
C1311 N196 1.480 . S
C1320 N311 1.402 . S
C1322 N219 1.395 . S
C1331 N334 1.489 . S
C1333 N242 1.480 . S
C1342 N357 1.393 . S
C1344 N265 1.405 . S
C1353 N380 1.552 . S
C1355 N472 1.545 . S
C1364 C407 1.739 . S
C1366 C499 1.743 . S
C1375 N426 1.552 . S
C1377 N518 1.545 . S
C1386 C545 1.743 . S
C1388 C453 1.742 . S
C1397 N564 1.477 . S
C1399 N656 1.487 . S
C1408 N679 1.407 . S
C1410 N587 1.395 . S
C1419 N702 1.489 . S
C1421 N610 1.481 . S
C1430 N725 1.393 . S
C1432 N633 1.401 . S
