# Generated by pormake.
# Topology whw, (6)-cn, num edge types: 1
# Building blocks:
#     Node 0, Type 0, BuildingBlock: BETFEN_clean_sbu_0, # of connection points: 6
#     Node 1, Type 0, BuildingBlock: BETFEN_clean_sbu_0, # of connection points: 6
#     Node 2, Type 0, BuildingBlock: BETFEN_clean_sbu_0, # of connection points: 6
#     Node 3, Type 0, BuildingBlock: BETFEN_clean_sbu_0, # of connection points: 6
#     Node 4, Type 0, BuildingBlock: BETFEN_clean_sbu_0, # of connection points: 6
#     Node 5, Type 0, BuildingBlock: BETFEN_clean_sbu_0, # of connection points: 6
#     Node 6, Type 0, BuildingBlock: BETFEN_clean_sbu_0, # of connection points: 6
#     Node 7, Type 0, BuildingBlock: BETFEN_clean_sbu_0, # of connection points: 6
#     Node 8, Type 0, BuildingBlock: BETFEN_clean_sbu_0, # of connection points: 6
#     Node 9, Type 0, BuildingBlock: BETFEN_clean_sbu_0, # of connection points: 6
#     Node 10, Type 0, BuildingBlock: BETFEN_clean_sbu_0, # of connection points: 6
#     Node 11, Type 0, BuildingBlock: BETFEN_clean_sbu_0, # of connection points: 6
#     Node 12, Type 0, BuildingBlock: BETFEN_clean_sbu_0, # of connection points: 6
#     Node 13, Type 0, BuildingBlock: BETFEN_clean_sbu_0, # of connection points: 6
#     Node 14, Type 0, BuildingBlock: BETFEN_clean_sbu_0, # of connection points: 6
#     Node 15, Type 0, BuildingBlock: BETFEN_clean_sbu_0, # of connection points: 6
#     Edge 16, Type (0, 0), BuildingBlock: TEMPAE_clean_linker_10, # of connection points: 2
#     Edge 17, Type (0, 0), BuildingBlock: TEMPAE_clean_linker_10, # of connection points: 2
#     Edge 18, Type (0, 0), BuildingBlock: TEMPAE_clean_linker_10, # of connection points: 2
#     Edge 19, Type (0, 0), BuildingBlock: TEMPAE_clean_linker_10, # of connection points: 2
#     Edge 20, Type (0, 0), BuildingBlock: TEMPAE_clean_linker_10, # of connection points: 2
#     Edge 21, Type (0, 0), BuildingBlock: TEMPAE_clean_linker_10, # of connection points: 2
#     Edge 22, Type (0, 0), BuildingBlock: TEMPAE_clean_linker_10, # of connection points: 2
#     Edge 23, Type (0, 0), BuildingBlock: TEMPAE_clean_linker_10, # of connection points: 2
#     Edge 24, Type (0, 0), BuildingBlock: TEMPAE_clean_linker_10, # of connection points: 2
#     Edge 25, Type (0, 0), BuildingBlock: TEMPAE_clean_linker_10, # of connection points: 2
#     Edge 26, Type (0, 0), BuildingBlock: TEMPAE_clean_linker_10, # of connection points: 2
#     Edge 27, Type (0, 0), BuildingBlock: TEMPAE_clean_linker_10, # of connection points: 2
#     Edge 28, Type (0, 0), BuildingBlock: TEMPAE_clean_linker_10, # of connection points: 2
#     Edge 29, Type (0, 0), BuildingBlock: TEMPAE_clean_linker_10, # of connection points: 2
#     Edge 30, Type (0, 0), BuildingBlock: TEMPAE_clean_linker_10, # of connection points: 2
#     Edge 31, Type (0, 0), BuildingBlock: TEMPAE_clean_linker_10, # of connection points: 2
#     Edge 32, Type (0, 0), BuildingBlock: TEMPAE_clean_linker_10, # of connection points: 2
#     Edge 33, Type (0, 0), BuildingBlock: TEMPAE_clean_linker_10, # of connection points: 2
#     Edge 34, Type (0, 0), BuildingBlock: TEMPAE_clean_linker_10, # of connection points: 2
#     Edge 35, Type (0, 0), BuildingBlock: TEMPAE_clean_linker_10, # of connection points: 2
#     Edge 36, Type (0, 0), BuildingBlock: TEMPAE_clean_linker_10, # of connection points: 2
#     Edge 37, Type (0, 0), BuildingBlock: TEMPAE_clean_linker_10, # of connection points: 2
#     Edge 38, Type (0, 0), BuildingBlock: TEMPAE_clean_linker_10, # of connection points: 2
#     Edge 39, Type (0, 0), BuildingBlock: TEMPAE_clean_linker_10, # of connection points: 2
#     Edge 40, Type (0, 0), BuildingBlock: TEMPAE_clean_linker_10, # of connection points: 2
#     Edge 41, Type (0, 0), BuildingBlock: TEMPAE_clean_linker_10, # of connection points: 2
#     Edge 42, Type (0, 0), BuildingBlock: TEMPAE_clean_linker_10, # of connection points: 2
#     Edge 43, Type (0, 0), BuildingBlock: TEMPAE_clean_linker_10, # of connection points: 2
#     Edge 44, Type (0, 0), BuildingBlock: TEMPAE_clean_linker_10, # of connection points: 2
#     Edge 45, Type (0, 0), BuildingBlock: TEMPAE_clean_linker_10, # of connection points: 2
#     Edge 46, Type (0, 0), BuildingBlock: TEMPAE_clean_linker_10, # of connection points: 2
#     Edge 47, Type (0, 0), BuildingBlock: TEMPAE_clean_linker_10, # of connection points: 2
#     Edge 48, Type (0, 0), BuildingBlock: TEMPAE_clean_linker_10, # of connection points: 2
#     Edge 49, Type (0, 0), BuildingBlock: TEMPAE_clean_linker_10, # of connection points: 2
#     Edge 50, Type (0, 0), BuildingBlock: TEMPAE_clean_linker_10, # of connection points: 2
#     Edge 51, Type (0, 0), BuildingBlock: TEMPAE_clean_linker_10, # of connection points: 2
#     Edge 52, Type (0, 0), BuildingBlock: TEMPAE_clean_linker_10, # of connection points: 2
#     Edge 53, Type (0, 0), BuildingBlock: TEMPAE_clean_linker_10, # of connection points: 2
#     Edge 54, Type (0, 0), BuildingBlock: TEMPAE_clean_linker_10, # of connection points: 2
#     Edge 55, Type (0, 0), BuildingBlock: TEMPAE_clean_linker_10, # of connection points: 2
#     Edge 56, Type (0, 0), BuildingBlock: TEMPAE_clean_linker_10, # of connection points: 2
#     Edge 57, Type (0, 0), BuildingBlock: TEMPAE_clean_linker_10, # of connection points: 2
#     Edge 58, Type (0, 0), BuildingBlock: TEMPAE_clean_linker_10, # of connection points: 2
#     Edge 59, Type (0, 0), BuildingBlock: TEMPAE_clean_linker_10, # of connection points: 2
#     Edge 60, Type (0, 0), BuildingBlock: TEMPAE_clean_linker_10, # of connection points: 2
#     Edge 61, Type (0, 0), BuildingBlock: TEMPAE_clean_linker_10, # of connection points: 2
#     Edge 62, Type (0, 0), BuildingBlock: TEMPAE_clean_linker_10, # of connection points: 2
#     Edge 63, Type (0, 0), BuildingBlock: TEMPAE_clean_linker_10, # of connection points: 2
# Relax obj value: 0.353
# Max RMSD: 0.239
# Mean RMSD: 0.209
data_MOF--net-whw--node1-BETFEN_clean_sbu_0--edge1-TEMPAE_clean_linker_10
_symmetry_space_group_name_H-M    P1
_symmetry_Int_Tables_number       1
_symmetry_cell_setting            triclinic
loop_
_symmetry_equiv_pos_as_xyz
'x, y, z'
_cell_length_a     46.981818
_cell_length_b     46.829123
_cell_length_c     35.486594
_cell_angle_alpha  90.024719
_cell_angle_beta   83.957531
_cell_angle_gamma 93.604233
loop_
_atom_site_label
_atom_site_type_symbol
_atom_site_fract_x
_atom_site_fract_y
_atom_site_fract_z
_atom_type_partial_charge
Pr0 Pr 0.01651 0.13067 0.18711 0.0
Pr1 Pr -0.00771 0.15169 0.10197 0.0
C2 C 0.03274 0.13884 0.25802 0.0
C3 C 0.04173 0.14338 0.29752 0.0
C4 C 0.06919 0.15552 0.30325 0.0
C5 C 0.07655 0.16247 0.34 0.0
C6 C 0.05652 0.15827 0.37245 0.0
C7 C 0.02901 0.14619 0.36658 0.0
C8 C 0.02189 0.1386 0.32995 0.0
C9 C 0.01184 0.08668 0.13371 0.0
C10 C 0.94668 0.1271 0.17532 0.0
C11 C 0.9691 0.16037 0.03585 0.0
C12 C 0.96511 0.17284 0.99761 0.0
C13 C 0.93768 0.18025 0.99009 0.0
C14 C 0.93226 0.18934 0.95375 0.0
C15 C 0.95418 0.19177 0.92314 0.0
C16 C 0.98194 0.18489 0.93111 0.0
C17 C 0.98723 0.17538 0.96751 0.0
C18 C 0.00888 0.19153 0.15506 0.0
C19 C 0.06179 0.14654 0.10971 0.0
O20 O 0.01155 0.12061 0.25082 0.0
O21 O 0.04657 0.15131 0.22774 0.0
O22 O 0.00494 0.11208 0.13192 0.0
O23 O 0.02175 0.08241 0.16638 0.0
O24 O 0.95075 0.13203 0.13823 0.0
O25 O 0.96705 0.12899 0.19851 0.0
O26 O 0.98931 0.14266 0.03925 0.0
O27 O 0.96125 0.17381 0.06739 0.0
O28 O -0.0044 0.1679 0.16151 0.0
O29 O 0.01343 0.19671 0.11872 0.0
O30 O 0.05824 0.14422 0.14721 0.0
O31 O 0.04082 0.14603 0.08731 0.0
H32 H 0.08499 0.16005 0.27918 0.0
H33 H 0.09784 0.17194 0.34284 0.0
H34 H 0.01288 0.14242 0.39047 0.0
H35 H 0.00038 0.12983 0.3269 0.0
H36 H 0.91998 0.17825 1.0123 0.0
H37 H 0.91044 0.19363 0.94968 0.0
H38 H -0.00014 0.18682 0.9093 0.0
H39 H 0.00866 0.16981 0.97195 0.0
Pr40 Pr 0.15944 0.79117 0.39892 0.0
Pr41 Pr 0.15615 0.73354 0.35433 0.0
C42 C 0.15447 0.83324 0.45043 0.0
C43 C 0.14529 0.8381 0.4908 0.0
C44 C 0.16186 0.85735 0.51099 0.0
C45 C 0.15308 0.86371 0.54869 0.0
C46 C 0.12733 0.85112 0.56701 0.0
C47 C 0.11105 0.83122 0.54693 0.0
C48 C 0.12 0.82469 0.50917 0.0
C49 C 0.20737 0.78364 0.34835 0.0
C50 C 0.16395 0.72792 0.44327 0.0
C51 C 0.157 0.69224 0.30122 0.0
C52 C 0.14924 0.68914 0.26205 0.0
C53 C 0.12648 0.70363 0.24993 0.0
C54 C 0.11693 0.69781 0.21449 0.0
C55 C 0.13012 0.67758 0.19018 0.0
C56 C 0.15387 0.66427 0.20178 0.0
C57 C 0.16321 0.66989 0.2374 0.0
C58 C 0.1079 0.74488 0.40198 0.0
C59 C 0.14036 0.79515 0.31389 0.0
O60 O 0.1345 0.82583 0.42854 0.0
O61 O 0.17816 0.82013 0.44248 0.0
O62 O 0.19411 0.76359 0.36849 0.0
O63 O 0.19791 0.80846 0.35699 0.0
O64 O 0.16969 0.71491 0.41046 0.0
O65 O 0.1575 0.755 0.44511 0.0
O66 O 0.17976 0.70868 0.30667 0.0
O67 O 0.13565 0.69504 0.32737 0.0
O68 O 0.12241 0.76289 0.38042 0.0
O69 O 0.11671 0.71929 0.39733 0.0
O70 O 0.14004 0.80869 0.34653 0.0
O71 O 0.14744 0.76834 0.31017 0.0
H72 H 0.18153 0.86778 0.49739 0.0
H73 H 0.16649 0.87864 0.56344 0.0
H74 H 0.091 0.82126 0.55999 0.0
H75 H 0.1069 0.80958 0.49422 0.0
H76 H 0.11543 0.71874 0.26838 0.0
H77 H 0.09848 0.70837 0.20688 0.0
H78 H 0.16507 0.64913 0.18357 0.0
H79 H 0.1809 0.65863 0.24608 0.0
Pr80 Pr 0.47312 0.82502 0.6374 0.0
Pr81 Pr 0.53195 0.84706 0.64961 0.0
C82 C 0.42178 0.81708 0.6119 0.0
C83 C 0.41373 0.82907 0.57709 0.0
C84 C 0.3885 0.81957 0.56213 0.0
C85 C 0.38275 0.83013 0.52712 0.0
C86 C 0.4023 0.85013 0.50712 0.0
C87 C 0.42697 0.86033 0.52308 0.0
C88 C 0.43269 0.84974 0.55774 0.0
C89 C 0.50554 0.78596 0.67122 0.0
C90 C 0.52561 0.81799 0.56638 0.0
C91 C 0.58188 0.86528 0.67433 0.0
C92 C 0.59187 0.86414 0.71174 0.0
C93 C 0.61152 0.88538 0.72289 0.0
C94 C 0.61765 0.88664 0.76052 0.0
C95 C 0.60421 0.86655 0.7871 0.0
C96 C 0.58552 0.8446 0.7752 0.0
C97 C 0.57897 0.84375 0.73804 0.0
C98 C 0.50571 0.88361 0.60483 0.0
C99 C 0.4804 0.8379 0.7256 0.0
O100 O 0.42727 0.83632 0.63728 0.0
O101 O 0.44114 0.79813 0.60698 0.0
O102 O 0.51361 0.80203 0.64361 0.0
O103 O 0.47827 0.78767 0.681 0.0
O104 O 0.54413 0.82348 0.59163 0.0
O105 O 0.49785 0.82078 0.5758 0.0
O106 O 0.57817 0.84063 0.65754 0.0
O107 O 0.56074 0.88187 0.67223 0.0
O108 O 0.49291 0.87181 0.63479 0.0
O109 O 0.53208 0.87717 0.59855 0.0
O110 O 0.46148 0.83638 0.70077 0.0
O111 O 0.50826 0.84029 0.71347 0.0
H112 H 0.37379 0.80357 0.57689 0.0
H113 H 0.36375 0.82177 0.51496 0.0
H114 H 0.4422 0.87588 0.50825 0.0
H115 H 0.45228 0.85717 0.56917 0.0
H116 H 0.62118 0.90159 0.70292 0.0
H117 H 0.63198 0.9039 0.76909 0.0
H118 H 0.5754 0.8285 0.79491 0.0
H119 H 0.56314 0.82771 0.73017 0.0
Pr120 Pr 0.36675 0.20091 0.94422 0.0
Pr121 Pr 0.36347 0.25821 0.90206 0.0
C122 C 0.3746 0.15792 0.99137 0.0
C123 C 0.38162 0.15232 0.02997 0.0
C124 C 0.36412 0.13232 0.05253 0.0
C125 C 0.37096 0.12521 0.08849 0.0
C126 C 0.39567 0.13779 0.10246 0.0
C127 C 0.41283 0.15846 0.08015 0.0
C128 C 0.40581 0.16576 0.04422 0.0
C129 C 0.31655 0.20604 0.91101 0.0
C130 C 0.35646 0.26168 0.9925 0.0
C131 C 0.35559 0.29808 0.85024 0.0
C132 C 0.36657 0.30301 0.8101 0.0
C133 C 0.39535 0.29894 0.79718 0.0
C134 C 0.40578 0.30455 0.7594 0.0
C135 C 0.38757 0.31397 0.73355 0.0
C136 C 0.35853 0.31708 0.74638 0.0
C137 C 0.34819 0.31174 0.7843 0.0
C138 C 0.415 0.25078 0.93082 0.0
C139 C 0.38413 0.19934 0.85392 0.0
O140 O 0.39505 0.16931 0.96701 0.0
O141 O 0.34943 0.16763 0.98827 0.0
O142 O 0.32859 0.22596 0.92894 0.0
O143 O 0.32949 0.18244 0.912 0.0
O144 O 0.34797 0.27395 0.96245 0.0
O145 O 0.36689 0.23612 0.99096 0.0
O146 O 0.33764 0.2758 0.85764 0.0
O147 O 0.37432 0.30162 0.87488 0.0
O148 O 0.40092 0.23193 0.91407 0.0
O149 O 0.40389 0.27544 0.93056 0.0
O150 O 0.38652 0.18568 0.88574 0.0
O151 O 0.3745 0.22525 0.85357 0.0
H152 H 0.34528 0.12186 0.0421 0.0
H153 H 0.35698 0.10964 0.10521 0.0
H154 H 0.43215 0.16837 0.08992 0.0
H155 H 0.41959 0.18144 0.02739 0.0
H156 H 0.40993 0.29179 0.81639 0.0
H157 H 0.4283 0.30217 0.75076 0.0
H158 H 0.34374 0.32367 0.72712 0.0
H159 H 0.32582 0.31458 0.79355 0.0
Pr160 Pr 0.03547 0.90116 0.92162 0.0
Pr161 Pr 0.97922 0.89529 0.88176 0.0
C162 C 0.08031 0.91471 0.96054 0.0
C163 C 0.08637 0.90668 0.99899 0.0
C164 C 0.11294 0.89624 1.0045 0.0
C165 C 0.11811 0.88637 0.04018 0.0
C166 C 0.0968 0.88685 0.07118 0.0
C167 C 0.07027 0.89762 0.06562 0.0
C168 C 0.06505 0.9073 0.02989 0.0
C169 C 0.01641 0.84548 0.90701 0.0
C170 C 0.97474 0.87991 0.97139 0.0
C171 C 0.93695 0.88488 0.83699 0.0
C172 C 0.9314 0.87369 0.79912 0.0
C173 C 0.93498 0.89166 0.76699 0.0
C174 C 0.92719 0.88168 0.7321 0.0
C175 C 0.91556 0.85351 0.72851 0.0
C176 C 0.91271 0.83534 0.76044 0.0
C177 C 0.92042 0.84533 0.79532 0.0
C178 C 0.98693 0.94521 0.92371 0.0
C179 C 0.04241 0.90374 0.82823 0.0
O180 O 0.05936 0.93166 0.95835 0.0
O181 O 0.08038 0.89393 0.93583 0.0
O182 O 0.01627 0.86631 0.88474 0.0
O183 O 0.0274 0.85277 0.93798 0.0
O184 O 0.96445 0.87216 0.93943 0.0
O185 O -0.00106 0.89587 0.97157 0.0
O186 O 0.94322 0.86649 0.8623 0.0
O187 O 0.95111 0.90984 0.83849 0.0
O188 O 0.00622 0.9341 0.90214 0.0
O189 O 0.96229 0.9314 0.92213 0.0
O190 O 0.05624 0.90671 0.85874 0.0
O191 O 0.01426 0.89947 0.83032 0.0
H192 H 0.12952 0.89515 0.98097 0.0
H193 H 0.13859 0.8777 0.04322 0.0
H194 H 0.05347 0.89859 0.08887 0.0
H195 H 0.04418 0.91493 0.02641 0.0
H196 H 0.94319 0.91369 0.7689 0.0
H197 H 0.92948 0.89633 0.70823 0.0
H198 H 0.90435 0.81335 0.75856 0.0
H199 H 0.91729 0.83094 0.8195 0.0
Pr200 Pr 0.41023 0.7909 0.09034 0.0
Pr201 Pr 0.38999 0.73135 0.07167 0.0
C202 C 0.41693 0.84318 0.11967 0.0
C203 C 0.40626 0.85474 0.15616 0.0
C204 C 0.42416 0.87335 0.17526 0.0
C205 C 0.41649 0.87974 0.21315 0.0
C206 C 0.39082 0.86755 0.2321 0.0
C207 C 0.37206 0.85045 0.21206 0.0
C208 C 0.37985 0.84389 0.1744 0.0
C209 C 0.45216 0.75937 0.05089 0.0
C210 C 0.41356 0.73883 0.15572 0.0
C211 C 0.37296 0.68193 0.04074 0.0
C212 C 0.37389 0.67148 1.00159 0.0
C213 C 0.35117 0.67623 0.98003 0.0
C214 C 0.35331 0.66971 0.94167 0.0
C215 C 0.37799 0.65782 0.92426 0.0
C216 C 0.40016 0.65181 0.94619 0.0
C217 C 0.39818 0.65867 0.98452 0.0
C218 C 0.35145 0.75568 0.12417 0.0
C219 C 0.40482 0.78081 1.00057 0.0
O220 O 0.39741 0.83629 0.09693 0.0
O221 O 0.43576 0.8239 0.12144 0.0
O222 O 0.43394 0.75078 0.07741 0.0
O223 O 0.45216 0.78694 0.04718 0.0
O224 O 0.41046 0.72007 0.12802 0.0
O225 O 0.41112 0.76654 0.14941 0.0
O226 O 0.39748 0.68559 0.0552 0.0
O227 O 0.35589 0.70261 0.04895 0.0
O228 O 0.36388 0.76977 0.09546 0.0
O229 O 0.3575 0.7292 0.1235 0.0
O230 O 0.40379 0.80056 0.02705 0.0
O231 O 0.4015 0.75338 1.01037 0.0
H232 H 0.44479 0.88149 0.1616 0.0
H233 H 0.43155 0.89257 0.22822 0.0
H234 H 0.35215 0.8409 0.22605 0.0
H235 H 0.36596 0.82913 0.16019 0.0
H236 H 0.33206 0.6859 0.99246 0.0
H237 H 0.33601 0.67482 0.92544 0.0
H238 H 0.4192 0.64208 0.93366 0.0
H239 H 0.41592 0.65454 1.00049 0.0
Pr240 Pr 0.48407 0.08981 0.42512 0.0
Pr241 Pr 0.54205 0.09017 0.37355 0.0
C242 C 0.44306 0.08195 0.48349 0.0
C243 C 0.43944 0.09243 0.5226 0.0
C244 C 0.4506 0.11979 0.53174 0.0
C245 C 0.44663 0.12966 0.56893 0.0
C246 C 0.43174 0.1122 0.59772 0.0
C247 C 0.42143 0.08447 0.58852 0.0
C248 C 0.42517 0.07473 0.55125 0.0
C249 C 0.4981 0.13937 0.38354 0.0
C250 C 0.54632 0.11117 0.46016 0.0
C251 C 0.58482 0.09821 0.31685 0.0
C252 C 0.59076 0.10868 0.2773 0.0
C253 C 0.61019 0.0946 0.25225 0.0
C254 C 0.61793 0.10502 0.21544 0.0
C255 C 0.60655 0.12996 0.20277 0.0
C256 C 0.58641 0.14367 0.22769 0.0
C257 C 0.57856 0.13311 0.26458 0.0
C258 C 0.52751 0.04059 0.41672 0.0
C259 C 0.47907 0.08059 0.33701 0.0
O260 O 0.46325 0.06417 0.4759 0.0
O261 O 0.4421 0.10101 0.45677 0.0
O262 O 0.51559 0.12573 0.39998 0.0
O263 O 0.47179 0.12909 0.39131 0.0
O264 O 0.56102 0.10905 0.42664 0.0
O265 O 0.51842 0.10451 0.46607 0.0
O266 O 0.57889 0.11721 0.34313 0.0
O267 O 0.56979 0.07381 0.32272 0.0
O268 O 0.51037 0.05399 0.39932 0.0
O269 O 0.55368 0.05145 0.40956 0.0
O270 O 0.46579 0.07307 0.37047 0.0
O271 O 0.50614 0.09057 0.33272 0.0
H272 H 0.46212 0.13365 0.51007 0.0
H273 H 0.45466 0.1512 0.57489 0.0
H274 H 0.41043 0.07024 0.61014 0.0
H275 H 0.41687 0.05338 0.54477 0.0
H276 H 0.61978 0.07568 0.26139 0.0
H277 H 0.63299 0.09351 0.19693 0.0
H278 H 0.57732 0.16302 0.21911 0.0
H279 H 0.56341 0.14436 0.28334 0.0
Pr280 Pr 0.11032 0.20146 0.73382 0.0
Pr281 Pr 0.12242 0.26388 0.70756 0.0
C282 C 0.11864 0.14795 0.75423 0.0
C283 C 0.11924 0.13569 0.79207 0.0
C284 C 0.14396 0.123 0.80121 0.0
C285 C 0.14723 0.11656 0.83888 0.0
C286 C 0.12569 0.12259 0.8677 0.0
C287 C 0.10069 0.13463 0.85824 0.0
C288 C 0.0975 0.14112 0.82085 0.0
C289 C 0.06248 0.23201 0.73395 0.0
C290 C 0.10152 0.25295 0.79878 0.0
C291 C 0.13123 0.3152 0.67423 0.0
C292 C 0.12485 0.32644 0.63818 0.0
C293 C 0.14153 0.34991 0.62191 0.0
C294 C 0.13906 0.3578 0.58467 0.0
C295 C 0.11989 0.34218 0.56346 0.0
C296 C 0.10233 0.31935 0.58048 0.0
C297 C 0.1049 0.31143 0.61764 0.0
C298 C 0.16673 0.24107 0.74024 0.0
C299 C 0.1084 0.21358 0.64098 0.0
O300 O 0.13978 0.16689 0.74443 0.0
O301 O 0.09378 0.15558 0.74535 0.0
O302 O 0.08348 0.2332 0.70885 0.0
O303 O 0.06349 0.21151 0.75855 0.0
O304 O 0.10139 0.27103 0.77002 0.0
O305 O 0.10872 0.22613 0.79278 0.0
O306 O 0.10912 0.30847 0.69897 0.0
O307 O 0.15043 0.29599 0.67122 0.0
O308 O 0.15225 0.22809 0.71676 0.0
O309 O 0.15903 0.26671 0.74671 0.0
O310 O 0.10564 0.19402 0.6684 0.0
O311 O 0.11528 0.24084 0.64853 0.0
H312 H 0.16128 0.11933 0.77943 0.0
H313 H 0.16677 0.10753 0.84558 0.0
H314 H 0.08409 0.14033 0.88 0.0
H315 H 0.07861 0.15171 0.81485 0.0
H316 H 0.15732 0.3613 0.63744 0.0
H317 H 0.15304 0.37525 0.57196 0.0
H318 H 0.08715 0.3072 0.56477 0.0
H319 H 0.09211 0.293 0.62987 0.0
Pr320 Pr 0.89464 0.29629 0.58597 0.0
Pr321 Pr 0.89502 0.23698 0.56863 0.0
C322 C 0.88618 0.34824 0.616 0.0
C323 C 0.88374 0.35707 0.65546 0.0
C324 C 0.89334 0.38476 0.66505 0.0
C325 C 0.89684 0.39128 0.70273 0.0
C326 C 0.89072 0.37008 0.73092 0.0
C327 C 0.87977 0.34281 0.72127 0.0
C328 C 0.8768 0.33626 0.68381 0.0
C329 C 0.94995 0.28302 0.5582 0.0
C330 C 0.90905 0.24978 0.65488 0.0
C331 C 0.896 0.18483 0.5374 0.0
C332 C 0.89354 0.17439 0.49876 0.0
C333 C 0.8699 0.18065 0.4796 0.0
C334 C 0.86828 0.17175 0.44243 0.0
C335 C 0.89032 0.15662 0.42366 0.0
C336 C 0.91384 0.15017 0.4429 0.0
C337 C 0.9154 0.15898 0.48021 0.0
C338 C 0.84355 0.24975 0.6098 0.0
C339 C 0.89845 0.28405 0.4954 0.0
O340 O 0.86532 0.33128 0.60564 0.0
O341 O 0.91131 0.33976 0.60405 0.0
O342 O 0.93302 0.26765 0.58127 0.0
O343 O 0.93646 0.3035 0.54503 0.0
O344 O 0.91172 0.23044 0.62785 0.0
O345 O 0.90142 0.2758 0.64676 0.0
O346 O 0.91948 0.20011 0.54287 0.0
O347 O 0.87294 0.19498 0.55471 0.0
O348 O 0.85562 0.26496 0.58209 0.0
O349 O 0.8577 0.22774 0.61576 0.0
O350 O 0.89035 0.30316 0.521 0.0
O351 O 0.90247 0.25786 0.50669 0.0
H352 H 0.89952 0.40081 0.64324 0.0
H353 H 0.90552 0.41241 0.70951 0.0
H354 H 0.87434 0.32619 0.74252 0.0
H355 H 0.87035 0.31453 0.67698 0.0
H356 H 0.8528 0.19282 0.49301 0.0
H357 H 0.85018 0.1774 0.42804 0.0
H358 H 0.93106 0.13839 0.42904 0.0
H359 H 0.93383 0.15407 0.49442 0.0
Pr360 Pr 0.60924 0.70361 0.23107 0.0
Pr361 Pr 0.60981 0.76446 0.20697 0.0
C362 C 0.6233 0.65095 0.24898 0.0
C363 C 0.63326 0.64019 0.28354 0.0
C364 C 0.62709 0.61157 0.29446 0.0
C365 C 0.6321 0.60265 0.33059 0.0
C366 C 0.64361 0.62227 0.35574 0.0
C367 C 0.65111 0.65055 0.34393 0.0
C368 C 0.64559 0.65954 0.30827 0.0
C369 C 0.55457 0.71995 0.22303 0.0
C370 C 0.58994 0.75123 0.29663 0.0
C371 C 0.61042 0.81683 0.17651 0.0
C372 C 0.6079 0.82784 0.13886 0.0
C373 C 0.62128 0.8545 0.12777 0.0
C374 C 0.62393 0.86273 0.08976 0.0
C375 C 0.61323 0.84426 0.06266 0.0
C376 C 0.59871 0.8181 0.07433 0.0
C377 C 0.59634 0.80983 0.11215 0.0
C378 C 0.65742 0.75203 0.24299 0.0
C379 C 0.6097 0.71452 0.13732 0.0
O380 O 0.64103 0.66927 0.2293 0.0
O381 O 0.59697 0.65873 0.25298 0.0
O382 O 0.57695 0.7273 0.2016 0.0
O383 O 0.56035 0.70358 0.25039 0.0
O384 O 0.58453 0.7671 0.26766 0.0
O385 O 0.60398 0.72759 0.29047 0.0
O386 O 0.58723 0.80411 0.19454 0.0
O387 O 0.63353 0.80298 0.17852 0.0
O388 O 0.64709 0.73653 0.21798 0.0
O389 O 0.64304 0.77433 0.25013 0.0
O390 O 0.60807 0.69516 0.16488 0.0
O391 O 0.61201 0.74219 0.14577 0.0
H392 H 0.61702 0.59657 0.27591 0.0
H393 H 0.62568 0.58088 0.33961 0.0
H394 H 0.65911 0.66623 0.36333 0.0
H395 H 0.64937 0.68197 0.30091 0.0
H396 H 0.63083 0.8683 0.14816 0.0
H397 H 0.63538 0.88291 0.08139 0.0
H398 H 0.58981 0.80374 0.05406 0.0
H399 H 0.58659 0.78892 0.12038 0.0
Pr400 Pr 0.66407 0.28297 0.89986 0.0
Pr401 Pr 0.66085 0.22435 0.85813 0.0
C402 C 0.66015 0.32619 0.94987 0.0
C403 C 0.65042 0.33135 0.99002 0.0
C404 C 0.66354 0.35416 1.00863 0.0
C405 C 0.65388 0.3606 0.04607 0.0
C406 C 0.6307 0.34445 0.06572 0.0
C407 C 0.61798 0.32107 0.0472 0.0
C408 C 0.6278 0.31454 1.00968 0.0
C409 C 0.71082 0.27439 0.84667 0.0
C410 C 0.66946 0.22118 0.94679 0.0
C411 C 0.66381 0.1815 0.80727 0.0
C412 C 0.65622 0.17653 0.76857 0.0
C413 C 0.65806 0.14923 0.75277 0.0
C414 C 0.6483 0.14346 0.71751 0.0
C415 C 0.63641 0.16491 0.69748 0.0
C416 C 0.63521 0.19249 0.71311 0.0
C417 C 0.64493 0.19818 0.74843 0.0
C418 C 0.61265 0.23605 0.9061 0.0
C419 C 0.64175 0.2844 0.8167 0.0
O420 O 0.64027 0.31905 0.92775 0.0
O421 O 0.68342 0.31227 0.94267 0.0
O422 O 0.69877 0.25535 0.86946 0.0
O423 O 0.70019 0.29902 0.85339 0.0
O424 O 0.67553 0.20763 0.91452 0.0
O425 O 0.66234 0.24804 0.94754 0.0
O426 O 0.68543 0.19989 0.81137 0.0
O427 O 0.64212 0.18407 0.83295 0.0
O428 O 0.62699 0.25363 0.88379 0.0
O429 O 0.62148 0.2104 0.90195 0.0
O430 O 0.64146 0.29833 0.84904 0.0
O431 O 0.6502 0.258 0.81312 0.0
H432 H 0.68112 0.36726 0.99402 0.0
H433 H 0.66462 0.37834 0.05959 0.0
H434 H 0.59996 0.30828 0.06128 0.0
H435 H 0.61742 0.2967 0.99587 0.0
H436 H 0.66651 0.1322 0.76807 0.0
H437 H 0.64989 0.12211 0.70606 0.0
H438 H 0.62586 0.20941 0.6987 0.0
H439 H 0.64287 0.21922 0.76052 0.0
Pr440 Pr 0.86248 0.70246 0.43753 0.0
Pr441 Pr 0.86153 0.76104 0.39654 0.0
C442 C 0.86809 0.65872 0.4848 0.0
C443 C 0.87611 0.65255 0.52289 0.0
C444 C 0.85826 0.63339 0.54638 0.0
C445 C 0.86578 0.62581 0.58187 0.0
C446 C 0.89153 0.63705 0.59458 0.0
C447 C 0.90913 0.65685 0.5713 0.0
C448 C 0.90145 0.66461 0.5358 0.0
C449 C 0.81176 0.71188 0.40693 0.0
C450 C 0.85836 0.76322 0.48739 0.0
C451 C 0.85347 0.80314 0.34777 0.0
C452 C 0.86163 0.80936 0.30718 0.0
C453 C 0.87281 0.83689 0.29615 0.0
C454 C 0.88251 0.84295 0.25827 0.0
C455 C 0.88116 0.82157 0.23054 0.0
C456 C 0.86978 0.79397 0.24162 0.0
C457 C 0.86012 0.78792 0.27963 0.0
C458 C 0.91232 0.75186 0.42539 0.0
C459 C 0.88078 0.70172 0.34725 0.0
O460 O 0.88849 0.66812 0.45894 0.0
O461 O 0.84387 0.67078 0.48312 0.0
O462 O 0.82586 0.73036 0.42458 0.0
O463 O 0.82342 0.68748 0.40531 0.0
O464 O 0.84904 0.77643 0.45853 0.0
O465 O 0.8667 0.73686 0.4844 0.0
O466 O 0.83434 0.78199 0.35663 0.0
O467 O 0.8746 0.80409 0.36899 0.0
O468 O 0.89785 0.73319 0.40866 0.0
O469 O 0.90225 0.77701 0.42438 0.0
O470 O 0.88149 0.68719 0.37886 0.0
O471 O 0.87286 0.72839 0.34718 0.0
H472 H 0.83855 0.62399 0.53705 0.0
H473 H 0.85141 0.61102 0.59931 0.0
H474 H 0.92922 0.66577 0.58001 0.0
H475 H 0.91553 0.67963 0.51828 0.0
H476 H 0.87452 0.85364 0.31701 0.0
H477 H 0.89166 0.86426 0.25085 0.0
H478 H 0.86824 0.7771 0.22092 0.0
H479 H 0.85175 0.76645 0.28751 0.0
Pr480 Pr 0.52471 0.62301 0.68385 0.0
Pr481 Pr 0.50039 0.64158 0.60063 0.0
C482 C 0.54553 0.62706 0.75291 0.0
C483 C 0.55018 0.63785 0.79228 0.0
C484 C 0.57594 0.65356 0.79827 0.0
C485 C 0.58227 0.66181 0.83493 0.0
C486 C 0.56308 0.6548 0.86745 0.0
C487 C 0.53693 0.63959 0.86133 0.0
C488 C 0.5307 0.6311 0.82454 0.0
C489 C 0.51961 0.57961 0.63057 0.0
C490 C 0.45458 0.62492 0.67747 0.0
C491 C 0.47507 0.65028 0.5361 0.0
C492 C 0.47145 0.66179 0.49721 0.0
C493 C 0.4467 0.67607 0.49154 0.0
C494 C 0.44095 0.68443 0.45503 0.0
C495 C 0.45973 0.67884 0.42249 0.0
C496 C 0.48489 0.66502 0.42833 0.0
C497 C 0.49057 0.65654 0.46495 0.0
C498 C 0.52194 0.68283 0.64872 0.0
C499 C 0.56836 0.63207 0.60459 0.0
O500 O 0.55591 0.64243 0.72313 0.0
O501 O 0.52374 0.6093 0.74638 0.0
O502 O 0.50381 0.6004 0.63531 0.0
O503 O 0.53647 0.57844 0.6575 0.0
O504 O 0.45803 0.62957 0.64034 0.0
O505 O 0.47572 0.6239 0.69932 0.0
O506 O 0.49248 0.62986 0.54001 0.0
O507 O 0.4711 0.6663 0.56634 0.0
O508 O 0.50632 0.66102 0.65756 0.0
O509 O 0.52758 0.68508 0.61203 0.0
O510 O 0.56559 0.63541 0.6418 0.0
O511 O 0.54671 0.62919 0.58362 0.0
H512 H 0.59164 0.65918 0.77442 0.0
H513 H 0.60236 0.67387 0.83766 0.0
H514 H 0.52145 0.63347 0.88516 0.0
H515 H 0.5107 0.61898 0.82145 0.0
H516 H 0.4313 0.68031 0.5155 0.0
H517 H 0.42163 0.69538 0.45243 0.0
H518 H 0.49995 0.65995 0.40442 0.0
H519 H 0.50972 0.64537 0.46787 0.0
Pr520 Pr 0.97487 0.32826 0.13321 0.0
Pr521 Pr 0.03271 0.35116 0.14865 0.0
C522 C 0.92469 0.32042 0.10484 0.0
C523 C 0.91596 0.3345 0.07164 0.0
C524 C 0.89969 0.31913 0.04684 0.0
C525 C 0.89473 0.33154 1.01268 0.0
C526 C 0.90591 0.35952 1.0031 0.0
C527 C 0.92157 0.37511 0.02856 0.0
C528 C 0.92671 0.36262 0.06247 0.0
C529 C 0.00582 0.29002 0.17074 0.0
C530 C 0.02951 0.32076 0.06548 0.0
C531 C 0.08158 0.36986 0.17581 0.0
C532 C 0.09022 0.3685 0.21387 0.0
C533 C 0.11245 0.38694 0.22475 0.0
C534 C 0.11833 0.38748 0.26251 0.0
C535 C 0.1019 0.36957 0.28941 0.0
C536 C 0.08028 0.35055 0.27789 0.0
C537 C 0.07423 0.3503 0.24056 0.0
C538 C 0.00765 0.38667 0.10111 0.0
C539 C 0.97888 0.3422 0.22211 0.0
O540 O 0.92844 0.33739 0.1334 0.0
O541 O 0.94511 0.3028 0.09773 0.0
O542 O 0.01508 0.3058 0.14325 0.0
O543 O 0.97822 0.29116 0.17765 0.0
O544 O 0.04699 0.32685 0.09182 0.0
O545 O 0.00156 0.32338 0.0731 0.0
O546 O 0.0786 0.34521 0.15882 0.0
O547 O 0.06041 0.38624 0.17263 0.0
O548 O -0.00589 0.37513 0.13073 0.0
O549 O 0.0342 0.38062 0.09659 0.0
O550 O 0.96091 0.33967 0.19611 0.0
O551 O 0.00694 0.34536 0.2115 0.0
H552 H 0.89178 0.29726 0.05325 0.0
H553 H 0.88318 0.31877 0.9931 0.0
H554 H 0.93037 0.39669 1.02191 0.0
H555 H 0.93978 0.3747 0.08105 0.0
H556 H 0.12466 0.40137 0.20437 0.0
H557 H 0.13504 0.40241 0.27085 0.0
H558 H 0.06781 0.33609 0.29792 0.0
H559 H 0.05684 0.33611 0.23264 0.0
Pr560 Pr 0.53899 0.39077 0.41703 0.0
Pr561 Pr 0.48055 0.38808 0.38327 0.0
C562 C 0.58202 0.39874 0.46135 0.0
C563 C 0.58649 0.39194 0.50073 0.0
C564 C 0.61387 0.38567 0.50919 0.0
C565 C 0.61817 0.37676 0.54561 0.0
C566 C 0.59511 0.37393 0.57436 0.0
C567 C 0.56766 0.38052 0.56584 0.0
C568 C 0.56341 0.38943 0.52931 0.0
C569 C 0.52473 0.33972 0.38248 0.0
C570 C 0.47748 0.37084 0.47161 0.0
C571 C 0.43647 0.38066 0.34081 0.0
C572 C 0.43025 0.37107 0.30281 0.0
C573 C 0.41128 0.3861 0.28362 0.0
C574 C 0.40381 0.37681 0.24838 0.0
C575 C 0.415 0.35208 0.23165 0.0
C576 C 0.43462 0.33739 0.25061 0.0
C577 C 0.44226 0.34687 0.28582 0.0
C578 C 0.49321 0.43782 0.42277 0.0
C579 C 0.54228 0.39631 0.32643 0.0
O580 O 0.56419 0.41841 0.45606 0.0
O581 O 0.57927 0.37667 0.43924 0.0
O582 O 0.50755 0.3536 0.4038 0.0
O583 O 0.55083 0.35089 0.38049 0.0
O584 O 0.46356 0.36766 0.44138 0.0
O585 O 0.50451 0.3811 0.46947 0.0
O586 O 0.44318 0.3612 0.36429 0.0
O587 O 0.45135 0.40511 0.34277 0.0
O588 O 0.51101 0.42569 0.39983 0.0
O589 O 0.46768 0.4254 0.42346 0.0
O590 O 0.55614 0.40502 0.35533 0.0
O591 O 0.51522 0.38637 0.33123 0.0
H592 H 0.63187 0.38708 0.48736 0.0
H593 H 0.63946 0.37133 0.55094 0.0
H594 H 0.54947 0.37877 0.58734 0.0
H595 H 0.54209 0.394 0.52324 0.0
H596 H 0.40196 0.40494 0.29612 0.0
H597 H 0.38915 0.389 0.23429 0.0
H598 H 0.44349 0.31815 0.23878 0.0
H599 H 0.45716 0.335 0.29999 0.0
Pr600 Pr 0.97681 0.58712 0.92141 0.0
Pr601 Pr 0.03382 0.59385 0.86934 0.0
C602 C 0.93784 0.57469 0.98106 0.0
C603 C 0.93411 0.58626 1.01964 0.0
C604 C 0.94599 0.61362 0.02739 0.0
C605 C 0.94203 0.62482 0.06392 0.0
C606 C 0.92633 0.60874 0.09348 0.0
C607 C 0.91518 0.58098 0.08569 0.0
C608 C 0.91899 0.56989 0.04905 0.0
C609 C 0.98478 0.63922 0.88422 0.0
C610 C 0.03778 0.61323 0.9565 0.0
C611 C 0.07617 0.6045 0.81252 0.0
C612 C 0.08222 0.61492 0.77287 0.0
C613 C 0.09989 0.59944 0.74711 0.0
C614 C 0.10795 0.6097 0.71026 0.0
C615 C 0.09866 0.63587 0.69822 0.0
C616 C 0.08029 0.65105 0.72385 0.0
C617 C 0.07213 0.64069 0.76078 0.0
C618 C 0.02362 0.54214 0.90962 0.0
C619 C 0.97159 0.58084 0.83259 0.0
O620 O 0.96043 0.56 0.97299 0.0
O621 O 0.93349 0.59225 0.95389 0.0
O622 O 0.00447 0.62673 0.89802 0.0
O623 O 0.95974 0.62616 0.89291 0.0
O624 O 0.0518 0.61436 0.9223 0.0
O625 O 0.01083 0.60285 0.96252 0.0
O626 O 0.06891 0.62311 0.83876 0.0
O627 O 0.0626 0.57936 0.81829 0.0
O628 O 0.00544 0.5544 0.89272 0.0
O629 O 0.04864 0.55587 0.90429 0.0
O630 O 0.95909 0.57126 0.86565 0.0
O631 O -0.00223 0.59318 0.8288 0.0
H632 H 0.95807 0.62648 1.00507 0.0
H633 H 0.95072 0.64633 0.06872 0.0
H634 H 0.90351 0.56777 0.10792 0.0
H635 H 0.91006 0.54857 0.04364 0.0
H636 H 0.10791 0.57952 0.75571 0.0
H637 H 0.12161 0.5971 0.69123 0.0
H638 H 0.07286 0.67138 0.71579 0.0
H639 H 0.05843 0.65312 0.78003 0.0
C640 C 0.09717 0.16981 0.06283 0.0
C641 C 0.09067 0.14827 0.09011 0.0
C642 C 0.11503 0.16476 0.02987 0.0
C643 C 0.12666 0.13765 1.02506 0.0
C644 C 0.12517 0.11862 0.05623 0.0
C645 C 0.10656 0.12395 0.08867 0.0
C646 C 0.11661 0.18612 0.99772 0.0
C647 C 0.13936 0.09061 0.05292 0.0
C648 C 0.1061 0.10842 0.93286 0.0
C649 C 0.12954 0.11875 0.90802 0.0
C650 C 0.10578 0.11247 0.97179 0.0
C651 C 0.13023 0.12604 0.98624 0.0
C652 C 0.15545 0.13281 0.96168 0.0
C653 C 0.15469 0.12949 0.92252 0.0
C654 C 0.07815 0.1048 0.99668 0.0
C655 C 0.1825 0.14569 0.97598 0.0
H656 H 0.08498 0.1888 0.06467 0.0
H657 H 0.10167 0.10743 0.11021 0.0
H658 H 0.13872 0.18889 0.98341 0.0
H659 H 0.10236 0.17814 0.97644 0.0
H660 H 0.10974 0.20736 1.00768 0.0
H661 H 0.14407 0.08302 0.08112 0.0
H662 H 0.12477 0.07413 0.04123 0.0
H663 H 0.15957 0.09268 0.03358 0.0
H664 H 0.08704 0.09925 0.92149 0.0
H665 H 0.17306 0.13714 0.90335 0.0
H666 H 0.07021 0.12407 1.0115 0.0
H667 H 0.08185 0.08893 1.01851 0.0
H668 H 0.0609 0.09564 0.98029 0.0
H669 H 0.18394 0.16919 0.97131 0.0
H670 H 0.20164 0.13718 0.95978 0.0
H671 H 0.18324 0.14135 1.00659 0.0
C672 C 0.12267 0.83753 0.28198 0.0
C673 C 0.13285 0.80999 0.27984 0.0
C674 C 0.11583 0.85145 0.24932 0.0
C675 C 0.11943 0.83751 0.21386 0.0
C676 C 0.12966 0.80973 0.21162 0.0
C677 C 0.13621 0.79634 0.24457 0.0
C678 C 0.1048 0.88103 0.25268 0.0
C679 C 0.13396 0.79415 0.17435 0.0
C680 C 0.08038 0.85935 0.13117 0.0
C681 C 0.10207 0.87555 0.10887 0.0
C682 C 0.08544 0.84763 0.16606 0.0
C683 C 0.11293 0.85194 0.17878 0.0
C684 C 0.13477 0.86862 0.15681 0.0
C685 C 0.12903 0.88035 0.12225 0.0
C686 C 0.06161 0.82999 0.18881 0.0
C687 C 0.16442 0.87351 0.16938 0.0
H688 H 0.12 0.84821 0.30911 0.0
H689 H 0.14421 0.77513 0.24249 0.0
H690 H 0.11944 0.89637 0.23499 0.0
H691 H 0.08348 0.88106 0.24186 0.0
H692 H 0.10282 0.88878 0.28237 0.0
H693 H 0.14168 0.77243 0.17767 0.0
H694 H 0.11353 0.79203 0.16123 0.0
H695 H 0.1498 0.80663 0.1544 0.0
H696 H 0.0596 0.85517 0.12092 0.0
H697 H 0.14575 0.89325 0.1056 0.0
H698 H 0.05846 0.83811 0.21823 0.0
H699 H 0.06752 0.80749 0.19051 0.0
H700 H 0.04096 0.83023 0.17621 0.0
H701 H 0.16308 0.88316 0.19801 0.0
H702 H 0.17875 0.88774 0.1496 0.0
H703 H 0.17432 0.85274 0.17135 0.0
C704 C 0.37872 0.8437 0.29438 0.0
C705 C 0.38593 0.86901 0.27357 0.0
C706 C 0.37861 0.84344 0.33365 0.0
C707 C 0.38608 0.8691 0.35223 0.0
C708 C 0.39194 0.89502 0.33169 0.0
C709 C 0.39176 0.89467 0.29234 0.0
C710 C 0.3725 0.81532 0.3548 0.0
C711 C 0.40013 0.92266 0.35091 0.0
C712 C 0.37193 0.86573 0.45855 0.0
C713 C 0.3986 0.85814 0.4681 0.0
C714 C 0.3678 0.8708 0.42075 0.0
C715 C 0.39088 0.86793 0.39237 0.0
C716 C 0.41815 0.86131 0.40206 0.0
C717 C 0.42167 0.85648 0.43997 0.0
C718 C 0.33855 0.87795 0.41099 0.0
C719 C 0.4432 0.85783 0.37232 0.0
H720 H 0.37483 0.82371 0.27979 0.0
H721 H 0.39722 0.91421 0.27609 0.0
H722 H 0.39244 0.80867 0.36556 0.0
H723 H 0.35644 0.81768 0.37965 0.0
H724 H 0.36444 0.79797 0.33657 0.0
H725 H 0.40056 0.94143 0.33167 0.0
H726 H 0.38495 0.92608 0.37638 0.0
H727 H 0.42176 0.92149 0.36052 0.0
H728 H 0.35424 0.86721 0.48055 0.0
H729 H 0.4422 0.8502 0.44744 0.0
H730 H 0.32893 0.85983 0.39547 0.0
H731 H 0.34036 0.89695 0.39202 0.0
H732 H 0.32377 0.88224 0.43662 0.0
H733 H 0.43854 0.83902 0.35441 0.0
H734 H 0.46343 0.8547 0.385 0.0
H735 H 0.44657 0.87687 0.35342 0.0
C736 C 0.40502 0.15926 0.8157 0.0
C737 C 0.39229 0.1856 0.8173 0.0
C738 C 0.41245 0.14617 0.78079 0.0
C739 C 0.4069 0.15974 0.74694 0.0
C740 C 0.39409 0.1863 0.74843 0.0
C741 C 0.38698 0.19891 0.78358 0.0
C742 C 0.4261 0.11779 0.78007 0.0
C743 C 0.38771 0.20139 0.71292 0.0
C744 C 0.44689 0.14076 0.65291 0.0
C745 C 0.42609 0.12321 0.63686 0.0
C746 C 0.44111 0.15244 0.68908 0.0
C747 C 0.41405 0.1461 0.7098 0.0
C748 C 0.39323 0.12787 0.69424 0.0
C749 C 0.39942 0.11682 0.65785 0.0
C750 C 0.46371 0.17202 0.70482 0.0
C751 C 0.36415 0.1206 0.71566 0.0
H752 H 0.40919 0.14887 0.84167 0.0
H753 H 0.37703 0.2192 0.78453 0.0
H754 H 0.4125 0.10139 0.76655 0.0
H755 H 0.44723 0.11964 0.76276 0.0
H756 H 0.42923 0.11018 0.8089 0.0
H757 H 0.37801 0.22215 0.71908 0.0
H758 H 0.40773 0.20542 0.69363 0.0
H759 H 0.37275 0.18761 0.69757 0.0
H760 H 0.4677 0.14545 0.63715 0.0
H761 H 0.38304 0.10371 0.64546 0.0
H762 H 0.46849 0.16385 0.73267 0.0
H763 H 0.45559 0.19361 0.70961 0.0
H764 H 0.48397 0.17413 0.68556 0.0
H765 H 0.36665 0.11159 0.74394 0.0
H766 H 0.35092 0.10494 0.70032 0.0
H767 H 0.35236 0.14031 0.72036 0.0
C768 C 0.9089 0.80882 0.16906 0.0
C769 C 0.89221 0.82811 0.19045 0.0
C770 C 0.92109 0.81574 0.1321 0.0
C771 C 0.91649 0.84259 0.11626 0.0
C772 C 0.89901 0.8618 0.13724 0.0
C773 C 0.88702 0.85429 0.17402 0.0
C774 C 0.93966 0.79476 0.11049 0.0
C775 C 0.89364 0.89063 0.12125 0.0
C776 C 0.97239 0.87547 0.04155 0.0
C777 C 0.95953 0.87011 1.00812 0.0
C778 C 0.95876 0.86627 0.07678 0.0
C779 C 0.93145 0.85147 0.07876 0.0
C780 C 0.9183 0.84588 0.04517 0.0
C781 C 0.93256 0.85521 1.01014 0.0
C782 C 0.9736 0.87257 0.1119 0.0
C783 C 0.88912 0.83022 0.04633 0.0
H784 H 0.91324 0.78867 0.18165 0.0
H785 H 0.87373 0.86908 0.1901 0.0
H786 H 0.93221 0.7906 0.08223 0.0
H787 H 0.96208 0.80401 0.10569 0.0
H788 H 0.93957 0.77405 0.12579 0.0
H789 H 0.8785 0.90255 0.14056 0.0
H790 H 0.91418 0.90378 0.11609 0.0
H791 H 0.88481 0.88796 0.09359 0.0
H792 H -0.0067 0.88681 0.0403 0.0
H793 H 0.9225 0.85096 0.98442 0.0
H794 H 0.97619 0.85236 0.12711 0.0
H795 H 0.96031 0.88607 0.13148 0.0
H796 H -0.0049 0.8838 0.10529 0.0
H797 H 0.88949 0.80894 0.05992 0.0
H798 H 0.88202 0.82718 1.01763 0.0
H799 H 0.87302 0.84231 0.06377 0.0
C800 C 0.90674 0.2144 0.70957 0.0
C801 C 0.91476 0.24193 0.69466 0.0
C802 C 0.91279 0.2062 0.74627 0.0
C803 C 0.92854 0.22539 0.76865 0.0
C804 C 0.93727 0.25303 0.75321 0.0
C805 C 0.92957 0.26115 0.71724 0.0
C806 C 0.90244 0.17675 0.76103 0.0
C807 C 0.95629 0.27366 0.77344 0.0
C808 C 0.92481 0.2177 0.87778 0.0
C809 C 0.94788 0.20074 0.8834 0.0
C810 C 0.9182 0.22527 0.84107 0.0
C811 C 0.93537 0.21667 0.80813 0.0
C812 C 0.95867 0.19958 0.81351 0.0
C813 C 0.96446 0.19189 0.8505 0.0
C814 C 0.89239 0.24234 0.83753 0.0
C815 C 0.97819 0.18907 0.78074 0.0
H816 H 0.89533 0.19922 0.69258 0.0
H817 H 0.93631 0.28223 0.70599 0.0
H818 H 0.92112 0.16388 0.76405 0.0
H819 H 0.8904 0.17833 0.78953 0.0
H820 H 0.88841 0.16522 0.74194 0.0
H821 H 0.95543 0.29599 0.76324 0.0
H822 H 0.95059 0.27297 0.80453 0.0
H823 H 0.97875 0.26748 0.76789 0.0
H824 H 0.91175 0.22542 0.90213 0.0
H825 H 0.98198 0.17835 0.85326 0.0
H826 H 0.87815 0.23124 0.81833 0.0
H827 H 0.89935 0.26361 0.82481 0.0
H828 H 0.87981 0.2456 0.86532 0.0
H829 H 0.98052 0.16576 0.78397 0.0
H830 H -0.00015 0.19985 0.78149 0.0
H831 H 0.97066 0.1929 0.75277 0.0
C832 C 0.62868 0.17765 0.63067 0.0
C833 C 0.62437 0.15821 0.66114 0.0
C834 C 0.617 0.17161 0.59649 0.0
C835 C 0.60074 0.14547 0.59269 0.0
C836 C 0.5964 0.12574 0.62324 0.0
C837 C 0.60815 0.13239 0.65712 0.0
C838 C 0.62193 0.19322 0.56454 0.0
C839 C 0.57915 0.09764 0.62024 0.0
C840 C 0.54621 0.13687 0.52144 0.0
C841 C 0.56115 0.12174 0.49246 0.0
C842 C 0.55927 0.14579 0.55353 0.0
C843 C 0.58775 0.1388 0.55706 0.0
C844 C 0.60312 0.12391 0.52754 0.0
C845 C 0.58972 0.11586 0.49527 0.0
C846 C 0.5423 0.16203 0.58405 0.0
C847 C 0.63329 0.11552 0.53074 0.0
H848 H 0.6414 0.19752 0.63344 0.0
H849 H 0.60424 0.1175 0.68074 0.0
H850 H 0.63311 0.18345 0.53909 0.0
H851 H 0.60104 0.19979 0.55666 0.0
H852 H 0.6349 0.21262 0.57213 0.0
H853 H 0.57846 0.08427 0.64622 0.0
H854 H 0.55683 0.10165 0.6152 0.0
H855 H 0.58843 0.08531 0.59573 0.0
H856 H 0.52419 0.1417 0.51905 0.0
H857 H 0.6012 0.104 0.47293 0.0
H858 H 0.55463 0.182 0.59096 0.0
H859 H 0.53841 0.1489 0.61031 0.0
H860 H 0.52124 0.16767 0.57556 0.0
H861 H 0.64728 0.13459 0.53673 0.0
H862 H 0.64276 0.10518 0.50457 0.0
H863 H 0.63323 0.10039 0.55482 0.0
C864 C 0.56495 0.80672 0.51442 0.0
C865 C 0.53565 0.80825 0.52692 0.0
C866 C 0.57426 0.79743 0.47737 0.0
C867 C 0.55391 0.78906 0.45186 0.0
C868 C 0.52433 0.7905 0.4644 0.0
C869 C 0.51566 0.80014 0.50137 0.0
C870 C 0.60599 0.79679 0.46538 0.0
C871 C 0.50167 0.78172 0.43876 0.0
C872 C 0.57578 0.7896 0.34413 0.0
C873 C 0.58083 0.76075 0.33641 0.0
C874 C 0.56756 0.79908 0.38134 0.0
C875 C 0.56347 0.77926 0.412 0.0
C876 C 0.56817 0.75003 0.40428 0.0
C877 C 0.5771 0.74126 0.3669 0.0
C878 C 0.56339 0.83048 0.38788 0.0
C879 C 0.56343 0.72784 0.43549 0.0
H880 H 0.58073 0.81293 0.53356 0.0
H881 H 0.49296 0.80112 0.51032 0.0
H882 H 0.61137 0.77474 0.45725 0.0
H883 H 0.61198 0.81064 0.44006 0.0
H884 H 0.61918 0.80413 0.48817 0.0
H885 H 0.47959 0.78331 0.45292 0.0
H886 H 0.50429 0.7955 0.41305 0.0
H887 H 0.50417 0.75935 0.42925 0.0
H888 H 0.57871 0.805 0.32104 0.0
H889 H 0.58069 0.71893 0.36143 0.0
H890 H 0.57745 0.83892 0.40912 0.0
H891 H 0.54094 0.83347 0.39954 0.0
H892 H 0.56826 0.84338 0.36146 0.0
H893 H 0.57762 0.7333 0.45787 0.0
H894 H 0.56767 0.70599 0.425 0.0
H895 H 0.54097 0.72764 0.44886 0.0
C896 C 0.6159 0.60741 0.416 0.0
C897 C 0.64252 0.61542 0.39624 0.0
C898 C 0.61212 0.60824 0.4555 0.0
C899 C 0.63589 0.61654 0.4755 0.0
C900 C 0.66343 0.62191 0.45574 0.0
C901 C 0.66634 0.62186 0.41604 0.0
C902 C 0.58214 0.60276 0.47541 0.0
C903 C 0.68941 0.62974 0.47609 0.0
C904 C 0.60529 0.65526 0.56013 0.0
C905 C 0.59665 0.63192 0.58391 0.0
C906 C 0.62198 0.65141 0.52579 0.0
C907 C 0.6304 0.62359 0.51605 0.0
C908 C 0.6259 0.60122 0.54318 0.0
C909 C 0.60853 0.60557 0.57698 0.0
C910 C 0.62608 0.67586 0.49758 0.0
C911 C 0.63564 0.57165 0.53424 0.0
H912 H 0.59746 0.60288 0.40046 0.0
H913 H 0.6869 0.62813 0.40049 0.0
H914 H 0.58177 0.58554 0.49691 0.0
H915 H 0.57519 0.62235 0.49041 0.0
H916 H 0.56619 0.59642 0.45546 0.0
H917 H 0.70935 0.6236 0.45921 0.0
H918 H 0.6913 0.65324 0.48017 0.0
H919 H 0.6878 0.61928 0.50436 0.0
H920 H 0.59567 0.67551 0.5658 0.0
H921 H 0.60146 0.5875 0.5955 0.0
H922 H 0.61095 0.6722 0.47577 0.0
H923 H 0.64813 0.67718 0.48289 0.0
H924 H 0.62194 0.69674 0.51131 0.0
H925 H 0.61939 0.55954 0.51894 0.0
H926 H 0.63806 0.55961 0.56056 0.0
H927 H 0.65631 0.5727 0.51585 0.0
C928 C 0.61803 0.32355 0.78598 0.0
C929 C 0.63324 0.29868 0.78284 0.0
C930 C 0.61027 0.33709 0.75355 0.0
C931 C 0.61814 0.32555 0.71731 0.0
C932 C 0.63357 0.30052 0.71408 0.0
C933 C 0.64089 0.28744 0.74684 0.0
C934 C 0.59376 0.36373 0.75799 0.0
C935 C 0.64272 0.28769 0.67599 0.0
C936 C 0.57996 0.34322 0.63194 0.0
C937 C 0.59974 0.36327 0.61262 0.0
C938 C 0.5852 0.33146 0.66676 0.0
C939 C 0.61088 0.33985 0.68251 0.0
C940 C 0.63053 0.36063 0.66372 0.0
C941 C 0.62465 0.37218 0.62913 0.0
C942 C 0.56375 0.30934 0.68604 0.0
C943 C 0.65818 0.37006 0.67962 0.0
H944 H 0.61206 0.33236 0.81373 0.0
H945 H 0.6532 0.26862 0.74405 0.0
H946 H 0.60622 0.38188 0.74269 0.0
H947 H 0.57328 0.36043 0.74514 0.0
H948 H 0.58891 0.36976 0.78816 0.0
H949 H 0.65397 0.26771 0.67857 0.0
H950 H 0.62374 0.2828 0.66041 0.0
H951 H 0.65729 0.30331 0.65865 0.0
H952 H 0.56081 0.33597 0.61926 0.0
H953 H 0.63977 0.38804 0.61476 0.0
H954 H 0.55776 0.31546 0.71589 0.0
H955 H 0.57355 0.28841 0.68657 0.0
H956 H 0.54396 0.30659 0.67149 0.0
H957 H 0.6536 0.37801 0.70895 0.0
H958 H 0.67067 0.38721 0.66224 0.0
H959 H 0.67169 0.35157 0.68102 0.0
C960 C 0.87758 0.36605 0.94885 0.0
C961 C 0.90317 0.37128 0.96531 0.0
C962 C 0.87638 0.37178 0.91052 0.0
C963 C 0.90122 0.38364 0.88869 0.0
C964 C 0.9262 0.39174 0.90598 0.0
C965 C 0.92704 0.38509 0.9442 0.0
C966 C 0.84947 0.3625 0.89274 0.0
C967 C 0.95289 0.40491 0.88355 0.0
C968 C 0.90886 0.3544 0.79012 0.0
C969 C 0.89676 0.37556 0.77016 0.0
C970 C 0.91143 0.35734 0.82867 0.0
C971 C 0.9025 0.38248 0.84721 0.0
C972 C 0.8924 0.4049 0.82668 0.0
C973 C 0.88932 0.40104 0.78821 0.0
C974 C 0.92224 0.3329 0.84988 0.0
C975 C 0.88365 0.43229 0.84572 0.0
H976 H 0.85895 0.356 0.96547 0.0
H977 H 0.94697 0.38906 0.95675 0.0
H978 H 0.84329 0.37969 0.87433 0.0
H979 H 0.85355 0.34355 0.87463 0.0
H980 H 0.83114 0.35671 0.91433 0.0
H981 H 0.96632 0.41786 0.90197 0.0
H982 H 0.96585 0.38764 0.87086 0.0
H983 H 0.9476 0.41874 0.86022 0.0
H984 H 0.91551 0.33507 0.77581 0.0
H985 H 0.88008 0.41745 0.77269 0.0
H986 H 0.90524 0.32437 0.8718 0.0
H987 H 0.94095 0.34053 0.8646 0.0
H988 H 0.92868 0.31509 0.83089 0.0
H989 H 0.86341 0.42804 0.86449 0.0
H990 H 0.88024 0.44908 0.82484 0.0
H991 H 0.90022 0.44058 0.86373 0.0
C992 C 0.88391 0.70099 0.27666 0.0
C993 C 0.88881 0.68778 0.31061 0.0
C994 C 0.89058 0.68784 0.24168 0.0
C995 C 0.90263 0.66088 0.24057 0.0
C996 C 0.90785 0.64745 0.27468 0.0
C997 C 0.9008 0.66104 0.30936 0.0
C998 C 0.88459 0.70282 0.20592 0.0
C999 C 0.92065 0.61865 0.27451 0.0
C1000 C 0.89394 0.61617 0.153 0.0
C1001 C 0.9208 0.6212 0.13194 0.0
C1002 C 0.88797 0.62845 0.18876 0.0
C1003 C 0.90924 0.64654 0.20366 0.0
C1004 C 0.93647 0.6516 0.18281 0.0
C1005 C 0.94197 0.63875 0.14728 0.0
C1006 C 0.85871 0.62248 0.21029 0.0
C1007 C 0.95963 0.67087 0.19784 0.0
H1008 H 0.87451 0.72152 0.27735 0.0
H1009 H 0.90469 0.65067 0.33547 0.0
H1010 H 0.90497 0.70763 0.18764 0.0
H1011 H 0.8706 0.68868 0.1896 0.0
H1012 H 0.87402 0.72314 0.21188 0.0
H1013 H 0.92376 0.61128 0.30345 0.0
H1014 H 0.90648 0.60244 0.26156 0.0
H1015 H 0.94167 0.61969 0.25695 0.0
H1016 H 0.87725 0.6031 0.14117 0.0
H1017 H 0.96292 0.64246 0.13154 0.0
H1018 H 0.84775 0.64272 0.2146 0.0
H1019 H 0.86089 0.61361 0.23875 0.0
H1020 H 0.84489 0.60716 0.19528 0.0
H1021 H 0.95214 0.69276 0.20205 0.0
H1022 H 0.97984 0.67218 0.17844 0.0
H1023 H 0.9643 0.66297 0.22587 0.0
C1024 C 0.43827 0.34376 0.51268 0.0
C1025 C 0.46269 0.36277 0.50919 0.0
C1026 C 0.42484 0.33536 0.54854 0.0
C1027 C 0.43608 0.34639 0.58147 0.0
C1028 C 0.46037 0.36603 0.578 0.0
C1029 C 0.47331 0.37402 0.5419 0.0
C1030 C 0.39888 0.31447 0.55123 0.0
C1031 C 0.47295 0.37841 0.61237 0.0
C1032 C 0.38956 0.3451 0.6756 0.0
C1033 C 0.39907 0.32139 0.69377 0.0
C1034 C 0.40094 0.35308 0.6387 0.0
C1035 C 0.42267 0.33722 0.61966 0.0
C1036 C 0.43228 0.31317 0.63758 0.0
C1037 C 0.42021 0.3054 0.67428 0.0
C1038 C 0.39008 0.3788 0.62036 0.0
C1039 C 0.45564 0.29591 0.61819 0.0
H1040 H 0.42995 0.33506 0.48743 0.0
H1041 H 0.49171 0.38927 0.53935 0.0
H1042 H 0.40344 0.29479 0.56632 0.0
H1043 H 0.38052 0.32388 0.56795 0.0
H1044 H 0.39244 0.30838 0.52293 0.0
H1045 H 0.49142 0.39407 0.60465 0.0
H1046 H 0.45636 0.38924 0.6307 0.0
H1047 H 0.4803 0.36096 0.62938 0.0
H1048 H 0.37364 0.35793 0.69053 0.0
H1049 H 0.42739 0.28677 0.68773 0.0
H1050 H 0.3824 0.37273 0.59277 0.0
H1051 H 0.40781 0.39551 0.6145 0.0
H1052 H 0.37231 0.38818 0.63843 0.0
H1053 H 0.44932 0.2877 0.59074 0.0
H1054 H 0.46037 0.2775 0.63574 0.0
H1055 H 0.47562 0.30977 0.61189 0.0
C1056 C 0.42455 0.6861 0.37317 0.0
C1057 C 0.45296 0.6872 0.38297 0.0
C1058 C 0.41803 0.69388 0.33648 0.0
C1059 C 0.44028 0.70321 0.30809 0.0
C1060 C 0.46891 0.70449 0.31792 0.0
C1061 C 0.47486 0.69642 0.35466 0.0
C1062 C 0.38716 0.69204 0.32806 0.0
C1063 C 0.49359 0.71395 0.2894 0.0
C1064 C 0.42618 0.70082 0.20216 0.0
C1065 C 0.42011 0.72921 0.19463 0.0
C1066 C 0.43279 0.69212 0.23849 0.0
C1067 C 0.43352 0.71213 0.26867 0.0
C1068 C 0.42751 0.74082 0.26109 0.0
C1069 C 0.42082 0.74886 0.22468 0.0
C1070 C 0.43904 0.66137 0.24456 0.0
C1071 C 0.42838 0.76329 0.29152 0.0
H1072 H 0.4072 0.6787 0.39409 0.0
H1073 H 0.49688 0.69783 0.36133 0.0
H1074 H 0.38096 0.71341 0.31964 0.0
H1075 H 0.38452 0.67746 0.30383 0.0
H1076 H 0.37224 0.68418 0.35276 0.0
H1077 H 0.51375 0.71858 0.30269 0.0
H1078 H 0.49704 0.69649 0.26867 0.0
H1079 H 0.48873 0.73331 0.27393 0.0
H1080 H 0.42588 0.68529 0.17955 0.0
H1081 H 0.4163 0.77087 0.21973 0.0
H1082 H 0.42456 0.65203 0.26876 0.0
H1083 H 0.46135 0.66031 0.25183 0.0
H1084 H 0.43644 0.64807 0.21907 0.0
H1085 H 0.41254 0.75709 0.31602 0.0
H1086 H 0.42365 0.78473 0.28127 0.0
H1087 H 0.44989 0.76487 0.30193 0.0
C1088 C 0.11796 0.64076 0.14168 0.0
C1089 C 0.11828 0.66933 0.15389 0.0
C1090 C 0.10596 0.63231 0.1085 0.0
C1091 C 0.09348 0.65278 0.08712 0.0
C1092 C 0.09383 0.68166 0.09899 0.0
C1093 C 0.10638 0.68962 0.13203 0.0
C1094 C 0.10613 0.60131 0.09673 0.0
C1095 C 0.08058 0.70407 0.07705 0.0
C1096 C 0.0812 0.63391 0.98537 0.0
C1097 C 0.05217 0.62411 0.98945 0.0
C1098 C 0.09487 0.64365 1.01682 0.0
C1099 C 0.07914 0.64364 0.05316 0.0
C1100 C 0.04978 0.63411 0.05731 0.0
C1101 C 0.03671 0.62448 0.0255 0.0
C1102 C 0.12624 0.65361 1.0113 0.0
C1103 C 0.03214 0.63378 0.09547 0.0
H1104 H 0.12649 0.62471 0.15856 0.0
H1105 H 0.10683 0.71182 0.14071 0.0
H1106 H 0.08379 0.59201 0.09716 0.0
H1107 H 0.11642 0.59964 0.06728 0.0
H1108 H 0.1177 0.58827 0.11558 0.0
H1109 H 0.08297 0.72569 0.08969 0.0
H1110 H 0.09066 0.70501 0.04734 0.0
H1111 H 0.0574 0.69825 0.07616 0.0
H1112 H 0.09336 0.63375 0.95767 0.0
H1113 H 0.01425 0.61709 0.02905 0.0
H1114 H 0.13868 0.63987 0.02808 0.0
H1115 H 0.12925 0.67579 1.02184 0.0
H1116 H 0.13527 0.65302 0.98111 0.0
H1117 H 0.04161 0.61984 0.11547 0.0
H1118 H 0.00951 0.62592 0.09375 0.0
H1119 H 0.03236 0.65564 0.10754 0.0
C1120 C 0.08761 0.29176 0.84599 0.0
C1121 C 0.0922 0.26278 0.83843 0.0
C1122 C 0.07815 0.30123 0.88282 0.0
C1123 C 0.07269 0.28136 0.91334 0.0
C1124 C 0.0772 0.25207 0.90588 0.0
C1125 C 0.08697 0.24323 0.86883 0.0
C1126 C 0.07385 0.33263 0.88904 0.0
C1127 C 0.07123 0.22986 0.93696 0.0
C1128 C 0.07051 0.30921 1.01598 0.0
C1129 C 0.04093 0.31065 0.02671 0.0
C1130 C 0.08108 0.29973 0.97949 0.0
C1131 C 0.06177 0.29117 0.95272 0.0
C1132 C 0.03191 0.29242 0.96353 0.0
C1133 C 0.02197 0.30217 0.99999 0.0
C1134 C 0.11304 0.29895 0.96949 0.0
C1135 C 0.0103 0.28341 0.9365 0.0
H1136 H 0.09143 0.30721 0.82301 0.0
H1137 H 0.0901 0.22078 0.86361 0.0
H1138 H 0.05115 0.33562 0.89955 0.0
H1139 H 0.08719 0.34106 0.91106 0.0
H1140 H 0.0795 0.34553 0.86274 0.0
H1141 H 0.07745 0.20833 0.92733 0.0
H1142 H 0.08298 0.23618 0.96148 0.0
H1143 H 0.04801 0.22844 0.94706 0.0
H1144 H 0.08551 0.31563 0.03606 0.0
H1145 H -0.00091 0.30301 1.0076 0.0
H1146 H 0.11997 0.31277 0.94439 0.0
H1147 H 0.11857 0.27685 0.96177 0.0
H1148 H 0.12534 0.30625 0.99317 0.0
H1149 H 0.01404 0.29676 0.91043 0.0
H1150 H 0.98785 0.28535 0.94916 0.0
H1151 H 0.01291 0.26087 0.92786 0.0
C1152 C 0.05463 0.28345 0.1895 0.0
C1153 C 0.02468 0.28249 0.1992 0.0
C1154 C 0.07231 0.27597 0.21703 0.0
C1155 C 0.05906 0.25999 0.24862 0.0
C1156 C 0.03363 0.27235 0.26364 0.0
C1157 C 0.01439 0.27953 0.23782 0.0
C1158 C 0.10409 0.28293 0.21128 0.0
C1159 C 0.02705 0.27709 0.30532 0.0
C1160 C 0.01224 0.20454 0.22134 0.0
C1161 C 0.02537 0.20432 0.18401 0.0
C1162 C 0.02796 0.21402 0.25076 0.0
C1163 C 0.05556 0.22789 0.24127 0.0
C1164 C 0.07076 0.21731 0.20797 0.0
C1165 C 0.05527 0.20861 0.17775 0.0
C1166 C 0.01426 0.21093 0.29087 0.0
C1167 C 0.10263 0.21492 0.20464 0.0
H1168 H 0.06407 0.2906 0.16169 0.0
H1169 H -0.00744 0.28399 0.24779 0.0
H1170 H 0.11516 0.27385 0.23423 0.0
H1171 H 0.11309 0.27537 0.18315 0.0
H1172 H 0.10834 0.30648 0.21101 0.0
H1173 H 0.00388 0.27256 0.31422 0.0
H1174 H 0.04032 0.26433 0.32221 0.0
H1175 H 0.03203 0.29994 0.31122 0.0
H1176 H 0.99002 0.19665 0.2277 0.0
H1177 H 0.06649 0.20342 0.15059 0.0
H1178 H -0.00392 0.22496 0.29549 0.0
H1179 H 0.03001 0.21552 0.31163 0.0
H1180 H 0.00468 0.18886 0.29564 0.0
H1181 H 0.10712 0.19197 0.20191 0.0
H1182 H 0.11217 0.22352 0.22995 0.0
H1183 H 0.11292 0.22568 0.17838 0.0
C1184 C 0.9558 0.72528 0.42722 0.0
C1185 C 0.9385 0.74656 0.44211 0.0
C1186 C 0.98397 0.72469 0.43625 0.0
C1187 C -0.00568 0.74549 0.46144 0.0
C1188 C 0.97516 0.76354 0.48151 0.0
C1189 C 0.94747 0.76448 0.47075 0.0
C1190 C 0.00341 0.70396 0.41555 0.0
C1191 C 0.98434 0.78353 0.51192 0.0
C1192 C 0.072 0.73359 0.45681 0.0
C1193 C 0.08183 0.7511 0.42562 0.0
C1194 C 0.04392 0.73488 0.47395 0.0
C1195 C 0.02542 0.75303 0.45803 0.0
C1196 C 0.03667 0.77351 0.43 0.0
C1197 C 0.06513 0.77254 0.41447 0.0
C1198 C 0.03376 0.71501 0.50667 0.0
C1199 C 0.01788 0.79396 0.41286 0.0
H1200 H 0.94826 0.71086 0.40595 0.0
H1201 H 0.93336 0.78009 0.48351 0.0
H1202 H 0.02078 0.71589 0.39721 0.0
H1203 H 0.01357 0.69126 0.43621 0.0
H1204 H 0.99169 0.6889 0.39753 0.0
H1205 H 0.96677 0.78452 0.53535 0.0
H1206 H 0.00387 0.77676 0.52365 0.0
H1207 H 0.9887 0.80547 0.5001 0.0
H1208 H 0.08566 0.71789 0.46652 0.0
H1209 H 0.07333 0.7866 0.391 0.0
H1210 H 0.03486 0.69246 0.49725 0.0
H1211 H 0.01164 0.71859 0.51922 0.0
H1212 H 0.04841 0.71823 0.52905 0.0
H1213 H 0.00117 0.78178 0.39841 0.0
H1214 H 0.03029 0.80881 0.3919 0.0
H1215 H 0.00685 0.80692 0.43537 0.0
C1216 C 0.56725 0.70178 0.67373 0.0
C1217 C 0.53734 0.69702 0.67781 0.0
C1218 C 0.58101 0.71185 0.70501 0.0
C1219 C 0.56408 0.7227 0.73673 0.0
C1220 C 0.53692 0.70774 0.74472 0.0
C1221 C 0.52267 0.69788 0.71429 0.0
C1222 C 0.61282 0.7102 0.70489 0.0
C1223 C 0.52198 0.70384 0.78413 0.0
C1224 C 0.51856 0.77378 0.73594 0.0
C1225 C 0.52617 0.77727 0.69673 0.0
C1226 C 0.53957 0.76613 0.75897 0.0
C1227 C 0.56487 0.75511 0.74099 0.0
C1228 C 0.57542 0.77049 0.70762 0.0
C1229 C 0.55547 0.77796 0.68323 0.0
C1230 C 0.53504 0.76921 0.8012 0.0
C1231 C 0.60686 0.77735 0.69691 0.0
H1232 H 0.57973 0.69584 0.64779 0.0
H1233 H 0.50045 0.6897 0.71945 0.0
H1234 H 0.62425 0.71914 0.67812 0.0
H1235 H 0.62092 0.72106 0.72982 0.0
H1236 H 0.61766 0.68732 0.70592 0.0
H1237 H 0.51239 0.68164 0.7878 0.0
H1238 H 0.53692 0.70817 0.80596 0.0
H1239 H 0.50363 0.71771 0.78814 0.0
H1240 H 0.49728 0.77816 0.74852 0.0
H1241 H 0.56289 0.78522 0.65468 0.0
H1242 H 0.53957 0.79194 0.80812 0.0
H1243 H 0.54987 0.75647 0.81564 0.0
H1244 H 0.51239 0.76356 0.81215 0.0
H1245 H 0.61989 0.77079 0.71937 0.0
H1246 H 0.61079 0.80076 0.69226 0.0
H1247 H 0.61378 0.7671 0.66956 0.0
C1248 C 0.5724 0.26697 0.92063 0.0
C1249 C 0.5866 0.24294 0.92959 0.0
C1250 C 0.54411 0.26996 0.93576 0.0
C1251 C 0.53038 0.24867 0.96093 0.0
C1252 C 0.54658 0.22759 0.97543 0.0
C1253 C 0.57454 0.2244 0.95871 0.0
C1254 C 0.52796 0.29376 0.92099 0.0
C1255 C 0.53356 0.20673 1.00571 0.0
C1256 C 0.4522 0.26277 0.97399 0.0
C1257 C 0.44256 0.24621 0.9445 0.0
C1258 C 0.48021 0.26108 0.98361 0.0
C1259 C 0.499 0.24356 0.96175 0.0
C1260 C 0.48838 0.22504 0.93403 0.0
C1261 C 0.45996 0.2262 0.92639 0.0
C1262 C 0.48969 0.27929 1.01562 0.0
C1263 C 0.50758 0.20599 0.90971 0.0
H1264 H 0.58234 0.28193 0.89911 0.0
H1265 H 0.58628 0.20661 0.967 0.0
H1266 H 0.51096 0.28464 0.9042 0.0
H1267 H 0.51742 0.3057 0.94498 0.0
H1268 H 0.54221 0.30914 0.90274 0.0
H1269 H 0.55018 0.19972 1.02311 0.0
H1270 H 0.51633 0.21632 1.0245 0.0
H1271 H 0.52415 0.18744 0.99236 0.0
H1272 H 0.43812 0.2775 0.98893 0.0
H1273 H 0.45204 0.21304 0.90409 0.0
H1274 H 0.49099 0.30218 1.00714 0.0
H1275 H 0.51073 0.27373 1.02414 0.0
H1276 H 0.47341 0.27677 0.04064 0.0
H1277 H 0.52539 0.2191 0.89381 0.0
H1278 H 0.49584 0.19348 0.88895 0.0
H1279 H 0.51718 0.1907 0.92774 0.0
C1280 C 0.01157 0.7938 0.92223 0.0
C1281 C 0.01014 0.8158 0.89609 0.0
C1282 C 0.00698 0.76526 0.9119 0.0
C1283 C 0.00102 0.75873 0.87441 0.0
C1284 C -0.00051 0.7809 0.84784 0.0
C1285 C 0.00385 0.80935 0.85916 0.0
C1286 C 0.00855 0.74209 0.94116 0.0
C1287 C -0.00649 0.7746 0.80758 0.0
C1288 C 0.01523 0.68174 0.85968 0.0
C1289 C 0.98804 0.66907 0.87156 0.0
C1290 C 0.01927 0.71144 0.85519 0.0
C1291 C -0.00431 0.72849 0.8642 0.0
C1292 C 0.96772 0.71548 0.87214 0.0
C1293 C 0.96419 0.68571 0.87522 0.0
C1294 C 0.04922 0.72459 0.84485 0.0
C1295 C 0.94205 0.73291 0.88227 0.0
H1296 H 0.01638 0.7989 0.95078 0.0
H1297 H 0.00279 0.82652 0.83895 0.0
H1298 H 0.98819 0.72854 0.94454 0.0
H1299 H 0.02602 0.72802 0.93166 0.0
H1300 H 0.0126 0.75094 0.96929 0.0
H1301 H -0.00507 0.79429 0.78985 0.0
H1302 H 0.00895 0.75958 0.79444 0.0
H1303 H 0.97174 0.76403 0.80735 0.0
H1304 H 0.03353 0.66865 0.85588 0.0
H1305 H 0.94302 0.67577 0.88379 0.0
H1306 H 0.05874 0.73113 0.8711 0.0
H1307 H 0.04897 0.74396 0.82691 0.0
H1308 H 0.06324 0.70914 0.82959 0.0
H1309 H 0.9424 0.74069 0.91178 0.0
H1310 H 0.92154 0.72005 0.88045 0.0
H1311 H 0.94261 0.75191 0.86355 0.0
C1312 C 0.5304 0.68775 0.18205 0.0
C1313 C 0.52956 0.7127 0.20367 0.0
C1314 C 0.52039 0.68719 0.14638 0.0
C1315 C 0.50686 0.71128 0.1343 0.0
C1316 C 0.50074 0.73388 0.16027 0.0
C1317 C 0.51313 0.73473 0.19426 0.0
C1318 C 0.52686 0.66191 0.12123 0.0
C1319 C 0.48425 0.75914 0.15097 0.0
C1320 C 0.50303 0.75326 0.04702 0.0
C1321 C 0.47621 0.74184 0.03922 0.0
C1322 C 0.5169 0.73984 0.07455 0.0
C1323 C 0.50272 0.71551 0.09394 0.0
C1324 C 0.48014 0.70032 0.07748 0.0
C1325 C 0.46967 0.71261 0.04616 0.0
C1326 C 0.54399 0.75435 0.08636 0.0
C1327 C 0.46452 0.67356 0.09487 0.0
H1328 H 0.54307 0.6706 0.19016 0.0
H1329 H 0.51249 0.75392 0.2114 0.0
H1330 H 0.50879 0.64547 0.12575 0.0
H1331 H 0.53011 0.66795 0.09088 0.0
H1332 H 0.54618 0.6516 0.12864 0.0
H1333 H 0.49936 0.77748 0.1416 0.0
H1334 H 0.47012 0.75417 0.12854 0.0
H1335 H 0.47118 0.76641 0.17663 0.0
H1336 H 0.51022 0.77486 0.03791 0.0
H1337 H 0.45074 0.70264 0.03541 0.0
H1338 H 0.55427 0.74123 0.10646 0.0
H1339 H 0.53935 0.77527 0.09942 0.0
H1340 H 0.55923 0.75912 0.06083 0.0
H1341 H 0.44178 0.67184 0.08888 0.0
H1342 H 0.46485 0.6726 0.12602 0.0
H1343 H 0.47474 0.65464 0.082 0.0
C1344 C 0.53017 0.18296 0.37204 0.0
C1345 C 0.5057 0.16662 0.36392 0.0
C1346 C 0.53394 0.21176 0.36139 0.0
C1347 C 0.51303 0.22385 0.34132 0.0
C1348 C 0.49107 0.20605 0.32757 0.0
C1349 C 0.48715 0.17756 0.33992 0.0
C1350 C 0.55835 0.22985 0.37552 0.0
C1351 C 0.47023 0.21758 0.30276 0.0
C1352 C 0.49599 0.29383 0.38625 0.0
C1353 C 0.51711 0.31196 0.3665 0.0
C1354 C 0.49258 0.26513 0.37606 0.0
C1355 C 0.50999 0.25497 0.34436 0.0
C1356 C 0.52849 0.27434 0.32131 0.0
C1357 C 0.53244 0.30265 0.3333 0.0
C1358 C 0.47248 0.24526 0.40159 0.0
C1359 C 0.54557 0.2651 0.2855 0.0
H1360 H 0.54494 0.17403 0.38968 0.0
H1361 H 0.46886 0.16433 0.3323 0.0
H1362 H 0.57083 0.24172 0.35162 0.0
H1363 H 0.54971 0.24581 0.39612 0.0
H1364 H 0.57319 0.21683 0.38959 0.0
H1365 H 0.46233 0.20064 0.28383 0.0
H1366 H 0.45138 0.22499 0.32071 0.0
H1367 H 0.48022 0.23591 0.28523 0.0
H1368 H 0.48385 0.30145 0.41156 0.0
H1369 H 0.54811 0.31723 0.31736 0.0
H1370 H 0.48476 0.22881 0.41408 0.0
H1371 H 0.45655 0.23396 0.38505 0.0
H1372 H 0.46066 0.25678 0.42509 0.0
H1373 H 0.56813 0.26282 0.29099 0.0
H1374 H 0.5459 0.28178 0.26318 0.0
H1375 H 0.5368 0.24453 0.27458 0.0
C1376 C 0.04273 0.27729 0.72344 0.0
C1377 C 0.03772 0.24772 0.72845 0.0
C1378 C 0.03139 0.29123 0.69415 0.0
C1379 C 0.01284 0.27522 0.67196 0.0
C1380 C 0.00321 0.2467 0.68275 0.0
C1381 C 0.01633 0.2331 0.71056 0.0
C1382 C 0.04143 0.32207 0.68536 0.0
C1383 C 0.98208 0.22884 0.66197 0.0
C1384 C 0.97617 0.31288 0.59924 0.0
C1385 C 0.97747 0.2916 0.57156 0.0
C1386 C 0.98742 0.30838 0.63328 0.0
C1387 C 0.0064 0.28625 0.63507 0.0
C1388 C 0.01528 0.27111 0.60149 0.0
C1389 C -0.00118 0.2722 0.5709 0.0
C1390 C 0.97573 0.32519 0.66723 0.0
C1391 C 0.03967 0.25145 0.59894 0.0
H1392 H 0.05887 0.2886 0.7384 0.0
H1393 H 0.01307 0.21008 0.7138 0.0
H1394 H 0.04358 0.32678 0.65452 0.0
H1395 H 0.02587 0.33628 0.69994 0.0
H1396 H 0.06215 0.32802 0.69633 0.0
H1397 H 0.96811 0.21465 0.68216 0.0
H1398 H 0.96857 0.24211 0.64621 0.0
H1399 H -0.00617 0.21458 0.64174 0.0
H1400 H 0.96125 0.32938 0.598 0.0
H1401 H 0.00103 0.25654 0.54844 0.0
H1402 H 0.98639 0.34704 0.66579 0.0
H1403 H 0.97864 0.31515 0.69469 0.0
H1404 H 0.95241 0.32774 0.66656 0.0
H1405 H 0.05455 0.25706 0.57323 0.0
H1406 H 0.03145 0.22899 0.59531 0.0
H1407 H 0.05205 0.25287 0.62391 0.0
C1408 C -0.00269 0.07269 0.07053 0.0
C1409 C 0.0102 0.06566 0.10281 0.0
C1410 C -0.00482 0.05325 0.04077 0.0
C1411 C 0.00591 0.02584 0.04356 0.0
C1412 C 0.01911 0.01858 0.07607 0.0
C1413 C 0.02118 0.03866 0.10535 0.0
C1414 C 0.98101 0.06192 1.00661 0.0
C1415 C 0.03059 0.98946 0.08015 0.0
C1416 C 0.97168 0.96779 0.98533 0.0
C1417 C -0.00767 0.96582 0.95407 0.0
C1418 C 0.9762 0.98667 1.01507 0.0
C1419 C 0.00186 0.00438 1.01328 0.0
C1420 C 0.02295 0.00232 0.9819 0.0
C1421 C 0.01798 0.9829 0.95268 0.0
C1422 C 0.95338 0.98779 0.04827 0.0
C1423 C 0.05043 0.02107 0.97881 0.0
H1424 H 0.98844 0.09334 0.06881 0.0
H1425 H 0.03117 0.03315 0.13032 0.0
H1426 H -0.00427 0.05943 0.98042 0.0
H1427 H 0.96149 0.04774 1.00406 0.0
H1428 H 0.97478 0.08443 1.00823 0.0
H1429 H 0.01285 0.97264 0.08018 0.0
H1430 H 0.04642 0.98523 0.05565 0.0
H1431 H 0.04099 0.98742 0.10664 0.0
H1432 H 0.95196 0.95431 0.98677 0.0
H1433 H 0.03398 0.98133 0.92855 0.0
H1434 H 0.94477 0.00933 0.04994 0.0
H1435 H 0.96276 0.9841 0.07513 0.0
H1436 H 0.93528 0.97162 0.04615 0.0
H1437 H 0.04544 0.04374 0.97583 0.0
H1438 H 0.06554 0.01541 0.95412 0.0
H1439 H 0.06126 0.01939 1.00496 0.0
C1440 C 0.22216 0.76681 0.28329 0.0
C1441 C 0.22945 0.7802 0.31644 0.0
C1442 C 0.24191 0.76676 0.25071 0.0
C1443 C 0.26963 0.78051 0.25143 0.0
C1444 C 0.27688 0.79444 0.28491 0.0
C1445 C 0.25647 0.79451 0.31682 0.0
C1446 C 0.23322 0.75158 0.21576 0.0
C1447 C 0.30613 0.8093 0.28712 0.0
C1448 C 0.32889 0.74782 0.18923 0.0
C1449 C 0.33261 0.76572 0.15703 0.0
C1450 C 0.30874 0.75266 0.21986 0.0
C1451 C 0.29213 0.77667 0.21927 0.0
C1452 C 0.29674 0.79596 0.18796 0.0
C1453 C 0.31687 0.79011 0.15677 0.0
C1454 C 0.30481 0.73151 0.25251 0.0
C1455 C 0.28006 0.82237 0.18727 0.0
H1456 H 0.20071 0.7572 0.2824 0.0
H1457 H 0.26163 0.80576 0.34219 0.0
H1458 H 0.23726 0.76608 0.1908 0.0
H1459 H 0.24639 0.73291 0.20985 0.0
H1460 H 0.21022 0.74388 0.21892 0.0
H1461 H 0.30962 0.81568 0.31652 0.0
H1462 H 0.32336 0.79536 0.27623 0.0
H1463 H 0.30825 0.82884 0.26914 0.0
H1464 H 0.34138 0.72918 0.19026 0.0
H1465 H 0.31974 0.80408 0.13214 0.0
H1466 H 0.28248 0.72191 0.25575 0.0
H1467 H 0.30849 0.74263 0.27935 0.0
H1468 H 0.31964 0.71393 0.24852 0.0
H1469 H 0.25677 0.8162 0.18878 0.0
H1470 H 0.28642 0.83552 0.16135 0.0
H1471 H 0.2835 0.83565 0.21248 0.0
C1472 C 0.53935 0.00726 0.46664 0.0
C1473 C 0.51885 0.01765 0.44512 0.0
C1474 C 0.53186 0.98579 0.49411 0.0
C1475 C 0.50307 0.97438 0.5004 0.0
C1476 C 0.48215 0.98509 0.47909 0.0
C1477 C 0.49032 0.00652 0.45153 0.0
C1478 C 0.55498 0.975 0.51596 0.0
C1479 C 0.45126 0.97364 0.4851 0.0
C1480 C 0.49892 0.8994 0.54088 0.0
C1481 C 0.49467 0.90446 0.5799 0.0
C1482 C 0.49933 0.92167 0.51447 0.0
C1483 C 0.49569 0.94993 0.52743 0.0
C1484 C 0.48898 0.95483 0.56677 0.0
C1485 C 0.48864 0.93193 0.59272 0.0
C1486 C 0.50653 0.91526 0.47297 0.0
C1487 C 0.48472 0.9846 0.58167 0.0
H1488 H 0.5614 0.01589 0.46196 0.0
H1489 H 0.47439 0.01451 0.43494 0.0
H1490 H 0.5489 0.97713 0.54684 0.0
H1491 H 0.55733 0.95194 0.51008 0.0
H1492 H 0.57611 0.98675 0.50851 0.0
H1493 H 0.44968 0.95063 0.47758 0.0
H1494 H 0.44299 0.97528 0.51543 0.0
H1495 H 0.43731 0.98529 0.4678 0.0
H1496 H 0.50414 0.87821 0.53107 0.0
H1497 H 0.48616 0.93603 0.62292 0.0
H1498 H 0.52879 0.92364 0.46375 0.0
H1499 H 0.49207 0.92598 0.4555 0.0
H1500 H 0.50489 0.89192 0.46719 0.0
H1501 H 0.50575 -0.00302 0.58001 0.0
H1502 H 0.47506 0.98429 0.61163 0.0
H1503 H 0.47079 -0.00394 0.56418 0.0
C1504 C 0.27744 0.2336 0.88877 0.0
C1505 C 0.29382 0.20961 0.8862 0.0
C1506 C 0.25606 0.23669 0.86448 0.0
C1507 C 0.25159 0.21558 0.83666 0.0
C1508 C 0.26827 0.19147 0.83391 0.0
C1509 C 0.289 0.18866 0.85896 0.0
C1510 C 0.23835 0.26255 0.86841 0.0
C1511 C 0.26474 0.16898 0.80393 0.0
C1512 C 0.18153 0.21228 0.79213 0.0
C1513 C 0.18914 0.22926 0.75983 0.0
C1514 C 0.20178 0.20723 0.8173 0.0
C1515 C 0.23024 0.21922 0.80941 0.0
C1516 C 0.23825 0.23525 0.77572 0.0
C1517 C 0.21738 0.24047 0.75159 0.0
C1518 C 0.19234 0.19037 0.8532 0.0
C1519 C 0.26854 0.24782 0.76593 0.0
H1520 H 0.28125 0.2498 0.90981 0.0
H1521 H 0.30189 0.17021 0.85664 0.0
H1522 H 0.24231 0.27578 0.84225 0.0
H1523 H 0.21518 0.25568 0.87203 0.0
H1524 H 0.24337 0.27609 0.89286 0.0
H1525 H 0.27931 0.15137 0.80589 0.0
H1526 H 0.24231 0.15969 0.8065 0.0
H1527 H 0.2692 0.17892 0.77536 0.0
H1528 H 0.1594 0.20441 0.7989 0.0
H1529 H 0.22286 0.25424 0.72698 0.0
H1530 H 0.16948 0.18233 0.85485 0.0
H1531 H 0.19537 0.20402 0.87822 0.0
H1532 H 0.20574 0.17185 0.85501 0.0
H1533 H 0.2737 0.26445 0.78687 0.0
H1534 H 0.27173 0.25769 0.73721 0.0
H1535 H 0.28405 0.23102 0.76728 0.0
C1536 C 0.75293 0.25457 0.80811 0.0
C1537 C 0.72746 0.2687 0.81 0.0
C1538 C 0.77037 0.25256 0.77343 0.0
C1539 C 0.76136 0.26377 0.7397 0.0
C1540 C 0.73499 0.27703 0.74152 0.0
C1541 C 0.7188 0.27993 0.77672 0.0
C1542 C 0.7989 0.23939 0.77312 0.0
C1543 C 0.72386 0.28825 0.70634 0.0
C1544 C 0.81751 0.28214 0.65586 0.0
C1545 C 0.81821 0.25623 0.63631 0.0
C1546 C 0.79904 0.28511 0.68942 0.0
C1547 C 0.77965 0.26193 0.70265 0.0
C1548 C 0.77844 0.23658 0.68095 0.0
C1549 C 0.79827 0.23376 0.64876 0.0
C1550 C 0.80199 0.31224 0.71207 0.0
C1551 C 0.75698 0.21198 0.69253 0.0
H1552 H 0.75983 0.24631 0.83396 0.0
H1553 H 0.69924 0.29112 0.77822 0.0
H1554 H 0.79943 0.22031 0.75461 0.0
H1555 H 0.81638 0.25492 0.76126 0.0
H1556 H 0.80336 0.23286 0.80191 0.0
H1557 H 0.70348 0.29894 0.71281 0.0
H1558 H 0.73993 0.30375 0.69125 0.0
H1559 H 0.72016 0.27028 0.68668 0.0
H1560 H 0.83282 0.29935 0.64656 0.0
H1561 H 0.79882 0.21351 0.63394 0.0
H1562 H 0.81428 0.30812 0.73636 0.0
H1563 H 0.78079 0.31931 0.7238 0.0
H1564 H 0.81352 0.32998 0.69479 0.0
H1565 H 0.76293 0.20148 0.71833 0.0
H1566 H 0.75601 0.19565 0.66991 0.0
H1567 H 0.73526 0.21985 0.69951 0.0
C1568 C 0.76127 0.7183 0.39603 0.0
C1569 C 0.7902 0.71879 0.38202 0.0
C1570 C 0.74028 0.72286 0.37167 0.0
C1571 C 0.74872 0.72859 0.33272 0.0
C1572 C 0.77808 0.72913 0.31862 0.0
C1573 C 0.79844 0.72381 0.34346 0.0
C1574 C 0.70911 0.7214 0.38754 0.0
C1575 C 0.78811 0.73582 0.27755 0.0
C1576 C 0.69265 0.7187 0.26325 0.0
C1577 C 0.68263 0.74617 0.26251 0.0
C1578 C 0.71412 0.71252 0.28619 0.0
C1579 C 0.72686 0.7348 0.30705 0.0
C1580 C 0.71809 0.76299 0.3043 0.0
C1581 C 0.69569 0.76821 0.28264 0.0
C1582 C 0.72238 0.68204 0.28925 0.0
C1583 C 0.73193 0.78753 0.32486 0.0
H1584 H 0.75506 0.71385 0.42585 0.0
H1585 H 0.82084 0.72367 0.3327 0.0
H1586 H 0.70046 0.7428 0.38567 0.0
H1587 H 0.69636 0.70651 0.37057 0.0
H1588 H 0.70594 0.71421 0.4176 0.0
H1589 H 0.81108 0.73175 0.27021 0.0
H1590 H 0.77516 0.7229 0.25856 0.0
H1591 H 0.78523 0.75868 0.27177 0.0
H1592 H 0.68292 0.70181 0.24721 0.0
H1593 H 0.68827 0.78963 0.28165 0.0
H1594 H 0.7175 0.67446 0.319 0.0
H1595 H 0.74578 0.68084 0.28162 0.0
H1596 H 0.71079 0.6673 0.27069 0.0
H1597 H 0.72704 0.78441 0.3559 0.0
H1598 H 0.72435 0.80852 0.31707 0.0
H1599 H 0.7556 0.78818 0.3184 0.0
C1600 C 0.50004 0.56263 0.5714 0.0
C1601 C 0.51873 0.55912 0.59903 0.0
C1602 C 0.49863 0.54332 0.54136 0.0
C1603 C 0.51576 0.51943 0.53953 0.0
C1604 C 0.53482 0.51584 0.5673 0.0
C1605 C 0.53629 0.53594 0.59657 0.0
C1606 C 0.4783 0.54818 0.51207 0.0
C1607 C 0.55297 0.49031 0.56673 0.0
C1608 C 0.48459 0.4559 0.48821 0.0
C1609 C 0.50093 0.45767 0.45282 0.0
C1610 C 0.49007 0.47511 0.51716 0.0
C1611 C 0.51199 0.49718 0.51022 0.0
C1612 C 0.52908 0.49869 0.47478 0.0
C1613 C 0.52358 0.47856 0.44652 0.0
C1614 C 0.4719 0.47212 0.55487 0.0
C1615 C 0.55233 0.52223 0.46624 0.0
H1616 H 0.48621 0.58032 0.57352 0.0
H1617 H 0.55079 0.53319 0.61794 0.0
H1618 H 0.4898 0.54749 0.48315 0.0
H1619 H 0.46096 0.53087 0.51405 0.0
H1620 H 0.46835 0.56905 0.51577 0.0
H1621 H 0.56737 0.49112 0.58966 0.0
H1622 H 0.53891 0.47033 0.57003 0.0
H1623 H 0.56622 0.4891 0.53907 0.0
H1624 H 0.46739 0.43936 0.49335 0.0
H1625 H 0.53625 0.4798 0.41915 0.0
H1626 H 0.45848 0.49074 0.55931 0.0
H1627 H 0.48576 0.47192 0.57831 0.0
H1628 H 0.45755 0.45227 0.55672 0.0
H1629 H 0.5425 0.54315 0.46598 0.0
H1630 H 0.56501 0.5193 0.43843 0.0
H1631 H 0.5671 0.52324 0.48868 0.0
C1632 C 0.0373 0.50984 0.95969 0.0
C1633 C 0.01652 0.51831 0.93717 0.0
C1634 C 0.03094 0.488 0.98694 0.0
C1635 C 0.00306 0.47418 0.99189 0.0
C1636 C 0.98196 0.4826 0.96914 0.0
C1637 C 0.98895 0.50457 0.94202 0.0
C1638 C 0.05423 0.47958 1.01026 0.0
C1639 C 0.95213 0.46823 0.97331 0.0
C1640 C 0.00308 0.40046 0.03557 0.0
C1641 C -0.0032 0.40614 0.07418 0.0
C1642 C 0.00307 0.42193 1.00812 0.0
C1643 C -0.00324 0.44999 1.01959 0.0
C1644 C 0.98801 0.4553 0.05837 0.0
C1645 C 0.9882 0.43322 0.08539 0.0
C1646 C 0.01269 0.41506 0.96737 0.0
C1647 C 0.98088 0.48486 0.07167 0.0
H1648 H 0.05861 0.52042 0.95616 0.0
H1649 H 0.97279 0.51105 0.92466 0.0
H1650 H 0.04711 0.48176 0.04087 0.0
H1651 H 0.05856 0.45681 1.00513 0.0
H1652 H 0.07458 0.49284 1.0035 0.0
H1653 H 0.95319 0.44497 0.96791 0.0
H1654 H 0.9421 0.47061 1.00278 0.0
H1655 H 0.93813 0.47723 0.95355 0.0
H1656 H 0.01018 0.37959 0.02701 0.0
H1657 H 0.98401 0.43781 0.11534 0.0
H1658 H 0.03557 0.42248 0.96079 0.0
H1659 H 0.00022 0.42622 0.94774 0.0
H1660 H 0.01057 0.39169 0.96192 0.0
H1661 H 0.00082 0.49902 0.06997 0.0
H1662 H 0.97069 0.48468 0.10138 0.0
H1663 H 0.96629 0.49428 0.05313 0.0
C1664 C 0.04483 0.18022 0.43808 0.0
C1665 C 0.06418 0.16654 0.41196 0.0
C1666 C 0.05185 0.18825 0.47482 0.0
C1667 C 0.07878 0.1821 0.48683 0.0
C1668 C 0.09833 0.16824 0.46064 0.0
C1669 C 0.09098 0.16092 0.42386 0.0
C1670 C 0.03049 0.20374 0.50073 0.0
C1671 C 0.12729 0.16122 0.47149 0.0
C1672 C 0.10779 0.22428 0.57049 0.0
C1673 C 0.10156 0.20519 0.60133 0.0
C1674 C 0.10085 0.21707 0.5335 0.0
C1675 C 0.08658 0.19018 0.52647 0.0
C1676 C 0.08002 0.17089 0.55759 0.0
C1677 C 0.08765 0.17846 0.59418 0.0
C1678 C 0.10843 0.23885 0.50223 0.0
C1679 C 0.06473 0.14211 0.55223 0.0
H1680 H 0.02424 0.18522 0.42951 0.0
H1681 H 0.10621 0.15027 0.40449 0.0
H1682 H 0.02503 0.19161 0.52765 0.0
H1683 H 0.04016 0.225 0.50801 0.0
H1684 H 0.01041 0.20687 0.4877 0.0
H1685 H 0.14015 0.15031 0.44836 0.0
H1686 H 0.13947 0.18116 0.47888 0.0
H1687 H 0.12457 0.1472 0.497 0.0
H1688 H 0.11815 0.24512 0.57518 0.0
H1689 H 0.08226 0.16345 0.61745 0.0
H1690 H 0.0896 0.2516 0.49954 0.0
H1691 H 0.11425 0.22864 0.47452 0.0
H1692 H 0.12663 0.25374 0.50856 0.0
H1693 H 0.04373 0.14501 0.54153 0.0
H1694 H 0.06099 0.12942 0.57894 0.0
H1695 H 0.07749 0.12969 0.53065 0.0
C1696 C 0.12072 0.88811 0.61785 0.0
C1697 C 0.11721 0.85949 0.60645 0.0
C1698 C 0.11098 0.89659 0.65462 0.0
C1699 C 0.09699 0.87607 0.68059 0.0
C1700 C 0.09351 0.8471 0.66949 0.0
C1701 C 0.10376 0.83914 0.63261 0.0
C1702 C 0.11501 0.92768 0.66538 0.0
C1703 C 0.07844 0.82463 0.69633 0.0
C1704 C 0.08684 0.89315 0.78596 0.0
C1705 C 0.0583 0.90084 0.79027 0.0
C1706 C 0.09998 0.88541 0.75024 0.0
C1707 C 0.08414 0.88533 0.71836 0.0
C1708 C 0.0557 0.89398 0.72246 0.0
C1709 C 0.04325 0.90178 0.75821 0.0
C1710 C 0.13045 0.87645 0.74675 0.0
C1711 C 0.03797 0.89412 0.68931 0.0
H1712 H 0.13056 0.90413 0.59773 0.0
H1713 H 0.10128 0.81693 0.62428 0.0
H1714 H 0.0938 0.93684 0.67132 0.0
H1715 H 0.12583 0.92965 0.69166 0.0
H1716 H 0.12787 0.94065 0.64269 0.0
H1717 H 0.07835 0.80289 0.68378 0.0
H1718 H 0.08898 0.82426 0.72285 0.0
H1719 H 0.05591 0.82995 0.70421 0.0
H1720 H 0.09849 0.892 0.81065 0.0
H1721 H 0.0212 0.90774 0.76121 0.0
H1722 H 0.14378 0.88935 0.72447 0.0
H1723 H 0.13091 0.85373 0.73796 0.0
H1724 H 0.1403 0.87892 0.77378 0.0
H1725 H 0.04901 0.90801 0.66626 0.0
H1726 H 0.01626 0.90181 0.69727 0.0
H1727 H 0.0355 0.87219 0.67776 0.0
C1728 C 0.42227 0.7691 0.93218 0.0
C1729 C 0.4142 0.78953 0.95978 0.0
C1730 C 0.43362 0.77718 0.89477 0.0
C1731 C 0.43701 0.80655 0.88393 0.0
C1732 C 0.42871 0.82723 0.91159 0.0
C1733 C 0.41768 0.81858 0.94887 0.0
C1734 C 0.44233 0.75415 0.86691 0.0
C1735 C 0.43154 0.85871 0.9018 0.0
C1736 C 0.48844 0.8303 0.7952 0.0
C1737 C 0.46969 0.83218 0.76697 0.0
C1738 C 0.47821 0.82223 0.83312 0.0
C1739 C 0.44845 0.8156 0.84361 0.0
C1740 C 0.42946 0.81784 0.81536 0.0
C1741 C 0.44017 0.826 0.77786 0.0
C1742 C 0.49936 0.82038 0.862 0.0
C1743 C 0.39761 0.81136 0.8247 0.0
H1744 H 0.42028 0.74664 0.94 0.0
H1745 H 0.41195 0.83476 0.96965 0.0
H1746 H 0.43045 0.75545 0.84161 0.0
H1747 H 0.4655 0.75747 0.85707 0.0
H1748 H 0.43821 0.73233 0.87936 0.0
H1749 H 0.42417 0.87223 0.92619 0.0
H1750 H 0.45423 0.86533 0.8922 0.0
H1751 H 0.4188 0.86292 0.87801 0.0
H1752 H 0.51124 0.83464 0.78755 0.0
H1753 H 0.42519 0.82703 0.75676 0.0
H1754 H 0.49976 0.79786 0.87154 0.0
H1755 H 0.49274 0.83319 0.88734 0.0
H1756 H 0.52136 0.82808 0.8505 0.0
H1757 H 0.39337 0.78888 0.83463 0.0
H1758 H 0.38546 0.81457 0.79998 0.0
H1759 H 0.38928 0.82528 0.84811 0.0
C1760 C 0.47806 0.08402 0.26773 0.0
C1761 C 0.46288 0.08291 0.3039 0.0
C1762 C 0.46511 0.09215 0.23608 0.0
C1763 C 0.43613 0.09916 0.24064 0.0
C1764 C 0.42018 0.09686 0.2768 0.0
C1765 C 0.43381 0.08873 0.30821 0.0
C1766 C 0.48291 0.0944 0.19804 0.0
C1767 C 0.38918 0.10414 0.28249 0.0
C1768 C 0.4159 0.14808 0.16409 0.0
C1769 C 0.40414 0.12832 0.13938 0.0
C1770 C 0.42547 0.139 0.19798 0.0
C1771 C 0.423 0.1095 0.20741 0.0
C1772 C 0.41032 0.08959 0.18324 0.0
C1773 C 0.40123 0.09921 0.14939 0.0
C1774 C 0.43905 0.16084 0.22306 0.0
C1775 C 0.40734 0.05799 0.19244 0.0
H1776 H 0.50055 0.07956 0.26434 0.0
H1777 H 0.42214 0.0884 0.33625 0.0
H1778 H 0.4724 0.08125 0.17681 0.0
H1779 H 0.48461 0.11691 0.18787 0.0
H1780 H 0.50492 0.08729 0.19924 0.0
H1781 H 0.37919 0.09923 0.31172 0.0
H1782 H 0.38766 0.12727 0.2768 0.0
H1783 H 0.37664 0.09216 0.26213 0.0
H1784 H 0.41781 0.17064 0.15682 0.0
H1785 H 0.39262 0.08372 0.1302 0.0
H1786 H 0.46188 0.15656 0.22448 0.0
H1787 H 0.42821 0.15917 0.25236 0.0
H1788 H 0.43804 0.18309 0.21264 0.0
H1789 H 0.42891 0.04947 0.19156 0.0
H1790 H 0.3949 0.04562 0.17228 0.0
H1791 H 0.39659 0.05434 0.22156 0.0
C1792 C 0.88345 0.76718 0.54554 0.0
C1793 C 0.86486 0.77899 0.52206 0.0
C1794 C 0.89159 0.78142 0.57766 0.0
C1795 C 0.88061 0.80817 0.58723 0.0
C1796 C 0.86202 0.82052 0.56366 0.0
C1797 C 0.85453 0.80587 0.53103 0.0
C1798 C 0.91181 0.76758 0.60152 0.0
C1799 C 0.8499 0.84903 0.57317 0.0
C1800 C 0.88044 0.8258 0.69157 0.0
C1801 C 0.90583 0.84327 0.69191 0.0
C1802 C 0.8714 0.8152 0.6575 0.0
C1803 C 0.888 0.82235 0.62279 0.0
C1804 C 0.91323 0.84057 0.62275 0.0
C1805 C 0.92186 0.85077 0.6573 0.0
C1806 C 0.84456 0.79553 0.65878 0.0
C1807 C 0.93169 0.84842 0.58635 0.0
H1808 H 0.89223 0.74674 0.53858 0.0
H1809 H 0.8405 0.81531 0.51281 0.0
H1810 H 0.9308 0.78235 0.60467 0.0
H1811 H 0.90091 0.76297 0.63033 0.0
H1812 H 0.91939 0.74726 0.58912 0.0
H1813 H 0.83631 0.85609 0.55158 0.0
H1814 H 0.8368 0.84764 0.60109 0.0
H1815 H 0.86757 0.86558 0.57555 0.0
H1816 H 0.8676 0.82031 0.71805 0.0
H1817 H 0.94164 0.864 0.65725 0.0
H1818 H 0.85025 0.77387 0.64917 0.0
H1819 H 0.82984 0.80339 0.63917 0.0
H1820 H 0.83297 0.79364 0.6877 0.0
H1821 H 0.94135 0.82905 0.57397 0.0
H1822 H 0.94925 0.86469 0.59078 0.0
H1823 H 0.91844 0.85684 0.56528 0.0
C1824 C 0.91403 0.15373 0.35805 0.0
C1825 C 0.88943 0.14883 0.38351 0.0
C1826 C 0.91381 0.14679 0.31983 0.0
C1827 C 0.88814 0.13492 0.30666 0.0
C1828 C 0.86303 0.13038 0.33211 0.0
C1829 C 0.86403 0.13723 0.37044 0.0
C1830 C 0.94125 0.15205 0.29372 0.0
C1831 C 0.83531 0.11776 0.31938 0.0
C1832 C 0.90207 0.1459 0.20293 0.0
C1833 C 0.91781 0.12192 0.19446 0.0
C1834 C 0.88719 0.1486 0.23901 0.0
C1835 C 0.88865 0.12687 0.2663 0.0
C1836 C 0.89927 0.10029 0.25487 0.0
C1837 C 0.91347 0.09798 0.21844 0.0
C1838 C 0.87455 0.17664 0.24985 0.0
C1839 C 0.90069 0.07636 0.28293 0.0
H1840 H 0.93348 0.16328 0.36801 0.0
H1841 H 0.845 0.13324 0.39026 0.0
H1842 H 0.94775 0.13171 0.28039 0.0
H1843 H 0.93793 0.16713 0.27072 0.0
H1844 H 0.9592 0.16114 0.30888 0.0
H1845 H 0.81651 0.1241 0.33848 0.0
H1846 H 0.83264 0.12435 0.28999 0.0
H1847 H 0.83533 0.09408 0.32012 0.0
H1848 H 0.90524 0.16433 0.1841 0.0
H1849 H 0.92551 0.07932 0.21144 0.0
H1850 H 0.89055 0.19049 0.26343 0.0
H1851 H 0.85519 0.1732 0.27051 0.0
H1852 H 0.86879 0.18812 0.22461 0.0
H1853 H 0.91882 0.08139 0.30004 0.0
H1854 H 0.9042 0.05564 0.26846 0.0
H1855 H 0.88073 0.07404 0.30263 0.0
C1856 C 0.6565 0.17609 0.98506 0.0
C1857 C 0.66508 0.20536 0.98339 0.0
C1858 C 0.64707 0.1625 1.02002 0.0
C1859 C 0.64637 0.17854 0.05399 0.0
C1860 C 0.65582 0.20786 0.05242 0.0
C1861 C 0.66499 0.22083 1.01727 0.0
C1862 C 0.63696 0.13125 1.02054 0.0
C1863 C 0.65548 0.22583 0.0878 0.0
C1864 C 0.59718 0.15405 0.14198 0.0
C1865 C 0.61641 0.14192 0.16417 0.0
C1866 C 0.60649 0.16557 0.10581 0.0
C1867 C 0.63574 0.16491 0.09132 0.0
C1868 C 0.65518 0.15252 0.1134 0.0
C1869 C 0.64534 0.14133 0.14948 0.0
C1870 C 0.58505 0.1786 0.08319 0.0
C1871 C 0.68654 0.15154 0.09915 0.0
H1872 H 0.65586 0.16411 0.95898 0.0
H1873 H 0.67137 0.2435 1.01623 0.0
H1874 H 0.64886 0.11917 0.04 0.0
H1875 H 0.61392 0.12881 0.03146 0.0
H1876 H 0.63979 0.12149 0.99196 0.0
H1877 H 0.66428 0.24813 0.0818 0.0
H1878 H 0.63317 0.22653 0.10144 0.0
H1879 H 0.6682 0.21611 0.10849 0.0
H1880 H 0.57474 0.15433 0.15275 0.0
H1881 H 0.66056 0.13256 0.16654 0.0
H1882 H 0.58458 0.16759 0.05556 0.0
H1883 H 0.59158 0.20145 0.07704 0.0
H1884 H 0.56304 0.1772 0.09824 0.0
H1885 H 0.6889 0.14052 0.07141 0.0
H1886 H 0.69872 0.14031 0.11919 0.0
H1887 H 0.69632 0.17362 0.0946 0.0
C1888 C 0.6357 0.87502 0.83905 0.0
C1889 C 0.60837 0.86885 0.82755 0.0
C1890 C 0.63982 0.87485 0.87754 0.0
C1891 C 0.61616 0.86769 0.90457 0.0
C1892 C 0.58838 0.86252 0.8932 0.0
C1893 C 0.58478 0.86371 0.8548 0.0
C1894 C 0.66955 0.88124 0.88915 0.0
C1895 C 0.5627 0.85427 0.92132 0.0
C1896 C 0.62518 0.8304 0.99564 0.0
C1897 C 0.6178 0.85161 1.02209 0.0
C1898 C 0.62604 0.83574 0.9569 0.0
C1899 C 0.62041 0.86331 0.94453 0.0
C1900 C 0.61527 0.8855 0.97093 0.0
C1901 C 0.61367 0.87927 1.00964 0.0
C1902 C 0.63106 0.8114 0.92948 0.0
C1903 C 0.60974 0.91526 0.95837 0.0
H1904 H 0.65395 0.87907 0.81799 0.0
H1905 H 0.5635 0.85997 0.84596 0.0
H1906 H 0.66894 0.89664 0.91296 0.0
H1907 H 0.67793 0.86131 0.89924 0.0
H1908 H 0.68473 0.89018 0.86533 0.0
H1909 H 0.54231 0.85305 0.90801 0.0
H1910 H 0.56544 0.83306 0.93396 0.0
H1911 H 0.56085 0.86989 0.94479 0.0
H1912 H 0.62944 0.80932 1.00534 0.0
H1913 H 0.60803 0.89572 0.0301 0.0
H1914 H 0.64832 0.81775 0.90675 0.0
H1915 H 0.61126 0.80606 0.91572 0.0
H1916 H 0.63697 0.79181 0.94369 0.0
H1917 H 0.62565 0.92254 0.93443 0.0
H1918 H 0.61058 0.93095 0.98178 0.0
H1919 H 0.58819 0.91512 0.94821 0.0
C1920 C 0.59888 0.6634 0.91697 0.0
C1921 C 0.57048 0.66311 0.90719 0.0
C1922 C 0.60606 0.67123 0.95371 0.0
C1923 C 0.58457 0.67929 0.98228 0.0
C1924 C 0.55592 0.67901 0.97257 0.0
C1925 C 0.54928 0.67094 0.93572 0.0
C1926 C 0.63687 0.6708 0.962 0.0
C1927 C 0.53207 0.68761 1.00107 0.0
C1928 C 0.59841 0.67636 0.08833 0.0
C1929 C 0.60557 0.70516 0.09693 0.0
C1930 C 0.5916 0.66774 0.05168 0.0
C1931 C 0.59212 0.68816 1.02189 0.0
C1932 C 0.60017 0.71711 0.0301 0.0
C1933 C 0.60685 0.72514 0.06702 0.0
C1934 C 0.58334 0.63664 0.04504 0.0
C1935 C 0.60113 0.73993 0.99996 0.0
H1936 H 0.61568 0.65706 0.89596 0.0
H1937 H 0.52733 0.67135 0.92908 0.0
H1938 H 0.6447 0.69242 0.97066 0.0
H1939 H 0.63847 0.65602 0.98601 0.0
H1940 H 0.65119 0.66397 0.93716 0.0
H1941 H 0.51113 0.68732 0.98913 0.0
H1942 H 0.52993 0.67289 0.02573 0.0
H1943 H 0.53735 0.70943 1.01131 0.0
H1944 H 0.59754 0.66042 0.11059 0.0
H1945 H 0.61241 0.74742 0.07265 0.0
H1946 H 0.59772 0.62834 1.02129 0.0
H1947 H 0.56117 0.63441 0.0368 0.0
H1948 H 0.5844 0.62319 0.07057 0.0
H1949 H 0.61582 0.73435 0.97488 0.0
H1950 H 0.60833 0.76127 1.01027 0.0
H1951 H 0.57949 0.74132 0.99047 0.0
C1952 C 0.58731 0.39017 0.28282 0.0
C1953 C 0.55761 0.39296 0.28818 0.0
C1954 C 0.60076 0.38236 0.24726 0.0
C1955 C 0.58408 0.37729 0.21658 0.0
C1956 C 0.55424 0.38071 0.22178 0.0
C1957 C 0.54146 0.38858 0.25735 0.0
C1958 C 0.63265 0.37887 0.24268 0.0
C1959 C 0.53558 0.3755 0.18996 0.0
C1960 C 0.61792 0.38162 0.11463 0.0
C1961 C 0.61947 0.35263 0.10491 0.0
C1962 C 0.60729 0.38988 0.15117 0.0
C1963 C 0.59762 0.3687 0.17876 0.0
C1964 C 0.59917 0.33938 0.16935 0.0
C1965 C 0.61014 0.3317 0.13258 0.0
C1966 C 0.60581 0.42135 0.16002 0.0
C1967 C 0.58876 0.31614 0.19792 0.0
H1968 H 0.59984 0.393 0.30666 0.0
H1969 H 0.51848 0.39062 0.26122 0.0
H1970 H 0.63686 0.35648 0.23479 0.0
H1971 H 0.64318 0.39284 0.21935 0.0
H1972 H 0.64271 0.38419 0.26898 0.0
H1973 H 0.5127 0.37919 0.19874 0.0
H1974 H 0.5433 0.3898 0.16562 0.0
H1975 H 0.53695 0.35315 0.17989 0.0
H1976 H 0.62449 0.39799 0.09337 0.0
H1977 H 0.61153 0.30927 0.12558 0.0
H1978 H 0.61708 0.42669 0.18531 0.0
H1979 H 0.58312 0.42648 0.16685 0.0
H1980 H 0.6155 0.43518 0.13603 0.0
H1981 H 0.5997 0.3192 0.22398 0.0
H1982 H 0.59253 0.2944 0.18668 0.0
H1983 H 0.56544 0.3174 0.20625 0.0
C1984 C 0.98457 0.33846 0.29313 0.0
C1985 C 0.96707 0.33672 0.26323 0.0
C1986 C 0.97367 0.33067 0.33095 0.0
C1987 C 0.94451 0.32049 0.33965 0.0
C1988 C 0.92679 0.31888 0.30963 0.0
C1989 C 0.93809 0.32701 0.27231 0.0
C1990 C -0.00644 0.33286 0.36164 0.0
C1991 C 0.89581 0.30781 0.31678 0.0
C1992 C 0.92089 0.27369 0.4288 0.0
C1993 C 0.90828 0.29313 0.45481 0.0
C1994 C 0.93275 0.28217 0.39178 0.0
C1995 C 0.93245 0.31111 0.37972 0.0
C1996 C 0.91959 0.33084 0.40576 0.0
C1997 C 0.90785 0.32174 0.44267 0.0
C1998 C 0.94644 0.25997 0.36624 0.0
C1999 C 0.91831 0.36179 0.39463 0.0
H2000 H 0.00699 0.34549 0.2869 0.0
H2001 H 0.92413 0.32501 0.2499 0.0
H2002 H 0.98476 0.34673 0.38481 0.0
H2003 H -0.00473 0.31137 0.37406 0.0
H2004 H 0.01536 0.3417 0.35086 0.0
H2005 H 0.88448 0.30835 0.29087 0.0
H2006 H 0.89462 0.28542 0.32737 0.0
H2007 H 0.88434 0.32073 0.33904 0.0
H2008 H 0.92203 0.25165 0.43756 0.0
H2009 H 0.89864 0.33725 0.46226 0.0
H2010 H 0.96992 0.26183 0.36782 0.0
H2011 H 0.94255 0.26311 0.33627 0.0
H2012 H 0.93848 0.23791 0.37518 0.0
H2013 H 0.94027 0.37136 0.3863 0.0
H2014 H 0.90799 0.37466 0.41793 0.0
H2015 H 0.90612 0.36326 0.36964 0.0
C2016 C 0.97085 0.58094 0.76319 0.0
C2017 C 0.95555 0.58199 0.79917 0.0
C2018 C 0.95862 0.58859 0.73068 0.0
C2019 C 0.93029 0.59759 0.73421 0.0
C2020 C 0.91413 0.59738 0.7703 0.0
C2021 C 0.92698 0.58949 0.80254 0.0
C2022 C 0.97662 0.58841 0.69282 0.0
C2023 C 0.88386 0.6069 0.77503 0.0
C2024 C 0.91381 0.64664 0.65516 0.0
C2025 C 0.90028 0.62736 0.6314 0.0
C2026 C 0.92295 0.6374 0.6893 0.0
C2027 C 0.91826 0.60822 0.7001 0.0
C2028 C 0.90407 0.5888 0.67673 0.0
C2029 C 0.89543 0.59854 0.64261 0.0
C2030 C 0.9382 0.65875 0.71339 0.0
C2031 C 0.89875 0.55753 0.68726 0.0
H2032 H -0.007 0.57527 0.76063 0.0
H2033 H 0.91532 0.5909 0.83045 0.0
H2034 H 0.9651 0.57582 0.672 0.0
H2035 H 0.98054 0.6106 0.68165 0.0
H2036 H -0.00231 0.57927 0.69476 0.0
H2037 H 0.87341 0.60338 0.80436 0.0
H2038 H 0.88406 0.63002 0.76809 0.0
H2039 H 0.8707 0.59525 0.75507 0.0
H2040 H 0.91728 0.669 0.64707 0.0
H2041 H 0.88547 0.58334 0.62421 0.0
H2042 H 0.96046 0.65266 0.71523 0.0
H2043 H 0.92725 0.65859 0.74266 0.0
H2044 H 0.93907 0.68087 0.70183 0.0
H2045 H 0.91953 0.5475 0.68731 0.0
H2046 H 0.88574 0.54559 0.66734 0.0
H2047 H 0.88752 0.55522 0.71631 0.0
C2048 C 0.42485 0.32936 0.16768 0.0
C2049 C 0.40546 0.34124 0.19523 0.0
C2050 C 0.41576 0.31828 0.13384 0.0
C2051 C 0.38661 0.31926 0.12727 0.0
C2052 C 0.36707 0.33171 0.15455 0.0
C2053 C 0.37667 0.34238 0.18823 0.0
C2054 C 0.43723 0.30505 0.10543 0.0
C2055 C 0.33582 0.33306 0.14858 0.0
C2056 C 0.36731 0.30724 0.02663 0.0
C2057 C 0.35914 0.27791 0.0277 0.0
C2058 C 0.37593 0.32123 0.05906 0.0
C2059 C 0.37612 0.30547 0.09313 0.0
C2060 C 0.36675 0.27615 0.09456 0.0
C2061 C 0.35847 0.26276 0.06184 0.0
C2062 C 0.38601 0.35249 0.05649 0.0
C2063 C 0.36649 0.25855 0.13028 0.0
H2064 H 0.4472 0.32875 0.17252 0.0
H2065 H 0.36138 0.35102 0.20954 0.0
H2066 H 0.43093 0.28205 0.10191 0.0
H2067 H 0.43745 0.31548 0.07733 0.0
H2068 H 0.4593 0.30692 0.11414 0.0
H2069 H 0.3237 0.34478 0.1716 0.0
H2070 H 0.33379 0.34374 0.12117 0.0
H2071 H 0.32573 0.31107 0.14721 0.0
H2072 H 0.36849 0.31885 1.00003 0.0
H2073 H 0.35235 0.24003 0.06262 0.0
H2074 H 0.40908 0.35496 0.06084 0.0
H2075 H 0.37418 0.36469 0.07922 0.0
H2076 H 0.3831 0.36209 0.02865 0.0
H2077 H 0.38868 0.25763 0.13806 0.0
H2078 H 0.3574 0.23632 0.12703 0.0
H2079 H 0.35375 0.2687 0.15414 0.0
C2080 C 0.35751 0.64137 0.86514 0.0
C2081 C 0.38097 0.65247 0.88312 0.0
C2082 C 0.36034 0.63591 0.8262 0.0
C2083 C 0.38747 0.64086 0.80528 0.0
C2084 C 0.41113 0.65265 0.82315 0.0
C2085 C 0.40741 0.65868 0.86178 0.0
C2086 C 0.33453 0.62395 0.80807 0.0
C2087 C 0.44063 0.65816 0.80186 0.0
C2088 C 0.41948 0.60044 0.72344 0.0
C2089 C 0.42595 0.62306 0.6977 0.0
C2090 C 0.4029 0.6046 0.75774 0.0
C2091 C 0.39238 0.63186 0.76544 0.0
C2092 C 0.3942 0.65274 0.73635 0.0
C2093 C 0.41135 0.64813 0.70241 0.0
C2094 C 0.40124 0.58169 0.78795 0.0
C2095 C 0.38198 0.68153 0.74327 0.0
H2096 H 0.33703 0.63639 0.88159 0.0
H2097 H 0.42535 0.66809 0.87538 0.0
H2098 H 0.33507 0.63126 0.77825 0.0
H2099 H 0.33422 0.60025 0.80819 0.0
H2100 H 0.31427 0.63019 0.82405 0.0
H2101 H 0.45666 0.66709 0.82033 0.0
H2102 H 0.44836 0.63795 0.78941 0.0
H2103 H 0.43971 0.67343 0.77821 0.0
H2104 H 0.43087 0.58103 0.7193 0.0
H2105 H 0.41645 0.66559 0.68226 0.0
H2106 H 0.37973 0.57994 0.8042 0.0
H2107 H 0.41718 0.58743 0.80813 0.0
H2108 H 0.406 0.56046 0.77568 0.0
H2109 H 0.3611 0.67934 0.76117 0.0
H2110 H 0.37901 0.69233 0.71623 0.0
H2111 H 0.39694 0.69542 0.75853 0.0
C2112 C 0.14861 0.6827 0.48033 0.0
C2113 C 0.1593 0.7114 0.47935 0.0
C2114 C 0.13884 0.6689 0.51507 0.0
C2115 C 0.13998 0.68409 0.54954 0.0
C2116 C 0.15159 0.71275 0.54861 0.0
C2117 C 0.16099 0.72599 0.51366 0.0
C2118 C 0.12631 0.63842 0.51485 0.0
C2119 C 0.15329 0.72983 0.5845 0.0
C2120 C 0.09042 0.6617 0.63822 0.0
C2121 C 0.10885 0.64753 0.65953 0.0
C2122 C 0.10006 0.67314 0.6021 0.0
C2123 C 0.12884 0.67035 0.5867 0.0
C2124 C 0.14744 0.6558 0.60783 0.0
C2125 C 0.13729 0.64469 0.6439 0.0
C2126 C 0.0795 0.68844 0.58054 0.0
C2127 C 0.17828 0.65246 0.59262 0.0
H2128 H 0.14654 0.67148 0.45394 0.0
H2129 H 0.16897 0.74824 0.51314 0.0
H2130 H 0.13729 0.62487 0.53371 0.0
H2131 H 0.10332 0.63764 0.52606 0.0
H2132 H 0.12813 0.6291 0.48597 0.0
H2133 H 0.16388 0.75153 0.57899 0.0
H2134 H 0.13139 0.73216 0.59875 0.0
H2135 H 0.16534 0.71843 0.60446 0.0
H2136 H 0.06834 0.66371 0.64966 0.0
H2137 H 0.15193 0.63427 0.66024 0.0
H2138 H 0.07788 0.67818 0.5526 0.0
H2139 H 0.08767 0.71097 0.57509 0.0
H2140 H 0.05768 0.68837 0.59606 0.0
H2141 H 0.1793 0.64191 0.56455 0.0
H2142 H 0.18973 0.63966 0.61189 0.0
H2143 H 0.18978 0.67384 0.58847 0.0
C2144 C 0.08287 0.36945 0.35722 0.0
C2145 C 0.10658 0.37072 0.32968 0.0
C2146 C 0.08643 0.36679 0.39549 0.0
C2147 C 0.11447 0.3663 0.40633 0.0
C2148 C 0.13862 0.36938 0.37897 0.0
C2149 C 0.13436 0.37132 0.34067 0.0
C2150 C 0.06018 0.36311 0.42404 0.0
C2151 C 0.16879 0.36931 0.38998 0.0
C2152 C 0.11975 0.377 0.51054 0.0
C2153 C 0.11944 0.34863 0.52304 0.0
C2154 C 0.11926 0.38323 0.47213 0.0
C2155 C 0.1182 0.36046 0.44608 0.0
C2156 C 0.11852 0.33181 0.45841 0.0
C2157 C 0.11923 0.32624 0.49688 0.0
C2158 C 0.11909 0.41402 0.45955 0.0
C2159 C 0.11724 0.30702 0.43119 0.0
H2160 H 0.06141 0.36981 0.34868 0.0
H2161 H 0.15268 0.37222 0.3193 0.0
H2162 H 0.05908 0.34148 0.43709 0.0
H2163 H 0.06151 0.3789 0.44718 0.0
H2164 H 0.03998 0.36563 0.41101 0.0
H2165 H 0.18514 0.37511 0.36581 0.0
H2166 H 0.17171 0.38452 0.41345 0.0
H2167 H 0.17272 0.34771 0.40036 0.0
H2168 H 0.11982 0.39428 0.53088 0.0
H2169 H 0.11963 0.30437 0.50656 0.0
H2170 H 0.09822 0.41777 0.44901 0.0
H2171 H 0.13604 0.41873 0.43577 0.0
H2172 H 0.1225 0.42925 0.4829 0.0
H2173 H 0.09631 0.30586 0.41921 0.0
H2174 H 0.1198 0.28622 0.44503 0.0
H2175 H 0.13425 0.31021 0.40715 0.0
loop_
_geom_bond_atom_site_label_1
_geom_bond_atom_site_label_2
_geom_bond_distance
_geom_bond_site_symmetry_2
_ccdc_geom_bond_type
Pr0 C2 2.880 . S
Pr0 O20 2.562 . S
Pr0 O21 2.490 . S
Pr0 O22 2.695 . S
Pr0 O23 2.512 . S
Pr0 O25 2.437 . S
Pr0 O28 2.436 . S
Pr0 O30 2.438 . S
Pr1 C11 2.880 . S
Pr1 O22 2.436 1_655 S
Pr1 O24 2.438 . S
Pr1 O26 2.562 . S
Pr1 O27 2.490 . S
Pr1 O28 2.695 1_655 S
Pr1 O29 2.512 . S
Pr1 O31 2.437 1_655 S
C2 Pr0 2.880 . S
C2 C3 1.491 . S
C2 O20 1.254 . S
C2 O21 1.225 . S
C3 C2 1.491 . S
C3 C4 1.392 . S
C3 C8 1.356 . S
C4 C3 1.392 . S
C4 C5 1.368 . S
C4 H32 0.929 . S
C5 C4 1.368 . S
C5 C6 1.386 . S
C5 H33 0.929 . S
C6 C5 1.386 . S
C6 C7 1.373 . S
C7 C6 1.373 . S
C7 C8 1.409 . S
C7 H34 0.931 . S
C8 C3 1.356 . S
C8 C7 1.409 . S
C8 H35 0.930 . S
C9 O22 1.270 . S
C9 O23 1.248 . S
C10 O24 1.267 . S
C10 O25 1.278 1_655 S
C11 Pr1 2.880 . S
C11 C12 1.491 1_554 S
C11 O26 1.254 . S
C11 O27 1.225 . S
C12 C11 1.491 1_556 S
C12 C13 1.392 . S
C12 C17 1.356 . S
C13 C12 1.392 . S
C13 C14 1.368 . S
C13 H36 0.929 . S
C14 C13 1.368 . S
C14 C15 1.386 . S
C14 H37 0.929 . S
C15 C14 1.386 . S
C15 C16 1.373 . S
C16 C15 1.373 . S
C16 C17 1.409 . S
C16 H38 0.931 . S
C17 C12 1.356 . S
C17 C16 1.409 . S
C17 H39 0.930 . S
C18 O28 1.270 . S
C18 O29 1.248 1_455 S
C19 O30 1.267 . S
C19 O31 1.278 . S
O20 Pr0 2.562 . S
O20 C2 1.254 . S
O21 Pr0 2.490 . S
O21 C2 1.225 . S
O22 Pr0 2.695 . S
O22 Pr1 2.436 1_455 S
O22 C9 1.270 . S
O23 Pr0 2.512 . S
O23 C9 1.248 . S
O24 Pr1 2.438 . S
O24 C10 1.267 . S
O25 Pr0 2.437 . S
O25 C10 1.278 1_455 S
O26 Pr1 2.562 . S
O26 C11 1.254 . S
O27 Pr1 2.490 . S
O27 C11 1.225 . S
O28 Pr0 2.436 . S
O28 Pr1 2.695 1_455 S
O28 C18 1.270 . S
O29 Pr1 2.512 . S
O29 C18 1.248 1_655 S
O30 Pr0 2.438 . S
O30 C19 1.267 . S
O31 Pr1 2.437 1_455 S
O31 C19 1.278 . S
H32 C4 0.929 . S
H33 C5 0.929 . S
H34 C7 0.931 . S
H35 C8 0.930 . S
H36 C13 0.929 . S
H37 C14 0.929 . S
H38 C16 0.931 . S
H39 C17 0.930 . S
Pr40 C42 2.880 . S
Pr40 O60 2.562 . S
Pr40 O61 2.490 . S
Pr40 O62 2.695 . S
Pr40 O63 2.512 . S
Pr40 O65 2.437 . S
Pr40 O68 2.436 . S
Pr40 O70 2.438 . S
Pr41 C51 2.880 . S
Pr41 O62 2.436 . S
Pr41 O64 2.438 . S
Pr41 O66 2.562 . S
Pr41 O67 2.490 . S
Pr41 O68 2.695 . S
Pr41 O69 2.512 . S
Pr41 O71 2.437 . S
C42 Pr40 2.880 . S
C42 C43 1.491 . S
C42 O60 1.254 . S
C42 O61 1.225 . S
C43 C42 1.491 . S
C43 C44 1.392 . S
C43 C48 1.356 . S
C44 C43 1.392 . S
C44 C45 1.368 . S
C44 H72 0.929 . S
C45 C44 1.368 . S
C45 C46 1.386 . S
C45 H73 0.929 . S
C46 C45 1.386 . S
C46 C47 1.373 . S
C47 C46 1.373 . S
C47 C48 1.409 . S
C47 H74 0.931 . S
C48 C43 1.356 . S
C48 C47 1.409 . S
C48 H75 0.930 . S
C49 O62 1.270 . S
C49 O63 1.248 . S
C50 O64 1.267 . S
C50 O65 1.278 . S
C51 Pr41 2.880 . S
C51 C52 1.491 . S
C51 O66 1.254 . S
C51 O67 1.225 . S
C52 C51 1.491 . S
C52 C53 1.392 . S
C52 C57 1.356 . S
C53 C52 1.392 . S
C53 C54 1.368 . S
C53 H76 0.929 . S
C54 C53 1.368 . S
C54 C55 1.386 . S
C54 H77 0.929 . S
C55 C54 1.386 . S
C55 C56 1.373 . S
C56 C55 1.373 . S
C56 C57 1.409 . S
C56 H78 0.931 . S
C57 C52 1.356 . S
C57 C56 1.409 . S
C57 H79 0.930 . S
C58 O68 1.270 . S
C58 O69 1.248 . S
C59 O70 1.267 . S
C59 O71 1.278 . S
O60 Pr40 2.562 . S
O60 C42 1.254 . S
O61 Pr40 2.490 . S
O61 C42 1.225 . S
O62 Pr40 2.695 . S
O62 Pr41 2.436 . S
O62 C49 1.270 . S
O63 Pr40 2.512 . S
O63 C49 1.248 . S
O64 Pr41 2.438 . S
O64 C50 1.267 . S
O65 Pr40 2.437 . S
O65 C50 1.278 . S
O66 Pr41 2.562 . S
O66 C51 1.254 . S
O67 Pr41 2.490 . S
O67 C51 1.225 . S
O68 Pr40 2.436 . S
O68 Pr41 2.695 . S
O68 C58 1.270 . S
O69 Pr41 2.512 . S
O69 C58 1.248 . S
O70 Pr40 2.438 . S
O70 C59 1.267 . S
O71 Pr41 2.437 . S
O71 C59 1.278 . S
H72 C44 0.929 . S
H73 C45 0.929 . S
H74 C47 0.931 . S
H75 C48 0.930 . S
H76 C53 0.929 . S
H77 C54 0.929 . S
H78 C56 0.931 . S
H79 C57 0.930 . S
Pr80 C82 2.880 . S
Pr80 O100 2.562 . S
Pr80 O101 2.490 . S
Pr80 O102 2.695 . S
Pr80 O103 2.512 . S
Pr80 O105 2.437 . S
Pr80 O108 2.436 . S
Pr80 O110 2.438 . S
Pr81 C91 2.880 . S
Pr81 O102 2.436 . S
Pr81 O104 2.438 . S
Pr81 O106 2.562 . S
Pr81 O107 2.490 . S
Pr81 O108 2.695 . S
Pr81 O109 2.512 . S
Pr81 O111 2.437 . S
C82 Pr80 2.880 . S
C82 C83 1.491 . S
C82 O100 1.254 . S
C82 O101 1.225 . S
C83 C82 1.491 . S
C83 C84 1.392 . S
C83 C88 1.356 . S
C84 C83 1.392 . S
C84 C85 1.368 . S
C84 H112 0.929 . S
C85 C84 1.368 . S
C85 C86 1.386 . S
C85 H113 0.929 . S
C86 C85 1.386 . S
C86 C87 1.373 . S
C87 C86 1.373 . S
C87 C88 1.409 . S
C87 H114 0.931 . S
C88 C83 1.356 . S
C88 C87 1.409 . S
C88 H115 0.930 . S
C89 O102 1.270 . S
C89 O103 1.248 . S
C90 O104 1.267 . S
C90 O105 1.278 . S
C91 Pr81 2.880 . S
C91 C92 1.491 . S
C91 O106 1.254 . S
C91 O107 1.225 . S
C92 C91 1.491 . S
C92 C93 1.392 . S
C92 C97 1.356 . S
C93 C92 1.392 . S
C93 C94 1.368 . S
C93 H116 0.929 . S
C94 C93 1.368 . S
C94 C95 1.386 . S
C94 H117 0.929 . S
C95 C94 1.386 . S
C95 C96 1.373 . S
C96 C95 1.373 . S
C96 C97 1.409 . S
C96 H118 0.931 . S
C97 C92 1.356 . S
C97 C96 1.409 . S
C97 H119 0.930 . S
C98 O108 1.270 . S
C98 O109 1.248 . S
C99 O110 1.267 . S
C99 O111 1.278 . S
O100 Pr80 2.562 . S
O100 C82 1.254 . S
O101 Pr80 2.490 . S
O101 C82 1.225 . S
O102 Pr80 2.695 . S
O102 Pr81 2.436 . S
O102 C89 1.270 . S
O103 Pr80 2.512 . S
O103 C89 1.248 . S
O104 Pr81 2.438 . S
O104 C90 1.267 . S
O105 Pr80 2.437 . S
O105 C90 1.278 . S
O106 Pr81 2.562 . S
O106 C91 1.254 . S
O107 Pr81 2.490 . S
O107 C91 1.225 . S
O108 Pr80 2.436 . S
O108 Pr81 2.695 . S
O108 C98 1.270 . S
O109 Pr81 2.512 . S
O109 C98 1.248 . S
O110 Pr80 2.438 . S
O110 C99 1.267 . S
O111 Pr81 2.437 . S
O111 C99 1.278 . S
H112 C84 0.929 . S
H113 C85 0.929 . S
H114 C87 0.931 . S
H115 C88 0.930 . S
H116 C93 0.929 . S
H117 C94 0.929 . S
H118 C96 0.931 . S
H119 C97 0.930 . S
Pr120 C122 2.880 . S
Pr120 O140 2.562 . S
Pr120 O141 2.490 . S
Pr120 O142 2.695 . S
Pr120 O143 2.512 . S
Pr120 O145 2.437 . S
Pr120 O148 2.436 . S
Pr120 O150 2.438 . S
Pr121 C131 2.880 . S
Pr121 O142 2.436 . S
Pr121 O144 2.438 . S
Pr121 O146 2.562 . S
Pr121 O147 2.490 . S
Pr121 O148 2.695 . S
Pr121 O149 2.512 . S
Pr121 O151 2.437 . S
C122 Pr120 2.880 . S
C122 C123 1.491 1_556 S
C122 O140 1.254 . S
C122 O141 1.225 . S
C123 C122 1.491 1_554 S
C123 C124 1.392 . S
C123 C128 1.356 . S
C124 C123 1.392 . S
C124 C125 1.368 . S
C124 H152 0.929 . S
C125 C124 1.368 . S
C125 C126 1.386 . S
C125 H153 0.929 . S
C126 C125 1.386 . S
C126 C127 1.373 . S
C127 C126 1.373 . S
C127 C128 1.409 . S
C127 H154 0.931 . S
C128 C123 1.356 . S
C128 C127 1.409 . S
C128 H155 0.930 . S
C129 O142 1.270 . S
C129 O143 1.248 . S
C130 O144 1.267 . S
C130 O145 1.278 . S
C131 Pr121 2.880 . S
C131 C132 1.491 . S
C131 O146 1.254 . S
C131 O147 1.225 . S
C132 C131 1.491 . S
C132 C133 1.392 . S
C132 C137 1.356 . S
C133 C132 1.392 . S
C133 C134 1.368 . S
C133 H156 0.929 . S
C134 C133 1.368 . S
C134 C135 1.386 . S
C134 H157 0.929 . S
C135 C134 1.386 . S
C135 C136 1.373 . S
C136 C135 1.373 . S
C136 C137 1.409 . S
C136 H158 0.931 . S
C137 C132 1.356 . S
C137 C136 1.409 . S
C137 H159 0.930 . S
C138 O148 1.270 . S
C138 O149 1.248 . S
C139 O150 1.267 . S
C139 O151 1.278 . S
O140 Pr120 2.562 . S
O140 C122 1.254 . S
O141 Pr120 2.490 . S
O141 C122 1.225 . S
O142 Pr120 2.695 . S
O142 Pr121 2.436 . S
O142 C129 1.270 . S
O143 Pr120 2.512 . S
O143 C129 1.248 . S
O144 Pr121 2.438 . S
O144 C130 1.267 . S
O145 Pr120 2.437 . S
O145 C130 1.278 . S
O146 Pr121 2.562 . S
O146 C131 1.254 . S
O147 Pr121 2.490 . S
O147 C131 1.225 . S
O148 Pr120 2.436 . S
O148 Pr121 2.695 . S
O148 C138 1.270 . S
O149 Pr121 2.512 . S
O149 C138 1.248 . S
O150 Pr120 2.438 . S
O150 C139 1.267 . S
O151 Pr121 2.437 . S
O151 C139 1.278 . S
H152 C124 0.929 . S
H153 C125 0.929 . S
H154 C127 0.931 . S
H155 C128 0.930 . S
H156 C133 0.929 . S
H157 C134 0.929 . S
H158 C136 0.931 . S
H159 C137 0.930 . S
Pr160 C162 2.880 . S
Pr160 O180 2.562 . S
Pr160 O181 2.490 . S
Pr160 O182 2.695 . S
Pr160 O183 2.512 . S
Pr160 O185 2.437 . S
Pr160 O188 2.436 . S
Pr160 O190 2.438 . S
Pr161 C171 2.880 . S
Pr161 O182 2.436 1_655 S
Pr161 O184 2.438 . S
Pr161 O186 2.562 . S
Pr161 O187 2.490 . S
Pr161 O188 2.695 1_655 S
Pr161 O189 2.512 . S
Pr161 O191 2.437 1_655 S
C162 Pr160 2.880 . S
C162 C163 1.491 1_556 S
C162 O180 1.254 . S
C162 O181 1.225 . S
C163 C162 1.491 1_554 S
C163 C164 1.392 . S
C163 C168 1.356 . S
C164 C163 1.392 . S
C164 C165 1.368 . S
C164 H192 0.929 . S
C165 C164 1.368 . S
C165 C166 1.386 . S
C165 H193 0.929 . S
C166 C165 1.386 . S
C166 C167 1.373 . S
C167 C166 1.373 . S
C167 C168 1.409 . S
C167 H194 0.931 . S
C168 C163 1.356 . S
C168 C167 1.409 . S
C168 H195 0.930 . S
C169 O182 1.270 . S
C169 O183 1.248 . S
C170 O184 1.267 . S
C170 O185 1.278 1_655 S
C171 Pr161 2.880 . S
C171 C172 1.491 . S
C171 O186 1.254 . S
C171 O187 1.225 . S
C172 C171 1.491 . S
C172 C173 1.392 . S
C172 C177 1.356 . S
C173 C172 1.392 . S
C173 C174 1.368 . S
C173 H196 0.929 . S
C174 C173 1.368 . S
C174 C175 1.386 . S
C174 H197 0.929 . S
C175 C174 1.386 . S
C175 C176 1.373 . S
C176 C175 1.373 . S
C176 C177 1.409 . S
C176 H198 0.931 . S
C177 C172 1.356 . S
C177 C176 1.409 . S
C177 H199 0.930 . S
C178 O188 1.271 1_655 S
C178 O189 1.247 . S
C179 O190 1.267 . S
C179 O191 1.278 . S
O180 Pr160 2.562 . S
O180 C162 1.254 . S
O181 Pr160 2.490 . S
O181 C162 1.225 . S
O182 Pr160 2.695 . S
O182 Pr161 2.436 1_455 S
O182 C169 1.270 . S
O183 Pr160 2.512 . S
O183 C169 1.248 . S
O184 Pr161 2.438 . S
O184 C170 1.267 . S
O185 Pr160 2.437 . S
O185 C170 1.278 1_455 S
O186 Pr161 2.562 . S
O186 C171 1.254 . S
O187 Pr161 2.490 . S
O187 C171 1.225 . S
O188 Pr160 2.436 . S
O188 Pr161 2.695 1_455 S
O188 C178 1.271 1_455 S
O189 Pr161 2.512 . S
O189 C178 1.247 . S
O190 Pr160 2.438 . S
O190 C179 1.267 . S
O191 Pr161 2.437 1_455 S
O191 C179 1.278 . S
H192 C164 0.929 . S
H193 C165 0.929 . S
H194 C167 0.931 . S
H195 C168 0.930 . S
H196 C173 0.929 . S
H197 C174 0.929 . S
H198 C176 0.931 . S
H199 C177 0.930 . S
Pr200 C202 2.880 . S
Pr200 O220 2.562 . S
Pr200 O221 2.490 . S
Pr200 O222 2.695 . S
Pr200 O223 2.512 . S
Pr200 O225 2.437 . S
Pr200 O228 2.436 . S
Pr200 O230 2.438 . S
Pr201 C211 2.880 1_554 S
Pr201 O222 2.436 . S
Pr201 O224 2.438 . S
Pr201 O226 2.562 . S
Pr201 O227 2.490 . S
Pr201 O228 2.695 . S
Pr201 O229 2.512 . S
Pr201 O231 2.437 . S
C202 Pr200 2.880 . S
C202 C203 1.491 . S
C202 O220 1.254 . S
C202 O221 1.225 . S
C203 C202 1.491 . S
C203 C204 1.392 . S
C203 C208 1.356 . S
C204 C203 1.392 . S
C204 C205 1.368 . S
C204 H232 0.929 . S
C205 C204 1.368 . S
C205 C206 1.386 . S
C205 H233 0.929 . S
C206 C205 1.386 . S
C206 C207 1.373 . S
C207 C206 1.373 . S
C207 C208 1.409 . S
C207 H234 0.931 . S
C208 C203 1.356 . S
C208 C207 1.409 . S
C208 H235 0.930 . S
C209 O222 1.270 . S
C209 O223 1.248 . S
C210 O224 1.267 . S
C210 O225 1.278 . S
C211 Pr201 2.880 1_556 S
C211 C212 1.491 . S
C211 O226 1.254 1_556 S
C211 O227 1.225 1_556 S
C212 C211 1.491 . S
C212 C213 1.392 . S
C212 C217 1.356 . S
C213 C212 1.392 . S
C213 C214 1.368 . S
C213 H236 0.929 . S
C214 C213 1.368 . S
C214 C215 1.386 . S
C214 H237 0.929 . S
C215 C214 1.386 . S
C215 C216 1.373 . S
C216 C215 1.373 . S
C216 C217 1.409 . S
C216 H238 0.931 . S
C217 C212 1.356 . S
C217 C216 1.409 . S
C217 H239 0.930 . S
C218 O228 1.270 . S
C218 O229 1.248 . S
C219 O230 1.267 . S
C219 O231 1.278 . S
O220 Pr200 2.562 . S
O220 C202 1.254 . S
O221 Pr200 2.490 . S
O221 C202 1.225 . S
O222 Pr200 2.695 . S
O222 Pr201 2.436 . S
O222 C209 1.270 . S
O223 Pr200 2.512 . S
O223 C209 1.248 . S
O224 Pr201 2.438 . S
O224 C210 1.267 . S
O225 Pr200 2.437 . S
O225 C210 1.278 . S
O226 Pr201 2.562 . S
O226 C211 1.254 1_554 S
O227 Pr201 2.490 . S
O227 C211 1.225 1_554 S
O228 Pr200 2.436 . S
O228 Pr201 2.695 . S
O228 C218 1.270 . S
O229 Pr201 2.512 . S
O229 C218 1.248 . S
O230 Pr200 2.438 . S
O230 C219 1.267 . S
O231 Pr201 2.437 . S
O231 C219 1.278 . S
H232 C204 0.929 . S
H233 C205 0.929 . S
H234 C207 0.931 . S
H235 C208 0.930 . S
H236 C213 0.929 . S
H237 C214 0.929 . S
H238 C216 0.931 . S
H239 C217 0.930 . S
Pr240 C242 2.880 . S
Pr240 O260 2.562 . S
Pr240 O261 2.490 . S
Pr240 O262 2.695 . S
Pr240 O263 2.512 . S
Pr240 O265 2.437 . S
Pr240 O268 2.436 . S
Pr240 O270 2.438 . S
Pr241 C251 2.880 . S
Pr241 O262 2.436 . S
Pr241 O264 2.438 . S
Pr241 O266 2.562 . S
Pr241 O267 2.490 . S
Pr241 O268 2.695 . S
Pr241 O269 2.512 . S
Pr241 O271 2.437 . S
C242 Pr240 2.880 . S
C242 C243 1.491 . S
C242 O260 1.254 . S
C242 O261 1.225 . S
C243 C242 1.491 . S
C243 C244 1.392 . S
C243 C248 1.356 . S
C244 C243 1.392 . S
C244 C245 1.368 . S
C244 H272 0.929 . S
C245 C244 1.368 . S
C245 C246 1.386 . S
C245 H273 0.929 . S
C246 C245 1.386 . S
C246 C247 1.373 . S
C247 C246 1.373 . S
C247 C248 1.409 . S
C247 H274 0.931 . S
C248 C243 1.356 . S
C248 C247 1.409 . S
C248 H275 0.930 . S
C249 O262 1.270 . S
C249 O263 1.248 . S
C250 O264 1.267 . S
C250 O265 1.278 . S
C251 Pr241 2.880 . S
C251 C252 1.491 . S
C251 O266 1.254 . S
C251 O267 1.225 . S
C252 C251 1.491 . S
C252 C253 1.392 . S
C252 C257 1.356 . S
C253 C252 1.392 . S
C253 C254 1.368 . S
C253 H276 0.929 . S
C254 C253 1.368 . S
C254 C255 1.386 . S
C254 H277 0.929 . S
C255 C254 1.386 . S
C255 C256 1.373 . S
C256 C255 1.373 . S
C256 C257 1.409 . S
C256 H278 0.931 . S
C257 C252 1.356 . S
C257 C256 1.409 . S
C257 H279 0.930 . S
C258 O268 1.270 . S
C258 O269 1.248 . S
C259 O270 1.267 . S
C259 O271 1.278 . S
O260 Pr240 2.562 . S
O260 C242 1.254 . S
O261 Pr240 2.490 . S
O261 C242 1.225 . S
O262 Pr240 2.695 . S
O262 Pr241 2.436 . S
O262 C249 1.270 . S
O263 Pr240 2.512 . S
O263 C249 1.248 . S
O264 Pr241 2.438 . S
O264 C250 1.267 . S
O265 Pr240 2.437 . S
O265 C250 1.278 . S
O266 Pr241 2.562 . S
O266 C251 1.254 . S
O267 Pr241 2.490 . S
O267 C251 1.225 . S
O268 Pr240 2.436 . S
O268 Pr241 2.695 . S
O268 C258 1.270 . S
O269 Pr241 2.512 . S
O269 C258 1.248 . S
O270 Pr240 2.438 . S
O270 C259 1.267 . S
O271 Pr241 2.437 . S
O271 C259 1.278 . S
H272 C244 0.929 . S
H273 C245 0.929 . S
H274 C247 0.931 . S
H275 C248 0.930 . S
H276 C253 0.929 . S
H277 C254 0.929 . S
H278 C256 0.931 . S
H279 C257 0.930 . S
Pr280 C282 2.880 . S
Pr280 O300 2.562 . S
Pr280 O301 2.490 . S
Pr280 O302 2.695 . S
Pr280 O303 2.512 . S
Pr280 O305 2.437 . S
Pr280 O308 2.436 . S
Pr280 O310 2.438 . S
Pr281 C291 2.880 . S
Pr281 O302 2.436 . S
Pr281 O304 2.438 . S
Pr281 O306 2.562 . S
Pr281 O307 2.490 . S
Pr281 O308 2.695 . S
Pr281 O309 2.512 . S
Pr281 O311 2.437 . S
C282 Pr280 2.880 . S
C282 C283 1.491 . S
C282 O300 1.254 . S
C282 O301 1.225 . S
C283 C282 1.491 . S
C283 C284 1.392 . S
C283 C288 1.356 . S
C284 C283 1.392 . S
C284 C285 1.368 . S
C284 H312 0.929 . S
C285 C284 1.368 . S
C285 C286 1.386 . S
C285 H313 0.929 . S
C286 C285 1.386 . S
C286 C287 1.373 . S
C287 C286 1.373 . S
C287 C288 1.409 . S
C287 H314 0.931 . S
C288 C283 1.356 . S
C288 C287 1.409 . S
C288 H315 0.930 . S
C289 O302 1.270 . S
C289 O303 1.248 . S
C290 O304 1.267 . S
C290 O305 1.278 . S
C291 Pr281 2.880 . S
C291 C292 1.491 . S
C291 O306 1.254 . S
C291 O307 1.225 . S
C292 C291 1.491 . S
C292 C293 1.392 . S
C292 C297 1.356 . S
C293 C292 1.392 . S
C293 C294 1.368 . S
C293 H316 0.929 . S
C294 C293 1.368 . S
C294 C295 1.386 . S
C294 H317 0.929 . S
C295 C294 1.386 . S
C295 C296 1.373 . S
C296 C295 1.373 . S
C296 C297 1.409 . S
C296 H318 0.931 . S
C297 C292 1.356 . S
C297 C296 1.409 . S
C297 H319 0.930 . S
C298 O308 1.270 . S
C298 O309 1.248 . S
C299 O310 1.267 . S
C299 O311 1.278 . S
O300 Pr280 2.562 . S
O300 C282 1.254 . S
O301 Pr280 2.490 . S
O301 C282 1.225 . S
O302 Pr280 2.695 . S
O302 Pr281 2.436 . S
O302 C289 1.270 . S
O303 Pr280 2.512 . S
O303 C289 1.248 . S
O304 Pr281 2.438 . S
O304 C290 1.267 . S
O305 Pr280 2.437 . S
O305 C290 1.278 . S
O306 Pr281 2.562 . S
O306 C291 1.254 . S
O307 Pr281 2.490 . S
O307 C291 1.225 . S
O308 Pr280 2.436 . S
O308 Pr281 2.695 . S
O308 C298 1.270 . S
O309 Pr281 2.512 . S
O309 C298 1.248 . S
O310 Pr280 2.438 . S
O310 C299 1.267 . S
O311 Pr281 2.437 . S
O311 C299 1.278 . S
H312 C284 0.929 . S
H313 C285 0.929 . S
H314 C287 0.931 . S
H315 C288 0.930 . S
H316 C293 0.929 . S
H317 C294 0.929 . S
H318 C296 0.931 . S
H319 C297 0.930 . S
Pr320 C322 2.880 . S
Pr320 O340 2.562 . S
Pr320 O341 2.490 . S
Pr320 O342 2.695 . S
Pr320 O343 2.512 . S
Pr320 O345 2.437 . S
Pr320 O348 2.436 . S
Pr320 O350 2.438 . S
Pr321 C331 2.880 . S
Pr321 O342 2.436 . S
Pr321 O344 2.438 . S
Pr321 O346 2.562 . S
Pr321 O347 2.490 . S
Pr321 O348 2.695 . S
Pr321 O349 2.512 . S
Pr321 O351 2.437 . S
C322 Pr320 2.880 . S
C322 C323 1.491 . S
C322 O340 1.254 . S
C322 O341 1.225 . S
C323 C322 1.491 . S
C323 C324 1.392 . S
C323 C328 1.356 . S
C324 C323 1.392 . S
C324 C325 1.368 . S
C324 H352 0.929 . S
C325 C324 1.368 . S
C325 C326 1.386 . S
C325 H353 0.929 . S
C326 C325 1.386 . S
C326 C327 1.373 . S
C327 C326 1.373 . S
C327 C328 1.409 . S
C327 H354 0.931 . S
C328 C323 1.356 . S
C328 C327 1.409 . S
C328 H355 0.930 . S
C329 O342 1.270 . S
C329 O343 1.248 . S
C330 O344 1.267 . S
C330 O345 1.278 . S
C331 Pr321 2.880 . S
C331 C332 1.491 . S
C331 O346 1.254 . S
C331 O347 1.225 . S
C332 C331 1.491 . S
C332 C333 1.392 . S
C332 C337 1.356 . S
C333 C332 1.392 . S
C333 C334 1.368 . S
C333 H356 0.929 . S
C334 C333 1.368 . S
C334 C335 1.386 . S
C334 H357 0.929 . S
C335 C334 1.386 . S
C335 C336 1.373 . S
C336 C335 1.373 . S
C336 C337 1.409 . S
C336 H358 0.931 . S
C337 C332 1.356 . S
C337 C336 1.409 . S
C337 H359 0.930 . S
C338 O348 1.270 . S
C338 O349 1.248 . S
C339 O350 1.267 . S
C339 O351 1.278 . S
O340 Pr320 2.562 . S
O340 C322 1.254 . S
O341 Pr320 2.490 . S
O341 C322 1.225 . S
O342 Pr320 2.695 . S
O342 Pr321 2.436 . S
O342 C329 1.270 . S
O343 Pr320 2.512 . S
O343 C329 1.248 . S
O344 Pr321 2.438 . S
O344 C330 1.267 . S
O345 Pr320 2.437 . S
O345 C330 1.278 . S
O346 Pr321 2.562 . S
O346 C331 1.254 . S
O347 Pr321 2.490 . S
O347 C331 1.225 . S
O348 Pr320 2.436 . S
O348 Pr321 2.695 . S
O348 C338 1.270 . S
O349 Pr321 2.512 . S
O349 C338 1.248 . S
O350 Pr320 2.438 . S
O350 C339 1.267 . S
O351 Pr321 2.437 . S
O351 C339 1.278 . S
H352 C324 0.929 . S
H353 C325 0.929 . S
H354 C327 0.931 . S
H355 C328 0.930 . S
H356 C333 0.929 . S
H357 C334 0.929 . S
H358 C336 0.931 . S
H359 C337 0.930 . S
Pr360 C362 2.880 . S
Pr360 O380 2.562 . S
Pr360 O381 2.490 . S
Pr360 O382 2.695 . S
Pr360 O383 2.512 . S
Pr360 O385 2.437 . S
Pr360 O388 2.436 . S
Pr360 O390 2.438 . S
Pr361 C371 2.880 . S
Pr361 O382 2.436 . S
Pr361 O384 2.438 . S
Pr361 O386 2.562 . S
Pr361 O387 2.490 . S
Pr361 O388 2.695 . S
Pr361 O389 2.512 . S
Pr361 O391 2.437 . S
C362 Pr360 2.880 . S
C362 C363 1.491 . S
C362 O380 1.254 . S
C362 O381 1.225 . S
C363 C362 1.491 . S
C363 C364 1.392 . S
C363 C368 1.356 . S
C364 C363 1.392 . S
C364 C365 1.368 . S
C364 H392 0.929 . S
C365 C364 1.368 . S
C365 C366 1.386 . S
C365 H393 0.929 . S
C366 C365 1.386 . S
C366 C367 1.373 . S
C367 C366 1.373 . S
C367 C368 1.409 . S
C367 H394 0.931 . S
C368 C363 1.356 . S
C368 C367 1.409 . S
C368 H395 0.930 . S
C369 O382 1.270 . S
C369 O383 1.248 . S
C370 O384 1.267 . S
C370 O385 1.278 . S
C371 Pr361 2.880 . S
C371 C372 1.491 . S
C371 O386 1.254 . S
C371 O387 1.225 . S
C372 C371 1.491 . S
C372 C373 1.392 . S
C372 C377 1.356 . S
C373 C372 1.392 . S
C373 C374 1.368 1_554 S
C373 H396 0.929 . S
C374 C373 1.368 1_556 S
C374 C375 1.386 . S
C374 H397 0.929 . S
C375 C374 1.386 . S
C375 C376 1.373 . S
C376 C375 1.373 . S
C376 C377 1.409 1_556 S
C376 H398 0.931 . S
C377 C372 1.356 . S
C377 C376 1.409 1_554 S
C377 H399 0.930 . S
C378 O388 1.270 . S
C378 O389 1.248 . S
C379 O390 1.267 . S
C379 O391 1.278 . S
O380 Pr360 2.562 . S
O380 C362 1.254 . S
O381 Pr360 2.490 . S
O381 C362 1.225 . S
O382 Pr360 2.695 . S
O382 Pr361 2.436 . S
O382 C369 1.270 . S
O383 Pr360 2.512 . S
O383 C369 1.248 . S
O384 Pr361 2.438 . S
O384 C370 1.267 . S
O385 Pr360 2.437 . S
O385 C370 1.278 . S
O386 Pr361 2.562 . S
O386 C371 1.254 . S
O387 Pr361 2.490 . S
O387 C371 1.225 . S
O388 Pr360 2.436 . S
O388 Pr361 2.695 . S
O388 C378 1.270 . S
O389 Pr361 2.512 . S
O389 C378 1.248 . S
O390 Pr360 2.438 . S
O390 C379 1.267 . S
O391 Pr361 2.437 . S
O391 C379 1.278 . S
H392 C364 0.929 . S
H393 C365 0.929 . S
H394 C367 0.931 . S
H395 C368 0.930 . S
H396 C373 0.929 . S
H397 C374 0.929 . S
H398 C376 0.931 . S
H399 C377 0.930 . S
Pr400 C402 2.880 . S
Pr400 O420 2.562 . S
Pr400 O421 2.490 . S
Pr400 O422 2.695 . S
Pr400 O423 2.512 . S
Pr400 O425 2.437 . S
Pr400 O428 2.436 . S
Pr400 O430 2.438 . S
Pr401 C411 2.880 . S
Pr401 O422 2.436 . S
Pr401 O424 2.438 . S
Pr401 O426 2.562 . S
Pr401 O427 2.490 . S
Pr401 O428 2.695 . S
Pr401 O429 2.512 . S
Pr401 O431 2.437 . S
C402 Pr400 2.880 . S
C402 C403 1.491 . S
C402 O420 1.254 . S
C402 O421 1.225 . S
C403 C402 1.491 . S
C403 C404 1.392 . S
C403 C408 1.356 1_556 S
C404 C403 1.392 . S
C404 C405 1.368 1_556 S
C404 H432 0.929 . S
C405 C404 1.368 1_554 S
C405 C406 1.386 . S
C405 H433 0.929 . S
C406 C405 1.386 . S
C406 C407 1.373 . S
C407 C406 1.373 . S
C407 C408 1.409 . S
C407 H434 0.931 . S
C408 C403 1.356 1_554 S
C408 C407 1.409 . S
C408 H435 0.930 . S
C409 O422 1.270 . S
C409 O423 1.248 . S
C410 O424 1.267 . S
C410 O425 1.278 . S
C411 Pr401 2.880 . S
C411 C412 1.491 . S
C411 O426 1.254 . S
C411 O427 1.225 . S
C412 C411 1.491 . S
C412 C413 1.392 . S
C412 C417 1.356 . S
C413 C412 1.392 . S
C413 C414 1.368 . S
C413 H436 0.929 . S
C414 C413 1.368 . S
C414 C415 1.386 . S
C414 H437 0.929 . S
C415 C414 1.386 . S
C415 C416 1.373 . S
C416 C415 1.373 . S
C416 C417 1.409 . S
C416 H438 0.931 . S
C417 C412 1.356 . S
C417 C416 1.409 . S
C417 H439 0.930 . S
C418 O428 1.270 . S
C418 O429 1.248 . S
C419 O430 1.267 . S
C419 O431 1.278 . S
O420 Pr400 2.562 . S
O420 C402 1.254 . S
O421 Pr400 2.490 . S
O421 C402 1.225 . S
O422 Pr400 2.695 . S
O422 Pr401 2.436 . S
O422 C409 1.270 . S
O423 Pr400 2.512 . S
O423 C409 1.248 . S
O424 Pr401 2.438 . S
O424 C410 1.267 . S
O425 Pr400 2.437 . S
O425 C410 1.278 . S
O426 Pr401 2.562 . S
O426 C411 1.254 . S
O427 Pr401 2.490 . S
O427 C411 1.225 . S
O428 Pr400 2.436 . S
O428 Pr401 2.695 . S
O428 C418 1.270 . S
O429 Pr401 2.512 . S
O429 C418 1.248 . S
O430 Pr400 2.438 . S
O430 C419 1.267 . S
O431 Pr401 2.437 . S
O431 C419 1.278 . S
H432 C404 0.929 . S
H433 C405 0.929 . S
H434 C407 0.931 . S
H435 C408 0.930 . S
H436 C413 0.929 . S
H437 C414 0.929 . S
H438 C416 0.931 . S
H439 C417 0.930 . S
Pr440 C442 2.880 . S
Pr440 O460 2.562 . S
Pr440 O461 2.490 . S
Pr440 O462 2.695 . S
Pr440 O463 2.512 . S
Pr440 O465 2.437 . S
Pr440 O468 2.436 . S
Pr440 O470 2.438 . S
Pr441 C451 2.880 . S
Pr441 O462 2.436 . S
Pr441 O464 2.438 . S
Pr441 O466 2.562 . S
Pr441 O467 2.490 . S
Pr441 O468 2.695 . S
Pr441 O469 2.512 . S
Pr441 O471 2.437 . S
C442 Pr440 2.880 . S
C442 C443 1.491 . S
C442 O460 1.254 . S
C442 O461 1.225 . S
C443 C442 1.491 . S
C443 C444 1.392 . S
C443 C448 1.356 . S
C444 C443 1.392 . S
C444 C445 1.368 . S
C444 H472 0.929 . S
C445 C444 1.368 . S
C445 C446 1.386 . S
C445 H473 0.929 . S
C446 C445 1.386 . S
C446 C447 1.373 . S
C447 C446 1.373 . S
C447 C448 1.409 . S
C447 H474 0.931 . S
C448 C443 1.356 . S
C448 C447 1.409 . S
C448 H475 0.930 . S
C449 O462 1.270 . S
C449 O463 1.248 . S
C450 O464 1.267 . S
C450 O465 1.278 . S
C451 Pr441 2.880 . S
C451 C452 1.491 . S
C451 O466 1.254 . S
C451 O467 1.225 . S
C452 C451 1.491 . S
C452 C453 1.392 . S
C452 C457 1.356 . S
C453 C452 1.392 . S
C453 C454 1.368 . S
C453 H476 0.929 . S
C454 C453 1.368 . S
C454 C455 1.386 . S
C454 H477 0.929 . S
C455 C454 1.386 . S
C455 C456 1.373 . S
C456 C455 1.373 . S
C456 C457 1.409 . S
C456 H478 0.931 . S
C457 C452 1.356 . S
C457 C456 1.409 . S
C457 H479 0.930 . S
C458 O468 1.270 . S
C458 O469 1.248 . S
C459 O470 1.267 . S
C459 O471 1.278 . S
O460 Pr440 2.562 . S
O460 C442 1.254 . S
O461 Pr440 2.490 . S
O461 C442 1.225 . S
O462 Pr440 2.695 . S
O462 Pr441 2.436 . S
O462 C449 1.270 . S
O463 Pr440 2.512 . S
O463 C449 1.248 . S
O464 Pr441 2.438 . S
O464 C450 1.267 . S
O465 Pr440 2.437 . S
O465 C450 1.278 . S
O466 Pr441 2.562 . S
O466 C451 1.254 . S
O467 Pr441 2.490 . S
O467 C451 1.225 . S
O468 Pr440 2.436 . S
O468 Pr441 2.695 . S
O468 C458 1.270 . S
O469 Pr441 2.512 . S
O469 C458 1.248 . S
O470 Pr440 2.438 . S
O470 C459 1.267 . S
O471 Pr441 2.437 . S
O471 C459 1.278 . S
H472 C444 0.929 . S
H473 C445 0.929 . S
H474 C447 0.931 . S
H475 C448 0.930 . S
H476 C453 0.929 . S
H477 C454 0.929 . S
H478 C456 0.931 . S
H479 C457 0.930 . S
Pr480 C482 2.880 . S
Pr480 O500 2.562 . S
Pr480 O501 2.490 . S
Pr480 O502 2.695 . S
Pr480 O503 2.512 . S
Pr480 O505 2.437 . S
Pr480 O508 2.436 . S
Pr480 O510 2.438 . S
Pr481 C491 2.880 . S
Pr481 O502 2.436 . S
Pr481 O504 2.438 . S
Pr481 O506 2.562 . S
Pr481 O507 2.490 . S
Pr481 O508 2.695 . S
Pr481 O509 2.512 . S
Pr481 O511 2.437 . S
C482 Pr480 2.880 . S
C482 C483 1.491 . S
C482 O500 1.254 . S
C482 O501 1.225 . S
C483 C482 1.491 . S
C483 C484 1.392 . S
C483 C488 1.356 . S
C484 C483 1.392 . S
C484 C485 1.368 . S
C484 H512 0.929 . S
C485 C484 1.368 . S
C485 C486 1.386 . S
C485 H513 0.929 . S
C486 C485 1.386 . S
C486 C487 1.373 . S
C487 C486 1.373 . S
C487 C488 1.409 . S
C487 H514 0.931 . S
C488 C483 1.356 . S
C488 C487 1.409 . S
C488 H515 0.930 . S
C489 O502 1.270 . S
C489 O503 1.248 . S
C490 O504 1.267 . S
C490 O505 1.278 . S
C491 Pr481 2.880 . S
C491 C492 1.491 . S
C491 O506 1.254 . S
C491 O507 1.225 . S
C492 C491 1.491 . S
C492 C493 1.392 . S
C492 C497 1.356 . S
C493 C492 1.392 . S
C493 C494 1.368 . S
C493 H516 0.929 . S
C494 C493 1.368 . S
C494 C495 1.386 . S
C494 H517 0.929 . S
C495 C494 1.386 . S
C495 C496 1.373 . S
C496 C495 1.373 . S
C496 C497 1.409 . S
C496 H518 0.931 . S
C497 C492 1.356 . S
C497 C496 1.409 . S
C497 H519 0.930 . S
C498 O508 1.270 . S
C498 O509 1.248 . S
C499 O510 1.267 . S
C499 O511 1.278 . S
O500 Pr480 2.562 . S
O500 C482 1.254 . S
O501 Pr480 2.490 . S
O501 C482 1.225 . S
O502 Pr480 2.695 . S
O502 Pr481 2.436 . S
O502 C489 1.270 . S
O503 Pr480 2.512 . S
O503 C489 1.248 . S
O504 Pr481 2.438 . S
O504 C490 1.267 . S
O505 Pr480 2.437 . S
O505 C490 1.278 . S
O506 Pr481 2.562 . S
O506 C491 1.254 . S
O507 Pr481 2.490 . S
O507 C491 1.225 . S
O508 Pr480 2.436 . S
O508 Pr481 2.695 . S
O508 C498 1.270 . S
O509 Pr481 2.512 . S
O509 C498 1.248 . S
O510 Pr480 2.438 . S
O510 C499 1.267 . S
O511 Pr481 2.437 . S
O511 C499 1.278 . S
H512 C484 0.929 . S
H513 C485 0.929 . S
H514 C487 0.931 . S
H515 C488 0.930 . S
H516 C493 0.929 . S
H517 C494 0.929 . S
H518 C496 0.931 . S
H519 C497 0.930 . S
Pr520 C522 2.880 . S
Pr520 O540 2.562 . S
Pr520 O541 2.490 . S
Pr520 O542 2.695 1_655 S
Pr520 O543 2.513 1_655 S
Pr520 O545 2.437 1_655 S
Pr520 O548 2.436 1_655 S
Pr520 O550 2.438 . S
Pr521 C531 2.880 . S
Pr521 O542 2.436 . S
Pr521 O544 2.438 . S
Pr521 O546 2.562 . S
Pr521 O547 2.490 . S
Pr521 O548 2.695 . S
Pr521 O549 2.512 . S
Pr521 O551 2.437 . S
C522 Pr520 2.880 . S
C522 C523 1.491 1_554 S
C522 O540 1.254 . S
C522 O541 1.225 . S
C523 C522 1.491 1_556 S
C523 C524 1.392 . S
C523 C528 1.356 . S
C524 C523 1.392 . S
C524 C525 1.368 . S
C524 H552 0.929 . S
C525 C524 1.368 . S
C525 C526 1.386 . S
C525 H553 0.929 . S
C526 C525 1.386 . S
C526 C527 1.373 . S
C527 C526 1.373 . S
C527 C528 1.409 . S
C527 H554 0.931 . S
C528 C523 1.356 . S
C528 C527 1.409 . S
C528 H555 0.930 . S
C529 O542 1.270 . S
C529 O543 1.248 . S
C530 O544 1.267 . S
C530 O545 1.278 . S
C531 Pr521 2.880 . S
C531 C532 1.491 . S
C531 O546 1.254 . S
C531 O547 1.225 . S
C532 C531 1.491 . S
C532 C533 1.392 . S
C532 C537 1.356 . S
C533 C532 1.392 . S
C533 C534 1.368 . S
C533 H556 0.929 . S
C534 C533 1.368 . S
C534 C535 1.386 . S
C534 H557 0.929 . S
C535 C534 1.386 . S
C535 C536 1.373 . S
C536 C535 1.373 . S
C536 C537 1.409 . S
C536 H558 0.931 . S
C537 C532 1.356 . S
C537 C536 1.409 . S
C537 H559 0.930 . S
C538 O548 1.270 . S
C538 O549 1.248 . S
C539 O550 1.267 . S
C539 O551 1.278 1_655 S
O540 Pr520 2.562 . S
O540 C522 1.254 . S
O541 Pr520 2.490 . S
O541 C522 1.225 . S
O542 Pr520 2.695 1_455 S
O542 Pr521 2.436 . S
O542 C529 1.270 . S
O543 Pr520 2.513 1_455 S
O543 C529 1.248 . S
O544 Pr521 2.438 . S
O544 C530 1.267 . S
O545 Pr520 2.437 1_455 S
O545 C530 1.278 . S
O546 Pr521 2.562 . S
O546 C531 1.254 . S
O547 Pr521 2.490 . S
O547 C531 1.225 . S
O548 Pr520 2.436 1_455 S
O548 Pr521 2.695 . S
O548 C538 1.270 . S
O549 Pr521 2.512 . S
O549 C538 1.248 . S
O550 Pr520 2.438 . S
O550 C539 1.267 . S
O551 Pr521 2.437 . S
O551 C539 1.278 1_455 S
H552 C524 0.929 . S
H553 C525 0.929 . S
H554 C527 0.931 . S
H555 C528 0.930 . S
H556 C533 0.929 . S
H557 C534 0.929 . S
H558 C536 0.931 . S
H559 C537 0.930 . S
Pr560 C562 2.880 . S
Pr560 O580 2.562 . S
Pr560 O581 2.490 . S
Pr560 O582 2.695 . S
Pr560 O583 2.512 . S
Pr560 O585 2.437 . S
Pr560 O588 2.436 . S
Pr560 O590 2.438 . S
Pr561 C571 2.880 . S
Pr561 O582 2.436 . S
Pr561 O584 2.438 . S
Pr561 O586 2.562 . S
Pr561 O587 2.490 . S
Pr561 O588 2.695 . S
Pr561 O589 2.512 . S
Pr561 O591 2.437 . S
C562 Pr560 2.880 . S
C562 C563 1.491 . S
C562 O580 1.254 . S
C562 O581 1.225 . S
C563 C562 1.491 . S
C563 C564 1.392 . S
C563 C568 1.356 . S
C564 C563 1.392 . S
C564 C565 1.368 . S
C564 H592 0.929 . S
C565 C564 1.368 . S
C565 C566 1.386 . S
C565 H593 0.929 . S
C566 C565 1.386 . S
C566 C567 1.373 . S
C567 C566 1.373 . S
C567 C568 1.409 . S
C567 H594 0.931 . S
C568 C563 1.356 . S
C568 C567 1.409 . S
C568 H595 0.930 . S
C569 O582 1.270 . S
C569 O583 1.248 . S
C570 O584 1.267 . S
C570 O585 1.278 . S
C571 Pr561 2.880 . S
C571 C572 1.491 . S
C571 O586 1.254 . S
C571 O587 1.225 . S
C572 C571 1.491 . S
C572 C573 1.392 . S
C572 C577 1.356 . S
C573 C572 1.392 . S
C573 C574 1.368 . S
C573 H596 0.929 . S
C574 C573 1.368 . S
C574 C575 1.386 . S
C574 H597 0.929 . S
C575 C574 1.386 . S
C575 C576 1.373 . S
C576 C575 1.373 . S
C576 C577 1.409 . S
C576 H598 0.931 . S
C577 C572 1.356 . S
C577 C576 1.409 . S
C577 H599 0.930 . S
C578 O588 1.270 . S
C578 O589 1.248 . S
C579 O590 1.267 . S
C579 O591 1.278 . S
O580 Pr560 2.562 . S
O580 C562 1.254 . S
O581 Pr560 2.490 . S
O581 C562 1.225 . S
O582 Pr560 2.695 . S
O582 Pr561 2.436 . S
O582 C569 1.270 . S
O583 Pr560 2.512 . S
O583 C569 1.248 . S
O584 Pr561 2.438 . S
O584 C570 1.267 . S
O585 Pr560 2.437 . S
O585 C570 1.278 . S
O586 Pr561 2.562 . S
O586 C571 1.254 . S
O587 Pr561 2.490 . S
O587 C571 1.225 . S
O588 Pr560 2.436 . S
O588 Pr561 2.695 . S
O588 C578 1.270 . S
O589 Pr561 2.512 . S
O589 C578 1.248 . S
O590 Pr560 2.438 . S
O590 C579 1.267 . S
O591 Pr561 2.437 . S
O591 C579 1.278 . S
H592 C564 0.929 . S
H593 C565 0.929 . S
H594 C567 0.931 . S
H595 C568 0.930 . S
H596 C573 0.929 . S
H597 C574 0.929 . S
H598 C576 0.931 . S
H599 C577 0.930 . S
Pr600 C602 2.880 . S
Pr600 O620 2.562 . S
Pr600 O621 2.490 . S
Pr600 O622 2.695 1_655 S
Pr600 O623 2.512 . S
Pr600 O625 2.437 1_655 S
Pr600 O628 2.436 1_655 S
Pr600 O630 2.438 . S
Pr601 C611 2.880 . S
Pr601 O622 2.436 . S
Pr601 O624 2.438 . S
Pr601 O626 2.562 . S
Pr601 O627 2.490 . S
Pr601 O628 2.695 . S
Pr601 O629 2.512 . S
Pr601 O631 2.437 . S
C602 Pr600 2.880 . S
C602 C603 1.491 1_556 S
C602 O620 1.254 . S
C602 O621 1.225 . S
C603 C602 1.491 1_554 S
C603 C604 1.392 . S
C603 C608 1.356 . S
C604 C603 1.392 . S
C604 C605 1.368 . S
C604 H632 0.929 . S
C605 C604 1.368 . S
C605 C606 1.386 . S
C605 H633 0.929 . S
C606 C605 1.386 . S
C606 C607 1.373 . S
C607 C606 1.373 . S
C607 C608 1.409 . S
C607 H634 0.931 . S
C608 C603 1.356 . S
C608 C607 1.409 . S
C608 H635 0.930 . S
C609 O622 1.270 . S
C609 O623 1.248 1_455 S
C610 O624 1.267 . S
C610 O625 1.278 . S
C611 Pr601 2.880 . S
C611 C612 1.491 . S
C611 O626 1.254 . S
C611 O627 1.225 . S
C612 C611 1.491 . S
C612 C613 1.392 . S
C612 C617 1.356 . S
C613 C612 1.392 . S
C613 C614 1.368 . S
C613 H636 0.929 . S
C614 C613 1.368 . S
C614 C615 1.386 . S
C614 H637 0.929 . S
C615 C614 1.386 . S
C615 C616 1.373 . S
C616 C615 1.373 . S
C616 C617 1.409 . S
C616 H638 0.931 . S
C617 C612 1.356 . S
C617 C616 1.409 . S
C617 H639 0.930 . S
C618 O628 1.270 . S
C618 O629 1.248 . S
C619 O630 1.267 . S
C619 O631 1.278 1_655 S
O620 Pr600 2.562 . S
O620 C602 1.254 . S
O621 Pr600 2.490 . S
O621 C602 1.225 . S
O622 Pr600 2.695 1_455 S
O622 Pr601 2.436 . S
O622 C609 1.270 . S
O623 Pr600 2.512 . S
O623 C609 1.248 1_655 S
O624 Pr601 2.438 . S
O624 C610 1.267 . S
O625 Pr600 2.437 1_455 S
O625 C610 1.278 . S
O626 Pr601 2.562 . S
O626 C611 1.254 . S
O627 Pr601 2.490 . S
O627 C611 1.225 . S
O628 Pr600 2.436 1_455 S
O628 Pr601 2.695 . S
O628 C618 1.270 . S
O629 Pr601 2.512 . S
O629 C618 1.248 . S
O630 Pr600 2.438 . S
O630 C619 1.267 . S
O631 Pr601 2.437 . S
O631 C619 1.278 1_455 S
H632 C604 0.929 . S
H633 C605 0.929 . S
H634 C607 0.931 . S
H635 C608 0.930 . S
H636 C613 0.929 . S
H637 C614 0.929 . S
H638 C616 0.931 . S
H639 C617 0.930 . S
C640 C641 1.391 . S
C640 C642 1.394 . S
C640 H656 0.931 . S
C641 C640 1.391 . S
C641 C645 1.376 . S
C642 C640 1.394 . S
C642 C643 1.369 1_554 S
C642 C646 1.531 1_554 S
C643 C642 1.369 1_556 S
C643 C644 1.410 1_556 S
C643 C651 1.503 . S
C644 C643 1.410 1_554 S
C644 C645 1.392 . S
C644 C647 1.511 1_554 S
C645 C641 1.376 . S
C645 C644 1.392 . S
C645 H657 0.929 . S
C646 C642 1.531 1_556 S
C646 H658 0.960 . S
C646 H659 0.962 . S
C646 H660 0.960 1_556 S
C647 C644 1.511 1_556 S
C647 H661 0.961 . S
C647 H662 0.961 . S
C647 H663 0.961 . S
C648 C649 1.370 . S
C648 C650 1.363 . S
C648 H664 0.931 . S
C649 C648 1.370 . S
C649 C653 1.408 . S
C650 C648 1.363 . S
C650 C651 1.370 . S
C650 C654 1.524 . S
C651 C643 1.503 . S
C651 C650 1.370 . S
C651 C652 1.403 . S
C652 C651 1.403 . S
C652 C653 1.404 . S
C652 C655 1.539 . S
C653 C649 1.408 . S
C653 C652 1.404 . S
C653 H665 0.930 . S
C654 C650 1.524 . S
C654 H666 0.956 . S
C654 H667 0.961 . S
C654 H668 0.961 . S
C655 C652 1.539 . S
C655 H669 0.958 . S
C655 H670 0.961 . S
C655 H671 0.960 1_556 S
H656 C640 0.931 . S
H657 C645 0.929 . S
H658 C646 0.960 . S
H659 C646 0.962 . S
H660 C646 0.960 1_554 S
H661 C647 0.961 . S
H662 C647 0.961 . S
H663 C647 0.961 . S
H664 C648 0.931 . S
H665 C653 0.930 . S
H666 C654 0.956 . S
H667 C654 0.961 . S
H668 C654 0.961 . S
H669 C655 0.958 . S
H670 C655 0.961 . S
H671 C655 0.960 1_554 S
C672 C673 1.391 . S
C672 C674 1.394 . S
C672 H688 0.931 . S
C673 C672 1.391 . S
C673 C677 1.376 . S
C674 C672 1.394 . S
C674 C675 1.369 . S
C674 C678 1.531 . S
C675 C674 1.369 . S
C675 C676 1.410 . S
C675 C683 1.503 . S
C676 C675 1.410 . S
C676 C677 1.392 . S
C676 C679 1.511 . S
C677 C673 1.376 . S
C677 C676 1.392 . S
C677 H689 0.929 . S
C678 C674 1.531 . S
C678 H690 0.960 . S
C678 H691 0.962 . S
C678 H692 0.960 . S
C679 C676 1.511 . S
C679 H693 0.961 . S
C679 H694 0.961 . S
C679 H695 0.961 . S
C680 C681 1.370 . S
C680 C682 1.363 . S
C680 H696 0.931 . S
C681 C680 1.370 . S
C681 C685 1.408 . S
C682 C680 1.363 . S
C682 C683 1.370 . S
C682 C686 1.524 . S
C683 C675 1.503 . S
C683 C682 1.370 . S
C683 C684 1.403 . S
C684 C683 1.403 . S
C684 C685 1.404 . S
C684 C687 1.539 . S
C685 C681 1.408 . S
C685 C684 1.404 . S
C685 H697 0.930 . S
C686 C682 1.524 . S
C686 H698 0.956 . S
C686 H699 0.961 . S
C686 H700 0.961 . S
C687 C684 1.539 . S
C687 H701 0.958 . S
C687 H702 0.961 . S
C687 H703 0.960 . S
H688 C672 0.931 . S
H689 C677 0.929 . S
H690 C678 0.960 . S
H691 C678 0.962 . S
H692 C678 0.960 . S
H693 C679 0.961 . S
H694 C679 0.961 . S
H695 C679 0.961 . S
H696 C680 0.931 . S
H697 C685 0.930 . S
H698 C686 0.956 . S
H699 C686 0.961 . S
H700 C686 0.961 . S
H701 C687 0.958 . S
H702 C687 0.961 . S
H703 C687 0.960 . S
C704 C705 1.391 . S
C704 C706 1.394 . S
C704 H720 0.931 . S
C705 C704 1.391 . S
C705 C709 1.376 . S
C706 C704 1.394 . S
C706 C707 1.369 . S
C706 C710 1.531 . S
C707 C706 1.369 . S
C707 C708 1.410 . S
C707 C715 1.503 . S
C708 C707 1.410 . S
C708 C709 1.392 . S
C708 C711 1.511 . S
C709 C705 1.376 . S
C709 C708 1.392 . S
C709 H721 0.929 . S
C710 C706 1.531 . S
C710 H722 0.960 . S
C710 H723 0.962 . S
C710 H724 0.960 . S
C711 C708 1.511 . S
C711 H725 0.961 . S
C711 H726 0.961 . S
C711 H727 0.961 . S
C712 C713 1.370 . S
C712 C714 1.363 . S
C712 H728 0.931 . S
C713 C712 1.370 . S
C713 C717 1.408 . S
C714 C712 1.363 . S
C714 C715 1.370 . S
C714 C718 1.524 . S
C715 C707 1.503 . S
C715 C714 1.370 . S
C715 C716 1.403 . S
C716 C715 1.403 . S
C716 C717 1.404 . S
C716 C719 1.539 . S
C717 C713 1.408 . S
C717 C716 1.404 . S
C717 H729 0.930 . S
C718 C714 1.524 . S
C718 H730 0.956 . S
C718 H731 0.961 . S
C718 H732 0.961 . S
C719 C716 1.539 . S
C719 H733 0.958 . S
C719 H734 0.961 . S
C719 H735 0.960 . S
H720 C704 0.931 . S
H721 C709 0.929 . S
H722 C710 0.960 . S
H723 C710 0.962 . S
H724 C710 0.960 . S
H725 C711 0.961 . S
H726 C711 0.961 . S
H727 C711 0.961 . S
H728 C712 0.931 . S
H729 C717 0.930 . S
H730 C718 0.956 . S
H731 C718 0.961 . S
H732 C718 0.961 . S
H733 C719 0.958 . S
H734 C719 0.961 . S
H735 C719 0.960 . S
C736 C737 1.391 . S
C736 C738 1.394 . S
C736 H752 0.931 . S
C737 C736 1.391 . S
C737 C741 1.376 . S
C738 C736 1.394 . S
C738 C739 1.369 . S
C738 C742 1.531 . S
C739 C738 1.369 . S
C739 C740 1.410 . S
C739 C747 1.503 . S
C740 C739 1.410 . S
C740 C741 1.392 . S
C740 C743 1.511 . S
C741 C737 1.376 . S
C741 C740 1.392 . S
C741 H753 0.929 . S
C742 C738 1.531 . S
C742 H754 0.960 . S
C742 H755 0.962 . S
C742 H756 0.960 . S
C743 C740 1.511 . S
C743 H757 0.961 . S
C743 H758 0.961 . S
C743 H759 0.961 . S
C744 C745 1.370 . S
C744 C746 1.363 . S
C744 H760 0.931 . S
C745 C744 1.370 . S
C745 C749 1.408 . S
C746 C744 1.363 . S
C746 C747 1.370 . S
C746 C750 1.524 . S
C747 C739 1.503 . S
C747 C746 1.370 . S
C747 C748 1.403 . S
C748 C747 1.403 . S
C748 C749 1.404 . S
C748 C751 1.539 . S
C749 C745 1.408 . S
C749 C748 1.404 . S
C749 H761 0.930 . S
C750 C746 1.524 . S
C750 H762 0.956 . S
C750 H763 0.961 . S
C750 H764 0.961 . S
C751 C748 1.539 . S
C751 H765 0.958 . S
C751 H766 0.961 . S
C751 H767 0.960 . S
H752 C736 0.931 . S
H753 C741 0.929 . S
H754 C742 0.960 . S
H755 C742 0.962 . S
H756 C742 0.960 . S
H757 C743 0.961 . S
H758 C743 0.961 . S
H759 C743 0.961 . S
H760 C744 0.931 . S
H761 C749 0.930 . S
H762 C750 0.956 . S
H763 C750 0.961 . S
H764 C750 0.961 . S
H765 C751 0.958 . S
H766 C751 0.961 . S
H767 C751 0.960 . S
C768 C769 1.391 . S
C768 C770 1.394 . S
C768 H784 0.931 . S
C769 C768 1.391 . S
C769 C773 1.376 . S
C770 C768 1.394 . S
C770 C771 1.369 . S
C770 C774 1.531 . S
C771 C770 1.369 . S
C771 C772 1.410 . S
C771 C779 1.503 . S
C772 C771 1.410 . S
C772 C773 1.392 . S
C772 C775 1.511 . S
C773 C769 1.376 . S
C773 C772 1.392 . S
C773 H785 0.929 . S
C774 C770 1.531 . S
C774 H786 0.960 . S
C774 H787 0.962 . S
C774 H788 0.960 . S
C775 C772 1.511 . S
C775 H789 0.961 . S
C775 H790 0.961 . S
C775 H791 0.961 . S
C776 C777 1.370 1_554 S
C776 C778 1.363 . S
C776 H792 0.936 . S
C777 C776 1.370 1_556 S
C777 C781 1.408 . S
C778 C776 1.363 . S
C778 C779 1.370 . S
C778 C782 1.524 . S
C779 C771 1.503 . S
C779 C778 1.370 . S
C779 C780 1.403 . S
C780 C779 1.403 . S
C780 C781 1.404 1_554 S
C780 C783 1.539 . S
C781 C777 1.408 . S
C781 C780 1.404 1_556 S
C781 H793 0.930 . S
C782 C778 1.524 . S
C782 H794 0.956 . S
C782 H795 0.961 . S
C782 H796 0.961 . S
C783 C780 1.539 . S
C783 H797 0.958 . S
C783 H798 0.961 1_554 S
C783 H799 0.960 . S
H784 C768 0.931 . S
H785 C773 0.929 . S
H786 C774 0.960 . S
H787 C774 0.962 . S
H788 C774 0.960 . S
H789 C775 0.961 . S
H790 C775 0.961 . S
H791 C775 0.961 . S
H792 C776 0.936 . S
H793 C781 0.930 . S
H794 C782 0.956 . S
H795 C782 0.961 . S
H796 C782 0.961 . S
H797 C783 0.958 . S
H798 C783 0.961 1_556 S
H799 C783 0.960 . S
C800 C801 1.391 . S
C800 C802 1.394 . S
C800 H816 0.931 . S
C801 C800 1.391 . S
C801 C805 1.376 . S
C802 C800 1.394 . S
C802 C803 1.369 . S
C802 C806 1.531 . S
C803 C802 1.369 . S
C803 C804 1.410 . S
C803 C811 1.503 . S
C804 C803 1.410 . S
C804 C805 1.392 . S
C804 C807 1.511 . S
C805 C801 1.376 . S
C805 C804 1.392 . S
C805 H817 0.929 . S
C806 C802 1.531 . S
C806 H818 0.960 . S
C806 H819 0.962 . S
C806 H820 0.960 . S
C807 C804 1.511 . S
C807 H821 0.961 . S
C807 H822 0.961 . S
C807 H823 0.961 . S
C808 C809 1.370 . S
C808 C810 1.363 . S
C808 H824 0.931 . S
C809 C808 1.370 . S
C809 C813 1.408 . S
C810 C808 1.363 . S
C810 C811 1.370 . S
C810 C814 1.524 . S
C811 C803 1.503 . S
C811 C810 1.370 . S
C811 C812 1.403 . S
C812 C811 1.403 . S
C812 C813 1.404 . S
C812 C815 1.539 . S
C813 C809 1.408 . S
C813 C812 1.404 . S
C813 H825 0.930 . S
C814 C810 1.524 . S
C814 H826 0.956 . S
C814 H827 0.961 . S
C814 H828 0.961 . S
C815 C812 1.539 . S
C815 H829 0.958 . S
C815 H830 0.961 . S
C815 H831 0.960 . S
H816 C800 0.931 . S
H817 C805 0.929 . S
H818 C806 0.960 . S
H819 C806 0.962 . S
H820 C806 0.960 . S
H821 C807 0.961 . S
H822 C807 0.961 . S
H823 C807 0.961 . S
H824 C808 0.931 . S
H825 C813 0.930 . S
H826 C814 0.956 . S
H827 C814 0.961 . S
H828 C814 0.961 . S
H829 C815 0.958 . S
H830 C815 0.961 . S
H831 C815 0.960 . S
C832 C833 1.391 . S
C832 C834 1.394 . S
C832 H848 0.931 . S
C833 C832 1.391 . S
C833 C837 1.376 . S
C834 C832 1.394 . S
C834 C835 1.369 . S
C834 C838 1.531 . S
C835 C834 1.369 . S
C835 C836 1.410 . S
C835 C843 1.503 . S
C836 C835 1.410 . S
C836 C837 1.392 . S
C836 C839 1.511 . S
C837 C833 1.376 . S
C837 C836 1.392 . S
C837 H849 0.929 . S
C838 C834 1.531 . S
C838 H850 0.960 . S
C838 H851 0.962 . S
C838 H852 0.960 . S
C839 C836 1.511 . S
C839 H853 0.961 . S
C839 H854 0.961 . S
C839 H855 0.961 . S
C840 C841 1.370 . S
C840 C842 1.363 . S
C840 H856 0.931 . S
C841 C840 1.370 . S
C841 C845 1.408 . S
C842 C840 1.363 . S
C842 C843 1.370 . S
C842 C846 1.524 . S
C843 C835 1.503 . S
C843 C842 1.370 . S
C843 C844 1.403 . S
C844 C843 1.403 . S
C844 C845 1.404 . S
C844 C847 1.539 . S
C845 C841 1.408 . S
C845 C844 1.404 . S
C845 H857 0.930 . S
C846 C842 1.524 . S
C846 H858 0.956 . S
C846 H859 0.961 . S
C846 H860 0.961 . S
C847 C844 1.539 . S
C847 H861 0.958 . S
C847 H862 0.961 . S
C847 H863 0.960 . S
H848 C832 0.931 . S
H849 C837 0.929 . S
H850 C838 0.960 . S
H851 C838 0.962 . S
H852 C838 0.960 . S
H853 C839 0.961 . S
H854 C839 0.961 . S
H855 C839 0.961 . S
H856 C840 0.931 . S
H857 C845 0.930 . S
H858 C846 0.956 . S
H859 C846 0.961 . S
H860 C846 0.961 . S
H861 C847 0.958 . S
H862 C847 0.961 . S
H863 C847 0.960 . S
C864 C865 1.391 . S
C864 C866 1.394 . S
C864 H880 0.931 . S
C865 C864 1.391 . S
C865 C869 1.376 . S
C866 C864 1.394 . S
C866 C867 1.369 . S
C866 C870 1.531 . S
C867 C866 1.369 . S
C867 C868 1.410 . S
C867 C875 1.503 . S
C868 C867 1.410 . S
C868 C869 1.392 . S
C868 C871 1.511 . S
C869 C865 1.376 . S
C869 C868 1.392 . S
C869 H881 0.929 . S
C870 C866 1.531 . S
C870 H882 0.960 . S
C870 H883 0.962 . S
C870 H884 0.960 . S
C871 C868 1.511 . S
C871 H885 0.961 . S
C871 H886 0.961 . S
C871 H887 0.961 . S
C872 C873 1.370 . S
C872 C874 1.363 . S
C872 H888 0.931 . S
C873 C872 1.370 . S
C873 C877 1.408 . S
C874 C872 1.363 . S
C874 C875 1.370 . S
C874 C878 1.524 . S
C875 C867 1.503 . S
C875 C874 1.370 . S
C875 C876 1.403 . S
C876 C875 1.403 . S
C876 C877 1.404 . S
C876 C879 1.539 . S
C877 C873 1.408 . S
C877 C876 1.404 . S
C877 H889 0.930 . S
C878 C874 1.524 . S
C878 H890 0.956 . S
C878 H891 0.961 . S
C878 H892 0.961 . S
C879 C876 1.539 . S
C879 H893 0.958 . S
C879 H894 0.961 . S
C879 H895 0.960 . S
H880 C864 0.931 . S
H881 C869 0.929 . S
H882 C870 0.960 . S
H883 C870 0.962 . S
H884 C870 0.960 . S
H885 C871 0.961 . S
H886 C871 0.961 . S
H887 C871 0.961 . S
H888 C872 0.931 . S
H889 C877 0.930 . S
H890 C878 0.956 . S
H891 C878 0.961 . S
H892 C878 0.961 . S
H893 C879 0.958 . S
H894 C879 0.961 . S
H895 C879 0.960 . S
C896 C897 1.391 . S
C896 C898 1.394 . S
C896 H912 0.931 . S
C897 C896 1.391 . S
C897 C901 1.376 . S
C898 C896 1.394 . S
C898 C899 1.369 . S
C898 C902 1.531 . S
C899 C898 1.369 . S
C899 C900 1.410 . S
C899 C907 1.503 . S
C900 C899 1.410 . S
C900 C901 1.392 . S
C900 C903 1.511 . S
C901 C897 1.376 . S
C901 C900 1.392 . S
C901 H913 0.929 . S
C902 C898 1.531 . S
C902 H914 0.960 . S
C902 H915 0.962 . S
C902 H916 0.960 . S
C903 C900 1.511 . S
C903 H917 0.961 . S
C903 H918 0.961 . S
C903 H919 0.961 . S
C904 C905 1.370 . S
C904 C906 1.363 . S
C904 H920 0.931 . S
C905 C904 1.370 . S
C905 C909 1.408 . S
C906 C904 1.363 . S
C906 C907 1.370 . S
C906 C910 1.524 . S
C907 C899 1.503 . S
C907 C906 1.370 . S
C907 C908 1.403 . S
C908 C907 1.403 . S
C908 C909 1.404 . S
C908 C911 1.539 . S
C909 C905 1.408 . S
C909 C908 1.404 . S
C909 H921 0.930 . S
C910 C906 1.524 . S
C910 H922 0.956 . S
C910 H923 0.961 . S
C910 H924 0.961 . S
C911 C908 1.539 . S
C911 H925 0.958 . S
C911 H926 0.961 . S
C911 H927 0.960 . S
H912 C896 0.931 . S
H913 C901 0.929 . S
H914 C902 0.960 . S
H915 C902 0.962 . S
H916 C902 0.960 . S
H917 C903 0.961 . S
H918 C903 0.961 . S
H919 C903 0.961 . S
H920 C904 0.931 . S
H921 C909 0.930 . S
H922 C910 0.956 . S
H923 C910 0.961 . S
H924 C910 0.961 . S
H925 C911 0.958 . S
H926 C911 0.961 . S
H927 C911 0.960 . S
C928 C929 1.391 . S
C928 C930 1.394 . S
C928 H944 0.931 . S
C929 C928 1.391 . S
C929 C933 1.376 . S
C930 C928 1.394 . S
C930 C931 1.369 . S
C930 C934 1.531 . S
C931 C930 1.369 . S
C931 C932 1.410 . S
C931 C939 1.503 . S
C932 C931 1.410 . S
C932 C933 1.392 . S
C932 C935 1.511 . S
C933 C929 1.376 . S
C933 C932 1.392 . S
C933 H945 0.929 . S
C934 C930 1.531 . S
C934 H946 0.960 . S
C934 H947 0.962 . S
C934 H948 0.960 . S
C935 C932 1.511 . S
C935 H949 0.961 . S
C935 H950 0.961 . S
C935 H951 0.961 . S
C936 C937 1.370 . S
C936 C938 1.363 . S
C936 H952 0.931 . S
C937 C936 1.370 . S
C937 C941 1.408 . S
C938 C936 1.363 . S
C938 C939 1.370 . S
C938 C942 1.524 . S
C939 C931 1.503 . S
C939 C938 1.370 . S
C939 C940 1.403 . S
C940 C939 1.403 . S
C940 C941 1.404 . S
C940 C943 1.539 . S
C941 C937 1.408 . S
C941 C940 1.404 . S
C941 H953 0.930 . S
C942 C938 1.524 . S
C942 H954 0.956 . S
C942 H955 0.961 . S
C942 H956 0.961 . S
C943 C940 1.539 . S
C943 H957 0.958 . S
C943 H958 0.961 . S
C943 H959 0.960 . S
H944 C928 0.931 . S
H945 C933 0.929 . S
H946 C934 0.960 . S
H947 C934 0.962 . S
H948 C934 0.960 . S
H949 C935 0.961 . S
H950 C935 0.961 . S
H951 C935 0.961 . S
H952 C936 0.931 . S
H953 C941 0.930 . S
H954 C942 0.956 . S
H955 C942 0.961 . S
H956 C942 0.961 . S
H957 C943 0.958 . S
H958 C943 0.961 . S
H959 C943 0.960 . S
C960 C961 1.391 . S
C960 C962 1.394 . S
C960 H976 0.931 . S
C961 C960 1.391 . S
C961 C965 1.376 . S
C962 C960 1.394 . S
C962 C963 1.369 . S
C962 C966 1.531 . S
C963 C962 1.369 . S
C963 C964 1.410 . S
C963 C971 1.503 . S
C964 C963 1.410 . S
C964 C965 1.392 . S
C964 C967 1.511 . S
C965 C961 1.376 . S
C965 C964 1.392 . S
C965 H977 0.929 . S
C966 C962 1.531 . S
C966 H978 0.960 . S
C966 H979 0.962 . S
C966 H980 0.960 . S
C967 C964 1.511 . S
C967 H981 0.961 . S
C967 H982 0.961 . S
C967 H983 0.961 . S
C968 C969 1.370 . S
C968 C970 1.363 . S
C968 H984 0.931 . S
C969 C968 1.370 . S
C969 C973 1.408 . S
C970 C968 1.363 . S
C970 C971 1.370 . S
C970 C974 1.524 . S
C971 C963 1.503 . S
C971 C970 1.370 . S
C971 C972 1.403 . S
C972 C971 1.403 . S
C972 C973 1.404 . S
C972 C975 1.539 . S
C973 C969 1.408 . S
C973 C972 1.404 . S
C973 H985 0.930 . S
C974 C970 1.524 . S
C974 H986 0.956 . S
C974 H987 0.961 . S
C974 H988 0.961 . S
C975 C972 1.539 . S
C975 H989 0.958 . S
C975 H990 0.961 . S
C975 H991 0.960 . S
H976 C960 0.931 . S
H977 C965 0.929 . S
H978 C966 0.960 . S
H979 C966 0.962 . S
H980 C966 0.960 . S
H981 C967 0.961 . S
H982 C967 0.961 . S
H983 C967 0.961 . S
H984 C968 0.931 . S
H985 C973 0.930 . S
H986 C974 0.956 . S
H987 C974 0.961 . S
H988 C974 0.961 . S
H989 C975 0.958 . S
H990 C975 0.961 . S
H991 C975 0.960 . S
C992 C993 1.391 . S
C992 C994 1.394 . S
C992 H1008 0.931 . S
C993 C992 1.391 . S
C993 C997 1.376 . S
C994 C992 1.394 . S
C994 C995 1.369 . S
C994 C998 1.531 . S
C995 C994 1.369 . S
C995 C996 1.410 . S
C995 C1003 1.503 . S
C996 C995 1.410 . S
C996 C997 1.392 . S
C996 C999 1.511 . S
C997 C993 1.376 . S
C997 C996 1.392 . S
C997 H1009 0.929 . S
C998 C994 1.531 . S
C998 H1010 0.960 . S
C998 H1011 0.962 . S
C998 H1012 0.960 . S
C999 C996 1.511 . S
C999 H1013 0.961 . S
C999 H1014 0.961 . S
C999 H1015 0.961 . S
C1000 C1001 1.370 . S
C1000 C1002 1.363 . S
C1000 H1016 0.931 . S
C1001 C1000 1.370 . S
C1001 C1005 1.408 . S
C1002 C1000 1.363 . S
C1002 C1003 1.370 . S
C1002 C1006 1.524 . S
C1003 C995 1.503 . S
C1003 C1002 1.370 . S
C1003 C1004 1.403 . S
C1004 C1003 1.403 . S
C1004 C1005 1.404 . S
C1004 C1007 1.539 . S
C1005 C1001 1.408 . S
C1005 C1004 1.404 . S
C1005 H1017 0.930 . S
C1006 C1002 1.524 . S
C1006 H1018 0.956 . S
C1006 H1019 0.961 . S
C1006 H1020 0.961 . S
C1007 C1004 1.539 . S
C1007 H1021 0.958 . S
C1007 H1022 0.961 . S
C1007 H1023 0.960 . S
H1008 C992 0.931 . S
H1009 C997 0.929 . S
H1010 C998 0.960 . S
H1011 C998 0.962 . S
H1012 C998 0.960 . S
H1013 C999 0.961 . S
H1014 C999 0.961 . S
H1015 C999 0.961 . S
H1016 C1000 0.931 . S
H1017 C1005 0.930 . S
H1018 C1006 0.956 . S
H1019 C1006 0.961 . S
H1020 C1006 0.961 . S
H1021 C1007 0.958 . S
H1022 C1007 0.961 . S
H1023 C1007 0.960 . S
C1024 C1025 1.391 . S
C1024 C1026 1.394 . S
C1024 H1040 0.931 . S
C1025 C1024 1.391 . S
C1025 C1029 1.376 . S
C1026 C1024 1.394 . S
C1026 C1027 1.369 . S
C1026 C1030 1.531 . S
C1027 C1026 1.369 . S
C1027 C1028 1.410 . S
C1027 C1035 1.503 . S
C1028 C1027 1.410 . S
C1028 C1029 1.392 . S
C1028 C1031 1.511 . S
C1029 C1025 1.376 . S
C1029 C1028 1.392 . S
C1029 H1041 0.929 . S
C1030 C1026 1.531 . S
C1030 H1042 0.960 . S
C1030 H1043 0.962 . S
C1030 H1044 0.960 . S
C1031 C1028 1.511 . S
C1031 H1045 0.961 . S
C1031 H1046 0.961 . S
C1031 H1047 0.961 . S
C1032 C1033 1.370 . S
C1032 C1034 1.363 . S
C1032 H1048 0.931 . S
C1033 C1032 1.370 . S
C1033 C1037 1.408 . S
C1034 C1032 1.363 . S
C1034 C1035 1.370 . S
C1034 C1038 1.524 . S
C1035 C1027 1.503 . S
C1035 C1034 1.370 . S
C1035 C1036 1.403 . S
C1036 C1035 1.403 . S
C1036 C1037 1.404 . S
C1036 C1039 1.539 . S
C1037 C1033 1.408 . S
C1037 C1036 1.404 . S
C1037 H1049 0.930 . S
C1038 C1034 1.524 . S
C1038 H1050 0.956 . S
C1038 H1051 0.961 . S
C1038 H1052 0.961 . S
C1039 C1036 1.539 . S
C1039 H1053 0.958 . S
C1039 H1054 0.961 . S
C1039 H1055 0.960 . S
H1040 C1024 0.931 . S
H1041 C1029 0.929 . S
H1042 C1030 0.960 . S
H1043 C1030 0.962 . S
H1044 C1030 0.960 . S
H1045 C1031 0.961 . S
H1046 C1031 0.961 . S
H1047 C1031 0.961 . S
H1048 C1032 0.931 . S
H1049 C1037 0.930 . S
H1050 C1038 0.956 . S
H1051 C1038 0.961 . S
H1052 C1038 0.961 . S
H1053 C1039 0.958 . S
H1054 C1039 0.961 . S
H1055 C1039 0.960 . S
C1056 C1057 1.391 . S
C1056 C1058 1.394 . S
C1056 H1072 0.931 . S
C1057 C1056 1.391 . S
C1057 C1061 1.376 . S
C1058 C1056 1.394 . S
C1058 C1059 1.369 . S
C1058 C1062 1.531 . S
C1059 C1058 1.369 . S
C1059 C1060 1.410 . S
C1059 C1067 1.503 . S
C1060 C1059 1.410 . S
C1060 C1061 1.392 . S
C1060 C1063 1.511 . S
C1061 C1057 1.376 . S
C1061 C1060 1.392 . S
C1061 H1073 0.929 . S
C1062 C1058 1.531 . S
C1062 H1074 0.960 . S
C1062 H1075 0.962 . S
C1062 H1076 0.960 . S
C1063 C1060 1.511 . S
C1063 H1077 0.961 . S
C1063 H1078 0.961 . S
C1063 H1079 0.961 . S
C1064 C1065 1.370 . S
C1064 C1066 1.363 . S
C1064 H1080 0.931 . S
C1065 C1064 1.370 . S
C1065 C1069 1.408 . S
C1066 C1064 1.363 . S
C1066 C1067 1.370 . S
C1066 C1070 1.524 . S
C1067 C1059 1.503 . S
C1067 C1066 1.370 . S
C1067 C1068 1.403 . S
C1068 C1067 1.403 . S
C1068 C1069 1.404 . S
C1068 C1071 1.539 . S
C1069 C1065 1.408 . S
C1069 C1068 1.404 . S
C1069 H1081 0.930 . S
C1070 C1066 1.524 . S
C1070 H1082 0.956 . S
C1070 H1083 0.961 . S
C1070 H1084 0.961 . S
C1071 C1068 1.539 . S
C1071 H1085 0.958 . S
C1071 H1086 0.961 . S
C1071 H1087 0.960 . S
H1072 C1056 0.931 . S
H1073 C1061 0.929 . S
H1074 C1062 0.960 . S
H1075 C1062 0.962 . S
H1076 C1062 0.960 . S
H1077 C1063 0.961 . S
H1078 C1063 0.961 . S
H1079 C1063 0.961 . S
H1080 C1064 0.931 . S
H1081 C1069 0.930 . S
H1082 C1070 0.956 . S
H1083 C1070 0.961 . S
H1084 C1070 0.961 . S
H1085 C1071 0.958 . S
H1086 C1071 0.961 . S
H1087 C1071 0.960 . S
C1088 C1089 1.391 . S
C1088 C1090 1.394 . S
C1088 H1104 0.931 . S
C1089 C1088 1.391 . S
C1089 C1093 1.376 . S
C1090 C1088 1.394 . S
C1090 C1091 1.369 . S
C1090 C1094 1.531 . S
C1091 C1090 1.369 . S
C1091 C1092 1.410 . S
C1091 C1099 1.503 . S
C1092 C1091 1.410 . S
C1092 C1093 1.392 . S
C1092 C1095 1.511 . S
C1093 C1089 1.376 . S
C1093 C1092 1.392 . S
C1093 H1105 0.929 . S
C1094 C1090 1.531 . S
C1094 H1106 0.960 . S
C1094 H1107 0.962 . S
C1094 H1108 0.960 . S
C1095 C1092 1.511 . S
C1095 H1109 0.961 . S
C1095 H1110 0.961 . S
C1095 H1111 0.961 . S
C1096 C1097 1.370 . S
C1096 C1098 1.363 . S
C1096 H1112 0.931 . S
C1097 C1096 1.370 . S
C1097 C1101 1.408 1_556 S
C1098 C1096 1.363 . S
C1098 C1099 1.370 1_556 S
C1098 C1102 1.524 . S
C1099 C1091 1.503 . S
C1099 C1098 1.370 1_554 S
C1099 C1100 1.403 . S
C1100 C1099 1.403 . S
C1100 C1101 1.404 . S
C1100 C1103 1.539 . S
C1101 C1097 1.408 1_554 S
C1101 C1100 1.404 . S
C1101 H1113 0.930 . S
C1102 C1098 1.524 . S
C1102 H1114 0.956 1_556 S
C1102 H1115 0.961 1_556 S
C1102 H1116 0.961 . S
C1103 C1100 1.539 . S
C1103 H1117 0.958 . S
C1103 H1118 0.961 . S
C1103 H1119 0.960 . S
H1104 C1088 0.931 . S
H1105 C1093 0.929 . S
H1106 C1094 0.960 . S
H1107 C1094 0.962 . S
H1108 C1094 0.960 . S
H1109 C1095 0.961 . S
H1110 C1095 0.961 . S
H1111 C1095 0.961 . S
H1112 C1096 0.931 . S
H1113 C1101 0.930 . S
H1114 C1102 0.956 1_554 S
H1115 C1102 0.961 1_554 S
H1116 C1102 0.961 . S
H1117 C1103 0.958 . S
H1118 C1103 0.961 . S
H1119 C1103 0.960 . S
C1120 C1121 1.391 . S
C1120 C1122 1.394 . S
C1120 H1136 0.931 . S
C1121 C1120 1.391 . S
C1121 C1125 1.376 . S
C1122 C1120 1.394 . S
C1122 C1123 1.369 . S
C1122 C1126 1.531 . S
C1123 C1122 1.369 . S
C1123 C1124 1.410 . S
C1123 C1131 1.503 . S
C1124 C1123 1.410 . S
C1124 C1125 1.392 . S
C1124 C1127 1.511 . S
C1125 C1121 1.376 . S
C1125 C1124 1.392 . S
C1125 H1137 0.929 . S
C1126 C1122 1.531 . S
C1126 H1138 0.960 . S
C1126 H1139 0.962 . S
C1126 H1140 0.960 . S
C1127 C1124 1.511 . S
C1127 H1141 0.961 . S
C1127 H1142 0.961 . S
C1127 H1143 0.961 . S
C1128 C1129 1.370 . S
C1128 C1130 1.363 . S
C1128 H1144 0.931 . S
C1129 C1128 1.370 . S
C1129 C1133 1.408 . S
C1130 C1128 1.363 . S
C1130 C1131 1.370 . S
C1130 C1134 1.524 . S
C1131 C1123 1.503 . S
C1131 C1130 1.370 . S
C1131 C1132 1.403 . S
C1132 C1131 1.403 . S
C1132 C1133 1.404 . S
C1132 C1135 1.539 . S
C1133 C1129 1.408 . S
C1133 C1132 1.404 . S
C1133 H1145 0.930 . S
C1134 C1130 1.524 . S
C1134 H1146 0.956 . S
C1134 H1147 0.961 . S
C1134 H1148 0.961 . S
C1135 C1132 1.539 . S
C1135 H1149 0.958 . S
C1135 H1150 0.961 . S
C1135 H1151 0.960 . S
H1136 C1120 0.931 . S
H1137 C1125 0.929 . S
H1138 C1126 0.960 . S
H1139 C1126 0.962 . S
H1140 C1126 0.960 . S
H1141 C1127 0.961 . S
H1142 C1127 0.961 . S
H1143 C1127 0.961 . S
H1144 C1128 0.931 . S
H1145 C1133 0.930 . S
H1146 C1134 0.956 . S
H1147 C1134 0.961 . S
H1148 C1134 0.961 . S
H1149 C1135 0.958 . S
H1150 C1135 0.961 . S
H1151 C1135 0.960 . S
C1152 C1153 1.391 . S
C1152 C1154 1.394 . S
C1152 H1168 0.931 . S
C1153 C1152 1.391 . S
C1153 C1157 1.376 . S
C1154 C1152 1.394 . S
C1154 C1155 1.369 . S
C1154 C1158 1.531 . S
C1155 C1154 1.369 . S
C1155 C1156 1.410 . S
C1155 C1163 1.503 . S
C1156 C1155 1.410 . S
C1156 C1157 1.392 . S
C1156 C1159 1.511 . S
C1157 C1153 1.376 . S
C1157 C1156 1.392 . S
C1157 H1169 0.929 . S
C1158 C1154 1.531 . S
C1158 H1170 0.960 . S
C1158 H1171 0.962 . S
C1158 H1172 0.960 . S
C1159 C1156 1.511 . S
C1159 H1173 0.961 . S
C1159 H1174 0.961 . S
C1159 H1175 0.961 . S
C1160 C1161 1.370 . S
C1160 C1162 1.363 . S
C1160 H1176 0.931 1_455 S
C1161 C1160 1.370 . S
C1161 C1165 1.408 . S
C1162 C1160 1.363 . S
C1162 C1163 1.370 . S
C1162 C1166 1.524 1_455 S
C1163 C1155 1.503 . S
C1163 C1162 1.370 . S
C1163 C1164 1.403 . S
C1164 C1163 1.403 . S
C1164 C1165 1.404 . S
C1164 C1167 1.539 . S
C1165 C1161 1.408 . S
C1165 C1164 1.404 . S
C1165 H1177 0.930 . S
C1166 C1162 1.524 1_655 S
C1166 H1178 0.956 . S
C1166 H1179 0.961 . S
C1166 H1180 0.961 . S
C1167 C1164 1.539 . S
C1167 H1181 0.958 . S
C1167 H1182 0.961 . S
C1167 H1183 0.960 . S
H1168 C1152 0.931 . S
H1169 C1157 0.929 . S
H1170 C1158 0.960 . S
H1171 C1158 0.962 . S
H1172 C1158 0.960 . S
H1173 C1159 0.961 . S
H1174 C1159 0.961 . S
H1175 C1159 0.961 . S
H1176 C1160 0.931 1_655 S
H1177 C1165 0.930 . S
H1178 C1166 0.956 . S
H1179 C1166 0.961 . S
H1180 C1166 0.961 . S
H1181 C1167 0.958 . S
H1182 C1167 0.961 . S
H1183 C1167 0.960 . S
C1184 C1185 1.391 . S
C1184 C1186 1.394 . S
C1184 H1200 0.931 . S
C1185 C1184 1.391 . S
C1185 C1189 1.376 . S
C1186 C1184 1.394 . S
C1186 C1187 1.369 . S
C1186 C1190 1.531 1_655 S
C1187 C1186 1.369 . S
C1187 C1188 1.410 . S
C1187 C1195 1.503 1_655 S
C1188 C1187 1.410 . S
C1188 C1189 1.392 . S
C1188 C1191 1.511 . S
C1189 C1185 1.376 . S
C1189 C1188 1.392 . S
C1189 H1201 0.929 . S
C1190 C1186 1.531 1_455 S
C1190 H1202 0.960 . S
C1190 H1203 0.962 . S
C1190 H1204 0.960 1_455 S
C1191 C1188 1.511 . S
C1191 H1205 0.961 . S
C1191 H1206 0.961 1_655 S
C1191 H1207 0.961 . S
C1192 C1193 1.370 . S
C1192 C1194 1.363 . S
C1192 H1208 0.931 . S
C1193 C1192 1.370 . S
C1193 C1197 1.408 . S
C1194 C1192 1.363 . S
C1194 C1195 1.370 . S
C1194 C1198 1.524 . S
C1195 C1187 1.503 1_455 S
C1195 C1194 1.370 . S
C1195 C1196 1.403 . S
C1196 C1195 1.403 . S
C1196 C1197 1.404 . S
C1196 C1199 1.539 . S
C1197 C1193 1.408 . S
C1197 C1196 1.404 . S
C1197 H1209 0.930 . S
C1198 C1194 1.524 . S
C1198 H1210 0.956 . S
C1198 H1211 0.961 . S
C1198 H1212 0.961 . S
C1199 C1196 1.539 . S
C1199 H1213 0.958 . S
C1199 H1214 0.961 . S
C1199 H1215 0.960 . S
H1200 C1184 0.931 . S
H1201 C1189 0.929 . S
H1202 C1190 0.960 . S
H1203 C1190 0.962 . S
H1204 C1190 0.960 1_655 S
H1205 C1191 0.961 . S
H1206 C1191 0.961 1_455 S
H1207 C1191 0.961 . S
H1208 C1192 0.931 . S
H1209 C1197 0.930 . S
H1210 C1198 0.956 . S
H1211 C1198 0.961 . S
H1212 C1198 0.961 . S
H1213 C1199 0.958 . S
H1214 C1199 0.961 . S
H1215 C1199 0.960 . S
C1216 C1217 1.391 . S
C1216 C1218 1.394 . S
C1216 H1232 0.931 . S
C1217 C1216 1.391 . S
C1217 C1221 1.376 . S
C1218 C1216 1.394 . S
C1218 C1219 1.369 . S
C1218 C1222 1.531 . S
C1219 C1218 1.369 . S
C1219 C1220 1.410 . S
C1219 C1227 1.503 . S
C1220 C1219 1.410 . S
C1220 C1221 1.392 . S
C1220 C1223 1.511 . S
C1221 C1217 1.376 . S
C1221 C1220 1.392 . S
C1221 H1233 0.929 . S
C1222 C1218 1.531 . S
C1222 H1234 0.960 . S
C1222 H1235 0.962 . S
C1222 H1236 0.960 . S
C1223 C1220 1.511 . S
C1223 H1237 0.961 . S
C1223 H1238 0.961 . S
C1223 H1239 0.961 . S
C1224 C1225 1.370 . S
C1224 C1226 1.363 . S
C1224 H1240 0.931 . S
C1225 C1224 1.370 . S
C1225 C1229 1.408 . S
C1226 C1224 1.363 . S
C1226 C1227 1.370 . S
C1226 C1230 1.524 . S
C1227 C1219 1.503 . S
C1227 C1226 1.370 . S
C1227 C1228 1.403 . S
C1228 C1227 1.403 . S
C1228 C1229 1.404 . S
C1228 C1231 1.539 . S
C1229 C1225 1.408 . S
C1229 C1228 1.404 . S
C1229 H1241 0.930 . S
C1230 C1226 1.524 . S
C1230 H1242 0.956 . S
C1230 H1243 0.961 . S
C1230 H1244 0.961 . S
C1231 C1228 1.539 . S
C1231 H1245 0.958 . S
C1231 H1246 0.961 . S
C1231 H1247 0.960 . S
H1232 C1216 0.931 . S
H1233 C1221 0.929 . S
H1234 C1222 0.960 . S
H1235 C1222 0.962 . S
H1236 C1222 0.960 . S
H1237 C1223 0.961 . S
H1238 C1223 0.961 . S
H1239 C1223 0.961 . S
H1240 C1224 0.931 . S
H1241 C1229 0.930 . S
H1242 C1230 0.956 . S
H1243 C1230 0.961 . S
H1244 C1230 0.961 . S
H1245 C1231 0.958 . S
H1246 C1231 0.961 . S
H1247 C1231 0.960 . S
C1248 C1249 1.391 . S
C1248 C1250 1.394 . S
C1248 H1264 0.931 . S
C1249 C1248 1.391 . S
C1249 C1253 1.376 . S
C1250 C1248 1.394 . S
C1250 C1251 1.369 . S
C1250 C1254 1.531 . S
C1251 C1250 1.369 . S
C1251 C1252 1.410 . S
C1251 C1259 1.503 . S
C1252 C1251 1.410 . S
C1252 C1253 1.392 . S
C1252 C1255 1.511 . S
C1253 C1249 1.376 . S
C1253 C1252 1.392 . S
C1253 H1265 0.929 . S
C1254 C1250 1.531 . S
C1254 H1266 0.960 . S
C1254 H1267 0.962 . S
C1254 H1268 0.960 . S
C1255 C1252 1.511 . S
C1255 H1269 0.961 . S
C1255 H1270 0.961 . S
C1255 H1271 0.961 . S
C1256 C1257 1.370 . S
C1256 C1258 1.363 . S
C1256 H1272 0.931 . S
C1257 C1256 1.370 . S
C1257 C1261 1.408 . S
C1258 C1256 1.363 . S
C1258 C1259 1.370 . S
C1258 C1262 1.524 . S
C1259 C1251 1.503 . S
C1259 C1258 1.370 . S
C1259 C1260 1.403 . S
C1260 C1259 1.403 . S
C1260 C1261 1.404 . S
C1260 C1263 1.539 . S
C1261 C1257 1.408 . S
C1261 C1260 1.404 . S
C1261 H1273 0.930 . S
C1262 C1258 1.524 . S
C1262 H1274 0.956 . S
C1262 H1275 0.961 . S
C1262 H1276 0.961 . S
C1263 C1260 1.539 . S
C1263 H1277 0.958 . S
C1263 H1278 0.961 . S
C1263 H1279 0.960 . S
H1264 C1248 0.931 . S
H1265 C1253 0.929 . S
H1266 C1254 0.960 . S
H1267 C1254 0.962 . S
H1268 C1254 0.960 . S
H1269 C1255 0.961 . S
H1270 C1255 0.961 . S
H1271 C1255 0.961 . S
H1272 C1256 0.931 . S
H1273 C1261 0.930 . S
H1274 C1262 0.956 . S
H1275 C1262 0.961 . S
H1276 C1262 0.961 . S
H1277 C1263 0.958 . S
H1278 C1263 0.961 . S
H1279 C1263 0.960 . S
C1280 C1281 1.391 . S
C1280 C1282 1.394 . S
C1280 H1296 0.931 . S
C1281 C1280 1.391 . S
C1281 C1285 1.376 1_455 S
C1282 C1280 1.394 . S
C1282 C1283 1.369 . S
C1282 C1286 1.531 . S
C1283 C1282 1.369 . S
C1283 C1284 1.410 1_455 S
C1283 C1291 1.503 . S
C1284 C1283 1.410 1_655 S
C1284 C1285 1.392 . S
C1284 C1287 1.511 . S
C1285 C1281 1.376 1_655 S
C1285 C1284 1.392 . S
C1285 H1297 0.929 . S
C1286 C1282 1.531 . S
C1286 H1298 0.960 . S
C1286 H1299 0.962 . S
C1286 H1300 0.960 . S
C1287 C1284 1.511 . S
C1287 H1301 0.961 . S
C1287 H1302 0.961 . S
C1287 H1303 0.961 . S
C1288 C1289 1.370 . S
C1288 C1290 1.363 . S
C1288 H1304 0.931 . S
C1289 C1288 1.370 . S
C1289 C1293 1.408 . S
C1290 C1288 1.363 . S
C1290 C1291 1.370 . S
C1290 C1294 1.524 . S
C1291 C1283 1.503 . S
C1291 C1290 1.370 . S
C1291 C1292 1.403 . S
C1292 C1291 1.403 . S
C1292 C1293 1.404 . S
C1292 C1295 1.539 1_455 S
C1293 C1289 1.408 . S
C1293 C1292 1.404 . S
C1293 H1305 0.930 . S
C1294 C1290 1.524 . S
C1294 H1306 0.956 . S
C1294 H1307 0.961 . S
C1294 H1308 0.961 . S
C1295 C1292 1.539 1_655 S
C1295 H1309 0.958 1_655 S
C1295 H1310 0.961 . S
C1295 H1311 0.960 . S
H1296 C1280 0.931 . S
H1297 C1285 0.929 . S
H1298 C1286 0.960 . S
H1299 C1286 0.962 . S
H1300 C1286 0.960 . S
H1301 C1287 0.961 . S
H1302 C1287 0.961 . S
H1303 C1287 0.961 . S
H1304 C1288 0.931 . S
H1305 C1293 0.930 . S
H1306 C1294 0.956 . S
H1307 C1294 0.961 . S
H1308 C1294 0.961 . S
H1309 C1295 0.958 1_455 S
H1310 C1295 0.961 . S
H1311 C1295 0.960 . S
C1312 C1313 1.391 . S
C1312 C1314 1.394 . S
C1312 H1328 0.931 . S
C1313 C1312 1.391 . S
C1313 C1317 1.376 . S
C1314 C1312 1.394 . S
C1314 C1315 1.369 . S
C1314 C1318 1.531 . S
C1315 C1314 1.369 . S
C1315 C1316 1.410 . S
C1315 C1323 1.503 . S
C1316 C1315 1.410 . S
C1316 C1317 1.392 . S
C1316 C1319 1.511 . S
C1317 C1313 1.376 . S
C1317 C1316 1.392 . S
C1317 H1329 0.929 . S
C1318 C1314 1.531 . S
C1318 H1330 0.960 . S
C1318 H1331 0.962 . S
C1318 H1332 0.960 . S
C1319 C1316 1.511 . S
C1319 H1333 0.961 . S
C1319 H1334 0.961 . S
C1319 H1335 0.961 . S
C1320 C1321 1.370 . S
C1320 C1322 1.363 . S
C1320 H1336 0.931 . S
C1321 C1320 1.370 . S
C1321 C1325 1.408 . S
C1322 C1320 1.363 . S
C1322 C1323 1.370 . S
C1322 C1326 1.524 . S
C1323 C1315 1.503 . S
C1323 C1322 1.370 . S
C1323 C1324 1.403 . S
C1324 C1323 1.403 . S
C1324 C1325 1.404 . S
C1324 C1327 1.539 . S
C1325 C1321 1.408 . S
C1325 C1324 1.404 . S
C1325 H1337 0.930 . S
C1326 C1322 1.524 . S
C1326 H1338 0.956 . S
C1326 H1339 0.961 . S
C1326 H1340 0.961 . S
C1327 C1324 1.539 . S
C1327 H1341 0.958 . S
C1327 H1342 0.961 . S
C1327 H1343 0.960 . S
H1328 C1312 0.931 . S
H1329 C1317 0.929 . S
H1330 C1318 0.960 . S
H1331 C1318 0.962 . S
H1332 C1318 0.960 . S
H1333 C1319 0.961 . S
H1334 C1319 0.961 . S
H1335 C1319 0.961 . S
H1336 C1320 0.931 . S
H1337 C1325 0.930 . S
H1338 C1326 0.956 . S
H1339 C1326 0.961 . S
H1340 C1326 0.961 . S
H1341 C1327 0.958 . S
H1342 C1327 0.961 . S
H1343 C1327 0.960 . S
C1344 C1345 1.391 . S
C1344 C1346 1.394 . S
C1344 H1360 0.931 . S
C1345 C1344 1.391 . S
C1345 C1349 1.376 . S
C1346 C1344 1.394 . S
C1346 C1347 1.369 . S
C1346 C1350 1.531 . S
C1347 C1346 1.369 . S
C1347 C1348 1.410 . S
C1347 C1355 1.503 . S
C1348 C1347 1.410 . S
C1348 C1349 1.392 . S
C1348 C1351 1.511 . S
C1349 C1345 1.376 . S
C1349 C1348 1.392 . S
C1349 H1361 0.929 . S
C1350 C1346 1.531 . S
C1350 H1362 0.960 . S
C1350 H1363 0.962 . S
C1350 H1364 0.960 . S
C1351 C1348 1.511 . S
C1351 H1365 0.961 . S
C1351 H1366 0.961 . S
C1351 H1367 0.961 . S
C1352 C1353 1.370 . S
C1352 C1354 1.363 . S
C1352 H1368 0.931 . S
C1353 C1352 1.370 . S
C1353 C1357 1.408 . S
C1354 C1352 1.363 . S
C1354 C1355 1.370 . S
C1354 C1358 1.524 . S
C1355 C1347 1.503 . S
C1355 C1354 1.370 . S
C1355 C1356 1.403 . S
C1356 C1355 1.403 . S
C1356 C1357 1.404 . S
C1356 C1359 1.539 . S
C1357 C1353 1.408 . S
C1357 C1356 1.404 . S
C1357 H1369 0.930 . S
C1358 C1354 1.524 . S
C1358 H1370 0.956 . S
C1358 H1371 0.961 . S
C1358 H1372 0.961 . S
C1359 C1356 1.539 . S
C1359 H1373 0.958 . S
C1359 H1374 0.961 . S
C1359 H1375 0.960 . S
H1360 C1344 0.931 . S
H1361 C1349 0.929 . S
H1362 C1350 0.960 . S
H1363 C1350 0.962 . S
H1364 C1350 0.960 . S
H1365 C1351 0.961 . S
H1366 C1351 0.961 . S
H1367 C1351 0.961 . S
H1368 C1352 0.931 . S
H1369 C1357 0.930 . S
H1370 C1358 0.956 . S
H1371 C1358 0.961 . S
H1372 C1358 0.961 . S
H1373 C1359 0.958 . S
H1374 C1359 0.961 . S
H1375 C1359 0.960 . S
C1376 C1377 1.391 . S
C1376 C1378 1.394 . S
C1376 H1392 0.931 . S
C1377 C1376 1.391 . S
C1377 C1381 1.376 . S
C1378 C1376 1.394 . S
C1378 C1379 1.369 . S
C1378 C1382 1.531 . S
C1379 C1378 1.369 . S
C1379 C1380 1.410 . S
C1379 C1387 1.503 . S
C1380 C1379 1.410 . S
C1380 C1381 1.392 . S
C1380 C1383 1.511 . S
C1381 C1377 1.376 . S
C1381 C1380 1.392 . S
C1381 H1393 0.929 . S
C1382 C1378 1.531 . S
C1382 H1394 0.960 . S
C1382 H1395 0.962 . S
C1382 H1396 0.960 . S
C1383 C1380 1.511 . S
C1383 H1397 0.961 . S
C1383 H1398 0.961 . S
C1383 H1399 0.961 . S
C1384 C1385 1.370 . S
C1384 C1386 1.363 . S
C1384 H1400 0.931 . S
C1385 C1384 1.370 . S
C1385 C1389 1.408 . S
C1386 C1384 1.363 . S
C1386 C1387 1.370 1_655 S
C1386 C1390 1.524 . S
C1387 C1379 1.503 . S
C1387 C1386 1.370 1_455 S
C1387 C1388 1.403 . S
C1388 C1387 1.403 . S
C1388 C1389 1.404 1_455 S
C1388 C1391 1.539 . S
C1389 C1385 1.408 . S
C1389 C1388 1.404 1_655 S
C1389 H1401 0.930 . S
C1390 C1386 1.524 . S
C1390 H1402 0.956 . S
C1390 H1403 0.961 . S
C1390 H1404 0.961 . S
C1391 C1388 1.539 . S
C1391 H1405 0.958 . S
C1391 H1406 0.961 . S
C1391 H1407 0.960 . S
H1392 C1376 0.931 . S
H1393 C1381 0.929 . S
H1394 C1382 0.960 . S
H1395 C1382 0.962 . S
H1396 C1382 0.960 . S
H1397 C1383 0.961 . S
H1398 C1383 0.961 . S
H1399 C1383 0.961 . S
H1400 C1384 0.931 . S
H1401 C1389 0.930 . S
H1402 C1390 0.956 . S
H1403 C1390 0.961 . S
H1404 C1390 0.961 . S
H1405 C1391 0.958 . S
H1406 C1391 0.961 . S
H1407 C1391 0.960 . S
C1408 C1409 1.391 . S
C1408 C1410 1.394 . S
C1408 H1424 0.931 1_455 S
C1409 C1408 1.391 . S
C1409 C1413 1.376 . S
C1410 C1408 1.394 . S
C1410 C1411 1.369 . S
C1410 C1414 1.531 1_454 S
C1411 C1410 1.369 . S
C1411 C1412 1.410 . S
C1411 C1419 1.503 1_544 S
C1412 C1411 1.410 . S
C1412 C1413 1.392 . S
C1412 C1415 1.511 1_545 S
C1413 C1409 1.376 . S
C1413 C1412 1.392 . S
C1413 H1425 0.929 . S
C1414 C1410 1.531 1_656 S
C1414 H1426 0.960 . S
C1414 H1427 0.962 . S
C1414 H1428 0.960 . S
C1415 C1412 1.511 1_565 S
C1415 H1429 0.961 . S
C1415 H1430 0.961 . S
C1415 H1431 0.961 . S
C1416 C1417 1.370 1_655 S
C1416 C1418 1.363 . S
C1416 H1432 0.931 . S
C1417 C1416 1.370 1_455 S
C1417 C1421 1.408 . S
C1418 C1416 1.363 . S
C1418 C1419 1.370 1_655 S
C1418 C1422 1.524 1_556 S
C1419 C1411 1.503 1_566 S
C1419 C1418 1.370 1_455 S
C1419 C1420 1.402 . S
C1420 C1419 1.402 . S
C1420 C1421 1.403 . S
C1420 C1423 1.540 1_565 S
C1421 C1417 1.408 . S
C1421 C1420 1.403 . S
C1421 H1433 0.930 . S
C1422 C1418 1.524 1_554 S
C1422 H1434 0.956 . S
C1422 H1435 0.961 . S
C1422 H1436 0.961 . S
C1423 C1420 1.540 1_545 S
C1423 H1437 0.958 . S
C1423 H1438 0.961 . S
C1423 H1439 0.960 . S
H1424 C1408 0.931 1_655 S
H1425 C1413 0.929 . S
H1426 C1414 0.960 . S
H1427 C1414 0.962 . S
H1428 C1414 0.960 . S
H1429 C1415 0.961 . S
H1430 C1415 0.961 . S
H1431 C1415 0.961 . S
H1432 C1416 0.931 . S
H1433 C1421 0.930 . S
H1434 C1422 0.956 . S
H1435 C1422 0.961 . S
H1436 C1422 0.961 . S
H1437 C1423 0.958 . S
H1438 C1423 0.961 . S
H1439 C1423 0.960 . S
C1440 C1441 1.391 . S
C1440 C1442 1.394 . S
C1440 H1456 0.931 . S
C1441 C1440 1.391 . S
C1441 C1445 1.376 . S
C1442 C1440 1.394 . S
C1442 C1443 1.369 . S
C1442 C1446 1.531 . S
C1443 C1442 1.369 . S
C1443 C1444 1.410 . S
C1443 C1451 1.503 . S
C1444 C1443 1.410 . S
C1444 C1445 1.392 . S
C1444 C1447 1.511 . S
C1445 C1441 1.376 . S
C1445 C1444 1.392 . S
C1445 H1457 0.929 . S
C1446 C1442 1.531 . S
C1446 H1458 0.960 . S
C1446 H1459 0.962 . S
C1446 H1460 0.960 . S
C1447 C1444 1.511 . S
C1447 H1461 0.961 . S
C1447 H1462 0.961 . S
C1447 H1463 0.961 . S
C1448 C1449 1.370 . S
C1448 C1450 1.363 . S
C1448 H1464 0.931 . S
C1449 C1448 1.370 . S
C1449 C1453 1.408 . S
C1450 C1448 1.363 . S
C1450 C1451 1.370 . S
C1450 C1454 1.524 . S
C1451 C1443 1.503 . S
C1451 C1450 1.370 . S
C1451 C1452 1.403 . S
C1452 C1451 1.403 . S
C1452 C1453 1.404 . S
C1452 C1455 1.539 . S
C1453 C1449 1.408 . S
C1453 C1452 1.404 . S
C1453 H1465 0.930 . S
C1454 C1450 1.524 . S
C1454 H1466 0.956 . S
C1454 H1467 0.961 . S
C1454 H1468 0.961 . S
C1455 C1452 1.539 . S
C1455 H1469 0.958 . S
C1455 H1470 0.961 . S
C1455 H1471 0.960 . S
H1456 C1440 0.931 . S
H1457 C1445 0.929 . S
H1458 C1446 0.960 . S
H1459 C1446 0.962 . S
H1460 C1446 0.960 . S
H1461 C1447 0.961 . S
H1462 C1447 0.961 . S
H1463 C1447 0.961 . S
H1464 C1448 0.931 . S
H1465 C1453 0.930 . S
H1466 C1454 0.956 . S
H1467 C1454 0.961 . S
H1468 C1454 0.961 . S
H1469 C1455 0.958 . S
H1470 C1455 0.961 . S
H1471 C1455 0.960 . S
C1472 C1473 1.391 . S
C1472 C1474 1.394 . S
C1472 H1488 0.931 . S
C1473 C1472 1.391 . S
C1473 C1477 1.376 . S
C1474 C1472 1.394 . S
C1474 C1475 1.369 . S
C1474 C1478 1.531 . S
C1475 C1474 1.369 . S
C1475 C1476 1.410 . S
C1475 C1483 1.503 1_545 S
C1476 C1475 1.410 . S
C1476 C1477 1.392 . S
C1476 C1479 1.511 1_545 S
C1477 C1473 1.376 . S
C1477 C1476 1.392 . S
C1477 H1489 0.929 . S
C1478 C1474 1.531 . S
C1478 H1490 0.960 . S
C1478 H1491 0.962 . S
C1478 H1492 0.960 . S
C1479 C1476 1.511 1_565 S
C1479 H1493 0.961 . S
C1479 H1494 0.961 . S
C1479 H1495 0.961 . S
C1480 C1481 1.370 . S
C1480 C1482 1.363 . S
C1480 H1496 0.931 . S
C1481 C1480 1.370 . S
C1481 C1485 1.408 . S
C1482 C1480 1.363 . S
C1482 C1483 1.370 . S
C1482 C1486 1.524 . S
C1483 C1475 1.503 1_565 S
C1483 C1482 1.370 . S
C1483 C1484 1.403 1_565 S
C1484 C1483 1.403 1_545 S
C1484 C1485 1.404 1_545 S
C1484 C1487 1.539 . S
C1485 C1481 1.408 . S
C1485 C1484 1.404 1_565 S
C1485 H1497 0.930 . S
C1486 C1482 1.524 . S
C1486 H1498 0.956 . S
C1486 H1499 0.961 . S
C1486 H1500 0.961 . S
C1487 C1484 1.539 . S
C1487 H1501 0.958 . S
C1487 H1502 0.961 . S
C1487 H1503 0.960 . S
H1488 C1472 0.931 . S
H1489 C1477 0.929 . S
H1490 C1478 0.960 . S
H1491 C1478 0.962 . S
H1492 C1478 0.960 . S
H1493 C1479 0.961 . S
H1494 C1479 0.961 . S
H1495 C1479 0.961 . S
H1496 C1480 0.931 . S
H1497 C1485 0.930 . S
H1498 C1486 0.956 . S
H1499 C1486 0.961 . S
H1500 C1486 0.961 . S
H1501 C1487 0.958 . S
H1502 C1487 0.961 . S
H1503 C1487 0.960 . S
C1504 C1505 1.391 . S
C1504 C1506 1.394 . S
C1504 H1520 0.931 . S
C1505 C1504 1.391 . S
C1505 C1509 1.376 . S
C1506 C1504 1.394 . S
C1506 C1507 1.369 . S
C1506 C1510 1.531 . S
C1507 C1506 1.369 . S
C1507 C1508 1.410 . S
C1507 C1515 1.503 . S
C1508 C1507 1.410 . S
C1508 C1509 1.392 . S
C1508 C1511 1.511 . S
C1509 C1505 1.376 . S
C1509 C1508 1.392 . S
C1509 H1521 0.929 . S
C1510 C1506 1.531 . S
C1510 H1522 0.960 . S
C1510 H1523 0.962 . S
C1510 H1524 0.960 . S
C1511 C1508 1.511 . S
C1511 H1525 0.961 . S
C1511 H1526 0.961 . S
C1511 H1527 0.961 . S
C1512 C1513 1.370 . S
C1512 C1514 1.363 . S
C1512 H1528 0.931 . S
C1513 C1512 1.370 . S
C1513 C1517 1.408 . S
C1514 C1512 1.363 . S
C1514 C1515 1.370 . S
C1514 C1518 1.524 . S
C1515 C1507 1.503 . S
C1515 C1514 1.370 . S
C1515 C1516 1.403 . S
C1516 C1515 1.403 . S
C1516 C1517 1.404 . S
C1516 C1519 1.539 . S
C1517 C1513 1.408 . S
C1517 C1516 1.404 . S
C1517 H1529 0.930 . S
C1518 C1514 1.524 . S
C1518 H1530 0.956 . S
C1518 H1531 0.961 . S
C1518 H1532 0.961 . S
C1519 C1516 1.539 . S
C1519 H1533 0.958 . S
C1519 H1534 0.961 . S
C1519 H1535 0.960 . S
H1520 C1504 0.931 . S
H1521 C1509 0.929 . S
H1522 C1510 0.960 . S
H1523 C1510 0.962 . S
H1524 C1510 0.960 . S
H1525 C1511 0.961 . S
H1526 C1511 0.961 . S
H1527 C1511 0.961 . S
H1528 C1512 0.931 . S
H1529 C1517 0.930 . S
H1530 C1518 0.956 . S
H1531 C1518 0.961 . S
H1532 C1518 0.961 . S
H1533 C1519 0.958 . S
H1534 C1519 0.961 . S
H1535 C1519 0.960 . S
C1536 C1537 1.391 . S
C1536 C1538 1.394 . S
C1536 H1552 0.931 . S
C1537 C1536 1.391 . S
C1537 C1541 1.376 . S
C1538 C1536 1.394 . S
C1538 C1539 1.369 . S
C1538 C1542 1.531 . S
C1539 C1538 1.369 . S
C1539 C1540 1.410 . S
C1539 C1547 1.503 . S
C1540 C1539 1.410 . S
C1540 C1541 1.392 . S
C1540 C1543 1.511 . S
C1541 C1537 1.376 . S
C1541 C1540 1.392 . S
C1541 H1553 0.929 . S
C1542 C1538 1.531 . S
C1542 H1554 0.960 . S
C1542 H1555 0.962 . S
C1542 H1556 0.960 . S
C1543 C1540 1.511 . S
C1543 H1557 0.961 . S
C1543 H1558 0.961 . S
C1543 H1559 0.961 . S
C1544 C1545 1.370 . S
C1544 C1546 1.363 . S
C1544 H1560 0.931 . S
C1545 C1544 1.370 . S
C1545 C1549 1.408 . S
C1546 C1544 1.363 . S
C1546 C1547 1.370 . S
C1546 C1550 1.524 . S
C1547 C1539 1.503 . S
C1547 C1546 1.370 . S
C1547 C1548 1.403 . S
C1548 C1547 1.403 . S
C1548 C1549 1.404 . S
C1548 C1551 1.539 . S
C1549 C1545 1.408 . S
C1549 C1548 1.404 . S
C1549 H1561 0.930 . S
C1550 C1546 1.524 . S
C1550 H1562 0.956 . S
C1550 H1563 0.961 . S
C1550 H1564 0.961 . S
C1551 C1548 1.539 . S
C1551 H1565 0.958 . S
C1551 H1566 0.961 . S
C1551 H1567 0.960 . S
H1552 C1536 0.931 . S
H1553 C1541 0.929 . S
H1554 C1542 0.960 . S
H1555 C1542 0.962 . S
H1556 C1542 0.960 . S
H1557 C1543 0.961 . S
H1558 C1543 0.961 . S
H1559 C1543 0.961 . S
H1560 C1544 0.931 . S
H1561 C1549 0.930 . S
H1562 C1550 0.956 . S
H1563 C1550 0.961 . S
H1564 C1550 0.961 . S
H1565 C1551 0.958 . S
H1566 C1551 0.961 . S
H1567 C1551 0.960 . S
C1568 C1569 1.391 . S
C1568 C1570 1.394 . S
C1568 H1584 0.931 . S
C1569 C1568 1.391 . S
C1569 C1573 1.376 . S
C1570 C1568 1.394 . S
C1570 C1571 1.369 . S
C1570 C1574 1.531 . S
C1571 C1570 1.369 . S
C1571 C1572 1.410 . S
C1571 C1579 1.503 . S
C1572 C1571 1.410 . S
C1572 C1573 1.392 . S
C1572 C1575 1.511 . S
C1573 C1569 1.376 . S
C1573 C1572 1.392 . S
C1573 H1585 0.929 . S
C1574 C1570 1.531 . S
C1574 H1586 0.960 . S
C1574 H1587 0.962 . S
C1574 H1588 0.960 . S
C1575 C1572 1.511 . S
C1575 H1589 0.961 . S
C1575 H1590 0.961 . S
C1575 H1591 0.961 . S
C1576 C1577 1.370 . S
C1576 C1578 1.363 . S
C1576 H1592 0.931 . S
C1577 C1576 1.370 . S
C1577 C1581 1.408 . S
C1578 C1576 1.363 . S
C1578 C1579 1.370 . S
C1578 C1582 1.524 . S
C1579 C1571 1.503 . S
C1579 C1578 1.370 . S
C1579 C1580 1.403 . S
C1580 C1579 1.403 . S
C1580 C1581 1.404 . S
C1580 C1583 1.539 . S
C1581 C1577 1.408 . S
C1581 C1580 1.404 . S
C1581 H1593 0.930 . S
C1582 C1578 1.524 . S
C1582 H1594 0.956 . S
C1582 H1595 0.961 . S
C1582 H1596 0.961 . S
C1583 C1580 1.539 . S
C1583 H1597 0.958 . S
C1583 H1598 0.961 . S
C1583 H1599 0.960 . S
H1584 C1568 0.931 . S
H1585 C1573 0.929 . S
H1586 C1574 0.960 . S
H1587 C1574 0.962 . S
H1588 C1574 0.960 . S
H1589 C1575 0.961 . S
H1590 C1575 0.961 . S
H1591 C1575 0.961 . S
H1592 C1576 0.931 . S
H1593 C1581 0.930 . S
H1594 C1582 0.956 . S
H1595 C1582 0.961 . S
H1596 C1582 0.961 . S
H1597 C1583 0.958 . S
H1598 C1583 0.961 . S
H1599 C1583 0.960 . S
C1600 C1601 1.391 . S
C1600 C1602 1.394 . S
C1600 H1616 0.931 . S
C1601 C1600 1.391 . S
C1601 C1605 1.376 . S
C1602 C1600 1.394 . S
C1602 C1603 1.369 . S
C1602 C1606 1.531 . S
C1603 C1602 1.369 . S
C1603 C1604 1.410 . S
C1603 C1611 1.503 . S
C1604 C1603 1.410 . S
C1604 C1605 1.392 . S
C1604 C1607 1.511 . S
C1605 C1601 1.376 . S
C1605 C1604 1.392 . S
C1605 H1617 0.929 . S
C1606 C1602 1.531 . S
C1606 H1618 0.960 . S
C1606 H1619 0.962 . S
C1606 H1620 0.960 . S
C1607 C1604 1.511 . S
C1607 H1621 0.961 . S
C1607 H1622 0.961 . S
C1607 H1623 0.961 . S
C1608 C1609 1.370 . S
C1608 C1610 1.363 . S
C1608 H1624 0.931 . S
C1609 C1608 1.370 . S
C1609 C1613 1.408 . S
C1610 C1608 1.363 . S
C1610 C1611 1.370 . S
C1610 C1614 1.524 . S
C1611 C1603 1.503 . S
C1611 C1610 1.370 . S
C1611 C1612 1.403 . S
C1612 C1611 1.403 . S
C1612 C1613 1.404 . S
C1612 C1615 1.539 . S
C1613 C1609 1.408 . S
C1613 C1612 1.404 . S
C1613 H1625 0.930 . S
C1614 C1610 1.524 . S
C1614 H1626 0.956 . S
C1614 H1627 0.961 . S
C1614 H1628 0.961 . S
C1615 C1612 1.539 . S
C1615 H1629 0.958 . S
C1615 H1630 0.961 . S
C1615 H1631 0.960 . S
H1616 C1600 0.931 . S
H1617 C1605 0.929 . S
H1618 C1606 0.960 . S
H1619 C1606 0.962 . S
H1620 C1606 0.960 . S
H1621 C1607 0.961 . S
H1622 C1607 0.961 . S
H1623 C1607 0.961 . S
H1624 C1608 0.931 . S
H1625 C1613 0.930 . S
H1626 C1614 0.956 . S
H1627 C1614 0.961 . S
H1628 C1614 0.961 . S
H1629 C1615 0.958 . S
H1630 C1615 0.961 . S
H1631 C1615 0.960 . S
C1632 C1633 1.391 . S
C1632 C1634 1.394 . S
C1632 H1648 0.931 . S
C1633 C1632 1.391 . S
C1633 C1637 1.384 . S
C1634 C1632 1.394 . S
C1634 C1635 1.369 . S
C1634 C1638 1.531 1_556 S
C1635 C1634 1.369 . S
C1635 C1636 1.388 1_455 S
C1635 C1643 1.503 1_556 S
C1636 C1635 1.388 1_655 S
C1636 C1637 1.396 1_655 S
C1636 C1639 1.530 . S
C1637 C1633 1.384 . S
C1637 C1636 1.396 1_455 S
C1637 H1649 0.920 1_455 S
C1638 C1634 1.531 1_554 S
C1638 H1650 0.960 . S
C1638 H1651 0.962 1_554 S
C1638 H1652 0.960 1_554 S
C1639 C1636 1.530 . S
C1639 H1653 0.961 . S
C1639 H1654 0.961 . S
C1639 H1655 0.961 . S
C1640 C1641 1.370 . S
C1640 C1642 1.363 . S
C1640 H1656 0.931 . S
C1641 C1640 1.370 . S
C1641 C1645 1.408 . S
C1642 C1640 1.363 . S
C1642 C1643 1.370 . S
C1642 C1646 1.524 1_554 S
C1643 C1635 1.503 1_554 S
C1643 C1642 1.370 . S
C1643 C1644 1.403 . S
C1644 C1643 1.403 . S
C1644 C1645 1.404 . S
C1644 C1647 1.539 1_455 S
C1645 C1641 1.408 . S
C1645 C1644 1.404 . S
C1645 H1657 0.933 . S
C1646 C1642 1.524 1_556 S
C1646 H1658 0.956 . S
C1646 H1659 0.961 . S
C1646 H1660 0.961 . S
C1647 C1644 1.539 1_655 S
C1647 H1661 0.950 1_655 S
C1647 H1662 0.961 . S
C1647 H1663 0.960 . S
H1648 C1632 0.931 . S
H1649 C1637 0.920 1_655 S
H1650 C1638 0.960 . S
H1651 C1638 0.962 1_556 S
H1652 C1638 0.960 1_556 S
H1653 C1639 0.961 . S
H1654 C1639 0.961 . S
H1655 C1639 0.961 . S
H1656 C1640 0.931 . S
H1657 C1645 0.933 . S
H1658 C1646 0.956 . S
H1659 C1646 0.961 . S
H1660 C1646 0.961 . S
H1661 C1647 0.950 1_455 S
H1662 C1647 0.961 . S
H1663 C1647 0.960 . S
C1664 C1665 1.391 . S
C1664 C1666 1.394 . S
C1664 H1680 0.931 . S
C1665 C1664 1.391 . S
C1665 C1669 1.376 . S
C1666 C1664 1.394 . S
C1666 C1667 1.369 . S
C1666 C1670 1.531 . S
C1667 C1666 1.369 . S
C1667 C1668 1.410 . S
C1667 C1675 1.503 . S
C1668 C1667 1.410 . S
C1668 C1669 1.392 . S
C1668 C1671 1.511 . S
C1669 C1665 1.376 . S
C1669 C1668 1.392 . S
C1669 H1681 0.929 . S
C1670 C1666 1.531 . S
C1670 H1682 0.960 . S
C1670 H1683 0.962 . S
C1670 H1684 0.960 . S
C1671 C1668 1.511 . S
C1671 H1685 0.961 . S
C1671 H1686 0.961 . S
C1671 H1687 0.961 . S
C1672 C1673 1.370 . S
C1672 C1674 1.363 . S
C1672 H1688 0.931 . S
C1673 C1672 1.370 . S
C1673 C1677 1.408 . S
C1674 C1672 1.363 . S
C1674 C1675 1.370 . S
C1674 C1678 1.524 . S
C1675 C1667 1.503 . S
C1675 C1674 1.370 . S
C1675 C1676 1.403 . S
C1676 C1675 1.403 . S
C1676 C1677 1.404 . S
C1676 C1679 1.539 . S
C1677 C1673 1.408 . S
C1677 C1676 1.404 . S
C1677 H1689 0.930 . S
C1678 C1674 1.524 . S
C1678 H1690 0.956 . S
C1678 H1691 0.961 . S
C1678 H1692 0.961 . S
C1679 C1676 1.539 . S
C1679 H1693 0.958 . S
C1679 H1694 0.961 . S
C1679 H1695 0.960 . S
H1680 C1664 0.931 . S
H1681 C1669 0.929 . S
H1682 C1670 0.960 . S
H1683 C1670 0.962 . S
H1684 C1670 0.960 . S
H1685 C1671 0.961 . S
H1686 C1671 0.961 . S
H1687 C1671 0.961 . S
H1688 C1672 0.931 . S
H1689 C1677 0.930 . S
H1690 C1678 0.956 . S
H1691 C1678 0.961 . S
H1692 C1678 0.961 . S
H1693 C1679 0.958 . S
H1694 C1679 0.961 . S
H1695 C1679 0.960 . S
C1696 C1697 1.391 . S
C1696 C1698 1.394 . S
C1696 H1712 0.931 . S
C1697 C1696 1.391 . S
C1697 C1701 1.376 . S
C1698 C1696 1.394 . S
C1698 C1699 1.369 . S
C1698 C1702 1.531 . S
C1699 C1698 1.369 . S
C1699 C1700 1.410 . S
C1699 C1707 1.503 . S
C1700 C1699 1.410 . S
C1700 C1701 1.392 . S
C1700 C1703 1.511 . S
C1701 C1697 1.376 . S
C1701 C1700 1.392 . S
C1701 H1713 0.929 . S
C1702 C1698 1.531 . S
C1702 H1714 0.960 . S
C1702 H1715 0.962 . S
C1702 H1716 0.960 . S
C1703 C1700 1.511 . S
C1703 H1717 0.961 . S
C1703 H1718 0.961 . S
C1703 H1719 0.961 . S
C1704 C1705 1.370 . S
C1704 C1706 1.363 . S
C1704 H1720 0.931 . S
C1705 C1704 1.370 . S
C1705 C1709 1.408 . S
C1706 C1704 1.363 . S
C1706 C1707 1.370 . S
C1706 C1710 1.524 . S
C1707 C1699 1.503 . S
C1707 C1706 1.370 . S
C1707 C1708 1.403 . S
C1708 C1707 1.403 . S
C1708 C1709 1.404 . S
C1708 C1711 1.539 . S
C1709 C1705 1.408 . S
C1709 C1708 1.404 . S
C1709 H1721 0.930 . S
C1710 C1706 1.524 . S
C1710 H1722 0.956 . S
C1710 H1723 0.961 . S
C1710 H1724 0.961 . S
C1711 C1708 1.539 . S
C1711 H1725 0.958 . S
C1711 H1726 0.961 . S
C1711 H1727 0.960 . S
H1712 C1696 0.931 . S
H1713 C1701 0.929 . S
H1714 C1702 0.960 . S
H1715 C1702 0.962 . S
H1716 C1702 0.960 . S
H1717 C1703 0.961 . S
H1718 C1703 0.961 . S
H1719 C1703 0.961 . S
H1720 C1704 0.931 . S
H1721 C1709 0.930 . S
H1722 C1710 0.956 . S
H1723 C1710 0.961 . S
H1724 C1710 0.961 . S
H1725 C1711 0.958 . S
H1726 C1711 0.961 . S
H1727 C1711 0.960 . S
C1728 C1729 1.391 . S
C1728 C1730 1.394 . S
C1728 H1744 0.931 . S
C1729 C1728 1.391 . S
C1729 C1733 1.376 . S
C1730 C1728 1.394 . S
C1730 C1731 1.369 . S
C1730 C1734 1.531 . S
C1731 C1730 1.369 . S
C1731 C1732 1.410 . S
C1731 C1739 1.503 . S
C1732 C1731 1.410 . S
C1732 C1733 1.392 . S
C1732 C1735 1.511 . S
C1733 C1729 1.376 . S
C1733 C1732 1.392 . S
C1733 H1745 0.929 . S
C1734 C1730 1.531 . S
C1734 H1746 0.960 . S
C1734 H1747 0.962 . S
C1734 H1748 0.960 . S
C1735 C1732 1.511 . S
C1735 H1749 0.961 . S
C1735 H1750 0.961 . S
C1735 H1751 0.961 . S
C1736 C1737 1.370 . S
C1736 C1738 1.363 . S
C1736 H1752 0.931 . S
C1737 C1736 1.370 . S
C1737 C1741 1.408 . S
C1738 C1736 1.363 . S
C1738 C1739 1.370 . S
C1738 C1742 1.524 . S
C1739 C1731 1.503 . S
C1739 C1738 1.370 . S
C1739 C1740 1.403 . S
C1740 C1739 1.403 . S
C1740 C1741 1.404 . S
C1740 C1743 1.539 . S
C1741 C1737 1.408 . S
C1741 C1740 1.404 . S
C1741 H1753 0.930 . S
C1742 C1738 1.524 . S
C1742 H1754 0.956 . S
C1742 H1755 0.961 . S
C1742 H1756 0.961 . S
C1743 C1740 1.539 . S
C1743 H1757 0.958 . S
C1743 H1758 0.961 . S
C1743 H1759 0.960 . S
H1744 C1728 0.931 . S
H1745 C1733 0.929 . S
H1746 C1734 0.960 . S
H1747 C1734 0.962 . S
H1748 C1734 0.960 . S
H1749 C1735 0.961 . S
H1750 C1735 0.961 . S
H1751 C1735 0.961 . S
H1752 C1736 0.931 . S
H1753 C1741 0.930 . S
H1754 C1742 0.956 . S
H1755 C1742 0.961 . S
H1756 C1742 0.961 . S
H1757 C1743 0.958 . S
H1758 C1743 0.961 . S
H1759 C1743 0.960 . S
C1760 C1761 1.391 . S
C1760 C1762 1.394 . S
C1760 H1776 0.931 . S
C1761 C1760 1.391 . S
C1761 C1765 1.376 . S
C1762 C1760 1.394 . S
C1762 C1763 1.369 . S
C1762 C1766 1.531 . S
C1763 C1762 1.369 . S
C1763 C1764 1.410 . S
C1763 C1771 1.503 . S
C1764 C1763 1.410 . S
C1764 C1765 1.392 . S
C1764 C1767 1.511 . S
C1765 C1761 1.376 . S
C1765 C1764 1.392 . S
C1765 H1777 0.929 . S
C1766 C1762 1.531 . S
C1766 H1778 0.960 . S
C1766 H1779 0.962 . S
C1766 H1780 0.960 . S
C1767 C1764 1.511 . S
C1767 H1781 0.961 . S
C1767 H1782 0.961 . S
C1767 H1783 0.961 . S
C1768 C1769 1.370 . S
C1768 C1770 1.363 . S
C1768 H1784 0.931 . S
C1769 C1768 1.370 . S
C1769 C1773 1.408 . S
C1770 C1768 1.363 . S
C1770 C1771 1.370 . S
C1770 C1774 1.524 . S
C1771 C1763 1.503 . S
C1771 C1770 1.370 . S
C1771 C1772 1.403 . S
C1772 C1771 1.403 . S
C1772 C1773 1.404 . S
C1772 C1775 1.539 . S
C1773 C1769 1.408 . S
C1773 C1772 1.404 . S
C1773 H1785 0.930 . S
C1774 C1770 1.524 . S
C1774 H1786 0.956 . S
C1774 H1787 0.961 . S
C1774 H1788 0.961 . S
C1775 C1772 1.539 . S
C1775 H1789 0.958 . S
C1775 H1790 0.961 . S
C1775 H1791 0.960 . S
H1776 C1760 0.931 . S
H1777 C1765 0.929 . S
H1778 C1766 0.960 . S
H1779 C1766 0.962 . S
H1780 C1766 0.960 . S
H1781 C1767 0.961 . S
H1782 C1767 0.961 . S
H1783 C1767 0.961 . S
H1784 C1768 0.931 . S
H1785 C1773 0.930 . S
H1786 C1774 0.956 . S
H1787 C1774 0.961 . S
H1788 C1774 0.961 . S
H1789 C1775 0.958 . S
H1790 C1775 0.961 . S
H1791 C1775 0.960 . S
C1792 C1793 1.391 . S
C1792 C1794 1.394 . S
C1792 H1808 0.931 . S
C1793 C1792 1.391 . S
C1793 C1797 1.376 . S
C1794 C1792 1.394 . S
C1794 C1795 1.369 . S
C1794 C1798 1.531 . S
C1795 C1794 1.369 . S
C1795 C1796 1.410 . S
C1795 C1803 1.503 . S
C1796 C1795 1.410 . S
C1796 C1797 1.392 . S
C1796 C1799 1.511 . S
C1797 C1793 1.376 . S
C1797 C1796 1.392 . S
C1797 H1809 0.929 . S
C1798 C1794 1.531 . S
C1798 H1810 0.960 . S
C1798 H1811 0.962 . S
C1798 H1812 0.960 . S
C1799 C1796 1.511 . S
C1799 H1813 0.961 . S
C1799 H1814 0.961 . S
C1799 H1815 0.961 . S
C1800 C1801 1.370 . S
C1800 C1802 1.363 . S
C1800 H1816 0.931 . S
C1801 C1800 1.370 . S
C1801 C1805 1.408 . S
C1802 C1800 1.363 . S
C1802 C1803 1.370 . S
C1802 C1806 1.524 . S
C1803 C1795 1.503 . S
C1803 C1802 1.370 . S
C1803 C1804 1.403 . S
C1804 C1803 1.403 . S
C1804 C1805 1.404 . S
C1804 C1807 1.539 . S
C1805 C1801 1.408 . S
C1805 C1804 1.404 . S
C1805 H1817 0.930 . S
C1806 C1802 1.524 . S
C1806 H1818 0.956 . S
C1806 H1819 0.961 . S
C1806 H1820 0.961 . S
C1807 C1804 1.539 . S
C1807 H1821 0.958 . S
C1807 H1822 0.961 . S
C1807 H1823 0.960 . S
H1808 C1792 0.931 . S
H1809 C1797 0.929 . S
H1810 C1798 0.960 . S
H1811 C1798 0.962 . S
H1812 C1798 0.960 . S
H1813 C1799 0.961 . S
H1814 C1799 0.961 . S
H1815 C1799 0.961 . S
H1816 C1800 0.931 . S
H1817 C1805 0.930 . S
H1818 C1806 0.956 . S
H1819 C1806 0.961 . S
H1820 C1806 0.961 . S
H1821 C1807 0.958 . S
H1822 C1807 0.961 . S
H1823 C1807 0.960 . S
C1824 C1825 1.391 . S
C1824 C1826 1.394 . S
C1824 H1840 0.931 . S
C1825 C1824 1.391 . S
C1825 C1829 1.376 . S
C1826 C1824 1.394 . S
C1826 C1827 1.369 . S
C1826 C1830 1.531 . S
C1827 C1826 1.369 . S
C1827 C1828 1.410 . S
C1827 C1835 1.503 . S
C1828 C1827 1.410 . S
C1828 C1829 1.392 . S
C1828 C1831 1.511 . S
C1829 C1825 1.376 . S
C1829 C1828 1.392 . S
C1829 H1841 0.929 . S
C1830 C1826 1.531 . S
C1830 H1842 0.960 . S
C1830 H1843 0.962 . S
C1830 H1844 0.960 . S
C1831 C1828 1.511 . S
C1831 H1845 0.961 . S
C1831 H1846 0.961 . S
C1831 H1847 0.961 . S
C1832 C1833 1.370 . S
C1832 C1834 1.363 . S
C1832 H1848 0.931 . S
C1833 C1832 1.370 . S
C1833 C1837 1.408 . S
C1834 C1832 1.363 . S
C1834 C1835 1.370 . S
C1834 C1838 1.524 . S
C1835 C1827 1.503 . S
C1835 C1834 1.370 . S
C1835 C1836 1.403 . S
C1836 C1835 1.403 . S
C1836 C1837 1.404 . S
C1836 C1839 1.539 . S
C1837 C1833 1.408 . S
C1837 C1836 1.404 . S
C1837 H1849 0.930 1_655 S
C1838 C1834 1.524 . S
C1838 H1850 0.956 . S
C1838 H1851 0.961 . S
C1838 H1852 0.961 . S
C1839 C1836 1.539 . S
C1839 H1853 0.952 1_655 S
C1839 H1854 0.961 1_655 S
C1839 H1855 0.960 . S
H1840 C1824 0.931 . S
H1841 C1829 0.929 . S
H1842 C1830 0.960 . S
H1843 C1830 0.962 . S
H1844 C1830 0.960 . S
H1845 C1831 0.961 . S
H1846 C1831 0.961 . S
H1847 C1831 0.961 . S
H1848 C1832 0.931 . S
H1849 C1837 0.930 1_455 S
H1850 C1838 0.956 . S
H1851 C1838 0.961 . S
H1852 C1838 0.961 . S
H1853 C1839 0.952 1_455 S
H1854 C1839 0.961 1_455 S
H1855 C1839 0.960 . S
C1856 C1857 1.391 . S
C1856 C1858 1.394 . S
C1856 H1872 0.931 . S
C1857 C1856 1.391 . S
C1857 C1861 1.376 . S
C1858 C1856 1.394 . S
C1858 C1859 1.369 1_556 S
C1858 C1862 1.531 . S
C1859 C1858 1.369 1_554 S
C1859 C1860 1.410 . S
C1859 C1867 1.503 . S
C1860 C1859 1.410 . S
C1860 C1861 1.392 1_554 S
C1860 C1863 1.511 . S
C1861 C1857 1.376 . S
C1861 C1860 1.392 1_556 S
C1861 H1873 0.929 . S
C1862 C1858 1.531 . S
C1862 H1874 0.960 1_556 S
C1862 H1875 0.962 . S
C1862 H1876 0.960 . S
C1863 C1860 1.511 . S
C1863 H1877 0.961 . S
C1863 H1878 0.961 . S
C1863 H1879 0.961 . S
C1864 C1865 1.370 . S
C1864 C1866 1.363 . S
C1864 H1880 0.931 . S
C1865 C1864 1.370 . S
C1865 C1869 1.408 . S
C1866 C1864 1.363 . S
C1866 C1867 1.370 . S
C1866 C1870 1.524 . S
C1867 C1859 1.503 . S
C1867 C1866 1.370 . S
C1867 C1868 1.403 . S
C1868 C1867 1.403 . S
C1868 C1869 1.404 . S
C1868 C1871 1.539 . S
C1869 C1865 1.408 . S
C1869 C1868 1.404 . S
C1869 H1881 0.930 . S
C1870 C1866 1.524 . S
C1870 H1882 0.956 . S
C1870 H1883 0.961 . S
C1870 H1884 0.961 . S
C1871 C1868 1.539 . S
C1871 H1885 0.958 . S
C1871 H1886 0.961 . S
C1871 H1887 0.960 . S
H1872 C1856 0.931 . S
H1873 C1861 0.929 . S
H1874 C1862 0.960 1_554 S
H1875 C1862 0.962 . S
H1876 C1862 0.960 . S
H1877 C1863 0.961 . S
H1878 C1863 0.961 . S
H1879 C1863 0.961 . S
H1880 C1864 0.931 . S
H1881 C1869 0.930 . S
H1882 C1870 0.956 . S
H1883 C1870 0.961 . S
H1884 C1870 0.961 . S
H1885 C1871 0.958 . S
H1886 C1871 0.961 . S
H1887 C1871 0.960 . S
C1888 C1889 1.391 . S
C1888 C1890 1.394 . S
C1888 H1904 0.931 . S
C1889 C1888 1.391 . S
C1889 C1893 1.376 . S
C1890 C1888 1.394 . S
C1890 C1891 1.369 . S
C1890 C1894 1.531 . S
C1891 C1890 1.369 . S
C1891 C1892 1.410 . S
C1891 C1899 1.503 . S
C1892 C1891 1.410 . S
C1892 C1893 1.392 . S
C1892 C1895 1.511 . S
C1893 C1889 1.376 . S
C1893 C1892 1.392 . S
C1893 H1905 0.929 . S
C1894 C1890 1.531 . S
C1894 H1906 0.960 . S
C1894 H1907 0.962 . S
C1894 H1908 0.960 . S
C1895 C1892 1.511 . S
C1895 H1909 0.961 . S
C1895 H1910 0.961 . S
C1895 H1911 0.961 . S
C1896 C1897 1.370 . S
C1896 C1898 1.363 . S
C1896 H1912 0.931 . S
C1897 C1896 1.370 . S
C1897 C1901 1.408 . S
C1898 C1896 1.363 . S
C1898 C1899 1.370 . S
C1898 C1902 1.524 . S
C1899 C1891 1.503 . S
C1899 C1898 1.370 . S
C1899 C1900 1.403 . S
C1900 C1899 1.403 . S
C1900 C1901 1.404 . S
C1900 C1903 1.539 . S
C1901 C1897 1.408 . S
C1901 C1900 1.404 . S
C1901 H1913 0.940 . S
C1902 C1898 1.524 . S
C1902 H1914 0.956 . S
C1902 H1915 0.961 . S
C1902 H1916 0.961 . S
C1903 C1900 1.539 . S
C1903 H1917 0.958 . S
C1903 H1918 0.961 . S
C1903 H1919 0.960 . S
H1904 C1888 0.931 . S
H1905 C1893 0.929 . S
H1906 C1894 0.960 . S
H1907 C1894 0.962 . S
H1908 C1894 0.960 . S
H1909 C1895 0.961 . S
H1910 C1895 0.961 . S
H1911 C1895 0.961 . S
H1912 C1896 0.931 . S
H1913 C1901 0.940 . S
H1914 C1902 0.956 . S
H1915 C1902 0.961 . S
H1916 C1902 0.961 . S
H1917 C1903 0.958 . S
H1918 C1903 0.961 . S
H1919 C1903 0.960 . S
C1920 C1921 1.391 . S
C1920 C1922 1.394 . S
C1920 H1936 0.931 . S
C1921 C1920 1.391 . S
C1921 C1925 1.376 . S
C1922 C1920 1.394 . S
C1922 C1923 1.369 . S
C1922 C1926 1.531 . S
C1923 C1922 1.369 . S
C1923 C1924 1.410 . S
C1923 C1931 1.503 . S
C1924 C1923 1.410 . S
C1924 C1925 1.392 . S
C1924 C1927 1.511 . S
C1925 C1921 1.376 . S
C1925 C1924 1.392 . S
C1925 H1937 0.929 . S
C1926 C1922 1.531 . S
C1926 H1938 0.960 . S
C1926 H1939 0.962 . S
C1926 H1940 0.960 . S
C1927 C1924 1.511 . S
C1927 H1941 0.961 . S
C1927 H1942 0.961 . S
C1927 H1943 0.961 . S
C1928 C1929 1.370 . S
C1928 C1930 1.363 . S
C1928 H1944 0.931 . S
C1929 C1928 1.370 . S
C1929 C1933 1.408 . S
C1930 C1928 1.363 . S
C1930 C1931 1.370 1_554 S
C1930 C1934 1.524 . S
C1931 C1923 1.503 . S
C1931 C1930 1.370 1_556 S
C1931 C1932 1.403 . S
C1932 C1931 1.403 . S
C1932 C1933 1.404 1_556 S
C1932 C1935 1.539 . S
C1933 C1929 1.408 . S
C1933 C1932 1.404 1_554 S
C1933 H1945 0.930 . S
C1934 C1930 1.524 . S
C1934 H1946 0.956 1_554 S
C1934 H1947 0.961 1_554 S
C1934 H1948 0.961 . S
C1935 C1932 1.539 . S
C1935 H1949 0.958 . S
C1935 H1950 0.961 . S
C1935 H1951 0.960 . S
H1936 C1920 0.931 . S
H1937 C1925 0.929 . S
H1938 C1926 0.960 . S
H1939 C1926 0.962 . S
H1940 C1926 0.960 . S
H1941 C1927 0.961 . S
H1942 C1927 0.961 . S
H1943 C1927 0.961 . S
H1944 C1928 0.931 . S
H1945 C1933 0.930 . S
H1946 C1934 0.956 1_556 S
H1947 C1934 0.961 1_556 S
H1948 C1934 0.961 . S
H1949 C1935 0.958 . S
H1950 C1935 0.961 . S
H1951 C1935 0.960 . S
C1952 C1953 1.391 . S
C1952 C1954 1.394 . S
C1952 H1968 0.931 . S
C1953 C1952 1.391 . S
C1953 C1957 1.376 . S
C1954 C1952 1.394 . S
C1954 C1955 1.369 . S
C1954 C1958 1.531 . S
C1955 C1954 1.369 . S
C1955 C1956 1.410 . S
C1955 C1963 1.503 . S
C1956 C1955 1.410 . S
C1956 C1957 1.392 . S
C1956 C1959 1.511 . S
C1957 C1953 1.376 . S
C1957 C1956 1.392 . S
C1957 H1969 0.929 . S
C1958 C1954 1.531 . S
C1958 H1970 0.960 . S
C1958 H1971 0.962 . S
C1958 H1972 0.960 . S
C1959 C1956 1.511 . S
C1959 H1973 0.961 . S
C1959 H1974 0.961 . S
C1959 H1975 0.961 . S
C1960 C1961 1.370 . S
C1960 C1962 1.363 . S
C1960 H1976 0.931 . S
C1961 C1960 1.370 . S
C1961 C1965 1.408 . S
C1962 C1960 1.363 . S
C1962 C1963 1.370 . S
C1962 C1966 1.524 . S
C1963 C1955 1.503 . S
C1963 C1962 1.370 . S
C1963 C1964 1.403 . S
C1964 C1963 1.403 . S
C1964 C1965 1.404 . S
C1964 C1967 1.539 . S
C1965 C1961 1.408 . S
C1965 C1964 1.404 . S
C1965 H1977 0.930 . S
C1966 C1962 1.524 . S
C1966 H1978 0.956 . S
C1966 H1979 0.961 . S
C1966 H1980 0.961 . S
C1967 C1964 1.539 . S
C1967 H1981 0.958 . S
C1967 H1982 0.961 . S
C1967 H1983 0.960 . S
H1968 C1952 0.931 . S
H1969 C1957 0.929 . S
H1970 C1958 0.960 . S
H1971 C1958 0.962 . S
H1972 C1958 0.960 . S
H1973 C1959 0.961 . S
H1974 C1959 0.961 . S
H1975 C1959 0.961 . S
H1976 C1960 0.931 . S
H1977 C1965 0.930 . S
H1978 C1966 0.956 . S
H1979 C1966 0.961 . S
H1980 C1966 0.961 . S
H1981 C1967 0.958 . S
H1982 C1967 0.961 . S
H1983 C1967 0.960 . S
C1984 C1985 1.391 . S
C1984 C1986 1.394 . S
C1984 H2000 0.931 1_655 S
C1985 C1984 1.391 . S
C1985 C1989 1.376 . S
C1986 C1984 1.394 . S
C1986 C1987 1.369 . S
C1986 C1990 1.531 . S
C1987 C1986 1.369 . S
C1987 C1988 1.410 . S
C1987 C1995 1.503 . S
C1988 C1987 1.410 . S
C1988 C1989 1.392 . S
C1988 C1991 1.511 . S
C1989 C1985 1.376 . S
C1989 C1988 1.392 . S
C1989 H2001 0.929 . S
C1990 C1986 1.531 . S
C1990 H2002 0.960 . S
C1990 H2003 0.962 1_655 S
C1990 H2004 0.960 1_655 S
C1991 C1988 1.511 . S
C1991 H2005 0.961 . S
C1991 H2006 0.961 . S
C1991 H2007 0.961 . S
C1992 C1993 1.370 . S
C1992 C1994 1.363 . S
C1992 H2008 0.931 . S
C1993 C1992 1.370 . S
C1993 C1997 1.408 . S
C1994 C1992 1.363 . S
C1994 C1995 1.370 . S
C1994 C1998 1.524 . S
C1995 C1987 1.503 . S
C1995 C1994 1.370 . S
C1995 C1996 1.403 . S
C1996 C1995 1.403 . S
C1996 C1997 1.404 . S
C1996 C1999 1.539 . S
C1997 C1993 1.408 . S
C1997 C1996 1.404 . S
C1997 H2009 0.930 . S
C1998 C1994 1.524 . S
C1998 H2010 0.956 . S
C1998 H2011 0.961 . S
C1998 H2012 0.961 . S
C1999 C1996 1.539 . S
C1999 H2013 0.958 . S
C1999 H2014 0.961 . S
C1999 H2015 0.960 . S
H2000 C1984 0.931 1_455 S
H2001 C1989 0.929 . S
H2002 C1990 0.960 . S
H2003 C1990 0.962 1_455 S
H2004 C1990 0.960 1_455 S
H2005 C1991 0.961 . S
H2006 C1991 0.961 . S
H2007 C1991 0.961 . S
H2008 C1992 0.931 . S
H2009 C1997 0.930 . S
H2010 C1998 0.956 . S
H2011 C1998 0.961 . S
H2012 C1998 0.961 . S
H2013 C1999 0.958 . S
H2014 C1999 0.961 . S
H2015 C1999 0.960 . S
C2016 C2017 1.391 . S
C2016 C2018 1.394 . S
C2016 H2032 0.931 . S
C2017 C2016 1.391 . S
C2017 C2021 1.376 . S
C2018 C2016 1.394 . S
C2018 C2019 1.369 . S
C2018 C2022 1.531 . S
C2019 C2018 1.369 . S
C2019 C2020 1.410 . S
C2019 C2027 1.503 . S
C2020 C2019 1.410 . S
C2020 C2021 1.392 . S
C2020 C2023 1.511 . S
C2021 C2017 1.376 . S
C2021 C2020 1.392 . S
C2021 H2033 0.929 . S
C2022 C2018 1.531 . S
C2022 H2034 0.960 . S
C2022 H2035 0.962 . S
C2022 H2036 0.960 . S
C2023 C2020 1.511 . S
C2023 H2037 0.961 . S
C2023 H2038 0.961 . S
C2023 H2039 0.961 . S
C2024 C2025 1.370 . S
C2024 C2026 1.363 . S
C2024 H2040 0.931 . S
C2025 C2024 1.370 . S
C2025 C2029 1.408 . S
C2026 C2024 1.363 . S
C2026 C2027 1.370 . S
C2026 C2030 1.524 . S
C2027 C2019 1.503 . S
C2027 C2026 1.370 . S
C2027 C2028 1.403 . S
C2028 C2027 1.403 . S
C2028 C2029 1.404 . S
C2028 C2031 1.539 . S
C2029 C2025 1.408 . S
C2029 C2028 1.404 . S
C2029 H2041 0.930 . S
C2030 C2026 1.524 . S
C2030 H2042 0.956 . S
C2030 H2043 0.961 . S
C2030 H2044 0.961 . S
C2031 C2028 1.539 . S
C2031 H2045 0.958 . S
C2031 H2046 0.961 . S
C2031 H2047 0.960 . S
H2032 C2016 0.931 . S
H2033 C2021 0.929 . S
H2034 C2022 0.960 . S
H2035 C2022 0.962 . S
H2036 C2022 0.960 . S
H2037 C2023 0.961 . S
H2038 C2023 0.961 . S
H2039 C2023 0.961 . S
H2040 C2024 0.931 . S
H2041 C2029 0.930 . S
H2042 C2030 0.956 . S
H2043 C2030 0.961 . S
H2044 C2030 0.961 . S
H2045 C2031 0.958 . S
H2046 C2031 0.961 . S
H2047 C2031 0.960 . S
C2048 C2049 1.391 . S
C2048 C2050 1.394 . S
C2048 H2064 0.931 . S
C2049 C2048 1.391 . S
C2049 C2053 1.376 . S
C2050 C2048 1.394 . S
C2050 C2051 1.369 . S
C2050 C2054 1.531 . S
C2051 C2050 1.369 . S
C2051 C2052 1.410 . S
C2051 C2059 1.503 . S
C2052 C2051 1.410 . S
C2052 C2053 1.392 . S
C2052 C2055 1.511 . S
C2053 C2049 1.376 . S
C2053 C2052 1.392 . S
C2053 H2065 0.929 . S
C2054 C2050 1.531 . S
C2054 H2066 0.960 . S
C2054 H2067 0.962 . S
C2054 H2068 0.960 . S
C2055 C2052 1.511 . S
C2055 H2069 0.961 . S
C2055 H2070 0.961 . S
C2055 H2071 0.961 . S
C2056 C2057 1.370 . S
C2056 C2058 1.363 1_556 S
C2056 H2072 0.931 . S
C2057 C2056 1.370 . S
C2057 C2061 1.408 1_556 S
C2058 C2056 1.363 1_554 S
C2058 C2059 1.370 . S
C2058 C2062 1.524 . S
C2059 C2051 1.503 . S
C2059 C2058 1.370 . S
C2059 C2060 1.403 . S
C2060 C2059 1.403 . S
C2060 C2061 1.404 . S
C2060 C2063 1.539 . S
C2061 C2057 1.408 1_554 S
C2061 C2060 1.404 . S
C2061 H2073 0.930 . S
C2062 C2058 1.524 . S
C2062 H2074 0.956 . S
C2062 H2075 0.961 . S
C2062 H2076 0.943 1_554 S
C2063 C2060 1.539 . S
C2063 H2077 0.958 . S
C2063 H2078 0.961 . S
C2063 H2079 0.960 . S
H2064 C2048 0.931 . S
H2065 C2053 0.929 . S
H2066 C2054 0.960 . S
H2067 C2054 0.962 . S
H2068 C2054 0.960 . S
H2069 C2055 0.961 . S
H2070 C2055 0.961 . S
H2071 C2055 0.961 . S
H2072 C2056 0.931 . S
H2073 C2061 0.930 . S
H2074 C2062 0.956 . S
H2075 C2062 0.961 . S
H2076 C2062 0.943 1_556 S
H2077 C2063 0.958 . S
H2078 C2063 0.961 . S
H2079 C2063 0.960 . S
C2080 C2081 1.391 . S
C2080 C2082 1.394 . S
C2080 H2096 0.931 . S
C2081 C2080 1.391 . S
C2081 C2085 1.376 . S
C2082 C2080 1.394 . S
C2082 C2083 1.369 . S
C2082 C2086 1.531 . S
C2083 C2082 1.369 . S
C2083 C2084 1.410 . S
C2083 C2091 1.503 . S
C2084 C2083 1.410 . S
C2084 C2085 1.392 . S
C2084 C2087 1.511 . S
C2085 C2081 1.376 . S
C2085 C2084 1.392 . S
C2085 H2097 0.929 . S
C2086 C2082 1.531 . S
C2086 H2098 0.960 . S
C2086 H2099 0.962 . S
C2086 H2100 0.960 . S
C2087 C2084 1.511 . S
C2087 H2101 0.961 . S
C2087 H2102 0.961 . S
C2087 H2103 0.961 . S
C2088 C2089 1.370 . S
C2088 C2090 1.363 . S
C2088 H2104 0.931 . S
C2089 C2088 1.370 . S
C2089 C2093 1.408 . S
C2090 C2088 1.363 . S
C2090 C2091 1.370 . S
C2090 C2094 1.524 . S
C2091 C2083 1.503 . S
C2091 C2090 1.370 . S
C2091 C2092 1.403 . S
C2092 C2091 1.403 . S
C2092 C2093 1.404 . S
C2092 C2095 1.539 . S
C2093 C2089 1.408 . S
C2093 C2092 1.404 . S
C2093 H2105 0.930 . S
C2094 C2090 1.524 . S
C2094 H2106 0.956 . S
C2094 H2107 0.961 . S
C2094 H2108 0.961 . S
C2095 C2092 1.539 . S
C2095 H2109 0.958 . S
C2095 H2110 0.961 . S
C2095 H2111 0.960 . S
H2096 C2080 0.931 . S
H2097 C2085 0.929 . S
H2098 C2086 0.960 . S
H2099 C2086 0.962 . S
H2100 C2086 0.960 . S
H2101 C2087 0.961 . S
H2102 C2087 0.961 . S
H2103 C2087 0.961 . S
H2104 C2088 0.931 . S
H2105 C2093 0.930 . S
H2106 C2094 0.956 . S
H2107 C2094 0.961 . S
H2108 C2094 0.961 . S
H2109 C2095 0.958 . S
H2110 C2095 0.961 . S
H2111 C2095 0.960 . S
C2112 C2113 1.391 . S
C2112 C2114 1.394 . S
C2112 H2128 0.931 . S
C2113 C2112 1.391 . S
C2113 C2117 1.376 . S
C2114 C2112 1.394 . S
C2114 C2115 1.369 . S
C2114 C2118 1.531 . S
C2115 C2114 1.369 . S
C2115 C2116 1.410 . S
C2115 C2123 1.503 . S
C2116 C2115 1.410 . S
C2116 C2117 1.392 . S
C2116 C2119 1.511 . S
C2117 C2113 1.376 . S
C2117 C2116 1.392 . S
C2117 H2129 0.929 . S
C2118 C2114 1.531 . S
C2118 H2130 0.960 . S
C2118 H2131 0.962 . S
C2118 H2132 0.960 . S
C2119 C2116 1.511 . S
C2119 H2133 0.961 . S
C2119 H2134 0.961 . S
C2119 H2135 0.961 . S
C2120 C2121 1.370 . S
C2120 C2122 1.363 . S
C2120 H2136 0.931 . S
C2121 C2120 1.370 . S
C2121 C2125 1.408 . S
C2122 C2120 1.363 . S
C2122 C2123 1.370 . S
C2122 C2126 1.524 . S
C2123 C2115 1.503 . S
C2123 C2122 1.370 . S
C2123 C2124 1.403 . S
C2124 C2123 1.403 . S
C2124 C2125 1.404 . S
C2124 C2127 1.539 . S
C2125 C2121 1.408 . S
C2125 C2124 1.404 . S
C2125 H2137 0.930 . S
C2126 C2122 1.524 . S
C2126 H2138 0.956 . S
C2126 H2139 0.961 . S
C2126 H2140 0.961 . S
C2127 C2124 1.539 . S
C2127 H2141 0.958 . S
C2127 H2142 0.961 . S
C2127 H2143 0.960 . S
H2128 C2112 0.931 . S
H2129 C2117 0.929 . S
H2130 C2118 0.960 . S
H2131 C2118 0.962 . S
H2132 C2118 0.960 . S
H2133 C2119 0.961 . S
H2134 C2119 0.961 . S
H2135 C2119 0.961 . S
H2136 C2120 0.931 . S
H2137 C2125 0.930 . S
H2138 C2126 0.956 . S
H2139 C2126 0.961 . S
H2140 C2126 0.961 . S
H2141 C2127 0.958 . S
H2142 C2127 0.961 . S
H2143 C2127 0.960 . S
C2144 C2145 1.391 . S
C2144 C2146 1.394 . S
C2144 H2160 0.931 . S
C2145 C2144 1.391 . S
C2145 C2149 1.376 . S
C2146 C2144 1.394 . S
C2146 C2147 1.369 . S
C2146 C2150 1.531 . S
C2147 C2146 1.369 . S
C2147 C2148 1.410 . S
C2147 C2155 1.503 . S
C2148 C2147 1.410 . S
C2148 C2149 1.392 . S
C2148 C2151 1.511 . S
C2149 C2145 1.376 . S
C2149 C2148 1.392 . S
C2149 H2161 0.929 . S
C2150 C2146 1.531 . S
C2150 H2162 0.960 . S
C2150 H2163 0.962 . S
C2150 H2164 0.960 . S
C2151 C2148 1.511 . S
C2151 H2165 0.961 . S
C2151 H2166 0.961 . S
C2151 H2167 0.961 . S
C2152 C2153 1.370 . S
C2152 C2154 1.363 . S
C2152 H2168 0.931 . S
C2153 C2152 1.370 . S
C2153 C2157 1.408 . S
C2154 C2152 1.363 . S
C2154 C2155 1.370 . S
C2154 C2158 1.524 . S
C2155 C2147 1.503 . S
C2155 C2154 1.370 . S
C2155 C2156 1.403 . S
C2156 C2155 1.403 . S
C2156 C2157 1.404 . S
C2156 C2159 1.539 . S
C2157 C2153 1.408 . S
C2157 C2156 1.404 . S
C2157 H2169 0.930 . S
C2158 C2154 1.524 . S
C2158 H2170 0.956 . S
C2158 H2171 0.961 . S
C2158 H2172 0.961 . S
C2159 C2156 1.539 . S
C2159 H2173 0.958 . S
C2159 H2174 0.961 . S
C2159 H2175 0.960 . S
H2160 C2144 0.931 . S
H2161 C2149 0.929 . S
H2162 C2150 0.960 . S
H2163 C2150 0.962 . S
H2164 C2150 0.960 . S
H2165 C2151 0.961 . S
H2166 C2151 0.961 . S
H2167 C2151 0.961 . S
H2168 C2152 0.931 . S
H2169 C2157 0.930 . S
H2170 C2158 0.956 . S
H2171 C2158 0.961 . S
H2172 C2158 0.961 . S
H2173 C2159 0.958 . S
H2174 C2159 0.961 . S
H2175 C2159 0.960 . S
C641 C19 0.439 . S
C649 C286 0.532 . S
C673 C59 0.925 . S
C681 C166 0.921 . S
C705 C206 0.905 . S
C713 C86 0.835 . S
C737 C139 0.988 . S
C745 C246 0.976 . S
C769 C455 0.979 . S
C777 C170 0.948 . S
C801 C330 1.931 . S
C809 C15 1.965 . S
C833 C415 0.939 . S
C841 C250 0.931 . S
C865 C90 2.650 . S
C873 C370 2.714 . S
C897 C366 0.538 . S
C905 C499 0.492 . S
C929 C419 0.911 . S
C937 C566 0.923 . S
C961 C526 0.885 . S
C969 C326 0.929 . S
C993 C459 0.962 . S
C1001 C606 0.945 . S
C1025 C570 0.950 . S
C1033 C135 0.928 . S
C1057 C495 1.939 . S
C1065 C210 1.938 . S
C1089 C55 0.880 . S
C1097 C610 0.926 . S
C1121 C290 2.702 . S
C1129 C530 2.673 1_556 S
C1153 C529 0.550 . S
C1161 C18 0.501 . S
C1185 C458 0.410 . S
C1193 C58 0.534 . S
C1217 C498 0.371 . S
C1225 C89 0.398 . S
C1249 C418 0.441 . S
C1257 C138 0.510 . S
C1281 C169 0.466 . S
C1289 C609 0.417 . S
C1313 C369 0.678 . S
C1321 C209 0.684 . S
C1345 C249 0.552 . S
C1353 C569 0.508 . S
C1377 C289 0.646 . S
C1385 C329 0.761 . S
C1409 C9 1.527 . S
C1417 C178 1.581 1_455 S
C1441 C49 1.743 . S
C1449 C218 1.752 . S
C1473 C258 1.490 . S
C1481 C98 1.515 . S
C1505 C129 1.375 . S
C1513 C298 1.417 . S
C1537 C409 1.753 . S
C1545 C338 1.750 . S
C1569 C449 1.400 . S
C1577 C378 1.408 . S
C1601 C489 1.530 . S
C1609 C578 1.579 . S
C1633 C618 1.477 . S
C1641 C538 1.517 . S
C1665 C6 2.834 . S
C1673 C299 2.909 . S
C1697 C46 1.930 . S
C1705 C179 2.046 . S
C1729 C219 3.644 1_556 S
C1737 C99 3.632 . S
C1761 C259 2.074 . S
C1769 C126 1.998 . S
C1793 C450 2.033 . S
C1801 C175 1.974 . S
C1825 C335 0.924 . S
C1833 C10 1.016 . S
C1857 C410 2.034 . S
C1865 C255 1.969 . S
C1889 C95 0.637 . S
C1897 C375 0.539 . S
C1921 C486 2.831 . S
C1929 C379 2.911 . S
C1953 C579 2.035 . S
C1961 C406 1.950 . S
C1985 C539 3.632 . S
C1993 C339 3.647 . S
C2017 C619 2.069 . S
C2025 C446 2.002 . S
C2049 C575 1.956 . S
C2057 C130 2.050 . S
C2081 C215 1.007 . S
C2089 C490 0.994 . S
C2113 C50 2.031 . S
C2121 C615 1.971 . S
C2145 C535 0.492 . S
C2153 C295 0.602 . S
