# Generated by pormake.
# Topology skb, (5)-cn, num edge types: 1
# Building blocks:
#     Node 0, Type 0, BuildingBlock: XOMCOT_clean_sbu_1, # of connection points: 5
#     Node 1, Type 0, BuildingBlock: XOMCOT_clean_sbu_1, # of connection points: 5
#     Node 2, Type 0, BuildingBlock: XOMCOT_clean_sbu_1, # of connection points: 5
#     Node 3, Type 0, BuildingBlock: XOMCOT_clean_sbu_1, # of connection points: 5
#     Node 4, Type 0, BuildingBlock: XOMCOT_clean_sbu_1, # of connection points: 5
#     Node 5, Type 0, BuildingBlock: XOMCOT_clean_sbu_1, # of connection points: 5
#     Node 6, Type 0, BuildingBlock: XOMCOT_clean_sbu_1, # of connection points: 5
#     Node 7, Type 0, BuildingBlock: XOMCOT_clean_sbu_1, # of connection points: 5
#     Node 8, Type 0, BuildingBlock: XOMCOT_clean_sbu_1, # of connection points: 5
#     Node 9, Type 0, BuildingBlock: XOMCOT_clean_sbu_1, # of connection points: 5
#     Node 10, Type 0, BuildingBlock: XOMCOT_clean_sbu_1, # of connection points: 5
#     Node 11, Type 0, BuildingBlock: XOMCOT_clean_sbu_1, # of connection points: 5
#     Node 12, Type 0, BuildingBlock: XOMCOT_clean_sbu_1, # of connection points: 5
#     Node 13, Type 0, BuildingBlock: XOMCOT_clean_sbu_1, # of connection points: 5
#     Node 14, Type 0, BuildingBlock: XOMCOT_clean_sbu_1, # of connection points: 5
#     Node 15, Type 0, BuildingBlock: XOMCOT_clean_sbu_1, # of connection points: 5
#     Edge 16, Type (0, 0), BuildingBlock: ZUJKAS_clean_linker_0, # of connection points: 2
#     Edge 17, Type (0, 0), BuildingBlock: ZUJKAS_clean_linker_0, # of connection points: 2
#     Edge 18, Type (0, 0), BuildingBlock: ZUJKAS_clean_linker_0, # of connection points: 2
#     Edge 19, Type (0, 0), BuildingBlock: ZUJKAS_clean_linker_0, # of connection points: 2
#     Edge 20, Type (0, 0), BuildingBlock: ZUJKAS_clean_linker_0, # of connection points: 2
#     Edge 21, Type (0, 0), BuildingBlock: ZUJKAS_clean_linker_0, # of connection points: 2
#     Edge 22, Type (0, 0), BuildingBlock: ZUJKAS_clean_linker_0, # of connection points: 2
#     Edge 23, Type (0, 0), BuildingBlock: ZUJKAS_clean_linker_0, # of connection points: 2
#     Edge 24, Type (0, 0), BuildingBlock: ZUJKAS_clean_linker_0, # of connection points: 2
#     Edge 25, Type (0, 0), BuildingBlock: ZUJKAS_clean_linker_0, # of connection points: 2
#     Edge 26, Type (0, 0), BuildingBlock: ZUJKAS_clean_linker_0, # of connection points: 2
#     Edge 27, Type (0, 0), BuildingBlock: ZUJKAS_clean_linker_0, # of connection points: 2
#     Edge 28, Type (0, 0), BuildingBlock: ZUJKAS_clean_linker_0, # of connection points: 2
#     Edge 29, Type (0, 0), BuildingBlock: ZUJKAS_clean_linker_0, # of connection points: 2
#     Edge 30, Type (0, 0), BuildingBlock: ZUJKAS_clean_linker_0, # of connection points: 2
#     Edge 31, Type (0, 0), BuildingBlock: ZUJKAS_clean_linker_0, # of connection points: 2
#     Edge 32, Type (0, 0), BuildingBlock: ZUJKAS_clean_linker_0, # of connection points: 2
#     Edge 33, Type (0, 0), BuildingBlock: ZUJKAS_clean_linker_0, # of connection points: 2
#     Edge 34, Type (0, 0), BuildingBlock: ZUJKAS_clean_linker_0, # of connection points: 2
#     Edge 35, Type (0, 0), BuildingBlock: ZUJKAS_clean_linker_0, # of connection points: 2
#     Edge 36, Type (0, 0), BuildingBlock: ZUJKAS_clean_linker_0, # of connection points: 2
#     Edge 37, Type (0, 0), BuildingBlock: ZUJKAS_clean_linker_0, # of connection points: 2
#     Edge 38, Type (0, 0), BuildingBlock: ZUJKAS_clean_linker_0, # of connection points: 2
#     Edge 39, Type (0, 0), BuildingBlock: ZUJKAS_clean_linker_0, # of connection points: 2
#     Edge 40, Type (0, 0), BuildingBlock: ZUJKAS_clean_linker_0, # of connection points: 2
#     Edge 41, Type (0, 0), BuildingBlock: ZUJKAS_clean_linker_0, # of connection points: 2
#     Edge 42, Type (0, 0), BuildingBlock: ZUJKAS_clean_linker_0, # of connection points: 2
#     Edge 43, Type (0, 0), BuildingBlock: ZUJKAS_clean_linker_0, # of connection points: 2
#     Edge 44, Type (0, 0), BuildingBlock: ZUJKAS_clean_linker_0, # of connection points: 2
#     Edge 45, Type (0, 0), BuildingBlock: ZUJKAS_clean_linker_0, # of connection points: 2
#     Edge 46, Type (0, 0), BuildingBlock: ZUJKAS_clean_linker_0, # of connection points: 2
#     Edge 47, Type (0, 0), BuildingBlock: ZUJKAS_clean_linker_0, # of connection points: 2
#     Edge 48, Type (0, 0), BuildingBlock: ZUJKAS_clean_linker_0, # of connection points: 2
#     Edge 49, Type (0, 0), BuildingBlock: ZUJKAS_clean_linker_0, # of connection points: 2
#     Edge 50, Type (0, 0), BuildingBlock: ZUJKAS_clean_linker_0, # of connection points: 2
#     Edge 51, Type (0, 0), BuildingBlock: ZUJKAS_clean_linker_0, # of connection points: 2
#     Edge 52, Type (0, 0), BuildingBlock: ZUJKAS_clean_linker_0, # of connection points: 2
#     Edge 53, Type (0, 0), BuildingBlock: ZUJKAS_clean_linker_0, # of connection points: 2
#     Edge 54, Type (0, 0), BuildingBlock: ZUJKAS_clean_linker_0, # of connection points: 2
#     Edge 55, Type (0, 0), BuildingBlock: ZUJKAS_clean_linker_0, # of connection points: 2
# Relax obj value: 0.063
# Max RMSD: 0.111
# Mean RMSD: 0.111
data_MOF--net-skb--node1-XOMCOT_clean_sbu_1--edge1-ZUJKAS_clean_linker_0
_symmetry_space_group_name_H-M    P1
_symmetry_Int_Tables_number       1
_symmetry_cell_setting            triclinic
loop_
_symmetry_equiv_pos_as_xyz
'x, y, z'
_cell_length_a     61.46303
_cell_length_b     35.557946
_cell_length_c     85.920282
_cell_angle_alpha  89.970259
_cell_angle_beta   89.956396
_cell_angle_gamma 89.948545
loop_
_atom_site_label
_atom_site_type_symbol
_atom_site_fract_x
_atom_site_fract_y
_atom_site_fract_z
_atom_type_partial_charge
C0 C 0.18588 0.1053 0.12134 0.0
C1 C 0.18682 0.10788 0.10542 0.0
N2 N 0.19121 0.07351 0.09963 0.0
N3 N 0.18963 0.06949 0.12569 0.0
C4 C 0.19297 0.05063 0.11219 0.0
H5 H 0.18206 0.12795 0.12928 0.0
Co6 Co 0.1868 0.05507 0.14644 0.0
C7 C 0.19566 0.97353 0.14795 0.0
O8 O 0.17899 0.97105 0.15746 0.0
N9 N 0.18377 0.04171 0.16809 0.0
C10 C 0.17009 0.02951 0.19161 0.0
C11 C 0.16528 0.03523 0.17621 0.0
C12 C 0.19967 0.03934 0.17906 0.0
N13 N 0.19175 0.03251 0.19353 0.0
O14 O 0.21427 0.07873 0.15058 0.0
H15 H 0.14906 0.03431 0.17148 0.0
H16 H 0.21672 0.04377 0.17657 0.0
O17 O 0.20079 1.00565 0.14219 0.0
C18 C 0.21051 0.11025 0.15721 0.0
O19 O 0.19058 0.11765 0.16185 0.0
N20 N 0.15873 0.03826 0.14176 0.0
C21 C 0.11522 0.03408 0.1328 0.0
C22 C 0.12971 1.00483 0.12915 0.0
C23 C 0.15171 1.00797 0.13335 0.0
C24 C 0.14488 0.06716 0.14497 0.0
C25 C 0.12308 0.06549 0.1408 0.0
H26 H 0.163 0.98697 0.12924 0.0
H27 H 0.15098 0.09198 0.15077 0.0
H28 H 0.19562 0.02058 0.11151 0.0
H29 H 0.18421 0.13307 0.09858 0.0
H30 H 0.15838 0.02354 0.20068 0.0
H31 H 0.12428 0.98063 0.12256 0.0
H32 H 0.11246 0.08873 0.14378 0.0
C33 C 0.81397 0.98008 0.12144 0.0
C34 C 0.81181 0.97693 0.10562 0.0
N35 N 0.80707 0.01111 0.09971 0.0
N36 N 0.81058 0.01601 0.1257 0.0
C37 C 0.8065 0.03448 0.1122 0.0
H38 H 0.81814 0.95762 0.12939 0.0
Co39 Co 0.81322 0.03019 0.14648 0.0
C40 C 0.80354 0.11127 0.14863 0.0
O41 O 0.81997 0.11355 0.15833 0.0
N42 N 0.81599 0.04306 0.16817 0.0
C43 C 0.82894 0.05577 0.19187 0.0
C44 C 0.83427 0.04942 0.17657 0.0
C45 C 0.79976 0.04568 0.17888 0.0
N46 N 0.80723 0.05315 0.19337 0.0
O47 O 0.78584 1.00616 0.15049 0.0
H48 H 0.85065 0.0497 0.17211 0.0
H49 H 0.78271 0.04201 0.17617 0.0
O50 O 0.79901 0.07953 0.14229 0.0
C51 C 0.78954 0.9748 0.15726 0.0
O52 O 0.80946 0.96728 0.16186 0.0
N53 N 0.84117 0.04767 0.14193 0.0
C54 C 0.88465 0.05342 0.13296 0.0
C55 C 0.86979 0.08218 0.12933 0.0
C56 C 0.84785 0.0783 0.13358 0.0
C57 C 0.85535 0.01927 0.14514 0.0
C58 C 0.87713 0.02177 0.14101 0.0
H59 H 0.83631 0.099 0.12956 0.0
H60 H 0.84951 0.9942 0.15093 0.0
H61 H 0.80331 0.06437 0.11155 0.0
H62 H 0.81423 0.95145 0.09895 0.0
H63 H 0.84027 0.06083 0.20128 0.0
H64 H 0.87491 0.10657 0.12273 0.0
H65 H 0.888 0.99891 0.14404 0.0
C66 C 0.18219 0.97716 0.91301 0.0
C67 C 0.18282 0.97306 0.9289 0.0
N68 N 0.18996 1.0055 0.93516 0.0
N69 N 0.18882 0.01203 0.90917 0.0
C70 C 0.19365 0.0287 0.92293 0.0
H71 H 0.17666 0.95634 0.90474 0.0
Co72 Co 0.18756 0.02874 0.88862 0.0
C73 C 0.19483 0.11054 0.88989 0.0
O74 O 0.17746 0.11391 0.88114 0.0
N75 N 0.18625 0.04487 0.86708 0.0
C76 C 0.17475 0.06435 0.84374 0.0
C77 C 0.16888 0.05754 0.85887 0.0
C78 C 0.20256 0.04454 0.85634 0.0
N79 N 0.19593 0.05597 0.84207 0.0
O80 O 0.21529 1.00545 0.8852 0.0
H81 H 0.15279 0.0625 0.86341 0.0
H82 H 0.21909 0.03608 0.85887 0.0
O83 O 0.20111 0.07774 0.89425 0.0
C84 C 0.21157 0.97411 0.87843 0.0
O85 O 0.19182 0.96738 0.87331 0.0
N86 N 0.15912 0.04499 0.8926 0.0
C87 C 0.11515 0.04822 0.90067 0.0
C88 C 0.13013 0.07348 0.90723 0.0
C89 C 0.15223 0.07081 0.90332 0.0
C90 C 0.14486 0.01955 0.88661 0.0
C91 C 0.12282 0.02121 0.89014 0.0
H92 H 0.16377 0.0882 0.90946 0.0
H93 H 0.15078 0.99746 0.87906 0.0
H94 H 0.19879 0.05768 0.92403 0.0
H95 H 0.17816 0.94822 0.93537 0.0
H96 H 0.16405 0.07393 0.83456 0.0
H97 H 0.12499 0.09393 0.91582 0.0
H98 H 0.11194 1.00112 0.88477 0.0
C99 C 0.81539 0.1058 0.91279 0.0
C100 C 0.8137 0.11055 0.9286 0.0
N101 N 0.80724 0.07778 0.93502 0.0
N102 N 0.81003 0.07024 0.90909 0.0
C103 C 0.80515 0.05368 0.92287 0.0
H104 H 0.8206 0.12679 0.90448 0.0
Co105 Co 0.81153 0.05339 0.88857 0.0
C106 C 0.80425 0.97148 0.88984 0.0
O107 O 0.82157 0.96806 0.88101 0.0
N108 N 0.81304 0.03722 0.86706 0.0
C109 C 0.82464 0.01782 0.84373 0.0
C110 C 0.83048 0.02477 0.85886 0.0
C111 C 0.79675 0.03735 0.85634 0.0
N112 N 0.80344 0.02599 0.84208 0.0
O113 O 0.78372 0.07633 0.88506 0.0
H114 H 0.8466 0.02012 0.86342 0.0
H115 H 0.78018 0.04561 0.85885 0.0
O116 O 0.79811 1.00432 0.89424 0.0
C117 C 0.78717 0.10773 0.87825 0.0
O118 O 0.80685 0.11487 0.87304 0.0
N119 N 0.83997 0.03746 0.89261 0.0
C120 C 0.88382 0.03559 0.90094 0.0
C121 C 0.86911 1.00946 0.90724 0.0
C122 C 0.84702 0.01149 0.90322 0.0
C123 C 0.85402 0.06345 0.88675 0.0
C124 C 0.876 0.06255 0.89046 0.0
H125 H 0.83559 0.99355 0.90922 0.0
H126 H 0.84794 0.08552 0.87925 0.0
H127 H 0.80032 0.02455 0.92396 0.0
H128 H 0.81762 0.13603 0.93487 0.0
H129 H 0.83536 1.0083 0.83453 0.0
H130 H 0.87442 0.98895 0.91576 0.0
H131 H 0.88673 0.08328 0.88532 0.0
C132 C 0.18722 0.60967 0.6222 0.0
C133 C 0.18812 0.61305 0.6063 0.0
N134 N 0.19048 0.57849 0.60007 0.0
N135 N 0.18919 0.57321 0.62617 0.0
C136 C 0.19122 0.55475 0.61244 0.0
H137 H 0.18493 0.63241 0.63039 0.0
Co138 Co 0.1871 0.5577 0.64688 0.0
C139 C 0.19517 0.47596 0.64705 0.0
O140 O 0.17846 0.47306 0.65649 0.0
N141 N 0.18492 0.54301 0.66857 0.0
C142 C 0.17208 0.52785 0.69208 0.0
C143 C 0.16691 0.53331 0.67673 0.0
C144 C 0.20094 0.54258 0.67951 0.0
N145 N 0.19349 0.53411 0.69395 0.0
O146 O 0.21483 0.58083 0.65062 0.0
H147 H 0.1508 0.52956 0.67205 0.0
H148 H 0.21772 0.5495 0.67705 0.0
O149 O 0.20069 0.50844 0.64186 0.0
C150 C 0.21145 0.6122 0.65747 0.0
O151 O 0.19176 0.61961 0.66259 0.0
N152 N 0.1588 0.54139 0.64266 0.0
C153 C 0.11453 0.53533 0.63623 0.0
C154 C 0.12929 0.50882 0.63026 0.0
C155 C 0.15157 0.51267 0.63344 0.0
C156 C 0.14479 0.56868 0.64749 0.0
C157 C 0.12261 0.56579 0.64475 0.0
H158 H 0.16286 0.49331 0.62811 0.0
H159 H 0.15101 0.59277 0.65375 0.0
H160 H 0.1925 0.52449 0.61152 0.0
H161 H 0.18709 0.63917 0.59988 0.0
H162 H 0.1608 0.51967 0.70114 0.0
H163 H 0.12369 0.4856 0.62317 0.0
H164 H 0.1119 0.5877 0.64901 0.0
C165 C 0.81839 0.48191 0.62151 0.0
C166 C 0.81775 0.47781 0.60563 0.0
N167 N 0.8104 0.51013 0.59934 0.0
N168 N 0.81149 0.51664 0.62535 0.0
C169 C 0.80654 0.53323 0.61158 0.0
H170 H 0.82405 0.46117 0.62978 0.0
Co171 Co 0.81241 0.53334 0.64592 0.0
C172 C 0.8038 0.61489 0.64426 0.0
O173 O 0.82128 0.6197 0.65277 0.0
N174 N 0.81341 0.54948 0.66753 0.0
C175 C 0.82494 0.56952 0.69077 0.0
C176 C 0.8303 0.56486 0.67542 0.0
C177 C 0.79776 0.54585 0.67867 0.0
N178 N 0.80452 0.55719 0.69293 0.0
O179 O 0.78502 0.50892 0.64927 0.0
H180 H 0.84571 0.5732 0.67051 0.0
H181 H 0.78182 0.53415 0.67655 0.0
O182 O 0.79807 0.58158 0.64026 0.0
C183 C 0.78918 0.47729 0.65569 0.0
O184 O 0.80908 0.47074 0.66055 0.0
N185 N 0.84059 0.55096 0.64202 0.0
C186 C 0.88469 0.5592 0.63533 0.0
C187 C 0.86916 0.58162 0.62775 0.0
C188 C 0.84702 0.57667 0.63111 0.0
C189 C 0.85544 0.52734 0.64859 0.0
C190 C 0.87756 0.53163 0.64577 0.0
H191 H 0.83515 0.59255 0.62458 0.0
H192 H 0.84996 0.50495 0.65616 0.0
H193 H 0.80114 0.56209 0.61049 0.0
H194 H 0.82253 0.45298 0.5992 0.0
H195 H 0.83536 0.58141 0.69964 0.0
H196 H 0.87406 0.6024 0.61922 0.0
H197 H 0.88896 0.51275 0.65138 0.0
C198 C 0.18761 0.47093 0.41406 0.0
C199 C 0.18972 0.46805 0.42992 0.0
N200 N 0.19301 0.50271 0.43579 0.0
N201 N 0.18972 0.50718 0.40979 0.0
C202 C 0.19287 0.52606 0.4233 0.0
H203 H 0.18442 0.44802 0.40612 0.0
Co204 Co 0.18713 0.52194 0.38902 0.0
C205 C 0.19636 0.60318 0.38795 0.0
O206 O 0.17957 0.60614 0.3786 0.0
N207 N 0.1845 0.53585 0.3673 0.0
C208 C 0.17147 0.54998 0.34376 0.0
C209 C 0.16634 0.54456 0.35912 0.0
C210 C 0.20053 0.53678 0.35637 0.0
N211 N 0.19298 0.54468 0.3419 0.0
O212 O 0.21437 0.49727 0.38491 0.0
H213 H 0.15017 0.54764 0.36378 0.0
H214 H 0.2174 0.53069 0.35887 0.0
O215 O 0.20158 0.5708 0.39343 0.0
C216 C 0.21019 0.46609 0.37815 0.0
O217 O 0.19016 0.45965 0.37353 0.0
N218 N 0.15925 0.53986 0.39363 0.0
C219 C 0.11524 0.5497 0.40017 0.0
C220 C 0.13066 0.57542 0.4058 0.0
C221 C 0.1528 0.56965 0.40259 0.0
C222 C 0.14459 0.51311 0.38935 0.0
C223 C 0.12251 0.51789 0.39212 0.0
H224 H 0.16458 0.58857 0.4076 0.0
H225 H 0.15017 0.48815 0.38336 0.0
H226 H 0.19494 0.55623 0.42399 0.0
H227 H 0.18828 0.44244 0.43666 0.0
H228 H 0.16009 0.55752 0.33467 0.0
H229 H 0.12566 0.59965 0.41254 0.0
H230 H 0.11121 0.49661 0.38814 0.0
C231 C 0.82145 0.59818 0.41216 0.0
C232 C 0.82112 0.60303 0.42801 0.0
N233 N 0.81221 0.57222 0.43456 0.0
N234 N 0.81285 0.56446 0.4086 0.0
C235 C 0.80715 0.5493 0.4225 0.0
H236 H 0.82798 0.6177 0.4037 0.0
Co237 Co 0.81228 0.54678 0.38816 0.0
C238 C 0.80456 0.46509 0.39134 0.0
O239 O 0.82198 0.45983 0.3828 0.0
N240 N 0.81161 0.52939 0.36671 0.0
C241 C 0.82061 0.50493 0.34358 0.0
C242 C 0.8274 0.51143 0.35853 0.0
C243 C 0.79529 0.53328 0.3561 0.0
N244 N 0.80045 0.51885 0.34199 0.0
O245 O 0.78464 0.571 0.38574 0.0
H246 H 0.843 0.50264 0.36299 0.0
H247 H 0.77976 0.54623 0.35858 0.0
O248 O 0.79856 0.49866 0.39479 0.0
C249 C 0.78864 0.60254 0.37919 0.0
O250 O 0.80829 0.60855 0.37371 0.0
N251 N 0.84081 0.52958 0.39105 0.0
C252 C 0.88534 0.52431 0.39693 0.0
C253 C 0.87046 0.5027 0.40553 0.0
C254 C 0.84812 0.50617 0.40256 0.0
C255 C 0.85505 0.55201 0.38321 0.0
C256 C 0.87733 0.54915 0.38566 0.0
H257 H 0.83676 0.49136 0.40994 0.0
H258 H 0.84894 0.57281 0.37513 0.0
H259 H 0.80024 0.5215 0.42382 0.0
H260 H 0.82708 0.62736 0.43425 0.0
H261 H 0.83004 0.49164 0.33446 0.0
H262 H 0.87599 0.48401 0.41466 0.0
H263 H 0.88815 0.56751 0.37922 0.0
C264 C 0.6808 0.10016 0.62191 0.0
C265 C 0.68103 0.10352 0.60599 0.0
N266 N 0.68779 0.07065 0.59987 0.0
N267 N 0.68734 0.06534 0.62593 0.0
C268 C 0.69167 0.04794 0.61223 0.0
H269 H 0.67567 0.1215 0.6301 0.0
Co270 Co 0.68687 0.04963 0.64664 0.0
C271 C 0.6946 0.96789 0.64585 0.0
O272 O 0.67763 0.96458 0.65502 0.0
N273 N 0.6864 0.03451 0.66836 0.0
C274 C 0.676 0.01501 0.69198 0.0
C275 C 0.6695 0.02139 0.67695 0.0
C276 C 0.70308 0.03568 0.67879 0.0
N277 N 0.6971 0.0242 0.69319 0.0
O278 O 0.71459 0.07332 0.64938 0.0
H279 H 0.65335 0.01553 0.67274 0.0
H280 H 0.71942 0.04456 0.67594 0.0
O281 O 0.70049 1.00059 0.64114 0.0
C282 C 0.71109 0.10501 0.65593 0.0
O283 O 0.69146 0.11231 0.66119 0.0
N284 N 0.6584 0.03268 0.64336 0.0
C285 C 0.61398 0.02486 0.63775 0.0
C286 C 0.62904 1.00116 0.63033 0.0
C287 C 0.65134 1.00597 0.63309 0.0
C288 C 0.64402 0.05756 0.64967 0.0
C289 C 0.62177 0.05359 0.64738 0.0
H290 H 0.66281 0.98904 0.62664 0.0
H291 H 0.64999 0.08061 0.65667 0.0
H292 H 0.69667 0.01884 0.61129 0.0
H293 H 0.6764 0.12823 0.59941 0.0
H294 H 0.66582 1.00497 0.70139 0.0
H295 H 0.62364 0.97944 0.62239 0.0
H296 H 0.61077 0.07349 0.65279 0.0
C297 C 0.32032 0.98896 0.6223 0.0
C298 C 0.3202 0.98367 0.60647 0.0
N299 N 0.31138 0.0143 0.59972 0.0
N300 N 0.31165 0.02279 0.62565 0.0
C301 C 0.30614 0.03757 0.61164 0.0
H302 H 0.32679 0.9697 0.63088 0.0
Co303 Co 0.31093 0.04105 0.64603 0.0
C304 C 0.30354 0.12281 0.64198 0.0
O305 O 0.32141 0.12872 0.64992 0.0
N306 N 0.31012 0.05904 0.6674 0.0
C307 C 0.31905 0.0847 0.69031 0.0
C308 C 0.32548 0.07884 0.67523 0.0
C309 C 0.29438 0.05357 0.67835 0.0
N310 N 0.29951 0.06862 0.69235 0.0
O311 O 0.28323 0.01714 0.64846 0.0
H312 H 0.34066 0.08888 0.67048 0.0
H313 H 0.27929 0.03891 0.67621 0.0
O314 O 0.29727 0.08907 0.63918 0.0
C315 C 0.28733 0.98548 0.65487 0.0
O316 O 0.30706 0.97927 0.66017 0.0
N317 N 0.33956 0.05787 0.6432 0.0
C318 C 0.38424 0.0629 0.63787 0.0
C319 C 0.36955 0.0835 0.62869 0.0
C320 C 0.34714 0.08014 0.6314 0.0
C321 C 0.35363 0.03632 0.6516 0.0
C322 C 0.37597 0.03911 0.64943 0.0
H323 H 0.33594 0.09424 0.62366 0.0
H324 H 0.34736 0.01627 0.65994 0.0
H325 H 0.29929 0.06538 0.61015 0.0
H326 H 0.32631 0.95918 0.60039 0.0
H327 H 0.3284 0.09886 0.69922 0.0
H328 H 0.3753 0.10134 0.61933 0.0
H329 H 0.38665 0.02147 0.65632 0.0
C330 C 0.67944 0.98013 0.41238 0.0
C331 C 0.67946 0.97555 0.42826 0.0
N332 N 0.68778 1.00681 0.4348 0.0
N333 N 0.68766 0.01415 0.40881 0.0
C334 C 0.69282 0.02974 0.42272 0.0
H335 H 0.67333 0.96026 0.40393 0.0
Co336 Co 0.68821 0.03172 0.38833 0.0
C337 C 0.69523 0.11354 0.39136 0.0
O338 O 0.6778 0.11819 0.38279 0.0
N339 N 0.68889 0.04897 0.36684 0.0
C340 C 0.67996 0.07319 0.34365 0.0
C341 C 0.67304 0.06645 0.35855 0.0
C342 C 0.7054 0.04561 0.35633 0.0
N343 N 0.70029 0.05991 0.34218 0.0
O344 O 0.71603 1.00807 0.38598 0.0
H345 H 0.65732 0.07489 0.36292 0.0
H346 H 0.72105 0.03323 0.35891 0.0
O347 O 0.70158 0.08021 0.39489 0.0
C348 C 0.71236 0.9764 0.37946 0.0
O349 O 0.69279 0.96983 0.37395 0.0
N350 N 0.65954 0.04841 0.39116 0.0
C351 C 0.61498 0.05388 0.39682 0.0
C352 C 0.62978 0.07516 0.40558 0.0
C353 C 0.65213 0.07167 0.40269 0.0
C354 C 0.64534 0.02608 0.38324 0.0
C355 C 0.62302 0.02916 0.38553 0.0
H356 H 0.66343 0.08642 0.41012 0.0
H357 H 0.6515 1.00535 0.37515 0.0
H358 H 0.69924 0.05789 0.42404 0.0
H359 H 0.67359 0.95115 0.43452 0.0
H360 H 0.67056 0.08631 0.33448 0.0
H361 H 0.62415 0.09367 0.41475 0.0
H362 H 0.61218 0.01115 0.37897 0.0
C363 C 0.3193 0.09103 0.41143 0.0
C364 C 0.31892 0.09634 0.42725 0.0
N365 N 0.31069 0.06522 0.43398 0.0
N366 N 0.31137 0.05671 0.40806 0.0
C367 C 0.30603 0.04164 0.42205 0.0
H368 H 0.32551 0.11061 0.40288 0.0
Co369 Co 0.31148 0.03834 0.38767 0.0
C370 C 0.30497 0.95639 0.39167 0.0
O371 O 0.32314 0.95109 0.38398 0.0
N372 N 0.31153 0.02034 0.36629 0.0
C373 C 0.32177 0.99608 0.3434 0.0
C374 C 0.32741 1.00128 0.35868 0.0
C375 C 0.2962 0.02573 0.35505 0.0
N376 N 0.30218 0.01182 0.34099 0.0
O377 O 0.28357 0.06125 0.38486 0.0
H378 H 0.34245 0.99139 0.3637 0.0
H379 H 0.28107 0.04047 0.35695 0.0
O380 O 0.29821 0.98992 0.39436 0.0
C381 C 0.28743 0.09318 0.3786 0.0
O382 O 0.3072 0.1001 0.37353 0.0
N383 N 0.34023 0.02252 0.39094 0.0
C384 C 0.38458 0.02175 0.39808 0.0
C385 C 0.36984 0.99953 0.40656 0.0
C386 C 0.34761 1.00085 0.40299 0.0
C387 C 0.35432 0.04466 0.38283 0.0
C388 C 0.37652 0.04391 0.38587 0.0
H389 H 0.3363 0.9861 0.41043 0.0
H390 H 0.34814 0.06386 0.37412 0.0
H391 H 0.2998 0.01341 0.42354 0.0
H392 H 0.32451 0.12115 0.43335 0.0
H393 H 0.33151 0.98169 0.33476 0.0
H394 H 0.37525 0.98287 0.41638 0.0
H395 H 0.38719 0.06141 0.37893 0.0
C396 C 0.6864 0.59825 0.12123 0.0
C397 C 0.68846 0.60134 0.1054 0.0
N398 N 0.69343 0.56723 0.09952 0.0
N399 N 0.69005 0.56242 0.12553 0.0
C400 C 0.69422 0.54396 0.11205 0.0
H401 H 0.68209 0.62065 0.12917 0.0
Co402 Co 0.68753 0.54823 0.14633 0.0
C403 C 0.69691 0.46705 0.14836 0.0
O404 O 0.68039 0.46481 0.158 0.0
N405 N 0.6849 0.53529 0.16807 0.0
C406 C 0.67207 0.52213 0.19179 0.0
C407 C 0.6667 0.52814 0.17649 0.0
C408 C 0.70113 0.53341 0.17881 0.0
N409 N 0.69372 0.52571 0.1933 0.0
O410 O 0.71499 0.57204 0.15019 0.0
H411 H 0.65034 0.52695 0.17202 0.0
H412 H 0.71813 0.5378 0.1761 0.0
O413 O 0.70159 0.49882 0.14209 0.0
C414 C 0.71137 0.60355 0.15685 0.0
O415 O 0.69147 0.61131 0.16145 0.0
N416 N 0.65952 0.53098 0.14193 0.0
C417 C 0.61582 0.52525 0.13349 0.0
C418 C 0.63074 0.49696 0.12933 0.0
C419 C 0.65276 0.5008 0.13336 0.0
C420 C 0.64534 0.55907 0.14556 0.0
C421 C 0.62345 0.55648 0.14176 0.0
H422 H 0.66429 0.48044 0.12903 0.0
H423 H 0.65123 0.58386 0.1515 0.0
H424 H 0.69761 0.51414 0.11144 0.0
H425 H 0.6858 0.62673 0.09872 0.0
H426 H 0.66077 0.51665 0.2012 0.0
H427 H 0.6256 0.47293 0.12253 0.0
H428 H 0.61261 0.57894 0.14529 0.0
C429 C 0.31924 0.48558 0.12298 0.0
C430 C 0.31893 0.48092 0.10712 0.0
N431 N 0.31078 0.51239 0.1006 0.0
N432 N 0.31137 0.51984 0.12658 0.0
C433 C 0.30614 0.53554 0.11269 0.0
H434 H 0.32538 0.4656 0.1314 0.0
Co435 Co 0.3115 0.53749 0.14708 0.0
C436 C 0.30555 0.61986 0.14343 0.0
O437 O 0.32381 0.62465 0.15104 0.0
N438 N 0.31162 0.55482 0.16854 0.0
C439 C 0.32206 0.57834 0.19148 0.0
C440 C 0.32761 0.57345 0.17617 0.0
C441 C 0.29632 0.54935 0.1798 0.0
N442 N 0.30242 0.56283 0.1939 0.0
O443 O 0.28339 0.51518 0.14973 0.0
H444 H 0.34267 0.58319 0.17113 0.0
H445 H 0.28112 0.53486 0.17789 0.0
O446 O 0.29864 0.58649 0.14064 0.0
C447 C 0.28714 0.48299 0.1558 0.0
O448 O 0.3069 0.47553 0.16074 0.0
N449 N 0.34043 0.55245 0.14398 0.0
C450 C 0.38476 0.55022 0.13684 0.0
C451 C 0.37064 0.57411 0.1286 0.0
C452 C 0.34835 0.57423 0.13214 0.0
C453 C 0.35399 0.52903 0.15195 0.0
C454 C 0.37617 0.52813 0.14886 0.0
H455 H 0.3374 0.59006 0.1248 0.0
H456 H 0.34734 0.50987 0.1605 0.0
H457 H 0.3 0.5639 0.11139 0.0
H458 H 0.3245 0.45633 0.10085 0.0
H459 H 0.33189 0.59238 0.20015 0.0
H460 H 0.37654 0.59086 0.11895 0.0
H461 H 0.3864 0.50934 0.15556 0.0
C462 C 0.67839 0.48485 0.91198 0.0
C463 C 0.67982 0.47858 0.92771 0.0
N464 N 0.68962 0.50843 0.93438 0.0
N465 N 0.68719 0.51849 0.90857 0.0
C466 C 0.69395 0.53232 0.92245 0.0
H467 H 0.67098 0.46634 0.90352 0.0
Co468 Co 0.68722 0.53697 0.88822 0.0
C469 C 0.69465 0.6187 0.89204 0.0
O470 O 0.67662 0.62425 0.88423 0.0
N471 N 0.68732 0.55501 0.86682 0.0
C472 C 0.67723 0.57911 0.84386 0.0
C473 C 0.67153 0.57417 0.85914 0.0
C474 C 0.70269 0.5494 0.85562 0.0
N475 N 0.69678 0.5632 0.84153 0.0
O476 O 0.71483 0.51297 0.88532 0.0
H477 H 0.65656 0.58447 0.86413 0.0
H478 H 0.7178 0.53459 0.85754 0.0
O479 O 0.70109 0.58503 0.89489 0.0
C480 C 0.71054 0.48124 0.87906 0.0
O481 O 0.69066 0.4751 0.87405 0.0
N482 N 0.6587 0.55393 0.89159 0.0
C483 C 0.61435 0.5594 0.89801 0.0
C484 C 0.62951 0.57934 0.90699 0.0
C485 C 0.65176 0.57589 0.90369 0.0
C486 C 0.64415 0.53286 0.88341 0.0
C487 C 0.62192 0.53604 0.88608 0.0
H488 H 0.66337 0.58952 0.91124 0.0
H489 H 0.64995 0.51296 0.87484 0.0
H490 H 0.70171 0.55941 0.92378 0.0
H491 H 0.67346 0.45429 0.93377 0.0
H492 H 0.66762 0.59352 0.83515 0.0
H493 H 0.62424 0.59672 0.91663 0.0
H494 H 0.61079 0.51903 0.87931 0.0
C495 C 0.31852 0.59735 0.91284 0.0
C496 C 0.31807 0.6019 0.9287 0.0
N497 N 0.31044 0.57001 0.93518 0.0
N498 N 0.31125 0.56275 0.9092 0.0
C499 C 0.30623 0.54672 0.92307 0.0
H500 H 0.32436 0.61765 0.90445 0.0
Co501 Co 0.31188 0.54536 0.88868 0.0
C502 C 0.30447 0.46347 0.89133 0.0
O503 O 0.32231 0.45865 0.88319 0.0
N504 N 0.31252 0.52846 0.86716 0.0
C505 C 0.32352 0.50651 0.84406 0.0
C506 C 0.32903 0.51156 0.85937 0.0
C507 C 0.29697 0.53276 0.856 0.0
N508 N 0.30338 0.52023 0.8418 0.0
O509 O 0.28418 0.56891 0.88559 0.0
H510 H 0.34431 0.50266 0.86432 0.0
H511 H 0.28134 0.54569 0.85807 0.0
O512 O 0.29818 0.49686 0.89479 0.0
C513 C 0.28816 0.60073 0.87927 0.0
O514 O 0.308 0.6075 0.87431 0.0
N515 N 0.34039 0.52886 0.89229 0.0
C516 C 0.38448 0.52688 0.90014 0.0
C517 C 0.36949 0.50327 0.90771 0.0
C518 C 0.34736 0.50522 0.90382 0.0
C519 C 0.35472 0.55235 0.8851 0.0
C520 C 0.3768 0.55111 0.8885 0.0
H521 H 0.33582 0.48932 0.91064 0.0
H522 H 0.3488 0.57288 0.87682 0.0
H523 H 0.30058 0.51806 0.92433 0.0
H524 H 0.32321 0.62669 0.935 0.0
H525 H 0.33367 0.49344 0.83531 0.0
H526 H 0.37461 0.48495 0.91708 0.0
H527 H 0.38768 0.56973 0.88226 0.0
H528 H 0.23485 0.01727 0.19816 0.0
H529 H 0.254 0.01407 0.22319 0.0
H530 H 0.19445 0.04114 0.2472 0.0
H531 H 0.17537 0.04505 0.22248 0.0
H532 H 0.25788 0.07095 0.24704 0.0
H533 H 0.21523 0.94389 0.26887 0.0
H534 H 0.21517 0.95722 0.24859 0.0
H535 H 0.19756 0.98075 0.26217 0.0
C536 C 0.22583 0.02271 0.20874 0.0
C537 C 0.20341 0.03092 0.20819 0.0
C538 C 0.2368 0.02073 0.22306 0.0
C539 C 0.22556 0.02664 0.23711 0.0
C540 C 0.20336 0.03553 0.23657 0.0
H541 H 0.25874 0.02294 0.33605 0.0
H542 H 0.2402 0.02834 0.31089 0.0
C543 C 0.19243 0.03764 0.22233 0.0
C544 C 0.23696 0.02423 0.25238 0.0
H545 H 0.23715 0.97682 0.28703 0.0
C546 C 0.25347 0.05022 0.25575 0.0
C547 C 0.23105 0.99739 0.2638 0.0
C548 C 0.21392 0.96798 0.26069 0.0
C549 C 0.26394 0.05055 0.27032 0.0
C550 C 0.2581 0.02358 0.28174 0.0
C551 C 0.24159 0.99758 0.27834 0.0
C552 C 0.26937 0.02114 0.29708 0.0
C553 C 0.28077 0.08046 0.27346 0.0
C554 C 0.29188 0.01489 0.29776 0.0
C555 C 0.30253 0.01208 0.31209 0.0
C556 C 0.29093 0.01498 0.32621 0.0
C557 C 0.26829 0.02097 0.3255 0.0
C558 C 0.25763 0.02385 0.3111 0.0
H559 H 0.27861 0.10517 0.26569 0.0
H560 H 0.28004 0.09017 0.28573 0.0
H561 H 0.29721 0.06868 0.27127 0.0
H562 H 0.30127 0.01188 0.28716 0.0
H563 H 0.31996 1.00796 0.31202 0.0
H564 H 0.77175 0.01234 0.20159 0.0
H565 H 0.75352 0.01205 0.227 0.0
H566 H 0.79723 0.09848 0.24317 0.0
H567 H 0.81577 0.09797 0.21798 0.0
H568 H 0.79381 0.04538 0.26437 0.0
H569 H 0.71068 0.08412 0.24527 0.0
H570 H 0.72072 0.04251 0.23591 0.0
H571 H 0.73386 0.08697 0.23246 0.0
C572 C 0.77719 0.03167 0.2105 0.0
C573 C 0.79514 0.05527 0.20777 0.0
C574 C 0.76675 0.03156 0.22504 0.0
C575 C 0.77376 0.05561 0.23703 0.0
C576 C 0.79148 0.07959 0.23418 0.0
H577 H 0.70107 0.11372 0.32002 0.0
H578 H 0.71992 0.11159 0.29499 0.0
C579 C 0.80207 0.07934 0.21976 0.0
C580 C 0.76328 0.05511 0.25274 0.0
H581 H 0.71459 0.06495 0.27158 0.0
C582 C 0.77648 0.04977 0.26593 0.0
C583 C 0.74069 0.06118 0.25488 0.0
C584 C 0.72569 0.06939 0.2414 0.0
C585 C 0.76782 0.05045 0.2811 0.0
C586 C 0.74515 0.05555 0.28321 0.0
C587 C 0.73194 0.06075 0.27002 0.0
C588 C 0.73481 0.05723 0.29895 0.0
C589 C 0.7832 0.04692 0.2947 0.0
C590 C 0.737 0.02759 0.30972 0.0
C591 C 0.72641 0.02906 0.3242 0.0
C592 C 0.71307 0.05982 0.32806 0.0
C593 C 0.7111 0.08952 0.31734 0.0
C594 C 0.72187 0.08829 0.30301 0.0
H595 H 0.80016 0.05417 0.29136 0.0
H596 H 0.77817 0.06542 0.30447 0.0
H597 H 0.78319 0.0174 0.29889 0.0
H598 H 0.74642 1.00286 0.30679 0.0
H599 H 0.72794 1.0055 0.33211 0.0
H600 H 0.29918 0.11986 0.7156 0.0
H601 H 0.282 0.11387 0.7411 0.0
H602 H 0.25594 1.00596 0.72789 0.0
H603 H 0.27305 0.01204 0.70216 0.0
H604 H 0.22611 0.04788 0.74349 0.0
H605 H 0.30342 0.04852 0.77639 0.0
H606 H 0.30069 0.08916 0.76417 0.0
H607 H 0.30249 0.04315 0.75552 0.0
C608 C 0.28986 0.09478 0.71812 0.0
C609 C 0.2877 0.06625 0.70688 0.0
C610 C 0.28011 0.09129 0.73276 0.0
C611 C 0.26817 0.05898 0.73663 0.0
C612 C 0.26527 0.031 0.72525 0.0
H613 H 0.22902 1.00977 0.83323 0.0
H614 H 0.24686 1.00794 0.80763 0.0
C615 C 0.27494 0.03459 0.71051 0.0
C616 C 0.25853 0.0549 0.75249 0.0
H617 H 0.27096 0.05864 0.79128 0.0
C618 C 0.23596 0.04992 0.75393 0.0
C619 C 0.27136 0.05675 0.76617 0.0
C620 C 0.29585 0.05928 0.76552 0.0
C621 C 0.22581 0.04826 0.7686 0.0
C622 C 0.23849 0.05254 0.78226 0.0
C623 C 0.26116 0.05597 0.78084 0.0
C624 C 0.22845 0.05445 0.79806 0.0
C625 C 0.20158 0.04165 0.76929 0.0
C626 C 0.21273 0.08195 0.80142 0.0
C627 C 0.20258 0.08301 0.81598 0.0
C628 C 0.20806 0.05689 0.82765 0.0
C629 C 0.22451 0.03039 0.82454 0.0
C630 C 0.23461 0.02919 0.80988 0.0
H631 H 0.19561 0.02735 0.75863 0.0
H632 H 0.19708 0.02435 0.77956 0.0
H633 H 0.1931 0.06912 0.77018 0.0
H634 H 0.20819 0.10255 0.79272 0.0
H635 H 0.19031 0.10425 0.81809 0.0
H636 H 0.7283 0.07368 0.70214 0.0
H637 H 0.74683 0.07571 0.72745 0.0
H638 H 0.71305 0.97494 0.7415 0.0
H639 H 0.69423 0.97348 0.71648 0.0
H640 H 0.71084 0.02587 0.7638 0.0
H641 H 0.79659 0.01519 0.74425 0.0
H642 H 0.7823 0.05415 0.73578 0.0
H643 H 0.77399 1.00684 0.73133 0.0
C644 C 0.72517 0.05165 0.71055 0.0
C645 C 0.70982 0.02342 0.70732 0.0
C646 C 0.73577 0.05277 0.72502 0.0
C647 C 0.73155 0.02525 0.73642 0.0
C648 C 0.71658 0.99659 0.733 0.0
H649 H 0.80821 0.97634 0.81854 0.0
H650 H 0.78987 0.97719 0.79331 0.0
C651 C 0.70583 0.99574 0.71867 0.0
C652 C 0.74188 0.02681 0.75214 0.0
H653 H 0.79083 0.02838 0.77099 0.0
C654 C 0.72835 0.02636 0.76536 0.0
C655 C 0.76472 0.0271 0.75425 0.0
C656 C 0.78027 0.02547 0.74066 0.0
C657 C 0.73696 0.02596 0.78053 0.0
C658 C 0.7598 0.02711 0.78265 0.0
C659 C 0.77332 0.02777 0.76943 0.0
C660 C 0.77011 0.02609 0.79839 0.0
C661 C 0.72145 0.02302 0.7941 0.0
C662 C 0.76508 0.05311 0.80981 0.0
C663 C 0.7754 0.05232 0.82438 0.0
C664 C 0.79127 0.02496 0.82771 0.0
C665 C 0.79617 0.99791 0.81629 0.0
C666 C 0.7857 0.99841 0.80185 0.0
H667 H 0.70541 0.01159 0.79048 0.0
H668 H 0.72817 1.00473 0.80341 0.0
H669 H 0.71867 0.05145 0.79903 0.0
H670 H 0.75355 0.07535 0.80736 0.0
H671 H 0.77157 0.07392 0.83283 0.0
H672 H 0.17669 0.54425 0.72292 0.0
H673 H 0.19592 0.54244 0.74764 0.0
H674 H 0.25635 0.52266 0.72351 0.0
H675 H 0.23707 0.52391 0.69851 0.0
H676 H 0.22039 0.48324 0.76032 0.0
H677 H 0.27065 0.61165 0.75247 0.0
H678 H 0.24736 0.60146 0.74039 0.0
H679 H 0.2727 0.57754 0.7371 0.0
C680 C 0.19403 0.53915 0.72275 0.0
C681 C 0.20523 0.53393 0.70859 0.0
C682 C 0.20505 0.53837 0.73697 0.0
C683 C 0.2276 0.53273 0.73748 0.0
C684 C 0.23897 0.52769 0.72341 0.0
H685 H 0.32107 0.51886 0.81277 0.0
H686 H 0.30212 0.52109 0.78797 0.0
C687 C 0.22791 0.5284 0.70911 0.0
C688 C 0.23892 0.53127 0.75281 0.0
H689 H 0.27723 0.57543 0.77507 0.0
C690 C 0.2328 0.50344 0.76357 0.0
C691 C 0.25509 0.55764 0.75705 0.0
C692 C 0.26178 0.589 0.74623 0.0
C693 C 0.24264 0.50083 0.77832 0.0
C694 C 0.25874 0.52733 0.78262 0.0
C695 C 0.26486 0.55517 0.77184 0.0
C696 C 0.26998 0.52596 0.79801 0.0
C697 C 0.23609 0.46904 0.78897 0.0
C698 C 0.25831 0.52838 0.81207 0.0
C699 C 0.26916 0.52658 0.82644 0.0
C700 C 0.29194 0.52259 0.82706 0.0
C701 C 0.30352 0.52101 0.8129 0.0
C702 C 0.2927 0.52267 0.79861 0.0
H703 H 0.22812 0.44581 0.78249 0.0
H704 H 0.2504 0.45751 0.79526 0.0
H705 H 0.22431 0.47971 0.79772 0.0
H706 H 0.24081 0.53179 0.81195 0.0
H707 H 0.25963 0.52791 0.83702 0.0
H708 H 0.8225 0.55078 0.72163 0.0
H709 H 0.80381 0.54943 0.74661 0.0
H710 H 0.74196 0.55682 0.72317 0.0
H711 H 0.76068 0.55835 0.69793 0.0
H712 H 0.77723 0.60325 0.75943 0.0
H713 H 0.73251 0.46865 0.75287 0.0
H714 H 0.7545 0.48206 0.74009 0.0
H715 H 0.72784 0.50194 0.7375 0.0
C716 C 0.80492 0.55234 0.7217 0.0
C717 C 0.79314 0.55497 0.70768 0.0
C718 C 0.79423 0.55134 0.73606 0.0
C719 C 0.77146 0.55268 0.73683 0.0
C720 C 0.75954 0.55501 0.72289 0.0
H721 H 0.67882 0.56314 0.81268 0.0
H722 H 0.69761 0.56046 0.78774 0.0
C723 C 0.77027 0.55595 0.70845 0.0
C724 C 0.76046 0.553 0.75231 0.0
H725 H 0.72417 0.50534 0.77515 0.0
C726 C 0.76569 0.58174 0.76289 0.0
C727 C 0.74543 0.52492 0.75686 0.0
C728 C 0.73983 0.49242 0.74631 0.0
C729 C 0.75604 0.58359 0.77772 0.0
C730 C 0.74099 0.55555 0.78227 0.0
C731 C 0.73576 0.52677 0.7717 0.0
C732 C 0.72983 0.55642 0.79768 0.0
C733 C 0.76162 0.61616 0.78824 0.0
C734 C 0.74163 0.55448 0.81169 0.0
C735 C 0.73087 0.55632 0.82609 0.0
C736 C 0.70809 0.56011 0.82678 0.0
C737 C 0.69638 0.56113 0.81269 0.0
C738 C 0.7071 0.55924 0.79836 0.0
H739 H 0.76921 0.63972 0.78171 0.0
H740 H 0.74688 0.62687 0.79428 0.0
H741 H 0.77336 0.60658 0.79721 0.0
H742 H 0.75916 0.55158 0.81148 0.0
H743 H 0.74043 0.55543 0.83666 0.0
H744 H 0.32038 0.56533 0.2228 0.0
H745 H 0.30176 0.56119 0.24774 0.0
H746 H 0.24041 0.54804 0.22414 0.0
H747 H 0.25893 0.55271 0.19894 0.0
H748 H 0.26881 0.60769 0.2596 0.0
H749 H 0.24117 0.45945 0.25503 0.0
H750 H 0.2618 0.47895 0.24243 0.0
H751 H 0.23357 0.48914 0.239 0.0
C752 C 0.3029 0.56191 0.22279 0.0
C753 C 0.29122 0.5596 0.2087 0.0
C754 C 0.29228 0.5593 0.23714 0.0
C755 C 0.26972 0.55394 0.23787 0.0
C756 C 0.2579 0.55151 0.22389 0.0
H757 H 0.1765 0.53389 0.3129 0.0
H758 H 0.19578 0.53698 0.28822 0.0
C759 C 0.26854 0.5542 0.20946 0.0
C760 C 0.25867 0.55182 0.25329 0.0
H761 H 0.2286 0.49414 0.27676 0.0
C762 C 0.26006 0.58282 0.26338 0.0
C763 C 0.2473 0.51936 0.25824 0.0
C764 C 0.24596 0.48465 0.2482 0.0
C765 C 0.25003 0.58258 0.27811 0.0
C766 C 0.23866 0.55008 0.28309 0.0
C767 C 0.23735 0.51902 0.273 0.0
C768 C 0.22726 0.54823 0.29841 0.0
C769 C 0.25117 0.61756 0.28801 0.0
C770 C 0.23851 0.55305 0.31252 0.0
C771 C 0.2274 0.55175 0.32681 0.0
C772 C 0.2048 0.5454 0.32729 0.0
C773 C 0.19376 0.53976 0.3131 0.0
C774 C 0.20483 0.54115 0.29889 0.0
H775 H 0.25548 0.64276 0.28101 0.0
H776 H 0.23543 0.62288 0.29396 0.0
H777 H 0.26389 0.61381 0.29704 0.0
H778 H 0.25592 0.55773 0.31251 0.0
H779 H 0.23648 0.5562 0.33743 0.0
H780 H 0.68557 0.48126 0.21813 0.0
H781 H 0.70378 0.48242 0.2434 0.0
H782 H 0.74695 0.56921 0.22679 0.0
H783 H 0.72899 0.56742 0.20128 0.0
H784 H 0.76882 0.51941 0.24362 0.0
H785 H 0.69528 0.55963 0.27673 0.0
H786 H 0.69118 0.5169 0.26607 0.0
H787 H 0.69612 0.56018 0.25574 0.0
C788 C 0.69894 0.50059 0.21987 0.0
C789 C 0.70573 0.52444 0.20774 0.0
C790 C 0.70926 0.50145 0.23437 0.0
C791 C 0.72635 0.52671 0.23723 0.0
C792 C 0.73366 0.54971 0.22496 0.0
H793 H 0.77324 0.57408 0.33202 0.0
H794 H 0.75535 0.57803 0.30649 0.0
C795 C 0.72348 0.54854 0.21035 0.0
C796 C 0.73673 0.5286 0.25293 0.0
H797 H 0.72543 0.53726 0.29177 0.0
C798 C 0.75933 0.5236 0.25413 0.0
C799 C 0.7245 0.53492 0.26669 0.0
C800 C 0.70047 0.54363 0.26625 0.0
C801 C 0.76989 0.52346 0.26865 0.0
C802 C 0.75746 0.5273 0.28248 0.0
C803 C 0.73497 0.53364 0.28125 0.0
C804 C 0.76746 0.52437 0.29827 0.0
C805 C 0.79435 0.51974 0.26897 0.0
C806 C 0.7796 0.49242 0.30242 0.0
C807 C 0.7899 0.4903 0.3169 0.0
C808 C 0.78798 0.51973 0.32775 0.0
C809 C 0.77493 0.5509 0.32394 0.0
C810 C 0.7648 0.55323 0.30932 0.0
H811 H 0.80176 0.52953 0.25788 0.0
H812 H 0.80154 0.53609 0.27869 0.0
H813 H 0.79877 0.48971 0.2705 0.0
H814 H 0.78127 0.46913 0.29439 0.0
H815 H 0.7995 0.46561 0.31961 0.0
H816 H 0.21969 0.15736 0.18084 0.0
H817 H 0.23466 0.22084 0.1784 0.0
H818 H 0.24868 0.20034 0.12997 0.0
H819 H 0.23396 0.13623 0.13247 0.0
H820 H 0.27809 0.25103 0.16391 0.0
H821 H 0.20061 0.28994 0.13424 0.0
H822 H 0.20245 0.24919 0.14674 0.0
H823 H 0.21519 0.2486 0.12798 0.0
C824 C 0.22686 0.16584 0.16986 0.0
C825 C 0.22599 0.14181 0.15691 0.0
C826 C 0.23521 0.20218 0.16844 0.0
C827 C 0.24248 0.21538 0.15397 0.0
C828 C 0.24307 0.19062 0.14123 0.0
H829 H 0.26962 0.45078 0.13003 0.0
H830 H 0.25731 0.38513 0.12849 0.0
C831 C 0.23497 0.15389 0.14271 0.0
C832 C 0.24741 0.25595 0.15211 0.0
H833 H 0.22461 0.33913 0.14048 0.0
C834 C 0.26654 0.27029 0.15865 0.0
C835 C 0.23229 0.28092 0.1452 0.0
C836 C 0.21139 0.26669 0.13815 0.0
C837 C 0.27086 0.30908 0.15865 0.0
C838 C 0.25524 0.33436 0.15243 0.0
C839 C 0.23641 0.31985 0.14541 0.0
C840 C 0.25821 0.37584 0.15338 0.0
C841 C 0.29222 0.32256 0.16526 0.0
C842 C 0.26125 0.39315 0.1679 0.0
C843 C 0.26824 0.43047 0.16877 0.0
C844 C 0.27173 0.45145 0.15516 0.0
C845 C 0.26648 0.43545 0.1407 0.0
C846 C 0.25976 0.3978 0.13981 0.0
H847 H 0.30471 0.29996 0.16511 0.0
H848 H 0.29856 0.34707 0.15866 0.0
H849 H 0.28978 0.33121 0.17755 0.0
H850 H 0.25958 0.37708 0.17855 0.0
H851 H 0.27253 0.44203 0.18002 0.0
H852 H 0.73314 0.63244 0.13202 0.0
H853 H 0.74815 0.69648 0.13054 0.0
H854 H 0.73803 0.71007 0.17988 0.0
H855 H 0.72266 0.64667 0.1813 0.0
H856 H 0.7189 0.76041 0.14227 0.0
H857 H 0.80078 0.75509 0.16963 0.0
H858 H 0.78862 0.71484 0.16018 0.0
H859 H 0.77954 0.7289 0.17916 0.0
C860 C 0.73513 0.64851 0.14264 0.0
C861 C 0.72715 0.63456 0.15683 0.0
C862 C 0.7434 0.6852 0.14175 0.0
C863 C 0.74418 0.70793 0.15511 0.0
C864 C 0.73776 0.69285 0.16948 0.0
H865 H 0.77732 0.93264 0.18179 0.0
H866 H 0.76311 0.86852 0.1805 0.0
C867 C 0.72916 0.65658 0.17031 0.0
C868 C 0.74911 0.74862 0.15394 0.0
H869 H 0.78516 0.8153 0.16597 0.0
C870 C 0.73349 0.77254 0.14727 0.0
C871 C 0.768 0.76419 0.16065 0.0
C872 C 0.78534 0.73954 0.16774 0.0
C873 C 0.73592 0.81188 0.14762 0.0
C874 C 0.75474 0.82759 0.15452 0.0
C875 C 0.77061 0.80341 0.16082 0.0
C876 C 0.75852 0.8689 0.15552 0.0
C877 C 0.7179 0.83615 0.14118 0.0
C878 C 0.75951 0.89134 0.14204 0.0
C879 C 0.76699 0.92853 0.14288 0.0
C880 C 0.77398 0.94346 0.15714 0.0
C881 C 0.77161 0.92193 0.17072 0.0
C882 C 0.76378 0.88513 0.16994 0.0
H883 H 0.70222 0.82068 0.14068 0.0
H884 H 0.71559 0.8619 0.1483 0.0
H885 H 0.72215 0.84481 0.12915 0.0
H886 H 0.75602 0.87937 0.13074 0.0
H887 H 0.76933 0.9442 0.13219 0.0
H888 H 0.22406 0.93052 0.85439 0.0
H889 H 0.23706 0.86565 0.85636 0.0
H890 H 0.2432 0.87804 0.90609 0.0
H891 H 0.23083 0.94363 0.90403 0.0
H892 H 0.27501 0.83095 0.89348 0.0
H893 H 0.19315 0.78982 0.87274 0.0
H894 H 0.20697 0.82004 0.85927 0.0
H895 H 0.19971 0.83742 0.87825 0.0
C896 C 0.22914 0.91988 0.86564 0.0
C897 C 0.2267 0.94207 0.87903 0.0
C898 C 0.23619 0.88264 0.8668 0.0
C899 C 0.24035 0.86659 0.88143 0.0
C900 C 0.23985 0.88973 0.8947 0.0
H901 H 0.26578 0.62809 0.90425 0.0
H902 H 0.25118 0.69242 0.90648 0.0
C903 C 0.23308 0.92733 0.8935 0.0
C904 C 0.24348 0.82522 0.88288 0.0
H905 H 0.21999 0.74103 0.87342 0.0
C906 C 0.26287 0.81129 0.8893 0.0
C907 C 0.22745 0.79946 0.87765 0.0
C908 C 0.20556 0.8124 0.87175 0.0
C909 C 0.26713 0.77241 0.88983 0.0
C910 C 0.25156 0.74692 0.88386 0.0
C911 C 0.23188 0.7607 0.87796 0.0
C912 C 0.25651 0.7063 0.88226 0.0
C913 C 0.28857 0.75871 0.89621 0.0
C914 C 0.26329 0.69244 0.86778 0.0
C915 C 0.27156 0.65599 0.86651 0.0
C916 C 0.27283 0.63253 0.87963 0.0
C917 C 0.26441 0.64531 0.89388 0.0
C918 C 0.25638 0.68214 0.89521 0.0
H919 H 0.29942 0.78224 0.89967 0.0
H920 H 0.28562 0.74066 0.90653 0.0
H921 H 0.29706 0.74129 0.88736 0.0
H922 H 0.26349 0.71065 0.85766 0.0
H923 H 0.27833 0.64696 0.85547 0.0
H924 H 0.72277 0.43786 0.85489 0.0
H925 H 0.73555 0.37282 0.85662 0.0
H926 H 0.74158 0.38401 0.90641 0.0
H927 H 0.72942 0.44978 0.90459 0.0
H928 H 0.7734 0.33728 0.8937 0.0
H929 H 0.69171 0.29645 0.87254 0.0
H930 H 0.70557 0.32701 0.85921 0.0
H931 H 0.69821 0.34395 0.87825 0.0
C932 C 0.72777 0.42691 0.86611 0.0
C933 C 0.72541 0.44884 0.87957 0.0
C934 C 0.73469 0.38957 0.86713 0.0
C935 C 0.73879 0.37315 0.88171 0.0
C936 C 0.73829 0.39598 0.89506 0.0
H937 H 0.76495 0.13435 0.90344 0.0
H938 H 0.75017 0.19845 0.90599 0.0
C939 C 0.73165 0.43368 0.894 0.0
C940 C 0.74194 0.33174 0.88297 0.0
H941 H 0.71864 0.24775 0.873 0.0
C942 C 0.76132 0.31769 0.88937 0.0
C943 C 0.72599 0.30607 0.87755 0.0
C944 C 0.7041 0.31909 0.87166 0.0
C945 C 0.76563 0.27882 0.88971 0.0
C946 C 0.75014 0.25344 0.88356 0.0
C947 C 0.73047 0.26732 0.87768 0.0
C948 C 0.75514 0.21287 0.88178 0.0
C949 C 0.78707 0.26504 0.89608 0.0
C950 C 0.76177 0.19936 0.86721 0.0
C951 C 0.77016 0.16301 0.86575 0.0
C952 C 0.7717 0.13933 0.87879 0.0
C953 C 0.76339 0.15174 0.89314 0.0
C954 C 0.75526 0.18846 0.89465 0.0
H955 H 0.79792 0.28852 0.89958 0.0
H956 H 0.78409 0.24692 0.90638 0.0
H957 H 0.79556 0.24767 0.88721 0.0
H958 H 0.76178 0.21776 0.85715 0.0
H959 H 0.7768 0.15427 0.85464 0.0
H960 H 0.76184 0.96276 0.89996 0.0
H961 H 0.74278 0.90295 0.90491 0.0
H962 H 0.80191 0.84192 0.8953 0.0
H963 H 0.82084 0.9008 0.89039 0.0
H964 H 0.73897 0.84441 0.88223 0.0
H965 H 0.77987 0.79152 0.93539 0.0
H966 H 0.78073 0.84036 0.9296 0.0
H967 H 0.79829 0.80655 0.9204 0.0
C968 C 0.77082 0.9366 0.8992 0.0
C969 C 0.79282 0.93658 0.89472 0.0
C970 C 0.75993 0.90246 0.902 0.0
C971 C 0.77099 0.8679 0.90067 0.0
C972 C 0.79311 0.8681 0.8967 0.0
H973 H 0.73905 0.62939 0.89402 0.0
H974 H 0.75779 0.69011 0.89753 0.0
C975 C 0.80386 0.90194 0.89376 0.0
C976 C 0.75925 0.83138 0.9019 0.0
H977 H 0.75931 0.74661 0.92082 0.0
C978 C 0.74319 0.82323 0.89081 0.0
C979 C 0.76504 0.80346 0.91292 0.0
C980 C 0.7818 0.81093 0.92535 0.0
C981 C 0.73319 0.78773 0.89017 0.0
C982 C 0.73894 0.75973 0.90119 0.0
C983 C 0.75489 0.76796 0.91238 0.0
C984 C 0.72824 0.7221 0.90126 0.0
C985 C 0.71707 0.78017 0.87729 0.0
C986 C 0.7056 0.71955 0.90296 0.0
C987 C 0.69499 0.68525 0.90084 0.0
C988 C 0.70676 0.65242 0.89729 0.0
C989 C 0.72959 0.65421 0.89681 0.0
C990 C 0.74027 0.6889 0.89874 0.0
H991 H 0.71912 0.8001 0.86743 0.0
H992 H 0.71876 0.75105 0.87278 0.0
H993 H 0.70031 0.78365 0.88188 0.0
H994 H 0.69601 0.74447 0.90534 0.0
H995 H 0.67738 0.68468 0.90148 0.0
H996 H 0.26059 0.45581 0.89743 0.0
H997 H 0.24072 0.39647 0.90163 0.0
H998 H 0.30122 0.33516 0.90006 0.0
H999 H 0.32095 0.39368 0.89586 0.0
H1000 H 0.24261 0.33556 0.87958 0.0
H1001 H 0.26987 0.2887 0.93797 0.0
H1002 H 0.27182 0.33702 0.93158 0.0
H1003 H 0.29151 0.30295 0.9252 0.0
C1004 C 0.26963 0.42974 0.89836 0.0
C1005 C 0.29231 0.42942 0.89625 0.0
C1006 C 0.25829 0.39587 0.9007 0.0
C1007 C 0.26951 0.36135 0.90133 0.0
C1008 C 0.29222 0.36137 0.8999 0.0
H1009 H 0.23836 0.12183 0.89647 0.0
H1010 H 0.2565 0.18295 0.9004 0.0
C1011 C 0.30347 0.39493 0.89738 0.0
C1012 C 0.25763 0.32489 0.90174 0.0
H1013 H 0.25276 0.24239 0.92199 0.0
C1014 C 0.24458 0.3154 0.88895 0.0
C1015 C 0.26056 0.29829 0.91383 0.0
C1016 C 0.27405 0.30726 0.928 0.0
C1017 C 0.23481 0.2798 0.88772 0.0
C1018 C 0.23763 0.25315 0.89985 0.0
C1019 C 0.25059 0.26271 0.91271 0.0
C1020 C 0.22679 0.21566 0.89937 0.0
C1021 C 0.22216 0.27069 0.87315 0.0
C1022 C 0.20408 0.21353 0.89818 0.0
C1023 C 0.19384 0.17901 0.89579 0.0
C1024 C 0.20598 0.14553 0.89483 0.0
C1025 C 0.2286 0.14716 0.89715 0.0
C1026 C 0.23895 0.18205 0.89935 0.0
H1027 H 0.22689 0.28923 0.8633 0.0
H1028 H 0.22467 0.24099 0.86958 0.0
H1029 H 0.20455 0.27503 0.87539 0.0
H1030 H 0.19426 0.23883 0.89863 0.0
H1031 H 0.17633 0.17867 0.89433 0.0
H1032 H 0.69682 0.40266 0.16515 0.0
H1033 H 0.71492 0.34353 0.15954 0.0
H1034 H 0.74215 0.39104 0.11764 0.0
H1035 H 0.72423 0.45147 0.12346 0.0
H1036 H 0.71006 0.29621 0.13539 0.0
H1037 H 0.79567 0.3466 0.13804 0.0
H1038 H 0.77315 0.37507 0.14457 0.0
H1039 H 0.77838 0.3696 0.12412 0.0
C1040 C 0.7067 0.40081 0.15473 0.0
C1041 C 0.70908 0.43195 0.14476 0.0
C1042 C 0.71703 0.36676 0.15151 0.0
C1043 C 0.73 0.36261 0.1382 0.0
C1044 C 0.73251 0.39362 0.12813 0.0
H1045 H 0.77574 0.12629 0.12396 0.0
H1046 H 0.75774 0.1866 0.11804 0.0
C1047 C 0.72224 0.42814 0.13144 0.0
C1048 C 0.74069 0.32553 0.13528 0.0
H1049 H 0.79025 0.28189 0.13474 0.0
C1050 C 0.72761 0.29307 0.13502 0.0
C1051 C 0.76359 0.32137 0.13482 0.0
C1052 C 0.7786 0.35489 0.13551 0.0
C1053 C 0.73673 0.25673 0.13524 0.0
C1054 C 0.75963 0.25258 0.13532 0.0
C1055 C 0.77269 0.28503 0.13466 0.0
C1056 C 0.77039 0.2156 0.13828 0.0
C1057 C 0.72175 0.22324 0.13638 0.0
C1058 C 0.78368 0.2118 0.15144 0.0
C1059 C 0.79403 0.17781 0.15472 0.0
C1060 C 0.79139 0.14637 0.14496 0.0
C1061 C 0.77794 0.14986 0.13178 0.0
C1062 C 0.76763 0.18431 0.12841 0.0
H1063 H 0.70475 0.2316 0.13912 0.0
H1064 H 0.72166 0.2081 0.1251 0.0
H1065 H 0.72746 0.2034 0.14549 0.0
H1066 H 0.78599 0.23527 0.15931 0.0
H1067 H 0.80413 0.17625 0.16502 0.0
H1068 H 0.18138 0.90192 0.15204 0.0
H1069 H 0.20061 0.8433 0.14697 0.0
H1070 H 0.2553 0.90541 0.12897 0.0
H1071 H 0.23595 0.96494 0.134 0.0
H1072 H 0.21991 0.81333 0.11821 0.0
H1073 H 0.27957 0.83921 0.16575 0.0
H1074 H 0.25419 0.86463 0.16442 0.0
H1075 H 0.27616 0.87576 0.15146 0.0
C1076 C 0.19747 0.90335 0.14692 0.0
C1077 C 0.20722 0.93829 0.14358 0.0
C1078 C 0.20839 0.86965 0.14396 0.0
C1079 C 0.22944 0.86989 0.13772 0.0
C1080 C 0.2391 0.9046 0.13392 0.0
H1081 H 0.32279 0.68654 0.13475 0.0
H1082 H 0.30407 0.7463 0.13097 0.0
C1083 C 0.22802 0.93856 0.13675 0.0
C1084 C 0.24142 0.83369 0.13607 0.0
H1085 H 0.28227 0.78196 0.15241 0.0
C1086 C 0.23369 0.80651 0.12557 0.0
C1087 C 0.25926 0.82473 0.14575 0.0
C1088 C 0.26781 0.85239 0.15758 0.0
C1089 C 0.24344 0.7707 0.12443 0.0
C1090 C 0.26102 0.76142 0.13438 0.0
C1091 C 0.26883 0.78889 0.14475 0.0
C1092 C 0.27175 0.72365 0.13439 0.0
C1093 C 0.23498 0.74347 0.11243 0.0
C1094 C 0.25987 0.69038 0.13711 0.0
C1095 C 0.27063 0.65573 0.139 0.0
C1096 C 0.29346 0.65399 0.13854 0.0
C1097 C 0.30518 0.68699 0.13524 0.0
C1098 C 0.29448 0.72127 0.13311 0.0
H1099 H 0.22658 0.75835 0.10277 0.0
H1100 H 0.24833 0.72616 0.10747 0.0
H1101 H 0.22301 0.72437 0.11799 0.0
H1102 H 0.24238 0.6914 0.13851 0.0
H1103 H 0.26121 0.63086 0.14174 0.0
H1104 H 0.22114 0.65975 0.68085 0.0
H1105 H 0.23619 0.72308 0.67804 0.0
H1106 H 0.24939 0.70147 0.62959 0.0
H1107 H 0.2346 0.6375 0.63244 0.0
H1108 H 0.2795 0.75272 0.66294 0.0
H1109 H 0.20136 0.79135 0.6341 0.0
H1110 H 0.20339 0.75094 0.64677 0.0
H1111 H 0.21573 0.74975 0.62788 0.0
C1112 C 0.22814 0.66795 0.66977 0.0
C1113 C 0.22698 0.64368 0.65691 0.0
C1114 C 0.23654 0.70421 0.66815 0.0
C1115 C 0.2436 0.71705 0.65357 0.0
C1116 C 0.24393 0.69202 0.64092 0.0
H1117 H 0.26966 0.95278 0.62922 0.0
H1118 H 0.2577 0.88691 0.62774 0.0
C1119 C 0.23579 0.65537 0.64261 0.0
C1120 C 0.24853 0.75755 0.65153 0.0
H1121 H 0.22542 0.84062 0.64008 0.0
C1122 C 0.26782 0.77193 0.65779 0.0
C1123 C 0.23324 0.78246 0.64477 0.0
C1124 C 0.21218 0.76815 0.638 0.0
C1125 C 0.27213 0.81073 0.65769 0.0
C1126 C 0.25635 0.83594 0.65165 0.0
C1127 C 0.23737 0.82138 0.64488 0.0
C1128 C 0.25927 0.87743 0.6526 0.0
C1129 C 0.29364 0.82427 0.66403 0.0
C1130 C 0.26259 0.89466 0.66711 0.0
C1131 C 0.26939 0.93207 0.66794 0.0
C1132 C 0.27241 0.95323 0.65432 0.0
C1133 C 0.26692 0.93728 0.6399 0.0
C1134 C 0.26038 0.89952 0.63904 0.0
H1135 H 0.30616 0.80172 0.66369 0.0
H1136 H 0.29978 0.84884 0.65736 0.0
H1137 H 0.29151 0.83284 0.67635 0.0
H1138 H 0.26124 0.87849 0.67775 0.0
H1139 H 0.27383 0.94365 0.67916 0.0
H1140 H 0.76954 0.44657 0.63038 0.0
H1141 H 0.75644 0.38158 0.62863 0.0
H1142 H 0.76345 0.36957 0.67835 0.0
H1143 H 0.77739 0.43383 0.67994 0.0
H1144 H 0.78545 0.31649 0.66355 0.0
H1145 H 0.70239 0.32302 0.63843 0.0
H1146 H 0.72245 0.34727 0.62705 0.0
H1147 H 0.71586 0.36393 0.64625 0.0
C1148 C 0.76724 0.43056 0.64099 0.0
C1149 C 0.77405 0.44528 0.65534 0.0
C1150 C 0.75988 0.39329 0.63999 0.0
C1151 C 0.75889 0.37052 0.65337 0.0
C1152 C 0.76411 0.38643 0.66786 0.0
H1153 H 0.72338 0.1488 0.67993 0.0
H1154 H 0.73874 0.21213 0.67799 0.0
C1155 C 0.77179 0.42331 0.66881 0.0
C1156 C 0.755 0.32923 0.65223 0.0
H1157 H 0.71867 0.26256 0.64021 0.0
C1158 C 0.7708 0.3048 0.65845 0.0
C1159 C 0.73605 0.31378 0.64541 0.0
C1160 C 0.71812 0.33833 0.63903 0.0
C1161 C 0.76798 0.26562 0.65831 0.0
C1162 C 0.74892 0.2503 0.65176 0.0
C1163 C 0.73339 0.27447 0.64511 0.0
C1164 C 0.74371 0.20969 0.65309 0.0
C1165 C 0.7853 0.24076 0.66532 0.0
C1166 C 0.7422 0.18681 0.63981 0.0
C1167 C 0.73392 0.15015 0.64097 0.0
C1168 C 0.72667 0.13635 0.65539 0.0
C1169 C 0.72932 0.15857 0.66875 0.0
C1170 C 0.73792 0.19482 0.66763 0.0
H1171 H 0.80096 0.25593 0.6668 0.0
H1172 H 0.77981 0.23096 0.67694 0.0
H1173 H 0.78808 0.21557 0.65794 0.0
H1174 H 0.74645 0.19792 0.62846 0.0
H1175 H 0.73141 0.13395 0.63045 0.0
H1176 H 0.21973 0.42073 0.354 0.0
H1177 H 0.23283 0.35595 0.3559 0.0
H1178 H 0.24486 0.37149 0.40492 0.0
H1179 H 0.23236 0.43702 0.40289 0.0
H1180 H 0.27517 0.32354 0.39071 0.0
H1181 H 0.191 0.28132 0.37589 0.0
H1182 H 0.203 0.31086 0.3613 0.0
H1183 H 0.19821 0.32921 0.38053 0.0
C1184 C 0.22608 0.41079 0.36502 0.0
C1185 C 0.22521 0.43384 0.37826 0.0
C1186 C 0.2332 0.3736 0.36617 0.0
C1187 C 0.23907 0.35849 0.38066 0.0
C1188 C 0.24016 0.38246 0.39365 0.0
H1189 H 0.26504 0.12025 0.40362 0.0
H1190 H 0.25037 0.18452 0.40592 0.0
C1191 C 0.23329 0.42002 0.39245 0.0
C1192 C 0.24239 0.31723 0.38233 0.0
H1193 H 0.21791 0.23256 0.37516 0.0
C1194 C 0.26257 0.30366 0.38753 0.0
C1195 C 0.22578 0.29121 0.37842 0.0
C1196 C 0.2032 0.30385 0.37389 0.0
C1197 C 0.26693 0.26483 0.38808 0.0
C1198 C 0.25071 0.23906 0.38335 0.0
C1199 C 0.2303 0.25247 0.37874 0.0
C1200 C 0.25558 0.19845 0.3817 0.0
C1201 C 0.2891 0.25141 0.39314 0.0
C1202 C 0.26235 0.18471 0.3672 0.0
C1203 C 0.27065 0.1483 0.36589 0.0
C1204 C 0.272 0.12481 0.37899 0.0
C1205 C 0.26359 0.13748 0.39327 0.0
C1206 C 0.25551 0.17427 0.39463 0.0
H1207 H 0.29999 0.27502 0.39643 0.0
H1208 H 0.28742 0.23221 0.40326 0.0
H1209 H 0.29686 0.23522 0.38358 0.0
H1210 H 0.26251 0.20298 0.3571 0.0
H1211 H 0.2774 0.13935 0.35483 0.0
H1212 H 0.77618 0.64668 0.35532 0.0
H1213 H 0.76342 0.71166 0.35744 0.0
H1214 H 0.75789 0.69904 0.40721 0.0
H1215 H 0.77006 0.63333 0.40501 0.0
H1216 H 0.72584 0.74614 0.39475 0.0
H1217 H 0.80747 0.78755 0.37357 0.0
H1218 H 0.79358 0.75725 0.36018 0.0
H1219 H 0.801 0.73992 0.37914 0.0
C1220 C 0.77131 0.65732 0.36662 0.0
C1221 C 0.77383 0.63501 0.37998 0.0
C1222 C 0.76439 0.69462 0.36786 0.0
C1223 C 0.76043 0.71061 0.38253 0.0
C1224 C 0.76107 0.68739 0.39578 0.0
H1225 H 0.73374 0.94906 0.40489 0.0
H1226 H 0.74838 0.88483 0.40745 0.0
C1227 C 0.76773 0.64973 0.39451 0.0
C1228 C 0.75728 0.75197 0.384 0.0
H1229 H 0.78052 0.8362 0.37426 0.0
C1230 C 0.73791 0.76584 0.39048 0.0
C1231 C 0.77321 0.77778 0.37864 0.0
C1232 C 0.79508 0.76491 0.37265 0.0
C1233 C 0.73356 0.8047 0.39095 0.0
C1234 C 0.74903 0.83025 0.38485 0.0
C1235 C 0.7687 0.81652 0.3789 0.0
C1236 C 0.74399 0.87083 0.38315 0.0
C1237 C 0.7121 0.81829 0.39736 0.0
C1238 C 0.73773 0.88463 0.36854 0.0
C1239 C 0.72943 0.92103 0.36708 0.0
C1240 C 0.72761 0.94451 0.38015 0.0
C1241 C 0.73551 0.93181 0.39457 0.0
C1242 C 0.74356 0.89502 0.39608 0.0
H1243 H 0.70122 0.7947 0.40072 0.0
H1244 H 0.71504 0.83604 0.40777 0.0
H1245 H 0.70366 0.83598 0.38858 0.0
H1246 H 0.73796 0.86642 0.35843 0.0
H1247 H 0.7231 0.93001 0.35591 0.0
H1248 H 0.761 0.4579 0.39865 0.0
H1249 H 0.74126 0.39876 0.40359 0.0
H1250 H 0.80156 0.33712 0.40068 0.0
H1251 H 0.82115 0.3954 0.39579 0.0
H1252 H 0.74138 0.33826 0.38195 0.0
H1253 H 0.77257 0.29047 0.43913 0.0
H1254 H 0.77465 0.33869 0.43265 0.0
H1255 H 0.79356 0.30392 0.4257 0.0
C1256 C 0.77004 0.43181 0.39945 0.0
C1257 C 0.79259 0.43131 0.39676 0.0
C1258 C 0.75877 0.39806 0.40222 0.0
C1259 C 0.76997 0.36349 0.40268 0.0
C1260 C 0.79259 0.36336 0.40068 0.0
H1261 H 0.73915 0.12454 0.3964 0.0
H1262 H 0.75735 0.18551 0.4006 0.0
C1263 C 0.80375 0.39679 0.39775 0.0
C1264 C 0.75806 0.32709 0.40345 0.0
H1265 H 0.75488 0.24397 0.42345 0.0
C1266 C 0.74407 0.31788 0.39115 0.0
C1267 C 0.76191 0.30019 0.41531 0.0
C1268 C 0.77635 0.30886 0.42902 0.0
C1269 C 0.73429 0.28227 0.39013 0.0
C1270 C 0.73811 0.25528 0.40197 0.0
C1271 C 0.75197 0.26456 0.41437 0.0
C1272 C 0.72745 0.21768 0.40164 0.0
C1273 C 0.7205 0.27348 0.37605 0.0
C1274 C 0.70469 0.21528 0.40158 0.0
C1275 C 0.6944 0.18086 0.39907 0.0
C1276 C 0.70659 0.1478 0.39685 0.0
C1277 C 0.72937 0.14955 0.39811 0.0
C1278 C 0.73974 0.18436 0.40045 0.0
H1279 H 0.72414 0.29268 0.36618 0.0
H1280 H 0.72304 0.24406 0.37212 0.0
H1281 H 0.70308 0.27701 0.37911 0.0
H1282 H 0.69484 0.24036 0.4029 0.0
H1283 H 0.6768 0.18034 0.39839 0.0
H1284 H 0.23748 0.61159 0.40054 0.0
H1285 H 0.2565 0.67124 0.40589 0.0
H1286 H 0.19985 0.73314 0.39107 0.0
H1287 H 0.18098 0.67448 0.38571 0.0
H1288 H 0.2638 0.72883 0.38255 0.0
H1289 H 0.21661 0.78466 0.43247 0.0
H1290 H 0.21655 0.73546 0.4272 0.0
H1291 H 0.20019 0.76852 0.41653 0.0
C1292 C 0.22903 0.63794 0.39865 0.0
C1293 C 0.20777 0.63823 0.39263 0.0
C1294 C 0.23989 0.67197 0.40169 0.0
C1295 C 0.22948 0.70668 0.39907 0.0
C1296 C 0.20809 0.70682 0.39346 0.0
H1297 H 0.26071 0.94435 0.39229 0.0
H1298 H 0.24241 0.88324 0.39568 0.0
C1299 C 0.19739 0.6731 0.39027 0.0
C1300 C 0.24128 0.74296 0.40079 0.0
H1301 H 0.23905 0.82865 0.41885 0.0
C1302 C 0.25864 0.75045 0.39066 0.0
C1303 C 0.23425 0.7714 0.41118 0.0
C1304 C 0.21599 0.76462 0.42257 0.0
C1305 C 0.2687 0.78592 0.39025 0.0
C1306 C 0.26166 0.81452 0.40062 0.0
C1307 C 0.24447 0.80684 0.41092 0.0
C1308 C 0.272 0.85245 0.40076 0.0
C1309 C 0.28619 0.79282 0.37824 0.0
C1310 C 0.29445 0.85587 0.40328 0.0
C1311 C 0.30484 0.8904 0.40118 0.0
C1312 C 0.29296 0.92259 0.3969 0.0
C1313 C 0.27023 0.92002 0.39565 0.0
C1314 C 0.25981 0.8851 0.39752 0.0
H1315 H 0.28524 0.77234 0.3685 0.0
H1316 H 0.285 0.82166 0.37334 0.0
H1317 H 0.30239 0.78964 0.38377 0.0
H1318 H 0.30412 0.83144 0.40627 0.0
H1319 H 0.32237 0.89166 0.4024 0.0
H1320 H 0.76 0.6225 0.638 0.0
H1321 H 0.74011 0.68187 0.63372 0.0
H1322 H 0.80058 0.74309 0.63536 0.0
H1323 H 0.82031 0.68455 0.63972 0.0
H1324 H 0.74264 0.74329 0.65611 0.0
H1325 H 0.76866 0.78895 0.59721 0.0
H1326 H 0.77019 0.74057 0.60359 0.0
H1327 H 0.79035 0.7739 0.60978 0.0
C1328 C 0.76902 0.64856 0.63708 0.0
C1329 C 0.79168 0.64889 0.63926 0.0
C1330 C 0.75768 0.68243 0.63468 0.0
C1331 C 0.7689 0.71691 0.63407 0.0
C1332 C 0.7916 0.71688 0.63554 0.0
H1333 H 0.73791 0.95652 0.63859 0.0
H1334 H 0.75597 0.89531 0.63451 0.0
C1335 C 0.80283 0.68334 0.63814 0.0
C1336 C 0.75701 0.75336 0.63367 0.0
H1337 H 0.75163 0.83537 0.61315 0.0
C1338 C 0.74435 0.76321 0.64662 0.0
C1339 C 0.75965 0.77965 0.62143 0.0
C1340 C 0.77281 0.77025 0.60714 0.0
C1341 C 0.73465 0.79888 0.64786 0.0
C1342 C 0.73712 0.8252 0.63557 0.0
C1343 C 0.74972 0.81528 0.62256 0.0
C1344 C 0.7263 0.8627 0.63606 0.0
C1345 C 0.72245 0.80844 0.6626 0.0
C1346 C 0.70362 0.86487 0.63758 0.0
C1347 C 0.69344 0.89943 0.64005 0.0
C1348 C 0.70561 0.93288 0.64077 0.0
C1349 C 0.72815 0.9312 0.6381 0.0
C1350 C 0.73845 0.89627 0.63582 0.0
H1351 H 0.72746 0.79012 0.67245 0.0
H1352 H 0.72509 0.83821 0.66599 0.0
H1353 H 0.70477 0.80414 0.66067 0.0
H1354 H 0.69381 0.83959 0.63735 0.0
H1355 H 0.67598 0.89984 0.64179 0.0
H1356 H 0.23601 0.46723 0.634 0.0
H1357 H 0.25474 0.40747 0.62828 0.0
H1358 H 0.19816 0.346 0.64347 0.0
H1359 H 0.17956 0.40479 0.64918 0.0
H1360 H 0.26248 0.34984 0.65123 0.0
H1361 H 0.21396 0.29443 0.60198 0.0
H1362 H 0.21393 0.34356 0.60737 0.0
H1363 H 0.19792 0.31029 0.61819 0.0
C1364 C 0.2275 0.44096 0.63588 0.0
C1365 C 0.20634 0.44084 0.64211 0.0
C1366 C 0.2382 0.40686 0.63263 0.0
C1367 C 0.22773 0.37223 0.63525 0.0
C1368 C 0.20643 0.37226 0.64106 0.0
H1369 H 0.25926 0.13456 0.64184 0.0
H1370 H 0.24078 0.19559 0.63853 0.0
C1371 C 0.19589 0.40605 0.64446 0.0
C1372 C 0.23944 0.33585 0.63335 0.0
H1373 H 0.23668 0.25022 0.61528 0.0
C1374 C 0.25708 0.32827 0.6432 0.0
C1375 C 0.23211 0.30747 0.62305 0.0
C1376 C 0.21355 0.31435 0.61194 0.0
C1377 C 0.26715 0.29277 0.64342 0.0
C1378 C 0.25982 0.26423 0.63315 0.0
C1379 C 0.24233 0.27199 0.62313 0.0
C1380 C 0.27016 0.22627 0.63283 0.0
C1381 C 0.285 0.28578 0.65514 0.0
C1382 C 0.29253 0.22281 0.62993 0.0
C1383 C 0.30302 0.18832 0.63198 0.0
C1384 C 0.29132 0.15624 0.63658 0.0
C1385 C 0.26863 0.15881 0.63819 0.0
C1386 C 0.25811 0.19369 0.63638 0.0
H1387 H 0.28437 0.30628 0.66489 0.0
H1388 H 0.28392 0.25695 0.66006 0.0
H1389 H 0.30103 0.28884 0.64934 0.0
H1390 H 0.30208 0.24719 0.62672 0.0
H1391 H 0.32053 0.18705 0.63052 0.0
H1392 H 0.91293 0.11218 0.13666 0.0
H1393 H 0.95248 0.11127 0.13248 0.0
H1394 H 0.94817 0.99761 0.11525 0.0
H1395 H 0.90881 0.99859 0.11914 0.0
H1396 H 0.97966 0.05983 0.14781 0.0
H1397 H 0.98912 0.04774 0.08379 0.0
H1398 H 0.96422 0.06369 0.09284 0.0
H1399 H 0.97048 0.01433 0.09204 0.0
C1400 C 0.92039 0.08742 0.1316 0.0
C1401 C 0.90786 0.05538 0.12832 0.0
C1402 C 0.94295 0.08685 0.12928 0.0
C1403 C 0.95322 0.05446 0.12345 0.0
C1404 C 0.94057 0.0231 0.11952 0.0
H1405 H 0.08578 0.97794 0.13814 0.0
H1406 H 0.04613 0.98135 0.13451 0.0
C1407 C 0.91811 0.02358 0.12189 0.0
C1408 C 0.97727 0.05177 0.12303 0.0
H1409 H 0.02057 0.0339 0.09915 0.0
C1410 C 0.98861 0.05445 0.13715 0.0
C1411 C 0.9889 0.04467 0.10911 0.0
C1412 C 0.9776 0.04276 0.09355 0.0
C1413 C 0.01123 0.04949 0.13778 0.0
C1414 C 0.02276 0.04142 0.12395 0.0
C1415 C 0.01156 0.03951 0.10976 0.0
C1416 C 0.04665 0.03675 0.12409 0.0
C1417 C 0.02275 0.0531 0.15321 0.0
C1418 C 0.05993 0.06624 0.11897 0.0
C1419 C 0.08242 0.06443 0.12109 0.0
C1420 C 0.092 0.03294 0.12826 0.0
C1421 C 0.07879 1.0024 0.13252 0.0
C1422 C 0.05621 1.0044 0.13052 0.0
H1423 H 0.01188 0.0642 0.16248 0.0
H1424 H 0.0288 0.02506 0.1569 0.0
H1425 H 0.03703 0.07201 0.15209 0.0
H1426 H 0.05281 0.09138 0.11397 0.0
H1427 H 0.09229 0.08821 0.1176 0.0
H1428 H 0.08864 0.98812 0.90638 0.0
H1429 H 0.04928 0.98838 0.90995 0.0
H1430 H 0.04919 0.10965 0.90911 0.0
H1431 H 0.08863 0.10962 0.90479 0.0
H1432 H 0.02152 0.01793 0.93167 0.0
H1433 H 0.00803 0.08366 0.87378 0.0
H1434 H 0.0342 0.06587 0.87976 0.0
H1435 H 0.02481 0.11081 0.88664 0.0
C1436 C 0.08026 0.0149 0.90687 0.0
C1437 C 0.0917 0.04886 0.90492 0.0
C1438 C 0.05778 0.01498 0.90907 0.0
C1439 C 0.04625 0.04898 0.90944 0.0
C1440 C 0.05774 0.08305 0.90849 0.0
H1441 H 0.90822 0.09681 0.90851 0.0
H1442 H 0.94751 0.09954 0.91253 0.0
C1443 C 0.08029 0.08301 0.90618 0.0
C1444 C 0.02214 0.04836 0.90998 0.0
H1445 H 0.97695 0.07256 0.88919 0.0
C1446 C 0.01175 0.02996 0.92242 0.0
C1447 C 0.00945 0.0637 0.89779 0.0
C1448 C 0.01964 0.08181 0.88366 0.0
C1449 C 0.98897 0.02683 0.92304 0.0
C1450 C 0.97637 0.04229 0.91088 0.0
C1451 C 0.98672 0.06089 0.89853 0.0
C1452 C 0.95235 0.03951 0.91053 0.0
C1453 C 0.97851 1.00734 0.93672 0.0
C1454 C 0.94203 1.00469 0.90834 0.0
C1455 C 0.91951 1.00302 0.90591 0.0
C1456 C 0.90709 0.03623 0.90552 0.0
C1457 C 0.91742 0.0708 0.90845 0.0
C1458 C 0.93983 0.07243 0.91084 0.0
H1459 H 0.99003 1.00387 0.94657 0.0
H1460 H 0.96407 0.02333 0.94082 0.0
H1461 H 0.97292 0.97902 0.93307 0.0
H1462 H 0.9515 0.97901 0.90783 0.0
H1463 H 0.91201 0.97604 0.90361 0.0
H1464 H 0.90516 0.56114 0.60699 0.0
H1465 H 0.94463 0.55921 0.60214 0.0
H1466 H 0.95645 0.56257 0.65159 0.0
H1467 H 0.91727 0.56458 0.65647 0.0
H1468 H 0.9832 0.61318 0.63129 0.0
H1469 H 0.98225 0.46222 0.61365 0.0
H1470 H 0.96325 0.49429 0.60473 0.0
H1471 H 0.96043 0.48268 0.62493 0.0
C1472 C 0.91625 0.56213 0.61677 0.0
C1473 C 0.90825 0.56285 0.63211 0.0
C1474 C 0.9387 0.56071 0.614 0.0
C1475 C 0.95334 0.5603 0.62653 0.0
C1476 C 0.94537 0.56267 0.64178 0.0
H1477 H 0.08218 0.54272 0.65749 0.0
H1478 H 0.0432 0.54841 0.65256 0.0
C1479 C 0.92303 0.56377 0.64456 0.0
C1480 C 0.97702 0.55626 0.62407 0.0
H1481 H 0.01643 0.49038 0.61741 0.0
C1482 C 0.9905 0.58656 0.62798 0.0
C1483 C 0.9864 0.5215 0.6197 0.0
C1484 C 0.97246 0.48811 0.61554 0.0
C1485 C 0.01318 0.58258 0.62826 0.0
C1486 C 0.02253 0.54715 0.62486 0.0
C1487 C 0.00915 0.51741 0.62009 0.0
C1488 C 0.04589 0.53985 0.62771 0.0
C1489 C 0.02693 0.6161 0.63261 0.0
C1490 C 0.06015 0.53121 0.61545 0.0
C1491 C 0.08253 0.52772 0.61826 0.0
C1492 C 0.09081 0.53282 0.63336 0.0
C1493 C 0.07626 0.53928 0.6457 0.0
C1494 C 0.05403 0.54264 0.6429 0.0
H1495 H 0.01824 0.64296 0.63036 0.0
H1496 H 0.03074 0.61481 0.64523 0.0
H1497 H 0.04252 0.61621 0.62606 0.0
H1498 H 0.05409 0.52859 0.60366 0.0
H1499 H 0.09342 0.52285 0.60855 0.0
H1500 H 0.90576 0.52675 0.42529 0.0
H1501 H 0.94487 0.53519 0.4301 0.0
H1502 H 0.95718 0.52934 0.38075 0.0
H1503 H 0.91834 0.52082 0.37588 0.0
H1504 H 0.98273 0.49129 0.42097 0.0
H1505 H 0.98164 0.63307 0.39421 0.0
H1506 H 0.95716 0.60909 0.40027 0.0
H1507 H 0.96987 0.59751 0.38202 0.0
C1508 C 0.91689 0.52651 0.41552 0.0
C1509 C 0.90902 0.52353 0.4002 0.0
C1510 C 0.93916 0.53158 0.41827 0.0
C1511 C 0.95377 0.5338 0.40574 0.0
C1512 C 0.94607 0.52861 0.39054 0.0
H1513 H 0.08354 0.54583 0.37837 0.0
H1514 H 0.04421 0.5463 0.38248 0.0
C1515 C 0.92392 0.52363 0.38778 0.0
C1516 C 0.97703 0.54254 0.40829 0.0
H1517 H 0.01667 0.60403 0.39706 0.0
C1518 C 0.99016 0.51627 0.41605 0.0
C1519 C 0.98656 0.57538 0.40197 0.0
C1520 C 0.97305 0.60559 0.39428 0.0
C1521 C 0.01286 0.52075 0.41669 0.0
C1522 C 0.02248 0.55247 0.40951 0.0
C1523 C 0.00921 0.57973 0.40253 0.0
C1524 C 0.04628 0.55535 0.40733 0.0
C1525 C 0.02655 0.49052 0.42417 0.0
C1526 C 0.06043 0.56134 0.41991 0.0
C1527 C 0.083 0.56129 0.41757 0.0
C1528 C 0.0916 0.55496 0.40263 0.0
C1529 C 0.07731 0.55043 0.39002 0.0
C1530 C 0.05489 0.55076 0.39234 0.0
H1531 H 0.01669 0.46589 0.42786 0.0
H1532 H 0.03933 0.4808 0.41596 0.0
H1533 H 0.03482 0.5022 0.43457 0.0
H1534 H 0.05402 0.56532 0.43154 0.0
H1535 H 0.0937 0.56469 0.42747 0.0
H1536 H 0.41657 0.06847 0.65934 0.0
H1537 H 0.45556 0.05951 0.65519 0.0
H1538 H 0.44475 0.04886 0.60581 0.0
H1539 H 0.40552 0.0577 0.60989 0.0
H1540 H 0.47251 0.99195 0.64082 0.0
H1541 H 0.49739 0.12278 0.60982 0.0
H1542 H 0.47283 0.12033 0.62135 0.0
H1543 H 0.47393 0.09791 0.60268 0.0
C1544 C 0.42252 0.06472 0.64757 0.0
C1545 C 0.40801 0.06361 0.63495 0.0
C1546 C 0.44477 0.05963 0.64522 0.0
C1547 C 0.45299 0.05352 0.63021 0.0
C1548 C 0.43872 0.05397 0.61747 0.0
H1549 H 0.59219 0.01745 0.61008 0.0
H1550 H 0.55257 0.01898 0.6061 0.0
C1551 C 0.41636 0.05914 0.61981 0.0
C1552 C 0.47628 0.04399 0.62827 0.0
H1553 H 0.52488 0.07886 0.61561 0.0
C1554 C 0.48395 0.01075 0.63517 0.0
C1555 C 0.49105 0.06833 0.62071 0.0
C1556 C 0.48354 0.10449 0.61326 0.0
C1557 C 0.50617 1.00186 0.63522 0.0
C1558 C 0.52111 0.0272 0.62843 0.0
C1559 C 0.51335 0.05951 0.62082 0.0
C1560 C 0.54487 0.02283 0.63063 0.0
C1561 C 0.51349 0.96573 0.64281 0.0
C1562 C 0.55355 0.02425 0.6457 0.0
C1563 C 0.57599 0.02335 0.64798 0.0
C1564 C 0.59024 0.02119 0.63522 0.0
C1565 C 0.58155 0.0187 0.62012 0.0
C1566 C 0.55899 0.01983 0.61783 0.0
H1567 H 0.50027 0.94443 0.64288 0.0
H1568 H 0.52788 0.95372 0.63678 0.0
H1569 H 0.51802 0.9715 0.65508 0.0
H1570 H 0.54296 0.02721 0.65572 0.0
H1571 H 0.58225 0.02517 0.65974 0.0
H1572 H 0.41159 0.96422 0.40736 0.0
H1573 H 0.45076 0.96763 0.41252 0.0
H1574 H 0.44977 0.08656 0.40257 0.0
H1575 H 0.41074 0.08385 0.39836 0.0
H1576 H 0.48133 0.98452 0.39256 0.0
H1577 H 0.4868 0.08701 0.44048 0.0
H1578 H 0.46136 0.06558 0.43491 0.0
H1579 H 0.47133 0.10652 0.42476 0.0
C1580 C 0.41964 0.99124 0.40666 0.0
C1581 C 0.40803 0.02366 0.40228 0.0
C1582 C 0.44204 0.99313 0.40954 0.0
C1583 C 0.4532 0.02748 0.40816 0.0
C1584 C 0.44152 0.05992 0.40411 0.0
H1585 H 0.58248 0.06318 0.37577 0.0
H1586 H 0.54338 0.05613 0.38015 0.0
C1587 C 0.41919 0.05814 0.40139 0.0
C1588 C 0.47729 0.02903 0.40934 0.0
H1589 H 0.51904 0.08123 0.42419 0.0
C1590 C 0.48957 1.00523 0.3997 0.0
C1591 C 0.48817 0.05557 0.41884 0.0
C1592 C 0.47619 0.07977 0.43045 0.0
C1593 C 0.51224 1.00865 0.39865 0.0
C1594 C 0.52287 0.03744 0.40709 0.0
C1595 C 0.51081 0.05976 0.41744 0.0
C1596 C 0.54635 0.04545 0.40487 0.0
C1597 C 0.52453 0.98145 0.38841 0.0
C1598 C 0.56086 0.04418 0.41748 0.0
C1599 C 0.58321 0.04894 0.41504 0.0
C1600 C 0.59131 0.05493 0.39994 0.0
C1601 C 0.57664 0.05813 0.38749 0.0
C1602 C 0.55435 0.05381 0.38996 0.0
H1603 H 0.51552 0.95458 0.38704 0.0
H1604 H 0.52653 0.99396 0.37666 0.0
H1605 H 0.54091 0.97518 0.3932 0.0
H1606 H 0.55498 0.03816 0.42911 0.0
H1607 H 0.59423 0.04616 0.4248 0.0
H1608 H 0.59 0.58171 0.12242 0.0
H1609 H 0.55051 0.58152 0.11972 0.0
H1610 H 0.54905 0.46367 0.13159 0.0
H1611 H 0.58867 0.46406 0.135 0.0
H1612 H 0.52085 0.54323 0.10223 0.0
H1613 H 0.51075 0.50981 0.16502 0.0
H1614 H 0.53668 0.52242 0.15671 0.0
H1615 H 0.52616 0.4756 0.15431 0.0
C1616 C 0.5813 0.5557 0.12446 0.0
C1617 C 0.59241 0.5231 0.1293 0.0
C1618 C 0.55873 0.55558 0.12278 0.0
C1619 C 0.54678 0.52285 0.12583 0.0
C1620 C 0.55793 0.4895 0.12955 0.0
H1621 H 0.40817 0.48532 0.13445 0.0
H1622 H 0.44721 0.47845 0.13017 0.0
C1623 C 0.58058 0.48964 0.13133 0.0
C1624 C 0.52266 0.52463 0.12606 0.0
H1625 H 0.47874 0.515 0.1501 0.0
C1626 C 0.51162 0.53694 0.11267 0.0
C1627 C 0.51067 0.51687 0.13977 0.0
C1628 C 0.52163 0.50578 0.15482 0.0
C1629 C 0.48889 0.54138 0.1126 0.0
C1630 C 0.477 0.53349 0.12629 0.0
C1631 C 0.48798 0.5209 0.13961 0.0
C1632 C 0.45309 0.53794 0.12717 0.0
C1633 C 0.4777 0.55414 0.09791 0.0
C1634 C 0.44343 0.57374 0.12673 0.0
C1635 C 0.42104 0.57787 0.12935 0.0
C1636 C 0.40807 0.54623 0.13256 0.0
C1637 C 0.41777 0.51035 0.13237 0.0
C1638 C 0.44005 0.5063 0.12981 0.0
H1639 H 0.48857 0.55217 0.0876 0.0
H1640 H 0.46289 0.53707 0.09573 0.0
H1641 H 0.47256 0.58389 0.09925 0.0
H1642 H 0.45331 0.59857 0.12492 0.0
H1643 H 0.41406 0.60584 0.12948 0.0
H1644 H 0.41133 0.46771 0.90772 0.0
H1645 H 0.45051 0.47003 0.91299 0.0
H1646 H 0.44955 0.59055 0.90716 0.0
H1647 H 0.41053 0.58871 0.90285 0.0
H1648 H 0.4808 0.4906 0.89351 0.0
H1649 H 0.48727 0.58355 0.94455 0.0
H1650 H 0.46167 0.56343 0.93852 0.0
H1651 H 0.47156 0.60621 0.92971 0.0
C1652 C 0.4194 0.49477 0.90797 0.0
C1653 C 0.40782 0.52795 0.90467 0.0
C1654 C 0.4418 0.49606 0.91092 0.0
C1655 C 0.45299 0.53054 0.91069 0.0
C1656 C 0.4413 0.5637 0.90781 0.0
H1657 H 0.58125 0.57258 0.87782 0.0
H1658 H 0.54229 0.56467 0.88257 0.0
C1659 C 0.41898 0.56249 0.90502 0.0
C1660 C 0.4771 0.53181 0.91171 0.0
H1661 H 0.51913 0.58138 0.92767 0.0
C1662 C 0.48918 0.50995 0.9012 0.0
C1663 C 0.48818 0.55654 0.92191 0.0
C1664 C 0.47646 0.57839 0.93442 0.0
C1665 C 0.51182 0.51373 0.89998 0.0
C1666 C 0.52261 0.54098 0.90916 0.0
C1667 C 0.51077 0.56117 0.92036 0.0
C1668 C 0.54599 0.54965 0.90685 0.0
C1669 C 0.52389 0.4886 0.88874 0.0
C1670 C 0.56088 0.54627 0.91918 0.0
C1671 C 0.58315 0.55157 0.91654 0.0
C1672 C 0.5908 0.56019 0.90154 0.0
C1673 C 0.57575 0.56554 0.88945 0.0
C1674 C 0.55355 0.5607 0.89212 0.0
H1675 H 0.51493 0.46193 0.88668 0.0
H1676 H 0.5255 0.5032 0.87738 0.0
H1677 H 0.54042 0.48168 0.89309 0.0
H1678 H 0.55536 0.53816 0.93067 0.0
H1679 H 0.59447 0.54709 0.92602 0.0
H1680 H 0.22053 0.04812 0.94959 0.0
H1681 H 0.22449 0.05801 0.97779 0.0
H1682 H 0.16655 0.9924 0.98584 0.0
H1683 H 0.16308 0.98154 0.95792 0.0
H1684 H 0.20077 0.09077 0.99897 0.0
H1685 H 0.20629 0.94119 1.01545 0.0
H1686 H 0.20764 0.95644 0.99546 0.0
H1687 H 0.18168 0.94981 1.00488 0.0
C1688 C 0.2087 0.03587 0.95743 0.0
C1689 C 0.1917 0.01359 0.95158 0.0
C1690 C 0.21099 0.04138 0.97354 0.0
C1691 C 0.1962 0.02497 0.98407 0.0
C1692 C 0.17871 1.00408 0.97811 0.0
H1693 H 0.16599 0.10111 0.07667 0.0
H1694 H 0.16896 0.08857 0.04883 0.0
C1695 C 0.17664 0.99809 0.9621 0.0
C1696 C 0.19847 0.03059 1.00123 0.0
H1697 H 0.19681 0.9841 0.03609 0.0
C1698 C 0.20017 0.06737 1.00706 0.0
C1699 C 0.19828 1.00013 1.01191 0.0
C1700 C 0.19863 0.95969 1.00658 0.0
C1701 C 0.20065 0.0746 0.02315 0.0
C1702 C 0.19857 0.04434 0.03382 0.0
C1703 C 0.19794 1.00745 0.028 0.0
C1704 C 0.19632 0.05049 0.05095 0.0
C1705 C 0.20359 0.1147 0.02849 0.0
C1706 C 0.20981 0.03158 0.06165 0.0
C1707 C 0.20775 0.03812 0.07771 0.0
C1708 C 0.19229 0.0639 0.08333 0.0
C1709 C 0.17838 0.08175 0.07265 0.0
C1710 C 0.18019 0.0748 0.0567 0.0
H1711 H 0.21258 0.13153 0.01969 0.0
H1712 H 0.18738 0.12794 0.03006 0.0
H1713 H 0.21255 0.11615 0.03969 0.0
H1714 H 0.22222 0.01231 0.05756 0.0
H1715 H 0.21866 0.024 0.08569 0.0
H1716 H 0.809 0.01012 0.95001 0.0
H1717 H 0.80603 0.99908 0.97808 0.0
H1718 H 0.79717 0.11796 0.98565 0.0
H1719 H 0.79903 0.12898 0.95776 0.0
H1720 H 0.83198 0.02421 1.00106 0.0
H1721 H 0.74859 0.07715 1.01173 0.0
H1722 H 0.75883 0.06826 0.99239 0.0
H1723 H 0.76539 0.11144 1.00227 0.0
C1724 C 0.80597 0.03383 0.9576 0.0
C1725 C 0.80432 0.07049 0.9515 0.0
C1726 C 0.80443 0.02751 0.97369 0.0
C1727 C 0.80107 0.05762 0.98404 0.0
C1728 C 0.79926 0.09411 0.97796 0.0
H1729 H 0.81324 0.07873 0.08528 0.0
H1730 H 0.81112 0.09139 0.05719 0.0
C1731 C 0.80068 0.10042 0.96193 0.0
C1732 C 0.80062 0.05131 1.00122 0.0
H1733 H 0.77089 0.06801 0.03424 0.0
C1734 C 0.81853 0.03358 1.00826 0.0
C1735 C 0.78309 0.06354 1.01071 0.0
C1736 C 0.7628 0.08081 1.00387 0.0
C1737 C 0.81953 0.02833 0.02447 0.0
C1738 C 0.80222 0.04112 0.03392 0.0
C1739 C 0.78427 0.05869 0.02695 0.0
C1740 C 0.80212 0.03456 0.051 0.0
C1741 C 0.83915 1.00928 0.03149 0.0
C1742 C 0.79727 0.99874 0.0568 0.0
C1743 C 0.79825 0.99153 0.07277 0.0
C1744 C 0.80428 0.01993 0.08337 0.0
C1745 C 0.80847 0.05624 0.07753 0.0
C1746 C 0.80737 0.06348 0.06147 0.0
H1747 H 0.85241 1.00521 0.02286 0.0
H1748 H 0.84548 0.02609 0.04139 0.0
H1749 H 0.83433 0.98133 0.0361 0.0
H1750 H 0.79296 0.97616 0.04892 0.0
H1751 H 0.7944 0.96348 0.07679 0.0
H1752 H 0.20796 0.51627 0.58625 0.0
H1753 H 0.20993 0.50298 0.55823 0.0
H1754 H 0.17651 0.60694 0.54852 0.0
H1755 H 0.17415 0.62011 0.57625 0.0
H1756 H 0.17543 0.4972 0.53593 0.0
H1757 H 0.23153 0.61414 0.5213 0.0
H1758 H 0.22765 0.59757 0.54097 0.0
H1759 H 0.20791 0.62821 0.53215 0.0
C1760 C 0.20093 0.5362 0.57817 0.0
C1761 C 0.19118 0.56956 0.58361 0.0
C1762 C 0.20216 0.52865 0.56214 0.0
C1763 C 0.1938 0.55439 0.55125 0.0
C1764 C 0.18361 0.58715 0.55666 0.0
H1765 H 0.18057 0.56734 0.45028 0.0
H1766 H 0.18125 0.57994 0.47839 0.0
C1767 C 0.18232 0.59466 0.5726 0.0
C1768 C 0.19519 0.54691 0.53422 0.0
H1769 H 0.2148 0.58276 0.50001 0.0
C1770 C 0.18419 0.51569 0.52809 0.0
C1771 C 0.20648 0.57125 0.52396 0.0
C1772 C 0.21924 0.60451 0.5299 0.0
C1773 C 0.18374 0.50865 0.51197 0.0
C1774 C 0.19502 0.53302 0.50169 0.0
C1775 C 0.20612 0.56414 0.50785 0.0
C1776 C 0.19564 0.52638 0.48456 0.0
C1777 C 0.17061 0.47576 0.50608 0.0
C1778 C 0.20415 0.49271 0.4786 0.0
C1779 C 0.20377 0.48551 0.46261 0.0
C1780 C 0.19507 0.51197 0.45211 0.0
C1781 C 0.18743 0.54645 0.45802 0.0
C1782 C 0.18772 0.55357 0.47409 0.0
H1783 H 0.15819 0.46666 0.5147 0.0
H1784 H 0.16226 0.4828 0.495 0.0
H1785 H 0.18165 0.45161 0.50392 0.0
H1786 H 0.21097 0.47177 0.48635 0.0
H1787 H 0.21024 0.45905 0.45844 0.0
H1788 H 0.78069 0.53141 0.44901 0.0
H1789 H 0.77617 0.5222 0.47719 0.0
H1790 H 0.83439 0.58676 0.48548 0.0
H1791 H 0.83865 0.59655 0.45757 0.0
H1792 H 0.8005 0.48898 0.4986 0.0
H1793 H 0.79352 0.6388 0.51458 0.0
H1794 H 0.79225 0.62304 0.49465 0.0
H1795 H 0.81816 0.63025 0.50399 0.0
C1796 C 0.79248 0.5436 0.45688 0.0
C1797 C 0.80984 0.56518 0.45105 0.0
C1798 C 0.78986 0.53847 0.47298 0.0
C1799 C 0.80458 0.5547 0.48356 0.0
C1800 C 0.82231 0.57514 0.47768 0.0
H1801 H 0.83611 0.48358 0.57631 0.0
H1802 H 0.83247 0.49461 0.54844 0.0
C1803 C 0.8248 0.58059 0.46166 0.0
C1804 C 0.80206 0.54926 0.5007 0.0
H1805 H 0.80271 0.59632 0.53542 0.0
C1806 C 0.80072 0.51251 0.50662 0.0
C1807 C 0.8018 0.57988 0.51127 0.0
C1808 C 0.80126 0.62019 0.50578 0.0
C1809 C 0.8002 0.5055 0.52274 0.0
C1810 C 0.80172 0.53601 0.53331 0.0
C1811 C 0.80196 0.57283 0.52739 0.0
C1812 C 0.80401 0.53019 0.55044 0.0
C1813 C 0.79794 0.46537 0.52822 0.0
C1814 C 0.78991 0.548 0.56106 0.0
C1815 C 0.7922 0.54213 0.57715 0.0
C1816 C 0.80857 0.51823 0.58291 0.0
C1817 C 0.82298 0.50136 0.57226 0.0
C1818 C 0.82085 0.50752 0.55627 0.0
H1819 H 0.78948 0.44781 0.51942 0.0
H1820 H 0.81437 0.45316 0.53003 0.0
H1821 H 0.7888 0.46369 0.53935 0.0
H1822 H 0.77694 0.56599 0.55689 0.0
H1823 H 0.78087 0.55551 0.58506 0.0
H1824 H 0.66146 0.09637 0.57707 0.0
H1825 H 0.66425 0.08411 0.54921 0.0
H1826 H 0.72026 0.01358 0.55734 0.0
H1827 H 0.71708 0.02514 0.58545 0.0
H1828 H 0.69519 0.10088 0.52918 0.0
H1829 H 0.68505 0.94589 0.53 0.0
H1830 H 0.6801 0.97464 0.54692 0.0
H1831 H 0.70747 0.9622 0.54152 0.0
C1832 C 0.67436 0.07818 0.57294 0.0
C1833 C 0.68908 0.06176 0.58348 0.0
C1834 C 0.67594 0.07114 0.55698 0.0
C1835 C 0.69235 0.04763 0.55107 0.0
C1836 C 0.70713 0.03112 0.56157 0.0
H1837 H 0.71866 0.04798 0.44968 0.0
H1838 H 0.72187 0.05825 0.47786 0.0
C1839 C 0.70537 0.0378 0.57764 0.0
C1840 C 0.69398 0.04143 0.5339 0.0
H1841 H 0.6933 0.97364 0.5057 0.0
C1842 C 0.69481 0.07302 0.52405 0.0
C1843 C 0.69332 1.00513 0.52714 0.0
C1844 C 0.69123 0.97003 0.53691 0.0
C1845 C 0.69458 0.06942 0.50774 0.0
C1846 C 0.69418 0.03311 0.50098 0.0
C1847 C 0.69375 1.0015 0.51083 0.0
C1848 C 0.69271 0.02715 0.48379 0.0
C1849 C 0.69383 0.10468 0.49797 0.0
C1850 C 0.67562 1.00556 0.47767 0.0
C1851 C 0.674 0.99923 0.46166 0.0
C1852 C 0.68937 0.01444 0.45128 0.0
C1853 C 0.70643 0.0363 0.45735 0.0
C1854 C 0.70822 0.04225 0.47347 0.0
H1855 H 0.68831 0.1294 0.50483 0.0
H1856 H 0.71039 0.11088 0.49351 0.0
H1857 H 0.68277 0.10121 0.48786 0.0
H1858 H 0.66339 0.99369 0.48531 0.0
H1859 H 0.6605 0.98268 0.45737 0.0
H1860 H 0.33722 0.09163 0.45653 0.0
H1861 H 0.33394 0.08218 0.48454 0.0
H1862 H 0.27664 0.01448 0.47729 0.0
H1863 H 0.28019 0.02336 0.44903 0.0
H1864 H 0.30276 0.10222 0.50432 0.0
H1865 H 0.31125 0.94683 0.50541 0.0
H1866 H 0.31677 0.97428 0.4882 0.0
H1867 H 0.28919 0.96348 0.49359 0.0
C1868 C 0.32388 0.07476 0.46087 0.0
C1869 C 0.30892 0.05831 0.45052 0.0
C1870 C 0.32204 0.0693 0.47692 0.0
C1871 C 0.30516 0.04733 0.48312 0.0
C1872 C 0.2901 0.03087 0.47283 0.0
H1873 H 0.28008 0.05446 0.58471 0.0
H1874 H 0.2763 0.06305 0.55646 0.0
C1875 C 0.29209 0.03602 0.45668 0.0
C1876 C 0.30344 0.04245 0.50035 0.0
H1877 H 0.30394 0.97667 0.52939 0.0
C1878 C 0.30294 0.07474 0.5098 0.0
C1879 C 0.30385 1.00662 0.50756 0.0
C1880 C 0.3055 0.97081 0.4982 0.0
C1881 C 0.30329 0.07228 0.52615 0.0
C1882 C 0.30356 0.03645 0.53336 0.0
C1883 C 0.30361 1.00415 0.52391 0.0
C1884 C 0.3054 0.03167 0.55058 0.0
C1885 C 0.30433 0.10816 0.5355 0.0
C1886 C 0.32269 0.0106 0.55675 0.0
C1887 C 0.32468 1.00531 0.57281 0.0
C1888 C 0.30945 0.02102 0.58318 0.0
C1889 C 0.2922 0.0424 0.57705 0.0
C1890 C 0.29007 0.04737 0.56089 0.0
H1891 H 0.30964 0.13241 0.52828 0.0
H1892 H 0.28792 0.11468 0.54015 0.0
H1893 H 0.31569 0.10526 0.54547 0.0
H1894 H 0.3348 0.99833 0.54912 0.0
H1895 H 0.33833 0.98915 0.57712 0.0
H1896 H 0.70466 0.61522 0.07627 0.0
H1897 H 0.70576 0.60229 0.0485 0.0
H1898 H 0.69103 0.48572 0.05742 0.0
H1899 H 0.68876 0.4989 0.08536 0.0
H1900 H 0.73029 0.55815 0.03069 0.0
H1901 H 0.6444 0.51131 0.02636 0.0
H1902 H 0.65516 0.53313 0.04365 0.0
H1903 H 0.66034 0.4842 0.03978 0.0
C1904 C 0.70136 0.58685 0.07241 0.0
C1905 C 0.69614 0.55831 0.08317 0.0
C1906 C 0.70221 0.57943 0.05645 0.0
C1907 C 0.69798 0.54322 0.05074 0.0
C1908 C 0.69376 0.51416 0.06146 0.0
H1909 H 0.69287 0.45415 0.95655 0.0
H1910 H 0.69592 0.46281 0.98459 0.0
C1911 C 0.69275 0.52164 0.07749 0.0
C1912 C 0.69781 0.53648 0.03359 0.0
H1913 H 0.66577 0.50635 1.00354 0.0
C1914 C 0.71616 0.54684 0.02477 0.0
C1915 C 0.67933 0.52196 0.02578 0.0
C1916 C 0.65861 0.51234 0.03433 0.0
C1917 C 0.71658 0.54281 1.00847 0.0
C1918 C 0.69815 0.52821 1.00073 0.0
C1919 C 0.6799 0.51752 1.00951 0.0
C1920 C 0.69746 0.52345 0.98353 0.0
C1921 C 0.73683 0.55377 0.99965 0.0
C1922 C 0.6974 0.55474 0.97352 0.0
C1923 C 0.69537 0.54994 0.95736 0.0
C1924 C 0.69333 0.51372 0.9509 0.0
C1925 C 0.69395 0.4825 0.96102 0.0
C1926 C 0.69584 0.48735 0.97711 0.0
H1927 H 0.75102 0.55755 1.00749 0.0
H1928 H 0.74092 0.53215 0.99079 0.0
H1929 H 0.73388 0.58071 0.99347 0.0
H1930 H 0.69836 0.58293 0.97824 0.0
H1931 H 0.69474 0.57465 0.95003 0.0
H1932 H 0.33695 0.59589 0.95782 0.0
H1933 H 0.33386 0.58524 0.98577 0.0
H1934 H 0.2769 0.51689 0.97818 0.0
H1935 H 0.28033 0.52687 0.94997 0.0
H1936 H 0.30301 0.60413 1.00572 0.0
H1937 H 0.31146 0.44877 1.00592 0.0
H1938 H 0.31677 0.47673 0.98883 0.0
H1939 H 0.28925 0.4656 0.99429 0.0
C1940 C 0.32375 0.57857 0.96208 0.0
C1941 C 0.30885 0.56227 0.95166 0.0
C1942 C 0.32201 0.57244 0.9781 0.0
C1943 C 0.30526 0.54997 0.98419 0.0
C1944 C 0.29027 0.53364 0.97381 0.0
H1945 H 0.28005 0.5542 0.0858 0.0
H1946 H 0.2765 0.56394 0.05759 0.0
C1947 C 0.29219 0.53942 0.95769 0.0
C1948 C 0.30359 0.54449 1.0014 0.0
H1949 H 0.30388 0.47774 0.03005 0.0
C1950 C 0.30314 0.57646 1.01103 0.0
C1951 C 0.30394 0.50843 1.0084 0.0
C1952 C 0.30559 0.47291 0.99885 0.0
C1953 C 0.30348 0.57346 0.02737 0.0
C1954 C 0.30362 0.53739 0.03437 0.0
C1955 C 0.30363 0.50541 0.02473 0.0
C1956 C 0.30535 0.53199 0.05158 0.0
C1957 C 0.30462 0.60903 0.03691 0.0
C1958 C 0.3224 0.51019 0.05767 0.0
C1959 C 0.32422 0.5042 0.07369 0.0
C1960 C 0.30908 0.51994 0.08411 0.0
C1961 C 0.29209 0.54209 0.07808 0.0
C1962 C 0.29011 0.54773 0.06195 0.0
H1963 H 0.31016 0.63339 0.02984 0.0
H1964 H 0.28819 0.61572 0.04149 0.0
H1965 H 0.31585 0.60564 0.04693 0.0
H1966 H 0.33444 0.49786 0.05 0.0
H1967 H 0.33766 0.48743 0.07795 0.0
loop_
_geom_bond_atom_site_label_1
_geom_bond_atom_site_label_2
_geom_bond_distance
_geom_bond_site_symmetry_2
_ccdc_geom_bond_type
C0 C1 1.351 . S
C0 N3 1.368 . S
C0 H5 0.931 . S
C1 C0 1.351 . S
C1 N2 1.373 . S
C1 H29 0.930 . S
N2 C1 1.373 . S
N2 C4 1.340 . S
N3 C0 1.368 . S
N3 C4 1.321 . S
N3 Co6 2.135 . S
C4 N2 1.340 . S
C4 N3 1.321 . S
C4 H28 0.930 . S
H5 C0 0.931 . S
Co6 N3 2.135 . S
Co6 N9 2.121 . S
Co6 O14 2.055 . S
Co6 O17 2.039 1_545 S
Co6 N20 2.140 . S
C7 O8 1.227 . S
C7 O17 1.265 . S
O8 C7 1.227 . S
N9 Co6 2.121 . S
N9 C11 1.375 . S
N9 C12 1.313 . S
C10 C11 1.338 . S
C10 N13 1.377 . S
C10 H30 0.930 1_545 S
C11 N9 1.375 . S
C11 C10 1.338 . S
C11 H15 0.931 1_545 S
C12 N9 1.313 . S
C12 N13 1.344 . S
C12 H16 0.930 . S
N13 C10 1.377 . S
N13 C12 1.344 . S
O14 Co6 2.055 . S
O14 C18 1.253 . S
H15 C11 0.931 1_565 S
H16 C12 0.930 . S
O17 Co6 2.039 1_565 S
O17 C7 1.265 . S
C18 O14 1.253 . S
C18 O19 1.227 . S
O19 C18 1.227 . S
N20 Co6 2.140 . S
N20 C23 1.346 . S
N20 C24 1.345 . S
C21 C22 1.387 . S
C21 C25 1.391 . S
C22 C21 1.387 . S
C22 C23 1.369 . S
C22 H31 0.929 . S
C23 N20 1.346 . S
C23 C22 1.369 . S
C23 H26 0.928 . S
C24 N20 1.345 . S
C24 C25 1.371 . S
C24 H27 0.931 . S
C25 C21 1.391 . S
C25 C24 1.371 . S
C25 H32 0.930 . S
H26 C23 0.928 . S
H27 C24 0.931 . S
H28 C4 0.930 . S
H29 C1 0.930 . S
H30 C10 0.930 1_565 S
H31 C22 0.929 . S
H32 C25 0.930 . S
C33 C34 1.351 . S
C33 N36 1.368 1_565 S
C33 H38 0.931 . S
C34 C33 1.351 . S
C34 N35 1.373 1_565 S
C34 H62 0.930 . S
N35 C34 1.373 1_545 S
N35 C37 1.340 . S
N36 C33 1.368 1_545 S
N36 C37 1.321 . S
N36 Co39 2.135 . S
C37 N35 1.340 . S
C37 N36 1.321 . S
C37 H61 0.930 . S
H38 C33 0.931 . S
Co39 N36 2.135 . S
Co39 N42 2.121 . S
Co39 O47 2.055 1_545 S
Co39 O50 2.039 . S
Co39 N53 2.140 . S
C40 O41 1.227 . S
C40 O50 1.265 . S
O41 C40 1.227 . S
N42 Co39 2.121 . S
N42 C44 1.375 . S
N42 C45 1.313 . S
C43 C44 1.338 . S
C43 N46 1.377 . S
C43 H63 0.930 . S
C44 N42 1.375 . S
C44 C43 1.338 . S
C44 H48 0.931 . S
C45 N42 1.313 . S
C45 N46 1.344 . S
C45 H49 0.930 1_545 S
N46 C43 1.377 . S
N46 C45 1.344 . S
O47 Co39 2.055 1_565 S
O47 C51 1.253 . S
H48 C44 0.931 . S
H49 C45 0.930 1_565 S
O50 Co39 2.039 . S
O50 C40 1.265 . S
C51 O47 1.253 . S
C51 O52 1.227 . S
O52 C51 1.227 . S
N53 Co39 2.140 . S
N53 C56 1.346 . S
N53 C57 1.345 . S
C54 C55 1.387 . S
C54 C58 1.391 . S
C55 C54 1.387 . S
C55 C56 1.369 . S
C55 H64 0.929 . S
C56 N53 1.346 . S
C56 C55 1.369 . S
C56 H59 0.928 . S
C57 N53 1.345 . S
C57 C58 1.371 . S
C57 H60 0.931 1_545 S
C58 C54 1.391 . S
C58 C57 1.371 . S
C58 H65 0.930 1_545 S
H59 C56 0.928 . S
H60 C57 0.931 1_565 S
H61 C37 0.930 . S
H62 C34 0.930 . S
H63 C43 0.930 . S
H64 C55 0.929 . S
H65 C58 0.930 1_565 S
C66 C67 1.351 . S
C66 N69 1.368 1_565 S
C66 H71 0.931 . S
C67 C66 1.351 . S
C67 N68 1.373 1_565 S
C67 H95 0.930 . S
N68 C67 1.373 1_545 S
N68 C70 1.340 . S
N69 C66 1.368 1_545 S
N69 C70 1.321 . S
N69 Co72 2.135 . S
C70 N68 1.340 . S
C70 N69 1.321 . S
C70 H94 0.930 . S
H71 C66 0.931 . S
Co72 N69 2.135 . S
Co72 N75 2.121 . S
Co72 O80 2.055 1_545 S
Co72 O83 2.039 . S
Co72 N86 2.140 . S
C73 O74 1.227 . S
C73 O83 1.265 . S
O74 C73 1.227 . S
N75 Co72 2.121 . S
N75 C77 1.375 . S
N75 C78 1.313 . S
C76 C77 1.338 . S
C76 N79 1.377 . S
C76 H96 0.930 . S
C77 N75 1.375 . S
C77 C76 1.338 . S
C77 H81 0.931 . S
C78 N75 1.313 . S
C78 N79 1.344 . S
C78 H82 0.930 1_545 S
N79 C76 1.377 . S
N79 C78 1.344 . S
O80 Co72 2.055 1_565 S
O80 C84 1.253 . S
H81 C77 0.931 . S
H82 C78 0.930 1_565 S
O83 Co72 2.039 . S
O83 C73 1.265 . S
C84 O80 1.253 . S
C84 O85 1.227 . S
O85 C84 1.227 . S
N86 Co72 2.140 . S
N86 C89 1.346 . S
N86 C90 1.345 . S
C87 C88 1.387 . S
C87 C91 1.391 . S
C88 C87 1.387 . S
C88 C89 1.369 . S
C88 H97 0.929 . S
C89 N86 1.346 . S
C89 C88 1.369 . S
C89 H92 0.928 . S
C90 N86 1.345 . S
C90 C91 1.371 . S
C90 H93 0.931 1_545 S
C91 C87 1.391 . S
C91 C90 1.371 . S
C91 H98 0.930 1_545 S
H92 C89 0.928 . S
H93 C90 0.931 1_565 S
H94 C70 0.930 . S
H95 C67 0.930 . S
H96 C76 0.930 . S
H97 C88 0.929 . S
H98 C91 0.930 1_565 S
C99 C100 1.351 . S
C99 N102 1.368 . S
C99 H104 0.931 . S
C100 C99 1.351 . S
C100 N101 1.373 . S
C100 H128 0.930 . S
N101 C100 1.373 . S
N101 C103 1.340 . S
N102 C99 1.368 . S
N102 C103 1.321 . S
N102 Co105 2.135 . S
C103 N101 1.340 . S
C103 N102 1.321 . S
C103 H127 0.930 . S
H104 C99 0.931 . S
Co105 N102 2.135 . S
Co105 N108 2.121 . S
Co105 O113 2.055 . S
Co105 O116 2.039 1_545 S
Co105 N119 2.140 . S
C106 O107 1.227 . S
C106 O116 1.265 . S
O107 C106 1.227 . S
N108 Co105 2.121 . S
N108 C110 1.375 . S
N108 C111 1.313 . S
C109 C110 1.338 . S
C109 N112 1.377 . S
C109 H129 0.930 1_545 S
C110 N108 1.375 . S
C110 C109 1.338 . S
C110 H114 0.931 1_545 S
C111 N108 1.313 . S
C111 N112 1.344 . S
C111 H115 0.930 . S
N112 C109 1.377 . S
N112 C111 1.344 . S
O113 Co105 2.055 . S
O113 C117 1.253 . S
H114 C110 0.931 1_565 S
H115 C111 0.930 . S
O116 Co105 2.039 1_565 S
O116 C106 1.265 . S
C117 O113 1.253 . S
C117 O118 1.227 . S
O118 C117 1.227 . S
N119 Co105 2.140 . S
N119 C122 1.346 . S
N119 C123 1.345 . S
C120 C121 1.387 . S
C120 C124 1.391 . S
C121 C120 1.387 . S
C121 C122 1.369 . S
C121 H130 0.929 . S
C122 N119 1.346 . S
C122 C121 1.369 . S
C122 H125 0.928 . S
C123 N119 1.345 . S
C123 C124 1.371 . S
C123 H126 0.931 . S
C124 C120 1.391 . S
C124 C123 1.371 . S
C124 H131 0.930 . S
H125 C122 0.928 . S
H126 C123 0.931 . S
H127 C103 0.930 . S
H128 C100 0.930 . S
H129 C109 0.930 1_565 S
H130 C121 0.929 . S
H131 C124 0.930 . S
C132 C133 1.351 . S
C132 N135 1.368 . S
C132 H137 0.931 . S
C133 C132 1.351 . S
C133 N134 1.373 . S
C133 H161 0.930 . S
N134 C133 1.373 . S
N134 C136 1.340 . S
N135 C132 1.368 . S
N135 C136 1.321 . S
N135 Co138 2.135 . S
C136 N134 1.340 . S
C136 N135 1.321 . S
C136 H160 0.930 . S
H137 C132 0.931 . S
Co138 N135 2.135 . S
Co138 N141 2.121 . S
Co138 O146 2.055 . S
Co138 O149 2.039 . S
Co138 N152 2.140 . S
C139 O140 1.227 . S
C139 O149 1.265 . S
O140 C139 1.227 . S
N141 Co138 2.121 . S
N141 C143 1.375 . S
N141 C144 1.313 . S
C142 C143 1.338 . S
C142 N145 1.377 . S
C142 H162 0.930 . S
C143 N141 1.375 . S
C143 C142 1.338 . S
C143 H147 0.931 . S
C144 N141 1.313 . S
C144 N145 1.344 . S
C144 H148 0.930 . S
N145 C142 1.377 . S
N145 C144 1.344 . S
O146 Co138 2.055 . S
O146 C150 1.253 . S
H147 C143 0.931 . S
H148 C144 0.930 . S
O149 Co138 2.039 . S
O149 C139 1.265 . S
C150 O146 1.253 . S
C150 O151 1.227 . S
O151 C150 1.227 . S
N152 Co138 2.140 . S
N152 C155 1.346 . S
N152 C156 1.345 . S
C153 C154 1.387 . S
C153 C157 1.391 . S
C154 C153 1.387 . S
C154 C155 1.369 . S
C154 H163 0.929 . S
C155 N152 1.346 . S
C155 C154 1.369 . S
C155 H158 0.928 . S
C156 N152 1.345 . S
C156 C157 1.371 . S
C156 H159 0.931 . S
C157 C153 1.391 . S
C157 C156 1.371 . S
C157 H164 0.930 . S
H158 C155 0.928 . S
H159 C156 0.931 . S
H160 C136 0.930 . S
H161 C133 0.930 . S
H162 C142 0.930 . S
H163 C154 0.929 . S
H164 C157 0.930 . S
C165 C166 1.351 . S
C165 N168 1.368 . S
C165 H170 0.931 . S
C166 C165 1.351 . S
C166 N167 1.373 . S
C166 H194 0.930 . S
N167 C166 1.373 . S
N167 C169 1.340 . S
N168 C165 1.368 . S
N168 C169 1.321 . S
N168 Co171 2.135 . S
C169 N167 1.340 . S
C169 N168 1.321 . S
C169 H193 0.930 . S
H170 C165 0.931 . S
Co171 N168 2.135 . S
Co171 N174 2.121 . S
Co171 O179 2.055 . S
Co171 O182 2.039 . S
Co171 N185 2.140 . S
C172 O173 1.227 . S
C172 O182 1.265 . S
O173 C172 1.227 . S
N174 Co171 2.121 . S
N174 C176 1.375 . S
N174 C177 1.313 . S
C175 C176 1.338 . S
C175 N178 1.377 . S
C175 H195 0.930 . S
C176 N174 1.375 . S
C176 C175 1.338 . S
C176 H180 0.931 . S
C177 N174 1.313 . S
C177 N178 1.344 . S
C177 H181 0.930 . S
N178 C175 1.377 . S
N178 C177 1.344 . S
O179 Co171 2.055 . S
O179 C183 1.253 . S
H180 C176 0.931 . S
H181 C177 0.930 . S
O182 Co171 2.039 . S
O182 C172 1.265 . S
C183 O179 1.253 . S
C183 O184 1.227 . S
O184 C183 1.227 . S
N185 Co171 2.140 . S
N185 C188 1.346 . S
N185 C189 1.345 . S
C186 C187 1.387 . S
C186 C190 1.391 . S
C187 C186 1.387 . S
C187 C188 1.369 . S
C187 H196 0.929 . S
C188 N185 1.346 . S
C188 C187 1.369 . S
C188 H191 0.928 . S
C189 N185 1.345 . S
C189 C190 1.371 . S
C189 H192 0.931 . S
C190 C186 1.391 . S
C190 C189 1.371 . S
C190 H197 0.930 . S
H191 C188 0.928 . S
H192 C189 0.931 . S
H193 C169 0.930 . S
H194 C166 0.930 . S
H195 C175 0.930 . S
H196 C187 0.929 . S
H197 C190 0.930 . S
C198 C199 1.351 . S
C198 N201 1.368 . S
C198 H203 0.931 . S
C199 C198 1.351 . S
C199 N200 1.373 . S
C199 H227 0.930 . S
N200 C199 1.373 . S
N200 C202 1.340 . S
N201 C198 1.368 . S
N201 C202 1.321 . S
N201 Co204 2.135 . S
C202 N200 1.340 . S
C202 N201 1.321 . S
C202 H226 0.930 . S
H203 C198 0.931 . S
Co204 N201 2.135 . S
Co204 N207 2.121 . S
Co204 O212 2.055 . S
Co204 O215 2.039 . S
Co204 N218 2.140 . S
C205 O206 1.227 . S
C205 O215 1.265 . S
O206 C205 1.227 . S
N207 Co204 2.121 . S
N207 C209 1.375 . S
N207 C210 1.313 . S
C208 C209 1.338 . S
C208 N211 1.377 . S
C208 H228 0.930 . S
C209 N207 1.375 . S
C209 C208 1.338 . S
C209 H213 0.931 . S
C210 N207 1.313 . S
C210 N211 1.344 . S
C210 H214 0.930 . S
N211 C208 1.377 . S
N211 C210 1.344 . S
O212 Co204 2.055 . S
O212 C216 1.253 . S
H213 C209 0.931 . S
H214 C210 0.930 . S
O215 Co204 2.039 . S
O215 C205 1.265 . S
C216 O212 1.253 . S
C216 O217 1.227 . S
O217 C216 1.227 . S
N218 Co204 2.140 . S
N218 C221 1.346 . S
N218 C222 1.345 . S
C219 C220 1.387 . S
C219 C223 1.391 . S
C220 C219 1.387 . S
C220 C221 1.369 . S
C220 H229 0.929 . S
C221 N218 1.346 . S
C221 C220 1.369 . S
C221 H224 0.928 . S
C222 N218 1.345 . S
C222 C223 1.371 . S
C222 H225 0.931 . S
C223 C219 1.391 . S
C223 C222 1.371 . S
C223 H230 0.930 . S
H224 C221 0.928 . S
H225 C222 0.931 . S
H226 C202 0.930 . S
H227 C199 0.930 . S
H228 C208 0.930 . S
H229 C220 0.929 . S
H230 C223 0.930 . S
C231 C232 1.351 . S
C231 N234 1.368 . S
C231 H236 0.931 . S
C232 C231 1.351 . S
C232 N233 1.373 . S
C232 H260 0.930 . S
N233 C232 1.373 . S
N233 C235 1.340 . S
N234 C231 1.368 . S
N234 C235 1.321 . S
N234 Co237 2.135 . S
C235 N233 1.340 . S
C235 N234 1.321 . S
C235 H259 0.930 . S
H236 C231 0.931 . S
Co237 N234 2.135 . S
Co237 N240 2.121 . S
Co237 O245 2.055 . S
Co237 O248 2.039 . S
Co237 N251 2.140 . S
C238 O239 1.227 . S
C238 O248 1.265 . S
O239 C238 1.227 . S
N240 Co237 2.121 . S
N240 C242 1.375 . S
N240 C243 1.313 . S
C241 C242 1.338 . S
C241 N244 1.377 . S
C241 H261 0.930 . S
C242 N240 1.375 . S
C242 C241 1.338 . S
C242 H246 0.931 . S
C243 N240 1.313 . S
C243 N244 1.344 . S
C243 H247 0.930 . S
N244 C241 1.377 . S
N244 C243 1.344 . S
O245 Co237 2.055 . S
O245 C249 1.253 . S
H246 C242 0.931 . S
H247 C243 0.930 . S
O248 Co237 2.039 . S
O248 C238 1.265 . S
C249 O245 1.253 . S
C249 O250 1.227 . S
O250 C249 1.227 . S
N251 Co237 2.140 . S
N251 C254 1.346 . S
N251 C255 1.345 . S
C252 C253 1.387 . S
C252 C256 1.391 . S
C253 C252 1.387 . S
C253 C254 1.369 . S
C253 H262 0.929 . S
C254 N251 1.346 . S
C254 C253 1.369 . S
C254 H257 0.928 . S
C255 N251 1.345 . S
C255 C256 1.371 . S
C255 H258 0.931 . S
C256 C252 1.391 . S
C256 C255 1.371 . S
C256 H263 0.930 . S
H257 C254 0.928 . S
H258 C255 0.931 . S
H259 C235 0.930 . S
H260 C232 0.930 . S
H261 C241 0.930 . S
H262 C253 0.929 . S
H263 C256 0.930 . S
C264 C265 1.351 . S
C264 N267 1.368 . S
C264 H269 0.931 . S
C265 C264 1.351 . S
C265 N266 1.373 . S
C265 H293 0.930 . S
N266 C265 1.373 . S
N266 C268 1.340 . S
N267 C264 1.368 . S
N267 C268 1.321 . S
N267 Co270 2.135 . S
C268 N266 1.340 . S
C268 N267 1.321 . S
C268 H292 0.930 . S
H269 C264 0.931 . S
Co270 N267 2.135 . S
Co270 N273 2.121 . S
Co270 O278 2.055 . S
Co270 O281 2.039 1_545 S
Co270 N284 2.140 . S
C271 O272 1.227 . S
C271 O281 1.265 . S
O272 C271 1.227 . S
N273 Co270 2.121 . S
N273 C275 1.375 . S
N273 C276 1.313 . S
C274 C275 1.338 . S
C274 N277 1.377 . S
C274 H294 0.930 1_545 S
C275 N273 1.375 . S
C275 C274 1.338 . S
C275 H279 0.931 1_545 S
C276 N273 1.313 . S
C276 N277 1.344 . S
C276 H280 0.930 . S
N277 C274 1.377 . S
N277 C276 1.344 . S
O278 Co270 2.055 . S
O278 C282 1.253 . S
H279 C275 0.931 1_565 S
H280 C276 0.930 . S
O281 Co270 2.039 1_565 S
O281 C271 1.265 . S
C282 O278 1.253 . S
C282 O283 1.227 . S
O283 C282 1.227 . S
N284 Co270 2.140 . S
N284 C287 1.346 . S
N284 C288 1.345 . S
C285 C286 1.387 . S
C285 C289 1.391 . S
C286 C285 1.387 . S
C286 C287 1.369 . S
C286 H295 0.929 . S
C287 N284 1.346 . S
C287 C286 1.369 . S
C287 H290 0.928 . S
C288 N284 1.345 . S
C288 C289 1.371 . S
C288 H291 0.931 . S
C289 C285 1.391 . S
C289 C288 1.371 . S
C289 H296 0.930 . S
H290 C287 0.928 . S
H291 C288 0.931 . S
H292 C268 0.930 . S
H293 C265 0.930 . S
H294 C274 0.930 1_565 S
H295 C286 0.929 . S
H296 C289 0.930 . S
C297 C298 1.351 . S
C297 N300 1.368 1_565 S
C297 H302 0.931 . S
C298 C297 1.351 . S
C298 N299 1.373 1_565 S
C298 H326 0.930 . S
N299 C298 1.373 1_545 S
N299 C301 1.340 . S
N300 C297 1.368 1_545 S
N300 C301 1.321 . S
N300 Co303 2.135 . S
C301 N299 1.340 . S
C301 N300 1.321 . S
C301 H325 0.930 . S
H302 C297 0.931 . S
Co303 N300 2.135 . S
Co303 N306 2.121 . S
Co303 O311 2.055 1_545 S
Co303 O314 2.039 . S
Co303 N317 2.140 . S
C304 O305 1.227 . S
C304 O314 1.265 . S
O305 C304 1.227 . S
N306 Co303 2.121 . S
N306 C308 1.375 . S
N306 C309 1.313 . S
C307 C308 1.338 . S
C307 N310 1.377 . S
C307 H327 0.930 . S
C308 N306 1.375 . S
C308 C307 1.338 . S
C308 H312 0.931 . S
C309 N306 1.313 . S
C309 N310 1.344 . S
C309 H313 0.930 1_545 S
N310 C307 1.377 . S
N310 C309 1.344 . S
O311 Co303 2.055 1_565 S
O311 C315 1.253 . S
H312 C308 0.931 . S
H313 C309 0.930 1_565 S
O314 Co303 2.039 . S
O314 C304 1.265 . S
C315 O311 1.253 . S
C315 O316 1.227 . S
O316 C315 1.227 . S
N317 Co303 2.140 . S
N317 C320 1.346 . S
N317 C321 1.345 . S
C318 C319 1.387 . S
C318 C322 1.391 . S
C319 C318 1.387 . S
C319 C320 1.369 . S
C319 H328 0.929 . S
C320 N317 1.346 . S
C320 C319 1.369 . S
C320 H323 0.928 . S
C321 N317 1.345 . S
C321 C322 1.371 . S
C321 H324 0.931 1_545 S
C322 C318 1.391 . S
C322 C321 1.371 . S
C322 H329 0.930 1_545 S
H323 C320 0.928 . S
H324 C321 0.931 1_565 S
H325 C301 0.930 . S
H326 C298 0.930 . S
H327 C307 0.930 . S
H328 C319 0.929 . S
H329 C322 0.930 1_565 S
C330 C331 1.351 . S
C330 N333 1.368 1_565 S
C330 H335 0.931 . S
C331 C330 1.351 . S
C331 N332 1.373 1_565 S
C331 H359 0.930 . S
N332 C331 1.373 1_545 S
N332 C334 1.340 . S
N333 C330 1.368 1_545 S
N333 C334 1.321 . S
N333 Co336 2.135 . S
C334 N332 1.340 . S
C334 N333 1.321 . S
C334 H358 0.930 . S
H335 C330 0.931 . S
Co336 N333 2.135 . S
Co336 N339 2.121 . S
Co336 O344 2.055 1_545 S
Co336 O347 2.039 . S
Co336 N350 2.140 . S
C337 O338 1.227 . S
C337 O347 1.265 . S
O338 C337 1.227 . S
N339 Co336 2.121 . S
N339 C341 1.375 . S
N339 C342 1.313 . S
C340 C341 1.338 . S
C340 N343 1.377 . S
C340 H360 0.930 . S
C341 N339 1.375 . S
C341 C340 1.338 . S
C341 H345 0.931 . S
C342 N339 1.313 . S
C342 N343 1.344 . S
C342 H346 0.930 1_545 S
N343 C340 1.377 . S
N343 C342 1.344 . S
O344 Co336 2.055 1_565 S
O344 C348 1.253 . S
H345 C341 0.931 . S
H346 C342 0.930 1_565 S
O347 Co336 2.039 . S
O347 C337 1.265 . S
C348 O344 1.253 . S
C348 O349 1.227 . S
O349 C348 1.227 . S
N350 Co336 2.140 . S
N350 C353 1.346 . S
N350 C354 1.345 . S
C351 C352 1.387 . S
C351 C355 1.391 . S
C352 C351 1.387 . S
C352 C353 1.369 . S
C352 H361 0.929 . S
C353 N350 1.346 . S
C353 C352 1.369 . S
C353 H356 0.928 . S
C354 N350 1.345 . S
C354 C355 1.371 . S
C354 H357 0.931 1_545 S
C355 C351 1.391 . S
C355 C354 1.371 . S
C355 H362 0.930 1_545 S
H356 C353 0.928 . S
H357 C354 0.931 1_565 S
H358 C334 0.930 . S
H359 C331 0.930 . S
H360 C340 0.930 . S
H361 C352 0.929 . S
H362 C355 0.930 1_565 S
C363 C364 1.351 . S
C363 N366 1.368 . S
C363 H368 0.931 . S
C364 C363 1.351 . S
C364 N365 1.373 . S
C364 H392 0.930 . S
N365 C364 1.373 . S
N365 C367 1.340 . S
N366 C363 1.368 . S
N366 C367 1.321 . S
N366 Co369 2.135 . S
C367 N365 1.340 . S
C367 N366 1.321 . S
C367 H391 0.930 . S
H368 C363 0.931 . S
Co369 N366 2.135 . S
Co369 N372 2.121 . S
Co369 O377 2.055 . S
Co369 O380 2.039 1_545 S
Co369 N383 2.140 . S
C370 O371 1.227 . S
C370 O380 1.265 . S
O371 C370 1.227 . S
N372 Co369 2.121 . S
N372 C374 1.375 . S
N372 C375 1.313 . S
C373 C374 1.338 . S
C373 N376 1.377 . S
C373 H393 0.930 1_545 S
C374 N372 1.375 . S
C374 C373 1.338 . S
C374 H378 0.931 1_545 S
C375 N372 1.313 . S
C375 N376 1.344 . S
C375 H379 0.930 . S
N376 C373 1.377 . S
N376 C375 1.344 . S
O377 Co369 2.055 . S
O377 C381 1.253 . S
H378 C374 0.931 1_565 S
H379 C375 0.930 . S
O380 Co369 2.039 1_565 S
O380 C370 1.265 . S
C381 O377 1.253 . S
C381 O382 1.227 . S
O382 C381 1.227 . S
N383 Co369 2.140 . S
N383 C386 1.346 . S
N383 C387 1.345 . S
C384 C385 1.387 . S
C384 C388 1.391 . S
C385 C384 1.387 . S
C385 C386 1.369 . S
C385 H394 0.929 . S
C386 N383 1.346 . S
C386 C385 1.369 . S
C386 H389 0.928 . S
C387 N383 1.345 . S
C387 C388 1.371 . S
C387 H390 0.931 . S
C388 C384 1.391 . S
C388 C387 1.371 . S
C388 H395 0.930 . S
H389 C386 0.928 . S
H390 C387 0.931 . S
H391 C367 0.930 . S
H392 C364 0.930 . S
H393 C373 0.930 1_565 S
H394 C385 0.929 . S
H395 C388 0.930 . S
C396 C397 1.351 . S
C396 N399 1.368 . S
C396 H401 0.931 . S
C397 C396 1.351 . S
C397 N398 1.373 . S
C397 H425 0.930 . S
N398 C397 1.373 . S
N398 C400 1.340 . S
N399 C396 1.368 . S
N399 C400 1.321 . S
N399 Co402 2.135 . S
C400 N398 1.340 . S
C400 N399 1.321 . S
C400 H424 0.930 . S
H401 C396 0.931 . S
Co402 N399 2.135 . S
Co402 N405 2.121 . S
Co402 O410 2.055 . S
Co402 O413 2.039 . S
Co402 N416 2.140 . S
C403 O404 1.227 . S
C403 O413 1.265 . S
O404 C403 1.227 . S
N405 Co402 2.121 . S
N405 C407 1.375 . S
N405 C408 1.313 . S
C406 C407 1.338 . S
C406 N409 1.377 . S
C406 H426 0.930 . S
C407 N405 1.375 . S
C407 C406 1.338 . S
C407 H411 0.931 . S
C408 N405 1.313 . S
C408 N409 1.344 . S
C408 H412 0.930 . S
N409 C406 1.377 . S
N409 C408 1.344 . S
O410 Co402 2.055 . S
O410 C414 1.253 . S
H411 C407 0.931 . S
H412 C408 0.930 . S
O413 Co402 2.039 . S
O413 C403 1.265 . S
C414 O410 1.253 . S
C414 O415 1.227 . S
O415 C414 1.227 . S
N416 Co402 2.140 . S
N416 C419 1.346 . S
N416 C420 1.345 . S
C417 C418 1.387 . S
C417 C421 1.391 . S
C418 C417 1.387 . S
C418 C419 1.369 . S
C418 H427 0.929 . S
C419 N416 1.346 . S
C419 C418 1.369 . S
C419 H422 0.928 . S
C420 N416 1.345 . S
C420 C421 1.371 . S
C420 H423 0.931 . S
C421 C417 1.391 . S
C421 C420 1.371 . S
C421 H428 0.930 . S
H422 C419 0.928 . S
H423 C420 0.931 . S
H424 C400 0.930 . S
H425 C397 0.930 . S
H426 C406 0.930 . S
H427 C418 0.929 . S
H428 C421 0.930 . S
C429 C430 1.351 . S
C429 N432 1.368 . S
C429 H434 0.931 . S
C430 C429 1.351 . S
C430 N431 1.373 . S
C430 H458 0.930 . S
N431 C430 1.373 . S
N431 C433 1.340 . S
N432 C429 1.368 . S
N432 C433 1.321 . S
N432 Co435 2.135 . S
C433 N431 1.340 . S
C433 N432 1.321 . S
C433 H457 0.930 . S
H434 C429 0.931 . S
Co435 N432 2.135 . S
Co435 N438 2.121 . S
Co435 O443 2.055 . S
Co435 O446 2.039 . S
Co435 N449 2.140 . S
C436 O437 1.227 . S
C436 O446 1.265 . S
O437 C436 1.227 . S
N438 Co435 2.121 . S
N438 C440 1.375 . S
N438 C441 1.313 . S
C439 C440 1.338 . S
C439 N442 1.377 . S
C439 H459 0.930 . S
C440 N438 1.375 . S
C440 C439 1.338 . S
C440 H444 0.931 . S
C441 N438 1.313 . S
C441 N442 1.344 . S
C441 H445 0.930 . S
N442 C439 1.377 . S
N442 C441 1.344 . S
O443 Co435 2.055 . S
O443 C447 1.253 . S
H444 C440 0.931 . S
H445 C441 0.930 . S
O446 Co435 2.039 . S
O446 C436 1.265 . S
C447 O443 1.253 . S
C447 O448 1.227 . S
O448 C447 1.227 . S
N449 Co435 2.140 . S
N449 C452 1.346 . S
N449 C453 1.345 . S
C450 C451 1.387 . S
C450 C454 1.391 . S
C451 C450 1.387 . S
C451 C452 1.369 . S
C451 H460 0.929 . S
C452 N449 1.346 . S
C452 C451 1.369 . S
C452 H455 0.928 . S
C453 N449 1.345 . S
C453 C454 1.371 . S
C453 H456 0.931 . S
C454 C450 1.391 . S
C454 C453 1.371 . S
C454 H461 0.930 . S
H455 C452 0.928 . S
H456 C453 0.931 . S
H457 C433 0.930 . S
H458 C430 0.930 . S
H459 C439 0.930 . S
H460 C451 0.929 . S
H461 C454 0.930 . S
C462 C463 1.351 . S
C462 N465 1.368 . S
C462 H467 0.931 . S
C463 C462 1.351 . S
C463 N464 1.373 . S
C463 H491 0.930 . S
N464 C463 1.373 . S
N464 C466 1.340 . S
N465 C462 1.368 . S
N465 C466 1.321 . S
N465 Co468 2.135 . S
C466 N464 1.340 . S
C466 N465 1.321 . S
C466 H490 0.930 . S
H467 C462 0.931 . S
Co468 N465 2.135 . S
Co468 N471 2.121 . S
Co468 O476 2.055 . S
Co468 O479 2.039 . S
Co468 N482 2.140 . S
C469 O470 1.227 . S
C469 O479 1.265 . S
O470 C469 1.227 . S
N471 Co468 2.121 . S
N471 C473 1.375 . S
N471 C474 1.313 . S
C472 C473 1.338 . S
C472 N475 1.377 . S
C472 H492 0.930 . S
C473 N471 1.375 . S
C473 C472 1.338 . S
C473 H477 0.931 . S
C474 N471 1.313 . S
C474 N475 1.344 . S
C474 H478 0.930 . S
N475 C472 1.377 . S
N475 C474 1.344 . S
O476 Co468 2.055 . S
O476 C480 1.253 . S
H477 C473 0.931 . S
H478 C474 0.930 . S
O479 Co468 2.039 . S
O479 C469 1.265 . S
C480 O476 1.253 . S
C480 O481 1.227 . S
O481 C480 1.227 . S
N482 Co468 2.140 . S
N482 C485 1.346 . S
N482 C486 1.345 . S
C483 C484 1.387 . S
C483 C487 1.391 . S
C484 C483 1.387 . S
C484 C485 1.369 . S
C484 H493 0.929 . S
C485 N482 1.346 . S
C485 C484 1.369 . S
C485 H488 0.928 . S
C486 N482 1.345 . S
C486 C487 1.371 . S
C486 H489 0.931 . S
C487 C483 1.391 . S
C487 C486 1.371 . S
C487 H494 0.930 . S
H488 C485 0.928 . S
H489 C486 0.931 . S
H490 C466 0.930 . S
H491 C463 0.930 . S
H492 C472 0.930 . S
H493 C484 0.929 . S
H494 C487 0.930 . S
C495 C496 1.351 . S
C495 N498 1.368 . S
C495 H500 0.931 . S
C496 C495 1.351 . S
C496 N497 1.373 . S
C496 H524 0.930 . S
N497 C496 1.373 . S
N497 C499 1.340 . S
N498 C495 1.368 . S
N498 C499 1.321 . S
N498 Co501 2.135 . S
C499 N497 1.340 . S
C499 N498 1.321 . S
C499 H523 0.930 . S
H500 C495 0.931 . S
Co501 N498 2.135 . S
Co501 N504 2.121 . S
Co501 O509 2.055 . S
Co501 O512 2.039 . S
Co501 N515 2.140 . S
C502 O503 1.227 . S
C502 O512 1.265 . S
O503 C502 1.227 . S
N504 Co501 2.121 . S
N504 C506 1.375 . S
N504 C507 1.313 . S
C505 C506 1.338 . S
C505 N508 1.377 . S
C505 H525 0.930 . S
C506 N504 1.375 . S
C506 C505 1.338 . S
C506 H510 0.931 . S
C507 N504 1.313 . S
C507 N508 1.344 . S
C507 H511 0.930 . S
N508 C505 1.377 . S
N508 C507 1.344 . S
O509 Co501 2.055 . S
O509 C513 1.253 . S
H510 C506 0.931 . S
H511 C507 0.930 . S
O512 Co501 2.039 . S
O512 C502 1.265 . S
C513 O509 1.253 . S
C513 O514 1.227 . S
O514 C513 1.227 . S
N515 Co501 2.140 . S
N515 C518 1.346 . S
N515 C519 1.345 . S
C516 C517 1.387 . S
C516 C520 1.391 . S
C517 C516 1.387 . S
C517 C518 1.369 . S
C517 H526 0.929 . S
C518 N515 1.346 . S
C518 C517 1.369 . S
C518 H521 0.928 . S
C519 N515 1.345 . S
C519 C520 1.371 . S
C519 H522 0.931 . S
C520 C516 1.391 . S
C520 C519 1.371 . S
C520 H527 0.930 . S
H521 C518 0.928 . S
H522 C519 0.931 . S
H523 C499 0.930 . S
H524 C496 0.930 . S
H525 C505 0.930 . S
H526 C517 0.929 . S
H527 C520 0.930 . S
H528 C536 0.929 . S
H529 C538 0.930 . S
H530 C540 0.930 . S
H531 C543 0.929 . S
H532 C546 0.930 . S
H533 C548 0.960 1_565 S
H534 C548 0.960 1_565 S
H535 C548 0.960 . S
C536 H528 0.929 . S
C536 C537 1.377 . S
C536 C538 1.384 . S
C537 C536 1.377 . S
C537 C543 1.390 . S
C538 H529 0.930 . S
C538 C536 1.384 . S
C538 C539 1.372 . S
C539 C538 1.372 . S
C539 C540 1.400 . S
C539 C544 1.490 . S
C540 H530 0.930 . S
C540 C539 1.400 . S
C540 C543 1.386 . S
H541 C557 0.930 . S
H542 C558 0.931 . S
C543 H531 0.929 . S
C543 C537 1.390 . S
C543 C540 1.386 . S
C544 C539 1.490 . S
C544 C546 1.395 . S
C544 C547 1.403 . S
H545 C551 0.930 . S
C546 H532 0.930 . S
C546 C544 1.395 . S
C546 C549 1.403 . S
C547 C544 1.403 . S
C547 C548 1.524 . S
C547 C551 1.400 . S
C548 H533 0.960 1_545 S
C548 H534 0.960 1_545 S
C548 H535 0.960 . S
C548 C547 1.524 . S
C549 C546 1.403 . S
C549 C550 1.392 . S
C549 C553 1.495 . S
C550 C549 1.392 . S
C550 C551 1.385 . S
C550 C552 1.478 . S
C551 H545 0.930 . S
C551 C547 1.400 . S
C551 C550 1.385 . S
C552 C550 1.478 . S
C552 C554 1.381 . S
C552 C558 1.383 . S
C553 C549 1.495 . S
C553 H559 0.959 . S
C553 H560 0.961 . S
C553 H561 0.960 . S
C554 C552 1.381 . S
C554 C555 1.394 . S
C554 H562 0.930 . S
C555 C554 1.394 . S
C555 C556 1.383 . S
C555 H563 0.929 . S
C556 C555 1.383 . S
C556 C557 1.377 . S
C557 H541 0.930 . S
C557 C556 1.377 . S
C557 C558 1.379 . S
C558 H542 0.931 . S
C558 C552 1.383 . S
C558 C557 1.379 . S
H559 C553 0.959 . S
H560 C553 0.961 . S
H561 C553 0.960 . S
H562 C554 0.930 . S
H563 C555 0.929 . S
H564 C572 0.929 . S
H565 C574 0.930 . S
H566 C576 0.930 . S
H567 C579 0.929 . S
H568 C582 0.930 . S
H569 C584 0.960 . S
H570 C584 0.960 . S
H571 C584 0.960 . S
C572 H564 0.929 . S
C572 C573 1.377 1_565 S
C572 C574 1.384 . S
C573 C572 1.377 1_545 S
C573 C579 1.390 . S
C574 H565 0.930 . S
C574 C572 1.384 . S
C574 C575 1.372 1_565 S
C575 C574 1.372 1_545 S
C575 C576 1.400 . S
C575 C580 1.490 . S
C576 H566 0.930 . S
C576 C575 1.400 . S
C576 C579 1.386 . S
H577 C593 0.930 . S
H578 C594 0.931 . S
C579 H567 0.929 . S
C579 C573 1.390 . S
C579 C576 1.386 . S
C580 C575 1.490 . S
C580 C582 1.395 1_545 S
C580 C583 1.403 . S
H581 C587 0.930 . S
C582 H568 0.930 . S
C582 C580 1.395 1_565 S
C582 C585 1.403 . S
C583 C580 1.403 . S
C583 C584 1.524 . S
C583 C587 1.400 . S
C584 H569 0.960 . S
C584 H570 0.960 . S
C584 H571 0.960 . S
C584 C583 1.524 . S
C585 C582 1.403 . S
C585 C586 1.376 1_565 S
C585 C589 1.495 . S
C586 C585 1.376 1_545 S
C586 C587 1.402 . S
C586 C588 1.478 . S
C587 H581 0.930 . S
C587 C583 1.400 . S
C587 C586 1.402 . S
C588 C586 1.478 . S
C588 C590 1.381 1_545 S
C588 C594 1.383 . S
C589 C585 1.495 . S
C589 H595 0.959 . S
C589 H596 0.961 . S
C589 H597 0.960 . S
C590 C588 1.381 1_565 S
C590 C591 1.394 . S
C590 H598 0.930 . S
C591 C590 1.394 . S
C591 C592 1.383 1_565 S
C591 H599 0.929 . S
C592 C591 1.383 1_545 S
C592 C593 1.377 . S
C593 H577 0.930 . S
C593 C592 1.377 . S
C593 C594 1.379 . S
C594 H578 0.931 . S
C594 C588 1.383 . S
C594 C593 1.379 . S
H595 C589 0.959 . S
H596 C589 0.961 . S
H597 C589 0.960 . S
H598 C590 0.930 . S
H599 C591 0.929 . S
H600 C608 0.929 . S
H601 C610 0.930 . S
H602 C612 0.930 . S
H603 C615 0.929 . S
H604 C618 0.930 . S
H605 C620 0.960 1_565 S
H606 C620 0.960 . S
H607 C620 0.960 1_565 S
C608 H600 0.929 . S
C608 C609 1.377 . S
C608 C610 1.384 . S
C609 C608 1.377 . S
C609 C615 1.390 1_545 S
C610 H601 0.930 . S
C610 C608 1.384 . S
C610 C611 1.372 . S
C611 C610 1.372 . S
C611 C612 1.400 1_545 S
C611 C616 1.490 . S
C612 H602 0.930 . S
C612 C611 1.400 1_565 S
C612 C615 1.386 . S
H613 C629 0.930 . S
H614 C630 0.931 . S
C615 H603 0.929 . S
C615 C609 1.390 1_565 S
C615 C612 1.386 . S
C616 C611 1.490 . S
C616 C618 1.395 . S
C616 C619 1.403 . S
H617 C623 0.930 . S
C618 H604 0.930 . S
C618 C616 1.395 . S
C618 C621 1.403 . S
C619 C616 1.403 . S
C619 C620 1.524 . S
C619 C623 1.400 . S
C620 H605 0.960 1_545 S
C620 H606 0.960 . S
C620 H607 0.960 1_545 S
C620 C619 1.524 . S
C621 C618 1.403 . S
C621 C622 1.392 . S
C621 C625 1.495 . S
C622 C621 1.392 . S
C622 C623 1.385 . S
C622 C624 1.478 . S
C623 H617 0.930 . S
C623 C619 1.400 . S
C623 C622 1.385 . S
C624 C622 1.478 . S
C624 C626 1.381 . S
C624 C630 1.383 1_545 S
C625 C621 1.495 . S
C625 H631 0.959 . S
C625 H632 0.961 1_545 S
C625 H633 0.960 . S
C626 C624 1.381 . S
C626 C627 1.394 . S
C626 H634 0.930 . S
C627 C626 1.394 . S
C627 C628 1.383 . S
C627 H635 0.929 . S
C628 C627 1.383 . S
C628 C629 1.377 1_545 S
C629 H613 0.930 . S
C629 C628 1.377 1_565 S
C629 C630 1.379 . S
C630 H614 0.931 . S
C630 C624 1.383 1_565 S
C630 C629 1.379 . S
H631 C625 0.959 . S
H632 C625 0.961 1_565 S
H633 C625 0.960 . S
H634 C626 0.930 . S
H635 C627 0.929 . S
H636 C644 0.929 . S
H637 C646 0.930 . S
H638 C648 0.930 . S
H639 C651 0.929 . S
H640 C654 0.930 . S
H641 C656 0.960 . S
H642 C656 0.960 . S
H643 C656 0.960 . S
C644 H636 0.929 . S
C644 C645 1.377 . S
C644 C646 1.384 . S
C645 C644 1.377 . S
C645 C651 1.390 . S
C646 H637 0.930 . S
C646 C644 1.384 . S
C646 C647 1.372 . S
C647 C646 1.372 . S
C647 C648 1.400 . S
C647 C652 1.490 . S
C648 H638 0.930 . S
C648 C647 1.400 . S
C648 C651 1.386 . S
H649 C665 0.956 . S
H650 C666 0.931 . S
C651 H639 0.929 . S
C651 C645 1.390 . S
C651 C648 1.386 . S
C652 C647 1.490 . S
C652 C654 1.395 . S
C652 C655 1.403 . S
H653 C659 0.930 . S
C654 H640 0.930 . S
C654 C652 1.395 . S
C654 C657 1.403 . S
C655 C652 1.403 . S
C655 C656 1.524 . S
C655 C659 1.400 . S
C656 H641 0.960 . S
C656 H642 0.960 . S
C656 H643 0.960 . S
C656 C655 1.524 . S
C657 C654 1.403 . S
C657 C658 1.392 . S
C657 C661 1.495 . S
C658 C657 1.392 . S
C658 C659 1.385 . S
C658 C660 1.478 . S
C659 H653 0.930 . S
C659 C655 1.400 . S
C659 C658 1.385 . S
C660 C658 1.478 . S
C660 C662 1.381 . S
C660 C666 1.383 . S
C661 C657 1.495 . S
C661 H667 0.959 . S
C661 H668 0.961 . S
C661 H669 0.960 . S
C662 C660 1.381 . S
C662 C663 1.394 . S
C662 H670 0.930 . S
C663 C662 1.394 . S
C663 C664 1.383 . S
C663 H671 0.929 . S
C664 C663 1.383 . S
C664 C665 1.377 . S
C665 H649 0.956 . S
C665 C664 1.377 . S
C665 C666 1.379 . S
C666 H650 0.931 . S
C666 C660 1.383 . S
C666 C665 1.379 . S
H667 C661 0.959 . S
H668 C661 0.961 . S
H669 C661 0.960 . S
H670 C662 0.930 . S
H671 C663 0.929 . S
H672 C680 0.929 . S
H673 C682 0.930 . S
H674 C684 0.930 . S
H675 C687 0.929 . S
H676 C690 0.930 . S
H677 C692 0.960 . S
H678 C692 0.960 . S
H679 C692 0.960 . S
C680 H672 0.929 . S
C680 C681 1.377 . S
C680 C682 1.384 . S
C681 C680 1.377 . S
C681 C687 1.390 . S
C682 H673 0.930 . S
C682 C680 1.384 . S
C682 C683 1.372 . S
C683 C682 1.372 . S
C683 C684 1.400 . S
C683 C688 1.490 . S
C684 H674 0.930 . S
C684 C683 1.400 . S
C684 C687 1.386 . S
H685 C701 0.930 . S
H686 C702 0.931 . S
C687 H675 0.929 . S
C687 C681 1.390 . S
C687 C684 1.386 . S
C688 C683 1.490 . S
C688 C690 1.395 . S
C688 C691 1.403 . S
H689 C695 0.930 . S
C690 H676 0.930 . S
C690 C688 1.395 . S
C690 C693 1.403 . S
C691 C688 1.403 . S
C691 C692 1.524 . S
C691 C695 1.400 . S
C692 H677 0.960 . S
C692 H678 0.960 . S
C692 H679 0.960 . S
C692 C691 1.524 . S
C693 C690 1.403 . S
C693 C694 1.392 . S
C693 C697 1.495 . S
C694 C693 1.392 . S
C694 C695 1.385 . S
C694 C696 1.478 . S
C695 H689 0.930 . S
C695 C691 1.400 . S
C695 C694 1.385 . S
C696 C694 1.478 . S
C696 C698 1.381 . S
C696 C702 1.383 . S
C697 C693 1.495 . S
C697 H703 0.959 . S
C697 H704 0.961 . S
C697 H705 0.960 . S
C698 C696 1.381 . S
C698 C699 1.394 . S
C698 H706 0.930 . S
C699 C698 1.394 . S
C699 C700 1.383 . S
C699 H707 0.929 . S
C700 C699 1.383 . S
C700 C701 1.377 . S
C701 H685 0.930 . S
C701 C700 1.377 . S
C701 C702 1.379 . S
C702 H686 0.931 . S
C702 C696 1.383 . S
C702 C701 1.379 . S
H703 C697 0.959 . S
H704 C697 0.961 . S
H705 C697 0.960 . S
H706 C698 0.930 . S
H707 C699 0.929 . S
H708 C716 0.929 . S
H709 C718 0.930 . S
H710 C720 0.930 . S
H711 C723 0.929 . S
H712 C726 0.930 . S
H713 C728 0.960 . S
H714 C728 0.960 . S
H715 C728 0.960 . S
C716 H708 0.929 . S
C716 C717 1.377 . S
C716 C718 1.384 . S
C717 C716 1.377 . S
C717 C723 1.390 . S
C718 H709 0.930 . S
C718 C716 1.384 . S
C718 C719 1.372 . S
C719 C718 1.372 . S
C719 C720 1.400 . S
C719 C724 1.490 . S
C720 H710 0.930 . S
C720 C719 1.400 . S
C720 C723 1.386 . S
H721 C737 0.930 . S
H722 C738 0.931 . S
C723 H711 0.929 . S
C723 C717 1.390 . S
C723 C720 1.386 . S
C724 C719 1.490 . S
C724 C726 1.395 . S
C724 C727 1.403 . S
H725 C731 0.930 . S
C726 H712 0.930 . S
C726 C724 1.395 . S
C726 C729 1.403 . S
C727 C724 1.403 . S
C727 C728 1.524 . S
C727 C731 1.400 . S
C728 H713 0.960 . S
C728 H714 0.960 . S
C728 H715 0.960 . S
C728 C727 1.524 . S
C729 C726 1.403 . S
C729 C730 1.392 . S
C729 C733 1.495 . S
C730 C729 1.392 . S
C730 C731 1.385 . S
C730 C732 1.478 . S
C731 H725 0.930 . S
C731 C727 1.400 . S
C731 C730 1.385 . S
C732 C730 1.478 . S
C732 C734 1.381 . S
C732 C738 1.383 . S
C733 C729 1.495 . S
C733 H739 0.959 . S
C733 H740 0.961 . S
C733 H741 0.960 . S
C734 C732 1.381 . S
C734 C735 1.394 . S
C734 H742 0.930 . S
C735 C734 1.394 . S
C735 C736 1.383 . S
C735 H743 0.929 . S
C736 C735 1.383 . S
C736 C737 1.377 . S
C737 H721 0.930 . S
C737 C736 1.377 . S
C737 C738 1.379 . S
C738 H722 0.931 . S
C738 C732 1.383 . S
C738 C737 1.379 . S
H739 C733 0.959 . S
H740 C733 0.961 . S
H741 C733 0.960 . S
H742 C734 0.930 . S
H743 C735 0.929 . S
H744 C752 0.929 . S
H745 C754 0.930 . S
H746 C756 0.930 . S
H747 C759 0.929 . S
H748 C762 0.930 . S
H749 C764 0.960 . S
H750 C764 0.960 . S
H751 C764 0.960 . S
C752 H744 0.929 . S
C752 C753 1.377 . S
C752 C754 1.384 . S
C753 C752 1.377 . S
C753 C759 1.390 . S
C754 H745 0.930 . S
C754 C752 1.384 . S
C754 C755 1.372 . S
C755 C754 1.372 . S
C755 C756 1.400 . S
C755 C760 1.490 . S
C756 H746 0.930 . S
C756 C755 1.400 . S
C756 C759 1.386 . S
H757 C773 0.930 . S
H758 C774 0.931 . S
C759 H747 0.929 . S
C759 C753 1.390 . S
C759 C756 1.386 . S
C760 C755 1.490 . S
C760 C762 1.395 . S
C760 C763 1.403 . S
H761 C767 0.930 . S
C762 H748 0.930 . S
C762 C760 1.395 . S
C762 C765 1.403 . S
C763 C760 1.403 . S
C763 C764 1.524 . S
C763 C767 1.400 . S
C764 H749 0.960 . S
C764 H750 0.960 . S
C764 H751 0.960 . S
C764 C763 1.524 . S
C765 C762 1.403 . S
C765 C766 1.392 . S
C765 C769 1.495 . S
C766 C765 1.392 . S
C766 C767 1.385 . S
C766 C768 1.478 . S
C767 H761 0.930 . S
C767 C763 1.400 . S
C767 C766 1.385 . S
C768 C766 1.478 . S
C768 C770 1.381 . S
C768 C774 1.383 . S
C769 C765 1.495 . S
C769 H775 0.959 . S
C769 H776 0.961 . S
C769 H777 0.960 . S
C770 C768 1.381 . S
C770 C771 1.394 . S
C770 H778 0.930 . S
C771 C770 1.394 . S
C771 C772 1.383 . S
C771 H779 0.929 . S
C772 C771 1.383 . S
C772 C773 1.377 . S
C773 H757 0.930 . S
C773 C772 1.377 . S
C773 C774 1.379 . S
C774 H758 0.931 . S
C774 C768 1.383 . S
C774 C773 1.379 . S
H775 C769 0.959 . S
H776 C769 0.961 . S
H777 C769 0.960 . S
H778 C770 0.930 . S
H779 C771 0.929 . S
H780 C788 0.929 . S
H781 C790 0.930 . S
H782 C792 0.930 . S
H783 C795 0.929 . S
H784 C798 0.930 . S
H785 C800 0.960 . S
H786 C800 0.960 . S
H787 C800 0.960 . S
C788 H780 0.929 . S
C788 C789 1.377 . S
C788 C790 1.384 . S
C789 C788 1.377 . S
C789 C795 1.390 . S
C790 H781 0.930 . S
C790 C788 1.384 . S
C790 C791 1.372 . S
C791 C790 1.372 . S
C791 C792 1.400 . S
C791 C796 1.490 . S
C792 H782 0.930 . S
C792 C791 1.400 . S
C792 C795 1.386 . S
H793 C809 0.930 . S
H794 C810 0.931 . S
C795 H783 0.929 . S
C795 C789 1.390 . S
C795 C792 1.386 . S
C796 C791 1.490 . S
C796 C798 1.395 . S
C796 C799 1.403 . S
H797 C803 0.930 . S
C798 H784 0.930 . S
C798 C796 1.395 . S
C798 C801 1.403 . S
C799 C796 1.403 . S
C799 C800 1.524 . S
C799 C803 1.400 . S
C800 H785 0.960 . S
C800 H786 0.960 . S
C800 H787 0.960 . S
C800 C799 1.524 . S
C801 C798 1.403 . S
C801 C802 1.392 . S
C801 C805 1.495 . S
C802 C801 1.392 . S
C802 C803 1.385 . S
C802 C804 1.478 . S
C803 H797 0.930 . S
C803 C799 1.400 . S
C803 C802 1.385 . S
C804 C802 1.478 . S
C804 C806 1.381 . S
C804 C810 1.383 . S
C805 C801 1.495 . S
C805 H811 0.959 . S
C805 H812 0.961 . S
C805 H813 0.960 . S
C806 C804 1.381 . S
C806 C807 1.394 . S
C806 H814 0.930 . S
C807 C806 1.394 . S
C807 C808 1.383 . S
C807 H815 0.929 . S
C808 C807 1.383 . S
C808 C809 1.377 . S
C809 H793 0.930 . S
C809 C808 1.377 . S
C809 C810 1.379 . S
C810 H794 0.931 . S
C810 C804 1.383 . S
C810 C809 1.379 . S
H811 C805 0.959 . S
H812 C805 0.961 . S
H813 C805 0.960 . S
H814 C806 0.930 . S
H815 C807 0.929 . S
H816 C824 0.929 . S
H817 C826 0.930 . S
H818 C828 0.930 . S
H819 C831 0.929 . S
H820 C834 0.930 . S
H821 C836 0.960 . S
H822 C836 0.960 . S
H823 C836 0.960 . S
C824 H816 0.929 . S
C824 C825 1.377 . S
C824 C826 1.384 . S
C825 C824 1.377 . S
C825 C831 1.390 . S
C826 H817 0.930 . S
C826 C824 1.384 . S
C826 C827 1.372 . S
C827 C826 1.372 . S
C827 C828 1.400 . S
C827 C832 1.490 . S
C828 H818 0.930 . S
C828 C827 1.400 . S
C828 C831 1.386 . S
H829 C845 0.930 . S
H830 C846 0.931 . S
C831 H819 0.929 . S
C831 C825 1.390 . S
C831 C828 1.386 . S
C832 C827 1.490 . S
C832 C834 1.395 . S
C832 C835 1.403 . S
H833 C839 0.930 . S
C834 H820 0.930 . S
C834 C832 1.395 . S
C834 C837 1.403 . S
C835 C832 1.403 . S
C835 C836 1.524 . S
C835 C839 1.400 . S
C836 H821 0.960 . S
C836 H822 0.960 . S
C836 H823 0.960 . S
C836 C835 1.524 . S
C837 C834 1.403 . S
C837 C838 1.392 . S
C837 C841 1.495 . S
C838 C837 1.392 . S
C838 C839 1.385 . S
C838 C840 1.478 . S
C839 H833 0.930 . S
C839 C835 1.400 . S
C839 C838 1.385 . S
C840 C838 1.478 . S
C840 C842 1.381 . S
C840 C846 1.383 . S
C841 C837 1.495 . S
C841 H847 0.959 . S
C841 H848 0.961 . S
C841 H849 0.960 . S
C842 C840 1.381 . S
C842 C843 1.394 . S
C842 H850 0.930 . S
C843 C842 1.394 . S
C843 C844 1.383 . S
C843 H851 0.929 . S
C844 C843 1.383 . S
C844 C845 1.377 . S
C845 H829 0.930 . S
C845 C844 1.377 . S
C845 C846 1.379 . S
C846 H830 0.931 . S
C846 C840 1.383 . S
C846 C845 1.379 . S
H847 C841 0.959 . S
H848 C841 0.961 . S
H849 C841 0.960 . S
H850 C842 0.930 . S
H851 C843 0.929 . S
H852 C860 0.929 . S
H853 C862 0.930 . S
H854 C864 0.930 . S
H855 C867 0.929 . S
H856 C870 0.930 . S
H857 C872 0.960 . S
H858 C872 0.960 . S
H859 C872 0.960 . S
C860 H852 0.929 . S
C860 C861 1.377 . S
C860 C862 1.384 . S
C861 C860 1.377 . S
C861 C867 1.390 . S
C862 H853 0.930 . S
C862 C860 1.384 . S
C862 C863 1.372 . S
C863 C862 1.372 . S
C863 C864 1.400 . S
C863 C868 1.490 . S
C864 H854 0.930 . S
C864 C863 1.400 . S
C864 C867 1.386 . S
H865 C881 0.930 . S
H866 C882 0.931 . S
C867 H855 0.929 . S
C867 C861 1.390 . S
C867 C864 1.386 . S
C868 C863 1.490 . S
C868 C870 1.395 . S
C868 C871 1.403 . S
H869 C875 0.930 . S
C870 H856 0.930 . S
C870 C868 1.395 . S
C870 C873 1.403 . S
C871 C868 1.403 . S
C871 C872 1.524 . S
C871 C875 1.400 . S
C872 H857 0.960 . S
C872 H858 0.960 . S
C872 H859 0.960 . S
C872 C871 1.524 . S
C873 C870 1.403 . S
C873 C874 1.392 . S
C873 C877 1.495 . S
C874 C873 1.392 . S
C874 C875 1.385 . S
C874 C876 1.478 . S
C875 H869 0.930 . S
C875 C871 1.400 . S
C875 C874 1.385 . S
C876 C874 1.478 . S
C876 C878 1.381 . S
C876 C882 1.383 . S
C877 C873 1.495 . S
C877 H883 0.959 . S
C877 H884 0.961 . S
C877 H885 0.960 . S
C878 C876 1.381 . S
C878 C879 1.394 . S
C878 H886 0.930 . S
C879 C878 1.394 . S
C879 C880 1.383 . S
C879 H887 0.929 . S
C880 C879 1.383 . S
C880 C881 1.377 . S
C881 H865 0.930 . S
C881 C880 1.377 . S
C881 C882 1.379 . S
C882 H866 0.931 . S
C882 C876 1.383 . S
C882 C881 1.379 . S
H883 C877 0.959 . S
H884 C877 0.961 . S
H885 C877 0.960 . S
H886 C878 0.930 . S
H887 C879 0.929 . S
H888 C896 0.929 . S
H889 C898 0.930 . S
H890 C900 0.930 . S
H891 C903 0.929 . S
H892 C906 0.930 . S
H893 C908 0.960 . S
H894 C908 0.960 . S
H895 C908 0.960 . S
C896 H888 0.929 . S
C896 C897 1.377 . S
C896 C898 1.384 . S
C897 C896 1.377 . S
C897 C903 1.390 . S
C898 H889 0.930 . S
C898 C896 1.384 . S
C898 C899 1.372 . S
C899 C898 1.372 . S
C899 C900 1.400 . S
C899 C904 1.490 . S
C900 H890 0.930 . S
C900 C899 1.400 . S
C900 C903 1.386 . S
H901 C917 0.930 . S
H902 C918 0.931 . S
C903 H891 0.929 . S
C903 C897 1.390 . S
C903 C900 1.386 . S
C904 C899 1.490 . S
C904 C906 1.395 . S
C904 C907 1.403 . S
H905 C911 0.930 . S
C906 H892 0.930 . S
C906 C904 1.395 . S
C906 C909 1.403 . S
C907 C904 1.403 . S
C907 C908 1.524 . S
C907 C911 1.400 . S
C908 H893 0.960 . S
C908 H894 0.960 . S
C908 H895 0.960 . S
C908 C907 1.524 . S
C909 C906 1.403 . S
C909 C910 1.392 . S
C909 C913 1.495 . S
C910 C909 1.392 . S
C910 C911 1.385 . S
C910 C912 1.478 . S
C911 H905 0.930 . S
C911 C907 1.400 . S
C911 C910 1.385 . S
C912 C910 1.478 . S
C912 C914 1.381 . S
C912 C918 1.383 . S
C913 C909 1.495 . S
C913 H919 0.959 . S
C913 H920 0.961 . S
C913 H921 0.960 . S
C914 C912 1.381 . S
C914 C915 1.394 . S
C914 H922 0.930 . S
C915 C914 1.394 . S
C915 C916 1.383 . S
C915 H923 0.929 . S
C916 C915 1.383 . S
C916 C917 1.377 . S
C917 H901 0.930 . S
C917 C916 1.377 . S
C917 C918 1.379 . S
C918 H902 0.931 . S
C918 C912 1.383 . S
C918 C917 1.379 . S
H919 C913 0.959 . S
H920 C913 0.961 . S
H921 C913 0.960 . S
H922 C914 0.930 . S
H923 C915 0.929 . S
H924 C932 0.929 . S
H925 C934 0.930 . S
H926 C936 0.930 . S
H927 C939 0.929 . S
H928 C942 0.930 . S
H929 C944 0.960 . S
H930 C944 0.960 . S
H931 C944 0.960 . S
C932 H924 0.929 . S
C932 C933 1.377 . S
C932 C934 1.384 . S
C933 C932 1.377 . S
C933 C939 1.390 . S
C934 H925 0.930 . S
C934 C932 1.384 . S
C934 C935 1.372 . S
C935 C934 1.372 . S
C935 C936 1.400 . S
C935 C940 1.490 . S
C936 H926 0.930 . S
C936 C935 1.400 . S
C936 C939 1.386 . S
H937 C953 0.930 . S
H938 C954 0.931 . S
C939 H927 0.929 . S
C939 C933 1.390 . S
C939 C936 1.386 . S
C940 C935 1.490 . S
C940 C942 1.395 . S
C940 C943 1.403 . S
H941 C947 0.930 . S
C942 H928 0.930 . S
C942 C940 1.395 . S
C942 C945 1.403 . S
C943 C940 1.403 . S
C943 C944 1.524 . S
C943 C947 1.400 . S
C944 H929 0.960 . S
C944 H930 0.960 . S
C944 H931 0.960 . S
C944 C943 1.524 . S
C945 C942 1.403 . S
C945 C946 1.392 . S
C945 C949 1.495 . S
C946 C945 1.392 . S
C946 C947 1.385 . S
C946 C948 1.478 . S
C947 H941 0.930 . S
C947 C943 1.400 . S
C947 C946 1.385 . S
C948 C946 1.478 . S
C948 C950 1.381 . S
C948 C954 1.383 . S
C949 C945 1.495 . S
C949 H955 0.959 . S
C949 H956 0.961 . S
C949 H957 0.960 . S
C950 C948 1.381 . S
C950 C951 1.394 . S
C950 H958 0.930 . S
C951 C950 1.394 . S
C951 C952 1.383 . S
C951 H959 0.929 . S
C952 C951 1.383 . S
C952 C953 1.377 . S
C953 H937 0.930 . S
C953 C952 1.377 . S
C953 C954 1.379 . S
C954 H938 0.931 . S
C954 C948 1.383 . S
C954 C953 1.379 . S
H955 C949 0.959 . S
H956 C949 0.961 . S
H957 C949 0.960 . S
H958 C950 0.930 . S
H959 C951 0.929 . S
H960 C968 0.929 . S
H961 C970 0.930 . S
H962 C972 0.930 . S
H963 C975 0.929 . S
H964 C978 0.930 . S
H965 C980 0.960 . S
H966 C980 0.960 . S
H967 C980 0.960 . S
C968 H960 0.929 . S
C968 C969 1.377 . S
C968 C970 1.384 . S
C969 C968 1.377 . S
C969 C975 1.390 . S
C970 H961 0.930 . S
C970 C968 1.384 . S
C970 C971 1.372 . S
C971 C970 1.372 . S
C971 C972 1.400 . S
C971 C976 1.490 . S
C972 H962 0.930 . S
C972 C971 1.400 . S
C972 C975 1.386 . S
H973 C989 0.930 . S
H974 C990 0.931 . S
C975 H963 0.929 . S
C975 C969 1.390 . S
C975 C972 1.386 . S
C976 C971 1.490 . S
C976 C978 1.395 . S
C976 C979 1.403 . S
H977 C983 0.930 . S
C978 H964 0.930 . S
C978 C976 1.395 . S
C978 C981 1.403 . S
C979 C976 1.403 . S
C979 C980 1.524 . S
C979 C983 1.400 . S
C980 H965 0.960 . S
C980 H966 0.960 . S
C980 H967 0.960 . S
C980 C979 1.524 . S
C981 C978 1.403 . S
C981 C982 1.392 . S
C981 C985 1.495 . S
C982 C981 1.392 . S
C982 C983 1.385 . S
C982 C984 1.478 . S
C983 H977 0.930 . S
C983 C979 1.400 . S
C983 C982 1.385 . S
C984 C982 1.478 . S
C984 C986 1.381 . S
C984 C990 1.383 . S
C985 C981 1.495 . S
C985 H991 0.959 . S
C985 H992 0.961 . S
C985 H993 0.960 . S
C986 C984 1.381 . S
C986 C987 1.394 . S
C986 H994 0.930 . S
C987 C986 1.394 . S
C987 C988 1.383 . S
C987 H995 0.929 . S
C988 C987 1.383 . S
C988 C989 1.377 . S
C989 H973 0.930 . S
C989 C988 1.377 . S
C989 C990 1.379 . S
C990 H974 0.931 . S
C990 C984 1.383 . S
C990 C989 1.379 . S
H991 C985 0.959 . S
H992 C985 0.961 . S
H993 C985 0.960 . S
H994 C986 0.930 . S
H995 C987 0.929 . S
H996 C1004 0.929 . S
H997 C1006 0.930 . S
H998 C1008 0.930 . S
H999 C1011 0.929 . S
H1000 C1014 0.930 . S
H1001 C1016 0.960 . S
H1002 C1016 0.960 . S
H1003 C1016 0.960 . S
C1004 H996 0.929 . S
C1004 C1005 1.377 . S
C1004 C1006 1.384 . S
C1005 C1004 1.377 . S
C1005 C1011 1.390 . S
C1006 H997 0.930 . S
C1006 C1004 1.384 . S
C1006 C1007 1.372 . S
C1007 C1006 1.372 . S
C1007 C1008 1.400 . S
C1007 C1012 1.490 . S
C1008 H998 0.930 . S
C1008 C1007 1.400 . S
C1008 C1011 1.386 . S
H1009 C1025 0.930 . S
H1010 C1026 0.931 . S
C1011 H999 0.929 . S
C1011 C1005 1.390 . S
C1011 C1008 1.386 . S
C1012 C1007 1.490 . S
C1012 C1014 1.395 . S
C1012 C1015 1.403 . S
H1013 C1019 0.930 . S
C1014 H1000 0.930 . S
C1014 C1012 1.395 . S
C1014 C1017 1.403 . S
C1015 C1012 1.403 . S
C1015 C1016 1.524 . S
C1015 C1019 1.400 . S
C1016 H1001 0.960 . S
C1016 H1002 0.960 . S
C1016 H1003 0.960 . S
C1016 C1015 1.524 . S
C1017 C1014 1.403 . S
C1017 C1018 1.392 . S
C1017 C1021 1.495 . S
C1018 C1017 1.392 . S
C1018 C1019 1.385 . S
C1018 C1020 1.478 . S
C1019 H1013 0.930 . S
C1019 C1015 1.400 . S
C1019 C1018 1.385 . S
C1020 C1018 1.478 . S
C1020 C1022 1.381 . S
C1020 C1026 1.383 . S
C1021 C1017 1.495 . S
C1021 H1027 0.959 . S
C1021 H1028 0.961 . S
C1021 H1029 0.960 . S
C1022 C1020 1.381 . S
C1022 C1023 1.394 . S
C1022 H1030 0.930 . S
C1023 C1022 1.394 . S
C1023 C1024 1.383 . S
C1023 H1031 0.929 . S
C1024 C1023 1.383 . S
C1024 C1025 1.377 . S
C1025 H1009 0.930 . S
C1025 C1024 1.377 . S
C1025 C1026 1.379 . S
C1026 H1010 0.931 . S
C1026 C1020 1.383 . S
C1026 C1025 1.379 . S
H1027 C1021 0.959 . S
H1028 C1021 0.961 . S
H1029 C1021 0.960 . S
H1030 C1022 0.930 . S
H1031 C1023 0.929 . S
H1032 C1040 0.929 . S
H1033 C1042 0.930 . S
H1034 C1044 0.930 . S
H1035 C1047 0.929 . S
H1036 C1050 0.930 . S
H1037 C1052 0.960 . S
H1038 C1052 0.960 . S
H1039 C1052 0.960 . S
C1040 H1032 0.929 . S
C1040 C1041 1.377 . S
C1040 C1042 1.384 . S
C1041 C1040 1.377 . S
C1041 C1047 1.390 . S
C1042 H1033 0.930 . S
C1042 C1040 1.384 . S
C1042 C1043 1.372 . S
C1043 C1042 1.372 . S
C1043 C1044 1.400 . S
C1043 C1048 1.490 . S
C1044 H1034 0.930 . S
C1044 C1043 1.400 . S
C1044 C1047 1.386 . S
H1045 C1061 0.930 . S
H1046 C1062 0.931 . S
C1047 H1035 0.929 . S
C1047 C1041 1.390 . S
C1047 C1044 1.386 . S
C1048 C1043 1.490 . S
C1048 C1050 1.395 . S
C1048 C1051 1.403 . S
H1049 C1055 0.930 . S
C1050 H1036 0.930 . S
C1050 C1048 1.395 . S
C1050 C1053 1.403 . S
C1051 C1048 1.403 . S
C1051 C1052 1.524 . S
C1051 C1055 1.400 . S
C1052 H1037 0.960 . S
C1052 H1038 0.960 . S
C1052 H1039 0.960 . S
C1052 C1051 1.524 . S
C1053 C1050 1.403 . S
C1053 C1054 1.392 . S
C1053 C1057 1.495 . S
C1054 C1053 1.392 . S
C1054 C1055 1.385 . S
C1054 C1056 1.478 . S
C1055 H1049 0.930 . S
C1055 C1051 1.400 . S
C1055 C1054 1.385 . S
C1056 C1054 1.478 . S
C1056 C1058 1.381 . S
C1056 C1062 1.383 . S
C1057 C1053 1.495 . S
C1057 H1063 0.959 . S
C1057 H1064 0.961 . S
C1057 H1065 0.960 . S
C1058 C1056 1.381 . S
C1058 C1059 1.394 . S
C1058 H1066 0.930 . S
C1059 C1058 1.394 . S
C1059 C1060 1.383 . S
C1059 H1067 0.929 . S
C1060 C1059 1.383 . S
C1060 C1061 1.377 . S
C1061 H1045 0.930 . S
C1061 C1060 1.377 . S
C1061 C1062 1.379 . S
C1062 H1046 0.931 . S
C1062 C1056 1.383 . S
C1062 C1061 1.379 . S
H1063 C1057 0.959 . S
H1064 C1057 0.961 . S
H1065 C1057 0.960 . S
H1066 C1058 0.930 . S
H1067 C1059 0.929 . S
H1068 C1076 0.929 . S
H1069 C1078 0.930 . S
H1070 C1080 0.930 . S
H1071 C1083 0.929 . S
H1072 C1086 0.930 . S
H1073 C1088 0.960 . S
H1074 C1088 0.960 . S
H1075 C1088 0.960 . S
C1076 H1068 0.929 . S
C1076 C1077 1.377 . S
C1076 C1078 1.384 . S
C1077 C1076 1.377 . S
C1077 C1083 1.390 . S
C1078 H1069 0.930 . S
C1078 C1076 1.384 . S
C1078 C1079 1.372 . S
C1079 C1078 1.372 . S
C1079 C1080 1.400 . S
C1079 C1084 1.490 . S
C1080 H1070 0.930 . S
C1080 C1079 1.400 . S
C1080 C1083 1.386 . S
H1081 C1097 0.930 . S
H1082 C1098 0.931 . S
C1083 H1071 0.929 . S
C1083 C1077 1.390 . S
C1083 C1080 1.386 . S
C1084 C1079 1.490 . S
C1084 C1086 1.395 . S
C1084 C1087 1.403 . S
H1085 C1091 0.930 . S
C1086 H1072 0.930 . S
C1086 C1084 1.395 . S
C1086 C1089 1.403 . S
C1087 C1084 1.403 . S
C1087 C1088 1.524 . S
C1087 C1091 1.400 . S
C1088 H1073 0.960 . S
C1088 H1074 0.960 . S
C1088 H1075 0.960 . S
C1088 C1087 1.524 . S
C1089 C1086 1.403 . S
C1089 C1090 1.392 . S
C1089 C1093 1.495 . S
C1090 C1089 1.392 . S
C1090 C1091 1.385 . S
C1090 C1092 1.478 . S
C1091 H1085 0.930 . S
C1091 C1087 1.400 . S
C1091 C1090 1.385 . S
C1092 C1090 1.478 . S
C1092 C1094 1.381 . S
C1092 C1098 1.383 . S
C1093 C1089 1.495 . S
C1093 H1099 0.959 . S
C1093 H1100 0.961 . S
C1093 H1101 0.960 . S
C1094 C1092 1.381 . S
C1094 C1095 1.394 . S
C1094 H1102 0.930 . S
C1095 C1094 1.394 . S
C1095 C1096 1.383 . S
C1095 H1103 0.929 . S
C1096 C1095 1.383 . S
C1096 C1097 1.377 . S
C1097 H1081 0.930 . S
C1097 C1096 1.377 . S
C1097 C1098 1.379 . S
C1098 H1082 0.931 . S
C1098 C1092 1.383 . S
C1098 C1097 1.379 . S
H1099 C1093 0.959 . S
H1100 C1093 0.961 . S
H1101 C1093 0.960 . S
H1102 C1094 0.930 . S
H1103 C1095 0.929 . S
H1104 C1112 0.929 . S
H1105 C1114 0.930 . S
H1106 C1116 0.930 . S
H1107 C1119 0.929 . S
H1108 C1122 0.930 . S
H1109 C1124 0.960 . S
H1110 C1124 0.960 . S
H1111 C1124 0.960 . S
C1112 H1104 0.929 . S
C1112 C1113 1.377 . S
C1112 C1114 1.384 . S
C1113 C1112 1.377 . S
C1113 C1119 1.390 . S
C1114 H1105 0.930 . S
C1114 C1112 1.384 . S
C1114 C1115 1.372 . S
C1115 C1114 1.372 . S
C1115 C1116 1.400 . S
C1115 C1120 1.490 . S
C1116 H1106 0.930 . S
C1116 C1115 1.400 . S
C1116 C1119 1.386 . S
H1117 C1133 0.930 . S
H1118 C1134 0.931 . S
C1119 H1107 0.929 . S
C1119 C1113 1.390 . S
C1119 C1116 1.386 . S
C1120 C1115 1.490 . S
C1120 C1122 1.395 . S
C1120 C1123 1.403 . S
H1121 C1127 0.930 . S
C1122 H1108 0.930 . S
C1122 C1120 1.395 . S
C1122 C1125 1.403 . S
C1123 C1120 1.403 . S
C1123 C1124 1.524 . S
C1123 C1127 1.400 . S
C1124 H1109 0.960 . S
C1124 H1110 0.960 . S
C1124 H1111 0.960 . S
C1124 C1123 1.524 . S
C1125 C1122 1.403 . S
C1125 C1126 1.392 . S
C1125 C1129 1.495 . S
C1126 C1125 1.392 . S
C1126 C1127 1.385 . S
C1126 C1128 1.478 . S
C1127 H1121 0.930 . S
C1127 C1123 1.400 . S
C1127 C1126 1.385 . S
C1128 C1126 1.478 . S
C1128 C1130 1.381 . S
C1128 C1134 1.383 . S
C1129 C1125 1.495 . S
C1129 H1135 0.959 . S
C1129 H1136 0.961 . S
C1129 H1137 0.960 . S
C1130 C1128 1.381 . S
C1130 C1131 1.394 . S
C1130 H1138 0.930 . S
C1131 C1130 1.394 . S
C1131 C1132 1.383 . S
C1131 H1139 0.929 . S
C1132 C1131 1.383 . S
C1132 C1133 1.377 . S
C1133 H1117 0.930 . S
C1133 C1132 1.377 . S
C1133 C1134 1.379 . S
C1134 H1118 0.931 . S
C1134 C1128 1.383 . S
C1134 C1133 1.379 . S
H1135 C1129 0.959 . S
H1136 C1129 0.961 . S
H1137 C1129 0.960 . S
H1138 C1130 0.930 . S
H1139 C1131 0.929 . S
H1140 C1148 0.929 . S
H1141 C1150 0.930 . S
H1142 C1152 0.930 . S
H1143 C1155 0.929 . S
H1144 C1158 0.930 . S
H1145 C1160 0.960 . S
H1146 C1160 0.960 . S
H1147 C1160 0.960 . S
C1148 H1140 0.929 . S
C1148 C1149 1.377 . S
C1148 C1150 1.384 . S
C1149 C1148 1.377 . S
C1149 C1155 1.390 . S
C1150 H1141 0.930 . S
C1150 C1148 1.384 . S
C1150 C1151 1.372 . S
C1151 C1150 1.372 . S
C1151 C1152 1.400 . S
C1151 C1156 1.490 . S
C1152 H1142 0.930 . S
C1152 C1151 1.400 . S
C1152 C1155 1.386 . S
H1153 C1169 0.930 . S
H1154 C1170 0.931 . S
C1155 H1143 0.929 . S
C1155 C1149 1.390 . S
C1155 C1152 1.386 . S
C1156 C1151 1.490 . S
C1156 C1158 1.395 . S
C1156 C1159 1.403 . S
H1157 C1163 0.930 . S
C1158 H1144 0.930 . S
C1158 C1156 1.395 . S
C1158 C1161 1.403 . S
C1159 C1156 1.403 . S
C1159 C1160 1.524 . S
C1159 C1163 1.400 . S
C1160 H1145 0.960 . S
C1160 H1146 0.960 . S
C1160 H1147 0.960 . S
C1160 C1159 1.524 . S
C1161 C1158 1.403 . S
C1161 C1162 1.392 . S
C1161 C1165 1.495 . S
C1162 C1161 1.392 . S
C1162 C1163 1.385 . S
C1162 C1164 1.478 . S
C1163 H1157 0.930 . S
C1163 C1159 1.400 . S
C1163 C1162 1.385 . S
C1164 C1162 1.478 . S
C1164 C1166 1.381 . S
C1164 C1170 1.383 . S
C1165 C1161 1.495 . S
C1165 H1171 0.959 . S
C1165 H1172 0.961 . S
C1165 H1173 0.960 . S
C1166 C1164 1.381 . S
C1166 C1167 1.394 . S
C1166 H1174 0.930 . S
C1167 C1166 1.394 . S
C1167 C1168 1.383 . S
C1167 H1175 0.929 . S
C1168 C1167 1.383 . S
C1168 C1169 1.377 . S
C1169 H1153 0.930 . S
C1169 C1168 1.377 . S
C1169 C1170 1.379 . S
C1170 H1154 0.931 . S
C1170 C1164 1.383 . S
C1170 C1169 1.379 . S
H1171 C1165 0.959 . S
H1172 C1165 0.961 . S
H1173 C1165 0.960 . S
H1174 C1166 0.930 . S
H1175 C1167 0.929 . S
H1176 C1184 0.929 . S
H1177 C1186 0.930 . S
H1178 C1188 0.930 . S
H1179 C1191 0.929 . S
H1180 C1194 0.930 . S
H1181 C1196 0.960 . S
H1182 C1196 0.960 . S
H1183 C1196 0.960 . S
C1184 H1176 0.929 . S
C1184 C1185 1.377 . S
C1184 C1186 1.384 . S
C1185 C1184 1.377 . S
C1185 C1191 1.390 . S
C1186 H1177 0.930 . S
C1186 C1184 1.384 . S
C1186 C1187 1.372 . S
C1187 C1186 1.372 . S
C1187 C1188 1.400 . S
C1187 C1192 1.490 . S
C1188 H1178 0.930 . S
C1188 C1187 1.400 . S
C1188 C1191 1.386 . S
H1189 C1205 0.930 . S
H1190 C1206 0.931 . S
C1191 H1179 0.929 . S
C1191 C1185 1.390 . S
C1191 C1188 1.386 . S
C1192 C1187 1.490 . S
C1192 C1194 1.395 . S
C1192 C1195 1.403 . S
H1193 C1199 0.930 . S
C1194 H1180 0.930 . S
C1194 C1192 1.395 . S
C1194 C1197 1.403 . S
C1195 C1192 1.403 . S
C1195 C1196 1.524 . S
C1195 C1199 1.400 . S
C1196 H1181 0.960 . S
C1196 H1182 0.960 . S
C1196 H1183 0.960 . S
C1196 C1195 1.524 . S
C1197 C1194 1.403 . S
C1197 C1198 1.392 . S
C1197 C1201 1.495 . S
C1198 C1197 1.392 . S
C1198 C1199 1.385 . S
C1198 C1200 1.478 . S
C1199 H1193 0.930 . S
C1199 C1195 1.400 . S
C1199 C1198 1.385 . S
C1200 C1198 1.478 . S
C1200 C1202 1.381 . S
C1200 C1206 1.383 . S
C1201 C1197 1.495 . S
C1201 H1207 0.959 . S
C1201 H1208 0.961 . S
C1201 H1209 0.960 . S
C1202 C1200 1.381 . S
C1202 C1203 1.394 . S
C1202 H1210 0.930 . S
C1203 C1202 1.394 . S
C1203 C1204 1.383 . S
C1203 H1211 0.929 . S
C1204 C1203 1.383 . S
C1204 C1205 1.377 . S
C1205 H1189 0.930 . S
C1205 C1204 1.377 . S
C1205 C1206 1.379 . S
C1206 H1190 0.931 . S
C1206 C1200 1.383 . S
C1206 C1205 1.379 . S
H1207 C1201 0.959 . S
H1208 C1201 0.961 . S
H1209 C1201 0.960 . S
H1210 C1202 0.930 . S
H1211 C1203 0.929 . S
H1212 C1220 0.929 . S
H1213 C1222 0.930 . S
H1214 C1224 0.930 . S
H1215 C1227 0.929 . S
H1216 C1230 0.930 . S
H1217 C1232 0.960 . S
H1218 C1232 0.960 . S
H1219 C1232 0.960 . S
C1220 H1212 0.929 . S
C1220 C1221 1.377 . S
C1220 C1222 1.384 . S
C1221 C1220 1.377 . S
C1221 C1227 1.390 . S
C1222 H1213 0.930 . S
C1222 C1220 1.384 . S
C1222 C1223 1.372 . S
C1223 C1222 1.372 . S
C1223 C1224 1.400 . S
C1223 C1228 1.490 . S
C1224 H1214 0.930 . S
C1224 C1223 1.400 . S
C1224 C1227 1.386 . S
H1225 C1241 0.930 . S
H1226 C1242 0.931 . S
C1227 H1215 0.929 . S
C1227 C1221 1.390 . S
C1227 C1224 1.386 . S
C1228 C1223 1.490 . S
C1228 C1230 1.395 . S
C1228 C1231 1.403 . S
H1229 C1235 0.930 . S
C1230 H1216 0.930 . S
C1230 C1228 1.395 . S
C1230 C1233 1.403 . S
C1231 C1228 1.403 . S
C1231 C1232 1.524 . S
C1231 C1235 1.400 . S
C1232 H1217 0.960 . S
C1232 H1218 0.960 . S
C1232 H1219 0.960 . S
C1232 C1231 1.524 . S
C1233 C1230 1.403 . S
C1233 C1234 1.392 . S
C1233 C1237 1.495 . S
C1234 C1233 1.392 . S
C1234 C1235 1.385 . S
C1234 C1236 1.478 . S
C1235 H1229 0.930 . S
C1235 C1231 1.400 . S
C1235 C1234 1.385 . S
C1236 C1234 1.478 . S
C1236 C1238 1.381 . S
C1236 C1242 1.383 . S
C1237 C1233 1.495 . S
C1237 H1243 0.959 . S
C1237 H1244 0.961 . S
C1237 H1245 0.960 . S
C1238 C1236 1.381 . S
C1238 C1239 1.394 . S
C1238 H1246 0.930 . S
C1239 C1238 1.394 . S
C1239 C1240 1.383 . S
C1239 H1247 0.929 . S
C1240 C1239 1.383 . S
C1240 C1241 1.377 . S
C1241 H1225 0.930 . S
C1241 C1240 1.377 . S
C1241 C1242 1.379 . S
C1242 H1226 0.931 . S
C1242 C1236 1.383 . S
C1242 C1241 1.379 . S
H1243 C1237 0.959 . S
H1244 C1237 0.961 . S
H1245 C1237 0.960 . S
H1246 C1238 0.930 . S
H1247 C1239 0.929 . S
H1248 C1256 0.929 . S
H1249 C1258 0.930 . S
H1250 C1260 0.930 . S
H1251 C1263 0.929 . S
H1252 C1266 0.930 . S
H1253 C1268 0.960 . S
H1254 C1268 0.960 . S
H1255 C1268 0.960 . S
C1256 H1248 0.929 . S
C1256 C1257 1.377 . S
C1256 C1258 1.384 . S
C1257 C1256 1.377 . S
C1257 C1263 1.390 . S
C1258 H1249 0.930 . S
C1258 C1256 1.384 . S
C1258 C1259 1.372 . S
C1259 C1258 1.372 . S
C1259 C1260 1.400 . S
C1259 C1264 1.490 . S
C1260 H1250 0.930 . S
C1260 C1259 1.400 . S
C1260 C1263 1.386 . S
H1261 C1277 0.930 . S
H1262 C1278 0.931 . S
C1263 H1251 0.929 . S
C1263 C1257 1.390 . S
C1263 C1260 1.386 . S
C1264 C1259 1.490 . S
C1264 C1266 1.395 . S
C1264 C1267 1.403 . S
H1265 C1271 0.930 . S
C1266 H1252 0.930 . S
C1266 C1264 1.395 . S
C1266 C1269 1.403 . S
C1267 C1264 1.403 . S
C1267 C1268 1.524 . S
C1267 C1271 1.400 . S
C1268 H1253 0.960 . S
C1268 H1254 0.960 . S
C1268 H1255 0.960 . S
C1268 C1267 1.524 . S
C1269 C1266 1.403 . S
C1269 C1270 1.392 . S
C1269 C1273 1.495 . S
C1270 C1269 1.392 . S
C1270 C1271 1.385 . S
C1270 C1272 1.478 . S
C1271 H1265 0.930 . S
C1271 C1267 1.400 . S
C1271 C1270 1.385 . S
C1272 C1270 1.478 . S
C1272 C1274 1.381 . S
C1272 C1278 1.383 . S
C1273 C1269 1.495 . S
C1273 H1279 0.959 . S
C1273 H1280 0.961 . S
C1273 H1281 0.960 . S
C1274 C1272 1.381 . S
C1274 C1275 1.394 . S
C1274 H1282 0.930 . S
C1275 C1274 1.394 . S
C1275 C1276 1.383 . S
C1275 H1283 0.929 . S
C1276 C1275 1.383 . S
C1276 C1277 1.377 . S
C1277 H1261 0.930 . S
C1277 C1276 1.377 . S
C1277 C1278 1.379 . S
C1278 H1262 0.931 . S
C1278 C1272 1.383 . S
C1278 C1277 1.379 . S
H1279 C1273 0.959 . S
H1280 C1273 0.961 . S
H1281 C1273 0.960 . S
H1282 C1274 0.930 . S
H1283 C1275 0.929 . S
H1284 C1292 0.929 . S
H1285 C1294 0.930 . S
H1286 C1296 0.930 . S
H1287 C1299 0.929 . S
H1288 C1302 0.930 . S
H1289 C1304 0.960 . S
H1290 C1304 0.960 . S
H1291 C1304 0.960 . S
C1292 H1284 0.929 . S
C1292 C1293 1.377 . S
C1292 C1294 1.384 . S
C1293 C1292 1.377 . S
C1293 C1299 1.390 . S
C1294 H1285 0.930 . S
C1294 C1292 1.384 . S
C1294 C1295 1.372 . S
C1295 C1294 1.372 . S
C1295 C1296 1.400 . S
C1295 C1300 1.490 . S
C1296 H1286 0.930 . S
C1296 C1295 1.400 . S
C1296 C1299 1.386 . S
H1297 C1313 0.930 . S
H1298 C1314 0.931 . S
C1299 H1287 0.929 . S
C1299 C1293 1.390 . S
C1299 C1296 1.386 . S
C1300 C1295 1.490 . S
C1300 C1302 1.395 . S
C1300 C1303 1.403 . S
H1301 C1307 0.930 . S
C1302 H1288 0.930 . S
C1302 C1300 1.395 . S
C1302 C1305 1.403 . S
C1303 C1300 1.403 . S
C1303 C1304 1.524 . S
C1303 C1307 1.400 . S
C1304 H1289 0.960 . S
C1304 H1290 0.960 . S
C1304 H1291 0.960 . S
C1304 C1303 1.524 . S
C1305 C1302 1.403 . S
C1305 C1306 1.392 . S
C1305 C1309 1.495 . S
C1306 C1305 1.392 . S
C1306 C1307 1.385 . S
C1306 C1308 1.478 . S
C1307 H1301 0.930 . S
C1307 C1303 1.400 . S
C1307 C1306 1.385 . S
C1308 C1306 1.478 . S
C1308 C1310 1.381 . S
C1308 C1314 1.383 . S
C1309 C1305 1.495 . S
C1309 H1315 0.959 . S
C1309 H1316 0.961 . S
C1309 H1317 0.960 . S
C1310 C1308 1.381 . S
C1310 C1311 1.394 . S
C1310 H1318 0.930 . S
C1311 C1310 1.394 . S
C1311 C1312 1.383 . S
C1311 H1319 0.929 . S
C1312 C1311 1.383 . S
C1312 C1313 1.377 . S
C1313 H1297 0.930 . S
C1313 C1312 1.377 . S
C1313 C1314 1.379 . S
C1314 H1298 0.931 . S
C1314 C1308 1.383 . S
C1314 C1313 1.379 . S
H1315 C1309 0.959 . S
H1316 C1309 0.961 . S
H1317 C1309 0.960 . S
H1318 C1310 0.930 . S
H1319 C1311 0.929 . S
H1320 C1328 0.929 . S
H1321 C1330 0.930 . S
H1322 C1332 0.930 . S
H1323 C1335 0.929 . S
H1324 C1338 0.930 . S
H1325 C1340 0.960 . S
H1326 C1340 0.960 . S
H1327 C1340 0.960 . S
C1328 H1320 0.929 . S
C1328 C1329 1.377 . S
C1328 C1330 1.384 . S
C1329 C1328 1.377 . S
C1329 C1335 1.390 . S
C1330 H1321 0.930 . S
C1330 C1328 1.384 . S
C1330 C1331 1.372 . S
C1331 C1330 1.372 . S
C1331 C1332 1.400 . S
C1331 C1336 1.490 . S
C1332 H1322 0.930 . S
C1332 C1331 1.400 . S
C1332 C1335 1.386 . S
H1333 C1349 0.930 . S
H1334 C1350 0.931 . S
C1335 H1323 0.929 . S
C1335 C1329 1.390 . S
C1335 C1332 1.386 . S
C1336 C1331 1.490 . S
C1336 C1338 1.395 . S
C1336 C1339 1.403 . S
H1337 C1343 0.930 . S
C1338 H1324 0.930 . S
C1338 C1336 1.395 . S
C1338 C1341 1.403 . S
C1339 C1336 1.403 . S
C1339 C1340 1.524 . S
C1339 C1343 1.400 . S
C1340 H1325 0.960 . S
C1340 H1326 0.960 . S
C1340 H1327 0.960 . S
C1340 C1339 1.524 . S
C1341 C1338 1.403 . S
C1341 C1342 1.392 . S
C1341 C1345 1.495 . S
C1342 C1341 1.392 . S
C1342 C1343 1.385 . S
C1342 C1344 1.478 . S
C1343 H1337 0.930 . S
C1343 C1339 1.400 . S
C1343 C1342 1.385 . S
C1344 C1342 1.478 . S
C1344 C1346 1.381 . S
C1344 C1350 1.383 . S
C1345 C1341 1.495 . S
C1345 H1351 0.959 . S
C1345 H1352 0.961 . S
C1345 H1353 0.960 . S
C1346 C1344 1.381 . S
C1346 C1347 1.394 . S
C1346 H1354 0.930 . S
C1347 C1346 1.394 . S
C1347 C1348 1.383 . S
C1347 H1355 0.929 . S
C1348 C1347 1.383 . S
C1348 C1349 1.377 . S
C1349 H1333 0.930 . S
C1349 C1348 1.377 . S
C1349 C1350 1.379 . S
C1350 H1334 0.931 . S
C1350 C1344 1.383 . S
C1350 C1349 1.379 . S
H1351 C1345 0.959 . S
H1352 C1345 0.961 . S
H1353 C1345 0.960 . S
H1354 C1346 0.930 . S
H1355 C1347 0.929 . S
H1356 C1364 0.929 . S
H1357 C1366 0.930 . S
H1358 C1368 0.930 . S
H1359 C1371 0.929 . S
H1360 C1374 0.930 . S
H1361 C1376 0.960 . S
H1362 C1376 0.960 . S
H1363 C1376 0.960 . S
C1364 H1356 0.929 . S
C1364 C1365 1.377 . S
C1364 C1366 1.384 . S
C1365 C1364 1.377 . S
C1365 C1371 1.390 . S
C1366 H1357 0.930 . S
C1366 C1364 1.384 . S
C1366 C1367 1.372 . S
C1367 C1366 1.372 . S
C1367 C1368 1.400 . S
C1367 C1372 1.490 . S
C1368 H1358 0.930 . S
C1368 C1367 1.400 . S
C1368 C1371 1.386 . S
H1369 C1385 0.930 . S
H1370 C1386 0.931 . S
C1371 H1359 0.929 . S
C1371 C1365 1.390 . S
C1371 C1368 1.386 . S
C1372 C1367 1.490 . S
C1372 C1374 1.395 . S
C1372 C1375 1.403 . S
H1373 C1379 0.930 . S
C1374 H1360 0.930 . S
C1374 C1372 1.395 . S
C1374 C1377 1.403 . S
C1375 C1372 1.403 . S
C1375 C1376 1.524 . S
C1375 C1379 1.400 . S
C1376 H1361 0.960 . S
C1376 H1362 0.960 . S
C1376 H1363 0.960 . S
C1376 C1375 1.524 . S
C1377 C1374 1.403 . S
C1377 C1378 1.392 . S
C1377 C1381 1.495 . S
C1378 C1377 1.392 . S
C1378 C1379 1.385 . S
C1378 C1380 1.478 . S
C1379 H1373 0.930 . S
C1379 C1375 1.400 . S
C1379 C1378 1.385 . S
C1380 C1378 1.478 . S
C1380 C1382 1.381 . S
C1380 C1386 1.383 . S
C1381 C1377 1.495 . S
C1381 H1387 0.959 . S
C1381 H1388 0.961 . S
C1381 H1389 0.960 . S
C1382 C1380 1.381 . S
C1382 C1383 1.394 . S
C1382 H1390 0.930 . S
C1383 C1382 1.394 . S
C1383 C1384 1.383 . S
C1383 H1391 0.929 . S
C1384 C1383 1.383 . S
C1384 C1385 1.377 . S
C1385 H1369 0.930 . S
C1385 C1384 1.377 . S
C1385 C1386 1.379 . S
C1386 H1370 0.931 . S
C1386 C1380 1.383 . S
C1386 C1385 1.379 . S
H1387 C1381 0.959 . S
H1388 C1381 0.961 . S
H1389 C1381 0.960 . S
H1390 C1382 0.930 . S
H1391 C1383 0.929 . S
H1392 C1400 0.929 . S
H1393 C1402 0.930 . S
H1394 C1404 0.928 . S
H1395 C1407 0.929 . S
H1396 C1410 0.930 . S
H1397 C1412 0.960 . S
H1398 C1412 0.960 . S
H1399 C1412 0.960 . S
C1400 H1392 0.929 . S
C1400 C1401 1.377 . S
C1400 C1402 1.384 . S
C1401 C1400 1.377 . S
C1401 C1407 1.390 1_545 S
C1402 H1393 0.930 . S
C1402 C1400 1.384 . S
C1402 C1403 1.372 . S
C1403 C1402 1.372 . S
C1403 C1404 1.402 1_545 S
C1403 C1408 1.490 . S
C1404 H1394 0.928 . S
C1404 C1403 1.402 1_565 S
C1404 C1407 1.385 . S
H1405 C1421 0.930 1_565 S
H1406 C1422 0.931 1_565 S
C1407 H1395 0.929 . S
C1407 C1401 1.390 1_565 S
C1407 C1404 1.385 . S
C1408 C1403 1.490 . S
C1408 C1410 1.395 . S
C1408 C1411 1.403 . S
H1409 C1415 0.930 . S
C1410 H1396 0.930 . S
C1410 C1408 1.395 . S
C1410 C1413 1.403 1_655 S
C1411 C1408 1.403 . S
C1411 C1412 1.524 . S
C1411 C1415 1.400 1_655 S
C1412 H1397 0.960 . S
C1412 H1398 0.960 . S
C1412 H1399 0.960 . S
C1412 C1411 1.524 . S
C1413 C1410 1.403 1_455 S
C1413 C1414 1.392 . S
C1413 C1417 1.495 . S
C1414 C1413 1.392 . S
C1414 C1415 1.385 . S
C1414 C1416 1.478 . S
C1415 H1409 0.930 . S
C1415 C1411 1.400 1_455 S
C1415 C1414 1.385 . S
C1416 C1414 1.478 . S
C1416 C1418 1.381 . S
C1416 C1422 1.383 . S
C1417 C1413 1.495 . S
C1417 H1423 0.959 . S
C1417 H1424 0.961 . S
C1417 H1425 0.960 . S
C1418 C1416 1.381 . S
C1418 C1419 1.394 . S
C1418 H1426 0.930 . S
C1419 C1418 1.394 . S
C1419 C1420 1.383 . S
C1419 H1427 0.929 . S
C1420 C1419 1.383 . S
C1420 C1421 1.377 . S
C1421 H1405 0.930 1_545 S
C1421 C1420 1.377 . S
C1421 C1422 1.379 . S
C1422 H1406 0.931 1_545 S
C1422 C1416 1.383 . S
C1422 C1421 1.379 . S
H1423 C1417 0.959 . S
H1424 C1417 0.961 . S
H1425 C1417 0.960 . S
H1426 C1418 0.930 . S
H1427 C1419 0.929 . S
H1428 C1436 0.929 . S
H1429 C1438 0.930 . S
H1430 C1440 0.930 . S
H1431 C1443 0.929 . S
H1432 C1446 0.930 . S
H1433 C1448 0.960 . S
H1434 C1448 0.960 . S
H1435 C1448 0.960 . S
C1436 H1428 0.929 . S
C1436 C1437 1.377 1_565 S
C1436 C1438 1.384 . S
C1437 C1436 1.377 1_545 S
C1437 C1443 1.390 . S
C1438 H1429 0.930 . S
C1438 C1436 1.384 . S
C1438 C1439 1.372 1_565 S
C1439 C1438 1.372 1_545 S
C1439 C1440 1.400 . S
C1439 C1444 1.490 . S
C1440 H1430 0.930 . S
C1440 C1439 1.400 . S
C1440 C1443 1.386 . S
H1441 C1457 0.930 . S
H1442 C1458 0.931 . S
C1443 H1431 0.929 . S
C1443 C1437 1.390 . S
C1443 C1440 1.386 . S
C1444 C1439 1.490 . S
C1444 C1446 1.395 1_545 S
C1444 C1447 1.403 . S
H1445 C1451 0.930 . S
C1446 H1432 0.930 . S
C1446 C1444 1.395 1_565 S
C1446 C1449 1.403 1_455 S
C1447 C1444 1.403 . S
C1447 C1448 1.524 . S
C1447 C1451 1.400 1_455 S
C1448 H1433 0.960 . S
C1448 H1434 0.960 . S
C1448 H1435 0.960 . S
C1448 C1447 1.524 . S
C1449 C1446 1.403 1_655 S
C1449 C1450 1.392 1_565 S
C1449 C1453 1.495 . S
C1450 C1449 1.392 1_545 S
C1450 C1451 1.385 . S
C1450 C1452 1.478 . S
C1451 H1445 0.930 . S
C1451 C1447 1.400 1_655 S
C1451 C1450 1.385 . S
C1452 C1450 1.478 . S
C1452 C1454 1.381 . S
C1452 C1458 1.383 . S
C1453 C1449 1.495 . S
C1453 H1459 0.959 . S
C1453 H1460 0.961 . S
C1453 H1461 0.960 . S
C1454 C1452 1.381 . S
C1454 C1455 1.394 . S
C1454 H1462 0.930 1_545 S
C1455 C1454 1.394 . S
C1455 C1456 1.383 . S
C1455 H1463 0.929 1_545 S
C1456 C1455 1.383 . S
C1456 C1457 1.377 . S
C1457 H1441 0.930 . S
C1457 C1456 1.377 . S
C1457 C1458 1.379 . S
C1458 H1442 0.931 . S
C1458 C1452 1.383 . S
C1458 C1457 1.379 . S
H1459 C1453 0.959 . S
H1460 C1453 0.961 . S
H1461 C1453 0.960 . S
H1462 C1454 0.930 1_565 S
H1463 C1455 0.929 1_565 S
H1464 C1472 0.929 . S
H1465 C1474 0.930 . S
H1466 C1476 0.930 . S
H1467 C1479 0.929 . S
H1468 C1482 0.930 . S
H1469 C1484 0.960 . S
H1470 C1484 0.960 . S
H1471 C1484 0.960 . S
C1472 H1464 0.929 . S
C1472 C1473 1.377 . S
C1472 C1474 1.384 . S
C1473 C1472 1.377 . S
C1473 C1479 1.390 . S
C1474 H1465 0.930 . S
C1474 C1472 1.384 . S
C1474 C1475 1.372 . S
C1475 C1474 1.372 . S
C1475 C1476 1.400 . S
C1475 C1480 1.490 . S
C1476 H1466 0.930 . S
C1476 C1475 1.400 . S
C1476 C1479 1.386 . S
H1477 C1493 0.930 . S
H1478 C1494 0.931 . S
C1479 H1467 0.929 . S
C1479 C1473 1.390 . S
C1479 C1476 1.386 . S
C1480 C1475 1.490 . S
C1480 C1482 1.395 . S
C1480 C1483 1.403 . S
H1481 C1487 0.930 . S
C1482 H1468 0.930 . S
C1482 C1480 1.395 . S
C1482 C1485 1.403 1_655 S
C1483 C1480 1.403 . S
C1483 C1484 1.524 . S
C1483 C1487 1.400 1_655 S
C1484 H1469 0.960 . S
C1484 H1470 0.960 . S
C1484 H1471 0.960 . S
C1484 C1483 1.524 . S
C1485 C1482 1.403 1_455 S
C1485 C1486 1.392 . S
C1485 C1489 1.495 . S
C1486 C1485 1.392 . S
C1486 C1487 1.385 . S
C1486 C1488 1.478 . S
C1487 H1481 0.930 . S
C1487 C1483 1.400 1_455 S
C1487 C1486 1.385 . S
C1488 C1486 1.478 . S
C1488 C1490 1.381 . S
C1488 C1494 1.383 . S
C1489 C1485 1.495 . S
C1489 H1495 0.959 . S
C1489 H1496 0.961 . S
C1489 H1497 0.960 . S
C1490 C1488 1.381 . S
C1490 C1491 1.394 . S
C1490 H1498 0.930 . S
C1491 C1490 1.394 . S
C1491 C1492 1.383 . S
C1491 H1499 0.929 . S
C1492 C1491 1.383 . S
C1492 C1493 1.377 . S
C1493 H1477 0.930 . S
C1493 C1492 1.377 . S
C1493 C1494 1.379 . S
C1494 H1478 0.931 . S
C1494 C1488 1.383 . S
C1494 C1493 1.379 . S
H1495 C1489 0.959 . S
H1496 C1489 0.961 . S
H1497 C1489 0.960 . S
H1498 C1490 0.930 . S
H1499 C1491 0.929 . S
H1500 C1508 0.929 . S
H1501 C1510 0.930 . S
H1502 C1512 0.930 . S
H1503 C1515 0.929 . S
H1504 C1518 0.930 . S
H1505 C1520 0.960 . S
H1506 C1520 0.960 . S
H1507 C1520 0.960 . S
C1508 H1500 0.929 . S
C1508 C1509 1.377 . S
C1508 C1510 1.384 . S
C1509 C1508 1.377 . S
C1509 C1515 1.390 . S
C1510 H1501 0.930 . S
C1510 C1508 1.384 . S
C1510 C1511 1.372 . S
C1511 C1510 1.372 . S
C1511 C1512 1.400 . S
C1511 C1516 1.490 . S
C1512 H1502 0.930 . S
C1512 C1511 1.400 . S
C1512 C1515 1.386 . S
H1513 C1529 0.930 . S
H1514 C1530 0.931 . S
C1515 H1503 0.929 . S
C1515 C1509 1.390 . S
C1515 C1512 1.386 . S
C1516 C1511 1.490 . S
C1516 C1518 1.395 . S
C1516 C1519 1.403 . S
H1517 C1523 0.930 . S
C1518 H1504 0.930 . S
C1518 C1516 1.395 . S
C1518 C1521 1.403 1_655 S
C1519 C1516 1.403 . S
C1519 C1520 1.524 . S
C1519 C1523 1.400 1_655 S
C1520 H1505 0.960 . S
C1520 H1506 0.960 . S
C1520 H1507 0.960 . S
C1520 C1519 1.524 . S
C1521 C1518 1.403 1_455 S
C1521 C1522 1.392 . S
C1521 C1525 1.495 . S
C1522 C1521 1.392 . S
C1522 C1523 1.385 . S
C1522 C1524 1.478 . S
C1523 H1517 0.930 . S
C1523 C1519 1.400 1_455 S
C1523 C1522 1.385 . S
C1524 C1522 1.478 . S
C1524 C1526 1.381 . S
C1524 C1530 1.383 . S
C1525 C1521 1.495 . S
C1525 H1531 0.959 . S
C1525 H1532 0.961 . S
C1525 H1533 0.960 . S
C1526 C1524 1.381 . S
C1526 C1527 1.394 . S
C1526 H1534 0.930 . S
C1527 C1526 1.394 . S
C1527 C1528 1.383 . S
C1527 H1535 0.929 . S
C1528 C1527 1.383 . S
C1528 C1529 1.377 . S
C1529 H1513 0.930 . S
C1529 C1528 1.377 . S
C1529 C1530 1.379 . S
C1530 H1514 0.931 . S
C1530 C1524 1.383 . S
C1530 C1529 1.379 . S
H1531 C1525 0.959 . S
H1532 C1525 0.961 . S
H1533 C1525 0.960 . S
H1534 C1526 0.930 . S
H1535 C1527 0.929 . S
H1536 C1544 0.929 . S
H1537 C1546 0.930 . S
H1538 C1548 0.930 . S
H1539 C1551 0.929 . S
H1540 C1554 0.930 . S
H1541 C1556 0.960 . S
H1542 C1556 0.960 . S
H1543 C1556 0.960 . S
C1544 H1536 0.929 . S
C1544 C1545 1.377 . S
C1544 C1546 1.384 . S
C1545 C1544 1.377 . S
C1545 C1551 1.390 . S
C1546 H1537 0.930 . S
C1546 C1544 1.384 . S
C1546 C1547 1.372 . S
C1547 C1546 1.372 . S
C1547 C1548 1.400 . S
C1547 C1552 1.490 . S
C1548 H1538 0.930 . S
C1548 C1547 1.400 . S
C1548 C1551 1.386 . S
H1549 C1565 0.930 . S
H1550 C1566 0.931 . S
C1551 H1539 0.929 . S
C1551 C1545 1.390 . S
C1551 C1548 1.386 . S
C1552 C1547 1.490 . S
C1552 C1554 1.395 1_545 S
C1552 C1555 1.403 . S
H1553 C1559 0.930 . S
C1554 H1540 0.930 . S
C1554 C1552 1.395 1_565 S
C1554 C1557 1.403 . S
C1555 C1552 1.403 . S
C1555 C1556 1.524 . S
C1555 C1559 1.400 . S
C1556 H1541 0.960 . S
C1556 H1542 0.960 . S
C1556 H1543 0.960 . S
C1556 C1555 1.524 . S
C1557 C1554 1.403 . S
C1557 C1558 1.392 1_565 S
C1557 C1561 1.495 . S
C1558 C1557 1.392 1_545 S
C1558 C1559 1.385 . S
C1558 C1560 1.478 . S
C1559 H1553 0.930 . S
C1559 C1555 1.400 . S
C1559 C1558 1.385 . S
C1560 C1558 1.478 . S
C1560 C1562 1.381 . S
C1560 C1566 1.383 . S
C1561 C1557 1.495 . S
C1561 H1567 0.959 . S
C1561 H1568 0.961 . S
C1561 H1569 0.960 . S
C1562 C1560 1.381 . S
C1562 C1563 1.394 . S
C1562 H1570 0.930 . S
C1563 C1562 1.394 . S
C1563 C1564 1.383 . S
C1563 H1571 0.929 . S
C1564 C1563 1.383 . S
C1564 C1565 1.377 . S
C1565 H1549 0.930 . S
C1565 C1564 1.377 . S
C1565 C1566 1.379 . S
C1566 H1550 0.931 . S
C1566 C1560 1.383 . S
C1566 C1565 1.379 . S
H1567 C1561 0.959 . S
H1568 C1561 0.961 . S
H1569 C1561 0.960 . S
H1570 C1562 0.930 . S
H1571 C1563 0.929 . S
H1572 C1580 0.929 1_565 S
H1573 C1582 0.930 1_565 S
H1574 C1584 0.930 . S
H1575 C1587 0.929 . S
H1576 C1590 0.949 . S
H1577 C1592 0.960 . S
H1578 C1592 0.960 . S
H1579 C1592 0.960 . S
C1580 H1572 0.929 1_545 S
C1580 C1581 1.377 . S
C1580 C1582 1.384 . S
C1581 C1580 1.377 . S
C1581 C1587 1.390 . S
C1582 H1573 0.930 1_545 S
C1582 C1580 1.384 . S
C1582 C1583 1.372 . S
C1583 C1582 1.372 . S
C1583 C1584 1.400 . S
C1583 C1588 1.490 . S
C1584 H1574 0.930 . S
C1584 C1583 1.400 . S
C1584 C1587 1.386 . S
H1585 C1601 0.930 . S
H1586 C1602 0.931 . S
C1587 H1575 0.929 . S
C1587 C1581 1.390 . S
C1587 C1584 1.386 . S
C1588 C1583 1.490 . S
C1588 C1590 1.373 1_545 S
C1588 C1591 1.403 . S
H1589 C1595 0.930 . S
C1590 H1576 0.949 . S
C1590 C1588 1.373 1_565 S
C1590 C1593 1.406 . S
C1591 C1588 1.403 . S
C1591 C1592 1.524 . S
C1591 C1595 1.400 . S
C1592 H1577 0.960 . S
C1592 H1578 0.960 . S
C1592 H1579 0.960 . S
C1592 C1591 1.524 . S
C1593 C1590 1.406 . S
C1593 C1594 1.392 1_565 S
C1593 C1597 1.495 . S
C1594 C1593 1.392 1_545 S
C1594 C1595 1.385 . S
C1594 C1596 1.478 . S
C1595 H1589 0.930 . S
C1595 C1591 1.400 . S
C1595 C1594 1.385 . S
C1596 C1594 1.478 . S
C1596 C1598 1.381 1_545 S
C1596 C1602 1.383 . S
C1597 C1593 1.495 . S
C1597 H1603 0.959 . S
C1597 H1604 0.961 . S
C1597 H1605 0.960 . S
C1598 C1596 1.381 1_565 S
C1598 C1599 1.394 . S
C1598 H1606 0.930 . S
C1599 C1598 1.394 . S
C1599 C1600 1.383 1_565 S
C1599 H1607 0.929 . S
C1600 C1599 1.383 1_545 S
C1600 C1601 1.377 . S
C1601 H1585 0.930 . S
C1601 C1600 1.377 . S
C1601 C1602 1.379 . S
C1602 H1586 0.931 . S
C1602 C1596 1.383 . S
C1602 C1601 1.379 . S
H1603 C1597 0.959 . S
H1604 C1597 0.961 . S
H1605 C1597 0.960 . S
H1606 C1598 0.930 . S
H1607 C1599 0.929 . S
H1608 C1616 0.929 . S
H1609 C1618 0.930 . S
H1610 C1620 0.930 . S
H1611 C1623 0.929 . S
H1612 C1626 0.930 . S
H1613 C1628 0.960 . S
H1614 C1628 0.960 . S
H1615 C1628 0.960 . S
C1616 H1608 0.929 . S
C1616 C1617 1.377 . S
C1616 C1618 1.384 . S
C1617 C1616 1.377 . S
C1617 C1623 1.390 . S
C1618 H1609 0.930 . S
C1618 C1616 1.384 . S
C1618 C1619 1.372 . S
C1619 C1618 1.372 . S
C1619 C1620 1.400 . S
C1619 C1624 1.490 . S
C1620 H1610 0.930 . S
C1620 C1619 1.400 . S
C1620 C1623 1.386 . S
H1621 C1637 0.930 . S
H1622 C1638 0.931 . S
C1623 H1611 0.929 . S
C1623 C1617 1.390 . S
C1623 C1620 1.386 . S
C1624 C1619 1.490 . S
C1624 C1626 1.395 . S
C1624 C1627 1.403 . S
H1625 C1631 0.930 . S
C1626 H1612 0.930 . S
C1626 C1624 1.395 . S
C1626 C1629 1.403 . S
C1627 C1624 1.403 . S
C1627 C1628 1.524 . S
C1627 C1631 1.400 . S
C1628 H1613 0.960 . S
C1628 H1614 0.960 . S
C1628 H1615 0.960 . S
C1628 C1627 1.524 . S
C1629 C1626 1.403 . S
C1629 C1630 1.392 . S
C1629 C1633 1.495 . S
C1630 C1629 1.392 . S
C1630 C1631 1.385 . S
C1630 C1632 1.478 . S
C1631 H1625 0.930 . S
C1631 C1627 1.400 . S
C1631 C1630 1.385 . S
C1632 C1630 1.478 . S
C1632 C1634 1.381 . S
C1632 C1638 1.383 . S
C1633 C1629 1.495 . S
C1633 H1639 0.959 . S
C1633 H1640 0.961 . S
C1633 H1641 0.960 . S
C1634 C1632 1.381 . S
C1634 C1635 1.394 . S
C1634 H1642 0.930 . S
C1635 C1634 1.394 . S
C1635 C1636 1.383 . S
C1635 H1643 0.929 . S
C1636 C1635 1.383 . S
C1636 C1637 1.377 . S
C1637 H1621 0.930 . S
C1637 C1636 1.377 . S
C1637 C1638 1.379 . S
C1638 H1622 0.931 . S
C1638 C1632 1.383 . S
C1638 C1637 1.379 . S
H1639 C1633 0.959 . S
H1640 C1633 0.961 . S
H1641 C1633 0.960 . S
H1642 C1634 0.930 . S
H1643 C1635 0.929 . S
H1644 C1652 0.929 . S
H1645 C1654 0.930 . S
H1646 C1656 0.930 . S
H1647 C1659 0.929 . S
H1648 C1662 0.930 . S
H1649 C1664 0.960 . S
H1650 C1664 0.960 . S
H1651 C1664 0.960 . S
C1652 H1644 0.929 . S
C1652 C1653 1.377 . S
C1652 C1654 1.384 . S
C1653 C1652 1.377 . S
C1653 C1659 1.390 . S
C1654 H1645 0.930 . S
C1654 C1652 1.384 . S
C1654 C1655 1.372 . S
C1655 C1654 1.372 . S
C1655 C1656 1.400 . S
C1655 C1660 1.490 . S
C1656 H1646 0.930 . S
C1656 C1655 1.400 . S
C1656 C1659 1.386 . S
H1657 C1673 0.930 . S
H1658 C1674 0.931 . S
C1659 H1647 0.929 . S
C1659 C1653 1.390 . S
C1659 C1656 1.386 . S
C1660 C1655 1.490 . S
C1660 C1662 1.395 . S
C1660 C1663 1.403 . S
H1661 C1667 0.930 . S
C1662 H1648 0.930 . S
C1662 C1660 1.395 . S
C1662 C1665 1.403 . S
C1663 C1660 1.403 . S
C1663 C1664 1.524 . S
C1663 C1667 1.400 . S
C1664 H1649 0.960 . S
C1664 H1650 0.960 . S
C1664 H1651 0.960 . S
C1664 C1663 1.524 . S
C1665 C1662 1.403 . S
C1665 C1666 1.392 . S
C1665 C1669 1.495 . S
C1666 C1665 1.392 . S
C1666 C1667 1.385 . S
C1666 C1668 1.478 . S
C1667 H1661 0.930 . S
C1667 C1663 1.400 . S
C1667 C1666 1.385 . S
C1668 C1666 1.478 . S
C1668 C1670 1.381 . S
C1668 C1674 1.383 . S
C1669 C1665 1.495 . S
C1669 H1675 0.959 . S
C1669 H1676 0.961 . S
C1669 H1677 0.960 . S
C1670 C1668 1.381 . S
C1670 C1671 1.394 . S
C1670 H1678 0.930 . S
C1671 C1670 1.394 . S
C1671 C1672 1.383 . S
C1671 H1679 0.929 . S
C1672 C1671 1.383 . S
C1672 C1673 1.377 . S
C1673 H1657 0.930 . S
C1673 C1672 1.377 . S
C1673 C1674 1.379 . S
C1674 H1658 0.931 . S
C1674 C1668 1.383 . S
C1674 C1673 1.379 . S
H1675 C1669 0.959 . S
H1676 C1669 0.961 . S
H1677 C1669 0.960 . S
H1678 C1670 0.930 . S
H1679 C1671 0.929 . S
H1680 C1688 0.929 . S
H1681 C1690 0.930 . S
H1682 C1692 0.930 . S
H1683 C1695 0.929 . S
H1684 C1698 0.930 . S
H1685 C1700 0.960 . S
H1686 C1700 0.960 . S
H1687 C1700 0.960 1_545 S
C1688 H1680 0.929 . S
C1688 C1689 1.377 . S
C1688 C1690 1.384 . S
C1689 C1688 1.377 . S
C1689 C1695 1.390 . S
C1690 H1681 0.930 . S
C1690 C1688 1.384 . S
C1690 C1691 1.372 . S
C1691 C1690 1.372 . S
C1691 C1692 1.400 . S
C1691 C1696 1.490 . S
C1692 H1682 0.930 . S
C1692 C1691 1.400 . S
C1692 C1695 1.386 . S
H1693 C1709 0.930 . S
H1694 C1710 0.931 . S
C1695 H1683 0.929 . S
C1695 C1689 1.390 . S
C1695 C1692 1.386 . S
C1696 C1691 1.490 . S
C1696 C1698 1.395 . S
C1696 C1699 1.403 . S
H1697 C1703 0.930 . S
C1698 H1684 0.930 . S
C1698 C1696 1.395 . S
C1698 C1701 1.403 1_556 S
C1699 C1696 1.403 . S
C1699 C1700 1.524 1_545 S
C1699 C1703 1.400 1_556 S
C1700 H1685 0.960 . S
C1700 H1686 0.960 . S
C1700 H1687 0.960 1_565 S
C1700 C1699 1.524 1_565 S
C1701 C1698 1.403 1_554 S
C1701 C1702 1.392 . S
C1701 C1705 1.495 . S
C1702 C1701 1.392 . S
C1702 C1703 1.385 . S
C1702 C1704 1.478 . S
C1703 H1697 0.930 . S
C1703 C1699 1.400 1_554 S
C1703 C1702 1.385 . S
C1704 C1702 1.478 . S
C1704 C1706 1.381 . S
C1704 C1710 1.383 . S
C1705 C1701 1.495 . S
C1705 H1711 0.959 . S
C1705 H1712 0.961 . S
C1705 H1713 0.960 . S
C1706 C1704 1.381 . S
C1706 C1707 1.394 . S
C1706 H1714 0.930 . S
C1707 C1706 1.394 . S
C1707 C1708 1.383 . S
C1707 H1715 0.945 . S
C1708 C1707 1.383 . S
C1708 C1709 1.377 . S
C1709 H1693 0.930 . S
C1709 C1708 1.377 . S
C1709 C1710 1.379 . S
C1710 H1694 0.931 . S
C1710 C1704 1.383 . S
C1710 C1709 1.379 . S
H1711 C1705 0.959 . S
H1712 C1705 0.961 . S
H1713 C1705 0.960 . S
H1714 C1706 0.930 . S
H1715 C1707 0.945 . S
H1716 C1724 0.929 . S
H1717 C1726 0.930 . S
H1718 C1728 0.930 . S
H1719 C1731 0.929 . S
H1720 C1734 0.930 1_565 S
H1721 C1736 0.960 . S
H1722 C1736 0.960 . S
H1723 C1736 0.960 . S
C1724 H1716 0.929 . S
C1724 C1725 1.377 1_565 S
C1724 C1726 1.384 . S
C1725 C1724 1.377 1_545 S
C1725 C1731 1.390 . S
C1726 H1717 0.930 . S
C1726 C1724 1.384 . S
C1726 C1727 1.372 1_565 S
C1727 C1726 1.372 1_545 S
C1727 C1728 1.400 . S
C1727 C1732 1.490 . S
C1728 H1718 0.930 . S
C1728 C1727 1.400 . S
C1728 C1731 1.386 . S
H1729 C1745 0.930 . S
H1730 C1746 0.931 . S
C1731 H1719 0.929 . S
C1731 C1725 1.390 . S
C1731 C1728 1.386 . S
C1732 C1727 1.490 . S
C1732 C1734 1.395 . S
C1732 C1735 1.403 . S
H1733 C1739 0.930 . S
C1734 H1720 0.930 1_545 S
C1734 C1732 1.395 . S
C1734 C1737 1.403 1_556 S
C1735 C1732 1.403 . S
C1735 C1736 1.524 . S
C1735 C1739 1.400 1_556 S
C1736 H1721 0.960 . S
C1736 H1722 0.960 . S
C1736 H1723 0.960 . S
C1736 C1735 1.524 . S
C1737 C1734 1.403 1_554 S
C1737 C1738 1.392 . S
C1737 C1741 1.495 1_545 S
C1738 C1737 1.392 . S
C1738 C1739 1.385 . S
C1738 C1740 1.478 . S
C1739 H1733 0.930 . S
C1739 C1735 1.400 1_554 S
C1739 C1738 1.385 . S
C1740 C1738 1.478 . S
C1740 C1742 1.381 1_545 S
C1740 C1746 1.383 . S
C1741 C1737 1.495 1_565 S
C1741 H1747 0.959 . S
C1741 H1748 0.961 . S
C1741 H1749 0.960 . S
C1742 C1740 1.381 1_565 S
C1742 C1743 1.394 . S
C1742 H1750 0.930 . S
C1743 C1742 1.394 . S
C1743 C1744 1.383 1_565 S
C1743 H1751 0.929 . S
C1744 C1743 1.383 1_545 S
C1744 C1745 1.377 . S
C1745 H1729 0.930 . S
C1745 C1744 1.377 . S
C1745 C1746 1.379 . S
C1746 H1730 0.931 . S
C1746 C1740 1.383 . S
C1746 C1745 1.379 . S
H1747 C1741 0.959 . S
H1748 C1741 0.961 . S
H1749 C1741 0.960 . S
H1750 C1742 0.930 . S
H1751 C1743 0.929 . S
H1752 C1760 0.929 . S
H1753 C1762 0.930 . S
H1754 C1764 0.930 . S
H1755 C1767 0.929 . S
H1756 C1770 0.930 . S
H1757 C1772 0.960 . S
H1758 C1772 0.960 . S
H1759 C1772 0.960 . S
C1760 H1752 0.929 . S
C1760 C1761 1.377 . S
C1760 C1762 1.384 . S
C1761 C1760 1.377 . S
C1761 C1767 1.390 . S
C1762 H1753 0.930 . S
C1762 C1760 1.384 . S
C1762 C1763 1.372 . S
C1763 C1762 1.372 . S
C1763 C1764 1.400 . S
C1763 C1768 1.490 . S
C1764 H1754 0.930 . S
C1764 C1763 1.400 . S
C1764 C1767 1.386 . S
H1765 C1781 0.930 . S
H1766 C1782 0.931 . S
C1767 H1755 0.929 . S
C1767 C1761 1.390 . S
C1767 C1764 1.386 . S
C1768 C1763 1.490 . S
C1768 C1770 1.395 . S
C1768 C1771 1.403 . S
H1769 C1775 0.930 . S
C1770 H1756 0.930 . S
C1770 C1768 1.395 . S
C1770 C1773 1.403 . S
C1771 C1768 1.403 . S
C1771 C1772 1.524 . S
C1771 C1775 1.400 . S
C1772 H1757 0.960 . S
C1772 H1758 0.960 . S
C1772 H1759 0.960 . S
C1772 C1771 1.524 . S
C1773 C1770 1.403 . S
C1773 C1774 1.392 . S
C1773 C1777 1.495 . S
C1774 C1773 1.392 . S
C1774 C1775 1.385 . S
C1774 C1776 1.478 . S
C1775 H1769 0.930 . S
C1775 C1771 1.400 . S
C1775 C1774 1.385 . S
C1776 C1774 1.478 . S
C1776 C1778 1.381 . S
C1776 C1782 1.383 . S
C1777 C1773 1.495 . S
C1777 H1783 0.959 . S
C1777 H1784 0.961 . S
C1777 H1785 0.960 . S
C1778 C1776 1.381 . S
C1778 C1779 1.394 . S
C1778 H1786 0.930 . S
C1779 C1778 1.394 . S
C1779 C1780 1.383 . S
C1779 H1787 0.929 . S
C1780 C1779 1.383 . S
C1780 C1781 1.377 . S
C1781 H1765 0.930 . S
C1781 C1780 1.377 . S
C1781 C1782 1.379 . S
C1782 H1766 0.931 . S
C1782 C1776 1.383 . S
C1782 C1781 1.379 . S
H1783 C1777 0.959 . S
H1784 C1777 0.961 . S
H1785 C1777 0.960 . S
H1786 C1778 0.930 . S
H1787 C1779 0.929 . S
H1788 C1796 0.929 . S
H1789 C1798 0.930 . S
H1790 C1800 0.930 . S
H1791 C1803 0.929 . S
H1792 C1806 0.930 . S
H1793 C1808 0.960 . S
H1794 C1808 0.960 . S
H1795 C1808 0.960 . S
C1796 H1788 0.929 . S
C1796 C1797 1.377 . S
C1796 C1798 1.384 . S
C1797 C1796 1.377 . S
C1797 C1803 1.390 . S
C1798 H1789 0.930 . S
C1798 C1796 1.384 . S
C1798 C1799 1.372 . S
C1799 C1798 1.372 . S
C1799 C1800 1.400 . S
C1799 C1804 1.490 . S
C1800 H1790 0.930 . S
C1800 C1799 1.400 . S
C1800 C1803 1.386 . S
H1801 C1817 0.930 . S
H1802 C1818 0.931 . S
C1803 H1791 0.929 . S
C1803 C1797 1.390 . S
C1803 C1800 1.386 . S
C1804 C1799 1.490 . S
C1804 C1806 1.395 . S
C1804 C1807 1.403 . S
H1805 C1811 0.930 . S
C1806 H1792 0.930 . S
C1806 C1804 1.395 . S
C1806 C1809 1.403 . S
C1807 C1804 1.403 . S
C1807 C1808 1.524 . S
C1807 C1811 1.400 . S
C1808 H1793 0.960 . S
C1808 H1794 0.960 . S
C1808 H1795 0.960 . S
C1808 C1807 1.524 . S
C1809 C1806 1.403 . S
C1809 C1810 1.392 . S
C1809 C1813 1.495 . S
C1810 C1809 1.392 . S
C1810 C1811 1.385 . S
C1810 C1812 1.478 . S
C1811 H1805 0.930 . S
C1811 C1807 1.400 . S
C1811 C1810 1.385 . S
C1812 C1810 1.478 . S
C1812 C1814 1.381 . S
C1812 C1818 1.383 . S
C1813 C1809 1.495 . S
C1813 H1819 0.959 . S
C1813 H1820 0.961 . S
C1813 H1821 0.960 . S
C1814 C1812 1.381 . S
C1814 C1815 1.394 . S
C1814 H1822 0.930 . S
C1815 C1814 1.394 . S
C1815 C1816 1.383 . S
C1815 H1823 0.929 . S
C1816 C1815 1.383 . S
C1816 C1817 1.377 . S
C1817 H1801 0.930 . S
C1817 C1816 1.377 . S
C1817 C1818 1.379 . S
C1818 H1802 0.931 . S
C1818 C1812 1.383 . S
C1818 C1817 1.379 . S
H1819 C1813 0.959 . S
H1820 C1813 0.961 . S
H1821 C1813 0.960 . S
H1822 C1814 0.930 . S
H1823 C1815 0.929 . S
H1824 C1832 0.929 . S
H1825 C1834 0.930 . S
H1826 C1836 0.930 . S
H1827 C1839 0.929 . S
H1828 C1842 0.930 . S
H1829 C1844 0.960 . S
H1830 C1844 0.960 . S
H1831 C1844 0.960 . S
C1832 H1824 0.929 . S
C1832 C1833 1.377 . S
C1832 C1834 1.384 . S
C1833 C1832 1.377 . S
C1833 C1839 1.390 . S
C1834 H1825 0.930 . S
C1834 C1832 1.384 . S
C1834 C1835 1.372 . S
C1835 C1834 1.372 . S
C1835 C1836 1.400 . S
C1835 C1840 1.490 . S
C1836 H1826 0.930 . S
C1836 C1835 1.400 . S
C1836 C1839 1.386 . S
H1837 C1853 0.930 . S
H1838 C1854 0.931 . S
C1839 H1827 0.929 . S
C1839 C1833 1.390 . S
C1839 C1836 1.386 . S
C1840 C1835 1.490 . S
C1840 C1842 1.395 . S
C1840 C1843 1.403 . S
H1841 C1847 0.930 1_565 S
C1842 H1828 0.930 . S
C1842 C1840 1.395 . S
C1842 C1845 1.403 . S
C1843 C1840 1.403 . S
C1843 C1844 1.524 1_545 S
C1843 C1847 1.400 . S
C1844 H1829 0.960 . S
C1844 H1830 0.960 . S
C1844 H1831 0.960 . S
C1844 C1843 1.524 1_565 S
C1845 C1842 1.403 . S
C1845 C1846 1.392 . S
C1845 C1849 1.495 . S
C1846 C1845 1.392 . S
C1846 C1847 1.385 . S
C1846 C1848 1.478 . S
C1847 H1841 0.930 1_545 S
C1847 C1843 1.400 . S
C1847 C1846 1.385 . S
C1848 C1846 1.478 . S
C1848 C1850 1.381 . S
C1848 C1854 1.383 . S
C1849 C1845 1.495 . S
C1849 H1855 0.959 . S
C1849 H1856 0.961 . S
C1849 H1857 0.960 . S
C1850 C1848 1.381 . S
C1850 C1851 1.394 . S
C1850 H1858 0.930 . S
C1851 C1850 1.394 . S
C1851 C1852 1.383 . S
C1851 H1859 0.929 . S
C1852 C1851 1.383 . S
C1852 C1853 1.377 . S
C1853 H1837 0.930 . S
C1853 C1852 1.377 . S
C1853 C1854 1.379 . S
C1854 H1838 0.931 . S
C1854 C1848 1.383 . S
C1854 C1853 1.379 . S
H1855 C1849 0.959 . S
H1856 C1849 0.961 . S
H1857 C1849 0.960 . S
H1858 C1850 0.930 . S
H1859 C1851 0.929 . S
H1860 C1868 0.929 . S
H1861 C1870 0.930 . S
H1862 C1872 0.930 . S
H1863 C1875 0.929 . S
H1864 C1878 0.930 . S
H1865 C1880 0.960 . S
H1866 C1880 0.960 . S
H1867 C1880 0.960 . S
C1868 H1860 0.929 . S
C1868 C1869 1.377 . S
C1868 C1870 1.384 . S
C1869 C1868 1.377 . S
C1869 C1875 1.390 . S
C1870 H1861 0.930 . S
C1870 C1868 1.384 . S
C1870 C1871 1.372 . S
C1871 C1870 1.372 . S
C1871 C1872 1.400 . S
C1871 C1876 1.490 . S
C1872 H1862 0.930 . S
C1872 C1871 1.400 . S
C1872 C1875 1.386 . S
H1873 C1889 0.930 . S
H1874 C1890 0.931 . S
C1875 H1863 0.929 . S
C1875 C1869 1.390 . S
C1875 C1872 1.386 . S
C1876 C1871 1.490 . S
C1876 C1878 1.395 . S
C1876 C1879 1.403 . S
H1877 C1883 0.930 1_565 S
C1878 H1864 0.930 . S
C1878 C1876 1.395 . S
C1878 C1881 1.403 . S
C1879 C1876 1.403 . S
C1879 C1880 1.524 1_545 S
C1879 C1883 1.400 . S
C1880 H1865 0.960 . S
C1880 H1866 0.960 . S
C1880 H1867 0.960 . S
C1880 C1879 1.524 1_565 S
C1881 C1878 1.403 . S
C1881 C1882 1.392 . S
C1881 C1885 1.495 . S
C1882 C1881 1.392 . S
C1882 C1883 1.385 . S
C1882 C1884 1.478 . S
C1883 H1877 0.930 1_545 S
C1883 C1879 1.400 . S
C1883 C1882 1.385 . S
C1884 C1882 1.478 . S
C1884 C1886 1.381 . S
C1884 C1890 1.383 . S
C1885 C1881 1.495 . S
C1885 H1891 0.959 . S
C1885 H1892 0.961 . S
C1885 H1893 0.960 . S
C1886 C1884 1.381 . S
C1886 C1887 1.394 . S
C1886 H1894 0.930 . S
C1887 C1886 1.394 . S
C1887 C1888 1.383 . S
C1887 H1895 0.929 . S
C1888 C1887 1.383 . S
C1888 C1889 1.377 . S
C1889 H1873 0.930 . S
C1889 C1888 1.377 . S
C1889 C1890 1.379 . S
C1890 H1874 0.931 . S
C1890 C1884 1.383 . S
C1890 C1889 1.379 . S
H1891 C1885 0.959 . S
H1892 C1885 0.961 . S
H1893 C1885 0.960 . S
H1894 C1886 0.930 . S
H1895 C1887 0.929 . S
H1896 C1904 0.929 . S
H1897 C1906 0.930 . S
H1898 C1908 0.930 . S
H1899 C1911 0.929 . S
H1900 C1914 0.930 . S
H1901 C1916 0.960 . S
H1902 C1916 0.960 . S
H1903 C1916 0.960 . S
C1904 H1896 0.929 . S
C1904 C1905 1.377 . S
C1904 C1906 1.384 . S
C1905 C1904 1.377 . S
C1905 C1911 1.390 . S
C1906 H1897 0.930 . S
C1906 C1904 1.384 . S
C1906 C1907 1.372 . S
C1907 C1906 1.372 . S
C1907 C1908 1.400 . S
C1907 C1912 1.490 . S
C1908 H1898 0.930 . S
C1908 C1907 1.400 . S
C1908 C1911 1.386 . S
H1909 C1925 0.930 . S
H1910 C1926 0.931 . S
C1911 H1899 0.929 . S
C1911 C1905 1.390 . S
C1911 C1908 1.386 . S
C1912 C1907 1.490 . S
C1912 C1914 1.395 . S
C1912 C1915 1.403 . S
H1913 C1919 0.930 . S
C1914 H1900 0.930 . S
C1914 C1912 1.395 . S
C1914 C1917 1.403 1_554 S
C1915 C1912 1.403 . S
C1915 C1916 1.524 . S
C1915 C1919 1.400 1_554 S
C1916 H1901 0.960 . S
C1916 H1902 0.960 . S
C1916 H1903 0.960 . S
C1916 C1915 1.524 . S
C1917 C1914 1.403 1_556 S
C1917 C1918 1.392 . S
C1917 C1921 1.495 . S
C1918 C1917 1.392 . S
C1918 C1919 1.385 . S
C1918 C1920 1.478 . S
C1919 H1913 0.930 . S
C1919 C1915 1.400 1_556 S
C1919 C1918 1.385 . S
C1920 C1918 1.478 . S
C1920 C1922 1.381 . S
C1920 C1926 1.383 . S
C1921 C1917 1.495 . S
C1921 H1927 0.959 . S
C1921 H1928 0.961 . S
C1921 H1929 0.960 . S
C1922 C1920 1.381 . S
C1922 C1923 1.394 . S
C1922 H1930 0.930 . S
C1923 C1922 1.394 . S
C1923 C1924 1.383 . S
C1923 H1931 0.929 . S
C1924 C1923 1.383 . S
C1924 C1925 1.377 . S
C1925 H1909 0.930 . S
C1925 C1924 1.377 . S
C1925 C1926 1.379 . S
C1926 H1910 0.931 . S
C1926 C1920 1.383 . S
C1926 C1925 1.379 . S
H1927 C1921 0.959 . S
H1928 C1921 0.961 . S
H1929 C1921 0.960 . S
H1930 C1922 0.930 . S
H1931 C1923 0.929 . S
H1932 C1940 0.929 . S
H1933 C1942 0.930 . S
H1934 C1944 0.930 . S
H1935 C1947 0.929 . S
H1936 C1950 0.930 . S
H1937 C1952 0.960 . S
H1938 C1952 0.960 . S
H1939 C1952 0.960 . S
C1940 H1932 0.929 . S
C1940 C1941 1.377 . S
C1940 C1942 1.384 . S
C1941 C1940 1.377 . S
C1941 C1947 1.390 . S
C1942 H1933 0.930 . S
C1942 C1940 1.384 . S
C1942 C1943 1.372 . S
C1943 C1942 1.372 . S
C1943 C1944 1.400 . S
C1943 C1948 1.490 . S
C1944 H1934 0.930 . S
C1944 C1943 1.400 . S
C1944 C1947 1.386 . S
H1945 C1961 0.930 . S
H1946 C1962 0.931 . S
C1947 H1935 0.929 . S
C1947 C1941 1.390 . S
C1947 C1944 1.386 . S
C1948 C1943 1.490 . S
C1948 C1950 1.395 . S
C1948 C1951 1.403 . S
H1949 C1955 0.930 . S
C1950 H1936 0.930 . S
C1950 C1948 1.395 . S
C1950 C1953 1.403 1_556 S
C1951 C1948 1.403 . S
C1951 C1952 1.524 . S
C1951 C1955 1.400 1_556 S
C1952 H1937 0.960 . S
C1952 H1938 0.960 . S
C1952 H1939 0.960 . S
C1952 C1951 1.524 . S
C1953 C1950 1.403 1_554 S
C1953 C1954 1.392 . S
C1953 C1957 1.495 . S
C1954 C1953 1.392 . S
C1954 C1955 1.385 . S
C1954 C1956 1.478 . S
C1955 H1949 0.930 . S
C1955 C1951 1.400 1_554 S
C1955 C1954 1.385 . S
C1956 C1954 1.478 . S
C1956 C1958 1.381 . S
C1956 C1962 1.383 . S
C1957 C1953 1.495 . S
C1957 H1963 0.959 . S
C1957 H1964 0.961 . S
C1957 H1965 0.960 . S
C1958 C1956 1.381 . S
C1958 C1959 1.394 . S
C1958 H1966 0.930 . S
C1959 C1958 1.394 . S
C1959 C1960 1.383 . S
C1959 H1967 0.929 . S
C1960 C1959 1.383 . S
C1960 C1961 1.377 . S
C1961 H1945 0.930 . S
C1961 C1960 1.377 . S
C1961 C1962 1.379 . S
C1962 H1946 0.931 . S
C1962 C1956 1.383 . S
C1962 C1961 1.379 . S
H1963 C1957 0.959 . S
H1964 C1957 0.961 . S
H1965 C1957 0.960 . S
H1966 C1958 0.930 . S
H1967 C1959 0.929 . S
C537 N13 1.567 . S
C556 N376 1.593 . S
C573 N46 1.573 . S
C592 N343 1.576 . S
C609 N310 1.570 . S
C628 N79 1.579 . S
C645 N277 1.575 . S
C664 N112 1.564 . S
C681 N145 1.578 . S
C700 N508 1.545 . S
C717 N178 1.577 . S
C736 N475 1.545 . S
C753 N442 1.577 . S
C772 N211 1.547 . S
C789 N409 1.573 . S
C808 N244 1.562 . S
C825 C18 0.897 . S
C844 C447 0.891 . S
C861 C414 0.902 . S
C880 C51 0.913 . S
C897 C84 0.901 . S
C916 C513 0.890 . S
C933 C480 0.901 . S
C952 C117 0.894 . S
C969 C106 1.645 . S
C988 C469 1.633 . S
C1005 C502 1.646 . S
C1024 C73 1.641 . S
C1041 C403 1.647 . S
C1060 C40 1.651 . S
C1077 C7 1.646 . S
C1096 C436 1.648 . S
C1113 C150 0.897 . S
C1132 C315 0.888 . S
C1149 C183 0.898 . S
C1168 C282 0.904 . S
C1185 C216 0.900 . S
C1204 C381 0.887 . S
C1221 C249 0.901 . S
C1240 C348 0.890 . S
C1257 C238 1.647 . S
C1276 C337 1.643 . S
C1293 C205 1.644 . S
C1312 C370 1.633 . S
C1329 C172 1.647 . S
C1348 C271 1.649 . S
C1365 C139 1.644 . S
C1384 C304 1.633 . S
C1401 C54 1.486 . S
C1420 C21 1.488 . S
C1437 C87 1.487 . S
C1456 C120 1.480 . S
C1473 C186 1.486 . S
C1492 C153 1.484 . S
C1509 C252 1.486 . S
C1528 C219 1.482 . S
C1545 C318 1.487 . S
C1564 C285 1.484 . S
C1581 C384 1.486 . S
C1600 C351 1.486 . S
C1617 C417 1.487 . S
C1636 C450 1.480 . S
C1653 C516 1.485 . S
C1672 C483 1.485 . S
C1689 N68 1.496 . S
C1708 N2 1.476 . S
C1725 N101 1.502 . S
C1744 N35 1.492 . S
C1761 N134 1.499 . S
C1780 N200 1.479 . S
C1797 N233 1.496 . S
C1816 N167 1.474 . S
C1833 N266 1.507 . S
C1852 N332 1.522 . S
C1869 N365 1.507 . S
C1888 N299 1.523 . S
C1905 N398 1.503 . S
C1924 N464 1.516 . S
C1941 N497 1.507 . S
C1960 N431 1.524 . S
