# Generated by pormake.
# Topology sod, (4)-cn, num edge types: 1
# Building blocks:
#     Node 0, Type 0, BuildingBlock: KUFVIS_clean_sbu_0, # of connection points: 4
#     Node 1, Type 0, BuildingBlock: KUFVIS_clean_sbu_0, # of connection points: 4
#     Node 2, Type 0, BuildingBlock: KUFVIS_clean_sbu_0, # of connection points: 4
#     Node 3, Type 0, BuildingBlock: KUFVIS_clean_sbu_0, # of connection points: 4
#     Node 4, Type 0, BuildingBlock: KUFVIS_clean_sbu_0, # of connection points: 4
#     Node 5, Type 0, BuildingBlock: KUFVIS_clean_sbu_0, # of connection points: 4
#     Node 6, Type 0, BuildingBlock: KUFVIS_clean_sbu_0, # of connection points: 4
#     Node 7, Type 0, BuildingBlock: KUFVIS_clean_sbu_0, # of connection points: 4
#     Node 8, Type 0, BuildingBlock: KUFVIS_clean_sbu_0, # of connection points: 4
#     Node 9, Type 0, BuildingBlock: KUFVIS_clean_sbu_0, # of connection points: 4
#     Node 10, Type 0, BuildingBlock: KUFVIS_clean_sbu_0, # of connection points: 4
#     Node 11, Type 0, BuildingBlock: KUFVIS_clean_sbu_0, # of connection points: 4
#     Edge 12, Type (0, 0), BuildingBlock: EZIPEK_clean_linker_0, # of connection points: 2
#     Edge 13, Type (0, 0), BuildingBlock: EZIPEK_clean_linker_0, # of connection points: 2
#     Edge 14, Type (0, 0), BuildingBlock: EZIPEK_clean_linker_0, # of connection points: 2
#     Edge 15, Type (0, 0), BuildingBlock: EZIPEK_clean_linker_0, # of connection points: 2
#     Edge 16, Type (0, 0), BuildingBlock: EZIPEK_clean_linker_0, # of connection points: 2
#     Edge 17, Type (0, 0), BuildingBlock: EZIPEK_clean_linker_0, # of connection points: 2
#     Edge 18, Type (0, 0), BuildingBlock: EZIPEK_clean_linker_0, # of connection points: 2
#     Edge 19, Type (0, 0), BuildingBlock: EZIPEK_clean_linker_0, # of connection points: 2
#     Edge 20, Type (0, 0), BuildingBlock: EZIPEK_clean_linker_0, # of connection points: 2
#     Edge 21, Type (0, 0), BuildingBlock: EZIPEK_clean_linker_0, # of connection points: 2
#     Edge 22, Type (0, 0), BuildingBlock: EZIPEK_clean_linker_0, # of connection points: 2
#     Edge 23, Type (0, 0), BuildingBlock: EZIPEK_clean_linker_0, # of connection points: 2
#     Edge 24, Type (0, 0), BuildingBlock: EZIPEK_clean_linker_0, # of connection points: 2
#     Edge 25, Type (0, 0), BuildingBlock: EZIPEK_clean_linker_0, # of connection points: 2
#     Edge 26, Type (0, 0), BuildingBlock: EZIPEK_clean_linker_0, # of connection points: 2
#     Edge 27, Type (0, 0), BuildingBlock: EZIPEK_clean_linker_0, # of connection points: 2
#     Edge 28, Type (0, 0), BuildingBlock: EZIPEK_clean_linker_0, # of connection points: 2
#     Edge 29, Type (0, 0), BuildingBlock: EZIPEK_clean_linker_0, # of connection points: 2
#     Edge 30, Type (0, 0), BuildingBlock: EZIPEK_clean_linker_0, # of connection points: 2
#     Edge 31, Type (0, 0), BuildingBlock: EZIPEK_clean_linker_0, # of connection points: 2
#     Edge 32, Type (0, 0), BuildingBlock: EZIPEK_clean_linker_0, # of connection points: 2
#     Edge 33, Type (0, 0), BuildingBlock: EZIPEK_clean_linker_0, # of connection points: 2
#     Edge 34, Type (0, 0), BuildingBlock: EZIPEK_clean_linker_0, # of connection points: 2
#     Edge 35, Type (0, 0), BuildingBlock: EZIPEK_clean_linker_0, # of connection points: 2
# Relax obj value: 0.119
# Max RMSD: 0.164
# Mean RMSD: 0.150
data_MOF--net-sod--node1-KUFVIS_clean_sbu_0--edge1-EZIPEK_clean_linker_0
_symmetry_space_group_name_H-M    P1
_symmetry_Int_Tables_number       1
_symmetry_cell_setting            triclinic
loop_
_symmetry_equiv_pos_as_xyz
'x, y, z'
_cell_length_a     30.663075
_cell_length_b     30.713875
_cell_length_c     30.964579
_cell_angle_alpha  91.493784
_cell_angle_beta   90.099195
_cell_angle_gamma 92.755876
loop_
_atom_site_label
_atom_site_type_symbol
_atom_site_fract_x
_atom_site_fract_y
_atom_site_fract_z
_atom_type_partial_charge
Mn0 Mn 0.04196 0.26193 0.52071 0.0
Mn1 Mn 0.94659 0.31157 0.51284 0.0
C2 C 0.97581 0.22075 0.52717 0.0
C3 C 0.10251 0.21869 0.50732 0.0
C4 C 0.01094 0.33035 0.58549 0.0
O5 O 0.05753 0.31504 0.48196 0.0
O6 O 0.99007 0.34315 0.47753 0.0
C7 C 0.91293 0.32299 0.42464 0.0
N8 N 0.90728 0.30405 0.46373 0.0
C9 C 0.82241 0.30624 0.44873 0.0
C10 C 0.83344 0.32583 0.41001 0.0
C11 C 0.8774 0.33321 0.39823 0.0
C12 C 0.86686 0.29512 0.47879 0.0
H13 H 0.94537 0.33214 0.41359 0.0
C14 C 0.03049 0.34224 0.46718 0.0
O15 O 0.103 0.24963 0.53605 0.0
O16 O 0.06914 0.21675 0.48102 0.0
N17 N 0.90553 0.27891 0.54696 0.0
C18 C 0.91093 0.26455 0.5876 0.0
C19 C 0.87764 0.24099 0.60894 0.0
C20 C 0.83647 0.23133 0.59062 0.0
C21 C 0.82481 0.2481 0.54926 0.0
C22 C 0.86881 0.27051 0.52499 0.0
H23 H 0.94232 0.26903 0.60329 0.0
O24 O 0.01084 0.21138 0.54796 0.0
O25 O 0.97907 0.25678 0.50523 0.0
O26 O 0.03655 0.30094 0.5752 0.0
O27 O 0.97684 0.33518 0.56403 0.0
C28 C 0.75397 0.26279 0.50387 0.0
C29 C 0.76888 0.29153 0.45879 0.0
H30 H 0.80796 0.33414 0.38788 0.0
H31 H 0.88439 0.34829 0.36763 0.0
H32 H 0.88436 0.22916 0.6408 0.0
H33 H 0.8146 0.21245 0.61095 0.0
H34 H 0.71926 0.25471 0.50903 0.0
H35 H 0.7439 0.29998 0.43621 0.0
Mn36 Mn 0.78809 0.02435 0.52314 0.0
Mn37 Mn 0.73961 0.12 0.51984 0.0
C38 C 0.82954 0.08809 0.50774 0.0
C39 C 0.83301 0.96758 0.53959 0.0
C40 C 0.72417 0.04793 0.45281 0.0
O41 O 0.73766 0.01502 0.56626 0.0
O42 O 0.70548 0.07981 0.55777 0.0
C43 C 0.72478 0.16155 0.60581 0.0
N44 N 0.74566 0.16313 0.56696 0.0
C45 C 0.75214 0.24866 0.58003 0.0
C46 C 0.73007 0.24176 0.61859 0.0
C47 C 0.71746 0.19937 0.63117 0.0
C48 C 0.75929 0.20169 0.55103 0.0
H49 H 0.71199 0.13084 0.61766 0.0
C50 C 0.70856 0.04274 0.5757 0.0
O51 O 0.79956 0.9618 0.5147 0.0
O52 O 0.8361 1.0043 0.56175 0.0
N53 N 0.77445 0.15776 0.48422 0.0
C54 C 0.78823 0.14979 0.44319 0.0
C55 C 0.8158 0.17958 0.42162 0.0
C56 C 0.83008 0.21989 0.4398 0.0
C57 C 0.81343 0.23512 0.48074 0.0
C58 C 0.78537 0.19481 0.50539 0.0
H59 H 0.77999 0.11896 0.42702 0.0
O60 O 0.83695 0.05089 0.48898 0.0
O61 O 0.79398 0.08867 0.53121 0.0
O62 O 0.74601 0.02066 0.47184 0.0
O63 O 0.72135 0.08561 0.46887 0.0
C64 C 0.80502 0.30943 0.52457 0.0
C65 C 0.77313 0.29987 0.56928 0.0
H66 H 0.72388 0.26916 0.64003 0.0
H67 H 0.70069 0.19555 0.66167 0.0
H68 H 0.82723 0.17058 0.3897 0.0
H69 H 0.85204 0.23865 0.41945 0.0
H70 H 0.81707 0.34289 0.51891 0.0
H71 H 0.7667 0.32675 0.59124 0.0
Mn72 Mn 0.02177 0.79359 0.53045 0.0
Mn73 Mn 0.11402 0.73918 0.53442 0.0
C74 C 0.08874 0.83179 0.54383 0.0
C75 C 0.96543 0.83983 0.51462 0.0
C76 C 0.04413 0.73057 0.60079 0.0
O77 O 0.0072 0.74197 0.48849 0.0
O78 O 0.06849 0.70495 0.50058 0.0
C79 C 0.14501 0.71534 0.44634 0.0
N80 N 0.15235 0.73815 0.48431 0.0
C81 C 0.236 0.73819 0.46401 0.0
C82 C 0.2234 0.71431 0.42699 0.0
C83 C 0.17912 0.70388 0.41834 0.0
C84 C 0.19325 0.75003 0.49662 0.0
H85 H 0.11242 0.70431 0.43707 0.0
C86 C 0.03199 0.70982 0.48111 0.0
O87 O 0.96046 0.80814 0.54057 0.0
O88 O 1.00126 0.84116 0.49193 0.0
N89 N 0.15783 0.77348 0.56563 0.0
C90 C 0.15556 0.79047 0.60646 0.0
C91 C 0.18953 0.81721 0.62446 0.0
C92 C 0.22871 0.82691 0.60287 0.0
C93 C 0.23808 0.80624 0.56181 0.0
C94 C 0.19334 0.77942 0.54166 0.0
H95 H 0.12632 0.78531 0.62525 0.0
O96 O 0.05314 0.84212 0.5635 0.0
O97 O 0.08598 0.79507 0.52117 0.0
O98 O 0.01788 0.75298 0.58102 0.0
O99 O 0.08304 0.72765 0.58866 0.0
C100 C 0.30598 0.79032 0.51207 0.0
C101 C 0.28927 0.75648 0.46961 0.0
H102 H 0.24774 0.70507 0.40365 0.0
H103 H 0.17074 0.68569 0.38882 0.0
H104 H 0.18497 0.8315 0.65638 0.0
H105 H 0.2512 0.84873 0.62071 0.0
H106 H 0.34061 0.80053 0.5143 0.0
H107 H 0.31295 0.74704 0.44572 0.0
Mn108 Mn 0.27396 0.03111 0.53077 0.0
Mn109 Mn 0.31591 0.93371 0.51976 0.0
C110 C 0.22905 0.96816 0.515 0.0
C111 C 0.23035 0.09041 0.54788 0.0
C112 C 0.33494 1.00248 0.45864 0.0
O113 O 0.3249 0.03896 0.57417 0.0
O114 O 0.35593 0.97686 0.55216 0.0
C115 C 0.337 0.90267 0.60759 0.0
N116 N 0.31536 0.89591 0.56937 0.0
C117 C 0.3131 0.81216 0.58711 0.0
C118 C 0.3375 0.82398 0.62375 0.0
C119 C 0.34798 0.86804 0.63404 0.0
C120 C 0.30143 0.85552 0.55669 0.0
H121 H 0.34647 0.93523 0.61846 0.0
C122 C 0.35666 0.01276 0.57487 0.0
O123 O 0.2638 0.09385 0.52298 0.0
O124 O 0.22645 0.05456 0.56948 0.0
N125 N 0.2771 0.89225 0.49016 0.0
C126 C 0.25953 0.8951 0.45 0.0
C127 C 0.23163 0.86204 0.43208 0.0
C128 C 0.22182 0.82286 0.45259 0.0
C129 C 0.24329 0.81261 0.49226 0.0
C130 C 0.27103 0.85659 0.51308 0.0
H131 H 0.265 0.92416 0.43156 0.0
O132 O 0.22385 1.00455 0.49545 0.0
O133 O 0.26502 0.96699 0.53735 0.0
O134 O 0.3207 0.03186 0.48303 0.0
O135 O 0.32409 0.96328 0.46473 0.0
C136 C 0.25913 0.74368 0.5384 0.0
C137 C 0.29398 0.75923 0.5801 0.0
H138 H 0.34656 0.79926 0.64591 0.0
H139 H 0.36564 0.87574 0.66372 0.0
H140 H 0.21681 0.86723 0.40098 0.0
H141 H 0.19932 0.80098 0.4348 0.0
H142 H 0.24831 0.70928 0.53518 0.0
H143 H 0.30344 0.73507 0.60266 0.0
Mn144 Mn 0.53313 0.03382 0.25916 0.0
Mn145 Mn 0.51292 0.933 0.29856 0.0
C146 C 0.54941 0.97121 0.21856 0.0
C147 C 0.52203 0.09703 0.22043 0.0
C148 C 0.58858 0.99311 0.32882 0.0
O149 O 0.48773 0.04567 0.30689 0.0
O150 O 0.47991 0.97685 0.33025 0.0
C151 C 0.42034 0.92566 0.27066 0.0
N152 N 0.46113 0.90981 0.27007 0.0
C153 C 0.43702 0.84947 0.22365 0.0
C154 C 0.39478 0.865 0.2239 0.0
C155 C 0.38648 0.90343 0.24732 0.0
C156 C 0.46971 0.87357 0.24664 0.0
H157 H 0.41359 0.95508 0.2887 0.0
C158 C 0.4707 0.01696 0.33199 0.0
O159 O 0.54743 0.09679 0.25365 0.0
O160 O 0.49882 0.06115 0.21216 0.0
N161 N 0.54141 0.88587 0.27046 0.0
C162 C 0.58192 0.87168 0.27857 0.0
C163 C 0.59502 0.83269 0.25905 0.0
C164 C 0.56555 0.80745 0.23294 0.0
C165 C 0.52304 0.82111 0.22725 0.0
C166 C 0.51202 0.86048 0.24736 0.0
H167 H 0.60335 0.88899 0.30117 0.0
O168 O 0.5702 0.00827 0.21194 0.0
O169 O 0.5211 0.97175 0.24949 0.0
O170 O 0.5786 0.02323 0.30406 0.0
O171 O 0.56779 0.95579 0.32911 0.0
C172 C 0.49069 0.79633 0.20386 0.0
C173 C 0.44773 0.8106 0.20208 0.0
H174 H 0.36846 0.8476 0.20635 0.0
H175 H 0.354 0.91574 0.24763 0.0
H176 H 0.62742 0.8216 0.26494 0.0
H177 H 0.57558 0.77713 0.21829 0.0
H178 H 0.49828 0.76586 0.18783 0.0
H179 H 0.42275 0.79091 0.18513 0.0
Mn180 Mn 0.03637 0.52512 0.26457 0.0
Mn181 Mn 0.93542 0.52491 0.30792 0.0
C182 C 0.97542 0.50259 0.22419 0.0
C183 C 0.0926 0.54681 0.21784 0.0
C184 C 1.00488 0.46454 0.33653 0.0
O185 O 0.04403 0.57223 0.31274 0.0
O186 O 0.97416 0.56987 0.33858 0.0
C187 C 0.90453 0.61188 0.28738 0.0
N188 N 0.9012 0.56773 0.28196 0.0
C189 C 0.83975 0.5721 0.234 0.0
C190 C 0.84327 0.61769 0.23827 0.0
C191 C 0.87565 0.63765 0.26529 0.0
C192 C 0.86923 0.54814 0.25715 0.0
H193 H 0.92877 0.62721 0.30868 0.0
C194 C 0.01403 0.58526 0.33851 0.0
O195 O 0.09926 0.52149 0.24978 0.0
O196 O 0.05538 0.56527 0.21728 0.0
N197 N 0.8972 0.48289 0.2782 0.0
C198 C 0.89841 0.43858 0.27731 0.0
C199 C 0.8681 0.41364 0.25179 0.0
C200 C 0.83705 0.43448 0.22729 0.0
C201 C 0.83649 0.48011 0.22865 0.0
C202 C 0.86727 0.50324 0.25496 0.0
H203 H 0.92264 0.42241 0.29555 0.0
O204 O 0.01245 0.48466 0.21788 0.0
O205 O 0.97401 0.52794 0.25808 0.0
O206 O 0.03369 0.47814 0.31012 0.0
O207 O 0.96647 0.47871 0.33758 0.0
C208 C 0.80692 0.50355 0.20456 0.0
C209 C 0.80842 0.54952 0.20739 0.0
H210 H 0.82124 0.63768 0.22105 0.0
H211 H 0.87829 0.6728 0.26915 0.0
H212 H 0.86891 0.37844 0.25071 0.0
H213 H 0.8139 0.41516 0.20743 0.0
H214 H 0.78294 0.48655 0.18371 0.0
H215 H 0.78549 0.56719 0.18875 0.0
Mn216 Mn 0.53099 0.02451 0.76599 0.0
Mn217 Mn 0.43 0.02537 0.80909 0.0
C218 C 0.46983 1.00315 0.72508 0.0
C219 C 0.58771 0.04574 0.71949 0.0
C220 C 0.49823 0.96365 0.83735 0.0
O221 O 0.53925 0.07123 0.81447 0.0
O222 O 0.46948 0.06911 0.84048 0.0
C223 C 0.40107 0.11346 0.79005 0.0
N224 N 0.39675 0.06941 0.78394 0.0
C225 C 0.33489 0.07586 0.73693 0.0
C226 C 0.33937 0.12136 0.74197 0.0
C227 C 0.37248 0.14022 0.76882 0.0
C228 C 0.36417 0.05088 0.75919 0.0
H229 H 0.4259 0.12798 0.81123 0.0
C230 C 0.50946 0.08412 0.84055 0.0
O231 O 0.59388 0.02007 0.75125 0.0
O232 O 0.55077 0.06473 0.719 0.0
N233 N 0.39097 0.98462 0.77879 0.0
C234 C 0.39122 0.94027 0.77721 0.0
C235 C 0.36002 0.91634 0.75184 0.0
C236 C 0.32911 0.93826 0.72816 0.0
C237 C 0.32966 0.98392 0.7301 0.0
C238 C 0.36127 0.006 0.75625 0.0
H239 H 0.41527 0.92328 0.79489 0.0
O240 O 0.50662 0.9847 0.71897 0.0
O241 O 0.46865 0.02829 0.75919 0.0
O242 O 0.52742 0.97729 0.81135 0.0
O243 O 0.45992 0.97803 0.83805 0.0
C244 C 0.30028 0.0084 0.70686 0.0
C245 C 0.30277 0.05434 0.71043 0.0
H246 H 0.31753 0.14211 0.72544 0.0
H247 H 0.37589 0.17528 0.77322 0.0
H248 H 0.35996 0.8811 0.75033 0.0
H249 H 0.30521 0.91971 0.70848 0.0
H250 H 0.27566 0.99222 0.68615 0.0
H251 H 0.27998 0.07282 0.69246 0.0
Mn252 Mn 0.04185 0.53098 0.75778 0.0
Mn253 Mn 0.01832 0.43347 0.80065 0.0
C254 C 0.04817 0.46791 0.71572 0.0
C255 C 0.0243 0.59356 0.7215 0.0
C256 C 0.09615 0.49358 0.8276 0.0
O257 O 1.00415 0.54476 0.81133 0.0
O258 O 0.98008 0.47608 0.82753 0.0
C259 C 0.92714 0.41094 0.77422 0.0
N260 N 0.9702 0.40191 0.77326 0.0
C261 C 0.95411 0.33304 0.73646 0.0
C262 C 0.90956 0.3414 0.73744 0.0
C263 C 0.89606 0.38068 0.75612 0.0
C264 C 0.98353 0.36426 0.75534 0.0
H265 H 0.91655 0.44082 0.78911 0.0
C266 C 0.97881 0.51763 0.83147 0.0
O267 O 0.05768 0.59314 0.74714 0.0
O268 O 0.99896 0.5584 0.71952 0.0
N269 N 0.05361 0.39008 0.77477 0.0
C270 C 0.09788 0.38836 0.77393 0.0
C271 C 0.11696 0.35214 0.75443 0.0
C272 C 0.09036 0.31847 0.73526 0.0
C273 C 0.04489 0.32147 0.73549 0.0
C274 C 0.02775 0.35821 0.75568 0.0
H275 H 0.1185 0.41496 0.78687 0.0
O276 O 0.06939 0.50374 0.70541 0.0
O277 O 0.02455 0.47043 0.75033 0.0
O278 O 0.09416 0.51733 0.79481 0.0
O279 O 0.0681 0.46236 0.83394 0.0
C280 C 0.01594 0.28976 0.71595 0.0
C281 C 0.97055 0.29537 0.71674 0.0
H282 H 0.88552 0.31825 0.72326 0.0
H283 H 0.86177 0.38752 0.75673 0.0
H284 H 0.15213 0.35053 0.75356 0.0
H285 H 0.10522 0.29081 0.71987 0.0
H286 H 0.02825 0.26105 0.70002 0.0
H287 H 0.94863 0.27088 0.70143 0.0
Mn288 Mn 0.29574 0.52849 0.02486 0.0
Mn289 Mn 0.24591 0.62336 0.02109 0.0
C290 C 0.33743 0.59209 0.01156 0.0
C291 C 0.33928 0.47163 0.04401 0.0
C292 C 0.23015 0.55121 0.95498 0.0
O293 O 0.24372 0.51781 0.0657 0.0
O294 O 0.21084 0.58204 0.05698 0.0
C295 C 0.22882 0.66143 0.10819 0.0
N296 N 0.24996 0.66497 0.06959 0.0
C297 C 0.256 0.74976 0.08677 0.0
C298 C 0.23343 0.74099 0.12467 0.0
C299 C 0.22083 0.69798 0.1351 0.0
C300 C 0.26308 0.70434 0.05534 0.0
H301 H 0.21643 0.6301 0.11874 0.0
C302 C 0.21391 0.54484 0.07457 0.0
O303 O 0.30818 0.46657 0.01618 0.0
O304 O 0.34107 0.50817 0.0665 0.0
N305 N 0.28149 0.66276 0.98776 0.0
C306 C 0.29894 0.65558 0.94814 0.0
C307 C 0.32654 0.68685 0.92841 0.0
C308 C 0.33805 0.7276 0.94755 0.0
C309 C 0.31953 0.74108 0.98821 0.0
C310 C 0.29023 0.69964 0.00999 0.0
H311 H 0.29412 0.62408 0.93239 0.0
O312 O 0.34561 0.55503 0.99279 0.0
O313 O 0.30081 0.59257 0.03371 0.0
O314 O 0.25545 0.52572 0.97231 0.0
O315 O 0.22783 0.59001 0.96868 0.0
C316 C 0.31109 0.81285 0.03612 0.0
C317 C 0.27801 0.80119 0.0794 0.0
H318 H 0.2271 0.7673 0.14739 0.0
H319 H 0.20382 0.6926 0.16525 0.0
H320 H 0.34042 0.67864 0.89728 0.0
H321 H 0.36021 0.74765 0.92857 0.0
H322 H 0.32394 0.84646 0.03288 0.0
H323 H 0.27161 0.82688 0.10276 0.0
Mn324 Mn 0.52338 0.29722 0.02726 0.0
Mn325 Mn 0.6161 0.24297 0.02668 0.0
C326 C 0.59072 0.33592 0.03657 0.0
C327 C 0.46652 0.34201 0.01024 0.0
C328 C 0.54909 0.23421 0.09685 0.0
O329 O 0.50663 0.2439 0.98821 0.0
O330 O 0.5699 0.20853 0.99432 0.0
C331 C 0.64467 0.22027 0.93765 0.0
N332 N 0.65311 0.2427 0.9756 0.0
C333 C 0.73659 0.23936 0.95501 0.0
C334 C 0.72283 0.2162 0.91791 0.0
C335 C 0.67817 0.20769 0.90936 0.0
C336 C 0.69447 0.25329 0.9875 0.0
H337 H 0.6116 0.21037 0.9288 0.0
C338 C 0.53146 0.21236 0.97869 0.0
O339 O 0.46295 0.31278 0.03908 0.0
O340 O 0.50134 0.34161 0.9861 0.0
N341 N 0.66038 0.27748 0.05675 0.0
C342 C 0.65821 0.29563 0.09699 0.0
C343 C 0.69309 0.32077 0.11526 0.0
C344 C 0.73304 0.32775 0.0943 0.0
C345 C 0.74167 0.30656 0.05329 0.0
C346 C 0.69591 0.28231 0.03269 0.0
H347 H 0.62809 0.29331 0.11443 0.0
O348 O 0.55573 0.34743 0.0567 0.0
O349 O 0.58689 0.2985 0.01507 0.0
O350 O 0.52267 0.25901 0.08023 0.0
O351 O 0.58675 0.2301 0.08147 0.0
C352 C 0.80892 0.28732 1.00396 0.0
C353 C 0.79069 0.25468 0.96105 0.0
H354 H 0.74665 0.20587 0.89449 0.0
H355 H 0.66897 0.18992 0.87983 0.0
H356 H 0.68868 0.33598 0.1468 0.0
H357 H 0.75637 0.34835 0.11242 0.0
H358 H 0.84392 0.29571 0.00652 0.0
H359 H 0.81393 0.24408 0.93722 0.0
Mn360 Mn 0.78156 0.52901 0.02634 0.0
Mn361 Mn 0.82409 0.43162 0.01495 0.0
C362 C 0.737 0.46626 0.00879 0.0
C363 C 0.73758 0.58864 0.04182 0.0
C364 C 0.84472 0.5021 0.95535 0.0
O365 O 0.83143 0.53581 0.07127 0.0
O366 O 0.86285 0.47368 0.0498 0.0
C367 C 0.84204 0.39769 0.10235 0.0
N368 N 0.8216 0.39231 0.06334 0.0
C369 C 0.81637 0.30816 0.0793 0.0
C370 C 0.84004 0.31853 0.11678 0.0
C371 C 0.85135 0.36215 0.12832 0.0
C372 C 0.80742 0.35248 0.04921 0.0
H373 H 0.85172 0.42983 0.11428 0.0
C374 C 0.86303 0.50936 0.07277 0.0
O375 O 0.77258 0.59232 0.01919 0.0
O376 O 0.73215 0.55247 0.06272 0.0
N377 N 0.78576 0.39144 0.98311 0.0
C378 C 0.7687 0.39593 0.94298 0.0
C379 C 0.73973 0.36423 0.9242 0.0
C380 C 0.72774 0.32508 0.94404 0.0
C381 C 0.74794 0.31324 0.98386 0.0
C382 C 0.77783 0.35557 1.0053 0.0
H383 H 0.7755 0.42533 0.92537 0.0
O384 O 0.73236 0.50284 0.98954 0.0
O385 O 0.77257 0.46472 0.0317 0.0
O386 O 0.82906 0.53068 0.97969 0.0
O387 O 0.83569 0.46238 0.96103 0.0
C388 C 0.75945 0.24295 0.02952 0.0
C389 C 0.79457 0.25626 0.07162 0.0
H390 H 0.84744 0.29308 0.1388 0.0
H391 H 0.86798 0.3688 0.15878 0.0
H392 H 0.72556 0.37062 0.89308 0.0
H393 H 0.70446 0.3045 0.92577 0.0
H394 H 0.74685 0.20911 0.02591 0.0
H395 H 0.80231 0.23138 0.09411 0.0
Mn396 Mn 0.54883 0.76459 0.0205 0.0
Mn397 Mn 0.45406 0.81221 0.02776 0.0
C398 C 0.48349 0.72446 0.03646 0.0
C399 C 0.60654 0.71713 0.00902 0.0
C400 C 0.52436 0.83283 0.08775 0.0
O401 O 0.55844 0.80953 0.97352 0.0
O402 O 0.49929 0.84727 0.99454 0.0
C403 C 0.42072 0.83476 0.94101 0.0
N404 N 0.41447 0.81244 0.9782 0.0
C405 C 0.33004 0.81411 0.96075 0.0
C406 C 0.34181 0.83694 0.92412 0.0
C407 C 0.3859 0.84623 0.9144 0.0
C408 C 0.37374 0.80083 0.99096 0.0
H409 H 0.45292 0.84544 0.93139 0.0
C410 C 0.53271 0.84136 0.96987 0.0
O411 O 0.61132 0.75302 0.03115 0.0
O412 O 0.57014 0.71157 0.9873 0.0
N413 N 0.41105 0.77763 0.05797 0.0
C414 C 0.41449 0.7612 0.09815 0.0
C415 C 0.38031 0.73687 0.1171 0.0
C416 C 0.33957 0.72956 0.09756 0.0
C417 C 0.32933 0.74969 0.05746 0.0
C418 C 0.37431 0.7728 0.03538 0.0
H419 H 0.44494 0.76438 0.11562 0.0
O420 O 0.51923 0.7197 0.05819 0.0
O421 O 0.48401 0.75843 0.01213 0.0
O422 O 0.55262 0.81725 0.06338 0.0
O423 O 0.48528 0.82031 0.08272 0.0
C424 C 0.25993 0.76821 0.0117 0.0
C425 C 0.27622 0.79941 0.96883 0.0
H426 H 0.31683 0.84676 0.90215 0.0
H427 H 0.39358 0.86393 0.88537 0.0
H428 H 0.38587 0.72281 0.14823 0.0
H429 H 0.3169 0.70983 0.11623 0.0
H430 H 0.22502 0.76025 0.01561 0.0
H431 H 0.25188 0.80967 0.94643 0.0
C432 C 0.03702 0.41843 0.44513 0.0
C433 C 0.04304 0.37433 0.43377 0.0
C434 C 0.03179 0.39098 0.3572 0.0
C435 C 0.01813 0.43315 0.36979 0.0
N436 N 1.00375 0.4854 0.42731 0.0
N437 N 0.04668 0.31762 0.37926 0.0
C438 C 0.01996 0.44657 0.41418 0.0
C439 C 0.04167 0.36058 0.38966 0.0
N440 N 0.04675 0.43282 0.48629 0.0
N441 N 0.03407 0.3795 0.31435 0.0
H442 H 0.05585 0.29536 0.40207 0.0
H443 H 0.04028 0.30371 0.34876 0.0
H444 H 0.02347 0.39914 0.28984 0.0
H445 H 0.04836 0.35141 0.30289 0.0
H446 H 0.04687 0.46548 0.49626 0.0
H447 H 0.05906 0.41217 0.50918 0.0
H448 H 0.99959 0.49443 0.45964 0.0
H449 H 0.99162 0.50768 0.40615 0.0
C450 C 0.66436 0.0638 0.40041 0.0
C451 C 0.69617 0.03489 0.41388 0.0
C452 C 0.66298 0.98052 0.36197 0.0
C453 C 0.62496 0.00509 0.35978 0.0
N454 N 0.58898 0.07063 0.38287 0.0
N455 N 0.72969 0.96592 0.39968 0.0
C456 C 0.62534 0.04662 0.38123 0.0
C457 C 0.69642 0.99288 0.39287 0.0
N458 N 0.67265 0.10791 0.40192 0.0
N459 N 0.66963 0.94882 0.33137 0.0
H460 H 0.75955 0.97662 0.41316 0.0
H461 H 0.72772 0.93295 0.39062 0.0
H462 H 0.6494 0.94441 0.30444 0.0
H463 H 0.69815 0.93179 0.32913 0.0
H464 H 0.65091 0.12972 0.38982 0.0
H465 H 0.70371 0.12202 0.40781 0.0
H466 H 0.58766 0.09916 0.40179 0.0
H467 H 0.55929 0.06069 0.36865 0.0
C468 C 0.01413 0.66301 0.36593 0.0
C469 C 0.02495 0.6193 0.37212 0.0
C470 C 0.03131 0.63367 0.44984 0.0
C471 C 0.02291 0.67837 0.44412 0.0
N472 N 0.01875 0.73739 0.39375 0.0
N473 N 0.05798 0.56766 0.41717 0.0
C474 C 0.01737 0.69368 0.40135 0.0
C475 C 0.0379 0.60607 0.41325 0.0
N476 N 1.00152 0.67543 0.32595 0.0
N477 N 0.0323 0.61721 0.49035 0.0
H478 H 0.06434 0.54742 0.39054 0.0
H479 H 0.07209 0.5582 0.44588 0.0
H480 H 0.02717 0.63615 0.51804 0.0
H481 H 0.03398 0.58404 0.49608 0.0
H482 H 0.98767 0.7051 0.3204 0.0
H483 H 1.003 0.65489 0.29864 0.0
H484 H 0.01975 0.74999 0.36285 0.0
H485 H 0.02329 0.76151 0.41775 0.0
C486 C 0.41289 0.99705 0.43467 0.0
C487 C 0.37077 0.01293 0.4273 0.0
C488 C 0.39725 0.04258 0.35825 0.0
C489 C 0.43957 0.02796 0.36718 0.0
N490 N 0.49006 1.00469 0.42054 0.0
N491 N 0.325 0.05791 0.38558 0.0
C492 C 0.44804 0.01035 0.40794 0.0
C493 C 0.36381 0.03857 0.39047 0.0
N494 N 0.41947 0.96699 0.46546 0.0
N495 N 0.38811 0.0575 0.31825 0.0
H496 H 0.29913 0.05357 0.40711 0.0
H497 H 0.31954 0.0804 0.3618 0.0
H498 H 0.41182 0.06176 0.29446 0.0
H499 H 0.35668 0.06351 0.30792 0.0
H500 H 0.44834 0.95062 0.46798 0.0
H501 H 0.39531 0.95472 0.48577 0.0
H502 H 0.49847 0.99653 0.45185 0.0
H503 H 0.51667 0.01209 0.40083 0.0
C504 C 0.03105 0.67419 0.70847 0.0
C505 C 0.01893 0.63128 0.69278 0.0
C506 C 1.00485 0.66146 0.62194 0.0
C507 C 0.02752 0.7009 0.63479 0.0
N508 N 0.06069 0.74644 0.6912 0.0
N509 N 1.00159 0.58386 0.63017 0.0
C510 C 0.04008 0.70786 0.67847 0.0
C511 C 0.00691 0.62475 0.64852 0.0
N512 N 0.03267 0.68301 0.75192 0.0
N513 N 0.98193 0.65855 0.58408 0.0
H514 H 0.00674 0.55526 0.64622 0.0
H515 H 0.99723 0.57847 0.59702 0.0
H516 H 0.97963 0.68464 0.5635 0.0
H517 H 0.96165 0.63147 0.57547 0.0
H518 H 0.03814 0.71431 0.76518 0.0
H519 H 0.02358 0.65974 0.7746 0.0
H520 H 0.07532 0.75162 0.72141 0.0
H521 H 0.0644 0.77273 0.67062 0.0
C522 C 0.43545 0.97416 0.65623 0.0
C523 C 0.44086 0.00904 0.68665 0.0
C524 C 0.39785 0.05397 0.6383 0.0
C525 C 0.39336 0.01835 0.6081 0.0
N526 N 0.43547 0.95926 0.57998 0.0
N527 N 0.44309 0.08825 0.69481 0.0
C528 C 0.42071 0.98284 0.61431 0.0
C529 C 0.42647 0.05092 0.6747 0.0
N530 N 0.44503 0.93276 0.6666 0.0
N531 N 0.3776 0.09171 0.63116 0.0
H532 H 0.46753 0.08897 0.71812 0.0
H533 H 0.4365 0.11933 0.68467 0.0
H534 H 0.36466 0.09909 0.60127 0.0
H535 H 0.37474 0.11608 0.65489 0.0
H536 H 0.4399 0.90635 0.64502 0.0
H537 H 0.45359 0.92432 0.69781 0.0
H538 H 0.45711 0.93435 0.5833 0.0
H539 H 0.43218 0.97 0.54865 0.0
C540 C 0.06587 0.37975 0.62871 0.0
C541 C 0.02194 0.36335 0.62122 0.0
C542 C 0.99674 0.42258 0.66853 0.0
C543 C 0.04003 0.43248 0.68269 0.0
N544 N 0.11666 0.41933 0.6774 0.0
N545 N 0.94563 0.36691 0.64161 0.0
C546 C 0.07487 0.41053 0.66329 0.0
C547 C 0.98744 0.38417 0.64335 0.0
N548 N 0.09852 0.36967 0.60069 0.0
N549 N 0.96444 0.4506 0.67767 0.0
H550 H 0.93766 0.33613 0.62887 0.0
H551 H 0.91971 0.38027 0.65813 0.0
H552 H 0.96983 0.48002 0.69472 0.0
H553 H 0.9334 0.44728 0.66389 0.0
H554 H 0.12993 0.3841 0.60278 0.0
H555 H 0.09351 0.35182 0.57198 0.0
H556 H 0.14269 0.40074 0.66784 0.0
H557 H 0.12465 0.44269 0.70153 0.0
C558 C 0.60267 0.03389 0.6393 0.0
C559 C 0.61826 0.04603 0.68172 0.0
C560 C 0.69387 0.04301 0.6553 0.0
C561 C 0.67813 0.03526 0.61244 0.0
N562 N 0.61793 0.02757 0.56254 0.0
N563 N 0.67851 0.06901 0.72819 0.0
C564 C 0.63263 0.03187 0.60425 0.0
C565 C 0.66389 0.05212 0.6892 0.0
N566 N 0.55961 0.02214 0.63239 0.0
N567 N 0.73764 0.04234 0.66354 0.0
H568 H 0.65748 0.0776 0.75312 0.0
H569 H 0.71095 0.07863 0.73452 0.0
H570 H 0.76077 0.03732 0.63953 0.0
H571 H 0.75085 0.04307 0.69456 0.0
H572 H 0.54782 0.00708 0.60389 0.0
H573 H 0.53557 0.02446 0.65569 0.0
H574 H 0.58561 0.03143 0.55358 0.0
H575 H 0.63866 0.02238 0.5364 0.0
C576 C 0.44964 0.42166 0.02158 0.0
C577 C 0.43504 0.37766 0.01231 0.0
C578 C 0.36173 0.39494 0.03749 0.0
C579 C 0.37469 0.43982 0.04183 0.0
N580 N 0.43053 0.49685 0.02961 0.0
N581 N 0.37476 0.32516 1.00285 0.0
C582 C 0.41854 0.45352 0.03172 0.0
C583 C 0.39024 0.36529 0.01761 0.0
N584 N 0.49326 0.43313 0.02295 0.0
N585 N 0.32218 0.38049 0.05325 0.0
H586 H 0.39463 0.30325 0.98693 0.0
H587 H 0.34169 0.3156 1.00225 0.0
H588 H 0.3012 0.40122 0.06931 0.0
H589 H 0.3124 0.34759 0.05457 0.0
H590 H 0.50553 0.46312 0.03541 0.0
H591 H 0.51757 0.41204 0.01463 0.0
H592 H 0.46011 0.50813 0.01647 0.0
H593 H 0.41029 0.52183 0.03806 0.0
C594 C 0.39091 0.6376 0.06059 0.0
C595 C 0.37521 0.62569 0.0182 0.0
C596 C 0.43403 0.67416 0.98818 0.0
C597 C 0.4486 0.68752 0.03055 0.0
N598 N 0.45017 0.66818 0.10572 0.0
N599 N 0.39434 0.62079 0.94247 0.0
C600 C 0.43009 0.66483 0.06624 0.0
C601 C 0.40052 0.64039 0.98234 0.0
N602 N 0.36914 0.62245 0.09607 0.0
N603 N 0.45299 0.6926 0.95272 0.0
H604 H 0.36897 0.59815 0.93498 0.0
H605 H 0.41599 0.62536 0.91691 0.0
H606 H 0.483 0.70994 0.95349 0.0
H607 H 0.43849 0.69066 0.92221 0.0
H608 H 0.37468 0.6354 0.12713 0.0
H609 H 0.34441 0.5981 0.09488 0.0
H610 H 0.44191 0.64789 0.13116 0.0
H611 H 0.47691 0.68927 0.11274 0.0
C612 C 0.64036 0.38198 0.98671 0.0
C613 C 0.62777 0.36992 0.02935 0.0
C614 C 0.68448 0.42334 0.05831 0.0
C615 C 0.69788 0.43455 0.01566 0.0
N616 N 0.67618 0.43547 0.94067 0.0
N617 N 0.62859 0.39209 0.10494 0.0
C618 C 0.67199 0.41729 0.98037 0.0
C619 C 0.64693 0.39461 0.06479 0.0
N620 N 0.62156 0.36063 0.95162 0.0
N621 N 0.70676 0.44083 0.09342 0.0
H622 H 0.60367 0.36959 0.11293 0.0
H623 H 0.63679 0.41399 0.13024 0.0
H624 H 0.72866 0.46769 0.09221 0.0
H625 H 0.70382 0.42796 0.12415 0.0
H626 H 0.63426 0.36301 0.92053 0.0
H627 H 0.59418 0.33943 0.95324 0.0
H628 H 0.65422 0.42863 0.91543 0.0
H629 H 0.69999 0.45939 0.93333 0.0
C630 C 0.68071 0.64076 0.06862 0.0
C631 C 0.70145 0.61916 0.03395 0.0
C632 C 0.65986 0.6617 0.98213 0.0
C633 C 0.63731 0.68134 0.0167 0.0
N634 N 0.61934 0.68165 0.09282 0.0
N635 N 0.70228 0.60186 0.95701 0.0
C636 C 0.64578 0.66858 0.05995 0.0
C637 C 0.6886 0.62761 0.99052 0.0
N638 N 0.69546 0.63621 0.10985 0.0
N639 N 0.6553 0.67675 0.94129 0.0
H640 H 0.72254 0.5761 0.96088 0.0
H641 H 0.68997 0.60319 0.92573 0.0
H642 H 0.63426 0.70118 0.93384 0.0
H643 H 0.67502 0.66766 0.91555 0.0
H644 H 0.68533 0.65515 0.13601 0.0
H645 H 0.72066 0.61605 0.1174 0.0
H646 H 0.6208 0.66968 0.12392 0.0
H647 H 0.59294 0.70109 0.08825 0.0
C648 C 0.53416 0.85908 0.89002 0.0
C649 C 0.53791 0.87323 0.93418 0.0
C650 C 0.51286 0.94498 0.91488 0.0
C651 C 0.51089 0.93185 0.87049 0.0
N652 N 0.52673 0.87845 0.81487 0.0
N653 N 0.5439 0.93318 0.98546 0.0
C654 C 0.52439 0.88974 0.85777 0.0
C655 C 0.53176 0.91751 0.9453 0.0
N656 N 0.53619 0.81584 0.87905 0.0
N657 N 0.49541 0.98298 0.92865 0.0
H658 H 0.55841 0.91367 0.00803 0.0
H659 H 0.54391 0.9661 0.99452 0.0
H660 H 0.48191 0.00489 0.90796 0.0
H661 H 0.49142 0.99132 0.96119 0.0
H662 H 0.52741 0.80282 0.84871 0.0
H663 H 0.54412 0.79219 0.90078 0.0
H664 H 0.5415 0.85058 0.80345 0.0
H665 H 0.51612 0.89817 0.79043 0.0
C666 C 0.17756 0.49159 0.92302 0.0
C667 C 0.19827 0.53417 0.92082 0.0
C668 C 0.14424 0.5511 0.86636 0.0
C669 C 0.13022 0.50637 0.86133 0.0
N670 N 0.14138 0.43203 0.88288 0.0
N671 N 0.20655 0.59989 0.87946 0.0
C672 C 0.14931 0.47586 0.88882 0.0
C673 C 0.18339 0.56243 0.88899 0.0
N674 N 0.18151 0.4671 0.95893 0.0
N675 N 0.11894 0.58343 0.8525 0.0
H676 H 0.23729 0.60758 0.89234 0.0
H677 H 0.19769 0.61981 0.85443 0.0
H678 H 0.08701 0.5776 0.84148 0.0
H679 H 0.12729 0.6164 0.85831 0.0
H680 H 0.16363 0.43775 0.96295 0.0
H681 H 0.19737 0.47829 0.98709 0.0
H682 H 0.15856 0.40925 0.89958 0.0
H683 H 0.12103 0.41806 0.85906 0.0
C684 C 0.53067 0.10601 0.91592 0.0
C685 C 0.52038 0.1186 0.87372 0.0
C686 C 0.51518 0.19428 0.90013 0.0
C687 C 0.5194 0.18022 0.94343 0.0
N688 N 0.52376 0.12107 0.99264 0.0
N689 N 0.50108 0.17419 0.82482 0.0
C690 C 0.52477 0.13547 0.95126 0.0
C691 C 0.5119 0.16261 0.86562 0.0
N692 N 0.54795 0.06651 0.92195 0.0
N693 N 0.5174 0.23776 0.89144 0.0
H694 H 0.50211 0.1526 0.79828 0.0
H695 H 0.48896 0.2043 0.81774 0.0
H696 H 0.52026 0.26235 0.91519 0.0
H697 H 0.51988 0.24964 0.86031 0.0
H698 H 0.55996 0.05702 0.95159 0.0
H699 H 0.55438 0.04521 0.89616 0.0
H700 H 0.52374 0.08817 1.00008 0.0
H701 H 0.51846 0.14178 0.0192 0.0
C702 C 0.95829 0.52063 0.90736 0.0
C703 C 0.94839 0.53261 0.86512 0.0
C704 C 0.87109 0.53619 0.88553 0.0
C705 C 0.88019 0.51464 0.9244 0.0
N706 N 0.93317 0.47893 0.96755 0.0
N707 N 0.89583 0.55308 0.81281 0.0
C708 C 0.92408 0.50534 0.93437 0.0
C709 C 0.90492 0.54167 0.85404 0.0
N710 N 1.00085 0.52147 0.92054 0.0
N711 N 0.83018 0.55013 0.87822 0.0
H712 H 0.92045 0.55873 0.79009 0.0
H713 H 0.86427 0.55533 0.80089 0.0
H714 H 0.80451 0.54488 0.89983 0.0
H715 H 0.82253 0.56927 0.85226 0.0
H716 H 0.01009 0.51614 0.95232 0.0
H717 H 0.02633 0.53212 0.90046 0.0
H718 H 0.96421 0.46796 0.97339 0.0
H719 H 0.90898 0.46341 0.98567 0.0
C720 C 0.48947 0.14643 0.16462 0.0
C721 C 0.52521 0.13472 0.19056 0.0
C722 C 0.56593 0.19996 0.16657 0.0
C723 C 0.53533 0.20575 0.13346 0.0
N724 N 0.46875 0.17823 0.09739 0.0
N725 N 0.6038 0.14482 0.20213 0.0
C726 C 0.49693 0.17753 0.13152 0.0
C727 C 0.5653 0.15998 0.18788 0.0
N728 N 0.44842 0.12908 0.1719 0.0
N729 N 0.59543 0.23274 0.17804 0.0
H730 H 0.60726 0.11274 0.21117 0.0
H731 H 0.63357 0.16218 0.19821 0.0
H732 H 0.59244 0.26405 0.16668 0.0
H733 H 0.61748 0.23026 0.20348 0.0
H734 H 0.42099 0.13945 0.15588 0.0
H735 H 0.4411 0.10838 0.19728 0.0
H736 H 0.44314 0.15499 0.09279 0.0
H737 H 0.47288 0.19925 0.07176 0.0
C738 C 0.93197 0.54899 0.17283 0.0
C739 C 0.94586 0.50739 0.18616 0.0
C740 C 0.92501 0.47848 0.11509 0.0
C741 C 0.89887 0.51464 0.10697 0.0
N742 N 0.8841 0.58899 0.12756 0.0
N743 N 0.94811 0.43028 0.1697 0.0
C744 C 0.90372 0.5512 0.13605 0.0
C745 C 0.93938 0.47135 0.15743 0.0
N746 N 0.94855 0.58675 0.19217 0.0
N747 N 0.93952 0.45281 0.08215 0.0
H748 H 0.95732 0.42323 0.20111 0.0
H749 H 0.94187 0.40293 0.14955 0.0
H750 H 0.93747 0.4621 0.05031 0.0
H751 H 0.9603 0.42745 0.08697 0.0
H752 H 0.94251 0.61755 0.18093 0.0
H753 H 0.97224 0.588 0.21622 0.0
H754 H 0.88104 0.61392 0.15068 0.0
H755 H 0.87186 0.59583 0.09724 0.0
C756 C 0.57337 0.87323 0.14465 0.0
C757 C 0.53497 0.8704 0.11849 0.0
C758 C 0.50703 0.93336 0.15804 0.0
C759 C 0.54574 0.93725 0.18336 0.0
N760 N 0.62019 0.91801 0.19348 0.0
N761 N 0.47598 0.9104 0.08933 0.0
C762 C 0.5806 0.90976 0.17392 0.0
C763 C 0.50485 0.90406 0.12204 0.0
N764 N 0.60159 0.84012 0.14367 0.0
N765 N 0.47207 0.9578 0.16767 0.0
H766 H 0.47597 0.89283 0.06013 0.0
H767 H 0.45623 0.93706 0.08862 0.0
H768 H 0.47245 0.98249 0.19129 0.0
H769 H 0.44135 0.95134 0.1538 0.0
H770 H 0.62818 0.83888 0.16449 0.0
H771 H 0.5963 0.81158 0.12517 0.0
H772 H 0.64813 0.9019 0.18487 0.0
H773 H 0.62578 0.94326 0.21632 0.0
C774 C 0.13783 0.53339 0.10268 0.0
C775 C 0.1833 0.53689 0.11105 0.0
C776 C 0.1687 0.55371 0.18773 0.0
C777 C 0.12314 0.54734 0.18011 0.0
N778 N 0.0648 0.52289 0.13065 0.0
N779 N 0.24253 0.54381 0.16257 0.0
C780 C 0.10775 0.53508 0.13765 0.0
C781 C 0.19882 0.54452 0.15401 0.0
N782 N 0.12328 0.52926 0.06092 0.0
N783 N 0.18314 0.57098 0.22663 0.0
H784 H 0.26588 0.53891 0.13876 0.0
H785 H 0.25546 0.54441 0.1937 0.0
H786 H 0.162 0.57972 0.25141 0.0
H787 H 0.21552 0.58086 0.23293 0.0
H788 H 0.09094 0.5329 0.0519 0.0
H789 H 0.14416 0.52448 0.03481 0.0
H790 H 0.05321 0.50791 0.10204 0.0
H791 H 0.04074 0.52463 0.15401 0.0
C792 C 0.89122 0.92062 0.56924 0.0
C793 C 0.87029 0.9383 0.53349 0.0
C794 C 0.9134 0.89282 0.48393 0.0
C795 C 0.93587 0.87692 0.5196 0.0
N796 N 0.9546 0.88571 0.5955 0.0
N797 N 0.87131 0.95036 0.45625 0.0
C798 C 0.9273 0.89387 0.56205 0.0
C799 C 0.88425 0.92709 0.49064 0.0
N800 N 0.87561 0.92766 0.61001 0.0
N801 N 0.91842 0.87416 0.44381 0.0
H802 H 0.8516 0.97687 0.45915 0.0
H803 H 0.8841 0.94647 0.42531 0.0
H804 H 0.93981 0.84937 0.4376 0.0
H805 H 0.89879 0.88081 0.41752 0.0
H806 H 0.88642 0.91135 0.6368 0.0
H807 H 0.84914 0.94683 0.61656 0.0
H808 H 0.95253 0.90078 0.62591 0.0
H809 H 0.98229 0.86774 0.59174 0.0
C810 C 0.9228 0.1726 0.48039 0.0
C811 C 0.93821 0.18677 0.52218 0.0
C812 C 0.8826 0.13604 0.55441 0.0
C813 C 0.86687 0.12229 0.51261 0.0
N814 N 0.88455 0.1165 0.4366 0.0
N815 N 0.94134 0.16922 0.59802 0.0
C816 C 0.89077 0.1372 0.47592 0.0
C817 C 0.92088 0.16448 0.55876 0.0
N818 N 0.93935 0.19185 0.44423 0.0
N819 N 0.86191 0.12138 0.59071 0.0
H820 H 0.96624 0.19247 0.60515 0.0
H821 H 0.93457 0.14861 0.6236 0.0
H822 H 0.8389 0.09542 0.59088 0.0
H823 H 0.867 0.1361 0.62113 0.0
H824 H 0.92446 0.18789 0.41401 0.0
H825 H 0.96705 0.21274 0.44412 0.0
H826 H 0.90545 0.12147 0.41051 0.0
H827 H 0.85991 0.09274 0.43017 0.0
C828 C 0.13405 0.88165 0.49395 0.0
C829 C 0.12423 0.86728 0.53651 0.0
C830 C 0.17897 0.92304 0.56503 0.0
C831 C 0.19062 0.93565 0.52226 0.0
N832 N 0.16798 0.93319 0.44676 0.0
N833 N 0.12624 0.88754 0.61243 0.0
C834 C 0.1647 0.91739 0.48737 0.0
C835 C 0.14339 0.89191 0.57194 0.0
N836 N 0.11243 0.86306 0.45894 0.0
N837 N 0.20112 0.94138 0.59981 0.0
H838 H 0.10222 0.86397 0.62021 0.0
H839 H 0.13422 0.90896 0.63819 0.0
H840 H 0.22112 0.96964 0.59837 0.0
H841 H 0.19994 0.92796 0.63038 0.0
H842 H 0.11957 0.87193 0.42732 0.0
H843 H 0.08694 0.83964 0.46098 0.0
H844 H 0.18903 0.95905 0.43785 0.0
H845 H 0.18903 0.95905 0.43785 0.0
C846 C 0.17925 0.19652 0.51996 0.0
C847 C 0.13478 0.18359 0.51199 0.0
C848 C 0.15154 0.10823 0.53044 0.0
C849 C 0.19494 0.1224 0.54287 0.0
N850 N 0.2464 0.1826 0.55767 0.0
N851 N 0.07699 0.12756 0.51867 0.0
C852 C 0.20755 0.16738 0.54001 0.0
C853 C 0.12049 0.13956 0.51957 0.0
N854 N 0.19482 0.23661 0.5073 0.0
N855 N 0.13988 0.06478 0.52682 0.0
H856 H 0.05275 0.14805 0.50973 0.0
H857 H 0.06455 0.09783 0.53003 0.0
H858 H 0.15971 0.04012 0.53585 0.0
H859 H 0.11108 0.05293 0.51183 0.0
H860 H 0.22778 0.24654 0.50839 0.0
H861 H 0.17536 0.25812 0.49137 0.0
H862 H 0.25578 0.21561 0.56033 0.0
H863 H 0.2671 0.16251 0.57393 0.0
loop_
_geom_bond_atom_site_label_1
_geom_bond_atom_site_label_2
_geom_bond_distance
_geom_bond_site_symmetry_2
_ccdc_geom_bond_type
Mn0 O5 2.095 . S
Mn0 O15 2.162 . S
Mn0 O16 2.297 . S
Mn0 O24 2.385 1_455 S
Mn0 O25 2.209 1_455 S
Mn0 O26 2.094 . S
Mn1 O6 2.121 . S
Mn1 N8 2.257 . S
Mn1 N17 2.282 . S
Mn1 O25 2.215 . S
Mn1 O27 2.117 . S
C2 O24 1.234 . S
C2 O25 1.283 . S
C3 O15 1.281 . S
C3 O16 1.236 . S
C4 O26 1.240 . S
C4 O27 1.264 1_455 S
O5 Mn0 2.095 . S
O5 C14 1.250 . S
O6 Mn1 2.121 . S
O6 C14 1.258 1_655 S
C7 N8 1.326 . S
C7 C11 1.460 . S
C7 H13 0.929 . S
N8 Mn1 2.257 . S
N8 C7 1.326 . S
N8 C12 1.362 . S
C9 C10 1.258 . S
C9 C12 1.431 . S
C9 C29 1.449 . S
C10 C9 1.258 . S
C10 C11 1.477 . S
C10 H30 0.931 . S
C11 C7 1.460 . S
C11 C10 1.477 . S
C11 H31 0.930 . S
C12 N8 1.362 . S
C12 C9 1.431 . S
C12 C22 1.476 . S
H13 C7 0.929 . S
C14 O5 1.250 . S
C14 O6 1.258 1_455 S
O15 Mn0 2.162 . S
O15 C3 1.281 . S
O16 Mn0 2.297 . S
O16 C3 1.236 . S
N17 Mn1 2.282 . S
N17 C18 1.328 . S
N17 C22 1.318 . S
C18 N17 1.328 . S
C18 C19 1.457 . S
C18 H23 0.929 . S
C19 C18 1.457 . S
C19 C20 1.291 . S
C19 H32 0.931 . S
C20 C19 1.291 . S
C20 C21 1.373 . S
C20 H33 0.929 . S
C21 C20 1.373 . S
C21 C22 1.396 . S
C21 C28 1.403 . S
C22 C12 1.476 . S
C22 N17 1.318 . S
C22 C21 1.396 . S
H23 C18 0.929 . S
O24 Mn0 2.385 1_655 S
O24 C2 1.234 . S
O25 Mn0 2.209 1_655 S
O25 Mn1 2.215 . S
O25 C2 1.283 . S
O26 Mn0 2.094 . S
O26 C4 1.240 . S
O27 Mn1 2.117 . S
O27 C4 1.264 1_655 S
C28 C21 1.403 . S
C28 C29 1.399 . S
C28 H34 0.929 . S
C29 C9 1.449 . S
C29 C28 1.399 . S
C29 H35 0.930 . S
H30 C10 0.931 . S
H31 C11 0.930 . S
H32 C19 0.931 . S
H33 C20 0.929 . S
H34 C28 0.929 . S
H35 C29 0.930 . S
Mn36 O41 2.095 . S
Mn36 O51 2.162 1_545 S
Mn36 O52 2.297 1_545 S
Mn36 O60 2.385 . S
Mn36 O61 2.209 . S
Mn36 O62 2.094 . S
Mn37 O42 2.121 . S
Mn37 N44 2.257 . S
Mn37 N53 2.282 . S
Mn37 O61 2.215 . S
Mn37 O63 2.117 . S
C38 O60 1.234 . S
C38 O61 1.283 . S
C39 O51 1.281 . S
C39 O52 1.236 . S
C40 O62 1.240 . S
C40 O63 1.264 . S
O41 Mn36 2.095 . S
O41 C50 1.250 . S
O42 Mn37 2.121 . S
O42 C50 1.258 . S
C43 N44 1.326 . S
C43 C47 1.460 . S
C43 H49 0.929 . S
N44 Mn37 2.257 . S
N44 C43 1.326 . S
N44 C48 1.362 . S
C45 C46 1.258 . S
C45 C48 1.431 . S
C45 C65 1.449 . S
C46 C45 1.258 . S
C46 C47 1.477 . S
C46 H66 0.931 . S
C47 C43 1.460 . S
C47 C46 1.477 . S
C47 H67 0.930 . S
C48 N44 1.362 . S
C48 C45 1.431 . S
C48 C58 1.476 . S
H49 C43 0.929 . S
C50 O41 1.250 . S
C50 O42 1.258 . S
O51 Mn36 2.162 1_565 S
O51 C39 1.281 . S
O52 Mn36 2.297 1_565 S
O52 C39 1.236 . S
N53 Mn37 2.282 . S
N53 C54 1.328 . S
N53 C58 1.318 . S
C54 N53 1.328 . S
C54 C55 1.457 . S
C54 H59 0.929 . S
C55 C54 1.457 . S
C55 C56 1.291 . S
C55 H68 0.931 . S
C56 C55 1.291 . S
C56 C57 1.373 . S
C56 H69 0.929 . S
C57 C56 1.373 . S
C57 C58 1.396 . S
C57 C64 1.403 . S
C58 C48 1.476 . S
C58 N53 1.318 . S
C58 C57 1.396 . S
H59 C54 0.929 . S
O60 Mn36 2.385 . S
O60 C38 1.234 . S
O61 Mn36 2.209 . S
O61 Mn37 2.215 . S
O61 C38 1.283 . S
O62 Mn36 2.094 . S
O62 C40 1.240 . S
O63 Mn37 2.117 . S
O63 C40 1.264 . S
C64 C57 1.403 . S
C64 C65 1.399 . S
C64 H70 0.929 . S
C65 C45 1.449 . S
C65 C64 1.399 . S
C65 H71 0.930 . S
H66 C46 0.931 . S
H67 C47 0.930 . S
H68 C55 0.931 . S
H69 C56 0.929 . S
H70 C64 0.929 . S
H71 C65 0.930 . S
Mn72 O77 2.095 . S
Mn72 O87 2.162 1_455 S
Mn72 O88 2.297 1_455 S
Mn72 O96 2.385 . S
Mn72 O97 2.209 . S
Mn72 O98 2.094 . S
Mn73 O78 2.121 . S
Mn73 N80 2.257 . S
Mn73 N89 2.282 . S
Mn73 O97 2.215 . S
Mn73 O99 2.117 . S
C74 O96 1.234 . S
C74 O97 1.283 . S
C75 O87 1.281 . S
C75 O88 1.236 . S
C76 O98 1.240 . S
C76 O99 1.264 . S
O77 Mn72 2.095 . S
O77 C86 1.250 . S
O78 Mn73 2.121 . S
O78 C86 1.258 . S
C79 N80 1.326 . S
C79 C83 1.460 . S
C79 H85 0.929 . S
N80 Mn73 2.257 . S
N80 C79 1.326 . S
N80 C84 1.362 . S
C81 C82 1.258 . S
C81 C84 1.431 . S
C81 C101 1.449 . S
C82 C81 1.258 . S
C82 C83 1.477 . S
C82 H102 0.931 . S
C83 C79 1.460 . S
C83 C82 1.477 . S
C83 H103 0.930 . S
C84 N80 1.362 . S
C84 C81 1.431 . S
C84 C94 1.476 . S
H85 C79 0.929 . S
C86 O77 1.250 . S
C86 O78 1.258 . S
O87 Mn72 2.162 1_655 S
O87 C75 1.281 . S
O88 Mn72 2.297 1_655 S
O88 C75 1.236 . S
N89 Mn73 2.282 . S
N89 C90 1.328 . S
N89 C94 1.318 . S
C90 N89 1.328 . S
C90 C91 1.457 . S
C90 H95 0.929 . S
C91 C90 1.457 . S
C91 C92 1.291 . S
C91 H104 0.931 . S
C92 C91 1.291 . S
C92 C93 1.373 . S
C92 H105 0.929 . S
C93 C92 1.373 . S
C93 C94 1.396 . S
C93 C100 1.403 . S
C94 C84 1.476 . S
C94 N89 1.318 . S
C94 C93 1.396 . S
H95 C90 0.929 . S
O96 Mn72 2.385 . S
O96 C74 1.234 . S
O97 Mn72 2.209 . S
O97 Mn73 2.215 . S
O97 C74 1.283 . S
O98 Mn72 2.094 . S
O98 C76 1.240 . S
O99 Mn73 2.117 . S
O99 C76 1.264 . S
C100 C93 1.403 . S
C100 C101 1.399 . S
C100 H106 0.929 . S
C101 C81 1.449 . S
C101 C100 1.399 . S
C101 H107 0.930 . S
H102 C82 0.931 . S
H103 C83 0.930 . S
H104 C91 0.931 . S
H105 C92 0.929 . S
H106 C100 0.929 . S
H107 C101 0.930 . S
Mn108 O113 2.095 . S
Mn108 O123 2.162 . S
Mn108 O124 2.297 . S
Mn108 O132 2.385 1_545 S
Mn108 O133 2.209 1_545 S
Mn108 O134 2.094 . S
Mn109 O114 2.121 . S
Mn109 N116 2.257 . S
Mn109 N125 2.282 . S
Mn109 O133 2.215 . S
Mn109 O135 2.117 . S
C110 O132 1.234 . S
C110 O133 1.283 . S
C111 O123 1.281 . S
C111 O124 1.236 . S
C112 O134 1.240 . S
C112 O135 1.264 1_545 S
O113 Mn108 2.095 . S
O113 C122 1.250 . S
O114 Mn109 2.121 . S
O114 C122 1.258 1_565 S
C115 N116 1.326 . S
C115 C119 1.460 . S
C115 H121 0.929 . S
N116 Mn109 2.257 . S
N116 C115 1.326 . S
N116 C120 1.362 . S
C117 C118 1.258 . S
C117 C120 1.431 . S
C117 C137 1.449 . S
C118 C117 1.258 . S
C118 C119 1.477 . S
C118 H138 0.931 . S
C119 C115 1.460 . S
C119 C118 1.477 . S
C119 H139 0.930 . S
C120 N116 1.362 . S
C120 C117 1.431 . S
C120 C130 1.476 . S
H121 C115 0.929 . S
C122 O113 1.250 . S
C122 O114 1.258 1_545 S
O123 Mn108 2.162 . S
O123 C111 1.281 . S
O124 Mn108 2.297 . S
O124 C111 1.236 . S
N125 Mn109 2.282 . S
N125 C126 1.328 . S
N125 C130 1.318 . S
C126 N125 1.328 . S
C126 C127 1.457 . S
C126 H131 0.929 . S
C127 C126 1.457 . S
C127 C128 1.291 . S
C127 H140 0.931 . S
C128 C127 1.291 . S
C128 C129 1.373 . S
C128 H141 0.929 . S
C129 C128 1.373 . S
C129 C130 1.396 . S
C129 C136 1.403 . S
C130 C120 1.476 . S
C130 N125 1.318 . S
C130 C129 1.396 . S
H131 C126 0.929 . S
O132 Mn108 2.385 1_565 S
O132 C110 1.234 . S
O133 Mn108 2.209 1_565 S
O133 Mn109 2.215 . S
O133 C110 1.283 . S
O134 Mn108 2.094 . S
O134 C112 1.240 . S
O135 Mn109 2.117 . S
O135 C112 1.264 1_565 S
C136 C129 1.403 . S
C136 C137 1.399 . S
C136 H142 0.929 . S
C137 C117 1.449 . S
C137 C136 1.399 . S
C137 H143 0.930 . S
H138 C118 0.931 . S
H139 C119 0.930 . S
H140 C127 0.931 . S
H141 C128 0.929 . S
H142 C136 0.929 . S
H143 C137 0.930 . S
Mn144 O149 2.095 . S
Mn144 O159 2.162 . S
Mn144 O160 2.297 . S
Mn144 O168 2.385 1_545 S
Mn144 O169 2.209 1_545 S
Mn144 O170 2.094 . S
Mn145 O150 2.121 . S
Mn145 N152 2.257 . S
Mn145 N161 2.282 . S
Mn145 O169 2.215 . S
Mn145 O171 2.117 . S
C146 O168 1.234 . S
C146 O169 1.283 . S
C147 O159 1.281 . S
C147 O160 1.236 . S
C148 O170 1.240 . S
C148 O171 1.264 1_545 S
O149 Mn144 2.095 . S
O149 C158 1.250 . S
O150 Mn145 2.121 . S
O150 C158 1.258 1_565 S
C151 N152 1.326 . S
C151 C155 1.460 . S
C151 H157 0.929 . S
N152 Mn145 2.257 . S
N152 C151 1.326 . S
N152 C156 1.362 . S
C153 C154 1.258 . S
C153 C156 1.431 . S
C153 C173 1.449 . S
C154 C153 1.258 . S
C154 C155 1.477 . S
C154 H174 0.931 . S
C155 C151 1.460 . S
C155 C154 1.477 . S
C155 H175 0.930 . S
C156 N152 1.362 . S
C156 C153 1.431 . S
C156 C166 1.476 . S
H157 C151 0.929 . S
C158 O149 1.250 . S
C158 O150 1.258 1_545 S
O159 Mn144 2.162 . S
O159 C147 1.281 . S
O160 Mn144 2.297 . S
O160 C147 1.236 . S
N161 Mn145 2.282 . S
N161 C162 1.328 . S
N161 C166 1.318 . S
C162 N161 1.328 . S
C162 C163 1.457 . S
C162 H167 0.929 . S
C163 C162 1.457 . S
C163 C164 1.291 . S
C163 H176 0.931 . S
C164 C163 1.291 . S
C164 C165 1.373 . S
C164 H177 0.929 . S
C165 C164 1.373 . S
C165 C166 1.396 . S
C165 C172 1.403 . S
C166 C156 1.476 . S
C166 N161 1.318 . S
C166 C165 1.396 . S
H167 C162 0.929 . S
O168 Mn144 2.385 1_565 S
O168 C146 1.234 . S
O169 Mn144 2.209 1_565 S
O169 Mn145 2.215 . S
O169 C146 1.283 . S
O170 Mn144 2.094 . S
O170 C148 1.240 . S
O171 Mn145 2.117 . S
O171 C148 1.264 1_565 S
C172 C165 1.403 . S
C172 C173 1.399 . S
C172 H178 0.929 . S
C173 C153 1.449 . S
C173 C172 1.399 . S
C173 H179 0.930 . S
H174 C154 0.931 . S
H175 C155 0.930 . S
H176 C163 0.931 . S
H177 C164 0.929 . S
H178 C172 0.929 . S
H179 C173 0.930 . S
Mn180 O185 2.095 . S
Mn180 O195 2.162 . S
Mn180 O196 2.297 . S
Mn180 O204 2.385 1_455 S
Mn180 O205 2.209 1_455 S
Mn180 O206 2.094 . S
Mn181 O186 2.121 . S
Mn181 N188 2.257 . S
Mn181 N197 2.282 . S
Mn181 O205 2.215 . S
Mn181 O207 2.117 . S
C182 O204 1.234 . S
C182 O205 1.283 . S
C183 O195 1.281 . S
C183 O196 1.236 . S
C184 O206 1.240 . S
C184 O207 1.264 1_455 S
O185 Mn180 2.095 . S
O185 C194 1.250 . S
O186 Mn181 2.121 . S
O186 C194 1.258 1_655 S
C187 N188 1.326 . S
C187 C191 1.460 . S
C187 H193 0.929 . S
N188 Mn181 2.257 . S
N188 C187 1.326 . S
N188 C192 1.362 . S
C189 C190 1.258 . S
C189 C192 1.431 . S
C189 C209 1.449 . S
C190 C189 1.258 . S
C190 C191 1.477 . S
C190 H210 0.931 . S
C191 C187 1.460 . S
C191 C190 1.477 . S
C191 H211 0.930 . S
C192 N188 1.362 . S
C192 C189 1.431 . S
C192 C202 1.476 . S
H193 C187 0.929 . S
C194 O185 1.250 . S
C194 O186 1.258 1_455 S
O195 Mn180 2.162 . S
O195 C183 1.281 . S
O196 Mn180 2.297 . S
O196 C183 1.236 . S
N197 Mn181 2.282 . S
N197 C198 1.328 . S
N197 C202 1.318 . S
C198 N197 1.328 . S
C198 C199 1.457 . S
C198 H203 0.929 . S
C199 C198 1.457 . S
C199 C200 1.291 . S
C199 H212 0.931 . S
C200 C199 1.291 . S
C200 C201 1.373 . S
C200 H213 0.929 . S
C201 C200 1.373 . S
C201 C202 1.396 . S
C201 C208 1.403 . S
C202 C192 1.476 . S
C202 N197 1.318 . S
C202 C201 1.396 . S
H203 C198 0.929 . S
O204 Mn180 2.385 1_655 S
O204 C182 1.234 . S
O205 Mn180 2.209 1_655 S
O205 Mn181 2.215 . S
O205 C182 1.283 . S
O206 Mn180 2.094 . S
O206 C184 1.240 . S
O207 Mn181 2.117 . S
O207 C184 1.264 1_655 S
C208 C201 1.403 . S
C208 C209 1.399 . S
C208 H214 0.929 . S
C209 C189 1.449 . S
C209 C208 1.399 . S
C209 H215 0.930 . S
H210 C190 0.931 . S
H211 C191 0.930 . S
H212 C199 0.931 . S
H213 C200 0.929 . S
H214 C208 0.929 . S
H215 C209 0.930 . S
Mn216 O221 2.095 . S
Mn216 O231 2.162 . S
Mn216 O232 2.297 . S
Mn216 O240 2.385 1_545 S
Mn216 O241 2.209 . S
Mn216 O242 2.094 1_545 S
Mn217 O222 2.121 . S
Mn217 N224 2.257 . S
Mn217 N233 2.282 1_545 S
Mn217 O241 2.215 . S
Mn217 O243 2.117 1_545 S
C218 O240 1.234 1_545 S
C218 O241 1.283 . S
C219 O231 1.281 . S
C219 O232 1.236 . S
C220 O242 1.240 . S
C220 O243 1.264 . S
O221 Mn216 2.095 . S
O221 C230 1.250 . S
O222 Mn217 2.121 . S
O222 C230 1.258 . S
C223 N224 1.326 . S
C223 C227 1.460 . S
C223 H229 0.929 . S
N224 Mn217 2.257 . S
N224 C223 1.326 . S
N224 C228 1.362 . S
C225 C226 1.258 . S
C225 C228 1.431 . S
C225 C245 1.449 . S
C226 C225 1.258 . S
C226 C227 1.477 . S
C226 H246 0.931 . S
C227 C223 1.460 . S
C227 C226 1.477 . S
C227 H247 0.930 . S
C228 N224 1.362 . S
C228 C225 1.431 . S
C228 C238 1.476 . S
H229 C223 0.929 . S
C230 O221 1.250 . S
C230 O222 1.258 . S
O231 Mn216 2.162 . S
O231 C219 1.281 . S
O232 Mn216 2.297 . S
O232 C219 1.236 . S
N233 Mn217 2.282 1_565 S
N233 C234 1.328 . S
N233 C238 1.318 1_565 S
C234 N233 1.328 . S
C234 C235 1.457 . S
C234 H239 0.929 . S
C235 C234 1.457 . S
C235 C236 1.291 . S
C235 H248 0.931 . S
C236 C235 1.291 . S
C236 C237 1.373 . S
C236 H249 0.929 . S
C237 C236 1.373 . S
C237 C238 1.396 1_565 S
C237 C244 1.403 1_565 S
C238 C228 1.476 . S
C238 N233 1.318 1_545 S
C238 C237 1.396 1_545 S
H239 C234 0.929 . S
O240 Mn216 2.385 1_565 S
O240 C218 1.234 1_565 S
O241 Mn216 2.209 . S
O241 Mn217 2.215 . S
O241 C218 1.283 . S
O242 Mn216 2.094 1_565 S
O242 C220 1.240 . S
O243 Mn217 2.117 1_565 S
O243 C220 1.264 . S
C244 C237 1.403 1_545 S
C244 C245 1.399 . S
C244 H250 0.929 1_545 S
C245 C225 1.449 . S
C245 C244 1.399 . S
C245 H251 0.930 . S
H246 C226 0.931 . S
H247 C227 0.930 . S
H248 C235 0.931 . S
H249 C236 0.929 . S
H250 C244 0.929 1_565 S
H251 C245 0.930 . S
Mn252 O257 2.095 1_455 S
Mn252 O267 2.162 . S
Mn252 O268 2.297 1_455 S
Mn252 O276 2.385 . S
Mn252 O277 2.209 . S
Mn252 O278 2.094 . S
Mn253 O258 2.121 1_455 S
Mn253 N260 2.257 1_455 S
Mn253 N269 2.282 . S
Mn253 O277 2.215 . S
Mn253 O279 2.117 . S
C254 O276 1.234 . S
C254 O277 1.283 . S
C255 O267 1.281 . S
C255 O268 1.236 1_455 S
C256 O278 1.240 . S
C256 O279 1.264 . S
O257 Mn252 2.095 1_655 S
O257 C266 1.250 . S
O258 Mn253 2.121 1_655 S
O258 C266 1.258 . S
C259 N260 1.326 . S
C259 C263 1.460 . S
C259 H265 0.929 . S
N260 Mn253 2.257 1_655 S
N260 C259 1.326 . S
N260 C264 1.362 . S
C261 C262 1.258 . S
C261 C264 1.431 . S
C261 C281 1.449 . S
C262 C261 1.258 . S
C262 C263 1.477 . S
C262 H282 0.931 . S
C263 C259 1.460 . S
C263 C262 1.477 . S
C263 H283 0.930 . S
C264 N260 1.362 . S
C264 C261 1.431 . S
C264 C274 1.476 1_655 S
H265 C259 0.929 . S
C266 O257 1.250 . S
C266 O258 1.258 . S
O267 Mn252 2.162 . S
O267 C255 1.281 . S
O268 Mn252 2.297 1_655 S
O268 C255 1.236 1_655 S
N269 Mn253 2.282 . S
N269 C270 1.328 . S
N269 C274 1.318 . S
C270 N269 1.328 . S
C270 C271 1.457 . S
C270 H275 0.929 . S
C271 C270 1.457 . S
C271 C272 1.291 . S
C271 H284 0.931 . S
C272 C271 1.291 . S
C272 C273 1.373 . S
C272 H285 0.929 . S
C273 C272 1.373 . S
C273 C274 1.396 . S
C273 C280 1.403 . S
C274 C264 1.476 1_455 S
C274 N269 1.318 . S
C274 C273 1.396 . S
H275 C270 0.929 . S
O276 Mn252 2.385 . S
O276 C254 1.234 . S
O277 Mn252 2.209 . S
O277 Mn253 2.215 . S
O277 C254 1.283 . S
O278 Mn252 2.094 . S
O278 C256 1.240 . S
O279 Mn253 2.117 . S
O279 C256 1.264 . S
C280 C273 1.403 . S
C280 C281 1.399 1_455 S
C280 H286 0.929 . S
C281 C261 1.449 . S
C281 C280 1.399 1_655 S
C281 H287 0.930 . S
H282 C262 0.931 . S
H283 C263 0.930 . S
H284 C271 0.931 . S
H285 C272 0.929 . S
H286 C280 0.929 . S
H287 C281 0.930 . S
Mn288 O293 2.095 . S
Mn288 O303 2.162 1_554 S
Mn288 O304 2.297 . S
Mn288 O312 2.385 1_554 S
Mn288 O313 2.209 . S
Mn288 O314 2.094 1_554 S
Mn289 O294 2.121 . S
Mn289 N296 2.257 . S
Mn289 N305 2.282 1_554 S
Mn289 O313 2.215 . S
Mn289 O315 2.117 1_554 S
C290 O312 1.234 1_554 S
C290 O313 1.283 . S
C291 O303 1.281 1_554 S
C291 O304 1.236 . S
C292 O314 1.240 . S
C292 O315 1.264 . S
O293 Mn288 2.095 . S
O293 C302 1.250 . S
O294 Mn289 2.121 . S
O294 C302 1.258 . S
C295 N296 1.326 . S
C295 C299 1.460 . S
C295 H301 0.929 . S
N296 Mn289 2.257 . S
N296 C295 1.326 . S
N296 C300 1.362 . S
C297 C298 1.258 . S
C297 C300 1.431 . S
C297 C317 1.449 . S
C298 C297 1.258 . S
C298 C299 1.477 . S
C298 H318 0.931 . S
C299 C295 1.460 . S
C299 C298 1.477 . S
C299 H319 0.930 . S
C300 N296 1.362 . S
C300 C297 1.431 . S
C300 C310 1.476 . S
H301 C295 0.929 . S
C302 O293 1.250 . S
C302 O294 1.258 . S
O303 Mn288 2.162 1_556 S
O303 C291 1.281 1_556 S
O304 Mn288 2.297 . S
O304 C291 1.236 . S
N305 Mn289 2.282 1_556 S
N305 C306 1.328 . S
N305 C310 1.318 1_556 S
C306 N305 1.328 . S
C306 C307 1.457 . S
C306 H311 0.929 . S
C307 C306 1.457 . S
C307 C308 1.291 . S
C307 H320 0.931 . S
C308 C307 1.291 . S
C308 C309 1.373 . S
C308 H321 0.929 . S
C309 C308 1.373 . S
C309 C310 1.396 1_556 S
C309 C316 1.403 1_556 S
C310 C300 1.476 . S
C310 N305 1.318 1_554 S
C310 C309 1.396 1_554 S
H311 C306 0.929 . S
O312 Mn288 2.385 1_556 S
O312 C290 1.234 1_556 S
O313 Mn288 2.209 . S
O313 Mn289 2.215 . S
O313 C290 1.283 . S
O314 Mn288 2.094 1_556 S
O314 C292 1.240 . S
O315 Mn289 2.117 1_556 S
O315 C292 1.264 . S
C316 C309 1.403 1_554 S
C316 C317 1.399 . S
C316 H322 0.929 . S
C317 C297 1.449 . S
C317 C316 1.399 . S
C317 H323 0.930 . S
H318 C298 0.931 . S
H319 C299 0.930 . S
H320 C307 0.931 . S
H321 C308 0.929 . S
H322 C316 0.929 . S
H323 C317 0.930 . S
Mn324 O329 2.095 1_554 S
Mn324 O339 2.162 . S
Mn324 O340 2.297 1_554 S
Mn324 O348 2.385 . S
Mn324 O349 2.209 1_554 S
Mn324 O350 2.094 . S
Mn325 O330 2.121 . S
Mn325 N332 2.257 . S
Mn325 N341 2.282 1_556 S
Mn325 O349 2.215 . S
Mn325 O351 2.117 1_556 S
C326 O348 1.234 . S
C326 O349 1.283 1_554 S
C327 O339 1.281 1_556 S
C327 O340 1.236 . S
C328 O350 1.240 . S
C328 O351 1.264 . S
O329 Mn324 2.095 1_556 S
O329 C338 1.250 . S
O330 Mn325 2.121 . S
O330 C338 1.258 . S
C331 N332 1.326 . S
C331 C335 1.460 . S
C331 H337 0.929 . S
N332 Mn325 2.257 . S
N332 C331 1.326 . S
N332 C336 1.362 . S
C333 C334 1.258 . S
C333 C336 1.431 . S
C333 C353 1.449 . S
C334 C333 1.258 . S
C334 C335 1.477 . S
C334 H354 0.931 . S
C335 C331 1.460 . S
C335 C334 1.477 . S
C335 H355 0.930 . S
C336 N332 1.362 . S
C336 C333 1.431 . S
C336 C346 1.476 1_556 S
H337 C331 0.929 . S
C338 O329 1.250 . S
C338 O330 1.258 . S
O339 Mn324 2.162 . S
O339 C327 1.281 1_554 S
O340 Mn324 2.297 1_556 S
O340 C327 1.236 . S
N341 Mn325 2.282 1_554 S
N341 C342 1.328 . S
N341 C346 1.318 . S
C342 N341 1.328 . S
C342 C343 1.457 . S
C342 H347 0.929 . S
C343 C342 1.457 . S
C343 C344 1.291 . S
C343 H356 0.931 . S
C344 C343 1.291 . S
C344 C345 1.373 . S
C344 H357 0.929 . S
C345 C344 1.373 . S
C345 C346 1.396 . S
C345 C352 1.403 . S
C346 C336 1.476 1_554 S
C346 N341 1.318 . S
C346 C345 1.396 . S
H347 C342 0.929 . S
O348 Mn324 2.385 . S
O348 C326 1.234 . S
O349 Mn324 2.209 1_556 S
O349 Mn325 2.215 . S
O349 C326 1.283 1_556 S
O350 Mn324 2.094 . S
O350 C328 1.240 . S
O351 Mn325 2.117 1_554 S
O351 C328 1.264 . S
C352 C345 1.403 . S
C352 C353 1.399 1_554 S
C352 H358 0.929 . S
C353 C333 1.449 . S
C353 C352 1.399 1_556 S
C353 H359 0.930 . S
H354 C334 0.931 . S
H355 C335 0.930 . S
H356 C343 0.931 . S
H357 C344 0.929 . S
H358 C352 0.929 . S
H359 C353 0.930 . S
Mn360 O365 2.095 . S
Mn360 O375 2.159 1_554 S
Mn360 O376 2.297 . S
Mn360 O384 2.385 1_554 S
Mn360 O385 2.209 . S
Mn360 O386 2.094 1_554 S
Mn361 O366 2.121 . S
Mn361 N368 2.257 . S
Mn361 N377 2.282 1_554 S
Mn361 O385 2.215 . S
Mn361 O387 2.117 1_554 S
C362 O384 1.234 1_554 S
C362 O385 1.283 . S
C363 O375 1.268 1_554 S
C363 O376 1.236 . S
C364 O386 1.240 . S
C364 O387 1.264 . S
O365 Mn360 2.095 . S
O365 C374 1.250 . S
O366 Mn361 2.121 . S
O366 C374 1.258 . S
C367 N368 1.326 . S
C367 C371 1.460 . S
C367 H373 0.929 . S
N368 Mn361 2.257 . S
N368 C367 1.326 . S
N368 C372 1.362 . S
C369 C370 1.258 . S
C369 C372 1.431 . S
C369 C389 1.449 . S
C370 C369 1.258 . S
C370 C371 1.477 . S
C370 H390 0.931 . S
C371 C367 1.460 . S
C371 C370 1.477 . S
C371 H391 0.930 . S
C372 N368 1.362 . S
C372 C369 1.431 . S
C372 C382 1.476 . S
H373 C367 0.929 . S
C374 O365 1.250 . S
C374 O366 1.258 . S
O375 Mn360 2.159 1_556 S
O375 C363 1.268 1_556 S
O376 Mn360 2.297 . S
O376 C363 1.236 . S
N377 Mn361 2.282 1_556 S
N377 C378 1.328 . S
N377 C382 1.318 1_556 S
C378 N377 1.328 . S
C378 C379 1.457 . S
C378 H383 0.929 . S
C379 C378 1.457 . S
C379 C380 1.291 . S
C379 H392 0.931 . S
C380 C379 1.291 . S
C380 C381 1.373 . S
C380 H393 0.929 . S
C381 C380 1.373 . S
C381 C382 1.396 1_556 S
C381 C388 1.403 1_556 S
C382 C372 1.476 . S
C382 N377 1.318 1_554 S
C382 C381 1.396 1_554 S
H383 C378 0.929 . S
O384 Mn360 2.385 1_556 S
O384 C362 1.234 1_556 S
O385 Mn360 2.209 . S
O385 Mn361 2.215 . S
O385 C362 1.283 . S
O386 Mn360 2.094 1_556 S
O386 C364 1.240 . S
O387 Mn361 2.117 1_556 S
O387 C364 1.264 . S
C388 C381 1.403 1_554 S
C388 C389 1.399 . S
C388 H394 0.929 1_554 S
C389 C369 1.449 . S
C389 C388 1.399 . S
C389 H395 0.930 . S
H390 C370 0.931 . S
H391 C371 0.930 . S
H392 C379 0.931 . S
H393 C380 0.929 . S
H394 C388 0.929 1_556 S
H395 C389 0.930 . S
Mn396 O401 2.095 1_554 S
Mn396 O411 2.162 . S
Mn396 O412 2.297 1_554 S
Mn396 O420 2.385 . S
Mn396 O421 2.209 . S
Mn396 O422 2.094 . S
Mn397 O402 2.121 1_554 S
Mn397 N404 2.257 1_554 S
Mn397 N413 2.282 . S
Mn397 O421 2.215 . S
Mn397 O423 2.117 . S
C398 O420 1.234 . S
C398 O421 1.283 . S
C399 O411 1.281 . S
C399 O412 1.236 1_554 S
C400 O422 1.240 . S
C400 O423 1.264 . S
O401 Mn396 2.095 1_556 S
O401 C410 1.250 . S
O402 Mn397 2.121 1_556 S
O402 C410 1.258 . S
C403 N404 1.326 . S
C403 C407 1.460 . S
C403 H409 0.929 . S
N404 Mn397 2.257 1_556 S
N404 C403 1.326 . S
N404 C408 1.362 . S
C405 C406 1.258 . S
C405 C408 1.431 . S
C405 C425 1.449 . S
C406 C405 1.258 . S
C406 C407 1.477 . S
C406 H426 0.931 . S
C407 C403 1.460 . S
C407 C406 1.477 . S
C407 H427 0.930 . S
C408 N404 1.362 . S
C408 C405 1.431 . S
C408 C418 1.476 1_556 S
H409 C403 0.929 . S
C410 O401 1.250 . S
C410 O402 1.258 . S
O411 Mn396 2.162 . S
O411 C399 1.281 . S
O412 Mn396 2.297 1_556 S
O412 C399 1.236 1_556 S
N413 Mn397 2.282 . S
N413 C414 1.328 . S
N413 C418 1.318 . S
C414 N413 1.328 . S
C414 C415 1.457 . S
C414 H419 0.929 . S
C415 C414 1.457 . S
C415 C416 1.291 . S
C415 H428 0.931 . S
C416 C415 1.291 . S
C416 C417 1.373 . S
C416 H429 0.929 . S
C417 C416 1.373 . S
C417 C418 1.396 . S
C417 C424 1.403 . S
C418 C408 1.476 1_554 S
C418 N413 1.318 . S
C418 C417 1.396 . S
H419 C414 0.929 . S
O420 Mn396 2.385 . S
O420 C398 1.234 . S
O421 Mn396 2.209 . S
O421 Mn397 2.215 . S
O421 C398 1.283 . S
O422 Mn396 2.094 . S
O422 C400 1.240 . S
O423 Mn397 2.117 . S
O423 C400 1.264 . S
C424 C417 1.403 . S
C424 C425 1.399 1_554 S
C424 H430 0.929 . S
C425 C405 1.449 . S
C425 C424 1.399 1_556 S
C425 H431 0.930 . S
H426 C406 0.931 . S
H427 C407 0.930 . S
H428 C415 0.931 . S
H429 C416 0.929 . S
H430 C424 0.929 . S
H431 C425 0.930 . S
C432 C433 1.350 1_655 S
C432 C438 1.383 . S
C432 N440 1.362 . S
C433 C432 1.350 1_455 S
C433 C439 1.363 . S
C434 C435 1.363 . S
C434 C439 1.379 . S
C434 N441 1.356 . S
C435 C434 1.363 . S
C435 C438 1.363 1_455 S
N436 C438 1.356 . S
N436 H448 0.984 . S
N436 H449 0.985 . S
N437 C439 1.356 . S
N437 H442 0.984 . S
N437 H443 0.985 . S
C438 C432 1.383 . S
C438 C435 1.363 1_655 S
C438 N436 1.356 . S
C439 C433 1.363 . S
C439 C434 1.379 . S
C439 N437 1.356 . S
N440 C432 1.362 . S
N440 H446 0.984 . S
N440 H447 0.996 . S
N441 C434 1.356 . S
N441 H444 0.984 . S
N441 H445 0.985 . S
H442 N437 0.984 . S
H443 N437 0.985 . S
H444 N441 0.984 . S
H445 N441 0.985 . S
H446 N440 0.984 . S
H447 N440 0.996 . S
H448 N436 0.984 . S
H449 N436 0.985 . S
C450 C451 1.363 . S
C450 C456 1.379 . S
C450 N458 1.356 . S
C451 C450 1.363 . S
C451 C457 1.363 1_545 S
C452 C453 1.363 1_565 S
C452 C457 1.379 . S
C452 N459 1.356 . S
C453 C452 1.363 1_545 S
C453 C456 1.363 . S
N454 C456 1.356 . S
N454 H466 0.984 . S
N454 H467 0.985 . S
N455 C457 1.356 . S
N455 H460 0.984 . S
N455 H461 0.985 . S
C456 C450 1.379 . S
C456 C453 1.363 . S
C456 N454 1.356 . S
C457 C451 1.363 1_565 S
C457 C452 1.379 . S
C457 N455 1.356 . S
N458 C450 1.356 . S
N458 H464 0.984 . S
N458 H465 0.984 . S
N459 C452 1.356 . S
N459 H462 0.984 . S
N459 H463 0.985 . S
H460 N455 0.984 . S
H461 N455 0.985 . S
H462 N459 0.984 . S
H463 N459 0.985 . S
H464 N458 0.984 . S
H465 N458 0.984 . S
H466 N454 0.984 . S
H467 N454 0.985 . S
C468 C469 1.363 1_655 S
C468 C474 1.379 . S
C468 N476 1.356 . S
C469 C468 1.363 1_455 S
C469 C475 1.363 . S
C470 C471 1.363 . S
C470 C475 1.379 . S
C470 N477 1.356 . S
C471 C470 1.363 . S
C471 C474 1.363 1_455 S
N472 C474 1.356 . S
N472 H484 0.984 . S
N472 H485 0.985 . S
N473 C475 1.356 . S
N473 H478 0.984 . S
N473 H479 0.985 . S
C474 C468 1.379 . S
C474 C471 1.363 1_655 S
C474 N472 1.356 . S
C475 C469 1.363 . S
C475 C470 1.379 . S
C475 N473 1.356 . S
N476 C468 1.356 . S
N476 H482 0.984 . S
N476 H483 0.984 . S
N477 C470 1.356 . S
N477 H480 0.984 . S
N477 H481 0.985 . S
H478 N473 0.984 . S
H479 N473 0.985 . S
H480 N477 0.984 . S
H481 N477 0.985 . S
H482 N476 0.984 . S
H483 N476 0.984 . S
H484 N472 0.984 . S
H485 N472 0.985 . S
C486 C487 1.363 1_565 S
C486 C492 1.379 . S
C486 N494 1.356 . S
C487 C486 1.363 1_545 S
C487 C493 1.363 . S
C488 C489 1.363 . S
C488 C493 1.379 . S
C488 N495 1.356 . S
C489 C488 1.363 . S
C489 C492 1.363 1_545 S
N490 C492 1.356 . S
N490 H502 0.984 . S
N490 H503 0.985 . S
N491 C493 1.356 . S
N491 H496 0.984 . S
N491 H497 0.985 . S
C492 C486 1.379 . S
C492 C489 1.363 1_565 S
C492 N490 1.356 . S
C493 C487 1.363 . S
C493 C488 1.379 . S
C493 N491 1.356 . S
N494 C486 1.356 . S
N494 H500 0.984 . S
N494 H501 0.984 . S
N495 C488 1.356 . S
N495 H498 0.984 . S
N495 H499 0.985 . S
H496 N491 0.984 . S
H497 N491 0.985 . S
H498 N495 0.984 . S
H499 N495 0.985 . S
H500 N494 0.984 . S
H501 N494 0.984 . S
H502 N490 0.984 . S
H503 N490 0.985 . S
C504 C505 1.363 . S
C504 C510 1.379 . S
C504 N512 1.356 . S
C505 C504 1.363 . S
C505 C511 1.363 . S
C506 C507 1.363 . S
C506 C511 1.379 . S
C506 N513 1.356 . S
C507 C506 1.363 . S
C507 C510 1.363 . S
N508 C510 1.356 . S
N508 H520 0.984 . S
N508 H521 0.985 . S
N509 C511 1.356 1_655 S
N509 H514 0.984 . S
N509 H515 0.985 . S
C510 C504 1.379 . S
C510 C507 1.363 . S
C510 N508 1.356 . S
C511 C505 1.363 . S
C511 C506 1.379 . S
C511 N509 1.356 1_455 S
N512 C504 1.356 . S
N512 H518 0.984 . S
N512 H519 0.984 . S
N513 C506 1.356 . S
N513 H516 0.984 . S
N513 H517 0.985 1_455 S
H514 N509 0.984 . S
H515 N509 0.985 . S
H516 N513 0.984 . S
H517 N513 0.985 1_655 S
H518 N512 0.984 . S
H519 N512 0.984 . S
H520 N508 0.984 . S
H521 N508 0.985 . S
C522 C523 1.363 1_565 S
C522 C528 1.379 . S
C522 N530 1.356 . S
C523 C522 1.363 1_545 S
C523 C529 1.363 . S
C524 C525 1.363 . S
C524 C529 1.379 . S
C524 N531 1.356 . S
C525 C524 1.363 . S
C525 C528 1.363 1_545 S
N526 C528 1.356 . S
N526 H538 0.984 . S
N526 H539 0.985 . S
N527 C529 1.356 . S
N527 H532 0.984 . S
N527 H533 0.985 . S
C528 C522 1.379 . S
C528 C525 1.363 1_565 S
C528 N526 1.356 . S
C529 C523 1.363 . S
C529 C524 1.379 . S
C529 N527 1.356 . S
N530 C522 1.356 . S
N530 H536 0.984 . S
N530 H537 0.984 . S
N531 C524 1.356 . S
N531 H534 0.984 . S
N531 H535 0.985 . S
H532 N527 0.984 . S
H533 N527 0.985 . S
H534 N531 0.984 . S
H535 N531 0.985 . S
H536 N530 0.984 . S
H537 N530 0.984 . S
H538 N526 0.984 . S
H539 N526 0.985 . S
C540 C541 1.363 . S
C540 C546 1.379 . S
C540 N548 1.356 . S
C541 C540 1.363 . S
C541 C547 1.366 . S
C542 C543 1.363 . S
C542 C547 1.381 . S
C542 N549 1.356 . S
C543 C542 1.363 . S
C543 C546 1.363 . S
N544 C546 1.356 . S
N544 H556 0.984 . S
N544 H557 0.985 . S
N545 C547 1.352 1_655 S
N545 H550 0.984 . S
N545 H551 0.985 . S
C546 C540 1.379 . S
C546 C543 1.363 . S
C546 N544 1.356 . S
C547 C541 1.366 . S
C547 C542 1.381 . S
C547 N545 1.352 1_455 S
N548 C540 1.356 . S
N548 H554 0.984 . S
N548 H555 0.984 . S
N549 C542 1.356 . S
N549 H552 0.984 . S
N549 H553 0.985 1_455 S
H550 N545 0.984 . S
H551 N545 0.985 . S
H552 N549 0.984 . S
H553 N549 0.985 1_655 S
H554 N548 0.984 . S
H555 N548 0.984 . S
H556 N544 0.984 . S
H557 N544 0.985 . S
C558 C559 1.363 1_565 S
C558 C564 1.379 . S
C558 N566 1.356 . S
C559 C558 1.363 1_545 S
C559 C565 1.363 . S
C560 C561 1.363 . S
C560 C565 1.379 . S
C560 N567 1.356 . S
C561 C560 1.363 . S
C561 C564 1.363 1_545 S
N562 C564 1.356 . S
N562 H574 0.984 . S
N562 H575 0.985 . S
N563 C565 1.356 . S
N563 H568 0.984 . S
N563 H569 0.985 . S
C564 C558 1.379 . S
C564 C561 1.363 1_565 S
C564 N562 1.356 . S
C565 C559 1.363 . S
C565 C560 1.379 . S
C565 N563 1.356 . S
N566 C558 1.356 . S
N566 H572 0.984 . S
N566 H573 0.984 . S
N567 C560 1.356 . S
N567 H570 0.984 . S
N567 H571 0.985 . S
H568 N563 0.984 . S
H569 N563 0.985 . S
H570 N567 0.984 . S
H571 N567 0.985 . S
H572 N566 0.984 . S
H573 N566 0.984 . S
H574 N562 0.984 . S
H575 N562 0.985 . S
C576 C577 1.372 . S
C576 C582 1.379 . S
C576 N584 1.356 . S
C577 C576 1.372 . S
C577 C583 1.349 1_556 S
C578 C579 1.363 . S
C578 C583 1.379 . S
C578 N585 1.356 . S
C579 C578 1.363 . S
C579 C582 1.363 1_554 S
N580 C582 1.356 . S
N580 H592 0.984 . S
N580 H593 0.985 . S
N581 C583 1.356 . S
N581 H586 0.984 . S
N581 H587 0.985 . S
C582 C576 1.379 . S
C582 C579 1.363 1_556 S
C582 N580 1.356 . S
C583 C577 1.349 1_554 S
C583 C578 1.379 . S
C583 N581 1.356 . S
N584 C576 1.356 . S
N584 H590 0.984 . S
N584 H591 0.984 . S
N585 C578 1.356 . S
N585 H588 0.984 . S
N585 H589 0.985 . S
H586 N581 0.984 . S
H587 N581 0.985 . S
H588 N585 0.984 . S
H589 N585 0.985 . S
H590 N584 0.984 . S
H591 N584 0.984 . S
H592 N580 0.984 . S
H593 N580 0.985 . S
C594 C595 1.363 . S
C594 C600 1.379 . S
C594 N602 1.356 . S
C595 C594 1.363 . S
C595 C601 1.363 1_554 S
C596 C597 1.363 1_556 S
C596 C601 1.379 . S
C596 N603 1.356 . S
C597 C596 1.363 1_554 S
C597 C600 1.363 . S
N598 C600 1.356 . S
N598 H610 0.984 . S
N598 H611 0.985 . S
N599 C601 1.356 . S
N599 H604 0.984 . S
N599 H605 0.985 . S
C600 C594 1.379 . S
C600 C597 1.363 . S
C600 N598 1.356 . S
C601 C595 1.363 1_556 S
C601 C596 1.379 . S
C601 N599 1.356 . S
N602 C594 1.356 . S
N602 H608 0.984 . S
N602 H609 0.984 . S
N603 C596 1.356 . S
N603 H606 0.984 . S
N603 H607 0.985 . S
H604 N599 0.984 . S
H605 N599 0.985 . S
H606 N603 0.984 . S
H607 N603 0.985 . S
H608 N602 0.984 . S
H609 N602 0.984 . S
H610 N598 0.984 . S
H611 N598 0.985 . S
C612 C613 1.363 1_556 S
C612 C618 1.379 . S
C612 N620 1.356 . S
C613 C612 1.363 1_554 S
C613 C619 1.363 . S
C614 C615 1.363 . S
C614 C619 1.379 . S
C614 N621 1.356 . S
C615 C614 1.363 . S
C615 C618 1.363 1_554 S
N616 C618 1.356 . S
N616 H628 0.984 . S
N616 H629 0.985 . S
N617 C619 1.356 . S
N617 H622 0.984 . S
N617 H623 0.985 . S
C618 C612 1.379 . S
C618 C615 1.363 1_556 S
C618 N616 1.356 . S
C619 C613 1.363 . S
C619 C614 1.379 . S
C619 N617 1.356 . S
N620 C612 1.356 . S
N620 H626 0.984 . S
N620 H627 0.984 . S
N621 C614 1.356 . S
N621 H624 0.984 . S
N621 H625 0.985 . S
H622 N617 0.984 . S
H623 N617 0.985 . S
H624 N621 0.984 . S
H625 N621 0.985 . S
H626 N620 0.984 . S
H627 N620 0.984 . S
H628 N616 0.984 . S
H629 N616 0.985 . S
C630 C631 1.363 . S
C630 C636 1.379 . S
C630 N638 1.356 . S
C631 C630 1.363 . S
C631 C637 1.363 1_554 S
C632 C633 1.363 1_556 S
C632 C637 1.379 . S
C632 N639 1.356 . S
C633 C632 1.363 1_554 S
C633 C636 1.363 . S
N634 C636 1.356 . S
N634 H646 0.984 . S
N634 H647 0.985 . S
N635 C637 1.356 . S
N635 H640 0.984 . S
N635 H641 0.985 . S
C636 C630 1.379 . S
C636 C633 1.363 . S
C636 N634 1.356 . S
C637 C631 1.363 1_556 S
C637 C632 1.379 . S
C637 N635 1.356 . S
N638 C630 1.356 . S
N638 H644 0.984 . S
N638 H645 0.984 . S
N639 C632 1.356 . S
N639 H642 0.984 . S
N639 H643 0.985 . S
H640 N635 0.984 . S
H641 N635 0.985 . S
H642 N639 0.984 . S
H643 N639 0.985 . S
H644 N638 0.984 . S
H645 N638 0.984 . S
H646 N634 0.984 . S
H647 N634 0.985 . S
C648 C649 1.363 . S
C648 C654 1.379 . S
C648 N656 1.356 . S
C649 C648 1.363 . S
C649 C655 1.363 . S
C650 C651 1.363 . S
C650 C655 1.379 . S
C650 N657 1.356 . S
C651 C650 1.363 . S
C651 C654 1.363 . S
N652 C654 1.356 . S
N652 H664 0.984 . S
N652 H665 0.985 . S
N653 C655 1.356 . S
N653 H658 0.984 . S
N653 H659 0.985 . S
C654 C648 1.379 . S
C654 C651 1.363 . S
C654 N652 1.356 . S
C655 C649 1.363 . S
C655 C650 1.379 . S
C655 N653 1.356 . S
N656 C648 1.356 . S
N656 H662 0.984 . S
N656 H663 0.984 . S
N657 C650 1.356 . S
N657 H660 0.984 . S
N657 H661 0.985 . S
H658 N653 0.984 . S
H659 N653 0.985 . S
H660 N657 0.984 . S
H661 N657 0.985 . S
H662 N656 0.984 . S
H663 N656 0.984 . S
H664 N652 0.984 . S
H665 N652 0.985 . S
C666 C667 1.363 . S
C666 C672 1.379 . S
C666 N674 1.356 . S
C667 C666 1.363 . S
C667 C673 1.363 . S
C668 C669 1.363 . S
C668 C673 1.379 . S
C668 N675 1.356 . S
C669 C668 1.363 . S
C669 C672 1.363 . S
N670 C672 1.356 . S
N670 H682 0.984 . S
N670 H683 0.985 . S
N671 C673 1.356 . S
N671 H676 0.984 . S
N671 H677 0.985 . S
C672 C666 1.379 . S
C672 C669 1.363 . S
C672 N670 1.356 . S
C673 C667 1.363 . S
C673 C668 1.379 . S
C673 N671 1.356 . S
N674 C666 1.356 . S
N674 H680 0.984 . S
N674 H681 0.984 . S
N675 C668 1.356 . S
N675 H678 0.984 . S
N675 H679 0.985 . S
H676 N671 0.984 . S
H677 N671 0.985 . S
H678 N675 0.984 . S
H679 N675 0.985 . S
H680 N674 0.984 . S
H681 N674 0.984 . S
H682 N670 0.984 . S
H683 N670 0.985 . S
C684 C685 1.363 . S
C684 C690 1.379 . S
C684 N692 1.356 . S
C685 C684 1.363 . S
C685 C691 1.363 . S
C686 C687 1.363 . S
C686 C691 1.379 . S
C686 N693 1.356 . S
C687 C686 1.363 . S
C687 C690 1.363 . S
N688 C690 1.356 . S
N688 H700 0.984 . S
N688 H701 0.985 . S
N689 C691 1.356 . S
N689 H694 0.984 . S
N689 H695 0.985 . S
C690 C684 1.379 . S
C690 C687 1.363 . S
C690 N688 1.356 . S
C691 C685 1.363 . S
C691 C686 1.379 . S
C691 N689 1.356 . S
N692 C684 1.356 . S
N692 H698 0.984 . S
N692 H699 0.984 . S
N693 C686 1.356 . S
N693 H696 0.984 . S
N693 H697 0.985 . S
H694 N689 0.984 . S
H695 N689 0.985 . S
H696 N693 0.984 . S
H697 N693 0.985 . S
H698 N692 0.984 . S
H699 N692 0.984 . S
H700 N688 0.984 . S
H701 N688 0.985 . S
C702 C703 1.363 . S
C702 C708 1.379 . S
C702 N710 1.356 . S
C703 C702 1.363 . S
C703 C709 1.363 . S
C704 C705 1.363 . S
C704 C709 1.379 . S
C704 N711 1.356 . S
C705 C704 1.363 . S
C705 C708 1.363 . S
N706 C708 1.356 . S
N706 H718 0.984 . S
N706 H719 0.985 . S
N707 C709 1.356 . S
N707 H712 0.984 . S
N707 H713 0.985 . S
C708 C702 1.379 . S
C708 C705 1.363 . S
C708 N706 1.356 . S
C709 C703 1.363 . S
C709 C704 1.379 . S
C709 N707 1.356 . S
N710 C702 1.356 . S
N710 H716 0.984 . S
N710 H717 0.984 . S
N711 C704 1.356 . S
N711 H714 0.984 . S
N711 H715 0.985 . S
H712 N707 0.984 . S
H713 N707 0.985 . S
H714 N711 0.984 . S
H715 N711 0.985 . S
H716 N710 0.984 . S
H717 N710 0.984 . S
H718 N706 0.984 . S
H719 N706 0.985 . S
C720 C721 1.363 . S
C720 C726 1.379 . S
C720 N728 1.356 . S
C721 C720 1.363 . S
C721 C727 1.363 . S
C722 C723 1.363 . S
C722 C727 1.379 . S
C722 N729 1.356 . S
C723 C722 1.363 . S
C723 C726 1.363 . S
N724 C726 1.356 . S
N724 H736 0.984 . S
N724 H737 0.985 . S
N725 C727 1.356 . S
N725 H730 0.984 . S
N725 H731 0.985 . S
C726 C720 1.379 . S
C726 C723 1.363 . S
C726 N724 1.356 . S
C727 C721 1.363 . S
C727 C722 1.379 . S
C727 N725 1.356 . S
N728 C720 1.356 . S
N728 H734 0.984 . S
N728 H735 0.984 . S
N729 C722 1.356 . S
N729 H732 0.984 . S
N729 H733 0.985 . S
H730 N725 0.984 . S
H731 N725 0.985 . S
H732 N729 0.984 . S
H733 N729 0.985 . S
H734 N728 0.984 . S
H735 N728 0.984 . S
H736 N724 0.984 . S
H737 N724 0.985 . S
C738 C739 1.363 . S
C738 C744 1.379 . S
C738 N746 1.356 . S
C739 C738 1.363 . S
C739 C745 1.363 . S
C740 C741 1.363 . S
C740 C745 1.379 . S
C740 N747 1.356 . S
C741 C740 1.363 . S
C741 C744 1.363 . S
N742 C744 1.356 . S
N742 H754 0.984 . S
N742 H755 0.985 . S
N743 C745 1.356 . S
N743 H748 0.984 . S
N743 H749 0.985 . S
C744 C738 1.379 . S
C744 C741 1.363 . S
C744 N742 1.356 . S
C745 C739 1.363 . S
C745 C740 1.379 . S
C745 N743 1.356 . S
N746 C738 1.356 . S
N746 H752 0.984 . S
N746 H753 0.984 . S
N747 C740 1.356 . S
N747 H750 0.984 . S
N747 H751 0.985 . S
H748 N743 0.984 . S
H749 N743 0.985 . S
H750 N747 0.984 . S
H751 N747 0.985 . S
H752 N746 0.984 . S
H753 N746 0.984 . S
H754 N742 0.984 . S
H755 N742 0.985 . S
C756 C757 1.363 . S
C756 C762 1.379 . S
C756 N764 1.356 . S
C757 C756 1.363 . S
C757 C763 1.363 . S
C758 C759 1.363 . S
C758 C763 1.379 . S
C758 N765 1.356 . S
C759 C758 1.363 . S
C759 C762 1.363 . S
N760 C762 1.356 . S
N760 H772 0.984 . S
N760 H773 0.985 . S
N761 C763 1.356 . S
N761 H766 0.984 . S
N761 H767 0.985 . S
C762 C756 1.379 . S
C762 C759 1.363 . S
C762 N760 1.356 . S
C763 C757 1.363 . S
C763 C758 1.379 . S
C763 N761 1.356 . S
N764 C756 1.356 . S
N764 H770 0.984 . S
N764 H771 0.984 . S
N765 C758 1.356 . S
N765 H768 0.984 . S
N765 H769 0.985 . S
H766 N761 0.984 . S
H767 N761 0.985 . S
H768 N765 0.984 . S
H769 N765 0.985 . S
H770 N764 0.984 . S
H771 N764 0.984 . S
H772 N760 0.984 . S
H773 N760 0.985 . S
C774 C775 1.363 . S
C774 C780 1.379 . S
C774 N782 1.356 . S
C775 C774 1.363 . S
C775 C781 1.363 . S
C776 C777 1.363 . S
C776 C781 1.379 . S
C776 N783 1.356 . S
C777 C776 1.363 . S
C777 C780 1.363 . S
N778 C780 1.356 . S
N778 H790 0.984 . S
N778 H791 0.985 . S
N779 C781 1.356 . S
N779 H784 0.984 . S
N779 H785 0.985 . S
C780 C774 1.379 . S
C780 C777 1.363 . S
C780 N778 1.356 . S
C781 C775 1.363 . S
C781 C776 1.379 . S
C781 N779 1.356 . S
N782 C774 1.356 . S
N782 H788 0.984 . S
N782 H789 0.984 . S
N783 C776 1.356 . S
N783 H786 0.984 . S
N783 H787 0.985 . S
H784 N779 0.984 . S
H785 N779 0.985 . S
H786 N783 0.984 . S
H787 N783 0.985 . S
H788 N782 0.984 . S
H789 N782 0.984 . S
H790 N778 0.984 . S
H791 N778 0.985 . S
C792 C793 1.363 . S
C792 C798 1.379 . S
C792 N800 1.356 . S
C793 C792 1.363 . S
C793 C799 1.363 . S
C794 C795 1.363 . S
C794 C799 1.379 . S
C794 N801 1.356 . S
C795 C794 1.363 . S
C795 C798 1.363 . S
N796 C798 1.356 . S
N796 H808 0.984 . S
N796 H809 0.985 . S
N797 C799 1.356 . S
N797 H802 0.984 . S
N797 H803 0.985 . S
C798 C792 1.379 . S
C798 C795 1.363 . S
C798 N796 1.356 . S
C799 C793 1.363 . S
C799 C794 1.379 . S
C799 N797 1.356 . S
N800 C792 1.356 . S
N800 H806 0.984 . S
N800 H807 0.984 . S
N801 C794 1.356 . S
N801 H804 0.984 . S
N801 H805 0.985 . S
H802 N797 0.984 . S
H803 N797 0.985 . S
H804 N801 0.984 . S
H805 N801 0.985 . S
H806 N800 0.984 . S
H807 N800 0.984 . S
H808 N796 0.984 . S
H809 N796 0.985 . S
C810 C811 1.363 . S
C810 C816 1.379 . S
C810 N818 1.356 . S
C811 C810 1.363 . S
C811 C817 1.363 . S
C812 C813 1.363 . S
C812 C817 1.379 . S
C812 N819 1.356 . S
C813 C812 1.363 . S
C813 C816 1.363 . S
N814 C816 1.356 . S
N814 H826 0.984 . S
N814 H827 0.985 . S
N815 C817 1.356 . S
N815 H820 0.984 . S
N815 H821 0.985 . S
C816 C810 1.379 . S
C816 C813 1.363 . S
C816 N814 1.356 . S
C817 C811 1.363 . S
C817 C812 1.379 . S
C817 N815 1.356 . S
N818 C810 1.356 . S
N818 H824 0.984 . S
N818 H825 0.984 . S
N819 C812 1.356 . S
N819 H822 0.984 . S
N819 H823 0.985 . S
H820 N815 0.984 . S
H821 N815 0.985 . S
H822 N819 0.984 . S
H823 N819 0.985 . S
H824 N818 0.984 . S
H825 N818 0.984 . S
H826 N814 0.984 . S
H827 N814 0.985 . S
C828 C829 1.363 . S
C828 C834 1.379 . S
C828 N836 1.356 . S
C829 C828 1.363 . S
C829 C835 1.363 . S
C830 C831 1.363 . S
C830 C835 1.379 . S
C830 N837 1.356 . S
C831 C830 1.363 . S
C831 C834 1.363 . S
N832 C834 1.356 . S
N832 H844 0.984 . S
N832 H845 0.985 . S
N833 C835 1.356 . S
N833 H838 0.984 . S
N833 H839 0.985 . S
C834 C828 1.379 . S
C834 C831 1.363 . S
C834 N832 1.356 . S
C835 C829 1.363 . S
C835 C830 1.379 . S
C835 N833 1.356 . S
N836 C828 1.356 . S
N836 H842 0.984 . S
N836 H843 0.984 . S
N837 C830 1.356 . S
N837 H840 0.984 . S
N837 H841 0.985 . S
H838 N833 0.984 . S
H839 N833 0.985 . S
H840 N837 0.984 . S
H841 N837 0.985 . S
H842 N836 0.984 . S
H843 N836 0.984 . S
H844 N832 0.984 . S
H845 N832 0.985 . S
C846 C847 1.363 . S
C846 C852 1.379 . S
C846 N854 1.356 . S
C847 C846 1.363 . S
C847 C853 1.363 . S
C848 C849 1.363 . S
C848 C853 1.379 . S
C848 N855 1.356 . S
C849 C848 1.363 . S
C849 C852 1.363 . S
N850 C852 1.356 . S
N850 H862 0.984 . S
N850 H863 0.985 . S
N851 C853 1.356 . S
N851 H856 0.984 . S
N851 H857 0.985 . S
C852 C846 1.379 . S
C852 C849 1.363 . S
C852 N850 1.356 . S
C853 C847 1.363 . S
C853 C848 1.379 . S
C853 N851 1.356 . S
N854 C846 1.356 . S
N854 H860 0.984 . S
N854 H861 0.984 . S
N855 C848 1.356 . S
N855 H858 0.984 . S
N855 H859 0.985 . S
H856 N851 0.984 . S
H857 N851 0.985 . S
H858 N855 0.984 . S
H859 N855 0.985 . S
H860 N854 0.984 . S
H861 N854 0.984 . S
H862 N850 0.984 . S
H863 N850 0.985 . S
C433 C14 1.453 . S
C435 C184 1.574 . S
C451 C40 1.336 . S
C453 C148 1.338 . S
C469 C194 1.387 . S
C471 C86 1.381 . S
C487 C112 1.454 . S
C489 C158 1.332 . S
C505 C255 1.412 . S
C507 C76 1.430 . S
C523 C218 1.614 . S
C525 C122 1.494 . S
C541 C4 1.403 . S
C543 C254 1.403 . S
C559 C219 1.489 . S
C561 C50 1.381 . S
C577 C327 1.462 . S
C579 C291 1.464 . S
C595 C290 1.389 . S
C597 C398 1.387 . S
C613 C326 1.443 . S
C615 C362 1.441 . S
C631 C363 1.544 . S
C633 C399 1.547 . S
C649 C410 1.453 . S
C651 C220 1.574 . S
C667 C292 1.336 . S
C669 C256 1.338 . S
C685 C230 1.387 . S
C687 C338 1.381 . S
C703 C266 1.332 . S
C705 C364 1.454 . S
C721 C147 1.412 . S
C723 C328 1.430 . S
C739 C182 1.614 . S
C741 C374 1.494 . S
C757 C400 1.403 . S
C759 C146 1.403 . S
C775 C302 1.381 . S
C777 C183 1.488 . S
C793 C39 1.464 . S
C795 C75 1.461 . S
C811 C2 1.387 . S
C813 C38 1.389 . S
C829 C74 1.443 . S
C831 C110 1.441 . S
C847 C3 1.547 . S
C849 C111 1.544 . S
