# Generated by pormake.
# Topology smu, (6)-cn, num edge types: 1
# Building blocks:
#     Node 0, Type 0, BuildingBlock: INOVEN_clean_sbu_0, # of connection points: 6
#     Node 1, Type 0, BuildingBlock: INOVEN_clean_sbu_0, # of connection points: 6
#     Node 2, Type 0, BuildingBlock: INOVEN_clean_sbu_0, # of connection points: 6
#     Node 3, Type 0, BuildingBlock: INOVEN_clean_sbu_0, # of connection points: 6
#     Node 4, Type 0, BuildingBlock: INOVEN_clean_sbu_0, # of connection points: 6
#     Node 5, Type 0, BuildingBlock: INOVEN_clean_sbu_0, # of connection points: 6
#     Edge 6, Type (0, 0), BuildingBlock: UVAHIK_clean_linker_0, # of connection points: 2
#     Edge 7, Type (0, 0), BuildingBlock: UVAHIK_clean_linker_0, # of connection points: 2
#     Edge 8, Type (0, 0), BuildingBlock: UVAHIK_clean_linker_0, # of connection points: 2
#     Edge 9, Type (0, 0), BuildingBlock: UVAHIK_clean_linker_0, # of connection points: 2
#     Edge 10, Type (0, 0), BuildingBlock: UVAHIK_clean_linker_0, # of connection points: 2
#     Edge 11, Type (0, 0), BuildingBlock: UVAHIK_clean_linker_0, # of connection points: 2
#     Edge 12, Type (0, 0), BuildingBlock: UVAHIK_clean_linker_0, # of connection points: 2
#     Edge 13, Type (0, 0), BuildingBlock: UVAHIK_clean_linker_0, # of connection points: 2
#     Edge 14, Type (0, 0), BuildingBlock: UVAHIK_clean_linker_0, # of connection points: 2
#     Edge 15, Type (0, 0), BuildingBlock: UVAHIK_clean_linker_0, # of connection points: 2
#     Edge 16, Type (0, 0), BuildingBlock: UVAHIK_clean_linker_0, # of connection points: 2
#     Edge 17, Type (0, 0), BuildingBlock: UVAHIK_clean_linker_0, # of connection points: 2
#     Edge 18, Type (0, 0), BuildingBlock: UVAHIK_clean_linker_0, # of connection points: 2
#     Edge 19, Type (0, 0), BuildingBlock: UVAHIK_clean_linker_0, # of connection points: 2
#     Edge 20, Type (0, 0), BuildingBlock: UVAHIK_clean_linker_0, # of connection points: 2
#     Edge 21, Type (0, 0), BuildingBlock: UVAHIK_clean_linker_0, # of connection points: 2
#     Edge 22, Type (0, 0), BuildingBlock: UVAHIK_clean_linker_0, # of connection points: 2
#     Edge 23, Type (0, 0), BuildingBlock: UVAHIK_clean_linker_0, # of connection points: 2
# Relax obj value: 0.208
# Max RMSD: 0.301
# Mean RMSD: 0.301
data_MOF--net-smu--node1-INOVEN_clean_sbu_0--edge1-UVAHIK_clean_linker_0
_symmetry_space_group_name_H-M    P1
_symmetry_Int_Tables_number       1
_symmetry_cell_setting            triclinic
loop_
_symmetry_equiv_pos_as_xyz
'x, y, z'
_cell_length_a     47.937166
_cell_length_b     47.979907
_cell_length_c     35.608187
_cell_angle_alpha  90.049418
_cell_angle_beta   90.254014
_cell_angle_gamma 119.98996
loop_
_atom_site_label
_atom_site_type_symbol
_atom_site_fract_x
_atom_site_fract_y
_atom_site_fract_z
_atom_type_partial_charge
Gd0 Gd 0.37107 0.07984 0.26336 0.0
Gd1 Gd 0.32587 0.1042 0.27455 0.0
C2 C 0.40159 0.15681 0.27542 0.0
C3 C 0.41688 0.06768 0.24708 0.0
C4 C 0.45248 0.08426 0.24367 0.0
C5 C 0.46843 0.06836 0.25679 0.0
C6 C 0.47095 0.11593 0.23037 0.0
C7 C 0.52097 0.11532 0.24358 0.0
C8 C 0.50485 0.13127 0.23023 0.0
C9 C 0.50208 0.08362 0.25688 0.0
C10 C 0.34734 0.06929 0.33418 0.0
C11 C 0.29573 0.02928 0.26702 0.0
C12 C 0.29343 0.13233 0.29256 0.0
C13 C 0.26591 0.13739 0.28368 0.0
C14 C 0.26559 0.15351 0.25078 0.0
C15 C 0.24227 0.13064 0.31092 0.0
C16 C 0.22039 0.15849 0.27415 0.0
C17 C 0.21971 0.14087 0.30616 0.0
C18 C 0.24318 0.16392 0.24611 0.0
C19 C 0.32601 0.08489 0.20227 0.0
O20 O 0.40755 0.13335 0.26783 0.0
O21 O 0.37205 0.15075 0.28105 0.0
O22 O 0.40623 0.06674 0.2809 0.0
O23 O 0.40002 0.07247 0.22152 0.0
O24 O 0.35163 0.04934 0.31406 0.0
O25 O 0.35593 0.09527 0.31593 0.0
O26 O 0.2939 0.05187 0.28618 0.0
O27 O 0.32255 0.0356 0.24904 0.0
O28 O 0.3175 0.1441 0.26906 0.0
O29 O 0.28807 0.10525 0.30787 0.0
O30 O 0.30119 0.08249 0.21934 0.0
O31 O 0.3506 0.09994 0.22324 0.0
H32 H 0.45477 0.04414 0.26776 0.0
H33 H 0.45926 0.1289 0.22047 0.0
H34 H 0.51837 0.15556 0.21951 0.0
H35 H 0.51325 0.07064 0.26831 0.0
H36 H 0.28359 0.15944 0.22927 0.0
H37 H 0.24203 0.11853 0.33669 0.0
H38 H 0.20218 0.13557 0.32806 0.0
H39 H 0.24484 0.17761 0.22124 0.0
Gd40 Gd 0.73297 0.6545 0.26618 0.0
Gd41 Gd 0.8049 0.7081 0.28076 0.0
C42 C 0.7898 0.63508 0.27029 0.0
C43 C 0.68113 0.6052 0.23965 0.0
C44 C 0.66252 0.56949 0.24507 0.0
C45 C 0.64271 0.55562 0.2766 0.0
C46 C 0.66327 0.54874 0.21762 0.0
C47 C 0.62463 0.50122 0.25283 0.0
C48 C 0.64472 0.51515 0.22149 0.0
C49 C 0.62412 0.52205 0.28043 0.0
C50 C 0.74539 0.67382 0.33872 0.0
C51 C 0.75125 0.72764 0.27409 0.0
C52 C 0.8599 0.74784 0.31153 0.0
C53 C 0.89448 0.76667 0.30206 0.0
C54 C 0.90801 0.75687 0.27365 0.0
C55 C 0.91452 0.79454 0.32278 0.0
C56 C 0.9616 0.80209 0.28803 0.0
C57 C 0.94764 0.81206 0.31587 0.0
C58 C 0.94125 0.77443 0.26668 0.0
C59 C 0.78907 0.70677 0.20577 0.0
O60 O 0.75858 0.62544 0.27148 0.0
O61 O 0.81211 0.66588 0.27103 0.0
O62 O 0.68102 0.62342 0.26699 0.0
O63 O 0.70929 0.61736 0.22343 0.0
O64 O 0.71744 0.66185 0.32253 0.0
O65 O 0.76527 0.6715 0.31693 0.0
O66 O 0.77517 0.73054 0.29541 0.0
O67 O 0.7338 0.70147 0.25314 0.0
O68 O 0.84696 0.71651 0.31269 0.0
O69 O 0.84092 0.75699 0.29623 0.0
O70 O 0.81734 0.72617 0.21984 0.0
O71 O 0.77259 0.68896 0.23226 0.0
H72 H 0.64133 0.57067 0.29834 0.0
H73 H 0.67793 0.55851 0.19278 0.0
H74 H 0.64556 0.5001 0.19935 0.0
H75 H 0.6094 0.51243 0.30524 0.0
H76 H 0.89297 0.73543 0.25724 0.0
H77 H 0.90456 0.80261 0.3447 0.0
H78 H 0.96233 0.83353 0.33238 0.0
H79 H 0.95111 0.76588 0.24521 0.0
Gd80 Gd 0.94184 0.29166 0.2614 0.0
Gd81 Gd 0.92264 0.22392 0.28 0.0
C82 C 0.86618 0.24119 0.27132 0.0
C83 C 0.94767 0.3447 0.23342 0.0
C84 C 0.93229 0.36495 0.23617 0.0
C85 C 0.90567 0.35665 0.25946 0.0
C86 C 0.94531 0.39382 0.21596 0.0
C87 C 0.90589 0.4064 0.24276 0.0
C88 C 0.93234 0.41425 0.21917 0.0
C89 C 0.89255 0.37708 0.26262 0.0
C90 C 0.95287 0.28518 0.33472 0.0
C91 C 0.99604 0.27277 0.27124 0.0
C92 C 0.89922 0.16643 0.30832 0.0
C93 C 0.88868 0.13245 0.29868 0.0
C94 C 0.86804 0.11666 0.26806 0.0
C95 C 0.89684 0.11455 0.32289 0.0
C96 C 0.86224 0.06518 0.28772 0.0
C97 C 0.88388 0.0814 0.31748 0.0
C98 C 0.85503 0.08342 0.26261 0.0
C99 C 0.94074 0.23835 0.20683 0.0
O100 O 0.88867 0.27188 0.27281 0.0
O101 O 0.87394 0.21849 0.27041 0.0
O102 O 0.96317 0.34368 0.26306 0.0
O103 O 0.93124 0.31658 0.21726 0.0
O104 O 0.97051 0.30993 0.31402 0.0
O105 O 0.92818 0.26447 0.31634 0.0
O106 O 0.9751 0.25089 0.29427 0.0
O107 O 0.9872 0.28915 0.24879 0.0
O108 O 0.88171 0.17822 0.29568 0.0
O109 O 0.92997 0.18747 0.30794 0.0
O110 O 0.94366 0.21716 0.22622 0.0
O111 O 0.92513 0.24825 0.2258 0.0
H112 H 0.89527 0.33459 0.27554 0.0
H113 H 0.96581 0.40077 0.19779 0.0
H114 H 0.94302 0.43619 0.20287 0.0
H115 H 0.8724 0.37021 0.28132 0.0
H116 H 0.86119 0.12978 0.24895 0.0
H117 H 0.9126 0.12607 0.34674 0.0
H118 H 0.89056 0.06839 0.33697 0.0
H119 H 0.83836 0.07184 0.23952 0.0
Gd120 Gd 0.11046 0.31904 0.78006 0.0
Gd121 Gd 0.08731 0.36536 0.76399 0.0
C122 C 0.03553 0.29076 0.77214 0.0
C123 C 0.13819 0.2875 0.80307 0.0
C124 C 0.14232 0.25914 0.79869 0.0
C125 C 0.13975 0.24472 0.76351 0.0
C126 C 0.15385 0.24957 0.82942 0.0
C127 C 0.16268 0.21331 0.7895 0.0
C128 C 0.16395 0.22701 0.82493 0.0
C129 C 0.14974 0.22196 0.75899 0.0
C130 C 0.09057 0.31632 0.70768 0.0
C131 C 0.16382 0.39485 0.77773 0.0
C132 C 0.07867 0.4118 0.74019 0.0
C133 C 0.09804 0.44752 0.73864 0.0
C134 C 0.11996 0.46536 0.76746 0.0
C135 C 0.09305 0.46421 0.70948 0.0
C136 C 0.12998 0.51602 0.73916 0.0
C137 C 0.10887 0.49799 0.70963 0.0
C138 C 0.13562 0.4991 0.76779 0.0
C139 C 0.0776 0.34518 0.83612 0.0
O140 O 0.05789 0.28898 0.79211 0.0
O141 O 0.04237 0.31686 0.7522 0.0
O142 O 0.14898 0.30847 0.77581 0.0
O143 O 0.1119 0.28417 0.81848 0.0
O144 O 0.08754 0.29189 0.72645 0.0
O145 O 0.10625 0.34168 0.72718 0.0
O146 O 0.14043 0.40127 0.77186 0.0
O147 O 0.15772 0.36512 0.78197 0.0
O148 O 0.07091 0.39931 0.77366 0.0
O149 O 0.08678 0.39532 0.71798 0.0
O150 O 0.05817 0.35052 0.8161 0.0
O151 O 0.10299 0.35198 0.8176 0.0
H152 H 0.13111 0.25189 0.73929 0.0
H153 H 0.15653 0.26074 0.85667 0.0
H154 H 0.17416 0.22149 0.84902 0.0
H155 H 0.14787 0.21159 0.73143 0.0
H156 H 0.12437 0.45318 0.79036 0.0
H157 H 0.07637 0.45108 0.68688 0.0
H158 H 0.10432 0.50992 0.6866 0.0
H159 H 0.15132 0.5118 0.79126 0.0
Gd160 Gd 0.22801 0.91011 0.77653 0.0
Gd161 Gd 0.29876 0.93611 0.7655 0.0
C162 C 0.27091 0.98549 0.77478 0.0
C163 C 0.16754 0.87828 0.79458 0.0
C164 C 0.13453 0.87269 0.7892 0.0
C165 C 0.12298 0.87589 0.75405 0.0
C166 C 0.11308 0.86039 0.81935 0.0
C167 C 0.06846 0.85313 0.77924 0.0
C168 C 0.08051 0.85066 0.81449 0.0
C169 C 0.09027 0.86627 0.74915 0.0
C170 C 0.24777 0.93093 0.70549 0.0
C171 C 0.25443 0.86066 0.77344 0.0
C172 C 0.3582 0.95668 0.74629 0.0
C173 C 0.38013 0.9428 0.748 0.0
C174 C 0.39724 0.94456 0.78103 0.0
C175 C 0.38428 0.92762 0.71637 0.0
C176 C 0.42151 0.91581 0.75093 0.0
C177 C 0.40454 0.91429 0.71782 0.0
C178 C 0.41753 0.93124 0.78249 0.0
C179 C 0.28029 0.92563 0.83972 0.0
O180 O 0.24477 0.96135 0.78955 0.0
O181 O 0.29369 0.98115 0.75905 0.0
O182 O 0.18005 0.87013 0.76707 0.0
O183 O 0.18871 0.90406 0.81271 0.0
O184 O 0.22453 0.93208 0.7224 0.0
O185 O 0.2577 0.91575 0.72566 0.0
O186 O 0.28008 0.88309 0.75617 0.0
O187 O 0.23492 0.8682 0.79076 0.0
O188 O 0.35007 0.96431 0.77804 0.0
O189 O 0.33401 0.94341 0.72266 0.0
O190 O 0.30105 0.91925 0.8246 0.0
O191 O 0.26998 0.93643 0.81434 0.0
H192 H 0.13906 0.88517 0.73026 0.0
H193 H 0.12134 0.85724 0.84657 0.0
H194 H 0.0646 0.84016 0.83822 0.0
H195 H 0.08207 0.86898 0.72174 0.0
H196 H 0.39502 0.95628 0.80592 0.0
H197 H 0.37169 0.92588 0.69036 0.0
H198 H 0.40651 0.90235 0.693 0.0
H199 H 0.43049 0.9335 0.80833 0.0
Gd200 Gd 0.71404 0.8017 0.78142 0.0
Gd201 Gd 0.65924 0.73035 0.76488 0.0
C202 C 0.73196 0.74725 0.77391 0.0
C203 C 0.75411 0.85577 0.81348 0.0
C204 C 0.77263 0.89046 0.80471 0.0
C205 C 0.76215 0.90429 0.77732 0.0
C206 C 0.8009 0.91024 0.82497 0.0
C207 C 0.80758 0.95766 0.79174 0.0
C208 C 0.81821 0.94342 0.81856 0.0
C209 C 0.77947 0.93759 0.77088 0.0
C210 C 0.71288 0.78656 0.70618 0.0
C211 C 0.64166 0.7885 0.76969 0.0
C212 C 0.6102 0.67937 0.73665 0.0
C213 C 0.57466 0.66004 0.74262 0.0
C214 C 0.56158 0.63995 0.7741 0.0
C215 C 0.5533 0.66057 0.71577 0.0
C216 C 0.50669 0.62116 0.75147 0.0
C217 C 0.51982 0.64151 0.72019 0.0
C218 C 0.52812 0.62083 0.77846 0.0
C219 C 0.67743 0.74131 0.83802 0.0
O220 O 0.73468 0.77046 0.79624 0.0
O221 O 0.70611 0.73087 0.75206 0.0
O222 O 0.72276 0.84274 0.81534 0.0
O223 O 0.76313 0.83723 0.79687 0.0
O224 O 0.73299 0.8144 0.72069 0.0
O225 O 0.69449 0.77042 0.73239 0.0
O226 O 0.63118 0.75708 0.77001 0.0
O227 O 0.67267 0.81021 0.77129 0.0
O228 O 0.62901 0.6784 0.76278 0.0
O229 O 0.62158 0.70819 0.72238 0.0
O230 O 0.66467 0.71347 0.82155 0.0
O231 O 0.67623 0.76176 0.8161 0.0
H232 H 0.74038 0.88944 0.76128 0.0
H233 H 0.80949 0.90002 0.84609 0.0
H234 H 0.84003 0.95793 0.83465 0.0
H235 H 0.77042 0.94768 0.7502 0.0
H236 H 0.57716 0.63878 0.79539 0.0
H237 H 0.56251 0.67549 0.69101 0.0
H238 H 0.50423 0.64219 0.69855 0.0
H239 H 0.51904 0.60586 0.80318 0.0
C240 C 0.30989 0.94237 0.90205 0.0
C241 C 0.28332 0.93685 0.87958 0.0
C242 C 0.31512 0.95731 0.93748 0.0
C243 C 0.27467 0.97486 1.01498 0.0
H244 H 0.35951 0.04633 0.0385 0.0
C245 C 0.29406 0.05463 0.14558 0.0
C246 C 0.32376 0.06958 0.1648 0.0
C247 C 0.29013 0.03849 0.11142 0.0
C248 C 0.33575 0.02611 0.03296 0.0
H249 H 0.24102 0.94207 0.87753 0.0
H250 H 0.24947 0.967 0.93973 0.0
H251 H 0.35033 0.01702 0.97942 0.0
H252 H 0.373 0.07973 0.16212 0.0
H253 H 0.36605 0.05036 0.10328 0.0
H254 H 0.26003 0.9829 0.06858 0.0
C255 C 0.26646 0.96003 0.92984 0.0
C256 C 0.33046 1.00931 0.99877 0.0
C257 C 0.26155 0.94566 0.89415 0.0
C258 C 0.34971 0.06826 0.14841 0.0
C259 C 0.34567 0.05157 0.11427 0.0
C260 C 0.28004 0.99123 0.04937 0.0
C261 C 0.29363 0.96662 0.95181 0.0
C262 C 0.29974 0.98366 0.98906 0.0
C263 C 0.31564 0.03609 0.09523 0.0
C264 C 0.31056 0.01756 0.0589 0.0
H265 H 0.32734 0.93621 0.89171 0.0
H266 H 0.33613 0.96168 0.95365 0.0
H267 H 0.25082 0.95495 1.00885 0.0
H268 H 0.27349 0.05528 0.15704 0.0
H269 H 0.26687 0.02807 0.09766 0.0
C270 C 0.74219 0.79479 0.64503 0.0
C271 C 0.71652 0.77455 0.66869 0.0
C272 C 0.74709 0.78359 0.61055 0.0
C273 C 0.70528 0.71909 0.53824 0.0
H274 H 0.79182 0.74573 0.50444 0.0
C275 C 0.7242 0.66333 0.40394 0.0
C276 C 0.74939 0.68275 0.37938 0.0
C277 C 0.7225 0.67396 0.44008 0.0
C278 C 0.76746 0.73825 0.51308 0.0
H279 H 0.67589 0.72639 0.67433 0.0
H280 H 0.68412 0.70679 0.61411 0.0
H281 H 0.78373 0.76504 0.56471 0.0
H282 H 0.79308 0.72874 0.37414 0.0
H283 H 0.79012 0.74778 0.43737 0.0
H284 H 0.68886 0.69285 0.48664 0.0
C285 C 0.70047 0.73155 0.62205 0.0
C286 C 0.76278 0.74937 0.54789 0.0
C287 C 0.6957 0.74275 0.65673 0.0
C288 C 0.77374 0.71285 0.39261 0.0
C289 C 0.77183 0.72381 0.42892 0.0
C290 C 0.70994 0.70816 0.50347 0.0
C291 C 0.72636 0.75176 0.59838 0.0
C292 C 0.73156 0.73987 0.56117 0.0
C293 C 0.74558 0.70486 0.45291 0.0
C294 C 0.74109 0.71728 0.49024 0.0
H295 H 0.75879 0.81941 0.65332 0.0
H296 H 0.767 0.80013 0.59318 0.0
H297 H 0.6809 0.71167 0.54681 0.0
H298 H 0.70492 0.64009 0.39461 0.0
H299 H 0.70246 0.65802 0.45766 0.0
C300 C 0.95242 0.27346 0.14915 0.0
C301 C 0.95561 0.24994 0.16911 0.0
C302 C 0.96755 0.28457 0.11417 0.0
C303 C 0.0329 0.28774 0.05302 0.0
H304 H 0.98845 0.30646 0.97474 0.0
C305 C 0.07827 0.31695 0.89638 0.0
C306 C 0.07197 0.33882 0.87717 0.0
C307 C 0.06638 0.30685 0.93312 0.0
C308 C 1.00157 0.30182 0.99632 0.0
H309 H 0.97731 0.21971 0.16771 0.0
H310 H 1.0031 0.23855 0.10697 0.0
H311 H 0.96312 0.28797 0.03554 0.0
H312 H 0.04999 0.36861 0.88231 0.0
H313 H 0.03067 0.35228 0.94577 0.0
H314 H 0.07136 0.30156 1.01344 0.0
C315 C 0.98937 0.2489 0.11832 0.0
C316 C 0.98691 0.29115 0.03145 0.0
C317 C 0.97423 0.23781 0.15314 0.0
C318 C 0.05514 0.35156 0.89615 0.0
C319 C 0.04365 0.34184 0.93258 0.0
C320 C 0.04764 0.29848 1.01776 0.0
C321 C 0.98634 0.2725 0.09816 0.0
C322 C 1.00232 0.28405 0.06053 0.0
C323 C 0.04805 0.31853 0.95134 0.0
C324 C 0.03232 0.30598 0.98889 0.0
H325 H 0.93834 0.28336 0.16059 0.0
H326 H 0.96485 0.30301 0.09992 0.0
H327 H 0.04583 0.28288 0.07465 0.0
H328 H 0.09075 0.30635 0.88237 0.0
H329 H 0.07032 0.28886 0.94651 0.0
C330 C 0.32243 0.07162 0.3964 0.0
C331 C 0.34273 0.06419 0.37559 0.0
C332 C 0.31406 0.06056 0.43373 0.0
C333 C 0.33718 0.02507 0.51457 0.0
H334 H 0.24787 0.98846 0.54323 0.0
C335 C 0.28433 0.94432 0.64836 0.0
C336 C 0.26071 0.94712 0.66857 0.0
C337 C 0.29551 0.96012 0.61356 0.0
C338 C 0.27305 0.99889 0.53608 0.0
H339 H 0.371 0.04037 0.3783 0.0
H340 H 0.35699 0.02177 0.44232 0.0
H341 H 0.26581 0.01556 0.48297 0.0
H342 H 0.23097 0.96944 0.66814 0.0
H343 H 0.25042 0.99685 0.60871 0.0
H344 H 0.34439 1.00819 0.56755 0.0
C345 C 0.34745 0.03611 0.43052 0.0
C346 C 0.28339 0.01462 0.50132 0.0
C347 C 0.35544 0.04676 0.39348 0.0
C348 C 0.2489 0.96631 0.65329 0.0
C349 C 0.25999 0.98201 0.61883 0.0
C350 C 0.32686 1.00936 0.54935 0.0
C351 C 0.32612 0.04218 0.45118 0.0
C352 C 0.31559 0.02777 0.48978 0.0
C353 C 0.28333 0.97911 0.5981 0.0
C354 C 0.29456 0.99583 0.5607 0.0
H355 H 0.31184 0.08455 0.38331 0.0
H356 H 0.29775 0.06601 0.44873 0.0
H357 H 0.36229 0.03522 0.50717 0.0
H358 H 0.29394 0.92973 0.6592 0.0
H359 H 0.31331 0.95697 0.59849 0.0
C360 C 0.71589 0.77061 0.89229 0.0
C361 C 0.68672 0.74498 0.87861 0.0
C362 C 0.72707 0.76935 0.92876 0.0
C363 C 0.70063 0.72646 0.02134 0.0
H364 H 0.78937 0.74709 0.03184 0.0
C365 C 0.74541 0.69065 0.15603 0.0
C366 C 0.77734 0.71075 0.16818 0.0
C367 C 0.73457 0.69603 0.12134 0.0
C368 C 0.7646 0.74162 0.02989 0.0
H369 H 0.6461 0.69859 0.89301 0.0
H370 H 0.66474 0.69689 0.95611 0.0
H371 H 0.77049 0.75684 0.97226 0.0
H372 H 0.82274 0.75251 0.15323 0.0
H373 H 0.80398 0.76235 0.09381 0.0
H374 H 0.69461 0.71146 0.07884 0.0
C375 C 0.67923 0.71797 0.93914 0.0
C376 C 0.75375 0.74729 0.99543 0.0
C377 C 0.66847 0.71896 0.90277 0.0
C378 C 0.79807 0.73629 0.14468 0.0
C379 C 0.78724 0.74184 0.11026 0.0
C380 C 0.71152 0.72105 0.05588 0.0
C381 C 0.70904 0.74272 0.95258 0.0
C382 C 0.72148 0.73947 0.99041 0.0
C383 C 0.75525 0.72189 0.09782 0.0
C384 C 0.74366 0.72821 0.0608 0.0
H385 H 0.73086 0.79069 0.87419 0.0
H386 H 0.75007 0.789 0.9381 0.0
H387 H 0.67571 0.72044 1.01892 0.0
H388 H 0.72873 0.67083 0.17342 0.0
H389 H 0.70993 0.67966 0.11293 0.0
C390 C 0.9514 0.25719 0.39632 0.0
C391 C 0.96022 0.2853 0.37556 0.0
C392 C 0.96344 0.25922 0.4332 0.0
C393 C 0.03171 0.31721 0.49509 0.0
H394 H 0.98298 0.25977 0.57597 0.0
C395 C 0.08072 0.3402 0.64886 0.0
C396 C 0.07511 0.31327 0.67019 0.0
C397 C 0.0657 0.33631 0.61358 0.0
C398 C 0.99712 0.27591 0.55365 0.0
H399 H 0.98715 0.33743 0.37816 0.0
H400 H 1.0069 0.3409 0.44158 0.0
H401 H 0.95813 0.25266 0.51393 0.0
H402 H 0.04897 0.26111 0.67114 0.0
H403 H 0.02324 0.25437 0.61011 0.0
H404 H 0.07066 0.34046 0.5345 0.0
C405 C 0.99173 0.31723 0.42956 0.0
C406 C 0.98279 0.27175 0.51791 0.0
C407 C 0.98003 0.31521 0.39306 0.0
C408 C 0.05398 0.28246 0.65548 0.0
C409 C 0.0389 0.27855 0.62047 0.0
C410 C 0.04596 0.3214 0.5307 0.0
C411 C 0.98447 0.28939 0.45002 0.0
C412 C 0.99977 0.29252 0.48807 0.0
C413 C 0.04454 0.30537 0.59877 0.0
C414 C 0.02893 0.30094 0.5607 0.0
H415 H 0.93646 0.23378 0.38355 0.0
H416 H 0.95724 0.23717 0.44795 0.0
H417 H 0.04604 0.33331 0.47282 0.0
H418 H 0.09687 0.36425 0.65926 0.0
H419 H 0.07049 0.35763 0.59806 0.0
C420 C 0.57665 0.16443 0.2526 0.0
C421 C 0.55714 0.13136 0.24442 0.0
C422 C 0.61033 0.17861 0.25572 0.0
C423 C 0.67304 0.15723 0.27642 0.0
H424 H 0.73291 0.23931 0.23178 0.0
C425 C 0.80795 0.19845 0.26604 0.0
C426 C 0.83121 0.23124 0.26992 0.0
C427 C 0.7751 0.18835 0.26399 0.0
C428 C 0.7166 0.21659 0.24495 0.0
H429 H 0.5587 0.08799 0.23105 0.0
H430 H 0.61676 0.1124 0.23731 0.0
H431 H 0.67482 0.21819 0.22569 0.0
H432 H 0.83765 0.27915 0.27456 0.0
H433 H 0.78001 0.26142 0.2717 0.0
H434 H 0.71432 0.15552 0.29616 0.0
C435 C 0.606 0.1273 0.24192 0.0
C436 C 0.68322 0.20443 0.24134 0.0
C437 C 0.57253 0.11324 0.23844 0.0
C438 C 0.8205 0.25371 0.27166 0.0
C439 C 0.78738 0.24351 0.26976 0.0
C440 C 0.70624 0.16944 0.28031 0.0
C441 C 0.62539 0.16007 0.25107 0.0
C442 C 0.66099 0.17429 0.25649 0.0
C443 C 0.76414 0.21059 0.26603 0.0
C444 C 0.72864 0.19904 0.26406 0.0
H445 H 0.56589 0.17924 0.25776 0.0
H446 H 0.62448 0.20389 0.26293 0.0
H447 H 0.65672 0.1343 0.28921 0.0
H448 H 0.81504 0.18031 0.26422 0.0
H449 H 0.75829 0.16291 0.26022 0.0
C450 C 0.61487 0.44435 0.24481 0.0
C451 C 0.60385 0.46527 0.2564 0.0
C452 C 0.59528 0.41078 0.24813 0.0
C453 C 0.52242 0.34785 0.29809 0.0
H454 H 0.52104 0.29095 0.21982 0.0
C455 C 0.42113 0.21517 0.28864 0.0
C456 C 0.42801 0.19127 0.27665 0.0
C457 C 0.44457 0.24782 0.28773 0.0
C458 C 0.52142 0.30639 0.24225 0.0
H459 H 0.5628 0.46653 0.27982 0.0
H460 H 0.52892 0.40849 0.28557 0.0
H461 H 0.55752 0.34897 0.21476 0.0
H462 H 0.46567 0.18353 0.25459 0.0
H463 H 0.50691 0.24083 0.25318 0.0
H464 H 0.48623 0.30548 0.32545 0.0
C465 C 0.55301 0.41797 0.27459 0.0
C466 C 0.5424 0.33981 0.23933 0.0
C467 C 0.57255 0.45146 0.27127 0.0
C468 C 0.45944 0.20115 0.26416 0.0
C469 C 0.48303 0.23408 0.26307 0.0
C470 C 0.50153 0.31455 0.301 0.0
C471 C 0.56403 0.39703 0.26318 0.0
C472 C 0.5429 0.36113 0.26697 0.0
C473 C 0.47587 0.25794 0.27475 0.0
C474 C 0.50028 0.29327 0.27287 0.0
H475 H 0.63892 0.45392 0.23366 0.0
H476 H 0.6049 0.39564 0.23944 0.0
H477 H 0.52254 0.36321 0.32046 0.0
H478 H 0.3973 0.20878 0.29838 0.0
H479 H 0.43778 0.26525 0.29638 0.0
C480 C 0.85945 0.41744 0.24979 0.0
C481 C 0.89278 0.42899 0.24678 0.0
C482 C 0.84742 0.43879 0.25256 0.0
C483 C 0.87063 0.52473 0.23474 0.0
H484 H 0.79707 0.50501 0.29724 0.0
C485 C 0.83344 0.62026 0.26659 0.0
C486 C 0.80044 0.61053 0.26815 0.0
C487 C 0.84372 0.59759 0.26403 0.0
C488 C 0.81742 0.51082 0.27928 0.0
H489 H 0.93947 0.47257 0.24586 0.0
H490 H 0.91871 0.50945 0.25082 0.0
H491 H 0.81662 0.46687 0.29302 0.0
H492 H 0.75245 0.56872 0.26835 0.0
H493 H 0.77038 0.52923 0.26373 0.0
H494 H 0.87156 0.56866 0.22106 0.0
C495 C 0.90165 0.48387 0.25008 0.0
C496 C 0.82868 0.48883 0.27683 0.0
C497 C 0.91364 0.46258 0.24725 0.0
C498 C 0.77805 0.57727 0.26731 0.0
C499 C 0.78838 0.55453 0.26484 0.0
C500 C 0.85942 0.54669 0.23723 0.0
C501 C 0.86831 0.47241 0.25251 0.0
C502 C 0.85564 0.4955 0.25469 0.0
C503 C 0.82142 0.56433 0.26296 0.0
C504 C 0.83275 0.54024 0.25972 0.0
H505 H 0.84251 0.39183 0.24915 0.0
H506 H 0.8216 0.42886 0.25394 0.0
H507 H 0.89095 0.53062 0.21669 0.0
H508 H 0.85154 0.64555 0.26731 0.0
H509 H 0.86935 0.60626 0.26332 0.0
C510 C 0.17606 0.57166 0.75622 0.0
C511 C 0.14504 0.55207 0.74089 0.0
C512 C 0.18939 0.60515 0.75928 0.0
C513 C 0.16564 0.66853 0.75982 0.0
H514 H 0.25734 0.72695 0.74917 0.0
C515 C 0.22112 0.80343 0.79506 0.0
C516 C 0.24597 0.82618 0.77226 0.0
C517 C 0.21063 0.77054 0.79185 0.0
C518 C 0.23163 0.71108 0.75194 0.0
H519 H 0.104 0.55322 0.71661 0.0
H520 H 0.12755 0.61119 0.72053 0.0
H521 H 0.23552 0.66924 0.74062 0.0
H522 H 0.27979 0.83188 0.72865 0.0
H523 H 0.26116 0.77439 0.72251 0.0
H524 H 0.16146 0.7102 0.76992 0.0
C525 C 0.14146 0.60068 0.73099 0.0
C526 C 0.2191 0.67778 0.7475 0.0
C527 C 0.12807 0.56723 0.72815 0.0
C528 C 0.2607 0.81511 0.74681 0.0
C529 C 0.25 0.78204 0.74337 0.0
C530 C 0.17811 0.70172 0.76407 0.0
C531 C 0.17222 0.62022 0.74696 0.0
C532 C 0.18586 0.65592 0.7514 0.0
C533 C 0.2244 0.75916 0.76543 0.0
C534 C 0.21133 0.72361 0.76041 0.0
H535 H 0.19022 0.56118 0.76592 0.0
H536 H 0.21298 0.61912 0.77206 0.0
H537 H 0.14003 0.65271 0.76364 0.0
H538 H 0.20933 0.81095 0.81525 0.0
H539 H 0.1915 0.754 0.81011 0.0
C540 C 0.44585 0.88643 0.78519 0.0
C541 C 0.4433 0.90155 0.75245 0.0
C542 C 0.4663 0.87329 0.78663 0.0
C543 C 0.53743 0.87684 0.73891 0.0
H544 H 0.51306 0.79876 0.79484 0.0
C545 C 0.62873 0.83347 0.76842 0.0
C546 C 0.61794 0.80023 0.76777 0.0
C547 C 0.60694 0.8449 0.76633 0.0
C548 C 0.52023 0.82044 0.77879 0.0
H549 H 0.46102 0.9146 0.69553 0.0
H550 H 0.49589 0.89126 0.69776 0.0
H551 H 0.47612 0.8198 0.79104 0.0
H552 H 0.57518 0.75304 0.76442 0.0
H553 H 0.5372 0.77297 0.76045 0.0
H554 H 0.58123 0.87723 0.72605 0.0
C555 C 0.48233 0.88983 0.72262 0.0
C556 C 0.49911 0.83281 0.777 0.0
C557 C 0.46188 0.90294 0.72117 0.0
C558 C 0.58452 0.77877 0.76511 0.0
C559 C 0.56265 0.79026 0.76302 0.0
C560 C 0.55852 0.86452 0.74074 0.0
C561 C 0.48499 0.87484 0.7554 0.0
C562 C 0.50737 0.86128 0.75709 0.0
C563 C 0.57352 0.82356 0.76344 0.0
C564 C 0.5504 0.83618 0.76084 0.0
H565 H 0.43176 0.88442 0.80978 0.0
H566 H 0.46778 0.86232 0.81255 0.0
H567 H 0.54501 0.89896 0.72362 0.0
H568 H 0.65417 0.8509 0.77064 0.0
H569 H 0.61642 0.87064 0.76746 0.0
C570 C 0.20761 0.45295 0.76816 0.0
C571 C 0.19824 0.42118 0.77871 0.0
C572 C 0.24042 0.47674 0.76691 0.0
C573 C 0.32158 0.495 0.80161 0.0
H574 H 0.35402 0.55309 0.71687 0.0
C575 C 0.45786 0.56838 0.7695 0.0
C576 C 0.47093 0.59991 0.75563 0.0
C577 C 0.42448 0.54837 0.77332 0.0
C578 C 0.3454 0.53738 0.74103 0.0
H579 H 0.21642 0.39 0.79686 0.0
H580 H 0.27284 0.43098 0.79465 0.0
H581 H 0.29619 0.51587 0.72258 0.0
H582 H 0.45858 0.63499 0.73526 0.0
H583 H 0.40046 0.60017 0.74203 0.0
H584 H 0.37059 0.51622 0.82005 0.0
C585 C 0.25506 0.43779 0.7876 0.0
C586 C 0.31212 0.51599 0.74432 0.0
C587 C 0.22249 0.41411 0.78864 0.0
C588 C 0.4495 0.61076 0.74559 0.0
C589 C 0.41606 0.59072 0.74948 0.0
C590 C 0.35475 0.51636 0.79837 0.0
C591 C 0.26463 0.46943 0.77652 0.0
C592 C 0.29976 0.49414 0.77438 0.0
C593 C 0.40301 0.55921 0.76349 0.0
C594 C 0.36729 0.53759 0.76776 0.0
H595 H 0.18967 0.45932 0.76025 0.0
H596 H 0.24681 0.5009 0.75853 0.0
H597 H 0.31302 0.47906 0.82559 0.0
H598 H 0.4734 0.55884 0.77683 0.0
H599 H 0.41551 0.5241 0.78345 0.0
C600 C 0.18665 0.17559 0.23605 0.0
C601 C 0.19887 0.17279 0.27103 0.0
C602 C 0.16793 0.19052 0.23312 0.0
C603 C 0.14738 0.24548 0.2857 0.0
H604 H 0.07492 0.21243 0.2167 0.0
C605 C 0.04199 0.27037 0.30035 0.0
C606 C 0.02759 0.27438 0.26792 0.0
C607 C 0.06703 0.26351 0.29769 0.0
C608 C 0.09541 0.22233 0.23566 0.0
H609 H 0.20066 0.18389 0.33041 0.0
H610 H 0.1672 0.2085 0.32557 0.0
H611 H 0.1089 0.18791 0.21848 0.0
H612 H 0.0289 0.2755 0.20719 0.0
H613 H 0.07271 0.2631 0.20236 0.0
H614 H 0.13306 0.27911 0.30379 0.0
C615 C 0.17259 0.19978 0.30012 0.0
C616 C 0.11495 0.20823 0.23675 0.0
C617 C 0.19141 0.18504 0.30302 0.0
C618 C 0.03989 0.27301 0.23265 0.0
C619 C 0.06466 0.2655 0.22992 0.0
C620 C 0.12769 0.25937 0.28482 0.0
C621 C 0.16076 0.20304 0.2651 0.0
C622 C 0.14095 0.21925 0.26222 0.0
C623 C 0.07797 0.25987 0.26246 0.0
C624 C 0.10117 0.24769 0.26019 0.0
H625 H 0.19148 0.1662 0.21078 0.0
H626 H 0.15954 0.19269 0.20559 0.0
H627 H 0.1676 0.25529 0.30502 0.0
H628 H 0.03274 0.27094 0.32789 0.0
H629 H 0.07647 0.25911 0.32331 0.0
C630 C 1.01048 0.82553 0.24578 0.0
C631 C 0.99725 0.8202 0.28208 0.0
C632 C 0.04396 0.84326 0.24056 0.0
C633 C 0.12203 0.87357 0.29197 0.0
H634 H 0.15659 0.93757 0.21311 0.0
C635 C 0.24831 0.98507 0.29862 0.0
C636 C 0.26639 0.99722 0.2657 0.0
C637 C 0.21724 0.95846 0.29732 0.0
C638 C 0.14739 0.91939 0.23483 0.0
H639 H 1.00929 0.82868 0.34135 0.0
H640 H 0.06715 0.85998 0.33228 0.0
H641 H 0.09849 0.9012 0.21709 0.0
H642 H 0.26653 0.99071 0.20559 0.0
H643 H 0.21162 0.94392 0.2031 0.0
H644 H 0.17082 0.89255 0.31051 0.0
C645 C 0.0518 0.85026 0.30775 0.0
C646 C 0.11401 0.89852 0.23717 0.0
C647 C 0.01845 0.83264 0.31295 0.0
C648 C 0.25327 0.98142 0.23145 0.0
C649 C 0.22174 0.95495 0.23002 0.0
C650 C 0.15531 0.89448 0.28972 0.0
C651 C 0.0651 0.85595 0.2715 0.0
C652 C 0.1008 0.87583 0.26636 0.0
C653 C 0.20313 0.94358 0.26292 0.0
C654 C 0.16839 0.91819 0.26168 0.0
H655 H 0.99495 0.81652 0.22131 0.0
H656 H 0.05327 0.8469 0.21224 0.0
H657 H 0.1129 0.85592 0.31426 0.0
H658 H 0.25777 0.99704 0.32533 0.0
H659 H 0.20359 0.9507 0.32313 0.0
C660 C 0.83638 1.00974 0.31616 0.0
C661 C 0.84645 0.02931 0.284 0.0
C662 C 0.82202 0.97626 0.3132 0.0
C663 C 0.78126 0.90696 0.24678 0.0
H664 H 0.80647 0.86482 0.32129 0.0
C665 C 0.75162 0.77257 0.23781 0.0
C666 C 0.74757 0.75642 0.272 0.0
C667 C 0.7591 0.80494 0.23755 0.0
C668 C 0.79864 0.87598 0.30055 0.0
H669 H 0.84867 0.02847 0.22322 0.0
H670 H 0.82369 0.96995 0.21805 0.0
H671 H 0.82928 0.92268 0.3239 0.0
H672 H 0.74586 0.76044 0.33234 0.0
H673 H 0.75721 0.81591 0.33194 0.0
H674 H 0.75081 0.85988 0.22325 0.0
C675 C 0.82669 0.98061 0.24564 0.0
C676 C 0.81185 0.90936 0.30203 0.0
C677 C 0.84109 0.01424 0.24862 0.0
C678 C 0.74858 0.77226 0.30557 0.0
C679 C 0.75566 0.80427 0.30532 0.0
C680 C 0.76797 0.87336 0.24529 0.0
C681 C 0.81724 0.96116 0.27796 0.0
C682 C 0.80324 0.92541 0.2754 0.0
C683 C 0.7626 0.82161 0.2715 0.0
C684 C 0.77627 0.85736 0.27241 0.0
H685 H 0.83928 0.02026 0.34383 0.0
H686 H 0.81443 0.96215 0.33869 0.0
H687 H 0.77387 0.9184 0.2259 0.0
H688 H 0.75175 0.76116 0.21159 0.0
H689 H 0.76432 0.81745 0.21096 0.0
C690 C 0.17387 0.1702 0.81307 0.0
C691 C 0.17637 0.1915 0.78439 0.0
C692 C 0.18896 0.15177 0.80979 0.0
C693 C 0.22194 0.11764 0.74232 0.0
H694 H 0.26724 0.11222 0.82999 0.0
C695 C 0.28061 0.03674 0.74383 0.0
C696 C 0.27299 0.01728 0.77588 0.0
C697 C 0.27483 0.06276 0.74313 0.0
C698 C 0.25461 0.11332 0.80524 0.0
H699 H 0.19647 0.20932 0.72921 0.0
H700 H 0.22205 0.17645 0.72319 0.0
H701 H 0.2432 0.14651 0.83157 0.0
H702 H 0.25509 1.01062 0.83278 0.0
H703 H 0.2454 0.05559 0.83186 0.0
H704 H 0.23238 0.0835 0.71645 0.0
C705 C 0.20843 0.17422 0.7483 0.0
C706 C 0.24077 0.13298 0.8062 0.0
C707 C 0.19357 0.19295 0.75172 0.0
C708 C 0.2614 0.02538 0.80778 0.0
C709 C 0.25593 0.05132 0.80724 0.0
C710 C 0.2356 0.09769 0.74145 0.0
C711 C 0.20675 0.15381 0.77758 0.0
C712 C 0.22364 0.13485 0.77508 0.0
C713 C 0.26168 0.06989 0.77463 0.0
C714 C 0.25146 0.09468 0.77326 0.0
H715 H 0.16029 0.16777 0.83827 0.0
H716 H 0.18658 0.13576 0.83253 0.0
H717 H 0.20887 0.11851 0.71788 0.0
H718 H 0.28906 0.03066 0.71865 0.0
H719 H 0.27981 0.07672 0.71764 0.0
C720 C 1.01679 0.82534 0.74097 0.0
C721 C 0.03321 0.84124 0.77414 0.0
C722 C 0.98342 0.81277 0.73731 0.0
C723 C 0.91508 0.81778 0.78081 0.0
H724 H 0.86136 0.73619 0.73033 0.0
C725 C 0.77998 0.74975 0.8034 0.0
C726 C 0.76101 0.74401 0.771 0.0
C727 C 0.81208 0.75749 0.8007 0.0
C728 C 0.87614 0.75909 0.74426 0.0
H729 H 0.02698 0.85702 0.82901 0.0
H730 H 0.96928 0.83424 0.82335 0.0
H731 H 0.92008 0.75956 0.7314 0.0
H732 H 0.76011 0.73957 0.71043 0.0
H733 H 0.81663 0.75251 0.70571 0.0
H734 H 0.87122 0.81679 0.79474 0.0
C735 C 0.98206 0.83184 0.79972 0.0
C736 C 0.90982 0.77263 0.74478 0.0
C737 C 1.01531 0.84457 0.80324 0.0
C738 C 0.77401 0.74332 0.73591 0.0
C739 C 0.80641 0.75102 0.73319 0.0
C740 C 0.88162 0.80409 0.78074 0.0
C741 C 0.9655 0.8157 0.76674 0.0
C742 C 0.92976 0.80198 0.76362 0.0
C743 C 0.82609 0.75965 0.76551 0.0
C744 C 0.86171 0.77439 0.763 0.0
H745 H 0.02958 0.82194 0.71805 0.0
H746 H 0.97172 0.80087 0.71131 0.0
H747 H 0.92942 0.84083 0.79458 0.0
H748 H 0.77062 0.7505 0.83081 0.0
H749 H 0.82651 0.76352 0.8261 0.0
C750 C 0.99149 0.24338 0.80409 0.0
C751 C 1.00326 0.26167 0.77122 0.0
C752 C 0.96459 0.21253 0.8029 0.0
C753 C 0.92395 0.14354 0.73978 0.0
H754 H 0.86193 0.10854 0.8206 0.0
C755 C 0.83004 1.00689 0.75019 0.0
C756 C 0.82551 0.99331 0.78625 0.0
C757 C 0.84762 0.04038 0.74533 0.0
C758 C 0.87916 0.11783 0.7979 0.0
H759 H 0.99558 0.26252 0.7114 0.0
H760 H 0.94828 0.208 0.7091 0.0
H761 H 0.89874 0.16641 0.81718 0.0
H762 H 0.83526 1.00468 0.84553 0.0
H763 H 0.86637 0.0626 0.83705 0.0
H764 H 0.9052 0.09485 0.72128 0.0
C765 C 0.9599 0.21777 0.73589 0.0
C766 C 0.90017 0.15107 0.79585 0.0
C767 C 0.98668 0.24906 0.73722 0.0
C768 C 0.8386 0.01415 0.81728 0.0
C769 C 0.8561 0.04751 0.81244 0.0
C770 C 0.90298 0.11021 0.74192 0.0
C771 C 0.94898 0.1989 0.76865 0.0
C772 C 0.92337 0.1643 0.76731 0.0
C773 C 0.861 0.06116 0.77641 0.0
C774 C 0.88085 0.09683 0.77157 0.0
H775 H 1.00398 0.25247 0.83063 0.0
H776 H 0.95715 0.19866 0.82858 0.0
H777 H 0.94174 0.15287 0.71766 0.0
H778 H 0.8205 0.99163 0.7256 0.0
H779 H 0.85065 0.04998 0.71719 0.0
loop_
_geom_bond_atom_site_label_1
_geom_bond_atom_site_label_2
_geom_bond_distance
_geom_bond_site_symmetry_2
_ccdc_geom_bond_type
Gd0 C3 2.818 . S
Gd0 O20 2.377 . S
Gd0 O22 2.448 . S
Gd0 O23 2.506 . S
Gd0 O24 2.435 . S
Gd0 O25 2.717 . S
Gd0 O27 2.395 . S
Gd0 O31 2.327 . S
Gd1 C12 2.818 . S
Gd1 O21 2.395 . S
Gd1 O25 2.327 . S
Gd1 O26 2.377 . S
Gd1 O28 2.448 . S
Gd1 O29 2.506 . S
Gd1 O30 2.435 . S
Gd1 O31 2.717 . S
C2 O20 1.240 . S
C2 O21 1.240 . S
C3 Gd0 2.818 . S
C3 C4 1.510 . S
C3 O22 1.249 . S
C3 O23 1.252 . S
C4 C3 1.510 . S
C4 C5 1.404 . S
C4 C6 1.352 . S
C5 C4 1.404 . S
C5 C9 1.389 . S
C5 H32 0.930 . S
C6 C4 1.352 . S
C6 C8 1.374 . S
C6 H33 0.931 . S
C7 C8 1.359 . S
C7 C9 1.364 . S
C8 C6 1.374 . S
C8 C7 1.359 . S
C8 H34 0.931 . S
C9 C5 1.389 . S
C9 C7 1.364 . S
C9 H35 0.931 . S
C10 O24 1.256 . S
C10 O25 1.257 . S
C11 O26 1.240 . S
C11 O27 1.240 . S
C12 Gd1 2.818 . S
C12 C13 1.510 . S
C12 O28 1.249 . S
C12 O29 1.252 . S
C13 C12 1.510 . S
C13 C14 1.404 . S
C13 C15 1.352 . S
C14 C13 1.404 . S
C14 C18 1.389 . S
C14 H36 0.930 . S
C15 C13 1.352 . S
C15 C17 1.374 . S
C15 H37 0.931 . S
C16 C17 1.359 . S
C16 C18 1.364 . S
C17 C15 1.374 . S
C17 C16 1.359 . S
C17 H38 0.931 . S
C18 C14 1.389 . S
C18 C16 1.364 . S
C18 H39 0.931 . S
C19 O30 1.256 . S
C19 O31 1.257 . S
O20 Gd0 2.377 . S
O20 C2 1.240 . S
O21 Gd1 2.395 . S
O21 C2 1.240 . S
O22 Gd0 2.448 . S
O22 C3 1.249 . S
O23 Gd0 2.506 . S
O23 C3 1.252 . S
O24 Gd0 2.435 . S
O24 C10 1.256 . S
O25 Gd0 2.717 . S
O25 Gd1 2.327 . S
O25 C10 1.257 . S
O26 Gd1 2.377 . S
O26 C11 1.240 . S
O27 Gd0 2.395 . S
O27 C11 1.240 . S
O28 Gd1 2.448 . S
O28 C12 1.249 . S
O29 Gd1 2.506 . S
O29 C12 1.252 . S
O30 Gd1 2.435 . S
O30 C19 1.256 . S
O31 Gd0 2.327 . S
O31 Gd1 2.717 . S
O31 C19 1.257 . S
H32 C5 0.930 . S
H33 C6 0.931 . S
H34 C8 0.931 . S
H35 C9 0.931 . S
H36 C14 0.930 . S
H37 C15 0.931 . S
H38 C17 0.931 . S
H39 C18 0.931 . S
Gd40 C43 2.818 . S
Gd40 O60 2.377 . S
Gd40 O62 2.448 . S
Gd40 O63 2.506 . S
Gd40 O64 2.435 . S
Gd40 O65 2.717 . S
Gd40 O67 2.395 . S
Gd40 O71 2.327 . S
Gd41 C52 2.818 . S
Gd41 O61 2.395 . S
Gd41 O65 2.327 . S
Gd41 O66 2.377 . S
Gd41 O68 2.448 . S
Gd41 O69 2.506 . S
Gd41 O70 2.435 . S
Gd41 O71 2.717 . S
C42 O60 1.240 . S
C42 O61 1.240 . S
C43 Gd40 2.818 . S
C43 C44 1.510 . S
C43 O62 1.249 . S
C43 O63 1.252 . S
C44 C43 1.510 . S
C44 C45 1.404 . S
C44 C46 1.352 . S
C45 C44 1.404 . S
C45 C49 1.389 . S
C45 H72 0.930 . S
C46 C44 1.352 . S
C46 C48 1.374 . S
C46 H73 0.931 . S
C47 C48 1.359 . S
C47 C49 1.364 . S
C48 C46 1.374 . S
C48 C47 1.359 . S
C48 H74 0.931 . S
C49 C45 1.389 . S
C49 C47 1.364 . S
C49 H75 0.931 . S
C50 O64 1.256 . S
C50 O65 1.257 . S
C51 O66 1.240 . S
C51 O67 1.240 . S
C52 Gd41 2.818 . S
C52 C53 1.510 . S
C52 O68 1.249 . S
C52 O69 1.252 . S
C53 C52 1.510 . S
C53 C54 1.404 . S
C53 C55 1.352 . S
C54 C53 1.404 . S
C54 C58 1.389 . S
C54 H76 0.930 . S
C55 C53 1.352 . S
C55 C57 1.374 . S
C55 H77 0.931 . S
C56 C57 1.359 . S
C56 C58 1.364 . S
C57 C55 1.374 . S
C57 C56 1.359 . S
C57 H78 0.931 . S
C58 C54 1.389 . S
C58 C56 1.364 . S
C58 H79 0.931 . S
C59 O70 1.256 . S
C59 O71 1.257 . S
O60 Gd40 2.377 . S
O60 C42 1.240 . S
O61 Gd41 2.395 . S
O61 C42 1.240 . S
O62 Gd40 2.448 . S
O62 C43 1.249 . S
O63 Gd40 2.506 . S
O63 C43 1.252 . S
O64 Gd40 2.435 . S
O64 C50 1.256 . S
O65 Gd40 2.717 . S
O65 Gd41 2.327 . S
O65 C50 1.257 . S
O66 Gd41 2.377 . S
O66 C51 1.240 . S
O67 Gd40 2.395 . S
O67 C51 1.240 . S
O68 Gd41 2.448 . S
O68 C52 1.249 . S
O69 Gd41 2.506 . S
O69 C52 1.252 . S
O70 Gd41 2.435 . S
O70 C59 1.256 . S
O71 Gd40 2.327 . S
O71 Gd41 2.717 . S
O71 C59 1.257 . S
H72 C45 0.930 . S
H73 C46 0.931 . S
H74 C48 0.931 . S
H75 C49 0.931 . S
H76 C54 0.930 . S
H77 C55 0.931 . S
H78 C57 0.931 . S
H79 C58 0.931 . S
Gd80 C83 2.818 . S
Gd80 O100 2.377 . S
Gd80 O102 2.448 . S
Gd80 O103 2.506 . S
Gd80 O104 2.435 . S
Gd80 O105 2.717 . S
Gd80 O107 2.395 . S
Gd80 O111 2.327 . S
Gd81 C92 2.818 . S
Gd81 O101 2.395 . S
Gd81 O105 2.327 . S
Gd81 O106 2.377 . S
Gd81 O108 2.448 . S
Gd81 O109 2.506 . S
Gd81 O110 2.435 . S
Gd81 O111 2.717 . S
C82 O100 1.240 . S
C82 O101 1.240 . S
C83 Gd80 2.818 . S
C83 C84 1.510 . S
C83 O102 1.249 . S
C83 O103 1.252 . S
C84 C83 1.510 . S
C84 C85 1.404 . S
C84 C86 1.352 . S
C85 C84 1.404 . S
C85 C89 1.389 . S
C85 H112 0.930 . S
C86 C84 1.352 . S
C86 C88 1.374 . S
C86 H113 0.931 . S
C87 C88 1.359 . S
C87 C89 1.364 . S
C88 C86 1.374 . S
C88 C87 1.359 . S
C88 H114 0.931 . S
C89 C85 1.389 . S
C89 C87 1.364 . S
C89 H115 0.931 . S
C90 O104 1.256 . S
C90 O105 1.257 . S
C91 O106 1.240 . S
C91 O107 1.240 . S
C92 Gd81 2.818 . S
C92 C93 1.510 . S
C92 O108 1.249 . S
C92 O109 1.252 . S
C93 C92 1.510 . S
C93 C94 1.404 . S
C93 C95 1.352 . S
C94 C93 1.404 . S
C94 C98 1.389 . S
C94 H116 0.930 . S
C95 C93 1.352 . S
C95 C97 1.374 . S
C95 H117 0.931 . S
C96 C97 1.359 . S
C96 C98 1.364 . S
C97 C95 1.374 . S
C97 C96 1.359 . S
C97 H118 0.931 . S
C98 C94 1.389 . S
C98 C96 1.364 . S
C98 H119 0.931 . S
C99 O110 1.256 . S
C99 O111 1.257 . S
O100 Gd80 2.377 . S
O100 C82 1.240 . S
O101 Gd81 2.395 . S
O101 C82 1.240 . S
O102 Gd80 2.448 . S
O102 C83 1.249 . S
O103 Gd80 2.506 . S
O103 C83 1.252 . S
O104 Gd80 2.435 . S
O104 C90 1.256 . S
O105 Gd80 2.717 . S
O105 Gd81 2.327 . S
O105 C90 1.257 . S
O106 Gd81 2.377 . S
O106 C91 1.240 . S
O107 Gd80 2.395 . S
O107 C91 1.240 . S
O108 Gd81 2.448 . S
O108 C92 1.249 . S
O109 Gd81 2.506 . S
O109 C92 1.252 . S
O110 Gd81 2.435 . S
O110 C99 1.256 . S
O111 Gd80 2.327 . S
O111 Gd81 2.717 . S
O111 C99 1.257 . S
H112 C85 0.930 . S
H113 C86 0.931 . S
H114 C88 0.931 . S
H115 C89 0.931 . S
H116 C94 0.930 . S
H117 C95 0.931 . S
H118 C97 0.931 . S
H119 C98 0.931 . S
Gd120 C123 2.818 . S
Gd120 O140 2.377 . S
Gd120 O142 2.448 . S
Gd120 O143 2.506 . S
Gd120 O144 2.435 . S
Gd120 O145 2.717 . S
Gd120 O147 2.395 . S
Gd120 O151 2.327 . S
Gd121 C132 2.818 . S
Gd121 O141 2.395 . S
Gd121 O145 2.327 . S
Gd121 O146 2.377 . S
Gd121 O148 2.448 . S
Gd121 O149 2.506 . S
Gd121 O150 2.435 . S
Gd121 O151 2.717 . S
C122 O140 1.240 . S
C122 O141 1.240 . S
C123 Gd120 2.818 . S
C123 C124 1.510 . S
C123 O142 1.249 . S
C123 O143 1.252 . S
C124 C123 1.510 . S
C124 C125 1.404 . S
C124 C126 1.352 . S
C125 C124 1.404 . S
C125 C129 1.389 . S
C125 H152 0.930 . S
C126 C124 1.352 . S
C126 C128 1.374 . S
C126 H153 0.931 . S
C127 C128 1.359 . S
C127 C129 1.364 . S
C128 C126 1.374 . S
C128 C127 1.359 . S
C128 H154 0.931 . S
C129 C125 1.389 . S
C129 C127 1.364 . S
C129 H155 0.931 . S
C130 O144 1.256 . S
C130 O145 1.257 . S
C131 O146 1.240 . S
C131 O147 1.240 . S
C132 Gd121 2.818 . S
C132 C133 1.510 . S
C132 O148 1.249 . S
C132 O149 1.252 . S
C133 C132 1.510 . S
C133 C134 1.404 . S
C133 C135 1.352 . S
C134 C133 1.404 . S
C134 C138 1.389 . S
C134 H156 0.930 . S
C135 C133 1.352 . S
C135 C137 1.374 . S
C135 H157 0.931 . S
C136 C137 1.359 . S
C136 C138 1.364 . S
C137 C135 1.374 . S
C137 C136 1.359 . S
C137 H158 0.931 . S
C138 C134 1.389 . S
C138 C136 1.364 . S
C138 H159 0.931 . S
C139 O150 1.256 . S
C139 O151 1.257 . S
O140 Gd120 2.377 . S
O140 C122 1.240 . S
O141 Gd121 2.395 . S
O141 C122 1.240 . S
O142 Gd120 2.448 . S
O142 C123 1.249 . S
O143 Gd120 2.506 . S
O143 C123 1.252 . S
O144 Gd120 2.435 . S
O144 C130 1.256 . S
O145 Gd120 2.717 . S
O145 Gd121 2.327 . S
O145 C130 1.257 . S
O146 Gd121 2.377 . S
O146 C131 1.240 . S
O147 Gd120 2.395 . S
O147 C131 1.240 . S
O148 Gd121 2.448 . S
O148 C132 1.249 . S
O149 Gd121 2.506 . S
O149 C132 1.252 . S
O150 Gd121 2.435 . S
O150 C139 1.256 . S
O151 Gd120 2.327 . S
O151 Gd121 2.717 . S
O151 C139 1.257 . S
H152 C125 0.930 . S
H153 C126 0.931 . S
H154 C128 0.931 . S
H155 C129 0.931 . S
H156 C134 0.930 . S
H157 C135 0.931 . S
H158 C137 0.931 . S
H159 C138 0.931 . S
Gd160 C163 2.818 . S
Gd160 O180 2.377 . S
Gd160 O182 2.448 . S
Gd160 O183 2.506 . S
Gd160 O184 2.435 . S
Gd160 O185 2.717 . S
Gd160 O187 2.395 . S
Gd160 O191 2.327 . S
Gd161 C172 2.818 . S
Gd161 O181 2.395 . S
Gd161 O185 2.327 . S
Gd161 O186 2.377 . S
Gd161 O188 2.448 . S
Gd161 O189 2.506 . S
Gd161 O190 2.435 . S
Gd161 O191 2.717 . S
C162 O180 1.240 . S
C162 O181 1.240 . S
C163 Gd160 2.818 . S
C163 C164 1.510 . S
C163 O182 1.249 . S
C163 O183 1.252 . S
C164 C163 1.510 . S
C164 C165 1.404 . S
C164 C166 1.352 . S
C165 C164 1.404 . S
C165 C169 1.389 . S
C165 H192 0.930 . S
C166 C164 1.352 . S
C166 C168 1.374 . S
C166 H193 0.931 . S
C167 C168 1.359 . S
C167 C169 1.364 . S
C168 C166 1.374 . S
C168 C167 1.359 . S
C168 H194 0.931 . S
C169 C165 1.389 . S
C169 C167 1.364 . S
C169 H195 0.931 . S
C170 O184 1.256 . S
C170 O185 1.257 . S
C171 O186 1.240 . S
C171 O187 1.240 . S
C172 Gd161 2.818 . S
C172 C173 1.510 . S
C172 O188 1.249 . S
C172 O189 1.252 . S
C173 C172 1.510 . S
C173 C174 1.404 . S
C173 C175 1.352 . S
C174 C173 1.404 . S
C174 C178 1.389 . S
C174 H196 0.930 . S
C175 C173 1.352 . S
C175 C177 1.374 . S
C175 H197 0.931 . S
C176 C177 1.359 . S
C176 C178 1.364 . S
C177 C175 1.374 . S
C177 C176 1.359 . S
C177 H198 0.931 . S
C178 C174 1.389 . S
C178 C176 1.364 . S
C178 H199 0.931 . S
C179 O190 1.256 . S
C179 O191 1.257 . S
O180 Gd160 2.377 . S
O180 C162 1.240 . S
O181 Gd161 2.395 . S
O181 C162 1.240 . S
O182 Gd160 2.448 . S
O182 C163 1.249 . S
O183 Gd160 2.506 . S
O183 C163 1.252 . S
O184 Gd160 2.435 . S
O184 C170 1.256 . S
O185 Gd160 2.717 . S
O185 Gd161 2.327 . S
O185 C170 1.257 . S
O186 Gd161 2.377 . S
O186 C171 1.240 . S
O187 Gd160 2.395 . S
O187 C171 1.240 . S
O188 Gd161 2.448 . S
O188 C172 1.249 . S
O189 Gd161 2.506 . S
O189 C172 1.252 . S
O190 Gd161 2.435 . S
O190 C179 1.256 . S
O191 Gd160 2.327 . S
O191 Gd161 2.717 . S
O191 C179 1.257 . S
H192 C165 0.930 . S
H193 C166 0.931 . S
H194 C168 0.931 . S
H195 C169 0.931 . S
H196 C174 0.930 . S
H197 C175 0.931 . S
H198 C177 0.931 . S
H199 C178 0.931 . S
Gd200 C203 2.818 . S
Gd200 O220 2.377 . S
Gd200 O222 2.448 . S
Gd200 O223 2.506 . S
Gd200 O224 2.435 . S
Gd200 O225 2.717 . S
Gd200 O227 2.395 . S
Gd200 O231 2.327 . S
Gd201 C212 2.818 . S
Gd201 O221 2.395 . S
Gd201 O225 2.327 . S
Gd201 O226 2.377 . S
Gd201 O228 2.448 . S
Gd201 O229 2.506 . S
Gd201 O230 2.435 . S
Gd201 O231 2.717 . S
C202 O220 1.240 . S
C202 O221 1.240 . S
C203 Gd200 2.818 . S
C203 C204 1.510 . S
C203 O222 1.249 . S
C203 O223 1.252 . S
C204 C203 1.510 . S
C204 C205 1.404 . S
C204 C206 1.352 . S
C205 C204 1.404 . S
C205 C209 1.389 . S
C205 H232 0.930 . S
C206 C204 1.352 . S
C206 C208 1.374 . S
C206 H233 0.931 . S
C207 C208 1.359 . S
C207 C209 1.364 . S
C208 C206 1.374 . S
C208 C207 1.359 . S
C208 H234 0.931 . S
C209 C205 1.389 . S
C209 C207 1.364 . S
C209 H235 0.931 . S
C210 O224 1.256 . S
C210 O225 1.257 . S
C211 O226 1.240 . S
C211 O227 1.240 . S
C212 Gd201 2.818 . S
C212 C213 1.510 . S
C212 O228 1.249 . S
C212 O229 1.252 . S
C213 C212 1.510 . S
C213 C214 1.404 . S
C213 C215 1.352 . S
C214 C213 1.404 . S
C214 C218 1.389 . S
C214 H236 0.930 . S
C215 C213 1.352 . S
C215 C217 1.374 . S
C215 H237 0.931 . S
C216 C217 1.359 . S
C216 C218 1.364 . S
C217 C215 1.374 . S
C217 C216 1.359 . S
C217 H238 0.931 . S
C218 C214 1.389 . S
C218 C216 1.364 . S
C218 H239 0.931 . S
C219 O230 1.256 . S
C219 O231 1.257 . S
O220 Gd200 2.377 . S
O220 C202 1.240 . S
O221 Gd201 2.395 . S
O221 C202 1.240 . S
O222 Gd200 2.448 . S
O222 C203 1.249 . S
O223 Gd200 2.506 . S
O223 C203 1.252 . S
O224 Gd200 2.435 . S
O224 C210 1.256 . S
O225 Gd200 2.717 . S
O225 Gd201 2.327 . S
O225 C210 1.257 . S
O226 Gd201 2.377 . S
O226 C211 1.240 . S
O227 Gd200 2.395 . S
O227 C211 1.240 . S
O228 Gd201 2.448 . S
O228 C212 1.249 . S
O229 Gd201 2.506 . S
O229 C212 1.252 . S
O230 Gd201 2.435 . S
O230 C219 1.256 . S
O231 Gd200 2.327 . S
O231 Gd201 2.717 . S
O231 C219 1.257 . S
H232 C205 0.930 . S
H233 C206 0.931 . S
H234 C208 0.931 . S
H235 C209 0.931 . S
H236 C214 0.930 . S
H237 C215 0.931 . S
H238 C217 0.931 . S
H239 C218 0.931 . S
C240 C241 1.349 . S
C240 C242 1.327 . S
C240 H265 0.950 . S
C241 C240 1.349 . S
C241 C257 1.349 . S
C242 C240 1.327 . S
C242 C261 1.429 . S
C242 H266 0.950 . S
C243 C260 1.574 1_566 S
C243 C262 1.368 . S
C243 H267 0.949 . S
H244 C248 0.949 . S
C245 C246 1.349 . S
C245 C247 1.327 . S
C245 H268 0.950 . S
C246 C245 1.349 . S
C246 C258 1.349 . S
C247 C245 1.327 . S
C247 C263 1.429 . S
C247 H269 0.950 . S
C248 H244 0.949 . S
C248 C256 1.592 1_554 S
C248 C264 1.368 . S
H249 C257 0.950 . S
H250 C255 0.950 . S
H251 C256 0.933 1_565 S
H252 C258 0.950 . S
H253 C259 0.950 . S
H254 C260 0.949 . S
C255 H250 0.950 . S
C255 C257 1.327 . S
C255 C261 1.429 . S
C256 C248 1.592 1_556 S
C256 H251 0.933 1_545 S
C256 C262 1.367 1_545 S
C257 C241 1.349 . S
C257 H249 0.950 . S
C257 C255 1.327 . S
C258 C246 1.349 . S
C258 H252 0.950 . S
C258 C259 1.327 . S
C259 H253 0.950 . S
C259 C258 1.327 . S
C259 C263 1.429 . S
C260 C243 1.574 1_544 S
C260 H254 0.949 . S
C260 C264 1.368 . S
C261 C242 1.429 . S
C261 C255 1.429 . S
C261 C262 1.523 . S
C262 C243 1.368 . S
C262 C256 1.367 1_565 S
C262 C261 1.523 . S
C263 C247 1.429 . S
C263 C259 1.429 . S
C263 C264 1.523 . S
C264 C248 1.368 . S
C264 C260 1.368 . S
C264 C263 1.523 . S
H265 C240 0.950 . S
H266 C242 0.950 . S
H267 C243 0.949 . S
H268 C245 0.950 . S
H269 C247 0.950 . S
C270 C271 1.349 . S
C270 C272 1.327 . S
C270 H295 0.950 . S
C271 C270 1.349 . S
C271 C287 1.349 . S
C272 C270 1.327 . S
C272 C291 1.429 . S
C272 H296 0.950 . S
C273 C290 1.574 . S
C273 C292 1.368 . S
C273 H297 0.949 . S
H274 C278 0.949 . S
C275 C276 1.349 . S
C275 C277 1.327 . S
C275 H298 0.950 . S
C276 C275 1.349 . S
C276 C288 1.349 . S
C277 C275 1.327 . S
C277 C293 1.429 . S
C277 H299 0.950 . S
C278 H274 0.949 . S
C278 C286 1.574 . S
C278 C294 1.368 . S
H279 C287 0.950 . S
H280 C285 0.950 . S
H281 C286 0.949 . S
H282 C288 0.950 . S
H283 C289 0.950 . S
H284 C290 0.949 . S
C285 H280 0.950 . S
C285 C287 1.327 . S
C285 C291 1.429 . S
C286 C278 1.574 . S
C286 H281 0.949 . S
C286 C292 1.368 . S
C287 C271 1.349 . S
C287 H279 0.950 . S
C287 C285 1.327 . S
C288 C276 1.349 . S
C288 H282 0.950 . S
C288 C289 1.327 . S
C289 H283 0.950 . S
C289 C288 1.327 . S
C289 C293 1.429 . S
C290 C273 1.574 . S
C290 H284 0.949 . S
C290 C294 1.368 . S
C291 C272 1.429 . S
C291 C285 1.429 . S
C291 C292 1.523 . S
C292 C273 1.368 . S
C292 C286 1.368 . S
C292 C291 1.523 . S
C293 C277 1.429 . S
C293 C289 1.429 . S
C293 C294 1.523 . S
C294 C278 1.368 . S
C294 C290 1.368 . S
C294 C293 1.523 . S
H295 C270 0.950 . S
H296 C272 0.950 . S
H297 C273 0.949 . S
H298 C275 0.950 . S
H299 C277 0.950 . S
C300 C301 1.349 . S
C300 C302 1.327 . S
C300 H325 0.950 . S
C301 C300 1.349 . S
C301 C317 1.349 . S
C302 C300 1.327 . S
C302 C321 1.429 . S
C302 H326 0.950 . S
C303 C320 1.574 1_554 S
C303 C322 1.368 . S
C303 H327 0.949 . S
H304 C308 0.949 . S
C305 C306 1.349 . S
C305 C307 1.327 . S
C305 H328 0.950 . S
C306 C305 1.349 . S
C306 C318 1.349 . S
C307 C305 1.327 . S
C307 C323 1.429 . S
C307 H329 0.950 . S
C308 H304 0.949 . S
C308 C316 1.574 1_456 S
C308 C324 1.368 . S
H309 C317 0.950 . S
H310 C315 0.950 . S
H311 C316 0.949 . S
H312 C318 0.950 . S
H313 C319 0.950 . S
H314 C320 0.949 . S
C315 H310 0.950 . S
C315 C317 1.327 . S
C315 C321 1.429 . S
C316 C308 1.574 1_654 S
C316 H311 0.949 . S
C316 C322 1.368 . S
C317 C301 1.349 . S
C317 H309 0.950 . S
C317 C315 1.327 . S
C318 C306 1.349 . S
C318 H312 0.950 . S
C318 C319 1.327 . S
C319 H313 0.950 . S
C319 C318 1.327 . S
C319 C323 1.429 . S
C320 C303 1.574 1_556 S
C320 H314 0.949 . S
C320 C324 1.368 1_655 S
C321 C302 1.429 . S
C321 C315 1.429 . S
C321 C322 1.523 . S
C322 C303 1.368 . S
C322 C316 1.368 . S
C322 C321 1.523 . S
C323 C307 1.429 . S
C323 C319 1.429 . S
C323 C324 1.523 . S
C324 C308 1.368 . S
C324 C320 1.368 1_455 S
C324 C323 1.523 . S
H325 C300 0.950 . S
H326 C302 0.950 . S
H327 C303 0.949 . S
H328 C305 0.950 . S
H329 C307 0.950 . S
C330 C331 1.349 . S
C330 C332 1.327 . S
C330 H355 0.950 . S
C331 C330 1.349 . S
C331 C347 1.349 . S
C332 C330 1.327 . S
C332 C351 1.429 . S
C332 H356 0.950 . S
C333 C350 1.574 . S
C333 C352 1.368 1_565 S
C333 H357 0.949 . S
H334 C338 0.949 . S
C335 C336 1.349 . S
C335 C337 1.327 . S
C335 H358 0.950 . S
C336 C335 1.349 . S
C336 C348 1.349 . S
C337 C335 1.327 . S
C337 C353 1.429 . S
C337 H359 0.950 . S
C338 H334 0.949 . S
C338 C346 1.574 . S
C338 C354 1.368 1_545 S
H339 C347 0.950 . S
H340 C345 0.950 . S
H341 C346 0.949 . S
H342 C348 0.950 . S
H343 C349 0.950 . S
H344 C350 0.949 . S
C345 H340 0.950 . S
C345 C347 1.327 . S
C345 C351 1.429 . S
C346 C338 1.574 . S
C346 H341 0.949 . S
C346 C352 1.368 . S
C347 C331 1.349 . S
C347 H339 0.950 . S
C347 C345 1.327 . S
C348 C336 1.349 . S
C348 H342 0.950 . S
C348 C349 1.327 . S
C349 H343 0.950 . S
C349 C348 1.327 . S
C349 C353 1.429 . S
C350 C333 1.574 . S
C350 H344 0.949 . S
C350 C354 1.368 . S
C351 C332 1.429 . S
C351 C345 1.429 . S
C351 C352 1.523 . S
C352 C333 1.368 1_545 S
C352 C346 1.368 . S
C352 C351 1.523 . S
C353 C337 1.429 . S
C353 C349 1.429 . S
C353 C354 1.523 . S
C354 C338 1.368 1_565 S
C354 C350 1.368 . S
C354 C353 1.523 . S
H355 C330 0.950 . S
H356 C332 0.950 . S
H357 C333 0.949 . S
H358 C335 0.950 . S
H359 C337 0.950 . S
C360 C361 1.349 . S
C360 C362 1.327 . S
C360 H385 0.950 . S
C361 C360 1.349 . S
C361 C377 1.349 . S
C362 C360 1.327 . S
C362 C381 1.429 . S
C362 H386 0.950 . S
C363 C380 1.574 . S
C363 C382 1.368 1_554 S
C363 H387 0.949 . S
H364 C368 0.949 . S
C365 C366 1.349 . S
C365 C367 1.327 . S
C365 H388 0.950 . S
C366 C365 1.349 . S
C366 C378 1.349 . S
C367 C365 1.327 . S
C367 C383 1.429 . S
C367 H389 0.950 . S
C368 H364 0.949 . S
C368 C376 1.574 . S
C368 C384 1.368 1_556 S
H369 C377 0.950 . S
H370 C375 0.950 . S
H371 C376 0.949 . S
H372 C378 0.950 . S
H373 C379 0.950 . S
H374 C380 0.949 . S
C375 H370 0.950 . S
C375 C377 1.327 . S
C375 C381 1.429 . S
C376 C368 1.574 . S
C376 H371 0.949 . S
C376 C382 1.368 . S
C377 C361 1.349 . S
C377 H369 0.950 . S
C377 C375 1.327 . S
C378 C366 1.349 . S
C378 H372 0.950 . S
C378 C379 1.327 . S
C379 H373 0.950 . S
C379 C378 1.327 . S
C379 C383 1.429 . S
C380 C363 1.574 . S
C380 H374 0.949 . S
C380 C384 1.368 . S
C381 C362 1.429 . S
C381 C375 1.429 . S
C381 C382 1.523 . S
C382 C363 1.368 1_556 S
C382 C376 1.368 . S
C382 C381 1.523 . S
C383 C367 1.429 . S
C383 C379 1.429 . S
C383 C384 1.523 . S
C384 C368 1.368 1_554 S
C384 C380 1.368 . S
C384 C383 1.523 . S
H385 C360 0.950 . S
H386 C362 0.950 . S
H387 C363 0.949 . S
H388 C365 0.950 . S
H389 C367 0.950 . S
C390 C391 1.349 . S
C390 C392 1.327 . S
C390 H415 0.950 . S
C391 C390 1.349 . S
C391 C407 1.349 . S
C392 C390 1.327 . S
C392 C411 1.429 . S
C392 H416 0.950 . S
C393 C410 1.574 1_655 S
C393 C412 1.368 . S
C393 H417 0.949 . S
H394 C398 0.949 . S
C395 C396 1.349 . S
C395 C397 1.327 . S
C395 H418 0.950 . S
C396 C395 1.349 . S
C396 C408 1.349 . S
C397 C395 1.327 . S
C397 C413 1.429 . S
C397 H419 0.950 . S
C398 H394 0.949 . S
C398 C406 1.574 1_455 S
C398 C414 1.368 . S
H399 C407 0.950 . S
H400 C405 0.950 . S
H401 C406 0.949 . S
H402 C408 0.950 . S
H403 C409 0.950 . S
H404 C410 0.949 . S
C405 H400 0.950 . S
C405 C407 1.327 . S
C405 C411 1.429 . S
C406 C398 1.574 1_655 S
C406 H401 0.949 . S
C406 C412 1.368 . S
C407 C391 1.349 . S
C407 H399 0.950 . S
C407 C405 1.327 . S
C408 C396 1.349 . S
C408 H402 0.950 . S
C408 C409 1.327 . S
C409 H403 0.950 . S
C409 C408 1.327 . S
C409 C413 1.429 . S
C410 C393 1.574 1_455 S
C410 H404 0.949 . S
C410 C414 1.368 . S
C411 C392 1.429 . S
C411 C405 1.429 . S
C411 C412 1.523 . S
C412 C393 1.368 . S
C412 C406 1.368 . S
C412 C411 1.523 . S
C413 C397 1.429 . S
C413 C409 1.429 . S
C413 C414 1.523 . S
C414 C398 1.368 . S
C414 C410 1.368 . S
C414 C413 1.523 . S
H415 C390 0.950 . S
H416 C392 0.950 . S
H417 C393 0.949 . S
H418 C395 0.950 . S
H419 C397 0.950 . S
C420 C421 1.349 . S
C420 C422 1.327 . S
C420 H445 0.950 . S
C421 C420 1.349 . S
C421 C437 1.349 . S
C422 C420 1.327 . S
C422 C441 1.429 . S
C422 H446 0.950 . S
C423 C440 1.574 . S
C423 C442 1.368 . S
C423 H447 0.949 . S
H424 C428 0.949 . S
C425 C426 1.349 . S
C425 C427 1.327 . S
C425 H448 0.950 . S
C426 C425 1.349 . S
C426 C438 1.349 . S
C427 C425 1.327 . S
C427 C443 1.429 . S
C427 H449 0.950 . S
C428 H424 0.949 . S
C428 C436 1.574 . S
C428 C444 1.368 . S
H429 C437 0.950 . S
H430 C435 0.950 . S
H431 C436 0.949 . S
H432 C438 0.950 . S
H433 C439 0.950 . S
H434 C440 0.949 . S
C435 H430 0.950 . S
C435 C437 1.327 . S
C435 C441 1.429 . S
C436 C428 1.574 . S
C436 H431 0.949 . S
C436 C442 1.368 . S
C437 C421 1.349 . S
C437 H429 0.950 . S
C437 C435 1.327 . S
C438 C426 1.349 . S
C438 H432 0.950 . S
C438 C439 1.327 . S
C439 H433 0.950 . S
C439 C438 1.327 . S
C439 C443 1.429 . S
C440 C423 1.574 . S
C440 H434 0.949 . S
C440 C444 1.368 . S
C441 C422 1.429 . S
C441 C435 1.429 . S
C441 C442 1.523 . S
C442 C423 1.368 . S
C442 C436 1.368 . S
C442 C441 1.523 . S
C443 C427 1.429 . S
C443 C439 1.429 . S
C443 C444 1.523 . S
C444 C428 1.368 . S
C444 C440 1.368 . S
C444 C443 1.523 . S
H445 C420 0.950 . S
H446 C422 0.950 . S
H447 C423 0.949 . S
H448 C425 0.950 . S
H449 C427 0.950 . S
C450 C451 1.349 . S
C450 C452 1.327 . S
C450 H475 0.950 . S
C451 C450 1.349 . S
C451 C467 1.349 . S
C452 C450 1.327 . S
C452 C471 1.429 . S
C452 H476 0.950 . S
C453 C470 1.574 . S
C453 C472 1.368 . S
C453 H477 0.949 . S
H454 C458 0.949 . S
C455 C456 1.349 . S
C455 C457 1.327 . S
C455 H478 0.950 . S
C456 C455 1.349 . S
C456 C468 1.349 . S
C457 C455 1.327 . S
C457 C473 1.429 . S
C457 H479 0.950 . S
C458 H454 0.949 . S
C458 C466 1.574 . S
C458 C474 1.368 . S
H459 C467 0.950 . S
H460 C465 0.950 . S
H461 C466 0.949 . S
H462 C468 0.950 . S
H463 C469 0.950 . S
H464 C470 0.949 . S
C465 H460 0.950 . S
C465 C467 1.327 . S
C465 C471 1.429 . S
C466 C458 1.574 . S
C466 H461 0.949 . S
C466 C472 1.368 . S
C467 C451 1.349 . S
C467 H459 0.950 . S
C467 C465 1.327 . S
C468 C456 1.349 . S
C468 H462 0.950 . S
C468 C469 1.327 . S
C469 H463 0.950 . S
C469 C468 1.327 . S
C469 C473 1.429 . S
C470 C453 1.574 . S
C470 H464 0.949 . S
C470 C474 1.368 . S
C471 C452 1.429 . S
C471 C465 1.429 . S
C471 C472 1.523 . S
C472 C453 1.368 . S
C472 C466 1.368 . S
C472 C471 1.523 . S
C473 C457 1.429 . S
C473 C469 1.429 . S
C473 C474 1.523 . S
C474 C458 1.368 . S
C474 C470 1.368 . S
C474 C473 1.523 . S
H475 C450 0.950 . S
H476 C452 0.950 . S
H477 C453 0.949 . S
H478 C455 0.950 . S
H479 C457 0.950 . S
C480 C481 1.349 . S
C480 C482 1.327 . S
C480 H505 0.950 . S
C481 C480 1.349 . S
C481 C497 1.349 . S
C482 C480 1.327 . S
C482 C501 1.429 . S
C482 H506 0.950 . S
C483 C500 1.574 . S
C483 C502 1.368 . S
C483 H507 0.949 . S
H484 C488 0.949 . S
C485 C486 1.349 . S
C485 C487 1.327 . S
C485 H508 0.950 . S
C486 C485 1.349 . S
C486 C498 1.349 . S
C487 C485 1.327 . S
C487 C503 1.429 . S
C487 H509 0.950 . S
C488 H484 0.949 . S
C488 C496 1.574 . S
C488 C504 1.368 . S
H489 C497 0.950 . S
H490 C495 0.950 . S
H491 C496 0.949 . S
H492 C498 0.950 . S
H493 C499 0.950 . S
H494 C500 0.949 . S
C495 H490 0.950 . S
C495 C497 1.327 . S
C495 C501 1.429 . S
C496 C488 1.574 . S
C496 H491 0.949 . S
C496 C502 1.368 . S
C497 C481 1.349 . S
C497 H489 0.950 . S
C497 C495 1.327 . S
C498 C486 1.349 . S
C498 H492 0.950 . S
C498 C499 1.327 . S
C499 H493 0.950 . S
C499 C498 1.327 . S
C499 C503 1.429 . S
C500 C483 1.574 . S
C500 H494 0.949 . S
C500 C504 1.368 . S
C501 C482 1.429 . S
C501 C495 1.429 . S
C501 C502 1.523 . S
C502 C483 1.368 . S
C502 C496 1.368 . S
C502 C501 1.523 . S
C503 C487 1.429 . S
C503 C499 1.429 . S
C503 C504 1.523 . S
C504 C488 1.368 . S
C504 C500 1.368 . S
C504 C503 1.523 . S
H505 C480 0.950 . S
H506 C482 0.950 . S
H507 C483 0.949 . S
H508 C485 0.950 . S
H509 C487 0.950 . S
C510 C511 1.349 . S
C510 C512 1.327 . S
C510 H535 0.950 . S
C511 C510 1.349 . S
C511 C527 1.349 . S
C512 C510 1.327 . S
C512 C531 1.429 . S
C512 H536 0.950 . S
C513 C530 1.574 . S
C513 C532 1.368 . S
C513 H537 0.949 . S
H514 C518 0.949 . S
C515 C516 1.349 . S
C515 C517 1.327 . S
C515 H538 0.950 . S
C516 C515 1.349 . S
C516 C528 1.349 . S
C517 C515 1.327 . S
C517 C533 1.429 . S
C517 H539 0.950 . S
C518 H514 0.949 . S
C518 C526 1.574 . S
C518 C534 1.368 . S
H519 C527 0.950 . S
H520 C525 0.950 . S
H521 C526 0.949 . S
H522 C528 0.950 . S
H523 C529 0.950 . S
H524 C530 0.949 . S
C525 H520 0.950 . S
C525 C527 1.327 . S
C525 C531 1.429 . S
C526 C518 1.574 . S
C526 H521 0.949 . S
C526 C532 1.368 . S
C527 C511 1.349 . S
C527 H519 0.950 . S
C527 C525 1.327 . S
C528 C516 1.349 . S
C528 H522 0.950 . S
C528 C529 1.327 . S
C529 H523 0.950 . S
C529 C528 1.327 . S
C529 C533 1.429 . S
C530 C513 1.574 . S
C530 H524 0.949 . S
C530 C534 1.368 . S
C531 C512 1.429 . S
C531 C525 1.429 . S
C531 C532 1.523 . S
C532 C513 1.368 . S
C532 C526 1.368 . S
C532 C531 1.523 . S
C533 C517 1.429 . S
C533 C529 1.429 . S
C533 C534 1.523 . S
C534 C518 1.368 . S
C534 C530 1.368 . S
C534 C533 1.523 . S
H535 C510 0.950 . S
H536 C512 0.950 . S
H537 C513 0.949 . S
H538 C515 0.950 . S
H539 C517 0.950 . S
C540 C541 1.349 . S
C540 C542 1.327 . S
C540 H565 0.950 . S
C541 C540 1.349 . S
C541 C557 1.349 . S
C542 C540 1.327 . S
C542 C561 1.429 . S
C542 H566 0.950 . S
C543 C560 1.574 . S
C543 C562 1.368 . S
C543 H567 0.949 . S
H544 C548 0.949 . S
C545 C546 1.349 . S
C545 C547 1.327 . S
C545 H568 0.950 . S
C546 C545 1.349 . S
C546 C558 1.349 . S
C547 C545 1.327 . S
C547 C563 1.429 . S
C547 H569 0.950 . S
C548 H544 0.949 . S
C548 C556 1.574 . S
C548 C564 1.368 . S
H549 C557 0.950 . S
H550 C555 0.950 . S
H551 C556 0.949 . S
H552 C558 0.950 . S
H553 C559 0.950 . S
H554 C560 0.949 . S
C555 H550 0.950 . S
C555 C557 1.327 . S
C555 C561 1.429 . S
C556 C548 1.574 . S
C556 H551 0.949 . S
C556 C562 1.368 . S
C557 C541 1.349 . S
C557 H549 0.950 . S
C557 C555 1.327 . S
C558 C546 1.349 . S
C558 H552 0.950 . S
C558 C559 1.327 . S
C559 H553 0.950 . S
C559 C558 1.327 . S
C559 C563 1.429 . S
C560 C543 1.574 . S
C560 H554 0.949 . S
C560 C564 1.368 . S
C561 C542 1.429 . S
C561 C555 1.429 . S
C561 C562 1.523 . S
C562 C543 1.368 . S
C562 C556 1.368 . S
C562 C561 1.523 . S
C563 C547 1.429 . S
C563 C559 1.429 . S
C563 C564 1.523 . S
C564 C548 1.368 . S
C564 C560 1.368 . S
C564 C563 1.523 . S
H565 C540 0.950 . S
H566 C542 0.950 . S
H567 C543 0.949 . S
H568 C545 0.950 . S
H569 C547 0.950 . S
C570 C571 1.349 . S
C570 C572 1.327 . S
C570 H595 0.950 . S
C571 C570 1.349 . S
C571 C587 1.349 . S
C572 C570 1.327 . S
C572 C591 1.429 . S
C572 H596 0.950 . S
C573 C590 1.574 . S
C573 C592 1.368 . S
C573 H597 0.949 . S
H574 C578 0.949 . S
C575 C576 1.349 . S
C575 C577 1.327 . S
C575 H598 0.950 . S
C576 C575 1.349 . S
C576 C588 1.349 . S
C577 C575 1.327 . S
C577 C593 1.429 . S
C577 H599 0.950 . S
C578 H574 0.949 . S
C578 C586 1.574 . S
C578 C594 1.368 . S
H579 C587 0.950 . S
H580 C585 0.950 . S
H581 C586 0.949 . S
H582 C588 0.950 . S
H583 C589 0.950 . S
H584 C590 0.949 . S
C585 H580 0.950 . S
C585 C587 1.327 . S
C585 C591 1.429 . S
C586 C578 1.574 . S
C586 H581 0.949 . S
C586 C592 1.368 . S
C587 C571 1.349 . S
C587 H579 0.950 . S
C587 C585 1.327 . S
C588 C576 1.349 . S
C588 H582 0.950 . S
C588 C589 1.327 . S
C589 H583 0.950 . S
C589 C588 1.327 . S
C589 C593 1.429 . S
C590 C573 1.574 . S
C590 H584 0.949 . S
C590 C594 1.368 . S
C591 C572 1.429 . S
C591 C585 1.429 . S
C591 C592 1.523 . S
C592 C573 1.368 . S
C592 C586 1.368 . S
C592 C591 1.523 . S
C593 C577 1.429 . S
C593 C589 1.429 . S
C593 C594 1.523 . S
C594 C578 1.368 . S
C594 C590 1.368 . S
C594 C593 1.523 . S
H595 C570 0.950 . S
H596 C572 0.950 . S
H597 C573 0.949 . S
H598 C575 0.950 . S
H599 C577 0.950 . S
C600 C601 1.349 . S
C600 C602 1.327 . S
C600 H625 0.950 . S
C601 C600 1.349 . S
C601 C617 1.349 . S
C602 C600 1.327 . S
C602 C621 1.429 . S
C602 H626 0.950 . S
C603 C620 1.574 . S
C603 C622 1.368 . S
C603 H627 0.949 . S
H604 C608 0.949 . S
C605 C606 1.349 . S
C605 C607 1.327 1_655 S
C605 H628 0.950 . S
C606 C605 1.349 . S
C606 C618 1.349 . S
C607 C605 1.327 1_455 S
C607 C623 1.429 . S
C607 H629 0.950 . S
C608 H604 0.949 . S
C608 C616 1.574 . S
C608 C624 1.368 . S
H609 C617 0.950 . S
H610 C615 0.950 . S
H611 C616 0.949 . S
H612 C618 0.950 . S
H613 C619 0.950 . S
H614 C620 0.949 . S
C615 H610 0.950 . S
C615 C617 1.327 . S
C615 C621 1.429 . S
C616 C608 1.574 . S
C616 H611 0.949 . S
C616 C622 1.368 . S
C617 C601 1.349 . S
C617 H609 0.950 . S
C617 C615 1.327 . S
C618 C606 1.349 . S
C618 H612 0.950 . S
C618 C619 1.327 . S
C619 H613 0.950 . S
C619 C618 1.327 . S
C619 C623 1.429 1_655 S
C620 C603 1.574 . S
C620 H614 0.949 . S
C620 C624 1.368 . S
C621 C602 1.429 . S
C621 C615 1.429 . S
C621 C622 1.523 . S
C622 C603 1.368 . S
C622 C616 1.368 . S
C622 C621 1.523 . S
C623 C607 1.429 . S
C623 C619 1.429 1_455 S
C623 C624 1.523 . S
C624 C608 1.368 . S
C624 C620 1.368 . S
C624 C623 1.523 . S
H625 C600 0.950 . S
H626 C602 0.950 . S
H627 C603 0.949 . S
H628 C605 0.950 . S
H629 C607 0.950 . S
C630 C631 1.349 . S
C630 C632 1.327 1_655 S
C630 H655 0.950 . S
C631 C630 1.349 . S
C631 C647 1.349 . S
C632 C630 1.327 1_455 S
C632 C651 1.429 . S
C632 H656 0.950 . S
C633 C650 1.574 . S
C633 C652 1.368 . S
C633 H657 0.949 . S
H634 C638 0.949 . S
C635 C636 1.349 . S
C635 C637 1.327 1_545 S
C635 H658 0.950 . S
C636 C635 1.349 . S
C636 C648 1.349 . S
C637 C635 1.327 1_565 S
C637 C653 1.429 . S
C637 H659 0.950 . S
C638 H634 0.949 . S
C638 C646 1.574 . S
C638 C654 1.368 . S
H639 C647 0.950 . S
H640 C645 0.950 . S
H641 C646 0.949 . S
H642 C648 0.950 . S
H643 C649 0.950 . S
H644 C650 0.949 . S
C645 H640 0.950 . S
C645 C647 1.327 1_455 S
C645 C651 1.429 . S
C646 C638 1.574 . S
C646 H641 0.949 . S
C646 C652 1.368 . S
C647 C631 1.349 . S
C647 H639 0.950 . S
C647 C645 1.327 1_655 S
C648 C636 1.349 . S
C648 H642 0.950 . S
C648 C649 1.327 . S
C649 H643 0.950 . S
C649 C648 1.327 . S
C649 C653 1.429 1_545 S
C650 C633 1.574 . S
C650 H644 0.949 . S
C650 C654 1.368 . S
C651 C632 1.429 . S
C651 C645 1.429 . S
C651 C652 1.523 . S
C652 C633 1.368 . S
C652 C646 1.368 . S
C652 C651 1.523 . S
C653 C637 1.429 . S
C653 C649 1.429 1_565 S
C653 C654 1.523 . S
C654 C638 1.368 . S
C654 C650 1.368 . S
C654 C653 1.523 . S
H655 C630 0.950 . S
H656 C632 0.950 . S
H657 C633 0.949 . S
H658 C635 0.950 . S
H659 C637 0.950 . S
C660 C661 1.349 . S
C660 C662 1.327 1_545 S
C660 H685 0.950 . S
C661 C660 1.349 . S
C661 C677 1.349 . S
C662 C660 1.327 1_565 S
C662 C681 1.429 . S
C662 H686 0.950 . S
C663 C680 1.574 . S
C663 C682 1.368 . S
C663 H687 0.949 . S
H664 C668 0.949 . S
C665 C666 1.349 . S
C665 C667 1.327 . S
C665 H688 0.950 . S
C666 C665 1.349 . S
C666 C678 1.349 . S
C667 C665 1.327 . S
C667 C683 1.429 . S
C667 H689 0.950 . S
C668 H664 0.949 . S
C668 C676 1.574 . S
C668 C684 1.368 . S
H669 C677 0.950 . S
H670 C675 0.950 . S
H671 C676 0.949 . S
H672 C678 0.950 . S
H673 C679 0.950 . S
H674 C680 0.949 . S
C675 H670 0.950 . S
C675 C677 1.327 1_565 S
C675 C681 1.429 . S
C676 C668 1.574 . S
C676 H671 0.949 . S
C676 C682 1.368 . S
C677 C661 1.349 . S
C677 H669 0.950 . S
C677 C675 1.327 1_545 S
C678 C666 1.349 . S
C678 H672 0.950 . S
C678 C679 1.327 . S
C679 H673 0.950 . S
C679 C678 1.327 . S
C679 C683 1.429 . S
C680 C663 1.574 . S
C680 H674 0.949 . S
C680 C684 1.368 . S
C681 C662 1.429 . S
C681 C675 1.429 . S
C681 C682 1.523 . S
C682 C663 1.368 . S
C682 C676 1.368 . S
C682 C681 1.523 . S
C683 C667 1.429 . S
C683 C679 1.429 . S
C683 C684 1.523 . S
C684 C668 1.368 . S
C684 C680 1.368 . S
C684 C683 1.523 . S
H685 C660 0.950 . S
H686 C662 0.950 . S
H687 C663 0.949 . S
H688 C665 0.950 . S
H689 C667 0.950 . S
C690 C691 1.349 . S
C690 C692 1.327 . S
C690 H715 0.950 . S
C691 C690 1.349 . S
C691 C707 1.349 . S
C692 C690 1.327 . S
C692 C711 1.429 . S
C692 H716 0.950 . S
C693 C710 1.574 . S
C693 C712 1.368 . S
C693 H717 0.949 . S
H694 C698 0.949 . S
C695 C696 1.349 . S
C695 C697 1.327 1_565 S
C695 H718 0.950 . S
C696 C695 1.349 . S
C696 C708 1.349 . S
C697 C695 1.327 1_545 S
C697 C713 1.429 . S
C697 H719 0.950 . S
C698 H694 0.949 . S
C698 C706 1.574 . S
C698 C714 1.368 . S
H699 C707 0.950 . S
H700 C705 0.950 . S
H701 C706 0.949 . S
H702 C708 0.950 . S
H703 C709 0.950 . S
H704 C710 0.949 . S
C705 H700 0.950 . S
C705 C707 1.327 . S
C705 C711 1.429 . S
C706 C698 1.574 . S
C706 H701 0.949 . S
C706 C712 1.368 . S
C707 C691 1.349 . S
C707 H699 0.950 . S
C707 C705 1.327 . S
C708 C696 1.349 . S
C708 H702 0.950 . S
C708 C709 1.327 . S
C709 H703 0.950 . S
C709 C708 1.327 . S
C709 C713 1.429 1_565 S
C710 C693 1.574 . S
C710 H704 0.949 . S
C710 C714 1.368 . S
C711 C692 1.429 . S
C711 C705 1.429 . S
C711 C712 1.523 . S
C712 C693 1.368 . S
C712 C706 1.368 . S
C712 C711 1.523 . S
C713 C697 1.429 . S
C713 C709 1.429 1_545 S
C713 C714 1.523 . S
C714 C698 1.368 . S
C714 C710 1.368 . S
C714 C713 1.523 . S
H715 C690 0.950 . S
H716 C692 0.950 . S
H717 C693 0.949 . S
H718 C695 0.950 . S
H719 C697 0.950 . S
C720 C721 1.349 . S
C720 C722 1.327 1_455 S
C720 H745 0.950 . S
C721 C720 1.349 . S
C721 C737 1.349 . S
C722 C720 1.327 1_655 S
C722 C741 1.429 . S
C722 H746 0.950 . S
C723 C740 1.574 . S
C723 C742 1.368 . S
C723 H747 0.949 . S
H724 C728 0.949 . S
C725 C726 1.349 . S
C725 C727 1.327 . S
C725 H748 0.950 . S
C726 C725 1.349 . S
C726 C738 1.349 . S
C727 C725 1.327 . S
C727 C743 1.429 . S
C727 H749 0.950 . S
C728 H724 0.949 . S
C728 C736 1.574 . S
C728 C744 1.368 . S
H729 C737 0.950 . S
H730 C735 0.950 . S
H731 C736 0.949 . S
H732 C738 0.950 . S
H733 C739 0.950 . S
H734 C740 0.949 . S
C735 H730 0.950 . S
C735 C737 1.327 1_655 S
C735 C741 1.429 . S
C736 C728 1.574 . S
C736 H731 0.949 . S
C736 C742 1.368 . S
C737 C721 1.349 . S
C737 H729 0.950 . S
C737 C735 1.327 1_455 S
C738 C726 1.349 . S
C738 H732 0.950 . S
C738 C739 1.327 . S
C739 H733 0.950 . S
C739 C738 1.327 . S
C739 C743 1.429 . S
C740 C723 1.574 . S
C740 H734 0.949 . S
C740 C744 1.368 . S
C741 C722 1.429 . S
C741 C735 1.429 . S
C741 C742 1.523 . S
C742 C723 1.368 . S
C742 C736 1.368 . S
C742 C741 1.523 . S
C743 C727 1.429 . S
C743 C739 1.429 . S
C743 C744 1.523 . S
C744 C728 1.368 . S
C744 C740 1.368 . S
C744 C743 1.523 . S
H745 C720 0.950 . S
H746 C722 0.950 . S
H747 C723 0.949 . S
H748 C725 0.950 . S
H749 C727 0.950 . S
C750 C751 1.349 . S
C750 C752 1.327 1_455 S
C750 H775 0.950 . S
C751 C750 1.349 . S
C751 C767 1.349 . S
C752 C750 1.327 1_655 S
C752 C771 1.429 . S
C752 H776 0.950 . S
C753 C770 1.574 . S
C753 C772 1.368 . S
C753 H777 0.949 . S
H754 C758 0.949 . S
C755 C756 1.349 . S
C755 C757 1.327 1_565 S
C755 H778 0.950 . S
C756 C755 1.349 . S
C756 C768 1.349 . S
C757 C755 1.327 1_545 S
C757 C773 1.429 . S
C757 H779 0.950 . S
C758 H754 0.949 . S
C758 C766 1.574 . S
C758 C774 1.368 . S
H759 C767 0.950 . S
H760 C765 0.950 . S
H761 C766 0.949 . S
H762 C768 0.950 . S
H763 C769 0.950 . S
H764 C770 0.949 . S
C765 H760 0.950 . S
C765 C767 1.327 . S
C765 C771 1.429 1_455 S
C766 C758 1.574 . S
C766 H761 0.949 . S
C766 C772 1.368 . S
C767 C751 1.349 . S
C767 H759 0.950 . S
C767 C765 1.327 . S
C768 C756 1.349 . S
C768 H762 0.950 . S
C768 C769 1.327 1_565 S
C769 H763 0.950 . S
C769 C768 1.327 1_545 S
C769 C773 1.429 . S
C770 C753 1.574 . S
C770 H764 0.949 . S
C770 C774 1.368 . S
C771 C752 1.429 . S
C771 C765 1.429 1_655 S
C771 C772 1.523 . S
C772 C753 1.368 . S
C772 C766 1.368 . S
C772 C771 1.523 . S
C773 C757 1.429 . S
C773 C769 1.429 . S
C773 C774 1.523 . S
C774 C758 1.368 . S
C774 C770 1.368 . S
C774 C773 1.523 . S
H775 C750 0.950 . S
H776 C752 0.950 . S
H777 C753 0.949 . S
H778 C755 0.950 . S
H779 C757 0.950 . S
C241 C179 2.343 . S
C246 C19 2.465 . S
C271 C210 2.465 . S
C276 C50 2.343 . S
C301 C99 2.465 . S
C306 C139 2.343 . S
C331 C10 2.343 . S
C336 C170 2.465 . S
C361 C219 2.343 . S
C366 C59 2.465 . S
C391 C90 2.343 . S
C396 C130 2.465 . S
C421 C7 1.910 . S
C426 C82 1.864 . S
C451 C47 1.910 . S
C456 C2 1.864 . S
C481 C87 1.910 . S
C486 C42 1.864 . S
C511 C136 1.910 . S
C516 C171 1.864 . S
C541 C176 1.910 . S
C546 C211 1.864 . S
C571 C131 1.864 . S
C576 C216 1.910 . S
C601 C16 1.036 . S
C606 C91 1.058 . S
C631 C56 1.036 . S
C636 C11 1.058 . S
C661 C96 1.036 . S
C666 C51 1.058 . S
C691 C127 1.036 . S
C696 C162 1.058 . S
C721 C167 1.036 . S
C726 C202 1.058 . S
C751 C122 1.058 . S
C756 C207 1.036 . S
