# Generated by pormake.
# Topology wio, (6)-cn, num edge types: 1
# Building blocks:
#     Node 0, Type 0, BuildingBlock: BETDIP_clean_sbu_0, # of connection points: 6
#     Node 1, Type 0, BuildingBlock: BETDIP_clean_sbu_0, # of connection points: 6
#     Node 2, Type 0, BuildingBlock: BETDIP_clean_sbu_0, # of connection points: 6
#     Node 3, Type 0, BuildingBlock: BETDIP_clean_sbu_0, # of connection points: 6
#     Node 4, Type 0, BuildingBlock: BETDIP_clean_sbu_0, # of connection points: 6
#     Node 5, Type 0, BuildingBlock: BETDIP_clean_sbu_0, # of connection points: 6
#     Node 6, Type 0, BuildingBlock: BETDIP_clean_sbu_0, # of connection points: 6
#     Node 7, Type 0, BuildingBlock: BETDIP_clean_sbu_0, # of connection points: 6
#     Node 8, Type 0, BuildingBlock: BETDIP_clean_sbu_0, # of connection points: 6
#     Node 9, Type 0, BuildingBlock: BETDIP_clean_sbu_0, # of connection points: 6
#     Node 10, Type 0, BuildingBlock: BETDIP_clean_sbu_0, # of connection points: 6
#     Node 11, Type 0, BuildingBlock: BETDIP_clean_sbu_0, # of connection points: 6
#     Node 12, Type 0, BuildingBlock: BETDIP_clean_sbu_0, # of connection points: 6
#     Node 13, Type 0, BuildingBlock: BETDIP_clean_sbu_0, # of connection points: 6
#     Node 14, Type 0, BuildingBlock: BETDIP_clean_sbu_0, # of connection points: 6
#     Node 15, Type 0, BuildingBlock: BETDIP_clean_sbu_0, # of connection points: 6
#     Node 16, Type 0, BuildingBlock: BETDIP_clean_sbu_0, # of connection points: 6
#     Node 17, Type 0, BuildingBlock: BETDIP_clean_sbu_0, # of connection points: 6
#     Node 18, Type 0, BuildingBlock: BETDIP_clean_sbu_0, # of connection points: 6
#     Node 19, Type 0, BuildingBlock: BETDIP_clean_sbu_0, # of connection points: 6
#     Node 20, Type 0, BuildingBlock: BETDIP_clean_sbu_0, # of connection points: 6
#     Node 21, Type 0, BuildingBlock: BETDIP_clean_sbu_0, # of connection points: 6
#     Node 22, Type 0, BuildingBlock: BETDIP_clean_sbu_0, # of connection points: 6
#     Node 23, Type 0, BuildingBlock: BETDIP_clean_sbu_0, # of connection points: 6
#     Node 24, Type 0, BuildingBlock: BETDIP_clean_sbu_0, # of connection points: 6
#     Node 25, Type 0, BuildingBlock: BETDIP_clean_sbu_0, # of connection points: 6
#     Node 26, Type 0, BuildingBlock: BETDIP_clean_sbu_0, # of connection points: 6
#     Node 27, Type 0, BuildingBlock: BETDIP_clean_sbu_0, # of connection points: 6
#     Node 28, Type 0, BuildingBlock: BETDIP_clean_sbu_0, # of connection points: 6
#     Node 29, Type 0, BuildingBlock: BETDIP_clean_sbu_0, # of connection points: 6
#     Node 30, Type 0, BuildingBlock: BETDIP_clean_sbu_0, # of connection points: 6
#     Node 31, Type 0, BuildingBlock: BETDIP_clean_sbu_0, # of connection points: 6
#     Edge 32, Type (0, 0), BuildingBlock: OJICUG_clean_linker_0, # of connection points: 2
#     Edge 33, Type (0, 0), BuildingBlock: OJICUG_clean_linker_0, # of connection points: 2
#     Edge 34, Type (0, 0), BuildingBlock: OJICUG_clean_linker_0, # of connection points: 2
#     Edge 35, Type (0, 0), BuildingBlock: OJICUG_clean_linker_0, # of connection points: 2
#     Edge 36, Type (0, 0), BuildingBlock: OJICUG_clean_linker_0, # of connection points: 2
#     Edge 37, Type (0, 0), BuildingBlock: OJICUG_clean_linker_0, # of connection points: 2
#     Edge 38, Type (0, 0), BuildingBlock: OJICUG_clean_linker_0, # of connection points: 2
#     Edge 39, Type (0, 0), BuildingBlock: OJICUG_clean_linker_0, # of connection points: 2
#     Edge 40, Type (0, 0), BuildingBlock: OJICUG_clean_linker_0, # of connection points: 2
#     Edge 41, Type (0, 0), BuildingBlock: OJICUG_clean_linker_0, # of connection points: 2
#     Edge 42, Type (0, 0), BuildingBlock: OJICUG_clean_linker_0, # of connection points: 2
#     Edge 43, Type (0, 0), BuildingBlock: OJICUG_clean_linker_0, # of connection points: 2
#     Edge 44, Type (0, 0), BuildingBlock: OJICUG_clean_linker_0, # of connection points: 2
#     Edge 45, Type (0, 0), BuildingBlock: OJICUG_clean_linker_0, # of connection points: 2
#     Edge 46, Type (0, 0), BuildingBlock: OJICUG_clean_linker_0, # of connection points: 2
#     Edge 47, Type (0, 0), BuildingBlock: OJICUG_clean_linker_0, # of connection points: 2
#     Edge 48, Type (0, 0), BuildingBlock: OJICUG_clean_linker_0, # of connection points: 2
#     Edge 49, Type (0, 0), BuildingBlock: OJICUG_clean_linker_0, # of connection points: 2
#     Edge 50, Type (0, 0), BuildingBlock: OJICUG_clean_linker_0, # of connection points: 2
#     Edge 51, Type (0, 0), BuildingBlock: OJICUG_clean_linker_0, # of connection points: 2
#     Edge 52, Type (0, 0), BuildingBlock: OJICUG_clean_linker_0, # of connection points: 2
#     Edge 53, Type (0, 0), BuildingBlock: OJICUG_clean_linker_0, # of connection points: 2
#     Edge 54, Type (0, 0), BuildingBlock: OJICUG_clean_linker_0, # of connection points: 2
#     Edge 55, Type (0, 0), BuildingBlock: OJICUG_clean_linker_0, # of connection points: 2
#     Edge 56, Type (0, 0), BuildingBlock: OJICUG_clean_linker_0, # of connection points: 2
#     Edge 57, Type (0, 0), BuildingBlock: OJICUG_clean_linker_0, # of connection points: 2
#     Edge 58, Type (0, 0), BuildingBlock: OJICUG_clean_linker_0, # of connection points: 2
#     Edge 59, Type (0, 0), BuildingBlock: OJICUG_clean_linker_0, # of connection points: 2
#     Edge 60, Type (0, 0), BuildingBlock: OJICUG_clean_linker_0, # of connection points: 2
#     Edge 61, Type (0, 0), BuildingBlock: OJICUG_clean_linker_0, # of connection points: 2
#     Edge 62, Type (0, 0), BuildingBlock: OJICUG_clean_linker_0, # of connection points: 2
#     Edge 63, Type (0, 0), BuildingBlock: OJICUG_clean_linker_0, # of connection points: 2
#     Edge 64, Type (0, 0), BuildingBlock: OJICUG_clean_linker_0, # of connection points: 2
#     Edge 65, Type (0, 0), BuildingBlock: OJICUG_clean_linker_0, # of connection points: 2
#     Edge 66, Type (0, 0), BuildingBlock: OJICUG_clean_linker_0, # of connection points: 2
#     Edge 67, Type (0, 0), BuildingBlock: OJICUG_clean_linker_0, # of connection points: 2
#     Edge 68, Type (0, 0), BuildingBlock: OJICUG_clean_linker_0, # of connection points: 2
#     Edge 69, Type (0, 0), BuildingBlock: OJICUG_clean_linker_0, # of connection points: 2
#     Edge 70, Type (0, 0), BuildingBlock: OJICUG_clean_linker_0, # of connection points: 2
#     Edge 71, Type (0, 0), BuildingBlock: OJICUG_clean_linker_0, # of connection points: 2
#     Edge 72, Type (0, 0), BuildingBlock: OJICUG_clean_linker_0, # of connection points: 2
#     Edge 73, Type (0, 0), BuildingBlock: OJICUG_clean_linker_0, # of connection points: 2
#     Edge 74, Type (0, 0), BuildingBlock: OJICUG_clean_linker_0, # of connection points: 2
#     Edge 75, Type (0, 0), BuildingBlock: OJICUG_clean_linker_0, # of connection points: 2
#     Edge 76, Type (0, 0), BuildingBlock: OJICUG_clean_linker_0, # of connection points: 2
#     Edge 77, Type (0, 0), BuildingBlock: OJICUG_clean_linker_0, # of connection points: 2
#     Edge 78, Type (0, 0), BuildingBlock: OJICUG_clean_linker_0, # of connection points: 2
#     Edge 79, Type (0, 0), BuildingBlock: OJICUG_clean_linker_0, # of connection points: 2
#     Edge 80, Type (0, 0), BuildingBlock: OJICUG_clean_linker_0, # of connection points: 2
#     Edge 81, Type (0, 0), BuildingBlock: OJICUG_clean_linker_0, # of connection points: 2
#     Edge 82, Type (0, 0), BuildingBlock: OJICUG_clean_linker_0, # of connection points: 2
#     Edge 83, Type (0, 0), BuildingBlock: OJICUG_clean_linker_0, # of connection points: 2
#     Edge 84, Type (0, 0), BuildingBlock: OJICUG_clean_linker_0, # of connection points: 2
#     Edge 85, Type (0, 0), BuildingBlock: OJICUG_clean_linker_0, # of connection points: 2
#     Edge 86, Type (0, 0), BuildingBlock: OJICUG_clean_linker_0, # of connection points: 2
#     Edge 87, Type (0, 0), BuildingBlock: OJICUG_clean_linker_0, # of connection points: 2
#     Edge 88, Type (0, 0), BuildingBlock: OJICUG_clean_linker_0, # of connection points: 2
#     Edge 89, Type (0, 0), BuildingBlock: OJICUG_clean_linker_0, # of connection points: 2
#     Edge 90, Type (0, 0), BuildingBlock: OJICUG_clean_linker_0, # of connection points: 2
#     Edge 91, Type (0, 0), BuildingBlock: OJICUG_clean_linker_0, # of connection points: 2
#     Edge 92, Type (0, 0), BuildingBlock: OJICUG_clean_linker_0, # of connection points: 2
#     Edge 93, Type (0, 0), BuildingBlock: OJICUG_clean_linker_0, # of connection points: 2
#     Edge 94, Type (0, 0), BuildingBlock: OJICUG_clean_linker_0, # of connection points: 2
#     Edge 95, Type (0, 0), BuildingBlock: OJICUG_clean_linker_0, # of connection points: 2
#     Edge 96, Type (0, 0), BuildingBlock: OJICUG_clean_linker_0, # of connection points: 2
#     Edge 97, Type (0, 0), BuildingBlock: OJICUG_clean_linker_0, # of connection points: 2
#     Edge 98, Type (0, 0), BuildingBlock: OJICUG_clean_linker_0, # of connection points: 2
#     Edge 99, Type (0, 0), BuildingBlock: OJICUG_clean_linker_0, # of connection points: 2
#     Edge 100, Type (0, 0), BuildingBlock: OJICUG_clean_linker_0, # of connection points: 2
#     Edge 101, Type (0, 0), BuildingBlock: OJICUG_clean_linker_0, # of connection points: 2
#     Edge 102, Type (0, 0), BuildingBlock: OJICUG_clean_linker_0, # of connection points: 2
#     Edge 103, Type (0, 0), BuildingBlock: OJICUG_clean_linker_0, # of connection points: 2
#     Edge 104, Type (0, 0), BuildingBlock: OJICUG_clean_linker_0, # of connection points: 2
#     Edge 105, Type (0, 0), BuildingBlock: OJICUG_clean_linker_0, # of connection points: 2
#     Edge 106, Type (0, 0), BuildingBlock: OJICUG_clean_linker_0, # of connection points: 2
#     Edge 107, Type (0, 0), BuildingBlock: OJICUG_clean_linker_0, # of connection points: 2
#     Edge 108, Type (0, 0), BuildingBlock: OJICUG_clean_linker_0, # of connection points: 2
#     Edge 109, Type (0, 0), BuildingBlock: OJICUG_clean_linker_0, # of connection points: 2
#     Edge 110, Type (0, 0), BuildingBlock: OJICUG_clean_linker_0, # of connection points: 2
#     Edge 111, Type (0, 0), BuildingBlock: OJICUG_clean_linker_0, # of connection points: 2
#     Edge 112, Type (0, 0), BuildingBlock: OJICUG_clean_linker_0, # of connection points: 2
#     Edge 113, Type (0, 0), BuildingBlock: OJICUG_clean_linker_0, # of connection points: 2
#     Edge 114, Type (0, 0), BuildingBlock: OJICUG_clean_linker_0, # of connection points: 2
#     Edge 115, Type (0, 0), BuildingBlock: OJICUG_clean_linker_0, # of connection points: 2
#     Edge 116, Type (0, 0), BuildingBlock: OJICUG_clean_linker_0, # of connection points: 2
#     Edge 117, Type (0, 0), BuildingBlock: OJICUG_clean_linker_0, # of connection points: 2
#     Edge 118, Type (0, 0), BuildingBlock: OJICUG_clean_linker_0, # of connection points: 2
#     Edge 119, Type (0, 0), BuildingBlock: OJICUG_clean_linker_0, # of connection points: 2
#     Edge 120, Type (0, 0), BuildingBlock: OJICUG_clean_linker_0, # of connection points: 2
#     Edge 121, Type (0, 0), BuildingBlock: OJICUG_clean_linker_0, # of connection points: 2
#     Edge 122, Type (0, 0), BuildingBlock: OJICUG_clean_linker_0, # of connection points: 2
#     Edge 123, Type (0, 0), BuildingBlock: OJICUG_clean_linker_0, # of connection points: 2
#     Edge 124, Type (0, 0), BuildingBlock: OJICUG_clean_linker_0, # of connection points: 2
#     Edge 125, Type (0, 0), BuildingBlock: OJICUG_clean_linker_0, # of connection points: 2
#     Edge 126, Type (0, 0), BuildingBlock: OJICUG_clean_linker_0, # of connection points: 2
#     Edge 127, Type (0, 0), BuildingBlock: OJICUG_clean_linker_0, # of connection points: 2
# Relax obj value: 0.218
# Max RMSD: 0.241
# Mean RMSD: 0.241
data_MOF--net-wio--node1-BETDIP_clean_sbu_0--edge1-OJICUG_clean_linker_0
_symmetry_space_group_name_H-M    P1
_symmetry_Int_Tables_number       1
_symmetry_cell_setting            triclinic
loop_
_symmetry_equiv_pos_as_xyz
'x, y, z'
_cell_length_a     48.76522
_cell_length_b     48.845196
_cell_length_c     41.094521
_cell_angle_alpha  89.999066
_cell_angle_beta   89.969385
_cell_angle_gamma 90.004896
loop_
_atom_site_label
_atom_site_type_symbol
_atom_site_fract_x
_atom_site_fract_y
_atom_site_fract_z
_atom_type_partial_charge
Tb0 Tb 0.15985 0.11199 0.29705 0.0
Tb1 Tb 0.1009 0.12425 0.31152 0.0
C2 C 0.20482 0.09444 0.27578 0.0
C3 C 0.22709 0.10431 0.25465 0.0
C4 C 0.23851 0.08639 0.23182 0.0
C5 C 0.26071 0.09463 0.21277 0.0
C6 C 0.27216 0.12093 0.2164 0.0
C7 C 0.26033 0.13908 0.23894 0.0
C8 C 0.23794 0.13086 0.25787 0.0
C9 C 0.15235 0.15951 0.32663 0.0
C10 C 0.12314 0.13647 0.23962 0.0
C11 C 0.05819 0.14437 0.33773 0.0
C12 C 0.04015 0.14131 0.3668 0.0
C13 C 0.02654 0.16442 0.37931 0.0
C14 C 1.00793 0.16205 0.40533 0.0
C15 C 1.00233 0.13641 0.4195 0.0
C16 C 0.01683 0.11342 0.40761 0.0
C17 C 0.03548 0.11583 0.38163 0.0
C18 C 0.10965 0.073 0.28968 0.0
C19 C 0.13874 0.09553 0.36567 0.0
O20 O 0.18126 0.08912 0.26182 0.0
O21 O 0.20197 0.10706 0.30362 0.0
O22 O 0.1366 0.14918 0.30521 0.0
O23 O 0.1743 0.14485 0.32806 0.0
O24 O 0.14613 0.12438 0.24858 0.0
O25 O 0.10288 0.14096 0.26089 0.0
O26 O 0.08302 0.15342 0.34279 0.0
O27 O 0.05783 0.12494 0.3158 0.0
O28 O 0.12484 0.08741 0.30749 0.0
O29 O 0.08727 0.08703 0.28563 0.0
O30 O 0.11613 0.10984 0.35963 0.0
O31 O 0.15616 0.08956 0.34213 0.0
H32 H 0.23037 0.06589 0.22887 0.0
H33 H 0.26877 0.08037 0.195 0.0
H34 H 0.26863 0.15944 0.24235 0.0
H35 H 0.22939 0.14515 0.2753 0.0
H36 H 0.02983 0.18435 0.3684 0.0
H37 H 0.99714 0.18018 0.41348 0.0
H38 H 0.01353 0.09337 0.41816 0.0
H39 H 0.0459 0.0977 0.3728 0.0
Tb40 Tb 0.16429 0.90893 0.55247 0.0
Tb41 Tb 0.15104 0.84948 0.55947 0.0
C42 C 0.18201 0.95488 0.53463 0.0
C43 C 0.17364 0.97658 0.51154 0.0
C44 C 0.18877 0.98068 0.48292 0.0
C45 C 0.18199 1.0019 0.46165 0.0
C46 C 0.16006 0.01972 0.46862 0.0
C47 C 0.14464 0.0154 0.49703 0.0
C48 C 0.15141 0.9941 0.51834 0.0
C49 C 0.11689 0.89996 0.58129 0.0
C50 C 0.14036 0.87686 0.49019 0.0
C51 C 0.13091 0.80535 0.58197 0.0
C52 C 0.13325 0.78746 0.61132 0.0
C53 C 0.11017 0.77284 0.62236 0.0
C54 C 0.11211 0.75453 0.64873 0.0
C55 C 0.13727 0.75021 0.66473 0.0
C56 C 0.16015 0.76566 0.65424 0.0
C57 C 0.15817 0.78403 0.62797 0.0
C58 C 0.20275 0.85947 0.53981 0.0
C59 C 0.17895 0.88264 0.61866 0.0
O60 O 0.19055 0.93167 0.52217 0.0
O61 O 0.16628 0.95118 0.56002 0.0
O62 O 0.12651 0.88593 0.5577 0.0
O63 O 0.13235 0.92105 0.58573 0.0
O64 O 0.15158 0.89899 0.50303 0.0
O65 O 0.13555 0.85475 0.5085 0.0
O66 O 0.12 0.8295 0.5862 0.0
O67 O 0.15185 0.8064 0.56209 0.0
O68 O 0.18832 0.87306 0.55937 0.0
O69 O 0.18836 0.83801 0.53213 0.0
O70 O 0.16496 0.86067 0.6093 0.0
O71 O 0.18535 0.90222 0.59789 0.0
H72 H 0.20601 0.96759 0.47708 0.0
H73 H 0.19395 1.00431 0.43961 0.0
H74 H 0.12774 0.02883 0.50316 0.0
H75 H 0.13938 0.99164 0.5403 0.0
H76 H 0.09065 0.77515 0.61008 0.0
H77 H 0.09409 0.74299 0.65576 0.0
H78 H 0.17981 0.76336 0.66618 0.0
H79 H 0.17625 0.79523 0.62036 0.0
Tb80 Tb 0.3674 0.91303 0.8002 0.0
Tb81 Tb 0.42698 0.90292 0.80943 0.0
C82 C 0.32162 0.92969 0.78056 0.0
C83 C 0.29959 0.91992 0.75903 0.0
C84 C 0.28668 0.93861 0.73831 0.0
C85 C 0.26479 0.93032 0.71883 0.0
C86 C 0.25514 0.90315 0.71989 0.0
C87 C 0.26846 0.88429 0.74034 0.0
C88 C 0.29055 0.89258 0.7597 0.0
C89 C 0.377 0.86762 0.83274 0.0
C90 C 0.40114 0.88723 0.74047 0.0
C91 C 0.47293 0.88684 0.83162 0.0
C92 C 0.48909 0.88555 0.86255 0.0
C93 C 0.4991 0.8602 0.87368 0.0
C94 C 0.51684 0.85864 0.90061 0.0
C95 C 0.52524 0.88244 0.91728 0.0
C96 C 0.51459 0.90777 0.90653 0.0
C97 C 0.49681 0.90931 0.87963 0.0
C98 C 0.41499 0.95299 0.78618 0.0
C99 C 0.39173 0.93066 0.86635 0.0
O100 O 0.34485 0.93648 0.76665 0.0
O101 O 0.32517 0.91599 0.80757 0.0
O102 O 0.39158 0.87642 0.80909 0.0
O103 O 0.35524 0.88255 0.83511 0.0
O104 O 0.37762 0.89613 0.75246 0.0
O105 O 0.42384 0.88696 0.75864 0.0
O106 O 0.45131 0.87121 0.8291 0.0
O107 O 0.46873 0.91081 0.81846 0.0
O108 O 0.40193 0.93896 0.80658 0.0
O109 O 0.43664 0.93877 0.77877 0.0
O110 O 0.41373 0.91591 0.85887 0.0
O111 O 0.37312 0.93649 0.84413 0.0
H112 H 0.29345 0.95973 0.73731 0.0
H113 H 0.2556 0.94524 0.70268 0.0
H114 H 0.26158 0.86324 0.74176 0.0
H115 H 0.30032 0.87771 0.77544 0.0
H116 H 0.49366 0.84152 0.86103 0.0
H117 H 0.52413 0.8387 0.90819 0.0
H118 H 0.52072 0.92669 0.91815 0.0
H119 H 0.4897 0.92924 0.87175 0.0
Tb120 Tb 0.3662 0.11869 0.05011 0.0
Tb121 Tb 0.37359 0.17922 0.05801 0.0
C122 C 0.35058 0.07174 1.03325 0.0
C123 C 0.35952 0.04923 1.01211 0.0
C124 C 0.34809 0.02324 1.01681 0.0
C125 C 0.35593 1.00137 0.99706 0.0
C126 C 0.37535 1.0051 0.97215 0.0
C127 C 0.38742 0.03107 0.96813 0.0
C128 C 0.37956 0.05301 0.98801 0.0
C129 C 0.41214 0.13201 0.07945 0.0
C130 C 0.38906 0.15299 0.9892 0.0
C131 C 0.38905 0.22539 0.07972 0.0
C132 C 0.38853 0.24126 0.11084 0.0
C133 C 0.41182 0.25619 0.12064 0.0
C134 C 0.41085 0.2738 0.14777 0.0
C135 C 0.38644 0.27713 0.16566 0.0
C136 C 0.36356 0.26111 0.15669 0.0
C137 C 0.36459 0.24341 0.12976 0.0
C138 C 0.32348 0.16488 1.03703 0.0
C139 C 0.34944 0.1434 0.11669 0.0
O140 O 0.34233 0.09432 1.019 0.0
O141 O 0.3662 0.07646 0.05845 0.0
O142 O 0.40112 0.14521 0.05622 0.0
O143 O 0.3996 0.10894 0.0831 0.0
O144 O 0.38133 0.12915 1.00142 0.0
O145 O 0.38876 0.17581 1.00709 0.0
O146 O 0.40484 0.20382 0.07839 0.0
O147 O 0.36566 0.22112 0.06505 0.0
O148 O 0.33861 0.15233 0.05698 0.0
O149 O 0.33663 0.187 1.02887 0.0
O150 O 0.36186 0.1664 0.10787 0.0
O151 O 0.34465 0.12367 0.09556 0.0
H152 H 0.33287 0.01992 1.03563 0.0
H153 H 0.34649 0.98156 1.001 0.0
H154 H 0.40219 0.03467 0.9489 0.0
H155 H 0.38881 0.07293 0.98429 0.0
H156 H 0.43058 0.25495 0.10659 0.0
H157 H 0.42881 0.28585 0.15371 0.0
H158 H 0.3445 0.26279 0.1701 0.0
H159 H 0.34635 0.23202 0.12319 0.0
Tb160 Tb 0.15931 0.91406 0.2857 0.0
Tb161 Tb 0.09991 0.90254 0.27808 0.0
C162 C 0.20581 0.93045 0.30354 0.0
C163 C 0.22697 0.92219 0.32741 0.0
C164 C 0.22728 0.93373 0.35869 0.0
C165 C 0.24811 0.92711 0.38059 0.0
C166 C 0.26918 0.90891 0.37167 0.0
C167 C 0.26866 0.89695 0.34065 0.0
C168 C 0.24785 0.90367 0.31864 0.0
C169 C 0.14977 0.86779 0.25473 0.0
C170 C 0.1264 0.89084 0.34759 0.0
C171 C 0.05426 0.88497 0.25664 0.0
C172 C 0.03739 0.88427 0.22623 0.0
C173 C 0.02701 0.85914 0.21494 0.0
C174 C 1.00886 0.85801 0.18837 0.0
C175 C 1.00043 0.88206 0.17223 0.0
C176 C 1.01147 0.90719 0.18312 0.0
C177 C 0.02965 0.90828 0.20969 0.0
C178 C 0.11112 0.95335 0.29948 0.0
C179 C 0.13427 0.92956 0.21953 0.0
O180 O 0.18276 0.94039 0.31497 0.0
O181 O 0.20181 0.91382 0.27909 0.0
O182 O 0.13568 0.87673 0.27873 0.0
O183 O 0.17092 0.8833 0.25092 0.0
O184 O 0.1491 0.90102 0.33491 0.0
O185 O 0.10411 0.88716 0.32921 0.0
O186 O 0.07677 0.8705 0.25719 0.0
O187 O 0.05752 0.90846 0.2713 0.0
O188 O 0.12421 0.93931 0.27906 0.0
O189 O 0.08985 0.93889 0.30772 0.0
O190 O 0.11233 0.91508 0.22806 0.0
O191 O 0.15314 0.93618 0.24108 0.0
H192 H 0.21162 0.94814 0.36618 0.0
H193 H 0.24777 0.93634 0.40456 0.0
H194 H 0.28473 0.88302 0.3331 0.0
H195 H 0.24838 0.89463 0.29458 0.0
H196 H 0.03251 0.84027 0.22716 0.0
H197 H 1.00131 0.83822 0.18064 0.0
H198 H 1.00535 0.92627 0.17187 0.0
H199 H 0.03712 0.92804 0.2177 0.0
Tb200 Tb 0.36167 0.90887 0.54411 0.0
Tb201 Tb 0.37399 0.85017 0.52855 0.0
C202 C 0.3444 0.95411 0.56486 0.0
C203 C 0.35492 0.97707 0.58424 0.0
C204 C 0.34578 1.00356 0.57702 0.0
C205 C 0.35545 0.02594 0.59471 0.0
C206 C 0.37441 0.02223 0.6201 0.0
C207 C 0.38416 0.99566 0.62667 0.0
C208 C 0.37453 0.97323 0.6088 0.0
C209 C 0.40913 0.90173 0.51389 0.0
C210 C 0.38696 0.87208 0.6005 0.0
C211 C 0.39376 0.80759 0.50173 0.0
C212 C 0.38959 0.78747 0.47459 0.0
C213 C 0.39636 0.79372 0.44201 0.0
C214 C 0.39484 0.77361 0.41742 0.0
C215 C 0.38655 0.74664 0.42468 0.0
C216 C 0.38004 0.7405 0.45735 0.0
C217 C 0.38157 0.76051 0.4818 0.0
C218 C 0.32258 0.85842 0.5509 0.0
C219 C 0.34454 0.88839 0.47552 0.0
O220 O 0.3401 0.93081 0.57988 0.0
O221 O 0.35622 0.95085 0.53664 0.0
O222 O 0.39895 0.88574 0.53512 0.0
O223 O 0.39442 0.92362 0.51305 0.0
O224 O 0.37398 0.89473 0.5923 0.0
O225 O 0.39188 0.85237 0.57867 0.0
O226 O 0.40075 0.83264 0.49421 0.0
O227 O 0.37683 0.80703 0.52646 0.0
O228 O 0.33702 0.87392 0.5335 0.0
O229 O 0.33665 0.83599 0.55402 0.0
O230 O 0.35933 0.86597 0.4808 0.0
O231 O 0.33837 0.90509 0.49969 0.0
H232 H 0.33099 1.00692 0.55776 0.0
H233 H 0.3478 0.04615 0.58879 0.0
H234 H 0.39849 0.99206 0.64633 0.0
H235 H 0.38214 0.95293 0.61441 0.0
H236 H 0.40313 0.81412 0.43548 0.0
H237 H 0.39987 0.7793 0.39266 0.0
H238 H 0.37412 0.71994 0.46428 0.0
H239 H 0.37691 0.75468 0.50663 0.0
Tb240 Tb 0.37123 0.11498 0.78914 0.0
Tb241 Tb 0.43171 0.12157 0.78078 0.0
C242 C 0.32455 0.09981 0.80751 0.0
C243 C 0.30276 0.10867 0.83007 0.0
C244 C 0.29357 0.09035 0.8539 0.0
C245 C 0.2718 0.09737 0.87427 0.0
C246 C 0.25847 0.12279 0.87102 0.0
C247 C 0.26802 0.14138 0.84749 0.0
C248 C 0.28998 0.13439 0.82718 0.0
C249 C 0.38455 0.16036 0.75873 0.0
C250 C 0.40602 0.13724 0.84981 0.0
C251 C 0.47865 0.13562 0.75987 0.0
C252 C 0.49447 0.13741 0.72871 0.0
C253 C 0.5053 0.16268 0.71848 0.0
C254 C 0.52285 0.16435 0.69135 0.0
C255 C 0.53022 0.14073 0.67364 0.0
C256 C 0.51869 0.11554 0.68347 0.0
C257 C 0.5011 0.1139 0.71052 0.0
C258 C 0.4167 0.07195 0.80234 0.0
C259 C 0.39528 0.09799 0.72243 0.0
O260 O 0.34737 0.09079 0.82056 0.0
O261 O 0.32886 0.1152 0.78194 0.0
O262 O 0.398 0.14969 0.78207 0.0
O263 O 0.36135 0.14785 0.75573 0.0
O264 O 0.3819 0.13049 0.83754 0.0
O265 O 0.42886 0.13609 0.83197 0.0
O266 O 0.45839 0.15276 0.76431 0.0
O267 O 0.47271 0.11126 0.77096 0.0
O268 O 0.40445 0.08706 0.78221 0.0
O269 O 0.4389 0.08492 0.81066 0.0
O270 O 0.41824 0.11079 0.7308 0.0
O271 O 0.37585 0.09306 0.74397 0.0
H272 H 0.30309 0.07043 0.85659 0.0
H273 H 0.26549 0.08282 0.8927 0.0
H274 H 0.2582 0.16109 0.84433 0.0
H275 H 0.29663 0.14898 0.80897 0.0
H276 H 0.50071 0.18117 0.73198 0.0
H277 H 0.53085 0.1842 0.68448 0.0
H278 H 0.52402 0.09674 0.67104 0.0
H279 H 0.49334 0.09401 0.71765 0.0
Tb280 Tb 0.16434 0.11608 1.03907 0.0
Tb281 Tb 0.15296 0.17577 1.02998 0.0
C282 C 0.18177 0.0699 0.05648 0.0
C283 C 0.17198 0.04696 0.07639 0.0
C284 C 0.18263 0.02077 0.07078 0.0
C285 C 0.17346 0.9985 0.08909 0.0
C286 C 0.15352 1.00208 0.1135 0.0
C287 C 0.14228 0.02831 0.11834 0.0
C288 C 0.15139 0.05056 0.09982 0.0
C289 C 0.11826 0.12536 1.00759 0.0
C290 C 0.13824 0.14929 0.09911 0.0
C291 C 0.13456 0.22052 1.00701 0.0
C292 C 0.13646 0.23869 0.97763 0.0
C293 C 0.11395 0.24122 0.95634 0.0
C294 C 0.11427 0.26011 0.93043 0.0
C295 C 0.13715 0.27715 0.92495 0.0
C296 C 0.15978 0.27434 0.94614 0.0
C297 C 0.15943 0.2555 0.97203 0.0
C298 C 0.20392 0.16464 0.05176 0.0
C299 C 0.18131 0.14138 0.97269 0.0
O300 O 0.18788 0.09274 0.07165 0.0
O301 O 0.16782 0.07414 1.02985 0.0
O302 O 0.12733 0.13989 1.03108 0.0
O303 O 0.13319 0.10368 1.0051 0.0
O304 O 0.14852 0.12622 0.08745 0.0
O305 O 0.13642 0.17166 0.08049 0.0
O306 O 0.12249 0.19682 1.00354 0.0
O307 O 0.15574 0.21876 1.02641 0.0
O308 O 0.18948 0.15114 1.03219 0.0
O309 O 0.1899 0.18658 0.05838 0.0
O310 O 0.16726 0.16363 0.98076 0.0
O311 O 0.18699 0.12233 0.99444 0.0
H312 H 0.19819 0.01757 0.05233 0.0
H313 H 0.18228 0.97853 0.08446 0.0
H314 H 0.12717 0.03187 0.13719 0.0
H315 H 0.14261 0.07058 0.10401 0.0
H316 H 0.09576 0.22887 0.96007 0.0
H317 H 0.09652 0.26133 0.91468 0.0
H318 H 0.17763 0.28731 0.94338 0.0
H319 H 0.17702 0.25455 0.98807 0.0
Tb320 Tb 0.92329 0.89831 0.77649 0.0
Tb321 Tb 0.86441 0.91126 0.7911 0.0
C322 C 0.96573 0.8778 0.75007 0.0
C323 C 0.98455 0.88111 0.72168 0.0
C324 C 0.99551 0.8577 0.7065 0.0
C325 C 0.01501 0.85998 0.68137 0.0
C326 C 0.0242 0.88582 0.67079 0.0
C327 C 1.0123 0.90926 0.68524 0.0
C328 C 0.99278 0.90696 0.71032 0.0
C329 C 0.91509 0.94982 0.79793 0.0
C330 C 0.88559 0.92712 0.72234 0.0
C331 C 0.81957 0.92891 0.81271 0.0
C332 C 0.79749 0.91892 0.83408 0.0
C333 C 0.78586 0.93686 0.85674 0.0
C334 C 0.76393 0.92842 0.8761 0.0
C335 C 0.75296 0.90186 0.873 0.0
C336 C 0.76499 0.88371 0.85061 0.0
C337 C 0.78711 0.89214 0.83135 0.0
C338 C 0.87154 0.86346 0.76196 0.0
C339 C 0.90104 0.8864 0.84829 0.0
O340 O 0.94069 0.86988 0.74391 0.0
O341 O 0.96638 0.8963 0.77311 0.0
O342 O 0.89962 0.93547 0.7804 0.0
O343 O 0.93739 0.93563 0.80182 0.0
O344 O 0.90801 0.91255 0.72843 0.0
O345 O 0.86826 0.93346 0.74586 0.0
O346 O 0.84322 0.93423 0.82643 0.0
O347 O 0.82225 0.91635 0.78481 0.0
O348 O 0.88733 0.87389 0.78323 0.0
O349 O 0.84967 0.87823 0.76046 0.0
O350 O 0.87851 0.8994 0.83952 0.0
O351 O 0.92093 0.88105 0.82682 0.0
H352 H 0.98948 0.83749 0.71469 0.0
H353 H 0.02367 0.84146 0.67117 0.0
H354 H 0.01835 0.92956 0.67745 0.0
H355 H 0.98453 0.92539 0.72122 0.0
H356 H 0.79365 0.95753 0.85933 0.0
H357 H 0.75572 0.94271 0.89374 0.0
H358 H 0.75706 0.86316 0.84758 0.0
H359 H 0.79584 0.87783 0.81408 0.0
Tb360 Tb 0.87763 0.17368 0.5281 0.0
Tb361 Tb 0.86348 0.11465 0.53957 0.0
C362 C 0.89844 0.21672 0.50369 0.0
C363 C 0.89462 0.23676 0.47641 0.0
C364 C 0.90179 0.23041 0.44398 0.0
C365 C 0.90002 0.2503 0.41918 0.0
C366 C 0.89105 0.27711 0.42606 0.0
C367 C 0.88423 0.28339 0.4586 0.0
C368 C 0.88603 0.26361 0.48329 0.0
C369 C 0.8256 0.16542 0.54775 0.0
C370 C 0.84965 0.13832 0.47128 0.0
C371 C 0.84378 0.06952 0.55755 0.0
C372 C 0.85179 0.04666 0.57855 0.0
C373 C 0.83814 0.02162 0.5753 0.0
C374 C 0.84559 0.99932 0.59458 0.0
C375 C 0.86684 1.00174 0.61751 0.0
C376 C 0.88096 0.02678 0.62014 0.0
C377 C 0.8735 0.0491 0.60073 0.0
C378 C 0.91194 0.12187 0.51195 0.0
C379 C 0.88788 0.14902 0.59906 0.0
O380 O 0.90605 0.19184 0.49626 0.0
O381 O 0.88062 0.21684 0.52755 0.0
O382 O 0.84008 0.15047 0.52976 0.0
O383 O 0.83997 0.18735 0.55318 0.0
O384 O 0.86398 0.16048 0.47902 0.0
O385 O 0.84278 0.1201 0.49355 0.0
O386 O 0.83819 0.09286 0.57183 0.0
O387 O 0.85884 0.07265 0.53155 0.0
O388 O 0.90143 0.13719 0.53366 0.0
O389 O 0.89684 0.10033 0.50921 0.0
O390 O 0.87454 0.12708 0.58893 0.0
O391 O 0.89423 0.16932 0.57858 0.0
H392 H 0.90895 0.2101 0.43771 0.0
H393 H 0.9053 0.24453 0.39452 0.0
H394 H 0.87777 0.30385 0.46522 0.0
H395 H 0.881 0.26949 0.508 0.0
H396 H 0.82161 0.01933 0.55789 0.0
H397 H 0.83452 0.98024 0.59176 0.0
H398 H 0.89717 0.02938 0.63788 0.0
H399 H 0.88447 0.06828 0.60323 0.0
Tb400 Tb 0.59971 0.12231 0.27969 0.0
Tb401 Tb 0.65918 0.11177 0.29027 0.0
C402 C 0.5548 0.14023 0.25673 0.0
C403 C 0.53791 0.14013 0.2264 0.0
C404 C 0.52811 0.16506 0.21385 0.0
C405 C 0.51001 0.16563 0.18725 0.0
C406 C 0.50108 0.14121 0.17235 0.0
C407 C 0.51152 0.11625 0.18451 0.0
C408 C 0.52965 0.11571 0.21113 0.0
C409 C 0.61054 0.07186 0.30243 0.0
C410 C 0.6354 0.0943 0.22339 0.0
C411 C 0.70477 0.09462 0.30993 0.0
C412 C 0.72703 0.10365 0.33166 0.0
C413 C 0.73669 0.08562 0.35551 0.0
C414 C 0.75891 0.09287 0.37505 0.0
C415 C 0.77219 0.11824 0.37092 0.0
C416 C 0.76216 0.13653 0.34736 0.0
C417 C 0.73975 0.12933 0.32792 0.0
C418 C 0.64977 0.15749 0.25811 0.0
C419 C 0.62485 0.13763 0.34922 0.0
O420 O 0.57781 0.1539 0.25621 0.0
O421 O 0.5572 0.11737 0.273 0.0
O422 O 0.6245 0.08596 0.28285 0.0
O423 O 0.58873 0.08612 0.30898 0.0
O424 O 0.61298 0.10843 0.2307 0.0
O425 O 0.65406 0.08889 0.24572 0.0
O426 O 0.68143 0.08783 0.32363 0.0
O427 O 0.70141 0.10868 0.28315 0.0
O428 O 0.63521 0.14836 0.28152 0.0
O429 O 0.67163 0.14271 0.25578 0.0
O430 O 0.64857 0.12848 0.33814 0.0
O431 O 0.60258 0.13824 0.33038 0.0
H432 H 0.53405 0.18423 0.2251 0.0
H433 H 0.50289 0.18528 0.17849 0.0
H434 H 0.50498 0.09693 0.1742 0.0
H435 H 0.53669 0.0961 0.22017 0.0
H436 H 0.72716 0.06577 0.35885 0.0
H437 H 0.76557 0.07856 0.39356 0.0
H438 H 0.77191 0.15619 0.34353 0.0
H439 H 0.73268 0.14371 0.3097 0.0
Tb440 Tb 0.65249 0.84304 1.03264 0.0
Tb441 Tb 0.65974 0.90352 1.04006 0.0
C442 C 0.6365 0.79695 1.01109 0.0
C443 C 0.63605 0.78105 0.97997 0.0
C444 C 0.61293 0.76515 0.97197 0.0
C445 C 0.61307 0.74766 0.9447 0.0
C446 C 0.63648 0.74543 0.92478 0.0
C447 C 0.65915 0.76237 0.93206 0.0
C448 C 0.65894 0.77993 0.95919 0.0
C449 C 0.70266 0.85748 0.05319 0.0
C450 C 0.67648 0.87882 0.97357 0.0
C451 C 0.67478 0.95036 0.05783 0.0
C452 C 0.66621 0.972 0.08082 0.0
C453 C 0.68311 0.9783 0.10736 0.0
C454 C 0.67661 1.00002 0.128 0.0
C455 C 0.6532 0.0162 0.12237 0.0
C456 C 0.63593 1.00956 0.09619 0.0
C457 C 0.6424 0.98771 0.07555 0.0
C458 C 0.61391 0.88984 1.01066 0.0
C459 C 0.63742 0.86945 0.10157 0.0
O460 O 0.62078 0.81855 1.01306 0.0
O461 O 0.66031 0.8012 1.0248 0.0
O462 O 0.68745 0.87001 1.0333 0.0
O463 O 0.68962 0.83529 0.06145 0.0
O464 O 0.66429 0.85575 0.98267 0.0
O465 O 0.68103 0.8988 0.99445 0.0
O466 O 0.68459 0.92767 0.07038 0.0
O467 O 0.65875 0.94583 1.03289 0.0
O468 O 0.62486 0.87699 1.03422 0.0
O469 O 0.62656 0.91282 1.00655 0.0
O470 O 0.64473 0.89323 0.08884 0.0
O471 O 0.6379 0.84647 0.08394 0.0
H472 H 0.59497 0.76558 0.98749 0.0
H473 H 0.59531 0.73492 0.94015 0.0
H474 H 0.67742 0.76162 0.91709 0.0
H475 H 0.677 0.79208 0.96437 0.0
H476 H 0.7016 0.96663 0.11193 0.0
H477 H 0.69003 1.00416 0.14842 0.0
H478 H 0.61781 0.02166 0.09117 0.0
H479 H 0.62898 0.98348 0.05517 0.0
Tb480 Tb 0.92844 0.11951 0.80861 0.0
Tb481 Tb 0.86801 0.11109 0.80266 0.0
C482 C 0.97432 0.13638 0.82993 0.0
C483 C 0.99075 0.13626 0.86068 0.0
C484 C 1.00323 0.16056 0.87174 0.0
C485 C 0.02137 0.16037 0.89843 0.0
C486 C 0.02768 0.13576 0.91463 0.0
C487 C 0.01406 0.11172 0.90447 0.0
C488 C 0.99587 0.11195 0.87796 0.0
C489 C 0.91483 0.06951 0.78722 0.0
C490 C 0.8939 0.09325 0.86787 0.0
C491 C 0.82064 0.09716 0.78517 0.0
C492 C 0.7995 0.10666 0.76193 0.0
C493 C 0.79265 0.09011 0.73528 0.0
C494 C 0.77166 0.09777 0.7141 0.0
C495 C 0.75675 0.12209 0.71922 0.0
C496 C 0.76393 0.13897 0.74554 0.0
C497 C 0.78505 0.13131 0.76676 0.0
C498 C 0.88155 0.15689 0.83228 0.0
C499 C 0.901 0.13376 0.74023 0.0
O500 O 0.95208 0.15128 0.82936 0.0
O501 O 0.97078 0.11308 0.81484 0.0
O502 O 0.90223 0.08398 0.80782 0.0
O503 O 0.93664 0.08311 0.77876 0.0
O504 O 0.91662 0.10613 0.85854 0.0
O505 O 0.87364 0.08875 0.84732 0.0
O506 O 0.84306 0.08659 0.7728 0.0
O507 O 0.82565 0.11294 0.81018 0.0
O508 O 0.89395 0.14646 0.80805 0.0
O509 O 0.85915 0.14351 0.83739 0.0
O510 O 0.87792 0.12491 0.75347 0.0
O511 O 0.92407 0.135 0.7577 0.0
H512 H 0.99966 0.17964 0.85898 0.0
H513 H 0.03147 0.17923 0.90534 0.0
H514 H 0.01799 0.09243 0.91659 0.0
H515 H 0.98645 0.09289 0.87044 0.0
H516 H 0.80339 0.07102 0.73098 0.0
H517 H 0.7671 0.08458 0.69362 0.0
H518 H 0.75281 0.15777 0.75019 0.0
H519 H 0.78973 0.14453 0.78716 0.0
Tb520 Tb 0.65619 0.17984 0.55805 0.0
Tb521 Tb 0.66395 0.11939 0.54926 0.0
C522 C 0.63985 0.22546 0.58054 0.0
C523 C 0.63957 0.24093 0.61194 0.0
C524 C 0.61639 0.25649 0.62062 0.0
C525 C 0.61669 0.27361 0.6482 0.0
C526 C 0.6403 0.27579 0.66775 0.0
C527 C 0.66305 0.25918 0.65979 0.0
C528 C 0.66268 0.24198 0.63235 0.0
C529 C 0.70597 0.16627 0.53587 0.0
C530 C 0.68167 0.14355 0.61577 0.0
C531 C 0.67966 0.07255 0.53212 0.0
C532 C 0.671 0.0501 0.51082 0.0
C533 C 0.68375 0.02459 0.51418 0.0
C534 C 0.67614 1.00275 0.49428 0.0
C535 C 0.65562 1.00606 0.47059 0.0
C536 C 0.64231 0.03154 0.46788 0.0
C537 C 0.64996 0.05345 0.48789 0.0
C538 C 0.61815 0.13257 0.57928 0.0
C539 C 0.64099 0.154 0.48873 0.0
O540 O 0.62435 0.2037 0.57844 0.0
O541 O 0.66357 0.22167 0.5664 0.0
O542 O 0.69133 0.15323 0.55592 0.0
O543 O 0.69264 0.18848 0.52846 0.0
O544 O 0.66881 0.16652 0.60759 0.0
O545 O 0.68628 0.12415 0.59415 0.0
O546 O 0.68788 0.09521 0.51801 0.0
O547 O 0.66385 0.07712 0.55722 0.0
O548 O 0.62903 0.14567 0.55594 0.0
O549 O 0.63086 0.1096 0.58294 0.0
O550 O 0.64875 0.13009 0.50072 0.0
O551 O 0.64117 0.17669 0.50691 0.0
H552 H 0.59827 0.2561 0.60539 0.0
H553 H 0.59886 0.28612 0.65331 0.0
H554 H 0.68147 0.2599 0.67446 0.0
H555 H 0.6808 0.23008 0.62664 0.0
H556 H 0.69979 0.02161 0.53208 0.0
H557 H 0.68655 0.98331 0.49717 0.0
H558 H 0.62665 0.03479 0.4496 0.0
H559 H 0.63973 0.073 0.48523 0.0
Tb560 Tb 0.59954 0.90121 0.31213 0.0
Tb561 Tb 0.65876 0.91268 0.29788 0.0
C562 C 0.55659 0.8818 0.33861 0.0
C563 C 0.53672 0.88588 0.36609 0.0
C564 C 0.54255 0.87696 0.39803 0.0
C565 C 0.5226 0.87847 0.42284 0.0
C566 C 0.4962 0.8889 0.41646 0.0
C567 C 0.49044 0.89757 0.38441 0.0
C568 C 0.5103 0.89605 0.35972 0.0
C569 C 0.60871 0.95231 0.28986 0.0
C570 C 0.63714 0.93062 0.36598 0.0
C571 C 0.70377 0.92959 0.27602 0.0
C572 C 0.72556 0.9192 0.25454 0.0
C573 C 0.73927 0.9375 0.23404 0.0
C574 C 0.7612 0.92857 0.21497 0.0
C575 C 0.77007 0.90113 0.21624 0.0
C576 C 0.75587 0.88266 0.23639 0.0
C577 C 0.73376 0.89161 0.25533 0.0
C578 C 0.6506 0.86601 0.32885 0.0
C579 C 0.62259 0.88631 0.24116 0.0
O580 O 0.58156 0.87413 0.34573 0.0
O581 O 0.55629 0.89919 0.31436 0.0
O582 O 0.6239 0.93775 0.30749 0.0
O583 O 0.58614 0.9385 0.28622 0.0
O584 O 0.61435 0.91662 0.35989 0.0
O585 O 0.65514 0.93565 0.3427 0.0
O586 O 0.68014 0.93537 0.26244 0.0
O587 O 0.70101 0.91692 0.30385 0.0
O588 O 0.63514 0.87591 0.30685 0.0
O589 O 0.67262 0.8806 0.33028 0.0
O590 O 0.64592 0.89775 0.25008 0.0
O591 O 0.60175 0.88351 0.26205 0.0
H592 H 0.56247 0.86848 0.40386 0.0
H593 H 0.52799 0.87173 0.4471 0.0
H594 H 0.47028 0.90519 0.37811 0.0
H595 H 0.50473 0.90241 0.33535 0.0
H596 H 0.73316 0.95881 0.23297 0.0
H597 H 0.77109 0.94321 0.19903 0.0
H598 H 0.76212 0.86143 0.23797 0.0
H599 H 0.72335 0.87705 0.27094 0.0
Tb600 Tb 0.87252 0.84397 0.05712 0.0
Tb601 Tb 0.86462 0.90446 0.0516 0.0
C602 C 0.88892 0.79775 0.07781 0.0
C603 C 0.88875 0.78111 0.10838 0.0
C604 C 0.91214 0.76592 0.11716 0.0
C605 C 0.91167 0.74792 0.14396 0.0
C606 C 0.88767 0.74447 0.1626 0.0
C607 C 0.86465 0.76067 0.15455 0.0
C608 C 0.86517 0.77873 0.12789 0.0
C609 C 0.82217 0.85828 1.03698 0.0
C610 C 0.84769 0.87835 0.11711 0.0
C611 C 0.85025 0.95174 1.03462 0.0
C612 C 0.85948 0.97323 1.01178 0.0
C613 C 0.8413 0.98266 0.98791 0.0
C614 C 0.84878 1.00407 0.96724 0.0
C615 C 0.87459 0.01679 0.97015 0.0
C616 C 0.89305 1.00697 0.99367 0.0
C617 C 0.88558 0.98541 1.01431 0.0
C618 C 0.91073 0.89052 0.0803 0.0
C619 C 0.8869 0.87165 0.98889 0.0
O620 O 0.90411 0.81978 0.07739 0.0
O621 O 0.86551 0.80174 0.06305 0.0
O622 O 0.83722 0.87056 0.05726 0.0
O623 O 0.83546 0.83643 1.02807 0.0
O624 O 0.86012 0.85558 0.10735 0.0
O625 O 0.84304 0.89875 0.09684 0.0
O626 O 0.83999 0.92937 1.02183 0.0
O627 O 0.8661 0.94668 0.05957 0.0
O628 O 0.89985 0.87819 0.05631 0.0
O629 O 0.89773 0.91311 0.08548 0.0
O630 O 0.87846 0.89479 1.0023 0.0
O631 O 0.88768 0.84846 1.00611 0.0
H632 H 0.93063 0.76733 0.10263 0.0
H633 H 0.92973 0.73579 0.14913 0.0
H634 H 0.8459 0.75899 0.16855 0.0
H635 H 0.84688 0.79032 0.1221 0.0
H636 H 0.82112 0.97361 0.98542 0.0
H637 H 0.83429 1.01059 0.94884 0.0
H638 H 0.91304 0.01632 0.99659 0.0
H639 H 0.9001 0.97858 1.03251 0.0
Tb640 Tb 0.65601 0.61042 0.79772 0.0
Tb641 Tb 0.59663 0.61982 0.80807 0.0
C642 C 0.70161 0.59381 0.77742 0.0
C643 C 0.72349 0.60313 0.75525 0.0
C644 C 0.73134 0.58623 0.72935 0.0
C645 C 0.75316 0.59364 0.70924 0.0
C646 C 0.76784 0.61802 0.71482 0.0
C647 C 0.7596 0.63525 0.7404 0.0
C648 C 0.73762 0.62789 0.76045 0.0
C649 C 0.64648 0.65559 0.83084 0.0
C650 C 0.62161 0.63608 0.73875 0.0
C651 C 0.55054 0.63514 0.83063 0.0
C652 C 0.53476 0.63678 0.86183 0.0
C653 C 0.52461 0.66217 0.8726 0.0
C654 C 0.50699 0.6639 0.89965 0.0
C655 C 0.49886 0.64022 0.91677 0.0
C656 C 0.50972 0.61487 0.90641 0.0
C657 C 0.52737 0.61317 0.87941 0.0
C658 C 0.60866 0.56983 0.78464 0.0
C659 C 0.63293 0.59312 0.86449 0.0
O660 O 0.67822 0.5867 0.76412 0.0
O661 O 0.69834 0.60778 0.8043 0.0
O662 O 0.63165 0.6468 0.80739 0.0
O663 O 0.6684 0.64084 0.83261 0.0
O664 O 0.64547 0.62784 0.75033 0.0
O665 O 0.59905 0.6356 0.75717 0.0
O666 O 0.5716 0.65138 0.82694 0.0
O667 O 0.55532 0.61094 0.8184 0.0
O668 O 0.62189 0.58391 0.80486 0.0
O669 O 0.58701 0.58404 0.77731 0.0
O670 O 0.61069 0.60761 0.85741 0.0
O671 O 0.65112 0.58714 0.84185 0.0
H672 H 0.72074 0.5671 0.72484 0.0
H673 H 0.75847 0.58023 0.68922 0.0
H674 H 0.77049 0.65412 0.74535 0.0
H675 H 0.73201 0.64139 0.78026 0.0
H676 H 0.52978 0.68075 0.85955 0.0
H677 H 0.49953 0.68386 0.90693 0.0
H678 H 0.50379 0.59604 0.91839 0.0
H679 H 0.53458 0.5932 0.87181 0.0
Tb680 Tb 0.66246 0.40818 0.04905 0.0
Tb681 Tb 0.65054 0.34855 0.06006 0.0
C682 C 0.6807 0.45356 1.02999 0.0
C683 C 0.6715 0.476 1.00895 0.0
C684 C 0.68299 0.50202 1.0131 0.0
C685 C 0.67423 0.52392 0.99393 0.0
C686 C 0.65384 0.52015 0.97015 0.0
C687 C 0.64185 0.49409 0.96664 0.0
C688 C 0.65058 0.47219 0.98598 0.0
C689 C 0.61605 0.39964 0.08018 0.0
C690 C 0.63596 0.37396 0.9902 0.0
C691 C 0.63099 0.30481 0.08434 0.0
C692 C 0.63336 0.28684 0.11366 0.0
C693 C 0.60968 0.27446 0.12663 0.0
C694 C 0.61141 0.25557 0.15244 0.0
C695 C 0.63696 0.24839 0.16592 0.0
C696 C 0.66055 0.2617 0.15365 0.0
C697 C 0.65879 0.28063 0.12792 0.0
C698 C 0.70187 0.35877 1.0387 0.0
C699 C 0.6787 0.38421 0.11646 0.0
O700 O 0.68671 0.43021 1.01589 0.0
O701 O 0.66634 0.45031 0.05654 0.0
O702 O 0.62551 0.38461 0.05739 0.0
O703 O 0.63079 0.42153 0.08206 0.0
O704 O 0.64648 0.39717 1.00108 0.0
O705 O 0.63403 0.35196 1.00944 0.0
O706 O 0.62025 0.32905 0.08851 0.0
O707 O 0.65161 0.30555 0.06398 0.0
O708 O 0.6872 0.37296 0.05736 0.0
O709 O 0.68788 0.33661 1.03303 0.0
O710 O 0.66495 0.36165 0.10886 0.0
O711 O 0.68437 0.40296 0.09432 0.0
H712 H 0.69882 0.5054 1.03116 0.0
H713 H 0.68365 0.54379 0.99749 0.0
H714 H 0.62637 0.49041 0.94827 0.0
H715 H 0.64121 0.45229 0.98284 0.0
H716 H 0.58977 0.27887 0.11617 0.0
H717 H 0.59281 0.24576 0.16091 0.0
H718 H 0.68058 0.25719 0.16367 0.0
H719 H 0.6774 0.28999 0.11878 0.0
Tb720 Tb 0.86774 0.41067 0.29913 0.0
Tb721 Tb 0.92711 0.398 0.31244 0.0
C722 C 0.82298 0.42916 0.2785 0.0
C723 C 0.80082 0.42012 0.25668 0.0
C724 C 0.79113 0.43815 0.23286 0.0
C725 C 0.76914 0.43073 0.21304 0.0
C726 C 0.75613 0.40518 0.21688 0.0
C727 C 0.76619 0.38691 0.24044 0.0
C728 C 0.78838 0.39428 0.26013 0.0
C729 C 0.87539 0.36301 0.3281 0.0
C730 C 0.90341 0.38553 0.24121 0.0
C731 C 0.97017 0.37801 0.33779 0.0
C732 C 0.99025 0.38213 0.36497 0.0
C733 C 0.98365 0.37616 0.39766 0.0
C734 C 1.00365 0.37794 0.42236 0.0
C735 C 0.0308 0.38571 0.4151 0.0
C736 C 0.03729 0.39141 0.38232 0.0
C737 C 0.0174 0.38961 0.35774 0.0
C738 C 0.91801 0.44968 0.29201 0.0
C739 C 0.88996 0.42593 0.36781 0.0
O740 O 0.84666 0.43492 0.265 0.0
O741 O 0.82563 0.4156 0.30575 0.0
O742 O 0.89109 0.37348 0.30671 0.0
O743 O 0.85328 0.37747 0.32953 0.0
O744 O 0.88069 0.39794 0.25051 0.0
O745 O 0.92393 0.38094 0.26207 0.0
O746 O 0.94524 0.37044 0.34529 0.0
O747 O 0.97035 0.39547 0.3136 0.0
O748 O 0.90304 0.43477 0.30947 0.0
O749 O 0.9405 0.43591 0.28759 0.0
O750 O 0.91273 0.41219 0.36087 0.0
O751 O 0.87184 0.43187 0.34503 0.0
H752 H 0.80049 0.4581 0.22971 0.0
H753 H 0.76245 0.44503 0.19454 0.0
H754 H 0.75665 0.36713 0.24407 0.0
H755 H 0.79552 0.3799 0.27831 0.0
H756 H 0.96307 0.36989 0.40421 0.0
H757 H 0.99771 0.37356 0.44722 0.0
H758 H 0.058 0.39693 0.37542 0.0
H759 H 0.02344 0.39369 0.33284 0.0
Tb760 Tb 0.86084 0.61759 0.5458 0.0
Tb761 Tb 0.87332 0.67671 0.55907 0.0
C762 C 0.84249 0.57286 0.52505 0.0
C763 C 0.85192 0.55039 0.50391 0.0
C764 C 0.83443 0.54059 0.47957 0.0
C765 C 0.8421 0.51819 0.46058 0.0
C766 C 0.86736 0.50489 0.46577 0.0
C767 C 0.88512 0.51509 0.48981 0.0
C768 C 0.8775 0.53767 0.50868 0.0
C769 C 0.90812 0.62509 0.57575 0.0
C770 C 0.88673 0.6531 0.48805 0.0
C771 C 0.89324 0.71974 0.58461 0.0
C772 C 0.8903 0.73752 0.61393 0.0
C773 C 0.91349 0.75106 0.62643 0.0
C774 C 0.91122 0.76939 0.6527 0.0
C775 C 0.8856 0.7748 0.66718 0.0
C776 C 0.86253 0.76041 0.65525 0.0
C777 C 0.86485 0.74203 0.62902 0.0
C778 C 0.82186 0.66763 0.53764 0.0
C779 C 0.84506 0.63979 0.61421 0.0
O780 O 0.83728 0.59642 0.51103 0.0
O781 O 0.85537 0.57566 0.55274 0.0
O782 O 0.89808 0.64073 0.55401 0.0
O783 O 0.89342 0.60316 0.57714 0.0
O784 O 0.87504 0.63005 0.4975 0.0
O785 O 0.89018 0.67404 0.5086 0.0
O786 O 0.90302 0.69516 0.5892 0.0
O787 O 0.87333 0.71972 0.56327 0.0
O788 O 0.83639 0.65276 0.55569 0.0
O789 O 0.83601 0.68981 0.53279 0.0
O790 O 0.85916 0.66233 0.60748 0.0
O791 O 0.83899 0.62187 0.59127 0.0
H792 H 0.81468 0.55014 0.47541 0.0
H793 H 0.82823 0.51138 0.44166 0.0
H794 H 0.90467 0.50535 0.49446 0.0
H795 H 0.89147 0.54489 0.52728 0.0
H796 H 0.9334 0.74792 0.61532 0.0
H797 H 0.9294 0.7801 0.66085 0.0
H798 H 0.84251 0.76356 0.66601 0.0
H799 H 0.84665 0.73168 0.62023 0.0
Tb800 Tb 0.65755 0.41133 0.79345 0.0
Tb801 Tb 0.59873 0.39876 0.7779 0.0
C802 C 0.70208 0.42916 0.81568 0.0
C803 C 0.72413 0.41889 0.83683 0.0
C804 C 0.73741 0.4371 0.85783 0.0
C805 C 0.7595 0.42829 0.87669 0.0
C806 C 0.76896 0.40108 0.87471 0.0
C807 C 0.75523 0.3827 0.85404 0.0
C808 C 0.73296 0.39151 0.8353 0.0
C809 C 0.65083 0.36357 0.76421 0.0
C810 C 0.62042 0.38648 0.85009 0.0
C811 C 0.55629 0.37877 0.75096 0.0
C812 C 0.53609 0.38291 0.72389 0.0
C813 C 0.54287 0.37789 0.69101 0.0
C814 C 0.52278 0.37937 0.66637 0.0
C815 C 0.49533 0.38588 0.67386 0.0
C816 C 0.48868 0.39062 0.70682 0.0
C817 C 0.50867 0.38913 0.73133 0.0
C818 C 0.60703 0.45048 0.79883 0.0
C819 C 0.6372 0.4273 0.72424 0.0
O820 O 0.67831 0.43397 0.82942 0.0
O821 O 0.69965 0.41701 0.78749 0.0
O822 O 0.63447 0.37397 0.78496 0.0
O823 O 0.67285 0.37816 0.76363 0.0
O824 O 0.64323 0.39913 0.84167 0.0
O825 O 0.60062 0.38156 0.82836 0.0
O826 O 0.58146 0.37222 0.74329 0.0
O827 O 0.55552 0.39542 0.77593 0.0
O828 O 0.62258 0.43564 0.78201 0.0
O829 O 0.5845 0.43658 0.80222 0.0
O830 O 0.61444 0.41318 0.7301 0.0
O831 O 0.65451 0.43326 0.7479 0.0
H832 H 0.73081 0.45824 0.85947 0.0
H833 H 0.76903 0.44284 0.89304 0.0
H834 H 0.76195 0.36164 0.85191 0.0
H835 H 0.7229 0.37702 0.8193 0.0
H836 H 0.56366 0.37254 0.68427 0.0
H837 H 0.52886 0.37576 0.64139 0.0
H838 H 0.46778 0.39514 0.71391 0.0
H839 H 0.50249 0.39241 0.75636 0.0
Tb840 Tb 0.8644 0.40415 1.03876 0.0
Tb841 Tb 0.87156 0.34366 1.03292 0.0
C842 C 0.84956 0.45179 0.05406 0.0
C843 C 0.8585 0.47426 0.07525 0.0
C844 C 0.84552 0.4997 0.07257 0.0
C845 C 0.85331 0.5214 0.09263 0.0
C846 C 0.87419 0.518 0.1159 0.0
C847 C 0.88779 0.49262 0.11779 0.0
C848 C 0.88002 0.47091 0.09752 0.0
C849 C 0.90998 0.38998 1.00892 0.0
C850 C 0.88696 0.37108 0.10107 0.0
C851 C 0.88698 0.29708 1.01241 0.0
C852 C 0.8878 0.28064 0.98165 0.0
C853 C 0.91299 0.27047 0.9701 0.0
C854 C 0.91413 0.2528 0.94308 0.0
C855 C 0.89006 0.24466 0.92673 0.0
C856 C 0.86488 0.25545 0.93791 0.0
C857 C 0.86376 0.27313 0.96491 0.0
C858 C 0.82153 0.35855 0.0538 0.0
C859 C 0.84699 0.37818 0.9733 0.0
O860 O 0.8403 0.42963 0.06837 0.0
O861 O 0.86582 0.44625 1.02967 0.0
O862 O 0.8994 0.37753 1.03306 0.0
O863 O 0.89712 0.41273 1.00439 0.0
O864 O 0.87903 0.39451 0.08789 0.0
O865 O 0.88684 0.34789 0.08383 0.0
O866 O 0.90308 0.31843 1.01436 0.0
O867 O 0.8631 0.30184 1.02572 0.0
O868 O 0.83658 0.37056 1.03329 0.0
O869 O 0.83474 0.33665 0.06272 0.0
O870 O 0.85964 0.35545 0.98268 0.0
O871 O 0.84226 0.3983 0.99392 0.0
H872 H 0.82914 0.50273 0.05513 0.0
H873 H 0.84268 0.54077 0.09026 0.0
H874 H 0.90374 0.48923 0.13567 0.0
H875 H 0.89051 0.45146 0.09948 0.0
H876 H 0.93189 0.27577 0.98244 0.0
H877 H 0.93396 0.2454 0.93516 0.0
H878 H 0.84578 0.24952 0.9265 0.0
H879 H 0.84394 0.28041 0.97309 0.0
Tb880 Tb 0.8678 0.60907 0.2894 0.0
Tb881 Tb 0.92718 0.61877 0.27971 0.0
C882 C 0.82201 0.59284 0.30961 0.0
C883 C 0.80021 0.60236 0.33179 0.0
C884 C 0.79185 0.58529 0.3573 0.0
C885 C 0.77015 0.59293 0.37747 0.0
C886 C 0.75608 0.61773 0.37235 0.0
C887 C 0.76483 0.63512 0.34716 0.0
C888 C 0.78671 0.62752 0.32705 0.0
C889 C 0.87749 0.65383 0.25551 0.0
C890 C 0.9016 0.63547 0.34853 0.0
C891 C 0.97327 0.63432 0.25743 0.0
C892 C 0.98894 0.63674 0.22626 0.0
C893 C 1.00187 0.66162 0.21845 0.0
C894 C 0.01945 0.6637 0.19142 0.0
C895 C 0.02475 0.64088 0.17135 0.0
C896 C 1.011 0.61617 0.17867 0.0
C897 C 0.99338 0.61413 0.20568 0.0
C898 C 0.91535 0.56912 0.30421 0.0
C899 C 0.89162 0.59074 0.22344 0.0
O900 O 0.84532 0.58554 0.32294 0.0
O901 O 0.82543 0.60676 0.28272 0.0
O902 O 0.89199 0.6455 0.27944 0.0
O903 O 0.8558 0.63878 0.25341 0.0
O904 O 0.87792 0.62697 0.33666 0.0
O905 O 0.92434 0.63494 0.33043 0.0
O906 O 0.9524 0.65065 0.26192 0.0
O907 O 0.9683 0.60978 0.26858 0.0
O908 O 0.90219 0.58271 0.28346 0.0
O909 O 0.93684 0.58363 0.31146 0.0
O910 O 0.91351 0.60581 0.23042 0.0
O911 O 0.87331 0.58493 0.24602 0.0
H912 H 0.80198 0.56585 0.36148 0.0
H913 H 0.76446 0.57936 0.39719 0.0
H914 H 0.75444 0.65433 0.34255 0.0
H915 H 0.79274 0.64117 0.30755 0.0
H916 H 0.99894 0.6794 0.23382 0.0
H917 H 0.02915 0.6832 0.18651 0.0
H918 H 0.01464 0.59797 0.16428 0.0
H919 H 0.98386 0.59459 0.21094 0.0
Tb920 Tb 0.66276 0.61748 0.54127 0.0
Tb921 Tb 0.65059 0.6766 0.52845 0.0
C922 C 0.68099 0.57272 0.56211 0.0
C923 C 0.67222 0.55065 0.58434 0.0
C924 C 0.68856 0.5442 0.61129 0.0
C925 C 0.68174 0.52221 0.63141 0.0
C926 C 0.65854 0.50596 0.6248 0.0
C927 C 0.64187 0.51275 0.59814 0.0
C928 C 0.64862 0.53488 0.57809 0.0
C929 C 0.61574 0.6253 0.51099 0.0
C930 C 0.63668 0.6527 0.5992 0.0
C931 C 0.63056 0.7198 0.50344 0.0
C932 C 0.63316 0.73792 0.47439 0.0
C933 C 0.60987 0.75177 0.46269 0.0
C934 C 0.61185 0.77048 0.43676 0.0
C935 C 0.63727 0.77596 0.42186 0.0
C936 C 0.66043 0.76125 0.43296 0.0
C937 C 0.65841 0.74249 0.45885 0.0
C938 C 0.70197 0.66736 0.54992 0.0
C939 C 0.67889 0.63991 0.47303 0.0
O940 O 0.68723 0.59641 0.57521 0.0
O941 O 0.66708 0.57533 0.5351 0.0
O942 O 0.62557 0.64072 0.53312 0.0
O943 O 0.6306 0.60349 0.50912 0.0
O944 O 0.64768 0.6294 0.58944 0.0
O945 O 0.634 0.67396 0.579 0.0
O946 O 0.62081 0.69524 0.49861 0.0
O947 O 0.65064 0.71963 0.52454 0.0
O948 O 0.68746 0.65258 0.53172 0.0
O949 O 0.68781 0.68951 0.55497 0.0
O950 O 0.66509 0.6626 0.47999 0.0
O951 O 0.68451 0.62162 0.49571 0.0
H952 H 0.70682 0.55602 0.61662 0.0
H953 H 0.69467 0.518 0.65223 0.0
H954 H 0.62394 0.50062 0.59232 0.0
H955 H 0.63558 0.5393 0.55743 0.0
H956 H 0.59012 0.74859 0.47417 0.0
H957 H 0.59361 0.78143 0.42925 0.0
H958 H 0.68031 0.76444 0.42184 0.0
H959 H 0.67667 0.73192 0.46704 0.0
Tb960 Tb 0.42437 0.40227 0.27844 0.0
Tb961 Tb 0.36498 0.41505 0.28741 0.0
C962 C 0.46832 0.38214 0.25526 0.0
C963 C 0.48862 0.38503 0.22808 0.0
C964 C 0.48156 0.38056 0.19519 0.0
C965 C 0.5017 0.38115 0.17051 0.0
C966 C 0.52944 0.38624 0.17802 0.0
C967 C 0.53634 0.3904 0.21101 0.0
C968 C 0.51631 0.38979 0.23553 0.0
C969 C 0.41491 0.45363 0.29942 0.0
C970 C 0.3904 0.43124 0.22092 0.0
C971 C 0.31884 0.43301 0.30465 0.0
C972 C 0.29618 0.42401 0.32554 0.0
C973 C 0.27168 0.4389 0.32554 0.0
C974 C 0.24977 0.43069 0.34512 0.0
C975 C 0.25206 0.40753 0.36534 0.0
C976 C 0.27646 0.39214 0.36445 0.0
C977 C 0.29829 0.40025 0.34453 0.0
C978 C 0.37366 0.36801 0.25747 0.0
C979 C 0.39744 0.3889 0.34775 0.0
O980 O 0.44369 0.37361 0.24803 0.0
O981 O 0.46777 0.40093 0.27795 0.0
O982 O 0.40067 0.43947 0.28026 0.0
O983 O 0.43672 0.43928 0.30561 0.0
O984 O 0.41257 0.41707 0.22921 0.0
O985 O 0.37131 0.43716 0.24257 0.0
O986 O 0.34184 0.43964 0.31915 0.0
O987 O 0.32286 0.41807 0.27875 0.0
O988 O 0.38807 0.37746 0.2808 0.0
O989 O 0.35244 0.38345 0.25389 0.0
O990 O 0.37507 0.40071 0.33625 0.0
O991 O 0.41943 0.38532 0.32876 0.0
H992 H 0.46049 0.37643 0.18847 0.0
H993 H 0.49545 0.37805 0.1455 0.0
H994 H 0.55744 0.39387 0.21807 0.0
H995 H 0.52261 0.39267 0.26058 0.0
H996 H 0.26953 0.45699 0.31049 0.0
H997 H 0.23113 0.44274 0.34473 0.0
H998 H 0.27906 0.37437 0.3799 0.0
H999 H 0.31689 0.38817 0.34412 0.0
Tb1000 Tb 0.37153 0.67917 1.03214 0.0
Tb1001 Tb 0.36388 0.61863 1.03853 0.0
C1002 C 0.38794 0.72527 1.01125 0.0
C1003 C 0.38814 0.74138 0.98034 0.0
C1004 C 0.41127 0.75719 0.97214 0.0
C1005 C 0.41098 0.77473 0.94495 0.0
C1006 C 0.38742 0.77709 0.92537 0.0
C1007 C 0.36473 0.76025 0.93283 0.0
C1008 C 0.36509 0.74261 0.95986 0.0
C1009 C 0.32128 0.66476 0.05257 0.0
C1010 C 0.34708 0.64444 0.97261 0.0
C1011 C 0.34865 0.5712 0.05395 0.0
C1012 C 0.3579 0.54861 0.07472 0.0
C1013 C 0.34727 0.52239 0.06935 0.0
C1014 C 0.35545 0.5005 0.08888 0.0
C1015 C 0.37439 0.5045 0.11423 0.0
C1016 C 0.38569 0.53073 0.11888 0.0
C1017 C 0.37752 0.55264 0.09919 0.0
C1018 C 0.40996 0.63252 1.00964 0.0
C1019 C 0.3864 0.65203 0.10061 0.0
O1020 O 0.40334 0.70341 1.01246 0.0
O1021 O 0.36427 0.72124 1.02543 0.0
O1022 O 0.3364 0.65237 1.03246 0.0
O1023 O 0.33442 0.6868 0.06111 0.0
O1024 O 0.35966 0.66721 0.98195 0.0
O1025 O 0.34219 0.62442 0.99333 0.0
O1026 O 0.33995 0.59343 0.06861 0.0
O1027 O 0.36442 0.57658 1.02906 0.0
O1028 O 0.39892 0.64505 1.03335 0.0
O1029 O 0.39723 0.6097 1.00499 0.0
O1030 O 0.37833 0.62852 0.0877 0.0
O1031 O 0.38654 0.67508 0.08313 0.0
H1032 H 0.42936 0.75662 0.98742 0.0
H1033 H 0.42875 0.78743 0.94021 0.0
H1034 H 0.34634 0.76114 0.9181 0.0
H1035 H 0.34704 0.7305 0.96522 0.0
H1036 H 0.3324 0.51888 0.0502 0.0
H1037 H 0.34661 0.48049 0.08447 0.0
H1038 H 0.40006 0.53455 0.13845 0.0
H1039 H 0.38617 0.57273 0.10335 0.0
Tb1040 Tb 0.10041 0.6258 0.77454 0.0
Tb1041 Tb 0.15951 0.61373 0.78851 0.0
C1042 C 0.05739 0.64555 0.74866 0.0
C1043 C 0.03705 0.64152 0.7217 0.0
C1044 C 0.04324 0.64798 0.68902 0.0
C1045 C 0.02295 0.64655 0.6646 0.0
C1046 C 0.99587 0.63866 0.67213 0.0
C1047 C 0.9898 0.63246 0.7049 0.0
C1048 C 1.00998 0.6339 0.72919 0.0
C1049 C 0.10939 0.57422 0.79536 0.0
C1050 C 0.13819 0.59769 0.71987 0.0
C1051 C 0.20473 0.59663 0.80965 0.0
C1052 C 0.22655 0.6064 0.83156 0.0
C1053 C 0.2379 0.58818 0.85409 0.0
C1054 C 0.25966 0.59634 0.87388 0.0
C1055 C 0.27075 0.62289 0.87135 0.0
C1056 C 0.25898 0.64133 0.84911 0.0
C1057 C 0.23703 0.63318 0.82941 0.0
C1058 C 0.15157 0.66141 0.75939 0.0
C1059 C 0.12304 0.63781 0.84622 0.0
O1060 O 0.08236 0.65275 0.7409 0.0
O1061 O 0.05715 0.6284 0.77316 0.0
O1062 O 0.12462 0.58896 0.77797 0.0
O1063 O 0.08689 0.58804 0.79941 0.0
O1064 O 0.11545 0.61167 0.72631 0.0
O1065 O 0.15591 0.59176 0.74311 0.0
O1066 O 0.18116 0.59033 0.82303 0.0
O1067 O 0.20183 0.60996 0.7823 0.0
O1068 O 0.13601 0.65087 0.78087 0.0
O1069 O 0.17359 0.64688 0.75771 0.0
O1070 O 0.14569 0.6252 0.83713 0.0
O1071 O 0.10296 0.64299 0.82496 0.0
H1072 H 0.06371 0.65443 0.68228 0.0
H1073 H 0.02859 0.65132 0.63975 0.0
H1074 H 0.96917 0.62685 0.71204 0.0
H1075 H 1.00422 0.62948 0.75411 0.0
H1076 H 0.23005 0.5675 0.85624 0.0
H1077 H 0.26767 0.58181 0.89137 0.0
H1078 H 0.267 0.66189 0.84651 0.0
H1079 H 0.22854 0.64771 0.81225 0.0
Tb1080 Tb 0.15157 0.34845 0.52754 0.0
Tb1081 Tb 0.16521 0.40734 0.54184 0.0
C1082 C 0.13086 0.30597 0.50151 0.0
C1083 C 0.13396 0.28751 0.47275 0.0
C1084 C 0.11063 0.27464 0.45963 0.0
C1085 C 0.1129 0.25576 0.4339 0.0
C1086 C 0.13867 0.24909 0.42055 0.0
C1087 C 0.16194 0.26278 0.43312 0.0
C1088 C 0.15962 0.2817 0.45883 0.0
C1089 C 0.2031 0.35629 0.54907 0.0
C1090 C 0.1807 0.38572 0.47319 0.0
C1091 C 0.18431 0.45223 0.56132 0.0
C1092 C 0.17534 0.47547 0.5812 0.0
C1093 C 0.18752 0.50105 0.57602 0.0
C1094 C 0.17917 0.52374 0.59407 0.0
C1095 C 0.15849 0.52122 0.61774 0.0
C1096 C 0.14581 0.4956 0.6223 0.0
C1097 C 0.15414 0.47287 0.60408 0.0
C1098 C 0.11737 0.40046 0.5125 0.0
C1099 C 0.13944 0.37171 0.59926 0.0
O1100 O 0.12242 0.3309 0.49592 0.0
O1101 O 0.14993 0.30542 0.52391 0.0
O1102 O 0.1889 0.37176 0.53138 0.0
O1103 O 0.18872 0.33417 0.55318 0.0
O1104 O 0.16567 0.36358 0.47921 0.0
O1105 O 0.18757 0.40262 0.49686 0.0
O1106 O 0.18859 0.42889 0.57627 0.0
O1107 O 0.17104 0.44919 0.53399 0.0
O1108 O 0.12766 0.38471 0.53385 0.0
O1109 O 0.13229 0.42223 0.51105 0.0
O1110 O 0.15265 0.39409 0.59038 0.0
O1111 O 0.13428 0.35158 0.57799 0.0
H1112 H 0.09056 0.27877 0.46983 0.0
H1113 H 0.09453 0.24566 0.42527 0.0
H1114 H 0.18211 0.25871 0.42324 0.0
H1115 H 0.17796 0.29148 0.46812 0.0
H1116 H 0.2036 0.50345 0.55803 0.0
H1117 H 0.18911 0.54324 0.58975 0.0
H1118 H 0.13008 0.49292 0.64064 0.0
H1119 H 0.14426 0.45328 0.60805 0.0
Tb1120 Tb 0.42446 0.62451 0.31213 0.0
Tb1121 Tb 0.36539 0.6123 0.29737 0.0
C1122 C 0.46719 0.64457 0.33841 0.0
C1123 C 0.48558 0.64179 0.36727 0.0
C1124 C 0.498 0.66531 0.38046 0.0
C1125 C 0.51714 0.66336 0.40597 0.0
C1126 C 0.52453 0.63774 0.419 0.0
C1127 C 0.51124 0.61426 0.40645 0.0
C1128 C 0.49206 0.61624 0.38096 0.0
C1129 C 0.41583 0.57339 0.28983 0.0
C1130 C 0.38648 0.59548 0.36587 0.0
C1131 C 0.32053 0.595 0.27547 0.0
C1132 C 0.2987 0.60504 0.25382 0.0
C1133 C 0.28551 0.58653 0.23312 0.0
C1134 C 0.26359 0.59508 0.21381 0.0
C1135 C 0.25421 0.62235 0.21502 0.0
C1136 C 0.26788 0.64104 0.23539 0.0
C1137 C 0.28998 0.63247 0.25458 0.0
C1138 C 0.37294 0.65943 0.32777 0.0
C1139 C 0.40208 0.63768 0.24053 0.0
O1140 O 0.44235 0.65357 0.34359 0.0
O1141 O 0.46752 0.62515 0.31647 0.0
O1142 O 0.40044 0.58766 0.30761 0.0
O1143 O 0.4382 0.58748 0.28598 0.0
O1144 O 0.40911 0.60982 0.35999 0.0
O1145 O 0.36901 0.58967 0.34232 0.0
O1146 O 0.34424 0.58934 0.26202 0.0
O1147 O 0.32313 0.60784 0.30321 0.0
O1148 O 0.38865 0.64933 0.30615 0.0
O1149 O 0.35096 0.64476 0.32898 0.0
O1150 O 0.37898 0.62574 0.24931 0.0
O1151 O 0.4225 0.64159 0.26172 0.0
H1152 H 0.49338 0.68529 0.37041 0.0
H1153 H 0.52692 0.68189 0.4146 0.0
H1154 H 0.51587 0.59416 0.41612 0.0
H1155 H 0.48268 0.59775 0.37159 0.0
H1156 H 0.29202 0.56533 0.23208 0.0
H1157 H 0.25413 0.58028 0.19773 0.0
H1158 H 0.26122 0.66215 0.23694 0.0
H1159 H 0.29996 0.6472 0.27033 0.0
Tb1160 Tb 0.15129 0.6784 0.0557 0.0
Tb1161 Tb 0.15944 0.61778 0.04993 0.0
C1162 C 0.134 0.72401 0.07719 0.0
C1163 C 0.13521 0.7408 0.10762 0.0
C1164 C 0.11154 0.75439 0.11881 0.0
C1165 C 0.11264 0.77233 0.14563 0.0
C1166 C 0.13756 0.77732 0.16189 0.0
C1167 C 0.16098 0.76271 0.15146 0.0
C1168 C 0.15983 0.74471 0.12479 0.0
C1169 C 0.20185 0.6644 1.03598 0.0
C1170 C 0.17644 0.64414 0.11554 0.0
C1171 C 0.17418 0.56996 1.03524 0.0
C1172 C 0.16509 0.5474 1.01427 0.0
C1173 C 0.17813 0.52198 1.01685 0.0
C1174 C 0.17013 0.5002 0.99702 0.0
C1175 C 0.14905 0.5035 0.97396 0.0
C1176 C 0.13536 0.52886 0.97226 0.0
C1177 C 0.14325 0.5506 0.99241 0.0
C1178 C 0.11286 0.63183 0.07767 0.0
C1179 C 0.13755 0.65084 0.98713 0.0
O1180 O 0.1199 0.70129 0.07834 0.0
O1181 O 0.1566 0.72101 0.06038 0.0
O1182 O 0.18664 0.65184 0.05587 0.0
O1183 O 0.1887 0.68646 1.0275 0.0
O1184 O 0.16414 0.66696 0.10579 0.0
O1185 O 0.181 0.62376 0.09521 0.0
O1186 O 0.18359 0.59197 1.02075 0.0
O1187 O 0.1579 0.57577 0.05952 0.0
O1188 O 0.12425 0.64408 0.05401 0.0
O1189 O 0.12586 0.60938 0.08344 0.0
O1190 O 0.14642 0.62769 1.00024 0.0
O1191 O 0.13615 0.67382 1.00471 0.0
H1192 H 0.09224 0.75174 0.10615 0.0
H1193 H 0.09424 0.78323 0.15268 0.0
H1194 H 0.18047 0.7656 0.1636 0.0
H1195 H 0.17839 0.73435 0.11715 0.0
H1196 H 0.1947 0.51903 1.03406 0.0
H1197 H 0.18078 0.48085 0.99941 0.0
H1198 H 0.11922 0.53222 0.95461 0.0
H1199 H 0.13259 0.56997 0.9907 0.0
Tb1200 Tb 0.09697 0.40529 0.80749 0.0
Tb1201 Tb 0.15682 0.41274 0.80068 0.0
C1202 C 0.04979 0.3917 0.82848 0.0
C1203 C 0.03409 0.38918 0.85979 0.0
C1204 C 0.02466 0.36344 0.87044 0.0
C1205 C 1.00719 0.36106 0.89764 0.0
C1206 C 0.99848 0.3844 0.91506 0.0
C1207 C 1.00852 0.41009 0.90472 0.0
C1208 C 0.02599 0.41244 0.87762 0.0
C1209 C 0.11106 0.45458 0.78401 0.0
C1210 C 0.13201 0.4314 0.86572 0.0
C1211 C 0.20409 0.42685 0.7829 0.0
C1212 C 0.22568 0.41776 0.76003 0.0
C1213 C 0.23176 0.43395 0.7328 0.0
C1214 C 0.25336 0.42697 0.71214 0.0
C1215 C 0.26963 0.40375 0.71838 0.0
C1216 C 0.26322 0.38718 0.74527 0.0
C1217 C 0.24151 0.39416 0.76598 0.0
C1218 C 0.14391 0.3681 0.8335 0.0
C1219 C 0.12383 0.38871 0.73934 0.0
O1220 O 0.06953 0.37425 0.82274 0.0
O1221 O 0.05631 0.41624 0.81854 0.0
O1222 O 0.1233 0.44061 0.80531 0.0
O1223 O 0.08957 0.44059 0.77543 0.0
O1224 O 0.10984 0.41714 0.85758 0.0
O1225 O 0.15121 0.43668 0.84406 0.0
O1226 O 0.18155 0.43684 0.77016 0.0
O1227 O 0.19921 0.41119 0.80806 0.0
O1228 O 0.13097 0.37722 0.80878 0.0
O1229 O 0.1661 0.38218 0.83716 0.0
O1230 O 0.14726 0.3967 0.75237 0.0
O1231 O 0.10064 0.38932 0.75665 0.0
H1232 H 0.03029 0.34509 0.85723 0.0
H1233 H 1.00036 0.34086 0.90482 0.0
H1234 H 1.00211 0.42871 0.91679 0.0
H1235 H 0.03251 0.43268 0.87015 0.0
H1236 H 0.22001 0.45227 0.72768 0.0
H1237 H 0.25732 0.43984 0.6912 0.0
H1238 H 0.2754 0.36922 0.75075 0.0
H1239 H 0.23746 0.38129 0.7869 0.0
Tb1240 Tb 0.37453 0.34854 0.55978 0.0
Tb1241 Tb 0.36059 0.4076 0.54769 0.0
C1242 C 0.3956 0.30554 0.58388 0.0
C1243 C 0.39424 0.28746 0.61315 0.0
C1244 C 0.41866 0.28018 0.62917 0.0
C1245 C 0.4185 0.26163 0.65532 0.0
C1246 C 0.39385 0.24975 0.66631 0.0
C1247 C 0.3693 0.25749 0.65052 0.0
C1248 C 0.36949 0.27607 0.62434 0.0
C1249 C 0.32288 0.3568 0.53908 0.0
C1250 C 0.34595 0.38425 0.61593 0.0
C1251 C 0.34129 0.45272 0.52916 0.0
C1252 C 0.34987 0.47555 0.5084 0.0
C1253 C 0.33675 0.50086 0.51184 0.0
C1254 C 0.34474 0.52313 0.49281 0.0
C1255 C 0.36603 0.52044 0.46993 0.0
C1256 C 0.37963 0.49512 0.46712 0.0
C1257 C 0.37163 0.47283 0.48629 0.0
C1258 C 0.40856 0.40045 0.57649 0.0
C1259 C 0.38513 0.37269 0.48857 0.0
O1260 O 0.40552 0.33013 0.588 0.0
O1261 O 0.3749 0.30552 0.56363 0.0
O1262 O 0.33706 0.3718 0.55737 0.0
O1263 O 0.3374 0.33498 0.53357 0.0
O1264 O 0.36071 0.36219 0.60875 0.0
O1265 O 0.3391 0.4021 0.59322 0.0
O1266 O 0.33597 0.42938 0.51473 0.0
O1267 O 0.3557 0.44958 0.55564 0.0
O1268 O 0.39834 0.38506 0.55465 0.0
O1269 O 0.39349 0.42206 0.57863 0.0
O1270 O 0.3724 0.39503 0.49859 0.0
O1271 O 0.39067 0.35216 0.50903 0.0
H1272 H 0.43807 0.28858 0.6211 0.0
H1273 H 0.43778 0.25662 0.66693 0.0
H1274 H 0.34989 0.24862 0.65774 0.0
H1275 H 0.35029 0.28112 0.61253 0.0
H1276 H 0.3202 0.50338 0.5292 0.0
H1277 H 0.33408 0.54242 0.49578 0.0
H1278 H 0.39585 0.4923 0.44942 0.0
H1279 H 0.38221 0.45345 0.48365 0.0
C1280 C 0.31632 0.11009 0.18814 0.0
C1281 C 0.29587 0.12928 0.19594 0.0
H1282 H 0.34986 0.09995 0.15682 0.0
C1283 C 0.29708 0.15551 0.18173 0.0
H1284 H 0.31652 0.09002 0.19935 0.0
C1285 C 0.31686 0.16146 0.15803 0.0
C1286 C 0.33542 0.14117 0.14812 0.0
H1287 H 0.28163 0.17076 0.18716 0.0
H1288 H 0.31605 0.18096 0.1455 0.0
C1289 C 0.33569 0.11589 0.1642 0.0
C1290 C 0.16979 0.07646 0.40728 0.0
C1291 C 0.14284 0.08125 0.3968 0.0
H1292 H 0.19625 0.05383 0.43868 0.0
C1293 C 0.12105 0.06819 0.41284 0.0
H1294 H 0.18693 0.08645 0.39538 0.0
C1295 C 0.12644 0.04896 0.43738 0.0
C1296 C 0.15366 0.04271 0.44618 0.0
H1297 H 0.10011 0.07135 0.40489 0.0
H1298 H 0.10944 0.03787 0.44806 0.0
C1299 C 0.17514 0.05755 0.43181 0.0
C1300 C 0.21014 0.91306 0.69294 0.0
C1301 C 0.2318 0.89472 0.69886 0.0
H1302 H 0.1759 0.92317 0.66266 0.0
C1303 C 0.23212 0.8695 0.68221 0.0
H1304 H 0.20877 0.93229 0.70597 0.0
C1305 C 0.21259 0.86392 0.65812 0.0
C1306 C 0.19272 0.88357 0.65027 0.0
H1307 H 0.24854 0.85493 0.68608 0.0
H1308 H 0.21455 0.84543 0.64374 0.0
C1309 C 0.19102 0.90769 0.66858 0.0
C1310 C 0.36294 0.94919 0.91052 0.0
C1311 C 0.38925 0.94491 0.89772 0.0
H1312 H 0.338 0.97152 0.94386 0.0
C1313 C 0.41172 0.95841 0.91179 0.0
H1314 H 0.34528 0.93911 0.8999 0.0
C1315 C 0.40752 0.97739 0.93694 0.0
C1316 C 0.38087 0.98271 0.94858 0.0
H1317 H 0.43216 0.95568 0.90197 0.0
H1318 H 0.42495 0.98848 0.9466 0.0
C1319 C 0.35879 0.96775 0.93574 0.0
C1320 C 0.31993 0.87127 0.4258 0.0
C1321 C 0.33006 0.89304 0.44459 0.0
H1322 H 0.29215 0.85924 0.38782 0.0
C1323 C 0.32257 0.91996 0.43659 0.0
H1324 H 0.32528 0.85032 0.43167 0.0
C1325 C 0.30376 0.92502 0.41191 0.0
C1326 C 0.29191 0.90327 0.39465 0.0
H1327 H 0.33036 0.93715 0.45047 0.0
H1328 H 0.29779 0.94599 0.40703 0.0
C1329 C 0.3009 0.87638 0.40091 0.0
C1330 C 0.40848 0.04868 0.65404 0.0
C1331 C 0.38172 0.04548 0.64172 0.0
H1332 H 0.43418 0.06892 0.68909 0.0
C1333 C 0.36101 0.06327 0.65258 0.0
H1334 H 0.42492 0.03545 0.64585 0.0
C1335 C 0.36636 0.08231 0.67696 0.0
C1336 C 0.39254 0.08418 0.69086 0.0
H1337 H 0.34014 0.06125 0.6439 0.0
H1338 H 0.34953 0.09442 0.68643 0.0
C1339 C 0.41391 0.06806 0.67838 0.0
C1340 C 0.19695 0.11396 0.92592 0.0
C1341 C 0.19572 0.13946 0.94146 0.0
H1342 H 0.21705 0.08903 0.89057 0.0
C1343 C 0.21273 0.1608 0.93076 0.0
H1344 H 0.18397 0.09724 0.93389 0.0
C1345 C 0.23236 0.1559 0.90653 0.0
C1346 C 0.23499 0.12967 0.89261 0.0
H1347 H 0.21237 0.1805 0.94286 0.0
H1348 H 0.24657 0.17211 0.90029 0.0
C1349 C 0.21616 0.1092 0.90149 0.0
C1350 C 0.11494 0.95697 0.17353 0.0
C1351 C 0.13677 0.94234 0.18733 0.0
H1352 H 0.1031 0.98764 0.13884 0.0
C1353 C 0.16304 0.94466 0.17374 0.0
H1354 H 0.09457 0.95569 0.18394 0.0
C1355 C 0.16799 0.96285 0.14836 0.0
C1356 C 0.14675 0.9793 0.13609 0.0
H1357 H 0.18021 0.93363 0.18418 0.0
H1358 H 0.1889 0.96537 0.14 0.0
C1359 C 0.11994 0.97549 0.14811 0.0
C1360 C 0.70876 0.91216 0.90155 0.0
C1361 C 0.72952 0.89327 0.89381 0.0
H1362 H 0.67516 0.92194 0.93296 0.0
C1363 C 0.72883 0.86715 0.90834 0.0
H1364 H 0.70815 0.93213 0.89013 0.0
C1365 C 0.70925 0.86103 0.93223 0.0
C1366 C 0.69035 0.88105 0.94202 0.0
H1367 H 0.74452 0.85213 0.90297 0.0
H1368 H 0.71046 0.84165 0.94498 0.0
C1369 C 0.68959 0.90621 0.92567 0.0
C1370 C 0.89942 0.9722 0.64975 0.0
C1371 C 0.87246 0.9791 0.64062 0.0
H1372 H 0.92495 0.94936 0.68264 0.0
C1373 C 0.85042 0.96562 0.65568 0.0
H1374 H 0.9168 0.98209 0.63829 0.0
C1375 C 0.85508 0.94704 0.68074 0.0
C1376 C 0.88186 0.94134 0.69115 0.0
H1377 H 0.82942 0.97061 0.64948 0.0
H1378 H 0.8376 0.93812 0.69311 0.0
C1379 C 0.90411 0.95326 0.67476 0.0
C1380 C 0.81496 0.10517 0.4008 0.0
C1381 C 0.79601 0.12548 0.39177 0.0
H1382 H 0.84734 0.09372 0.43315 0.0
C1383 C 0.7988 0.15195 0.405 0.0
H1384 H 0.81394 0.08482 0.3904 0.0
C1385 C 0.81863 0.15723 0.42883 0.0
C1386 C 0.83569 0.13607 0.43984 0.0
H1387 H 0.78451 0.16805 0.39865 0.0
H1388 H 0.81901 0.1771 0.44056 0.0
C1389 C 0.83438 0.11034 0.42486 0.0
C1390 C 0.66882 0.05637 0.15516 0.0
C1391 C 0.6472 0.03987 0.14393 0.0
H1392 H 0.68166 0.08705 0.18895 0.0
C1393 C 0.62043 0.0451 0.15525 0.0
H1394 H 0.68952 0.05345 0.14625 0.0
C1395 C 0.61584 0.06496 0.1793 0.0
C1396 C 0.638 0.07961 0.19236 0.0
H1397 H 0.60334 0.03275 0.14704 0.0
H1398 H 0.59543 0.0673 0.18936 0.0
C1399 C 0.66429 0.07585 0.17928 0.0
C1400 C 0.73043 0.15627 0.68522 0.0
C1401 C 0.73382 0.12937 0.69699 0.0
H1402 H 0.71042 0.1822 0.65017 0.0
C1403 C 0.7162 0.10876 0.68558 0.0
H1404 H 0.74366 0.17262 0.69359 0.0
C1405 C 0.69743 0.11424 0.6609 0.0
C1406 C 0.69554 0.14052 0.64734 0.0
H1407 H 0.71768 0.08803 0.69479 0.0
H1408 H 0.68537 0.0975 0.65117 0.0
C1409 C 0.71132 0.16183 0.66055 0.0
C1410 C 0.62306 0.97732 0.43726 0.0
C1411 C 0.64997 0.98377 0.44699 0.0
H1412 H 0.59766 0.95448 0.40421 0.0
C1413 C 0.67202 0.9699 0.43243 0.0
H1414 H 0.60568 0.98755 0.44828 0.0
C1415 C 0.66744 0.95117 0.4075 0.0
C1416 C 0.64072 0.94566 0.3967 0.0
H1417 H 0.69299 0.97456 0.43911 0.0
H1418 H 0.68496 0.94181 0.39567 0.0
C1419 C 0.61844 0.95819 0.4124 0.0
C1420 C 0.83539 0.90374 0.16678 0.0
C1421 C 0.83342 0.87965 0.14845 0.0
H1422 H 0.81751 0.92894 0.20353 0.0
C1423 C 0.81283 0.86058 0.15579 0.0
H1424 H 0.85106 0.91879 0.16127 0.0
C1425 C 0.79293 0.86677 0.17927 0.0
C1426 C 0.79358 0.89202 0.19584 0.0
H1427 H 0.81065 0.84212 0.1414 0.0
H1428 H 0.77603 0.85268 0.18269 0.0
C1429 C 0.81588 0.90973 0.19052 0.0
C1430 C 0.91321 0.06153 0.90969 0.0
C1431 C 0.89217 0.07908 0.89935 0.0
H1432 H 0.92401 0.02745 0.94003 0.0
C1433 C 0.86682 0.0785 0.91543 0.0
H1434 H 0.9328 0.06137 0.89723 0.0
C1435 C 0.86181 0.05939 0.93988 0.0
C1436 C 0.88189 0.04004 0.94838 0.0
H1437 H 0.8503 0.09189 0.9078 0.0
H1438 H 0.84172 0.05901 0.95111 0.0
C1439 C 0.90807 0.04204 0.93403 0.0
C1440 C 0.79522 0.65219 0.68223 0.0
C1441 C 0.79142 0.62524 0.6936 0.0
H1442 H 0.81614 0.67823 0.64813 0.0
C1443 C 0.8092 0.60459 0.68259 0.0
H1444 H 0.78184 0.66856 0.69022 0.0
C1445 C 0.8285 0.61011 0.6585 0.0
C1446 C 0.83082 0.63649 0.64538 0.0
H1447 H 0.8074 0.58381 0.69155 0.0
H1448 H 0.84064 0.59339 0.64883 0.0
C1449 C 0.81492 0.65781 0.65831 0.0
C1450 C 0.66314 0.57629 0.90813 0.0
C1451 C 0.63643 0.57962 0.89615 0.0
H1452 H 0.68951 0.55488 0.94067 0.0
C1453 C 0.61467 0.56574 0.91121 0.0
H1454 H 0.68025 0.58673 0.89673 0.0
C1455 C 0.62001 0.54714 0.93643 0.0
C1456 C 0.64709 0.54254 0.94707 0.0
H1457 H 0.59395 0.56779 0.90205 0.0
H1458 H 0.60313 0.53566 0.94681 0.0
C1459 C 0.66842 0.55805 0.93336 0.0
C1460 C 0.71033 0.36575 0.15863 0.0
C1461 C 0.69304 0.38673 0.14763 0.0
H1462 H 0.74451 0.35529 0.18889 0.0
C1463 C 0.69408 0.41248 0.16259 0.0
H1464 H 0.71011 0.34586 0.14696 0.0
C1465 C 0.71342 0.41786 0.18667 0.0
C1466 C 0.73255 0.39774 0.19576 0.0
H1467 H 0.68089 0.42894 0.15436 0.0
H1468 H 0.71418 0.43821 0.19711 0.0
C1469 C 0.73008 0.37125 0.18249 0.0
C1470 C 0.85493 0.46185 0.43618 0.0
C1471 C 0.87507 0.48086 0.44556 0.0
H1472 H 0.84427 0.42898 0.40419 0.0
C1473 C 0.90192 0.47781 0.43339 0.0
H1474 H 0.83428 0.46306 0.4458 0.0
C1475 C 0.90781 0.45762 0.41022 0.0
C1476 C 0.88688 0.44044 0.39881 0.0
H1477 H 0.9179 0.49214 0.44005 0.0
H1478 H 0.92802 0.45702 0.39927 0.0
C1479 C 0.86071 0.44204 0.41278 0.0
C1480 C 0.81455 0.41017 0.90069 0.0
C1481 C 0.79262 0.39211 0.89492 0.0
H1482 H 0.84952 0.41943 0.93015 0.0
C1483 C 0.79247 0.36657 0.91088 0.0
H1484 H 0.81579 0.42964 0.88815 0.0
C1485 C 0.81246 0.36038 0.93422 0.0
C1486 C 0.83266 0.37973 0.94203 0.0
H1487 H 0.77587 0.3522 0.90709 0.0
H1488 H 0.81064 0.34163 0.94816 0.0
C1489 C 0.83416 0.40417 0.92429 0.0
C1490 C 0.86199 0.57166 0.18041 0.0
C1491 C 0.88857 0.57671 0.19196 0.0
H1492 H 0.83669 0.54918 0.14768 0.0
C1493 C 0.911 0.56451 0.1762 0.0
H1494 H 0.84435 0.58079 0.19225 0.0
C1495 C 0.90659 0.54604 0.15054 0.0
C1496 C 0.87975 0.53992 0.14012 0.0
H1497 H 0.93168 0.56789 0.18494 0.0
H1498 H 0.92407 0.53599 0.13949 0.0
C1499 C 0.85762 0.55358 0.15477 0.0
C1500 C 0.72932 0.65207 0.40548 0.0
C1501 C 0.73259 0.6252 0.39364 0.0
H1502 H 0.70883 0.67813 0.43994 0.0
C1503 C 0.71432 0.60479 0.40422 0.0
H1504 H 0.74307 0.66826 0.39785 0.0
C1505 C 0.69506 0.61043 0.42832 0.0
C1506 C 0.69323 0.63669 0.44188 0.0
H1507 H 0.7157 0.5841 0.3949 0.0
H1508 H 0.68253 0.59385 0.43763 0.0
C1509 C 0.70965 0.65781 0.42941 0.0
C1510 C 0.61937 0.4566 0.67919 0.0
C1511 C 0.64107 0.44207 0.69347 0.0
H1512 H 0.60794 0.48886 0.64655 0.0
C1513 C 0.66786 0.44618 0.68208 0.0
H1514 H 0.59858 0.45401 0.68799 0.0
C1515 C 0.67323 0.46584 0.65839 0.0
C1516 C 0.65196 0.48218 0.64596 0.0
H1517 H 0.68489 0.43513 0.69276 0.0
H1518 H 0.69426 0.46899 0.65075 0.0
C1519 C 0.62479 0.47663 0.65564 0.0
C1520 C 0.19994 0.41725 0.43231 0.0
C1521 C 0.19413 0.39022 0.44156 0.0
H1522 H 0.22285 0.44382 0.40156 0.0
C1523 C 0.20506 0.36854 0.42329 0.0
H1524 H 0.19174 0.43435 0.44604 0.0
C1525 C 0.22313 0.37399 0.39747 0.0
C1526 C 0.23021 0.40117 0.38947 0.0
H1527 H 0.20104 0.34751 0.43017 0.0
H1528 H 0.23217 0.35697 0.38443 0.0
C1529 C 0.21771 0.42268 0.40664 0.0
C1530 C 0.41071 0.45903 0.17576 0.0
C1531 C 0.3883 0.44505 0.18928 0.0
H1532 H 0.42388 0.48922 0.14109 0.0
C1533 C 0.3622 0.44836 0.17553 0.0
H1534 H 0.43097 0.457 0.1863 0.0
C1535 C 0.35813 0.46659 0.14997 0.0
C1536 C 0.38006 0.48215 0.13776 0.0
H1537 H 0.3446 0.43785 0.18571 0.0
H1538 H 0.33743 0.46971 0.14118 0.0
C1539 C 0.40657 0.47766 0.15026 0.0
C1540 C 0.29486 0.65707 0.90745 0.0
C1541 C 0.2941 0.63112 0.89249 0.0
H1542 H 0.31325 0.68208 0.94455 0.0
C1543 C 0.31473 0.61204 0.90005 0.0
H1544 H 0.27928 0.67223 0.90224 0.0
C1545 C 0.33385 0.61764 0.92432 0.0
C1546 C 0.33318 0.64263 0.94104 0.0
H1547 H 0.31529 0.59219 0.88831 0.0
H1548 H 0.34818 0.60175 0.93141 0.0
C1549 C 0.31439 0.66283 0.93151 0.0
C1550 C 0.16862 0.5789 0.67749 0.0
C1551 C 0.14185 0.58334 0.68878 0.0
H1552 H 0.19481 0.55576 0.64637 0.0
C1553 C 0.11992 0.56966 0.67382 0.0
H1554 H 0.18587 0.58915 0.68883 0.0
C1555 C 0.12505 0.55019 0.64951 0.0
C1556 C 0.15213 0.54449 0.63967 0.0
H1557 H 0.09913 0.57255 0.68245 0.0
H1558 H 0.108 0.53891 0.63927 0.0
C1559 C 0.17372 0.55978 0.65313 0.0
C1560 C 0.18928 0.61862 0.16495 0.0
C1561 C 0.19085 0.64284 0.1468 0.0
H1562 H 0.20745 0.59363 0.20169 0.0
C1563 C 0.21105 0.66226 0.15436 0.0
H1564 H 0.17391 0.60331 0.1593 0.0
C1565 C 0.23095 0.65636 0.17793 0.0
C1566 C 0.23069 0.63104 0.19438 0.0
H1567 H 0.21292 0.68085 0.14012 0.0
H1568 H 0.24753 0.67077 0.18156 0.0
C1569 C 0.20878 0.61291 0.18878 0.0
C1570 C 0.11225 0.45764 0.91281 0.0
C1571 C 0.13468 0.44503 0.89752 0.0
H1572 H 0.09913 0.48629 0.94934 0.0
C1573 C 0.16114 0.44944 0.90984 0.0
H1574 H 0.09167 0.45475 0.90351 0.0
C1575 C 0.16546 0.46741 0.93558 0.0
C1576 C 0.14339 0.48156 0.94974 0.0
H1577 H 0.1788 0.43998 0.89842 0.0
H1578 H 0.18637 0.47139 0.94307 0.0
C1579 C 0.1166 0.47594 0.93868 0.0
C1580 C 0.31753 0.36533 0.66136 0.0
C1581 C 0.3321 0.3872 0.64749 0.0
H1582 H 0.28573 0.35349 0.69464 0.0
C1583 C 0.32871 0.41363 0.66017 0.0
H1584 H 0.31958 0.34483 0.65159 0.0
C1585 C 0.30961 0.41859 0.68466 0.0
C1586 C 0.29313 0.39727 0.69667 0.0
H1587 H 0.33981 0.43079 0.64984 0.0
H1588 H 0.3069 0.4394 0.69317 0.0
C1589 C 0.29808 0.37035 0.68581 0.0
C1590 C 0.35046 0.55721 0.43214 0.0
C1591 C 0.37218 0.54311 0.44703 0.0
H1592 H 0.33828 0.5853 0.39506 0.0
C1593 C 0.3993 0.54947 0.43792 0.0
H1594 H 0.32935 0.55265 0.43831 0.0
C1595 C 0.40442 0.56851 0.41312 0.0
C1596 C 0.38245 0.58107 0.3969 0.0
H1597 H 0.41645 0.5391 0.44925 0.0
H1598 H 0.42534 0.57201 0.40524 0.0
C1599 C 0.35555 0.57589 0.4073 0.0
C1600 C 0.16389 0.20862 0.39698 0.0
C1601 C 0.1416 0.22679 0.39532 0.0
H1602 H 0.1843 0.17378 0.37724 0.0
C1603 C 0.12224 0.22275 0.37008 0.0
H1604 H 0.17895 0.21042 0.4162 0.0
C1605 C 0.12534 0.20127 0.34722 0.0
C1606 C 0.14767 0.1831 0.34935 0.0
H1607 H 0.10486 0.23639 0.36775 0.0
H1608 H 0.11041 0.19899 0.32793 0.0
C1609 C 0.16683 0.1873 0.37452 0.0
C1610 C 0.07289 0.87423 0.59769 0.0
C1611 C 0.09273 0.89469 0.60299 0.0
H1612 H 0.03554 0.85529 0.6147 0.0
C1613 C 0.0896 0.91168 0.63047 0.0
H1614 H 0.07444 0.86093 0.5767 0.0
C1615 C 0.06755 0.90868 0.65186 0.0
C1616 C 0.04749 0.88852 0.64681 0.0
H1617 H 0.10446 0.92754 0.6358 0.0
H1618 H 0.06656 0.92206 0.67284 0.0
C1619 C 0.05058 0.87109 0.6195 0.0
C1620 C 0.40437 0.82647 0.85474 0.0
C1621 C 0.38059 0.8428 0.85385 0.0
H1622 H 0.42554 0.79302 0.87822 0.0
C1623 C 0.35912 0.83625 0.87549 0.0
H1624 H 0.42107 0.83037 0.83812 0.0
C1625 C 0.36134 0.81474 0.8977 0.0
C1626 C 0.38526 0.79887 0.89957 0.0
H1627 H 0.34036 0.84813 0.87577 0.0
H1628 H 0.34443 0.81112 0.91426 0.0
C1629 C 0.40683 0.80495 0.87768 0.0
C1630 C 0.437 0.15889 0.12239 0.0
C1631 C 0.43743 0.13878 0.09796 0.0
H1632 H 0.45634 0.17541 0.16492 0.0
C1633 C 0.45976 0.12061 0.09694 0.0
H1634 H 0.4194 0.17218 0.12506 0.0
C1635 C 0.48091 0.12214 0.12006 0.0
C1636 C 0.48014 0.14162 0.14534 0.0
H1637 H 0.46027 0.10438 0.07898 0.0
H1638 H 0.49754 0.10751 0.11855 0.0
C1639 C 0.45815 0.16043 0.14562 0.0
C1640 C 0.16513 0.83875 0.20847 0.0
C1641 C 0.14545 0.84341 0.23302 0.0
H1642 H 0.17804 0.81515 0.16755 0.0
C1643 C 0.12293 0.82541 0.23473 0.0
H1644 H 0.18282 0.852 0.20599 0.0
C1645 C 0.12006 0.80385 0.21184 0.0
C1646 C 0.13998 0.79948 0.18729 0.0
H1647 H 0.1076 0.82793 0.25351 0.0
H1648 H 0.10243 0.79045 0.21354 0.0
C1649 C 0.16252 0.8173 0.18624 0.0
C1650 C 0.45746 0.91459 0.44316 0.0
C1651 C 0.4748 0.89162 0.44284 0.0
H1652 H 0.4239 0.9354 0.46522 0.0
C1653 C 0.47102 0.8717 0.46748 0.0
H1654 H 0.45992 0.93076 0.42537 0.0
C1655 C 0.45004 0.87453 0.49113 0.0
C1656 C 0.43241 0.89735 0.49061 0.0
H1657 H 0.48393 0.85368 0.46815 0.0
H1658 H 0.4476 0.85891 0.50959 0.0
C1659 C 0.43676 0.91734 0.46644 0.0
C1660 C 0.37168 0.22736 0.71543 0.0
C1661 C 0.39371 0.22882 0.69332 0.0
H1662 H 0.35204 0.20494 0.75384 0.0
C1663 C 0.4148 0.20913 0.69627 0.0
H1664 H 0.35524 0.24224 0.71452 0.0
C1665 C 0.41315 0.18794 0.71946 0.0
C1666 C 0.39054 0.18602 0.74053 0.0
H1667 H 0.43191 0.20913 0.67947 0.0
H1668 H 0.42855 0.17203 0.71918 0.0
C1669 C 0.37004 0.20618 0.73843 0.0
C1670 C 0.07557 0.15157 0.98731 0.0
C1671 C 0.09441 0.12979 0.98513 0.0
H1672 H 0.03963 0.17084 0.9667 0.0
C1673 C 0.09078 0.1106 0.95986 0.0
H1674 H 0.07745 0.16657 1.00655 0.0
C1675 C 0.06926 0.11274 0.93768 0.0
C1676 C 0.0503 0.13427 0.93952 0.0
H1677 H 0.10483 0.0936 0.9569 0.0
H1678 H 0.06779 0.09756 0.91854 0.0
C1679 C 0.05386 0.15393 0.9645 0.0
C1680 C 0.89891 0.82219 0.7408 0.0
C1681 C 0.87619 0.8399 0.73924 0.0
H1682 H 0.91988 0.78772 0.7194 0.0
C1683 C 0.85668 0.8354 0.71454 0.0
H1684 H 0.91408 0.82467 0.75978 0.0
C1685 C 0.85972 0.81428 0.69186 0.0
C1686 C 0.88248 0.79668 0.69282 0.0
H1687 H 0.83888 0.84853 0.71232 0.0
H1688 H 0.84439 0.81223 0.67297 0.0
C1689 C 0.90214 0.80095 0.71765 0.0
C1690 C 0.96239 0.11052 0.44301 0.0
C1691 C 0.98006 0.13316 0.44466 0.0
H1692 H 0.92771 0.08964 0.46238 0.0
C1693 C 0.97544 0.1526 0.46963 0.0
H1694 H 0.9647 0.09536 0.42397 0.0
C1695 C 0.95378 0.14925 0.49225 0.0
C1696 C 0.93601 0.12664 0.48999 0.0
H1697 H 0.98871 0.17027 0.47188 0.0
H1698 H 0.95098 0.16427 0.51133 0.0
C1699 C 0.94088 0.10735 0.46515 0.0
C1700 C 0.66107 0.20685 0.18805 0.0
C1701 C 0.63945 0.2257 0.19068 0.0
H1702 H 0.68075 0.17122 0.20657 0.0
C1703 C 0.62041 0.22196 0.21633 0.0
H1704 H 0.67582 0.20842 0.16843 0.0
C1705 C 0.6233 0.20015 0.23884 0.0
C1706 C 0.64505 0.18137 0.23582 0.0
H1707 H 0.60349 0.2361 0.21929 0.0
H1708 H 0.60872 0.19816 0.25855 0.0
C1709 C 0.66376 0.18521 0.21006 0.0
C1710 C 0.54491 0.89983 0.97074 0.0
C1711 C 0.54594 0.88116 0.9446 0.0
H1712 H 0.56533 0.91666 1.01253 0.0
C1713 C 0.56806 0.86248 0.94377 0.0
H1714 H 0.52816 0.91428 0.97279 0.0
C1715 C 0.58911 0.86351 0.9672 0.0
C1716 C 0.58852 0.88301 0.99233 0.0
H1717 H 0.57007 0.84807 0.9239 0.0
H1718 H 0.60679 0.85035 0.9642 0.0
C1719 C 0.566 0.9009 0.994 0.0
C1720 C 0.87219 0.22555 0.87317 0.0
C1721 C 0.89094 0.22412 0.89924 0.0
H1722 H 0.8551 0.2057 0.83112 0.0
C1723 C 0.90934 0.20179 0.89983 0.0
H1724 H 0.8579 0.24245 0.87138 0.0
C1725 C 0.90801 0.18095 0.87619 0.0
C1726 C 0.88856 0.18201 0.851 0.0
H1727 H 0.92375 0.19947 0.91965 0.0
H1728 H 0.92093 0.1631 0.87905 0.0
C1729 C 0.87088 0.2047 0.84964 0.0
C1730 C 0.57367 0.15969 0.64764 0.0
C1731 C 0.55083 0.14195 0.64623 0.0
H1732 H 0.61278 0.17082 0.62743 0.0
C1733 C 0.54899 0.12398 0.61944 0.0
H1734 H 0.57629 0.1735 0.66801 0.0
C1735 C 0.56999 0.12265 0.59607 0.0
C1736 C 0.59318 0.1396 0.59829 0.0
H1737 H 0.53168 0.11028 0.61696 0.0
H1738 H 0.56866 0.10743 0.57695 0.0
C1739 C 0.59461 0.15841 0.62409 0.0
C1740 C 0.62315 0.82469 0.34972 0.0
C1741 C 0.64608 0.84214 0.35112 0.0
H1742 H 0.60221 0.79006 0.3708 0.0
C1743 C 0.66593 0.83709 0.37529 0.0
H1744 H 0.60764 0.82768 0.33123 0.0
C1745 C 0.66306 0.81564 0.39754 0.0
C1746 C 0.64015 0.79824 0.39668 0.0
H1747 H 0.68389 0.85003 0.37741 0.0
H1748 H 0.67868 0.81315 0.41603 0.0
C1749 C 0.62011 0.8031 0.37243 0.0
C1750 C 0.93578 0.86399 0.12333 0.0
C1751 C 0.93628 0.88351 0.09822 0.0
H1752 H 0.95517 0.84825 0.16625 0.0
C1753 C 0.95891 0.90125 0.0963 0.0
H1754 H 0.91801 0.851 0.12659 0.0
C1755 C 0.98024 0.89996 0.11925 0.0
C1756 C 0.97936 0.88118 0.1453 0.0
H1757 H 0.9595 0.91706 0.07783 0.0
H1758 H 0.99708 0.91429 0.11704 0.0
C1759 C 0.95708 0.8627 0.14641 0.0
C1760 C 0.61889 0.69614 0.85417 0.0
C1761 C 0.64292 0.68023 0.85232 0.0
H1762 H 0.59766 0.72907 0.87862 0.0
C1763 C 0.66472 0.687 0.8734 0.0
H1764 H 0.60188 0.69202 0.8381 0.0
C1765 C 0.6626 0.70831 0.89593 0.0
C1766 C 0.63846 0.72379 0.89871 0.0
H1767 H 0.68367 0.67543 0.87297 0.0
H1768 H 0.67978 0.71207 0.91201 0.0
C1769 C 0.61656 0.71747 0.87741 0.0
C1770 C 0.59202 0.4117 0.13152 0.0
C1771 C 0.59347 0.39437 0.10416 0.0
H1772 H 0.57113 0.42318 0.17501 0.0
C1773 C 0.57325 0.37399 0.10079 0.0
H1774 H 0.60703 0.42776 0.13514 0.0
C1775 C 0.55221 0.37123 0.12442 0.0
C1776 C 0.55112 0.38866 0.15195 0.0
H1777 H 0.5735 0.36048 0.07991 0.0
H1778 H 0.53701 0.35528 0.12133 0.0
C1779 C 0.57136 0.40895 0.15481 0.0
C1780 C 0.86171 0.33665 0.37731 0.0
C1781 C 0.88061 0.34021 0.35171 0.0
H1782 H 0.84979 0.31434 0.41964 0.0
C1783 C 0.90304 0.32213 0.34997 0.0
H1784 H 0.844 0.3499 0.37954 0.0
C1785 C 0.90653 0.30138 0.37371 0.0
C1786 C 0.88769 0.29835 0.39971 0.0
H1787 H 0.91779 0.32397 0.33039 0.0
H1788 H 0.92419 0.28803 0.37202 0.0
C1789 C 0.86515 0.31622 0.40072 0.0
C1790 C 0.95031 0.65145 0.59657 0.0
C1791 C 0.93126 0.6299 0.5991 0.0
H1792 H 0.98566 0.67136 0.61753 0.0
C1793 C 0.93426 0.61136 0.62512 0.0
H1794 H 0.94894 0.66589 0.57665 0.0
C1795 C 0.95515 0.61424 0.6481 0.0
C1796 C 0.97407 0.63587 0.64624 0.0
H1797 H 0.92022 0.59433 0.62797 0.0
H1798 H 0.95656 0.59914 0.66732 0.0
C1799 C 0.97153 0.65438 0.61988 0.0
C1800 C 0.62317 0.3236 0.7399 0.0
C1801 C 0.64707 0.3397 0.74165 0.0
H1802 H 0.60195 0.2909 0.71503 0.0
C1803 C 0.66863 0.33363 0.71996 0.0
H1804 H 0.60641 0.32717 0.75662 0.0
C1805 C 0.66638 0.31276 0.69686 0.0
C1806 C 0.64238 0.29705 0.69422 0.0
H1807 H 0.68746 0.34539 0.72037 0.0
H1808 H 0.68337 0.3095 0.68032 0.0
C1809 C 0.62071 0.30272 0.71613 0.0
C1810 C 0.93546 0.36368 0.96587 0.0
C1811 C 0.93561 0.38335 0.99084 0.0
H1812 H 0.95468 0.3486 0.92243 0.0
C1813 C 0.95777 0.40169 0.99232 0.0
H1814 H 0.91812 0.35002 0.96315 0.0
C1815 C 0.97881 0.40103 0.96895 0.0
C1816 C 0.97808 0.38236 0.94276 0.0
H1817 H 0.95814 0.41755 1.01076 0.0
H1818 H 0.99522 0.41586 0.9709 0.0
C1819 C 0.95643 0.3631 0.94223 0.0
C1820 C 0.90706 0.71662 0.21037 0.0
C1821 C 0.88563 0.72243 0.1882 0.0
H1822 H 0.92131 0.69132 0.25006 0.0
C1823 C 0.86196 0.70612 0.1897 0.0
H1824 H 0.92559 0.72882 0.21012 0.0
C1825 C 0.8598 0.6846 0.21196 0.0
C1826 C 0.88108 0.67844 0.23399 0.0
H1827 H 0.84519 0.70945 0.17289 0.0
H1828 H 0.84123 0.67244 0.21147 0.0
C1829 C 0.90468 0.69505 0.23328 0.0
C1830 C 0.5877 0.61077 0.46336 0.0
C1831 C 0.59178 0.62975 0.48874 0.0
H1832 H 0.56428 0.59849 0.42199 0.0
C1833 C 0.57312 0.65161 0.49152 0.0
H1834 H 0.6016 0.59369 0.46012 0.0
C1835 C 0.55122 0.65439 0.46913 0.0
C1836 C 0.54727 0.63517 0.44374 0.0
H1837 H 0.57533 0.66641 0.51095 0.0
H1838 H 0.53719 0.6714 0.47194 0.0
C1839 C 0.56599 0.6134 0.44139 0.0
C1840 C 0.40402 0.30438 0.21485 0.0
C1841 C 0.38371 0.29918 0.19107 0.0
H1842 H 0.41661 0.32919 0.25582 0.0
C1843 C 0.36047 0.3161 0.1907 0.0
H1844 H 0.42216 0.29163 0.21602 0.0
C1845 C 0.35769 0.3377 0.2127 0.0
C1846 C 0.37788 0.34331 0.23632 0.0
H1847 H 0.34457 0.31317 0.17264 0.0
H1848 H 0.33953 0.35036 0.21073 0.0
C1849 C 0.40095 0.326 0.23759 0.0
C1850 C 0.47936 0.62324 0.9705 0.0
C1851 C 0.47815 0.64161 0.94406 0.0
H1852 H 0.45896 0.60652 1.0124 0.0
C1853 C 0.45578 0.65995 0.94283 0.0
H1854 H 0.4963 0.60905 0.97283 0.0
C1855 C 0.43463 0.65884 0.96614 0.0
C1856 C 0.43538 0.6396 0.99154 0.0
H1857 H 0.45365 0.67411 0.92272 0.0
H1858 H 0.41677 0.6717 0.96284 0.0
C1859 C 0.45817 0.62209 0.99364 0.0
C1860 C 0.12004 0.72315 0.71429 0.0
C1861 C 0.14033 0.72833 0.6904 0.0
H1862 H 0.10765 0.69873 0.7557 0.0
C1863 C 0.16379 0.71167 0.69043 0.0
H1864 H 0.10173 0.73565 0.71525 0.0
C1865 C 0.16692 0.69057 0.7131 0.0
C1866 C 0.14679 0.68513 0.73688 0.0
H1867 H 0.17967 0.71444 0.67229 0.0
H1868 H 0.1853 0.67817 0.7116 0.0
C1869 C 0.12336 0.70194 0.73748 0.0
C1870 C 0.05457 0.37065 0.46789 0.0
C1871 C 0.05226 0.3889 0.44126 0.0
H1872 H 0.07675 0.35964 0.51158 0.0
C1873 C 0.07108 0.41061 0.43939 0.0
H1874 H 0.04049 0.35363 0.47024 0.0
C1875 C 0.09171 0.4138 0.46265 0.0
C1876 C 0.09451 0.39548 0.4889 0.0
H1877 H 0.06981 0.42551 0.41993 0.0
H1878 H 0.10571 0.43086 0.45981 0.0
C1879 C 0.07551 0.37389 0.49146 0.0
C1880 C 0.36183 0.70636 0.40013 0.0
C1881 C 0.38372 0.72502 0.39862 0.0
H1882 H 0.34172 0.67174 0.37961 0.0
C1883 C 0.40246 0.72237 0.37246 0.0
H1884 H 0.34656 0.70787 0.41918 0.0
C1885 C 0.39951 0.70129 0.34902 0.0
C1886 C 0.37773 0.68246 0.35122 0.0
H1887 H 0.41963 0.7363 0.37038 0.0
H1888 H 0.41414 0.6998 0.32927 0.0
C1889 C 0.35894 0.68559 0.37702 0.0
C1890 C 0.09094 0.65639 0.12433 0.0
C1891 C 0.08814 0.63996 0.09647 0.0
H1892 H 0.07358 0.66954 0.1696 0.0
C1893 C 0.06353 0.62545 0.09217 0.0
H1894 H 0.11011 0.66681 0.12916 0.0
C1895 C 0.04248 0.62677 0.11552 0.0
C1896 C 0.04562 0.64229 0.14423 0.0
H1897 H 0.06112 0.61193 0.07146 0.0
H1898 H 0.02405 0.61489 0.11148 0.0
C1899 C 0.06994 0.65771 0.14776 0.0
C1900 C 0.115 0.3349 0.86666 0.0
C1901 C 0.13988 0.34172 0.85137 0.0
H1902 H 0.0945 0.30959 0.90193 0.0
C1903 C 0.16313 0.32579 0.8587 0.0
H1904 H 0.09696 0.34726 0.86274 0.0
C1905 C 0.1619 0.30434 0.88135 0.0
C1906 C 0.13741 0.29818 0.89795 0.0
H1907 H 0.18274 0.3306 0.84768 0.0
H1908 H 0.18047 0.29295 0.88635 0.0
C1909 C 0.11374 0.31335 0.88956 0.0
C1910 C 0.45404 0.40971 0.65048 0.0
C1911 C 0.47372 0.38884 0.6478 0.0
H1912 H 0.41875 0.42924 0.63078 0.0
C1913 C 0.47213 0.37129 0.62042 0.0
H1914 H 0.4547 0.4241 0.67052 0.0
C1915 C 0.45113 0.37442 0.59687 0.0
C1916 C 0.43134 0.39522 0.60019 0.0
H1917 H 0.48688 0.35492 0.61742 0.0
H1918 H 0.45053 0.36079 0.57611 0.0
C1919 C 0.43337 0.41279 0.62727 0.0
C1920 C 0.13494 0.02773 0.29054 0.0
C1921 C 0.11003 0.04232 0.29115 0.0
H1922 H 0.15479 0.98833 0.29212 0.0
C1923 C 0.08561 0.02736 0.29557 0.0
H1924 H 0.15414 0.03858 0.28751 0.0
C1925 C 0.08607 0.99872 0.29952 0.0
C1926 C 0.11092 0.98405 0.29834 0.0
H1927 H 0.06607 0.03787 0.29662 0.0
H1928 H 0.06683 0.98799 0.30278 0.0
C1929 C 0.13533 0.99895 0.29349 0.0
C1930 C 0.2483 0.83463 0.54053 0.0
C1931 C 0.2335 0.85938 0.54152 0.0
H1932 H 0.28755 0.8148 0.54378 0.0
C1933 C 0.2483 0.88379 0.54656 0.0
H1934 H 0.23765 0.81538 0.53711 0.0
C1935 C 0.27711 0.88351 0.54982 0.0
C1936 C 0.29183 0.8587 0.54929 0.0
H1937 H 0.23759 0.90319 0.54779 0.0
H1938 H 0.28789 0.90272 0.55296 0.0
C1939 C 0.27696 0.83427 0.54475 0.0
C1940 C 0.44025 0.99791 0.79126 0.0
C1941 C 0.41532 0.98359 0.78832 0.0
H1942 H 0.46022 0.03654 0.7991 0.0
C1943 C 0.39073 0.99859 0.79091 0.0
H1944 H 0.45958 0.98705 0.78997 0.0
C1945 C 0.3911 0.02719 0.79565 0.0
C1946 C 0.41604 0.04139 0.79922 0.0
H1947 H 0.37118 0.98816 0.78921 0.0
H1948 H 0.37184 0.0382 0.79682 0.0
C1949 C 0.4406 0.02631 0.797 0.0
C1950 C 0.24938 0.18918 0.04711 0.0
C1951 C 0.23465 0.16449 0.04968 0.0
H1952 H 0.28842 0.20865 1.04005 0.0
C1953 C 0.24942 0.13975 0.04734 0.0
H1954 H 0.23876 0.20862 0.0483 0.0
C1955 C 0.27818 0.13976 1.04319 0.0
C1956 C 0.29279 0.16449 1.03998 0.0
H1957 H 0.23871 0.12037 0.04885 0.0
H1958 H 0.28897 0.1204 1.04214 0.0
C1959 C 0.27792 0.18917 1.04194 0.0
C1960 C 0.89 0.02416 0.79379 0.0
C1961 C 0.91455 0.03879 0.78878 0.0
H1962 H 0.87084 0.9847 0.80004 0.0
C1963 C 0.93924 0.02384 0.78771 0.0
H1964 H 0.87065 0.03499 0.79508 0.0
C1965 C 0.93945 0.99523 0.79184 0.0
C1966 C 0.91491 0.98052 0.79636 0.0
H1967 H 0.9586 0.03433 0.78433 0.0
H1968 H 0.9589 0.98455 0.79083 0.0
C1969 C 0.89013 0.99537 0.79693 0.0
C1970 C 0.75115 0.14096 0.54103 0.0
C1971 C 0.73668 0.16574 0.53763 0.0
H1972 H 0.79053 0.12138 0.5463 0.0
C1973 C 0.75174 0.19035 0.53846 0.0
H1974 H 0.7402 0.12166 0.54085 0.0
C1975 C 0.78035 0.19023 0.54289 0.0
C1976 C 0.79491 0.16547 0.5458 0.0
H1977 H 0.74134 0.20986 0.53637 0.0
H1978 H 0.79114 0.2096 0.54339 0.0
C1979 C 0.77995 0.14081 0.54446 0.0
C1980 C 0.6347 0.02618 0.29659 0.0
C1981 C 0.61024 0.04115 0.30067 0.0
H1982 H 0.65345 0.98653 0.29043 0.0
C1983 C 0.58529 0.02661 0.30021 0.0
H1984 H 0.65425 0.0367 0.29646 0.0
C1985 C 0.58477 0.99806 0.29549 0.0
C1986 C 0.60923 0.983 0.29184 0.0
H1987 H 0.566 0.0374 0.30279 0.0
H1988 H 0.56514 0.98768 0.29534 0.0
C1989 C 0.63422 0.99746 0.2928 0.0
C1990 C 0.74829 0.83352 0.04739 0.0
C1991 C 0.73336 0.85809 0.05019 0.0
H1992 H 0.78741 0.81433 1.03997 0.0
C1993 C 0.74791 0.88294 0.04769 0.0
H1994 H 0.73786 0.81398 0.04872 0.0
C1995 C 0.77667 0.88313 1.04329 0.0
C1996 C 0.79147 0.8585 1.03996 0.0
H1997 H 0.73706 0.90223 0.0494 0.0
H1998 H 0.78732 0.90257 1.04224 0.0
C1999 C 0.77678 0.83373 1.04194 0.0
C2000 C 0.63285 0.52431 0.79136 0.0
C2001 C 0.60842 0.53914 0.78645 0.0
H2002 H 0.65163 0.48482 0.79867 0.0
C2003 C 0.58352 0.52451 0.78642 0.0
H2004 H 0.65235 0.53492 0.7919 0.0
C2005 C 0.58303 0.49601 0.79155 0.0
C2006 C 0.60747 0.48111 0.79613 0.0
H2007 H 0.56425 0.5352 0.78321 0.0
H2008 H 0.56344 0.48555 0.79137 0.0
C2009 C 0.63242 0.49564 0.79558 0.0
C2010 C 0.77629 0.38361 0.04648 0.0
C2011 C 0.7908 0.35896 0.05103 0.0
H2012 H 0.73694 0.40297 1.03962 0.0
C2013 C 0.77577 0.33431 0.05045 0.0
H2014 H 0.78718 0.40294 0.04644 0.0
C2015 C 0.74724 0.33426 0.04522 0.0
C2016 C 0.73262 0.35889 1.0412 0.0
H2017 H 0.78617 0.31488 0.05339 0.0
H2018 H 0.73651 0.31484 0.04503 0.0
C2019 C 0.74752 0.38361 1.04226 0.0
C2020 C 0.89154 0.52328 0.29913 0.0
C2021 C 0.91591 0.53843 0.30305 0.0
H2022 H 0.87306 0.48351 0.29308 0.0
C2023 C 0.94096 0.52408 0.3026 0.0
H2024 H 0.87192 0.53367 0.29895 0.0
C2025 C 0.94167 0.49552 0.29793 0.0
C2026 C 0.9173 0.48032 0.29434 0.0
H2027 H 0.96017 0.53502 0.30503 0.0
H2028 H 0.96136 0.48528 0.29769 0.0
C2029 C 0.89221 0.49457 0.29542 0.0
C2030 C 0.74755 0.69203 0.54619 0.0
C2031 C 0.73275 0.6673 0.54796 0.0
H2032 H 0.78677 0.71158 0.5405 0.0
C2033 C 0.74756 0.64262 0.54536 0.0
H2034 H 0.73692 0.71145 0.54767 0.0
C2035 C 0.77636 0.64269 0.54177 0.0
C2036 C 0.79108 0.66745 0.53955 0.0
H2037 H 0.73685 0.6232 0.54629 0.0
H2038 H 0.78714 0.62333 0.54055 0.0
C2039 C 0.7762 0.69211 0.54168 0.0
C2040 C 0.39066 0.52801 0.29163 0.0
C2041 C 0.41554 0.54267 0.29106 0.0
H2042 H 0.37094 0.48856 0.2942 0.0
C2043 C 0.44012 0.52774 0.29417 0.0
H2044 H 0.37135 0.53883 0.28962 0.0
C2045 C 0.43984 0.49909 0.29804 0.0
C2046 C 0.415 0.48435 0.29813 0.0
H2047 H 0.45966 0.53827 0.29428 0.0
H2048 H 0.4592 0.4884 0.30033 0.0
C2049 C 0.39042 0.49922 0.29455 0.0
C2050 C 0.27603 0.63946 0.04632 0.0
C2051 C 0.29059 0.66424 0.04967 0.0
H2052 H 0.23664 0.61998 1.04006 0.0
C2053 C 0.27567 0.68887 0.04765 0.0
H2054 H 0.28687 0.62013 0.04741 0.0
C2055 C 0.2472 0.6888 1.04211 0.0
C2056 C 0.23252 0.66408 1.03921 0.0
H2057 H 0.28611 0.70837 0.04964 0.0
H2058 H 0.23658 0.70823 1.04073 0.0
C2059 C 0.24729 0.63938 1.04182 0.0
C2060 C 0.08608 0.49997 0.78438 0.0
C2061 C 0.11095 0.48531 0.78524 0.0
H2062 H 0.06597 0.53901 0.78796 0.0
C2063 C 0.13534 0.50021 0.79019 0.0
H2064 H 0.06683 0.48925 0.78111 0.0
C2065 C 0.13488 0.52898 0.79356 0.0
C2066 C 0.10993 0.54353 0.7933 0.0
H2067 H 0.15481 0.4896 0.79135 0.0
H2068 H 0.15406 0.53985 0.79668 0.0
C2069 C 0.08555 0.52856 0.78874 0.0
C2070 C 0.2487 0.33177 0.54529 0.0
C2071 C 0.23382 0.3564 0.5478 0.0
H2072 H 0.28807 0.31255 0.5395 0.0
C2073 C 0.24853 0.3812 0.5465 0.0
H2074 H 0.2381 0.31229 0.54576 0.0
C2075 C 0.27733 0.38134 0.54342 0.0
C2076 C 0.29215 0.35671 0.54044 0.0
H2077 H 0.23774 0.40054 0.54804 0.0
H2078 H 0.28804 0.40077 0.54319 0.0
C2079 C 0.27739 0.33193 0.54129 0.0
C2080 C 0.13144 0.1712 0.15583 0.0
C2081 C 0.12901 0.14863 0.13448 0.0
H2082 H 0.13129 0.18538 0.20581 0.0
C2083 C 0.12079 0.12346 0.14836 0.0
H2084 H 0.13806 0.19084 0.14647 0.0
C2085 C 0.1167 0.12043 0.18211 0.0
C2086 C 0.12036 0.14246 0.20369 0.0
H2087 H 0.11843 0.10555 0.13313 0.0
H2088 H 0.11195 0.10028 0.19159 0.0
C2089 C 0.12742 0.16808 0.18998 0.0
C2090 C 0.11622 0.86212 0.4359 0.0
C2091 C 0.13514 0.87837 0.45362 0.0
H2092 H 0.09769 0.85324 0.38885 0.0
C2093 C 0.14976 0.89828 0.43579 0.0
H2094 H 0.10437 0.84663 0.44844 0.0
C2095 C 0.14605 0.90194 0.40233 0.0
C2096 C 0.12735 0.88607 0.38423 0.0
H2097 H 0.16466 0.91134 0.44768 0.0
H2098 H 0.15818 0.91768 0.39056 0.0
C2099 C 0.11219 0.86609 0.40166 0.0
C2100 C 0.42259 0.88173 0.68337 0.0
C2101 C 0.40052 0.87789 0.7052 0.0
H2102 H 0.43591 0.88274 0.63308 0.0
C2103 C 0.37559 0.86828 0.69189 0.0
H2104 H 0.44195 0.88954 0.6923 0.0
C2105 C 0.37229 0.86404 0.65821 0.0
C2106 C 0.39375 0.86911 0.63617 0.0
H2107 H 0.35797 0.86508 0.70751 0.0
H2108 H 0.35226 0.8582 0.64915 0.0
C2109 C 0.41915 0.87768 0.6493 0.0
C2110 C 0.38882 0.16594 0.89711 0.0
C2111 C 0.40646 0.14526 0.88526 0.0
H2112 H 0.37043 0.18551 0.93889 0.0
C2113 C 0.42042 0.12918 0.90834 0.0
H2114 H 0.37723 0.17832 0.88013 0.0
C2115 C 0.41579 0.13272 0.94206 0.0
C2116 C 0.39776 0.15305 0.95393 0.0
H2117 H 0.43355 0.11262 0.9003 0.0
H2118 H 0.42566 0.11883 0.95894 0.0
C2119 C 0.38493 0.17012 0.93089 0.0
C2120 C 0.90023 0.85423 0.89785 0.0
C2121 C 0.90378 0.88059 0.88422 0.0
H2122 H 0.89238 0.83027 0.94131 0.0
C2123 C 0.90402 0.90292 0.90574 0.0
H2124 H 0.89911 0.83655 0.882 0.0
C2125 C 0.90004 0.89943 0.93937 0.0
C2126 C 0.89525 0.87337 0.95325 0.0
H2127 H 0.90611 0.92354 0.89629 0.0
H2128 H 0.89975 0.91763 0.95442 0.0
C2129 C 0.89616 0.85064 0.93194 0.0
C2130 C 0.92231 0.14594 0.68399 0.0
C2131 C 0.89931 0.14184 0.70445 0.0
H2132 H 0.93715 0.15194 0.63467 0.0
C2133 C 0.87319 0.14352 0.68965 0.0
H2134 H 0.94279 0.14472 0.69405 0.0
C2135 C 0.87006 0.14759 0.65604 0.0
C2136 C 0.89277 0.15068 0.63533 0.0
H2137 H 0.85471 0.14077 0.70392 0.0
H2138 H 0.84953 0.1474 0.64594 0.0
C2139 C 0.91908 0.15029 0.64985 0.0
C2140 C 0.61429 0.13392 0.44144 0.0
C2141 C 0.63236 0.15419 0.45337 0.0
H2142 H 0.59676 0.11367 0.39967 0.0
C2143 C 0.64545 0.17106 0.43028 0.0
H2144 H 0.60425 0.12013 0.45831 0.0
C2145 C 0.64174 0.16675 0.39645 0.0
C2146 C 0.62406 0.14612 0.38457 0.0
H2147 H 0.66003 0.18636 0.43829 0.0
H2148 H 0.65357 0.17893 0.37948 0.0
C2149 C 0.60989 0.13023 0.40769 0.0
C2150 C 0.63841 0.85066 0.15987 0.0
C2151 C 0.62873 0.86991 0.137 0.0
H2152 H 0.64417 0.84069 0.21067 0.0
C2153 C 0.61388 0.89253 0.14922 0.0
H2154 H 0.65044 0.83334 0.15171 0.0
C2155 C 0.60966 0.89635 0.18293 0.0
C2156 C 0.62047 0.87793 0.20589 0.0
H2157 H 0.60634 0.90803 0.13263 0.0
H2158 H 0.59935 0.91475 0.19114 0.0
C2159 C 0.63473 0.85487 0.19379 0.0
C2160 C 0.60195 0.63598 0.68089 0.0
C2161 C 0.62147 0.64546 0.70358 0.0
H2162 H 0.59142 0.63069 0.63018 0.0
C2163 C 0.64398 0.66043 0.69121 0.0
H2164 H 0.58474 0.62382 0.68916 0.0
C2165 C 0.64743 0.66497 0.6575 0.0
C2166 C 0.62876 0.65433 0.63468 0.0
H2167 H 0.65971 0.66776 0.70765 0.0
H2168 H 0.66575 0.67536 0.64914 0.0
C2169 C 0.60579 0.63997 0.64695 0.0
C2170 C 0.626 0.35489 0.89944 0.0
C2171 C 0.61741 0.3801 0.88589 0.0
H2172 H 0.63799 0.33263 0.94278 0.0
C2173 C 0.61234 0.40176 0.90761 0.0
H2174 H 0.63104 0.33798 0.88348 0.0
C2175 C 0.61663 0.39883 0.94135 0.0
C2176 C 0.62634 0.37413 0.95502 0.0
H2177 H 0.60647 0.42165 0.89825 0.0
H2178 H 0.61334 0.41653 0.95672 0.0
C2179 C 0.63012 0.35185 0.93355 0.0
C2180 C 0.90493 0.39736 0.14974 0.0
C2181 C 0.89591 0.37222 0.1365 0.0
H2182 H 0.91495 0.42084 0.19235 0.0
C2183 C 0.89306 0.35003 0.15832 0.0
H2184 H 0.90763 0.415 0.13414 0.0
C2185 C 0.89753 0.35349 0.19231 0.0
C2186 C 0.90552 0.37907 0.20537 0.0
H2187 H 0.88588 0.33043 0.14945 0.0
H2188 H 0.89338 0.33653 0.20855 0.0
C2189 C 0.90952 0.40071 0.18334 0.0
C2190 C 0.87719 0.65752 0.3962 0.0
C2191 C 0.90121 0.64525 0.38361 0.0
H2192 H 0.85434 0.67041 0.43834 0.0
C2193 C 0.92225 0.63906 0.40602 0.0
H2194 H 0.86034 0.66243 0.38005 0.0
C2195 C 0.91857 0.64351 0.43995 0.0
C2196 C 0.89409 0.65497 0.45241 0.0
H2197 H 0.9408 0.62911 0.39765 0.0
H2198 H 0.93435 0.63669 0.45661 0.0
C2199 C 0.87375 0.66234 0.42981 0.0
C2200 C 0.3701 0.3772 0.39806 0.0
C2201 C 0.39611 0.37986 0.3832 0.0
H2202 H 0.34663 0.37248 0.44185 0.0
C2203 C 0.41927 0.37644 0.40354 0.0
H2204 H 0.3516 0.37936 0.38382 0.0
C2205 C 0.41623 0.37204 0.4377 0.0
C2206 C 0.38997 0.37076 0.45232 0.0
H2207 H 0.43967 0.37852 0.39343 0.0
H2208 H 0.43437 0.37112 0.45284 0.0
C2209 C 0.36714 0.37296 0.43168 0.0
C2210 C 0.41045 0.62337 0.18271 0.0
C2211 C 0.40465 0.64452 0.20487 0.0
H2212 H 0.40993 0.60934 0.13328 0.0
C2213 C 0.39498 0.66954 0.19194 0.0
H2214 H 0.41713 0.60359 0.19165 0.0
C2215 C 0.39072 0.67297 0.15795 0.0
C2216 C 0.39533 0.6512 0.13599 0.0
H2217 H 0.38936 0.68601 0.20827 0.0
H2218 H 0.38224 0.69207 0.14916 0.0
C2219 C 0.40594 0.62663 0.14906 0.0
C2220 C 0.1238 0.66935 0.89641 0.0
C2221 C 0.12038 0.64316 0.88229 0.0
H2222 H 0.13162 0.69276 0.94029 0.0
C2223 C 0.12046 0.62053 0.90339 0.0
H2224 H 0.12469 0.68725 0.88091 0.0
C2225 C 0.12462 0.6236 0.93704 0.0
C2226 C 0.12924 0.64947 0.95142 0.0
H2227 H 0.1185 0.60003 0.89357 0.0
H2228 H 0.12509 0.60523 0.95171 0.0
C2229 C 0.12801 0.67249 0.93056 0.0
C2230 C 0.10294 0.38083 0.68204 0.0
C2231 C 0.12524 0.3794 0.70398 0.0
H2232 H 0.08958 0.37924 0.63176 0.0
C2233 C 0.1509 0.37165 0.69082 0.0
H2234 H 0.08294 0.38702 0.69079 0.0
C2235 C 0.15458 0.36698 0.65728 0.0
C2236 C 0.13279 0.36952 0.63512 0.0
H2237 H 0.16876 0.37018 0.70639 0.0
H2238 H 0.17505 0.36262 0.64839 0.0
C2239 C 0.10673 0.37617 0.64807 0.0
loop_
_geom_bond_atom_site_label_1
_geom_bond_atom_site_label_2
_geom_bond_distance
_geom_bond_site_symmetry_2
_ccdc_geom_bond_type
Tb0 C2 2.809 . S
Tb0 O20 2.484 . S
Tb0 O21 2.440 . S
Tb0 O22 2.658 . S
Tb0 O23 2.409 . S
Tb0 O24 2.378 . S
Tb0 O28 2.325 . S
Tb0 O31 2.341 . S
Tb1 C11 2.809 . S
Tb1 O22 2.325 . S
Tb1 O25 2.341 . S
Tb1 O26 2.484 . S
Tb1 O27 2.440 . S
Tb1 O28 2.658 . S
Tb1 O29 2.409 . S
Tb1 O30 2.378 . S
C2 Tb0 2.809 . S
C2 C3 1.514 . S
C2 O20 1.248 . S
C2 O21 1.266 . S
C3 C2 1.514 . S
C3 C4 1.359 . S
C3 C8 1.348 . S
C4 C3 1.359 . S
C4 C5 1.380 . S
C4 H32 0.929 . S
C5 C4 1.380 . S
C5 C6 1.347 . S
C5 H33 0.931 . S
C6 C5 1.347 . S
C6 C7 1.369 . S
C7 C6 1.369 . S
C7 C8 1.408 . S
C7 H34 0.930 . S
C8 C3 1.348 . S
C8 C7 1.408 . S
C8 H35 0.930 . S
C9 O22 1.281 . S
C9 O23 1.254 . S
C10 O24 1.236 . S
C10 O25 1.266 . S
C11 Tb1 2.809 . S
C11 C12 1.514 . S
C11 O26 1.248 . S
C11 O27 1.266 . S
C12 C11 1.514 . S
C12 C13 1.359 . S
C12 C17 1.348 . S
C13 C12 1.359 . S
C13 C14 1.380 . S
C13 H36 0.929 . S
C14 C13 1.380 . S
C14 C15 1.347 1_455 S
C14 H37 0.931 . S
C15 C14 1.347 1_655 S
C15 C16 1.369 . S
C16 C15 1.369 . S
C16 C17 1.408 1_655 S
C16 H38 0.930 . S
C17 C12 1.348 . S
C17 C16 1.408 1_455 S
C17 H39 0.930 . S
C18 O28 1.281 . S
C18 O29 1.254 . S
C19 O30 1.236 . S
C19 O31 1.266 . S
O20 Tb0 2.484 . S
O20 C2 1.248 . S
O21 Tb0 2.440 . S
O21 C2 1.266 . S
O22 Tb0 2.658 . S
O22 Tb1 2.325 . S
O22 C9 1.281 . S
O23 Tb0 2.409 . S
O23 C9 1.254 . S
O24 Tb0 2.378 . S
O24 C10 1.236 . S
O25 Tb1 2.341 . S
O25 C10 1.266 . S
O26 Tb1 2.484 . S
O26 C11 1.248 . S
O27 Tb1 2.440 . S
O27 C11 1.266 . S
O28 Tb0 2.325 . S
O28 Tb1 2.658 . S
O28 C18 1.281 . S
O29 Tb1 2.409 . S
O29 C18 1.254 . S
O30 Tb1 2.378 . S
O30 C19 1.236 . S
O31 Tb0 2.341 . S
O31 C19 1.266 . S
H32 C4 0.929 . S
H33 C5 0.931 . S
H34 C7 0.930 . S
H35 C8 0.930 . S
H36 C13 0.929 . S
H37 C14 0.931 . S
H38 C16 0.930 . S
H39 C17 0.930 . S
Tb40 C42 2.809 . S
Tb40 O60 2.484 . S
Tb40 O61 2.440 . S
Tb40 O62 2.658 . S
Tb40 O63 2.409 . S
Tb40 O64 2.378 . S
Tb40 O68 2.325 . S
Tb40 O71 2.341 . S
Tb41 C51 2.809 . S
Tb41 O62 2.325 . S
Tb41 O65 2.341 . S
Tb41 O66 2.484 . S
Tb41 O67 2.440 . S
Tb41 O68 2.658 . S
Tb41 O69 2.409 . S
Tb41 O70 2.378 . S
C42 Tb40 2.809 . S
C42 C43 1.514 . S
C42 O60 1.248 . S
C42 O61 1.266 . S
C43 C42 1.514 . S
C43 C44 1.359 . S
C43 C48 1.348 . S
C44 C43 1.359 . S
C44 C45 1.380 . S
C44 H72 0.929 . S
C45 C44 1.380 . S
C45 C46 1.347 1_565 S
C45 H73 0.931 . S
C46 C45 1.347 1_545 S
C46 C47 1.369 . S
C47 C46 1.369 . S
C47 C48 1.408 1_545 S
C47 H74 0.930 . S
C48 C43 1.348 . S
C48 C47 1.408 1_565 S
C48 H75 0.930 . S
C49 O62 1.281 . S
C49 O63 1.254 . S
C50 O64 1.236 . S
C50 O65 1.266 . S
C51 Tb41 2.809 . S
C51 C52 1.514 . S
C51 O66 1.248 . S
C51 O67 1.266 . S
C52 C51 1.514 . S
C52 C53 1.359 . S
C52 C57 1.348 . S
C53 C52 1.359 . S
C53 C54 1.380 . S
C53 H76 0.929 . S
C54 C53 1.380 . S
C54 C55 1.347 . S
C54 H77 0.931 . S
C55 C54 1.347 . S
C55 C56 1.369 . S
C56 C55 1.369 . S
C56 C57 1.408 . S
C56 H78 0.930 . S
C57 C52 1.348 . S
C57 C56 1.408 . S
C57 H79 0.930 . S
C58 O68 1.281 . S
C58 O69 1.254 . S
C59 O70 1.236 . S
C59 O71 1.266 . S
O60 Tb40 2.484 . S
O60 C42 1.248 . S
O61 Tb40 2.440 . S
O61 C42 1.266 . S
O62 Tb40 2.658 . S
O62 Tb41 2.325 . S
O62 C49 1.281 . S
O63 Tb40 2.409 . S
O63 C49 1.254 . S
O64 Tb40 2.378 . S
O64 C50 1.236 . S
O65 Tb41 2.341 . S
O65 C50 1.266 . S
O66 Tb41 2.484 . S
O66 C51 1.248 . S
O67 Tb41 2.440 . S
O67 C51 1.266 . S
O68 Tb40 2.325 . S
O68 Tb41 2.658 . S
O68 C58 1.281 . S
O69 Tb41 2.409 . S
O69 C58 1.254 . S
O70 Tb41 2.378 . S
O70 C59 1.236 . S
O71 Tb40 2.341 . S
O71 C59 1.266 . S
H72 C44 0.929 . S
H73 C45 0.931 . S
H74 C47 0.930 . S
H75 C48 0.930 . S
H76 C53 0.929 . S
H77 C54 0.931 . S
H78 C56 0.930 . S
H79 C57 0.930 . S
Tb80 C82 2.809 . S
Tb80 O100 2.484 . S
Tb80 O101 2.440 . S
Tb80 O102 2.658 . S
Tb80 O103 2.409 . S
Tb80 O104 2.378 . S
Tb80 O108 2.325 . S
Tb80 O111 2.341 . S
Tb81 C91 2.809 . S
Tb81 O102 2.325 . S
Tb81 O105 2.341 . S
Tb81 O106 2.484 . S
Tb81 O107 2.440 . S
Tb81 O108 2.658 . S
Tb81 O109 2.409 . S
Tb81 O110 2.378 . S
C82 Tb80 2.809 . S
C82 C83 1.514 . S
C82 O100 1.248 . S
C82 O101 1.266 . S
C83 C82 1.514 . S
C83 C84 1.359 . S
C83 C88 1.348 . S
C84 C83 1.359 . S
C84 C85 1.380 . S
C84 H112 0.929 . S
C85 C84 1.380 . S
C85 C86 1.347 . S
C85 H113 0.931 . S
C86 C85 1.347 . S
C86 C87 1.369 . S
C87 C86 1.369 . S
C87 C88 1.408 . S
C87 H114 0.930 . S
C88 C83 1.348 . S
C88 C87 1.408 . S
C88 H115 0.930 . S
C89 O102 1.281 . S
C89 O103 1.254 . S
C90 O104 1.236 . S
C90 O105 1.266 . S
C91 Tb81 2.809 . S
C91 C92 1.514 . S
C91 O106 1.248 . S
C91 O107 1.266 . S
C92 C91 1.514 . S
C92 C93 1.359 . S
C92 C97 1.348 . S
C93 C92 1.359 . S
C93 C94 1.380 . S
C93 H116 0.929 . S
C94 C93 1.380 . S
C94 C95 1.347 . S
C94 H117 0.931 . S
C95 C94 1.347 . S
C95 C96 1.369 . S
C96 C95 1.369 . S
C96 C97 1.408 . S
C96 H118 0.930 . S
C97 C92 1.348 . S
C97 C96 1.408 . S
C97 H119 0.930 . S
C98 O108 1.281 . S
C98 O109 1.254 . S
C99 O110 1.236 . S
C99 O111 1.266 . S
O100 Tb80 2.484 . S
O100 C82 1.248 . S
O101 Tb80 2.440 . S
O101 C82 1.266 . S
O102 Tb80 2.658 . S
O102 Tb81 2.325 . S
O102 C89 1.281 . S
O103 Tb80 2.409 . S
O103 C89 1.254 . S
O104 Tb80 2.378 . S
O104 C90 1.236 . S
O105 Tb81 2.341 . S
O105 C90 1.266 . S
O106 Tb81 2.484 . S
O106 C91 1.248 . S
O107 Tb81 2.440 . S
O107 C91 1.266 . S
O108 Tb80 2.325 . S
O108 Tb81 2.658 . S
O108 C98 1.281 . S
O109 Tb81 2.409 . S
O109 C98 1.254 . S
O110 Tb81 2.378 . S
O110 C99 1.236 . S
O111 Tb80 2.341 . S
O111 C99 1.266 . S
H112 C84 0.929 . S
H113 C85 0.931 . S
H114 C87 0.930 . S
H115 C88 0.930 . S
H116 C93 0.929 . S
H117 C94 0.931 . S
H118 C96 0.930 . S
H119 C97 0.930 . S
Tb120 C122 2.809 1_554 S
Tb120 O140 2.484 1_554 S
Tb120 O141 2.440 1_554 S
Tb120 O142 2.658 . S
Tb120 O143 2.409 . S
Tb120 O144 2.378 1_554 S
Tb120 O148 2.329 . S
Tb120 O151 2.341 . S
Tb121 C131 2.809 . S
Tb121 O142 2.325 . S
Tb121 O145 2.341 1_554 S
Tb121 O146 2.484 . S
Tb121 O147 2.440 . S
Tb121 O148 2.663 . S
Tb121 O149 2.409 . S
Tb121 O150 2.378 . S
C122 Tb120 2.809 1_556 S
C122 C123 1.514 . S
C122 O140 1.248 . S
C122 O141 1.266 . S
C123 C122 1.514 . S
C123 C124 1.359 . S
C123 C128 1.348 . S
C124 C123 1.359 . S
C124 C125 1.380 . S
C124 H152 0.929 . S
C125 C124 1.380 . S
C125 C126 1.347 1_545 S
C125 H153 0.931 . S
C126 C125 1.347 1_565 S
C126 C127 1.369 . S
C127 C126 1.369 . S
C127 C128 1.408 1_565 S
C127 H154 0.930 . S
C128 C123 1.348 . S
C128 C127 1.408 1_545 S
C128 H155 0.930 . S
C129 O142 1.281 . S
C129 O143 1.254 . S
C130 O144 1.236 . S
C130 O145 1.266 . S
C131 Tb121 2.809 . S
C131 C132 1.514 . S
C131 O146 1.248 . S
C131 O147 1.266 . S
C132 C131 1.514 . S
C132 C133 1.359 . S
C132 C137 1.348 . S
C133 C132 1.359 . S
C133 C134 1.380 . S
C133 H156 0.929 . S
C134 C133 1.380 . S
C134 C135 1.347 . S
C134 H157 0.931 . S
C135 C134 1.347 . S
C135 C136 1.369 . S
C136 C135 1.369 . S
C136 C137 1.408 . S
C136 H158 0.930 . S
C137 C132 1.348 . S
C137 C136 1.408 . S
C137 H159 0.930 . S
C138 O148 1.279 1_556 S
C138 O149 1.254 1_556 S
C139 O150 1.236 . S
C139 O151 1.266 . S
O140 Tb120 2.484 1_556 S
O140 C122 1.248 . S
O141 Tb120 2.440 1_556 S
O141 C122 1.266 . S
O142 Tb120 2.658 . S
O142 Tb121 2.325 . S
O142 C129 1.281 . S
O143 Tb120 2.409 . S
O143 C129 1.254 . S
O144 Tb120 2.378 1_556 S
O144 C130 1.236 . S
O145 Tb121 2.341 1_556 S
O145 C130 1.266 . S
O146 Tb121 2.484 . S
O146 C131 1.248 . S
O147 Tb121 2.440 . S
O147 C131 1.266 . S
O148 Tb120 2.329 . S
O148 Tb121 2.663 . S
O148 C138 1.279 1_554 S
O149 Tb121 2.409 . S
O149 C138 1.254 1_554 S
O150 Tb121 2.378 . S
O150 C139 1.236 . S
O151 Tb120 2.341 . S
O151 C139 1.266 . S
H152 C124 0.929 . S
H153 C125 0.931 . S
H154 C127 0.930 . S
H155 C128 0.930 . S
H156 C133 0.929 . S
H157 C134 0.931 . S
H158 C136 0.930 . S
H159 C137 0.930 . S
Tb160 C162 2.809 . S
Tb160 O180 2.484 . S
Tb160 O181 2.440 . S
Tb160 O182 2.658 . S
Tb160 O183 2.409 . S
Tb160 O184 2.378 . S
Tb160 O188 2.325 . S
Tb160 O191 2.341 . S
Tb161 C171 2.809 . S
Tb161 O182 2.325 . S
Tb161 O185 2.341 . S
Tb161 O186 2.484 . S
Tb161 O187 2.440 . S
Tb161 O188 2.658 . S
Tb161 O189 2.409 . S
Tb161 O190 2.378 . S
C162 Tb160 2.809 . S
C162 C163 1.514 . S
C162 O180 1.248 . S
C162 O181 1.266 . S
C163 C162 1.514 . S
C163 C164 1.359 . S
C163 C168 1.348 . S
C164 C163 1.359 . S
C164 C165 1.380 . S
C164 H192 0.929 . S
C165 C164 1.380 . S
C165 C166 1.347 . S
C165 H193 0.931 . S
C166 C165 1.347 . S
C166 C167 1.369 . S
C167 C166 1.369 . S
C167 C168 1.408 . S
C167 H194 0.930 . S
C168 C163 1.348 . S
C168 C167 1.408 . S
C168 H195 0.930 . S
C169 O182 1.281 . S
C169 O183 1.254 . S
C170 O184 1.236 . S
C170 O185 1.266 . S
C171 Tb161 2.809 . S
C171 C172 1.514 . S
C171 O186 1.248 . S
C171 O187 1.266 . S
C172 C171 1.514 . S
C172 C173 1.359 . S
C172 C177 1.348 . S
C173 C172 1.359 . S
C173 C174 1.380 . S
C173 H196 0.929 . S
C174 C173 1.380 . S
C174 C175 1.347 1_455 S
C174 H197 0.931 . S
C175 C174 1.347 1_655 S
C175 C176 1.369 . S
C176 C175 1.369 . S
C176 C177 1.408 1_655 S
C176 H198 0.930 . S
C177 C172 1.348 . S
C177 C176 1.408 1_455 S
C177 H199 0.930 . S
C178 O188 1.281 . S
C178 O189 1.254 . S
C179 O190 1.236 . S
C179 O191 1.266 . S
O180 Tb160 2.484 . S
O180 C162 1.248 . S
O181 Tb160 2.440 . S
O181 C162 1.266 . S
O182 Tb160 2.658 . S
O182 Tb161 2.325 . S
O182 C169 1.281 . S
O183 Tb160 2.409 . S
O183 C169 1.254 . S
O184 Tb160 2.378 . S
O184 C170 1.236 . S
O185 Tb161 2.341 . S
O185 C170 1.266 . S
O186 Tb161 2.484 . S
O186 C171 1.248 . S
O187 Tb161 2.440 . S
O187 C171 1.266 . S
O188 Tb160 2.325 . S
O188 Tb161 2.658 . S
O188 C178 1.281 . S
O189 Tb161 2.409 . S
O189 C178 1.254 . S
O190 Tb161 2.378 . S
O190 C179 1.236 . S
O191 Tb160 2.341 . S
O191 C179 1.266 . S
H192 C164 0.929 . S
H193 C165 0.931 . S
H194 C167 0.930 . S
H195 C168 0.930 . S
H196 C173 0.929 . S
H197 C174 0.931 . S
H198 C176 0.930 . S
H199 C177 0.930 . S
Tb200 C202 2.809 . S
Tb200 O220 2.484 . S
Tb200 O221 2.440 . S
Tb200 O222 2.658 . S
Tb200 O223 2.409 . S
Tb200 O224 2.378 . S
Tb200 O228 2.325 . S
Tb200 O231 2.341 . S
Tb201 C211 2.809 . S
Tb201 O222 2.325 . S
Tb201 O225 2.341 . S
Tb201 O226 2.484 . S
Tb201 O227 2.440 . S
Tb201 O228 2.658 . S
Tb201 O229 2.409 . S
Tb201 O230 2.378 . S
C202 Tb200 2.809 . S
C202 C203 1.514 . S
C202 O220 1.248 . S
C202 O221 1.266 . S
C203 C202 1.514 . S
C203 C204 1.359 . S
C203 C208 1.348 . S
C204 C203 1.359 . S
C204 C205 1.380 . S
C204 H232 0.929 . S
C205 C204 1.380 . S
C205 C206 1.347 1_565 S
C205 H233 0.931 . S
C206 C205 1.347 1_545 S
C206 C207 1.369 . S
C207 C206 1.369 . S
C207 C208 1.408 1_545 S
C207 H234 0.930 . S
C208 C203 1.348 . S
C208 C207 1.408 1_565 S
C208 H235 0.930 . S
C209 O222 1.281 . S
C209 O223 1.254 . S
C210 O224 1.236 . S
C210 O225 1.266 . S
C211 Tb201 2.809 . S
C211 C212 1.514 . S
C211 O226 1.248 . S
C211 O227 1.266 . S
C212 C211 1.514 . S
C212 C213 1.359 . S
C212 C217 1.348 . S
C213 C212 1.359 . S
C213 C214 1.380 . S
C213 H236 0.929 . S
C214 C213 1.380 . S
C214 C215 1.347 . S
C214 H237 0.931 . S
C215 C214 1.347 . S
C215 C216 1.369 . S
C216 C215 1.369 . S
C216 C217 1.408 . S
C216 H238 0.930 . S
C217 C212 1.348 . S
C217 C216 1.408 . S
C217 H239 0.930 . S
C218 O228 1.281 . S
C218 O229 1.254 . S
C219 O230 1.236 . S
C219 O231 1.266 . S
O220 Tb200 2.484 . S
O220 C202 1.248 . S
O221 Tb200 2.440 . S
O221 C202 1.266 . S
O222 Tb200 2.658 . S
O222 Tb201 2.325 . S
O222 C209 1.281 . S
O223 Tb200 2.409 . S
O223 C209 1.254 . S
O224 Tb200 2.378 . S
O224 C210 1.236 . S
O225 Tb201 2.341 . S
O225 C210 1.266 . S
O226 Tb201 2.484 . S
O226 C211 1.248 . S
O227 Tb201 2.440 . S
O227 C211 1.266 . S
O228 Tb200 2.325 . S
O228 Tb201 2.658 . S
O228 C218 1.281 . S
O229 Tb201 2.409 . S
O229 C218 1.254 . S
O230 Tb201 2.378 . S
O230 C219 1.236 . S
O231 Tb200 2.341 . S
O231 C219 1.266 . S
H232 C204 0.929 . S
H233 C205 0.931 . S
H234 C207 0.930 . S
H235 C208 0.930 . S
H236 C213 0.929 . S
H237 C214 0.931 . S
H238 C216 0.930 . S
H239 C217 0.930 . S
Tb240 C242 2.809 . S
Tb240 O260 2.484 . S
Tb240 O261 2.440 . S
Tb240 O262 2.658 . S
Tb240 O263 2.409 . S
Tb240 O264 2.378 . S
Tb240 O268 2.325 . S
Tb240 O271 2.341 . S
Tb241 C251 2.809 . S
Tb241 O262 2.325 . S
Tb241 O265 2.341 . S
Tb241 O266 2.484 . S
Tb241 O267 2.440 . S
Tb241 O268 2.658 . S
Tb241 O269 2.409 . S
Tb241 O270 2.378 . S
C242 Tb240 2.809 . S
C242 C243 1.514 . S
C242 O260 1.248 . S
C242 O261 1.266 . S
C243 C242 1.514 . S
C243 C244 1.359 . S
C243 C248 1.348 . S
C244 C243 1.359 . S
C244 C245 1.380 . S
C244 H272 0.929 . S
C245 C244 1.380 . S
C245 C246 1.347 . S
C245 H273 0.931 . S
C246 C245 1.347 . S
C246 C247 1.369 . S
C247 C246 1.369 . S
C247 C248 1.408 . S
C247 H274 0.930 . S
C248 C243 1.348 . S
C248 C247 1.408 . S
C248 H275 0.930 . S
C249 O262 1.281 . S
C249 O263 1.254 . S
C250 O264 1.236 . S
C250 O265 1.266 . S
C251 Tb241 2.809 . S
C251 C252 1.514 . S
C251 O266 1.248 . S
C251 O267 1.266 . S
C252 C251 1.514 . S
C252 C253 1.359 . S
C252 C257 1.348 . S
C253 C252 1.359 . S
C253 C254 1.380 . S
C253 H276 0.929 . S
C254 C253 1.380 . S
C254 C255 1.347 . S
C254 H277 0.931 . S
C255 C254 1.347 . S
C255 C256 1.369 . S
C256 C255 1.369 . S
C256 C257 1.408 . S
C256 H278 0.930 . S
C257 C252 1.348 . S
C257 C256 1.408 . S
C257 H279 0.930 . S
C258 O268 1.281 . S
C258 O269 1.254 . S
C259 O270 1.236 . S
C259 O271 1.266 . S
O260 Tb240 2.484 . S
O260 C242 1.248 . S
O261 Tb240 2.440 . S
O261 C242 1.266 . S
O262 Tb240 2.658 . S
O262 Tb241 2.325 . S
O262 C249 1.281 . S
O263 Tb240 2.409 . S
O263 C249 1.254 . S
O264 Tb240 2.378 . S
O264 C250 1.236 . S
O265 Tb241 2.341 . S
O265 C250 1.266 . S
O266 Tb241 2.484 . S
O266 C251 1.248 . S
O267 Tb241 2.440 . S
O267 C251 1.266 . S
O268 Tb240 2.325 . S
O268 Tb241 2.658 . S
O268 C258 1.281 . S
O269 Tb241 2.409 . S
O269 C258 1.254 . S
O270 Tb241 2.378 . S
O270 C259 1.236 . S
O271 Tb240 2.341 . S
O271 C259 1.266 . S
H272 C244 0.929 . S
H273 C245 0.931 . S
H274 C247 0.930 . S
H275 C248 0.930 . S
H276 C253 0.929 . S
H277 C254 0.931 . S
H278 C256 0.930 . S
H279 C257 0.930 . S
Tb280 C282 2.809 1_556 S
Tb280 O300 2.484 1_556 S
Tb280 O301 2.440 1_556 S
Tb280 O302 2.658 . S
Tb280 O303 2.409 . S
Tb280 O304 2.378 1_556 S
Tb280 O308 2.329 . S
Tb280 O311 2.341 . S
Tb281 C291 2.809 . S
Tb281 O302 2.325 . S
Tb281 O305 2.341 1_556 S
Tb281 O306 2.484 . S
Tb281 O307 2.440 . S
Tb281 O308 2.663 . S
Tb281 O309 2.409 . S
Tb281 O310 2.378 . S
C282 Tb280 2.809 1_554 S
C282 C283 1.514 . S
C282 O300 1.248 . S
C282 O301 1.266 . S
C283 C282 1.514 . S
C283 C284 1.359 . S
C283 C288 1.348 . S
C284 C283 1.359 . S
C284 C285 1.380 . S
C284 H312 0.929 . S
C285 C284 1.380 . S
C285 C286 1.347 1_545 S
C285 H313 0.931 . S
C286 C285 1.347 1_565 S
C286 C287 1.369 . S
C287 C286 1.369 . S
C287 C288 1.408 1_565 S
C287 H314 0.930 . S
C288 C283 1.348 . S
C288 C287 1.408 1_545 S
C288 H315 0.930 . S
C289 O302 1.281 . S
C289 O303 1.254 . S
C290 O304 1.236 . S
C290 O305 1.266 . S
C291 Tb281 2.809 . S
C291 C292 1.514 . S
C291 O306 1.248 . S
C291 O307 1.266 . S
C292 C291 1.514 . S
C292 C293 1.359 . S
C292 C297 1.348 . S
C293 C292 1.359 . S
C293 C294 1.380 . S
C293 H316 0.929 . S
C294 C293 1.380 . S
C294 C295 1.347 . S
C294 H317 0.931 . S
C295 C294 1.347 . S
C295 C296 1.369 . S
C296 C295 1.369 . S
C296 C297 1.408 . S
C296 H318 0.930 . S
C297 C292 1.348 . S
C297 C296 1.408 . S
C297 H319 0.930 . S
C298 O308 1.279 1_554 S
C298 O309 1.254 1_554 S
C299 O310 1.236 . S
C299 O311 1.266 . S
O300 Tb280 2.484 1_554 S
O300 C282 1.248 . S
O301 Tb280 2.440 1_554 S
O301 C282 1.266 . S
O302 Tb280 2.658 . S
O302 Tb281 2.325 . S
O302 C289 1.281 . S
O303 Tb280 2.409 . S
O303 C289 1.254 . S
O304 Tb280 2.378 1_554 S
O304 C290 1.236 . S
O305 Tb281 2.341 1_554 S
O305 C290 1.266 . S
O306 Tb281 2.484 . S
O306 C291 1.248 . S
O307 Tb281 2.440 . S
O307 C291 1.266 . S
O308 Tb280 2.329 . S
O308 Tb281 2.663 . S
O308 C298 1.279 1_556 S
O309 Tb281 2.409 . S
O309 C298 1.254 1_556 S
O310 Tb281 2.378 . S
O310 C299 1.236 . S
O311 Tb280 2.341 . S
O311 C299 1.266 . S
H312 C284 0.929 . S
H313 C285 0.931 . S
H314 C287 0.930 . S
H315 C288 0.930 . S
H316 C293 0.929 . S
H317 C294 0.931 . S
H318 C296 0.930 . S
H319 C297 0.930 . S
Tb320 C322 2.809 . S
Tb320 O340 2.484 . S
Tb320 O341 2.440 . S
Tb320 O342 2.658 . S
Tb320 O343 2.409 . S
Tb320 O344 2.378 . S
Tb320 O348 2.325 . S
Tb320 O351 2.341 . S
Tb321 C331 2.809 . S
Tb321 O342 2.325 . S
Tb321 O345 2.341 . S
Tb321 O346 2.484 . S
Tb321 O347 2.440 . S
Tb321 O348 2.658 . S
Tb321 O349 2.409 . S
Tb321 O350 2.378 . S
C322 Tb320 2.809 . S
C322 C323 1.514 . S
C322 O340 1.248 . S
C322 O341 1.266 . S
C323 C322 1.514 . S
C323 C324 1.359 . S
C323 C328 1.348 . S
C324 C323 1.359 . S
C324 C325 1.380 . S
C324 H352 0.929 . S
C325 C324 1.380 . S
C325 C326 1.347 1_655 S
C325 H353 0.931 . S
C326 C325 1.347 1_455 S
C326 C327 1.369 . S
C327 C326 1.369 . S
C327 C328 1.408 1_455 S
C327 H354 0.930 . S
C328 C323 1.348 . S
C328 C327 1.408 1_655 S
C328 H355 0.930 . S
C329 O342 1.281 . S
C329 O343 1.254 . S
C330 O344 1.236 . S
C330 O345 1.266 . S
C331 Tb321 2.809 . S
C331 C332 1.514 . S
C331 O346 1.248 . S
C331 O347 1.266 . S
C332 C331 1.514 . S
C332 C333 1.359 . S
C332 C337 1.348 . S
C333 C332 1.359 . S
C333 C334 1.380 . S
C333 H356 0.929 . S
C334 C333 1.380 . S
C334 C335 1.347 . S
C334 H357 0.931 . S
C335 C334 1.347 . S
C335 C336 1.369 . S
C336 C335 1.369 . S
C336 C337 1.408 . S
C336 H358 0.930 . S
C337 C332 1.348 . S
C337 C336 1.408 . S
C337 H359 0.930 . S
C338 O348 1.281 . S
C338 O349 1.254 . S
C339 O350 1.236 . S
C339 O351 1.266 . S
O340 Tb320 2.484 . S
O340 C322 1.248 . S
O341 Tb320 2.440 . S
O341 C322 1.266 . S
O342 Tb320 2.658 . S
O342 Tb321 2.325 . S
O342 C329 1.281 . S
O343 Tb320 2.409 . S
O343 C329 1.254 . S
O344 Tb320 2.378 . S
O344 C330 1.236 . S
O345 Tb321 2.341 . S
O345 C330 1.266 . S
O346 Tb321 2.484 . S
O346 C331 1.248 . S
O347 Tb321 2.440 . S
O347 C331 1.266 . S
O348 Tb320 2.325 . S
O348 Tb321 2.658 . S
O348 C338 1.281 . S
O349 Tb321 2.409 . S
O349 C338 1.254 . S
O350 Tb321 2.378 . S
O350 C339 1.236 . S
O351 Tb320 2.341 . S
O351 C339 1.266 . S
H352 C324 0.929 . S
H353 C325 0.931 . S
H354 C327 0.930 . S
H355 C328 0.930 . S
H356 C333 0.929 . S
H357 C334 0.931 . S
H358 C336 0.930 . S
H359 C337 0.930 . S
Tb360 C362 2.809 . S
Tb360 O380 2.484 . S
Tb360 O381 2.440 . S
Tb360 O382 2.658 . S
Tb360 O383 2.409 . S
Tb360 O384 2.378 . S
Tb360 O388 2.325 . S
Tb360 O391 2.341 . S
Tb361 C371 2.809 . S
Tb361 O382 2.325 . S
Tb361 O385 2.341 . S
Tb361 O386 2.484 . S
Tb361 O387 2.440 . S
Tb361 O388 2.658 . S
Tb361 O389 2.409 . S
Tb361 O390 2.378 . S
C362 Tb360 2.809 . S
C362 C363 1.514 . S
C362 O380 1.248 . S
C362 O381 1.266 . S
C363 C362 1.514 . S
C363 C364 1.359 . S
C363 C368 1.348 . S
C364 C363 1.359 . S
C364 C365 1.380 . S
C364 H392 0.929 . S
C365 C364 1.380 . S
C365 C366 1.347 . S
C365 H393 0.931 . S
C366 C365 1.347 . S
C366 C367 1.369 . S
C367 C366 1.369 . S
C367 C368 1.408 . S
C367 H394 0.930 . S
C368 C363 1.348 . S
C368 C367 1.408 . S
C368 H395 0.930 . S
C369 O382 1.281 . S
C369 O383 1.254 . S
C370 O384 1.236 . S
C370 O385 1.266 . S
C371 Tb361 2.809 . S
C371 C372 1.514 . S
C371 O386 1.248 . S
C371 O387 1.266 . S
C372 C371 1.514 . S
C372 C373 1.359 . S
C372 C377 1.348 . S
C373 C372 1.359 . S
C373 C374 1.380 . S
C373 H396 0.929 . S
C374 C373 1.380 . S
C374 C375 1.347 1_545 S
C374 H397 0.931 . S
C375 C374 1.347 1_565 S
C375 C376 1.369 . S
C376 C375 1.369 . S
C376 C377 1.408 1_565 S
C376 H398 0.930 . S
C377 C372 1.348 . S
C377 C376 1.408 1_545 S
C377 H399 0.930 . S
C378 O388 1.281 . S
C378 O389 1.254 . S
C379 O390 1.236 . S
C379 O391 1.266 . S
O380 Tb360 2.484 . S
O380 C362 1.248 . S
O381 Tb360 2.440 . S
O381 C362 1.266 . S
O382 Tb360 2.658 . S
O382 Tb361 2.325 . S
O382 C369 1.281 . S
O383 Tb360 2.409 . S
O383 C369 1.254 . S
O384 Tb360 2.378 . S
O384 C370 1.236 . S
O385 Tb361 2.341 . S
O385 C370 1.266 . S
O386 Tb361 2.484 . S
O386 C371 1.248 . S
O387 Tb361 2.440 . S
O387 C371 1.266 . S
O388 Tb360 2.325 . S
O388 Tb361 2.658 . S
O388 C378 1.281 . S
O389 Tb361 2.409 . S
O389 C378 1.254 . S
O390 Tb361 2.378 . S
O390 C379 1.236 . S
O391 Tb360 2.341 . S
O391 C379 1.266 . S
H392 C364 0.929 . S
H393 C365 0.931 . S
H394 C367 0.930 . S
H395 C368 0.930 . S
H396 C373 0.929 . S
H397 C374 0.931 . S
H398 C376 0.930 . S
H399 C377 0.930 . S
Tb400 C402 2.809 . S
Tb400 O420 2.484 . S
Tb400 O421 2.440 . S
Tb400 O422 2.658 . S
Tb400 O423 2.409 . S
Tb400 O424 2.378 . S
Tb400 O428 2.325 . S
Tb400 O431 2.341 . S
Tb401 C411 2.809 . S
Tb401 O422 2.325 . S
Tb401 O425 2.341 . S
Tb401 O426 2.484 . S
Tb401 O427 2.440 . S
Tb401 O428 2.658 . S
Tb401 O429 2.409 . S
Tb401 O430 2.378 . S
C402 Tb400 2.809 . S
C402 C403 1.514 . S
C402 O420 1.248 . S
C402 O421 1.266 . S
C403 C402 1.514 . S
C403 C404 1.359 . S
C403 C408 1.348 . S
C404 C403 1.359 . S
C404 C405 1.380 . S
C404 H432 0.929 . S
C405 C404 1.380 . S
C405 C406 1.347 . S
C405 H433 0.931 . S
C406 C405 1.347 . S
C406 C407 1.369 . S
C407 C406 1.369 . S
C407 C408 1.408 . S
C407 H434 0.930 . S
C408 C403 1.348 . S
C408 C407 1.408 . S
C408 H435 0.930 . S
C409 O422 1.281 . S
C409 O423 1.254 . S
C410 O424 1.236 . S
C410 O425 1.266 . S
C411 Tb401 2.809 . S
C411 C412 1.514 . S
C411 O426 1.248 . S
C411 O427 1.266 . S
C412 C411 1.514 . S
C412 C413 1.359 . S
C412 C417 1.348 . S
C413 C412 1.359 . S
C413 C414 1.380 . S
C413 H436 0.929 . S
C414 C413 1.380 . S
C414 C415 1.347 . S
C414 H437 0.931 . S
C415 C414 1.347 . S
C415 C416 1.369 . S
C416 C415 1.369 . S
C416 C417 1.408 . S
C416 H438 0.930 . S
C417 C412 1.348 . S
C417 C416 1.408 . S
C417 H439 0.930 . S
C418 O428 1.281 . S
C418 O429 1.254 . S
C419 O430 1.236 . S
C419 O431 1.266 . S
O420 Tb400 2.484 . S
O420 C402 1.248 . S
O421 Tb400 2.440 . S
O421 C402 1.266 . S
O422 Tb400 2.658 . S
O422 Tb401 2.325 . S
O422 C409 1.281 . S
O423 Tb400 2.409 . S
O423 C409 1.254 . S
O424 Tb400 2.378 . S
O424 C410 1.236 . S
O425 Tb401 2.341 . S
O425 C410 1.266 . S
O426 Tb401 2.484 . S
O426 C411 1.248 . S
O427 Tb401 2.440 . S
O427 C411 1.266 . S
O428 Tb400 2.325 . S
O428 Tb401 2.658 . S
O428 C418 1.281 . S
O429 Tb401 2.409 . S
O429 C418 1.254 . S
O430 Tb401 2.378 . S
O430 C419 1.236 . S
O431 Tb400 2.341 . S
O431 C419 1.266 . S
H432 C404 0.929 . S
H433 C405 0.931 . S
H434 C407 0.930 . S
H435 C408 0.930 . S
H436 C413 0.929 . S
H437 C414 0.931 . S
H438 C416 0.930 . S
H439 C417 0.930 . S
Tb440 C442 2.809 . S
Tb440 O460 2.484 . S
Tb440 O461 2.440 . S
Tb440 O462 2.663 . S
Tb440 O463 2.409 . S
Tb440 O464 2.378 . S
Tb440 O468 2.325 . S
Tb440 O471 2.341 1_556 S
Tb441 C451 2.809 1_556 S
Tb441 O462 2.329 . S
Tb441 O465 2.341 . S
Tb441 O466 2.484 1_556 S
Tb441 O467 2.440 1_556 S
Tb441 O468 2.658 . S
Tb441 O469 2.409 . S
Tb441 O470 2.378 1_556 S
C442 Tb440 2.809 . S
C442 C443 1.514 . S
C442 O460 1.248 . S
C442 O461 1.266 . S
C443 C442 1.514 . S
C443 C444 1.359 . S
C443 C448 1.348 . S
C444 C443 1.359 . S
C444 C445 1.380 . S
C444 H472 0.929 . S
C445 C444 1.380 . S
C445 C446 1.347 . S
C445 H473 0.931 . S
C446 C445 1.347 . S
C446 C447 1.369 . S
C447 C446 1.369 . S
C447 C448 1.408 . S
C447 H474 0.930 . S
C448 C443 1.348 . S
C448 C447 1.408 . S
C448 H475 0.930 . S
C449 O462 1.279 1_554 S
C449 O463 1.254 1_554 S
C450 O464 1.236 . S
C450 O465 1.266 . S
C451 Tb441 2.809 1_554 S
C451 C452 1.514 . S
C451 O466 1.248 . S
C451 O467 1.266 . S
C452 C451 1.514 . S
C452 C453 1.359 . S
C452 C457 1.348 . S
C453 C452 1.359 . S
C453 C454 1.380 . S
C453 H476 0.929 . S
C454 C453 1.380 . S
C454 C455 1.347 1_565 S
C454 H477 0.931 . S
C455 C454 1.347 1_545 S
C455 C456 1.369 . S
C456 C455 1.369 . S
C456 C457 1.408 1_545 S
C456 H478 0.930 . S
C457 C452 1.348 . S
C457 C456 1.408 1_565 S
C457 H479 0.930 . S
C458 O468 1.281 . S
C458 O469 1.254 . S
C459 O470 1.236 . S
C459 O471 1.266 . S
O460 Tb440 2.484 . S
O460 C442 1.248 . S
O461 Tb440 2.440 . S
O461 C442 1.266 . S
O462 Tb440 2.663 . S
O462 Tb441 2.329 . S
O462 C449 1.279 1_556 S
O463 Tb440 2.409 . S
O463 C449 1.254 1_556 S
O464 Tb440 2.378 . S
O464 C450 1.236 . S
O465 Tb441 2.341 . S
O465 C450 1.266 . S
O466 Tb441 2.484 1_554 S
O466 C451 1.248 . S
O467 Tb441 2.440 1_554 S
O467 C451 1.266 . S
O468 Tb440 2.325 . S
O468 Tb441 2.658 . S
O468 C458 1.281 . S
O469 Tb441 2.409 . S
O469 C458 1.254 . S
O470 Tb441 2.378 1_554 S
O470 C459 1.236 . S
O471 Tb440 2.341 1_554 S
O471 C459 1.266 . S
H472 C444 0.929 . S
H473 C445 0.931 . S
H474 C447 0.930 . S
H475 C448 0.930 . S
H476 C453 0.929 . S
H477 C454 0.931 . S
H478 C456 0.930 . S
H479 C457 0.930 . S
Tb480 C482 2.809 . S
Tb480 O500 2.484 . S
Tb480 O501 2.440 . S
Tb480 O502 2.658 . S
Tb480 O503 2.409 . S
Tb480 O504 2.378 . S
Tb480 O508 2.325 . S
Tb480 O511 2.341 . S
Tb481 C491 2.809 . S
Tb481 O502 2.325 . S
Tb481 O505 2.341 . S
Tb481 O506 2.484 . S
Tb481 O507 2.440 . S
Tb481 O508 2.658 . S
Tb481 O509 2.409 . S
Tb481 O510 2.378 . S
C482 Tb480 2.809 . S
C482 C483 1.514 . S
C482 O500 1.248 . S
C482 O501 1.266 . S
C483 C482 1.514 . S
C483 C484 1.359 . S
C483 C488 1.348 . S
C484 C483 1.359 . S
C484 C485 1.380 . S
C484 H512 0.929 . S
C485 C484 1.380 . S
C485 C486 1.347 1_655 S
C485 H513 0.931 . S
C486 C485 1.347 1_455 S
C486 C487 1.369 . S
C487 C486 1.369 . S
C487 C488 1.408 1_455 S
C487 H514 0.930 . S
C488 C483 1.348 . S
C488 C487 1.408 1_655 S
C488 H515 0.930 . S
C489 O502 1.281 . S
C489 O503 1.254 . S
C490 O504 1.236 . S
C490 O505 1.266 . S
C491 Tb481 2.809 . S
C491 C492 1.514 . S
C491 O506 1.248 . S
C491 O507 1.266 . S
C492 C491 1.514 . S
C492 C493 1.359 . S
C492 C497 1.348 . S
C493 C492 1.359 . S
C493 C494 1.380 . S
C493 H516 0.929 . S
C494 C493 1.380 . S
C494 C495 1.347 . S
C494 H517 0.931 . S
C495 C494 1.347 . S
C495 C496 1.369 . S
C496 C495 1.369 . S
C496 C497 1.408 . S
C496 H518 0.930 . S
C497 C492 1.348 . S
C497 C496 1.408 . S
C497 H519 0.930 . S
C498 O508 1.281 . S
C498 O509 1.254 . S
C499 O510 1.236 . S
C499 O511 1.266 . S
O500 Tb480 2.484 . S
O500 C482 1.248 . S
O501 Tb480 2.440 . S
O501 C482 1.266 . S
O502 Tb480 2.658 . S
O502 Tb481 2.325 . S
O502 C489 1.281 . S
O503 Tb480 2.409 . S
O503 C489 1.254 . S
O504 Tb480 2.378 . S
O504 C490 1.236 . S
O505 Tb481 2.341 . S
O505 C490 1.266 . S
O506 Tb481 2.484 . S
O506 C491 1.248 . S
O507 Tb481 2.440 . S
O507 C491 1.266 . S
O508 Tb480 2.325 . S
O508 Tb481 2.658 . S
O508 C498 1.281 . S
O509 Tb481 2.409 . S
O509 C498 1.254 . S
O510 Tb481 2.378 . S
O510 C499 1.236 . S
O511 Tb480 2.341 . S
O511 C499 1.266 . S
H512 C484 0.929 . S
H513 C485 0.931 . S
H514 C487 0.930 . S
H515 C488 0.930 . S
H516 C493 0.929 . S
H517 C494 0.931 . S
H518 C496 0.930 . S
H519 C497 0.930 . S
Tb520 C522 2.809 . S
Tb520 O540 2.484 . S
Tb520 O541 2.440 . S
Tb520 O542 2.658 . S
Tb520 O543 2.409 . S
Tb520 O544 2.378 . S
Tb520 O548 2.325 . S
Tb520 O551 2.341 . S
Tb521 C531 2.809 . S
Tb521 O542 2.325 . S
Tb521 O545 2.341 . S
Tb521 O546 2.484 . S
Tb521 O547 2.440 . S
Tb521 O548 2.658 . S
Tb521 O549 2.409 . S
Tb521 O550 2.378 . S
C522 Tb520 2.809 . S
C522 C523 1.514 . S
C522 O540 1.248 . S
C522 O541 1.266 . S
C523 C522 1.514 . S
C523 C524 1.359 . S
C523 C528 1.348 . S
C524 C523 1.359 . S
C524 C525 1.380 . S
C524 H552 0.929 . S
C525 C524 1.380 . S
C525 C526 1.347 . S
C525 H553 0.931 . S
C526 C525 1.347 . S
C526 C527 1.369 . S
C527 C526 1.369 . S
C527 C528 1.408 . S
C527 H554 0.930 . S
C528 C523 1.348 . S
C528 C527 1.408 . S
C528 H555 0.930 . S
C529 O542 1.281 . S
C529 O543 1.254 . S
C530 O544 1.236 . S
C530 O545 1.266 . S
C531 Tb521 2.809 . S
C531 C532 1.514 . S
C531 O546 1.248 . S
C531 O547 1.266 . S
C532 C531 1.514 . S
C532 C533 1.359 . S
C532 C537 1.348 . S
C533 C532 1.359 . S
C533 C534 1.380 . S
C533 H556 0.929 . S
C534 C533 1.380 . S
C534 C535 1.347 1_545 S
C534 H557 0.931 . S
C535 C534 1.347 1_565 S
C535 C536 1.369 . S
C536 C535 1.369 . S
C536 C537 1.408 1_565 S
C536 H558 0.930 . S
C537 C532 1.348 . S
C537 C536 1.408 1_545 S
C537 H559 0.930 . S
C538 O548 1.281 . S
C538 O549 1.254 . S
C539 O550 1.236 . S
C539 O551 1.266 . S
O540 Tb520 2.484 . S
O540 C522 1.248 . S
O541 Tb520 2.440 . S
O541 C522 1.266 . S
O542 Tb520 2.658 . S
O542 Tb521 2.325 . S
O542 C529 1.281 . S
O543 Tb520 2.409 . S
O543 C529 1.254 . S
O544 Tb520 2.378 . S
O544 C530 1.236 . S
O545 Tb521 2.341 . S
O545 C530 1.266 . S
O546 Tb521 2.484 . S
O546 C531 1.248 . S
O547 Tb521 2.440 . S
O547 C531 1.266 . S
O548 Tb520 2.325 . S
O548 Tb521 2.658 . S
O548 C538 1.281 . S
O549 Tb521 2.409 . S
O549 C538 1.254 . S
O550 Tb521 2.378 . S
O550 C539 1.236 . S
O551 Tb520 2.341 . S
O551 C539 1.266 . S
H552 C524 0.929 . S
H553 C525 0.931 . S
H554 C527 0.930 . S
H555 C528 0.930 . S
H556 C533 0.929 . S
H557 C534 0.931 . S
H558 C536 0.930 . S
H559 C537 0.930 . S
Tb560 C562 2.809 . S
Tb560 O580 2.484 . S
Tb560 O581 2.440 . S
Tb560 O582 2.658 . S
Tb560 O583 2.409 . S
Tb560 O584 2.378 . S
Tb560 O588 2.325 . S
Tb560 O591 2.341 . S
Tb561 C571 2.809 . S
Tb561 O582 2.325 . S
Tb561 O585 2.341 . S
Tb561 O586 2.484 . S
Tb561 O587 2.440 . S
Tb561 O588 2.658 . S
Tb561 O589 2.409 . S
Tb561 O590 2.378 . S
C562 Tb560 2.809 . S
C562 C563 1.514 . S
C562 O580 1.248 . S
C562 O581 1.266 . S
C563 C562 1.514 . S
C563 C564 1.359 . S
C563 C568 1.348 . S
C564 C563 1.359 . S
C564 C565 1.380 . S
C564 H592 0.929 . S
C565 C564 1.380 . S
C565 C566 1.347 . S
C565 H593 0.931 . S
C566 C565 1.347 . S
C566 C567 1.369 . S
C567 C566 1.369 . S
C567 C568 1.408 . S
C567 H594 0.930 . S
C568 C563 1.348 . S
C568 C567 1.408 . S
C568 H595 0.930 . S
C569 O582 1.281 . S
C569 O583 1.254 . S
C570 O584 1.236 . S
C570 O585 1.266 . S
C571 Tb561 2.809 . S
C571 C572 1.514 . S
C571 O586 1.248 . S
C571 O587 1.266 . S
C572 C571 1.514 . S
C572 C573 1.359 . S
C572 C577 1.348 . S
C573 C572 1.359 . S
C573 C574 1.380 . S
C573 H596 0.929 . S
C574 C573 1.380 . S
C574 C575 1.347 . S
C574 H597 0.931 . S
C575 C574 1.347 . S
C575 C576 1.369 . S
C576 C575 1.369 . S
C576 C577 1.408 . S
C576 H598 0.930 . S
C577 C572 1.348 . S
C577 C576 1.408 . S
C577 H599 0.930 . S
C578 O588 1.281 . S
C578 O589 1.254 . S
C579 O590 1.236 . S
C579 O591 1.266 . S
O580 Tb560 2.484 . S
O580 C562 1.248 . S
O581 Tb560 2.440 . S
O581 C562 1.266 . S
O582 Tb560 2.658 . S
O582 Tb561 2.325 . S
O582 C569 1.281 . S
O583 Tb560 2.409 . S
O583 C569 1.254 . S
O584 Tb560 2.378 . S
O584 C570 1.236 . S
O585 Tb561 2.341 . S
O585 C570 1.266 . S
O586 Tb561 2.484 . S
O586 C571 1.248 . S
O587 Tb561 2.440 . S
O587 C571 1.266 . S
O588 Tb560 2.325 . S
O588 Tb561 2.658 . S
O588 C578 1.281 . S
O589 Tb561 2.409 . S
O589 C578 1.254 . S
O590 Tb561 2.378 . S
O590 C579 1.236 . S
O591 Tb560 2.341 . S
O591 C579 1.266 . S
H592 C564 0.929 . S
H593 C565 0.931 . S
H594 C567 0.930 . S
H595 C568 0.930 . S
H596 C573 0.929 . S
H597 C574 0.931 . S
H598 C576 0.930 . S
H599 C577 0.930 . S
Tb600 C602 2.809 . S
Tb600 O620 2.484 . S
Tb600 O621 2.440 . S
Tb600 O622 2.663 . S
Tb600 O623 2.409 . S
Tb600 O624 2.378 . S
Tb600 O628 2.325 . S
Tb600 O631 2.341 1_554 S
Tb601 C611 2.809 1_554 S
Tb601 O622 2.329 . S
Tb601 O625 2.341 . S
Tb601 O626 2.484 1_554 S
Tb601 O627 2.440 1_554 S
Tb601 O628 2.658 . S
Tb601 O629 2.409 . S
Tb601 O630 2.378 1_554 S
C602 Tb600 2.809 . S
C602 C603 1.514 . S
C602 O620 1.248 . S
C602 O621 1.266 . S
C603 C602 1.514 . S
C603 C604 1.359 . S
C603 C608 1.348 . S
C604 C603 1.359 . S
C604 C605 1.380 . S
C604 H632 0.929 . S
C605 C604 1.380 . S
C605 C606 1.347 . S
C605 H633 0.931 . S
C606 C605 1.347 . S
C606 C607 1.369 . S
C607 C606 1.369 . S
C607 C608 1.408 . S
C607 H634 0.930 . S
C608 C603 1.348 . S
C608 C607 1.408 . S
C608 H635 0.930 . S
C609 O622 1.279 1_556 S
C609 O623 1.254 1_556 S
C610 O624 1.236 . S
C610 O625 1.266 . S
C611 Tb601 2.809 1_556 S
C611 C612 1.514 . S
C611 O626 1.248 . S
C611 O627 1.266 . S
C612 C611 1.514 . S
C612 C613 1.359 . S
C612 C617 1.348 . S
C613 C612 1.359 . S
C613 C614 1.380 . S
C613 H636 0.929 . S
C614 C613 1.380 . S
C614 C615 1.347 1_565 S
C614 H637 0.931 . S
C615 C614 1.347 1_545 S
C615 C616 1.369 . S
C616 C615 1.369 . S
C616 C617 1.408 1_545 S
C616 H638 0.930 . S
C617 C612 1.348 . S
C617 C616 1.408 1_565 S
C617 H639 0.930 . S
C618 O628 1.281 . S
C618 O629 1.254 . S
C619 O630 1.236 . S
C619 O631 1.266 . S
O620 Tb600 2.484 . S
O620 C602 1.248 . S
O621 Tb600 2.440 . S
O621 C602 1.266 . S
O622 Tb600 2.663 . S
O622 Tb601 2.329 . S
O622 C609 1.279 1_554 S
O623 Tb600 2.409 . S
O623 C609 1.254 1_554 S
O624 Tb600 2.378 . S
O624 C610 1.236 . S
O625 Tb601 2.341 . S
O625 C610 1.266 . S
O626 Tb601 2.484 1_556 S
O626 C611 1.248 . S
O627 Tb601 2.440 1_556 S
O627 C611 1.266 . S
O628 Tb600 2.325 . S
O628 Tb601 2.658 . S
O628 C618 1.281 . S
O629 Tb601 2.409 . S
O629 C618 1.254 . S
O630 Tb601 2.378 1_556 S
O630 C619 1.236 . S
O631 Tb600 2.341 1_556 S
O631 C619 1.266 . S
H632 C604 0.929 . S
H633 C605 0.931 . S
H634 C607 0.930 . S
H635 C608 0.930 . S
H636 C613 0.929 . S
H637 C614 0.931 . S
H638 C616 0.930 . S
H639 C617 0.930 . S
Tb640 C642 2.809 . S
Tb640 O660 2.484 . S
Tb640 O661 2.440 . S
Tb640 O662 2.658 . S
Tb640 O663 2.409 . S
Tb640 O664 2.378 . S
Tb640 O668 2.325 . S
Tb640 O671 2.341 . S
Tb641 C651 2.809 . S
Tb641 O662 2.325 . S
Tb641 O665 2.341 . S
Tb641 O666 2.484 . S
Tb641 O667 2.440 . S
Tb641 O668 2.658 . S
Tb641 O669 2.409 . S
Tb641 O670 2.378 . S
C642 Tb640 2.809 . S
C642 C643 1.514 . S
C642 O660 1.248 . S
C642 O661 1.266 . S
C643 C642 1.514 . S
C643 C644 1.359 . S
C643 C648 1.348 . S
C644 C643 1.359 . S
C644 C645 1.380 . S
C644 H672 0.929 . S
C645 C644 1.380 . S
C645 C646 1.347 . S
C645 H673 0.931 . S
C646 C645 1.347 . S
C646 C647 1.369 . S
C647 C646 1.369 . S
C647 C648 1.408 . S
C647 H674 0.930 . S
C648 C643 1.348 . S
C648 C647 1.408 . S
C648 H675 0.930 . S
C649 O662 1.281 . S
C649 O663 1.254 . S
C650 O664 1.236 . S
C650 O665 1.266 . S
C651 Tb641 2.809 . S
C651 C652 1.514 . S
C651 O666 1.248 . S
C651 O667 1.266 . S
C652 C651 1.514 . S
C652 C653 1.359 . S
C652 C657 1.348 . S
C653 C652 1.359 . S
C653 C654 1.380 . S
C653 H676 0.929 . S
C654 C653 1.380 . S
C654 C655 1.347 . S
C654 H677 0.931 . S
C655 C654 1.347 . S
C655 C656 1.369 . S
C656 C655 1.369 . S
C656 C657 1.408 . S
C656 H678 0.930 . S
C657 C652 1.348 . S
C657 C656 1.408 . S
C657 H679 0.930 . S
C658 O668 1.281 . S
C658 O669 1.254 . S
C659 O670 1.236 . S
C659 O671 1.266 . S
O660 Tb640 2.484 . S
O660 C642 1.248 . S
O661 Tb640 2.440 . S
O661 C642 1.266 . S
O662 Tb640 2.658 . S
O662 Tb641 2.325 . S
O662 C649 1.281 . S
O663 Tb640 2.409 . S
O663 C649 1.254 . S
O664 Tb640 2.378 . S
O664 C650 1.236 . S
O665 Tb641 2.341 . S
O665 C650 1.266 . S
O666 Tb641 2.484 . S
O666 C651 1.248 . S
O667 Tb641 2.440 . S
O667 C651 1.266 . S
O668 Tb640 2.325 . S
O668 Tb641 2.658 . S
O668 C658 1.281 . S
O669 Tb641 2.409 . S
O669 C658 1.254 . S
O670 Tb641 2.378 . S
O670 C659 1.236 . S
O671 Tb640 2.341 . S
O671 C659 1.266 . S
H672 C644 0.929 . S
H673 C645 0.931 . S
H674 C647 0.930 . S
H675 C648 0.930 . S
H676 C653 0.929 . S
H677 C654 0.931 . S
H678 C656 0.930 . S
H679 C657 0.930 . S
Tb680 C682 2.809 1_554 S
Tb680 O700 2.484 1_554 S
Tb680 O701 2.440 1_554 S
Tb680 O702 2.658 . S
Tb680 O703 2.409 . S
Tb680 O704 2.378 1_554 S
Tb680 O708 2.329 . S
Tb680 O711 2.341 . S
Tb681 C691 2.809 . S
Tb681 O702 2.325 . S
Tb681 O705 2.341 1_554 S
Tb681 O706 2.484 . S
Tb681 O707 2.440 . S
Tb681 O708 2.663 . S
Tb681 O709 2.409 . S
Tb681 O710 2.378 . S
C682 Tb680 2.809 1_556 S
C682 C683 1.514 . S
C682 O700 1.248 . S
C682 O701 1.266 . S
C683 C682 1.514 . S
C683 C684 1.359 . S
C683 C688 1.348 . S
C684 C683 1.359 . S
C684 C685 1.380 . S
C684 H712 0.929 . S
C685 C684 1.380 . S
C685 C686 1.347 . S
C685 H713 0.931 . S
C686 C685 1.347 . S
C686 C687 1.369 . S
C687 C686 1.369 . S
C687 C688 1.408 . S
C687 H714 0.930 . S
C688 C683 1.348 . S
C688 C687 1.408 . S
C688 H715 0.930 . S
C689 O702 1.281 . S
C689 O703 1.254 . S
C690 O704 1.236 . S
C690 O705 1.266 . S
C691 Tb681 2.809 . S
C691 C692 1.514 . S
C691 O706 1.248 . S
C691 O707 1.266 . S
C692 C691 1.514 . S
C692 C693 1.359 . S
C692 C697 1.348 . S
C693 C692 1.359 . S
C693 C694 1.380 . S
C693 H716 0.929 . S
C694 C693 1.380 . S
C694 C695 1.347 . S
C694 H717 0.931 . S
C695 C694 1.347 . S
C695 C696 1.369 . S
C696 C695 1.369 . S
C696 C697 1.408 . S
C696 H718 0.930 . S
C697 C692 1.348 . S
C697 C696 1.408 . S
C697 H719 0.930 . S
C698 O708 1.279 1_556 S
C698 O709 1.254 1_556 S
C699 O710 1.236 . S
C699 O711 1.266 . S
O700 Tb680 2.484 1_556 S
O700 C682 1.248 . S
O701 Tb680 2.440 1_556 S
O701 C682 1.266 . S
O702 Tb680 2.658 . S
O702 Tb681 2.325 . S
O702 C689 1.281 . S
O703 Tb680 2.409 . S
O703 C689 1.254 . S
O704 Tb680 2.378 1_556 S
O704 C690 1.236 . S
O705 Tb681 2.341 1_556 S
O705 C690 1.266 . S
O706 Tb681 2.484 . S
O706 C691 1.248 . S
O707 Tb681 2.440 . S
O707 C691 1.266 . S
O708 Tb680 2.329 . S
O708 Tb681 2.663 . S
O708 C698 1.279 1_554 S
O709 Tb681 2.409 . S
O709 C698 1.254 1_554 S
O710 Tb681 2.378 . S
O710 C699 1.236 . S
O711 Tb680 2.341 . S
O711 C699 1.266 . S
H712 C684 0.929 . S
H713 C685 0.931 . S
H714 C687 0.930 . S
H715 C688 0.930 . S
H716 C693 0.929 . S
H717 C694 0.931 . S
H718 C696 0.930 . S
H719 C697 0.930 . S
Tb720 C722 2.809 . S
Tb720 O740 2.484 . S
Tb720 O741 2.440 . S
Tb720 O742 2.658 . S
Tb720 O743 2.409 . S
Tb720 O744 2.378 . S
Tb720 O748 2.325 . S
Tb720 O751 2.341 . S
Tb721 C731 2.809 . S
Tb721 O742 2.325 . S
Tb721 O745 2.341 . S
Tb721 O746 2.484 . S
Tb721 O747 2.440 . S
Tb721 O748 2.658 . S
Tb721 O749 2.409 . S
Tb721 O750 2.378 . S
C722 Tb720 2.809 . S
C722 C723 1.514 . S
C722 O740 1.248 . S
C722 O741 1.266 . S
C723 C722 1.514 . S
C723 C724 1.359 . S
C723 C728 1.348 . S
C724 C723 1.359 . S
C724 C725 1.380 . S
C724 H752 0.929 . S
C725 C724 1.380 . S
C725 C726 1.347 . S
C725 H753 0.931 . S
C726 C725 1.347 . S
C726 C727 1.369 . S
C727 C726 1.369 . S
C727 C728 1.408 . S
C727 H754 0.930 . S
C728 C723 1.348 . S
C728 C727 1.408 . S
C728 H755 0.930 . S
C729 O742 1.281 . S
C729 O743 1.254 . S
C730 O744 1.236 . S
C730 O745 1.266 . S
C731 Tb721 2.809 . S
C731 C732 1.514 . S
C731 O746 1.248 . S
C731 O747 1.266 . S
C732 C731 1.514 . S
C732 C733 1.359 . S
C732 C737 1.348 . S
C733 C732 1.359 . S
C733 C734 1.380 . S
C733 H756 0.929 . S
C734 C733 1.380 . S
C734 C735 1.347 1_655 S
C734 H757 0.931 . S
C735 C734 1.347 1_455 S
C735 C736 1.369 . S
C736 C735 1.369 . S
C736 C737 1.408 1_455 S
C736 H758 0.930 . S
C737 C732 1.348 . S
C737 C736 1.408 1_655 S
C737 H759 0.930 . S
C738 O748 1.281 . S
C738 O749 1.254 . S
C739 O750 1.236 . S
C739 O751 1.266 . S
O740 Tb720 2.484 . S
O740 C722 1.248 . S
O741 Tb720 2.440 . S
O741 C722 1.266 . S
O742 Tb720 2.658 . S
O742 Tb721 2.325 . S
O742 C729 1.281 . S
O743 Tb720 2.409 . S
O743 C729 1.254 . S
O744 Tb720 2.378 . S
O744 C730 1.236 . S
O745 Tb721 2.341 . S
O745 C730 1.266 . S
O746 Tb721 2.484 . S
O746 C731 1.248 . S
O747 Tb721 2.440 . S
O747 C731 1.266 . S
O748 Tb720 2.325 . S
O748 Tb721 2.658 . S
O748 C738 1.281 . S
O749 Tb721 2.409 . S
O749 C738 1.254 . S
O750 Tb721 2.378 . S
O750 C739 1.236 . S
O751 Tb720 2.341 . S
O751 C739 1.266 . S
H752 C724 0.929 . S
H753 C725 0.931 . S
H754 C727 0.930 . S
H755 C728 0.930 . S
H756 C733 0.929 . S
H757 C734 0.931 . S
H758 C736 0.930 . S
H759 C737 0.930 . S
Tb760 C762 2.809 . S
Tb760 O780 2.484 . S
Tb760 O781 2.440 . S
Tb760 O782 2.658 . S
Tb760 O783 2.409 . S
Tb760 O784 2.378 . S
Tb760 O788 2.325 . S
Tb760 O791 2.341 . S
Tb761 C771 2.809 . S
Tb761 O782 2.325 . S
Tb761 O785 2.341 . S
Tb761 O786 2.484 . S
Tb761 O787 2.440 . S
Tb761 O788 2.658 . S
Tb761 O789 2.409 . S
Tb761 O790 2.378 . S
C762 Tb760 2.809 . S
C762 C763 1.514 . S
C762 O780 1.248 . S
C762 O781 1.266 . S
C763 C762 1.514 . S
C763 C764 1.359 . S
C763 C768 1.348 . S
C764 C763 1.359 . S
C764 C765 1.380 . S
C764 H792 0.929 . S
C765 C764 1.380 . S
C765 C766 1.347 . S
C765 H793 0.931 . S
C766 C765 1.347 . S
C766 C767 1.369 . S
C767 C766 1.369 . S
C767 C768 1.408 . S
C767 H794 0.930 . S
C768 C763 1.348 . S
C768 C767 1.408 . S
C768 H795 0.930 . S
C769 O782 1.281 . S
C769 O783 1.254 . S
C770 O784 1.236 . S
C770 O785 1.266 . S
C771 Tb761 2.809 . S
C771 C772 1.514 . S
C771 O786 1.248 . S
C771 O787 1.266 . S
C772 C771 1.514 . S
C772 C773 1.359 . S
C772 C777 1.348 . S
C773 C772 1.359 . S
C773 C774 1.380 . S
C773 H796 0.929 . S
C774 C773 1.380 . S
C774 C775 1.347 . S
C774 H797 0.931 . S
C775 C774 1.347 . S
C775 C776 1.369 . S
C776 C775 1.369 . S
C776 C777 1.408 . S
C776 H798 0.930 . S
C777 C772 1.348 . S
C777 C776 1.408 . S
C777 H799 0.930 . S
C778 O788 1.281 . S
C778 O789 1.254 . S
C779 O790 1.236 . S
C779 O791 1.266 . S
O780 Tb760 2.484 . S
O780 C762 1.248 . S
O781 Tb760 2.440 . S
O781 C762 1.266 . S
O782 Tb760 2.658 . S
O782 Tb761 2.325 . S
O782 C769 1.281 . S
O783 Tb760 2.409 . S
O783 C769 1.254 . S
O784 Tb760 2.378 . S
O784 C770 1.236 . S
O785 Tb761 2.341 . S
O785 C770 1.266 . S
O786 Tb761 2.484 . S
O786 C771 1.248 . S
O787 Tb761 2.440 . S
O787 C771 1.266 . S
O788 Tb760 2.325 . S
O788 Tb761 2.658 . S
O788 C778 1.281 . S
O789 Tb761 2.409 . S
O789 C778 1.254 . S
O790 Tb761 2.378 . S
O790 C779 1.236 . S
O791 Tb760 2.341 . S
O791 C779 1.266 . S
H792 C764 0.929 . S
H793 C765 0.931 . S
H794 C767 0.930 . S
H795 C768 0.930 . S
H796 C773 0.929 . S
H797 C774 0.931 . S
H798 C776 0.930 . S
H799 C777 0.930 . S
Tb800 C802 2.809 . S
Tb800 O820 2.484 . S
Tb800 O821 2.440 . S
Tb800 O822 2.658 . S
Tb800 O823 2.409 . S
Tb800 O824 2.378 . S
Tb800 O828 2.325 . S
Tb800 O831 2.341 . S
Tb801 C811 2.809 . S
Tb801 O822 2.325 . S
Tb801 O825 2.341 . S
Tb801 O826 2.484 . S
Tb801 O827 2.440 . S
Tb801 O828 2.658 . S
Tb801 O829 2.409 . S
Tb801 O830 2.378 . S
C802 Tb800 2.809 . S
C802 C803 1.514 . S
C802 O820 1.248 . S
C802 O821 1.266 . S
C803 C802 1.514 . S
C803 C804 1.359 . S
C803 C808 1.348 . S
C804 C803 1.359 . S
C804 C805 1.380 . S
C804 H832 0.929 . S
C805 C804 1.380 . S
C805 C806 1.347 . S
C805 H833 0.931 . S
C806 C805 1.347 . S
C806 C807 1.369 . S
C807 C806 1.369 . S
C807 C808 1.408 . S
C807 H834 0.930 . S
C808 C803 1.348 . S
C808 C807 1.408 . S
C808 H835 0.930 . S
C809 O822 1.281 . S
C809 O823 1.254 . S
C810 O824 1.236 . S
C810 O825 1.266 . S
C811 Tb801 2.809 . S
C811 C812 1.514 . S
C811 O826 1.248 . S
C811 O827 1.266 . S
C812 C811 1.514 . S
C812 C813 1.359 . S
C812 C817 1.348 . S
C813 C812 1.359 . S
C813 C814 1.380 . S
C813 H836 0.929 . S
C814 C813 1.380 . S
C814 C815 1.347 . S
C814 H837 0.931 . S
C815 C814 1.347 . S
C815 C816 1.369 . S
C816 C815 1.369 . S
C816 C817 1.408 . S
C816 H838 0.930 . S
C817 C812 1.348 . S
C817 C816 1.408 . S
C817 H839 0.930 . S
C818 O828 1.281 . S
C818 O829 1.254 . S
C819 O830 1.236 . S
C819 O831 1.266 . S
O820 Tb800 2.484 . S
O820 C802 1.248 . S
O821 Tb800 2.440 . S
O821 C802 1.266 . S
O822 Tb800 2.658 . S
O822 Tb801 2.325 . S
O822 C809 1.281 . S
O823 Tb800 2.409 . S
O823 C809 1.254 . S
O824 Tb800 2.378 . S
O824 C810 1.236 . S
O825 Tb801 2.341 . S
O825 C810 1.266 . S
O826 Tb801 2.484 . S
O826 C811 1.248 . S
O827 Tb801 2.440 . S
O827 C811 1.266 . S
O828 Tb800 2.325 . S
O828 Tb801 2.658 . S
O828 C818 1.281 . S
O829 Tb801 2.409 . S
O829 C818 1.254 . S
O830 Tb801 2.378 . S
O830 C819 1.236 . S
O831 Tb800 2.341 . S
O831 C819 1.266 . S
H832 C804 0.929 . S
H833 C805 0.931 . S
H834 C807 0.930 . S
H835 C808 0.930 . S
H836 C813 0.929 . S
H837 C814 0.931 . S
H838 C816 0.930 . S
H839 C817 0.930 . S
Tb840 C842 2.809 1_556 S
Tb840 O860 2.484 1_556 S
Tb840 O861 2.440 1_556 S
Tb840 O862 2.658 . S
Tb840 O863 2.409 . S
Tb840 O864 2.378 1_556 S
Tb840 O868 2.329 . S
Tb840 O871 2.341 . S
Tb841 C851 2.809 . S
Tb841 O862 2.325 . S
Tb841 O865 2.341 1_556 S
Tb841 O866 2.484 . S
Tb841 O867 2.440 . S
Tb841 O868 2.663 . S
Tb841 O869 2.409 . S
Tb841 O870 2.378 . S
C842 Tb840 2.809 1_554 S
C842 C843 1.514 . S
C842 O860 1.248 . S
C842 O861 1.266 . S
C843 C842 1.514 . S
C843 C844 1.359 . S
C843 C848 1.348 . S
C844 C843 1.359 . S
C844 C845 1.380 . S
C844 H872 0.929 . S
C845 C844 1.380 . S
C845 C846 1.347 . S
C845 H873 0.931 . S
C846 C845 1.347 . S
C846 C847 1.369 . S
C847 C846 1.369 . S
C847 C848 1.408 . S
C847 H874 0.930 . S
C848 C843 1.348 . S
C848 C847 1.408 . S
C848 H875 0.930 . S
C849 O862 1.281 . S
C849 O863 1.254 . S
C850 O864 1.236 . S
C850 O865 1.266 . S
C851 Tb841 2.809 . S
C851 C852 1.514 . S
C851 O866 1.248 . S
C851 O867 1.266 . S
C852 C851 1.514 . S
C852 C853 1.359 . S
C852 C857 1.348 . S
C853 C852 1.359 . S
C853 C854 1.380 . S
C853 H876 0.929 . S
C854 C853 1.380 . S
C854 C855 1.347 . S
C854 H877 0.931 . S
C855 C854 1.347 . S
C855 C856 1.369 . S
C856 C855 1.369 . S
C856 C857 1.408 . S
C856 H878 0.930 . S
C857 C852 1.348 . S
C857 C856 1.408 . S
C857 H879 0.930 . S
C858 O868 1.279 1_554 S
C858 O869 1.254 1_554 S
C859 O870 1.236 . S
C859 O871 1.266 . S
O860 Tb840 2.484 1_554 S
O860 C842 1.248 . S
O861 Tb840 2.440 1_554 S
O861 C842 1.266 . S
O862 Tb840 2.658 . S
O862 Tb841 2.325 . S
O862 C849 1.281 . S
O863 Tb840 2.409 . S
O863 C849 1.254 . S
O864 Tb840 2.378 1_554 S
O864 C850 1.236 . S
O865 Tb841 2.341 1_554 S
O865 C850 1.266 . S
O866 Tb841 2.484 . S
O866 C851 1.248 . S
O867 Tb841 2.440 . S
O867 C851 1.266 . S
O868 Tb840 2.329 . S
O868 Tb841 2.663 . S
O868 C858 1.279 1_556 S
O869 Tb841 2.409 . S
O869 C858 1.254 1_556 S
O870 Tb841 2.378 . S
O870 C859 1.236 . S
O871 Tb840 2.341 . S
O871 C859 1.266 . S
H872 C844 0.929 . S
H873 C845 0.931 . S
H874 C847 0.930 . S
H875 C848 0.930 . S
H876 C853 0.929 . S
H877 C854 0.931 . S
H878 C856 0.930 . S
H879 C857 0.930 . S
Tb880 C882 2.809 . S
Tb880 O900 2.484 . S
Tb880 O901 2.440 . S
Tb880 O902 2.658 . S
Tb880 O903 2.409 . S
Tb880 O904 2.378 . S
Tb880 O908 2.325 . S
Tb880 O911 2.341 . S
Tb881 C891 2.809 . S
Tb881 O902 2.325 . S
Tb881 O905 2.341 . S
Tb881 O906 2.484 . S
Tb881 O907 2.440 . S
Tb881 O908 2.658 . S
Tb881 O909 2.409 . S
Tb881 O910 2.378 . S
C882 Tb880 2.809 . S
C882 C883 1.514 . S
C882 O900 1.248 . S
C882 O901 1.266 . S
C883 C882 1.514 . S
C883 C884 1.359 . S
C883 C888 1.348 . S
C884 C883 1.359 . S
C884 C885 1.380 . S
C884 H912 0.929 . S
C885 C884 1.380 . S
C885 C886 1.347 . S
C885 H913 0.931 . S
C886 C885 1.347 . S
C886 C887 1.369 . S
C887 C886 1.369 . S
C887 C888 1.408 . S
C887 H914 0.930 . S
C888 C883 1.348 . S
C888 C887 1.408 . S
C888 H915 0.930 . S
C889 O902 1.281 . S
C889 O903 1.254 . S
C890 O904 1.236 . S
C890 O905 1.266 . S
C891 Tb881 2.809 . S
C891 C892 1.514 . S
C891 O906 1.248 . S
C891 O907 1.266 . S
C892 C891 1.514 . S
C892 C893 1.359 . S
C892 C897 1.348 . S
C893 C892 1.359 . S
C893 C894 1.380 . S
C893 H916 0.929 . S
C894 C893 1.380 . S
C894 C895 1.347 1_655 S
C894 H917 0.931 . S
C895 C894 1.347 1_455 S
C895 C896 1.369 . S
C896 C895 1.369 . S
C896 C897 1.408 1_455 S
C896 H918 0.930 . S
C897 C892 1.348 . S
C897 C896 1.408 1_655 S
C897 H919 0.930 . S
C898 O908 1.281 . S
C898 O909 1.254 . S
C899 O910 1.236 . S
C899 O911 1.266 . S
O900 Tb880 2.484 . S
O900 C882 1.248 . S
O901 Tb880 2.440 . S
O901 C882 1.266 . S
O902 Tb880 2.658 . S
O902 Tb881 2.325 . S
O902 C889 1.281 . S
O903 Tb880 2.409 . S
O903 C889 1.254 . S
O904 Tb880 2.378 . S
O904 C890 1.236 . S
O905 Tb881 2.341 . S
O905 C890 1.266 . S
O906 Tb881 2.484 . S
O906 C891 1.248 . S
O907 Tb881 2.440 . S
O907 C891 1.266 . S
O908 Tb880 2.325 . S
O908 Tb881 2.658 . S
O908 C898 1.281 . S
O909 Tb881 2.409 . S
O909 C898 1.254 . S
O910 Tb881 2.378 . S
O910 C899 1.236 . S
O911 Tb880 2.341 . S
O911 C899 1.266 . S
H912 C884 0.929 . S
H913 C885 0.931 . S
H914 C887 0.930 . S
H915 C888 0.930 . S
H916 C893 0.929 . S
H917 C894 0.931 . S
H918 C896 0.930 . S
H919 C897 0.930 . S
Tb920 C922 2.809 . S
Tb920 O940 2.484 . S
Tb920 O941 2.440 . S
Tb920 O942 2.658 . S
Tb920 O943 2.409 . S
Tb920 O944 2.378 . S
Tb920 O948 2.325 . S
Tb920 O951 2.341 . S
Tb921 C931 2.809 . S
Tb921 O942 2.325 . S
Tb921 O945 2.341 . S
Tb921 O946 2.484 . S
Tb921 O947 2.440 . S
Tb921 O948 2.658 . S
Tb921 O949 2.409 . S
Tb921 O950 2.378 . S
C922 Tb920 2.809 . S
C922 C923 1.514 . S
C922 O940 1.248 . S
C922 O941 1.266 . S
C923 C922 1.514 . S
C923 C924 1.359 . S
C923 C928 1.348 . S
C924 C923 1.359 . S
C924 C925 1.380 . S
C924 H952 0.929 . S
C925 C924 1.380 . S
C925 C926 1.347 . S
C925 H953 0.931 . S
C926 C925 1.347 . S
C926 C927 1.369 . S
C927 C926 1.369 . S
C927 C928 1.408 . S
C927 H954 0.930 . S
C928 C923 1.348 . S
C928 C927 1.408 . S
C928 H955 0.930 . S
C929 O942 1.281 . S
C929 O943 1.254 . S
C930 O944 1.236 . S
C930 O945 1.266 . S
C931 Tb921 2.809 . S
C931 C932 1.514 . S
C931 O946 1.248 . S
C931 O947 1.266 . S
C932 C931 1.514 . S
C932 C933 1.359 . S
C932 C937 1.348 . S
C933 C932 1.359 . S
C933 C934 1.380 . S
C933 H956 0.929 . S
C934 C933 1.380 . S
C934 C935 1.347 . S
C934 H957 0.931 . S
C935 C934 1.347 . S
C935 C936 1.369 . S
C936 C935 1.369 . S
C936 C937 1.408 . S
C936 H958 0.930 . S
C937 C932 1.348 . S
C937 C936 1.408 . S
C937 H959 0.930 . S
C938 O948 1.281 . S
C938 O949 1.254 . S
C939 O950 1.236 . S
C939 O951 1.266 . S
O940 Tb920 2.484 . S
O940 C922 1.248 . S
O941 Tb920 2.440 . S
O941 C922 1.266 . S
O942 Tb920 2.658 . S
O942 Tb921 2.325 . S
O942 C929 1.281 . S
O943 Tb920 2.409 . S
O943 C929 1.254 . S
O944 Tb920 2.378 . S
O944 C930 1.236 . S
O945 Tb921 2.341 . S
O945 C930 1.266 . S
O946 Tb921 2.484 . S
O946 C931 1.248 . S
O947 Tb921 2.440 . S
O947 C931 1.266 . S
O948 Tb920 2.325 . S
O948 Tb921 2.658 . S
O948 C938 1.281 . S
O949 Tb921 2.409 . S
O949 C938 1.254 . S
O950 Tb921 2.378 . S
O950 C939 1.236 . S
O951 Tb920 2.341 . S
O951 C939 1.266 . S
H952 C924 0.929 . S
H953 C925 0.931 . S
H954 C927 0.930 . S
H955 C928 0.930 . S
H956 C933 0.929 . S
H957 C934 0.931 . S
H958 C936 0.930 . S
H959 C937 0.930 . S
Tb960 C962 2.809 . S
Tb960 O980 2.484 . S
Tb960 O981 2.440 . S
Tb960 O982 2.658 . S
Tb960 O983 2.409 . S
Tb960 O984 2.378 . S
Tb960 O988 2.325 . S
Tb960 O991 2.341 . S
Tb961 C971 2.809 . S
Tb961 O982 2.325 . S
Tb961 O985 2.341 . S
Tb961 O986 2.484 . S
Tb961 O987 2.440 . S
Tb961 O988 2.658 . S
Tb961 O989 2.409 . S
Tb961 O990 2.378 . S
C962 Tb960 2.809 . S
C962 C963 1.514 . S
C962 O980 1.248 . S
C962 O981 1.266 . S
C963 C962 1.514 . S
C963 C964 1.359 . S
C963 C968 1.348 . S
C964 C963 1.359 . S
C964 C965 1.380 . S
C964 H992 0.929 . S
C965 C964 1.380 . S
C965 C966 1.347 . S
C965 H993 0.931 . S
C966 C965 1.347 . S
C966 C967 1.369 . S
C967 C966 1.369 . S
C967 C968 1.408 . S
C967 H994 0.930 . S
C968 C963 1.348 . S
C968 C967 1.408 . S
C968 H995 0.930 . S
C969 O982 1.281 . S
C969 O983 1.254 . S
C970 O984 1.236 . S
C970 O985 1.266 . S
C971 Tb961 2.809 . S
C971 C972 1.514 . S
C971 O986 1.248 . S
C971 O987 1.266 . S
C972 C971 1.514 . S
C972 C973 1.359 . S
C972 C977 1.348 . S
C973 C972 1.359 . S
C973 C974 1.380 . S
C973 H996 0.929 . S
C974 C973 1.380 . S
C974 C975 1.347 . S
C974 H997 0.931 . S
C975 C974 1.347 . S
C975 C976 1.369 . S
C976 C975 1.369 . S
C976 C977 1.408 . S
C976 H998 0.930 . S
C977 C972 1.348 . S
C977 C976 1.408 . S
C977 H999 0.930 . S
C978 O988 1.281 . S
C978 O989 1.254 . S
C979 O990 1.236 . S
C979 O991 1.266 . S
O980 Tb960 2.484 . S
O980 C962 1.248 . S
O981 Tb960 2.440 . S
O981 C962 1.266 . S
O982 Tb960 2.658 . S
O982 Tb961 2.325 . S
O982 C969 1.281 . S
O983 Tb960 2.409 . S
O983 C969 1.254 . S
O984 Tb960 2.378 . S
O984 C970 1.236 . S
O985 Tb961 2.341 . S
O985 C970 1.266 . S
O986 Tb961 2.484 . S
O986 C971 1.248 . S
O987 Tb961 2.440 . S
O987 C971 1.266 . S
O988 Tb960 2.325 . S
O988 Tb961 2.658 . S
O988 C978 1.281 . S
O989 Tb961 2.409 . S
O989 C978 1.254 . S
O990 Tb961 2.378 . S
O990 C979 1.236 . S
O991 Tb960 2.341 . S
O991 C979 1.266 . S
H992 C964 0.929 . S
H993 C965 0.931 . S
H994 C967 0.930 . S
H995 C968 0.930 . S
H996 C973 0.929 . S
H997 C974 0.931 . S
H998 C976 0.930 . S
H999 C977 0.930 . S
Tb1000 C1002 2.809 . S
Tb1000 O1020 2.484 . S
Tb1000 O1021 2.440 . S
Tb1000 O1022 2.663 . S
Tb1000 O1023 2.409 . S
Tb1000 O1024 2.378 . S
Tb1000 O1028 2.325 . S
Tb1000 O1031 2.341 1_556 S
Tb1001 C1011 2.809 1_556 S
Tb1001 O1022 2.329 . S
Tb1001 O1025 2.341 . S
Tb1001 O1026 2.484 1_556 S
Tb1001 O1027 2.440 1_556 S
Tb1001 O1028 2.658 . S
Tb1001 O1029 2.409 . S
Tb1001 O1030 2.378 1_556 S
C1002 Tb1000 2.809 . S
C1002 C1003 1.514 . S
C1002 O1020 1.248 . S
C1002 O1021 1.266 . S
C1003 C1002 1.514 . S
C1003 C1004 1.359 . S
C1003 C1008 1.348 . S
C1004 C1003 1.359 . S
C1004 C1005 1.380 . S
C1004 H1032 0.929 . S
C1005 C1004 1.380 . S
C1005 C1006 1.347 . S
C1005 H1033 0.931 . S
C1006 C1005 1.347 . S
C1006 C1007 1.369 . S
C1007 C1006 1.369 . S
C1007 C1008 1.408 . S
C1007 H1034 0.930 . S
C1008 C1003 1.348 . S
C1008 C1007 1.408 . S
C1008 H1035 0.930 . S
C1009 O1022 1.279 1_554 S
C1009 O1023 1.254 1_554 S
C1010 O1024 1.236 . S
C1010 O1025 1.266 . S
C1011 Tb1001 2.809 1_554 S
C1011 C1012 1.514 . S
C1011 O1026 1.248 . S
C1011 O1027 1.266 . S
C1012 C1011 1.514 . S
C1012 C1013 1.359 . S
C1012 C1017 1.348 . S
C1013 C1012 1.359 . S
C1013 C1014 1.380 . S
C1013 H1036 0.929 . S
C1014 C1013 1.380 . S
C1014 C1015 1.347 . S
C1014 H1037 0.931 . S
C1015 C1014 1.347 . S
C1015 C1016 1.369 . S
C1016 C1015 1.369 . S
C1016 C1017 1.408 . S
C1016 H1038 0.930 . S
C1017 C1012 1.348 . S
C1017 C1016 1.408 . S
C1017 H1039 0.930 . S
C1018 O1028 1.281 . S
C1018 O1029 1.254 . S
C1019 O1030 1.236 . S
C1019 O1031 1.266 . S
O1020 Tb1000 2.484 . S
O1020 C1002 1.248 . S
O1021 Tb1000 2.440 . S
O1021 C1002 1.266 . S
O1022 Tb1000 2.663 . S
O1022 Tb1001 2.329 . S
O1022 C1009 1.279 1_556 S
O1023 Tb1000 2.409 . S
O1023 C1009 1.254 1_556 S
O1024 Tb1000 2.378 . S
O1024 C1010 1.236 . S
O1025 Tb1001 2.341 . S
O1025 C1010 1.266 . S
O1026 Tb1001 2.484 1_554 S
O1026 C1011 1.248 . S
O1027 Tb1001 2.440 1_554 S
O1027 C1011 1.266 . S
O1028 Tb1000 2.325 . S
O1028 Tb1001 2.658 . S
O1028 C1018 1.281 . S
O1029 Tb1001 2.409 . S
O1029 C1018 1.254 . S
O1030 Tb1001 2.378 1_554 S
O1030 C1019 1.236 . S
O1031 Tb1000 2.341 1_554 S
O1031 C1019 1.266 . S
H1032 C1004 0.929 . S
H1033 C1005 0.931 . S
H1034 C1007 0.930 . S
H1035 C1008 0.930 . S
H1036 C1013 0.929 . S
H1037 C1014 0.931 . S
H1038 C1016 0.930 . S
H1039 C1017 0.930 . S
Tb1040 C1042 2.809 . S
Tb1040 O1060 2.484 . S
Tb1040 O1061 2.440 . S
Tb1040 O1062 2.658 . S
Tb1040 O1063 2.409 . S
Tb1040 O1064 2.378 . S
Tb1040 O1068 2.325 . S
Tb1040 O1071 2.341 . S
Tb1041 C1051 2.809 . S
Tb1041 O1062 2.325 . S
Tb1041 O1065 2.341 . S
Tb1041 O1066 2.484 . S
Tb1041 O1067 2.440 . S
Tb1041 O1068 2.658 . S
Tb1041 O1069 2.409 . S
Tb1041 O1070 2.378 . S
C1042 Tb1040 2.809 . S
C1042 C1043 1.514 . S
C1042 O1060 1.248 . S
C1042 O1061 1.266 . S
C1043 C1042 1.514 . S
C1043 C1044 1.359 . S
C1043 C1048 1.348 . S
C1044 C1043 1.359 . S
C1044 C1045 1.380 . S
C1044 H1072 0.929 . S
C1045 C1044 1.380 . S
C1045 C1046 1.347 1_455 S
C1045 H1073 0.931 . S
C1046 C1045 1.347 1_655 S
C1046 C1047 1.369 . S
C1047 C1046 1.369 . S
C1047 C1048 1.408 1_655 S
C1047 H1074 0.930 . S
C1048 C1043 1.348 . S
C1048 C1047 1.408 1_455 S
C1048 H1075 0.930 . S
C1049 O1062 1.281 . S
C1049 O1063 1.254 . S
C1050 O1064 1.236 . S
C1050 O1065 1.266 . S
C1051 Tb1041 2.809 . S
C1051 C1052 1.514 . S
C1051 O1066 1.248 . S
C1051 O1067 1.266 . S
C1052 C1051 1.514 . S
C1052 C1053 1.359 . S
C1052 C1057 1.348 . S
C1053 C1052 1.359 . S
C1053 C1054 1.380 . S
C1053 H1076 0.929 . S
C1054 C1053 1.380 . S
C1054 C1055 1.347 . S
C1054 H1077 0.931 . S
C1055 C1054 1.347 . S
C1055 C1056 1.369 . S
C1056 C1055 1.369 . S
C1056 C1057 1.408 . S
C1056 H1078 0.930 . S
C1057 C1052 1.348 . S
C1057 C1056 1.408 . S
C1057 H1079 0.930 . S
C1058 O1068 1.281 . S
C1058 O1069 1.254 . S
C1059 O1070 1.236 . S
C1059 O1071 1.266 . S
O1060 Tb1040 2.484 . S
O1060 C1042 1.248 . S
O1061 Tb1040 2.440 . S
O1061 C1042 1.266 . S
O1062 Tb1040 2.658 . S
O1062 Tb1041 2.325 . S
O1062 C1049 1.281 . S
O1063 Tb1040 2.409 . S
O1063 C1049 1.254 . S
O1064 Tb1040 2.378 . S
O1064 C1050 1.236 . S
O1065 Tb1041 2.341 . S
O1065 C1050 1.266 . S
O1066 Tb1041 2.484 . S
O1066 C1051 1.248 . S
O1067 Tb1041 2.440 . S
O1067 C1051 1.266 . S
O1068 Tb1040 2.325 . S
O1068 Tb1041 2.658 . S
O1068 C1058 1.281 . S
O1069 Tb1041 2.409 . S
O1069 C1058 1.254 . S
O1070 Tb1041 2.378 . S
O1070 C1059 1.236 . S
O1071 Tb1040 2.341 . S
O1071 C1059 1.266 . S
H1072 C1044 0.929 . S
H1073 C1045 0.931 . S
H1074 C1047 0.930 . S
H1075 C1048 0.930 . S
H1076 C1053 0.929 . S
H1077 C1054 0.931 . S
H1078 C1056 0.930 . S
H1079 C1057 0.930 . S
Tb1080 C1082 2.809 . S
Tb1080 O1100 2.484 . S
Tb1080 O1101 2.440 . S
Tb1080 O1102 2.658 . S
Tb1080 O1103 2.409 . S
Tb1080 O1104 2.378 . S
Tb1080 O1108 2.325 . S
Tb1080 O1111 2.341 . S
Tb1081 C1091 2.809 . S
Tb1081 O1102 2.325 . S
Tb1081 O1105 2.341 . S
Tb1081 O1106 2.484 . S
Tb1081 O1107 2.440 . S
Tb1081 O1108 2.658 . S
Tb1081 O1109 2.409 . S
Tb1081 O1110 2.378 . S
C1082 Tb1080 2.809 . S
C1082 C1083 1.514 . S
C1082 O1100 1.248 . S
C1082 O1101 1.266 . S
C1083 C1082 1.514 . S
C1083 C1084 1.359 . S
C1083 C1088 1.348 . S
C1084 C1083 1.359 . S
C1084 C1085 1.380 . S
C1084 H1112 0.929 . S
C1085 C1084 1.380 . S
C1085 C1086 1.347 . S
C1085 H1113 0.931 . S
C1086 C1085 1.347 . S
C1086 C1087 1.369 . S
C1087 C1086 1.369 . S
C1087 C1088 1.408 . S
C1087 H1114 0.930 . S
C1088 C1083 1.348 . S
C1088 C1087 1.408 . S
C1088 H1115 0.930 . S
C1089 O1102 1.281 . S
C1089 O1103 1.254 . S
C1090 O1104 1.236 . S
C1090 O1105 1.266 . S
C1091 Tb1081 2.809 . S
C1091 C1092 1.514 . S
C1091 O1106 1.248 . S
C1091 O1107 1.266 . S
C1092 C1091 1.514 . S
C1092 C1093 1.359 . S
C1092 C1097 1.348 . S
C1093 C1092 1.359 . S
C1093 C1094 1.380 . S
C1093 H1116 0.929 . S
C1094 C1093 1.380 . S
C1094 C1095 1.347 . S
C1094 H1117 0.931 . S
C1095 C1094 1.347 . S
C1095 C1096 1.369 . S
C1096 C1095 1.369 . S
C1096 C1097 1.408 . S
C1096 H1118 0.930 . S
C1097 C1092 1.348 . S
C1097 C1096 1.408 . S
C1097 H1119 0.930 . S
C1098 O1108 1.281 . S
C1098 O1109 1.254 . S
C1099 O1110 1.236 . S
C1099 O1111 1.266 . S
O1100 Tb1080 2.484 . S
O1100 C1082 1.248 . S
O1101 Tb1080 2.440 . S
O1101 C1082 1.266 . S
O1102 Tb1080 2.658 . S
O1102 Tb1081 2.325 . S
O1102 C1089 1.281 . S
O1103 Tb1080 2.409 . S
O1103 C1089 1.254 . S
O1104 Tb1080 2.378 . S
O1104 C1090 1.236 . S
O1105 Tb1081 2.341 . S
O1105 C1090 1.266 . S
O1106 Tb1081 2.484 . S
O1106 C1091 1.248 . S
O1107 Tb1081 2.440 . S
O1107 C1091 1.266 . S
O1108 Tb1080 2.325 . S
O1108 Tb1081 2.658 . S
O1108 C1098 1.281 . S
O1109 Tb1081 2.409 . S
O1109 C1098 1.254 . S
O1110 Tb1081 2.378 . S
O1110 C1099 1.236 . S
O1111 Tb1080 2.341 . S
O1111 C1099 1.266 . S
H1112 C1084 0.929 . S
H1113 C1085 0.931 . S
H1114 C1087 0.930 . S
H1115 C1088 0.930 . S
H1116 C1093 0.929 . S
H1117 C1094 0.931 . S
H1118 C1096 0.930 . S
H1119 C1097 0.930 . S
Tb1120 C1122 2.809 . S
Tb1120 O1140 2.484 . S
Tb1120 O1141 2.440 . S
Tb1120 O1142 2.658 . S
Tb1120 O1143 2.409 . S
Tb1120 O1144 2.378 . S
Tb1120 O1148 2.325 . S
Tb1120 O1151 2.341 . S
Tb1121 C1131 2.809 . S
Tb1121 O1142 2.325 . S
Tb1121 O1145 2.341 . S
Tb1121 O1146 2.484 . S
Tb1121 O1147 2.440 . S
Tb1121 O1148 2.658 . S
Tb1121 O1149 2.409 . S
Tb1121 O1150 2.378 . S
C1122 Tb1120 2.809 . S
C1122 C1123 1.514 . S
C1122 O1140 1.248 . S
C1122 O1141 1.266 . S
C1123 C1122 1.514 . S
C1123 C1124 1.359 . S
C1123 C1128 1.348 . S
C1124 C1123 1.359 . S
C1124 C1125 1.380 . S
C1124 H1152 0.929 . S
C1125 C1124 1.380 . S
C1125 C1126 1.347 . S
C1125 H1153 0.931 . S
C1126 C1125 1.347 . S
C1126 C1127 1.369 . S
C1127 C1126 1.369 . S
C1127 C1128 1.408 . S
C1127 H1154 0.930 . S
C1128 C1123 1.348 . S
C1128 C1127 1.408 . S
C1128 H1155 0.930 . S
C1129 O1142 1.281 . S
C1129 O1143 1.254 . S
C1130 O1144 1.236 . S
C1130 O1145 1.266 . S
C1131 Tb1121 2.809 . S
C1131 C1132 1.514 . S
C1131 O1146 1.248 . S
C1131 O1147 1.266 . S
C1132 C1131 1.514 . S
C1132 C1133 1.359 . S
C1132 C1137 1.348 . S
C1133 C1132 1.359 . S
C1133 C1134 1.380 . S
C1133 H1156 0.929 . S
C1134 C1133 1.380 . S
C1134 C1135 1.347 . S
C1134 H1157 0.931 . S
C1135 C1134 1.347 . S
C1135 C1136 1.369 . S
C1136 C1135 1.369 . S
C1136 C1137 1.408 . S
C1136 H1158 0.930 . S
C1137 C1132 1.348 . S
C1137 C1136 1.408 . S
C1137 H1159 0.930 . S
C1138 O1148 1.281 . S
C1138 O1149 1.254 . S
C1139 O1150 1.236 . S
C1139 O1151 1.266 . S
O1140 Tb1120 2.484 . S
O1140 C1122 1.248 . S
O1141 Tb1120 2.440 . S
O1141 C1122 1.266 . S
O1142 Tb1120 2.658 . S
O1142 Tb1121 2.325 . S
O1142 C1129 1.281 . S
O1143 Tb1120 2.409 . S
O1143 C1129 1.254 . S
O1144 Tb1120 2.378 . S
O1144 C1130 1.236 . S
O1145 Tb1121 2.341 . S
O1145 C1130 1.266 . S
O1146 Tb1121 2.484 . S
O1146 C1131 1.248 . S
O1147 Tb1121 2.440 . S
O1147 C1131 1.266 . S
O1148 Tb1120 2.325 . S
O1148 Tb1121 2.658 . S
O1148 C1138 1.281 . S
O1149 Tb1121 2.409 . S
O1149 C1138 1.254 . S
O1150 Tb1121 2.378 . S
O1150 C1139 1.236 . S
O1151 Tb1120 2.341 . S
O1151 C1139 1.266 . S
H1152 C1124 0.929 . S
H1153 C1125 0.931 . S
H1154 C1127 0.930 . S
H1155 C1128 0.930 . S
H1156 C1133 0.929 . S
H1157 C1134 0.931 . S
H1158 C1136 0.930 . S
H1159 C1137 0.930 . S
Tb1160 C1162 2.809 . S
Tb1160 O1180 2.484 . S
Tb1160 O1181 2.440 . S
Tb1160 O1182 2.663 . S
Tb1160 O1183 2.409 . S
Tb1160 O1184 2.378 . S
Tb1160 O1188 2.325 . S
Tb1160 O1191 2.341 1_554 S
Tb1161 C1171 2.809 1_554 S
Tb1161 O1182 2.329 . S
Tb1161 O1185 2.341 . S
Tb1161 O1186 2.484 1_554 S
Tb1161 O1187 2.440 1_554 S
Tb1161 O1188 2.658 . S
Tb1161 O1189 2.409 . S
Tb1161 O1190 2.378 1_554 S
C1162 Tb1160 2.809 . S
C1162 C1163 1.514 . S
C1162 O1180 1.248 . S
C1162 O1181 1.266 . S
C1163 C1162 1.514 . S
C1163 C1164 1.359 . S
C1163 C1168 1.348 . S
C1164 C1163 1.359 . S
C1164 C1165 1.380 . S
C1164 H1192 0.929 . S
C1165 C1164 1.380 . S
C1165 C1166 1.347 . S
C1165 H1193 0.931 . S
C1166 C1165 1.347 . S
C1166 C1167 1.369 . S
C1167 C1166 1.369 . S
C1167 C1168 1.408 . S
C1167 H1194 0.930 . S
C1168 C1163 1.348 . S
C1168 C1167 1.408 . S
C1168 H1195 0.930 . S
C1169 O1182 1.279 1_556 S
C1169 O1183 1.254 1_556 S
C1170 O1184 1.236 . S
C1170 O1185 1.266 . S
C1171 Tb1161 2.809 1_556 S
C1171 C1172 1.514 . S
C1171 O1186 1.248 . S
C1171 O1187 1.266 . S
C1172 C1171 1.514 . S
C1172 C1173 1.359 . S
C1172 C1177 1.348 . S
C1173 C1172 1.359 . S
C1173 C1174 1.380 . S
C1173 H1196 0.929 . S
C1174 C1173 1.380 . S
C1174 C1175 1.347 . S
C1174 H1197 0.931 . S
C1175 C1174 1.347 . S
C1175 C1176 1.369 . S
C1176 C1175 1.369 . S
C1176 C1177 1.408 . S
C1176 H1198 0.930 . S
C1177 C1172 1.348 . S
C1177 C1176 1.408 . S
C1177 H1199 0.930 . S
C1178 O1188 1.281 . S
C1178 O1189 1.254 . S
C1179 O1190 1.236 . S
C1179 O1191 1.266 . S
O1180 Tb1160 2.484 . S
O1180 C1162 1.248 . S
O1181 Tb1160 2.440 . S
O1181 C1162 1.266 . S
O1182 Tb1160 2.663 . S
O1182 Tb1161 2.329 . S
O1182 C1169 1.279 1_554 S
O1183 Tb1160 2.409 . S
O1183 C1169 1.254 1_554 S
O1184 Tb1160 2.378 . S
O1184 C1170 1.236 . S
O1185 Tb1161 2.341 . S
O1185 C1170 1.266 . S
O1186 Tb1161 2.484 1_556 S
O1186 C1171 1.248 . S
O1187 Tb1161 2.440 1_556 S
O1187 C1171 1.266 . S
O1188 Tb1160 2.325 . S
O1188 Tb1161 2.658 . S
O1188 C1178 1.281 . S
O1189 Tb1161 2.409 . S
O1189 C1178 1.254 . S
O1190 Tb1161 2.378 1_556 S
O1190 C1179 1.236 . S
O1191 Tb1160 2.341 1_556 S
O1191 C1179 1.266 . S
H1192 C1164 0.929 . S
H1193 C1165 0.931 . S
H1194 C1167 0.930 . S
H1195 C1168 0.930 . S
H1196 C1173 0.929 . S
H1197 C1174 0.931 . S
H1198 C1176 0.930 . S
H1199 C1177 0.930 . S
Tb1200 C1202 2.809 . S
Tb1200 O1220 2.484 . S
Tb1200 O1221 2.440 . S
Tb1200 O1222 2.658 . S
Tb1200 O1223 2.409 . S
Tb1200 O1224 2.378 . S
Tb1200 O1228 2.325 . S
Tb1200 O1231 2.341 . S
Tb1201 C1211 2.809 . S
Tb1201 O1222 2.325 . S
Tb1201 O1225 2.341 . S
Tb1201 O1226 2.484 . S
Tb1201 O1227 2.440 . S
Tb1201 O1228 2.658 . S
Tb1201 O1229 2.409 . S
Tb1201 O1230 2.378 . S
C1202 Tb1200 2.809 . S
C1202 C1203 1.514 . S
C1202 O1220 1.248 . S
C1202 O1221 1.266 . S
C1203 C1202 1.514 . S
C1203 C1204 1.359 . S
C1203 C1208 1.348 . S
C1204 C1203 1.359 . S
C1204 C1205 1.380 . S
C1204 H1232 0.929 . S
C1205 C1204 1.380 . S
C1205 C1206 1.347 1_455 S
C1205 H1233 0.931 . S
C1206 C1205 1.347 1_655 S
C1206 C1207 1.369 . S
C1207 C1206 1.369 . S
C1207 C1208 1.408 1_655 S
C1207 H1234 0.930 . S
C1208 C1203 1.348 . S
C1208 C1207 1.408 1_455 S
C1208 H1235 0.930 . S
C1209 O1222 1.281 . S
C1209 O1223 1.254 . S
C1210 O1224 1.236 . S
C1210 O1225 1.266 . S
C1211 Tb1201 2.809 . S
C1211 C1212 1.514 . S
C1211 O1226 1.248 . S
C1211 O1227 1.266 . S
C1212 C1211 1.514 . S
C1212 C1213 1.359 . S
C1212 C1217 1.348 . S
C1213 C1212 1.359 . S
C1213 C1214 1.380 . S
C1213 H1236 0.929 . S
C1214 C1213 1.380 . S
C1214 C1215 1.347 . S
C1214 H1237 0.931 . S
C1215 C1214 1.347 . S
C1215 C1216 1.369 . S
C1216 C1215 1.369 . S
C1216 C1217 1.408 . S
C1216 H1238 0.930 . S
C1217 C1212 1.348 . S
C1217 C1216 1.408 . S
C1217 H1239 0.930 . S
C1218 O1228 1.281 . S
C1218 O1229 1.254 . S
C1219 O1230 1.236 . S
C1219 O1231 1.266 . S
O1220 Tb1200 2.484 . S
O1220 C1202 1.248 . S
O1221 Tb1200 2.440 . S
O1221 C1202 1.266 . S
O1222 Tb1200 2.658 . S
O1222 Tb1201 2.325 . S
O1222 C1209 1.281 . S
O1223 Tb1200 2.409 . S
O1223 C1209 1.254 . S
O1224 Tb1200 2.378 . S
O1224 C1210 1.236 . S
O1225 Tb1201 2.341 . S
O1225 C1210 1.266 . S
O1226 Tb1201 2.484 . S
O1226 C1211 1.248 . S
O1227 Tb1201 2.440 . S
O1227 C1211 1.266 . S
O1228 Tb1200 2.325 . S
O1228 Tb1201 2.658 . S
O1228 C1218 1.281 . S
O1229 Tb1201 2.409 . S
O1229 C1218 1.254 . S
O1230 Tb1201 2.378 . S
O1230 C1219 1.236 . S
O1231 Tb1200 2.341 . S
O1231 C1219 1.266 . S
H1232 C1204 0.929 . S
H1233 C1205 0.931 . S
H1234 C1207 0.930 . S
H1235 C1208 0.930 . S
H1236 C1213 0.929 . S
H1237 C1214 0.931 . S
H1238 C1216 0.930 . S
H1239 C1217 0.930 . S
Tb1240 C1242 2.809 . S
Tb1240 O1260 2.484 . S
Tb1240 O1261 2.440 . S
Tb1240 O1262 2.658 . S
Tb1240 O1263 2.409 . S
Tb1240 O1264 2.378 . S
Tb1240 O1268 2.325 . S
Tb1240 O1271 2.341 . S
Tb1241 C1251 2.809 . S
Tb1241 O1262 2.325 . S
Tb1241 O1265 2.341 . S
Tb1241 O1266 2.484 . S
Tb1241 O1267 2.440 . S
Tb1241 O1268 2.658 . S
Tb1241 O1269 2.409 . S
Tb1241 O1270 2.378 . S
C1242 Tb1240 2.809 . S
C1242 C1243 1.514 . S
C1242 O1260 1.248 . S
C1242 O1261 1.266 . S
C1243 C1242 1.514 . S
C1243 C1244 1.359 . S
C1243 C1248 1.348 . S
C1244 C1243 1.359 . S
C1244 C1245 1.380 . S
C1244 H1272 0.929 . S
C1245 C1244 1.380 . S
C1245 C1246 1.347 . S
C1245 H1273 0.931 . S
C1246 C1245 1.347 . S
C1246 C1247 1.369 . S
C1247 C1246 1.369 . S
C1247 C1248 1.408 . S
C1247 H1274 0.930 . S
C1248 C1243 1.348 . S
C1248 C1247 1.408 . S
C1248 H1275 0.930 . S
C1249 O1262 1.281 . S
C1249 O1263 1.254 . S
C1250 O1264 1.236 . S
C1250 O1265 1.266 . S
C1251 Tb1241 2.809 . S
C1251 C1252 1.514 . S
C1251 O1266 1.248 . S
C1251 O1267 1.266 . S
C1252 C1251 1.514 . S
C1252 C1253 1.359 . S
C1252 C1257 1.348 . S
C1253 C1252 1.359 . S
C1253 C1254 1.380 . S
C1253 H1276 0.929 . S
C1254 C1253 1.380 . S
C1254 C1255 1.347 . S
C1254 H1277 0.931 . S
C1255 C1254 1.347 . S
C1255 C1256 1.369 . S
C1256 C1255 1.369 . S
C1256 C1257 1.408 . S
C1256 H1278 0.930 . S
C1257 C1252 1.348 . S
C1257 C1256 1.408 . S
C1257 H1279 0.930 . S
C1258 O1268 1.281 . S
C1258 O1269 1.254 . S
C1259 O1270 1.236 . S
C1259 O1271 1.266 . S
O1260 Tb1240 2.484 . S
O1260 C1242 1.248 . S
O1261 Tb1240 2.440 . S
O1261 C1242 1.266 . S
O1262 Tb1240 2.658 . S
O1262 Tb1241 2.325 . S
O1262 C1249 1.281 . S
O1263 Tb1240 2.409 . S
O1263 C1249 1.254 . S
O1264 Tb1240 2.378 . S
O1264 C1250 1.236 . S
O1265 Tb1241 2.341 . S
O1265 C1250 1.266 . S
O1266 Tb1241 2.484 . S
O1266 C1251 1.248 . S
O1267 Tb1241 2.440 . S
O1267 C1251 1.266 . S
O1268 Tb1240 2.325 . S
O1268 Tb1241 2.658 . S
O1268 C1258 1.281 . S
O1269 Tb1241 2.409 . S
O1269 C1258 1.254 . S
O1270 Tb1241 2.378 . S
O1270 C1259 1.236 . S
O1271 Tb1240 2.341 . S
O1271 C1259 1.266 . S
H1272 C1244 0.929 . S
H1273 C1245 0.931 . S
H1274 C1247 0.930 . S
H1275 C1248 0.930 . S
H1276 C1253 0.929 . S
H1277 C1254 0.931 . S
H1278 C1256 0.930 . S
H1279 C1257 0.930 . S
C1280 C1281 1.387 . S
C1280 H1284 0.950 . S
C1280 C1289 1.390 . S
C1281 C1280 1.387 . S
C1281 C1283 1.387 . S
H1282 C1289 0.950 . S
C1283 C1281 1.387 . S
C1283 C1285 1.390 . S
C1283 H1287 0.950 . S
H1284 C1280 0.950 . S
C1285 C1283 1.390 . S
C1285 C1286 1.387 . S
C1285 H1288 0.950 . S
C1286 C1285 1.387 . S
C1286 C1289 1.387 . S
H1287 C1283 0.950 . S
H1288 C1285 0.950 . S
C1289 C1280 1.390 . S
C1289 H1282 0.950 . S
C1289 C1286 1.387 . S
C1290 C1291 1.387 . S
C1290 H1294 0.950 . S
C1290 C1299 1.390 . S
C1291 C1290 1.387 . S
C1291 C1293 1.387 . S
H1292 C1299 0.950 . S
C1293 C1291 1.387 . S
C1293 C1295 1.390 . S
C1293 H1297 0.950 . S
H1294 C1290 0.950 . S
C1295 C1293 1.390 . S
C1295 C1296 1.387 . S
C1295 H1298 0.950 . S
C1296 C1295 1.387 . S
C1296 C1299 1.387 . S
H1297 C1293 0.950 . S
H1298 C1295 0.950 . S
C1299 C1290 1.390 . S
C1299 H1292 0.950 . S
C1299 C1296 1.387 . S
C1300 C1301 1.387 . S
C1300 H1304 0.950 . S
C1300 C1309 1.390 . S
C1301 C1300 1.387 . S
C1301 C1303 1.387 . S
H1302 C1309 0.950 . S
C1303 C1301 1.387 . S
C1303 C1305 1.390 . S
C1303 H1307 0.950 . S
H1304 C1300 0.950 . S
C1305 C1303 1.390 . S
C1305 C1306 1.387 . S
C1305 H1308 0.950 . S
C1306 C1305 1.387 . S
C1306 C1309 1.387 . S
H1307 C1303 0.950 . S
H1308 C1305 0.950 . S
C1309 C1300 1.390 . S
C1309 H1302 0.950 . S
C1309 C1306 1.387 . S
C1310 C1311 1.387 . S
C1310 H1314 0.950 . S
C1310 C1319 1.390 . S
C1311 C1310 1.387 . S
C1311 C1313 1.387 . S
H1312 C1319 0.950 . S
C1313 C1311 1.387 . S
C1313 C1315 1.390 . S
C1313 H1317 0.950 . S
H1314 C1310 0.950 . S
C1315 C1313 1.390 . S
C1315 C1316 1.387 . S
C1315 H1318 0.950 . S
C1316 C1315 1.387 . S
C1316 C1319 1.387 . S
H1317 C1313 0.950 . S
H1318 C1315 0.950 . S
C1319 C1310 1.390 . S
C1319 H1312 0.950 . S
C1319 C1316 1.387 . S
C1320 C1321 1.387 . S
C1320 H1324 0.950 . S
C1320 C1329 1.390 . S
C1321 C1320 1.387 . S
C1321 C1323 1.387 . S
H1322 C1329 0.950 . S
C1323 C1321 1.387 . S
C1323 C1325 1.390 . S
C1323 H1327 0.950 . S
H1324 C1320 0.950 . S
C1325 C1323 1.390 . S
C1325 C1326 1.387 . S
C1325 H1328 0.950 . S
C1326 C1325 1.387 . S
C1326 C1329 1.387 . S
H1327 C1323 0.950 . S
H1328 C1325 0.950 . S
C1329 C1320 1.390 . S
C1329 H1322 0.950 . S
C1329 C1326 1.387 . S
C1330 C1331 1.387 . S
C1330 H1334 0.950 . S
C1330 C1339 1.390 . S
C1331 C1330 1.387 . S
C1331 C1333 1.387 . S
H1332 C1339 0.950 . S
C1333 C1331 1.387 . S
C1333 C1335 1.390 . S
C1333 H1337 0.950 . S
H1334 C1330 0.950 . S
C1335 C1333 1.390 . S
C1335 C1336 1.387 . S
C1335 H1338 0.950 . S
C1336 C1335 1.387 . S
C1336 C1339 1.387 . S
H1337 C1333 0.950 . S
H1338 C1335 0.950 . S
C1339 C1330 1.390 . S
C1339 H1332 0.950 . S
C1339 C1336 1.387 . S
C1340 C1341 1.387 . S
C1340 H1344 0.950 . S
C1340 C1349 1.390 . S
C1341 C1340 1.387 . S
C1341 C1343 1.387 . S
H1342 C1349 0.950 . S
C1343 C1341 1.387 . S
C1343 C1345 1.390 . S
C1343 H1347 0.950 . S
H1344 C1340 0.950 . S
C1345 C1343 1.390 . S
C1345 C1346 1.387 . S
C1345 H1348 0.950 . S
C1346 C1345 1.387 . S
C1346 C1349 1.387 . S
H1347 C1343 0.950 . S
H1348 C1345 0.950 . S
C1349 C1340 1.390 . S
C1349 H1342 0.950 . S
C1349 C1346 1.387 . S
C1350 C1351 1.387 . S
C1350 H1354 0.950 . S
C1350 C1359 1.390 . S
C1351 C1350 1.387 . S
C1351 C1353 1.387 . S
H1352 C1359 0.950 . S
C1353 C1351 1.387 . S
C1353 C1355 1.390 . S
C1353 H1357 0.950 . S
H1354 C1350 0.950 . S
C1355 C1353 1.390 . S
C1355 C1356 1.387 . S
C1355 H1358 0.950 . S
C1356 C1355 1.387 . S
C1356 C1359 1.387 . S
H1357 C1353 0.950 . S
H1358 C1355 0.950 . S
C1359 C1350 1.390 . S
C1359 H1352 0.950 . S
C1359 C1356 1.387 . S
C1360 C1361 1.387 . S
C1360 H1364 0.950 . S
C1360 C1369 1.390 . S
C1361 C1360 1.387 . S
C1361 C1363 1.387 . S
H1362 C1369 0.950 . S
C1363 C1361 1.387 . S
C1363 C1365 1.390 . S
C1363 H1367 0.950 . S
H1364 C1360 0.950 . S
C1365 C1363 1.390 . S
C1365 C1366 1.387 . S
C1365 H1368 0.950 . S
C1366 C1365 1.387 . S
C1366 C1369 1.387 . S
H1367 C1363 0.950 . S
H1368 C1365 0.950 . S
C1369 C1360 1.390 . S
C1369 H1362 0.950 . S
C1369 C1366 1.387 . S
C1370 C1371 1.387 . S
C1370 H1374 0.950 . S
C1370 C1379 1.390 . S
C1371 C1370 1.387 . S
C1371 C1373 1.387 . S
H1372 C1379 0.950 . S
C1373 C1371 1.387 . S
C1373 C1375 1.390 . S
C1373 H1377 0.950 . S
H1374 C1370 0.950 . S
C1375 C1373 1.390 . S
C1375 C1376 1.387 . S
C1375 H1378 0.950 . S
C1376 C1375 1.387 . S
C1376 C1379 1.387 . S
H1377 C1373 0.950 . S
H1378 C1375 0.950 . S
C1379 C1370 1.390 . S
C1379 H1372 0.950 . S
C1379 C1376 1.387 . S
C1380 C1381 1.387 . S
C1380 H1384 0.950 . S
C1380 C1389 1.390 . S
C1381 C1380 1.387 . S
C1381 C1383 1.387 . S
H1382 C1389 0.950 . S
C1383 C1381 1.387 . S
C1383 C1385 1.390 . S
C1383 H1387 0.950 . S
H1384 C1380 0.950 . S
C1385 C1383 1.390 . S
C1385 C1386 1.387 . S
C1385 H1388 0.950 . S
C1386 C1385 1.387 . S
C1386 C1389 1.387 . S
H1387 C1383 0.950 . S
H1388 C1385 0.950 . S
C1389 C1380 1.390 . S
C1389 H1382 0.950 . S
C1389 C1386 1.387 . S
C1390 C1391 1.387 . S
C1390 H1394 0.950 . S
C1390 C1399 1.390 . S
C1391 C1390 1.387 . S
C1391 C1393 1.387 . S
H1392 C1399 0.950 . S
C1393 C1391 1.387 . S
C1393 C1395 1.390 . S
C1393 H1397 0.950 . S
H1394 C1390 0.950 . S
C1395 C1393 1.390 . S
C1395 C1396 1.387 . S
C1395 H1398 0.950 . S
C1396 C1395 1.387 . S
C1396 C1399 1.387 . S
H1397 C1393 0.950 . S
H1398 C1395 0.950 . S
C1399 C1390 1.390 . S
C1399 H1392 0.950 . S
C1399 C1396 1.387 . S
C1400 C1401 1.387 . S
C1400 H1404 0.950 . S
C1400 C1409 1.390 . S
C1401 C1400 1.387 . S
C1401 C1403 1.387 . S
H1402 C1409 0.950 . S
C1403 C1401 1.387 . S
C1403 C1405 1.390 . S
C1403 H1407 0.950 . S
H1404 C1400 0.950 . S
C1405 C1403 1.390 . S
C1405 C1406 1.387 . S
C1405 H1408 0.950 . S
C1406 C1405 1.387 . S
C1406 C1409 1.387 . S
H1407 C1403 0.950 . S
H1408 C1405 0.950 . S
C1409 C1400 1.390 . S
C1409 H1402 0.950 . S
C1409 C1406 1.387 . S
C1410 C1411 1.387 . S
C1410 H1414 0.950 . S
C1410 C1419 1.390 . S
C1411 C1410 1.387 . S
C1411 C1413 1.387 . S
H1412 C1419 0.950 . S
C1413 C1411 1.387 . S
C1413 C1415 1.390 . S
C1413 H1417 0.950 . S
H1414 C1410 0.950 . S
C1415 C1413 1.390 . S
C1415 C1416 1.387 . S
C1415 H1418 0.950 . S
C1416 C1415 1.387 . S
C1416 C1419 1.387 . S
H1417 C1413 0.950 . S
H1418 C1415 0.950 . S
C1419 C1410 1.390 . S
C1419 H1412 0.950 . S
C1419 C1416 1.387 . S
C1420 C1421 1.387 . S
C1420 H1424 0.950 . S
C1420 C1429 1.390 . S
C1421 C1420 1.387 . S
C1421 C1423 1.387 . S
H1422 C1429 0.950 . S
C1423 C1421 1.387 . S
C1423 C1425 1.390 . S
C1423 H1427 0.950 . S
H1424 C1420 0.950 . S
C1425 C1423 1.390 . S
C1425 C1426 1.387 . S
C1425 H1428 0.950 . S
C1426 C1425 1.387 . S
C1426 C1429 1.387 . S
H1427 C1423 0.950 . S
H1428 C1425 0.950 . S
C1429 C1420 1.390 . S
C1429 H1422 0.950 . S
C1429 C1426 1.387 . S
C1430 C1431 1.387 . S
C1430 H1434 0.950 . S
C1430 C1439 1.390 . S
C1431 C1430 1.387 . S
C1431 C1433 1.387 . S
H1432 C1439 0.950 . S
C1433 C1431 1.387 . S
C1433 C1435 1.390 . S
C1433 H1437 0.950 . S
H1434 C1430 0.950 . S
C1435 C1433 1.390 . S
C1435 C1436 1.387 . S
C1435 H1438 0.950 . S
C1436 C1435 1.387 . S
C1436 C1439 1.387 . S
H1437 C1433 0.950 . S
H1438 C1435 0.950 . S
C1439 C1430 1.390 . S
C1439 H1432 0.950 . S
C1439 C1436 1.387 . S
C1440 C1441 1.387 . S
C1440 H1444 0.950 . S
C1440 C1449 1.390 . S
C1441 C1440 1.387 . S
C1441 C1443 1.387 . S
H1442 C1449 0.950 . S
C1443 C1441 1.387 . S
C1443 C1445 1.390 . S
C1443 H1447 0.950 . S
H1444 C1440 0.950 . S
C1445 C1443 1.390 . S
C1445 C1446 1.387 . S
C1445 H1448 0.950 . S
C1446 C1445 1.387 . S
C1446 C1449 1.387 . S
H1447 C1443 0.950 . S
H1448 C1445 0.950 . S
C1449 C1440 1.390 . S
C1449 H1442 0.950 . S
C1449 C1446 1.387 . S
C1450 C1451 1.387 . S
C1450 H1454 0.950 . S
C1450 C1459 1.390 . S
C1451 C1450 1.387 . S
C1451 C1453 1.387 . S
H1452 C1459 0.950 . S
C1453 C1451 1.387 . S
C1453 C1455 1.390 . S
C1453 H1457 0.950 . S
H1454 C1450 0.950 . S
C1455 C1453 1.390 . S
C1455 C1456 1.387 . S
C1455 H1458 0.950 . S
C1456 C1455 1.387 . S
C1456 C1459 1.387 . S
H1457 C1453 0.950 . S
H1458 C1455 0.950 . S
C1459 C1450 1.390 . S
C1459 H1452 0.950 . S
C1459 C1456 1.387 . S
C1460 C1461 1.387 . S
C1460 H1464 0.950 . S
C1460 C1469 1.390 . S
C1461 C1460 1.387 . S
C1461 C1463 1.387 . S
H1462 C1469 0.950 . S
C1463 C1461 1.387 . S
C1463 C1465 1.390 . S
C1463 H1467 0.950 . S
H1464 C1460 0.950 . S
C1465 C1463 1.390 . S
C1465 C1466 1.387 . S
C1465 H1468 0.950 . S
C1466 C1465 1.387 . S
C1466 C1469 1.387 . S
H1467 C1463 0.950 . S
H1468 C1465 0.950 . S
C1469 C1460 1.390 . S
C1469 H1462 0.950 . S
C1469 C1466 1.387 . S
C1470 C1471 1.387 . S
C1470 H1474 0.950 . S
C1470 C1479 1.390 . S
C1471 C1470 1.387 . S
C1471 C1473 1.387 . S
H1472 C1479 0.950 . S
C1473 C1471 1.387 . S
C1473 C1475 1.390 . S
C1473 H1477 0.950 . S
H1474 C1470 0.950 . S
C1475 C1473 1.390 . S
C1475 C1476 1.387 . S
C1475 H1478 0.950 . S
C1476 C1475 1.387 . S
C1476 C1479 1.387 . S
H1477 C1473 0.950 . S
H1478 C1475 0.950 . S
C1479 C1470 1.390 . S
C1479 H1472 0.950 . S
C1479 C1476 1.387 . S
C1480 C1481 1.387 . S
C1480 H1484 0.950 . S
C1480 C1489 1.390 . S
C1481 C1480 1.387 . S
C1481 C1483 1.387 . S
H1482 C1489 0.950 . S
C1483 C1481 1.387 . S
C1483 C1485 1.390 . S
C1483 H1487 0.950 . S
H1484 C1480 0.950 . S
C1485 C1483 1.390 . S
C1485 C1486 1.387 . S
C1485 H1488 0.950 . S
C1486 C1485 1.387 . S
C1486 C1489 1.387 . S
H1487 C1483 0.950 . S
H1488 C1485 0.950 . S
C1489 C1480 1.390 . S
C1489 H1482 0.950 . S
C1489 C1486 1.387 . S
C1490 C1491 1.387 . S
C1490 H1494 0.950 . S
C1490 C1499 1.390 . S
C1491 C1490 1.387 . S
C1491 C1493 1.387 . S
H1492 C1499 0.950 . S
C1493 C1491 1.387 . S
C1493 C1495 1.390 . S
C1493 H1497 0.950 . S
H1494 C1490 0.950 . S
C1495 C1493 1.390 . S
C1495 C1496 1.387 . S
C1495 H1498 0.950 . S
C1496 C1495 1.387 . S
C1496 C1499 1.387 . S
H1497 C1493 0.950 . S
H1498 C1495 0.950 . S
C1499 C1490 1.390 . S
C1499 H1492 0.950 . S
C1499 C1496 1.387 . S
C1500 C1501 1.387 . S
C1500 H1504 0.950 . S
C1500 C1509 1.390 . S
C1501 C1500 1.387 . S
C1501 C1503 1.387 . S
H1502 C1509 0.950 . S
C1503 C1501 1.387 . S
C1503 C1505 1.390 . S
C1503 H1507 0.950 . S
H1504 C1500 0.950 . S
C1505 C1503 1.390 . S
C1505 C1506 1.387 . S
C1505 H1508 0.950 . S
C1506 C1505 1.387 . S
C1506 C1509 1.387 . S
H1507 C1503 0.950 . S
H1508 C1505 0.950 . S
C1509 C1500 1.390 . S
C1509 H1502 0.950 . S
C1509 C1506 1.387 . S
C1510 C1511 1.387 . S
C1510 H1514 0.950 . S
C1510 C1519 1.390 . S
C1511 C1510 1.387 . S
C1511 C1513 1.387 . S
H1512 C1519 0.950 . S
C1513 C1511 1.387 . S
C1513 C1515 1.390 . S
C1513 H1517 0.950 . S
H1514 C1510 0.950 . S
C1515 C1513 1.390 . S
C1515 C1516 1.387 . S
C1515 H1518 0.950 . S
C1516 C1515 1.387 . S
C1516 C1519 1.387 . S
H1517 C1513 0.950 . S
H1518 C1515 0.950 . S
C1519 C1510 1.390 . S
C1519 H1512 0.950 . S
C1519 C1516 1.387 . S
C1520 C1521 1.387 . S
C1520 H1524 0.950 . S
C1520 C1529 1.390 . S
C1521 C1520 1.387 . S
C1521 C1523 1.387 . S
H1522 C1529 0.950 . S
C1523 C1521 1.387 . S
C1523 C1525 1.390 . S
C1523 H1527 0.950 . S
H1524 C1520 0.950 . S
C1525 C1523 1.390 . S
C1525 C1526 1.387 . S
C1525 H1528 0.950 . S
C1526 C1525 1.387 . S
C1526 C1529 1.387 . S
H1527 C1523 0.950 . S
H1528 C1525 0.950 . S
C1529 C1520 1.390 . S
C1529 H1522 0.950 . S
C1529 C1526 1.387 . S
C1530 C1531 1.387 . S
C1530 H1534 0.950 . S
C1530 C1539 1.390 . S
C1531 C1530 1.387 . S
C1531 C1533 1.387 . S
H1532 C1539 0.950 . S
C1533 C1531 1.387 . S
C1533 C1535 1.390 . S
C1533 H1537 0.950 . S
H1534 C1530 0.950 . S
C1535 C1533 1.390 . S
C1535 C1536 1.387 . S
C1535 H1538 0.950 . S
C1536 C1535 1.387 . S
C1536 C1539 1.387 . S
H1537 C1533 0.950 . S
H1538 C1535 0.950 . S
C1539 C1530 1.390 . S
C1539 H1532 0.950 . S
C1539 C1536 1.387 . S
C1540 C1541 1.387 . S
C1540 H1544 0.950 . S
C1540 C1549 1.390 . S
C1541 C1540 1.387 . S
C1541 C1543 1.387 . S
H1542 C1549 0.950 . S
C1543 C1541 1.387 . S
C1543 C1545 1.390 . S
C1543 H1547 0.950 . S
H1544 C1540 0.950 . S
C1545 C1543 1.390 . S
C1545 C1546 1.387 . S
C1545 H1548 0.950 . S
C1546 C1545 1.387 . S
C1546 C1549 1.387 . S
H1547 C1543 0.950 . S
H1548 C1545 0.950 . S
C1549 C1540 1.390 . S
C1549 H1542 0.950 . S
C1549 C1546 1.387 . S
C1550 C1551 1.387 . S
C1550 H1554 0.950 . S
C1550 C1559 1.390 . S
C1551 C1550 1.387 . S
C1551 C1553 1.387 . S
H1552 C1559 0.950 . S
C1553 C1551 1.387 . S
C1553 C1555 1.390 . S
C1553 H1557 0.950 . S
H1554 C1550 0.950 . S
C1555 C1553 1.390 . S
C1555 C1556 1.387 . S
C1555 H1558 0.950 . S
C1556 C1555 1.387 . S
C1556 C1559 1.387 . S
H1557 C1553 0.950 . S
H1558 C1555 0.950 . S
C1559 C1550 1.390 . S
C1559 H1552 0.950 . S
C1559 C1556 1.387 . S
C1560 C1561 1.387 . S
C1560 H1564 0.950 . S
C1560 C1569 1.390 . S
C1561 C1560 1.387 . S
C1561 C1563 1.387 . S
H1562 C1569 0.950 . S
C1563 C1561 1.387 . S
C1563 C1565 1.390 . S
C1563 H1567 0.950 . S
H1564 C1560 0.950 . S
C1565 C1563 1.390 . S
C1565 C1566 1.387 . S
C1565 H1568 0.950 . S
C1566 C1565 1.387 . S
C1566 C1569 1.387 . S
H1567 C1563 0.950 . S
H1568 C1565 0.950 . S
C1569 C1560 1.390 . S
C1569 H1562 0.950 . S
C1569 C1566 1.387 . S
C1570 C1571 1.387 . S
C1570 H1574 0.950 . S
C1570 C1579 1.390 . S
C1571 C1570 1.387 . S
C1571 C1573 1.387 . S
H1572 C1579 0.950 . S
C1573 C1571 1.387 . S
C1573 C1575 1.390 . S
C1573 H1577 0.950 . S
H1574 C1570 0.950 . S
C1575 C1573 1.390 . S
C1575 C1576 1.387 . S
C1575 H1578 0.950 . S
C1576 C1575 1.387 . S
C1576 C1579 1.387 . S
H1577 C1573 0.950 . S
H1578 C1575 0.950 . S
C1579 C1570 1.390 . S
C1579 H1572 0.950 . S
C1579 C1576 1.387 . S
C1580 C1581 1.387 . S
C1580 H1584 0.950 . S
C1580 C1589 1.390 . S
C1581 C1580 1.387 . S
C1581 C1583 1.387 . S
H1582 C1589 0.950 . S
C1583 C1581 1.387 . S
C1583 C1585 1.390 . S
C1583 H1587 0.950 . S
H1584 C1580 0.950 . S
C1585 C1583 1.390 . S
C1585 C1586 1.387 . S
C1585 H1588 0.950 . S
C1586 C1585 1.387 . S
C1586 C1589 1.387 . S
H1587 C1583 0.950 . S
H1588 C1585 0.950 . S
C1589 C1580 1.390 . S
C1589 H1582 0.950 . S
C1589 C1586 1.387 . S
C1590 C1591 1.387 . S
C1590 H1594 0.950 . S
C1590 C1599 1.390 . S
C1591 C1590 1.387 . S
C1591 C1593 1.387 . S
H1592 C1599 0.950 . S
C1593 C1591 1.387 . S
C1593 C1595 1.390 . S
C1593 H1597 0.950 . S
H1594 C1590 0.950 . S
C1595 C1593 1.390 . S
C1595 C1596 1.387 . S
C1595 H1598 0.950 . S
C1596 C1595 1.387 . S
C1596 C1599 1.387 . S
H1597 C1593 0.950 . S
H1598 C1595 0.950 . S
C1599 C1590 1.390 . S
C1599 H1592 0.950 . S
C1599 C1596 1.387 . S
C1600 C1601 1.387 . S
C1600 H1604 0.950 . S
C1600 C1609 1.390 . S
C1601 C1600 1.387 . S
C1601 C1603 1.387 . S
H1602 C1609 0.950 . S
C1603 C1601 1.387 . S
C1603 C1605 1.390 . S
C1603 H1607 0.950 . S
H1604 C1600 0.950 . S
C1605 C1603 1.390 . S
C1605 C1606 1.387 . S
C1605 H1608 0.950 . S
C1606 C1605 1.387 . S
C1606 C1609 1.387 . S
H1607 C1603 0.950 . S
H1608 C1605 0.950 . S
C1609 C1600 1.390 . S
C1609 H1602 0.950 . S
C1609 C1606 1.387 . S
C1610 C1611 1.387 . S
C1610 H1614 0.950 . S
C1610 C1619 1.390 . S
C1611 C1610 1.387 . S
C1611 C1613 1.387 . S
H1612 C1619 0.950 . S
C1613 C1611 1.387 . S
C1613 C1615 1.390 . S
C1613 H1617 0.950 . S
H1614 C1610 0.950 . S
C1615 C1613 1.390 . S
C1615 C1616 1.387 . S
C1615 H1618 0.950 . S
C1616 C1615 1.387 . S
C1616 C1619 1.387 . S
H1617 C1613 0.950 . S
H1618 C1615 0.950 . S
C1619 C1610 1.390 . S
C1619 H1612 0.950 . S
C1619 C1616 1.387 . S
C1620 C1621 1.387 . S
C1620 H1624 0.950 . S
C1620 C1629 1.390 . S
C1621 C1620 1.387 . S
C1621 C1623 1.387 . S
H1622 C1629 0.950 . S
C1623 C1621 1.387 . S
C1623 C1625 1.390 . S
C1623 H1627 0.950 . S
H1624 C1620 0.950 . S
C1625 C1623 1.390 . S
C1625 C1626 1.387 . S
C1625 H1628 0.950 . S
C1626 C1625 1.387 . S
C1626 C1629 1.387 . S
H1627 C1623 0.950 . S
H1628 C1625 0.950 . S
C1629 C1620 1.390 . S
C1629 H1622 0.950 . S
C1629 C1626 1.387 . S
C1630 C1631 1.387 . S
C1630 H1634 0.950 . S
C1630 C1639 1.390 . S
C1631 C1630 1.387 . S
C1631 C1633 1.387 . S
H1632 C1639 0.950 . S
C1633 C1631 1.387 . S
C1633 C1635 1.390 . S
C1633 H1637 0.950 . S
H1634 C1630 0.950 . S
C1635 C1633 1.390 . S
C1635 C1636 1.387 . S
C1635 H1638 0.950 . S
C1636 C1635 1.387 . S
C1636 C1639 1.387 . S
H1637 C1633 0.950 . S
H1638 C1635 0.950 . S
C1639 C1630 1.390 . S
C1639 H1632 0.950 . S
C1639 C1636 1.387 . S
C1640 C1641 1.387 . S
C1640 H1644 0.950 . S
C1640 C1649 1.390 . S
C1641 C1640 1.387 . S
C1641 C1643 1.387 . S
H1642 C1649 0.950 . S
C1643 C1641 1.387 . S
C1643 C1645 1.390 . S
C1643 H1647 0.950 . S
H1644 C1640 0.950 . S
C1645 C1643 1.390 . S
C1645 C1646 1.387 . S
C1645 H1648 0.950 . S
C1646 C1645 1.387 . S
C1646 C1649 1.387 . S
H1647 C1643 0.950 . S
H1648 C1645 0.950 . S
C1649 C1640 1.390 . S
C1649 H1642 0.950 . S
C1649 C1646 1.387 . S
C1650 C1651 1.387 . S
C1650 H1654 0.950 . S
C1650 C1659 1.390 . S
C1651 C1650 1.387 . S
C1651 C1653 1.387 . S
H1652 C1659 0.950 . S
C1653 C1651 1.387 . S
C1653 C1655 1.390 . S
C1653 H1657 0.950 . S
H1654 C1650 0.950 . S
C1655 C1653 1.390 . S
C1655 C1656 1.387 . S
C1655 H1658 0.950 . S
C1656 C1655 1.387 . S
C1656 C1659 1.387 . S
H1657 C1653 0.950 . S
H1658 C1655 0.950 . S
C1659 C1650 1.390 . S
C1659 H1652 0.950 . S
C1659 C1656 1.387 . S
C1660 C1661 1.387 . S
C1660 H1664 0.950 . S
C1660 C1669 1.390 . S
C1661 C1660 1.387 . S
C1661 C1663 1.387 . S
H1662 C1669 0.950 . S
C1663 C1661 1.387 . S
C1663 C1665 1.390 . S
C1663 H1667 0.950 . S
H1664 C1660 0.950 . S
C1665 C1663 1.390 . S
C1665 C1666 1.387 . S
C1665 H1668 0.950 . S
C1666 C1665 1.387 . S
C1666 C1669 1.387 . S
H1667 C1663 0.950 . S
H1668 C1665 0.950 . S
C1669 C1660 1.390 . S
C1669 H1662 0.950 . S
C1669 C1666 1.387 . S
C1670 C1671 1.387 . S
C1670 H1674 0.950 . S
C1670 C1679 1.390 . S
C1671 C1670 1.387 . S
C1671 C1673 1.387 . S
H1672 C1679 0.950 . S
C1673 C1671 1.387 . S
C1673 C1675 1.390 . S
C1673 H1677 0.950 . S
H1674 C1670 0.950 . S
C1675 C1673 1.390 . S
C1675 C1676 1.387 . S
C1675 H1678 0.950 . S
C1676 C1675 1.387 . S
C1676 C1679 1.387 . S
H1677 C1673 0.950 . S
H1678 C1675 0.950 . S
C1679 C1670 1.390 . S
C1679 H1672 0.950 . S
C1679 C1676 1.387 . S
C1680 C1681 1.387 . S
C1680 H1684 0.950 . S
C1680 C1689 1.390 . S
C1681 C1680 1.387 . S
C1681 C1683 1.387 . S
H1682 C1689 0.950 . S
C1683 C1681 1.387 . S
C1683 C1685 1.390 . S
C1683 H1687 0.950 . S
H1684 C1680 0.950 . S
C1685 C1683 1.390 . S
C1685 C1686 1.387 . S
C1685 H1688 0.950 . S
C1686 C1685 1.387 . S
C1686 C1689 1.387 . S
H1687 C1683 0.950 . S
H1688 C1685 0.950 . S
C1689 C1680 1.390 . S
C1689 H1682 0.950 . S
C1689 C1686 1.387 . S
C1690 C1691 1.387 . S
C1690 H1694 0.950 . S
C1690 C1699 1.390 . S
C1691 C1690 1.387 . S
C1691 C1693 1.387 . S
H1692 C1699 0.950 . S
C1693 C1691 1.387 . S
C1693 C1695 1.390 . S
C1693 H1697 0.950 . S
H1694 C1690 0.950 . S
C1695 C1693 1.390 . S
C1695 C1696 1.387 . S
C1695 H1698 0.950 . S
C1696 C1695 1.387 . S
C1696 C1699 1.387 . S
H1697 C1693 0.950 . S
H1698 C1695 0.950 . S
C1699 C1690 1.390 . S
C1699 H1692 0.950 . S
C1699 C1696 1.387 . S
C1700 C1701 1.387 . S
C1700 H1704 0.950 . S
C1700 C1709 1.390 . S
C1701 C1700 1.387 . S
C1701 C1703 1.387 . S
H1702 C1709 0.950 . S
C1703 C1701 1.387 . S
C1703 C1705 1.390 . S
C1703 H1707 0.950 . S
H1704 C1700 0.950 . S
C1705 C1703 1.390 . S
C1705 C1706 1.387 . S
C1705 H1708 0.950 . S
C1706 C1705 1.387 . S
C1706 C1709 1.387 . S
H1707 C1703 0.950 . S
H1708 C1705 0.950 . S
C1709 C1700 1.390 . S
C1709 H1702 0.950 . S
C1709 C1706 1.387 . S
C1710 C1711 1.387 . S
C1710 H1714 0.950 . S
C1710 C1719 1.390 . S
C1711 C1710 1.387 . S
C1711 C1713 1.387 . S
H1712 C1719 0.950 . S
C1713 C1711 1.387 . S
C1713 C1715 1.390 . S
C1713 H1717 0.950 . S
H1714 C1710 0.950 . S
C1715 C1713 1.390 . S
C1715 C1716 1.387 . S
C1715 H1718 0.950 . S
C1716 C1715 1.387 . S
C1716 C1719 1.387 . S
H1717 C1713 0.950 . S
H1718 C1715 0.950 . S
C1719 C1710 1.390 . S
C1719 H1712 0.950 . S
C1719 C1716 1.387 . S
C1720 C1721 1.387 . S
C1720 H1724 0.950 . S
C1720 C1729 1.390 . S
C1721 C1720 1.387 . S
C1721 C1723 1.387 . S
H1722 C1729 0.950 . S
C1723 C1721 1.387 . S
C1723 C1725 1.390 . S
C1723 H1727 0.950 . S
H1724 C1720 0.950 . S
C1725 C1723 1.390 . S
C1725 C1726 1.387 . S
C1725 H1728 0.950 . S
C1726 C1725 1.387 . S
C1726 C1729 1.387 . S
H1727 C1723 0.950 . S
H1728 C1725 0.950 . S
C1729 C1720 1.390 . S
C1729 H1722 0.950 . S
C1729 C1726 1.387 . S
C1730 C1731 1.387 . S
C1730 H1734 0.950 . S
C1730 C1739 1.390 . S
C1731 C1730 1.387 . S
C1731 C1733 1.387 . S
H1732 C1739 0.950 . S
C1733 C1731 1.387 . S
C1733 C1735 1.390 . S
C1733 H1737 0.950 . S
H1734 C1730 0.950 . S
C1735 C1733 1.390 . S
C1735 C1736 1.387 . S
C1735 H1738 0.950 . S
C1736 C1735 1.387 . S
C1736 C1739 1.387 . S
H1737 C1733 0.950 . S
H1738 C1735 0.950 . S
C1739 C1730 1.390 . S
C1739 H1732 0.950 . S
C1739 C1736 1.387 . S
C1740 C1741 1.387 . S
C1740 H1744 0.950 . S
C1740 C1749 1.390 . S
C1741 C1740 1.387 . S
C1741 C1743 1.387 . S
H1742 C1749 0.950 . S
C1743 C1741 1.387 . S
C1743 C1745 1.390 . S
C1743 H1747 0.950 . S
H1744 C1740 0.950 . S
C1745 C1743 1.390 . S
C1745 C1746 1.387 . S
C1745 H1748 0.950 . S
C1746 C1745 1.387 . S
C1746 C1749 1.387 . S
H1747 C1743 0.950 . S
H1748 C1745 0.950 . S
C1749 C1740 1.390 . S
C1749 H1742 0.950 . S
C1749 C1746 1.387 . S
C1750 C1751 1.387 . S
C1750 H1754 0.950 . S
C1750 C1759 1.390 . S
C1751 C1750 1.387 . S
C1751 C1753 1.387 . S
H1752 C1759 0.950 . S
C1753 C1751 1.387 . S
C1753 C1755 1.390 . S
C1753 H1757 0.950 . S
H1754 C1750 0.950 . S
C1755 C1753 1.390 . S
C1755 C1756 1.387 . S
C1755 H1758 0.950 . S
C1756 C1755 1.387 . S
C1756 C1759 1.387 . S
H1757 C1753 0.950 . S
H1758 C1755 0.950 . S
C1759 C1750 1.390 . S
C1759 H1752 0.950 . S
C1759 C1756 1.387 . S
C1760 C1761 1.387 . S
C1760 H1764 0.950 . S
C1760 C1769 1.390 . S
C1761 C1760 1.387 . S
C1761 C1763 1.387 . S
H1762 C1769 0.950 . S
C1763 C1761 1.387 . S
C1763 C1765 1.390 . S
C1763 H1767 0.950 . S
H1764 C1760 0.950 . S
C1765 C1763 1.390 . S
C1765 C1766 1.387 . S
C1765 H1768 0.950 . S
C1766 C1765 1.387 . S
C1766 C1769 1.387 . S
H1767 C1763 0.950 . S
H1768 C1765 0.950 . S
C1769 C1760 1.390 . S
C1769 H1762 0.950 . S
C1769 C1766 1.387 . S
C1770 C1771 1.387 . S
C1770 H1774 0.950 . S
C1770 C1779 1.390 . S
C1771 C1770 1.387 . S
C1771 C1773 1.387 . S
H1772 C1779 0.950 . S
C1773 C1771 1.387 . S
C1773 C1775 1.390 . S
C1773 H1777 0.950 . S
H1774 C1770 0.950 . S
C1775 C1773 1.390 . S
C1775 C1776 1.387 . S
C1775 H1778 0.950 . S
C1776 C1775 1.387 . S
C1776 C1779 1.387 . S
H1777 C1773 0.950 . S
H1778 C1775 0.950 . S
C1779 C1770 1.390 . S
C1779 H1772 0.950 . S
C1779 C1776 1.387 . S
C1780 C1781 1.387 . S
C1780 H1784 0.950 . S
C1780 C1789 1.390 . S
C1781 C1780 1.387 . S
C1781 C1783 1.387 . S
H1782 C1789 0.950 . S
C1783 C1781 1.387 . S
C1783 C1785 1.390 . S
C1783 H1787 0.950 . S
H1784 C1780 0.950 . S
C1785 C1783 1.390 . S
C1785 C1786 1.387 . S
C1785 H1788 0.950 . S
C1786 C1785 1.387 . S
C1786 C1789 1.387 . S
H1787 C1783 0.950 . S
H1788 C1785 0.950 . S
C1789 C1780 1.390 . S
C1789 H1782 0.950 . S
C1789 C1786 1.387 . S
C1790 C1791 1.387 . S
C1790 H1794 0.950 . S
C1790 C1799 1.390 . S
C1791 C1790 1.387 . S
C1791 C1793 1.387 . S
H1792 C1799 0.950 . S
C1793 C1791 1.387 . S
C1793 C1795 1.390 . S
C1793 H1797 0.950 . S
H1794 C1790 0.950 . S
C1795 C1793 1.390 . S
C1795 C1796 1.387 . S
C1795 H1798 0.950 . S
C1796 C1795 1.387 . S
C1796 C1799 1.387 . S
H1797 C1793 0.950 . S
H1798 C1795 0.950 . S
C1799 C1790 1.390 . S
C1799 H1792 0.950 . S
C1799 C1796 1.387 . S
C1800 C1801 1.387 . S
C1800 H1804 0.950 . S
C1800 C1809 1.390 . S
C1801 C1800 1.387 . S
C1801 C1803 1.387 . S
H1802 C1809 0.950 . S
C1803 C1801 1.387 . S
C1803 C1805 1.390 . S
C1803 H1807 0.950 . S
H1804 C1800 0.950 . S
C1805 C1803 1.390 . S
C1805 C1806 1.387 . S
C1805 H1808 0.950 . S
C1806 C1805 1.387 . S
C1806 C1809 1.387 . S
H1807 C1803 0.950 . S
H1808 C1805 0.950 . S
C1809 C1800 1.390 . S
C1809 H1802 0.950 . S
C1809 C1806 1.387 . S
C1810 C1811 1.387 . S
C1810 H1814 0.950 . S
C1810 C1819 1.390 . S
C1811 C1810 1.387 . S
C1811 C1813 1.387 . S
H1812 C1819 0.950 . S
C1813 C1811 1.387 . S
C1813 C1815 1.390 . S
C1813 H1817 0.950 . S
H1814 C1810 0.950 . S
C1815 C1813 1.390 . S
C1815 C1816 1.387 . S
C1815 H1818 0.950 . S
C1816 C1815 1.387 . S
C1816 C1819 1.387 . S
H1817 C1813 0.950 . S
H1818 C1815 0.950 . S
C1819 C1810 1.390 . S
C1819 H1812 0.950 . S
C1819 C1816 1.387 . S
C1820 C1821 1.387 . S
C1820 H1824 0.950 . S
C1820 C1829 1.390 . S
C1821 C1820 1.387 . S
C1821 C1823 1.387 . S
H1822 C1829 0.950 . S
C1823 C1821 1.387 . S
C1823 C1825 1.390 . S
C1823 H1827 0.950 . S
H1824 C1820 0.950 . S
C1825 C1823 1.390 . S
C1825 C1826 1.387 . S
C1825 H1828 0.950 . S
C1826 C1825 1.387 . S
C1826 C1829 1.387 . S
H1827 C1823 0.950 . S
H1828 C1825 0.950 . S
C1829 C1820 1.390 . S
C1829 H1822 0.950 . S
C1829 C1826 1.387 . S
C1830 C1831 1.387 . S
C1830 H1834 0.950 . S
C1830 C1839 1.390 . S
C1831 C1830 1.387 . S
C1831 C1833 1.387 . S
H1832 C1839 0.950 . S
C1833 C1831 1.387 . S
C1833 C1835 1.390 . S
C1833 H1837 0.950 . S
H1834 C1830 0.950 . S
C1835 C1833 1.390 . S
C1835 C1836 1.387 . S
C1835 H1838 0.950 . S
C1836 C1835 1.387 . S
C1836 C1839 1.387 . S
H1837 C1833 0.950 . S
H1838 C1835 0.950 . S
C1839 C1830 1.390 . S
C1839 H1832 0.950 . S
C1839 C1836 1.387 . S
C1840 C1841 1.387 . S
C1840 H1844 0.950 . S
C1840 C1849 1.390 . S
C1841 C1840 1.387 . S
C1841 C1843 1.387 . S
H1842 C1849 0.950 . S
C1843 C1841 1.387 . S
C1843 C1845 1.390 . S
C1843 H1847 0.950 . S
H1844 C1840 0.950 . S
C1845 C1843 1.390 . S
C1845 C1846 1.387 . S
C1845 H1848 0.950 . S
C1846 C1845 1.387 . S
C1846 C1849 1.387 . S
H1847 C1843 0.950 . S
H1848 C1845 0.950 . S
C1849 C1840 1.390 . S
C1849 H1842 0.950 . S
C1849 C1846 1.387 . S
C1850 C1851 1.387 . S
C1850 H1854 0.950 . S
C1850 C1859 1.390 . S
C1851 C1850 1.387 . S
C1851 C1853 1.387 . S
H1852 C1859 0.950 . S
C1853 C1851 1.387 . S
C1853 C1855 1.390 . S
C1853 H1857 0.950 . S
H1854 C1850 0.950 . S
C1855 C1853 1.390 . S
C1855 C1856 1.387 . S
C1855 H1858 0.950 . S
C1856 C1855 1.387 . S
C1856 C1859 1.387 . S
H1857 C1853 0.950 . S
H1858 C1855 0.950 . S
C1859 C1850 1.390 . S
C1859 H1852 0.950 . S
C1859 C1856 1.387 . S
C1860 C1861 1.387 . S
C1860 H1864 0.950 . S
C1860 C1869 1.390 . S
C1861 C1860 1.387 . S
C1861 C1863 1.387 . S
H1862 C1869 0.950 . S
C1863 C1861 1.387 . S
C1863 C1865 1.390 . S
C1863 H1867 0.950 . S
H1864 C1860 0.950 . S
C1865 C1863 1.390 . S
C1865 C1866 1.387 . S
C1865 H1868 0.950 . S
C1866 C1865 1.387 . S
C1866 C1869 1.387 . S
H1867 C1863 0.950 . S
H1868 C1865 0.950 . S
C1869 C1860 1.390 . S
C1869 H1862 0.950 . S
C1869 C1866 1.387 . S
C1870 C1871 1.387 . S
C1870 H1874 0.950 . S
C1870 C1879 1.390 . S
C1871 C1870 1.387 . S
C1871 C1873 1.387 . S
H1872 C1879 0.950 . S
C1873 C1871 1.387 . S
C1873 C1875 1.390 . S
C1873 H1877 0.950 . S
H1874 C1870 0.950 . S
C1875 C1873 1.390 . S
C1875 C1876 1.387 . S
C1875 H1878 0.950 . S
C1876 C1875 1.387 . S
C1876 C1879 1.387 . S
H1877 C1873 0.950 . S
H1878 C1875 0.950 . S
C1879 C1870 1.390 . S
C1879 H1872 0.950 . S
C1879 C1876 1.387 . S
C1880 C1881 1.387 . S
C1880 H1884 0.950 . S
C1880 C1889 1.390 . S
C1881 C1880 1.387 . S
C1881 C1883 1.387 . S
H1882 C1889 0.950 . S
C1883 C1881 1.387 . S
C1883 C1885 1.390 . S
C1883 H1887 0.950 . S
H1884 C1880 0.950 . S
C1885 C1883 1.390 . S
C1885 C1886 1.387 . S
C1885 H1888 0.950 . S
C1886 C1885 1.387 . S
C1886 C1889 1.387 . S
H1887 C1883 0.950 . S
H1888 C1885 0.950 . S
C1889 C1880 1.390 . S
C1889 H1882 0.950 . S
C1889 C1886 1.387 . S
C1890 C1891 1.387 . S
C1890 H1894 0.950 . S
C1890 C1899 1.390 . S
C1891 C1890 1.387 . S
C1891 C1893 1.387 . S
H1892 C1899 0.950 . S
C1893 C1891 1.387 . S
C1893 C1895 1.390 . S
C1893 H1897 0.950 . S
H1894 C1890 0.950 . S
C1895 C1893 1.390 . S
C1895 C1896 1.387 . S
C1895 H1898 0.950 . S
C1896 C1895 1.387 . S
C1896 C1899 1.387 . S
H1897 C1893 0.950 . S
H1898 C1895 0.950 . S
C1899 C1890 1.390 . S
C1899 H1892 0.950 . S
C1899 C1896 1.387 . S
C1900 C1901 1.387 . S
C1900 H1904 0.950 . S
C1900 C1909 1.390 . S
C1901 C1900 1.387 . S
C1901 C1903 1.387 . S
H1902 C1909 0.950 . S
C1903 C1901 1.387 . S
C1903 C1905 1.390 . S
C1903 H1907 0.950 . S
H1904 C1900 0.950 . S
C1905 C1903 1.390 . S
C1905 C1906 1.387 . S
C1905 H1908 0.950 . S
C1906 C1905 1.387 . S
C1906 C1909 1.387 . S
H1907 C1903 0.950 . S
H1908 C1905 0.950 . S
C1909 C1900 1.390 . S
C1909 H1902 0.950 . S
C1909 C1906 1.387 . S
C1910 C1911 1.387 . S
C1910 H1914 0.950 . S
C1910 C1919 1.390 . S
C1911 C1910 1.387 . S
C1911 C1913 1.387 . S
H1912 C1919 0.950 . S
C1913 C1911 1.387 . S
C1913 C1915 1.390 . S
C1913 H1917 0.950 . S
H1914 C1910 0.950 . S
C1915 C1913 1.390 . S
C1915 C1916 1.387 . S
C1915 H1918 0.950 . S
C1916 C1915 1.387 . S
C1916 C1919 1.387 . S
H1917 C1913 0.950 . S
H1918 C1915 0.950 . S
C1919 C1910 1.390 . S
C1919 H1912 0.950 . S
C1919 C1916 1.387 . S
C1920 C1921 1.387 . S
C1920 H1924 0.950 . S
C1920 C1929 1.390 1_545 S
C1921 C1920 1.387 . S
C1921 C1923 1.387 . S
H1922 C1929 0.950 . S
C1923 C1921 1.387 . S
C1923 C1925 1.390 1_545 S
C1923 H1927 0.950 . S
H1924 C1920 0.950 . S
C1925 C1923 1.390 1_565 S
C1925 C1926 1.387 . S
C1925 H1928 0.950 . S
C1926 C1925 1.387 . S
C1926 C1929 1.387 . S
H1927 C1923 0.950 . S
H1928 C1925 0.950 . S
C1929 C1920 1.390 1_565 S
C1929 H1922 0.950 . S
C1929 C1926 1.387 . S
C1930 C1931 1.387 . S
C1930 H1934 0.950 . S
C1930 C1939 1.390 . S
C1931 C1930 1.387 . S
C1931 C1933 1.387 . S
H1932 C1939 0.950 . S
C1933 C1931 1.387 . S
C1933 C1935 1.390 . S
C1933 H1937 0.950 . S
H1934 C1930 0.950 . S
C1935 C1933 1.390 . S
C1935 C1936 1.387 . S
C1935 H1938 0.950 . S
C1936 C1935 1.387 . S
C1936 C1939 1.387 . S
H1937 C1933 0.950 . S
H1938 C1935 0.950 . S
C1939 C1930 1.390 . S
C1939 H1932 0.950 . S
C1939 C1936 1.387 . S
C1940 C1941 1.387 . S
C1940 H1944 0.950 . S
C1940 C1949 1.390 1_565 S
C1941 C1940 1.387 . S
C1941 C1943 1.387 . S
H1942 C1949 0.950 . S
C1943 C1941 1.387 . S
C1943 C1945 1.390 1_565 S
C1943 H1947 0.950 . S
H1944 C1940 0.950 . S
C1945 C1943 1.390 1_545 S
C1945 C1946 1.387 . S
C1945 H1948 0.950 . S
C1946 C1945 1.387 . S
C1946 C1949 1.387 . S
H1947 C1943 0.950 . S
H1948 C1945 0.950 . S
C1949 C1940 1.390 1_545 S
C1949 H1942 0.950 . S
C1949 C1946 1.387 . S
C1950 C1951 1.387 . S
C1950 H1954 0.950 . S
C1950 C1959 1.390 1_554 S
C1951 C1950 1.387 . S
C1951 C1953 1.387 . S
H1952 C1959 0.950 . S
C1953 C1951 1.387 . S
C1953 C1955 1.390 1_554 S
C1953 H1957 0.950 . S
H1954 C1950 0.950 . S
C1955 C1953 1.390 1_556 S
C1955 C1956 1.387 . S
C1955 H1958 0.950 . S
C1956 C1955 1.387 . S
C1956 C1959 1.387 . S
H1957 C1953 0.950 . S
H1958 C1955 0.950 . S
C1959 C1950 1.390 1_556 S
C1959 H1952 0.950 . S
C1959 C1956 1.387 . S
C1960 C1961 1.387 . S
C1960 H1964 0.950 . S
C1960 C1969 1.390 1_545 S
C1961 C1960 1.387 . S
C1961 C1963 1.387 . S
H1962 C1969 0.950 . S
C1963 C1961 1.387 . S
C1963 C1965 1.390 1_545 S
C1963 H1967 0.950 . S
H1964 C1960 0.950 . S
C1965 C1963 1.390 1_565 S
C1965 C1966 1.387 . S
C1965 H1968 0.950 . S
C1966 C1965 1.387 . S
C1966 C1969 1.387 . S
H1967 C1963 0.950 . S
H1968 C1965 0.950 . S
C1969 C1960 1.390 1_565 S
C1969 H1962 0.950 . S
C1969 C1966 1.387 . S
C1970 C1971 1.387 . S
C1970 H1974 0.950 . S
C1970 C1979 1.390 . S
C1971 C1970 1.387 . S
C1971 C1973 1.387 . S
H1972 C1979 0.950 . S
C1973 C1971 1.387 . S
C1973 C1975 1.390 . S
C1973 H1977 0.950 . S
H1974 C1970 0.950 . S
C1975 C1973 1.390 . S
C1975 C1976 1.387 . S
C1975 H1978 0.950 . S
C1976 C1975 1.387 . S
C1976 C1979 1.387 . S
H1977 C1973 0.950 . S
H1978 C1975 0.950 . S
C1979 C1970 1.390 . S
C1979 H1972 0.950 . S
C1979 C1976 1.387 . S
C1980 C1981 1.387 . S
C1980 H1984 0.950 . S
C1980 C1989 1.390 1_545 S
C1981 C1980 1.387 . S
C1981 C1983 1.387 . S
H1982 C1989 0.950 . S
C1983 C1981 1.387 . S
C1983 C1985 1.390 1_545 S
C1983 H1987 0.950 . S
H1984 C1980 0.950 . S
C1985 C1983 1.390 1_565 S
C1985 C1986 1.387 . S
C1985 H1988 0.950 . S
C1986 C1985 1.387 . S
C1986 C1989 1.387 . S
H1987 C1983 0.950 . S
H1988 C1985 0.950 . S
C1989 C1980 1.390 1_565 S
C1989 H1982 0.950 . S
C1989 C1986 1.387 . S
C1990 C1991 1.387 . S
C1990 H1994 0.950 . S
C1990 C1999 1.390 1_554 S
C1991 C1990 1.387 . S
C1991 C1993 1.387 . S
H1992 C1999 0.950 . S
C1993 C1991 1.387 . S
C1993 C1995 1.390 1_554 S
C1993 H1997 0.950 . S
H1994 C1990 0.950 . S
C1995 C1993 1.390 1_556 S
C1995 C1996 1.387 . S
C1995 H1998 0.950 . S
C1996 C1995 1.387 . S
C1996 C1999 1.387 . S
H1997 C1993 0.950 . S
H1998 C1995 0.950 . S
C1999 C1990 1.390 1_556 S
C1999 H1992 0.950 . S
C1999 C1996 1.387 . S
C2000 C2001 1.387 . S
C2000 H2004 0.950 . S
C2000 C2009 1.390 . S
C2001 C2000 1.387 . S
C2001 C2003 1.387 . S
H2002 C2009 0.950 . S
C2003 C2001 1.387 . S
C2003 C2005 1.390 . S
C2003 H2007 0.950 . S
H2004 C2000 0.950 . S
C2005 C2003 1.390 . S
C2005 C2006 1.387 . S
C2005 H2008 0.950 . S
C2006 C2005 1.387 . S
C2006 C2009 1.387 . S
H2007 C2003 0.950 . S
H2008 C2005 0.950 . S
C2009 C2000 1.390 . S
C2009 H2002 0.950 . S
C2009 C2006 1.387 . S
C2010 C2011 1.387 . S
C2010 H2014 0.950 . S
C2010 C2019 1.390 1_554 S
C2011 C2010 1.387 . S
C2011 C2013 1.387 . S
H2012 C2019 0.950 . S
C2013 C2011 1.387 . S
C2013 C2015 1.390 1_554 S
C2013 H2017 0.950 . S
H2014 C2010 0.950 . S
C2015 C2013 1.390 1_556 S
C2015 C2016 1.387 . S
C2015 H2018 0.950 . S
C2016 C2015 1.387 . S
C2016 C2019 1.387 . S
H2017 C2013 0.950 . S
H2018 C2015 0.950 . S
C2019 C2010 1.390 1_556 S
C2019 H2012 0.950 . S
C2019 C2016 1.387 . S
C2020 C2021 1.387 . S
C2020 H2024 0.950 . S
C2020 C2029 1.390 . S
C2021 C2020 1.387 . S
C2021 C2023 1.387 . S
H2022 C2029 0.950 . S
C2023 C2021 1.387 . S
C2023 C2025 1.390 . S
C2023 H2027 0.950 . S
H2024 C2020 0.950 . S
C2025 C2023 1.390 . S
C2025 C2026 1.387 . S
C2025 H2028 0.950 . S
C2026 C2025 1.387 . S
C2026 C2029 1.387 . S
H2027 C2023 0.950 . S
H2028 C2025 0.950 . S
C2029 C2020 1.390 . S
C2029 H2022 0.950 . S
C2029 C2026 1.387 . S
C2030 C2031 1.387 . S
C2030 H2034 0.950 . S
C2030 C2039 1.390 . S
C2031 C2030 1.387 . S
C2031 C2033 1.387 . S
H2032 C2039 0.950 . S
C2033 C2031 1.387 . S
C2033 C2035 1.390 . S
C2033 H2037 0.950 . S
H2034 C2030 0.950 . S
C2035 C2033 1.390 . S
C2035 C2036 1.387 . S
C2035 H2038 0.950 . S
C2036 C2035 1.387 . S
C2036 C2039 1.387 . S
H2037 C2033 0.950 . S
H2038 C2035 0.950 . S
C2039 C2030 1.390 . S
C2039 H2032 0.950 . S
C2039 C2036 1.387 . S
C2040 C2041 1.387 . S
C2040 H2044 0.950 . S
C2040 C2049 1.390 . S
C2041 C2040 1.387 . S
C2041 C2043 1.387 . S
H2042 C2049 0.950 . S
C2043 C2041 1.387 . S
C2043 C2045 1.390 . S
C2043 H2047 0.950 . S
H2044 C2040 0.950 . S
C2045 C2043 1.390 . S
C2045 C2046 1.387 . S
C2045 H2048 0.950 . S
C2046 C2045 1.387 . S
C2046 C2049 1.387 . S
H2047 C2043 0.950 . S
H2048 C2045 0.950 . S
C2049 C2040 1.390 . S
C2049 H2042 0.950 . S
C2049 C2046 1.387 . S
C2050 C2051 1.387 . S
C2050 H2054 0.950 . S
C2050 C2059 1.390 1_554 S
C2051 C2050 1.387 . S
C2051 C2053 1.387 . S
H2052 C2059 0.950 . S
C2053 C2051 1.387 . S
C2053 C2055 1.390 1_554 S
C2053 H2057 0.950 . S
H2054 C2050 0.950 . S
C2055 C2053 1.390 1_556 S
C2055 C2056 1.387 . S
C2055 H2058 0.950 . S
C2056 C2055 1.387 . S
C2056 C2059 1.387 . S
H2057 C2053 0.950 . S
H2058 C2055 0.950 . S
C2059 C2050 1.390 1_556 S
C2059 H2052 0.950 . S
C2059 C2056 1.387 . S
C2060 C2061 1.387 . S
C2060 H2064 0.950 . S
C2060 C2069 1.390 . S
C2061 C2060 1.387 . S
C2061 C2063 1.387 . S
H2062 C2069 0.950 . S
C2063 C2061 1.387 . S
C2063 C2065 1.390 . S
C2063 H2067 0.950 . S
H2064 C2060 0.950 . S
C2065 C2063 1.390 . S
C2065 C2066 1.387 . S
C2065 H2068 0.950 . S
C2066 C2065 1.387 . S
C2066 C2069 1.387 . S
H2067 C2063 0.950 . S
H2068 C2065 0.950 . S
C2069 C2060 1.390 . S
C2069 H2062 0.950 . S
C2069 C2066 1.387 . S
C2070 C2071 1.387 . S
C2070 H2074 0.950 . S
C2070 C2079 1.390 . S
C2071 C2070 1.387 . S
C2071 C2073 1.387 . S
H2072 C2079 0.950 . S
C2073 C2071 1.387 . S
C2073 C2075 1.390 . S
C2073 H2077 0.950 . S
H2074 C2070 0.950 . S
C2075 C2073 1.390 . S
C2075 C2076 1.387 . S
C2075 H2078 0.950 . S
C2076 C2075 1.387 . S
C2076 C2079 1.387 . S
H2077 C2073 0.950 . S
H2078 C2075 0.950 . S
C2079 C2070 1.390 . S
C2079 H2072 0.950 . S
C2079 C2076 1.387 . S
C2080 C2081 1.387 . S
C2080 H2084 0.950 . S
C2080 C2089 1.390 . S
C2081 C2080 1.387 . S
C2081 C2083 1.387 . S
H2082 C2089 0.950 . S
C2083 C2081 1.387 . S
C2083 C2085 1.390 . S
C2083 H2087 0.950 . S
H2084 C2080 0.950 . S
C2085 C2083 1.390 . S
C2085 C2086 1.387 . S
C2085 H2088 0.950 . S
C2086 C2085 1.387 . S
C2086 C2089 1.387 . S
H2087 C2083 0.950 . S
H2088 C2085 0.950 . S
C2089 C2080 1.390 . S
C2089 H2082 0.950 . S
C2089 C2086 1.387 . S
C2090 C2091 1.387 . S
C2090 H2094 0.950 . S
C2090 C2099 1.390 . S
C2091 C2090 1.387 . S
C2091 C2093 1.387 . S
H2092 C2099 0.950 . S
C2093 C2091 1.387 . S
C2093 C2095 1.390 . S
C2093 H2097 0.950 . S
H2094 C2090 0.950 . S
C2095 C2093 1.390 . S
C2095 C2096 1.387 . S
C2095 H2098 0.950 . S
C2096 C2095 1.387 . S
C2096 C2099 1.387 . S
H2097 C2093 0.950 . S
H2098 C2095 0.950 . S
C2099 C2090 1.390 . S
C2099 H2092 0.950 . S
C2099 C2096 1.387 . S
C2100 C2101 1.387 . S
C2100 H2104 0.950 . S
C2100 C2109 1.390 . S
C2101 C2100 1.387 . S
C2101 C2103 1.387 . S
H2102 C2109 0.950 . S
C2103 C2101 1.387 . S
C2103 C2105 1.390 . S
C2103 H2107 0.950 . S
H2104 C2100 0.950 . S
C2105 C2103 1.390 . S
C2105 C2106 1.387 . S
C2105 H2108 0.950 . S
C2106 C2105 1.387 . S
C2106 C2109 1.387 . S
H2107 C2103 0.950 . S
H2108 C2105 0.950 . S
C2109 C2100 1.390 . S
C2109 H2102 0.950 . S
C2109 C2106 1.387 . S
C2110 C2111 1.387 . S
C2110 H2114 0.950 . S
C2110 C2119 1.390 . S
C2111 C2110 1.387 . S
C2111 C2113 1.387 . S
H2112 C2119 0.950 . S
C2113 C2111 1.387 . S
C2113 C2115 1.390 . S
C2113 H2117 0.950 . S
H2114 C2110 0.950 . S
C2115 C2113 1.390 . S
C2115 C2116 1.387 . S
C2115 H2118 0.950 . S
C2116 C2115 1.387 . S
C2116 C2119 1.387 . S
H2117 C2113 0.950 . S
H2118 C2115 0.950 . S
C2119 C2110 1.390 . S
C2119 H2112 0.950 . S
C2119 C2116 1.387 . S
C2120 C2121 1.387 . S
C2120 H2124 0.950 . S
C2120 C2129 1.390 . S
C2121 C2120 1.387 . S
C2121 C2123 1.387 . S
H2122 C2129 0.950 . S
C2123 C2121 1.387 . S
C2123 C2125 1.390 . S
C2123 H2127 0.950 . S
H2124 C2120 0.950 . S
C2125 C2123 1.390 . S
C2125 C2126 1.387 . S
C2125 H2128 0.950 . S
C2126 C2125 1.387 . S
C2126 C2129 1.387 . S
H2127 C2123 0.950 . S
H2128 C2125 0.950 . S
C2129 C2120 1.390 . S
C2129 H2122 0.950 . S
C2129 C2126 1.387 . S
C2130 C2131 1.387 . S
C2130 H2134 0.950 . S
C2130 C2139 1.390 . S
C2131 C2130 1.387 . S
C2131 C2133 1.387 . S
H2132 C2139 0.950 . S
C2133 C2131 1.387 . S
C2133 C2135 1.390 . S
C2133 H2137 0.950 . S
H2134 C2130 0.950 . S
C2135 C2133 1.390 . S
C2135 C2136 1.387 . S
C2135 H2138 0.950 . S
C2136 C2135 1.387 . S
C2136 C2139 1.387 . S
H2137 C2133 0.950 . S
H2138 C2135 0.950 . S
C2139 C2130 1.390 . S
C2139 H2132 0.950 . S
C2139 C2136 1.387 . S
C2140 C2141 1.387 . S
C2140 H2144 0.950 . S
C2140 C2149 1.390 . S
C2141 C2140 1.387 . S
C2141 C2143 1.387 . S
H2142 C2149 0.950 . S
C2143 C2141 1.387 . S
C2143 C2145 1.390 . S
C2143 H2147 0.950 . S
H2144 C2140 0.950 . S
C2145 C2143 1.390 . S
C2145 C2146 1.387 . S
C2145 H2148 0.950 . S
C2146 C2145 1.387 . S
C2146 C2149 1.387 . S
H2147 C2143 0.950 . S
H2148 C2145 0.950 . S
C2149 C2140 1.390 . S
C2149 H2142 0.950 . S
C2149 C2146 1.387 . S
C2150 C2151 1.387 . S
C2150 H2154 0.950 . S
C2150 C2159 1.390 . S
C2151 C2150 1.387 . S
C2151 C2153 1.387 . S
H2152 C2159 0.950 . S
C2153 C2151 1.387 . S
C2153 C2155 1.390 . S
C2153 H2157 0.950 . S
H2154 C2150 0.950 . S
C2155 C2153 1.390 . S
C2155 C2156 1.387 . S
C2155 H2158 0.950 . S
C2156 C2155 1.387 . S
C2156 C2159 1.387 . S
H2157 C2153 0.950 . S
H2158 C2155 0.950 . S
C2159 C2150 1.390 . S
C2159 H2152 0.950 . S
C2159 C2156 1.387 . S
C2160 C2161 1.387 . S
C2160 H2164 0.950 . S
C2160 C2169 1.390 . S
C2161 C2160 1.387 . S
C2161 C2163 1.387 . S
H2162 C2169 0.950 . S
C2163 C2161 1.387 . S
C2163 C2165 1.390 . S
C2163 H2167 0.950 . S
H2164 C2160 0.950 . S
C2165 C2163 1.390 . S
C2165 C2166 1.387 . S
C2165 H2168 0.950 . S
C2166 C2165 1.387 . S
C2166 C2169 1.387 . S
H2167 C2163 0.950 . S
H2168 C2165 0.950 . S
C2169 C2160 1.390 . S
C2169 H2162 0.950 . S
C2169 C2166 1.387 . S
C2170 C2171 1.387 . S
C2170 H2174 0.950 . S
C2170 C2179 1.390 . S
C2171 C2170 1.387 . S
C2171 C2173 1.387 . S
H2172 C2179 0.950 . S
C2173 C2171 1.387 . S
C2173 C2175 1.390 . S
C2173 H2177 0.950 . S
H2174 C2170 0.950 . S
C2175 C2173 1.390 . S
C2175 C2176 1.387 . S
C2175 H2178 0.950 . S
C2176 C2175 1.387 . S
C2176 C2179 1.387 . S
H2177 C2173 0.950 . S
H2178 C2175 0.950 . S
C2179 C2170 1.390 . S
C2179 H2172 0.950 . S
C2179 C2176 1.387 . S
C2180 C2181 1.387 . S
C2180 H2184 0.950 . S
C2180 C2189 1.390 . S
C2181 C2180 1.387 . S
C2181 C2183 1.387 . S
H2182 C2189 0.950 . S
C2183 C2181 1.387 . S
C2183 C2185 1.390 . S
C2183 H2187 0.950 . S
H2184 C2180 0.950 . S
C2185 C2183 1.390 . S
C2185 C2186 1.387 . S
C2185 H2188 0.950 . S
C2186 C2185 1.387 . S
C2186 C2189 1.387 . S
H2187 C2183 0.950 . S
H2188 C2185 0.950 . S
C2189 C2180 1.390 . S
C2189 H2182 0.950 . S
C2189 C2186 1.387 . S
C2190 C2191 1.387 . S
C2190 H2194 0.950 . S
C2190 C2199 1.390 . S
C2191 C2190 1.387 . S
C2191 C2193 1.387 . S
H2192 C2199 0.950 . S
C2193 C2191 1.387 . S
C2193 C2195 1.390 . S
C2193 H2197 0.950 . S
H2194 C2190 0.950 . S
C2195 C2193 1.390 . S
C2195 C2196 1.387 . S
C2195 H2198 0.950 . S
C2196 C2195 1.387 . S
C2196 C2199 1.387 . S
H2197 C2193 0.950 . S
H2198 C2195 0.950 . S
C2199 C2190 1.390 . S
C2199 H2192 0.950 . S
C2199 C2196 1.387 . S
C2200 C2201 1.387 . S
C2200 H2204 0.950 . S
C2200 C2209 1.390 . S
C2201 C2200 1.387 . S
C2201 C2203 1.387 . S
H2202 C2209 0.950 . S
C2203 C2201 1.387 . S
C2203 C2205 1.390 . S
C2203 H2207 0.950 . S
H2204 C2200 0.950 . S
C2205 C2203 1.390 . S
C2205 C2206 1.387 . S
C2205 H2208 0.950 . S
C2206 C2205 1.387 . S
C2206 C2209 1.387 . S
H2207 C2203 0.950 . S
H2208 C2205 0.950 . S
C2209 C2200 1.390 . S
C2209 H2202 0.950 . S
C2209 C2206 1.387 . S
C2210 C2211 1.387 . S
C2210 H2214 0.950 . S
C2210 C2219 1.390 . S
C2211 C2210 1.387 . S
C2211 C2213 1.387 . S
H2212 C2219 0.950 . S
C2213 C2211 1.387 . S
C2213 C2215 1.390 . S
C2213 H2217 0.950 . S
H2214 C2210 0.950 . S
C2215 C2213 1.390 . S
C2215 C2216 1.387 . S
C2215 H2218 0.950 . S
C2216 C2215 1.387 . S
C2216 C2219 1.387 . S
H2217 C2213 0.950 . S
H2218 C2215 0.950 . S
C2219 C2210 1.390 . S
C2219 H2212 0.950 . S
C2219 C2216 1.387 . S
C2220 C2221 1.387 . S
C2220 H2224 0.950 . S
C2220 C2229 1.390 . S
C2221 C2220 1.387 . S
C2221 C2223 1.387 . S
H2222 C2229 0.950 . S
C2223 C2221 1.387 . S
C2223 C2225 1.390 . S
C2223 H2227 0.950 . S
H2224 C2220 0.950 . S
C2225 C2223 1.390 . S
C2225 C2226 1.387 . S
C2225 H2228 0.950 . S
C2226 C2225 1.387 . S
C2226 C2229 1.387 . S
H2227 C2223 0.950 . S
H2228 C2225 0.950 . S
C2229 C2220 1.390 . S
C2229 H2222 0.950 . S
C2229 C2226 1.387 . S
C2230 C2231 1.387 . S
C2230 H2234 0.950 . S
C2230 C2239 1.390 . S
C2231 C2230 1.387 . S
C2231 C2233 1.387 . S
H2232 C2239 0.950 . S
C2233 C2231 1.387 . S
C2233 C2235 1.390 . S
C2233 H2237 0.950 . S
H2234 C2230 0.950 . S
C2235 C2233 1.390 . S
C2235 C2236 1.387 . S
C2235 H2238 0.950 . S
C2236 C2235 1.387 . S
C2236 C2239 1.387 . S
H2237 C2233 0.950 . S
H2238 C2235 0.950 . S
C2239 C2230 1.390 . S
C2239 H2232 0.950 . S
C2239 C2236 1.387 . S
C1281 C6 1.086 . S
C1286 C139 1.030 . S
C1291 C19 1.030 . S
C1296 C46 1.086 . S
C1301 C86 1.086 . S
C1306 C59 1.030 . S
C1311 C99 1.032 . S
C1316 C126 1.086 . S
C1321 C219 1.035 . S
C1326 C166 1.086 . S
C1331 C206 1.085 . S
C1336 C259 1.033 . S
C1341 C299 1.030 . S
C1346 C246 1.086 . S
C1351 C179 1.034 . S
C1356 C286 1.085 . S
C1361 C335 1.086 . S
C1366 C450 1.035 . S
C1371 C375 1.086 . S
C1376 C330 1.033 . S
C1381 C415 1.086 . S
C1386 C370 1.035 . S
C1391 C455 1.086 . S
C1396 C410 1.035 . S
C1401 C495 1.086 . S
C1406 C530 1.030 . S
C1411 C535 1.086 . S
C1416 C570 1.031 . S
C1421 C610 1.035 . S
C1426 C575 1.086 . S
C1431 C490 1.030 . S
C1436 C615 1.086 . S
C1441 C646 1.086 . S
C1446 C779 1.035 . S
C1451 C659 1.034 . S
C1456 C686 1.086 . S
C1461 C699 1.035 . S
C1466 C726 1.086 . S
C1471 C766 1.086 . S
C1476 C739 1.030 . S
C1481 C806 1.086 . S
C1486 C859 1.030 . S
C1491 C899 1.034 . S
C1496 C846 1.086 . S
C1501 C886 1.086 . S
C1506 C939 1.035 . S
C1511 C819 1.035 . S
C1516 C926 1.086 . S
C1521 C1090 1.031 . S
C1526 C975 1.085 . S
C1531 C970 1.032 . S
C1536 C1015 1.086 . S
C1541 C1055 1.086 . S
C1546 C1010 1.030 . S
C1551 C1050 1.032 . S
C1556 C1095 1.085 . S
C1561 C1170 1.035 . S
C1566 C1135 1.086 . S
C1571 C1210 1.033 . S
C1576 C1175 1.086 . S
C1581 C1250 1.030 . S
C1586 C1215 1.086 . S
C1591 C1255 1.085 . S
C1596 C1130 1.031 . S
C1601 C1086 1.646 . S
C1606 C9 1.561 . S
C1611 C49 1.557 . S
C1616 C326 1.645 . S
C1621 C89 1.558 . S
C1626 C1006 1.644 . S
C1631 C129 1.561 . S
C1636 C406 1.646 . S
C1641 C169 1.561 . S
C1646 C1166 1.646 . S
C1651 C566 1.646 . S
C1656 C209 1.558 . S
C1661 C1246 1.645 . S
C1666 C249 1.557 . S
C1671 C289 1.557 . S
C1676 C486 1.645 . S
C1681 C338 1.561 . S
C1686 C775 1.646 . S
C1691 C15 1.644 . S
C1696 C378 1.557 . S
C1701 C695 1.645 . S
C1706 C418 1.557 . S
C1711 C95 1.646 . S
C1716 C458 1.560 . S
C1721 C855 1.644 . S
C1726 C498 1.558 . S
C1731 C255 1.645 . S
C1736 C538 1.557 . S
C1741 C578 1.561 . S
C1746 C935 1.646 . S
C1751 C618 1.558 . S
C1756 C175 1.646 . S
C1761 C649 1.558 . S
C1766 C446 1.644 . S
C1771 C689 1.559 . S
C1776 C966 1.646 . S
C1781 C729 1.559 . S
C1786 C366 1.646 . S
C1791 C769 1.561 . S
C1796 C1046 1.646 . S
C1801 C809 1.557 . S
C1806 C526 1.644 . S
C1811 C849 1.560 . S
C1816 C1206 1.646 . S
C1821 C606 1.644 . S
C1826 C889 1.558 . S
C1831 C929 1.561 . S
C1836 C1126 1.647 . S
C1841 C135 1.646 . S
C1846 C978 1.561 . S
C1851 C655 1.646 . S
C1856 C1018 1.560 . S
C1861 C55 1.646 . S
C1866 C1058 1.561 . S
C1871 C735 1.646 . S
C1876 C1098 1.558 . S
C1881 C215 1.645 . S
C1886 C1138 1.559 . S
C1891 C1178 1.557 . S
C1896 C895 1.645 . S
C1901 C1218 1.557 . S
C1906 C295 1.645 . S
C1911 C815 1.645 . S
C1916 C1258 1.560 . S
C1921 C18 1.366 . S
C1926 C178 1.366 . S
C1931 C58 1.363 . S
C1936 C218 1.363 . S
C1941 C98 1.363 . S
C1946 C258 1.363 . S
C1951 C298 1.363 . S
C1956 C138 1.363 . S
C1961 C489 1.363 . S
C1966 C329 1.363 . S
C1971 C529 1.363 . S
C1976 C369 1.363 . S
C1981 C409 1.363 . S
C1986 C569 1.363 . S
C1991 C449 1.366 . S
C1996 C609 1.366 . S
C2001 C658 1.366 . S
C2006 C818 1.366 . S
C2011 C858 1.366 . S
C2016 C698 1.366 . S
C2021 C898 1.366 . S
C2026 C738 1.366 . S
C2031 C938 1.363 . S
C2036 C778 1.363 . S
C2041 C1129 1.363 . S
C2046 C969 1.363 . S
C2051 C1009 1.363 . S
C2056 C1169 1.363 . S
C2061 C1209 1.366 . S
C2066 C1049 1.366 . S
C2071 C1089 1.366 . S
C2076 C1249 1.366 . S
C2081 C290 2.662 . S
C2086 C10 2.662 . S
C2091 C50 2.662 . S
C2096 C170 2.662 . S
C2101 C90 2.663 . S
C2106 C210 2.663 . S
C2111 C250 2.663 . S
C2116 C130 2.662 . S
C2121 C339 2.663 . S
C2126 C619 2.663 . S
C2131 C499 2.663 . S
C2136 C379 2.663 . S
C2141 C539 2.662 . S
C2146 C419 2.663 . S
C2151 C459 2.663 . S
C2156 C579 2.663 . S
C2161 C650 2.663 . S
C2166 C930 2.663 . S
C2171 C810 2.662 . S
C2176 C690 2.662 . S
C2181 C850 2.663 . S
C2186 C730 2.663 . S
C2191 C890 2.663 . S
C2196 C770 2.662 . S
C2201 C979 2.662 . S
C2206 C1259 2.662 . S
C2211 C1139 2.662 . S
C2216 C1019 2.662 . S
C2221 C1059 2.663 . S
C2226 C1179 2.663 . S
C2231 C1219 2.663 . S
C2236 C1099 2.663 . S
