# Generated by pormake.
# Topology sml, (6)-cn, num edge types: 1
# Building blocks:
#     Node 0, Type 0, BuildingBlock: KUMBOL_clean_sbu_0, # of connection points: 6
#     Node 1, Type 0, BuildingBlock: KUMBOL_clean_sbu_0, # of connection points: 6
#     Node 2, Type 0, BuildingBlock: KUMBOL_clean_sbu_0, # of connection points: 6
#     Node 3, Type 0, BuildingBlock: KUMBOL_clean_sbu_0, # of connection points: 6
#     Node 4, Type 0, BuildingBlock: KUMBOL_clean_sbu_0, # of connection points: 6
#     Node 5, Type 0, BuildingBlock: KUMBOL_clean_sbu_0, # of connection points: 6
#     Edge 6, Type (0, 0), BuildingBlock: XUDNAN_clean_linker_2, # of connection points: 2
#     Edge 7, Type (0, 0), BuildingBlock: XUDNAN_clean_linker_2, # of connection points: 2
#     Edge 8, Type (0, 0), BuildingBlock: XUDNAN_clean_linker_2, # of connection points: 2
#     Edge 9, Type (0, 0), BuildingBlock: XUDNAN_clean_linker_2, # of connection points: 2
#     Edge 10, Type (0, 0), BuildingBlock: XUDNAN_clean_linker_2, # of connection points: 2
#     Edge 11, Type (0, 0), BuildingBlock: XUDNAN_clean_linker_2, # of connection points: 2
#     Edge 12, Type (0, 0), BuildingBlock: XUDNAN_clean_linker_2, # of connection points: 2
#     Edge 13, Type (0, 0), BuildingBlock: XUDNAN_clean_linker_2, # of connection points: 2
#     Edge 14, Type (0, 0), BuildingBlock: XUDNAN_clean_linker_2, # of connection points: 2
#     Edge 15, Type (0, 0), BuildingBlock: XUDNAN_clean_linker_2, # of connection points: 2
#     Edge 16, Type (0, 0), BuildingBlock: XUDNAN_clean_linker_2, # of connection points: 2
#     Edge 17, Type (0, 0), BuildingBlock: XUDNAN_clean_linker_2, # of connection points: 2
#     Edge 18, Type (0, 0), BuildingBlock: XUDNAN_clean_linker_2, # of connection points: 2
#     Edge 19, Type (0, 0), BuildingBlock: XUDNAN_clean_linker_2, # of connection points: 2
#     Edge 20, Type (0, 0), BuildingBlock: XUDNAN_clean_linker_2, # of connection points: 2
#     Edge 21, Type (0, 0), BuildingBlock: XUDNAN_clean_linker_2, # of connection points: 2
#     Edge 22, Type (0, 0), BuildingBlock: XUDNAN_clean_linker_2, # of connection points: 2
#     Edge 23, Type (0, 0), BuildingBlock: XUDNAN_clean_linker_2, # of connection points: 2
# Relax obj value: 0.028
# Max RMSD: 0.150
# Mean RMSD: 0.150
data_MOF--net-sml--node1-KUMBOL_clean_sbu_0--edge1-XUDNAN_clean_linker_2
_symmetry_space_group_name_H-M    P1
_symmetry_Int_Tables_number       1
_symmetry_cell_setting            triclinic
loop_
_symmetry_equiv_pos_as_xyz
'x, y, z'
_cell_length_a     33.040527
_cell_length_b     33.062324
_cell_length_c     23.790997
_cell_angle_alpha  89.730269
_cell_angle_beta   89.769338
_cell_angle_gamma 120.08505
loop_
_atom_site_label
_atom_site_type_symbol
_atom_site_fract_x
_atom_site_fract_y
_atom_site_fract_z
_atom_type_partial_charge
Gd0 Gd 0.25354 0.42842 0.09278 0.0
Gd1 Gd 0.17372 0.42737 0.98309 0.0
C2 C 0.08349 0.49285 1.01831 0.0
C3 C 0.00575 0.42437 0.02615 0.0
C4 C 0.07261 0.41575 1.00243 0.0
C5 C 0.1019 0.46357 1.00591 0.0
C6 C 0.02407 0.39563 1.01126 0.0
C7 C 0.03548 0.47285 0.03005 0.0
C8 C 0.11382 0.5413 1.01773 0.0
C9 C 0.1608 0.55932 1.00308 0.0
N10 N 0.1482 0.48154 0.99539 0.0
C11 C 0.17739 0.52873 0.99129 0.0
H12 H 0.21393 0.54297 0.98102 0.0
C13 C 0.06393 0.34206 0.98063 0.0
N14 N 0.0917 0.38893 0.98951 0.0
C15 C 0.01548 0.32049 0.98854 0.0
C16 C 0.9955 0.34729 1.00458 0.0
H17 H 0.07943 0.32118 0.96925 0.0
H18 H 0.02088 0.49457 0.04149 0.0
H19 H 0.20546 0.31134 0.08655 0.0
H20 H 0.10117 0.56506 0.02731 0.0
H21 H 0.18438 0.59673 1.00156 0.0
H22 H 0.96864 0.40954 0.03414 0.0
H23 H 0.35169 0.52887 0.11757 0.0
H24 H 0.31358 0.28011 0.0501 0.0
H25 H 0.23007 0.25382 0.06726 0.0
H26 H 0.45337 0.42984 0.05897 0.0
H27 H 0.99363 0.28319 0.9827 0.0
H28 H 0.95801 0.33046 1.01105 0.0
H29 H 0.39691 0.34619 0.04644 0.0
H30 H 0.43723 0.56118 0.1121 0.0
N31 N 0.27419 0.37029 0.0794 0.0
C32 C 0.30298 0.30564 0.05868 0.0
C33 C 0.25586 0.29067 0.06855 0.0
C34 C 0.33603 0.35328 0.0617 0.0
C35 C 0.32031 0.38505 0.07276 0.0
C36 C 0.24206 0.32357 0.07958 0.0
N37 N 0.33525 0.46067 0.09256 0.0
C38 C 0.35193 0.43186 0.07965 0.0
C39 C 0.41362 0.52476 0.10259 0.0
C40 C 0.43133 0.49591 0.08692 0.0
C41 C 0.36519 0.50634 0.10582 0.0
C42 C 0.4004 0.44866 0.0759 0.0
H43 H 0.46882 0.51017 0.08465 0.0
O44 O 0.26547 0.46197 0.17412 0.0
O45 O 0.20462 0.45252 0.06714 0.0
O46 O 0.24743 0.49023 0.97164 0.0
O47 O 0.29912 0.47423 1.0214 0.0
O48 O 0.26519 0.50084 0.10631 0.0
O49 O 0.23227 0.38657 0.1695 0.0
O50 O 0.15469 0.39432 0.90154 0.0
O51 O 0.22409 0.40587 1.00832 0.0
O52 O 0.17882 0.36619 0.10046 0.0
O53 O 0.13093 0.39099 0.06023 0.0
O54 O 0.16958 0.35786 0.9624 0.0
O55 O 0.19329 0.47017 0.90738 0.0
C56 C 0.22625 0.49383 0.08538 0.0
C57 C 0.41632 0.4176 0.06262 0.0
C58 C 0.38416 0.36996 0.05546 0.0
C59 C 0.24669 0.42276 0.20203 0.0
C60 C 0.26855 0.4226 0.25552 0.0
C61 C 0.30681 0.4154 0.25825 0.0
C62 C 0.25056 0.43071 0.30498 0.0
C63 C 0.27064 0.43222 0.35756 0.0
C64 C 0.32671 0.4162 0.31034 0.0
C65 C 0.30886 0.42456 0.35971 0.0
C66 C 0.28997 0.49683 0.98155 0.0
C67 C 0.20863 0.36687 0.98494 0.0
C68 C 0.17328 0.43405 0.87425 0.0
C69 C 0.14623 0.43688 0.82722 0.0
C70 C 0.10297 0.43412 0.83612 0.0
C71 C 0.16396 0.44172 0.77233 0.0
C72 C 0.13874 0.44393 0.72602 0.0
C73 C 0.07761 0.43612 0.79041 0.0
C74 C 0.09528 0.44101 0.73572 0.0
C75 C 0.13807 0.3648 0.09635 0.0
H76 H 0.3212 0.40932 0.22034 0.0
H77 H 0.22053 0.43559 0.30231 0.0
H78 H 0.35631 0.41069 0.31245 0.0
H79 H 0.3255 0.42585 0.3993 0.0
H80 H 0.08883 0.43027 0.8782 0.0
H81 H 0.1977 0.44434 0.76583 0.0
H82 H 0.04408 0.43375 0.79734 0.0
H83 H 0.07467 0.44198 0.70099 0.0
Gd84 Gd 0.84493 0.25368 0.42713 0.0
Gd85 Gd 0.76036 0.17808 0.32018 0.0
C86 C 0.60233 0.10913 0.34623 0.0
C87 C 0.57858 0.02663 0.3494 0.0
C88 C 0.66014 0.08537 0.33359 0.0
C89 C 0.64908 0.12035 0.3374 0.0
C90 C 0.62496 0.03803 0.33859 0.0
C91 C 0.56728 0.06214 0.35323 0.0
C92 C 0.59214 0.14541 0.34666 0.0
C93 C 0.6279 0.19126 0.33663 0.0
N94 N 0.68383 0.16529 0.33039 0.0
C95 C 0.67367 0.20053 0.32772 0.0
H96 H 0.70089 0.23617 0.32031 0.0
C97 C 0.71738 0.06428 0.3145 0.0
N98 N 0.70527 0.09767 0.32333 0.0
C99 C 0.68377 0.01682 0.31916 0.0
C100 C 0.6374 0.00362 0.3317 0.0
H101 H 0.75326 0.07431 0.30532 0.0
H102 H 0.53125 0.05287 0.36061 0.0
H103 H 0.90264 0.19415 0.43102 0.0
H104 H 0.55671 0.13831 0.3535 0.0
H105 H 0.62028 0.21951 0.33597 0.0
H106 H 0.55111 0.99048 0.35395 0.0
H107 H 0.85417 0.35854 0.43932 0.0
H108 H 0.0478 0.28965 0.40023 0.0
H109 H 0.98313 0.2093 0.41927 0.0
H110 H 0.05626 0.43862 0.39386 0.0
H111 H 0.69366 0.99048 0.31323 0.0
H112 H 0.61143 0.96685 0.33526 0.0
H113 H 0.0748 0.37524 0.39071 0.0
H114 H 0.91492 0.44188 0.4309 0.0
N115 N 0.9209 0.26496 0.41715 0.0
C116 C 0.01242 0.28319 0.40519 0.0
C117 C 0.97605 0.23784 0.41613 0.0
C118 C 1.00293 0.3199 0.4028 0.0
C119 C 0.95622 0.30953 0.40931 0.0
C120 C 0.93035 0.2294 0.42277 0.0
N121 N 0.901 0.33373 0.42128 0.0
C122 C 0.94594 0.34511 0.41149 0.0
C123 C 0.92411 0.41501 0.42515 0.0
C124 C 0.97027 0.42727 0.41285 0.0
C125 C 0.88982 0.36781 0.43 0.0
C126 C 0.98185 0.39218 0.40678 0.0
H127 H 0.99682 0.46386 0.40945 0.0
O128 O 0.83361 0.27751 0.50755 0.0
O129 O 0.77021 0.21064 0.40413 0.0
O130 O 0.78151 0.25483 0.31009 0.0
O131 O 0.85526 0.2987 0.34996 0.0
O132 O 0.78964 0.27375 0.44121 0.0
O133 O 0.85892 0.22843 0.50484 0.0
O134 O 0.77317 0.15691 0.23875 0.0
O135 O 0.83439 0.22065 0.34438 0.0
O136 O 0.82184 0.17595 0.43938 0.0
O137 O 0.7492 0.13257 0.39614 0.0
O138 O 0.81719 0.15964 0.30433 0.0
O139 O 0.74725 0.20559 0.24375 0.0
C140 C 0.75456 0.23592 0.42255 0.0
C141 C 0.0282 0.40269 0.39796 0.0
C142 C 0.03875 0.36661 0.39615 0.0
C143 C 0.84803 0.25369 0.53655 0.0
C144 C 0.87946 0.27799 0.5836 0.0
C145 C 0.92699 0.31 0.57431 0.0
C146 C 0.86135 0.26904 0.63869 0.0
C147 C 0.89045 0.29209 0.6847 0.0
C148 C 0.95615 0.33286 0.61967 0.0
C149 C 0.93813 0.32408 0.67447 0.0
C150 C 0.82283 0.2937 0.3134 0.0
C151 C 0.85144 0.19704 0.32507 0.0
C152 C 0.76124 0.1834 0.21106 0.0
C153 C 0.73701 0.16612 0.15744 0.0
C154 C 0.69178 0.12745 0.15459 0.0
C155 C 0.76038 0.18958 0.10793 0.0
C156 C 0.73891 0.17509 0.05511 0.0
C157 C 0.67019 0.11246 0.10235 0.0
C158 C 0.69347 0.13602 0.05292 0.0
C159 C 0.78099 0.1367 0.43291 0.0
H160 H 0.94147 0.31725 0.53215 0.0
H161 H 0.82442 0.24469 0.64553 0.0
H162 H 0.99288 0.35747 0.61237 0.0
H163 H 0.96164 0.34203 0.70888 0.0
H164 H 0.67334 0.10906 0.19252 0.0
H165 H 0.79569 0.21902 0.11075 0.0
H166 H 0.63517 0.08261 0.10014 0.0
H167 H 0.67557 0.1241 1.0132 0.0
Gd168 Gd 0.57879 0.81683 0.72742 0.0
Gd169 Gd 0.58603 0.74202 0.61896 0.0
C170 C 0.51135 0.58282 0.61981 0.0
C171 C 0.57638 0.56808 0.62334 0.0
C172 C 0.59076 0.64778 0.62489 0.0
C173 C 0.54317 0.63127 0.6224 0.0
C174 C 0.60792 0.61638 0.62563 0.0
C175 C 0.52826 0.55143 0.6198 0.0
C176 C 0.46354 0.56738 0.6159 0.0
C177 C 0.44863 0.60007 0.61329 0.0
N178 N 0.52808 0.66261 0.62044 0.0
C179 C 0.48161 0.6478 0.61467 0.0
H180 H 0.46963 0.67264 0.61122 0.0
C181 C 0.66773 0.71262 0.6249 0.0
N182 N 0.62038 0.69469 0.62512 0.0
C183 C 0.68635 0.68285 0.62671 0.0
C184 C 0.65632 0.6345 0.6272 0.0
H185 H 0.69126 0.74991 0.62411 0.0
H186 H 0.50446 0.51428 0.61588 0.0
H187 H 0.69492 0.86629 0.75055 0.0
H188 H 0.43798 0.53042 0.6141 0.0
H189 H 0.41179 0.58855 0.60952 0.0
H190 H 0.58887 0.54339 0.62321 0.0
H191 H 0.48808 0.83434 0.72388 0.0
H192 H 0.75701 0.0145 0.73823 0.0
H193 H 0.76427 0.94446 0.75416 0.0
H194 H 0.62564 0.03653 0.71204 0.0
H195 H 0.72385 0.6972 0.62729 0.0
H196 H 0.67084 0.61152 0.62803 0.0
H197 H 0.70503 0.04857 0.72232 0.0
H198 H 0.47265 0.89999 0.71545 0.0
N199 N 0.64779 0.89078 0.73151 0.0
C200 C 0.72617 0.98005 0.73651 0.0
C201 C 0.73037 0.94063 0.74572 0.0
C202 C 0.682 0.9746 0.72693 0.0
C203 C 0.64299 0.92894 0.72494 0.0
C204 C 0.69061 0.8961 0.74369 0.0
N205 N 0.56203 0.87799 0.72064 0.0
C206 C 0.5986 0.92229 0.7192 0.0
C207 C 0.50828 0.9068 0.71626 0.0
C208 C 0.54568 0.9526 0.71273 0.0
C209 C 0.51713 0.86976 0.72112 0.0
C210 C 0.59154 0.9609 0.71519 0.0
H211 H 0.53877 0.98129 0.70943 0.0
O212 O 0.5339 0.8072 0.79932 0.0
O213 O 0.55077 0.74386 0.69882 0.0
O214 O 0.52741 0.75603 0.6018 0.0
O215 O 0.54469 0.82503 0.64738 0.0
O216 O 0.50266 0.7616 0.72664 0.0
O217 O 0.60213 0.81424 0.81174 0.0
O218 O 0.62592 0.75933 0.54089 0.0
O219 O 0.60986 0.81423 0.64681 0.0
O220 O 0.62946 0.79016 0.75217 0.0
O221 O 0.60818 0.72364 0.69858 0.0
O222 O 0.66055 0.80355 0.61316 0.0
O223 O 0.55041 0.7269 0.53897 0.0
C224 C 0.50764 0.72721 0.71019 0.0
C225 C 0.63029 0.00642 0.71539 0.0
C226 C 0.67548 0.01326 0.72118 0.0
C227 C 0.56401 0.80848 0.83551 0.0
C228 C 0.56941 0.83333 0.88836 0.0
C229 C 0.58153 0.88043 0.8893 0.0
C230 C 0.56247 0.8088 0.93905 0.0
C231 C 0.56682 0.83059 0.99117 0.0
C232 C 0.58633 0.90259 0.94079 0.0
C233 C 0.57899 0.87795 0.99142 0.0
C234 C 0.52304 0.79341 0.60737 0.0
C235 C 0.65233 0.83481 0.63324 0.0
C236 C 0.58874 0.74248 0.5095 0.0
C237 C 0.58671 0.71398 0.46124 0.0
C238 C 0.59153 0.67448 0.46818 0.0
C239 C 0.57852 0.72598 0.40743 0.0
C240 C 0.57449 0.69835 0.36064 0.0
C241 C 0.58786 0.64706 0.42189 0.0
C242 C 0.5792 0.6587 0.36847 0.0
C243 C 0.62881 0.75009 0.74251 0.0
H244 H 0.58725 0.89988 0.85047 0.0
H245 H 0.55415 0.77266 0.93765 0.0
H246 H 0.59557 0.93896 0.94151 0.0
H247 H 0.5822 0.89582 0.0306 0.0
H248 H 0.59798 0.66481 0.5092 0.0
H249 H 0.57431 0.75627 0.40222 0.0
H250 H 0.59162 0.61659 0.42744 0.0
H251 H 0.5766 0.63697 0.33318 0.0
Gd252 Gd 0.75458 0.57177 0.08796 0.0
Gd253 Gd 0.84174 0.59024 0.9776 0.0
C254 C 0.95455 0.54991 0.99058 0.0
C255 C 0.02547 0.62581 0.99632 0.0
C256 C 0.9497 0.62063 0.9883 0.0
C257 C 0.92784 0.57233 0.988 0.0
C258 C 0.99872 0.64792 0.99267 0.0
C259 C 1.00346 0.57694 0.99492 0.0
C260 C 0.93133 0.50107 0.9876 0.0
C261 C 0.88283 0.47598 0.98111 0.0
N262 N 0.88058 0.54733 0.98325 0.0
C263 C 0.85795 0.49987 0.9782 0.0
H264 H 0.82054 0.48023 0.97254 0.0
C265 C 0.94297 0.68851 0.98246 0.0
N266 N 0.92288 0.64095 0.98426 0.0
C267 C 0.9914 0.71702 0.98765 0.0
C268 C 0.01936 0.69664 0.99314 0.0
H269 H 0.92156 0.70452 0.9786 0.0
H270 H 0.02466 0.5605 0.99651 0.0
H271 H 0.79689 0.68823 0.09631 0.0
H272 H 0.9505 0.48246 0.98928 0.0
H273 H 0.86462 0.43825 0.97805 0.0
H274 H 0.06323 0.6462 0.99961 0.0
H275 H 0.65844 0.46712 0.09929 0.0
H276 H 0.68608 0.7155 0.0613 0.0
H277 H 0.76915 0.74398 0.08323 0.0
H278 H 0.55151 0.5622 0.04803 0.0
H279 H 0.00712 0.75467 0.9876 0.0
H280 H 0.05676 0.71875 0.99795 0.0
H281 H 0.605 0.64738 0.04721 0.0
H282 H 0.57295 0.43138 0.08698 0.0
N283 N 0.7304 0.62797 0.0813 0.0
C284 C 0.69804 0.69068 0.06721 0.0
C285 C 0.74489 0.70684 0.07976 0.0
C286 C 0.66693 0.64258 0.06393 0.0
C287 C 0.68437 0.6118 0.07192 0.0
C288 C 0.76048 0.67487 0.08725 0.0
N289 N 0.67258 0.53626 0.08269 0.0
C290 C 0.65444 0.56424 0.07245 0.0
C291 C 0.59548 0.46883 0.08265 0.0
C292 C 0.57652 0.4971 0.06941 0.0
C293 C 0.6438 0.48917 0.08986 0.0
C294 C 0.60598 0.54555 0.065 0.0
H295 H 0.53913 0.48135 0.06382 0.0
O296 O 0.73076 0.53263 0.16653 0.0
O297 O 0.80901 0.55554 0.05951 0.0
O298 O 0.77483 0.52183 0.96462 0.0
O299 O 0.7154 0.5262 1.01335 0.0
O300 O 0.74995 0.50184 0.09707 0.0
O301 O 0.78075 0.60685 0.16767 0.0
O302 O 0.85611 0.62627 0.89716 0.0
O303 O 0.78423 0.60132 1.00492 0.0
O304 O 0.82691 0.63647 0.10173 0.0
O305 O 0.88005 0.62042 0.05751 0.0
O306 O 0.83648 0.65593 0.96244 0.0
O307 O 0.82912 0.55133 0.90012 0.0
C308 C 0.79018 0.51327 0.07552 0.0
C309 C 0.58853 0.57584 0.05459 0.0
C310 C 0.61899 0.62433 0.05409 0.0
C311 C 0.75637 0.56901 0.19743 0.0
C312 C 0.73631 0.57377 0.25053 0.0
C313 C 0.69152 0.56841 0.25342 0.0
C314 C 0.76311 0.5837 0.29955 0.0
C315 C 0.74553 0.58811 0.35177 0.0
C316 C 0.67364 0.57256 0.30513 0.0
C317 C 0.7003 0.58218 0.35405 0.0
C318 C 0.73019 0.50832 0.97368 0.0
C319 C 0.79583 0.64092 0.98485 0.0
C320 C 0.84406 0.58848 0.86829 0.0
C321 C 0.87457 0.59317 0.82055 0.0
C322 C 0.91682 0.59373 0.82871 0.0
C323 C 0.86138 0.59804 0.76593 0.0
C324 C 0.89019 0.60354 0.71927 0.0
C325 C 0.94557 0.59904 0.78278 0.0
C326 C 0.93246 0.60388 0.72846 0.0
C327 C 0.8693 0.64152 0.09678 0.0
H328 H 0.6705 0.56096 0.21592 0.0
H329 H 0.79757 0.58736 0.29701 0.0
H330 H 0.63903 0.56841 0.30731 0.0
H331 H 0.68584 0.5857 0.39343 0.0
H332 H 0.92758 0.59016 0.87042 0.0
H333 H 0.82904 0.5984 0.76004 0.0
H334 H 0.97816 0.5994 0.78926 0.0
H335 H 0.95525 0.6074 0.69364 0.0
Gd336 Gd 0.17507 0.76814 0.42524 0.0
Gd337 Gd 0.24566 0.8259 0.29738 0.0
C338 C 0.40566 0.91433 0.30137 0.0
C339 C 0.41901 0.99347 0.29512 0.0
C340 C 0.33993 0.92683 0.29168 0.0
C341 C 0.35703 0.8968 0.2981 0.0
C342 C 0.37071 0.97556 0.28907 0.0
C343 C 0.43648 0.96285 0.30119 0.0
C344 C 0.42187 0.88255 0.30269 0.0
C345 C 0.38996 0.83485 0.29803 0.0
N346 N 0.32621 0.85026 0.29739 0.0
C347 C 0.34211 0.81935 0.29442 0.0
H348 H 0.31798 0.78244 0.29011 0.0
C349 C 0.27509 0.93635 0.27292 0.0
N350 N 0.29307 0.9081 0.28587 0.0
C351 C 0.30416 0.98494 0.27014 0.0
C352 C 0.3521 0.00469 0.27914 0.0
H353 H 0.23817 0.92183 0.26604 0.0
H354 H 0.47388 0.97697 0.30406 0.0
H355 H 0.20901 0.83688 0.538 0.0
H356 H 0.45892 0.89454 0.30532 0.0
H357 H 0.40214 0.80997 0.29721 0.0
H358 H 0.44321 0.03081 0.29371 0.0
H359 H 0.0807 0.68301 0.36068 0.0
H360 H 0.09881 0.86196 0.58772 0.0
H361 H 0.17864 0.87478 0.60129 0.0
H362 H 0.97209 0.75896 0.46895 0.0
H363 H 0.28955 0.00713 0.26117 0.0
H364 H 0.37454 0.0423 0.27711 0.0
H365 H 0.02177 0.8189 0.53742 0.0
H366 H 0.99713 0.65656 0.35033 0.0
N367 N 0.1479 0.8049 0.48751 0.0
C368 C 0.1121 0.84552 0.55966 0.0
C369 C 0.15713 0.85278 0.56754 0.0
C370 C 0.08398 0.81532 0.51736 0.0
C371 C 0.10304 0.79489 0.48198 0.0
C372 C 0.17417 0.83122 0.53171 0.0
N373 N 0.09429 0.73991 0.41421 0.0
C374 C 0.07526 0.76124 0.44389 0.0
C375 C 0.0188 0.68634 0.3764 0.0
C376 C 0.99936 0.7097 0.40416 0.0
C377 C 0.06642 0.70162 0.38242 0.0
C378 C 0.02737 0.747 0.43949 0.0
H379 H 0.96254 0.69785 0.39923 0.0
O380 O 0.13877 0.69595 0.45483 0.0
O381 O 0.24282 0.79172 0.37986 0.0
O382 O 0.23552 0.75427 0.31345 0.0
O383 O 0.16351 0.7144 0.35659 0.0
O384 O 0.24648 0.80723 0.4643 0.0
O385 O 0.19566 0.74828 0.50301 0.0
O386 O 0.2143 0.82353 0.2157 0.0
O387 O 0.17426 0.78439 0.33531 0.0
O388 O 0.19607 0.84539 0.42275 0.0
O389 O 0.26268 0.87933 0.36482 0.0
O390 O 0.1866 0.84102 0.28719 0.0
O391 O 0.26036 0.79594 0.22422 0.0
C392 C 0.27076 0.81029 0.42045 0.0
C393 C 0.0087 0.76914 0.4721 0.0
C394 C 0.03698 0.80327 0.51106 0.0
C395 C 0.16122 0.70552 0.50218 0.0
C396 C 0.13287 0.68622 0.55458 0.0
C397 C 0.09088 0.64322 0.55197 0.0
C398 C 0.14744 0.70888 0.60732 0.0
C399 C 0.11962 0.68895 0.65621 0.0
C400 C 0.06364 0.62337 0.59999 0.0
C401 C 0.07775 0.64586 0.65154 0.0
C402 C 0.19491 0.71563 0.32054 0.0
C403 C 0.15543 0.80664 0.31643 0.0
C404 C 0.23498 0.80432 0.18993 0.0
C405 C 0.2553 0.82321 0.13383 0.0
C406 C 0.30048 0.86192 0.12865 0.0
C407 C 0.22959 0.80174 0.08482 0.0
C408 C 0.24895 0.81867 0.03072 0.0
C409 C 0.31991 0.8788 0.0755 0.0
C410 C 0.29453 0.85744 0.02697 0.0
C411 C 0.23683 0.88131 0.40624 0.0
H412 H 0.07907 0.62466 0.5126 0.0
H413 H 0.17976 0.742 0.61026 0.0
H414 H 0.03141 0.59017 0.5973 0.0
H415 H 0.05594 0.62908 0.68811 0.0
H416 H 0.32075 0.87896 0.16571 0.0
H417 H 0.19477 0.77159 0.08894 0.0
H418 H 0.3548 0.90879 0.07184 0.0
H419 H 0.31034 0.87198 0.98646 0.0
Gd420 Gd 0.41304 0.1726 0.75624 0.0
Gd421 Gd 0.43171 0.25468 0.63817 0.0
C422 C 0.48792 0.40837 0.67958 0.0
C423 C 0.4187 0.41576 0.66955 0.0
C424 C 0.41571 0.34275 0.6467 0.0
C425 C 0.46188 0.36155 0.66196 0.0
C426 C 0.39381 0.36993 0.64888 0.0
C427 C 0.46555 0.43474 0.68552 0.0
C428 C 0.53578 0.42743 0.68947 0.0
C429 C 0.5567 0.40044 0.67927 0.0
N430 N 0.48183 0.33453 0.65732 0.0
C431 C 0.5291 0.35397 0.66222 0.0
H432 H 0.54549 0.33333 0.65438 0.0
C433 C 0.34777 0.27867 0.60925 0.0
N434 N 0.3921 0.29745 0.62996 0.0
C435 C 0.32483 0.30459 0.6095 0.0
C436 C 0.34764 0.35013 0.63033 0.0
H437 H 0.3295 0.24334 0.59381 0.0
H438 H 0.48446 0.47014 0.70121 0.0
H439 H 0.2959 0.14554 0.74922 0.0
H440 H 0.55709 0.4633 0.70304 0.0
H441 H 0.59395 0.41523 0.685 0.0
H442 H 0.40225 0.43696 0.67274 0.0
H443 H 0.48549 0.128 0.75772 0.0
H444 H 0.21236 1.00087 0.71752 0.0
H445 H 0.22028 0.07791 0.73454 0.0
H446 H 0.32061 0.94604 0.70531 0.0
H447 H 0.28938 0.28926 0.59417 0.0
H448 H 0.32955 0.36986 0.63119 0.0
H449 H 0.24989 0.95253 0.70582 0.0
H450 H 0.482 0.05326 0.74036 0.0
N451 N 0.33471 0.10926 0.7439 0.0
C452 C 0.24666 0.0308 0.72503 0.0
C453 C 0.25101 0.07417 0.73473 0.0
C454 C 0.28658 0.02657 0.72448 0.0
C455 C 0.3307 0.0667 0.7344 0.0
C456 C 0.29512 0.11302 0.74386 0.0
N457 N 0.41289 0.10175 0.74222 0.0
C458 C 0.37074 0.06298 0.73333 0.0
C459 C 0.4505 0.05551 0.73764 0.0
C460 C 0.40798 0.01603 0.7251 0.0
C461 C 0.45222 0.09799 0.74701 0.0
C462 C 0.36737 0.01919 0.72358 0.0
H463 H 0.40671 0.98308 0.71782 0.0
O464 O 0.46318 0.17661 0.81847 0.0
O465 O 0.45938 0.24398 0.71906 0.0
O466 O 0.49524 0.24633 0.64693 0.0
O467 O 0.46865 0.17577 0.69445 0.0
O468 O 0.44311 0.24071 0.80275 0.0
O469 O 0.3904 0.15153 0.84232 0.0
O470 O 0.4156 0.22651 0.55349 0.0
O471 O 0.40182 0.18212 0.66789 0.0
O472 O 0.36661 0.20382 0.7729 0.0
O473 O 0.3869 0.26241 0.70419 0.0
O474 O 0.36176 0.19281 0.61179 0.0
O475 O 0.47994 0.29049 0.56852 0.0
C476 C 0.46714 0.2685 0.76256 0.0
C477 C 0.32368 0.97972 0.71325 0.0
C478 C 0.28343 0.98341 0.71369 0.0
C479 C 0.43221 0.16239 0.85922 0.0
C480 C 0.43563 0.13552 0.90669 0.0
C481 C 0.44186 0.09704 0.89872 0.0
C482 C 0.43162 0.14877 0.96168 0.0
C483 C 0.43353 0.12369 1.00865 0.0
C484 C 0.44431 0.07226 0.94503 0.0
C485 C 0.44015 0.08536 0.99958 0.0
C486 C 0.49719 0.20797 0.65745 0.0
C487 C 0.36472 0.16114 0.64029 0.0
C488 C 0.45336 0.2603 0.53124 0.0
C489 C 0.44816 0.27779 0.47626 0.0
C490 C 0.44753 0.31971 0.47087 0.0
C491 C 0.44316 0.25116 0.42815 0.0
C492 C 0.43738 0.26589 0.37458 0.0
C493 C 0.44234 0.33491 0.41785 0.0
C494 C 0.43734 0.30832 0.37001 0.0
C495 C 0.36462 0.23966 0.75052 0.0
H496 H 0.44463 0.08592 0.85709 0.0
H497 H 0.42599 0.17807 0.96775 0.0
H498 H 0.44929 0.04264 0.93863 0.0
H499 H 0.4424 0.06561 0.03468 0.0
H500 H 0.45094 0.34052 0.5075 0.0
H501 H 0.44405 0.21897 0.4326 0.0
H502 H 0.44183 0.36728 0.41383 0.0
H503 H 0.43249 0.32053 0.32966 0.0
H504 H 0.28015 0.2026 0.81015 0.0
H505 H 0.40941 0.33118 0.77227 0.0
H506 H 0.38518 0.37468 0.83362 0.0
H507 H 0.20741 0.25545 0.80855 0.0
H508 H 0.16966 0.2205 0.86544 0.0
H509 H 0.19795 0.19756 0.82163 0.0
H510 H 0.23393 0.18229 0.91002 0.0
H511 H 0.20631 0.2058 0.9542 0.0
H512 H 0.26873 0.22986 0.95683 0.0
H513 H 0.34937 0.40488 0.89714 0.0
H514 H 0.29878 0.42349 0.95152 0.0
H515 H 0.18802 0.2787 0.94871 0.0
C516 C 0.30311 0.23986 0.81505 0.0
C517 C 0.34655 0.26367 0.78612 0.0
C518 C 0.3757 0.31243 0.79321 0.0
C519 C 0.3625 0.33741 0.82853 0.0
C520 C 0.31968 0.3133 0.85631 0.0
C521 C 0.28986 0.26589 0.84959 0.0
C522 C 0.24436 0.25007 0.88198 0.0
C523 C 0.20235 0.22969 0.84201 0.0
C524 C 0.23796 0.2149 0.92851 0.0
C525 C 0.25335 0.29619 0.90688 0.0
C526 C 0.29762 0.33162 0.89233 0.0
C527 C 0.31473 0.37737 0.90926 0.0
C528 C 0.28562 0.38765 0.94111 0.0
C529 C 0.2397 0.35272 0.95629 0.0
C530 C 0.22323 0.30614 0.93859 0.0
H531 H 0.06562 0.37621 0.13247 0.0
H532 H 0.12237 0.28337 0.14703 0.0
H533 H 0.05667 0.23154 0.21038 0.0
H534 H 0.03057 0.36617 0.27724 0.0
H535 H 0.97775 0.36799 0.26439 0.0
H536 H 0.02723 0.39784 0.21742 0.0
H537 H 0.97813 0.35321 0.13223 0.0
H538 H 0.92715 0.32387 0.17675 0.0
H539 H 0.94459 0.29025 0.13395 0.0
H540 H 0.98046 0.18638 0.26534 0.0
H541 H 0.90442 0.15566 0.31511 0.0
H542 H 0.90296 0.28257 0.27342 0.0
C543 C 0.06421 0.34491 0.14887 0.0
C544 C 0.0989 0.33352 0.13436 0.0
C545 C 0.09613 0.29266 0.15743 0.0
C546 C 0.05894 0.26304 0.19341 0.0
C547 C 0.02536 0.27533 0.20694 0.0
C548 C 0.02805 0.31566 0.18593 0.0
C549 C 0.9883 0.32168 0.2082 0.0
C550 C 0.00705 0.36605 0.24396 0.0
C551 C 0.95772 0.32224 0.1599 0.0
C552 C 0.96221 0.27791 0.24414 0.0
C553 C 0.98384 0.25135 0.24237 0.0
C554 C 0.96389 0.20743 0.26815 0.0
C555 C 0.92078 0.19023 0.29627 0.0
C556 C 0.89884 0.21748 0.30003 0.0
C557 C 0.91998 0.26189 0.27359 0.0
H558 H 0.69466 0.06141 0.46028 0.0
H559 H 0.84342 0.11797 0.48569 0.0
H560 H 0.82638 0.04871 0.54324 0.0
H561 H 0.66039 0.0154 0.60048 0.0
H562 H 0.6073 0.96302 0.58117 0.0
H563 H 0.62881 0.01542 0.5391 0.0
H564 H 0.63111 0.97344 0.45036 0.0
H565 H 0.60781 0.91947 0.48933 0.0
H566 H 0.66179 0.94117 0.45036 0.0
H567 H 0.79347 0.96998 0.59097 0.0
H568 H 0.74672 0.89058 0.6321 0.0
H569 H 0.61919 0.88844 0.58481 0.0
C570 C 0.72368 0.05922 0.4779 0.0
C571 C 0.77053 0.09513 0.46805 0.0
C572 C 0.80735 0.09107 0.49254 0.0
C573 C 0.79798 0.05178 0.52529 0.0
C574 C 0.75152 0.01707 0.53418 0.0
C575 C 0.71491 0.02063 0.51172 0.0
C576 C 0.66812 0.97874 0.52859 0.0
C577 C 0.63941 0.99401 0.5645 0.0
C578 C 0.64061 0.95159 0.47655 0.0
C579 C 0.6842 0.95066 0.56313 0.0
C580 C 0.73248 0.97326 0.56535 0.0
C581 C 0.75566 0.95248 0.5906 0.0
C582 C 0.72891 0.90742 0.61383 0.0
C583 C 0.67948 0.88406 0.61334 0.0
C584 C 0.65691 0.90619 0.5878 0.0
H585 H 0.70645 0.79367 0.81465 0.0
H586 H 0.59297 0.65812 0.76334 0.0
H587 H 0.61752 0.6194 0.83037 0.0
H588 H 0.78893 0.75469 0.81814 0.0
H589 H 0.82158 0.78891 0.87764 0.0
H590 H 0.79074 0.8089 0.83374 0.0
H591 H 0.74646 0.8136 0.92104 0.0
H592 H 0.77655 0.7929 0.96545 0.0
H593 H 0.71354 0.76248 0.96467 0.0
H594 H 0.65371 0.59294 0.89707 0.0
H595 H 0.70809 0.57873 0.95005 0.0
H596 H 0.80706 0.7276 0.95521 0.0
C597 C 0.68629 0.75598 0.8188 0.0
C598 C 0.64616 0.72933 0.78518 0.0
C599 C 0.62223 0.67988 0.78991 0.0
C600 C 0.63609 0.65719 0.82803 0.0
C601 C 0.67526 0.68398 0.86046 0.0
C602 C 0.701 0.73212 0.85565 0.0
C603 C 0.74562 0.7509 0.89025 0.0
C604 C 0.78931 0.77741 0.85269 0.0
C605 C 0.74554 0.78183 0.9382 0.0
C606 C 0.74107 0.70558 0.91327 0.0
C607 C 0.69919 0.66787 0.89677 0.0
C608 C 0.68648 0.62219 0.91085 0.0
C609 C 0.71774 0.61442 0.94169 0.0
C610 C 0.76158 0.65186 0.95845 0.0
C611 C 0.77343 0.69827 0.9439 0.0
H612 H 0.11348 0.73204 0.24847 0.0
H613 H 0.09037 0.83278 0.33714 0.0
H614 H 0.0115 0.79898 0.29435 0.0
H615 H 0.06272 0.73791 0.12087 0.0
H616 H 0.03932 0.67677 0.10596 0.0
H617 H 0.09074 0.7072 0.14827 0.0
H618 H 0.04826 0.64423 0.22754 0.0
H619 H 0.99771 0.61525 0.18301 0.0
H620 H 0.99189 0.63286 0.2526 0.0
H621 H 0.9357 0.75467 0.23799 0.0
H622 H 0.87245 0.70726 0.1706 0.0
H623 H 0.94963 0.63983 0.11616 0.0
C624 C 0.09119 0.7461 0.25984 0.0
C625 C 0.10682 0.78381 0.29727 0.0
C626 C 0.07805 0.80301 0.30951 0.0
C627 C 0.03343 0.78408 0.28538 0.0
C628 C 0.01886 0.74669 0.24837 0.0
C629 C 0.0471 0.72808 0.23564 0.0
C630 C 0.02533 0.69054 0.19154 0.0
C631 C 0.0564 0.70401 0.13853 0.0
C632 C 0.01522 0.64293 0.21513 0.0
C633 C 0.98061 0.6912 0.1807 0.0
C634 C 0.97696 0.72321 0.21433 0.0
C635 C 0.93827 0.72955 0.21144 0.0
C636 C 0.90256 0.70255 0.17306 0.0
C637 C 0.90625 0.67023 0.13765 0.0
C638 C 0.94584 0.66462 0.142 0.0
H639 H 0.27717 0.09678 0.60074 0.0
H640 H 0.41907 0.12339 0.618 0.0
H641 H 0.39904 0.0525 0.56592 0.0
H642 H 0.21982 0.96551 0.61024 0.0
H643 H 0.17636 0.95677 0.55878 0.0
H644 H 0.20021 0.00728 0.60358 0.0
H645 H 0.22373 0.06064 0.51521 0.0
H646 H 0.20084 0.01029 0.47036 0.0
H647 H 0.26078 0.05642 0.46249 0.0
H648 H 0.36951 0.98835 0.50031 0.0
H649 H 0.32739 0.92417 0.43423 0.0
H650 H 0.20057 0.93026 0.46206 0.0
C651 C 0.30345 0.08678 0.59461 0.0
C652 C 0.34943 0.11503 0.61497 0.0
C653 C 0.38337 0.10173 0.60482 0.0
C654 C 0.37238 0.06153 0.57471 0.0
C655 C 0.32714 0.03471 0.55477 0.0
C656 C 0.29276 0.04592 0.56494 0.0
C657 C 0.24743 0.01128 0.53623 0.0
C658 C 0.20866 0.98355 0.57982 0.0
C659 C 0.23232 0.03616 0.49354 0.0
C660 C 0.26257 0.98017 0.5069 0.0
C661 C 0.30892 0.99496 0.51818 0.0
C662 C 0.33284 0.97549 0.49228 0.0
C663 C 0.30864 0.93925 0.45447 0.0
C664 C 0.26063 0.92192 0.44365 0.0
C665 C 0.23711 0.94251 0.47034 0.0
H666 H 0.18201 0.39963 0.67784 0.0
H667 H 0.13872 0.50128 0.64266 0.0
H668 H 0.16958 0.51067 0.54589 0.0
H669 H 0.28995 0.4565 0.59634 0.0
H670 H 0.28414 0.40246 0.57144 0.0
H671 H 0.25961 0.4041 0.63858 0.0
H672 H 0.17822 0.33783 0.6074 0.0
H673 H 0.20253 0.33566 0.54038 0.0
H674 H 0.15306 0.34462 0.54344 0.0
H675 H 0.20486 0.5091 0.4532 0.0
H676 H 0.23988 0.49489 0.36946 0.0
H677 H 0.25888 0.39275 0.46349 0.0
C678 C 0.17947 0.42424 0.64996 0.0
C679 C 0.15788 0.44973 0.6679 0.0
C680 C 0.1546 0.48099 0.62975 0.0
C681 C 0.17232 0.4868 0.57481 0.0
C682 C 0.19325 0.4611 0.5585 0.0
C683 C 0.19685 0.43034 0.59483 0.0
C684 C 0.21987 0.40605 0.56609 0.0
C685 C 0.26613 0.41801 0.59484 0.0
C686 C 0.18641 0.35289 0.56421 0.0
C687 C 0.22842 0.42782 0.50786 0.0
C688 C 0.21303 0.45966 0.50459 0.0
C689 C 0.21684 0.48408 0.45518 0.0
C690 C 0.23651 0.47547 0.40765 0.0
C691 C 0.25183 0.44233 0.40944 0.0
C692 C 0.24798 0.41858 0.46064 0.0
H693 H 0.73944 0.13967 0.95 0.0
H694 H 0.79528 0.26983 0.04179 0.0
H695 H 0.83922 0.3134 0.95748 0.0
H696 H 0.84271 0.16964 0.87052 0.0
H697 H 0.81206 0.14141 0.80712 0.0
H698 H 0.78416 0.12018 0.87451 0.0
H699 H 0.71451 0.1297 0.84264 0.0
H700 H 0.74221 0.15083 0.7751 0.0
H701 H 0.72541 0.18561 0.81658 0.0
H702 H 0.87863 0.34299 0.86409 0.0
H703 H 0.90951 0.35677 0.76701 0.0
H704 H 0.82765 0.20786 0.73457 0.0
C705 C 0.76038 0.17737 0.95224 0.0
C706 C 0.76392 0.20119 1.00297 0.0
C707 C 0.79241 0.25059 1.00397 0.0
C708 C 0.81735 0.27575 0.95609 0.0
C709 C 0.8134 0.25117 0.90712 0.0
C710 C 0.78549 0.20313 0.90465 0.0
C711 C 0.7879 0.18528 0.84676 0.0
C712 C 0.80791 0.15218 0.84995 0.0
C713 C 0.73964 0.16146 0.81861 0.0
C714 C 0.82162 0.23082 0.81725 0.0
C715 C 0.83591 0.26835 0.85292 0.0
C716 C 0.86763 0.31389 0.83571 0.0
C717 C 0.88522 0.32132 0.78056 0.0
C718 C 0.87112 0.28346 0.74305 0.0
C719 C 0.83872 0.23764 0.7619 0.0
H720 H 0.61787 0.78399 0.3073 0.0
H721 H 0.50917 0.63949 0.28586 0.0
H722 H 0.49331 0.65843 0.19077 0.0
H723 H 0.56048 0.83725 0.23198 0.0
H724 H 0.61394 0.88233 0.2003 0.0
H725 H 0.61535 0.85799 0.26768 0.0
H726 H 0.67568 0.8367 0.22893 0.0
H727 H 0.67453 0.86105 0.16152 0.0
H728 H 0.66207 0.80147 0.16665 0.0
H729 H 0.48947 0.69279 0.09822 0.0
H730 H 0.50038 0.73908 1.01229 0.0
H731 H 0.61428 0.86085 0.09167 0.0
C732 C 0.59039 0.75651 0.28276 0.0
C733 C 0.56462 0.71027 0.30395 0.0
C734 C 0.52949 0.67505 0.27026 0.0
C735 C 0.52007 0.68554 0.21639 0.0
C736 C 0.54623 0.73139 0.19664 0.0
C737 C 0.58084 0.76629 0.2286 0.0
C738 C 0.60524 0.81223 0.19634 0.0
C739 C 0.59832 0.84965 0.22584 0.0
C740 C 0.65747 0.82882 0.18786 0.0
C741 C 0.57902 0.79763 0.1412 0.0
C742 C 0.54489 0.75096 0.14252 0.0
C743 C 0.51627 0.72932 0.09658 0.0
C744 C 0.52303 0.75591 0.04772 0.0
C745 C 0.55855 0.80364 0.04466 0.0
C746 C 0.58653 0.82467 0.09253 0.0
H747 H 0.80249 0.55795 0.67138 0.0
H748 H 0.94705 0.6624 0.63567 0.0
H749 H 0.92531 0.67105 0.53915 0.0
H750 H 0.77692 0.50308 0.53778 0.0
H751 H 0.71814 0.49323 0.535 0.0
H752 H 0.74469 0.49606 0.6019 0.0
H753 H 0.72887 0.56189 0.63314 0.0
H754 H 0.70225 0.55927 0.5663 0.0
H755 H 0.75022 0.61388 0.59037 0.0
H756 H 0.88819 0.66785 0.44635 0.0
H757 H 0.83893 0.65154 0.36233 0.0
H758 H 0.71808 0.54951 0.45797 0.0
C759 C 0.82951 0.58311 0.64357 0.0
C760 C 0.87659 0.60941 0.66134 0.0
C761 C 0.9109 0.64134 0.62304 0.0
C762 C 0.89883 0.64679 0.56818 0.0
C763 C 0.85221 0.62022 0.55209 0.0
C764 C 0.81805 0.58904 0.58861 0.0
C765 C 0.77068 0.56402 0.56024 0.0
C766 C 0.7515 0.51096 0.55863 0.0
C767 C 0.73597 0.57546 0.58924 0.0
C768 C 0.7837 0.58561 0.50187 0.0
C769 C 0.83085 0.61813 0.49825 0.0
C770 C 0.85131 0.64229 0.4485 0.0
C771 C 0.82302 0.63263 0.40096 0.0
C772 C 0.77462 0.59907 0.40333 0.0
C773 C 0.75481 0.57566 0.45483 0.0
H774 H 0.20622 0.73109 0.7089 0.0
H775 H 0.06243 0.6982 0.7318 0.0
H776 H 0.07986 0.72707 0.82892 0.0
H777 H 0.2213 0.69737 0.84589 0.0
H778 H 0.28077 0.74413 0.85404 0.0
H779 H 0.25824 0.72313 0.78492 0.0
H780 H 0.28024 0.80687 0.75354 0.0
H781 H 0.30325 0.82823 0.82246 0.0
H782 H 0.25895 0.83867 0.7935 0.0
H783 H 0.1115 0.75673 0.92447 0.0
H784 H 0.15586 0.78751 1.01236 0.0
H785 H 0.27993 0.80231 0.9293 0.0
C786 C 0.1787 0.73085 0.73401 0.0
C787 C 0.13281 0.71204 0.71249 0.0
C788 C 0.09769 0.71185 0.74726 0.0
C789 C 0.10726 0.72833 0.80258 0.0
C790 C 0.15236 0.74545 0.82296 0.0
C791 C 0.1877 0.74731 0.78974 0.0
C792 C 0.23292 0.76673 0.82282 0.0
C793 C 0.24925 0.73068 0.82716 0.0
C794 C 0.2711 0.81286 0.79652 0.0
C795 C 0.21718 0.77488 0.87977 0.0
C796 C 0.17059 0.76238 0.87875 0.0
C797 C 0.14791 0.76632 0.92615 0.0
C798 C 0.17344 0.78367 0.97599 0.0
C799 C 0.22152 0.7974 0.97825 0.0
C800 C 0.2434 0.79262 0.92916 0.0
H801 H 0.47396 0.29459 0.2675 0.0
H802 H 0.38468 0.17045 0.36695 0.0
H803 H 0.37365 0.12125 0.2844 0.0
H804 H 0.40776 0.25402 0.13814 0.0
H805 H 0.45903 0.28037 0.0936 0.0
H806 H 0.45978 0.30611 0.16043 0.0
H807 H 0.53263 0.30109 0.18944 0.0
H808 H 0.53207 0.27529 0.12274 0.0
H809 H 0.53042 0.24551 0.18712 0.0
H810 H 0.37242 0.08522 0.1914 0.0
H811 H 0.38185 0.06473 0.09462 0.0
H812 H 0.47144 0.21192 0.05446 0.0
C813 C 0.45173 0.25709 0.27183 0.0
C814 C 0.43041 0.23648 0.32407 0.0
C815 C 0.40207 0.18714 0.32786 0.0
C816 C 0.39531 0.15885 0.28103 0.0
C817 C 0.41698 0.18028 0.23042 0.0
C818 C 0.44457 0.22826 0.22541 0.0
C819 C 0.46427 0.24229 0.16621 0.0
C820 C 0.44664 0.27248 0.13794 0.0
C821 C 0.51804 0.26753 0.16642 0.0
C822 C 0.44359 0.19467 0.13887 0.0
C823 C 0.41636 0.15943 0.1767 0.0
C824 C 0.39391 0.1125 0.16156 0.0
C825 C 0.39965 0.1012 0.10647 0.0
C826 C 0.42757 0.13662 0.06685 0.0
C827 C 0.44955 0.18401 0.08349 0.0
H828 H 0.26844 0.58655 0.09875 0.0
H829 H 0.13737 0.45897 0.12965 0.0
H830 H 0.1104 0.50262 0.1888 0.0
H831 H 0.28562 0.62814 0.23105 0.0
H832 H 0.31061 0.68901 0.21254 0.0
H833 H 0.31532 0.64979 0.16453 0.0
H834 H 0.27576 0.67248 0.08624 0.0
H835 H 0.27163 0.71262 0.13372 0.0
H836 H 0.2199 0.66789 0.09979 0.0
H837 H 0.10353 0.56086 0.25636 0.0
H838 H 0.11609 0.62665 0.31824 0.0
H839 H 0.25317 0.71243 0.24229 0.0
C840 C 0.23338 0.56821 0.11635 0.0
C841 C 0.20462 0.51978 0.10888 0.0
C842 C 0.15944 0.49641 0.13372 0.0
C843 C 0.14402 0.52094 0.1677 0.0
C844 C 0.1742 0.56872 0.17603 0.0
C845 C 0.21766 0.59209 0.14998 0.0
C846 C 0.24545 0.64228 0.16857 0.0
C847 C 0.29196 0.65287 0.19579 0.0
C848 C 0.25365 0.6758 0.11915 0.0
C849 C 0.21204 0.6432 0.21125 0.0
C850 C 0.1707 0.60101 0.21472 0.0
C851 C 0.13567 0.59415 0.25332 0.0
C852 C 0.14318 0.63153 0.28863 0.0
C853 C 0.18569 0.67481 0.28553 0.0
C854 C 0.22015 0.68013 0.24612 0.0
H855 H 0.71478 0.28746 0.45012 0.0
H856 H 0.69089 0.14619 0.4577 0.0
H857 H 0.62077 0.1223 0.51722 0.0
H858 H 0.68767 0.29471 0.5888 0.0
H859 H 0.65886 0.32784 0.5756 0.0
H860 H 0.70324 0.33227 0.52777 0.0
H861 H 0.64536 0.3082 0.44469 0.0
H862 H 0.6009 0.30454 0.49202 0.0
H863 H 0.58962 0.25498 0.44959 0.0
H864 H 0.55704 0.11654 0.58467 0.0
H865 H 0.50249 0.12768 0.64539 0.0
H866 H 0.57054 0.27351 0.59444 0.0
C867 C 0.69402 0.2512 0.46312 0.0
C868 C 0.70785 0.21853 0.44857 0.0
C869 C 0.68044 0.1716 0.46727 0.0
C870 C 0.64071 0.15783 0.50152 0.0
C871 C 0.62893 0.19143 0.51666 0.0
C872 C 0.65446 0.237 0.49717 0.0
C873 C 0.63601 0.26705 0.52109 0.0
C874 C 0.6737 0.30786 0.55534 0.0
C875 C 0.61682 0.28472 0.47405 0.0
C876 C 0.59705 0.23181 0.55861 0.0
C877 C 0.59313 0.18827 0.55539 0.0
C878 C 0.55982 0.15051 0.58723 0.0
C879 C 0.52931 0.15731 0.6223 0.0
C880 C 0.53245 0.2016 0.62562 0.0
C881 C 0.56713 0.23919 0.59336 0.0
H882 H 0.29192 0.56116 0.90566 0.0
H883 H 0.37511 0.50223 0.96704 0.0
H884 H 0.43525 0.54706 0.89487 0.0
H885 H 0.31997 0.56437 0.75779 0.0
H886 H 0.32308 0.61964 0.74505 0.0
H887 H 0.28524 0.58111 0.79967 0.0
H888 H 0.3259 0.64702 0.87316 0.0
H889 H 0.36304 0.68587 0.81853 0.0
H890 H 0.3886 0.67616 0.88025 0.0
H891 H 0.48644 0.59804 0.81389 0.0
H892 H 0.52993 0.66142 0.74432 0.0
H893 H 0.4159 0.68984 0.7395 0.0
C894 C 0.3228 0.55768 0.90409 0.0
C895 C 0.32844 0.52781 0.94209 0.0
C896 C 0.36977 0.52483 0.93869 0.0
C897 C 0.40402 0.54984 0.89735 0.0
C898 C 0.39683 0.57812 0.85979 0.0
C899 C 0.35765 0.58287 0.86357 0.0
C900 C 0.35975 0.61798 0.82068 0.0
C901 C 0.31962 0.59435 0.7783 0.0
C902 C 0.35932 0.6592 0.8499 0.0
C903 C 0.40664 0.63294 0.79289 0.0
C904 C 0.42699 0.60872 0.81504 0.0
C905 C 0.47081 0.61732 0.79661 0.0
C906 C 0.4954 0.65328 0.75694 0.0
C907 C 0.47683 0.68087 0.73699 0.0
C908 C 0.43102 0.66914 0.7537 0.0
H909 H 0.76533 0.29432 0.2313 0.0
H910 H 0.9018 0.38175 0.30521 0.0
H911 H 0.91469 0.4465 0.24105 0.0
H912 H 0.80046 0.33976 0.08583 0.0
H913 H 0.74406 0.33375 0.07263 0.0
H914 H 0.74909 0.29427 0.12084 0.0
H915 H 0.70843 0.31696 0.19853 0.0
H916 H 0.70382 0.35638 0.15029 0.0
H917 H 0.73283 0.37766 0.2166 0.0
H918 H 0.90775 0.50482 0.1738 0.0
H919 H 0.88016 0.54889 0.11607 0.0
H920 H 0.75105 0.42037 0.08383 0.0
C921 C 0.79828 0.32677 0.23392 0.0
C922 C 0.83223 0.33288 0.27419 0.0
C923 C 0.87481 0.37623 0.27552 0.0
C924 C 0.88265 0.41313 0.23874 0.0
C925 C 0.84803 0.40587 0.1999 0.0
C926 C 0.80687 0.36342 0.19718 0.0
C927 C 0.77389 0.36449 0.15412 0.0
C928 C 0.76642 0.33105 0.10549 0.0
C929 C 0.72702 0.35324 0.18154 0.0
C930 C 0.80168 0.41489 0.1348 0.0
C931 C 0.84479 0.43832 0.16068 0.0
C932 C 0.8745 0.48643 0.15252 0.0
C933 C 0.8588 0.51123 0.11918 0.0
C934 C 0.81387 0.48778 0.09456 0.0
C935 C 0.78603 0.43889 0.10101 0.0
H936 H 0.34505 0.87018 0.48443 0.0
H937 H 0.29143 0.74542 0.38323 0.0
H938 H 0.35792 0.73627 0.41065 0.0
H939 H 0.47469 0.91067 0.46851 0.0
H940 H 0.48601 0.92808 0.54108 0.0
H941 H 0.44073 0.93204 0.50362 0.0
H942 H 0.38078 0.88122 0.58045 0.0
H943 H 0.42551 0.87653 0.61777 0.0
H944 H 0.37283 0.8244 0.59709 0.0
H945 H 0.42127 0.73347 0.45669 0.0
H946 H 0.47767 0.73395 0.5216 0.0
H947 H 0.4925 0.85897 0.60116 0.0
C948 C 0.34895 0.84251 0.46581 0.0
C949 C 0.31507 0.81054 0.42804 0.0
C950 C 0.31871 0.7722 0.40861 0.0
C951 C 0.35619 0.76647 0.42455 0.0
C952 C 0.38903 0.79855 0.46157 0.0
C953 C 0.38594 0.83581 0.48236 0.0
C954 C 0.42227 0.86086 0.52797 0.0
C955 C 0.45806 0.91089 0.50917 0.0
C956 C 0.39893 0.86071 0.58413 0.0
C957 C 0.44465 0.83039 0.53117 0.0
C958 C 0.42528 0.79547 0.49139 0.0
C959 C 0.43731 0.76106 0.48739 0.0
C960 C 0.4697 0.76179 0.52513 0.0
C961 C 0.49024 0.79668 0.56719 0.0
C962 C 0.47782 0.83194 0.56967 0.0
H963 H 0.63644 0.47993 0.95864 0.0
H964 H 0.74665 0.4538 0.90255 0.0
H965 H 0.69301 0.39649 0.83499 0.0
H966 H 0.54383 0.36156 0.95234 0.0
H967 H 0.50072 0.37525 0.92689 0.0
H968 H 0.54853 0.4169 0.96896 0.0
H969 H 0.57122 0.47931 0.89051 0.0
H970 H 0.52375 0.43763 0.84772 0.0
H971 H 0.58267 0.46699 0.82034 0.0
H972 H 0.62818 0.33946 0.77715 0.0
H973 H 0.55283 0.28122 0.73672 0.0
H974 H 0.483 0.34261 0.82732 0.0
C975 C 0.64916 0.46198 0.93233 0.0
C976 C 0.69593 0.47162 0.93607 0.0
C977 C 0.7112 0.44746 0.90054 0.0
C978 C 0.68103 0.41486 0.86167 0.0
C979 C 0.63555 0.40664 0.85844 0.0
C980 C 0.61935 0.42909 0.89293 0.0
C981 C 0.56797 0.41177 0.88218 0.0
C982 C 0.53853 0.39006 0.93577 0.0
C983 C 0.56101 0.45129 0.85881 0.0
C984 C 0.55776 0.37511 0.8377 0.0
C985 C 0.5976 0.3735 0.82401 0.0
C986 C 0.59687 0.34093 0.78651 0.0
C987 C 0.554 0.30824 0.7633 0.0
C988 C 0.51263 0.30885 0.77701 0.0
C989 C 0.51459 0.3428 0.8145 0.0
loop_
_geom_bond_atom_site_label_1
_geom_bond_atom_site_label_2
_geom_bond_distance
_geom_bond_site_symmetry_2
_ccdc_geom_bond_type
Gd0 N31 2.661 . S
Gd0 N37 2.601 . S
Gd0 O44 2.545 . S
Gd0 O45 2.606 . S
Gd0 O47 2.429 . S
Gd0 O48 2.545 . S
Gd0 O49 2.412 . S
Gd0 O51 2.362 1_554 S
Gd0 O52 2.324 . S
Gd0 C59 2.828 . S
Gd1 N10 2.661 . S
Gd1 N14 2.601 . S
Gd1 O45 2.362 1_556 S
Gd1 O46 2.324 . S
Gd1 O50 2.545 . S
Gd1 O51 2.606 . S
Gd1 O53 2.429 1_556 S
Gd1 O54 2.545 . S
Gd1 O55 2.412 . S
Gd1 C68 2.828 . S
C2 C5 1.417 . S
C2 C7 1.431 . S
C2 C8 1.412 . S
C3 C6 1.437 . S
C3 C7 1.317 . S
C3 H22 0.929 . S
C4 C5 1.426 . S
C4 C6 1.413 . S
C4 N14 1.359 . S
C5 C2 1.417 . S
C5 C4 1.426 . S
C5 N10 1.350 . S
C6 C3 1.437 . S
C6 C4 1.413 . S
C6 C16 1.391 . S
C7 C2 1.431 . S
C7 C3 1.317 . S
C7 H18 0.930 . S
C8 C2 1.412 . S
C8 C9 1.355 . S
C8 H20 0.930 . S
C9 C8 1.355 . S
C9 C11 1.402 . S
C9 H21 0.930 . S
N10 Gd1 2.661 . S
N10 C5 1.350 . S
N10 C11 1.307 . S
C11 C9 1.402 . S
C11 N10 1.307 . S
C11 H12 0.930 . S
H12 C11 0.930 . S
C13 N14 1.334 . S
C13 C15 1.394 . S
C13 H17 0.930 . S
N14 Gd1 2.601 . S
N14 C4 1.359 . S
N14 C13 1.334 . S
C15 C13 1.394 . S
C15 C16 1.359 . S
C15 H27 0.930 1_455 S
C16 C6 1.391 . S
C16 C15 1.359 . S
C16 H28 0.929 1_455 S
H17 C13 0.930 . S
H18 C7 0.930 . S
H19 C36 0.930 . S
H20 C8 0.930 . S
H21 C9 0.930 . S
H22 C3 0.929 . S
H23 C41 0.930 . S
H24 C32 0.930 . S
H25 C33 0.930 . S
H26 C57 0.929 . S
H27 C15 0.930 1_655 S
H28 C16 0.929 1_655 S
H29 C58 0.930 . S
H30 C39 0.930 . S
N31 Gd0 2.661 . S
N31 C35 1.350 . S
N31 C36 1.307 . S
C32 H24 0.930 . S
C32 C33 1.355 . S
C32 C34 1.412 . S
C33 H25 0.930 . S
C33 C32 1.355 . S
C33 C36 1.402 . S
C34 C32 1.412 . S
C34 C35 1.417 . S
C34 C58 1.431 . S
C35 N31 1.350 . S
C35 C34 1.417 . S
C35 C38 1.426 . S
C36 H19 0.930 . S
C36 N31 1.307 . S
C36 C33 1.402 . S
N37 Gd0 2.601 . S
N37 C38 1.359 . S
N37 C41 1.334 . S
C38 C35 1.426 . S
C38 N37 1.359 . S
C38 C42 1.413 . S
C39 H30 0.930 . S
C39 C40 1.359 . S
C39 C41 1.394 . S
C40 C39 1.359 . S
C40 C42 1.391 . S
C40 H43 0.929 . S
C41 H23 0.930 . S
C41 N37 1.334 . S
C41 C39 1.394 . S
C42 C38 1.413 . S
C42 C40 1.391 . S
C42 C57 1.437 . S
H43 C40 0.929 . S
O44 Gd0 2.545 . S
O44 C59 1.258 . S
O45 Gd0 2.606 . S
O45 Gd1 2.362 1_554 S
O45 C56 1.284 . S
O46 Gd1 2.324 . S
O46 C66 1.254 . S
O47 Gd0 2.429 . S
O47 C66 1.268 1_554 S
O48 Gd0 2.545 . S
O48 C56 1.250 . S
O49 Gd0 2.412 . S
O49 C59 1.252 . S
O50 Gd1 2.545 . S
O50 C68 1.258 . S
O51 Gd0 2.362 1_556 S
O51 Gd1 2.606 . S
O51 C67 1.284 . S
O52 Gd0 2.324 . S
O52 C75 1.254 . S
O53 Gd1 2.429 1_554 S
O53 C75 1.268 . S
O54 Gd1 2.545 . S
O54 C67 1.250 . S
O55 Gd1 2.412 . S
O55 C68 1.252 . S
C56 O45 1.284 . S
C56 O48 1.250 . S
C57 H26 0.929 . S
C57 C42 1.437 . S
C57 C58 1.317 . S
C58 H29 0.930 . S
C58 C34 1.431 . S
C58 C57 1.317 . S
C59 Gd0 2.828 . S
C59 O44 1.258 . S
C59 O49 1.252 . S
C59 C60 1.497 . S
C60 C59 1.497 . S
C60 C61 1.395 . S
C60 C62 1.380 . S
C61 C60 1.395 . S
C61 C64 1.398 . S
C61 H76 0.930 . S
C62 C60 1.380 . S
C62 C63 1.391 . S
C62 H77 0.930 . S
C63 C62 1.391 . S
C63 C65 1.387 . S
C64 C61 1.398 . S
C64 C65 1.380 . S
C64 H78 0.930 . S
C65 C63 1.387 . S
C65 C64 1.380 . S
C65 H79 0.930 . S
C66 O46 1.254 . S
C66 O47 1.268 1_556 S
C67 O51 1.284 . S
C67 O54 1.250 . S
C68 Gd1 2.828 . S
C68 O50 1.258 . S
C68 O55 1.252 . S
C68 C69 1.497 . S
C69 C68 1.497 . S
C69 C70 1.395 . S
C69 C71 1.380 . S
C70 C69 1.395 . S
C70 C73 1.398 . S
C70 H80 0.930 . S
C71 C69 1.380 . S
C71 C72 1.391 . S
C71 H81 0.930 . S
C72 C71 1.391 . S
C72 C74 1.387 . S
C73 C70 1.398 . S
C73 C74 1.380 . S
C73 H82 0.930 . S
C74 C72 1.387 . S
C74 C73 1.380 . S
C74 H83 0.930 . S
C75 O52 1.254 . S
C75 O53 1.268 . S
H76 C61 0.930 . S
H77 C62 0.930 . S
H78 C64 0.930 . S
H79 C65 0.930 . S
H80 C70 0.930 . S
H81 C71 0.930 . S
H82 C73 0.930 . S
H83 C74 0.930 . S
Gd84 N115 2.661 . S
Gd84 N121 2.601 . S
Gd84 O128 2.545 . S
Gd84 O129 2.606 . S
Gd84 O131 2.429 . S
Gd84 O132 2.545 . S
Gd84 O133 2.412 . S
Gd84 O135 2.362 . S
Gd84 O136 2.324 . S
Gd84 C143 2.828 . S
Gd85 N94 2.661 . S
Gd85 N98 2.601 . S
Gd85 O129 2.362 . S
Gd85 O130 2.324 . S
Gd85 O134 2.545 . S
Gd85 O135 2.606 . S
Gd85 O137 2.429 . S
Gd85 O138 2.545 . S
Gd85 O139 2.412 . S
Gd85 C152 2.828 . S
C86 C89 1.417 . S
C86 C91 1.431 . S
C86 C92 1.412 . S
C87 C90 1.437 . S
C87 C91 1.317 . S
C87 H106 0.929 . S
C88 C89 1.426 . S
C88 C90 1.413 . S
C88 N98 1.359 . S
C89 C86 1.417 . S
C89 C88 1.426 . S
C89 N94 1.350 . S
C90 C87 1.437 . S
C90 C88 1.413 . S
C90 C100 1.391 . S
C91 C86 1.431 . S
C91 C87 1.317 . S
C91 H102 0.930 . S
C92 C86 1.412 . S
C92 C93 1.355 . S
C92 H104 0.930 . S
C93 C92 1.355 . S
C93 C95 1.402 . S
C93 H105 0.930 . S
N94 Gd85 2.661 . S
N94 C89 1.350 . S
N94 C95 1.307 . S
C95 C93 1.402 . S
C95 N94 1.307 . S
C95 H96 0.930 . S
H96 C95 0.930 . S
C97 N98 1.334 . S
C97 C99 1.394 . S
C97 H101 0.930 . S
N98 Gd85 2.601 . S
N98 C88 1.359 . S
N98 C97 1.334 . S
C99 C97 1.394 . S
C99 C100 1.359 . S
C99 H111 0.930 1_545 S
C100 C90 1.391 . S
C100 C99 1.359 . S
C100 H112 0.929 1_545 S
H101 C97 0.930 . S
H102 C91 0.930 . S
H103 C120 0.930 . S
H104 C92 0.930 . S
H105 C93 0.930 . S
H106 C87 0.929 . S
H107 C125 0.930 . S
H108 C116 0.930 1_455 S
H109 C117 0.930 . S
H110 C141 0.929 . S
H111 C99 0.930 1_565 S
H112 C100 0.929 1_565 S
H113 C142 0.930 . S
H114 C123 0.930 . S
N115 Gd84 2.661 . S
N115 C119 1.350 . S
N115 C120 1.307 . S
C116 H108 0.930 1_655 S
C116 C117 1.355 . S
C116 C118 1.412 . S
C117 H109 0.930 . S
C117 C116 1.355 . S
C117 C120 1.402 . S
C118 C116 1.412 . S
C118 C119 1.417 . S
C118 C142 1.431 1_655 S
C119 N115 1.350 . S
C119 C118 1.417 . S
C119 C122 1.426 . S
C120 H103 0.930 . S
C120 N115 1.307 . S
C120 C117 1.402 . S
N121 Gd84 2.601 . S
N121 C122 1.359 . S
N121 C125 1.334 . S
C122 C119 1.426 . S
C122 N121 1.359 . S
C122 C126 1.413 . S
C123 H114 0.930 . S
C123 C124 1.359 . S
C123 C125 1.394 . S
C124 C123 1.359 . S
C124 C126 1.391 . S
C124 H127 0.929 1_655 S
C125 H107 0.930 . S
C125 N121 1.334 . S
C125 C123 1.394 . S
C126 C122 1.413 . S
C126 C124 1.391 . S
C126 C141 1.437 1_655 S
H127 C124 0.929 1_455 S
O128 Gd84 2.545 . S
O128 C143 1.258 . S
O129 Gd84 2.606 . S
O129 Gd85 2.362 . S
O129 C140 1.284 . S
O130 Gd85 2.324 . S
O130 C150 1.254 . S
O131 Gd84 2.429 . S
O131 C150 1.268 . S
O132 Gd84 2.545 . S
O132 C140 1.250 . S
O133 Gd84 2.412 . S
O133 C143 1.252 . S
O134 Gd85 2.545 . S
O134 C152 1.258 . S
O135 Gd84 2.362 . S
O135 Gd85 2.606 . S
O135 C151 1.284 . S
O136 Gd84 2.324 . S
O136 C159 1.254 . S
O137 Gd85 2.429 . S
O137 C159 1.268 . S
O138 Gd85 2.545 . S
O138 C151 1.250 . S
O139 Gd85 2.412 . S
O139 C152 1.252 . S
C140 O129 1.284 . S
C140 O132 1.250 . S
C141 H110 0.929 . S
C141 C126 1.437 1_455 S
C141 C142 1.317 . S
C142 H113 0.930 . S
C142 C118 1.431 1_455 S
C142 C141 1.317 . S
C143 Gd84 2.828 . S
C143 O128 1.258 . S
C143 O133 1.252 . S
C143 C144 1.497 . S
C144 C143 1.497 . S
C144 C145 1.395 . S
C144 C146 1.380 . S
C145 C144 1.395 . S
C145 C148 1.398 . S
C145 H160 0.930 . S
C146 C144 1.380 . S
C146 C147 1.391 . S
C146 H161 0.930 . S
C147 C146 1.391 . S
C147 C149 1.387 . S
C148 C145 1.398 . S
C148 C149 1.380 . S
C148 H162 0.930 . S
C149 C147 1.387 . S
C149 C148 1.380 . S
C149 H163 0.930 . S
C150 O130 1.254 . S
C150 O131 1.268 . S
C151 O135 1.284 . S
C151 O138 1.250 . S
C152 Gd85 2.828 . S
C152 O134 1.258 . S
C152 O139 1.252 . S
C152 C153 1.497 . S
C153 C152 1.497 . S
C153 C154 1.395 . S
C153 C155 1.380 . S
C154 C153 1.395 . S
C154 C157 1.398 . S
C154 H164 0.930 . S
C155 C153 1.380 . S
C155 C156 1.391 . S
C155 H165 0.930 . S
C156 C155 1.391 . S
C156 C158 1.382 1_554 S
C157 C154 1.398 . S
C157 C158 1.371 1_554 S
C157 H166 0.930 . S
C158 C156 1.382 1_556 S
C158 C157 1.371 1_556 S
C158 H167 0.945 . S
C159 O136 1.254 . S
C159 O137 1.268 . S
H160 C145 0.930 . S
H161 C146 0.930 . S
H162 C148 0.930 . S
H163 C149 0.930 . S
H164 C154 0.930 . S
H165 C155 0.930 . S
H166 C157 0.930 . S
H167 C158 0.945 . S
Gd168 N199 2.661 . S
Gd168 N205 2.601 . S
Gd168 O212 2.545 . S
Gd168 O213 2.606 . S
Gd168 O215 2.429 . S
Gd168 O216 2.545 . S
Gd168 O217 2.412 . S
Gd168 O219 2.362 . S
Gd168 O220 2.324 . S
Gd168 C227 2.828 . S
Gd169 N178 2.661 . S
Gd169 N182 2.601 . S
Gd169 O213 2.362 . S
Gd169 O214 2.324 . S
Gd169 O218 2.545 . S
Gd169 O219 2.606 . S
Gd169 O221 2.429 . S
Gd169 O222 2.545 . S
Gd169 O223 2.412 . S
Gd169 C236 2.828 . S
C170 C173 1.417 . S
C170 C175 1.431 . S
C170 C176 1.412 . S
C171 C174 1.437 . S
C171 C175 1.317 . S
C171 H190 0.929 . S
C172 C173 1.426 . S
C172 C174 1.413 . S
C172 N182 1.359 . S
C173 C170 1.417 . S
C173 C172 1.426 . S
C173 N178 1.350 . S
C174 C171 1.437 . S
C174 C172 1.413 . S
C174 C184 1.391 . S
C175 C170 1.431 . S
C175 C171 1.317 . S
C175 H186 0.930 . S
C176 C170 1.412 . S
C176 C177 1.355 . S
C176 H188 0.930 . S
C177 C176 1.355 . S
C177 C179 1.402 . S
C177 H189 0.930 . S
N178 Gd169 2.661 . S
N178 C173 1.350 . S
N178 C179 1.307 . S
C179 C177 1.402 . S
C179 N178 1.307 . S
C179 H180 0.930 . S
H180 C179 0.930 . S
C181 N182 1.334 . S
C181 C183 1.394 . S
C181 H185 0.930 . S
N182 Gd169 2.601 . S
N182 C172 1.359 . S
N182 C181 1.334 . S
C183 C181 1.394 . S
C183 C184 1.359 . S
C183 H195 0.930 . S
C184 C174 1.391 . S
C184 C183 1.359 . S
C184 H196 0.929 . S
H185 C181 0.930 . S
H186 C175 0.930 . S
H187 C204 0.930 . S
H188 C176 0.930 . S
H189 C177 0.930 . S
H190 C171 0.929 . S
H191 C209 0.930 . S
H192 C200 0.930 1_545 S
H193 C201 0.930 . S
H194 C225 0.929 . S
H195 C183 0.930 . S
H196 C184 0.929 . S
H197 C226 0.930 . S
H198 C207 0.930 . S
N199 Gd168 2.661 . S
N199 C203 1.350 . S
N199 C204 1.307 . S
C200 H192 0.930 1_565 S
C200 C201 1.355 . S
C200 C202 1.412 . S
C201 H193 0.930 . S
C201 C200 1.355 . S
C201 C204 1.402 . S
C202 C200 1.412 . S
C202 C203 1.417 . S
C202 C226 1.431 1_565 S
C203 N199 1.350 . S
C203 C202 1.417 . S
C203 C206 1.426 . S
C204 H187 0.930 . S
C204 N199 1.307 . S
C204 C201 1.402 . S
N205 Gd168 2.601 . S
N205 C206 1.359 . S
N205 C209 1.334 . S
C206 C203 1.426 . S
C206 N205 1.359 . S
C206 C210 1.413 . S
C207 H198 0.930 . S
C207 C208 1.359 . S
C207 C209 1.394 . S
C208 C207 1.359 . S
C208 C210 1.391 . S
C208 H211 0.929 1_565 S
C209 H191 0.930 . S
C209 N205 1.334 . S
C209 C207 1.394 . S
C210 C206 1.413 . S
C210 C208 1.391 . S
C210 C225 1.437 1_565 S
H211 C208 0.929 1_545 S
O212 Gd168 2.545 . S
O212 C227 1.258 . S
O213 Gd168 2.606 . S
O213 Gd169 2.362 . S
O213 C224 1.284 . S
O214 Gd169 2.324 . S
O214 C234 1.254 . S
O215 Gd168 2.429 . S
O215 C234 1.268 . S
O216 Gd168 2.545 . S
O216 C224 1.250 . S
O217 Gd168 2.412 . S
O217 C227 1.252 . S
O218 Gd169 2.545 . S
O218 C236 1.258 . S
O219 Gd168 2.362 . S
O219 Gd169 2.606 . S
O219 C235 1.284 . S
O220 Gd168 2.324 . S
O220 C243 1.254 . S
O221 Gd169 2.429 . S
O221 C243 1.268 . S
O222 Gd169 2.545 . S
O222 C235 1.250 . S
O223 Gd169 2.412 . S
O223 C236 1.252 . S
C224 O213 1.284 . S
C224 O216 1.250 . S
C225 H194 0.929 . S
C225 C210 1.437 1_545 S
C225 C226 1.317 . S
C226 H197 0.930 . S
C226 C202 1.431 1_545 S
C226 C225 1.317 . S
C227 Gd168 2.828 . S
C227 O212 1.258 . S
C227 O217 1.252 . S
C227 C228 1.497 . S
C228 C227 1.497 . S
C228 C229 1.395 . S
C228 C230 1.380 . S
C229 C228 1.395 . S
C229 C232 1.398 . S
C229 H244 0.930 . S
C230 C228 1.380 . S
C230 C231 1.391 . S
C230 H245 0.930 . S
C231 C230 1.391 . S
C231 C233 1.387 1_556 S
C232 C229 1.398 . S
C232 C233 1.380 1_556 S
C232 H246 0.930 . S
C233 C231 1.387 1_554 S
C233 C232 1.380 1_554 S
C233 H247 0.930 . S
C234 O214 1.254 . S
C234 O215 1.268 . S
C235 O219 1.284 . S
C235 O222 1.250 . S
C236 Gd169 2.828 . S
C236 O218 1.258 . S
C236 O223 1.252 . S
C236 C237 1.497 . S
C237 C236 1.497 . S
C237 C238 1.395 . S
C237 C239 1.380 . S
C238 C237 1.395 . S
C238 C241 1.398 . S
C238 H248 0.930 . S
C239 C237 1.380 . S
C239 C240 1.391 . S
C239 H249 0.930 . S
C240 C239 1.391 . S
C240 C242 1.387 . S
C241 C238 1.398 . S
C241 C242 1.380 . S
C241 H250 0.930 . S
C242 C240 1.387 . S
C242 C241 1.380 . S
C242 H251 0.930 . S
C243 O220 1.254 . S
C243 O221 1.268 . S
H244 C229 0.930 . S
H245 C230 0.930 . S
H246 C232 0.930 . S
H247 C233 0.930 . S
H248 C238 0.930 . S
H249 C239 0.930 . S
H250 C241 0.930 . S
H251 C242 0.930 . S
Gd252 N283 2.661 . S
Gd252 N289 2.601 . S
Gd252 O296 2.545 . S
Gd252 O297 2.606 . S
Gd252 O299 2.429 . S
Gd252 O300 2.545 . S
Gd252 O301 2.412 . S
Gd252 O303 2.362 1_554 S
Gd252 O304 2.324 . S
Gd252 C311 2.828 . S
Gd253 N262 2.661 . S
Gd253 N266 2.601 . S
Gd253 O297 2.362 1_556 S
Gd253 O298 2.324 . S
Gd253 O302 2.545 . S
Gd253 O303 2.606 . S
Gd253 O305 2.429 1_556 S
Gd253 O306 2.545 . S
Gd253 O307 2.412 . S
Gd253 C320 2.828 . S
C254 C257 1.417 . S
C254 C259 1.431 . S
C254 C260 1.412 . S
C255 C258 1.437 . S
C255 C259 1.317 . S
C255 H274 0.929 . S
C256 C257 1.426 . S
C256 C258 1.413 . S
C256 N266 1.359 . S
C257 C254 1.417 . S
C257 C256 1.426 . S
C257 N262 1.350 . S
C258 C255 1.437 . S
C258 C256 1.413 . S
C258 C268 1.391 . S
C259 C254 1.431 . S
C259 C255 1.317 . S
C259 H270 0.930 . S
C260 C254 1.412 . S
C260 C261 1.355 . S
C260 H272 0.930 . S
C261 C260 1.355 . S
C261 C263 1.402 . S
C261 H273 0.930 . S
N262 Gd253 2.661 . S
N262 C257 1.350 . S
N262 C263 1.307 . S
C263 C261 1.402 . S
C263 N262 1.307 . S
C263 H264 0.930 . S
H264 C263 0.930 . S
C265 N266 1.334 . S
C265 C267 1.394 . S
C265 H269 0.930 . S
N266 Gd253 2.601 . S
N266 C256 1.359 . S
N266 C265 1.334 . S
C267 C265 1.394 . S
C267 C268 1.359 . S
C267 H279 0.930 1_655 S
C268 C258 1.391 . S
C268 C267 1.359 . S
C268 H280 0.929 1_655 S
H269 C265 0.930 . S
H270 C259 0.930 . S
H271 C288 0.930 . S
H272 C260 0.930 . S
H273 C261 0.930 . S
H274 C255 0.929 . S
H275 C293 0.930 . S
H276 C284 0.930 . S
H277 C285 0.930 . S
H278 C309 0.929 . S
H279 C267 0.930 1_455 S
H280 C268 0.929 1_455 S
H281 C310 0.930 . S
H282 C291 0.930 . S
N283 Gd252 2.661 . S
N283 C287 1.350 . S
N283 C288 1.307 . S
C284 H276 0.930 . S
C284 C285 1.355 . S
C284 C286 1.412 . S
C285 H277 0.930 . S
C285 C284 1.355 . S
C285 C288 1.402 . S
C286 C284 1.412 . S
C286 C287 1.417 . S
C286 C310 1.431 . S
C287 N283 1.350 . S
C287 C286 1.417 . S
C287 C290 1.426 . S
C288 H271 0.930 . S
C288 N283 1.307 . S
C288 C285 1.402 . S
N289 Gd252 2.601 . S
N289 C290 1.359 . S
N289 C293 1.334 . S
C290 C287 1.426 . S
C290 N289 1.359 . S
C290 C294 1.413 . S
C291 H282 0.930 . S
C291 C292 1.359 . S
C291 C293 1.394 . S
C292 C291 1.359 . S
C292 C294 1.391 . S
C292 H295 0.929 . S
C293 H275 0.930 . S
C293 N289 1.334 . S
C293 C291 1.394 . S
C294 C290 1.413 . S
C294 C292 1.391 . S
C294 C309 1.437 . S
H295 C292 0.929 . S
O296 Gd252 2.545 . S
O296 C311 1.258 . S
O297 Gd252 2.606 . S
O297 Gd253 2.362 1_554 S
O297 C308 1.284 . S
O298 Gd253 2.324 . S
O298 C318 1.254 . S
O299 Gd252 2.429 . S
O299 C318 1.268 1_554 S
O300 Gd252 2.545 . S
O300 C308 1.250 . S
O301 Gd252 2.412 . S
O301 C311 1.252 . S
O302 Gd253 2.545 . S
O302 C320 1.258 . S
O303 Gd252 2.362 1_556 S
O303 Gd253 2.606 . S
O303 C319 1.284 . S
O304 Gd252 2.324 . S
O304 C327 1.254 . S
O305 Gd253 2.429 1_554 S
O305 C327 1.268 . S
O306 Gd253 2.545 . S
O306 C319 1.250 . S
O307 Gd253 2.412 . S
O307 C320 1.252 . S
C308 O297 1.284 . S
C308 O300 1.250 . S
C309 H278 0.929 . S
C309 C294 1.437 . S
C309 C310 1.317 . S
C310 H281 0.930 . S
C310 C286 1.431 . S
C310 C309 1.317 . S
C311 Gd252 2.828 . S
C311 O296 1.258 . S
C311 O301 1.252 . S
C311 C312 1.497 . S
C312 C311 1.497 . S
C312 C313 1.395 . S
C312 C314 1.380 . S
C313 C312 1.395 . S
C313 C316 1.398 . S
C313 H328 0.930 . S
C314 C312 1.380 . S
C314 C315 1.391 . S
C314 H329 0.930 . S
C315 C314 1.391 . S
C315 C317 1.387 . S
C316 C313 1.398 . S
C316 C317 1.380 . S
C316 H330 0.930 . S
C317 C315 1.387 . S
C317 C316 1.380 . S
C317 H331 0.930 . S
C318 O298 1.254 . S
C318 O299 1.268 1_556 S
C319 O303 1.284 . S
C319 O306 1.250 . S
C320 Gd253 2.828 . S
C320 O302 1.258 . S
C320 O307 1.252 . S
C320 C321 1.497 . S
C321 C320 1.497 . S
C321 C322 1.395 . S
C321 C323 1.380 . S
C322 C321 1.395 . S
C322 C325 1.398 . S
C322 H332 0.930 . S
C323 C321 1.380 . S
C323 C324 1.391 . S
C323 H333 0.930 . S
C324 C323 1.391 . S
C324 C326 1.387 . S
C325 C322 1.398 . S
C325 C326 1.380 . S
C325 H334 0.930 . S
C326 C324 1.387 . S
C326 C325 1.380 . S
C326 H335 0.930 . S
C327 O304 1.254 . S
C327 O305 1.268 . S
H328 C313 0.930 . S
H329 C314 0.930 . S
H330 C316 0.930 . S
H331 C317 0.930 . S
H332 C322 0.930 . S
H333 C323 0.930 . S
H334 C325 0.930 . S
H335 C326 0.930 . S
Gd336 N367 2.661 . S
Gd336 N373 2.601 . S
Gd336 O380 2.545 . S
Gd336 O381 2.606 . S
Gd336 O383 2.429 . S
Gd336 O384 2.545 . S
Gd336 O385 2.412 . S
Gd336 O387 2.362 . S
Gd336 O388 2.324 . S
Gd336 C395 2.828 . S
Gd337 N346 2.661 . S
Gd337 N350 2.601 . S
Gd337 O381 2.362 . S
Gd337 O382 2.324 . S
Gd337 O386 2.545 . S
Gd337 O387 2.606 . S
Gd337 O389 2.429 . S
Gd337 O390 2.545 . S
Gd337 O391 2.412 . S
Gd337 C404 2.828 . S
C338 C341 1.417 . S
C338 C343 1.431 . S
C338 C344 1.412 . S
C339 C342 1.437 . S
C339 C343 1.317 . S
C339 H358 0.929 . S
C340 C341 1.426 . S
C340 C342 1.413 . S
C340 N350 1.359 . S
C341 C338 1.417 . S
C341 C340 1.426 . S
C341 N346 1.350 . S
C342 C339 1.437 . S
C342 C340 1.413 . S
C342 C352 1.391 . S
C343 C338 1.431 . S
C343 C339 1.317 . S
C343 H354 0.930 . S
C344 C338 1.412 . S
C344 C345 1.355 . S
C344 H356 0.930 . S
C345 C344 1.355 . S
C345 C347 1.402 . S
C345 H357 0.930 . S
N346 Gd337 2.661 . S
N346 C341 1.350 . S
N346 C347 1.307 . S
C347 C345 1.402 . S
C347 N346 1.307 . S
C347 H348 0.930 . S
H348 C347 0.930 . S
C349 N350 1.334 . S
C349 C351 1.394 . S
C349 H353 0.930 . S
N350 Gd337 2.601 . S
N350 C340 1.359 . S
N350 C349 1.334 . S
C351 C349 1.394 . S
C351 C352 1.359 . S
C351 H363 0.930 1_565 S
C352 C342 1.391 . S
C352 C351 1.359 . S
C352 H364 0.929 1_565 S
H353 C349 0.930 . S
H354 C343 0.930 . S
H355 C372 0.930 . S
H356 C344 0.930 . S
H357 C345 0.930 . S
H358 C339 0.929 . S
H359 C377 0.930 . S
H360 C368 0.930 1_655 S
H361 C369 0.930 . S
H362 C393 0.929 . S
H363 C351 0.930 1_545 S
H364 C352 0.929 1_545 S
H365 C394 0.930 . S
H366 C375 0.930 . S
N367 Gd336 2.661 . S
N367 C371 1.350 . S
N367 C372 1.307 . S
C368 H360 0.930 1_455 S
C368 C369 1.355 . S
C368 C370 1.412 . S
C369 H361 0.930 . S
C369 C368 1.355 . S
C369 C372 1.402 . S
C370 C368 1.412 . S
C370 C371 1.417 . S
C370 C394 1.431 1_455 S
C371 N367 1.350 . S
C371 C370 1.417 . S
C371 C374 1.426 . S
C372 H355 0.930 . S
C372 N367 1.307 . S
C372 C369 1.402 . S
N373 Gd336 2.601 . S
N373 C374 1.359 . S
N373 C377 1.334 . S
C374 C371 1.426 . S
C374 N373 1.359 . S
C374 C378 1.413 . S
C375 H366 0.930 . S
C375 C376 1.359 . S
C375 C377 1.394 . S
C376 C375 1.359 . S
C376 C378 1.391 . S
C376 H379 0.929 1_455 S
C377 H359 0.930 . S
C377 N373 1.334 . S
C377 C375 1.394 . S
C378 C374 1.413 . S
C378 C376 1.391 . S
C378 C393 1.437 1_455 S
H379 C376 0.929 1_655 S
O380 Gd336 2.545 . S
O380 C395 1.258 . S
O381 Gd336 2.606 . S
O381 Gd337 2.362 . S
O381 C392 1.284 . S
O382 Gd337 2.324 . S
O382 C402 1.254 . S
O383 Gd336 2.429 . S
O383 C402 1.268 . S
O384 Gd336 2.545 . S
O384 C392 1.250 . S
O385 Gd336 2.412 . S
O385 C395 1.252 . S
O386 Gd337 2.545 . S
O386 C404 1.258 . S
O387 Gd336 2.362 . S
O387 Gd337 2.606 . S
O387 C403 1.284 . S
O388 Gd336 2.324 . S
O388 C411 1.254 . S
O389 Gd337 2.429 . S
O389 C411 1.268 . S
O390 Gd337 2.545 . S
O390 C403 1.250 . S
O391 Gd337 2.412 . S
O391 C404 1.252 . S
C392 O381 1.284 . S
C392 O384 1.250 . S
C393 H362 0.929 . S
C393 C378 1.437 1_655 S
C393 C394 1.317 . S
C394 H365 0.930 . S
C394 C370 1.431 1_655 S
C394 C393 1.317 . S
C395 Gd336 2.828 . S
C395 O380 1.258 . S
C395 O385 1.252 . S
C395 C396 1.497 . S
C396 C395 1.497 . S
C396 C397 1.395 . S
C396 C398 1.380 . S
C397 C396 1.395 . S
C397 C400 1.398 . S
C397 H412 0.930 . S
C398 C396 1.380 . S
C398 C399 1.391 . S
C398 H413 0.930 . S
C399 C398 1.391 . S
C399 C401 1.387 . S
C400 C397 1.398 . S
C400 C401 1.380 . S
C400 H414 0.930 . S
C401 C399 1.387 . S
C401 C400 1.380 . S
C401 H415 0.930 . S
C402 O382 1.254 . S
C402 O383 1.268 . S
C403 O387 1.284 . S
C403 O390 1.250 . S
C404 Gd337 2.828 . S
C404 O386 1.258 . S
C404 O391 1.252 . S
C404 C405 1.497 . S
C405 C404 1.497 . S
C405 C406 1.395 . S
C405 C407 1.380 . S
C406 C405 1.395 . S
C406 C409 1.398 . S
C406 H416 0.930 . S
C407 C405 1.380 . S
C407 C408 1.391 . S
C407 H417 0.930 . S
C408 C407 1.391 . S
C408 C410 1.382 1_554 S
C409 C406 1.398 . S
C409 C410 1.371 1_554 S
C409 H418 0.930 . S
C410 C408 1.382 1_556 S
C410 C409 1.371 1_556 S
C410 H419 0.945 . S
C411 O388 1.254 . S
C411 O389 1.268 . S
H412 C397 0.930 . S
H413 C398 0.930 . S
H414 C400 0.930 . S
H415 C401 0.930 . S
H416 C406 0.930 . S
H417 C407 0.930 . S
H418 C409 0.930 . S
H419 C410 0.945 . S
Gd420 N451 2.661 . S
Gd420 N457 2.601 . S
Gd420 O464 2.545 . S
Gd420 O465 2.606 . S
Gd420 O467 2.429 . S
Gd420 O468 2.545 . S
Gd420 O469 2.412 . S
Gd420 O471 2.362 . S
Gd420 O472 2.324 . S
Gd420 C479 2.828 . S
Gd421 N430 2.661 . S
Gd421 N434 2.601 . S
Gd421 O465 2.362 . S
Gd421 O466 2.324 . S
Gd421 O470 2.545 . S
Gd421 O471 2.606 . S
Gd421 O473 2.429 . S
Gd421 O474 2.545 . S
Gd421 O475 2.412 . S
Gd421 C488 2.828 . S
C422 C425 1.417 . S
C422 C427 1.431 . S
C422 C428 1.412 . S
C423 C426 1.437 . S
C423 C427 1.317 . S
C423 H442 0.929 . S
C424 C425 1.426 . S
C424 C426 1.413 . S
C424 N434 1.359 . S
C425 C422 1.417 . S
C425 C424 1.426 . S
C425 N430 1.350 . S
C426 C423 1.437 . S
C426 C424 1.413 . S
C426 C436 1.391 . S
C427 C422 1.431 . S
C427 C423 1.317 . S
C427 H438 0.930 . S
C428 C422 1.412 . S
C428 C429 1.355 . S
C428 H440 0.930 . S
C429 C428 1.355 . S
C429 C431 1.402 . S
C429 H441 0.930 . S
N430 Gd421 2.661 . S
N430 C425 1.350 . S
N430 C431 1.307 . S
C431 C429 1.402 . S
C431 N430 1.307 . S
C431 H432 0.930 . S
H432 C431 0.930 . S
C433 N434 1.334 . S
C433 C435 1.394 . S
C433 H437 0.930 . S
N434 Gd421 2.601 . S
N434 C424 1.359 . S
N434 C433 1.334 . S
C435 C433 1.394 . S
C435 C436 1.359 . S
C435 H447 0.930 . S
C436 C426 1.391 . S
C436 C435 1.359 . S
C436 H448 0.929 . S
H437 C433 0.930 . S
H438 C427 0.930 . S
H439 C456 0.930 . S
H440 C428 0.930 . S
H441 C429 0.930 . S
H442 C423 0.929 . S
H443 C461 0.930 . S
H444 C452 0.930 1_565 S
H445 C453 0.930 . S
H446 C477 0.929 . S
H447 C435 0.930 . S
H448 C436 0.929 . S
H449 C478 0.930 . S
H450 C459 0.930 . S
N451 Gd420 2.661 . S
N451 C455 1.350 . S
N451 C456 1.307 . S
C452 H444 0.930 1_545 S
C452 C453 1.355 . S
C452 C454 1.412 . S
C453 H445 0.930 . S
C453 C452 1.355 . S
C453 C456 1.402 . S
C454 C452 1.412 . S
C454 C455 1.417 . S
C454 C478 1.431 1_545 S
C455 N451 1.350 . S
C455 C454 1.417 . S
C455 C458 1.426 . S
C456 H439 0.930 . S
C456 N451 1.307 . S
C456 C453 1.402 . S
N457 Gd420 2.601 . S
N457 C458 1.359 . S
N457 C461 1.334 . S
C458 C455 1.426 . S
C458 N457 1.359 . S
C458 C462 1.413 . S
C459 H450 0.930 . S
C459 C460 1.359 . S
C459 C461 1.394 . S
C460 C459 1.359 . S
C460 C462 1.391 . S
C460 H463 0.929 1_545 S
C461 H443 0.930 . S
C461 N457 1.334 . S
C461 C459 1.394 . S
C462 C458 1.413 . S
C462 C460 1.391 . S
C462 C477 1.437 1_545 S
H463 C460 0.929 1_565 S
O464 Gd420 2.545 . S
O464 C479 1.258 . S
O465 Gd420 2.606 . S
O465 Gd421 2.362 . S
O465 C476 1.284 . S
O466 Gd421 2.324 . S
O466 C486 1.254 . S
O467 Gd420 2.429 . S
O467 C486 1.268 . S
O468 Gd420 2.545 . S
O468 C476 1.250 . S
O469 Gd420 2.412 . S
O469 C479 1.252 . S
O470 Gd421 2.545 . S
O470 C488 1.258 . S
O471 Gd420 2.362 . S
O471 Gd421 2.606 . S
O471 C487 1.284 . S
O472 Gd420 2.324 . S
O472 C495 1.254 . S
O473 Gd421 2.429 . S
O473 C495 1.268 . S
O474 Gd421 2.545 . S
O474 C487 1.250 . S
O475 Gd421 2.412 . S
O475 C488 1.252 . S
C476 O465 1.284 . S
C476 O468 1.250 . S
C477 H446 0.929 . S
C477 C462 1.437 1_565 S
C477 C478 1.317 . S
C478 H449 0.930 . S
C478 C454 1.431 1_565 S
C478 C477 1.317 . S
C479 Gd420 2.828 . S
C479 O464 1.258 . S
C479 O469 1.252 . S
C479 C480 1.497 . S
C480 C479 1.497 . S
C480 C481 1.395 . S
C480 C482 1.380 . S
C481 C480 1.395 . S
C481 C484 1.398 . S
C481 H496 0.930 . S
C482 C480 1.380 . S
C482 C483 1.391 . S
C482 H497 0.930 . S
C483 C482 1.391 . S
C483 C485 1.387 1_556 S
C484 C481 1.398 . S
C484 C485 1.380 1_556 S
C484 H498 0.930 . S
C485 C483 1.387 1_554 S
C485 C484 1.380 1_554 S
C485 H499 0.930 . S
C486 O466 1.254 . S
C486 O467 1.268 . S
C487 O471 1.284 . S
C487 O474 1.250 . S
C488 Gd421 2.828 . S
C488 O470 1.258 . S
C488 O475 1.252 . S
C488 C489 1.497 . S
C489 C488 1.497 . S
C489 C490 1.395 . S
C489 C491 1.380 . S
C490 C489 1.395 . S
C490 C493 1.398 . S
C490 H500 0.930 . S
C491 C489 1.380 . S
C491 C492 1.391 . S
C491 H501 0.930 . S
C492 C491 1.391 . S
C492 C494 1.387 . S
C493 C490 1.398 . S
C493 C494 1.380 . S
C493 H502 0.930 . S
C494 C492 1.387 . S
C494 C493 1.380 . S
C494 H503 0.930 . S
C495 O472 1.254 . S
C495 O473 1.268 . S
H496 C481 0.930 . S
H497 C482 0.930 . S
H498 C484 0.930 . S
H499 C485 0.930 . S
H500 C490 0.930 . S
H501 C491 0.930 . S
H502 C493 0.930 . S
H503 C494 0.930 . S
H504 C516 0.930 . S
H505 C518 0.930 . S
H506 C519 0.930 . S
H507 C523 0.959 . S
H508 C523 0.959 . S
H509 C523 0.961 . S
H510 C524 0.960 . S
H511 C524 0.961 . S
H512 C524 0.959 . S
H513 C527 0.929 . S
H514 C528 0.931 . S
H515 C530 0.930 . S
C516 H504 0.930 . S
C516 C517 1.399 . S
C516 C521 1.399 . S
C517 C516 1.399 . S
C517 C518 1.376 . S
C518 H505 0.930 . S
C518 C517 1.376 . S
C518 C519 1.388 . S
C519 H506 0.930 . S
C519 C518 1.388 . S
C519 C520 1.390 . S
C520 C519 1.390 . S
C520 C521 1.394 . S
C520 C526 1.465 . S
C521 C516 1.399 . S
C521 C520 1.394 . S
C521 C522 1.516 . S
C522 C521 1.516 . S
C522 C523 1.502 . S
C522 C524 1.561 . S
C522 C525 1.526 . S
C523 H507 0.959 . S
C523 H508 0.959 . S
C523 H509 0.961 . S
C523 C522 1.502 . S
C524 H510 0.960 . S
C524 H511 0.961 . S
C524 H512 0.959 . S
C524 C522 1.561 . S
C525 C522 1.526 . S
C525 C526 1.396 . S
C525 C530 1.390 . S
C526 C520 1.465 . S
C526 C525 1.396 . S
C526 C527 1.399 . S
C527 H513 0.929 . S
C527 C526 1.399 . S
C527 C528 1.385 . S
C528 H514 0.931 . S
C528 C527 1.385 . S
C528 C529 1.389 . S
C529 C528 1.389 . S
C529 C530 1.387 . S
C530 H515 0.930 . S
C530 C525 1.390 . S
C530 C529 1.387 . S
H531 C543 0.930 . S
H532 C545 0.930 . S
H533 C546 0.930 1_655 S
H534 C550 0.959 . S
H535 C550 0.959 . S
H536 C550 0.961 . S
H537 C551 0.960 . S
H538 C551 0.961 . S
H539 C551 0.959 . S
H540 C554 0.929 . S
H541 C555 0.931 . S
H542 C557 0.930 . S
C543 H531 0.930 . S
C543 C544 1.399 . S
C543 C548 1.399 . S
C544 C543 1.399 . S
C544 C545 1.376 . S
C545 H532 0.930 . S
C545 C544 1.376 . S
C545 C546 1.388 . S
C546 H533 0.930 1_455 S
C546 C545 1.388 . S
C546 C547 1.390 . S
C547 C546 1.390 . S
C547 C548 1.394 . S
C547 C553 1.465 1_455 S
C548 C543 1.399 . S
C548 C547 1.394 . S
C548 C549 1.516 . S
C549 C548 1.516 . S
C549 C550 1.502 . S
C549 C551 1.561 . S
C549 C552 1.526 1_455 S
C550 H534 0.959 . S
C550 H535 0.959 . S
C550 H536 0.961 . S
C550 C549 1.502 . S
C551 H537 0.960 . S
C551 H538 0.961 . S
C551 H539 0.959 . S
C551 C549 1.561 . S
C552 C549 1.526 1_655 S
C552 C553 1.396 . S
C552 C557 1.390 . S
C553 C547 1.465 1_655 S
C553 C552 1.396 . S
C553 C554 1.399 . S
C554 H540 0.929 . S
C554 C553 1.399 . S
C554 C555 1.385 . S
C555 H541 0.931 . S
C555 C554 1.385 . S
C555 C556 1.389 . S
C556 C555 1.389 . S
C556 C557 1.387 . S
C557 H542 0.930 . S
C557 C552 1.390 . S
C557 C556 1.387 . S
H558 C570 0.930 . S
H559 C572 0.930 . S
H560 C573 0.930 . S
H561 C577 0.959 . S
H562 C577 0.959 . S
H563 C577 0.961 . S
H564 C578 0.960 . S
H565 C578 0.961 . S
H566 C578 0.959 . S
H567 C581 0.929 1_545 S
H568 C582 0.931 . S
H569 C584 0.930 . S
C570 H558 0.930 . S
C570 C571 1.399 . S
C570 C575 1.399 . S
C571 C570 1.399 . S
C571 C572 1.376 . S
C572 H559 0.930 . S
C572 C571 1.376 . S
C572 C573 1.388 . S
C573 H560 0.930 . S
C573 C572 1.388 . S
C573 C574 1.390 . S
C574 C573 1.390 . S
C574 C575 1.394 . S
C574 C580 1.465 1_545 S
C575 C570 1.399 . S
C575 C574 1.394 . S
C575 C576 1.516 1_545 S
C576 C575 1.516 1_565 S
C576 C577 1.502 . S
C576 C578 1.561 . S
C576 C579 1.526 . S
C577 H561 0.959 . S
C577 H562 0.959 . S
C577 H563 0.961 . S
C577 C576 1.502 . S
C578 H564 0.960 . S
C578 H565 0.961 . S
C578 H566 0.959 . S
C578 C576 1.561 . S
C579 C576 1.526 . S
C579 C580 1.396 . S
C579 C584 1.390 . S
C580 C574 1.465 1_565 S
C580 C579 1.396 . S
C580 C581 1.399 . S
C581 H567 0.929 1_565 S
C581 C580 1.399 . S
C581 C582 1.385 . S
C582 H568 0.931 . S
C582 C581 1.385 . S
C582 C583 1.389 . S
C583 C582 1.389 . S
C583 C584 1.387 . S
C584 H569 0.930 . S
C584 C579 1.390 . S
C584 C583 1.387 . S
H585 C597 0.930 . S
H586 C599 0.930 . S
H587 C600 0.930 . S
H588 C604 0.959 . S
H589 C604 0.959 . S
H590 C604 0.961 . S
H591 C605 0.960 . S
H592 C605 0.961 . S
H593 C605 0.959 . S
H594 C608 0.929 . S
H595 C609 0.931 . S
H596 C611 0.930 . S
C597 H585 0.930 . S
C597 C598 1.399 . S
C597 C602 1.399 . S
C598 C597 1.399 . S
C598 C599 1.376 . S
C599 H586 0.930 . S
C599 C598 1.376 . S
C599 C600 1.388 . S
C600 H587 0.930 . S
C600 C599 1.388 . S
C600 C601 1.390 . S
C601 C600 1.390 . S
C601 C602 1.394 . S
C601 C607 1.465 . S
C602 C597 1.399 . S
C602 C601 1.394 . S
C602 C603 1.516 . S
C603 C602 1.516 . S
C603 C604 1.502 . S
C603 C605 1.561 . S
C603 C606 1.526 . S
C604 H588 0.959 . S
C604 H589 0.959 . S
C604 H590 0.961 . S
C604 C603 1.502 . S
C605 H591 0.960 . S
C605 H592 0.961 . S
C605 H593 0.959 . S
C605 C603 1.561 . S
C606 C603 1.526 . S
C606 C607 1.396 . S
C606 C611 1.390 . S
C607 C601 1.465 . S
C607 C606 1.396 . S
C607 C608 1.399 . S
C608 H594 0.929 . S
C608 C607 1.399 . S
C608 C609 1.385 . S
C609 H595 0.931 . S
C609 C608 1.385 . S
C609 C610 1.389 . S
C610 C609 1.389 . S
C610 C611 1.387 . S
C611 H596 0.930 . S
C611 C606 1.390 . S
C611 C610 1.387 . S
H612 C624 0.930 . S
H613 C626 0.930 . S
H614 C627 0.930 . S
H615 C631 0.959 . S
H616 C631 0.959 . S
H617 C631 0.961 . S
H618 C632 0.960 . S
H619 C632 0.961 1_655 S
H620 C632 0.959 1_655 S
H621 C635 0.929 . S
H622 C636 0.931 . S
H623 C638 0.930 . S
C624 H612 0.930 . S
C624 C625 1.399 . S
C624 C629 1.399 . S
C625 C624 1.399 . S
C625 C626 1.376 . S
C626 H613 0.930 . S
C626 C625 1.376 . S
C626 C627 1.388 . S
C627 H614 0.930 . S
C627 C626 1.388 . S
C627 C628 1.390 . S
C628 C627 1.390 . S
C628 C629 1.394 . S
C628 C634 1.465 1_455 S
C629 C624 1.399 . S
C629 C628 1.394 . S
C629 C630 1.516 . S
C630 C629 1.516 . S
C630 C631 1.502 . S
C630 C632 1.561 . S
C630 C633 1.526 1_455 S
C631 H615 0.959 . S
C631 H616 0.959 . S
C631 H617 0.961 . S
C631 C630 1.502 . S
C632 H618 0.960 . S
C632 H619 0.961 1_455 S
C632 H620 0.959 1_455 S
C632 C630 1.561 . S
C633 C630 1.526 1_655 S
C633 C634 1.396 . S
C633 C638 1.390 . S
C634 C628 1.465 1_655 S
C634 C633 1.396 . S
C634 C635 1.399 . S
C635 H621 0.929 . S
C635 C634 1.399 . S
C635 C636 1.385 . S
C636 H622 0.931 . S
C636 C635 1.385 . S
C636 C637 1.389 . S
C637 C636 1.389 . S
C637 C638 1.387 . S
C638 H623 0.930 . S
C638 C633 1.390 . S
C638 C637 1.387 . S
H639 C651 0.930 . S
H640 C653 0.930 . S
H641 C654 0.930 1_565 S
H642 C658 0.959 . S
H643 C658 0.959 . S
H644 C658 0.961 . S
H645 C659 0.960 . S
H646 C659 0.961 . S
H647 C659 0.959 . S
H648 C662 0.929 . S
H649 C663 0.931 . S
H650 C665 0.930 . S
C651 H639 0.930 . S
C651 C652 1.399 . S
C651 C656 1.399 . S
C652 C651 1.399 . S
C652 C653 1.376 . S
C653 H640 0.930 . S
C653 C652 1.376 . S
C653 C654 1.388 . S
C654 H641 0.930 1_545 S
C654 C653 1.388 . S
C654 C655 1.390 . S
C655 C654 1.390 . S
C655 C656 1.394 . S
C655 C661 1.465 1_545 S
C656 C651 1.399 . S
C656 C655 1.394 . S
C656 C657 1.516 . S
C657 C656 1.516 . S
C657 C658 1.502 . S
C657 C659 1.561 . S
C657 C660 1.526 1_545 S
C658 H642 0.959 . S
C658 H643 0.959 . S
C658 H644 0.961 . S
C658 C657 1.502 . S
C659 H645 0.960 . S
C659 H646 0.961 . S
C659 H647 0.959 . S
C659 C657 1.561 . S
C660 C657 1.526 1_565 S
C660 C661 1.396 . S
C660 C665 1.390 . S
C661 C655 1.465 1_565 S
C661 C660 1.396 . S
C661 C662 1.399 . S
C662 H648 0.929 . S
C662 C661 1.399 . S
C662 C663 1.385 . S
C663 H649 0.931 . S
C663 C662 1.385 . S
C663 C664 1.389 . S
C664 C663 1.389 . S
C664 C665 1.387 . S
C665 H650 0.930 . S
C665 C660 1.390 . S
C665 C664 1.387 . S
H666 C678 0.930 . S
H667 C680 0.930 . S
H668 C681 0.930 . S
H669 C685 0.959 . S
H670 C685 0.959 . S
H671 C685 0.961 . S
H672 C686 0.960 . S
H673 C686 0.961 . S
H674 C686 0.959 . S
H675 C689 0.929 . S
H676 C690 0.931 . S
H677 C692 0.930 . S
C678 H666 0.930 . S
C678 C679 1.399 . S
C678 C683 1.399 . S
C679 C678 1.399 . S
C679 C680 1.376 . S
C680 H667 0.930 . S
C680 C679 1.376 . S
C680 C681 1.388 . S
C681 H668 0.930 . S
C681 C680 1.388 . S
C681 C682 1.390 . S
C682 C681 1.390 . S
C682 C683 1.394 . S
C682 C688 1.465 . S
C683 C678 1.399 . S
C683 C682 1.394 . S
C683 C684 1.516 . S
C684 C683 1.516 . S
C684 C685 1.502 . S
C684 C686 1.561 . S
C684 C687 1.526 . S
C685 H669 0.959 . S
C685 H670 0.959 . S
C685 H671 0.961 . S
C685 C684 1.502 . S
C686 H672 0.960 . S
C686 H673 0.961 . S
C686 H674 0.959 . S
C686 C684 1.561 . S
C687 C684 1.526 . S
C687 C688 1.396 . S
C687 C692 1.390 . S
C688 C682 1.465 . S
C688 C687 1.396 . S
C688 C689 1.399 . S
C689 H675 0.929 . S
C689 C688 1.399 . S
C689 C690 1.385 . S
C690 H676 0.931 . S
C690 C689 1.385 . S
C690 C691 1.389 . S
C691 C690 1.389 . S
C691 C692 1.387 . S
C692 H677 0.930 . S
C692 C687 1.390 . S
C692 C691 1.387 . S
H693 C705 0.930 . S
H694 C707 0.930 . S
H695 C708 0.930 . S
H696 C712 0.959 . S
H697 C712 0.959 . S
H698 C712 0.961 . S
H699 C713 0.960 . S
H700 C713 0.961 . S
H701 C713 0.959 . S
H702 C716 0.929 . S
H703 C717 0.931 . S
H704 C719 0.930 . S
C705 H693 0.930 . S
C705 C706 1.399 . S
C705 C710 1.399 . S
C706 C705 1.399 . S
C706 C707 1.376 . S
C707 H694 0.930 . S
C707 C706 1.376 . S
C707 C708 1.388 . S
C708 H695 0.930 . S
C708 C707 1.388 . S
C708 C709 1.390 . S
C709 C708 1.390 . S
C709 C710 1.394 . S
C709 C715 1.465 . S
C710 C705 1.399 . S
C710 C709 1.394 . S
C710 C711 1.516 . S
C711 C710 1.516 . S
C711 C712 1.502 . S
C711 C713 1.561 . S
C711 C714 1.526 . S
C712 H696 0.959 . S
C712 H697 0.959 . S
C712 H698 0.961 . S
C712 C711 1.502 . S
C713 H699 0.960 . S
C713 H700 0.961 . S
C713 H701 0.959 . S
C713 C711 1.561 . S
C714 C711 1.526 . S
C714 C715 1.396 . S
C714 C719 1.390 . S
C715 C709 1.465 . S
C715 C714 1.396 . S
C715 C716 1.399 . S
C716 H702 0.929 . S
C716 C715 1.399 . S
C716 C717 1.385 . S
C717 H703 0.931 . S
C717 C716 1.385 . S
C717 C718 1.389 . S
C718 C717 1.389 . S
C718 C719 1.387 . S
C719 H704 0.930 . S
C719 C714 1.390 . S
C719 C718 1.387 . S
H720 C732 0.930 . S
H721 C734 0.930 . S
H722 C735 0.930 . S
H723 C739 0.959 . S
H724 C739 0.959 . S
H725 C739 0.961 . S
H726 C740 0.960 . S
H727 C740 0.961 . S
H728 C740 0.959 . S
H729 C743 0.929 . S
H730 C744 0.931 . S
H731 C746 0.930 . S
C732 H720 0.930 . S
C732 C733 1.399 . S
C732 C737 1.399 . S
C733 C732 1.399 . S
C733 C734 1.376 . S
C734 H721 0.930 . S
C734 C733 1.376 . S
C734 C735 1.388 . S
C735 H722 0.930 . S
C735 C734 1.388 . S
C735 C736 1.390 . S
C736 C735 1.390 . S
C736 C737 1.394 . S
C736 C742 1.465 . S
C737 C732 1.399 . S
C737 C736 1.394 . S
C737 C738 1.516 . S
C738 C737 1.516 . S
C738 C739 1.502 . S
C738 C740 1.561 . S
C738 C741 1.526 . S
C739 H723 0.959 . S
C739 H724 0.959 . S
C739 H725 0.961 . S
C739 C738 1.502 . S
C740 H726 0.960 . S
C740 H727 0.961 . S
C740 H728 0.959 . S
C740 C738 1.561 . S
C741 C738 1.526 . S
C741 C742 1.396 . S
C741 C746 1.390 . S
C742 C736 1.465 . S
C742 C741 1.396 . S
C742 C743 1.399 . S
C743 H729 0.929 . S
C743 C742 1.399 . S
C743 C744 1.385 . S
C744 H730 0.931 . S
C744 C743 1.385 . S
C744 C745 1.389 . S
C745 C744 1.389 . S
C745 C746 1.387 . S
C746 H731 0.930 . S
C746 C741 1.390 . S
C746 C745 1.387 . S
H747 C759 0.930 . S
H748 C761 0.930 . S
H749 C762 0.930 . S
H750 C766 0.959 . S
H751 C766 0.959 . S
H752 C766 0.961 . S
H753 C767 0.960 . S
H754 C767 0.961 . S
H755 C767 0.959 . S
H756 C770 0.929 . S
H757 C771 0.931 . S
H758 C773 0.930 . S
C759 H747 0.930 . S
C759 C760 1.399 . S
C759 C764 1.399 . S
C760 C759 1.399 . S
C760 C761 1.376 . S
C761 H748 0.930 . S
C761 C760 1.376 . S
C761 C762 1.388 . S
C762 H749 0.930 . S
C762 C761 1.388 . S
C762 C763 1.390 . S
C763 C762 1.390 . S
C763 C764 1.394 . S
C763 C769 1.465 . S
C764 C759 1.399 . S
C764 C763 1.394 . S
C764 C765 1.516 . S
C765 C764 1.516 . S
C765 C766 1.502 . S
C765 C767 1.561 . S
C765 C768 1.526 . S
C766 H750 0.959 . S
C766 H751 0.959 . S
C766 H752 0.961 . S
C766 C765 1.502 . S
C767 H753 0.960 . S
C767 H754 0.961 . S
C767 H755 0.959 . S
C767 C765 1.561 . S
C768 C765 1.526 . S
C768 C769 1.396 . S
C768 C773 1.390 . S
C769 C763 1.465 . S
C769 C768 1.396 . S
C769 C770 1.399 . S
C770 H756 0.929 . S
C770 C769 1.399 . S
C770 C771 1.385 . S
C771 H757 0.931 . S
C771 C770 1.385 . S
C771 C772 1.389 . S
C772 C771 1.389 . S
C772 C773 1.387 . S
C773 H758 0.930 . S
C773 C768 1.390 . S
C773 C772 1.387 . S
H774 C786 0.930 . S
H775 C788 0.930 . S
H776 C789 0.930 . S
H777 C793 0.959 . S
H778 C793 0.959 . S
H779 C793 0.961 . S
H780 C794 0.960 . S
H781 C794 0.961 . S
H782 C794 0.959 . S
H783 C797 0.929 . S
H784 C798 0.931 . S
H785 C800 0.930 . S
C786 H774 0.930 . S
C786 C787 1.399 . S
C786 C791 1.399 . S
C787 C786 1.399 . S
C787 C788 1.376 . S
C788 H775 0.930 . S
C788 C787 1.376 . S
C788 C789 1.388 . S
C789 H776 0.930 . S
C789 C788 1.388 . S
C789 C790 1.390 . S
C790 C789 1.390 . S
C790 C791 1.394 . S
C790 C796 1.465 . S
C791 C786 1.399 . S
C791 C790 1.394 . S
C791 C792 1.516 . S
C792 C791 1.516 . S
C792 C793 1.502 . S
C792 C794 1.561 . S
C792 C795 1.526 . S
C793 H777 0.959 . S
C793 H778 0.959 . S
C793 H779 0.961 . S
C793 C792 1.502 . S
C794 H780 0.960 . S
C794 H781 0.961 . S
C794 H782 0.959 . S
C794 C792 1.561 . S
C795 C792 1.526 . S
C795 C796 1.396 . S
C795 C800 1.390 . S
C796 C790 1.465 . S
C796 C795 1.396 . S
C796 C797 1.399 . S
C797 H783 0.929 . S
C797 C796 1.399 . S
C797 C798 1.385 . S
C798 H784 0.931 . S
C798 C797 1.385 . S
C798 C799 1.389 . S
C799 C798 1.389 . S
C799 C800 1.387 . S
C800 H785 0.930 . S
C800 C795 1.390 . S
C800 C799 1.387 . S
H801 C813 0.930 . S
H802 C815 0.930 . S
H803 C816 0.930 . S
H804 C820 0.959 . S
H805 C820 0.959 . S
H806 C820 0.961 . S
H807 C821 0.960 . S
H808 C821 0.961 . S
H809 C821 0.959 . S
H810 C824 0.929 . S
H811 C825 0.931 . S
H812 C827 0.930 . S
C813 H801 0.930 . S
C813 C814 1.399 . S
C813 C818 1.399 . S
C814 C813 1.399 . S
C814 C815 1.376 . S
C815 H802 0.930 . S
C815 C814 1.376 . S
C815 C816 1.388 . S
C816 H803 0.930 . S
C816 C815 1.388 . S
C816 C817 1.390 . S
C817 C816 1.390 . S
C817 C818 1.394 . S
C817 C823 1.465 . S
C818 C813 1.399 . S
C818 C817 1.394 . S
C818 C819 1.516 . S
C819 C818 1.516 . S
C819 C820 1.502 . S
C819 C821 1.561 . S
C819 C822 1.526 . S
C820 H804 0.959 . S
C820 H805 0.959 . S
C820 H806 0.961 . S
C820 C819 1.502 . S
C821 H807 0.960 . S
C821 H808 0.961 . S
C821 H809 0.959 . S
C821 C819 1.561 . S
C822 C819 1.526 . S
C822 C823 1.396 . S
C822 C827 1.390 . S
C823 C817 1.465 . S
C823 C822 1.396 . S
C823 C824 1.399 . S
C824 H810 0.929 . S
C824 C823 1.399 . S
C824 C825 1.385 . S
C825 H811 0.931 . S
C825 C824 1.385 . S
C825 C826 1.389 . S
C826 C825 1.389 . S
C826 C827 1.387 . S
C827 H812 0.930 . S
C827 C822 1.390 . S
C827 C826 1.387 . S
H828 C840 0.930 . S
H829 C842 0.930 . S
H830 C843 0.930 . S
H831 C847 0.959 . S
H832 C847 0.959 . S
H833 C847 0.961 . S
H834 C848 0.960 . S
H835 C848 0.961 . S
H836 C848 0.959 . S
H837 C851 0.929 . S
H838 C852 0.931 . S
H839 C854 0.930 . S
C840 H828 0.930 . S
C840 C841 1.399 . S
C840 C845 1.399 . S
C841 C840 1.399 . S
C841 C842 1.376 . S
C842 H829 0.930 . S
C842 C841 1.376 . S
C842 C843 1.388 . S
C843 H830 0.930 . S
C843 C842 1.388 . S
C843 C844 1.390 . S
C844 C843 1.390 . S
C844 C845 1.394 . S
C844 C850 1.465 . S
C845 C840 1.399 . S
C845 C844 1.394 . S
C845 C846 1.516 . S
C846 C845 1.516 . S
C846 C847 1.502 . S
C846 C848 1.561 . S
C846 C849 1.526 . S
C847 H831 0.959 . S
C847 H832 0.959 . S
C847 H833 0.961 . S
C847 C846 1.502 . S
C848 H834 0.960 . S
C848 H835 0.961 . S
C848 H836 0.959 . S
C848 C846 1.561 . S
C849 C846 1.526 . S
C849 C850 1.396 . S
C849 C854 1.390 . S
C850 C844 1.465 . S
C850 C849 1.396 . S
C850 C851 1.399 . S
C851 H837 0.929 . S
C851 C850 1.399 . S
C851 C852 1.385 . S
C852 H838 0.931 . S
C852 C851 1.385 . S
C852 C853 1.389 . S
C853 C852 1.389 . S
C853 C854 1.387 . S
C854 H839 0.930 . S
C854 C849 1.390 . S
C854 C853 1.387 . S
H855 C867 0.930 . S
H856 C869 0.930 . S
H857 C870 0.930 . S
H858 C874 0.959 . S
H859 C874 0.959 . S
H860 C874 0.961 . S
H861 C875 0.960 . S
H862 C875 0.961 . S
H863 C875 0.959 . S
H864 C878 0.929 . S
H865 C879 0.931 . S
H866 C881 0.930 . S
C867 H855 0.930 . S
C867 C868 1.399 . S
C867 C872 1.399 . S
C868 C867 1.399 . S
C868 C869 1.376 . S
C869 H856 0.930 . S
C869 C868 1.376 . S
C869 C870 1.388 . S
C870 H857 0.930 . S
C870 C869 1.388 . S
C870 C871 1.390 . S
C871 C870 1.390 . S
C871 C872 1.394 . S
C871 C877 1.465 . S
C872 C867 1.399 . S
C872 C871 1.394 . S
C872 C873 1.516 . S
C873 C872 1.516 . S
C873 C874 1.502 . S
C873 C875 1.561 . S
C873 C876 1.526 . S
C874 H858 0.959 . S
C874 H859 0.959 . S
C874 H860 0.961 . S
C874 C873 1.502 . S
C875 H861 0.960 . S
C875 H862 0.961 . S
C875 H863 0.959 . S
C875 C873 1.561 . S
C876 C873 1.526 . S
C876 C877 1.396 . S
C876 C881 1.390 . S
C877 C871 1.465 . S
C877 C876 1.396 . S
C877 C878 1.399 . S
C878 H864 0.929 . S
C878 C877 1.399 . S
C878 C879 1.385 . S
C879 H865 0.931 . S
C879 C878 1.385 . S
C879 C880 1.389 . S
C880 C879 1.389 . S
C880 C881 1.387 . S
C881 H866 0.930 . S
C881 C876 1.390 . S
C881 C880 1.387 . S
H882 C894 0.930 . S
H883 C896 0.930 . S
H884 C897 0.930 . S
H885 C901 0.959 . S
H886 C901 0.959 . S
H887 C901 0.961 . S
H888 C902 0.960 . S
H889 C902 0.961 . S
H890 C902 0.959 . S
H891 C905 0.929 . S
H892 C906 0.931 . S
H893 C908 0.930 . S
C894 H882 0.930 . S
C894 C895 1.399 . S
C894 C899 1.399 . S
C895 C894 1.399 . S
C895 C896 1.376 . S
C896 H883 0.930 . S
C896 C895 1.376 . S
C896 C897 1.388 . S
C897 H884 0.930 . S
C897 C896 1.388 . S
C897 C898 1.390 . S
C898 C897 1.390 . S
C898 C899 1.394 . S
C898 C904 1.465 . S
C899 C894 1.399 . S
C899 C898 1.394 . S
C899 C900 1.516 . S
C900 C899 1.516 . S
C900 C901 1.502 . S
C900 C902 1.561 . S
C900 C903 1.526 . S
C901 H885 0.959 . S
C901 H886 0.959 . S
C901 H887 0.961 . S
C901 C900 1.502 . S
C902 H888 0.960 . S
C902 H889 0.961 . S
C902 H890 0.959 . S
C902 C900 1.561 . S
C903 C900 1.526 . S
C903 C904 1.396 . S
C903 C908 1.390 . S
C904 C898 1.465 . S
C904 C903 1.396 . S
C904 C905 1.399 . S
C905 H891 0.929 . S
C905 C904 1.399 . S
C905 C906 1.385 . S
C906 H892 0.931 . S
C906 C905 1.385 . S
C906 C907 1.389 . S
C907 C906 1.389 . S
C907 C908 1.387 . S
C908 H893 0.930 . S
C908 C903 1.390 . S
C908 C907 1.387 . S
H909 C921 0.930 . S
H910 C923 0.930 . S
H911 C924 0.930 . S
H912 C928 0.959 . S
H913 C928 0.959 . S
H914 C928 0.961 . S
H915 C929 0.960 . S
H916 C929 0.961 . S
H917 C929 0.959 . S
H918 C932 0.929 . S
H919 C933 0.931 . S
H920 C935 0.930 . S
C921 H909 0.930 . S
C921 C922 1.399 . S
C921 C926 1.399 . S
C922 C921 1.399 . S
C922 C923 1.376 . S
C923 H910 0.930 . S
C923 C922 1.376 . S
C923 C924 1.388 . S
C924 H911 0.930 . S
C924 C923 1.388 . S
C924 C925 1.390 . S
C925 C924 1.390 . S
C925 C926 1.394 . S
C925 C931 1.465 . S
C926 C921 1.399 . S
C926 C925 1.394 . S
C926 C927 1.516 . S
C927 C926 1.516 . S
C927 C928 1.502 . S
C927 C929 1.561 . S
C927 C930 1.526 . S
C928 H912 0.959 . S
C928 H913 0.959 . S
C928 H914 0.961 . S
C928 C927 1.502 . S
C929 H915 0.960 . S
C929 H916 0.961 . S
C929 H917 0.959 . S
C929 C927 1.561 . S
C930 C927 1.526 . S
C930 C931 1.396 . S
C930 C935 1.390 . S
C931 C925 1.465 . S
C931 C930 1.396 . S
C931 C932 1.399 . S
C932 H918 0.929 . S
C932 C931 1.399 . S
C932 C933 1.385 . S
C933 H919 0.931 . S
C933 C932 1.385 . S
C933 C934 1.389 . S
C934 C933 1.389 . S
C934 C935 1.387 . S
C935 H920 0.930 . S
C935 C930 1.390 . S
C935 C934 1.387 . S
H936 C948 0.930 . S
H937 C950 0.930 . S
H938 C951 0.930 . S
H939 C955 0.959 . S
H940 C955 0.959 . S
H941 C955 0.961 . S
H942 C956 0.960 . S
H943 C956 0.961 . S
H944 C956 0.959 . S
H945 C959 0.929 . S
H946 C960 0.931 . S
H947 C962 0.930 . S
C948 H936 0.930 . S
C948 C949 1.399 . S
C948 C953 1.399 . S
C949 C948 1.399 . S
C949 C950 1.376 . S
C950 H937 0.930 . S
C950 C949 1.376 . S
C950 C951 1.388 . S
C951 H938 0.930 . S
C951 C950 1.388 . S
C951 C952 1.390 . S
C952 C951 1.390 . S
C952 C953 1.394 . S
C952 C958 1.465 . S
C953 C948 1.399 . S
C953 C952 1.394 . S
C953 C954 1.516 . S
C954 C953 1.516 . S
C954 C955 1.502 . S
C954 C956 1.561 . S
C954 C957 1.526 . S
C955 H939 0.959 . S
C955 H940 0.959 . S
C955 H941 0.961 . S
C955 C954 1.502 . S
C956 H942 0.960 . S
C956 H943 0.961 . S
C956 H944 0.959 . S
C956 C954 1.561 . S
C957 C954 1.526 . S
C957 C958 1.396 . S
C957 C962 1.390 . S
C958 C952 1.465 . S
C958 C957 1.396 . S
C958 C959 1.399 . S
C959 H945 0.929 . S
C959 C958 1.399 . S
C959 C960 1.385 . S
C960 H946 0.931 . S
C960 C959 1.385 . S
C960 C961 1.389 . S
C961 C960 1.389 . S
C961 C962 1.387 . S
C962 H947 0.930 . S
C962 C957 1.390 . S
C962 C961 1.387 . S
H963 C975 0.930 . S
H964 C977 0.930 . S
H965 C978 0.930 . S
H966 C982 0.959 . S
H967 C982 0.959 . S
H968 C982 0.961 . S
H969 C983 0.960 . S
H970 C983 0.961 . S
H971 C983 0.959 . S
H972 C986 0.929 . S
H973 C987 0.931 . S
H974 C989 0.930 . S
C975 H963 0.930 . S
C975 C976 1.399 . S
C975 C980 1.399 . S
C976 C975 1.399 . S
C976 C977 1.376 . S
C977 H964 0.930 . S
C977 C976 1.376 . S
C977 C978 1.388 . S
C978 H965 0.930 . S
C978 C977 1.388 . S
C978 C979 1.390 . S
C979 C978 1.390 . S
C979 C980 1.394 . S
C979 C985 1.465 . S
C980 C975 1.399 . S
C980 C979 1.394 . S
C980 C981 1.516 . S
C981 C980 1.516 . S
C981 C982 1.502 . S
C981 C983 1.561 . S
C981 C984 1.526 . S
C982 H966 0.959 . S
C982 H967 0.959 . S
C982 H968 0.961 . S
C982 C981 1.502 . S
C983 H969 0.960 . S
C983 H970 0.961 . S
C983 H971 0.959 . S
C983 C981 1.561 . S
C984 C981 1.526 . S
C984 C985 1.396 . S
C984 C989 1.390 . S
C985 C979 1.465 . S
C985 C984 1.396 . S
C985 C986 1.399 . S
C986 H972 0.929 . S
C986 C985 1.399 . S
C986 C987 1.385 . S
C987 H973 0.931 . S
C987 C986 1.385 . S
C987 C988 1.389 . S
C988 C987 1.389 . S
C988 C989 1.387 . S
C989 H974 0.930 . S
C989 C984 1.390 . S
C989 C988 1.387 . S
C517 C495 1.439 . S
C529 C67 1.365 . S
C544 C75 1.429 . S
C556 C151 1.346 . S
C571 C159 1.435 . S
C583 C235 1.416 . S
C598 C243 1.447 . S
C610 C319 1.394 . S
C625 C403 1.419 . S
C637 C327 1.437 . S
C652 C487 1.416 . S
C664 C411 1.448 . S
C679 C72 1.269 . S
C691 C63 1.343 . S
C706 C156 1.337 1_556 S
C718 C147 1.276 . S
C733 C240 1.260 . S
C745 C231 1.362 1_554 S
C760 C324 1.266 . S
C772 C315 1.362 . S
C787 C399 1.270 . S
C799 C408 1.360 1_556 S
C814 C492 1.363 . S
C826 C483 1.263 1_554 S
C841 C56 1.404 . S
C853 C402 1.445 . S
C868 C140 1.344 . S
C880 C486 1.403 . S
C895 C66 1.463 . S
C907 C224 1.424 . S
C922 C150 1.463 . S
C934 C308 1.424 . S
C949 C392 1.315 . S
C961 C234 1.386 . S
C976 C318 1.396 . S
C988 C476 1.326 . S
