# Generated by pormake.
# Topology wkb, (5)-cn, num edge types: 1
# Building blocks:
#     Node 0, Type 0, BuildingBlock: BEQFEK_clean_sbu_0, # of connection points: 5
#     Node 1, Type 0, BuildingBlock: BEQFEK_clean_sbu_0, # of connection points: 5
#     Node 2, Type 0, BuildingBlock: BEQFEK_clean_sbu_0, # of connection points: 5
#     Node 3, Type 0, BuildingBlock: BEQFEK_clean_sbu_0, # of connection points: 5
#     Node 4, Type 0, BuildingBlock: BEQFEK_clean_sbu_0, # of connection points: 5
#     Node 5, Type 0, BuildingBlock: BEQFEK_clean_sbu_0, # of connection points: 5
#     Node 6, Type 0, BuildingBlock: BEQFEK_clean_sbu_0, # of connection points: 5
#     Node 7, Type 0, BuildingBlock: BEQFEK_clean_sbu_0, # of connection points: 5
#     Node 8, Type 0, BuildingBlock: BEQFEK_clean_sbu_0, # of connection points: 5
#     Node 9, Type 0, BuildingBlock: BEQFEK_clean_sbu_0, # of connection points: 5
#     Node 10, Type 0, BuildingBlock: BEQFEK_clean_sbu_0, # of connection points: 5
#     Node 11, Type 0, BuildingBlock: BEQFEK_clean_sbu_0, # of connection points: 5
#     Edge 12, Type (0, 0), BuildingBlock: TEMPAE_clean_linker_10, # of connection points: 2
#     Edge 13, Type (0, 0), BuildingBlock: TEMPAE_clean_linker_10, # of connection points: 2
#     Edge 14, Type (0, 0), BuildingBlock: TEMPAE_clean_linker_10, # of connection points: 2
#     Edge 15, Type (0, 0), BuildingBlock: TEMPAE_clean_linker_10, # of connection points: 2
#     Edge 16, Type (0, 0), BuildingBlock: TEMPAE_clean_linker_10, # of connection points: 2
#     Edge 17, Type (0, 0), BuildingBlock: TEMPAE_clean_linker_10, # of connection points: 2
#     Edge 18, Type (0, 0), BuildingBlock: TEMPAE_clean_linker_10, # of connection points: 2
#     Edge 19, Type (0, 0), BuildingBlock: TEMPAE_clean_linker_10, # of connection points: 2
#     Edge 20, Type (0, 0), BuildingBlock: TEMPAE_clean_linker_10, # of connection points: 2
#     Edge 21, Type (0, 0), BuildingBlock: TEMPAE_clean_linker_10, # of connection points: 2
#     Edge 22, Type (0, 0), BuildingBlock: TEMPAE_clean_linker_10, # of connection points: 2
#     Edge 23, Type (0, 0), BuildingBlock: TEMPAE_clean_linker_10, # of connection points: 2
#     Edge 24, Type (0, 0), BuildingBlock: TEMPAE_clean_linker_10, # of connection points: 2
#     Edge 25, Type (0, 0), BuildingBlock: TEMPAE_clean_linker_10, # of connection points: 2
#     Edge 26, Type (0, 0), BuildingBlock: TEMPAE_clean_linker_10, # of connection points: 2
#     Edge 27, Type (0, 0), BuildingBlock: TEMPAE_clean_linker_10, # of connection points: 2
#     Edge 28, Type (0, 0), BuildingBlock: TEMPAE_clean_linker_10, # of connection points: 2
#     Edge 29, Type (0, 0), BuildingBlock: TEMPAE_clean_linker_10, # of connection points: 2
#     Edge 30, Type (0, 0), BuildingBlock: TEMPAE_clean_linker_10, # of connection points: 2
#     Edge 31, Type (0, 0), BuildingBlock: TEMPAE_clean_linker_10, # of connection points: 2
#     Edge 32, Type (0, 0), BuildingBlock: TEMPAE_clean_linker_10, # of connection points: 2
#     Edge 33, Type (0, 0), BuildingBlock: TEMPAE_clean_linker_10, # of connection points: 2
#     Edge 34, Type (0, 0), BuildingBlock: TEMPAE_clean_linker_10, # of connection points: 2
#     Edge 35, Type (0, 0), BuildingBlock: TEMPAE_clean_linker_10, # of connection points: 2
#     Edge 36, Type (0, 0), BuildingBlock: TEMPAE_clean_linker_10, # of connection points: 2
#     Edge 37, Type (0, 0), BuildingBlock: TEMPAE_clean_linker_10, # of connection points: 2
#     Edge 38, Type (0, 0), BuildingBlock: TEMPAE_clean_linker_10, # of connection points: 2
#     Edge 39, Type (0, 0), BuildingBlock: TEMPAE_clean_linker_10, # of connection points: 2
#     Edge 40, Type (0, 0), BuildingBlock: TEMPAE_clean_linker_10, # of connection points: 2
#     Edge 41, Type (0, 0), BuildingBlock: TEMPAE_clean_linker_10, # of connection points: 2
# Relax obj value: 0.115
# Max RMSD: 0.136
# Mean RMSD: 0.136
data_MOF--net-wkb--node1-BEQFEK_clean_sbu_0--edge1-TEMPAE_clean_linker_10
_symmetry_space_group_name_H-M    P1
_symmetry_Int_Tables_number       1
_symmetry_cell_setting            triclinic
loop_
_symmetry_equiv_pos_as_xyz
'x, y, z'
_cell_length_a     44.728793
_cell_length_b     44.698139
_cell_length_c     41.718242
_cell_angle_alpha  90.003969
_cell_angle_beta   89.982432
_cell_angle_gamma 119.97464
loop_
_atom_site_label
_atom_site_type_symbol
_atom_site_fract_x
_atom_site_fract_y
_atom_site_fract_z
_atom_type_partial_charge
Co0 Co 0.02964 0.35643 0.0166 0.0
Co1 Co 0.06741 0.36426 0.08139 0.0
C2 C 0.9947 0.30663 0.07108 0.0
O3 O 0.99408 0.31652 0.04245 0.0
O4 O 0.02154 0.32266 0.08858 0.0
C5 C 0.99778 0.32712 0.9547 0.0
O6 O 0.98425 0.29664 0.96841 0.0
C7 C 0.09977 0.35056 0.13696 0.0
C8 C 0.14133 0.40378 0.14761 0.0
C9 C 0.12795 0.36967 0.15681 0.0
N10 N 0.0971 0.37253 0.11673 0.0
N11 N 0.12172 0.40427 0.1235 0.0
C12 C 0.07768 0.31212 0.13515 0.0
H13 H 0.06666 0.30411 0.11075 0.0
H14 H 0.0928 0.29944 0.14148 0.0
H15 H 0.05605 0.30354 0.15242 0.0
C16 C 0.09159 0.35406 0.99228 0.0
N17 N 0.07277 0.35701 0.01615 0.0
N18 N 0.08847 0.35983 0.04356 0.0
C19 C 0.1176 0.35859 0.03804 0.0
C20 C 0.12052 0.35485 0.00533 0.0
C21 C 0.08298 0.35206 0.95742 0.0
H22 H 0.07632 0.37219 0.95154 0.0
H23 H 0.06043 0.32633 0.95215 0.0
H24 H 0.1049 0.35596 0.94207 0.0
O25 O 0.03456 0.4003 0.03396 0.0
O26 O 0.06203 0.40555 0.07954 0.0
H27 H 0.15279 0.3838 0.07665 0.0
H28 H 0.16177 0.35472 0.05402 0.0
C29 C 0.14101 0.35878 0.06376 0.0
H30 H 0.12576 0.33789 0.08112 0.0
H31 H 0.1257 0.4262 0.11104 0.0
O32 O 0.01529 0.35408 0.97149 0.0
C33 C 0.04832 0.41671 0.05972 0.0
Co34 Co 0.68575 0.02554 0.18284 0.0
Co35 Co 0.71332 0.06093 0.24921 0.0
C36 C 0.69675 0.9877 0.23679 0.0
O37 O 0.68777 0.98816 0.2078 0.0
O38 O 0.70707 0.01406 0.25486 0.0
C39 C 0.68421 0.99512 0.12027 0.0
O40 O 0.69929 0.97973 0.13413 0.0
C41 C 0.75758 0.09041 0.3069 0.0
C42 C 0.73868 0.12488 0.32384 0.0
C43 C 0.76176 0.11373 0.33086 0.0
N44 N 0.73312 0.08807 0.28657 0.0
N45 N 0.722 0.10873 0.29692 0.0
C46 C 0.77527 0.06957 0.30429 0.0
H47 H 0.77793 0.0606 0.32838 0.0
H48 H 0.76093 0.04721 0.28814 0.0
H49 H 0.80153 0.08585 0.29431 0.0
C50 C 0.75169 0.08756 0.16166 0.0
N51 N 0.72886 0.06816 0.18461 0.0
N52 N 0.74049 0.08313 0.21256 0.0
C53 C 0.77092 0.11254 0.20827 0.0
C54 C 0.77916 0.11621 0.17585 0.0
C55 C 0.74656 0.07984 0.12655 0.0
H56 H 0.74886 0.05673 0.12141 0.0
H57 H 0.7658 0.10176 0.11192 0.0
H58 H 0.72041 0.07435 0.11956 0.0
O59 O 0.64676 0.03105 0.19919 0.0
O60 O 0.66751 0.05709 0.24566 0.0
H61 H 0.81627 0.15847 0.22609 0.0
H62 H 0.79954 0.12103 0.25145 0.0
C63 C 0.79232 0.13575 0.23494 0.0
H64 H 0.7769 0.1446 0.24863 0.0
H65 H 0.70293 0.11182 0.28558 0.0
O66 O 0.6755 0.0132 0.1371 0.0
C67 C 0.64352 0.04449 0.22492 0.0
Co68 Co 0.66555 0.67711 0.34841 0.0
Co69 Co 0.65888 0.70548 0.41486 0.0
C70 C 0.71474 0.68803 0.4021 0.0
O71 O 0.70465 0.67863 0.37331 0.0
O72 O 0.69948 0.69911 0.42032 0.0
C73 C 0.69454 0.67569 0.28607 0.0
O74 O 0.72487 0.69097 0.30013 0.0
C75 C 0.6739 0.75014 0.47245 0.0
C76 C 0.62057 0.73185 0.48906 0.0
C77 C 0.6548 0.75473 0.4962 0.0
N78 N 0.65174 0.72566 0.45213 0.0
N79 N 0.61999 0.71491 0.46229 0.0
C80 C 0.71238 0.76747 0.47 0.0
H81 H 0.72024 0.75275 0.45418 0.0
H82 H 0.72262 0.79365 0.45969 0.0
H83 H 0.72389 0.77033 0.49417 0.0
C84 C 0.66965 0.74306 0.32704 0.0
N85 N 0.66645 0.72042 0.3501 0.0
N86 N 0.66366 0.73244 0.37805 0.0
C87 C 0.6649 0.76298 0.37365 0.0
C88 C 0.66897 0.77084 0.34115 0.0
C89 C 0.67146 0.73745 0.2919 0.0
H90 H 0.65079 0.71113 0.28538 0.0
H91 H 0.69682 0.73991 0.28628 0.0
H92 H 0.66827 0.75639 0.27728 0.0
O93 O 0.62111 0.63856 0.36493 0.0
O94 O 0.61677 0.65956 0.41165 0.0
H95 H 0.6395 0.76986 0.41406 0.0
H96 H 0.66547 0.80899 0.39131 0.0
C97 C 0.66375 0.78483 0.40026 0.0
H98 H 0.68567 0.79171 0.41668 0.0
H99 H 0.59782 0.69594 0.45091 0.0
O100 O 0.66759 0.66668 0.30274 0.0
C101 C 0.6049 0.6355 0.39093 0.0
Co102 Co 0.99862 0.66507 0.51262 0.0
Co103 Co 0.96226 0.65634 0.57889 0.0
C104 C 0.0335 0.71415 0.56903 0.0
O105 O 0.03343 0.7041 0.54032 0.0
O106 O 1.00706 0.69824 0.58695 0.0
C107 C 0.01738 0.70201 0.45424 0.0
O108 O 1.01046 0.72245 0.47143 0.0
C109 C 0.93122 0.6653 0.63812 0.0
C110 C 0.88919 0.61161 0.64597 0.0
C111 C 0.90391 0.64471 0.65836 0.0
N112 N 0.93225 0.64518 0.61468 0.0
N113 N 0.90718 0.61315 0.61962 0.0
C114 C 0.95743 0.70272 0.64192 0.0
H115 H 0.98332 0.70533 0.64409 0.0
H116 H 0.9576 0.71709 0.62018 0.0
H117 H 0.95268 0.71419 0.66351 0.0
C118 C 0.93193 0.65966 0.49088 0.0
N119 N 0.95383 0.66114 0.51395 0.0
N120 N 0.94054 0.66128 0.54204 0.0
C121 C 0.91092 0.66185 0.53769 0.0
C122 C 0.90459 0.66102 0.50504 0.0
C123 C 0.93392 0.65192 0.45633 0.0
H124 H 0.95145 0.64138 0.45284 0.0
H125 H 0.94284 0.67573 0.4421 0.0
H126 H 0.90784 0.6329 0.44735 0.0
O127 O 0.99528 0.62098 0.52719 0.0
O128 O 0.96936 0.61613 0.57386 0.0
H129 H 0.87459 0.63872 0.57582 0.0
H130 H 0.87191 0.67289 0.55537 0.0
C131 C 0.88983 0.66438 0.56428 0.0
H132 H 0.90709 0.68297 0.58256 0.0
H133 H 0.90224 0.59235 0.60483 0.0
O134 O 0.01551 0.67546 0.46746 0.0
C135 C 0.98226 0.60473 0.55327 0.0
Co136 Co 0.34346 0.99185 0.6837 0.0
Co137 Co 0.31491 0.95509 0.74945 0.0
C138 C 0.33086 0.02823 0.7382 0.0
O139 O 0.34047 0.02832 0.70932 0.0
O140 O 0.32034 1.00159 0.75596 0.0
C141 C 0.345 0.02291 0.62148 0.0
O142 O 0.32862 0.03699 0.63531 0.0
C143 C 0.27039 0.92352 0.80687 0.0
C144 C 0.28972 0.88892 0.82231 0.0
C145 C 0.26647 0.89962 0.83013 0.0
N146 N 0.29492 0.92666 0.78616 0.0
N147 N 0.30624 0.90586 0.7956 0.0
C148 C 0.25247 0.94419 0.80535 0.0
H149 H 0.2513 0.95376 0.82961 0.0
H150 H 0.26573 0.96613 0.78853 0.0
H151 H 0.22561 0.92755 0.79689 0.0
C152 C 0.27834 0.92985 0.66115 0.0
N153 N 0.30067 0.94891 0.68454 0.0
N154 N 0.28844 0.93354 0.71224 0.0
C155 C 0.25798 0.90433 0.70736 0.0
C156 C 0.25046 0.90111 0.67478 0.0
C157 C 0.28427 0.93798 0.62615 0.0
H158 H 0.31087 0.94442 0.61979 0.0
H159 H 0.28113 0.96056 0.62082 0.0
H160 H 0.26591 0.91589 0.61116 0.0
O161 O 0.38247 0.9866 0.70011 0.0
O162 O 0.36123 0.95985 0.74621 0.0
H163 H 0.25024 0.87108 0.74718 0.0
H164 H 0.21139 0.85919 0.72447 0.0
C165 C 0.23575 0.88112 0.73367 0.0
H166 H 0.22928 0.89623 0.75043 0.0
H167 H 0.32542 0.9033 0.78383 0.0
O168 O 0.35441 1.00535 0.63825 0.0
C169 C 0.38554 0.97297 0.72578 0.0
Co170 Co 0.35956 0.33784 0.84944 0.0
Co171 Co 0.3664 0.31006 0.91604 0.0
C172 C 0.30982 0.32643 0.90275 0.0
O173 O 0.31984 0.33559 0.8739 0.0
O174 O 0.3255 0.31603 0.9212 0.0
C175 C 0.33116 0.33918 0.78671 0.0
O176 O 0.30062 0.32396 0.80041 0.0
C177 C 0.35179 0.26603 0.97407 0.0
C178 C 0.4053 0.28391 0.98984 0.0
C179 C 0.37113 0.26137 0.99751 0.0
N180 N 0.37375 0.2902 0.9534 0.0
N181 N 0.40561 0.30073 0.96308 0.0
C182 C 0.31329 0.24898 0.97217 0.0
H183 H 0.30538 0.26445 0.9575 0.0
H184 H 0.30282 0.22325 0.96078 0.0
H185 H 0.30204 0.24517 0.99657 0.0
C186 C 0.35619 0.27209 0.82844 0.0
N187 N 0.3592 0.2948 0.85136 0.0
N188 N 0.36196 0.28297 0.87941 0.0
C189 C 0.36084 0.25245 0.87523 0.0
C190 C 0.35692 0.24443 0.84275 0.0
C191 C 0.35446 0.27753 0.79326 0.0
H192 H 0.37512 0.30385 0.78669 0.0
H193 H 0.3291 0.27499 0.78751 0.0
H194 H 0.35778 0.25858 0.77878 0.0
O195 O 0.40372 0.37684 0.86607 0.0
O196 O 0.40833 0.35611 0.91281 0.0
H197 H 0.38629 0.24559 0.91558 0.0
H198 H 0.35967 0.2063 0.8933 0.0
C199 C 0.36186 0.23073 0.90202 0.0
H200 H 0.34018 0.22437 0.91861 0.0
H201 H 0.42768 0.31942 0.95133 0.0
O202 O 0.35786 0.34812 0.8037 0.0
C203 C 0.42 0.38013 0.89205 0.0
Co204 Co 0.66856 0.99274 0.81747 0.0
Co205 Co 0.66089 0.95722 0.75116 0.0
C206 C 0.71749 0.03041 0.76341 0.0
O207 O 0.70792 0.02996 0.79237 0.0
O208 O 0.70157 1.00403 0.74535 0.0
C209 C 0.69789 0.02275 0.87987 0.0
O210 O 0.72827 0.03696 0.86591 0.0
C211 C 0.67531 0.92733 0.69341 0.0
C212 C 0.62182 0.89243 0.67713 0.0
C213 C 0.65598 0.90366 0.66975 0.0
N214 N 0.65336 0.92977 0.71393 0.0
N215 N 0.6215 0.90885 0.70396 0.0
C216 C 0.71382 0.94834 0.69558 0.0
H217 H 0.72516 0.95685 0.67133 0.0
H218 H 0.72191 0.97102 0.71133 0.0
H219 H 0.72402 0.93234 0.70583 0.0
C220 C 0.67197 0.93046 0.83892 0.0
N221 N 0.66888 0.95 0.81588 0.0
N222 N 0.6658 0.93507 0.78794 0.0
C223 C 0.66679 0.90564 0.79231 0.0
C224 C 0.67096 0.90183 0.82479 0.0
C225 C 0.67397 0.93795 0.87405 0.0
H226 H 0.65373 0.94421 0.88063 0.0
H227 H 0.6996 0.96047 0.87965 0.0
H228 H 0.67028 0.91561 0.88866 0.0
O229 O 0.62414 0.98728 0.80115 0.0
O230 O 0.61897 0.96128 0.75466 0.0
H231 H 0.64092 0.87316 0.75216 0.0
H232 H 0.66725 0.86018 0.77453 0.0
C233 C 0.66535 0.88254 0.76567 0.0
H234 H 0.68705 0.89753 0.749 0.0
H235 H 0.59945 0.90577 0.71551 0.0
O236 O 0.67087 1.00543 0.86313 0.0
C237 C 0.60753 0.9739 0.77538 0.0
Co238 Co 0.68418 0.66232 0.98345 0.0
Co239 Co 0.7124 0.65407 0.91761 0.0
C240 C 0.69666 0.71136 0.92903 0.0
O241 O 0.68714 0.70182 0.95793 0.0
O242 O 0.70706 0.6952 0.91117 0.0
C243 C 0.68295 0.69183 0.04576 0.0
O244 O 0.6994 0.72232 0.032 0.0
C245 C 0.75705 0.66736 0.86044 0.0
C246 C 0.7368 0.61372 0.84363 0.0
C247 C 0.76061 0.64772 0.83661 0.0
N248 N 0.73216 0.64574 0.88072 0.0
N249 N 0.72029 0.61378 0.87048 0.0
C250 C 0.77546 0.70591 0.86281 0.0
H251 H 0.76475 0.71436 0.8825 0.0
H252 H 0.80326 0.71595 0.8675 0.0
H253 H 0.77333 0.71702 0.8397 0.0
C254 C 0.74936 0.66538 0.00573 0.0
N255 N 0.72695 0.66211 0.98243 0.0
N256 N 0.7391 0.65903 0.95467 0.0
C257 C 0.76962 0.66036 0.95941 0.0
C258 C 0.77724 0.66462 0.99197 0.0
C259 C 0.74349 0.66746 0.04077 0.0
H260 H 0.71688 0.64733 0.04712 0.0
H261 H 0.74675 0.69319 0.04624 0.0
H262 H 0.76182 0.66357 0.05566 0.0
O263 O 0.64506 0.61807 0.96717 0.0
O264 O 0.66611 0.61248 0.921 0.0
H265 H 0.77721 0.63537 0.91905 0.0
H266 H 0.81602 0.66152 0.94212 0.0
C267 C 0.79185 0.65958 0.93299 0.0
H268 H 0.7987 0.68158 0.91663 0.0
H269 H 0.70072 0.59193 0.88178 0.0
O270 O 0.67341 0.66489 0.02892 0.0
C271 C 0.64188 0.60132 0.94151 0.0
Co272 Co 0.02878 0.67997 0.15448 0.0
Co273 Co 0.06508 0.70755 0.08825 0.0
C274 C 0.99385 0.69412 0.09812 0.0
O275 O 0.99389 0.68416 0.12683 0.0
O276 O 0.02029 0.70461 0.08023 0.0
C277 C 1.01008 0.69821 0.21286 0.0
O278 O 0.01699 0.72554 0.19563 0.0
C279 C 0.09579 0.7482 0.02945 0.0
C280 C 0.13638 0.73496 0.01952 0.0
C281 C 0.12219 0.75428 0.0083 0.0
N282 N 0.09468 0.7264 0.05224 0.0
N283 N 0.11893 0.71855 0.0461 0.0
C284 C 0.07023 0.76041 0.02699 0.0
H285 H 0.04472 0.73806 0.02076 0.0
H286 H 0.06757 0.77034 0.05057 0.0
H287 H 0.07736 0.78045 0.00829 0.0
C288 C 0.09549 0.7412 0.17622 0.0
N289 N 0.07358 0.72084 0.15314 0.0
N290 N 0.0869 0.73424 0.12506 0.0
C291 C 0.11658 0.76438 0.12941 0.0
C292 C 0.12289 0.76987 0.16207 0.0
C293 C 0.0935 0.73142 0.21075 0.0
H294 H 0.07595 0.70336 0.21421 0.0
H295 H 0.08461 0.74632 0.22502 0.0
H296 H 0.11957 0.73844 0.21972 0.0
O297 O 0.03218 0.63924 0.13992 0.0
O298 O 0.05809 0.66026 0.09324 0.0
H299 H 0.15225 0.77688 0.09079 0.0
H300 H 0.15634 0.81411 0.11175 0.0
C301 C 0.13777 0.78789 0.1028 0.0
H302 H 0.1206 0.78991 0.08488 0.0
H303 H 0.1236 0.70201 0.06016 0.0
O304 O 1.01193 0.67351 0.19965 0.0
C305 C 0.04522 0.63599 0.11385 0.0
Co306 Co 0.36173 0.02569 0.31849 0.0
Co307 Co 0.36811 0.06015 0.25181 0.0
C308 C 0.31241 0.98691 0.26506 0.0
O309 O 0.32255 0.9878 0.29386 0.0
O310 O 0.32761 0.01312 0.2467 0.0
C311 C 0.33307 0.99574 0.38106 0.0
O312 O 0.30268 0.9805 0.36709 0.0
C313 C 0.35248 0.08915 0.19422 0.0
C314 C 0.40557 0.12357 0.17667 0.0
C315 C 0.37126 0.11235 0.17005 0.0
N316 N 0.37489 0.08695 0.21429 0.0
N317 N 0.4065 0.10758 0.20357 0.0
C318 C 0.31403 0.06824 0.19723 0.0
H319 H 0.30632 0.04651 0.21411 0.0
H320 H 0.30394 0.08474 0.20648 0.0
H321 H 0.30222 0.05837 0.17336 0.0
C322 C 0.35721 0.08751 0.33936 0.0
N323 N 0.36064 0.06803 0.31648 0.0
N324 N 0.36336 0.08261 0.28842 0.0
C325 C 0.36186 0.1118 0.29256 0.0
C326 C 0.35766 0.11576 0.32501 0.0
C327 C 0.35527 0.08027 0.37454 0.0
H328 H 0.37601 0.07479 0.38129 0.0
H329 H 0.32995 0.0573 0.38014 0.0
H330 H 0.35826 0.10243 0.389 0.0
O331 O 0.40618 0.03151 0.30188 0.0
O332 O 0.4103 0.05651 0.25502 0.0
H333 H 0.38673 0.14334 0.2516 0.0
H334 H 0.36139 0.15716 0.27449 0.0
C335 C 0.36276 0.13447 0.26575 0.0
H336 H 0.3405 0.1193 0.24972 0.0
H337 H 0.42881 0.11077 0.21466 0.0
O338 O 0.35994 0.01364 0.36428 0.0
C339 C 0.42228 0.04448 0.2758 0.0
Co340 Co 0.34306 0.35333 0.48497 0.0
Co341 Co 0.31311 0.3613 0.42025 0.0
C342 C 0.32915 0.30423 0.42998 0.0
O343 O 0.33948 0.31401 0.45867 0.0
O344 O 0.31803 0.32009 0.41258 0.0
C345 C 0.34517 0.32352 0.5467 0.0
O346 O 0.32786 0.2931 0.53294 0.0
C347 C 0.26749 0.34832 0.36441 0.0
C348 C 0.27874 0.40162 0.35482 0.0
C349 C 0.25837 0.3677 0.34496 0.0
N350 N 0.2918 0.36995 0.38506 0.0
N351 N 0.29867 0.40175 0.3789 0.0
C352 C 0.25146 0.30987 0.36547 0.0
H353 H 0.25434 0.30139 0.3897 0.0
H354 H 0.22372 0.29714 0.35894 0.0
H355 H 0.26482 0.30184 0.348 0.0
C356 C 0.27869 0.35073 0.50936 0.0
N357 N 0.30032 0.35348 0.48545 0.0
N358 N 0.28737 0.35618 0.45804 0.0
C359 C 0.25702 0.35497 0.4636 0.0
C360 C 0.25051 0.35145 0.49633 0.0
C361 C 0.28565 0.34937 0.54424 0.0
H362 H 0.31257 0.36939 0.54974 0.0
H363 H 0.28222 0.32363 0.54999 0.0
H364 H 0.26798 0.35387 0.55954 0.0
O365 O 0.38159 0.39766 0.46827 0.0
O366 O 0.35943 0.40295 0.42266 0.0
H367 H 0.24674 0.38057 0.42553 0.0
H368 H 0.20873 0.35049 0.44764 0.0
C369 C 0.2338 0.35524 0.43792 0.0
H370 H 0.22874 0.33487 0.42014 0.0
H371 H 0.31634 0.42346 0.39177 0.0
O372 O 0.35497 0.35059 0.52998 0.0
C373 C 0.3841 0.41429 0.44269 0.0
Co374 Co 0.99716 0.34071 0.65184 0.0
Co375 Co 0.96236 0.31203 0.58544 0.0
C376 C 0.03493 0.32761 0.59912 0.0
O377 O 0.03428 0.33741 0.62777 0.0
O378 O 1.00887 0.3172 0.58067 0.0
C379 C 0.02684 0.34238 0.71458 0.0
O380 O 0.04179 0.32675 0.70093 0.0
C381 C 0.93283 0.2673 0.52788 0.0
C382 C 0.89775 0.28557 0.51131 0.0
C383 C 0.90913 0.26269 0.50416 0.0
N384 N 0.93513 0.29179 0.54819 0.0
N385 N 0.91411 0.30254 0.53805 0.0
C386 C 0.95395 0.2499 0.53033 0.0
H387 H 0.97698 0.26504 0.54549 0.0
H388 H 0.93827 0.22409 0.54145 0.0
H389 H 0.9619 0.24621 0.50611 0.0
C390 C 0.93454 0.27553 0.67346 0.0
N391 N 0.95421 0.29793 0.65034 0.0
N392 N 0.93957 0.28575 0.62237 0.0
C393 C 0.91018 0.25533 0.62681 0.0
C394 C 0.90612 0.24773 0.65937 0.0
C395 C 0.94188 0.28124 0.70859 0.0
H396 H 0.94778 0.30769 0.71495 0.0
H397 H 0.96458 0.27849 0.71436 0.0
H398 H 0.91962 0.26254 0.72321 0.0
O399 O 0.99272 0.3799 0.63427 0.0
O400 O 0.96727 0.35846 0.58771 0.0
H401 H 0.87815 0.24789 0.5861 0.0
H402 H 0.8652 0.20898 0.60913 0.0
C403 C 0.88755 0.23318 0.60018 0.0
H404 H 0.90288 0.2264 0.58402 0.0
H405 H 0.9109 0.32152 0.54944 0.0
O406 O 1.00925 0.35152 0.69754 0.0
C407 C 0.97994 0.38292 0.60801 0.0
C408 C 0.21333 0.37403 0.31655 0.0
C409 C 0.23171 0.35643 0.31983 0.0
C410 C 0.19196 0.36833 0.29011 0.0
C411 C 0.18897 0.34444 0.26629 0.0
C412 C 0.20542 0.32467 0.27064 0.0
C413 C 0.22688 0.33106 0.29739 0.0
C414 C 0.17482 0.38994 0.28651 0.0
C415 C 0.20238 0.29861 0.24597 0.0
C416 C 0.12252 0.33193 0.20358 0.0
C417 C 0.14319 0.35799 0.18175 0.0
C418 C 0.13735 0.32495 0.23017 0.0
C419 C 0.17346 0.34482 0.23499 0.0
C420 C 0.19453 0.36947 0.21176 0.0
C421 C 0.17909 0.37574 0.18547 0.0
C422 C 0.11416 0.29811 0.2542 0.0
C423 C 0.23318 0.39121 0.21589 0.0
H424 H 0.21673 0.39336 0.33413 0.0
H425 H 0.24136 0.31768 0.29962 0.0
H426 H 0.18716 0.40858 0.26655 0.0
H427 H 0.14713 0.3734 0.28047 0.0
H428 H 0.17688 0.4047 0.30863 0.0
H429 H 0.21039 0.28059 0.25582 0.0
H430 H 0.17551 0.28341 0.23696 0.0
H431 H 0.21921 0.31232 0.22521 0.0
H432 H 0.09471 0.31843 0.20103 0.0
H433 H 0.19514 0.39561 0.16836 0.0
H434 H 0.1106 0.31113 0.27529 0.0
H435 H 0.12591 0.28282 0.26282 0.0
H436 H 0.08833 0.28024 0.24392 0.0
H437 H 0.23902 0.40923 0.2363 0.0
H438 H 0.24608 0.40665 0.19414 0.0
H439 H 0.24446 0.37467 0.2215 0.0
C440 C 0.77518 0.1333 0.38716 0.0
C441 C 0.78611 0.12654 0.358 0.0
C442 C 0.79881 0.15152 0.41153 0.0
C443 C 0.83431 0.16345 0.40647 0.0
C444 C 0.8452 0.15451 0.37798 0.0
C445 C 0.82089 0.13623 0.35389 0.0
C446 C 0.78605 0.16033 0.44165 0.0
C447 C 0.88277 0.16648 0.37189 0.0
C448 C 0.88829 0.24862 0.44825 0.0
C449 C 0.89627 0.2382 0.47709 0.0
C450 C 0.87029 0.22475 0.42396 0.0
C451 C 0.85987 0.18952 0.42876 0.0
C452 C 0.86995 0.17921 0.45691 0.0
C453 C 0.88792 0.20372 0.48095 0.0
C454 C 0.86018 0.2369 0.39423 0.0
C455 C 0.85961 0.14194 0.46268 0.0
H456 H 0.74821 0.12562 0.39037 0.0
H457 H 0.82961 0.13173 0.33115 0.0
H458 H 0.79666 0.15444 0.46322 0.0
H459 H 0.7951 0.18842 0.44197 0.0
H460 H 0.75743 0.14601 0.44331 0.0
H461 H 0.88613 0.1519 0.35199 0.0
H462 H 0.89643 0.19427 0.36538 0.0
H463 H 0.89525 0.16365 0.39376 0.0
H464 H 0.89493 0.27534 0.44519 0.0
H465 H 0.89332 0.19533 0.50345 0.0
H466 H 0.83187 0.22651 0.39423 0.0
H467 H 0.8666 0.22712 0.37238 0.0
H468 H 0.87324 0.26552 0.3928 0.0
H469 H 0.83195 0.12722 0.46949 0.0
H470 H 0.87495 0.13927 0.48226 0.0
H471 H 0.86283 0.13002 0.44059 0.0
C472 C 0.6921 0.81379 0.51932 0.0
C473 C 0.66639 0.77919 0.52329 0.0
C474 C 0.69846 0.83827 0.54337 0.0
C475 C 0.67832 0.82776 0.57168 0.0
C476 C 0.65398 0.79242 0.57659 0.0
C477 C 0.64826 0.76861 0.55227 0.0
C478 C 0.72486 0.87565 0.53745 0.0
C479 C 0.63204 0.78006 0.6065 0.0
C480 C 0.69273 0.88137 0.64643 0.0
C481 C 0.6673 0.89066 0.64256 0.0
C482 C 0.69875 0.86307 0.62231 0.0
C483 C 0.67857 0.85369 0.59405 0.0
C484 C 0.65456 0.86514 0.58923 0.0
C485 C 0.64917 0.88339 0.61362 0.0
C486 C 0.72478 0.85158 0.62815 0.0
C487 C 0.63261 0.85586 0.55936 0.0
H488 H 0.70567 0.82229 0.49672 0.0
H489 H 0.62849 0.7418 0.5554 0.0
H490 H 0.71146 0.89001 0.53088 0.0
H491 H 0.74016 0.88777 0.55941 0.0
H492 H 0.74276 0.87858 0.51765 0.0
H493 H 0.61694 0.75143 0.60803 0.0
H494 H 0.64838 0.79014 0.62822 0.0
H495 H 0.61372 0.79 0.60668 0.0
H496 H 0.7063 0.88626 0.669 0.0
H497 H 0.62962 0.89075 0.61059 0.0
H498 H 0.73997 0.85457 0.60615 0.0
H499 H 0.71107 0.82381 0.6347 0.0
H500 H 0.74279 0.86637 0.64792 0.0
H501 H 0.64889 0.86187 0.53761 0.0
H502 H 0.6179 0.8698 0.55787 0.0
H503 H 0.61395 0.82769 0.55921 0.0
C504 C 0.87939 0.63268 0.71317 0.0
C505 C 0.89058 0.65444 0.6864 0.0
C506 C 0.86184 0.63808 0.73825 0.0
C507 C 0.85508 0.66578 0.73633 0.0
C508 C 0.86778 0.68886 0.71004 0.0
C509 C 0.88523 0.68275 0.68517 0.0
C510 C 0.84877 0.61286 0.76589 0.0
C511 C 0.86112 0.71869 0.70721 0.0
C512 C 0.77239 0.64332 0.77943 0.0
C513 C 0.78471 0.65866 0.80936 0.0
C514 C 0.79518 0.64773 0.7545 0.0
C515 C 0.83118 0.66761 0.75989 0.0
C516 C 0.84373 0.68502 0.78945 0.0
C517 C 0.82024 0.68025 0.81399 0.0
C518 C 0.78069 0.62894 0.72324 0.0
C519 C 0.88192 0.70648 0.79603 0.0
H520 H 0.88346 0.61072 0.714 0.0
H521 H 0.89301 0.69903 0.66404 0.0
H522 H 0.85626 0.62688 0.78907 0.0
H523 H 0.82015 0.59764 0.76519 0.0
H524 H 0.85883 0.59463 0.76517 0.0
H525 H 0.8773 0.73726 0.6883 0.0
H526 H 0.83359 0.70871 0.70114 0.0
H527 H 0.86622 0.73265 0.73035 0.0
H528 H 0.74486 0.62663 0.77594 0.0
H529 H 0.82985 0.69143 0.83738 0.0
H530 H 0.78636 0.60753 0.72098 0.0
H531 H 0.79302 0.64658 0.70264 0.0
H532 H 0.7523 0.61792 0.72162 0.0
H533 H 0.89269 0.68915 0.7999 0.0
H534 H 0.88736 0.72291 0.81766 0.0
H535 H 0.89561 0.72325 0.77523 0.0
C536 C 0.20746 0.87539 0.85391 0.0
C537 C 0.24258 0.88633 0.85758 0.0
C538 C 0.1838 0.857 0.87846 0.0
C539 C 0.19574 0.84938 0.90704 0.0
C540 C 0.23151 0.86239 0.91154 0.0
C541 C 0.25445 0.88054 0.88666 0.0
C542 C 0.14588 0.84365 0.87287 0.0
C543 C 0.24538 0.85511 0.94176 0.0
C544 C 0.14336 0.81201 0.98282 0.0
C545 C 0.13516 0.77747 0.98036 0.0
C546 C 0.16106 0.83553 0.958 0.0
C547 C 0.17104 0.82414 0.93047 0.0
C548 C 0.16114 0.78883 0.92727 0.0
C549 C 0.14348 0.76598 0.95238 0.0
C550 C 0.17108 0.87292 0.96221 0.0
C551 C 0.17119 0.77559 0.89826 0.0
H552 H 0.19808 0.87913 0.8312 0.0
H553 H 0.28167 0.88914 0.88949 0.0
H554 H 0.13274 0.81552 0.86792 0.0
H555 H 0.1337 0.84739 0.89451 0.0
H556 H 0.14144 0.85662 0.85219 0.0
H557 H 0.27402 0.87005 0.94282 0.0
H558 H 0.23496 0.8614 0.96325 0.0
H559 H 0.23697 0.82719 0.94293 0.0
H560 H 0.13776 0.82111 0.00485 0.0
H561 H 0.13719 0.73924 0.95062 0.0
H562 H 0.16661 0.88343 0.93977 0.0
H563 H 0.19902 0.88834 0.96781 0.0
H564 H 0.15647 0.87643 0.98199 0.0
H565 H 0.16426 0.78414 0.87591 0.0
H566 H 0.15852 0.74696 0.89803 0.0
H567 H 0.19957 0.7864 0.89809 0.0
C568 C 0.33344 0.20257 0.02105 0.0
C569 C 0.35982 0.23696 0.02464 0.0
C570 C 0.32716 0.17804 0.04503 0.0
C571 C 0.34807 0.18826 0.07283 0.0
C572 C 0.37318 0.22342 0.07739 0.0
C573 C 0.37877 0.2473 0.05318 0.0
C574 C 0.29992 0.14086 0.03951 0.0
C575 C 0.39599 0.23546 0.10675 0.0
C576 C 0.33459 0.13516 0.14771 0.0
C577 C 0.35935 0.12509 0.14313 0.0
C578 C 0.32836 0.15349 0.12379 0.0
C579 C 0.34766 0.1621 0.095 0.0
C580 C 0.37086 0.14978 0.08947 0.0
C581 C 0.37648 0.13152 0.11368 0.0
C582 C 0.30318 0.16591 0.13039 0.0
C583 C 0.39186 0.15824 0.05903 0.0
H584 H 0.31921 0.19424 0.99878 0.0
H585 H 0.39905 0.27395 0.05603 0.0
H586 H 0.31253 0.12589 0.03239 0.0
H587 H 0.28513 0.12911 0.06181 0.0
H588 H 0.28166 0.13832 0.02024 0.0
H589 H 0.41182 0.26407 0.10806 0.0
H590 H 0.3802 0.22592 0.12886 0.0
H591 H 0.41367 0.22476 0.10635 0.0
H592 H 0.32184 0.13096 0.17067 0.0
H593 H 0.39552 0.12356 0.11012 0.0
H594 H 0.28752 0.16311 0.10879 0.0
H595 H 0.31764 0.19373 0.13672 0.0
H596 H 0.28556 0.15158 0.15056 0.0
H597 H 0.37503 0.15248 0.03772 0.0
H598 H 0.40582 0.14359 0.05703 0.0
H599 H 0.41111 0.18624 0.05852 0.0
C600 C 0.02552 0.45735 0.0512 0.0
C601 C 0.04784 0.44894 0.06739 0.0
C602 C 0.02412 0.48721 0.05917 0.0
C603 C 0.04591 0.50947 0.08357 0.0
C604 C 0.0687 0.50127 0.09978 0.0
C605 C 0.06922 0.47104 0.09166 0.0
C606 C 0.99923 0.49487 0.04154 0.0
C607 C 0.09277 0.5246 0.12555 0.0
C608 C 0.0669 0.60304 0.08236 0.0
C609 C 0.04555 0.60357 0.1068 0.0
C610 C 0.06735 0.57269 0.07471 0.0
C611 C 0.0456 0.54185 0.09159 0.0
C612 C 0.02391 0.54211 0.11625 0.0
C613 C 0.02433 0.57303 0.12373 0.0
C614 C 0.09125 0.5737 0.04861 0.0
C615 C 1.00008 0.50965 0.13455 0.0
H616 H 1.00874 0.44033 0.03259 0.0
H617 H 0.08666 0.46487 0.10423 0.0
H618 H 0.98175 0.49732 0.05887 0.0
H619 H 1.01363 0.5199 0.02876 0.0
H620 H 0.98334 0.47449 0.02384 0.0
H621 H 0.10894 0.51455 0.13586 0.0
H622 H 0.11004 0.5507 0.11554 0.0
H623 H 0.07773 0.52758 0.14517 0.0
H624 H 0.08357 0.62652 0.06924 0.0
H625 H 1.00763 0.57313 0.1425 0.0
H626 H 0.0761 0.55538 0.02921 0.0
H627 H 0.10904 0.56539 0.05836 0.0
H628 H 0.10687 0.59987 0.03804 0.0
H629 H 0.98234 0.48929 0.11768 0.0
H630 H 0.98445 0.514 0.15268 0.0
H631 H 0.01528 0.49967 0.14691 0.0
C632 C 0.477 0.06624 0.24441 0.0
C633 C 0.4551 0.045 0.26887 0.0
C634 C 0.50773 0.06651 0.23687 0.0
C635 C 0.51662 0.04464 0.25383 0.0
C636 C 0.49462 0.02307 0.27849 0.0
C637 C 0.46427 0.02371 0.28589 0.0
C638 C 0.53076 0.09033 0.2108 0.0
C639 C 0.503 0.99908 0.29687 0.0
C640 C 0.58068 0.02324 0.21475 0.0
C641 C 0.61116 0.04503 0.23149 0.0
C642 C 0.54965 0.02263 0.22193 0.0
C643 C 0.54921 0.04473 0.24605 0.0
C644 C 0.58001 0.06716 0.26266 0.0
C645 C 0.61049 0.06685 0.25536 0.0
C646 C 0.51725 0.99806 0.20396 0.0
C647 C 0.5808 0.09154 0.28815 0.0
H648 H 0.47025 0.08291 0.23122 0.0
H649 H 0.44739 1.00705 0.30465 0.0
H650 H 0.55682 0.10805 0.22061 0.0
H651 H 0.53391 0.07509 0.19146 0.0
H652 H 0.52036 0.10605 0.20013 0.0
H653 H 0.4829 0.98347 0.31491 0.0
H654 H 0.50562 0.9813 0.28005 0.0
H655 H 0.52809 0.01419 0.30937 0.0
H656 H 0.5809 1.00615 0.19643 0.0
H657 H 0.63394 0.08393 0.26831 0.0
H658 H 0.50685 0.0127 0.19123 0.0
H659 H 0.49713 0.98046 0.22109 0.0
H660 H 0.52179 0.98226 0.18618 0.0
H661 H 0.57198 0.10874 0.27792 0.0
H662 H 0.60699 0.10779 0.29843 0.0
H663 H 0.56279 0.07668 0.30785 0.0
C664 C 0.5501 0.60252 0.42219 0.0
C665 C 0.57204 0.60322 0.39777 0.0
C666 C 0.51935 0.57206 0.42966 0.0
C667 C 0.51048 0.54134 0.41263 0.0
C668 C 0.5325 0.54182 0.38796 0.0
C669 C 0.56288 0.57281 0.38066 0.0
C670 C 0.49631 0.57278 0.45576 0.0
C671 C 0.52414 0.50949 0.36952 0.0
C672 C 0.44705 0.45593 0.45204 0.0
C673 C 0.41637 0.44708 0.43559 0.0
C674 C 0.47793 0.48637 0.44464 0.0
C675 C 0.47805 0.50876 0.42054 0.0
C676 C 0.44708 0.50018 0.40414 0.0
C677 C 0.41672 0.46937 0.41169 0.0
C678 C 0.51052 0.49444 0.46241 0.0
C679 C 0.44598 0.52361 0.37865 0.0
H680 H 0.55685 0.62592 0.43545 0.0
H681 H 0.57977 0.57305 0.3619 0.0
H682 H 0.47018 0.56423 0.44602 0.0
H683 H 0.49337 0.55452 0.47515 0.0
H684 H 0.5066 0.59891 0.46635 0.0
H685 H 0.54413 0.51407 0.35132 0.0
H686 H 0.52177 0.48915 0.38628 0.0
H687 H 0.49893 0.49937 0.35721 0.0
H688 H 0.44708 0.43878 0.4704 0.0
H689 H 0.39311 0.46286 0.39895 0.0
H690 H 0.52081 0.51944 0.47517 0.0
H691 H 0.53061 0.49714 0.44515 0.0
H692 H 0.50624 0.47413 0.48013 0.0
H693 H 0.45463 0.5496 0.38886 0.0
H694 H 0.41972 0.51345 0.36845 0.0
H695 H 0.46397 0.52688 0.3589 0.0
C696 C 1.00379 0.56309 0.54395 0.0
C697 C 0.98201 0.57204 0.5604 0.0
C698 C 1.00436 0.53271 0.55159 0.0
C699 C 0.98225 0.5105 0.57589 0.0
C700 C 0.95992 0.5192 0.59225 0.0
C701 C 0.96025 0.5499 0.58448 0.0
C702 C 0.02882 0.52451 0.53386 0.0
C703 C 0.93552 0.49598 0.61791 0.0
C704 C 0.95944 0.41633 0.57557 0.0
C705 C 0.98031 0.41556 0.60032 0.0
C706 C 0.95985 0.447 0.56739 0.0
C707 C 0.98204 0.47789 0.58402 0.0
C708 C 1.00334 0.47738 0.60891 0.0
C709 C 1.00202 0.44618 0.61694 0.0
C710 C 0.93628 0.44627 0.5411 0.0
C711 C 0.02762 0.50985 0.62698 0.0
H712 H 0.02082 0.58012 0.52546 0.0
H713 H 0.94315 0.55644 0.59721 0.0
H714 H 0.04626 0.52192 0.55113 0.0
H715 H 0.01409 0.49942 0.52125 0.0
H716 H 0.04476 0.5447 0.51601 0.0
H717 H 0.91948 0.50624 0.62809 0.0
H718 H 0.91814 0.46992 0.60788 0.0
H719 H 0.95032 0.49282 0.63766 0.0
H720 H 0.94246 0.39279 0.56266 0.0
H721 H 0.01841 0.44589 0.63593 0.0
H722 H 0.9517 0.46452 0.52174 0.0
H723 H 0.91864 0.45484 0.55069 0.0
H724 H 0.92052 0.42013 0.53052 0.0
H725 H 0.0454 0.53 0.60997 0.0
H726 H 0.04319 0.50535 0.64505 0.0
H727 H 1.01275 0.52018 0.6394 0.0
C728 C 0.41894 0.95128 0.75662 0.0
C729 C 0.41806 0.9728 0.73256 0.0
C730 C 0.44954 0.95118 0.7639 0.0
C731 C 0.48022 0.97349 0.74706 0.0
C732 C 0.47958 0.99536 0.72282 0.0
C733 C 0.44846 0.99456 0.71568 0.0
C734 C 0.44897 0.92706 0.78956 0.0
C735 C 0.51185 0.0198 0.70457 0.0
C736 C 0.56572 0.99484 0.78591 0.0
C737 C 0.57464 0.97339 0.76882 0.0
C738 C 0.53524 0.99539 0.7789 0.0
C739 C 0.51286 0.97357 0.75457 0.0
C740 C 0.52151 0.95153 0.73755 0.0
C741 C 0.55235 0.9519 0.74471 0.0
C742 C 0.52712 0.01954 0.79732 0.0
C743 C 0.49811 0.92748 0.71181 0.0
H744 H 0.39557 0.93424 0.7697 0.0
H745 H 0.44809 0.01143 0.69721 0.0
H746 H 0.45752 0.90964 0.77935 0.0
H747 H 0.46729 0.9421 0.80899 0.0
H748 H 0.4229 0.91104 0.80018 0.0
H749 H 0.5072 0.03558 0.68686 0.0
H750 H 0.53216 0.03742 0.72153 0.0
H751 H 0.52203 1.00504 0.69172 0.0
H752 H 0.58287 0.01169 0.80442 0.0
H753 H 0.5589 0.93509 0.73147 0.0
H754 H 0.50214 1.00456 0.81004 0.0
H755 H 0.52439 0.03725 0.7805 0.0
H756 H 0.54741 0.03522 0.81517 0.0
H757 H 0.47215 0.90993 0.72194 0.0
H758 H 0.5083 0.91159 0.70113 0.0
H759 H 0.49478 0.94256 0.69243 0.0
C760 C 0.46181 0.44288 0.88161 0.0
C761 C 0.45281 0.41254 0.89877 0.0
C762 C 0.49226 0.47391 0.88867 0.0
C763 C 0.51453 0.47449 0.91312 0.0
C764 C 0.50579 0.44385 0.93024 0.0
C765 C 0.47496 0.41336 0.92303 0.0
C766 C 0.50048 0.50615 0.87015 0.0
C767 C 0.52908 0.44322 0.9561 0.0
C768 C 0.60848 0.54605 0.91095 0.0
C769 C 0.60937 0.56859 0.93487 0.0
C770 C 0.57788 0.51531 0.90379 0.0
C771 C 0.5472 0.50704 0.92059 0.0
C772 C 0.54786 0.52969 0.94471 0.0
C773 C 0.57898 0.56005 0.95174 0.0
C774 C 0.57843 0.49161 0.87828 0.0
C775 C 0.5156 0.52198 0.9629 0.0
H776 H 0.44476 0.44255 0.86298 0.0
H777 H 0.46834 0.39002 0.93633 0.0
H778 H 0.50327 0.52668 0.8869 0.0
H779 H 0.52545 0.51604 0.85744 0.0
H780 H 0.48021 0.50155 0.85228 0.0
H781 H 0.51879 0.41717 0.96689 0.0
H782 H 0.55504 0.4515 0.94605 0.0
H783 H 0.53243 0.46173 0.97539 0.0
H784 H 0.63184 0.55231 0.89789 0.0
H785 H 0.57937 0.57739 0.9701 0.0
H786 H 0.56019 0.48831 0.85877 0.0
H787 H 0.56978 0.46566 0.8886 0.0
H788 H 0.60452 0.50154 0.86773 0.0
H789 H 0.49532 0.51929 0.9459 0.0
H790 H 0.52028 0.54248 0.98055 0.0
H791 H 0.50535 0.49707 0.97581 0.0
C792 C 1.00086 0.35139 0.76406 0.0
C793 C 0.02457 0.34343 0.74996 0.0
C794 C 0.99512 0.34857 0.79721 0.0
C795 C 0.01429 0.33857 0.81697 0.0
C796 C 0.0392 0.33174 0.80312 0.0
C797 C 0.04379 0.3339 0.7697 0.0
C798 C 0.96796 0.35557 0.811 0.0
C799 C 0.06076 0.32186 0.82358 0.0
C800 C 0.02164 0.36228 0.90497 0.0
C801 C 0.99911 0.33033 0.9193 0.0
C802 C 0.02698 0.36522 0.87177 0.0
C803 C 1.00854 0.33573 0.85219 0.0
C804 C 0.98462 0.3037 0.86626 0.0
C805 C 0.98046 0.30129 0.89973 0.0
C806 C 0.0531 0.3997 0.85774 0.0
C807 C 0.96381 0.27191 0.84599 0.0
H808 H 0.98587 0.35883 0.74908 0.0
H809 H 0.06222 0.32782 0.75903 0.0
H810 H 0.94822 0.33239 0.82397 0.0
H811 H 0.97981 0.37696 0.82863 0.0
H812 H 0.95484 0.3625 0.79225 0.0
H813 H 0.07997 0.31875 0.80926 0.0
H814 H 0.07463 0.34185 0.84219 0.0
H815 H 0.04382 0.29724 0.83622 0.0
H816 H 0.03616 0.38494 0.91981 0.0
H817 H 0.96292 0.27657 0.91058 0.0
H818 H 0.04053 0.40825 0.83991 0.0
H819 H 0.0735 0.39719 0.84496 0.0
H820 H 0.06552 0.42007 0.87634 0.0
H821 H 0.94952 0.27727 0.82724 0.0
H822 H 0.94504 0.24944 0.86044 0.0
H823 H 0.98134 0.26485 0.83355 0.0
C824 C 0.66318 0.99826 0.92976 0.0
C825 C 0.69496 0.02099 0.9153 0.0
C826 C 0.66043 0.99306 0.96299 0.0
C827 C 0.68998 0.01166 0.98243 0.0
C828 C 0.72191 0.03553 0.96819 0.0
C829 C 0.72409 0.03969 0.93472 0.0
C830 C 0.62602 0.96707 0.97722 0.0
C831 C 0.7538 0.0564 0.98829 0.0
C832 C 0.67523 0.02073 0.07052 0.0
C833 C 0.68305 0.99702 0.08486 0.0
C834 C 0.67768 0.02593 0.03729 0.0
C835 C 0.68731 1.00631 0.01772 0.0
C836 C 0.69407 0.98145 0.03183 0.0
C837 C 0.69217 0.97732 0.0653 0.0
C838 C 0.67068 0.05297 0.02321 0.0
C839 C 0.70363 0.95949 0.01158 0.0
H840 H 0.64047 0.98362 0.91501 0.0
H841 H 0.7487 0.05734 0.92376 0.0
H842 H 0.62857 0.9468 0.99021 0.0
H843 H 0.61757 0.97986 0.99491 0.0
H844 H 0.6056 0.95445 0.95872 0.0
H845 H 0.77631 0.07481 0.97367 0.0
H846 H 0.74871 0.07115 0.00678 0.0
H847 H 0.76063 0.03888 0.00106 0.0
H848 H 0.66814 0.03611 0.08536 0.0
H849 H 0.69815 0.9589 0.07616 0.0
H850 H 0.64924 0.04094 0.00566 0.0
H851 H 0.69381 0.07257 0.01009 0.0
H852 H 0.66385 0.06633 0.04181 0.0
H853 H 0.68347 0.9454 0.99319 0.0
H854 H 0.70679 0.94042 0.02611 0.0
H855 H 0.72814 0.97619 0.99869 0.0
C856 C 0.69164 0.71762 0.10078 0.0
C857 C 0.68136 0.68862 0.08116 0.0
C858 C 0.69325 0.71512 0.13425 0.0
C859 C 0.68504 0.68304 0.14828 0.0
C860 C 0.67424 0.65363 0.12865 0.0
C861 C 0.67208 0.65667 0.09543 0.0
C862 C 0.70408 0.74686 0.15458 0.0
C863 C 0.6657 0.61907 0.14265 0.0
C864 C 0.72079 0.68432 0.23129 0.0
C865 C 0.69178 0.67486 0.25065 0.0
C866 C 0.71888 0.68665 0.19784 0.0
C867 C 0.68742 0.68003 0.18356 0.0
C868 C 0.65799 0.67009 0.20293 0.0
C869 C 0.6604 0.66716 0.23613 0.0
C870 C 0.75058 0.69648 0.17779 0.0
C871 C 0.6241 0.66327 0.18867 0.0
H872 H 0.69876 0.74235 0.08997 0.0
H873 H 0.66408 0.63405 0.08054 0.0
H874 H 0.68412 0.74157 0.17299 0.0
H875 H 0.72835 0.75363 0.16745 0.0
H876 H 0.70824 0.76949 0.14011 0.0
H877 H 0.6581 0.5988 0.124 0.0
H878 H 0.68838 0.62151 0.15579 0.0
H879 H 0.6443 0.61044 0.16017 0.0
H880 H 0.74508 0.69021 0.2423 0.0
H881 H 0.63778 0.6598 0.25082 0.0
H882 H 0.75848 0.72115 0.16513 0.0
H883 H 0.74471 0.67652 0.15921 0.0
H884 H 0.77266 0.69949 0.19243 0.0
H885 H 0.62778 0.68654 0.17568 0.0
H886 H 0.60378 0.65631 0.20714 0.0
H887 H 0.61481 0.64196 0.17096 0.0
C888 C 0.03796 0.69391 0.40084 0.0
C889 C 0.01904 0.70514 0.41892 0.0
C890 C 0.03718 0.69426 0.36715 0.0
C891 C 0.01514 0.70384 0.35135 0.0
C892 C 0.99582 0.71495 0.36961 0.0
C893 C 0.9992 0.71688 0.40307 0.0
C894 C 0.05992 0.68441 0.34853 0.0
C895 C 0.97054 0.72354 0.35401 0.0
C896 C 0.02832 0.73133 0.26398 0.0
C897 C 1.00844 0.69973 0.24817 0.0
C898 C 0.03172 0.73283 0.29744 0.0
C899 C 1.01238 0.70243 0.31574 0.0
C900 C 0.99031 0.6708 0.29998 0.0
C901 C 0.98952 0.66961 0.26629 0.0
C902 C 0.05704 0.7667 0.313 0.0
C903 C 0.96755 0.63825 0.31864 0.0
H904 H 0.05361 0.68517 0.41306 0.0
H905 H 0.98474 0.72589 0.41693 0.0
H906 H 0.04383 0.65936 0.33626 0.0
H907 H 0.0744 0.704 0.32975 0.0
H908 H 0.07867 0.682 0.36422 0.0
H909 H 0.95449 0.72759 0.37189 0.0
H910 H 0.98458 0.74733 0.33943 0.0
H911 H 0.95317 0.70239 0.33759 0.0
H912 H 0.04279 0.75477 0.2501 0.0
H913 H 0.97384 0.64522 0.25409 0.0
H914 H 0.07438 0.76292 0.32945 0.0
H915 H 0.04303 0.77652 0.32753 0.0
H916 H 0.07312 0.78676 0.29509 0.0
H917 H 0.98362 0.62929 0.33093 0.0
H918 H 0.94878 0.61707 0.30296 0.0
H919 H 0.95309 0.64341 0.33739 0.0
C920 C 0.35594 0.99885 0.57167 0.0
C921 C 0.34667 0.02147 0.58606 0.0
C922 C 0.35383 0.99381 0.53842 0.0
C923 C 0.34305 0.01252 0.51889 0.0
C924 C 0.33487 0.03636 0.53306 0.0
C925 C 0.33647 0.04032 0.56655 0.0
C926 C 0.36234 0.96784 0.52428 0.0
C927 C 0.32405 0.05735 0.51286 0.0
C928 C 0.36736 0.02147 0.43092 0.0
C929 C 0.33594 0.99775 0.41648 0.0
C930 C 0.36991 0.02674 0.46414 0.0
C931 C 0.34056 1.0072 0.4836 0.0
C932 C 0.30905 0.98237 0.46938 0.0
C933 C 0.30702 0.97816 0.43592 0.0
C934 C 0.40385 0.05376 0.47834 0.0
C935 C 0.27742 0.96049 0.4895 0.0
H936 H 0.36388 0.98413 0.58648 0.0
H937 H 0.32936 0.0579 0.57745 0.0
H938 H 0.33961 0.94758 0.51121 0.0
H939 H 0.38365 0.98063 0.50667 0.0
H940 H 0.37007 0.95519 0.54284 0.0
H941 H 0.31997 0.07583 0.52741 0.0
H942 H 0.34397 0.07203 0.49442 0.0
H943 H 0.29973 0.03991 0.50002 0.0
H944 H 0.38991 0.03678 0.41616 0.0
H945 H 0.2827 0.95974 0.42498 0.0
H946 H 0.41317 0.04171 0.49597 0.0
H947 H 0.40024 0.07336 0.4914 0.0
H948 H 0.42412 0.06712 0.45982 0.0
H949 H 0.28333 0.94633 0.50797 0.0
H950 H 0.25526 0.94148 0.4749 0.0
H951 H 0.2696 0.97725 0.50231 0.0
C952 C 0.33619 0.29752 0.60164 0.0
C953 C 0.34698 0.32666 0.5821 0.0
C954 C 0.33435 0.29992 0.63509 0.0
C955 C 0.34275 0.33205 0.64916 0.0
C956 C 0.3542 0.36162 0.62962 0.0
C957 C 0.35671 0.35868 0.59644 0.0
C958 C 0.32296 0.26804 0.65535 0.0
C959 C 0.36289 0.39621 0.64365 0.0
C960 C 0.30578 0.33077 0.73157 0.0
C961 C 0.33444 0.34002 0.75133 0.0
C962 C 0.30821 0.32851 0.69816 0.0
C963 C 0.33982 0.33491 0.68437 0.0
C964 C 0.36889 0.3446 0.70416 0.0
C965 C 0.36599 0.34755 0.73729 0.0
C966 C 0.27691 0.31901 0.67765 0.0
C967 C 0.40291 0.35114 0.69042 0.0
H968 H 0.32877 0.27274 0.59077 0.0
H969 H 0.36516 0.38142 0.58162 0.0
H970 H 0.34249 0.27312 0.67415 0.0
H971 H 0.29844 0.26128 0.66774 0.0
H972 H 0.31903 0.24547 0.64091 0.0
H973 H 0.37106 0.41662 0.62506 0.0
H974 H 0.34009 0.39398 0.6564 0.0
H975 H 0.38393 0.40452 0.66151 0.0
H976 H 0.28137 0.32503 0.74221 0.0
H977 H 0.38836 0.35478 0.75228 0.0
H978 H 0.269 0.29433 0.66499 0.0
H979 H 0.28326 0.33907 0.65906 0.0
H980 H 0.25466 0.31616 0.69193 0.0
H981 H 0.3992 0.32788 0.67741 0.0
H982 H 0.42285 0.35775 0.70921 0.0
H983 H 0.41273 0.3726 0.67285 0.0
C984 C 0.26563 0.34548 0.89834 0.0
C985 C 0.2802 0.32906 0.91578 0.0
C986 C 0.23897 0.34976 0.9114 0.0
C987 C 0.22638 0.3371 0.94255 0.0
C988 C 0.24046 0.31986 0.95998 0.0
C989 C 0.26719 0.31616 0.94647 0.0
C990 C 0.22472 0.36839 0.89211 0.0
C991 C 0.22761 0.30571 0.99315 0.0
C992 C 0.1824 0.37587 0.99186 0.0
C993 C 0.14752 0.35097 0.98833 0.0
C994 C 0.20829 0.37203 0.97656 0.0
C995 C 0.19902 0.34248 0.95737 0.0
C996 C 0.16369 0.31749 0.95342 0.0
C997 C 0.13836 0.3221 0.96889 0.0
C998 C 0.24559 0.39939 0.98126 0.0
C999 C 0.1527 0.28554 0.93338 0.0
H1000 H 0.27547 0.35561 0.87467 0.0
H1001 H 0.27809 0.30332 0.96019 0.0
H1002 H 0.19639 0.3518 0.8893 0.0
H1003 H 0.22937 0.39205 0.905 0.0
H1004 H 0.23661 0.37588 0.86793 0.0
H1005 H 0.24044 0.29194 0.0031 0.0
H1006 H 0.23228 0.32709 0.00965 0.0
H1007 H 0.19935 0.28761 0.9926 0.0
H1008 H 0.1894 0.39834 0.00668 0.0
H1009 H 0.11133 0.30279 0.96629 0.0
H1010 H 0.25816 0.40932 0.95768 0.0
H1011 H 0.25967 0.388 0.99337 0.0
H1012 H 0.24841 0.42144 0.99586 0.0
H1013 H 0.16335 0.29285 0.90879 0.0
H1014 H 0.12418 0.26921 0.93178 0.0
H1015 H 0.16322 0.26989 0.94388 0.0
C1016 C 0.96411 0.26506 0.11605 0.0
C1017 C 0.96321 0.27691 0.08506 0.0
C1018 C 0.93427 0.23838 0.13046 0.0
C1019 C 0.90258 0.22307 0.1136 0.0
C1020 C 0.90153 0.23445 0.08213 0.0
C1021 C 0.93182 0.26115 0.06823 0.0
C1022 C 0.9366 0.2269 0.16397 0.0
C1023 C 0.86824 0.21878 0.06335 0.0
C1024 C 0.83114 0.1348 0.14127 0.0
C1025 C 0.81063 0.14361 0.15992 0.0
C1026 C 0.861 0.16034 0.12588 0.0
C1027 C 0.87048 0.19554 0.12915 0.0
C1028 C 0.84962 0.20449 0.14783 0.0
C1029 C 0.81993 0.17838 0.16301 0.0
C1030 C 0.88255 0.14967 0.10635 0.0
C1031 C 0.85869 0.24166 0.15183 0.0
H1032 H 0.98816 0.27687 0.12931 0.0
H1033 H 0.93074 0.27006 0.04432 0.0
H1034 H 0.91972 0.23144 0.18035 0.0
H1035 H 0.92726 0.19877 0.16421 0.0
H1036 H 0.96335 0.24077 0.17352 0.0
H1037 H 0.87187 0.22989 0.03888 0.0
H1038 H 0.85723 0.19045 0.06125 0.0
H1039 H 0.84902 0.2231 0.07623 0.0
H1040 H 0.82391 0.10784 0.13897 0.0
H1041 H 0.8038 0.1851 0.17716 0.0
H1042 H 0.90899 0.16158 0.11645 0.0
H1043 H 0.88498 0.15916 0.08138 0.0
H1044 H 0.87135 0.1212 0.10579 0.0
H1045 H 0.88444 0.25666 0.16324 0.0
H1046 H 0.83952 0.24426 0.16671 0.0
H1047 H 0.86027 0.25342 0.12802 0.0
C1048 C 0.70211 0.82226 0.30587 0.0
C1049 C 0.6731 0.80225 0.32503 0.0
C1050 C 0.70652 0.85208 0.29031 0.0
C1051 C 0.68118 0.86202 0.29392 0.0
C1052 C 0.65162 0.84161 0.31303 0.0
C1053 C 0.64797 0.81197 0.3284 0.0
C1054 C 0.73848 0.87318 0.27036 0.0
C1055 C 0.62395 0.8512 0.31739 0.0
C1056 C 0.7068 0.95614 0.28141 0.0
C1057 C 0.69408 0.95569 0.2505 0.0
C1058 C 0.70313 0.92599 0.29557 0.0
C1059 C 0.68613 0.89438 0.27859 0.0
C1060 C 0.67361 0.89372 0.24725 0.0
C1061 C 0.67782 0.92438 0.23353 0.0
C1062 C 0.71713 0.92793 0.32892 0.0
C1063 C 0.65527 0.86051 0.22839 0.0
H1064 H 0.72156 0.8147 0.30334 0.0
H1065 H 0.62534 0.7962 0.34293 0.0
H1066 H 0.73116 0.87581 0.24555 0.0
H1067 H 0.75359 0.8996 0.28045 0.0
H1068 H 0.75531 0.86149 0.26935 0.0
H1069 H 0.60214 0.83212 0.33231 0.0
H1070 H 0.63508 0.87692 0.32896 0.0
H1071 H 0.61375 0.8531 0.29371 0.0
H1072 H 0.71952 0.98013 0.29477 0.0
H1073 H 0.66782 0.92366 0.20971 0.0
H1074 H 0.73557 0.91816 0.32881 0.0
H1075 H 0.69577 0.91121 0.34541 0.0
H1076 H 0.73047 0.95466 0.3386 0.0
H1077 H 0.67215 0.84904 0.22588 0.0
H1078 H 0.64762 0.8644 0.2041 0.0
H1079 H 0.63177 0.84151 0.24146 0.0
C1080 C 0.75493 0.66396 0.40026 0.0
C1081 C 0.74387 0.68482 0.41535 0.0
C1082 C 0.78101 0.65911 0.41383 0.0
C1083 C 0.79679 0.67593 0.44294 0.0
C1084 C 0.78625 0.69758 0.4579 0.0
C1085 C 0.75981 0.70156 0.44408 0.0
C1086 C 0.79128 0.63554 0.39732 0.0
C1087 C 0.80277 0.71645 0.48866 0.0
C1088 C 0.84202 0.64166 0.49644 0.0
C1089 C 0.8767 0.66377 0.48855 0.0
C1090 C 0.81565 0.6448 0.48126 0.0
C1091 C 0.82429 0.67092 0.4579 0.0
C1092 C 0.85936 0.69309 0.4497 0.0
C1093 C 0.88511 0.68912 0.46503 0.0
C1094 C 0.77857 0.62036 0.49039 0.0
C1095 C 0.86978 0.72155 0.42529 0.0
H1096 H 0.74266 0.65075 0.37818 0.0
H1097 H 0.75162 0.71785 0.45589 0.0
H1098 H 0.81924 0.64987 0.39163 0.0
H1099 H 0.78675 0.61403 0.41359 0.0
H1100 H 0.77664 0.62447 0.37478 0.0
H1101 H 0.7923 0.73308 0.49679 0.0
H1102 H 0.79854 0.6976 0.50789 0.0
H1103 H 0.83107 0.73284 0.48534 0.0
H1104 H 0.83556 0.62185 0.51444 0.0
H1105 H 0.912 0.70648 0.45918 0.0
H1106 H 0.76326 0.60717 0.46872 0.0
H1107 H 0.7671 0.63506 0.50108 0.0
H1108 H 0.77608 0.60049 0.50787 0.0
H1109 H 0.85625 0.71074 0.40227 0.0
H1110 H 0.89804 0.73575 0.42076 0.0
H1111 H 0.862 0.7402 0.43379 0.0
C1112 C 0.20869 0.83926 0.66157 0.0
C1113 C 0.21908 0.87429 0.65825 0.0
C1114 C 0.179 0.81371 0.64593 0.0
C1115 C 0.15927 0.82349 0.62654 0.0
C1116 C 0.16994 0.85895 0.62293 0.0
C1117 C 0.19974 0.88392 0.63882 0.0
C1118 C 0.16861 0.77623 0.65036 0.0
C1119 C 0.14964 0.87051 0.60261 0.0
C1120 C 0.09689 0.75817 0.56595 0.0
C1121 C 0.06543 0.74368 0.58264 0.0
C1122 C 0.12758 0.7844 0.57976 0.0
C1123 C 0.12684 0.79656 0.61096 0.0
C1124 C 0.09509 0.7826 0.6276 0.0
C1125 C 0.06488 0.75641 0.61329 0.0
C1126 C 0.16092 0.79865 0.56121 0.0
C1127 C 0.09306 0.79495 0.66081 0.0
H1128 H 0.22392 0.83189 0.6763 0.0
H1129 H 0.20777 0.91106 0.63635 0.0
H1130 H 0.14273 0.76209 0.66167 0.0
H1131 H 0.16674 0.76405 0.62671 0.0
H1132 H 0.18719 0.77297 0.66554 0.0
H1133 H 0.16195 0.89909 0.6015 0.0
H1134 H 0.147 0.8604 0.57786 0.0
H1135 H 0.12321 0.85984 0.61248 0.0
H1136 H 0.09771 0.74856 0.5423 0.0
H1137 H 0.04082 0.74568 0.62639 0.0
H1138 H 0.17936 0.79345 0.57443 0.0
H1139 H 0.17303 0.82709 0.55882 0.0
H1140 H 0.15704 0.78719 0.53687 0.0
H1141 H 0.10928 0.78988 0.67758 0.0
H1142 H 0.06624 0.78206 0.67022 0.0
H1143 H 0.10336 0.82325 0.66059 0.0
C1144 C 0.32411 0.19296 0.80743 0.0
C1145 C 0.35289 0.21293 0.82685 0.0
C1146 C 0.31986 0.16314 0.79198 0.0
C1147 C 0.34511 0.15313 0.79599 0.0
C1148 C 0.37439 0.17346 0.81544 0.0
C1149 C 0.3779 0.20312 0.83066 0.0
C1150 C 0.28821 0.14216 0.77163 0.0
C1151 C 0.40197 0.16381 0.82023 0.0
C1152 C 0.31984 0.05914 0.78284 0.0
C1153 C 0.33314 0.06 0.75212 0.0
C1154 C 0.32321 0.08911 0.79716 0.0
C1155 C 0.34047 0.12094 0.78052 0.0
C1156 C 0.35357 0.12199 0.74935 0.0
C1157 C 0.34966 0.09152 0.73549 0.0
C1158 C 0.3086 0.08677 0.83031 0.0
C1159 C 0.37219 0.15543 0.73085 0.0
H1160 H 0.30473 0.20057 0.80457 0.0
H1161 H 0.40035 0.21884 0.8454 0.0
H1162 H 0.29592 0.13983 0.7469 0.0
H1163 H 0.27303 0.11563 0.78147 0.0
H1164 H 0.27132 0.15378 0.77049 0.0
H1165 H 0.42345 0.18269 0.83556 0.0
H1166 H 0.39059 0.13794 0.83153 0.0
H1167 H 0.41267 0.16222 0.79671 0.0
H1168 H 0.30692 0.03498 0.79593 0.0
H1169 H 0.3601 0.09256 0.7118 0.0
H1170 H 0.29012 0.09649 0.82998 0.0
H1171 H 0.32965 0.10333 0.84713 0.0
H1172 H 0.29513 0.05993 0.83972 0.0
H1173 H 0.35532 0.16688 0.72814 0.0
H1174 H 0.3803 0.15183 0.70665 0.0
H1175 H 0.39544 0.1743 0.74429 0.0
C1176 C 0.7076 0.75333 0.88447 0.0
C1177 C 0.69444 0.74092 0.91524 0.0
C1178 C 0.70427 0.78001 0.87026 0.0
C1179 C 0.68723 0.7947 0.88707 0.0
C1180 C 0.6743 0.78271 0.91829 0.0
C1181 C 0.67814 0.75605 0.93203 0.0
C1182 C 0.71867 0.7922 0.83704 0.0
C1183 C 0.65593 0.79766 0.93698 0.0
C1184 C 0.70374 0.88313 0.86013 0.0
C1185 C 0.67487 0.87437 0.84086 0.0
C1186 C 0.70795 0.85753 0.87556 0.0
C1187 C 0.68259 0.8223 0.8717 0.0
C1188 C 0.65318 0.8134 0.85245 0.0
C1189 C 0.6497 0.83957 0.83724 0.0
C1190 C 0.73973 0.86816 0.89572 0.0
C1191 C 0.62547 0.7762 0.84781 0.0
H1192 H 0.72037 0.74201 0.87126 0.0
H1193 H 0.66782 0.74669 0.95576 0.0
H1194 H 0.69753 0.78777 0.82036 0.0
H1195 H 0.73723 0.82038 0.83731 0.0
H1196 H 0.73199 0.77873 0.82749 0.0
H1197 H 0.648 0.78604 0.96122 0.0
H1198 H 0.6729 0.82599 0.93961 0.0
H1199 H 0.63259 0.79333 0.92373 0.0
H1200 H 0.72323 0.9101 0.86284 0.0
H1201 H 0.62717 0.83287 0.82263 0.0
H1202 H 0.75481 0.85677 0.88572 0.0
H1203 H 0.73217 0.85812 0.92047 0.0
H1204 H 0.75666 0.89665 0.89684 0.0
H1205 H 0.63666 0.7616 0.83637 0.0
H1206 H 0.60388 0.77364 0.83267 0.0
H1207 H 0.61495 0.76398 0.8714 0.0
C1208 C 0.82793 0.69806 0.02801 0.0
C1209 C 0.80868 0.6692 0.00842 0.0
C1210 C 0.85767 0.70284 0.04395 0.0
C1211 C 0.8684 0.6781 0.04023 0.0
C1212 C 0.8488 0.64872 0.02064 0.0
C1213 C 0.81914 0.64463 0.00498 0.0
C1214 C 0.87783 0.73455 0.06449 0.0
C1215 C 0.85927 0.62171 0.01607 0.0
C1216 C 0.96272 0.70533 0.05386 0.0
C1217 C 0.96199 0.69181 0.08444 0.0
C1218 C 0.93261 0.70144 0.03946 0.0
C1219 C 0.90075 0.6835 0.05593 0.0
C1220 C 0.89983 0.67036 0.08705 0.0
C1221 C 0.93044 0.67473 0.10097 0.0
C1222 C 0.93483 0.71609 0.00635 0.0
C1223 C 0.86637 0.65111 0.10541 0.0
H1224 H 0.81983 0.71711 0.03059 0.0
H1225 H 0.80397 0.6221 0.99014 0.0
H1226 H 0.8803 0.7269 0.08921 0.0
H1227 H 0.90433 0.75038 0.05479 0.0
H1228 H 0.86551 0.7508 0.06563 0.0
H1229 H 0.84084 0.60001 0.00068 0.0
H1230 H 0.88525 0.63359 0.00493 0.0
H1231 H 0.86097 0.61118 0.03965 0.0
H1232 H 0.98687 0.71876 0.04089 0.0
H1233 H 0.92948 0.66411 0.12455 0.0
H1234 H 0.92451 0.73407 0.00665 0.0
H1235 H 0.91875 0.69494 0.98941 0.0
H1236 H 0.96172 0.73013 0.9971 0.0
H1237 H 0.85423 0.6674 0.10785 0.0
H1238 H 0.87011 0.64335 0.12971 0.0
H1239 H 0.84802 0.62757 0.092 0.0
C1240 C 0.14226 0.81739 0.20215 0.0
C1241 C 0.15074 0.80049 0.17863 0.0
C1242 C 0.16795 0.84707 0.21757 0.0
C1243 C 0.20305 0.86002 0.20944 0.0
C1244 C 0.21177 0.84257 0.18609 0.0
C1245 C 0.18545 0.81307 0.17084 0.0
C1246 C 0.15745 0.86504 0.24198 0.0
C1247 C 0.24887 0.85528 0.17701 0.0
C1248 C 0.26728 0.95519 0.22319 0.0
C1249 C 0.28328 0.95449 0.25192 0.0
C1250 C 0.24091 0.92473 0.2094 0.0
C1251 C 0.23048 0.89257 0.22439 0.0
C1252 C 0.2463 0.89164 0.25351 0.0
C1253 C 0.27232 0.92262 0.26705 0.0
C1254 C 0.22434 0.92697 0.17863 0.0
C1255 C 0.23613 0.85784 0.27006 0.0
H1256 H 0.11535 0.80784 0.20792 0.0
H1257 H 0.19198 0.79975 0.15287 0.0
H1258 H 0.17102 0.86784 0.26499 0.0
H1259 H 0.16511 0.89143 0.23345 0.0
H1260 H 0.12919 0.85088 0.24653 0.0
H1261 H 0.25144 0.83792 0.15956 0.0
H1262 H 0.26031 0.88145 0.16631 0.0
H1263 H 0.26417 0.85745 0.19871 0.0
H1264 H 0.27539 0.97965 0.21135 0.0
H1265 H 0.28465 0.92176 0.28913 0.0
H1266 H 0.19604 0.91499 0.18194 0.0
H1267 H 0.22864 0.91237 0.15941 0.0
H1268 H 0.23474 0.95404 0.17047 0.0
H1269 H 0.20815 0.84412 0.27571 0.0
H1270 H 0.25075 0.86149 0.29262 0.0
H1271 H 0.24077 0.84091 0.25383 0.0
C1272 C 0.31836 0.26264 0.38505 0.0
C1273 C 0.33149 0.27486 0.41586 0.0
C1274 C 0.32197 0.23625 0.37055 0.0
C1275 C 0.33924 0.22164 0.38712 0.0
C1276 C 0.35209 0.23343 0.41839 0.0
C1277 C 0.348 0.2598 0.43241 0.0
C1278 C 0.30766 0.22428 0.33728 0.0
C1279 C 0.37068 0.21855 0.43685 0.0
C1280 C 0.32396 0.13374 0.35989 0.0
C1281 C 0.35308 0.14292 0.34082 0.0
C1282 C 0.31919 0.15904 0.37524 0.0
C1283 C 0.34424 0.19439 0.37149 0.0
C1284 C 0.37384 0.20373 0.35236 0.0
C1285 C 0.37788 0.17785 0.33725 0.0
C1286 C 0.28723 0.14795 0.39527 0.0
C1287 C 0.40122 0.24107 0.34785 0.0
H1288 H 0.30544 0.27392 0.37203 0.0
H1289 H 0.3583 0.26901 0.45617 0.0
H1290 H 0.32889 0.22909 0.32055 0.0
H1291 H 0.28932 0.19605 0.33734 0.0
H1292 H 0.29412 0.23762 0.32794 0.0
H1293 H 0.37849 0.22996 0.46118 0.0
H1294 H 0.35391 0.19017 0.43926 0.0
H1295 H 0.39411 0.22322 0.42355 0.0
H1296 H 0.30475 0.10667 0.36257 0.0
H1297 H 0.40059 0.18487 0.32279 0.0
H1298 H 0.27207 0.15931 0.38542 0.0
H1299 H 0.29459 0.1577 0.42014 0.0
H1300 H 0.27045 0.11942 0.39609 0.0
H1301 H 0.38973 0.25552 0.33664 0.0
H1302 H 0.42287 0.24401 0.33257 0.0
H1303 H 0.41173 0.25319 0.37147 0.0
C1304 C 0.06663 0.3158 0.55589 0.0
C1305 C 0.06689 0.32952 0.58627 0.0
C1306 C 0.09681 0.31889 0.54243 0.0
C1307 C 0.12826 0.33633 0.55958 0.0
C1308 C 0.12871 0.34978 0.59044 0.0
C1309 C 0.09801 0.34612 0.60347 0.0
C1310 C 0.09511 0.3039 0.50958 0.0
C1311 C 0.16176 0.36866 0.60942 0.0
C1312 C 0.20045 0.31994 0.53352 0.0
C1313 C 0.21999 0.34826 0.51345 0.0
C1314 C 0.17086 0.31601 0.54917 0.0
C1315 C 0.16073 0.34112 0.54472 0.0
C1316 C 0.18088 0.37014 0.5249 0.0
C1317 C 0.21024 0.37331 0.50945 0.0
C1318 C 0.15002 0.2846 0.56989 0.0
C1319 C 0.17113 0.3976 0.51966 0.0
H1320 H 0.0428 0.30282 0.54236 0.0
H1321 H 0.09858 0.35688 0.6269 0.0
H1322 H 0.11169 0.32484 0.49265 0.0
H1323 H 0.10514 0.28569 0.51054 0.0
H1324 H 0.06842 0.29002 0.49987 0.0
H1325 H 0.15763 0.37671 0.63345 0.0
H1326 H 0.1734 0.352 0.61255 0.0
H1327 H 0.1807 0.392 0.59611 0.0
H1328 H 0.208 0.30052 0.53649 0.0
H1329 H 0.22563 0.39538 0.49415 0.0
H1330 H 0.12376 0.26881 0.55968 0.0
H1331 H 0.14699 0.29258 0.5943 0.0
H1332 H 0.16212 0.26819 0.57191 0.0
H1333 H 0.14559 0.38613 0.50774 0.0
H1334 H 0.1903 0.41926 0.50466 0.0
H1335 H 0.16881 0.40811 0.54303 0.0
C1336 C 0.84403 0.20622 0.67177 0.0
C1337 C 0.87891 0.21627 0.67549 0.0
C1338 C 0.8181 0.17648 0.68705 0.0
C1339 C 0.82733 0.15631 0.70644 0.0
C1340 C 0.86264 0.16658 0.71039 0.0
C1341 C 0.88799 0.19649 0.69491 0.0
C1342 C 0.7808 0.16655 0.68232 0.0
C1343 C 0.87362 0.14575 0.73064 0.0
C1344 C 0.76145 0.09382 0.76662 0.0
C1345 C 0.74679 0.06246 0.74975 0.0
C1346 C 0.78781 0.12453 0.75294 0.0
C1347 C 0.80001 0.12388 0.72173 0.0
C1348 C 0.7858 0.09222 0.70487 0.0
C1349 C 0.75937 0.06201 0.71899 0.0
C1350 C 0.80223 0.15779 0.77167 0.0
C1351 C 0.79825 0.09028 0.67168 0.0
H1352 H 0.83708 0.22179 0.65701 0.0
H1353 H 0.91502 0.20428 0.69769 0.0
H1354 H 0.76655 0.14078 0.6708 0.0
H1355 H 0.76843 0.1646 0.70588 0.0
H1356 H 0.77798 0.18546 0.66721 0.0
H1357 H 0.90213 0.15766 0.73187 0.0
H1358 H 0.86342 0.1431 0.75535 0.0
H1359 H 0.86264 0.11932 0.72063 0.0
H1360 H 0.75192 0.09454 0.79033 0.0
H1361 H 0.74841 0.03799 0.70571 0.0
H1362 H 0.79762 0.17662 0.75838 0.0
H1363 H 0.83057 0.16948 0.77441 0.0
H1364 H 0.79046 0.15389 0.79586 0.0
H1365 H 0.79354 0.10681 0.65498 0.0
H1366 H 0.78518 0.06351 0.6621 0.0
H1367 H 0.82648 0.10028 0.67203 0.0
loop_
_geom_bond_atom_site_label_1
_geom_bond_atom_site_label_2
_geom_bond_distance
_geom_bond_site_symmetry_2
_ccdc_geom_bond_type
Co0 O3 1.970 . S
Co0 N17 1.989 . S
Co0 O25 1.967 . S
Co0 O32 1.920 1_554 S
Co1 O4 1.966 . S
Co1 N10 2.022 . S
Co1 N18 1.993 . S
Co1 O26 1.941 . S
C2 O3 1.258 . S
C2 O4 1.263 . S
O3 Co0 1.970 . S
O3 C2 1.258 . S
O4 Co1 1.966 . S
O4 C2 1.263 . S
C5 O6 1.235 . S
C5 O32 1.289 . S
O6 C5 1.235 . S
C7 C9 1.400 . S
C7 N10 1.351 . S
C7 C12 1.501 . S
C8 C9 1.387 . S
C8 N11 1.341 . S
C9 C7 1.400 . S
C9 C8 1.387 . S
N10 Co1 2.022 . S
N10 C7 1.351 . S
N10 N11 1.365 . S
N11 C8 1.341 . S
N11 N10 1.365 . S
N11 H31 0.862 . S
C12 C7 1.501 . S
C12 H13 0.961 . S
C12 H14 0.961 . S
C12 H15 0.960 . S
H13 C12 0.961 . S
H14 C12 0.961 . S
H15 C12 0.960 . S
C16 N17 1.342 1_556 S
C16 C20 1.401 1_556 S
C16 C21 1.499 . S
N17 Co0 1.989 . S
N17 C16 1.342 1_554 S
N17 N18 1.388 . S
N18 Co1 1.993 . S
N18 N17 1.388 . S
N18 C19 1.346 . S
C19 N18 1.346 . S
C19 C20 1.396 . S
C19 C29 1.510 . S
C20 C16 1.401 1_554 S
C20 C19 1.396 . S
C21 C16 1.499 . S
C21 H22 0.959 . S
C21 H23 0.960 . S
C21 H24 0.961 . S
H22 C21 0.959 . S
H23 C21 0.960 . S
H24 C21 0.961 . S
O25 Co0 1.967 . S
O25 C33 1.258 . S
O26 Co1 1.941 . S
O26 C33 1.266 . S
H27 C29 0.959 . S
H28 C29 0.961 . S
C29 C19 1.510 . S
C29 H27 0.959 . S
C29 H28 0.961 . S
C29 H30 0.960 . S
H30 C29 0.960 . S
H31 N11 0.862 . S
O32 Co0 1.920 1_556 S
O32 C5 1.289 . S
C33 O25 1.258 . S
C33 O26 1.266 . S
Co34 O37 1.970 . S
Co34 N51 1.989 . S
Co34 O59 1.967 . S
Co34 O66 1.920 . S
Co35 O38 1.966 . S
Co35 N44 2.022 . S
Co35 N52 1.993 . S
Co35 O60 1.941 . S
C36 O37 1.258 . S
C36 O38 1.263 . S
O37 Co34 1.970 . S
O37 C36 1.258 . S
O38 Co35 1.966 . S
O38 C36 1.263 . S
C39 O40 1.235 . S
C39 O66 1.289 . S
O40 C39 1.235 . S
C41 C43 1.400 . S
C41 N44 1.351 . S
C41 C46 1.501 . S
C42 C43 1.387 . S
C42 N45 1.341 . S
C43 C41 1.400 . S
C43 C42 1.387 . S
N44 Co35 2.022 . S
N44 C41 1.351 . S
N44 N45 1.365 . S
N45 C42 1.341 . S
N45 N44 1.365 . S
N45 H65 0.862 . S
C46 C41 1.501 . S
C46 H47 0.961 . S
C46 H48 0.961 . S
C46 H49 0.960 . S
H47 C46 0.961 . S
H48 C46 0.961 . S
H49 C46 0.960 . S
C50 N51 1.342 . S
C50 C54 1.401 . S
C50 C55 1.499 . S
N51 Co34 1.989 . S
N51 C50 1.342 . S
N51 N52 1.388 . S
N52 Co35 1.993 . S
N52 N51 1.388 . S
N52 C53 1.346 . S
C53 N52 1.346 . S
C53 C54 1.396 . S
C53 C63 1.510 . S
C54 C50 1.401 . S
C54 C53 1.396 . S
C55 C50 1.499 . S
C55 H56 0.959 . S
C55 H57 0.960 . S
C55 H58 0.961 . S
H56 C55 0.959 . S
H57 C55 0.960 . S
H58 C55 0.961 . S
O59 Co34 1.967 . S
O59 C67 1.258 . S
O60 Co35 1.941 . S
O60 C67 1.266 . S
H61 C63 0.959 . S
H62 C63 0.961 . S
C63 C53 1.510 . S
C63 H61 0.959 . S
C63 H62 0.961 . S
C63 H64 0.960 . S
H64 C63 0.960 . S
H65 N45 0.862 . S
O66 Co34 1.920 . S
O66 C39 1.289 . S
C67 O59 1.258 . S
C67 O60 1.266 . S
Co68 O71 1.970 . S
Co68 N85 1.989 . S
Co68 O93 1.967 . S
Co68 O100 1.920 . S
Co69 O72 1.966 . S
Co69 N78 2.022 . S
Co69 N86 1.993 . S
Co69 O94 1.941 . S
C70 O71 1.258 . S
C70 O72 1.263 . S
O71 Co68 1.970 . S
O71 C70 1.258 . S
O72 Co69 1.966 . S
O72 C70 1.263 . S
C73 O74 1.235 . S
C73 O100 1.289 . S
O74 C73 1.235 . S
C75 C77 1.400 . S
C75 N78 1.351 . S
C75 C80 1.501 . S
C76 C77 1.387 . S
C76 N79 1.341 . S
C77 C75 1.400 . S
C77 C76 1.387 . S
N78 Co69 2.022 . S
N78 C75 1.351 . S
N78 N79 1.365 . S
N79 C76 1.341 . S
N79 N78 1.365 . S
N79 H99 0.862 . S
C80 C75 1.501 . S
C80 H81 0.961 . S
C80 H82 0.961 . S
C80 H83 0.960 . S
H81 C80 0.961 . S
H82 C80 0.961 . S
H83 C80 0.960 . S
C84 N85 1.342 . S
C84 C88 1.401 . S
C84 C89 1.499 . S
N85 Co68 1.989 . S
N85 C84 1.342 . S
N85 N86 1.388 . S
N86 Co69 1.993 . S
N86 N85 1.388 . S
N86 C87 1.346 . S
C87 N86 1.346 . S
C87 C88 1.396 . S
C87 C97 1.510 . S
C88 C84 1.401 . S
C88 C87 1.396 . S
C89 C84 1.499 . S
C89 H90 0.959 . S
C89 H91 0.960 . S
C89 H92 0.961 . S
H90 C89 0.959 . S
H91 C89 0.960 . S
H92 C89 0.961 . S
O93 Co68 1.967 . S
O93 C101 1.258 . S
O94 Co69 1.941 . S
O94 C101 1.266 . S
H95 C97 0.959 . S
H96 C97 0.961 . S
C97 C87 1.510 . S
C97 H95 0.959 . S
C97 H96 0.961 . S
C97 H98 0.960 . S
H98 C97 0.960 . S
H99 N79 0.862 . S
O100 Co68 1.920 . S
O100 C73 1.289 . S
C101 O93 1.258 . S
C101 O94 1.266 . S
Co102 O105 1.970 . S
Co102 N119 1.989 . S
Co102 O127 1.967 . S
Co102 O134 1.920 . S
Co103 O106 1.966 . S
Co103 N112 2.022 . S
Co103 N120 1.993 . S
Co103 O128 1.941 . S
C104 O105 1.258 . S
C104 O106 1.263 . S
O105 Co102 1.970 . S
O105 C104 1.258 . S
O106 Co103 1.966 . S
O106 C104 1.263 . S
C107 O108 1.235 . S
C107 O134 1.289 . S
O108 C107 1.235 . S
C109 C111 1.400 . S
C109 N112 1.351 . S
C109 C114 1.501 . S
C110 C111 1.387 . S
C110 N113 1.341 . S
C111 C109 1.400 . S
C111 C110 1.387 . S
N112 Co103 2.022 . S
N112 C109 1.351 . S
N112 N113 1.365 . S
N113 C110 1.341 . S
N113 N112 1.365 . S
N113 H133 0.862 . S
C114 C109 1.501 . S
C114 H115 0.961 . S
C114 H116 0.961 . S
C114 H117 0.960 . S
H115 C114 0.961 . S
H116 C114 0.961 . S
H117 C114 0.960 . S
C118 N119 1.342 . S
C118 C122 1.401 . S
C118 C123 1.499 . S
N119 Co102 1.989 . S
N119 C118 1.342 . S
N119 N120 1.388 . S
N120 Co103 1.993 . S
N120 N119 1.388 . S
N120 C121 1.346 . S
C121 N120 1.346 . S
C121 C122 1.396 . S
C121 C131 1.510 . S
C122 C118 1.401 . S
C122 C121 1.396 . S
C123 C118 1.499 . S
C123 H124 0.959 . S
C123 H125 0.960 . S
C123 H126 0.961 . S
H124 C123 0.959 . S
H125 C123 0.960 . S
H126 C123 0.961 . S
O127 Co102 1.967 . S
O127 C135 1.258 . S
O128 Co103 1.941 . S
O128 C135 1.266 . S
H129 C131 0.959 . S
H130 C131 0.961 . S
C131 C121 1.510 . S
C131 H129 0.959 . S
C131 H130 0.961 . S
C131 H132 0.960 . S
H132 C131 0.960 . S
H133 N113 0.862 . S
O134 Co102 1.920 . S
O134 C107 1.289 . S
C135 O127 1.258 . S
C135 O128 1.266 . S
Co136 O139 1.970 . S
Co136 N153 1.989 . S
Co136 O161 1.967 . S
Co136 O168 1.920 . S
Co137 O140 1.966 . S
Co137 N146 2.022 . S
Co137 N154 1.993 . S
Co137 O162 1.941 . S
C138 O139 1.258 . S
C138 O140 1.263 . S
O139 Co136 1.970 . S
O139 C138 1.258 . S
O140 Co137 1.966 . S
O140 C138 1.263 . S
C141 O142 1.235 . S
C141 O168 1.289 . S
O142 C141 1.235 . S
C143 C145 1.400 . S
C143 N146 1.351 . S
C143 C148 1.501 . S
C144 C145 1.387 . S
C144 N147 1.341 . S
C145 C143 1.400 . S
C145 C144 1.387 . S
N146 Co137 2.022 . S
N146 C143 1.351 . S
N146 N147 1.365 . S
N147 C144 1.341 . S
N147 N146 1.365 . S
N147 H167 0.862 . S
C148 C143 1.501 . S
C148 H149 0.961 . S
C148 H150 0.961 . S
C148 H151 0.960 . S
H149 C148 0.961 . S
H150 C148 0.961 . S
H151 C148 0.960 . S
C152 N153 1.342 . S
C152 C156 1.401 . S
C152 C157 1.499 . S
N153 Co136 1.989 . S
N153 C152 1.342 . S
N153 N154 1.388 . S
N154 Co137 1.993 . S
N154 N153 1.388 . S
N154 C155 1.346 . S
C155 N154 1.346 . S
C155 C156 1.396 . S
C155 C165 1.510 . S
C156 C152 1.401 . S
C156 C155 1.396 . S
C157 C152 1.499 . S
C157 H158 0.959 . S
C157 H159 0.960 . S
C157 H160 0.961 . S
H158 C157 0.959 . S
H159 C157 0.960 . S
H160 C157 0.961 . S
O161 Co136 1.967 . S
O161 C169 1.258 . S
O162 Co137 1.941 . S
O162 C169 1.266 . S
H163 C165 0.959 . S
H164 C165 0.961 . S
C165 C155 1.510 . S
C165 H163 0.959 . S
C165 H164 0.961 . S
C165 H166 0.960 . S
H166 C165 0.960 . S
H167 N147 0.862 . S
O168 Co136 1.920 . S
O168 C141 1.289 . S
C169 O161 1.258 . S
C169 O162 1.266 . S
Co170 O173 1.970 . S
Co170 N187 1.989 . S
Co170 O195 1.967 . S
Co170 O202 1.920 . S
Co171 O174 1.966 . S
Co171 N180 2.022 . S
Co171 N188 1.993 . S
Co171 O196 1.941 . S
C172 O173 1.258 . S
C172 O174 1.263 . S
O173 Co170 1.970 . S
O173 C172 1.258 . S
O174 Co171 1.966 . S
O174 C172 1.263 . S
C175 O176 1.235 . S
C175 O202 1.289 . S
O176 C175 1.235 . S
C177 C179 1.400 . S
C177 N180 1.351 . S
C177 C182 1.501 . S
C178 C179 1.387 . S
C178 N181 1.341 . S
C179 C177 1.400 . S
C179 C178 1.387 . S
N180 Co171 2.022 . S
N180 C177 1.351 . S
N180 N181 1.365 . S
N181 C178 1.341 . S
N181 N180 1.365 . S
N181 H201 0.862 . S
C182 C177 1.501 . S
C182 H183 0.961 . S
C182 H184 0.961 . S
C182 H185 0.960 . S
H183 C182 0.961 . S
H184 C182 0.961 . S
H185 C182 0.960 . S
C186 N187 1.342 . S
C186 C190 1.401 . S
C186 C191 1.499 . S
N187 Co170 1.989 . S
N187 C186 1.342 . S
N187 N188 1.388 . S
N188 Co171 1.993 . S
N188 N187 1.388 . S
N188 C189 1.346 . S
C189 N188 1.346 . S
C189 C190 1.396 . S
C189 C199 1.510 . S
C190 C186 1.401 . S
C190 C189 1.396 . S
C191 C186 1.499 . S
C191 H192 0.959 . S
C191 H193 0.960 . S
C191 H194 0.961 . S
H192 C191 0.959 . S
H193 C191 0.960 . S
H194 C191 0.961 . S
O195 Co170 1.967 . S
O195 C203 1.258 . S
O196 Co171 1.941 . S
O196 C203 1.266 . S
H197 C199 0.959 . S
H198 C199 0.961 . S
C199 C189 1.510 . S
C199 H197 0.959 . S
C199 H198 0.961 . S
C199 H200 0.960 . S
H200 C199 0.960 . S
H201 N181 0.862 . S
O202 Co170 1.920 . S
O202 C175 1.289 . S
C203 O195 1.258 . S
C203 O196 1.266 . S
Co204 O207 1.970 . S
Co204 N221 1.989 . S
Co204 O229 1.967 . S
Co204 O236 1.920 . S
Co205 O208 1.966 . S
Co205 N214 2.022 . S
Co205 N222 1.993 . S
Co205 O230 1.941 . S
C206 O207 1.258 . S
C206 O208 1.263 . S
O207 Co204 1.970 . S
O207 C206 1.258 . S
O208 Co205 1.966 . S
O208 C206 1.263 . S
C209 O210 1.235 . S
C209 O236 1.289 . S
O210 C209 1.235 . S
C211 C213 1.400 . S
C211 N214 1.351 . S
C211 C216 1.501 . S
C212 C213 1.387 . S
C212 N215 1.341 . S
C213 C211 1.400 . S
C213 C212 1.387 . S
N214 Co205 2.022 . S
N214 C211 1.351 . S
N214 N215 1.365 . S
N215 C212 1.341 . S
N215 N214 1.365 . S
N215 H235 0.862 . S
C216 C211 1.501 . S
C216 H217 0.961 . S
C216 H218 0.961 . S
C216 H219 0.960 . S
H217 C216 0.961 . S
H218 C216 0.961 . S
H219 C216 0.960 . S
C220 N221 1.342 . S
C220 C224 1.401 . S
C220 C225 1.499 . S
N221 Co204 1.989 . S
N221 C220 1.342 . S
N221 N222 1.388 . S
N222 Co205 1.993 . S
N222 N221 1.388 . S
N222 C223 1.346 . S
C223 N222 1.346 . S
C223 C224 1.396 . S
C223 C233 1.510 . S
C224 C220 1.401 . S
C224 C223 1.396 . S
C225 C220 1.499 . S
C225 H226 0.959 . S
C225 H227 0.960 . S
C225 H228 0.961 . S
H226 C225 0.959 . S
H227 C225 0.960 . S
H228 C225 0.961 . S
O229 Co204 1.967 . S
O229 C237 1.258 . S
O230 Co205 1.941 . S
O230 C237 1.266 . S
H231 C233 0.959 . S
H232 C233 0.961 . S
C233 C223 1.510 . S
C233 H231 0.959 . S
C233 H232 0.961 . S
C233 H234 0.960 . S
H234 C233 0.960 . S
H235 N215 0.862 . S
O236 Co204 1.920 . S
O236 C209 1.289 . S
C237 O229 1.258 . S
C237 O230 1.266 . S
Co238 O241 1.970 . S
Co238 N255 1.989 . S
Co238 O263 1.967 . S
Co238 O270 1.920 1_556 S
Co239 O242 1.966 . S
Co239 N248 2.022 . S
Co239 N256 1.993 . S
Co239 O264 1.941 . S
C240 O241 1.258 . S
C240 O242 1.263 . S
O241 Co238 1.970 . S
O241 C240 1.258 . S
O242 Co239 1.966 . S
O242 C240 1.263 . S
C243 O244 1.235 . S
C243 O270 1.289 . S
O244 C243 1.235 . S
C245 C247 1.400 . S
C245 N248 1.351 . S
C245 C250 1.501 . S
C246 C247 1.387 . S
C246 N249 1.341 . S
C247 C245 1.400 . S
C247 C246 1.387 . S
N248 Co239 2.022 . S
N248 C245 1.351 . S
N248 N249 1.365 . S
N249 C246 1.341 . S
N249 N248 1.365 . S
N249 H269 0.862 . S
C250 C245 1.501 . S
C250 H251 0.961 . S
C250 H252 0.961 . S
C250 H253 0.960 . S
H251 C250 0.961 . S
H252 C250 0.961 . S
H253 C250 0.960 . S
C254 N255 1.342 1_554 S
C254 C258 1.401 1_554 S
C254 C259 1.499 . S
N255 Co238 1.989 . S
N255 C254 1.342 1_556 S
N255 N256 1.388 . S
N256 Co239 1.993 . S
N256 N255 1.388 . S
N256 C257 1.346 . S
C257 N256 1.346 . S
C257 C258 1.396 . S
C257 C267 1.510 . S
C258 C254 1.401 1_556 S
C258 C257 1.396 . S
C259 C254 1.499 . S
C259 H260 0.959 . S
C259 H261 0.960 . S
C259 H262 0.961 . S
H260 C259 0.959 . S
H261 C259 0.960 . S
H262 C259 0.961 . S
O263 Co238 1.967 . S
O263 C271 1.258 . S
O264 Co239 1.941 . S
O264 C271 1.266 . S
H265 C267 0.959 . S
H266 C267 0.961 . S
C267 C257 1.510 . S
C267 H265 0.959 . S
C267 H266 0.961 . S
C267 H268 0.960 . S
H268 C267 0.960 . S
H269 N249 0.862 . S
O270 Co238 1.920 1_554 S
O270 C243 1.289 . S
C271 O263 1.258 . S
C271 O264 1.266 . S
Co272 O275 1.970 . S
Co272 N289 1.989 . S
Co272 O297 1.967 . S
Co272 O304 1.920 . S
Co273 O276 1.966 . S
Co273 N282 2.022 . S
Co273 N290 1.993 . S
Co273 O298 1.941 . S
C274 O275 1.258 . S
C274 O276 1.263 . S
O275 Co272 1.970 . S
O275 C274 1.258 . S
O276 Co273 1.966 . S
O276 C274 1.263 . S
C277 O278 1.235 . S
C277 O304 1.289 . S
O278 C277 1.235 . S
C279 C281 1.400 . S
C279 N282 1.351 . S
C279 C284 1.501 . S
C280 C281 1.387 . S
C280 N283 1.341 . S
C281 C279 1.400 . S
C281 C280 1.387 . S
N282 Co273 2.022 . S
N282 C279 1.351 . S
N282 N283 1.365 . S
N283 C280 1.341 . S
N283 N282 1.365 . S
N283 H303 0.862 . S
C284 C279 1.501 . S
C284 H285 0.961 . S
C284 H286 0.961 . S
C284 H287 0.960 . S
H285 C284 0.961 . S
H286 C284 0.961 . S
H287 C284 0.960 . S
C288 N289 1.342 . S
C288 C292 1.401 . S
C288 C293 1.499 . S
N289 Co272 1.989 . S
N289 C288 1.342 . S
N289 N290 1.388 . S
N290 Co273 1.993 . S
N290 N289 1.388 . S
N290 C291 1.346 . S
C291 N290 1.346 . S
C291 C292 1.396 . S
C291 C301 1.510 . S
C292 C288 1.401 . S
C292 C291 1.396 . S
C293 C288 1.499 . S
C293 H294 0.959 . S
C293 H295 0.960 . S
C293 H296 0.961 . S
H294 C293 0.959 . S
H295 C293 0.960 . S
H296 C293 0.961 . S
O297 Co272 1.967 . S
O297 C305 1.258 . S
O298 Co273 1.941 . S
O298 C305 1.266 . S
H299 C301 0.959 . S
H300 C301 0.961 . S
C301 C291 1.510 . S
C301 H299 0.959 . S
C301 H300 0.961 . S
C301 H302 0.960 . S
H302 C301 0.960 . S
H303 N283 0.862 . S
O304 Co272 1.920 . S
O304 C277 1.289 . S
C305 O297 1.258 . S
C305 O298 1.266 . S
Co306 O309 1.970 . S
Co306 N323 1.989 . S
Co306 O331 1.967 . S
Co306 O338 1.920 . S
Co307 O310 1.966 . S
Co307 N316 2.022 . S
Co307 N324 1.993 . S
Co307 O332 1.941 . S
C308 O309 1.258 . S
C308 O310 1.263 . S
O309 Co306 1.970 . S
O309 C308 1.258 . S
O310 Co307 1.966 . S
O310 C308 1.263 . S
C311 O312 1.235 . S
C311 O338 1.289 . S
O312 C311 1.235 . S
C313 C315 1.400 . S
C313 N316 1.351 . S
C313 C318 1.501 . S
C314 C315 1.387 . S
C314 N317 1.341 . S
C315 C313 1.400 . S
C315 C314 1.387 . S
N316 Co307 2.022 . S
N316 C313 1.351 . S
N316 N317 1.365 . S
N317 C314 1.341 . S
N317 N316 1.365 . S
N317 H337 0.862 . S
C318 C313 1.501 . S
C318 H319 0.961 . S
C318 H320 0.961 . S
C318 H321 0.960 . S
H319 C318 0.961 . S
H320 C318 0.961 . S
H321 C318 0.960 . S
C322 N323 1.342 . S
C322 C326 1.401 . S
C322 C327 1.499 . S
N323 Co306 1.989 . S
N323 C322 1.342 . S
N323 N324 1.388 . S
N324 Co307 1.993 . S
N324 N323 1.388 . S
N324 C325 1.346 . S
C325 N324 1.346 . S
C325 C326 1.396 . S
C325 C335 1.510 . S
C326 C322 1.401 . S
C326 C325 1.396 . S
C327 C322 1.499 . S
C327 H328 0.959 . S
C327 H329 0.960 . S
C327 H330 0.961 . S
H328 C327 0.959 . S
H329 C327 0.960 . S
H330 C327 0.961 . S
O331 Co306 1.967 . S
O331 C339 1.258 . S
O332 Co307 1.941 . S
O332 C339 1.266 . S
H333 C335 0.959 . S
H334 C335 0.961 . S
C335 C325 1.510 . S
C335 H333 0.959 . S
C335 H334 0.961 . S
C335 H336 0.960 . S
H336 C335 0.960 . S
H337 N317 0.862 . S
O338 Co306 1.920 . S
O338 C311 1.289 . S
C339 O331 1.258 . S
C339 O332 1.266 . S
Co340 O343 1.970 . S
Co340 N357 1.989 . S
Co340 O365 1.967 . S
Co340 O372 1.920 . S
Co341 O344 1.966 . S
Co341 N350 2.022 . S
Co341 N358 1.993 . S
Co341 O366 1.941 . S
C342 O343 1.258 . S
C342 O344 1.263 . S
O343 Co340 1.970 . S
O343 C342 1.258 . S
O344 Co341 1.966 . S
O344 C342 1.263 . S
C345 O346 1.235 . S
C345 O372 1.289 . S
O346 C345 1.235 . S
C347 C349 1.400 . S
C347 N350 1.351 . S
C347 C352 1.501 . S
C348 C349 1.387 . S
C348 N351 1.341 . S
C349 C347 1.400 . S
C349 C348 1.387 . S
N350 Co341 2.022 . S
N350 C347 1.351 . S
N350 N351 1.365 . S
N351 C348 1.341 . S
N351 N350 1.365 . S
N351 H371 0.862 . S
C352 C347 1.501 . S
C352 H353 0.961 . S
C352 H354 0.961 . S
C352 H355 0.960 . S
H353 C352 0.961 . S
H354 C352 0.961 . S
H355 C352 0.960 . S
C356 N357 1.342 . S
C356 C360 1.401 . S
C356 C361 1.499 . S
N357 Co340 1.989 . S
N357 C356 1.342 . S
N357 N358 1.388 . S
N358 Co341 1.993 . S
N358 N357 1.388 . S
N358 C359 1.346 . S
C359 N358 1.346 . S
C359 C360 1.396 . S
C359 C369 1.510 . S
C360 C356 1.401 . S
C360 C359 1.396 . S
C361 C356 1.499 . S
C361 H362 0.959 . S
C361 H363 0.960 . S
C361 H364 0.961 . S
H362 C361 0.959 . S
H363 C361 0.960 . S
H364 C361 0.961 . S
O365 Co340 1.967 . S
O365 C373 1.258 . S
O366 Co341 1.941 . S
O366 C373 1.266 . S
H367 C369 0.959 . S
H368 C369 0.961 . S
C369 C359 1.510 . S
C369 H367 0.959 . S
C369 H368 0.961 . S
C369 H370 0.960 . S
H370 C369 0.960 . S
H371 N351 0.862 . S
O372 Co340 1.920 . S
O372 C345 1.289 . S
C373 O365 1.258 . S
C373 O366 1.266 . S
Co374 O377 1.970 . S
Co374 N391 1.989 . S
Co374 O399 1.967 . S
Co374 O406 1.920 . S
Co375 O378 1.966 . S
Co375 N384 2.022 . S
Co375 N392 1.993 . S
Co375 O400 1.941 . S
C376 O377 1.258 . S
C376 O378 1.263 . S
O377 Co374 1.970 . S
O377 C376 1.258 . S
O378 Co375 1.966 . S
O378 C376 1.263 . S
C379 O380 1.235 . S
C379 O406 1.289 . S
O380 C379 1.235 . S
C381 C383 1.400 . S
C381 N384 1.351 . S
C381 C386 1.501 . S
C382 C383 1.387 . S
C382 N385 1.341 . S
C383 C381 1.400 . S
C383 C382 1.387 . S
N384 Co375 2.022 . S
N384 C381 1.351 . S
N384 N385 1.365 . S
N385 C382 1.341 . S
N385 N384 1.365 . S
N385 H405 0.862 . S
C386 C381 1.501 . S
C386 H387 0.961 . S
C386 H388 0.961 . S
C386 H389 0.960 . S
H387 C386 0.961 . S
H388 C386 0.961 . S
H389 C386 0.960 . S
C390 N391 1.342 . S
C390 C394 1.401 . S
C390 C395 1.499 . S
N391 Co374 1.989 . S
N391 C390 1.342 . S
N391 N392 1.388 . S
N392 Co375 1.993 . S
N392 N391 1.388 . S
N392 C393 1.346 . S
C393 N392 1.346 . S
C393 C394 1.396 . S
C393 C403 1.510 . S
C394 C390 1.401 . S
C394 C393 1.396 . S
C395 C390 1.499 . S
C395 H396 0.959 . S
C395 H397 0.960 . S
C395 H398 0.961 . S
H396 C395 0.959 . S
H397 C395 0.960 . S
H398 C395 0.961 . S
O399 Co374 1.967 . S
O399 C407 1.258 . S
O400 Co375 1.941 . S
O400 C407 1.266 . S
H401 C403 0.959 . S
H402 C403 0.961 . S
C403 C393 1.510 . S
C403 H401 0.959 . S
C403 H402 0.961 . S
C403 H404 0.960 . S
H404 C403 0.960 . S
H405 N385 0.862 . S
O406 Co374 1.920 . S
O406 C379 1.289 . S
C407 O399 1.258 . S
C407 O400 1.266 . S
C408 C409 1.391 . S
C408 C410 1.394 . S
C408 H424 0.931 . S
C409 C408 1.391 . S
C409 C413 1.376 . S
C410 C408 1.394 . S
C410 C411 1.369 . S
C410 C414 1.531 . S
C411 C410 1.369 . S
C411 C412 1.410 . S
C411 C419 1.503 . S
C412 C411 1.410 . S
C412 C413 1.392 . S
C412 C415 1.511 . S
C413 C409 1.376 . S
C413 C412 1.392 . S
C413 H425 0.929 . S
C414 C410 1.531 . S
C414 H426 0.960 . S
C414 H427 0.962 . S
C414 H428 0.960 . S
C415 C412 1.511 . S
C415 H429 0.961 . S
C415 H430 0.961 . S
C415 H431 0.961 . S
C416 C417 1.370 . S
C416 C418 1.363 . S
C416 H432 0.931 . S
C417 C416 1.370 . S
C417 C421 1.408 . S
C418 C416 1.363 . S
C418 C419 1.370 . S
C418 C422 1.524 . S
C419 C411 1.503 . S
C419 C418 1.370 . S
C419 C420 1.403 . S
C420 C419 1.403 . S
C420 C421 1.404 . S
C420 C423 1.539 . S
C421 C417 1.408 . S
C421 C420 1.404 . S
C421 H433 0.930 . S
C422 C418 1.524 . S
C422 H434 0.956 . S
C422 H435 0.961 . S
C422 H436 0.961 . S
C423 C420 1.539 . S
C423 H437 0.958 . S
C423 H438 0.961 . S
C423 H439 0.960 . S
H424 C408 0.931 . S
H425 C413 0.929 . S
H426 C414 0.960 . S
H427 C414 0.962 . S
H428 C414 0.960 . S
H429 C415 0.961 . S
H430 C415 0.961 . S
H431 C415 0.961 . S
H432 C416 0.931 . S
H433 C421 0.930 . S
H434 C422 0.956 . S
H435 C422 0.961 . S
H436 C422 0.961 . S
H437 C423 0.958 . S
H438 C423 0.961 . S
H439 C423 0.960 . S
C440 C441 1.391 . S
C440 C442 1.394 . S
C440 H456 0.931 . S
C441 C440 1.391 . S
C441 C445 1.376 . S
C442 C440 1.394 . S
C442 C443 1.369 . S
C442 C446 1.531 . S
C443 C442 1.369 . S
C443 C444 1.410 . S
C443 C451 1.503 . S
C444 C443 1.410 . S
C444 C445 1.392 . S
C444 C447 1.511 . S
C445 C441 1.376 . S
C445 C444 1.392 . S
C445 H457 0.929 . S
C446 C442 1.531 . S
C446 H458 0.960 . S
C446 H459 0.962 . S
C446 H460 0.960 . S
C447 C444 1.511 . S
C447 H461 0.961 . S
C447 H462 0.961 . S
C447 H463 0.961 . S
C448 C449 1.370 . S
C448 C450 1.363 . S
C448 H464 0.931 . S
C449 C448 1.370 . S
C449 C453 1.408 . S
C450 C448 1.363 . S
C450 C451 1.370 . S
C450 C454 1.524 . S
C451 C443 1.503 . S
C451 C450 1.370 . S
C451 C452 1.403 . S
C452 C451 1.403 . S
C452 C453 1.404 . S
C452 C455 1.539 . S
C453 C449 1.408 . S
C453 C452 1.404 . S
C453 H465 0.930 . S
C454 C450 1.524 . S
C454 H466 0.956 . S
C454 H467 0.961 . S
C454 H468 0.961 . S
C455 C452 1.539 . S
C455 H469 0.958 . S
C455 H470 0.961 . S
C455 H471 0.960 . S
H456 C440 0.931 . S
H457 C445 0.929 . S
H458 C446 0.960 . S
H459 C446 0.962 . S
H460 C446 0.960 . S
H461 C447 0.961 . S
H462 C447 0.961 . S
H463 C447 0.961 . S
H464 C448 0.931 . S
H465 C453 0.930 . S
H466 C454 0.956 . S
H467 C454 0.961 . S
H468 C454 0.961 . S
H469 C455 0.958 . S
H470 C455 0.961 . S
H471 C455 0.960 . S
C472 C473 1.391 . S
C472 C474 1.394 . S
C472 H488 0.931 . S
C473 C472 1.391 . S
C473 C477 1.376 . S
C474 C472 1.394 . S
C474 C475 1.369 . S
C474 C478 1.531 . S
C475 C474 1.369 . S
C475 C476 1.410 . S
C475 C483 1.503 . S
C476 C475 1.410 . S
C476 C477 1.392 . S
C476 C479 1.511 . S
C477 C473 1.376 . S
C477 C476 1.392 . S
C477 H489 0.929 . S
C478 C474 1.531 . S
C478 H490 0.960 . S
C478 H491 0.962 . S
C478 H492 0.960 . S
C479 C476 1.511 . S
C479 H493 0.961 . S
C479 H494 0.961 . S
C479 H495 0.961 . S
C480 C481 1.370 . S
C480 C482 1.363 . S
C480 H496 0.931 . S
C481 C480 1.370 . S
C481 C485 1.408 . S
C482 C480 1.363 . S
C482 C483 1.370 . S
C482 C486 1.524 . S
C483 C475 1.503 . S
C483 C482 1.370 . S
C483 C484 1.403 . S
C484 C483 1.403 . S
C484 C485 1.404 . S
C484 C487 1.539 . S
C485 C481 1.408 . S
C485 C484 1.404 . S
C485 H497 0.930 . S
C486 C482 1.524 . S
C486 H498 0.956 . S
C486 H499 0.961 . S
C486 H500 0.961 . S
C487 C484 1.539 . S
C487 H501 0.958 . S
C487 H502 0.961 . S
C487 H503 0.960 . S
H488 C472 0.931 . S
H489 C477 0.929 . S
H490 C478 0.960 . S
H491 C478 0.962 . S
H492 C478 0.960 . S
H493 C479 0.961 . S
H494 C479 0.961 . S
H495 C479 0.961 . S
H496 C480 0.931 . S
H497 C485 0.930 . S
H498 C486 0.956 . S
H499 C486 0.961 . S
H500 C486 0.961 . S
H501 C487 0.958 . S
H502 C487 0.961 . S
H503 C487 0.960 . S
C504 C505 1.391 . S
C504 C506 1.394 . S
C504 H520 0.931 . S
C505 C504 1.391 . S
C505 C509 1.376 . S
C506 C504 1.394 . S
C506 C507 1.369 . S
C506 C510 1.531 . S
C507 C506 1.369 . S
C507 C508 1.410 . S
C507 C515 1.503 . S
C508 C507 1.410 . S
C508 C509 1.392 . S
C508 C511 1.511 . S
C509 C505 1.376 . S
C509 C508 1.392 . S
C509 H521 0.929 . S
C510 C506 1.531 . S
C510 H522 0.960 . S
C510 H523 0.962 . S
C510 H524 0.960 . S
C511 C508 1.511 . S
C511 H525 0.961 . S
C511 H526 0.961 . S
C511 H527 0.961 . S
C512 C513 1.370 . S
C512 C514 1.363 . S
C512 H528 0.931 . S
C513 C512 1.370 . S
C513 C517 1.408 . S
C514 C512 1.363 . S
C514 C515 1.370 . S
C514 C518 1.524 . S
C515 C507 1.503 . S
C515 C514 1.370 . S
C515 C516 1.403 . S
C516 C515 1.403 . S
C516 C517 1.404 . S
C516 C519 1.539 . S
C517 C513 1.408 . S
C517 C516 1.404 . S
C517 H529 0.930 . S
C518 C514 1.524 . S
C518 H530 0.956 . S
C518 H531 0.961 . S
C518 H532 0.961 . S
C519 C516 1.539 . S
C519 H533 0.958 . S
C519 H534 0.961 . S
C519 H535 0.960 . S
H520 C504 0.931 . S
H521 C509 0.929 . S
H522 C510 0.960 . S
H523 C510 0.962 . S
H524 C510 0.960 . S
H525 C511 0.961 . S
H526 C511 0.961 . S
H527 C511 0.961 . S
H528 C512 0.931 . S
H529 C517 0.930 . S
H530 C518 0.956 . S
H531 C518 0.961 . S
H532 C518 0.961 . S
H533 C519 0.958 . S
H534 C519 0.961 . S
H535 C519 0.960 . S
C536 C537 1.391 . S
C536 C538 1.394 . S
C536 H552 0.931 . S
C537 C536 1.391 . S
C537 C541 1.376 . S
C538 C536 1.394 . S
C538 C539 1.369 . S
C538 C542 1.531 . S
C539 C538 1.369 . S
C539 C540 1.410 . S
C539 C547 1.503 . S
C540 C539 1.410 . S
C540 C541 1.392 . S
C540 C543 1.511 . S
C541 C537 1.376 . S
C541 C540 1.392 . S
C541 H553 0.929 . S
C542 C538 1.531 . S
C542 H554 0.960 . S
C542 H555 0.962 . S
C542 H556 0.960 . S
C543 C540 1.511 . S
C543 H557 0.961 . S
C543 H558 0.961 . S
C543 H559 0.961 . S
C544 C545 1.370 . S
C544 C546 1.363 . S
C544 H560 0.931 . S
C545 C544 1.370 . S
C545 C549 1.408 . S
C546 C544 1.363 . S
C546 C547 1.370 . S
C546 C550 1.524 . S
C547 C539 1.503 . S
C547 C546 1.370 . S
C547 C548 1.403 . S
C548 C547 1.403 . S
C548 C549 1.404 . S
C548 C551 1.539 . S
C549 C545 1.408 . S
C549 C548 1.404 . S
C549 H561 0.930 . S
C550 C546 1.524 . S
C550 H562 0.956 . S
C550 H563 0.961 . S
C550 H564 0.961 . S
C551 C548 1.539 . S
C551 H565 0.958 . S
C551 H566 0.961 . S
C551 H567 0.960 . S
H552 C536 0.931 . S
H553 C541 0.929 . S
H554 C542 0.960 . S
H555 C542 0.962 . S
H556 C542 0.960 . S
H557 C543 0.961 . S
H558 C543 0.961 . S
H559 C543 0.961 . S
H560 C544 0.931 . S
H561 C549 0.930 . S
H562 C550 0.956 . S
H563 C550 0.961 . S
H564 C550 0.961 . S
H565 C551 0.958 . S
H566 C551 0.961 . S
H567 C551 0.960 . S
C568 C569 1.391 . S
C568 C570 1.394 . S
C568 H584 0.931 . S
C569 C568 1.391 . S
C569 C573 1.376 . S
C570 C568 1.394 . S
C570 C571 1.369 . S
C570 C574 1.531 . S
C571 C570 1.369 . S
C571 C572 1.410 . S
C571 C579 1.503 . S
C572 C571 1.410 . S
C572 C573 1.392 . S
C572 C575 1.511 . S
C573 C569 1.376 . S
C573 C572 1.392 . S
C573 H585 0.929 . S
C574 C570 1.531 . S
C574 H586 0.960 . S
C574 H587 0.962 . S
C574 H588 0.960 . S
C575 C572 1.511 . S
C575 H589 0.961 . S
C575 H590 0.961 . S
C575 H591 0.961 . S
C576 C577 1.370 . S
C576 C578 1.363 . S
C576 H592 0.931 . S
C577 C576 1.370 . S
C577 C581 1.408 . S
C578 C576 1.363 . S
C578 C579 1.370 . S
C578 C582 1.524 . S
C579 C571 1.503 . S
C579 C578 1.370 . S
C579 C580 1.403 . S
C580 C579 1.403 . S
C580 C581 1.404 . S
C580 C583 1.539 . S
C581 C577 1.408 . S
C581 C580 1.404 . S
C581 H593 0.930 . S
C582 C578 1.524 . S
C582 H594 0.956 . S
C582 H595 0.961 . S
C582 H596 0.961 . S
C583 C580 1.539 . S
C583 H597 0.958 . S
C583 H598 0.961 . S
C583 H599 0.960 . S
H584 C568 0.931 . S
H585 C573 0.929 . S
H586 C574 0.960 . S
H587 C574 0.962 . S
H588 C574 0.960 . S
H589 C575 0.961 . S
H590 C575 0.961 . S
H591 C575 0.961 . S
H592 C576 0.931 . S
H593 C581 0.930 . S
H594 C582 0.956 . S
H595 C582 0.961 . S
H596 C582 0.961 . S
H597 C583 0.958 . S
H598 C583 0.961 . S
H599 C583 0.960 . S
C600 C601 1.391 . S
C600 C602 1.394 . S
C600 H616 0.931 . S
C601 C600 1.391 . S
C601 C605 1.376 . S
C602 C600 1.394 . S
C602 C603 1.369 . S
C602 C606 1.531 . S
C603 C602 1.369 . S
C603 C604 1.410 . S
C603 C611 1.503 . S
C604 C603 1.410 . S
C604 C605 1.392 . S
C604 C607 1.511 . S
C605 C601 1.376 . S
C605 C604 1.392 . S
C605 H617 0.929 . S
C606 C602 1.531 . S
C606 H618 0.960 . S
C606 H619 0.962 . S
C606 H620 0.960 . S
C607 C604 1.511 . S
C607 H621 0.961 . S
C607 H622 0.961 . S
C607 H623 0.961 . S
C608 C609 1.370 . S
C608 C610 1.363 . S
C608 H624 0.931 . S
C609 C608 1.370 . S
C609 C613 1.408 . S
C610 C608 1.363 . S
C610 C611 1.370 . S
C610 C614 1.524 . S
C611 C603 1.503 . S
C611 C610 1.370 . S
C611 C612 1.403 . S
C612 C611 1.403 . S
C612 C613 1.404 . S
C612 C615 1.539 . S
C613 C609 1.408 . S
C613 C612 1.404 . S
C613 H625 0.930 . S
C614 C610 1.524 . S
C614 H626 0.956 . S
C614 H627 0.961 . S
C614 H628 0.961 . S
C615 C612 1.539 . S
C615 H629 0.958 . S
C615 H630 0.961 . S
C615 H631 0.960 . S
H616 C600 0.931 . S
H617 C605 0.929 . S
H618 C606 0.960 . S
H619 C606 0.962 . S
H620 C606 0.960 . S
H621 C607 0.961 . S
H622 C607 0.961 . S
H623 C607 0.961 . S
H624 C608 0.931 . S
H625 C613 0.930 . S
H626 C614 0.956 . S
H627 C614 0.961 . S
H628 C614 0.961 . S
H629 C615 0.958 . S
H630 C615 0.961 . S
H631 C615 0.960 . S
C632 C633 1.391 . S
C632 C634 1.394 . S
C632 H648 0.931 . S
C633 C632 1.391 . S
C633 C637 1.376 . S
C634 C632 1.394 . S
C634 C635 1.369 . S
C634 C638 1.531 . S
C635 C634 1.369 . S
C635 C636 1.410 . S
C635 C643 1.503 . S
C636 C635 1.410 . S
C636 C637 1.392 . S
C636 C639 1.511 . S
C637 C633 1.376 . S
C637 C636 1.392 . S
C637 H649 0.929 . S
C638 C634 1.531 . S
C638 H650 0.960 . S
C638 H651 0.962 . S
C638 H652 0.960 . S
C639 C636 1.511 . S
C639 H653 0.961 . S
C639 H654 0.961 . S
C639 H655 0.961 . S
C640 C641 1.370 . S
C640 C642 1.363 . S
C640 H656 0.931 . S
C641 C640 1.370 . S
C641 C645 1.408 . S
C642 C640 1.363 . S
C642 C643 1.370 . S
C642 C646 1.524 . S
C643 C635 1.503 . S
C643 C642 1.370 . S
C643 C644 1.403 . S
C644 C643 1.403 . S
C644 C645 1.404 . S
C644 C647 1.539 . S
C645 C641 1.408 . S
C645 C644 1.404 . S
C645 H657 0.930 . S
C646 C642 1.524 . S
C646 H658 0.956 . S
C646 H659 0.961 . S
C646 H660 0.961 . S
C647 C644 1.539 . S
C647 H661 0.958 . S
C647 H662 0.961 . S
C647 H663 0.960 . S
H648 C632 0.931 . S
H649 C637 0.929 . S
H650 C638 0.960 . S
H651 C638 0.962 . S
H652 C638 0.960 . S
H653 C639 0.961 . S
H654 C639 0.961 . S
H655 C639 0.961 . S
H656 C640 0.931 . S
H657 C645 0.930 . S
H658 C646 0.956 . S
H659 C646 0.961 . S
H660 C646 0.961 . S
H661 C647 0.958 . S
H662 C647 0.961 . S
H663 C647 0.960 . S
C664 C665 1.391 . S
C664 C666 1.394 . S
C664 H680 0.931 . S
C665 C664 1.391 . S
C665 C669 1.376 . S
C666 C664 1.394 . S
C666 C667 1.369 . S
C666 C670 1.531 . S
C667 C666 1.369 . S
C667 C668 1.410 . S
C667 C675 1.503 . S
C668 C667 1.410 . S
C668 C669 1.392 . S
C668 C671 1.511 . S
C669 C665 1.376 . S
C669 C668 1.392 . S
C669 H681 0.929 . S
C670 C666 1.531 . S
C670 H682 0.960 . S
C670 H683 0.962 . S
C670 H684 0.960 . S
C671 C668 1.511 . S
C671 H685 0.961 . S
C671 H686 0.961 . S
C671 H687 0.961 . S
C672 C673 1.370 . S
C672 C674 1.363 . S
C672 H688 0.931 . S
C673 C672 1.370 . S
C673 C677 1.408 . S
C674 C672 1.363 . S
C674 C675 1.370 . S
C674 C678 1.524 . S
C675 C667 1.503 . S
C675 C674 1.370 . S
C675 C676 1.403 . S
C676 C675 1.403 . S
C676 C677 1.404 . S
C676 C679 1.539 . S
C677 C673 1.408 . S
C677 C676 1.404 . S
C677 H689 0.930 . S
C678 C674 1.524 . S
C678 H690 0.956 . S
C678 H691 0.961 . S
C678 H692 0.961 . S
C679 C676 1.539 . S
C679 H693 0.958 . S
C679 H694 0.961 . S
C679 H695 0.960 . S
H680 C664 0.931 . S
H681 C669 0.929 . S
H682 C670 0.960 . S
H683 C670 0.962 . S
H684 C670 0.960 . S
H685 C671 0.961 . S
H686 C671 0.961 . S
H687 C671 0.961 . S
H688 C672 0.931 . S
H689 C677 0.930 . S
H690 C678 0.956 . S
H691 C678 0.961 . S
H692 C678 0.961 . S
H693 C679 0.958 . S
H694 C679 0.961 . S
H695 C679 0.960 . S
C696 C697 1.391 . S
C696 C698 1.394 . S
C696 H712 0.931 . S
C697 C696 1.391 . S
C697 C701 1.376 . S
C698 C696 1.394 . S
C698 C699 1.369 . S
C698 C702 1.531 . S
C699 C698 1.369 . S
C699 C700 1.410 . S
C699 C707 1.503 . S
C700 C699 1.410 . S
C700 C701 1.392 . S
C700 C703 1.511 . S
C701 C697 1.376 . S
C701 C700 1.392 . S
C701 H713 0.929 . S
C702 C698 1.531 . S
C702 H714 0.960 . S
C702 H715 0.962 . S
C702 H716 0.961 1_655 S
C703 C700 1.511 . S
C703 H717 0.961 . S
C703 H718 0.961 . S
C703 H719 0.961 . S
C704 C705 1.370 . S
C704 C706 1.363 . S
C704 H720 0.931 . S
C705 C704 1.370 . S
C705 C709 1.408 . S
C706 C704 1.363 . S
C706 C707 1.370 . S
C706 C710 1.524 . S
C707 C699 1.503 . S
C707 C706 1.370 . S
C707 C708 1.403 . S
C708 C707 1.403 . S
C708 C709 1.404 . S
C708 C711 1.539 . S
C709 C705 1.408 . S
C709 C708 1.404 . S
C709 H721 0.930 . S
C710 C706 1.524 . S
C710 H722 0.956 . S
C710 H723 0.961 . S
C710 H724 0.961 . S
C711 C708 1.539 . S
C711 H725 0.958 . S
C711 H726 0.961 . S
C711 H727 0.960 . S
H712 C696 0.931 . S
H713 C701 0.929 . S
H714 C702 0.960 . S
H715 C702 0.962 . S
H716 C702 0.961 1_455 S
H717 C703 0.961 . S
H718 C703 0.961 . S
H719 C703 0.961 . S
H720 C704 0.931 . S
H721 C709 0.930 . S
H722 C710 0.956 . S
H723 C710 0.961 . S
H724 C710 0.961 . S
H725 C711 0.958 . S
H726 C711 0.961 . S
H727 C711 0.960 . S
C728 C729 1.391 . S
C728 C730 1.394 . S
C728 H744 0.931 . S
C729 C728 1.391 . S
C729 C733 1.376 . S
C730 C728 1.394 . S
C730 C731 1.369 . S
C730 C734 1.531 . S
C731 C730 1.369 . S
C731 C732 1.410 . S
C731 C739 1.503 . S
C732 C731 1.410 . S
C732 C733 1.392 . S
C732 C735 1.511 . S
C733 C729 1.376 . S
C733 C732 1.392 . S
C733 H745 0.929 . S
C734 C730 1.531 . S
C734 H746 0.960 . S
C734 H747 0.962 . S
C734 H748 0.960 . S
C735 C732 1.511 . S
C735 H749 0.961 . S
C735 H750 0.961 . S
C735 H751 0.961 . S
C736 C737 1.370 . S
C736 C738 1.363 . S
C736 H752 0.931 . S
C737 C736 1.370 . S
C737 C741 1.408 . S
C738 C736 1.363 . S
C738 C739 1.370 . S
C738 C742 1.524 . S
C739 C731 1.503 . S
C739 C738 1.370 . S
C739 C740 1.403 . S
C740 C739 1.403 . S
C740 C741 1.404 . S
C740 C743 1.539 . S
C741 C737 1.408 . S
C741 C740 1.404 . S
C741 H753 0.930 . S
C742 C738 1.524 . S
C742 H754 0.956 . S
C742 H755 0.961 . S
C742 H756 0.961 . S
C743 C740 1.539 . S
C743 H757 0.958 . S
C743 H758 0.961 . S
C743 H759 0.960 . S
H744 C728 0.931 . S
H745 C733 0.929 . S
H746 C734 0.960 . S
H747 C734 0.962 . S
H748 C734 0.960 . S
H749 C735 0.961 . S
H750 C735 0.961 . S
H751 C735 0.961 . S
H752 C736 0.931 . S
H753 C741 0.930 . S
H754 C742 0.956 . S
H755 C742 0.961 . S
H756 C742 0.961 . S
H757 C743 0.958 . S
H758 C743 0.961 . S
H759 C743 0.960 . S
C760 C761 1.391 . S
C760 C762 1.394 . S
C760 H776 0.931 . S
C761 C760 1.391 . S
C761 C765 1.376 . S
C762 C760 1.394 . S
C762 C763 1.369 . S
C762 C766 1.531 . S
C763 C762 1.369 . S
C763 C764 1.410 . S
C763 C771 1.503 . S
C764 C763 1.410 . S
C764 C765 1.392 . S
C764 C767 1.511 . S
C765 C761 1.376 . S
C765 C764 1.392 . S
C765 H777 0.929 . S
C766 C762 1.531 . S
C766 H778 0.960 . S
C766 H779 0.962 . S
C766 H780 0.960 . S
C767 C764 1.511 . S
C767 H781 0.961 . S
C767 H782 0.961 . S
C767 H783 0.961 . S
C768 C769 1.370 . S
C768 C770 1.363 . S
C768 H784 0.931 . S
C769 C768 1.370 . S
C769 C773 1.408 . S
C770 C768 1.363 . S
C770 C771 1.370 . S
C770 C774 1.524 . S
C771 C763 1.503 . S
C771 C770 1.370 . S
C771 C772 1.403 . S
C772 C771 1.403 . S
C772 C773 1.404 . S
C772 C775 1.539 . S
C773 C769 1.408 . S
C773 C772 1.404 . S
C773 H785 0.930 . S
C774 C770 1.524 . S
C774 H786 0.956 . S
C774 H787 0.961 . S
C774 H788 0.961 . S
C775 C772 1.539 . S
C775 H789 0.958 . S
C775 H790 0.961 1_556 S
C775 H791 0.960 . S
H776 C760 0.931 . S
H777 C765 0.929 . S
H778 C766 0.960 . S
H779 C766 0.962 . S
H780 C766 0.960 . S
H781 C767 0.961 . S
H782 C767 0.961 . S
H783 C767 0.961 . S
H784 C768 0.931 . S
H785 C773 0.930 . S
H786 C774 0.956 . S
H787 C774 0.961 . S
H788 C774 0.961 . S
H789 C775 0.958 . S
H790 C775 0.961 1_554 S
H791 C775 0.960 . S
C792 C793 1.391 . S
C792 C794 1.394 . S
C792 H808 0.931 . S
C793 C792 1.391 . S
C793 C797 1.376 . S
C794 C792 1.394 . S
C794 C795 1.369 . S
C794 C798 1.531 1_655 S
C795 C794 1.369 . S
C795 C796 1.410 . S
C795 C803 1.514 . S
C796 C795 1.410 . S
C796 C797 1.392 . S
C796 C799 1.511 . S
C797 C793 1.376 . S
C797 C796 1.392 . S
C797 H809 0.929 . S
C798 C794 1.531 1_455 S
C798 H810 0.960 . S
C798 H811 0.962 . S
C798 H812 0.960 . S
C799 C796 1.511 . S
C799 H813 0.961 . S
C799 H814 0.961 . S
C799 H815 0.961 . S
C800 C801 1.370 . S
C800 C802 1.363 . S
C800 H816 0.931 . S
C801 C800 1.370 . S
C801 C805 1.408 1_455 S
C802 C800 1.363 . S
C802 C803 1.332 1_455 S
C802 C806 1.524 . S
C803 C795 1.514 . S
C803 C802 1.332 1_655 S
C803 C804 1.432 . S
C804 C803 1.432 . S
C804 C805 1.404 . S
C804 C807 1.539 . S
C805 C801 1.408 1_655 S
C805 C804 1.404 . S
C805 H817 0.930 . S
C806 C802 1.524 . S
C806 H818 0.956 . S
C806 H819 0.961 . S
C806 H820 0.961 . S
C807 C804 1.539 . S
C807 H821 0.958 . S
C807 H822 0.961 . S
C807 H823 0.960 . S
H808 C792 0.931 . S
H809 C797 0.929 . S
H810 C798 0.960 . S
H811 C798 0.962 . S
H812 C798 0.960 . S
H813 C799 0.961 . S
H814 C799 0.961 . S
H815 C799 0.961 . S
H816 C800 0.931 . S
H817 C805 0.930 . S
H818 C806 0.956 . S
H819 C806 0.961 . S
H820 C806 0.961 . S
H821 C807 0.958 . S
H822 C807 0.961 . S
H823 C807 0.960 . S
C824 C825 1.391 . S
C824 C826 1.394 . S
C824 H840 0.931 . S
C825 C824 1.391 . S
C825 C829 1.376 1_565 S
C826 C824 1.394 . S
C826 C827 1.369 . S
C826 C830 1.531 . S
C827 C826 1.369 . S
C827 C828 1.410 1_565 S
C827 C835 1.502 1_556 S
C828 C827 1.410 1_545 S
C828 C829 1.392 . S
C828 C831 1.511 . S
C829 C825 1.376 1_545 S
C829 C828 1.392 . S
C829 H841 0.929 . S
C830 C826 1.531 . S
C830 H842 0.960 1_556 S
C830 H843 0.962 . S
C830 H844 0.960 . S
C831 C828 1.511 . S
C831 H845 0.961 . S
C831 H846 0.961 . S
C831 H847 0.961 . S
C832 C833 1.370 . S
C832 C834 1.363 . S
C832 H848 0.931 . S
C833 C832 1.370 . S
C833 C837 1.408 1_545 S
C834 C832 1.363 . S
C834 C835 1.374 1_545 S
C834 C838 1.524 . S
C835 C827 1.502 1_554 S
C835 C834 1.374 1_565 S
C835 C836 1.400 . S
C836 C835 1.400 . S
C836 C837 1.404 . S
C836 C839 1.539 . S
C837 C833 1.408 1_565 S
C837 C836 1.404 . S
C837 H849 0.930 . S
C838 C834 1.524 . S
C838 H850 0.956 1_554 S
C838 H851 0.961 1_554 S
C838 H852 0.961 . S
C839 C836 1.539 . S
C839 H853 0.958 . S
C839 H854 0.961 . S
C839 H855 0.960 . S
H840 C824 0.931 . S
H841 C829 0.929 . S
H842 C830 0.960 1_554 S
H843 C830 0.962 . S
H844 C830 0.960 . S
H845 C831 0.961 . S
H846 C831 0.961 . S
H847 C831 0.961 . S
H848 C832 0.931 . S
H849 C837 0.930 . S
H850 C838 0.956 1_556 S
H851 C838 0.961 1_556 S
H852 C838 0.961 . S
H853 C839 0.958 . S
H854 C839 0.961 . S
H855 C839 0.960 . S
C856 C857 1.391 . S
C856 C858 1.394 . S
C856 H872 0.931 . S
C857 C856 1.391 . S
C857 C861 1.376 . S
C858 C856 1.394 . S
C858 C859 1.369 . S
C858 C862 1.531 . S
C859 C858 1.369 . S
C859 C860 1.410 . S
C859 C867 1.503 . S
C860 C859 1.410 . S
C860 C861 1.392 . S
C860 C863 1.511 . S
C861 C857 1.376 . S
C861 C860 1.392 . S
C861 H873 0.929 . S
C862 C858 1.531 . S
C862 H874 0.960 . S
C862 H875 0.962 . S
C862 H876 0.960 . S
C863 C860 1.511 . S
C863 H877 0.961 . S
C863 H878 0.961 . S
C863 H879 0.961 . S
C864 C865 1.370 . S
C864 C866 1.363 . S
C864 H880 0.931 . S
C865 C864 1.370 . S
C865 C869 1.408 . S
C866 C864 1.363 . S
C866 C867 1.370 . S
C866 C870 1.524 . S
C867 C859 1.503 . S
C867 C866 1.370 . S
C867 C868 1.403 . S
C868 C867 1.403 . S
C868 C869 1.404 . S
C868 C871 1.539 . S
C869 C865 1.408 . S
C869 C868 1.404 . S
C869 H881 0.930 . S
C870 C866 1.524 . S
C870 H882 0.956 . S
C870 H883 0.961 . S
C870 H884 0.961 . S
C871 C868 1.539 . S
C871 H885 0.958 . S
C871 H886 0.961 . S
C871 H887 0.960 . S
H872 C856 0.931 . S
H873 C861 0.929 . S
H874 C862 0.960 . S
H875 C862 0.962 . S
H876 C862 0.960 . S
H877 C863 0.961 . S
H878 C863 0.961 . S
H879 C863 0.961 . S
H880 C864 0.931 . S
H881 C869 0.930 . S
H882 C870 0.956 . S
H883 C870 0.961 . S
H884 C870 0.961 . S
H885 C871 0.958 . S
H886 C871 0.961 . S
H887 C871 0.960 . S
C888 C889 1.393 1_455 S
C888 C890 1.393 . S
C888 H904 0.929 . S
C889 C888 1.393 1_655 S
C889 C893 1.376 . S
C890 C888 1.393 . S
C890 C891 1.369 1_455 S
C890 C894 1.531 . S
C891 C890 1.369 1_655 S
C891 C892 1.410 . S
C891 C899 1.504 1_655 S
C892 C891 1.410 . S
C892 C893 1.392 . S
C892 C895 1.511 . S
C893 C889 1.376 . S
C893 C892 1.392 . S
C893 H905 0.929 . S
C894 C890 1.531 . S
C894 H906 0.960 . S
C894 H907 0.962 . S
C894 H908 0.960 . S
C895 C892 1.511 . S
C895 H909 0.961 . S
C895 H910 0.961 . S
C895 H911 0.961 . S
C896 C897 1.370 . S
C896 C898 1.363 . S
C896 H912 0.931 . S
C897 C896 1.370 . S
C897 C901 1.408 1_455 S
C898 C896 1.363 . S
C898 C899 1.369 . S
C898 C902 1.524 . S
C899 C891 1.504 1_455 S
C899 C898 1.369 . S
C899 C900 1.403 1_455 S
C900 C899 1.403 1_655 S
C900 C901 1.404 . S
C900 C903 1.539 . S
C901 C897 1.408 1_655 S
C901 C900 1.404 . S
C901 H913 0.930 . S
C902 C898 1.524 . S
C902 H914 0.956 . S
C902 H915 0.961 . S
C902 H916 0.961 . S
C903 C900 1.539 . S
C903 H917 0.958 . S
C903 H918 0.961 . S
C903 H919 0.960 . S
H904 C888 0.929 . S
H905 C893 0.929 . S
H906 C894 0.960 . S
H907 C894 0.962 . S
H908 C894 0.960 . S
H909 C895 0.961 . S
H910 C895 0.961 . S
H911 C895 0.961 . S
H912 C896 0.931 . S
H913 C901 0.930 . S
H914 C902 0.956 . S
H915 C902 0.961 . S
H916 C902 0.961 . S
H917 C903 0.958 . S
H918 C903 0.961 . S
H919 C903 0.960 . S
C920 C921 1.391 . S
C920 C922 1.394 . S
C920 H936 0.931 . S
C921 C920 1.391 . S
C921 C925 1.376 . S
C922 C920 1.394 . S
C922 C923 1.369 . S
C922 C926 1.531 . S
C923 C922 1.369 . S
C923 C924 1.410 . S
C923 C931 1.503 . S
C924 C923 1.410 . S
C924 C925 1.392 . S
C924 C927 1.511 . S
C925 C921 1.376 . S
C925 C924 1.392 . S
C925 H937 0.929 . S
C926 C922 1.531 . S
C926 H938 0.960 . S
C926 H939 0.962 1_565 S
C926 H940 0.960 . S
C927 C924 1.511 . S
C927 H941 0.961 . S
C927 H942 0.961 1_565 S
C927 H943 0.961 . S
C928 C929 1.370 . S
C928 C930 1.363 . S
C928 H944 0.931 . S
C929 C928 1.370 . S
C929 C933 1.408 1_545 S
C930 C928 1.363 . S
C930 C931 1.370 1_545 S
C930 C934 1.524 . S
C931 C923 1.503 . S
C931 C930 1.370 1_565 S
C931 C932 1.403 . S
C932 C931 1.403 . S
C932 C933 1.404 . S
C932 C935 1.539 . S
C933 C929 1.408 1_565 S
C933 C932 1.404 . S
C933 H945 0.930 . S
C934 C930 1.524 . S
C934 H946 0.956 . S
C934 H947 0.961 . S
C934 H948 0.961 . S
C935 C932 1.539 . S
C935 H949 0.958 . S
C935 H950 0.961 . S
C935 H951 0.960 . S
H936 C920 0.931 . S
H937 C925 0.929 . S
H938 C926 0.960 . S
H939 C926 0.962 1_545 S
H940 C926 0.960 . S
H941 C927 0.961 . S
H942 C927 0.961 1_545 S
H943 C927 0.961 . S
H944 C928 0.931 . S
H945 C933 0.930 . S
H946 C934 0.956 . S
H947 C934 0.961 . S
H948 C934 0.961 . S
H949 C935 0.958 . S
H950 C935 0.961 . S
H951 C935 0.960 . S
C952 C953 1.391 . S
C952 C954 1.394 . S
C952 H968 0.931 . S
C953 C952 1.391 . S
C953 C957 1.376 . S
C954 C952 1.394 . S
C954 C955 1.369 . S
C954 C958 1.531 . S
C955 C954 1.369 . S
C955 C956 1.410 . S
C955 C963 1.503 . S
C956 C955 1.410 . S
C956 C957 1.392 . S
C956 C959 1.511 . S
C957 C953 1.376 . S
C957 C956 1.392 . S
C957 H969 0.929 . S
C958 C954 1.531 . S
C958 H970 0.960 . S
C958 H971 0.962 . S
C958 H972 0.960 . S
C959 C956 1.511 . S
C959 H973 0.961 . S
C959 H974 0.961 . S
C959 H975 0.961 . S
C960 C961 1.370 . S
C960 C962 1.363 . S
C960 H976 0.931 . S
C961 C960 1.370 . S
C961 C965 1.408 . S
C962 C960 1.363 . S
C962 C963 1.370 . S
C962 C966 1.524 . S
C963 C955 1.503 . S
C963 C962 1.370 . S
C963 C964 1.403 . S
C964 C963 1.403 . S
C964 C965 1.404 . S
C964 C967 1.539 . S
C965 C961 1.408 . S
C965 C964 1.404 . S
C965 H977 0.930 . S
C966 C962 1.524 . S
C966 H978 0.956 . S
C966 H979 0.961 . S
C966 H980 0.961 . S
C967 C964 1.539 . S
C967 H981 0.958 . S
C967 H982 0.961 . S
C967 H983 0.960 . S
H968 C952 0.931 . S
H969 C957 0.929 . S
H970 C958 0.960 . S
H971 C958 0.962 . S
H972 C958 0.960 . S
H973 C959 0.961 . S
H974 C959 0.961 . S
H975 C959 0.961 . S
H976 C960 0.931 . S
H977 C965 0.930 . S
H978 C966 0.956 . S
H979 C966 0.961 . S
H980 C966 0.961 . S
H981 C967 0.958 . S
H982 C967 0.961 . S
H983 C967 0.960 . S
C984 C985 1.391 . S
C984 C986 1.394 . S
C984 H1000 0.931 . S
C985 C984 1.391 . S
C985 C989 1.376 . S
C986 C984 1.394 . S
C986 C987 1.369 . S
C986 C990 1.531 . S
C987 C986 1.369 . S
C987 C988 1.410 . S
C987 C995 1.503 . S
C988 C987 1.410 . S
C988 C989 1.392 . S
C988 C991 1.511 . S
C989 C985 1.376 . S
C989 C988 1.392 . S
C989 H1001 0.929 . S
C990 C986 1.531 . S
C990 H1002 0.960 . S
C990 H1003 0.962 . S
C990 H1004 0.960 . S
C991 C988 1.511 . S
C991 H1005 0.961 . S
C991 H1006 0.961 . S
C991 H1007 0.961 . S
C992 C993 1.370 . S
C992 C994 1.363 . S
C992 H1008 0.931 1_556 S
C993 C992 1.370 . S
C993 C997 1.408 . S
C994 C992 1.363 . S
C994 C995 1.370 . S
C994 C998 1.524 . S
C995 C987 1.503 . S
C995 C994 1.370 . S
C995 C996 1.403 . S
C996 C995 1.403 . S
C996 C997 1.404 . S
C996 C999 1.539 . S
C997 C993 1.408 . S
C997 C996 1.404 . S
C997 H1009 0.930 . S
C998 C994 1.524 . S
C998 H1010 0.956 . S
C998 H1011 0.963 . S
C998 H1012 0.961 1_556 S
C999 C996 1.539 . S
C999 H1013 0.958 . S
C999 H1014 0.961 . S
C999 H1015 0.960 . S
H1000 C984 0.931 . S
H1001 C989 0.929 . S
H1002 C990 0.960 . S
H1003 C990 0.962 . S
H1004 C990 0.960 . S
H1005 C991 0.961 . S
H1006 C991 0.961 . S
H1007 C991 0.961 . S
H1008 C992 0.931 1_554 S
H1009 C997 0.930 . S
H1010 C998 0.956 . S
H1011 C998 0.963 . S
H1012 C998 0.961 1_554 S
H1013 C999 0.958 . S
H1014 C999 0.961 . S
H1015 C999 0.960 . S
C1016 C1017 1.391 . S
C1016 C1018 1.394 . S
C1016 H1032 0.931 . S
C1017 C1016 1.391 . S
C1017 C1021 1.376 . S
C1018 C1016 1.394 . S
C1018 C1019 1.369 . S
C1018 C1022 1.531 . S
C1019 C1018 1.369 . S
C1019 C1020 1.410 . S
C1019 C1027 1.503 . S
C1020 C1019 1.410 . S
C1020 C1021 1.392 . S
C1020 C1023 1.511 . S
C1021 C1017 1.376 . S
C1021 C1020 1.392 . S
C1021 H1033 0.929 . S
C1022 C1018 1.531 . S
C1022 H1034 0.960 . S
C1022 H1035 0.962 . S
C1022 H1036 0.960 . S
C1023 C1020 1.511 . S
C1023 H1037 0.961 . S
C1023 H1038 0.961 . S
C1023 H1039 0.961 . S
C1024 C1025 1.370 . S
C1024 C1026 1.363 . S
C1024 H1040 0.931 . S
C1025 C1024 1.370 . S
C1025 C1029 1.408 . S
C1026 C1024 1.363 . S
C1026 C1027 1.370 . S
C1026 C1030 1.524 . S
C1027 C1019 1.503 . S
C1027 C1026 1.370 . S
C1027 C1028 1.403 . S
C1028 C1027 1.403 . S
C1028 C1029 1.404 . S
C1028 C1031 1.539 . S
C1029 C1025 1.408 . S
C1029 C1028 1.404 . S
C1029 H1041 0.930 . S
C1030 C1026 1.524 . S
C1030 H1042 0.956 . S
C1030 H1043 0.961 . S
C1030 H1044 0.961 . S
C1031 C1028 1.539 . S
C1031 H1045 0.958 . S
C1031 H1046 0.961 . S
C1031 H1047 0.960 . S
H1032 C1016 0.931 . S
H1033 C1021 0.929 . S
H1034 C1022 0.960 . S
H1035 C1022 0.962 . S
H1036 C1022 0.960 . S
H1037 C1023 0.961 . S
H1038 C1023 0.961 . S
H1039 C1023 0.961 . S
H1040 C1024 0.931 . S
H1041 C1029 0.930 . S
H1042 C1030 0.956 . S
H1043 C1030 0.961 . S
H1044 C1030 0.961 . S
H1045 C1031 0.958 . S
H1046 C1031 0.961 . S
H1047 C1031 0.960 . S
C1048 C1049 1.391 . S
C1048 C1050 1.394 . S
C1048 H1064 0.931 . S
C1049 C1048 1.391 . S
C1049 C1053 1.376 . S
C1050 C1048 1.394 . S
C1050 C1051 1.369 . S
C1050 C1054 1.531 . S
C1051 C1050 1.369 . S
C1051 C1052 1.410 . S
C1051 C1059 1.503 . S
C1052 C1051 1.410 . S
C1052 C1053 1.392 . S
C1052 C1055 1.511 . S
C1053 C1049 1.376 . S
C1053 C1052 1.392 . S
C1053 H1065 0.929 . S
C1054 C1050 1.531 . S
C1054 H1066 0.960 . S
C1054 H1067 0.962 . S
C1054 H1068 0.960 . S
C1055 C1052 1.511 . S
C1055 H1069 0.961 . S
C1055 H1070 0.961 . S
C1055 H1071 0.961 . S
C1056 C1057 1.370 . S
C1056 C1058 1.363 . S
C1056 H1072 0.931 . S
C1057 C1056 1.370 . S
C1057 C1061 1.408 . S
C1058 C1056 1.363 . S
C1058 C1059 1.370 . S
C1058 C1062 1.524 . S
C1059 C1051 1.503 . S
C1059 C1058 1.370 . S
C1059 C1060 1.403 . S
C1060 C1059 1.403 . S
C1060 C1061 1.404 . S
C1060 C1063 1.539 . S
C1061 C1057 1.408 . S
C1061 C1060 1.404 . S
C1061 H1073 0.930 . S
C1062 C1058 1.524 . S
C1062 H1074 0.956 . S
C1062 H1075 0.961 . S
C1062 H1076 0.961 . S
C1063 C1060 1.539 . S
C1063 H1077 0.958 . S
C1063 H1078 0.961 . S
C1063 H1079 0.960 . S
H1064 C1048 0.931 . S
H1065 C1053 0.929 . S
H1066 C1054 0.960 . S
H1067 C1054 0.962 . S
H1068 C1054 0.960 . S
H1069 C1055 0.961 . S
H1070 C1055 0.961 . S
H1071 C1055 0.961 . S
H1072 C1056 0.931 . S
H1073 C1061 0.930 . S
H1074 C1062 0.956 . S
H1075 C1062 0.961 . S
H1076 C1062 0.961 . S
H1077 C1063 0.958 . S
H1078 C1063 0.961 . S
H1079 C1063 0.960 . S
C1080 C1081 1.391 . S
C1080 C1082 1.394 . S
C1080 H1096 0.931 . S
C1081 C1080 1.391 . S
C1081 C1085 1.376 . S
C1082 C1080 1.394 . S
C1082 C1083 1.369 . S
C1082 C1086 1.531 . S
C1083 C1082 1.369 . S
C1083 C1084 1.410 . S
C1083 C1091 1.503 . S
C1084 C1083 1.410 . S
C1084 C1085 1.392 . S
C1084 C1087 1.511 . S
C1085 C1081 1.376 . S
C1085 C1084 1.392 . S
C1085 H1097 0.929 . S
C1086 C1082 1.531 . S
C1086 H1098 0.960 . S
C1086 H1099 0.962 . S
C1086 H1100 0.960 . S
C1087 C1084 1.511 . S
C1087 H1101 0.961 . S
C1087 H1102 0.961 . S
C1087 H1103 0.961 . S
C1088 C1089 1.370 . S
C1088 C1090 1.363 . S
C1088 H1104 0.931 . S
C1089 C1088 1.370 . S
C1089 C1093 1.408 . S
C1090 C1088 1.363 . S
C1090 C1091 1.370 . S
C1090 C1094 1.524 . S
C1091 C1083 1.503 . S
C1091 C1090 1.370 . S
C1091 C1092 1.403 . S
C1092 C1091 1.403 . S
C1092 C1093 1.404 . S
C1092 C1095 1.539 . S
C1093 C1089 1.408 . S
C1093 C1092 1.404 . S
C1093 H1105 0.930 . S
C1094 C1090 1.524 . S
C1094 H1106 0.956 . S
C1094 H1107 0.961 . S
C1094 H1108 0.961 . S
C1095 C1092 1.539 . S
C1095 H1109 0.958 . S
C1095 H1110 0.961 . S
C1095 H1111 0.960 . S
H1096 C1080 0.931 . S
H1097 C1085 0.929 . S
H1098 C1086 0.960 . S
H1099 C1086 0.962 . S
H1100 C1086 0.960 . S
H1101 C1087 0.961 . S
H1102 C1087 0.961 . S
H1103 C1087 0.961 . S
H1104 C1088 0.931 . S
H1105 C1093 0.930 . S
H1106 C1094 0.956 . S
H1107 C1094 0.961 . S
H1108 C1094 0.961 . S
H1109 C1095 0.958 . S
H1110 C1095 0.961 . S
H1111 C1095 0.960 . S
C1112 C1113 1.391 . S
C1112 C1114 1.394 . S
C1112 H1128 0.931 . S
C1113 C1112 1.391 . S
C1113 C1117 1.376 . S
C1114 C1112 1.394 . S
C1114 C1115 1.369 . S
C1114 C1118 1.531 . S
C1115 C1114 1.369 . S
C1115 C1116 1.410 . S
C1115 C1123 1.503 . S
C1116 C1115 1.410 . S
C1116 C1117 1.392 . S
C1116 C1119 1.511 . S
C1117 C1113 1.376 . S
C1117 C1116 1.392 . S
C1117 H1129 0.929 . S
C1118 C1114 1.531 . S
C1118 H1130 0.960 . S
C1118 H1131 0.962 . S
C1118 H1132 0.960 . S
C1119 C1116 1.511 . S
C1119 H1133 0.961 . S
C1119 H1134 0.961 . S
C1119 H1135 0.961 . S
C1120 C1121 1.370 . S
C1120 C1122 1.363 . S
C1120 H1136 0.931 . S
C1121 C1120 1.370 . S
C1121 C1125 1.408 . S
C1122 C1120 1.363 . S
C1122 C1123 1.370 . S
C1122 C1126 1.524 . S
C1123 C1115 1.503 . S
C1123 C1122 1.370 . S
C1123 C1124 1.403 . S
C1124 C1123 1.403 . S
C1124 C1125 1.404 . S
C1124 C1127 1.539 . S
C1125 C1121 1.408 . S
C1125 C1124 1.404 . S
C1125 H1137 0.930 . S
C1126 C1122 1.524 . S
C1126 H1138 0.956 . S
C1126 H1139 0.961 . S
C1126 H1140 0.961 . S
C1127 C1124 1.539 . S
C1127 H1141 0.958 . S
C1127 H1142 0.961 . S
C1127 H1143 0.960 . S
H1128 C1112 0.931 . S
H1129 C1117 0.929 . S
H1130 C1118 0.960 . S
H1131 C1118 0.962 . S
H1132 C1118 0.960 . S
H1133 C1119 0.961 . S
H1134 C1119 0.961 . S
H1135 C1119 0.961 . S
H1136 C1120 0.931 . S
H1137 C1125 0.930 . S
H1138 C1126 0.956 . S
H1139 C1126 0.961 . S
H1140 C1126 0.961 . S
H1141 C1127 0.958 . S
H1142 C1127 0.961 . S
H1143 C1127 0.960 . S
C1144 C1145 1.391 . S
C1144 C1146 1.394 . S
C1144 H1160 0.931 . S
C1145 C1144 1.391 . S
C1145 C1149 1.376 . S
C1146 C1144 1.394 . S
C1146 C1147 1.369 . S
C1146 C1150 1.531 . S
C1147 C1146 1.369 . S
C1147 C1148 1.410 . S
C1147 C1155 1.503 . S
C1148 C1147 1.410 . S
C1148 C1149 1.392 . S
C1148 C1151 1.511 . S
C1149 C1145 1.376 . S
C1149 C1148 1.392 . S
C1149 H1161 0.929 . S
C1150 C1146 1.531 . S
C1150 H1162 0.960 . S
C1150 H1163 0.962 . S
C1150 H1164 0.960 . S
C1151 C1148 1.511 . S
C1151 H1165 0.961 . S
C1151 H1166 0.961 . S
C1151 H1167 0.961 . S
C1152 C1153 1.370 . S
C1152 C1154 1.363 . S
C1152 H1168 0.931 . S
C1153 C1152 1.370 . S
C1153 C1157 1.408 . S
C1154 C1152 1.363 . S
C1154 C1155 1.370 . S
C1154 C1158 1.524 . S
C1155 C1147 1.503 . S
C1155 C1154 1.370 . S
C1155 C1156 1.403 . S
C1156 C1155 1.403 . S
C1156 C1157 1.404 . S
C1156 C1159 1.539 . S
C1157 C1153 1.408 . S
C1157 C1156 1.404 . S
C1157 H1169 0.930 . S
C1158 C1154 1.524 . S
C1158 H1170 0.956 . S
C1158 H1171 0.961 . S
C1158 H1172 0.961 . S
C1159 C1156 1.539 . S
C1159 H1173 0.958 . S
C1159 H1174 0.961 . S
C1159 H1175 0.960 . S
H1160 C1144 0.931 . S
H1161 C1149 0.929 . S
H1162 C1150 0.960 . S
H1163 C1150 0.962 . S
H1164 C1150 0.960 . S
H1165 C1151 0.961 . S
H1166 C1151 0.961 . S
H1167 C1151 0.961 . S
H1168 C1152 0.931 . S
H1169 C1157 0.930 . S
H1170 C1158 0.956 . S
H1171 C1158 0.961 . S
H1172 C1158 0.961 . S
H1173 C1159 0.958 . S
H1174 C1159 0.961 . S
H1175 C1159 0.960 . S
C1176 C1177 1.391 . S
C1176 C1178 1.394 . S
C1176 H1192 0.931 . S
C1177 C1176 1.391 . S
C1177 C1181 1.376 . S
C1178 C1176 1.394 . S
C1178 C1179 1.369 . S
C1178 C1182 1.531 . S
C1179 C1178 1.369 . S
C1179 C1180 1.410 . S
C1179 C1187 1.503 . S
C1180 C1179 1.410 . S
C1180 C1181 1.392 . S
C1180 C1183 1.511 . S
C1181 C1177 1.376 . S
C1181 C1180 1.392 . S
C1181 H1193 0.929 . S
C1182 C1178 1.531 . S
C1182 H1194 0.960 . S
C1182 H1195 0.962 . S
C1182 H1196 0.960 . S
C1183 C1180 1.511 . S
C1183 H1197 0.961 . S
C1183 H1198 0.961 . S
C1183 H1199 0.961 . S
C1184 C1185 1.370 . S
C1184 C1186 1.363 . S
C1184 H1200 0.931 . S
C1185 C1184 1.370 . S
C1185 C1189 1.408 . S
C1186 C1184 1.363 . S
C1186 C1187 1.370 . S
C1186 C1190 1.524 . S
C1187 C1179 1.503 . S
C1187 C1186 1.370 . S
C1187 C1188 1.403 . S
C1188 C1187 1.403 . S
C1188 C1189 1.404 . S
C1188 C1191 1.539 . S
C1189 C1185 1.408 . S
C1189 C1188 1.404 . S
C1189 H1201 0.930 . S
C1190 C1186 1.524 . S
C1190 H1202 0.956 . S
C1190 H1203 0.961 . S
C1190 H1204 0.961 . S
C1191 C1188 1.539 . S
C1191 H1205 0.958 . S
C1191 H1206 0.961 . S
C1191 H1207 0.960 . S
H1192 C1176 0.931 . S
H1193 C1181 0.929 . S
H1194 C1182 0.960 . S
H1195 C1182 0.962 . S
H1196 C1182 0.960 . S
H1197 C1183 0.961 . S
H1198 C1183 0.961 . S
H1199 C1183 0.961 . S
H1200 C1184 0.931 . S
H1201 C1189 0.930 . S
H1202 C1190 0.956 . S
H1203 C1190 0.961 . S
H1204 C1190 0.961 . S
H1205 C1191 0.958 . S
H1206 C1191 0.961 . S
H1207 C1191 0.960 . S
C1208 C1209 1.391 . S
C1208 C1210 1.394 . S
C1208 H1224 0.931 . S
C1209 C1208 1.391 . S
C1209 C1213 1.377 . S
C1210 C1208 1.394 . S
C1210 C1211 1.369 . S
C1210 C1214 1.531 . S
C1211 C1210 1.369 . S
C1211 C1212 1.410 . S
C1211 C1219 1.503 . S
C1212 C1211 1.410 . S
C1212 C1213 1.394 . S
C1212 C1215 1.511 1_554 S
C1213 C1209 1.377 . S
C1213 C1212 1.394 . S
C1213 H1225 0.925 1_554 S
C1214 C1210 1.531 . S
C1214 H1226 0.960 . S
C1214 H1227 0.962 . S
C1214 H1228 0.960 . S
C1215 C1212 1.511 1_556 S
C1215 H1229 0.961 . S
C1215 H1230 0.961 1_556 S
C1215 H1231 0.961 1_556 S
C1216 C1217 1.370 . S
C1216 C1218 1.363 . S
C1216 H1232 0.931 . S
C1217 C1216 1.370 . S
C1217 C1221 1.408 . S
C1218 C1216 1.363 . S
C1218 C1219 1.370 . S
C1218 C1222 1.524 . S
C1219 C1211 1.503 . S
C1219 C1218 1.370 . S
C1219 C1220 1.403 . S
C1220 C1219 1.403 . S
C1220 C1221 1.404 . S
C1220 C1223 1.539 . S
C1221 C1217 1.408 . S
C1221 C1220 1.404 . S
C1221 H1233 0.930 . S
C1222 C1218 1.524 . S
C1222 H1234 0.956 . S
C1222 H1235 0.961 . S
C1222 H1236 0.961 . S
C1223 C1220 1.539 . S
C1223 H1237 0.958 . S
C1223 H1238 0.961 . S
C1223 H1239 0.960 . S
H1224 C1208 0.931 . S
H1225 C1213 0.925 1_556 S
H1226 C1214 0.960 . S
H1227 C1214 0.962 . S
H1228 C1214 0.960 . S
H1229 C1215 0.961 . S
H1230 C1215 0.961 1_554 S
H1231 C1215 0.961 1_554 S
H1232 C1216 0.931 . S
H1233 C1221 0.930 . S
H1234 C1222 0.956 . S
H1235 C1222 0.961 . S
H1236 C1222 0.961 . S
H1237 C1223 0.958 . S
H1238 C1223 0.961 . S
H1239 C1223 0.960 . S
C1240 C1241 1.391 . S
C1240 C1242 1.394 . S
C1240 H1256 0.931 . S
C1241 C1240 1.391 . S
C1241 C1245 1.376 . S
C1242 C1240 1.394 . S
C1242 C1243 1.369 . S
C1242 C1246 1.531 . S
C1243 C1242 1.369 . S
C1243 C1244 1.410 . S
C1243 C1251 1.503 . S
C1244 C1243 1.410 . S
C1244 C1245 1.392 . S
C1244 C1247 1.511 . S
C1245 C1241 1.376 . S
C1245 C1244 1.392 . S
C1245 H1257 0.929 . S
C1246 C1242 1.531 . S
C1246 H1258 0.960 . S
C1246 H1259 0.962 . S
C1246 H1260 0.960 . S
C1247 C1244 1.511 . S
C1247 H1261 0.961 . S
C1247 H1262 0.961 . S
C1247 H1263 0.961 . S
C1248 C1249 1.370 . S
C1248 C1250 1.363 . S
C1248 H1264 0.931 . S
C1249 C1248 1.370 . S
C1249 C1253 1.408 . S
C1250 C1248 1.363 . S
C1250 C1251 1.370 . S
C1250 C1254 1.524 . S
C1251 C1243 1.503 . S
C1251 C1250 1.370 . S
C1251 C1252 1.403 . S
C1252 C1251 1.403 . S
C1252 C1253 1.404 . S
C1252 C1255 1.539 . S
C1253 C1249 1.408 . S
C1253 C1252 1.404 . S
C1253 H1265 0.930 . S
C1254 C1250 1.524 . S
C1254 H1266 0.956 . S
C1254 H1267 0.961 . S
C1254 H1268 0.961 . S
C1255 C1252 1.539 . S
C1255 H1269 0.958 . S
C1255 H1270 0.961 . S
C1255 H1271 0.960 . S
H1256 C1240 0.931 . S
H1257 C1245 0.929 . S
H1258 C1246 0.960 . S
H1259 C1246 0.962 . S
H1260 C1246 0.960 . S
H1261 C1247 0.961 . S
H1262 C1247 0.961 . S
H1263 C1247 0.961 . S
H1264 C1248 0.931 . S
H1265 C1253 0.930 . S
H1266 C1254 0.956 . S
H1267 C1254 0.961 . S
H1268 C1254 0.961 . S
H1269 C1255 0.958 . S
H1270 C1255 0.961 . S
H1271 C1255 0.960 . S
C1272 C1273 1.391 . S
C1272 C1274 1.394 . S
C1272 H1288 0.931 . S
C1273 C1272 1.391 . S
C1273 C1277 1.376 . S
C1274 C1272 1.394 . S
C1274 C1275 1.369 . S
C1274 C1278 1.531 . S
C1275 C1274 1.369 . S
C1275 C1276 1.410 . S
C1275 C1283 1.503 . S
C1276 C1275 1.410 . S
C1276 C1277 1.392 . S
C1276 C1279 1.511 . S
C1277 C1273 1.376 . S
C1277 C1276 1.392 . S
C1277 H1289 0.929 . S
C1278 C1274 1.531 . S
C1278 H1290 0.960 . S
C1278 H1291 0.962 . S
C1278 H1292 0.960 . S
C1279 C1276 1.511 . S
C1279 H1293 0.961 . S
C1279 H1294 0.961 . S
C1279 H1295 0.961 . S
C1280 C1281 1.370 . S
C1280 C1282 1.363 . S
C1280 H1296 0.931 . S
C1281 C1280 1.370 . S
C1281 C1285 1.408 . S
C1282 C1280 1.363 . S
C1282 C1283 1.370 . S
C1282 C1286 1.524 . S
C1283 C1275 1.503 . S
C1283 C1282 1.370 . S
C1283 C1284 1.403 . S
C1284 C1283 1.403 . S
C1284 C1285 1.404 . S
C1284 C1287 1.539 . S
C1285 C1281 1.408 . S
C1285 C1284 1.404 . S
C1285 H1297 0.930 . S
C1286 C1282 1.524 . S
C1286 H1298 0.956 . S
C1286 H1299 0.961 . S
C1286 H1300 0.961 . S
C1287 C1284 1.539 . S
C1287 H1301 0.958 . S
C1287 H1302 0.961 . S
C1287 H1303 0.960 . S
H1288 C1272 0.931 . S
H1289 C1277 0.929 . S
H1290 C1278 0.960 . S
H1291 C1278 0.962 . S
H1292 C1278 0.960 . S
H1293 C1279 0.961 . S
H1294 C1279 0.961 . S
H1295 C1279 0.961 . S
H1296 C1280 0.931 . S
H1297 C1285 0.930 . S
H1298 C1286 0.956 . S
H1299 C1286 0.961 . S
H1300 C1286 0.961 . S
H1301 C1287 0.958 . S
H1302 C1287 0.961 . S
H1303 C1287 0.960 . S
C1304 C1305 1.391 . S
C1304 C1306 1.394 . S
C1304 H1320 0.931 . S
C1305 C1304 1.391 . S
C1305 C1309 1.376 . S
C1306 C1304 1.394 . S
C1306 C1307 1.369 . S
C1306 C1310 1.531 . S
C1307 C1306 1.369 . S
C1307 C1308 1.410 . S
C1307 C1315 1.503 . S
C1308 C1307 1.410 . S
C1308 C1309 1.392 . S
C1308 C1311 1.511 . S
C1309 C1305 1.376 . S
C1309 C1308 1.392 . S
C1309 H1321 0.929 . S
C1310 C1306 1.531 . S
C1310 H1322 0.960 . S
C1310 H1323 0.962 . S
C1310 H1324 0.960 . S
C1311 C1308 1.511 . S
C1311 H1325 0.961 . S
C1311 H1326 0.961 . S
C1311 H1327 0.961 . S
C1312 C1313 1.370 . S
C1312 C1314 1.363 . S
C1312 H1328 0.931 . S
C1313 C1312 1.370 . S
C1313 C1317 1.408 . S
C1314 C1312 1.363 . S
C1314 C1315 1.370 . S
C1314 C1318 1.524 . S
C1315 C1307 1.503 . S
C1315 C1314 1.370 . S
C1315 C1316 1.403 . S
C1316 C1315 1.403 . S
C1316 C1317 1.404 . S
C1316 C1319 1.539 . S
C1317 C1313 1.408 . S
C1317 C1316 1.404 . S
C1317 H1329 0.930 . S
C1318 C1314 1.524 . S
C1318 H1330 0.956 . S
C1318 H1331 0.961 . S
C1318 H1332 0.961 . S
C1319 C1316 1.539 . S
C1319 H1333 0.958 . S
C1319 H1334 0.961 . S
C1319 H1335 0.960 . S
H1320 C1304 0.931 . S
H1321 C1309 0.929 . S
H1322 C1310 0.960 . S
H1323 C1310 0.962 . S
H1324 C1310 0.960 . S
H1325 C1311 0.961 . S
H1326 C1311 0.961 . S
H1327 C1311 0.961 . S
H1328 C1312 0.931 . S
H1329 C1317 0.930 . S
H1330 C1318 0.956 . S
H1331 C1318 0.961 . S
H1332 C1318 0.961 . S
H1333 C1319 0.958 . S
H1334 C1319 0.961 . S
H1335 C1319 0.960 . S
C1336 C1337 1.391 . S
C1336 C1338 1.394 . S
C1336 H1352 0.931 . S
C1337 C1336 1.391 . S
C1337 C1341 1.376 . S
C1338 C1336 1.394 . S
C1338 C1339 1.369 . S
C1338 C1342 1.531 . S
C1339 C1338 1.369 . S
C1339 C1340 1.410 . S
C1339 C1347 1.503 . S
C1340 C1339 1.410 . S
C1340 C1341 1.392 . S
C1340 C1343 1.511 . S
C1341 C1337 1.376 . S
C1341 C1340 1.392 . S
C1341 H1353 0.929 . S
C1342 C1338 1.531 . S
C1342 H1354 0.960 . S
C1342 H1355 0.962 . S
C1342 H1356 0.960 . S
C1343 C1340 1.511 . S
C1343 H1357 0.961 . S
C1343 H1358 0.961 . S
C1343 H1359 0.961 . S
C1344 C1345 1.370 . S
C1344 C1346 1.363 . S
C1344 H1360 0.931 . S
C1345 C1344 1.370 . S
C1345 C1349 1.408 . S
C1346 C1344 1.363 . S
C1346 C1347 1.370 . S
C1346 C1350 1.524 . S
C1347 C1339 1.503 . S
C1347 C1346 1.370 . S
C1347 C1348 1.403 . S
C1348 C1347 1.403 . S
C1348 C1349 1.404 . S
C1348 C1351 1.539 . S
C1349 C1345 1.408 . S
C1349 C1348 1.404 . S
C1349 H1361 0.930 . S
C1350 C1346 1.524 . S
C1350 H1362 0.956 . S
C1350 H1363 0.961 . S
C1350 H1364 0.961 . S
C1351 C1348 1.539 . S
C1351 H1365 0.958 . S
C1351 H1366 0.961 . S
C1351 H1367 0.960 . S
H1352 C1336 0.931 . S
H1353 C1341 0.929 . S
H1354 C1342 0.960 . S
H1355 C1342 0.962 . S
H1356 C1342 0.960 . S
H1357 C1343 0.961 . S
H1358 C1343 0.961 . S
H1359 C1343 0.961 . S
H1360 C1344 0.931 . S
H1361 C1349 0.930 . S
H1362 C1350 0.956 . S
H1363 C1350 0.961 . S
H1364 C1350 0.961 . S
H1365 C1351 0.958 . S
H1366 C1351 0.961 . S
H1367 C1351 0.960 . S
C409 C349 0.853 . S
C417 C9 0.883 . S
C441 C43 0.954 . S
C449 C383 0.924 . S
C473 C77 0.879 . S
C481 C213 0.889 . S
C505 C111 0.891 . S
C513 C247 0.900 . S
C537 C145 0.845 . S
C545 C281 0.878 1_556 S
C569 C179 0.896 1_554 S
C577 C315 0.896 . S
C601 C33 1.292 . S
C609 C305 1.324 . S
C633 C339 1.325 . S
C641 C67 1.311 . S
C665 C101 1.329 . S
C673 C373 1.310 . S
C697 C135 1.290 . S
C705 C407 1.325 . S
C729 C169 1.312 . S
C737 C237 1.316 . S
C761 C203 1.291 . S
C769 C271 1.325 . S
C793 C379 1.565 . S
C801 C5 1.574 . S
C825 C209 1.549 . S
C833 C39 1.566 . S
C857 C243 1.567 . S
C865 C73 1.565 . S
C889 C107 1.571 . S
C897 C277 1.576 . S
C921 C141 1.558 . S
C929 C311 1.572 . S
C953 C345 1.578 . S
C961 C175 1.577 . S
C985 C172 2.057 . S
C993 C20 2.046 1_556 S
C1017 C2 2.061 1_655 S
C1025 C54 2.052 . S
C1049 C88 2.056 . S
C1057 C36 2.068 1_565 S
C1081 C70 2.060 . S
C1089 C122 2.047 . S
C1113 C156 2.045 . S
C1121 C104 2.068 1_455 S
C1145 C190 2.048 . S
C1153 C138 2.066 1_545 S
C1177 C240 2.067 . S
C1185 C224 2.055 . S
C1209 C258 2.056 1_554 S
C1217 C274 2.068 1_655 S
C1241 C292 2.058 . S
C1249 C308 2.069 1_565 S
C1273 C342 2.067 . S
C1281 C326 2.056 . S
C1305 C376 2.067 1_455 S
C1313 C360 2.056 . S
C1337 C394 2.035 . S
C1345 C206 2.066 1_545 S
