# Generated by pormake.
# Topology sof, (5)-cn, num edge types: 1
# Building blocks:
#     Node 0, Type 0, BuildingBlock: XOMCOT_clean_sbu_0, # of connection points: 5
#     Node 1, Type 0, BuildingBlock: XOMCOT_clean_sbu_0, # of connection points: 5
#     Node 2, Type 0, BuildingBlock: XOMCOT_clean_sbu_0, # of connection points: 5
#     Node 3, Type 0, BuildingBlock: XOMCOT_clean_sbu_0, # of connection points: 5
#     Node 4, Type 0, BuildingBlock: XOMCOT_clean_sbu_0, # of connection points: 5
#     Node 5, Type 0, BuildingBlock: XOMCOT_clean_sbu_0, # of connection points: 5
#     Node 6, Type 0, BuildingBlock: XOMCOT_clean_sbu_0, # of connection points: 5
#     Node 7, Type 0, BuildingBlock: XOMCOT_clean_sbu_0, # of connection points: 5
#     Edge 8, Type (0, 0), BuildingBlock: CIFDUS_clean_linker_0, # of connection points: 2
#     Edge 9, Type (0, 0), BuildingBlock: CIFDUS_clean_linker_0, # of connection points: 2
#     Edge 10, Type (0, 0), BuildingBlock: CIFDUS_clean_linker_0, # of connection points: 2
#     Edge 11, Type (0, 0), BuildingBlock: CIFDUS_clean_linker_0, # of connection points: 2
#     Edge 12, Type (0, 0), BuildingBlock: CIFDUS_clean_linker_0, # of connection points: 2
#     Edge 13, Type (0, 0), BuildingBlock: CIFDUS_clean_linker_0, # of connection points: 2
#     Edge 14, Type (0, 0), BuildingBlock: CIFDUS_clean_linker_0, # of connection points: 2
#     Edge 15, Type (0, 0), BuildingBlock: CIFDUS_clean_linker_0, # of connection points: 2
#     Edge 16, Type (0, 0), BuildingBlock: CIFDUS_clean_linker_0, # of connection points: 2
#     Edge 17, Type (0, 0), BuildingBlock: CIFDUS_clean_linker_0, # of connection points: 2
#     Edge 18, Type (0, 0), BuildingBlock: CIFDUS_clean_linker_0, # of connection points: 2
#     Edge 19, Type (0, 0), BuildingBlock: CIFDUS_clean_linker_0, # of connection points: 2
#     Edge 20, Type (0, 0), BuildingBlock: CIFDUS_clean_linker_0, # of connection points: 2
#     Edge 21, Type (0, 0), BuildingBlock: CIFDUS_clean_linker_0, # of connection points: 2
#     Edge 22, Type (0, 0), BuildingBlock: CIFDUS_clean_linker_0, # of connection points: 2
#     Edge 23, Type (0, 0), BuildingBlock: CIFDUS_clean_linker_0, # of connection points: 2
#     Edge 24, Type (0, 0), BuildingBlock: CIFDUS_clean_linker_0, # of connection points: 2
#     Edge 25, Type (0, 0), BuildingBlock: CIFDUS_clean_linker_0, # of connection points: 2
#     Edge 26, Type (0, 0), BuildingBlock: CIFDUS_clean_linker_0, # of connection points: 2
#     Edge 27, Type (0, 0), BuildingBlock: CIFDUS_clean_linker_0, # of connection points: 2
# Relax obj value: 0.130
# Max RMSD: 0.155
# Mean RMSD: 0.155
data_MOF--net-sof--node1-XOMCOT_clean_sbu_0--edge1-CIFDUS_clean_linker_0
_symmetry_space_group_name_H-M    P1
_symmetry_Int_Tables_number       1
_symmetry_cell_setting            triclinic
loop_
_symmetry_equiv_pos_as_xyz
'x, y, z'
_cell_length_a     52.474763
_cell_length_b     15.593629
_cell_length_c     41.312282
_cell_angle_alpha  89.795076
_cell_angle_beta   89.991997
_cell_angle_gamma 90.080746
loop_
_atom_site_label
_atom_site_type_symbol
_atom_site_fract_x
_atom_site_fract_y
_atom_site_fract_z
_atom_type_partial_charge
Co0 Co 0.08058 0.07133 0.08295 0.0
C1 C 0.08005 0.87873 0.09081 0.0
C2 C 0.05497 0.94216 0.12378 0.0
C3 C 0.05247 0.85496 0.12815 0.0
N4 N 0.07286 0.95776 0.10104 0.0
N5 N 0.06823 0.8149 0.10736 0.0
H6 H 0.09287 0.8671 0.07101 0.0
H7 H 0.04389 0.99102 0.13582 0.0
C8 C 0.08595 0.0979 0.15429 0.0
O9 O 0.09758 0.02346 0.1562 0.0
N10 N 0.08739 0.18403 0.06481 0.0
C11 C 0.10271 0.20117 0.03949 0.0
C12 C 0.10364 0.28864 0.0349 0.0
C13 C 0.07914 0.26133 0.0753 0.0
N14 N 0.08884 0.32679 0.05741 0.0
C15 C 0.12946 0.99468 0.06996 0.0
C16 C 0.15715 0.09802 0.11122 0.0
C17 C 0.16966 0.03129 0.0951 0.0
C18 C 0.15556 0.98038 0.07368 0.0
C19 C 0.1311 0.11017 0.10662 0.0
N20 N 0.11719 0.05506 0.08797 0.0
H21 H 0.11935 0.95889 0.0518 0.0
H22 H 0.12228 0.16491 0.11789 0.0
H23 H 0.1129 0.15338 0.02571 0.0
H24 H 0.06625 0.26937 0.0955 0.0
O25 O 0.07619 0.02542 0.03994 0.0
O26 O 0.04543 0.08069 0.07026 0.0
O27 O 0.07772 0.1254 0.12708 0.0
C28 C 0.05217 0.04407 0.04331 0.0
H29 H 0.03928 0.82349 0.14448 0.0
H30 H 0.11495 0.32154 0.0168 0.0
H31 H 0.16732 0.14064 0.12734 0.0
H32 H 0.16471 0.93136 0.05928 0.0
Co33 Co 0.41116 1.00842 0.1132 0.0
C34 C 0.40658 0.19711 0.12075 0.0
C35 C 0.43583 0.14354 0.15072 0.0
C36 C 0.43595 0.23114 0.15465 0.0
N37 N 0.41712 0.12227 0.1298 0.0
N38 N 0.41741 0.2641 0.13584 0.0
H39 H 0.39249 0.20442 0.10211 0.0
H40 H 0.44882 0.09838 0.16182 0.0
C41 C 0.4022 0.99576 0.184 0.0
O42 O 0.38963 0.06806 0.18054 0.0
N43 N 0.40642 0.89534 0.09677 0.0
C44 C 0.39083 0.86987 0.07275 0.0
C45 C 0.39239 0.782 0.07034 0.0
C46 C 0.41759 0.8242 0.10822 0.0
N47 N 0.40928 0.75409 0.09262 0.0
C48 C 0.3627 0.07337 0.09279 0.0
C49 C 0.33268 0.97621 0.13374 0.0
C50 C 0.32108 0.03663 0.11336 0.0
C51 C 0.33642 0.0841 0.09222 0.0
C52 C 0.35924 0.96806 0.13367 0.0
N53 N 0.3741 0.02069 0.11491 0.0
H54 H 0.37374 0.10628 0.07462 0.0
H55 H 0.36767 0.91799 0.14821 0.0
H56 H 0.37877 0.91189 0.05861 0.0
H57 H 0.43075 0.82344 0.1284 0.0
O58 O 0.41619 0.04992 0.06985 0.0
O59 O 0.44718 1.00332 0.10161 0.0
O60 O 0.41249 0.9609 0.15917 0.0
C61 C 0.44029 0.03556 0.07375 0.0
H62 H 0.44889 0.26773 0.16963 0.0
H63 H 0.38173 0.74164 0.05392 0.0
H64 H 0.32138 0.93569 0.14955 0.0
H65 H 0.32811 0.12768 0.07467 0.0
Co66 Co 0.08707 0.36743 0.39471 0.0
C67 C 0.08555 0.55968 0.38799 0.0
C68 C 0.06171 0.49572 0.35364 0.0
C69 C 0.05823 0.58273 0.35034 0.0
N70 N 0.07932 0.4807 0.37671 0.0
N71 N 0.07313 0.62338 0.37207 0.0
H72 H 0.09748 0.57066 0.40876 0.0
H73 H 0.05137 0.44646 0.34076 0.0
C74 C 0.09413 0.34334 0.32295 0.0
O75 O 0.10463 0.41961 0.32049 0.0
N76 N 0.09407 0.25488 0.4128 0.0
C77 C 0.10821 0.23856 0.43927 0.0
C78 C 0.11081 0.15108 0.44264 0.0
C79 C 0.08801 0.17705 0.40055 0.0
N80 N 0.09821 0.11222 0.41822 0.0
C81 C 0.13486 0.44498 0.41351 0.0
C82 C 0.16524 0.34964 0.37261 0.0
C83 C 0.1769 0.41091 0.39251 0.0
C84 C 0.16127 0.45819 0.4135 0.0
C85 C 0.13893 0.33758 0.37381 0.0
N86 N 0.12379 0.38804 0.39277 0.0
H87 H 0.12348 0.47834 0.43114 0.0
H88 H 0.13101 0.28542 0.36004 0.0
H89 H 0.1166 0.28706 0.45461 0.0
H90 H 0.07709 0.16809 0.37862 0.0
O91 O 0.07951 0.41102 0.43757 0.0
O92 O 0.05146 0.35277 0.40403 0.0
O93 O 0.08663 0.31465 0.35031 0.0
C94 C 0.05599 0.38897 0.43173 0.0
H95 H 0.04525 0.61323 0.33356 0.0
H96 H 0.12135 0.11868 0.46158 0.0
H97 H 0.17628 0.31042 0.35623 0.0
H98 H 0.16935 0.50329 0.43052 0.0
Co99 Co 0.41372 0.58897 0.39811 0.0
C100 C 0.41215 0.3988 0.39115 0.0
C101 C 0.42856 0.4602 0.34946 0.0
C102 C 0.42894 0.37277 0.34477 0.0
N103 N 0.41784 0.47667 0.3784 0.0
N104 N 0.41872 0.33406 0.37101 0.0
H105 H 0.40341 0.38973 0.41465 0.0
H106 H 0.43605 0.50816 0.33305 0.0
C107 C 0.39785 0.69847 0.34226 0.0
O108 O 0.37858 0.72304 0.36031 0.0
N109 N 0.41079 0.70287 0.4184 0.0
C110 C 0.40548 0.71956 0.44976 0.0
C111 C 0.40663 0.8065 0.455 0.0
C112 C 0.41685 0.78094 0.40577 0.0
N113 N 0.4136 0.84553 0.42723 0.0
C114 C 0.36264 0.58281 0.42414 0.0
C115 C 0.33881 0.53204 0.36771 0.0
C116 C 0.32403 0.54791 0.39524 0.0
C117 C 0.33622 0.57283 0.42376 0.0
C118 C 0.3652 0.54486 0.36893 0.0
N119 N 0.37675 0.57321 0.39663 0.0
H120 H 0.37165 0.59607 0.44686 0.0
H121 H 0.37635 0.53264 0.34745 0.0
H122 H 0.40191 0.67209 0.46831 0.0
H123 H 0.4245 0.79065 0.38178 0.0
O124 O 0.42005 0.53807 0.43989 0.0
O125 O 0.44994 0.59097 0.40754 0.0
O126 O 0.414 0.64447 0.35345 0.0
C127 C 0.44409 0.55335 0.43481 0.0
H128 H 0.43685 0.34006 0.32401 0.0
H129 H 0.40266 0.83823 0.47769 0.0
H130 H 0.33001 0.51098 0.34538 0.0
H131 H 0.32544 0.58243 0.44583 0.0
Co132 Co 0.90204 0.91316 0.89425 0.0
C133 C 0.90545 0.1031 0.88841 0.0
C134 C 0.9234 0.04018 0.84831 0.0
C135 C 0.92622 0.12764 0.84462 0.0
N136 N 0.91031 0.02479 0.8757 0.0
N137 N 0.91504 0.16766 0.86992 0.0
H138 H 0.89558 0.11212 0.91112 0.0
H139 H 0.93062 0.99129 0.83225 0.0
C140 C 0.88316 0.81023 0.83947 0.0
O141 O 0.86338 0.79488 0.85816 0.0
N142 N 0.89496 0.79965 0.91357 0.0
C143 C 0.88636 0.78229 0.94371 0.0
C144 C 0.8854 0.69482 0.94827 0.0
C145 C 0.90087 0.72121 0.90133 0.0
N146 N 0.89428 0.65601 0.92145 0.0
C147 C 0.8509 0.94348 0.91781 0.0
C148 C 0.83176 1.00275 0.85955 0.0
C149 C 0.8154 0.99742 0.88628 0.0
C150 C 0.82538 0.96794 0.9158 0.0
C151 C 0.85703 0.97665 0.86255 0.0
N152 N 0.86613 0.94399 0.89108 0.0
H153 H 0.85843 0.92662 0.9411 0.0
H154 H 0.86939 0.98279 0.84174 0.0
H155 H 0.88224 0.82917 0.9621 0.0
H156 H 0.90995 0.71165 0.87816 0.0
O157 O 0.90881 0.95889 0.93641 0.0
O158 O 0.93765 0.8971 0.90484 0.0
O159 O 0.90113 0.85914 0.84958 0.0
C160 C 0.93232 0.93569 0.93199 0.0
H161 H 0.9358 0.1589 0.82462 0.0
H162 H 0.87935 0.66249 0.97019 0.0
H163 H 0.82526 0.02813 0.83656 0.0
H164 H 0.81364 0.96367 0.9373 0.0
Co165 Co 0.58063 0.17364 0.90943 0.0
C166 C 0.57823 0.98107 0.90331 0.0
C167 C 0.55266 0.04609 0.87123 0.0
C168 C 0.54892 0.95918 0.86808 0.0
N169 N 0.57149 0.06038 0.89276 0.0
N170 N 0.56494 0.91795 0.88836 0.0
H171 H 0.59128 0.96916 0.92289 0.0
H172 H 0.54182 0.0958 0.85921 0.0
C173 C 0.58516 0.19466 0.8374 0.0
O174 O 0.59598 0.11876 0.83642 0.0
N175 N 0.58893 0.28627 0.92618 0.0
C176 C 0.60462 0.30267 0.95117 0.0
C177 C 0.60745 0.39011 0.95403 0.0
C178 C 0.5822 0.364 0.9143 0.0
N179 N 0.59344 0.42883 0.93078 0.0
C180 C 0.62837 0.09565 0.92484 0.0
C181 C 0.65818 0.19178 0.88315 0.0
C182 C 0.66973 0.13144 0.90345 0.0
C183 C 0.65464 0.08361 0.92466 0.0
C184 C 0.63179 0.20311 0.88459 0.0
N185 N 0.61699 0.15245 0.90419 0.0
H186 H 0.61746 0.06196 0.94289 0.0
H187 H 0.62357 0.25518 0.87091 0.0
H188 H 0.61385 0.25427 0.96585 0.0
H189 H 0.57 0.37288 0.89347 0.0
O190 O 0.57688 0.13087 0.95296 0.0
O191 O 0.54561 0.18684 0.9238 0.0
O192 O 0.57767 0.22542 0.86447 0.0
C193 C 0.55299 0.15121 0.95084 0.0
H194 H 0.53509 0.9291 0.85236 0.0
H195 H 0.61905 0.4226 0.97185 0.0
H196 H 0.66955 0.23205 0.86732 0.0
H197 H 0.66315 0.03819 0.94137 0.0
Co198 Co 0.92325 0.56402 0.6 0.0
C199 C 0.92379 0.37115 0.60734 0.0
C200 C 0.94484 0.43527 0.64444 0.0
C201 C 0.94703 0.34816 0.64921 0.0
N202 N 0.92961 0.45035 0.61874 0.0
N203 N 0.93378 0.3077 0.62585 0.0
H204 H 0.91322 0.35913 0.58552 0.0
H205 H 0.95431 0.48444 0.6584 0.0
C206 C 0.90986 0.58575 0.66946 0.0
O207 O 0.89728 0.51299 0.66747 0.0
N208 N 0.91784 0.67685 0.58141 0.0
C209 C 0.90532 0.69392 0.55372 0.0
C210 C 0.90492 0.78134 0.54901 0.0
C211 C 0.92494 0.75412 0.59323 0.0
N212 N 0.91727 0.81951 0.57382 0.0
C213 C 0.87651 0.48395 0.57863 0.0
C214 C 0.84388 0.58446 0.61467 0.0
C215 C 0.83371 0.51575 0.59707 0.0
C216 C 0.85036 0.46657 0.57819 0.0
C217 C 0.87016 0.59922 0.61448 0.0
N218 N 0.88637 0.54527 0.59853 0.0
H219 H 0.88867 0.44942 0.56227 0.0
H220 H 0.87738 0.6544 0.62726 0.0
H221 H 0.89678 0.64604 0.53824 0.0
H222 H 0.93562 0.76213 0.61541 0.0
O223 O 0.93249 0.52019 0.55795 0.0
O224 O 0.95947 0.5763 0.5934 0.0
O225 O 0.92133 0.61577 0.64462 0.0
C226 C 0.95585 0.54051 0.56536 0.0
H227 H 0.95828 0.31706 0.66779 0.0
H228 H 0.89571 0.81419 0.5291 0.0
H229 H 0.83172 0.62598 0.62884 0.0
H230 H 0.84321 0.41611 0.56269 0.0
Co231 Co 0.59194 0.4351 0.59055 0.0
C232 C 0.58982 0.62259 0.59105 0.0
C233 C 0.56453 0.56803 0.62619 0.0
C234 C 0.56034 0.65513 0.62497 0.0
N235 N 0.58349 0.54822 0.60543 0.0
N236 N 0.57613 0.68835 0.60252 0.0
H237 H 0.60303 0.6288 0.57129 0.0
H238 H 0.55354 0.5218 0.63992 0.0
C239 C 0.59549 0.42058 0.66362 0.0
O240 O 0.6055 0.49768 0.66532 0.0
N241 N 0.59924 0.32225 0.57583 0.0
C242 C 0.61578 0.29589 0.55304 0.0
C243 C 0.61525 0.20738 0.55239 0.0
C244 C 0.58875 0.25133 0.58838 0.0
N245 N 0.59836 0.18028 0.57488 0.0
C246 C 0.64 0.50893 0.57215 0.0
C247 C 0.66978 0.42747 0.61791 0.0
C248 C 0.68125 0.48677 0.59686 0.0
C249 C 0.66603 0.52656 0.57343 0.0
C250 C 0.64348 0.41243 0.61602 0.0
N251 N 0.6286 0.45655 0.59444 0.0
H252 H 0.62925 0.53581 0.55241 0.0
H253 H 0.63543 0.36337 0.63136 0.0
H254 H 0.62769 0.33771 0.53856 0.0
H255 H 0.57441 0.25187 0.6072 0.0
O256 O 0.58693 0.47246 0.54629 0.0
O257 O 0.55657 0.42057 0.57797 0.0
O258 O 0.58952 0.38826 0.63624 0.0
C259 C 0.56303 0.4528 0.55002 0.0
H260 H 0.54597 0.69047 0.63815 0.0
H261 H 0.6269 0.16629 0.53741 0.0
H262 H 0.681 0.39308 0.63571 0.0
H263 H 0.67431 0.56938 0.55558 0.0
H264 H 0.20676 0.15228 0.10012 0.0
H265 H 0.19491 0.87834 0.10021 0.0
H266 H 0.24065 0.85532 0.10721 0.0
H267 H 0.2842 0.91349 0.11213 0.0
H268 H 0.2954 0.18764 0.11291 0.0
H269 H 0.2496 0.21009 0.1074 0.0
C270 C 0.21408 0.08749 0.10216 0.0
C271 C 0.1974 0.01719 0.09968 0.0
C272 C 0.24029 0.07476 0.10642 0.0
C273 C 0.20736 0.93363 0.10164 0.0
C274 C 0.23349 0.9204 0.10587 0.0
C275 C 0.27652 0.97803 0.11158 0.0
C276 C 0.29311 0.0488 0.11281 0.0
C277 C 0.25015 0.99052 0.10817 0.0
C278 C 0.28299 0.13217 0.11165 0.0
C279 C 0.25684 0.14507 0.10854 0.0
H280 H 0.2976 0.40201 0.38367 0.0
H281 H 0.28814 0.66938 0.40639 0.0
H282 H 0.24171 0.65157 0.40702 0.0
H283 H 0.20395 0.55962 0.40105 0.0
H284 H 0.21391 0.28877 0.38331 0.0
H285 H 0.25981 0.30854 0.38032 0.0
C286 C 0.28526 0.45622 0.38854 0.0
C287 C 0.29605 0.53695 0.39468 0.0
C288 C 0.25869 0.44493 0.38969 0.0
C289 C 0.28008 0.60673 0.40151 0.0
C290 C 0.25361 0.59651 0.40189 0.0
C291 C 0.21609 0.50454 0.39695 0.0
C292 C 0.20517 0.42299 0.39201 0.0
C293 C 0.24269 0.51575 0.39615 0.0
C294 C 0.22147 0.35285 0.38634 0.0
C295 C 0.24786 0.36383 0.38489 0.0
H296 H 0.78643 0.0808 0.93097 0.0
H297 H 0.78316 0.97222 0.83502 0.0
H298 H 0.73836 1.01174 0.83069 0.0
H299 H 0.69928 0.06994 0.8554 0.0
H300 H 0.70183 0.16645 0.9529 0.0
H301 H 0.74767 0.13798 0.95564 0.0
C302 C 0.77591 0.06482 0.90922 0.0
C303 C 0.78823 0.02327 0.88344 0.0
C304 C 0.74997 0.08553 0.90721 0.0
C305 C 0.77433 1.00516 0.85513 0.0
C306 C 0.74862 0.02718 0.85268 0.0
C307 C 0.71008 0.08543 0.87701 0.0
C308 C 0.69755 0.12044 0.90385 0.0
C309 C 0.73619 0.06663 0.87868 0.0
C310 C 0.71135 0.13953 0.932 0.0
C311 C 0.73744 0.12312 0.93356 0.0
H312 H 0.72063 0.37329 0.6017 0.0
H313 H 0.70404 0.64357 0.59493 0.0
H314 H 0.74955 0.6766 0.59459 0.0
H315 H 0.79409 0.62873 0.59489 0.0
H316 H 0.81092 0.35847 0.60126 0.0
H317 H 0.76539 0.32542 0.60283 0.0
C318 C 0.72701 0.4394 0.60052 0.0
C319 C 0.70898 0.50586 0.59835 0.0
C320 C 0.75327 0.45794 0.59999 0.0
C321 C 0.71754 0.59121 0.59635 0.0
C322 C 0.74356 0.61018 0.59622 0.0
C323 C 0.78782 0.56265 0.59694 0.0
C324 C 0.80593 0.49624 0.59796 0.0
C325 C 0.7616 0.54407 0.59781 0.0
C326 C 0.7974 0.41082 0.60005 0.0
C327 C 0.77136 0.39186 0.60115 0.0
H328 H 0.001 0.06015 0.04753 0.0
H329 H 0.06071 0.97359 0.98377 0.0
H330 H 0.02889 0.92987 0.94377 0.0
H331 H 0.98389 0.91652 0.92698 0.0
H332 H 0.92467 1.00327 0.99158 0.0
H333 H 0.95651 0.04592 0.03122 0.0
C334 C 0.00709 0.03206 0.02483 0.0
C335 C 0.03315 0.02047 0.01856 0.0
C336 C 0.98875 1.00656 0.00215 0.0
C337 C 0.04072 0.98344 0.98912 0.0
C338 C 0.02255 0.95823 0.96628 0.0
C339 C 0.978 0.94426 0.94982 0.0
C340 C 0.95196 0.95661 0.9563 0.0
C341 C 0.99648 0.96929 0.97257 0.0
C342 C 0.94459 0.99305 0.98594 0.0
C343 C 0.96279 0.01768 0.00864 0.0
H344 H 0.49244 0.03147 0.07545 0.0
H345 H 0.42875 0.09197 0.01335 0.0
H346 H 0.45771 0.13575 0.97038 0.0
H347 H 0.50116 0.15723 0.94999 0.0
H348 H 0.56507 0.09571 0.01145 0.0
H349 H 0.53615 0.05286 0.05486 0.0
C350 C 0.48495 0.05389 0.05247 0.0
C351 C 0.45848 0.05831 0.0477 0.0
C352 C 0.50177 0.07948 0.02767 0.0
C353 C 0.44906 0.08788 0.01778 0.0
C354 C 0.46561 0.11317 0.9931 0.0
C355 C 0.50874 0.13505 0.97296 0.0
C356 C 0.53519 0.13002 0.97748 0.0
C357 C 0.49199 0.10958 0.99777 0.0
C358 C 0.54473 0.10034 0.00732 0.0
C359 C 0.52821 0.07559 0.03219 0.0
H360 H 0.05822 0.47905 0.48819 0.0
H361 H 0.00631 0.34203 0.42588 0.0
H362 H 0.97083 0.37795 0.46134 0.0
H363 H 0.9543 0.44922 0.50967 0.0
H364 H 0.00582 0.586 0.57247 0.0
H365 H 0.04159 0.54962 0.53718 0.0
C366 C 0.03917 0.45668 0.48251 0.0
C367 C 0.03496 0.40784 0.45445 0.0
C368 C 0.01872 0.47796 0.50298 0.0
C369 C 0.01013 0.37968 0.44733 0.0
C370 C 0.98977 0.40031 0.46756 0.0
C371 C 0.97333 0.47137 0.51559 0.0
C372 C 0.97737 0.5205 0.54357 0.0
C373 C 0.99381 0.44975 0.49534 0.0
C374 C 0.00219 0.54818 0.55101 0.0
C375 C 0.02267 0.5273 0.53087 0.0
H376 H 0.49585 0.57051 0.43076 0.0
H377 H 0.43587 0.47906 0.49356 0.0
H378 H 0.46723 0.43733 0.53415 0.0
H379 H 0.51166 0.42881 0.5525 0.0
H380 H 0.5718 0.52057 0.49007 0.0
H381 H 0.54053 0.55948 0.4488 0.0
C382 C 0.48966 0.54144 0.45332 0.0
C383 C 0.46353 0.52826 0.45908 0.0
C384 C 0.50786 0.51734 0.4767 0.0
C385 C 0.45585 0.49019 0.48844 0.0
C386 C 0.47378 0.46617 0.51173 0.0
C387 C 0.51794 0.45681 0.52979 0.0
C388 C 0.54404 0.4716 0.52441 0.0
C389 C 0.49983 0.47962 0.50619 0.0
C390 C 0.55183 0.50828 0.49486 0.0
C391 C 0.53394 0.5308 0.47123 0.0
H392 H 0.08883 0.38976 0.25984 0.0
H393 H 0.09607 0.16946 0.3226 0.0
H394 H 0.09378 0.07392 0.27607 0.0
H395 H 0.0903 0.05273 0.21744 0.0
H396 H 0.08107 0.27215 0.15463 0.0
H397 H 0.08333 0.36801 0.20113 0.0
C398 C 0.08996 0.32085 0.26321 0.0
C399 C 0.09268 0.28667 0.29451 0.0
C400 C 0.08815 0.26607 0.23636 0.0
C401 C 0.0938 0.19726 0.29872 0.0
C402 C 0.09257 0.14255 0.27213 0.0
C403 C 0.08869 0.12151 0.21398 0.0
C404 C 0.08557 0.1552 0.18268 0.0
C405 C 0.08977 0.17621 0.24084 0.0
C406 C 0.0833 0.24445 0.17853 0.0
C407 C 0.08474 0.29942 0.2051 0.0
H408 H 0.38143 0.85545 0.32474 0.0
H409 H 0.42458 0.64011 0.28948 0.0
H410 H 0.43052 0.71331 0.23724 0.0
H411 H 0.42216 0.83829 0.20108 0.0
H412 H 0.38016 0.05394 0.23906 0.0
H413 H 0.37531 0.98103 0.29062 0.0
C414 C 0.3921 0.82422 0.30562 0.0
C415 C 0.40227 0.74204 0.31081 0.0
C416 C 0.39572 0.86702 0.27607 0.0
C417 C 0.41648 0.70333 0.286 0.0
C418 C 0.41985 0.74516 0.25615 0.0
C419 C 0.41212 0.86945 0.22072 0.0
C420 C 0.40139 0.95144 0.2159 0.0
C421 C 0.40941 0.82704 0.25081 0.0
C422 C 0.38852 0.99085 0.24177 0.0
C423 C 0.38566 0.94915 0.27141 0.0
H424 H 0.91577 0.8392 0.78869 0.0
H425 H 0.85607 0.6698 0.82225 0.0
H426 H 0.85971 0.58488 0.77339 0.0
H427 H 0.8793 0.55814 0.7211 0.0
H428 H 0.93791 0.72809 0.6853 0.0
H429 H 0.93525 0.81293 0.73494 0.0
C430 C 0.9036 0.78373 0.78521 0.0
C431 C 0.88564 0.76125 0.80907 0.0
C432 C 0.90558 0.735 0.75668 0.0
C433 C 0.86992 0.68927 0.80422 0.0
C434 C 0.87202 0.64021 0.77629 0.0
C435 C 0.89162 0.61345 0.72415 0.0
C436 C 0.90886 0.63637 0.69963 0.0
C437 C 0.88973 0.66245 0.75239 0.0
C438 C 0.92448 0.70889 0.70388 0.0
C439 C 0.92296 0.75749 0.73225 0.0
H440 H 0.5896 0.1425 0.77495 0.0
H441 H 0.58002 0.36902 0.83334 0.0
H442 H 0.58255 0.45918 0.78496 0.0
H443 H 0.58877 0.47416 0.72588 0.0
H444 H 0.59681 0.24697 0.66766 0.0
H445 H 0.59361 0.15684 0.71593 0.0
C446 C 0.58795 0.21158 0.77709 0.0
C447 C 0.5847 0.24881 0.80778 0.0
C448 C 0.58924 0.26307 0.74911 0.0
C449 C 0.58239 0.33846 0.81005 0.0
C450 C 0.58397 0.39021 0.78237 0.0
C451 C 0.5898 0.40493 0.72384 0.0
C452 C 0.59302 0.36723 0.69322 0.0
C453 C 0.58762 0.35332 0.75178 0.0
C454 C 0.59408 0.27742 0.69089 0.0
C455 C 0.59237 0.22586 0.71852 0.0
H456 H 0.08031 0.72994 0.05232 0.0
H457 H 0.06223 0.69185 0.15316 0.0
H458 H 0.06633 0.53682 0.14665 0.0
H459 H 0.07581 0.41132 0.11245 0.0
H460 H 0.09323 0.45033 0.01137 0.0
H461 H 0.089 0.6047 0.018 0.0
C462 C 0.07747 0.68791 0.07294 0.0
C463 C 0.07098 0.72308 0.10321 0.0
C464 C 0.07981 0.59841 0.06902 0.0
C465 C 0.06697 0.66691 0.1295 0.0
C466 C 0.06942 0.57803 0.12583 0.0
C467 C 0.07843 0.45334 0.09178 0.0
C468 C 0.08504 0.41833 0.06147 0.0
C469 C 0.07582 0.54287 0.09568 0.0
C470 C 0.08859 0.47472 0.03512 0.0
C471 C 0.08604 0.56343 0.03883 0.0
H472 H 0.45037 0.396 0.13629 0.0
H473 H 0.37141 0.32992 0.1215 0.0
H474 H 0.362 0.47709 0.10535 0.0
H475 H 0.37644 0.6236 0.09448 0.0
H476 H 0.45496 0.69181 0.11056 0.0
H477 H 0.4645 0.54453 0.12741 0.0
C478 C 0.43107 0.41434 0.13005 0.0
C479 C 0.41165 0.35249 0.12981 0.0
C480 C 0.42583 0.4989 0.12076 0.0
C481 C 0.38672 0.37652 0.12134 0.0
C482 C 0.38133 0.46046 0.11216 0.0
C483 C 0.39566 0.60561 0.10132 0.0
C484 C 0.41506 0.66727 0.10101 0.0
C485 C 0.40081 0.52178 0.11136 0.0
C486 C 0.43981 0.6446 0.11067 0.0
C487 C 0.44522 0.56079 0.12029 0.0
H488 H 0.06088 0.02412 0.3874 0.0
H489 H 0.13381 0.99356 0.43411 0.0
H490 H 0.13247 0.8396 0.42424 0.0
H491 H 0.11083 0.71274 0.40198 0.0
H492 H 0.03736 0.74296 0.35632 0.0
H493 H 0.03901 0.89671 0.36557 0.0
C494 C 0.07656 0.9839 0.39523 0.0
C495 C 0.09734 0.02097 0.41167 0.0
C496 C 0.07567 0.89472 0.38952 0.0
C497 C 0.11735 0.96719 0.42189 0.0
C498 C 0.11669 0.87886 0.41608 0.0
C499 C 0.09504 0.75255 0.39427 0.0
C500 C 0.07408 0.71504 0.37825 0.0
C501 C 0.09591 0.8417 0.40001 0.0
C502 C 0.05401 0.76897 0.36819 0.0
C503 C 0.05482 0.85746 0.37366 0.0
H504 H 0.40955 0.93117 0.37016 0.0
H505 H 0.42342 0.96813 0.47212 0.0
H506 H 0.42507 0.1228 0.46401 0.0
H507 H 0.42272 0.24906 0.42798 0.0
H508 H 0.41005 0.21227 0.3259 0.0
H509 H 0.40805 0.05704 0.33396 0.0
C510 C 0.41324 0.97278 0.39057 0.0
C511 C 0.41621 0.93712 0.42177 0.0
C512 C 0.41431 0.06237 0.38573 0.0
C513 C 0.42066 0.993 0.44791 0.0
C514 C 0.4217 0.08188 0.44329 0.0
C515 C 0.41927 0.20709 0.40758 0.0
C516 C 0.41649 0.24255 0.37638 0.0
C517 C 0.4184 0.11747 0.41236 0.0
C518 C 0.41246 0.18687 0.35012 0.0
C519 C 0.41125 0.09796 0.35473 0.0
H520 H 0.92596 0.57058 0.8805 0.0
H521 H 0.86459 0.53288 0.94861 0.0
H522 H 0.86564 0.37897 0.93898 0.0
H523 H 0.88343 0.2541 0.91071 0.0
H524 H 0.9454 0.2913 0.84329 0.0
H525 H 0.94416 0.44497 0.85268 0.0
C526 C 0.91272 0.52894 0.89314 0.0
C527 C 0.89533 0.56427 0.91547 0.0
C528 C 0.91336 0.43959 0.88745 0.0
C529 C 0.87852 0.50825 0.93174 0.0
C530 C 0.87897 0.4198 0.92608 0.0
C531 C 0.89685 0.29528 0.89821 0.0
C532 C 0.91437 0.25955 0.8761 0.0
C533 C 0.89632 0.38453 0.90401 0.0
C534 C 0.93134 0.3156 0.86003 0.0
C535 C 0.9308 0.40418 0.86554 0.0
H536 H 0.60461 0.82855 0.91362 0.0
H537 H 0.52835 0.79836 0.87613 0.0
H538 H 0.53075 0.64419 0.88482 0.0
H539 H 0.55414 0.51664 0.90408 0.0
H540 H 0.62996 0.54752 0.94261 0.0
H541 H 0.62783 0.70169 0.9331 0.0
C542 C 0.58839 0.78863 0.90761 0.0
C543 C 0.56638 0.82615 0.89408 0.0
C544 C 0.58974 0.6994 0.91301 0.0
C545 C 0.54575 0.7722 0.88608 0.0
C546 C 0.54701 0.68354 0.89124 0.0
C547 C 0.57025 0.557 0.91017 0.0
C548 C 0.59211 0.52005 0.92424 0.0
C549 C 0.56891 0.64627 0.90469 0.0
C550 C 0.61272 0.57389 0.93226 0.0
C551 C 0.61158 0.66231 0.92665 0.0
H552 H 0.92489 0.90445 0.63035 0.0
H553 H 0.91797 0.94239 0.5272 0.0
H554 H 0.92197 0.09671 0.53419 0.0
H555 H 0.92743 0.22217 0.56943 0.0
H556 H 0.93495 0.1852 0.67246 0.0
H557 H 0.93122 0.03019 0.66559 0.0
C558 C 0.92451 0.94623 0.60935 0.0
C559 C 0.92089 0.91097 0.57829 0.0
C560 C 0.92699 0.03571 0.61349 0.0
C561 C 0.92024 0.96702 0.55147 0.0
C562 C 0.92267 0.05568 0.55541 0.0
C563 C 0.92804 0.18038 0.59042 0.0
C564 C 0.93144 0.21585 0.62144 0.0
C565 C 0.9259 0.09093 0.5863 0.0
C566 C 0.93263 0.16002 0.64826 0.0
C567 C 0.93038 0.07115 0.64437 0.0
H568 H 0.57231 0.82785 0.63918 0.0
H569 H 0.58391 0.74233 0.54125 0.0
H570 H 0.59195 0.88952 0.52357 0.0
H571 H 0.59743 0.04189 0.5367 0.0
H572 H 0.58632 0.12604 0.63497 0.0
H573 H 0.57612 0.98048 0.65187 0.0
C574 C 0.57618 0.84207 0.61394 0.0
C575 C 0.5778 0.77521 0.59161 0.0
C576 C 0.58104 0.9263 0.6041 0.0
C577 C 0.58304 0.79334 0.55892 0.0
C578 C 0.58758 0.87721 0.54881 0.0
C579 C 0.5929 0.0279 0.56178 0.0
C580 C 0.59264 0.09416 0.58453 0.0
C581 C 0.5871 0.94399 0.57134 0.0
C582 C 0.58638 0.07602 0.61694 0.0
C583 C 0.58062 0.99282 0.62667 0.0
loop_
_geom_bond_atom_site_label_1
_geom_bond_atom_site_label_2
_geom_bond_distance
_geom_bond_site_symmetry_2
_ccdc_geom_bond_type
Co0 N4 2.148 1_545 S
Co0 N10 2.128 . S
Co0 N20 2.194 . S
Co0 O25 2.351 . S
Co0 O26 2.155 . S
Co0 O27 2.096 . S
C1 N4 1.301 . S
C1 N5 1.328 . S
C1 H6 0.930 . S
C2 C3 1.333 . S
C2 N4 1.317 . S
C2 H7 0.930 . S
C3 C2 1.333 . S
C3 N5 1.350 . S
C3 H29 0.931 . S
N4 Co0 2.148 1_565 S
N4 C1 1.301 . S
N4 C2 1.317 . S
N5 C1 1.328 . S
N5 C3 1.350 . S
H6 C1 0.930 . S
H7 C2 0.930 . S
C8 O9 1.224 . S
C8 O27 1.247 . S
O9 C8 1.224 . S
N10 Co0 2.128 . S
N10 C11 1.355 . S
N10 C13 1.311 . S
C11 N10 1.355 . S
C11 C12 1.363 . S
C11 H23 0.929 . S
C12 C11 1.363 . S
C12 N14 1.375 . S
C12 H30 0.931 . S
C13 N10 1.311 . S
C13 N14 1.347 . S
C13 H24 0.929 . S
N14 C12 1.375 . S
N14 C13 1.347 . S
C15 C18 1.365 . S
C15 N20 1.328 . S
C15 H21 0.929 . S
C16 C17 1.362 . S
C16 C19 1.378 . S
C16 H31 0.929 . S
C17 C16 1.362 . S
C17 C18 1.366 . S
C18 C15 1.365 . S
C18 C17 1.366 . S
C18 H32 0.930 . S
C19 C16 1.378 . S
C19 N20 1.315 . S
C19 H22 0.930 . S
N20 Co0 2.194 . S
N20 C15 1.328 . S
N20 C19 1.315 . S
H21 C15 0.929 . S
H22 C19 0.930 . S
H23 C11 0.929 . S
H24 C13 0.929 . S
O25 Co0 2.351 . S
O25 C28 1.244 . S
O26 Co0 2.155 . S
O26 C28 1.240 . S
O27 Co0 2.096 . S
O27 C8 1.247 . S
C28 O25 1.244 . S
C28 O26 1.240 . S
H29 C3 0.931 . S
H30 C12 0.931 . S
H31 C16 0.929 . S
H32 C18 0.930 . S
Co33 N37 2.148 1_565 S
Co33 N43 2.128 . S
Co33 N53 2.194 . S
Co33 O58 2.351 . S
Co33 O59 2.155 . S
Co33 O60 2.096 . S
C34 N37 1.301 . S
C34 N38 1.328 . S
C34 H39 0.930 . S
C35 C36 1.333 . S
C35 N37 1.317 . S
C35 H40 0.930 . S
C36 C35 1.333 . S
C36 N38 1.350 . S
C36 H62 0.931 . S
N37 Co33 2.148 1_545 S
N37 C34 1.301 . S
N37 C35 1.317 . S
N38 C34 1.328 . S
N38 C36 1.350 . S
H39 C34 0.930 . S
H40 C35 0.930 . S
C41 O42 1.224 . S
C41 O60 1.247 . S
O42 C41 1.224 . S
N43 Co33 2.128 . S
N43 C44 1.355 . S
N43 C46 1.311 . S
C44 N43 1.355 . S
C44 C45 1.363 . S
C44 H56 0.929 . S
C45 C44 1.363 . S
C45 N47 1.375 . S
C45 H63 0.931 . S
C46 N43 1.311 . S
C46 N47 1.347 . S
C46 H57 0.929 . S
N47 C45 1.375 . S
N47 C46 1.347 . S
C48 C51 1.365 . S
C48 N53 1.328 . S
C48 H54 0.929 . S
C49 C50 1.362 . S
C49 C52 1.378 . S
C49 H64 0.929 . S
C50 C49 1.362 . S
C50 C51 1.366 . S
C51 C48 1.365 . S
C51 C50 1.366 . S
C51 H65 0.930 . S
C52 C49 1.378 . S
C52 N53 1.315 . S
C52 H55 0.930 . S
N53 Co33 2.194 . S
N53 C48 1.328 . S
N53 C52 1.315 . S
H54 C48 0.929 . S
H55 C52 0.930 . S
H56 C44 0.929 . S
H57 C46 0.929 . S
O58 Co33 2.351 . S
O58 C61 1.244 . S
O59 Co33 2.155 . S
O59 C61 1.240 . S
O60 Co33 2.096 . S
O60 C41 1.247 . S
C61 O58 1.244 . S
C61 O59 1.240 . S
H62 C36 0.931 . S
H63 C45 0.931 . S
H64 C49 0.929 . S
H65 C51 0.930 . S
Co66 N70 2.148 . S
Co66 N76 2.128 . S
Co66 N86 2.194 . S
Co66 O91 2.351 . S
Co66 O92 2.155 . S
Co66 O93 2.096 . S
C67 N70 1.301 . S
C67 N71 1.328 . S
C67 H72 0.930 . S
C68 C69 1.333 . S
C68 N70 1.317 . S
C68 H73 0.930 . S
C69 C68 1.333 . S
C69 N71 1.350 . S
C69 H95 0.931 . S
N70 Co66 2.148 . S
N70 C67 1.301 . S
N70 C68 1.317 . S
N71 C67 1.328 . S
N71 C69 1.350 . S
H72 C67 0.930 . S
H73 C68 0.930 . S
C74 O75 1.224 . S
C74 O93 1.247 . S
O75 C74 1.224 . S
N76 Co66 2.128 . S
N76 C77 1.355 . S
N76 C79 1.311 . S
C77 N76 1.355 . S
C77 C78 1.363 . S
C77 H89 0.929 . S
C78 C77 1.363 . S
C78 N80 1.375 . S
C78 H96 0.931 . S
C79 N76 1.311 . S
C79 N80 1.347 . S
C79 H90 0.929 . S
N80 C78 1.375 . S
N80 C79 1.347 . S
C81 C84 1.365 . S
C81 N86 1.328 . S
C81 H87 0.929 . S
C82 C83 1.362 . S
C82 C85 1.378 . S
C82 H97 0.929 . S
C83 C82 1.362 . S
C83 C84 1.366 . S
C84 C81 1.365 . S
C84 C83 1.366 . S
C84 H98 0.930 . S
C85 C82 1.378 . S
C85 N86 1.315 . S
C85 H88 0.930 . S
N86 Co66 2.194 . S
N86 C81 1.328 . S
N86 C85 1.315 . S
H87 C81 0.929 . S
H88 C85 0.930 . S
H89 C77 0.929 . S
H90 C79 0.929 . S
O91 Co66 2.351 . S
O91 C94 1.244 . S
O92 Co66 2.155 . S
O92 C94 1.240 . S
O93 Co66 2.096 . S
O93 C74 1.247 . S
C94 O91 1.244 . S
C94 O92 1.240 . S
H95 C69 0.931 . S
H96 C78 0.931 . S
H97 C82 0.929 . S
H98 C84 0.930 . S
Co99 N103 2.148 . S
Co99 N109 2.128 . S
Co99 N119 2.194 . S
Co99 O124 2.351 . S
Co99 O125 2.155 . S
Co99 O126 2.096 . S
C100 N103 1.301 . S
C100 N104 1.328 . S
C100 H105 0.930 . S
C101 C102 1.333 . S
C101 N103 1.317 . S
C101 H106 0.930 . S
C102 C101 1.333 . S
C102 N104 1.350 . S
C102 H128 0.931 . S
N103 Co99 2.148 . S
N103 C100 1.301 . S
N103 C101 1.317 . S
N104 C100 1.328 . S
N104 C102 1.350 . S
H105 C100 0.930 . S
H106 C101 0.930 . S
C107 O108 1.224 . S
C107 O126 1.247 . S
O108 C107 1.224 . S
N109 Co99 2.128 . S
N109 C110 1.355 . S
N109 C112 1.311 . S
C110 N109 1.355 . S
C110 C111 1.363 . S
C110 H122 0.929 . S
C111 C110 1.363 . S
C111 N113 1.375 . S
C111 H129 0.931 . S
C112 N109 1.311 . S
C112 N113 1.347 . S
C112 H123 0.929 . S
N113 C111 1.375 . S
N113 C112 1.347 . S
C114 C117 1.365 . S
C114 N119 1.328 . S
C114 H120 0.929 . S
C115 C116 1.362 . S
C115 C118 1.378 . S
C115 H130 0.929 . S
C116 C115 1.362 . S
C116 C117 1.366 . S
C117 C114 1.365 . S
C117 C116 1.366 . S
C117 H131 0.930 . S
C118 C115 1.378 . S
C118 N119 1.315 . S
C118 H121 0.930 . S
N119 Co99 2.194 . S
N119 C114 1.328 . S
N119 C118 1.315 . S
H120 C114 0.929 . S
H121 C118 0.930 . S
H122 C110 0.929 . S
H123 C112 0.929 . S
O124 Co99 2.351 . S
O124 C127 1.244 . S
O125 Co99 2.155 . S
O125 C127 1.240 . S
O126 Co99 2.096 . S
O126 C107 1.247 . S
C127 O124 1.244 . S
C127 O125 1.240 . S
H128 C102 0.931 . S
H129 C111 0.931 . S
H130 C115 0.929 . S
H131 C117 0.930 . S
Co132 N136 2.148 1_565 S
Co132 N142 2.128 . S
Co132 N152 2.194 . S
Co132 O157 2.351 . S
Co132 O158 2.155 . S
Co132 O159 2.096 . S
C133 N136 1.301 . S
C133 N137 1.328 . S
C133 H138 0.930 . S
C134 C135 1.333 . S
C134 N136 1.317 . S
C134 H139 0.930 . S
C135 C134 1.333 . S
C135 N137 1.350 . S
C135 H161 0.931 . S
N136 Co132 2.148 1_545 S
N136 C133 1.301 . S
N136 C134 1.317 . S
N137 C133 1.328 . S
N137 C135 1.350 . S
H138 C133 0.930 . S
H139 C134 0.930 . S
C140 O141 1.224 . S
C140 O159 1.247 . S
O141 C140 1.224 . S
N142 Co132 2.128 . S
N142 C143 1.355 . S
N142 C145 1.311 . S
C143 N142 1.355 . S
C143 C144 1.363 . S
C143 H155 0.929 . S
C144 C143 1.363 . S
C144 N146 1.375 . S
C144 H162 0.931 . S
C145 N142 1.311 . S
C145 N146 1.347 . S
C145 H156 0.929 . S
N146 C144 1.375 . S
N146 C145 1.347 . S
C147 C150 1.365 . S
C147 N152 1.328 . S
C147 H153 0.929 . S
C148 C149 1.362 . S
C148 C151 1.378 . S
C148 H163 0.929 . S
C149 C148 1.362 . S
C149 C150 1.366 . S
C150 C147 1.365 . S
C150 C149 1.366 . S
C150 H164 0.930 . S
C151 C148 1.378 . S
C151 N152 1.315 . S
C151 H154 0.930 . S
N152 Co132 2.194 . S
N152 C147 1.328 . S
N152 C151 1.315 . S
H153 C147 0.929 . S
H154 C151 0.930 . S
H155 C143 0.929 . S
H156 C145 0.929 . S
O157 Co132 2.351 . S
O157 C160 1.244 . S
O158 Co132 2.155 . S
O158 C160 1.240 . S
O159 Co132 2.096 . S
O159 C140 1.247 . S
C160 O157 1.244 . S
C160 O158 1.240 . S
H161 C135 0.931 . S
H162 C144 0.931 . S
H163 C148 0.929 . S
H164 C150 0.930 . S
Co165 N169 2.148 1_545 S
Co165 N175 2.128 . S
Co165 N185 2.194 . S
Co165 O190 2.351 . S
Co165 O191 2.155 . S
Co165 O192 2.096 . S
C166 N169 1.301 . S
C166 N170 1.328 . S
C166 H171 0.930 . S
C167 C168 1.333 . S
C167 N169 1.317 . S
C167 H172 0.930 . S
C168 C167 1.333 . S
C168 N170 1.350 . S
C168 H194 0.931 . S
N169 Co165 2.148 1_565 S
N169 C166 1.301 . S
N169 C167 1.317 . S
N170 C166 1.328 . S
N170 C168 1.350 . S
H171 C166 0.930 . S
H172 C167 0.930 . S
C173 O174 1.224 . S
C173 O192 1.247 . S
O174 C173 1.224 . S
N175 Co165 2.128 . S
N175 C176 1.355 . S
N175 C178 1.311 . S
C176 N175 1.355 . S
C176 C177 1.363 . S
C176 H188 0.929 . S
C177 C176 1.363 . S
C177 N179 1.375 . S
C177 H195 0.931 . S
C178 N175 1.311 . S
C178 N179 1.347 . S
C178 H189 0.929 . S
N179 C177 1.375 . S
N179 C178 1.347 . S
C180 C183 1.365 . S
C180 N185 1.328 . S
C180 H186 0.929 . S
C181 C182 1.362 . S
C181 C184 1.378 . S
C181 H196 0.929 . S
C182 C181 1.362 . S
C182 C183 1.366 . S
C183 C180 1.365 . S
C183 C182 1.366 . S
C183 H197 0.930 . S
C184 C181 1.378 . S
C184 N185 1.315 . S
C184 H187 0.930 . S
N185 Co165 2.194 . S
N185 C180 1.328 . S
N185 C184 1.315 . S
H186 C180 0.929 . S
H187 C184 0.930 . S
H188 C176 0.929 . S
H189 C178 0.929 . S
O190 Co165 2.351 . S
O190 C193 1.244 . S
O191 Co165 2.155 . S
O191 C193 1.240 . S
O192 Co165 2.096 . S
O192 C173 1.247 . S
C193 O190 1.244 . S
C193 O191 1.240 . S
H194 C168 0.931 . S
H195 C177 0.931 . S
H196 C181 0.929 . S
H197 C183 0.930 . S
Co198 N202 2.148 . S
Co198 N208 2.128 . S
Co198 N218 2.194 . S
Co198 O223 2.351 . S
Co198 O224 2.155 . S
Co198 O225 2.096 . S
C199 N202 1.301 . S
C199 N203 1.328 . S
C199 H204 0.930 . S
C200 C201 1.333 . S
C200 N202 1.317 . S
C200 H205 0.930 . S
C201 C200 1.333 . S
C201 N203 1.350 . S
C201 H227 0.931 . S
N202 Co198 2.148 . S
N202 C199 1.301 . S
N202 C200 1.317 . S
N203 C199 1.328 . S
N203 C201 1.350 . S
H204 C199 0.930 . S
H205 C200 0.930 . S
C206 O207 1.224 . S
C206 O225 1.247 . S
O207 C206 1.224 . S
N208 Co198 2.128 . S
N208 C209 1.355 . S
N208 C211 1.311 . S
C209 N208 1.355 . S
C209 C210 1.363 . S
C209 H221 0.929 . S
C210 C209 1.363 . S
C210 N212 1.375 . S
C210 H228 0.931 . S
C211 N208 1.311 . S
C211 N212 1.347 . S
C211 H222 0.929 . S
N212 C210 1.375 . S
N212 C211 1.347 . S
C213 C216 1.365 . S
C213 N218 1.328 . S
C213 H219 0.929 . S
C214 C215 1.362 . S
C214 C217 1.378 . S
C214 H229 0.929 . S
C215 C214 1.362 . S
C215 C216 1.366 . S
C216 C213 1.365 . S
C216 C215 1.366 . S
C216 H230 0.930 . S
C217 C214 1.378 . S
C217 N218 1.315 . S
C217 H220 0.930 . S
N218 Co198 2.194 . S
N218 C213 1.328 . S
N218 C217 1.315 . S
H219 C213 0.929 . S
H220 C217 0.930 . S
H221 C209 0.929 . S
H222 C211 0.929 . S
O223 Co198 2.351 . S
O223 C226 1.244 . S
O224 Co198 2.155 . S
O224 C226 1.240 . S
O225 Co198 2.096 . S
O225 C206 1.247 . S
C226 O223 1.244 . S
C226 O224 1.240 . S
H227 C201 0.931 . S
H228 C210 0.931 . S
H229 C214 0.929 . S
H230 C216 0.930 . S
Co231 N235 2.148 . S
Co231 N241 2.128 . S
Co231 N251 2.194 . S
Co231 O256 2.351 . S
Co231 O257 2.155 . S
Co231 O258 2.096 . S
C232 N235 1.301 . S
C232 N236 1.328 . S
C232 H237 0.930 . S
C233 C234 1.333 . S
C233 N235 1.317 . S
C233 H238 0.930 . S
C234 C233 1.333 . S
C234 N236 1.350 . S
C234 H260 0.931 . S
N235 Co231 2.148 . S
N235 C232 1.301 . S
N235 C233 1.317 . S
N236 C232 1.328 . S
N236 C234 1.350 . S
H237 C232 0.930 . S
H238 C233 0.930 . S
C239 O240 1.224 . S
C239 O258 1.247 . S
O240 C239 1.224 . S
N241 Co231 2.128 . S
N241 C242 1.355 . S
N241 C244 1.311 . S
C242 N241 1.355 . S
C242 C243 1.363 . S
C242 H254 0.929 . S
C243 C242 1.363 . S
C243 N245 1.375 . S
C243 H261 0.931 . S
C244 N241 1.311 . S
C244 N245 1.347 . S
C244 H255 0.929 . S
N245 C243 1.375 . S
N245 C244 1.347 . S
C246 C249 1.365 . S
C246 N251 1.328 . S
C246 H252 0.929 . S
C247 C248 1.362 . S
C247 C250 1.378 . S
C247 H262 0.929 . S
C248 C247 1.362 . S
C248 C249 1.366 . S
C249 C246 1.365 . S
C249 C248 1.366 . S
C249 H263 0.930 . S
C250 C247 1.378 . S
C250 N251 1.315 . S
C250 H253 0.930 . S
N251 Co231 2.194 . S
N251 C246 1.328 . S
N251 C250 1.315 . S
H252 C246 0.929 . S
H253 C250 0.930 . S
H254 C242 0.929 . S
H255 C244 0.929 . S
O256 Co231 2.351 . S
O256 C259 1.244 . S
O257 Co231 2.155 . S
O257 C259 1.240 . S
O258 Co231 2.096 . S
O258 C239 1.247 . S
C259 O256 1.244 . S
C259 O257 1.240 . S
H260 C234 0.931 . S
H261 C243 0.931 . S
H262 C247 0.929 . S
H263 C249 0.930 . S
H264 C270 0.930 . S
H265 C273 0.930 . S
H266 C274 0.930 . S
H267 C275 0.930 . S
H268 C278 0.930 . S
H269 C279 0.930 . S
C270 H264 0.930 . S
C270 C271 1.355 . S
C270 C272 1.415 . S
C271 C270 1.355 . S
C271 C273 1.419 1_545 S
C272 C270 1.415 . S
C272 C277 1.425 1_545 S
C272 C279 1.409 . S
C273 H265 0.930 . S
C273 C271 1.419 1_565 S
C273 C274 1.362 . S
C274 H266 0.930 . S
C274 C273 1.362 . S
C274 C277 1.409 . S
C275 H267 0.930 . S
C275 C276 1.355 . S
C275 C277 1.415 . S
C276 C275 1.355 . S
C276 C278 1.419 1_565 S
C277 C272 1.425 1_565 S
C277 C274 1.409 . S
C277 C275 1.415 . S
C278 H268 0.930 . S
C278 C276 1.419 1_545 S
C278 C279 1.362 . S
C279 H269 0.930 . S
C279 C272 1.409 . S
C279 C278 1.362 . S
H280 C286 0.930 . S
H281 C289 0.930 . S
H282 C290 0.930 . S
H283 C291 0.930 . S
H284 C294 0.930 . S
H285 C295 0.930 . S
C286 H280 0.930 . S
C286 C287 1.355 . S
C286 C288 1.415 . S
C287 C286 1.355 . S
C287 C289 1.419 . S
C288 C286 1.415 . S
C288 C293 1.425 . S
C288 C295 1.409 . S
C289 H281 0.930 . S
C289 C287 1.419 . S
C289 C290 1.362 . S
C290 H282 0.930 . S
C290 C289 1.362 . S
C290 C293 1.409 . S
C291 H283 0.930 . S
C291 C292 1.355 . S
C291 C293 1.415 . S
C292 C291 1.355 . S
C292 C294 1.419 . S
C293 C288 1.425 . S
C293 C290 1.409 . S
C293 C291 1.415 . S
C294 H284 0.930 . S
C294 C292 1.419 . S
C294 C295 1.362 . S
C295 H285 0.930 . S
C295 C288 1.409 . S
C295 C294 1.362 . S
H296 C302 0.930 1_545 S
H297 C305 0.930 . S
H298 C306 0.930 . S
H299 C307 0.930 1_565 S
H300 C310 0.930 . S
H301 C311 0.930 . S
C302 H296 0.930 1_565 S
C302 C303 1.355 . S
C302 C304 1.415 1_565 S
C303 C302 1.355 . S
C303 C305 1.419 . S
C304 C302 1.415 1_545 S
C304 C309 1.425 1_545 S
C304 C311 1.409 . S
C305 H297 0.930 . S
C305 C303 1.419 . S
C305 C306 1.362 . S
C306 H298 0.930 . S
C306 C305 1.362 . S
C306 C309 1.409 . S
C307 H299 0.930 1_545 S
C307 C308 1.355 . S
C307 C309 1.415 1_545 S
C308 C307 1.355 . S
C308 C310 1.419 . S
C309 C304 1.425 1_565 S
C309 C306 1.409 . S
C309 C307 1.415 1_565 S
C310 H300 0.930 . S
C310 C308 1.419 . S
C310 C311 1.362 . S
C311 H301 0.930 . S
C311 C304 1.409 . S
C311 C310 1.362 . S
H312 C318 0.930 . S
H313 C321 0.930 . S
H314 C322 0.930 . S
H315 C323 0.930 . S
H316 C326 0.930 . S
H317 C327 0.930 . S
C318 H312 0.930 . S
C318 C319 1.355 . S
C318 C320 1.415 . S
C319 C318 1.355 . S
C319 C321 1.419 . S
C320 C318 1.415 . S
C320 C325 1.425 . S
C320 C327 1.409 . S
C321 H313 0.930 . S
C321 C319 1.419 . S
C321 C322 1.362 . S
C322 H314 0.930 . S
C322 C321 1.362 . S
C322 C325 1.409 . S
C323 H315 0.930 . S
C323 C324 1.355 . S
C323 C325 1.415 . S
C324 C323 1.355 . S
C324 C326 1.419 . S
C325 C320 1.425 . S
C325 C322 1.409 . S
C325 C323 1.415 . S
C326 H316 0.930 . S
C326 C324 1.419 . S
C326 C327 1.362 . S
C327 H317 0.930 . S
C327 C320 1.409 . S
C327 C326 1.362 . S
H328 C334 0.930 1_565 S
H329 C337 0.930 . S
H330 C338 0.930 . S
H331 C339 0.930 1_545 S
H332 C342 0.930 . S
H333 C343 0.930 . S
C334 H328 0.930 1_545 S
C334 C335 1.355 . S
C334 C336 1.415 1_445 S
C335 C334 1.355 . S
C335 C337 1.419 1_554 S
C336 C334 1.415 1_665 S
C336 C341 1.425 1_664 S
C336 C343 1.409 . S
C337 H329 0.930 . S
C337 C335 1.419 1_556 S
C337 C338 1.362 . S
C338 H330 0.930 . S
C338 C337 1.362 . S
C338 C341 1.409 . S
C339 H331 0.930 1_565 S
C339 C340 1.355 . S
C339 C341 1.415 1_665 S
C340 C339 1.355 . S
C340 C342 1.419 1_556 S
C341 C336 1.425 1_446 S
C341 C338 1.409 . S
C341 C339 1.415 1_445 S
C342 H332 0.930 . S
C342 C340 1.419 1_554 S
C342 C343 1.362 . S
C343 H333 0.930 . S
C343 C336 1.409 . S
C343 C342 1.362 . S
H344 C350 0.930 1_545 S
H345 C353 0.930 . S
H346 C354 0.930 . S
H347 C355 0.930 1_565 S
H348 C358 0.930 . S
H349 C359 0.930 . S
C350 H344 0.930 1_565 S
C350 C351 1.355 . S
C350 C352 1.415 1_565 S
C351 C350 1.355 . S
C351 C353 1.419 1_554 S
C352 C350 1.415 1_545 S
C352 C357 1.425 1_544 S
C352 C359 1.409 . S
C353 H345 0.930 . S
C353 C351 1.419 1_556 S
C353 C354 1.362 . S
C354 H346 0.930 . S
C354 C353 1.362 . S
C354 C357 1.409 . S
C355 H347 0.930 1_545 S
C355 C356 1.355 . S
C355 C357 1.415 1_545 S
C356 C355 1.355 . S
C356 C358 1.419 1_556 S
C357 C352 1.425 1_566 S
C357 C354 1.409 . S
C357 C355 1.415 1_565 S
C358 H348 0.930 . S
C358 C356 1.419 1_554 S
C358 C359 1.362 . S
C359 H349 0.930 . S
C359 C352 1.409 . S
C359 C358 1.362 . S
H360 C366 0.930 . S
H361 C369 0.930 . S
H362 C370 0.930 . S
H363 C371 0.930 . S
H364 C374 0.930 . S
H365 C375 0.930 . S
C366 H360 0.930 . S
C366 C367 1.355 . S
C366 C368 1.415 . S
C367 C366 1.355 . S
C367 C369 1.419 . S
C368 C366 1.415 . S
C368 C373 1.425 1_455 S
C368 C375 1.409 1_455 S
C369 H361 0.930 . S
C369 C367 1.419 . S
C369 C370 1.362 . S
C370 H362 0.930 . S
C370 C369 1.362 . S
C370 C373 1.409 1_455 S
C371 H363 0.930 . S
C371 C372 1.355 . S
C371 C373 1.415 . S
C372 C371 1.355 . S
C372 C374 1.419 . S
C373 C368 1.425 1_655 S
C373 C370 1.409 1_655 S
C373 C371 1.415 . S
C374 H364 0.930 . S
C374 C372 1.419 . S
C374 C375 1.362 . S
C375 H365 0.930 . S
C375 C368 1.409 1_655 S
C375 C374 1.362 . S
H376 C382 0.930 . S
H377 C385 0.930 . S
H378 C386 0.930 . S
H379 C387 0.930 . S
H380 C390 0.930 . S
H381 C391 0.930 . S
C382 H376 0.930 . S
C382 C383 1.355 . S
C382 C384 1.415 . S
C383 C382 1.355 . S
C383 C385 1.419 . S
C384 C382 1.415 . S
C384 C389 1.425 . S
C384 C391 1.409 . S
C385 H377 0.930 . S
C385 C383 1.419 . S
C385 C386 1.362 . S
C386 H378 0.930 . S
C386 C385 1.362 . S
C386 C389 1.409 . S
C387 H379 0.930 . S
C387 C388 1.355 . S
C387 C389 1.415 . S
C388 C387 1.355 . S
C388 C390 1.419 . S
C389 C384 1.425 . S
C389 C386 1.409 . S
C389 C387 1.415 . S
C390 H380 0.930 . S
C390 C388 1.419 . S
C390 C391 1.362 . S
C391 H381 0.930 . S
C391 C384 1.409 . S
C391 C390 1.362 . S
H392 C398 0.930 . S
H393 C401 0.930 . S
H394 C402 0.930 . S
H395 C403 0.930 . S
H396 C406 0.930 . S
H397 C407 0.930 . S
C398 H392 0.930 . S
C398 C399 1.355 . S
C398 C400 1.415 . S
C399 C398 1.355 . S
C399 C401 1.419 . S
C400 C398 1.415 . S
C400 C405 1.425 . S
C400 C407 1.409 . S
C401 H393 0.930 . S
C401 C399 1.419 . S
C401 C402 1.362 . S
C402 H394 0.930 . S
C402 C401 1.362 . S
C402 C405 1.409 . S
C403 H395 0.930 . S
C403 C404 1.355 . S
C403 C405 1.415 . S
C404 C403 1.355 . S
C404 C406 1.419 . S
C405 C400 1.425 . S
C405 C402 1.409 . S
C405 C403 1.415 . S
C406 H396 0.930 . S
C406 C404 1.419 . S
C406 C407 1.362 . S
C407 H397 0.930 . S
C407 C400 1.409 . S
C407 C406 1.362 . S
H408 C414 0.930 . S
H409 C417 0.930 . S
H410 C418 0.930 . S
H411 C419 0.930 . S
H412 C422 0.930 . S
H413 C423 0.930 . S
C414 H408 0.930 . S
C414 C415 1.355 . S
C414 C416 1.415 . S
C415 C414 1.355 . S
C415 C417 1.419 . S
C416 C414 1.415 . S
C416 C421 1.425 . S
C416 C423 1.409 . S
C417 H409 0.930 . S
C417 C415 1.419 . S
C417 C418 1.362 . S
C418 H410 0.930 . S
C418 C417 1.362 . S
C418 C421 1.409 . S
C419 H411 0.930 . S
C419 C420 1.355 . S
C419 C421 1.415 . S
C420 C419 1.355 . S
C420 C422 1.419 . S
C421 C416 1.425 . S
C421 C418 1.409 . S
C421 C419 1.415 . S
C422 H412 0.930 . S
C422 C420 1.419 . S
C422 C423 1.362 . S
C423 H413 0.930 . S
C423 C416 1.409 . S
C423 C422 1.362 . S
H424 C430 0.930 . S
H425 C433 0.930 . S
H426 C434 0.930 . S
H427 C435 0.930 . S
H428 C438 0.930 . S
H429 C439 0.930 . S
C430 H424 0.930 . S
C430 C431 1.355 . S
C430 C432 1.415 . S
C431 C430 1.355 . S
C431 C433 1.419 . S
C432 C430 1.415 . S
C432 C437 1.425 . S
C432 C439 1.409 . S
C433 H425 0.930 . S
C433 C431 1.419 . S
C433 C434 1.362 . S
C434 H426 0.930 . S
C434 C433 1.362 . S
C434 C437 1.409 . S
C435 H427 0.930 . S
C435 C436 1.355 . S
C435 C437 1.415 . S
C436 C435 1.355 . S
C436 C438 1.419 . S
C437 C432 1.425 . S
C437 C434 1.409 . S
C437 C435 1.415 . S
C438 H428 0.930 . S
C438 C436 1.419 . S
C438 C439 1.362 . S
C439 H429 0.930 . S
C439 C432 1.409 . S
C439 C438 1.362 . S
H440 C446 0.930 . S
H441 C449 0.930 . S
H442 C450 0.930 . S
H443 C451 0.930 . S
H444 C454 0.930 . S
H445 C455 0.930 . S
C446 H440 0.930 . S
C446 C447 1.355 . S
C446 C448 1.415 . S
C447 C446 1.355 . S
C447 C449 1.419 . S
C448 C446 1.415 . S
C448 C453 1.425 . S
C448 C455 1.409 . S
C449 H441 0.930 . S
C449 C447 1.419 . S
C449 C450 1.362 . S
C450 H442 0.930 . S
C450 C449 1.362 . S
C450 C453 1.409 . S
C451 H443 0.930 . S
C451 C452 1.355 . S
C451 C453 1.415 . S
C452 C451 1.355 . S
C452 C454 1.419 . S
C453 C448 1.425 . S
C453 C450 1.409 . S
C453 C451 1.415 . S
C454 H444 0.930 . S
C454 C452 1.419 . S
C454 C455 1.362 . S
C455 H445 0.930 . S
C455 C448 1.409 . S
C455 C454 1.362 . S
H456 C462 0.930 . S
H457 C465 0.930 . S
H458 C466 0.930 . S
H459 C467 0.930 . S
H460 C470 0.930 . S
H461 C471 0.930 . S
C462 H456 0.930 . S
C462 C463 1.355 . S
C462 C464 1.415 . S
C463 C462 1.355 . S
C463 C465 1.419 . S
C464 C462 1.415 . S
C464 C469 1.425 . S
C464 C471 1.409 . S
C465 H457 0.930 . S
C465 C463 1.419 . S
C465 C466 1.362 . S
C466 H458 0.930 . S
C466 C465 1.362 . S
C466 C469 1.409 . S
C467 H459 0.930 . S
C467 C468 1.355 . S
C467 C469 1.415 . S
C468 C467 1.355 . S
C468 C470 1.419 . S
C469 C464 1.425 . S
C469 C466 1.409 . S
C469 C467 1.415 . S
C470 H460 0.930 . S
C470 C468 1.419 . S
C470 C471 1.362 . S
C471 H461 0.930 . S
C471 C464 1.409 . S
C471 C470 1.362 . S
H472 C478 0.930 . S
H473 C481 0.930 . S
H474 C482 0.930 . S
H475 C483 0.930 . S
H476 C486 0.930 . S
H477 C487 0.930 . S
C478 H472 0.930 . S
C478 C479 1.355 . S
C478 C480 1.415 . S
C479 C478 1.355 . S
C479 C481 1.419 . S
C480 C478 1.415 . S
C480 C485 1.425 . S
C480 C487 1.409 . S
C481 H473 0.930 . S
C481 C479 1.419 . S
C481 C482 1.362 . S
C482 H474 0.930 . S
C482 C481 1.362 . S
C482 C485 1.409 . S
C483 H475 0.930 . S
C483 C484 1.355 . S
C483 C485 1.415 . S
C484 C483 1.355 . S
C484 C486 1.419 . S
C485 C480 1.425 . S
C485 C482 1.409 . S
C485 C483 1.415 . S
C486 H476 0.930 . S
C486 C484 1.419 . S
C486 C487 1.362 . S
C487 H477 0.930 . S
C487 C480 1.409 . S
C487 C486 1.362 . S
H488 C494 0.930 . S
H489 C497 0.930 . S
H490 C498 0.930 . S
H491 C499 0.930 . S
H492 C502 0.930 . S
H493 C503 0.930 . S
C494 H488 0.930 . S
C494 C495 1.355 . S
C494 C496 1.415 1_545 S
C495 C494 1.355 . S
C495 C497 1.419 . S
C496 C494 1.415 1_565 S
C496 C501 1.425 . S
C496 C503 1.409 . S
C497 H489 0.930 . S
C497 C495 1.419 . S
C497 C498 1.362 1_545 S
C498 H490 0.930 . S
C498 C497 1.362 1_565 S
C498 C501 1.409 . S
C499 H491 0.930 . S
C499 C500 1.355 . S
C499 C501 1.415 . S
C500 C499 1.355 . S
C500 C502 1.419 . S
C501 C496 1.425 . S
C501 C498 1.409 . S
C501 C499 1.415 . S
C502 H492 0.930 . S
C502 C500 1.419 . S
C502 C503 1.362 . S
C503 H493 0.930 . S
C503 C496 1.409 . S
C503 C502 1.362 . S
H504 C510 0.930 . S
H505 C513 0.930 . S
H506 C514 0.930 . S
H507 C515 0.930 . S
H508 C518 0.930 . S
H509 C519 0.930 . S
C510 H504 0.930 . S
C510 C511 1.355 . S
C510 C512 1.415 1_565 S
C511 C510 1.355 . S
C511 C513 1.419 . S
C512 C510 1.415 1_545 S
C512 C517 1.425 . S
C512 C519 1.409 . S
C513 H505 0.930 . S
C513 C511 1.419 . S
C513 C514 1.362 1_565 S
C514 H506 0.930 . S
C514 C513 1.362 1_545 S
C514 C517 1.409 . S
C515 H507 0.930 . S
C515 C516 1.355 . S
C515 C517 1.415 . S
C516 C515 1.355 . S
C516 C518 1.419 . S
C517 C512 1.425 . S
C517 C514 1.409 . S
C517 C515 1.415 . S
C518 H508 0.930 . S
C518 C516 1.419 . S
C518 C519 1.362 . S
C519 H509 0.930 . S
C519 C512 1.409 . S
C519 C518 1.362 . S
H520 C526 0.930 . S
H521 C529 0.930 . S
H522 C530 0.930 . S
H523 C531 0.930 . S
H524 C534 0.930 . S
H525 C535 0.930 . S
C526 H520 0.930 . S
C526 C527 1.355 . S
C526 C528 1.415 . S
C527 C526 1.355 . S
C527 C529 1.419 . S
C528 C526 1.415 . S
C528 C533 1.425 . S
C528 C535 1.409 . S
C529 H521 0.930 . S
C529 C527 1.419 . S
C529 C530 1.362 . S
C530 H522 0.930 . S
C530 C529 1.362 . S
C530 C533 1.409 . S
C531 H523 0.930 . S
C531 C532 1.355 . S
C531 C533 1.415 . S
C532 C531 1.355 . S
C532 C534 1.419 . S
C533 C528 1.425 . S
C533 C530 1.409 . S
C533 C531 1.415 . S
C534 H524 0.930 . S
C534 C532 1.419 . S
C534 C535 1.362 . S
C535 H525 0.930 . S
C535 C528 1.409 . S
C535 C534 1.362 . S
H536 C542 0.930 . S
H537 C545 0.930 . S
H538 C546 0.930 . S
H539 C547 0.930 . S
H540 C550 0.930 . S
H541 C551 0.930 . S
C542 H536 0.930 . S
C542 C543 1.355 . S
C542 C544 1.415 . S
C543 C542 1.355 . S
C543 C545 1.419 . S
C544 C542 1.415 . S
C544 C549 1.425 . S
C544 C551 1.409 . S
C545 H537 0.930 . S
C545 C543 1.419 . S
C545 C546 1.362 . S
C546 H538 0.930 . S
C546 C545 1.362 . S
C546 C549 1.409 . S
C547 H539 0.930 . S
C547 C548 1.355 . S
C547 C549 1.415 . S
C548 C547 1.355 . S
C548 C550 1.419 . S
C549 C544 1.425 . S
C549 C546 1.409 . S
C549 C547 1.415 . S
C550 H540 0.930 . S
C550 C548 1.419 . S
C550 C551 1.362 . S
C551 H541 0.930 . S
C551 C544 1.409 . S
C551 C550 1.362 . S
H552 C558 0.930 . S
H553 C561 0.930 . S
H554 C562 0.930 . S
H555 C563 0.930 . S
H556 C566 0.930 . S
H557 C567 0.930 . S
C558 H552 0.930 . S
C558 C559 1.355 . S
C558 C560 1.415 1_565 S
C559 C558 1.355 . S
C559 C561 1.419 . S
C560 C558 1.415 1_545 S
C560 C565 1.425 . S
C560 C567 1.409 . S
C561 H553 0.930 . S
C561 C559 1.419 . S
C561 C562 1.362 1_565 S
C562 H554 0.930 . S
C562 C561 1.362 1_545 S
C562 C565 1.409 . S
C563 H555 0.930 . S
C563 C564 1.355 . S
C563 C565 1.415 . S
C564 C563 1.355 . S
C564 C566 1.419 . S
C565 C560 1.425 . S
C565 C562 1.409 . S
C565 C563 1.415 . S
C566 H556 0.930 . S
C566 C564 1.419 . S
C566 C567 1.362 . S
C567 H557 0.930 . S
C567 C560 1.409 . S
C567 C566 1.362 . S
H568 C574 0.930 . S
H569 C577 0.930 . S
H570 C578 0.930 . S
H571 C579 0.930 . S
H572 C582 0.930 . S
H573 C583 0.930 . S
C574 H568 0.930 . S
C574 C575 1.355 . S
C574 C576 1.415 . S
C575 C574 1.355 . S
C575 C577 1.419 . S
C576 C574 1.415 . S
C576 C581 1.425 . S
C576 C583 1.409 . S
C577 H569 0.930 . S
C577 C575 1.419 . S
C577 C578 1.362 . S
C578 H570 0.930 . S
C578 C577 1.362 . S
C578 C581 1.409 . S
C579 H571 0.930 . S
C579 C580 1.355 . S
C579 C581 1.415 1_545 S
C580 C579 1.355 . S
C580 C582 1.419 . S
C581 C576 1.425 . S
C581 C578 1.409 . S
C581 C579 1.415 1_565 S
C582 H572 0.930 . S
C582 C580 1.419 . S
C582 C583 1.362 1_545 S
C583 H573 0.930 . S
C583 C576 1.409 . S
C583 C582 1.362 1_565 S
C271 C17 1.513 . S
C276 C50 1.487 . S
C287 C116 1.515 . S
C292 C83 1.534 . S
C303 C149 1.511 . S
C308 C182 1.535 . S
C319 C248 1.487 . S
C324 C215 1.507 . S
C335 C28 1.114 . S
C340 C160 1.114 . S
C351 C61 1.114 . S
C356 C193 1.114 . S
C367 C94 1.083 . S
C372 C226 1.083 . S
C383 C127 1.109 . S
C388 C259 1.109 . S
C399 C74 1.466 . S
C404 C8 1.431 . S
C415 C107 1.443 . S
C420 C41 1.477 . S
C431 C140 1.443 . S
C436 C206 1.477 . S
C447 C173 1.431 . S
C452 C239 1.465 . S
C463 N5 1.381 . S
C468 N14 1.379 . S
C479 N38 1.379 . S
C484 N47 1.380 . S
C495 N80 1.380 . S
C500 N71 1.384 . S
C511 N113 1.379 . S
C516 N104 1.378 . S
C527 N146 1.399 . S
C532 N137 1.403 . S
C543 N170 1.396 . S
C548 N179 1.391 . S
C559 N212 1.380 . S
C564 N203 1.384 . S
C575 N236 1.407 . S
C580 N245 1.407 . S
