# Generated by pormake.
# Topology umu, (4)-cn, num edge types: 1
# Building blocks:
#     Node 0, Type 0, BuildingBlock: NAHDIM_clean_sbu_0, # of connection points: 4
#     Node 1, Type 0, BuildingBlock: NAHDIM_clean_sbu_0, # of connection points: 4
#     Node 2, Type 0, BuildingBlock: NAHDIM_clean_sbu_0, # of connection points: 4
#     Node 3, Type 0, BuildingBlock: NAHDIM_clean_sbu_0, # of connection points: 4
#     Node 4, Type 0, BuildingBlock: NAHDIM_clean_sbu_0, # of connection points: 4
#     Node 5, Type 0, BuildingBlock: NAHDIM_clean_sbu_0, # of connection points: 4
#     Node 6, Type 0, BuildingBlock: NAHDIM_clean_sbu_0, # of connection points: 4
#     Node 7, Type 0, BuildingBlock: NAHDIM_clean_sbu_0, # of connection points: 4
#     Node 8, Type 0, BuildingBlock: NAHDIM_clean_sbu_0, # of connection points: 4
#     Node 9, Type 0, BuildingBlock: NAHDIM_clean_sbu_0, # of connection points: 4
#     Node 10, Type 0, BuildingBlock: NAHDIM_clean_sbu_0, # of connection points: 4
#     Node 11, Type 0, BuildingBlock: NAHDIM_clean_sbu_0, # of connection points: 4
#     Node 12, Type 0, BuildingBlock: NAHDIM_clean_sbu_0, # of connection points: 4
#     Node 13, Type 0, BuildingBlock: NAHDIM_clean_sbu_0, # of connection points: 4
#     Node 14, Type 0, BuildingBlock: NAHDIM_clean_sbu_0, # of connection points: 4
#     Node 15, Type 0, BuildingBlock: NAHDIM_clean_sbu_0, # of connection points: 4
#     Node 16, Type 0, BuildingBlock: NAHDIM_clean_sbu_0, # of connection points: 4
#     Node 17, Type 0, BuildingBlock: NAHDIM_clean_sbu_0, # of connection points: 4
#     Node 18, Type 0, BuildingBlock: NAHDIM_clean_sbu_0, # of connection points: 4
#     Node 19, Type 0, BuildingBlock: NAHDIM_clean_sbu_0, # of connection points: 4
#     Node 20, Type 0, BuildingBlock: NAHDIM_clean_sbu_0, # of connection points: 4
#     Node 21, Type 0, BuildingBlock: NAHDIM_clean_sbu_0, # of connection points: 4
#     Node 22, Type 0, BuildingBlock: NAHDIM_clean_sbu_0, # of connection points: 4
#     Node 23, Type 0, BuildingBlock: NAHDIM_clean_sbu_0, # of connection points: 4
#     Node 24, Type 0, BuildingBlock: NAHDIM_clean_sbu_0, # of connection points: 4
#     Node 25, Type 0, BuildingBlock: NAHDIM_clean_sbu_0, # of connection points: 4
#     Node 26, Type 0, BuildingBlock: NAHDIM_clean_sbu_0, # of connection points: 4
#     Node 27, Type 0, BuildingBlock: NAHDIM_clean_sbu_0, # of connection points: 4
#     Node 28, Type 0, BuildingBlock: NAHDIM_clean_sbu_0, # of connection points: 4
#     Node 29, Type 0, BuildingBlock: NAHDIM_clean_sbu_0, # of connection points: 4
#     Node 30, Type 0, BuildingBlock: NAHDIM_clean_sbu_0, # of connection points: 4
#     Node 31, Type 0, BuildingBlock: NAHDIM_clean_sbu_0, # of connection points: 4
#     Edge 32, Type (0, 0), BuildingBlock: EZIPEK_clean_linker_0, # of connection points: 2
#     Edge 33, Type (0, 0), BuildingBlock: EZIPEK_clean_linker_0, # of connection points: 2
#     Edge 34, Type (0, 0), BuildingBlock: EZIPEK_clean_linker_0, # of connection points: 2
#     Edge 35, Type (0, 0), BuildingBlock: EZIPEK_clean_linker_0, # of connection points: 2
#     Edge 36, Type (0, 0), BuildingBlock: EZIPEK_clean_linker_0, # of connection points: 2
#     Edge 37, Type (0, 0), BuildingBlock: EZIPEK_clean_linker_0, # of connection points: 2
#     Edge 38, Type (0, 0), BuildingBlock: EZIPEK_clean_linker_0, # of connection points: 2
#     Edge 39, Type (0, 0), BuildingBlock: EZIPEK_clean_linker_0, # of connection points: 2
#     Edge 40, Type (0, 0), BuildingBlock: EZIPEK_clean_linker_0, # of connection points: 2
#     Edge 41, Type (0, 0), BuildingBlock: EZIPEK_clean_linker_0, # of connection points: 2
#     Edge 42, Type (0, 0), BuildingBlock: EZIPEK_clean_linker_0, # of connection points: 2
#     Edge 43, Type (0, 0), BuildingBlock: EZIPEK_clean_linker_0, # of connection points: 2
#     Edge 44, Type (0, 0), BuildingBlock: EZIPEK_clean_linker_0, # of connection points: 2
#     Edge 45, Type (0, 0), BuildingBlock: EZIPEK_clean_linker_0, # of connection points: 2
#     Edge 46, Type (0, 0), BuildingBlock: EZIPEK_clean_linker_0, # of connection points: 2
#     Edge 47, Type (0, 0), BuildingBlock: EZIPEK_clean_linker_0, # of connection points: 2
#     Edge 48, Type (0, 0), BuildingBlock: EZIPEK_clean_linker_0, # of connection points: 2
#     Edge 49, Type (0, 0), BuildingBlock: EZIPEK_clean_linker_0, # of connection points: 2
#     Edge 50, Type (0, 0), BuildingBlock: EZIPEK_clean_linker_0, # of connection points: 2
#     Edge 51, Type (0, 0), BuildingBlock: EZIPEK_clean_linker_0, # of connection points: 2
#     Edge 52, Type (0, 0), BuildingBlock: EZIPEK_clean_linker_0, # of connection points: 2
#     Edge 53, Type (0, 0), BuildingBlock: EZIPEK_clean_linker_0, # of connection points: 2
#     Edge 54, Type (0, 0), BuildingBlock: EZIPEK_clean_linker_0, # of connection points: 2
#     Edge 55, Type (0, 0), BuildingBlock: EZIPEK_clean_linker_0, # of connection points: 2
#     Edge 56, Type (0, 0), BuildingBlock: EZIPEK_clean_linker_0, # of connection points: 2
#     Edge 57, Type (0, 0), BuildingBlock: EZIPEK_clean_linker_0, # of connection points: 2
#     Edge 58, Type (0, 0), BuildingBlock: EZIPEK_clean_linker_0, # of connection points: 2
#     Edge 59, Type (0, 0), BuildingBlock: EZIPEK_clean_linker_0, # of connection points: 2
#     Edge 60, Type (0, 0), BuildingBlock: EZIPEK_clean_linker_0, # of connection points: 2
#     Edge 61, Type (0, 0), BuildingBlock: EZIPEK_clean_linker_0, # of connection points: 2
#     Edge 62, Type (0, 0), BuildingBlock: EZIPEK_clean_linker_0, # of connection points: 2
#     Edge 63, Type (0, 0), BuildingBlock: EZIPEK_clean_linker_0, # of connection points: 2
#     Edge 64, Type (0, 0), BuildingBlock: EZIPEK_clean_linker_0, # of connection points: 2
#     Edge 65, Type (0, 0), BuildingBlock: EZIPEK_clean_linker_0, # of connection points: 2
#     Edge 66, Type (0, 0), BuildingBlock: EZIPEK_clean_linker_0, # of connection points: 2
#     Edge 67, Type (0, 0), BuildingBlock: EZIPEK_clean_linker_0, # of connection points: 2
#     Edge 68, Type (0, 0), BuildingBlock: EZIPEK_clean_linker_0, # of connection points: 2
#     Edge 69, Type (0, 0), BuildingBlock: EZIPEK_clean_linker_0, # of connection points: 2
#     Edge 70, Type (0, 0), BuildingBlock: EZIPEK_clean_linker_0, # of connection points: 2
#     Edge 71, Type (0, 0), BuildingBlock: EZIPEK_clean_linker_0, # of connection points: 2
#     Edge 72, Type (0, 0), BuildingBlock: EZIPEK_clean_linker_0, # of connection points: 2
#     Edge 73, Type (0, 0), BuildingBlock: EZIPEK_clean_linker_0, # of connection points: 2
#     Edge 74, Type (0, 0), BuildingBlock: EZIPEK_clean_linker_0, # of connection points: 2
#     Edge 75, Type (0, 0), BuildingBlock: EZIPEK_clean_linker_0, # of connection points: 2
#     Edge 76, Type (0, 0), BuildingBlock: EZIPEK_clean_linker_0, # of connection points: 2
#     Edge 77, Type (0, 0), BuildingBlock: EZIPEK_clean_linker_0, # of connection points: 2
#     Edge 78, Type (0, 0), BuildingBlock: EZIPEK_clean_linker_0, # of connection points: 2
#     Edge 79, Type (0, 0), BuildingBlock: EZIPEK_clean_linker_0, # of connection points: 2
#     Edge 80, Type (0, 0), BuildingBlock: EZIPEK_clean_linker_0, # of connection points: 2
#     Edge 81, Type (0, 0), BuildingBlock: EZIPEK_clean_linker_0, # of connection points: 2
#     Edge 82, Type (0, 0), BuildingBlock: EZIPEK_clean_linker_0, # of connection points: 2
#     Edge 83, Type (0, 0), BuildingBlock: EZIPEK_clean_linker_0, # of connection points: 2
#     Edge 84, Type (0, 0), BuildingBlock: EZIPEK_clean_linker_0, # of connection points: 2
#     Edge 85, Type (0, 0), BuildingBlock: EZIPEK_clean_linker_0, # of connection points: 2
#     Edge 86, Type (0, 0), BuildingBlock: EZIPEK_clean_linker_0, # of connection points: 2
#     Edge 87, Type (0, 0), BuildingBlock: EZIPEK_clean_linker_0, # of connection points: 2
#     Edge 88, Type (0, 0), BuildingBlock: EZIPEK_clean_linker_0, # of connection points: 2
#     Edge 89, Type (0, 0), BuildingBlock: EZIPEK_clean_linker_0, # of connection points: 2
#     Edge 90, Type (0, 0), BuildingBlock: EZIPEK_clean_linker_0, # of connection points: 2
#     Edge 91, Type (0, 0), BuildingBlock: EZIPEK_clean_linker_0, # of connection points: 2
#     Edge 92, Type (0, 0), BuildingBlock: EZIPEK_clean_linker_0, # of connection points: 2
#     Edge 93, Type (0, 0), BuildingBlock: EZIPEK_clean_linker_0, # of connection points: 2
#     Edge 94, Type (0, 0), BuildingBlock: EZIPEK_clean_linker_0, # of connection points: 2
#     Edge 95, Type (0, 0), BuildingBlock: EZIPEK_clean_linker_0, # of connection points: 2
# Relax obj value: 0.139
# Max RMSD: 0.103
# Mean RMSD: 0.103
data_MOF--net-umu--node1-NAHDIM_clean_sbu_0--edge1-EZIPEK_clean_linker_0
_symmetry_space_group_name_H-M    P1
_symmetry_Int_Tables_number       1
_symmetry_cell_setting            triclinic
loop_
_symmetry_equiv_pos_as_xyz
'x, y, z'
_cell_length_a     64.834006
_cell_length_b     64.760784
_cell_length_c     17.141095
_cell_angle_alpha  89.982465
_cell_angle_beta   89.995456
_cell_angle_gamma 90.031182
loop_
_atom_site_label
_atom_site_type_symbol
_atom_site_fract_x
_atom_site_fract_y
_atom_site_fract_z
_atom_type_partial_charge
C0 C 0.17836 0.12647 0.9796 0.0
O1 O 0.19756 0.1258 0.95529 0.0
O2 O 0.20775 0.15813 0.14774 0.0
Zn3 Zn 0.1925 0.16407 0.04794 0.0
O4 O 0.21317 0.16583 0.96068 0.0
C5 C 0.18623 0.2054 0.10004 0.0
O6 O 0.20199 0.20049 0.14441 0.0
O7 O 0.17236 0.1414 0.0221 0.0
C8 C 0.22732 0.17937 0.95662 0.0
O9 O 0.22897 0.19348 0.01121 0.0
C10 C 0.21924 0.14259 0.16038 0.0
O11 O 0.22116 0.12817 0.10707 0.0
O12 O 0.17824 0.19175 0.05613 0.0
C13 C 0.12382 0.91894 0.28616 0.0
O14 O 0.13097 0.93577 0.3193 0.0
O15 O 0.09531 0.95203 0.41744 0.0
Zn16 Zn 0.08532 0.93816 0.31871 0.0
O17 O 0.08363 0.95845 0.23061 0.0
C18 C 0.0432 0.94092 0.34891 0.0
O19 O 0.04897 0.96026 0.35556 0.0
O20 O 0.1045 0.91591 0.28294 0.0
C21 C 0.07894 0.95152 0.16365 0.0
O22 O 0.07555 0.93168 0.15419 0.0
C23 C 0.09735 0.97154 0.42108 0.0
O24 O 0.09399 0.98281 0.3587 0.0
O25 O 0.05663 0.92715 0.33494 0.0
C26 C 0.31568 0.87382 0.49668 0.0
O27 O 0.29608 0.87732 0.483 0.0
O28 O 0.28347 0.8434 0.65249 0.0
Zn29 Zn 0.29933 0.83618 0.55491 0.0
O30 O 0.28009 0.8337 0.463 0.0
C31 C 0.29961 0.79334 0.57024 0.0
O32 O 0.27983 0.79714 0.56248 0.0
O33 O 0.32112 0.8572 0.53012 0.0
C34 C 0.28738 0.8277 0.39811 0.0
O35 O 0.30717 0.82374 0.39168 0.0
C36 C 0.26457 0.84867 0.65188 0.0
O37 O 0.25489 0.85085 0.58511 0.0
O38 O 0.31232 0.80826 0.57058 0.0
C39 C 0.3739 0.07167 0.7545 0.0
O40 O 0.36882 0.05206 0.75552 0.0
O41 O 0.40067 0.04175 0.91822 0.0
Zn42 Zn 0.41052 0.05513 0.8184 0.0
O43 O 0.4126 0.03378 0.73335 0.0
C44 C 0.45301 0.05335 0.84501 0.0
O45 O 0.44806 0.0337 0.84617 0.0
O46 O 0.3912 0.07732 0.78182 0.0
C47 C 0.41882 0.03924 0.66628 0.0
O48 O 0.42387 0.05858 0.65345 0.0
C49 C 0.39678 0.02251 0.92113 0.0
O50 O 0.39779 0.01138 0.85725 0.0
O51 O 0.43899 0.06678 0.83519 0.0
C52 C 0.17899 0.86271 0.12958 0.0
O53 O 0.19881 0.86571 0.14022 0.0
O54 O 0.20695 0.83406 0.95303 0.0
Zn55 Zn 0.19409 0.82652 0.05638 0.0
O56 O 0.21622 0.82623 0.13841 0.0
C57 C 0.19053 0.7849 0.00479 0.0
O58 O 0.20538 0.79103 0.95811 0.0
O59 O 0.17277 0.84699 0.09193 0.0
C60 C 0.23135 0.81382 0.14191 0.0
O61 O 0.23359 0.79945 0.08858 0.0
C62 C 0.21791 0.84996 0.93957 0.0
O63 O 0.22049 0.86394 0.99413 0.0
O64 O 0.18204 0.79785 0.05024 0.0
C65 C 0.37534 0.93276 0.38349 0.0
O66 O 0.37436 0.95186 0.40889 0.0
O67 O 0.40566 0.96432 0.21552 0.0
Zn68 Zn 0.41194 0.94811 0.31265 0.0
O69 O 0.41379 0.96781 0.40276 0.0
C70 C 0.45361 0.94394 0.26544 0.0
O71 O 0.44892 0.96082 0.22689 0.0
O72 O 0.38991 0.92736 0.3382 0.0
C73 C 0.42597 0.98315 0.40641 0.0
O74 O 0.43883 0.98689 0.34904 0.0
C75 C 0.38933 0.97461 0.20263 0.0
O76 O 0.3743 0.9746 0.25393 0.0
O77 O 0.43959 0.93433 0.30231 0.0
C78 C 0.31643 0.12719 0.6072 0.0
O79 O 0.29692 0.12176 0.60868 0.0
O80 O 0.28477 0.15449 0.44759 0.0
Zn81 Zn 0.29879 0.16375 0.54689 0.0
O82 O 0.27842 0.16501 0.63538 0.0
C83 C 0.29583 0.20643 0.52787 0.0
O84 O 0.27634 0.20101 0.53149 0.0
O85 O 0.32155 0.14463 0.57952 0.0
C86 C 0.28436 0.17289 0.69936 0.0
O87 O 0.30332 0.17976 0.70621 0.0
C88 C 0.26607 0.1485 0.44627 0.0
O89 O 0.25575 0.1468 0.51186 0.0
O90 O 0.30968 0.1926 0.53107 0.0
C91 C 0.12202 0.06213 0.88378 0.0
O92 O 0.12418 0.04337 0.9117 0.0
O93 O 0.09137 0.02869 0.71883 0.0
Zn94 Zn 0.08555 0.04455 0.81731 0.0
O95 O 0.08504 0.02445 0.9068 0.0
C96 C 0.04377 0.04884 0.76776 0.0
O97 O 0.04882 0.03272 0.72545 0.0
O98 O 0.1069 0.06629 0.83931 0.0
C99 C 0.07292 0.00903 0.9077 0.0
O100 O 0.06005 0.00603 0.84974 0.0
C101 C 0.10773 0.0188 0.70268 0.0
O102 O 0.12338 0.01898 0.75129 0.0
O103 O 0.05742 0.05762 0.80936 0.0
C104 C 0.82532 0.87619 0.05832 0.0
O105 O 0.808 0.88193 0.02497 0.0
O106 O 0.79448 0.84384 0.9279 0.0
Zn107 Zn 0.80933 0.83596 0.02743 0.0
O108 O 0.78962 0.83265 0.117 0.0
C109 C 0.80863 0.79392 0.00786 0.0
O110 O 0.78905 0.79905 0.0073 0.0
O111 O 0.82997 0.85717 0.06139 0.0
C112 C 0.79745 0.82905 0.18361 0.0
O113 O 0.81757 0.82816 0.19145 0.0
C114 C 0.77558 0.84909 0.92656 0.0
O115 O 0.76531 0.85077 0.99227 0.0
O116 O 0.82221 0.80799 0.01312 0.0
C117 C 0.87523 0.07395 0.8273 0.0
O118 O 0.86848 0.05746 0.79077 0.0
O119 O 0.90664 0.04005 0.70307 0.0
Zn120 Zn 0.91485 0.05572 0.79954 0.0
O121 O 0.91758 0.03566 0.88708 0.0
C122 C 0.95643 0.05403 0.76862 0.0
O123 O 0.95055 0.03479 0.75914 0.0
O124 O 0.89448 0.07702 0.83394 0.0
C125 C 0.92075 0.04246 0.95538 0.0
O126 O 0.92198 0.06244 0.96759 0.0
C127 C 0.89791 0.02253 0.70841 0.0
O128 O 0.89225 0.01547 0.77698 0.0
O129 O 0.94305 0.06773 0.78425 0.0
C130 C 0.67271 0.12793 0.60947 0.0
O131 O 0.6923 0.12624 0.62774 0.0
O132 O 0.70033 0.16141 0.43848 0.0
Zn133 Zn 0.68727 0.16549 0.5446 0.0
O134 O 0.70868 0.16546 0.63072 0.0
C135 C 0.68694 0.20835 0.54112 0.0
O136 O 0.70662 0.20417 0.534 0.0
O137 O 0.66652 0.14342 0.57037 0.0
C138 C 0.72802 0.16784 0.62294 0.0
O139 O 0.73613 0.17066 0.55374 0.0
C140 C 0.71442 0.14825 0.42512 0.0
O141 O 0.71933 0.13476 0.47925 0.0
O142 O 0.67402 0.19366 0.54608 0.0
C143 C 0.62205 0.92197 0.35057 0.0
O144 O 0.6297 0.9386 0.31768 0.0
O145 O 0.59055 0.95465 0.21193 0.0
Zn146 Zn 0.58272 0.94011 0.31108 0.0
O147 O 0.58066 0.96152 0.39404 0.0
C148 C 0.54102 0.94073 0.27367 0.0
O149 O 0.54679 0.95941 0.25328 0.0
O150 O 0.60272 0.91884 0.34941 0.0
C151 C 0.57629 0.95582 0.46282 0.0
O152 O 0.57352 0.93614 0.47804 0.0
C153 C 0.60101 0.97123 0.2142 0.0
O154 O 0.60928 0.97734 0.28022 0.0
O155 O 0.55434 0.92812 0.29959 0.0
C156 C 0.81664 0.12774 0.97877 0.0
O157 O 0.79724 0.12242 0.9697 0.0
O158 O 0.78294 0.15371 0.14226 0.0
Zn159 Zn 0.79722 0.16276 0.04318 0.0
O160 O 0.77713 0.16199 0.95409 0.0
C161 C 0.7922 0.20553 0.06357 0.0
O162 O 0.77293 0.19935 0.06442 0.0
O163 O 0.82103 0.14443 0.01401 0.0
C164 C 0.78242 0.16917 0.88827 0.0
O165 O 0.80096 0.17691 0.87872 0.0
C166 C 0.7634 0.15186 0.14333 0.0
O167 O 0.75284 0.15402 0.07858 0.0
O168 O 0.80652 0.19233 0.05543 0.0
C169 C 0.61784 0.06681 0.73921 0.0
O170 O 0.62149 0.04741 0.7219 0.0
O171 O 0.59276 0.03691 0.91897 0.0
Zn172 Zn 0.5832 0.04884 0.81588 0.0
O173 O 0.58424 0.02684 0.73193 0.0
C174 C 0.54019 0.05071 0.86057 0.0
O175 O 0.5449 0.03378 0.89868 0.0
O176 O 0.60239 0.07147 0.78135 0.0
C177 C 0.56925 0.01551 0.71093 0.0
O178 O 0.55119 0.0175 0.74454 0.0
C179 C 0.58896 0.01809 0.93441 0.0
O180 O 0.57891 0.00673 0.88383 0.0
O181 O 0.55424 0.06042 0.82414 0.0
C182 C 0.67337 0.86551 0.52512 0.0
O183 O 0.67471 0.86529 0.60158 0.0
O184 O 0.71652 0.83968 0.62832 0.0
Zn185 Zn 0.70434 0.83245 0.52406 0.0
O186 O 0.72716 0.83212 0.44511 0.0
C187 C 0.69786 0.79133 0.5795 0.0
O188 O 0.71264 0.7968 0.62761 0.0
O189 O 0.68409 0.85314 0.48468 0.0
C190 C 0.73997 0.81751 0.43607 0.0
O191 O 0.73902 0.80106 0.48071 0.0
C192 C 0.72923 0.85433 0.63908 0.0
O193 O 0.73366 0.86697 0.58156 0.0
O194 O 0.69104 0.80432 0.53027 0.0
C195 C 0.87709 0.93297 0.22934 0.0
O196 O 0.87191 0.95252 0.23473 0.0
O197 O 0.90279 0.95924 0.40389 0.0
Zn198 Zn 0.91327 0.94841 0.30031 0.0
O199 O 0.9133 0.9713 0.22001 0.0
C200 C 0.9557 0.94495 0.3521 0.0
O201 O 0.95071 0.96096 0.39497 0.0
O202 O 0.8942 0.92688 0.25718 0.0
C203 C 0.92848 0.98295 0.20398 0.0
O204 O 0.94596 0.98089 0.24175 0.0
C205 C 0.9073 0.97762 0.42364 0.0
O206 O 0.9182 0.98921 0.37639 0.0
O207 O 0.94199 0.9363 0.31037 0.0
C208 C 0.65787 0.64071 0.55004 0.0
O209 O 0.65045 0.65412 0.60017 0.0
O210 O 0.70704 0.65394 0.67812 0.0
Zn211 Zn 0.6968 0.66227 0.57105 0.0
O212 O 0.72039 0.66245 0.49363 0.0
C213 C 0.69049 0.70512 0.61158 0.0
O214 O 0.7058 0.70141 0.65962 0.0
O215 O 0.67677 0.64133 0.53098 0.0
C216 C 0.73041 0.67859 0.47495 0.0
O217 O 0.72602 0.69633 0.50791 0.0
C218 C 0.72519 0.65902 0.69849 0.0
O219 O 0.73677 0.66979 0.65078 0.0
O220 O 0.68324 0.69039 0.57126 0.0
C221 C 0.62077 0.43289 0.74354 0.0
O222 O 0.62302 0.45256 0.72697 0.0
O223 O 0.59113 0.46356 0.90922 0.0
Zn224 Zn 0.584 0.44827 0.81102 0.0
O225 O 0.58236 0.46909 0.72463 0.0
C226 C 0.54228 0.44917 0.84949 0.0
O227 O 0.5482 0.46808 0.86584 0.0
O228 O 0.60512 0.42691 0.78213 0.0
C229 C 0.57105 0.46606 0.66531 0.0
O230 O 0.56052 0.44879 0.6593 0.0
C231 C 0.60186 0.47997 0.9077 0.0
O232 O 0.61074 0.48582 0.84246 0.0
O233 O 0.55548 0.43628 0.8244 0.0
C234 C 0.82815 0.37173 0.01438 0.0
O235 O 0.8111 0.38086 0.0372 0.0
O236 O 0.79132 0.34634 0.15074 0.0
Zn237 Zn 0.80456 0.33634 0.05086 0.0
O238 O 0.78497 0.3397 0.96155 0.0
C239 C 0.79574 0.29393 0.07239 0.0
O240 O 0.77718 0.3017 0.08041 0.0
O241 O 0.82972 0.35226 0.02017 0.0
C242 C 0.78976 0.33106 0.8977 0.0
O243 O 0.80723 0.32089 0.89232 0.0
C244 C 0.77178 0.3481 0.15347 0.0
O245 O 0.76081 0.34508 0.0902 0.0
O246 O 0.81091 0.3059 0.05982 0.0
C247 C 0.87931 0.57465 0.27356 0.0
O248 O 0.88748 0.58001 0.34066 0.0
O249 O 0.90872 0.52904 0.37242 0.0
Zn250 Zn 0.91109 0.54306 0.26793 0.0
O251 O 0.91581 0.52224 0.18369 0.0
C252 C 0.94405 0.56898 0.32878 0.0
O253 O 0.93525 0.5651 0.39621 0.0
O254 O 0.88646 0.55939 0.2361 0.0
C255 C 0.93354 0.51442 0.1734 0.0
O256 O 0.94869 0.51903 0.22119 0.0
C257 C 0.90057 0.51132 0.37958 0.0
O258 O 0.89197 0.50246 0.31885 0.0
O259 O 0.93599 0.56127 0.26789 0.0
C260 C 0.68039 0.37464 0.62486 0.0
O261 O 0.69951 0.37562 0.64972 0.0
O262 O 0.70792 0.34155 0.44686 0.0
Zn263 Zn 0.69507 0.3376 0.5533 0.0
O264 O 0.71688 0.33698 0.63793 0.0
C265 C 0.69178 0.29432 0.54807 0.0
O266 O 0.71179 0.29661 0.54159 0.0
O267 O 0.67487 0.36006 0.5798 0.0
C268 C 0.73577 0.33213 0.63015 0.0
O269 O 0.743 0.32664 0.56182 0.0
C270 C 0.72323 0.35345 0.43565 0.0
O271 O 0.72959 0.36546 0.49249 0.0
O272 O 0.68034 0.31013 0.5542 0.0
C273 C 0.88807 0.42075 0.84817 0.0
O274 O 0.8831 0.44034 0.84207 0.0
O275 O 0.91074 0.451 0.68805 0.0
Zn276 Zn 0.92333 0.43757 0.78243 0.0
O277 O 0.92519 0.4581 0.86976 0.0
C278 C 0.95814 0.4163 0.7041 0.0
O279 O 0.94466 0.40699 0.65906 0.0
O280 O 0.90538 0.41461 0.82221 0.0
C281 C 0.94203 0.46571 0.89455 0.0
O282 O 0.95954 0.46093 0.86061 0.0
C283 C 0.91877 0.4678 0.66479 0.0
O284 O 0.93422 0.47588 0.70377 0.0
O285 O 0.95215 0.42863 0.75694 0.0
C286 C 0.81929 0.62586 0.11766 0.0
O287 O 0.80067 0.6195 0.09943 0.0
O288 O 0.78692 0.65796 0.97848 0.0
Zn289 Zn 0.80332 0.66558 0.07358 0.0
O290 O 0.78384 0.6689 0.16245 0.0
C291 C 0.804 0.707 0.03099 0.0
O292 O 0.78472 0.70206 0.01662 0.0
O293 O 0.82428 0.64458 0.10621 0.0
C294 C 0.79079 0.67412 0.22873 0.0
O295 O 0.81062 0.67755 0.23779 0.0
C296 C 0.76982 0.64845 0.98328 0.0
O297 O 0.76366 0.64099 0.05064 0.0
O298 O 0.81637 0.69324 0.05534 0.0
C299 C 0.61171 0.57637 0.39681 0.0
O300 O 0.61729 0.55735 0.41293 0.0
O301 O 0.59598 0.54358 0.21032 0.0
Zn302 Zn 0.58218 0.55491 0.30579 0.0
O303 O 0.5817 0.53252 0.38669 0.0
C304 C 0.54586 0.57911 0.25859 0.0
O305 O 0.55826 0.59506 0.2518 0.0
O306 O 0.59691 0.57956 0.34979 0.0
C307 C 0.56673 0.53083 0.43405 0.0
O308 O 0.55124 0.54386 0.43035 0.0
C309 C 0.58668 0.52808 0.1817 0.0
O310 O 0.56982 0.52122 0.21534 0.0
O311 O 0.5529 0.56164 0.27886 0.0
C312 C 0.31494 0.37171 0.62898 0.0
O313 O 0.29608 0.37557 0.6526 0.0
O314 O 0.28009 0.34304 0.46379 0.0
Zn315 Zn 0.29534 0.33622 0.56239 0.0
O316 O 0.27468 0.33557 0.64971 0.0
C317 C 0.29295 0.29402 0.53182 0.0
O318 O 0.27396 0.29987 0.51684 0.0
O319 O 0.31849 0.35596 0.58698 0.0
C320 C 0.2799 0.32949 0.71722 0.0
O321 O 0.29905 0.32403 0.73095 0.0
C322 C 0.26442 0.35478 0.46386 0.0
O323 O 0.25928 0.36477 0.52764 0.0
O324 O 0.30625 0.30742 0.55172 0.0
C325 C 0.38695 0.5691 0.37224 0.0
O326 O 0.38396 0.54982 0.3931 0.0
O327 O 0.41669 0.53649 0.20595 0.0
Zn328 Zn 0.42303 0.5515 0.30601 0.0
O329 O 0.42248 0.5312 0.39387 0.0
C330 C 0.45834 0.57138 0.23675 0.0
O331 O 0.44605 0.57377 0.17651 0.0
O332 O 0.4026 0.57381 0.33122 0.0
C333 C 0.43195 0.51408 0.39135 0.0
O334 O 0.44312 0.50935 0.32997 0.0
C335 C 0.40047 0.52593 0.19431 0.0
O336 O 0.38596 0.52522 0.24761 0.0
O337 O 0.45162 0.563 0.29872 0.0
C338 C 0.16011 0.6351 0.06338 0.0
O339 O 0.15271 0.65059 0.02263 0.0
O340 O 0.21209 0.64672 0.93613 0.0
Zn341 Zn 0.19961 0.65508 0.03988 0.0
O342 O 0.22162 0.65591 0.12335 0.0
C343 C 0.19345 0.69769 0.99544 0.0
O344 O 0.21002 0.69429 0.95346 0.0
O345 O 0.17935 0.63375 0.07571 0.0
C346 C 0.23166 0.67199 0.14254 0.0
O347 O 0.22816 0.68954 0.10672 0.0
C348 C 0.23042 0.65219 0.91975 0.0
O349 O 0.241 0.66322 0.96985 0.0
O350 O 0.18548 0.68291 0.03365 0.0
C351 C 0.11223 0.42923 0.85816 0.0
O352 O 0.11411 0.44845 0.8814 0.0
O353 O 0.08901 0.46153 0.6788 0.0
Zn354 Zn 0.07874 0.4469 0.77531 0.0
O355 O 0.07587 0.46691 0.86445 0.0
C356 C 0.04571 0.42301 0.69952 0.0
O357 O 0.05989 0.41609 0.65148 0.0
O358 O 0.09817 0.42444 0.8097 0.0
C359 C 0.05887 0.4752 0.88374 0.0
O360 O 0.0421 0.47153 0.84309 0.0
C361 C 0.07974 0.47799 0.65886 0.0
O362 O 0.06466 0.48508 0.70225 0.0
O363 O 0.05057 0.4354 0.75387 0.0
C364 C 0.32737 0.62858 0.47963 0.0
O365 O 0.30838 0.62462 0.45784 0.0
O366 O 0.29247 0.65644 0.64091 0.0
Zn367 Zn 0.30776 0.66404 0.54335 0.0
O368 O 0.28732 0.66401 0.45555 0.0
C369 C 0.3035 0.70593 0.57178 0.0
O370 O 0.28473 0.69908 0.58461 0.0
O371 O 0.3312 0.64464 0.51954 0.0
C372 C 0.2927 0.66934 0.38732 0.0
O373 O 0.31189 0.67464 0.37331 0.0
C374 C 0.27778 0.64347 0.64002 0.0
O375 O 0.2737 0.63307 0.57609 0.0
O376 O 0.31767 0.69321 0.55432 0.0
C377 C 0.10767 0.57302 0.20137 0.0
O378 O 0.10996 0.55374 0.17924 0.0
O379 O 0.07764 0.54098 0.37021 0.0
Zn380 Zn 0.07147 0.55632 0.27017 0.0
O381 O 0.0703 0.53708 0.17755 0.0
C382 C 0.02973 0.56157 0.32036 0.0
O383 O 0.03379 0.5446 0.35937 0.0
O384 O 0.09265 0.57793 0.24521 0.0
C385 C 0.05705 0.52287 0.16793 0.0
O386 O 0.043 0.5194 0.22147 0.0
C387 C 0.08665 0.52358 0.37141 0.0
O388 O 0.09354 0.51552 0.30617 0.0
O389 O 0.04379 0.57003 0.27981 0.0
C390 C 0.16916 0.37135 0.99573 0.0
O391 O 0.1888 0.37497 0.98275 0.0
O392 O 0.19849 0.34506 0.1705 0.0
Zn393 Zn 0.18611 0.33571 0.06762 0.0
O394 O 0.20783 0.33642 0.98242 0.0
C395 C 0.18378 0.29266 0.11092 0.0
O396 O 0.20062 0.29722 0.14974 0.0
O397 O 0.16382 0.35538 0.03383 0.0
C398 C 0.21925 0.32143 0.96195 0.0
O399 O 0.21752 0.3035 0.997 0.0
C400 C 0.21732 0.34125 0.18555 0.0
O401 O 0.22857 0.33117 0.13471 0.0
O402 O 0.17414 0.30689 0.0753 0.0
C403 C 0.37718 0.4272 0.7455 0.0
O404 O 0.37235 0.44687 0.74284 0.0
O405 O 0.40291 0.45933 0.90042 0.0
Zn406 Zn 0.4135 0.44487 0.80401 0.0
O407 O 0.41442 0.46515 0.71583 0.0
C408 C 0.4543 0.43769 0.87426 0.0
O409 O 0.44594 0.44326 0.94067 0.0
O410 O 0.39459 0.42176 0.77257 0.0
C411 C 0.42086 0.4583 0.65083 0.0
O412 O 0.42557 0.43866 0.64391 0.0
C413 C 0.41146 0.47613 0.92106 0.0
O414 O 0.42648 0.48372 0.87844 0.0
O415 O 0.4431 0.43564 0.81398 0.0
C416 C 0.13838 0.08357 0.98856 0.0
C417 C 0.13637 0.07867 0.90818 0.0
C418 C 0.16001 0.1068 0.87464 0.0
C419 C 0.16371 0.11021 0.95526 0.0
N420 N 0.15936 0.09939 0.08902 0.0
N421 N 0.14791 0.08309 0.77538 0.0
C422 C 0.15369 0.09794 0.01237 0.0
C423 C 0.1479 0.0896 0.85127 0.0
N424 N 0.12511 0.07519 0.04191 0.0
N425 N 0.16738 0.12044 0.82048 0.0
H426 H 0.13944 0.07038 0.7561 0.0
H427 H 0.15776 0.08909 0.73305 0.0
H428 H 0.17596 0.1335 0.83526 0.0
H429 H 0.16333 0.11994 0.76171 0.0
H430 H 0.12447 0.07992 0.09995 0.0
H431 H 0.11335 0.06496 0.02681 0.0
H432 H 0.15418 0.08922 0.13186 0.0
H433 H 0.17072 0.10953 0.1088 0.0
C434 C 0.14902 0.91122 0.1792 0.0
C435 C 0.13797 0.90449 0.24626 0.0
C436 C 0.15398 0.87028 0.23674 0.0
C437 C 0.16411 0.87669 0.16749 0.0
N438 N 0.16943 0.90176 0.06582 0.0
N439 N 0.128 0.87732 0.335 0.0
C440 C 0.16118 0.89678 0.13689 0.0
C441 C 0.1398 0.88388 0.27362 0.0
N442 N 0.14794 0.9314 0.15601 0.0
N443 N 0.15866 0.85154 0.26917 0.0
H444 H 0.1186 0.88716 0.36745 0.0
H445 H 0.12661 0.86191 0.35147 0.0
H446 H 0.16876 0.84103 0.24338 0.0
H447 H 0.15373 0.84689 0.32421 0.0
H448 H 0.15753 0.93788 0.1139 0.0
H449 H 0.13812 0.94219 0.18149 0.0
H450 H 0.16608 0.9153 0.03571 0.0
H451 H 0.17848 0.89155 0.03351 0.0
C452 C 0.34753 0.90673 0.35873 0.0
C453 C 0.36041 0.91731 0.41224 0.0
C454 C 0.34317 0.90015 0.52181 0.0
C455 C 0.33142 0.88844 0.468 0.0
N456 N 0.3255 0.87717 0.33576 0.0
N457 N 0.37355 0.92115 0.54331 0.0
C458 C 0.33445 0.89076 0.3865 0.0
C459 C 0.35908 0.91323 0.49352 0.0
N460 N 0.34719 0.91244 0.28193 0.0
N461 N 0.33872 0.89924 0.59972 0.0
H462 H 0.38575 0.93044 0.52473 0.0
H463 H 0.37463 0.91696 0.60182 0.0
H464 H 0.32729 0.88966 0.62269 0.0
H465 H 0.34518 0.90917 0.64079 0.0
H466 H 0.33647 0.90679 0.24203 0.0
H467 H 0.35641 0.92422 0.2594 0.0
H468 H 0.32878 0.87682 0.27629 0.0
H469 H 0.31639 0.86485 0.35428 0.0
C470 C 0.34971 0.10173 0.76185 0.0
C471 C 0.36019 0.0868 0.71633 0.0
C472 C 0.3417 0.09814 0.5992 0.0
C473 C 0.33205 0.11378 0.64384 0.0
N474 N 0.3293 0.13306 0.76377 0.0
N475 N 0.36988 0.07373 0.58985 0.0
C476 C 0.33683 0.11639 0.72407 0.0
C477 C 0.35722 0.0858 0.63438 0.0
N478 N 0.35143 0.10138 0.84136 0.0
N479 N 0.33581 0.09489 0.52361 0.0
H480 H 0.38197 0.06519 0.61354 0.0
H481 H 0.36981 0.07377 0.52912 0.0
H482 H 0.32497 0.10412 0.49514 0.0
H483 H 0.34056 0.08221 0.49084 0.0
H484 H 0.34235 0.1103 0.8784 0.0
H485 H 0.3609 0.091 0.87102 0.0
H486 H 0.33393 0.13706 0.81992 0.0
H487 H 0.31961 0.14393 0.73815 0.0
C488 C 0.85866 0.89538 0.07373 0.0
C489 C 0.83828 0.89143 0.09999 0.0
C490 C 0.84392 0.91363 0.21409 0.0
C491 C 0.86381 0.91854 0.18528 0.0
N492 N 0.88894 0.91728 0.08159 0.0
N493 N 0.81036 0.89853 0.18962 0.0
C494 C 0.87092 0.91023 0.11354 0.0
C495 C 0.83052 0.90119 0.16828 0.0
N496 N 0.8663 0.88493 0.01073 0.0
N497 N 0.83824 0.92004 0.28706 0.0
H498 H 0.80033 0.8884 0.16154 0.0
H499 H 0.80313 0.90723 0.23271 0.0
H500 H 0.84769 0.92913 0.3224 0.0
H501 H 0.82497 0.91502 0.31548 0.0
H502 H 0.88179 0.88512 0.99474 0.0
H503 H 0.85737 0.87505 0.97657 0.0
H504 H 0.89386 0.91358 0.0255 0.0
H505 H 0.89828 0.9283 0.10848 0.0
C506 C 0.85951 0.10899 0.84432 0.0
C507 C 0.86063 0.08795 0.86721 0.0
C508 C 0.83553 0.09421 0.97187 0.0
C509 C 0.83304 0.11471 0.94447 0.0
N510 N 0.84131 0.14157 0.85197 0.0
N511 N 0.84954 0.05997 0.95062 0.0
C512 C 0.84485 0.12218 0.88057 0.0
C513 C 0.84854 0.08038 0.93027 0.0
N514 N 0.87245 0.11634 0.78766 0.0
N515 N 0.82615 0.08832 0.03987 0.0
H516 H 0.86013 0.04966 0.92673 0.0
H517 H 0.83927 0.05288 0.98884 0.0
H518 H 0.8168 0.09821 0.0724 0.0
H519 H 0.82892 0.07436 0.06799 0.0
H520 H 0.87445 0.13196 0.77556 0.0
H521 H 0.88214 0.10689 0.7548 0.0
H522 H 0.84722 0.14701 0.7994 0.0
H523 H 0.83137 0.15203 0.87847 0.0
C524 C 0.65494 0.11209 0.72403 0.0
C525 C 0.65774 0.11307 0.64199 0.0
C526 C 0.63208 0.08576 0.62393 0.0
C527 C 0.63109 0.08318 0.70612 0.0
N528 N 0.64353 0.09181 0.8347 0.0
N529 N 0.65111 0.09942 0.51359 0.0
C530 C 0.64297 0.09584 0.7564 0.0
C531 C 0.64683 0.09958 0.59171 0.0
N532 N 0.66319 0.12708 0.7708 0.0
N533 N 0.61844 0.07553 0.57688 0.0
H534 H 0.66171 0.10945 0.4878 0.0
H535 H 0.64541 0.08832 0.4753 0.0
H536 H 0.60723 0.06547 0.5984 0.0
H537 H 0.61697 0.0784 0.51737 0.0
H538 H 0.65985 0.12844 0.83 0.0
H539 H 0.67189 0.13938 0.74918 0.0
H540 H 0.65372 0.099 0.87298 0.0
H541 H 0.635 0.08001 0.86072 0.0
C542 C 0.64841 0.9154 0.45537 0.0
C543 C 0.63551 0.9077 0.39492 0.0
C544 C 0.64478 0.87232 0.43082 0.0
C545 C 0.65952 0.88011 0.48446 0.0
N546 N 0.67817 0.90922 0.53724 0.0
N547 N 0.62447 0.87902 0.31519 0.0
C548 C 0.66211 0.9017 0.49407 0.0
C549 C 0.63451 0.88619 0.3799 0.0
N550 N 0.64702 0.93556 0.47844 0.0
N551 N 0.64009 0.85174 0.43022 0.0
H552 H 0.61731 0.88874 0.27493 0.0
H553 H 0.62506 0.86367 0.2972 0.0
H554 H 0.64688 0.84114 0.46822 0.0
H555 H 0.62799 0.84554 0.39779 0.0
H556 H 0.6544 0.94129 0.5279 0.0
H557 H 0.63692 0.94614 0.45323 0.0
H558 H 0.6821 0.92482 0.53879 0.0
H559 H 0.68878 0.89978 0.56577 0.0
C560 C 0.64178 0.62606 0.42985 0.0
C561 C 0.64423 0.62545 0.51207 0.0
C562 C 0.62212 0.59485 0.51881 0.0
C563 C 0.62208 0.59385 0.43606 0.0
N564 N 0.63408 0.60692 0.31213 0.0
N565 N 0.63884 0.60806 0.63491 0.0
C566 C 0.63237 0.60911 0.39122 0.0
C567 C 0.63485 0.60961 0.5568 0.0
N568 N 0.648 0.6431 0.38896 0.0
N569 N 0.60949 0.58215 0.56102 0.0
H570 H 0.64803 0.61861 0.66503 0.0
H571 H 0.6344 0.59545 0.66866 0.0
H572 H 0.59967 0.57139 0.53517 0.0
H573 H 0.60726 0.58361 0.62094 0.0
H574 H 0.64471 0.64535 0.3301 0.0
H575 H 0.6547 0.65595 0.41553 0.0
H576 H 0.64338 0.61633 0.27763 0.0
H577 H 0.62765 0.59459 0.28149 0.0
C578 C 0.64728 0.40537 0.76591 0.0
C579 C 0.63579 0.41772 0.71325 0.0
C580 C 0.65471 0.40291 0.60278 0.0
C581 C 0.66493 0.38936 0.65491 0.0
N582 N 0.6682 0.37478 0.784 0.0
N583 N 0.62569 0.4257 0.58106 0.0
C584 C 0.66047 0.38977 0.73599 0.0
C585 C 0.63871 0.41581 0.63145 0.0
N586 N 0.64622 0.40907 0.84435 0.0
N587 N 0.66079 0.40399 0.52648 0.0
H588 H 0.61363 0.43509 0.5998 0.0
H589 H 0.62563 0.42313 0.52109 0.0
H590 H 0.67249 0.39479 0.50334 0.0
H591 H 0.65549 0.41519 0.48777 0.0
H592 H 0.65597 0.40212 0.88483 0.0
H593 H 0.63684 0.42048 0.86857 0.0
H594 H 0.66368 0.373 0.84192 0.0
H595 H 0.67769 0.36288 0.76425 0.0
C596 C 0.87866 0.39838 0.9623 0.0
C597 C 0.87372 0.40639 0.88748 0.0
C598 C 0.83885 0.39198 0.89662 0.0
C599 C 0.84395 0.38346 0.97063 0.0
N600 N 0.86928 0.37577 0.06951 0.0
N601 N 0.85101 0.40774 0.77657 0.0
C602 C 0.8641 0.3857 0.00187 0.0
C603 C 0.85431 0.40235 0.85276 0.0
N604 N 0.89684 0.4038 0.99724 0.0
N605 N 0.8192 0.39024 0.86828 0.0
H606 H 0.86213 0.41516 0.74258 0.0
H607 H 0.83808 0.40333 0.74468 0.0
H608 H 0.8078 0.38133 0.89487 0.0
H609 H 0.81379 0.39836 0.82005 0.0
H610 H 0.90032 0.4007 0.05534 0.0
H611 H 0.90808 0.41264 0.9695 0.0
H612 H 0.88431 0.3747 0.09042 0.0
H613 H 0.8587 0.36743 0.10284 0.0
C614 C 0.85416 0.60951 0.124 0.0
C615 C 0.83412 0.61177 0.15604 0.0
C616 C 0.84332 0.5884 0.26338 0.0
C617 C 0.86386 0.58794 0.23539 0.0
N618 N 0.88992 0.60075 0.14725 0.0
N619 N 0.81034 0.60585 0.26263 0.0
C620 C 0.8696 0.59925 0.16794 0.0
C621 C 0.82881 0.6018 0.22732 0.0
N622 N 0.8582 0.61643 0.05017 0.0
N623 N 0.83755 0.57561 0.32302 0.0
H624 H 0.79923 0.61562 0.23901 0.0
H625 H 0.80668 0.60093 0.31881 0.0
H626 H 0.84788 0.5659 0.35182 0.0
H627 H 0.82227 0.57343 0.33994 0.0
H628 H 0.87189 0.61332 0.02067 0.0
H629 H 0.84709 0.62349 0.01516 0.0
H630 H 0.89525 0.61061 0.10366 0.0
H631 H 0.90176 0.5936 0.17837 0.0
C632 C 0.3415 0.39916 0.60575 0.0
C633 C 0.33215 0.38471 0.65682 0.0
C634 C 0.35262 0.39787 0.76625 0.0
C635 C 0.36261 0.41172 0.71457 0.0
N636 N 0.36999 0.42269 0.58307 0.0
N637 N 0.33198 0.36694 0.78041 0.0
C638 C 0.35805 0.41154 0.63357 0.0
C639 C 0.33866 0.38307 0.73561 0.0
N640 N 0.33414 0.40148 0.53152 0.0
N641 N 0.35583 0.39941 0.8449 0.0
H642 H 0.32212 0.35557 0.7591 0.0
H643 H 0.33772 0.3637 0.8358 0.0
H644 H 0.3661 0.40994 0.86962 0.0
H645 H 0.34716 0.39138 0.8861 0.0
H646 H 0.33871 0.41336 0.49437 0.0
H647 H 0.32233 0.39236 0.50869 0.0
H648 H 0.36875 0.42168 0.52263 0.0
H649 H 0.38253 0.43153 0.60142 0.0
C650 C 0.35024 0.61479 0.37487 0.0
C651 C 0.3442 0.61481 0.45431 0.0
C652 C 0.36908 0.5874 0.48182 0.0
C653 C 0.37277 0.58532 0.40045 0.0
N654 N 0.36446 0.59502 0.26802 0.0
N655 N 0.34622 0.59999 0.5831 0.0
C656 C 0.36279 0.59854 0.34641 0.0
C657 C 0.35321 0.60084 0.50792 0.0
N658 N 0.34452 0.63069 0.32722 0.0
N659 N 0.38128 0.5772 0.53424 0.0
H660 H 0.33494 0.60995 0.60475 0.0
H661 H 0.35052 0.58849 0.62232 0.0
H662 H 0.39353 0.56774 0.51757 0.0
H663 H 0.38061 0.5797 0.5942 0.0
H664 H 0.35001 0.6325 0.27051 0.0
H665 H 0.3361 0.64329 0.34746 0.0
H666 H 0.3557 0.60286 0.22656 0.0
H667 H 0.37311 0.58296 0.24455 0.0
C668 C 0.13359 0.60151 0.21485 0.0
C669 C 0.12071 0.58929 0.16657 0.0
C670 C 0.13427 0.60655 0.05009 0.0
C671 C 0.14607 0.61975 0.09867 0.0
N672 N 0.15408 0.63264 0.22726 0.0
N673 N 0.1054 0.58297 0.04034 0.0
C674 C 0.14493 0.61804 0.18115 0.0
C675 C 0.12009 0.59258 0.08469 0.0
N676 N 0.13555 0.59686 0.29232 0.0
N677 N 0.13719 0.60679 0.97108 0.0
H678 H 0.09445 0.57289 0.06355 0.0
H679 H 0.1028 0.58646 0.98185 0.0
H680 H 0.14744 0.61683 0.94344 0.0
H681 H 0.13077 0.5959 0.93356 0.0
H682 H 0.14643 0.60374 0.32867 0.0
H683 H 0.12744 0.58488 0.31908 0.0
H684 H 0.15196 0.63345 0.2874 0.0
H685 H 0.16229 0.64515 0.20474 0.0
C686 C 0.12499 0.40957 0.97401 0.0
C687 C 0.12565 0.41316 0.89234 0.0
C688 C 0.15225 0.38662 0.87808 0.0
C689 C 0.15344 0.38498 0.96054 0.0
N690 N 0.14274 0.39645 0.08814 0.0
N691 N 0.14146 0.40707 0.76701 0.0
C692 C 0.14021 0.39678 0.00895 0.0
C693 C 0.13961 0.40212 0.84426 0.0
N694 N 0.10943 0.41788 0.01778 0.0
N695 N 0.16274 0.37292 0.83209 0.0
H696 H 0.13247 0.41834 0.73994 0.0
H697 H 0.15302 0.40123 0.73113 0.0
H698 H 0.17196 0.36117 0.85478 0.0
H699 H 0.16079 0.37195 0.7719 0.0
H700 H 0.10689 0.41412 0.07606 0.0
H701 H 0.09782 0.42709 0.994 0.0
H702 H 0.13517 0.40651 0.12586 0.0
H703 H 0.15367 0.38722 0.11599 0.0
C704 C 0.25366 0.15957 0.88082 0.0
C705 C 0.24267 0.17825 0.89286 0.0
C706 C 0.26089 0.19411 0.78267 0.0
C707 C 0.26996 0.17472 0.76553 0.0
N708 N 0.27314 0.13824 0.79139 0.0
N709 N 0.23368 0.21257 0.8495 0.0
C710 C 0.26574 0.15719 0.81242 0.0
C711 C 0.24581 0.19542 0.84262 0.0
N712 N 0.25341 0.1445 0.93677 0.0
N713 N 0.26673 0.21129 0.7418 0.0
H714 H 0.22239 0.21412 0.89226 0.0
H715 H 0.23358 0.22459 0.80912 0.0
H716 H 0.27698 0.21079 0.695 0.0
H717 H 0.26255 0.22624 0.75759 0.0
H718 H 0.26277 0.13145 0.93491 0.0
H719 H 0.24549 0.14604 0.9894 0.0
H720 H 0.26862 0.12454 0.8183 0.0
H721 H 0.28257 0.13597 0.74299 0.0
C722 C 0.09262 0.96597 0.03874 0.0
C723 C 0.07704 0.96574 0.0968 0.0
C724 C 0.05766 0.99233 0.02618 0.0
C725 C 0.07413 0.99388 0.97192 0.0
N726 N 0.10797 0.98353 0.92802 0.0
N727 N 0.04542 0.97923 0.15052 0.0
C728 C 0.09183 0.98109 0.97867 0.0
C729 C 0.05973 0.97908 0.09185 0.0
N730 N 0.10796 0.95147 0.04032 0.0
N731 N 0.03995 0.00337 0.01434 0.0
H732 H 0.04579 0.96896 0.19732 0.0
H733 H 0.03377 0.99019 0.15553 0.0
H734 H 0.03817 0.01387 0.96882 0.0
H735 H 0.02647 0.00123 0.04631 0.0
H736 H 0.11852 0.94927 0.99537 0.0
H737 H 0.10934 0.9405 0.08448 0.0
H738 H 0.12231 0.9766 0.93545 0.0
H739 H 0.10752 0.99347 0.88022 0.0
C740 C 0.25208 0.80014 0.25506 0.0
C741 C 0.247 0.81663 0.2039 0.0
C742 C 0.26715 0.84059 0.28384 0.0
C743 C 0.27349 0.82389 0.33147 0.0
N744 N 0.2748 0.78723 0.3562 0.0
N745 N 0.25413 0.85113 0.15782 0.0
C746 C 0.26691 0.80346 0.31484 0.0
C747 C 0.25581 0.83647 0.21492 0.0
N748 N 0.24197 0.78167 0.2495 0.0
N749 N 0.2716 0.86042 0.30504 0.0
H750 H 0.24685 0.84832 0.10462 0.0
H751 H 0.26191 0.8652 0.15945 0.0
H752 H 0.27989 0.86403 0.35518 0.0
H753 H 0.26548 0.87329 0.27684 0.0
H754 H 0.24329 0.76993 0.29073 0.0
H755 H 0.23091 0.77861 0.2071 0.0
H756 H 0.27247 0.77184 0.34088 0.0
H757 H 0.28493 0.78914 0.40282 0.0
C758 C 0.44052 0.01681 0.58009 0.0
C759 C 0.42072 0.0239 0.603 0.0
C760 C 0.40501 0.00615 0.49223 0.0
C761 C 0.42447 0.99755 0.47297 0.0
N762 N 0.46019 0.99171 0.50613 0.0
N763 N 0.38369 0.02139 0.59228 0.0
C764 C 0.44215 0.00213 0.51871 0.0
C765 C 0.40282 0.01731 0.56274 0.0
N766 N 0.45772 0.02401 0.61731 0.0
N767 N 0.38885 0.00462 0.44124 0.0
H768 H 0.38146 0.02928 0.64443 0.0
H769 H 0.37018 0.01513 0.56931 0.0
H770 H 0.39003 0.99744 0.387 0.0
H771 H 0.37495 0.01243 0.44889 0.0
H772 H 0.47267 0.02146 0.59728 0.0
H773 H 0.457 0.03349 0.66635 0.0
H774 H 0.47296 0.99279 0.54273 0.0
H775 H 0.46191 0.98057 0.46278 0.0
C776 C 0.78341 0.83963 0.31374 0.0
C777 C 0.78398 0.82522 0.25151 0.0
C778 C 0.756 0.80536 0.31117 0.0
C779 C 0.75594 0.81929 0.37502 0.0
N780 N 0.77232 0.84698 0.44588 0.0
N781 N 0.77481 0.79177 0.20058 0.0
C782 C 0.77047 0.83566 0.37891 0.0
C783 C 0.77145 0.80729 0.25305 0.0
N784 N 0.79471 0.85743 0.30939 0.0
N785 N 0.74074 0.79091 0.30393 0.0
H786 H 0.78638 0.79248 0.15851 0.0
H787 H 0.76763 0.7774 0.2038 0.0
H788 H 0.72902 0.78908 0.34487 0.0
H789 H 0.73868 0.78193 0.25415 0.0
H790 H 0.79304 0.86969 0.34816 0.0
H791 H 0.80484 0.86058 0.26371 0.0
H792 H 0.78402 0.85771 0.45534 0.0
H793 H 0.76328 0.84431 0.49515 0.0
C794 C 0.90831 0.02759 0.08149 0.0
C795 C 0.92309 0.02784 0.02059 0.0
C796 C 0.94021 0.9976 0.07632 0.0
C797 C 0.92659 0.99846 0.14107 0.0
N798 N 0.89969 0.01623 0.21189 0.0
N799 N 0.95527 0.01572 0.96674 0.0
C800 C 0.91116 0.01399 0.14552 0.0
C801 C 0.93969 0.01361 0.01993 0.0
N802 N 0.89111 0.03974 0.07668 0.0
N803 N 0.95289 0.98094 0.06639 0.0
H804 H 0.95543 0.02726 0.92432 0.0
H805 H 0.96891 0.00725 0.96908 0.0
H806 H 0.95322 0.9685 0.10486 0.0
H807 H 0.96155 0.97845 0.01609 0.0
H808 H 0.87859 0.03842 0.11445 0.0
H809 H 0.88851 0.05006 0.03101 0.0
H810 H 0.88995 0.02873 0.22195 0.0
H811 H 0.90115 0.00654 0.25999 0.0
C812 C 0.77139 0.15377 0.76146 0.0
C813 C 0.76799 0.16829 0.82201 0.0
C814 C 0.73885 0.18306 0.7505 0.0
C815 C 0.74146 0.16774 0.69222 0.0
N816 N 0.75748 0.13622 0.64821 0.0
N817 N 0.74664 0.19442 0.88166 0.0
C818 C 0.75703 0.15248 0.69913 0.0
C819 C 0.75109 0.18217 0.81897 0.0
N820 N 0.78834 0.14122 0.76354 0.0
N821 N 0.72541 0.19905 0.7387 0.0
H822 H 0.75564 0.19472 0.93189 0.0
H823 H 0.73318 0.20308 0.88648 0.0
H824 H 0.71625 0.2004 0.68903 0.0
H825 H 0.72458 0.21195 0.77479 0.0
H826 H 0.7931 0.13218 0.71667 0.0
H827 H 0.79843 0.14068 0.81082 0.0
H828 H 0.76704 0.12344 0.65496 0.0
H829 H 0.74698 0.13455 0.60259 0.0
C830 C 0.58622 0.98424 0.65269 0.0
C831 C 0.57186 0.00071 0.64611 0.0
C832 C 0.55971 0.98709 0.52103 0.0
C833 C 0.5748 0.97127 0.52567 0.0
N834 N 0.60491 0.95682 0.58766 0.0
N835 N 0.5483 0.02053 0.56696 0.0
C836 C 0.58875 0.97038 0.58926 0.0
C837 C 0.55951 0.00289 0.57831 0.0
N838 N 0.59693 0.98134 0.72048 0.0
N839 N 0.54513 0.98665 0.4634 0.0
H840 H 0.54823 0.03274 0.60654 0.0
H841 H 0.54072 0.02398 0.51501 0.0
H842 H 0.5449 0.97556 0.41938 0.0
H843 H 0.53226 0.99627 0.46266 0.0
H844 H 0.60552 0.96814 0.73248 0.0
H845 H 0.59618 0.99149 0.76737 0.0
H846 H 0.61704 0.95714 0.62748 0.0
H847 H 0.6072 0.94626 0.54263 0.0
C848 C 0.74394 0.69002 0.3453 0.0
C849 C 0.74628 0.67766 0.41316 0.0
C850 C 0.77817 0.66292 0.36024 0.0
C851 C 0.77645 0.67628 0.29497 0.0
N852 N 0.76045 0.70561 0.23303 0.0
N853 N 0.76717 0.6548 0.4916 0.0
C854 C 0.76013 0.69075 0.28977 0.0
C855 C 0.76382 0.66477 0.42245 0.0
N856 N 0.72582 0.70022 0.33188 0.0
N857 N 0.793 0.64791 0.36148 0.0
H858 H 0.75688 0.65537 0.53809 0.0
H859 H 0.78087 0.64725 0.50531 0.0
H860 H 0.80424 0.64644 0.31845 0.0
H861 H 0.79334 0.63601 0.40228 0.0
H862 H 0.72244 0.70769 0.27959 0.0
H863 H 0.71327 0.69957 0.36983 0.0
H864 H 0.75014 0.71792 0.23132 0.0
H865 H 0.77227 0.70681 0.19196 0.0
C866 C 0.56545 0.51913 0.57338 0.0
C867 C 0.56682 0.51418 0.49298 0.0
C868 C 0.57213 0.47775 0.52548 0.0
C869 C 0.56897 0.48243 0.60552 0.0
N870 N 0.55766 0.50689 0.70321 0.0
N871 N 0.56674 0.48831 0.39164 0.0
C872 C 0.5642 0.50294 0.62887 0.0
C873 C 0.5688 0.49334 0.4687 0.0
N874 N 0.56623 0.53926 0.59726 0.0
N875 N 0.57921 0.45873 0.50362 0.0
H876 H 0.56369 0.49923 0.34846 0.0
H877 H 0.56593 0.47314 0.37164 0.0
H878 H 0.5821 0.44685 0.54305 0.0
H879 H 0.58404 0.45534 0.44708 0.0
H880 H 0.56771 0.54356 0.65557 0.0
H881 H 0.56734 0.55166 0.55873 0.0
H882 H 0.55195 0.52119 0.72077 0.0
H883 H 0.55589 0.49545 0.74539 0.0
C884 C 0.7442 0.32011 0.76504 0.0
C885 C 0.7495 0.33212 0.69884 0.0
C886 C 0.78189 0.34242 0.76134 0.0
C887 C 0.77564 0.33197 0.83023 0.0
N888 N 0.7492 0.31381 0.90262 0.0
N889 N 0.77132 0.35787 0.63909 0.0
C890 C 0.75623 0.32184 0.83381 0.0
C891 C 0.76783 0.34411 0.69816 0.0
N892 N 0.72841 0.30613 0.76086 0.0
N893 N 0.80122 0.35075 0.7561 0.0
H894 H 0.7612 0.35991 0.59252 0.0
H895 H 0.78324 0.36866 0.63978 0.0
H896 H 0.81165 0.3509 0.80238 0.0
H897 H 0.80747 0.35633 0.70425 0.0
H898 H 0.72532 0.29533 0.80437 0.0
H899 H 0.71966 0.3038 0.71061 0.0
H900 H 0.73418 0.30847 0.91031 0.0
H901 H 0.75774 0.31393 0.95398 0.0
C902 C 0.94832 0.50979 0.03963 0.0
C903 C 0.93735 0.50146 0.10416 0.0
C904 C 0.93366 0.46857 0.03585 0.0
C905 C 0.94197 0.47774 0.96767 0.0
N906 N 0.95549 0.50761 0.90094 0.0
N907 N 0.91716 0.4739 0.16053 0.0
C908 C 0.94908 0.49844 0.96863 0.0
C909 C 0.9293 0.48113 0.10136 0.0
N910 N 0.95778 0.5286 0.04589 0.0
N911 N 0.93076 0.44767 0.03907 0.0
H912 H 0.9139 0.48249 0.21031 0.0
H913 H 0.90897 0.46008 0.15737 0.0
H914 H 0.93479 0.43785 0.99332 0.0
H915 H 0.92657 0.43985 0.08975 0.0
H916 H 0.96792 0.53439 0.00416 0.0
H917 H 0.95667 0.5379 0.09537 0.0
H918 H 0.95865 0.52332 0.89599 0.0
H919 H 0.95616 0.49982 0.84776 0.0
C920 C 0.24991 0.31119 0.7771 0.0
C921 C 0.26425 0.3277 0.77921 0.0
C922 C 0.24974 0.33973 0.90292 0.0
C923 C 0.23439 0.32408 0.89804 0.0
N924 N 0.21717 0.29777 0.82235 0.0
N925 N 0.27588 0.35969 0.83587 0.0
C926 C 0.23374 0.31055 0.8329 0.0
C927 C 0.26361 0.34255 0.83976 0.0
N928 N 0.25207 0.29581 0.72306 0.0
N929 N 0.2517 0.35131 0.96915 0.0
H930 H 0.28648 0.36211 0.79117 0.0
H931 H 0.2744 0.3723 0.87314 0.0
H932 H 0.24179 0.35005 0.01658 0.0
H933 H 0.26415 0.36108 0.97986 0.0
H934 H 0.24356 0.28217 0.72431 0.0
H935 H 0.26358 0.29587 0.68056 0.0
H936 H 0.21483 0.2891 0.77197 0.0
H937 H 0.20463 0.29736 0.86042 0.0
C938 C 0.4468 0.49196 0.49772 0.0
C939 C 0.42934 0.49918 0.45595 0.0
C940 C 0.40634 0.48107 0.54646 0.0
C941 C 0.42378 0.47242 0.58409 0.0
N942 N 0.46067 0.46734 0.59035 0.0
N943 N 0.39277 0.49723 0.43021 0.0
C944 C 0.44404 0.47706 0.55778 0.0
C945 C 0.40916 0.49285 0.47757 0.0
N946 N 0.46585 0.50017 0.48302 0.0
N947 N 0.38703 0.47816 0.57661 0.0
H948 H 0.3942 0.5054 0.37819 0.0
H949 H 0.37809 0.49106 0.43826 0.0
H950 H 0.38413 0.46891 0.62503 0.0
H951 H 0.37408 0.48615 0.55724 0.0
H952 H 0.47877 0.49727 0.51739 0.0
H953 H 0.46847 0.51138 0.4405 0.0
H954 H 0.47553 0.46827 0.56762 0.0
H955 H 0.45948 0.45718 0.6373 0.0
C956 C 0.27763 0.65495 0.2646 0.0
C957 C 0.27723 0.67003 0.32443 0.0
C958 C 0.24559 0.68472 0.27007 0.0
C959 C 0.24718 0.67101 0.20569 0.0
N960 N 0.26668 0.64524 0.13503 0.0
N961 N 0.26304 0.70138 0.37805 0.0
C962 C 0.26371 0.65666 0.20113 0.0
C963 C 0.26184 0.68555 0.32546 0.0
N964 N 0.29083 0.63857 0.26972 0.0
N965 N 0.22813 0.69622 0.28046 0.0
H966 H 0.2747 0.70245 0.41978 0.0
H967 H 0.25358 0.71436 0.37592 0.0
H968 H 0.21551 0.69548 0.24288 0.0
H969 H 0.22525 0.7049 0.33044 0.0
H970 H 0.2902 0.62583 0.23272 0.0
H971 H 0.30126 0.6368 0.31536 0.0
H972 H 0.27986 0.63646 0.12489 0.0
H973 H 0.25687 0.64584 0.08711 0.0
C974 C 0.05224 0.52034 0.0232 0.0
C975 C 0.05719 0.51064 0.09513 0.0
C976 C 0.06079 0.47736 0.02882 0.0
C977 C 0.05769 0.48739 0.95624 0.0
N978 N 0.05312 0.51864 0.88186 0.0
N979 N 0.06976 0.4809 0.16512 0.0
C980 C 0.05405 0.50895 0.95266 0.0
C981 C 0.06238 0.48939 0.0977 0.0
N982 N 0.04524 0.54026 0.02255 0.0
N983 N 0.06158 0.45627 0.03223 0.0
H984 H 0.07153 0.48935 0.21629 0.0
H985 H 0.07596 0.46609 0.1685 0.0
H986 H 0.06036 0.44687 0.983 0.0
H987 H 0.06159 0.44798 0.0843 0.0
H988 H 0.03913 0.54741 0.97331 0.0
H989 H 0.04407 0.54925 0.07278 0.0
H990 H 0.0529 0.53462 0.87531 0.0
H991 H 0.05416 0.51075 0.82898 0.0
C992 C 0.18089 0.23887 0.02772 0.0
C993 C 0.1793 0.22721 0.09775 0.0
C994 C 0.17472 0.25898 0.17338 0.0
C995 C 0.17758 0.27068 0.10421 0.0
N996 N 0.17688 0.27186 0.96306 0.0
N997 N 0.16866 0.22534 0.23191 0.0
C998 C 0.17827 0.26066 0.03049 0.0
C999 C 0.17421 0.23706 0.16897 0.0
N1000 N 0.18651 0.22946 0.95955 0.0
N1001 N 0.17302 0.26891 0.24346 0.0
H1002 H 0.16778 0.20926 0.22932 0.0
H1003 H 0.16313 0.23144 0.28401 0.0
H1004 H 0.17166 0.28493 0.24782 0.0
H1005 H 0.17359 0.26144 0.29719 0.0
H1006 H 0.19082 0.2375 0.90952 0.0
H1007 H 0.18831 0.21358 0.95358 0.0
H1008 H 0.17493 0.26517 0.90832 0.0
H1009 H 0.17567 0.28785 0.96141 0.0
C1010 C 0.01014 0.93596 0.42168 0.0
C1011 C 0.02097 0.93596 0.34999 0.0
C1012 C 0.98853 0.93766 0.27741 0.0
C1013 C 0.97758 0.93829 0.34941 0.0
N1014 N 0.97729 0.93186 0.48782 0.0
N1015 N 0.02079 0.93065 0.21099 0.0
C1016 C 0.98823 0.93544 0.42096 0.0
C1017 C 0.01022 0.9346 0.27833 0.0
N1018 N 0.02083 0.93703 0.49026 0.0
N1019 N 0.97865 0.94157 0.2085 0.0
H1020 H 0.03673 0.92865 0.20962 0.0
H1021 H 0.01364 0.92738 0.15802 0.0
H1022 H 0.96282 0.94361 0.20358 0.0
H1023 H 0.98637 0.94423 0.15616 0.0
H1024 H 0.01392 0.93973 0.54413 0.0
H1025 H 0.03688 0.93602 0.49265 0.0
H1026 H 0.98409 0.92796 0.54085 0.0
H1027 H 0.96123 0.93079 0.48842 0.0
C1028 C 0.31431 0.76138 0.51136 0.0
C1029 C 0.30653 0.77172 0.57783 0.0
C1030 C 0.30365 0.73881 0.64725 0.0
C1031 C 0.30759 0.72834 0.57617 0.0
N1032 N 0.31574 0.72939 0.43865 0.0
N1033 N 0.29513 0.77113 0.71131 0.0
C1034 C 0.31312 0.7395 0.50795 0.0
C1035 C 0.3018 0.76067 0.64686 0.0
N1036 N 0.32264 0.77249 0.45136 0.0
N1037 N 0.30201 0.72779 0.71503 0.0
H1038 H 0.29537 0.78722 0.71455 0.0
H1039 H 0.28887 0.76403 0.76036 0.0
H1040 H 0.30365 0.71176 0.71695 0.0
H1041 H 0.30082 0.73451 0.76998 0.0
H1042 H 0.33029 0.76578 0.40435 0.0
H1043 H 0.32365 0.78855 0.45234 0.0
H1044 H 0.31715 0.73691 0.38522 0.0
H1045 H 0.31502 0.7134 0.43332 0.0
C1046 C 0.48641 0.06287 0.78295 0.0
C1047 C 0.47494 0.05926 0.85174 0.0
C1048 C 0.5069 0.05828 0.92755 0.0
C1049 C 0.51829 0.05728 0.85695 0.0
N1050 N 0.51864 0.05761 0.71539 0.0
N1051 N 0.47359 0.05489 0.99092 0.0
C1052 C 0.5081 0.05979 0.78396 0.0
C1053 C 0.485 0.0576 0.92472 0.0
N1054 N 0.47655 0.06903 0.71652 0.0
N1055 N 0.51708 0.06025 0.99698 0.0
H1056 H 0.45754 0.05602 0.9911 0.0
H1057 H 0.47991 0.05089 0.04468 0.0
H1058 H 0.53311 0.06145 0.00033 0.0
H1059 H 0.5097 0.06271 0.0501 0.0
H1060 H 0.48427 0.07378 0.66633 0.0
H1061 H 0.46066 0.07139 0.71431 0.0
H1062 H 0.51141 0.05649 0.6613 0.0
H1063 H 0.53448 0.05536 0.71201 0.0
C1064 C 0.17989 0.75241 0.93791 0.0
C1065 C 0.18528 0.76266 0.00804 0.0
C1066 C 0.18665 0.72936 0.07608 0.0
C1067 C 0.18576 0.71917 0.00278 0.0
N1068 N 0.17959 0.72039 0.86436 0.0
N1069 N 0.19462 0.76099 0.14457 0.0
C1070 C 0.18153 0.73054 0.93388 0.0
C1071 C 0.18839 0.75123 0.07785 0.0
N1072 N 0.17298 0.76367 0.87574 0.0
N1073 N 0.1862 0.71831 0.14401 0.0
H1074 H 0.19604 0.77693 0.14965 0.0
H1075 H 0.19993 0.75319 0.19375 0.0
H1076 H 0.18528 0.7023 0.14631 0.0
H1077 H 0.18458 0.72511 0.19871 0.0
H1078 H 0.16716 0.75715 0.8248 0.0
H1079 H 0.17128 0.77969 0.87803 0.0
H1080 H 0.17918 0.72776 0.81043 0.0
H1081 H 0.17904 0.70431 0.86064 0.0
C1082 C 0.48579 0.938 0.34398 0.0
C1083 C 0.4755 0.93759 0.27063 0.0
C1084 C 0.5085 0.93225 0.20335 0.0
C1085 C 0.51882 0.93569 0.27489 0.0
N1086 N 0.51826 0.94047 0.41409 0.0
N1087 N 0.47616 0.9323 0.13156 0.0
C1088 C 0.50772 0.93764 0.34576 0.0
C1089 C 0.48663 0.93386 0.20061 0.0
N1090 N 0.47469 0.93926 0.41174 0.0
N1091 N 0.51979 0.92731 0.13856 0.0
H1092 H 0.46009 0.93179 0.12865 0.0
H1093 H 0.48315 0.93183 0.07699 0.0
H1094 H 0.53581 0.92581 0.13998 0.0
H1095 H 0.51346 0.92328 0.08495 0.0
H1096 H 0.48097 0.93718 0.467 0.0
H1097 H 0.45881 0.9414 0.41386 0.0
H1098 H 0.51152 0.94496 0.46645 0.0
H1099 H 0.53422 0.93902 0.41813 0.0
C1100 C 0.29577 0.23955 0.45339 0.0
C1101 C 0.30107 0.22859 0.52204 0.0
C1102 C 0.30436 0.2609 0.59461 0.0
C1103 C 0.29837 0.27191 0.52664 0.0
N1104 N 0.29355 0.27266 0.38734 0.0
N1105 N 0.31665 0.22869 0.64953 0.0
C1106 C 0.29571 0.26149 0.45457 0.0
C1107 C 0.30756 0.23926 0.58977 0.0
N1108 N 0.29048 0.22888 0.38764 0.0
N1109 N 0.30558 0.27079 0.6649 0.0
H1110 H 0.31943 0.21288 0.64705 0.0
H1111 H 0.32338 0.23585 0.6976 0.0
H1112 H 0.30331 0.2866 0.67137 0.0
H1113 H 0.30727 0.26311 0.7179 0.0
H1114 H 0.28385 0.23563 0.33857 0.0
H1115 H 0.29233 0.21292 0.38323 0.0
H1116 H 0.29326 0.26613 0.3319 0.0
H1117 H 0.29381 0.28877 0.38647 0.0
C1118 C 0.98932 0.06009 0.83987 0.0
C1119 C 0.97866 0.05884 0.76798 0.0
C1120 C 0.0115 0.05865 0.6978 0.0
C1121 C 0.02195 0.05561 0.76961 0.0
N1122 N 0.02053 0.05192 0.91026 0.0
N1123 N 0.97902 0.05725 0.62773 0.0
C1124 C 0.0109 0.05638 0.84131 0.0
C1125 C 0.9896 0.05844 0.69654 0.0
N1126 N 0.97877 0.0644 0.90693 0.0
N1127 N 0.02259 0.06207 0.63121 0.0
H1128 H 0.96297 0.05824 0.62482 0.0
H1129 H 0.98604 0.05434 0.5742 0.0
H1130 H 0.03867 0.06287 0.63097 0.0
H1131 H 0.01592 0.06613 0.57812 0.0
H1132 H 0.98598 0.06752 0.95994 0.0
H1133 H 0.96289 0.06683 0.90806 0.0
H1134 H 0.01264 0.04958 0.96245 0.0
H1135 H 0.03622 0.04884 0.9151 0.0
C1136 C 0.81573 0.74065 0.08843 0.0
C1137 C 0.81064 0.72868 0.02175 0.0
C1138 C 0.80976 0.75982 0.9408 0.0
C1139 C 0.81407 0.7718 0.00798 0.0
N1140 N 0.82685 0.77373 0.13974 0.0
N1141 N 0.80807 0.72573 0.88212 0.0
C1142 C 0.81916 0.76219 0.07968 0.0
C1143 C 0.80939 0.73794 0.94697 0.0
N1144 N 0.81574 0.73178 0.16085 0.0
N1145 N 0.80538 0.76948 0.87186 0.0
H1146 H 0.80802 0.70963 0.88522 0.0
H1147 H 0.80883 0.73135 0.82531 0.0
H1148 H 0.807 0.7854 0.86453 0.0
H1149 H 0.79954 0.76194 0.823 0.0
H1150 H 0.81668 0.74017 0.21251 0.0
H1151 H 0.81333 0.71607 0.17005 0.0
H1152 H 0.83265 0.76737 0.19102 0.0
H1153 H 0.82924 0.7896 0.13547 0.0
C1154 C 0.67887 0.24037 0.61504 0.0
C1155 C 0.68048 0.23015 0.54227 0.0
C1156 C 0.68077 0.26332 0.47393 0.0
C1157 C 0.68311 0.2733 0.5468 0.0
N1158 N 0.68267 0.2725 0.68705 0.0
N1159 N 0.68124 0.23098 0.40205 0.0
C1160 C 0.68117 0.2622 0.61768 0.0
C1161 C 0.68048 0.24139 0.47136 0.0
N1162 N 0.67561 0.22904 0.68122 0.0
N1163 N 0.67911 0.27493 0.40762 0.0
H1164 H 0.68002 0.21492 0.39878 0.0
H1165 H 0.68366 0.238 0.34823 0.0
H1166 H 0.67927 0.29105 0.40875 0.0
H1167 H 0.67594 0.26886 0.35273 0.0
H1168 H 0.67294 0.23545 0.73594 0.0
H1169 H 0.67403 0.21301 0.68022 0.0
H1170 H 0.68377 0.26531 0.74114 0.0
H1171 H 0.68336 0.28858 0.6902 0.0
C1172 C 0.80531 0.2599 0.13183 0.0
C1173 C 0.79817 0.27131 0.06657 0.0
C1174 C 0.79219 0.23928 0.99417 0.0
C1175 C 0.79669 0.22788 0.06264 0.0
N1176 N 0.80697 0.22666 0.19754 0.0
N1177 N 0.78421 0.27238 0.93622 0.0
C1178 C 0.80338 0.23798 0.13157 0.0
C1179 C 0.79158 0.26113 0.99766 0.0
N1180 N 0.8138 0.27008 0.1939 0.0
N1181 N 0.78894 0.22912 0.92535 0.0
H1182 H 0.7848 0.28843 0.93451 0.0
H1183 H 0.77654 0.26597 0.88868 0.0
H1184 H 0.78936 0.21311 0.92096 0.0
H1185 H 0.78764 0.23644 0.87151 0.0
H1186 H 0.82104 0.2627 0.24036 0.0
H1187 H 0.81493 0.28613 0.19636 0.0
H1188 H 0.80958 0.23311 0.25223 0.0
H1189 H 0.80628 0.21056 0.19845 0.0
C1190 C 0.68141 0.73999 0.66329 0.0
C1191 C 0.68434 0.72693 0.59779 0.0
C1192 C 0.69158 0.7569 0.51529 0.0
C1193 C 0.68997 0.76987 0.58181 0.0
N1194 N 0.67719 0.77493 0.71224 0.0
N1195 N 0.68353 0.72391 0.45693 0.0
C1196 C 0.68283 0.76175 0.65374 0.0
C1197 C 0.68642 0.73567 0.52218 0.0
N1198 N 0.67777 0.73143 0.73487 0.0
N1199 N 0.69944 0.76437 0.44687 0.0
H1200 H 0.67885 0.70857 0.45842 0.0
H1201 H 0.68317 0.73008 0.40082 0.0
H1202 H 0.70326 0.7798 0.43821 0.0
H1203 H 0.70369 0.75494 0.40035 0.0
H1204 H 0.67813 0.73972 0.78687 0.0
H1205 H 0.6749 0.71568 0.74211 0.0
H1206 H 0.67029 0.77016 0.76402 0.0
H1207 H 0.67768 0.79096 0.70585 0.0
C1208 C 0.51198 0.42932 0.90319 0.0
C1209 C 0.52001 0.44418 0.85039 0.0
C1210 C 0.48509 0.45498 0.8155 0.0
C1211 C 0.47692 0.43927 0.86443 0.0
N1212 N 0.48226 0.40934 0.9454 0.0
N1213 N 0.51439 0.46741 0.7424 0.0
C1214 C 0.49029 0.42576 0.90553 0.0
C1215 C 0.5066 0.45584 0.80228 0.0
N1216 N 0.52495 0.41929 0.95333 0.0
N1217 N 0.47251 0.46988 0.78499 0.0
H1218 H 0.53009 0.46831 0.7303 0.0
H1219 H 0.50519 0.47435 0.7 0.0
H1220 H 0.45661 0.47021 0.79333 0.0
H1221 H 0.47805 0.48304 0.75699 0.0
H1222 H 0.51985 0.41002 -0.00094 0.0
H1223 H 0.54091 0.42136 0.95264 0.0
H1224 H 0.49124 0.39772 0.97002 0.0
H1225 H 0.46644 0.40644 0.94849 0.0
C1226 C 0.97609 0.57668 0.25218 0.0
C1227 C 0.96579 0.57668 0.32483 0.0
C1228 C -0.00099 0.57535 0.39231 0.0
C1229 C 0.0085 0.56993 0.32036 0.0
N1230 N 0.00589 0.56511 0.18043 0.0
N1231 N 0.96808 0.58761 0.4583 0.0
C1232 C 0.99717 0.57106 0.24946 0.0
C1233 C 0.97746 0.57959 0.39374 0.0
N1234 N 0.96579 0.58265 0.18651 0.0
N1235 N 0.01053 0.57586 0.45907 0.0
H1236 H 0.95294 0.59306 0.4565 0.0
H1237 H 0.97571 0.59117 0.50991 0.0
H1238 H 0.02655 0.5743 0.45886 0.0
H1239 H 0.0043 0.5773 0.51476 0.0
H1240 H 0.9729 0.58444 0.13239 0.0
H1241 H 0.95077 0.58843 0.189 0.0
H1242 H 0.99746 0.5633 0.12916 0.0
H1243 H 0.02114 0.5603 0.17536 0.0
C1244 C 0.98958 0.43377 0.65393 0.0
C1245 C 0.98038 0.41576 0.68552 0.0
C1246 C 0.0145 0.40014 0.70337 0.0
C1247 C 0.0236 0.41938 0.68378 0.0
N1248 N 0.02043 0.45448 0.63819 0.0
N1249 N 0.98328 0.38154 0.73909 0.0
C1250 C 0.01131 0.43612 0.65748 0.0
C1251 C 0.9926 0.39867 0.70854 0.0
N1252 N 0.97743 0.44847 0.61972 0.0
N1253 N 0.02682 0.38346 0.71795 0.0
H1254 H 0.96729 0.37984 0.74132 0.0
H1255 H 0.99122 0.36943 0.76534 0.0
H1256 H 0.04288 0.38428 0.71643 0.0
H1257 H 0.02127 0.36853 0.72592 0.0
H1258 H 0.98314 0.46108 0.5889 0.0
H1259 H 0.96144 0.4471 0.6163 0.0
H1260 H 0.01233 0.46812 0.62858 0.0
H1261 H 0.03637 0.45637 0.635 0.0
C1262 C 0.49347 0.56484 0.18097 0.0
C1263 C 0.48049 0.57648 0.23105 0.0
C1264 C 0.51064 0.59251 0.29237 0.0
C1265 C 0.52359 0.58093 0.24202 0.0
N1266 N 0.52763 0.56051 0.12567 0.0
N1267 N 0.47608 0.60489 0.32008 0.0
C1268 C 0.51504 0.56856 0.18197 0.0
C1269 C 0.48891 0.5915 0.28209 0.0
N1270 N 0.48542 0.54933 0.13618 0.0
N1271 N 0.51899 0.60345 0.35282 0.0
H1272 H 0.46008 0.60453 0.3133 0.0
H1273 H 0.48131 0.61747 0.35231 0.0
H1274 H 0.53484 0.60475 0.36194 0.0
H1275 H 0.51023 0.61013 0.39702 0.0
H1276 H 0.49445 0.53873 0.10588 0.0
H1277 H 0.46972 0.54596 0.13375 0.0
H1278 H 0.52216 0.55298 0.07613 0.0
H1279 H 0.54351 0.56315 0.12468 0.0
C1280 C 0.24599 0.15971 0.24229 0.0
C1281 C 0.23272 0.14263 0.23009 0.0
C1282 C 0.2444 0.12751 0.35363 0.0
C1283 C 0.25517 0.14607 0.37074 0.0
N1284 N 0.26231 0.18167 0.33739 0.0
N1285 N 0.21749 0.11103 0.2774 0.0
C1286 C 0.25501 0.16266 0.31657 0.0
C1287 C 0.2315 0.12661 0.2864 0.0
N1288 N 0.25046 0.17283 0.18217 0.0
N1289 N 0.24693 0.11059 0.40031 0.0
H1290 H 0.20784 0.10985 0.22892 0.0
H1291 H 0.21431 0.10019 0.32066 0.0
H1292 H 0.2565 0.11062 0.44924 0.0
H1293 H 0.2411 0.09605 0.38656 0.0
H1294 H 0.26155 0.18444 0.18614 0.0
H1295 H 0.24484 0.17061 0.1258 0.0
H1296 H 0.26055 0.19475 0.30261 0.0
H1297 H 0.26802 0.18492 0.39278 0.0
C1298 C 0.11862 0.99579 0.50225 0.0
C1299 C 0.10178 0.98182 0.49648 0.0
C1300 C 0.09307 0.98843 0.63309 0.0
C1301 C 0.1076 0.00476 0.63468 0.0
N1302 N 0.13356 0.02514 0.56985 0.0
N1303 N 0.07089 0.96719 0.5535 0.0
C1304 C 0.12038 0.00866 0.56924 0.0
C1305 C 0.08853 0.97859 0.56133 0.0
N1306 N 0.1332 0.99635 0.44466 0.0
N1307 N 0.08389 0.98206 0.70072 0.0
H1308 H 0.06648 0.96018 0.50148 0.0
H1309 H 0.05959 0.96635 0.59659 0.0
H1310 H 0.08745 0.98853 0.75474 0.0
H1311 H 0.07462 0.96895 0.7044 0.0
H1312 H 0.14684 0.00476 0.44894 0.0
H1313 H 0.13259 0.98683 0.39562 0.0
H1314 H 0.14152 0.03021 0.52067 0.0
H1315 H 0.1355 0.03463 0.61844 0.0
C1316 C 0.24406 0.83396 0.85164 0.0
C1317 C 0.23058 0.85064 0.86772 0.0
C1318 C 0.24158 0.86758 0.74659 0.0
C1319 C 0.25287 0.84958 0.72613 0.0
N1320 N 0.26056 0.81369 0.75178 0.0
N1321 N 0.21446 0.88238 0.82661 0.0
C1322 C 0.25296 0.83222 0.77665 0.0
C1323 C 0.22881 0.86728 0.81427 0.0
N1324 N 0.24902 0.82015 0.90893 0.0
N1325 N 0.24358 0.88513 0.70297 0.0
H1326 H 0.20488 0.88266 0.87551 0.0
H1327 H 0.21092 0.89368 0.78552 0.0
H1328 H 0.25298 0.88598 0.6537 0.0
H1329 H 0.2374 0.89931 0.71945 0.0
H1330 H 0.26031 0.80884 0.90211 0.0
H1331 H 0.24365 0.82151 0.96597 0.0
H1332 H 0.25905 0.80008 0.78379 0.0
H1333 H 0.26624 0.81137 0.69567 0.0
C1334 C 0.37573 -0.00076 0.00728 0.0
C1335 C 0.39328 0.01212 0.99705 0.0
C1336 C 0.40433 0.00432 0.13023 0.0
C1337 C 0.38892 0.98889 0.13536 0.0
N1338 N 0.36055 0.9704 0.07716 0.0
N1339 N 0.42637 0.02399 0.04478 0.0
C1340 C 0.37461 0.9861 0.07375 0.0
C1341 C 0.40808 0.01406 0.05768 0.0
N1342 N 0.35994 -4e-05 0.95452 0.0
N1343 N 0.41513 0.00996 0.19528 0.0
H1344 H 0.43034 0.03051 0.99136 0.0
H1345 H 0.43851 0.02387 0.08461 0.0
H1346 H 0.41212 0.00367 0.25013 0.0
H1347 H 0.42527 0.02245 0.19646 0.0
H1348 H 0.34592 0.99241 0.96266 0.0
H1349 H 0.36009 0.00973 0.9061 0.0
H1350 H 0.3513 0.96612 0.03018 0.0
H1351 H 0.35913 0.96066 0.12533 0.0
C1352 C 0.75405 0.86973 0.8324 0.0
C1353 C 0.7646 0.85113 0.851 0.0
C1354 C 0.7549 0.83665 0.72425 0.0
C1355 C 0.74219 0.85406 0.71011 0.0
N1356 N 0.72791 0.88646 0.75295 0.0
N1357 N 0.77177 0.81539 0.82043 0.0
C1358 C 0.74135 0.8705 0.76461 0.0
C1359 C 0.76424 0.83421 0.79834 0.0
N1360 N 0.75672 0.88682 0.87806 0.0
N1361 N 0.75855 0.82268 0.66605 0.0
H1362 H 0.77823 0.81264 0.87494 0.0
H1363 H 0.76974 0.80198 0.78772 0.0
H1364 H 0.75223 0.82402 0.61037 0.0
H1365 H 0.76948 0.81094 0.67048 0.0
H1366 H 0.75113 0.90138 0.86335 0.0
H1367 H 0.76613 0.88688 0.92743 0.0
H1368 H 0.72489 0.89774 0.79468 0.0
H1369 H 0.71861 0.88761 0.70347 0.0
C1370 C 0.88489 0.01389 0.5751 0.0
C1371 C 0.89755 0.00881 0.63963 0.0
C1372 C 0.91164 0.97917 0.56837 0.0
C1373 C 0.90129 0.98608 0.50035 0.0
N1374 N 0.87787 0.00958 0.43693 0.0
N1375 N 0.92448 0.98793 0.69683 0.0
C1376 C 0.88771 0.00325 0.50333 0.0
C1377 C 0.91109 0.99159 0.63664 0.0
N1378 N 0.86995 0.02864 0.58319 0.0
N1379 N 0.92226 0.96094 0.56745 0.0
H1380 H 0.92476 0.99666 0.7479 0.0
H1381 H 0.93647 0.97728 0.69401 0.0
H1382 H 0.92364 0.95172 0.51796 0.0
H1383 H 0.92824 0.95399 0.61734 0.0
H1384 H 0.85889 0.03184 0.5409 0.0
H1385 H 0.86755 0.03663 0.63526 0.0
H1386 H 0.86985 0.02344 0.43223 0.0
H1387 H 0.87839 0.00121 0.38495 0.0
C1388 C 0.74095 0.13209 0.23593 0.0
C1389 C 0.75213 0.15032 0.21809 0.0
C1390 C 0.73789 0.16761 0.33325 0.0
C1391 C 0.72673 0.1493 0.35205 0.0
N1392 N 0.715 0.11526 0.31638 0.0
N1393 N 0.7643 0.18413 0.25534 0.0
C1394 C 0.72771 0.13174 0.30238 0.0
C1395 C 0.75146 0.16769 0.26831 0.0
N1396 N 0.74371 0.11489 0.19077 0.0
N1397 N 0.73503 0.18527 0.37556 0.0
H1398 H 0.7739 0.18538 0.20698 0.0
H1399 H 0.76682 0.19591 0.29549 0.0
H1400 H 0.72624 0.18604 0.42593 0.0
H1401 H 0.7401 0.19978 0.35784 0.0
H1402 H 0.73773 0.1004 0.20385 0.0
H1403 H 0.7534 0.11469 0.14214 0.0
H1404 H 0.71336 0.10271 0.27911 0.0
H1405 H 0.7047 0.11473 0.36307 0.0
C1406 C 0.58847 0.00344 0.14897 0.0
C1407 C 0.60065 0.9852 0.14604 0.0
C1408 C 0.60922 0.99211 0.00927 0.0
C1409 C 0.59507 0.0088 0.00963 0.0
N1410 N 0.57046 0.03022 0.0772 0.0
N1411 N 0.62234 0.96159 0.07492 0.0
C1412 C 0.58478 0.01471 0.07914 0.0
C1413 C 0.61106 0.97943 0.07664 0.0
N1414 N 0.58007 0.00979 0.21818 0.0
N1415 N 0.62119 0.98876 0.94479 0.0
H1416 H 0.625 0.9526 0.12442 0.0
H1417 H 0.62828 0.95512 0.0241 0.0
H1418 H 0.62036 0.99804 0.89508 0.0
H1419 H 0.63314 0.97806 0.94255 0.0
H1420 H 0.57336 0.02422 0.22638 0.0
H1421 H 0.58076 0.00118 0.26944 0.0
H1422 H 0.56032 0.03345 0.12261 0.0
H1423 H 0.56781 0.03933 0.02814 0.0
C1424 C 0.76244 0.6373 0.8464 0.0
C1425 C 0.75606 0.64799 0.91451 0.0
C1426 C 0.7268 0.66308 0.84362 0.0
C1427 C 0.73365 0.65294 0.77507 0.0
N1428 N 0.75463 0.62708 0.71319 0.0
N1429 N 0.73065 0.66847 0.98287 0.0
C1430 C 0.75047 0.63898 0.77721 0.0
C1431 C 0.7376 0.65987 0.91486 0.0
N1432 N 0.78019 0.6259 0.84777 0.0
N1433 N 0.71077 0.67677 0.83939 0.0
H1434 H 0.73889 0.66812 0.03499 0.0
H1435 H 0.71613 0.67508 0.9893 0.0
H1436 H 0.70192 0.67882 0.78927 0.0
H1437 H 0.70668 0.68685 0.88403 0.0
H1438 H 0.78718 0.61978 0.79828 0.0
H1439 H 0.78853 0.62314 0.8988 0.0
H1440 H 0.76551 0.61528 0.71226 0.0
H1441 H 0.74591 0.62785 0.66209 0.0
C1442 C 0.58966 0.52612 0.03698 0.0
C1443 C 0.59436 0.51765 0.111 0.0
C1444 C 0.6088 0.48683 0.04875 0.0
C1445 C 0.60129 0.49393 0.97587 0.0
N1446 N 0.58214 0.51921 0.90128 0.0
N1447 N 0.60777 0.48992 0.1898 0.0
C1448 C 0.59135 0.51344 0.96972 0.0
C1449 C 0.6039 0.49803 0.1176 0.0
N1450 N 0.58329 0.54618 0.03113 0.0
N1451 N 0.62094 0.46958 0.05164 0.0
H1452 H 0.6054 0.49818 0.24129 0.0
H1453 H 0.61235 0.47471 0.19903 0.0
H1454 H 0.62493 0.46119 0.00191 0.0
H1455 H 0.62852 0.46462 0.10179 0.0
H1456 H 0.58168 0.55389 0.97814 0.0
H1457 H 0.58136 0.55575 0.07951 0.0
H1458 H 0.57259 0.53206 0.89611 0.0
H1459 H 0.58248 0.51028 0.85078 0.0
C1460 C 0.73776 0.36998 0.31469 0.0
C1461 C 0.73536 0.35215 0.36229 0.0
C1462 C 0.76004 0.3333 0.28031 0.0
C1463 C 0.76099 0.35042 0.22894 0.0
N1464 N 0.74982 0.38451 0.1921 0.0
N1465 N 0.74139 0.31556 0.38185 0.0
C1466 C 0.74959 0.36864 0.24475 0.0
C1467 C 0.74565 0.33345 0.34264 0.0
N1468 N 0.72864 0.38815 0.33615 0.0
N1469 N 0.77305 0.31688 0.27032 0.0
H1470 H 0.73144 0.31465 0.42906 0.0
H1471 H 0.74632 0.30107 0.36323 0.0
H1472 H 0.78348 0.31569 0.22442 0.0
H1473 H 0.77492 0.30521 0.31155 0.0
H1474 H 0.73178 0.40227 0.3097 0.0
H1475 H 0.7185 0.38936 0.38315 0.0
H1476 H 0.74001 0.3972 0.19489 0.0
H1477 H 0.75927 0.38453 0.14281 0.0
C1478 C 0.91774 0.46912 0.51924 0.0
C1479 C 0.91177 0.47772 0.5918 0.0
C1480 C 0.89554 0.50686 0.52391 0.0
C1481 C 0.90379 0.4995 0.45248 0.0
N1482 N 0.9267 0.47615 0.38507 0.0
N1483 N 0.89621 0.50534 0.66542 0.0
C1484 C 0.91581 0.48121 0.45066 0.0
C1485 C 0.901 0.49678 0.59481 0.0
N1486 N 0.92542 0.44949 0.51564 0.0
N1487 N 0.88206 0.52309 0.52361 0.0
H1488 H 0.8989 0.49782 0.7183 0.0
H1489 H 0.89059 0.52029 0.67194 0.0
H1490 H 0.87772 0.53075 0.47263 0.0
H1491 H 0.8739 0.52791 0.57262 0.0
H1492 H 0.928 0.44174 0.46329 0.0
H1493 H 0.92742 0.4402 0.56467 0.0
H1494 H 0.93738 0.46416 0.38301 0.0
H1495 H 0.92688 0.48537 0.33528 0.0
C1496 C 0.22072 0.3382 0.33095 0.0
C1497 C 0.22682 0.34773 0.26006 0.0
C1498 C 0.2564 0.36387 0.32519 0.0
C1499 C 0.25035 0.35434 0.39604 0.0
N1500 N 0.22507 0.33543 0.47108 0.0
N1501 N 0.24719 0.37315 0.19241 0.0
C1502 C 0.23184 0.34262 0.40052 0.0
C1503 C 0.24369 0.36167 0.25809 0.0
N1504 N 0.20518 0.32389 0.33084 0.0
N1505 N 0.27453 0.37463 0.32179 0.0
H1506 H 0.23787 0.37213 0.14293 0.0
H1507 H 0.25805 0.38495 0.18905 0.0
H1508 H 0.28362 0.3775 0.37086 0.0
H1509 H 0.28114 0.37983 0.27005 0.0
H1510 H 0.20178 0.31435 0.37798 0.0
H1511 H 0.19634 0.32053 0.28172 0.0
H1512 H 0.21055 0.32896 0.47972 0.0
H1513 H 0.23336 0.33712 0.52275 0.0
C1514 C 0.40659 0.4784 0.06652 0.0
C1515 C 0.40458 0.48753 0.99148 0.0
C1516 C 0.39465 0.52052 0.05172 0.0
C1517 C 0.39954 0.51216 0.12573 0.0
N1518 N 0.41065 0.48366 0.20577 0.0
N1519 N 0.3953 0.5166 0.91082 0.0
C1520 C 0.4053 0.49114 0.1339 0.0
C1521 C 0.39805 0.5084 0.98364 0.0
N1522 N 0.40986 0.45762 0.07367 0.0
N1523 N 0.3864 0.53993 0.04716 0.0
H1524 H 0.39568 0.50769 0.86015 0.0
H1525 H 0.3931 0.53224 0.89987 0.0
H1526 H 0.38376 0.54906 0.09631 0.0
H1527 H 0.38079 0.54652 0.99609 0.0
H1528 H 0.40904 0.44972 0.12645 0.0
H1529 H 0.41185 0.44776 0.02643 0.0
H1530 H 0.41772 0.46944 0.21479 0.0
H1531 H 0.40913 0.49223 0.25687 0.0
C1532 C 0.23286 0.65527 0.77408 0.0
C1533 C 0.24012 0.64649 0.84476 0.0
C1534 C 0.27094 0.63336 0.77845 0.0
C1535 C 0.26382 0.64231 0.70796 0.0
N1536 N 0.23654 0.65842 0.63378 0.0
N1537 N 0.26305 0.6232 0.9115 0.0
C1538 C 0.24419 0.65201 0.70411 0.0
C1539 C 0.25827 0.63428 0.84601 0.0
N1540 N 0.21592 0.66786 0.77474 0.0
N1541 N 0.29003 0.62441 0.78103 0.0
H1542 H 0.25378 0.62326 0.96129 0.0
H1543 H 0.27502 0.61253 0.91442 0.0
H1544 H 0.2992 0.62241 0.73156 0.0
H1545 H 0.29726 0.61987 0.83246 0.0
H1546 H 0.21141 0.67697 0.72771 0.0
H1547 H 0.20687 0.67025 0.82413 0.0
H1548 H 0.22142 0.66336 0.62565 0.0
H1549 H 0.24483 0.65753 0.5818 0.0
C1550 C 0.0749 0.49259 0.44674 0.0
C1551 C 0.08648 0.51117 0.44402 0.0
C1552 C 0.09475 0.50751 0.58299 0.0
C1553 C 0.08432 0.48824 0.5838 0.0
N1554 N 0.06839 0.46026 0.51306 0.0
N1555 N 0.11025 0.53476 0.50516 0.0
C1556 C 0.07581 0.48001 0.51436 0.0
C1557 C 0.09726 0.5182 0.51098 0.0
N1558 N 0.06176 0.4877 0.38717 0.0
N1559 N 0.10192 0.51572 0.65126 0.0
H1560 H 0.11243 0.5429 0.45324 0.0
H1561 H 0.12012 0.53943 0.54974 0.0
H1562 H 0.10129 0.5078 0.70425 0.0
H1563 H 0.10748 0.53075 0.65626 0.0
H1564 H 0.05136 0.47546 0.38947 0.0
H1565 H 0.05954 0.49727 0.33909 0.0
H1566 H 0.06393 0.45278 0.46197 0.0
H1567 H 0.06851 0.45064 0.56177 0.0
loop_
_geom_bond_atom_site_label_1
_geom_bond_atom_site_label_2
_geom_bond_distance
_geom_bond_site_symmetry_2
_ccdc_geom_bond_type
C0 O1 1.160 . S
C0 O7 1.185 . S
O1 C0 1.160 . S
O2 Zn3 1.899 . S
O2 C10 1.284 . S
Zn3 O2 1.899 . S
Zn3 O4 2.032 1_554 S
Zn3 O7 2.086 . S
Zn3 O12 1.977 . S
O4 Zn3 2.032 1_556 S
O4 C8 1.278 . S
C5 O6 1.203 . S
C5 O12 1.267 . S
O6 C5 1.203 . S
O7 C0 1.185 . S
O7 Zn3 2.086 . S
C8 O4 1.278 . S
C8 O9 1.211 . S
O9 C8 1.211 . S
C10 O2 1.284 . S
C10 O11 1.273 . S
O11 C10 1.273 . S
O12 Zn3 1.977 . S
O12 C5 1.267 . S
C13 O14 1.160 . S
C13 O20 1.185 . S
O14 C13 1.160 . S
O15 Zn16 1.899 . S
O15 C23 1.284 . S
Zn16 O15 1.899 . S
Zn16 O17 2.032 . S
Zn16 O20 2.086 . S
Zn16 O25 1.977 . S
O17 Zn16 2.032 . S
O17 C21 1.278 . S
C18 O19 1.203 . S
C18 O25 1.267 . S
O19 C18 1.203 . S
O20 C13 1.185 . S
O20 Zn16 2.086 . S
C21 O17 1.278 . S
C21 O22 1.211 . S
O22 C21 1.211 . S
C23 O15 1.284 . S
C23 O24 1.273 . S
O24 C23 1.273 . S
O25 Zn16 1.977 . S
O25 C18 1.267 . S
C26 O27 1.160 . S
C26 O33 1.185 . S
O27 C26 1.160 . S
O28 Zn29 1.899 . S
O28 C36 1.284 . S
Zn29 O28 1.899 . S
Zn29 O30 2.032 . S
Zn29 O33 2.086 . S
Zn29 O38 1.977 . S
O30 Zn29 2.032 . S
O30 C34 1.278 . S
C31 O32 1.203 . S
C31 O38 1.267 . S
O32 C31 1.203 . S
O33 C26 1.185 . S
O33 Zn29 2.086 . S
C34 O30 1.278 . S
C34 O35 1.211 . S
O35 C34 1.211 . S
C36 O28 1.284 . S
C36 O37 1.273 . S
O37 C36 1.273 . S
O38 Zn29 1.977 . S
O38 C31 1.267 . S
C39 O40 1.160 . S
C39 O46 1.185 . S
O40 C39 1.160 . S
O41 Zn42 1.899 . S
O41 C49 1.284 . S
Zn42 O41 1.899 . S
Zn42 O43 2.032 . S
Zn42 O46 2.086 . S
Zn42 O51 1.977 . S
O43 Zn42 2.032 . S
O43 C47 1.278 . S
C44 O45 1.203 . S
C44 O51 1.267 . S
O45 C44 1.203 . S
O46 C39 1.185 . S
O46 Zn42 2.086 . S
C47 O43 1.278 . S
C47 O48 1.211 . S
O48 C47 1.211 . S
C49 O41 1.284 . S
C49 O50 1.273 . S
O50 C49 1.273 . S
O51 Zn42 1.977 . S
O51 C44 1.267 . S
C52 O53 1.160 . S
C52 O59 1.185 . S
O53 C52 1.160 . S
O54 Zn55 1.899 1_556 S
O54 C62 1.284 . S
Zn55 O54 1.899 1_554 S
Zn55 O56 2.032 . S
Zn55 O59 2.086 . S
Zn55 O64 1.977 . S
O56 Zn55 2.032 . S
O56 C60 1.278 . S
C57 O58 1.203 . S
C57 O64 1.267 . S
O58 C57 1.203 . S
O59 C52 1.185 . S
O59 Zn55 2.086 . S
C60 O56 1.278 . S
C60 O61 1.211 . S
O61 C60 1.211 . S
C62 O54 1.284 . S
C62 O63 1.273 . S
O63 C62 1.273 . S
O64 Zn55 1.977 . S
O64 C57 1.267 . S
C65 O66 1.160 . S
C65 O72 1.185 . S
O66 C65 1.160 . S
O67 Zn68 1.899 . S
O67 C75 1.284 . S
Zn68 O67 1.899 . S
Zn68 O69 2.032 . S
Zn68 O72 2.086 . S
Zn68 O77 1.977 . S
O69 Zn68 2.032 . S
O69 C73 1.278 . S
C70 O71 1.203 . S
C70 O77 1.267 . S
O71 C70 1.203 . S
O72 C65 1.185 . S
O72 Zn68 2.086 . S
C73 O69 1.278 . S
C73 O74 1.211 . S
O74 C73 1.211 . S
C75 O67 1.284 . S
C75 O76 1.273 . S
O76 C75 1.273 . S
O77 Zn68 1.977 . S
O77 C70 1.267 . S
C78 O79 1.160 . S
C78 O85 1.185 . S
O79 C78 1.160 . S
O80 Zn81 1.899 . S
O80 C88 1.284 . S
Zn81 O80 1.899 . S
Zn81 O82 2.032 . S
Zn81 O85 2.086 . S
Zn81 O90 1.977 . S
O82 Zn81 2.032 . S
O82 C86 1.278 . S
C83 O84 1.203 . S
C83 O90 1.267 . S
O84 C83 1.203 . S
O85 C78 1.185 . S
O85 Zn81 2.086 . S
C86 O82 1.278 . S
C86 O87 1.211 . S
O87 C86 1.211 . S
C88 O80 1.284 . S
C88 O89 1.273 . S
O89 C88 1.273 . S
O90 Zn81 1.977 . S
O90 C83 1.267 . S
C91 O92 1.160 . S
C91 O98 1.185 . S
O92 C91 1.160 . S
O93 Zn94 1.899 . S
O93 C101 1.284 . S
Zn94 O93 1.899 . S
Zn94 O95 2.032 . S
Zn94 O98 2.086 . S
Zn94 O103 1.977 . S
O95 Zn94 2.032 . S
O95 C99 1.278 . S
C96 O97 1.203 . S
C96 O103 1.267 . S
O97 C96 1.203 . S
O98 C91 1.185 . S
O98 Zn94 2.086 . S
C99 O95 1.278 . S
C99 O100 1.211 . S
O100 C99 1.211 . S
C101 O93 1.284 . S
C101 O102 1.273 . S
O102 C101 1.273 . S
O103 Zn94 1.977 . S
O103 C96 1.267 . S
C104 O105 1.160 . S
C104 O111 1.185 . S
O105 C104 1.160 . S
O106 Zn107 1.899 1_556 S
O106 C114 1.284 . S
Zn107 O106 1.899 1_554 S
Zn107 O108 2.032 . S
Zn107 O111 2.086 . S
Zn107 O116 1.977 . S
O108 Zn107 2.032 . S
O108 C112 1.278 . S
C109 O110 1.203 . S
C109 O116 1.267 . S
O110 C109 1.203 . S
O111 C104 1.185 . S
O111 Zn107 2.086 . S
C112 O108 1.278 . S
C112 O113 1.211 . S
O113 C112 1.211 . S
C114 O106 1.284 . S
C114 O115 1.273 . S
O115 C114 1.273 . S
O116 Zn107 1.977 . S
O116 C109 1.267 . S
C117 O118 1.160 . S
C117 O124 1.185 . S
O118 C117 1.160 . S
O119 Zn120 1.899 . S
O119 C127 1.284 . S
Zn120 O119 1.899 . S
Zn120 O121 2.032 . S
Zn120 O124 2.086 . S
Zn120 O129 1.977 . S
O121 Zn120 2.032 . S
O121 C125 1.278 . S
C122 O123 1.203 . S
C122 O129 1.267 . S
O123 C122 1.203 . S
O124 C117 1.185 . S
O124 Zn120 2.086 . S
C125 O121 1.278 . S
C125 O126 1.211 . S
O126 C125 1.211 . S
C127 O119 1.284 . S
C127 O128 1.273 . S
O128 C127 1.273 . S
O129 Zn120 1.977 . S
O129 C122 1.267 . S
C130 O131 1.160 . S
C130 O137 1.185 . S
O131 C130 1.160 . S
O132 Zn133 1.899 . S
O132 C140 1.284 . S
Zn133 O132 1.899 . S
Zn133 O134 2.032 . S
Zn133 O137 2.086 . S
Zn133 O142 1.977 . S
O134 Zn133 2.032 . S
O134 C138 1.278 . S
C135 O136 1.203 . S
C135 O142 1.267 . S
O136 C135 1.203 . S
O137 C130 1.185 . S
O137 Zn133 2.086 . S
C138 O134 1.278 . S
C138 O139 1.211 . S
O139 C138 1.211 . S
C140 O132 1.284 . S
C140 O141 1.273 . S
O141 C140 1.273 . S
O142 Zn133 1.977 . S
O142 C135 1.267 . S
C143 O144 1.160 . S
C143 O150 1.185 . S
O144 C143 1.160 . S
O145 Zn146 1.899 . S
O145 C153 1.284 . S
Zn146 O145 1.899 . S
Zn146 O147 2.032 . S
Zn146 O150 2.086 . S
Zn146 O155 1.977 . S
O147 Zn146 2.032 . S
O147 C151 1.278 . S
C148 O149 1.203 . S
C148 O155 1.267 . S
O149 C148 1.203 . S
O150 C143 1.185 . S
O150 Zn146 2.086 . S
C151 O147 1.278 . S
C151 O152 1.211 . S
O152 C151 1.211 . S
C153 O145 1.284 . S
C153 O154 1.273 . S
O154 C153 1.273 . S
O155 Zn146 1.977 . S
O155 C148 1.267 . S
C156 O157 1.160 . S
C156 O163 1.185 . S
O157 C156 1.160 . S
O158 Zn159 1.899 . S
O158 C166 1.284 . S
Zn159 O158 1.899 . S
Zn159 O160 2.032 1_554 S
Zn159 O163 2.086 . S
Zn159 O168 1.977 . S
O160 Zn159 2.032 1_556 S
O160 C164 1.278 . S
C161 O162 1.203 . S
C161 O168 1.267 . S
O162 C161 1.203 . S
O163 C156 1.185 . S
O163 Zn159 2.086 . S
C164 O160 1.278 . S
C164 O165 1.211 . S
O165 C164 1.211 . S
C166 O158 1.284 . S
C166 O167 1.273 . S
O167 C166 1.273 . S
O168 Zn159 1.977 . S
O168 C161 1.267 . S
C169 O170 1.160 . S
C169 O176 1.185 . S
O170 C169 1.160 . S
O171 Zn172 1.899 . S
O171 C179 1.284 . S
Zn172 O171 1.899 . S
Zn172 O173 2.032 . S
Zn172 O176 2.086 . S
Zn172 O181 1.977 . S
O173 Zn172 2.032 . S
O173 C177 1.278 . S
C174 O175 1.203 . S
C174 O181 1.267 . S
O175 C174 1.203 . S
O176 C169 1.185 . S
O176 Zn172 2.086 . S
C177 O173 1.278 . S
C177 O178 1.211 . S
O178 C177 1.211 . S
C179 O171 1.284 . S
C179 O180 1.273 . S
O180 C179 1.273 . S
O181 Zn172 1.977 . S
O181 C174 1.267 . S
C182 O183 1.160 . S
C182 O189 1.185 . S
O183 C182 1.160 . S
O184 Zn185 1.899 . S
O184 C192 1.284 . S
Zn185 O184 1.899 . S
Zn185 O186 2.032 . S
Zn185 O189 2.086 . S
Zn185 O194 1.977 . S
O186 Zn185 2.032 . S
O186 C190 1.278 . S
C187 O188 1.203 . S
C187 O194 1.267 . S
O188 C187 1.203 . S
O189 C182 1.185 . S
O189 Zn185 2.086 . S
C190 O186 1.278 . S
C190 O191 1.211 . S
O191 C190 1.211 . S
C192 O184 1.284 . S
C192 O193 1.273 . S
O193 C192 1.273 . S
O194 Zn185 1.977 . S
O194 C187 1.267 . S
C195 O196 1.160 . S
C195 O202 1.185 . S
O196 C195 1.160 . S
O197 Zn198 1.899 . S
O197 C205 1.284 . S
Zn198 O197 1.899 . S
Zn198 O199 2.032 . S
Zn198 O202 2.086 . S
Zn198 O207 1.977 . S
O199 Zn198 2.032 . S
O199 C203 1.278 . S
C200 O201 1.203 . S
C200 O207 1.267 . S
O201 C200 1.203 . S
O202 C195 1.185 . S
O202 Zn198 2.086 . S
C203 O199 1.278 . S
C203 O204 1.211 . S
O204 C203 1.211 . S
C205 O197 1.284 . S
C205 O206 1.273 . S
O206 C205 1.273 . S
O207 Zn198 1.977 . S
O207 C200 1.267 . S
C208 O209 1.160 . S
C208 O215 1.185 . S
O209 C208 1.160 . S
O210 Zn211 1.899 . S
O210 C218 1.284 . S
Zn211 O210 1.899 . S
Zn211 O212 2.032 . S
Zn211 O215 2.086 . S
Zn211 O220 1.977 . S
O212 Zn211 2.032 . S
O212 C216 1.278 . S
C213 O214 1.203 . S
C213 O220 1.267 . S
O214 C213 1.203 . S
O215 C208 1.185 . S
O215 Zn211 2.086 . S
C216 O212 1.278 . S
C216 O217 1.211 . S
O217 C216 1.211 . S
C218 O210 1.284 . S
C218 O219 1.273 . S
O219 C218 1.273 . S
O220 Zn211 1.977 . S
O220 C213 1.267 . S
C221 O222 1.160 . S
C221 O228 1.185 . S
O222 C221 1.160 . S
O223 Zn224 1.899 . S
O223 C231 1.284 . S
Zn224 O223 1.899 . S
Zn224 O225 2.032 . S
Zn224 O228 2.086 . S
Zn224 O233 1.977 . S
O225 Zn224 2.032 . S
O225 C229 1.278 . S
C226 O227 1.203 . S
C226 O233 1.267 . S
O227 C226 1.203 . S
O228 C221 1.185 . S
O228 Zn224 2.086 . S
C229 O225 1.278 . S
C229 O230 1.211 . S
O230 C229 1.211 . S
C231 O223 1.284 . S
C231 O232 1.273 . S
O232 C231 1.273 . S
O233 Zn224 1.977 . S
O233 C226 1.267 . S
C234 O235 1.160 . S
C234 O241 1.185 . S
O235 C234 1.160 . S
O236 Zn237 1.899 . S
O236 C244 1.284 . S
Zn237 O236 1.899 . S
Zn237 O238 2.032 1_554 S
Zn237 O241 2.086 . S
Zn237 O246 1.977 . S
O238 Zn237 2.032 1_556 S
O238 C242 1.278 . S
C239 O240 1.203 . S
C239 O246 1.267 . S
O240 C239 1.203 . S
O241 C234 1.185 . S
O241 Zn237 2.086 . S
C242 O238 1.278 . S
C242 O243 1.211 . S
O243 C242 1.211 . S
C244 O236 1.284 . S
C244 O245 1.273 . S
O245 C244 1.273 . S
O246 Zn237 1.977 . S
O246 C239 1.267 . S
C247 O248 1.160 . S
C247 O254 1.185 . S
O248 C247 1.160 . S
O249 Zn250 1.899 . S
O249 C257 1.284 . S
Zn250 O249 1.899 . S
Zn250 O251 2.032 . S
Zn250 O254 2.086 . S
Zn250 O259 1.977 . S
O251 Zn250 2.032 . S
O251 C255 1.278 . S
C252 O253 1.203 . S
C252 O259 1.267 . S
O253 C252 1.203 . S
O254 C247 1.185 . S
O254 Zn250 2.086 . S
C255 O251 1.278 . S
C255 O256 1.211 . S
O256 C255 1.211 . S
C257 O249 1.284 . S
C257 O258 1.273 . S
O258 C257 1.273 . S
O259 Zn250 1.977 . S
O259 C252 1.267 . S
C260 O261 1.160 . S
C260 O267 1.185 . S
O261 C260 1.160 . S
O262 Zn263 1.899 . S
O262 C270 1.284 . S
Zn263 O262 1.899 . S
Zn263 O264 2.032 . S
Zn263 O267 2.086 . S
Zn263 O272 1.977 . S
O264 Zn263 2.032 . S
O264 C268 1.278 . S
C265 O266 1.203 . S
C265 O272 1.267 . S
O266 C265 1.203 . S
O267 C260 1.185 . S
O267 Zn263 2.086 . S
C268 O264 1.278 . S
C268 O269 1.211 . S
O269 C268 1.211 . S
C270 O262 1.284 . S
C270 O271 1.273 . S
O271 C270 1.273 . S
O272 Zn263 1.977 . S
O272 C265 1.267 . S
C273 O274 1.160 . S
C273 O280 1.185 . S
O274 C273 1.160 . S
O275 Zn276 1.899 . S
O275 C283 1.284 . S
Zn276 O275 1.899 . S
Zn276 O277 2.032 . S
Zn276 O280 2.086 . S
Zn276 O285 1.977 . S
O277 Zn276 2.032 . S
O277 C281 1.278 . S
C278 O279 1.203 . S
C278 O285 1.267 . S
O279 C278 1.203 . S
O280 C273 1.185 . S
O280 Zn276 2.086 . S
C281 O277 1.278 . S
C281 O282 1.211 . S
O282 C281 1.211 . S
C283 O275 1.284 . S
C283 O284 1.273 . S
O284 C283 1.273 . S
O285 Zn276 1.977 . S
O285 C278 1.267 . S
C286 O287 1.160 . S
C286 O293 1.185 . S
O287 C286 1.160 . S
O288 Zn289 1.899 1_556 S
O288 C296 1.284 . S
Zn289 O288 1.899 1_554 S
Zn289 O290 2.032 . S
Zn289 O293 2.086 . S
Zn289 O298 1.977 . S
O290 Zn289 2.032 . S
O290 C294 1.278 . S
C291 O292 1.203 . S
C291 O298 1.267 . S
O292 C291 1.203 . S
O293 C286 1.185 . S
O293 Zn289 2.086 . S
C294 O290 1.278 . S
C294 O295 1.211 . S
O295 C294 1.211 . S
C296 O288 1.284 . S
C296 O297 1.273 . S
O297 C296 1.273 . S
O298 Zn289 1.977 . S
O298 C291 1.267 . S
C299 O300 1.160 . S
C299 O306 1.185 . S
O300 C299 1.160 . S
O301 Zn302 1.899 . S
O301 C309 1.284 . S
Zn302 O301 1.899 . S
Zn302 O303 2.032 . S
Zn302 O306 2.086 . S
Zn302 O311 1.977 . S
O303 Zn302 2.032 . S
O303 C307 1.278 . S
C304 O305 1.203 . S
C304 O311 1.267 . S
O305 C304 1.203 . S
O306 C299 1.185 . S
O306 Zn302 2.086 . S
C307 O303 1.278 . S
C307 O308 1.211 . S
O308 C307 1.211 . S
C309 O301 1.284 . S
C309 O310 1.273 . S
O310 C309 1.273 . S
O311 Zn302 1.977 . S
O311 C304 1.267 . S
C312 O313 1.160 . S
C312 O319 1.185 . S
O313 C312 1.160 . S
O314 Zn315 1.899 . S
O314 C322 1.284 . S
Zn315 O314 1.899 . S
Zn315 O316 2.032 . S
Zn315 O319 2.086 . S
Zn315 O324 1.977 . S
O316 Zn315 2.032 . S
O316 C320 1.278 . S
C317 O318 1.203 . S
C317 O324 1.267 . S
O318 C317 1.203 . S
O319 C312 1.185 . S
O319 Zn315 2.086 . S
C320 O316 1.278 . S
C320 O321 1.211 . S
O321 C320 1.211 . S
C322 O314 1.284 . S
C322 O323 1.273 . S
O323 C322 1.273 . S
O324 Zn315 1.977 . S
O324 C317 1.267 . S
C325 O326 1.160 . S
C325 O332 1.185 . S
O326 C325 1.160 . S
O327 Zn328 1.899 . S
O327 C335 1.284 . S
Zn328 O327 1.899 . S
Zn328 O329 2.032 . S
Zn328 O332 2.086 . S
Zn328 O337 1.977 . S
O329 Zn328 2.032 . S
O329 C333 1.278 . S
C330 O331 1.203 . S
C330 O337 1.267 . S
O331 C330 1.203 . S
O332 C325 1.185 . S
O332 Zn328 2.086 . S
C333 O329 1.278 . S
C333 O334 1.211 . S
O334 C333 1.211 . S
C335 O327 1.284 . S
C335 O336 1.273 . S
O336 C335 1.273 . S
O337 Zn328 1.977 . S
O337 C330 1.267 . S
C338 O339 1.160 . S
C338 O345 1.185 . S
O339 C338 1.160 . S
O340 Zn341 1.899 1_556 S
O340 C348 1.284 . S
Zn341 O340 1.899 1_554 S
Zn341 O342 2.032 . S
Zn341 O345 2.086 . S
Zn341 O350 1.977 . S
O342 Zn341 2.032 . S
O342 C346 1.278 . S
C343 O344 1.203 . S
C343 O350 1.267 . S
O344 C343 1.203 . S
O345 C338 1.185 . S
O345 Zn341 2.086 . S
C346 O342 1.278 . S
C346 O347 1.211 . S
O347 C346 1.211 . S
C348 O340 1.284 . S
C348 O349 1.273 . S
O349 C348 1.273 . S
O350 Zn341 1.977 . S
O350 C343 1.267 . S
C351 O352 1.160 . S
C351 O358 1.185 . S
O352 C351 1.160 . S
O353 Zn354 1.899 . S
O353 C361 1.284 . S
Zn354 O353 1.899 . S
Zn354 O355 2.032 . S
Zn354 O358 2.086 . S
Zn354 O363 1.977 . S
O355 Zn354 2.032 . S
O355 C359 1.278 . S
C356 O357 1.203 . S
C356 O363 1.267 . S
O357 C356 1.203 . S
O358 C351 1.185 . S
O358 Zn354 2.086 . S
C359 O355 1.278 . S
C359 O360 1.211 . S
O360 C359 1.211 . S
C361 O353 1.284 . S
C361 O362 1.273 . S
O362 C361 1.273 . S
O363 Zn354 1.977 . S
O363 C356 1.267 . S
C364 O365 1.160 . S
C364 O371 1.185 . S
O365 C364 1.160 . S
O366 Zn367 1.899 . S
O366 C374 1.284 . S
Zn367 O366 1.899 . S
Zn367 O368 2.032 . S
Zn367 O371 2.086 . S
Zn367 O376 1.977 . S
O368 Zn367 2.032 . S
O368 C372 1.278 . S
C369 O370 1.203 . S
C369 O376 1.267 . S
O370 C369 1.203 . S
O371 C364 1.185 . S
O371 Zn367 2.086 . S
C372 O368 1.278 . S
C372 O373 1.211 . S
O373 C372 1.211 . S
C374 O366 1.284 . S
C374 O375 1.273 . S
O375 C374 1.273 . S
O376 Zn367 1.977 . S
O376 C369 1.267 . S
C377 O378 1.160 . S
C377 O384 1.185 . S
O378 C377 1.160 . S
O379 Zn380 1.899 . S
O379 C387 1.284 . S
Zn380 O379 1.899 . S
Zn380 O381 2.032 . S
Zn380 O384 2.086 . S
Zn380 O389 1.977 . S
O381 Zn380 2.032 . S
O381 C385 1.278 . S
C382 O383 1.203 . S
C382 O389 1.267 . S
O383 C382 1.203 . S
O384 C377 1.185 . S
O384 Zn380 2.086 . S
C385 O381 1.278 . S
C385 O386 1.211 . S
O386 C385 1.211 . S
C387 O379 1.284 . S
C387 O388 1.273 . S
O388 C387 1.273 . S
O389 Zn380 1.977 . S
O389 C382 1.267 . S
C390 O391 1.160 . S
C390 O397 1.185 . S
O391 C390 1.160 . S
O392 Zn393 1.899 . S
O392 C400 1.284 . S
Zn393 O392 1.899 . S
Zn393 O394 2.032 1_554 S
Zn393 O397 2.086 . S
Zn393 O402 1.977 . S
O394 Zn393 2.032 1_556 S
O394 C398 1.278 . S
C395 O396 1.203 . S
C395 O402 1.267 . S
O396 C395 1.203 . S
O397 C390 1.185 . S
O397 Zn393 2.086 . S
C398 O394 1.278 . S
C398 O399 1.211 . S
O399 C398 1.211 . S
C400 O392 1.284 . S
C400 O401 1.273 . S
O401 C400 1.273 . S
O402 Zn393 1.977 . S
O402 C395 1.267 . S
C403 O404 1.160 . S
C403 O410 1.185 . S
O404 C403 1.160 . S
O405 Zn406 1.899 . S
O405 C413 1.284 . S
Zn406 O405 1.899 . S
Zn406 O407 2.032 . S
Zn406 O410 2.086 . S
Zn406 O415 1.977 . S
O407 Zn406 2.032 . S
O407 C411 1.278 . S
C408 O409 1.203 . S
C408 O415 1.267 . S
O409 C408 1.203 . S
O410 C403 1.185 . S
O410 Zn406 2.086 . S
C411 O407 1.278 . S
C411 O412 1.211 . S
O412 C411 1.211 . S
C413 O405 1.284 . S
C413 O414 1.273 . S
O414 C413 1.273 . S
O415 Zn406 1.977 . S
O415 C408 1.267 . S
C416 C417 1.363 . S
C416 C422 1.379 1_556 S
C416 N424 1.356 . S
C417 C416 1.363 . S
C417 C423 1.363 . S
C418 C419 1.363 . S
C418 C423 1.379 . S
C418 N425 1.356 . S
C419 C418 1.363 . S
C419 C422 1.363 1_556 S
N420 C422 1.356 . S
N420 H432 0.984 . S
N420 H433 0.985 . S
N421 C423 1.356 . S
N421 H426 0.984 . S
N421 H427 0.985 . S
C422 C416 1.379 1_554 S
C422 C419 1.363 1_554 S
C422 N420 1.356 . S
C423 C417 1.363 . S
C423 C418 1.379 . S
C423 N421 1.356 . S
N424 C416 1.356 . S
N424 H430 0.984 1_556 S
N424 H431 0.984 . S
N425 C418 1.356 . S
N425 H428 0.984 . S
N425 H429 0.985 . S
H426 N421 0.984 . S
H427 N421 0.985 . S
H428 N425 0.984 . S
H429 N425 0.985 . S
H430 N424 0.984 1_554 S
H431 N424 0.984 . S
H432 N420 0.984 . S
H433 N420 0.985 . S
C434 C435 1.363 . S
C434 C440 1.379 . S
C434 N442 1.356 . S
C435 C434 1.363 . S
C435 C441 1.363 . S
C436 C437 1.363 . S
C436 C441 1.379 . S
C436 N443 1.356 . S
C437 C436 1.363 . S
C437 C440 1.363 . S
N438 C440 1.356 . S
N438 H450 0.984 . S
N438 H451 0.985 . S
N439 C441 1.356 . S
N439 H444 0.984 . S
N439 H445 0.985 . S
C440 C434 1.379 . S
C440 C437 1.363 . S
C440 N438 1.356 . S
C441 C435 1.363 . S
C441 C436 1.379 . S
C441 N439 1.356 . S
N442 C434 1.356 . S
N442 H448 0.984 . S
N442 H449 0.984 . S
N443 C436 1.356 . S
N443 H446 0.984 . S
N443 H447 0.985 . S
H444 N439 0.984 . S
H445 N439 0.985 . S
H446 N443 0.984 . S
H447 N443 0.985 . S
H448 N442 0.984 . S
H449 N442 0.984 . S
H450 N438 0.984 . S
H451 N438 0.985 . S
C452 C453 1.363 . S
C452 C458 1.379 . S
C452 N460 1.356 . S
C453 C452 1.363 . S
C453 C459 1.363 . S
C454 C455 1.363 . S
C454 C459 1.379 . S
C454 N461 1.356 . S
C455 C454 1.363 . S
C455 C458 1.363 . S
N456 C458 1.356 . S
N456 H468 0.984 . S
N456 H469 0.985 . S
N457 C459 1.356 . S
N457 H462 0.984 . S
N457 H463 0.985 . S
C458 C452 1.379 . S
C458 C455 1.363 . S
C458 N456 1.356 . S
C459 C453 1.363 . S
C459 C454 1.379 . S
C459 N457 1.356 . S
N460 C452 1.356 . S
N460 H466 0.984 . S
N460 H467 0.984 . S
N461 C454 1.356 . S
N461 H464 0.984 . S
N461 H465 0.985 . S
H462 N457 0.984 . S
H463 N457 0.985 . S
H464 N461 0.984 . S
H465 N461 0.985 . S
H466 N460 0.984 . S
H467 N460 0.984 . S
H468 N456 0.984 . S
H469 N456 0.985 . S
C470 C471 1.363 . S
C470 C476 1.379 . S
C470 N478 1.356 . S
C471 C470 1.363 . S
C471 C477 1.363 . S
C472 C473 1.363 . S
C472 C477 1.379 . S
C472 N479 1.356 . S
C473 C472 1.363 . S
C473 C476 1.363 . S
N474 C476 1.356 . S
N474 H486 0.984 . S
N474 H487 0.985 . S
N475 C477 1.356 . S
N475 H480 0.984 . S
N475 H481 0.985 . S
C476 C470 1.379 . S
C476 C473 1.363 . S
C476 N474 1.356 . S
C477 C471 1.363 . S
C477 C472 1.379 . S
C477 N475 1.356 . S
N478 C470 1.356 . S
N478 H484 0.984 . S
N478 H485 0.984 . S
N479 C472 1.356 . S
N479 H482 0.984 . S
N479 H483 0.985 . S
H480 N475 0.984 . S
H481 N475 0.985 . S
H482 N479 0.984 . S
H483 N479 0.985 . S
H484 N478 0.984 . S
H485 N478 0.984 . S
H486 N474 0.984 . S
H487 N474 0.985 . S
C488 C489 1.363 . S
C488 C494 1.379 . S
C488 N496 1.356 . S
C489 C488 1.363 . S
C489 C495 1.363 . S
C490 C491 1.363 . S
C490 C495 1.379 . S
C490 N497 1.356 . S
C491 C490 1.363 . S
C491 C494 1.363 . S
N492 C494 1.356 . S
N492 H504 0.984 . S
N492 H505 0.985 . S
N493 C495 1.356 . S
N493 H498 0.984 . S
N493 H499 0.985 . S
C494 C488 1.379 . S
C494 C491 1.363 . S
C494 N492 1.356 . S
C495 C489 1.363 . S
C495 C490 1.379 . S
C495 N493 1.356 . S
N496 C488 1.356 . S
N496 H502 0.984 . S
N496 H503 0.984 . S
N497 C490 1.356 . S
N497 H500 0.984 . S
N497 H501 0.985 . S
H498 N493 0.984 . S
H499 N493 0.985 . S
H500 N497 0.984 . S
H501 N497 0.985 . S
H502 N496 0.984 . S
H503 N496 0.984 . S
H504 N492 0.984 . S
H505 N492 0.985 . S
C506 C507 1.363 . S
C506 C512 1.379 . S
C506 N514 1.356 . S
C507 C506 1.363 . S
C507 C513 1.363 . S
C508 C509 1.363 . S
C508 C513 1.379 . S
C508 N515 1.356 1_556 S
C509 C508 1.363 . S
C509 C512 1.363 . S
N510 C512 1.356 . S
N510 H522 0.984 . S
N510 H523 0.985 . S
N511 C513 1.356 . S
N511 H516 0.984 . S
N511 H517 0.985 . S
C512 C506 1.379 . S
C512 C509 1.363 . S
C512 N510 1.356 . S
C513 C507 1.363 . S
C513 C508 1.379 . S
C513 N511 1.356 . S
N514 C506 1.356 . S
N514 H520 0.984 . S
N514 H521 0.984 . S
N515 C508 1.356 1_554 S
N515 H518 0.984 . S
N515 H519 0.985 . S
H516 N511 0.984 . S
H517 N511 0.985 . S
H518 N515 0.984 . S
H519 N515 0.985 . S
H520 N514 0.984 . S
H521 N514 0.984 . S
H522 N510 0.984 . S
H523 N510 0.985 . S
C524 C525 1.363 . S
C524 C530 1.379 . S
C524 N532 1.356 . S
C525 C524 1.363 . S
C525 C531 1.363 . S
C526 C527 1.363 . S
C526 C531 1.379 . S
C526 N533 1.356 . S
C527 C526 1.363 . S
C527 C530 1.363 . S
N528 C530 1.356 . S
N528 H540 0.984 . S
N528 H541 0.985 . S
N529 C531 1.356 . S
N529 H534 0.984 . S
N529 H535 0.985 . S
C530 C524 1.379 . S
C530 C527 1.363 . S
C530 N528 1.356 . S
C531 C525 1.363 . S
C531 C526 1.379 . S
C531 N529 1.356 . S
N532 C524 1.356 . S
N532 H538 0.984 . S
N532 H539 0.984 . S
N533 C526 1.356 . S
N533 H536 0.984 . S
N533 H537 0.985 . S
H534 N529 0.984 . S
H535 N529 0.985 . S
H536 N533 0.984 . S
H537 N533 0.985 . S
H538 N532 0.984 . S
H539 N532 0.984 . S
H540 N528 0.984 . S
H541 N528 0.985 . S
C542 C543 1.363 . S
C542 C548 1.379 . S
C542 N550 1.356 . S
C543 C542 1.363 . S
C543 C549 1.363 . S
C544 C545 1.363 . S
C544 C549 1.379 . S
C544 N551 1.356 . S
C545 C544 1.363 . S
C545 C548 1.363 . S
N546 C548 1.356 . S
N546 H558 0.984 . S
N546 H559 0.985 . S
N547 C549 1.356 . S
N547 H552 0.984 . S
N547 H553 0.985 . S
C548 C542 1.379 . S
C548 C545 1.363 . S
C548 N546 1.356 . S
C549 C543 1.363 . S
C549 C544 1.379 . S
C549 N547 1.356 . S
N550 C542 1.356 . S
N550 H556 0.984 . S
N550 H557 0.984 . S
N551 C544 1.356 . S
N551 H554 0.984 . S
N551 H555 0.985 . S
H552 N547 0.984 . S
H553 N547 0.985 . S
H554 N551 0.984 . S
H555 N551 0.985 . S
H556 N550 0.984 . S
H557 N550 0.984 . S
H558 N546 0.984 . S
H559 N546 0.985 . S
C560 C561 1.363 . S
C560 C566 1.379 . S
C560 N568 1.356 . S
C561 C560 1.363 . S
C561 C567 1.363 . S
C562 C563 1.363 . S
C562 C567 1.379 . S
C562 N569 1.356 . S
C563 C562 1.363 . S
C563 C566 1.363 . S
N564 C566 1.356 . S
N564 H576 0.984 . S
N564 H577 0.985 . S
N565 C567 1.356 . S
N565 H570 0.984 . S
N565 H571 0.985 . S
C566 C560 1.379 . S
C566 C563 1.363 . S
C566 N564 1.356 . S
C567 C561 1.363 . S
C567 C562 1.379 . S
C567 N565 1.356 . S
N568 C560 1.356 . S
N568 H574 0.984 . S
N568 H575 0.984 . S
N569 C562 1.356 . S
N569 H572 0.984 . S
N569 H573 0.985 . S
H570 N565 0.984 . S
H571 N565 0.985 . S
H572 N569 0.984 . S
H573 N569 0.985 . S
H574 N568 0.984 . S
H575 N568 0.984 . S
H576 N564 0.984 . S
H577 N564 0.985 . S
C578 C579 1.363 . S
C578 C584 1.379 . S
C578 N586 1.356 . S
C579 C578 1.363 . S
C579 C585 1.363 . S
C580 C581 1.363 . S
C580 C585 1.379 . S
C580 N587 1.356 . S
C581 C580 1.363 . S
C581 C584 1.363 . S
N582 C584 1.356 . S
N582 H594 0.984 . S
N582 H595 0.985 . S
N583 C585 1.356 . S
N583 H588 0.984 . S
N583 H589 0.985 . S
C584 C578 1.379 . S
C584 C581 1.363 . S
C584 N582 1.356 . S
C585 C579 1.363 . S
C585 C580 1.379 . S
C585 N583 1.356 . S
N586 C578 1.356 . S
N586 H592 0.984 . S
N586 H593 0.984 . S
N587 C580 1.356 . S
N587 H590 0.984 . S
N587 H591 0.985 . S
H588 N583 0.984 . S
H589 N583 0.985 . S
H590 N587 0.984 . S
H591 N587 0.985 . S
H592 N586 0.984 . S
H593 N586 0.984 . S
H594 N582 0.984 . S
H595 N582 0.985 . S
C596 C597 1.363 . S
C596 C602 1.379 . S
C596 N604 1.356 . S
C597 C596 1.363 . S
C597 C603 1.363 . S
C598 C599 1.363 . S
C598 C603 1.379 . S
C598 N605 1.356 . S
C599 C598 1.363 . S
C599 C602 1.363 . S
N600 C602 1.356 1_554 S
N600 H612 0.984 . S
N600 H613 0.985 . S
N601 C603 1.356 . S
N601 H606 0.984 . S
N601 H607 0.985 . S
C602 C596 1.379 . S
C602 C599 1.363 . S
C602 N600 1.356 1_556 S
C603 C597 1.363 . S
C603 C598 1.379 . S
C603 N601 1.356 . S
N604 C596 1.356 . S
N604 H610 0.984 . S
N604 H611 0.984 . S
N605 C598 1.356 . S
N605 H608 0.984 . S
N605 H609 0.985 . S
H606 N601 0.984 . S
H607 N601 0.985 . S
H608 N605 0.984 . S
H609 N605 0.985 . S
H610 N604 0.984 . S
H611 N604 0.984 . S
H612 N600 0.984 . S
H613 N600 0.985 . S
C614 C615 1.363 . S
C614 C620 1.379 . S
C614 N622 1.356 . S
C615 C614 1.363 . S
C615 C621 1.363 . S
C616 C617 1.363 . S
C616 C621 1.379 . S
C616 N623 1.356 . S
C617 C616 1.363 . S
C617 C620 1.363 . S
N618 C620 1.356 . S
N618 H630 0.984 . S
N618 H631 0.985 . S
N619 C621 1.356 . S
N619 H624 0.984 . S
N619 H625 0.985 . S
C620 C614 1.379 . S
C620 C617 1.363 . S
C620 N618 1.356 . S
C621 C615 1.363 . S
C621 C616 1.379 . S
C621 N619 1.356 . S
N622 C614 1.356 . S
N622 H628 0.984 . S
N622 H629 0.984 . S
N623 C616 1.356 . S
N623 H626 0.984 . S
N623 H627 0.985 . S
H624 N619 0.984 . S
H625 N619 0.985 . S
H626 N623 0.984 . S
H627 N623 0.985 . S
H628 N622 0.984 . S
H629 N622 0.984 . S
H630 N618 0.984 . S
H631 N618 0.985 . S
C632 C633 1.363 . S
C632 C638 1.379 . S
C632 N640 1.356 . S
C633 C632 1.363 . S
C633 C639 1.363 . S
C634 C635 1.363 . S
C634 C639 1.379 . S
C634 N641 1.356 . S
C635 C634 1.363 . S
C635 C638 1.363 . S
N636 C638 1.356 . S
N636 H648 0.984 . S
N636 H649 0.985 . S
N637 C639 1.356 . S
N637 H642 0.984 . S
N637 H643 0.985 . S
C638 C632 1.379 . S
C638 C635 1.363 . S
C638 N636 1.356 . S
C639 C633 1.363 . S
C639 C634 1.379 . S
C639 N637 1.356 . S
N640 C632 1.356 . S
N640 H646 0.984 . S
N640 H647 0.984 . S
N641 C634 1.356 . S
N641 H644 0.984 . S
N641 H645 0.985 . S
H642 N637 0.984 . S
H643 N637 0.985 . S
H644 N641 0.984 . S
H645 N641 0.985 . S
H646 N640 0.984 . S
H647 N640 0.984 . S
H648 N636 0.984 . S
H649 N636 0.985 . S
C650 C651 1.363 . S
C650 C656 1.379 . S
C650 N658 1.356 . S
C651 C650 1.363 . S
C651 C657 1.363 . S
C652 C653 1.363 . S
C652 C657 1.379 . S
C652 N659 1.356 . S
C653 C652 1.363 . S
C653 C656 1.363 . S
N654 C656 1.356 . S
N654 H666 0.984 . S
N654 H667 0.985 . S
N655 C657 1.356 . S
N655 H660 0.984 . S
N655 H661 0.985 . S
C656 C650 1.379 . S
C656 C653 1.363 . S
C656 N654 1.356 . S
C657 C651 1.363 . S
C657 C652 1.379 . S
C657 N655 1.356 . S
N658 C650 1.356 . S
N658 H664 0.984 . S
N658 H665 0.984 . S
N659 C652 1.356 . S
N659 H662 0.984 . S
N659 H663 0.985 . S
H660 N655 0.984 . S
H661 N655 0.985 . S
H662 N659 0.984 . S
H663 N659 0.985 . S
H664 N658 0.984 . S
H665 N658 0.984 . S
H666 N654 0.984 . S
H667 N654 0.985 . S
C668 C669 1.363 . S
C668 C674 1.379 . S
C668 N676 1.356 . S
C669 C668 1.363 . S
C669 C675 1.363 . S
C670 C671 1.363 . S
C670 C675 1.379 . S
C670 N677 1.356 . S
C671 C670 1.363 . S
C671 C674 1.363 . S
N672 C674 1.356 . S
N672 H684 0.984 . S
N672 H685 0.985 . S
N673 C675 1.356 . S
N673 H678 0.984 . S
N673 H679 0.985 . S
C674 C668 1.379 . S
C674 C671 1.363 . S
C674 N672 1.356 . S
C675 C669 1.363 . S
C675 C670 1.379 . S
C675 N673 1.356 . S
N676 C668 1.356 . S
N676 H682 0.984 . S
N676 H683 0.984 . S
N677 C670 1.356 . S
N677 H680 0.984 . S
N677 H681 0.985 . S
H678 N673 0.984 . S
H679 N673 0.985 . S
H680 N677 0.984 . S
H681 N677 0.985 . S
H682 N676 0.984 . S
H683 N676 0.984 . S
H684 N672 0.984 . S
H685 N672 0.985 . S
C686 C687 1.363 . S
C686 C692 1.379 . S
C686 N694 1.356 . S
C687 C686 1.363 . S
C687 C693 1.363 . S
C688 C689 1.363 . S
C688 C693 1.379 . S
C688 N695 1.356 . S
C689 C688 1.363 . S
C689 C692 1.363 . S
N690 C692 1.356 1_554 S
N690 H702 0.984 . S
N690 H703 0.985 . S
N691 C693 1.356 . S
N691 H696 0.984 . S
N691 H697 0.985 . S
C692 C686 1.379 . S
C692 C689 1.363 . S
C692 N690 1.356 1_556 S
C693 C687 1.363 . S
C693 C688 1.379 . S
C693 N691 1.356 . S
N694 C686 1.356 . S
N694 H700 0.984 . S
N694 H701 0.984 . S
N695 C688 1.356 . S
N695 H698 0.984 . S
N695 H699 0.985 . S
H696 N691 0.984 . S
H697 N691 0.985 . S
H698 N695 0.984 . S
H699 N695 0.985 . S
H700 N694 0.984 . S
H701 N694 0.984 . S
H702 N690 0.984 . S
H703 N690 0.985 . S
C704 C705 1.363 . S
C704 C710 1.379 . S
C704 N712 1.356 . S
C705 C704 1.363 . S
C705 C711 1.363 . S
C706 C707 1.363 . S
C706 C711 1.379 . S
C706 N713 1.356 . S
C707 C706 1.363 . S
C707 C710 1.363 . S
N708 C710 1.356 . S
N708 H720 0.984 . S
N708 H721 0.985 . S
N709 C711 1.356 . S
N709 H714 0.984 . S
N709 H715 0.985 . S
C710 C704 1.379 . S
C710 C707 1.363 . S
C710 N708 1.356 . S
C711 C705 1.363 . S
C711 C706 1.379 . S
C711 N709 1.356 . S
N712 C704 1.356 . S
N712 H718 0.984 . S
N712 H719 0.984 . S
N713 C706 1.356 . S
N713 H716 0.984 . S
N713 H717 0.985 . S
H714 N709 0.984 . S
H715 N709 0.985 . S
H716 N713 0.984 . S
H717 N713 0.985 . S
H718 N712 0.984 . S
H719 N712 0.984 . S
H720 N708 0.984 . S
H721 N708 0.985 . S
C722 C723 1.363 . S
C722 C728 1.379 1_554 S
C722 N730 1.356 . S
C723 C722 1.363 . S
C723 C729 1.363 1_565 S
C724 C725 1.363 1_554 S
C724 C729 1.379 . S
C724 N731 1.356 . S
C725 C724 1.363 1_556 S
C725 C728 1.363 1_545 S
N726 C728 1.356 . S
N726 H738 0.984 . S
N726 H739 0.960 1_565 S
N727 C729 1.356 . S
N727 H732 0.960 1_545 S
N727 H733 0.985 . S
C728 C722 1.379 1_556 S
C728 C725 1.363 1_565 S
C728 N726 1.356 . S
C729 C723 1.363 1_545 S
C729 C724 1.379 . S
C729 N727 1.356 . S
N730 C722 1.356 . S
N730 H736 0.984 . S
N730 H737 0.984 . S
N731 C724 1.356 . S
N731 H734 0.984 1_554 S
N731 H735 0.985 . S
H732 N727 0.960 1_565 S
H733 N727 0.985 . S
H734 N731 0.984 1_556 S
H735 N731 0.985 . S
H736 N730 0.984 . S
H737 N730 0.984 . S
H738 N726 0.984 . S
H739 N726 0.960 1_545 S
C740 C741 1.363 . S
C740 C746 1.379 . S
C740 N748 1.356 . S
C741 C740 1.363 . S
C741 C747 1.363 . S
C742 C743 1.363 . S
C742 C747 1.379 . S
C742 N749 1.356 . S
C743 C742 1.363 . S
C743 C746 1.363 . S
N744 C746 1.356 . S
N744 H756 0.984 . S
N744 H757 0.985 . S
N745 C747 1.356 . S
N745 H750 0.984 . S
N745 H751 0.985 . S
C746 C740 1.379 . S
C746 C743 1.363 . S
C746 N744 1.356 . S
C747 C741 1.363 . S
C747 C742 1.379 . S
C747 N745 1.356 . S
N748 C740 1.356 . S
N748 H754 0.984 . S
N748 H755 0.984 . S
N749 C742 1.356 . S
N749 H752 0.984 . S
N749 H753 0.985 . S
H750 N745 0.984 . S
H751 N745 0.985 . S
H752 N749 0.984 . S
H753 N749 0.985 . S
H754 N748 0.984 . S
H755 N748 0.984 . S
H756 N744 0.984 . S
H757 N744 0.985 . S
C758 C759 1.363 1_565 S
C758 C764 1.379 . S
C758 N766 1.356 . S
C759 C758 1.363 1_545 S
C759 C765 1.363 . S
C760 C761 1.363 1_545 S
C760 C765 1.379 . S
C760 N767 1.356 . S
C761 C760 1.363 1_565 S
C761 C764 1.363 . S
N762 C764 1.356 . S
N762 H774 0.984 . S
N762 H775 0.985 . S
N763 C765 1.356 . S
N763 H768 0.984 . S
N763 H769 0.985 . S
C764 C758 1.379 . S
C764 C761 1.363 . S
C764 N762 1.356 . S
C765 C759 1.363 . S
C765 C760 1.379 . S
C765 N763 1.356 . S
N766 C758 1.356 . S
N766 H772 0.984 . S
N766 H773 0.984 1_565 S
N767 C760 1.356 . S
N767 H770 0.984 1_545 S
N767 H771 0.985 . S
H768 N763 0.984 . S
H769 N763 0.985 . S
H770 N767 0.984 1_565 S
H771 N767 0.985 . S
H772 N766 0.984 . S
H773 N766 0.984 1_545 S
H774 N762 0.984 . S
H775 N762 0.985 . S
C776 C777 1.363 . S
C776 C782 1.379 . S
C776 N784 1.356 . S
C777 C776 1.363 . S
C777 C783 1.363 . S
C778 C779 1.363 . S
C778 C783 1.379 . S
C778 N785 1.356 . S
C779 C778 1.363 . S
C779 C782 1.363 . S
N780 C782 1.356 . S
N780 H792 0.984 . S
N780 H793 0.985 . S
N781 C783 1.356 . S
N781 H786 0.984 . S
N781 H787 0.985 . S
C782 C776 1.379 . S
C782 C779 1.363 . S
C782 N780 1.356 . S
C783 C777 1.363 . S
C783 C778 1.379 . S
C783 N781 1.356 . S
N784 C776 1.356 . S
N784 H790 0.984 . S
N784 H791 0.984 . S
N785 C778 1.356 . S
N785 H788 0.984 . S
N785 H789 0.985 . S
H786 N781 0.984 . S
H787 N781 0.985 . S
H788 N785 0.984 . S
H789 N785 0.985 . S
H790 N784 0.984 . S
H791 N784 0.984 . S
H792 N780 0.984 . S
H793 N780 0.985 . S
C794 C795 1.363 1_554 S
C794 C800 1.379 . S
C794 N802 1.356 . S
C795 C794 1.363 1_556 S
C795 C801 1.363 1_545 S
C796 C797 1.363 . S
C796 C801 1.379 1_554 S
C796 N803 1.356 . S
C797 C796 1.363 . S
C797 C800 1.363 1_565 S
N798 C800 1.356 . S
N798 H810 0.984 . S
N798 H811 0.985 1_545 S
N799 C801 1.356 . S
N799 H804 0.984 1_565 S
N799 H805 0.985 . S
C800 C794 1.379 . S
C800 C797 1.363 1_545 S
C800 N798 1.356 . S
C801 C795 1.363 1_565 S
C801 C796 1.379 1_556 S
C801 N799 1.356 . S
N802 C794 1.356 . S
N802 H808 0.984 . S
N802 H809 0.984 1_554 S
N803 C796 1.356 . S
N803 H806 0.984 . S
N803 H807 0.985 . S
H804 N799 0.984 1_545 S
H805 N799 0.985 . S
H806 N803 0.984 . S
H807 N803 0.985 . S
H808 N802 0.984 . S
H809 N802 0.984 1_556 S
H810 N798 0.984 . S
H811 N798 0.985 1_565 S
C812 C813 1.363 . S
C812 C818 1.379 . S
C812 N820 1.356 . S
C813 C812 1.363 . S
C813 C819 1.363 . S
C814 C815 1.363 . S
C814 C819 1.379 . S
C814 N821 1.356 . S
C815 C814 1.363 . S
C815 C818 1.363 . S
N816 C818 1.356 . S
N816 H828 0.984 . S
N816 H829 0.985 . S
N817 C819 1.356 . S
N817 H822 0.984 . S
N817 H823 0.985 . S
C818 C812 1.379 . S
C818 C815 1.363 . S
C818 N816 1.356 . S
C819 C813 1.363 . S
C819 C814 1.379 . S
C819 N817 1.356 . S
N820 C812 1.356 . S
N820 H826 0.984 . S
N820 H827 0.984 . S
N821 C814 1.356 . S
N821 H824 0.984 . S
N821 H825 0.985 . S
H822 N817 0.984 . S
H823 N817 0.985 . S
H824 N821 0.984 . S
H825 N821 0.985 . S
H826 N820 0.984 . S
H827 N820 0.984 . S
H828 N816 0.984 . S
H829 N816 0.985 . S
C830 C831 1.363 1_565 S
C830 C836 1.379 . S
C830 N838 1.356 . S
C831 C830 1.363 1_545 S
C831 C837 1.363 . S
C832 C833 1.363 1_545 S
C832 C837 1.379 . S
C832 N839 1.356 . S
C833 C832 1.363 1_565 S
C833 C836 1.363 . S
N834 C836 1.356 . S
N834 H846 0.984 . S
N834 H847 0.985 . S
N835 C837 1.356 . S
N835 H840 0.984 . S
N835 H841 0.985 . S
C836 C830 1.379 . S
C836 C833 1.363 . S
C836 N834 1.356 . S
C837 C831 1.363 . S
C837 C832 1.379 . S
C837 N835 1.356 . S
N838 C830 1.356 . S
N838 H844 0.984 . S
N838 H845 0.984 1_565 S
N839 C832 1.356 . S
N839 H842 0.984 1_545 S
N839 H843 0.985 . S
H840 N835 0.984 . S
H841 N835 0.985 . S
H842 N839 0.984 1_565 S
H843 N839 0.985 . S
H844 N838 0.984 . S
H845 N838 0.984 1_545 S
H846 N834 0.984 . S
H847 N834 0.985 . S
C848 C849 1.363 . S
C848 C854 1.379 . S
C848 N856 1.356 . S
C849 C848 1.363 . S
C849 C855 1.363 . S
C850 C851 1.363 . S
C850 C855 1.379 . S
C850 N857 1.356 . S
C851 C850 1.363 . S
C851 C854 1.363 . S
N852 C854 1.356 . S
N852 H864 0.984 . S
N852 H865 0.985 . S
N853 C855 1.356 . S
N853 H858 0.984 . S
N853 H859 0.985 . S
C854 C848 1.379 . S
C854 C851 1.363 . S
C854 N852 1.356 . S
C855 C849 1.363 . S
C855 C850 1.379 . S
C855 N853 1.356 . S
N856 C848 1.356 . S
N856 H862 0.984 . S
N856 H863 0.984 . S
N857 C850 1.356 . S
N857 H860 0.984 . S
N857 H861 0.985 . S
H858 N853 0.984 . S
H859 N853 0.985 . S
H860 N857 0.984 . S
H861 N857 0.985 . S
H862 N856 0.984 . S
H863 N856 0.984 . S
H864 N852 0.984 . S
H865 N852 0.985 . S
C866 C867 1.363 . S
C866 C872 1.379 . S
C866 N874 1.356 . S
C867 C866 1.363 . S
C867 C873 1.363 . S
C868 C869 1.363 . S
C868 C873 1.379 . S
C868 N875 1.356 . S
C869 C868 1.363 . S
C869 C872 1.363 . S
N870 C872 1.356 . S
N870 H882 0.984 . S
N870 H883 0.985 . S
N871 C873 1.356 . S
N871 H876 0.984 . S
N871 H877 0.985 . S
C872 C866 1.379 . S
C872 C869 1.363 . S
C872 N870 1.356 . S
C873 C867 1.363 . S
C873 C868 1.379 . S
C873 N871 1.356 . S
N874 C866 1.356 . S
N874 H880 0.984 . S
N874 H881 0.984 . S
N875 C868 1.356 . S
N875 H878 0.984 . S
N875 H879 0.985 . S
H876 N871 0.984 . S
H877 N871 0.985 . S
H878 N875 0.984 . S
H879 N875 0.985 . S
H880 N874 0.984 . S
H881 N874 0.984 . S
H882 N870 0.984 . S
H883 N870 0.985 . S
C884 C885 1.363 . S
C884 C890 1.379 . S
C884 N892 1.356 . S
C885 C884 1.363 . S
C885 C891 1.363 . S
C886 C887 1.363 . S
C886 C891 1.379 . S
C886 N893 1.356 . S
C887 C886 1.363 . S
C887 C890 1.363 . S
N888 C890 1.356 . S
N888 H900 0.984 . S
N888 H901 0.985 . S
N889 C891 1.356 . S
N889 H894 0.984 . S
N889 H895 0.985 . S
C890 C884 1.379 . S
C890 C887 1.363 . S
C890 N888 1.356 . S
C891 C885 1.363 . S
C891 C886 1.379 . S
C891 N889 1.356 . S
N892 C884 1.356 . S
N892 H898 0.984 . S
N892 H899 0.984 . S
N893 C886 1.356 . S
N893 H896 0.984 . S
N893 H897 0.985 . S
H894 N889 0.984 . S
H895 N889 0.985 . S
H896 N893 0.984 . S
H897 N893 0.985 . S
H898 N892 0.984 . S
H899 N892 0.984 . S
H900 N888 0.984 . S
H901 N888 0.985 . S
C902 C903 1.363 . S
C902 C908 1.379 1_554 S
C902 N910 1.356 . S
C903 C902 1.363 . S
C903 C909 1.363 . S
C904 C905 1.363 1_554 S
C904 C909 1.379 . S
C904 N911 1.356 . S
C905 C904 1.363 1_556 S
C905 C908 1.363 . S
N906 C908 1.356 . S
N906 H918 0.984 . S
N906 H919 0.985 . S
N907 C909 1.356 . S
N907 H912 0.984 . S
N907 H913 0.985 . S
C908 C902 1.379 1_556 S
C908 C905 1.363 . S
C908 N906 1.356 . S
C909 C903 1.363 . S
C909 C904 1.379 . S
C909 N907 1.356 . S
N910 C902 1.356 . S
N910 H916 0.984 . S
N910 H917 0.984 . S
N911 C904 1.356 . S
N911 H914 0.984 1_554 S
N911 H915 0.985 . S
H912 N907 0.984 . S
H913 N907 0.985 . S
H914 N911 0.984 1_556 S
H915 N911 0.985 . S
H916 N910 0.984 . S
H917 N910 0.984 . S
H918 N906 0.984 . S
H919 N906 0.985 . S
C920 C921 1.363 . S
C920 C926 1.379 . S
C920 N928 1.356 . S
C921 C920 1.363 . S
C921 C927 1.363 . S
C922 C923 1.363 . S
C922 C927 1.379 . S
C922 N929 1.356 . S
C923 C922 1.363 . S
C923 C926 1.363 . S
N924 C926 1.356 . S
N924 H936 0.984 . S
N924 H937 0.985 . S
N925 C927 1.356 . S
N925 H930 0.984 . S
N925 H931 0.985 . S
C926 C920 1.379 . S
C926 C923 1.363 . S
C926 N924 1.356 . S
C927 C921 1.363 . S
C927 C922 1.379 . S
C927 N925 1.356 . S
N928 C920 1.356 . S
N928 H934 0.984 . S
N928 H935 0.984 . S
N929 C922 1.356 . S
N929 H932 0.984 . S
N929 H933 0.985 . S
H930 N925 0.984 . S
H931 N925 0.985 . S
H932 N929 0.984 . S
H933 N929 0.985 . S
H934 N928 0.984 . S
H935 N928 0.984 . S
H936 N924 0.984 . S
H937 N924 0.985 . S
C938 C939 1.363 . S
C938 C944 1.379 . S
C938 N946 1.356 . S
C939 C938 1.363 . S
C939 C945 1.363 . S
C940 C941 1.363 . S
C940 C945 1.379 . S
C940 N947 1.356 . S
C941 C940 1.363 . S
C941 C944 1.363 . S
N942 C944 1.356 . S
N942 H954 0.984 . S
N942 H955 0.985 . S
N943 C945 1.356 . S
N943 H948 0.984 . S
N943 H949 0.985 . S
C944 C938 1.379 . S
C944 C941 1.363 . S
C944 N942 1.356 . S
C945 C939 1.363 . S
C945 C940 1.379 . S
C945 N943 1.356 . S
N946 C938 1.356 . S
N946 H952 0.984 . S
N946 H953 0.984 . S
N947 C940 1.356 . S
N947 H950 0.984 . S
N947 H951 0.985 . S
H948 N943 0.984 . S
H949 N943 0.985 . S
H950 N947 0.984 . S
H951 N947 0.985 . S
H952 N946 0.984 . S
H953 N946 0.984 . S
H954 N942 0.984 . S
H955 N942 0.985 . S
C956 C957 1.363 . S
C956 C962 1.379 . S
C956 N964 1.356 . S
C957 C956 1.363 . S
C957 C963 1.363 . S
C958 C959 1.363 . S
C958 C963 1.379 . S
C958 N965 1.356 . S
C959 C958 1.363 . S
C959 C962 1.363 . S
N960 C962 1.356 . S
N960 H972 0.984 . S
N960 H973 0.985 . S
N961 C963 1.356 . S
N961 H966 0.984 . S
N961 H967 0.985 . S
C962 C956 1.379 . S
C962 C959 1.363 . S
C962 N960 1.356 . S
C963 C957 1.363 . S
C963 C958 1.379 . S
C963 N961 1.356 . S
N964 C956 1.356 . S
N964 H970 0.984 . S
N964 H971 0.984 . S
N965 C958 1.356 . S
N965 H968 0.984 . S
N965 H969 0.985 . S
H966 N961 0.984 . S
H967 N961 0.985 . S
H968 N965 0.984 . S
H969 N965 0.985 . S
H970 N964 0.984 . S
H971 N964 0.984 . S
H972 N960 0.984 . S
H973 N960 0.985 . S
C974 C975 1.363 . S
C974 C980 1.379 1_554 S
C974 N982 1.356 . S
C975 C974 1.363 . S
C975 C981 1.363 . S
C976 C977 1.363 1_554 S
C976 C981 1.379 . S
C976 N983 1.356 . S
C977 C976 1.363 1_556 S
C977 C980 1.363 . S
N978 C980 1.356 . S
N978 H990 0.984 . S
N978 H991 0.985 . S
N979 C981 1.356 . S
N979 H984 0.984 . S
N979 H985 0.985 . S
C980 C974 1.379 1_556 S
C980 C977 1.363 . S
C980 N978 1.356 . S
C981 C975 1.363 . S
C981 C976 1.379 . S
C981 N979 1.356 . S
N982 C974 1.356 . S
N982 H988 0.984 . S
N982 H989 0.984 . S
N983 C976 1.356 . S
N983 H986 0.984 1_554 S
N983 H987 0.985 . S
H984 N979 0.984 . S
H985 N979 0.985 . S
H986 N983 0.984 1_556 S
H987 N983 0.985 . S
H988 N982 0.984 . S
H989 N982 0.984 . S
H990 N978 0.984 . S
H991 N978 0.985 . S
C992 C993 1.363 1_556 S
C992 C998 1.379 . S
C992 N1000 1.356 . S
C993 C992 1.363 1_554 S
C993 C999 1.363 . S
C994 C995 1.363 . S
C994 C999 1.379 . S
C994 N1001 1.356 . S
C995 C994 1.363 . S
C995 C998 1.363 1_554 S
N996 C998 1.356 . S
N996 H1008 0.984 . S
N996 H1009 0.985 . S
N997 C999 1.356 . S
N997 H1002 0.984 . S
N997 H1003 0.985 . S
C998 C992 1.379 . S
C998 C995 1.363 1_556 S
C998 N996 1.356 . S
C999 C993 1.363 . S
C999 C994 1.379 . S
C999 N997 1.356 . S
N1000 C992 1.356 . S
N1000 H1006 0.984 . S
N1000 H1007 0.984 . S
N1001 C994 1.356 . S
N1001 H1004 0.984 . S
N1001 H1005 0.985 . S
H1002 N997 0.984 . S
H1003 N997 0.985 . S
H1004 N1001 0.984 . S
H1005 N1001 0.985 . S
H1006 N1000 0.984 . S
H1007 N1000 0.984 . S
H1008 N996 0.984 . S
H1009 N996 0.985 . S
C1010 C1011 1.363 . S
C1010 C1016 1.379 1_455 S
C1010 N1018 1.356 . S
C1011 C1010 1.363 . S
C1011 C1017 1.363 . S
C1012 C1013 1.363 . S
C1012 C1017 1.379 1_655 S
C1012 N1019 1.356 . S
C1013 C1012 1.363 . S
C1013 C1016 1.363 . S
N1014 C1016 1.356 . S
N1014 H1026 0.984 . S
N1014 H1027 0.985 . S
N1015 C1017 1.356 . S
N1015 H1020 0.984 . S
N1015 H1021 0.985 . S
C1016 C1010 1.379 1_655 S
C1016 C1013 1.363 . S
C1016 N1014 1.356 . S
C1017 C1011 1.363 . S
C1017 C1012 1.379 1_455 S
C1017 N1015 1.356 . S
N1018 C1010 1.356 . S
N1018 H1024 0.984 . S
N1018 H1025 0.984 . S
N1019 C1012 1.356 . S
N1019 H1022 0.984 . S
N1019 H1023 0.985 . S
H1020 N1015 0.984 . S
H1021 N1015 0.985 . S
H1022 N1019 0.984 . S
H1023 N1019 0.985 . S
H1024 N1018 0.984 . S
H1025 N1018 0.984 . S
H1026 N1014 0.984 . S
H1027 N1014 0.985 . S
C1028 C1029 1.363 . S
C1028 C1034 1.379 . S
C1028 N1036 1.356 . S
C1029 C1028 1.363 . S
C1029 C1035 1.363 . S
C1030 C1031 1.363 . S
C1030 C1035 1.379 . S
C1030 N1037 1.356 . S
C1031 C1030 1.363 . S
C1031 C1034 1.363 . S
N1032 C1034 1.356 . S
N1032 H1044 0.984 . S
N1032 H1045 0.985 . S
N1033 C1035 1.356 . S
N1033 H1038 0.984 . S
N1033 H1039 0.985 . S
C1034 C1028 1.379 . S
C1034 C1031 1.363 . S
C1034 N1032 1.356 . S
C1035 C1029 1.363 . S
C1035 C1030 1.379 . S
C1035 N1033 1.356 . S
N1036 C1028 1.356 . S
N1036 H1042 0.984 . S
N1036 H1043 0.984 . S
N1037 C1030 1.356 . S
N1037 H1040 0.984 . S
N1037 H1041 0.985 . S
H1038 N1033 0.984 . S
H1039 N1033 0.985 . S
H1040 N1037 0.984 . S
H1041 N1037 0.985 . S
H1042 N1036 0.984 . S
H1043 N1036 0.984 . S
H1044 N1032 0.984 . S
H1045 N1032 0.985 . S
C1046 C1047 1.363 . S
C1046 C1052 1.379 . S
C1046 N1054 1.356 . S
C1047 C1046 1.363 . S
C1047 C1053 1.363 . S
C1048 C1049 1.363 . S
C1048 C1053 1.379 . S
C1048 N1055 1.356 . S
C1049 C1048 1.363 . S
C1049 C1052 1.363 . S
N1050 C1052 1.356 . S
N1050 H1062 0.984 . S
N1050 H1063 0.985 . S
N1051 C1053 1.356 . S
N1051 H1056 0.984 . S
N1051 H1057 0.985 . S
C1052 C1046 1.379 . S
C1052 C1049 1.363 . S
C1052 N1050 1.356 . S
C1053 C1047 1.363 . S
C1053 C1048 1.379 . S
C1053 N1051 1.356 . S
N1054 C1046 1.356 . S
N1054 H1060 0.984 . S
N1054 H1061 0.984 . S
N1055 C1048 1.356 . S
N1055 H1058 0.984 . S
N1055 H1059 0.985 . S
H1056 N1051 0.984 . S
H1057 N1051 0.985 . S
H1058 N1055 0.984 . S
H1059 N1055 0.985 . S
H1060 N1054 0.984 . S
H1061 N1054 0.984 . S
H1062 N1050 0.984 . S
H1063 N1050 0.985 . S
C1064 C1065 1.363 . S
C1064 C1070 1.379 . S
C1064 N1072 1.356 1_554 S
C1065 C1064 1.363 . S
C1065 C1071 1.363 . S
C1066 C1067 1.363 . S
C1066 C1071 1.379 . S
C1066 N1073 1.356 . S
C1067 C1066 1.363 . S
C1067 C1070 1.363 . S
N1068 C1070 1.356 1_556 S
N1068 H1080 0.984 . S
N1068 H1081 0.985 . S
N1069 C1071 1.356 . S
N1069 H1074 0.984 . S
N1069 H1075 0.985 . S
C1070 C1064 1.379 . S
C1070 C1067 1.363 . S
C1070 N1068 1.356 1_554 S
C1071 C1065 1.363 . S
C1071 C1066 1.379 . S
C1071 N1069 1.356 . S
N1072 C1064 1.356 1_556 S
N1072 H1078 0.984 . S
N1072 H1079 0.984 . S
N1073 C1066 1.356 . S
N1073 H1076 0.984 . S
N1073 H1077 0.985 . S
H1074 N1069 0.984 . S
H1075 N1069 0.985 . S
H1076 N1073 0.984 . S
H1077 N1073 0.985 . S
H1078 N1072 0.984 . S
H1079 N1072 0.984 . S
H1080 N1068 0.984 . S
H1081 N1068 0.985 . S
C1082 C1083 1.363 . S
C1082 C1088 1.379 . S
C1082 N1090 1.356 . S
C1083 C1082 1.363 . S
C1083 C1089 1.363 . S
C1084 C1085 1.363 . S
C1084 C1089 1.379 . S
C1084 N1091 1.356 . S
C1085 C1084 1.363 . S
C1085 C1088 1.363 . S
N1086 C1088 1.356 . S
N1086 H1098 0.984 . S
N1086 H1099 0.985 . S
N1087 C1089 1.356 . S
N1087 H1092 0.984 . S
N1087 H1093 0.985 . S
C1088 C1082 1.379 . S
C1088 C1085 1.363 . S
C1088 N1086 1.356 . S
C1089 C1083 1.363 . S
C1089 C1084 1.379 . S
C1089 N1087 1.356 . S
N1090 C1082 1.356 . S
N1090 H1096 0.984 . S
N1090 H1097 0.984 . S
N1091 C1084 1.356 . S
N1091 H1094 0.984 . S
N1091 H1095 0.985 . S
H1092 N1087 0.984 . S
H1093 N1087 0.985 . S
H1094 N1091 0.984 . S
H1095 N1091 0.985 . S
H1096 N1090 0.984 . S
H1097 N1090 0.984 . S
H1098 N1086 0.984 . S
H1099 N1086 0.985 . S
C1100 C1101 1.363 . S
C1100 C1106 1.379 . S
C1100 N1108 1.356 . S
C1101 C1100 1.363 . S
C1101 C1107 1.363 . S
C1102 C1103 1.363 . S
C1102 C1107 1.379 . S
C1102 N1109 1.356 . S
C1103 C1102 1.363 . S
C1103 C1106 1.363 . S
N1104 C1106 1.356 . S
N1104 H1116 0.984 . S
N1104 H1117 0.985 . S
N1105 C1107 1.356 . S
N1105 H1110 0.984 . S
N1105 H1111 0.985 . S
C1106 C1100 1.379 . S
C1106 C1103 1.363 . S
C1106 N1104 1.356 . S
C1107 C1101 1.363 . S
C1107 C1102 1.379 . S
C1107 N1105 1.356 . S
N1108 C1100 1.356 . S
N1108 H1114 0.984 . S
N1108 H1115 0.984 . S
N1109 C1102 1.356 . S
N1109 H1112 0.984 . S
N1109 H1113 0.985 . S
H1110 N1105 0.984 . S
H1111 N1105 0.985 . S
H1112 N1109 0.984 . S
H1113 N1109 0.985 . S
H1114 N1108 0.984 . S
H1115 N1108 0.984 . S
H1116 N1104 0.984 . S
H1117 N1104 0.985 . S
C1118 C1119 1.363 . S
C1118 C1124 1.379 1_655 S
C1118 N1126 1.356 . S
C1119 C1118 1.363 . S
C1119 C1125 1.363 . S
C1120 C1121 1.363 . S
C1120 C1125 1.379 1_455 S
C1120 N1127 1.356 . S
C1121 C1120 1.363 . S
C1121 C1124 1.363 . S
N1122 C1124 1.356 . S
N1122 H1134 0.984 . S
N1122 H1135 0.985 . S
N1123 C1125 1.356 . S
N1123 H1128 0.984 . S
N1123 H1129 0.985 . S
C1124 C1118 1.379 1_455 S
C1124 C1121 1.363 . S
C1124 N1122 1.356 . S
C1125 C1119 1.363 . S
C1125 C1120 1.379 1_655 S
C1125 N1123 1.356 . S
N1126 C1118 1.356 . S
N1126 H1132 0.984 . S
N1126 H1133 0.984 . S
N1127 C1120 1.356 . S
N1127 H1130 0.984 . S
N1127 H1131 0.985 . S
H1128 N1123 0.984 . S
H1129 N1123 0.985 . S
H1130 N1127 0.984 . S
H1131 N1127 0.985 . S
H1132 N1126 0.984 . S
H1133 N1126 0.984 . S
H1134 N1122 0.984 . S
H1135 N1122 0.985 . S
C1136 C1137 1.363 . S
C1136 C1142 1.379 . S
C1136 N1144 1.356 . S
C1137 C1136 1.363 . S
C1137 C1143 1.363 . S
C1138 C1139 1.363 . S
C1138 C1143 1.379 . S
C1138 N1145 1.356 1_554 S
C1139 C1138 1.363 . S
C1139 C1142 1.363 . S
N1140 C1142 1.356 . S
N1140 H1152 0.984 . S
N1140 H1153 0.985 . S
N1141 C1143 1.356 1_556 S
N1141 H1146 0.984 . S
N1141 H1147 0.985 . S
C1142 C1136 1.379 . S
C1142 C1139 1.363 . S
C1142 N1140 1.356 . S
C1143 C1137 1.363 . S
C1143 C1138 1.379 . S
C1143 N1141 1.356 1_554 S
N1144 C1136 1.356 . S
N1144 H1150 0.984 . S
N1144 H1151 0.984 . S
N1145 C1138 1.356 1_556 S
N1145 H1148 0.984 . S
N1145 H1149 0.985 . S
H1146 N1141 0.984 . S
H1147 N1141 0.985 . S
H1148 N1145 0.984 . S
H1149 N1145 0.985 . S
H1150 N1144 0.984 . S
H1151 N1144 0.984 . S
H1152 N1140 0.984 . S
H1153 N1140 0.985 . S
C1154 C1155 1.363 . S
C1154 C1160 1.379 . S
C1154 N1162 1.356 . S
C1155 C1154 1.363 . S
C1155 C1161 1.363 . S
C1156 C1157 1.363 . S
C1156 C1161 1.379 . S
C1156 N1163 1.356 . S
C1157 C1156 1.363 . S
C1157 C1160 1.363 . S
N1158 C1160 1.356 . S
N1158 H1170 0.984 . S
N1158 H1171 0.985 . S
N1159 C1161 1.356 . S
N1159 H1164 0.984 . S
N1159 H1165 0.985 . S
C1160 C1154 1.379 . S
C1160 C1157 1.363 . S
C1160 N1158 1.356 . S
C1161 C1155 1.363 . S
C1161 C1156 1.379 . S
C1161 N1159 1.356 . S
N1162 C1154 1.356 . S
N1162 H1168 0.984 . S
N1162 H1169 0.984 . S
N1163 C1156 1.356 . S
N1163 H1166 0.984 . S
N1163 H1167 0.985 . S
H1164 N1159 0.984 . S
H1165 N1159 0.985 . S
H1166 N1163 0.984 . S
H1167 N1163 0.985 . S
H1168 N1162 0.984 . S
H1169 N1162 0.984 . S
H1170 N1158 0.984 . S
H1171 N1158 0.985 . S
C1172 C1173 1.363 . S
C1172 C1178 1.379 . S
C1172 N1180 1.356 . S
C1173 C1172 1.363 . S
C1173 C1179 1.363 1_554 S
C1174 C1175 1.363 1_556 S
C1174 C1179 1.379 . S
C1174 N1181 1.356 . S
C1175 C1174 1.363 1_554 S
C1175 C1178 1.363 . S
N1176 C1178 1.356 . S
N1176 H1188 0.984 . S
N1176 H1189 0.985 . S
N1177 C1179 1.356 . S
N1177 H1182 0.984 . S
N1177 H1183 0.985 . S
C1178 C1172 1.379 . S
C1178 C1175 1.363 . S
C1178 N1176 1.356 . S
C1179 C1173 1.363 1_556 S
C1179 C1174 1.379 . S
C1179 N1177 1.356 . S
N1180 C1172 1.356 . S
N1180 H1186 0.984 . S
N1180 H1187 0.984 . S
N1181 C1174 1.356 . S
N1181 H1184 0.984 . S
N1181 H1185 0.985 . S
H1182 N1177 0.984 . S
H1183 N1177 0.985 . S
H1184 N1181 0.984 . S
H1185 N1181 0.985 . S
H1186 N1180 0.984 . S
H1187 N1180 0.984 . S
H1188 N1176 0.984 . S
H1189 N1176 0.985 . S
C1190 C1191 1.363 . S
C1190 C1196 1.379 . S
C1190 N1198 1.356 . S
C1191 C1190 1.363 . S
C1191 C1197 1.363 . S
C1192 C1193 1.363 . S
C1192 C1197 1.379 . S
C1192 N1199 1.356 . S
C1193 C1192 1.363 . S
C1193 C1196 1.363 . S
N1194 C1196 1.356 . S
N1194 H1206 0.984 . S
N1194 H1207 0.985 . S
N1195 C1197 1.356 . S
N1195 H1200 0.984 . S
N1195 H1201 0.985 . S
C1196 C1190 1.379 . S
C1196 C1193 1.363 . S
C1196 N1194 1.356 . S
C1197 C1191 1.363 . S
C1197 C1192 1.379 . S
C1197 N1195 1.356 . S
N1198 C1190 1.356 . S
N1198 H1204 0.984 . S
N1198 H1205 0.984 . S
N1199 C1192 1.356 . S
N1199 H1202 0.984 . S
N1199 H1203 0.985 . S
H1200 N1195 0.984 . S
H1201 N1195 0.985 . S
H1202 N1199 0.984 . S
H1203 N1199 0.985 . S
H1204 N1198 0.984 . S
H1205 N1198 0.984 . S
H1206 N1194 0.984 . S
H1207 N1194 0.985 . S
C1208 C1209 1.363 . S
C1208 C1214 1.379 . S
C1208 N1216 1.356 . S
C1209 C1208 1.363 . S
C1209 C1215 1.363 . S
C1210 C1211 1.363 . S
C1210 C1215 1.379 . S
C1210 N1217 1.356 . S
C1211 C1210 1.363 . S
C1211 C1214 1.363 . S
N1212 C1214 1.356 . S
N1212 H1224 0.984 . S
N1212 H1225 0.985 . S
N1213 C1215 1.356 . S
N1213 H1218 0.984 . S
N1213 H1219 0.985 . S
C1214 C1208 1.379 . S
C1214 C1211 1.363 . S
C1214 N1212 1.356 . S
C1215 C1209 1.363 . S
C1215 C1210 1.379 . S
C1215 N1213 1.356 . S
N1216 C1208 1.356 . S
N1216 H1222 0.984 . S
N1216 H1223 0.984 . S
N1217 C1210 1.356 . S
N1217 H1220 0.984 . S
N1217 H1221 0.985 . S
H1218 N1213 0.984 . S
H1219 N1213 0.985 . S
H1220 N1217 0.984 . S
H1221 N1217 0.985 . S
H1222 N1216 0.984 . S
H1223 N1216 0.984 . S
H1224 N1212 0.984 . S
H1225 N1212 0.985 . S
C1226 C1227 1.363 . S
C1226 C1232 1.379 1_655 S
C1226 N1234 1.356 . S
C1227 C1226 1.363 . S
C1227 C1233 1.363 . S
C1228 C1229 1.363 . S
C1228 C1233 1.379 1_455 S
C1228 N1235 1.356 . S
C1229 C1228 1.363 . S
C1229 C1232 1.363 . S
N1230 C1232 1.356 . S
N1230 H1242 0.984 . S
N1230 H1243 0.985 . S
N1231 C1233 1.356 . S
N1231 H1236 0.984 . S
N1231 H1237 0.985 . S
C1232 C1226 1.379 1_455 S
C1232 C1229 1.363 . S
C1232 N1230 1.356 . S
C1233 C1227 1.363 . S
C1233 C1228 1.379 1_655 S
C1233 N1231 1.356 . S
N1234 C1226 1.356 . S
N1234 H1240 0.984 . S
N1234 H1241 0.984 . S
N1235 C1228 1.356 . S
N1235 H1238 0.984 . S
N1235 H1239 0.985 . S
H1236 N1231 0.984 . S
H1237 N1231 0.985 . S
H1238 N1235 0.984 . S
H1239 N1235 0.985 . S
H1240 N1234 0.984 . S
H1241 N1234 0.984 . S
H1242 N1230 0.984 . S
H1243 N1230 0.985 . S
C1244 C1245 1.363 . S
C1244 C1250 1.379 1_655 S
C1244 N1252 1.356 . S
C1245 C1244 1.363 . S
C1245 C1251 1.363 . S
C1246 C1247 1.363 . S
C1246 C1251 1.379 1_455 S
C1246 N1253 1.356 . S
C1247 C1246 1.363 . S
C1247 C1250 1.363 . S
N1248 C1250 1.356 . S
N1248 H1260 0.984 . S
N1248 H1261 0.985 . S
N1249 C1251 1.356 . S
N1249 H1254 0.984 . S
N1249 H1255 0.985 . S
C1250 C1244 1.379 1_455 S
C1250 C1247 1.363 . S
C1250 N1248 1.356 . S
C1251 C1245 1.363 . S
C1251 C1246 1.379 1_655 S
C1251 N1249 1.356 . S
N1252 C1244 1.356 . S
N1252 H1258 0.984 . S
N1252 H1259 0.984 . S
N1253 C1246 1.356 . S
N1253 H1256 0.984 . S
N1253 H1257 0.985 . S
H1254 N1249 0.984 . S
H1255 N1249 0.985 . S
H1256 N1253 0.984 . S
H1257 N1253 0.985 . S
H1258 N1252 0.984 . S
H1259 N1252 0.984 . S
H1260 N1248 0.984 . S
H1261 N1248 0.985 . S
C1262 C1263 1.363 . S
C1262 C1268 1.379 . S
C1262 N1270 1.356 . S
C1263 C1262 1.363 . S
C1263 C1269 1.363 . S
C1264 C1265 1.363 . S
C1264 C1269 1.379 . S
C1264 N1271 1.356 . S
C1265 C1264 1.363 . S
C1265 C1268 1.363 . S
N1266 C1268 1.356 . S
N1266 H1278 0.984 . S
N1266 H1279 0.985 . S
N1267 C1269 1.356 . S
N1267 H1272 0.984 . S
N1267 H1273 0.985 . S
C1268 C1262 1.379 . S
C1268 C1265 1.363 . S
C1268 N1266 1.356 . S
C1269 C1263 1.363 . S
C1269 C1264 1.379 . S
C1269 N1267 1.356 . S
N1270 C1262 1.356 . S
N1270 H1276 0.984 . S
N1270 H1277 0.984 . S
N1271 C1264 1.356 . S
N1271 H1274 0.984 . S
N1271 H1275 0.985 . S
H1272 N1267 0.984 . S
H1273 N1267 0.985 . S
H1274 N1271 0.984 . S
H1275 N1271 0.985 . S
H1276 N1270 0.984 . S
H1277 N1270 0.984 . S
H1278 N1266 0.984 . S
H1279 N1266 0.985 . S
C1280 C1281 1.363 . S
C1280 C1286 1.379 . S
C1280 N1288 1.356 . S
C1281 C1280 1.363 . S
C1281 C1287 1.363 . S
C1282 C1283 1.363 . S
C1282 C1287 1.379 . S
C1282 N1289 1.356 . S
C1283 C1282 1.363 . S
C1283 C1286 1.363 . S
N1284 C1286 1.356 . S
N1284 H1296 0.984 . S
N1284 H1297 0.985 . S
N1285 C1287 1.356 . S
N1285 H1290 0.984 . S
N1285 H1291 0.985 . S
C1286 C1280 1.379 . S
C1286 C1283 1.363 . S
C1286 N1284 1.356 . S
C1287 C1281 1.363 . S
C1287 C1282 1.379 . S
C1287 N1285 1.356 . S
N1288 C1280 1.356 . S
N1288 H1294 0.984 . S
N1288 H1295 0.984 . S
N1289 C1282 1.356 . S
N1289 H1292 0.984 . S
N1289 H1293 0.985 . S
H1290 N1285 0.984 . S
H1291 N1285 0.985 . S
H1292 N1289 0.984 . S
H1293 N1289 0.985 . S
H1294 N1288 0.984 . S
H1295 N1288 0.984 . S
H1296 N1284 0.984 . S
H1297 N1284 0.985 . S
C1298 C1299 1.363 1_545 S
C1298 C1304 1.379 . S
C1298 N1306 1.356 . S
C1299 C1298 1.363 1_565 S
C1299 C1305 1.363 . S
C1300 C1301 1.363 1_565 S
C1300 C1305 1.379 . S
C1300 N1307 1.356 . S
C1301 C1300 1.363 1_545 S
C1301 C1304 1.363 . S
N1302 C1304 1.356 . S
N1302 H1314 0.984 . S
N1302 H1315 0.985 . S
N1303 C1305 1.356 . S
N1303 H1308 0.984 . S
N1303 H1309 0.985 . S
C1304 C1298 1.379 . S
C1304 C1301 1.363 . S
C1304 N1302 1.356 . S
C1305 C1299 1.363 . S
C1305 C1300 1.379 . S
C1305 N1303 1.356 . S
N1306 C1298 1.356 . S
N1306 H1312 0.984 . S
N1306 H1313 0.984 1_545 S
N1307 C1300 1.356 . S
N1307 H1310 0.984 1_565 S
N1307 H1311 0.985 . S
H1308 N1303 0.984 . S
H1309 N1303 0.985 . S
H1310 N1307 0.984 1_545 S
H1311 N1307 0.985 . S
H1312 N1306 0.984 . S
H1313 N1306 0.984 1_565 S
H1314 N1302 0.984 . S
H1315 N1302 0.985 . S
C1316 C1317 1.363 . S
C1316 C1322 1.379 . S
C1316 N1324 1.356 . S
C1317 C1316 1.363 . S
C1317 C1323 1.363 . S
C1318 C1319 1.363 . S
C1318 C1323 1.379 . S
C1318 N1325 1.356 . S
C1319 C1318 1.363 . S
C1319 C1322 1.363 . S
N1320 C1322 1.356 . S
N1320 H1332 0.984 . S
N1320 H1333 0.985 . S
N1321 C1323 1.356 . S
N1321 H1326 0.984 . S
N1321 H1327 0.985 . S
C1322 C1316 1.379 . S
C1322 C1319 1.363 . S
C1322 N1320 1.356 . S
C1323 C1317 1.363 . S
C1323 C1318 1.379 . S
C1323 N1321 1.356 . S
N1324 C1316 1.356 . S
N1324 H1330 0.984 . S
N1324 H1331 0.984 . S
N1325 C1318 1.356 . S
N1325 H1328 0.984 . S
N1325 H1329 0.985 . S
H1326 N1321 0.984 . S
H1327 N1321 0.985 . S
H1328 N1325 0.984 . S
H1329 N1325 0.985 . S
H1330 N1324 0.984 . S
H1331 N1324 0.984 . S
H1332 N1320 0.984 . S
H1333 N1320 0.985 . S
C1334 C1335 1.363 1_565 S
C1334 C1340 1.379 1_556 S
C1334 N1342 1.356 . S
C1335 C1334 1.363 1_545 S
C1335 C1341 1.363 1_556 S
C1336 C1337 1.363 1_545 S
C1336 C1341 1.379 . S
C1336 N1343 1.356 . S
C1337 C1336 1.363 1_565 S
C1337 C1340 1.363 . S
N1338 C1340 1.356 . S
N1338 H1350 0.984 . S
N1338 H1351 0.985 . S
N1339 C1341 1.356 . S
N1339 H1344 0.984 1_554 S
N1339 H1345 0.985 . S
C1340 C1334 1.379 1_554 S
C1340 C1337 1.363 . S
C1340 N1338 1.356 . S
C1341 C1335 1.363 1_554 S
C1341 C1336 1.379 . S
C1341 N1339 1.356 . S
N1342 C1334 1.356 . S
N1342 H1348 0.984 . S
N1342 H1349 0.984 1_565 S
N1343 C1336 1.356 . S
N1343 H1346 0.984 1_545 S
N1343 H1347 0.985 . S
H1344 N1339 0.984 1_556 S
H1345 N1339 0.985 . S
H1346 N1343 0.984 1_565 S
H1347 N1343 0.985 . S
H1348 N1342 0.984 . S
H1349 N1342 0.984 1_545 S
H1350 N1338 0.984 . S
H1351 N1338 0.985 . S
C1352 C1353 1.363 . S
C1352 C1358 1.379 . S
C1352 N1360 1.356 . S
C1353 C1352 1.363 . S
C1353 C1359 1.363 . S
C1354 C1355 1.363 . S
C1354 C1359 1.379 . S
C1354 N1361 1.356 . S
C1355 C1354 1.363 . S
C1355 C1358 1.363 . S
N1356 C1358 1.356 . S
N1356 H1368 0.984 . S
N1356 H1369 0.985 . S
N1357 C1359 1.356 . S
N1357 H1362 0.984 . S
N1357 H1363 0.985 . S
C1358 C1352 1.379 . S
C1358 C1355 1.363 . S
C1358 N1356 1.356 . S
C1359 C1353 1.363 . S
C1359 C1354 1.379 . S
C1359 N1357 1.356 . S
N1360 C1352 1.356 . S
N1360 H1366 0.984 . S
N1360 H1367 0.984 . S
N1361 C1354 1.356 . S
N1361 H1364 0.984 . S
N1361 H1365 0.985 . S
H1362 N1357 0.984 . S
H1363 N1357 0.985 . S
H1364 N1361 0.984 . S
H1365 N1361 0.985 . S
H1366 N1360 0.984 . S
H1367 N1360 0.984 . S
H1368 N1356 0.984 . S
H1369 N1356 0.985 . S
C1370 C1371 1.363 . S
C1370 C1376 1.379 . S
C1370 N1378 1.356 . S
C1371 C1370 1.363 . S
C1371 C1377 1.363 1_545 S
C1372 C1373 1.363 . S
C1372 C1377 1.379 . S
C1372 N1379 1.356 . S
C1373 C1372 1.363 . S
C1373 C1376 1.363 1_565 S
N1374 C1376 1.356 1_565 S
N1374 H1386 0.984 1_565 S
N1374 H1387 0.985 . S
N1375 C1377 1.356 1_545 S
N1375 H1380 0.984 . S
N1375 H1381 0.985 1_545 S
C1376 C1370 1.379 . S
C1376 C1373 1.363 1_545 S
C1376 N1374 1.356 1_545 S
C1377 C1371 1.363 1_565 S
C1377 C1372 1.379 . S
C1377 N1375 1.356 1_565 S
N1378 C1370 1.356 . S
N1378 H1384 0.984 . S
N1378 H1385 0.984 . S
N1379 C1372 1.356 . S
N1379 H1382 0.984 . S
N1379 H1383 0.985 . S
H1380 N1375 0.984 . S
H1381 N1375 0.985 1_565 S
H1382 N1379 0.984 . S
H1383 N1379 0.985 . S
H1384 N1378 0.984 . S
H1385 N1378 0.984 . S
H1386 N1374 0.984 1_545 S
H1387 N1374 0.985 . S
C1388 C1389 1.363 . S
C1388 C1394 1.379 . S
C1388 N1396 1.356 . S
C1389 C1388 1.363 . S
C1389 C1395 1.363 . S
C1390 C1391 1.363 . S
C1390 C1395 1.379 . S
C1390 N1397 1.356 . S
C1391 C1390 1.363 . S
C1391 C1394 1.363 . S
N1392 C1394 1.356 . S
N1392 H1404 0.984 . S
N1392 H1405 0.985 . S
N1393 C1395 1.356 . S
N1393 H1398 0.984 . S
N1393 H1399 0.985 . S
C1394 C1388 1.379 . S
C1394 C1391 1.363 . S
C1394 N1392 1.356 . S
C1395 C1389 1.363 . S
C1395 C1390 1.379 . S
C1395 N1393 1.356 . S
N1396 C1388 1.356 . S
N1396 H1402 0.984 . S
N1396 H1403 0.984 . S
N1397 C1390 1.356 . S
N1397 H1400 0.984 . S
N1397 H1401 0.985 . S
H1398 N1393 0.984 . S
H1399 N1393 0.985 . S
H1400 N1397 0.984 . S
H1401 N1397 0.985 . S
H1402 N1396 0.984 . S
H1403 N1396 0.984 . S
H1404 N1392 0.984 . S
H1405 N1392 0.985 . S
C1406 C1407 1.363 1_545 S
C1406 C1412 1.379 . S
C1406 N1414 1.356 . S
C1407 C1406 1.363 1_565 S
C1407 C1413 1.363 . S
C1408 C1409 1.363 1_565 S
C1408 C1413 1.379 1_556 S
C1408 N1415 1.356 . S
C1409 C1408 1.363 1_545 S
C1409 C1412 1.363 1_556 S
N1410 C1412 1.356 . S
N1410 H1422 0.984 . S
N1410 H1423 0.985 1_554 S
N1411 C1413 1.356 . S
N1411 H1416 0.984 . S
N1411 H1417 0.985 . S
C1412 C1406 1.379 . S
C1412 C1409 1.363 1_554 S
C1412 N1410 1.356 . S
C1413 C1407 1.363 . S
C1413 C1408 1.379 1_554 S
C1413 N1411 1.356 . S
N1414 C1406 1.356 . S
N1414 H1420 0.984 . S
N1414 H1421 0.984 1_545 S
N1415 C1408 1.356 . S
N1415 H1418 0.984 1_565 S
N1415 H1419 0.985 . S
H1416 N1411 0.984 . S
H1417 N1411 0.985 . S
H1418 N1415 0.984 1_545 S
H1419 N1415 0.985 . S
H1420 N1414 0.984 . S
H1421 N1414 0.984 1_565 S
H1422 N1410 0.984 . S
H1423 N1410 0.985 1_556 S
C1424 C1425 1.363 . S
C1424 C1430 1.379 . S
C1424 N1432 1.356 . S
C1425 C1424 1.363 . S
C1425 C1431 1.363 . S
C1426 C1427 1.363 . S
C1426 C1431 1.379 . S
C1426 N1433 1.356 . S
C1427 C1426 1.363 . S
C1427 C1430 1.363 . S
N1428 C1430 1.356 . S
N1428 H1440 0.984 . S
N1428 H1441 0.985 . S
N1429 C1431 1.356 . S
N1429 H1434 0.984 . S
N1429 H1435 0.985 . S
C1430 C1424 1.379 . S
C1430 C1427 1.363 . S
C1430 N1428 1.356 . S
C1431 C1425 1.363 . S
C1431 C1426 1.379 . S
C1431 N1429 1.356 . S
N1432 C1424 1.356 . S
N1432 H1438 0.984 . S
N1432 H1439 0.984 . S
N1433 C1426 1.356 . S
N1433 H1436 0.984 . S
N1433 H1437 0.985 . S
H1434 N1429 0.984 . S
H1435 N1429 0.985 . S
H1436 N1433 0.984 . S
H1437 N1433 0.985 . S
H1438 N1432 0.984 . S
H1439 N1432 0.984 . S
H1440 N1428 0.984 . S
H1441 N1428 0.985 . S
C1442 C1443 1.363 . S
C1442 C1448 1.379 1_554 S
C1442 N1450 1.356 . S
C1443 C1442 1.363 . S
C1443 C1449 1.363 . S
C1444 C1445 1.363 1_554 S
C1444 C1449 1.379 . S
C1444 N1451 1.356 . S
C1445 C1444 1.363 1_556 S
C1445 C1448 1.363 . S
N1446 C1448 1.356 . S
N1446 H1458 0.984 . S
N1446 H1459 0.985 . S
N1447 C1449 1.356 . S
N1447 H1452 0.984 . S
N1447 H1453 0.985 . S
C1448 C1442 1.379 1_556 S
C1448 C1445 1.363 . S
C1448 N1446 1.356 . S
C1449 C1443 1.363 . S
C1449 C1444 1.379 . S
C1449 N1447 1.356 . S
N1450 C1442 1.356 . S
N1450 H1456 0.984 . S
N1450 H1457 0.984 . S
N1451 C1444 1.356 . S
N1451 H1454 0.984 1_554 S
N1451 H1455 0.985 . S
H1452 N1447 0.984 . S
H1453 N1447 0.985 . S
H1454 N1451 0.984 1_556 S
H1455 N1451 0.985 . S
H1456 N1450 0.984 . S
H1457 N1450 0.984 . S
H1458 N1446 0.984 . S
H1459 N1446 0.985 . S
C1460 C1461 1.363 . S
C1460 C1466 1.379 . S
C1460 N1468 1.356 . S
C1461 C1460 1.363 . S
C1461 C1467 1.363 . S
C1462 C1463 1.363 . S
C1462 C1467 1.379 . S
C1462 N1469 1.356 . S
C1463 C1462 1.363 . S
C1463 C1466 1.363 . S
N1464 C1466 1.356 . S
N1464 H1476 0.984 . S
N1464 H1477 0.985 . S
N1465 C1467 1.356 . S
N1465 H1470 0.984 . S
N1465 H1471 0.985 . S
C1466 C1460 1.379 . S
C1466 C1463 1.363 . S
C1466 N1464 1.356 . S
C1467 C1461 1.363 . S
C1467 C1462 1.379 . S
C1467 N1465 1.356 . S
N1468 C1460 1.356 . S
N1468 H1474 0.984 . S
N1468 H1475 0.984 . S
N1469 C1462 1.356 . S
N1469 H1472 0.984 . S
N1469 H1473 0.985 . S
H1470 N1465 0.984 . S
H1471 N1465 0.985 . S
H1472 N1469 0.984 . S
H1473 N1469 0.985 . S
H1474 N1468 0.984 . S
H1475 N1468 0.984 . S
H1476 N1464 0.984 . S
H1477 N1464 0.985 . S
C1478 C1479 1.363 . S
C1478 C1484 1.379 . S
C1478 N1486 1.356 . S
C1479 C1478 1.363 . S
C1479 C1485 1.363 . S
C1480 C1481 1.363 . S
C1480 C1485 1.379 . S
C1480 N1487 1.356 . S
C1481 C1480 1.363 . S
C1481 C1484 1.363 . S
N1482 C1484 1.356 . S
N1482 H1494 0.984 . S
N1482 H1495 0.985 . S
N1483 C1485 1.356 . S
N1483 H1488 0.984 . S
N1483 H1489 0.985 . S
C1484 C1478 1.379 . S
C1484 C1481 1.363 . S
C1484 N1482 1.356 . S
C1485 C1479 1.363 . S
C1485 C1480 1.379 . S
C1485 N1483 1.356 . S
N1486 C1478 1.356 . S
N1486 H1492 0.984 . S
N1486 H1493 0.984 . S
N1487 C1480 1.356 . S
N1487 H1490 0.984 . S
N1487 H1491 0.985 . S
H1488 N1483 0.984 . S
H1489 N1483 0.985 . S
H1490 N1487 0.984 . S
H1491 N1487 0.985 . S
H1492 N1486 0.984 . S
H1493 N1486 0.984 . S
H1494 N1482 0.984 . S
H1495 N1482 0.985 . S
C1496 C1497 1.363 . S
C1496 C1502 1.379 . S
C1496 N1504 1.356 . S
C1497 C1496 1.363 . S
C1497 C1503 1.363 . S
C1498 C1499 1.363 . S
C1498 C1503 1.379 . S
C1498 N1505 1.356 . S
C1499 C1498 1.363 . S
C1499 C1502 1.363 . S
N1500 C1502 1.356 . S
N1500 H1512 0.984 . S
N1500 H1513 0.985 . S
N1501 C1503 1.356 . S
N1501 H1506 0.984 . S
N1501 H1507 0.985 . S
C1502 C1496 1.379 . S
C1502 C1499 1.363 . S
C1502 N1500 1.356 . S
C1503 C1497 1.363 . S
C1503 C1498 1.379 . S
C1503 N1501 1.356 . S
N1504 C1496 1.356 . S
N1504 H1510 0.984 . S
N1504 H1511 0.984 . S
N1505 C1498 1.356 . S
N1505 H1508 0.984 . S
N1505 H1509 0.985 . S
H1506 N1501 0.984 . S
H1507 N1501 0.985 . S
H1508 N1505 0.984 . S
H1509 N1505 0.985 . S
H1510 N1504 0.984 . S
H1511 N1504 0.984 . S
H1512 N1500 0.984 . S
H1513 N1500 0.985 . S
C1514 C1515 1.363 1_554 S
C1514 C1520 1.379 . S
C1514 N1522 1.356 . S
C1515 C1514 1.363 1_556 S
C1515 C1521 1.363 . S
C1516 C1517 1.363 . S
C1516 C1521 1.379 1_554 S
C1516 N1523 1.356 . S
C1517 C1516 1.363 . S
C1517 C1520 1.363 . S
N1518 C1520 1.356 . S
N1518 H1530 0.984 . S
N1518 H1531 0.985 . S
N1519 C1521 1.356 . S
N1519 H1524 0.984 . S
N1519 H1525 0.985 . S
C1520 C1514 1.379 . S
C1520 C1517 1.363 . S
C1520 N1518 1.356 . S
C1521 C1515 1.363 . S
C1521 C1516 1.379 1_556 S
C1521 N1519 1.356 . S
N1522 C1514 1.356 . S
N1522 H1528 0.984 . S
N1522 H1529 0.986 . S
N1523 C1516 1.356 . S
N1523 H1526 0.984 . S
N1523 H1527 0.985 . S
H1524 N1519 0.984 . S
H1525 N1519 0.985 . S
H1526 N1523 0.984 . S
H1527 N1523 0.985 . S
H1528 N1522 0.984 . S
H1529 N1522 0.986 . S
H1530 N1518 0.984 . S
H1531 N1518 0.985 . S
C1532 C1533 1.363 . S
C1532 C1538 1.379 . S
C1532 N1540 1.356 . S
C1533 C1532 1.363 . S
C1533 C1539 1.363 . S
C1534 C1535 1.363 . S
C1534 C1539 1.379 . S
C1534 N1541 1.356 . S
C1535 C1534 1.363 . S
C1535 C1538 1.363 . S
N1536 C1538 1.356 . S
N1536 H1548 0.984 . S
N1536 H1549 0.985 . S
N1537 C1539 1.356 . S
N1537 H1542 0.984 . S
N1537 H1543 0.985 . S
C1538 C1532 1.379 . S
C1538 C1535 1.363 . S
C1538 N1536 1.356 . S
C1539 C1533 1.363 . S
C1539 C1534 1.379 . S
C1539 N1537 1.356 . S
N1540 C1532 1.356 . S
N1540 H1546 0.984 . S
N1540 H1547 0.984 . S
N1541 C1534 1.356 . S
N1541 H1544 0.984 . S
N1541 H1545 0.985 . S
H1542 N1537 0.984 . S
H1543 N1537 0.985 . S
H1544 N1541 0.984 . S
H1545 N1541 0.985 . S
H1546 N1540 0.984 . S
H1547 N1540 0.984 . S
H1548 N1536 0.984 . S
H1549 N1536 0.985 . S
C1550 C1551 1.363 . S
C1550 C1556 1.379 . S
C1550 N1558 1.356 . S
C1551 C1550 1.363 . S
C1551 C1557 1.363 . S
C1552 C1553 1.363 . S
C1552 C1557 1.379 . S
C1552 N1559 1.356 . S
C1553 C1552 1.363 . S
C1553 C1556 1.363 . S
N1554 C1556 1.356 . S
N1554 H1566 0.984 . S
N1554 H1567 0.985 . S
N1555 C1557 1.356 . S
N1555 H1560 0.984 . S
N1555 H1561 0.985 . S
C1556 C1550 1.379 . S
C1556 C1553 1.363 . S
C1556 N1554 1.356 . S
C1557 C1551 1.363 . S
C1557 C1552 1.379 . S
C1557 N1555 1.356 . S
N1558 C1550 1.356 . S
N1558 H1564 0.984 . S
N1558 H1565 0.984 . S
N1559 C1552 1.356 . S
N1559 H1562 0.984 . S
N1559 H1563 0.985 . S
H1560 N1555 0.984 . S
H1561 N1555 0.985 . S
H1562 N1559 0.984 . S
H1563 N1559 0.985 . S
H1564 N1558 0.984 . S
H1565 N1558 0.984 . S
H1566 N1554 0.984 . S
H1567 N1554 0.985 . S
C417 C91 1.429 . S
C419 C0 1.430 1_556 S
C435 C13 1.430 . S
C437 C52 1.430 . S
C453 C65 1.430 . S
C455 C26 1.430 . S
C471 C39 1.430 . S
C473 C78 1.430 . S
C489 C104 1.430 . S
C491 C195 1.430 . S
C507 C117 1.429 . S
C509 C156 1.430 1_556 S
C525 C130 1.430 . S
C527 C169 1.430 . S
C543 C143 1.430 . S
C545 C182 1.430 . S
C561 C208 1.430 . S
C563 C299 1.430 . S
C579 C221 1.430 . S
C581 C260 1.430 . S
C597 C273 1.429 . S
C599 C234 1.430 1_556 S
C615 C286 1.430 . S
C617 C247 1.430 . S
C633 C312 1.430 . S
C635 C403 1.430 . S
C651 C364 1.430 . S
C653 C325 1.430 . S
C669 C377 1.430 . S
C671 C338 1.430 . S
C687 C351 1.429 . S
C689 C390 1.430 1_556 S
C705 C8 1.086 . S
C707 C86 1.086 . S
C723 C21 1.085 . S
C725 C99 1.085 . S
C741 C60 1.085 . S
C743 C34 1.085 . S
C759 C47 1.085 . S
C761 C73 1.085 . S
C777 C112 1.085 . S
C779 C190 1.085 . S
C795 C125 1.085 . S
C797 C203 1.085 . S
C813 C164 1.086 . S
C815 C138 1.086 . S
C831 C177 1.085 . S
C833 C151 1.085 . S
C849 C216 1.085 . S
C851 C294 1.085 . S
C867 C307 1.085 . S
C869 C229 1.085 . S
C885 C268 1.086 . S
C887 C242 1.086 . S
C903 C255 1.085 . S
C905 C281 1.085 . S
C921 C320 1.086 . S
C923 C398 1.086 . S
C939 C333 1.085 . S
C941 C411 1.085 . S
C957 C372 1.085 . S
C959 C346 1.085 . S
C975 C385 1.085 . S
C977 C359 1.085 . S
C993 C5 1.387 . S
C995 C395 1.387 . S
C1011 C18 1.387 . S
C1013 C200 1.387 . S
C1029 C31 1.387 . S
C1031 C369 1.387 . S
C1047 C44 1.387 . S
C1049 C174 1.387 . S
C1065 C57 1.388 . S
C1067 C343 1.388 . S
C1083 C70 1.387 . S
C1085 C148 1.387 . S
C1101 C83 1.387 . S
C1103 C317 1.387 . S
C1119 C122 1.387 . S
C1121 C96 1.387 . S
C1137 C291 1.388 . S
C1139 C109 1.388 . S
C1155 C135 1.387 . S
C1157 C265 1.387 . S
C1173 C239 1.387 . S
C1175 C161 1.387 . S
C1191 C213 1.387 . S
C1193 C187 1.387 . S
C1209 C226 1.387 . S
C1211 C408 1.387 . S
C1227 C252 1.387 . S
C1229 C382 1.387 . S
C1245 C278 1.387 . S
C1247 C356 1.387 . S
C1263 C330 1.387 . S
C1265 C304 1.387 . S
C1281 C10 1.557 . S
C1283 C88 1.557 . S
C1299 C23 1.557 . S
C1301 C101 1.557 . S
C1317 C62 1.557 . S
C1319 C36 1.557 . S
C1335 C49 1.557 . S
C1337 C75 1.557 . S
C1353 C114 1.557 . S
C1355 C192 1.557 . S
C1371 C127 1.557 . S
C1373 C205 1.557 . S
C1389 C166 1.557 . S
C1391 C140 1.557 . S
C1407 C153 1.557 . S
C1409 C179 1.557 . S
C1425 C296 1.557 . S
C1427 C218 1.557 . S
C1443 C309 1.557 . S
C1445 C231 1.557 . S
C1461 C270 1.557 . S
C1463 C244 1.557 . S
C1479 C283 1.557 . S
C1481 C257 1.557 . S
C1497 C400 1.557 . S
C1499 C322 1.557 . S
C1515 C413 1.557 . S
C1517 C335 1.557 . S
C1533 C348 1.557 . S
C1535 C374 1.557 . S
C1551 C387 1.557 . S
C1553 C361 1.557 . S
