# Generated by pormake.
# Topology crb, (4)-cn, num edge types: 1
# Building blocks:
#     Node 0, Type 0, BuildingBlock: KUFVIS_clean_sbu_0, # of connection points: 4
#     Node 1, Type 0, BuildingBlock: KUFVIS_clean_sbu_0, # of connection points: 4
#     Node 2, Type 0, BuildingBlock: KUFVIS_clean_sbu_0, # of connection points: 4
#     Node 3, Type 0, BuildingBlock: KUFVIS_clean_sbu_0, # of connection points: 4
#     Node 4, Type 0, BuildingBlock: KUFVIS_clean_sbu_0, # of connection points: 4
#     Node 5, Type 0, BuildingBlock: KUFVIS_clean_sbu_0, # of connection points: 4
#     Node 6, Type 0, BuildingBlock: KUFVIS_clean_sbu_0, # of connection points: 4
#     Node 7, Type 0, BuildingBlock: KUFVIS_clean_sbu_0, # of connection points: 4
#     Edge 8, Type (0, 0), BuildingBlock: ZUJKAS_clean_linker_0, # of connection points: 2
#     Edge 9, Type (0, 0), BuildingBlock: ZUJKAS_clean_linker_0, # of connection points: 2
#     Edge 10, Type (0, 0), BuildingBlock: ZUJKAS_clean_linker_0, # of connection points: 2
#     Edge 11, Type (0, 0), BuildingBlock: ZUJKAS_clean_linker_0, # of connection points: 2
#     Edge 12, Type (0, 0), BuildingBlock: ZUJKAS_clean_linker_0, # of connection points: 2
#     Edge 13, Type (0, 0), BuildingBlock: ZUJKAS_clean_linker_0, # of connection points: 2
#     Edge 14, Type (0, 0), BuildingBlock: ZUJKAS_clean_linker_0, # of connection points: 2
#     Edge 15, Type (0, 0), BuildingBlock: ZUJKAS_clean_linker_0, # of connection points: 2
#     Edge 16, Type (0, 0), BuildingBlock: ZUJKAS_clean_linker_0, # of connection points: 2
#     Edge 17, Type (0, 0), BuildingBlock: ZUJKAS_clean_linker_0, # of connection points: 2
#     Edge 18, Type (0, 0), BuildingBlock: ZUJKAS_clean_linker_0, # of connection points: 2
#     Edge 19, Type (0, 0), BuildingBlock: ZUJKAS_clean_linker_0, # of connection points: 2
#     Edge 20, Type (0, 0), BuildingBlock: ZUJKAS_clean_linker_0, # of connection points: 2
#     Edge 21, Type (0, 0), BuildingBlock: ZUJKAS_clean_linker_0, # of connection points: 2
#     Edge 22, Type (0, 0), BuildingBlock: ZUJKAS_clean_linker_0, # of connection points: 2
#     Edge 23, Type (0, 0), BuildingBlock: ZUJKAS_clean_linker_0, # of connection points: 2
# Relax obj value: 0.084
# Max RMSD: 0.128
# Mean RMSD: 0.128
data_MOF--net-crb--node1-KUFVIS_clean_sbu_0--edge1-ZUJKAS_clean_linker_0
_symmetry_space_group_name_H-M    P1
_symmetry_Int_Tables_number       1
_symmetry_cell_setting            triclinic
loop_
_symmetry_equiv_pos_as_xyz
'x, y, z'
_cell_length_a     53.889162
_cell_length_b     56.857104
_cell_length_c     30.123329
_cell_angle_alpha  90.047494
_cell_angle_beta   89.980861
_cell_angle_gamma 89.935539
loop_
_atom_site_label
_atom_site_type_symbol
_atom_site_fract_x
_atom_site_fract_y
_atom_site_fract_z
_atom_type_partial_charge
Mn0 Mn 0.32465 0.34726 0.03988 0.0
Mn1 Mn 0.35235 0.29592 0.01206 0.0
C2 C 0.36682 0.342 0.05173 0.0
C3 C 0.31206 0.38589 0.02559 0.0
C4 C 0.32062 0.30168 0.09425 0.0
O5 O 0.2997 0.33287 0.99645 0.0
O6 O 0.32032 0.29939 0.9803 0.0
C7 C 0.36278 0.30629 0.91752 0.0
N8 N 0.37093 0.29981 0.95852 0.0
C9 C 0.41266 0.29477 0.93161 0.0
C10 C 0.40469 0.3013 0.88905 0.0
C11 C 0.37965 0.30715 0.88203 0.0
C12 C 0.39499 0.29423 0.96568 0.0
H13 H 0.34355 0.31076 0.91196 0.0
C14 C 0.30176 0.3133 0.97578 0.0
O15 O 0.30166 0.37329 0.05626 0.0
O16 O 0.32887 0.37561 1.0015 0.0
N17 N 0.3837 0.29029 0.03987 0.0
C18 C 0.3886 0.28555 0.08332 0.0
C19 C 0.41279 0.27932 0.09599 0.0
C20 C 0.43163 0.27793 0.06386 0.0
C21 C 0.42623 0.28325 0.01949 0.0
C22 C 0.4017 0.28898 1.00871 0.0
H23 H 0.37411 0.28631 0.10806 0.0
O24 O 0.35435 0.35719 0.07493 0.0
O25 O 0.35421 0.33 0.02274 0.0
O26 O 0.31526 0.32324 0.08776 0.0
O27 O 0.33429 0.2898 0.0679 0.0
C28 C 0.44425 0.28323 0.98558 0.0
C29 C 0.43749 0.2891 0.94171 0.0
H30 H 0.41765 0.30203 0.86161 0.0
H31 H 0.37338 0.31228 0.84931 0.0
H32 H 0.41688 0.27541 0.13038 0.0
H33 H 0.45022 0.27289 0.07368 0.0
H34 H 0.46341 0.279 0.99299 0.0
H35 H 0.45157 0.28934 0.91604 0.0
Mn36 Mn 0.67424 0.35376 0.01619 0.0
Mn37 Mn 0.64753 0.30213 0.04434 0.0
C38 C 0.63192 0.34803 1.00702 0.0
C39 C 0.6866 0.39248 0.03033 0.0
C40 C 0.67823 0.30835 0.96112 0.0
O41 O 0.70002 0.33933 0.05818 0.0
O42 O 0.67988 0.30565 0.07494 0.0
C43 C 0.63806 0.31188 0.13944 0.0
N44 N 0.62946 0.30587 0.09847 0.0
C45 C 0.58803 0.30066 0.12659 0.0
C46 C 0.59645 0.30672 0.16912 0.0
C47 C 0.62155 0.31247 0.17552 0.0
C48 C 0.60529 0.30061 0.09185 0.0
H49 H 0.65737 0.31613 0.14456 0.0
C50 C 0.69839 0.31967 0.0787 0.0
O51 O 0.69661 0.38005 0.99894 0.0
O52 O 0.67033 0.38198 0.0552 0.0
N53 N 0.61591 0.29673 0.01734 0.0
C54 C 0.61057 0.2923 0.97391 0.0
C55 C 0.58608 0.28694 0.96165 0.0
C56 C 0.56745 0.28581 0.9942 0.0
C57 C 0.57348 0.29016 0.03873 0.0
C58 C 0.59814 0.29564 0.04892 0.0
H59 H 0.62486 0.29292 0.94881 0.0
O60 O 0.64354 0.3635 0.98319 0.0
O61 O 0.64542 0.33613 0.03466 0.0
O62 O 0.68319 0.33 0.96755 0.0
O63 O 0.66509 0.29623 0.98785 0.0
C64 C 0.55597 0.28931 0.0734 0.0
C65 C 0.56319 0.29473 0.11726 0.0
H66 H 0.5838 0.3071 0.19707 0.0
H67 H 0.62818 0.31721 0.20823 0.0
H68 H 0.58159 0.28357 0.92721 0.0
H69 H 0.54859 0.28163 0.98464 0.0
H70 H 0.53679 0.28491 0.06659 0.0
H71 H 0.54944 0.29446 0.14349 0.0
Mn72 Mn 0.67763 0.68486 0.03506 0.0
Mn73 Mn 0.65591 0.73803 1.00361 0.0
C74 C 0.6357 0.69377 0.04162 0.0
C75 C 0.68764 0.64524 0.02363 0.0
C76 C 0.68309 0.73028 0.08996 0.0
O77 O 0.70541 0.69665 0.99444 0.0
O78 O 0.68918 0.73212 0.9778 0.0
C79 C 0.65031 0.72823 0.90753 0.0
N80 N 0.64038 0.73545 0.94683 0.0
C81 C 0.60194 0.74601 0.91151 0.0
C82 C 0.61175 0.73874 0.87061 0.0
C83 C 0.63599 0.72965 0.86868 0.0
C84 C 0.61693 0.74376 0.9492 0.0
H85 H 0.66906 0.72156 0.90579 0.0
C86 C 0.70632 0.71658 0.97486 0.0
O87 O 0.69771 0.6575 0.05513 0.0
O88 O 0.67252 0.65629 0.99728 0.0
N89 N 0.62372 0.74623 0.02534 0.0
C90 C 0.61659 0.75122 0.06772 0.0
C91 C 0.59259 0.75991 0.07562 0.0
C92 C 0.57643 0.76391 0.03982 0.0
C93 C 0.58425 0.75873 0.99648 0.0
C94 C 0.60818 0.74968 0.99075 0.0
H95 H 0.62917 0.74869 0.09521 0.0
O96 O 0.64584 0.67786 0.06661 0.0
O97 O 0.65041 0.70429 0.01378 0.0
O98 O 0.68741 0.70852 0.08341 0.0
O99 O 0.67105 0.74298 0.06252 0.0
C100 C 0.56928 0.76224 0.9587 0.0
C101 C 0.57796 0.75555 0.91634 0.0
H102 H 0.60085 0.74005 0.8405 0.0
H103 H 0.64369 0.72398 0.83726 0.0
H104 H 0.58669 0.76384 0.10916 0.0
H105 H 0.55804 0.77087 0.046 0.0
H106 H 0.55087 0.76971 0.96194 0.0
H107 H 0.56604 0.75783 0.88772 0.0
Mn108 Mn 0.32888 0.67625 0.01753 0.0
Mn109 Mn 0.35829 0.72659 0.04581 0.0
C110 C 0.37111 0.68047 1.00502 0.0
C111 C 0.31528 0.63797 0.03191 0.0
C112 C 0.32545 0.72234 0.96466 0.0
O113 O 0.30463 0.69124 0.06169 0.0
O114 O 0.32669 0.72369 0.07914 0.0
C115 C 0.37009 0.71489 0.13925 0.0
N116 N 0.37771 0.72152 0.09802 0.0
C117 C 0.42014 0.7245 0.12233 0.0
C118 C 0.41273 0.7178 0.16512 0.0
C119 C 0.38761 0.71291 0.17356 0.0
C120 C 0.40186 0.72611 0.08945 0.0
H121 H 0.3508 0.71115 0.14588 0.0
C122 C 0.30762 0.71042 0.08333 0.0
O123 O 0.30507 0.65087 1.00145 0.0
O124 O 0.33254 0.64775 0.05564 0.0
N125 N 0.38928 0.73155 0.01631 0.0
C126 C 0.39349 0.73686 0.97284 0.0
C127 C 0.41765 0.74232 0.95885 0.0
C128 C 0.43718 0.7424 0.98968 0.0
C129 C 0.43246 0.73666 0.03415 0.0
C130 C 0.40794 0.73167 0.04627 0.0
H131 H 0.37851 0.73707 0.94907 0.0
O132 O 0.35825 0.6656 0.98184 0.0
O133 O 0.35887 0.69264 0.0342 0.0
O134 O 0.31985 0.70076 0.97027 0.0
O135 O 0.33946 0.73371 0.9912 0.0
C136 C 0.4511 0.7356 0.06687 0.0
C137 C 0.44497 0.72938 0.11087 0.0
H138 H 0.42618 0.71624 0.19167 0.0
H139 H 0.38177 0.70765 0.20646 0.0
H140 H 0.42119 0.74662 0.92444 0.0
H141 H 0.45573 0.74692 0.97882 0.0
H142 H 0.47026 0.73926 0.05844 0.0
H143 H 0.45952 0.7283 0.1356 0.0
Mn144 Mn 0.82889 0.85229 0.53934 0.0
Mn145 Mn 0.85767 0.80171 0.51018 0.0
C146 C 0.87113 0.84771 0.551 0.0
C147 C 0.81541 0.89066 0.52512 0.0
C148 C 0.82526 0.80621 0.592 0.0
O149 O 0.80424 0.83742 0.49582 0.0
O150 O 0.82615 0.80509 0.47675 0.0
C151 C 0.86975 0.81345 0.41689 0.0
N152 N 0.87724 0.80667 0.45811 0.0
C153 C 0.91969 0.80339 0.43401 0.0
C154 C 0.91242 0.81025 0.39124 0.0
C155 C 0.88736 0.81537 0.38269 0.0
C156 C 0.90133 0.80184 0.46676 0.0
H157 H 0.8505 0.81738 0.41019 0.0
C158 C 0.80708 0.81848 0.47335 0.0
O159 O 0.80535 0.87787 0.55589 0.0
O160 O 0.83243 0.88072 0.501 0.0
N161 N 0.88856 0.79634 0.53979 0.0
C162 C 0.89265 0.79096 0.58326 0.0
C163 C 0.91677 0.78541 0.5974 0.0
C164 C 0.93639 0.78531 0.5667 0.0
C165 C 0.93176 0.79105 0.52221 0.0
C166 C 0.90729 0.79615 0.50994 0.0
H167 H 0.87761 0.79077 0.60694 0.0
O168 O 0.85855 0.86277 0.57429 0.0
O169 O 0.85863 0.83563 0.52207 0.0
O170 O 0.82018 0.82795 0.58701 0.0
O171 O 0.83864 0.79463 0.56468 0.0
C172 C 0.95049 0.79205 0.4896 0.0
C173 C 0.94448 0.79835 0.44559 0.0
H174 H 0.92594 0.81178 0.36478 0.0
H175 H 0.88162 0.82075 0.3498 0.0
H176 H 0.92022 0.78108 0.63183 0.0
H177 H 0.95491 0.78078 0.5777 0.0
H178 H 0.96961 0.78829 0.49814 0.0
H179 H 0.95908 0.79938 0.42096 0.0
Mn180 Mn 0.17769 0.84581 0.52246 0.0
Mn181 Mn 0.15724 0.79233 0.55457 0.0
C182 C 0.13605 0.83602 0.51571 0.0
C183 C 0.18687 0.88563 0.53315 0.0
C184 C 0.18437 0.80023 0.46835 0.0
O185 O 0.20554 0.83483 0.56361 0.0
O186 O 0.19044 0.79891 0.5801 0.0
C187 C 0.15158 0.80239 0.65056 0.0
N188 N 0.14173 0.79489 0.61139 0.0
C189 C 0.10349 0.78401 0.64703 0.0
C190 C 0.11322 0.79157 0.68778 0.0
C191 C 0.13731 0.80095 0.68948 0.0
C192 C 0.11842 0.78626 0.60925 0.0
H193 H 0.17022 0.80928 0.65214 0.0
C194 C 0.20706 0.81491 0.58303 0.0
O195 O 0.19725 0.87335 0.50198 0.0
O196 O 0.17182 0.87454 0.55954 0.0
N197 N 0.12521 0.78348 0.53313 0.0
C198 C 0.11816 0.77812 0.49089 0.0
C199 C 0.09433 0.76904 0.48322 0.0
C200 C 0.07825 0.76505 0.51914 0.0
C201 C 0.08597 0.77062 0.56235 0.0
C202 C 0.10975 0.78001 0.56784 0.0
H203 H 0.13069 0.78067 0.46331 0.0
O204 O 0.14588 0.85199 0.49046 0.0
O205 O 0.15091 0.82595 0.5439 0.0
O206 O 0.18824 0.82206 0.4748 0.0
O207 O 0.17243 0.78741 0.49568 0.0
C208 C 0.07105 0.76718 0.60022 0.0
C209 C 0.07964 0.77419 0.64243 0.0
H210 H 0.10236 0.79027 0.71795 0.0
H211 H 0.14496 0.80683 0.7208 0.0
H212 H 0.08849 0.76481 0.44979 0.0
H213 H 0.05998 0.75779 0.51315 0.0
H214 H 0.05275 0.75948 0.59717 0.0
H215 H 0.06777 0.77192 0.67112 0.0
Mn216 Mn 0.17427 0.17713 0.53862 0.0
Mn217 Mn 0.14761 0.22873 0.5099 0.0
C218 C 0.13196 0.18293 0.54751 0.0
C219 C 0.18666 0.13838 0.52477 0.0
C220 C 0.17813 0.22263 0.59336 0.0
O221 O 0.20013 0.19145 0.49677 0.0
O222 O 0.18006 0.22512 0.47943 0.0
C223 C 0.13833 0.21875 0.41484 0.0
N224 N 0.12964 0.22486 0.45571 0.0
C225 C 0.08819 0.22972 0.42747 0.0
C226 C 0.0967 0.22356 0.38503 0.0
C227 C 0.12186 0.21795 0.37874 0.0
C228 C 0.10542 0.23003 0.46223 0.0
H229 H 0.15768 0.21456 0.40981 0.0
C230 C 0.19857 0.21104 0.47598 0.0
O231 O 0.19661 0.15084 0.55615 0.0
O232 O 0.17046 0.14888 0.49974 0.0
N233 N 0.11593 0.23419 0.53672 0.0
C234 C 0.1105 0.23871 0.58009 0.0
C235 C 0.08595 0.24397 0.59225 0.0
C236 C 0.06735 0.24488 0.55965 0.0
C237 C 0.07345 0.24042 0.51518 0.0
C238 C 0.09819 0.23509 0.50509 0.0
H239 H 0.12477 0.23822 0.60523 0.0
O240 O 0.14354 0.16748 0.57151 0.0
O241 O 0.14551 0.19476 0.51985 0.0
O242 O 0.18309 0.20095 0.58712 0.0
O243 O 0.16507 0.23474 0.56646 0.0
C244 C 0.05596 0.24099 0.48049 0.0
C245 C 0.06328 0.23548 0.43671 0.0
H246 H 0.08407 0.223 0.35708 0.0
H247 H 0.12856 0.21312 0.34611 0.0
H248 H 0.0814 0.2474 0.62664 0.0
H249 H 0.04843 0.24895 0.56914 0.0
H250 H 0.03672 0.24525 0.48723 0.0
H251 H 0.04954 0.23555 0.41046 0.0
Mn252 Mn 0.82478 0.18156 0.51582 0.0
Mn253 Mn 0.8522 0.23312 0.54269 0.0
C254 C 0.86686 0.18699 0.50336 0.0
C255 C 0.8125 0.14289 0.53046 0.0
C256 C 0.82026 0.22698 0.461 0.0
O257 O 0.79989 0.19591 0.55948 0.0
O258 O 0.8202 0.22967 0.57454 0.0
C259 C 0.8627 0.22307 0.63732 0.0
N260 N 0.87081 0.22946 0.59624 0.0
C261 C 0.9125 0.23475 0.62303 0.0
C262 C 0.90458 0.22831 0.66567 0.0
C263 C 0.87959 0.22238 0.67279 0.0
C264 C 0.89483 0.2351 0.58898 0.0
H265 H 0.84351 0.21854 0.64296 0.0
C266 C 0.80179 0.21567 0.57956 0.0
O267 O 0.8019 0.15542 0.49989 0.0
O268 O 0.82935 0.15325 0.55427 0.0
N269 N 0.8835 0.23877 0.51477 0.0
C270 C 0.88836 0.24343 0.47126 0.0
C271 C 0.9125 0.24975 0.4585 0.0
C272 C 0.93133 0.25132 0.49059 0.0
C273 C 0.92599 0.24608 0.53502 0.0
C274 C 0.9015 0.24025 0.54589 0.0
H275 H 0.87387 0.24255 0.44656 0.0
O276 O 0.85442 0.1717 0.48042 0.0
O277 O 0.85426 0.199 0.53242 0.0
O278 O 0.81499 0.20545 0.46799 0.0
O279 O 0.83407 0.23899 0.48683 0.0
C280 C 0.94401 0.24628 0.5689 0.0
C281 C 0.9373 0.24049 0.61284 0.0
H282 H 0.91756 0.22771 0.69311 0.0
H283 H 0.87335 0.21732 0.70558 0.0
H284 H 0.91656 0.25359 0.42408 0.0
H285 H 0.94988 0.25643 0.4807 0.0
H286 H 0.96313 0.25058 0.56143 0.0
H287 H 0.95137 0.24039 0.63849 0.0
H288 H 0.32949 0.4166 0.9629 0.0
H289 H 0.32597 0.45954 0.96337 0.0
H290 H 0.28115 0.45611 0.08182 0.0
H291 H 0.28395 0.41321 0.0808 0.0
H292 H 0.26422 0.48962 0.0261 0.0
H293 H 0.36581 0.49946 0.04806 0.0
H294 H 0.35768 0.4837 0.99856 0.0
H295 H 0.35045 0.47139 0.05205 0.0
C296 C 0.31859 0.42497 0.98868 0.0
C297 C 0.30718 0.41149 0.02202 0.0
C298 C 0.31677 0.44954 0.98914 0.0
C299 C 0.30386 0.46112 0.02334 0.0
C300 C 0.29139 0.44762 0.05531 0.0
H301 H 0.33161 0.60709 0.09517 0.0
H302 H 0.32641 0.56433 0.09596 0.0
C303 C 0.29299 0.42306 0.05464 0.0
C304 C 0.3041 0.48724 0.02689 0.0
H305 H 0.34293 0.53446 0.03554 0.0
C306 C 0.28143 0.49944 0.02826 0.0
C307 C 0.32653 0.50004 0.03073 0.0
C308 C 0.35149 0.48799 0.03275 0.0
C309 C 0.28058 0.52408 0.03253 0.0
C310 C 0.30305 0.53694 0.03446 0.0
C311 C 0.32569 0.52468 0.03378 0.0
C312 C 0.30373 0.56311 0.03668 0.0
C313 C 0.25561 0.53597 0.03587 0.0
C314 C 0.29242 0.57677 1.00354 0.0
C315 C 0.29511 0.60125 1.00337 0.0
C316 C 0.30953 0.61256 0.03591 0.0
C317 C 0.32034 0.59894 0.06969 0.0
C318 C 0.31745 0.57447 0.07008 0.0
H319 H 0.24115 0.52368 0.04817 0.0
H320 H 0.25631 0.55144 0.05835 0.0
H321 H 0.24987 0.54206 1.00242 0.0
H322 H 0.28228 0.56847 0.97677 0.0
H323 H 0.28674 0.61119 0.9766 0.0
H324 H 0.39599 0.3426 0.97866 0.0
H325 H 0.44114 0.34508 0.97519 0.0
H326 H 0.44374 0.35329 0.11765 0.0
H327 H 0.39862 0.34802 0.12122 0.0
H328 H 0.4715 0.37736 0.99258 0.0
H329 H 0.47916 0.3284 0.13616 0.0
H330 H 0.49443 0.30475 0.10782 0.0
H331 H 0.46283 0.31192 0.0945 0.0
C332 C 0.40637 0.3438 1.00934 0.0
C333 C 0.39411 0.34347 0.05038 0.0
C334 C 0.43215 0.34578 1.00734 0.0
C335 C 0.44616 0.34861 0.04631 0.0
C336 C 0.43363 0.35 0.08725 0.0
H337 H 0.60676 0.35493 0.08316 0.0
H338 H 0.56191 0.35826 0.09327 0.0
C339 C 0.40784 0.34718 0.08931 0.0
C340 C 0.47368 0.3507 0.04335 0.0
H341 H 0.52796 0.32863 0.08372 0.0
C342 C 0.48383 0.36639 0.01212 0.0
C343 C 0.48999 0.33694 0.0696 0.0
C344 C 0.48101 0.31944 0.10359 0.0
C345 C 0.50958 0.3683 1.00572 0.0
C346 C 0.52573 0.35384 0.03075 0.0
C347 C 0.51566 0.33906 0.06336 0.0
C348 C 0.55308 0.3534 0.02368 0.0
C349 C 0.51909 0.38626 0.97305 0.0
C350 C 0.56324 0.34954 0.98121 0.0
C351 C 0.58898 0.34811 0.97535 0.0
C352 C 0.60483 0.34945 0.01212 0.0
C353 C 0.59477 0.35335 0.05444 0.0
C354 C 0.56917 0.35534 0.06018 0.0
H355 H 0.50579 0.40106 0.96912 0.0
H356 H 0.53729 0.39353 0.98352 0.0
H357 H 0.52133 0.37783 0.94006 0.0
H358 H 0.55129 0.34719 0.95269 0.0
H359 H 0.59646 0.34524 0.9424 0.0
H360 H 0.7143 0.41995 0.97496 0.0
H361 H 0.7175 0.46277 0.97496 0.0
H362 H 0.67289 0.46602 0.09373 0.0
H363 H 0.669 0.42311 0.09319 0.0
H364 H 0.65603 0.49578 0.03247 0.0
H365 H 0.75753 0.50801 0.04787 0.0
H366 H 0.74942 0.48942 1.00201 0.0
H367 H 0.7427 0.48007 0.05782 0.0
C368 C 0.70554 0.42972 1.00159 0.0
C369 C 0.69143 0.41808 0.03415 0.0
C370 C 0.70749 0.45426 1.00165 0.0
C371 C 0.69572 0.4677 0.03466 0.0
C372 C 0.68221 0.45605 0.06797 0.0
H373 H 0.71402 0.61746 0.08046 0.0
H374 H 0.71627 0.57457 0.08156 0.0
C375 C 0.68008 0.4315 0.06774 0.0
C376 C 0.69594 0.49388 0.03257 0.0
H377 H 0.7341 0.54173 0.02569 0.0
C378 C 0.67312 0.50582 0.03126 0.0
C379 C 0.71822 0.50706 0.03135 0.0
C380 C 0.74334 0.49551 0.03529 0.0
C381 C 0.67192 0.53046 0.02832 0.0
C382 C 0.69419 0.54358 0.02533 0.0
C383 C 0.71703 0.53168 0.02724 0.0
C384 C 0.69414 0.56973 0.02233 0.0
C385 C 0.64678 0.54218 0.02953 0.0
C386 C 0.68158 0.58142 0.98788 0.0
C387 C 0.6801 0.60603 0.98733 0.0
C388 C 0.69144 0.61943 0.02091 0.0
C389 C 0.70502 0.6077 0.05411 0.0
C390 C 0.70633 0.58314 0.05481 0.0
H391 H 0.63243 0.53046 0.04405 0.0
H392 H 0.64734 0.55871 0.04915 0.0
H393 H 0.64098 0.54654 0.99517 0.0
H394 H 0.67259 0.5715 0.96176 0.0
H395 H 0.66964 0.61452 0.96114 0.0
H396 H 0.40327 0.6811 0.93506 0.0
H397 H 0.44883 0.67937 0.93841 0.0
H398 H 0.44515 0.67361 0.08115 0.0
H399 H 0.39986 0.67454 0.07751 0.0
H400 H 0.47753 0.71082 0.9771 0.0
H401 H 0.49689 0.625 0.0553 0.0
H402 H 0.46679 0.63243 0.03302 0.0
H403 H 0.47558 0.64208 0.08777 0.0
C404 C 0.41233 0.67916 0.96695 0.0
C405 C 0.39833 0.67871 1.00614 0.0
C406 C 0.43826 0.67811 0.9689 0.0
C407 C 0.45047 0.67606 1.01001 0.0
C408 C 0.43627 0.6746 0.04897 0.0
H409 H 0.60123 0.69261 0.10781 0.0
H410 H 0.55599 0.68901 0.09963 0.0
C411 C 0.41042 0.67561 0.04696 0.0
C412 C 0.4779 0.67812 0.01275 0.0
H413 H 0.53004 0.65326 0.05723 0.0
C414 C 0.48895 0.69821 0.99456 0.0
C415 C 0.49293 0.66154 0.03528 0.0
C416 C 0.48246 0.63894 0.05354 0.0
C417 C 0.51428 0.70281 0.99999 0.0
C418 C 0.52937 0.68641 0.02268 0.0
C419 C 0.51847 0.66597 0.04011 0.0
C420 C 0.55655 0.68996 0.0278 0.0
C421 C 0.52439 0.7258 0.98333 0.0
C422 C 0.57187 0.69174 0.99023 0.0
C423 C 0.59756 0.69396 0.99493 0.0
C424 C 0.60844 0.69457 0.03724 0.0
C425 C 0.59318 0.6927 0.07486 0.0
C426 C 0.56742 0.69052 0.07019 0.0
H427 H 0.50945 0.73876 0.9763 0.0
H428 H 0.5371 0.73343 1.00837 0.0
H429 H 0.53484 0.72273 0.95214 0.0
H430 H 0.56405 0.69067 0.95719 0.0
H431 H 0.60901 0.69431 0.96538 0.0
H432 H 0.78727 0.91766 0.58084 0.0
H433 H 0.78299 0.96041 0.58062 0.0
H434 H 0.82659 0.9642 0.46073 0.0
H435 H 0.83161 0.92141 0.46155 0.0
H436 H 0.84344 0.99411 0.52078 0.0
H437 H 0.74164 1.00527 0.50961 0.0
H438 H 0.75051 0.9869 0.55531 0.0
H439 H 0.7567 0.97743 0.49933 0.0
C440 C 0.79556 0.92753 0.55392 0.0
C441 C 0.80977 0.91611 0.52117 0.0
C442 C 0.79297 0.95203 0.55372 0.0
C443 C 0.80418 0.96561 0.52036 0.0
C444 C 0.8177 0.95414 0.48678 0.0
H445 H 0.7842 0.11548 0.47588 0.0
H446 H 0.78149 0.07258 0.4751 0.0
C447 C 0.82049 0.92965 0.48719 0.0
C448 C 0.80357 0.99178 0.52247 0.0
H449 H 0.76486 0.03925 0.53118 0.0
C450 C 0.82623 1.00396 0.52276 0.0
C451 C 0.78113 1.00474 0.52467 0.0
C452 C 0.75612 0.99293 0.52175 0.0
C453 C 0.82713 0.0286 0.52566 0.0
C454 C 0.80474 0.0415 0.52978 0.0
C455 C 0.78204 0.02937 0.52881 0.0
C456 C 0.80454 0.06763 0.53315 0.0
C457 C 0.85209 0.04056 0.5232 0.0
C458 C 0.81764 0.07925 0.56703 0.0
C459 C 0.81941 0.10382 0.56735 0.0
C460 C 0.80777 0.11727 0.53419 0.0
C461 C 0.79343 0.10566 0.50189 0.0
C462 C 0.79187 0.0811 0.50136 0.0
H463 H 0.86633 0.02901 0.50772 0.0
H464 H 0.851 0.05714 0.50384 0.0
H465 H 0.85845 0.04487 0.55727 0.0
H466 H 0.82699 0.06928 0.59267 0.0
H467 H 0.83044 0.11222 0.59287 0.0
H468 H 0.10909 0.83522 0.5917 0.0
H469 H 0.06401 0.83801 0.59937 0.0
H470 H 0.05648 0.83919 0.45683 0.0
H471 H 0.10181 0.83633 0.44917 0.0
H472 H 0.02996 0.87493 0.49932 0.0
H473 H 0.01021 0.78902 0.57933 0.0
H474 H 0.03516 0.80541 0.60397 0.0
H475 H 0.03799 0.79471 0.54784 0.0
C476 C 0.09774 0.83525 0.56203 0.0
C477 C 0.10879 0.83472 0.51983 0.0
C478 C 0.07199 0.837 0.56642 0.0
C479 C 0.05679 0.83843 0.52867 0.0
C480 C 0.06783 0.83793 0.48641 0.0
H481 H 0.89983 0.85347 0.47835 0.0
H482 H 0.94514 0.85412 0.47452 0.0
C483 C 0.09364 0.83619 0.48203 0.0
C484 C 0.02954 0.84166 0.53344 0.0
H485 H 0.97779 0.81653 0.57782 0.0
C486 C 0.01847 0.86206 0.51611 0.0
C487 C 0.01457 0.82503 0.55571 0.0
C488 C 0.02497 0.80218 0.57258 0.0
C489 C 0.99286 0.86625 0.52073 0.0
C490 C 0.97794 0.84944 0.54281 0.0
C491 C 0.98914 0.82934 0.56076 0.0
C492 C 0.95051 0.8514 0.5456 0.0
C493 C 0.98221 0.88886 0.50276 0.0
C494 C 0.93834 0.84928 0.58674 0.0
C495 C 0.9124 0.8484 0.58879 0.0
C496 C 0.89836 0.84909 0.54967 0.0
C497 C 0.91042 0.85221 0.50882 0.0
C498 C 0.93628 0.85305 0.50671 0.0
H499 H 0.99652 0.90289 0.50114 0.0
H500 H 0.97533 0.88581 0.46853 0.0
H501 H 0.9665 0.89522 0.52342 0.0
H502 H 0.94894 0.8479 0.61717 0.0
H503 H 0.90337 0.84647 0.62071 0.0
H504 H 0.21405 0.11088 0.58066 0.0
H505 H 0.21702 0.06805 0.58108 0.0
H506 H 0.17288 0.0648 0.46182 0.0
H507 H 0.16922 0.10773 0.46193 0.0
H508 H 0.15557 0.03537 0.52326 0.0
H509 H 0.25705 0.02231 0.50899 0.0
H510 H 0.24888 0.04109 0.55458 0.0
H511 H 0.24243 0.05034 0.49861 0.0
C512 C 0.20535 0.10111 0.55401 0.0
C513 C 0.19143 0.11275 0.52118 0.0
C514 C 0.20717 0.07656 0.5542 0.0
C515 C 0.19545 0.06312 0.52119 0.0
C516 C 0.18215 0.07477 0.4876 0.0
H517 H 0.21325 0.91332 0.47631 0.0
H518 H 0.21553 0.95619 0.47507 0.0
C519 C 0.18016 0.09933 0.48758 0.0
C520 C 0.1955 0.03696 0.52353 0.0
H521 H 0.23333 0.98883 0.5311 0.0
C522 C 0.17259 0.0252 0.52471 0.0
C523 C 0.21768 0.02361 0.52507 0.0
C524 C 0.24289 0.03496 0.52129 0.0
C525 C 0.17123 1.00058 0.5278 0.0
C526 C 0.1934 0.98729 0.53105 0.0
C527 C 0.21632 0.99901 0.52932 0.0
C528 C 0.19319 0.96115 0.53405 0.0
C529 C 0.14602 0.98905 0.52641 0.0
C530 C 0.18047 0.94953 0.56838 0.0
C531 C 0.17895 0.92492 0.569 0.0
C532 C 0.19045 0.91147 0.53563 0.0
C533 C 0.20414 0.92312 0.50251 0.0
C534 C 0.20547 0.94768 0.50173 0.0
H535 H 0.13178 1.00086 0.51175 0.0
H536 H 0.14654 0.9725 0.50683 0.0
H537 H 0.1401 0.98475 0.56073 0.0
H538 H 0.17139 0.9595 0.59438 0.0
H539 H 0.16842 0.91649 0.59512 0.0
H540 H 0.89623 0.18673 0.57611 0.0
H541 H 0.9414 0.18454 0.57916 0.0
H542 H 0.94371 0.17598 0.43675 0.0
H543 H 0.89851 0.18093 0.43357 0.0
H544 H 0.97199 0.15238 0.56169 0.0
H545 H 0.99391 0.22495 0.44578 0.0
H546 H 0.96241 0.21747 0.45912 0.0
H547 H 0.97902 0.20102 0.41772 0.0
C548 C 0.90653 0.18549 0.54534 0.0
C549 C 0.89416 0.18564 0.50442 0.0
C550 C 0.93233 0.18369 0.5471 0.0
C551 C 0.94626 0.18085 0.50803 0.0
C552 C 0.93364 0.17927 0.46722 0.0
H553 H 0.107 0.17583 0.47126 0.0
H554 H 0.06219 0.17221 0.46098 0.0
C555 C 0.90782 0.18191 0.46539 0.0
C556 C 0.97381 0.17898 0.51078 0.0
H557 H 0.02778 0.2016 0.4703 0.0
C558 C 0.98416 0.16344 0.54207 0.0
C559 C 0.98993 0.19284 0.48439 0.0
C560 C 0.98071 0.21013 0.45017 0.0
C561 C 0.00993 0.16181 0.54846 0.0
C562 C 0.02589 0.17642 0.52338 0.0
C563 C 0.01562 0.19104 0.49068 0.0
C564 C 0.05321 0.17717 0.5305 0.0
C565 C 0.0197 0.14399 0.58121 0.0
C566 C 0.06325 0.18121 0.57297 0.0
C567 C 0.08897 0.18282 0.57893 0.0
C568 C 0.10489 0.18147 0.54224 0.0
C569 C 0.09494 0.17742 0.49991 0.0
C570 C 0.06936 0.17527 0.49408 0.0
H571 H 0.0066 0.12905 0.5852 0.0
H572 H 0.03799 0.1369 0.57076 0.0
H573 H 0.0218 0.15249 0.61416 0.0
H574 H 0.05124 0.18353 0.60143 0.0
H575 H 0.09637 0.18579 0.61189 0.0
H576 H 0.23103 0.1824 0.43032 0.0
H577 H 0.25855 0.194 0.36895 0.0
H578 H 0.23673 0.26639 0.38672 0.0
H579 H 0.20968 0.25512 0.44767 0.0
H580 H 0.24197 0.21583 0.29101 0.0
H581 H 0.31168 0.27182 0.3743 0.0
H582 H 0.29228 0.25139 0.40433 0.0
H583 H 0.28058 0.27994 0.38906 0.0
C584 C 0.23264 0.20084 0.42183 0.0
C585 C 0.21815 0.21782 0.44385 0.0
C586 C 0.24825 0.20743 0.38665 0.0
C587 C 0.24991 0.23111 0.37358 0.0
C588 C 0.23617 0.2481 0.39672 0.0
H589 H 0.29243 0.32089 0.161 0.0
H590 H 0.27723 0.30157 0.22814 0.0
C591 C 0.22054 0.24157 0.43144 0.0
C592 C 0.26393 0.23815 0.33328 0.0
H593 H 0.30605 0.27837 0.2958 0.0
C594 C 0.25637 0.22914 0.29204 0.0
C595 C 0.28263 0.25559 0.3347 0.0
C596 C 0.29245 0.26508 0.37805 0.0
C597 C 0.266 0.23806 0.25208 0.0
C598 C 0.28388 0.25624 0.25351 0.0
C599 C 0.29218 0.26457 0.29478 0.0
C600 C 0.2933 0.26768 0.21258 0.0
C601 C 0.25608 0.2288 0.20861 0.0
C602 C 0.30752 0.25505 0.18168 0.0
C603 C 0.31627 0.26603 0.14316 0.0
C604 C 0.31098 0.2899 0.13481 0.0
C605 C 0.2968 0.30249 0.1661 0.0
C606 C 0.28814 0.2915 0.20462 0.0
H607 H 0.2391 0.21801 0.21323 0.0
H608 H 0.25174 0.24352 0.18567 0.0
H609 H 0.27042 0.21763 0.19259 0.0
H610 H 0.31202 0.23674 0.1875 0.0
H611 H 0.32726 0.25578 0.12006 0.0
H612 H 0.72937 0.34818 0.12775 0.0
H613 H 0.75464 0.33619 0.19194 0.0
H614 H 0.73532 0.26372 0.16809 0.0
H615 H 0.71023 0.2754 0.10461 0.0
H616 H 0.72291 0.28297 0.25547 0.0
H617 H 0.82147 0.29746 0.20666 0.0
H618 H 0.79913 0.32026 0.19514 0.0
H619 H 0.79732 0.29285 0.16594 0.0
C620 C 0.73112 0.32965 0.13549 0.0
C621 C 0.71764 0.31276 0.11133 0.0
C622 C 0.74552 0.32283 0.17217 0.0
C623 C 0.74677 0.29906 0.18475 0.0
C624 C 0.73454 0.28214 0.159 0.0
H625 H 0.79117 0.20752 0.39596 0.0
H626 H 0.77413 0.22674 0.33029 0.0
C627 C 0.72019 0.28889 0.12271 0.0
C628 C 0.75839 0.29169 0.22712 0.0
H629 H 0.81408 0.28173 0.27786 0.0
C630 C 0.74284 0.28284 0.26052 0.0
C631 C 0.78434 0.29178 0.23369 0.0
C632 C 0.8017 0.30098 0.19854 0.0
C633 C 0.75255 0.27357 0.29998 0.0
C634 C 0.77858 0.27262 0.30583 0.0
C635 C 0.79414 0.28228 0.27313 0.0
C636 C 0.78984 0.26089 0.34498 0.0
C637 C 0.73479 0.26486 0.33505 0.0
C638 C 0.80498 0.2735 0.3744 0.0
C639 C 0.81492 0.26252 0.412 0.0
C640 C 0.80999 0.23863 0.42081 0.0
C641 C 0.7952 0.22596 0.39064 0.0
C642 C 0.78534 0.23696 0.35308 0.0
H643 H 0.71617 0.27305 0.33151 0.0
H644 H 0.73253 0.24555 0.33154 0.0
H645 H 0.7419 0.26858 0.36893 0.0
H646 H 0.80881 0.29195 0.36863 0.0
H647 H 0.82636 0.27282 0.43426 0.0
H648 H 0.80039 0.7752 0.43673 0.0
H649 H 0.77342 0.76437 0.37532 0.0
H650 H 0.74405 0.8349 0.37146 0.0
H651 H 0.77141 0.84613 0.4333 0.0
H652 H 0.72085 0.76685 0.36509 0.0
H653 H 0.7716 0.82329 0.2443 0.0
H654 H 0.78428 0.81601 0.29803 0.0
H655 H 0.75978 0.83727 0.29357 0.0
C656 C 0.78811 0.78847 0.42319 0.0
C657 C 0.78826 0.81164 0.43975 0.0
C658 C 0.77262 0.78218 0.38809 0.0
C659 C 0.757 0.79889 0.36841 0.0
C660 C 0.75625 0.82182 0.38584 0.0
H661 H 0.67684 0.77591 0.11794 0.0
H662 H 0.69192 0.7939 0.18662 0.0
C663 C 0.77174 0.82816 0.42136 0.0
C664 C 0.74247 0.79209 0.32857 0.0
H665 H 0.74048 0.79869 0.21589 0.0
C666 C 0.72489 0.77401 0.33252 0.0
C667 C 0.7478 0.80146 0.28612 0.0
C668 C 0.76698 0.82048 0.27985 0.0
C669 C 0.71294 0.76464 0.29505 0.0
C670 C 0.71909 0.77327 0.25239 0.0
C671 C 0.73588 0.79203 0.2486 0.0
C672 C 0.70938 0.76222 0.2112 0.0
C673 C 0.69396 0.74546 0.30148 0.0
C674 C 0.71448 0.7385 0.20189 0.0
C675 C 0.70594 0.72814 0.16266 0.0
C676 C 0.69223 0.74133 0.13164 0.0
C677 C 0.68732 0.76518 0.14097 0.0
C678 C 0.6959 0.77552 0.18026 0.0
H679 H 0.68591 0.74594 0.33544 0.0
H680 H 0.67866 0.74697 0.27694 0.0
H681 H 0.70305 0.7281 0.29695 0.0
H682 H 0.72535 0.72804 0.22477 0.0
H683 H 0.71022 0.7098 0.15661 0.0
H684 H 0.17918 0.75446 0.44037 0.0
H685 H 0.19692 0.7362 0.37388 0.0
H686 H 0.22932 0.80255 0.33641 0.0
H687 H 0.21199 0.82095 0.40275 0.0
H688 H 0.19134 0.7479 0.28167 0.0
H689 H 0.28865 0.75673 0.33912 0.0
H690 H 0.26245 0.75992 0.37603 0.0
H691 H 0.2715 0.78382 0.34048 0.0
C692 C 0.1901 0.76521 0.41804 0.0
C693 C 0.19435 0.78918 0.4273 0.0
C694 C 0.20014 0.75473 0.37997 0.0
C695 C 0.21472 0.76793 0.3506 0.0
C696 C 0.21848 0.79194 0.35908 0.0
H697 H 0.29943 0.75453 0.11463 0.0
H698 H 0.2743 0.76619 0.17808 0.0
C699 C 0.20846 0.80245 0.39703 0.0
C700 C 0.22646 0.75669 0.31139 0.0
H701 H 0.2828 0.74688 0.26305 0.0
C702 C 0.21134 0.74741 0.27768 0.0
C703 C 0.25255 0.75589 0.30655 0.0
C704 C 0.26978 0.7644 0.34263 0.0
C705 C 0.22166 0.7384 0.23821 0.0
C706 C 0.24772 0.73849 0.23275 0.0
C707 C 0.2628 0.74699 0.26718 0.0
C708 C 0.25997 0.73133 0.19072 0.0
C709 C 0.20468 0.72974 0.20196 0.0
C710 C 0.25974 0.70788 0.17592 0.0
C711 C 0.27413 0.70108 0.13919 0.0
C712 C 0.28912 0.71763 0.11718 0.0
C713 C 0.2883 0.74126 0.13103 0.0
C714 C 0.27392 0.748 0.16733 0.0
H715 H 0.18499 0.73448 0.20834 0.0
H716 H 0.21033 0.73714 0.16938 0.0
H717 H 0.20604 0.71031 0.19969 0.0
H718 H 0.24934 0.69466 0.19388 0.0
H719 H 0.2745 0.68273 0.12953 0.0
H720 H 0.22988 0.77318 0.5979 0.0
H721 H 0.25562 0.76272 0.6617 0.0
H722 H 0.25473 0.83492 0.70542 0.0
H723 H 0.22907 0.84563 0.64095 0.0
H724 H 0.3041 0.78518 0.70179 0.0
H725 H 0.21685 0.78967 0.80115 0.0
H726 H 0.21635 0.78574 0.74166 0.0
H727 H 0.2245 0.81374 0.76472 0.0
C728 C 0.23581 0.78697 0.62033 0.0
C729 C 0.22747 0.81021 0.61454 0.0
C730 C 0.25049 0.78097 0.65674 0.0
C731 C 0.25686 0.79801 0.68833 0.0
C732 C 0.24997 0.82155 0.68125 0.0
H733 H 0.33858 0.76591 0.93336 0.0
H734 H 0.32306 0.78596 0.86711 0.0
C735 C 0.23549 0.82766 0.64433 0.0
C736 C 0.26804 0.79037 0.73082 0.0
H737 H 0.25236 0.77495 0.83675 0.0
C738 C 0.29298 0.78329 0.73158 0.0
C739 C 0.25327 0.78759 0.76925 0.0
C740 C 0.22621 0.79445 0.76955 0.0
C741 C 0.30347 0.77317 0.76983 0.0
C742 C 0.28855 0.77004 0.80803 0.0
C743 C 0.26373 0.77746 0.80741 0.0
C744 C 0.29801 0.75801 0.84826 0.0
C745 C 0.33012 0.76507 0.76873 0.0
C746 C 0.28879 0.73579 0.85991 0.0
C747 C 0.29763 0.72421 0.8977 0.0
C748 C 0.31571 0.73476 0.9249 0.0
C749 C 0.32466 0.75722 0.9133 0.0
C750 C 0.31592 0.7687 0.87531 0.0
H751 H 0.33805 0.76563 0.7347 0.0
H752 H 0.34144 0.77662 0.79045 0.0
H753 H 0.33167 0.74685 0.78168 0.0
H754 H 0.27488 0.7273 0.83949 0.0
H755 H 0.29025 0.707 0.90558 0.0
H756 H 0.2923 0.26931 0.94496 0.0
H757 H 0.26721 0.25828 0.88107 0.0
H758 H 0.24387 0.3303 0.86517 0.0
H759 H 0.26917 0.3417 0.92975 0.0
H760 H 0.2051 0.2906 0.85252 0.0
H761 H 0.29179 0.2814 0.75424 0.0
H762 H 0.2922 0.26706 0.8074 0.0
H763 H 0.29013 0.29857 0.80467 0.0
C764 C 0.28159 0.28285 0.9284 0.0
C765 C 0.28299 0.30647 0.94217 0.0
C766 C 0.26725 0.27647 0.89186 0.0
C767 C 0.25405 0.29352 0.86807 0.0
C768 C 0.25406 0.31691 0.88312 0.0
H769 H 0.1695 0.26775 0.62244 0.0
H770 H 0.18653 0.28698 0.68844 0.0
C771 C 0.26844 0.32337 0.92004 0.0
C772 C 0.24191 0.28679 0.82583 0.0
H773 H 0.25527 0.26475 0.72312 0.0
C774 C 0.21596 0.28529 0.82389 0.0
C775 C 0.25621 0.2799 0.78865 0.0
C776 C 0.28413 0.28196 0.78848 0.0
C777 C 0.20397 0.27594 0.78629 0.0
C778 C 0.21838 0.26821 0.74976 0.0
C779 C 0.24428 0.27054 0.75125 0.0
C780 C 0.20723 0.25654 0.71047 0.0
C781 C 0.17611 0.27343 0.78664 0.0
C782 C 0.21351 0.23316 0.70058 0.0
C783 C 0.20395 0.22213 0.66282 0.0
C784 C 0.18799 0.23431 0.63385 0.0
C785 C 0.18171 0.25779 0.64393 0.0
C786 C 0.19128 0.2688 0.68184 0.0
H787 H 0.1682 0.27605 0.82035 0.0
H788 H 0.16785 0.28678 0.7642 0.0
H789 H 0.17057 0.25579 0.77432 0.0
H790 H 0.22589 0.22342 0.72215 0.0
H791 H 0.20924 0.20408 0.65624 0.0
H792 H 0.70781 0.32746 0.89646 0.0
H793 H 0.72458 0.3081 0.83059 0.0
H794 H 0.68851 0.24345 0.86802 0.0
H795 H 0.67131 0.26269 0.93385 0.0
H796 H 0.75583 0.26871 0.82929 0.0
H797 H 0.66828 0.25126 0.73717 0.0
H798 H 0.66992 0.27189 0.7827 0.0
H799 H 0.66931 0.24084 0.79346 0.0
C800 C 0.70326 0.30916 0.89069 0.0
C801 C 0.68816 0.29668 0.92064 0.0
C802 C 0.71288 0.29812 0.85295 0.0
C803 C 0.70755 0.27442 0.8441 0.0
C804 C 0.69248 0.26187 0.87374 0.0
H805 H 0.77055 0.18739 0.62857 0.0
H806 H 0.74545 0.19948 0.69304 0.0
C807 C 0.68282 0.2729 0.91157 0.0
C808 C 0.71883 0.26274 0.80487 0.0
H809 H 0.70548 0.23737 0.70466 0.0
C810 C 0.74479 0.26176 0.80217 0.0
C811 C 0.70439 0.25348 0.76968 0.0
C812 C 0.67643 0.25451 0.77049 0.0
C813 C 0.75674 0.25222 0.76493 0.0
C814 C 0.74237 0.24372 0.72908 0.0
C815 C 0.7164 0.24392 0.73225 0.0
C816 C 0.75429 0.23644 0.68693 0.0
C817 C 0.78474 0.25158 0.76392 0.0
C818 C 0.76662 0.25333 0.66134 0.0
C819 C 0.78086 0.24655 0.62488 0.0
C820 C 0.78298 0.2227 0.61298 0.0
C821 C 0.76923 0.20589 0.63684 0.0
C822 C 0.75498 0.21275 0.67371 0.0
H823 H 0.79281 0.25316 0.79773 0.0
H824 H 0.79153 0.23502 0.74852 0.0
H825 H 0.79165 0.26652 0.74372 0.0
H826 H 0.76601 0.27174 0.67064 0.0
H827 H 0.79094 0.25999 0.60691 0.0
H828 H 0.73429 0.68582 0.92499 0.0
H829 H 0.76188 0.6961 0.8629 0.0
H830 H 0.7508 0.76976 0.89103 0.0
H831 H 0.72378 0.75971 0.95279 0.0
H832 H 0.74623 0.72136 0.78997 0.0
H833 H 0.82468 0.76781 0.86864 0.0
H834 H 0.80388 0.74912 0.89969 0.0
H835 H 0.7955 0.77914 0.88772 0.0
C836 C 0.73845 0.70415 0.91877 0.0
C837 C 0.72686 0.72195 0.94378 0.0
C838 C 0.75406 0.71002 0.88313 0.0
C839 C 0.75863 0.73371 0.87255 0.0
C840 C 0.74804 0.75137 0.89901 0.0
H841 H 0.79984 0.82509 0.66251 0.0
H842 H 0.78555 0.80498 0.72947 0.0
C843 C 0.73242 0.74557 0.93422 0.0
C844 C 0.77194 0.7404 0.83123 0.0
H845 H 0.81641 0.77775 0.79184 0.0
C846 C 0.76195 0.73325 0.79031 0.0
C847 C 0.79239 0.756 0.83168 0.0
C848 C 0.80488 0.76326 0.87434 0.0
C849 C 0.77092 0.74237 0.75002 0.0
C850 C 0.7905 0.7589 0.75072 0.0
C851 C 0.80122 0.76525 0.79144 0.0
C852 C 0.79923 0.77076 0.70975 0.0
C853 C 0.75859 0.73522 0.70714 0.0
C854 C 0.81175 0.75818 0.67651 0.0
C855 C 0.82 0.76962 0.63812 0.0
C856 C 0.81587 0.7939 0.63218 0.0
C857 C 0.80327 0.80639 0.6657 0.0
C858 C 0.79515 0.79495 0.70413 0.0
H859 H 0.74124 0.72512 0.71286 0.0
H860 H 0.75415 0.75097 0.68685 0.0
H861 H 0.77151 0.72404 0.68765 0.0
H862 H 0.81532 0.73954 0.68045 0.0
H863 H 0.82973 0.75941 0.61321 0.0
loop_
_geom_bond_atom_site_label_1
_geom_bond_atom_site_label_2
_geom_bond_distance
_geom_bond_site_symmetry_2
_ccdc_geom_bond_type
Mn0 O5 2.095 1_554 S
Mn0 O15 2.162 . S
Mn0 O16 2.297 1_554 S
Mn0 O24 2.385 . S
Mn0 O25 2.209 . S
Mn0 O26 2.094 . S
Mn1 O6 2.121 1_554 S
Mn1 N8 2.257 1_554 S
Mn1 N17 2.282 . S
Mn1 O25 2.215 . S
Mn1 O27 2.117 . S
C2 O24 1.234 . S
C2 O25 1.283 . S
C3 O15 1.281 . S
C3 O16 1.236 1_554 S
C4 O26 1.240 . S
C4 O27 1.264 . S
O5 Mn0 2.095 1_556 S
O5 C14 1.250 . S
O6 Mn1 2.121 1_556 S
O6 C14 1.258 . S
C7 N8 1.326 . S
C7 C11 1.460 . S
C7 H13 0.929 . S
N8 Mn1 2.257 1_556 S
N8 C7 1.326 . S
N8 C12 1.362 . S
C9 C10 1.258 . S
C9 C12 1.431 . S
C9 C29 1.449 . S
C10 C9 1.258 . S
C10 C11 1.477 . S
C10 H30 0.931 . S
C11 C7 1.460 . S
C11 C10 1.477 . S
C11 H31 0.930 . S
C12 N8 1.362 . S
C12 C9 1.431 . S
C12 C22 1.476 1_556 S
H13 C7 0.929 . S
C14 O5 1.250 . S
C14 O6 1.258 . S
O15 Mn0 2.162 . S
O15 C3 1.281 . S
O16 Mn0 2.297 1_556 S
O16 C3 1.236 1_556 S
N17 Mn1 2.282 . S
N17 C18 1.328 . S
N17 C22 1.318 . S
C18 N17 1.328 . S
C18 C19 1.457 . S
C18 H23 0.929 . S
C19 C18 1.457 . S
C19 C20 1.291 . S
C19 H32 0.931 . S
C20 C19 1.291 . S
C20 C21 1.373 . S
C20 H33 0.929 . S
C21 C20 1.373 . S
C21 C22 1.396 . S
C21 C28 1.403 . S
C22 C12 1.476 1_554 S
C22 N17 1.318 . S
C22 C21 1.396 . S
H23 C18 0.929 . S
O24 Mn0 2.385 . S
O24 C2 1.234 . S
O25 Mn0 2.209 . S
O25 Mn1 2.215 . S
O25 C2 1.283 . S
O26 Mn0 2.094 . S
O26 C4 1.240 . S
O27 Mn1 2.117 . S
O27 C4 1.264 . S
C28 C21 1.403 . S
C28 C29 1.399 1_554 S
C28 H34 0.929 . S
C29 C9 1.449 . S
C29 C28 1.399 1_556 S
C29 H35 0.930 . S
H30 C10 0.931 . S
H31 C11 0.930 . S
H32 C19 0.931 . S
H33 C20 0.929 . S
H34 C28 0.929 . S
H35 C29 0.930 . S
Mn36 O41 2.094 . S
Mn36 O51 2.162 1_554 S
Mn36 O52 2.295 . S
Mn36 O60 2.386 1_554 S
Mn36 O61 2.208 . S
Mn36 O62 2.096 1_554 S
Mn37 O42 2.121 . S
Mn37 N44 2.257 . S
Mn37 N53 2.282 1_554 S
Mn37 O61 2.215 . S
Mn37 O63 2.117 1_554 S
C38 O60 1.234 . S
C38 O61 1.283 1_556 S
C39 O51 1.281 1_554 S
C39 O52 1.236 . S
C40 O62 1.240 . S
C40 O63 1.264 . S
O41 Mn36 2.094 . S
O41 C50 1.250 . S
O42 Mn37 2.121 . S
O42 C50 1.258 . S
C43 N44 1.326 . S
C43 C47 1.460 . S
C43 H49 0.929 . S
N44 Mn37 2.257 . S
N44 C43 1.326 . S
N44 C48 1.362 . S
C45 C46 1.258 . S
C45 C48 1.431 . S
C45 C65 1.449 . S
C46 C45 1.258 . S
C46 C47 1.477 . S
C46 H66 0.931 . S
C47 C43 1.460 . S
C47 C46 1.477 . S
C47 H67 0.930 . S
C48 N44 1.362 . S
C48 C45 1.431 . S
C48 C58 1.476 1_554 S
H49 C43 0.929 . S
C50 O41 1.250 . S
C50 O42 1.258 . S
O51 Mn36 2.162 1_556 S
O51 C39 1.281 1_556 S
O52 Mn36 2.295 . S
O52 C39 1.236 . S
N53 Mn37 2.282 1_556 S
N53 C54 1.328 . S
N53 C58 1.318 . S
C54 N53 1.328 . S
C54 C55 1.457 . S
C54 H59 0.929 . S
C55 C54 1.457 . S
C55 C56 1.291 . S
C55 H68 0.931 . S
C56 C55 1.291 . S
C56 C57 1.373 . S
C56 H69 0.929 . S
C57 C56 1.373 . S
C57 C58 1.396 . S
C57 C64 1.403 1_556 S
C58 C48 1.476 1_556 S
C58 N53 1.318 . S
C58 C57 1.396 . S
H59 C54 0.929 . S
O60 Mn36 2.386 1_556 S
O60 C38 1.234 . S
O61 Mn36 2.208 . S
O61 Mn37 2.215 . S
O61 C38 1.283 1_554 S
O62 Mn36 2.096 1_556 S
O62 C40 1.240 . S
O63 Mn37 2.117 1_556 S
O63 C40 1.264 . S
C64 C57 1.403 1_554 S
C64 C65 1.399 . S
C64 H70 0.929 1_554 S
C65 C45 1.449 . S
C65 C64 1.399 . S
C65 H71 0.930 . S
H66 C46 0.931 . S
H67 C47 0.930 . S
H68 C55 0.931 . S
H69 C56 0.929 . S
H70 C64 0.929 1_556 S
H71 C65 0.930 . S
Mn72 O77 2.095 1_554 S
Mn72 O87 2.162 . S
Mn72 O88 2.297 1_554 S
Mn72 O96 2.385 . S
Mn72 O97 2.209 . S
Mn72 O98 2.094 . S
Mn73 O78 2.121 1_554 S
Mn73 N80 2.257 1_554 S
Mn73 N89 2.282 . S
Mn73 O97 2.215 . S
Mn73 O99 2.117 . S
C74 O96 1.234 . S
C74 O97 1.283 . S
C75 O87 1.281 . S
C75 O88 1.236 1_554 S
C76 O98 1.240 . S
C76 O99 1.264 . S
O77 Mn72 2.095 1_556 S
O77 C86 1.250 . S
O78 Mn73 2.121 1_556 S
O78 C86 1.258 . S
C79 N80 1.326 . S
C79 C83 1.460 . S
C79 H85 0.929 . S
N80 Mn73 2.257 1_556 S
N80 C79 1.326 . S
N80 C84 1.362 . S
C81 C82 1.258 . S
C81 C84 1.431 . S
C81 C101 1.449 . S
C82 C81 1.258 . S
C82 C83 1.477 . S
C82 H102 0.931 . S
C83 C79 1.460 . S
C83 C82 1.477 . S
C83 H103 0.930 . S
C84 N80 1.362 . S
C84 C81 1.431 . S
C84 C94 1.476 1_556 S
H85 C79 0.929 . S
C86 O77 1.250 . S
C86 O78 1.258 . S
O87 Mn72 2.162 . S
O87 C75 1.281 . S
O88 Mn72 2.297 1_556 S
O88 C75 1.236 1_556 S
N89 Mn73 2.282 . S
N89 C90 1.328 . S
N89 C94 1.318 . S
C90 N89 1.328 . S
C90 C91 1.457 . S
C90 H95 0.929 . S
C91 C90 1.457 . S
C91 C92 1.291 . S
C91 H104 0.931 . S
C92 C91 1.291 . S
C92 C93 1.373 . S
C92 H105 0.929 . S
C93 C92 1.373 . S
C93 C94 1.396 . S
C93 C100 1.403 . S
C94 C84 1.476 1_554 S
C94 N89 1.318 . S
C94 C93 1.396 . S
H95 C90 0.929 . S
O96 Mn72 2.385 . S
O96 C74 1.234 . S
O97 Mn72 2.209 . S
O97 Mn73 2.215 . S
O97 C74 1.283 . S
O98 Mn72 2.094 . S
O98 C76 1.240 . S
O99 Mn73 2.117 . S
O99 C76 1.264 . S
C100 C93 1.403 . S
C100 C101 1.399 1_554 S
C100 H106 0.929 . S
C101 C81 1.449 . S
C101 C100 1.399 1_556 S
C101 H107 0.930 . S
H102 C82 0.931 . S
H103 C83 0.930 . S
H104 C91 0.931 . S
H105 C92 0.929 . S
H106 C100 0.929 . S
H107 C101 0.930 . S
Mn108 O113 2.094 . S
Mn108 O123 2.162 1_554 S
Mn108 O124 2.295 . S
Mn108 O132 2.386 1_554 S
Mn108 O133 2.208 . S
Mn108 O134 2.096 1_554 S
Mn109 O114 2.121 . S
Mn109 N116 2.257 . S
Mn109 N125 2.282 1_554 S
Mn109 O133 2.215 . S
Mn109 O135 2.117 1_554 S
C110 O132 1.234 . S
C110 O133 1.283 1_556 S
C111 O123 1.281 1_554 S
C111 O124 1.236 . S
C112 O134 1.240 . S
C112 O135 1.264 . S
O113 Mn108 2.094 . S
O113 C122 1.250 . S
O114 Mn109 2.121 . S
O114 C122 1.258 . S
C115 N116 1.326 . S
C115 C119 1.460 . S
C115 H121 0.929 . S
N116 Mn109 2.257 . S
N116 C115 1.326 . S
N116 C120 1.362 . S
C117 C118 1.258 . S
C117 C120 1.431 . S
C117 C137 1.449 . S
C118 C117 1.258 . S
C118 C119 1.477 . S
C118 H138 0.931 . S
C119 C115 1.460 . S
C119 C118 1.477 . S
C119 H139 0.930 . S
C120 N116 1.362 . S
C120 C117 1.431 . S
C120 C130 1.476 1_554 S
H121 C115 0.929 . S
C122 O113 1.250 . S
C122 O114 1.258 . S
O123 Mn108 2.162 1_556 S
O123 C111 1.281 1_556 S
O124 Mn108 2.295 . S
O124 C111 1.236 . S
N125 Mn109 2.282 1_556 S
N125 C126 1.328 . S
N125 C130 1.318 . S
C126 N125 1.328 . S
C126 C127 1.457 . S
C126 H131 0.929 . S
C127 C126 1.457 . S
C127 C128 1.291 . S
C127 H140 0.931 . S
C128 C127 1.291 . S
C128 C129 1.373 . S
C128 H141 0.929 . S
C129 C128 1.373 . S
C129 C130 1.396 . S
C129 C136 1.403 1_556 S
C130 C120 1.476 1_556 S
C130 N125 1.318 . S
C130 C129 1.396 . S
H131 C126 0.929 . S
O132 Mn108 2.386 1_556 S
O132 C110 1.234 . S
O133 Mn108 2.208 . S
O133 Mn109 2.215 . S
O133 C110 1.283 1_554 S
O134 Mn108 2.096 1_556 S
O134 C112 1.240 . S
O135 Mn109 2.117 1_556 S
O135 C112 1.264 . S
C136 C129 1.403 1_554 S
C136 C137 1.399 . S
C136 H142 0.929 1_554 S
C137 C117 1.449 . S
C137 C136 1.399 . S
C137 H143 0.930 . S
H138 C118 0.931 . S
H139 C119 0.930 . S
H140 C127 0.931 . S
H141 C128 0.929 . S
H142 C136 0.929 1_556 S
H143 C137 0.930 . S
Mn144 O149 2.095 . S
Mn144 O159 2.162 . S
Mn144 O160 2.297 . S
Mn144 O168 2.385 . S
Mn144 O169 2.209 . S
Mn144 O170 2.094 . S
Mn145 O150 2.121 . S
Mn145 N152 2.257 . S
Mn145 N161 2.282 . S
Mn145 O169 2.215 . S
Mn145 O171 2.117 . S
C146 O168 1.234 . S
C146 O169 1.283 . S
C147 O159 1.281 . S
C147 O160 1.236 . S
C148 O170 1.240 . S
C148 O171 1.264 . S
O149 Mn144 2.095 . S
O149 C158 1.250 . S
O150 Mn145 2.121 . S
O150 C158 1.258 . S
C151 N152 1.326 . S
C151 C155 1.460 . S
C151 H157 0.929 . S
N152 Mn145 2.257 . S
N152 C151 1.326 . S
N152 C156 1.362 . S
C153 C154 1.258 . S
C153 C156 1.431 . S
C153 C173 1.449 . S
C154 C153 1.258 . S
C154 C155 1.477 . S
C154 H174 0.931 . S
C155 C151 1.460 . S
C155 C154 1.477 . S
C155 H175 0.930 . S
C156 N152 1.362 . S
C156 C153 1.431 . S
C156 C166 1.476 . S
H157 C151 0.929 . S
C158 O149 1.250 . S
C158 O150 1.258 . S
O159 Mn144 2.162 . S
O159 C147 1.281 . S
O160 Mn144 2.297 . S
O160 C147 1.236 . S
N161 Mn145 2.282 . S
N161 C162 1.328 . S
N161 C166 1.318 . S
C162 N161 1.328 . S
C162 C163 1.457 . S
C162 H167 0.929 . S
C163 C162 1.457 . S
C163 C164 1.291 . S
C163 H176 0.931 . S
C164 C163 1.291 . S
C164 C165 1.373 . S
C164 H177 0.929 . S
C165 C164 1.373 . S
C165 C166 1.396 . S
C165 C172 1.403 . S
C166 C156 1.476 . S
C166 N161 1.318 . S
C166 C165 1.396 . S
H167 C162 0.929 . S
O168 Mn144 2.385 . S
O168 C146 1.234 . S
O169 Mn144 2.209 . S
O169 Mn145 2.215 . S
O169 C146 1.283 . S
O170 Mn144 2.094 . S
O170 C148 1.240 . S
O171 Mn145 2.117 . S
O171 C148 1.264 . S
C172 C165 1.403 . S
C172 C173 1.399 . S
C172 H178 0.929 . S
C173 C153 1.449 . S
C173 C172 1.399 . S
C173 H179 0.930 . S
H174 C154 0.931 . S
H175 C155 0.930 . S
H176 C163 0.931 . S
H177 C164 0.929 . S
H178 C172 0.929 . S
H179 C173 0.930 . S
Mn180 O185 2.095 . S
Mn180 O195 2.162 . S
Mn180 O196 2.297 . S
Mn180 O204 2.385 . S
Mn180 O205 2.209 . S
Mn180 O206 2.094 . S
Mn181 O186 2.121 . S
Mn181 N188 2.257 . S
Mn181 N197 2.282 . S
Mn181 O205 2.215 . S
Mn181 O207 2.117 . S
C182 O204 1.234 . S
C182 O205 1.283 . S
C183 O195 1.281 . S
C183 O196 1.236 . S
C184 O206 1.240 . S
C184 O207 1.264 . S
O185 Mn180 2.095 . S
O185 C194 1.250 . S
O186 Mn181 2.121 . S
O186 C194 1.258 . S
C187 N188 1.326 . S
C187 C191 1.460 . S
C187 H193 0.929 . S
N188 Mn181 2.257 . S
N188 C187 1.326 . S
N188 C192 1.362 . S
C189 C190 1.258 . S
C189 C192 1.431 . S
C189 C209 1.449 . S
C190 C189 1.258 . S
C190 C191 1.477 . S
C190 H210 0.931 . S
C191 C187 1.460 . S
C191 C190 1.477 . S
C191 H211 0.930 . S
C192 N188 1.362 . S
C192 C189 1.431 . S
C192 C202 1.476 . S
H193 C187 0.929 . S
C194 O185 1.250 . S
C194 O186 1.258 . S
O195 Mn180 2.162 . S
O195 C183 1.281 . S
O196 Mn180 2.297 . S
O196 C183 1.236 . S
N197 Mn181 2.282 . S
N197 C198 1.328 . S
N197 C202 1.318 . S
C198 N197 1.328 . S
C198 C199 1.457 . S
C198 H203 0.929 . S
C199 C198 1.457 . S
C199 C200 1.291 . S
C199 H212 0.931 . S
C200 C199 1.291 . S
C200 C201 1.373 . S
C200 H213 0.929 . S
C201 C200 1.373 . S
C201 C202 1.396 . S
C201 C208 1.403 . S
C202 C192 1.476 . S
C202 N197 1.318 . S
C202 C201 1.396 . S
H203 C198 0.929 . S
O204 Mn180 2.385 . S
O204 C182 1.234 . S
O205 Mn180 2.209 . S
O205 Mn181 2.215 . S
O205 C182 1.283 . S
O206 Mn180 2.094 . S
O206 C184 1.240 . S
O207 Mn181 2.117 . S
O207 C184 1.264 . S
C208 C201 1.403 . S
C208 C209 1.399 . S
C208 H214 0.929 . S
C209 C189 1.449 . S
C209 C208 1.399 . S
C209 H215 0.930 . S
H210 C190 0.931 . S
H211 C191 0.930 . S
H212 C199 0.931 . S
H213 C200 0.929 . S
H214 C208 0.929 . S
H215 C209 0.930 . S
Mn216 O221 2.095 . S
Mn216 O231 2.162 . S
Mn216 O232 2.297 . S
Mn216 O240 2.385 . S
Mn216 O241 2.209 . S
Mn216 O242 2.094 . S
Mn217 O222 2.121 . S
Mn217 N224 2.257 . S
Mn217 N233 2.282 . S
Mn217 O241 2.215 . S
Mn217 O243 2.117 . S
C218 O240 1.234 . S
C218 O241 1.283 . S
C219 O231 1.281 . S
C219 O232 1.236 . S
C220 O242 1.240 . S
C220 O243 1.264 . S
O221 Mn216 2.095 . S
O221 C230 1.250 . S
O222 Mn217 2.121 . S
O222 C230 1.258 . S
C223 N224 1.326 . S
C223 C227 1.460 . S
C223 H229 0.929 . S
N224 Mn217 2.257 . S
N224 C223 1.326 . S
N224 C228 1.362 . S
C225 C226 1.258 . S
C225 C228 1.431 . S
C225 C245 1.449 . S
C226 C225 1.258 . S
C226 C227 1.477 . S
C226 H246 0.931 . S
C227 C223 1.460 . S
C227 C226 1.477 . S
C227 H247 0.930 . S
C228 N224 1.362 . S
C228 C225 1.431 . S
C228 C238 1.476 . S
H229 C223 0.929 . S
C230 O221 1.250 . S
C230 O222 1.258 . S
O231 Mn216 2.162 . S
O231 C219 1.281 . S
O232 Mn216 2.297 . S
O232 C219 1.236 . S
N233 Mn217 2.282 . S
N233 C234 1.328 . S
N233 C238 1.318 . S
C234 N233 1.328 . S
C234 C235 1.457 . S
C234 H239 0.929 . S
C235 C234 1.457 . S
C235 C236 1.291 . S
C235 H248 0.931 . S
C236 C235 1.291 . S
C236 C237 1.373 . S
C236 H249 0.929 . S
C237 C236 1.373 . S
C237 C238 1.396 . S
C237 C244 1.403 . S
C238 C228 1.476 . S
C238 N233 1.318 . S
C238 C237 1.396 . S
H239 C234 0.929 . S
O240 Mn216 2.385 . S
O240 C218 1.234 . S
O241 Mn216 2.209 . S
O241 Mn217 2.215 . S
O241 C218 1.283 . S
O242 Mn216 2.094 . S
O242 C220 1.240 . S
O243 Mn217 2.117 . S
O243 C220 1.264 . S
C244 C237 1.403 . S
C244 C245 1.399 . S
C244 H250 0.929 . S
C245 C225 1.449 . S
C245 C244 1.399 . S
C245 H251 0.930 . S
H246 C226 0.931 . S
H247 C227 0.930 . S
H248 C235 0.931 . S
H249 C236 0.929 . S
H250 C244 0.929 . S
H251 C245 0.930 . S
Mn252 O257 2.095 . S
Mn252 O267 2.162 . S
Mn252 O268 2.297 . S
Mn252 O276 2.385 . S
Mn252 O277 2.209 . S
Mn252 O278 2.094 . S
Mn253 O258 2.121 . S
Mn253 N260 2.257 . S
Mn253 N269 2.282 . S
Mn253 O277 2.215 . S
Mn253 O279 2.117 . S
C254 O276 1.234 . S
C254 O277 1.283 . S
C255 O267 1.281 . S
C255 O268 1.236 . S
C256 O278 1.240 . S
C256 O279 1.264 . S
O257 Mn252 2.095 . S
O257 C266 1.250 . S
O258 Mn253 2.121 . S
O258 C266 1.258 . S
C259 N260 1.326 . S
C259 C263 1.460 . S
C259 H265 0.929 . S
N260 Mn253 2.257 . S
N260 C259 1.326 . S
N260 C264 1.362 . S
C261 C262 1.258 . S
C261 C264 1.431 . S
C261 C281 1.449 . S
C262 C261 1.258 . S
C262 C263 1.477 . S
C262 H282 0.931 . S
C263 C259 1.460 . S
C263 C262 1.477 . S
C263 H283 0.930 . S
C264 N260 1.362 . S
C264 C261 1.431 . S
C264 C274 1.476 . S
H265 C259 0.929 . S
C266 O257 1.250 . S
C266 O258 1.258 . S
O267 Mn252 2.162 . S
O267 C255 1.281 . S
O268 Mn252 2.297 . S
O268 C255 1.236 . S
N269 Mn253 2.282 . S
N269 C270 1.328 . S
N269 C274 1.318 . S
C270 N269 1.328 . S
C270 C271 1.457 . S
C270 H275 0.929 . S
C271 C270 1.457 . S
C271 C272 1.291 . S
C271 H284 0.931 . S
C272 C271 1.291 . S
C272 C273 1.373 . S
C272 H285 0.929 . S
C273 C272 1.373 . S
C273 C274 1.396 . S
C273 C280 1.403 . S
C274 C264 1.476 . S
C274 N269 1.318 . S
C274 C273 1.396 . S
H275 C270 0.929 . S
O276 Mn252 2.385 . S
O276 C254 1.234 . S
O277 Mn252 2.209 . S
O277 Mn253 2.215 . S
O277 C254 1.283 . S
O278 Mn252 2.094 . S
O278 C256 1.240 . S
O279 Mn253 2.117 . S
O279 C256 1.264 . S
C280 C273 1.403 . S
C280 C281 1.399 . S
C280 H286 0.929 . S
C281 C261 1.449 . S
C281 C280 1.399 . S
C281 H287 0.930 . S
H282 C262 0.931 . S
H283 C263 0.930 . S
H284 C271 0.931 . S
H285 C272 0.929 . S
H286 C280 0.929 . S
H287 C281 0.930 . S
H288 C296 0.929 . S
H289 C298 0.930 . S
H290 C300 0.930 . S
H291 C303 0.929 . S
H292 C306 0.930 1_556 S
H293 C308 0.960 . S
H294 C308 0.960 . S
H295 C308 0.960 . S
C296 H288 0.929 . S
C296 C297 1.377 1_556 S
C296 C298 1.384 . S
C297 C296 1.377 1_554 S
C297 C303 1.390 . S
C298 H289 0.930 . S
C298 C296 1.384 . S
C298 C299 1.372 1_556 S
C299 C298 1.372 1_554 S
C299 C300 1.400 . S
C299 C304 1.490 . S
C300 H290 0.930 . S
C300 C299 1.400 . S
C300 C303 1.386 . S
H301 C317 0.930 . S
H302 C318 0.931 . S
C303 H291 0.929 . S
C303 C297 1.390 . S
C303 C300 1.386 . S
C304 C299 1.490 . S
C304 C306 1.395 . S
C304 C307 1.403 . S
H305 C311 0.930 . S
C306 H292 0.930 1_554 S
C306 C304 1.395 . S
C306 C309 1.403 . S
C307 C304 1.403 . S
C307 C308 1.524 . S
C307 C311 1.400 . S
C308 H293 0.960 . S
C308 H294 0.960 . S
C308 H295 0.960 . S
C308 C307 1.524 . S
C309 C306 1.403 . S
C309 C310 1.392 . S
C309 C313 1.495 1_554 S
C310 C309 1.392 . S
C310 C311 1.385 . S
C310 C312 1.478 . S
C311 H305 0.930 . S
C311 C307 1.400 . S
C311 C310 1.385 . S
C312 C310 1.478 . S
C312 C314 1.381 1_554 S
C312 C318 1.383 . S
C313 C309 1.495 1_556 S
C313 H319 0.959 . S
C313 H320 0.961 1_556 S
C313 H321 0.960 . S
C314 C312 1.381 1_556 S
C314 C315 1.394 . S
C314 H322 0.930 . S
C315 C314 1.394 . S
C315 C316 1.383 1_556 S
C315 H323 0.929 . S
C316 C315 1.383 1_554 S
C316 C317 1.377 . S
C317 H301 0.930 . S
C317 C316 1.377 . S
C317 C318 1.379 . S
C318 H302 0.931 . S
C318 C312 1.383 . S
C318 C317 1.379 . S
H319 C313 0.959 . S
H320 C313 0.961 1_554 S
H321 C313 0.960 . S
H322 C314 0.930 . S
H323 C315 0.929 . S
H324 C332 0.929 . S
H325 C334 0.930 . S
H326 C336 0.930 . S
H327 C339 0.929 . S
H328 C342 0.930 . S
H329 C344 0.960 . S
H330 C344 0.960 1_556 S
H331 C344 0.960 . S
C332 H324 0.929 . S
C332 C333 1.377 1_556 S
C332 C334 1.384 . S
C333 C332 1.377 1_554 S
C333 C339 1.390 . S
C334 H325 0.930 . S
C334 C332 1.384 . S
C334 C335 1.372 1_556 S
C335 C334 1.372 1_554 S
C335 C336 1.400 . S
C335 C340 1.490 . S
C336 H326 0.930 . S
C336 C335 1.400 . S
C336 C339 1.386 . S
H337 C353 0.930 . S
H338 C354 0.931 . S
C339 H327 0.929 . S
C339 C333 1.390 . S
C339 C336 1.386 . S
C340 C335 1.490 . S
C340 C342 1.395 . S
C340 C343 1.403 . S
H341 C347 0.930 . S
C342 H328 0.930 . S
C342 C340 1.395 . S
C342 C345 1.403 . S
C343 C340 1.403 . S
C343 C344 1.524 . S
C343 C347 1.400 . S
C344 H329 0.960 . S
C344 H330 0.960 1_554 S
C344 H331 0.960 . S
C344 C343 1.524 . S
C345 C342 1.403 . S
C345 C346 1.392 . S
C345 C349 1.495 . S
C346 C345 1.392 . S
C346 C347 1.385 . S
C346 C348 1.478 . S
C347 H341 0.930 . S
C347 C343 1.400 . S
C347 C346 1.385 . S
C348 C346 1.478 . S
C348 C350 1.381 1_554 S
C348 C354 1.383 . S
C349 C345 1.495 . S
C349 H355 0.959 . S
C349 H356 0.961 . S
C349 H357 0.960 1_554 S
C350 C348 1.381 1_556 S
C350 C351 1.394 . S
C350 H358 0.930 . S
C351 C350 1.394 . S
C351 C352 1.383 1_556 S
C351 H359 0.929 . S
C352 C351 1.383 1_554 S
C352 C353 1.377 . S
C353 H337 0.930 . S
C353 C352 1.377 . S
C353 C354 1.379 . S
C354 H338 0.931 . S
C354 C348 1.383 . S
C354 C353 1.379 . S
H355 C349 0.959 . S
H356 C349 0.961 . S
H357 C349 0.960 1_556 S
H358 C350 0.930 . S
H359 C351 0.929 . S
H360 C368 0.929 . S
H361 C370 0.930 . S
H362 C372 0.930 . S
H363 C375 0.929 . S
H364 C378 0.930 . S
H365 C380 0.960 . S
H366 C380 0.960 . S
H367 C380 0.960 . S
C368 H360 0.929 . S
C368 C369 1.377 1_556 S
C368 C370 1.384 . S
C369 C368 1.377 1_554 S
C369 C375 1.390 . S
C370 H361 0.930 . S
C370 C368 1.384 . S
C370 C371 1.372 1_556 S
C371 C370 1.372 1_554 S
C371 C372 1.400 . S
C371 C376 1.490 . S
C372 H362 0.930 . S
C372 C371 1.400 . S
C372 C375 1.386 . S
H373 C389 0.930 . S
H374 C390 0.931 . S
C375 H363 0.929 . S
C375 C369 1.390 . S
C375 C372 1.386 . S
C376 C371 1.490 . S
C376 C378 1.395 1_554 S
C376 C379 1.403 . S
H377 C383 0.930 . S
C378 H364 0.930 . S
C378 C376 1.395 1_556 S
C378 C381 1.403 . S
C379 C376 1.403 . S
C379 C380 1.524 . S
C379 C383 1.400 . S
C380 H365 0.960 . S
C380 H366 0.960 . S
C380 H367 0.960 . S
C380 C379 1.524 . S
C381 C378 1.403 . S
C381 C382 1.392 1_556 S
C381 C385 1.495 . S
C382 C381 1.392 1_554 S
C382 C383 1.385 . S
C382 C384 1.478 . S
C383 H377 0.930 . S
C383 C379 1.400 . S
C383 C382 1.385 . S
C384 C382 1.478 . S
C384 C386 1.381 1_554 S
C384 C390 1.383 . S
C385 C381 1.495 . S
C385 H391 0.959 . S
C385 H392 0.961 . S
C385 H393 0.960 . S
C386 C384 1.381 1_556 S
C386 C387 1.394 . S
C386 H394 0.930 . S
C387 C386 1.394 . S
C387 C388 1.383 1_556 S
C387 H395 0.929 . S
C388 C387 1.383 1_554 S
C388 C389 1.377 . S
C389 H373 0.930 . S
C389 C388 1.377 . S
C389 C390 1.379 . S
C390 H374 0.931 . S
C390 C384 1.383 . S
C390 C389 1.379 . S
H391 C385 0.959 . S
H392 C385 0.961 . S
H393 C385 0.960 . S
H394 C386 0.930 . S
H395 C387 0.929 . S
H396 C404 0.929 . S
H397 C406 0.930 . S
H398 C408 0.930 . S
H399 C411 0.929 . S
H400 C414 0.930 . S
H401 C416 0.960 . S
H402 C416 0.960 . S
H403 C416 0.960 . S
C404 H396 0.929 . S
C404 C405 1.377 1_556 S
C404 C406 1.384 . S
C405 C404 1.377 1_554 S
C405 C411 1.390 . S
C406 H397 0.930 . S
C406 C404 1.384 . S
C406 C407 1.372 1_556 S
C407 C406 1.372 1_554 S
C407 C408 1.400 . S
C407 C412 1.490 . S
C408 H398 0.930 . S
C408 C407 1.400 . S
C408 C411 1.386 . S
H409 C425 0.930 . S
H410 C426 0.931 . S
C411 H399 0.929 . S
C411 C405 1.390 . S
C411 C408 1.386 . S
C412 C407 1.490 . S
C412 C414 1.395 1_554 S
C412 C415 1.403 . S
H413 C419 0.930 . S
C414 H400 0.930 . S
C414 C412 1.395 1_556 S
C414 C417 1.403 . S
C415 C412 1.403 . S
C415 C416 1.524 . S
C415 C419 1.400 . S
C416 H401 0.960 . S
C416 H402 0.960 . S
C416 H403 0.960 . S
C416 C415 1.524 . S
C417 C414 1.403 . S
C417 C418 1.392 1_556 S
C417 C421 1.495 . S
C418 C417 1.392 1_554 S
C418 C419 1.385 . S
C418 C420 1.478 . S
C419 H413 0.930 . S
C419 C415 1.400 . S
C419 C418 1.385 . S
C420 C418 1.478 . S
C420 C422 1.381 1_554 S
C420 C426 1.383 . S
C421 C417 1.495 . S
C421 H427 0.959 . S
C421 H428 0.961 . S
C421 H429 0.960 . S
C422 C420 1.381 1_556 S
C422 C423 1.394 . S
C422 H430 0.930 . S
C423 C422 1.394 . S
C423 C424 1.383 1_556 S
C423 H431 0.929 . S
C424 C423 1.383 1_554 S
C424 C425 1.377 . S
C425 H409 0.930 . S
C425 C424 1.377 . S
C425 C426 1.379 . S
C426 H410 0.931 . S
C426 C420 1.383 . S
C426 C425 1.379 . S
H427 C421 0.959 . S
H428 C421 0.961 . S
H429 C421 0.960 . S
H430 C422 0.930 . S
H431 C423 0.929 . S
H432 C440 0.929 . S
H433 C442 0.930 . S
H434 C444 0.930 . S
H435 C447 0.929 . S
H436 C450 0.930 . S
H437 C452 0.960 . S
H438 C452 0.960 . S
H439 C452 0.960 . S
C440 H432 0.929 . S
C440 C441 1.377 . S
C440 C442 1.384 . S
C441 C440 1.377 . S
C441 C447 1.390 . S
C442 H433 0.930 . S
C442 C440 1.384 . S
C442 C443 1.372 . S
C443 C442 1.372 . S
C443 C444 1.400 . S
C443 C448 1.490 . S
C444 H434 0.930 . S
C444 C443 1.400 . S
C444 C447 1.386 . S
H445 C461 0.930 . S
H446 C462 0.931 . S
C447 H435 0.929 . S
C447 C441 1.390 . S
C447 C444 1.386 . S
C448 C443 1.490 . S
C448 C450 1.395 . S
C448 C451 1.403 . S
H449 C455 0.930 . S
C450 H436 0.930 . S
C450 C448 1.395 . S
C450 C453 1.403 1_565 S
C451 C448 1.403 . S
C451 C452 1.524 . S
C451 C455 1.400 1_565 S
C452 H437 0.960 . S
C452 H438 0.960 . S
C452 H439 0.960 . S
C452 C451 1.524 . S
C453 C450 1.403 1_545 S
C453 C454 1.392 . S
C453 C457 1.495 . S
C454 C453 1.392 . S
C454 C455 1.385 . S
C454 C456 1.478 . S
C455 H449 0.930 . S
C455 C451 1.400 1_545 S
C455 C454 1.385 . S
C456 C454 1.478 . S
C456 C458 1.381 . S
C456 C462 1.383 . S
C457 C453 1.495 . S
C457 H463 0.959 . S
C457 H464 0.961 . S
C457 H465 0.960 . S
C458 C456 1.381 . S
C458 C459 1.394 . S
C458 H466 0.930 . S
C459 C458 1.394 . S
C459 C460 1.383 . S
C459 H467 0.929 . S
C460 C459 1.383 . S
C460 C461 1.377 . S
C461 H445 0.930 . S
C461 C460 1.377 . S
C461 C462 1.379 . S
C462 H446 0.931 . S
C462 C456 1.383 . S
C462 C461 1.379 . S
H463 C457 0.959 . S
H464 C457 0.961 . S
H465 C457 0.960 . S
H466 C458 0.930 . S
H467 C459 0.929 . S
H468 C476 0.929 . S
H469 C478 0.930 . S
H470 C480 0.930 . S
H471 C483 0.929 . S
H472 C486 0.930 . S
H473 C488 0.960 . S
H474 C488 0.960 . S
H475 C488 0.960 . S
C476 H468 0.929 . S
C476 C477 1.377 . S
C476 C478 1.384 . S
C477 C476 1.377 . S
C477 C483 1.390 . S
C478 H469 0.930 . S
C478 C476 1.384 . S
C478 C479 1.372 . S
C479 C478 1.372 . S
C479 C480 1.400 . S
C479 C484 1.490 . S
C480 H470 0.930 . S
C480 C479 1.400 . S
C480 C483 1.386 . S
H481 C497 0.930 . S
H482 C498 0.931 . S
C483 H471 0.929 . S
C483 C477 1.390 . S
C483 C480 1.386 . S
C484 C479 1.490 . S
C484 C486 1.395 . S
C484 C487 1.403 . S
H485 C491 0.930 . S
C486 H472 0.930 . S
C486 C484 1.395 . S
C486 C489 1.403 1_455 S
C487 C484 1.403 . S
C487 C488 1.524 . S
C487 C491 1.400 1_455 S
C488 H473 0.960 . S
C488 H474 0.960 . S
C488 H475 0.960 . S
C488 C487 1.524 . S
C489 C486 1.403 1_655 S
C489 C490 1.392 . S
C489 C493 1.495 . S
C490 C489 1.392 . S
C490 C491 1.385 . S
C490 C492 1.478 . S
C491 H485 0.930 . S
C491 C487 1.400 1_655 S
C491 C490 1.385 . S
C492 C490 1.478 . S
C492 C494 1.381 . S
C492 C498 1.383 . S
C493 C489 1.495 . S
C493 H499 0.959 . S
C493 H500 0.961 . S
C493 H501 0.960 . S
C494 C492 1.381 . S
C494 C495 1.394 . S
C494 H502 0.930 . S
C495 C494 1.394 . S
C495 C496 1.383 . S
C495 H503 0.929 . S
C496 C495 1.383 . S
C496 C497 1.377 . S
C497 H481 0.930 . S
C497 C496 1.377 . S
C497 C498 1.379 . S
C498 H482 0.931 . S
C498 C492 1.383 . S
C498 C497 1.379 . S
H499 C493 0.959 . S
H500 C493 0.961 . S
H501 C493 0.960 . S
H502 C494 0.930 . S
H503 C495 0.929 . S
H504 C512 0.929 . S
H505 C514 0.930 . S
H506 C516 0.930 . S
H507 C519 0.929 . S
H508 C522 0.930 . S
H509 C524 0.960 . S
H510 C524 0.960 . S
H511 C524 0.960 . S
C512 H504 0.929 . S
C512 C513 1.377 . S
C512 C514 1.384 . S
C513 C512 1.377 . S
C513 C519 1.390 . S
C514 H505 0.930 . S
C514 C512 1.384 . S
C514 C515 1.372 . S
C515 C514 1.372 . S
C515 C516 1.400 . S
C515 C520 1.490 . S
C516 H506 0.930 . S
C516 C515 1.400 . S
C516 C519 1.386 . S
H517 C533 0.930 . S
H518 C534 0.931 . S
C519 H507 0.929 . S
C519 C513 1.390 . S
C519 C516 1.386 . S
C520 C515 1.490 . S
C520 C522 1.395 . S
C520 C523 1.403 . S
H521 C527 0.930 . S
C522 H508 0.930 . S
C522 C520 1.395 . S
C522 C525 1.403 1_545 S
C523 C520 1.403 . S
C523 C524 1.524 . S
C523 C527 1.400 1_545 S
C524 H509 0.960 . S
C524 H510 0.960 . S
C524 H511 0.960 . S
C524 C523 1.524 . S
C525 C522 1.403 1_565 S
C525 C526 1.392 . S
C525 C529 1.495 . S
C526 C525 1.392 . S
C526 C527 1.385 . S
C526 C528 1.478 . S
C527 H521 0.930 . S
C527 C523 1.400 1_565 S
C527 C526 1.385 . S
C528 C526 1.478 . S
C528 C530 1.381 . S
C528 C534 1.383 . S
C529 C525 1.495 . S
C529 H535 0.959 . S
C529 H536 0.961 . S
C529 H537 0.960 . S
C530 C528 1.381 . S
C530 C531 1.394 . S
C530 H538 0.930 . S
C531 C530 1.394 . S
C531 C532 1.383 . S
C531 H539 0.929 . S
C532 C531 1.383 . S
C532 C533 1.377 . S
C533 H517 0.930 . S
C533 C532 1.377 . S
C533 C534 1.379 . S
C534 H518 0.931 . S
C534 C528 1.383 . S
C534 C533 1.379 . S
H535 C529 0.959 . S
H536 C529 0.961 . S
H537 C529 0.960 . S
H538 C530 0.930 . S
H539 C531 0.929 . S
H540 C548 0.929 . S
H541 C550 0.930 . S
H542 C552 0.930 . S
H543 C555 0.929 . S
H544 C558 0.930 . S
H545 C560 0.960 . S
H546 C560 0.960 . S
H547 C560 0.960 . S
C548 H540 0.929 . S
C548 C549 1.377 . S
C548 C550 1.384 . S
C549 C548 1.377 . S
C549 C555 1.390 . S
C550 H541 0.930 . S
C550 C548 1.384 . S
C550 C551 1.372 . S
C551 C550 1.372 . S
C551 C552 1.400 . S
C551 C556 1.490 . S
C552 H542 0.930 . S
C552 C551 1.400 . S
C552 C555 1.386 . S
H553 C569 0.930 . S
H554 C570 0.931 . S
C555 H543 0.929 . S
C555 C549 1.390 . S
C555 C552 1.386 . S
C556 C551 1.490 . S
C556 C558 1.395 . S
C556 C559 1.403 . S
H557 C563 0.930 . S
C558 H544 0.930 . S
C558 C556 1.395 . S
C558 C561 1.403 1_655 S
C559 C556 1.403 . S
C559 C560 1.524 . S
C559 C563 1.400 1_655 S
C560 H545 0.960 . S
C560 H546 0.960 . S
C560 H547 0.960 . S
C560 C559 1.524 . S
C561 C558 1.403 1_455 S
C561 C562 1.392 . S
C561 C565 1.495 . S
C562 C561 1.392 . S
C562 C563 1.385 . S
C562 C564 1.478 . S
C563 H557 0.930 . S
C563 C559 1.400 1_455 S
C563 C562 1.385 . S
C564 C562 1.478 . S
C564 C566 1.381 . S
C564 C570 1.383 . S
C565 C561 1.495 . S
C565 H571 0.959 . S
C565 H572 0.961 . S
C565 H573 0.960 . S
C566 C564 1.381 . S
C566 C567 1.394 . S
C566 H574 0.930 . S
C567 C566 1.394 . S
C567 C568 1.383 . S
C567 H575 0.929 . S
C568 C567 1.383 . S
C568 C569 1.377 . S
C569 H553 0.930 . S
C569 C568 1.377 . S
C569 C570 1.379 . S
C570 H554 0.931 . S
C570 C564 1.383 . S
C570 C569 1.379 . S
H571 C565 0.959 . S
H572 C565 0.961 . S
H573 C565 0.960 . S
H574 C566 0.930 . S
H575 C567 0.929 . S
H576 C584 0.929 . S
H577 C586 0.930 . S
H578 C588 0.930 . S
H579 C591 0.929 . S
H580 C594 0.930 . S
H581 C596 0.960 . S
H582 C596 0.960 . S
H583 C596 0.960 . S
C584 H576 0.929 . S
C584 C585 1.377 . S
C584 C586 1.384 . S
C585 C584 1.377 . S
C585 C591 1.390 . S
C586 H577 0.930 . S
C586 C584 1.384 . S
C586 C587 1.372 . S
C587 C586 1.372 . S
C587 C588 1.400 . S
C587 C592 1.490 . S
C588 H578 0.930 . S
C588 C587 1.400 . S
C588 C591 1.386 . S
H589 C605 0.930 . S
H590 C606 0.931 . S
C591 H579 0.929 . S
C591 C585 1.390 . S
C591 C588 1.386 . S
C592 C587 1.490 . S
C592 C594 1.395 . S
C592 C595 1.403 . S
H593 C599 0.930 . S
C594 H580 0.930 . S
C594 C592 1.395 . S
C594 C597 1.403 . S
C595 C592 1.403 . S
C595 C596 1.524 . S
C595 C599 1.400 . S
C596 H581 0.960 . S
C596 H582 0.960 . S
C596 H583 0.960 . S
C596 C595 1.524 . S
C597 C594 1.403 . S
C597 C598 1.392 . S
C597 C601 1.495 . S
C598 C597 1.392 . S
C598 C599 1.385 . S
C598 C600 1.478 . S
C599 H593 0.930 . S
C599 C595 1.400 . S
C599 C598 1.385 . S
C600 C598 1.478 . S
C600 C602 1.381 . S
C600 C606 1.383 . S
C601 C597 1.495 . S
C601 H607 0.959 . S
C601 H608 0.961 . S
C601 H609 0.960 . S
C602 C600 1.381 . S
C602 C603 1.394 . S
C602 H610 0.930 . S
C603 C602 1.394 . S
C603 C604 1.383 . S
C603 H611 0.929 . S
C604 C603 1.383 . S
C604 C605 1.377 . S
C605 H589 0.930 . S
C605 C604 1.377 . S
C605 C606 1.379 . S
C606 H590 0.931 . S
C606 C600 1.383 . S
C606 C605 1.379 . S
H607 C601 0.959 . S
H608 C601 0.961 . S
H609 C601 0.960 . S
H610 C602 0.930 . S
H611 C603 0.929 . S
H612 C620 0.929 . S
H613 C622 0.930 . S
H614 C624 0.930 . S
H615 C627 0.929 . S
H616 C630 0.930 . S
H617 C632 0.960 . S
H618 C632 0.960 . S
H619 C632 0.960 . S
C620 H612 0.929 . S
C620 C621 1.377 . S
C620 C622 1.384 . S
C621 C620 1.377 . S
C621 C627 1.390 . S
C622 H613 0.930 . S
C622 C620 1.384 . S
C622 C623 1.372 . S
C623 C622 1.372 . S
C623 C624 1.400 . S
C623 C628 1.490 . S
C624 H614 0.930 . S
C624 C623 1.400 . S
C624 C627 1.386 . S
H625 C641 0.930 . S
H626 C642 0.931 . S
C627 H615 0.929 . S
C627 C621 1.390 . S
C627 C624 1.386 . S
C628 C623 1.490 . S
C628 C630 1.395 . S
C628 C631 1.403 . S
H629 C635 0.930 . S
C630 H616 0.930 . S
C630 C628 1.395 . S
C630 C633 1.403 . S
C631 C628 1.403 . S
C631 C632 1.524 . S
C631 C635 1.400 . S
C632 H617 0.960 . S
C632 H618 0.960 . S
C632 H619 0.960 . S
C632 C631 1.524 . S
C633 C630 1.403 . S
C633 C634 1.392 . S
C633 C637 1.495 . S
C634 C633 1.392 . S
C634 C635 1.385 . S
C634 C636 1.478 . S
C635 H629 0.930 . S
C635 C631 1.400 . S
C635 C634 1.385 . S
C636 C634 1.478 . S
C636 C638 1.381 . S
C636 C642 1.383 . S
C637 C633 1.495 . S
C637 H643 0.959 . S
C637 H644 0.961 . S
C637 H645 0.960 . S
C638 C636 1.381 . S
C638 C639 1.394 . S
C638 H646 0.930 . S
C639 C638 1.394 . S
C639 C640 1.383 . S
C639 H647 0.929 . S
C640 C639 1.383 . S
C640 C641 1.377 . S
C641 H625 0.930 . S
C641 C640 1.377 . S
C641 C642 1.379 . S
C642 H626 0.931 . S
C642 C636 1.383 . S
C642 C641 1.379 . S
H643 C637 0.959 . S
H644 C637 0.961 . S
H645 C637 0.960 . S
H646 C638 0.930 . S
H647 C639 0.929 . S
H648 C656 0.929 . S
H649 C658 0.930 . S
H650 C660 0.930 . S
H651 C663 0.929 . S
H652 C666 0.930 . S
H653 C668 0.960 . S
H654 C668 0.960 . S
H655 C668 0.960 . S
C656 H648 0.929 . S
C656 C657 1.377 . S
C656 C658 1.384 . S
C657 C656 1.377 . S
C657 C663 1.390 . S
C658 H649 0.930 . S
C658 C656 1.384 . S
C658 C659 1.372 . S
C659 C658 1.372 . S
C659 C660 1.400 . S
C659 C664 1.490 . S
C660 H650 0.930 . S
C660 C659 1.400 . S
C660 C663 1.386 . S
H661 C677 0.930 . S
H662 C678 0.931 . S
C663 H651 0.929 . S
C663 C657 1.390 . S
C663 C660 1.386 . S
C664 C659 1.490 . S
C664 C666 1.395 . S
C664 C667 1.403 . S
H665 C671 0.930 . S
C666 H652 0.930 . S
C666 C664 1.395 . S
C666 C669 1.403 . S
C667 C664 1.403 . S
C667 C668 1.524 . S
C667 C671 1.400 . S
C668 H653 0.960 . S
C668 H654 0.960 . S
C668 H655 0.960 . S
C668 C667 1.524 . S
C669 C666 1.403 . S
C669 C670 1.392 . S
C669 C673 1.495 . S
C670 C669 1.392 . S
C670 C671 1.385 . S
C670 C672 1.478 . S
C671 H665 0.930 . S
C671 C667 1.400 . S
C671 C670 1.385 . S
C672 C670 1.478 . S
C672 C674 1.381 . S
C672 C678 1.383 . S
C673 C669 1.495 . S
C673 H679 0.959 . S
C673 H680 0.961 . S
C673 H681 0.960 . S
C674 C672 1.381 . S
C674 C675 1.394 . S
C674 H682 0.930 . S
C675 C674 1.394 . S
C675 C676 1.383 . S
C675 H683 0.929 . S
C676 C675 1.383 . S
C676 C677 1.377 . S
C677 H661 0.930 . S
C677 C676 1.377 . S
C677 C678 1.379 . S
C678 H662 0.931 . S
C678 C672 1.383 . S
C678 C677 1.379 . S
H679 C673 0.959 . S
H680 C673 0.961 . S
H681 C673 0.960 . S
H682 C674 0.930 . S
H683 C675 0.929 . S
H684 C692 0.929 . S
H685 C694 0.930 . S
H686 C696 0.930 . S
H687 C699 0.929 . S
H688 C702 0.930 . S
H689 C704 0.960 . S
H690 C704 0.960 . S
H691 C704 0.960 . S
C692 H684 0.929 . S
C692 C693 1.377 . S
C692 C694 1.384 . S
C693 C692 1.377 . S
C693 C699 1.390 . S
C694 H685 0.930 . S
C694 C692 1.384 . S
C694 C695 1.372 . S
C695 C694 1.372 . S
C695 C696 1.400 . S
C695 C700 1.490 . S
C696 H686 0.930 . S
C696 C695 1.400 . S
C696 C699 1.386 . S
H697 C713 0.930 . S
H698 C714 0.931 . S
C699 H687 0.929 . S
C699 C693 1.390 . S
C699 C696 1.386 . S
C700 C695 1.490 . S
C700 C702 1.395 . S
C700 C703 1.403 . S
H701 C707 0.930 . S
C702 H688 0.930 . S
C702 C700 1.395 . S
C702 C705 1.403 . S
C703 C700 1.403 . S
C703 C704 1.524 . S
C703 C707 1.400 . S
C704 H689 0.960 . S
C704 H690 0.960 . S
C704 H691 0.960 . S
C704 C703 1.524 . S
C705 C702 1.403 . S
C705 C706 1.392 . S
C705 C709 1.495 . S
C706 C705 1.392 . S
C706 C707 1.385 . S
C706 C708 1.478 . S
C707 H701 0.930 . S
C707 C703 1.400 . S
C707 C706 1.385 . S
C708 C706 1.478 . S
C708 C710 1.381 . S
C708 C714 1.383 . S
C709 C705 1.495 . S
C709 H715 0.959 . S
C709 H716 0.961 . S
C709 H717 0.960 . S
C710 C708 1.381 . S
C710 C711 1.394 . S
C710 H718 0.930 . S
C711 C710 1.394 . S
C711 C712 1.383 . S
C711 H719 0.929 . S
C712 C711 1.383 . S
C712 C713 1.377 . S
C713 H697 0.930 . S
C713 C712 1.377 . S
C713 C714 1.379 . S
C714 H698 0.931 . S
C714 C708 1.383 . S
C714 C713 1.379 . S
H715 C709 0.959 . S
H716 C709 0.961 . S
H717 C709 0.960 . S
H718 C710 0.930 . S
H719 C711 0.929 . S
H720 C728 0.929 . S
H721 C730 0.930 . S
H722 C732 0.930 . S
H723 C735 0.929 . S
H724 C738 0.930 . S
H725 C740 0.960 . S
H726 C740 0.960 . S
H727 C740 0.960 . S
C728 H720 0.929 . S
C728 C729 1.377 . S
C728 C730 1.384 . S
C729 C728 1.377 . S
C729 C735 1.390 . S
C730 H721 0.930 . S
C730 C728 1.384 . S
C730 C731 1.372 . S
C731 C730 1.372 . S
C731 C732 1.400 . S
C731 C736 1.490 . S
C732 H722 0.930 . S
C732 C731 1.400 . S
C732 C735 1.386 . S
H733 C749 0.930 . S
H734 C750 0.931 . S
C735 H723 0.929 . S
C735 C729 1.390 . S
C735 C732 1.386 . S
C736 C731 1.490 . S
C736 C738 1.395 . S
C736 C739 1.403 . S
H737 C743 0.930 . S
C738 H724 0.930 . S
C738 C736 1.395 . S
C738 C741 1.403 . S
C739 C736 1.403 . S
C739 C740 1.524 . S
C739 C743 1.400 . S
C740 H725 0.960 . S
C740 H726 0.960 . S
C740 H727 0.960 . S
C740 C739 1.524 . S
C741 C738 1.403 . S
C741 C742 1.392 . S
C741 C745 1.495 . S
C742 C741 1.392 . S
C742 C743 1.385 . S
C742 C744 1.478 . S
C743 H737 0.930 . S
C743 C739 1.400 . S
C743 C742 1.385 . S
C744 C742 1.478 . S
C744 C746 1.381 . S
C744 C750 1.383 . S
C745 C741 1.495 . S
C745 H751 0.959 . S
C745 H752 0.961 . S
C745 H753 0.960 . S
C746 C744 1.381 . S
C746 C747 1.394 . S
C746 H754 0.930 . S
C747 C746 1.394 . S
C747 C748 1.383 . S
C747 H755 0.929 . S
C748 C747 1.383 . S
C748 C749 1.377 . S
C749 H733 0.930 . S
C749 C748 1.377 . S
C749 C750 1.379 . S
C750 H734 0.931 . S
C750 C744 1.383 . S
C750 C749 1.379 . S
H751 C745 0.959 . S
H752 C745 0.961 . S
H753 C745 0.960 . S
H754 C746 0.930 . S
H755 C747 0.929 . S
H756 C764 0.929 . S
H757 C766 0.930 . S
H758 C768 0.930 . S
H759 C771 0.929 . S
H760 C774 0.930 . S
H761 C776 0.960 . S
H762 C776 0.960 . S
H763 C776 0.960 . S
C764 H756 0.929 . S
C764 C765 1.377 . S
C764 C766 1.384 . S
C765 C764 1.377 . S
C765 C771 1.390 . S
C766 H757 0.930 . S
C766 C764 1.384 . S
C766 C767 1.372 . S
C767 C766 1.372 . S
C767 C768 1.400 . S
C767 C772 1.490 . S
C768 H758 0.930 . S
C768 C767 1.400 . S
C768 C771 1.386 . S
H769 C785 0.930 . S
H770 C786 0.931 . S
C771 H759 0.929 . S
C771 C765 1.390 . S
C771 C768 1.386 . S
C772 C767 1.490 . S
C772 C774 1.395 . S
C772 C775 1.403 . S
H773 C779 0.930 . S
C774 H760 0.930 . S
C774 C772 1.395 . S
C774 C777 1.403 . S
C775 C772 1.403 . S
C775 C776 1.524 . S
C775 C779 1.400 . S
C776 H761 0.960 . S
C776 H762 0.960 . S
C776 H763 0.960 . S
C776 C775 1.524 . S
C777 C774 1.403 . S
C777 C778 1.392 . S
C777 C781 1.495 . S
C778 C777 1.392 . S
C778 C779 1.385 . S
C778 C780 1.478 . S
C779 H773 0.930 . S
C779 C775 1.400 . S
C779 C778 1.385 . S
C780 C778 1.478 . S
C780 C782 1.381 . S
C780 C786 1.383 . S
C781 C777 1.495 . S
C781 H787 0.959 . S
C781 H788 0.961 . S
C781 H789 0.960 . S
C782 C780 1.381 . S
C782 C783 1.394 . S
C782 H790 0.930 . S
C783 C782 1.394 . S
C783 C784 1.383 . S
C783 H791 0.929 . S
C784 C783 1.383 . S
C784 C785 1.377 . S
C785 H769 0.930 . S
C785 C784 1.377 . S
C785 C786 1.379 . S
C786 H770 0.931 . S
C786 C780 1.383 . S
C786 C785 1.379 . S
H787 C781 0.959 . S
H788 C781 0.961 . S
H789 C781 0.960 . S
H790 C782 0.930 . S
H791 C783 0.929 . S
H792 C800 0.929 . S
H793 C802 0.930 . S
H794 C804 0.930 . S
H795 C807 0.929 . S
H796 C810 0.930 . S
H797 C812 0.960 . S
H798 C812 0.960 . S
H799 C812 0.960 . S
C800 H792 0.929 . S
C800 C801 1.377 . S
C800 C802 1.384 . S
C801 C800 1.377 . S
C801 C807 1.390 . S
C802 H793 0.930 . S
C802 C800 1.384 . S
C802 C803 1.372 . S
C803 C802 1.372 . S
C803 C804 1.400 . S
C803 C808 1.490 . S
C804 H794 0.930 . S
C804 C803 1.400 . S
C804 C807 1.386 . S
H805 C821 0.930 . S
H806 C822 0.931 . S
C807 H795 0.929 . S
C807 C801 1.390 . S
C807 C804 1.386 . S
C808 C803 1.490 . S
C808 C810 1.395 . S
C808 C811 1.403 . S
H809 C815 0.930 . S
C810 H796 0.930 . S
C810 C808 1.395 . S
C810 C813 1.403 . S
C811 C808 1.403 . S
C811 C812 1.524 . S
C811 C815 1.400 . S
C812 H797 0.960 . S
C812 H798 0.960 . S
C812 H799 0.960 . S
C812 C811 1.524 . S
C813 C810 1.403 . S
C813 C814 1.392 . S
C813 C817 1.495 . S
C814 C813 1.392 . S
C814 C815 1.385 . S
C814 C816 1.478 . S
C815 H809 0.930 . S
C815 C811 1.400 . S
C815 C814 1.385 . S
C816 C814 1.478 . S
C816 C818 1.381 . S
C816 C822 1.383 . S
C817 C813 1.495 . S
C817 H823 0.959 . S
C817 H824 0.961 . S
C817 H825 0.960 . S
C818 C816 1.381 . S
C818 C819 1.394 . S
C818 H826 0.930 . S
C819 C818 1.394 . S
C819 C820 1.383 . S
C819 H827 0.929 . S
C820 C819 1.383 . S
C820 C821 1.377 . S
C821 H805 0.930 . S
C821 C820 1.377 . S
C821 C822 1.379 . S
C822 H806 0.931 . S
C822 C816 1.383 . S
C822 C821 1.379 . S
H823 C817 0.959 . S
H824 C817 0.961 . S
H825 C817 0.960 . S
H826 C818 0.930 . S
H827 C819 0.929 . S
H828 C836 0.929 . S
H829 C838 0.930 . S
H830 C840 0.930 . S
H831 C843 0.929 . S
H832 C846 0.930 . S
H833 C848 0.960 . S
H834 C848 0.960 . S
H835 C848 0.960 . S
C836 H828 0.929 . S
C836 C837 1.377 . S
C836 C838 1.384 . S
C837 C836 1.377 . S
C837 C843 1.390 . S
C838 H829 0.930 . S
C838 C836 1.384 . S
C838 C839 1.372 . S
C839 C838 1.372 . S
C839 C840 1.400 . S
C839 C844 1.490 . S
C840 H830 0.930 . S
C840 C839 1.400 . S
C840 C843 1.386 . S
H841 C857 0.930 . S
H842 C858 0.931 . S
C843 H831 0.929 . S
C843 C837 1.390 . S
C843 C840 1.386 . S
C844 C839 1.490 . S
C844 C846 1.395 . S
C844 C847 1.403 . S
H845 C851 0.930 . S
C846 H832 0.930 . S
C846 C844 1.395 . S
C846 C849 1.403 . S
C847 C844 1.403 . S
C847 C848 1.524 . S
C847 C851 1.400 . S
C848 H833 0.960 . S
C848 H834 0.960 . S
C848 H835 0.960 . S
C848 C847 1.524 . S
C849 C846 1.403 . S
C849 C850 1.392 . S
C849 C853 1.495 . S
C850 C849 1.392 . S
C850 C851 1.385 . S
C850 C852 1.478 . S
C851 H845 0.930 . S
C851 C847 1.400 . S
C851 C850 1.385 . S
C852 C850 1.478 . S
C852 C854 1.381 . S
C852 C858 1.383 . S
C853 C849 1.495 . S
C853 H859 0.959 . S
C853 H860 0.961 . S
C853 H861 0.960 . S
C854 C852 1.381 . S
C854 C855 1.394 . S
C854 H862 0.930 . S
C855 C854 1.394 . S
C855 C856 1.383 . S
C855 H863 0.929 . S
C856 C855 1.383 . S
C856 C857 1.377 . S
C857 H841 0.930 . S
C857 C856 1.377 . S
C857 C858 1.379 . S
C858 H842 0.931 . S
C858 C852 1.383 . S
C858 C857 1.379 . S
H859 C853 0.959 . S
H860 C853 0.961 . S
H861 C853 0.960 . S
H862 C854 0.930 . S
H863 C855 0.929 . S
C297 C3 1.493 . S
C316 C111 1.487 . S
C333 C2 1.492 . S
C352 C38 1.478 1_554 S
C369 C39 1.491 . S
C388 C75 1.497 . S
C405 C110 1.489 1_554 S
C424 C74 1.495 . S
C441 C147 1.490 . S
C460 C255 1.494 . S
C477 C182 1.492 . S
C496 C146 1.479 . S
C513 C219 1.491 . S
C532 C183 1.496 . S
C549 C254 1.493 . S
C568 C218 1.484 . S
C585 C230 1.399 . S
C604 C4 1.455 . S
C621 C50 1.397 . S
C640 C256 1.458 . S
C657 C158 1.394 . S
C676 C76 1.457 . S
C693 C184 1.458 . S
C712 C122 1.418 . S
C729 C194 1.388 . S
C748 C112 1.450 . S
C765 C14 1.387 . S
C784 C220 1.451 . S
C801 C40 1.456 . S
C820 C266 1.368 . S
C837 C86 1.397 . S
C856 C148 1.454 . S
