# Generated by pormake.
# Topology ukx, (4)-cn, num edge types: 1
# Building blocks:
#     Node 0, Type 0, BuildingBlock: GALJAG_clean_sbu_0, # of connection points: 4
#     Node 1, Type 0, BuildingBlock: GALJAG_clean_sbu_0, # of connection points: 4
#     Node 2, Type 0, BuildingBlock: GALJAG_clean_sbu_0, # of connection points: 4
#     Node 3, Type 0, BuildingBlock: GALJAG_clean_sbu_0, # of connection points: 4
#     Node 4, Type 0, BuildingBlock: GALJAG_clean_sbu_0, # of connection points: 4
#     Node 5, Type 0, BuildingBlock: GALJAG_clean_sbu_0, # of connection points: 4
#     Node 6, Type 0, BuildingBlock: GALJAG_clean_sbu_0, # of connection points: 4
#     Node 7, Type 0, BuildingBlock: GALJAG_clean_sbu_0, # of connection points: 4
#     Node 8, Type 0, BuildingBlock: GALJAG_clean_sbu_0, # of connection points: 4
#     Node 9, Type 0, BuildingBlock: GALJAG_clean_sbu_0, # of connection points: 4
#     Node 10, Type 0, BuildingBlock: GALJAG_clean_sbu_0, # of connection points: 4
#     Node 11, Type 0, BuildingBlock: GALJAG_clean_sbu_0, # of connection points: 4
#     Node 12, Type 0, BuildingBlock: GALJAG_clean_sbu_0, # of connection points: 4
#     Node 13, Type 0, BuildingBlock: GALJAG_clean_sbu_0, # of connection points: 4
#     Node 14, Type 0, BuildingBlock: GALJAG_clean_sbu_0, # of connection points: 4
#     Node 15, Type 0, BuildingBlock: GALJAG_clean_sbu_0, # of connection points: 4
#     Node 16, Type 0, BuildingBlock: GALJAG_clean_sbu_0, # of connection points: 4
#     Node 17, Type 0, BuildingBlock: GALJAG_clean_sbu_0, # of connection points: 4
#     Node 18, Type 0, BuildingBlock: GALJAG_clean_sbu_0, # of connection points: 4
#     Node 19, Type 0, BuildingBlock: GALJAG_clean_sbu_0, # of connection points: 4
#     Node 20, Type 0, BuildingBlock: GALJAG_clean_sbu_0, # of connection points: 4
#     Node 21, Type 0, BuildingBlock: GALJAG_clean_sbu_0, # of connection points: 4
#     Node 22, Type 0, BuildingBlock: GALJAG_clean_sbu_0, # of connection points: 4
#     Node 23, Type 0, BuildingBlock: GALJAG_clean_sbu_0, # of connection points: 4
#     Node 24, Type 0, BuildingBlock: GALJAG_clean_sbu_0, # of connection points: 4
#     Node 25, Type 0, BuildingBlock: GALJAG_clean_sbu_0, # of connection points: 4
#     Node 26, Type 0, BuildingBlock: GALJAG_clean_sbu_0, # of connection points: 4
#     Node 27, Type 0, BuildingBlock: GALJAG_clean_sbu_0, # of connection points: 4
#     Node 28, Type 0, BuildingBlock: GALJAG_clean_sbu_0, # of connection points: 4
#     Node 29, Type 0, BuildingBlock: GALJAG_clean_sbu_0, # of connection points: 4
#     Node 30, Type 0, BuildingBlock: GALJAG_clean_sbu_0, # of connection points: 4
#     Node 31, Type 0, BuildingBlock: GALJAG_clean_sbu_0, # of connection points: 4
#     Node 32, Type 0, BuildingBlock: GALJAG_clean_sbu_0, # of connection points: 4
#     Node 33, Type 0, BuildingBlock: GALJAG_clean_sbu_0, # of connection points: 4
#     Node 34, Type 0, BuildingBlock: GALJAG_clean_sbu_0, # of connection points: 4
#     Node 35, Type 0, BuildingBlock: GALJAG_clean_sbu_0, # of connection points: 4
#     Node 36, Type 0, BuildingBlock: GALJAG_clean_sbu_0, # of connection points: 4
#     Node 37, Type 0, BuildingBlock: GALJAG_clean_sbu_0, # of connection points: 4
#     Node 38, Type 0, BuildingBlock: GALJAG_clean_sbu_0, # of connection points: 4
#     Node 39, Type 0, BuildingBlock: GALJAG_clean_sbu_0, # of connection points: 4
#     Node 40, Type 0, BuildingBlock: GALJAG_clean_sbu_0, # of connection points: 4
#     Node 41, Type 0, BuildingBlock: GALJAG_clean_sbu_0, # of connection points: 4
#     Node 42, Type 0, BuildingBlock: GALJAG_clean_sbu_0, # of connection points: 4
#     Node 43, Type 0, BuildingBlock: GALJAG_clean_sbu_0, # of connection points: 4
#     Node 44, Type 0, BuildingBlock: GALJAG_clean_sbu_0, # of connection points: 4
#     Node 45, Type 0, BuildingBlock: GALJAG_clean_sbu_0, # of connection points: 4
#     Node 46, Type 0, BuildingBlock: GALJAG_clean_sbu_0, # of connection points: 4
#     Node 47, Type 0, BuildingBlock: GALJAG_clean_sbu_0, # of connection points: 4
#     Node 48, Type 0, BuildingBlock: GALJAG_clean_sbu_0, # of connection points: 4
#     Node 49, Type 0, BuildingBlock: GALJAG_clean_sbu_0, # of connection points: 4
#     Node 50, Type 0, BuildingBlock: GALJAG_clean_sbu_0, # of connection points: 4
#     Node 51, Type 0, BuildingBlock: GALJAG_clean_sbu_0, # of connection points: 4
#     Node 52, Type 0, BuildingBlock: GALJAG_clean_sbu_0, # of connection points: 4
#     Node 53, Type 0, BuildingBlock: GALJAG_clean_sbu_0, # of connection points: 4
#     Node 54, Type 0, BuildingBlock: GALJAG_clean_sbu_0, # of connection points: 4
#     Node 55, Type 0, BuildingBlock: GALJAG_clean_sbu_0, # of connection points: 4
#     Node 56, Type 0, BuildingBlock: GALJAG_clean_sbu_0, # of connection points: 4
#     Node 57, Type 0, BuildingBlock: GALJAG_clean_sbu_0, # of connection points: 4
#     Node 58, Type 0, BuildingBlock: GALJAG_clean_sbu_0, # of connection points: 4
#     Node 59, Type 0, BuildingBlock: GALJAG_clean_sbu_0, # of connection points: 4
#     Node 60, Type 0, BuildingBlock: GALJAG_clean_sbu_0, # of connection points: 4
#     Node 61, Type 0, BuildingBlock: GALJAG_clean_sbu_0, # of connection points: 4
#     Node 62, Type 0, BuildingBlock: GALJAG_clean_sbu_0, # of connection points: 4
#     Node 63, Type 0, BuildingBlock: GALJAG_clean_sbu_0, # of connection points: 4
#     Node 64, Type 0, BuildingBlock: GALJAG_clean_sbu_0, # of connection points: 4
#     Node 65, Type 0, BuildingBlock: GALJAG_clean_sbu_0, # of connection points: 4
#     Node 66, Type 0, BuildingBlock: GALJAG_clean_sbu_0, # of connection points: 4
#     Node 67, Type 0, BuildingBlock: GALJAG_clean_sbu_0, # of connection points: 4
#     Node 68, Type 0, BuildingBlock: GALJAG_clean_sbu_0, # of connection points: 4
#     Node 69, Type 0, BuildingBlock: GALJAG_clean_sbu_0, # of connection points: 4
#     Node 70, Type 0, BuildingBlock: GALJAG_clean_sbu_0, # of connection points: 4
#     Node 71, Type 0, BuildingBlock: GALJAG_clean_sbu_0, # of connection points: 4
#     Node 72, Type 0, BuildingBlock: GALJAG_clean_sbu_0, # of connection points: 4
#     Node 73, Type 0, BuildingBlock: GALJAG_clean_sbu_0, # of connection points: 4
#     Node 74, Type 0, BuildingBlock: GALJAG_clean_sbu_0, # of connection points: 4
#     Node 75, Type 0, BuildingBlock: GALJAG_clean_sbu_0, # of connection points: 4
#     Node 76, Type 0, BuildingBlock: GALJAG_clean_sbu_0, # of connection points: 4
#     Node 77, Type 0, BuildingBlock: GALJAG_clean_sbu_0, # of connection points: 4
#     Node 78, Type 0, BuildingBlock: GALJAG_clean_sbu_0, # of connection points: 4
#     Node 79, Type 0, BuildingBlock: GALJAG_clean_sbu_0, # of connection points: 4
#     Node 80, Type 0, BuildingBlock: GALJAG_clean_sbu_0, # of connection points: 4
#     Node 81, Type 0, BuildingBlock: GALJAG_clean_sbu_0, # of connection points: 4
#     Node 82, Type 0, BuildingBlock: GALJAG_clean_sbu_0, # of connection points: 4
#     Node 83, Type 0, BuildingBlock: GALJAG_clean_sbu_0, # of connection points: 4
#     Node 84, Type 0, BuildingBlock: GALJAG_clean_sbu_0, # of connection points: 4
#     Node 85, Type 0, BuildingBlock: GALJAG_clean_sbu_0, # of connection points: 4
#     Node 86, Type 0, BuildingBlock: GALJAG_clean_sbu_0, # of connection points: 4
#     Node 87, Type 0, BuildingBlock: GALJAG_clean_sbu_0, # of connection points: 4
#     Node 88, Type 0, BuildingBlock: GALJAG_clean_sbu_0, # of connection points: 4
#     Node 89, Type 0, BuildingBlock: GALJAG_clean_sbu_0, # of connection points: 4
#     Node 90, Type 0, BuildingBlock: GALJAG_clean_sbu_0, # of connection points: 4
#     Node 91, Type 0, BuildingBlock: GALJAG_clean_sbu_0, # of connection points: 4
#     Node 92, Type 0, BuildingBlock: GALJAG_clean_sbu_0, # of connection points: 4
#     Node 93, Type 0, BuildingBlock: GALJAG_clean_sbu_0, # of connection points: 4
#     Node 94, Type 0, BuildingBlock: GALJAG_clean_sbu_0, # of connection points: 4
#     Node 95, Type 0, BuildingBlock: GALJAG_clean_sbu_0, # of connection points: 4
#     Edge 96, Type (0, 0), BuildingBlock: OJICUG_clean_linker_0, # of connection points: 2
#     Edge 97, Type (0, 0), BuildingBlock: OJICUG_clean_linker_0, # of connection points: 2
#     Edge 98, Type (0, 0), BuildingBlock: OJICUG_clean_linker_0, # of connection points: 2
#     Edge 99, Type (0, 0), BuildingBlock: OJICUG_clean_linker_0, # of connection points: 2
#     Edge 100, Type (0, 0), BuildingBlock: OJICUG_clean_linker_0, # of connection points: 2
#     Edge 101, Type (0, 0), BuildingBlock: OJICUG_clean_linker_0, # of connection points: 2
#     Edge 102, Type (0, 0), BuildingBlock: OJICUG_clean_linker_0, # of connection points: 2
#     Edge 103, Type (0, 0), BuildingBlock: OJICUG_clean_linker_0, # of connection points: 2
#     Edge 104, Type (0, 0), BuildingBlock: OJICUG_clean_linker_0, # of connection points: 2
#     Edge 105, Type (0, 0), BuildingBlock: OJICUG_clean_linker_0, # of connection points: 2
#     Edge 106, Type (0, 0), BuildingBlock: OJICUG_clean_linker_0, # of connection points: 2
#     Edge 107, Type (0, 0), BuildingBlock: OJICUG_clean_linker_0, # of connection points: 2
#     Edge 108, Type (0, 0), BuildingBlock: OJICUG_clean_linker_0, # of connection points: 2
#     Edge 109, Type (0, 0), BuildingBlock: OJICUG_clean_linker_0, # of connection points: 2
#     Edge 110, Type (0, 0), BuildingBlock: OJICUG_clean_linker_0, # of connection points: 2
#     Edge 111, Type (0, 0), BuildingBlock: OJICUG_clean_linker_0, # of connection points: 2
#     Edge 112, Type (0, 0), BuildingBlock: OJICUG_clean_linker_0, # of connection points: 2
#     Edge 113, Type (0, 0), BuildingBlock: OJICUG_clean_linker_0, # of connection points: 2
#     Edge 114, Type (0, 0), BuildingBlock: OJICUG_clean_linker_0, # of connection points: 2
#     Edge 115, Type (0, 0), BuildingBlock: OJICUG_clean_linker_0, # of connection points: 2
#     Edge 116, Type (0, 0), BuildingBlock: OJICUG_clean_linker_0, # of connection points: 2
#     Edge 117, Type (0, 0), BuildingBlock: OJICUG_clean_linker_0, # of connection points: 2
#     Edge 118, Type (0, 0), BuildingBlock: OJICUG_clean_linker_0, # of connection points: 2
#     Edge 119, Type (0, 0), BuildingBlock: OJICUG_clean_linker_0, # of connection points: 2
#     Edge 120, Type (0, 0), BuildingBlock: OJICUG_clean_linker_0, # of connection points: 2
#     Edge 121, Type (0, 0), BuildingBlock: OJICUG_clean_linker_0, # of connection points: 2
#     Edge 122, Type (0, 0), BuildingBlock: OJICUG_clean_linker_0, # of connection points: 2
#     Edge 123, Type (0, 0), BuildingBlock: OJICUG_clean_linker_0, # of connection points: 2
#     Edge 124, Type (0, 0), BuildingBlock: OJICUG_clean_linker_0, # of connection points: 2
#     Edge 125, Type (0, 0), BuildingBlock: OJICUG_clean_linker_0, # of connection points: 2
#     Edge 126, Type (0, 0), BuildingBlock: OJICUG_clean_linker_0, # of connection points: 2
#     Edge 127, Type (0, 0), BuildingBlock: OJICUG_clean_linker_0, # of connection points: 2
#     Edge 128, Type (0, 0), BuildingBlock: OJICUG_clean_linker_0, # of connection points: 2
#     Edge 129, Type (0, 0), BuildingBlock: OJICUG_clean_linker_0, # of connection points: 2
#     Edge 130, Type (0, 0), BuildingBlock: OJICUG_clean_linker_0, # of connection points: 2
#     Edge 131, Type (0, 0), BuildingBlock: OJICUG_clean_linker_0, # of connection points: 2
#     Edge 132, Type (0, 0), BuildingBlock: OJICUG_clean_linker_0, # of connection points: 2
#     Edge 133, Type (0, 0), BuildingBlock: OJICUG_clean_linker_0, # of connection points: 2
#     Edge 134, Type (0, 0), BuildingBlock: OJICUG_clean_linker_0, # of connection points: 2
#     Edge 135, Type (0, 0), BuildingBlock: OJICUG_clean_linker_0, # of connection points: 2
#     Edge 136, Type (0, 0), BuildingBlock: OJICUG_clean_linker_0, # of connection points: 2
#     Edge 137, Type (0, 0), BuildingBlock: OJICUG_clean_linker_0, # of connection points: 2
#     Edge 138, Type (0, 0), BuildingBlock: OJICUG_clean_linker_0, # of connection points: 2
#     Edge 139, Type (0, 0), BuildingBlock: OJICUG_clean_linker_0, # of connection points: 2
#     Edge 140, Type (0, 0), BuildingBlock: OJICUG_clean_linker_0, # of connection points: 2
#     Edge 141, Type (0, 0), BuildingBlock: OJICUG_clean_linker_0, # of connection points: 2
#     Edge 142, Type (0, 0), BuildingBlock: OJICUG_clean_linker_0, # of connection points: 2
#     Edge 143, Type (0, 0), BuildingBlock: OJICUG_clean_linker_0, # of connection points: 2
#     Edge 144, Type (0, 0), BuildingBlock: OJICUG_clean_linker_0, # of connection points: 2
#     Edge 145, Type (0, 0), BuildingBlock: OJICUG_clean_linker_0, # of connection points: 2
#     Edge 146, Type (0, 0), BuildingBlock: OJICUG_clean_linker_0, # of connection points: 2
#     Edge 147, Type (0, 0), BuildingBlock: OJICUG_clean_linker_0, # of connection points: 2
#     Edge 148, Type (0, 0), BuildingBlock: OJICUG_clean_linker_0, # of connection points: 2
#     Edge 149, Type (0, 0), BuildingBlock: OJICUG_clean_linker_0, # of connection points: 2
#     Edge 150, Type (0, 0), BuildingBlock: OJICUG_clean_linker_0, # of connection points: 2
#     Edge 151, Type (0, 0), BuildingBlock: OJICUG_clean_linker_0, # of connection points: 2
#     Edge 152, Type (0, 0), BuildingBlock: OJICUG_clean_linker_0, # of connection points: 2
#     Edge 153, Type (0, 0), BuildingBlock: OJICUG_clean_linker_0, # of connection points: 2
#     Edge 154, Type (0, 0), BuildingBlock: OJICUG_clean_linker_0, # of connection points: 2
#     Edge 155, Type (0, 0), BuildingBlock: OJICUG_clean_linker_0, # of connection points: 2
#     Edge 156, Type (0, 0), BuildingBlock: OJICUG_clean_linker_0, # of connection points: 2
#     Edge 157, Type (0, 0), BuildingBlock: OJICUG_clean_linker_0, # of connection points: 2
#     Edge 158, Type (0, 0), BuildingBlock: OJICUG_clean_linker_0, # of connection points: 2
#     Edge 159, Type (0, 0), BuildingBlock: OJICUG_clean_linker_0, # of connection points: 2
#     Edge 160, Type (0, 0), BuildingBlock: OJICUG_clean_linker_0, # of connection points: 2
#     Edge 161, Type (0, 0), BuildingBlock: OJICUG_clean_linker_0, # of connection points: 2
#     Edge 162, Type (0, 0), BuildingBlock: OJICUG_clean_linker_0, # of connection points: 2
#     Edge 163, Type (0, 0), BuildingBlock: OJICUG_clean_linker_0, # of connection points: 2
#     Edge 164, Type (0, 0), BuildingBlock: OJICUG_clean_linker_0, # of connection points: 2
#     Edge 165, Type (0, 0), BuildingBlock: OJICUG_clean_linker_0, # of connection points: 2
#     Edge 166, Type (0, 0), BuildingBlock: OJICUG_clean_linker_0, # of connection points: 2
#     Edge 167, Type (0, 0), BuildingBlock: OJICUG_clean_linker_0, # of connection points: 2
#     Edge 168, Type (0, 0), BuildingBlock: OJICUG_clean_linker_0, # of connection points: 2
#     Edge 169, Type (0, 0), BuildingBlock: OJICUG_clean_linker_0, # of connection points: 2
#     Edge 170, Type (0, 0), BuildingBlock: OJICUG_clean_linker_0, # of connection points: 2
#     Edge 171, Type (0, 0), BuildingBlock: OJICUG_clean_linker_0, # of connection points: 2
#     Edge 172, Type (0, 0), BuildingBlock: OJICUG_clean_linker_0, # of connection points: 2
#     Edge 173, Type (0, 0), BuildingBlock: OJICUG_clean_linker_0, # of connection points: 2
#     Edge 174, Type (0, 0), BuildingBlock: OJICUG_clean_linker_0, # of connection points: 2
#     Edge 175, Type (0, 0), BuildingBlock: OJICUG_clean_linker_0, # of connection points: 2
#     Edge 176, Type (0, 0), BuildingBlock: OJICUG_clean_linker_0, # of connection points: 2
#     Edge 177, Type (0, 0), BuildingBlock: OJICUG_clean_linker_0, # of connection points: 2
#     Edge 178, Type (0, 0), BuildingBlock: OJICUG_clean_linker_0, # of connection points: 2
#     Edge 179, Type (0, 0), BuildingBlock: OJICUG_clean_linker_0, # of connection points: 2
#     Edge 180, Type (0, 0), BuildingBlock: OJICUG_clean_linker_0, # of connection points: 2
#     Edge 181, Type (0, 0), BuildingBlock: OJICUG_clean_linker_0, # of connection points: 2
#     Edge 182, Type (0, 0), BuildingBlock: OJICUG_clean_linker_0, # of connection points: 2
#     Edge 183, Type (0, 0), BuildingBlock: OJICUG_clean_linker_0, # of connection points: 2
#     Edge 184, Type (0, 0), BuildingBlock: OJICUG_clean_linker_0, # of connection points: 2
#     Edge 185, Type (0, 0), BuildingBlock: OJICUG_clean_linker_0, # of connection points: 2
#     Edge 186, Type (0, 0), BuildingBlock: OJICUG_clean_linker_0, # of connection points: 2
#     Edge 187, Type (0, 0), BuildingBlock: OJICUG_clean_linker_0, # of connection points: 2
#     Edge 188, Type (0, 0), BuildingBlock: OJICUG_clean_linker_0, # of connection points: 2
#     Edge 189, Type (0, 0), BuildingBlock: OJICUG_clean_linker_0, # of connection points: 2
#     Edge 190, Type (0, 0), BuildingBlock: OJICUG_clean_linker_0, # of connection points: 2
#     Edge 191, Type (0, 0), BuildingBlock: OJICUG_clean_linker_0, # of connection points: 2
#     Edge 192, Type (0, 0), BuildingBlock: OJICUG_clean_linker_0, # of connection points: 2
#     Edge 193, Type (0, 0), BuildingBlock: OJICUG_clean_linker_0, # of connection points: 2
#     Edge 194, Type (0, 0), BuildingBlock: OJICUG_clean_linker_0, # of connection points: 2
#     Edge 195, Type (0, 0), BuildingBlock: OJICUG_clean_linker_0, # of connection points: 2
#     Edge 196, Type (0, 0), BuildingBlock: OJICUG_clean_linker_0, # of connection points: 2
#     Edge 197, Type (0, 0), BuildingBlock: OJICUG_clean_linker_0, # of connection points: 2
#     Edge 198, Type (0, 0), BuildingBlock: OJICUG_clean_linker_0, # of connection points: 2
#     Edge 199, Type (0, 0), BuildingBlock: OJICUG_clean_linker_0, # of connection points: 2
#     Edge 200, Type (0, 0), BuildingBlock: OJICUG_clean_linker_0, # of connection points: 2
#     Edge 201, Type (0, 0), BuildingBlock: OJICUG_clean_linker_0, # of connection points: 2
#     Edge 202, Type (0, 0), BuildingBlock: OJICUG_clean_linker_0, # of connection points: 2
#     Edge 203, Type (0, 0), BuildingBlock: OJICUG_clean_linker_0, # of connection points: 2
#     Edge 204, Type (0, 0), BuildingBlock: OJICUG_clean_linker_0, # of connection points: 2
#     Edge 205, Type (0, 0), BuildingBlock: OJICUG_clean_linker_0, # of connection points: 2
#     Edge 206, Type (0, 0), BuildingBlock: OJICUG_clean_linker_0, # of connection points: 2
#     Edge 207, Type (0, 0), BuildingBlock: OJICUG_clean_linker_0, # of connection points: 2
#     Edge 208, Type (0, 0), BuildingBlock: OJICUG_clean_linker_0, # of connection points: 2
#     Edge 209, Type (0, 0), BuildingBlock: OJICUG_clean_linker_0, # of connection points: 2
#     Edge 210, Type (0, 0), BuildingBlock: OJICUG_clean_linker_0, # of connection points: 2
#     Edge 211, Type (0, 0), BuildingBlock: OJICUG_clean_linker_0, # of connection points: 2
#     Edge 212, Type (0, 0), BuildingBlock: OJICUG_clean_linker_0, # of connection points: 2
#     Edge 213, Type (0, 0), BuildingBlock: OJICUG_clean_linker_0, # of connection points: 2
#     Edge 214, Type (0, 0), BuildingBlock: OJICUG_clean_linker_0, # of connection points: 2
#     Edge 215, Type (0, 0), BuildingBlock: OJICUG_clean_linker_0, # of connection points: 2
#     Edge 216, Type (0, 0), BuildingBlock: OJICUG_clean_linker_0, # of connection points: 2
#     Edge 217, Type (0, 0), BuildingBlock: OJICUG_clean_linker_0, # of connection points: 2
#     Edge 218, Type (0, 0), BuildingBlock: OJICUG_clean_linker_0, # of connection points: 2
#     Edge 219, Type (0, 0), BuildingBlock: OJICUG_clean_linker_0, # of connection points: 2
#     Edge 220, Type (0, 0), BuildingBlock: OJICUG_clean_linker_0, # of connection points: 2
#     Edge 221, Type (0, 0), BuildingBlock: OJICUG_clean_linker_0, # of connection points: 2
#     Edge 222, Type (0, 0), BuildingBlock: OJICUG_clean_linker_0, # of connection points: 2
#     Edge 223, Type (0, 0), BuildingBlock: OJICUG_clean_linker_0, # of connection points: 2
#     Edge 224, Type (0, 0), BuildingBlock: OJICUG_clean_linker_0, # of connection points: 2
#     Edge 225, Type (0, 0), BuildingBlock: OJICUG_clean_linker_0, # of connection points: 2
#     Edge 226, Type (0, 0), BuildingBlock: OJICUG_clean_linker_0, # of connection points: 2
#     Edge 227, Type (0, 0), BuildingBlock: OJICUG_clean_linker_0, # of connection points: 2
#     Edge 228, Type (0, 0), BuildingBlock: OJICUG_clean_linker_0, # of connection points: 2
#     Edge 229, Type (0, 0), BuildingBlock: OJICUG_clean_linker_0, # of connection points: 2
#     Edge 230, Type (0, 0), BuildingBlock: OJICUG_clean_linker_0, # of connection points: 2
#     Edge 231, Type (0, 0), BuildingBlock: OJICUG_clean_linker_0, # of connection points: 2
#     Edge 232, Type (0, 0), BuildingBlock: OJICUG_clean_linker_0, # of connection points: 2
#     Edge 233, Type (0, 0), BuildingBlock: OJICUG_clean_linker_0, # of connection points: 2
#     Edge 234, Type (0, 0), BuildingBlock: OJICUG_clean_linker_0, # of connection points: 2
#     Edge 235, Type (0, 0), BuildingBlock: OJICUG_clean_linker_0, # of connection points: 2
#     Edge 236, Type (0, 0), BuildingBlock: OJICUG_clean_linker_0, # of connection points: 2
#     Edge 237, Type (0, 0), BuildingBlock: OJICUG_clean_linker_0, # of connection points: 2
#     Edge 238, Type (0, 0), BuildingBlock: OJICUG_clean_linker_0, # of connection points: 2
#     Edge 239, Type (0, 0), BuildingBlock: OJICUG_clean_linker_0, # of connection points: 2
#     Edge 240, Type (0, 0), BuildingBlock: OJICUG_clean_linker_0, # of connection points: 2
#     Edge 241, Type (0, 0), BuildingBlock: OJICUG_clean_linker_0, # of connection points: 2
#     Edge 242, Type (0, 0), BuildingBlock: OJICUG_clean_linker_0, # of connection points: 2
#     Edge 243, Type (0, 0), BuildingBlock: OJICUG_clean_linker_0, # of connection points: 2
#     Edge 244, Type (0, 0), BuildingBlock: OJICUG_clean_linker_0, # of connection points: 2
#     Edge 245, Type (0, 0), BuildingBlock: OJICUG_clean_linker_0, # of connection points: 2
#     Edge 246, Type (0, 0), BuildingBlock: OJICUG_clean_linker_0, # of connection points: 2
#     Edge 247, Type (0, 0), BuildingBlock: OJICUG_clean_linker_0, # of connection points: 2
#     Edge 248, Type (0, 0), BuildingBlock: OJICUG_clean_linker_0, # of connection points: 2
#     Edge 249, Type (0, 0), BuildingBlock: OJICUG_clean_linker_0, # of connection points: 2
#     Edge 250, Type (0, 0), BuildingBlock: OJICUG_clean_linker_0, # of connection points: 2
#     Edge 251, Type (0, 0), BuildingBlock: OJICUG_clean_linker_0, # of connection points: 2
#     Edge 252, Type (0, 0), BuildingBlock: OJICUG_clean_linker_0, # of connection points: 2
#     Edge 253, Type (0, 0), BuildingBlock: OJICUG_clean_linker_0, # of connection points: 2
#     Edge 254, Type (0, 0), BuildingBlock: OJICUG_clean_linker_0, # of connection points: 2
#     Edge 255, Type (0, 0), BuildingBlock: OJICUG_clean_linker_0, # of connection points: 2
#     Edge 256, Type (0, 0), BuildingBlock: OJICUG_clean_linker_0, # of connection points: 2
#     Edge 257, Type (0, 0), BuildingBlock: OJICUG_clean_linker_0, # of connection points: 2
#     Edge 258, Type (0, 0), BuildingBlock: OJICUG_clean_linker_0, # of connection points: 2
#     Edge 259, Type (0, 0), BuildingBlock: OJICUG_clean_linker_0, # of connection points: 2
#     Edge 260, Type (0, 0), BuildingBlock: OJICUG_clean_linker_0, # of connection points: 2
#     Edge 261, Type (0, 0), BuildingBlock: OJICUG_clean_linker_0, # of connection points: 2
#     Edge 262, Type (0, 0), BuildingBlock: OJICUG_clean_linker_0, # of connection points: 2
#     Edge 263, Type (0, 0), BuildingBlock: OJICUG_clean_linker_0, # of connection points: 2
#     Edge 264, Type (0, 0), BuildingBlock: OJICUG_clean_linker_0, # of connection points: 2
#     Edge 265, Type (0, 0), BuildingBlock: OJICUG_clean_linker_0, # of connection points: 2
#     Edge 266, Type (0, 0), BuildingBlock: OJICUG_clean_linker_0, # of connection points: 2
#     Edge 267, Type (0, 0), BuildingBlock: OJICUG_clean_linker_0, # of connection points: 2
#     Edge 268, Type (0, 0), BuildingBlock: OJICUG_clean_linker_0, # of connection points: 2
#     Edge 269, Type (0, 0), BuildingBlock: OJICUG_clean_linker_0, # of connection points: 2
#     Edge 270, Type (0, 0), BuildingBlock: OJICUG_clean_linker_0, # of connection points: 2
#     Edge 271, Type (0, 0), BuildingBlock: OJICUG_clean_linker_0, # of connection points: 2
#     Edge 272, Type (0, 0), BuildingBlock: OJICUG_clean_linker_0, # of connection points: 2
#     Edge 273, Type (0, 0), BuildingBlock: OJICUG_clean_linker_0, # of connection points: 2
#     Edge 274, Type (0, 0), BuildingBlock: OJICUG_clean_linker_0, # of connection points: 2
#     Edge 275, Type (0, 0), BuildingBlock: OJICUG_clean_linker_0, # of connection points: 2
#     Edge 276, Type (0, 0), BuildingBlock: OJICUG_clean_linker_0, # of connection points: 2
#     Edge 277, Type (0, 0), BuildingBlock: OJICUG_clean_linker_0, # of connection points: 2
#     Edge 278, Type (0, 0), BuildingBlock: OJICUG_clean_linker_0, # of connection points: 2
#     Edge 279, Type (0, 0), BuildingBlock: OJICUG_clean_linker_0, # of connection points: 2
#     Edge 280, Type (0, 0), BuildingBlock: OJICUG_clean_linker_0, # of connection points: 2
#     Edge 281, Type (0, 0), BuildingBlock: OJICUG_clean_linker_0, # of connection points: 2
#     Edge 282, Type (0, 0), BuildingBlock: OJICUG_clean_linker_0, # of connection points: 2
#     Edge 283, Type (0, 0), BuildingBlock: OJICUG_clean_linker_0, # of connection points: 2
#     Edge 284, Type (0, 0), BuildingBlock: OJICUG_clean_linker_0, # of connection points: 2
#     Edge 285, Type (0, 0), BuildingBlock: OJICUG_clean_linker_0, # of connection points: 2
#     Edge 286, Type (0, 0), BuildingBlock: OJICUG_clean_linker_0, # of connection points: 2
#     Edge 287, Type (0, 0), BuildingBlock: OJICUG_clean_linker_0, # of connection points: 2
# Relax obj value: 0.225
# Max RMSD: 0.135
# Mean RMSD: 0.135
data_MOF--net-ukx--node1-GALJAG_clean_sbu_0--edge1-OJICUG_clean_linker_0
_symmetry_space_group_name_H-M    P1
_symmetry_Int_Tables_number       1
_symmetry_cell_setting            triclinic
loop_
_symmetry_equiv_pos_as_xyz
'x, y, z'
_cell_length_a     58.190346
_cell_length_b     58.155069
_cell_length_c     58.144821
_cell_angle_alpha  89.989382
_cell_angle_beta   89.98758
_cell_angle_gamma 89.988408
loop_
_atom_site_label
_atom_site_type_symbol
_atom_site_fract_x
_atom_site_fract_y
_atom_site_fract_z
_atom_type_partial_charge
In0 In 0.04824 0.15259 0.32223 0.0
O1 O 0.06318 0.11975 0.33673 0.0
O2 O 0.08248 0.1381 0.31132 0.0
C3 C 0.00996 0.16042 0.34702 0.0
C4 C 0.07345 0.18806 0.33787 0.0
C5 C 0.02977 0.13953 0.28204 0.0
O6 O 0.02435 0.14525 0.35293 0.0
O7 O 0.01483 0.17102 0.32875 0.0
O8 O 0.03764 0.15963 0.28498 0.0
O9 O 0.03167 0.12627 0.29911 0.0
C10 C 0.08145 0.12118 0.32496 0.0
O11 O 0.06495 0.18831 0.3178 0.0
O12 O 0.06918 0.17022 0.3494 0.0
In13 In 0.10217 0.79496 0.57326 0.0
O14 O 0.06667 0.81256 0.57159 0.0
O15 O 0.084 0.80958 0.60377 0.0
C16 C 0.11291 0.77762 0.532 0.0
C17 C 0.1313 0.83019 0.57552 0.0
C18 C 0.09741 0.75548 0.59666 0.0
O19 O 0.09287 0.78492 0.5365 0.0
O20 O 0.12732 0.77969 0.54811 0.0
O21 O 0.11207 0.77043 0.60256 0.0
O22 O 0.08596 0.76029 0.57887 0.0
C23 C 0.06648 0.81644 0.59306 0.0
O24 O 0.13495 0.81153 0.58616 0.0
O25 O 0.11346 0.83052 0.56314 0.0
In26 In 0.44823 0.85638 0.82976 0.0
O27 O 0.43034 0.82107 0.82729 0.0
O28 O 0.43416 0.83716 0.86001 0.0
C29 C 0.46541 0.86785 0.78857 0.0
C30 C 0.41344 0.88605 0.83308 0.0
C31 C 0.48805 0.85072 0.85229 0.0
O32 O 0.45756 0.84791 0.79258 0.0
O33 O 0.46391 0.88185 0.80511 0.0
O34 O 0.47328 0.86526 0.85894 0.0
O35 O 0.48285 0.83981 0.83428 0.0
C36 C 0.42698 0.82006 0.84882 0.0
O37 O 0.4322 0.88907 0.84369 0.0
O38 O 0.41271 0.86848 0.82032 0.0
In39 In 0.39265 0.19954 0.07753 0.0
O40 O 0.43134 0.20395 0.08208 0.0
O41 O 0.41793 0.17011 0.08386 0.0
C42 C 0.38407 0.21678 0.03532 0.0
C43 C 0.36271 0.16498 0.08286 0.0
C44 C 0.38954 0.23337 0.10936 0.0
O45 O 0.40423 0.21235 0.04206 0.0
O46 O 0.36853 0.21197 0.0496 0.0
O47 O 0.38466 0.23623 0.08845 0.0
O48 O 0.39475 0.21299 0.11462 0.0
C49 C 0.43524 0.18295 0.08585 0.0
O50 O 0.36197 0.1829 0.09517 0.0
O51 O 0.37831 0.1648 0.06779 0.0
In52 In 0.04576 0.85588 0.17317 0.0
O53 O 0.06359 0.82047 0.17502 0.0
O54 O 0.06099 0.83778 0.1428 0.0
C55 C 0.02656 0.86529 0.21399 0.0
C56 C 0.08077 0.88547 0.17262 0.0
C57 C 0.00707 0.8511 0.14857 0.0
O58 O 0.0344 0.84552 0.20924 0.0
O59 O 0.02912 0.88024 0.19842 0.0
O60 O 0.0222 0.86572 0.143 0.0
O61 O 0.01131 0.83978 0.16657 0.0
C62 C 0.06773 0.82025 0.1536 0.0
O63 O 0.06243 0.88912 0.16145 0.0
O64 O 0.08086 0.86736 0.18464 0.0
In65 In 0.39067 0.79944 0.41591 0.0
O66 O 0.3574 0.81506 0.40267 0.0
O67 O 0.37867 0.8352 0.42478 0.0
C68 C 0.39511 0.75929 0.39349 0.0
C69 C 0.42699 0.82015 0.39621 0.0
C70 C 0.38122 0.78279 0.45789 0.0
O71 O 0.38119 0.77456 0.38669 0.0
O72 O 0.40597 0.76414 0.41161 0.0
O73 O 0.401 0.79026 0.45265 0.0
O74 O 0.36631 0.78447 0.44219 0.0
C75 C 0.3607 0.83412 0.41265 0.0
O76 O 0.42591 0.81752 0.41782 0.0
O77 O 0.40996 0.81253 0.38523 0.0
In78 In 0.44817 0.14618 0.66644 0.0
O79 O 0.42799 0.17996 0.67005 0.0
O80 O 0.42576 0.16081 0.63878 0.0
C81 C 0.46929 0.13616 0.70623 0.0
C82 C 0.41602 0.11356 0.66601 0.0
C83 C 0.48348 0.15695 0.63857 0.0
O84 O 0.45956 0.15539 0.70308 0.0
O85 O 0.4684 0.12252 0.6894 0.0
O86 O 0.47422 0.13726 0.63811 0.0
O87 O 0.47554 0.17047 0.65356 0.0
C88 C 0.41985 0.17852 0.64983 0.0
O89 O 0.43333 0.1129 0.65278 0.0
O90 O 0.41551 0.13031 0.67985 0.0
In91 In 0.10508 0.20105 0.91754 0.0
O92 O 0.13765 0.18378 0.90489 0.0
O93 O 0.11485 0.16453 0.92621 0.0
C94 C 0.10543 0.24105 0.89449 0.0
C95 C 0.06672 0.18385 0.89813 0.0
C96 C 0.11494 0.21703 0.95962 0.0
O97 O 0.1164 0.22371 0.88731 0.0
O98 O 0.09504 0.23826 0.91332 0.0
O99 O 0.09469 0.21136 0.95393 0.0
O100 O 0.13001 0.21395 0.9443 0.0
C101 C 0.13322 0.16487 0.91467 0.0
O102 O 0.06855 0.18553 0.91978 0.0
O103 O 0.084 0.19057 0.887 0.0
In104 In 0.32369 0.04912 0.14963 0.0
O105 O 0.3162 0.06557 0.18481 0.0
O106 O 0.34678 0.07484 0.1668 0.0
C107 C 0.28567 0.02533 0.13807 0.0
C108 C 0.32509 0.08268 0.11838 0.0
C109 C 0.35512 0.01633 0.15898 0.0
O110 O 0.28815 0.03416 0.15779 0.0
O111 O 0.3021 0.02877 0.12442 0.0
O112 O 0.35405 0.02588 0.13949 0.0
O113 O 0.34006 0.0228 0.17311 0.0
C114 C 0.33459 0.07728 0.18456 0.0
O115 O 0.33846 0.06552 0.11768 0.0
O116 O 0.31028 0.08227 0.1343 0.0
In117 In 0.19711 0.07732 0.39069 0.0
O118 O 0.17909 0.07446 0.42599 0.0
O119 O 0.18288 0.10729 0.41012 0.0
C120 C 0.21485 0.03661 0.37831 0.0
C121 C 0.16247 0.08127 0.36097 0.0
C122 C 0.23676 0.09992 0.39695 0.0
O123 O 0.20742 0.04023 0.3985 0.0
O124 O 0.21252 0.0532 0.3645 0.0
O125 O 0.2221 0.1067 0.38237 0.0
O126 O 0.23155 0.08174 0.40757 0.0
C127 C 0.17571 0.09599 0.42716 0.0
O128 O 0.18135 0.09174 0.35816 0.0
O129 O 0.16154 0.06824 0.37836 0.0
In130 In 0.16799 0.94807 0.6432 0.0
O131 O 0.16505 0.95235 0.68197 0.0
O132 O 0.16238 0.91854 0.6684 0.0
C133 C 0.20919 0.96784 0.63508 0.0
C134 C 0.16477 0.91321 0.61334 0.0
C135 C 0.13264 0.97833 0.64086 0.0
O136 O 0.20239 0.96308 0.65515 0.0
O137 O 0.19538 0.9624 0.61934 0.0
O138 O 0.15256 0.98298 0.6337 0.0
O139 O 0.13024 0.95807 0.64806 0.0
C140 C 0.16107 0.93135 0.68584 0.0
O141 O 0.15213 0.93083 0.61203 0.0
O142 O 0.17923 0.91344 0.62951 0.0
In143 In 0.29737 0.92401 0.90159 0.0
O144 O 0.31311 0.90998 0.86891 0.0
O145 O 0.33192 0.93511 0.88809 0.0
C146 C 0.25881 0.89935 0.90834 0.0
C147 C 0.32158 0.90797 0.93752 0.0
C148 C 0.27928 0.96435 0.88861 0.0
O149 O 0.27371 0.89329 0.89371 0.0
O150 O 0.26333 0.91769 0.91895 0.0
O151 O 0.28716 0.96129 0.9087 0.0
O152 O 0.28101 0.94729 0.87531 0.0
C153 C 0.33134 0.92172 0.87096 0.0
O154 O 0.31315 0.92807 0.93772 0.0
O155 O 0.31771 0.89659 0.91951 0.0
In156 In 0.32236 0.94884 0.34236 0.0
O157 O 0.33718 0.93329 0.37477 0.0
O158 O 0.31001 0.91532 0.35779 0.0
C159 C 0.35195 0.98338 0.33317 0.0
C160 C 0.33597 0.92141 0.30779 0.0
C161 C 0.28279 0.97025 0.35345 0.0
O162 O 0.35156 0.97353 0.35254 0.0
O163 O 0.337 0.97641 0.31915 0.0
O164 O 0.28588 0.96136 0.33384 0.0
O165 O 0.29948 0.96825 0.36709 0.0
C166 C 0.3244 0.91569 0.37409 0.0
O167 O 0.31691 0.93197 0.30702 0.0
O168 O 0.3474 0.92445 0.32596 0.0
In169 In 0.29839 0.07375 0.60403 0.0
O170 O 0.31517 0.08613 0.63689 0.0
O171 O 0.33364 0.06265 0.61543 0.0
C172 C 0.25915 0.09722 0.59862 0.0
C173 C 0.32005 0.09368 0.56849 0.0
C174 C 0.2795 0.03325 0.61488 0.0
O175 O 0.27384 0.10316 0.61355 0.0
O176 O 0.2642 0.0795 0.58717 0.0
O177 O 0.28754 0.03716 0.59498 0.0
O178 O 0.28184 0.04944 0.62917 0.0
C179 C 0.33355 0.07499 0.63332 0.0
O180 O 0.31604 0.07222 0.56855 0.0
O181 O 0.31332 0.10432 0.58613 0.0
In182 In 0.17027 0.04611 0.85022 0.0
O183 O 0.15738 0.06303 0.88274 0.0
O184 O 0.18101 0.08161 0.8616 0.0
C185 C 0.14397 0.00787 0.85014 0.0
C186 C 0.15575 0.06629 0.81099 0.0
C187 C 0.21172 0.02991 0.86225 0.0
O188 O 0.13685 0.02654 0.85854 0.0
O189 O 0.16409 0.00855 0.84225 0.0
O190 O 0.20716 0.03573 0.84176 0.0
O191 O 0.1956 0.03284 0.87647 0.0
C192 C 0.16848 0.08144 0.87936 0.0
O193 O 0.17435 0.05505 0.81174 0.0
O194 O 0.14506 0.06732 0.82976 0.0
In195 In 0.19711 0.91714 0.10389 0.0
O196 O 0.1812 0.90422 0.13694 0.0
O197 O 0.1643 0.93139 0.11882 0.0
C198 C 0.23121 0.88764 0.09384 0.0
C199 C 0.16928 0.90149 0.07064 0.0
C200 C 0.22009 0.95587 0.11405 0.0
O201 O 0.22165 0.88764 0.1134 0.0
O202 O 0.22426 0.903 0.0802 0.0
O203 O 0.21077 0.95294 0.09459 0.0
O204 O 0.21774 0.93942 0.12797 0.0
C205 C 0.16414 0.91771 0.13572 0.0
O206 O 0.17777 0.92159 0.06968 0.0
O207 O 0.17449 0.89016 0.0884 0.0
In208 In 0.14284 0.32529 0.04691 0.0
O209 O 0.18146 0.32998 0.04206 0.0
O210 O 0.16838 0.33159 0.07607 0.0
C211 C 0.13486 0.28344 0.02863 0.0
C212 C 0.11354 0.32937 0.08216 0.0
C213 C 0.13894 0.358 0.01398 0.0
O214 O 0.15492 0.29043 0.0331 0.0
O215 O 0.11908 0.29727 0.03397 0.0
O216 O 0.14492 0.36266 0.03428 0.0
O217 O 0.13368 0.33723 0.01078 0.0
C218 C 0.18555 0.33369 0.06305 0.0
O219 O 0.11228 0.34208 0.06455 0.0
O220 O 0.12926 0.31444 0.08162 0.0
In221 In 0.64384 0.16787 0.95033 0.0
O222 O 0.68256 0.16359 0.95456 0.0
O223 O 0.66897 0.16135 0.92082 0.0
C224 C 0.63486 0.21003 0.96736 0.0
C225 C 0.6138 0.16213 0.91602 0.0
C226 C 0.64098 0.13627 0.98435 0.0
O227 O 0.65507 0.20358 0.96268 0.0
O228 O 0.61947 0.19547 0.96295 0.0
O229 O 0.63631 0.15724 0.9872 0.0
O230 O 0.64587 0.13089 0.96393 0.0
C231 C 0.68634 0.1595 0.93359 0.0
O232 O 0.61373 0.14944 0.93368 0.0
O233 O 0.62874 0.17786 0.91602 0.0
In234 In 0.07968 0.39597 0.1996 0.0
O235 O 0.07208 0.43175 0.18515 0.0
O236 O 0.10106 0.41332 0.17225 0.0
C237 C 0.04191 0.3853 0.22423 0.0
C238 C 0.07971 0.36474 0.16597 0.0
C239 C 0.11242 0.40516 0.23118 0.0
O240 O 0.04425 0.40456 0.21447 0.0
O241 O 0.05844 0.37161 0.22144 0.0
O242 O 0.11041 0.38542 0.22235 0.0
O243 O 0.09766 0.41956 0.22466 0.0
C244 C 0.08934 0.43157 0.17186 0.0
O245 O 0.09389 0.36411 0.18246 0.0
O246 O 0.06494 0.38064 0.16704 0.0
In247 In 0.84666 0.82203 0.45068 0.0
O248 O 0.87985 0.83514 0.43502 0.0
O249 O 0.8598 0.81101 0.41588 0.0
C250 C 0.84065 0.84685 0.48934 0.0
C251 C 0.81071 0.83885 0.42691 0.0
C252 C 0.85808 0.78121 0.46887 0.0
O253 O 0.85504 0.85282 0.47417 0.0
O254 O 0.82997 0.8285 0.48507 0.0
O255 O 0.83819 0.78504 0.46086 0.0
O256 O 0.87204 0.79774 0.46715 0.0
C257 C 0.87738 0.82376 0.41661 0.0
O258 O 0.81054 0.81849 0.43469 0.0
O259 O 0.82872 0.85009 0.43117 0.0
In260 In 0.92325 0.09681 0.19785 0.0
O261 O 0.92934 0.06096 0.18193 0.0
O262 O 0.89739 0.07791 0.1763 0.0
C263 C 0.96314 0.1111 0.21614 0.0
C264 C 0.91902 0.12808 0.16457 0.0
C265 C 0.8983 0.08826 0.23596 0.0
O266 O 0.96083 0.09108 0.20787 0.0
O267 O 0.94555 0.12372 0.21476 0.0
O268 O 0.89212 0.10321 0.22145 0.0
O269 O 0.91696 0.07827 0.23134 0.0
C270 C 0.90959 0.06038 0.17278 0.0
O271 O 0.90713 0.12887 0.1828 0.0
O272 O 0.93355 0.11192 0.16364 0.0
In273 In 0.35621 0.67291 0.54338 0.0
O274 O 0.31946 0.67446 0.55857 0.0
O275 O 0.33505 0.64197 0.55239 0.0
C276 C 0.36381 0.71526 0.52661 0.0
C277 C 0.38345 0.67065 0.58045 0.0
C278 C 0.35849 0.64861 0.5041 0.0
O279 O 0.34386 0.70827 0.53178 0.0
O280 O 0.37981 0.70115 0.53072 0.0
O281 O 0.3686 0.64201 0.52216 0.0
O282 O 0.3482 0.66762 0.50576 0.0
C283 C 0.31767 0.65277 0.55936 0.0
O284 O 0.38912 0.66192 0.56136 0.0
O285 O 0.36443 0.68108 0.58048 0.0
In286 In 0.07311 0.59473 0.29632 0.0
O287 O 0.06911 0.55766 0.31002 0.0
O288 O 0.10035 0.57576 0.31596 0.0
C289 C 0.03205 0.60736 0.27965 0.0
C290 C 0.07575 0.62404 0.33144 0.0
C291 C 0.09792 0.59128 0.25731 0.0
O292 O 0.03596 0.587 0.28634 0.0
O293 O 0.04863 0.62116 0.28194 0.0
O294 O 0.10438 0.6038 0.27383 0.0
O295 O 0.07915 0.58097 0.26048 0.0
C296 C 0.08901 0.55756 0.31886 0.0
O297 O 0.08661 0.62725 0.31284 0.0
O298 O 0.06291 0.60652 0.33182 0.0
In299 In 0.4181 0.39898 0.79777 0.0
O300 O 0.42411 0.43767 0.80385 0.0
O301 O 0.40598 0.41853 0.82909 0.0
C302 C 0.45924 0.39085 0.7777 0.0
C303 C 0.41254 0.36667 0.83003 0.0
C304 C 0.38461 0.4007 0.76518 0.0
O305 O 0.45028 0.41064 0.77803 0.0
O306 O 0.44782 0.37565 0.78799 0.0
O307 O 0.38468 0.41316 0.7828 0.0
O308 O 0.40108 0.38667 0.7642 0.0
C309 C 0.41302 0.43793 0.82258 0.0
O310 O 0.39932 0.36821 0.81281 0.0
O311 O 0.42881 0.38105 0.83047 0.0
In312 In 0.94948 0.85325 0.6685 0.0
O313 O 0.93144 0.81799 0.67108 0.0
O314 O 0.93408 0.83463 0.63853 0.0
C315 C 0.96838 0.86342 0.70922 0.0
C316 C 0.91506 0.88346 0.66744 0.0
C317 C 0.98843 0.84836 0.64435 0.0
O318 O 0.96085 0.84346 0.70472 0.0
O319 O 0.96569 0.87811 0.69345 0.0
O320 O 0.97316 0.86263 0.63831 0.0
O321 O 0.98414 0.83733 0.66253 0.0
C322 C 0.92725 0.81737 0.64969 0.0
O323 O 0.93329 0.88636 0.6559 0.0
O324 O 0.91469 0.86569 0.67995 0.0
In325 In 0.89076 0.20389 0.41769 0.0
O326 O 0.85856 0.18579 0.40531 0.0
O327 O 0.88223 0.16704 0.42615 0.0
C328 C 0.88871 0.2439 0.39472 0.0
C329 C 0.92932 0.18784 0.39772 0.0
C330 C 0.88132 0.21922 0.4601 0.0
O331 O 0.87861 0.2261 0.38744 0.0
O332 O 0.89897 0.24156 0.41368 0.0
O333 O 0.90171 0.21513 0.45361 0.0
O334 O 0.86594 0.21494 0.44539 0.0
C335 C 0.86372 0.16694 0.41483 0.0
O336 O 0.92755 0.18889 0.41941 0.0
O337 O 0.91193 0.19466 0.38684 0.0
In338 In 0.54847 0.14217 0.16626 0.0
O339 O 0.56801 0.17628 0.16986 0.0
O340 O 0.56958 0.15774 0.13815 0.0
C341 C 0.52718 0.13186 0.20587 0.0
C342 C 0.58175 0.11069 0.16517 0.0
C343 C 0.51284 0.15258 0.13877 0.0
O344 O 0.53692 0.15111 0.20286 0.0
O345 O 0.5284 0.11821 0.18907 0.0
O346 O 0.52226 0.13296 0.13818 0.0
O347 O 0.52081 0.16617 0.15367 0.0
C348 C 0.57544 0.17539 0.14933 0.0
O349 O 0.56416 0.10935 0.1524 0.0
O350 O 0.58191 0.1274 0.17906 0.0
In351 In 0.60397 0.79789 0.92086 0.0
O352 O 0.5687 0.81593 0.923 0.0
O353 O 0.5847 0.81136 0.89036 0.0
C354 C 0.61314 0.78021 0.96247 0.0
C355 C 0.63364 0.83287 0.91827 0.0
C356 C 0.6 0.75834 0.8973 0.0
O357 O 0.59329 0.78742 0.95714 0.0
O358 O 0.62828 0.78274 0.94711 0.0
O359 O 0.61392 0.77385 0.89108 0.0
O360 O 0.58893 0.76264 0.91544 0.0
C361 C 0.56767 0.81885 0.90142 0.0
O362 O 0.63726 0.81388 0.90825 0.0
O363 O 0.61553 0.8337 0.93022 0.0
In364 In 0.94801 0.14499 0.82403 0.0
O365 O 0.9326 0.18101 0.81758 0.0
O366 O 0.92639 0.16421 0.84958 0.0
C367 C 0.96713 0.12843 0.78541 0.0
C368 C 0.9141 0.11438 0.82762 0.0
C369 C 0.98596 0.15442 0.84869 0.0
O370 O 0.9576 0.14805 0.78595 0.0
O371 O 0.96666 0.11746 0.80413 0.0
O372 O 0.97153 0.13957 0.85536 0.0
O373 O 0.98123 0.16397 0.8298 0.0
C374 C 0.92318 0.18174 0.83724 0.0
O375 O 0.93191 0.11342 0.84014 0.0
O376 O 0.91389 0.13042 0.81293 0.0
In377 In 0.60377 0.20255 0.57712 0.0
O378 O 0.63428 0.1839 0.59279 0.0
O379 O 0.61634 0.1677 0.56524 0.0
C380 C 0.60775 0.23346 0.61174 0.0
C381 C 0.56071 0.18698 0.58485 0.0
C382 C 0.61203 0.22314 0.5363 0.0
O383 O 0.61394 0.23756 0.59138 0.0
O384 O 0.60095 0.21316 0.61506 0.0
O385 O 0.59192 0.21872 0.54318 0.0
O386 O 0.62775 0.21651 0.54961 0.0
C387 C 0.63237 0.16656 0.57981 0.0
O388 O 0.56528 0.20802 0.58214 0.0
O389 O 0.57755 0.17368 0.58191 0.0
In390 In 0.5472 0.85549 0.32478 0.0
O391 O 0.56392 0.88804 0.33805 0.0
O392 O 0.58299 0.86638 0.31524 0.0
C393 C 0.50709 0.85065 0.34698 0.0
C394 C 0.56815 0.81976 0.345 0.0
C395 C 0.53084 0.86681 0.28333 0.0
O396 O 0.52183 0.86534 0.35336 0.0
O397 O 0.51247 0.83919 0.32936 0.0
O398 O 0.53796 0.84666 0.28771 0.0
O399 O 0.53261 0.88102 0.29966 0.0
C400 C 0.58268 0.88421 0.32765 0.0
O401 O 0.56475 0.81999 0.32345 0.0
O402 O 0.56101 0.83724 0.35563 0.0
In403 In 0.89534 0.79719 0.07443 0.0
O404 O 0.93069 0.81527 0.07368 0.0
O405 O 0.91316 0.81088 0.10557 0.0
C406 C 0.88597 0.77993 0.03274 0.0
C407 C 0.8662 0.83243 0.07681 0.0
C408 C 0.89903 0.75763 0.09787 0.0
O409 O 0.90597 0.78666 0.03812 0.0
O410 O 0.87088 0.78265 0.04811 0.0
O411 O 0.88445 0.77278 0.10346 0.0
O412 O 0.91092 0.76227 0.08034 0.0
C413 C 0.93064 0.81841 0.09528 0.0
O414 O 0.86222 0.81347 0.08676 0.0
O415 O 0.88434 0.83304 0.06488 0.0
In416 In 0.67217 0.94729 0.84732 0.0
O417 O 0.65714 0.93235 0.87995 0.0
O418 O 0.68367 0.91359 0.86273 0.0
C419 C 0.64648 0.98459 0.83766 0.0
C420 C 0.65834 0.92127 0.81165 0.0
C421 C 0.71142 0.96753 0.86072 0.0
O422 O 0.64078 0.97069 0.85339 0.0
O423 O 0.66496 0.97973 0.82746 0.0
O424 O 0.70941 0.95818 0.84114 0.0
O425 O 0.6939 0.96613 0.87344 0.0
C426 C 0.66946 0.9144 0.87917 0.0
O427 O 0.67806 0.93053 0.81185 0.0
O428 O 0.64627 0.92512 0.82923 0.0
In429 In 0.79448 0.91903 0.6065 0.0
O430 O 0.80997 0.92017 0.56988 0.0
O431 O 0.80619 0.88798 0.58688 0.0
C432 C 0.77663 0.96061 0.61515 0.0
C433 C 0.83097 0.91851 0.6343 0.0
C434 C 0.75519 0.89493 0.60749 0.0
O435 O 0.78223 0.95444 0.595 0.0
O436 O 0.78089 0.94612 0.63076 0.0
O437 O 0.77257 0.88863 0.61892 0.0
O438 O 0.75762 0.91333 0.5963 0.0
C439 C 0.81254 0.89854 0.56909 0.0
O440 O 0.81247 0.90825 0.63932 0.0
O441 O 0.83068 0.92951 0.61557 0.0
In442 In 0.82696 0.04455 0.35484 0.0
O443 O 0.82548 0.05903 0.31781 0.0
O444 O 0.85794 0.05342 0.33368 0.0
C445 C 0.78455 0.02957 0.36473 0.0
C446 C 0.82989 0.08192 0.38132 0.0
C447 C 0.8497 0.00446 0.35751 0.0
O448 O 0.79078 0.03383 0.34428 0.0
O449 O 0.79954 0.03348 0.37993 0.0
O450 O 0.85671 0.02224 0.36785 0.0
O451 O 0.83113 0.00687 0.34659 0.0
C452 C 0.84716 0.06005 0.31614 0.0
O453 O 0.83937 0.06312 0.38676 0.0
O454 O 0.8186 0.08158 0.36279 0.0
In455 In 0.69829 0.07239 0.09867 0.0
O456 O 0.68214 0.08706 0.13092 0.0
O457 O 0.66417 0.06066 0.11267 0.0
C458 C 0.73617 0.09765 0.09035 0.0
C459 C 0.6734 0.08654 0.0624 0.0
C460 C 0.71751 0.03301 0.11294 0.0
O461 O 0.72161 0.1037 0.10534 0.0
O462 O 0.73162 0.07907 0.08016 0.0
O463 O 0.70859 0.03489 0.09314 0.0
O464 O 0.71631 0.0508 0.12533 0.0
C465 C 0.66431 0.07464 0.12932 0.0
O466 O 0.6826 0.06678 0.06272 0.0
O467 O 0.67688 0.09856 0.08009 0.0
In468 In 0.66784 0.04878 0.64475 0.0
O469 O 0.65409 0.06478 0.61197 0.0
O470 O 0.68113 0.08198 0.62996 0.0
C471 C 0.63964 0.0136 0.65503 0.0
C472 C 0.6513 0.07647 0.67759 0.0
C473 C 0.70759 0.0274 0.63513 0.0
O474 O 0.63963 0.02275 0.63526 0.0
O475 O 0.65436 0.02154 0.6688 0.0
O476 O 0.70413 0.03698 0.65438 0.0
O477 O 0.69112 0.02873 0.6211 0.0
C478 C 0.66708 0.08222 0.61338 0.0
O479 O 0.67152 0.06834 0.67887 0.0
O480 O 0.6402 0.0708 0.65984 0.0
In481 In 0.69893 0.9222 0.39724 0.0
O482 O 0.68274 0.90528 0.36606 0.0
O483 O 0.66481 0.93287 0.38236 0.0
C484 C 0.73358 0.89116 0.39543 0.0
C485 C 0.68092 0.91316 0.43914 0.0
C486 C 0.71581 0.9641 0.38726 0.0
O487 O 0.71289 0.88513 0.39768 0.0
O488 O 0.73646 0.91246 0.39292 0.0
O489 O 0.71043 0.95846 0.40758 0.0
O490 O 0.71206 0.94889 0.37231 0.0
C491 C 0.66506 0.91795 0.3666 0.0
O492 O 0.70143 0.91966 0.43642 0.0
O493 O 0.66917 0.91282 0.42099 0.0
In494 In 0.82687 0.9488 0.14674 0.0
O495 O 0.84422 0.93229 0.11596 0.0
O496 O 0.81706 0.91401 0.13251 0.0
C497 C 0.85913 0.98208 0.14268 0.0
C498 C 0.83532 0.93213 0.18931 0.0
C499 C 0.78482 0.96648 0.13834 0.0
O500 O 0.83828 0.98511 0.1377 0.0
O501 O 0.86407 0.96181 0.14856 0.0
O502 O 0.79224 0.96355 0.15854 0.0
O503 O 0.79828 0.9599 0.12273 0.0
C504 C 0.83197 0.91434 0.11673 0.0
O505 O 0.83174 0.95316 0.18541 0.0
O506 O 0.83296 0.91929 0.17204 0.0
In507 In 0.79818 0.07624 0.89488 0.0
O508 O 0.81787 0.07298 0.92903 0.0
O509 O 0.81888 0.10465 0.91041 0.0
C510 C 0.77724 0.03623 0.88507 0.0
C511 C 0.83184 0.07754 0.8638 0.0
C512 C 0.76262 0.10421 0.90427 0.0
O513 O 0.78558 0.04018 0.9048 0.0
O514 O 0.77966 0.05226 0.87069 0.0
O515 O 0.77213 0.10418 0.88468 0.0
O516 O 0.77035 0.08957 0.91826 0.0
C517 C 0.82499 0.09361 0.92807 0.0
O518 O 0.81394 0.08983 0.86199 0.0
O519 O 0.8321 0.06392 0.88076 0.0
In520 In 0.85485 0.66919 0.95021 0.0
O521 O 0.88748 0.65495 0.93428 0.0
O522 O 0.86658 0.67763 0.91432 0.0
C523 C 0.85021 0.64683 0.99032 0.0
C524 C 0.81844 0.64966 0.92956 0.0
C525 C 0.86545 0.71104 0.9664 0.0
O526 O 0.86447 0.64026 0.97527 0.0
O527 O 0.83914 0.6648 0.98532 0.0
O528 O 0.84542 0.70615 0.9594 0.0
O529 O 0.88001 0.69503 0.96456 0.0
C530 C 0.88414 0.66489 0.91519 0.0
O531 O 0.81959 0.67129 0.93209 0.0
O532 O 0.83537 0.63864 0.93733 0.0
In533 In 0.34859 0.82252 0.04745 0.0
O534 O 0.31023 0.82841 0.04252 0.0
O535 O 0.32274 0.82724 0.07673 0.0
C536 C 0.35729 0.78038 0.03005 0.0
C537 C 0.37823 0.82954 0.08187 0.0
C538 C 0.35191 0.85482 0.01418 0.0
O539 O 0.3371 0.78736 0.0339 0.0
O540 O 0.37285 0.79432 0.03569 0.0
O541 O 0.34683 0.85975 0.03467 0.0
O542 O 0.35644 0.83389 0.01084 0.0
C543 C 0.30588 0.83082 0.06362 0.0
O544 O 0.37915 0.84079 0.0633 0.0
O545 O 0.36271 0.81439 0.08273 0.0
In546 In 0.92311 0.59771 0.79659 0.0
O547 O 0.90713 0.62845 0.81438 0.0
O548 O 0.93264 0.60937 0.83253 0.0
C549 C 0.89037 0.60399 0.7642 0.0
C550 C 0.91298 0.55433 0.8099 0.0
C551 C 0.96521 0.60598 0.77883 0.0
O552 O 0.88562 0.59828 0.78457 0.0
O553 O 0.91141 0.60773 0.76063 0.0
O554 O 0.95795 0.58582 0.7824 0.0
O555 O 0.95159 0.62166 0.78491 0.0
C556 C 0.91865 0.62597 0.83263 0.0
O557 O 0.91625 0.55984 0.78918 0.0
O558 O 0.91662 0.57029 0.8241 0.0
In559 In 0.14318 0.16737 0.54819 0.0
O560 O 0.17898 0.16907 0.5651 0.0
O561 O 0.16239 0.13664 0.56104 0.0
C562 C 0.13265 0.20917 0.53196 0.0
C563 C 0.11462 0.16455 0.584 0.0
C564 C 0.14645 0.14478 0.508 0.0
O565 O 0.1528 0.20418 0.53859 0.0
O566 O 0.11802 0.19329 0.53419 0.0
O567 O 0.13287 0.13813 0.52365 0.0
O568 O 0.15758 0.16282 0.51254 0.0
C569 C 0.17978 0.14748 0.56803 0.0
O570 O 0.11033 0.15479 0.56501 0.0
O571 O 0.13292 0.17621 0.5845 0.0
In572 In 0.07695 0.89393 0.79728 0.0
O573 O 0.09108 0.8615 0.8135 0.0
O574 O 0.06423 0.87947 0.83099 0.0
C575 C 0.10558 0.90279 0.76208 0.0
C576 C 0.09322 0.92825 0.82337 0.0
C577 C 0.0371 0.88425 0.77606 0.0
O578 O 0.10516 0.88326 0.77168 0.0
O579 O 0.09098 0.91697 0.76949 0.0
O580 O 0.04073 0.90362 0.78528 0.0
O581 O 0.05342 0.87009 0.77771 0.0
C582 C 0.0783 0.8629 0.83107 0.0
O583 O 0.07297 0.92891 0.81527 0.0
O584 O 0.10436 0.91021 0.81879 0.0
In585 In 0.64316 0.33221 0.44805 0.0
O586 O 0.61033 0.34649 0.43271 0.0
O587 O 0.6277 0.3195 0.41481 0.0
C588 C 0.65336 0.36043 0.48325 0.0
C589 C 0.67661 0.34802 0.42051 0.0
C590 C 0.63301 0.2927 0.46984 0.0
O591 O 0.63377 0.36066 0.47382 0.0
O592 O 0.66708 0.34554 0.4755 0.0
O593 O 0.65222 0.29573 0.46009 0.0
O594 O 0.61928 0.3094 0.46839 0.0
C595 C 0.6112 0.33364 0.41515 0.0
O596 O 0.67721 0.32768 0.42843 0.0
O597 O 0.65916 0.35958 0.4262 0.0
In598 In 0.91853 0.3907 0.69956 0.0
O599 O 0.90238 0.36013 0.6816 0.0
O600 O 0.92781 0.37926 0.66345 0.0
C601 C 0.88504 0.385 0.73125 0.0
C602 C 0.90949 0.43438 0.68658 0.0
C603 C 0.96021 0.38275 0.71839 0.0
O604 O 0.90577 0.3799 0.73493 0.0
O605 O 0.88091 0.39169 0.71105 0.0
O606 O 0.95291 0.40279 0.71436 0.0
O607 O 0.94692 0.36689 0.71208 0.0
C608 C 0.9137 0.36278 0.66325 0.0
O609 O 0.91173 0.42844 0.70731 0.0
O610 O 0.9135 0.41863 0.67223 0.0
In611 In 0.57362 0.59588 0.19564 0.0
O612 O 0.58856 0.62794 0.17953 0.0
O613 O 0.56082 0.6112 0.16223 0.0
C614 C 0.60342 0.58679 0.23002 0.0
C615 C 0.5863 0.56083 0.16843 0.0
C616 C 0.53455 0.6074 0.21759 0.0
O617 O 0.60303 0.6061 0.22007 0.0
O618 O 0.58847 0.57273 0.22315 0.0
O619 O 0.5373 0.58775 0.2087 0.0
O620 O 0.55131 0.62089 0.21527 0.0
C621 C 0.57539 0.62732 0.16221 0.0
O622 O 0.56738 0.5605 0.17924 0.0
O623 O 0.5981 0.57882 0.17112 0.0
In624 In 0.54664 0.64463 0.82587 0.0
O625 O 0.56473 0.67993 0.82438 0.0
O626 O 0.56128 0.66264 0.85654 0.0
C627 C 0.52756 0.63458 0.78518 0.0
C628 C 0.58171 0.61516 0.82675 0.0
C629 C 0.50739 0.64917 0.84954 0.0
O630 O 0.53469 0.65465 0.78984 0.0
O631 O 0.53093 0.61972 0.80067 0.0
O632 O 0.52238 0.63449 0.85537 0.0
O633 O 0.51218 0.66081 0.83187 0.0
C634 C 0.56843 0.6801 0.84589 0.0
O635 O 0.56338 0.61162 0.83797 0.0
O636 O 0.58184 0.63316 0.81455 0.0
In637 In 0.60347 0.2941 0.07622 0.0
O638 O 0.56667 0.3091 0.07424 0.0
O639 O 0.58208 0.30321 0.10691 0.0
C640 C 0.61351 0.27819 0.03413 0.0
C641 C 0.63027 0.33121 0.0795 0.0
C642 C 0.60525 0.25426 0.09946 0.0
O643 O 0.59312 0.28307 0.04004 0.0
O644 O 0.62863 0.28216 0.04919 0.0
O645 O 0.61573 0.27196 0.10645 0.0
O646 O 0.59464 0.25662 0.0807 0.0
C647 C 0.56476 0.3101 0.09593 0.0
O648 O 0.63562 0.31222 0.08865 0.0
O649 O 0.61175 0.33114 0.0682 0.0
In650 In 0.9509 0.35464 0.33145 0.0
O651 O 0.93512 0.38751 0.34499 0.0
O652 O 0.91868 0.37041 0.3169 0.0
C653 C 0.98456 0.3438 0.36113 0.0
C654 C 0.92197 0.32213 0.34654 0.0
C655 C 0.97452 0.36388 0.29289 0.0
O656 O 0.97583 0.36374 0.36072 0.0
O657 O 0.97699 0.33014 0.34612 0.0
O658 O 0.96499 0.34457 0.29609 0.0
O659 O 0.97192 0.37821 0.30894 0.0
C660 C 0.91825 0.38676 0.33122 0.0
O661 O 0.93051 0.32116 0.32646 0.0
O662 O 0.92781 0.33947 0.35819 0.0
In663 In 0.89121 0.69755 0.5783 0.0
O664 O 0.92653 0.67959 0.57607 0.0
O665 O 0.9106 0.68415 0.60876 0.0
C666 C 0.88062 0.71427 0.53667 0.0
C667 C 0.86181 0.66249 0.58156 0.0
C668 C 0.89552 0.7376 0.60086 0.0
O669 O 0.90077 0.70759 0.54158 0.0
O670 O 0.86597 0.71181 0.55251 0.0
O671 O 0.88162 0.72229 0.60759 0.0
O672 O 0.90645 0.73282 0.58275 0.0
C673 C 0.92761 0.67665 0.59766 0.0
O674 O 0.85836 0.68141 0.59179 0.0
O675 O 0.87963 0.66177 0.56917 0.0
In676 In 0.54728 0.34596 0.67399 0.0
O677 O 0.56303 0.37756 0.65779 0.0
O678 O 0.58099 0.36119 0.68545 0.0
C679 C 0.51061 0.33597 0.64768 0.0
C680 C 0.57347 0.30976 0.66207 0.0
C681 C 0.52664 0.36223 0.71196 0.0
O682 O 0.5248 0.35141 0.64197 0.0
O683 O 0.51492 0.32605 0.66647 0.0
O684 O 0.53628 0.34268 0.71168 0.0
O685 O 0.52787 0.37334 0.69336 0.0
C686 C 0.58075 0.37694 0.67044 0.0
O687 O 0.56298 0.31018 0.68119 0.0
O688 O 0.57053 0.32723 0.64961 0.0
In689 In 0.89197 0.29444 0.91745 0.0
O690 O 0.86147 0.31089 0.8992 0.0
O691 O 0.87727 0.3292 0.92671 0.0
C692 C 0.88977 0.26042 0.88568 0.0
C693 C 0.93443 0.31145 0.90939 0.0
C694 C 0.88362 0.27707 0.95973 0.0
O695 O 0.89528 0.28074 0.88052 0.0
O696 O 0.88404 0.25772 0.9064 0.0
O697 O 0.90368 0.28192 0.95297 0.0
O698 O 0.86799 0.28159 0.94544 0.0
C699 C 0.86201 0.32895 0.9113 0.0
O700 O 0.93071 0.29039 0.913 0.0
O701 O 0.91702 0.32413 0.91149 0.0
In702 In 0.94914 0.64372 0.17126 0.0
O703 O 0.9323 0.61098 0.15865 0.0
O704 O 0.91339 0.63301 0.18127 0.0
C705 C 0.98926 0.64789 0.14896 0.0
C706 C 0.92863 0.67941 0.15046 0.0
C707 C 0.96558 0.6326 0.21274 0.0
O708 O 0.97417 0.63362 0.14247 0.0
O709 O 0.98424 0.65922 0.16678 0.0
O710 O 0.95908 0.65291 0.2081 0.0
O711 O 0.96323 0.6182 0.19666 0.0
C712 C 0.91368 0.61489 0.16926 0.0
O713 O 0.93187 0.67941 0.17205 0.0
O714 O 0.93556 0.66167 0.14013 0.0
In715 In 0.60432 0.70214 0.41961 0.0
O716 O 0.6368 0.68526 0.40633 0.0
O717 O 0.61534 0.66642 0.42947 0.0
C718 C 0.59998 0.74167 0.39633 0.0
C719 C 0.56801 0.68142 0.40003 0.0
C720 C 0.61497 0.7198 0.46078 0.0
O721 O 0.61431 0.72648 0.3902 0.0
O722 O 0.58868 0.73705 0.41426 0.0
O723 O 0.59495 0.71253 0.45621 0.0
O724 O 0.62953 0.71738 0.44485 0.0
C725 C 0.63303 0.66658 0.41688 0.0
O726 O 0.56875 0.68465 0.42159 0.0
O727 O 0.58531 0.68852 0.38911 0.0
In728 In 0.82528 0.54733 0.6522 0.0
O729 O 0.81945 0.56361 0.68774 0.0
O730 O 0.84984 0.57195 0.66898 0.0
C731 C 0.78597 0.52615 0.64016 0.0
C732 C 0.82722 0.5805 0.62054 0.0
C733 C 0.85452 0.5125 0.66137 0.0
O734 O 0.78836 0.53553 0.65965 0.0
O735 O 0.80327 0.52745 0.62721 0.0
O736 O 0.85464 0.52278 0.64223 0.0
O737 O 0.83934 0.5193 0.67525 0.0
C738 C 0.83828 0.57457 0.68714 0.0
O739 O 0.84043 0.5632 0.62011 0.0
O740 O 0.81259 0.58061 0.63662 0.0
In741 In 0.70006 0.57691 0.89069 0.0
O742 O 0.68166 0.57454 0.92581 0.0
O743 O 0.68508 0.60708 0.90924 0.0
C744 C 0.71835 0.53628 0.87897 0.0
C745 C 0.66524 0.57929 0.86102 0.0
C746 C 0.73944 0.59997 0.89698 0.0
O747 O 0.71081 0.54008 0.89908 0.0
O748 O 0.71598 0.55269 0.86493 0.0
O749 O 0.725 0.60624 0.88194 0.0
O750 O 0.73411 0.58209 0.90806 0.0
C751 C 0.67784 0.59603 0.92641 0.0
O752 O 0.68365 0.59056 0.85809 0.0
O753 O 0.66493 0.56631 0.87847 0.0
In754 In 0.66997 0.44996 0.14543 0.0
O755 O 0.66414 0.45641 0.18363 0.0
O756 O 0.66356 0.42181 0.17219 0.0
C757 C 0.71218 0.46733 0.13727 0.0
C758 C 0.66471 0.41458 0.11655 0.0
C759 C 0.63768 0.48292 0.13983 0.0
O760 O 0.70487 0.46368 0.1574 0.0
O761 O 0.69851 0.46156 0.12152 0.0
O762 O 0.63274 0.46273 0.14594 0.0
O763 O 0.65866 0.48608 0.13547 0.0
C764 C 0.66069 0.4356 0.18865 0.0
O765 O 0.65272 0.43263 0.11512 0.0
O766 O 0.67958 0.41461 0.13236 0.0
In767 In 0.79524 0.42006 0.3899 0.0
O768 O 0.80848 0.4217 0.4273 0.0
O769 O 0.80631 0.38931 0.41031 0.0
C770 C 0.77859 0.46164 0.37938 0.0
C771 C 0.83293 0.41937 0.36365 0.0
C772 C 0.7556 0.39648 0.38877 0.0
O773 O 0.78433 0.45638 0.39975 0.0
O774 O 0.78192 0.44614 0.36453 0.0
O775 O 0.77317 0.38954 0.378 0.0
O776 O 0.75801 0.4153 0.39926 0.0
C777 C 0.81127 0.40011 0.42841 0.0
O778 O 0.81469 0.40902 0.3579 0.0
O779 O 0.83187 0.43026 0.38241 0.0
In780 In 0.82342 0.44518 0.84322 0.0
O781 O 0.83831 0.42869 0.87517 0.0
O782 O 0.81062 0.41159 0.85817 0.0
C783 C 0.85441 0.4787 0.83449 0.0
C784 C 0.83487 0.41738 0.80818 0.0
C785 C 0.78455 0.46781 0.85455 0.0
O786 O 0.85322 0.46899 0.85389 0.0
O787 O 0.83966 0.47203 0.82013 0.0
O788 O 0.78761 0.45944 0.83472 0.0
O789 O 0.80087 0.46458 0.86838 0.0
C790 C 0.82528 0.41129 0.87421 0.0
O791 O 0.81634 0.42887 0.80791 0.0
O792 O 0.84698 0.41991 0.82598 0.0
In793 In 0.79573 0.57682 0.10442 0.0
O794 O 0.81188 0.59033 0.13719 0.0
O795 O 0.83097 0.56664 0.11652 0.0
C796 C 0.75586 0.59921 0.09867 0.0
C797 C 0.81751 0.5966 0.06886 0.0
C798 C 0.77875 0.5356 0.11573 0.0
O799 O 0.77039 0.60565 0.11354 0.0
O800 O 0.76132 0.58144 0.08748 0.0
O801 O 0.78639 0.53973 0.09571 0.0
O802 O 0.78024 0.55208 0.1298 0.0
C803 C 0.83043 0.57933 0.13415 0.0
O804 O 0.81389 0.57508 0.06922 0.0
O805 O 0.81025 0.60741 0.08618 0.0
In806 In 0.66916 0.54705 0.35038 0.0
O807 O 0.65316 0.56511 0.38102 0.0
O808 O 0.67965 0.58247 0.36255 0.0
C809 C 0.63664 0.51437 0.3564 0.0
C810 C 0.65942 0.56105 0.30716 0.0
C811 C 0.71126 0.52941 0.35839 0.0
O812 O 0.65765 0.51104 0.36043 0.0
O813 O 0.63175 0.53465 0.35051 0.0
O814 O 0.70405 0.53333 0.33827 0.0
O815 O 0.69751 0.53495 0.37416 0.0
C816 C 0.6654 0.58294 0.37892 0.0
O817 O 0.66311 0.54029 0.31224 0.0
O818 O 0.66223 0.57495 0.32354 0.0
In819 In 0.69794 0.42031 0.60441 0.0
O820 O 0.68071 0.40228 0.63441 0.0
O821 O 0.66267 0.42957 0.61781 0.0
C822 C 0.73045 0.38721 0.60734 0.0
C823 C 0.68249 0.41358 0.56111 0.0
C824 C 0.71666 0.46152 0.61459 0.0
O825 O 0.71011 0.3829 0.60126 0.0
O826 O 0.73386 0.40777 0.61323 0.0
O827 O 0.713 0.45521 0.59412 0.0
O828 O 0.71006 0.44747 0.62967 0.0
C829 C 0.66265 0.41432 0.63326 0.0
O830 O 0.70348 0.4161 0.56584 0.0
O831 O 0.66913 0.41624 0.57796 0.0
In832 In 0.64381 0.82782 0.54991 0.0
O833 O 0.61092 0.84134 0.56573 0.0
O834 O 0.62941 0.81507 0.58359 0.0
C835 C 0.65255 0.85668 0.51483 0.0
C836 C 0.67693 0.84467 0.57709 0.0
C837 C 0.6352 0.78774 0.52857 0.0
O838 O 0.63278 0.85543 0.52381 0.0
O839 O 0.66714 0.8428 0.52282 0.0
O840 O 0.65467 0.7921 0.53722 0.0
O841 O 0.62043 0.80342 0.53088 0.0
C842 C 0.61259 0.82882 0.58348 0.0
O843 O 0.67797 0.82425 0.56943 0.0
O844 O 0.65921 0.85577 0.57133 0.0
In845 In 0.14294 0.66747 0.44806 0.0
O846 O 0.18156 0.66343 0.45305 0.0
O847 O 0.16865 0.66103 0.41903 0.0
C848 C 0.13408 0.70979 0.46482 0.0
C849 C 0.11331 0.66099 0.41348 0.0
C850 C 0.14029 0.6359 0.48215 0.0
O851 O 0.15425 0.70313 0.46035 0.0
O852 O 0.11859 0.69539 0.46022 0.0
O853 O 0.14577 0.63061 0.46186 0.0
O854 O 0.13482 0.6567 0.4848 0.0
C855 C 0.18578 0.65935 0.43216 0.0
O856 O 0.11261 0.64913 0.43169 0.0
O857 O 0.12867 0.67628 0.41302 0.0
In858 In 0.57433 0.89525 0.70151 0.0
O859 O 0.5903 0.86407 0.68423 0.0
O860 O 0.56352 0.88188 0.66665 0.0
C861 C 0.60702 0.89038 0.7343 0.0
C862 C 0.584 0.93772 0.68524 0.0
C863 C 0.53234 0.8882 0.71996 0.0
O864 O 0.5861 0.8859 0.73765 0.0
O865 O 0.61179 0.89604 0.71392 0.0
O866 O 0.53999 0.90814 0.716 0.0
O867 O 0.54553 0.87212 0.71399 0.0
C868 C 0.57791 0.86564 0.66644 0.0
O869 O 0.58061 0.93368 0.70629 0.0
O870 O 0.58085 0.9207 0.67223 0.0
In871 In 0.35266 0.3256 0.95094 0.0
O872 O 0.31544 0.3236 0.93714 0.0
O873 O 0.33109 0.35629 0.9423 0.0
C874 C 0.36289 0.28362 0.96705 0.0
C875 C 0.37834 0.32843 0.91292 0.0
C876 C 0.35506 0.34921 0.99057 0.0
O877 O 0.34248 0.28943 0.96216 0.0
O878 O 0.37795 0.29871 0.96294 0.0
O879 O 0.36509 0.35617 0.97258 0.0
O880 O 0.34466 0.33029 0.9886 0.0
C881 C 0.31354 0.34529 0.93608 0.0
O882 O 0.38459 0.3372 0.93181 0.0
O883 O 0.35947 0.31774 0.9135 0.0
In884 In 0.4197 0.60025 0.69629 0.0
O885 O 0.42758 0.56447 0.68175 0.0
O886 O 0.39786 0.58223 0.66978 0.0
C887 C 0.45845 0.61181 0.71906 0.0
C888 C 0.41708 0.63224 0.66333 0.0
C889 C 0.38828 0.59022 0.72901 0.0
O890 O 0.45635 0.59278 0.70882 0.0
O891 O 0.44114 0.62474 0.71783 0.0
O892 O 0.38937 0.60992 0.71993 0.0
O893 O 0.40343 0.57632 0.72231 0.0
C894 C 0.40983 0.56416 0.66915 0.0
O895 O 0.40352 0.63182 0.68033 0.0
O896 O 0.43244 0.61687 0.6634 0.0
In897 In 0.85502 0.16822 0.04563 0.0
O898 O 0.88776 0.15649 0.06325 0.0
O899 O 0.8639 0.17655 0.08256 0.0
C900 C 0.85596 0.14437 0.00606 0.0
C901 C 0.81665 0.1484 0.06236 0.0
C902 C 0.86429 0.21017 0.02872 0.0
O903 O 0.8668 0.13762 0.02365 0.0
O904 O 0.84547 0.1632 0.00838 0.0
O905 O 0.84411 0.20423 0.03437 0.0
O906 O 0.87962 0.19526 0.03248 0.0
C907 C 0.88263 0.1656 0.08232 0.0
O908 O 0.81833 0.17009 0.06096 0.0
O909 O 0.83405 0.13748 0.0556 0.0
In910 In 0.57554 0.10359 0.79378 0.0
O911 O 0.57356 0.06644 0.80798 0.0
O912 O 0.60621 0.0819 0.80218 0.0
C913 C 0.53405 0.11335 0.77626 0.0
C914 C 0.57731 0.12907 0.83193 0.0
C915 C 0.60016 0.10707 0.75493 0.0
O916 O 0.54027 0.09291 0.78058 0.0
O917 O 0.5484 0.12868 0.78176 0.0
O918 O 0.60664 0.11663 0.77335 0.0
O919 O 0.58124 0.09658 0.75613 0.0
C920 C 0.59524 0.06447 0.80878 0.0
O921 O 0.58652 0.13545 0.81328 0.0
O922 O 0.56666 0.11019 0.831 0.0
In923 In 0.91703 0.89214 0.30206 0.0
O924 O 0.92037 0.92599 0.32216 0.0
O925 O 0.88858 0.90766 0.32282 0.0
C926 C 0.95739 0.88364 0.2812 0.0
C927 C 0.91524 0.86012 0.33492 0.0
C928 C 0.88944 0.90211 0.26629 0.0
O929 O 0.95318 0.90281 0.29061 0.0
O930 O 0.94143 0.86905 0.2826 0.0
O931 O 0.88953 0.88232 0.27536 0.0
O932 O 0.90378 0.91605 0.27459 0.0
C933 C 0.89971 0.92518 0.32911 0.0
O934 O 0.90305 0.85895 0.31691 0.0
O935 O 0.92901 0.87691 0.33569 0.0
In936 In 0.44713 0.3479 0.17229 0.0
O937 O 0.43098 0.31223 0.1785 0.0
O938 O 0.42547 0.32915 0.14644 0.0
C939 C 0.4673 0.36231 0.21117 0.0
C940 C 0.41339 0.37882 0.17008 0.0
C941 C 0.48462 0.3389 0.14673 0.0
O942 O 0.45855 0.34243 0.20948 0.0
O943 O 0.46537 0.37479 0.19351 0.0
O944 O 0.47028 0.35412 0.14074 0.0
O945 O 0.48003 0.32885 0.16538 0.0
C946 C 0.42181 0.31168 0.15873 0.0
O947 O 0.4311 0.38012 0.15746 0.0
O948 O 0.41323 0.36232 0.18426 0.0
In949 In 0.39116 0.69939 0.91914 0.0
O950 O 0.42682 0.68212 0.92122 0.0
O951 O 0.41055 0.68639 0.88864 0.0
C952 C 0.37948 0.71497 0.96087 0.0
C953 C 0.3626 0.66386 0.91467 0.0
C954 C 0.39573 0.73981 0.89733 0.0
O955 O 0.39966 0.70806 0.95644 0.0
O956 O 0.36536 0.71338 0.94445 0.0
O957 O 0.38153 0.72481 0.89051 0.0
O958 O 0.40681 0.73456 0.91523 0.0
C959 C 0.42777 0.6792 0.89962 0.0
O960 O 0.35897 0.68287 0.90467 0.0
O961 O 0.38009 0.66332 0.92754 0.0
In962 In 0.04758 0.64034 0.66868 0.0
O963 O 0.06443 0.67621 0.66991 0.0
O964 O 0.06062 0.659 0.63773 0.0
C965 C 0.03113 0.62847 0.71002 0.0
C966 C 0.08362 0.61221 0.66573 0.0
C967 C 0.00739 0.64497 0.64662 0.0
O968 O 0.03833 0.64865 0.70591 0.0
O969 O 0.03288 0.61449 0.69348 0.0
O970 O 0.02229 0.63053 0.64002 0.0
O971 O 0.01264 0.65623 0.66441 0.0
C972 C 0.06745 0.67663 0.64829 0.0
O973 O 0.06493 0.60807 0.65535 0.0
O974 O 0.08364 0.63008 0.6781 0.0
In975 In 0.10244 0.2965 0.42425 0.0
O976 O 0.06401 0.29151 0.41879 0.0
O977 O 0.07649 0.32571 0.42029 0.0
C978 C 0.11142 0.27837 0.46604 0.0
C979 C 0.13149 0.33156 0.41777 0.0
C980 C 0.10539 0.26386 0.39122 0.0
O981 O 0.09122 0.28259 0.45934 0.0
O982 O 0.12691 0.28397 0.45199 0.0
O983 O 0.1104 0.26018 0.412 0.0
O984 O 0.10008 0.2844 0.38679 0.0
C985 C 0.0596 0.31265 0.41679 0.0
O986 O 0.13285 0.31315 0.4063 0.0
O987 O 0.11595 0.33187 0.4329 0.0
In988 In 0.44996 0.64386 0.32612 0.0
O989 O 0.43364 0.61095 0.33904 0.0
O990 O 0.41493 0.63177 0.31516 0.0
C991 C 0.48913 0.64958 0.34972 0.0
C992 C 0.42763 0.67971 0.34482 0.0
C993 C 0.46824 0.63225 0.28551 0.0
O994 O 0.4742 0.63506 0.35604 0.0
O995 O 0.4844 0.66043 0.33154 0.0
O996 O 0.46099 0.65244 0.28945 0.0
O997 O 0.46571 0.61813 0.30182 0.0
C998 C 0.41531 0.614 0.32767 0.0
O999 O 0.43194 0.6791 0.32343 0.0
O1000 O 0.43444 0.66246 0.35602 0.0
In1001 In 0.10414 0.70179 0.07993 0.0
O1002 O 0.13728 0.68545 0.09263 0.0
O1003 O 0.11646 0.66691 0.06872 0.0
C1004 C 0.0994 0.74137 0.10322 0.0
C1005 C 0.06848 0.67981 0.09945 0.0
C1006 C 0.1137 0.71938 0.03845 0.0
O1007 O 0.1138 0.72627 0.10941 0.0
O1008 O 0.08819 0.73662 0.08528 0.0
O1009 O 0.09392 0.71169 0.04339 0.0
O1010 O 0.12849 0.71767 0.05427 0.0
C1011 C 0.13426 0.66719 0.08114 0.0
O1012 O 0.06887 0.6838 0.07802 0.0
O1013 O 0.08584 0.68676 0.11034 0.0
In1014 In 0.04699 0.353 0.82836 0.0
O1015 O 0.06211 0.38589 0.84273 0.0
O1016 O 0.08055 0.36817 0.81633 0.0
C1017 C 0.0113 0.34246 0.85577 0.0
C1018 C 0.07411 0.31986 0.84527 0.0
C1019 C 0.02623 0.36277 0.78828 0.0
O1020 O 0.02042 0.36221 0.85615 0.0
O1021 O 0.01951 0.32883 0.84104 0.0
O1022 O 0.03593 0.34359 0.79172 0.0
O1023 O 0.0272 0.37666 0.8049 0.0
C1024 C 0.08 0.38475 0.83037 0.0
O1025 O 0.06695 0.31912 0.82466 0.0
O1026 O 0.06789 0.33731 0.85657 0.0
In1027 In 0.39183 0.29504 0.57497 0.0
O1028 O 0.35957 0.3143 0.5855 0.0
O1029 O 0.38527 0.33239 0.56663 0.0
C1030 C 0.38813 0.25569 0.59891 0.0
C1031 C 0.43072 0.3094 0.59543 0.0
C1032 C 0.38337 0.27881 0.53269 0.0
O1033 O 0.37873 0.27406 0.60573 0.0
O1034 O 0.39843 0.25714 0.57988 0.0
O1035 O 0.40357 0.28321 0.53952 0.0
O1036 O 0.36764 0.2834 0.54695 0.0
C1037 C 0.36608 0.33309 0.57671 0.0
O1038 O 0.42911 0.30869 0.57372 0.0
O1039 O 0.41297 0.30318 0.60611 0.0
In1040 In 0.17447 0.44858 0.34995 0.0
O1041 O 0.15597 0.43154 0.37975 0.0
O1042 O 0.18362 0.41344 0.36384 0.0
C1043 C 0.14112 0.48098 0.35144 0.0
C1044 C 0.16884 0.43268 0.30668 0.0
C1045 C 0.21533 0.46748 0.36103 0.0
O1046 O 0.13707 0.46048 0.34571 0.0
O1047 O 0.16155 0.48466 0.3576 0.0
O1048 O 0.20988 0.46286 0.34051 0.0
O1049 O 0.20059 0.46174 0.3758 0.0
C1050 C 0.16805 0.41348 0.37895 0.0
O1051 O 0.17201 0.45367 0.31116 0.0
O1052 O 0.17032 0.41953 0.32384 0.0
In1053 In 0.29783 0.41587 0.10253 0.0
O1054 O 0.31343 0.40233 0.13553 0.0
O1055 O 0.33117 0.42893 0.11737 0.0
C1056 C 0.26268 0.38762 0.09252 0.0
C1057 C 0.32507 0.39922 0.0693 0.0
C1058 C 0.27582 0.45534 0.11212 0.0
O1059 O 0.27203 0.38753 0.11218 0.0
O1060 O 0.27045 0.4024 0.0787 0.0
O1061 O 0.28554 0.45205 0.0929 0.0
O1062 O 0.27749 0.43893 0.12619 0.0
C1063 C 0.331 0.41512 0.13417 0.0
O1064 O 0.3174 0.41965 0.06839 0.0
O1065 O 0.31932 0.38801 0.08697 0.0
In1066 In 0.32482 0.54543 0.84661 0.0
O1067 O 0.32803 0.54021 0.80793 0.0
O1068 O 0.32848 0.57447 0.82047 0.0
C1069 C 0.28398 0.52555 0.85651 0.0
C1070 C 0.32932 0.58104 0.87535 0.0
C1071 C 0.36038 0.51551 0.84984 0.0
O1072 O 0.29105 0.52789 0.83611 0.0
O1073 O 0.29722 0.5336 0.87159 0.0
O1074 O 0.34066 0.51117 0.8577 0.0
O1075 O 0.36247 0.53532 0.8414 0.0
C1076 C 0.33076 0.56127 0.80343 0.0
O1077 O 0.34167 0.56323 0.87688 0.0
O1078 O 0.31453 0.5807 0.85948 0.0
In1079 In 0.20032 0.57578 0.597 0.0
O1080 O 0.18432 0.59147 0.62883 0.0
O1081 O 0.16675 0.5638 0.61215 0.0
C1082 C 0.23754 0.60152 0.58744 0.0
C1083 C 0.17461 0.58837 0.5607 0.0
C1084 C 0.22052 0.53722 0.61226 0.0
O1085 O 0.2233 0.60746 0.60276 0.0
O1086 O 0.23299 0.58282 0.57747 0.0
O1087 O 0.21071 0.53809 0.59282 0.0
O1088 O 0.21974 0.55559 0.62379 0.0
C1089 C 0.16681 0.57854 0.62813 0.0
O1090 O 0.1845 0.56895 0.56131 0.0
O1091 O 0.17784 0.60083 0.57813 0.0
In1092 In 0.16791 0.54525 0.14007 0.0
O1093 O 0.15663 0.56443 0.10819 0.0
O1094 O 0.18084 0.58068 0.13049 0.0
C1095 C 0.13937 0.50916 0.14179 0.0
C1096 C 0.14873 0.56666 0.17619 0.0
C1097 C 0.20812 0.52397 0.13175 0.0
O1098 O 0.14059 0.52166 0.12404 0.0
O1099 O 0.15285 0.5144 0.1579 0.0
O1100 O 0.20271 0.53094 0.15163 0.0
O1101 O 0.19354 0.52821 0.1163 0.0
C1102 C 0.16859 0.58206 0.1126 0.0
O1103 O 0.16976 0.56085 0.1764 0.0
O1104 O 0.13818 0.56222 0.15778 0.0
In1105 In 0.19556 0.42184 0.89974 0.0
O1106 O 0.17949 0.40699 0.86759 0.0
O1107 O 0.16172 0.43397 0.88525 0.0
C1108 C 0.23285 0.3961 0.90891 0.0
C1109 C 0.17027 0.40842 0.93604 0.0
C1110 C 0.21605 0.46024 0.88455 0.0
O1111 O 0.21848 0.39013 0.89372 0.0
O1112 O 0.22838 0.4148 0.91891 0.0
O1113 O 0.20679 0.45927 0.90427 0.0
O1114 O 0.21448 0.44212 0.87272 0.0
C1115 C 0.16187 0.41976 0.86878 0.0
O1116 O 0.17984 0.42801 0.93562 0.0
O1117 O 0.1735 0.39627 0.91838 0.0
In1118 In 0.32886 0.45036 0.64414 0.0
O1119 O 0.32494 0.44701 0.68336 0.0
O1120 O 0.34211 0.42039 0.66529 0.0
C1121 C 0.28718 0.46974 0.63792 0.0
C1122 C 0.33254 0.41708 0.61265 0.0
C1123 C 0.36145 0.48374 0.64169 0.0
O1124 O 0.29712 0.46963 0.65724 0.0
O1125 O 0.29786 0.45936 0.62221 0.0
O1126 O 0.3424 0.48517 0.63154 0.0
O1127 O 0.36442 0.46516 0.65233 0.0
C1128 C 0.33585 0.42825 0.68446 0.0
O1129 O 0.34558 0.43449 0.61268 0.0
O1130 O 0.31726 0.41698 0.62808 0.0
In1131 In 0.2996 0.57806 0.3951 0.0
O1132 O 0.31509 0.59137 0.36202 0.0
O1133 O 0.33303 0.56511 0.38052 0.0
C1134 C 0.26365 0.60551 0.40435 0.0
C1135 C 0.32673 0.5961 0.42768 0.0
C1136 C 0.27921 0.53792 0.38511 0.0
O1137 O 0.27332 0.60565 0.38485 0.0
O1138 O 0.27151 0.591 0.41843 0.0
O1139 O 0.28814 0.54152 0.40466 0.0
O1140 O 0.28059 0.55445 0.37115 0.0
C1141 C 0.33271 0.57864 0.3635 0.0
O1142 O 0.31931 0.57561 0.4293 0.0
O1143 O 0.3207 0.60668 0.40972 0.0
In1144 In 0.35281 0.16828 0.44983 0.0
O1145 O 0.38538 0.15537 0.43264 0.0
O1146 O 0.36339 0.17812 0.41397 0.0
C1147 C 0.3499 0.145 0.4896 0.0
C1148 C 0.3161 0.14891 0.42964 0.0
C1149 C 0.36309 0.20998 0.4664 0.0
O1150 O 0.36341 0.13871 0.47375 0.0
O1151 O 0.33867 0.16311 0.48551 0.0
O1152 O 0.34297 0.20488 0.4598 0.0
O1153 O 0.37784 0.1942 0.4641 0.0
C1154 C 0.38134 0.16592 0.41402 0.0
O1155 O 0.31704 0.17044 0.4329 0.0
O1156 O 0.33339 0.13785 0.43652 0.0
In1157 In 0.84378 0.324 0.54791 0.0
O1158 O 0.80791 0.31798 0.56368 0.0
O1159 O 0.82509 0.34971 0.56984 0.0
C1160 C 0.85716 0.28401 0.52922 0.0
C1161 C 0.87519 0.32724 0.58113 0.0
C1162 C 0.83627 0.34935 0.50983 0.0
O1163 O 0.83728 0.28662 0.5377 0.0
O1164 O 0.87014 0.30133 0.53069 0.0
O1165 O 0.85064 0.3555 0.52491 0.0
O1166 O 0.82615 0.33066 0.51399 0.0
C1167 C 0.80753 0.33753 0.57327 0.0
O1168 O 0.87623 0.33928 0.56301 0.0
O1169 O 0.85876 0.31303 0.58192 0.0
In1170 In 0.41831 0.10308 0.29319 0.0
O1171 O 0.40262 0.13349 0.31182 0.0
O1172 O 0.42925 0.11475 0.32866 0.0
C1173 C 0.38479 0.10916 0.26158 0.0
C1174 C 0.40883 0.05974 0.30698 0.0
C1175 C 0.45989 0.11097 0.27423 0.0
O1176 O 0.40557 0.11395 0.25782 0.0
O1177 O 0.38062 0.1026 0.28181 0.0
O1178 O 0.45255 0.0909 0.27809 0.0
O1179 O 0.44661 0.12682 0.28061 0.0
C1180 C 0.41496 0.13105 0.32954 0.0
O1181 O 0.41182 0.06508 0.28617 0.0
O1182 O 0.41237 0.07589 0.32099 0.0
In1183 In 0.64053 0.6684 0.04533 0.0
O1184 O 0.67567 0.67022 0.06359 0.0
O1185 O 0.65953 0.6377 0.0588 0.0
C1186 C 0.63132 0.71041 0.02869 0.0
C1187 C 0.61064 0.66552 0.08009 0.0
C1188 C 0.64505 0.64567 0.00534 0.0
O1189 O 0.65112 0.70498 0.03594 0.0
O1190 O 0.61627 0.69486 0.03047 0.0
O1191 O 0.63091 0.63914 0.02052 0.0
O1192 O 0.65604 0.66373 0.01016 0.0
C1193 C 0.67657 0.64863 0.06644 0.0
O1194 O 0.60722 0.65541 0.06111 0.0
O1195 O 0.62865 0.6776 0.08101 0.0
In1196 In 0.57367 0.40144 0.29934 0.0
O1197 O 0.56706 0.43679 0.31573 0.0
O1198 O 0.59776 0.4186 0.32419 0.0
C1199 C 0.5347 0.38995 0.27714 0.0
C1200 C 0.57508 0.37021 0.33298 0.0
C1201 C 0.60413 0.41008 0.26538 0.0
O1202 O 0.53783 0.40993 0.28512 0.0
O1203 O 0.55104 0.37615 0.28042 0.0
O1204 O 0.6032 0.39072 0.2752 0.0
O1205 O 0.58937 0.42439 0.27215 0.0
C1206 C 0.58584 0.43653 0.32679 0.0
O1207 O 0.58838 0.36939 0.31576 0.0
O1208 O 0.56059 0.38641 0.33275 0.0
In1209 In 0.14017 0.82827 0.9523 0.0
O1210 O 0.1073 0.83887 0.93406 0.0
O1211 O 0.13166 0.81851 0.91571 0.0
C1212 C 0.13844 0.85221 0.99182 0.0
C1213 C 0.17816 0.84853 0.93531 0.0
C1214 C 0.13212 0.78622 0.96937 0.0
O1215 O 0.12796 0.85897 0.97401 0.0
O1216 O 0.14897 0.83339 0.98971 0.0
O1217 O 0.15215 0.79283 0.96396 0.0
O1218 O 0.1163 0.80057 0.96538 0.0
C1219 C 0.11271 0.82908 0.9154 0.0
O1220 O 0.17699 0.82689 0.93743 0.0
O1221 O 0.16043 0.85926 0.94152 0.0
In1222 In 0.42175 0.89725 0.19859 0.0
O1223 O 0.41552 0.93525 0.20563 0.0
O1224 O 0.41606 0.92447 0.17079 0.0
C1225 C 0.46406 0.8887 0.21552 0.0
C1226 C 0.41591 0.8688 0.16294 0.0
C1227 C 0.38906 0.89201 0.23122 0.0
O1228 O 0.45688 0.90888 0.21197 0.0
O1229 O 0.45019 0.87308 0.20991 0.0
O1230 O 0.41005 0.88804 0.2348 0.0
O1231 O 0.38433 0.89753 0.21079 0.0
C1232 C 0.41266 0.94064 0.18481 0.0
O1233 O 0.40512 0.86638 0.18164 0.0
O1234 O 0.42993 0.88536 0.16245 0.0
In1235 In 0.07279 0.09288 0.69686 0.0
O1236 O 0.09037 0.12481 0.68283 0.0
O1237 O 0.06197 0.11088 0.66423 0.0
C1238 C 0.10536 0.09225 0.73042 0.0
C1239 C 0.07973 0.05474 0.67122 0.0
C1240 C 0.03132 0.09953 0.71673 0.0
O1241 O 0.08788 0.10499 0.7313 0.0
O1242 O 0.10683 0.08052 0.71236 0.0
O1243 O 0.04126 0.0802 0.71701 0.0
O1244 O 0.04178 0.11485 0.70561 0.0
C1245 C 0.07756 0.12595 0.66526 0.0
O1246 O 0.06756 0.05425 0.68926 0.0
O1247 O 0.08707 0.07436 0.66591 0.0
C1248 C 0.09859 0.20376 0.36856 0.0
C1249 C 0.08584 0.20753 0.34839 0.0
H1250 H 0.11527 0.2187 0.39765 0.0
C1251 C 0.08288 0.23012 0.3404 0.0
H1252 H 0.10139 0.18649 0.37497 0.0
C1253 C 0.09084 0.24871 0.35353 0.0
C1254 C 0.10194 0.24488 0.3747 0.0
H1255 H 0.07314 0.23348 0.32489 0.0
H1256 H 0.08703 0.26603 0.34782 0.0
C1257 C 0.10661 0.22222 0.38154 0.0
C1258 C 0.02855 0.83469 0.64217 0.0
C1259 C 0.0092 0.84341 0.63082 0.0
H1260 H 0.06178 0.81972 0.63912 0.0
C1261 C 0.00923 0.84481 0.60668 0.0
H1262 H 0.02896 0.83349 0.66077 0.0
C1263 C 0.02802 0.83644 0.59407 0.0
C1264 C 0.04707 0.82698 0.60554 0.0
H1265 H 0.99434 0.85132 0.59759 0.0
H1266 H 0.02746 0.83692 0.57546 0.0
C1267 C 0.04733 0.82677 0.62971 0.0
C1268 C 0.39838 0.76252 0.8607 0.0
C1269 C 0.40069 0.7612 0.88474 0.0
H1270 H 0.40532 0.78223 0.83016 0.0
C1271 C 0.41019 0.77982 0.8967 0.0
H1272 H 0.39125 0.74823 0.85111 0.0
C1273 C 0.41792 0.79913 0.88489 0.0
C1274 C 0.41672 0.80014 0.86078 0.0
H1275 H 0.41212 0.77925 0.91523 0.0
H1276 H 0.42557 0.81298 0.89472 0.0
C1277 C 0.40655 0.78182 0.84874 0.0
C1278 C 0.49079 0.18333 0.11894 0.0
C1279 C 0.49437 0.15979 0.12298 0.0
H1280 H 0.4697 0.20905 0.10334 0.0
C1281 C 0.47981 0.14369 0.11247 0.0
H1282 H 0.50197 0.19611 0.12659 0.0
C1283 C 0.46108 0.15114 0.09927 0.0
C1284 C 0.457 0.17477 0.09603 0.0
H1285 H 0.48231 0.12544 0.11524 0.0
H1286 H 0.44939 0.13846 0.09227 0.0
C1287 C 0.47244 0.19074 0.10543 0.0
C1288 C 0.07769 0.80052 0.1171 0.0
C1289 C 0.07824 0.80069 0.14126 0.0
H1290 H 0.08404 0.7816 0.08627 0.0
C1291 C 0.08793 0.78186 0.15293 0.0
H1292 H 0.07043 0.81478 0.10755 0.0
C1293 C 0.09622 0.76287 0.14053 0.0
C1294 C 0.09449 0.7624 0.11642 0.0
H1295 H 0.08865 0.78161 0.17154 0.0
H1296 H 0.10292 0.74818 0.14981 0.0
C1297 C 0.08551 0.78153 0.10485 0.0
C1298 C 0.46499 0.84097 0.39575 0.0
C1299 C 0.4469 0.8301 0.384 0.0
H1300 H 0.49836 0.85667 0.393 0.0
C1301 C 0.4481 0.82793 0.35996 0.0
H1302 H 0.46443 0.84294 0.41426 0.0
C1303 C 0.46737 0.83548 0.34799 0.0
C1304 C 0.48576 0.84573 0.35968 0.0
H1305 H 0.43443 0.81971 0.35036 0.0
H1306 H 0.46808 0.83285 0.32955 0.0
C1307 C 0.48426 0.84894 0.3836 0.0
C1308 C 0.39403 0.23692 0.6371 0.0
C1309 C 0.39044 0.23502 0.61327 0.0
H1310 H 0.40651 0.2203 0.66765 0.0
C1311 C 0.39326 0.21364 0.60257 0.0
H1312 H 0.39214 0.25336 0.64565 0.0
C1313 C 0.40115 0.19482 0.61508 0.0
C1314 C 0.40685 0.19713 0.63846 0.0
H1315 H 0.39055 0.21178 0.58422 0.0
H1316 H 0.40416 0.17883 0.606 0.0
C1317 C 0.40237 0.21809 0.64962 0.0
C1318 C 0.044 0.17943 0.86234 0.0
C1319 C 0.04598 0.17552 0.88609 0.0
H1320 H 0.02355 0.17587 0.83212 0.0
C1321 C 0.02823 0.16385 0.89762 0.0
H1322 H 0.05735 0.18839 0.85294 0.0
C1323 C 0.00879 0.1563 0.88545 0.0
C1324 C 0.00676 0.16071 0.86175 0.0
H1325 H 0.02939 0.16055 0.91591 0.0
H1326 H 0.99519 0.14749 0.89463 0.0
C1327 C 0.02459 0.17228 0.85038 0.0
C1328 C 0.36209 0.10522 0.20139 0.0
C1329 C 0.34324 0.09044 0.20443 0.0
H1330 H 0.38981 0.12327 0.21734 0.0
C1331 C 0.33543 0.08579 0.2268 0.0
H1332 H 0.36829 0.10936 0.18431 0.0
C1333 C 0.34781 0.09382 0.24582 0.0
C1334 C 0.3681 0.1066 0.24264 0.0
H1335 H 0.3209 0.07449 0.2296 0.0
H1336 H 0.34253 0.08849 0.26287 0.0
C1337 C 0.37439 0.11325 0.22032 0.0
C1338 C 0.14891 0.10786 0.48566 0.0
C1339 C 0.15062 0.13197 0.48655 0.0
H1340 H 0.15592 0.07724 0.46608 0.0
C1341 C 0.15887 0.14391 0.46733 0.0
H1342 H 0.14275 0.09829 0.5004 0.0
C1343 C 0.16609 0.13205 0.44785 0.0
C1344 C 0.16561 0.10789 0.44723 0.0
H1345 H 0.16029 0.16249 0.46755 0.0
H1346 H 0.17283 0.1419 0.43355 0.0
C1347 C 0.15656 0.09585 0.46615 0.0
C1348 C 0.14189 0.9396 0.72312 0.0
C1349 C 0.15072 0.92338 0.7076 0.0
H1350 H 0.12038 0.94568 0.75227 0.0
C1351 C 0.1463 0.89988 0.71135 0.0
H1352 H 0.14489 0.95782 0.72066 0.0
C1353 C 0.13235 0.89287 0.7297 0.0
C1354 C 0.12227 0.90933 0.74419 0.0
H1355 H 0.15284 0.88701 0.69957 0.0
H1356 H 0.12858 0.87476 0.73188 0.0
C1357 C 0.12764 0.93266 0.74108 0.0
C1358 C 0.34578 0.87679 0.95375 0.0
C1359 C 0.33348 0.89729 0.95722 0.0
H1360 H 0.36173 0.84752 0.96916 0.0
C1361 C 0.33057 0.90562 0.97969 0.0
H1362 H 0.34855 0.87012 0.93658 0.0
C1363 C 0.33816 0.89256 -0.00152 0.0
C1364 C 0.34881 0.87111 0.99496 0.0
H1365 H 0.32119 0.9214 0.9828 0.0
H1366 H 0.33441 0.89858 0.0157 0.0
C1367 C 0.35341 0.86387 0.97242 0.0
C1368 C 0.36613 0.89596 0.29145 0.0
C1369 C 0.34607 0.909 0.2881 0.0
H1370 H 0.3953 0.87994 0.27591 0.0
C1371 C 0.33809 0.91271 0.26562 0.0
H1372 H 0.37254 0.89259 0.30862 0.0
C1373 C 0.35121 0.9054 0.24678 0.0
C1374 C 0.37241 0.89429 0.25024 0.0
H1375 H 0.32266 0.92267 0.26256 0.0
H1376 H 0.34555 0.9099 0.22961 0.0
C1377 C 0.37917 0.88867 0.27271 0.0
C1378 C 0.33014 0.13041 0.54926 0.0
C1379 C 0.33035 0.10624 0.54897 0.0
H1380 H 0.33627 0.16149 0.53067 0.0
C1381 C 0.33936 0.0948 0.52967 0.0
H1382 H 0.32344 0.13978 0.5639 0.0
C1383 C 0.3472 0.10744 0.51065 0.0
C1384 C 0.34571 0.13157 0.51063 0.0
H1385 H 0.33981 0.07619 0.52906 0.0
H1386 H 0.3533 0.09834 0.49559 0.0
C1387 C 0.33753 0.1429 0.53025 0.0
C1388 C 0.15249 0.0678 0.76802 0.0
C1389 C 0.14582 0.07595 0.78973 0.0
H1390 H 0.14479 0.06665 0.73197 0.0
C1391 C 0.12763 0.09179 0.79126 0.0
H1392 H 0.16645 0.05557 0.76637 0.0
C1393 C 0.11542 0.09829 0.77166 0.0
C1394 C 0.12098 0.08887 0.75016 0.0
H1395 H 0.12223 0.0985 0.80779 0.0
H1396 H 0.10085 0.10973 0.77358 0.0
C1397 C 0.14007 0.07411 0.74838 0.0
C1398 C 0.15255 0.9021 0.0307 0.0
C1399 C 0.15677 0.89048 0.05147 0.0
H1400 H 0.14267 0.89892 0.99521 0.0
C1401 C 0.15125 0.86699 0.05312 0.0
H1402 H 0.15659 0.9202 0.02898 0.0
C1403 C 0.14369 0.8549 0.0339 0.0
C1404 C 0.14095 0.86612 0.01277 0.0
H1405 H 0.15411 0.85754 0.06892 0.0
H1406 H 0.14102 0.83651 0.0353 0.0
C1407 C 0.14448 0.88999 0.01146 0.0
C1408 C 0.24086 0.36711 0.06208 0.0
C1409 C 0.24444 0.37147 0.08556 0.0
H1410 H 0.21983 0.35105 0.0366 0.0
C1411 C 0.23007 0.36096 0.10184 0.0
H1412 H 0.25191 0.37475 0.04917 0.0
C1413 C 0.21146 0.34749 0.0946 0.0
C1414 C 0.20731 0.344 0.07102 0.0
H1415 H 0.23258 0.36396 0.12005 0.0
H1416 H 0.19987 0.34052 0.10741 0.0
C1417 C 0.22262 0.35335 0.05488 0.0
C1418 C 0.71172 0.14479 0.90196 0.0
C1419 C 0.70791 0.14884 0.92552 0.0
H1420 H 0.73235 0.12754 0.8766 0.0
C1421 C 0.7233 0.13962 0.94165 0.0
H1422 H 0.70004 0.15164 0.88917 0.0
C1423 C 0.74127 0.12547 0.93452 0.0
C1424 C 0.74452 0.12059 0.91109 0.0
H1425 H 0.72078 0.14233 0.95991 0.0
H1426 H 0.75241 0.11798 0.94745 0.0
C1427 C 0.73008 0.13095 0.89477 0.0
C1428 C 0.11424 0.44996 0.14222 0.0
C1429 C 0.09776 0.45217 0.1598 0.0
H1430 H 0.14022 0.46689 0.12216 0.0
C1431 C 0.09252 0.47411 0.16836 0.0
H1432 H 0.11859 0.43319 0.13536 0.0
C1433 C 0.10513 0.49319 0.16106 0.0
C1434 C 0.12264 0.49064 0.14468 0.0
H1435 H 0.08005 0.47626 0.18204 0.0
H1436 H 0.10214 0.5097 0.16919 0.0
C1437 C 0.12654 0.46915 0.1346 0.0
C1438 C 0.77563 0.88386 0.39645 0.0
C1439 C 0.75319 0.87546 0.39916 0.0
H1440 H 0.81134 0.87869 0.40294 0.0
C1441 C 0.74996 0.85333 0.40839 0.0
H1442 H 0.77871 0.90078 0.38927 0.0
C1443 C 0.76882 0.84055 0.41631 0.0
C1444 C 0.79108 0.84982 0.41513 0.0
H1445 H 0.73282 0.84645 0.4107 0.0
H1446 H 0.76586 0.82407 0.42447 0.0
C1447 C 0.79435 0.87121 0.40437 0.0
C1448 C 0.9086 0.01799 0.16466 0.0
C1449 C 0.90004 0.04022 0.16071 0.0
H1450 H 0.90225 0.98176 0.16177 0.0
C1451 C 0.88011 0.04295 0.14737 0.0
H1452 H 0.92395 0.01544 0.17488 0.0
C1453 C 0.86782 0.02383 0.1398 0.0
C1454 C 0.87515 0.00157 0.14552 0.0
H1455 H 0.87328 0.05991 0.1438 0.0
H1456 H 0.85181 0.02657 0.1307 0.0
C1457 C 0.89618 -0.00125 0.15714 0.0
C1458 C 0.26005 0.63854 0.5868 0.0
C1459 C 0.25804 0.61509 0.5812 0.0
H1460 H 0.28052 0.66924 0.5839 0.0
C1461 C 0.27567 0.60445 0.56867 0.0
H1462 H 0.2466 0.64716 0.59637 0.0
C1463 C 0.29491 0.61685 0.56184 0.0
C1464 C 0.29693 0.64034 0.56707 0.0
H1465 H 0.27464 0.5864 0.56413 0.0
H1466 H 0.30815 0.608 0.55218 0.0
C1467 C 0.27933 0.65116 0.57959 0.0
C1468 C 0.09161 0.51514 0.32672 0.0
C1469 C 0.0993 0.53766 0.33074 0.0
H1470 H 0.09893 0.47915 0.33038 0.0
C1471 C 0.11875 0.54115 0.34461 0.0
H1472 H 0.07662 0.51202 0.31612 0.0
C1473 C 0.13131 0.52252 0.35288 0.0
C1474 C 0.12479 0.49998 0.34733 0.0
H1475 H 0.12488 0.55836 0.34827 0.0
H1476 H 0.14687 0.52587 0.36255 0.0
C1477 C 0.10434 0.49638 0.33492 0.0
C1478 C 0.39513 0.49983 0.83 0.0
C1479 C 0.37805 0.49753 0.84697 0.0
H1480 H 0.41994 0.48253 0.80888 0.0
C1481 C 0.37585 0.47654 0.85863 0.0
H1482 H 0.3972 0.51586 0.82073 0.0
C1483 C 0.38906 0.45762 0.85208 0.0
C1484 C 0.40446 0.45923 0.83349 0.0
H1485 H 0.36296 0.47435 0.8719 0.0
H1486 H 0.38593 0.44129 0.86049 0.0
C1487 C 0.40817 0.48076 0.82321 0.0
C1488 C 0.89899 0.75964 0.63783 0.0
C1489 C 0.90032 0.75888 0.61369 0.0
H1490 H 0.90691 0.77882 0.66846 0.0
C1491 C 0.90886 0.77797 0.60174 0.0
H1492 H 0.89262 0.74498 0.6474 0.0
C1493 C 0.9167 0.79718 0.61361 0.0
C1494 C 0.91659 0.79763 0.63778 0.0
H1495 H 0.91001 0.77782 0.58313 0.0
H1496 H 0.92364 0.81139 0.60376 0.0
C1497 C 0.90729 0.77886 0.64984 0.0
C1498 C 0.97135 0.17816 0.34947 0.0
C1499 C 0.98914 0.16608 0.36033 0.0
H1500 H 0.93865 0.19428 0.35277 0.0
C1501 C 0.98716 0.16071 0.38383 0.0
H1502 H 0.97238 0.18251 0.33137 0.0
C1503 C 0.96778 0.16784 0.39635 0.0
C1504 C 0.95006 0.18003 0.38535 0.0
H1505 H 0.00076 0.1515 0.39261 0.0
H1506 H 0.96663 0.16379 0.41449 0.0
C1507 C 0.952 0.1849 0.36177 0.0
C1508 C 0.59183 0.19305 0.1141 0.0
C1509 C 0.58757 0.1945 0.13786 0.0
H1510 H 0.60086 0.21105 0.08334 0.0
C1511 C 0.59273 0.21503 0.14949 0.0
H1512 H 0.58823 0.17741 0.10463 0.0
C1513 C 0.60051 0.23426 0.13721 0.0
C1514 C 0.6028 0.23319 0.11317 0.0
H1515 H 0.58969 0.21657 0.16781 0.0
H1516 H 0.60311 0.25034 0.14624 0.0
C1517 C 0.59912 0.21227 0.10186 0.0
C1518 C 0.52969 0.83974 0.90117 0.0
C1519 C 0.54784 0.82906 0.88931 0.0
H1520 H 0.4964 0.85562 0.89852 0.0
C1521 C 0.54681 0.82742 0.86523 0.0
H1522 H 0.53013 0.84131 0.91972 0.0
C1523 C 0.52766 0.83531 0.85329 0.0
C1524 C 0.50923 0.84538 0.86507 0.0
H1525 H 0.56053 0.81937 0.85554 0.0
H1526 H 0.5271 0.83309 0.83479 0.0
C1527 C 0.51054 0.84805 0.88906 0.0
C1528 C 0.89708 0.19922 0.86618 0.0
C1529 C 0.91075 0.2019 0.84644 0.0
H1530 H 0.87923 0.21568 0.89374 0.0
C1531 C 0.91434 0.22408 0.83758 0.0
H1532 H 0.89377 0.1823 0.87325 0.0
C1533 C 0.90597 0.24335 0.84944 0.0
C1534 C 0.89383 0.24064 0.87022 0.0
H1535 H 0.92479 0.2266 0.82237 0.0
H1536 H 0.91023 0.26035 0.84311 0.0
C1537 C 0.88866 0.21836 0.8779 0.0
C1538 C 0.51575 0.14808 0.6113 0.0
C1539 C 0.50182 0.16421 0.62262 0.0
H1540 H 0.54555 0.1427 0.59021 0.0
C1541 C 0.50586 0.18777 0.61913 0.0
H1542 H 0.51289 0.12982 0.61361 0.0
C1543 C 0.52408 0.19512 0.60539 0.0
C1544 C 0.53891 0.17906 0.59517 0.0
H1545 H 0.49516 0.20059 0.62739 0.0
H1546 H 0.52721 0.21341 0.60376 0.0
C1547 C 0.53432 0.15546 0.59784 0.0
C1548 C 0.57773 0.80039 0.38176 0.0
C1549 C 0.57859 0.80037 0.35761 0.0
H1550 H 0.58398 0.78182 0.41281 0.0
C1551 C 0.58869 0.78161 0.3462 0.0
H1552 H 0.57017 0.81463 0.3911 0.0
C1553 C 0.59707 0.76284 0.35885 0.0
C1554 C 0.59506 0.76255 0.38294 0.0
H1555 H 0.58968 0.78124 0.32761 0.0
H1556 H 0.60408 0.74816 0.34977 0.0
C1557 C 0.58568 0.78163 0.39425 0.0
C1558 C 0.94907 0.82815 0.13245 0.0
C1559 C 0.94966 0.82904 0.1083 0.0
H1560 H 0.96674 0.83462 0.16395 0.0
C1561 C 0.96857 0.83937 0.09737 0.0
H1562 H 0.93471 0.82043 0.14146 0.0
C1563 C 0.98692 0.84798 0.11049 0.0
C1564 C 0.98663 0.84596 0.13459 0.0
H1565 H 0.96938 0.84038 0.07879 0.0
H1566 H 0.00173 0.85517 0.10179 0.0
C1567 C 0.9674 0.83634 0.1454 0.0
C1568 C 0.65702 0.91237 0.76942 0.0
C1569 C 0.64863 0.90882 0.79179 0.0
H1570 H 0.65032 0.90901 0.73329 0.0
C1571 C 0.62868 0.89558 0.79489 0.0
H1572 H 0.67238 0.92249 0.76658 0.0
C1573 C 0.61618 0.8878 0.77599 0.0
C1574 C 0.62332 0.89318 0.75357 0.0
H1575 H 0.62198 0.89231 0.81197 0.0
H1576 H 0.60013 0.87884 0.779 0.0
C1577 C 0.64439 0.90463 0.7504 0.0
C1578 C 0.82552 0.84931 0.52906 0.0
C1579 C 0.83563 0.86037 0.51019 0.0
H1580 H 0.81061 0.85268 0.56235 0.0
C1581 C 0.83912 0.88429 0.51101 0.0
H1582 H 0.82269 0.83089 0.52893 0.0
C1583 C 0.83177 0.89701 0.53019 0.0
C1584 C 0.82126 0.88584 0.54888 0.0
H1585 H 0.84677 0.89321 0.49656 0.0
H1586 H 0.83412 0.91548 0.53032 0.0
C1587 C 0.8186 0.86184 0.54822 0.0
C1588 C 0.88319 0.06299 0.29358 0.0
C1589 C 0.85961 0.06781 0.29542 0.0
H1590 H 0.91371 0.06568 0.27343 0.0
C1591 C 0.8487 0.08008 0.27768 0.0
H1592 H 0.89211 0.05355 0.30694 0.0
C1593 C 0.86132 0.0874 0.25843 0.0
C1594 C 0.88485 0.08218 0.25658 0.0
H1595 H 0.83056 0.08409 0.27875 0.0
H1596 H 0.85261 0.09671 0.24486 0.0
C1597 C 0.8956 0.06994 0.27436 0.0
C1598 C 0.63981 0.12836 0.02634 0.0
C1599 C 0.64458 0.1206 0.004 0.0
H1600 H 0.64507 0.1234 0.06234 0.0
C1601 C 0.65597 0.09945 0.00109 0.0
H1602 H 0.63092 0.14449 0.02915 0.0
C1603 C 0.66411 0.08726 0.02023 0.0
C1604 C 0.66103 0.09618 0.04246 0.0
H1605 H 0.65987 0.09305 0.98403 0.0
H1606 H 0.67405 0.07174 0.01755 0.0
C1607 C 0.64799 0.1163 0.04536 0.0
C1608 C 0.65101 0.09314 0.7175 0.0
C1609 C 0.63997 0.08923 0.69637 0.0
H1610 H 0.64685 0.10264 0.75297 0.0
C1611 C 0.61669 0.09524 0.69399 0.0
H1612 H 0.66896 0.08875 0.71976 0.0
C1613 C 0.60412 0.10284 0.71287 0.0
C1614 C 0.61468 0.10507 0.73438 0.0
H1615 H 0.60771 0.09268 0.67786 0.0
H1616 H 0.58583 0.10579 0.71093 0.0
C1617 C 0.63843 0.10121 0.73641 0.0
C1618 C 0.68867 0.89504 0.47712 0.0
C1619 C 0.6727 0.90235 0.46059 0.0
H1620 H 0.6947 0.87451 0.50703 0.0
C1621 C 0.64945 0.89615 0.46315 0.0
H1622 H 0.70669 0.89942 0.47556 0.0
C1623 C 0.64252 0.88204 0.4814 0.0
C1624 C 0.65884 0.87352 0.49698 0.0
H1625 H 0.6368 0.90149 0.45057 0.0
H1626 H 0.62467 0.87691 0.48268 0.0
C1627 C 0.68184 0.88057 0.49499 0.0
C1628 C 0.855 0.93993 0.22647 0.0
C1629 C 0.84579 0.92393 0.21095 0.0
H1630 H 0.87629 0.94546 0.25589 0.0
C1631 C 0.84954 0.90033 0.21478 0.0
H1632 H 0.85251 0.95822 0.22395 0.0
C1633 C 0.86308 0.89297 0.23332 0.0
C1634 C 0.8734 0.90914 0.24794 0.0
H1635 H 0.84269 0.88762 0.20302 0.0
H1636 H 0.86625 0.87476 0.23561 0.0
C1637 C 0.86882 0.93263 0.24464 0.0
C1638 C 0.85077 0.10638 0.98657 0.0
C1639 C 0.85306 0.1304 0.98521 0.0
H1640 H 0.83971 0.0756 0.96936 0.0
C1641 C 0.84898 0.1415 0.96423 0.0
H1642 H 0.85366 0.09752 0.0027 0.0
C1643 C 0.84138 0.12906 0.94526 0.0
C1644 C 0.83721 0.10531 0.947 0.0
H1645 H 0.8507 0.16 0.96277 0.0
H1646 H 0.83754 0.13838 0.92959 0.0
C1647 C 0.84269 0.09389 0.96759 0.0
C1648 C 0.77865 0.60133 0.91327 0.0
C1649 C 0.76043 0.61292 0.90262 0.0
H1650 H 0.81118 0.60384 0.92982 0.0
C1651 C 0.76177 0.63688 0.89962 0.0
H1652 H 0.77808 0.58287 0.91575 0.0
C1653 C 0.78074 0.64913 0.90812 0.0
C1654 C 0.79869 0.63745 0.91933 0.0
H1655 H 0.74778 0.64619 0.8916 0.0
H1656 H 0.78122 0.66765 0.90624 0.0
C1657 C 0.79761 0.6134 0.92136 0.0
C1658 C 0.25202 0.86647 0.06318 0.0
C1659 C 0.24865 0.8707 0.08671 0.0
H1660 H 0.27227 0.84982 0.03749 0.0
C1661 C 0.26246 0.85924 0.10285 0.0
H1662 H 0.24135 0.87479 0.05037 0.0
C1663 C 0.28042 0.84499 0.09543 0.0
C1664 C 0.28446 0.84169 0.07179 0.0
H1665 H 0.26006 0.86212 0.1211 0.0
H1666 H 0.29168 0.83733 0.10813 0.0
C1667 C 0.26959 0.85196 0.0558 0.0
C1668 C 0.87624 0.50125 0.8054 0.0
C1669 C 0.87165 0.49636 0.82861 0.0
H1670 H 0.89355 0.52294 0.78132 0.0
C1671 C 0.88302 0.50899 0.84575 0.0
H1672 H 0.86794 0.49157 0.79181 0.0
C1673 C 0.89763 0.52718 0.83972 0.0
C1674 C 0.90139 0.5327 0.81646 0.0
H1675 H 0.87986 0.50547 0.86377 0.0
H1676 H 0.90528 0.53745 0.85325 0.0
C1677 C 0.89109 0.51908 0.79939 0.0
C1678 C 0.20043 0.11104 0.5759 0.0
C1679 C 0.19965 0.13511 0.5778 0.0
H1680 H 0.21985 0.08035 0.58112 0.0
C1681 C 0.21801 0.14668 0.58843 0.0
H1682 H 0.18654 0.10158 0.56788 0.0
C1683 C 0.23709 0.13429 0.59647 0.0
C1684 C 0.23812 0.11031 0.59356 0.0
H1685 H 0.21776 0.16521 0.5902 0.0
H1686 H 0.25139 0.14351 0.60403 0.0
C1687 C 0.2195 0.09883 0.58351 0.0
C1688 C 0.09341 0.96922 0.83731 0.0
C1689 C 0.1046 0.94798 0.83456 0.0
H1690 H 0.09724 0.00518 0.84498 0.0
C1691 C 0.12804 0.94625 0.84013 0.0
H1692 H 0.07535 0.97101 0.83317 0.0
C1693 C 0.14049 0.96566 0.84646 0.0
C1694 C 0.1297 0.98714 0.8478 0.0
H1695 H 0.13717 0.9301 0.83839 0.0
H1696 H 0.1588 0.96401 0.84942 0.0
C1697 C 0.10588 0.9887 0.8441 0.0
C1698 C 0.69438 0.38243 0.40255 0.0
C1699 C 0.69578 0.35889 0.40788 0.0
H1700 H 0.71242 0.41273 0.39218 0.0
C1701 C 0.71631 0.34701 0.40325 0.0
H1702 H 0.67876 0.39208 0.40571 0.0
C1703 C 0.73557 0.35892 0.39494 0.0
C1704 C 0.73453 0.38282 0.39156 0.0
H1705 H 0.71783 0.32886 0.40712 0.0
H1706 H 0.75165 0.34977 0.39279 0.0
C1707 C 0.71361 0.3943 0.39472 0.0
C1708 C 0.8824 0.48137 0.65054 0.0
C1709 C 0.87082 0.49405 0.66751 0.0
H1710 H 0.90396 0.45229 0.64329 0.0
C1711 C 0.87427 0.48851 0.69076 0.0
H1712 H 0.8801 0.48538 0.63249 0.0
C1713 C 0.88823 0.47004 0.69694 0.0
C1714 C 0.89874 0.45643 0.67999 0.0
H1715 H 0.86578 0.49821 0.70422 0.0
H1716 H 0.88984 0.46574 0.71501 0.0
C1717 C 0.89611 0.46254 0.65673 0.0
C1718 C 0.58753 0.51853 0.16034 0.0
C1719 C 0.59588 0.5408 0.15618 0.0
H1720 H 0.59431 0.48237 0.15809 0.0
C1721 C 0.61585 0.54357 0.14288 0.0
H1722 H 0.57216 0.51592 0.17052 0.0
C1723 C 0.62847 0.52448 0.13577 0.0
C1724 C 0.62137 0.50225 0.14186 0.0
H1725 H 0.62254 0.56056 0.13917 0.0
H1726 H 0.64457 0.52724 0.12683 0.0
C1727 C 0.60022 0.49935 0.15322 0.0
C1728 C 0.58641 0.7181 0.89513 0.0
C1729 C 0.59524 0.73744 0.88382 0.0
H1730 H 0.57141 0.68486 0.892 0.0
C1731 C 0.59686 0.73733 0.85969 0.0
H1732 H 0.58502 0.71774 0.91371 0.0
C1733 C 0.58859 0.71851 0.84704 0.0
C1734 C 0.57899 0.69949 0.85846 0.0
H1735 H 0.60346 0.7522 0.8506 0.0
H1736 H 0.58922 0.71905 0.82843 0.0
C1737 C 0.57857 0.69928 0.88263 0.0
C1738 C 0.50716 0.33787 0.1097 0.0
C1739 C 0.50519 0.33271 0.13326 0.0
H1740 H 0.5276 0.33436 0.07901 0.0
C1741 C 0.52285 0.32041 0.14411 0.0
H1742 H 0.49367 0.34724 0.10092 0.0
C1743 C 0.54206 0.31332 0.13181 0.0
C1744 C 0.54403 0.31807 0.10821 0.0
H1745 H 0.52186 0.31621 0.16224 0.0
H1746 H 0.5553 0.30383 0.14084 0.0
C1747 C 0.52642 0.33041 0.09718 0.0
C1748 C 0.90271 0.30501 0.38056 0.0
C1749 C 0.90864 0.30334 0.35718 0.0
H1750 H 0.8916 0.28725 0.41078 0.0
C1751 C 0.90406 0.28278 0.34533 0.0
H1752 H 0.90579 0.32068 0.39015 0.0
C1753 C 0.89536 0.26368 0.35719 0.0
C1754 C 0.89154 0.26492 0.38103 0.0
H1755 H 0.90838 0.28107 0.32729 0.0
H1756 H 0.89336 0.24753 0.34813 0.0
C1757 C 0.8945 0.28592 0.39241 0.0
C1758 C 0.96756 0.65984 0.64574 0.0
C1759 C 0.9861 0.65002 0.63391 0.0
H1760 H 0.93461 0.67561 0.64356 0.0
C1761 C 0.98483 0.64754 0.60988 0.0
H1762 H 0.9681 0.66191 0.66426 0.0
C1763 C 0.96566 0.65585 0.59781 0.0
C1764 C 0.94743 0.66635 0.60972 0.0
H1765 H -0.00095 0.64018 0.60038 0.0
H1766 H 0.96528 0.65446 0.57924 0.0
C1767 C 0.9484 0.66773 0.63383 0.0
C1768 C 0.58171 0.2674 0.66059 0.0
C1769 C 0.58663 0.2899 0.65337 0.0
H1770 H 0.58489 0.23143 0.65297 0.0
C1771 C 0.6021 0.29328 0.63513 0.0
H1772 H 0.56985 0.26436 0.67463 0.0
C1773 C 0.61079 0.2746 0.6229 0.0
C1774 C 0.60407 0.25214 0.62856 0.0
H1775 H 0.60646 0.31047 0.62941 0.0
H1776 H 0.62149 0.27788 0.608 0.0
C1777 C 0.59035 0.24859 0.6482 0.0
C1778 C 0.97833 0.35111 0.88227 0.0
C1779 C 0.99299 0.33512 0.8717 0.0
H1780 H 0.94802 0.35608 0.90271 0.0
C1781 C 0.98976 0.31156 0.87592 0.0
H1782 H 0.98057 0.36937 0.87937 0.0
C1783 C 0.97162 0.30401 0.88965 0.0
C1784 C 0.95606 0.31984 0.89909 0.0
H1785 H 0.00104 0.29887 0.86826 0.0
H1786 H 0.96913 0.28568 0.89186 0.0
C1787 C 0.95982 0.3435 0.89568 0.0
C1788 C 0.90847 0.71775 0.14847 0.0
C1789 C 0.91878 0.69887 0.13746 0.0
H1790 H 0.89343 0.75129 0.14429 0.0
C1791 C 0.9205 0.69881 0.11335 0.0
H1792 H 0.90685 0.71817 0.16702 0.0
C1793 C 0.91314 0.71761 0.10055 0.0
C1794 C 0.90349 0.73678 0.11148 0.0
H1795 H 0.92827 0.68449 0.10431 0.0
H1796 H 0.91548 0.71737 0.08206 0.0
C1797 C 0.90066 0.73655 0.1355 0.0
C1798 C 0.52884 0.66457 0.35138 0.0
C1799 C 0.51005 0.6549 0.36292 0.0
H1800 H 0.5618 0.68019 0.35406 0.0
C1801 C 0.5108 0.65265 0.38698 0.0
H1802 H 0.52872 0.66646 0.33283 0.0
C1803 C 0.52977 0.66097 0.39937 0.0
C1804 C 0.54829 0.67124 0.38772 0.0
H1805 H 0.49637 0.64539 0.39625 0.0
H1806 H 0.52979 0.65972 0.41795 0.0
C1807 C 0.54779 0.67247 0.36359 0.0
C1808 C 0.85273 0.59044 0.74836 0.0
C1809 C 0.87378 0.6019 0.74513 0.0
H1810 H 0.82462 0.57279 0.73225 0.0
C1811 C 0.88058 0.60783 0.72276 0.0
H1812 H 0.84705 0.58567 0.76545 0.0
C1813 C 0.86782 0.60047 0.70387 0.0
C1814 C 0.84799 0.58703 0.70698 0.0
H1815 H 0.8966 0.61684 0.71974 0.0
H1816 H 0.8743 0.60408 0.68677 0.0
C1817 C 0.83989 0.58305 0.72938 0.0
C1818 C 0.66728 0.6323 0.94624 0.0
C1819 C 0.66699 0.60814 0.94595 0.0
H1820 H 0.66043 0.66297 0.96525 0.0
C1821 C 0.65723 0.59629 0.96463 0.0
H1822 H 0.67455 0.642 0.9321 0.0
C1823 C 0.64865 0.60851 0.98361 0.0
C1824 C 0.65013 0.63264 0.98422 0.0
H1825 H 0.6567 0.57767 0.96478 0.0
H1826 H 0.64194 0.59909 -0.00179 0.0
C1827 C 0.65914 0.64437 0.96522 0.0
C1828 C 0.63156 0.39901 0.23394 0.0
C1829 C 0.62108 0.41602 0.24748 0.0
H1830 H 0.65255 0.39191 0.20442 0.0
C1831 C 0.62612 0.43925 0.24322 0.0
H1832 H 0.62801 0.38098 0.23697 0.0
C1833 C 0.64049 0.44547 0.22506 0.0
C1834 C 0.64978 0.4286 0.2105 0.0
H1835 H 0.61852 0.45271 0.25363 0.0
H1836 H 0.64329 0.46358 0.22172 0.0
C1837 C 0.64565 0.40527 0.21541 0.0
C1838 C 0.82883 0.39901 0.46805 0.0
C1839 C 0.81862 0.38769 0.4493 0.0
H1840 H 0.84299 0.39553 0.50206 0.0
C1841 C 0.81509 0.36383 0.45047 0.0
H1842 H 0.83179 0.41739 0.46753 0.0
C1843 C 0.82113 0.35155 0.47008 0.0
C1844 C 0.83121 0.36273 0.4889 0.0
H1845 H 0.80724 0.35459 0.43633 0.0
H1846 H 0.81783 0.33321 0.47051 0.0
C1847 C 0.83532 0.38653 0.48768 0.0
C1848 C 0.84813 0.40051 0.747 0.0
C1849 C 0.86843 0.38776 0.75023 0.0
H1850 H 0.8212 0.41993 0.76313 0.0
C1851 C 0.87479 0.38132 0.77259 0.0
H1852 H 0.84279 0.40569 0.72992 0.0
C1853 C 0.86253 0.3895 0.79148 0.0
C1854 C 0.84363 0.40422 0.78836 0.0
H1855 H 0.89022 0.37133 0.7756 0.0
H1856 H 0.86876 0.3855 0.80857 0.0
C1857 C 0.83577 0.40869 0.76598 0.0
C1858 C 0.82727 0.63311 0.04907 0.0
C1859 C 0.82818 0.60896 0.04942 0.0
H1860 H 0.83366 0.6639 0.03008 0.0
C1861 C 0.83849 0.59731 0.03093 0.0
H1862 H 0.81954 0.64264 0.06308 0.0
C1863 C 0.84705 0.60969 0.01206 0.0
C1864 C 0.84501 0.63377 0.01137 0.0
H1865 H 0.83951 0.57872 0.03084 0.0
H1866 H 0.85424 0.6004 0.99761 0.0
C1867 C 0.8354 0.64534 0.03019 0.0
C1868 C 0.63104 0.59757 0.26136 0.0
C1869 C 0.62003 0.58063 0.24816 0.0
H1870 H 0.65237 0.60461 0.29063 0.0
C1871 C 0.62431 0.55734 0.25294 0.0
H1872 H 0.62809 0.61564 0.25794 0.0
C1873 C 0.63853 0.55105 0.27118 0.0
C1874 C 0.64844 0.56791 0.28531 0.0
H1875 H 0.61626 0.54392 0.24283 0.0
H1876 H 0.64078 0.53293 0.27491 0.0
C1877 C 0.64498 0.59125 0.27997 0.0
C1878 C 0.68379 0.3804 0.50561 0.0
C1879 C 0.66032 0.37647 0.50161 0.0
H1880 H 0.70916 0.39594 0.52713 0.0
C1881 C 0.644 0.38731 0.51572 0.0
H1882 H 0.69674 0.37253 0.49477 0.0
C1883 C 0.65115 0.40063 0.53448 0.0
C1884 C 0.6747 0.40365 0.53908 0.0
H1885 H 0.6258 0.38464 0.51288 0.0
H1886 H 0.63828 0.40781 0.54587 0.0
C1887 C 0.6909 0.39401 0.52401 0.0
C1888 C 0.7356 0.85701 0.60249 0.0
C1889 C 0.7343 0.881 0.60497 0.0
H1890 H 0.71821 0.82637 0.59133 0.0
C1891 C 0.71333 0.89218 0.60127 0.0
H1892 H 0.75175 0.8481 0.60508 0.0
C1893 C 0.69425 0.87986 0.59381 0.0
C1894 C 0.69591 0.85616 0.58937 0.0
H1895 H 0.71196 0.91068 0.60313 0.0
H1896 H 0.67857 0.88925 0.59021 0.0
C1897 C 0.71651 0.84463 0.59452 0.0
C1898 C 0.23083 0.63163 0.39428 0.0
C1899 C 0.24508 0.62146 0.41088 0.0
H1900 H 0.20058 0.65183 0.38805 0.0
C1901 C 0.24119 0.62614 0.43425 0.0
H1902 H 0.23359 0.62838 0.37615 0.0
C1903 C 0.2228 0.63994 0.44101 0.0
C1904 C 0.20765 0.64899 0.42456 0.0
H1905 H 0.25215 0.61878 0.4474 0.0
H1906 H 0.21981 0.64251 0.45922 0.0
C1907 C 0.21206 0.64511 0.40109 0.0
C1908 C 0.60506 0.97411 0.69312 0.0
C1909 C 0.59501 0.95911 0.67712 0.0
H1910 H 0.62729 0.00283 0.69857 0.0
C1911 C 0.59836 0.96318 0.65349 0.0
H1912 H 0.60292 0.97138 0.71143 0.0
C1913 C 0.61225 0.98142 0.64607 0.0
C1914 C 0.62334 0.99553 0.66221 0.0
H1915 H 0.59087 0.95181 0.64077 0.0
H1916 H 0.61504 0.9839 0.62782 0.0
C1917 C 0.61922 0.99199 0.68575 0.0
C1918 C 0.27485 0.34658 0.91653 0.0
C1919 C 0.29257 0.35754 0.92876 0.0
H1920 H 0.24192 0.35041 0.90011 0.0
C1921 C 0.29052 0.38103 0.93392 0.0
H1922 H 0.27608 0.32849 0.91227 0.0
C1923 C 0.27116 0.39334 0.92725 0.0
C1924 C 0.25344 0.38259 0.91497 0.0
H1925 H 0.30385 0.38998 0.94336 0.0
H1926 H 0.27013 0.41141 0.93171 0.0
C1927 C 0.25545 0.35911 0.90948 0.0
C1928 C 0.3707 0.52516 0.63564 0.0
C1929 C 0.37716 0.50352 0.64416 0.0
H1930 H 0.37634 0.56147 0.63674 0.0
C1931 C 0.39706 0.5017 0.65777 0.0
H1932 H 0.35554 0.52708 0.62501 0.0
C1933 C 0.4091 0.52144 0.66438 0.0
C1934 C 0.40129 0.54326 0.65761 0.0
H1935 H 0.40251 0.4852 0.66447 0.0
H1936 H 0.42345 0.51971 0.67612 0.0
C1937 C 0.38262 0.54486 0.64238 0.0
C1938 C 0.77489 0.10008 0.07283 0.0
C1939 C 0.7569 0.11105 0.08454 0.0
H1940 H 0.80768 0.10327 0.0569 0.0
C1941 C 0.75869 0.13467 0.08943 0.0
H1942 H 0.77404 0.0819 0.06886 0.0
C1943 C 0.77805 0.14717 0.0822 0.0
C1944 C 0.79596 0.13606 0.07037 0.0
H1945 H 0.74495 0.14353 0.09835 0.0
H1946 H 0.77902 0.16541 0.08585 0.0
C1947 C 0.79421 0.11237 0.06599 0.0
C1948 C 0.64332 0.02217 0.81786 0.0
C1949 C 0.63285 0.00497 0.83112 0.0
H1950 H 0.63961 0.05424 0.80057 0.0
C1951 C 0.60952 0.00722 0.83705 0.0
H1952 H 0.66126 0.02094 0.81301 0.0
C1953 C 0.59685 0.02638 0.82954 0.0
C1954 C 0.60753 0.04361 0.81638 0.0
H1955 H 0.60103 0.99408 0.84715 0.0
H1956 H 0.57889 0.02783 0.83421 0.0
C1957 C 0.63088 0.04129 0.81073 0.0
C1958 C 0.88737 0.98413 0.35386 0.0
C1959 C 0.86329 0.98326 0.35549 0.0
H1960 H 0.91809 0.9662 0.34389 0.0
C1961 C 0.85193 0.9624 0.35157 0.0
H1962 H 0.89645 0.00015 0.35666 0.0
C1963 C 0.86421 0.94307 0.34466 0.0
C1964 C 0.88807 0.94433 0.34103 0.0
H1965 H 0.83338 0.96133 0.35282 0.0
H1966 H 0.85474 0.9275 0.34083 0.0
C1967 C 0.8997 0.96479 0.34647 0.0
C1968 C 0.39611 0.29442 0.12935 0.0
C1969 C 0.40939 0.29165 0.14934 0.0
H1970 H 0.37891 0.27808 0.10134 0.0
C1971 C 0.41276 0.26944 0.15822 0.0
H1972 H 0.39297 0.31138 0.12228 0.0
C1973 C 0.40468 0.25022 0.1461 0.0
C1974 C 0.39306 0.25303 0.12506 0.0
H1975 H 0.4229 0.26685 0.17362 0.0
H1976 H 0.40883 0.2332 0.15244 0.0
C1977 C 0.38798 0.27534 0.11738 0.0
C1978 C 0.46629 0.65926 0.89904 0.0
C1979 C 0.44765 0.66928 0.88736 0.0
H1980 H 0.50001 0.64435 0.89598 0.0
C1981 C 0.4482 0.67057 0.86324 0.0
H1982 H 0.46622 0.65795 0.91762 0.0
C1983 C 0.46734 0.66309 0.85108 0.0
C1984 C 0.48628 0.65377 0.86266 0.0
H1985 H 0.43409 0.67808 0.85368 0.0
H1986 H 0.46753 0.66507 0.83254 0.0
C1987 C 0.48547 0.65134 0.8867 0.0
C1988 C 0.07499 0.69681 0.61148 0.0
C1989 C 0.07707 0.69638 0.63556 0.0
H1990 H 0.07989 0.71583 0.58046 0.0
C1991 C 0.08768 0.71496 0.64677 0.0
H1992 H 0.06695 0.68275 0.60228 0.0
C1993 C 0.09556 0.7339 0.63403 0.0
C1994 C 0.09249 0.73457 0.61005 0.0
H1995 H 0.08959 0.715 0.6653 0.0
H1996 H 0.10313 0.74836 0.643 0.0
C1997 C 0.08242 0.71575 0.59892 0.0
C1998 C 0.02285 0.30521 0.39632 0.0
C1999 C 0.03803 0.32101 0.4064 0.0
H2000 H 0.99424 0.30016 0.37387 0.0
C2001 C 0.03415 0.3447 0.40328 0.0
H2002 H 0.02539 0.28686 0.39835 0.0
C2003 C 0.0161 0.35236 0.3893 0.0
C2004 C 0.00199 0.33641 0.37797 0.0
H2005 H 0.04564 0.35726 0.41082 0.0
H2006 H 0.01388 0.37064 0.3865 0.0
C2007 C 0.00514 0.31283 0.38211 0.0
C2008 C 0.39898 0.7373 0.35653 0.0
C2009 C 0.40007 0.73803 0.38067 0.0
H2010 H 0.40729 0.71821 0.32593 0.0
C2011 C 0.40858 0.71896 0.39267 0.0
H2012 H 0.39264 0.75195 0.34692 0.0
C2013 C 0.41664 0.6998 0.38084 0.0
C2014 C 0.41678 0.69939 0.35667 0.0
H2015 H 0.40956 0.71908 0.41129 0.0
H2016 H 0.42355 0.6856 0.39072 0.0
C2017 C 0.40749 0.71814 0.34456 0.0
C2018 C 0.01125 0.65094 0.11197 0.0
C2019 C 0.01047 0.65274 0.13606 0.0
H2020 H 0.03028 0.65854 0.08116 0.0
C2021 C 0.02939 0.66186 0.14783 0.0
H2022 H 0.99671 0.64413 0.10253 0.0
C2023 C 0.04847 0.66978 0.13578 0.0
C2024 C 0.04891 0.66918 0.11163 0.0
H2025 H 0.02922 0.6634 0.16641 0.0
H2026 H 0.06255 0.67717 0.14546 0.0
C2027 C 0.03031 0.65932 0.09977 0.0
C2028 C 0.10032 0.26137 0.85693 0.0
C2029 C 0.10237 0.26219 0.881 0.0
H2030 H 0.08939 0.27919 0.82645 0.0
C2031 C 0.09801 0.28286 0.89255 0.0
H2032 H 0.10345 0.24548 0.84772 0.0
C2033 C 0.09035 0.30204 0.88048 0.0
C2034 C 0.08642 0.30082 0.85666 0.0
H2035 H 0.09956 0.28389 0.91109 0.0
H2036 H 0.08628 0.31746 0.89012 0.0
C2037 C 0.09218 0.28056 0.84482 0.0
C2038 C 0.48848 0.33589 0.61048 0.0
C2039 C 0.49036 0.32971 0.63379 0.0
H2040 H 0.4681 0.33391 0.57965 0.0
C2041 C 0.47275 0.31683 0.64402 0.0
H2042 H 0.50193 0.34574 0.60218 0.0
C2043 C 0.45354 0.31036 0.63136 0.0
C2044 C 0.45159 0.31633 0.60804 0.0
H2045 H 0.47369 0.31182 0.66195 0.0
H2046 H 0.44024 0.3005 0.63989 0.0
C2047 C 0.46926 0.32904 0.59759 0.0
C2048 C 0.15434 0.40149 0.28074 0.0
C2049 C 0.15895 0.42492 0.28463 0.0
H2050 H 0.13602 0.37669 0.26039 0.0
C2051 C 0.15045 0.44129 0.26906 0.0
H2052 H 0.16065 0.3885 0.29251 0.0
C2053 C 0.13605 0.43459 0.25112 0.0
C2054 C 0.13019 0.41136 0.24813 0.0
H2055 H 0.15367 0.45946 0.27158 0.0
H2056 H 0.12882 0.44773 0.24006 0.0
C2057 C 0.14019 0.39472 0.26246 0.0
C2058 C 0.34986 0.38708 0.01026 0.0
C2059 C 0.35272 0.36312 0.01155 0.0
H2060 H 0.33851 0.4176 0.02776 0.0
C2061 C 0.34956 0.35196 0.03266 0.0
H2062 H 0.35203 0.396 0.99405 0.0
C2063 C 0.3422 0.36423 0.05184 0.0
C2064 C 0.33735 0.38785 0.05019 0.0
H2065 H 0.35174 0.3335 0.03405 0.0
H2066 H 0.33899 0.35484 0.06761 0.0
C2067 C 0.34202 0.39939 0.02947 0.0
C2068 C 0.35098 0.55297 0.76667 0.0
C2069 C 0.34122 0.56916 0.78168 0.0
H2070 H 0.3738 0.54706 0.73847 0.0
C2071 C 0.3451 0.59272 0.77767 0.0
H2072 H 0.3484 0.53471 0.76933 0.0
C2073 C 0.35959 0.59982 0.75977 0.0
C2074 C 0.3707 0.58345 0.74597 0.0
H2075 H 0.33784 0.60558 0.78902 0.0
H2076 H 0.36302 0.61799 0.75753 0.0
C2077 C 0.36574 0.56003 0.74915 0.0
C2078 C 0.14791 0.61681 0.54337 0.0
C2079 C 0.16176 0.59721 0.54068 0.0
H2080 H 0.12972 0.64412 0.52686 0.0
C2081 C 0.16516 0.58817 0.51856 0.0
H2082 H 0.14472 0.62399 0.56027 0.0
C2083 C 0.15653 0.5998 0.49928 0.0
C2084 C 0.14431 0.62052 0.50197 0.0
H2085 H 0.17573 0.57304 0.51604 0.0
H2086 H 0.1607 0.59339 0.4823 0.0
C2087 C 0.13922 0.62831 0.52422 0.0
C2088 C 0.13548 0.58897 0.23615 0.0
C2089 C 0.11134 0.58793 0.2361 0.0
H2090 H 0.16654 0.58267 0.2171 0.0
C2091 C 0.09986 0.58169 0.21587 0.0
H2092 H 0.14468 0.59365 0.25165 0.0
C2093 C 0.1122 0.57587 0.19621 0.0
C2094 C 0.13635 0.57568 0.19645 0.0
H2095 H 0.08126 0.58087 0.21536 0.0
H2096 H 0.10272 0.57063 0.18105 0.0
C2097 C 0.14794 0.58263 0.21648 0.0
C2098 C 0.13633 0.36706 0.97227 0.0
C2099 C 0.14212 0.37413 0.9946 0.0
H2100 H 0.14058 0.37266 0.93622 0.0
C2101 C 0.15417 0.3949 0.99757 0.0
H2102 H 0.12692 0.35124 0.96941 0.0
C2103 C 0.16201 0.40729 0.97842 0.0
C2104 C 0.15797 0.39896 0.95612 0.0
H2105 H 0.15886 0.40077 0.01462 0.0
H2106 H 0.17253 0.42242 0.9811 0.0
C2107 C 0.14423 0.37931 0.95324 0.0
C2108 C 0.35864 0.39881 0.70578 0.0
C2109 C 0.34421 0.41822 0.70626 0.0
H2110 H 0.3827 0.3779 0.7242 0.0
C2111 C 0.34062 0.42963 0.72722 0.0
H2112 H 0.36166 0.38957 0.68989 0.0
C2113 C 0.35265 0.42287 0.7469 0.0
C2114 C 0.36852 0.40464 0.74593 0.0
H2115 H 0.32954 0.44458 0.72812 0.0
H2116 H 0.35049 0.43277 0.76254 0.0
C2117 C 0.37072 0.3921 0.72543 0.0
C2118 C 0.35293 0.61017 0.48568 0.0
C2119 C 0.35565 0.6341 0.48359 0.0
H2120 H 0.34126 0.57909 0.46943 0.0
C2121 C 0.35178 0.64461 0.46228 0.0
H2122 H 0.35562 0.60174 0.50207 0.0
C2123 C 0.34391 0.63175 0.4437 0.0
C2124 C 0.33926 0.60815 0.44618 0.0
H2125 H 0.35381 0.66303 0.46027 0.0
H2126 H 0.3402 0.64064 0.42776 0.0
C2127 C 0.34459 0.59726 0.46709 0.0
C2128 C 0.27815 0.14878 0.40877 0.0
C2129 C 0.29622 0.13687 0.4195 0.0
H2130 H 0.24503 0.1462 0.39254 0.0
C2131 C 0.29519 0.11279 0.42103 0.0
H2132 H 0.2786 0.16734 0.40727 0.0
C2133 C 0.27615 0.10088 0.41289 0.0
C2134 C 0.25782 0.1127 0.40268 0.0
H2135 H 0.30887 0.10307 0.42913 0.0
H2136 H 0.2756 0.08237 0.41497 0.0
C2137 C 0.2591 0.13672 0.40021 0.0
C2138 C 0.79092 0.36597 0.60035 0.0
C2139 C 0.78772 0.34674 0.5861 0.0
H2140 H 0.77517 0.3935 0.61883 0.0
C2141 C 0.76536 0.33853 0.58227 0.0
H2142 H 0.80801 0.37248 0.60385 0.0
C2143 C 0.74641 0.35069 0.59085 0.0
C2144 C 0.74967 0.3711 0.60345 0.0
H2145 H 0.76247 0.3237 0.57138 0.0
H2146 H 0.72928 0.34499 0.58632 0.0
C2147 C 0.7721 0.37797 0.60901 0.0
C2148 C 0.38019 0.01427 0.3437 0.0
C2149 C 0.36868 0.00137 0.32686 0.0
H2150 H 0.40219 0.04307 0.35057 0.0
C2151 C 0.37272 0.00618 0.30353 0.0
H2152 H 0.37746 0.01079 0.3618 0.0
C2153 C 0.3872 0.02418 0.29712 0.0
C2154 C 0.39764 0.03802 0.3139 0.0
H2155 H 0.36431 0.99628 0.29017 0.0
H2156 H 0.38925 0.02795 0.27898 0.0
C2157 C 0.39441 0.03262 0.33727 0.0
C2158 C 0.71426 0.64813 0.08781 0.0
C2159 C 0.69627 0.63639 0.07675 0.0
H2160 H 0.74734 0.64533 0.10407 0.0
C2161 C 0.69735 0.61233 0.07484 0.0
H2162 H 0.71378 0.66666 0.0896 0.0
C2163 C 0.71642 0.60032 0.08281 0.0
C2164 C 0.7347 0.61199 0.09325 0.0
H2165 H 0.68374 0.60275 0.0665 0.0
H2166 H 0.71704 0.58185 0.08038 0.0
C2167 C 0.73331 0.63595 0.09621 0.0
C2168 C 0.59932 0.498 0.34252 0.0
C2169 C 0.62028 0.4951 0.35424 0.0
H2170 H 0.57161 0.48144 0.32465 0.0
C2171 C 0.62728 0.47284 0.36039 0.0
H2172 H 0.59349 0.51499 0.33759 0.0
C2173 C 0.61483 0.45376 0.35299 0.0
C2174 C 0.59512 0.45655 0.33931 0.0
H2175 H 0.64322 0.47007 0.3696 0.0
H2176 H 0.62148 0.43676 0.35676 0.0
C2177 C 0.5868 0.47882 0.3351 0.0
C2178 C 0.19996 0.88488 0.93077 0.0
C2179 C 0.19872 0.86102 0.92721 0.0
H2180 H 0.21991 0.9155 0.92759 0.0
C2181 C 0.2171 0.84978 0.91628 0.0
H2182 H 0.18609 0.89407 0.93914 0.0
C2183 C 0.23651 0.86229 0.90925 0.0
C2184 C 0.23787 0.88606 0.91349 0.0
H2185 H 0.21651 0.83141 0.91325 0.0
H2186 H 0.25067 0.85331 0.90114 0.0
C2187 C 0.21936 0.89719 0.92417 0.0
C2188 C 0.39811 0.96767 0.15456 0.0
C2189 C 0.40166 0.96244 0.17792 0.0
H2190 H 0.38063 0.98917 0.13014 0.0
C2191 C 0.39158 0.97649 0.19476 0.0
H2192 H 0.40565 0.95708 0.14122 0.0
C2193 C 0.37697 0.9944 0.18844 0.0
C2194 C 0.37244 -0.0011 0.16515 0.0
H2195 H 0.39393 0.97288 0.21289 0.0
H2196 H 0.36872 0.00437 0.20185 0.0
C2197 C 0.38375 0.98593 0.14822 0.0
C2198 C 0.10441 0.03648 0.64141 0.0
C2199 C 0.08863 0.03396 0.65959 0.0
H2200 H 0.13074 0.02067 0.62115 0.0
C2201 C 0.08462 0.01193 0.66863 0.0
H2202 H 0.10776 0.0532 0.63392 0.0
C2203 C 0.09767 0.99317 0.66102 0.0
C2204 C 0.11505 0.99627 0.64447 0.0
H2205 H 0.07256 0.00947 0.6826 0.0
H2206 H 0.09533 0.97667 0.66934 0.0
C2207 C 0.11761 0.01785 0.63405 0.0
C2208 C 0.10021 0.08897 0.34603 0.0
C2209 C 0.1016 0.10665 0.32967 0.0
H2210 H 0.11871 0.06659 0.36855 0.0
C2211 C 0.12314 0.11264 0.32053 0.0
H2212 H 0.0838 0.08385 0.35318 0.0
C2213 C 0.14315 0.10288 0.32943 0.0
C2214 C 0.14185 0.08688 0.34746 0.0
H2215 H 0.12469 0.12609 0.30773 0.0
H2216 H 0.15962 0.10901 0.32329 0.0
C2217 C 0.12021 0.07908 0.35481 0.0
C2218 C 0.13606 0.87254 0.57234 0.0
C2219 C 0.14423 0.85132 0.58052 0.0
H2220 H 0.13635 0.90908 0.57642 0.0
C2221 C 0.16234 0.85097 0.59644 0.0
H2222 H 0.12224 0.87331 0.55988 0.0
C2223 C 0.17052 0.87148 0.60579 0.0
C2224 C 0.16055 0.89254 0.59944 0.0
H2225 H 0.16909 0.83483 0.60286 0.0
H2226 H 0.18342 0.87067 0.61919 0.0
C2227 C 0.14409 0.89302 0.58183 0.0
C2228 C 0.37323 0.92627 0.86362 0.0
C2229 C 0.35188 0.91718 0.85694 0.0
H2230 H 0.40981 0.92352 0.86103 0.0
C2231 C 0.351 0.90097 0.83909 0.0
H2232 H 0.37439 0.93895 0.87722 0.0
C2233 C 0.37128 0.89227 0.82973 0.0
C2234 C 0.39268 0.89954 0.83822 0.0
H2235 H 0.33474 0.89387 0.83345 0.0
H2236 H 0.37013 0.87864 0.81708 0.0
C2237 C 0.39352 0.91744 0.85437 0.0
C2238 C 0.33146 0.1453 0.10462 0.0
C2239 C 0.34881 0.14447 0.08788 0.0
H2240 H 0.30967 0.12598 0.12706 0.0
C2241 C 0.35487 0.12322 0.07814 0.0
H2242 H 0.32631 0.16151 0.11222 0.0
C2243 C 0.34552 0.1029 0.08675 0.0
C2244 C 0.32977 0.1036 0.105 0.0
H2245 H 0.36807 0.12211 0.06504 0.0
H2246 H 0.35177 0.08662 0.08018 0.0
C2247 C 0.32185 0.12497 0.11301 0.0
C2248 C 0.14366 0.89826 0.16785 0.0
C2249 C 0.14358 0.91458 0.1501 0.0
H2250 H 0.12345 0.87652 0.18947 0.0
C2251 C 0.12271 0.92485 0.14356 0.0
H2252 H 0.15955 0.89029 0.17341 0.0
C2253 C 0.102 0.91684 0.15261 0.0
C2254 C 0.10196 0.89861 0.16843 0.0
H2255 H 0.12218 0.93767 0.13005 0.0
H2256 H 0.08604 0.92366 0.14588 0.0
C2257 C 0.12297 0.89039 0.17705 0.0
C2258 C 0.35432 0.87633 0.41551 0.0
C2259 C 0.34702 0.85477 0.4074 0.0
H2260 H 0.35257 0.91282 0.41133 0.0
C2261 C 0.3289 0.85368 0.39151 0.0
H2262 H 0.36811 0.87769 0.42795 0.0
C2263 C 0.31987 0.87385 0.38213 0.0
C2264 C 0.32899 0.89533 0.3884 0.0
H2265 H 0.32281 0.83728 0.38513 0.0
H2266 H 0.30705 0.87249 0.36869 0.0
C2267 C 0.34543 0.89646 0.406 0.0
C2268 C 0.3749 0.10431 0.67308 0.0
C2269 C 0.39588 0.09869 0.66251 0.0
H2270 H 0.33831 0.10088 0.6721 0.0
C2271 C 0.39639 0.08141 0.6457 0.0
H2272 H 0.37405 0.11742 0.68629 0.0
C2273 C 0.37594 0.07179 0.63774 0.0
C2274 C 0.35473 0.07953 0.64635 0.0
H2275 H 0.41238 0.07656 0.63747 0.0
H2276 H 0.37668 0.05977 0.62353 0.0
C2277 C 0.35442 0.09486 0.66497 0.0
C2278 C 0.14763 0.10214 0.91045 0.0
C2279 C 0.164 0.10242 0.89272 0.0
H2280 H 0.12517 0.12203 0.93164 0.0
C2281 C 0.17327 0.12352 0.8855 0.0
H2282 H 0.14038 0.08609 0.91651 0.0
C2283 C 0.16452 0.14411 0.89412 0.0
C2284 C 0.14643 0.14383 0.91008 0.0
H2285 H 0.18609 0.1242 0.87201 0.0
H2286 H 0.17081 0.16018 0.88709 0.0
C2287 C 0.13891 0.12272 0.91908 0.0
C2288 C 0.07431 0.35915 0.12394 0.0
C2289 C 0.08332 0.35124 0.14492 0.0
H2290 H 0.07701 0.35831 0.08723 0.0
C2291 C 0.09907 0.33299 0.1449 0.0
H2292 H 0.06207 0.37318 0.12349 0.0
C2293 C 0.10741 0.32432 0.12416 0.0
C2294 C 0.10035 0.33406 0.10321 0.0
H2295 H 0.10612 0.32648 0.16087 0.0
H2296 H 0.1207 0.31128 0.12466 0.0
C2297 C 0.08291 0.35072 0.10319 0.0
C2298 C 0.58509 0.13799 0.89539 0.0
C2299 C 0.59999 0.15694 0.89551 0.0
H2300 H 0.56574 0.11444 0.87487 0.0
C2301 C 0.60395 0.16905 0.87498 0.0
H2302 H 0.58157 0.1285 0.91103 0.0
C2303 C 0.59501 0.16096 0.85428 0.0
C2304 C 0.58187 0.14074 0.85387 0.0
H2305 H 0.61521 0.18388 0.87464 0.0
H2306 H 0.59957 0.16971 0.83848 0.0
C2307 C 0.57601 0.12998 0.87469 0.0
C2308 C 0.89367 0.82862 0.35434 0.0
C2309 C 0.91039 0.84597 0.35536 0.0
H2310 H 0.87031 0.80751 0.37327 0.0
C2311 C 0.9194 0.85243 0.37683 0.0
H2312 H 0.88659 0.82317 0.338 0.0
C2313 C 0.90992 0.84364 0.39706 0.0
C2314 C 0.89149 0.82812 0.39604 0.0
H2315 H 0.93245 0.86565 0.37812 0.0
H2316 H 0.91594 0.85022 0.41341 0.0
C2317 C 0.88435 0.81967 0.37456 0.0
C2318 C 0.89549 0.15819 0.1452 0.0
C2319 C 0.9136 0.14226 0.14432 0.0
H2320 H 0.87162 0.17847 0.12598 0.0
C2321 C 0.92408 0.13746 0.12309 0.0
H2322 H 0.88723 0.16236 0.16137 0.0
C2323 C 0.91508 0.14659 0.10282 0.0
C2324 C 0.89555 0.16072 0.10352 0.0
H2325 H 0.93822 0.12539 0.12194 0.0
H2326 H 0.9225 0.14137 0.08655 0.0
C2327 C 0.88656 0.1674 0.12493 0.0
C2328 C 0.39473 0.66289 0.64353 0.0
C2329 C 0.41262 0.64672 0.64305 0.0
H2330 H 0.37166 0.68361 0.62383 0.0
C2331 C 0.42368 0.64196 0.62211 0.0
H2332 H 0.38607 0.66707 0.65949 0.0
C2333 C 0.41534 0.65133 0.60164 0.0
C2334 C 0.39594 0.66568 0.6019 0.0
H2335 H 0.43764 0.62966 0.62127 0.0
H2336 H 0.42309 0.64608 0.58553 0.0
C2337 C 0.38649 0.67237 0.6231 0.0
C2338 C 0.09584 0.65609 0.35148 0.0
C2339 C 0.08083 0.63724 0.3524 0.0
H2340 H 0.11768 0.67876 0.37041 0.0
C2341 C 0.07359 0.6289 0.3739 0.0
H2342 H 0.10154 0.66296 0.33512 0.0
C2343 C 0.083 0.63777 0.39409 0.0
C2344 C 0.09959 0.65524 0.39304 0.0
H2345 H 0.06191 0.61444 0.3751 0.0
H2346 H 0.0783 0.63003 0.41037 0.0
C2347 C 0.10507 0.66511 0.37168 0.0
C2348 C 0.4192 0.35526 0.87072 0.0
C2349 C 0.40712 0.35217 0.85003 0.0
H2350 H 0.41951 0.34995 0.90712 0.0
C2351 C 0.3878 0.33774 0.84969 0.0
H2352 H 0.43428 0.36616 0.87143 0.0
C2353 C 0.37946 0.32832 0.87011 0.0
C2354 C 0.39022 0.33337 0.89114 0.0
H2355 H 0.3783 0.33491 0.83392 0.0
H2356 H 0.36368 0.31844 0.8696 0.0
C2357 C 0.41075 0.34601 0.89116 0.0
C2358 C 0.89412 0.91437 0.64649 0.0
C2359 C 0.89427 0.89728 0.66353 0.0
H2360 H 0.87358 0.93491 0.624 0.0
C2361 C 0.8735 0.89091 0.67409 0.0
H2362 H 0.90991 0.91978 0.63825 0.0
C2363 C 0.85269 0.89951 0.66589 0.0
C2364 C 0.85242 0.91462 0.64709 0.0
H2365 H 0.87316 0.87797 0.68749 0.0
H2366 H 0.83683 0.89299 0.67315 0.0
C2367 C 0.8733 0.92302 0.63833 0.0
C2368 C 0.85042 0.10385 0.41177 0.0
C2369 C 0.83443 0.10345 0.39373 0.0
H2370 H 0.87215 0.12461 0.43289 0.0
C2371 C 0.8252 0.12423 0.38558 0.0
H2372 H 0.85764 0.08806 0.41851 0.0
C2373 C 0.83347 0.14516 0.39384 0.0
C2374 C 0.8511 0.14554 0.41028 0.0
H2375 H 0.81264 0.12438 0.37183 0.0
H2376 H 0.82715 0.16094 0.38623 0.0
C2377 C 0.85873 0.12478 0.41998 0.0
C2378 C 0.62235 0.06997 0.13602 0.0
C2379 C 0.64358 0.07905 0.14311 0.0
H2380 H 0.58574 0.07292 0.13772 0.0
C2381 C 0.64413 0.09519 0.16103 0.0
H2382 H 0.62144 0.05733 0.12236 0.0
C2383 C 0.62367 0.1039 0.17001 0.0
C2384 C 0.60244 0.09677 0.16096 0.0
H2385 H 0.66028 0.10227 0.16698 0.0
H2386 H 0.62458 0.11756 0.18264 0.0
C2387 C 0.6019 0.07888 0.14479 0.0
C2388 C 0.63911 0.87525 0.92057 0.0
C2389 C 0.64706 0.85369 0.91309 0.0
H2390 H 0.64024 0.91169 0.9157 0.0
C2391 C 0.66561 0.85266 0.89769 0.0
H2392 H 0.62496 0.87656 0.93261 0.0
C2393 C 0.67446 0.87281 0.88813 0.0
C2394 C 0.66475 0.89422 0.89372 0.0
H2395 H 0.67221 0.83627 0.89181 0.0
H2396 H 0.68768 0.87144 0.87508 0.0
C2397 C 0.64784 0.89538 0.91088 0.0
C2398 C 0.87397 0.07371 0.85768 0.0
C2399 C 0.85261 0.08207 0.85011 0.0
H2400 H 0.91053 0.07749 0.85632 0.0
C2401 C 0.8519 0.0979 0.83191 0.0
H2402 H 0.87502 0.06137 0.8716 0.0
C2403 C 0.87225 0.10694 0.82301 0.0
C2404 C 0.89354 0.10048 0.83241 0.0
H2405 H 0.83565 0.10447 0.82563 0.0
H2406 H 0.87116 0.12029 0.81006 0.0
C2407 C 0.89431 0.08296 0.84898 0.0
C2408 C 0.66376 0.14501 0.59936 0.0
C2409 C 0.64537 0.14524 0.58379 0.0
H2410 H 0.68569 0.12451 0.6205 0.0
C2411 C 0.6374 0.12437 0.57457 0.0
H2412 H 0.67038 0.16089 0.6065 0.0
C2413 C 0.64599 0.1035 0.58275 0.0
C2414 C 0.66282 0.10328 0.60002 0.0
H2415 H 0.62333 0.12408 0.56238 0.0
H2416 H 0.63832 0.08764 0.57673 0.0
C2417 C 0.67256 0.12417 0.60729 0.0
C2418 C 0.62364 0.92381 0.35781 0.0
C2419 C 0.64473 0.91339 0.35233 0.0
H2420 H 0.58709 0.92271 0.354 0.0
C2421 C 0.64546 0.89636 0.33528 0.0
H2422 H 0.62264 0.93717 0.37075 0.0
C2423 C 0.62514 0.88828 0.32552 0.0
C2424 C 0.60383 0.89697 0.33288 0.0
H2425 H 0.66155 0.88827 0.33055 0.0
H2426 H 0.62606 0.87406 0.31353 0.0
C2427 C 0.60329 0.91557 0.34822 0.0
C2428 C 0.83483 0.85265 0.09779 0.0
C2429 C 0.85331 0.85347 0.08231 0.0
H2430 H 0.81327 0.87162 0.12073 0.0
C2431 C 0.86187 0.87492 0.07522 0.0
H2432 H 0.8278 0.83634 0.1034 0.0
C2433 C 0.85373 0.89509 0.0853 0.0
C2434 C 0.83678 0.89407 0.10243 0.0
H2435 H 0.87601 0.87607 0.06316 0.0
H2436 H 0.86168 0.91129 0.08069 0.0
C2437 C 0.82655 0.87285 0.10773 0.0
C2438 C 0.89824 0.6578 0.85264 0.0
C2439 C 0.9139 0.63948 0.85347 0.0
H2440 H 0.87687 0.68069 0.8718 0.0
C2441 C 0.92276 0.63242 0.87481 0.0
H2442 H 0.89136 0.66375 0.83638 0.0
C2443 C 0.91439 0.64206 0.89514 0.0
C2444 C 0.89717 0.65895 0.89434 0.0
H2445 H 0.935 0.61844 0.87591 0.0
H2446 H 0.92033 0.63525 0.91143 0.0
C2447 C 0.89 0.66753 0.87293 0.0
C2448 C 0.38583 0.82709 0.12388 0.0
C2449 C 0.39173 0.83599 0.10222 0.0
H2450 H 0.38903 0.83061 0.16036 0.0
C2451 C 0.40846 0.85329 0.10067 0.0
H2452 H 0.37307 0.81363 0.12555 0.0
C2453 C 0.41773 0.86287 0.1206 0.0
C2454 C 0.41021 0.85541 0.1423 0.0
H2455 H 0.41344 0.86031 0.08415 0.0
H2456 H 0.42964 0.8771 0.11898 0.0
C2457 C 0.39492 0.83682 0.14381 0.0
C2458 C 0.08169 0.14587 0.60403 0.0
C2459 C 0.10147 0.15961 0.60504 0.0
H2460 H 0.05814 0.12476 0.62271 0.0
C2461 C 0.11053 0.16574 0.62659 0.0
H2462 H 0.07423 0.1411 0.58765 0.0
C2463 C 0.10147 0.15623 0.64666 0.0
C2464 C 0.08309 0.14067 0.64544 0.0
H2465 H 0.12568 0.17649 0.62787 0.0
H2466 H 0.10982 0.15985 0.66291 0.0
C2467 C 0.07248 0.13656 0.62413 0.0
C2468 C 0.08058 0.84721 0.89361 0.0
C2469 C 0.09991 0.83277 0.8939 0.0
H2470 H 0.05813 0.86782 0.87307 0.0
C2471 C 0.10892 0.82467 0.873 0.0
H2472 H 0.07313 0.8535 0.90948 0.0
C2473 C 0.10039 0.83291 0.85216 0.0
C2474 C 0.08267 0.84928 0.85195 0.0
H2475 H 0.12365 0.81328 0.87273 0.0
H2476 H 0.10878 0.82773 0.83635 0.0
C2477 C 0.07197 0.85537 0.87275 0.0
C2478 C 0.57046 0.36344 0.37498 0.0
C2479 C 0.57922 0.35623 0.35365 0.0
H2480 H 0.5738 0.36169 0.4116 0.0
C2481 C 0.59505 0.33804 0.35294 0.0
H2482 H 0.55811 0.37735 0.37601 0.0
C2483 C 0.6038 0.32889 0.3733 0.0
C2484 C 0.59707 0.33805 0.39462 0.0
H2485 H 0.60188 0.332 0.33669 0.0
H2486 H 0.61724 0.31604 0.37223 0.0
C2487 C 0.57945 0.35451 0.39536 0.0
C2488 C 0.90638 0.34934 0.60048 0.0
C2489 C 0.88939 0.33223 0.60145 0.0
H2490 H 0.92782 0.37227 0.61961 0.0
C2491 C 0.88361 0.32249 0.62279 0.0
H2492 H 0.91128 0.357 0.58422 0.0
C2493 C 0.89289 0.33137 0.64302 0.0
C2494 C 0.90826 0.34992 0.64218 0.0
H2495 H 0.87068 0.30915 0.62402 0.0
H2496 H 0.88697 0.32461 0.65935 0.0
C2497 C 0.91584 0.35806 0.62073 0.0
C2498 C 0.57908 0.64443 0.10006 0.0
C2499 C 0.59712 0.66041 0.10088 0.0
H2500 H 0.55757 0.62158 0.11925 0.0
C2501 C 0.60459 0.6687 0.12231 0.0
H2502 H 0.57285 0.63791 0.08376 0.0
C2503 C 0.596 0.65924 0.14259 0.0
C2504 C 0.57966 0.64154 0.14173 0.0
H2505 H 0.61832 0.68122 0.12345 0.0
H2506 H 0.60328 0.6647 0.15884 0.0
C2507 C 0.57032 0.63511 0.12039 0.0
C2508 C 0.64446 0.60066 0.83025 0.0
C2509 C 0.64428 0.58395 0.84765 0.0
H2510 H 0.62443 0.62346 0.80953 0.0
C2511 C 0.62323 0.57442 0.85468 0.0
H2512 H 0.66047 0.60812 0.82434 0.0
C2513 C 0.60258 0.58329 0.84632 0.0
C2514 C 0.60275 0.60169 0.83071 0.0
H2515 H 0.6226 0.56133 0.86792 0.0
H2516 H 0.58657 0.57683 0.85329 0.0
C2517 C 0.62381 0.60943 0.82178 0.0
C2518 C 0.67012 0.37288 0.10854 0.0
C2519 C 0.65952 0.39387 0.10304 0.0
H2520 H 0.66918 0.33627 0.10508 0.0
C2521 C 0.64186 0.39428 0.08662 0.0
H2522 H 0.68393 0.37212 0.12101 0.0
C2523 C 0.63351 0.37379 0.07743 0.0
C2524 C 0.64264 0.35263 0.08464 0.0
H2525 H 0.63358 0.41028 0.0819 0.0
H2526 H 0.61894 0.37449 0.06587 0.0
C2527 C 0.66169 0.35237 0.09943 0.0
C2528 C 0.85579 0.40224 0.33171 0.0
C2529 C 0.85481 0.41616 0.35138 0.0
H2530 H 0.87711 0.38238 0.30935 0.0
C2531 C 0.87534 0.42429 0.36115 0.0
H2532 H 0.8402 0.39599 0.32366 0.0
C2533 C 0.89649 0.41644 0.35302 0.0
C2534 C 0.89734 0.40047 0.33496 0.0
H2535 H 0.87508 0.43532 0.37616 0.0
H2536 H 0.91198 0.4215 0.36203 0.0
C2537 C 0.87694 0.39452 0.32348 0.0
C2538 C 0.83036 0.64243 0.60267 0.0
C2539 C 0.84854 0.64161 0.58683 0.0
H2540 H 0.80889 0.6233 0.62559 0.0
C2541 C 0.85634 0.62018 0.57888 0.0
H2542 H 0.82388 0.65874 0.60892 0.0
C2543 C 0.84792 0.59992 0.58854 0.0
C2544 C 0.83142 0.60084 0.60611 0.0
H2545 H 0.87019 0.61903 0.56648 0.0
H2546 H 0.85544 0.58369 0.58336 0.0
C2547 C 0.82177 0.62214 0.61219 0.0
C2548 C 0.62278 0.38373 0.67385 0.0
C2549 C 0.60132 0.39062 0.6652 0.0
H2550 H 0.65932 0.38593 0.67035 0.0
C2551 C 0.60029 0.40823 0.64873 0.0
H2552 H 0.62406 0.37022 0.68663 0.0
C2553 C 0.62048 0.41737 0.6396 0.0
C2554 C 0.64193 0.40879 0.64661 0.0
H2555 H 0.58394 0.41395 0.6419 0.0
H2556 H 0.61922 0.42996 0.62592 0.0
C2557 C 0.64296 0.39263 0.66449 0.0
C2558 C 0.85452 0.3709 0.91517 0.0
C2559 C 0.84843 0.34954 0.90566 0.0
H2560 H 0.85171 0.4075 0.91262 0.0
C2561 C 0.83143 0.34866 0.88857 0.0
H2562 H 0.86748 0.37207 0.9285 0.0
C2563 C 0.82214 0.36897 0.87974 0.0
C2564 C 0.83001 0.3904 0.88766 0.0
H2565 H 0.82629 0.3324 0.88109 0.0
H2566 H 0.81016 0.36787 0.86552 0.0
C2567 C 0.8455 0.39119 0.90612 0.0
C2568 C 0.87152 0.60937 0.17373 0.0
C2569 C 0.89264 0.60157 0.16498 0.0
H2570 H 0.8349 0.60813 0.17086 0.0
C2571 C 0.89293 0.58319 0.14938 0.0
H2572 H 0.87082 0.62337 0.18599 0.0
C2573 C 0.87235 0.57438 0.14083 0.0
C2574 C 0.85126 0.58395 0.14769 0.0
H2575 H 0.90899 0.57668 0.14257 0.0
H2576 H 0.87308 0.56128 0.1276 0.0
C2577 C 0.85094 0.60064 0.16509 0.0
C2578 C 0.63743 0.62418 0.41997 0.0
C2579 C 0.6456 0.6453 0.41155 0.0
H2580 H 0.63744 0.58761 0.41614 0.0
C2581 C 0.6633 0.64544 0.39516 0.0
H2582 H 0.6239 0.62356 0.43276 0.0
C2583 C 0.67112 0.62482 0.38573 0.0
C2584 C 0.66122 0.60385 0.39247 0.0
H2585 H 0.67002 0.66149 0.38851 0.0
H2586 H 0.68376 0.62546 0.37206 0.0
C2587 C 0.64511 0.60359 0.41042 0.0
C2588 C 0.57291 0.85885 0.62448 0.0
C2589 C 0.58232 0.85195 0.64564 0.0
H2590 H 0.57511 0.85661 0.58782 0.0
C2591 C 0.59839 0.83399 0.64612 0.0
H2592 H 0.56031 0.87254 0.62364 0.0
C2593 C 0.60663 0.82466 0.62562 0.0
C2594 C 0.5991 0.8334 0.60438 0.0
H2595 H 0.6057 0.82817 0.66224 0.0
H2596 H 0.62022 0.81195 0.62645 0.0
C2597 C 0.58135 0.84972 0.60397 0.0
C2598 C 0.35109 0.39486 0.16609 0.0
C2599 C 0.35169 0.41091 0.14809 0.0
H2600 H 0.37053 0.37236 0.18767 0.0
C2601 C 0.37297 0.41973 0.14082 0.0
H2602 H 0.3349 0.38795 0.17216 0.0
C2603 C 0.39338 0.41061 0.14948 0.0
C2604 C 0.39275 0.39279 0.16573 0.0
H2605 H 0.37393 0.43227 0.12707 0.0
H2606 H 0.40956 0.41638 0.14228 0.0
C2607 C 0.37151 0.38595 0.17496 0.0
C2608 C 0.35796 0.62144 0.91677 0.0
C2609 C 0.35001 0.64277 0.9087 0.0
H2610 H 0.35749 0.58493 0.91245 0.0
C2611 C 0.33237 0.64337 0.89225 0.0
H2612 H 0.37143 0.62046 0.92959 0.0
C2613 C 0.32429 0.62297 0.88254 0.0
C2614 C 0.3339 0.60178 0.88904 0.0
H2615 H 0.32584 0.6596 0.88585 0.0
H2616 H 0.31167 0.62395 0.86888 0.0
C2617 C 0.35003 0.60109 0.90693 0.0
C2618 C 0.14664 0.60016 0.6591 0.0
C2619 C 0.14627 0.58296 0.6422 0.0
H2620 H 0.1268 0.62266 0.6803 0.0
C2621 C 0.12527 0.57252 0.6364 0.0
H2622 H 0.16262 0.60832 0.66405 0.0
C2623 C 0.10473 0.58085 0.64554 0.0
C2624 C 0.10495 0.59957 0.66074 0.0
H2625 H 0.12452 0.55908 0.62353 0.0
H2626 H 0.08865 0.57364 0.63953 0.0
C2627 C 0.12611 0.60834 0.6684 0.0
C2628 C 0.17105 0.37133 0.38566 0.0
C2629 C 0.16232 0.39283 0.39234 0.0
H2630 H 0.16802 0.33477 0.38863 0.0
C2631 C 0.14597 0.39401 0.41003 0.0
H2632 H 0.18375 0.36996 0.3721 0.0
C2633 C 0.13722 0.37389 0.41969 0.0
C2634 C 0.14445 0.35233 0.41153 0.0
H2635 H 0.13912 0.41041 0.41561 0.0
H2636 H 0.12371 0.37525 0.43244 0.0
C2637 C 0.16205 0.35119 0.39508 0.0
C2638 C 0.35281 0.59911 0.33178 0.0
C2639 C 0.35328 0.58262 0.34938 0.0
H2640 H 0.37248 0.62177 0.31062 0.0
C2641 C 0.37442 0.57308 0.35611 0.0
H2642 H 0.33671 0.60654 0.32609 0.0
C2643 C 0.39493 0.58195 0.34742 0.0
C2644 C 0.39449 0.60029 0.33176 0.0
H2645 H 0.37526 0.56015 0.3695 0.0
H2646 H 0.41105 0.57561 0.35426 0.0
C2647 C 0.3733 0.60783 0.32295 0.0
C2648 C 0.15033 0.60478 0.08133 0.0
C2649 C 0.1651 0.60393 0.10037 0.0
H2650 H 0.12924 0.62587 0.05991 0.0
C2651 C 0.17329 0.62455 0.10991 0.0
H2652 H 0.14398 0.58913 0.07346 0.0
C2653 C 0.16474 0.64563 0.10223 0.0
C2654 C 0.14801 0.64629 0.08487 0.0
H2655 H 0.18485 0.62438 0.12451 0.0
H2656 H 0.16994 0.66119 0.11106 0.0
C2657 C 0.14189 0.62583 0.07359 0.0
C2658 C 0.12003 0.42465 0.8614 0.0
C2659 C 0.14138 0.41566 0.85455 0.0
H2660 H 0.08345 0.42187 0.8588 0.0
C2661 C 0.14228 0.39994 0.83628 0.0
H2662 H 0.11886 0.43695 0.87534 0.0
C2663 C 0.12202 0.39156 0.82662 0.0
C2664 C 0.1006 0.39855 0.83534 0.0
H2665 H 0.15855 0.39296 0.83051 0.0
H2666 H 0.12318 0.3782 0.81368 0.0
C2667 C 0.09975 0.41604 0.85194 0.0
C2668 C 0.3562 0.39653 0.58349 0.0
C2669 C 0.3374 0.39663 0.5986 0.0
H2670 H 0.37989 0.37604 0.56428 0.0
C2671 C 0.32558 0.37601 0.60292 0.0
H2672 H 0.36548 0.41222 0.5797 0.0
C2673 C 0.3339 0.35527 0.59421 0.0
C2674 C 0.35406 0.35492 0.58099 0.0
H2675 H 0.31089 0.37563 0.61436 0.0
H2676 H 0.32542 0.33943 0.5991 0.0
C2677 C 0.36444 0.3758 0.57468 0.0
C2678 C 0.39434 0.16175 0.351 0.0
C2679 C 0.41059 0.14394 0.35083 0.0
H2680 H 0.37264 0.18315 0.37146 0.0
C2681 C 0.42023 0.13649 0.37169 0.0
H2682 H 0.38685 0.168 0.33513 0.0
C2683 C 0.41201 0.14507 0.39254 0.0
C2684 C 0.39416 0.16129 0.39272 0.0
H2685 H 0.43295 0.12289 0.37201 0.0
H2686 H 0.41854 0.13788 0.40844 0.0
C2687 C 0.38625 0.17044 0.37181 0.0
C2688 C 0.00414 0.14901 0.249 0.0
C2689 C 0.01655 0.1326 0.26157 0.0
H2690 H 0.97716 0.15491 0.22463 0.0
C2691 C 0.01362 0.10915 0.25653 0.0
H2692 H 0.00604 0.16718 0.25263 0.0
C2693 C 0.99744 0.10214 0.24022 0.0
C2694 C 0.98359 0.11847 0.22913 0.0
H2695 H 0.02307 0.09617 0.26597 0.0
H2696 H 0.99468 0.08392 0.23752 0.0
C2697 C 0.98758 0.14198 0.23307 0.0
C2698 C 0.10617 0.73781 0.48145 0.0
C2699 C 0.12906 0.73096 0.47784 0.0
H2700 H 0.08306 0.75851 0.50129 0.0
C2701 C 0.14675 0.7425 0.48948 0.0
H2702 H 0.0922 0.7293 0.47256 0.0
C2703 C 0.14149 0.75905 0.50606 0.0
C2704 C 0.11849 0.76451 0.51104 0.0
H2705 H 0.16455 0.73763 0.48697 0.0
H2706 H 0.15539 0.76663 0.51587 0.0
C2707 C 0.10093 0.75458 0.49784 0.0
C2708 C 0.50344 0.86119 0.73657 0.0
C2709 C 0.51148 0.88381 0.7337 0.0
H2710 H 0.48206 0.8384 0.75606 0.0
C2711 C 0.50143 0.90157 0.74657 0.0
H2712 H 0.51079 0.84717 0.72675 0.0
C2713 C 0.48512 0.89651 0.76347 0.0
C2714 C 0.47843 0.87364 0.76759 0.0
H2715 H 0.50724 0.91916 0.74468 0.0
H2716 H 0.47868 0.91036 0.77413 0.0
C2717 C 0.48694 0.85616 0.7533 0.0
C2718 C 0.35086 0.24984 0.99062 0.0
C2719 C 0.36845 0.26267 0.98024 0.0
H2720 H 0.34213 0.22495 0.01627 0.0
C2721 C 0.39146 0.25741 0.98543 0.0
H2722 H 0.33298 0.25346 0.9869 0.0
C2723 C 0.39672 0.24101 0.00218 0.0
C2724 C 0.37903 0.22975 0.01411 0.0
H2725 H 0.40539 0.26694 0.97755 0.0
H2726 H 0.41454 0.23832 0.00685 0.0
C2727 C 0.35611 0.23357 0.00749 0.0
C2728 C 0.9844 0.85632 0.26226 0.0
C2729 C 0.9782 0.87908 0.26749 0.0
H2730 H 0.00518 0.83408 0.24155 0.0
C2731 C 0.9904 0.89725 0.25734 0.0
H2732 H 0.97533 0.842 0.26998 0.0
C2733 C 0.00725 0.89271 0.2408 0.0
C2734 C 0.01244 0.86995 0.23453 0.0
H2735 H 0.98593 0.91495 0.26107 0.0
H2736 H 0.01547 0.90704 0.23219 0.0
C2737 C 0.00155 0.85178 0.24608 0.0
C2738 C 0.39478 0.76045 0.49197 0.0
C2739 C 0.37657 0.76977 0.47917 0.0
H2740 H 0.40493 0.73574 0.51731 0.0
C2741 C 0.35389 0.76377 0.48492 0.0
H2742 H 0.41243 0.76479 0.48793 0.0
C2743 C 0.34958 0.74733 0.5019 0.0
C2744 C 0.3679 0.7364 0.51318 0.0
H2745 H 0.33951 0.77084 0.47542 0.0
H2746 H 0.332 0.74204 0.505 0.0
C2747 C 0.39048 0.74378 0.50875 0.0
C2748 C 0.49132 0.14747 0.74139 0.0
C2749 C 0.48228 0.13024 0.72716 0.0
H2750 H 0.51497 0.15553 0.76845 0.0
C2751 C 0.48772 0.10713 0.73167 0.0
H2752 H 0.48733 0.1654 0.73829 0.0
C2753 C 0.50319 0.10143 0.7491 0.0
C2754 C 0.51377 0.11879 0.76206 0.0
H2755 H 0.48076 0.09348 0.72108 0.0
H2756 H 0.50798 0.08357 0.75135 0.0
C2757 C 0.5071 0.1418 0.75863 0.0
C2758 C 0.10242 0.23934 0.99408 0.0
C2759 C 0.12021 0.22972 0.98092 0.0
H2760 H 0.09322 0.26397 0.01982 0.0
C2761 C 0.14312 0.23512 0.98638 0.0
H2762 H 0.08462 0.23542 0.99031 0.0
C2763 C 0.14807 0.25137 0.00336 0.0
C2764 C 0.13017 0.26259 0.015 0.0
H2765 H 0.15719 0.2278 0.97662 0.0
H2766 H 0.1658 0.25624 0.00623 0.0
C2767 C 0.10736 0.25572 0.01093 0.0
C2768 C 0.26157 0.00544 0.10866 0.0
C2769 C 0.26629 0.01024 0.13189 0.0
H2770 H 0.24268 0.98469 0.08473 0.0
C2771 C 0.25388 -0.00127 0.14907 0.0
H2772 H 0.27087 0.01417 0.09509 0.0
C2773 C 0.23813 0.98161 0.14314 0.0
C2774 C 0.23415 0.97609 0.11994 0.0
H2775 H 0.25723 0.00207 0.16709 0.0
H2776 H 0.22954 0.97222 0.15675 0.0
C2777 C 0.24542 0.98866 0.10272 0.0
C2778 C 0.24024 0.0038 0.38907 0.0
C2779 C 0.22851 0.01619 0.37203 0.0
H2780 H 0.26692 0.97951 0.3964 0.0
C2781 C 0.23262 0.01105 0.34875 0.0
H2782 H 0.23748 0.00748 0.40712 0.0
C2783 C 0.24923 0.99478 0.34261 0.0
C2784 C 0.26229 0.9838 0.35965 0.0
H2785 H 0.22375 0.02036 0.33528 0.0
H2786 H 0.25284 0.99192 0.32456 0.0
C2787 C 0.25717 0.9879 0.38292 0.0
C2788 C 0.24166 0.99262 0.64822 0.0
C2789 C 0.23028 0.98109 0.63035 0.0
H2790 H 0.26649 0.01822 0.65723 0.0
C2791 C 0.23774 0.98434 0.60758 0.0
H2792 H 0.23634 0.99037 0.66593 0.0
C2793 C 0.25519 8e-05 0.60261 0.0
C2794 C 0.26524 0.01301 0.62032 0.0
H2795 H 0.22936 0.97551 0.59348 0.0
H2796 H 0.25972 0.00318 0.5848 0.0
C2797 C 0.25891 0.00856 0.64323 0.0
C2798 C 0.24535 0.00545 0.8519 0.0
C2799 C 0.23275 0.01733 0.86869 0.0
H2800 H 0.27019 0.97913 0.84521 0.0
C2801 C 0.23837 0.01432 0.89201 0.0
H2802 H 0.24137 0.00745 0.83381 0.0
C2803 C 0.2551 -0.00165 0.89853 0.0
C2804 C 0.26613 0.9849 0.88182 0.0
H2805 H 0.22897 0.02339 0.90529 0.0
H2806 H 0.25814 0.99538 0.91667 0.0
C2807 C 0.26177 0.9892 0.85843 0.0
C2808 C 0.6014 0.25446 0.0005 0.0
C2809 C 0.619 0.26511 0.0131 0.0
H2810 H 0.59275 0.22859 0.97584 0.0
C2811 C 0.64202 0.26024 0.00758 0.0
H2812 H 0.58352 0.25794 0.00433 0.0
C2813 C 0.64732 0.2435 0.99118 0.0
C2814 C 0.62967 0.23127 0.98021 0.0
H2815 H 0.65594 0.26834 0.01691 0.0
H2816 H 0.66517 0.23907 0.98831 0.0
C2817 C 0.6067 0.2376 0.98424 0.0
C2818 C 0.00967 0.39728 0.24984 0.0
C2819 C 0.02236 0.37968 0.23933 0.0
H2820 H 0.98456 0.40596 0.27534 0.0
C2821 C 0.0175 0.35666 0.24488 0.0
H2822 H 0.01311 0.41516 0.24589 0.0
C2823 C 0.00084 0.35136 0.26137 0.0
C2824 C 0.9892 0.36905 0.27292 0.0
H2825 H 0.02701 0.34277 0.2369 0.0
H2826 H -0.00206 0.33353 0.26592 0.0
C2827 C 0.99341 0.39202 0.26671 0.0
C2828 C 0.88701 0.75533 0.48707 0.0
C2829 C 0.86391 0.76042 0.48217 0.0
H2830 H 0.91049 0.73608 0.50791 0.0
C2831 C 0.84652 0.74745 0.49271 0.0
H2832 H 0.90075 0.76501 0.47905 0.0
C2833 C 0.85209 0.73114 0.50947 0.0
C2834 C 0.87513 0.72728 0.5156 0.0
H2835 H 0.82858 0.75104 0.48925 0.0
H2836 H 0.8383 0.72244 0.51847 0.0
C2837 C 0.89259 0.73872 0.50352 0.0
C2838 C 0.99009 0.64355 0.24617 0.0
C2839 C 0.97824 0.62656 0.23383 0.0
H2840 H 0.01666 0.65065 0.27062 0.0
C2841 C 0.98149 0.60332 0.23963 0.0
H2842 H 0.9879 0.66158 0.24202 0.0
C2843 C -0.00229 0.59706 0.25618 0.0
C2844 C 0.01119 0.61395 0.26688 0.0
H2845 H 0.97242 0.58989 0.23045 0.0
H2846 H 0.00087 0.57897 0.2593 0.0
C2847 C 0.00659 0.63728 0.26246 0.0
C2848 C 0.48814 0.40055 0.74744 0.0
C2849 C 0.47967 0.38501 0.76382 0.0
H2850 H 0.50984 0.40545 0.71814 0.0
C2851 C 0.4891 0.36275 0.76491 0.0
H2852 H 0.48123 0.41781 0.74623 0.0
C2853 C 0.5056 0.35569 0.74891 0.0
C2854 C 0.51276 0.37071 0.73144 0.0
H2855 H 0.48297 0.35043 0.77746 0.0
H2856 H 0.51175 0.33812 0.74944 0.0
C2857 C 0.50446 0.39343 0.73132 0.0
C2858 C 0.98686 0.89153 0.73582 0.0
C2859 C 0.98236 0.86858 0.72971 0.0
H2860 H 0.00755 0.91453 0.75585 0.0
C2861 C 0.99385 0.85083 0.74129 0.0
H2862 H 0.97814 0.90555 0.72717 0.0
C2863 C 0.01093 0.85599 0.75735 0.0
C2864 C 0.01645 0.87896 0.7624 0.0
H2865 H 0.99076 0.833 0.73687 0.0
H2866 H 0.02048 0.842 0.76511 0.0
C2867 C 0.00363 0.89669 0.75223 0.0
C2868 C 0.84704 0.2494 0.50599 0.0
C2869 C 0.86388 0.26369 0.51566 0.0
H2870 H 0.83949 0.22384 0.4806 0.0
C2871 C 0.88703 0.26039 0.50961 0.0
H2872 H 0.82908 0.25157 0.51038 0.0
C2873 C 0.89304 0.24432 0.4928 0.0
C2874 C 0.87592 0.23159 0.48155 0.0
H2875 H 0.90038 0.27109 0.51697 0.0
H2876 H 0.91084 0.24311 0.48749 0.0
C2877 C 0.853 0.23358 0.48892 0.0
C2878 C 0.48829 0.13842 0.25734 0.0
C2879 C 0.48048 0.11571 0.26023 0.0
H2880 H 0.50965 0.16137 0.23795 0.0
C2881 C 0.49058 0.09806 0.24725 0.0
H2882 H 0.48085 0.15235 0.26722 0.0
C2883 C 0.50681 0.10328 0.23037 0.0
C2884 C 0.51345 0.12617 0.22639 0.0
H2885 H 0.48494 0.08041 0.24914 0.0
H2886 H 0.51343 0.08947 0.21974 0.0
C2887 C 0.50478 0.1436 0.24063 0.0
C2888 C 0.64488 0.74421 0.00598 0.0
C2889 C 0.62671 0.73185 0.01594 0.0
H2890 H 0.65474 0.76948 0.98107 0.0
C2891 C 0.60397 0.73828 0.0109 0.0
H2892 H 0.66256 0.73963 0.00957 0.0
C2893 C 0.59948 0.75558 0.99484 0.0
C2894 C 0.61767 0.76644 0.98329 0.0
H2895 H 0.58964 0.72911 0.01847 0.0
H2896 H 0.5818 0.75924 0.99029 0.0
C2897 C 0.64039 0.76125 0.98964 0.0
C2898 C 0.9857 0.13433 0.74701 0.0
C2899 C 0.97999 0.11968 0.76532 0.0
H2900 H 0.00639 0.13924 0.71697 0.0
C2901 C 0.9887 0.09712 0.76548 0.0
H2902 H 0.97917 0.15176 0.7464 0.0
C2903 C 0.00414 0.08986 0.74856 0.0
C2904 C 0.01127 0.10512 0.73128 0.0
H2905 H 0.98441 0.08536 0.77928 0.0
H2906 H 0.01151 0.07281 0.74984 0.0
C2907 C 0.00128 0.12713 0.73018 0.0
C2908 C 0.6396 0.24096 0.50854 0.0
C2909 C 0.61687 0.23781 0.51615 0.0
H2910 H 0.66256 0.2607 0.48748 0.0
C2911 C 0.59925 0.25095 0.50622 0.0
H2912 H 0.65352 0.23099 0.51587 0.0
C2913 C 0.60448 0.26809 0.49024 0.0
C2914 C 0.62736 0.27219 0.48367 0.0
H2915 H 0.58159 0.24889 0.51174 0.0
H2916 H 0.59067 0.27874 0.48369 0.0
C2917 C 0.64479 0.25792 0.49229 0.0
C2918 C 0.51255 0.89577 0.25764 0.0
C2919 C 0.51818 0.87271 0.2622 0.0
H2920 H 0.49118 0.91902 0.23875 0.0
C2921 C 0.50874 0.85533 0.2484 0.0
H2922 H 0.51976 0.90954 0.26791 0.0
C2923 C 0.49223 0.86076 0.23182 0.0
C2924 C 0.48512 0.88365 0.22867 0.0
H2925 H 0.51283 0.83743 0.25151 0.0
H2926 H 0.48406 0.84689 0.22246 0.0
C2927 C 0.49623 0.90122 0.24091 0.0
C2928 C 0.89885 0.75503 0.00025 0.0
C2929 C 0.88105 0.7665 0.0118 0.0
H2930 H 0.90778 0.72826 0.97659 0.0
C2931 C 0.85817 0.76219 0.00536 0.0
H2932 H 0.91664 0.75801 0.00487 0.0
C2933 C 0.85309 0.74537 0.98898 0.0
C2934 C 0.87082 0.73235 0.97906 0.0
H2935 H 0.84411 0.77092 0.01392 0.0
H2936 H 0.83526 0.74145 0.98536 0.0
C2937 C 0.89377 0.73795 0.98413 0.0
C2938 C 0.73506 0.98735 0.89057 0.0
C2939 C 0.73139 0.98165 0.86736 0.0
H2940 H 0.75309 0.00885 0.91451 0.0
C2941 C 0.74512 0.99192 0.8504 0.0
H2942 H 0.72472 0.9796 0.90399 0.0
C2943 C 0.76097 0.00893 0.85638 0.0
C2944 C 0.76372 0.01556 0.87946 0.0
H2945 H 0.74259 0.98789 0.83238 0.0
H2946 H 0.77044 0.01754 0.84284 0.0
C2947 C 0.75131 0.004 0.89661 0.0
C2948 C 0.75034 0.99177 0.60195 0.0
C2949 C 0.76265 0.98123 0.61982 0.0
H2950 H 0.72305 0.01472 0.59292 0.0
C2951 C 0.75883 0.9884 0.64261 0.0
H2952 H 0.7529 0.98656 0.58425 0.0
C2953 C 0.7419 0.00473 0.64756 0.0
C2954 C 0.7283 0.01381 0.62983 0.0
H2955 H 0.76815 0.98058 0.65671 0.0
H2956 H 0.73851 0.00913 0.66534 0.0
C2957 C 0.73317 0.00779 0.60694 0.0
C2958 C 0.73352 0.99043 0.35849 0.0
C2959 C 0.72896 0.98501 0.38161 0.0
H2960 H 0.75459 0.00929 0.33493 0.0
C2961 C 0.73998 0.99754 0.39903 0.0
H2962 H 0.72509 0.98117 0.3447 0.0
C2963 C 0.75699 0.01354 0.39341 0.0
C2964 C 0.76305 0.01738 0.37032 0.0
H2965 H 0.73672 0.99378 0.41698 0.0
H2966 H 0.76635 0.02184 0.40721 0.0
C2967 C 0.75038 0.00657 0.35288 0.0
C2968 C 0.73778 0.01061 0.14336 0.0
C2969 C 0.73087 0.01277 0.12029 0.0
H2970 H 0.76006 0.99374 0.16734 0.0
C2971 C 0.73921 0.99707 0.10399 0.0
H2972 H 0.73145 0.02239 0.15632 0.0
C2973 C 0.75574 0.98081 0.11026 0.0
C2974 C 0.76394 0.97981 0.13299 0.0
H2975 H 0.73413 -0.00169 0.08611 0.0
H2976 H 0.76298 0.96983 0.09706 0.0
C2977 C 0.75408 0.99415 0.1497 0.0
C2978 C 0.39076 0.7364 0.99631 0.0
C2979 C 0.37345 0.72725 0.98222 0.0
H2980 H 0.3991 0.76052 0.02283 0.0
C2981 C 0.35039 0.73278 0.98682 0.0
H2982 H 0.40867 0.73238 0.99318 0.0
C2983 C 0.34488 0.74873 0.00392 0.0
C2984 C 0.36238 0.75957 0.01648 0.0
H2985 H 0.33668 0.7258 0.97634 0.0
H2986 H 0.32708 0.75373 0.00612 0.0
C2987 C 0.38527 0.75254 0.01324 0.0
C2988 C 0.99328 0.63391 0.76229 0.0
C2989 C 0.98598 0.61103 0.76518 0.0
H2990 H 0.01379 0.65739 0.74268 0.0
C2991 C 0.99659 0.59361 0.7523 0.0
H2992 H 0.98549 0.64768 0.77212 0.0
C2993 C 0.01264 0.59921 0.73533 0.0
C2994 C 0.01851 0.62228 0.73114 0.0
H2995 H 0.99136 0.57583 0.75421 0.0
H2996 H 0.01948 0.58557 0.72464 0.0
C2997 C 0.00952 0.63948 0.74547 0.0
C2998 C 0.09884 0.25275 0.49807 0.0
C2999 C 0.11652 0.26464 0.48675 0.0
H3000 H 0.09019 0.22577 0.52155 0.0
C3001 C 0.13943 0.26071 0.49336 0.0
H3002 H 0.08103 0.25548 0.49339 0.0
C3003 C 0.14468 0.24382 0.50963 0.0
C3004 C 0.12711 0.23045 0.51934 0.0
H3005 H 0.1534 0.26977 0.48501 0.0
H3006 H 0.16255 0.24018 0.51337 0.0
C3007 C 0.1041 0.2357 0.51414 0.0
C3008 C 0.98824 0.35546 0.73621 0.0
C3009 C 0.98059 0.37815 0.73276 0.0
H3010 H 0.00914 0.33277 0.75642 0.0
C3011 C 0.99051 0.39597 0.74564 0.0
H3012 H 0.98092 0.34139 0.72645 0.0
C3013 C 0.00638 0.39099 0.76293 0.0
C3014 C 0.01285 0.36815 0.76744 0.0
H3015 H 0.98498 0.41361 0.74335 0.0
H3016 H 0.01283 0.40496 0.77344 0.0
C3017 C 0.00438 0.35051 0.75333 0.0
C3018 C 0.49332 0.64316 0.25251 0.0
C3019 C 0.48157 0.62611 0.26487 0.0
H3020 H 0.51958 0.65046 0.22778 0.0
C3021 C 0.48518 0.60286 0.25928 0.0
H3022 H 0.49089 0.66119 0.25653 0.0
C3023 C 0.50134 0.59672 0.24258 0.0
C3024 C 0.51443 0.61373 0.2316 0.0
H3025 H 0.47625 0.58938 0.26853 0.0
H3026 H 0.50459 0.57866 0.23936 0.0
C3027 C 0.50979 0.63701 0.23617 0.0
C3028 C 0.51006 0.60642 0.75799 0.0
C3029 C 0.5132 0.62934 0.76498 0.0
H3030 H 0.49045 0.58291 0.73746 0.0
C3031 C 0.49997 0.64671 0.75471 0.0
H3032 H 0.52007 0.59272 0.76567 0.0
C3033 C 0.4827 0.64104 0.73899 0.0
C3034 C 0.47875 0.61798 0.73293 0.0
H3035 H 0.50194 0.66449 0.7599 0.0
H3036 H 0.47193 0.65463 0.73219 0.0
C3037 C 0.49313 0.60081 0.74188 0.0
C3038 C 0.85609 0.25958 0.98764 0.0
C3039 C 0.8789 0.26399 0.98097 0.0
H3040 H 0.83354 0.23926 0.00848 0.0
C3041 C 0.89689 0.25328 0.99296 0.0
H3042 H 0.84187 0.26774 0.97881 0.0
C3043 C 0.8921 0.23687 0.00986 0.0
C3044 C 0.86925 0.23107 0.01518 0.0
H3045 H 0.91463 0.25642 0.98826 0.0
H3046 H 0.90629 0.22781 0.01781 0.0
C3047 C 0.8513 0.24332 0.00469 0.0
C3048 C 0.6432 0.7386 0.48708 0.0
C3049 C 0.62027 0.73337 0.48153 0.0
H3050 H 0.66598 0.75976 0.50688 0.0
C3051 C 0.60247 0.74386 0.49397 0.0
H3052 H 0.65725 0.73067 0.47778 0.0
C3053 C 0.60747 0.76073 0.5103 0.0
C3054 C 0.63034 0.76707 0.51475 0.0
H3055 H 0.58465 0.74018 0.49004 0.0
H3056 H 0.59338 0.76953 0.51872 0.0
C3057 C 0.64821 0.75519 0.50374 0.0
C3058 C 0.74484 0.49189 0.6037 0.0
C3059 C 0.73096 0.48158 0.62052 0.0
H3060 H 0.77331 0.51412 0.59688 0.0
C3061 C 0.73333 0.48844 0.6436 0.0
H3062 H 0.7434 0.48693 0.5858 0.0
C3063 C 0.75033 0.50419 0.64994 0.0
C3064 C 0.76542 0.51303 0.63332 0.0
H3065 H 0.72277 0.4808 0.65691 0.0
H3066 H 0.75254 0.50836 0.66796 0.0
C3067 C 0.76204 0.50734 0.61008 0.0
C3068 C 0.73576 0.51025 0.84964 0.0
C3069 C 0.73179 0.51566 0.87287 0.0
H3070 H 0.75535 0.49033 0.82558 0.0
C3071 C 0.74322 0.50311 0.89 0.0
H3072 H 0.7271 0.51965 0.83609 0.0
C3073 C 0.75967 0.48666 0.88397 0.0
C3074 C 0.7646 0.48219 0.86073 0.0
H3075 H 0.74054 0.50699 0.90802 0.0
H3076 H 0.76915 0.47807 0.89751 0.0
C3077 C 0.75188 0.49346 0.84361 0.0
C3078 C 0.7569 0.5005 0.10421 0.0
C3079 C 0.766 0.51451 0.12161 0.0
H3080 H 0.73259 0.47425 0.09565 0.0
C3081 C 0.76008 0.51009 0.14463 0.0
H3082 H 0.76122 0.5035 0.08634 0.0
C3083 C 0.74386 0.49323 0.15 0.0
C3084 C 0.73312 0.48073 0.13239 0.0
H3085 H 0.76702 0.52052 0.15841 0.0
H3086 H 0.7386 0.49115 0.16775 0.0
C3087 C 0.74048 0.4838 0.10955 0.0
C3088 C 0.76001 0.48758 0.35073 0.0
C3089 C 0.76559 0.48266 0.37373 0.0
H3090 H 0.73853 0.50669 0.32773 0.0
C3091 C 0.75592 0.49606 0.39131 0.0
H3092 H 0.76737 0.47762 0.33681 0.0
C3093 C 0.73932 0.51261 0.3861 0.0
C3094 C 0.73229 0.51613 0.36324 0.0
H3095 H 0.75998 0.49272 0.40918 0.0
H3096 H 0.73106 0.5217 0.40011 0.0
C3097 C 0.74354 0.50425 0.34551 0.0
C3098 C 0.50876 0.36005 0.26082 0.0
C3099 C 0.51455 0.38339 0.26329 0.0
H3100 H 0.48863 0.3351 0.24271 0.0
C3101 C 0.50252 0.39995 0.25055 0.0
H3102 H 0.51774 0.34697 0.27058 0.0
C3103 C 0.48617 0.39312 0.23432 0.0
C3104 C 0.48126 0.36968 0.23098 0.0
H3105 H 0.50671 0.41803 0.25212 0.0
H3106 H 0.478 0.40612 0.22375 0.0
C3107 C 0.49205 0.35327 0.24498 0.0
C3108 C 0.14135 0.73809 0.01157 0.0
C3109 C 0.11858 0.73234 0.01721 0.0
H3110 H 0.16357 0.75941 0.99143 0.0
C3111 C 0.10054 0.74168 0.0042 0.0
H3112 H 0.1556 0.73097 0.02123 0.0
C3113 C 0.1051 0.75813 0.98729 0.0
C3114 C 0.12777 0.76525 0.98294 0.0
H3115 H 0.08283 0.7375 0.00815 0.0
H3116 H 0.09078 0.7662 0.97854 0.0
C3117 C 0.14593 0.7543 0.99446 0.0
C3118 C 0.35578 0.26156 0.50477 0.0
C3119 C 0.3786 0.2655 0.51165 0.0
H3120 H 0.33293 0.24098 0.48455 0.0
C3121 C 0.39644 0.2537 0.50049 0.0
H3122 H 0.34169 0.27055 0.513 0.0
C3123 C 0.3914 0.23664 0.48437 0.0
C3124 C 0.36847 0.2313 0.479 0.0
H3125 H 0.41419 0.25644 0.50539 0.0
H3126 H 0.40541 0.22673 0.47713 0.0
C3127 C 0.35075 0.24466 0.48846 0.0
C3128 C 0.25653 0.50311 0.39626 0.0
C3129 C 0.26645 0.51688 0.37912 0.0
H3130 H 0.23237 0.47637 0.40387 0.0
C3131 C 0.26203 0.51185 0.3559 0.0
H3132 H 0.2597 0.50662 0.41428 0.0
C3133 C 0.24671 0.4944 0.34992 0.0
C3134 C 0.23528 0.4819 0.36708 0.0
H3135 H 0.26967 0.52208 0.34233 0.0
H3136 H 0.24275 0.49173 0.33191 0.0
C3137 C 0.2409 0.48584 0.39028 0.0
C3138 C 0.23555 0.50557 0.10433 0.0
C3139 C 0.22843 0.50953 0.12711 0.0
H3140 H 0.25664 0.4855 0.08172 0.0
C3141 C 0.23916 0.49751 0.14505 0.0
H3142 H 0.2276 0.5147 0.09018 0.0
C3143 C 0.25548 0.48058 0.14017 0.0
C3144 C 0.26165 0.47571 0.11731 0.0
H3145 H 0.23399 0.50021 0.16275 0.0
H3146 H 0.26265 0.47072 0.15426 0.0
C3147 C 0.25219 0.48892 0.09948 0.0
C3148 C 0.25553 0.51165 0.88553 0.0
C3149 C 0.26348 0.51196 0.86268 0.0
H3150 H 0.23381 0.4952 0.91035 0.0
C3151 C 0.25336 0.49719 0.84652 0.0
H3152 H 0.26296 0.52297 0.89832 0.0
C3153 C 0.23687 0.48118 0.85347 0.0
C3154 C 0.23001 0.47987 0.87662 0.0
H3155 H 0.25911 0.49708 0.8288 0.0
H3156 H 0.23022 0.46916 0.84089 0.0
C3157 C 0.23881 0.49583 0.89242 0.0
C3158 C 0.24308 0.51693 0.64257 0.0
C3159 C 0.23409 0.51728 0.62013 0.0
H3160 H 0.26671 0.5012 0.666 0.0
C3161 C 0.24024 0.49976 0.60473 0.0
H3162 H 0.23847 0.53013 0.65488 0.0
C3163 C 0.2565 0.48324 0.61108 0.0
C3164 C 0.26671 0.48389 0.633 0.0
H3165 H 0.23351 0.49956 0.58736 0.0
H3166 H 0.26192 0.47068 0.59844 0.0
C3167 C 0.25918 0.50031 0.64899 0.0
loop_
_geom_bond_atom_site_label_1
_geom_bond_atom_site_label_2
_geom_bond_distance
_geom_bond_site_symmetry_2
_ccdc_geom_bond_type
In0 O1 2.294 . S
In0 O2 2.326 . S
In0 O6 2.266 . S
In0 O7 2.326 . S
In0 O8 2.266 . S
In0 O9 2.326 . S
In0 O11 2.294 . S
In0 O12 2.326 . S
O1 In0 2.294 . S
O1 C10 1.240 . S
O2 In0 2.326 . S
O2 C10 1.252 . S
C3 O6 1.252 . S
C3 O7 1.260 . S
C4 O11 1.240 . S
C4 O12 1.252 . S
C5 O8 1.252 . S
C5 O9 1.260 . S
O6 In0 2.266 . S
O6 C3 1.252 . S
O7 In0 2.326 . S
O7 C3 1.260 . S
O8 In0 2.266 . S
O8 C5 1.252 . S
O9 In0 2.326 . S
O9 C5 1.260 . S
C10 O1 1.240 . S
C10 O2 1.252 . S
O11 In0 2.294 . S
O11 C4 1.240 . S
O12 In0 2.326 . S
O12 C4 1.252 . S
In13 O14 2.294 . S
In13 O15 2.326 . S
In13 O19 2.266 . S
In13 O20 2.326 . S
In13 O21 2.266 . S
In13 O22 2.326 . S
In13 O24 2.294 . S
In13 O25 2.326 . S
O14 In13 2.294 . S
O14 C23 1.240 . S
O15 In13 2.326 . S
O15 C23 1.252 . S
C16 O19 1.252 . S
C16 O20 1.260 . S
C17 O24 1.240 . S
C17 O25 1.252 . S
C18 O21 1.252 . S
C18 O22 1.260 . S
O19 In13 2.266 . S
O19 C16 1.252 . S
O20 In13 2.326 . S
O20 C16 1.260 . S
O21 In13 2.266 . S
O21 C18 1.252 . S
O22 In13 2.326 . S
O22 C18 1.260 . S
C23 O14 1.240 . S
C23 O15 1.252 . S
O24 In13 2.294 . S
O24 C17 1.240 . S
O25 In13 2.326 . S
O25 C17 1.252 . S
In26 O27 2.294 . S
In26 O28 2.326 . S
In26 O32 2.266 . S
In26 O33 2.326 . S
In26 O34 2.266 . S
In26 O35 2.326 . S
In26 O37 2.294 . S
In26 O38 2.326 . S
O27 In26 2.294 . S
O27 C36 1.240 . S
O28 In26 2.326 . S
O28 C36 1.252 . S
C29 O32 1.252 . S
C29 O33 1.260 . S
C30 O37 1.240 . S
C30 O38 1.252 . S
C31 O34 1.252 . S
C31 O35 1.260 . S
O32 In26 2.266 . S
O32 C29 1.252 . S
O33 In26 2.326 . S
O33 C29 1.260 . S
O34 In26 2.266 . S
O34 C31 1.252 . S
O35 In26 2.326 . S
O35 C31 1.260 . S
C36 O27 1.240 . S
C36 O28 1.252 . S
O37 In26 2.294 . S
O37 C30 1.240 . S
O38 In26 2.326 . S
O38 C30 1.252 . S
In39 O40 2.294 . S
In39 O41 2.326 . S
In39 O45 2.266 . S
In39 O46 2.326 . S
In39 O47 2.266 . S
In39 O48 2.326 . S
In39 O50 2.294 . S
In39 O51 2.326 . S
O40 In39 2.294 . S
O40 C49 1.240 . S
O41 In39 2.326 . S
O41 C49 1.252 . S
C42 O45 1.252 . S
C42 O46 1.260 . S
C43 O50 1.240 . S
C43 O51 1.252 . S
C44 O47 1.252 . S
C44 O48 1.260 . S
O45 In39 2.266 . S
O45 C42 1.252 . S
O46 In39 2.326 . S
O46 C42 1.260 . S
O47 In39 2.266 . S
O47 C44 1.252 . S
O48 In39 2.326 . S
O48 C44 1.260 . S
C49 O40 1.240 . S
C49 O41 1.252 . S
O50 In39 2.294 . S
O50 C43 1.240 . S
O51 In39 2.326 . S
O51 C43 1.252 . S
In52 O53 2.294 . S
In52 O54 2.326 . S
In52 O58 2.266 . S
In52 O59 2.326 . S
In52 O60 2.266 . S
In52 O61 2.326 . S
In52 O63 2.294 . S
In52 O64 2.326 . S
O53 In52 2.294 . S
O53 C62 1.240 . S
O54 In52 2.326 . S
O54 C62 1.252 . S
C55 O58 1.252 . S
C55 O59 1.260 . S
C56 O63 1.240 . S
C56 O64 1.252 . S
C57 O60 1.252 . S
C57 O61 1.260 . S
O58 In52 2.266 . S
O58 C55 1.252 . S
O59 In52 2.326 . S
O59 C55 1.260 . S
O60 In52 2.266 . S
O60 C57 1.252 . S
O61 In52 2.326 . S
O61 C57 1.260 . S
C62 O53 1.240 . S
C62 O54 1.252 . S
O63 In52 2.294 . S
O63 C56 1.240 . S
O64 In52 2.326 . S
O64 C56 1.252 . S
In65 O66 2.294 . S
In65 O67 2.326 . S
In65 O71 2.266 . S
In65 O72 2.326 . S
In65 O73 2.266 . S
In65 O74 2.326 . S
In65 O76 2.294 . S
In65 O77 2.326 . S
O66 In65 2.294 . S
O66 C75 1.240 . S
O67 In65 2.326 . S
O67 C75 1.252 . S
C68 O71 1.252 . S
C68 O72 1.260 . S
C69 O76 1.240 . S
C69 O77 1.252 . S
C70 O73 1.252 . S
C70 O74 1.260 . S
O71 In65 2.266 . S
O71 C68 1.252 . S
O72 In65 2.326 . S
O72 C68 1.260 . S
O73 In65 2.266 . S
O73 C70 1.252 . S
O74 In65 2.326 . S
O74 C70 1.260 . S
C75 O66 1.240 . S
C75 O67 1.252 . S
O76 In65 2.294 . S
O76 C69 1.240 . S
O77 In65 2.326 . S
O77 C69 1.252 . S
In78 O79 2.294 . S
In78 O80 2.326 . S
In78 O84 2.266 . S
In78 O85 2.326 . S
In78 O86 2.266 . S
In78 O87 2.326 . S
In78 O89 2.294 . S
In78 O90 2.326 . S
O79 In78 2.294 . S
O79 C88 1.240 . S
O80 In78 2.326 . S
O80 C88 1.252 . S
C81 O84 1.252 . S
C81 O85 1.260 . S
C82 O89 1.240 . S
C82 O90 1.252 . S
C83 O86 1.252 . S
C83 O87 1.260 . S
O84 In78 2.266 . S
O84 C81 1.252 . S
O85 In78 2.326 . S
O85 C81 1.260 . S
O86 In78 2.266 . S
O86 C83 1.252 . S
O87 In78 2.326 . S
O87 C83 1.260 . S
C88 O79 1.240 . S
C88 O80 1.252 . S
O89 In78 2.294 . S
O89 C82 1.240 . S
O90 In78 2.326 . S
O90 C82 1.252 . S
In91 O92 2.294 . S
In91 O93 2.326 . S
In91 O97 2.266 . S
In91 O98 2.326 . S
In91 O99 2.266 . S
In91 O100 2.326 . S
In91 O102 2.294 . S
In91 O103 2.326 . S
O92 In91 2.294 . S
O92 C101 1.240 . S
O93 In91 2.326 . S
O93 C101 1.252 . S
C94 O97 1.252 . S
C94 O98 1.260 . S
C95 O102 1.240 . S
C95 O103 1.252 . S
C96 O99 1.252 . S
C96 O100 1.260 . S
O97 In91 2.266 . S
O97 C94 1.252 . S
O98 In91 2.326 . S
O98 C94 1.260 . S
O99 In91 2.266 . S
O99 C96 1.252 . S
O100 In91 2.326 . S
O100 C96 1.260 . S
C101 O92 1.240 . S
C101 O93 1.252 . S
O102 In91 2.294 . S
O102 C95 1.240 . S
O103 In91 2.326 . S
O103 C95 1.252 . S
In104 O105 2.294 . S
In104 O106 2.326 . S
In104 O110 2.266 . S
In104 O111 2.326 . S
In104 O112 2.266 . S
In104 O113 2.326 . S
In104 O115 2.294 . S
In104 O116 2.326 . S
O105 In104 2.294 . S
O105 C114 1.240 . S
O106 In104 2.326 . S
O106 C114 1.252 . S
C107 O110 1.252 . S
C107 O111 1.260 . S
C108 O115 1.240 . S
C108 O116 1.252 . S
C109 O112 1.252 . S
C109 O113 1.260 . S
O110 In104 2.266 . S
O110 C107 1.252 . S
O111 In104 2.326 . S
O111 C107 1.260 . S
O112 In104 2.266 . S
O112 C109 1.252 . S
O113 In104 2.326 . S
O113 C109 1.260 . S
C114 O105 1.240 . S
C114 O106 1.252 . S
O115 In104 2.294 . S
O115 C108 1.240 . S
O116 In104 2.326 . S
O116 C108 1.252 . S
In117 O118 2.294 . S
In117 O119 2.326 . S
In117 O123 2.266 . S
In117 O124 2.326 . S
In117 O125 2.266 . S
In117 O126 2.326 . S
In117 O128 2.294 . S
In117 O129 2.326 . S
O118 In117 2.294 . S
O118 C127 1.240 . S
O119 In117 2.326 . S
O119 C127 1.252 . S
C120 O123 1.252 . S
C120 O124 1.260 . S
C121 O128 1.240 . S
C121 O129 1.252 . S
C122 O125 1.252 . S
C122 O126 1.260 . S
O123 In117 2.266 . S
O123 C120 1.252 . S
O124 In117 2.326 . S
O124 C120 1.260 . S
O125 In117 2.266 . S
O125 C122 1.252 . S
O126 In117 2.326 . S
O126 C122 1.260 . S
C127 O118 1.240 . S
C127 O119 1.252 . S
O128 In117 2.294 . S
O128 C121 1.240 . S
O129 In117 2.326 . S
O129 C121 1.252 . S
In130 O131 2.294 . S
In130 O132 2.326 . S
In130 O136 2.266 . S
In130 O137 2.326 . S
In130 O138 2.266 . S
In130 O139 2.326 . S
In130 O141 2.294 . S
In130 O142 2.326 . S
O131 In130 2.294 . S
O131 C140 1.240 . S
O132 In130 2.326 . S
O132 C140 1.252 . S
C133 O136 1.252 . S
C133 O137 1.260 . S
C134 O141 1.240 . S
C134 O142 1.252 . S
C135 O138 1.252 . S
C135 O139 1.260 . S
O136 In130 2.266 . S
O136 C133 1.252 . S
O137 In130 2.326 . S
O137 C133 1.260 . S
O138 In130 2.266 . S
O138 C135 1.252 . S
O139 In130 2.326 . S
O139 C135 1.260 . S
C140 O131 1.240 . S
C140 O132 1.252 . S
O141 In130 2.294 . S
O141 C134 1.240 . S
O142 In130 2.326 . S
O142 C134 1.252 . S
In143 O144 2.294 . S
In143 O145 2.326 . S
In143 O149 2.266 . S
In143 O150 2.326 . S
In143 O151 2.266 . S
In143 O152 2.326 . S
In143 O154 2.294 . S
In143 O155 2.326 . S
O144 In143 2.294 . S
O144 C153 1.240 . S
O145 In143 2.326 . S
O145 C153 1.252 . S
C146 O149 1.252 . S
C146 O150 1.260 . S
C147 O154 1.240 . S
C147 O155 1.252 . S
C148 O151 1.252 . S
C148 O152 1.260 . S
O149 In143 2.266 . S
O149 C146 1.252 . S
O150 In143 2.326 . S
O150 C146 1.260 . S
O151 In143 2.266 . S
O151 C148 1.252 . S
O152 In143 2.326 . S
O152 C148 1.260 . S
C153 O144 1.240 . S
C153 O145 1.252 . S
O154 In143 2.294 . S
O154 C147 1.240 . S
O155 In143 2.326 . S
O155 C147 1.252 . S
In156 O157 2.294 . S
In156 O158 2.326 . S
In156 O162 2.266 . S
In156 O163 2.326 . S
In156 O164 2.266 . S
In156 O165 2.326 . S
In156 O167 2.294 . S
In156 O168 2.326 . S
O157 In156 2.294 . S
O157 C166 1.240 . S
O158 In156 2.326 . S
O158 C166 1.252 . S
C159 O162 1.252 . S
C159 O163 1.260 . S
C160 O167 1.240 . S
C160 O168 1.252 . S
C161 O164 1.252 . S
C161 O165 1.260 . S
O162 In156 2.266 . S
O162 C159 1.252 . S
O163 In156 2.326 . S
O163 C159 1.260 . S
O164 In156 2.266 . S
O164 C161 1.252 . S
O165 In156 2.326 . S
O165 C161 1.260 . S
C166 O157 1.240 . S
C166 O158 1.252 . S
O167 In156 2.294 . S
O167 C160 1.240 . S
O168 In156 2.326 . S
O168 C160 1.252 . S
In169 O170 2.294 . S
In169 O171 2.326 . S
In169 O175 2.266 . S
In169 O176 2.326 . S
In169 O177 2.266 . S
In169 O178 2.326 . S
In169 O180 2.294 . S
In169 O181 2.326 . S
O170 In169 2.294 . S
O170 C179 1.240 . S
O171 In169 2.326 . S
O171 C179 1.252 . S
C172 O175 1.252 . S
C172 O176 1.260 . S
C173 O180 1.240 . S
C173 O181 1.252 . S
C174 O177 1.252 . S
C174 O178 1.260 . S
O175 In169 2.266 . S
O175 C172 1.252 . S
O176 In169 2.326 . S
O176 C172 1.260 . S
O177 In169 2.266 . S
O177 C174 1.252 . S
O178 In169 2.326 . S
O178 C174 1.260 . S
C179 O170 1.240 . S
C179 O171 1.252 . S
O180 In169 2.294 . S
O180 C173 1.240 . S
O181 In169 2.326 . S
O181 C173 1.252 . S
In182 O183 2.294 . S
In182 O184 2.326 . S
In182 O188 2.266 . S
In182 O189 2.326 . S
In182 O190 2.266 . S
In182 O191 2.326 . S
In182 O193 2.294 . S
In182 O194 2.326 . S
O183 In182 2.294 . S
O183 C192 1.240 . S
O184 In182 2.326 . S
O184 C192 1.252 . S
C185 O188 1.252 . S
C185 O189 1.260 . S
C186 O193 1.240 . S
C186 O194 1.252 . S
C187 O190 1.252 . S
C187 O191 1.260 . S
O188 In182 2.266 . S
O188 C185 1.252 . S
O189 In182 2.326 . S
O189 C185 1.260 . S
O190 In182 2.266 . S
O190 C187 1.252 . S
O191 In182 2.326 . S
O191 C187 1.260 . S
C192 O183 1.240 . S
C192 O184 1.252 . S
O193 In182 2.294 . S
O193 C186 1.240 . S
O194 In182 2.326 . S
O194 C186 1.252 . S
In195 O196 2.294 . S
In195 O197 2.326 . S
In195 O201 2.266 . S
In195 O202 2.326 . S
In195 O203 2.266 . S
In195 O204 2.326 . S
In195 O206 2.294 . S
In195 O207 2.326 . S
O196 In195 2.294 . S
O196 C205 1.240 . S
O197 In195 2.326 . S
O197 C205 1.252 . S
C198 O201 1.252 . S
C198 O202 1.260 . S
C199 O206 1.240 . S
C199 O207 1.252 . S
C200 O203 1.252 . S
C200 O204 1.260 . S
O201 In195 2.266 . S
O201 C198 1.252 . S
O202 In195 2.326 . S
O202 C198 1.260 . S
O203 In195 2.266 . S
O203 C200 1.252 . S
O204 In195 2.326 . S
O204 C200 1.260 . S
C205 O196 1.240 . S
C205 O197 1.252 . S
O206 In195 2.294 . S
O206 C199 1.240 . S
O207 In195 2.326 . S
O207 C199 1.252 . S
In208 O209 2.294 . S
In208 O210 2.326 . S
In208 O214 2.266 . S
In208 O215 2.326 . S
In208 O216 2.266 . S
In208 O217 2.326 . S
In208 O219 2.294 . S
In208 O220 2.326 . S
O209 In208 2.294 . S
O209 C218 1.240 . S
O210 In208 2.326 . S
O210 C218 1.252 . S
C211 O214 1.252 . S
C211 O215 1.260 . S
C212 O219 1.240 . S
C212 O220 1.252 . S
C213 O216 1.252 . S
C213 O217 1.260 . S
O214 In208 2.266 . S
O214 C211 1.252 . S
O215 In208 2.326 . S
O215 C211 1.260 . S
O216 In208 2.266 . S
O216 C213 1.252 . S
O217 In208 2.326 . S
O217 C213 1.260 . S
C218 O209 1.240 . S
C218 O210 1.252 . S
O219 In208 2.294 . S
O219 C212 1.240 . S
O220 In208 2.326 . S
O220 C212 1.252 . S
In221 O222 2.294 . S
In221 O223 2.326 . S
In221 O227 2.266 . S
In221 O228 2.326 . S
In221 O229 2.266 . S
In221 O230 2.326 . S
In221 O232 2.294 . S
In221 O233 2.326 . S
O222 In221 2.294 . S
O222 C231 1.240 . S
O223 In221 2.326 . S
O223 C231 1.252 . S
C224 O227 1.252 . S
C224 O228 1.260 . S
C225 O232 1.240 . S
C225 O233 1.252 . S
C226 O229 1.252 . S
C226 O230 1.260 . S
O227 In221 2.266 . S
O227 C224 1.252 . S
O228 In221 2.326 . S
O228 C224 1.260 . S
O229 In221 2.266 . S
O229 C226 1.252 . S
O230 In221 2.326 . S
O230 C226 1.260 . S
C231 O222 1.240 . S
C231 O223 1.252 . S
O232 In221 2.294 . S
O232 C225 1.240 . S
O233 In221 2.326 . S
O233 C225 1.252 . S
In234 O235 2.294 . S
In234 O236 2.326 . S
In234 O240 2.266 . S
In234 O241 2.326 . S
In234 O242 2.266 . S
In234 O243 2.326 . S
In234 O245 2.294 . S
In234 O246 2.326 . S
O235 In234 2.294 . S
O235 C244 1.240 . S
O236 In234 2.326 . S
O236 C244 1.252 . S
C237 O240 1.252 . S
C237 O241 1.260 . S
C238 O245 1.240 . S
C238 O246 1.252 . S
C239 O242 1.252 . S
C239 O243 1.260 . S
O240 In234 2.266 . S
O240 C237 1.252 . S
O241 In234 2.326 . S
O241 C237 1.260 . S
O242 In234 2.266 . S
O242 C239 1.252 . S
O243 In234 2.326 . S
O243 C239 1.260 . S
C244 O235 1.240 . S
C244 O236 1.252 . S
O245 In234 2.294 . S
O245 C238 1.240 . S
O246 In234 2.326 . S
O246 C238 1.252 . S
In247 O248 2.294 . S
In247 O249 2.326 . S
In247 O253 2.266 . S
In247 O254 2.326 . S
In247 O255 2.266 . S
In247 O256 2.326 . S
In247 O258 2.294 . S
In247 O259 2.326 . S
O248 In247 2.294 . S
O248 C257 1.240 . S
O249 In247 2.326 . S
O249 C257 1.252 . S
C250 O253 1.252 . S
C250 O254 1.260 . S
C251 O258 1.240 . S
C251 O259 1.252 . S
C252 O255 1.252 . S
C252 O256 1.260 . S
O253 In247 2.266 . S
O253 C250 1.252 . S
O254 In247 2.326 . S
O254 C250 1.260 . S
O255 In247 2.266 . S
O255 C252 1.252 . S
O256 In247 2.326 . S
O256 C252 1.260 . S
C257 O248 1.240 . S
C257 O249 1.252 . S
O258 In247 2.294 . S
O258 C251 1.240 . S
O259 In247 2.326 . S
O259 C251 1.252 . S
In260 O261 2.294 . S
In260 O262 2.326 . S
In260 O266 2.266 . S
In260 O267 2.326 . S
In260 O268 2.266 . S
In260 O269 2.326 . S
In260 O271 2.294 . S
In260 O272 2.326 . S
O261 In260 2.294 . S
O261 C270 1.240 . S
O262 In260 2.326 . S
O262 C270 1.252 . S
C263 O266 1.252 . S
C263 O267 1.260 . S
C264 O271 1.240 . S
C264 O272 1.252 . S
C265 O268 1.252 . S
C265 O269 1.260 . S
O266 In260 2.266 . S
O266 C263 1.252 . S
O267 In260 2.326 . S
O267 C263 1.260 . S
O268 In260 2.266 . S
O268 C265 1.252 . S
O269 In260 2.326 . S
O269 C265 1.260 . S
C270 O261 1.240 . S
C270 O262 1.252 . S
O271 In260 2.294 . S
O271 C264 1.240 . S
O272 In260 2.326 . S
O272 C264 1.252 . S
In273 O274 2.294 . S
In273 O275 2.326 . S
In273 O279 2.266 . S
In273 O280 2.326 . S
In273 O281 2.266 . S
In273 O282 2.326 . S
In273 O284 2.294 . S
In273 O285 2.326 . S
O274 In273 2.294 . S
O274 C283 1.240 . S
O275 In273 2.326 . S
O275 C283 1.252 . S
C276 O279 1.252 . S
C276 O280 1.260 . S
C277 O284 1.240 . S
C277 O285 1.252 . S
C278 O281 1.252 . S
C278 O282 1.260 . S
O279 In273 2.266 . S
O279 C276 1.252 . S
O280 In273 2.326 . S
O280 C276 1.260 . S
O281 In273 2.266 . S
O281 C278 1.252 . S
O282 In273 2.326 . S
O282 C278 1.260 . S
C283 O274 1.240 . S
C283 O275 1.252 . S
O284 In273 2.294 . S
O284 C277 1.240 . S
O285 In273 2.326 . S
O285 C277 1.252 . S
In286 O287 2.294 . S
In286 O288 2.326 . S
In286 O292 2.266 . S
In286 O293 2.326 . S
In286 O294 2.266 . S
In286 O295 2.326 . S
In286 O297 2.294 . S
In286 O298 2.326 . S
O287 In286 2.294 . S
O287 C296 1.240 . S
O288 In286 2.326 . S
O288 C296 1.252 . S
C289 O292 1.252 . S
C289 O293 1.260 . S
C290 O297 1.240 . S
C290 O298 1.252 . S
C291 O294 1.252 . S
C291 O295 1.260 . S
O292 In286 2.266 . S
O292 C289 1.252 . S
O293 In286 2.326 . S
O293 C289 1.260 . S
O294 In286 2.266 . S
O294 C291 1.252 . S
O295 In286 2.326 . S
O295 C291 1.260 . S
C296 O287 1.240 . S
C296 O288 1.252 . S
O297 In286 2.294 . S
O297 C290 1.240 . S
O298 In286 2.326 . S
O298 C290 1.252 . S
In299 O300 2.294 . S
In299 O301 2.326 . S
In299 O305 2.266 . S
In299 O306 2.326 . S
In299 O307 2.266 . S
In299 O308 2.326 . S
In299 O310 2.294 . S
In299 O311 2.326 . S
O300 In299 2.294 . S
O300 C309 1.240 . S
O301 In299 2.326 . S
O301 C309 1.252 . S
C302 O305 1.252 . S
C302 O306 1.260 . S
C303 O310 1.240 . S
C303 O311 1.252 . S
C304 O307 1.252 . S
C304 O308 1.260 . S
O305 In299 2.266 . S
O305 C302 1.252 . S
O306 In299 2.326 . S
O306 C302 1.260 . S
O307 In299 2.266 . S
O307 C304 1.252 . S
O308 In299 2.326 . S
O308 C304 1.260 . S
C309 O300 1.240 . S
C309 O301 1.252 . S
O310 In299 2.294 . S
O310 C303 1.240 . S
O311 In299 2.326 . S
O311 C303 1.252 . S
In312 O313 2.294 . S
In312 O314 2.326 . S
In312 O318 2.266 . S
In312 O319 2.326 . S
In312 O320 2.266 . S
In312 O321 2.326 . S
In312 O323 2.294 . S
In312 O324 2.326 . S
O313 In312 2.294 . S
O313 C322 1.240 . S
O314 In312 2.326 . S
O314 C322 1.252 . S
C315 O318 1.252 . S
C315 O319 1.260 . S
C316 O323 1.240 . S
C316 O324 1.252 . S
C317 O320 1.252 . S
C317 O321 1.260 . S
O318 In312 2.266 . S
O318 C315 1.252 . S
O319 In312 2.326 . S
O319 C315 1.260 . S
O320 In312 2.266 . S
O320 C317 1.252 . S
O321 In312 2.326 . S
O321 C317 1.260 . S
C322 O313 1.240 . S
C322 O314 1.252 . S
O323 In312 2.294 . S
O323 C316 1.240 . S
O324 In312 2.326 . S
O324 C316 1.252 . S
In325 O326 2.294 . S
In325 O327 2.326 . S
In325 O331 2.266 . S
In325 O332 2.326 . S
In325 O333 2.266 . S
In325 O334 2.326 . S
In325 O336 2.294 . S
In325 O337 2.326 . S
O326 In325 2.294 . S
O326 C335 1.240 . S
O327 In325 2.326 . S
O327 C335 1.252 . S
C328 O331 1.252 . S
C328 O332 1.260 . S
C329 O336 1.240 . S
C329 O337 1.252 . S
C330 O333 1.252 . S
C330 O334 1.260 . S
O331 In325 2.266 . S
O331 C328 1.252 . S
O332 In325 2.326 . S
O332 C328 1.260 . S
O333 In325 2.266 . S
O333 C330 1.252 . S
O334 In325 2.326 . S
O334 C330 1.260 . S
C335 O326 1.240 . S
C335 O327 1.252 . S
O336 In325 2.294 . S
O336 C329 1.240 . S
O337 In325 2.326 . S
O337 C329 1.252 . S
In338 O339 2.294 . S
In338 O340 2.326 . S
In338 O344 2.266 . S
In338 O345 2.326 . S
In338 O346 2.266 . S
In338 O347 2.326 . S
In338 O349 2.294 . S
In338 O350 2.326 . S
O339 In338 2.294 . S
O339 C348 1.240 . S
O340 In338 2.326 . S
O340 C348 1.252 . S
C341 O344 1.252 . S
C341 O345 1.260 . S
C342 O349 1.240 . S
C342 O350 1.252 . S
C343 O346 1.252 . S
C343 O347 1.260 . S
O344 In338 2.266 . S
O344 C341 1.252 . S
O345 In338 2.326 . S
O345 C341 1.260 . S
O346 In338 2.266 . S
O346 C343 1.252 . S
O347 In338 2.326 . S
O347 C343 1.260 . S
C348 O339 1.240 . S
C348 O340 1.252 . S
O349 In338 2.294 . S
O349 C342 1.240 . S
O350 In338 2.326 . S
O350 C342 1.252 . S
In351 O352 2.294 . S
In351 O353 2.326 . S
In351 O357 2.266 . S
In351 O358 2.326 . S
In351 O359 2.266 . S
In351 O360 2.326 . S
In351 O362 2.294 . S
In351 O363 2.326 . S
O352 In351 2.294 . S
O352 C361 1.240 . S
O353 In351 2.326 . S
O353 C361 1.252 . S
C354 O357 1.252 . S
C354 O358 1.260 . S
C355 O362 1.240 . S
C355 O363 1.252 . S
C356 O359 1.252 . S
C356 O360 1.260 . S
O357 In351 2.266 . S
O357 C354 1.252 . S
O358 In351 2.326 . S
O358 C354 1.260 . S
O359 In351 2.266 . S
O359 C356 1.252 . S
O360 In351 2.326 . S
O360 C356 1.260 . S
C361 O352 1.240 . S
C361 O353 1.252 . S
O362 In351 2.294 . S
O362 C355 1.240 . S
O363 In351 2.326 . S
O363 C355 1.252 . S
In364 O365 2.294 . S
In364 O366 2.326 . S
In364 O370 2.266 . S
In364 O371 2.326 . S
In364 O372 2.266 . S
In364 O373 2.326 . S
In364 O375 2.294 . S
In364 O376 2.326 . S
O365 In364 2.294 . S
O365 C374 1.240 . S
O366 In364 2.326 . S
O366 C374 1.252 . S
C367 O370 1.252 . S
C367 O371 1.260 . S
C368 O375 1.240 . S
C368 O376 1.252 . S
C369 O372 1.252 . S
C369 O373 1.260 . S
O370 In364 2.266 . S
O370 C367 1.252 . S
O371 In364 2.326 . S
O371 C367 1.260 . S
O372 In364 2.266 . S
O372 C369 1.252 . S
O373 In364 2.326 . S
O373 C369 1.260 . S
C374 O365 1.240 . S
C374 O366 1.252 . S
O375 In364 2.294 . S
O375 C368 1.240 . S
O376 In364 2.326 . S
O376 C368 1.252 . S
In377 O378 2.294 . S
In377 O379 2.326 . S
In377 O383 2.266 . S
In377 O384 2.326 . S
In377 O385 2.266 . S
In377 O386 2.326 . S
In377 O388 2.294 . S
In377 O389 2.326 . S
O378 In377 2.294 . S
O378 C387 1.240 . S
O379 In377 2.326 . S
O379 C387 1.252 . S
C380 O383 1.252 . S
C380 O384 1.260 . S
C381 O388 1.240 . S
C381 O389 1.252 . S
C382 O385 1.252 . S
C382 O386 1.260 . S
O383 In377 2.266 . S
O383 C380 1.252 . S
O384 In377 2.326 . S
O384 C380 1.260 . S
O385 In377 2.266 . S
O385 C382 1.252 . S
O386 In377 2.326 . S
O386 C382 1.260 . S
C387 O378 1.240 . S
C387 O379 1.252 . S
O388 In377 2.294 . S
O388 C381 1.240 . S
O389 In377 2.326 . S
O389 C381 1.252 . S
In390 O391 2.294 . S
In390 O392 2.326 . S
In390 O396 2.266 . S
In390 O397 2.326 . S
In390 O398 2.266 . S
In390 O399 2.326 . S
In390 O401 2.294 . S
In390 O402 2.326 . S
O391 In390 2.294 . S
O391 C400 1.240 . S
O392 In390 2.326 . S
O392 C400 1.252 . S
C393 O396 1.252 . S
C393 O397 1.260 . S
C394 O401 1.240 . S
C394 O402 1.252 . S
C395 O398 1.252 . S
C395 O399 1.260 . S
O396 In390 2.266 . S
O396 C393 1.252 . S
O397 In390 2.326 . S
O397 C393 1.260 . S
O398 In390 2.266 . S
O398 C395 1.252 . S
O399 In390 2.326 . S
O399 C395 1.260 . S
C400 O391 1.240 . S
C400 O392 1.252 . S
O401 In390 2.294 . S
O401 C394 1.240 . S
O402 In390 2.326 . S
O402 C394 1.252 . S
In403 O404 2.294 . S
In403 O405 2.326 . S
In403 O409 2.266 . S
In403 O410 2.326 . S
In403 O411 2.266 . S
In403 O412 2.326 . S
In403 O414 2.294 . S
In403 O415 2.326 . S
O404 In403 2.294 . S
O404 C413 1.240 . S
O405 In403 2.326 . S
O405 C413 1.252 . S
C406 O409 1.252 . S
C406 O410 1.260 . S
C407 O414 1.240 . S
C407 O415 1.252 . S
C408 O411 1.252 . S
C408 O412 1.260 . S
O409 In403 2.266 . S
O409 C406 1.252 . S
O410 In403 2.326 . S
O410 C406 1.260 . S
O411 In403 2.266 . S
O411 C408 1.252 . S
O412 In403 2.326 . S
O412 C408 1.260 . S
C413 O404 1.240 . S
C413 O405 1.252 . S
O414 In403 2.294 . S
O414 C407 1.240 . S
O415 In403 2.326 . S
O415 C407 1.252 . S
In416 O417 2.294 . S
In416 O418 2.326 . S
In416 O422 2.266 . S
In416 O423 2.326 . S
In416 O424 2.266 . S
In416 O425 2.326 . S
In416 O427 2.294 . S
In416 O428 2.326 . S
O417 In416 2.294 . S
O417 C426 1.240 . S
O418 In416 2.326 . S
O418 C426 1.252 . S
C419 O422 1.252 . S
C419 O423 1.260 . S
C420 O427 1.240 . S
C420 O428 1.252 . S
C421 O424 1.252 . S
C421 O425 1.260 . S
O422 In416 2.266 . S
O422 C419 1.252 . S
O423 In416 2.326 . S
O423 C419 1.260 . S
O424 In416 2.266 . S
O424 C421 1.252 . S
O425 In416 2.326 . S
O425 C421 1.260 . S
C426 O417 1.240 . S
C426 O418 1.252 . S
O427 In416 2.294 . S
O427 C420 1.240 . S
O428 In416 2.326 . S
O428 C420 1.252 . S
In429 O430 2.294 . S
In429 O431 2.326 . S
In429 O435 2.266 . S
In429 O436 2.326 . S
In429 O437 2.266 . S
In429 O438 2.326 . S
In429 O440 2.294 . S
In429 O441 2.326 . S
O430 In429 2.294 . S
O430 C439 1.240 . S
O431 In429 2.326 . S
O431 C439 1.252 . S
C432 O435 1.252 . S
C432 O436 1.260 . S
C433 O440 1.240 . S
C433 O441 1.252 . S
C434 O437 1.252 . S
C434 O438 1.260 . S
O435 In429 2.266 . S
O435 C432 1.252 . S
O436 In429 2.326 . S
O436 C432 1.260 . S
O437 In429 2.266 . S
O437 C434 1.252 . S
O438 In429 2.326 . S
O438 C434 1.260 . S
C439 O430 1.240 . S
C439 O431 1.252 . S
O440 In429 2.294 . S
O440 C433 1.240 . S
O441 In429 2.326 . S
O441 C433 1.252 . S
In442 O443 2.294 . S
In442 O444 2.326 . S
In442 O448 2.266 . S
In442 O449 2.326 . S
In442 O450 2.266 . S
In442 O451 2.326 . S
In442 O453 2.294 . S
In442 O454 2.326 . S
O443 In442 2.294 . S
O443 C452 1.240 . S
O444 In442 2.326 . S
O444 C452 1.252 . S
C445 O448 1.252 . S
C445 O449 1.260 . S
C446 O453 1.240 . S
C446 O454 1.252 . S
C447 O450 1.252 . S
C447 O451 1.260 . S
O448 In442 2.266 . S
O448 C445 1.252 . S
O449 In442 2.326 . S
O449 C445 1.260 . S
O450 In442 2.266 . S
O450 C447 1.252 . S
O451 In442 2.326 . S
O451 C447 1.260 . S
C452 O443 1.240 . S
C452 O444 1.252 . S
O453 In442 2.294 . S
O453 C446 1.240 . S
O454 In442 2.326 . S
O454 C446 1.252 . S
In455 O456 2.294 . S
In455 O457 2.326 . S
In455 O461 2.266 . S
In455 O462 2.326 . S
In455 O463 2.266 . S
In455 O464 2.326 . S
In455 O466 2.294 . S
In455 O467 2.326 . S
O456 In455 2.294 . S
O456 C465 1.240 . S
O457 In455 2.326 . S
O457 C465 1.252 . S
C458 O461 1.252 . S
C458 O462 1.260 . S
C459 O466 1.240 . S
C459 O467 1.252 . S
C460 O463 1.252 . S
C460 O464 1.260 . S
O461 In455 2.266 . S
O461 C458 1.252 . S
O462 In455 2.326 . S
O462 C458 1.260 . S
O463 In455 2.266 . S
O463 C460 1.252 . S
O464 In455 2.326 . S
O464 C460 1.260 . S
C465 O456 1.240 . S
C465 O457 1.252 . S
O466 In455 2.294 . S
O466 C459 1.240 . S
O467 In455 2.326 . S
O467 C459 1.252 . S
In468 O469 2.294 . S
In468 O470 2.326 . S
In468 O474 2.266 . S
In468 O475 2.326 . S
In468 O476 2.266 . S
In468 O477 2.326 . S
In468 O479 2.294 . S
In468 O480 2.326 . S
O469 In468 2.294 . S
O469 C478 1.240 . S
O470 In468 2.326 . S
O470 C478 1.252 . S
C471 O474 1.252 . S
C471 O475 1.260 . S
C472 O479 1.240 . S
C472 O480 1.252 . S
C473 O476 1.252 . S
C473 O477 1.260 . S
O474 In468 2.266 . S
O474 C471 1.252 . S
O475 In468 2.326 . S
O475 C471 1.260 . S
O476 In468 2.266 . S
O476 C473 1.252 . S
O477 In468 2.326 . S
O477 C473 1.260 . S
C478 O469 1.240 . S
C478 O470 1.252 . S
O479 In468 2.294 . S
O479 C472 1.240 . S
O480 In468 2.326 . S
O480 C472 1.252 . S
In481 O482 2.294 . S
In481 O483 2.326 . S
In481 O487 2.266 . S
In481 O488 2.326 . S
In481 O489 2.266 . S
In481 O490 2.326 . S
In481 O492 2.294 . S
In481 O493 2.326 . S
O482 In481 2.294 . S
O482 C491 1.240 . S
O483 In481 2.326 . S
O483 C491 1.252 . S
C484 O487 1.252 . S
C484 O488 1.260 . S
C485 O492 1.240 . S
C485 O493 1.252 . S
C486 O489 1.252 . S
C486 O490 1.260 . S
O487 In481 2.266 . S
O487 C484 1.252 . S
O488 In481 2.326 . S
O488 C484 1.260 . S
O489 In481 2.266 . S
O489 C486 1.252 . S
O490 In481 2.326 . S
O490 C486 1.260 . S
C491 O482 1.240 . S
C491 O483 1.252 . S
O492 In481 2.294 . S
O492 C485 1.240 . S
O493 In481 2.326 . S
O493 C485 1.252 . S
In494 O495 2.294 . S
In494 O496 2.326 . S
In494 O500 2.266 . S
In494 O501 2.326 . S
In494 O502 2.266 . S
In494 O503 2.326 . S
In494 O505 2.294 . S
In494 O506 2.326 . S
O495 In494 2.294 . S
O495 C504 1.240 . S
O496 In494 2.326 . S
O496 C504 1.252 . S
C497 O500 1.252 . S
C497 O501 1.260 . S
C498 O505 1.240 . S
C498 O506 1.252 . S
C499 O502 1.252 . S
C499 O503 1.260 . S
O500 In494 2.266 . S
O500 C497 1.252 . S
O501 In494 2.326 . S
O501 C497 1.260 . S
O502 In494 2.266 . S
O502 C499 1.252 . S
O503 In494 2.326 . S
O503 C499 1.260 . S
C504 O495 1.240 . S
C504 O496 1.252 . S
O505 In494 2.294 . S
O505 C498 1.240 . S
O506 In494 2.326 . S
O506 C498 1.252 . S
In507 O508 2.294 . S
In507 O509 2.326 . S
In507 O513 2.266 . S
In507 O514 2.326 . S
In507 O515 2.266 . S
In507 O516 2.326 . S
In507 O518 2.294 . S
In507 O519 2.326 . S
O508 In507 2.294 . S
O508 C517 1.240 . S
O509 In507 2.326 . S
O509 C517 1.252 . S
C510 O513 1.252 . S
C510 O514 1.260 . S
C511 O518 1.240 . S
C511 O519 1.252 . S
C512 O515 1.252 . S
C512 O516 1.260 . S
O513 In507 2.266 . S
O513 C510 1.252 . S
O514 In507 2.326 . S
O514 C510 1.260 . S
O515 In507 2.266 . S
O515 C512 1.252 . S
O516 In507 2.326 . S
O516 C512 1.260 . S
C517 O508 1.240 . S
C517 O509 1.252 . S
O518 In507 2.294 . S
O518 C511 1.240 . S
O519 In507 2.326 . S
O519 C511 1.252 . S
In520 O521 2.294 . S
In520 O522 2.326 . S
In520 O526 2.266 . S
In520 O527 2.326 . S
In520 O528 2.266 . S
In520 O529 2.326 . S
In520 O531 2.294 . S
In520 O532 2.326 . S
O521 In520 2.294 . S
O521 C530 1.240 . S
O522 In520 2.326 . S
O522 C530 1.252 . S
C523 O526 1.252 . S
C523 O527 1.260 . S
C524 O531 1.240 . S
C524 O532 1.252 . S
C525 O528 1.252 . S
C525 O529 1.260 . S
O526 In520 2.266 . S
O526 C523 1.252 . S
O527 In520 2.326 . S
O527 C523 1.260 . S
O528 In520 2.266 . S
O528 C525 1.252 . S
O529 In520 2.326 . S
O529 C525 1.260 . S
C530 O521 1.240 . S
C530 O522 1.252 . S
O531 In520 2.294 . S
O531 C524 1.240 . S
O532 In520 2.326 . S
O532 C524 1.252 . S
In533 O534 2.294 . S
In533 O535 2.326 . S
In533 O539 2.266 . S
In533 O540 2.326 . S
In533 O541 2.266 . S
In533 O542 2.326 . S
In533 O544 2.294 . S
In533 O545 2.326 . S
O534 In533 2.294 . S
O534 C543 1.240 . S
O535 In533 2.326 . S
O535 C543 1.252 . S
C536 O539 1.252 . S
C536 O540 1.260 . S
C537 O544 1.240 . S
C537 O545 1.252 . S
C538 O541 1.252 . S
C538 O542 1.260 . S
O539 In533 2.266 . S
O539 C536 1.252 . S
O540 In533 2.326 . S
O540 C536 1.260 . S
O541 In533 2.266 . S
O541 C538 1.252 . S
O542 In533 2.326 . S
O542 C538 1.260 . S
C543 O534 1.240 . S
C543 O535 1.252 . S
O544 In533 2.294 . S
O544 C537 1.240 . S
O545 In533 2.326 . S
O545 C537 1.252 . S
In546 O547 2.294 . S
In546 O548 2.326 . S
In546 O552 2.266 . S
In546 O553 2.326 . S
In546 O554 2.266 . S
In546 O555 2.326 . S
In546 O557 2.294 . S
In546 O558 2.326 . S
O547 In546 2.294 . S
O547 C556 1.240 . S
O548 In546 2.326 . S
O548 C556 1.252 . S
C549 O552 1.252 . S
C549 O553 1.260 . S
C550 O557 1.240 . S
C550 O558 1.252 . S
C551 O554 1.252 . S
C551 O555 1.260 . S
O552 In546 2.266 . S
O552 C549 1.252 . S
O553 In546 2.326 . S
O553 C549 1.260 . S
O554 In546 2.266 . S
O554 C551 1.252 . S
O555 In546 2.326 . S
O555 C551 1.260 . S
C556 O547 1.240 . S
C556 O548 1.252 . S
O557 In546 2.294 . S
O557 C550 1.240 . S
O558 In546 2.326 . S
O558 C550 1.252 . S
In559 O560 2.294 . S
In559 O561 2.326 . S
In559 O565 2.266 . S
In559 O566 2.326 . S
In559 O567 2.266 . S
In559 O568 2.326 . S
In559 O570 2.294 . S
In559 O571 2.326 . S
O560 In559 2.294 . S
O560 C569 1.240 . S
O561 In559 2.326 . S
O561 C569 1.252 . S
C562 O565 1.252 . S
C562 O566 1.260 . S
C563 O570 1.240 . S
C563 O571 1.252 . S
C564 O567 1.252 . S
C564 O568 1.260 . S
O565 In559 2.266 . S
O565 C562 1.252 . S
O566 In559 2.326 . S
O566 C562 1.260 . S
O567 In559 2.266 . S
O567 C564 1.252 . S
O568 In559 2.326 . S
O568 C564 1.260 . S
C569 O560 1.240 . S
C569 O561 1.252 . S
O570 In559 2.294 . S
O570 C563 1.240 . S
O571 In559 2.326 . S
O571 C563 1.252 . S
In572 O573 2.294 . S
In572 O574 2.326 . S
In572 O578 2.266 . S
In572 O579 2.326 . S
In572 O580 2.266 . S
In572 O581 2.326 . S
In572 O583 2.294 . S
In572 O584 2.326 . S
O573 In572 2.294 . S
O573 C582 1.240 . S
O574 In572 2.326 . S
O574 C582 1.252 . S
C575 O578 1.252 . S
C575 O579 1.260 . S
C576 O583 1.240 . S
C576 O584 1.252 . S
C577 O580 1.252 . S
C577 O581 1.260 . S
O578 In572 2.266 . S
O578 C575 1.252 . S
O579 In572 2.326 . S
O579 C575 1.260 . S
O580 In572 2.266 . S
O580 C577 1.252 . S
O581 In572 2.326 . S
O581 C577 1.260 . S
C582 O573 1.240 . S
C582 O574 1.252 . S
O583 In572 2.294 . S
O583 C576 1.240 . S
O584 In572 2.326 . S
O584 C576 1.252 . S
In585 O586 2.294 . S
In585 O587 2.326 . S
In585 O591 2.266 . S
In585 O592 2.326 . S
In585 O593 2.266 . S
In585 O594 2.326 . S
In585 O596 2.294 . S
In585 O597 2.326 . S
O586 In585 2.294 . S
O586 C595 1.240 . S
O587 In585 2.326 . S
O587 C595 1.252 . S
C588 O591 1.252 . S
C588 O592 1.260 . S
C589 O596 1.240 . S
C589 O597 1.252 . S
C590 O593 1.252 . S
C590 O594 1.260 . S
O591 In585 2.266 . S
O591 C588 1.252 . S
O592 In585 2.326 . S
O592 C588 1.260 . S
O593 In585 2.266 . S
O593 C590 1.252 . S
O594 In585 2.326 . S
O594 C590 1.260 . S
C595 O586 1.240 . S
C595 O587 1.252 . S
O596 In585 2.294 . S
O596 C589 1.240 . S
O597 In585 2.326 . S
O597 C589 1.252 . S
In598 O599 2.294 . S
In598 O600 2.326 . S
In598 O604 2.266 . S
In598 O605 2.326 . S
In598 O606 2.266 . S
In598 O607 2.326 . S
In598 O609 2.294 . S
In598 O610 2.326 . S
O599 In598 2.294 . S
O599 C608 1.240 . S
O600 In598 2.326 . S
O600 C608 1.252 . S
C601 O604 1.252 . S
C601 O605 1.260 . S
C602 O609 1.240 . S
C602 O610 1.252 . S
C603 O606 1.252 . S
C603 O607 1.260 . S
O604 In598 2.266 . S
O604 C601 1.252 . S
O605 In598 2.326 . S
O605 C601 1.260 . S
O606 In598 2.266 . S
O606 C603 1.252 . S
O607 In598 2.326 . S
O607 C603 1.260 . S
C608 O599 1.240 . S
C608 O600 1.252 . S
O609 In598 2.294 . S
O609 C602 1.240 . S
O610 In598 2.326 . S
O610 C602 1.252 . S
In611 O612 2.294 . S
In611 O613 2.326 . S
In611 O617 2.266 . S
In611 O618 2.326 . S
In611 O619 2.266 . S
In611 O620 2.326 . S
In611 O622 2.294 . S
In611 O623 2.326 . S
O612 In611 2.294 . S
O612 C621 1.240 . S
O613 In611 2.326 . S
O613 C621 1.252 . S
C614 O617 1.252 . S
C614 O618 1.260 . S
C615 O622 1.240 . S
C615 O623 1.252 . S
C616 O619 1.252 . S
C616 O620 1.260 . S
O617 In611 2.266 . S
O617 C614 1.252 . S
O618 In611 2.326 . S
O618 C614 1.260 . S
O619 In611 2.266 . S
O619 C616 1.252 . S
O620 In611 2.326 . S
O620 C616 1.260 . S
C621 O612 1.240 . S
C621 O613 1.252 . S
O622 In611 2.294 . S
O622 C615 1.240 . S
O623 In611 2.326 . S
O623 C615 1.252 . S
In624 O625 2.294 . S
In624 O626 2.326 . S
In624 O630 2.266 . S
In624 O631 2.326 . S
In624 O632 2.266 . S
In624 O633 2.326 . S
In624 O635 2.294 . S
In624 O636 2.326 . S
O625 In624 2.294 . S
O625 C634 1.240 . S
O626 In624 2.326 . S
O626 C634 1.252 . S
C627 O630 1.252 . S
C627 O631 1.260 . S
C628 O635 1.240 . S
C628 O636 1.252 . S
C629 O632 1.252 . S
C629 O633 1.260 . S
O630 In624 2.266 . S
O630 C627 1.252 . S
O631 In624 2.326 . S
O631 C627 1.260 . S
O632 In624 2.266 . S
O632 C629 1.252 . S
O633 In624 2.326 . S
O633 C629 1.260 . S
C634 O625 1.240 . S
C634 O626 1.252 . S
O635 In624 2.294 . S
O635 C628 1.240 . S
O636 In624 2.326 . S
O636 C628 1.252 . S
In637 O638 2.294 . S
In637 O639 2.326 . S
In637 O643 2.266 . S
In637 O644 2.326 . S
In637 O645 2.266 . S
In637 O646 2.326 . S
In637 O648 2.294 . S
In637 O649 2.326 . S
O638 In637 2.294 . S
O638 C647 1.240 . S
O639 In637 2.326 . S
O639 C647 1.252 . S
C640 O643 1.252 . S
C640 O644 1.260 . S
C641 O648 1.240 . S
C641 O649 1.252 . S
C642 O645 1.252 . S
C642 O646 1.260 . S
O643 In637 2.266 . S
O643 C640 1.252 . S
O644 In637 2.326 . S
O644 C640 1.260 . S
O645 In637 2.266 . S
O645 C642 1.252 . S
O646 In637 2.326 . S
O646 C642 1.260 . S
C647 O638 1.240 . S
C647 O639 1.252 . S
O648 In637 2.294 . S
O648 C641 1.240 . S
O649 In637 2.326 . S
O649 C641 1.252 . S
In650 O651 2.294 . S
In650 O652 2.326 . S
In650 O656 2.266 . S
In650 O657 2.326 . S
In650 O658 2.266 . S
In650 O659 2.326 . S
In650 O661 2.294 . S
In650 O662 2.326 . S
O651 In650 2.294 . S
O651 C660 1.240 . S
O652 In650 2.326 . S
O652 C660 1.252 . S
C653 O656 1.252 . S
C653 O657 1.260 . S
C654 O661 1.240 . S
C654 O662 1.252 . S
C655 O658 1.252 . S
C655 O659 1.260 . S
O656 In650 2.266 . S
O656 C653 1.252 . S
O657 In650 2.326 . S
O657 C653 1.260 . S
O658 In650 2.266 . S
O658 C655 1.252 . S
O659 In650 2.326 . S
O659 C655 1.260 . S
C660 O651 1.240 . S
C660 O652 1.252 . S
O661 In650 2.294 . S
O661 C654 1.240 . S
O662 In650 2.326 . S
O662 C654 1.252 . S
In663 O664 2.294 . S
In663 O665 2.326 . S
In663 O669 2.266 . S
In663 O670 2.326 . S
In663 O671 2.266 . S
In663 O672 2.326 . S
In663 O674 2.294 . S
In663 O675 2.326 . S
O664 In663 2.294 . S
O664 C673 1.240 . S
O665 In663 2.326 . S
O665 C673 1.252 . S
C666 O669 1.252 . S
C666 O670 1.260 . S
C667 O674 1.240 . S
C667 O675 1.252 . S
C668 O671 1.252 . S
C668 O672 1.260 . S
O669 In663 2.266 . S
O669 C666 1.252 . S
O670 In663 2.326 . S
O670 C666 1.260 . S
O671 In663 2.266 . S
O671 C668 1.252 . S
O672 In663 2.326 . S
O672 C668 1.260 . S
C673 O664 1.240 . S
C673 O665 1.252 . S
O674 In663 2.294 . S
O674 C667 1.240 . S
O675 In663 2.326 . S
O675 C667 1.252 . S
In676 O677 2.294 . S
In676 O678 2.326 . S
In676 O682 2.266 . S
In676 O683 2.326 . S
In676 O684 2.266 . S
In676 O685 2.326 . S
In676 O687 2.294 . S
In676 O688 2.326 . S
O677 In676 2.294 . S
O677 C686 1.240 . S
O678 In676 2.326 . S
O678 C686 1.252 . S
C679 O682 1.252 . S
C679 O683 1.260 . S
C680 O687 1.240 . S
C680 O688 1.252 . S
C681 O684 1.252 . S
C681 O685 1.260 . S
O682 In676 2.266 . S
O682 C679 1.252 . S
O683 In676 2.326 . S
O683 C679 1.260 . S
O684 In676 2.266 . S
O684 C681 1.252 . S
O685 In676 2.326 . S
O685 C681 1.260 . S
C686 O677 1.240 . S
C686 O678 1.252 . S
O687 In676 2.294 . S
O687 C680 1.240 . S
O688 In676 2.326 . S
O688 C680 1.252 . S
In689 O690 2.294 . S
In689 O691 2.326 . S
In689 O695 2.266 . S
In689 O696 2.326 . S
In689 O697 2.266 . S
In689 O698 2.326 . S
In689 O700 2.294 . S
In689 O701 2.326 . S
O690 In689 2.294 . S
O690 C699 1.240 . S
O691 In689 2.326 . S
O691 C699 1.252 . S
C692 O695 1.252 . S
C692 O696 1.260 . S
C693 O700 1.240 . S
C693 O701 1.252 . S
C694 O697 1.252 . S
C694 O698 1.260 . S
O695 In689 2.266 . S
O695 C692 1.252 . S
O696 In689 2.326 . S
O696 C692 1.260 . S
O697 In689 2.266 . S
O697 C694 1.252 . S
O698 In689 2.326 . S
O698 C694 1.260 . S
C699 O690 1.240 . S
C699 O691 1.252 . S
O700 In689 2.294 . S
O700 C693 1.240 . S
O701 In689 2.326 . S
O701 C693 1.252 . S
In702 O703 2.294 . S
In702 O704 2.326 . S
In702 O708 2.266 . S
In702 O709 2.326 . S
In702 O710 2.266 . S
In702 O711 2.326 . S
In702 O713 2.294 . S
In702 O714 2.326 . S
O703 In702 2.294 . S
O703 C712 1.240 . S
O704 In702 2.326 . S
O704 C712 1.252 . S
C705 O708 1.252 . S
C705 O709 1.260 . S
C706 O713 1.240 . S
C706 O714 1.252 . S
C707 O710 1.252 . S
C707 O711 1.260 . S
O708 In702 2.266 . S
O708 C705 1.252 . S
O709 In702 2.326 . S
O709 C705 1.260 . S
O710 In702 2.266 . S
O710 C707 1.252 . S
O711 In702 2.326 . S
O711 C707 1.260 . S
C712 O703 1.240 . S
C712 O704 1.252 . S
O713 In702 2.294 . S
O713 C706 1.240 . S
O714 In702 2.326 . S
O714 C706 1.252 . S
In715 O716 2.294 . S
In715 O717 2.326 . S
In715 O721 2.266 . S
In715 O722 2.326 . S
In715 O723 2.266 . S
In715 O724 2.326 . S
In715 O726 2.294 . S
In715 O727 2.326 . S
O716 In715 2.294 . S
O716 C725 1.240 . S
O717 In715 2.326 . S
O717 C725 1.252 . S
C718 O721 1.252 . S
C718 O722 1.260 . S
C719 O726 1.240 . S
C719 O727 1.252 . S
C720 O723 1.252 . S
C720 O724 1.260 . S
O721 In715 2.266 . S
O721 C718 1.252 . S
O722 In715 2.326 . S
O722 C718 1.260 . S
O723 In715 2.266 . S
O723 C720 1.252 . S
O724 In715 2.326 . S
O724 C720 1.260 . S
C725 O716 1.240 . S
C725 O717 1.252 . S
O726 In715 2.294 . S
O726 C719 1.240 . S
O727 In715 2.326 . S
O727 C719 1.252 . S
In728 O729 2.294 . S
In728 O730 2.326 . S
In728 O734 2.266 . S
In728 O735 2.326 . S
In728 O736 2.266 . S
In728 O737 2.326 . S
In728 O739 2.294 . S
In728 O740 2.326 . S
O729 In728 2.294 . S
O729 C738 1.240 . S
O730 In728 2.326 . S
O730 C738 1.252 . S
C731 O734 1.252 . S
C731 O735 1.260 . S
C732 O739 1.240 . S
C732 O740 1.252 . S
C733 O736 1.252 . S
C733 O737 1.260 . S
O734 In728 2.266 . S
O734 C731 1.252 . S
O735 In728 2.326 . S
O735 C731 1.260 . S
O736 In728 2.266 . S
O736 C733 1.252 . S
O737 In728 2.326 . S
O737 C733 1.260 . S
C738 O729 1.240 . S
C738 O730 1.252 . S
O739 In728 2.294 . S
O739 C732 1.240 . S
O740 In728 2.326 . S
O740 C732 1.252 . S
In741 O742 2.294 . S
In741 O743 2.326 . S
In741 O747 2.266 . S
In741 O748 2.326 . S
In741 O749 2.266 . S
In741 O750 2.326 . S
In741 O752 2.294 . S
In741 O753 2.326 . S
O742 In741 2.294 . S
O742 C751 1.240 . S
O743 In741 2.326 . S
O743 C751 1.252 . S
C744 O747 1.252 . S
C744 O748 1.260 . S
C745 O752 1.240 . S
C745 O753 1.252 . S
C746 O749 1.252 . S
C746 O750 1.260 . S
O747 In741 2.266 . S
O747 C744 1.252 . S
O748 In741 2.326 . S
O748 C744 1.260 . S
O749 In741 2.266 . S
O749 C746 1.252 . S
O750 In741 2.326 . S
O750 C746 1.260 . S
C751 O742 1.240 . S
C751 O743 1.252 . S
O752 In741 2.294 . S
O752 C745 1.240 . S
O753 In741 2.326 . S
O753 C745 1.252 . S
In754 O755 2.294 . S
In754 O756 2.326 . S
In754 O760 2.266 . S
In754 O761 2.326 . S
In754 O762 2.266 . S
In754 O763 2.326 . S
In754 O765 2.294 . S
In754 O766 2.326 . S
O755 In754 2.294 . S
O755 C764 1.240 . S
O756 In754 2.326 . S
O756 C764 1.252 . S
C757 O760 1.252 . S
C757 O761 1.260 . S
C758 O765 1.240 . S
C758 O766 1.252 . S
C759 O762 1.252 . S
C759 O763 1.260 . S
O760 In754 2.266 . S
O760 C757 1.252 . S
O761 In754 2.326 . S
O761 C757 1.260 . S
O762 In754 2.266 . S
O762 C759 1.252 . S
O763 In754 2.326 . S
O763 C759 1.260 . S
C764 O755 1.240 . S
C764 O756 1.252 . S
O765 In754 2.294 . S
O765 C758 1.240 . S
O766 In754 2.326 . S
O766 C758 1.252 . S
In767 O768 2.294 . S
In767 O769 2.326 . S
In767 O773 2.266 . S
In767 O774 2.326 . S
In767 O775 2.266 . S
In767 O776 2.326 . S
In767 O778 2.294 . S
In767 O779 2.326 . S
O768 In767 2.294 . S
O768 C777 1.240 . S
O769 In767 2.326 . S
O769 C777 1.252 . S
C770 O773 1.252 . S
C770 O774 1.260 . S
C771 O778 1.240 . S
C771 O779 1.252 . S
C772 O775 1.252 . S
C772 O776 1.260 . S
O773 In767 2.266 . S
O773 C770 1.252 . S
O774 In767 2.326 . S
O774 C770 1.260 . S
O775 In767 2.266 . S
O775 C772 1.252 . S
O776 In767 2.326 . S
O776 C772 1.260 . S
C777 O768 1.240 . S
C777 O769 1.252 . S
O778 In767 2.294 . S
O778 C771 1.240 . S
O779 In767 2.326 . S
O779 C771 1.252 . S
In780 O781 2.294 . S
In780 O782 2.326 . S
In780 O786 2.266 . S
In780 O787 2.326 . S
In780 O788 2.266 . S
In780 O789 2.326 . S
In780 O791 2.294 . S
In780 O792 2.326 . S
O781 In780 2.294 . S
O781 C790 1.240 . S
O782 In780 2.326 . S
O782 C790 1.252 . S
C783 O786 1.252 . S
C783 O787 1.260 . S
C784 O791 1.240 . S
C784 O792 1.252 . S
C785 O788 1.252 . S
C785 O789 1.260 . S
O786 In780 2.266 . S
O786 C783 1.252 . S
O787 In780 2.326 . S
O787 C783 1.260 . S
O788 In780 2.266 . S
O788 C785 1.252 . S
O789 In780 2.326 . S
O789 C785 1.260 . S
C790 O781 1.240 . S
C790 O782 1.252 . S
O791 In780 2.294 . S
O791 C784 1.240 . S
O792 In780 2.326 . S
O792 C784 1.252 . S
In793 O794 2.294 . S
In793 O795 2.326 . S
In793 O799 2.266 . S
In793 O800 2.326 . S
In793 O801 2.266 . S
In793 O802 2.326 . S
In793 O804 2.294 . S
In793 O805 2.326 . S
O794 In793 2.294 . S
O794 C803 1.240 . S
O795 In793 2.326 . S
O795 C803 1.252 . S
C796 O799 1.252 . S
C796 O800 1.260 . S
C797 O804 1.240 . S
C797 O805 1.252 . S
C798 O801 1.252 . S
C798 O802 1.260 . S
O799 In793 2.266 . S
O799 C796 1.252 . S
O800 In793 2.326 . S
O800 C796 1.260 . S
O801 In793 2.266 . S
O801 C798 1.252 . S
O802 In793 2.326 . S
O802 C798 1.260 . S
C803 O794 1.240 . S
C803 O795 1.252 . S
O804 In793 2.294 . S
O804 C797 1.240 . S
O805 In793 2.326 . S
O805 C797 1.252 . S
In806 O807 2.294 . S
In806 O808 2.326 . S
In806 O812 2.266 . S
In806 O813 2.326 . S
In806 O814 2.266 . S
In806 O815 2.326 . S
In806 O817 2.294 . S
In806 O818 2.326 . S
O807 In806 2.294 . S
O807 C816 1.240 . S
O808 In806 2.326 . S
O808 C816 1.252 . S
C809 O812 1.252 . S
C809 O813 1.260 . S
C810 O817 1.240 . S
C810 O818 1.252 . S
C811 O814 1.252 . S
C811 O815 1.260 . S
O812 In806 2.266 . S
O812 C809 1.252 . S
O813 In806 2.326 . S
O813 C809 1.260 . S
O814 In806 2.266 . S
O814 C811 1.252 . S
O815 In806 2.326 . S
O815 C811 1.260 . S
C816 O807 1.240 . S
C816 O808 1.252 . S
O817 In806 2.294 . S
O817 C810 1.240 . S
O818 In806 2.326 . S
O818 C810 1.252 . S
In819 O820 2.294 . S
In819 O821 2.326 . S
In819 O825 2.266 . S
In819 O826 2.326 . S
In819 O827 2.266 . S
In819 O828 2.326 . S
In819 O830 2.294 . S
In819 O831 2.326 . S
O820 In819 2.294 . S
O820 C829 1.240 . S
O821 In819 2.326 . S
O821 C829 1.252 . S
C822 O825 1.252 . S
C822 O826 1.260 . S
C823 O830 1.240 . S
C823 O831 1.252 . S
C824 O827 1.252 . S
C824 O828 1.260 . S
O825 In819 2.266 . S
O825 C822 1.252 . S
O826 In819 2.326 . S
O826 C822 1.260 . S
O827 In819 2.266 . S
O827 C824 1.252 . S
O828 In819 2.326 . S
O828 C824 1.260 . S
C829 O820 1.240 . S
C829 O821 1.252 . S
O830 In819 2.294 . S
O830 C823 1.240 . S
O831 In819 2.326 . S
O831 C823 1.252 . S
In832 O833 2.294 . S
In832 O834 2.326 . S
In832 O838 2.266 . S
In832 O839 2.326 . S
In832 O840 2.266 . S
In832 O841 2.326 . S
In832 O843 2.294 . S
In832 O844 2.326 . S
O833 In832 2.294 . S
O833 C842 1.240 . S
O834 In832 2.326 . S
O834 C842 1.252 . S
C835 O838 1.252 . S
C835 O839 1.260 . S
C836 O843 1.240 . S
C836 O844 1.252 . S
C837 O840 1.252 . S
C837 O841 1.260 . S
O838 In832 2.266 . S
O838 C835 1.252 . S
O839 In832 2.326 . S
O839 C835 1.260 . S
O840 In832 2.266 . S
O840 C837 1.252 . S
O841 In832 2.326 . S
O841 C837 1.260 . S
C842 O833 1.240 . S
C842 O834 1.252 . S
O843 In832 2.294 . S
O843 C836 1.240 . S
O844 In832 2.326 . S
O844 C836 1.252 . S
In845 O846 2.294 . S
In845 O847 2.326 . S
In845 O851 2.266 . S
In845 O852 2.326 . S
In845 O853 2.266 . S
In845 O854 2.326 . S
In845 O856 2.294 . S
In845 O857 2.326 . S
O846 In845 2.294 . S
O846 C855 1.240 . S
O847 In845 2.326 . S
O847 C855 1.252 . S
C848 O851 1.252 . S
C848 O852 1.260 . S
C849 O856 1.240 . S
C849 O857 1.252 . S
C850 O853 1.252 . S
C850 O854 1.260 . S
O851 In845 2.266 . S
O851 C848 1.252 . S
O852 In845 2.326 . S
O852 C848 1.260 . S
O853 In845 2.266 . S
O853 C850 1.252 . S
O854 In845 2.326 . S
O854 C850 1.260 . S
C855 O846 1.240 . S
C855 O847 1.252 . S
O856 In845 2.294 . S
O856 C849 1.240 . S
O857 In845 2.326 . S
O857 C849 1.252 . S
In858 O859 2.294 . S
In858 O860 2.326 . S
In858 O864 2.266 . S
In858 O865 2.326 . S
In858 O866 2.266 . S
In858 O867 2.326 . S
In858 O869 2.294 . S
In858 O870 2.326 . S
O859 In858 2.294 . S
O859 C868 1.240 . S
O860 In858 2.326 . S
O860 C868 1.252 . S
C861 O864 1.252 . S
C861 O865 1.260 . S
C862 O869 1.240 . S
C862 O870 1.252 . S
C863 O866 1.252 . S
C863 O867 1.260 . S
O864 In858 2.266 . S
O864 C861 1.252 . S
O865 In858 2.326 . S
O865 C861 1.260 . S
O866 In858 2.266 . S
O866 C863 1.252 . S
O867 In858 2.326 . S
O867 C863 1.260 . S
C868 O859 1.240 . S
C868 O860 1.252 . S
O869 In858 2.294 . S
O869 C862 1.240 . S
O870 In858 2.326 . S
O870 C862 1.252 . S
In871 O872 2.294 . S
In871 O873 2.326 . S
In871 O877 2.266 . S
In871 O878 2.326 . S
In871 O879 2.266 . S
In871 O880 2.326 . S
In871 O882 2.294 . S
In871 O883 2.326 . S
O872 In871 2.294 . S
O872 C881 1.240 . S
O873 In871 2.326 . S
O873 C881 1.252 . S
C874 O877 1.252 . S
C874 O878 1.260 . S
C875 O882 1.240 . S
C875 O883 1.252 . S
C876 O879 1.252 . S
C876 O880 1.260 . S
O877 In871 2.266 . S
O877 C874 1.252 . S
O878 In871 2.326 . S
O878 C874 1.260 . S
O879 In871 2.266 . S
O879 C876 1.252 . S
O880 In871 2.326 . S
O880 C876 1.260 . S
C881 O872 1.240 . S
C881 O873 1.252 . S
O882 In871 2.294 . S
O882 C875 1.240 . S
O883 In871 2.326 . S
O883 C875 1.252 . S
In884 O885 2.294 . S
In884 O886 2.326 . S
In884 O890 2.266 . S
In884 O891 2.326 . S
In884 O892 2.266 . S
In884 O893 2.326 . S
In884 O895 2.294 . S
In884 O896 2.326 . S
O885 In884 2.294 . S
O885 C894 1.240 . S
O886 In884 2.326 . S
O886 C894 1.252 . S
C887 O890 1.252 . S
C887 O891 1.260 . S
C888 O895 1.240 . S
C888 O896 1.252 . S
C889 O892 1.252 . S
C889 O893 1.260 . S
O890 In884 2.266 . S
O890 C887 1.252 . S
O891 In884 2.326 . S
O891 C887 1.260 . S
O892 In884 2.266 . S
O892 C889 1.252 . S
O893 In884 2.326 . S
O893 C889 1.260 . S
C894 O885 1.240 . S
C894 O886 1.252 . S
O895 In884 2.294 . S
O895 C888 1.240 . S
O896 In884 2.326 . S
O896 C888 1.252 . S
In897 O898 2.294 . S
In897 O899 2.326 . S
In897 O903 2.266 . S
In897 O904 2.326 . S
In897 O905 2.266 . S
In897 O906 2.326 . S
In897 O908 2.294 . S
In897 O909 2.326 . S
O898 In897 2.294 . S
O898 C907 1.240 . S
O899 In897 2.326 . S
O899 C907 1.252 . S
C900 O903 1.252 . S
C900 O904 1.260 . S
C901 O908 1.240 . S
C901 O909 1.252 . S
C902 O905 1.252 . S
C902 O906 1.260 . S
O903 In897 2.266 . S
O903 C900 1.252 . S
O904 In897 2.326 . S
O904 C900 1.260 . S
O905 In897 2.266 . S
O905 C902 1.252 . S
O906 In897 2.326 . S
O906 C902 1.260 . S
C907 O898 1.240 . S
C907 O899 1.252 . S
O908 In897 2.294 . S
O908 C901 1.240 . S
O909 In897 2.326 . S
O909 C901 1.252 . S
In910 O911 2.294 . S
In910 O912 2.326 . S
In910 O916 2.266 . S
In910 O917 2.326 . S
In910 O918 2.266 . S
In910 O919 2.326 . S
In910 O921 2.294 . S
In910 O922 2.326 . S
O911 In910 2.294 . S
O911 C920 1.240 . S
O912 In910 2.326 . S
O912 C920 1.252 . S
C913 O916 1.252 . S
C913 O917 1.260 . S
C914 O921 1.240 . S
C914 O922 1.252 . S
C915 O918 1.252 . S
C915 O919 1.260 . S
O916 In910 2.266 . S
O916 C913 1.252 . S
O917 In910 2.326 . S
O917 C913 1.260 . S
O918 In910 2.266 . S
O918 C915 1.252 . S
O919 In910 2.326 . S
O919 C915 1.260 . S
C920 O911 1.240 . S
C920 O912 1.252 . S
O921 In910 2.294 . S
O921 C914 1.240 . S
O922 In910 2.326 . S
O922 C914 1.252 . S
In923 O924 2.294 . S
In923 O925 2.326 . S
In923 O929 2.266 . S
In923 O930 2.326 . S
In923 O931 2.266 . S
In923 O932 2.326 . S
In923 O934 2.294 . S
In923 O935 2.326 . S
O924 In923 2.294 . S
O924 C933 1.240 . S
O925 In923 2.326 . S
O925 C933 1.252 . S
C926 O929 1.252 . S
C926 O930 1.260 . S
C927 O934 1.240 . S
C927 O935 1.252 . S
C928 O931 1.252 . S
C928 O932 1.260 . S
O929 In923 2.266 . S
O929 C926 1.252 . S
O930 In923 2.326 . S
O930 C926 1.260 . S
O931 In923 2.266 . S
O931 C928 1.252 . S
O932 In923 2.326 . S
O932 C928 1.260 . S
C933 O924 1.240 . S
C933 O925 1.252 . S
O934 In923 2.294 . S
O934 C927 1.240 . S
O935 In923 2.326 . S
O935 C927 1.252 . S
In936 O937 2.294 . S
In936 O938 2.326 . S
In936 O942 2.266 . S
In936 O943 2.326 . S
In936 O944 2.266 . S
In936 O945 2.326 . S
In936 O947 2.294 . S
In936 O948 2.326 . S
O937 In936 2.294 . S
O937 C946 1.240 . S
O938 In936 2.326 . S
O938 C946 1.252 . S
C939 O942 1.252 . S
C939 O943 1.260 . S
C940 O947 1.240 . S
C940 O948 1.252 . S
C941 O944 1.252 . S
C941 O945 1.260 . S
O942 In936 2.266 . S
O942 C939 1.252 . S
O943 In936 2.326 . S
O943 C939 1.260 . S
O944 In936 2.266 . S
O944 C941 1.252 . S
O945 In936 2.326 . S
O945 C941 1.260 . S
C946 O937 1.240 . S
C946 O938 1.252 . S
O947 In936 2.294 . S
O947 C940 1.240 . S
O948 In936 2.326 . S
O948 C940 1.252 . S
In949 O950 2.294 . S
In949 O951 2.326 . S
In949 O955 2.266 . S
In949 O956 2.326 . S
In949 O957 2.266 . S
In949 O958 2.326 . S
In949 O960 2.294 . S
In949 O961 2.326 . S
O950 In949 2.294 . S
O950 C959 1.240 . S
O951 In949 2.326 . S
O951 C959 1.252 . S
C952 O955 1.252 . S
C952 O956 1.260 . S
C953 O960 1.240 . S
C953 O961 1.252 . S
C954 O957 1.252 . S
C954 O958 1.260 . S
O955 In949 2.266 . S
O955 C952 1.252 . S
O956 In949 2.326 . S
O956 C952 1.260 . S
O957 In949 2.266 . S
O957 C954 1.252 . S
O958 In949 2.326 . S
O958 C954 1.260 . S
C959 O950 1.240 . S
C959 O951 1.252 . S
O960 In949 2.294 . S
O960 C953 1.240 . S
O961 In949 2.326 . S
O961 C953 1.252 . S
In962 O963 2.294 . S
In962 O964 2.326 . S
In962 O968 2.266 . S
In962 O969 2.326 . S
In962 O970 2.266 . S
In962 O971 2.326 . S
In962 O973 2.294 . S
In962 O974 2.326 . S
O963 In962 2.294 . S
O963 C972 1.240 . S
O964 In962 2.326 . S
O964 C972 1.252 . S
C965 O968 1.252 . S
C965 O969 1.260 . S
C966 O973 1.240 . S
C966 O974 1.252 . S
C967 O970 1.252 . S
C967 O971 1.260 . S
O968 In962 2.266 . S
O968 C965 1.252 . S
O969 In962 2.326 . S
O969 C965 1.260 . S
O970 In962 2.266 . S
O970 C967 1.252 . S
O971 In962 2.326 . S
O971 C967 1.260 . S
C972 O963 1.240 . S
C972 O964 1.252 . S
O973 In962 2.294 . S
O973 C966 1.240 . S
O974 In962 2.326 . S
O974 C966 1.252 . S
In975 O976 2.294 . S
In975 O977 2.326 . S
In975 O981 2.266 . S
In975 O982 2.326 . S
In975 O983 2.266 . S
In975 O984 2.326 . S
In975 O986 2.294 . S
In975 O987 2.326 . S
O976 In975 2.294 . S
O976 C985 1.240 . S
O977 In975 2.326 . S
O977 C985 1.252 . S
C978 O981 1.252 . S
C978 O982 1.260 . S
C979 O986 1.240 . S
C979 O987 1.252 . S
C980 O983 1.252 . S
C980 O984 1.260 . S
O981 In975 2.266 . S
O981 C978 1.252 . S
O982 In975 2.326 . S
O982 C978 1.260 . S
O983 In975 2.266 . S
O983 C980 1.252 . S
O984 In975 2.326 . S
O984 C980 1.260 . S
C985 O976 1.240 . S
C985 O977 1.252 . S
O986 In975 2.294 . S
O986 C979 1.240 . S
O987 In975 2.326 . S
O987 C979 1.252 . S
In988 O989 2.294 . S
In988 O990 2.326 . S
In988 O994 2.266 . S
In988 O995 2.326 . S
In988 O996 2.266 . S
In988 O997 2.326 . S
In988 O999 2.294 . S
In988 O1000 2.326 . S
O989 In988 2.294 . S
O989 C998 1.240 . S
O990 In988 2.326 . S
O990 C998 1.252 . S
C991 O994 1.252 . S
C991 O995 1.260 . S
C992 O999 1.240 . S
C992 O1000 1.252 . S
C993 O996 1.252 . S
C993 O997 1.260 . S
O994 In988 2.266 . S
O994 C991 1.252 . S
O995 In988 2.326 . S
O995 C991 1.260 . S
O996 In988 2.266 . S
O996 C993 1.252 . S
O997 In988 2.326 . S
O997 C993 1.260 . S
C998 O989 1.240 . S
C998 O990 1.252 . S
O999 In988 2.294 . S
O999 C992 1.240 . S
O1000 In988 2.326 . S
O1000 C992 1.252 . S
In1001 O1002 2.294 . S
In1001 O1003 2.326 . S
In1001 O1007 2.266 . S
In1001 O1008 2.326 . S
In1001 O1009 2.266 . S
In1001 O1010 2.326 . S
In1001 O1012 2.294 . S
In1001 O1013 2.326 . S
O1002 In1001 2.294 . S
O1002 C1011 1.240 . S
O1003 In1001 2.326 . S
O1003 C1011 1.252 . S
C1004 O1007 1.252 . S
C1004 O1008 1.260 . S
C1005 O1012 1.240 . S
C1005 O1013 1.252 . S
C1006 O1009 1.252 . S
C1006 O1010 1.260 . S
O1007 In1001 2.266 . S
O1007 C1004 1.252 . S
O1008 In1001 2.326 . S
O1008 C1004 1.260 . S
O1009 In1001 2.266 . S
O1009 C1006 1.252 . S
O1010 In1001 2.326 . S
O1010 C1006 1.260 . S
C1011 O1002 1.240 . S
C1011 O1003 1.252 . S
O1012 In1001 2.294 . S
O1012 C1005 1.240 . S
O1013 In1001 2.326 . S
O1013 C1005 1.252 . S
In1014 O1015 2.294 . S
In1014 O1016 2.326 . S
In1014 O1020 2.266 . S
In1014 O1021 2.326 . S
In1014 O1022 2.266 . S
In1014 O1023 2.326 . S
In1014 O1025 2.294 . S
In1014 O1026 2.326 . S
O1015 In1014 2.294 . S
O1015 C1024 1.240 . S
O1016 In1014 2.326 . S
O1016 C1024 1.252 . S
C1017 O1020 1.252 . S
C1017 O1021 1.260 . S
C1018 O1025 1.240 . S
C1018 O1026 1.252 . S
C1019 O1022 1.252 . S
C1019 O1023 1.260 . S
O1020 In1014 2.266 . S
O1020 C1017 1.252 . S
O1021 In1014 2.326 . S
O1021 C1017 1.260 . S
O1022 In1014 2.266 . S
O1022 C1019 1.252 . S
O1023 In1014 2.326 . S
O1023 C1019 1.260 . S
C1024 O1015 1.240 . S
C1024 O1016 1.252 . S
O1025 In1014 2.294 . S
O1025 C1018 1.240 . S
O1026 In1014 2.326 . S
O1026 C1018 1.252 . S
In1027 O1028 2.294 . S
In1027 O1029 2.326 . S
In1027 O1033 2.266 . S
In1027 O1034 2.326 . S
In1027 O1035 2.266 . S
In1027 O1036 2.326 . S
In1027 O1038 2.294 . S
In1027 O1039 2.326 . S
O1028 In1027 2.294 . S
O1028 C1037 1.240 . S
O1029 In1027 2.326 . S
O1029 C1037 1.252 . S
C1030 O1033 1.252 . S
C1030 O1034 1.260 . S
C1031 O1038 1.240 . S
C1031 O1039 1.252 . S
C1032 O1035 1.252 . S
C1032 O1036 1.260 . S
O1033 In1027 2.266 . S
O1033 C1030 1.252 . S
O1034 In1027 2.326 . S
O1034 C1030 1.260 . S
O1035 In1027 2.266 . S
O1035 C1032 1.252 . S
O1036 In1027 2.326 . S
O1036 C1032 1.260 . S
C1037 O1028 1.240 . S
C1037 O1029 1.252 . S
O1038 In1027 2.294 . S
O1038 C1031 1.240 . S
O1039 In1027 2.326 . S
O1039 C1031 1.252 . S
In1040 O1041 2.294 . S
In1040 O1042 2.326 . S
In1040 O1046 2.266 . S
In1040 O1047 2.326 . S
In1040 O1048 2.266 . S
In1040 O1049 2.326 . S
In1040 O1051 2.294 . S
In1040 O1052 2.326 . S
O1041 In1040 2.294 . S
O1041 C1050 1.240 . S
O1042 In1040 2.326 . S
O1042 C1050 1.252 . S
C1043 O1046 1.252 . S
C1043 O1047 1.260 . S
C1044 O1051 1.240 . S
C1044 O1052 1.252 . S
C1045 O1048 1.252 . S
C1045 O1049 1.260 . S
O1046 In1040 2.266 . S
O1046 C1043 1.252 . S
O1047 In1040 2.326 . S
O1047 C1043 1.260 . S
O1048 In1040 2.266 . S
O1048 C1045 1.252 . S
O1049 In1040 2.326 . S
O1049 C1045 1.260 . S
C1050 O1041 1.240 . S
C1050 O1042 1.252 . S
O1051 In1040 2.294 . S
O1051 C1044 1.240 . S
O1052 In1040 2.326 . S
O1052 C1044 1.252 . S
In1053 O1054 2.294 . S
In1053 O1055 2.326 . S
In1053 O1059 2.266 . S
In1053 O1060 2.326 . S
In1053 O1061 2.266 . S
In1053 O1062 2.326 . S
In1053 O1064 2.294 . S
In1053 O1065 2.326 . S
O1054 In1053 2.294 . S
O1054 C1063 1.240 . S
O1055 In1053 2.326 . S
O1055 C1063 1.252 . S
C1056 O1059 1.252 . S
C1056 O1060 1.260 . S
C1057 O1064 1.240 . S
C1057 O1065 1.252 . S
C1058 O1061 1.252 . S
C1058 O1062 1.260 . S
O1059 In1053 2.266 . S
O1059 C1056 1.252 . S
O1060 In1053 2.326 . S
O1060 C1056 1.260 . S
O1061 In1053 2.266 . S
O1061 C1058 1.252 . S
O1062 In1053 2.326 . S
O1062 C1058 1.260 . S
C1063 O1054 1.240 . S
C1063 O1055 1.252 . S
O1064 In1053 2.294 . S
O1064 C1057 1.240 . S
O1065 In1053 2.326 . S
O1065 C1057 1.252 . S
In1066 O1067 2.294 . S
In1066 O1068 2.326 . S
In1066 O1072 2.266 . S
In1066 O1073 2.326 . S
In1066 O1074 2.266 . S
In1066 O1075 2.326 . S
In1066 O1077 2.294 . S
In1066 O1078 2.326 . S
O1067 In1066 2.294 . S
O1067 C1076 1.240 . S
O1068 In1066 2.326 . S
O1068 C1076 1.252 . S
C1069 O1072 1.252 . S
C1069 O1073 1.260 . S
C1070 O1077 1.240 . S
C1070 O1078 1.252 . S
C1071 O1074 1.252 . S
C1071 O1075 1.260 . S
O1072 In1066 2.266 . S
O1072 C1069 1.252 . S
O1073 In1066 2.326 . S
O1073 C1069 1.260 . S
O1074 In1066 2.266 . S
O1074 C1071 1.252 . S
O1075 In1066 2.326 . S
O1075 C1071 1.260 . S
C1076 O1067 1.240 . S
C1076 O1068 1.252 . S
O1077 In1066 2.294 . S
O1077 C1070 1.240 . S
O1078 In1066 2.326 . S
O1078 C1070 1.252 . S
In1079 O1080 2.294 . S
In1079 O1081 2.326 . S
In1079 O1085 2.266 . S
In1079 O1086 2.326 . S
In1079 O1087 2.266 . S
In1079 O1088 2.326 . S
In1079 O1090 2.294 . S
In1079 O1091 2.326 . S
O1080 In1079 2.294 . S
O1080 C1089 1.240 . S
O1081 In1079 2.326 . S
O1081 C1089 1.252 . S
C1082 O1085 1.252 . S
C1082 O1086 1.260 . S
C1083 O1090 1.240 . S
C1083 O1091 1.252 . S
C1084 O1087 1.252 . S
C1084 O1088 1.260 . S
O1085 In1079 2.266 . S
O1085 C1082 1.252 . S
O1086 In1079 2.326 . S
O1086 C1082 1.260 . S
O1087 In1079 2.266 . S
O1087 C1084 1.252 . S
O1088 In1079 2.326 . S
O1088 C1084 1.260 . S
C1089 O1080 1.240 . S
C1089 O1081 1.252 . S
O1090 In1079 2.294 . S
O1090 C1083 1.240 . S
O1091 In1079 2.326 . S
O1091 C1083 1.252 . S
In1092 O1093 2.294 . S
In1092 O1094 2.326 . S
In1092 O1098 2.266 . S
In1092 O1099 2.326 . S
In1092 O1100 2.266 . S
In1092 O1101 2.326 . S
In1092 O1103 2.294 . S
In1092 O1104 2.326 . S
O1093 In1092 2.294 . S
O1093 C1102 1.240 . S
O1094 In1092 2.326 . S
O1094 C1102 1.252 . S
C1095 O1098 1.252 . S
C1095 O1099 1.260 . S
C1096 O1103 1.240 . S
C1096 O1104 1.252 . S
C1097 O1100 1.252 . S
C1097 O1101 1.260 . S
O1098 In1092 2.266 . S
O1098 C1095 1.252 . S
O1099 In1092 2.326 . S
O1099 C1095 1.260 . S
O1100 In1092 2.266 . S
O1100 C1097 1.252 . S
O1101 In1092 2.326 . S
O1101 C1097 1.260 . S
C1102 O1093 1.240 . S
C1102 O1094 1.252 . S
O1103 In1092 2.294 . S
O1103 C1096 1.240 . S
O1104 In1092 2.326 . S
O1104 C1096 1.252 . S
In1105 O1106 2.294 . S
In1105 O1107 2.326 . S
In1105 O1111 2.266 . S
In1105 O1112 2.326 . S
In1105 O1113 2.266 . S
In1105 O1114 2.326 . S
In1105 O1116 2.294 . S
In1105 O1117 2.326 . S
O1106 In1105 2.294 . S
O1106 C1115 1.240 . S
O1107 In1105 2.326 . S
O1107 C1115 1.252 . S
C1108 O1111 1.252 . S
C1108 O1112 1.260 . S
C1109 O1116 1.240 . S
C1109 O1117 1.252 . S
C1110 O1113 1.252 . S
C1110 O1114 1.260 . S
O1111 In1105 2.266 . S
O1111 C1108 1.252 . S
O1112 In1105 2.326 . S
O1112 C1108 1.260 . S
O1113 In1105 2.266 . S
O1113 C1110 1.252 . S
O1114 In1105 2.326 . S
O1114 C1110 1.260 . S
C1115 O1106 1.240 . S
C1115 O1107 1.252 . S
O1116 In1105 2.294 . S
O1116 C1109 1.240 . S
O1117 In1105 2.326 . S
O1117 C1109 1.252 . S
In1118 O1119 2.294 . S
In1118 O1120 2.326 . S
In1118 O1124 2.266 . S
In1118 O1125 2.326 . S
In1118 O1126 2.266 . S
In1118 O1127 2.326 . S
In1118 O1129 2.294 . S
In1118 O1130 2.326 . S
O1119 In1118 2.294 . S
O1119 C1128 1.240 . S
O1120 In1118 2.326 . S
O1120 C1128 1.252 . S
C1121 O1124 1.252 . S
C1121 O1125 1.260 . S
C1122 O1129 1.240 . S
C1122 O1130 1.252 . S
C1123 O1126 1.252 . S
C1123 O1127 1.260 . S
O1124 In1118 2.266 . S
O1124 C1121 1.252 . S
O1125 In1118 2.326 . S
O1125 C1121 1.260 . S
O1126 In1118 2.266 . S
O1126 C1123 1.252 . S
O1127 In1118 2.326 . S
O1127 C1123 1.260 . S
C1128 O1119 1.240 . S
C1128 O1120 1.252 . S
O1129 In1118 2.294 . S
O1129 C1122 1.240 . S
O1130 In1118 2.326 . S
O1130 C1122 1.252 . S
In1131 O1132 2.294 . S
In1131 O1133 2.326 . S
In1131 O1137 2.266 . S
In1131 O1138 2.326 . S
In1131 O1139 2.266 . S
In1131 O1140 2.326 . S
In1131 O1142 2.294 . S
In1131 O1143 2.326 . S
O1132 In1131 2.294 . S
O1132 C1141 1.240 . S
O1133 In1131 2.326 . S
O1133 C1141 1.252 . S
C1134 O1137 1.252 . S
C1134 O1138 1.260 . S
C1135 O1142 1.240 . S
C1135 O1143 1.252 . S
C1136 O1139 1.252 . S
C1136 O1140 1.260 . S
O1137 In1131 2.266 . S
O1137 C1134 1.252 . S
O1138 In1131 2.326 . S
O1138 C1134 1.260 . S
O1139 In1131 2.266 . S
O1139 C1136 1.252 . S
O1140 In1131 2.326 . S
O1140 C1136 1.260 . S
C1141 O1132 1.240 . S
C1141 O1133 1.252 . S
O1142 In1131 2.294 . S
O1142 C1135 1.240 . S
O1143 In1131 2.326 . S
O1143 C1135 1.252 . S
In1144 O1145 2.294 . S
In1144 O1146 2.326 . S
In1144 O1150 2.266 . S
In1144 O1151 2.326 . S
In1144 O1152 2.266 . S
In1144 O1153 2.326 . S
In1144 O1155 2.294 . S
In1144 O1156 2.326 . S
O1145 In1144 2.294 . S
O1145 C1154 1.240 . S
O1146 In1144 2.326 . S
O1146 C1154 1.252 . S
C1147 O1150 1.252 . S
C1147 O1151 1.260 . S
C1148 O1155 1.240 . S
C1148 O1156 1.252 . S
C1149 O1152 1.252 . S
C1149 O1153 1.260 . S
O1150 In1144 2.266 . S
O1150 C1147 1.252 . S
O1151 In1144 2.326 . S
O1151 C1147 1.260 . S
O1152 In1144 2.266 . S
O1152 C1149 1.252 . S
O1153 In1144 2.326 . S
O1153 C1149 1.260 . S
C1154 O1145 1.240 . S
C1154 O1146 1.252 . S
O1155 In1144 2.294 . S
O1155 C1148 1.240 . S
O1156 In1144 2.326 . S
O1156 C1148 1.252 . S
In1157 O1158 2.294 . S
In1157 O1159 2.326 . S
In1157 O1163 2.266 . S
In1157 O1164 2.326 . S
In1157 O1165 2.266 . S
In1157 O1166 2.326 . S
In1157 O1168 2.294 . S
In1157 O1169 2.326 . S
O1158 In1157 2.294 . S
O1158 C1167 1.240 . S
O1159 In1157 2.326 . S
O1159 C1167 1.252 . S
C1160 O1163 1.252 . S
C1160 O1164 1.260 . S
C1161 O1168 1.240 . S
C1161 O1169 1.252 . S
C1162 O1165 1.252 . S
C1162 O1166 1.260 . S
O1163 In1157 2.266 . S
O1163 C1160 1.252 . S
O1164 In1157 2.326 . S
O1164 C1160 1.260 . S
O1165 In1157 2.266 . S
O1165 C1162 1.252 . S
O1166 In1157 2.326 . S
O1166 C1162 1.260 . S
C1167 O1158 1.240 . S
C1167 O1159 1.252 . S
O1168 In1157 2.294 . S
O1168 C1161 1.240 . S
O1169 In1157 2.326 . S
O1169 C1161 1.252 . S
In1170 O1171 2.294 . S
In1170 O1172 2.326 . S
In1170 O1176 2.266 . S
In1170 O1177 2.326 . S
In1170 O1178 2.266 . S
In1170 O1179 2.326 . S
In1170 O1181 2.294 . S
In1170 O1182 2.326 . S
O1171 In1170 2.294 . S
O1171 C1180 1.240 . S
O1172 In1170 2.326 . S
O1172 C1180 1.252 . S
C1173 O1176 1.252 . S
C1173 O1177 1.260 . S
C1174 O1181 1.240 . S
C1174 O1182 1.252 . S
C1175 O1178 1.252 . S
C1175 O1179 1.260 . S
O1176 In1170 2.266 . S
O1176 C1173 1.252 . S
O1177 In1170 2.326 . S
O1177 C1173 1.260 . S
O1178 In1170 2.266 . S
O1178 C1175 1.252 . S
O1179 In1170 2.326 . S
O1179 C1175 1.260 . S
C1180 O1171 1.240 . S
C1180 O1172 1.252 . S
O1181 In1170 2.294 . S
O1181 C1174 1.240 . S
O1182 In1170 2.326 . S
O1182 C1174 1.252 . S
In1183 O1184 2.294 . S
In1183 O1185 2.326 . S
In1183 O1189 2.266 . S
In1183 O1190 2.326 . S
In1183 O1191 2.266 . S
In1183 O1192 2.326 . S
In1183 O1194 2.294 . S
In1183 O1195 2.326 . S
O1184 In1183 2.294 . S
O1184 C1193 1.240 . S
O1185 In1183 2.326 . S
O1185 C1193 1.252 . S
C1186 O1189 1.252 . S
C1186 O1190 1.260 . S
C1187 O1194 1.240 . S
C1187 O1195 1.252 . S
C1188 O1191 1.252 . S
C1188 O1192 1.260 . S
O1189 In1183 2.266 . S
O1189 C1186 1.252 . S
O1190 In1183 2.326 . S
O1190 C1186 1.260 . S
O1191 In1183 2.266 . S
O1191 C1188 1.252 . S
O1192 In1183 2.326 . S
O1192 C1188 1.260 . S
C1193 O1184 1.240 . S
C1193 O1185 1.252 . S
O1194 In1183 2.294 . S
O1194 C1187 1.240 . S
O1195 In1183 2.326 . S
O1195 C1187 1.252 . S
In1196 O1197 2.294 . S
In1196 O1198 2.326 . S
In1196 O1202 2.266 . S
In1196 O1203 2.326 . S
In1196 O1204 2.266 . S
In1196 O1205 2.326 . S
In1196 O1207 2.294 . S
In1196 O1208 2.326 . S
O1197 In1196 2.294 . S
O1197 C1206 1.240 . S
O1198 In1196 2.326 . S
O1198 C1206 1.252 . S
C1199 O1202 1.252 . S
C1199 O1203 1.260 . S
C1200 O1207 1.240 . S
C1200 O1208 1.252 . S
C1201 O1204 1.252 . S
C1201 O1205 1.260 . S
O1202 In1196 2.266 . S
O1202 C1199 1.252 . S
O1203 In1196 2.326 . S
O1203 C1199 1.260 . S
O1204 In1196 2.266 . S
O1204 C1201 1.252 . S
O1205 In1196 2.326 . S
O1205 C1201 1.260 . S
C1206 O1197 1.240 . S
C1206 O1198 1.252 . S
O1207 In1196 2.294 . S
O1207 C1200 1.240 . S
O1208 In1196 2.326 . S
O1208 C1200 1.252 . S
In1209 O1210 2.294 . S
In1209 O1211 2.326 . S
In1209 O1215 2.266 . S
In1209 O1216 2.326 . S
In1209 O1217 2.266 . S
In1209 O1218 2.326 . S
In1209 O1220 2.294 . S
In1209 O1221 2.326 . S
O1210 In1209 2.294 . S
O1210 C1219 1.240 . S
O1211 In1209 2.326 . S
O1211 C1219 1.252 . S
C1212 O1215 1.252 . S
C1212 O1216 1.260 . S
C1213 O1220 1.240 . S
C1213 O1221 1.252 . S
C1214 O1217 1.252 . S
C1214 O1218 1.260 . S
O1215 In1209 2.266 . S
O1215 C1212 1.252 . S
O1216 In1209 2.326 . S
O1216 C1212 1.260 . S
O1217 In1209 2.266 . S
O1217 C1214 1.252 . S
O1218 In1209 2.326 . S
O1218 C1214 1.260 . S
C1219 O1210 1.240 . S
C1219 O1211 1.252 . S
O1220 In1209 2.294 . S
O1220 C1213 1.240 . S
O1221 In1209 2.326 . S
O1221 C1213 1.252 . S
In1222 O1223 2.294 . S
In1222 O1224 2.326 . S
In1222 O1228 2.266 . S
In1222 O1229 2.326 . S
In1222 O1230 2.266 . S
In1222 O1231 2.326 . S
In1222 O1233 2.294 . S
In1222 O1234 2.326 . S
O1223 In1222 2.294 . S
O1223 C1232 1.240 . S
O1224 In1222 2.326 . S
O1224 C1232 1.252 . S
C1225 O1228 1.252 . S
C1225 O1229 1.260 . S
C1226 O1233 1.240 . S
C1226 O1234 1.252 . S
C1227 O1230 1.252 . S
C1227 O1231 1.260 . S
O1228 In1222 2.266 . S
O1228 C1225 1.252 . S
O1229 In1222 2.326 . S
O1229 C1225 1.260 . S
O1230 In1222 2.266 . S
O1230 C1227 1.252 . S
O1231 In1222 2.326 . S
O1231 C1227 1.260 . S
C1232 O1223 1.240 . S
C1232 O1224 1.252 . S
O1233 In1222 2.294 . S
O1233 C1226 1.240 . S
O1234 In1222 2.326 . S
O1234 C1226 1.252 . S
In1235 O1236 2.294 . S
In1235 O1237 2.326 . S
In1235 O1241 2.266 . S
In1235 O1242 2.326 . S
In1235 O1243 2.266 . S
In1235 O1244 2.326 . S
In1235 O1246 2.294 . S
In1235 O1247 2.326 . S
O1236 In1235 2.294 . S
O1236 C1245 1.240 . S
O1237 In1235 2.326 . S
O1237 C1245 1.252 . S
C1238 O1241 1.252 . S
C1238 O1242 1.260 . S
C1239 O1246 1.240 . S
C1239 O1247 1.252 . S
C1240 O1243 1.252 . S
C1240 O1244 1.260 . S
O1241 In1235 2.266 . S
O1241 C1238 1.252 . S
O1242 In1235 2.326 . S
O1242 C1238 1.260 . S
O1243 In1235 2.266 . S
O1243 C1240 1.252 . S
O1244 In1235 2.326 . S
O1244 C1240 1.260 . S
C1245 O1236 1.240 . S
C1245 O1237 1.252 . S
O1246 In1235 2.294 . S
O1246 C1239 1.240 . S
O1247 In1235 2.326 . S
O1247 C1239 1.252 . S
C1248 C1249 1.387 . S
C1248 H1252 0.950 . S
C1248 C1257 1.390 . S
C1249 C1248 1.387 . S
C1249 C1251 1.387 . S
H1250 C1257 0.950 . S
C1251 C1249 1.387 . S
C1251 C1253 1.390 . S
C1251 H1255 0.950 . S
H1252 C1248 0.950 . S
C1253 C1251 1.390 . S
C1253 C1254 1.387 . S
C1253 H1256 0.950 . S
C1254 C1253 1.387 . S
C1254 C1257 1.387 . S
H1255 C1251 0.950 . S
H1256 C1253 0.950 . S
C1257 C1248 1.390 . S
C1257 H1250 0.950 . S
C1257 C1254 1.387 . S
C1258 C1259 1.387 . S
C1258 H1262 0.950 . S
C1258 C1267 1.390 . S
C1259 C1258 1.387 . S
C1259 C1261 1.387 . S
H1260 C1267 0.950 . S
C1261 C1259 1.387 . S
C1261 C1263 1.390 . S
C1261 H1265 0.950 1_455 S
H1262 C1258 0.950 . S
C1263 C1261 1.390 . S
C1263 C1264 1.387 . S
C1263 H1266 0.950 . S
C1264 C1263 1.387 . S
C1264 C1267 1.387 . S
H1265 C1261 0.950 1_655 S
H1266 C1263 0.950 . S
C1267 C1258 1.390 . S
C1267 H1260 0.950 . S
C1267 C1264 1.387 . S
C1268 C1269 1.387 . S
C1268 H1272 0.950 . S
C1268 C1277 1.390 . S
C1269 C1268 1.387 . S
C1269 C1271 1.387 . S
H1270 C1277 0.950 . S
C1271 C1269 1.387 . S
C1271 C1273 1.390 . S
C1271 H1275 0.950 . S
H1272 C1268 0.950 . S
C1273 C1271 1.390 . S
C1273 C1274 1.387 . S
C1273 H1276 0.950 . S
C1274 C1273 1.387 . S
C1274 C1277 1.387 . S
H1275 C1271 0.950 . S
H1276 C1273 0.950 . S
C1277 C1268 1.390 . S
C1277 H1270 0.950 . S
C1277 C1274 1.387 . S
C1278 C1279 1.387 . S
C1278 H1282 0.950 . S
C1278 C1287 1.390 . S
C1279 C1278 1.387 . S
C1279 C1281 1.387 . S
H1280 C1287 0.950 . S
C1281 C1279 1.387 . S
C1281 C1283 1.390 . S
C1281 H1285 0.950 . S
H1282 C1278 0.950 . S
C1283 C1281 1.390 . S
C1283 C1284 1.387 . S
C1283 H1286 0.950 . S
C1284 C1283 1.387 . S
C1284 C1287 1.387 . S
H1285 C1281 0.950 . S
H1286 C1283 0.950 . S
C1287 C1278 1.390 . S
C1287 H1280 0.950 . S
C1287 C1284 1.387 . S
C1288 C1289 1.387 . S
C1288 H1292 0.950 . S
C1288 C1297 1.390 . S
C1289 C1288 1.387 . S
C1289 C1291 1.387 . S
H1290 C1297 0.950 . S
C1291 C1289 1.387 . S
C1291 C1293 1.390 . S
C1291 H1295 0.950 . S
H1292 C1288 0.950 . S
C1293 C1291 1.390 . S
C1293 C1294 1.387 . S
C1293 H1296 0.950 . S
C1294 C1293 1.387 . S
C1294 C1297 1.387 . S
H1295 C1291 0.950 . S
H1296 C1293 0.950 . S
C1297 C1288 1.390 . S
C1297 H1290 0.950 . S
C1297 C1294 1.387 . S
C1298 C1299 1.387 . S
C1298 H1302 0.950 . S
C1298 C1307 1.390 . S
C1299 C1298 1.387 . S
C1299 C1301 1.387 . S
H1300 C1307 0.950 . S
C1301 C1299 1.387 . S
C1301 C1303 1.390 . S
C1301 H1305 0.950 . S
H1302 C1298 0.950 . S
C1303 C1301 1.390 . S
C1303 C1304 1.387 . S
C1303 H1306 0.950 . S
C1304 C1303 1.387 . S
C1304 C1307 1.387 . S
H1305 C1301 0.950 . S
H1306 C1303 0.950 . S
C1307 C1298 1.390 . S
C1307 H1300 0.950 . S
C1307 C1304 1.387 . S
C1308 C1309 1.387 . S
C1308 H1312 0.950 . S
C1308 C1317 1.390 . S
C1309 C1308 1.387 . S
C1309 C1311 1.387 . S
H1310 C1317 0.950 . S
C1311 C1309 1.387 . S
C1311 C1313 1.390 . S
C1311 H1315 0.950 . S
H1312 C1308 0.950 . S
C1313 C1311 1.390 . S
C1313 C1314 1.387 . S
C1313 H1316 0.950 . S
C1314 C1313 1.387 . S
C1314 C1317 1.387 . S
H1315 C1311 0.950 . S
H1316 C1313 0.950 . S
C1317 C1308 1.390 . S
C1317 H1310 0.950 . S
C1317 C1314 1.387 . S
C1318 C1319 1.387 . S
C1318 H1322 0.950 . S
C1318 C1327 1.390 . S
C1319 C1318 1.387 . S
C1319 C1321 1.387 . S
H1320 C1327 0.950 . S
C1321 C1319 1.387 . S
C1321 C1323 1.390 . S
C1321 H1325 0.950 . S
H1322 C1318 0.950 . S
C1323 C1321 1.390 . S
C1323 C1324 1.387 . S
C1323 H1326 0.950 . S
C1324 C1323 1.387 . S
C1324 C1327 1.387 . S
H1325 C1321 0.950 . S
H1326 C1323 0.950 . S
C1327 C1318 1.390 . S
C1327 H1320 0.950 . S
C1327 C1324 1.387 . S
C1328 C1329 1.387 . S
C1328 H1332 0.950 . S
C1328 C1337 1.390 . S
C1329 C1328 1.387 . S
C1329 C1331 1.387 . S
H1330 C1337 0.950 . S
C1331 C1329 1.387 . S
C1331 C1333 1.390 . S
C1331 H1335 0.950 . S
H1332 C1328 0.950 . S
C1333 C1331 1.390 . S
C1333 C1334 1.387 . S
C1333 H1336 0.950 . S
C1334 C1333 1.387 . S
C1334 C1337 1.387 . S
H1335 C1331 0.950 . S
H1336 C1333 0.950 . S
C1337 C1328 1.390 . S
C1337 H1330 0.950 . S
C1337 C1334 1.387 . S
C1338 C1339 1.387 . S
C1338 H1342 0.950 . S
C1338 C1347 1.390 . S
C1339 C1338 1.387 . S
C1339 C1341 1.387 . S
H1340 C1347 0.950 . S
C1341 C1339 1.387 . S
C1341 C1343 1.390 . S
C1341 H1345 0.950 . S
H1342 C1338 0.950 . S
C1343 C1341 1.390 . S
C1343 C1344 1.387 . S
C1343 H1346 0.950 . S
C1344 C1343 1.387 . S
C1344 C1347 1.387 . S
H1345 C1341 0.950 . S
H1346 C1343 0.950 . S
C1347 C1338 1.390 . S
C1347 H1340 0.950 . S
C1347 C1344 1.387 . S
C1348 C1349 1.387 . S
C1348 H1352 0.950 . S
C1348 C1357 1.390 . S
C1349 C1348 1.387 . S
C1349 C1351 1.387 . S
H1350 C1357 0.950 . S
C1351 C1349 1.387 . S
C1351 C1353 1.390 . S
C1351 H1355 0.950 . S
H1352 C1348 0.950 . S
C1353 C1351 1.390 . S
C1353 C1354 1.387 . S
C1353 H1356 0.950 . S
C1354 C1353 1.387 . S
C1354 C1357 1.387 . S
H1355 C1351 0.950 . S
H1356 C1353 0.950 . S
C1357 C1348 1.390 . S
C1357 H1350 0.950 . S
C1357 C1354 1.387 . S
C1358 C1359 1.387 . S
C1358 H1362 0.950 . S
C1358 C1367 1.390 . S
C1359 C1358 1.387 . S
C1359 C1361 1.387 . S
H1360 C1367 0.950 . S
C1361 C1359 1.387 . S
C1361 C1363 1.390 . S
C1361 H1365 0.950 . S
H1362 C1358 0.950 . S
C1363 C1361 1.390 . S
C1363 C1364 1.387 . S
C1363 H1366 0.950 . S
C1364 C1363 1.387 . S
C1364 C1367 1.387 . S
H1365 C1361 0.950 . S
H1366 C1363 0.950 . S
C1367 C1358 1.390 . S
C1367 H1360 0.950 . S
C1367 C1364 1.387 . S
C1368 C1369 1.387 . S
C1368 H1372 0.950 . S
C1368 C1377 1.390 . S
C1369 C1368 1.387 . S
C1369 C1371 1.387 . S
H1370 C1377 0.950 . S
C1371 C1369 1.387 . S
C1371 C1373 1.390 . S
C1371 H1375 0.950 . S
H1372 C1368 0.950 . S
C1373 C1371 1.390 . S
C1373 C1374 1.387 . S
C1373 H1376 0.950 . S
C1374 C1373 1.387 . S
C1374 C1377 1.387 . S
H1375 C1371 0.950 . S
H1376 C1373 0.950 . S
C1377 C1368 1.390 . S
C1377 H1370 0.950 . S
C1377 C1374 1.387 . S
C1378 C1379 1.387 . S
C1378 H1382 0.950 . S
C1378 C1387 1.390 . S
C1379 C1378 1.387 . S
C1379 C1381 1.387 . S
H1380 C1387 0.950 . S
C1381 C1379 1.387 . S
C1381 C1383 1.390 . S
C1381 H1385 0.950 . S
H1382 C1378 0.950 . S
C1383 C1381 1.390 . S
C1383 C1384 1.387 . S
C1383 H1386 0.950 . S
C1384 C1383 1.387 . S
C1384 C1387 1.387 . S
H1385 C1381 0.950 . S
H1386 C1383 0.950 . S
C1387 C1378 1.390 . S
C1387 H1380 0.950 . S
C1387 C1384 1.387 . S
C1388 C1389 1.387 . S
C1388 H1392 0.950 . S
C1388 C1397 1.390 . S
C1389 C1388 1.387 . S
C1389 C1391 1.387 . S
H1390 C1397 0.950 . S
C1391 C1389 1.387 . S
C1391 C1393 1.390 . S
C1391 H1395 0.950 . S
H1392 C1388 0.950 . S
C1393 C1391 1.390 . S
C1393 C1394 1.387 . S
C1393 H1396 0.950 . S
C1394 C1393 1.387 . S
C1394 C1397 1.387 . S
H1395 C1391 0.950 . S
H1396 C1393 0.950 . S
C1397 C1388 1.390 . S
C1397 H1390 0.950 . S
C1397 C1394 1.387 . S
C1398 C1399 1.387 . S
C1398 H1402 0.950 . S
C1398 C1407 1.390 . S
C1399 C1398 1.387 . S
C1399 C1401 1.387 . S
H1400 C1407 0.950 . S
C1401 C1399 1.387 . S
C1401 C1403 1.390 . S
C1401 H1405 0.950 . S
H1402 C1398 0.950 . S
C1403 C1401 1.390 . S
C1403 C1404 1.387 . S
C1403 H1406 0.950 . S
C1404 C1403 1.387 . S
C1404 C1407 1.387 . S
H1405 C1401 0.950 . S
H1406 C1403 0.950 . S
C1407 C1398 1.390 . S
C1407 H1400 0.950 . S
C1407 C1404 1.387 . S
C1408 C1409 1.387 . S
C1408 H1412 0.950 . S
C1408 C1417 1.390 . S
C1409 C1408 1.387 . S
C1409 C1411 1.387 . S
H1410 C1417 0.950 . S
C1411 C1409 1.387 . S
C1411 C1413 1.390 . S
C1411 H1415 0.950 . S
H1412 C1408 0.950 . S
C1413 C1411 1.390 . S
C1413 C1414 1.387 . S
C1413 H1416 0.950 . S
C1414 C1413 1.387 . S
C1414 C1417 1.387 . S
H1415 C1411 0.950 . S
H1416 C1413 0.950 . S
C1417 C1408 1.390 . S
C1417 H1410 0.950 . S
C1417 C1414 1.387 . S
C1418 C1419 1.387 . S
C1418 H1422 0.950 . S
C1418 C1427 1.390 . S
C1419 C1418 1.387 . S
C1419 C1421 1.387 . S
H1420 C1427 0.950 . S
C1421 C1419 1.387 . S
C1421 C1423 1.390 . S
C1421 H1425 0.950 . S
H1422 C1418 0.950 . S
C1423 C1421 1.390 . S
C1423 C1424 1.387 . S
C1423 H1426 0.950 . S
C1424 C1423 1.387 . S
C1424 C1427 1.387 . S
H1425 C1421 0.950 . S
H1426 C1423 0.950 . S
C1427 C1418 1.390 . S
C1427 H1420 0.950 . S
C1427 C1424 1.387 . S
C1428 C1429 1.387 . S
C1428 H1432 0.950 . S
C1428 C1437 1.390 . S
C1429 C1428 1.387 . S
C1429 C1431 1.387 . S
H1430 C1437 0.950 . S
C1431 C1429 1.387 . S
C1431 C1433 1.390 . S
C1431 H1435 0.950 . S
H1432 C1428 0.950 . S
C1433 C1431 1.390 . S
C1433 C1434 1.387 . S
C1433 H1436 0.950 . S
C1434 C1433 1.387 . S
C1434 C1437 1.387 . S
H1435 C1431 0.950 . S
H1436 C1433 0.950 . S
C1437 C1428 1.390 . S
C1437 H1430 0.950 . S
C1437 C1434 1.387 . S
C1438 C1439 1.387 . S
C1438 H1442 0.950 . S
C1438 C1447 1.390 . S
C1439 C1438 1.387 . S
C1439 C1441 1.387 . S
H1440 C1447 0.950 . S
C1441 C1439 1.387 . S
C1441 C1443 1.390 . S
C1441 H1445 0.950 . S
H1442 C1438 0.950 . S
C1443 C1441 1.390 . S
C1443 C1444 1.387 . S
C1443 H1446 0.950 . S
C1444 C1443 1.387 . S
C1444 C1447 1.387 . S
H1445 C1441 0.950 . S
H1446 C1443 0.950 . S
C1447 C1438 1.390 . S
C1447 H1440 0.950 . S
C1447 C1444 1.387 . S
C1448 C1449 1.387 . S
C1448 H1452 0.950 . S
C1448 C1457 1.390 . S
C1449 C1448 1.387 . S
C1449 C1451 1.387 . S
H1450 C1457 0.950 1_565 S
C1451 C1449 1.387 . S
C1451 C1453 1.390 . S
C1451 H1455 0.950 . S
H1452 C1448 0.950 . S
C1453 C1451 1.390 . S
C1453 C1454 1.387 . S
C1453 H1456 0.950 . S
C1454 C1453 1.387 . S
C1454 C1457 1.387 . S
H1455 C1451 0.950 . S
H1456 C1453 0.950 . S
C1457 C1448 1.390 . S
C1457 H1450 0.950 1_545 S
C1457 C1454 1.387 . S
C1458 C1459 1.387 . S
C1458 H1462 0.950 . S
C1458 C1467 1.390 . S
C1459 C1458 1.387 . S
C1459 C1461 1.387 . S
H1460 C1467 0.950 . S
C1461 C1459 1.387 . S
C1461 C1463 1.390 . S
C1461 H1465 0.950 . S
H1462 C1458 0.950 . S
C1463 C1461 1.390 . S
C1463 C1464 1.387 . S
C1463 H1466 0.950 . S
C1464 C1463 1.387 . S
C1464 C1467 1.387 . S
H1465 C1461 0.950 . S
H1466 C1463 0.950 . S
C1467 C1458 1.390 . S
C1467 H1460 0.950 . S
C1467 C1464 1.387 . S
C1468 C1469 1.387 . S
C1468 H1472 0.950 . S
C1468 C1477 1.390 . S
C1469 C1468 1.387 . S
C1469 C1471 1.387 . S
H1470 C1477 0.950 . S
C1471 C1469 1.387 . S
C1471 C1473 1.390 . S
C1471 H1475 0.950 . S
H1472 C1468 0.950 . S
C1473 C1471 1.390 . S
C1473 C1474 1.387 . S
C1473 H1476 0.950 . S
C1474 C1473 1.387 . S
C1474 C1477 1.387 . S
H1475 C1471 0.950 . S
H1476 C1473 0.950 . S
C1477 C1468 1.390 . S
C1477 H1470 0.950 . S
C1477 C1474 1.387 . S
C1478 C1479 1.387 . S
C1478 H1482 0.950 . S
C1478 C1487 1.390 . S
C1479 C1478 1.387 . S
C1479 C1481 1.387 . S
H1480 C1487 0.950 . S
C1481 C1479 1.387 . S
C1481 C1483 1.390 . S
C1481 H1485 0.950 . S
H1482 C1478 0.950 . S
C1483 C1481 1.390 . S
C1483 C1484 1.387 . S
C1483 H1486 0.950 . S
C1484 C1483 1.387 . S
C1484 C1487 1.387 . S
H1485 C1481 0.950 . S
H1486 C1483 0.950 . S
C1487 C1478 1.390 . S
C1487 H1480 0.950 . S
C1487 C1484 1.387 . S
C1488 C1489 1.387 . S
C1488 H1492 0.950 . S
C1488 C1497 1.390 . S
C1489 C1488 1.387 . S
C1489 C1491 1.387 . S
H1490 C1497 0.950 . S
C1491 C1489 1.387 . S
C1491 C1493 1.390 . S
C1491 H1495 0.950 . S
H1492 C1488 0.950 . S
C1493 C1491 1.390 . S
C1493 C1494 1.387 . S
C1493 H1496 0.950 . S
C1494 C1493 1.387 . S
C1494 C1497 1.387 . S
H1495 C1491 0.950 . S
H1496 C1493 0.950 . S
C1497 C1488 1.390 . S
C1497 H1490 0.950 . S
C1497 C1494 1.387 . S
C1498 C1499 1.387 . S
C1498 H1502 0.950 . S
C1498 C1507 1.390 . S
C1499 C1498 1.387 . S
C1499 C1501 1.387 . S
H1500 C1507 0.950 . S
C1501 C1499 1.387 . S
C1501 C1503 1.390 . S
C1501 H1505 0.950 . S
H1502 C1498 0.950 . S
C1503 C1501 1.390 . S
C1503 C1504 1.387 . S
C1503 H1506 0.950 . S
C1504 C1503 1.387 . S
C1504 C1507 1.387 . S
H1505 C1501 0.950 . S
H1506 C1503 0.950 . S
C1507 C1498 1.390 . S
C1507 H1500 0.950 . S
C1507 C1504 1.387 . S
C1508 C1509 1.387 . S
C1508 H1512 0.950 . S
C1508 C1517 1.390 . S
C1509 C1508 1.387 . S
C1509 C1511 1.387 . S
H1510 C1517 0.950 . S
C1511 C1509 1.387 . S
C1511 C1513 1.390 . S
C1511 H1515 0.950 . S
H1512 C1508 0.950 . S
C1513 C1511 1.390 . S
C1513 C1514 1.387 . S
C1513 H1516 0.950 . S
C1514 C1513 1.387 . S
C1514 C1517 1.387 . S
H1515 C1511 0.950 . S
H1516 C1513 0.950 . S
C1517 C1508 1.390 . S
C1517 H1510 0.950 . S
C1517 C1514 1.387 . S
C1518 C1519 1.387 . S
C1518 H1522 0.950 . S
C1518 C1527 1.390 . S
C1519 C1518 1.387 . S
C1519 C1521 1.387 . S
H1520 C1527 0.950 . S
C1521 C1519 1.387 . S
C1521 C1523 1.390 . S
C1521 H1525 0.950 . S
H1522 C1518 0.950 . S
C1523 C1521 1.390 . S
C1523 C1524 1.387 . S
C1523 H1526 0.950 . S
C1524 C1523 1.387 . S
C1524 C1527 1.387 . S
H1525 C1521 0.950 . S
H1526 C1523 0.950 . S
C1527 C1518 1.390 . S
C1527 H1520 0.950 . S
C1527 C1524 1.387 . S
C1528 C1529 1.387 . S
C1528 H1532 0.950 . S
C1528 C1537 1.390 . S
C1529 C1528 1.387 . S
C1529 C1531 1.387 . S
H1530 C1537 0.950 . S
C1531 C1529 1.387 . S
C1531 C1533 1.390 . S
C1531 H1535 0.950 . S
H1532 C1528 0.950 . S
C1533 C1531 1.390 . S
C1533 C1534 1.387 . S
C1533 H1536 0.950 . S
C1534 C1533 1.387 . S
C1534 C1537 1.387 . S
H1535 C1531 0.950 . S
H1536 C1533 0.950 . S
C1537 C1528 1.390 . S
C1537 H1530 0.950 . S
C1537 C1534 1.387 . S
C1538 C1539 1.387 . S
C1538 H1542 0.950 . S
C1538 C1547 1.390 . S
C1539 C1538 1.387 . S
C1539 C1541 1.387 . S
H1540 C1547 0.950 . S
C1541 C1539 1.387 . S
C1541 C1543 1.390 . S
C1541 H1545 0.950 . S
H1542 C1538 0.950 . S
C1543 C1541 1.390 . S
C1543 C1544 1.387 . S
C1543 H1546 0.950 . S
C1544 C1543 1.387 . S
C1544 C1547 1.387 . S
H1545 C1541 0.950 . S
H1546 C1543 0.950 . S
C1547 C1538 1.390 . S
C1547 H1540 0.950 . S
C1547 C1544 1.387 . S
C1548 C1549 1.387 . S
C1548 H1552 0.950 . S
C1548 C1557 1.390 . S
C1549 C1548 1.387 . S
C1549 C1551 1.387 . S
H1550 C1557 0.950 . S
C1551 C1549 1.387 . S
C1551 C1553 1.390 . S
C1551 H1555 0.950 . S
H1552 C1548 0.950 . S
C1553 C1551 1.390 . S
C1553 C1554 1.387 . S
C1553 H1556 0.950 . S
C1554 C1553 1.387 . S
C1554 C1557 1.387 . S
H1555 C1551 0.950 . S
H1556 C1553 0.950 . S
C1557 C1548 1.390 . S
C1557 H1550 0.950 . S
C1557 C1554 1.387 . S
C1558 C1559 1.387 . S
C1558 H1562 0.950 . S
C1558 C1567 1.390 . S
C1559 C1558 1.387 . S
C1559 C1561 1.387 . S
H1560 C1567 0.950 . S
C1561 C1559 1.387 . S
C1561 C1563 1.390 . S
C1561 H1565 0.950 . S
H1562 C1558 0.950 . S
C1563 C1561 1.390 . S
C1563 C1564 1.387 . S
C1563 H1566 0.950 . S
C1564 C1563 1.387 . S
C1564 C1567 1.387 . S
H1565 C1561 0.950 . S
H1566 C1563 0.950 . S
C1567 C1558 1.390 . S
C1567 H1560 0.950 . S
C1567 C1564 1.387 . S
C1568 C1569 1.387 . S
C1568 H1572 0.950 . S
C1568 C1577 1.390 . S
C1569 C1568 1.387 . S
C1569 C1571 1.387 . S
H1570 C1577 0.950 . S
C1571 C1569 1.387 . S
C1571 C1573 1.390 . S
C1571 H1575 0.950 . S
H1572 C1568 0.950 . S
C1573 C1571 1.390 . S
C1573 C1574 1.387 . S
C1573 H1576 0.950 . S
C1574 C1573 1.387 . S
C1574 C1577 1.387 . S
H1575 C1571 0.950 . S
H1576 C1573 0.950 . S
C1577 C1568 1.390 . S
C1577 H1570 0.950 . S
C1577 C1574 1.387 . S
C1578 C1579 1.387 . S
C1578 H1582 0.950 . S
C1578 C1587 1.390 . S
C1579 C1578 1.387 . S
C1579 C1581 1.387 . S
H1580 C1587 0.950 . S
C1581 C1579 1.387 . S
C1581 C1583 1.390 . S
C1581 H1585 0.950 . S
H1582 C1578 0.950 . S
C1583 C1581 1.390 . S
C1583 C1584 1.387 . S
C1583 H1586 0.950 . S
C1584 C1583 1.387 . S
C1584 C1587 1.387 . S
H1585 C1581 0.950 . S
H1586 C1583 0.950 . S
C1587 C1578 1.390 . S
C1587 H1580 0.950 . S
C1587 C1584 1.387 . S
C1588 C1589 1.387 . S
C1588 H1592 0.950 . S
C1588 C1597 1.390 . S
C1589 C1588 1.387 . S
C1589 C1591 1.387 . S
H1590 C1597 0.950 . S
C1591 C1589 1.387 . S
C1591 C1593 1.390 . S
C1591 H1595 0.950 . S
H1592 C1588 0.950 . S
C1593 C1591 1.390 . S
C1593 C1594 1.387 . S
C1593 H1596 0.950 . S
C1594 C1593 1.387 . S
C1594 C1597 1.387 . S
H1595 C1591 0.950 . S
H1596 C1593 0.950 . S
C1597 C1588 1.390 . S
C1597 H1590 0.950 . S
C1597 C1594 1.387 . S
C1598 C1599 1.387 . S
C1598 H1602 0.950 . S
C1598 C1607 1.390 . S
C1599 C1598 1.387 . S
C1599 C1601 1.387 . S
H1600 C1607 0.950 . S
C1601 C1599 1.387 . S
C1601 C1603 1.390 . S
C1601 H1605 0.950 1_554 S
H1602 C1598 0.950 . S
C1603 C1601 1.390 . S
C1603 C1604 1.387 . S
C1603 H1606 0.950 . S
C1604 C1603 1.387 . S
C1604 C1607 1.387 . S
H1605 C1601 0.950 1_556 S
H1606 C1603 0.950 . S
C1607 C1598 1.390 . S
C1607 H1600 0.950 . S
C1607 C1604 1.387 . S
C1608 C1609 1.387 . S
C1608 H1612 0.950 . S
C1608 C1617 1.390 . S
C1609 C1608 1.387 . S
C1609 C1611 1.387 . S
H1610 C1617 0.950 . S
C1611 C1609 1.387 . S
C1611 C1613 1.390 . S
C1611 H1615 0.950 . S
H1612 C1608 0.950 . S
C1613 C1611 1.390 . S
C1613 C1614 1.387 . S
C1613 H1616 0.950 . S
C1614 C1613 1.387 . S
C1614 C1617 1.387 . S
H1615 C1611 0.950 . S
H1616 C1613 0.950 . S
C1617 C1608 1.390 . S
C1617 H1610 0.950 . S
C1617 C1614 1.387 . S
C1618 C1619 1.387 . S
C1618 H1622 0.950 . S
C1618 C1627 1.390 . S
C1619 C1618 1.387 . S
C1619 C1621 1.387 . S
H1620 C1627 0.950 . S
C1621 C1619 1.387 . S
C1621 C1623 1.390 . S
C1621 H1625 0.950 . S
H1622 C1618 0.950 . S
C1623 C1621 1.390 . S
C1623 C1624 1.387 . S
C1623 H1626 0.950 . S
C1624 C1623 1.387 . S
C1624 C1627 1.387 . S
H1625 C1621 0.950 . S
H1626 C1623 0.950 . S
C1627 C1618 1.390 . S
C1627 H1620 0.950 . S
C1627 C1624 1.387 . S
C1628 C1629 1.387 . S
C1628 H1632 0.950 . S
C1628 C1637 1.390 . S
C1629 C1628 1.387 . S
C1629 C1631 1.387 . S
H1630 C1637 0.950 . S
C1631 C1629 1.387 . S
C1631 C1633 1.390 . S
C1631 H1635 0.950 . S
H1632 C1628 0.950 . S
C1633 C1631 1.390 . S
C1633 C1634 1.387 . S
C1633 H1636 0.950 . S
C1634 C1633 1.387 . S
C1634 C1637 1.387 . S
H1635 C1631 0.950 . S
H1636 C1633 0.950 . S
C1637 C1628 1.390 . S
C1637 H1630 0.950 . S
C1637 C1634 1.387 . S
C1638 C1639 1.387 . S
C1638 H1642 0.950 1_556 S
C1638 C1647 1.390 . S
C1639 C1638 1.387 . S
C1639 C1641 1.387 . S
H1640 C1647 0.950 . S
C1641 C1639 1.387 . S
C1641 C1643 1.390 . S
C1641 H1645 0.950 . S
H1642 C1638 0.950 1_554 S
C1643 C1641 1.390 . S
C1643 C1644 1.387 . S
C1643 H1646 0.950 . S
C1644 C1643 1.387 . S
C1644 C1647 1.387 . S
H1645 C1641 0.950 . S
H1646 C1643 0.950 . S
C1647 C1638 1.390 . S
C1647 H1640 0.950 . S
C1647 C1644 1.387 . S
C1648 C1649 1.387 . S
C1648 H1652 0.950 . S
C1648 C1657 1.390 . S
C1649 C1648 1.387 . S
C1649 C1651 1.387 . S
H1650 C1657 0.950 . S
C1651 C1649 1.387 . S
C1651 C1653 1.390 . S
C1651 H1655 0.950 . S
H1652 C1648 0.950 . S
C1653 C1651 1.390 . S
C1653 C1654 1.387 . S
C1653 H1656 0.950 . S
C1654 C1653 1.387 . S
C1654 C1657 1.387 . S
H1655 C1651 0.950 . S
H1656 C1653 0.950 . S
C1657 C1648 1.390 . S
C1657 H1650 0.950 . S
C1657 C1654 1.387 . S
C1658 C1659 1.387 . S
C1658 H1662 0.950 . S
C1658 C1667 1.390 . S
C1659 C1658 1.387 . S
C1659 C1661 1.387 . S
H1660 C1667 0.950 . S
C1661 C1659 1.387 . S
C1661 C1663 1.390 . S
C1661 H1665 0.950 . S
H1662 C1658 0.950 . S
C1663 C1661 1.390 . S
C1663 C1664 1.387 . S
C1663 H1666 0.950 . S
C1664 C1663 1.387 . S
C1664 C1667 1.387 . S
H1665 C1661 0.950 . S
H1666 C1663 0.950 . S
C1667 C1658 1.390 . S
C1667 H1660 0.950 . S
C1667 C1664 1.387 . S
C1668 C1669 1.387 . S
C1668 H1672 0.950 . S
C1668 C1677 1.390 . S
C1669 C1668 1.387 . S
C1669 C1671 1.387 . S
H1670 C1677 0.950 . S
C1671 C1669 1.387 . S
C1671 C1673 1.390 . S
C1671 H1675 0.950 . S
H1672 C1668 0.950 . S
C1673 C1671 1.390 . S
C1673 C1674 1.387 . S
C1673 H1676 0.950 . S
C1674 C1673 1.387 . S
C1674 C1677 1.387 . S
H1675 C1671 0.950 . S
H1676 C1673 0.950 . S
C1677 C1668 1.390 . S
C1677 H1670 0.950 . S
C1677 C1674 1.387 . S
C1678 C1679 1.387 . S
C1678 H1682 0.950 . S
C1678 C1687 1.390 . S
C1679 C1678 1.387 . S
C1679 C1681 1.387 . S
H1680 C1687 0.950 . S
C1681 C1679 1.387 . S
C1681 C1683 1.390 . S
C1681 H1685 0.950 . S
H1682 C1678 0.950 . S
C1683 C1681 1.390 . S
C1683 C1684 1.387 . S
C1683 H1686 0.950 . S
C1684 C1683 1.387 . S
C1684 C1687 1.387 . S
H1685 C1681 0.950 . S
H1686 C1683 0.950 . S
C1687 C1678 1.390 . S
C1687 H1680 0.950 . S
C1687 C1684 1.387 . S
C1688 C1689 1.387 . S
C1688 H1692 0.950 . S
C1688 C1697 1.390 . S
C1689 C1688 1.387 . S
C1689 C1691 1.387 . S
H1690 C1697 0.950 . S
C1691 C1689 1.387 . S
C1691 C1693 1.390 . S
C1691 H1695 0.950 . S
H1692 C1688 0.950 . S
C1693 C1691 1.390 . S
C1693 C1694 1.387 . S
C1693 H1696 0.950 . S
C1694 C1693 1.387 . S
C1694 C1697 1.387 . S
H1695 C1691 0.950 . S
H1696 C1693 0.950 . S
C1697 C1688 1.390 . S
C1697 H1690 0.950 . S
C1697 C1694 1.387 . S
C1698 C1699 1.387 . S
C1698 H1702 0.950 . S
C1698 C1707 1.390 . S
C1699 C1698 1.387 . S
C1699 C1701 1.387 . S
H1700 C1707 0.950 . S
C1701 C1699 1.387 . S
C1701 C1703 1.390 . S
C1701 H1705 0.950 . S
H1702 C1698 0.950 . S
C1703 C1701 1.390 . S
C1703 C1704 1.387 . S
C1703 H1706 0.950 . S
C1704 C1703 1.387 . S
C1704 C1707 1.387 . S
H1705 C1701 0.950 . S
H1706 C1703 0.950 . S
C1707 C1698 1.390 . S
C1707 H1700 0.950 . S
C1707 C1704 1.387 . S
C1708 C1709 1.387 . S
C1708 H1712 0.950 . S
C1708 C1717 1.390 . S
C1709 C1708 1.387 . S
C1709 C1711 1.387 . S
H1710 C1717 0.950 . S
C1711 C1709 1.387 . S
C1711 C1713 1.390 . S
C1711 H1715 0.950 . S
H1712 C1708 0.950 . S
C1713 C1711 1.390 . S
C1713 C1714 1.387 . S
C1713 H1716 0.950 . S
C1714 C1713 1.387 . S
C1714 C1717 1.387 . S
H1715 C1711 0.950 . S
H1716 C1713 0.950 . S
C1717 C1708 1.390 . S
C1717 H1710 0.950 . S
C1717 C1714 1.387 . S
C1718 C1719 1.387 . S
C1718 H1722 0.950 . S
C1718 C1727 1.390 . S
C1719 C1718 1.387 . S
C1719 C1721 1.387 . S
H1720 C1727 0.950 . S
C1721 C1719 1.387 . S
C1721 C1723 1.390 . S
C1721 H1725 0.950 . S
H1722 C1718 0.950 . S
C1723 C1721 1.390 . S
C1723 C1724 1.387 . S
C1723 H1726 0.950 . S
C1724 C1723 1.387 . S
C1724 C1727 1.387 . S
H1725 C1721 0.950 . S
H1726 C1723 0.950 . S
C1727 C1718 1.390 . S
C1727 H1720 0.950 . S
C1727 C1724 1.387 . S
C1728 C1729 1.387 . S
C1728 H1732 0.950 . S
C1728 C1737 1.390 . S
C1729 C1728 1.387 . S
C1729 C1731 1.387 . S
H1730 C1737 0.950 . S
C1731 C1729 1.387 . S
C1731 C1733 1.390 . S
C1731 H1735 0.950 . S
H1732 C1728 0.950 . S
C1733 C1731 1.390 . S
C1733 C1734 1.387 . S
C1733 H1736 0.950 . S
C1734 C1733 1.387 . S
C1734 C1737 1.387 . S
H1735 C1731 0.950 . S
H1736 C1733 0.950 . S
C1737 C1728 1.390 . S
C1737 H1730 0.950 . S
C1737 C1734 1.387 . S
C1738 C1739 1.387 . S
C1738 H1742 0.950 . S
C1738 C1747 1.390 . S
C1739 C1738 1.387 . S
C1739 C1741 1.387 . S
H1740 C1747 0.950 . S
C1741 C1739 1.387 . S
C1741 C1743 1.390 . S
C1741 H1745 0.950 . S
H1742 C1738 0.950 . S
C1743 C1741 1.390 . S
C1743 C1744 1.387 . S
C1743 H1746 0.950 . S
C1744 C1743 1.387 . S
C1744 C1747 1.387 . S
H1745 C1741 0.950 . S
H1746 C1743 0.950 . S
C1747 C1738 1.390 . S
C1747 H1740 0.950 . S
C1747 C1744 1.387 . S
C1748 C1749 1.387 . S
C1748 H1752 0.950 . S
C1748 C1757 1.390 . S
C1749 C1748 1.387 . S
C1749 C1751 1.387 . S
H1750 C1757 0.950 . S
C1751 C1749 1.387 . S
C1751 C1753 1.390 . S
C1751 H1755 0.950 . S
H1752 C1748 0.950 . S
C1753 C1751 1.390 . S
C1753 C1754 1.387 . S
C1753 H1756 0.950 . S
C1754 C1753 1.387 . S
C1754 C1757 1.387 . S
H1755 C1751 0.950 . S
H1756 C1753 0.950 . S
C1757 C1748 1.390 . S
C1757 H1750 0.950 . S
C1757 C1754 1.387 . S
C1758 C1759 1.387 . S
C1758 H1762 0.950 . S
C1758 C1767 1.390 . S
C1759 C1758 1.387 . S
C1759 C1761 1.387 . S
H1760 C1767 0.950 . S
C1761 C1759 1.387 . S
C1761 C1763 1.390 . S
C1761 H1765 0.950 . S
H1762 C1758 0.950 . S
C1763 C1761 1.390 . S
C1763 C1764 1.387 . S
C1763 H1766 0.950 . S
C1764 C1763 1.387 . S
C1764 C1767 1.387 . S
H1765 C1761 0.950 . S
H1766 C1763 0.950 . S
C1767 C1758 1.390 . S
C1767 H1760 0.950 . S
C1767 C1764 1.387 . S
C1768 C1769 1.387 . S
C1768 H1772 0.950 . S
C1768 C1777 1.390 . S
C1769 C1768 1.387 . S
C1769 C1771 1.387 . S
H1770 C1777 0.950 . S
C1771 C1769 1.387 . S
C1771 C1773 1.390 . S
C1771 H1775 0.950 . S
H1772 C1768 0.950 . S
C1773 C1771 1.390 . S
C1773 C1774 1.387 . S
C1773 H1776 0.950 . S
C1774 C1773 1.387 . S
C1774 C1777 1.387 . S
H1775 C1771 0.950 . S
H1776 C1773 0.950 . S
C1777 C1768 1.390 . S
C1777 H1770 0.950 . S
C1777 C1774 1.387 . S
C1778 C1779 1.387 . S
C1778 H1782 0.950 . S
C1778 C1787 1.390 . S
C1779 C1778 1.387 . S
C1779 C1781 1.387 . S
H1780 C1787 0.950 . S
C1781 C1779 1.387 . S
C1781 C1783 1.390 . S
C1781 H1785 0.950 . S
H1782 C1778 0.950 . S
C1783 C1781 1.390 . S
C1783 C1784 1.387 . S
C1783 H1786 0.950 . S
C1784 C1783 1.387 . S
C1784 C1787 1.387 . S
H1785 C1781 0.950 . S
H1786 C1783 0.950 . S
C1787 C1778 1.390 . S
C1787 H1780 0.950 . S
C1787 C1784 1.387 . S
C1788 C1789 1.387 . S
C1788 H1792 0.950 . S
C1788 C1797 1.390 . S
C1789 C1788 1.387 . S
C1789 C1791 1.387 . S
H1790 C1797 0.950 . S
C1791 C1789 1.387 . S
C1791 C1793 1.390 . S
C1791 H1795 0.950 . S
H1792 C1788 0.950 . S
C1793 C1791 1.390 . S
C1793 C1794 1.387 . S
C1793 H1796 0.950 . S
C1794 C1793 1.387 . S
C1794 C1797 1.387 . S
H1795 C1791 0.950 . S
H1796 C1793 0.950 . S
C1797 C1788 1.390 . S
C1797 H1790 0.950 . S
C1797 C1794 1.387 . S
C1798 C1799 1.387 . S
C1798 H1802 0.950 . S
C1798 C1807 1.390 . S
C1799 C1798 1.387 . S
C1799 C1801 1.387 . S
H1800 C1807 0.950 . S
C1801 C1799 1.387 . S
C1801 C1803 1.390 . S
C1801 H1805 0.950 . S
H1802 C1798 0.950 . S
C1803 C1801 1.390 . S
C1803 C1804 1.387 . S
C1803 H1806 0.950 . S
C1804 C1803 1.387 . S
C1804 C1807 1.387 . S
H1805 C1801 0.950 . S
H1806 C1803 0.950 . S
C1807 C1798 1.390 . S
C1807 H1800 0.950 . S
C1807 C1804 1.387 . S
C1808 C1809 1.387 . S
C1808 H1812 0.950 . S
C1808 C1817 1.390 . S
C1809 C1808 1.387 . S
C1809 C1811 1.387 . S
H1810 C1817 0.950 . S
C1811 C1809 1.387 . S
C1811 C1813 1.390 . S
C1811 H1815 0.950 . S
H1812 C1808 0.950 . S
C1813 C1811 1.390 . S
C1813 C1814 1.387 . S
C1813 H1816 0.950 . S
C1814 C1813 1.387 . S
C1814 C1817 1.387 . S
H1815 C1811 0.950 . S
H1816 C1813 0.950 . S
C1817 C1808 1.390 . S
C1817 H1810 0.950 . S
C1817 C1814 1.387 . S
C1818 C1819 1.387 . S
C1818 H1822 0.950 . S
C1818 C1827 1.390 . S
C1819 C1818 1.387 . S
C1819 C1821 1.387 . S
H1820 C1827 0.950 . S
C1821 C1819 1.387 . S
C1821 C1823 1.390 . S
C1821 H1825 0.950 . S
H1822 C1818 0.950 . S
C1823 C1821 1.390 . S
C1823 C1824 1.387 . S
C1823 H1826 0.950 . S
C1824 C1823 1.387 . S
C1824 C1827 1.387 . S
H1825 C1821 0.950 . S
H1826 C1823 0.950 . S
C1827 C1818 1.390 . S
C1827 H1820 0.950 . S
C1827 C1824 1.387 . S
C1828 C1829 1.387 . S
C1828 H1832 0.950 . S
C1828 C1837 1.390 . S
C1829 C1828 1.387 . S
C1829 C1831 1.387 . S
H1830 C1837 0.950 . S
C1831 C1829 1.387 . S
C1831 C1833 1.390 . S
C1831 H1835 0.950 . S
H1832 C1828 0.950 . S
C1833 C1831 1.390 . S
C1833 C1834 1.387 . S
C1833 H1836 0.950 . S
C1834 C1833 1.387 . S
C1834 C1837 1.387 . S
H1835 C1831 0.950 . S
H1836 C1833 0.950 . S
C1837 C1828 1.390 . S
C1837 H1830 0.950 . S
C1837 C1834 1.387 . S
C1838 C1839 1.387 . S
C1838 H1842 0.950 . S
C1838 C1847 1.390 . S
C1839 C1838 1.387 . S
C1839 C1841 1.387 . S
H1840 C1847 0.950 . S
C1841 C1839 1.387 . S
C1841 C1843 1.390 . S
C1841 H1845 0.950 . S
H1842 C1838 0.950 . S
C1843 C1841 1.390 . S
C1843 C1844 1.387 . S
C1843 H1846 0.950 . S
C1844 C1843 1.387 . S
C1844 C1847 1.387 . S
H1845 C1841 0.950 . S
H1846 C1843 0.950 . S
C1847 C1838 1.390 . S
C1847 H1840 0.950 . S
C1847 C1844 1.387 . S
C1848 C1849 1.387 . S
C1848 H1852 0.950 . S
C1848 C1857 1.390 . S
C1849 C1848 1.387 . S
C1849 C1851 1.387 . S
H1850 C1857 0.950 . S
C1851 C1849 1.387 . S
C1851 C1853 1.390 . S
C1851 H1855 0.950 . S
H1852 C1848 0.950 . S
C1853 C1851 1.390 . S
C1853 C1854 1.387 . S
C1853 H1856 0.950 . S
C1854 C1853 1.387 . S
C1854 C1857 1.387 . S
H1855 C1851 0.950 . S
H1856 C1853 0.950 . S
C1857 C1848 1.390 . S
C1857 H1850 0.950 . S
C1857 C1854 1.387 . S
C1858 C1859 1.387 . S
C1858 H1862 0.950 . S
C1858 C1867 1.390 . S
C1859 C1858 1.387 . S
C1859 C1861 1.387 . S
H1860 C1867 0.950 . S
C1861 C1859 1.387 . S
C1861 C1863 1.390 . S
C1861 H1865 0.950 . S
H1862 C1858 0.950 . S
C1863 C1861 1.390 . S
C1863 C1864 1.387 . S
C1863 H1866 0.950 . S
C1864 C1863 1.387 . S
C1864 C1867 1.387 . S
H1865 C1861 0.950 . S
H1866 C1863 0.950 . S
C1867 C1858 1.390 . S
C1867 H1860 0.950 . S
C1867 C1864 1.387 . S
C1868 C1869 1.387 . S
C1868 H1872 0.950 . S
C1868 C1877 1.390 . S
C1869 C1868 1.387 . S
C1869 C1871 1.387 . S
H1870 C1877 0.950 . S
C1871 C1869 1.387 . S
C1871 C1873 1.390 . S
C1871 H1875 0.950 . S
H1872 C1868 0.950 . S
C1873 C1871 1.390 . S
C1873 C1874 1.387 . S
C1873 H1876 0.950 . S
C1874 C1873 1.387 . S
C1874 C1877 1.387 . S
H1875 C1871 0.950 . S
H1876 C1873 0.950 . S
C1877 C1868 1.390 . S
C1877 H1870 0.950 . S
C1877 C1874 1.387 . S
C1878 C1879 1.387 . S
C1878 H1882 0.950 . S
C1878 C1887 1.390 . S
C1879 C1878 1.387 . S
C1879 C1881 1.387 . S
H1880 C1887 0.950 . S
C1881 C1879 1.387 . S
C1881 C1883 1.390 . S
C1881 H1885 0.950 . S
H1882 C1878 0.950 . S
C1883 C1881 1.390 . S
C1883 C1884 1.387 . S
C1883 H1886 0.950 . S
C1884 C1883 1.387 . S
C1884 C1887 1.387 . S
H1885 C1881 0.950 . S
H1886 C1883 0.950 . S
C1887 C1878 1.390 . S
C1887 H1880 0.950 . S
C1887 C1884 1.387 . S
C1888 C1889 1.387 . S
C1888 H1892 0.950 . S
C1888 C1897 1.390 . S
C1889 C1888 1.387 . S
C1889 C1891 1.387 . S
H1890 C1897 0.950 . S
C1891 C1889 1.387 . S
C1891 C1893 1.390 . S
C1891 H1895 0.950 . S
H1892 C1888 0.950 . S
C1893 C1891 1.390 . S
C1893 C1894 1.387 . S
C1893 H1896 0.950 . S
C1894 C1893 1.387 . S
C1894 C1897 1.387 . S
H1895 C1891 0.950 . S
H1896 C1893 0.950 . S
C1897 C1888 1.390 . S
C1897 H1890 0.950 . S
C1897 C1894 1.387 . S
C1898 C1899 1.387 . S
C1898 H1902 0.950 . S
C1898 C1907 1.390 . S
C1899 C1898 1.387 . S
C1899 C1901 1.387 . S
H1900 C1907 0.950 . S
C1901 C1899 1.387 . S
C1901 C1903 1.390 . S
C1901 H1905 0.950 . S
H1902 C1898 0.950 . S
C1903 C1901 1.390 . S
C1903 C1904 1.387 . S
C1903 H1906 0.950 . S
C1904 C1903 1.387 . S
C1904 C1907 1.387 . S
H1905 C1901 0.950 . S
H1906 C1903 0.950 . S
C1907 C1898 1.390 . S
C1907 H1900 0.950 . S
C1907 C1904 1.387 . S
C1908 C1909 1.387 . S
C1908 H1912 0.950 . S
C1908 C1917 1.390 . S
C1909 C1908 1.387 . S
C1909 C1911 1.387 . S
H1910 C1917 0.950 . S
C1911 C1909 1.387 . S
C1911 C1913 1.390 . S
C1911 H1915 0.950 . S
H1912 C1908 0.950 . S
C1913 C1911 1.390 . S
C1913 C1914 1.387 . S
C1913 H1916 0.950 . S
C1914 C1913 1.387 . S
C1914 C1917 1.387 . S
H1915 C1911 0.950 . S
H1916 C1913 0.950 . S
C1917 C1908 1.390 . S
C1917 H1910 0.950 . S
C1917 C1914 1.387 . S
C1918 C1919 1.387 . S
C1918 H1922 0.950 . S
C1918 C1927 1.390 . S
C1919 C1918 1.387 . S
C1919 C1921 1.387 . S
H1920 C1927 0.950 . S
C1921 C1919 1.387 . S
C1921 C1923 1.390 . S
C1921 H1925 0.950 . S
H1922 C1918 0.950 . S
C1923 C1921 1.390 . S
C1923 C1924 1.387 . S
C1923 H1926 0.950 . S
C1924 C1923 1.387 . S
C1924 C1927 1.387 . S
H1925 C1921 0.950 . S
H1926 C1923 0.950 . S
C1927 C1918 1.390 . S
C1927 H1920 0.950 . S
C1927 C1924 1.387 . S
C1928 C1929 1.387 . S
C1928 H1932 0.950 . S
C1928 C1937 1.390 . S
C1929 C1928 1.387 . S
C1929 C1931 1.387 . S
H1930 C1937 0.950 . S
C1931 C1929 1.387 . S
C1931 C1933 1.390 . S
C1931 H1935 0.950 . S
H1932 C1928 0.950 . S
C1933 C1931 1.390 . S
C1933 C1934 1.387 . S
C1933 H1936 0.950 . S
C1934 C1933 1.387 . S
C1934 C1937 1.387 . S
H1935 C1931 0.950 . S
H1936 C1933 0.950 . S
C1937 C1928 1.390 . S
C1937 H1930 0.950 . S
C1937 C1934 1.387 . S
C1938 C1939 1.387 . S
C1938 H1942 0.950 . S
C1938 C1947 1.390 . S
C1939 C1938 1.387 . S
C1939 C1941 1.387 . S
H1940 C1947 0.950 . S
C1941 C1939 1.387 . S
C1941 C1943 1.390 . S
C1941 H1945 0.950 . S
H1942 C1938 0.950 . S
C1943 C1941 1.390 . S
C1943 C1944 1.387 . S
C1943 H1946 0.950 . S
C1944 C1943 1.387 . S
C1944 C1947 1.387 . S
H1945 C1941 0.950 . S
H1946 C1943 0.950 . S
C1947 C1938 1.390 . S
C1947 H1940 0.950 . S
C1947 C1944 1.387 . S
C1948 C1949 1.387 . S
C1948 H1952 0.950 . S
C1948 C1957 1.390 . S
C1949 C1948 1.387 . S
C1949 C1951 1.387 . S
H1950 C1957 0.950 . S
C1951 C1949 1.387 . S
C1951 C1953 1.390 . S
C1951 H1955 0.950 . S
H1952 C1948 0.950 . S
C1953 C1951 1.390 . S
C1953 C1954 1.387 . S
C1953 H1956 0.950 . S
C1954 C1953 1.387 . S
C1954 C1957 1.387 . S
H1955 C1951 0.950 . S
H1956 C1953 0.950 . S
C1957 C1948 1.390 . S
C1957 H1950 0.950 . S
C1957 C1954 1.387 . S
C1958 C1959 1.387 . S
C1958 H1962 0.929 1_565 S
C1958 C1967 1.390 . S
C1959 C1958 1.387 . S
C1959 C1961 1.387 . S
H1960 C1967 0.950 . S
C1961 C1959 1.387 . S
C1961 C1963 1.390 . S
C1961 H1965 0.950 . S
H1962 C1958 0.929 1_545 S
C1963 C1961 1.390 . S
C1963 C1964 1.387 . S
C1963 H1966 0.950 . S
C1964 C1963 1.387 . S
C1964 C1967 1.387 . S
H1965 C1961 0.950 . S
H1966 C1963 0.950 . S
C1967 C1958 1.390 . S
C1967 H1960 0.950 . S
C1967 C1964 1.387 . S
C1968 C1969 1.387 . S
C1968 H1972 0.950 . S
C1968 C1977 1.390 . S
C1969 C1968 1.387 . S
C1969 C1971 1.387 . S
H1970 C1977 0.950 . S
C1971 C1969 1.387 . S
C1971 C1973 1.390 . S
C1971 H1975 0.950 . S
H1972 C1968 0.950 . S
C1973 C1971 1.390 . S
C1973 C1974 1.387 . S
C1973 H1976 0.950 . S
C1974 C1973 1.387 . S
C1974 C1977 1.387 . S
H1975 C1971 0.950 . S
H1976 C1973 0.950 . S
C1977 C1968 1.390 . S
C1977 H1970 0.950 . S
C1977 C1974 1.387 . S
C1978 C1979 1.387 . S
C1978 H1982 0.950 . S
C1978 C1987 1.390 . S
C1979 C1978 1.387 . S
C1979 C1981 1.387 . S
H1980 C1987 0.950 . S
C1981 C1979 1.387 . S
C1981 C1983 1.390 . S
C1981 H1985 0.950 . S
H1982 C1978 0.950 . S
C1983 C1981 1.390 . S
C1983 C1984 1.387 . S
C1983 H1986 0.950 . S
C1984 C1983 1.387 . S
C1984 C1987 1.387 . S
H1985 C1981 0.950 . S
H1986 C1983 0.950 . S
C1987 C1978 1.390 . S
C1987 H1980 0.950 . S
C1987 C1984 1.387 . S
C1988 C1989 1.387 . S
C1988 H1992 0.950 . S
C1988 C1997 1.390 . S
C1989 C1988 1.387 . S
C1989 C1991 1.387 . S
H1990 C1997 0.950 . S
C1991 C1989 1.387 . S
C1991 C1993 1.390 . S
C1991 H1995 0.950 . S
H1992 C1988 0.950 . S
C1993 C1991 1.390 . S
C1993 C1994 1.387 . S
C1993 H1996 0.950 . S
C1994 C1993 1.387 . S
C1994 C1997 1.387 . S
H1995 C1991 0.950 . S
H1996 C1993 0.950 . S
C1997 C1988 1.390 . S
C1997 H1990 0.950 . S
C1997 C1994 1.387 . S
C1998 C1999 1.387 . S
C1998 H2002 0.950 . S
C1998 C2007 1.390 . S
C1999 C1998 1.387 . S
C1999 C2001 1.387 . S
H2000 C2007 0.950 . S
C2001 C1999 1.387 . S
C2001 C2003 1.390 . S
C2001 H2005 0.950 . S
H2002 C1998 0.950 . S
C2003 C2001 1.390 . S
C2003 C2004 1.387 . S
C2003 H2006 0.950 . S
C2004 C2003 1.387 . S
C2004 C2007 1.387 . S
H2005 C2001 0.950 . S
H2006 C2003 0.950 . S
C2007 C1998 1.390 . S
C2007 H2000 0.950 . S
C2007 C2004 1.387 . S
C2008 C2009 1.387 . S
C2008 H2012 0.950 . S
C2008 C2017 1.390 . S
C2009 C2008 1.387 . S
C2009 C2011 1.387 . S
H2010 C2017 0.950 . S
C2011 C2009 1.387 . S
C2011 C2013 1.390 . S
C2011 H2015 0.950 . S
H2012 C2008 0.950 . S
C2013 C2011 1.390 . S
C2013 C2014 1.387 . S
C2013 H2016 0.950 . S
C2014 C2013 1.387 . S
C2014 C2017 1.387 . S
H2015 C2011 0.950 . S
H2016 C2013 0.950 . S
C2017 C2008 1.390 . S
C2017 H2010 0.950 . S
C2017 C2014 1.387 . S
C2018 C2019 1.387 . S
C2018 H2022 0.950 . S
C2018 C2027 1.390 . S
C2019 C2018 1.387 . S
C2019 C2021 1.387 . S
H2020 C2027 0.950 . S
C2021 C2019 1.387 . S
C2021 C2023 1.390 . S
C2021 H2025 0.950 . S
H2022 C2018 0.950 . S
C2023 C2021 1.390 . S
C2023 C2024 1.387 . S
C2023 H2026 0.950 . S
C2024 C2023 1.387 . S
C2024 C2027 1.387 . S
H2025 C2021 0.950 . S
H2026 C2023 0.950 . S
C2027 C2018 1.390 . S
C2027 H2020 0.950 . S
C2027 C2024 1.387 . S
C2028 C2029 1.387 . S
C2028 H2032 0.950 . S
C2028 C2037 1.390 . S
C2029 C2028 1.387 . S
C2029 C2031 1.387 . S
H2030 C2037 0.950 . S
C2031 C2029 1.387 . S
C2031 C2033 1.390 . S
C2031 H2035 0.950 . S
H2032 C2028 0.950 . S
C2033 C2031 1.390 . S
C2033 C2034 1.387 . S
C2033 H2036 0.950 . S
C2034 C2033 1.387 . S
C2034 C2037 1.387 . S
H2035 C2031 0.950 . S
H2036 C2033 0.950 . S
C2037 C2028 1.390 . S
C2037 H2030 0.950 . S
C2037 C2034 1.387 . S
C2038 C2039 1.387 . S
C2038 H2042 0.950 . S
C2038 C2047 1.390 . S
C2039 C2038 1.387 . S
C2039 C2041 1.387 . S
H2040 C2047 0.950 . S
C2041 C2039 1.387 . S
C2041 C2043 1.390 . S
C2041 H2045 0.950 . S
H2042 C2038 0.950 . S
C2043 C2041 1.390 . S
C2043 C2044 1.387 . S
C2043 H2046 0.950 . S
C2044 C2043 1.387 . S
C2044 C2047 1.387 . S
H2045 C2041 0.950 . S
H2046 C2043 0.950 . S
C2047 C2038 1.390 . S
C2047 H2040 0.950 . S
C2047 C2044 1.387 . S
C2048 C2049 1.387 . S
C2048 H2052 0.950 . S
C2048 C2057 1.390 . S
C2049 C2048 1.387 . S
C2049 C2051 1.387 . S
H2050 C2057 0.950 . S
C2051 C2049 1.387 . S
C2051 C2053 1.390 . S
C2051 H2055 0.950 . S
H2052 C2048 0.950 . S
C2053 C2051 1.390 . S
C2053 C2054 1.387 . S
C2053 H2056 0.950 . S
C2054 C2053 1.387 . S
C2054 C2057 1.387 . S
H2055 C2051 0.950 . S
H2056 C2053 0.950 . S
C2057 C2048 1.390 . S
C2057 H2050 0.950 . S
C2057 C2054 1.387 . S
C2058 C2059 1.387 . S
C2058 H2062 0.950 1_554 S
C2058 C2067 1.390 . S
C2059 C2058 1.387 . S
C2059 C2061 1.387 . S
H2060 C2067 0.950 . S
C2061 C2059 1.387 . S
C2061 C2063 1.390 . S
C2061 H2065 0.950 . S
H2062 C2058 0.950 1_556 S
C2063 C2061 1.390 . S
C2063 C2064 1.387 . S
C2063 H2066 0.950 . S
C2064 C2063 1.387 . S
C2064 C2067 1.387 . S
H2065 C2061 0.950 . S
H2066 C2063 0.950 . S
C2067 C2058 1.390 . S
C2067 H2060 0.950 . S
C2067 C2064 1.387 . S
C2068 C2069 1.387 . S
C2068 H2072 0.950 . S
C2068 C2077 1.390 . S
C2069 C2068 1.387 . S
C2069 C2071 1.387 . S
H2070 C2077 0.950 . S
C2071 C2069 1.387 . S
C2071 C2073 1.390 . S
C2071 H2075 0.950 . S
H2072 C2068 0.950 . S
C2073 C2071 1.390 . S
C2073 C2074 1.387 . S
C2073 H2076 0.950 . S
C2074 C2073 1.387 . S
C2074 C2077 1.387 . S
H2075 C2071 0.950 . S
H2076 C2073 0.950 . S
C2077 C2068 1.390 . S
C2077 H2070 0.950 . S
C2077 C2074 1.387 . S
C2078 C2079 1.387 . S
C2078 H2082 0.950 . S
C2078 C2087 1.390 . S
C2079 C2078 1.387 . S
C2079 C2081 1.387 . S
H2080 C2087 0.950 . S
C2081 C2079 1.387 . S
C2081 C2083 1.390 . S
C2081 H2085 0.950 . S
H2082 C2078 0.950 . S
C2083 C2081 1.390 . S
C2083 C2084 1.387 . S
C2083 H2086 0.950 . S
C2084 C2083 1.387 . S
C2084 C2087 1.387 . S
H2085 C2081 0.950 . S
H2086 C2083 0.950 . S
C2087 C2078 1.390 . S
C2087 H2080 0.950 . S
C2087 C2084 1.387 . S
C2088 C2089 1.387 . S
C2088 H2092 0.950 . S
C2088 C2097 1.390 . S
C2089 C2088 1.387 . S
C2089 C2091 1.387 . S
H2090 C2097 0.950 . S
C2091 C2089 1.387 . S
C2091 C2093 1.390 . S
C2091 H2095 0.950 . S
H2092 C2088 0.950 . S
C2093 C2091 1.390 . S
C2093 C2094 1.387 . S
C2093 H2096 0.950 . S
C2094 C2093 1.387 . S
C2094 C2097 1.387 . S
H2095 C2091 0.950 . S
H2096 C2093 0.950 . S
C2097 C2088 1.390 . S
C2097 H2090 0.950 . S
C2097 C2094 1.387 . S
C2098 C2099 1.387 . S
C2098 H2102 0.950 . S
C2098 C2107 1.390 . S
C2099 C2098 1.387 . S
C2099 C2101 1.387 . S
H2100 C2107 0.950 . S
C2101 C2099 1.387 . S
C2101 C2103 1.390 . S
C2101 H2105 0.950 1_556 S
H2102 C2098 0.950 . S
C2103 C2101 1.390 . S
C2103 C2104 1.387 . S
C2103 H2106 0.950 . S
C2104 C2103 1.387 . S
C2104 C2107 1.387 . S
H2105 C2101 0.950 1_554 S
H2106 C2103 0.950 . S
C2107 C2098 1.390 . S
C2107 H2100 0.950 . S
C2107 C2104 1.387 . S
C2108 C2109 1.387 . S
C2108 H2112 0.950 . S
C2108 C2117 1.390 . S
C2109 C2108 1.387 . S
C2109 C2111 1.387 . S
H2110 C2117 0.950 . S
C2111 C2109 1.387 . S
C2111 C2113 1.390 . S
C2111 H2115 0.950 . S
H2112 C2108 0.950 . S
C2113 C2111 1.390 . S
C2113 C2114 1.387 . S
C2113 H2116 0.950 . S
C2114 C2113 1.387 . S
C2114 C2117 1.387 . S
H2115 C2111 0.950 . S
H2116 C2113 0.950 . S
C2117 C2108 1.390 . S
C2117 H2110 0.950 . S
C2117 C2114 1.387 . S
C2118 C2119 1.387 . S
C2118 H2122 0.950 . S
C2118 C2127 1.390 . S
C2119 C2118 1.387 . S
C2119 C2121 1.387 . S
H2120 C2127 0.950 . S
C2121 C2119 1.387 . S
C2121 C2123 1.390 . S
C2121 H2125 0.950 . S
H2122 C2118 0.950 . S
C2123 C2121 1.390 . S
C2123 C2124 1.387 . S
C2123 H2126 0.950 . S
C2124 C2123 1.387 . S
C2124 C2127 1.387 . S
H2125 C2121 0.950 . S
H2126 C2123 0.950 . S
C2127 C2118 1.390 . S
C2127 H2120 0.950 . S
C2127 C2124 1.387 . S
C2128 C2129 1.387 . S
C2128 H2132 0.950 . S
C2128 C2137 1.390 . S
C2129 C2128 1.387 . S
C2129 C2131 1.387 . S
H2130 C2137 0.950 . S
C2131 C2129 1.387 . S
C2131 C2133 1.390 . S
C2131 H2135 0.950 . S
H2132 C2128 0.950 . S
C2133 C2131 1.390 . S
C2133 C2134 1.387 . S
C2133 H2136 0.950 . S
C2134 C2133 1.387 . S
C2134 C2137 1.387 . S
H2135 C2131 0.950 . S
H2136 C2133 0.950 . S
C2137 C2128 1.390 . S
C2137 H2130 0.950 . S
C2137 C2134 1.387 . S
C2138 C2139 1.387 . S
C2138 H2142 0.950 . S
C2138 C2147 1.390 . S
C2139 C2138 1.387 . S
C2139 C2141 1.387 . S
H2140 C2147 0.950 . S
C2141 C2139 1.387 . S
C2141 C2143 1.390 . S
C2141 H2145 0.950 . S
H2142 C2138 0.950 . S
C2143 C2141 1.390 . S
C2143 C2144 1.387 . S
C2143 H2146 0.950 . S
C2144 C2143 1.387 . S
C2144 C2147 1.387 . S
H2145 C2141 0.950 . S
H2146 C2143 0.950 . S
C2147 C2138 1.390 . S
C2147 H2140 0.950 . S
C2147 C2144 1.387 . S
C2148 C2149 1.387 . S
C2148 H2152 0.950 . S
C2148 C2157 1.390 . S
C2149 C2148 1.387 . S
C2149 C2151 1.387 . S
H2150 C2157 0.950 . S
C2151 C2149 1.387 . S
C2151 C2153 1.390 . S
C2151 H2155 0.950 . S
H2152 C2148 0.950 . S
C2153 C2151 1.390 . S
C2153 C2154 1.387 . S
C2153 H2156 0.950 . S
C2154 C2153 1.387 . S
C2154 C2157 1.387 . S
H2155 C2151 0.950 . S
H2156 C2153 0.950 . S
C2157 C2148 1.390 . S
C2157 H2150 0.950 . S
C2157 C2154 1.387 . S
C2158 C2159 1.387 . S
C2158 H2162 0.950 . S
C2158 C2167 1.390 . S
C2159 C2158 1.387 . S
C2159 C2161 1.387 . S
H2160 C2167 0.950 . S
C2161 C2159 1.387 . S
C2161 C2163 1.390 . S
C2161 H2165 0.950 . S
H2162 C2158 0.950 . S
C2163 C2161 1.390 . S
C2163 C2164 1.387 . S
C2163 H2166 0.950 . S
C2164 C2163 1.387 . S
C2164 C2167 1.387 . S
H2165 C2161 0.950 . S
H2166 C2163 0.950 . S
C2167 C2158 1.390 . S
C2167 H2160 0.950 . S
C2167 C2164 1.387 . S
C2168 C2169 1.387 . S
C2168 H2172 0.950 . S
C2168 C2177 1.390 . S
C2169 C2168 1.387 . S
C2169 C2171 1.387 . S
H2170 C2177 0.950 . S
C2171 C2169 1.387 . S
C2171 C2173 1.390 . S
C2171 H2175 0.950 . S
H2172 C2168 0.950 . S
C2173 C2171 1.390 . S
C2173 C2174 1.387 . S
C2173 H2176 0.950 . S
C2174 C2173 1.387 . S
C2174 C2177 1.387 . S
H2175 C2171 0.950 . S
H2176 C2173 0.950 . S
C2177 C2168 1.390 . S
C2177 H2170 0.950 . S
C2177 C2174 1.387 . S
C2178 C2179 1.387 . S
C2178 H2182 0.950 . S
C2178 C2187 1.390 . S
C2179 C2178 1.387 . S
C2179 C2181 1.387 . S
H2180 C2187 0.950 . S
C2181 C2179 1.387 . S
C2181 C2183 1.390 . S
C2181 H2185 0.950 . S
H2182 C2178 0.950 . S
C2183 C2181 1.390 . S
C2183 C2184 1.387 . S
C2183 H2186 0.950 . S
C2184 C2183 1.387 . S
C2184 C2187 1.387 . S
H2185 C2181 0.950 . S
H2186 C2183 0.950 . S
C2187 C2178 1.390 . S
C2187 H2180 0.950 . S
C2187 C2184 1.387 . S
C2188 C2189 1.387 . S
C2188 H2192 0.950 . S
C2188 C2197 1.390 . S
C2189 C2188 1.387 . S
C2189 C2191 1.387 . S
H2190 C2197 0.950 . S
C2191 C2189 1.387 . S
C2191 C2193 1.390 . S
C2191 H2195 0.950 . S
H2192 C2188 0.950 . S
C2193 C2191 1.390 . S
C2193 C2194 1.387 . S
C2193 H2196 0.950 . S
C2194 C2193 1.387 . S
C2194 C2197 1.387 . S
H2195 C2191 0.950 . S
H2196 C2193 0.950 . S
C2197 C2188 1.390 . S
C2197 H2190 0.950 . S
C2197 C2194 1.387 . S
C2198 C2199 1.387 . S
C2198 H2202 0.950 . S
C2198 C2207 1.390 . S
C2199 C2198 1.387 . S
C2199 C2201 1.387 . S
H2200 C2207 0.950 . S
C2201 C2199 1.387 . S
C2201 C2203 1.390 . S
C2201 H2205 0.950 . S
H2202 C2198 0.950 . S
C2203 C2201 1.390 . S
C2203 C2204 1.387 . S
C2203 H2206 0.971 . S
C2204 C2203 1.387 . S
C2204 C2207 1.387 . S
H2205 C2201 0.950 . S
H2206 C2203 0.971 . S
C2207 C2198 1.390 . S
C2207 H2200 0.950 . S
C2207 C2204 1.387 . S
C2208 C2209 1.387 . S
C2208 H2212 0.950 . S
C2208 C2217 1.390 . S
C2209 C2208 1.387 . S
C2209 C2211 1.387 . S
H2210 C2217 0.950 . S
C2211 C2209 1.387 . S
C2211 C2213 1.390 . S
C2211 H2215 0.950 . S
H2212 C2208 0.950 . S
C2213 C2211 1.390 . S
C2213 C2214 1.387 . S
C2213 H2216 0.950 . S
C2214 C2213 1.387 . S
C2214 C2217 1.387 . S
H2215 C2211 0.950 . S
H2216 C2213 0.950 . S
C2217 C2208 1.390 . S
C2217 H2210 0.950 . S
C2217 C2214 1.387 . S
C2218 C2219 1.387 . S
C2218 H2222 0.950 . S
C2218 C2227 1.390 . S
C2219 C2218 1.387 . S
C2219 C2221 1.387 . S
H2220 C2227 0.950 . S
C2221 C2219 1.387 . S
C2221 C2223 1.390 . S
C2221 H2225 0.950 . S
H2222 C2218 0.950 . S
C2223 C2221 1.390 . S
C2223 C2224 1.387 . S
C2223 H2226 0.950 . S
C2224 C2223 1.387 . S
C2224 C2227 1.387 . S
H2225 C2221 0.950 . S
H2226 C2223 0.950 . S
C2227 C2218 1.390 . S
C2227 H2220 0.950 . S
C2227 C2224 1.387 . S
C2228 C2229 1.387 . S
C2228 H2232 0.950 . S
C2228 C2237 1.390 . S
C2229 C2228 1.387 . S
C2229 C2231 1.387 . S
H2230 C2237 0.950 . S
C2231 C2229 1.387 . S
C2231 C2233 1.390 . S
C2231 H2235 0.950 . S
H2232 C2228 0.950 . S
C2233 C2231 1.390 . S
C2233 C2234 1.387 . S
C2233 H2236 0.950 . S
C2234 C2233 1.387 . S
C2234 C2237 1.387 . S
H2235 C2231 0.950 . S
H2236 C2233 0.950 . S
C2237 C2228 1.390 . S
C2237 H2230 0.950 . S
C2237 C2234 1.387 . S
C2238 C2239 1.387 . S
C2238 H2242 0.950 . S
C2238 C2247 1.390 . S
C2239 C2238 1.387 . S
C2239 C2241 1.387 . S
H2240 C2247 0.950 . S
C2241 C2239 1.387 . S
C2241 C2243 1.390 . S
C2241 H2245 0.950 . S
H2242 C2238 0.950 . S
C2243 C2241 1.390 . S
C2243 C2244 1.387 . S
C2243 H2246 0.950 . S
C2244 C2243 1.387 . S
C2244 C2247 1.387 . S
H2245 C2241 0.950 . S
H2246 C2243 0.950 . S
C2247 C2238 1.390 . S
C2247 H2240 0.950 . S
C2247 C2244 1.387 . S
C2248 C2249 1.387 . S
C2248 H2252 0.950 . S
C2248 C2257 1.390 . S
C2249 C2248 1.387 . S
C2249 C2251 1.387 . S
H2250 C2257 0.950 . S
C2251 C2249 1.387 . S
C2251 C2253 1.390 . S
C2251 H2255 0.950 . S
H2252 C2248 0.950 . S
C2253 C2251 1.390 . S
C2253 C2254 1.387 . S
C2253 H2256 0.950 . S
C2254 C2253 1.387 . S
C2254 C2257 1.387 . S
H2255 C2251 0.950 . S
H2256 C2253 0.950 . S
C2257 C2248 1.390 . S
C2257 H2250 0.950 . S
C2257 C2254 1.387 . S
C2258 C2259 1.387 . S
C2258 H2262 0.950 . S
C2258 C2267 1.390 . S
C2259 C2258 1.387 . S
C2259 C2261 1.387 . S
H2260 C2267 0.950 . S
C2261 C2259 1.387 . S
C2261 C2263 1.390 . S
C2261 H2265 0.950 . S
H2262 C2258 0.950 . S
C2263 C2261 1.390 . S
C2263 C2264 1.387 . S
C2263 H2266 0.950 . S
C2264 C2263 1.387 . S
C2264 C2267 1.387 . S
H2265 C2261 0.950 . S
H2266 C2263 0.950 . S
C2267 C2258 1.390 . S
C2267 H2260 0.950 . S
C2267 C2264 1.387 . S
C2268 C2269 1.387 . S
C2268 H2272 0.950 . S
C2268 C2277 1.390 . S
C2269 C2268 1.387 . S
C2269 C2271 1.387 . S
H2270 C2277 0.950 . S
C2271 C2269 1.387 . S
C2271 C2273 1.390 . S
C2271 H2275 0.950 . S
H2272 C2268 0.950 . S
C2273 C2271 1.390 . S
C2273 C2274 1.387 . S
C2273 H2276 0.950 . S
C2274 C2273 1.387 . S
C2274 C2277 1.387 . S
H2275 C2271 0.950 . S
H2276 C2273 0.950 . S
C2277 C2268 1.390 . S
C2277 H2270 0.950 . S
C2277 C2274 1.387 . S
C2278 C2279 1.387 . S
C2278 H2282 0.950 . S
C2278 C2287 1.390 . S
C2279 C2278 1.387 . S
C2279 C2281 1.387 . S
H2280 C2287 0.950 . S
C2281 C2279 1.387 . S
C2281 C2283 1.390 . S
C2281 H2285 0.950 . S
H2282 C2278 0.950 . S
C2283 C2281 1.390 . S
C2283 C2284 1.387 . S
C2283 H2286 0.950 . S
C2284 C2283 1.387 . S
C2284 C2287 1.387 . S
H2285 C2281 0.950 . S
H2286 C2283 0.950 . S
C2287 C2278 1.390 . S
C2287 H2280 0.950 . S
C2287 C2284 1.387 . S
C2288 C2289 1.387 . S
C2288 H2292 0.950 . S
C2288 C2297 1.390 . S
C2289 C2288 1.387 . S
C2289 C2291 1.387 . S
H2290 C2297 0.950 . S
C2291 C2289 1.387 . S
C2291 C2293 1.390 . S
C2291 H2295 0.950 . S
H2292 C2288 0.950 . S
C2293 C2291 1.390 . S
C2293 C2294 1.387 . S
C2293 H2296 0.950 . S
C2294 C2293 1.387 . S
C2294 C2297 1.387 . S
H2295 C2291 0.950 . S
H2296 C2293 0.950 . S
C2297 C2288 1.390 . S
C2297 H2290 0.950 . S
C2297 C2294 1.387 . S
C2298 C2299 1.387 . S
C2298 H2302 0.950 . S
C2298 C2307 1.390 . S
C2299 C2298 1.387 . S
C2299 C2301 1.387 . S
H2300 C2307 0.950 . S
C2301 C2299 1.387 . S
C2301 C2303 1.390 . S
C2301 H2305 0.950 . S
H2302 C2298 0.950 . S
C2303 C2301 1.390 . S
C2303 C2304 1.387 . S
C2303 H2306 0.950 . S
C2304 C2303 1.387 . S
C2304 C2307 1.387 . S
H2305 C2301 0.950 . S
H2306 C2303 0.950 . S
C2307 C2298 1.390 . S
C2307 H2300 0.950 . S
C2307 C2304 1.387 . S
C2308 C2309 1.387 . S
C2308 H2312 0.950 . S
C2308 C2317 1.390 . S
C2309 C2308 1.387 . S
C2309 C2311 1.387 . S
H2310 C2317 0.950 . S
C2311 C2309 1.387 . S
C2311 C2313 1.390 . S
C2311 H2315 0.950 . S
H2312 C2308 0.950 . S
C2313 C2311 1.390 . S
C2313 C2314 1.387 . S
C2313 H2316 0.950 . S
C2314 C2313 1.387 . S
C2314 C2317 1.387 . S
H2315 C2311 0.950 . S
H2316 C2313 0.950 . S
C2317 C2308 1.390 . S
C2317 H2310 0.950 . S
C2317 C2314 1.387 . S
C2318 C2319 1.387 . S
C2318 H2322 0.950 . S
C2318 C2327 1.390 . S
C2319 C2318 1.387 . S
C2319 C2321 1.387 . S
H2320 C2327 0.950 . S
C2321 C2319 1.387 . S
C2321 C2323 1.390 . S
C2321 H2325 0.950 . S
H2322 C2318 0.950 . S
C2323 C2321 1.390 . S
C2323 C2324 1.387 . S
C2323 H2326 0.950 . S
C2324 C2323 1.387 . S
C2324 C2327 1.387 . S
H2325 C2321 0.950 . S
H2326 C2323 0.950 . S
C2327 C2318 1.390 . S
C2327 H2320 0.950 . S
C2327 C2324 1.387 . S
C2328 C2329 1.387 . S
C2328 H2332 0.950 . S
C2328 C2337 1.390 . S
C2329 C2328 1.387 . S
C2329 C2331 1.387 . S
H2330 C2337 0.950 . S
C2331 C2329 1.387 . S
C2331 C2333 1.390 . S
C2331 H2335 0.950 . S
H2332 C2328 0.950 . S
C2333 C2331 1.390 . S
C2333 C2334 1.387 . S
C2333 H2336 0.950 . S
C2334 C2333 1.387 . S
C2334 C2337 1.387 . S
H2335 C2331 0.950 . S
H2336 C2333 0.950 . S
C2337 C2328 1.390 . S
C2337 H2330 0.950 . S
C2337 C2334 1.387 . S
C2338 C2339 1.387 . S
C2338 H2342 0.950 . S
C2338 C2347 1.390 . S
C2339 C2338 1.387 . S
C2339 C2341 1.387 . S
H2340 C2347 0.950 . S
C2341 C2339 1.387 . S
C2341 C2343 1.390 . S
C2341 H2345 0.950 . S
H2342 C2338 0.950 . S
C2343 C2341 1.390 . S
C2343 C2344 1.387 . S
C2343 H2346 0.950 . S
C2344 C2343 1.387 . S
C2344 C2347 1.387 . S
H2345 C2341 0.950 . S
H2346 C2343 0.950 . S
C2347 C2338 1.390 . S
C2347 H2340 0.950 . S
C2347 C2344 1.387 . S
C2348 C2349 1.387 . S
C2348 H2352 0.950 . S
C2348 C2357 1.390 . S
C2349 C2348 1.387 . S
C2349 C2351 1.387 . S
H2350 C2357 0.950 . S
C2351 C2349 1.387 . S
C2351 C2353 1.390 . S
C2351 H2355 0.950 . S
H2352 C2348 0.950 . S
C2353 C2351 1.390 . S
C2353 C2354 1.387 . S
C2353 H2356 0.950 . S
C2354 C2353 1.387 . S
C2354 C2357 1.387 . S
H2355 C2351 0.950 . S
H2356 C2353 0.950 . S
C2357 C2348 1.390 . S
C2357 H2350 0.950 . S
C2357 C2354 1.387 . S
C2358 C2359 1.387 . S
C2358 H2362 0.950 . S
C2358 C2367 1.390 . S
C2359 C2358 1.387 . S
C2359 C2361 1.387 . S
H2360 C2367 0.950 . S
C2361 C2359 1.387 . S
C2361 C2363 1.390 . S
C2361 H2365 0.950 . S
H2362 C2358 0.950 . S
C2363 C2361 1.390 . S
C2363 C2364 1.387 . S
C2363 H2366 0.950 . S
C2364 C2363 1.387 . S
C2364 C2367 1.387 . S
H2365 C2361 0.950 . S
H2366 C2363 0.950 . S
C2367 C2358 1.390 . S
C2367 H2360 0.950 . S
C2367 C2364 1.387 . S
C2368 C2369 1.387 . S
C2368 H2372 0.950 . S
C2368 C2377 1.390 . S
C2369 C2368 1.387 . S
C2369 C2371 1.387 . S
H2370 C2377 0.950 . S
C2371 C2369 1.387 . S
C2371 C2373 1.390 . S
C2371 H2375 0.950 . S
H2372 C2368 0.950 . S
C2373 C2371 1.390 . S
C2373 C2374 1.387 . S
C2373 H2376 0.950 . S
C2374 C2373 1.387 . S
C2374 C2377 1.387 . S
H2375 C2371 0.950 . S
H2376 C2373 0.950 . S
C2377 C2368 1.390 . S
C2377 H2370 0.950 . S
C2377 C2374 1.387 . S
C2378 C2379 1.387 . S
C2378 H2382 0.950 . S
C2378 C2387 1.390 . S
C2379 C2378 1.387 . S
C2379 C2381 1.387 . S
H2380 C2387 0.950 . S
C2381 C2379 1.387 . S
C2381 C2383 1.390 . S
C2381 H2385 0.950 . S
H2382 C2378 0.950 . S
C2383 C2381 1.390 . S
C2383 C2384 1.387 . S
C2383 H2386 0.950 . S
C2384 C2383 1.387 . S
C2384 C2387 1.387 . S
H2385 C2381 0.950 . S
H2386 C2383 0.950 . S
C2387 C2378 1.390 . S
C2387 H2380 0.950 . S
C2387 C2384 1.387 . S
C2388 C2389 1.387 . S
C2388 H2392 0.950 . S
C2388 C2397 1.390 . S
C2389 C2388 1.387 . S
C2389 C2391 1.387 . S
H2390 C2397 0.950 . S
C2391 C2389 1.387 . S
C2391 C2393 1.390 . S
C2391 H2395 0.950 . S
H2392 C2388 0.950 . S
C2393 C2391 1.390 . S
C2393 C2394 1.387 . S
C2393 H2396 0.950 . S
C2394 C2393 1.387 . S
C2394 C2397 1.387 . S
H2395 C2391 0.950 . S
H2396 C2393 0.950 . S
C2397 C2388 1.390 . S
C2397 H2390 0.950 . S
C2397 C2394 1.387 . S
C2398 C2399 1.387 . S
C2398 H2402 0.950 . S
C2398 C2407 1.390 . S
C2399 C2398 1.387 . S
C2399 C2401 1.387 . S
H2400 C2407 0.950 . S
C2401 C2399 1.387 . S
C2401 C2403 1.390 . S
C2401 H2405 0.950 . S
H2402 C2398 0.950 . S
C2403 C2401 1.390 . S
C2403 C2404 1.387 . S
C2403 H2406 0.950 . S
C2404 C2403 1.387 . S
C2404 C2407 1.387 . S
H2405 C2401 0.950 . S
H2406 C2403 0.950 . S
C2407 C2398 1.390 . S
C2407 H2400 0.950 . S
C2407 C2404 1.387 . S
C2408 C2409 1.387 . S
C2408 H2412 0.950 . S
C2408 C2417 1.390 . S
C2409 C2408 1.387 . S
C2409 C2411 1.387 . S
H2410 C2417 0.950 . S
C2411 C2409 1.387 . S
C2411 C2413 1.390 . S
C2411 H2415 0.950 . S
H2412 C2408 0.950 . S
C2413 C2411 1.390 . S
C2413 C2414 1.387 . S
C2413 H2416 0.950 . S
C2414 C2413 1.387 . S
C2414 C2417 1.387 . S
H2415 C2411 0.950 . S
H2416 C2413 0.950 . S
C2417 C2408 1.390 . S
C2417 H2410 0.950 . S
C2417 C2414 1.387 . S
C2418 C2419 1.387 . S
C2418 H2422 0.950 . S
C2418 C2427 1.390 . S
C2419 C2418 1.387 . S
C2419 C2421 1.387 . S
H2420 C2427 0.950 . S
C2421 C2419 1.387 . S
C2421 C2423 1.390 . S
C2421 H2425 0.950 . S
H2422 C2418 0.950 . S
C2423 C2421 1.390 . S
C2423 C2424 1.387 . S
C2423 H2426 0.950 . S
C2424 C2423 1.387 . S
C2424 C2427 1.387 . S
H2425 C2421 0.950 . S
H2426 C2423 0.950 . S
C2427 C2418 1.390 . S
C2427 H2420 0.950 . S
C2427 C2424 1.387 . S
C2428 C2429 1.387 . S
C2428 H2432 0.950 . S
C2428 C2437 1.390 . S
C2429 C2428 1.387 . S
C2429 C2431 1.387 . S
H2430 C2437 0.950 . S
C2431 C2429 1.387 . S
C2431 C2433 1.390 . S
C2431 H2435 0.950 . S
H2432 C2428 0.950 . S
C2433 C2431 1.390 . S
C2433 C2434 1.387 . S
C2433 H2436 0.950 . S
C2434 C2433 1.387 . S
C2434 C2437 1.387 . S
H2435 C2431 0.950 . S
H2436 C2433 0.950 . S
C2437 C2428 1.390 . S
C2437 H2430 0.950 . S
C2437 C2434 1.387 . S
C2438 C2439 1.387 . S
C2438 H2442 0.950 . S
C2438 C2447 1.390 . S
C2439 C2438 1.387 . S
C2439 C2441 1.387 . S
H2440 C2447 0.950 . S
C2441 C2439 1.387 . S
C2441 C2443 1.390 . S
C2441 H2445 0.950 . S
H2442 C2438 0.950 . S
C2443 C2441 1.390 . S
C2443 C2444 1.387 . S
C2443 H2446 0.950 . S
C2444 C2443 1.387 . S
C2444 C2447 1.387 . S
H2445 C2441 0.950 . S
H2446 C2443 0.950 . S
C2447 C2438 1.390 . S
C2447 H2440 0.950 . S
C2447 C2444 1.387 . S
C2448 C2449 1.387 . S
C2448 H2452 0.950 . S
C2448 C2457 1.390 . S
C2449 C2448 1.387 . S
C2449 C2451 1.387 . S
H2450 C2457 0.950 . S
C2451 C2449 1.387 . S
C2451 C2453 1.390 . S
C2451 H2455 0.950 . S
H2452 C2448 0.950 . S
C2453 C2451 1.390 . S
C2453 C2454 1.387 . S
C2453 H2456 0.950 . S
C2454 C2453 1.387 . S
C2454 C2457 1.387 . S
H2455 C2451 0.950 . S
H2456 C2453 0.950 . S
C2457 C2448 1.390 . S
C2457 H2450 0.950 . S
C2457 C2454 1.387 . S
C2458 C2459 1.387 . S
C2458 H2462 0.950 . S
C2458 C2467 1.390 . S
C2459 C2458 1.387 . S
C2459 C2461 1.387 . S
H2460 C2467 0.950 . S
C2461 C2459 1.387 . S
C2461 C2463 1.390 . S
C2461 H2465 0.950 . S
H2462 C2458 0.950 . S
C2463 C2461 1.390 . S
C2463 C2464 1.387 . S
C2463 H2466 0.950 . S
C2464 C2463 1.387 . S
C2464 C2467 1.387 . S
H2465 C2461 0.950 . S
H2466 C2463 0.950 . S
C2467 C2458 1.390 . S
C2467 H2460 0.950 . S
C2467 C2464 1.387 . S
C2468 C2469 1.387 . S
C2468 H2472 0.950 . S
C2468 C2477 1.390 . S
C2469 C2468 1.387 . S
C2469 C2471 1.387 . S
H2470 C2477 0.950 . S
C2471 C2469 1.387 . S
C2471 C2473 1.390 . S
C2471 H2475 0.950 . S
H2472 C2468 0.950 . S
C2473 C2471 1.390 . S
C2473 C2474 1.387 . S
C2473 H2476 0.950 . S
C2474 C2473 1.387 . S
C2474 C2477 1.387 . S
H2475 C2471 0.950 . S
H2476 C2473 0.950 . S
C2477 C2468 1.390 . S
C2477 H2470 0.950 . S
C2477 C2474 1.387 . S
C2478 C2479 1.387 . S
C2478 H2482 0.950 . S
C2478 C2487 1.390 . S
C2479 C2478 1.387 . S
C2479 C2481 1.387 . S
H2480 C2487 0.950 . S
C2481 C2479 1.387 . S
C2481 C2483 1.390 . S
C2481 H2485 0.950 . S
H2482 C2478 0.950 . S
C2483 C2481 1.390 . S
C2483 C2484 1.387 . S
C2483 H2486 0.950 . S
C2484 C2483 1.387 . S
C2484 C2487 1.387 . S
H2485 C2481 0.950 . S
H2486 C2483 0.950 . S
C2487 C2478 1.390 . S
C2487 H2480 0.950 . S
C2487 C2484 1.387 . S
C2488 C2489 1.387 . S
C2488 H2492 0.950 . S
C2488 C2497 1.390 . S
C2489 C2488 1.387 . S
C2489 C2491 1.387 . S
H2490 C2497 0.950 . S
C2491 C2489 1.387 . S
C2491 C2493 1.390 . S
C2491 H2495 0.950 . S
H2492 C2488 0.950 . S
C2493 C2491 1.390 . S
C2493 C2494 1.387 . S
C2493 H2496 0.950 . S
C2494 C2493 1.387 . S
C2494 C2497 1.387 . S
H2495 C2491 0.950 . S
H2496 C2493 0.950 . S
C2497 C2488 1.390 . S
C2497 H2490 0.950 . S
C2497 C2494 1.387 . S
C2498 C2499 1.387 . S
C2498 H2502 0.950 . S
C2498 C2507 1.390 . S
C2499 C2498 1.387 . S
C2499 C2501 1.387 . S
H2500 C2507 0.950 . S
C2501 C2499 1.387 . S
C2501 C2503 1.390 . S
C2501 H2505 0.950 . S
H2502 C2498 0.950 . S
C2503 C2501 1.390 . S
C2503 C2504 1.387 . S
C2503 H2506 0.950 . S
C2504 C2503 1.387 . S
C2504 C2507 1.387 . S
H2505 C2501 0.950 . S
H2506 C2503 0.950 . S
C2507 C2498 1.390 . S
C2507 H2500 0.950 . S
C2507 C2504 1.387 . S
C2508 C2509 1.387 . S
C2508 H2512 0.950 . S
C2508 C2517 1.390 . S
C2509 C2508 1.387 . S
C2509 C2511 1.387 . S
H2510 C2517 0.950 . S
C2511 C2509 1.387 . S
C2511 C2513 1.390 . S
C2511 H2515 0.950 . S
H2512 C2508 0.950 . S
C2513 C2511 1.390 . S
C2513 C2514 1.387 . S
C2513 H2516 0.950 . S
C2514 C2513 1.387 . S
C2514 C2517 1.387 . S
H2515 C2511 0.950 . S
H2516 C2513 0.950 . S
C2517 C2508 1.390 . S
C2517 H2510 0.950 . S
C2517 C2514 1.387 . S
C2518 C2519 1.387 . S
C2518 H2522 0.950 . S
C2518 C2527 1.390 . S
C2519 C2518 1.387 . S
C2519 C2521 1.387 . S
H2520 C2527 0.950 . S
C2521 C2519 1.387 . S
C2521 C2523 1.390 . S
C2521 H2525 0.950 . S
H2522 C2518 0.950 . S
C2523 C2521 1.390 . S
C2523 C2524 1.387 . S
C2523 H2526 0.950 . S
C2524 C2523 1.387 . S
C2524 C2527 1.387 . S
H2525 C2521 0.950 . S
H2526 C2523 0.950 . S
C2527 C2518 1.390 . S
C2527 H2520 0.950 . S
C2527 C2524 1.387 . S
C2528 C2529 1.387 . S
C2528 H2532 0.950 . S
C2528 C2537 1.390 . S
C2529 C2528 1.387 . S
C2529 C2531 1.387 . S
H2530 C2537 0.950 . S
C2531 C2529 1.387 . S
C2531 C2533 1.390 . S
C2531 H2535 0.950 . S
H2532 C2528 0.950 . S
C2533 C2531 1.390 . S
C2533 C2534 1.387 . S
C2533 H2536 0.950 . S
C2534 C2533 1.387 . S
C2534 C2537 1.387 . S
H2535 C2531 0.950 . S
H2536 C2533 0.950 . S
C2537 C2528 1.390 . S
C2537 H2530 0.950 . S
C2537 C2534 1.387 . S
C2538 C2539 1.387 . S
C2538 H2542 0.950 . S
C2538 C2547 1.390 . S
C2539 C2538 1.387 . S
C2539 C2541 1.387 . S
H2540 C2547 0.950 . S
C2541 C2539 1.387 . S
C2541 C2543 1.390 . S
C2541 H2545 0.950 . S
H2542 C2538 0.950 . S
C2543 C2541 1.390 . S
C2543 C2544 1.387 . S
C2543 H2546 0.950 . S
C2544 C2543 1.387 . S
C2544 C2547 1.387 . S
H2545 C2541 0.950 . S
H2546 C2543 0.950 . S
C2547 C2538 1.390 . S
C2547 H2540 0.950 . S
C2547 C2544 1.387 . S
C2548 C2549 1.387 . S
C2548 H2552 0.950 . S
C2548 C2557 1.390 . S
C2549 C2548 1.387 . S
C2549 C2551 1.387 . S
H2550 C2557 0.950 . S
C2551 C2549 1.387 . S
C2551 C2553 1.390 . S
C2551 H2555 0.950 . S
H2552 C2548 0.950 . S
C2553 C2551 1.390 . S
C2553 C2554 1.387 . S
C2553 H2556 0.950 . S
C2554 C2553 1.387 . S
C2554 C2557 1.387 . S
H2555 C2551 0.950 . S
H2556 C2553 0.950 . S
C2557 C2548 1.390 . S
C2557 H2550 0.950 . S
C2557 C2554 1.387 . S
C2558 C2559 1.387 . S
C2558 H2562 0.950 . S
C2558 C2567 1.390 . S
C2559 C2558 1.387 . S
C2559 C2561 1.387 . S
H2560 C2567 0.950 . S
C2561 C2559 1.387 . S
C2561 C2563 1.390 . S
C2561 H2565 0.950 . S
H2562 C2558 0.950 . S
C2563 C2561 1.390 . S
C2563 C2564 1.387 . S
C2563 H2566 0.950 . S
C2564 C2563 1.387 . S
C2564 C2567 1.387 . S
H2565 C2561 0.950 . S
H2566 C2563 0.950 . S
C2567 C2558 1.390 . S
C2567 H2560 0.950 . S
C2567 C2564 1.387 . S
C2568 C2569 1.387 . S
C2568 H2572 0.950 . S
C2568 C2577 1.390 . S
C2569 C2568 1.387 . S
C2569 C2571 1.387 . S
H2570 C2577 0.950 . S
C2571 C2569 1.387 . S
C2571 C2573 1.390 . S
C2571 H2575 0.950 . S
H2572 C2568 0.950 . S
C2573 C2571 1.390 . S
C2573 C2574 1.387 . S
C2573 H2576 0.950 . S
C2574 C2573 1.387 . S
C2574 C2577 1.387 . S
H2575 C2571 0.950 . S
H2576 C2573 0.950 . S
C2577 C2568 1.390 . S
C2577 H2570 0.950 . S
C2577 C2574 1.387 . S
C2578 C2579 1.387 . S
C2578 H2582 0.950 . S
C2578 C2587 1.390 . S
C2579 C2578 1.387 . S
C2579 C2581 1.387 . S
H2580 C2587 0.950 . S
C2581 C2579 1.387 . S
C2581 C2583 1.390 . S
C2581 H2585 0.950 . S
H2582 C2578 0.950 . S
C2583 C2581 1.390 . S
C2583 C2584 1.387 . S
C2583 H2586 0.950 . S
C2584 C2583 1.387 . S
C2584 C2587 1.387 . S
H2585 C2581 0.950 . S
H2586 C2583 0.950 . S
C2587 C2578 1.390 . S
C2587 H2580 0.950 . S
C2587 C2584 1.387 . S
C2588 C2589 1.387 . S
C2588 H2592 0.950 . S
C2588 C2597 1.390 . S
C2589 C2588 1.387 . S
C2589 C2591 1.387 . S
H2590 C2597 0.950 . S
C2591 C2589 1.387 . S
C2591 C2593 1.390 . S
C2591 H2595 0.950 . S
H2592 C2588 0.950 . S
C2593 C2591 1.390 . S
C2593 C2594 1.387 . S
C2593 H2596 0.950 . S
C2594 C2593 1.387 . S
C2594 C2597 1.387 . S
H2595 C2591 0.950 . S
H2596 C2593 0.950 . S
C2597 C2588 1.390 . S
C2597 H2590 0.950 . S
C2597 C2594 1.387 . S
C2598 C2599 1.387 . S
C2598 H2602 0.950 . S
C2598 C2607 1.390 . S
C2599 C2598 1.387 . S
C2599 C2601 1.387 . S
H2600 C2607 0.950 . S
C2601 C2599 1.387 . S
C2601 C2603 1.390 . S
C2601 H2605 0.950 . S
H2602 C2598 0.950 . S
C2603 C2601 1.390 . S
C2603 C2604 1.387 . S
C2603 H2606 0.950 . S
C2604 C2603 1.387 . S
C2604 C2607 1.387 . S
H2605 C2601 0.950 . S
H2606 C2603 0.950 . S
C2607 C2598 1.390 . S
C2607 H2600 0.950 . S
C2607 C2604 1.387 . S
C2608 C2609 1.387 . S
C2608 H2612 0.950 . S
C2608 C2617 1.390 . S
C2609 C2608 1.387 . S
C2609 C2611 1.387 . S
H2610 C2617 0.950 . S
C2611 C2609 1.387 . S
C2611 C2613 1.390 . S
C2611 H2615 0.950 . S
H2612 C2608 0.950 . S
C2613 C2611 1.390 . S
C2613 C2614 1.387 . S
C2613 H2616 0.950 . S
C2614 C2613 1.387 . S
C2614 C2617 1.387 . S
H2615 C2611 0.950 . S
H2616 C2613 0.950 . S
C2617 C2608 1.390 . S
C2617 H2610 0.950 . S
C2617 C2614 1.387 . S
C2618 C2619 1.387 . S
C2618 H2622 0.950 . S
C2618 C2627 1.390 . S
C2619 C2618 1.387 . S
C2619 C2621 1.387 . S
H2620 C2627 0.950 . S
C2621 C2619 1.387 . S
C2621 C2623 1.390 . S
C2621 H2625 0.950 . S
H2622 C2618 0.950 . S
C2623 C2621 1.390 . S
C2623 C2624 1.387 . S
C2623 H2626 0.950 . S
C2624 C2623 1.387 . S
C2624 C2627 1.387 . S
H2625 C2621 0.950 . S
H2626 C2623 0.950 . S
C2627 C2618 1.390 . S
C2627 H2620 0.950 . S
C2627 C2624 1.387 . S
C2628 C2629 1.387 . S
C2628 H2632 0.950 . S
C2628 C2637 1.390 . S
C2629 C2628 1.387 . S
C2629 C2631 1.387 . S
H2630 C2637 0.950 . S
C2631 C2629 1.387 . S
C2631 C2633 1.390 . S
C2631 H2635 0.950 . S
H2632 C2628 0.950 . S
C2633 C2631 1.390 . S
C2633 C2634 1.387 . S
C2633 H2636 0.950 . S
C2634 C2633 1.387 . S
C2634 C2637 1.387 . S
H2635 C2631 0.950 . S
H2636 C2633 0.950 . S
C2637 C2628 1.390 . S
C2637 H2630 0.950 . S
C2637 C2634 1.387 . S
C2638 C2639 1.387 . S
C2638 H2642 0.950 . S
C2638 C2647 1.390 . S
C2639 C2638 1.387 . S
C2639 C2641 1.387 . S
H2640 C2647 0.950 . S
C2641 C2639 1.387 . S
C2641 C2643 1.390 . S
C2641 H2645 0.950 . S
H2642 C2638 0.950 . S
C2643 C2641 1.390 . S
C2643 C2644 1.387 . S
C2643 H2646 0.950 . S
C2644 C2643 1.387 . S
C2644 C2647 1.387 . S
H2645 C2641 0.950 . S
H2646 C2643 0.950 . S
C2647 C2638 1.390 . S
C2647 H2640 0.950 . S
C2647 C2644 1.387 . S
C2648 C2649 1.387 . S
C2648 H2652 0.950 . S
C2648 C2657 1.390 . S
C2649 C2648 1.387 . S
C2649 C2651 1.387 . S
H2650 C2657 0.950 . S
C2651 C2649 1.387 . S
C2651 C2653 1.390 . S
C2651 H2655 0.950 . S
H2652 C2648 0.950 . S
C2653 C2651 1.390 . S
C2653 C2654 1.387 . S
C2653 H2656 0.950 . S
C2654 C2653 1.387 . S
C2654 C2657 1.387 . S
H2655 C2651 0.950 . S
H2656 C2653 0.950 . S
C2657 C2648 1.390 . S
C2657 H2650 0.950 . S
C2657 C2654 1.387 . S
C2658 C2659 1.387 . S
C2658 H2662 0.950 . S
C2658 C2667 1.390 . S
C2659 C2658 1.387 . S
C2659 C2661 1.387 . S
H2660 C2667 0.950 . S
C2661 C2659 1.387 . S
C2661 C2663 1.390 . S
C2661 H2665 0.950 . S
H2662 C2658 0.950 . S
C2663 C2661 1.390 . S
C2663 C2664 1.387 . S
C2663 H2666 0.950 . S
C2664 C2663 1.387 . S
C2664 C2667 1.387 . S
H2665 C2661 0.950 . S
H2666 C2663 0.950 . S
C2667 C2658 1.390 . S
C2667 H2660 0.950 . S
C2667 C2664 1.387 . S
C2668 C2669 1.387 . S
C2668 H2672 0.950 . S
C2668 C2677 1.390 . S
C2669 C2668 1.387 . S
C2669 C2671 1.387 . S
H2670 C2677 0.950 . S
C2671 C2669 1.387 . S
C2671 C2673 1.390 . S
C2671 H2675 0.950 . S
H2672 C2668 0.950 . S
C2673 C2671 1.390 . S
C2673 C2674 1.387 . S
C2673 H2676 0.950 . S
C2674 C2673 1.387 . S
C2674 C2677 1.387 . S
H2675 C2671 0.950 . S
H2676 C2673 0.950 . S
C2677 C2668 1.390 . S
C2677 H2670 0.950 . S
C2677 C2674 1.387 . S
C2678 C2679 1.387 . S
C2678 H2682 0.950 . S
C2678 C2687 1.390 . S
C2679 C2678 1.387 . S
C2679 C2681 1.387 . S
H2680 C2687 0.950 . S
C2681 C2679 1.387 . S
C2681 C2683 1.390 . S
C2681 H2685 0.950 . S
H2682 C2678 0.950 . S
C2683 C2681 1.390 . S
C2683 C2684 1.387 . S
C2683 H2686 0.950 . S
C2684 C2683 1.387 . S
C2684 C2687 1.387 . S
H2685 C2681 0.950 . S
H2686 C2683 0.950 . S
C2687 C2678 1.390 . S
C2687 H2680 0.950 . S
C2687 C2684 1.387 . S
C2688 C2689 1.387 1_655 S
C2688 H2692 0.950 1_655 S
C2688 C2697 1.390 . S
C2689 C2688 1.387 1_455 S
C2689 C2691 1.387 1_455 S
H2690 C2697 0.950 . S
C2691 C2689 1.387 1_655 S
C2691 C2693 1.390 . S
C2691 H2695 0.950 1_655 S
H2692 C2688 0.950 1_455 S
C2693 C2691 1.390 . S
C2693 C2694 1.387 . S
C2693 H2696 0.950 . S
C2694 C2693 1.387 . S
C2694 C2697 1.387 . S
H2695 C2691 0.950 1_455 S
H2696 C2693 0.950 . S
C2697 C2688 1.390 . S
C2697 H2690 0.950 . S
C2697 C2694 1.387 . S
C2698 C2699 1.387 . S
C2698 H2702 0.950 . S
C2698 C2707 1.390 . S
C2699 C2698 1.387 . S
C2699 C2701 1.387 . S
H2700 C2707 0.950 . S
C2701 C2699 1.387 . S
C2701 C2703 1.390 . S
C2701 H2705 0.950 . S
H2702 C2698 0.950 . S
C2703 C2701 1.390 . S
C2703 C2704 1.387 . S
C2703 H2706 0.950 . S
C2704 C2703 1.387 . S
C2704 C2707 1.387 . S
H2705 C2701 0.950 . S
H2706 C2703 0.950 . S
C2707 C2698 1.390 . S
C2707 H2700 0.950 . S
C2707 C2704 1.387 . S
C2708 C2709 1.387 . S
C2708 H2712 0.950 . S
C2708 C2717 1.390 . S
C2709 C2708 1.387 . S
C2709 C2711 1.387 . S
H2710 C2717 0.950 . S
C2711 C2709 1.387 . S
C2711 C2713 1.390 . S
C2711 H2715 0.950 . S
H2712 C2708 0.950 . S
C2713 C2711 1.390 . S
C2713 C2714 1.387 . S
C2713 H2716 0.950 . S
C2714 C2713 1.387 . S
C2714 C2717 1.387 . S
H2715 C2711 0.950 . S
H2716 C2713 0.950 . S
C2717 C2708 1.390 . S
C2717 H2710 0.950 . S
C2717 C2714 1.387 . S
C2718 C2719 1.387 . S
C2718 H2722 0.950 . S
C2718 C2727 1.390 1_556 S
C2719 C2718 1.387 . S
C2719 C2721 1.387 1_556 S
H2720 C2727 0.950 . S
C2721 C2719 1.387 1_554 S
C2721 C2723 1.390 . S
C2721 H2725 0.950 . S
H2722 C2718 0.950 . S
C2723 C2721 1.390 . S
C2723 C2724 1.387 . S
C2723 H2726 0.950 . S
C2724 C2723 1.387 . S
C2724 C2727 1.387 . S
H2725 C2721 0.950 . S
H2726 C2723 0.950 . S
C2727 C2718 1.390 1_554 S
C2727 H2720 0.950 . S
C2727 C2724 1.387 . S
C2728 C2729 1.387 . S
C2728 H2732 0.950 . S
C2728 C2737 1.390 . S
C2729 C2728 1.387 . S
C2729 C2731 1.387 . S
H2730 C2737 0.950 1_455 S
C2731 C2729 1.387 . S
C2731 C2733 1.390 . S
C2731 H2735 0.950 . S
H2732 C2728 0.950 . S
C2733 C2731 1.390 . S
C2733 C2734 1.387 1_655 S
C2733 H2736 0.950 1_655 S
C2734 C2733 1.387 1_455 S
C2734 C2737 1.387 1_455 S
H2735 C2731 0.950 . S
H2736 C2733 0.950 1_455 S
C2737 C2728 1.390 . S
C2737 H2730 0.950 1_655 S
C2737 C2734 1.387 1_655 S
C2738 C2739 1.387 . S
C2738 H2742 0.950 . S
C2738 C2747 1.390 . S
C2739 C2738 1.387 . S
C2739 C2741 1.387 . S
H2740 C2747 0.950 . S
C2741 C2739 1.387 . S
C2741 C2743 1.390 . S
C2741 H2745 0.950 . S
H2742 C2738 0.950 . S
C2743 C2741 1.390 . S
C2743 C2744 1.387 . S
C2743 H2746 0.950 . S
C2744 C2743 1.387 . S
C2744 C2747 1.387 . S
H2745 C2741 0.950 . S
H2746 C2743 0.950 . S
C2747 C2738 1.390 . S
C2747 H2740 0.950 . S
C2747 C2744 1.387 . S
C2748 C2749 1.387 . S
C2748 H2752 0.950 . S
C2748 C2757 1.390 . S
C2749 C2748 1.387 . S
C2749 C2751 1.387 . S
H2750 C2757 0.950 . S
C2751 C2749 1.387 . S
C2751 C2753 1.390 . S
C2751 H2755 0.950 . S
H2752 C2748 0.950 . S
C2753 C2751 1.390 . S
C2753 C2754 1.387 . S
C2753 H2756 0.950 . S
C2754 C2753 1.387 . S
C2754 C2757 1.387 . S
H2755 C2751 0.950 . S
H2756 C2753 0.950 . S
C2757 C2748 1.390 . S
C2757 H2750 0.950 . S
C2757 C2754 1.387 . S
C2758 C2759 1.387 . S
C2758 H2762 0.950 . S
C2758 C2767 1.422 . S
C2759 C2758 1.387 . S
C2759 C2761 1.387 . S
H2760 C2767 0.934 1_554 S
C2761 C2759 1.387 . S
C2761 C2763 1.390 . S
C2761 H2765 0.950 . S
H2762 C2758 0.950 . S
C2763 C2761 1.390 . S
C2763 C2764 1.387 1_556 S
C2763 H2766 0.950 1_556 S
C2764 C2763 1.387 1_554 S
C2764 C2767 1.373 1_554 S
H2765 C2761 0.950 . S
H2766 C2763 0.950 1_554 S
C2767 C2758 1.422 . S
C2767 H2760 0.934 1_556 S
C2767 C2764 1.373 1_556 S
C2768 C2769 1.387 1_565 S
C2768 H2772 0.961 . S
C2768 C2777 1.390 . S
C2769 C2768 1.387 1_545 S
C2769 C2771 1.387 . S
H2770 C2777 0.950 . S
C2771 C2769 1.387 . S
C2771 C2773 1.390 1_545 S
C2771 H2775 0.950 . S
H2772 C2768 0.961 . S
C2773 C2771 1.390 1_565 S
C2773 C2774 1.387 . S
C2773 H2776 0.950 . S
C2774 C2773 1.387 . S
C2774 C2777 1.387 . S
H2775 C2771 0.950 . S
H2776 C2773 0.950 . S
C2777 C2768 1.390 . S
C2777 H2770 0.950 . S
C2777 C2774 1.387 . S
C2778 C2779 1.387 . S
C2778 H2782 0.950 . S
C2778 C2787 1.390 . S
C2779 C2778 1.387 . S
C2779 C2781 1.387 . S
H2780 C2787 0.950 1_565 S
C2781 C2779 1.387 . S
C2781 C2783 1.411 . S
C2781 H2785 0.950 . S
H2782 C2778 0.950 . S
C2783 C2781 1.411 . S
C2783 C2784 1.378 1_545 S
C2783 H2786 0.939 1_545 S
C2784 C2783 1.378 1_565 S
C2784 C2787 1.387 1_565 S
H2785 C2781 0.950 . S
H2786 C2783 0.939 1_565 S
C2787 C2778 1.390 . S
C2787 H2780 0.950 1_545 S
C2787 C2784 1.387 1_545 S
C2788 C2789 1.379 1_545 S
C2788 H2792 0.940 1_545 S
C2788 C2797 1.409 . S
C2789 C2788 1.379 1_565 S
C2789 C2791 1.387 1_565 S
H2790 C2797 0.950 . S
C2791 C2789 1.387 1_545 S
C2791 C2793 1.390 . S
C2791 H2795 0.950 1_545 S
H2792 C2788 0.940 1_565 S
C2793 C2791 1.390 . S
C2793 C2794 1.387 . S
C2793 H2796 0.950 . S
C2794 C2793 1.387 . S
C2794 C2797 1.387 . S
H2795 C2791 0.950 1_565 S
H2796 C2793 0.950 . S
C2797 C2788 1.409 . S
C2797 H2790 0.950 . S
C2797 C2794 1.387 . S
C2798 C2799 1.387 1_565 S
C2798 H2802 0.950 1_565 S
C2798 C2807 1.390 . S
C2799 C2798 1.387 1_545 S
C2799 C2801 1.376 1_545 S
H2800 C2807 0.950 . S
C2801 C2799 1.376 1_565 S
C2801 C2803 1.416 . S
C2801 H2805 0.937 1_565 S
H2802 C2798 0.950 1_545 S
C2803 C2801 1.416 . S
C2803 C2804 1.387 . S
C2803 H2806 0.950 . S
C2804 C2803 1.387 . S
C2804 C2807 1.387 . S
H2805 C2801 0.937 1_545 S
H2806 C2803 0.950 . S
C2807 C2798 1.390 . S
C2807 H2800 0.950 . S
C2807 C2804 1.387 . S
C2808 C2809 1.387 . S
C2808 H2812 0.950 . S
C2808 C2817 1.427 . S
C2809 C2808 1.387 . S
C2809 C2811 1.387 . S
H2810 C2817 0.932 1_556 S
C2811 C2809 1.387 . S
C2811 C2813 1.390 . S
C2811 H2815 0.950 . S
H2812 C2808 0.950 . S
C2813 C2811 1.390 . S
C2813 C2814 1.387 1_554 S
C2813 H2816 0.950 1_554 S
C2814 C2813 1.387 1_556 S
C2814 C2817 1.371 1_556 S
H2815 C2811 0.950 . S
H2816 C2813 0.950 1_556 S
C2817 C2808 1.427 . S
C2817 H2810 0.932 1_554 S
C2817 C2814 1.371 1_554 S
C2818 C2819 1.387 . S
C2818 H2822 0.950 . S
C2818 C2827 1.390 . S
C2819 C2818 1.387 . S
C2819 C2821 1.387 . S
H2820 C2827 0.950 1_655 S
C2821 C2819 1.387 . S
C2821 C2823 1.393 . S
C2821 H2825 0.950 . S
H2822 C2818 0.950 . S
C2823 C2821 1.393 . S
C2823 C2824 1.386 1_455 S
C2823 H2826 0.948 1_455 S
C2824 C2823 1.386 1_655 S
C2824 C2827 1.387 1_655 S
H2825 C2821 0.950 . S
H2826 C2823 0.948 1_655 S
C2827 C2818 1.390 . S
C2827 H2820 0.950 1_455 S
C2827 C2824 1.387 1_455 S
C2828 C2829 1.387 . S
C2828 H2832 0.950 . S
C2828 C2837 1.390 . S
C2829 C2828 1.387 . S
C2829 C2831 1.387 . S
H2830 C2837 0.950 . S
C2831 C2829 1.387 . S
C2831 C2833 1.390 . S
C2831 H2835 0.950 . S
H2832 C2828 0.950 . S
C2833 C2831 1.390 . S
C2833 C2834 1.387 . S
C2833 H2836 0.950 . S
C2834 C2833 1.387 . S
C2834 C2837 1.387 . S
H2835 C2831 0.950 . S
H2836 C2833 0.950 . S
C2837 C2828 1.390 . S
C2837 H2830 0.950 . S
C2837 C2834 1.387 . S
C2838 C2839 1.372 1_455 S
C2838 H2842 0.933 1_455 S
C2838 C2847 1.425 . S
C2839 C2838 1.372 1_655 S
C2839 C2841 1.387 1_655 S
H2840 C2847 0.950 . S
C2841 C2839 1.387 1_455 S
C2841 C2843 1.390 . S
C2841 H2845 0.950 1_455 S
H2842 C2838 0.933 1_655 S
C2843 C2841 1.390 . S
C2843 C2844 1.387 . S
C2843 H2846 0.950 . S
C2844 C2843 1.387 . S
C2844 C2847 1.387 . S
H2845 C2841 0.950 1_655 S
H2846 C2843 0.950 . S
C2847 C2838 1.425 . S
C2847 H2840 0.950 . S
C2847 C2844 1.387 . S
C2848 C2849 1.387 . S
C2848 H2852 0.950 . S
C2848 C2857 1.390 . S
C2849 C2848 1.387 . S
C2849 C2851 1.387 . S
H2850 C2857 0.950 . S
C2851 C2849 1.387 . S
C2851 C2853 1.390 . S
C2851 H2855 0.950 . S
H2852 C2848 0.950 . S
C2853 C2851 1.390 . S
C2853 C2854 1.387 . S
C2853 H2856 0.950 . S
C2854 C2853 1.387 . S
C2854 C2857 1.387 . S
H2855 C2851 0.950 . S
H2856 C2853 0.950 . S
C2857 C2848 1.390 . S
C2857 H2850 0.950 . S
C2857 C2854 1.387 . S
C2858 C2859 1.387 1_455 S
C2858 H2862 0.950 1_455 S
C2858 C2867 1.390 . S
C2859 C2858 1.387 1_655 S
C2859 C2861 1.387 . S
H2860 C2867 0.950 . S
C2861 C2859 1.387 . S
C2861 C2863 1.392 1_655 S
C2861 H2865 0.949 . S
H2862 C2858 0.950 1_655 S
C2863 C2861 1.392 1_455 S
C2863 C2864 1.387 . S
C2863 H2866 0.950 . S
C2864 C2863 1.387 . S
C2864 C2867 1.387 . S
H2865 C2861 0.949 . S
H2866 C2863 0.950 . S
C2867 C2858 1.390 . S
C2867 H2860 0.950 . S
C2867 C2864 1.387 . S
C2868 C2869 1.387 . S
C2868 H2872 0.950 . S
C2868 C2877 1.390 . S
C2869 C2868 1.387 . S
C2869 C2871 1.387 . S
H2870 C2877 0.950 . S
C2871 C2869 1.387 . S
C2871 C2873 1.390 . S
C2871 H2875 0.950 . S
H2872 C2868 0.950 . S
C2873 C2871 1.390 . S
C2873 C2874 1.387 . S
C2873 H2876 0.950 . S
C2874 C2873 1.387 . S
C2874 C2877 1.387 . S
H2875 C2871 0.950 . S
H2876 C2873 0.950 . S
C2877 C2868 1.390 . S
C2877 H2870 0.950 . S
C2877 C2874 1.387 . S
C2878 C2879 1.387 . S
C2878 H2882 0.950 . S
C2878 C2887 1.390 . S
C2879 C2878 1.387 . S
C2879 C2881 1.387 . S
H2880 C2887 0.950 . S
C2881 C2879 1.387 . S
C2881 C2883 1.390 . S
C2881 H2885 0.950 . S
H2882 C2878 0.950 . S
C2883 C2881 1.390 . S
C2883 C2884 1.387 . S
C2883 H2886 0.950 . S
C2884 C2883 1.387 . S
C2884 C2887 1.387 . S
H2885 C2881 0.950 . S
H2886 C2883 0.950 . S
C2887 C2878 1.390 . S
C2887 H2880 0.950 . S
C2887 C2884 1.387 . S
C2888 C2889 1.389 . S
C2888 H2892 0.951 . S
C2888 C2897 1.388 1_554 S
C2889 C2888 1.389 . S
C2889 C2891 1.387 1_554 S
H2890 C2897 0.950 . S
C2891 C2889 1.387 1_556 S
C2891 C2893 1.390 . S
C2891 H2895 0.950 1_556 S
H2892 C2888 0.951 . S
C2893 C2891 1.390 . S
C2893 C2894 1.387 . S
C2893 H2896 0.950 . S
C2894 C2893 1.387 . S
C2894 C2897 1.387 . S
H2895 C2891 0.950 1_554 S
H2896 C2893 0.950 . S
C2897 C2888 1.388 1_556 S
C2897 H2890 0.950 . S
C2897 C2894 1.387 . S
C2898 C2899 1.387 1_455 S
C2898 H2902 0.950 1_455 S
C2898 C2907 1.390 . S
C2899 C2898 1.387 1_655 S
C2899 C2901 1.387 1_655 S
H2900 C2907 0.950 . S
C2901 C2899 1.387 1_455 S
C2901 C2903 1.390 . S
C2901 H2905 0.950 1_455 S
H2902 C2898 0.950 1_655 S
C2903 C2901 1.390 . S
C2903 C2904 1.387 . S
C2903 H2906 0.950 . S
C2904 C2903 1.387 . S
C2904 C2907 1.387 . S
H2905 C2901 0.950 1_655 S
H2906 C2903 0.950 . S
C2907 C2898 1.390 . S
C2907 H2900 0.950 . S
C2907 C2904 1.387 . S
C2908 C2909 1.387 . S
C2908 H2912 0.950 . S
C2908 C2917 1.390 . S
C2909 C2908 1.387 . S
C2909 C2911 1.387 . S
H2910 C2917 0.950 . S
C2911 C2909 1.387 . S
C2911 C2913 1.390 . S
C2911 H2915 0.950 . S
H2912 C2908 0.950 . S
C2913 C2911 1.390 . S
C2913 C2914 1.387 . S
C2913 H2916 0.950 . S
C2914 C2913 1.387 . S
C2914 C2917 1.387 . S
H2915 C2911 0.950 . S
H2916 C2913 0.950 . S
C2917 C2908 1.390 . S
C2917 H2910 0.950 . S
C2917 C2914 1.387 . S
C2918 C2919 1.387 . S
C2918 H2922 0.950 . S
C2918 C2927 1.390 . S
C2919 C2918 1.387 . S
C2919 C2921 1.387 . S
H2920 C2927 0.950 . S
C2921 C2919 1.387 . S
C2921 C2923 1.390 . S
C2921 H2925 0.950 . S
H2922 C2918 0.950 . S
C2923 C2921 1.390 . S
C2923 C2924 1.387 . S
C2923 H2926 0.950 . S
C2924 C2923 1.387 . S
C2924 C2927 1.387 . S
H2925 C2921 0.950 . S
H2926 C2923 0.950 . S
C2927 C2918 1.390 . S
C2927 H2920 0.950 . S
C2927 C2924 1.387 . S
C2928 C2929 1.387 . S
C2928 H2932 0.950 . S
C2928 C2937 1.417 . S
C2929 C2928 1.387 . S
C2929 C2931 1.387 . S
H2930 C2937 0.936 1_556 S
C2931 C2929 1.387 . S
C2931 C2933 1.390 . S
C2931 H2935 0.950 . S
H2932 C2928 0.950 . S
C2933 C2931 1.390 . S
C2933 C2934 1.387 1_554 S
C2933 H2936 0.950 1_554 S
C2934 C2933 1.387 1_556 S
C2934 C2937 1.376 1_556 S
H2935 C2931 0.950 . S
H2936 C2933 0.950 1_556 S
C2937 C2928 1.417 . S
C2937 H2930 0.936 1_554 S
C2937 C2934 1.376 1_554 S
C2938 C2939 1.387 1_545 S
C2938 H2942 0.950 1_545 S
C2938 C2947 1.390 . S
C2939 C2938 1.387 1_565 S
C2939 C2941 1.380 1_565 S
H2940 C2947 0.950 . S
C2941 C2939 1.380 1_545 S
C2941 C2943 1.408 . S
C2941 H2945 0.940 1_545 S
H2942 C2938 0.950 1_565 S
C2943 C2941 1.408 . S
C2943 C2944 1.387 . S
C2943 H2946 0.950 . S
C2944 C2943 1.387 . S
C2944 C2947 1.387 . S
H2945 C2941 0.940 1_565 S
H2946 C2943 0.950 . S
C2947 C2938 1.390 . S
C2947 H2940 0.950 . S
C2947 C2944 1.387 . S
C2948 C2949 1.387 . S
C2948 H2952 0.950 . S
C2948 C2957 1.390 . S
C2949 C2948 1.387 . S
C2949 C2951 1.387 . S
H2950 C2957 0.950 1_545 S
C2951 C2949 1.387 . S
C2951 C2953 1.390 . S
C2951 H2955 0.950 . S
H2952 C2948 0.950 . S
C2953 C2951 1.390 . S
C2953 C2954 1.387 1_565 S
C2953 H2956 0.950 1_565 S
C2954 C2953 1.387 1_545 S
C2954 C2957 1.387 1_545 S
H2955 C2951 0.950 . S
H2956 C2953 0.950 1_545 S
C2957 C2948 1.390 . S
C2957 H2950 0.950 1_565 S
C2957 C2954 1.387 1_565 S
C2958 C2959 1.387 . S
C2958 H2962 0.950 . S
C2958 C2967 1.370 1_565 S
C2959 C2958 1.387 . S
C2959 C2961 1.387 . S
H2960 C2967 0.963 . S
C2961 C2959 1.387 . S
C2961 C2963 1.390 . S
C2961 H2965 0.950 . S
H2962 C2958 0.950 . S
C2963 C2961 1.390 . S
C2963 C2964 1.387 1_565 S
C2963 H2966 0.950 1_565 S
C2964 C2963 1.387 1_545 S
C2964 C2967 1.396 . S
H2965 C2961 0.950 . S
H2966 C2963 0.950 1_545 S
C2967 C2958 1.370 1_545 S
C2967 H2960 0.963 . S
C2967 C2964 1.396 . S
C2968 C2969 1.387 . S
C2968 H2972 0.950 . S
C2968 C2977 1.391 . S
C2969 C2968 1.387 . S
C2969 C2971 1.387 . S
H2970 C2977 0.949 1_565 S
C2971 C2969 1.387 . S
C2971 C2973 1.390 . S
C2971 H2975 0.950 . S
H2972 C2968 0.950 . S
C2973 C2971 1.390 . S
C2973 C2974 1.387 1_545 S
C2973 H2976 0.950 1_545 S
C2974 C2973 1.387 1_565 S
C2974 C2977 1.387 1_565 S
H2975 C2971 0.950 . S
H2976 C2973 0.950 1_565 S
C2977 C2968 1.391 . S
C2977 H2970 0.949 1_545 S
C2977 C2974 1.387 1_545 S
C2978 C2979 1.387 . S
C2978 H2982 0.950 . S
C2978 C2987 1.390 1_556 S
C2979 C2978 1.387 . S
C2979 C2981 1.387 . S
H2980 C2987 0.950 . S
C2981 C2979 1.387 . S
C2981 C2983 1.390 . S
C2981 H2985 0.950 . S
H2982 C2978 0.950 . S
C2983 C2981 1.390 . S
C2983 C2984 1.387 1_556 S
C2983 H2986 0.950 . S
C2984 C2983 1.387 1_554 S
C2984 C2987 1.387 . S
H2985 C2981 0.950 . S
H2986 C2983 0.950 . S
C2987 C2978 1.390 1_554 S
C2987 H2980 0.950 . S
C2987 C2984 1.387 . S
C2988 C2989 1.387 . S
C2988 H2992 0.950 . S
C2988 C2997 1.390 1_655 S
C2989 C2988 1.387 . S
C2989 C2991 1.387 . S
H2990 C2997 0.950 . S
C2991 C2989 1.387 . S
C2991 C2993 1.390 . S
C2991 H2995 0.950 . S
H2992 C2988 0.950 . S
C2993 C2991 1.390 . S
C2993 C2994 1.387 1_655 S
C2993 H2996 0.950 . S
C2994 C2993 1.387 1_455 S
C2994 C2997 1.387 . S
H2995 C2991 0.950 . S
H2996 C2993 0.950 . S
C2997 C2988 1.390 1_455 S
C2997 H2990 0.950 . S
C2997 C2994 1.387 . S
C2998 C2999 1.387 . S
C2998 H3002 0.950 . S
C2998 C3007 1.390 . S
C2999 C2998 1.387 . S
C2999 C3001 1.387 . S
H3000 C3007 0.950 . S
C3001 C2999 1.387 . S
C3001 C3003 1.390 . S
C3001 H3005 0.950 . S
H3002 C2998 0.950 . S
C3003 C3001 1.390 . S
C3003 C3004 1.387 . S
C3003 H3006 0.950 . S
C3004 C3003 1.387 . S
C3004 C3007 1.387 . S
H3005 C3001 0.950 . S
H3006 C3003 0.950 . S
C3007 C2998 1.390 . S
C3007 H3000 0.950 . S
C3007 C3004 1.387 . S
C3008 C3009 1.387 . S
C3008 H3012 0.950 . S
C3008 C3017 1.390 . S
C3009 C3008 1.387 . S
C3009 C3011 1.387 . S
H3010 C3017 0.950 1_455 S
C3011 C3009 1.387 . S
C3011 C3013 1.390 . S
C3011 H3015 0.950 . S
H3012 C3008 0.950 . S
C3013 C3011 1.390 . S
C3013 C3014 1.387 1_655 S
C3013 H3016 0.950 1_655 S
C3014 C3013 1.387 1_455 S
C3014 C3017 1.387 1_455 S
H3015 C3011 0.950 . S
H3016 C3013 0.950 1_455 S
C3017 C3008 1.390 . S
C3017 H3010 0.950 1_655 S
C3017 C3014 1.387 1_655 S
C3018 C3019 1.387 . S
C3018 H3022 0.950 . S
C3018 C3027 1.390 . S
C3019 C3018 1.387 . S
C3019 C3021 1.387 . S
H3020 C3027 0.950 . S
C3021 C3019 1.387 . S
C3021 C3023 1.390 . S
C3021 H3025 0.950 . S
H3022 C3018 0.950 . S
C3023 C3021 1.390 . S
C3023 C3024 1.387 . S
C3023 H3026 0.950 . S
C3024 C3023 1.387 . S
C3024 C3027 1.387 . S
H3025 C3021 0.950 . S
H3026 C3023 0.950 . S
C3027 C3018 1.390 . S
C3027 H3020 0.950 . S
C3027 C3024 1.387 . S
C3028 C3029 1.387 . S
C3028 H3032 0.950 . S
C3028 C3037 1.390 . S
C3029 C3028 1.387 . S
C3029 C3031 1.387 . S
H3030 C3037 0.950 . S
C3031 C3029 1.387 . S
C3031 C3033 1.390 . S
C3031 H3035 0.950 . S
H3032 C3028 0.950 . S
C3033 C3031 1.390 . S
C3033 C3034 1.387 . S
C3033 H3036 0.950 . S
C3034 C3033 1.387 . S
C3034 C3037 1.387 . S
H3035 C3031 0.950 . S
H3036 C3033 0.950 . S
C3037 C3028 1.390 . S
C3037 H3030 0.950 . S
C3037 C3034 1.387 . S
C3038 C3039 1.387 . S
C3038 H3042 0.950 . S
C3038 C3047 1.390 . S
C3039 C3038 1.387 . S
C3039 C3041 1.387 . S
H3040 C3047 0.950 1_554 S
C3041 C3039 1.387 . S
C3041 C3043 1.377 1_556 S
C3041 H3045 0.950 . S
H3042 C3038 0.950 . S
C3043 C3041 1.377 1_554 S
C3043 C3044 1.393 . S
C3043 H3046 0.958 . S
C3044 C3043 1.393 . S
C3044 C3047 1.387 1_554 S
H3045 C3041 0.950 . S
H3046 C3043 0.958 . S
C3047 C3038 1.390 . S
C3047 H3040 0.950 1_556 S
C3047 C3044 1.387 1_556 S
C3048 C3049 1.387 . S
C3048 H3052 0.950 . S
C3048 C3057 1.390 . S
C3049 C3048 1.387 . S
C3049 C3051 1.387 . S
H3050 C3057 0.950 . S
C3051 C3049 1.387 . S
C3051 C3053 1.390 . S
C3051 H3055 0.950 . S
H3052 C3048 0.950 . S
C3053 C3051 1.390 . S
C3053 C3054 1.387 . S
C3053 H3056 0.950 . S
C3054 C3053 1.387 . S
C3054 C3057 1.387 . S
H3055 C3051 0.950 . S
H3056 C3053 0.950 . S
C3057 C3048 1.390 . S
C3057 H3050 0.950 . S
C3057 C3054 1.387 . S
C3058 C3059 1.387 . S
C3058 H3062 0.950 . S
C3058 C3067 1.390 . S
C3059 C3058 1.387 . S
C3059 C3061 1.387 . S
H3060 C3067 0.950 . S
C3061 C3059 1.387 . S
C3061 C3063 1.390 . S
C3061 H3065 0.950 . S
H3062 C3058 0.950 . S
C3063 C3061 1.390 . S
C3063 C3064 1.387 . S
C3063 H3066 0.950 . S
C3064 C3063 1.387 . S
C3064 C3067 1.387 . S
H3065 C3061 0.950 . S
H3066 C3063 0.950 . S
C3067 C3058 1.390 . S
C3067 H3060 0.950 . S
C3067 C3064 1.387 . S
C3068 C3069 1.387 . S
C3068 H3072 0.950 . S
C3068 C3077 1.390 . S
C3069 C3068 1.387 . S
C3069 C3071 1.387 . S
H3070 C3077 0.950 . S
C3071 C3069 1.387 . S
C3071 C3073 1.390 . S
C3071 H3075 0.950 . S
H3072 C3068 0.950 . S
C3073 C3071 1.390 . S
C3073 C3074 1.387 . S
C3073 H3076 0.950 . S
C3074 C3073 1.387 . S
C3074 C3077 1.387 . S
H3075 C3071 0.950 . S
H3076 C3073 0.950 . S
C3077 C3068 1.390 . S
C3077 H3070 0.950 . S
C3077 C3074 1.387 . S
C3078 C3079 1.387 . S
C3078 H3082 0.950 . S
C3078 C3087 1.390 . S
C3079 C3078 1.387 . S
C3079 C3081 1.387 . S
H3080 C3087 0.950 . S
C3081 C3079 1.387 . S
C3081 C3083 1.390 . S
C3081 H3085 0.950 . S
H3082 C3078 0.950 . S
C3083 C3081 1.390 . S
C3083 C3084 1.387 . S
C3083 H3086 0.950 . S
C3084 C3083 1.387 . S
C3084 C3087 1.387 . S
H3085 C3081 0.950 . S
H3086 C3083 0.950 . S
C3087 C3078 1.390 . S
C3087 H3080 0.950 . S
C3087 C3084 1.387 . S
C3088 C3089 1.387 . S
C3088 H3092 0.950 . S
C3088 C3097 1.390 . S
C3089 C3088 1.387 . S
C3089 C3091 1.387 . S
H3090 C3097 0.950 . S
C3091 C3089 1.387 . S
C3091 C3093 1.390 . S
C3091 H3095 0.950 . S
H3092 C3088 0.950 . S
C3093 C3091 1.390 . S
C3093 C3094 1.387 . S
C3093 H3096 0.950 . S
C3094 C3093 1.387 . S
C3094 C3097 1.387 . S
H3095 C3091 0.950 . S
H3096 C3093 0.950 . S
C3097 C3088 1.390 . S
C3097 H3090 0.950 . S
C3097 C3094 1.387 . S
C3098 C3099 1.387 . S
C3098 H3102 0.950 . S
C3098 C3107 1.390 . S
C3099 C3098 1.387 . S
C3099 C3101 1.387 . S
H3100 C3107 0.950 . S
C3101 C3099 1.387 . S
C3101 C3103 1.390 . S
C3101 H3105 0.950 . S
H3102 C3098 0.950 . S
C3103 C3101 1.390 . S
C3103 C3104 1.387 . S
C3103 H3106 0.950 . S
C3104 C3103 1.387 . S
C3104 C3107 1.387 . S
H3105 C3101 0.950 . S
H3106 C3103 0.950 . S
C3107 C3098 1.390 . S
C3107 H3100 0.950 . S
C3107 C3104 1.387 . S
C3108 C3109 1.387 . S
C3108 H3112 0.950 . S
C3108 C3117 1.390 . S
C3109 C3108 1.387 . S
C3109 C3111 1.387 . S
H3110 C3117 0.950 1_556 S
C3111 C3109 1.387 . S
C3111 C3113 1.416 . S
C3111 H3115 0.950 . S
H3112 C3108 0.950 . S
C3113 C3111 1.416 . S
C3113 C3114 1.376 1_554 S
C3113 H3116 0.937 1_554 S
C3114 C3113 1.376 1_556 S
C3114 C3117 1.387 1_556 S
H3115 C3111 0.950 . S
H3116 C3113 0.937 1_556 S
C3117 C3108 1.390 . S
C3117 H3110 0.950 1_554 S
C3117 C3114 1.387 1_554 S
C3118 C3119 1.387 . S
C3118 H3122 0.950 . S
C3118 C3127 1.390 . S
C3119 C3118 1.387 . S
C3119 C3121 1.387 . S
H3120 C3127 0.950 . S
C3121 C3119 1.387 . S
C3121 C3123 1.390 . S
C3121 H3125 0.950 . S
H3122 C3118 0.950 . S
C3123 C3121 1.390 . S
C3123 C3124 1.387 . S
C3123 H3126 0.950 . S
C3124 C3123 1.387 . S
C3124 C3127 1.387 . S
H3125 C3121 0.950 . S
H3126 C3123 0.950 . S
C3127 C3118 1.390 . S
C3127 H3120 0.950 . S
C3127 C3124 1.387 . S
C3128 C3129 1.387 . S
C3128 H3132 0.950 . S
C3128 C3137 1.390 . S
C3129 C3128 1.387 . S
C3129 C3131 1.387 . S
H3130 C3137 0.950 . S
C3131 C3129 1.387 . S
C3131 C3133 1.390 . S
C3131 H3135 0.950 . S
H3132 C3128 0.950 . S
C3133 C3131 1.390 . S
C3133 C3134 1.387 . S
C3133 H3136 0.950 . S
C3134 C3133 1.387 . S
C3134 C3137 1.387 . S
H3135 C3131 0.950 . S
H3136 C3133 0.950 . S
C3137 C3128 1.390 . S
C3137 H3130 0.950 . S
C3137 C3134 1.387 . S
C3138 C3139 1.387 . S
C3138 H3142 0.950 . S
C3138 C3147 1.390 . S
C3139 C3138 1.387 . S
C3139 C3141 1.387 . S
H3140 C3147 0.950 . S
C3141 C3139 1.387 . S
C3141 C3143 1.390 . S
C3141 H3145 0.950 . S
H3142 C3138 0.950 . S
C3143 C3141 1.390 . S
C3143 C3144 1.387 . S
C3143 H3146 0.950 . S
C3144 C3143 1.387 . S
C3144 C3147 1.387 . S
H3145 C3141 0.950 . S
H3146 C3143 0.950 . S
C3147 C3138 1.390 . S
C3147 H3140 0.950 . S
C3147 C3144 1.387 . S
C3148 C3149 1.387 . S
C3148 H3152 0.950 . S
C3148 C3157 1.390 . S
C3149 C3148 1.387 . S
C3149 C3151 1.387 . S
H3150 C3157 0.950 . S
C3151 C3149 1.387 . S
C3151 C3153 1.390 . S
C3151 H3155 0.950 . S
H3152 C3148 0.950 . S
C3153 C3151 1.390 . S
C3153 C3154 1.387 . S
C3153 H3156 0.950 . S
C3154 C3153 1.387 . S
C3154 C3157 1.387 . S
H3155 C3151 0.950 . S
H3156 C3153 0.950 . S
C3157 C3148 1.390 . S
C3157 H3150 0.950 . S
C3157 C3154 1.387 . S
C3158 C3159 1.387 . S
C3158 H3162 0.950 . S
C3158 C3167 1.390 . S
C3159 C3158 1.387 . S
C3159 C3161 1.387 . S
H3160 C3167 0.950 . S
C3161 C3159 1.387 . S
C3161 C3163 1.390 . S
C3161 H3165 0.950 . S
H3162 C3158 0.950 . S
C3163 C3161 1.390 . S
C3163 C3164 1.387 . S
C3163 H3166 0.950 . S
C3164 C3163 1.387 . S
C3164 C3167 1.387 . S
H3165 C3161 0.950 . S
H3166 C3163 0.950 . S
C3167 C3158 1.390 . S
C3167 H3160 0.950 . S
C3167 C3164 1.387 . S
C1249 C4 1.348 . S
C1254 C980 1.352 . S
C1259 C317 1.352 1_455 S
C1264 C23 1.348 . S
C1269 C954 1.351 . S
C1274 C36 1.349 . S
C1279 C343 1.352 . S
C1284 C49 1.350 . S
C1289 C62 1.349 . S
C1294 C1004 1.353 . S
C1299 C69 1.349 . S
C1304 C393 1.351 . S
C1309 C1030 1.352 . S
C1314 C88 1.350 . S
C1319 C95 1.350 . S
C1324 C369 1.353 1_455 S
C1329 C114 1.348 . S
C1334 C1173 1.352 . S
C1339 C564 1.351 . S
C1344 C127 1.350 . S
C1349 C140 1.350 . S
C1354 C575 1.353 . S
C1359 C147 1.350 . S
C1364 C538 1.353 1_556 S
C1369 C160 1.348 . S
C1374 C1227 1.352 . S
C1379 C173 1.348 . S
C1384 C1147 1.353 . S
C1389 C186 1.351 . S
C1394 C1238 1.352 . S
C1399 C199 1.349 . S
C1404 C1212 1.351 1_554 S
C1409 C1056 1.352 . S
C1414 C218 1.350 . S
C1419 C231 1.348 . S
C1424 C512 1.352 . S
C1429 C244 1.348 . S
C1434 C1095 1.352 . S
C1439 C484 1.353 . S
C1444 C251 1.350 . S
C1449 C270 1.350 . S
C1454 C497 1.352 1_545 S
C1459 C1082 1.351 . S
C1464 C283 1.348 . S
C1469 C296 1.350 . S
C1474 C1043 1.351 . S
C1479 C1071 1.352 . S
C1484 C309 1.351 . S
C1489 C668 1.353 . S
C1494 C322 1.349 . S
C1499 C3 1.351 1_655 S
C1504 C329 1.348 . S
C1509 C348 1.349 . S
C1514 C642 1.351 . S
C1519 C361 1.350 . S
C1524 C31 1.353 . S
C1529 C374 1.349 . S
C1534 C692 1.351 . S
C1539 C83 1.352 . S
C1544 C381 1.350 . S
C1549 C394 1.350 . S
C1554 C718 1.351 . S
C1559 C413 1.349 . S
C1564 C57 1.351 1_655 S
C1569 C420 1.348 . S
C1574 C861 1.352 . S
C1579 C250 1.351 . S
C1584 C439 1.349 . S
C1589 C452 1.348 . S
C1594 C265 1.351 . S
C1599 C226 1.352 1_554 S
C1604 C459 1.350 . S
C1609 C472 1.349 . S
C1614 C915 1.353 . S
C1619 C485 1.348 . S
C1624 C835 1.352 . S
C1629 C498 1.348 . S
C1634 C928 1.352 . S
C1639 C900 1.353 1_556 S
C1644 C517 1.349 . S
C1649 C746 1.351 . S
C1654 C524 1.348 . S
C1659 C198 1.352 . S
C1664 C543 1.348 . S
C1669 C783 1.352 . S
C1674 C550 1.348 . S
C1679 C569 1.348 . S
C1684 C172 1.351 . S
C1689 C576 1.350 . S
C1694 C185 1.353 1_565 S
C1699 C589 1.348 . S
C1704 C772 1.351 . S
C1709 C733 1.352 . S
C1714 C602 1.350 . S
C1719 C615 1.348 . S
C1724 C759 1.353 . S
C1729 C356 1.353 . S
C1734 C634 1.350 . S
C1739 C941 1.351 . S
C1744 C647 1.349 . S
C1749 C654 1.349 . S
C1754 C328 1.353 . S
C1759 C967 1.353 1_655 S
C1764 C673 1.350 . S
C1769 C680 1.350 . S
C1774 C380 1.352 . S
C1779 C1017 1.352 1_655 S
C1784 C693 1.348 . S
C1789 C706 1.349 . S
C1794 C408 1.351 . S
C1799 C991 1.353 . S
C1804 C719 1.350 . S
C1809 C549 1.352 . S
C1814 C738 1.350 . S
C1819 C751 1.350 . S
C1824 C1188 1.353 1_556 S
C1829 C1201 1.352 . S
C1834 C764 1.348 . S
C1839 C777 1.349 . S
C1844 C1162 1.351 . S
C1849 C601 1.352 . S
C1854 C784 1.351 . S
C1859 C797 1.349 . S
C1864 C523 1.353 1_554 S
C1869 C614 1.352 . S
C1874 C810 1.348 . S
C1879 C588 1.352 . S
C1884 C823 1.351 . S
C1889 C434 1.351 . S
C1894 C836 1.348 . S
C1899 C1134 1.352 . S
C1904 C855 1.348 . S
C1909 C862 1.350 . S
C1914 C471 1.353 1_565 S
C1919 C881 1.348 . S
C1924 C1108 1.351 . S
C1929 C1123 1.352 . S
C1934 C894 1.348 . S
C1939 C458 1.353 . S
C1944 C901 1.350 . S
C1949 C419 1.353 1_545 S
C1954 C920 1.350 . S
C1959 C447 1.352 1_565 S
C1964 C933 1.351 . S
C1969 C946 1.350 . S
C1974 C44 1.352 . S
C1979 C959 1.350 . S
C1984 C629 1.353 . S
C1989 C972 1.348 . S
C1994 C18 1.351 . S
C1999 C985 1.348 . S
C2004 C653 1.352 1_455 S
C2009 C68 1.353 . S
C2014 C992 1.349 . S
C2019 C705 1.353 1_455 S
C2024 C1005 1.350 . S
C2029 C94 1.353 . S
C2034 C1018 1.349 . S
C2039 C679 1.353 . S
C2044 C1031 1.350 . S
C2049 C1044 1.350 . S
C2054 C239 1.353 . S
C2059 C876 1.353 1_554 S
C2064 C1057 1.348 . S
C2069 C1076 1.348 . S
C2074 C889 1.352 . S
C2079 C1083 1.349 . S
C2084 C850 1.351 . S
C2089 C291 1.353 . S
C2094 C1096 1.350 . S
C2099 C213 1.352 1_556 S
C2104 C1109 1.350 . S
C2109 C1128 1.350 . S
C2114 C304 1.352 . S
C2119 C278 1.353 . S
C2124 C1135 1.350 . S
C2129 C1148 1.350 . S
C2134 C122 1.353 . S
C2139 C1167 1.350 . S
C2144 C822 1.351 . S
C2149 C159 1.353 1_545 S
C2154 C1174 1.350 . S
C2159 C1193 1.349 . S
C2164 C796 1.353 . S
C2169 C809 1.352 . S
C2174 C1206 1.348 . S
C2179 C1213 1.348 . S
C2184 C146 1.351 . S
C2189 C1232 1.350 . S
C2194 C109 1.353 1_565 S
C2199 C1239 1.351 . S
C2204 C135 1.352 1_545 S
C2209 C10 1.326 . S
C2214 C121 1.326 . S
C2219 C17 1.328 . S
C2224 C134 1.326 . S
C2229 C153 1.328 . S
C2234 C30 1.327 . S
C2239 C43 1.326 . S
C2244 C108 1.328 . S
C2249 C205 1.326 . S
C2254 C56 1.326 . S
C2259 C75 1.328 . S
C2264 C166 1.326 . S
C2269 C82 1.328 . S
C2274 C179 1.327 . S
C2279 C192 1.327 . S
C2284 C101 1.328 . S
C2289 C238 1.327 . S
C2294 C212 1.325 . S
C2299 C225 1.326 . S
C2304 C914 1.326 . S
C2309 C927 1.326 . S
C2314 C257 1.328 . S
C2319 C264 1.326 . S
C2324 C907 1.328 . S
C2329 C888 1.326 . S
C2334 C277 1.328 . S
C2339 C290 1.327 . S
C2344 C849 1.328 . S
C2349 C303 1.328 . S
C2354 C875 1.327 . S
C2359 C316 1.326 . S
C2364 C433 1.326 . S
C2369 C446 1.326 . S
C2374 C335 1.326 . S
C2379 C465 1.327 . S
C2384 C342 1.328 . S
C2389 C355 1.326 . S
C2394 C426 1.328 . S
C2399 C511 1.326 . S
C2404 C368 1.326 . S
C2409 C387 1.326 . S
C2414 C478 1.326 . S
C2419 C491 1.327 . S
C2424 C400 1.328 . S
C2429 C407 1.326 . S
C2434 C504 1.326 . S
C2439 C556 1.327 . S
C2444 C530 1.325 . S
C2449 C537 1.326 . S
C2454 C1226 1.326 . S
C2459 C563 1.328 . S
C2464 C1245 1.327 . S
C2469 C1219 1.328 . S
C2474 C582 1.326 . S
C2479 C1200 1.326 . S
C2484 C595 1.326 . S
C2489 C1161 1.328 . S
C2494 C608 1.327 . S
C2499 C1187 1.328 . S
C2504 C621 1.327 . S
C2509 C745 1.327 . S
C2514 C628 1.328 . S
C2519 C758 1.328 . S
C2524 C641 1.326 . S
C2529 C771 1.327 . S
C2534 C660 1.328 . S
C2539 C667 1.325 . S
C2544 C732 1.327 . S
C2549 C686 1.328 . S
C2554 C829 1.326 . S
C2559 C699 1.328 . S
C2564 C790 1.326 . S
C2569 C712 1.326 . S
C2574 C803 1.326 . S
C2579 C725 1.326 . S
C2584 C816 1.326 . S
C2589 C868 1.327 . S
C2594 C842 1.326 . S
C2599 C1063 1.326 . S
C2604 C940 1.326 . S
C2609 C953 1.325 . S
C2614 C1070 1.327 . S
C2619 C1089 1.328 . S
C2624 C966 1.327 . S
C2629 C1050 1.327 . S
C2634 C979 1.328 . S
C2639 C1141 1.328 . S
C2644 C998 1.327 . S
C2649 C1102 1.326 . S
C2654 C1011 1.326 . S
C2659 C1115 1.326 . S
C2664 C1024 1.326 . S
C2669 C1122 1.327 . S
C2674 C1037 1.325 . S
C2679 C1180 1.328 . S
C2684 C1154 1.326 . S
C2689 C5 1.542 . S
C2694 C263 1.544 . S
C2699 C848 1.544 . S
C2704 C16 1.542 . S
C2709 C863 1.544 . S
C2714 C29 1.543 . S
C2719 C874 1.542 . S
C2724 C42 1.544 . S
C2729 C926 1.544 . S
C2734 C55 1.542 . S
C2739 C70 1.542 . S
C2744 C276 1.543 . S
C2749 C81 1.542 . S
C2754 C913 1.544 . S
C2759 C96 1.542 . S
C2764 C211 1.544 . S
C2769 C107 1.544 . S
C2774 C200 1.543 . S
C2779 C120 1.542 . S
C2784 C161 1.544 . S
C2789 C133 1.542 . S
C2794 C174 1.544 . S
C2799 C187 1.542 . S
C2804 C148 1.544 . S
C2809 C640 1.542 . S
C2814 C224 1.544 . S
C2819 C237 1.542 . S
C2824 C655 1.544 . S
C2829 C252 1.544 . S
C2834 C666 1.544 . S
C2839 C707 1.542 . S
C2844 C289 1.544 . S
C2849 C302 1.542 . S
C2854 C681 1.543 . S
C2859 C315 1.542 . S
C2864 C577 1.544 . S
C2869 C1160 1.544 . S
C2874 C330 1.542 . S
C2879 C1175 1.542 . S
C2884 C341 1.544 . S
C2889 C1186 1.544 . S
C2894 C354 1.542 . S
C2899 C367 1.544 . S
C2904 C1240 1.542 . S
C2909 C382 1.543 . S
C2914 C590 1.544 . S
C2919 C395 1.542 . S
C2924 C1225 1.544 . S
C2929 C406 1.544 . S
C2934 C525 1.542 . S
C2939 C421 1.542 . S
C2944 C510 1.544 . S
C2949 C432 1.544 . S
C2954 C473 1.542 . S
C2959 C486 1.542 . S
C2964 C445 1.544 . S
C2969 C460 1.542 . S
C2974 C499 1.544 . S
C2979 C952 1.545 . S
C2984 C536 1.543 . S
C2989 C551 1.543 . S
C2994 C965 1.544 . S
C2999 C978 1.544 . S
C3004 C562 1.543 . S
C3009 C603 1.542 . S
C3014 C1019 1.544 . S
C3019 C993 1.544 . S
C3024 C616 1.542 . S
C3029 C627 1.544 . S
C3034 C887 1.542 . S
C3039 C694 1.544 . S
C3044 C902 1.543 . S
C3049 C720 1.544 . S
C3054 C837 1.542 . S
C3059 C824 1.542 . S
C3064 C731 1.544 . S
C3069 C744 1.544 . S
C3074 C785 1.542 . S
C3079 C798 1.542 . S
C3084 C757 1.544 . S
C3089 C770 1.544 . S
C3094 C811 1.542 . S
C3099 C1199 1.543 . S
C3104 C939 1.544 . S
C3109 C1006 1.542 . S
C3114 C1214 1.544 . S
C3119 C1032 1.542 . S
C3124 C1149 1.544 . S
C3129 C1136 1.544 . S
C3134 C1045 1.542 . S
C3139 C1097 1.542 . S
C3144 C1058 1.544 . S
C3149 C1069 1.542 . S
C3154 C1110 1.544 . S
C3159 C1084 1.543 . S
C3164 C1121 1.544 . S
