# Generated by pormake.
# Topology umo, (4)-cn, num edge types: 1
# Building blocks:
#     Node 0, Type 0, BuildingBlock: QUQFOY_clean_sbu_3, # of connection points: 4
#     Node 1, Type 0, BuildingBlock: QUQFOY_clean_sbu_3, # of connection points: 4
#     Node 2, Type 0, BuildingBlock: QUQFOY_clean_sbu_3, # of connection points: 4
#     Node 3, Type 0, BuildingBlock: QUQFOY_clean_sbu_3, # of connection points: 4
#     Node 4, Type 0, BuildingBlock: QUQFOY_clean_sbu_3, # of connection points: 4
#     Node 5, Type 0, BuildingBlock: QUQFOY_clean_sbu_3, # of connection points: 4
#     Node 6, Type 0, BuildingBlock: QUQFOY_clean_sbu_3, # of connection points: 4
#     Node 7, Type 0, BuildingBlock: QUQFOY_clean_sbu_3, # of connection points: 4
#     Node 8, Type 0, BuildingBlock: QUQFOY_clean_sbu_3, # of connection points: 4
#     Node 9, Type 0, BuildingBlock: QUQFOY_clean_sbu_3, # of connection points: 4
#     Node 10, Type 0, BuildingBlock: QUQFOY_clean_sbu_3, # of connection points: 4
#     Node 11, Type 0, BuildingBlock: QUQFOY_clean_sbu_3, # of connection points: 4
#     Edge 12, Type (0, 0), BuildingBlock: TEMPAE_clean_linker_10, # of connection points: 2
#     Edge 13, Type (0, 0), BuildingBlock: TEMPAE_clean_linker_10, # of connection points: 2
#     Edge 14, Type (0, 0), BuildingBlock: TEMPAE_clean_linker_10, # of connection points: 2
#     Edge 15, Type (0, 0), BuildingBlock: TEMPAE_clean_linker_10, # of connection points: 2
#     Edge 16, Type (0, 0), BuildingBlock: TEMPAE_clean_linker_10, # of connection points: 2
#     Edge 17, Type (0, 0), BuildingBlock: TEMPAE_clean_linker_10, # of connection points: 2
#     Edge 18, Type (0, 0), BuildingBlock: TEMPAE_clean_linker_10, # of connection points: 2
#     Edge 19, Type (0, 0), BuildingBlock: TEMPAE_clean_linker_10, # of connection points: 2
#     Edge 20, Type (0, 0), BuildingBlock: TEMPAE_clean_linker_10, # of connection points: 2
#     Edge 21, Type (0, 0), BuildingBlock: TEMPAE_clean_linker_10, # of connection points: 2
#     Edge 22, Type (0, 0), BuildingBlock: TEMPAE_clean_linker_10, # of connection points: 2
#     Edge 23, Type (0, 0), BuildingBlock: TEMPAE_clean_linker_10, # of connection points: 2
#     Edge 24, Type (0, 0), BuildingBlock: TEMPAE_clean_linker_10, # of connection points: 2
#     Edge 25, Type (0, 0), BuildingBlock: TEMPAE_clean_linker_10, # of connection points: 2
#     Edge 26, Type (0, 0), BuildingBlock: TEMPAE_clean_linker_10, # of connection points: 2
#     Edge 27, Type (0, 0), BuildingBlock: TEMPAE_clean_linker_10, # of connection points: 2
#     Edge 28, Type (0, 0), BuildingBlock: TEMPAE_clean_linker_10, # of connection points: 2
#     Edge 29, Type (0, 0), BuildingBlock: TEMPAE_clean_linker_10, # of connection points: 2
#     Edge 30, Type (0, 0), BuildingBlock: TEMPAE_clean_linker_10, # of connection points: 2
#     Edge 31, Type (0, 0), BuildingBlock: TEMPAE_clean_linker_10, # of connection points: 2
#     Edge 32, Type (0, 0), BuildingBlock: TEMPAE_clean_linker_10, # of connection points: 2
#     Edge 33, Type (0, 0), BuildingBlock: TEMPAE_clean_linker_10, # of connection points: 2
#     Edge 34, Type (0, 0), BuildingBlock: TEMPAE_clean_linker_10, # of connection points: 2
#     Edge 35, Type (0, 0), BuildingBlock: TEMPAE_clean_linker_10, # of connection points: 2
# Relax obj value: 0.165
# Max RMSD: 0.247
# Mean RMSD: 0.247
data_MOF--net-umo--node1-QUQFOY_clean_sbu_3--edge1-TEMPAE_clean_linker_10
_symmetry_space_group_name_H-M    P1
_symmetry_Int_Tables_number       1
_symmetry_cell_setting            triclinic
loop_
_symmetry_equiv_pos_as_xyz
'x, y, z'
_cell_length_a     52.942946
_cell_length_b     52.91609
_cell_length_c     39.049599
_cell_angle_alpha  89.671701
_cell_angle_beta   90.008441
_cell_angle_gamma 119.65576
loop_
_atom_site_label
_atom_site_type_symbol
_atom_site_fract_x
_atom_site_fract_y
_atom_site_fract_z
_atom_type_partial_charge
C0 C 0.13908 0.49091 0.32887 0.0
O1 O 0.12542 0.47249 0.35243 0.0
Cd2 Cd 0.11006 0.50539 0.37796 0.0
O3 O 0.13668 0.51359 0.32795 0.0
Cd4 Cd 0.10069 0.51705 0.37007 0.0
C5 C 0.15513 0.57299 0.37005 0.0
O6 O 0.09981 0.50526 0.43525 0.0
O7 O 0.09126 0.53939 0.41817 0.0
O8 O 0.05741 0.47129 0.35701 0.0
C9 C 0.09339 0.52485 0.44285 0.0
O10 O 0.15583 0.55083 0.38114 0.0
C11 C 0.04428 0.48273 0.34185 0.0
O12 O 0.13132 0.56929 0.35786 0.0
O13 O 0.05788 0.51028 0.33849 0.0
C14 C 0.63137 0.17181 0.52384 0.0
O15 O 0.63702 0.18716 0.55065 0.0
Cd16 Cd 0.60762 0.17415 0.60248 0.0
O17 O 0.60808 0.14741 0.52179 0.0
Cd18 Cd 0.56428 0.11816 0.55748 0.0
C19 C 0.54586 0.16978 0.56817 0.0
O20 O 0.58352 0.1238 0.6161 0.0
O21 O 0.53703 0.10491 0.60964 0.0
O22 O 0.56045 0.07149 0.54646 0.0
C23 C 0.55839 0.11299 0.62976 0.0
O24 O 0.56692 0.18081 0.58919 0.0
C25 C 0.53719 0.06156 0.52917 0.0
O26 O 0.54128 0.14848 0.54905 0.0
O27 O 0.52698 0.0785 0.52386 0.0
C28 C 0.41464 0.62614 0.66238 0.0
O29 O 0.43258 0.62994 0.68607 0.0
Cd30 Cd 0.39714 0.58336 0.71337 0.0
O31 O 0.39098 0.60213 0.66227 0.0
Cd32 Cd 0.38565 0.56272 0.70598 0.0
C33 C 0.33038 0.5634 0.7032 0.0
O34 O 0.39681 0.57352 0.77097 0.0
O35 O 0.36197 0.53158 0.75453 0.0
O36 O 0.43142 0.56426 0.69448 0.0
C37 C 0.37677 0.54793 0.77897 0.0
O38 O 0.35247 0.58585 0.71445 0.0
C39 C 0.4201 0.53951 0.68032 0.0
O40 O 0.33393 0.54283 0.69228 0.0
O41 O 0.39262 0.52594 0.67655 0.0
C42 C 0.73228 0.42566 0.83608 0.0
O43 O 0.71598 0.41592 0.86223 0.0
Cd44 Cd 0.72517 0.39241 0.90948 0.0
O45 O 0.75606 0.42517 0.83486 0.0
Cd46 Cd 0.78307 0.40913 0.87364 0.0
C47 C 0.73361 0.33991 0.86701 0.0
O48 O 0.77268 0.41468 0.93422 0.0
O49 O 0.7841 0.38169 0.92179 0.0
O50 O 0.83 0.45298 0.87642 0.0
C51 C 0.77887 0.39547 0.94451 0.0
O52 O 0.71923 0.34753 0.88638 0.0
C53 C 0.84304 0.44354 0.85763 0.0
O54 O 0.75856 0.35838 0.85548 0.0
O55 O 0.82793 0.41816 0.84544 0.0
C56 C 0.27709 0.77761 -0.01422 0.0
O57 O 0.27208 0.79004 0.01044 0.0
Cd58 Cd 0.31846 0.8006 0.0379 0.0
O59 O 0.30148 0.77857 -0.01459 0.0
Cd60 Cd 0.33937 0.80847 0.03173 0.0
C61 C 0.33899 0.75389 0.02269 0.0
O62 O 0.32585 0.80669 0.09627 0.0
O63 O 0.36219 0.80105 0.08163 0.0
O64 O 0.34232 0.85553 0.02503 0.0
C65 C 0.34714 0.80334 0.10539 0.0
O66 O 0.31668 0.75346 0.03513 0.0
C67 C 0.3682 0.86851 0.01372 0.0
O68 O 0.35982 0.77824 0.01288 0.0
O69 O 0.3805 0.8533 0.00941 0.0
C70 C 0.48693 0.30218 0.18453 0.0
O71 O 0.48834 0.29371 0.21464 0.0
Cd72 Cd 0.49502 0.31979 0.2679 0.0
O73 O 0.48987 0.32729 0.17929 0.0
Cd74 Cd 0.50079 0.37047 0.21427 0.0
C75 C 0.56232 0.37711 0.24876 0.0
O76 O 0.47175 0.34797 0.26607 0.0
O77 O 0.50013 0.39435 0.26611 0.0
O78 O 0.46908 0.37944 0.17768 0.0
C79 C 0.48257 0.37174 0.28249 0.0
O80 O 0.54568 0.35611 0.2684 0.0
C81 C 0.48685 0.40646 0.17417 0.0
O82 O 0.55229 0.38484 0.22352 0.0
O83 O 0.512 0.41619 0.18702 0.0
C84 C 0.43215 0.74892 0.45648 0.0
O85 O 0.43244 0.73873 0.42721 0.0
Cd86 Cd 0.41517 0.75115 0.37523 0.0
O87 O 0.42536 0.76875 0.4591 0.0
Cd88 Cd 0.41263 0.79792 0.42046 0.0
C89 C 0.34889 0.74098 0.40323 0.0
O90 O 0.4303 0.80053 0.36085 0.0
O91 O 0.39206 0.80475 0.37002 0.0
O92 O 0.45274 0.84514 0.43323 0.0
C93 C 0.41021 0.80478 0.34886 0.0
O94 O 0.36416 0.73454 0.38377 0.0
C95 C 0.43794 0.8541 0.44944 0.0
O96 O 0.36066 0.76197 0.42439 0.0
O97 O 0.41093 0.83632 0.45339 0.0
C98 C 0.63841 0.4367 0.61965 0.0
O99 O 0.64422 0.43038 0.59049 0.0
Cd100 Cd 0.60791 0.40751 0.54642 0.0
O101 O 0.61324 0.43306 0.62584 0.0
Cd102 Cd 0.56684 0.41573 0.59464 0.0
C103 C 0.55731 0.34885 0.59251 0.0
O104 O 0.57613 0.42633 0.5325 0.0
O105 O 0.53375 0.39205 0.54948 0.0
O106 O 0.56181 0.4581 0.60332 0.0
C107 C 0.54983 0.4078 0.52524 0.0
O108 O 0.57685 0.35953 0.56942 0.0
C109 C 0.53974 0.44561 0.62279 0.0
O110 O 0.54931 0.36453 0.60874 0.0
O111 O 0.53104 0.41925 0.63088 0.0
C112 C 0.1548 0.66856 0.78373 0.0
O113 O 0.16438 0.67785 0.75377 0.0
Cd114 Cd 0.14964 0.6469 0.70298 0.0
O115 O 0.13499 0.64229 0.78812 0.0
Cd116 Cd 0.10482 0.59886 0.75355 0.0
C117 C 0.16135 0.59155 0.73003 0.0
O118 O 0.09899 0.61431 0.69531 0.0
O119 O 0.08888 0.56964 0.70391 0.0
O120 O 0.05959 0.5927 0.77508 0.0
C121 C 0.09025 0.58888 0.68335 0.0
O122 O 0.16678 0.61261 0.70979 0.0
C123 C 0.05209 0.56888 0.79064 0.0
O124 O 0.1415 0.58325 0.75283 0.0
O125 O 0.07002 0.55945 0.79038 0.0
C126 C 0.50306 0.1991 0.97742 0.0
O127 O 0.51353 0.21328 0.94985 0.0
Cd128 Cd 0.53224 0.19741 0.90352 0.0
O129 O 0.50094 0.17425 0.98166 0.0
Cd130 Cd 0.51317 0.14188 0.94803 0.0
C131 C 0.58413 0.18841 0.94626 0.0
O132 O 0.50425 0.14766 0.88667 0.0
O133 O 0.53181 0.12942 0.89947 0.0
O134 O 0.46742 0.09706 0.9542 0.0
C135 C 0.51882 0.13576 0.87667 0.0
O136 O 0.57691 0.20179 0.92467 0.0
C137 C 0.47737 0.08451 0.9732 0.0
O138 O 0.56518 0.1657 0.96186 0.0
O139 O 0.50383 0.0993 0.98212 0.0
C140 C 0.25407 0.48056 0.12934 0.0
O141 O 0.24277 0.47738 0.09982 0.0
Cd142 Cd 0.26863 0.48928 0.0452 0.0
O143 O 0.28115 0.48948 0.1322 0.0
Cd144 Cd 0.32287 0.5035 0.09282 0.0
C145 C 0.31974 0.56035 0.05991 0.0
O146 O 0.30331 0.47337 0.04042 0.0
O147 O 0.34688 0.5104 0.03942 0.0
O148 O 0.33924 0.47541 0.12589 0.0
C149 C 0.32684 0.48899 0.02388 0.0
O150 O 0.29871 0.54156 0.04214 0.0
C151 C 0.36518 0.49618 0.12875 0.0
O152 O 0.33085 0.55275 0.08406 0.0
O153 O 0.37078 0.52091 0.11723 0.0
C154 C 0.7278 0.25844 0.29952 0.0
O155 O 0.71354 0.24893 0.27198 0.0
Cd156 Cd 0.72153 0.27851 0.22163 0.0
O157 O 0.74927 0.28421 0.30074 0.0
Cd158 Cd 0.77413 0.32614 0.26043 0.0
C159 C 0.71573 0.33392 0.25986 0.0
O160 O 0.77012 0.30874 0.20098 0.0
O161 O 0.77376 0.35095 0.20927 0.0
O162 O 0.82384 0.33608 0.2652 0.0
C163 C 0.7735 0.33254 0.18849 0.0
O164 O 0.70565 0.31201 0.24008 0.0
C165 C 0.83299 0.35978 0.2813 0.0
O166 O 0.74058 0.34376 0.27381 0.0
O167 O 0.81443 0.36746 0.28886 0.0
C168 C 0.17971 0.62756 0.37066 0.0
C169 C 0.18117 0.60188 0.37347 0.0
C170 C 0.20445 0.65474 0.37673 0.0
C171 C 0.23098 0.65597 0.38557 0.0
C172 C 0.23242 0.63004 0.38833 0.0
C173 C 0.20756 0.60342 0.3822 0.0
C174 C 0.20228 0.68204 0.37371 0.0
C175 C 0.26037 0.63034 0.39728 0.0
C176 C 0.30624 0.71524 0.36574 0.0
C177 C 0.3172 0.72458 0.39872 0.0
C178 C 0.27691 0.6953 0.36057 0.0
C179 C 0.25823 0.68407 0.38924 0.0
C180 C 0.26854 0.69564 0.42225 0.0
C181 C 0.29812 0.71606 0.42663 0.0
C182 C 0.26683 0.68382 0.32489 0.0
C183 C 0.24913 0.68431 0.45337 0.0
H184 H 0.15923 0.62638 0.36431 0.0
H185 H 0.20885 0.58366 0.38436 0.0
H186 H 0.20895 0.69421 0.39813 0.0
H187 H 0.21736 0.6965 0.35357 0.0
H188 H 0.17991 0.67731 0.36736 0.0
H189 H 0.2574 0.60809 0.39969 0.0
H190 H 0.27698 0.64224 0.3772 0.0
H191 H 0.26908 0.64183 0.42183 0.0
H192 H 0.32096 0.72238 0.344 0.0
H193 H 0.30662 0.7236 0.45207 0.0
H194 H 0.24515 0.68137 0.31965 0.0
H195 H 0.26486 0.66202 0.32261 0.0
H196 H 0.28231 0.69825 0.30498 0.0
H197 H 0.22701 0.6805 0.44758 0.0
H198 H 0.25815 0.69957 0.47523 0.0
H199 H 0.24705 0.66319 0.46132 0.0
C200 C 0.51316 0.18348 0.59668 0.0
C201 C 0.52738 0.18307 0.56663 0.0
C202 C 0.50684 0.20586 0.60251 0.0
C203 C 0.51574 0.22844 0.578 0.0
C204 C 0.52571 0.22537 0.5454 0.0
C205 C 0.53153 0.20255 0.54009 0.0
C206 C 0.49491 0.20763 0.63693 0.0
C207 C 0.53459 0.24857 0.51813 0.0
C208 C 0.51472 0.29916 0.58898 0.0
C209 C 0.5436 0.31755 0.59872 0.0
C210 C 0.50424 0.26927 0.58432 0.0
C211 C 0.52328 0.25801 0.58953 0.0
C212 C 0.55165 0.2763 0.60245 0.0
C213 C 0.56149 0.30592 0.60661 0.0
C214 C 0.47376 0.25054 0.57116 0.0
C215 C 0.5726 0.26519 0.60918 0.0
H216 H 0.50989 0.16819 0.61714 0.0
H217 H 0.5426 0.20213 0.51691 0.0
H218 H 0.51321 0.22135 0.65423 0.0
H219 H 0.4809 0.21769 0.63464 0.0
H220 H 0.48217 0.18576 0.64892 0.0
H221 H 0.53657 0.24052 0.4926 0.0
H222 H 0.51867 0.25637 0.51644 0.0
H223 H 0.556 0.26741 0.52487 0.0
H224 H 0.50111 0.30844 0.58239 0.0
H225 H 0.58388 0.32041 0.61391 0.0
H226 H 0.46421 0.22772 0.58025 0.0
H227 H 0.47425 0.25048 0.54275 0.0
H228 H 0.4594 0.25923 0.57914 0.0
H229 H 0.56246 0.24584 0.62626 0.0
H230 H 0.59308 0.28187 0.62124 0.0
H231 H 0.57817 0.25851 0.58471 0.0
C232 C 0.18669 0.566 0.75379 0.0
C233 C 0.17836 0.57667 0.72568 0.0
C234 C 0.20745 0.55702 0.74982 0.0
C235 C 0.21966 0.55862 0.71701 0.0
C236 C 0.20883 0.56636 0.68812 0.0
C237 C 0.18843 0.57548 0.69286 0.0
C238 C 0.21833 0.54862 0.78118 0.0
C239 C 0.22097 0.56807 0.65264 0.0
C240 C 0.30033 0.58665 0.71259 0.0
C241 C 0.30167 0.56151 0.70489 0.0
C242 C 0.27374 0.58568 0.71713 0.0
C243 C 0.24766 0.55884 0.71384 0.0
C244 C 0.24869 0.53331 0.7058 0.0
C245 C 0.27583 0.53494 0.70132 0.0
C246 C 0.27365 0.61355 0.72531 0.0
C247 C 0.22123 0.50439 0.70213 0.0
H248 H 0.17862 0.56661 0.7791 0.0
H249 H 0.18135 0.58303 0.67094 0.0
H250 H 0.22193 0.5301 0.77569 0.0
H251 H 0.23949 0.56728 0.789 0.0
H252 H 0.20293 0.54268 0.80302 0.0
H253 H 0.20666 0.56904 0.63247 0.0
H254 H 0.24259 0.58796 0.65049 0.0
H255 H 0.22398 0.54911 0.64768 0.0
H256 H 0.32023 0.60728 0.71528 0.0
H257 H 0.27682 0.51542 0.69568 0.0
H258 H 0.26173 0.61102 0.7496 0.0
H259 H 0.26226 0.61854 0.70479 0.0
H260 H 0.29594 0.63241 0.72785 0.0
H261 H 0.20851 0.49876 0.7263 0.0
H262 H 0.22577 0.48658 0.69584 0.0
H263 H 0.20737 0.50576 0.68172 0.0
C264 C 0.73654 0.29672 0.88414 0.0
C265 C 0.72285 0.30867 0.86446 0.0
C266 C 0.72022 0.26887 0.89876 0.0
C267 C 0.68984 0.25326 0.89342 0.0
C268 C 0.67731 0.26322 0.86834 0.0
C269 C 0.69408 0.29104 0.85427 0.0
C270 C 0.73484 0.25829 0.92353 0.0
C271 C 0.64517 0.24678 0.86051 0.0
C272 C 0.62674 0.18549 0.92733 0.0
C273 C 0.61517 0.1983 0.94893 0.0
C274 C 0.65443 0.20238 0.91269 0.0
C275 C 0.67017 0.23248 0.91977 0.0
C276 C 0.66076 0.24381 0.94669 0.0
C277 C 0.63311 0.22645 0.96089 0.0
C278 C 0.66461 0.18893 0.886 0.0
C279 C 0.67731 0.27558 0.95626 0.0
H280 H 0.75894 0.31044 0.89196 0.0
H281 H 0.68368 0.30041 0.83885 0.0
H282 H 0.73638 0.26815 0.94899 0.0
H283 H 0.7226 0.23428 0.92649 0.0
H284 H 0.75732 0.26513 0.91488 0.0
H285 H 0.63975 0.2557 0.8376 0.0
H286 H 0.63774 0.22349 0.85601 0.0
H287 H 0.6328 0.24819 0.88267 0.0
H288 H 0.61278 0.16355 0.91818 0.0
H289 H 0.62404 0.2362 0.97771 0.0
H290 H 0.68862 0.20102 0.88324 0.0
H291 H 0.65492 0.18917 0.8609 0.0
H292 H 0.65738 0.1659 0.89262 0.0
H293 H 0.70093 0.28344 0.9578 0.0
H294 H 0.66992 0.2796 0.98124 0.0
H295 H 0.67389 0.28862 0.93631 0.0
C296 C 0.36704 0.72735 0.01654 0.0
C297 C 0.34075 0.72695 0.02265 0.0
C298 C 0.36895 0.70192 0.02051 0.0
C299 C 0.34404 0.67583 0.03099 0.0
C300 C 0.31733 0.67525 0.03624 0.0
C301 C 0.31601 0.70074 0.03181 0.0
C302 C 0.39763 0.70308 0.01428 0.0
C303 C 0.29016 0.64781 0.04726 0.0
C304 C 0.32884 0.59937 0.01806 0.0
C305 C 0.33121 0.59129 0.05164 0.0
C306 C 0.336 0.62794 0.01012 0.0
C307 C 0.34515 0.6487 0.0366 0.0
C308 C 0.34976 0.64123 0.07002 0.0
C309 C 0.34292 0.6125 0.07712 0.0
C310 C 0.33133 0.63518 0.97403 0.0
C311 C 0.35941 0.66281 0.09894 0.0
H312 H 0.38623 0.74761 0.00955 0.0
H313 H 0.29555 0.70021 0.03636 0.0
H314 H 0.40594 0.69928 0.03872 0.0
H315 H 0.39475 0.6856 -0.00356 0.0
H316 H 0.41425 0.72437 0.0035 0.0
H317 H 0.27121 0.65121 0.0505 0.0
H318 H 0.28449 0.63049 0.028 0.0
H319 H 0.29404 0.63977 0.07191 0.0
H320 H 0.32047 0.58308 -0.0019 0.0
H321 H 0.34501 0.60628 0.10302 0.0
H322 H 0.34933 0.65675 0.96593 0.0
H323 H 0.3109 0.6362 0.97301 0.0
H324 H 0.32959 0.61859 0.95543 0.0
H325 H 0.37756 0.68421 0.09063 0.0
H326 H 0.36642 0.65518 0.12169 0.0
H327 H 0.34108 0.66613 0.10666 0.0
C328 C 0.66831 0.33229 0.26095 0.0
C329 C 0.69847 0.34849 0.26481 0.0
C330 C 0.65136 0.34574 0.26089 0.0
C331 C 0.66496 0.37635 0.26455 0.0
C332 C 0.69534 0.3928 0.26985 0.0
C333 C 0.71184 0.37859 0.27001 0.0
C334 C 0.61888 0.32712 0.25592 0.0
C335 C 0.71067 0.42541 0.27372 0.0
C336 C 0.61195 0.39474 0.22521 0.0
C337 C 0.59378 0.38941 0.25354 0.0
C338 C 0.63854 0.39524 0.22912 0.0
C339 C 0.64664 0.39024 0.26198 0.0
C340 C 0.63076 0.39009 0.29113 0.0
C341 C 0.60427 0.3895 0.28653 0.0
C342 C 0.65563 0.39668 0.19756 0.0
C343 C 0.63924 0.38593 0.32673 0.0
H344 H 0.65795 0.30897 0.25728 0.0
H345 H 0.73526 0.39118 0.27269 0.0
H346 H 0.60709 0.33034 0.27742 0.0
H347 H 0.61227 0.33357 0.23194 0.0
H348 H 0.61181 0.30358 0.25444 0.0
H349 H 0.732 0.43369 0.28663 0.0
H350 H 0.71464 0.43563 0.24794 0.0
H351 H 0.69731 0.43244 0.28839 0.0
H352 H 0.60403 0.39516 0.19972 0.0
H353 H 0.59047 0.38619 0.30857 0.0
H354 H 0.65014 0.37431 0.19018 0.0
H355 H 0.67932 0.40919 0.20261 0.0
H356 H 0.65048 0.40682 0.17563 0.0
H357 H 0.63166 0.3625 0.33107 0.0
H358 H 0.62918 0.39315 0.34658 0.0
H359 H 0.66318 0.39805 0.32994 0.0
C360 C 0.10638 0.60126 0.62248 0.0
C361 C 0.08637 0.58212 0.64654 0.0
C362 C 0.10676 0.59202 0.58885 0.0
C363 C 0.08628 0.56322 0.57913 0.0
C364 C 0.06498 0.54448 0.60291 0.0
C365 C 0.06552 0.55406 0.63642 0.0
C366 C 0.12997 0.61253 0.56428 0.0
C367 C 0.0423 0.5139 0.59339 0.0
C368 C 0.07373 0.54623 0.48434 0.0
C369 C 0.08983 0.53212 0.47837 0.0
C370 C 0.07212 0.55614 0.51704 0.0
C371 C 0.08744 0.55234 0.5444 0.0
C372 C 0.10347 0.53777 0.53868 0.0
C373 C 0.10423 0.52753 0.50571 0.0
C374 C 0.05421 0.57088 0.52221 0.0
C375 C 0.12032 0.53358 0.56721 0.0
H376 H 0.12287 0.62275 0.63053 0.0
H377 H 0.05012 0.53922 0.65516 0.0
H378 H 0.14443 0.60367 0.55751 0.0
H379 H 0.11999 0.61451 0.54017 0.0
H380 H 0.14343 0.63457 0.57525 0.0
H381 H 0.02591 0.50294 0.61401 0.0
H382 H 0.0309 0.51415 0.56966 0.0
H383 H 0.05295 0.50078 0.58814 0.0
H384 H 0.06245 0.54972 0.46326 0.0
H385 H 0.11693 0.51692 0.50108 0.0
H386 H 0.06836 0.59356 0.53085 0.0
H387 H 0.03772 0.55946 0.54256 0.0
H388 H 0.04288 0.57133 0.49846 0.0
H389 H 0.1364 0.55501 0.57779 0.0
H390 H 0.13199 0.52217 0.55849 0.0
H391 H 0.1054 0.52083 0.5884 0.0
C392 C 0.52606 0.09737 0.68079 0.0
C393 C 0.5539 0.11466 0.66681 0.0
C394 C 0.51998 0.10067 0.71484 0.0
C395 C 0.5422 0.12202 0.73538 0.0
C396 C 0.57053 0.13928 0.72163 0.0
C397 C 0.57612 0.13524 0.68747 0.0
C398 C 0.48966 0.08146 0.72872 0.0
C399 C 0.59472 0.16237 0.74278 0.0
C400 C 0.51859 0.14718 0.81419 0.0
C401 C 0.52313 0.13154 0.8402 0.0
C402 C 0.52505 0.14461 0.77987 0.0
C403 C 0.53586 0.12565 0.77153 0.0
C404 C 0.53991 0.10943 0.79768 0.0
C405 C 0.53365 0.1127 0.83166 0.0
C406 C 0.52065 0.16238 0.75259 0.0
C407 C 0.55086 0.08859 0.7898 0.0
H408 H 0.50883 0.0814 0.66487 0.0
H409 H 0.59756 0.14889 0.67661 0.0
H410 H 0.49045 0.06934 0.7516 0.0
H411 H 0.48014 0.095 0.73696 0.0
H412 H 0.47498 0.06555 0.70952 0.0
H413 H 0.61547 0.17404 0.72827 0.0
H414 H 0.58848 0.17844 0.75157 0.0
H415 H 0.59837 0.15243 0.76599 0.0
H416 H 0.51068 0.16193 0.82074 0.0
H417 H 0.53707 0.10042 0.85167 0.0
H418 H 0.50488 0.14778 0.73327 0.0
H419 H 0.54146 0.17633 0.73899 0.0
H420 H 0.51253 0.17644 0.76332 0.0
H421 H 0.53602 0.07186 0.77148 0.0
H422 H 0.5526 0.07742 0.81312 0.0
H423 H 0.57256 0.10043 0.77743 0.0
C424 C 0.35587 0.49211 0.973 0.0
C425 C 0.32951 0.48775 -0.01346 0.0
C426 C 0.36294 0.49946 0.93842 0.0
C427 C 0.34344 0.50329 0.91714 0.0
C428 C 0.31606 0.49739 0.93029 0.0
C429 C 0.30929 0.48941 0.96492 0.0
C430 C 0.392 0.5048 0.92526 0.0
C431 C 0.29481 0.50148 0.90848 0.0
C432 C 0.37702 0.55615 0.84228 0.0
C433 C 0.36984 0.53707 0.81466 0.0
C434 C 0.36823 0.54543 0.87578 0.0
C435 C 0.35244 0.51495 0.88174 0.0
C436 C 0.34577 0.49567 0.85398 0.0
C437 C 0.35432 0.50696 0.8208 0.0
C438 C 0.37547 0.56668 0.90475 0.0
C439 C 0.32961 0.46311 0.85933 0.0
H440 H 0.37163 0.49118 -0.01005 0.0
H441 H 0.28923 0.48676 0.97568 0.0
H442 H 0.38927 0.49304 0.90089 0.0
H443 H 0.40623 0.52833 0.91986 0.0
H444 H 0.40319 0.49781 0.94396 0.0
H445 H 0.2736 0.49375 0.92162 0.0
H446 H 0.30408 0.5249 0.90219 0.0
H447 H 0.29098 0.48971 0.88393 0.0
H448 H 0.3888 0.57941 0.83759 0.0
H449 H 0.34885 0.49208 0.79952 0.0
H450 H 0.38914 0.56354 0.92394 0.0
H451 H 0.35523 0.56261 0.91797 0.0
H452 H 0.38722 0.58965 0.89577 0.0
H453 H 0.34165 0.45683 0.87757 0.0
H454 H 0.32654 0.45108 0.83506 0.0
H455 H 0.30795 0.45613 0.87078 0.0
C456 C 0.74932 0.34176 0.13979 0.0
C457 C 0.77154 0.33694 0.15167 0.0
C458 C 0.74898 0.35017 0.10577 0.0
C459 C 0.77201 0.35482 0.08352 0.0
C460 C 0.79433 0.34955 0.09537 0.0
C461 C 0.79363 0.34028 0.12935 0.0
C462 C 0.72433 0.35467 0.09389 0.0
C463 C 0.81946 0.3547 0.07252 0.0
C464 C 0.76242 0.35569 -0.01263 0.0
C465 C 0.77539 0.38557 0.98038 0.0
C466 C 0.76067 0.34537 0.02089 0.0
C467 C 0.77285 0.36548 0.04797 0.0
C468 C 0.78582 0.39574 0.04106 0.0
C469 C 0.78652 0.40543 0.00727 0.0
C470 C 0.74568 0.31296 0.0273 0.0
C471 C 0.79964 0.41785 0.06919 0.0
H472 H 0.73238 0.33932 0.15737 0.0
H473 H 0.81104 0.33703 0.13894 0.0
H474 H 0.73274 0.3779 0.08733 0.0
H475 H 0.71441 0.34191 0.07037 0.0
H476 H 0.70713 0.34818 0.11371 0.0
H477 H 0.83499 0.3495 0.08558 0.0
H478 H 0.81132 0.34125 0.04913 0.0
H479 H 0.83132 0.37781 0.06414 0.0
H480 H 0.75354 0.34032 0.96648 0.0
H481 H 0.79677 0.42852 0.00169 0.0
H482 H 0.72612 0.30631 0.04346 0.0
H483 H 0.76022 0.30709 0.04148 0.0
H484 H 0.7389 0.30032 0.00319 0.0
H485 H 0.78326 0.41429 0.08912 0.0
H486 H 0.80924 0.44054 0.05949 0.0
H487 H 0.81699 0.41517 0.08174 0.0
C488 C 0.36752 0.78503 0.15003 0.0
C489 C 0.3548 0.80199 0.14145 0.0
C490 C 0.37733 0.78488 0.18334 0.0
C491 C 0.37513 0.80282 0.20851 0.0
C492 C 0.36228 0.82004 0.2 0.0
C493 C 0.35185 0.8191 0.1666 0.0
C494 C 0.38991 0.76543 0.19159 0.0
C495 C 0.35996 0.83977 0.22604 0.0
C496 C 0.37423 0.7838 0.30236 0.0
C497 C 0.40303 0.80257 0.31216 0.0
C498 C 0.36509 0.78322 0.26861 0.0
C499 C 0.38512 0.80251 0.24411 0.0
C500 C 0.41446 0.82128 0.25371 0.0
C501 C 0.42321 0.82083 0.2877 0.0
C502 C 0.33388 0.76222 0.25934 0.0
C503 C 0.4363 0.84247 0.22839 0.0
H504 H 0.36972 0.77169 0.13058 0.0
H505 H 0.34236 0.8325 0.15984 0.0
H506 H 0.41269 0.77869 0.20036 0.0
H507 H 0.37745 0.75034 0.21282 0.0
H508 H 0.38955 0.75238 0.16921 0.0
H509 H 0.35053 0.85266 0.21501 0.0
H510 H 0.34618 0.82672 0.24787 0.0
H511 H 0.3818 0.85496 0.23645 0.0
H512 H 0.35865 0.7697 0.32141 0.0
H513 H 0.44537 0.83561 0.2955 0.0
H514 H 0.33311 0.74818 0.2379 0.0
H515 H 0.32298 0.77437 0.25051 0.0
H516 H 0.32135 0.7481 0.28127 0.0
H517 H 0.43791 0.83067 0.20586 0.0
H518 H 0.45826 0.85543 0.23978 0.0
H519 H 0.42894 0.85757 0.21893 0.0
C520 C 0.48507 0.35135 0.33929 0.0
C521 C 0.48349 0.37298 0.32015 0.0
C522 C 0.49418 0.35623 0.37358 0.0
C523 C 0.50125 0.38312 0.38901 0.0
C524 C 0.49743 0.40402 0.37049 0.0
C525 C 0.48882 0.39878 0.33617 0.0
C526 C 0.49808 0.33346 0.39253 0.0
C527 C 0.50402 0.43263 0.38629 0.0
C528 C 0.50778 0.3889 0.48558 0.0
C529 C 0.53803 0.40319 0.49016 0.0
C530 C 0.49553 0.38241 0.45282 0.0
C531 C 0.51395 0.39002 0.42391 0.0
C532 C 0.54455 0.40464 0.42828 0.0
C533 C 0.55628 0.41131 0.46145 0.0
C534 C 0.46287 0.36733 0.44917 0.0
C535 C 0.56485 0.41284 0.39793 0.0
H536 H 0.48125 0.33152 0.32685 0.0
H537 H 0.4876 0.41552 0.32129 0.0
H538 H 0.52155 0.34187 0.39744 0.0
H539 H 0.48699 0.3286 0.41777 0.0
H540 H 0.4895 0.3129 0.3779 0.0
H541 H 0.49716 0.44521 0.36962 0.0
H542 H 0.49296 0.42892 0.41145 0.0
H543 H 0.52773 0.44599 0.39089 0.0
H544 H 0.49357 0.38273 0.50774 0.0
H545 H 0.57963 0.42214 0.46496 0.0
H546 H 0.45493 0.34616 0.43615 0.0
H547 H 0.45664 0.38066 0.43299 0.0
H548 H 0.45162 0.36335 0.47428 0.0
H549 H 0.55984 0.39312 0.383 0.0
H550 H 0.58805 0.42366 0.4057 0.0
H551 H 0.56165 0.42772 0.38063 0.0
C552 C 0.8729 0.39896 0.31544 0.0
C553 C 0.86405 0.37804 0.28961 0.0
C554 C 0.90244 0.41648 0.32333 0.0
C555 C 0.92353 0.41338 0.30434 0.0
C556 C 0.9147 0.39265 0.27781 0.0
C557 C 0.88501 0.37497 0.27103 0.0
C558 C 0.91105 0.43793 0.35231 0.0
C559 C 0.93661 0.38913 0.25659 0.0
C560 C 0.0014 0.47561 0.30745 0.0
C561 C 0.01385 0.46475 0.33077 0.0
C562 C -0.02793 0.45891 0.29809 0.0
C563 C -0.04522 0.43107 0.31307 0.0
C564 C -0.0327 0.42004 0.33661 0.0
C565 C -0.00323 0.4369 0.34487 0.0
C566 C -0.04045 0.47105 0.2723 0.0
C567 C -0.05057 0.39066 0.35356 0.0
H568 H 0.85669 0.40132 0.32985 0.0
H569 H 0.87822 0.35901 0.25077 0.0
H570 H 0.92292 0.43283 0.37213 0.0
H571 H 0.92601 0.46025 0.34279 0.0
H572 H 0.89198 0.43769 0.36451 0.0
H573 H 0.92622 0.37303 0.23576 0.0
H574 H -0.04745 0.41032 0.24503 0.0
H575 H -0.05106 0.38197 0.27316 0.0
H576 H 0.0146 0.49711 0.29645 0.0
H577 H 0.00625 0.42852 0.36316 0.0
H578 H 0.94184 0.4734 0.28428 0.0
H579 H -0.05009 0.45578 0.2506 0.0
H580 H -0.02383 0.49258 0.26208 0.0
H581 H 0.93099 0.39006 0.36777 0.0
H582 H -0.03758 0.38546 0.37168 0.0
H583 H 0.94007 0.3734 0.33389 0.0
C584 C 0.43806 0.89248 0.48668 0.0
C585 C 0.45159 0.88432 0.46171 0.0
C586 C 0.45113 0.92131 0.49818 0.0
C587 C 0.47799 0.94241 0.48377 0.0
C588 C 0.49147 0.93431 0.45818 0.0
C589 C 0.47825 0.90529 0.44772 0.0
C590 C 0.43645 0.92914 0.52599 0.0
C591 C 0.51987 0.95631 0.44182 0.0
C592 C 0.50109 0.0224 0.49137 0.0
C593 C 0.52209 0.03123 0.51721 0.0
C594 C 0.4864 -0.00655 0.48027 0.0
C595 C 0.4925 -0.02713 0.49594 0.0
C596 C 0.51335 -0.01839 0.52242 0.0
C597 C 0.52813 0.01078 0.53248 0.0
C598 C 0.46472 -0.01502 0.45147 0.0
C599 C 0.52008 0.96016 0.54008 0.0
H600 H 0.41747 0.87626 0.49755 0.0
H601 H 0.48864 0.89912 0.42813 0.0
H602 H 0.45108 0.93794 0.54842 0.0
H603 H 0.43203 0.94643 0.51676 0.0
H604 H 0.41564 0.91017 0.53452 0.0
H605 H 0.52688 0.94665 0.42128 0.0
H606 H 0.51778 -0.02547 0.4307 0.0
H607 H 0.5372 -0.03436 0.46147 0.0
H608 H 0.49642 0.03821 0.47952 0.0
H609 H 0.54413 0.01748 0.55275 0.0
H610 H 0.44315 -0.0327 0.46002 0.0
H611 H 0.47169 -0.02353 0.42967 0.0
H612 H 0.4623 0.00355 0.44221 0.0
H613 H 0.49982 0.94164 0.55049 0.0
H614 H 0.53583 -0.0298 0.56136 0.0
H615 H 0.52925 0.95114 0.52137 0.0
C616 C 0.4275 0.50272 0.64869 0.0
C617 C 0.43811 0.52647 0.6709 0.0
C618 C 0.44425 0.48963 0.64084 0.0
C619 C 0.47188 0.50021 0.65621 0.0
C620 C 0.4826 0.52412 0.67875 0.0
C621 C 0.46571 0.53716 0.68553 0.0
C622 C 0.43244 0.46455 0.61609 0.0
C623 C 0.51176 0.53569 0.69604 0.0
C624 C 0.50328 0.44948 0.65976 0.0
C625 C 0.52358 0.46043 0.63298 0.0
C626 C 0.48654 0.4625 0.66798 0.0
C627 C 0.48981 0.48655 0.6484 0.0
C628 C 0.51035 0.49772 0.62141 0.0
C629 C 0.52722 0.48471 0.61427 0.0
C630 C 0.4653 0.45047 0.69747 0.0
C631 C 0.51409 0.52305 0.59963 0.0
H632 H 0.40619 0.49446 0.63733 0.0
H633 H 0.47387 0.55536 0.703 0.0
H634 H 0.44778 0.46975 0.59436 0.0
H635 H 0.43034 0.44487 0.62899 0.0
H636 H 0.41086 0.45938 0.60576 0.0
H637 H 0.51662 0.55403 0.7135 0.0
H638 H 0.51231 0.51808 0.71101 0.0
H639 H 0.52927 0.54325 0.67652 0.0
H640 H 0.50046 0.43072 0.67426 0.0
H641 H 0.54269 0.49307 0.59329 0.0
H642 H 0.44287 0.4425 0.68805 0.0
H643 H 0.47003 0.46791 0.71626 0.0
H644 H 0.4661 0.4323 0.71086 0.0
H645 H 0.49314 0.51769 0.58734 0.0
H646 H 0.53078 0.52886 0.57929 0.0
H647 H 0.5205 0.54241 0.61586 0.0
C648 C 0.01557 0.52761 0.82655 0.0
C649 C 0.02272 0.55178 0.8055 0.0
C650 C -0.0131 0.50976 0.83797 0.0
C651 C -0.03503 0.51599 0.82742 0.0
C652 C -0.02776 0.54075 0.80681 0.0
C653 C 0.00109 0.55851 0.7964 0.0
C654 C -0.02004 0.48389 0.8606 0.0
C655 C -0.05063 0.54787 0.79465 0.0
C656 C 0.8868 0.45518 0.82242 0.0
C657 C 0.87442 0.46127 0.85064 0.0
C658 C 0.91645 0.47255 0.81491 0.0
C659 C 0.93414 0.49611 0.83661 0.0
C660 C 0.92192 0.50173 0.86579 0.0
C661 C 0.89209 0.48442 0.87225 0.0
C662 C 0.92866 0.46626 0.78318 0.0
C663 C 0.94026 0.52631 0.88985 0.0
H664 H 0.03227 0.52243 0.83373 0.0
H665 H 0.00648 0.57709 0.77997 0.0
H666 H -0.03204 0.48416 0.88376 0.0
H667 H -0.03433 0.4635 0.84669 0.0
H668 H -0.00017 0.48342 0.86875 0.0
H669 H -0.04124 0.56827 0.77928 0.0
H670 H 0.93312 0.52982 0.77874 0.0
H671 H 0.93759 0.55015 0.81684 0.0
H672 H 0.87314 0.43729 0.80569 0.0
H673 H 0.8826 0.48894 0.89435 0.0
H674 H -0.05277 0.46307 0.79 0.0
H675 H 0.937 0.48512 0.76534 0.0
H676 H 0.91216 0.44662 0.76954 0.0
H677 H -0.04052 0.52478 0.89828 0.0
H678 H 0.92791 0.52629 0.91286 0.0
H679 H -0.05154 0.54745 0.87636 0.0
C680 C 0.46827 0.04107 0.00805 0.0
C681 C 0.45975 0.05335 0.98175 0.0
C682 C 0.45298 0.011 0.01432 0.0
C683 C 0.42912 -0.00713 -0.00677 0.0
C684 C 0.42023 0.00522 0.96691 0.0
C685 C 0.43547 0.03538 0.96174 0.0
C686 C 0.46258 -0.0014 0.04318 0.0
C687 C 0.39516 -0.01351 0.94357 0.0
C688 C 0.40842 0.9134 -0.01311 0.0
C689 C 0.3836 0.90017 0.00769 0.0
C690 C 0.42336 0.94363 0.9817 0.0
C691 C 0.41356 0.96091 -0.00159 0.0
C692 C 0.38868 0.94763 0.01971 0.0
C693 C 0.3738 0.91736 0.02378 0.0
C694 C 0.44948 0.95704 0.9582 0.0
C695 C 0.37795 -0.03457 0.03846 0.0
H696 H 0.487 0.05496 0.02359 0.0
H697 H 0.42899 0.04478 0.94115 0.0
H698 H 0.44403 -0.01455 0.06062 0.0
H699 H 0.46996 -0.01611 0.03272 0.0
H700 H 0.48058 0.01582 0.05831 0.0
H701 H 0.39097 -0.00045 0.92437 0.0
H702 H 0.39979 -0.02907 0.92982 0.0
H703 H 0.37507 -0.0265 0.95881 0.0
H704 H 0.41597 0.90011 0.97439 0.0
H705 H 0.35476 0.90719 0.0402 0.0
H706 H 0.46902 -0.02721 0.97255 0.0
H707 H 0.44601 -0.03071 0.93729 0.0
H708 H 0.45392 0.9405 0.94664 0.0
H709 H 0.39551 -0.01823 0.05483 0.0
H710 H 0.35872 0.95178 0.05484 0.0
H711 H 0.37201 -0.02249 0.01984 0.0
C712 C 0.41505 0.50394 0.12168 0.0
C713 C 0.38853 0.49049 0.13943 0.0
C714 C 0.43519 0.49424 0.12576 0.0
C715 C 0.42891 0.47124 0.14898 0.0
C716 C 0.40315 0.45921 0.16894 0.0
C717 C 0.38294 0.4686 0.16339 0.0
C718 C 0.46199 0.50706 0.10337 0.0
C719 C 0.39621 0.43537 0.1949 0.0
C720 C 0.45444 0.4166 0.13757 0.0
C721 C 0.47674 0.42619 0.16174 0.0
C722 C 0.4402 0.43249 0.13115 0.0
C723 C 0.44775 0.45785 0.15044 0.0
C724 C 0.47135 0.46845 0.17353 0.0
C725 C 0.48593 0.45268 0.17848 0.0
C726 C 0.41587 0.42114 0.1053 0.0
C727 C 0.4796 0.49497 0.19516 0.0
H728 H 0.41915 0.52061 0.10272 0.0
H729 H 0.36239 0.45826 0.17708 0.0
H730 H 0.48162 0.51233 0.11868 0.0
H731 H 0.45967 0.4908 0.08397 0.0
H732 H 0.46548 0.52705 0.08979 0.0
H733 H 0.37732 0.43107 0.21128 0.0
H734 H 0.39113 0.41498 0.18148 0.0
H735 H 0.41526 0.44119 0.21158 0.0
H736 H 0.44742 0.39612 0.12462 0.0
H737 H 0.50296 0.45988 0.19756 0.0
H738 H 0.41796 0.43904 0.08845 0.0
H739 H 0.39469 0.41205 0.11882 0.0
H740 H 0.41556 0.4038 0.08909 0.0
H741 H 0.48096 0.51308 0.17938 0.0
H742 H 0.5007 0.50254 0.20838 0.0
H743 H 0.46253 0.48961 0.21484 0.0
C744 C 0.15571 0.45967 0.2984 0.0
C745 C 0.15666 0.48648 0.30234 0.0
C746 C 0.17117 0.45539 0.27174 0.0
C747 C 0.18802 0.47849 0.24864 0.0
C748 C 0.18953 0.50573 0.25308 0.0
C749 C 0.17387 0.50935 0.27972 0.0
C750 C 0.16903 0.42604 0.26787 0.0
C751 C 0.20737 0.53105 0.22928 0.0
C752 C 0.249 0.48247 0.19318 0.0
C753 C 0.23613 0.47611 0.16059 0.0
C754 C 0.23314 0.48173 0.22245 0.0
C755 C 0.20366 0.47442 0.21917 0.0
C756 C 0.19012 0.46645 0.18668 0.0
C757 C 0.20649 0.46741 0.15784 0.0
C758 C 0.24844 0.49034 0.25656 0.0
C759 C 0.1587 0.45837 0.18203 0.0
H760 H 0.14246 0.44188 0.31572 0.0
H761 H 0.17495 0.53022 0.2826 0.0
H762 H 0.15868 0.41636 0.24303 0.0
H763 H 0.19106 0.42844 0.26759 0.0
H764 H 0.15614 0.41075 0.28879 0.0
H765 H 0.2069 0.55104 0.23679 0.0
H766 H 0.2303 0.53593 0.22901 0.0
H767 H 0.19901 0.52535 0.20276 0.0
H768 H 0.27181 0.48906 0.19575 0.0
H769 H 0.19621 0.46224 0.1329 0.0
H770 H 0.23521 0.47435 0.27669 0.0
H771 H 0.25122 0.51173 0.26425 0.0
H772 H 0.2702 0.49205 0.25567 0.0
H773 H 0.1448 0.44186 0.20135 0.0
H774 H 0.15052 0.44969 0.15608 0.0
H775 H 0.15636 0.47786 0.18599 0.0
C776 C 0.73506 0.24479 0.35895 0.0
C777 C 0.71648 0.2414 0.33161 0.0
C778 C 0.72382 0.23155 0.39094 0.0
C779 C 0.69331 0.21566 0.39605 0.0
C780 C 0.67454 0.21162 0.36821 0.0
C781 C 0.68637 0.22407 0.33622 0.0
C782 C 0.74457 0.23533 0.41952 0.0
C783 C 0.64191 0.19563 0.37267 0.0
C784 C 0.65491 0.16527 0.47158 0.0
C785 C 0.65035 0.18362 0.49334 0.0
C786 C 0.67061 0.17587 0.44082 0.0
C787 C 0.68078 0.20516 0.43091 0.0
C788 C 0.67667 0.22387 0.45321 0.0
C789 C 0.662 0.213 0.48446 0.0
C790 C 0.67558 0.15554 0.4185 0.0
C791 C 0.68628 0.25496 0.44324 0.0
H792 H 0.75835 0.25811 0.35545 0.0
H793 H 0.67189 0.22168 0.31531 0.0
H794 H 0.74426 0.25036 0.43896 0.0
H795 H 0.73778 0.2142 0.4325 0.0
H796 H 0.76723 0.24433 0.4101 0.0
H797 H 0.63035 0.19394 0.34831 0.0
H798 H 0.63431 0.17339 0.38276 0.0
H799 H 0.63569 0.20714 0.39166 0.0
H800 H 0.64604 0.14257 0.47854 0.0
H801 H 0.65822 0.22714 0.5011 0.0
H802 H 0.69858 0.16616 0.4099 0.0
H803 H 0.66187 0.15014 0.39526 0.0
H804 H 0.67018 0.13494 0.43204 0.0
H805 H 0.70984 0.26681 0.43719 0.0
H806 H 0.68203 0.26684 0.46377 0.0
H807 H 0.6746 0.25531 0.41979 0.0
C808 C 0.39809 0.6443 0.61296 0.0
C809 C 0.42072 0.64788 0.63473 0.0
C810 C 0.40313 0.66311 0.58515 0.0
C811 C 0.43162 0.68615 0.57856 0.0
C812 C 0.45456 0.6903 0.60075 0.0
C813 C 0.44883 0.67116 0.62869 0.0
C814 C 0.37792 0.65799 0.56248 0.0
C815 C 0.48522 0.71456 0.59454 0.0
C816 C 0.44202 0.71226 0.48597 0.0
C817 C 0.43675 0.73574 0.48805 0.0
C818 C 0.44225 0.69703 0.51552 0.0
C819 C 0.43699 0.70535 0.54801 0.0
C820 C 0.43335 0.73005 0.55048 0.0
C821 C 0.43333 0.74494 0.52055 0.0
C822 C 0.44647 0.67098 0.51172 0.0
C823 C 0.42769 0.73972 0.58454 0.0
H824 H 0.37625 0.62651 0.6175 0.0
H825 H 0.46645 0.67403 0.64529 0.0
H826 H 0.37585 0.67785 0.56134 0.0
H827 H 0.38189 0.65329 0.53599 0.0
H828 H 0.35696 0.63958 0.57163 0.0
H829 H 0.5004 0.71566 0.61488 0.0
H830 H 0.49315 0.71136 0.56953 0.0
H831 H 0.48573 0.73575 0.59318 0.0
H832 H 0.44489 0.70503 0.46109 0.0
H833 H 0.42941 0.76313 0.52261 0.0
H834 H 0.42565 0.65082 0.51715 0.0
H835 H 0.46266 0.67194 0.53048 0.0
H836 H 0.45378 0.66943 0.48554 0.0
H837 H 0.4057 0.72353 0.59385 0.0
H838 H 0.42891 0.76125 0.58275 0.0
H839 H 0.44354 0.74092 0.60395 0.0
C840 C 0.74089 0.45473 0.78189 0.0
C841 C 0.72161 0.43386 0.80525 0.0
C842 C 0.73067 0.46054 0.75119 0.0
C843 C 0.70072 0.44415 0.74308 0.0
C844 C 0.6812 0.42335 0.76689 0.0
C845 C 0.69181 0.41889 0.7979 0.0
C846 C 0.75198 0.48375 0.72717 0.0
C847 C 0.64923 0.40473 0.75895 0.0
C848 C 0.66023 0.46156 0.67506 0.0
C849 C 0.65905 0.44349 0.64828 0.0
C850 C 0.67599 0.46406 0.70506 0.0
C851 C 0.6897 0.44702 0.70893 0.0
C852 C 0.68958 0.42972 0.68129 0.0
C853 C 0.67471 0.42862 0.65106 0.0
C854 C 0.67668 0.48376 0.73327 0.0
C855 C 0.70306 0.41047 0.68461 0.0
H856 H 0.76393 0.46644 0.78759 0.0
H857 H 0.67687 0.4025 0.81571 0.0
H858 H 0.75502 0.47351 0.70401 0.0
H859 H 0.74344 0.49813 0.71861 0.0
H860 H 0.77353 0.49728 0.7393 0.0
H861 H 0.63702 0.38938 0.78012 0.0
H862 H 0.63939 0.41865 0.75404 0.0
H863 H 0.64647 0.392 0.73539 0.0
H864 H 0.64822 0.47319 0.67288 0.0
H865 H 0.67356 0.41435 0.63056 0.0
H866 H 0.69881 0.49608 0.74434 0.0
H867 H 0.66167 0.47051 0.75414 0.0
H868 H 0.66995 0.49942 0.72398 0.0
H869 H 0.72585 0.4232 0.69349 0.0
H870 H 0.70279 0.39983 0.66006 0.0
H871 H 0.69091 0.39329 0.70409 0.0
C872 C 0.23237 0.76692 0.95165 0.0
C873 C 0.25599 0.76246 0.9578 0.0
C874 C 0.21351 0.7534 0.92382 0.0
C875 C 0.21824 0.73477 0.90201 0.0
C876 C 0.24176 0.72987 0.9086 0.0
C877 C 0.26033 0.74383 0.93618 0.0
C878 C 0.18879 0.7593 0.91746 0.0
C879 C 0.24744 0.70989 0.88641 0.0
C880 C 0.1597 0.67577 0.84733 0.0
C881 C 0.16828 0.68733 0.81415 0.0
C882 C 0.17468 0.69168 0.87637 0.0
C883 C 0.19877 0.72 0.87231 0.0
C884 C 0.20639 0.73252 0.8391 0.0
C885 C 0.19115 0.71602 0.81042 0.0
C886 C 0.16585 0.67739 0.91122 0.0
C887 C 0.23174 0.76277 0.83365 0.0
H888 H 0.22895 0.78136 0.96815 0.0
H889 H 0.27838 0.74005 0.94085 0.0
H890 H 0.19122 0.76929 0.89175 0.0
H891 H 0.1678 0.73859 0.91765 0.0
H892 H 0.18782 0.77403 0.93692 0.0
H893 H 0.26639 0.70805 0.89533 0.0
H894 H 0.22804 0.68783 0.88625 0.0
H895 H 0.25153 0.71801 0.8596 0.0
H896 H 0.14196 0.65371 0.85066 0.0
H897 H 0.19784 0.7253 0.78499 0.0
H898 H 0.16431 0.69228 0.9299 0.0
H899 H 0.18267 0.6724 0.92072 0.0
H900 H 0.14468 0.65683 0.91057 0.0
H901 H 0.23061 0.7782 0.85186 0.0
H902 H 0.23247 0.77082 0.80713 0.0
H903 H 0.25235 0.76272 0.83864 0.0
C904 C 0.49889 0.26764 0.15532 0.0
C905 C 0.48442 0.28377 0.15493 0.0
C906 C 0.49959 0.25262 0.12613 0.0
C907 C 0.48455 0.25286 0.09623 0.0
C908 C 0.46861 0.26788 0.09634 0.0
C909 C 0.46924 0.28368 0.12547 0.0
C910 C 0.51763 0.2377 0.1268 0.0
C911 C 0.45142 0.26779 0.06545 0.0
C912 C 0.51333 0.24292 0.01121 0.0
C913 C 0.49624 0.21289 0.00612 0.0
C914 C 0.50953 0.2562 0.04025 0.0
C915 C 0.48737 0.23921 0.0642 0.0
C916 C 0.4691 0.20908 0.05832 0.0
C917 C 0.47415 0.19614 0.02968 0.0
C918 C 0.53009 0.2882 0.04602 0.0
C919 C 0.44455 0.19044 0.08255 0.0
H920 H 0.51089 0.26793 0.17796 0.0
H921 H 0.45788 0.29601 0.12523 0.0
H922 H 0.50407 0.21445 0.12 0.0
H923 H 0.53525 0.24783 0.10741 0.0
H924 H 0.52759 0.23908 0.15226 0.0
H925 H 0.43746 0.27749 0.07106 0.0
H926 H 0.46646 0.28035 0.04427 0.0
H927 H 0.43747 0.24523 0.05625 0.0
H928 H 0.53065 0.25588 -0.00675 0.0
H929 H 0.46081 0.17293 0.02569 0.0
H930 H 0.54205 0.29119 0.07037 0.0
H931 H 0.51775 0.29999 0.04843 0.0
H932 H 0.54616 0.29832 0.02491 0.0
H933 H 0.45348 0.18859 0.10753 0.0
H934 H 0.43045 0.1682 0.07243 0.0
H935 H 0.43099 0.20069 0.0874 0.0
loop_
_geom_bond_atom_site_label_1
_geom_bond_atom_site_label_2
_geom_bond_distance
_geom_bond_site_symmetry_2
_ccdc_geom_bond_type
C0 O1 1.306 . S
C0 O3 1.160 . S
O1 C0 1.306 . S
O1 Cd2 2.228 . S
Cd2 O1 2.228 . S
Cd2 O6 2.273 . S
Cd2 O10 2.277 . S
O3 C0 1.160 . S
O3 Cd4 2.203 . S
Cd4 O3 2.203 . S
Cd4 O6 2.411 . S
Cd4 O7 2.333 . S
Cd4 O8 2.352 . S
Cd4 O12 2.277 . S
Cd4 O13 2.356 . S
C5 O10 1.209 . S
C5 O12 1.226 . S
O6 Cd2 2.273 . S
O6 Cd4 2.411 . S
O6 C9 1.320 . S
O7 Cd4 2.333 . S
O7 C9 1.214 . S
O8 Cd4 2.352 . S
O8 C11 1.258 . S
C9 O6 1.320 . S
C9 O7 1.214 . S
O10 Cd2 2.277 . S
O10 C5 1.209 . S
C11 O8 1.258 . S
C11 O13 1.282 . S
O12 Cd4 2.277 . S
O12 C5 1.226 . S
O13 Cd4 2.356 . S
O13 C11 1.282 . S
C14 O15 1.306 . S
C14 O17 1.160 . S
O15 C14 1.306 . S
O15 Cd16 2.228 . S
Cd16 O15 2.228 . S
Cd16 O20 2.273 . S
Cd16 O24 2.277 . S
O17 C14 1.160 . S
O17 Cd18 2.203 . S
Cd18 O17 2.203 . S
Cd18 O20 2.411 . S
Cd18 O21 2.333 . S
Cd18 O22 2.352 . S
Cd18 O26 2.277 . S
Cd18 O27 2.356 . S
C19 O24 1.209 . S
C19 O26 1.226 . S
O20 Cd16 2.273 . S
O20 Cd18 2.411 . S
O20 C23 1.320 . S
O21 Cd18 2.333 . S
O21 C23 1.214 . S
O22 Cd18 2.352 . S
O22 C25 1.258 . S
C23 O20 1.320 . S
C23 O21 1.214 . S
O24 Cd16 2.277 . S
O24 C19 1.209 . S
C25 O22 1.258 . S
C25 O27 1.282 . S
O26 Cd18 2.277 . S
O26 C19 1.226 . S
O27 Cd18 2.356 . S
O27 C25 1.282 . S
C28 O29 1.306 . S
C28 O31 1.160 . S
O29 C28 1.306 . S
O29 Cd30 2.228 . S
Cd30 O29 2.228 . S
Cd30 O34 2.273 . S
Cd30 O38 2.277 . S
O31 C28 1.160 . S
O31 Cd32 2.203 . S
Cd32 O31 2.203 . S
Cd32 O34 2.411 . S
Cd32 O35 2.333 . S
Cd32 O36 2.352 . S
Cd32 O40 2.277 . S
Cd32 O41 2.356 . S
C33 O38 1.209 . S
C33 O40 1.226 . S
O34 Cd30 2.273 . S
O34 Cd32 2.411 . S
O34 C37 1.320 . S
O35 Cd32 2.333 . S
O35 C37 1.214 . S
O36 Cd32 2.352 . S
O36 C39 1.258 . S
C37 O34 1.320 . S
C37 O35 1.214 . S
O38 Cd30 2.277 . S
O38 C33 1.209 . S
C39 O36 1.258 . S
C39 O41 1.282 . S
O40 Cd32 2.277 . S
O40 C33 1.226 . S
O41 Cd32 2.356 . S
O41 C39 1.282 . S
C42 O43 1.306 . S
C42 O45 1.160 . S
O43 C42 1.306 . S
O43 Cd44 2.228 . S
Cd44 O43 2.228 . S
Cd44 O48 2.273 . S
Cd44 O52 2.277 . S
O45 C42 1.160 . S
O45 Cd46 2.203 . S
Cd46 O45 2.203 . S
Cd46 O48 2.411 . S
Cd46 O49 2.333 . S
Cd46 O50 2.352 . S
Cd46 O54 2.277 . S
Cd46 O55 2.356 . S
C47 O52 1.209 . S
C47 O54 1.226 . S
O48 Cd44 2.273 . S
O48 Cd46 2.411 . S
O48 C51 1.320 . S
O49 Cd46 2.333 . S
O49 C51 1.214 . S
O50 Cd46 2.352 . S
O50 C53 1.258 . S
C51 O48 1.320 . S
C51 O49 1.214 . S
O52 Cd44 2.277 . S
O52 C47 1.209 . S
C53 O50 1.258 . S
C53 O55 1.282 . S
O54 Cd46 2.277 . S
O54 C47 1.226 . S
O55 Cd46 2.356 . S
O55 C53 1.282 . S
C56 O57 1.306 . S
C56 O59 1.160 . S
O57 C56 1.306 . S
O57 Cd58 2.228 . S
Cd58 O57 2.228 . S
Cd58 O62 2.273 . S
Cd58 O66 2.277 . S
O59 C56 1.160 . S
O59 Cd60 2.203 . S
Cd60 O59 2.203 . S
Cd60 O62 2.411 . S
Cd60 O63 2.333 . S
Cd60 O64 2.352 . S
Cd60 O68 2.277 . S
Cd60 O69 2.356 . S
C61 O66 1.209 . S
C61 O68 1.226 . S
O62 Cd58 2.273 . S
O62 Cd60 2.411 . S
O62 C65 1.320 . S
O63 Cd60 2.333 . S
O63 C65 1.214 . S
O64 Cd60 2.352 . S
O64 C67 1.258 . S
C65 O62 1.320 . S
C65 O63 1.214 . S
O66 Cd58 2.277 . S
O66 C61 1.209 . S
C67 O64 1.258 . S
C67 O69 1.282 . S
O68 Cd60 2.277 . S
O68 C61 1.226 . S
O69 Cd60 2.356 . S
O69 C67 1.282 . S
C70 O71 1.306 . S
C70 O73 1.160 . S
O71 C70 1.306 . S
O71 Cd72 2.228 . S
Cd72 O71 2.228 . S
Cd72 O76 2.273 . S
Cd72 O80 2.277 . S
O73 C70 1.160 . S
O73 Cd74 2.203 . S
Cd74 O73 2.203 . S
Cd74 O76 2.411 . S
Cd74 O77 2.333 . S
Cd74 O78 2.352 . S
Cd74 O82 2.277 . S
Cd74 O83 2.356 . S
C75 O80 1.209 . S
C75 O82 1.226 . S
O76 Cd72 2.273 . S
O76 Cd74 2.411 . S
O76 C79 1.320 . S
O77 Cd74 2.333 . S
O77 C79 1.214 . S
O78 Cd74 2.352 . S
O78 C81 1.258 . S
C79 O76 1.320 . S
C79 O77 1.214 . S
O80 Cd72 2.277 . S
O80 C75 1.209 . S
C81 O78 1.258 . S
C81 O83 1.282 . S
O82 Cd74 2.277 . S
O82 C75 1.226 . S
O83 Cd74 2.356 . S
O83 C81 1.282 . S
C84 O85 1.306 . S
C84 O87 1.160 . S
O85 C84 1.306 . S
O85 Cd86 2.228 . S
Cd86 O85 2.228 . S
Cd86 O90 2.273 . S
Cd86 O94 2.277 . S
O87 C84 1.160 . S
O87 Cd88 2.203 . S
Cd88 O87 2.203 . S
Cd88 O90 2.411 . S
Cd88 O91 2.333 . S
Cd88 O92 2.352 . S
Cd88 O96 2.277 . S
Cd88 O97 2.356 . S
C89 O94 1.209 . S
C89 O96 1.226 . S
O90 Cd86 2.273 . S
O90 Cd88 2.411 . S
O90 C93 1.320 . S
O91 Cd88 2.333 . S
O91 C93 1.214 . S
O92 Cd88 2.352 . S
O92 C95 1.258 . S
C93 O90 1.320 . S
C93 O91 1.214 . S
O94 Cd86 2.277 . S
O94 C89 1.209 . S
C95 O92 1.258 . S
C95 O97 1.282 . S
O96 Cd88 2.277 . S
O96 C89 1.226 . S
O97 Cd88 2.356 . S
O97 C95 1.282 . S
C98 O99 1.306 . S
C98 O101 1.160 . S
O99 C98 1.306 . S
O99 Cd100 2.228 . S
Cd100 O99 2.228 . S
Cd100 O104 2.273 . S
Cd100 O108 2.277 . S
O101 C98 1.160 . S
O101 Cd102 2.203 . S
Cd102 O101 2.203 . S
Cd102 O104 2.411 . S
Cd102 O105 2.333 . S
Cd102 O106 2.352 . S
Cd102 O110 2.277 . S
Cd102 O111 2.356 . S
C103 O108 1.209 . S
C103 O110 1.226 . S
O104 Cd100 2.273 . S
O104 Cd102 2.411 . S
O104 C107 1.320 . S
O105 Cd102 2.333 . S
O105 C107 1.214 . S
O106 Cd102 2.352 . S
O106 C109 1.258 . S
C107 O104 1.320 . S
C107 O105 1.214 . S
O108 Cd100 2.277 . S
O108 C103 1.209 . S
C109 O106 1.258 . S
C109 O111 1.282 . S
O110 Cd102 2.277 . S
O110 C103 1.226 . S
O111 Cd102 2.356 . S
O111 C109 1.282 . S
C112 O113 1.306 . S
C112 O115 1.160 . S
O113 C112 1.306 . S
O113 Cd114 2.228 . S
Cd114 O113 2.228 . S
Cd114 O118 2.273 . S
Cd114 O122 2.277 . S
O115 C112 1.160 . S
O115 Cd116 2.203 . S
Cd116 O115 2.203 . S
Cd116 O118 2.411 . S
Cd116 O119 2.333 . S
Cd116 O120 2.352 . S
Cd116 O124 2.277 . S
Cd116 O125 2.356 . S
C117 O122 1.209 . S
C117 O124 1.226 . S
O118 Cd114 2.273 . S
O118 Cd116 2.411 . S
O118 C121 1.320 . S
O119 Cd116 2.333 . S
O119 C121 1.214 . S
O120 Cd116 2.352 . S
O120 C123 1.258 . S
C121 O118 1.320 . S
C121 O119 1.214 . S
O122 Cd114 2.277 . S
O122 C117 1.209 . S
C123 O120 1.258 . S
C123 O125 1.282 . S
O124 Cd116 2.277 . S
O124 C117 1.226 . S
O125 Cd116 2.356 . S
O125 C123 1.282 . S
C126 O127 1.306 . S
C126 O129 1.160 . S
O127 C126 1.306 . S
O127 Cd128 2.228 . S
Cd128 O127 2.228 . S
Cd128 O132 2.273 . S
Cd128 O136 2.277 . S
O129 C126 1.160 . S
O129 Cd130 2.203 . S
Cd130 O129 2.203 . S
Cd130 O132 2.411 . S
Cd130 O133 2.333 . S
Cd130 O134 2.352 . S
Cd130 O138 2.277 . S
Cd130 O139 2.356 . S
C131 O136 1.209 . S
C131 O138 1.226 . S
O132 Cd128 2.273 . S
O132 Cd130 2.411 . S
O132 C135 1.320 . S
O133 Cd130 2.333 . S
O133 C135 1.214 . S
O134 Cd130 2.352 . S
O134 C137 1.258 . S
C135 O132 1.320 . S
C135 O133 1.214 . S
O136 Cd128 2.277 . S
O136 C131 1.209 . S
C137 O134 1.258 . S
C137 O139 1.282 . S
O138 Cd130 2.277 . S
O138 C131 1.226 . S
O139 Cd130 2.356 . S
O139 C137 1.282 . S
C140 O141 1.306 . S
C140 O143 1.160 . S
O141 C140 1.306 . S
O141 Cd142 2.228 . S
Cd142 O141 2.228 . S
Cd142 O146 2.273 . S
Cd142 O150 2.277 . S
O143 C140 1.160 . S
O143 Cd144 2.203 . S
Cd144 O143 2.203 . S
Cd144 O146 2.411 . S
Cd144 O147 2.333 . S
Cd144 O148 2.352 . S
Cd144 O152 2.277 . S
Cd144 O153 2.356 . S
C145 O150 1.209 . S
C145 O152 1.226 . S
O146 Cd142 2.273 . S
O146 Cd144 2.411 . S
O146 C149 1.320 . S
O147 Cd144 2.333 . S
O147 C149 1.214 . S
O148 Cd144 2.352 . S
O148 C151 1.258 . S
C149 O146 1.320 . S
C149 O147 1.214 . S
O150 Cd142 2.277 . S
O150 C145 1.209 . S
C151 O148 1.258 . S
C151 O153 1.282 . S
O152 Cd144 2.277 . S
O152 C145 1.226 . S
O153 Cd144 2.356 . S
O153 C151 1.282 . S
C154 O155 1.306 . S
C154 O157 1.160 . S
O155 C154 1.306 . S
O155 Cd156 2.228 . S
Cd156 O155 2.228 . S
Cd156 O160 2.273 . S
Cd156 O164 2.277 . S
O157 C154 1.160 . S
O157 Cd158 2.203 . S
Cd158 O157 2.203 . S
Cd158 O160 2.411 . S
Cd158 O161 2.333 . S
Cd158 O162 2.352 . S
Cd158 O166 2.277 . S
Cd158 O167 2.356 . S
C159 O164 1.209 . S
C159 O166 1.226 . S
O160 Cd156 2.273 . S
O160 Cd158 2.411 . S
O160 C163 1.320 . S
O161 Cd158 2.333 . S
O161 C163 1.214 . S
O162 Cd158 2.352 . S
O162 C165 1.258 . S
C163 O160 1.320 . S
C163 O161 1.214 . S
O164 Cd156 2.277 . S
O164 C159 1.209 . S
C165 O162 1.258 . S
C165 O167 1.282 . S
O166 Cd158 2.277 . S
O166 C159 1.226 . S
O167 Cd158 2.356 . S
O167 C165 1.282 . S
C168 C169 1.391 . S
C168 C170 1.394 . S
C168 H184 0.931 . S
C169 C168 1.391 . S
C169 C173 1.376 . S
C170 C168 1.394 . S
C170 C171 1.369 . S
C170 C174 1.531 . S
C171 C170 1.369 . S
C171 C172 1.410 . S
C171 C179 1.503 . S
C172 C171 1.410 . S
C172 C173 1.392 . S
C172 C175 1.511 . S
C173 C169 1.376 . S
C173 C172 1.392 . S
C173 H185 0.929 . S
C174 C170 1.531 . S
C174 H186 0.960 . S
C174 H187 0.962 . S
C174 H188 0.960 . S
C175 C172 1.511 . S
C175 H189 0.961 . S
C175 H190 0.961 . S
C175 H191 0.961 . S
C176 C177 1.370 . S
C176 C178 1.363 . S
C176 H192 0.931 . S
C177 C176 1.370 . S
C177 C181 1.408 . S
C178 C176 1.363 . S
C178 C179 1.370 . S
C178 C182 1.524 . S
C179 C171 1.503 . S
C179 C178 1.370 . S
C179 C180 1.403 . S
C180 C179 1.403 . S
C180 C181 1.404 . S
C180 C183 1.539 . S
C181 C177 1.408 . S
C181 C180 1.404 . S
C181 H193 0.930 . S
C182 C178 1.524 . S
C182 H194 0.956 . S
C182 H195 0.961 . S
C182 H196 0.961 . S
C183 C180 1.539 . S
C183 H197 0.958 . S
C183 H198 0.961 . S
C183 H199 0.960 . S
H184 C168 0.931 . S
H185 C173 0.929 . S
H186 C174 0.960 . S
H187 C174 0.962 . S
H188 C174 0.960 . S
H189 C175 0.961 . S
H190 C175 0.961 . S
H191 C175 0.961 . S
H192 C176 0.931 . S
H193 C181 0.930 . S
H194 C182 0.956 . S
H195 C182 0.961 . S
H196 C182 0.961 . S
H197 C183 0.958 . S
H198 C183 0.961 . S
H199 C183 0.960 . S
C200 C201 1.391 . S
C200 C202 1.394 . S
C200 H216 0.931 . S
C201 C200 1.391 . S
C201 C205 1.376 . S
C202 C200 1.394 . S
C202 C203 1.369 . S
C202 C206 1.531 . S
C203 C202 1.369 . S
C203 C204 1.410 . S
C203 C211 1.503 . S
C204 C203 1.410 . S
C204 C205 1.392 . S
C204 C207 1.511 . S
C205 C201 1.376 . S
C205 C204 1.392 . S
C205 H217 0.929 . S
C206 C202 1.531 . S
C206 H218 0.960 . S
C206 H219 0.962 . S
C206 H220 0.960 . S
C207 C204 1.511 . S
C207 H221 0.961 . S
C207 H222 0.961 . S
C207 H223 0.961 . S
C208 C209 1.370 . S
C208 C210 1.363 . S
C208 H224 0.931 . S
C209 C208 1.370 . S
C209 C213 1.408 . S
C210 C208 1.363 . S
C210 C211 1.370 . S
C210 C214 1.524 . S
C211 C203 1.503 . S
C211 C210 1.370 . S
C211 C212 1.403 . S
C212 C211 1.403 . S
C212 C213 1.404 . S
C212 C215 1.539 . S
C213 C209 1.408 . S
C213 C212 1.404 . S
C213 H225 0.930 . S
C214 C210 1.524 . S
C214 H226 0.956 . S
C214 H227 0.961 . S
C214 H228 0.961 . S
C215 C212 1.539 . S
C215 H229 0.958 . S
C215 H230 0.961 . S
C215 H231 0.960 . S
H216 C200 0.931 . S
H217 C205 0.929 . S
H218 C206 0.960 . S
H219 C206 0.962 . S
H220 C206 0.960 . S
H221 C207 0.961 . S
H222 C207 0.961 . S
H223 C207 0.961 . S
H224 C208 0.931 . S
H225 C213 0.930 . S
H226 C214 0.956 . S
H227 C214 0.961 . S
H228 C214 0.961 . S
H229 C215 0.958 . S
H230 C215 0.961 . S
H231 C215 0.960 . S
C232 C233 1.391 . S
C232 C234 1.394 . S
C232 H248 0.931 . S
C233 C232 1.391 . S
C233 C237 1.376 . S
C234 C232 1.394 . S
C234 C235 1.369 . S
C234 C238 1.531 . S
C235 C234 1.369 . S
C235 C236 1.410 . S
C235 C243 1.503 . S
C236 C235 1.410 . S
C236 C237 1.392 . S
C236 C239 1.511 . S
C237 C233 1.376 . S
C237 C236 1.392 . S
C237 H249 0.929 . S
C238 C234 1.531 . S
C238 H250 0.960 . S
C238 H251 0.962 . S
C238 H252 0.960 . S
C239 C236 1.511 . S
C239 H253 0.961 . S
C239 H254 0.961 . S
C239 H255 0.961 . S
C240 C241 1.370 . S
C240 C242 1.363 . S
C240 H256 0.931 . S
C241 C240 1.370 . S
C241 C245 1.408 . S
C242 C240 1.363 . S
C242 C243 1.370 . S
C242 C246 1.524 . S
C243 C235 1.503 . S
C243 C242 1.370 . S
C243 C244 1.403 . S
C244 C243 1.403 . S
C244 C245 1.404 . S
C244 C247 1.539 . S
C245 C241 1.408 . S
C245 C244 1.404 . S
C245 H257 0.930 . S
C246 C242 1.524 . S
C246 H258 0.956 . S
C246 H259 0.961 . S
C246 H260 0.961 . S
C247 C244 1.539 . S
C247 H261 0.958 . S
C247 H262 0.961 . S
C247 H263 0.960 . S
H248 C232 0.931 . S
H249 C237 0.929 . S
H250 C238 0.960 . S
H251 C238 0.962 . S
H252 C238 0.960 . S
H253 C239 0.961 . S
H254 C239 0.961 . S
H255 C239 0.961 . S
H256 C240 0.931 . S
H257 C245 0.930 . S
H258 C246 0.956 . S
H259 C246 0.961 . S
H260 C246 0.961 . S
H261 C247 0.958 . S
H262 C247 0.961 . S
H263 C247 0.960 . S
C264 C265 1.391 . S
C264 C266 1.394 . S
C264 H280 0.931 . S
C265 C264 1.391 . S
C265 C269 1.376 . S
C266 C264 1.394 . S
C266 C267 1.369 . S
C266 C270 1.531 . S
C267 C266 1.369 . S
C267 C268 1.410 . S
C267 C275 1.503 . S
C268 C267 1.410 . S
C268 C269 1.392 . S
C268 C271 1.511 . S
C269 C265 1.376 . S
C269 C268 1.392 . S
C269 H281 0.929 . S
C270 C266 1.531 . S
C270 H282 0.960 . S
C270 H283 0.962 . S
C270 H284 0.960 . S
C271 C268 1.511 . S
C271 H285 0.961 . S
C271 H286 0.961 . S
C271 H287 0.961 . S
C272 C273 1.370 . S
C272 C274 1.363 . S
C272 H288 0.931 . S
C273 C272 1.370 . S
C273 C277 1.408 . S
C274 C272 1.363 . S
C274 C275 1.370 . S
C274 C278 1.524 . S
C275 C267 1.503 . S
C275 C274 1.370 . S
C275 C276 1.403 . S
C276 C275 1.403 . S
C276 C277 1.404 . S
C276 C279 1.539 . S
C277 C273 1.408 . S
C277 C276 1.404 . S
C277 H289 0.930 . S
C278 C274 1.524 . S
C278 H290 0.956 . S
C278 H291 0.961 . S
C278 H292 0.961 . S
C279 C276 1.539 . S
C279 H293 0.958 . S
C279 H294 0.961 . S
C279 H295 0.960 . S
H280 C264 0.931 . S
H281 C269 0.929 . S
H282 C270 0.960 . S
H283 C270 0.962 . S
H284 C270 0.960 . S
H285 C271 0.961 . S
H286 C271 0.961 . S
H287 C271 0.961 . S
H288 C272 0.931 . S
H289 C277 0.930 . S
H290 C278 0.956 . S
H291 C278 0.961 . S
H292 C278 0.961 . S
H293 C279 0.958 . S
H294 C279 0.961 . S
H295 C279 0.960 . S
C296 C297 1.391 . S
C296 C298 1.394 . S
C296 H312 0.931 . S
C297 C296 1.391 . S
C297 C301 1.376 . S
C298 C296 1.394 . S
C298 C299 1.369 . S
C298 C302 1.531 . S
C299 C298 1.369 . S
C299 C300 1.410 . S
C299 C307 1.503 . S
C300 C299 1.410 . S
C300 C301 1.392 . S
C300 C303 1.511 . S
C301 C297 1.376 . S
C301 C300 1.392 . S
C301 H313 0.929 . S
C302 C298 1.531 . S
C302 H314 0.960 . S
C302 H315 0.962 . S
C302 H316 0.960 . S
C303 C300 1.511 . S
C303 H317 0.961 . S
C303 H318 0.961 . S
C303 H319 0.961 . S
C304 C305 1.370 . S
C304 C306 1.363 . S
C304 H320 0.931 . S
C305 C304 1.370 . S
C305 C309 1.408 . S
C306 C304 1.363 . S
C306 C307 1.370 . S
C306 C310 1.524 . S
C307 C299 1.503 . S
C307 C306 1.370 . S
C307 C308 1.403 . S
C308 C307 1.403 . S
C308 C309 1.404 . S
C308 C311 1.539 . S
C309 C305 1.408 . S
C309 C308 1.404 . S
C309 H321 0.930 . S
C310 C306 1.524 . S
C310 H322 0.956 . S
C310 H323 0.961 . S
C310 H324 0.961 . S
C311 C308 1.539 . S
C311 H325 0.958 . S
C311 H326 0.961 . S
C311 H327 0.960 . S
H312 C296 0.931 . S
H313 C301 0.929 . S
H314 C302 0.960 . S
H315 C302 0.962 . S
H316 C302 0.960 . S
H317 C303 0.961 . S
H318 C303 0.961 . S
H319 C303 0.961 . S
H320 C304 0.931 . S
H321 C309 0.930 . S
H322 C310 0.956 . S
H323 C310 0.961 . S
H324 C310 0.961 . S
H325 C311 0.958 . S
H326 C311 0.961 . S
H327 C311 0.960 . S
C328 C329 1.391 . S
C328 C330 1.394 . S
C328 H344 0.931 . S
C329 C328 1.391 . S
C329 C333 1.376 . S
C330 C328 1.394 . S
C330 C331 1.369 . S
C330 C334 1.531 . S
C331 C330 1.369 . S
C331 C332 1.410 . S
C331 C339 1.503 . S
C332 C331 1.410 . S
C332 C333 1.392 . S
C332 C335 1.511 . S
C333 C329 1.376 . S
C333 C332 1.392 . S
C333 H345 0.929 . S
C334 C330 1.531 . S
C334 H346 0.960 . S
C334 H347 0.962 . S
C334 H348 0.960 . S
C335 C332 1.511 . S
C335 H349 0.961 . S
C335 H350 0.961 . S
C335 H351 0.961 . S
C336 C337 1.370 . S
C336 C338 1.363 . S
C336 H352 0.931 . S
C337 C336 1.370 . S
C337 C341 1.408 . S
C338 C336 1.363 . S
C338 C339 1.370 . S
C338 C342 1.524 . S
C339 C331 1.503 . S
C339 C338 1.370 . S
C339 C340 1.403 . S
C340 C339 1.403 . S
C340 C341 1.404 . S
C340 C343 1.539 . S
C341 C337 1.408 . S
C341 C340 1.404 . S
C341 H353 0.930 . S
C342 C338 1.524 . S
C342 H354 0.956 . S
C342 H355 0.961 . S
C342 H356 0.961 . S
C343 C340 1.539 . S
C343 H357 0.958 . S
C343 H358 0.961 . S
C343 H359 0.960 . S
H344 C328 0.931 . S
H345 C333 0.929 . S
H346 C334 0.960 . S
H347 C334 0.962 . S
H348 C334 0.960 . S
H349 C335 0.961 . S
H350 C335 0.961 . S
H351 C335 0.961 . S
H352 C336 0.931 . S
H353 C341 0.930 . S
H354 C342 0.956 . S
H355 C342 0.961 . S
H356 C342 0.961 . S
H357 C343 0.958 . S
H358 C343 0.961 . S
H359 C343 0.960 . S
C360 C361 1.391 . S
C360 C362 1.394 . S
C360 H376 0.931 . S
C361 C360 1.391 . S
C361 C365 1.376 . S
C362 C360 1.394 . S
C362 C363 1.369 . S
C362 C366 1.531 . S
C363 C362 1.369 . S
C363 C364 1.410 . S
C363 C371 1.503 . S
C364 C363 1.410 . S
C364 C365 1.392 . S
C364 C367 1.511 . S
C365 C361 1.376 . S
C365 C364 1.392 . S
C365 H377 0.929 . S
C366 C362 1.531 . S
C366 H378 0.960 . S
C366 H379 0.962 . S
C366 H380 0.960 . S
C367 C364 1.511 . S
C367 H381 0.961 . S
C367 H382 0.961 . S
C367 H383 0.961 . S
C368 C369 1.370 . S
C368 C370 1.363 . S
C368 H384 0.931 . S
C369 C368 1.370 . S
C369 C373 1.408 . S
C370 C368 1.363 . S
C370 C371 1.370 . S
C370 C374 1.524 . S
C371 C363 1.503 . S
C371 C370 1.370 . S
C371 C372 1.403 . S
C372 C371 1.403 . S
C372 C373 1.404 . S
C372 C375 1.539 . S
C373 C369 1.408 . S
C373 C372 1.404 . S
C373 H385 0.930 . S
C374 C370 1.524 . S
C374 H386 0.956 . S
C374 H387 0.961 . S
C374 H388 0.961 . S
C375 C372 1.539 . S
C375 H389 0.958 . S
C375 H390 0.961 . S
C375 H391 0.960 . S
H376 C360 0.931 . S
H377 C365 0.929 . S
H378 C366 0.960 . S
H379 C366 0.962 . S
H380 C366 0.960 . S
H381 C367 0.961 . S
H382 C367 0.961 . S
H383 C367 0.961 . S
H384 C368 0.931 . S
H385 C373 0.930 . S
H386 C374 0.956 . S
H387 C374 0.961 . S
H388 C374 0.961 . S
H389 C375 0.958 . S
H390 C375 0.961 . S
H391 C375 0.960 . S
C392 C393 1.391 . S
C392 C394 1.394 . S
C392 H408 0.931 . S
C393 C392 1.391 . S
C393 C397 1.376 . S
C394 C392 1.394 . S
C394 C395 1.369 . S
C394 C398 1.531 . S
C395 C394 1.369 . S
C395 C396 1.410 . S
C395 C403 1.503 . S
C396 C395 1.410 . S
C396 C397 1.392 . S
C396 C399 1.511 . S
C397 C393 1.376 . S
C397 C396 1.392 . S
C397 H409 0.929 . S
C398 C394 1.531 . S
C398 H410 0.960 . S
C398 H411 0.962 . S
C398 H412 0.960 . S
C399 C396 1.511 . S
C399 H413 0.961 . S
C399 H414 0.961 . S
C399 H415 0.961 . S
C400 C401 1.370 . S
C400 C402 1.363 . S
C400 H416 0.931 . S
C401 C400 1.370 . S
C401 C405 1.408 . S
C402 C400 1.363 . S
C402 C403 1.370 . S
C402 C406 1.524 . S
C403 C395 1.503 . S
C403 C402 1.370 . S
C403 C404 1.403 . S
C404 C403 1.403 . S
C404 C405 1.404 . S
C404 C407 1.539 . S
C405 C401 1.408 . S
C405 C404 1.404 . S
C405 H417 0.930 . S
C406 C402 1.524 . S
C406 H418 0.956 . S
C406 H419 0.961 . S
C406 H420 0.961 . S
C407 C404 1.539 . S
C407 H421 0.958 . S
C407 H422 0.961 . S
C407 H423 0.960 . S
H408 C392 0.931 . S
H409 C397 0.929 . S
H410 C398 0.960 . S
H411 C398 0.962 . S
H412 C398 0.960 . S
H413 C399 0.961 . S
H414 C399 0.961 . S
H415 C399 0.961 . S
H416 C400 0.931 . S
H417 C405 0.930 . S
H418 C406 0.956 . S
H419 C406 0.961 . S
H420 C406 0.961 . S
H421 C407 0.958 . S
H422 C407 0.961 . S
H423 C407 0.960 . S
C424 C425 1.391 . S
C424 C426 1.394 . S
C424 H440 0.931 . S
C425 C424 1.391 . S
C425 C429 1.376 . S
C426 C424 1.394 . S
C426 C427 1.369 . S
C426 C430 1.531 . S
C427 C426 1.369 . S
C427 C428 1.410 . S
C427 C435 1.503 . S
C428 C427 1.410 . S
C428 C429 1.392 . S
C428 C431 1.511 . S
C429 C425 1.376 . S
C429 C428 1.392 . S
C429 H441 0.929 . S
C430 C426 1.531 . S
C430 H442 0.960 . S
C430 H443 0.962 . S
C430 H444 0.960 . S
C431 C428 1.511 . S
C431 H445 0.961 . S
C431 H446 0.961 . S
C431 H447 0.961 . S
C432 C433 1.370 . S
C432 C434 1.363 . S
C432 H448 0.931 . S
C433 C432 1.370 . S
C433 C437 1.408 . S
C434 C432 1.363 . S
C434 C435 1.370 . S
C434 C438 1.524 . S
C435 C427 1.503 . S
C435 C434 1.370 . S
C435 C436 1.403 . S
C436 C435 1.403 . S
C436 C437 1.404 . S
C436 C439 1.539 . S
C437 C433 1.408 . S
C437 C436 1.404 . S
C437 H449 0.930 . S
C438 C434 1.524 . S
C438 H450 0.956 . S
C438 H451 0.961 . S
C438 H452 0.961 . S
C439 C436 1.539 . S
C439 H453 0.958 . S
C439 H454 0.961 . S
C439 H455 0.960 . S
H440 C424 0.931 . S
H441 C429 0.929 . S
H442 C430 0.960 . S
H443 C430 0.962 . S
H444 C430 0.960 . S
H445 C431 0.961 . S
H446 C431 0.961 . S
H447 C431 0.961 . S
H448 C432 0.931 . S
H449 C437 0.930 . S
H450 C438 0.956 . S
H451 C438 0.961 . S
H452 C438 0.961 . S
H453 C439 0.958 . S
H454 C439 0.961 . S
H455 C439 0.960 . S
C456 C457 1.391 . S
C456 C458 1.394 . S
C456 H472 0.931 . S
C457 C456 1.391 . S
C457 C461 1.376 . S
C458 C456 1.394 . S
C458 C459 1.369 . S
C458 C462 1.531 . S
C459 C458 1.369 . S
C459 C460 1.410 . S
C459 C467 1.503 . S
C460 C459 1.410 . S
C460 C461 1.392 . S
C460 C463 1.511 . S
C461 C457 1.376 . S
C461 C460 1.392 . S
C461 H473 0.929 . S
C462 C458 1.531 . S
C462 H474 0.960 . S
C462 H475 0.962 . S
C462 H476 0.960 . S
C463 C460 1.511 . S
C463 H477 0.961 . S
C463 H478 0.961 . S
C463 H479 0.961 . S
C464 C465 1.370 . S
C464 C466 1.363 . S
C464 H480 0.931 . S
C465 C464 1.370 . S
C465 C469 1.408 . S
C466 C464 1.363 . S
C466 C467 1.370 . S
C466 C470 1.524 . S
C467 C459 1.503 . S
C467 C466 1.370 . S
C467 C468 1.403 . S
C468 C467 1.403 . S
C468 C469 1.404 . S
C468 C471 1.539 . S
C469 C465 1.408 . S
C469 C468 1.404 . S
C469 H481 0.930 . S
C470 C466 1.524 . S
C470 H482 0.956 . S
C470 H483 0.961 . S
C470 H484 0.961 . S
C471 C468 1.539 . S
C471 H485 0.958 . S
C471 H486 0.961 . S
C471 H487 0.960 . S
H472 C456 0.931 . S
H473 C461 0.929 . S
H474 C462 0.960 . S
H475 C462 0.962 . S
H476 C462 0.960 . S
H477 C463 0.961 . S
H478 C463 0.961 . S
H479 C463 0.961 . S
H480 C464 0.931 . S
H481 C469 0.930 . S
H482 C470 0.956 . S
H483 C470 0.961 . S
H484 C470 0.961 . S
H485 C471 0.958 . S
H486 C471 0.961 . S
H487 C471 0.960 . S
C488 C489 1.391 . S
C488 C490 1.394 . S
C488 H504 0.931 . S
C489 C488 1.391 . S
C489 C493 1.376 . S
C490 C488 1.394 . S
C490 C491 1.369 . S
C490 C494 1.531 . S
C491 C490 1.369 . S
C491 C492 1.410 . S
C491 C499 1.503 . S
C492 C491 1.410 . S
C492 C493 1.392 . S
C492 C495 1.511 . S
C493 C489 1.376 . S
C493 C492 1.392 . S
C493 H505 0.929 . S
C494 C490 1.531 . S
C494 H506 0.960 . S
C494 H507 0.962 . S
C494 H508 0.960 . S
C495 C492 1.511 . S
C495 H509 0.961 . S
C495 H510 0.961 . S
C495 H511 0.961 . S
C496 C497 1.370 . S
C496 C498 1.363 . S
C496 H512 0.931 . S
C497 C496 1.370 . S
C497 C501 1.408 . S
C498 C496 1.363 . S
C498 C499 1.370 . S
C498 C502 1.524 . S
C499 C491 1.503 . S
C499 C498 1.370 . S
C499 C500 1.403 . S
C500 C499 1.403 . S
C500 C501 1.404 . S
C500 C503 1.539 . S
C501 C497 1.408 . S
C501 C500 1.404 . S
C501 H513 0.930 . S
C502 C498 1.524 . S
C502 H514 0.956 . S
C502 H515 0.961 . S
C502 H516 0.961 . S
C503 C500 1.539 . S
C503 H517 0.958 . S
C503 H518 0.961 . S
C503 H519 0.960 . S
H504 C488 0.931 . S
H505 C493 0.929 . S
H506 C494 0.960 . S
H507 C494 0.962 . S
H508 C494 0.960 . S
H509 C495 0.961 . S
H510 C495 0.961 . S
H511 C495 0.961 . S
H512 C496 0.931 . S
H513 C501 0.930 . S
H514 C502 0.956 . S
H515 C502 0.961 . S
H516 C502 0.961 . S
H517 C503 0.958 . S
H518 C503 0.961 . S
H519 C503 0.960 . S
C520 C521 1.391 . S
C520 C522 1.394 . S
C520 H536 0.931 . S
C521 C520 1.391 . S
C521 C525 1.376 . S
C522 C520 1.394 . S
C522 C523 1.369 . S
C522 C526 1.531 . S
C523 C522 1.369 . S
C523 C524 1.410 . S
C523 C531 1.503 . S
C524 C523 1.410 . S
C524 C525 1.392 . S
C524 C527 1.511 . S
C525 C521 1.376 . S
C525 C524 1.392 . S
C525 H537 0.929 . S
C526 C522 1.531 . S
C526 H538 0.960 . S
C526 H539 0.962 . S
C526 H540 0.960 . S
C527 C524 1.511 . S
C527 H541 0.961 . S
C527 H542 0.961 . S
C527 H543 0.961 . S
C528 C529 1.370 . S
C528 C530 1.363 . S
C528 H544 0.931 . S
C529 C528 1.370 . S
C529 C533 1.408 . S
C530 C528 1.363 . S
C530 C531 1.370 . S
C530 C534 1.524 . S
C531 C523 1.503 . S
C531 C530 1.370 . S
C531 C532 1.403 . S
C532 C531 1.403 . S
C532 C533 1.404 . S
C532 C535 1.539 . S
C533 C529 1.408 . S
C533 C532 1.404 . S
C533 H545 0.930 . S
C534 C530 1.524 . S
C534 H546 0.956 . S
C534 H547 0.961 . S
C534 H548 0.961 . S
C535 C532 1.539 . S
C535 H549 0.958 . S
C535 H550 0.961 . S
C535 H551 0.960 . S
H536 C520 0.931 . S
H537 C525 0.929 . S
H538 C526 0.960 . S
H539 C526 0.962 . S
H540 C526 0.960 . S
H541 C527 0.961 . S
H542 C527 0.961 . S
H543 C527 0.961 . S
H544 C528 0.931 . S
H545 C533 0.930 . S
H546 C534 0.956 . S
H547 C534 0.961 . S
H548 C534 0.961 . S
H549 C535 0.958 . S
H550 C535 0.961 . S
H551 C535 0.960 . S
C552 C553 1.391 . S
C552 C554 1.394 . S
C552 H568 0.931 . S
C553 C552 1.391 . S
C553 C557 1.376 . S
C554 C552 1.394 . S
C554 C555 1.369 . S
C554 C558 1.531 . S
C555 C554 1.369 . S
C555 C556 1.410 . S
C555 C563 1.503 1_655 S
C556 C555 1.410 . S
C556 C557 1.392 . S
C556 C559 1.511 . S
C557 C553 1.376 . S
C557 C556 1.392 . S
C557 H569 0.929 . S
C558 C554 1.531 . S
C558 H570 0.960 . S
C558 H571 0.962 . S
C558 H572 0.960 . S
C559 C556 1.511 . S
C559 H573 0.961 . S
C559 H574 0.961 1_655 S
C559 H575 0.961 . S
C560 C561 1.370 . S
C560 C562 1.363 . S
C560 H576 0.931 . S
C561 C560 1.370 . S
C561 C565 1.408 . S
C562 C560 1.363 . S
C562 C563 1.370 . S
C562 C566 1.524 . S
C563 C555 1.503 1_455 S
C563 C562 1.370 . S
C563 C564 1.403 . S
C564 C563 1.403 . S
C564 C565 1.404 . S
C564 C567 1.539 . S
C565 C561 1.408 . S
C565 C564 1.404 . S
C565 H577 0.930 . S
C566 C562 1.524 . S
C566 H578 0.956 . S
C566 H579 0.961 . S
C566 H580 0.961 . S
C567 C564 1.539 . S
C567 H581 0.958 1_455 S
C567 H582 0.961 . S
C567 H583 0.960 1_455 S
H568 C552 0.931 . S
H569 C557 0.929 . S
H570 C558 0.960 . S
H571 C558 0.962 . S
H572 C558 0.960 . S
H573 C559 0.961 . S
H574 C559 0.961 1_455 S
H575 C559 0.961 . S
H576 C560 0.931 . S
H577 C565 0.930 . S
H578 C566 0.956 . S
H579 C566 0.961 . S
H580 C566 0.961 . S
H581 C567 0.958 1_655 S
H582 C567 0.961 . S
H583 C567 0.960 1_655 S
C584 C585 1.391 . S
C584 C586 1.394 . S
C584 H600 0.931 . S
C585 C584 1.391 . S
C585 C589 1.376 . S
C586 C584 1.394 . S
C586 C587 1.369 . S
C586 C590 1.531 . S
C587 C586 1.369 . S
C587 C588 1.410 . S
C587 C595 1.503 1_565 S
C588 C587 1.410 . S
C588 C589 1.392 . S
C588 C591 1.511 . S
C589 C585 1.376 . S
C589 C588 1.392 . S
C589 H601 0.929 . S
C590 C586 1.531 . S
C590 H602 0.960 . S
C590 H603 0.962 . S
C590 H604 0.960 . S
C591 C588 1.511 . S
C591 H605 0.961 . S
C591 H606 0.961 1_565 S
C591 H607 0.961 . S
C592 C593 1.370 . S
C592 C594 1.363 . S
C592 H608 0.931 . S
C593 C592 1.370 . S
C593 C597 1.408 . S
C594 C592 1.363 . S
C594 C595 1.370 . S
C594 C598 1.524 . S
C595 C587 1.503 1_545 S
C595 C594 1.370 . S
C595 C596 1.403 . S
C596 C595 1.403 . S
C596 C597 1.404 . S
C596 C599 1.539 . S
C597 C593 1.408 . S
C597 C596 1.404 . S
C597 H609 0.930 . S
C598 C594 1.524 . S
C598 H610 0.956 . S
C598 H611 0.961 . S
C598 H612 0.961 . S
C599 C596 1.539 . S
C599 H613 0.958 1_545 S
C599 H614 0.961 . S
C599 H615 0.960 1_545 S
H600 C584 0.931 . S
H601 C589 0.929 . S
H602 C590 0.960 . S
H603 C590 0.962 . S
H604 C590 0.960 . S
H605 C591 0.961 . S
H606 C591 0.961 1_545 S
H607 C591 0.961 . S
H608 C592 0.931 . S
H609 C597 0.930 . S
H610 C598 0.956 . S
H611 C598 0.961 . S
H612 C598 0.961 . S
H613 C599 0.958 1_565 S
H614 C599 0.961 . S
H615 C599 0.960 1_565 S
C616 C617 1.391 . S
C616 C618 1.394 . S
C616 H632 0.931 . S
C617 C616 1.391 . S
C617 C621 1.376 . S
C618 C616 1.394 . S
C618 C619 1.369 . S
C618 C622 1.531 . S
C619 C618 1.369 . S
C619 C620 1.410 . S
C619 C627 1.503 . S
C620 C619 1.410 . S
C620 C621 1.392 . S
C620 C623 1.511 . S
C621 C617 1.376 . S
C621 C620 1.392 . S
C621 H633 0.929 . S
C622 C618 1.531 . S
C622 H634 0.960 . S
C622 H635 0.962 . S
C622 H636 0.960 . S
C623 C620 1.511 . S
C623 H637 0.961 . S
C623 H638 0.961 . S
C623 H639 0.961 . S
C624 C625 1.370 . S
C624 C626 1.363 . S
C624 H640 0.931 . S
C625 C624 1.370 . S
C625 C629 1.408 . S
C626 C624 1.363 . S
C626 C627 1.370 . S
C626 C630 1.524 . S
C627 C619 1.503 . S
C627 C626 1.370 . S
C627 C628 1.403 . S
C628 C627 1.403 . S
C628 C629 1.404 . S
C628 C631 1.539 . S
C629 C625 1.408 . S
C629 C628 1.404 . S
C629 H641 0.930 . S
C630 C626 1.524 . S
C630 H642 0.956 . S
C630 H643 0.961 . S
C630 H644 0.961 . S
C631 C628 1.539 . S
C631 H645 0.958 . S
C631 H646 0.961 . S
C631 H647 0.960 . S
H632 C616 0.931 . S
H633 C621 0.929 . S
H634 C622 0.960 . S
H635 C622 0.962 . S
H636 C622 0.960 . S
H637 C623 0.961 . S
H638 C623 0.961 . S
H639 C623 0.961 . S
H640 C624 0.931 . S
H641 C629 0.930 . S
H642 C630 0.956 . S
H643 C630 0.961 . S
H644 C630 0.961 . S
H645 C631 0.958 . S
H646 C631 0.961 . S
H647 C631 0.960 . S
C648 C649 1.391 . S
C648 C650 1.394 . S
C648 H664 0.931 . S
C649 C648 1.391 . S
C649 C653 1.376 . S
C650 C648 1.394 . S
C650 C651 1.369 . S
C650 C654 1.531 . S
C651 C650 1.369 . S
C651 C652 1.410 . S
C651 C659 1.503 1_455 S
C652 C651 1.410 . S
C652 C653 1.392 . S
C652 C655 1.511 . S
C653 C649 1.376 . S
C653 C652 1.392 . S
C653 H665 0.929 . S
C654 C650 1.531 . S
C654 H666 0.960 . S
C654 H667 0.962 . S
C654 H668 0.960 . S
C655 C652 1.511 . S
C655 H669 0.961 . S
C655 H670 0.961 1_455 S
C655 H671 0.961 . S
C656 C657 1.370 . S
C656 C658 1.363 . S
C656 H672 0.931 . S
C657 C656 1.370 . S
C657 C661 1.408 . S
C658 C656 1.363 . S
C658 C659 1.370 . S
C658 C662 1.524 . S
C659 C651 1.503 1_655 S
C659 C658 1.370 . S
C659 C660 1.403 . S
C660 C659 1.403 . S
C660 C661 1.404 . S
C660 C663 1.539 1_655 S
C661 C657 1.408 . S
C661 C660 1.404 . S
C661 H673 0.930 . S
C662 C658 1.524 . S
C662 H674 0.956 . S
C662 H675 0.961 . S
C662 H676 0.961 . S
C663 C660 1.539 1_455 S
C663 H677 0.958 . S
C663 H678 0.961 1_455 S
C663 H679 0.960 . S
H664 C648 0.931 . S
H665 C653 0.929 . S
H666 C654 0.960 . S
H667 C654 0.962 . S
H668 C654 0.960 . S
H669 C655 0.961 . S
H670 C655 0.961 1_655 S
H671 C655 0.961 . S
H672 C656 0.931 . S
H673 C661 0.930 . S
H674 C662 0.956 . S
H675 C662 0.961 . S
H676 C662 0.961 . S
H677 C663 0.958 . S
H678 C663 0.961 1_655 S
H679 C663 0.960 . S
C680 C681 1.401 . S
C680 C682 1.389 1_556 S
C680 H696 0.926 1_556 S
C681 C680 1.401 . S
C681 C685 1.376 . S
C682 C680 1.389 1_554 S
C682 C683 1.368 1_554 S
C682 C686 1.531 . S
C683 C682 1.368 1_556 S
C683 C684 1.412 . S
C683 C691 1.503 1_546 S
C684 C683 1.412 . S
C684 C685 1.392 . S
C684 C687 1.511 . S
C685 C681 1.376 . S
C685 C684 1.392 . S
C685 H697 0.929 . S
C686 C682 1.531 . S
C686 H698 0.960 . S
C686 H699 0.962 . S
C686 H700 0.960 . S
C687 C684 1.511 . S
C687 H701 0.961 . S
C687 H702 0.961 1_545 S
C687 H703 0.961 . S
C688 C689 1.370 . S
C688 C690 1.363 1_554 S
C688 H704 0.931 1_554 S
C689 C688 1.370 . S
C689 C693 1.408 . S
C690 C688 1.363 1_556 S
C690 C691 1.370 1_556 S
C690 C694 1.524 . S
C691 C683 1.503 1_564 S
C691 C690 1.370 1_554 S
C691 C692 1.403 . S
C692 C691 1.403 . S
C692 C693 1.404 . S
C692 C695 1.539 . S
C693 C689 1.408 . S
C693 C692 1.404 . S
C693 H705 0.930 . S
C694 C690 1.524 . S
C694 H706 0.956 . S
C694 H707 0.961 . S
C694 H708 0.961 . S
C695 C692 1.539 . S
C695 H709 0.958 1_565 S
C695 H710 0.961 . S
C695 H711 0.960 1_565 S
H696 C680 0.926 1_554 S
H697 C685 0.929 . S
H698 C686 0.960 . S
H699 C686 0.962 . S
H700 C686 0.960 . S
H701 C687 0.961 . S
H702 C687 0.961 1_565 S
H703 C687 0.961 . S
H704 C688 0.931 1_556 S
H705 C693 0.930 . S
H706 C694 0.956 . S
H707 C694 0.961 . S
H708 C694 0.961 . S
H709 C695 0.958 1_545 S
H710 C695 0.961 . S
H711 C695 0.960 1_545 S
C712 C713 1.391 . S
C712 C714 1.394 . S
C712 H728 0.931 . S
C713 C712 1.391 . S
C713 C717 1.376 . S
C714 C712 1.394 . S
C714 C715 1.369 . S
C714 C718 1.531 . S
C715 C714 1.369 . S
C715 C716 1.410 . S
C715 C723 1.503 . S
C716 C715 1.410 . S
C716 C717 1.392 . S
C716 C719 1.511 . S
C717 C713 1.376 . S
C717 C716 1.392 . S
C717 H729 0.929 . S
C718 C714 1.531 . S
C718 H730 0.960 . S
C718 H731 0.962 . S
C718 H732 0.960 . S
C719 C716 1.511 . S
C719 H733 0.961 . S
C719 H734 0.961 . S
C719 H735 0.961 . S
C720 C721 1.370 . S
C720 C722 1.363 . S
C720 H736 0.931 . S
C721 C720 1.370 . S
C721 C725 1.408 . S
C722 C720 1.363 . S
C722 C723 1.370 . S
C722 C726 1.524 . S
C723 C715 1.503 . S
C723 C722 1.370 . S
C723 C724 1.403 . S
C724 C723 1.403 . S
C724 C725 1.404 . S
C724 C727 1.539 . S
C725 C721 1.408 . S
C725 C724 1.404 . S
C725 H737 0.930 . S
C726 C722 1.524 . S
C726 H738 0.956 . S
C726 H739 0.961 . S
C726 H740 0.961 . S
C727 C724 1.539 . S
C727 H741 0.958 . S
C727 H742 0.961 . S
C727 H743 0.960 . S
H728 C712 0.931 . S
H729 C717 0.929 . S
H730 C718 0.960 . S
H731 C718 0.962 . S
H732 C718 0.960 . S
H733 C719 0.961 . S
H734 C719 0.961 . S
H735 C719 0.961 . S
H736 C720 0.931 . S
H737 C725 0.930 . S
H738 C726 0.956 . S
H739 C726 0.961 . S
H740 C726 0.961 . S
H741 C727 0.958 . S
H742 C727 0.961 . S
H743 C727 0.960 . S
C744 C745 1.391 . S
C744 C746 1.394 . S
C744 H760 0.931 . S
C745 C744 1.391 . S
C745 C749 1.376 . S
C746 C744 1.394 . S
C746 C747 1.369 . S
C746 C750 1.531 . S
C747 C746 1.369 . S
C747 C748 1.410 . S
C747 C755 1.503 . S
C748 C747 1.410 . S
C748 C749 1.392 . S
C748 C751 1.511 . S
C749 C745 1.376 . S
C749 C748 1.392 . S
C749 H761 0.929 . S
C750 C746 1.531 . S
C750 H762 0.960 . S
C750 H763 0.962 . S
C750 H764 0.960 . S
C751 C748 1.511 . S
C751 H765 0.961 . S
C751 H766 0.961 . S
C751 H767 0.961 . S
C752 C753 1.370 . S
C752 C754 1.363 . S
C752 H768 0.931 . S
C753 C752 1.370 . S
C753 C757 1.408 . S
C754 C752 1.363 . S
C754 C755 1.370 . S
C754 C758 1.524 . S
C755 C747 1.503 . S
C755 C754 1.370 . S
C755 C756 1.403 . S
C756 C755 1.403 . S
C756 C757 1.404 . S
C756 C759 1.539 . S
C757 C753 1.408 . S
C757 C756 1.404 . S
C757 H769 0.930 . S
C758 C754 1.524 . S
C758 H770 0.956 . S
C758 H771 0.961 . S
C758 H772 0.961 . S
C759 C756 1.539 . S
C759 H773 0.958 . S
C759 H774 0.961 . S
C759 H775 0.960 . S
H760 C744 0.931 . S
H761 C749 0.929 . S
H762 C750 0.960 . S
H763 C750 0.962 . S
H764 C750 0.960 . S
H765 C751 0.961 . S
H766 C751 0.961 . S
H767 C751 0.961 . S
H768 C752 0.931 . S
H769 C757 0.930 . S
H770 C758 0.956 . S
H771 C758 0.961 . S
H772 C758 0.961 . S
H773 C759 0.958 . S
H774 C759 0.961 . S
H775 C759 0.960 . S
C776 C777 1.391 . S
C776 C778 1.394 . S
C776 H792 0.931 . S
C777 C776 1.391 . S
C777 C781 1.376 . S
C778 C776 1.394 . S
C778 C779 1.369 . S
C778 C782 1.531 . S
C779 C778 1.369 . S
C779 C780 1.410 . S
C779 C787 1.503 . S
C780 C779 1.410 . S
C780 C781 1.392 . S
C780 C783 1.511 . S
C781 C777 1.376 . S
C781 C780 1.392 . S
C781 H793 0.929 . S
C782 C778 1.531 . S
C782 H794 0.960 . S
C782 H795 0.962 . S
C782 H796 0.960 . S
C783 C780 1.511 . S
C783 H797 0.961 . S
C783 H798 0.961 . S
C783 H799 0.961 . S
C784 C785 1.370 . S
C784 C786 1.363 . S
C784 H800 0.931 . S
C785 C784 1.370 . S
C785 C789 1.408 . S
C786 C784 1.363 . S
C786 C787 1.370 . S
C786 C790 1.524 . S
C787 C779 1.503 . S
C787 C786 1.370 . S
C787 C788 1.403 . S
C788 C787 1.403 . S
C788 C789 1.404 . S
C788 C791 1.539 . S
C789 C785 1.408 . S
C789 C788 1.404 . S
C789 H801 0.930 . S
C790 C786 1.524 . S
C790 H802 0.956 . S
C790 H803 0.961 . S
C790 H804 0.961 . S
C791 C788 1.539 . S
C791 H805 0.958 . S
C791 H806 0.961 . S
C791 H807 0.960 . S
H792 C776 0.931 . S
H793 C781 0.929 . S
H794 C782 0.960 . S
H795 C782 0.962 . S
H796 C782 0.960 . S
H797 C783 0.961 . S
H798 C783 0.961 . S
H799 C783 0.961 . S
H800 C784 0.931 . S
H801 C789 0.930 . S
H802 C790 0.956 . S
H803 C790 0.961 . S
H804 C790 0.961 . S
H805 C791 0.958 . S
H806 C791 0.961 . S
H807 C791 0.960 . S
C808 C809 1.391 . S
C808 C810 1.394 . S
C808 H824 0.931 . S
C809 C808 1.391 . S
C809 C813 1.376 . S
C810 C808 1.394 . S
C810 C811 1.369 . S
C810 C814 1.531 . S
C811 C810 1.369 . S
C811 C812 1.410 . S
C811 C819 1.503 . S
C812 C811 1.410 . S
C812 C813 1.392 . S
C812 C815 1.511 . S
C813 C809 1.376 . S
C813 C812 1.392 . S
C813 H825 0.929 . S
C814 C810 1.531 . S
C814 H826 0.960 . S
C814 H827 0.962 . S
C814 H828 0.960 . S
C815 C812 1.511 . S
C815 H829 0.961 . S
C815 H830 0.961 . S
C815 H831 0.961 . S
C816 C817 1.370 . S
C816 C818 1.363 . S
C816 H832 0.931 . S
C817 C816 1.370 . S
C817 C821 1.408 . S
C818 C816 1.363 . S
C818 C819 1.370 . S
C818 C822 1.524 . S
C819 C811 1.503 . S
C819 C818 1.370 . S
C819 C820 1.403 . S
C820 C819 1.403 . S
C820 C821 1.404 . S
C820 C823 1.539 . S
C821 C817 1.408 . S
C821 C820 1.404 . S
C821 H833 0.930 . S
C822 C818 1.524 . S
C822 H834 0.956 . S
C822 H835 0.961 . S
C822 H836 0.961 . S
C823 C820 1.539 . S
C823 H837 0.958 . S
C823 H838 0.961 . S
C823 H839 0.960 . S
H824 C808 0.931 . S
H825 C813 0.929 . S
H826 C814 0.960 . S
H827 C814 0.962 . S
H828 C814 0.960 . S
H829 C815 0.961 . S
H830 C815 0.961 . S
H831 C815 0.961 . S
H832 C816 0.931 . S
H833 C821 0.930 . S
H834 C822 0.956 . S
H835 C822 0.961 . S
H836 C822 0.961 . S
H837 C823 0.958 . S
H838 C823 0.961 . S
H839 C823 0.960 . S
C840 C841 1.391 . S
C840 C842 1.394 . S
C840 H856 0.931 . S
C841 C840 1.391 . S
C841 C845 1.376 . S
C842 C840 1.394 . S
C842 C843 1.369 . S
C842 C846 1.531 . S
C843 C842 1.369 . S
C843 C844 1.410 . S
C843 C851 1.503 . S
C844 C843 1.410 . S
C844 C845 1.392 . S
C844 C847 1.511 . S
C845 C841 1.376 . S
C845 C844 1.392 . S
C845 H857 0.929 . S
C846 C842 1.531 . S
C846 H858 0.960 . S
C846 H859 0.962 . S
C846 H860 0.960 . S
C847 C844 1.511 . S
C847 H861 0.961 . S
C847 H862 0.961 . S
C847 H863 0.961 . S
C848 C849 1.370 . S
C848 C850 1.363 . S
C848 H864 0.931 . S
C849 C848 1.370 . S
C849 C853 1.408 . S
C850 C848 1.363 . S
C850 C851 1.370 . S
C850 C854 1.524 . S
C851 C843 1.503 . S
C851 C850 1.370 . S
C851 C852 1.403 . S
C852 C851 1.403 . S
C852 C853 1.404 . S
C852 C855 1.539 . S
C853 C849 1.408 . S
C853 C852 1.404 . S
C853 H865 0.930 . S
C854 C850 1.524 . S
C854 H866 0.956 . S
C854 H867 0.961 . S
C854 H868 0.961 . S
C855 C852 1.539 . S
C855 H869 0.958 . S
C855 H870 0.961 . S
C855 H871 0.960 . S
H856 C840 0.931 . S
H857 C845 0.929 . S
H858 C846 0.960 . S
H859 C846 0.962 . S
H860 C846 0.960 . S
H861 C847 0.961 . S
H862 C847 0.961 . S
H863 C847 0.961 . S
H864 C848 0.931 . S
H865 C853 0.930 . S
H866 C854 0.956 . S
H867 C854 0.961 . S
H868 C854 0.961 . S
H869 C855 0.958 . S
H870 C855 0.961 . S
H871 C855 0.960 . S
C872 C873 1.391 . S
C872 C874 1.394 . S
C872 H888 0.931 . S
C873 C872 1.391 . S
C873 C877 1.376 . S
C874 C872 1.394 . S
C874 C875 1.369 . S
C874 C878 1.531 . S
C875 C874 1.369 . S
C875 C876 1.410 . S
C875 C883 1.503 . S
C876 C875 1.410 . S
C876 C877 1.392 . S
C876 C879 1.511 . S
C877 C873 1.376 . S
C877 C876 1.392 . S
C877 H889 0.929 . S
C878 C874 1.531 . S
C878 H890 0.960 . S
C878 H891 0.962 . S
C878 H892 0.960 . S
C879 C876 1.511 . S
C879 H893 0.961 . S
C879 H894 0.961 . S
C879 H895 0.961 . S
C880 C881 1.370 . S
C880 C882 1.363 . S
C880 H896 0.931 . S
C881 C880 1.370 . S
C881 C885 1.408 . S
C882 C880 1.363 . S
C882 C883 1.370 . S
C882 C886 1.524 . S
C883 C875 1.503 . S
C883 C882 1.370 . S
C883 C884 1.403 . S
C884 C883 1.403 . S
C884 C885 1.404 . S
C884 C887 1.539 . S
C885 C881 1.408 . S
C885 C884 1.404 . S
C885 H897 0.930 . S
C886 C882 1.524 . S
C886 H898 0.956 . S
C886 H899 0.961 . S
C886 H900 0.961 . S
C887 C884 1.539 . S
C887 H901 0.958 . S
C887 H902 0.961 . S
C887 H903 0.960 . S
H888 C872 0.931 . S
H889 C877 0.929 . S
H890 C878 0.960 . S
H891 C878 0.962 . S
H892 C878 0.960 . S
H893 C879 0.961 . S
H894 C879 0.961 . S
H895 C879 0.961 . S
H896 C880 0.931 . S
H897 C885 0.930 . S
H898 C886 0.956 . S
H899 C886 0.961 . S
H900 C886 0.961 . S
H901 C887 0.958 . S
H902 C887 0.961 . S
H903 C887 0.960 . S
C904 C905 1.391 . S
C904 C906 1.394 . S
C904 H920 0.931 . S
C905 C904 1.391 . S
C905 C909 1.376 . S
C906 C904 1.394 . S
C906 C907 1.369 . S
C906 C910 1.531 . S
C907 C906 1.369 . S
C907 C908 1.410 . S
C907 C915 1.503 . S
C908 C907 1.410 . S
C908 C909 1.392 . S
C908 C911 1.511 . S
C909 C905 1.376 . S
C909 C908 1.392 . S
C909 H921 0.929 . S
C910 C906 1.531 . S
C910 H922 0.960 . S
C910 H923 0.962 . S
C910 H924 0.960 . S
C911 C908 1.511 . S
C911 H925 0.961 . S
C911 H926 0.961 . S
C911 H927 0.961 . S
C912 C913 1.370 . S
C912 C914 1.363 . S
C912 H928 0.931 . S
C913 C912 1.370 . S
C913 C917 1.408 . S
C914 C912 1.363 . S
C914 C915 1.370 . S
C914 C918 1.524 . S
C915 C907 1.503 . S
C915 C914 1.370 . S
C915 C916 1.403 . S
C916 C915 1.403 . S
C916 C917 1.404 . S
C916 C919 1.539 . S
C917 C913 1.408 . S
C917 C916 1.404 . S
C917 H929 0.930 . S
C918 C914 1.524 . S
C918 H930 0.956 . S
C918 H931 0.961 . S
C918 H932 0.961 . S
C919 C916 1.539 . S
C919 H933 0.958 . S
C919 H934 0.961 . S
C919 H935 0.960 . S
H920 C904 0.931 . S
H921 C909 0.929 . S
H922 C910 0.960 . S
H923 C910 0.962 . S
H924 C910 0.960 . S
H925 C911 0.961 . S
H926 C911 0.961 . S
H927 C911 0.961 . S
H928 C912 0.931 . S
H929 C917 0.930 . S
H930 C918 0.956 . S
H931 C918 0.961 . S
H932 C918 0.961 . S
H933 C919 0.958 . S
H934 C919 0.961 . S
H935 C919 0.960 . S
C169 C5 0.733 . S
C177 C89 0.765 . S
C201 C19 0.727 . S
C209 C103 0.756 . S
C233 C117 0.769 . S
C241 C33 0.777 . S
C265 C47 0.727 . S
C273 C131 0.756 . S
C297 C61 0.736 . S
C305 C145 0.767 . S
C329 C159 0.787 . S
C337 C75 0.758 . S
C361 C121 1.403 . S
C369 C9 1.464 . S
C393 C23 1.458 . S
C401 C135 1.440 . S
C425 C149 1.484 1_556 S
C433 C37 1.430 . S
C457 C163 1.428 . S
C465 C51 1.452 1_554 S
C489 C65 1.404 . S
C497 C93 1.463 . S
C521 C79 1.419 . S
C529 C107 1.460 . S
C553 C165 1.342 . S
C561 C11 1.343 . S
C585 C95 1.343 . S
C593 C25 1.344 . S
C617 C39 1.343 . S
C625 C109 1.344 . S
C649 C123 1.341 . S
C657 C53 1.343 . S
C681 C137 1.343 . S
C689 C67 1.344 . S
C713 C151 1.339 . S
C721 C81 1.342 . S
C745 C0 1.527 . S
C753 C140 1.520 . S
C777 C154 1.487 . S
C785 C14 1.503 . S
C809 C28 1.485 . S
C817 C84 1.503 . S
C841 C42 1.484 . S
C849 C98 1.502 . S
C873 C56 1.504 1_556 S
C881 C112 1.510 . S
C905 C70 1.533 . S
C913 C126 1.523 1_554 S
