# Generated by pormake.
# Topology sne, (6)-cn, num edge types: 1
# Building blocks:
#     Node 0, Type 0, BuildingBlock: IZENUY_clean_sbu_0, # of connection points: 6
#     Node 1, Type 0, BuildingBlock: IZENUY_clean_sbu_0, # of connection points: 6
#     Node 2, Type 0, BuildingBlock: IZENUY_clean_sbu_0, # of connection points: 6
#     Node 3, Type 0, BuildingBlock: IZENUY_clean_sbu_0, # of connection points: 6
#     Node 4, Type 0, BuildingBlock: IZENUY_clean_sbu_0, # of connection points: 6
#     Node 5, Type 0, BuildingBlock: IZENUY_clean_sbu_0, # of connection points: 6
#     Node 6, Type 0, BuildingBlock: IZENUY_clean_sbu_0, # of connection points: 6
#     Node 7, Type 0, BuildingBlock: IZENUY_clean_sbu_0, # of connection points: 6
#     Edge 8, Type (0, 0), BuildingBlock: UVAHIK_clean_linker_0, # of connection points: 2
#     Edge 9, Type (0, 0), BuildingBlock: UVAHIK_clean_linker_0, # of connection points: 2
#     Edge 10, Type (0, 0), BuildingBlock: UVAHIK_clean_linker_0, # of connection points: 2
#     Edge 11, Type (0, 0), BuildingBlock: UVAHIK_clean_linker_0, # of connection points: 2
#     Edge 12, Type (0, 0), BuildingBlock: UVAHIK_clean_linker_0, # of connection points: 2
#     Edge 13, Type (0, 0), BuildingBlock: UVAHIK_clean_linker_0, # of connection points: 2
#     Edge 14, Type (0, 0), BuildingBlock: UVAHIK_clean_linker_0, # of connection points: 2
#     Edge 15, Type (0, 0), BuildingBlock: UVAHIK_clean_linker_0, # of connection points: 2
#     Edge 16, Type (0, 0), BuildingBlock: UVAHIK_clean_linker_0, # of connection points: 2
#     Edge 17, Type (0, 0), BuildingBlock: UVAHIK_clean_linker_0, # of connection points: 2
#     Edge 18, Type (0, 0), BuildingBlock: UVAHIK_clean_linker_0, # of connection points: 2
#     Edge 19, Type (0, 0), BuildingBlock: UVAHIK_clean_linker_0, # of connection points: 2
#     Edge 20, Type (0, 0), BuildingBlock: UVAHIK_clean_linker_0, # of connection points: 2
#     Edge 21, Type (0, 0), BuildingBlock: UVAHIK_clean_linker_0, # of connection points: 2
#     Edge 22, Type (0, 0), BuildingBlock: UVAHIK_clean_linker_0, # of connection points: 2
#     Edge 23, Type (0, 0), BuildingBlock: UVAHIK_clean_linker_0, # of connection points: 2
#     Edge 24, Type (0, 0), BuildingBlock: UVAHIK_clean_linker_0, # of connection points: 2
#     Edge 25, Type (0, 0), BuildingBlock: UVAHIK_clean_linker_0, # of connection points: 2
#     Edge 26, Type (0, 0), BuildingBlock: UVAHIK_clean_linker_0, # of connection points: 2
#     Edge 27, Type (0, 0), BuildingBlock: UVAHIK_clean_linker_0, # of connection points: 2
#     Edge 28, Type (0, 0), BuildingBlock: UVAHIK_clean_linker_0, # of connection points: 2
#     Edge 29, Type (0, 0), BuildingBlock: UVAHIK_clean_linker_0, # of connection points: 2
#     Edge 30, Type (0, 0), BuildingBlock: UVAHIK_clean_linker_0, # of connection points: 2
#     Edge 31, Type (0, 0), BuildingBlock: UVAHIK_clean_linker_0, # of connection points: 2
# Relax obj value: 0.264
# Max RMSD: 0.254
# Mean RMSD: 0.252
data_MOF--net-sne--node1-IZENUY_clean_sbu_0--edge1-UVAHIK_clean_linker_0
_symmetry_space_group_name_H-M    P1
_symmetry_Int_Tables_number       1
_symmetry_cell_setting            triclinic
loop_
_symmetry_equiv_pos_as_xyz
'x, y, z'
_cell_length_a     44.886149
_cell_length_b     44.945124
_cell_length_c     33.155849
_cell_angle_alpha  90.153203
_cell_angle_beta   89.903371
_cell_angle_gamma 90.032711
loop_
_atom_site_label
_atom_site_type_symbol
_atom_site_fract_x
_atom_site_fract_y
_atom_site_fract_z
_atom_type_partial_charge
Fe0 Fe 0.24265 0.17047 0.36311 0.0
Fe1 Fe 0.2268 0.10611 0.34271 0.0
O2 O 0.25113 0.13208 0.36564 0.0
Fe3 Fe 0.28387 0.12035 0.39099 0.0
O4 O 0.27185 0.13753 0.43811 0.0
O5 O 0.26091 0.18018 0.41013 0.0
O6 O 0.20884 0.16487 0.39177 0.0
C7 C 0.1884 0.14706 0.38159 0.0
C8 C 0.30207 0.17083 0.34684 0.0
O9 O 0.19288 0.12728 0.35486 0.0
C10 C 0.28431 0.08337 0.32501 0.0
O11 O 0.22227 0.16856 0.31579 0.0
O12 O 0.23102 0.12366 0.29343 0.0
O13 O 0.3055 0.1532 0.37628 0.0
O14 O 0.27635 0.17749 0.33424 0.0
C15 C 0.24146 0.07618 0.41207 0.0
O16 O 0.25633 0.08071 0.32743 0.0
O17 O 0.29839 0.10199 0.34625 0.0
C18 C 0.22467 0.1505 0.28694 0.0
O19 O 0.2211 0.08633 0.38976 0.0
O20 O 0.26793 0.08559 0.40944 0.0
C21 C 0.26497 0.16462 0.44113 0.0
Fe22 Fe 0.17053 0.75229 0.64888 0.0
Fe23 Fe 0.11285 0.78828 0.65118 0.0
O24 O 0.13226 0.75552 0.63747 0.0
Fe25 Fe 0.1132 0.7264 0.61265 0.0
O26 O 0.12179 0.70061 0.65236 0.0
O27 O 0.16929 0.71181 0.65804 0.0
O28 O 0.16329 0.75704 0.702 0.0
C29 C 0.15175 0.78005 0.71674 0.0
C30 C 0.17021 0.72703 0.57429 0.0
O31 O 0.13644 0.79726 0.695 0.0
C32 C 0.08741 0.77345 0.57575 0.0
O33 O 0.1785 0.79237 0.64065 0.0
O34 O 0.13585 0.80979 0.61806 0.0
O35 O 0.14552 0.71436 0.58182 0.0
O36 O 0.18028 0.74706 0.59695 0.0
C37 C 0.07226 0.74663 0.67258 0.0
O38 O 0.08581 0.78605 0.60986 0.0
O39 O 0.10296 0.75039 0.57117 0.0
C40 C 0.16384 0.81094 0.61966 0.0
O41 O 0.08858 0.76775 0.6846 0.0
O42 O 0.0778 0.73323 0.63954 0.0
C43 C 0.14748 0.69459 0.66494 0.0
Fe44 Fe 0.75885 0.82151 0.35791 0.0
Fe45 Fe 0.72461 0.87737 0.38392 0.0
O46 O 0.75576 0.86081 0.35983 0.0
Fe47 Fe 0.7839 0.88299 0.33741 0.0
O48 O 0.77793 0.86597 0.28802 0.0
O49 O 0.77987 0.82036 0.3109 0.0
O50 O 0.72495 0.81866 0.3283 0.0
C51 C 0.70027 0.82986 0.33879 0.0
C52 C 0.81585 0.83688 0.37619 0.0
O53 O 0.69859 0.8484 0.36758 0.0
C54 C 0.77293 0.91464 0.40693 0.0
O55 O 0.73843 0.81461 0.40442 0.0
O56 O 0.7323 0.85863 0.43131 0.0
O57 O 0.81405 0.85712 0.34974 0.0
O58 O 0.79297 0.8226 0.38729 0.0
C59 C 0.73088 0.91455 0.31907 0.0
O60 O 0.74538 0.90917 0.40368 0.0
O61 O 0.79189 0.90184 0.38469 0.0
C62 C 0.73355 0.83078 0.43481 0.0
O63 O 0.71408 0.89761 0.339 0.0
O64 O 0.75888 0.91276 0.32183 0.0
C65 C 0.78111 0.83845 0.28198 0.0
Fe66 Fe 0.88531 0.27434 0.5867 0.0
Fe67 Fe 0.88465 0.21858 0.64136 0.0
O68 O 0.86567 0.24774 0.61599 0.0
Fe69 Fe 0.82639 0.2499 0.61971 0.0
O70 O 0.82058 0.26691 0.5709 0.0
O71 O 0.86414 0.26548 0.54137 0.0
O72 O 0.91321 0.24796 0.56874 0.0
C73 C 0.9143 0.21983 0.56877 0.0
C74 C 0.84176 0.3083 0.62884 0.0
O75 O 0.9005 0.2046 0.59469 0.0
C76 C 0.84294 0.23315 0.69773 0.0
O77 O 0.90858 0.28538 0.62893 0.0
O78 O 0.91799 0.24045 0.65209 0.0
O79 O 0.82861 0.28606 0.64398 0.0
O80 O 0.86039 0.30519 0.60026 0.0
C81 C 0.83451 0.19035 0.60768 0.0
O82 O 0.87034 0.23044 0.6903 0.0
O83 O 0.82423 0.23335 0.66947 0.0
C84 C 0.92362 0.26798 0.65067 0.0
O85 O 0.85459 0.19131 0.63449 0.0
O86 O 0.82249 0.21397 0.5951 0.0
C87 C 0.83615 0.26585 0.53942 0.0
Fe88 Fe 0.28081 0.39068 0.84117 0.0
Fe89 Fe 0.26584 0.32474 0.85079 0.0
O90 O 0.25653 0.36259 0.85868 0.0
Fe91 Fe 0.22275 0.37187 0.8835 0.0
O92 O 0.20925 0.39276 0.84024 0.0
O93 O 0.2512 0.41667 0.82854 0.0
O94 O 0.27821 0.37723 0.78945 0.0
C95 C 0.28538 0.35126 0.77913 0.0
C96 C 0.26346 0.41518 0.91297 0.0
O97 O 0.28721 0.33078 0.80481 0.0
C98 C 0.24061 0.32444 0.92841 0.0
O99 O 0.31476 0.36936 0.85136 0.0
O100 O 0.29921 0.32838 0.88124 0.0
O101 O 0.23727 0.4057 0.90718 0.0
O102 O 0.28483 0.40644 0.89121 0.0
C103 C 0.20675 0.32489 0.83176 0.0
O104 O 0.24661 0.31126 0.89571 0.0
O105 O 0.23388 0.35171 0.92856 0.0
C106 C 0.31936 0.34743 0.8745 0.0
O107 O 0.23287 0.31958 0.81944 0.0
O108 O 0.20226 0.33971 0.86372 0.0
C109 C 0.22362 0.41312 0.82265 0.0
Fe110 Fe 0.31899 0.74583 0.13939 0.0
Fe111 Fe 0.37939 0.76581 0.10663 0.0
O112 O 0.35759 0.73935 0.13295 0.0
Fe113 Fe 0.37399 0.70668 0.1529 0.0
O114 O 0.34113 0.68344 0.14348 0.0
O115 O 0.31001 0.71256 0.11061 0.0
O116 O 0.3145 0.7669 0.09299 0.0
C117 C 0.32922 0.76571 0.0606 0.0
C118 C 0.33459 0.71885 0.21325 0.0
O119 O 0.35702 0.76183 0.06116 0.0
C120 C 0.41735 0.75137 0.16808 0.0
O121 O 0.32637 0.77951 0.16855 0.0
O122 O 0.35771 0.79772 0.12397 0.0
O123 O 0.36168 0.71557 0.20405 0.0
O124 O 0.31573 0.7257 0.18674 0.0
C125 C 0.40344 0.71075 0.08049 0.0
O126 O 0.4033 0.77163 0.14996 0.0
O127 O 0.40961 0.72437 0.16509 0.0
C128 C 0.34195 0.80087 0.15536 0.0
O129 O 0.40498 0.73862 0.08505 0.0
O130 O 0.38767 0.69498 0.10365 0.0
C131 C 0.31952 0.68691 0.11937 0.0
Fe132 Fe 0.77106 0.62068 0.87033 0.0
Fe133 Fe 0.72844 0.67309 0.86115 0.0
O134 O 0.7363 0.63485 0.85446 0.0
Fe135 Fe 0.70986 0.61074 0.83224 0.0
O136 O 0.72054 0.57855 0.86339 0.0
O137 O 0.75335 0.59648 0.90651 0.0
O138 O 0.77655 0.648 0.91131 0.0
C139 C 0.75747 0.66284 0.93099 0.0
C140 C 0.7601 0.58805 0.79859 0.0
O141 O 0.7333 0.67022 0.91493 0.0
C142 C 0.70446 0.66417 0.78692 0.0
O143 O 0.79001 0.6438 0.8345 0.0
O144 O 0.76749 0.68528 0.85245 0.0
O145 O 0.73535 0.60033 0.79216 0.0
O146 O 0.77268 0.59084 0.83251 0.0
C147 C 0.67354 0.64473 0.87989 0.0
O148 O 0.7227 0.6784 0.80825 0.0
O149 O 0.69456 0.63893 0.79751 0.0
C150 C 0.78813 0.67172 0.83359 0.0
O151 O 0.68828 0.66771 0.87024 0.0
O152 O 0.68264 0.61912 0.87068 0.0
C153 C 0.7346 0.57685 0.89657 0.0
Fe154 Fe 0.67648 0.25107 0.12914 0.0
Fe155 Fe 0.61963 0.2887 0.13268 0.0
O156 O 0.638 0.25532 0.11912 0.0
Fe157 Fe 0.61836 0.22604 0.09544 0.0
O158 O 0.64036 0.19661 0.11911 0.0
O159 O 0.66908 0.21996 0.1626 0.0
O160 O 0.67677 0.27528 0.17324 0.0
C161 C 0.65625 0.2827 0.1972 0.0
C162 C 0.67045 0.22374 0.05353 0.0
O163 O 0.62963 0.28444 0.18557 0.0
C164 C 0.59347 0.27758 0.05967 0.0
O165 O 0.68558 0.282 0.09622 0.0
O166 O 0.65209 0.31229 0.12247 0.0
O167 O 0.64267 0.22755 0.05152 0.0
O168 O 0.68383 0.2261 0.08679 0.0
C169 C 0.57741 0.24387 0.15175 0.0
O170 O 0.60808 0.29564 0.08107 0.0
O171 O 0.59273 0.25021 0.06822 0.0
C172 C 0.67501 0.30784 0.10087 0.0
O173 O 0.58415 0.27073 0.14482 0.0
O174 O 0.59275 0.22279 0.13747 0.0
C175 C 0.65531 0.1968 0.1515 0.0
C176 C 0.32594 0.04697 0.31735 0.0
C177 C 0.30042 0.0607 0.30162 0.0
C178 C 0.3367 0.02069 0.29994 0.0
C179 C 0.33184 0.97236 0.20992 0.0
H180 H 0.33708 0.90718 0.28613 0.0
C181 C 0.35885 0.85358 0.15884 0.0
C182 C 0.3406 0.83074 0.17411 0.0
C183 C 0.35788 0.88205 0.17529 0.0
C184 C 0.33566 0.92518 0.26457 0.0
H185 H 0.26756 0.05951 0.25388 0.0
H186 H 0.28666 0.01418 0.22298 0.0
H187 H 0.33093 0.95814 0.31092 0.0
H188 H 0.30762 0.81978 0.21956 0.0
H189 H 0.30567 0.87008 0.24828 0.0
H190 H 0.33551 0.93948 0.16354 0.0
C191 C 0.29828 0.02336 0.24878 0.0
C192 C 0.33259 0.95434 0.27872 0.0
C193 C 0.2873 0.04925 0.26649 0.0
C194 C 0.32179 0.83693 0.20697 0.0
C195 C 0.32085 0.86562 0.22357 0.0
C196 C 0.33508 0.9433 0.19581 0.0
C197 C 0.32236 0.00822 0.26621 0.0
C198 C 0.33012 0.97812 0.25148 0.0
C199 C 0.33867 0.8885 0.20749 0.0
C200 C 0.33657 0.91937 0.22295 0.0
H201 H 0.33626 0.05531 0.34466 0.0
H202 H 0.35547 0.0095 0.3137 0.0
H203 H 0.33001 0.9903 0.18831 0.0
H204 H 0.37397 0.84959 0.1339 0.0
H205 H 0.37222 0.89908 0.16273 0.0
C206 C 0.02554 0.71705 0.68104 0.0
C207 C 0.0439 0.74056 0.6938 0.0
C208 C -0.00207 0.7123 0.6992 0.0
C209 C 0.93865 0.74977 0.75629 0.0
H210 H 0.91308 0.66872 0.77617 0.0
C211 C 0.82643 0.71245 0.8332 0.0
C212 C 0.81299 0.68775 0.81461 0.0
C213 C 0.85415 0.72275 0.81941 0.0
C214 C 0.91986 0.69149 0.77058 0.0
H215 H 0.04779 0.77728 0.73621 0.0
H216 H -0.00058 0.76875 0.7681 0.0
H217 H 0.96355 0.67807 0.75267 0.0
H218 H 0.81611 0.65628 0.76518 0.0
H219 H 0.86382 0.67451 0.74078 0.0
H220 H 0.89451 0.76296 0.77413 0.0
C221 C 0.00641 0.75424 0.74374 0.0
C222 C 0.94874 0.69683 0.75713 0.0
C223 C 0.03418 0.75894 0.72564 0.0
C224 C 0.82627 0.67515 0.78027 0.0
C225 C 0.85362 0.68544 0.76649 0.0
C226 C 0.90958 0.74439 0.76993 0.0
C227 C 0.98798 0.73092 0.73058 0.0
C228 C 0.95826 0.72592 0.74889 0.0
C229 C 0.86847 0.70841 0.78696 0.0
C230 C 0.89976 0.7151 0.77616 0.0
H231 H 0.03229 0.70249 0.6566 0.0
H232 H 0.98405 0.69436 0.68803 0.0
H233 H 0.94539 0.77244 0.75006 0.0
H234 H 0.81661 0.72238 0.85989 0.0
H235 H 0.86516 0.7406 0.83556 0.0
C236 C 0.6899 0.95139 0.30815 0.0
C237 C 0.71816 0.9403 0.29773 0.0
C238 C 0.68037 0.97886 0.29331 0.0
C239 C 0.7122 0.04863 0.25417 0.0
H240 H 0.63092 0.06618 0.22303 0.0
C241 C 0.67686 0.16688 0.2083 0.0
C242 C 0.65935 0.16848 0.17331 0.0
C243 C 0.68152 0.13954 0.22731 0.0
C244 C 0.65374 0.06158 0.23157 0.0
H245 H 0.7575 0.94792 0.26111 0.0
H246 H 0.74052 0.99526 0.23433 0.0
H247 H 0.64387 0.01605 0.24491 0.0
H248 H 0.63215 0.1428 0.13165 0.0
H249 H 0.64083 0.09542 0.16406 0.0
H250 H 0.72241 0.0937 0.23937 0.0
C251 C 0.72617 0.98337 0.25506 0.0
C252 C 0.66108 0.03295 0.24441 0.0
C253 C 0.73578 0.95612 0.27011 0.0
C254 C 0.6459 0.14241 0.15846 0.0
C255 C 0.65063 0.11519 0.1773 0.0
C256 C 0.70491 0.07717 0.24119 0.0
C257 C 0.69884 0.99552 0.26758 0.0
C258 C 0.6905 0.02606 0.25523 0.0
C259 C 0.66876 0.11334 0.21164 0.0
C260 C 0.6757 0.08387 0.22921 0.0
H261 H 0.67586 0.93971 0.32948 0.0
H262 H 0.65919 0.98764 0.30352 0.0
H263 H 0.73495 0.04421 0.26319 0.0
H264 H 0.68727 0.18662 0.22072 0.0
H265 H 0.69529 0.13887 0.25408 0.0
C266 C 0.15645 0.30219 0.83179 0.0
C267 C 0.18061 0.31359 0.80991 0.0
C268 C 0.12927 0.29681 0.81287 0.0
C269 C 0.09119 0.29322 0.7128 0.0
H270 H 0.02194 0.31076 0.77893 0.0
C271 C 0.96969 0.29936 0.65179 0.0
C272 C 0.95088 0.27865 0.67075 0.0
C273 C -0.00219 0.30567 0.66795 0.0
C274 C 0.04111 0.30587 0.76015 0.0
H275 H 0.19594 0.32746 0.751 0.0
H276 H 0.14797 0.31919 0.71785 0.0
H277 H 0.07156 0.31611 0.80744 0.0
H278 H 0.94592 0.24938 0.72214 0.0
H279 H 0.99448 0.26142 0.75126 0.0
H280 H 0.06017 0.28386 0.66517 0.0
C281 C 0.15011 0.31357 0.74943 0.0
C282 C 0.0696 0.30856 0.77653 0.0
C283 C 0.17763 0.31828 0.76831 0.0
C284 C 0.96 0.26548 0.70704 0.0
C285 C 0.98771 0.27234 0.72365 0.0
C286 C 0.06261 0.29108 0.6962 0.0
C287 C 0.1253 0.3036 0.77181 0.0
C288 C 0.09506 0.3017 0.75337 0.0
C289 C 0.00711 0.29195 0.70379 0.0
C290 C 0.03736 0.29696 0.71997 0.0
H291 H 0.15835 0.29827 0.86393 0.0
H292 H 0.11112 0.28808 0.83084 0.0
H293 H 0.11014 0.28752 0.69408 0.0
H294 H 0.96329 0.30952 0.62351 0.0
H295 H 0.01242 0.32096 0.65226 0.0
C296 C 0.30931 0.63254 0.12122 0.0
C297 C 0.30522 0.66018 0.10234 0.0
C298 C 0.29947 0.60645 0.10284 0.0
C299 C 0.2882 0.57598 0.0029 0.0
H300 H 0.25548 0.50859 0.06098 0.0
C301 C 0.29437 0.45731 0.93944 0.0
C302 C 0.26783 0.44072 0.9405 0.0
C303 C 0.2967 0.48394 0.96095 0.0
C304 C 0.26443 0.52728 0.04433 0.0
H305 H 0.28636 0.68243 0.05038 0.0
H306 H 0.26925 0.63647 0.01787 0.0
H307 H 0.25985 0.55681 0.09476 0.0
H308 H 0.22357 0.43821 0.96685 0.0
H309 H 0.22781 0.48461 0.00455 0.0
H310 H 0.29309 0.54645 0.95262 0.0
C311 C 0.28017 0.63515 0.04691 0.0
C312 C 0.26701 0.5548 0.06365 0.0
C313 C 0.28977 0.6614 0.06558 0.0
C314 C 0.24429 0.45053 0.96523 0.0
C315 C 0.2467 0.47707 0.98691 0.0
C316 C 0.28578 0.54845 0.98367 0.0
C317 C 0.28554 0.6074 0.06502 0.0
C318 C 0.27929 0.5793 0.04328 0.0
C319 C 0.27264 0.49438 0.98418 0.0
C320 C 0.27428 0.52373 0.00438 0.0
H321 H 0.32097 0.63093 0.14972 0.0
H322 H 0.30416 0.5854 0.11734 0.0
H323 H 0.29805 0.59439 0.9866 0.0
H324 H 0.31297 0.45034 0.92081 0.0
H325 H 0.31718 0.49662 0.95895 0.0
C326 C 0.62998 0.62295 0.91658 0.0
C327 C 0.64379 0.64773 0.89862 0.0
C328 C 0.60136 0.6253 0.93286 0.0
C329 C 0.53285 0.66907 0.9259 0.0
H330 H 0.51738 0.64221 0.035 0.0
C331 C 0.43734 0.71445 0.02139 0.0
C332 C 0.42408 0.69676 0.05132 0.0
C333 C 0.46057 0.7034 -0.00211 0.0
C334 C 0.52104 0.64917 0.00414 0.0
H335 H 0.63847 0.6944 0.88386 0.0
H336 H 0.58832 0.69841 0.9121 0.0
H337 H 0.56605 0.63332 0.00445 0.0
H338 H 0.42335 0.65285 0.0782 0.0
H339 H 0.46401 0.63325 0.03654 0.0
H340 H 0.48805 0.68518 0.92553 0.0
C341 C 0.59968 0.67717 0.91337 0.0
C342 C 0.549 0.64424 0.98678 0.0
C343 C 0.62846 0.67495 0.89754 0.0
C344 C 0.43322 0.66703 0.05544 0.0
C345 C 0.45665 0.65592 0.03184 0.0
C346 C 0.50482 0.67373 0.94306 0.0
C347 C 0.58584 0.65234 0.93104 0.0
C348 C 0.5554 0.65489 0.94793 0.0
C349 C 0.47112 0.6743 0.00359 0.0
C350 C 0.49886 0.66464 0.98284 0.0
H351 H 0.64127 0.60168 0.91802 0.0
H352 H 0.59117 0.60583 0.94626 0.0
H353 H 0.53705 0.67696 0.89557 0.0
H354 H 0.43063 0.73739 0.0172 0.0
H355 H 0.47132 0.71834 0.97682 0.0
C356 C 0.71127 0.33063 0.05217 0.0
C357 C 0.69036 0.33383 0.08346 0.0
C358 C 0.72347 0.3558 0.03366 0.0
C359 C 0.73174 0.43765 0.04526 0.0
H360 H 0.72577 0.43848 0.92864 0.0
C361 C 0.75324 0.54375 0.95167 0.0
C362 C 0.733 0.54908 0.92017 0.0
C363 C 0.75326 0.5165 0.97175 0.0
C364 C 0.72754 0.43858 0.96122 0.0
H365 H 0.667 0.36577 0.12127 0.0
H366 H 0.68789 0.40925 0.08896 0.0
H367 H 0.7182 0.39201 0.96494 0.0
H368 H 0.69639 0.53029 0.88583 0.0
H369 H 0.69593 0.4831 0.92156 0.0
H370 H 0.73932 0.4845 0.04178 0.0
C371 C 0.69514 0.38751 0.07879 0.0
C372 C 0.72366 0.41188 0.98195 0.0
C373 C 0.68289 0.36251 0.09703 0.0
C374 C 0.71238 0.52684 0.90979 0.0
C375 C 0.71233 0.49967 0.92998 0.0
C376 C 0.7355 0.46435 0.02456 0.0
C377 C 0.71514 0.38448 0.04645 0.0
C378 C 0.7248 0.41134 0.02426 0.0
C379 C 0.73296 0.49409 0.9609 0.0
C380 C 0.73256 0.46525 0.98241 0.0
H381 H 0.71746 0.30877 0.04115 0.0
H382 H 0.73899 0.35286 0.00891 0.0
H383 H 0.73314 0.43779 0.07788 0.0
H384 H 0.76953 0.56037 0.9603 0.0
H385 H 0.76952 0.51281 -0.00468 0.0
C386 C 0.56723 0.31934 0.02403 0.0
C387 C 0.57257 0.28874 0.02878 0.0
C388 C 0.54374 0.32917 -0.00024 0.0
C389 C 0.48636 0.30279 0.92587 0.0
H390 H 0.43744 0.36329 0.97682 0.0
C391 C 0.35993 0.31424 0.90004 0.0
C392 C 0.34974 0.34281 0.89004 0.0
C393 C 0.38933 0.31005 0.91256 0.0
C394 C 0.45106 0.34659 0.96207 0.0
H395 H 0.55899 0.24462 0.0092 0.0
H396 H 0.51796 0.26152 0.96833 0.0
H397 H 0.48675 0.3526 0.0038 0.0
H398 H 0.36192 0.38947 0.88639 0.0
H399 H 0.41307 0.38213 0.90937 0.0
H400 H 0.4497 0.29575 0.88562 0.0
C401 C 0.53187 0.27812 0.9827 0.0
C402 C 0.47942 0.34061 0.97725 0.0
C403 C 0.55535 0.26836 0.00659 0.0
C404 C 0.36925 0.36716 0.89369 0.0
C405 C 0.39844 0.36303 0.90689 0.0
C406 C 0.45782 0.30844 0.91117 0.0
C407 C 0.52516 0.30858 0.97993 0.0
C408 C 0.49717 0.31815 0.95989 0.0
C409 C 0.4088 0.33442 0.91601 0.0
C410 C 0.43975 0.32999 0.92964 0.0
H411 H 0.58029 0.33563 0.04041 0.0
H412 H 0.53956 0.35284 -0.00239 0.0
H413 H 0.49966 0.28583 0.91118 0.0
H414 H 0.34539 0.29508 0.8974 0.0
H415 H 0.39683 0.2878 0.91988 0.0
C416 C 0.75329 0.55458 0.7386 0.0
C417 C 0.77122 0.56508 0.77032 0.0
C418 C 0.76173 0.52938 0.71657 0.0
C419 C 0.82485 0.47814 0.69581 0.0
H420 H 0.76256 0.41879 0.68521 0.0
C421 C 0.84606 0.3636 0.62249 0.0
C422 C 0.83344 0.33874 0.64175 0.0
C423 C 0.83822 0.39239 0.63417 0.0
C424 C 0.78021 0.4351 0.6881 0.0
H425 H 0.81313 0.55875 0.80171 0.0
H426 H 0.82769 0.51489 0.76357 0.0
H427 H 0.75027 0.46824 0.71057 0.0
H428 H 0.80274 0.32472 0.68863 0.0
H429 H 0.78934 0.37509 0.70941 0.0
H430 H 0.85499 0.44464 0.67486 0.0
C431 C 0.80714 0.52603 0.75562 0.0
C432 C 0.7731 0.46357 0.70205 0.0
C433 C 0.79868 0.55111 0.77767 0.0
C434 C 0.81278 0.34336 0.67305 0.0
C435 C 0.80496 0.37223 0.68477 0.0
C436 C 0.83195 0.44967 0.68185 0.0
C437 C 0.78834 0.51434 0.72566 0.0
C438 C 0.79542 0.48528 0.70661 0.0
C439 C 0.81762 0.39705 0.66546 0.0
C440 C 0.80978 0.42771 0.67837 0.0
H441 H 0.73207 0.56493 0.73199 0.0
H442 H 0.74703 0.52116 0.69318 0.0
H443 H 0.84249 0.49445 0.6987 0.0
H444 H 0.86198 0.36089 0.59817 0.0
H445 H 0.8481 0.41102 0.61838 0.0
C446 C 0.53878 0.20802 0.17656 0.0
C447 C 0.54934 0.23734 0.17327 0.0
C448 C 0.51151 0.20223 0.19528 0.0
C449 C 0.44068 0.23815 0.22439 0.0
H450 H 0.43355 0.17028 0.29564 0.0
C451 C 0.32828 0.19505 0.28878 0.0
C452 C 0.3288 0.18415 0.32843 0.0
C453 C 0.35476 0.20386 0.26994 0.0
C454 C 0.43524 0.18949 0.27611 0.0
H455 H 0.53981 0.28354 0.1878 0.0
H456 H 0.49257 0.27331 0.22098 0.0
H457 H 0.48099 0.18056 0.26306 0.0
H458 H 0.35691 0.17587 0.38042 0.0
H459 H 0.40271 0.19179 0.34798 0.0
H460 H 0.39496 0.24736 0.23825 0.0
C461 C 0.50506 0.25488 0.20837 0.0
C462 C 0.46232 0.19513 0.25703 0.0
C463 C 0.53226 0.26068 0.18961 0.0
C464 C 0.35587 0.18375 0.3496 0.0
C465 C 0.38216 0.19271 0.33096 0.0
C466 C 0.41353 0.23251 0.24357 0.0
C467 C 0.49431 0.22563 0.21121 0.0
C468 C 0.46537 0.21954 0.23104 0.0
C469 C 0.38205 0.20202 0.29059 0.0
C470 C 0.4106 0.20821 0.2698 0.0
H471 H 0.55134 0.18955 0.16418 0.0
H472 H 0.50367 0.17946 0.19667 0.0
H473 H 0.44228 0.25695 0.20413 0.0
H474 H 0.30771 0.1955 0.27175 0.0
H475 H 0.35402 0.21087 0.23873 0.0
C476 C 0.18017 0.65102 0.68036 0.0
C477 C 0.15231 0.66504 0.68302 0.0
C478 C 0.18352 0.62161 0.69314 0.0
C479 C 0.15287 0.56454 0.75905 0.0
H480 H 0.19173 0.5098 0.68524 0.0
C481 C 0.17847 0.44373 0.80574 0.0
C482 C 0.20823 0.43577 0.7983 0.0
C483 C 0.16626 0.46887 0.78706 0.0
C484 C 0.18086 0.5248 0.70623 0.0
H485 H 0.10648 0.65992 0.70286 0.0
H486 H 0.11263 0.60875 0.72604 0.0
H487 H 0.18283 0.56107 0.66458 0.0
H488 H 0.24772 0.44614 0.76325 0.0
H489 H 0.22681 0.48965 0.73133 0.0
H490 H 0.15218 0.52877 0.80149 0.0
C491 C 0.13169 0.62037 0.71362 0.0
C492 C 0.17586 0.55412 0.69441 0.0
C493 C 0.12821 0.64959 0.70028 0.0
C494 C 0.2248 0.45196 0.76989 0.0
C495 C 0.21266 0.4768 0.75124 0.0
C496 C 0.15822 0.53525 0.77112 0.0
C497 C 0.1592 0.60594 0.70937 0.0
C498 C 0.16246 0.57441 0.72105 0.0
C499 C 0.18357 0.48611 0.76043 0.0
C500 C 0.173 0.51528 0.7452 0.0
H501 H 0.19908 0.66235 0.66706 0.0
H502 H 0.20508 0.61101 0.69006 0.0
H503 H 0.14243 0.57981 0.78008 0.0
H504 H 0.16522 0.43157 0.82749 0.0
H505 H 0.14364 0.47531 0.79437 0.0
C506 C 0.66993 0.7929 0.29942 0.0
C507 C 0.67242 0.82055 0.31898 0.0
C508 C 0.64286 0.78433 0.28198 0.0
C509 C 0.57443 0.81415 0.23924 0.0
H510 H 0.53721 0.74026 0.27232 0.0
C511 C 0.45275 0.7881 0.19862 0.0
C512 C 0.44574 0.75863 0.18821 0.0
C513 C 0.48056 0.79502 0.21503 0.0
C514 C 0.54746 0.76075 0.26223 0.0
H515 H 0.64903 0.86128 0.33453 0.0
H516 H 0.60219 0.84652 0.30347 0.0
H517 H 0.58683 0.75284 0.29715 0.0
H518 H 0.46225 0.71324 0.18714 0.0
H519 H 0.51089 0.7254 0.21445 0.0
H520 H 0.53561 0.82201 0.20373 0.0
C521 C 0.62095 0.8314 0.30198 0.0
C522 C 0.57584 0.7679 0.27651 0.0
C523 C 0.64769 0.83971 0.31997 0.0
C524 C 0.46687 0.73616 0.19516 0.0
C525 C 0.49478 0.74313 0.21101 0.0
C526 C 0.54628 0.80683 0.22449 0.0
C527 C 0.61822 0.8036 0.28311 0.0
C528 C 0.58937 0.79481 0.26547 0.0
C529 C 0.50209 0.77267 0.22082 0.0
C530 C 0.53227 0.7802 0.23616 0.0
H531 H 0.68867 0.77774 0.29825 0.0
H532 H 0.6412 0.76279 0.26741 0.0
H533 H 0.5846 0.83494 0.2301 0.0
H534 H 0.43682 0.80585 0.19389 0.0
H535 H 0.48516 0.81793 0.22308 0.0
C536 C 0.83481 0.13476 0.61001 0.0
C537 C 0.82532 0.16114 0.59129 0.0
C538 C 0.82881 0.10712 0.59255 0.0
C539 C 0.81471 0.07255 0.49456 0.0
H540 H 0.78835 0.00488 0.55766 0.0
C541 C 0.80945 0.95413 0.42756 0.0
C542 C 0.7822 0.93938 0.43359 0.0
C543 C 0.81612 0.97999 0.44932 0.0
C544 C 0.79573 0.02359 0.5397 0.0
H545 H 0.80148 0.17915 0.54 0.0
H546 H 0.79101 0.13071 0.50945 0.0
H547 H 0.79492 0.05326 0.59036 0.0
H548 H 0.74136 0.93917 0.46875 0.0
H549 H 0.75314 0.98404 0.5068 0.0
H550 H 0.81526 0.043 0.44383 0.0
C551 C 0.80323 0.13155 0.53757 0.0
C552 C 0.79961 0.05121 0.55842 0.0
C553 C 0.809 0.15924 0.55524 0.0
C554 C 0.76248 0.95013 0.46323 0.0
C555 C 0.76927 0.97575 0.4852 0.0
C556 C 0.81108 0.04489 0.47592 0.0
C557 C 0.81341 0.10526 0.55581 0.0
C558 C 0.80896 0.076 0.53598 0.0
C559 C 0.79583 0.99133 0.47783 0.0
C560 C 0.8014 0.02017 0.49825 0.0
H561 H 0.84743 0.13544 0.63782 0.0
H562 H 0.8371 0.08726 0.60715 0.0
H563 H 0.8223 0.0912 0.47663 0.0
H564 H 0.8251 0.94642 0.40494 0.0
H565 H 0.83693 0.99141 0.4434 0.0
C566 C 0.15284 0.1728 0.42801 0.0
C567 C 0.15816 0.15114 0.39826 0.0
C568 C 0.12421 0.17713 0.44318 0.0
C569 C 0.05049 0.14224 0.45402 0.0
H570 H 0.02526 0.22404 0.46871 0.0
C571 C 0.95046 0.17923 0.55243 0.0
C572 C 0.93543 0.20528 0.54111 0.0
C573 C 0.97459 0.169 0.52958 0.0
C574 C 0.0317 0.20105 0.4642 0.0
H575 H 0.13771 0.11651 0.3618 0.0
H576 H 0.08753 0.12443 0.3881 0.0
H577 H 0.07401 0.21374 0.44037 0.0
H578 H 0.93148 0.23922 0.49511 0.0
H579 H 0.97291 0.2209 0.45465 0.0
H580 H 0.00788 0.12967 0.47788 0.0
C581 C 0.10562 0.13786 0.39979 0.0
C582 C 0.05985 0.19517 0.44854 0.0
C583 C 0.13432 0.13349 0.38459 0.0
C584 C 0.94312 0.21939 0.50486 0.0
C585 C 0.96689 0.20897 0.48182 0.0
C586 C 0.02217 0.14814 0.46976 0.0
C587 C 0.10025 0.15996 0.42891 0.0
C588 C 0.06972 0.16576 0.4438 0.0
C589 C 0.98375 0.18453 0.49492 0.0
C590 C 0.0126 0.17765 0.47528 0.0
H591 H 0.17077 0.18652 0.43956 0.0
H592 H 0.12082 0.19396 0.46619 0.0
H593 H 0.05761 0.11934 0.4508 0.0
H594 H 0.9449 0.16794 0.58027 0.0
H595 H 0.98719 0.15014 0.54051 0.0
C596 C 0.16367 0.8485 0.5653 0.0
C597 C 0.17868 0.83533 0.5978 0.0
C598 C 0.1759 0.87264 0.54518 0.0
C599 C 0.22464 0.93599 0.55961 0.0
H600 H 0.21401 0.94351 0.44395 0.0
C601 C 0.25698 0.04062 0.46594 0.0
C602 C 0.23558 0.04997 0.4377 0.0
C603 C 0.25329 0.01395 0.48687 0.0
C604 C 0.21702 0.94175 0.47627 0.0
H605 H 0.21876 0.83656 0.63411 0.0
H606 H 0.24035 0.8796 0.59869 0.0
H607 H 0.2047 0.89583 0.47644 0.0
H608 H 0.19297 0.03927 0.41049 0.0
H609 H 0.18657 0.99266 0.44707 0.0
H610 H 0.23653 0.98223 0.55928 0.0
C611 C 0.21897 0.87097 0.58908 0.0
C612 C 0.21185 0.91446 0.49483 0.0
C613 C 0.20674 0.84636 0.60916 0.0
C614 C 0.20987 0.03268 0.43197 0.0
C615 C 0.20633 0.00588 0.45262 0.0
C616 C 0.23002 0.96335 0.54092 0.0
C617 C 0.2035 0.88437 0.557 0.0
C618 C 0.21465 0.91154 0.53684 0.0
C619 C 0.22827 0.99602 0.47968 0.0
C620 C 0.22534 0.96664 0.49927 0.0
H621 H 0.14212 0.84034 0.55553 0.0
H622 H 0.16319 0.88271 0.52106 0.0
H623 H 0.22676 0.93442 0.59207 0.0
H624 H 0.27698 0.05354 0.47121 0.0
H625 H 0.2705 0.00686 0.50758 0.0
C626 C 0.05899 0.76234 0.5125 0.0
C627 C 0.06587 0.78194 0.54427 0.0
C628 C 0.03491 0.76818 0.48709 0.0
C629 C 0.96943 0.77454 0.46497 0.0
H630 H 0.94804 0.85386 0.42971 0.0
C631 C 0.84922 0.80833 0.42289 0.0
C632 C 0.84569 0.82815 0.39058 0.0
C633 C 0.87772 0.80124 0.43689 0.0
C634 C 0.95382 0.83149 0.43887 0.0
H635 H 0.05445 0.82409 0.57235 0.0
H636 H 0.01257 0.8342 0.52819 0.0
H637 H 0.99684 0.84524 0.45934 0.0
H638 H 0.86931 0.85524 0.34669 0.0
H639 H 0.91866 0.84258 0.37071 0.0
H640 H 0.92628 0.76085 0.44463 0.0
C641 C 0.02565 0.81433 0.52287 0.0
C642 C 0.98168 0.82662 0.45612 0.0
C643 C 0.04956 0.80844 0.54835 0.0
C644 C 0.87117 0.84015 0.37198 0.0
C645 C 0.89952 0.83298 0.38579 0.0
C646 C 0.94151 0.77941 0.44769 0.0
C647 C 0.01753 0.79384 0.49278 0.0
C648 C 0.98958 0.79822 0.46996 0.0
C649 C 0.90313 0.81379 0.41871 0.0
C650 C 0.93328 0.80803 0.43498 0.0
H651 H 0.07123 0.74178 0.50847 0.0
H652 H 0.02937 0.75222 0.46373 0.0
H653 H 0.97478 0.75247 0.47579 0.0
H654 H 0.83002 0.79876 0.43784 0.0
H655 H 0.87982 0.7866 0.46262 0.0
C656 C 0.25106 0.27785 0.96617 0.0
C657 C 0.23835 0.30643 0.96546 0.0
C658 C 0.24793 0.2597 -0.00012 0.0
C659 C 0.23001 0.26148 0.10836 0.0
H660 H 0.21633 0.17691 0.09281 0.0
C661 C 0.20153 0.18723 0.24122 0.0
C662 C 0.21951 0.16191 0.24597 0.0
C663 C 0.20114 0.20254 0.20487 0.0
C664 C 0.22031 0.20043 0.0975 0.0
H665 H 0.21276 0.33861 -0.00019 0.0
H666 H 0.2068 0.3066 0.05879 0.0
H667 H 0.22123 0.20945 0.0342 0.0
H668 H 0.24952 0.13142 0.21568 0.0
H669 H 0.24884 0.15847 0.15136 0.0
H670 H 0.22887 0.25252 0.17158 0.0
C671 C 0.21953 0.29841 0.03331 0.0
C672 C 0.22319 0.21908 0.06405 0.0
C673 C 0.22287 0.31673 -0.00045 0.0
C674 C 0.23539 0.15082 0.21266 0.0
C675 C 0.23506 0.16632 0.17603 0.0
C676 C 0.22692 0.24291 0.1417 0.0
C677 C 0.23184 0.26958 0.03368 0.0
C678 C 0.22814 0.24983 0.06913 0.0
C679 C 0.21881 0.19296 0.17246 0.0
C680 C 0.22198 0.21224 0.13662 0.0
H681 H 0.26349 0.26939 0.94055 0.0
H682 H 0.2583 0.23795 -0.0005 0.0
H683 H 0.23439 0.2849 0.11337 0.0
H684 H 0.18871 0.19602 0.26628 0.0
H685 H 0.18786 0.22259 0.20261 0.0
C686 C 0.28367 0.76134 0.01966 0.0
C687 C 0.31313 0.77141 0.02287 0.0
C688 C 0.26628 0.76921 0.98679 0.0
C689 C 0.2687 0.79758 0.88291 0.0
H690 H 0.18436 0.80878 0.9043 0.0
C691 C 0.18076 0.81595 0.75772 0.0
C692 C 0.16317 0.79016 0.75568 0.0
C693 C 0.19795 0.82168 0.792 0.0
C694 C 0.20792 0.8062 0.89806 0.0
H695 H 0.34806 0.7968 -0.00617 0.0
H696 H 0.31721 0.81128 0.93593 0.0
H697 H 0.21891 0.80334 0.96049 0.0
H698 H 0.14819 0.75103 0.78767 0.0
H699 H 0.17703 0.76186 0.84859 0.0
H700 H 0.25726 0.8002 0.82023 0.0
C701 C 0.3077 0.79701 0.95886 0.0
C702 C 0.22769 0.80273 0.93006 0.0
C703 C 0.32538 0.7887 -0.0082 0.0
C704 C 0.16132 0.77125 0.78908 0.0
C705 C 0.17779 0.77741 0.82369 0.0
C706 C 0.24893 0.80161 0.85087 0.0
C707 C 0.27772 0.78784 0.95654 0.0
C708 C 0.25808 0.797 0.92281 0.0
C709 C 0.19699 0.80206 0.82481 0.0
C710 C 0.21829 0.80482 0.85828 0.0
H711 H 0.27389 0.74757 0.04299 0.0
H712 H 0.24371 0.76075 0.98528 0.0
H713 H 0.29191 0.79316 0.87626 0.0
H714 H 0.18289 0.83043 0.73179 0.0
H715 H 0.2128 0.84069 0.79233 0.0
C716 C 0.8062 0.80043 0.24011 0.0
C717 C 0.78888 0.82642 0.24202 0.0
C718 C 0.80868 0.78453 0.20429 0.0
C719 C 0.79811 0.78286 0.0956 0.0
H720 H 0.76891 0.70281 0.11526 0.0
C721 C 0.79456 0.68867 0.97482 0.0
C722 C 0.76563 0.67752 0.96904 0.0
C723 C 0.80082 0.70694 0.00794 0.0
C724 C 0.77728 0.725 0.10944 0.0
H725 H 0.76276 0.85771 0.20736 0.0
H726 H 0.76708 0.82949 0.14384 0.0
H727 H 0.77509 0.73723 0.17167 0.0
H728 H 0.72095 0.67549 -0.00629 0.0
H729 H 0.73223 0.7064 0.05251 0.0
H730 H 0.80013 0.77035 0.03308 0.0
C731 C 0.7787 0.82163 0.17037 0.0
C732 C 0.7809 0.74464 0.14159 0.0
C733 C 0.77623 0.83773 0.20653 0.0
C734 C 0.74345 0.68374 -0.00229 0.0
C735 C 0.74987 0.70141 0.03118 0.0
C736 C 0.79496 0.76294 0.06336 0.0
C737 C 0.79387 0.79425 0.16961 0.0
C738 C 0.79115 0.77377 0.13496 0.0
C739 C 0.77839 0.71367 0.03607 0.0
C740 C 0.78421 0.73399 0.07011 0.0
H741 H 0.81665 0.79151 0.26692 0.0
H742 H 0.82089 0.76373 0.20421 0.0
H743 H 0.80604 0.80523 0.0899 0.0
H744 H 0.81191 0.68448 0.95277 0.0
H745 H 0.82301 0.71608 0.01138 0.0
C746 C 0.84571 0.21645 0.77004 0.0
C747 C 0.83114 0.23197 0.73908 0.0
C748 C 0.83101 0.21132 0.80674 0.0
C749 C 0.7554 0.20228 0.84406 0.0
H750 H 0.7843 0.22468 0.94988 0.0
C751 C 0.67764 0.22241 0.97873 0.0
C752 C 0.68801 0.2158 0.01755 0.0
C753 C 0.69635 0.21868 0.94539 0.0
C754 C 0.77613 0.21768 0.92064 0.0
H755 H 0.79125 0.25658 0.72321 0.0
H756 H 0.76594 0.24764 0.78671 0.0
H757 H 0.817 0.22984 0.89128 0.0
H758 H 0.7252 0.19811 0.05178 0.0
H759 H 0.75748 0.19106 -0.0064 0.0
H760 H 0.71441 0.19064 0.87287 0.0
C761 C 0.7882 0.23881 0.78249 0.0
C762 C 0.79487 0.2207 0.88722 0.0
C763 C 0.80276 0.244 0.74628 0.0
C764 C 0.71672 0.2038 0.02221 0.0
C765 C 0.73529 0.19987 0.98895 0.0
C766 C 0.73677 0.19907 0.87738 0.0
C767 C 0.80172 0.22161 0.81245 0.0
C768 C 0.78426 0.2139 0.84859 0.0
C769 C 0.72563 0.20804 0.95034 0.0
C770 C 0.74662 0.20757 0.91586 0.0
H771 H 0.86762 0.20701 0.76515 0.0
H772 H 0.84189 0.19823 0.82979 0.0
H773 H 0.74694 0.19651 0.81445 0.0
H774 H 0.65567 0.23181 0.97434 0.0
H775 H 0.68834 0.22547 0.91604 0.0
C776 C 0.72615 0.78488 0.47538 0.0
C777 C 0.72489 0.81609 0.47288 0.0
C778 C 0.7162 0.77021 0.50971 0.0
C779 C 0.7048 0.77983 0.61732 0.0
H780 H 0.66163 0.70534 0.60663 0.0
C781 C 0.68345 0.70924 0.75582 0.0
C782 C 0.69243 0.67951 0.75164 0.0
C783 C 0.67841 0.72668 0.72191 0.0
C784 C 0.67362 0.7261 0.61008 0.0
H785 H 0.71264 0.85641 0.50494 0.0
H786 H 0.69545 0.83051 0.56566 0.0
H787 H 0.67093 0.73586 0.54704 0.0
H788 H 0.70121 0.6438 0.70947 0.0
H789 H 0.69321 0.67456 0.64955 0.0
H790 H 0.70869 0.76967 0.67986 0.0
C791 C 0.70405 0.81757 0.54063 0.0
C792 C 0.67894 0.74357 0.57605 0.0
C793 C 0.71395 0.83237 0.50599 0.0
C794 C 0.69411 0.66669 0.71318 0.0
C795 C 0.68948 0.68432 0.67902 0.0
C796 C 0.69954 0.76237 0.65129 0.0
C797 C 0.70483 0.78631 0.54256 0.0
C798 C 0.69528 0.77019 0.57922 0.0
C799 C 0.68285 0.71483 0.68316 0.0
C800 C 0.68451 0.73498 0.6479 0.0
H801 H 0.73465 0.77159 0.4506 0.0
H802 H 0.71782 0.74617 0.51071 0.0
H803 H 0.71773 0.80004 0.62061 0.0
H804 H 0.68176 0.71941 0.78542 0.0
H805 H 0.67259 0.74987 0.72607 0.0
C806 C 0.79279 0.25373 0.49718 0.0
C807 C 0.8204 0.2681 0.50087 0.0
C808 C 0.77425 0.25976 0.46473 0.0
C809 C 0.77104 0.29184 0.36325 0.0
H810 H 0.68695 0.29923 0.38932 0.0
C811 C 0.68778 0.31494 0.23916 0.0
C812 C 0.66523 0.29338 0.23701 0.0
C813 C 0.70393 0.31878 0.27457 0.0
C814 C 0.71034 0.29731 0.38167 0.0
H815 H 0.85117 0.29889 0.47289 0.0
H816 H 0.81839 0.30978 0.41554 0.0
H817 H 0.723 0.29073 0.44309 0.0
H818 H 0.64001 0.2606 0.27027 0.0
H819 H 0.66843 0.26715 0.3327 0.0
H820 H 0.75835 0.2979 0.30179 0.0
C821 C 0.81122 0.2937 0.4378 0.0
C822 C 0.73098 0.29229 0.41232 0.0
C823 C 0.83003 0.2874 0.47035 0.0
C824 C 0.65707 0.27764 0.27168 0.0
C825 C 0.67342 0.28135 0.30722 0.0
C826 C 0.75043 0.29701 0.33264 0.0
C827 C 0.78275 0.28059 0.43545 0.0
C828 C 0.76145 0.28878 0.40329 0.0
C829 C 0.69799 0.30084 0.30819 0.0
C830 C 0.71982 0.29925 0.34147 0.0
H831 H 0.78508 0.2385 0.52025 0.0
H832 H 0.75291 0.24854 0.46307 0.0
H833 H 0.79429 0.28901 0.35533 0.0
H834 H 0.69436 0.32724 0.21251 0.0
H835 H 0.72237 0.33435 0.27478 0.0
C836 C 0.31324 0.32247 0.72826 0.0
C837 C 0.29084 0.34329 0.73696 0.0
C838 C 0.31292 0.30683 0.69202 0.0
C839 C 0.25648 0.2778 0.62531 0.0
H840 H 0.32368 0.24614 0.56536 0.0
C841 C 0.24442 0.20322 0.48591 0.0
C842 C 0.26501 0.18014 0.48003 0.0
C843 C 0.24734 0.22262 0.51834 0.0
C844 C 0.3048 0.25451 0.58231 0.0
H845 H 0.25227 0.36637 0.71367 0.0
H846 H 0.25171 0.33899 0.64962 0.0
H847 H 0.33154 0.28642 0.61387 0.0
H848 H 0.30383 0.15797 0.50424 0.0
H849 H 0.30905 0.19219 0.56178 0.0
H850 H 0.22978 0.24575 0.59421 0.0
C851 C 0.26937 0.33463 0.67103 0.0
C852 C 0.30924 0.27775 0.60967 0.0
C853 C 0.26987 0.35054 0.70732 0.0
C854 C 0.28762 0.17555 0.50846 0.0
C855 C 0.29076 0.19529 0.54093 0.0
C856 C 0.25206 0.2546 0.59802 0.0
C857 C 0.28999 0.31158 0.66406 0.0
C858 C 0.28512 0.28957 0.63151 0.0
C859 C 0.27108 0.21946 0.54544 0.0
C860 C 0.27616 0.24268 0.57632 0.0
H861 H 0.3296 0.31659 0.75089 0.0
H862 H 0.32905 0.28919 0.68763 0.0
H863 H 0.23759 0.28586 0.6425 0.0
H864 H 0.22677 0.20709 0.46428 0.0
H865 H 0.23195 0.24109 0.52085 0.0
C866 C 0.29325 0.70214 0.25746 0.0
C867 C 0.32323 0.71077 0.25359 0.0
C868 C 0.28089 0.69663 0.29516 0.0
C869 C 0.28818 0.72005 0.39907 0.0
H870 H 0.22713 0.66031 0.4171 0.0
C871 C 0.22064 0.71983 0.5451 0.0
C872 C 0.18962 0.71668 0.54115 0.0
C873 C 0.23957 0.71305 0.51312 0.0
C874 C 0.24404 0.67716 0.41246 0.0
H875 H 0.36419 0.71914 0.28611 0.0
H876 H 0.34226 0.70982 0.35296 0.0
H877 H 0.25746 0.65836 0.35585 0.0
H878 H 0.15413 0.70259 0.50132 0.0
H879 H 0.18735 0.69148 0.44439 0.0
H880 H 0.27414 0.73963 0.45459 0.0
C881 C 0.32845 0.70739 0.32641 0.0
C882 C 0.26151 0.67596 0.37754 0.0
C883 C 0.34101 0.71263 0.28829 0.0
C884 C 0.17796 0.70525 0.50506 0.0
C885 C 0.19701 0.69879 0.47264 0.0
C886 C 0.27071 0.72129 0.43387 0.0
C887 C 0.29811 0.69974 0.33015 0.0
C888 C 0.28329 0.69781 0.37006 0.0
C889 C 0.22799 0.70334 0.47609 0.0
C890 C 0.24805 0.70021 0.44063 0.0
H891 H 0.27899 0.70014 0.23125 0.0
H892 H 0.25741 0.69121 0.29695 0.0
H893 H 0.30441 0.73748 0.39387 0.0
H894 H 0.23036 0.72799 0.57291 0.0
H895 H 0.26332 0.71604 0.5172 0.0
loop_
_geom_bond_atom_site_label_1
_geom_bond_atom_site_label_2
_geom_bond_distance
_geom_bond_site_symmetry_2
_ccdc_geom_bond_type
Fe0 O2 1.918 . S
Fe0 O5 1.997 . S
Fe0 O6 2.002 . S
Fe0 O11 1.976 . S
Fe0 O14 1.996 . S
Fe1 O2 1.918 . S
Fe1 O9 1.997 . S
Fe1 O12 1.996 . S
Fe1 O16 1.976 . S
Fe1 O19 2.002 . S
O2 Fe0 1.918 . S
O2 Fe1 1.918 . S
O2 Fe3 1.918 . S
Fe3 O2 1.918 . S
Fe3 O4 2.002 . S
Fe3 O13 1.976 . S
Fe3 O17 1.996 . S
Fe3 O20 1.997 . S
O4 Fe3 2.002 . S
O4 C21 1.295 . S
O5 Fe0 1.997 . S
O5 C21 1.235 . S
O6 Fe0 2.002 . S
O6 C7 1.295 . S
C7 O6 1.295 . S
C7 O9 1.235 . S
C8 O13 1.287 . S
C8 O14 1.255 . S
O9 Fe1 1.997 . S
O9 C7 1.235 . S
C10 O16 1.287 . S
C10 O17 1.255 . S
O11 Fe0 1.976 . S
O11 C18 1.287 . S
O12 Fe1 1.996 . S
O12 C18 1.255 . S
O13 Fe3 1.976 . S
O13 C8 1.287 . S
O14 Fe0 1.996 . S
O14 C8 1.255 . S
C15 O19 1.295 . S
C15 O20 1.235 . S
O16 Fe1 1.976 . S
O16 C10 1.287 . S
O17 Fe3 1.996 . S
O17 C10 1.255 . S
C18 O11 1.287 . S
C18 O12 1.255 . S
O19 Fe1 2.002 . S
O19 C15 1.295 . S
O20 Fe3 1.997 . S
O20 C15 1.235 . S
C21 O4 1.295 . S
C21 O5 1.235 . S
Fe22 O24 1.918 . S
Fe22 O27 1.997 . S
Fe22 O28 2.002 . S
Fe22 O33 1.976 . S
Fe22 O36 1.996 . S
Fe23 O24 1.918 . S
Fe23 O31 1.997 . S
Fe23 O34 1.996 . S
Fe23 O38 1.976 . S
Fe23 O41 2.002 . S
O24 Fe22 1.918 . S
O24 Fe23 1.918 . S
O24 Fe25 1.918 . S
Fe25 O24 1.918 . S
Fe25 O26 2.002 . S
Fe25 O35 1.976 . S
Fe25 O39 1.996 . S
Fe25 O42 1.997 . S
O26 Fe25 2.002 . S
O26 C43 1.295 . S
O27 Fe22 1.997 . S
O27 C43 1.235 . S
O28 Fe22 2.002 . S
O28 C29 1.295 . S
C29 O28 1.295 . S
C29 O31 1.235 . S
C30 O35 1.287 . S
C30 O36 1.255 . S
O31 Fe23 1.997 . S
O31 C29 1.235 . S
C32 O38 1.287 . S
C32 O39 1.255 . S
O33 Fe22 1.976 . S
O33 C40 1.287 . S
O34 Fe23 1.996 . S
O34 C40 1.255 . S
O35 Fe25 1.976 . S
O35 C30 1.287 . S
O36 Fe22 1.996 . S
O36 C30 1.255 . S
C37 O41 1.295 . S
C37 O42 1.235 . S
O38 Fe23 1.976 . S
O38 C32 1.287 . S
O39 Fe25 1.996 . S
O39 C32 1.255 . S
C40 O33 1.287 . S
C40 O34 1.255 . S
O41 Fe23 2.002 . S
O41 C37 1.295 . S
O42 Fe25 1.997 . S
O42 C37 1.235 . S
C43 O26 1.295 . S
C43 O27 1.235 . S
Fe44 O46 1.918 . S
Fe44 O49 1.997 . S
Fe44 O50 2.002 . S
Fe44 O55 1.976 . S
Fe44 O58 1.996 . S
Fe45 O46 1.918 . S
Fe45 O53 1.997 . S
Fe45 O56 1.996 . S
Fe45 O60 1.976 . S
Fe45 O63 2.002 . S
O46 Fe44 1.918 . S
O46 Fe45 1.918 . S
O46 Fe47 1.918 . S
Fe47 O46 1.918 . S
Fe47 O48 2.002 . S
Fe47 O57 1.976 . S
Fe47 O61 1.996 . S
Fe47 O64 1.997 . S
O48 Fe47 2.002 . S
O48 C65 1.295 . S
O49 Fe44 1.997 . S
O49 C65 1.235 . S
O50 Fe44 2.002 . S
O50 C51 1.295 . S
C51 O50 1.295 . S
C51 O53 1.235 . S
C52 O57 1.287 . S
C52 O58 1.255 . S
O53 Fe45 1.997 . S
O53 C51 1.235 . S
C54 O60 1.287 . S
C54 O61 1.255 . S
O55 Fe44 1.976 . S
O55 C62 1.287 . S
O56 Fe45 1.996 . S
O56 C62 1.255 . S
O57 Fe47 1.976 . S
O57 C52 1.287 . S
O58 Fe44 1.996 . S
O58 C52 1.255 . S
C59 O63 1.295 . S
C59 O64 1.235 . S
O60 Fe45 1.976 . S
O60 C54 1.287 . S
O61 Fe47 1.996 . S
O61 C54 1.255 . S
C62 O55 1.287 . S
C62 O56 1.255 . S
O63 Fe45 2.002 . S
O63 C59 1.295 . S
O64 Fe47 1.997 . S
O64 C59 1.235 . S
C65 O48 1.295 . S
C65 O49 1.235 . S
Fe66 O68 1.918 . S
Fe66 O71 1.997 . S
Fe66 O72 2.002 . S
Fe66 O77 1.976 . S
Fe66 O80 1.996 . S
Fe67 O68 1.918 . S
Fe67 O75 1.997 . S
Fe67 O78 1.996 . S
Fe67 O82 1.976 . S
Fe67 O85 2.002 . S
O68 Fe66 1.918 . S
O68 Fe67 1.918 . S
O68 Fe69 1.918 . S
Fe69 O68 1.918 . S
Fe69 O70 2.002 . S
Fe69 O79 1.976 . S
Fe69 O83 1.996 . S
Fe69 O86 1.997 . S
O70 Fe69 2.002 . S
O70 C87 1.295 . S
O71 Fe66 1.997 . S
O71 C87 1.235 . S
O72 Fe66 2.002 . S
O72 C73 1.295 . S
C73 O72 1.295 . S
C73 O75 1.235 . S
C74 O79 1.287 . S
C74 O80 1.255 . S
O75 Fe67 1.997 . S
O75 C73 1.235 . S
C76 O82 1.287 . S
C76 O83 1.255 . S
O77 Fe66 1.976 . S
O77 C84 1.287 . S
O78 Fe67 1.996 . S
O78 C84 1.255 . S
O79 Fe69 1.976 . S
O79 C74 1.287 . S
O80 Fe66 1.996 . S
O80 C74 1.255 . S
C81 O85 1.295 . S
C81 O86 1.235 . S
O82 Fe67 1.976 . S
O82 C76 1.287 . S
O83 Fe69 1.996 . S
O83 C76 1.255 . S
C84 O77 1.287 . S
C84 O78 1.255 . S
O85 Fe67 2.002 . S
O85 C81 1.295 . S
O86 Fe69 1.997 . S
O86 C81 1.235 . S
C87 O70 1.295 . S
C87 O71 1.235 . S
Fe88 O90 1.918 . S
Fe88 O93 1.997 . S
Fe88 O94 2.002 . S
Fe88 O99 1.976 . S
Fe88 O102 1.996 . S
Fe89 O90 1.918 . S
Fe89 O97 1.997 . S
Fe89 O100 1.996 . S
Fe89 O104 1.976 . S
Fe89 O107 2.002 . S
O90 Fe88 1.918 . S
O90 Fe89 1.918 . S
O90 Fe91 1.918 . S
Fe91 O90 1.918 . S
Fe91 O92 2.002 . S
Fe91 O101 1.976 . S
Fe91 O105 1.996 . S
Fe91 O108 1.997 . S
O92 Fe91 2.002 . S
O92 C109 1.295 . S
O93 Fe88 1.997 . S
O93 C109 1.235 . S
O94 Fe88 2.002 . S
O94 C95 1.295 . S
C95 O94 1.295 . S
C95 O97 1.235 . S
C96 O101 1.287 . S
C96 O102 1.255 . S
O97 Fe89 1.997 . S
O97 C95 1.235 . S
C98 O104 1.287 . S
C98 O105 1.255 . S
O99 Fe88 1.976 . S
O99 C106 1.287 . S
O100 Fe89 1.996 . S
O100 C106 1.255 . S
O101 Fe91 1.976 . S
O101 C96 1.287 . S
O102 Fe88 1.996 . S
O102 C96 1.255 . S
C103 O107 1.295 . S
C103 O108 1.235 . S
O104 Fe89 1.976 . S
O104 C98 1.287 . S
O105 Fe91 1.996 . S
O105 C98 1.255 . S
C106 O99 1.287 . S
C106 O100 1.255 . S
O107 Fe89 2.002 . S
O107 C103 1.295 . S
O108 Fe91 1.997 . S
O108 C103 1.235 . S
C109 O92 1.295 . S
C109 O93 1.235 . S
Fe110 O112 1.918 . S
Fe110 O115 1.997 . S
Fe110 O116 2.002 . S
Fe110 O121 1.976 . S
Fe110 O124 1.996 . S
Fe111 O112 1.918 . S
Fe111 O119 1.997 . S
Fe111 O122 1.996 . S
Fe111 O126 1.976 . S
Fe111 O129 2.002 . S
O112 Fe110 1.918 . S
O112 Fe111 1.918 . S
O112 Fe113 1.918 . S
Fe113 O112 1.918 . S
Fe113 O114 2.002 . S
Fe113 O123 1.976 . S
Fe113 O127 1.996 . S
Fe113 O130 1.997 . S
O114 Fe113 2.002 . S
O114 C131 1.295 . S
O115 Fe110 1.997 . S
O115 C131 1.235 . S
O116 Fe110 2.002 . S
O116 C117 1.295 . S
C117 O116 1.295 . S
C117 O119 1.235 . S
C118 O123 1.287 . S
C118 O124 1.255 . S
O119 Fe111 1.997 . S
O119 C117 1.235 . S
C120 O126 1.287 . S
C120 O127 1.255 . S
O121 Fe110 1.976 . S
O121 C128 1.287 . S
O122 Fe111 1.996 . S
O122 C128 1.255 . S
O123 Fe113 1.976 . S
O123 C118 1.287 . S
O124 Fe110 1.996 . S
O124 C118 1.255 . S
C125 O129 1.295 . S
C125 O130 1.235 . S
O126 Fe111 1.976 . S
O126 C120 1.287 . S
O127 Fe113 1.996 . S
O127 C120 1.255 . S
C128 O121 1.287 . S
C128 O122 1.255 . S
O129 Fe111 2.002 . S
O129 C125 1.295 . S
O130 Fe113 1.997 . S
O130 C125 1.235 . S
C131 O114 1.295 . S
C131 O115 1.235 . S
Fe132 O134 1.918 . S
Fe132 O137 1.997 . S
Fe132 O138 2.002 . S
Fe132 O143 1.976 . S
Fe132 O146 1.996 . S
Fe133 O134 1.918 . S
Fe133 O141 1.997 . S
Fe133 O144 1.996 . S
Fe133 O148 1.976 . S
Fe133 O151 2.002 . S
O134 Fe132 1.918 . S
O134 Fe133 1.918 . S
O134 Fe135 1.918 . S
Fe135 O134 1.918 . S
Fe135 O136 2.002 . S
Fe135 O145 1.976 . S
Fe135 O149 1.996 . S
Fe135 O152 1.997 . S
O136 Fe135 2.002 . S
O136 C153 1.295 . S
O137 Fe132 1.997 . S
O137 C153 1.235 . S
O138 Fe132 2.002 . S
O138 C139 1.295 . S
C139 O138 1.295 . S
C139 O141 1.235 . S
C140 O145 1.287 . S
C140 O146 1.255 . S
O141 Fe133 1.997 . S
O141 C139 1.235 . S
C142 O148 1.287 . S
C142 O149 1.255 . S
O143 Fe132 1.976 . S
O143 C150 1.287 . S
O144 Fe133 1.996 . S
O144 C150 1.255 . S
O145 Fe135 1.976 . S
O145 C140 1.287 . S
O146 Fe132 1.996 . S
O146 C140 1.255 . S
C147 O151 1.295 . S
C147 O152 1.235 . S
O148 Fe133 1.976 . S
O148 C142 1.287 . S
O149 Fe135 1.996 . S
O149 C142 1.255 . S
C150 O143 1.287 . S
C150 O144 1.255 . S
O151 Fe133 2.002 . S
O151 C147 1.295 . S
O152 Fe135 1.997 . S
O152 C147 1.235 . S
C153 O136 1.295 . S
C153 O137 1.235 . S
Fe154 O156 1.918 . S
Fe154 O159 1.997 . S
Fe154 O160 2.002 . S
Fe154 O165 1.976 . S
Fe154 O168 1.996 . S
Fe155 O156 1.918 . S
Fe155 O163 1.997 . S
Fe155 O166 1.996 . S
Fe155 O170 1.976 . S
Fe155 O173 2.002 . S
O156 Fe154 1.918 . S
O156 Fe155 1.918 . S
O156 Fe157 1.918 . S
Fe157 O156 1.918 . S
Fe157 O158 2.002 . S
Fe157 O167 1.976 . S
Fe157 O171 1.996 . S
Fe157 O174 1.997 . S
O158 Fe157 2.002 . S
O158 C175 1.295 . S
O159 Fe154 1.997 . S
O159 C175 1.235 . S
O160 Fe154 2.002 . S
O160 C161 1.295 . S
C161 O160 1.295 . S
C161 O163 1.235 . S
C162 O167 1.287 . S
C162 O168 1.255 . S
O163 Fe155 1.997 . S
O163 C161 1.235 . S
C164 O170 1.287 . S
C164 O171 1.255 . S
O165 Fe154 1.976 . S
O165 C172 1.287 . S
O166 Fe155 1.996 . S
O166 C172 1.255 . S
O167 Fe157 1.976 . S
O167 C162 1.287 . S
O168 Fe154 1.996 . S
O168 C162 1.255 . S
C169 O173 1.295 . S
C169 O174 1.235 . S
O170 Fe155 1.976 . S
O170 C164 1.287 . S
O171 Fe157 1.996 . S
O171 C164 1.255 . S
C172 O165 1.287 . S
C172 O166 1.255 . S
O173 Fe155 2.002 . S
O173 C169 1.295 . S
O174 Fe157 1.997 . S
O174 C169 1.235 . S
C175 O158 1.295 . S
C175 O159 1.235 . S
C176 C177 1.349 . S
C176 C178 1.327 . S
C176 H201 0.950 . S
C177 C176 1.349 . S
C177 C193 1.349 . S
C178 C176 1.327 . S
C178 C197 1.429 . S
C178 H202 0.950 1_545 S
C179 C196 1.574 . S
C179 C198 1.368 . S
C179 H203 0.949 . S
H180 C184 0.949 . S
C181 C182 1.349 . S
C181 C183 1.327 . S
C181 H204 0.950 . S
C182 C181 1.349 . S
C182 C194 1.349 . S
C183 C181 1.327 . S
C183 C199 1.429 . S
C183 H205 0.950 . S
C184 H180 0.949 . S
C184 C192 1.574 . S
C184 C200 1.368 . S
H185 C193 0.950 . S
H186 C191 0.950 . S
H187 C192 0.949 . S
H188 C194 0.950 . S
H189 C195 0.950 . S
H190 C196 0.949 . S
C191 H186 0.950 . S
C191 C193 1.327 . S
C191 C197 1.429 . S
C192 C184 1.574 . S
C192 H187 0.949 . S
C192 C198 1.368 . S
C193 C177 1.349 . S
C193 H185 0.950 . S
C193 C191 1.327 . S
C194 C182 1.349 . S
C194 H188 0.950 . S
C194 C195 1.327 . S
C195 H189 0.950 . S
C195 C194 1.327 . S
C195 C199 1.429 . S
C196 C179 1.574 . S
C196 H190 0.949 . S
C196 C200 1.368 . S
C197 C178 1.429 . S
C197 C191 1.429 . S
C197 C198 1.523 1_545 S
C198 C179 1.368 . S
C198 C192 1.368 . S
C198 C197 1.523 1_565 S
C199 C183 1.429 . S
C199 C195 1.429 . S
C199 C200 1.523 . S
C200 C184 1.368 . S
C200 C196 1.368 . S
C200 C199 1.523 . S
H201 C176 0.950 . S
H202 C178 0.950 1_565 S
H203 C179 0.949 . S
H204 C181 0.950 . S
H205 C183 0.950 . S
C206 C207 1.349 . S
C206 C208 1.327 . S
C206 H231 0.950 . S
C207 C206 1.349 . S
C207 C223 1.349 . S
C208 C206 1.327 . S
C208 C227 1.429 . S
C208 H232 0.950 . S
C209 C226 1.574 . S
C209 C228 1.368 . S
C209 H233 0.949 . S
H210 C214 0.949 . S
C211 C212 1.349 . S
C211 C213 1.327 . S
C211 H234 0.950 . S
C212 C211 1.349 . S
C212 C224 1.349 . S
C213 C211 1.327 . S
C213 C229 1.429 . S
C213 H235 0.950 . S
C214 H210 0.949 . S
C214 C222 1.574 . S
C214 C230 1.368 . S
H215 C223 0.950 . S
H216 C221 0.950 1_655 S
H217 C222 0.949 . S
H218 C224 0.950 . S
H219 C225 0.950 . S
H220 C226 0.949 . S
C221 H216 0.950 1_455 S
C221 C223 1.327 . S
C221 C227 1.429 . S
C222 C214 1.574 . S
C222 H217 0.949 . S
C222 C228 1.368 . S
C223 C207 1.349 . S
C223 H215 0.950 . S
C223 C221 1.327 . S
C224 C212 1.349 . S
C224 H218 0.950 . S
C224 C225 1.327 . S
C225 H219 0.950 . S
C225 C224 1.327 . S
C225 C229 1.429 . S
C226 C209 1.574 . S
C226 H220 0.949 . S
C226 C230 1.368 . S
C227 C208 1.429 . S
C227 C221 1.429 . S
C227 C228 1.523 1_455 S
C228 C209 1.368 . S
C228 C222 1.368 . S
C228 C227 1.523 1_655 S
C229 C213 1.429 . S
C229 C225 1.429 . S
C229 C230 1.523 . S
C230 C214 1.368 . S
C230 C226 1.368 . S
C230 C229 1.523 . S
H231 C206 0.950 . S
H232 C208 0.950 . S
H233 C209 0.949 . S
H234 C211 0.950 . S
H235 C213 0.950 . S
C236 C237 1.349 . S
C236 C238 1.327 . S
C236 H261 0.950 . S
C237 C236 1.349 . S
C237 C253 1.349 . S
C238 C236 1.327 . S
C238 C257 1.436 . S
C238 H262 0.950 . S
C239 C256 1.574 . S
C239 C258 1.368 . S
C239 H263 0.949 . S
H240 C244 0.949 . S
C241 C242 1.349 . S
C241 C243 1.327 . S
C241 H264 0.950 . S
C242 C241 1.349 . S
C242 C254 1.349 . S
C243 C241 1.327 . S
C243 C259 1.429 . S
C243 H265 0.950 . S
C244 H240 0.949 . S
C244 C252 1.574 . S
C244 C260 1.368 . S
H245 C253 0.950 . S
H246 C251 0.950 . S
H247 C252 0.949 . S
H248 C254 0.950 . S
H249 C255 0.950 . S
H250 C256 0.949 . S
C251 H246 0.950 . S
C251 C253 1.327 . S
C251 C257 1.437 . S
C252 C244 1.574 . S
C252 H247 0.949 . S
C252 C258 1.368 . S
C253 C237 1.349 . S
C253 H245 0.950 . S
C253 C251 1.327 . S
C254 C242 1.349 . S
C254 H248 0.950 . S
C254 C255 1.327 . S
C255 H249 0.950 . S
C255 C254 1.327 . S
C255 C259 1.429 . S
C256 C239 1.574 . S
C256 H250 0.949 . S
C256 C260 1.368 . S
C257 C238 1.436 . S
C257 C251 1.437 . S
C257 C258 1.508 1_565 S
C258 C239 1.368 . S
C258 C252 1.368 . S
C258 C257 1.508 1_545 S
C259 C243 1.429 . S
C259 C255 1.429 . S
C259 C260 1.523 . S
C260 C244 1.368 . S
C260 C256 1.368 . S
C260 C259 1.523 . S
H261 C236 0.950 . S
H262 C238 0.950 . S
H263 C239 0.949 . S
H264 C241 0.950 . S
H265 C243 0.950 . S
C266 C267 1.349 . S
C266 C268 1.327 . S
C266 H291 0.950 . S
C267 C266 1.349 . S
C267 C283 1.349 . S
C268 C266 1.327 . S
C268 C287 1.429 . S
C268 H292 0.950 . S
C269 C286 1.574 . S
C269 C288 1.368 . S
C269 H293 0.949 . S
H270 C274 0.949 . S
C271 C272 1.349 . S
C271 C273 1.327 . S
C271 H294 0.950 . S
C272 C271 1.349 . S
C272 C284 1.349 . S
C273 C271 1.327 . S
C273 C289 1.429 1_655 S
C273 H295 0.950 1_655 S
C274 H270 0.949 . S
C274 C282 1.574 . S
C274 C290 1.368 . S
H275 C283 0.950 . S
H276 C281 0.950 . S
H277 C282 0.949 . S
H278 C284 0.950 . S
H279 C285 0.950 . S
H280 C286 0.949 . S
C281 H276 0.950 . S
C281 C283 1.327 . S
C281 C287 1.429 . S
C282 C274 1.574 . S
C282 H277 0.949 . S
C282 C288 1.368 . S
C283 C267 1.349 . S
C283 H275 0.950 . S
C283 C281 1.327 . S
C284 C272 1.349 . S
C284 H278 0.950 . S
C284 C285 1.327 . S
C285 H279 0.950 . S
C285 C284 1.327 . S
C285 C289 1.429 1_655 S
C286 C269 1.574 . S
C286 H280 0.949 . S
C286 C290 1.368 . S
C287 C268 1.429 . S
C287 C281 1.429 . S
C287 C288 1.523 . S
C288 C269 1.368 . S
C288 C282 1.368 . S
C288 C287 1.523 . S
C289 C273 1.429 1_455 S
C289 C285 1.429 1_455 S
C289 C290 1.523 . S
C290 C274 1.368 . S
C290 C286 1.368 . S
C290 C289 1.523 . S
H291 C266 0.950 . S
H292 C268 0.950 . S
H293 C269 0.949 . S
H294 C271 0.950 . S
H295 C273 0.950 1_455 S
C296 C297 1.349 . S
C296 C298 1.327 . S
C296 H321 0.950 . S
C297 C296 1.349 . S
C297 C313 1.349 . S
C298 C296 1.327 . S
C298 C317 1.429 . S
C298 H322 0.950 . S
C299 C316 1.574 . S
C299 C318 1.368 1_556 S
C299 H323 0.949 . S
H300 C304 0.949 . S
C301 C302 1.349 . S
C301 C303 1.327 . S
C301 H324 0.950 . S
C302 C301 1.349 . S
C302 C314 1.349 . S
C303 C301 1.327 . S
C303 C319 1.429 . S
C303 H325 0.950 . S
C304 H300 0.949 . S
C304 C312 1.574 . S
C304 C320 1.368 . S
H305 C313 0.950 . S
H306 C311 0.950 . S
H307 C312 0.949 . S
H308 C314 0.950 . S
H309 C315 0.950 . S
H310 C316 0.949 . S
C311 H306 0.950 . S
C311 C313 1.327 . S
C311 C317 1.429 . S
C312 C304 1.574 . S
C312 H307 0.949 . S
C312 C318 1.368 . S
C313 C297 1.349 . S
C313 H305 0.950 . S
C313 C311 1.327 . S
C314 C302 1.349 . S
C314 H308 0.950 . S
C314 C315 1.327 1_556 S
C315 H309 0.950 . S
C315 C314 1.327 1_554 S
C315 C319 1.429 1_554 S
C316 C299 1.574 . S
C316 H310 0.949 . S
C316 C320 1.368 1_556 S
C317 C298 1.429 . S
C317 C311 1.429 . S
C317 C318 1.523 . S
C318 C299 1.368 1_554 S
C318 C312 1.368 . S
C318 C317 1.523 . S
C319 C303 1.429 . S
C319 C315 1.429 1_556 S
C319 C320 1.523 1_556 S
C320 C304 1.368 . S
C320 C316 1.368 1_554 S
C320 C319 1.523 1_554 S
H321 C296 0.950 . S
H322 C298 0.950 . S
H323 C299 0.949 . S
H324 C301 0.950 . S
H325 C303 0.950 . S
C326 C327 1.349 . S
C326 C328 1.327 . S
C326 H351 0.950 . S
C327 C326 1.349 . S
C327 C343 1.349 . S
C328 C326 1.327 . S
C328 C347 1.429 . S
C328 H352 0.950 . S
C329 C346 1.574 . S
C329 C348 1.368 . S
C329 H353 0.949 . S
H330 C334 0.949 . S
C331 C332 1.349 . S
C331 C333 1.327 1_554 S
C331 H354 0.950 . S
C332 C331 1.349 . S
C332 C344 1.349 . S
C333 C331 1.327 1_556 S
C333 C349 1.429 1_556 S
C333 H355 0.950 . S
C334 H330 0.949 . S
C334 C342 1.562 1_554 S
C334 C350 1.368 1_554 S
H335 C343 0.950 . S
H336 C341 0.950 . S
H337 C342 0.938 1_554 S
H338 C344 0.950 . S
H339 C345 0.950 . S
H340 C346 0.949 . S
C341 H336 0.950 . S
C341 C343 1.327 . S
C341 C347 1.429 . S
C342 C334 1.562 1_556 S
C342 H337 0.938 1_556 S
C342 C348 1.392 . S
C343 C327 1.349 . S
C343 H335 0.950 . S
C343 C341 1.327 . S
C344 C332 1.349 . S
C344 H338 0.950 . S
C344 C345 1.327 . S
C345 H339 0.950 . S
C345 C344 1.327 . S
C345 C349 1.429 . S
C346 C329 1.574 . S
C346 H340 0.949 . S
C346 C350 1.368 . S
C347 C328 1.429 . S
C347 C341 1.429 . S
C347 C348 1.523 . S
C348 C329 1.368 . S
C348 C342 1.392 . S
C348 C347 1.523 . S
C349 C333 1.429 1_554 S
C349 C345 1.429 . S
C349 C350 1.523 1_554 S
C350 C334 1.368 1_556 S
C350 C346 1.368 . S
C350 C349 1.523 1_556 S
H351 C326 0.950 . S
H352 C328 0.950 . S
H353 C329 0.949 . S
H354 C331 0.950 . S
H355 C333 0.950 . S
C356 C357 1.349 . S
C356 C358 1.327 . S
C356 H381 0.950 . S
C357 C356 1.349 . S
C357 C373 1.349 . S
C358 C356 1.327 . S
C358 C377 1.429 . S
C358 H382 0.950 . S
C359 C376 1.574 . S
C359 C378 1.368 . S
C359 H383 0.949 . S
H360 C364 0.949 . S
C361 C362 1.349 . S
C361 C363 1.327 1_556 S
C361 H384 0.950 . S
C362 C361 1.349 . S
C362 C374 1.349 . S
C363 C361 1.327 1_554 S
C363 C379 1.429 1_554 S
C363 H385 0.950 . S
C364 H360 0.949 . S
C364 C372 1.575 1_556 S
C364 C380 1.368 1_556 S
H365 C373 0.950 . S
H366 C371 0.950 . S
H367 C372 0.950 1_556 S
H368 C374 0.950 . S
H369 C375 0.950 . S
H370 C376 0.949 . S
C371 H366 0.950 . S
C371 C373 1.327 . S
C371 C377 1.429 . S
C372 C364 1.575 1_554 S
C372 H367 0.950 1_554 S
C372 C378 1.366 . S
C373 C357 1.349 . S
C373 H365 0.950 . S
C373 C371 1.327 . S
C374 C362 1.349 . S
C374 H368 0.950 . S
C374 C375 1.327 . S
C375 H369 0.950 . S
C375 C374 1.327 . S
C375 C379 1.429 . S
C376 C359 1.574 . S
C376 H370 0.949 . S
C376 C380 1.368 . S
C377 C358 1.429 . S
C377 C371 1.429 . S
C377 C378 1.523 . S
C378 C359 1.368 . S
C378 C372 1.366 . S
C378 C377 1.523 . S
C379 C363 1.429 1_556 S
C379 C375 1.429 . S
C379 C380 1.523 1_556 S
C380 C364 1.368 1_554 S
C380 C376 1.368 . S
C380 C379 1.523 1_554 S
H381 C356 0.950 . S
H382 C358 0.950 . S
H383 C359 0.949 . S
H384 C361 0.950 . S
H385 C363 0.950 . S
C386 C387 1.349 . S
C386 C388 1.327 . S
C386 H411 0.950 . S
C387 C386 1.349 . S
C387 C403 1.349 . S
C388 C386 1.327 . S
C388 C407 1.429 . S
C388 H412 0.950 . S
C389 C406 1.574 . S
C389 C408 1.368 . S
C389 H413 0.949 . S
H390 C394 0.949 . S
C391 C392 1.349 . S
C391 C393 1.327 . S
C391 H414 0.950 . S
C392 C391 1.349 . S
C392 C404 1.349 . S
C393 C391 1.327 . S
C393 C409 1.429 . S
C393 H415 0.950 . S
C394 H390 0.949 . S
C394 C402 1.574 1_556 S
C394 C410 1.368 . S
H395 C403 0.950 . S
H396 C401 0.950 1_556 S
H397 C402 0.949 . S
H398 C404 0.950 . S
H399 C405 0.950 . S
H400 C406 0.949 . S
C401 H396 0.950 1_554 S
C401 C403 1.327 . S
C401 C407 1.429 . S
C402 C394 1.574 1_554 S
C402 H397 0.949 . S
C402 C408 1.368 1_554 S
C403 C387 1.349 . S
C403 H395 0.950 . S
C403 C401 1.327 . S
C404 C392 1.349 . S
C404 H398 0.950 . S
C404 C405 1.327 . S
C405 H399 0.950 . S
C405 C404 1.327 . S
C405 C409 1.429 . S
C406 C389 1.574 . S
C406 H400 0.949 . S
C406 C410 1.368 . S
C407 C388 1.429 . S
C407 C401 1.429 . S
C407 C408 1.523 1_554 S
C408 C389 1.368 . S
C408 C402 1.368 1_556 S
C408 C407 1.523 1_556 S
C409 C393 1.429 . S
C409 C405 1.429 . S
C409 C410 1.523 . S
C410 C394 1.368 . S
C410 C406 1.368 . S
C410 C409 1.523 . S
H411 C386 0.950 . S
H412 C388 0.950 . S
H413 C389 0.949 . S
H414 C391 0.950 . S
H415 C393 0.950 . S
C416 C417 1.349 . S
C416 C418 1.327 . S
C416 H441 0.950 . S
C417 C416 1.349 . S
C417 C433 1.349 . S
C418 C416 1.327 . S
C418 C437 1.429 . S
C418 H442 0.950 . S
C419 C436 1.574 . S
C419 C438 1.368 . S
C419 H443 0.949 . S
H420 C424 0.949 . S
C421 C422 1.349 . S
C421 C423 1.327 . S
C421 H444 0.950 . S
C422 C421 1.349 . S
C422 C434 1.349 . S
C423 C421 1.327 . S
C423 C439 1.429 . S
C423 H445 0.950 . S
C424 H420 0.949 . S
C424 C432 1.574 . S
C424 C440 1.368 . S
H425 C433 0.950 . S
H426 C431 0.950 . S
H427 C432 0.949 . S
H428 C434 0.950 . S
H429 C435 0.950 . S
H430 C436 0.949 . S
C431 H426 0.950 . S
C431 C433 1.327 . S
C431 C437 1.429 . S
C432 C424 1.574 . S
C432 H427 0.949 . S
C432 C438 1.368 . S
C433 C417 1.349 . S
C433 H425 0.950 . S
C433 C431 1.327 . S
C434 C422 1.349 . S
C434 H428 0.950 . S
C434 C435 1.327 . S
C435 H429 0.950 . S
C435 C434 1.327 . S
C435 C439 1.429 . S
C436 C419 1.574 . S
C436 H430 0.949 . S
C436 C440 1.368 . S
C437 C418 1.429 . S
C437 C431 1.429 . S
C437 C438 1.523 . S
C438 C419 1.368 . S
C438 C432 1.368 . S
C438 C437 1.523 . S
C439 C423 1.429 . S
C439 C435 1.429 . S
C439 C440 1.523 . S
C440 C424 1.368 . S
C440 C436 1.368 . S
C440 C439 1.523 . S
H441 C416 0.950 . S
H442 C418 0.950 . S
H443 C419 0.949 . S
H444 C421 0.950 . S
H445 C423 0.950 . S
C446 C447 1.349 . S
C446 C448 1.327 . S
C446 H471 0.950 . S
C447 C446 1.349 . S
C447 C463 1.349 . S
C448 C446 1.327 . S
C448 C467 1.429 . S
C448 H472 0.950 . S
C449 C466 1.574 . S
C449 C468 1.368 . S
C449 H473 0.949 . S
H450 C454 0.949 . S
C451 C452 1.349 . S
C451 C453 1.327 . S
C451 H474 0.950 . S
C452 C451 1.349 . S
C452 C464 1.349 . S
C453 C451 1.327 . S
C453 C469 1.429 . S
C453 H475 0.950 . S
C454 H450 0.949 . S
C454 C462 1.574 . S
C454 C470 1.368 . S
H455 C463 0.950 . S
H456 C461 0.950 . S
H457 C462 0.949 . S
H458 C464 0.950 . S
H459 C465 0.950 . S
H460 C466 0.949 . S
C461 H456 0.950 . S
C461 C463 1.327 . S
C461 C467 1.429 . S
C462 C454 1.574 . S
C462 H457 0.949 . S
C462 C468 1.368 . S
C463 C447 1.349 . S
C463 H455 0.950 . S
C463 C461 1.327 . S
C464 C452 1.349 . S
C464 H458 0.950 . S
C464 C465 1.327 . S
C465 H459 0.950 . S
C465 C464 1.327 . S
C465 C469 1.429 . S
C466 C449 1.574 . S
C466 H460 0.949 . S
C466 C470 1.368 . S
C467 C448 1.429 . S
C467 C461 1.429 . S
C467 C468 1.523 . S
C468 C449 1.368 . S
C468 C462 1.368 . S
C468 C467 1.523 . S
C469 C453 1.429 . S
C469 C465 1.429 . S
C469 C470 1.523 . S
C470 C454 1.368 . S
C470 C466 1.368 . S
C470 C469 1.523 . S
H471 C446 0.950 . S
H472 C448 0.950 . S
H473 C449 0.949 . S
H474 C451 0.950 . S
H475 C453 0.950 . S
C476 C477 1.349 . S
C476 C478 1.327 . S
C476 H501 0.950 . S
C477 C476 1.349 . S
C477 C493 1.349 . S
C478 C476 1.327 . S
C478 C497 1.429 . S
C478 H502 0.950 . S
C479 C496 1.574 . S
C479 C498 1.368 . S
C479 H503 0.949 . S
H480 C484 0.949 . S
C481 C482 1.349 . S
C481 C483 1.327 . S
C481 H504 0.950 . S
C482 C481 1.349 . S
C482 C494 1.349 . S
C483 C481 1.327 . S
C483 C499 1.429 . S
C483 H505 0.950 . S
C484 H480 0.949 . S
C484 C492 1.574 . S
C484 C500 1.368 . S
H485 C493 0.950 . S
H486 C491 0.950 . S
H487 C492 0.949 . S
H488 C494 0.950 . S
H489 C495 0.950 . S
H490 C496 0.949 . S
C491 H486 0.950 . S
C491 C493 1.327 . S
C491 C497 1.429 . S
C492 C484 1.574 . S
C492 H487 0.949 . S
C492 C498 1.368 . S
C493 C477 1.349 . S
C493 H485 0.950 . S
C493 C491 1.327 . S
C494 C482 1.349 . S
C494 H488 0.950 . S
C494 C495 1.327 . S
C495 H489 0.950 . S
C495 C494 1.327 . S
C495 C499 1.429 . S
C496 C479 1.574 . S
C496 H490 0.949 . S
C496 C500 1.368 . S
C497 C478 1.429 . S
C497 C491 1.429 . S
C497 C498 1.523 . S
C498 C479 1.368 . S
C498 C492 1.368 . S
C498 C497 1.523 . S
C499 C483 1.429 . S
C499 C495 1.429 . S
C499 C500 1.523 . S
C500 C484 1.368 . S
C500 C496 1.368 . S
C500 C499 1.523 . S
H501 C476 0.950 . S
H502 C478 0.950 . S
H503 C479 0.949 . S
H504 C481 0.950 . S
H505 C483 0.950 . S
C506 C507 1.349 . S
C506 C508 1.327 . S
C506 H531 0.950 . S
C507 C506 1.349 . S
C507 C523 1.349 . S
C508 C506 1.327 . S
C508 C527 1.429 . S
C508 H532 0.950 . S
C509 C526 1.574 . S
C509 C528 1.368 . S
C509 H533 0.949 . S
H510 C514 0.949 . S
C511 C512 1.349 . S
C511 C513 1.327 . S
C511 H534 0.950 . S
C512 C511 1.349 . S
C512 C524 1.349 . S
C513 C511 1.327 . S
C513 C529 1.429 . S
C513 H535 0.950 . S
C514 H510 0.949 . S
C514 C522 1.574 . S
C514 C530 1.368 . S
H515 C523 0.950 . S
H516 C521 0.950 . S
H517 C522 0.949 . S
H518 C524 0.950 . S
H519 C525 0.950 . S
H520 C526 0.949 . S
C521 H516 0.950 . S
C521 C523 1.327 . S
C521 C527 1.429 . S
C522 C514 1.574 . S
C522 H517 0.949 . S
C522 C528 1.368 . S
C523 C507 1.349 . S
C523 H515 0.950 . S
C523 C521 1.327 . S
C524 C512 1.349 . S
C524 H518 0.950 . S
C524 C525 1.327 . S
C525 H519 0.950 . S
C525 C524 1.327 . S
C525 C529 1.429 . S
C526 C509 1.574 . S
C526 H520 0.949 . S
C526 C530 1.368 . S
C527 C508 1.429 . S
C527 C521 1.429 . S
C527 C528 1.523 . S
C528 C509 1.368 . S
C528 C522 1.368 . S
C528 C527 1.523 . S
C529 C513 1.429 . S
C529 C525 1.429 . S
C529 C530 1.523 . S
C530 C514 1.368 . S
C530 C526 1.368 . S
C530 C529 1.523 . S
H531 C506 0.950 . S
H532 C508 0.950 . S
H533 C509 0.949 . S
H534 C511 0.950 . S
H535 C513 0.950 . S
C536 C537 1.349 . S
C536 C538 1.327 . S
C536 H561 0.950 . S
C537 C536 1.349 . S
C537 C553 1.349 . S
C538 C536 1.327 . S
C538 C557 1.429 . S
C538 H562 0.950 . S
C539 C556 1.574 . S
C539 C558 1.368 . S
C539 H563 0.949 . S
H540 C544 0.949 . S
C541 C542 1.349 . S
C541 C543 1.327 . S
C541 H564 0.950 . S
C542 C541 1.349 . S
C542 C554 1.349 . S
C543 C541 1.327 . S
C543 C559 1.429 1_565 S
C543 H565 0.950 1_565 S
C544 H540 0.949 . S
C544 C552 1.574 . S
C544 C560 1.368 . S
H545 C553 0.950 . S
H546 C551 0.950 . S
H547 C552 0.949 . S
H548 C554 0.950 . S
H549 C555 0.950 . S
H550 C556 0.949 . S
C551 H546 0.950 . S
C551 C553 1.327 . S
C551 C557 1.429 . S
C552 C544 1.574 . S
C552 H547 0.949 . S
C552 C558 1.368 . S
C553 C537 1.349 . S
C553 H545 0.950 . S
C553 C551 1.327 . S
C554 C542 1.349 . S
C554 H548 0.950 . S
C554 C555 1.327 . S
C555 H549 0.950 . S
C555 C554 1.327 . S
C555 C559 1.429 1_565 S
C556 C539 1.574 . S
C556 H550 0.949 . S
C556 C560 1.368 . S
C557 C538 1.429 . S
C557 C551 1.429 . S
C557 C558 1.523 . S
C558 C539 1.368 . S
C558 C552 1.368 . S
C558 C557 1.523 . S
C559 C543 1.429 1_545 S
C559 C555 1.429 1_545 S
C559 C560 1.523 . S
C560 C544 1.368 . S
C560 C556 1.368 . S
C560 C559 1.523 . S
H561 C536 0.950 . S
H562 C538 0.950 . S
H563 C539 0.949 . S
H564 C541 0.950 . S
H565 C543 0.950 1_545 S
C566 C567 1.349 . S
C566 C568 1.327 . S
C566 H591 0.950 . S
C567 C566 1.349 . S
C567 C583 1.349 . S
C568 C566 1.327 . S
C568 C587 1.429 . S
C568 H592 0.950 . S
C569 C586 1.574 . S
C569 C588 1.368 . S
C569 H593 0.949 . S
H570 C574 0.949 . S
C571 C572 1.349 . S
C571 C573 1.327 . S
C571 H594 0.950 . S
C572 C571 1.349 . S
C572 C584 1.349 . S
C573 C571 1.327 . S
C573 C589 1.429 . S
C573 H595 0.950 . S
C574 H570 0.949 . S
C574 C582 1.574 . S
C574 C590 1.368 . S
H575 C583 0.950 . S
H576 C581 0.950 . S
H577 C582 0.949 . S
H578 C584 0.950 . S
H579 C585 0.950 . S
H580 C586 0.949 . S
C581 H576 0.950 . S
C581 C583 1.327 . S
C581 C587 1.429 . S
C582 C574 1.574 . S
C582 H577 0.949 . S
C582 C588 1.368 . S
C583 C567 1.349 . S
C583 H575 0.950 . S
C583 C581 1.327 . S
C584 C572 1.349 . S
C584 H578 0.950 . S
C584 C585 1.327 . S
C585 H579 0.950 . S
C585 C584 1.327 . S
C585 C589 1.429 . S
C586 C569 1.574 . S
C586 H580 0.949 . S
C586 C590 1.368 . S
C587 C568 1.429 . S
C587 C581 1.429 . S
C587 C588 1.523 . S
C588 C569 1.368 . S
C588 C582 1.368 . S
C588 C587 1.523 . S
C589 C573 1.429 . S
C589 C585 1.429 . S
C589 C590 1.522 1_655 S
C590 C574 1.368 . S
C590 C586 1.368 . S
C590 C589 1.522 1_455 S
H591 C566 0.950 . S
H592 C568 0.950 . S
H593 C569 0.949 . S
H594 C571 0.950 . S
H595 C573 0.950 . S
C596 C597 1.349 . S
C596 C598 1.327 . S
C596 H621 0.950 . S
C597 C596 1.349 . S
C597 C613 1.349 . S
C598 C596 1.327 . S
C598 C617 1.429 . S
C598 H622 0.950 . S
C599 C616 1.574 . S
C599 C618 1.368 . S
C599 H623 0.949 . S
H600 C604 0.949 . S
C601 C602 1.349 . S
C601 C603 1.327 . S
C601 H624 0.950 . S
C602 C601 1.349 . S
C602 C614 1.349 . S
C603 C601 1.327 . S
C603 C619 1.429 . S
C603 H625 0.950 . S
C604 H600 0.949 . S
C604 C612 1.574 . S
C604 C620 1.368 . S
H605 C613 0.950 . S
H606 C611 0.950 . S
H607 C612 0.949 . S
H608 C614 0.950 . S
H609 C615 0.950 . S
H610 C616 0.949 . S
C611 H606 0.950 . S
C611 C613 1.327 . S
C611 C617 1.429 . S
C612 C604 1.574 . S
C612 H607 0.949 . S
C612 C618 1.368 . S
C613 C597 1.349 . S
C613 H605 0.950 . S
C613 C611 1.327 . S
C614 C602 1.349 . S
C614 H608 0.950 . S
C614 C615 1.327 . S
C615 H609 0.950 . S
C615 C614 1.327 . S
C615 C619 1.429 . S
C616 C599 1.574 . S
C616 H610 0.949 . S
C616 C620 1.368 . S
C617 C598 1.429 . S
C617 C611 1.429 . S
C617 C618 1.523 . S
C618 C599 1.368 . S
C618 C612 1.368 . S
C618 C617 1.523 . S
C619 C603 1.429 . S
C619 C615 1.429 . S
C619 C620 1.523 1_545 S
C620 C604 1.368 . S
C620 C616 1.368 . S
C620 C619 1.523 1_565 S
H621 C596 0.950 . S
H622 C598 0.950 . S
H623 C599 0.949 . S
H624 C601 0.950 . S
H625 C603 0.950 . S
C626 C627 1.349 . S
C626 C628 1.327 . S
C626 H651 0.950 . S
C627 C626 1.349 . S
C627 C643 1.349 . S
C628 C626 1.327 . S
C628 C647 1.429 . S
C628 H652 0.950 . S
C629 C646 1.574 . S
C629 C648 1.368 . S
C629 H653 0.949 . S
H630 C634 0.949 . S
C631 C632 1.349 . S
C631 C633 1.327 . S
C631 H654 0.950 . S
C632 C631 1.349 . S
C632 C644 1.349 . S
C633 C631 1.327 . S
C633 C649 1.429 . S
C633 H655 0.950 . S
C634 H630 0.949 . S
C634 C642 1.574 . S
C634 C650 1.368 . S
H635 C643 0.950 . S
H636 C641 0.950 1_655 S
H637 C642 0.949 . S
H638 C644 0.950 . S
H639 C645 0.950 . S
H640 C646 0.949 . S
C641 H636 0.950 1_455 S
C641 C643 1.327 . S
C641 C647 1.429 . S
C642 C634 1.574 . S
C642 H637 0.949 . S
C642 C648 1.368 . S
C643 C627 1.349 . S
C643 H635 0.950 . S
C643 C641 1.327 . S
C644 C632 1.349 . S
C644 H638 0.950 . S
C644 C645 1.327 . S
C645 H639 0.950 . S
C645 C644 1.327 . S
C645 C649 1.429 . S
C646 C629 1.574 . S
C646 H640 0.949 . S
C646 C650 1.368 . S
C647 C628 1.429 . S
C647 C641 1.429 . S
C647 C648 1.523 1_455 S
C648 C629 1.368 . S
C648 C642 1.368 . S
C648 C647 1.523 1_655 S
C649 C633 1.429 . S
C649 C645 1.429 . S
C649 C650 1.523 . S
C650 C634 1.368 . S
C650 C646 1.368 . S
C650 C649 1.523 . S
H651 C626 0.950 . S
H652 C628 0.950 . S
H653 C629 0.949 . S
H654 C631 0.950 . S
H655 C633 0.950 . S
C656 C657 1.349 . S
C656 C658 1.327 1_556 S
C656 H681 0.950 . S
C657 C656 1.349 . S
C657 C673 1.349 1_556 S
C658 C656 1.327 1_554 S
C658 C677 1.429 . S
C658 H682 0.950 . S
C659 C676 1.574 . S
C659 C678 1.368 . S
C659 H683 0.949 . S
H660 C664 0.949 . S
C661 C662 1.349 . S
C661 C663 1.327 . S
C661 H684 0.950 . S
C662 C661 1.349 . S
C662 C674 1.349 . S
C663 C661 1.327 . S
C663 C679 1.429 . S
C663 H685 0.950 . S
C664 H660 0.949 . S
C664 C672 1.574 . S
C664 C680 1.368 . S
H665 C673 0.950 . S
H666 C671 0.950 . S
H667 C672 0.949 . S
H668 C674 0.950 . S
H669 C675 0.950 . S
H670 C676 0.949 . S
C671 H666 0.950 . S
C671 C673 1.327 . S
C671 C677 1.429 . S
C672 C664 1.574 . S
C672 H667 0.949 . S
C672 C678 1.368 . S
C673 C657 1.349 1_554 S
C673 H665 0.950 . S
C673 C671 1.327 . S
C674 C662 1.349 . S
C674 H668 0.950 . S
C674 C675 1.327 . S
C675 H669 0.950 . S
C675 C674 1.327 . S
C675 C679 1.429 . S
C676 C659 1.574 . S
C676 H670 0.949 . S
C676 C680 1.368 . S
C677 C658 1.429 . S
C677 C671 1.429 . S
C677 C678 1.523 . S
C678 C659 1.368 . S
C678 C672 1.368 . S
C678 C677 1.523 . S
C679 C663 1.429 . S
C679 C675 1.429 . S
C679 C680 1.523 . S
C680 C664 1.368 . S
C680 C676 1.368 . S
C680 C679 1.523 . S
H681 C656 0.950 . S
H682 C658 0.950 . S
H683 C659 0.949 . S
H684 C661 0.950 . S
H685 C663 0.950 . S
C686 C687 1.349 . S
C686 C688 1.327 1_554 S
C686 H711 0.950 . S
C687 C686 1.349 . S
C687 C703 1.349 1_554 S
C688 C686 1.327 1_556 S
C688 C707 1.429 . S
C688 H712 0.950 . S
C689 C706 1.574 . S
C689 C708 1.368 . S
C689 H713 0.949 . S
H690 C694 0.949 . S
C691 C692 1.349 . S
C691 C693 1.327 . S
C691 H714 0.950 . S
C692 C691 1.349 . S
C692 C704 1.349 . S
C693 C691 1.327 . S
C693 C709 1.429 . S
C693 H715 0.950 . S
C694 H690 0.949 . S
C694 C702 1.574 . S
C694 C710 1.368 . S
H695 C703 0.950 . S
H696 C701 0.950 . S
H697 C702 0.949 . S
H698 C704 0.950 . S
H699 C705 0.950 . S
H700 C706 0.949 . S
C701 H696 0.950 . S
C701 C703 1.327 . S
C701 C707 1.429 . S
C702 C694 1.574 . S
C702 H697 0.949 . S
C702 C708 1.368 . S
C703 C687 1.349 1_556 S
C703 H695 0.950 . S
C703 C701 1.327 . S
C704 C692 1.349 . S
C704 H698 0.950 . S
C704 C705 1.327 . S
C705 H699 0.950 . S
C705 C704 1.327 . S
C705 C709 1.429 . S
C706 C689 1.574 . S
C706 H700 0.949 . S
C706 C710 1.368 . S
C707 C688 1.429 . S
C707 C701 1.429 . S
C707 C708 1.523 . S
C708 C689 1.368 . S
C708 C702 1.368 . S
C708 C707 1.523 . S
C709 C693 1.429 . S
C709 C705 1.429 . S
C709 C710 1.523 . S
C710 C694 1.368 . S
C710 C706 1.368 . S
C710 C709 1.523 . S
H711 C686 0.950 . S
H712 C688 0.950 . S
H713 C689 0.949 . S
H714 C691 0.950 . S
H715 C693 0.950 . S
C716 C717 1.349 . S
C716 C718 1.327 . S
C716 H741 0.950 . S
C717 C716 1.349 . S
C717 C733 1.349 . S
C718 C716 1.327 . S
C718 C737 1.429 . S
C718 H742 0.950 . S
C719 C736 1.574 . S
C719 C738 1.368 . S
C719 H743 0.949 . S
H720 C724 0.949 . S
C721 C722 1.349 . S
C721 C723 1.327 1_556 S
C721 H744 0.950 . S
C722 C721 1.349 . S
C722 C734 1.349 1_556 S
C723 C721 1.327 1_554 S
C723 C739 1.429 . S
C723 H745 0.950 . S
C724 H720 0.949 . S
C724 C732 1.574 . S
C724 C740 1.368 . S
H725 C733 0.950 . S
H726 C731 0.950 . S
H727 C732 0.949 . S
H728 C734 0.950 . S
H729 C735 0.950 . S
H730 C736 0.949 . S
C731 H726 0.950 . S
C731 C733 1.327 . S
C731 C737 1.429 . S
C732 C724 1.574 . S
C732 H727 0.949 . S
C732 C738 1.368 . S
C733 C717 1.349 . S
C733 H725 0.950 . S
C733 C731 1.327 . S
C734 C722 1.349 1_554 S
C734 H728 0.950 . S
C734 C735 1.327 . S
C735 H729 0.950 . S
C735 C734 1.327 . S
C735 C739 1.429 . S
C736 C719 1.574 . S
C736 H730 0.949 . S
C736 C740 1.368 . S
C737 C718 1.429 . S
C737 C731 1.429 . S
C737 C738 1.523 . S
C738 C719 1.368 . S
C738 C732 1.368 . S
C738 C737 1.523 . S
C739 C723 1.429 . S
C739 C735 1.429 . S
C739 C740 1.523 . S
C740 C724 1.368 . S
C740 C736 1.368 . S
C740 C739 1.523 . S
H741 C716 0.950 . S
H742 C718 0.950 . S
H743 C719 0.949 . S
H744 C721 0.950 . S
H745 C723 0.950 . S
C746 C747 1.349 . S
C746 C748 1.327 . S
C746 H771 0.950 . S
C747 C746 1.349 . S
C747 C763 1.349 . S
C748 C746 1.327 . S
C748 C767 1.429 . S
C748 H772 0.950 . S
C749 C766 1.574 . S
C749 C768 1.368 . S
C749 H773 0.949 . S
H750 C754 0.949 . S
C751 C752 1.349 1_556 S
C751 C753 1.327 . S
C751 H774 0.950 . S
C752 C751 1.349 1_554 S
C752 C764 1.349 . S
C753 C751 1.327 . S
C753 C769 1.429 . S
C753 H775 0.950 . S
C754 H750 0.949 . S
C754 C762 1.574 . S
C754 C770 1.368 . S
H755 C763 0.950 . S
H756 C761 0.950 . S
H757 C762 0.949 . S
H758 C764 0.950 . S
H759 C765 0.950 . S
H760 C766 0.949 . S
C761 H756 0.950 . S
C761 C763 1.327 . S
C761 C767 1.429 . S
C762 C754 1.574 . S
C762 H757 0.949 . S
C762 C768 1.368 . S
C763 C747 1.349 . S
C763 H755 0.950 . S
C763 C761 1.327 . S
C764 C752 1.349 . S
C764 H758 0.950 . S
C764 C765 1.327 1_554 S
C765 H759 0.950 . S
C765 C764 1.327 1_556 S
C765 C769 1.429 . S
C766 C749 1.574 . S
C766 H760 0.949 . S
C766 C770 1.368 . S
C767 C748 1.429 . S
C767 C761 1.429 . S
C767 C768 1.523 . S
C768 C749 1.368 . S
C768 C762 1.368 . S
C768 C767 1.523 . S
C769 C753 1.429 . S
C769 C765 1.429 . S
C769 C770 1.523 . S
C770 C754 1.368 . S
C770 C766 1.368 . S
C770 C769 1.523 . S
H771 C746 0.950 . S
H772 C748 0.950 . S
H773 C749 0.949 . S
H774 C751 0.950 . S
H775 C753 0.950 . S
C776 C777 1.349 . S
C776 C778 1.327 . S
C776 H801 0.950 . S
C777 C776 1.349 . S
C777 C793 1.349 . S
C778 C776 1.327 . S
C778 C797 1.429 . S
C778 H802 0.950 . S
C779 C796 1.574 . S
C779 C798 1.368 . S
C779 H803 0.949 . S
H780 C784 0.949 . S
C781 C782 1.349 . S
C781 C783 1.327 . S
C781 H804 0.950 . S
C782 C781 1.349 . S
C782 C794 1.349 . S
C783 C781 1.327 . S
C783 C799 1.429 . S
C783 H805 0.950 . S
C784 H780 0.949 . S
C784 C792 1.574 . S
C784 C800 1.368 . S
H785 C793 0.950 . S
H786 C791 0.950 . S
H787 C792 0.949 . S
H788 C794 0.950 . S
H789 C795 0.950 . S
H790 C796 0.949 . S
C791 H786 0.950 . S
C791 C793 1.327 . S
C791 C797 1.429 . S
C792 C784 1.574 . S
C792 H787 0.949 . S
C792 C798 1.368 . S
C793 C777 1.349 . S
C793 H785 0.950 . S
C793 C791 1.327 . S
C794 C782 1.349 . S
C794 H788 0.950 . S
C794 C795 1.327 . S
C795 H789 0.950 . S
C795 C794 1.327 . S
C795 C799 1.429 . S
C796 C779 1.574 . S
C796 H790 0.949 . S
C796 C800 1.368 . S
C797 C778 1.429 . S
C797 C791 1.429 . S
C797 C798 1.523 . S
C798 C779 1.368 . S
C798 C792 1.368 . S
C798 C797 1.523 . S
C799 C783 1.429 . S
C799 C795 1.429 . S
C799 C800 1.523 . S
C800 C784 1.368 . S
C800 C796 1.368 . S
C800 C799 1.523 . S
H801 C776 0.950 . S
H802 C778 0.950 . S
H803 C779 0.949 . S
H804 C781 0.950 . S
H805 C783 0.950 . S
C806 C807 1.349 . S
C806 C808 1.327 . S
C806 H831 0.950 . S
C807 C806 1.349 . S
C807 C823 1.349 . S
C808 C806 1.327 . S
C808 C827 1.429 . S
C808 H832 0.950 . S
C809 C826 1.574 . S
C809 C828 1.368 . S
C809 H833 0.949 . S
H810 C814 0.949 . S
C811 C812 1.349 . S
C811 C813 1.327 . S
C811 H834 0.950 . S
C812 C811 1.349 . S
C812 C824 1.349 . S
C813 C811 1.327 . S
C813 C829 1.429 . S
C813 H835 0.950 . S
C814 H810 0.949 . S
C814 C822 1.574 . S
C814 C830 1.368 . S
H815 C823 0.950 . S
H816 C821 0.950 . S
H817 C822 0.949 . S
H818 C824 0.950 . S
H819 C825 0.950 . S
H820 C826 0.949 . S
C821 H816 0.950 . S
C821 C823 1.327 . S
C821 C827 1.429 . S
C822 C814 1.574 . S
C822 H817 0.949 . S
C822 C828 1.368 . S
C823 C807 1.349 . S
C823 H815 0.950 . S
C823 C821 1.327 . S
C824 C812 1.349 . S
C824 H818 0.950 . S
C824 C825 1.327 . S
C825 H819 0.950 . S
C825 C824 1.327 . S
C825 C829 1.429 . S
C826 C809 1.574 . S
C826 H820 0.949 . S
C826 C830 1.368 . S
C827 C808 1.429 . S
C827 C821 1.429 . S
C827 C828 1.523 . S
C828 C809 1.368 . S
C828 C822 1.368 . S
C828 C827 1.523 . S
C829 C813 1.429 . S
C829 C825 1.429 . S
C829 C830 1.523 . S
C830 C814 1.368 . S
C830 C826 1.368 . S
C830 C829 1.523 . S
H831 C806 0.950 . S
H832 C808 0.950 . S
H833 C809 0.949 . S
H834 C811 0.950 . S
H835 C813 0.950 . S
C836 C837 1.349 . S
C836 C838 1.327 . S
C836 H861 0.950 . S
C837 C836 1.349 . S
C837 C853 1.349 . S
C838 C836 1.327 . S
C838 C857 1.429 . S
C838 H862 0.950 . S
C839 C856 1.574 . S
C839 C858 1.368 . S
C839 H863 0.949 . S
H840 C844 0.949 . S
C841 C842 1.349 . S
C841 C843 1.327 . S
C841 H864 0.950 . S
C842 C841 1.349 . S
C842 C854 1.349 . S
C843 C841 1.327 . S
C843 C859 1.429 . S
C843 H865 0.950 . S
C844 H840 0.949 . S
C844 C852 1.574 . S
C844 C860 1.368 . S
H845 C853 0.950 . S
H846 C851 0.950 . S
H847 C852 0.949 . S
H848 C854 0.950 . S
H849 C855 0.950 . S
H850 C856 0.949 . S
C851 H846 0.950 . S
C851 C853 1.327 . S
C851 C857 1.429 . S
C852 C844 1.574 . S
C852 H847 0.949 . S
C852 C858 1.368 . S
C853 C837 1.349 . S
C853 H845 0.950 . S
C853 C851 1.327 . S
C854 C842 1.349 . S
C854 H848 0.950 . S
C854 C855 1.327 . S
C855 H849 0.950 . S
C855 C854 1.327 . S
C855 C859 1.429 . S
C856 C839 1.574 . S
C856 H850 0.949 . S
C856 C860 1.368 . S
C857 C838 1.429 . S
C857 C851 1.429 . S
C857 C858 1.523 . S
C858 C839 1.368 . S
C858 C852 1.368 . S
C858 C857 1.523 . S
C859 C843 1.429 . S
C859 C855 1.429 . S
C859 C860 1.523 . S
C860 C844 1.368 . S
C860 C856 1.368 . S
C860 C859 1.523 . S
H861 C836 0.950 . S
H862 C838 0.950 . S
H863 C839 0.949 . S
H864 C841 0.950 . S
H865 C843 0.950 . S
C866 C867 1.349 . S
C866 C868 1.327 . S
C866 H891 0.950 . S
C867 C866 1.349 . S
C867 C883 1.349 . S
C868 C866 1.327 . S
C868 C887 1.429 . S
C868 H892 0.950 . S
C869 C886 1.574 . S
C869 C888 1.368 . S
C869 H893 0.949 . S
H870 C874 0.949 . S
C871 C872 1.349 . S
C871 C873 1.327 . S
C871 H894 0.950 . S
C872 C871 1.349 . S
C872 C884 1.349 . S
C873 C871 1.327 . S
C873 C889 1.429 . S
C873 H895 0.950 . S
C874 H870 0.949 . S
C874 C882 1.574 . S
C874 C890 1.368 . S
H875 C883 0.950 . S
H876 C881 0.950 . S
H877 C882 0.949 . S
H878 C884 0.950 . S
H879 C885 0.950 . S
H880 C886 0.949 . S
C881 H876 0.950 . S
C881 C883 1.327 . S
C881 C887 1.429 . S
C882 C874 1.574 . S
C882 H877 0.949 . S
C882 C888 1.368 . S
C883 C867 1.349 . S
C883 H875 0.950 . S
C883 C881 1.327 . S
C884 C872 1.349 . S
C884 H878 0.950 . S
C884 C885 1.327 . S
C885 H879 0.950 . S
C885 C884 1.327 . S
C885 C889 1.429 . S
C886 C869 1.574 . S
C886 H880 0.949 . S
C886 C890 1.368 . S
C887 C868 1.429 . S
C887 C881 1.429 . S
C887 C888 1.523 . S
C888 C869 1.368 . S
C888 C882 1.368 . S
C888 C887 1.523 . S
C889 C873 1.429 . S
C889 C885 1.429 . S
C889 C890 1.523 . S
C890 C874 1.368 . S
C890 C886 1.368 . S
C890 C889 1.523 . S
H891 C866 0.950 . S
H892 C868 0.950 . S
H893 C869 0.949 . S
H894 C871 0.950 . S
H895 C873 0.950 . S
C177 C10 1.077 . S
C182 C128 1.075 . S
C207 C37 1.135 . S
C212 C150 1.148 . S
C237 C59 1.165 . S
C242 C175 1.184 . S
C267 C103 1.096 . S
C272 C84 1.089 . S
C297 C131 1.103 . S
C302 C96 1.098 . S
C327 C147 1.177 . S
C332 C125 1.156 . S
C357 C172 1.155 . S
C362 C153 1.144 . S
C387 C164 1.068 . S
C392 C106 1.068 . S
C417 C140 1.077 . S
C422 C74 1.075 . S
C447 C169 1.135 . S
C452 C8 1.148 . S
C477 C43 1.184 . S
C482 C109 1.165 . S
C507 C51 1.096 . S
C512 C120 1.089 . S
C537 C81 1.103 . S
C542 C54 1.098 . S
C567 C7 1.177 . S
C572 C73 1.156 . S
C597 C40 1.155 . S
C602 C15 1.144 . S
C627 C32 1.068 . S
C632 C52 1.068 . S
C657 C98 0.991 . S
C662 C18 0.991 . S
C687 C117 1.089 . S
C692 C29 1.089 . S
C717 C65 1.083 . S
C722 C139 1.083 . S
C747 C76 0.997 . S
C752 C162 0.997 . S
C777 C62 0.991 . S
C782 C142 0.991 . S
C807 C87 1.089 . S
C812 C161 1.089 . S
C837 C95 1.083 . S
C842 C21 1.083 . S
C867 C118 0.997 . S
C872 C30 0.997 . S
