# Generated by pormake.
# Topology hcp, (12)-cn, num edge types: 1
# Building blocks:
#     Node 0, Type 0, BuildingBlock: UKIBUN_clean_sbu_0, # of connection points: 12
#     Node 1, Type 0, BuildingBlock: UKIBUN_clean_sbu_0, # of connection points: 12
#     Edge 2, Type (0, 0), BuildingBlock: ZUJKAS_clean_linker_0, # of connection points: 2
#     Edge 3, Type (0, 0), BuildingBlock: ZUJKAS_clean_linker_0, # of connection points: 2
#     Edge 4, Type (0, 0), BuildingBlock: ZUJKAS_clean_linker_0, # of connection points: 2
#     Edge 5, Type (0, 0), BuildingBlock: ZUJKAS_clean_linker_0, # of connection points: 2
#     Edge 6, Type (0, 0), BuildingBlock: ZUJKAS_clean_linker_0, # of connection points: 2
#     Edge 7, Type (0, 0), BuildingBlock: ZUJKAS_clean_linker_0, # of connection points: 2
#     Edge 8, Type (0, 0), BuildingBlock: ZUJKAS_clean_linker_0, # of connection points: 2
#     Edge 9, Type (0, 0), BuildingBlock: ZUJKAS_clean_linker_0, # of connection points: 2
#     Edge 10, Type (0, 0), BuildingBlock: ZUJKAS_clean_linker_0, # of connection points: 2
#     Edge 11, Type (0, 0), BuildingBlock: ZUJKAS_clean_linker_0, # of connection points: 2
#     Edge 12, Type (0, 0), BuildingBlock: ZUJKAS_clean_linker_0, # of connection points: 2
#     Edge 13, Type (0, 0), BuildingBlock: ZUJKAS_clean_linker_0, # of connection points: 2
# Relax obj value: 0.181
# Max RMSD: 0.266
# Mean RMSD: 0.266
data_MOF--net-hcp--node1-UKIBUN_clean_sbu_0--edge1-ZUJKAS_clean_linker_0
_symmetry_space_group_name_H-M    P1
_symmetry_Int_Tables_number       1
_symmetry_cell_setting            triclinic
loop_
_symmetry_equiv_pos_as_xyz
'x, y, z'
_cell_length_a     22.323121
_cell_length_b     22.266952
_cell_length_c     37.046254
_cell_angle_alpha  89.956907
_cell_angle_beta   89.971742
_cell_angle_gamma 120.01073
loop_
_atom_site_label
_atom_site_type_symbol
_atom_site_fract_x
_atom_site_fract_y
_atom_site_fract_z
_atom_type_partial_charge
C0 C 0.88185 0.49009 0.25998 0.0
C1 C 0.81836 0.26837 0.25868 0.0
O2 O 0.73022 0.42377 0.27577 0.0
O3 O 0.66086 0.33153 0.20454 0.0
O4 O 0.63933 0.40176 0.24015 0.0
O5 O 0.75096 0.35305 0.24154 0.0
Hf6 Hf 0.73499 0.4288 0.22039 0.0
O7 O 0.65917 0.33285 0.3111 0.0
Hf8 Hf 0.75611 0.35449 0.29679 0.0
O9 O 0.56826 0.31149 0.27542 0.0
Hf10 Hf 0.63759 0.40761 0.29528 0.0
O11 O 0.68039 0.26162 0.27685 0.0
Hf12 Hf 0.56375 0.30907 0.21998 0.0
Hf13 Hf 0.68302 0.25728 0.22151 0.0
O14 O 0.59053 0.24111 0.2412 0.0
Hf15 Hf 0.58438 0.23572 0.29641 0.0
C16 C 0.56179 0.20101 0.16169 0.0
C17 C 0.7542 0.45616 0.35728 0.0
C18 C 0.50083 0.39439 0.25851 0.0
C19 C 0.72504 0.55507 0.25617 0.0
O20 O 0.74827 0.53296 0.23056 0.0
O21 O 0.79108 0.41452 0.17473 0.0
C22 C 0.78983 0.35999 0.16179 0.0
O23 O 0.57392 0.13241 0.28703 0.0
O24 O 0.46052 0.21723 0.23009 0.0
O25 O 0.57758 0.37898 0.17407 0.0
O26 O 0.53281 0.25152 0.3442 0.0
O27 O 0.73991 0.28936 0.34574 0.0
O28 O 0.85961 0.44574 0.28615 0.0
O29 O 0.77424 0.24561 0.23254 0.0
O30 O 0.61424 0.19996 0.17572 0.0
C31 C 0.53976 0.3079 0.35819 0.0
O32 O 0.54561 0.41825 0.28437 0.0
O33 O 0.70338 0.46031 0.34324 0.0
C34 C 0.59722 0.11033 0.2614 0.0
O35 O 0.62289 0.21351 0.34618 0.0
O36 O 0.69367 0.45755 0.17335 0.0
O37 O 0.84521 0.49173 0.23358 0.0
O38 O 0.4742 0.17237 0.28319 0.0
O39 O 0.63607 0.14707 0.23513 0.0
O40 O 0.57523 0.36895 0.34452 0.0
C41 C 0.43805 0.17298 0.25628 0.0
O42 O 0.6856 0.51815 0.28221 0.0
O43 O 0.78056 0.42075 0.34463 0.0
O44 O 0.75233 0.2979 0.17419 0.0
O45 O 0.49952 0.35529 0.23258 0.0
O46 O 0.53705 0.23909 0.17294 0.0
O47 O 0.81896 0.3064 0.28498 0.0
C48 C 0.68377 0.23992 0.3599 0.0
C49 C 0.6316 0.43276 0.16112 0.0
C50 C 0.44119 0.68624 0.85942 0.0
C51 C 0.2972 0.75727 0.85764 0.0
O52 O 0.41498 0.68178 0.77596 0.0
O53 O 0.25336 0.5691 0.77635 0.0
O54 O 0.34463 0.59104 0.74104 0.0
O55 O 0.32383 0.66062 0.81147 0.0
Hf56 Hf 0.34587 0.58583 0.79622 0.0
O57 O 0.39273 0.75156 0.74103 0.0
Hf58 Hf 0.39834 0.75764 0.79625 0.0
O59 O 0.32305 0.66055 0.7047 0.0
Hf60 Hf 0.42011 0.68356 0.72052 0.0
O61 O 0.30252 0.73092 0.77624 0.0
Hf62 Hf 0.24909 0.56347 0.72103 0.0
Hf63 Hf 0.22697 0.63837 0.79665 0.0
O64 O 0.23243 0.63921 0.7414 0.0
Hf65 Hf 0.30028 0.73477 0.72086 0.0
C66 C 0.10224 0.50097 0.7609 0.0
C67 C 0.5459 0.81825 0.75755 0.0
C68 C 0.3526 0.56006 0.66168 0.0
C69 C 0.48276 0.59864 0.75977 0.0
O70 O 0.43852 0.57592 0.78594 0.0
O71 O 0.27861 0.53216 0.8437 0.0
C72 C 0.22882 0.53785 0.85802 0.0
O73 O 0.20914 0.74686 0.73176 0.0
O74 O 0.19255 0.57634 0.67532 0.0
O75 O 0.23683 0.4599 0.73149 0.0
O76 O 0.36971 0.79184 0.67501 0.0
O77 O 0.41102 0.86127 0.78524 0.0
O78 O 0.44763 0.74227 0.84518 0.0
O79 O 0.24204 0.70492 0.84463 0.0
O80 O 0.12404 0.54597 0.7867 0.0
C81 C 0.42327 0.79178 0.66176 0.0
O82 O 0.40657 0.61392 0.67455 0.0
O83 O 0.52371 0.77439 0.73124 0.0
C84 C 0.1649 0.72415 0.75791 0.0
O85 O 0.34725 0.84523 0.73386 0.0
O86 O 0.29909 0.47535 0.78331 0.0
O87 O 0.40703 0.62515 0.84573 0.0
O88 O 0.23086 0.69283 0.6736 0.0
O89 O 0.16385 0.68582 0.7842 0.0
O90 O 0.44831 0.75437 0.67369 0.0
C91 C 0.19342 0.63027 0.6618 0.0
O92 O 0.48357 0.63663 0.73335 0.0
O93 O 0.50908 0.81941 0.784 0.0
O94 O 0.2036 0.57435 0.8454 0.0
O95 O 0.29057 0.535 0.67404 0.0
O96 O 0.13905 0.49952 0.73451 0.0
O97 O 0.35825 0.78421 0.84405 0.0
C98 C 0.38721 0.88271 0.75957 0.0
C99 C 0.26018 0.4382 0.75723 0.0
H100 H 0.27008 0.86211 0.86844 0.0
H101 H 0.29941 0.93432 0.92309 0.0
H102 H 0.35361 0.79701 0.9776 0.0
H103 H 0.32514 0.72561 0.92312 0.0
H104 H 0.26328 0.8877 0.01101 0.0
H105 H 0.53324 0.00964 0.95856 0.0
H106 H 0.45923 0.97083 0.92884 0.0
H107 H 0.47935 0.91671 0.95606 0.0
C108 C 0.28511 0.84581 0.89271 0.0
C109 C 0.2934 0.78736 0.89217 0.0
C110 C 0.30224 0.88716 0.92374 0.0
C111 C 0.32832 0.87065 0.95432 0.0
C112 C 0.33273 0.81 0.95441 0.0
H113 H 0.58153 0.09677 0.1359 0.0
H114 H 0.52096 0.01692 0.08642 0.0
C115 C 0.3158 0.76889 0.92347 0.0
C116 C 0.36026 0.92119 0.98406 0.0
H117 H 0.5175 0.04564 0.01563 0.0
C118 C 0.31873 0.92266 0.01205 0.0
C119 C 0.43262 0.9662 0.98526 0.0
C120 C 0.47913 0.96645 0.9556 0.0
C121 C 0.34815 0.96737 0.04177 0.0
C122 C 0.42078 0.01247 0.043 0.0
C123 C 0.46194 0.01117 0.01469 0.0
C124 C 0.45577 0.06036 0.07371 0.0
C125 C 0.30151 0.96431 0.07207 0.0
C126 C 0.43989 0.112 0.08285 0.0
C127 C 0.47438 0.15782 0.11129 0.0
C128 C 0.52615 0.1535 0.13092 0.0
C129 C 0.54236 0.10209 0.12136 0.0
C130 C 0.50758 0.05614 0.09309 0.0
H131 H 0.25097 0.91521 0.07161 0.0
H132 H 0.32621 0.96913 0.09874 0.0
H133 H 0.29124 0.00794 0.06915 0.0
H134 H 0.40137 0.11744 0.06774 0.0
H135 H 0.46067 0.19688 0.1177 0.0
H136 H 0.47413 0.58912 0.62816 0.0
H137 H 0.49014 0.5242 0.5796 0.0
H138 H 0.27078 0.37965 0.57809 0.0
H139 H 0.25378 0.44426 0.62634 0.0
H140 H 0.45267 0.38063 0.57993 0.0
H141 H 0.31729 0.44017 0.4716 0.0
H142 H 0.34572 0.48952 0.51292 0.0
H143 H 0.27004 0.40486 0.51284 0.0
C144 C 0.42906 0.5439 0.61738 0.0
C145 C 0.36256 0.52248 0.63114 0.0
C146 C 0.43841 0.50666 0.58969 0.0
C147 C 0.38158 0.44749 0.575 0.0
C148 C 0.31522 0.42577 0.58862 0.0
H149 H 0.40514 0.22733 0.38156 0.0
H150 H 0.35634 0.24432 0.43796 0.0
C151 C 0.30574 0.46287 0.61633 0.0
C152 C 0.39233 0.40838 0.5457 0.0
H153 H 0.36501 0.37071 0.45577 0.0
C154 C 0.43296 0.37787 0.55286 0.0
C155 C 0.3657 0.4039 0.51053 0.0
C156 C 0.32261 0.43665 0.50123 0.0
C157 C 0.44968 0.34512 0.52549 0.0
C158 C 0.42624 0.34397 0.48987 0.0
C159 C 0.38268 0.37133 0.48311 0.0
C160 C 0.45484 0.32486 0.45856 0.0
C161 C 0.49354 0.31327 0.53483 0.0
C162 C 0.52608 0.36372 0.45175 0.0
C163 C 0.55343 0.35437 0.41989 0.0
C164 C 0.51034 0.30583 0.39407 0.0
C165 C 0.4394 0.26431 0.40138 0.0
C166 C 0.41163 0.27431 0.43338 0.0
H167 H 0.48605 0.296 0.56345 0.0
H168 H 0.4814 0.26828 0.5172 0.0
H169 H 0.54893 0.35274 0.53122 0.0
H170 H 0.56026 0.40408 0.47022 0.0
H171 H 0.60822 0.38742 0.41467 0.0
H172 H 0.78516 0.26006 0.11672 0.0
H173 H 0.86443 0.27502 0.06739 0.0
H174 H 0.97953 0.49493 0.08781 0.0
H175 H 0.90062 0.48084 0.13715 0.0
H176 H 0.89623 0.36632 1.0044 0.0
H177 H 0.12645 0.42928 0.08817 0.0
H178 H 0.03943 0.38527 0.10606 0.0
H179 H 0.08373 0.47736 0.09885 0.0
C180 C 0.82732 0.31171 0.1108 0.0
C181 C 0.83638 0.36929 0.13098 0.0
C182 C 0.87256 0.32005 0.08258 0.0
C183 C 0.9283 0.38587 0.07432 0.0
C184 C 0.93733 0.44351 0.09414 0.0
H185 H 0.24187 0.60246 0.92087 0.0
H186 H 0.17079 0.55384 0.97485 0.0
C187 C 0.89178 0.43539 0.12214 0.0
C188 C 0.97597 0.39492 0.04424 0.0
H189 H 0.14551 0.45091 0.02502 0.0
C190 C 0.95054 0.38379 1.00881 0.0
C191 C 0.04663 0.41748 0.05023 0.0
C192 C 0.07585 0.42756 0.08788 0.0
C193 C -0.00524 0.39832 0.97902 0.0
C194 C 0.06606 0.42303 0.98494 0.0
C195 C 0.09086 0.43159 0.0205 0.0
C196 C 0.11672 0.44849 0.95475 0.0
C197 C 0.96547 0.3909 0.9415 0.0
C198 C 0.11243 0.40491 0.92615 0.0
C199 C 0.15372 0.43287 0.89525 0.0
C200 C 0.19987 0.50448 0.89289 0.0
C201 C 0.20725 0.54698 0.92244 0.0
C202 C 0.16645 0.51923 0.95318 0.0
H203 H 0.91255 0.38384 0.94186 0.0
H204 H -0.00076 0.4372 0.92483 0.0
H205 H 0.96267 0.34491 0.92823 0.0
H206 H 0.07506 0.34998 0.92703 0.0
H207 H 0.14644 0.39946 0.87245 0.0
H208 H 0.3986 0.89053 0.6321 0.0
H209 H 0.46237 0.97216 0.58352 0.0
H210 H 0.59697 0.88613 0.57426 0.0
H211 H 0.53347 0.80384 0.62263 0.0
H212 H 0.60853 0.07278 0.5812 0.0
H213 H 0.52721 0.87986 0.46988 0.0
H214 H 0.48184 0.86037 0.51245 0.0
H215 H 0.56318 0.86265 0.50931 0.0
C216 C 0.44135 0.88834 0.61961 0.0
C217 C 0.46032 0.83993 0.63127 0.0
C218 C 0.47799 0.93539 0.59192 0.0
C219 C 0.53401 0.93482 0.57505 0.0
C220 C 0.55329 0.88684 0.58655 0.0
H221 H 0.75256 0.17224 0.38063 0.0
H222 H 0.73112 0.10375 0.43639 0.0
C223 C 0.51688 0.83988 0.61433 0.0
C224 C 0.57237 0.98499 0.54564 0.0
H225 H 0.60263 -0.00337 0.4548 0.0
C226 C 0.60769 0.05616 0.55359 0.0
C227 C 0.57196 0.9632 0.50973 0.0
C228 C 0.53371 0.88744 0.49956 0.0
C229 C 0.64126 0.10619 0.52646 0.0
C230 C 0.63826 0.08455 0.49025 0.0
C231 C 0.60525 0.01327 0.48255 0.0
C232 C 0.66121 0.13429 0.45953 0.0
C233 C 0.67917 0.18183 0.53683 0.0
C234 C 0.63024 0.1751 0.45435 0.0
C235 C 0.64251 0.21386 0.42284 0.0
C236 C 0.68606 0.21281 0.3958 0.0
C237 C 0.71996 0.1749 0.4015 0.0
C238 C 0.70723 0.13544 0.43314 0.0
H239 H 0.69799 0.18892 0.56512 0.0
H240 H 0.72394 0.21275 0.51872 0.0
H241 H 0.6432 0.20251 0.53488 0.0
H242 H 0.59328 0.17387 0.47372 0.0
H243 H 0.615 0.24195 0.41872 0.0
H244 H 0.5101 0.40266 0.1274 0.0
H245 H 0.49332 0.46806 0.07938 0.0
H246 H 0.71201 0.61542 0.07865 0.0
H247 H 0.72978 0.55031 0.12645 0.0
H248 H 0.5285 0.61105 0.08086 0.0
H249 H 0.66717 0.55777 0.9717 0.0
H250 H 0.63894 0.50703 0.01265 0.0
H251 H 0.71362 0.59236 0.01316 0.0
C252 C 0.55489 0.44861 0.11692 0.0
C253 C 0.62143 0.47066 0.13078 0.0
C254 C 0.54509 0.48612 0.08952 0.0
C255 C 0.60148 0.54624 0.07521 0.0
C256 C 0.6679 0.56858 0.0889 0.0
H257 H 0.57555 0.76682 0.88271 0.0
H258 H 0.62429 0.74965 0.93901 0.0
C259 C 0.67784 0.53118 0.11633 0.0
C260 C 0.5901 0.5856 0.04624 0.0
H261 H 0.61709 0.62537 0.95647 0.0
C262 C 0.54841 0.61478 0.05374 0.0
C263 C 0.61699 0.59137 0.01101 0.0
C264 C 0.66134 0.56019 1.00136 0.0
C265 C 0.53091 0.64747 0.02665 0.0
C266 C 0.55455 0.64981 0.99094 0.0
C267 C 0.59915 0.62377 0.98385 0.0
C268 C 0.52575 0.66934 0.95984 0.0
C269 C 0.48619 0.67813 0.03645 0.0
C270 C 0.45442 0.63087 0.95319 0.0
C271 C 0.42702 0.64052 0.92141 0.0
C272 C 0.47023 0.68883 0.89545 0.0
C273 C 0.54122 0.73005 0.90263 0.0
C274 C 0.56896 0.7199 0.93458 0.0
H275 H 0.49396 0.69526 0.06507 0.0
H276 H 0.49725 0.723 0.01892 0.0
H277 H 0.43097 0.63798 0.03315 0.0
H278 H 0.42018 0.59048 0.97169 0.0
H279 H 0.37214 0.60775 0.91629 0.0
H280 H 0.72531 0.39392 0.422 0.0
H281 H 0.79653 0.43724 0.4764 0.0
H282 H 0.9248 0.63403 0.42405 0.0
H283 H 0.85296 0.59051 0.36937 0.0
H284 H 0.94939 0.48826 0.46396 0.0
H285 H 0.89349 0.67564 0.5347 0.0
H286 H 0.82851 0.60503 0.50809 0.0
H287 H 0.89907 0.6776 0.48609 0.0
C288 C 0.76663 0.44752 0.42281 0.0
C289 C 0.78282 0.48968 0.39205 0.0
C290 C 0.80758 0.472 0.45372 0.0
C291 C 0.86556 0.53892 0.45429 0.0
C292 C 0.87952 0.58267 0.42431 0.0
H293 H 0.19638 0.72761 0.61505 0.0
H294 H 0.11904 0.70832 0.56407 0.0
C295 C 0.83837 0.55806 0.39325 0.0
C296 C 0.91671 0.55814 0.48377 0.0
H297 H 0.97917 0.65596 0.56008 0.0
C298 C 0.95607 0.52502 0.48497 0.0
C299 C 0.92586 0.60682 0.51069 0.0
C300 C 0.88456 0.6435 0.5102 0.0
C301 C 0.00402 0.53868 0.51266 0.0
C302 C 0.01135 0.58529 0.54057 0.0
C303 C 0.97313 0.61982 0.53886 0.0
C304 C 0.05731 0.5974 0.57205 0.0
C305 C 0.04698 0.50364 0.51139 0.0
C306 C 0.04769 0.54165 0.59386 0.0
C307 C 0.09221 0.55228 0.62271 0.0
C308 C 0.14678 0.6192 0.63082 0.0
C309 C 0.15516 0.67532 0.60951 0.0
C310 C 0.11088 0.66447 0.58039 0.0
H311 H 0.05114 0.48794 0.48345 0.0
H312 H 0.09995 0.53809 0.52194 0.0
H313 H 0.0219 0.45601 0.52821 0.0
H314 H 0.00555 0.48971 0.58859 0.0
H315 H 0.08328 0.508 0.63889 0.0
H316 H 0.60278 0.04165 0.32103 0.0
H317 H 0.62287 0.94283 0.32035 0.0
H318 H 0.59012 0.9237 0.20522 0.0
H319 H 0.57052 0.02229 0.20566 0.0
H320 H 0.54877 0.79832 0.28811 0.0
H321 H 0.80013 0.984 0.224 0.0
H322 H 0.74746 0.01183 0.24763 0.0
H323 H 0.72411 0.97651 0.20295 0.0
C324 C 0.59698 0.01439 0.2959 0.0
C325 C 0.58581 0.03959 0.26335 0.0
C326 C 0.60901 0.95851 0.29548 0.0
C327 C 0.60951 0.92756 0.26259 0.0
C328 C 0.59098 0.94795 0.23072 0.0
H329 H 0.72064 0.62444 0.1966 0.0
H330 H 0.70097 0.72352 0.19733 0.0
C331 C 0.57942 0.00382 0.23106 0.0
C332 C 0.63702 0.87981 0.26073 0.0
H333 H 0.77462 0.86765 0.2296 0.0
C334 C 0.59815 0.81333 0.27548 0.0
C335 C 0.7016 0.90017 0.24418 0.0
C336 C 0.74622 0.97217 0.22899 0.0
C337 C 0.62179 0.76579 0.27353 0.0
C338 C 0.68639 0.78616 0.257 0.0
C339 C 0.72525 0.85264 0.24224 0.0
C340 C 0.71388 0.73839 0.25513 0.0
C341 C 0.5771 0.69376 0.28867 0.0
C342 C 0.73206 0.7177 0.28702 0.0
C343 C 0.74334 0.66165 0.28665 0.0
C344 C 0.73707 0.62604 0.25432 0.0
C345 C 0.72636 0.65159 0.22177 0.0
C346 C 0.71456 0.70761 0.22221 0.0
H347 H 0.52315 0.6819 0.29356 0.0
H348 H 0.57599 0.65413 0.27006 0.0
H349 H 0.59904 0.68942 0.31477 0.0
H350 H 0.73278 0.74181 0.31253 0.0
H351 H 0.75187 0.64289 0.31205 0.0
H352 H 0.10042 0.74485 0.81439 0.0
H353 H 0.98269 0.72573 0.81426 0.0
H354 H 0.97513 0.70483 0.69839 0.0
H355 H 0.09352 0.7243 0.69826 0.0
H356 H 0.90477 0.7772 0.73275 0.0
H357 H 0.83215 0.51788 0.78938 0.0
H358 H 0.90018 0.59127 0.81254 0.0
H359 H 0.91395 0.57232 0.76721 0.0
C360 C 0.07447 0.73849 0.78878 0.0
C361 C 0.10543 0.73523 0.75636 0.0
C362 C 0.0073 0.72726 0.78878 0.0
C363 C 0.97021 0.71229 0.75643 0.0
C364 C 0.00324 0.71589 0.72361 0.0
H365 H 0.54699 0.5777 0.70326 0.0
H366 H 0.66468 0.59672 0.70327 0.0
C367 C 0.07087 0.72755 0.72354 0.0
C368 C 0.89514 0.68539 0.75749 0.0
H369 H 0.74291 0.5455 0.78463 0.0
C370 C 0.86923 0.72656 0.74394 0.0
C371 C 0.8494 0.61915 0.77213 0.0
C372 C 0.87498 0.57214 0.78593 0.0
C373 C 0.79827 0.70355 0.74525 0.0
C374 C 0.75254 0.63732 0.75991 0.0
C375 C 0.77844 0.59614 0.77344 0.0
C376 C 0.67749 0.61051 0.76106 0.0
C377 C 0.77268 0.75053 0.73144 0.0
C378 C 0.64467 0.60717 0.79392 0.0
C379 C 0.57708 0.5956 0.79407 0.0
C380 C 0.54235 0.58776 0.7613 0.0
C381 C 0.5731 0.58424 0.72885 0.0
C382 C 0.64023 0.59539 0.72876 0.0
H383 H 0.81552 0.80476 0.72787 0.0
H384 H 0.74727 0.73126 0.70488 0.0
H385 H 0.73385 0.75051 0.7502 0.0
H386 H 0.67292 0.61834 0.8191 0.0
H387 H 0.55457 0.599 0.81937 0.0
H388 H 0.37148 0.09993 0.19617 0.0
H389 H 0.2732 0.98124 0.19561 0.0
H390 H 0.25079 0.99053 0.31084 0.0
H391 H 0.34947 0.10851 0.31162 0.0
H392 H 0.27481 0.88465 0.28845 0.0
H393 H 0.06263 0.88411 0.20973 0.0
H394 H 0.14605 0.92741 0.18829 0.0
H395 H 0.13245 0.96208 0.22926 0.0
C396 C 0.34362 0.07764 0.22108 0.0
C397 C 0.36793 0.11289 0.25397 0.0
C398 C 0.28772 0.00981 0.22076 0.0
C399 C 0.25515 0.97727 0.25324 0.0
C400 C 0.2756 0.01482 0.28557 0.0
H401 H 0.95217 0.56436 0.31908 0.0
H402 H 0.05309 0.68148 0.318 0.0
C403 C 0.33162 0.08216 0.28595 0.0
C404 C 0.20647 0.9019 0.25442 0.0
H405 H 0.05022 0.77464 0.224 0.0
C406 C 0.22549 0.86047 0.27449 0.0
C407 C 0.14277 0.87087 0.23591 0.0
C408 C 0.11927 0.91333 0.2148 0.0
C409 C 0.18236 0.78838 0.27642 0.0
C410 C 0.11845 0.75739 0.25811 0.0
C411 C 0.09963 0.79878 0.23785 0.0
C412 C 0.06873 0.68234 0.26025 0.0
C413 C 0.20586 0.74592 0.29753 0.0
C414 C 0.04604 0.64348 0.22839 0.0
C415 C 0.9885 0.57708 0.22895 0.0
C416 C 0.95292 0.54865 0.26141 0.0
C417 C 0.97941 0.58493 0.29383 0.0
C418 C 0.03685 0.65183 0.2932 0.0
H419 H 0.26273 0.77464 0.30187 0.0
H420 H 0.18037 0.73329 0.32438 0.0
H421 H 0.1913 0.69642 0.2835 0.0
H422 H 0.07022 0.6662 0.20276 0.0
H423 H 0.96895 0.54981 0.20363 0.0
H424 H 0.23741 0.3512 0.81316 0.0
H425 H 0.25737 0.25283 0.81271 0.0
H426 H 0.28307 0.27035 0.69708 0.0
H427 H 0.26254 0.36882 0.69727 0.0
H428 H 0.21172 0.1269 0.72952 0.0
H429 H 0.46586 0.31302 0.7905 0.0
H430 H 0.391 0.3053 0.81307 0.0
H431 H 0.4117 0.34058 0.76824 0.0
C432 C 0.2449 0.33245 0.78751 0.0
C433 C 0.24921 0.36767 0.75529 0.0
C434 C 0.25664 0.27671 0.78734 0.0
C435 C 0.27332 0.25598 0.755 0.0
C436 C 0.27069 0.28634 0.72229 0.0
H437 H 0.41193 0.96894 0.70307 0.0
H438 H 0.39404 0.06863 0.70252 0.0
C439 C 0.25843 0.34203 0.72239 0.0
C440 C 0.30105 0.20843 0.75605 0.0
H441 H 0.43991 0.19646 0.78503 0.0
C442 C 0.26163 0.14196 0.74147 0.0
C443 C 0.36636 0.22894 0.77167 0.0
C444 C 0.41164 0.30102 0.78654 0.0
C445 C 0.28533 0.09446 0.7428 0.0
C446 C 0.35055 0.11489 0.75852 0.0
C447 C 0.39007 0.18144 0.773 0.0
C448 C 0.3777 0.06689 0.76014 0.0
C449 C 0.23999 0.02236 0.72796 0.0
C450 C 0.37948 0.03685 0.79314 0.0
C451 C 0.39058 0.98042 0.79361 0.0
C452 C 0.39946 0.95373 0.761 0.0
C453 C 0.40471 0.98856 0.7285 0.0
C454 C 0.39416 0.04506 0.72811 0.0
H455 H 0.18592 0.01058 0.72369 0.0
H456 H 0.26097 0.0178 0.70159 0.0
H457 H 0.23943 0.98279 0.74645 0.0
H458 H 0.36721 0.05366 0.81812 0.0
H459 H 0.38575 0.95393 0.81892 0.0
H460 H 0.43285 0.40028 0.3184 0.0
H461 H 0.31516 0.38253 0.31932 0.0
H462 H 0.31561 0.39136 0.203 0.0
H463 H 0.43292 0.40963 0.20186 0.0
H464 H 0.24433 0.45291 0.23897 0.0
H465 H 0.16457 0.18487 0.28462 0.0
H466 H 0.22796 0.25402 0.31209 0.0
H467 H 0.24967 0.24309 0.26683 0.0
C468 C 0.40878 0.40115 0.29316 0.0
C469 C 0.44125 0.40533 0.26004 0.0
C470 C 0.34148 0.39029 0.2937 0.0
C471 C 0.30658 0.38397 0.26117 0.0
C472 C 0.34169 0.39545 0.22832 0.0
H473 H 0.88627 0.26407 0.19841 0.0
H474 H 0.00436 0.28307 0.1969 0.0
C475 C 0.40857 0.4059 0.22773 0.0
C476 C 0.23153 0.35763 0.26078 0.0
H477 H 0.07595 0.21216 0.27684 0.0
C478 C 0.20737 0.40039 0.24727 0.0
C479 C 0.18391 0.28865 0.27116 0.0
C480 C 0.2075 0.23958 0.28423 0.0
C481 C 0.13632 0.37639 0.24461 0.0
C482 C 0.0887 0.30747 0.2551 0.0
C483 C 0.11289 0.26468 0.26853 0.0
C484 C 0.01364 0.28114 0.255 0.0
C485 C 0.11273 0.42539 0.23143 0.0
C486 C 0.97882 0.26899 0.28799 0.0
C487 C 0.91165 0.25774 0.28891 0.0
C488 C 0.87838 0.25816 0.25681 0.0
C489 C 0.91072 0.26319 0.22351 0.0
C490 C 0.9783 0.27485 0.22264 0.0
H491 H 0.15564 0.48011 0.23101 0.0
H492 H 0.09234 0.41086 0.20356 0.0
H493 H 0.07052 0.42194 0.24878 0.0
H494 H 0.00525 0.27302 0.31318 0.0
H495 H 0.88749 0.25346 0.3149 0.0
H496 H 0.01527 0.43719 0.70508 0.0
H497 H 0.91579 0.31971 0.70554 0.0
H498 H 0.93409 0.31013 0.82108 0.0
H499 H 0.03329 0.42837 0.82083 0.0
H500 H 0.93858 0.21348 0.72904 0.0
H501 H 0.72385 0.21377 0.8049 0.0
H502 H 0.79442 0.29154 0.78552 0.0
H503 H 0.80653 0.25717 0.82701 0.0
C504 C -0.00363 0.4109 0.73073 0.0
C505 C 0.03181 0.44134 0.76291 0.0
C506 C 0.93986 0.34386 0.73093 0.0
C507 C 0.91805 0.30634 0.76327 0.0
C508 C 0.94971 0.33869 0.7959 0.0
H509 H 0.63205 0.87965 0.81401 0.0
H510 H 0.73253 -0.0035 0.81449 0.0
C511 C 0.00614 0.40624 0.79577 0.0
C512 C 0.86916 0.23104 0.76201 0.0
H513 H 0.71181 0.10408 0.79158 0.0
C514 C 0.88877 0.18944 0.74256 0.0
C515 C 0.80478 0.2002 0.77992 0.0
C516 C 0.78065 0.24289 0.80029 0.0
C517 C 0.84566 0.11734 0.74076 0.0
C518 C 0.78119 0.08652 0.75857 0.0
C519 C 0.76167 0.12811 0.77812 0.0
C520 C 0.73184 0.01136 0.75682 0.0
C521 C 0.86982 0.07468 0.72038 0.0
C522 C 0.70072 0.97999 0.72392 0.0
C523 C 0.64371 0.91281 0.72352 0.0
C524 C 0.61688 0.87708 0.75611 0.0
C525 C 0.65182 0.90643 0.78856 0.0
C526 C 0.7089 0.97312 0.7889 0.0
H527 H 0.92676 0.10353 0.71622 0.0
H528 H 0.85527 0.02558 0.73488 0.0
H529 H 0.84473 0.06128 0.69346 0.0
H530 H 0.7172 0.00914 0.69893 0.0
H531 H 0.61702 0.89157 0.69825 0.0
loop_
_geom_bond_atom_site_label_1
_geom_bond_atom_site_label_2
_geom_bond_distance
_geom_bond_site_symmetry_2
_ccdc_geom_bond_type
C0 O28 1.281 . S
C0 O37 1.281 . S
C1 O29 1.281 . S
C1 O47 1.281 . S
O2 Hf6 2.202 . S
O2 Hf8 2.202 . S
O2 Hf10 2.202 . S
O3 Hf6 2.202 . S
O3 Hf12 2.202 . S
O3 Hf13 2.202 . S
O4 Hf6 2.072 . S
O4 Hf10 2.072 . S
O4 Hf12 2.072 . S
O5 Hf6 2.072 . S
O5 Hf8 2.072 . S
O5 Hf13 2.072 . S
Hf6 O2 2.202 . S
Hf6 O3 2.202 . S
Hf6 O4 2.072 . S
Hf6 O5 2.072 . S
Hf6 O20 2.209 . S
Hf6 O21 2.209 . S
Hf6 O36 2.209 . S
Hf6 O37 2.209 . S
O7 Hf8 2.072 . S
O7 Hf10 2.072 . S
O7 Hf15 2.072 . S
Hf8 O2 2.202 . S
Hf8 O5 2.072 . S
Hf8 O7 2.072 . S
Hf8 O11 2.202 . S
Hf8 O27 2.209 . S
Hf8 O28 2.209 . S
Hf8 O43 2.209 . S
Hf8 O47 2.209 . S
O9 Hf10 2.202 . S
O9 Hf12 2.202 . S
O9 Hf15 2.202 . S
Hf10 O2 2.202 . S
Hf10 O4 2.072 . S
Hf10 O7 2.072 . S
Hf10 O9 2.202 . S
Hf10 O32 2.209 . S
Hf10 O33 2.209 . S
Hf10 O40 2.209 . S
Hf10 O42 2.209 . S
O11 Hf8 2.202 . S
O11 Hf13 2.202 . S
O11 Hf15 2.202 . S
Hf12 O3 2.202 . S
Hf12 O4 2.072 . S
Hf12 O9 2.202 . S
Hf12 O14 2.072 . S
Hf12 O24 2.209 . S
Hf12 O25 2.209 . S
Hf12 O45 2.209 . S
Hf12 O46 2.209 . S
Hf13 O3 2.202 . S
Hf13 O5 2.072 . S
Hf13 O11 2.202 . S
Hf13 O14 2.072 . S
Hf13 O29 2.209 . S
Hf13 O30 2.209 . S
Hf13 O39 2.209 . S
Hf13 O44 2.209 . S
O14 Hf12 2.072 . S
O14 Hf13 2.072 . S
O14 Hf15 2.072 . S
Hf15 O7 2.072 . S
Hf15 O9 2.202 . S
Hf15 O11 2.202 . S
Hf15 O14 2.072 . S
Hf15 O23 2.209 . S
Hf15 O26 2.209 . S
Hf15 O35 2.209 . S
Hf15 O38 2.209 . S
C16 O30 1.281 . S
C16 O46 1.281 . S
C17 O33 1.281 . S
C17 O43 1.281 . S
C18 O32 1.281 . S
C18 O45 1.281 . S
C19 O20 1.281 . S
C19 O42 1.281 . S
O20 Hf6 2.209 . S
O20 C19 1.281 . S
O21 Hf6 2.209 . S
O21 C22 1.281 . S
C22 O21 1.281 . S
C22 O44 1.281 . S
O23 Hf15 2.209 . S
O23 C34 1.281 . S
O24 Hf12 2.209 . S
O24 C41 1.281 . S
O25 Hf12 2.209 . S
O25 C49 1.281 . S
O26 Hf15 2.209 . S
O26 C31 1.281 . S
O27 Hf8 2.209 . S
O27 C48 1.281 . S
O28 C0 1.281 . S
O28 Hf8 2.209 . S
O29 C1 1.281 . S
O29 Hf13 2.209 . S
O30 Hf13 2.209 . S
O30 C16 1.281 . S
C31 O26 1.281 . S
C31 O40 1.281 . S
O32 Hf10 2.209 . S
O32 C18 1.281 . S
O33 Hf10 2.209 . S
O33 C17 1.281 . S
C34 O23 1.281 . S
C34 O39 1.281 . S
O35 Hf15 2.209 . S
O35 C48 1.281 . S
O36 Hf6 2.209 . S
O36 C49 1.281 . S
O37 C0 1.281 . S
O37 Hf6 2.209 . S
O38 Hf15 2.209 . S
O38 C41 1.281 . S
O39 Hf13 2.209 . S
O39 C34 1.281 . S
O40 Hf10 2.209 . S
O40 C31 1.281 . S
C41 O24 1.281 . S
C41 O38 1.281 . S
O42 Hf10 2.209 . S
O42 C19 1.281 . S
O43 Hf8 2.209 . S
O43 C17 1.281 . S
O44 Hf13 2.209 . S
O44 C22 1.281 . S
O45 Hf12 2.209 . S
O45 C18 1.281 . S
O46 Hf12 2.209 . S
O46 C16 1.281 . S
O47 C1 1.281 . S
O47 Hf8 2.209 . S
C48 O27 1.281 . S
C48 O35 1.281 . S
C49 O25 1.281 . S
C49 O36 1.281 . S
C50 O78 1.281 . S
C50 O87 1.281 . S
C51 O79 1.281 . S
C51 O97 1.281 . S
O52 Hf56 2.202 . S
O52 Hf58 2.202 . S
O52 Hf60 2.202 . S
O53 Hf56 2.202 . S
O53 Hf62 2.202 . S
O53 Hf63 2.202 . S
O54 Hf56 2.072 . S
O54 Hf60 2.072 . S
O54 Hf62 2.072 . S
O55 Hf56 2.072 . S
O55 Hf58 2.072 . S
O55 Hf63 2.072 . S
Hf56 O52 2.202 . S
Hf56 O53 2.202 . S
Hf56 O54 2.072 . S
Hf56 O55 2.072 . S
Hf56 O70 2.209 . S
Hf56 O71 2.209 . S
Hf56 O86 2.209 . S
Hf56 O87 2.209 . S
O57 Hf58 2.072 . S
O57 Hf60 2.072 . S
O57 Hf65 2.072 . S
Hf58 O52 2.202 . S
Hf58 O55 2.072 . S
Hf58 O57 2.072 . S
Hf58 O61 2.202 . S
Hf58 O77 2.209 . S
Hf58 O78 2.209 . S
Hf58 O93 2.209 . S
Hf58 O97 2.209 . S
O59 Hf60 2.202 . S
O59 Hf62 2.202 . S
O59 Hf65 2.202 . S
Hf60 O52 2.202 . S
Hf60 O54 2.072 . S
Hf60 O57 2.072 . S
Hf60 O59 2.202 . S
Hf60 O82 2.209 . S
Hf60 O83 2.209 . S
Hf60 O90 2.209 . S
Hf60 O92 2.209 . S
O61 Hf58 2.202 . S
O61 Hf63 2.202 . S
O61 Hf65 2.202 . S
Hf62 O53 2.202 . S
Hf62 O54 2.072 . S
Hf62 O59 2.202 . S
Hf62 O64 2.072 . S
Hf62 O74 2.209 . S
Hf62 O75 2.209 . S
Hf62 O95 2.209 . S
Hf62 O96 2.209 . S
Hf63 O53 2.202 . S
Hf63 O55 2.072 . S
Hf63 O61 2.202 . S
Hf63 O64 2.072 . S
Hf63 O79 2.209 . S
Hf63 O80 2.209 . S
Hf63 O89 2.209 . S
Hf63 O94 2.209 . S
O64 Hf62 2.072 . S
O64 Hf63 2.072 . S
O64 Hf65 2.072 . S
Hf65 O57 2.072 . S
Hf65 O59 2.202 . S
Hf65 O61 2.202 . S
Hf65 O64 2.072 . S
Hf65 O73 2.209 . S
Hf65 O76 2.209 . S
Hf65 O85 2.209 . S
Hf65 O88 2.209 . S
C66 O80 1.281 . S
C66 O96 1.281 . S
C67 O83 1.281 . S
C67 O93 1.281 . S
C68 O82 1.281 . S
C68 O95 1.281 . S
C69 O70 1.281 . S
C69 O92 1.281 . S
O70 Hf56 2.209 . S
O70 C69 1.281 . S
O71 Hf56 2.209 . S
O71 C72 1.281 . S
C72 O71 1.281 . S
C72 O94 1.281 . S
O73 Hf65 2.209 . S
O73 C84 1.281 . S
O74 Hf62 2.209 . S
O74 C91 1.281 . S
O75 Hf62 2.209 . S
O75 C99 1.281 . S
O76 Hf65 2.209 . S
O76 C81 1.281 . S
O77 Hf58 2.209 . S
O77 C98 1.281 . S
O78 C50 1.281 . S
O78 Hf58 2.209 . S
O79 C51 1.281 . S
O79 Hf63 2.209 . S
O80 Hf63 2.209 . S
O80 C66 1.281 . S
C81 O76 1.281 . S
C81 O90 1.281 . S
O82 Hf60 2.209 . S
O82 C68 1.281 . S
O83 Hf60 2.209 . S
O83 C67 1.281 . S
C84 O73 1.281 . S
C84 O89 1.281 . S
O85 Hf65 2.209 . S
O85 C98 1.281 . S
O86 Hf56 2.209 . S
O86 C99 1.281 . S
O87 C50 1.281 . S
O87 Hf56 2.209 . S
O88 Hf65 2.209 . S
O88 C91 1.281 . S
O89 Hf63 2.209 . S
O89 C84 1.281 . S
O90 Hf60 2.209 . S
O90 C81 1.281 . S
C91 O74 1.281 . S
C91 O88 1.281 . S
O92 Hf60 2.209 . S
O92 C69 1.281 . S
O93 Hf58 2.209 . S
O93 C67 1.281 . S
O94 Hf63 2.209 . S
O94 C72 1.281 . S
O95 Hf62 2.209 . S
O95 C68 1.281 . S
O96 Hf62 2.209 . S
O96 C66 1.281 . S
O97 C51 1.281 . S
O97 Hf58 2.209 . S
C98 O77 1.281 . S
C98 O85 1.281 . S
C99 O75 1.281 . S
C99 O86 1.281 . S
H100 C108 0.929 . S
H101 C110 0.930 . S
H102 C112 0.930 . S
H103 C115 0.929 . S
H104 C118 0.930 . S
H105 C120 0.960 . S
H106 C120 0.960 . S
H107 C120 0.960 . S
C108 H100 0.929 . S
C108 C109 1.377 . S
C108 C110 1.384 . S
C109 C108 1.377 . S
C109 C115 1.390 . S
C110 H101 0.930 . S
C110 C108 1.384 . S
C110 C111 1.372 . S
C111 C110 1.372 . S
C111 C112 1.400 . S
C111 C116 1.490 . S
C112 H102 0.930 . S
C112 C111 1.400 . S
C112 C115 1.386 . S
H113 C129 0.930 . S
H114 C130 0.931 1_565 S
C115 H103 0.929 . S
C115 C109 1.390 . S
C115 C112 1.386 . S
C116 C111 1.490 . S
C116 C118 1.395 . S
C116 C119 1.403 . S
H117 C123 0.930 1_545 S
C118 H104 0.930 . S
C118 C116 1.395 . S
C118 C121 1.403 1_556 S
C119 C116 1.403 . S
C119 C120 1.524 . S
C119 C123 1.400 1_556 S
C120 H105 0.960 . S
C120 H106 0.960 . S
C120 H107 0.960 . S
C120 C119 1.524 . S
C121 C118 1.403 1_554 S
C121 C122 1.392 1_565 S
C121 C125 1.495 . S
C122 C121 1.392 1_545 S
C122 C123 1.385 1_545 S
C122 C124 1.478 . S
C123 H117 0.930 1_565 S
C123 C119 1.400 1_554 S
C123 C122 1.385 1_565 S
C124 C122 1.478 . S
C124 C126 1.381 . S
C124 C130 1.383 . S
C125 C121 1.495 . S
C125 H131 0.959 . S
C125 H132 0.961 . S
C125 H133 0.960 1_565 S
C126 C124 1.381 . S
C126 C127 1.394 . S
C126 H134 0.930 . S
C127 C126 1.394 . S
C127 C128 1.383 . S
C127 H135 0.929 . S
C128 C127 1.383 . S
C128 C129 1.377 . S
C129 H113 0.930 . S
C129 C128 1.377 . S
C129 C130 1.379 . S
C130 H114 0.931 1_545 S
C130 C124 1.383 . S
C130 C129 1.379 . S
H131 C125 0.959 . S
H132 C125 0.961 . S
H133 C125 0.960 1_545 S
H134 C126 0.930 . S
H135 C127 0.929 . S
H136 C144 0.929 . S
H137 C146 0.930 . S
H138 C148 0.930 . S
H139 C151 0.929 . S
H140 C154 0.930 . S
H141 C156 0.960 . S
H142 C156 0.960 . S
H143 C156 0.960 . S
C144 H136 0.929 . S
C144 C145 1.377 . S
C144 C146 1.384 . S
C145 C144 1.377 . S
C145 C151 1.390 . S
C146 H137 0.930 . S
C146 C144 1.384 . S
C146 C147 1.372 . S
C147 C146 1.372 . S
C147 C148 1.400 . S
C147 C152 1.490 . S
C148 H138 0.930 . S
C148 C147 1.400 . S
C148 C151 1.386 . S
H149 C165 0.930 . S
H150 C166 0.931 . S
C151 H139 0.929 . S
C151 C145 1.390 . S
C151 C148 1.386 . S
C152 C147 1.490 . S
C152 C154 1.395 . S
C152 C155 1.403 . S
H153 C159 0.930 . S
C154 H140 0.930 . S
C154 C152 1.395 . S
C154 C157 1.403 . S
C155 C152 1.403 . S
C155 C156 1.524 . S
C155 C159 1.400 . S
C156 H141 0.960 . S
C156 H142 0.960 . S
C156 H143 0.960 . S
C156 C155 1.524 . S
C157 C154 1.403 . S
C157 C158 1.392 . S
C157 C161 1.495 . S
C158 C157 1.392 . S
C158 C159 1.385 . S
C158 C160 1.478 . S
C159 H153 0.930 . S
C159 C155 1.400 . S
C159 C158 1.385 . S
C160 C158 1.478 . S
C160 C162 1.381 . S
C160 C166 1.383 . S
C161 C157 1.495 . S
C161 H167 0.959 . S
C161 H168 0.961 . S
C161 H169 0.960 . S
C162 C160 1.381 . S
C162 C163 1.394 . S
C162 H170 0.930 . S
C163 C162 1.394 . S
C163 C164 1.383 . S
C163 H171 0.929 . S
C164 C163 1.383 . S
C164 C165 1.377 . S
C165 H149 0.930 . S
C165 C164 1.377 . S
C165 C166 1.379 . S
C166 H150 0.931 . S
C166 C160 1.383 . S
C166 C165 1.379 . S
H167 C161 0.959 . S
H168 C161 0.961 . S
H169 C161 0.960 . S
H170 C162 0.930 . S
H171 C163 0.929 . S
H172 C180 0.929 . S
H173 C182 0.930 . S
H174 C184 0.930 1_455 S
H175 C187 0.929 . S
H176 C190 0.930 . S
H177 C192 0.960 . S
H178 C192 0.960 . S
H179 C192 0.960 . S
C180 H172 0.929 . S
C180 C181 1.377 . S
C180 C182 1.384 . S
C181 C180 1.377 . S
C181 C187 1.390 . S
C182 H173 0.930 . S
C182 C180 1.384 . S
C182 C183 1.372 . S
C183 C182 1.372 . S
C183 C184 1.400 . S
C183 C188 1.490 . S
C184 H174 0.930 1_655 S
C184 C183 1.400 . S
C184 C187 1.386 . S
H185 C201 0.930 . S
H186 C202 0.931 . S
C187 H175 0.929 . S
C187 C181 1.390 . S
C187 C184 1.386 . S
C188 C183 1.490 . S
C188 C190 1.395 1_554 S
C188 C191 1.403 1_655 S
H189 C195 0.930 . S
C190 H176 0.930 . S
C190 C188 1.395 1_556 S
C190 C193 1.403 1_655 S
C191 C188 1.403 1_455 S
C191 C192 1.524 . S
C191 C195 1.400 . S
C192 H177 0.960 . S
C192 H178 0.960 . S
C192 H179 0.960 . S
C192 C191 1.524 . S
C193 C190 1.403 1_455 S
C193 C194 1.392 . S
C193 C197 1.495 1_455 S
C194 C193 1.392 . S
C194 C195 1.385 1_556 S
C194 C196 1.478 . S
C195 H189 0.930 . S
C195 C191 1.400 . S
C195 C194 1.385 1_554 S
C196 C194 1.478 . S
C196 C198 1.381 . S
C196 C202 1.383 . S
C197 C193 1.495 1_655 S
C197 H203 0.959 . S
C197 H204 0.961 1_655 S
C197 H205 0.960 . S
C198 C196 1.381 . S
C198 C199 1.394 . S
C198 H206 0.930 . S
C199 C198 1.394 . S
C199 C200 1.383 . S
C199 H207 0.929 . S
C200 C199 1.383 . S
C200 C201 1.377 . S
C201 H185 0.930 . S
C201 C200 1.377 . S
C201 C202 1.379 . S
C202 H186 0.931 . S
C202 C196 1.383 . S
C202 C201 1.379 . S
H203 C197 0.959 . S
H204 C197 0.961 1_455 S
H205 C197 0.960 . S
H206 C198 0.930 . S
H207 C199 0.929 . S
H208 C216 0.929 . S
H209 C218 0.930 1_545 S
H210 C220 0.930 . S
H211 C223 0.929 . S
H212 C226 0.930 . S
H213 C228 0.960 . S
H214 C228 0.960 . S
H215 C228 0.960 . S
C216 H208 0.929 . S
C216 C217 1.377 . S
C216 C218 1.384 . S
C217 C216 1.377 . S
C217 C223 1.390 . S
C218 H209 0.930 1_565 S
C218 C216 1.384 . S
C218 C219 1.372 . S
C219 C218 1.372 . S
C219 C220 1.400 . S
C219 C224 1.482 1_565 S
C220 H210 0.930 . S
C220 C219 1.400 . S
C220 C223 1.386 . S
H221 C237 0.930 . S
H222 C238 0.931 . S
C223 H211 0.929 . S
C223 C217 1.390 . S
C223 C220 1.386 . S
C224 C219 1.482 1_545 S
C224 C226 1.406 . S
C224 C227 1.400 1_545 S
H225 C231 0.930 . S
C226 H212 0.930 . S
C226 C224 1.406 . S
C226 C229 1.403 . S
C227 C224 1.400 1_565 S
C227 C228 1.524 . S
C227 C231 1.400 1_565 S
C228 H213 0.960 . S
C228 H214 0.960 . S
C228 H215 0.960 . S
C228 C227 1.524 . S
C229 C226 1.403 . S
C229 C230 1.392 . S
C229 C233 1.495 . S
C230 C229 1.392 . S
C230 C231 1.385 . S
C230 C232 1.478 . S
C231 H225 0.930 . S
C231 C227 1.400 1_545 S
C231 C230 1.385 . S
C232 C230 1.478 . S
C232 C234 1.381 . S
C232 C238 1.383 . S
C233 C229 1.495 . S
C233 H239 0.959 . S
C233 H240 0.961 . S
C233 H241 0.960 . S
C234 C232 1.381 . S
C234 C235 1.394 . S
C234 H242 0.930 . S
C235 C234 1.394 . S
C235 C236 1.383 . S
C235 H243 0.929 . S
C236 C235 1.383 . S
C236 C237 1.377 . S
C237 H221 0.930 . S
C237 C236 1.377 . S
C237 C238 1.379 . S
C238 H222 0.931 . S
C238 C232 1.383 . S
C238 C237 1.379 . S
H239 C233 0.959 . S
H240 C233 0.961 . S
H241 C233 0.960 . S
H242 C234 0.930 . S
H243 C235 0.929 . S
H244 C252 0.929 . S
H245 C254 0.930 . S
H246 C256 0.930 . S
H247 C259 0.929 . S
H248 C262 0.930 . S
H249 C264 0.960 1_556 S
H250 C264 0.960 . S
H251 C264 0.960 . S
C252 H244 0.929 . S
C252 C253 1.377 . S
C252 C254 1.384 . S
C253 C252 1.377 . S
C253 C259 1.390 . S
C254 H245 0.930 . S
C254 C252 1.384 . S
C254 C255 1.372 . S
C255 C254 1.372 . S
C255 C256 1.400 . S
C255 C260 1.490 . S
C256 H246 0.930 . S
C256 C255 1.400 . S
C256 C259 1.386 . S
H257 C273 0.930 . S
H258 C274 0.931 . S
C259 H247 0.929 . S
C259 C253 1.390 . S
C259 C256 1.386 . S
C260 C255 1.490 . S
C260 C262 1.395 . S
C260 C263 1.403 . S
H261 C267 0.930 . S
C262 H248 0.930 . S
C262 C260 1.395 . S
C262 C265 1.403 . S
C263 C260 1.403 . S
C263 C264 1.524 . S
C263 C267 1.400 1_554 S
C264 H249 0.960 1_554 S
C264 H250 0.960 . S
C264 H251 0.960 . S
C264 C263 1.524 . S
C265 C262 1.403 . S
C265 C266 1.392 1_554 S
C265 C269 1.495 . S
C266 C265 1.392 1_556 S
C266 C267 1.385 . S
C266 C268 1.478 . S
C267 H261 0.930 . S
C267 C263 1.400 1_556 S
C267 C266 1.385 . S
C268 C266 1.478 . S
C268 C270 1.381 . S
C268 C274 1.383 . S
C269 C265 1.495 . S
C269 H275 0.959 . S
C269 H276 0.961 . S
C269 H277 0.960 1_554 S
C270 C268 1.381 . S
C270 C271 1.394 . S
C270 H278 0.930 . S
C271 C270 1.394 . S
C271 C272 1.383 . S
C271 H279 0.929 . S
C272 C271 1.383 . S
C272 C273 1.377 . S
C273 H257 0.930 . S
C273 C272 1.377 . S
C273 C274 1.379 . S
C274 H258 0.931 . S
C274 C268 1.383 . S
C274 C273 1.379 . S
H275 C269 0.959 . S
H276 C269 0.961 . S
H277 C269 0.960 1_556 S
H278 C270 0.930 . S
H279 C271 0.929 . S
H280 C288 0.929 . S
H281 C290 0.930 . S
H282 C292 0.930 . S
H283 C295 0.929 . S
H284 C298 0.930 . S
H285 C300 0.960 . S
H286 C300 0.960 . S
H287 C300 0.960 . S
C288 H280 0.929 . S
C288 C289 1.377 . S
C288 C290 1.384 . S
C289 C288 1.377 . S
C289 C295 1.390 . S
C290 H281 0.930 . S
C290 C288 1.384 . S
C290 C291 1.372 . S
C291 C290 1.372 . S
C291 C292 1.400 . S
C291 C296 1.490 . S
C292 H282 0.930 . S
C292 C291 1.400 . S
C292 C295 1.386 . S
H293 C309 0.930 . S
H294 C310 0.931 . S
C295 H283 0.929 . S
C295 C289 1.390 . S
C295 C292 1.386 . S
C296 C291 1.490 . S
C296 C298 1.395 . S
C296 C299 1.403 . S
H297 C303 0.930 1_455 S
C298 H284 0.930 . S
C298 C296 1.395 . S
C298 C301 1.403 . S
C299 C296 1.403 . S
C299 C300 1.524 . S
C299 C303 1.400 . S
C300 H285 0.960 . S
C300 H286 0.960 . S
C300 H287 0.960 . S
C300 C299 1.524 . S
C301 C298 1.403 . S
C301 C302 1.392 1_655 S
C301 C305 1.495 . S
C302 C301 1.392 1_455 S
C302 C303 1.381 1_455 S
C302 C304 1.481 . S
C303 H297 0.930 1_655 S
C303 C299 1.400 . S
C303 C302 1.381 1_655 S
C304 C302 1.481 . S
C304 C306 1.381 . S
C304 C310 1.383 . S
C305 C301 1.495 . S
C305 H311 0.959 . S
C305 H312 0.961 1_655 S
C305 H313 0.960 . S
C306 C304 1.381 . S
C306 C307 1.394 . S
C306 H314 0.930 1_455 S
C307 C306 1.394 . S
C307 C308 1.383 . S
C307 H315 0.929 . S
C308 C307 1.383 . S
C308 C309 1.377 . S
C309 H293 0.930 . S
C309 C308 1.377 . S
C309 C310 1.379 . S
C310 H294 0.931 . S
C310 C304 1.383 . S
C310 C309 1.379 . S
H311 C305 0.959 . S
H312 C305 0.961 1_455 S
H313 C305 0.960 . S
H314 C306 0.930 1_655 S
H315 C307 0.929 . S
H316 C324 0.929 . S
H317 C326 0.927 1_565 S
H318 C328 0.930 . S
H319 C331 0.929 . S
H320 C334 0.930 . S
H321 C336 0.960 . S
H322 C336 0.960 . S
H323 C336 0.960 . S
C324 H316 0.929 . S
C324 C325 1.377 . S
C324 C326 1.391 . S
C325 C324 1.377 . S
C325 C331 1.390 . S
C326 H317 0.927 1_545 S
C326 C324 1.391 . S
C326 C327 1.368 1_545 S
C327 C326 1.368 1_565 S
C327 C328 1.400 . S
C327 C332 1.490 . S
C328 H318 0.930 . S
C328 C327 1.400 . S
C328 C331 1.386 1_565 S
H329 C345 0.930 . S
H330 C346 0.931 . S
C331 H319 0.929 . S
C331 C325 1.390 . S
C331 C328 1.386 1_545 S
C332 C327 1.490 . S
C332 C334 1.395 . S
C332 C335 1.403 . S
H333 C339 0.930 . S
C334 H320 0.930 . S
C334 C332 1.395 . S
C334 C337 1.403 . S
C335 C332 1.403 . S
C335 C336 1.524 . S
C335 C339 1.400 . S
C336 H321 0.960 . S
C336 H322 0.960 . S
C336 H323 0.960 . S
C336 C335 1.524 . S
C337 C334 1.403 . S
C337 C338 1.392 . S
C337 C341 1.495 . S
C338 C337 1.392 . S
C338 C339 1.385 . S
C338 C340 1.478 . S
C339 H333 0.930 . S
C339 C335 1.400 . S
C339 C338 1.385 . S
C340 C338 1.478 . S
C340 C342 1.381 . S
C340 C346 1.383 . S
C341 C337 1.495 . S
C341 H347 0.959 . S
C341 H348 0.961 . S
C341 H349 0.960 . S
C342 C340 1.381 . S
C342 C343 1.394 . S
C342 H350 0.930 . S
C343 C342 1.394 . S
C343 C344 1.383 . S
C343 H351 0.929 . S
C344 C343 1.383 . S
C344 C345 1.377 . S
C345 H329 0.930 . S
C345 C344 1.377 . S
C345 C346 1.379 . S
C346 H330 0.931 . S
C346 C340 1.383 . S
C346 C345 1.379 . S
H347 C341 0.959 . S
H348 C341 0.961 . S
H349 C341 0.960 . S
H350 C342 0.930 . S
H351 C343 0.929 . S
H352 C360 0.929 . S
H353 C362 0.930 . S
H354 C364 0.930 . S
H355 C367 0.929 . S
H356 C370 0.930 . S
H357 C372 0.960 . S
H358 C372 0.960 . S
H359 C372 0.960 . S
C360 H352 0.929 . S
C360 C361 1.377 . S
C360 C362 1.384 . S
C361 C360 1.377 . S
C361 C367 1.390 . S
C362 H353 0.930 . S
C362 C360 1.384 . S
C362 C363 1.372 1_455 S
C363 C362 1.372 1_655 S
C363 C364 1.400 . S
C363 C368 1.490 . S
C364 H354 0.930 . S
C364 C363 1.400 . S
C364 C367 1.386 1_655 S
H365 C381 0.930 . S
H366 C382 0.931 . S
C367 H355 0.929 . S
C367 C361 1.390 . S
C367 C364 1.386 1_455 S
C368 C363 1.490 . S
C368 C370 1.395 . S
C368 C371 1.403 . S
H369 C375 0.930 . S
C370 H356 0.930 . S
C370 C368 1.395 . S
C370 C373 1.403 . S
C371 C368 1.403 . S
C371 C372 1.524 . S
C371 C375 1.400 . S
C372 H357 0.960 . S
C372 H358 0.960 . S
C372 H359 0.960 . S
C372 C371 1.524 . S
C373 C370 1.403 . S
C373 C374 1.392 . S
C373 C377 1.495 . S
C374 C373 1.392 . S
C374 C375 1.385 . S
C374 C376 1.478 . S
C375 H369 0.930 . S
C375 C371 1.400 . S
C375 C374 1.385 . S
C376 C374 1.478 . S
C376 C378 1.381 . S
C376 C382 1.383 . S
C377 C373 1.495 . S
C377 H383 0.959 . S
C377 H384 0.961 . S
C377 H385 0.960 . S
C378 C376 1.381 . S
C378 C379 1.394 . S
C378 H386 0.930 . S
C379 C378 1.394 . S
C379 C380 1.383 . S
C379 H387 0.929 . S
C380 C379 1.383 . S
C380 C381 1.377 . S
C381 H365 0.930 . S
C381 C380 1.377 . S
C381 C382 1.379 . S
C382 H366 0.931 . S
C382 C376 1.383 . S
C382 C381 1.379 . S
H383 C377 0.959 . S
H384 C377 0.961 . S
H385 C377 0.960 . S
H386 C378 0.930 . S
H387 C379 0.929 . S
H388 C396 0.929 . S
H389 C398 0.930 . S
H390 C400 0.930 . S
H391 C403 0.929 . S
H392 C406 0.930 . S
H393 C408 0.960 . S
H394 C408 0.960 . S
H395 C408 0.960 . S
C396 H388 0.929 . S
C396 C397 1.377 . S
C396 C398 1.384 1_545 S
C397 C396 1.377 . S
C397 C403 1.390 . S
C398 H389 0.930 . S
C398 C396 1.384 1_565 S
C398 C399 1.372 . S
C399 C398 1.372 . S
C399 C400 1.400 1_565 S
C399 C404 1.490 . S
C400 H390 0.930 . S
C400 C399 1.400 1_545 S
C400 C403 1.386 . S
H401 C417 0.930 . S
H402 C418 0.931 . S
C403 H391 0.929 . S
C403 C397 1.390 . S
C403 C400 1.386 . S
C404 C399 1.490 . S
C404 C406 1.395 . S
C404 C407 1.403 . S
H405 C411 0.930 . S
C406 H392 0.930 . S
C406 C404 1.395 . S
C406 C409 1.403 . S
C407 C404 1.403 . S
C407 C408 1.524 . S
C407 C411 1.400 . S
C408 H393 0.960 . S
C408 H394 0.960 . S
C408 H395 0.960 . S
C408 C407 1.524 . S
C409 C406 1.403 . S
C409 C410 1.392 . S
C409 C413 1.495 . S
C410 C409 1.392 . S
C410 C411 1.385 . S
C410 C412 1.478 . S
C411 H405 0.930 . S
C411 C407 1.400 . S
C411 C410 1.385 . S
C412 C410 1.478 . S
C412 C414 1.381 . S
C412 C418 1.383 1_455 S
C413 C409 1.495 . S
C413 H419 0.959 . S
C413 H420 0.961 . S
C413 H421 0.960 . S
C414 C412 1.381 . S
C414 C415 1.394 1_455 S
C414 H422 0.930 . S
C415 C414 1.394 1_655 S
C415 C416 1.383 . S
C415 H423 0.929 . S
C416 C415 1.383 . S
C416 C417 1.377 . S
C417 H401 0.930 . S
C417 C416 1.377 . S
C417 C418 1.379 . S
C418 H402 0.931 . S
C418 C412 1.383 1_655 S
C418 C417 1.379 . S
H419 C413 0.959 . S
H420 C413 0.961 . S
H421 C413 0.960 . S
H422 C414 0.930 . S
H423 C415 0.929 . S
H424 C432 0.929 . S
H425 C434 0.930 . S
H426 C436 0.930 . S
H427 C439 0.929 . S
H428 C442 0.930 . S
H429 C444 0.960 . S
H430 C444 0.960 . S
H431 C444 0.960 . S
C432 H424 0.929 . S
C432 C433 1.377 . S
C432 C434 1.384 . S
C433 C432 1.377 . S
C433 C439 1.390 . S
C434 H425 0.930 . S
C434 C432 1.384 . S
C434 C435 1.372 . S
C435 C434 1.372 . S
C435 C436 1.400 . S
C435 C440 1.490 . S
C436 H426 0.930 . S
C436 C435 1.400 . S
C436 C439 1.386 . S
H437 C453 0.930 . S
H438 C454 0.931 . S
C439 H427 0.929 . S
C439 C433 1.390 . S
C439 C436 1.386 . S
C440 C435 1.490 . S
C440 C442 1.395 . S
C440 C443 1.403 . S
H441 C447 0.930 . S
C442 H428 0.930 . S
C442 C440 1.395 . S
C442 C445 1.403 . S
C443 C440 1.403 . S
C443 C444 1.524 . S
C443 C447 1.400 . S
C444 H429 0.960 . S
C444 H430 0.960 . S
C444 H431 0.960 . S
C444 C443 1.524 . S
C445 C442 1.403 . S
C445 C446 1.392 . S
C445 C449 1.495 . S
C446 C445 1.392 . S
C446 C447 1.385 . S
C446 C448 1.478 . S
C447 H441 0.930 . S
C447 C443 1.400 . S
C447 C446 1.385 . S
C448 C446 1.478 . S
C448 C450 1.381 1_545 S
C448 C454 1.383 . S
C449 C445 1.495 . S
C449 H455 0.959 . S
C449 H456 0.961 . S
C449 H457 0.960 . S
C450 C448 1.381 1_565 S
C450 C451 1.394 . S
C450 H458 0.930 . S
C451 C450 1.394 . S
C451 C452 1.383 . S
C451 H459 0.929 . S
C452 C451 1.383 . S
C452 C453 1.377 . S
C453 H437 0.930 . S
C453 C452 1.377 . S
C453 C454 1.379 1_565 S
C454 H438 0.931 . S
C454 C448 1.383 . S
C454 C453 1.379 1_545 S
H455 C449 0.959 . S
H456 C449 0.961 . S
H457 C449 0.960 . S
H458 C450 0.930 . S
H459 C451 0.929 . S
H460 C468 0.929 . S
H461 C470 0.930 . S
H462 C472 0.930 . S
H463 C475 0.929 . S
H464 C478 0.930 . S
H465 C480 0.960 . S
H466 C480 0.960 . S
H467 C480 0.960 . S
C468 H460 0.929 . S
C468 C469 1.377 . S
C468 C470 1.384 . S
C469 C468 1.377 . S
C469 C475 1.390 . S
C470 H461 0.930 . S
C470 C468 1.384 . S
C470 C471 1.372 . S
C471 C470 1.372 . S
C471 C472 1.400 . S
C471 C476 1.490 . S
C472 H462 0.930 . S
C472 C471 1.400 . S
C472 C475 1.386 . S
H473 C489 0.930 . S
H474 C490 0.931 1_455 S
C475 H463 0.929 . S
C475 C469 1.390 . S
C475 C472 1.386 . S
C476 C471 1.490 . S
C476 C478 1.395 . S
C476 C479 1.403 . S
H477 C483 0.930 . S
C478 H464 0.930 . S
C478 C476 1.395 . S
C478 C481 1.403 . S
C479 C476 1.403 . S
C479 C480 1.524 . S
C479 C483 1.400 . S
C480 H465 0.960 . S
C480 H466 0.960 . S
C480 H467 0.960 . S
C480 C479 1.524 . S
C481 C478 1.403 . S
C481 C482 1.392 . S
C481 C485 1.495 . S
C482 C481 1.392 . S
C482 C483 1.385 . S
C482 C484 1.478 . S
C483 H477 0.930 . S
C483 C479 1.400 . S
C483 C482 1.385 . S
C484 C482 1.478 . S
C484 C486 1.381 . S
C484 C490 1.383 1_455 S
C485 C481 1.495 . S
C485 H491 0.959 . S
C485 H492 0.961 . S
C485 H493 0.960 . S
C486 C484 1.381 . S
C486 C487 1.394 1_455 S
C486 H494 0.930 . S
C487 C486 1.394 1_655 S
C487 C488 1.383 . S
C487 H495 0.929 . S
C488 C487 1.383 . S
C488 C489 1.377 . S
C489 H473 0.930 . S
C489 C488 1.377 . S
C489 C490 1.379 . S
C490 H474 0.931 1_655 S
C490 C484 1.383 1_655 S
C490 C489 1.379 . S
H491 C485 0.959 . S
H492 C485 0.961 . S
H493 C485 0.960 . S
H494 C486 0.930 . S
H495 C487 0.929 . S
H496 C504 0.929 . S
H497 C506 0.930 . S
H498 C508 0.930 . S
H499 C511 0.929 . S
H500 C514 0.930 . S
H501 C516 0.960 . S
H502 C516 0.960 . S
H503 C516 0.960 . S
C504 H496 0.929 . S
C504 C505 1.377 . S
C504 C506 1.384 1_455 S
C505 C504 1.377 . S
C505 C511 1.390 . S
C506 H497 0.930 . S
C506 C504 1.384 1_655 S
C506 C507 1.372 . S
C507 C506 1.372 . S
C507 C508 1.400 . S
C507 C512 1.490 . S
C508 H498 0.930 . S
C508 C507 1.400 . S
C508 C511 1.386 1_655 S
H509 C525 0.930 . S
H510 C526 0.931 1_545 S
C511 H499 0.929 . S
C511 C505 1.390 . S
C511 C508 1.386 1_455 S
C512 C507 1.490 . S
C512 C514 1.395 . S
C512 C515 1.403 . S
H513 C519 0.930 . S
C514 H500 0.930 . S
C514 C512 1.395 . S
C514 C517 1.403 . S
C515 C512 1.403 . S
C515 C516 1.524 . S
C515 C519 1.400 . S
C516 H501 0.960 . S
C516 H502 0.960 . S
C516 H503 0.960 . S
C516 C515 1.524 . S
C517 C514 1.403 . S
C517 C518 1.392 . S
C517 C521 1.495 . S
C518 C517 1.392 . S
C518 C519 1.385 . S
C518 C520 1.478 . S
C519 H513 0.930 . S
C519 C515 1.400 . S
C519 C518 1.385 . S
C520 C518 1.478 . S
C520 C522 1.381 . S
C520 C526 1.383 1_545 S
C521 C517 1.495 . S
C521 H527 0.959 . S
C521 H528 0.961 . S
C521 H529 0.960 . S
C522 C520 1.381 . S
C522 C523 1.394 1_545 S
C522 H530 0.930 . S
C523 C522 1.394 1_565 S
C523 C524 1.383 . S
C523 H531 0.929 . S
C524 C523 1.383 . S
C524 C525 1.377 . S
C525 H509 0.930 . S
C525 C524 1.377 . S
C525 C526 1.379 . S
C526 H510 0.931 1_565 S
C526 C520 1.383 1_565 S
C526 C525 1.379 . S
H527 C521 0.959 . S
H528 C521 0.961 . S
H529 C521 0.960 . S
H530 C522 0.930 . S
H531 C523 0.929 . S
C109 C51 1.664 . S
C128 C16 1.749 . S
C145 C68 1.756 . S
C164 C31 1.669 . S
C181 C22 1.755 . S
C200 C72 1.640 . S
C217 C81 1.756 . S
C236 C48 1.683 . S
C253 C49 1.755 . S
C272 C50 1.659 . S
C289 C17 1.671 . S
C308 C91 1.755 . S
C325 C34 1.032 . S
C344 C19 1.031 . S
C361 C84 1.041 . S
C380 C69 1.025 . S
C397 C41 1.040 . S
C416 C0 1.041 . S
C433 C99 1.042 . S
C452 C98 1.032 . S
C469 C18 1.035 . S
C488 C1 1.030 . S
C505 C66 1.040 . S
C524 C67 1.048 . S
