# Generated by pormake.
# Topology whk, (6)-cn, num edge types: 1
# Building blocks:
#     Node 0, Type 0, BuildingBlock: OJICUG_clean_sbu_0, # of connection points: 6
#     Node 1, Type 0, BuildingBlock: OJICUG_clean_sbu_0, # of connection points: 6
#     Node 2, Type 0, BuildingBlock: OJICUG_clean_sbu_0, # of connection points: 6
#     Node 3, Type 0, BuildingBlock: OJICUG_clean_sbu_0, # of connection points: 6
#     Node 4, Type 0, BuildingBlock: OJICUG_clean_sbu_0, # of connection points: 6
#     Node 5, Type 0, BuildingBlock: OJICUG_clean_sbu_0, # of connection points: 6
#     Node 6, Type 0, BuildingBlock: OJICUG_clean_sbu_0, # of connection points: 6
#     Node 7, Type 0, BuildingBlock: OJICUG_clean_sbu_0, # of connection points: 6
#     Node 8, Type 0, BuildingBlock: OJICUG_clean_sbu_0, # of connection points: 6
#     Node 9, Type 0, BuildingBlock: OJICUG_clean_sbu_0, # of connection points: 6
#     Node 10, Type 0, BuildingBlock: OJICUG_clean_sbu_0, # of connection points: 6
#     Node 11, Type 0, BuildingBlock: OJICUG_clean_sbu_0, # of connection points: 6
#     Node 12, Type 0, BuildingBlock: OJICUG_clean_sbu_0, # of connection points: 6
#     Node 13, Type 0, BuildingBlock: OJICUG_clean_sbu_0, # of connection points: 6
#     Node 14, Type 0, BuildingBlock: OJICUG_clean_sbu_0, # of connection points: 6
#     Node 15, Type 0, BuildingBlock: OJICUG_clean_sbu_0, # of connection points: 6
#     Edge 16, Type (0, 0), None
#     Edge 17, Type (0, 0), None
#     Edge 18, Type (0, 0), None
#     Edge 19, Type (0, 0), None
#     Edge 20, Type (0, 0), None
#     Edge 21, Type (0, 0), None
#     Edge 22, Type (0, 0), None
#     Edge 23, Type (0, 0), None
#     Edge 24, Type (0, 0), None
#     Edge 25, Type (0, 0), None
#     Edge 26, Type (0, 0), None
#     Edge 27, Type (0, 0), None
#     Edge 28, Type (0, 0), None
#     Edge 29, Type (0, 0), None
#     Edge 30, Type (0, 0), None
#     Edge 31, Type (0, 0), None
#     Edge 32, Type (0, 0), None
#     Edge 33, Type (0, 0), None
#     Edge 34, Type (0, 0), None
#     Edge 35, Type (0, 0), None
#     Edge 36, Type (0, 0), None
#     Edge 37, Type (0, 0), None
#     Edge 38, Type (0, 0), None
#     Edge 39, Type (0, 0), None
#     Edge 40, Type (0, 0), None
#     Edge 41, Type (0, 0), None
#     Edge 42, Type (0, 0), None
#     Edge 43, Type (0, 0), None
#     Edge 44, Type (0, 0), None
#     Edge 45, Type (0, 0), None
#     Edge 46, Type (0, 0), None
#     Edge 47, Type (0, 0), None
#     Edge 48, Type (0, 0), None
#     Edge 49, Type (0, 0), None
#     Edge 50, Type (0, 0), None
#     Edge 51, Type (0, 0), None
#     Edge 52, Type (0, 0), None
#     Edge 53, Type (0, 0), None
#     Edge 54, Type (0, 0), None
#     Edge 55, Type (0, 0), None
#     Edge 56, Type (0, 0), None
#     Edge 57, Type (0, 0), None
#     Edge 58, Type (0, 0), None
#     Edge 59, Type (0, 0), None
#     Edge 60, Type (0, 0), None
#     Edge 61, Type (0, 0), None
#     Edge 62, Type (0, 0), None
#     Edge 63, Type (0, 0), None
# Relax obj value: 0.277
# Max RMSD: 0.215
# Mean RMSD: 0.215
data_MOF--net-whk--node1-OJICUG_clean_sbu_0--edge1-none
_symmetry_space_group_name_H-M    P1
_symmetry_Int_Tables_number       1
_symmetry_cell_setting            triclinic
loop_
_symmetry_equiv_pos_as_xyz
'x, y, z'
_cell_length_a     18.227562
_cell_length_b     18.227684
_cell_length_c     25.34375
_cell_angle_alpha  89.996402
_cell_angle_beta   90.010157
_cell_angle_gamma 90.000003
loop_
_atom_site_label
_atom_site_type_symbol
_atom_site_fract_x
_atom_site_fract_y
_atom_site_fract_z
_atom_type_partial_charge
Sc0 Sc 0.58491 0.11037 0.42738 0.0
Sc1 Sc 0.57853 0.28613 0.3767 0.0
Sc2 Sc 0.47069 0.23342 0.4834 0.0
O3 O 0.54023 0.2108 0.4265 0.0
C4 C 0.41736 0.09197 0.41755 0.0
C5 C 0.61593 0.14702 0.30858 0.0
C6 C 0.42426 0.34878 0.40206 0.0
C7 C 0.70188 0.22613 0.43584 0.0
C8 C 0.55427 0.11295 0.54338 0.0
C9 C 0.57941 0.37115 0.48689 0.0
O10 O 0.47929 0.07419 0.39656 0.0
O11 O 0.57354 0.2048 0.30986 0.0
O12 O 0.4058 0.29133 0.4271 0.0
O13 O 0.68323 0.16664 0.45969 0.0
O14 O 0.5373 0.18017 0.54504 0.0
O15 O 0.60535 0.36202 0.44063 0.0
O16 O 0.5412 0.07831 0.5019 0.0
O17 O 0.67526 0.23636 0.39061 0.0
O18 O 0.52761 0.33208 0.50581 0.0
O19 O 0.63413 0.11414 0.35039 0.0
O20 O 0.41202 0.13528 0.45764 0.0
O21 O 0.47692 0.34837 0.36871 0.0
Sc22 Sc 0.36825 0.5849 0.4274 0.0
Sc23 Sc 0.19251 0.57841 0.3767 0.0
Sc24 Sc 0.24528 0.47058 0.48342 0.0
O25 O 0.26786 0.54015 0.42652 0.0
C26 C 0.38671 0.41737 0.41753 0.0
C27 C 0.3316 0.61591 0.30859 0.0
C28 C 0.12989 0.42416 0.4021 0.0
C29 C 0.25243 0.70182 0.43585 0.0
C30 C 0.36574 0.5542 0.5434 0.0
C31 C 0.1075 0.57922 0.48691 0.0
O32 O 0.40449 0.47933 0.39656 0.0
O33 O 0.27384 0.57348 0.30987 0.0
O34 O 0.18734 0.40568 0.42714 0.0
O35 O 0.31192 0.68317 0.4597 0.0
O36 O 0.29853 0.53718 0.54506 0.0
O37 O 0.11659 0.60514 0.44062 0.0
O38 O 0.40037 0.5412 0.50192 0.0
O39 O 0.24217 0.67519 0.39062 0.0
O40 O 0.1466 0.52746 0.50584 0.0
O41 O 0.36444 0.63415 0.35041 0.0
O42 O 0.34344 0.41197 0.45763 0.0
O43 O 0.13035 0.47676 0.3687 0.0
Sc44 Sc 0.89371 0.36831 0.42741 0.0
Sc45 Sc 0.9002 0.19255 0.37673 0.0
Sc46 Sc 0.00794 0.2453 0.4835 0.0
O47 O 0.93843 0.2679 0.42657 0.0
C48 C 0.06128 0.38668 0.41759 0.0
C49 C 0.86275 0.33165 0.3086 0.0
C50 C 0.05445 0.1299 0.40218 0.0
C51 C 0.77682 0.25253 0.43584 0.0
C52 C 0.92433 0.36581 0.54342 0.0
C53 C 0.89926 0.10755 0.48695 0.0
O54 O -0.00067 0.40448 0.3966 0.0
O55 O 0.90517 0.27389 0.3099 0.0
O56 O 0.07289 0.18728 0.42731 0.0
O57 O 0.79541 0.31203 0.45969 0.0
O58 O 0.94133 0.29859 0.54509 0.0
O59 O 0.87341 0.11662 0.44065 0.0
O60 O 0.93737 0.40044 0.50194 0.0
O61 O 0.8034 0.24219 0.39061 0.0
O62 O 0.95099 0.14666 0.50592 0.0
O63 O 0.8445 0.3645 0.35041 0.0
O64 O 0.06664 0.34342 0.45771 0.0
O65 O 0.00185 0.13041 0.36878 0.0
Sc66 Sc 0.23336 0.00784 0.48348 0.0
Sc67 Sc 0.28609 0.90012 0.37672 0.0
Sc68 Sc 0.11031 0.8937 0.42737 0.0
O69 O 0.21075 0.93837 0.42654 0.0
C70 C 0.11283 0.92424 0.54338 0.0
C71 C 0.37109 0.89913 0.48695 0.0
C72 C 0.22605 0.77676 0.43582 0.0
C73 C 0.34874 0.05441 0.40214 0.0
C74 C 0.09199 0.06127 0.41758 0.0
C75 C 0.14699 0.86273 0.30857 0.0
O76 O 0.18006 0.9412 0.54505 0.0
O77 O 0.362 0.87327 0.44065 0.0
O78 O 0.16655 0.79536 0.45965 0.0
O79 O 0.29137 0.07282 0.42728 0.0
O80 O 0.07417 -0.00065 0.39657 0.0
O81 O 0.20477 0.90513 0.30987 0.0
O82 O 0.13525 0.06657 0.4577 0.0
O83 O 0.34828 0.00175 0.36879 0.0
O84 O 0.11412 0.84451 0.35037 0.0
O85 O 0.33199 0.95088 0.5059 0.0
O86 O 0.0782 0.93734 0.5019 0.0
O87 O 0.23641 0.80334 0.39059 0.0
Sc88 Sc 0.08491 0.86827 0.13956 0.0
Sc89 Sc 0.07844 0.69252 0.19024 0.0
Sc90 Sc 0.97062 0.74527 0.08352 0.0
O91 O 0.04018 0.76787 0.14042 0.0
C92 C 0.91736 0.88671 0.14941 0.0
C93 C 0.11591 0.83162 0.25836 0.0
C94 C 0.92419 0.62988 0.16484 0.0
C95 C 0.20184 0.75247 0.13111 0.0
C96 C 0.05423 0.86575 1.02356 0.0
C97 C 0.07929 0.60751 0.08004 0.0
O98 O 0.97932 0.90448 0.17039 0.0
O99 O 0.07349 0.77386 0.25708 0.0
O100 O 0.90572 0.68731 0.13977 0.0
O101 O 0.18319 0.81196 0.10726 0.0
O102 O 0.03721 0.79853 1.02189 0.0
O103 O 0.10521 0.61661 0.12632 0.0
O104 O 0.04121 0.90038 0.06503 0.0
O105 O 0.17521 0.74223 0.17634 0.0
O106 O 0.02753 0.64661 0.0611 0.0
O107 O 0.13415 0.86447 0.21656 0.0
O108 O 0.91197 0.84342 0.10931 0.0
O109 O 0.97681 0.63035 0.19823 0.0
Sc110 Sc 0.73339 0.97065 0.08356 0.0
Sc111 Sc 0.78613 0.07848 0.19027 0.0
Sc112 Sc 0.61037 0.0849 0.13958 0.0
O113 O 0.71079 0.0402 0.14046 0.0
C114 C 0.61291 0.05424 1.02358 0.0
C115 C 0.87113 0.07935 0.08007 0.0
C116 C 0.72614 0.20186 0.13113 0.0
C117 C 0.84876 0.9242 0.1649 0.0
C118 C 0.59195 0.91735 0.14941 0.0
C119 C 0.64703 0.11591 0.25838 0.0
O120 O 0.68013 0.03725 1.02192 0.0
O121 O 0.86202 0.10528 0.12634 0.0
O122 O 0.66666 0.1832 0.10728 0.0
O123 O 0.79131 0.90575 0.13985 0.0
O124 O 0.57418 0.97929 0.1704 0.0
O125 O 0.70481 0.07351 0.25711 0.0
O126 O 0.63524 0.91199 0.10932 0.0
O127 O 0.84834 0.97686 0.19825 0.0
O128 O 0.61416 0.13412 0.21657 0.0
O129 O 0.83205 0.02756 0.06115 0.0
O130 O 0.57828 0.04119 0.06505 0.0
O131 O 0.73639 0.17523 0.17636 0.0
Sc132 Sc 0.50788 0.73336 0.08352 0.0
Sc133 Sc 0.40014 0.7861 0.19026 0.0
Sc134 Sc 0.3937 0.61032 0.13959 0.0
O135 O 0.43838 0.71075 0.14044 0.0
C136 C 0.42428 0.61285 1.02359 0.0
C137 C 0.39917 0.8711 0.08004 0.0
C138 C 0.27678 0.72607 0.13114 0.0
C139 C 0.55441 0.84874 0.16485 0.0
C140 C 0.56127 0.59195 0.1494 0.0
C141 C 0.36271 0.647 0.25839 0.0
O142 O 0.44124 0.68007 1.02192 0.0
O143 O 0.3733 0.86201 0.12633 0.0
O144 O 0.29537 0.66658 0.1073 0.0
O145 O 0.57283 0.79134 0.13974 0.0
O146 O 0.49934 0.57417 0.17041 0.0
O147 O 0.40512 0.70477 0.25711 0.0
O148 O 0.56658 0.63524 0.10929 0.0
O149 O 0.50177 0.84829 0.19821 0.0
O150 O 0.3445 0.61413 0.21659 0.0
O151 O 0.45093 0.832 0.0611 0.0
O152 O 0.43736 0.57822 0.06507 0.0
O153 O 0.30335 0.73642 0.17638 0.0
Sc154 Sc 0.74528 0.50791 0.08349 0.0
Sc155 Sc 0.69255 0.40016 0.19025 0.0
Sc156 Sc 0.86831 0.3937 0.13959 0.0
O157 O 0.76789 0.4384 0.14043 0.0
C158 C 0.86578 0.42429 1.02358 0.0
C159 C 0.60753 0.39921 0.08003 0.0
C160 C 0.75254 0.27679 0.13115 0.0
C161 C 0.6299 0.55443 0.16483 0.0
C162 C 0.88667 0.56126 0.1494 0.0
C163 C 0.83165 0.36274 0.25839 0.0
O164 O 0.79856 0.44127 1.02191 0.0
O165 O 0.61662 0.37335 0.12633 0.0
O166 O 0.81204 0.29538 0.1073 0.0
O167 O 0.68728 0.57286 0.1397 0.0
O168 O 0.90448 0.49933 0.17039 0.0
O169 O 0.77388 0.40516 0.25709 0.0
O170 O 0.8434 0.5666 0.10928 0.0
O171 O 0.63038 0.5018 0.1982 0.0
O172 O 0.8645 0.3445 0.21659 0.0
O173 O 0.64663 0.45096 0.06107 0.0
O174 O 0.90042 0.43735 0.06505 0.0
O175 O 0.74221 0.30337 0.17638 0.0
Sc176 Sc 0.5079 0.74518 0.58357 0.0
Sc177 Sc 0.40004 0.69247 0.69025 0.0
Sc178 Sc 0.39368 0.86824 0.63958 0.0
O179 O 0.43836 0.7678 0.64046 0.0
C180 C 0.56124 0.88663 0.64943 0.0
C181 C 0.5543 0.62978 0.66489 0.0
C182 C 0.36267 0.83156 0.75839 0.0
C183 C 0.39918 0.60745 0.58006 0.0
C184 C 0.42437 0.86567 0.52358 0.0
C185 C 0.27672 0.75247 0.63107 0.0
O186 O 0.56658 0.84331 0.60935 0.0
O187 O 0.50163 0.6302 0.69823 0.0
O188 O 0.34447 0.86445 0.71658 0.0
O189 O 0.45098 0.64652 0.56115 0.0
O190 O 0.43739 0.90032 0.56506 0.0
O191 O 0.30332 0.74228 0.67632 0.0
O192 O 0.44132 0.79845 0.52193 0.0
O193 O 0.37321 0.61659 0.62631 0.0
O194 O 0.29535 0.81199 0.60727 0.0
O195 O 0.57278 0.68723 0.63986 0.0
O196 O 0.4993 0.90442 0.67041 0.0
O197 O 0.40505 0.77376 0.7571 0.0
Sc198 Sc 0.6103 0.39365 0.63956 0.0
Sc199 Sc 0.78605 0.40006 0.69025 0.0
Sc200 Sc 0.73332 0.50795 0.58356 0.0
O201 O 0.71071 0.43837 0.64044 0.0
C202 C 0.61285 0.4244 0.52355 0.0
C203 C 0.72611 0.27673 0.63107 0.0
C204 C 0.87108 0.39925 0.58007 0.0
C205 C 0.64696 0.36266 0.75837 0.0
C206 C 0.59188 0.5612 0.64945 0.0
C207 C 0.84873 0.55431 0.66487 0.0
O208 O 0.5782 0.43736 0.56503 0.0
O209 O 0.73628 0.30333 0.67632 0.0
O210 O 0.832 0.45104 0.56114 0.0
O211 O 0.6141 0.34443 0.71656 0.0
O212 O 0.63517 0.56659 0.60935 0.0
O213 O 0.84829 0.50167 0.69824 0.0
O214 O 0.57408 0.49923 0.6704 0.0
O215 O 0.70474 0.40506 0.75709 0.0
O216 O 0.79127 0.57281 0.63986 0.0
O217 O 0.66658 0.29535 0.60725 0.0
O218 O 0.68007 0.44139 0.52191 0.0
O219 O 0.86194 0.37329 0.62633 0.0
Sc220 Sc 0.08491 0.61019 0.63956 0.0
Sc221 Sc 0.07845 0.78597 0.69021 0.0
Sc222 Sc 0.97067 0.73321 0.58346 0.0
O223 O 0.0402 0.71061 0.64039 0.0
C224 C 0.05423 0.61266 0.52354 0.0
C225 C 0.20179 0.72598 0.63108 0.0
C226 C 0.07937 0.87096 0.57999 0.0
C227 C 0.11585 0.64689 0.75836 0.0
C228 C 0.91734 0.59183 0.6494 0.0
C229 C 0.9242 0.84866 0.66476 0.0
O230 O 0.04125 0.57802 0.56503 0.0
O231 O 0.17523 0.73628 0.67633 0.0
O232 O 0.02764 0.83184 0.56102 0.0
O233 O 0.1341 0.61403 0.71657 0.0
O234 O 0.91197 0.6351 0.60929 0.0
O235 O 0.97682 0.84815 0.69815 0.0
O236 O 0.97929 0.57402 0.67037 0.0
O237 O 0.07343 0.70466 0.75705 0.0
O238 O 0.90574 0.79127 0.63965 0.0
O239 O 0.18322 0.66644 0.60727 0.0
O240 O 0.03726 0.67988 0.52188 0.0
O241 O 0.10524 0.86187 0.62629 0.0
Sc242 Sc 0.86834 0.08486 0.63959 0.0
Sc243 Sc 0.69255 0.07851 0.69022 0.0
Sc244 Sc 0.74525 0.97073 0.58349 0.0
O245 O 0.76789 0.04022 0.64042 0.0
C246 C 0.8658 0.05426 0.52357 0.0
C247 C 0.75262 0.2018 0.6311 0.0
C248 C 0.60754 0.07948 0.58001 0.0
C249 C 0.83163 0.11582 0.75839 0.0
C250 C 0.88663 0.91728 0.64938 0.0
C251 C 0.62984 0.92422 0.66482 0.0
O252 O 0.90044 0.04122 0.56505 0.0
O253 O 0.74233 0.17525 0.67635 0.0
O254 O 0.64662 0.02772 0.56107 0.0
O255 O 0.86454 0.13402 0.7166 0.0
O256 O 0.84335 0.91198 0.60927 0.0
O257 O 0.63029 0.97691 0.69815 0.0
O258 O 0.90447 0.9792 0.67038 0.0
O259 O 0.77384 0.07344 0.75708 0.0
O260 O 0.68723 0.90579 0.6397 0.0
O261 O 0.81214 0.18323 0.60729 0.0
O262 O 0.79856 0.03734 0.5219 0.0
O263 O 0.61666 0.10538 0.6263 0.0
Sc264 Sc 0.89366 0.11025 0.92741 0.0
Sc265 Sc 0.90006 0.28601 0.87674 0.0
Sc266 Sc 0.00794 0.23328 0.98345 0.0
O267 O 0.93837 0.21067 0.92655 0.0
C268 C 0.9244 0.11278 0.04343 0.0
C269 C 0.77673 0.22604 0.9359 0.0
C270 C 0.89922 0.37102 0.98694 0.0
C271 C 0.86269 0.14691 0.80861 0.0
C272 C 0.06122 0.09184 0.91755 0.0
C273 C 0.05431 0.34871 0.90213 0.0
O274 O 0.93736 0.07813 1.00194 0.0
O275 O 0.80333 0.23621 0.89066 0.0
O276 O 0.951 0.33194 1.00587 0.0
O277 O 0.84445 0.11405 0.85041 0.0
O278 O 0.06661 0.13515 0.95764 0.0
O279 O 0.00166 0.34825 0.86877 0.0
O280 O -0.00075 0.07405 0.89659 0.0
O281 O 0.90508 0.2047 0.8099 0.0
O282 O 0.0728 0.29127 0.92718 0.0
O283 O 0.79535 0.16651 0.95972 0.0
O284 O 0.94138 0.18 0.04508 0.0
O285 O 0.87326 0.36189 0.94067 0.0
Sc286 Sc 0.36826 0.89366 0.9274 0.0
Sc287 Sc 0.19249 0.90003 0.87672 0.0
Sc288 Sc 0.24522 0.00791 0.98341 0.0
O289 O 0.26783 0.93835 0.92652 0.0
C290 C 0.36572 0.92437 0.04341 0.0
C291 C 0.25249 0.77671 0.93589 0.0
C292 C 0.10748 0.89919 0.98691 0.0
C293 C 0.33158 0.86265 0.80859 0.0
C294 C 0.38666 0.06122 0.91755 0.0
C295 C 0.12981 0.05431 0.90208 0.0
O296 O 0.40036 0.93737 1.00192 0.0
O297 O 0.2423 0.80331 0.89064 0.0
O298 O 0.14655 0.95098 1.00583 0.0
O299 O 0.36447 0.84445 0.8504 0.0
O300 O 0.34335 0.06658 0.95763 0.0
O301 O 0.13023 0.00163 0.86875 0.0
O302 O 0.40445 -0.00073 0.89657 0.0
O303 O 0.27379 0.90503 0.80987 0.0
O304 O 0.18727 0.07278 0.92712 0.0
O305 O 0.31201 0.79534 0.95971 0.0
O306 O 0.29849 0.94133 0.04505 0.0
O307 O 0.11661 0.87322 0.94065 0.0
Sc308 Sc 0.58488 0.36829 0.92739 0.0
Sc309 Sc 0.5785 0.19251 0.87673 0.0
Sc310 Sc 0.47071 0.24522 0.98345 0.0
O311 O 0.54022 0.26785 0.92654 0.0
C312 C 0.55425 0.36575 0.0434 0.0
C313 C 0.70181 0.25255 0.93587 0.0
C314 C 0.57945 0.1075 0.98694 0.0
C315 C 0.61585 0.3316 0.80858 0.0
C316 C 0.41731 0.38664 0.91758 0.0
C317 C 0.42423 0.12982 0.90212 0.0
O318 O 0.54122 0.4004 1.00192 0.0
O319 O 0.67525 0.24227 0.89062 0.0
O320 O 0.52768 0.14658 1.00587 0.0
O321 O 0.63406 0.36449 0.85038 0.0
O322 O 0.41199 0.34333 0.95767 0.0
O323 O 0.47689 0.13026 0.86879 0.0
O324 O 0.47924 0.40444 0.89658 0.0
O325 O 0.57347 0.27381 0.80988 0.0
O326 O 0.40579 0.18723 0.92722 0.0
O327 O 0.68323 0.31208 0.95969 0.0
O328 O 0.53732 0.29852 0.04506 0.0
O329 O 0.60536 0.11662 0.94066 0.0
Sc330 Sc 0.23326 0.47067 0.98348 0.0
Sc331 Sc 0.286 0.57846 0.87675 0.0
Sc332 Sc 0.11022 0.58488 0.92739 0.0
O333 O 0.21065 0.54019 0.92656 0.0
C334 C 0.09187 0.41732 0.91756 0.0
C335 C 0.34868 0.42419 0.90217 0.0
C336 C 0.14691 0.61582 0.80859 0.0
C337 C 0.37101 0.57939 0.98696 0.0
C338 C 0.11273 0.55424 0.04341 0.0
C339 C 0.22599 0.70178 0.93587 0.0
O340 O 0.13515 0.41197 0.95767 0.0
O341 O 0.3482 0.47684 0.86881 0.0
O342 O 0.11404 0.63407 0.85038 0.0
O343 O 0.3319 0.52764 1.00592 0.0
O344 O 0.07808 0.54124 1.00192 0.0
O345 O 0.23627 0.67523 0.89063 0.0
O346 O 0.17996 0.53728 0.04507 0.0
O347 O 0.3619 0.60528 0.94067 0.0
O348 O 0.16645 0.68321 0.95968 0.0
O349 O 0.29129 0.40574 0.92728 0.0
O350 O 0.07404 0.47926 0.89658 0.0
O351 O 0.20469 0.57342 0.8099 0.0
loop_
_geom_bond_atom_site_label_1
_geom_bond_atom_site_label_2
_geom_bond_distance
_geom_bond_site_symmetry_2
_ccdc_geom_bond_type
Sc0 O3 2.025 . S
Sc0 O10 2.105 . S
Sc0 O13 2.105 . S
Sc0 O16 2.105 . S
Sc0 O19 2.105 . S
Sc1 O3 2.025 . S
Sc1 O11 2.105 . S
Sc1 O15 2.105 . S
Sc1 O17 2.105 . S
Sc1 O21 2.105 . S
Sc2 O3 2.025 . S
Sc2 O12 2.105 . S
Sc2 O14 2.105 . S
Sc2 O18 2.105 . S
Sc2 O20 2.105 . S
O3 Sc0 2.025 . S
O3 Sc1 2.025 . S
O3 Sc2 2.025 . S
C4 O10 1.268 . S
C4 O20 1.268 . S
C5 O11 1.268 . S
C5 O19 1.268 . S
C6 O12 1.268 . S
C6 O21 1.268 . S
C7 O13 1.268 . S
C7 O17 1.268 . S
C8 O14 1.268 . S
C8 O16 1.268 . S
C9 O15 1.268 . S
C9 O18 1.268 . S
O10 Sc0 2.105 . S
O10 C4 1.268 . S
O11 Sc1 2.105 . S
O11 C5 1.268 . S
O12 Sc2 2.105 . S
O12 C6 1.268 . S
O13 Sc0 2.105 . S
O13 C7 1.268 . S
O14 Sc2 2.105 . S
O14 C8 1.268 . S
O15 Sc1 2.105 . S
O15 C9 1.268 . S
O16 Sc0 2.105 . S
O16 C8 1.268 . S
O17 Sc1 2.105 . S
O17 C7 1.268 . S
O18 Sc2 2.105 . S
O18 C9 1.268 . S
O19 Sc0 2.105 . S
O19 C5 1.268 . S
O20 Sc2 2.105 . S
O20 C4 1.268 . S
O21 Sc1 2.105 . S
O21 C6 1.268 . S
Sc22 O25 2.025 . S
Sc22 O32 2.105 . S
Sc22 O35 2.105 . S
Sc22 O38 2.105 . S
Sc22 O41 2.105 . S
Sc23 O25 2.025 . S
Sc23 O33 2.105 . S
Sc23 O37 2.105 . S
Sc23 O39 2.105 . S
Sc23 O43 2.105 . S
Sc24 O25 2.025 . S
Sc24 O34 2.105 . S
Sc24 O36 2.105 . S
Sc24 O40 2.105 . S
Sc24 O42 2.105 . S
O25 Sc22 2.025 . S
O25 Sc23 2.025 . S
O25 Sc24 2.025 . S
C26 O32 1.268 . S
C26 O42 1.268 . S
C27 O33 1.268 . S
C27 O41 1.268 . S
C28 O34 1.268 . S
C28 O43 1.268 . S
C29 O35 1.268 . S
C29 O39 1.268 . S
C30 O36 1.268 . S
C30 O38 1.268 . S
C31 O37 1.268 . S
C31 O40 1.268 . S
O32 Sc22 2.105 . S
O32 C26 1.268 . S
O33 Sc23 2.105 . S
O33 C27 1.268 . S
O34 Sc24 2.105 . S
O34 C28 1.268 . S
O35 Sc22 2.105 . S
O35 C29 1.268 . S
O36 Sc24 2.105 . S
O36 C30 1.268 . S
O37 Sc23 2.105 . S
O37 C31 1.268 . S
O38 Sc22 2.105 . S
O38 C30 1.268 . S
O39 Sc23 2.105 . S
O39 C29 1.268 . S
O40 Sc24 2.105 . S
O40 C31 1.268 . S
O41 Sc22 2.105 . S
O41 C27 1.268 . S
O42 Sc24 2.105 . S
O42 C26 1.268 . S
O43 Sc23 2.105 . S
O43 C28 1.268 . S
Sc44 O47 2.025 . S
Sc44 O54 2.113 . S
Sc44 O57 2.105 . S
Sc44 O60 2.105 . S
Sc44 O63 2.105 . S
Sc45 O47 2.025 . S
Sc45 O55 2.105 . S
Sc45 O59 2.105 . S
Sc45 O61 2.105 . S
Sc45 O65 2.105 1_655 S
Sc46 O47 2.025 1_455 S
Sc46 O56 2.105 . S
Sc46 O58 2.105 1_455 S
Sc46 O62 2.105 1_455 S
Sc46 O64 2.105 . S
O47 Sc44 2.025 . S
O47 Sc45 2.025 . S
O47 Sc46 2.025 1_655 S
C48 O54 1.260 1_455 S
C48 O64 1.268 . S
C49 O55 1.268 . S
C49 O63 1.268 . S
C50 O56 1.268 . S
C50 O65 1.268 . S
C51 O57 1.268 . S
C51 O61 1.268 . S
C52 O58 1.268 . S
C52 O60 1.268 . S
C53 O59 1.268 . S
C53 O62 1.268 . S
O54 Sc44 2.113 . S
O54 C48 1.260 1_655 S
O55 Sc45 2.105 . S
O55 C49 1.268 . S
O56 Sc46 2.105 . S
O56 C50 1.268 . S
O57 Sc44 2.105 . S
O57 C51 1.268 . S
O58 Sc46 2.105 1_655 S
O58 C52 1.268 . S
O59 Sc45 2.105 . S
O59 C53 1.268 . S
O60 Sc44 2.105 . S
O60 C52 1.268 . S
O61 Sc45 2.105 . S
O61 C51 1.268 . S
O62 Sc46 2.105 1_655 S
O62 C53 1.268 . S
O63 Sc44 2.105 . S
O63 C49 1.268 . S
O64 Sc46 2.105 . S
O64 C48 1.268 . S
O65 Sc45 2.105 1_455 S
O65 C50 1.268 . S
Sc66 O69 2.025 1_545 S
Sc66 O76 2.105 1_545 S
Sc66 O79 2.105 . S
Sc66 O82 2.105 . S
Sc66 O85 2.105 1_545 S
Sc67 O69 2.025 . S
Sc67 O77 2.105 . S
Sc67 O81 2.105 . S
Sc67 O83 2.105 1_565 S
Sc67 O87 2.105 . S
Sc68 O69 2.025 . S
Sc68 O78 2.105 . S
Sc68 O80 2.113 . S
Sc68 O84 2.105 . S
Sc68 O86 2.105 . S
O69 Sc66 2.025 1_565 S
O69 Sc67 2.025 . S
O69 Sc68 2.025 . S
C70 O76 1.268 . S
C70 O86 1.268 . S
C71 O77 1.268 . S
C71 O85 1.268 . S
C72 O78 1.268 . S
C72 O87 1.268 . S
C73 O79 1.268 . S
C73 O83 1.268 . S
C74 O80 1.260 1_545 S
C74 O82 1.268 . S
C75 O81 1.268 . S
C75 O84 1.268 . S
O76 Sc66 2.105 1_565 S
O76 C70 1.268 . S
O77 Sc67 2.105 . S
O77 C71 1.268 . S
O78 Sc68 2.105 . S
O78 C72 1.268 . S
O79 Sc66 2.105 . S
O79 C73 1.268 . S
O80 Sc68 2.113 . S
O80 C74 1.260 1_565 S
O81 Sc67 2.105 . S
O81 C75 1.268 . S
O82 Sc66 2.105 . S
O82 C74 1.268 . S
O83 Sc67 2.105 1_545 S
O83 C73 1.268 . S
O84 Sc68 2.105 . S
O84 C75 1.268 . S
O85 Sc66 2.105 1_565 S
O85 C71 1.268 . S
O86 Sc68 2.105 . S
O86 C70 1.268 . S
O87 Sc67 2.105 . S
O87 C72 1.268 . S
Sc88 O91 2.025 . S
Sc88 O98 2.113 . S
Sc88 O101 2.105 . S
Sc88 O104 2.105 . S
Sc88 O107 2.105 . S
Sc89 O91 2.025 . S
Sc89 O99 2.105 . S
Sc89 O103 2.105 . S
Sc89 O105 2.105 . S
Sc89 O109 2.105 1_455 S
Sc90 O91 2.025 1_655 S
Sc90 O100 2.105 . S
Sc90 O102 2.105 1_655 S
Sc90 O106 2.105 1_655 S
Sc90 O108 2.105 . S
O91 Sc88 2.025 . S
O91 Sc89 2.025 . S
O91 Sc90 2.025 1_455 S
C92 O98 1.260 1_655 S
C92 O108 1.268 . S
C93 O99 1.268 . S
C93 O107 1.268 . S
C94 O100 1.268 . S
C94 O109 1.268 . S
C95 O101 1.268 . S
C95 O105 1.268 . S
C96 O102 1.268 . S
C96 O104 1.268 . S
C97 O103 1.268 . S
C97 O106 1.268 . S
O98 Sc88 2.113 . S
O98 C92 1.260 1_455 S
O99 Sc89 2.105 . S
O99 C93 1.268 . S
O100 Sc90 2.105 . S
O100 C94 1.268 . S
O101 Sc88 2.105 . S
O101 C95 1.268 . S
O102 Sc90 2.105 1_455 S
O102 C96 1.268 . S
O103 Sc89 2.105 . S
O103 C97 1.268 . S
O104 Sc88 2.105 . S
O104 C96 1.268 . S
O105 Sc89 2.105 . S
O105 C95 1.268 . S
O106 Sc90 2.105 1_455 S
O106 C97 1.268 . S
O107 Sc88 2.105 . S
O107 C93 1.268 . S
O108 Sc90 2.105 . S
O108 C92 1.268 . S
O109 Sc89 2.105 1_655 S
O109 C94 1.268 . S
Sc110 O113 2.025 1_565 S
Sc110 O120 2.105 1_565 S
Sc110 O123 2.105 . S
Sc110 O126 2.105 . S
Sc110 O129 2.105 1_565 S
Sc111 O113 2.025 . S
Sc111 O121 2.105 . S
Sc111 O125 2.105 . S
Sc111 O127 2.105 1_545 S
Sc111 O131 2.105 . S
Sc112 O113 2.025 . S
Sc112 O122 2.105 . S
Sc112 O124 2.113 . S
Sc112 O128 2.105 . S
Sc112 O130 2.105 . S
O113 Sc110 2.025 1_545 S
O113 Sc111 2.025 . S
O113 Sc112 2.025 . S
C114 O120 1.268 . S
C114 O130 1.268 . S
C115 O121 1.268 . S
C115 O129 1.268 . S
C116 O122 1.268 . S
C116 O131 1.268 . S
C117 O123 1.268 . S
C117 O127 1.268 . S
C118 O124 1.260 1_565 S
C118 O126 1.268 . S
C119 O125 1.268 . S
C119 O128 1.268 . S
O120 Sc110 2.105 1_545 S
O120 C114 1.268 . S
O121 Sc111 2.105 . S
O121 C115 1.268 . S
O122 Sc112 2.105 . S
O122 C116 1.268 . S
O123 Sc110 2.105 . S
O123 C117 1.268 . S
O124 Sc112 2.113 . S
O124 C118 1.260 1_545 S
O125 Sc111 2.105 . S
O125 C119 1.268 . S
O126 Sc110 2.105 . S
O126 C118 1.268 . S
O127 Sc111 2.105 1_565 S
O127 C117 1.268 . S
O128 Sc112 2.105 . S
O128 C119 1.268 . S
O129 Sc110 2.105 1_545 S
O129 C115 1.268 . S
O130 Sc112 2.105 . S
O130 C114 1.268 . S
O131 Sc111 2.105 . S
O131 C116 1.268 . S
Sc132 O135 2.025 . S
Sc132 O142 2.105 . S
Sc132 O145 2.105 . S
Sc132 O148 2.105 . S
Sc132 O151 2.105 . S
Sc133 O135 2.025 . S
Sc133 O143 2.105 . S
Sc133 O147 2.105 . S
Sc133 O149 2.105 . S
Sc133 O153 2.105 . S
Sc134 O135 2.025 . S
Sc134 O144 2.105 . S
Sc134 O146 2.105 . S
Sc134 O150 2.105 . S
Sc134 O152 2.105 . S
O135 Sc132 2.025 . S
O135 Sc133 2.025 . S
O135 Sc134 2.025 . S
C136 O142 1.268 . S
C136 O152 1.268 . S
C137 O143 1.268 . S
C137 O151 1.268 . S
C138 O144 1.268 . S
C138 O153 1.268 . S
C139 O145 1.268 . S
C139 O149 1.268 . S
C140 O146 1.268 . S
C140 O148 1.268 . S
C141 O147 1.268 . S
C141 O150 1.268 . S
O142 Sc132 2.105 . S
O142 C136 1.268 . S
O143 Sc133 2.105 . S
O143 C137 1.268 . S
O144 Sc134 2.105 . S
O144 C138 1.268 . S
O145 Sc132 2.105 . S
O145 C139 1.268 . S
O146 Sc134 2.105 . S
O146 C140 1.268 . S
O147 Sc133 2.105 . S
O147 C141 1.268 . S
O148 Sc132 2.105 . S
O148 C140 1.268 . S
O149 Sc133 2.105 . S
O149 C139 1.268 . S
O150 Sc134 2.105 . S
O150 C141 1.268 . S
O151 Sc132 2.105 . S
O151 C137 1.268 . S
O152 Sc134 2.105 . S
O152 C136 1.268 . S
O153 Sc133 2.105 . S
O153 C138 1.268 . S
Sc154 O157 2.025 . S
Sc154 O164 2.105 . S
Sc154 O167 2.105 . S
Sc154 O170 2.105 . S
Sc154 O173 2.105 . S
Sc155 O157 2.025 . S
Sc155 O165 2.105 . S
Sc155 O169 2.105 . S
Sc155 O171 2.105 . S
Sc155 O175 2.105 . S
Sc156 O157 2.025 . S
Sc156 O166 2.105 . S
Sc156 O168 2.105 . S
Sc156 O172 2.105 . S
Sc156 O174 2.105 . S
O157 Sc154 2.025 . S
O157 Sc155 2.025 . S
O157 Sc156 2.025 . S
C158 O164 1.268 . S
C158 O174 1.268 . S
C159 O165 1.268 . S
C159 O173 1.268 . S
C160 O166 1.268 . S
C160 O175 1.268 . S
C161 O167 1.268 . S
C161 O171 1.268 . S
C162 O168 1.268 . S
C162 O170 1.268 . S
C163 O169 1.268 . S
C163 O172 1.268 . S
O164 Sc154 2.105 . S
O164 C158 1.268 . S
O165 Sc155 2.105 . S
O165 C159 1.268 . S
O166 Sc156 2.105 . S
O166 C160 1.268 . S
O167 Sc154 2.105 . S
O167 C161 1.268 . S
O168 Sc156 2.105 . S
O168 C162 1.268 . S
O169 Sc155 2.105 . S
O169 C163 1.268 . S
O170 Sc154 2.105 . S
O170 C162 1.268 . S
O171 Sc155 2.105 . S
O171 C161 1.268 . S
O172 Sc156 2.105 . S
O172 C163 1.268 . S
O173 Sc154 2.105 . S
O173 C159 1.268 . S
O174 Sc156 2.105 . S
O174 C158 1.268 . S
O175 Sc155 2.105 . S
O175 C160 1.268 . S
Sc176 O179 2.025 . S
Sc176 O186 2.105 . S
Sc176 O189 2.105 . S
Sc176 O192 2.105 . S
Sc176 O195 2.105 . S
Sc177 O179 2.025 . S
Sc177 O187 2.105 . S
Sc177 O191 2.105 . S
Sc177 O193 2.105 . S
Sc177 O197 2.105 . S
Sc178 O179 2.025 . S
Sc178 O188 2.105 . S
Sc178 O190 2.105 . S
Sc178 O194 2.105 . S
Sc178 O196 2.105 . S
O179 Sc176 2.025 . S
O179 Sc177 2.025 . S
O179 Sc178 2.025 . S
C180 O186 1.268 . S
C180 O196 1.268 . S
C181 O187 1.268 . S
C181 O195 1.268 . S
C182 O188 1.268 . S
C182 O197 1.268 . S
C183 O189 1.268 . S
C183 O193 1.268 . S
C184 O190 1.268 . S
C184 O192 1.268 . S
C185 O191 1.268 . S
C185 O194 1.268 . S
O186 Sc176 2.105 . S
O186 C180 1.268 . S
O187 Sc177 2.105 . S
O187 C181 1.268 . S
O188 Sc178 2.105 . S
O188 C182 1.268 . S
O189 Sc176 2.105 . S
O189 C183 1.268 . S
O190 Sc178 2.105 . S
O190 C184 1.268 . S
O191 Sc177 2.105 . S
O191 C185 1.268 . S
O192 Sc176 2.105 . S
O192 C184 1.268 . S
O193 Sc177 2.105 . S
O193 C183 1.268 . S
O194 Sc178 2.105 . S
O194 C185 1.268 . S
O195 Sc176 2.105 . S
O195 C181 1.268 . S
O196 Sc178 2.105 . S
O196 C180 1.268 . S
O197 Sc177 2.105 . S
O197 C182 1.268 . S
Sc198 O201 2.025 . S
Sc198 O208 2.105 . S
Sc198 O211 2.105 . S
Sc198 O214 2.105 . S
Sc198 O217 2.105 . S
Sc199 O201 2.025 . S
Sc199 O209 2.105 . S
Sc199 O213 2.105 . S
Sc199 O215 2.105 . S
Sc199 O219 2.105 . S
Sc200 O201 2.025 . S
Sc200 O210 2.105 . S
Sc200 O212 2.105 . S
Sc200 O216 2.105 . S
Sc200 O218 2.105 . S
O201 Sc198 2.025 . S
O201 Sc199 2.025 . S
O201 Sc200 2.025 . S
C202 O208 1.268 . S
C202 O218 1.268 . S
C203 O209 1.268 . S
C203 O217 1.268 . S
C204 O210 1.268 . S
C204 O219 1.268 . S
C205 O211 1.268 . S
C205 O215 1.268 . S
C206 O212 1.268 . S
C206 O214 1.268 . S
C207 O213 1.268 . S
C207 O216 1.268 . S
O208 Sc198 2.105 . S
O208 C202 1.268 . S
O209 Sc199 2.105 . S
O209 C203 1.268 . S
O210 Sc200 2.105 . S
O210 C204 1.268 . S
O211 Sc198 2.105 . S
O211 C205 1.268 . S
O212 Sc200 2.105 . S
O212 C206 1.268 . S
O213 Sc199 2.105 . S
O213 C207 1.268 . S
O214 Sc198 2.105 . S
O214 C206 1.268 . S
O215 Sc199 2.105 . S
O215 C205 1.268 . S
O216 Sc200 2.105 . S
O216 C207 1.268 . S
O217 Sc198 2.105 . S
O217 C203 1.268 . S
O218 Sc200 2.105 . S
O218 C202 1.268 . S
O219 Sc199 2.105 . S
O219 C204 1.268 . S
Sc220 O223 2.025 . S
Sc220 O230 2.105 . S
Sc220 O233 2.105 . S
Sc220 O236 2.113 . S
Sc220 O239 2.105 . S
Sc221 O223 2.025 . S
Sc221 O231 2.105 . S
Sc221 O235 2.105 1_455 S
Sc221 O237 2.105 . S
Sc221 O241 2.105 . S
Sc222 O223 2.025 1_655 S
Sc222 O232 2.105 1_655 S
Sc222 O234 2.105 . S
Sc222 O238 2.105 . S
Sc222 O240 2.105 1_655 S
O223 Sc220 2.025 . S
O223 Sc221 2.025 . S
O223 Sc222 2.025 1_455 S
C224 O230 1.268 . S
C224 O240 1.268 . S
C225 O231 1.268 . S
C225 O239 1.268 . S
C226 O232 1.268 . S
C226 O241 1.268 . S
C227 O233 1.268 . S
C227 O237 1.268 . S
C228 O234 1.268 . S
C228 O236 1.260 1_655 S
C229 O235 1.268 . S
C229 O238 1.268 . S
O230 Sc220 2.105 . S
O230 C224 1.268 . S
O231 Sc221 2.105 . S
O231 C225 1.268 . S
O232 Sc222 2.105 1_455 S
O232 C226 1.268 . S
O233 Sc220 2.105 . S
O233 C227 1.268 . S
O234 Sc222 2.105 . S
O234 C228 1.268 . S
O235 Sc221 2.105 1_655 S
O235 C229 1.268 . S
O236 Sc220 2.113 . S
O236 C228 1.260 1_455 S
O237 Sc221 2.105 . S
O237 C227 1.268 . S
O238 Sc222 2.105 . S
O238 C229 1.268 . S
O239 Sc220 2.105 . S
O239 C225 1.268 . S
O240 Sc222 2.105 1_455 S
O240 C224 1.268 . S
O241 Sc221 2.105 . S
O241 C226 1.268 . S
Sc242 O245 2.025 . S
Sc242 O252 2.105 . S
Sc242 O255 2.105 . S
Sc242 O258 2.113 . S
Sc242 O261 2.105 . S
Sc243 O245 2.025 . S
Sc243 O253 2.105 . S
Sc243 O257 2.105 1_545 S
Sc243 O259 2.105 . S
Sc243 O263 2.105 . S
Sc244 O245 2.025 1_565 S
Sc244 O254 2.105 1_565 S
Sc244 O256 2.105 . S
Sc244 O260 2.105 . S
Sc244 O262 2.105 1_565 S
O245 Sc242 2.025 . S
O245 Sc243 2.025 . S
O245 Sc244 2.025 1_545 S
C246 O252 1.268 . S
C246 O262 1.268 . S
C247 O253 1.268 . S
C247 O261 1.268 . S
C248 O254 1.268 . S
C248 O263 1.268 . S
C249 O255 1.268 . S
C249 O259 1.268 . S
C250 O256 1.268 . S
C250 O258 1.260 1_565 S
C251 O257 1.268 . S
C251 O260 1.268 . S
O252 Sc242 2.105 . S
O252 C246 1.268 . S
O253 Sc243 2.105 . S
O253 C247 1.268 . S
O254 Sc244 2.105 1_545 S
O254 C248 1.268 . S
O255 Sc242 2.105 . S
O255 C249 1.268 . S
O256 Sc244 2.105 . S
O256 C250 1.268 . S
O257 Sc243 2.105 1_565 S
O257 C251 1.268 . S
O258 Sc242 2.113 . S
O258 C250 1.260 1_545 S
O259 Sc243 2.105 . S
O259 C249 1.268 . S
O260 Sc244 2.105 . S
O260 C251 1.268 . S
O261 Sc242 2.105 . S
O261 C247 1.268 . S
O262 Sc244 2.105 1_545 S
O262 C246 1.268 . S
O263 Sc243 2.105 . S
O263 C248 1.268 . S
Sc264 O267 2.025 . S
Sc264 O274 2.105 . S
Sc264 O277 2.105 . S
Sc264 O280 2.113 . S
Sc264 O283 2.105 . S
Sc265 O267 2.025 . S
Sc265 O275 2.105 . S
Sc265 O279 2.105 1_655 S
Sc265 O281 2.105 . S
Sc265 O285 2.105 . S
Sc266 O267 2.025 1_455 S
Sc266 O276 2.105 1_455 S
Sc266 O278 2.105 . S
Sc266 O282 2.105 . S
Sc266 O284 2.105 1_455 S
O267 Sc264 2.025 . S
O267 Sc265 2.025 . S
O267 Sc266 2.025 1_655 S
C268 O274 1.268 . S
C268 O284 1.268 . S
C269 O275 1.268 . S
C269 O283 1.268 . S
C270 O276 1.268 . S
C270 O285 1.268 . S
C271 O277 1.268 . S
C271 O281 1.268 . S
C272 O278 1.268 . S
C272 O280 1.260 1_455 S
C273 O279 1.268 . S
C273 O282 1.268 . S
O274 Sc264 2.105 . S
O274 C268 1.268 . S
O275 Sc265 2.105 . S
O275 C269 1.268 . S
O276 Sc266 2.105 1_655 S
O276 C270 1.268 . S
O277 Sc264 2.105 . S
O277 C271 1.268 . S
O278 Sc266 2.105 . S
O278 C272 1.268 . S
O279 Sc265 2.105 1_455 S
O279 C273 1.268 . S
O280 Sc264 2.113 . S
O280 C272 1.260 1_655 S
O281 Sc265 2.105 . S
O281 C271 1.268 . S
O282 Sc266 2.105 . S
O282 C273 1.268 . S
O283 Sc264 2.105 . S
O283 C269 1.268 . S
O284 Sc266 2.105 1_655 S
O284 C268 1.268 . S
O285 Sc265 2.105 . S
O285 C270 1.268 . S
Sc286 O289 2.025 . S
Sc286 O296 2.105 . S
Sc286 O299 2.105 . S
Sc286 O302 2.113 . S
Sc286 O305 2.105 . S
Sc287 O289 2.025 . S
Sc287 O297 2.105 . S
Sc287 O301 2.105 1_565 S
Sc287 O303 2.105 . S
Sc287 O307 2.105 . S
Sc288 O289 2.025 1_545 S
Sc288 O298 2.105 1_545 S
Sc288 O300 2.105 . S
Sc288 O304 2.105 . S
Sc288 O306 2.105 1_545 S
O289 Sc286 2.025 . S
O289 Sc287 2.025 . S
O289 Sc288 2.025 1_565 S
C290 O296 1.268 . S
C290 O306 1.268 . S
C291 O297 1.268 . S
C291 O305 1.268 . S
C292 O298 1.268 . S
C292 O307 1.268 . S
C293 O299 1.268 . S
C293 O303 1.268 . S
C294 O300 1.268 . S
C294 O302 1.260 1_545 S
C295 O301 1.268 . S
C295 O304 1.268 . S
O296 Sc286 2.105 . S
O296 C290 1.268 . S
O297 Sc287 2.105 . S
O297 C291 1.268 . S
O298 Sc288 2.105 1_565 S
O298 C292 1.268 . S
O299 Sc286 2.105 . S
O299 C293 1.268 . S
O300 Sc288 2.105 . S
O300 C294 1.268 . S
O301 Sc287 2.105 1_545 S
O301 C295 1.268 . S
O302 Sc286 2.113 . S
O302 C294 1.260 1_565 S
O303 Sc287 2.105 . S
O303 C293 1.268 . S
O304 Sc288 2.105 . S
O304 C295 1.268 . S
O305 Sc286 2.105 . S
O305 C291 1.268 . S
O306 Sc288 2.105 1_565 S
O306 C290 1.268 . S
O307 Sc287 2.105 . S
O307 C292 1.268 . S
Sc308 O311 2.025 . S
Sc308 O318 2.105 . S
Sc308 O321 2.105 . S
Sc308 O324 2.105 . S
Sc308 O327 2.105 . S
Sc309 O311 2.025 . S
Sc309 O319 2.105 . S
Sc309 O323 2.105 . S
Sc309 O325 2.105 . S
Sc309 O329 2.105 . S
Sc310 O311 2.025 . S
Sc310 O320 2.105 . S
Sc310 O322 2.105 . S
Sc310 O326 2.105 . S
Sc310 O328 2.105 . S
O311 Sc308 2.025 . S
O311 Sc309 2.025 . S
O311 Sc310 2.025 . S
C312 O318 1.268 . S
C312 O328 1.268 . S
C313 O319 1.268 . S
C313 O327 1.268 . S
C314 O320 1.268 . S
C314 O329 1.268 . S
C315 O321 1.268 . S
C315 O325 1.268 . S
C316 O322 1.268 . S
C316 O324 1.268 . S
C317 O323 1.268 . S
C317 O326 1.268 . S
O318 Sc308 2.105 . S
O318 C312 1.268 . S
O319 Sc309 2.105 . S
O319 C313 1.268 . S
O320 Sc310 2.105 . S
O320 C314 1.268 . S
O321 Sc308 2.105 . S
O321 C315 1.268 . S
O322 Sc310 2.105 . S
O322 C316 1.268 . S
O323 Sc309 2.105 . S
O323 C317 1.268 . S
O324 Sc308 2.105 . S
O324 C316 1.268 . S
O325 Sc309 2.105 . S
O325 C315 1.268 . S
O326 Sc310 2.105 . S
O326 C317 1.268 . S
O327 Sc308 2.105 . S
O327 C313 1.268 . S
O328 Sc310 2.105 . S
O328 C312 1.268 . S
O329 Sc309 2.105 . S
O329 C314 1.268 . S
Sc330 O333 2.025 . S
Sc330 O340 2.105 . S
Sc330 O343 2.105 . S
Sc330 O346 2.105 . S
Sc330 O349 2.105 . S
Sc331 O333 2.025 . S
Sc331 O341 2.105 . S
Sc331 O345 2.105 . S
Sc331 O347 2.105 . S
Sc331 O351 2.105 . S
Sc332 O333 2.025 . S
Sc332 O342 2.105 . S
Sc332 O344 2.105 . S
Sc332 O348 2.105 . S
Sc332 O350 2.105 . S
O333 Sc330 2.025 . S
O333 Sc331 2.025 . S
O333 Sc332 2.025 . S
C334 O340 1.268 . S
C334 O350 1.268 . S
C335 O341 1.268 . S
C335 O349 1.268 . S
C336 O342 1.268 . S
C336 O351 1.268 . S
C337 O343 1.268 . S
C337 O347 1.268 . S
C338 O344 1.268 . S
C338 O346 1.268 . S
C339 O345 1.268 . S
C339 O348 1.268 . S
O340 Sc330 2.105 . S
O340 C334 1.268 . S
O341 Sc331 2.105 . S
O341 C335 1.268 . S
O342 Sc332 2.105 . S
O342 C336 1.268 . S
O343 Sc330 2.105 . S
O343 C337 1.268 . S
O344 Sc332 2.105 . S
O344 C338 1.268 . S
O345 Sc331 2.105 . S
O345 C339 1.268 . S
O346 Sc330 2.105 . S
O346 C338 1.268 . S
O347 Sc331 2.105 . S
O347 C337 1.268 . S
O348 Sc332 2.105 . S
O348 C339 1.268 . S
O349 Sc330 2.105 . S
O349 C335 1.268 . S
O350 Sc332 2.105 . S
O350 C334 1.268 . S
O351 Sc331 2.105 . S
O351 C336 1.268 . S
C5 C119 3.238 . S
C141 C27 3.238 . S
C49 C163 3.238 . S
C75 C93 3.238 . S
C293 C182 3.238 . S
C315 C205 3.238 . S
C227 C336 3.238 . S
C249 C271 3.238 . S
C4 C73 1.782 . S
C26 C6 1.782 . S
C48 C28 1.782 . S
C74 C50 1.782 . S
C92 C117 1.782 . S
C139 C118 1.782 . S
C140 C161 1.782 . S
C94 C162 1.782 . S
C251 C180 1.782 . S
C206 C181 1.782 . S
C228 C207 1.782 . S
C250 C229 1.782 . S
C272 C295 1.782 . S
C294 C317 1.782 . S
C316 C335 1.782 . S
C334 C273 1.782 . S
C7 C51 1.001 . S
C29 C72 1.001 . S
C138 C95 1.001 . S
C160 C116 1.001 . S
C225 C185 1.001 . S
C247 C203 1.001 . S
C269 C313 1.001 . S
C291 C339 1.001 . S
C8 C248 1.481 . S
C183 C30 1.481 . S
C52 C204 1.481 . S
C226 C70 1.481 . S
C292 C96 1.481 1_556 S
C114 C314 1.481 1_554 S
C337 C136 1.481 1_556 S
C158 C270 1.481 1_554 S
C184 C71 1.481 . S
C202 C9 1.481 . S
C31 C224 1.481 . S
C246 C53 1.481 . S
C268 C115 1.481 1_556 S
C290 C137 1.481 1_556 S
C159 C312 1.481 1_554 S
C97 C338 1.481 1_554 S
