# Generated by pormake.
# Topology uml, (4)-cn, num edge types: 1
# Building blocks:
#     Node 0, Type 0, BuildingBlock: GALJAG_clean_sbu_0, # of connection points: 4
#     Node 1, Type 0, BuildingBlock: GALJAG_clean_sbu_0, # of connection points: 4
#     Node 2, Type 0, BuildingBlock: GALJAG_clean_sbu_0, # of connection points: 4
#     Node 3, Type 0, BuildingBlock: GALJAG_clean_sbu_0, # of connection points: 4
#     Node 4, Type 0, BuildingBlock: GALJAG_clean_sbu_0, # of connection points: 4
#     Node 5, Type 0, BuildingBlock: GALJAG_clean_sbu_0, # of connection points: 4
#     Node 6, Type 0, BuildingBlock: GALJAG_clean_sbu_0, # of connection points: 4
#     Node 7, Type 0, BuildingBlock: GALJAG_clean_sbu_0, # of connection points: 4
#     Node 8, Type 0, BuildingBlock: GALJAG_clean_sbu_0, # of connection points: 4
#     Node 9, Type 0, BuildingBlock: GALJAG_clean_sbu_0, # of connection points: 4
#     Node 10, Type 0, BuildingBlock: GALJAG_clean_sbu_0, # of connection points: 4
#     Node 11, Type 0, BuildingBlock: GALJAG_clean_sbu_0, # of connection points: 4
#     Node 12, Type 0, BuildingBlock: GALJAG_clean_sbu_0, # of connection points: 4
#     Node 13, Type 0, BuildingBlock: GALJAG_clean_sbu_0, # of connection points: 4
#     Node 14, Type 0, BuildingBlock: GALJAG_clean_sbu_0, # of connection points: 4
#     Node 15, Type 0, BuildingBlock: GALJAG_clean_sbu_0, # of connection points: 4
#     Node 16, Type 0, BuildingBlock: GALJAG_clean_sbu_0, # of connection points: 4
#     Node 17, Type 0, BuildingBlock: GALJAG_clean_sbu_0, # of connection points: 4
#     Node 18, Type 0, BuildingBlock: GALJAG_clean_sbu_0, # of connection points: 4
#     Node 19, Type 0, BuildingBlock: GALJAG_clean_sbu_0, # of connection points: 4
#     Node 20, Type 0, BuildingBlock: GALJAG_clean_sbu_0, # of connection points: 4
#     Node 21, Type 0, BuildingBlock: GALJAG_clean_sbu_0, # of connection points: 4
#     Node 22, Type 0, BuildingBlock: GALJAG_clean_sbu_0, # of connection points: 4
#     Node 23, Type 0, BuildingBlock: GALJAG_clean_sbu_0, # of connection points: 4
#     Node 24, Type 0, BuildingBlock: GALJAG_clean_sbu_0, # of connection points: 4
#     Node 25, Type 0, BuildingBlock: GALJAG_clean_sbu_0, # of connection points: 4
#     Node 26, Type 0, BuildingBlock: GALJAG_clean_sbu_0, # of connection points: 4
#     Node 27, Type 0, BuildingBlock: GALJAG_clean_sbu_0, # of connection points: 4
#     Node 28, Type 0, BuildingBlock: GALJAG_clean_sbu_0, # of connection points: 4
#     Node 29, Type 0, BuildingBlock: GALJAG_clean_sbu_0, # of connection points: 4
#     Node 30, Type 0, BuildingBlock: GALJAG_clean_sbu_0, # of connection points: 4
#     Node 31, Type 0, BuildingBlock: GALJAG_clean_sbu_0, # of connection points: 4
#     Node 32, Type 0, BuildingBlock: GALJAG_clean_sbu_0, # of connection points: 4
#     Node 33, Type 0, BuildingBlock: GALJAG_clean_sbu_0, # of connection points: 4
#     Node 34, Type 0, BuildingBlock: GALJAG_clean_sbu_0, # of connection points: 4
#     Node 35, Type 0, BuildingBlock: GALJAG_clean_sbu_0, # of connection points: 4
#     Edge 36, Type (0, 0), BuildingBlock: CIFDUS_clean_linker_0, # of connection points: 2
#     Edge 37, Type (0, 0), BuildingBlock: CIFDUS_clean_linker_0, # of connection points: 2
#     Edge 38, Type (0, 0), BuildingBlock: CIFDUS_clean_linker_0, # of connection points: 2
#     Edge 39, Type (0, 0), BuildingBlock: CIFDUS_clean_linker_0, # of connection points: 2
#     Edge 40, Type (0, 0), BuildingBlock: CIFDUS_clean_linker_0, # of connection points: 2
#     Edge 41, Type (0, 0), BuildingBlock: CIFDUS_clean_linker_0, # of connection points: 2
#     Edge 42, Type (0, 0), BuildingBlock: CIFDUS_clean_linker_0, # of connection points: 2
#     Edge 43, Type (0, 0), BuildingBlock: CIFDUS_clean_linker_0, # of connection points: 2
#     Edge 44, Type (0, 0), BuildingBlock: CIFDUS_clean_linker_0, # of connection points: 2
#     Edge 45, Type (0, 0), BuildingBlock: CIFDUS_clean_linker_0, # of connection points: 2
#     Edge 46, Type (0, 0), BuildingBlock: CIFDUS_clean_linker_0, # of connection points: 2
#     Edge 47, Type (0, 0), BuildingBlock: CIFDUS_clean_linker_0, # of connection points: 2
#     Edge 48, Type (0, 0), BuildingBlock: CIFDUS_clean_linker_0, # of connection points: 2
#     Edge 49, Type (0, 0), BuildingBlock: CIFDUS_clean_linker_0, # of connection points: 2
#     Edge 50, Type (0, 0), BuildingBlock: CIFDUS_clean_linker_0, # of connection points: 2
#     Edge 51, Type (0, 0), BuildingBlock: CIFDUS_clean_linker_0, # of connection points: 2
#     Edge 52, Type (0, 0), BuildingBlock: CIFDUS_clean_linker_0, # of connection points: 2
#     Edge 53, Type (0, 0), BuildingBlock: CIFDUS_clean_linker_0, # of connection points: 2
#     Edge 54, Type (0, 0), BuildingBlock: CIFDUS_clean_linker_0, # of connection points: 2
#     Edge 55, Type (0, 0), BuildingBlock: CIFDUS_clean_linker_0, # of connection points: 2
#     Edge 56, Type (0, 0), BuildingBlock: CIFDUS_clean_linker_0, # of connection points: 2
#     Edge 57, Type (0, 0), BuildingBlock: CIFDUS_clean_linker_0, # of connection points: 2
#     Edge 58, Type (0, 0), BuildingBlock: CIFDUS_clean_linker_0, # of connection points: 2
#     Edge 59, Type (0, 0), BuildingBlock: CIFDUS_clean_linker_0, # of connection points: 2
#     Edge 60, Type (0, 0), BuildingBlock: CIFDUS_clean_linker_0, # of connection points: 2
#     Edge 61, Type (0, 0), BuildingBlock: CIFDUS_clean_linker_0, # of connection points: 2
#     Edge 62, Type (0, 0), BuildingBlock: CIFDUS_clean_linker_0, # of connection points: 2
#     Edge 63, Type (0, 0), BuildingBlock: CIFDUS_clean_linker_0, # of connection points: 2
#     Edge 64, Type (0, 0), BuildingBlock: CIFDUS_clean_linker_0, # of connection points: 2
#     Edge 65, Type (0, 0), BuildingBlock: CIFDUS_clean_linker_0, # of connection points: 2
#     Edge 66, Type (0, 0), BuildingBlock: CIFDUS_clean_linker_0, # of connection points: 2
#     Edge 67, Type (0, 0), BuildingBlock: CIFDUS_clean_linker_0, # of connection points: 2
#     Edge 68, Type (0, 0), BuildingBlock: CIFDUS_clean_linker_0, # of connection points: 2
#     Edge 69, Type (0, 0), BuildingBlock: CIFDUS_clean_linker_0, # of connection points: 2
#     Edge 70, Type (0, 0), BuildingBlock: CIFDUS_clean_linker_0, # of connection points: 2
#     Edge 71, Type (0, 0), BuildingBlock: CIFDUS_clean_linker_0, # of connection points: 2
#     Edge 72, Type (0, 0), BuildingBlock: CIFDUS_clean_linker_0, # of connection points: 2
#     Edge 73, Type (0, 0), BuildingBlock: CIFDUS_clean_linker_0, # of connection points: 2
#     Edge 74, Type (0, 0), BuildingBlock: CIFDUS_clean_linker_0, # of connection points: 2
#     Edge 75, Type (0, 0), BuildingBlock: CIFDUS_clean_linker_0, # of connection points: 2
#     Edge 76, Type (0, 0), BuildingBlock: CIFDUS_clean_linker_0, # of connection points: 2
#     Edge 77, Type (0, 0), BuildingBlock: CIFDUS_clean_linker_0, # of connection points: 2
#     Edge 78, Type (0, 0), BuildingBlock: CIFDUS_clean_linker_0, # of connection points: 2
#     Edge 79, Type (0, 0), BuildingBlock: CIFDUS_clean_linker_0, # of connection points: 2
#     Edge 80, Type (0, 0), BuildingBlock: CIFDUS_clean_linker_0, # of connection points: 2
#     Edge 81, Type (0, 0), BuildingBlock: CIFDUS_clean_linker_0, # of connection points: 2
#     Edge 82, Type (0, 0), BuildingBlock: CIFDUS_clean_linker_0, # of connection points: 2
#     Edge 83, Type (0, 0), BuildingBlock: CIFDUS_clean_linker_0, # of connection points: 2
#     Edge 84, Type (0, 0), BuildingBlock: CIFDUS_clean_linker_0, # of connection points: 2
#     Edge 85, Type (0, 0), BuildingBlock: CIFDUS_clean_linker_0, # of connection points: 2
#     Edge 86, Type (0, 0), BuildingBlock: CIFDUS_clean_linker_0, # of connection points: 2
#     Edge 87, Type (0, 0), BuildingBlock: CIFDUS_clean_linker_0, # of connection points: 2
#     Edge 88, Type (0, 0), BuildingBlock: CIFDUS_clean_linker_0, # of connection points: 2
#     Edge 89, Type (0, 0), BuildingBlock: CIFDUS_clean_linker_0, # of connection points: 2
#     Edge 90, Type (0, 0), BuildingBlock: CIFDUS_clean_linker_0, # of connection points: 2
#     Edge 91, Type (0, 0), BuildingBlock: CIFDUS_clean_linker_0, # of connection points: 2
#     Edge 92, Type (0, 0), BuildingBlock: CIFDUS_clean_linker_0, # of connection points: 2
#     Edge 93, Type (0, 0), BuildingBlock: CIFDUS_clean_linker_0, # of connection points: 2
#     Edge 94, Type (0, 0), BuildingBlock: CIFDUS_clean_linker_0, # of connection points: 2
#     Edge 95, Type (0, 0), BuildingBlock: CIFDUS_clean_linker_0, # of connection points: 2
#     Edge 96, Type (0, 0), BuildingBlock: CIFDUS_clean_linker_0, # of connection points: 2
#     Edge 97, Type (0, 0), BuildingBlock: CIFDUS_clean_linker_0, # of connection points: 2
#     Edge 98, Type (0, 0), BuildingBlock: CIFDUS_clean_linker_0, # of connection points: 2
#     Edge 99, Type (0, 0), BuildingBlock: CIFDUS_clean_linker_0, # of connection points: 2
#     Edge 100, Type (0, 0), BuildingBlock: CIFDUS_clean_linker_0, # of connection points: 2
#     Edge 101, Type (0, 0), BuildingBlock: CIFDUS_clean_linker_0, # of connection points: 2
#     Edge 102, Type (0, 0), BuildingBlock: CIFDUS_clean_linker_0, # of connection points: 2
#     Edge 103, Type (0, 0), BuildingBlock: CIFDUS_clean_linker_0, # of connection points: 2
#     Edge 104, Type (0, 0), BuildingBlock: CIFDUS_clean_linker_0, # of connection points: 2
#     Edge 105, Type (0, 0), BuildingBlock: CIFDUS_clean_linker_0, # of connection points: 2
#     Edge 106, Type (0, 0), BuildingBlock: CIFDUS_clean_linker_0, # of connection points: 2
#     Edge 107, Type (0, 0), BuildingBlock: CIFDUS_clean_linker_0, # of connection points: 2
# Relax obj value: 0.085
# Max RMSD: 0.314
# Mean RMSD: 0.220
data_MOF--net-uml--node1-GALJAG_clean_sbu_0--edge1-CIFDUS_clean_linker_0
_symmetry_space_group_name_H-M    P1
_symmetry_Int_Tables_number       1
_symmetry_cell_setting            triclinic
loop_
_symmetry_equiv_pos_as_xyz
'x, y, z'
_cell_length_a     82.646384
_cell_length_b     82.511003
_cell_length_c     25.15573
_cell_angle_alpha  90.047319
_cell_angle_beta   90.072526
_cell_angle_gamma 116.37158
loop_
_atom_site_label
_atom_site_type_symbol
_atom_site_fract_x
_atom_site_fract_y
_atom_site_fract_z
_atom_type_partial_charge
In0 In 0.34544 0.0869 0.15329 0.0
O1 O 0.32661 0.07031 0.22019 0.0
O2 O 0.35282 0.09099 0.24047 0.0
C3 C 0.33169 0.07368 0.0574 0.0
C4 C 0.33968 0.11645 0.15134 0.0
C5 C 0.37239 0.07757 0.14254 0.0
O6 O 0.32293 0.06682 0.09964 0.0
O7 O 0.34696 0.08692 0.06423 0.0
O8 O 0.37496 0.09375 0.13503 0.0
O9 O 0.35661 0.06668 0.15696 0.0
C10 C 0.33788 0.07878 0.25651 0.0
O11 O 0.35554 0.11769 0.15203 0.0
O12 O 0.32717 0.10052 0.15171 0.0
In13 In 0.88747 0.25239 0.17131 0.0
O14 O 0.85742 0.23173 0.17917 0.0
O15 O 0.87639 0.22218 0.15676 0.0
C16 C 0.88739 0.28491 0.16156 0.0
C17 C 0.90012 0.25261 0.27007 0.0
C18 C 0.90561 0.25624 0.07971 0.0
O19 O 0.87483 0.27061 0.14287 0.0
O20 O 0.89929 0.2826 0.18742 0.0
O21 O 0.91141 0.25309 0.12313 0.0
O22 O 0.89088 0.25722 0.08291 0.0
C23 C 0.86018 0.21828 0.16701 0.0
O24 O 0.90801 0.25083 0.22903 0.0
O25 O 0.88603 0.25456 0.26123 0.0
In26 In 0.74229 0.62266 0.15028 0.0
O27 O 0.76667 0.61685 0.1656 0.0
O28 O 0.77081 0.64414 0.15365 0.0
C29 C 0.70893 0.5972 0.13176 0.0
C30 C 0.73684 0.63364 0.24518 0.0
C31 C 0.74457 0.63008 0.04742 0.0
O32 O 0.72139 0.59274 0.14387 0.0
O33 O 0.71332 0.61396 0.1322 0.0
O34 O 0.74273 0.64047 0.0817 0.0
O35 O 0.74589 0.61642 0.0657 0.0
C36 C 0.77781 0.63355 0.1625 0.0
O37 O 0.7388 0.64299 0.20352 0.0
O38 O 0.73726 0.61861 0.23837 0.0
In39 In 0.09694 0.34073 0.31996 0.0
O40 O 0.12776 0.35182 0.32246 0.0
O41 O 0.11132 0.32324 0.32494 0.0
C42 C 0.08553 0.3662 0.32629 0.0
C43 C 0.08841 0.33209 0.21774 0.0
C44 C 0.08471 0.3292 0.41777 0.0
O45 O 0.102 0.36997 0.33434 0.0
O46 O 0.07542 0.35 0.31316 0.0
O47 O 0.07854 0.31877 0.37792 0.0
O48 O 0.09683 0.34487 0.40775 0.0
C49 C 0.12702 0.33615 0.32548 0.0
O50 O 0.08015 0.32112 0.2549 0.0
O51 O 0.10085 0.34713 0.23251 0.0
In52 In 0.61359 0.74151 0.33875 0.0
O53 O 0.6322 0.73546 0.28456 0.0
O54 O 0.61134 0.74057 0.24884 0.0
C55 C 0.61968 0.73667 0.44048 0.0
C56 C 0.62982 0.77797 0.34081 0.0
C57 C 0.58237 0.71138 0.34552 0.0
O58 O 0.62941 0.7352 0.4035 0.0
O59 O 0.60743 0.74087 0.42576 0.0
O60 O 0.58295 0.72691 0.35227 0.0
O61 O 0.59709 0.71146 0.3316 0.0
C62 C 0.62459 0.73693 0.24222 0.0
O63 O 0.61315 0.76937 0.32891 0.0
O64 O 0.63755 0.76811 0.35062 0.0
In65 In 0.24855 0.8953 0.34496 0.0
O66 O 0.24734 0.91664 0.28991 0.0
O67 O 0.25359 0.89655 0.25548 0.0
C68 C 0.24597 0.90747 0.44177 0.0
C69 C 0.21525 0.86714 0.3406 0.0
C70 C 0.28207 0.89923 0.36451 0.0
O71 O 0.24564 0.91584 0.39994 0.0
O72 O 0.24722 0.89293 0.43445 0.0
O73 O 0.26952 0.88398 0.35141 0.0
O74 O 0.27783 0.91215 0.36452 0.0
C75 C 0.25071 0.91019 0.2482 0.0
O76 O 0.22937 0.86477 0.33897 0.0
O77 O 0.21813 0.88342 0.34404 0.0
In78 In 0.70026 0.92457 0.8408 0.0
O79 O 0.71809 0.93708 0.76713 0.0
O80 O 0.68965 0.92796 0.76095 0.0
C81 C 0.72052 0.92867 0.92825 0.0
C82 C 0.6932 0.89009 0.82428 0.0
C83 C 0.68111 0.94067 0.88235 0.0
O84 O 0.72583 0.94054 0.89182 0.0
O85 O 0.70557 0.91523 0.91958 0.0
O86 O 0.67374 0.92397 0.87071 0.0
O87 O 0.69774 0.949 0.87152 0.0
C88 C 0.70473 0.93463 0.73769 0.0
O89 O 0.68108 0.89441 0.84027 0.0
O90 O 0.70843 0.9032 0.81534 0.0
In91 In 0.10714 0.74782 0.84912 0.0
O92 O 0.13673 0.76909 0.84286 0.0
O93 O 0.11658 0.7782 0.85289 0.0
C94 C 0.1085 0.71637 0.86847 0.0
C95 C 0.0964 0.7446 0.74624 0.0
C96 C 0.09098 0.7467 0.94334 0.0
O97 O 0.12174 0.73154 0.87783 0.0
O98 O 0.09498 0.71711 0.84721 0.0
O99 O 0.08352 0.74726 0.89973 0.0
O100 O 0.10622 0.74688 0.93876 0.0
C101 C 0.13312 0.78241 0.84749 0.0
O102 O 0.08728 0.74688 0.78345 0.0
O103 O 0.11049 0.74356 0.76124 0.0
In104 In 0.25652 0.3649 0.85983 0.0
O105 O 0.22885 0.36511 0.84631 0.0
O106 O 0.22944 0.34059 0.86895 0.0
C107 C 0.28229 0.39897 0.87505 0.0
C108 C 0.26371 0.35621 0.76333 0.0
C109 C 0.26472 0.35524 0.95365 0.0
O110 O 0.26621 0.3939 0.8908 0.0
O111 O 0.28475 0.38738 0.848 0.0
O112 O 0.26591 0.34768 0.91103 0.0
O113 O 0.25899 0.36697 0.94852 0.0
C114 C 0.21992 0.34841 0.85657 0.0
O115 O 0.26445 0.34786 0.80472 0.0
O116 O 0.25956 0.36907 0.77084 0.0
In117 In 0.90765 0.65527 0.66758 0.0
O118 O 0.87678 0.64105 0.67316 0.0
O119 O 0.88966 0.66905 0.65407 0.0
C120 C 0.91765 0.62858 0.66126 0.0
C121 C 0.91787 0.6684 0.76592 0.0
C122 C 0.92237 0.66908 0.57335 0.0
O123 O 0.9019 0.62611 0.64858 0.0
O124 O 0.92777 0.64408 0.67955 0.0
O125 O 0.92739 0.67838 0.61553 0.0
O126 O 0.91003 0.65326 0.5792 0.0
C127 C 0.87505 0.65515 0.66214 0.0
O128 O 0.92402 0.67808 0.72498 0.0
O129 O 0.90677 0.65215 0.75704 0.0
In130 In 0.37553 0.25558 0.64681 0.0
O131 O 0.38116 0.23061 0.64881 0.0
O132 O 0.3539 0.22691 0.65097 0.0
C133 C 0.40286 0.28775 0.62526 0.0
C134 C 0.37044 0.26107 0.74877 0.0
C135 C 0.36207 0.25617 0.55118 0.0
O136 O 0.40538 0.27363 0.62696 0.0
O137 O 0.38712 0.28549 0.63674 0.0
O138 O 0.35409 0.25726 0.59318 0.0
O139 O 0.37624 0.25419 0.55811 0.0
C140 C 0.36446 0.21961 0.65081 0.0
O141 O 0.35911 0.25974 0.71296 0.0
O142 O 0.38437 0.25983 0.73278 0.0
In143 In 0.73933 0.12112 0.66388 0.0
O144 O 0.73465 0.09798 0.72013 0.0
O145 O 0.73561 0.12232 0.75279 0.0
C146 C 0.73281 0.10302 0.57194 0.0
C147 C 0.77554 0.14204 0.66523 0.0
C148 C 0.71093 0.12815 0.64548 0.0
O149 O 0.73332 0.0955 0.6153 0.0
O150 O 0.7361 0.11941 0.57539 0.0
O151 O 0.72677 0.13882 0.63079 0.0
O152 O 0.70989 0.11503 0.67342 0.0
C153 C 0.73383 0.1065 0.76105 0.0
O154 O 0.76459 0.1483 0.67785 0.0
O155 O 0.76817 0.12564 0.65176 0.0
In156 In 0.00739 0.41959 0.50094 0.0
O157 O 0.98676 0.39993 0.55819 0.0
O158 O 0.01194 0.41911 0.58992 0.0
C159 C 0.99375 0.40759 0.40447 0.0
C160 C 0.00205 0.44947 0.50166 0.0
C161 C 0.03573 0.41308 0.48119 0.0
O162 O 0.98527 0.39988 0.44618 0.0
O163 O 0.00859 0.42135 0.41192 0.0
O164 O 0.03789 0.42893 0.49177 0.0
O165 O 0.01971 0.40081 0.48454 0.0
C166 C 0.99649 0.40637 0.59891 0.0
O167 O 0.01776 0.45042 0.50295 0.0
O168 O 0.9894 0.43364 0.50104 0.0
In169 In 0.55601 0.58928 0.4959 0.0
O170 O 0.57888 0.59354 0.55458 0.0
O171 O 0.5553 0.59406 0.58561 0.0
C172 C 0.57765 0.59101 0.41292 0.0
C173 C 0.5287 0.55523 0.49971 0.0
C174 C 0.54657 0.61449 0.45714 0.0
O175 O 0.57687 0.60485 0.43135 0.0
O176 O 0.56869 0.57674 0.43876 0.0
O177 O 0.54091 0.59882 0.43741 0.0
O178 O 0.55603 0.61705 0.49867 0.0
C179 C 0.57058 0.5948 0.59523 0.0
O180 O 0.52589 0.56903 0.50434 0.0
O181 O 0.54501 0.55872 0.49341 0.0
In182 In 0.41351 0.96814 0.48762 0.0
O183 O 0.41209 0.9881 0.54623 0.0
O184 O 0.41406 0.96448 0.57575 0.0
C185 C 0.41209 0.97236 0.3843 0.0
C186 C 0.44946 0.9823 0.48598 0.0
C187 C 0.37914 0.94385 0.48725 0.0
O188 O 0.4117 0.98395 0.41708 0.0
O189 O 0.41307 0.95869 0.40418 0.0
O190 O 0.39163 0.93877 0.48497 0.0
O191 O 0.38426 0.96074 0.49107 0.0
C192 C 0.41315 0.97914 0.58609 0.0
O193 O 0.43996 0.96544 0.49501 0.0
O194 O 0.44064 0.9913 0.47817 0.0
In195 In 0.75552 0.67222 0.64725 0.0
O196 O 0.73873 0.64855 0.5935 0.0
O197 O 0.75434 0.67454 0.5583 0.0
C198 C 0.74963 0.663 0.74914 0.0
C199 C 0.78844 0.67364 0.64207 0.0
C200 C 0.73813 0.69252 0.65817 0.0
O201 O 0.74252 0.6513 0.71269 0.0
O202 O 0.75968 0.67888 0.73372 0.0
O203 O 0.75529 0.6996 0.65827 0.0
O204 O 0.73023 0.6757 0.64917 0.0
C205 C 0.74367 0.65798 0.5515 0.0
O206 O 0.78618 0.68774 0.6349 0.0
O207 O 0.77422 0.65935 0.65096 0.0
In208 In 0.29759 0.07529 0.65755 0.0
O209 O 0.29314 0.10092 0.65506 0.0
O210 O 0.32006 0.10392 0.65904 0.0
C211 C 0.26617 0.04603 0.67553 0.0
C212 C 0.30298 0.07029 0.5547 0.0
C213 C 0.3107 0.07059 0.75085 0.0
O214 O 0.26823 0.06185 0.68631 0.0
O215 O 0.27953 0.04523 0.65358 0.0
O216 O 0.31816 0.07001 0.70731 0.0
O217 O 0.29727 0.0739 0.74666 0.0
C218 C 0.30987 0.11161 0.65678 0.0
O219 O 0.31353 0.0701 0.59105 0.0
O220 O 0.28974 0.07279 0.57051 0.0
In221 In 0.91607 0.23381 0.67926 0.0
O222 O 0.8918 0.20534 0.67554 0.0
O223 O 0.88725 0.2281 0.69477 0.0
C224 C 0.9479 0.23231 0.6804 0.0
C225 C 0.91537 0.24499 0.57951 0.0
C226 C 0.92132 0.24982 0.77474 0.0
O227 O 0.93352 0.21902 0.6959 0.0
O228 O 0.94589 0.24564 0.6629 0.0
O229 O 0.92012 0.25777 0.73289 0.0
O230 O 0.92004 0.23415 0.76781 0.0
C231 C 0.88046 0.2113 0.68689 0.0
O232 O 0.91638 0.25474 0.61952 0.0
O233 O 0.91507 0.22987 0.59001 0.0
In234 In 0.32798 0.23999 0.1478 0.0
O235 O 0.34654 0.25714 0.08206 0.0
O236 O 0.32016 0.23673 0.06124 0.0
C237 C 0.34206 0.25206 0.24356 0.0
C238 C 0.33337 0.21027 0.14576 0.0
C239 C 0.3024 0.25088 0.16317 0.0
O240 O 0.35087 0.25917 0.20161 0.0
O241 O 0.32665 0.23905 0.23642 0.0
O242 O 0.29913 0.23446 0.17011 0.0
O243 O 0.31806 0.26115 0.14642 0.0
C244 C 0.33509 0.24912 0.04571 0.0
O245 O 0.31753 0.20915 0.14581 0.0
O246 O 0.34598 0.22615 0.14648 0.0
In247 In 0.74557 0.08812 0.16866 0.0
O248 O 0.72615 0.09118 0.10969 0.0
O249 O 0.74712 0.08525 0.07985 0.0
C250 C 0.73258 0.08734 0.266 0.0
C251 C 0.77319 0.12184 0.17201 0.0
C252 C 0.74063 0.05384 0.17789 0.0
O253 O 0.72456 0.0893 0.2253 0.0
O254 O 0.74703 0.08612 0.2571 0.0
O255 O 0.7563 0.06705 0.1767 0.0
O256 O 0.72777 0.058 0.17164 0.0
C257 C 0.73389 0.0885 0.0696 0.0
O258 O 0.77595 0.10805 0.165 0.0
O259 O 0.75682 0.11841 0.1772 0.0
In260 In 0.9217 0.6995 0.17376 0.0
O261 O 0.9259 0.68069 0.11559 0.0
O262 O 0.92298 0.70341 0.08465 0.0
C263 C 0.92795 0.68817 0.26762 0.0
C264 C 0.88551 0.68788 0.17428 0.0
C265 C 0.951 0.73152 0.18478 0.0
O266 O 0.92796 0.68001 0.22496 0.0
O267 O 0.92441 0.70144 0.26239 0.0
O268 O 0.93557 0.72916 0.20057 0.0
O269 O 0.95127 0.71821 0.1608 0.0
C270 C 0.92515 0.68944 0.07509 0.0
O271 O 0.89636 0.70431 0.16583 0.0
O272 O 0.89299 0.67776 0.18301 0.0
In273 In 0.6037 0.00599 0.00394 0.0
O274 O 0.61931 0.02714 0.06651 0.0
O275 O 0.60031 1.00078 0.09227 0.0
C276 C 0.61432 0.01815 0.90582 0.0
C277 C 0.5728 0.00924 -0.0018 0.0
C278 C 0.61771 0.98244 0.99577 0.0
O279 O 0.62122 0.02816 0.94608 0.0
O280 O 0.60231 0.00237 0.91571 0.0
O281 O 0.60073 0.97713 0.99487 0.0
O282 O 0.62709 0.9992 0.00378 0.0
C283 C 0.61153 0.01668 0.10504 0.0
O284 O 0.57261 0.99378 0.00145 0.0
O285 O 0.58831 0.02246 -0.0017 0.0
In286 In 0.03438 0.58634 0.97627 0.0
O287 O 0.04034 0.56191 0.99193 0.0
O288 O 0.01378 0.55704 0.96939 0.0
C289 C 0.06581 0.61609 0.9614 0.0
C290 C 0.02354 0.59158 0.0719 0.0
C291 C 0.02253 0.59052 0.88094 0.0
O292 O 0.0637 0.60054 0.94725 0.0
O293 O 0.05264 0.61628 0.98623 0.0
O294 O 0.01425 0.59084 0.92295 0.0
O295 O 0.03615 0.58767 0.88753 0.0
C296 C 0.02425 0.55036 0.98243 0.0
O297 O 0.01458 0.59057 0.03013 0.0
O298 O 0.03804 0.5902 0.06509 0.0
In299 In 0.41179 0.44335 0.98598 0.0
O300 O 0.41029 0.42136 0.04342 0.0
O301 O 0.40987 0.44504 0.07598 0.0
C302 C 0.40858 0.42654 0.89199 0.0
C303 C 0.44699 0.46796 0.98557 0.0
C304 C 0.38106 0.44671 0.97164 0.0
O305 O 0.40963 0.41924 0.93526 0.0
O306 O 0.40916 0.44199 0.89666 0.0
O307 O 0.39636 0.459 0.95838 0.0
O308 O 0.38146 0.43334 0.995 0.0
C309 C 0.4099 0.42996 0.08466 0.0
O310 O 0.43456 0.47236 0.99706 0.0
O311 O 0.44155 0.45152 0.97417 0.0
In312 In 0.6642 0.7515 0.84045 0.0
O313 O 0.63999 0.73517 0.89378 0.0
O314 O 0.66606 0.74805 0.92949 0.0
C315 C 0.6538 0.74509 0.73843 0.0
C316 C 0.66785 0.78539 0.8463 0.0
C317 C 0.68795 0.73826 0.82388 0.0
O318 O 0.64296 0.73674 0.77569 0.0
O319 O 0.66914 0.75677 0.75316 0.0
O320 O 0.69301 0.75448 0.83853 0.0
O321 O 0.67104 0.72857 0.8229 0.0
C322 C 0.64928 0.73878 0.93604 0.0
O323 O 0.6813 0.78193 0.84765 0.0
O324 O 0.65269 0.77176 0.84309 0.0
In325 In 0.22319 0.9231 0.84489 0.0
O326 O 0.19321 0.90279 0.85651 0.0
O327 O 0.21222 0.89279 0.83825 0.0
C328 C 0.22473 0.95625 0.83393 0.0
C329 C 0.23722 0.92398 0.94181 0.0
C330 C 0.23715 0.92309 0.74859 0.0
O331 O 0.21081 0.94204 0.82116 0.0
O332 O 0.23731 0.95362 0.85438 0.0
O333 O 0.24491 0.92183 0.7907 0.0
O334 O 0.22272 0.92445 0.75556 0.0
C335 C 0.19604 0.88912 0.84816 0.0
O336 O 0.24494 0.92266 0.89974 0.0
O337 O 0.2227 0.92531 0.93477 0.0
In338 In 0.07636 0.28966 0.81897 0.0
O339 O 0.10375 0.28912 0.82654 0.0
O340 O 0.10267 0.31464 0.82008 0.0
C341 C 0.04327 0.26365 0.80358 0.0
C342 C 0.07193 0.29504 0.92093 0.0
C343 C 0.07644 0.29586 0.71579 0.0
O344 O 0.05649 0.25977 0.80981 0.0
O345 O 0.04688 0.28024 0.80756 0.0
O346 O 0.07372 0.30582 0.74993 0.0
O347 O 0.07966 0.28327 0.73442 0.0
C348 C 0.11236 0.30636 0.82473 0.0
O349 O 0.07183 0.30585 0.88497 0.0
O350 O 0.07388 0.28143 0.90485 0.0
In351 In 0.44649 0.01493 0.98714 0.0
O352 O 0.42714 0.99245 0.93409 0.0
O353 O 0.44375 0.01814 0.89888 0.0
C354 C 0.43912 0.00546 0.08834 0.0
C355 C 0.47686 0.01076 0.98074 0.0
C356 C 0.43408 0.03929 0.00484 0.0
O357 O 0.43021 0.99485 0.05111 0.0
O358 O 0.45211 0.02014 0.07401 0.0
O359 O 0.45064 0.04442 0.99358 0.0
O360 O 0.42421 0.02243 0.00271 0.0
C361 C 0.4318 0.00202 0.89244 0.0
O362 O 0.47726 0.0263 0.97769 0.0
O363 O 0.46133 0.99779 0.98605 0.0
In364 In 0.9632 0.40629 0.00202 0.0
O365 O 0.98324 0.40236 0.94814 0.0
O366 O 0.96009 0.40321 0.91272 0.0
C367 C 0.97488 0.4015 0.09724 0.0
C368 C 0.97331 0.44232 0.99769 0.0
C369 C 0.93135 0.37671 0.01325 0.0
O370 O 0.98322 0.40151 0.05508 0.0
O371 O 0.96113 0.40415 0.09091 0.0
O372 O 0.93363 0.39214 0.02916 0.0
O373 O 0.94466 0.37652 0.98932 0.0
C374 C 0.97458 0.40179 0.90609 0.0
O375 O 0.95727 0.43079 0.98756 0.0
O376 O 0.98375 0.43559 0.01056 0.0
In377 In 0.58311 0.57135 0.00316 0.0
O378 O 0.56044 0.54233 0.99399 0.0
O379 O 0.55345 0.56346 0.01441 0.0
C380 C 0.61501 0.56998 0.00426 0.0
C381 C 0.58302 0.58461 0.90525 0.0
C382 C 0.58744 0.58468 0.1028 0.0
O383 O 0.60046 0.55625 0.01589 0.0
O384 O 0.61321 0.58381 0.9905 0.0
O385 O 0.58775 0.59424 0.06298 0.0
O386 O 0.58479 0.56879 0.09176 0.0
C387 C 0.54802 0.54689 0.00445 0.0
O388 O 0.58182 0.59263 0.94697 0.0
O389 O 0.58459 0.57026 0.9132 0.0
In390 In 0.99217 0.57353 0.4766 0.0
O391 O 0.98184 0.54273 0.47282 0.0
O392 O 0.01019 0.55952 0.47589 0.0
C393 C 0.96411 0.58029 0.49762 0.0
C394 C 0.00287 0.58712 0.37915 0.0
C395 C 0.00554 0.58517 0.57331 0.0
O396 O 0.96179 0.56435 0.48763 0.0
O397 O 0.98011 0.59249 0.49287 0.0
O398 O 0.01415 0.59306 0.53196 0.0
O399 O 0.99078 0.57137 0.56536 0.0
C400 C 0.99756 0.5437 0.47432 0.0
O401 O 0.01276 0.59331 0.4197 0.0
O402 O 0.9874 0.5744 0.38808 0.0
In403 In 0.43527 0.41548 0.49078 0.0
O404 O 0.41495 0.41824 0.43437 0.0
O405 O 0.43665 0.4144 0.40056 0.0
C406 C 0.41962 0.41319 0.58617 0.0
C407 C 0.46303 0.44915 0.49399 0.0
C408 C 0.43339 0.38204 0.49387 0.0
O409 O 0.4127 0.41552 0.54373 0.0
O410 O 0.43415 0.41193 0.58011 0.0
O411 O 0.44744 0.39583 0.50853 0.0
O412 O 0.42083 0.38531 0.47627 0.0
C413 C 0.42278 0.41682 0.39268 0.0
O414 O 0.46554 0.43537 0.48442 0.0
O415 O 0.44682 0.44577 0.50222 0.0
In416 In 0.59368 0.03957 0.50955 0.0
O417 O 0.56575 0.03868 0.49408 0.0
O418 O 0.56674 0.01505 0.52332 0.0
C419 C 0.61647 0.07465 0.52758 0.0
C420 C 0.60182 0.03157 0.41272 0.0
C421 C 0.60419 0.03049 0.60111 0.0
O422 O 0.60015 0.06767 0.54243 0.0
O423 O 0.62069 0.06435 0.49984 0.0
O424 O 0.6052 0.02335 0.55752 0.0
O425 O 0.59745 0.04146 0.59821 0.0
C426 C 0.55702 0.02236 0.50829 0.0
O427 O 0.60198 0.02286 0.45387 0.0
O428 O 0.59771 0.04443 0.4205 0.0
In429 In 0.25151 0.32753 0.35657 0.0
O430 O 0.27047 0.34837 0.41506 0.0
O431 O 0.25191 0.32264 0.44514 0.0
C432 C 0.26389 0.34078 0.26028 0.0
C433 C 0.22163 0.33285 0.35626 0.0
C434 C 0.25784 0.299 0.33708 0.0
O435 O 0.2715 0.34947 0.30194 0.0
O436 O 0.25006 0.32602 0.26772 0.0
O437 O 0.24196 0.29706 0.34535 0.0
O438 O 0.27022 0.31491 0.34265 0.0
C439 C 0.26415 0.33831 0.45513 0.0
O440 O 0.22074 0.31716 0.35926 0.0
O441 O 0.23741 0.34552 0.35429 0.0
In442 In 0.7044 0.92112 0.31905 0.0
O443 O 0.69775 0.92787 0.40071 0.0
O444 O 0.72208 0.92499 0.39305 0.0
C445 C 0.71963 0.91743 0.22907 0.0
C446 C 0.67975 0.88623 0.327 0.0
C447 C 0.70758 0.95335 0.28652 0.0
O448 O 0.70318 0.9139 0.23292 0.0
O449 O 0.72879 0.92241 0.27168 0.0
O450 O 0.72082 0.95052 0.30007 0.0
O451 O 0.69218 0.93986 0.29143 0.0
C452 C 0.71157 0.9282 0.42335 0.0
O453 O 0.69642 0.89176 0.33622 0.0
O454 O 0.67519 0.89851 0.31416 0.0
In455 In 0.07603 0.77245 0.34536 0.0
O456 O 0.09585 0.80269 0.34711 0.0
O457 O 0.10648 0.78352 0.34186 0.0
C458 C 0.04279 0.77022 0.33307 0.0
C459 C 0.07495 0.76289 0.44865 0.0
C460 C 0.07574 0.75718 0.25006 0.0
O461 O 0.05687 0.78448 0.32177 0.0
O462 O 0.04555 0.75748 0.35199 0.0
O463 O 0.07748 0.75009 0.29309 0.0
O464 O 0.07412 0.77156 0.25575 0.0
C465 C 0.10973 0.79994 0.34411 0.0
O466 O 0.07692 0.75354 0.41145 0.0
O467 O 0.07329 0.77667 0.43344 0.0
H468 H 0.33476 0.0769 0.50695 0.0
H469 H 0.27835 0.06025 0.47438 0.0
H470 H 0.28381 0.0596 0.37906 0.0
H471 H 0.30504 0.06578 0.30438 0.0
H472 H 0.36183 0.08507 0.33698 0.0
H473 H 0.35586 0.08256 0.43252 0.0
C474 C 0.32365 0.07292 0.47896 0.0
C475 C 0.30619 0.0686 0.49759 0.0
C476 C 0.32699 0.07313 0.4241 0.0
C477 C 0.29194 0.06368 0.46092 0.0
C478 C 0.29505 0.06331 0.40642 0.0
C479 C 0.31603 0.06917 0.33249 0.0
C480 C 0.33382 0.07553 0.3138 0.0
C481 C 0.31257 0.06829 0.38745 0.0
C482 C 0.34801 0.08016 0.35054 0.0
C483 C 0.34462 0.07875 0.40515 0.0
H484 H 0.925 0.23392 0.48878 0.0
H485 H 0.90127 0.26759 0.54754 0.0
H486 H 0.8948 0.27339 0.45641 0.0
H487 H 0.89417 0.26721 0.36023 0.0
H488 H 0.91972 0.23518 0.30142 0.0
H489 H 0.92733 0.23048 0.39227 0.0
C490 C 0.91857 0.24266 0.48148 0.0
C491 C 0.91344 0.25018 0.52461 0.0
C492 C 0.91516 0.24614 0.42907 0.0
C493 C 0.90534 0.26167 0.51484 0.0
C494 C 0.90157 0.26491 0.46281 0.0
C495 C 0.90153 0.25933 0.36742 0.0
C496 C 0.90622 0.25138 0.32443 0.0
C497 C 0.90614 0.25697 0.41967 0.0
C498 C 0.91597 0.24142 0.33399 0.0
C499 C 0.92026 0.23867 0.38589 0.0
H500 H 0.7464 0.67597 0.45959 0.0
H501 H 0.72938 0.62238 0.52354 0.0
H502 H 0.72438 0.6098 0.43357 0.0
H503 H 0.72748 0.61451 0.33691 0.0
H504 H 0.7441 0.66809 0.2732 0.0
H505 H 0.74644 0.68021 0.36304 0.0
C506 C 0.74142 0.66151 0.45379 0.0
C507 C 0.73847 0.65012 0.49792 0.0
C508 C 0.73859 0.65441 0.4021 0.0
C509 C 0.73179 0.6314 0.49006 0.0
C510 C 0.729 0.62422 0.43868 0.0
C511 C 0.73141 0.6288 0.34273 0.0
C512 C 0.73582 0.64043 0.29866 0.0
C513 C 0.73275 0.63566 0.39443 0.0
C514 C 0.74068 0.65887 0.30658 0.0
C515 C 0.7421 0.66582 0.35791 0.0
H516 H 0.08149 0.32753 0.96813 0.0
H517 H 0.06146 0.27067 0.00187 0.0
H518 H 0.06326 0.2769 0.09737 0.0
H519 H 0.0726 0.29883 0.17139 0.0
H520 H 0.09514 0.35586 0.13677 0.0
H521 H 0.09024 0.34932 0.04181 0.0
C522 C 0.07726 0.3165 0.99645 0.0
C523 C 0.07128 0.29868 0.97815 0.0
C524 C 0.07894 0.32026 0.05121 0.0
C525 C 0.06612 0.28452 0.01516 0.0
C526 C 0.06718 0.28807 0.06972 0.0
C527 C 0.07623 0.30977 0.14299 0.0
C528 C 0.08421 0.32778 0.16091 0.0
C529 C 0.07388 0.30593 0.08824 0.0
C530 C 0.08906 0.34188 0.1238 0.0
C531 C 0.08625 0.33816 0.06952 0.0
H532 H 0.60612 0.72996 0.14889 0.0
H533 H 0.6579 0.74038 0.21585 0.0
H534 H 0.66984 0.74057 0.12683 0.0
H535 H 0.66616 0.74001 0.02965 0.0
H536 H 0.6141 0.7285 0.96267 0.0
H537 H 0.60158 0.72622 0.05193 0.0
C538 C 0.61998 0.73214 0.14393 0.0
C539 C 0.63119 0.73537 0.18875 0.0
C540 C 0.62668 0.73202 0.09265 0.0
C541 C 0.64903 0.73791 0.18192 0.0
C542 C 0.65587 0.73806 0.13103 0.0
C543 C 0.65201 0.73675 0.03464 0.0
C544 C 0.64111 0.73458 0.98965 0.0
C545 C 0.64491 0.73545 0.08607 0.0
C546 C 0.62277 0.73022 0.99667 0.0
C547 C 0.61563 0.72903 0.04771 0.0
H548 H 0.26357 0.90363 0.15534 0.0
H549 H 0.23458 0.93142 0.22101 0.0
H550 H 0.22863 0.93904 0.13166 0.0
H551 H 0.22952 0.93563 0.03474 0.0
H552 H 0.25956 0.90902 0.96873 0.0
H553 H 0.26739 0.90324 0.05822 0.0
C554 C 0.25614 0.91154 0.15001 0.0
C555 C 0.24936 0.9168 0.1946 0.0
C556 C 0.25287 0.91599 0.09849 0.0
C557 C 0.23993 0.92721 0.18727 0.0
C558 C 0.23644 0.9315 0.13619 0.0
C559 C 0.23794 0.92875 0.04004 0.0
C560 C 0.2438 0.92258 0.99539 0.0
C561 C 0.24251 0.92563 0.09151 0.0
C562 C 0.25489 0.91388 0.0026 0.0
C563 C 0.2593 0.9105 0.05373 0.0
H564 H 0.73019 0.934 0.6693 0.0
H565 H 0.68133 0.94068 0.67529 0.0
H566 H 0.67988 0.94046 0.57847 0.0
H567 H 0.6909 0.93585 0.49258 0.0
H568 H 0.73894 0.92777 0.4846 0.0
H569 H 0.74234 0.93108 0.58142 0.0
C570 C 0.71947 0.93578 0.64925 0.0
C571 C 0.7059 0.93739 0.67941 0.0
C572 C 0.71842 0.93513 0.59322 0.0
C573 C 0.69192 0.93941 0.65298 0.0
C574 C 0.69104 0.93921 0.59759 0.0
C575 C 0.70221 0.93494 0.51188 0.0
C576 C 0.71458 0.93144 0.48139 0.0
C577 C 0.70395 0.93664 0.56738 0.0
C578 C 0.72919 0.93039 0.50714 0.0
C579 C 0.73113 0.93227 0.56253 0.0
H580 H 0.0903 0.74321 0.49536 0.0
H581 H 0.06074 0.77376 0.53065 0.0
H582 H 0.06326 0.7694 0.62581 0.0
H583 H 0.0756 0.75863 0.69958 0.0
H584 H 0.10728 0.73022 0.66443 0.0
H585 H 0.10213 0.73188 0.56928 0.0
C586 C 0.08422 0.74869 0.52393 0.0
C587 C 0.07531 0.75875 0.50592 0.0
C588 C 0.08619 0.74659 0.57884 0.0
C589 C 0.06771 0.766 0.54346 0.0
C590 C 0.06915 0.76352 0.59794 0.0
C591 C 0.08116 0.75259 0.67108 0.0
C592 C 0.09175 0.74426 0.68909 0.0
C593 C 0.07861 0.75409 0.6162 0.0
C594 C 0.09909 0.73673 0.65161 0.0
C595 C 0.09617 0.73769 0.59714 0.0
H596 H 0.26001 0.31843 0.54406 0.0
H597 H 0.27848 0.37324 0.48876 0.0
H598 H 0.28109 0.38396 0.58045 0.0
H599 H 0.275 0.37719 0.67565 0.0
H600 H 0.25789 0.32262 0.73131 0.0
H601 H 0.25799 0.31232 0.64015 0.0
C602 C 0.26489 0.33275 0.55225 0.0
C603 C 0.26884 0.34501 0.50998 0.0
C604 C 0.26644 0.3388 0.60497 0.0
C605 C 0.27536 0.36356 0.52082 0.0
C606 C 0.27674 0.36967 0.57317 0.0
C607 C 0.27151 0.36309 0.66772 0.0
C608 C 0.26619 0.3506 0.70968 0.0
C609 C 0.27182 0.35734 0.61543 0.0
C610 C 0.26198 0.33244 0.69939 0.0
C611 C 0.26197 0.32654 0.64735 0.0
H612 H 0.91515 0.64949 0.85585 0.0
H613 H 0.93082 0.70353 0.79743 0.0
H614 H 0.93534 0.71508 0.88863 0.0
H615 H 0.93273 0.70935 0.98496 0.0
H616 H 0.91831 0.65551 0.0431 0.0
H617 H 0.91555 0.64432 0.95189 0.0
C618 C 0.9197 0.66382 0.86318 0.0
C619 C 0.92246 0.67564 0.82029 0.0
C620 C 0.92242 0.67035 0.91552 0.0
C621 C 0.9286 0.69419 0.83 0.0
C622 C 0.93111 0.70078 0.88206 0.0
C623 C 0.92915 0.69521 0.97755 0.0
C624 C 0.92553 0.68321 0.02045 0.0
C625 C 0.92774 0.68892 0.92511 0.0
C626 C 0.92113 0.66497 0.01057 0.0
C627 C 0.91948 0.65856 0.9585 0.0
H628 H 0.36797 0.26427 -0.00146 0.0
H629 H 0.31093 0.24233 0.96554 0.0
H630 H 0.31703 0.24591 0.87016 0.0
H631 H 0.33837 0.25293 0.79614 0.0
H632 H 0.3952 0.27241 0.82886 0.0
H633 H 0.38947 0.27228 0.92424 0.0
C634 C 0.35693 0.26054 0.9704 0.0
C635 C 0.33905 0.25305 0.9888 0.0
C636 C 0.36051 0.26207 0.9156 0.0
C637 C 0.32481 0.24805 0.95211 0.0
C638 C 0.32829 0.25008 0.89763 0.0
C639 C 0.34951 0.25738 0.82416 0.0
C640 C 0.36716 0.26266 0.80568 0.0
C641 C 0.34605 0.25672 0.8789 0.0
C642 C 0.38148 0.26822 0.84231 0.0
C643 C 0.37821 0.26814 0.89679 0.0
H644 H 0.72087 0.11588 0.84852 0.0
H645 H 0.74302 0.08035 0.7939 0.0
H646 H 0.74367 0.07044 0.8851 0.0
H647 H 0.7405 0.07404 0.98089 0.0
H648 H 0.71714 0.10852 0.03554 0.0
H649 H 0.7141 0.11651 0.94364 0.0
C650 C 0.72565 0.10583 0.85668 0.0
C651 C 0.73213 0.09902 0.81496 0.0
C652 C 0.72578 0.10006 0.90905 0.0
C653 C 0.73802 0.0858 0.82559 0.0
C654 C 0.73845 0.08019 0.87767 0.0
C655 C 0.7345 0.08309 0.97251 0.0
C656 C 0.72923 0.09086 0.01462 0.0
C657 C 0.73274 0.08753 0.91977 0.0
C658 C 0.72127 0.10238 0.00356 0.0
C659 C 0.71965 0.10704 0.95113 0.0
H660 H 0.95502 0.38942 0.81612 0.0
H661 H 0.00947 0.41215 0.87692 0.0
H662 H 0.0212 0.41436 0.78657 0.0
H663 H 0.01599 0.41242 0.68985 0.0
H664 H 0.9614 0.38854 0.62959 0.0
H665 H 0.94966 0.38394 0.72022 0.0
C666 C 0.96943 0.39466 0.80951 0.0
C667 C 0.98141 0.40084 0.85274 0.0
C668 C 0.97603 0.39572 0.75765 0.0
C669 C 1.00003 0.40735 0.84404 0.0
C670 C 0.00673 0.40868 0.79245 0.0
C671 C 0.00153 0.40597 0.69669 0.0
C672 C 0.98957 0.40102 0.65328 0.0
C673 C 0.99487 0.4033 0.74888 0.0
C674 C 0.97087 0.39249 0.66247 0.0
C675 C 0.96414 0.38994 0.71424 0.0
H676 H 0.56047 0.60584 0.68615 0.0
H677 H 0.59519 0.58334 0.62735 0.0
H678 H 0.60281 0.57894 0.71835 0.0
H679 H 0.59761 0.57914 0.81469 0.0
H680 H 0.5645 0.60333 0.87421 0.0
H681 H 0.55836 0.60958 0.78312 0.0
C682 C 0.5699 0.60021 0.69336 0.0
C683 C 0.57713 0.59477 0.65009 0.0
C684 C 0.57441 0.59793 0.74592 0.0
C685 C 0.58946 0.58766 0.65993 0.0
C686 C 0.59375 0.58505 0.71199 0.0
C687 C 0.58924 0.58598 0.80764 0.0
C688 C 0.58136 0.59061 0.85095 0.0
C689 C 0.586 0.58976 0.75527 0.0
C690 C 0.57072 0.59966 0.84145 0.0
C691 C 0.56713 0.60315 0.78938 0.0
H692 H 0.43261 0.02087 0.80371 0.0
H693 H 0.41529 0.96663 0.8628 0.0
H694 H 0.40682 0.95454 0.77286 0.0
H695 H 0.40671 0.95969 0.67674 0.0
H696 H 0.42308 0.01381 0.61791 0.0
H697 H 0.42938 0.02568 0.70863 0.0
C698 C 0.42682 0.00639 0.79686 0.0
C699 C 0.42477 0.99465 0.83946 0.0
C700 C 0.42189 0.99955 0.74522 0.0
C701 C 0.41702 0.97592 0.83044 0.0
C702 C 0.41225 0.96901 0.77907 0.0
C703 C 0.41148 0.97406 0.68393 0.0
C704 C 0.41465 0.98591 0.64091 0.0
C705 C 0.41498 0.98074 0.73607 0.0
C706 C 0.42058 0.00445 0.65055 0.0
C707 C 0.42426 0.01124 0.70233 0.0
H708 H 0.61386 0.05323 0.32623 0.0
H709 H 0.59728 0.99849 0.37959 0.0
H710 H 0.59993 0.98916 0.28901 0.0
H711 H 0.60479 0.99617 0.19368 0.0
H712 H 0.62292 0.05119 0.14076 0.0
H713 H 0.62212 0.06091 0.23224 0.0
C714 C 0.61098 0.0393 0.31795 0.0
C715 C 0.60517 0.02649 0.35915 0.0
C716 C 0.61282 0.03412 0.26598 0.0
C717 C 0.60174 0.00856 0.34834 0.0
C718 C 0.6032 0.00321 0.2966 0.0
C719 C 0.60879 0.01033 0.20237 0.0
C720 C 0.61375 0.02293 0.16069 0.0
C721 C 0.60842 0.01581 0.25499 0.0
C722 C 0.6191 0.04126 0.17233 0.0
C723 C 0.61852 0.0468 0.22453 0.0
H724 H 0.98306 0.58153 0.28916 0.0
H725 H 0.03786 0.60508 0.34766 0.0
H726 H 0.04927 0.60984 0.25663 0.0
H727 H 0.04351 0.60429 0.16094 0.0
H728 H 0.98882 0.58167 0.10202 0.0
H729 H 0.97747 0.57971 0.19274 0.0
C730 C 0.99749 0.58795 0.28186 0.0
C731 C 0.00961 0.59273 0.32482 0.0
C732 C 0.00395 0.59067 0.22949 0.0
C733 C 0.02828 0.60125 0.31509 0.0
C734 C 0.03481 0.60389 0.2631 0.0
C735 C 0.02913 0.59915 0.16804 0.0
C736 C 0.01697 0.59288 0.12528 0.0
C737 C 0.02275 0.59817 0.2201 0.0
C738 C 0.9984 0.58651 0.13456 0.0
C739 C 0.99191 0.58532 0.18636 0.0
H740 H 0.39984 0.43985 0.17725 0.0
H741 H 0.42293 0.40624 0.11357 0.0
H742 H 0.42849 0.39869 0.20355 0.0
H743 H 0.42865 0.40331 0.30036 0.0
H744 H 0.40388 0.43536 0.36437 0.0
H745 H 0.39699 0.44177 0.27441 0.0
C746 C 0.40591 0.43072 0.18319 0.0
C747 C 0.41112 0.42374 0.13894 0.0
C748 C 0.40884 0.42624 0.23507 0.0
C749 C 0.41879 0.41177 0.14705 0.0
C750 C 0.42205 0.40752 0.19848 0.0
C751 C 0.4216 0.41156 0.29451 0.0
C752 C 0.41694 0.41901 0.33874 0.0
C753 C 0.41743 0.41493 0.24276 0.0
C754 C 0.4076 0.42948 0.33084 0.0
C755 C 0.40373 0.4332 0.27943 0.0
H756 H 0.30935 0.1745 0.14745 0.0
H757 H 0.36637 0.21064 0.14399 0.0
H758 H 0.37347 0.18498 0.14536 0.0
H759 H 0.36358 0.15218 0.14818 0.0
H760 H 0.30659 0.11599 0.15166 0.0
H761 H 0.29945 0.14164 0.1497 0.0
C762 C 0.3233 0.17673 0.14689 0.0
C763 C 0.33727 0.19444 0.14565 0.0
C764 C 0.32735 0.16188 0.14779 0.0
C765 C 0.35532 0.19712 0.14498 0.0
C766 C 0.35943 0.18246 0.14579 0.0
C767 C 0.34962 0.14993 0.14851 0.0
C768 C 0.33568 0.13222 0.15012 0.0
C769 C 0.34557 0.16477 0.14732 0.0
C770 C 0.31762 0.12951 0.15045 0.0
C771 C 0.31349 0.14417 0.14932 0.0
H772 H 0.80935 0.13408 0.15286 0.0
H773 H 0.7694 0.1521 0.19532 0.0
H774 H 0.79252 0.18337 0.19754 0.0
H775 H 0.82418 0.20587 0.1871 0.0
H776 H 0.86418 0.18804 0.14377 0.0
H777 H 0.8411 0.15668 0.14213 0.0
C778 C 0.80574 0.14486 0.1627 0.0
C779 C 0.78766 0.14071 0.17391 0.0
C780 C 0.81915 0.16295 0.16365 0.0
C781 C 0.78321 0.15487 0.18644 0.0
C782 C 0.79643 0.17281 0.18774 0.0
C783 C 0.82782 0.19512 0.17725 0.0
C784 C 0.84587 0.19934 0.16557 0.0
C785 C 0.81445 0.17704 0.1763 0.0
C786 C 0.85037 0.18521 0.15289 0.0
C787 C 0.83717 0.16723 0.15198 0.0
H788 H 0.86062 0.65292 0.18636 0.0
H789 H 0.86564 0.70654 0.15803 0.0
H790 H 0.83275 0.69432 0.15283 0.0
H791 H 0.80277 0.66846 0.15486 0.0
H792 H 0.7975 0.6147 0.182 0.0
H793 H 0.83043 0.62696 0.18919 0.0
C794 C 0.85453 0.66196 0.17922 0.0
C795 C 0.86559 0.68065 0.1726 0.0
C796 C 0.83562 0.65481 0.17597 0.0
C797 C 0.85746 0.69214 0.16328 0.0
C798 C 0.83866 0.68514 0.16026 0.0
C799 C 0.80878 0.65938 0.16246 0.0
C800 C 0.79767 0.64065 0.16786 0.0
C801 C 0.82764 0.66651 0.16631 0.0
C802 C 0.80572 0.62913 0.17767 0.0
C803 C 0.82454 0.63615 0.18176 0.0
H804 H 0.16228 0.361 0.33491 0.0
H805 H 0.12766 0.30356 0.32805 0.0
H806 H 0.1537 0.29737 0.33843 0.0
H807 H 0.18639 0.30818 0.349 0.0
H808 H 0.22112 0.36558 0.35549 0.0
H809 H 0.19505 0.37183 0.34609 0.0
C810 C 0.16047 0.34715 0.33556 0.0
C811 C 0.14309 0.33279 0.3306 0.0
C812 C 0.17553 0.34364 0.34173 0.0
C813 C 0.14093 0.31489 0.33172 0.0
C814 C 0.1558 0.31131 0.33774 0.0
C815 C 0.18821 0.32204 0.34863 0.0
C816 C 0.20563 0.33637 0.35298 0.0
C817 C 0.17317 0.32557 0.34282 0.0
C818 C 0.20783 0.35428 0.35221 0.0
C819 C 0.19293 0.35789 0.34674 0.0
H820 H 0.61951 0.80454 0.31174 0.0
H821 H 0.66381 0.79654 0.3771 0.0
H822 H 0.68248 0.82889 0.38022 0.0
H823 H 0.68706 0.85942 0.36221 0.0
H824 H 0.64389 0.869 0.29663 0.0
H825 H 0.62404 0.83628 0.29617 0.0
C826 C 0.6332 0.80993 0.32686 0.0
C827 C 0.6402 0.798 0.3438 0.0
C828 C 0.64415 0.82888 0.32851 0.0
C829 C 0.65801 0.80527 0.36338 0.0
C830 C 0.66879 0.82384 0.36531 0.0
C831 C 0.67328 0.85443 0.34796 0.0
C832 C 0.66701 0.86666 0.32931 0.0
C833 C 0.66209 0.83575 0.34757 0.0
C834 C 0.64907 0.85988 0.31128 0.0
C835 C 0.63773 0.84115 0.31087 0.0
H836 H 0.1841 0.87035 0.34492 0.0
H837 H 0.2046 0.83063 0.33413 0.0
H838 H 0.17365 0.80633 0.33395 0.0
H839 H 0.14085 0.79649 0.33767 0.0
H840 H 0.12056 0.83638 0.34881 0.0
H841 H 0.15146 0.86059 0.34806 0.0
C842 C 0.18183 0.85638 0.34244 0.0
C843 C 0.19664 0.85229 0.33955 0.0
C844 C 0.16407 0.84255 0.3425 0.0
C845 C 0.19344 0.83412 0.33638 0.0
C846 C 0.17576 0.82024 0.33631 0.0
C847 C 0.14318 0.81048 0.3399 0.0
C848 C 0.12841 0.81464 0.34335 0.0
C849 C 0.16098 0.82431 0.3395 0.0
C850 C 0.13167 0.83283 0.34617 0.0
C851 C 0.14933 0.84667 0.34574 0.0
H852 H 0.6628 0.8594 0.84727 0.0
H853 H 0.71813 0.87865 0.79642 0.0
H854 H 0.71534 0.84803 0.80048 0.0
H855 H 0.69752 0.8159 0.82065 0.0
H856 H 0.64191 0.7962 0.86853 0.0
H857 H 0.6445 0.82687 0.86397 0.0
C858 C 0.67417 0.85684 0.83662 0.0
C859 C 0.69064 0.87125 0.82172 0.0
C860 C 0.6725 0.83916 0.83911 0.0
C861 C 0.70528 0.86777 0.80802 0.0
C862 C 0.70374 0.85027 0.81055 0.0
C863 C 0.68602 0.81837 0.83039 0.0
C864 C 0.66963 0.80393 0.84539 0.0
C865 C 0.6875 0.83592 0.82663 0.0
C866 C 0.65471 0.80719 0.85707 0.0
C867 C 0.65616 0.82469 0.85435 0.0
H868 H 0.20065 0.8589 0.83563 0.0
H869 H 0.15965 0.87674 0.86468 0.0
H870 H 0.13653 0.84519 0.86702 0.0
H871 H 0.1281 0.81258 0.86057 0.0
H872 H 0.16939 0.79506 0.83219 0.0
H873 H 0.19234 0.82655 0.82987 0.0
C874 C 0.18665 0.85593 0.84247 0.0
C875 C 0.18186 0.87016 0.8499 0.0
C876 C 0.17353 0.83783 0.84389 0.0
C877 C 0.16368 0.86604 0.85884 0.0
C878 C 0.15048 0.84801 0.86016 0.0
C879 C 0.14213 0.81566 0.85388 0.0
C880 C 0.14704 0.80149 0.8465 0.0
C881 C 0.15526 0.8338 0.85271 0.0
C882 C 0.16526 0.8057 0.83799 0.0
C883 C 0.17838 0.8237 0.83663 0.0
H884 H 0.13684 0.29346 0.84839 0.0
H885 H 0.13275 0.34235 0.80842 0.0
H886 H 0.16544 0.35976 0.81474 0.0
H887 H 0.19547 0.36131 0.83192 0.0
H888 H 0.19947 0.31249 0.8734 0.0
H889 H 0.16682 0.29505 0.86638 0.0
C890 C 0.14312 0.3079 0.84093 0.0
C891 C 0.13233 0.31653 0.82789 0.0
C892 C 0.16202 0.31796 0.84507 0.0
C893 C 0.1407 0.33531 0.81861 0.0
C894 C 0.15944 0.34533 0.82221 0.0
C895 C 0.18918 0.34687 0.83951 0.0
C896 C 0.19995 0.33827 0.85316 0.0
C897 C 0.17027 0.33683 0.83553 0.0
C898 C 0.19154 0.31952 0.86287 0.0
C899 C 0.17283 0.30947 0.8588 0.0
H900 H 0.79492 0.64483 0.65946 0.0
H901 H 0.82182 0.70196 0.62466 0.0
H902 H 0.85112 0.70115 0.62723 0.0
H903 H 0.86892 0.68418 0.64079 0.0
H904 H 0.84165 0.62712 0.67654 0.0
H905 H 0.81249 0.62794 0.67219 0.0
C906 C 0.80717 0.65714 0.65226 0.0
C907 C 0.80623 0.67345 0.64187 0.0
C908 C 0.82384 0.65656 0.65411 0.0
C909 C 0.82222 0.68925 0.6327 0.0
C910 C 0.83894 0.68878 0.63424 0.0
C911 C 0.85658 0.67192 0.64756 0.0
C912 C 0.85741 0.65559 0.65904 0.0
C913 C 0.83989 0.67251 0.64514 0.0
C914 C 0.84135 0.63983 0.66771 0.0
C915 C 0.8247 0.6403 0.66521 0.0
H916 H 0.32937 0.1948 0.65183 0.0
H917 H 0.3835 0.19952 0.65325 0.0
H918 H 0.37129 0.16648 0.65554 0.0
H919 H 0.34519 0.13632 0.65683 0.0
H920 H 0.29114 0.13183 0.6547 0.0
H921 H 0.3034 0.16481 0.65301 0.0
C922 C 0.33854 0.18863 0.65268 0.0
C923 C 0.35736 0.19964 0.6524 0.0
C924 C 0.33142 0.16969 0.65385 0.0
C925 C 0.369 0.19139 0.65344 0.0
C926 C 0.36201 0.1725 0.65475 0.0
C927 C 0.33608 0.14255 0.65604 0.0
C928 C 0.31724 0.13161 0.65592 0.0
C929 C 0.34324 0.16153 0.65492 0.0
C930 C 0.30565 0.13991 0.65481 0.0
C931 C 0.31267 0.15877 0.65384 0.0
H932 H 0.79531 0.17673 0.69973 0.0
H933 H 0.80057 0.13099 0.63406 0.0
H934 H 0.8334 0.14789 0.63661 0.0
H935 H 0.86089 0.17597 0.65631 0.0
H936 H 0.85543 0.22165 0.72168 0.0
H937 H 0.82268 0.20452 0.72078 0.0
C938 C 0.80365 0.17049 0.68593 0.0
C939 C 0.79547 0.15266 0.66661 0.0
C940 C 0.8226 0.18027 0.68763 0.0
C941 C 0.80649 0.14473 0.64908 0.0
C942 C 0.82531 0.15437 0.65057 0.0
C943 C 0.85251 0.18209 0.6707 0.0
C944 C 0.86063 0.20006 0.68897 0.0
C945 C 0.83355 0.17218 0.66971 0.0
C946 C 0.84957 0.20784 0.70726 0.0
C947 C 0.83079 0.19806 0.70672 0.0
H948 H 0.02641 0.48477 0.49058 0.0
H949 H 0.96935 0.44981 0.50527 0.0
H950 H 0.96278 0.47572 0.49663 0.0
H951 H 0.97319 0.50839 0.48471 0.0
H952 H 0.03025 0.54336 0.47016 0.0
H953 H 0.03682 0.51744 0.47849 0.0
C954 C 0.01256 0.48286 0.49214 0.0
C955 C 0.99842 0.46543 0.49867 0.0
C956 C 0.00884 0.49782 0.4868 0.0
C957 C 0.98051 0.46312 0.50033 0.0
C958 C 0.97671 0.47792 0.49528 0.0
C959 C 0.98704 0.51029 0.48306 0.0
C960 C 0.00118 0.52773 0.47673 0.0
C961 C 0.99076 0.49533 0.4883 0.0
C962 C 0.01909 0.53004 0.47497 0.0
C963 C 0.02289 0.51523 0.47985 0.0
H964 H 0.45943 0.47988 0.50939 0.0
H965 H 0.49932 0.4606 0.47971 0.0
H966 H 0.52314 0.49179 0.47941 0.0
H967 H 0.5325 0.52447 0.48675 0.0
H968 H 0.49251 0.5437 0.51545 0.0
H969 H 0.46877 0.5125 0.51695 0.0
C970 C 0.47334 0.48248 0.50296 0.0
C971 C 0.47761 0.46793 0.49461 0.0
C972 C 0.4869 0.50041 0.50259 0.0
C973 C 0.49569 0.47155 0.48624 0.0
C974 C 0.5093 0.48937 0.48604 0.0
C975 C 0.51859 0.52184 0.49341 0.0
C976 C 0.51426 0.53639 0.50099 0.0
C977 C 0.50504 0.5039 0.49404 0.0
C978 C 0.49618 0.53276 0.50949 0.0
C979 C 0.48262 0.51492 0.51035 0.0
H980 H 0.533 0.03436 0.47395 0.0
H981 H 0.53617 0.98758 0.53956 0.0
H982 H 0.50329 0.97066 0.53718 0.0
H983 H 0.47331 0.96922 0.51736 0.0
H984 H 0.47064 0.01636 0.45224 0.0
H985 H 0.50339 0.03285 0.45328 0.0
C986 C 0.52649 0.02048 0.48776 0.0
C987 C 0.53704 0.0123 0.50699 0.0
C988 C 0.50756 0.01079 0.48625 0.0
C989 C 0.52837 0.99425 0.5246 0.0
C990 C 0.50954 0.98452 0.52322 0.0
C991 C 0.47993 0.98305 0.50314 0.0
C992 C 0.46949 0.99149 0.48489 0.0
C993 C 0.49895 0.99264 0.50417 0.0
C994 C 0.4783 0.00949 0.46677 0.0
C995 C 0.49708 0.019 0.46732 0.0
H996 H 0.51216 0.03591 0.98199 0.0
H997 H 0.47803 0.97835 0.98018 0.0
H998 H 0.50448 0.97259 0.98528 0.0
H999 H 0.53748 0.98387 0.99224 0.0
H1000 H 0.57148 0.04148 0.99454 0.0
H1001 H 0.54507 0.04716 0.98745 0.0
C1002 C 0.51055 0.02212 0.98236 0.0
C1003 C 0.49317 0.00762 0.98073 0.0
C1004 C 0.52584 0.01886 0.98572 0.0
C1005 C 0.49128 0.9898 0.98145 0.0
C1006 C 0.5064 0.98646 0.98446 0.0
C1007 C 0.53907 0.99764 0.9912 0.0
C1008 C 0.55643 0.01218 0.99406 0.0
C1009 C 0.52377 1.00088 0.98703 0.0
C1010 C 0.55827 0.02998 0.99249 0.0
C1011 C 0.54317 0.03329 0.98837 0.0
H1012 H 0.99015 0.52427 0.96608 0.0
H1013 H 0.04357 0.53189 0.00993 0.0
H1014 H 0.03234 0.49912 0.01915 0.0
H1015 H 0.00738 0.46841 0.01471 0.0
H1016 H 0.95398 0.46081 0.97073 0.0
H1017 H 0.96519 0.49358 0.9618 0.0
C1018 C 0.99938 0.51878 0.97758 0.0
C1019 C 0.01771 0.53053 0.98723 0.0
C1020 C 0.99281 0.49997 0.98292 0.0
C1021 C 0.02943 0.52317 0.00219 0.0
C1022 C 0.023 0.50444 0.00753 0.0
C1023 C 0.99815 0.4739 0.00329 0.0
C1024 C 0.97983 0.46216 0.99346 0.0
C1025 C 0.00472 0.49272 -0.00195 0.0
C1026 C 0.96811 0.46953 0.97859 0.0
C1027 C 0.97453 0.48826 0.97342 0.0
H1028 H 0.46287 0.50376 0.01271 0.0
H1029 H 0.47493 0.46058 0.95966 0.0
H1030 H 0.50716 0.48092 0.96137 0.0
H1031 H 0.53214 0.51107 0.97789 0.0
H1032 H 0.52009 0.55428 0.03067 0.0
H1033 H 0.48786 0.53392 0.02925 0.0
C1034 C 0.47256 0.49883 0.00144 0.0
C1035 C 0.46648 0.48069 0.98606 0.0
C1036 C 0.49116 0.51062 0.00258 0.0
C1037 C 0.47923 0.4745 0.97167 0.0
C1038 C 0.4977 0.48611 0.97266 0.0
C1039 C 0.52245 0.51599 0.98919 0.0
C1040 C 0.52854 0.53415 0.00437 0.0
C1041 C 0.50385 0.50421 0.98811 0.0
C1042 C 0.51579 0.54035 0.01879 0.0
C1043 C 0.49732 0.52872 0.01797 0.0
H1044 H 0.41224 0.03083 0.08796 0.0
H1045 H 0.44023 0.074 0.977 0.0
H1046 H 0.42494 0.09116 0.01465 0.0
H1047 H 0.40106 0.09201 0.07381 0.0
H1048 H 0.37352 0.04791 0.18299 0.0
H1049 H 0.39145 0.03306 0.15203 0.0
C1050 C 0.41506 0.04406 0.07212 0.0
C1051 C 0.42696 0.05105 0.02916 0.0
C1052 C 0.40633 0.05363 0.09385 0.0
C1053 C 0.43095 0.06836 0.00985 0.0
C1054 C 0.42219 0.07808 0.03131 0.0
C1055 C 0.39934 0.07937 0.09153 0.0
C1056 C 0.38589 0.07097 0.13034 0.0
C1057 C 0.40951 0.07065 0.07262 0.0
C1058 C 0.38368 0.05455 0.15282 0.0
C1059 C 0.39387 0.04601 0.13502 0.0
H1060 H 0.8832 0.29529 0.06311 0.0
H1061 H 0.89969 0.3154 0.22199 0.0
H1062 H 0.91144 0.34658 0.18988 0.0
H1063 H 0.92159 0.3678 0.11472 0.0
H1064 H 0.90975 0.34731 0.95469 0.0
H1065 H 0.89133 0.3167 0.98848 0.0
C1066 C 0.8888 0.30653 0.09082 0.0
C1067 C 0.89038 0.30316 0.14488 0.0
C1068 C 0.89653 0.32437 0.07147 0.0
C1069 C 0.89819 0.31776 0.18031 0.0
C1070 C 0.90501 0.33556 0.16187 0.0
C1071 C 0.91437 0.3567 0.08746 0.0
C1072 C 0.91662 0.35973 0.03242 0.0
C1073 C 0.90488 0.33902 0.10726 0.0
C1074 C 0.90788 0.34523 0.9972 0.0
C1075 C 0.89751 0.32774 0.01656 0.0
H1076 H 0.69781 0.59898 0.03425 0.0
H1077 H 0.6807 0.56867 0.17962 0.0
H1078 H 0.64925 0.55449 0.14756 0.0
H1079 H 0.62636 0.5552 0.08435 0.0
H1080 H 0.64432 0.58798 0.94318 0.0
H1081 H 0.67572 0.59646 0.96648 0.0
C1082 C 0.68722 0.58881 0.05811 0.0
C1083 C 0.69138 0.58475 0.10894 0.0
C1084 C 0.66932 0.58135 0.04019 0.0
C1085 C 0.67771 0.57176 0.14003 0.0
C1086 C 0.65976 0.56385 0.12188 0.0
C1087 C 0.63718 0.5637 0.05798 0.0
C1088 C 0.63313 0.57101 0.01214 0.0
C1089 C 0.65531 0.56914 0.07291 0.0
C1090 C 0.64719 0.58226 0.97863 0.0
C1091 C 0.66512 0.58717 0.99208 0.0
H1092 H 0.03142 0.39625 0.38895 0.0
H1093 H 0.0706 0.42192 0.51271 0.0
H1094 H 0.09143 0.41191 0.4698 0.0
H1095 H 0.09641 0.39241 0.40261 0.0
H1096 H 0.05626 0.3667 0.28076 0.0
H1097 H 0.03802 0.38063 0.31635 0.0
C1098 C 0.04462 0.39978 0.40618 0.0
C1099 C 0.04946 0.40938 0.45421 0.0
C1100 C 0.05631 0.39408 0.38137 0.0
C1101 C 0.06665 0.41434 0.47587 0.0
C1102 C 0.07848 0.40861 0.45138 0.0
C1103 C 0.08396 0.39039 0.383 0.0
C1104 C 0.07759 0.37851 0.33933 0.0
C1105 C 0.07323 0.39803 0.40479 0.0
C1106 C 0.06135 0.37576 0.31451 0.0
C1107 C 0.05086 0.38359 0.33505 0.0
H1108 H 0.56684 0.67843 0.29884 0.0
H1109 H 0.56735 0.70676 0.44309 0.0
H1110 H 0.55381 0.67814 0.49168 0.0
H1111 H 0.54761 0.64588 0.4958 0.0
H1112 H 0.54573 0.61748 0.35018 0.0
H1113 H 0.55368 0.64512 0.29931 0.0
C1114 C 0.56317 0.67819 0.34033 0.0
C1115 C 0.56801 0.6946 0.36739 0.0
C1116 C 0.55549 0.66168 0.368 0.0
C1117 C 0.56344 0.69425 0.42128 0.0
C1118 C 0.55598 0.67789 0.44927 0.0
C1119 C 0.54838 0.64566 0.45278 0.0
C1120 C 0.54632 0.62974 0.42686 0.0
C1121 C 0.5528 0.66164 0.42355 0.0
C1122 C 0.54722 0.62955 0.37108 0.0
C1123 C 0.55191 0.64541 0.34193 0.0
H1124 H 0.2968 0.91626 0.45446 0.0
H1125 H 0.30632 0.88795 0.32367 0.0
H1126 H 0.3373 0.89689 0.35588 0.0
H1127 H 0.3628 0.91654 0.41513 0.0
H1128 H 0.35226 0.94499 0.54402 0.0
H1129 H 0.32039 0.9318 0.51988 0.0
C1130 C 0.30562 0.91185 0.43346 0.0
C1131 C 0.29958 0.9018 0.38644 0.0
C1132 C 0.32317 0.91701 0.45218 0.0
C1133 C 0.31084 0.89581 0.35989 0.0
C1134 C 0.32852 0.90097 0.37825 0.0
C1135 C 0.35334 0.91926 0.4389 0.0
C1136 C 0.35976 0.93167 0.48133 0.0
C1137 C 0.33502 0.91204 0.42358 0.0
C1138 C 0.34753 0.93543 0.51133 0.0
C1139 C 0.32936 0.92803 0.49727 0.0
H1140 H 0.6534 0.99248 0.98979 0.0
H1141 H 0.60166 0.94642 0.96741 0.0
H1142 H 0.6167 0.92892 0.93182 0.0
H1143 H 0.64475 0.92757 0.90169 0.0
H1144 H 0.69593 0.97474 0.92154 0.0
H1145 H 0.68088 0.99094 0.96309 0.0
C1146 C 0.64536 0.97853 0.97775 0.0
C1147 C 0.62643 0.97077 0.98124 0.0
C1148 C 0.65402 0.96882 0.95616 0.0
C1149 C 0.61626 0.95269 0.96532 0.0
C1150 C 0.62486 0.94274 0.94465 0.0
C1151 C 0.65256 0.94137 0.91527 0.0
C1152 C 0.67143 0.94996 0.9081 0.0
C1153 C 0.64375 0.95078 0.93892 0.0
C1154 C 0.68139 0.96783 0.92606 0.0
C1155 C 0.67281 0.97712 0.95004 0.0
H1156 H 0.10027 0.68436 0.81889 0.0
H1157 H 0.11242 0.71062 0.97183 0.0
H1158 H 0.10242 0.68136 0.01606 0.0
H1159 H 0.08553 0.64807 0.01101 0.0
H1160 H 0.07551 0.6218 0.85816 0.0
H1161 H 0.08976 0.6512 0.81386 0.0
C1162 C 0.10125 0.68363 0.86175 0.0
C1163 C 0.10696 0.69947 0.89227 0.0
C1164 C 0.09577 0.66676 0.88683 0.0
C1165 C 0.10819 0.69852 0.94772 0.0
C1166 C 0.10234 0.6818 0.97301 0.0
C1167 C 0.08715 0.64883 0.96816 0.0
C1168 C 0.07953 0.6329 0.9378 0.0
C1169 C 0.09548 0.66579 0.94303 0.0
C1170 C 0.08153 0.63394 0.88229 0.0
C1171 C 0.08946 0.65075 0.85692 0.0
H1172 H 0.34873 0.43609 0.02132 0.0
H1173 H 0.37536 0.45347 0.87028 0.0
H1174 H 0.34615 0.44261 0.82544 0.0
H1175 H 0.31328 0.42282 0.82808 0.0
H1176 H 0.28649 0.40739 0.97948 0.0
H1177 H 0.31538 0.42321 0.02556 0.0
C1178 C 0.34807 0.43809 0.9789 0.0
C1179 C 0.36407 0.44541 0.94899 0.0
C1180 C 0.3312 0.43201 0.95345 0.0
C1181 C 0.36317 0.44797 0.89408 0.0
C1182 C 0.34647 0.4416 0.86835 0.0
C1183 C 0.31373 0.42365 0.87114 0.0
C1184 C 0.29787 0.41393 0.9004 0.0
C1185 C 0.33041 0.43287 0.89737 0.0
C1186 C 0.29854 0.41495 0.95617 0.0
C1187 C 0.3151 0.42379 0.98255 0.0
H1188 H 0.9057 0.60283 0.58375 0.0
H1189 H 0.94679 0.62679 0.70427 0.0
H1190 H 0.96395 0.6121 0.66592 0.0
H1191 H 0.96944 0.59642 0.59124 0.0
H1192 H 0.92931 0.57266 0.46868 0.0
H1193 H 0.90945 0.58329 0.51454 0.0
C1194 C 0.91813 0.60435 0.60244 0.0
C1195 C 0.92509 0.61597 0.64649 0.0
C1196 C 0.92823 0.59629 0.57911 0.0
C1197 C 0.94126 0.61799 0.67019 0.0
C1198 C 0.95113 0.60971 0.64809 0.0
C1199 C 0.95622 0.59341 0.57498 0.0
C1200 C 0.95083 0.58418 0.52648 0.0
C1201 C 0.94511 0.59952 0.60138 0.0
C1202 C 0.93365 0.57993 0.50592 0.0
C1203 C 0.92239 0.58603 0.53208 0.0
H1204 H 0.44805 0.36949 0.57132 0.0
H1205 H 0.41173 0.35249 0.4371 0.0
H1206 H 0.40158 0.32086 0.46159 0.0
H1207 H 0.39928 0.29863 0.52888 0.0
H1208 H 0.43331 0.31515 0.66762 0.0
H1209 H 0.44839 0.34632 0.63368 0.0
C1210 C 0.43832 0.3588 0.5467 0.0
C1211 C 0.43057 0.36326 0.5026 0.0
C1212 C 0.43203 0.3406 0.56226 0.0
C1213 C 0.4178 0.34935 0.47133 0.0
C1214 C 0.41195 0.33128 0.48541 0.0
C1215 C 0.41045 0.30899 0.55066 0.0
C1216 C 0.41542 0.30475 0.60013 0.0
C1217 C 0.41842 0.32682 0.53189 0.0
C1218 C 0.42956 0.31817 0.62893 0.0
C1219 C 0.43799 0.33598 0.60976 0.0
H1220 H 0.64792 0.09974 0.48555 0.0
H1221 H 0.61711 0.08424 0.6306 0.0
H1222 H 0.64409 0.10277 0.6822 0.0
H1223 H 0.67742 0.11781 0.68652 0.0
H1224 H 0.70805 0.13465 0.54143 0.0
H1225 H 0.68022 0.12164 0.48933 0.0
C1226 C 0.64701 0.10107 0.52821 0.0
C1227 C 0.63064 0.09056 0.55431 0.0
C1228 C 0.66261 0.11182 0.55769 0.0
C1229 C 0.62955 0.09233 0.60959 0.0
C1230 C 0.64504 0.10276 0.63923 0.0
C1231 C 0.6779 0.11933 0.64364 0.0
C1232 C 0.69471 0.12702 0.61781 0.0
C1233 C 0.66181 0.1118 0.61388 0.0
C1234 C 0.69525 0.12891 0.56224 0.0
C1235 C 0.67932 0.12125 0.53233 0.0
H1236 H 0.67918 0.71257 0.74941 0.0
H1237 H 0.72449 0.75096 0.83915 0.0
H1238 H 0.74481 0.74162 0.7909 0.0
H1239 H 0.7492 0.72149 0.72506 0.0
H1240 H 0.70337 0.68387 0.63509 0.0
H1241 H 0.68376 0.69439 0.68046 0.0
C1242 C 0.69348 0.71876 0.75893 0.0
C1243 C 0.70031 0.73208 0.79864 0.0
C1244 C 0.705 0.71373 0.73014 0.0
C1245 C 0.71893 0.74043 0.80932 0.0
C1246 C 0.73053 0.73519 0.78147 0.0
C1247 C 0.73502 0.71598 0.71453 0.0
C1248 C 0.72771 0.70197 0.67675 0.0
C1249 C 0.72369 0.72182 0.74177 0.0
C1250 C 0.70927 0.6947 0.66397 0.0
C1251 C 0.69803 0.70057 0.69022 0.0
H1252 H 0.21744 0.96585 0.7378 0.0
H1253 H 0.24029 0.9874 0.8909 0.0
H1254 H 0.25195 0.01826 0.85626 0.0
H1255 H 0.26001 0.03855 0.77901 0.0
H1256 H 0.24164 0.01648 0.62311 0.0
H1257 H 0.22356 0.98649 0.66164 0.0
C1258 C 0.22442 0.97737 0.76386 0.0
C1259 C 0.22782 0.97448 0.81692 0.0
C1260 C 0.23203 0.99498 0.74271 0.0
C1261 C 0.23739 0.9894 0.85007 0.0
C1262 C 0.24414 0.00701 0.83016 0.0
C1263 C 0.25146 0.02726 0.75392 0.0
C1264 C 0.25172 0.02965 0.6986 0.0
C1265 C 0.24215 0.00992 0.77608 0.0
C1266 C 0.24127 0.0149 0.66591 0.0
C1267 C 0.23111 0.99777 0.68793 0.0
H1268 H 0.03114 0.26315 0.70564 0.0
H1269 H 0.01559 0.23659 0.85717 0.0
H1270 H 0.98388 0.22135 0.82786 0.0
H1271 H 0.96029 0.21996 0.76404 0.0
H1272 H 0.97656 0.24884 0.61572 0.0
H1273 H 0.00826 0.25846 0.6379 0.0
C1274 C 0.02083 0.25353 0.73148 0.0
C1275 C 0.02551 0.25078 0.78311 0.0
C1276 C 0.00275 0.2454 0.7149 0.0
C1277 C 0.01219 0.23862 0.81692 0.0
C1278 C 0.99409 0.23009 0.80029 0.0
C1279 C 0.9708 0.22782 0.73595 0.0
C1280 C 0.96618 0.23371 0.68831 0.0
C1281 C 0.98912 0.23394 0.75005 0.0
C1282 C 0.97986 0.24418 0.65257 0.0
C1283 C 0.99798 0.24977 0.66538 0.0
H1284 H 0.27811 0.23945 0.24462 0.0
H1285 H 0.30058 0.28026 0.12302 0.0
H1286 H 0.28727 0.2981 0.16516 0.0
H1287 H 0.27312 0.3041 0.24248 0.0
H1288 H 0.25045 0.26416 0.36568 0.0
H1289 H 0.26002 0.24385 0.31739 0.0
C1290 C 0.27956 0.25196 0.22661 0.0
C1291 C 0.29035 0.25862 0.18098 0.0
C1292 C 0.27227 0.26244 0.25204 0.0
C1293 C 0.29237 0.27494 0.15823 0.0
C1294 C 0.28489 0.2852 0.18248 0.0
C1295 C 0.27012 0.29084 0.25837 0.0
C1296 C 0.26148 0.28562 0.30765 0.0
C1297 C 0.2755 0.27943 0.23042 0.0
C1298 C 0.25728 0.26839 0.32784 0.0
C1299 C 0.26274 0.25686 0.30026 0.0
H1300 H 0.73946 0.98134 0.26079 0.0
H1301 H 0.68206 0.96484 0.26102 0.0
H1302 H 0.68724 0.99419 0.22375 0.0
H1303 H 0.70823 0.02483 0.19411 0.0
H1304 H 0.76562 0.04117 0.19494 0.0
H1305 H 0.76026 0.01138 0.22819 0.0
C1306 C 0.72805 0.98415 0.25283 0.0
C1307 C 0.71039 0.971 0.26419 0.0
C1308 C 0.73114 1.00095 0.23128 0.0
C1309 C 0.69577 0.97478 0.25298 0.0
C1310 C 0.69874 0.99153 0.23158 0.0
C1311 C 0.71956 0.02181 0.20098 0.0
C1312 C 0.73732 0.03522 0.19206 0.0
C1313 C 0.71638 0.00475 0.22086 0.0
C1314 C 0.75184 0.0311 0.20137 0.0
C1315 C 0.74878 0.0141 0.22063 0.0
H1316 H 0.03231 0.77787 0.23867 0.0
H1317 H 0.01238 0.75499 0.39266 0.0
H1318 H 0.98122 0.74451 0.36181 0.0
H1319 H 0.95997 0.73752 0.28731 0.0
H1320 H 0.98011 0.75558 0.12976 0.0
H1321 H 0.01076 0.77267 0.16519 0.0
C1322 C 0.0211 0.77109 0.26574 0.0
C1323 C 0.0245 0.76735 0.31794 0.0
C1324 C 0.00326 0.76417 0.24668 0.0
C1325 C 0.00997 0.75809 0.35244 0.0
C1326 C 0.9922 0.75205 0.33472 0.0
C1327 C 0.97101 0.74582 0.26123 0.0
C1328 C 0.96787 0.74576 0.20634 0.0
C1329 C 0.98869 0.75443 0.28142 0.0
C1330 C 0.98227 0.75584 0.1723 0.0
C1331 C 0.99978 0.7654 0.19252 0.0
H1332 H 0.35093 0.07799 0.96757 0.0
H1333 H 0.29635 0.05666 0.02637 0.0
H1334 H 0.28485 0.05219 0.93498 0.0
H1335 H 0.29074 0.05781 0.83925 0.0
H1336 H 0.34525 0.07855 0.78029 0.0
H1337 H 0.35646 0.07963 0.87116 0.0
C1338 C 0.33649 0.0721 0.96028 0.0
C1339 C 0.32447 0.06789 0.0034 0.0
C1340 C 0.33005 0.06963 0.90784 0.0
C1341 C 0.30582 0.06002 0.99371 0.0
C1342 C 0.29928 0.05758 0.94154 0.0
C1343 C 0.30506 0.06233 0.84634 0.0
C1344 C 0.31725 0.06839 0.80355 0.0
C1345 C 0.31132 0.06287 0.89845 0.0
C1346 C 0.33568 0.07389 0.81279 0.0
C1347 C 0.34207 0.0746 0.86468 0.0
H1348 H 0.90339 0.27422 0.99286 0.0
H1349 H 0.92699 0.24033 0.05075 0.0
H1350 H 0.93614 0.23717 0.96023 0.0
H1351 H 0.93348 0.24064 0.8639 0.0
H1352 H 0.9102 0.27485 0.80625 0.0
H1353 H 0.90512 0.28163 0.89772 0.0
C1354 C 0.91082 0.26641 0.98566 0.0
C1355 C 0.91427 0.25724 0.02793 0.0
C1356 C 0.91596 0.26465 0.93371 0.0
C1357 C 0.92416 0.24743 0.01861 0.0
C1358 C 0.92928 0.24554 0.9669 0.0
C1359 C 0.92762 0.24986 0.87149 0.0
C1360 C 0.92193 0.25703 0.82867 0.0
C1361 C 0.92467 0.25357 0.92402 0.0
C1362 C 0.91462 0.26916 0.83871 0.0
C1363 C 0.91161 0.27292 0.89093 0.0
H1364 H 0.74731 0.66034 -0.00167 0.0
H1365 H 0.74116 0.60643 0.96787 0.0
H1366 H 0.74057 0.61123 0.87226 0.0
H1367 H 0.74294 0.63124 0.79704 0.0
H1368 H 0.75091 0.6857 0.82809 0.0
H1369 H 0.7494 0.68015 0.92366 0.0
C1370 C 0.74582 0.64965 0.97071 0.0
C1371 C 0.74439 0.63313 0.98991 0.0
C1372 C 0.74572 0.65258 0.91592 0.0
C1373 C 0.74246 0.61936 0.95386 0.0
C1374 C 0.74204 0.62205 0.89923 0.0
C1375 C 0.7441 0.64175 0.8249 0.0
C1376 C 0.74699 0.65879 0.806 0.0
C1377 C 0.74378 0.63865 0.87979 0.0
C1378 C 0.74874 0.67247 0.8421 0.0
C1379 C 0.74791 0.66933 0.89663 0.0
H1380 H 0.07522 0.32429 0.665 0.0
H1381 H 0.07582 0.27298 0.63692 0.0
H1382 H 0.07582 0.27756 0.54104 0.0
H1383 H 0.07815 0.29734 0.46499 0.0
H1384 H 0.07991 0.34957 0.494 0.0
H1385 H 0.0761 0.34335 0.5893 0.0
C1386 C 0.07522 0.31407 0.63786 0.0
C1387 C 0.0757 0.29843 0.65795 0.0
C1388 C 0.07555 0.31693 0.5828 0.0
C1389 C 0.07567 0.28526 0.62237 0.0
C1390 C 0.0756 0.28783 0.56752 0.0
C1391 C 0.07726 0.30711 0.49224 0.0
C1392 C 0.07917 0.3238 0.47294 0.0
C1393 C 0.07584 0.30374 0.54723 0.0
C1394 C 0.0784 0.3366 0.50836 0.0
C1395 C 0.07633 0.3331 0.56277 0.0
H1396 H 0.6209 0.7328 0.69035 0.0
H1397 H 0.67738 0.74957 0.65923 0.0
H1398 H 0.67156 0.74648 0.56378 0.0
H1399 H 0.65087 0.74151 0.48872 0.0
H1400 H 0.59482 0.72714 0.51925 0.0
H1401 H 0.59989 0.7266 0.61483 0.0
C1402 C 0.63182 0.73553 0.66254 0.0
C1403 C 0.64951 0.7415 0.68152 0.0
C1404 C 0.62847 0.73426 0.6075 0.0
C1405 C 0.66365 0.74514 0.64531 0.0
C1406 C 0.66035 0.74336 0.59076 0.0
C1407 C 0.63975 0.738 0.51636 0.0
C1408 C 0.62256 0.73444 0.49725 0.0
C1409 C 0.64288 0.7383 0.57131 0.0
C1410 C 0.60824 0.73007 0.5333 0.0
C1411 C 0.61112 0.72976 0.58791 0.0
H1412 H 0.22933 0.93531 0.65762 0.0
H1413 H 0.25851 0.90716 0.7194 0.0
H1414 H 0.2645 0.90042 0.62872 0.0
H1415 H 0.25906 0.90033 0.53245 0.0
H1416 H 0.23079 0.92943 0.4708 0.0
H1417 H 0.22681 0.9381 0.56116 0.0
C1418 C 0.23719 0.92789 0.65112 0.0
C1419 C 0.24331 0.92154 0.69482 0.0
C1420 C 0.24055 0.92411 0.59914 0.0
C1421 C 0.25369 0.91217 0.68619 0.0
C1422 C 0.25699 0.90822 0.63446 0.0
C1423 C 0.25211 0.90865 0.53892 0.0
C1424 C 0.24494 0.91401 0.49545 0.0
C1425 C 0.25009 0.91374 0.59074 0.0
C1426 C 0.23631 0.92509 0.5039 0.0
C1427 C 0.23401 0.93 0.55544 0.0
H1428 H 0.73838 0.94635 0.16726 0.0
H1429 H 0.71594 0.88826 0.17252 0.0
H1430 H 0.71803 0.8871 0.07578 0.0
H1431 H 0.71985 0.90203 0.99058 0.0
H1432 H 0.73998 0.95993 0.98397 0.0
H1433 H 0.74564 0.96195 0.08008 0.0
C1434 C 0.73481 0.93357 0.14715 0.0
C1435 C 0.72729 0.91741 0.17655 0.0
C1436 C 0.73527 0.93301 0.09126 0.0
C1437 C 0.72209 0.90083 0.15046 0.0
C1438 C 0.72306 0.90017 0.09517 0.0
C1439 C 0.72603 0.91515 0.01 0.0
C1440 C 0.7293 0.93079 0.98065 0.0
C1441 C 0.72868 0.91608 0.06517 0.0
C1442 C 0.73741 0.94773 0.00585 0.0
C1443 C 0.74045 0.94884 0.06088 0.0
H1444 H 0.06242 0.76345 0.15816 0.0
H1445 H 0.09201 0.73597 0.22172 0.0
H1446 H 0.09818 0.72908 0.1314 0.0
H1447 H 0.09772 0.73362 0.03473 0.0
H1448 H 0.06738 0.76027 0.97094 0.0
H1449 H 0.05873 0.7646 0.06113 0.0
C1450 C 0.07001 0.75573 0.15219 0.0
C1451 C 0.07695 0.75039 0.19646 0.0
C1452 C 0.07344 0.7518 0.10023 0.0
C1453 C 0.08654 0.74021 0.1883 0.0
C1454 C 0.09016 0.73637 0.13667 0.0
C1455 C 0.08902 0.74018 0.0406 0.0
C1456 C 0.08336 0.74685 0.99642 0.0
C1457 C 0.08407 0.74252 0.09241 0.0
C1458 C 0.07189 0.75505 0.00436 0.0
C1459 C 0.06704 0.75761 0.0559 0.0
H1460 H 0.26166 0.32034 0.17512 0.0
H1461 H 0.27941 0.37562 0.22515 0.0
H1462 H 0.28352 0.38545 0.13209 0.0
H1463 H 0.27766 0.37743 0.03751 0.0
H1464 H 0.26038 0.3222 0.98755 0.0
H1465 H 0.26082 0.31312 0.08009 0.0
C1466 C 0.26677 0.33458 0.16551 0.0
C1467 C 0.26994 0.34727 0.2063 0.0
C1468 C 0.26904 0.34003 0.1123 0.0
C1469 C 0.27684 0.36569 0.19402 0.0
C1470 C 0.27907 0.37126 0.14098 0.0
C1471 C 0.27432 0.36347 0.04697 0.0
C1472 C 0.26864 0.35037 0.00647 0.0
C1473 C 0.27454 0.35843 0.09993 0.0
C1474 C 0.26469 0.33242 0.01846 0.0
C1475 C 0.26483 0.32724 0.07123 0.0
H1476 H 0.92096 0.64973 0.48584 0.0
H1477 H 0.93868 0.7044 0.54205 0.0
H1478 H 0.94427 0.71552 0.45043 0.0
H1479 H 0.93989 0.70898 0.35485 0.0
H1480 H 0.92196 0.65429 0.29859 0.0
H1481 H 0.9209 0.64379 0.39018 0.0
C1482 C 0.92631 0.66411 0.47799 0.0
C1483 C 0.92909 0.67624 0.52019 0.0
C1484 C 0.92929 0.67031 0.42546 0.0
C1485 C 0.93636 0.69485 0.50996 0.0
C1486 C 0.93944 0.70117 0.45768 0.0
C1487 C 0.93602 0.6948 0.3627 0.0
C1488 C 0.93065 0.68231 0.32056 0.0
C1489 C 0.9353 0.68893 0.41518 0.0
C1490 C 0.92603 0.66407 0.33069 0.0
C1491 C 0.92533 0.65809 0.38294 0.0
H1492 H 0.38228 0.26754 0.46274 0.0
H1493 H 0.32757 0.24728 0.51975 0.0
H1494 H 0.3167 0.24585 0.42838 0.0
H1495 H 0.32261 0.24765 0.3325 0.0
H1496 H 0.37735 0.2685 0.27532 0.0
H1497 H 0.38853 0.27276 0.36709 0.0
C1498 C 0.36799 0.26293 0.45506 0.0
C1499 C 0.35564 0.25718 0.49742 0.0
C1500 C 0.36193 0.26227 0.40273 0.0
C1501 C 0.33724 0.25164 0.48749 0.0
C1502 C 0.33105 0.25078 0.43539 0.0
C1503 C 0.33701 0.25333 0.34023 0.0
C1504 C 0.34918 0.25752 0.2976 0.0
C1505 C 0.34325 0.25566 0.39274 0.0
C1506 C 0.36779 0.26517 0.30773 0.0
C1507 C 0.37414 0.26748 0.36006 0.0
H1508 H 0.71589 0.10913 0.48912 0.0
H1509 H 0.74256 0.07711 0.53906 0.0
H1510 H 0.74274 0.0674 0.447 0.0
H1511 H 0.73936 0.07188 0.35176 0.0
H1512 H 0.71252 0.10379 0.30211 0.0
H1513 H 0.70802 0.10953 0.39516 0.0
C1514 C 0.72142 0.09975 0.4798 0.0
C1515 C 0.72951 0.09404 0.52004 0.0
C1516 C 0.72156 0.09438 0.42713 0.0
C1517 C 0.73634 0.08166 0.5083 0.0
C1518 C 0.73655 0.07624 0.45579 0.0
C1519 C 0.73225 0.07983 0.36147 0.0
C1520 C 0.72658 0.08774 0.32063 0.0
C1521 C 0.72983 0.0831 0.41476 0.0
C1522 C 0.71706 0.09769 0.33318 0.0
C1523 C 0.7146 0.10104 0.38623 0.0
H1524 H 0.95427 0.38902 0.18442 0.0
H1525 H 0.00927 0.41019 0.1293 0.0
H1526 H 0.01992 0.41236 0.22117 0.0
H1527 H 0.0137 0.41168 0.31682 0.0
H1528 H 0.95869 0.39 0.372 0.0
H1529 H 0.94777 0.38435 0.27998 0.0
C1530 C 0.96857 0.39387 0.19263 0.0
C1531 C 0.98106 0.39976 0.15068 0.0
C1532 C 0.97452 0.3951 0.24525 0.0
C1533 C 0.99948 0.40567 0.16125 0.0
C1534 C 0.00555 0.40701 0.21365 0.0
C1535 C 0.99931 0.40552 0.30856 0.0
C1536 C 0.98696 0.40155 0.35056 0.0
C1537 C 0.99322 0.40232 0.2559 0.0
C1538 C 0.96837 0.39323 0.33996 0.0
C1539 C 0.96217 0.39009 0.28751 0.0
H1540 H 0.5925 0.56801 0.18877 0.0
H1541 H 0.58631 0.61524 0.14221 0.0
H1542 H 0.58556 0.62306 0.23603 0.0
H1543 H 0.58306 0.61429 0.33084 0.0
H1544 H 0.5877 0.56603 0.37534 0.0
H1545 H 0.59306 0.56097 0.28274 0.0
C1546 C 0.59117 0.58014 0.19906 0.0
C1547 C 0.58919 0.5909 0.15866 0.0
C1548 C 0.59052 0.58435 0.25276 0.0
C1549 C 0.58774 0.60669 0.17263 0.0
C1550 C 0.58728 0.61112 0.22624 0.0
C1551 C 0.58577 0.60296 0.32037 0.0
C1552 C 0.585 0.59053 0.3598 0.0
C1553 C 0.5882 0.59979 0.26665 0.0
C1554 C 0.58824 0.57577 0.34566 0.0
C1555 C 0.59117 0.57281 0.2927 0.0
H1556 H 0.42574 0.00439 0.33404 0.0
H1557 H 0.40143 0.94684 0.30639 0.0
H1558 H 0.40662 0.95192 0.21072 0.0
H1559 H 0.42003 0.97291 0.13582 0.0
H1560 H 0.44664 0.03037 0.16599 0.0
H1561 H 0.43866 0.02521 0.25978 0.0
C1562 C 0.42133 0.99299 0.30687 0.0
C1563 C 0.41318 0.97532 0.32671 0.0
C1564 C 0.425 0.99602 0.25255 0.0
C1565 C 0.40776 0.96059 0.29157 0.0
C1566 C 0.41077 0.96348 0.23706 0.0
C1567 C 0.42399 0.98423 0.16307 0.0
C1568 C 0.43402 0.00193 0.14448 0.0
C1569 C 0.41972 0.98115 0.21723 0.0
C1570 C 0.43914 0.01658 0.17982 0.0
C1571 C 0.4345 0.01367 0.23331 0.0
H1572 H 0.61107 0.99782 0.81904 0.0
H1573 H 0.62625 0.05266 0.86953 0.0
H1574 H 0.62634 0.06183 0.7769 0.0
H1575 H 0.61782 0.05313 0.68378 0.0
H1576 H 0.60305 0.99843 0.63297 0.0
H1577 H 0.60726 0.99023 0.72384 0.0
C1578 C 0.61474 0.01185 0.80955 0.0
C1579 C 0.61836 0.02454 0.8507 0.0
C1580 C 0.61463 0.01693 0.7565 0.0
C1581 C 0.62338 0.04271 0.83828 0.0
C1582 C 0.62329 0.04789 0.78548 0.0
C1583 C 0.61581 0.03949 0.69261 0.0
C1584 C 0.60982 0.02625 0.65248 0.0
C1585 C 0.61827 0.03496 0.74461 0.0
C1586 C 0.60758 0.00874 0.66361 0.0
C1587 C 0.6099 0.00407 0.71546 0.0
H1588 H 0.98503 0.58093 0.65965 0.0
H1589 H 0.04039 0.60284 0.60748 0.0
H1590 H 0.05073 0.60835 0.70007 0.0
H1591 H 0.04361 0.60338 0.79513 0.0
H1592 H 0.98827 0.58188 0.84736 0.0
H1593 H 0.97818 0.58001 0.7549 0.0
C1594 C 0.99936 0.58711 0.66869 0.0
C1595 C 0.01199 0.59116 0.62743 0.0
C1596 C 0.00511 0.59021 0.72164 0.0
C1597 C 0.03051 0.59953 0.63899 0.0
C1598 C 0.03638 0.6026 0.69174 0.0
C1599 C 0.02936 0.59852 0.78616 0.0
C1600 C 0.0166 0.59243 0.82738 0.0
C1601 C 0.02375 0.59744 0.73329 0.0
C1602 C 0.99825 0.58653 0.81591 0.0
C1603 C 0.99251 0.58537 0.76321 0.0
H1604 H 0.42576 0.39916 0.67678 0.0
H1605 H 0.39759 0.42833 0.61499 0.0
H1606 H 0.39007 0.43353 0.70545 0.0
H1607 H 0.39465 0.43281 0.80184 0.0
H1608 H 0.42212 0.40302 0.86395 0.0
H1609 H 0.42658 0.39475 0.77346 0.0
C1610 C 0.41774 0.40641 0.68319 0.0
C1611 C 0.41245 0.4136 0.63954 0.0
C1612 C 0.41346 0.4093 0.73521 0.0
C1613 C 0.40184 0.42273 0.64808 0.0
C1614 C 0.39763 0.42578 0.69975 0.0
C1615 C 0.40135 0.42425 0.79549 0.0
C1616 C 0.40829 0.41871 0.83915 0.0
C1617 C 0.40383 0.41959 0.74356 0.0
C1618 C 0.4167 0.40743 0.83079 0.0
C1619 C 0.41935 0.40282 0.77911 0.0
loop_
_geom_bond_atom_site_label_1
_geom_bond_atom_site_label_2
_geom_bond_distance
_geom_bond_site_symmetry_2
_ccdc_geom_bond_type
In0 O1 2.294 . S
In0 O2 2.326 . S
In0 O6 2.266 . S
In0 O7 2.326 . S
In0 O8 2.266 . S
In0 O9 2.326 . S
In0 O11 2.294 . S
In0 O12 2.326 . S
O1 In0 2.294 . S
O1 C10 1.240 . S
O2 In0 2.326 . S
O2 C10 1.252 . S
C3 O6 1.252 . S
C3 O7 1.260 . S
C4 O11 1.240 . S
C4 O12 1.252 . S
C5 O8 1.252 . S
C5 O9 1.260 . S
O6 In0 2.266 . S
O6 C3 1.252 . S
O7 In0 2.326 . S
O7 C3 1.260 . S
O8 In0 2.266 . S
O8 C5 1.252 . S
O9 In0 2.326 . S
O9 C5 1.260 . S
C10 O1 1.240 . S
C10 O2 1.252 . S
O11 In0 2.294 . S
O11 C4 1.240 . S
O12 In0 2.326 . S
O12 C4 1.252 . S
In13 O14 2.294 . S
In13 O15 2.326 . S
In13 O19 2.266 . S
In13 O20 2.326 . S
In13 O21 2.266 . S
In13 O22 2.326 . S
In13 O24 2.294 . S
In13 O25 2.326 . S
O14 In13 2.294 . S
O14 C23 1.240 . S
O15 In13 2.326 . S
O15 C23 1.252 . S
C16 O19 1.252 . S
C16 O20 1.260 . S
C17 O24 1.240 . S
C17 O25 1.252 . S
C18 O21 1.252 . S
C18 O22 1.260 . S
O19 In13 2.266 . S
O19 C16 1.252 . S
O20 In13 2.326 . S
O20 C16 1.260 . S
O21 In13 2.266 . S
O21 C18 1.252 . S
O22 In13 2.326 . S
O22 C18 1.260 . S
C23 O14 1.240 . S
C23 O15 1.252 . S
O24 In13 2.294 . S
O24 C17 1.240 . S
O25 In13 2.326 . S
O25 C17 1.252 . S
In26 O27 2.294 . S
In26 O28 2.326 . S
In26 O32 2.266 . S
In26 O33 2.326 . S
In26 O34 2.266 . S
In26 O35 2.326 . S
In26 O37 2.294 . S
In26 O38 2.326 . S
O27 In26 2.294 . S
O27 C36 1.240 . S
O28 In26 2.326 . S
O28 C36 1.252 . S
C29 O32 1.252 . S
C29 O33 1.260 . S
C30 O37 1.240 . S
C30 O38 1.252 . S
C31 O34 1.252 . S
C31 O35 1.260 . S
O32 In26 2.266 . S
O32 C29 1.252 . S
O33 In26 2.326 . S
O33 C29 1.260 . S
O34 In26 2.266 . S
O34 C31 1.252 . S
O35 In26 2.326 . S
O35 C31 1.260 . S
C36 O27 1.240 . S
C36 O28 1.252 . S
O37 In26 2.294 . S
O37 C30 1.240 . S
O38 In26 2.326 . S
O38 C30 1.252 . S
In39 O40 2.294 . S
In39 O41 2.326 . S
In39 O45 2.266 . S
In39 O46 2.326 . S
In39 O47 2.266 . S
In39 O48 2.326 . S
In39 O50 2.294 . S
In39 O51 2.326 . S
O40 In39 2.294 . S
O40 C49 1.240 . S
O41 In39 2.326 . S
O41 C49 1.252 . S
C42 O45 1.252 . S
C42 O46 1.260 . S
C43 O50 1.240 . S
C43 O51 1.252 . S
C44 O47 1.252 . S
C44 O48 1.260 . S
O45 In39 2.266 . S
O45 C42 1.252 . S
O46 In39 2.326 . S
O46 C42 1.260 . S
O47 In39 2.266 . S
O47 C44 1.252 . S
O48 In39 2.326 . S
O48 C44 1.260 . S
C49 O40 1.240 . S
C49 O41 1.252 . S
O50 In39 2.294 . S
O50 C43 1.240 . S
O51 In39 2.326 . S
O51 C43 1.252 . S
In52 O53 2.294 . S
In52 O54 2.326 . S
In52 O58 2.266 . S
In52 O59 2.326 . S
In52 O60 2.266 . S
In52 O61 2.326 . S
In52 O63 2.294 . S
In52 O64 2.326 . S
O53 In52 2.294 . S
O53 C62 1.240 . S
O54 In52 2.326 . S
O54 C62 1.252 . S
C55 O58 1.252 . S
C55 O59 1.260 . S
C56 O63 1.240 . S
C56 O64 1.252 . S
C57 O60 1.252 . S
C57 O61 1.260 . S
O58 In52 2.266 . S
O58 C55 1.252 . S
O59 In52 2.326 . S
O59 C55 1.260 . S
O60 In52 2.266 . S
O60 C57 1.252 . S
O61 In52 2.326 . S
O61 C57 1.260 . S
C62 O53 1.240 . S
C62 O54 1.252 . S
O63 In52 2.294 . S
O63 C56 1.240 . S
O64 In52 2.326 . S
O64 C56 1.252 . S
In65 O66 2.294 . S
In65 O67 2.326 . S
In65 O71 2.266 . S
In65 O72 2.326 . S
In65 O73 2.266 . S
In65 O74 2.326 . S
In65 O76 2.294 . S
In65 O77 2.326 . S
O66 In65 2.294 . S
O66 C75 1.240 . S
O67 In65 2.326 . S
O67 C75 1.252 . S
C68 O71 1.252 . S
C68 O72 1.260 . S
C69 O76 1.240 . S
C69 O77 1.252 . S
C70 O73 1.252 . S
C70 O74 1.260 . S
O71 In65 2.266 . S
O71 C68 1.252 . S
O72 In65 2.326 . S
O72 C68 1.260 . S
O73 In65 2.266 . S
O73 C70 1.252 . S
O74 In65 2.326 . S
O74 C70 1.260 . S
C75 O66 1.240 . S
C75 O67 1.252 . S
O76 In65 2.294 . S
O76 C69 1.240 . S
O77 In65 2.326 . S
O77 C69 1.252 . S
In78 O79 2.294 . S
In78 O80 2.326 . S
In78 O84 2.266 . S
In78 O85 2.326 . S
In78 O86 2.266 . S
In78 O87 2.326 . S
In78 O89 2.294 . S
In78 O90 2.326 . S
O79 In78 2.294 . S
O79 C88 1.240 . S
O80 In78 2.326 . S
O80 C88 1.252 . S
C81 O84 1.252 . S
C81 O85 1.260 . S
C82 O89 1.240 . S
C82 O90 1.252 . S
C83 O86 1.252 . S
C83 O87 1.260 . S
O84 In78 2.266 . S
O84 C81 1.252 . S
O85 In78 2.326 . S
O85 C81 1.260 . S
O86 In78 2.266 . S
O86 C83 1.252 . S
O87 In78 2.326 . S
O87 C83 1.260 . S
C88 O79 1.240 . S
C88 O80 1.252 . S
O89 In78 2.294 . S
O89 C82 1.240 . S
O90 In78 2.326 . S
O90 C82 1.252 . S
In91 O92 2.294 . S
In91 O93 2.326 . S
In91 O97 2.266 . S
In91 O98 2.326 . S
In91 O99 2.266 . S
In91 O100 2.326 . S
In91 O102 2.294 . S
In91 O103 2.326 . S
O92 In91 2.294 . S
O92 C101 1.240 . S
O93 In91 2.326 . S
O93 C101 1.252 . S
C94 O97 1.252 . S
C94 O98 1.260 . S
C95 O102 1.240 . S
C95 O103 1.252 . S
C96 O99 1.252 . S
C96 O100 1.260 . S
O97 In91 2.266 . S
O97 C94 1.252 . S
O98 In91 2.326 . S
O98 C94 1.260 . S
O99 In91 2.266 . S
O99 C96 1.252 . S
O100 In91 2.326 . S
O100 C96 1.260 . S
C101 O92 1.240 . S
C101 O93 1.252 . S
O102 In91 2.294 . S
O102 C95 1.240 . S
O103 In91 2.326 . S
O103 C95 1.252 . S
In104 O105 2.294 . S
In104 O106 2.326 . S
In104 O110 2.266 . S
In104 O111 2.326 . S
In104 O112 2.266 . S
In104 O113 2.326 . S
In104 O115 2.294 . S
In104 O116 2.326 . S
O105 In104 2.294 . S
O105 C114 1.240 . S
O106 In104 2.326 . S
O106 C114 1.252 . S
C107 O110 1.252 . S
C107 O111 1.260 . S
C108 O115 1.240 . S
C108 O116 1.252 . S
C109 O112 1.252 . S
C109 O113 1.260 . S
O110 In104 2.266 . S
O110 C107 1.252 . S
O111 In104 2.326 . S
O111 C107 1.260 . S
O112 In104 2.266 . S
O112 C109 1.252 . S
O113 In104 2.326 . S
O113 C109 1.260 . S
C114 O105 1.240 . S
C114 O106 1.252 . S
O115 In104 2.294 . S
O115 C108 1.240 . S
O116 In104 2.326 . S
O116 C108 1.252 . S
In117 O118 2.294 . S
In117 O119 2.326 . S
In117 O123 2.266 . S
In117 O124 2.326 . S
In117 O125 2.266 . S
In117 O126 2.326 . S
In117 O128 2.294 . S
In117 O129 2.326 . S
O118 In117 2.294 . S
O118 C127 1.240 . S
O119 In117 2.326 . S
O119 C127 1.252 . S
C120 O123 1.252 . S
C120 O124 1.260 . S
C121 O128 1.240 . S
C121 O129 1.252 . S
C122 O125 1.252 . S
C122 O126 1.260 . S
O123 In117 2.266 . S
O123 C120 1.252 . S
O124 In117 2.326 . S
O124 C120 1.260 . S
O125 In117 2.266 . S
O125 C122 1.252 . S
O126 In117 2.326 . S
O126 C122 1.260 . S
C127 O118 1.240 . S
C127 O119 1.252 . S
O128 In117 2.294 . S
O128 C121 1.240 . S
O129 In117 2.326 . S
O129 C121 1.252 . S
In130 O131 2.294 . S
In130 O132 2.326 . S
In130 O136 2.266 . S
In130 O137 2.326 . S
In130 O138 2.266 . S
In130 O139 2.326 . S
In130 O141 2.294 . S
In130 O142 2.326 . S
O131 In130 2.294 . S
O131 C140 1.240 . S
O132 In130 2.326 . S
O132 C140 1.252 . S
C133 O136 1.252 . S
C133 O137 1.260 . S
C134 O141 1.240 . S
C134 O142 1.252 . S
C135 O138 1.252 . S
C135 O139 1.260 . S
O136 In130 2.266 . S
O136 C133 1.252 . S
O137 In130 2.326 . S
O137 C133 1.260 . S
O138 In130 2.266 . S
O138 C135 1.252 . S
O139 In130 2.326 . S
O139 C135 1.260 . S
C140 O131 1.240 . S
C140 O132 1.252 . S
O141 In130 2.294 . S
O141 C134 1.240 . S
O142 In130 2.326 . S
O142 C134 1.252 . S
In143 O144 2.294 . S
In143 O145 2.326 . S
In143 O149 2.266 . S
In143 O150 2.326 . S
In143 O151 2.266 . S
In143 O152 2.326 . S
In143 O154 2.294 . S
In143 O155 2.326 . S
O144 In143 2.294 . S
O144 C153 1.240 . S
O145 In143 2.326 . S
O145 C153 1.252 . S
C146 O149 1.252 . S
C146 O150 1.260 . S
C147 O154 1.240 . S
C147 O155 1.252 . S
C148 O151 1.252 . S
C148 O152 1.260 . S
O149 In143 2.266 . S
O149 C146 1.252 . S
O150 In143 2.326 . S
O150 C146 1.260 . S
O151 In143 2.266 . S
O151 C148 1.252 . S
O152 In143 2.326 . S
O152 C148 1.260 . S
C153 O144 1.240 . S
C153 O145 1.252 . S
O154 In143 2.294 . S
O154 C147 1.240 . S
O155 In143 2.326 . S
O155 C147 1.252 . S
In156 O157 2.294 1_455 S
In156 O158 2.326 . S
In156 O162 2.267 1_455 S
In156 O163 2.326 . S
In156 O164 2.265 . S
In156 O165 2.325 . S
In156 O167 2.294 . S
In156 O168 2.327 1_455 S
O157 In156 2.294 1_655 S
O157 C166 1.240 . S
O158 In156 2.326 . S
O158 C166 1.252 1_455 S
C159 O162 1.252 . S
C159 O163 1.260 1_655 S
C160 O167 1.240 . S
C160 O168 1.252 1_455 S
C161 O164 1.252 . S
C161 O165 1.260 . S
O162 In156 2.267 1_655 S
O162 C159 1.252 . S
O163 In156 2.326 . S
O163 C159 1.260 1_455 S
O164 In156 2.265 . S
O164 C161 1.252 . S
O165 In156 2.325 . S
O165 C161 1.260 . S
C166 O157 1.240 . S
C166 O158 1.252 1_655 S
O167 In156 2.294 . S
O167 C160 1.240 . S
O168 In156 2.327 1_655 S
O168 C160 1.252 1_655 S
In169 O170 2.294 . S
In169 O171 2.326 . S
In169 O175 2.266 . S
In169 O176 2.326 . S
In169 O177 2.266 . S
In169 O178 2.326 . S
In169 O180 2.294 . S
In169 O181 2.326 . S
O170 In169 2.294 . S
O170 C179 1.240 . S
O171 In169 2.326 . S
O171 C179 1.252 . S
C172 O175 1.252 . S
C172 O176 1.260 . S
C173 O180 1.240 . S
C173 O181 1.252 . S
C174 O177 1.252 . S
C174 O178 1.260 . S
O175 In169 2.266 . S
O175 C172 1.252 . S
O176 In169 2.326 . S
O176 C172 1.260 . S
O177 In169 2.266 . S
O177 C174 1.252 . S
O178 In169 2.326 . S
O178 C174 1.260 . S
C179 O170 1.240 . S
C179 O171 1.252 . S
O180 In169 2.294 . S
O180 C173 1.240 . S
O181 In169 2.326 . S
O181 C173 1.252 . S
In182 O183 2.294 . S
In182 O184 2.326 . S
In182 O188 2.266 . S
In182 O189 2.326 . S
In182 O190 2.266 . S
In182 O191 2.326 . S
In182 O193 2.294 . S
In182 O194 2.326 . S
O183 In182 2.294 . S
O183 C192 1.240 . S
O184 In182 2.326 . S
O184 C192 1.252 . S
C185 O188 1.252 . S
C185 O189 1.260 . S
C186 O193 1.240 . S
C186 O194 1.252 . S
C187 O190 1.252 . S
C187 O191 1.260 . S
O188 In182 2.266 . S
O188 C185 1.252 . S
O189 In182 2.326 . S
O189 C185 1.260 . S
O190 In182 2.266 . S
O190 C187 1.252 . S
O191 In182 2.326 . S
O191 C187 1.260 . S
C192 O183 1.240 . S
C192 O184 1.252 . S
O193 In182 2.294 . S
O193 C186 1.240 . S
O194 In182 2.326 . S
O194 C186 1.252 . S
In195 O196 2.294 . S
In195 O197 2.326 . S
In195 O201 2.266 . S
In195 O202 2.326 . S
In195 O203 2.266 . S
In195 O204 2.326 . S
In195 O206 2.294 . S
In195 O207 2.326 . S
O196 In195 2.294 . S
O196 C205 1.240 . S
O197 In195 2.326 . S
O197 C205 1.252 . S
C198 O201 1.252 . S
C198 O202 1.260 . S
C199 O206 1.240 . S
C199 O207 1.252 . S
C200 O203 1.252 . S
C200 O204 1.260 . S
O201 In195 2.266 . S
O201 C198 1.252 . S
O202 In195 2.326 . S
O202 C198 1.260 . S
O203 In195 2.266 . S
O203 C200 1.252 . S
O204 In195 2.326 . S
O204 C200 1.260 . S
C205 O196 1.240 . S
C205 O197 1.252 . S
O206 In195 2.294 . S
O206 C199 1.240 . S
O207 In195 2.326 . S
O207 C199 1.252 . S
In208 O209 2.294 . S
In208 O210 2.326 . S
In208 O214 2.266 . S
In208 O215 2.326 . S
In208 O216 2.266 . S
In208 O217 2.326 . S
In208 O219 2.294 . S
In208 O220 2.326 . S
O209 In208 2.294 . S
O209 C218 1.240 . S
O210 In208 2.326 . S
O210 C218 1.252 . S
C211 O214 1.252 . S
C211 O215 1.260 . S
C212 O219 1.240 . S
C212 O220 1.252 . S
C213 O216 1.252 . S
C213 O217 1.260 . S
O214 In208 2.266 . S
O214 C211 1.252 . S
O215 In208 2.326 . S
O215 C211 1.260 . S
O216 In208 2.266 . S
O216 C213 1.252 . S
O217 In208 2.326 . S
O217 C213 1.260 . S
C218 O209 1.240 . S
C218 O210 1.252 . S
O219 In208 2.294 . S
O219 C212 1.240 . S
O220 In208 2.326 . S
O220 C212 1.252 . S
In221 O222 2.294 . S
In221 O223 2.326 . S
In221 O227 2.266 . S
In221 O228 2.326 . S
In221 O229 2.266 . S
In221 O230 2.326 . S
In221 O232 2.294 . S
In221 O233 2.326 . S
O222 In221 2.294 . S
O222 C231 1.240 . S
O223 In221 2.326 . S
O223 C231 1.252 . S
C224 O227 1.252 . S
C224 O228 1.260 . S
C225 O232 1.240 . S
C225 O233 1.252 . S
C226 O229 1.252 . S
C226 O230 1.260 . S
O227 In221 2.266 . S
O227 C224 1.252 . S
O228 In221 2.326 . S
O228 C224 1.260 . S
O229 In221 2.266 . S
O229 C226 1.252 . S
O230 In221 2.326 . S
O230 C226 1.260 . S
C231 O222 1.240 . S
C231 O223 1.252 . S
O232 In221 2.294 . S
O232 C225 1.240 . S
O233 In221 2.326 . S
O233 C225 1.252 . S
In234 O235 2.294 . S
In234 O236 2.326 . S
In234 O240 2.266 . S
In234 O241 2.326 . S
In234 O242 2.266 . S
In234 O243 2.326 . S
In234 O245 2.294 . S
In234 O246 2.326 . S
O235 In234 2.294 . S
O235 C244 1.240 . S
O236 In234 2.326 . S
O236 C244 1.252 . S
C237 O240 1.252 . S
C237 O241 1.260 . S
C238 O245 1.240 . S
C238 O246 1.252 . S
C239 O242 1.252 . S
C239 O243 1.260 . S
O240 In234 2.266 . S
O240 C237 1.252 . S
O241 In234 2.326 . S
O241 C237 1.260 . S
O242 In234 2.266 . S
O242 C239 1.252 . S
O243 In234 2.326 . S
O243 C239 1.260 . S
C244 O235 1.240 . S
C244 O236 1.252 . S
O245 In234 2.294 . S
O245 C238 1.240 . S
O246 In234 2.326 . S
O246 C238 1.252 . S
In247 O248 2.294 . S
In247 O249 2.326 . S
In247 O253 2.266 . S
In247 O254 2.326 . S
In247 O255 2.266 . S
In247 O256 2.326 . S
In247 O258 2.294 . S
In247 O259 2.326 . S
O248 In247 2.294 . S
O248 C257 1.240 . S
O249 In247 2.326 . S
O249 C257 1.252 . S
C250 O253 1.252 . S
C250 O254 1.260 . S
C251 O258 1.240 . S
C251 O259 1.252 . S
C252 O255 1.252 . S
C252 O256 1.260 . S
O253 In247 2.266 . S
O253 C250 1.252 . S
O254 In247 2.326 . S
O254 C250 1.260 . S
O255 In247 2.266 . S
O255 C252 1.252 . S
O256 In247 2.326 . S
O256 C252 1.260 . S
C257 O248 1.240 . S
C257 O249 1.252 . S
O258 In247 2.294 . S
O258 C251 1.240 . S
O259 In247 2.326 . S
O259 C251 1.252 . S
In260 O261 2.294 . S
In260 O262 2.326 . S
In260 O266 2.266 . S
In260 O267 2.326 . S
In260 O268 2.266 . S
In260 O269 2.326 . S
In260 O271 2.294 . S
In260 O272 2.326 . S
O261 In260 2.294 . S
O261 C270 1.240 . S
O262 In260 2.326 . S
O262 C270 1.252 . S
C263 O266 1.252 . S
C263 O267 1.260 . S
C264 O271 1.240 . S
C264 O272 1.252 . S
C265 O268 1.252 . S
C265 O269 1.260 . S
O266 In260 2.266 . S
O266 C263 1.252 . S
O267 In260 2.326 . S
O267 C263 1.260 . S
O268 In260 2.266 . S
O268 C265 1.252 . S
O269 In260 2.326 . S
O269 C265 1.260 . S
C270 O261 1.240 . S
C270 O262 1.252 . S
O271 In260 2.294 . S
O271 C264 1.240 . S
O272 In260 2.326 . S
O272 C264 1.252 . S
In273 O274 2.297 1_565 S
In273 O275 2.330 . S
In273 O279 2.264 1_564 S
In273 O280 2.322 1_554 S
In273 O281 2.265 1_554 S
In273 O282 2.325 1_554 S
In273 O284 2.294 . S
In273 O285 2.327 1_565 S
O274 In273 2.297 1_545 S
O274 C283 1.240 . S
O275 In273 2.330 . S
O275 C283 1.252 1_565 S
C276 O279 1.252 . S
C276 O280 1.260 1_545 S
C277 O284 1.240 . S
C277 O285 1.252 1_565 S
C278 O281 1.252 . S
C278 O282 1.260 . S
O279 In273 2.264 1_546 S
O279 C276 1.252 . S
O280 In273 2.322 1_556 S
O280 C276 1.260 1_565 S
O281 In273 2.265 1_556 S
O281 C278 1.252 . S
O282 In273 2.325 1_556 S
O282 C278 1.260 . S
C283 O274 1.240 . S
C283 O275 1.252 1_545 S
O284 In273 2.294 . S
O284 C277 1.240 . S
O285 In273 2.327 1_545 S
O285 C277 1.252 1_545 S
In286 O287 2.294 . S
In286 O288 2.327 . S
In286 O292 2.265 1_554 S
In286 O293 2.325 1_554 S
In286 O294 2.264 1_554 S
In286 O295 2.322 1_554 S
In286 O297 2.296 . S
In286 O298 2.330 . S
O287 In286 2.294 . S
O287 C296 1.240 . S
O288 In286 2.327 . S
O288 C296 1.252 . S
C289 O292 1.252 . S
C289 O293 1.260 . S
C290 O297 1.240 . S
C290 O298 1.252 . S
C291 O294 1.252 . S
C291 O295 1.260 . S
O292 In286 2.265 1_556 S
O292 C289 1.252 . S
O293 In286 2.325 1_556 S
O293 C289 1.260 . S
O294 In286 2.264 1_556 S
O294 C291 1.252 . S
O295 In286 2.322 1_556 S
O295 C291 1.260 . S
C296 O287 1.240 . S
C296 O288 1.252 . S
O297 In286 2.296 . S
O297 C290 1.240 . S
O298 In286 2.330 . S
O298 C290 1.252 . S
In299 O300 2.296 . S
In299 O301 2.330 . S
In299 O305 2.264 1_554 S
In299 O306 2.322 1_554 S
In299 O307 2.265 1_554 S
In299 O308 2.325 1_554 S
In299 O310 2.294 . S
In299 O311 2.327 . S
O300 In299 2.296 . S
O300 C309 1.240 . S
O301 In299 2.330 . S
O301 C309 1.252 . S
C302 O305 1.252 . S
C302 O306 1.260 . S
C303 O310 1.240 . S
C303 O311 1.252 . S
C304 O307 1.252 . S
C304 O308 1.260 . S
O305 In299 2.264 1_556 S
O305 C302 1.252 . S
O306 In299 2.322 1_556 S
O306 C302 1.260 . S
O307 In299 2.265 1_556 S
O307 C304 1.252 . S
O308 In299 2.325 1_556 S
O308 C304 1.260 . S
C309 O300 1.240 . S
C309 O301 1.252 . S
O310 In299 2.294 . S
O310 C303 1.240 . S
O311 In299 2.327 . S
O311 C303 1.252 . S
In312 O313 2.294 . S
In312 O314 2.326 . S
In312 O318 2.266 . S
In312 O319 2.326 . S
In312 O320 2.266 . S
In312 O321 2.326 . S
In312 O323 2.294 . S
In312 O324 2.326 . S
O313 In312 2.294 . S
O313 C322 1.240 . S
O314 In312 2.326 . S
O314 C322 1.252 . S
C315 O318 1.252 . S
C315 O319 1.260 . S
C316 O323 1.240 . S
C316 O324 1.252 . S
C317 O320 1.252 . S
C317 O321 1.260 . S
O318 In312 2.266 . S
O318 C315 1.252 . S
O319 In312 2.326 . S
O319 C315 1.260 . S
O320 In312 2.266 . S
O320 C317 1.252 . S
O321 In312 2.326 . S
O321 C317 1.260 . S
C322 O313 1.240 . S
C322 O314 1.252 . S
O323 In312 2.294 . S
O323 C316 1.240 . S
O324 In312 2.326 . S
O324 C316 1.252 . S
In325 O326 2.294 . S
In325 O327 2.326 . S
In325 O331 2.266 . S
In325 O332 2.326 . S
In325 O333 2.266 . S
In325 O334 2.326 . S
In325 O336 2.294 . S
In325 O337 2.326 . S
O326 In325 2.294 . S
O326 C335 1.240 . S
O327 In325 2.326 . S
O327 C335 1.252 . S
C328 O331 1.252 . S
C328 O332 1.260 . S
C329 O336 1.240 . S
C329 O337 1.252 . S
C330 O333 1.252 . S
C330 O334 1.260 . S
O331 In325 2.266 . S
O331 C328 1.252 . S
O332 In325 2.326 . S
O332 C328 1.260 . S
O333 In325 2.266 . S
O333 C330 1.252 . S
O334 In325 2.326 . S
O334 C330 1.260 . S
C335 O326 1.240 . S
C335 O327 1.252 . S
O336 In325 2.294 . S
O336 C329 1.240 . S
O337 In325 2.326 . S
O337 C329 1.252 . S
In338 O339 2.294 . S
In338 O340 2.326 . S
In338 O344 2.266 . S
In338 O345 2.326 . S
In338 O346 2.266 . S
In338 O347 2.326 . S
In338 O349 2.294 . S
In338 O350 2.326 . S
O339 In338 2.294 . S
O339 C348 1.240 . S
O340 In338 2.326 . S
O340 C348 1.252 . S
C341 O344 1.252 . S
C341 O345 1.260 . S
C342 O349 1.240 . S
C342 O350 1.252 . S
C343 O346 1.252 . S
C343 O347 1.260 . S
O344 In338 2.266 . S
O344 C341 1.252 . S
O345 In338 2.326 . S
O345 C341 1.260 . S
O346 In338 2.266 . S
O346 C343 1.252 . S
O347 In338 2.326 . S
O347 C343 1.260 . S
C348 O339 1.240 . S
C348 O340 1.252 . S
O349 In338 2.294 . S
O349 C342 1.240 . S
O350 In338 2.326 . S
O350 C342 1.252 . S
In351 O352 2.297 1_545 S
In351 O353 2.330 . S
In351 O357 2.264 1_546 S
In351 O358 2.322 1_556 S
In351 O359 2.265 1_556 S
In351 O360 2.325 1_556 S
In351 O362 2.294 . S
In351 O363 2.327 1_545 S
O352 In351 2.297 1_565 S
O352 C361 1.240 . S
O353 In351 2.330 . S
O353 C361 1.252 1_545 S
C354 O357 1.252 . S
C354 O358 1.260 1_565 S
C355 O362 1.240 . S
C355 O363 1.252 1_545 S
C356 O359 1.252 . S
C356 O360 1.260 . S
O357 In351 2.264 1_564 S
O357 C354 1.252 . S
O358 In351 2.322 1_554 S
O358 C354 1.260 1_545 S
O359 In351 2.265 1_554 S
O359 C356 1.252 . S
O360 In351 2.325 1_554 S
O360 C356 1.260 . S
C361 O352 1.240 . S
C361 O353 1.252 1_565 S
O362 In351 2.294 . S
O362 C355 1.240 . S
O363 In351 2.327 1_565 S
O363 C355 1.252 1_565 S
In364 O365 2.296 . S
In364 O366 2.330 . S
In364 O370 2.264 1_556 S
In364 O371 2.322 1_556 S
In364 O372 2.265 1_556 S
In364 O373 2.325 1_556 S
In364 O375 2.294 . S
In364 O376 2.327 . S
O365 In364 2.296 . S
O365 C374 1.240 . S
O366 In364 2.330 . S
O366 C374 1.252 . S
C367 O370 1.252 . S
C367 O371 1.260 . S
C368 O375 1.240 . S
C368 O376 1.252 . S
C369 O372 1.252 . S
C369 O373 1.260 . S
O370 In364 2.264 1_554 S
O370 C367 1.252 . S
O371 In364 2.322 1_554 S
O371 C367 1.260 . S
O372 In364 2.265 1_554 S
O372 C369 1.252 . S
O373 In364 2.325 1_554 S
O373 C369 1.260 . S
C374 O365 1.240 . S
C374 O366 1.252 . S
O375 In364 2.294 . S
O375 C368 1.240 . S
O376 In364 2.327 . S
O376 C368 1.252 . S
In377 O378 2.294 . S
In377 O379 2.327 . S
In377 O383 2.265 1_556 S
In377 O384 2.325 1_556 S
In377 O385 2.264 1_556 S
In377 O386 2.322 1_556 S
In377 O388 2.296 . S
In377 O389 2.330 . S
O378 In377 2.294 . S
O378 C387 1.240 . S
O379 In377 2.327 . S
O379 C387 1.252 . S
C380 O383 1.252 . S
C380 O384 1.260 . S
C381 O388 1.240 . S
C381 O389 1.252 . S
C382 O385 1.252 . S
C382 O386 1.260 . S
O383 In377 2.265 1_554 S
O383 C380 1.252 . S
O384 In377 2.325 1_554 S
O384 C380 1.260 . S
O385 In377 2.264 1_554 S
O385 C382 1.252 . S
O386 In377 2.322 1_554 S
O386 C382 1.260 . S
C387 O378 1.240 . S
C387 O379 1.252 . S
O388 In377 2.296 . S
O388 C381 1.240 . S
O389 In377 2.330 . S
O389 C381 1.252 . S
In390 O391 2.294 . S
In390 O392 2.327 1_655 S
In390 O396 2.265 . S
In390 O397 2.325 . S
In390 O398 2.267 1_655 S
In390 O399 2.326 . S
In390 O401 2.294 1_655 S
In390 O402 2.326 . S
O391 In390 2.294 . S
O391 C400 1.240 . S
O392 In390 2.327 1_455 S
O392 C400 1.252 1_455 S
C393 O396 1.252 . S
C393 O397 1.260 . S
C394 O401 1.240 . S
C394 O402 1.252 1_455 S
C395 O398 1.252 . S
C395 O399 1.260 1_455 S
O396 In390 2.265 . S
O396 C393 1.252 . S
O397 In390 2.325 . S
O397 C393 1.260 . S
O398 In390 2.267 1_455 S
O398 C395 1.252 . S
O399 In390 2.326 . S
O399 C395 1.260 1_655 S
C400 O391 1.240 . S
C400 O392 1.252 1_655 S
O401 In390 2.294 1_455 S
O401 C394 1.240 . S
O402 In390 2.326 . S
O402 C394 1.252 1_655 S
In403 O404 2.294 . S
In403 O405 2.326 . S
In403 O409 2.266 . S
In403 O410 2.326 . S
In403 O411 2.266 . S
In403 O412 2.326 . S
In403 O414 2.294 . S
In403 O415 2.326 . S
O404 In403 2.294 . S
O404 C413 1.240 . S
O405 In403 2.326 . S
O405 C413 1.252 . S
C406 O409 1.252 . S
C406 O410 1.260 . S
C407 O414 1.240 . S
C407 O415 1.252 . S
C408 O411 1.252 . S
C408 O412 1.260 . S
O409 In403 2.266 . S
O409 C406 1.252 . S
O410 In403 2.326 . S
O410 C406 1.260 . S
O411 In403 2.266 . S
O411 C408 1.252 . S
O412 In403 2.326 . S
O412 C408 1.260 . S
C413 O404 1.240 . S
C413 O405 1.252 . S
O414 In403 2.294 . S
O414 C407 1.240 . S
O415 In403 2.326 . S
O415 C407 1.252 . S
In416 O417 2.294 . S
In416 O418 2.326 . S
In416 O422 2.266 . S
In416 O423 2.326 . S
In416 O424 2.266 . S
In416 O425 2.326 . S
In416 O427 2.294 . S
In416 O428 2.326 . S
O417 In416 2.294 . S
O417 C426 1.240 . S
O418 In416 2.326 . S
O418 C426 1.252 . S
C419 O422 1.252 . S
C419 O423 1.260 . S
C420 O427 1.240 . S
C420 O428 1.252 . S
C421 O424 1.252 . S
C421 O425 1.260 . S
O422 In416 2.266 . S
O422 C419 1.252 . S
O423 In416 2.326 . S
O423 C419 1.260 . S
O424 In416 2.266 . S
O424 C421 1.252 . S
O425 In416 2.326 . S
O425 C421 1.260 . S
C426 O417 1.240 . S
C426 O418 1.252 . S
O427 In416 2.294 . S
O427 C420 1.240 . S
O428 In416 2.326 . S
O428 C420 1.252 . S
In429 O430 2.294 . S
In429 O431 2.326 . S
In429 O435 2.266 . S
In429 O436 2.326 . S
In429 O437 2.266 . S
In429 O438 2.326 . S
In429 O440 2.294 . S
In429 O441 2.326 . S
O430 In429 2.294 . S
O430 C439 1.240 . S
O431 In429 2.326 . S
O431 C439 1.252 . S
C432 O435 1.252 . S
C432 O436 1.260 . S
C433 O440 1.240 . S
C433 O441 1.252 . S
C434 O437 1.252 . S
C434 O438 1.260 . S
O435 In429 2.266 . S
O435 C432 1.252 . S
O436 In429 2.326 . S
O436 C432 1.260 . S
O437 In429 2.266 . S
O437 C434 1.252 . S
O438 In429 2.326 . S
O438 C434 1.260 . S
C439 O430 1.240 . S
C439 O431 1.252 . S
O440 In429 2.294 . S
O440 C433 1.240 . S
O441 In429 2.326 . S
O441 C433 1.252 . S
In442 O443 2.294 . S
In442 O444 2.326 . S
In442 O448 2.266 . S
In442 O449 2.326 . S
In442 O450 2.266 . S
In442 O451 2.326 . S
In442 O453 2.294 . S
In442 O454 2.326 . S
O443 In442 2.294 . S
O443 C452 1.240 . S
O444 In442 2.326 . S
O444 C452 1.252 . S
C445 O448 1.252 . S
C445 O449 1.260 . S
C446 O453 1.240 . S
C446 O454 1.252 . S
C447 O450 1.252 . S
C447 O451 1.260 . S
O448 In442 2.266 . S
O448 C445 1.252 . S
O449 In442 2.326 . S
O449 C445 1.260 . S
O450 In442 2.266 . S
O450 C447 1.252 . S
O451 In442 2.326 . S
O451 C447 1.260 . S
C452 O443 1.240 . S
C452 O444 1.252 . S
O453 In442 2.294 . S
O453 C446 1.240 . S
O454 In442 2.326 . S
O454 C446 1.252 . S
In455 O456 2.294 . S
In455 O457 2.326 . S
In455 O461 2.266 . S
In455 O462 2.326 . S
In455 O463 2.266 . S
In455 O464 2.326 . S
In455 O466 2.294 . S
In455 O467 2.326 . S
O456 In455 2.294 . S
O456 C465 1.240 . S
O457 In455 2.326 . S
O457 C465 1.252 . S
C458 O461 1.252 . S
C458 O462 1.260 . S
C459 O466 1.240 . S
C459 O467 1.252 . S
C460 O463 1.252 . S
C460 O464 1.260 . S
O461 In455 2.266 . S
O461 C458 1.252 . S
O462 In455 2.326 . S
O462 C458 1.260 . S
O463 In455 2.266 . S
O463 C460 1.252 . S
O464 In455 2.326 . S
O464 C460 1.260 . S
C465 O456 1.240 . S
C465 O457 1.252 . S
O466 In455 2.294 . S
O466 C459 1.240 . S
O467 In455 2.326 . S
O467 C459 1.252 . S
H468 C474 0.930 . S
H469 C477 0.930 . S
H470 C478 0.930 . S
H471 C479 0.930 . S
H472 C482 0.930 . S
H473 C483 0.930 . S
C474 H468 0.930 . S
C474 C475 1.355 . S
C474 C476 1.415 . S
C475 C474 1.355 . S
C475 C477 1.419 . S
C476 C474 1.415 . S
C476 C481 1.425 . S
C476 C483 1.409 . S
C477 H469 0.930 . S
C477 C475 1.419 . S
C477 C478 1.362 . S
C478 H470 0.930 . S
C478 C477 1.362 . S
C478 C481 1.409 . S
C479 H471 0.930 . S
C479 C480 1.355 . S
C479 C481 1.415 . S
C480 C479 1.355 . S
C480 C482 1.419 . S
C481 C476 1.425 . S
C481 C478 1.409 . S
C481 C479 1.415 . S
C482 H472 0.930 . S
C482 C480 1.419 . S
C482 C483 1.362 . S
C483 H473 0.930 . S
C483 C476 1.409 . S
C483 C482 1.362 . S
H484 C490 0.930 . S
H485 C493 0.930 . S
H486 C494 0.930 . S
H487 C495 0.930 . S
H488 C498 0.930 . S
H489 C499 0.930 . S
C490 H484 0.930 . S
C490 C491 1.355 . S
C490 C492 1.415 . S
C491 C490 1.355 . S
C491 C493 1.419 . S
C492 C490 1.415 . S
C492 C497 1.425 . S
C492 C499 1.409 . S
C493 H485 0.930 . S
C493 C491 1.419 . S
C493 C494 1.362 . S
C494 H486 0.930 . S
C494 C493 1.362 . S
C494 C497 1.409 . S
C495 H487 0.930 . S
C495 C496 1.355 . S
C495 C497 1.415 . S
C496 C495 1.355 . S
C496 C498 1.419 . S
C497 C492 1.425 . S
C497 C494 1.409 . S
C497 C495 1.415 . S
C498 H488 0.930 . S
C498 C496 1.419 . S
C498 C499 1.362 . S
C499 H489 0.930 . S
C499 C492 1.409 . S
C499 C498 1.362 . S
H500 C506 0.930 . S
H501 C509 0.930 . S
H502 C510 0.930 . S
H503 C511 0.930 . S
H504 C514 0.930 . S
H505 C515 0.930 . S
C506 H500 0.930 . S
C506 C507 1.355 . S
C506 C508 1.415 . S
C507 C506 1.355 . S
C507 C509 1.419 . S
C508 C506 1.415 . S
C508 C513 1.425 . S
C508 C515 1.409 . S
C509 H501 0.930 . S
C509 C507 1.419 . S
C509 C510 1.362 . S
C510 H502 0.930 . S
C510 C509 1.362 . S
C510 C513 1.409 . S
C511 H503 0.930 . S
C511 C512 1.355 . S
C511 C513 1.415 . S
C512 C511 1.355 . S
C512 C514 1.419 . S
C513 C508 1.425 . S
C513 C510 1.409 . S
C513 C511 1.415 . S
C514 H504 0.930 . S
C514 C512 1.419 . S
C514 C515 1.362 . S
C515 H505 0.930 . S
C515 C508 1.409 . S
C515 C514 1.362 . S
H516 C522 0.930 . S
H517 C525 0.930 1_556 S
H518 C526 0.930 . S
H519 C527 0.930 . S
H520 C530 0.930 . S
H521 C531 0.930 . S
C522 H516 0.930 . S
C522 C523 1.355 1_554 S
C522 C524 1.415 . S
C523 C522 1.355 1_556 S
C523 C525 1.419 1_556 S
C524 C522 1.415 . S
C524 C529 1.425 . S
C524 C531 1.409 . S
C525 H517 0.930 1_554 S
C525 C523 1.419 1_554 S
C525 C526 1.362 . S
C526 H518 0.930 . S
C526 C525 1.362 . S
C526 C529 1.409 . S
C527 H519 0.930 . S
C527 C528 1.355 . S
C527 C529 1.415 . S
C528 C527 1.355 . S
C528 C530 1.419 . S
C529 C524 1.425 . S
C529 C526 1.409 . S
C529 C527 1.415 . S
C530 H520 0.930 . S
C530 C528 1.419 . S
C530 C531 1.362 . S
C531 H521 0.930 . S
C531 C524 1.409 . S
C531 C530 1.362 . S
H532 C538 0.930 . S
H533 C541 0.930 . S
H534 C542 0.930 . S
H535 C543 0.930 . S
H536 C546 0.930 . S
H537 C547 0.930 . S
C538 H532 0.930 . S
C538 C539 1.355 . S
C538 C540 1.415 . S
C539 C538 1.355 . S
C539 C541 1.419 . S
C540 C538 1.415 . S
C540 C545 1.425 . S
C540 C547 1.409 . S
C541 H533 0.930 . S
C541 C539 1.419 . S
C541 C542 1.362 . S
C542 H534 0.930 . S
C542 C541 1.362 . S
C542 C545 1.409 . S
C543 H535 0.930 . S
C543 C544 1.355 1_554 S
C543 C545 1.415 . S
C544 C543 1.355 1_556 S
C544 C546 1.419 . S
C545 C540 1.425 . S
C545 C542 1.409 . S
C545 C543 1.415 . S
C546 H536 0.930 . S
C546 C544 1.419 . S
C546 C547 1.362 1_556 S
C547 H537 0.930 . S
C547 C540 1.409 . S
C547 C546 1.362 1_554 S
H548 C554 0.930 . S
H549 C557 0.930 . S
H550 C558 0.930 . S
H551 C559 0.930 . S
H552 C562 0.943 . S
H553 C563 0.930 . S
C554 H548 0.930 . S
C554 C555 1.355 . S
C554 C556 1.415 . S
C555 C554 1.355 . S
C555 C557 1.419 . S
C556 C554 1.415 . S
C556 C561 1.425 . S
C556 C563 1.409 . S
C557 H549 0.930 . S
C557 C555 1.419 . S
C557 C558 1.362 . S
C558 H550 0.930 . S
C558 C557 1.362 . S
C558 C561 1.409 . S
C559 H551 0.930 . S
C559 C560 1.355 1_554 S
C559 C561 1.415 . S
C560 C559 1.355 1_556 S
C560 C562 1.426 . S
C561 C556 1.425 . S
C561 C558 1.409 . S
C561 C559 1.415 . S
C562 H552 0.943 . S
C562 C560 1.426 . S
C562 C563 1.342 1_556 S
C563 H553 0.930 . S
C563 C556 1.409 . S
C563 C562 1.342 1_554 S
H564 C570 0.930 . S
H565 C573 0.930 . S
H566 C574 0.930 . S
H567 C575 0.930 . S
H568 C578 0.930 . S
H569 C579 0.930 . S
C570 H564 0.930 . S
C570 C571 1.355 . S
C570 C572 1.415 . S
C571 C570 1.355 . S
C571 C573 1.419 . S
C572 C570 1.415 . S
C572 C577 1.425 . S
C572 C579 1.409 . S
C573 H565 0.930 . S
C573 C571 1.419 . S
C573 C574 1.362 . S
C574 H566 0.930 . S
C574 C573 1.362 . S
C574 C577 1.409 . S
C575 H567 0.930 . S
C575 C576 1.355 . S
C575 C577 1.415 . S
C576 C575 1.355 . S
C576 C578 1.419 . S
C577 C572 1.425 . S
C577 C574 1.409 . S
C577 C575 1.415 . S
C578 H568 0.930 . S
C578 C576 1.419 . S
C578 C579 1.362 . S
C579 H569 0.930 . S
C579 C572 1.409 . S
C579 C578 1.362 . S
H580 C586 0.930 . S
H581 C589 0.930 . S
H582 C590 0.930 . S
H583 C591 0.930 . S
H584 C594 0.930 . S
H585 C595 0.930 . S
C586 H580 0.930 . S
C586 C587 1.355 . S
C586 C588 1.415 . S
C587 C586 1.355 . S
C587 C589 1.419 . S
C588 C586 1.415 . S
C588 C593 1.425 . S
C588 C595 1.409 . S
C589 H581 0.930 . S
C589 C587 1.419 . S
C589 C590 1.362 . S
C590 H582 0.930 . S
C590 C589 1.362 . S
C590 C593 1.409 . S
C591 H583 0.930 . S
C591 C592 1.355 . S
C591 C593 1.415 . S
C592 C591 1.355 . S
C592 C594 1.419 . S
C593 C588 1.425 . S
C593 C590 1.409 . S
C593 C591 1.415 . S
C594 H584 0.930 . S
C594 C592 1.419 . S
C594 C595 1.362 . S
C595 H585 0.930 . S
C595 C588 1.409 . S
C595 C594 1.362 . S
H596 C602 0.930 . S
H597 C605 0.930 . S
H598 C606 0.930 . S
H599 C607 0.930 . S
H600 C610 0.930 . S
H601 C611 0.930 . S
C602 H596 0.930 . S
C602 C603 1.355 . S
C602 C604 1.415 . S
C603 C602 1.355 . S
C603 C605 1.419 . S
C604 C602 1.415 . S
C604 C609 1.425 . S
C604 C611 1.409 . S
C605 H597 0.930 . S
C605 C603 1.419 . S
C605 C606 1.362 . S
C606 H598 0.930 . S
C606 C605 1.362 . S
C606 C609 1.409 . S
C607 H599 0.930 . S
C607 C608 1.355 . S
C607 C609 1.415 . S
C608 C607 1.355 . S
C608 C610 1.419 . S
C609 C604 1.425 . S
C609 C606 1.409 . S
C609 C607 1.415 . S
C610 H600 0.930 . S
C610 C608 1.419 . S
C610 C611 1.362 . S
C611 H601 0.930 . S
C611 C604 1.409 . S
C611 C610 1.362 . S
H612 C618 0.930 . S
H613 C621 0.930 . S
H614 C622 0.930 . S
H615 C623 0.930 . S
H616 C626 0.930 1_554 S
H617 C627 0.930 . S
C618 H612 0.930 . S
C618 C619 1.355 . S
C618 C620 1.415 . S
C619 C618 1.355 . S
C619 C621 1.419 . S
C620 C618 1.415 . S
C620 C625 1.425 . S
C620 C627 1.409 . S
C621 H613 0.930 . S
C621 C619 1.419 . S
C621 C622 1.362 . S
C622 H614 0.930 . S
C622 C621 1.362 . S
C622 C625 1.409 . S
C623 H615 0.930 . S
C623 C624 1.355 1_556 S
C623 C625 1.415 . S
C624 C623 1.355 1_554 S
C624 C626 1.419 1_554 S
C625 C620 1.425 . S
C625 C622 1.409 . S
C625 C623 1.415 . S
C626 H616 0.930 1_556 S
C626 C624 1.419 1_556 S
C626 C627 1.362 . S
C627 H617 0.930 . S
C627 C620 1.409 . S
C627 C626 1.362 . S
H628 C634 0.929 1_554 S
H629 C637 0.937 . S
H630 C638 0.930 . S
H631 C639 0.930 . S
H632 C642 0.930 . S
H633 C643 0.930 . S
C634 H628 0.929 1_556 S
C634 C635 1.355 1_556 S
C634 C636 1.415 . S
C635 C634 1.355 1_554 S
C635 C637 1.423 . S
C636 C634 1.415 . S
C636 C641 1.425 . S
C636 C643 1.409 . S
C637 H629 0.937 . S
C637 C635 1.423 . S
C637 C638 1.351 1_554 S
C638 H630 0.930 . S
C638 C637 1.351 1_556 S
C638 C641 1.409 . S
C639 H631 0.930 . S
C639 C640 1.355 . S
C639 C641 1.415 . S
C640 C639 1.355 . S
C640 C642 1.419 . S
C641 C636 1.425 . S
C641 C638 1.409 . S
C641 C639 1.415 . S
C642 H632 0.930 . S
C642 C640 1.419 . S
C642 C643 1.362 . S
C643 H633 0.930 . S
C643 C636 1.409 . S
C643 C642 1.362 . S
H644 C650 0.930 . S
H645 C653 0.930 . S
H646 C654 0.930 . S
H647 C655 0.930 . S
H648 C658 0.930 . S
H649 C659 0.930 . S
C650 H644 0.930 . S
C650 C651 1.355 . S
C650 C652 1.415 . S
C651 C650 1.355 . S
C651 C653 1.419 . S
C652 C650 1.415 . S
C652 C657 1.425 . S
C652 C659 1.409 . S
C653 H645 0.930 . S
C653 C651 1.419 . S
C653 C654 1.362 . S
C654 H646 0.930 . S
C654 C653 1.362 . S
C654 C657 1.409 . S
C655 H647 0.930 . S
C655 C656 1.355 1_556 S
C655 C657 1.415 . S
C656 C655 1.355 1_554 S
C656 C658 1.419 . S
C657 C652 1.425 . S
C657 C654 1.409 . S
C657 C655 1.415 . S
C658 H648 0.930 . S
C658 C656 1.419 . S
C658 C659 1.362 1_554 S
C659 H649 0.930 . S
C659 C652 1.409 . S
C659 C658 1.362 1_556 S
H660 C666 0.930 . S
H661 C669 0.930 . S
H662 C670 0.930 . S
H663 C671 0.930 1_455 S
H664 C674 0.930 . S
H665 C675 0.930 . S
C666 H660 0.930 . S
C666 C667 1.355 . S
C666 C668 1.415 . S
C667 C666 1.355 . S
C667 C669 1.419 1_655 S
C668 C666 1.415 . S
C668 C673 1.425 . S
C668 C675 1.409 . S
C669 H661 0.930 . S
C669 C667 1.419 1_455 S
C669 C670 1.362 . S
C670 H662 0.930 . S
C670 C669 1.362 . S
C670 C673 1.409 1_455 S
C671 H663 0.930 1_655 S
C671 C672 1.355 . S
C671 C673 1.415 . S
C672 C671 1.355 . S
C672 C674 1.419 . S
C673 C668 1.425 . S
C673 C670 1.409 1_655 S
C673 C671 1.415 . S
C674 H664 0.930 . S
C674 C672 1.419 . S
C674 C675 1.362 . S
C675 H665 0.930 . S
C675 C668 1.409 . S
C675 C674 1.362 . S
H676 C682 0.930 . S
H677 C685 0.930 . S
H678 C686 0.930 . S
H679 C687 0.930 . S
H680 C690 0.930 . S
H681 C691 0.930 . S
C682 H676 0.930 . S
C682 C683 1.355 . S
C682 C684 1.415 . S
C683 C682 1.355 . S
C683 C685 1.419 . S
C684 C682 1.415 . S
C684 C689 1.425 . S
C684 C691 1.409 . S
C685 H677 0.930 . S
C685 C683 1.419 . S
C685 C686 1.362 . S
C686 H678 0.930 . S
C686 C685 1.362 . S
C686 C689 1.409 . S
C687 H679 0.930 . S
C687 C688 1.355 . S
C687 C689 1.415 . S
C688 C687 1.355 . S
C688 C690 1.419 . S
C689 C684 1.425 . S
C689 C686 1.409 . S
C689 C687 1.415 . S
C690 H680 0.930 . S
C690 C688 1.419 . S
C690 C691 1.362 . S
C691 H681 0.930 . S
C691 C684 1.409 . S
C691 C690 1.362 . S
H692 C698 0.930 . S
H693 C701 0.930 . S
H694 C702 0.930 . S
H695 C703 0.930 . S
H696 C706 0.930 . S
H697 C707 0.930 . S
C698 H692 0.930 . S
C698 C699 1.355 . S
C698 C700 1.415 . S
C699 C698 1.355 . S
C699 C701 1.419 . S
C700 C698 1.415 . S
C700 C705 1.425 . S
C700 C707 1.409 . S
C701 H693 0.930 . S
C701 C699 1.419 . S
C701 C702 1.362 . S
C702 H694 0.930 . S
C702 C701 1.362 . S
C702 C705 1.409 . S
C703 H695 0.930 . S
C703 C704 1.355 . S
C703 C705 1.415 . S
C704 C703 1.355 . S
C704 C706 1.419 . S
C705 C700 1.425 . S
C705 C702 1.409 . S
C705 C703 1.415 . S
C706 H696 0.930 . S
C706 C704 1.419 . S
C706 C707 1.362 . S
C707 H697 0.930 . S
C707 C700 1.409 . S
C707 C706 1.362 . S
H708 C714 0.930 . S
H709 C717 0.930 . S
H710 C718 0.930 . S
H711 C719 0.930 . S
H712 C722 0.930 . S
H713 C723 0.930 . S
C714 H708 0.930 . S
C714 C715 1.355 . S
C714 C716 1.415 . S
C715 C714 1.355 . S
C715 C717 1.419 . S
C716 C714 1.415 . S
C716 C721 1.425 . S
C716 C723 1.409 . S
C717 H709 0.930 . S
C717 C715 1.419 . S
C717 C718 1.362 . S
C718 H710 0.930 . S
C718 C717 1.362 . S
C718 C721 1.409 . S
C719 H711 0.930 . S
C719 C720 1.355 . S
C719 C721 1.415 . S
C720 C719 1.355 . S
C720 C722 1.419 . S
C721 C716 1.425 . S
C721 C718 1.409 . S
C721 C719 1.415 . S
C722 H712 0.930 . S
C722 C720 1.419 . S
C722 C723 1.362 . S
C723 H713 0.930 . S
C723 C716 1.409 . S
C723 C722 1.362 . S
H724 C730 0.930 1_655 S
H725 C733 0.930 . S
H726 C734 0.930 . S
H727 C735 0.930 . S
H728 C738 0.930 . S
H729 C739 0.930 . S
C730 H724 0.930 1_455 S
C730 C731 1.355 . S
C730 C732 1.415 . S
C731 C730 1.355 . S
C731 C733 1.419 . S
C732 C730 1.415 . S
C732 C737 1.425 . S
C732 C739 1.409 1_455 S
C733 H725 0.930 . S
C733 C731 1.419 . S
C733 C734 1.362 . S
C734 H726 0.930 . S
C734 C733 1.362 . S
C734 C737 1.409 . S
C735 H727 0.930 . S
C735 C736 1.355 . S
C735 C737 1.415 . S
C736 C735 1.355 . S
C736 C738 1.419 1_455 S
C737 C732 1.425 . S
C737 C734 1.409 . S
C737 C735 1.415 . S
C738 H728 0.930 . S
C738 C736 1.419 1_655 S
C738 C739 1.362 . S
C739 H729 0.930 . S
C739 C732 1.409 1_655 S
C739 C738 1.362 . S
H740 C746 0.930 . S
H741 C749 0.930 . S
H742 C750 0.930 . S
H743 C751 0.930 . S
H744 C754 0.930 . S
H745 C755 0.930 . S
C746 H740 0.930 . S
C746 C747 1.355 . S
C746 C748 1.415 . S
C747 C746 1.355 . S
C747 C749 1.419 . S
C748 C746 1.415 . S
C748 C753 1.425 . S
C748 C755 1.409 . S
C749 H741 0.930 . S
C749 C747 1.419 . S
C749 C750 1.362 . S
C750 H742 0.930 . S
C750 C749 1.362 . S
C750 C753 1.409 . S
C751 H743 0.930 . S
C751 C752 1.355 . S
C751 C753 1.415 . S
C752 C751 1.355 . S
C752 C754 1.419 . S
C753 C748 1.425 . S
C753 C750 1.409 . S
C753 C751 1.415 . S
C754 H744 0.930 . S
C754 C752 1.419 . S
C754 C755 1.362 . S
C755 H745 0.930 . S
C755 C748 1.409 . S
C755 C754 1.362 . S
H756 C762 0.930 . S
H757 C765 0.930 . S
H758 C766 0.930 . S
H759 C767 0.930 . S
H760 C770 0.930 . S
H761 C771 0.930 . S
C762 H756 0.930 . S
C762 C763 1.355 . S
C762 C764 1.415 . S
C763 C762 1.355 . S
C763 C765 1.419 . S
C764 C762 1.415 . S
C764 C769 1.425 . S
C764 C771 1.409 . S
C765 H757 0.930 . S
C765 C763 1.419 . S
C765 C766 1.362 . S
C766 H758 0.930 . S
C766 C765 1.362 . S
C766 C769 1.409 . S
C767 H759 0.930 . S
C767 C768 1.355 . S
C767 C769 1.415 . S
C768 C767 1.355 . S
C768 C770 1.419 . S
C769 C764 1.425 . S
C769 C766 1.409 . S
C769 C767 1.415 . S
C770 H760 0.930 . S
C770 C768 1.419 . S
C770 C771 1.362 . S
C771 H761 0.930 . S
C771 C764 1.409 . S
C771 C770 1.362 . S
H772 C778 0.930 . S
H773 C781 0.930 . S
H774 C782 0.930 . S
H775 C783 0.930 . S
H776 C786 0.930 . S
H777 C787 0.930 . S
C778 H772 0.930 . S
C778 C779 1.355 . S
C778 C780 1.415 . S
C779 C778 1.355 . S
C779 C781 1.419 . S
C780 C778 1.415 . S
C780 C785 1.425 . S
C780 C787 1.409 . S
C781 H773 0.930 . S
C781 C779 1.419 . S
C781 C782 1.362 . S
C782 H774 0.930 . S
C782 C781 1.362 . S
C782 C785 1.409 . S
C783 H775 0.930 . S
C783 C784 1.355 . S
C783 C785 1.415 . S
C784 C783 1.355 . S
C784 C786 1.419 . S
C785 C780 1.425 . S
C785 C782 1.409 . S
C785 C783 1.415 . S
C786 H776 0.930 . S
C786 C784 1.419 . S
C786 C787 1.362 . S
C787 H777 0.930 . S
C787 C780 1.409 . S
C787 C786 1.362 . S
H788 C794 0.930 . S
H789 C797 0.930 . S
H790 C798 0.930 . S
H791 C799 0.930 . S
H792 C802 0.930 . S
H793 C803 0.930 . S
C794 H788 0.930 . S
C794 C795 1.355 . S
C794 C796 1.415 . S
C795 C794 1.355 . S
C795 C797 1.419 . S
C796 C794 1.415 . S
C796 C801 1.425 . S
C796 C803 1.409 . S
C797 H789 0.930 . S
C797 C795 1.419 . S
C797 C798 1.362 . S
C798 H790 0.930 . S
C798 C797 1.362 . S
C798 C801 1.409 . S
C799 H791 0.930 . S
C799 C800 1.355 . S
C799 C801 1.415 . S
C800 C799 1.355 . S
C800 C802 1.419 . S
C801 C796 1.425 . S
C801 C798 1.409 . S
C801 C799 1.415 . S
C802 H792 0.930 . S
C802 C800 1.419 . S
C802 C803 1.362 . S
C803 H793 0.930 . S
C803 C796 1.409 . S
C803 C802 1.362 . S
H804 C810 0.930 . S
H805 C813 0.930 . S
H806 C814 0.930 . S
H807 C815 0.930 . S
H808 C818 0.930 . S
H809 C819 0.930 . S
C810 H804 0.930 . S
C810 C811 1.355 . S
C810 C812 1.415 . S
C811 C810 1.355 . S
C811 C813 1.419 . S
C812 C810 1.415 . S
C812 C817 1.425 . S
C812 C819 1.409 . S
C813 H805 0.930 . S
C813 C811 1.419 . S
C813 C814 1.362 . S
C814 H806 0.930 . S
C814 C813 1.362 . S
C814 C817 1.409 . S
C815 H807 0.930 . S
C815 C816 1.355 . S
C815 C817 1.415 . S
C816 C815 1.355 . S
C816 C818 1.419 . S
C817 C812 1.425 . S
C817 C814 1.409 . S
C817 C815 1.415 . S
C818 H808 0.930 . S
C818 C816 1.419 . S
C818 C819 1.362 . S
C819 H809 0.930 . S
C819 C812 1.409 . S
C819 C818 1.362 . S
H820 C826 0.930 . S
H821 C829 0.930 . S
H822 C830 0.930 . S
H823 C831 0.930 . S
H824 C834 0.930 . S
H825 C835 0.930 . S
C826 H820 0.930 . S
C826 C827 1.355 . S
C826 C828 1.415 . S
C827 C826 1.355 . S
C827 C829 1.419 . S
C828 C826 1.415 . S
C828 C833 1.425 . S
C828 C835 1.409 . S
C829 H821 0.930 . S
C829 C827 1.419 . S
C829 C830 1.362 . S
C830 H822 0.930 . S
C830 C829 1.362 . S
C830 C833 1.409 . S
C831 H823 0.930 . S
C831 C832 1.355 . S
C831 C833 1.415 . S
C832 C831 1.355 . S
C832 C834 1.419 . S
C833 C828 1.425 . S
C833 C830 1.409 . S
C833 C831 1.415 . S
C834 H824 0.930 . S
C834 C832 1.419 . S
C834 C835 1.362 . S
C835 H825 0.930 . S
C835 C828 1.409 . S
C835 C834 1.362 . S
H836 C842 0.930 . S
H837 C845 0.930 . S
H838 C846 0.930 . S
H839 C847 0.930 . S
H840 C850 0.930 . S
H841 C851 0.930 . S
C842 H836 0.930 . S
C842 C843 1.355 . S
C842 C844 1.415 . S
C843 C842 1.355 . S
C843 C845 1.419 . S
C844 C842 1.415 . S
C844 C849 1.425 . S
C844 C851 1.409 . S
C845 H837 0.930 . S
C845 C843 1.419 . S
C845 C846 1.362 . S
C846 H838 0.930 . S
C846 C845 1.362 . S
C846 C849 1.409 . S
C847 H839 0.930 . S
C847 C848 1.355 . S
C847 C849 1.415 . S
C848 C847 1.355 . S
C848 C850 1.419 . S
C849 C844 1.425 . S
C849 C846 1.409 . S
C849 C847 1.415 . S
C850 H840 0.930 . S
C850 C848 1.419 . S
C850 C851 1.362 . S
C851 H841 0.930 . S
C851 C844 1.409 . S
C851 C850 1.362 . S
H852 C858 0.930 . S
H853 C861 0.930 . S
H854 C862 0.930 . S
H855 C863 0.930 . S
H856 C866 0.930 . S
H857 C867 0.930 . S
C858 H852 0.930 . S
C858 C859 1.355 . S
C858 C860 1.415 . S
C859 C858 1.355 . S
C859 C861 1.419 . S
C860 C858 1.415 . S
C860 C865 1.425 . S
C860 C867 1.409 . S
C861 H853 0.930 . S
C861 C859 1.419 . S
C861 C862 1.362 . S
C862 H854 0.930 . S
C862 C861 1.362 . S
C862 C865 1.409 . S
C863 H855 0.930 . S
C863 C864 1.355 . S
C863 C865 1.415 . S
C864 C863 1.355 . S
C864 C866 1.419 . S
C865 C860 1.425 . S
C865 C862 1.409 . S
C865 C863 1.415 . S
C866 H856 0.930 . S
C866 C864 1.419 . S
C866 C867 1.362 . S
C867 H857 0.930 . S
C867 C860 1.409 . S
C867 C866 1.362 . S
H868 C874 0.930 . S
H869 C877 0.930 . S
H870 C878 0.930 . S
H871 C879 0.930 . S
H872 C882 0.930 . S
H873 C883 0.930 . S
C874 H868 0.930 . S
C874 C875 1.355 . S
C874 C876 1.415 . S
C875 C874 1.355 . S
C875 C877 1.419 . S
C876 C874 1.415 . S
C876 C881 1.425 . S
C876 C883 1.409 . S
C877 H869 0.930 . S
C877 C875 1.419 . S
C877 C878 1.362 . S
C878 H870 0.930 . S
C878 C877 1.362 . S
C878 C881 1.409 . S
C879 H871 0.930 . S
C879 C880 1.355 . S
C879 C881 1.415 . S
C880 C879 1.355 . S
C880 C882 1.419 . S
C881 C876 1.425 . S
C881 C878 1.409 . S
C881 C879 1.415 . S
C882 H872 0.930 . S
C882 C880 1.419 . S
C882 C883 1.362 . S
C883 H873 0.930 . S
C883 C876 1.409 . S
C883 C882 1.362 . S
H884 C890 0.930 . S
H885 C893 0.930 . S
H886 C894 0.930 . S
H887 C895 0.930 . S
H888 C898 0.930 . S
H889 C899 0.930 . S
C890 H884 0.930 . S
C890 C891 1.355 . S
C890 C892 1.415 . S
C891 C890 1.355 . S
C891 C893 1.419 . S
C892 C890 1.415 . S
C892 C897 1.425 . S
C892 C899 1.409 . S
C893 H885 0.930 . S
C893 C891 1.419 . S
C893 C894 1.362 . S
C894 H886 0.930 . S
C894 C893 1.362 . S
C894 C897 1.409 . S
C895 H887 0.930 . S
C895 C896 1.355 . S
C895 C897 1.415 . S
C896 C895 1.355 . S
C896 C898 1.419 . S
C897 C892 1.425 . S
C897 C894 1.409 . S
C897 C895 1.415 . S
C898 H888 0.930 . S
C898 C896 1.419 . S
C898 C899 1.362 . S
C899 H889 0.930 . S
C899 C892 1.409 . S
C899 C898 1.362 . S
H900 C906 0.930 . S
H901 C909 0.930 . S
H902 C910 0.930 . S
H903 C911 0.930 . S
H904 C914 0.930 . S
H905 C915 0.930 . S
C906 H900 0.930 . S
C906 C907 1.355 . S
C906 C908 1.415 . S
C907 C906 1.355 . S
C907 C909 1.419 . S
C908 C906 1.415 . S
C908 C913 1.425 . S
C908 C915 1.409 . S
C909 H901 0.930 . S
C909 C907 1.419 . S
C909 C910 1.362 . S
C910 H902 0.930 . S
C910 C909 1.362 . S
C910 C913 1.409 . S
C911 H903 0.930 . S
C911 C912 1.355 . S
C911 C913 1.415 . S
C912 C911 1.355 . S
C912 C914 1.419 . S
C913 C908 1.425 . S
C913 C910 1.409 . S
C913 C911 1.415 . S
C914 H904 0.930 . S
C914 C912 1.419 . S
C914 C915 1.362 . S
C915 H905 0.930 . S
C915 C908 1.409 . S
C915 C914 1.362 . S
H916 C922 0.930 . S
H917 C925 0.930 . S
H918 C926 0.930 . S
H919 C927 0.930 . S
H920 C930 0.930 . S
H921 C931 0.930 . S
C922 H916 0.930 . S
C922 C923 1.355 . S
C922 C924 1.415 . S
C923 C922 1.355 . S
C923 C925 1.419 . S
C924 C922 1.415 . S
C924 C929 1.425 . S
C924 C931 1.409 . S
C925 H917 0.930 . S
C925 C923 1.419 . S
C925 C926 1.362 . S
C926 H918 0.930 . S
C926 C925 1.362 . S
C926 C929 1.409 . S
C927 H919 0.930 . S
C927 C928 1.355 . S
C927 C929 1.415 . S
C928 C927 1.355 . S
C928 C930 1.419 . S
C929 C924 1.425 . S
C929 C926 1.409 . S
C929 C927 1.415 . S
C930 H920 0.930 . S
C930 C928 1.419 . S
C930 C931 1.362 . S
C931 H921 0.930 . S
C931 C924 1.409 . S
C931 C930 1.362 . S
H932 C938 0.930 . S
H933 C941 0.930 . S
H934 C942 0.930 . S
H935 C943 0.930 . S
H936 C946 0.930 . S
H937 C947 0.930 . S
C938 H932 0.930 . S
C938 C939 1.355 . S
C938 C940 1.415 . S
C939 C938 1.355 . S
C939 C941 1.419 . S
C940 C938 1.415 . S
C940 C945 1.425 . S
C940 C947 1.409 . S
C941 H933 0.930 . S
C941 C939 1.419 . S
C941 C942 1.362 . S
C942 H934 0.930 . S
C942 C941 1.362 . S
C942 C945 1.409 . S
C943 H935 0.930 . S
C943 C944 1.355 . S
C943 C945 1.415 . S
C944 C943 1.355 . S
C944 C946 1.419 . S
C945 C940 1.425 . S
C945 C942 1.409 . S
C945 C943 1.415 . S
C946 H936 0.930 . S
C946 C944 1.419 . S
C946 C947 1.362 . S
C947 H937 0.930 . S
C947 C940 1.409 . S
C947 C946 1.362 . S
H948 C954 0.930 . S
H949 C957 0.930 . S
H950 C958 0.930 . S
H951 C959 0.930 . S
H952 C962 0.930 . S
H953 C963 0.930 . S
C954 H948 0.930 . S
C954 C955 1.355 . S
C954 C956 1.415 . S
C955 C954 1.355 . S
C955 C957 1.419 1_455 S
C956 C954 1.415 . S
C956 C961 1.425 1_455 S
C956 C963 1.409 . S
C957 H949 0.930 . S
C957 C955 1.419 1_655 S
C957 C958 1.362 . S
C958 H950 0.930 . S
C958 C957 1.362 . S
C958 C961 1.409 . S
C959 H951 0.930 . S
C959 C960 1.355 . S
C959 C961 1.415 . S
C960 C959 1.355 . S
C960 C962 1.419 1_655 S
C961 C956 1.425 1_655 S
C961 C958 1.409 . S
C961 C959 1.415 . S
C962 H952 0.930 . S
C962 C960 1.419 1_455 S
C962 C963 1.362 . S
C963 H953 0.930 . S
C963 C956 1.409 . S
C963 C962 1.362 . S
H964 C970 0.930 . S
H965 C973 0.930 . S
H966 C974 0.930 . S
H967 C975 0.930 . S
H968 C978 0.930 . S
H969 C979 0.930 . S
C970 H964 0.930 . S
C970 C971 1.355 . S
C970 C972 1.415 . S
C971 C970 1.355 . S
C971 C973 1.419 . S
C972 C970 1.415 . S
C972 C977 1.425 . S
C972 C979 1.409 . S
C973 H965 0.930 . S
C973 C971 1.419 . S
C973 C974 1.362 . S
C974 H966 0.930 . S
C974 C973 1.362 . S
C974 C977 1.409 . S
C975 H967 0.930 . S
C975 C976 1.355 . S
C975 C977 1.415 . S
C976 C975 1.355 . S
C976 C978 1.419 . S
C977 C972 1.425 . S
C977 C974 1.409 . S
C977 C975 1.415 . S
C978 H968 0.930 . S
C978 C976 1.419 . S
C978 C979 1.362 . S
C979 H969 0.930 . S
C979 C972 1.409 . S
C979 C978 1.362 . S
H980 C986 0.930 . S
H981 C989 0.930 . S
H982 C990 0.930 . S
H983 C991 0.930 . S
H984 C994 0.930 . S
H985 C995 0.930 . S
C986 H980 0.930 . S
C986 C987 1.355 . S
C986 C988 1.415 . S
C987 C986 1.355 . S
C987 C989 1.419 . S
C988 C986 1.415 . S
C988 C993 1.425 1_545 S
C988 C995 1.409 . S
C989 H981 0.930 . S
C989 C987 1.419 . S
C989 C990 1.362 1_545 S
C990 H982 0.930 . S
C990 C989 1.362 1_565 S
C990 C993 1.409 . S
C991 H983 0.930 . S
C991 C992 1.355 . S
C991 C993 1.415 . S
C992 C991 1.355 . S
C992 C994 1.419 . S
C993 C988 1.425 1_565 S
C993 C990 1.409 . S
C993 C991 1.415 . S
C994 H984 0.930 . S
C994 C992 1.419 . S
C994 C995 1.362 1_565 S
C995 H985 0.930 . S
C995 C988 1.409 . S
C995 C994 1.362 1_545 S
H996 C1002 0.930 . S
H997 C1005 0.930 . S
H998 C1006 0.931 . S
H999 C1007 0.930 . S
H1000 C1010 0.930 . S
H1001 C1011 0.932 . S
C1002 H996 0.930 . S
C1002 C1003 1.355 . S
C1002 C1004 1.415 . S
C1003 C1002 1.355 . S
C1003 C1005 1.419 1_545 S
C1004 C1002 1.415 . S
C1004 C1009 1.425 1_546 S
C1004 C1011 1.410 . S
C1005 H997 0.930 . S
C1005 C1003 1.419 1_565 S
C1005 C1006 1.361 1_556 S
C1006 H998 0.931 . S
C1006 C1005 1.361 1_554 S
C1006 C1009 1.410 . S
C1007 H999 0.930 . S
C1007 C1008 1.355 . S
C1007 C1009 1.415 . S
C1008 C1007 1.355 . S
C1008 C1010 1.419 1_565 S
C1009 C1004 1.425 1_564 S
C1009 C1006 1.410 . S
C1009 C1007 1.415 . S
C1010 H1000 0.930 . S
C1010 C1008 1.419 1_545 S
C1010 C1011 1.360 1_554 S
C1011 H1001 0.932 . S
C1011 C1004 1.410 . S
C1011 C1010 1.360 1_556 S
H1012 C1018 0.930 1_655 S
H1013 C1021 0.930 . S
H1014 C1022 0.930 . S
H1015 C1023 0.930 1_455 S
H1016 C1026 0.930 . S
H1017 C1027 0.930 1_554 S
C1018 H1012 0.930 1_455 S
C1018 C1019 1.355 . S
C1018 C1020 1.415 1_455 S
C1019 C1018 1.355 . S
C1019 C1021 1.419 . S
C1020 C1018 1.415 1_655 S
C1020 C1025 1.425 1_654 S
C1020 C1027 1.409 1_554 S
C1021 H1013 0.930 . S
C1021 C1019 1.419 . S
C1021 C1022 1.362 . S
C1022 H1014 0.930 . S
C1022 C1021 1.362 . S
C1022 C1025 1.409 1_554 S
C1023 H1015 0.930 1_655 S
C1023 C1024 1.355 . S
C1023 C1025 1.415 1_655 S
C1024 C1023 1.355 . S
C1024 C1026 1.419 . S
C1025 C1020 1.425 1_456 S
C1025 C1022 1.409 1_556 S
C1025 C1023 1.415 1_455 S
C1026 H1016 0.930 . S
C1026 C1024 1.419 . S
C1026 C1027 1.362 . S
C1027 H1017 0.930 1_556 S
C1027 C1020 1.409 1_556 S
C1027 C1026 1.362 . S
H1028 C1034 0.930 . S
H1029 C1037 0.930 . S
H1030 C1038 0.930 . S
H1031 C1039 0.930 . S
H1032 C1042 0.930 . S
H1033 C1043 0.930 . S
C1034 H1028 0.930 . S
C1034 C1035 1.355 1_556 S
C1034 C1036 1.415 . S
C1035 C1034 1.355 1_554 S
C1035 C1037 1.419 . S
C1036 C1034 1.415 . S
C1036 C1041 1.425 1_556 S
C1036 C1043 1.409 . S
C1037 H1029 0.930 . S
C1037 C1035 1.419 . S
C1037 C1038 1.362 . S
C1038 H1030 0.930 . S
C1038 C1037 1.362 . S
C1038 C1041 1.409 . S
C1039 H1031 0.930 . S
C1039 C1040 1.355 1_554 S
C1039 C1041 1.415 . S
C1040 C1039 1.355 1_556 S
C1040 C1042 1.419 . S
C1041 C1036 1.425 1_554 S
C1041 C1038 1.409 . S
C1041 C1039 1.415 . S
C1042 H1032 0.930 . S
C1042 C1040 1.419 . S
C1042 C1043 1.362 . S
C1043 H1033 0.930 . S
C1043 C1036 1.409 . S
C1043 C1042 1.362 . S
H1044 C1050 0.930 . S
H1045 C1053 0.930 . S
H1046 C1054 0.930 . S
H1047 C1055 0.930 . S
H1048 C1058 0.930 . S
H1049 C1059 0.930 . S
C1050 H1044 0.930 . S
C1050 C1051 1.355 . S
C1050 C1052 1.415 . S
C1051 C1050 1.355 . S
C1051 C1053 1.419 . S
C1052 C1050 1.415 . S
C1052 C1057 1.425 . S
C1052 C1059 1.409 . S
C1053 H1045 0.930 . S
C1053 C1051 1.419 . S
C1053 C1054 1.362 . S
C1054 H1046 0.930 . S
C1054 C1053 1.362 . S
C1054 C1057 1.409 . S
C1055 H1047 0.930 . S
C1055 C1056 1.355 . S
C1055 C1057 1.415 . S
C1056 C1055 1.355 . S
C1056 C1058 1.419 . S
C1057 C1052 1.425 . S
C1057 C1054 1.409 . S
C1057 C1055 1.415 . S
C1058 H1048 0.930 . S
C1058 C1056 1.419 . S
C1058 C1059 1.362 . S
C1059 H1049 0.930 . S
C1059 C1052 1.409 . S
C1059 C1058 1.362 . S
H1060 C1066 0.930 . S
H1061 C1069 0.930 . S
H1062 C1070 0.930 . S
H1063 C1071 0.930 . S
H1064 C1074 0.930 . S
H1065 C1075 0.930 . S
C1066 H1060 0.930 . S
C1066 C1067 1.355 . S
C1066 C1068 1.415 . S
C1067 C1066 1.355 . S
C1067 C1069 1.419 . S
C1068 C1066 1.415 . S
C1068 C1073 1.425 . S
C1068 C1075 1.409 . S
C1069 H1061 0.930 . S
C1069 C1067 1.419 . S
C1069 C1070 1.362 . S
C1070 H1062 0.930 . S
C1070 C1069 1.362 . S
C1070 C1073 1.409 . S
C1071 H1063 0.930 . S
C1071 C1072 1.355 . S
C1071 C1073 1.415 . S
C1072 C1071 1.355 . S
C1072 C1074 1.419 . S
C1073 C1068 1.425 . S
C1073 C1070 1.409 . S
C1073 C1071 1.415 . S
C1074 H1064 0.930 . S
C1074 C1072 1.419 . S
C1074 C1075 1.362 . S
C1075 H1065 0.930 . S
C1075 C1068 1.409 . S
C1075 C1074 1.362 . S
H1076 C1082 0.930 . S
H1077 C1085 0.930 . S
H1078 C1086 0.930 . S
H1079 C1087 0.930 . S
H1080 C1090 0.930 . S
H1081 C1091 0.930 1_556 S
C1082 H1076 0.930 . S
C1082 C1083 1.355 . S
C1082 C1084 1.415 . S
C1083 C1082 1.355 . S
C1083 C1085 1.419 . S
C1084 C1082 1.415 . S
C1084 C1089 1.425 . S
C1084 C1091 1.409 . S
C1085 H1077 0.930 . S
C1085 C1083 1.419 . S
C1085 C1086 1.362 . S
C1086 H1078 0.930 . S
C1086 C1085 1.362 . S
C1086 C1089 1.409 . S
C1087 H1079 0.930 . S
C1087 C1088 1.355 . S
C1087 C1089 1.415 . S
C1088 C1087 1.355 . S
C1088 C1090 1.419 1_554 S
C1089 C1084 1.425 . S
C1089 C1086 1.409 . S
C1089 C1087 1.415 . S
C1090 H1080 0.930 . S
C1090 C1088 1.419 1_556 S
C1090 C1091 1.362 1_556 S
C1091 H1081 0.930 1_554 S
C1091 C1084 1.409 . S
C1091 C1090 1.362 1_554 S
H1092 C1098 0.930 . S
H1093 C1101 0.930 . S
H1094 C1102 0.930 . S
H1095 C1103 0.930 . S
H1096 C1106 0.930 . S
H1097 C1107 0.930 . S
C1098 H1092 0.930 . S
C1098 C1099 1.355 . S
C1098 C1100 1.415 . S
C1099 C1098 1.355 . S
C1099 C1101 1.419 . S
C1100 C1098 1.415 . S
C1100 C1105 1.425 . S
C1100 C1107 1.409 . S
C1101 H1093 0.930 . S
C1101 C1099 1.419 . S
C1101 C1102 1.362 . S
C1102 H1094 0.930 . S
C1102 C1101 1.362 . S
C1102 C1105 1.409 . S
C1103 H1095 0.930 . S
C1103 C1104 1.355 . S
C1103 C1105 1.415 . S
C1104 C1103 1.355 . S
C1104 C1106 1.419 . S
C1105 C1100 1.425 . S
C1105 C1102 1.409 . S
C1105 C1103 1.415 . S
C1106 H1096 0.930 . S
C1106 C1104 1.419 . S
C1106 C1107 1.362 . S
C1107 H1097 0.930 . S
C1107 C1100 1.409 . S
C1107 C1106 1.362 . S
H1108 C1114 0.930 . S
H1109 C1117 0.930 . S
H1110 C1118 0.930 . S
H1111 C1119 0.930 . S
H1112 C1122 0.930 . S
H1113 C1123 0.930 . S
C1114 H1108 0.930 . S
C1114 C1115 1.355 . S
C1114 C1116 1.415 . S
C1115 C1114 1.355 . S
C1115 C1117 1.419 . S
C1116 C1114 1.415 . S
C1116 C1121 1.425 . S
C1116 C1123 1.409 . S
C1117 H1109 0.930 . S
C1117 C1115 1.419 . S
C1117 C1118 1.362 . S
C1118 H1110 0.930 . S
C1118 C1117 1.362 . S
C1118 C1121 1.409 . S
C1119 H1111 0.930 . S
C1119 C1120 1.355 . S
C1119 C1121 1.415 . S
C1120 C1119 1.355 . S
C1120 C1122 1.419 . S
C1121 C1116 1.425 . S
C1121 C1118 1.409 . S
C1121 C1119 1.415 . S
C1122 H1112 0.930 . S
C1122 C1120 1.419 . S
C1122 C1123 1.362 . S
C1123 H1113 0.930 . S
C1123 C1116 1.409 . S
C1123 C1122 1.362 . S
H1124 C1130 0.930 . S
H1125 C1133 0.930 . S
H1126 C1134 0.930 . S
H1127 C1135 0.930 . S
H1128 C1138 0.930 . S
H1129 C1139 0.930 . S
C1130 H1124 0.930 . S
C1130 C1131 1.355 . S
C1130 C1132 1.415 . S
C1131 C1130 1.355 . S
C1131 C1133 1.419 . S
C1132 C1130 1.415 . S
C1132 C1137 1.425 . S
C1132 C1139 1.409 . S
C1133 H1125 0.930 . S
C1133 C1131 1.419 . S
C1133 C1134 1.362 . S
C1134 H1126 0.930 . S
C1134 C1133 1.362 . S
C1134 C1137 1.409 . S
C1135 H1127 0.930 . S
C1135 C1136 1.355 . S
C1135 C1137 1.415 . S
C1136 C1135 1.355 . S
C1136 C1138 1.419 . S
C1137 C1132 1.425 . S
C1137 C1134 1.409 . S
C1137 C1135 1.415 . S
C1138 H1128 0.930 . S
C1138 C1136 1.419 . S
C1138 C1139 1.362 . S
C1139 H1129 0.930 . S
C1139 C1132 1.409 . S
C1139 C1138 1.362 . S
H1140 C1146 0.930 . S
H1141 C1149 0.930 . S
H1142 C1150 0.917 1_554 S
H1143 C1151 0.930 . S
H1144 C1154 0.930 . S
H1145 C1155 0.930 . S
C1146 H1140 0.930 . S
C1146 C1147 1.355 . S
C1146 C1148 1.415 . S
C1147 C1146 1.355 . S
C1147 C1149 1.419 1_556 S
C1148 C1146 1.415 . S
C1148 C1153 1.425 . S
C1148 C1155 1.409 . S
C1149 H1141 0.930 . S
C1149 C1147 1.419 1_554 S
C1149 C1150 1.359 1_554 S
C1150 H1142 0.917 1_556 S
C1150 C1149 1.359 1_556 S
C1150 C1153 1.426 . S
C1151 H1143 0.930 . S
C1151 C1152 1.355 . S
C1151 C1153 1.415 . S
C1152 C1151 1.355 . S
C1152 C1154 1.419 . S
C1153 C1148 1.425 . S
C1153 C1150 1.426 . S
C1153 C1151 1.415 . S
C1154 H1144 0.930 . S
C1154 C1152 1.419 . S
C1154 C1155 1.362 . S
C1155 H1145 0.930 . S
C1155 C1148 1.409 . S
C1155 C1154 1.362 . S
H1156 C1162 0.930 . S
H1157 C1165 0.930 . S
H1158 C1166 0.930 1_554 S
H1159 C1167 0.930 1_554 S
H1160 C1170 0.930 . S
H1161 C1171 0.930 . S
C1162 H1156 0.930 . S
C1162 C1163 1.355 . S
C1162 C1164 1.415 . S
C1163 C1162 1.355 . S
C1163 C1165 1.419 . S
C1164 C1162 1.415 . S
C1164 C1169 1.425 . S
C1164 C1171 1.409 . S
C1165 H1157 0.930 . S
C1165 C1163 1.419 . S
C1165 C1166 1.362 . S
C1166 H1158 0.930 1_556 S
C1166 C1165 1.362 . S
C1166 C1169 1.409 . S
C1167 H1159 0.930 1_556 S
C1167 C1168 1.355 . S
C1167 C1169 1.415 . S
C1168 C1167 1.355 . S
C1168 C1170 1.419 . S
C1169 C1164 1.425 . S
C1169 C1166 1.409 . S
C1169 C1167 1.415 . S
C1170 H1160 0.930 . S
C1170 C1168 1.419 . S
C1170 C1171 1.362 . S
C1171 H1161 0.930 . S
C1171 C1164 1.409 . S
C1171 C1170 1.362 . S
H1172 C1178 0.930 . S
H1173 C1181 0.930 . S
H1174 C1182 0.930 . S
H1175 C1183 0.930 . S
H1176 C1186 0.930 . S
H1177 C1187 0.930 . S
C1178 H1172 0.930 . S
C1178 C1179 1.355 . S
C1178 C1180 1.415 . S
C1179 C1178 1.355 . S
C1179 C1181 1.419 . S
C1180 C1178 1.415 . S
C1180 C1185 1.425 . S
C1180 C1187 1.409 . S
C1181 H1173 0.930 . S
C1181 C1179 1.419 . S
C1181 C1182 1.362 . S
C1182 H1174 0.930 . S
C1182 C1181 1.362 . S
C1182 C1185 1.409 . S
C1183 H1175 0.930 . S
C1183 C1184 1.355 . S
C1183 C1185 1.415 . S
C1184 C1183 1.355 . S
C1184 C1186 1.419 . S
C1185 C1180 1.425 . S
C1185 C1182 1.409 . S
C1185 C1183 1.415 . S
C1186 H1176 0.930 . S
C1186 C1184 1.419 . S
C1186 C1187 1.362 . S
C1187 H1177 0.930 . S
C1187 C1180 1.409 . S
C1187 C1186 1.362 . S
H1188 C1194 0.930 . S
H1189 C1197 0.930 . S
H1190 C1198 0.930 . S
H1191 C1199 0.930 . S
H1192 C1202 0.930 . S
H1193 C1203 0.930 . S
C1194 H1188 0.930 . S
C1194 C1195 1.355 . S
C1194 C1196 1.415 . S
C1195 C1194 1.355 . S
C1195 C1197 1.419 . S
C1196 C1194 1.415 . S
C1196 C1201 1.425 . S
C1196 C1203 1.409 . S
C1197 H1189 0.930 . S
C1197 C1195 1.419 . S
C1197 C1198 1.362 . S
C1198 H1190 0.930 . S
C1198 C1197 1.362 . S
C1198 C1201 1.409 . S
C1199 H1191 0.930 . S
C1199 C1200 1.355 . S
C1199 C1201 1.415 . S
C1200 C1199 1.355 . S
C1200 C1202 1.419 . S
C1201 C1196 1.425 . S
C1201 C1198 1.409 . S
C1201 C1199 1.415 . S
C1202 H1192 0.930 . S
C1202 C1200 1.419 . S
C1202 C1203 1.362 . S
C1203 H1193 0.930 . S
C1203 C1196 1.409 . S
C1203 C1202 1.362 . S
H1204 C1210 0.930 . S
H1205 C1213 0.930 . S
H1206 C1214 0.930 . S
H1207 C1215 0.930 . S
H1208 C1218 0.930 . S
H1209 C1219 0.930 . S
C1210 H1204 0.930 . S
C1210 C1211 1.355 . S
C1210 C1212 1.415 . S
C1211 C1210 1.355 . S
C1211 C1213 1.419 . S
C1212 C1210 1.415 . S
C1212 C1217 1.425 . S
C1212 C1219 1.409 . S
C1213 H1205 0.930 . S
C1213 C1211 1.419 . S
C1213 C1214 1.362 . S
C1214 H1206 0.930 . S
C1214 C1213 1.362 . S
C1214 C1217 1.409 . S
C1215 H1207 0.930 . S
C1215 C1216 1.355 . S
C1215 C1217 1.415 . S
C1216 C1215 1.355 . S
C1216 C1218 1.419 . S
C1217 C1212 1.425 . S
C1217 C1214 1.409 . S
C1217 C1215 1.415 . S
C1218 H1208 0.930 . S
C1218 C1216 1.419 . S
C1218 C1219 1.362 . S
C1219 H1209 0.930 . S
C1219 C1212 1.409 . S
C1219 C1218 1.362 . S
H1220 C1226 0.930 . S
H1221 C1229 0.930 . S
H1222 C1230 0.930 . S
H1223 C1231 0.930 . S
H1224 C1234 0.930 . S
H1225 C1235 0.930 . S
C1226 H1220 0.930 . S
C1226 C1227 1.355 . S
C1226 C1228 1.415 . S
C1227 C1226 1.355 . S
C1227 C1229 1.419 . S
C1228 C1226 1.415 . S
C1228 C1233 1.425 . S
C1228 C1235 1.409 . S
C1229 H1221 0.930 . S
C1229 C1227 1.419 . S
C1229 C1230 1.362 . S
C1230 H1222 0.930 . S
C1230 C1229 1.362 . S
C1230 C1233 1.409 . S
C1231 H1223 0.930 . S
C1231 C1232 1.355 . S
C1231 C1233 1.415 . S
C1232 C1231 1.355 . S
C1232 C1234 1.419 . S
C1233 C1228 1.425 . S
C1233 C1230 1.409 . S
C1233 C1231 1.415 . S
C1234 H1224 0.930 . S
C1234 C1232 1.419 . S
C1234 C1235 1.362 . S
C1235 H1225 0.930 . S
C1235 C1228 1.409 . S
C1235 C1234 1.362 . S
H1236 C1242 0.930 . S
H1237 C1245 0.930 . S
H1238 C1246 0.930 . S
H1239 C1247 0.930 . S
H1240 C1250 0.930 . S
H1241 C1251 0.930 . S
C1242 H1236 0.930 . S
C1242 C1243 1.355 . S
C1242 C1244 1.415 . S
C1243 C1242 1.355 . S
C1243 C1245 1.419 . S
C1244 C1242 1.415 . S
C1244 C1249 1.425 . S
C1244 C1251 1.409 . S
C1245 H1237 0.930 . S
C1245 C1243 1.419 . S
C1245 C1246 1.362 . S
C1246 H1238 0.930 . S
C1246 C1245 1.362 . S
C1246 C1249 1.409 . S
C1247 H1239 0.930 . S
C1247 C1248 1.355 . S
C1247 C1249 1.415 . S
C1248 C1247 1.355 . S
C1248 C1250 1.419 . S
C1249 C1244 1.425 . S
C1249 C1246 1.409 . S
C1249 C1247 1.415 . S
C1250 H1240 0.930 . S
C1250 C1248 1.419 . S
C1250 C1251 1.362 . S
C1251 H1241 0.930 . S
C1251 C1244 1.409 . S
C1251 C1250 1.362 . S
H1252 C1258 0.930 . S
H1253 C1261 0.930 . S
H1254 C1262 0.930 1_545 S
H1255 C1263 0.930 . S
H1256 C1266 0.930 . S
H1257 C1267 0.930 . S
C1258 H1252 0.930 . S
C1258 C1259 1.355 . S
C1258 C1260 1.415 . S
C1259 C1258 1.355 . S
C1259 C1261 1.419 . S
C1260 C1258 1.415 . S
C1260 C1265 1.425 1_565 S
C1260 C1267 1.409 . S
C1261 H1253 0.930 . S
C1261 C1259 1.419 . S
C1261 C1262 1.362 . S
C1262 H1254 0.930 1_565 S
C1262 C1261 1.362 . S
C1262 C1265 1.409 1_565 S
C1263 H1255 0.930 . S
C1263 C1264 1.355 . S
C1263 C1265 1.415 . S
C1264 C1263 1.355 . S
C1264 C1266 1.419 . S
C1265 C1260 1.425 1_545 S
C1265 C1262 1.409 1_545 S
C1265 C1263 1.415 . S
C1266 H1256 0.930 . S
C1266 C1264 1.419 . S
C1266 C1267 1.362 1_545 S
C1267 H1257 0.930 . S
C1267 C1260 1.409 . S
C1267 C1266 1.362 1_565 S
H1268 C1274 0.930 . S
H1269 C1277 0.930 . S
H1270 C1278 0.930 1_655 S
H1271 C1279 0.930 . S
H1272 C1282 0.930 . S
H1273 C1283 0.930 . S
C1274 H1268 0.930 . S
C1274 C1275 1.355 . S
C1274 C1276 1.415 . S
C1275 C1274 1.355 . S
C1275 C1277 1.419 . S
C1276 C1274 1.415 . S
C1276 C1281 1.425 1_455 S
C1276 C1283 1.409 1_455 S
C1277 H1269 0.930 . S
C1277 C1275 1.419 . S
C1277 C1278 1.362 . S
C1278 H1270 0.930 1_455 S
C1278 C1277 1.362 . S
C1278 C1281 1.409 1_455 S
C1279 H1271 0.930 . S
C1279 C1280 1.355 . S
C1279 C1281 1.415 . S
C1280 C1279 1.355 . S
C1280 C1282 1.419 . S
C1281 C1276 1.425 1_655 S
C1281 C1278 1.409 1_655 S
C1281 C1279 1.415 . S
C1282 H1272 0.930 . S
C1282 C1280 1.419 . S
C1282 C1283 1.362 . S
C1283 H1273 0.930 . S
C1283 C1276 1.409 1_655 S
C1283 C1282 1.362 . S
H1284 C1290 0.930 . S
H1285 C1293 0.930 . S
H1286 C1294 0.930 . S
H1287 C1295 0.930 . S
H1288 C1298 0.930 . S
H1289 C1299 0.930 . S
C1290 H1284 0.930 . S
C1290 C1291 1.355 . S
C1290 C1292 1.415 . S
C1291 C1290 1.355 . S
C1291 C1293 1.419 . S
C1292 C1290 1.415 . S
C1292 C1297 1.425 . S
C1292 C1299 1.409 . S
C1293 H1285 0.930 . S
C1293 C1291 1.419 . S
C1293 C1294 1.362 . S
C1294 H1286 0.930 . S
C1294 C1293 1.362 . S
C1294 C1297 1.409 . S
C1295 H1287 0.930 . S
C1295 C1296 1.355 . S
C1295 C1297 1.415 . S
C1296 C1295 1.355 . S
C1296 C1298 1.419 . S
C1297 C1292 1.425 . S
C1297 C1294 1.409 . S
C1297 C1295 1.415 . S
C1298 H1288 0.930 . S
C1298 C1296 1.419 . S
C1298 C1299 1.362 . S
C1299 H1289 0.930 . S
C1299 C1292 1.409 . S
C1299 C1298 1.362 . S
H1300 C1306 0.930 . S
H1301 C1309 0.930 . S
H1302 C1310 0.930 1_545 S
H1303 C1311 0.930 . S
H1304 C1314 0.930 . S
H1305 C1315 0.930 . S
C1306 H1300 0.930 . S
C1306 C1307 1.355 . S
C1306 C1308 1.415 . S
C1307 C1306 1.355 . S
C1307 C1309 1.419 . S
C1308 C1306 1.415 . S
C1308 C1313 1.425 1_565 S
C1308 C1315 1.409 1_565 S
C1309 H1301 0.930 . S
C1309 C1307 1.419 . S
C1309 C1310 1.362 . S
C1310 H1302 0.930 1_565 S
C1310 C1309 1.362 . S
C1310 C1313 1.409 1_565 S
C1311 H1303 0.930 . S
C1311 C1312 1.355 . S
C1311 C1313 1.415 . S
C1312 C1311 1.355 . S
C1312 C1314 1.419 . S
C1313 C1308 1.425 1_545 S
C1313 C1310 1.409 1_545 S
C1313 C1311 1.415 . S
C1314 H1304 0.930 . S
C1314 C1312 1.419 . S
C1314 C1315 1.362 . S
C1315 H1305 0.930 . S
C1315 C1308 1.409 1_545 S
C1315 C1314 1.362 . S
H1316 C1322 0.930 . S
H1317 C1325 0.930 . S
H1318 C1326 0.930 . S
H1319 C1327 0.930 . S
H1320 C1330 0.930 . S
H1321 C1331 0.937 . S
C1322 H1316 0.930 . S
C1322 C1323 1.355 . S
C1322 C1324 1.415 . S
C1323 C1322 1.355 . S
C1323 C1325 1.419 . S
C1324 C1322 1.415 . S
C1324 C1329 1.393 1_455 S
C1324 C1331 1.409 1_455 S
C1325 H1317 0.930 . S
C1325 C1323 1.419 . S
C1325 C1326 1.362 . S
C1326 H1318 0.930 . S
C1326 C1325 1.362 . S
C1326 C1329 1.394 1_455 S
C1327 H1319 0.930 . S
C1327 C1328 1.355 . S
C1327 C1329 1.461 . S
C1328 C1327 1.355 . S
C1328 C1330 1.419 . S
C1329 C1324 1.393 1_655 S
C1329 C1326 1.394 1_655 S
C1329 C1327 1.461 . S
C1330 H1320 0.930 . S
C1330 C1328 1.419 . S
C1330 C1331 1.362 . S
C1331 H1321 0.937 . S
C1331 C1324 1.409 1_655 S
C1331 C1330 1.362 . S
H1332 C1338 0.930 . S
H1333 C1341 0.930 1_554 S
H1334 C1342 0.930 . S
H1335 C1343 0.930 . S
H1336 C1346 0.930 . S
H1337 C1347 0.930 . S
C1338 H1332 0.930 . S
C1338 C1339 1.355 1_556 S
C1338 C1340 1.415 . S
C1339 C1338 1.355 1_554 S
C1339 C1341 1.419 1_554 S
C1340 C1338 1.415 . S
C1340 C1345 1.425 . S
C1340 C1347 1.409 . S
C1341 H1333 0.930 1_556 S
C1341 C1339 1.419 1_556 S
C1341 C1342 1.362 . S
C1342 H1334 0.930 . S
C1342 C1341 1.362 . S
C1342 C1345 1.409 . S
C1343 H1335 0.930 . S
C1343 C1344 1.355 . S
C1343 C1345 1.415 . S
C1344 C1343 1.355 . S
C1344 C1346 1.419 . S
C1345 C1340 1.425 . S
C1345 C1342 1.409 . S
C1345 C1343 1.415 . S
C1346 H1336 0.930 . S
C1346 C1344 1.419 . S
C1346 C1347 1.362 . S
C1347 H1337 0.930 . S
C1347 C1340 1.409 . S
C1347 C1346 1.362 . S
H1348 C1354 0.930 1_554 S
H1349 C1357 0.930 1_554 S
H1350 C1358 0.930 . S
H1351 C1359 0.930 . S
H1352 C1362 0.930 . S
H1353 C1363 0.930 . S
C1354 H1348 0.930 1_556 S
C1354 C1355 1.355 1_556 S
C1354 C1356 1.415 . S
C1355 C1354 1.355 1_554 S
C1355 C1357 1.419 1_554 S
C1356 C1354 1.415 . S
C1356 C1361 1.425 . S
C1356 C1363 1.409 . S
C1357 H1349 0.930 1_556 S
C1357 C1355 1.419 1_556 S
C1357 C1358 1.362 . S
C1358 H1350 0.930 . S
C1358 C1357 1.362 . S
C1358 C1361 1.409 . S
C1359 H1351 0.930 . S
C1359 C1360 1.355 . S
C1359 C1361 1.415 . S
C1360 C1359 1.355 . S
C1360 C1362 1.419 . S
C1361 C1356 1.425 . S
C1361 C1358 1.409 . S
C1361 C1359 1.415 . S
C1362 H1352 0.930 . S
C1362 C1360 1.419 . S
C1362 C1363 1.362 . S
C1363 H1353 0.930 . S
C1363 C1356 1.409 . S
C1363 C1362 1.362 . S
H1364 C1370 0.930 . S
H1365 C1373 0.934 . S
H1366 C1374 0.930 . S
H1367 C1375 0.930 . S
H1368 C1378 0.930 . S
H1369 C1379 0.930 . S
C1370 H1364 0.930 . S
C1370 C1371 1.355 1_556 S
C1370 C1372 1.415 . S
C1371 C1370 1.355 1_554 S
C1371 C1373 1.421 . S
C1372 C1370 1.415 . S
C1372 C1377 1.425 . S
C1372 C1379 1.409 . S
C1373 H1365 0.934 . S
C1373 C1371 1.421 . S
C1373 C1374 1.357 1_554 S
C1374 H1366 0.930 . S
C1374 C1373 1.357 1_556 S
C1374 C1377 1.409 . S
C1375 H1367 0.930 . S
C1375 C1376 1.355 . S
C1375 C1377 1.415 . S
C1376 C1375 1.355 . S
C1376 C1378 1.419 . S
C1377 C1372 1.425 . S
C1377 C1374 1.409 . S
C1377 C1375 1.415 . S
C1378 H1368 0.930 . S
C1378 C1376 1.419 . S
C1378 C1379 1.362 . S
C1379 H1369 0.930 . S
C1379 C1372 1.409 . S
C1379 C1378 1.362 . S
H1380 C1386 0.930 . S
H1381 C1389 0.930 . S
H1382 C1390 0.930 . S
H1383 C1391 0.930 . S
H1384 C1394 0.930 . S
H1385 C1395 0.930 . S
C1386 H1380 0.930 . S
C1386 C1387 1.355 . S
C1386 C1388 1.415 . S
C1387 C1386 1.355 . S
C1387 C1389 1.419 . S
C1388 C1386 1.415 . S
C1388 C1393 1.425 . S
C1388 C1395 1.409 . S
C1389 H1381 0.930 . S
C1389 C1387 1.419 . S
C1389 C1390 1.362 . S
C1390 H1382 0.930 . S
C1390 C1389 1.362 . S
C1390 C1393 1.409 . S
C1391 H1383 0.930 . S
C1391 C1392 1.355 . S
C1391 C1393 1.415 . S
C1392 C1391 1.355 . S
C1392 C1394 1.419 . S
C1393 C1388 1.425 . S
C1393 C1390 1.409 . S
C1393 C1391 1.415 . S
C1394 H1384 0.930 . S
C1394 C1392 1.419 . S
C1394 C1395 1.362 . S
C1395 H1385 0.930 . S
C1395 C1388 1.409 . S
C1395 C1394 1.362 . S
H1396 C1402 0.930 . S
H1397 C1405 0.930 . S
H1398 C1406 0.930 . S
H1399 C1407 0.930 . S
H1400 C1410 0.930 . S
H1401 C1411 0.930 . S
C1402 H1396 0.930 . S
C1402 C1403 1.355 . S
C1402 C1404 1.415 . S
C1403 C1402 1.355 . S
C1403 C1405 1.419 . S
C1404 C1402 1.415 . S
C1404 C1409 1.425 . S
C1404 C1411 1.409 . S
C1405 H1397 0.930 . S
C1405 C1403 1.419 . S
C1405 C1406 1.362 . S
C1406 H1398 0.930 . S
C1406 C1405 1.362 . S
C1406 C1409 1.409 . S
C1407 H1399 0.930 . S
C1407 C1408 1.355 . S
C1407 C1409 1.415 . S
C1408 C1407 1.355 . S
C1408 C1410 1.419 . S
C1409 C1404 1.425 . S
C1409 C1406 1.409 . S
C1409 C1407 1.415 . S
C1410 H1400 0.930 . S
C1410 C1408 1.419 . S
C1410 C1411 1.362 . S
C1411 H1401 0.930 . S
C1411 C1404 1.409 . S
C1411 C1410 1.362 . S
H1412 C1418 0.930 . S
H1413 C1421 0.930 . S
H1414 C1422 0.930 . S
H1415 C1423 0.930 . S
H1416 C1426 0.930 . S
H1417 C1427 0.930 . S
C1418 H1412 0.930 . S
C1418 C1419 1.355 . S
C1418 C1420 1.415 . S
C1419 C1418 1.355 . S
C1419 C1421 1.419 . S
C1420 C1418 1.415 . S
C1420 C1425 1.425 . S
C1420 C1427 1.409 . S
C1421 H1413 0.930 . S
C1421 C1419 1.419 . S
C1421 C1422 1.362 . S
C1422 H1414 0.930 . S
C1422 C1421 1.362 . S
C1422 C1425 1.409 . S
C1423 H1415 0.930 . S
C1423 C1424 1.355 . S
C1423 C1425 1.415 . S
C1424 C1423 1.355 . S
C1424 C1426 1.419 . S
C1425 C1420 1.425 . S
C1425 C1422 1.409 . S
C1425 C1423 1.415 . S
C1426 H1416 0.930 . S
C1426 C1424 1.419 . S
C1426 C1427 1.362 . S
C1427 H1417 0.930 . S
C1427 C1420 1.409 . S
C1427 C1426 1.362 . S
H1428 C1434 0.930 . S
H1429 C1437 0.930 . S
H1430 C1438 0.930 . S
H1431 C1439 0.930 . S
H1432 C1442 0.930 1_556 S
H1433 C1443 0.930 . S
C1434 H1428 0.930 . S
C1434 C1435 1.355 . S
C1434 C1436 1.415 . S
C1435 C1434 1.355 . S
C1435 C1437 1.419 . S
C1436 C1434 1.415 . S
C1436 C1441 1.425 . S
C1436 C1443 1.409 . S
C1437 H1429 0.930 . S
C1437 C1435 1.419 . S
C1437 C1438 1.362 . S
C1438 H1430 0.930 . S
C1438 C1437 1.362 . S
C1438 C1441 1.409 . S
C1439 H1431 0.930 . S
C1439 C1440 1.355 1_554 S
C1439 C1441 1.415 . S
C1440 C1439 1.355 1_556 S
C1440 C1442 1.419 1_556 S
C1441 C1436 1.425 . S
C1441 C1438 1.409 . S
C1441 C1439 1.415 . S
C1442 H1432 0.930 1_554 S
C1442 C1440 1.419 1_554 S
C1442 C1443 1.362 . S
C1443 H1433 0.930 . S
C1443 C1436 1.409 . S
C1443 C1442 1.362 . S
H1444 C1450 0.930 . S
H1445 C1453 0.930 . S
H1446 C1454 0.930 . S
H1447 C1455 0.930 . S
H1448 C1458 0.930 . S
H1449 C1459 0.930 . S
C1450 H1444 0.930 . S
C1450 C1451 1.355 . S
C1450 C1452 1.415 . S
C1451 C1450 1.355 . S
C1451 C1453 1.419 . S
C1452 C1450 1.415 . S
C1452 C1457 1.425 . S
C1452 C1459 1.409 . S
C1453 H1445 0.930 . S
C1453 C1451 1.419 . S
C1453 C1454 1.362 . S
C1454 H1446 0.930 . S
C1454 C1453 1.362 . S
C1454 C1457 1.409 . S
C1455 H1447 0.930 . S
C1455 C1456 1.355 1_554 S
C1455 C1457 1.415 . S
C1456 C1455 1.355 1_556 S
C1456 C1458 1.419 . S
C1457 C1452 1.425 . S
C1457 C1454 1.409 . S
C1457 C1455 1.415 . S
C1458 H1448 0.930 . S
C1458 C1456 1.419 . S
C1458 C1459 1.362 1_556 S
C1459 H1449 0.930 . S
C1459 C1452 1.409 . S
C1459 C1458 1.362 1_554 S
H1460 C1466 0.930 . S
H1461 C1469 0.930 . S
H1462 C1470 0.930 . S
H1463 C1471 0.929 1_556 S
H1464 C1474 0.930 1_556 S
H1465 C1475 0.930 . S
C1466 H1460 0.930 . S
C1466 C1467 1.355 . S
C1466 C1468 1.415 . S
C1467 C1466 1.355 . S
C1467 C1469 1.419 . S
C1468 C1466 1.415 . S
C1468 C1473 1.425 . S
C1468 C1475 1.409 . S
C1469 H1461 0.930 . S
C1469 C1467 1.419 . S
C1469 C1470 1.362 . S
C1470 H1462 0.930 . S
C1470 C1469 1.362 . S
C1470 C1473 1.409 . S
C1471 H1463 0.929 1_554 S
C1471 C1472 1.355 1_554 S
C1471 C1473 1.415 . S
C1472 C1471 1.355 1_556 S
C1472 C1474 1.419 1_556 S
C1473 C1468 1.425 . S
C1473 C1470 1.409 . S
C1473 C1471 1.415 . S
C1474 H1464 0.930 1_554 S
C1474 C1472 1.419 1_554 S
C1474 C1475 1.362 . S
C1475 H1465 0.930 . S
C1475 C1468 1.409 . S
C1475 C1474 1.362 . S
H1476 C1482 0.930 . S
H1477 C1485 0.930 . S
H1478 C1486 0.930 . S
H1479 C1487 0.930 . S
H1480 C1490 0.930 . S
H1481 C1491 0.930 . S
C1482 H1476 0.930 . S
C1482 C1483 1.355 . S
C1482 C1484 1.415 . S
C1483 C1482 1.355 . S
C1483 C1485 1.419 . S
C1484 C1482 1.415 . S
C1484 C1489 1.425 . S
C1484 C1491 1.409 . S
C1485 H1477 0.930 . S
C1485 C1483 1.419 . S
C1485 C1486 1.362 . S
C1486 H1478 0.930 . S
C1486 C1485 1.362 . S
C1486 C1489 1.409 . S
C1487 H1479 0.930 . S
C1487 C1488 1.355 . S
C1487 C1489 1.415 . S
C1488 C1487 1.355 . S
C1488 C1490 1.419 . S
C1489 C1484 1.425 . S
C1489 C1486 1.409 . S
C1489 C1487 1.415 . S
C1490 H1480 0.930 . S
C1490 C1488 1.419 . S
C1490 C1491 1.362 . S
C1491 H1481 0.930 . S
C1491 C1484 1.409 . S
C1491 C1490 1.362 . S
H1492 C1498 0.930 . S
H1493 C1501 0.930 . S
H1494 C1502 0.930 . S
H1495 C1503 0.930 . S
H1496 C1506 0.930 . S
H1497 C1507 0.930 . S
C1498 H1492 0.930 . S
C1498 C1499 1.355 . S
C1498 C1500 1.415 . S
C1499 C1498 1.355 . S
C1499 C1501 1.419 . S
C1500 C1498 1.415 . S
C1500 C1505 1.425 . S
C1500 C1507 1.409 . S
C1501 H1493 0.930 . S
C1501 C1499 1.419 . S
C1501 C1502 1.362 . S
C1502 H1494 0.930 . S
C1502 C1501 1.362 . S
C1502 C1505 1.409 . S
C1503 H1495 0.930 . S
C1503 C1504 1.355 . S
C1503 C1505 1.415 . S
C1504 C1503 1.355 . S
C1504 C1506 1.419 . S
C1505 C1500 1.425 . S
C1505 C1502 1.409 . S
C1505 C1503 1.415 . S
C1506 H1496 0.930 . S
C1506 C1504 1.419 . S
C1506 C1507 1.362 . S
C1507 H1497 0.930 . S
C1507 C1500 1.409 . S
C1507 C1506 1.362 . S
H1508 C1514 0.930 . S
H1509 C1517 0.930 . S
H1510 C1518 0.930 . S
H1511 C1519 0.930 . S
H1512 C1522 0.930 . S
H1513 C1523 0.930 . S
C1514 H1508 0.930 . S
C1514 C1515 1.355 . S
C1514 C1516 1.415 . S
C1515 C1514 1.355 . S
C1515 C1517 1.419 . S
C1516 C1514 1.415 . S
C1516 C1521 1.425 . S
C1516 C1523 1.409 . S
C1517 H1509 0.930 . S
C1517 C1515 1.419 . S
C1517 C1518 1.362 . S
C1518 H1510 0.930 . S
C1518 C1517 1.362 . S
C1518 C1521 1.409 . S
C1519 H1511 0.930 . S
C1519 C1520 1.355 . S
C1519 C1521 1.415 . S
C1520 C1519 1.355 . S
C1520 C1522 1.419 . S
C1521 C1516 1.425 . S
C1521 C1518 1.409 . S
C1521 C1519 1.415 . S
C1522 H1512 0.930 . S
C1522 C1520 1.419 . S
C1522 C1523 1.362 . S
C1523 H1513 0.930 . S
C1523 C1516 1.409 . S
C1523 C1522 1.362 . S
H1524 C1530 0.930 . S
H1525 C1533 0.930 . S
H1526 C1534 0.930 . S
H1527 C1535 0.930 1_455 S
H1528 C1538 0.930 . S
H1529 C1539 0.930 . S
C1530 H1524 0.930 . S
C1530 C1531 1.355 . S
C1530 C1532 1.415 . S
C1531 C1530 1.355 . S
C1531 C1533 1.419 1_655 S
C1532 C1530 1.415 . S
C1532 C1537 1.425 . S
C1532 C1539 1.409 . S
C1533 H1525 0.930 . S
C1533 C1531 1.419 1_455 S
C1533 C1534 1.362 . S
C1534 H1526 0.930 . S
C1534 C1533 1.362 . S
C1534 C1537 1.409 1_455 S
C1535 H1527 0.930 1_655 S
C1535 C1536 1.355 . S
C1535 C1537 1.415 . S
C1536 C1535 1.355 . S
C1536 C1538 1.419 . S
C1537 C1532 1.425 . S
C1537 C1534 1.409 1_655 S
C1537 C1535 1.415 . S
C1538 H1528 0.930 . S
C1538 C1536 1.419 . S
C1538 C1539 1.362 . S
C1539 H1529 0.930 . S
C1539 C1532 1.409 . S
C1539 C1538 1.362 . S
H1540 C1546 0.930 . S
H1541 C1549 0.930 . S
H1542 C1550 0.930 . S
H1543 C1551 0.930 . S
H1544 C1554 0.930 . S
H1545 C1555 0.930 . S
C1546 H1540 0.930 . S
C1546 C1547 1.355 . S
C1546 C1548 1.415 . S
C1547 C1546 1.355 . S
C1547 C1549 1.419 . S
C1548 C1546 1.415 . S
C1548 C1553 1.425 . S
C1548 C1555 1.409 . S
C1549 H1541 0.930 . S
C1549 C1547 1.419 . S
C1549 C1550 1.362 . S
C1550 H1542 0.930 . S
C1550 C1549 1.362 . S
C1550 C1553 1.409 . S
C1551 H1543 0.930 . S
C1551 C1552 1.355 . S
C1551 C1553 1.415 . S
C1552 C1551 1.355 . S
C1552 C1554 1.419 . S
C1553 C1548 1.425 . S
C1553 C1550 1.409 . S
C1553 C1551 1.415 . S
C1554 H1544 0.930 . S
C1554 C1552 1.419 . S
C1554 C1555 1.362 . S
C1555 H1545 0.930 . S
C1555 C1548 1.409 . S
C1555 C1554 1.362 . S
H1556 C1562 0.930 1_545 S
H1557 C1565 0.930 . S
H1558 C1566 0.930 . S
H1559 C1567 0.930 . S
H1560 C1570 0.930 . S
H1561 C1571 0.930 . S
C1562 H1556 0.930 1_565 S
C1562 C1563 1.355 . S
C1562 C1564 1.415 . S
C1563 C1562 1.355 . S
C1563 C1565 1.419 . S
C1564 C1562 1.415 . S
C1564 C1569 1.425 . S
C1564 C1571 1.409 1_565 S
C1565 H1557 0.930 . S
C1565 C1563 1.419 . S
C1565 C1566 1.362 . S
C1566 H1558 0.930 . S
C1566 C1565 1.362 . S
C1566 C1569 1.409 . S
C1567 H1559 0.930 . S
C1567 C1568 1.355 . S
C1567 C1569 1.415 . S
C1568 C1567 1.355 . S
C1568 C1570 1.419 1_565 S
C1569 C1564 1.425 . S
C1569 C1566 1.409 . S
C1569 C1567 1.415 . S
C1570 H1560 0.930 . S
C1570 C1568 1.419 1_545 S
C1570 C1571 1.362 . S
C1571 H1561 0.930 . S
C1571 C1564 1.409 1_545 S
C1571 C1570 1.362 . S
H1572 C1578 0.930 . S
H1573 C1581 0.930 . S
H1574 C1582 0.930 . S
H1575 C1583 0.930 . S
H1576 C1586 0.930 . S
H1577 C1587 0.930 . S
C1578 H1572 0.930 . S
C1578 C1579 1.355 . S
C1578 C1580 1.415 . S
C1579 C1578 1.355 . S
C1579 C1581 1.419 . S
C1580 C1578 1.415 . S
C1580 C1585 1.425 . S
C1580 C1587 1.409 . S
C1581 H1573 0.930 . S
C1581 C1579 1.419 . S
C1581 C1582 1.362 . S
C1582 H1574 0.930 . S
C1582 C1581 1.362 . S
C1582 C1585 1.409 . S
C1583 H1575 0.930 . S
C1583 C1584 1.355 . S
C1583 C1585 1.415 . S
C1584 C1583 1.355 . S
C1584 C1586 1.419 . S
C1585 C1580 1.425 . S
C1585 C1582 1.409 . S
C1585 C1583 1.415 . S
C1586 H1576 0.930 . S
C1586 C1584 1.419 . S
C1586 C1587 1.362 . S
C1587 H1577 0.930 . S
C1587 C1580 1.409 . S
C1587 C1586 1.362 . S
H1588 C1594 0.930 1_655 S
H1589 C1597 0.930 . S
H1590 C1598 0.930 . S
H1591 C1599 0.930 . S
H1592 C1602 0.930 . S
H1593 C1603 0.930 . S
C1594 H1588 0.930 1_455 S
C1594 C1595 1.355 . S
C1594 C1596 1.415 . S
C1595 C1594 1.355 . S
C1595 C1597 1.419 . S
C1596 C1594 1.415 . S
C1596 C1601 1.425 . S
C1596 C1603 1.409 1_455 S
C1597 H1589 0.930 . S
C1597 C1595 1.419 . S
C1597 C1598 1.362 . S
C1598 H1590 0.930 . S
C1598 C1597 1.362 . S
C1598 C1601 1.409 . S
C1599 H1591 0.930 . S
C1599 C1600 1.355 . S
C1599 C1601 1.415 . S
C1600 C1599 1.355 . S
C1600 C1602 1.419 1_455 S
C1601 C1596 1.425 . S
C1601 C1598 1.409 . S
C1601 C1599 1.415 . S
C1602 H1592 0.930 . S
C1602 C1600 1.419 1_655 S
C1602 C1603 1.362 . S
C1603 H1593 0.930 . S
C1603 C1596 1.409 1_655 S
C1603 C1602 1.362 . S
H1604 C1610 0.930 . S
H1605 C1613 0.930 . S
H1606 C1614 0.930 . S
H1607 C1615 0.930 . S
H1608 C1618 0.930 . S
H1609 C1619 0.930 . S
C1610 H1604 0.930 . S
C1610 C1611 1.355 . S
C1610 C1612 1.415 . S
C1611 C1610 1.355 . S
C1611 C1613 1.419 . S
C1612 C1610 1.415 . S
C1612 C1617 1.425 . S
C1612 C1619 1.409 . S
C1613 H1605 0.930 . S
C1613 C1611 1.419 . S
C1613 C1614 1.362 . S
C1614 H1606 0.930 . S
C1614 C1613 1.362 . S
C1614 C1617 1.409 . S
C1615 H1607 0.930 . S
C1615 C1616 1.355 . S
C1615 C1617 1.415 . S
C1616 C1615 1.355 . S
C1616 C1618 1.419 . S
C1617 C1612 1.425 . S
C1617 C1614 1.409 . S
C1617 C1615 1.415 . S
C1618 H1608 0.930 . S
C1618 C1616 1.419 . S
C1618 C1619 1.362 . S
C1619 H1609 0.930 . S
C1619 C1612 1.409 . S
C1619 C1618 1.362 . S
C475 C212 1.597 . S
C480 C10 1.607 . S
C491 C225 1.606 . S
C496 C17 1.623 . S
C507 C205 1.625 . S
C512 C30 1.622 . S
C523 C342 1.564 . S
C528 C43 1.567 . S
C539 C62 1.592 . S
C544 C322 1.565 . S
C555 C75 1.571 . S
C560 C329 1.590 . S
C571 C88 1.583 . S
C576 C452 1.597 . S
C587 C459 1.601 . S
C592 C95 1.580 . S
C603 C439 1.586 . S
C608 C108 1.613 . S
C619 C121 1.601 . S
C624 C270 1.592 . S
C635 C244 1.574 . S
C640 C134 1.570 . S
C651 C153 1.592 . S
C656 C257 1.572 . S
C667 C374 1.563 . S
C672 C166 1.548 . S
C683 C179 1.536 . S
C688 C381 1.548 . S
C699 C361 1.520 . S
C704 C192 1.536 . S
C715 C420 1.536 . S
C720 C283 1.519 . S
C731 C394 1.547 . S
C736 C290 1.562 . S
C747 C309 1.536 . S
C752 C413 1.544 . S
C763 C238 1.333 . S
C768 C4 1.335 . S
C779 C251 1.454 . S
C784 C23 1.452 . S
C795 C264 1.754 . S
C800 C36 1.765 . S
C811 C49 1.367 . S
C816 C433 1.367 . S
C827 C56 1.733 . S
C832 C446 1.735 . S
C843 C69 1.502 . S
C848 C465 1.505 . S
C859 C82 1.335 . S
C864 C316 1.334 . S
C875 C335 1.488 . S
C880 C101 1.488 . S
C891 C348 1.713 . S
C896 C114 1.726 . S
C907 C199 1.362 . S
C912 C127 1.362 . S
C923 C140 1.798 . S
C928 C218 1.800 . S
C939 C147 1.448 . S
C944 C231 1.457 . S
C955 C160 1.365 . S
C960 C400 1.372 . S
C971 C407 1.438 . S
C976 C173 1.438 . S
C987 C426 1.570 . S
C992 C186 1.570 . S
C1003 C355 1.403 . S
C1008 C277 1.412 . S
C1019 C296 1.726 . S
C1024 C368 1.726 . S
C1035 C303 1.518 . S
C1040 C387 1.517 . S
C1051 C356 1.474 . S
C1056 C5 1.459 . S
C1067 C16 1.418 . S
C1072 C369 1.415 . S
C1083 C29 1.357 . S
C1088 C380 1.440 . S
C1099 C161 1.450 . S
C1104 C42 1.435 . S
C1115 C57 1.368 . S
C1120 C174 1.452 . S
C1131 C70 1.380 . S
C1136 C187 1.307 . S
C1147 C278 1.480 . S
C1152 C83 1.470 . S
C1163 C94 1.410 . S
C1168 C289 1.391 . S
C1179 C304 1.422 . S
C1184 C107 1.333 . S
C1195 C120 1.443 . S
C1200 C393 1.443 . S
C1211 C408 1.465 . S
C1216 C133 1.436 . S
C1227 C419 1.358 . S
C1232 C148 1.353 . S
C1243 C317 1.474 . S
C1248 C200 1.461 . S
C1259 C328 1.482 . S
C1264 C211 1.450 . S
C1275 C341 1.379 . S
C1280 C224 1.482 . S
C1291 C239 1.462 . S
C1296 C434 1.473 . S
C1307 C447 1.409 . S
C1312 C252 1.488 . S
C1323 C458 1.480 . S
C1328 C265 1.375 . S
C1339 C3 1.074 . S
C1344 C213 1.085 . S
C1355 C18 1.056 . S
C1360 C226 1.086 . S
C1371 C31 0.996 . S
C1376 C198 1.002 . S
C1387 C343 1.029 . S
C1392 C44 1.017 . S
C1403 C315 1.032 . S
C1408 C55 1.019 . S
C1419 C330 1.108 . S
C1424 C68 1.112 . S
C1435 C445 1.034 . S
C1440 C81 1.060 . S
C1451 C460 1.024 . S
C1456 C96 1.002 . S
C1467 C432 1.092 . S
C1472 C109 1.090 . S
C1483 C122 1.059 . S
C1488 C263 1.089 . S
C1499 C135 1.088 . S
C1504 C237 1.103 . S
C1515 C146 1.111 . S
C1520 C250 1.109 . S
C1531 C367 1.130 . S
C1536 C159 1.148 . S
C1547 C382 1.143 . S
C1552 C172 1.118 . S
C1563 C185 1.091 . S
C1568 C354 1.076 . S
C1579 C276 1.135 . S
C1584 C421 1.166 . S
C1595 C395 1.137 . S
C1600 C291 1.150 . S
C1611 C406 1.149 . S
C1616 C302 1.165 . S
