# Generated by pormake.
# Topology svh, (7)-cn, num edge types: 1
# Building blocks:
#     Node 0, Type 0, BuildingBlock: HICVOG_clean_sbu_0, # of connection points: 7
#     Node 1, Type 0, BuildingBlock: HICVOG_clean_sbu_0, # of connection points: 7
#     Node 2, Type 0, BuildingBlock: HICVOG_clean_sbu_0, # of connection points: 7
#     Node 3, Type 0, BuildingBlock: HICVOG_clean_sbu_0, # of connection points: 7
#     Node 4, Type 0, BuildingBlock: HICVOG_clean_sbu_0, # of connection points: 7
#     Node 5, Type 0, BuildingBlock: HICVOG_clean_sbu_0, # of connection points: 7
#     Node 6, Type 0, BuildingBlock: HICVOG_clean_sbu_0, # of connection points: 7
#     Node 7, Type 0, BuildingBlock: HICVOG_clean_sbu_0, # of connection points: 7
#     Edge 8, Type (0, 0), BuildingBlock: AJUNOK_clean_linker_0, # of connection points: 2
#     Edge 9, Type (0, 0), BuildingBlock: AJUNOK_clean_linker_0, # of connection points: 2
#     Edge 10, Type (0, 0), BuildingBlock: AJUNOK_clean_linker_0, # of connection points: 2
#     Edge 11, Type (0, 0), BuildingBlock: AJUNOK_clean_linker_0, # of connection points: 2
#     Edge 12, Type (0, 0), BuildingBlock: AJUNOK_clean_linker_0, # of connection points: 2
#     Edge 13, Type (0, 0), BuildingBlock: AJUNOK_clean_linker_0, # of connection points: 2
#     Edge 14, Type (0, 0), BuildingBlock: AJUNOK_clean_linker_0, # of connection points: 2
#     Edge 15, Type (0, 0), BuildingBlock: AJUNOK_clean_linker_0, # of connection points: 2
#     Edge 16, Type (0, 0), BuildingBlock: AJUNOK_clean_linker_0, # of connection points: 2
#     Edge 17, Type (0, 0), BuildingBlock: AJUNOK_clean_linker_0, # of connection points: 2
#     Edge 18, Type (0, 0), BuildingBlock: AJUNOK_clean_linker_0, # of connection points: 2
#     Edge 19, Type (0, 0), BuildingBlock: AJUNOK_clean_linker_0, # of connection points: 2
#     Edge 20, Type (0, 0), BuildingBlock: AJUNOK_clean_linker_0, # of connection points: 2
#     Edge 21, Type (0, 0), BuildingBlock: AJUNOK_clean_linker_0, # of connection points: 2
#     Edge 22, Type (0, 0), BuildingBlock: AJUNOK_clean_linker_0, # of connection points: 2
#     Edge 23, Type (0, 0), BuildingBlock: AJUNOK_clean_linker_0, # of connection points: 2
#     Edge 24, Type (0, 0), BuildingBlock: AJUNOK_clean_linker_0, # of connection points: 2
#     Edge 25, Type (0, 0), BuildingBlock: AJUNOK_clean_linker_0, # of connection points: 2
#     Edge 26, Type (0, 0), BuildingBlock: AJUNOK_clean_linker_0, # of connection points: 2
#     Edge 27, Type (0, 0), BuildingBlock: AJUNOK_clean_linker_0, # of connection points: 2
#     Edge 28, Type (0, 0), BuildingBlock: AJUNOK_clean_linker_0, # of connection points: 2
#     Edge 29, Type (0, 0), BuildingBlock: AJUNOK_clean_linker_0, # of connection points: 2
#     Edge 30, Type (0, 0), BuildingBlock: AJUNOK_clean_linker_0, # of connection points: 2
#     Edge 31, Type (0, 0), BuildingBlock: AJUNOK_clean_linker_0, # of connection points: 2
#     Edge 32, Type (0, 0), BuildingBlock: AJUNOK_clean_linker_0, # of connection points: 2
#     Edge 33, Type (0, 0), BuildingBlock: AJUNOK_clean_linker_0, # of connection points: 2
#     Edge 34, Type (0, 0), BuildingBlock: AJUNOK_clean_linker_0, # of connection points: 2
#     Edge 35, Type (0, 0), BuildingBlock: AJUNOK_clean_linker_0, # of connection points: 2
# Relax obj value: 0.317
# Max RMSD: 0.264
# Mean RMSD: 0.264
data_MOF--net-svh--node1-HICVOG_clean_sbu_0--edge1-AJUNOK_clean_linker_0
_symmetry_space_group_name_H-M    P1
_symmetry_Int_Tables_number       1
_symmetry_cell_setting            triclinic
loop_
_symmetry_equiv_pos_as_xyz
'x, y, z'
_cell_length_a     14.654533
_cell_length_b     14.683619
_cell_length_c     70.559514
_cell_angle_alpha  90.344986
_cell_angle_beta   91.268774
_cell_angle_gamma 90.308101
loop_
_atom_site_label
_atom_site_type_symbol
_atom_site_fract_x
_atom_site_fract_y
_atom_site_fract_z
_atom_type_partial_charge
Zn0 Zn 0.03993 0.91853 0.12253 0.0
C1 C 0.06352 0.71786 0.08346 0.0
N2 N 0.09293 0.78494 0.07236 0.0
C3 C 0.08129 0.85929 0.08315 0.0
N4 N 0.04581 0.83874 0.10012 0.0
N5 N 0.03179 0.74941 0.10005 0.0
C6 C 0.95151 0.49467 0.12067 0.0
O7 O 0.98492 0.52449 0.137 0.0
O8 O 0.99299 0.04989 0.11886 0.0
Zn9 Zn 0.92939 0.69241 0.11266 0.0
N10 N 0.16398 0.93995 0.1312 0.0
C11 C 0.2656 0.03042 0.15021 0.0
C12 C 0.17743 1.0091 0.14385 0.0
C13 C 0.23496 0.88985 0.12488 0.0
N14 N 0.33693 0.98295 0.14332 0.0
C15 C 0.32466 0.91352 0.13061 0.0
O16 O 0.92924 0.72006 0.14099 0.0
C17 C 0.95063 0.78659 0.15197 0.0
O18 O 0.98664 0.85926 0.1457 0.0
H19 H 0.11991 0.04739 0.14889 0.0
H20 H 0.22106 0.83282 0.11551 0.0
C21 C 0.73968 0.75228 0.10897 0.0
C22 C 0.66469 0.78953 0.09883 0.0
C23 C 0.7567 0.80316 0.0717 0.0
C24 C 0.82993 0.7662 0.08171 0.0
N25 N 0.8208 0.74191 0.10015 0.0
N26 N 0.67642 0.81423 0.08048 0.0
H27 H 0.73401 0.73113 0.12356 0.0
C28 C 0.9447 0.09827 0.10757 0.0
O29 O 0.90359 0.05939 0.09288 0.0
O30 O 0.92542 0.55281 0.10836 0.0
H31 H 0.8935 0.75735 0.07468 0.0
H32 H 0.27751 0.08523 0.16029 0.0
H33 H 0.76354 0.82322 1.05707 0.0
Zn34 Zn 0.3995 0.71907 0.3627 0.0
C35 C 0.5565 0.54868 0.33417 0.0
N36 N 0.48219 0.53505 0.323 0.0
C37 C 0.41641 0.57722 0.33274 0.0
N38 N 0.44922 0.61653 0.34892 0.0
N39 N 0.53707 0.59654 0.34984 0.0
C40 C 0.81098 0.69476 0.36865 0.0
O41 O 0.78325 0.75571 0.38092 0.0
O42 O 0.25894 0.72301 0.3619 0.0
Zn43 Zn 0.62465 0.60764 0.37081 0.0
N44 N 0.4453 0.82576 0.34982 0.0
C45 C 0.51198 0.89065 0.32251 0.0
C46 C 0.47774 0.81568 0.33199 0.0
C47 C 0.44762 0.90819 0.35872 0.0
N48 N 0.51433 0.97269 0.33137 0.0
C49 C 0.48328 0.98408 0.34927 0.0
O50 O 0.58586 0.67966 0.39371 0.0
C51 C 0.51497 0.7164 0.40046 0.0
O52 O 0.44241 0.72786 0.39042 0.0
H53 H 0.4772 0.75014 0.32503 0.0
H54 H 0.4222 0.91413 0.37296 0.0
C55 C 0.58139 0.41749 0.37565 0.0
C56 C 0.60164 0.32805 0.38139 0.0
C57 C 0.72965 0.38528 0.39917 0.0
C58 C 0.71187 0.47264 0.39259 0.0
N59 N 0.63878 0.48677 0.38084 0.0
N60 N 0.67522 0.31527 0.39322 0.0
H61 H 0.52162 0.43267 0.36709 0.0
C62 C 0.20658 0.6542 0.36374 0.0
O63 O 0.24332 0.57384 0.36651 0.0
O64 O 0.7543 0.63583 0.36214 0.0
H65 H 0.75637 0.52885 0.39661 0.0
H66 H 0.53759 0.88361 0.30833 0.0
H67 H 0.7876 0.37267 0.40853 0.0
Zn68 Zn 0.52065 0.34363 0.61065 0.0
C69 C 0.34388 0.17956 0.58296 0.0
N70 N 0.32527 0.25254 0.57224 0.0
C71 C 0.37019 0.31976 0.58164 0.0
N72 N 0.41565 0.28922 0.59724 0.0
N73 N 0.39645 0.20125 0.59819 0.0
C74 C 0.49989 0.93265 0.61496 0.0
O75 O 0.57305 0.96462 0.62387 0.0
O76 O 0.5242 0.48394 0.60936 0.0
Zn77 Zn 0.41036 0.11822 0.61938 0.0
N78 N 0.62721 0.29703 0.59791 0.0
C79 C 0.6917 0.22941 0.57059 0.0
C80 C 0.61763 0.26747 0.57966 0.0
C81 C 0.7084 0.28957 0.60751 0.0
N82 N 0.7719 0.21986 0.58029 0.0
C83 C 0.78284 0.2478 0.59865 0.0
O84 O 0.48951 0.16147 0.64155 0.0
C85 C 0.52576 0.23404 0.64835 0.0
O86 O 0.5337 0.30612 0.63846 0.0
H87 H 0.55274 0.27212 0.57221 0.0
H88 H 0.71394 0.31593 0.62181 0.0
C89 C 0.21645 0.15265 0.62429 0.0
C90 C 0.13081 0.1337 0.63217 0.0
C91 C 0.20246 0.02718 0.65289 0.0
C92 C 0.28608 0.04438 0.64464 0.0
N93 N 0.29153 0.10645 0.63053 0.0
N94 N 0.12712 0.07124 0.64635 0.0
H95 H 0.22368 0.20272 0.61329 0.0
C96 C 0.45643 0.5362 0.612 0.0
O97 O 0.37722 0.49963 0.61601 0.0
O98 O 0.43397 0.98629 0.6113 0.0
H99 H 0.3464 1.00786 0.64928 0.0
H100 H 0.68503 0.20586 0.55606 0.0
H101 H 0.19701 0.97791 0.66414 0.0
Zn102 Zn 0.98591 0.38226 0.86771 0.0
C103 C 0.18419 0.41588 0.83 0.0
N104 N 0.11691 0.45259 0.81933 0.0
C105 C 0.04279 0.43424 0.8295 0.0
N106 N 0.06406 0.39004 0.84572 0.0
N107 N 0.15317 0.37624 0.84584 0.0
C108 C 0.40138 0.33752 0.86061 0.0
O109 O 0.36672 0.41663 0.8653 0.0
O110 O 0.85125 0.3577 0.86141 0.0
Zn111 Zn 0.20849 0.27577 0.85966 0.0
N112 N 0.97888 0.50357 0.8781 0.0
C113 C 0.9007 0.6029 0.89878 0.0
C114 C 0.91466 0.5162 0.89142 0.0
C115 C 0.0312 0.57384 0.872 0.0
N116 N 0.94972 0.67386 0.89207 0.0
C117 C 1.01438 0.6628 0.87865 0.0
O118 O 0.1801 0.27351 0.8878 0.0
C119 C 0.10866 0.28215 0.89763 0.0
O120 O 0.03415 0.31137 0.89031 0.0
H121 H 0.87409 0.45922 0.89612 0.0
H122 H 0.08456 0.55952 0.86217 0.0
C123 C 0.15722 0.08542 0.85642 0.0
C124 C 0.11815 1.00932 0.84705 0.0
C125 C 0.08077 0.10204 0.8206 0.0
C126 C 0.11986 0.1768 0.82982 0.0
N127 N 0.15736 0.16747 0.84754 0.0
N128 N 0.0807 0.02046 0.82939 0.0
H129 H 0.18741 0.07981 0.87049 0.0
C130 C 0.79739 0.29099 0.86403 0.0
O131 O 0.82996 0.21529 0.87127 0.0
O132 O 0.34765 0.27035 0.85754 0.0
H133 H 0.1198 0.24165 0.82276 0.0
H134 H 0.84985 0.61424 0.90941 0.0
H135 H 0.04997 0.10881 0.80663 0.0
Zn136 Zn 0.08041 0.41451 1.01108 0.0
C137 C 0.06195 0.21652 1.05032 0.0
N138 N 0.03524 0.28428 1.06164 0.0
C139 C 0.04467 0.35782 1.05069 0.0
N140 N 0.07619 0.33605 1.03338 0.0
N141 N 0.08999 0.24667 1.03335 0.0
C142 C 0.19107 0.98705 1.00934 0.0
O143 O 0.20008 0.01755 0.99202 0.0
O144 O 0.13902 0.54205 1.01339 0.0
Zn145 Zn 0.18456 0.18417 1.01864 0.0
N146 N 0.95674 0.44269 1.00315 0.0
C147 C 0.86083 0.5414 0.98518 0.0
C148 C 0.94677 0.51795 0.99221 0.0
C149 C 0.8842 0.38829 1.00703 0.0
N150 N 0.78803 0.4887 0.98943 0.0
C151 C 0.79643 0.41223 1.00015 0.0
O152 O 0.17544 0.20827 0.98996 0.0
C153 C 0.14995 0.27658 0.98015 0.0
O154 O 0.11976 0.34836 0.98788 0.0
H155 H 1.00546 0.55884 0.98876 0.0
H156 H 0.89567 0.3272 1.01518 0.0
C157 C 0.37705 0.23969 1.01941 0.0
C158 C 0.45722 0.27183 1.02875 0.0
C159 C 0.37895 0.27432 1.05784 0.0
C160 C 0.30007 0.24391 1.04855 0.0
N161 N 0.29998 0.22746 1.02955 0.0
N162 N 0.45521 0.28774 1.04777 0.0
H163 H 0.37566 0.22328 1.00445 0.0
C164 C 0.18363 0.59421 1.02477 0.0
O165 O 0.21124 0.56302 1.04132 0.0
O166 O 0.18313 0.04463 1.02281 0.0
H167 H 0.23958 0.23324 1.05656 0.0
H168 H 0.85183 0.60119 0.97647 0.0
H169 H 0.37962 0.28755 0.07295 0.0
Zn170 Zn 0.83826 0.62561 0.26439 0.0
C171 C 0.0503 0.59323 0.30103 0.0
N172 N 0.98567 0.55054 0.31096 0.0
C173 C 0.90994 0.56748 0.30067 0.0
N174 N 0.92712 0.61668 0.28516 0.0
N175 N 1.01563 0.6352 0.28542 0.0
C176 C 0.26153 0.67895 0.27026 0.0
O177 O 0.2289 0.59669 0.267 0.0
O178 O 0.70874 0.65645 0.27248 0.0
Zn179 Zn 0.06566 0.73712 0.27127 0.0
N180 N 0.82064 0.50446 0.25409 0.0
C181 C 0.73109 0.41198 0.23304 0.0
C182 C 0.75168 0.49661 0.24101 0.0
C183 C 0.87057 0.43084 0.25955 0.0
N184 N 0.77913 0.33813 0.2388 0.0
C185 C 0.84862 0.3442 0.25191 0.0
O186 O 0.02257 0.74258 0.24334 0.0
C187 C 0.94778 0.73007 0.23399 0.0
O188 O 0.87782 0.69542 0.24157 0.0
H189 H 0.7128 0.55599 0.23689 0.0
H190 H 0.92606 0.44014 0.26971 0.0
C191 C 1.01121 0.92496 0.27444 0.0
C192 C 0.97286 1.00071 0.28362 0.0
C193 C 0.96014 0.91309 0.31164 0.0
C194 C 0.99536 0.83782 0.30232 0.0
N195 N 1.0204 0.84503 0.28393 0.0
N196 N 0.94928 0.99222 0.30209 0.0
H197 H 0.03386 0.92874 0.25999 0.0
C198 C 0.65766 0.72253 0.26764 0.0
O199 O 0.6915 0.78813 0.2573 0.0
O200 O 0.20597 0.74444 0.27243 0.0
H201 H 1.0022 0.77416 0.30976 0.0
H202 H 0.67642 0.40463 0.22259 0.0
H203 H 0.94036 0.90838 0.32629 0.0
Zn204 Zn 0.39428 0.88614 0.51247 0.0
C205 C 0.3622 0.68174 0.54994 0.0
N206 N 0.32073 0.74853 0.55961 0.0
C207 C 0.33564 0.82181 0.54883 0.0
N208 N 0.38276 0.80068 0.53329 0.0
N209 N 0.40219 0.71286 0.53409 0.0
C210 C 0.44 0.46673 0.51897 0.0
O211 O 0.35901 0.50185 0.51564 0.0
O212 O 0.4268 0.01586 0.52113 0.0
Zn213 Zn 0.50312 0.66045 0.5202 0.0
N214 N 0.27291 0.90463 0.50205 0.0
C215 C 0.18028 0.99259 0.48112 0.0
C216 C 0.26548 0.97163 0.48894 0.0
C217 C 0.19842 0.85699 0.50765 0.0
N218 N 0.10559 0.94684 0.48704 0.0
C219 C 0.11143 0.87937 0.50017 0.0
O220 O 0.50399 0.69718 0.4923 0.0
C221 C 0.49195 0.76863 0.48234 0.0
O222 O 0.46118 0.84198 0.48944 0.0
H223 H 0.32555 1.00876 0.4847 0.0
H224 H 0.20721 0.80292 0.51782 0.0
C225 C 0.69237 0.71777 0.52302 0.0
C226 C 0.76914 0.75837 0.53213 0.0
C227 C 0.68429 0.77333 0.56026 0.0
C228 C 0.60803 0.73616 0.55101 0.0
N229 N 0.61327 0.70868 0.53261 0.0
N230 N 0.76246 0.78408 0.55062 0.0
H231 H 0.69471 0.69331 0.50856 0.0
C232 C 0.48458 0.07178 0.51457 0.0
O233 O 0.54325 0.04304 0.5021 0.0
O234 O 0.5082 0.52022 0.52124 0.0
H235 H 0.54493 0.7303 0.5585 0.0
H236 H 0.17323 0.04578 0.47066 0.0
H237 H 0.681 0.79509 0.57491 0.0
Zn238 Zn 0.50682 0.27481 0.76832 0.0
C239 C 0.68179 0.43927 0.7955 0.0
N240 N 0.61242 0.4552 0.80712 0.0
C241 C 0.54122 0.41682 0.7977 0.0
N242 N 0.566 0.37709 0.78127 0.0
N243 N 0.65448 0.39337 0.77982 0.0
C244 C 0.91225 0.29249 0.76632 0.0
O245 O 0.87171 0.21262 0.7651 0.0
O246 O 0.36613 0.27148 0.76993 0.0
Zn247 Zn 0.72944 0.38685 0.75752 0.0
N248 N 0.55512 0.16778 0.78112 0.0
C249 C 0.63122 0.10495 0.80815 0.0
C250 C 0.59383 0.17903 0.79871 0.0
C251 C 0.5532 0.08459 0.7725 0.0
N252 N 0.63023 0.02246 0.79949 0.0
C253 C 0.59238 1.00933 0.78188 0.0
O254 O 0.67961 0.3134 0.7351 0.0
C255 C 0.6048 0.27673 0.72939 0.0
O256 O 0.5379 0.26543 0.74042 0.0
H257 H 0.59603 0.24489 0.80551 0.0
H258 H 0.52195 0.07784 0.75853 0.0
C259 C 0.68012 0.57669 0.75408 0.0
C260 C 0.69404 0.66626 0.7477 0.0
C261 C 0.80443 0.61077 0.72634 0.0
C262 C 0.79388 0.52336 0.7335 0.0
N263 N 0.73277 0.50828 0.74733 0.0
N264 N 0.75551 0.68 0.73377 0.0
H265 H 0.62931 0.56104 0.76442 0.0
C266 C 0.31061 0.33755 0.76801 0.0
O267 O 0.34339 0.41947 0.76494 0.0
O268 O 0.86474 0.36412 0.76406 0.0
H269 H 0.83455 0.4678 0.72823 0.0
H270 H 0.66193 0.11306 0.82215 0.0
H271 H 0.85276 0.62405 0.71531 0.0
C272 C 1.0004 0.81366 0.20506 0.0
C273 C 0.9434 0.7479 0.21319 0.0
C274 C 0.99963 0.82802 0.18536 0.0
C275 C 0.94307 0.77602 0.1729 0.0
H276 H 0.04627 0.85416 0.21398 0.0
H277 H 0.04596 0.87854 0.17983 0.0
S278 S 0.77968 0.59607 0.18697 0.0
N279 N 0.82714 0.63147 0.20714 0.0
N280 N 0.82689 0.65768 0.1703 0.0
C281 C 0.88487 0.71096 0.18087 0.0
C282 C 0.88468 0.6972 0.20093 0.0
C283 C 0.56822 0.68597 0.43389 0.0
C284 C 0.51456 0.73774 0.42113 0.0
C285 C 0.56244 0.69791 0.45361 0.0
C286 C 0.50424 0.76345 0.46142 0.0
H287 H 0.61266 0.63321 0.42865 0.0
H288 H 0.60299 0.65446 0.46282 0.0
S289 S 0.35474 0.92176 0.4341 0.0
N290 N 0.40484 0.86021 0.41771 0.0
N291 N 0.39509 0.88419 0.45462 0.0
C292 C 0.45318 0.81845 0.44876 0.0
C293 C 0.45793 0.80512 0.42869 0.0
C294 C 0.61771 0.29992 0.67576 0.0
C295 C 0.55204 0.23685 0.6689 0.0
C296 C 0.63769 0.309 0.69527 0.0
C297 C 0.59155 0.25663 0.70879 0.0
H298 H 0.65311 0.34365 0.666 0.0
H299 H 0.68705 0.36026 0.69982 0.0
S300 S 0.41741 0.07792 0.69831 0.0
N301 N 0.44439 0.11753 0.6773 0.0
N302 N 0.48083 0.13597 0.71383 0.0
C303 C 0.52782 0.19141 0.70211 0.0
C304 C 0.50848 0.18111 0.68224 0.0
C305 C 0.20619 0.23551 0.94754 0.0
C306 C 0.1373 0.26851 0.95926 0.0
C307 C 0.19547 0.23694 0.9276 0.0
C308 C 0.11482 0.26984 0.91869 0.0
H309 H 0.26993 0.21184 0.95376 0.0
H310 H 0.25176 0.21411 0.91912 0.0
S311 S 0.90971 0.35325 0.9436 0.0
N312 N 0.9832 0.32774 0.96076 0.0
N313 N 0.96196 0.32913 0.92374 0.0
C314 C 0.04367 0.29821 0.9305 0.0
C315 C 0.05524 0.29792 0.95063 0.0
C316 C 1.00229 0.52283 1.05039 0.0
C317 C 0.04664 0.44947 1.05914 0.0
C318 C 1.00568 0.60978 1.05869 0.0
C319 C 0.05156 0.62496 0.07618 0.0
H320 H 0.96524 0.51332 1.03713 0.0
H321 H 0.97316 0.66569 1.05127 0.0
S322 S 0.1832 0.45663 0.10412 0.0
N323 N 0.14117 0.39832 0.08581 0.0
N324 N 0.14592 0.56178 0.10141 0.0
C325 C 0.09607 0.5524 0.08503 0.0
C326 C 0.0935 0.46435 0.07655 0.0
C327 C 0.68317 0.63243 0.32007 0.0
C328 C 0.64804 0.54904 0.32632 0.0
C329 C 0.76781 0.63693 0.31147 0.0
C330 C 0.81904 0.55796 0.30852 0.0
H331 H 0.64472 0.69465 0.32179 0.0
H332 H 0.79358 0.70281 0.30716 0.0
S333 S 0.76017 0.32422 0.32344 0.0
N334 N 0.6724 0.38661 0.32984 0.0
N335 N 0.83243 0.39517 0.31348 0.0
C336 C 0.78598 0.4745 0.31508 0.0
C337 C 0.69955 0.46987 0.3239 0.0
C338 C 0.45121 0.45795 0.56954 0.0
C339 C 0.37012 0.41353 0.57448 0.0
C340 C 0.44911 0.54453 0.56121 0.0
C341 C 0.36581 0.58816 0.55724 0.0
H342 H 0.51653 0.42609 0.57203 0.0
H343 H 0.51303 0.57677 0.55789 0.0
S344 S 0.13485 0.49962 0.56732 0.0
N345 N 0.20468 0.41881 0.57475 0.0
N346 N 0.20072 0.58114 0.55904 0.0
C347 C 0.28457 0.54424 0.56215 0.0
C348 C 0.2867 0.45663 0.57062 0.0
C349 C 0.8926 0.3631 0.82193 0.0
C350 C 0.95031 0.43944 0.82108 0.0
C351 C 0.80614 0.36341 0.81316 0.0
C352 C 0.7761 0.43892 0.8027 0.0
H353 H 0.9148 0.30225 0.82928 0.0
H354 H 0.76221 0.3044 0.81467 0.0
S355 S 0.90744 0.64872 0.79322 0.0
N356 N 0.97569 0.58786 0.80706 0.0
N357 N 0.81319 0.58768 0.79028 0.0
C358 C 0.83479 0.51343 0.80076 0.0
C359 C 0.92251 0.51351 0.80989 0.0
C360 C 0.31817 0.33213 0.81757 0.0
C361 C 0.27805 0.41384 0.82345 0.0
C362 C 0.40402 0.33253 0.80917 0.0
C363 C 0.44998 0.41484 0.80581 0.0
H364 H 0.28303 0.26788 0.81927 0.0
H365 H 0.4335 0.2683 0.80514 0.0
S366 S 0.37339 0.64627 0.81892 0.0
N367 N 0.2908 0.57813 0.82588 0.0
N368 N 0.4505 0.57925 0.80949 0.0
C369 C 0.41056 0.49649 0.81182 0.0
C370 C 0.32439 0.49596 0.82061 0.0
C371 C 0.28091 0.6678 0.32121 0.0
C372 C 0.32244 0.58355 0.32506 0.0
C373 C 0.19326 0.67191 0.31277 0.0
C374 C 0.1461 0.59185 0.30751 0.0
H375 H 0.31543 0.73079 0.32481 0.0
H376 H 0.16224 0.73774 0.31057 0.0
S377 S 0.22472 0.35505 0.3147 0.0
N378 N 0.30934 0.41907 0.32317 0.0
N379 N 0.14591 0.42663 0.30702 0.0
C380 C 0.18716 0.50767 0.31123 0.0
C381 C 0.2754 0.50357 0.31991 0.0
C382 C 0.25571 0.04435 0.57038 0.0
C383 C 0.33939 0.08704 0.57505 0.0
C384 C 0.25366 0.95776 0.56167 0.0
C385 C 0.3352 0.91409 0.5569 0.0
H386 H 0.19206 0.07771 0.57356 0.0
H387 H 0.18849 0.92526 0.55853 0.0
S388 S 0.5708 0.99953 0.5657 0.0
N389 N 0.50465 0.08034 0.57402 0.0
N390 N 0.50081 0.91925 0.55758 0.0
C391 C 0.41865 0.9568 0.56143 0.0
C392 C 0.42074 0.0434 0.57042 0.0
C393 C 0.12236 0.02466 0.0835 0.0
C394 C 0.07954 0.94998 0.07458 0.0
C395 C 0.11855 0.11097 0.0752 0.0
C396 C 0.07377 0.12418 1.05757 0.0
H397 H 0.1582 0.01673 0.09692 0.0
H398 H 0.14999 0.16798 0.08272 0.0
S399 S 0.9475 0.95113 1.02904 0.0
N400 N 0.98835 0.89493 1.04754 0.0
N401 N 0.98252 0.05748 1.03197 0.0
C402 C 0.0307 0.05024 1.04857 0.0
C403 C 0.03383 0.96273 1.05703 0.0
C404 C 0.48594 0.86107 0.13419 0.0
C405 C 0.4064 0.86875 0.12274 0.0
C406 C 0.56838 0.83077 0.12673 0.0
C407 C 0.5746 0.80668 0.10747 0.0
H408 H 0.48531 0.88141 0.14897 0.0
H409 H 0.6283 0.83092 0.13597 0.0
S410 S 0.38559 0.81041 0.07151 0.0
N411 N 0.33934 0.84852 0.09109 0.0
N412 N 0.49233 0.78678 0.07736 0.0
C413 C 0.49447 0.80997 0.09606 0.0
C414 C 0.41089 0.84203 0.10359 0.0
C415 C 0.5236 0.08225 0.37746 0.0
C416 C 0.49365 0.07457 0.35845 0.0
C417 C 0.55191 0.16638 0.38507 0.0
C418 C 0.5511 0.24622 0.37406 0.0
H419 H 0.53112 0.02222 0.38618 0.0
H420 H 0.57892 0.16788 0.39949 0.0
S421 S 0.46659 0.26261 0.32403 0.0
N422 N 0.45538 0.15406 0.32934 0.0
N423 N 0.50782 0.31203 0.34347 0.0
C424 C 0.51419 0.24018 0.35543 0.0
C425 C 0.486 0.15431 0.34768 0.0
C426 C 0.95186 0.22964 0.5978 0.0
C427 C 0.87195 0.23042 0.60851 0.0
C428 C 0.03579 0.20209 0.60564 0.0
C429 C 0.0441 0.17458 0.62471 0.0
H430 H 0.9492 0.24802 0.58295 0.0
H431 H 0.09313 0.19857 0.59628 0.0
S432 S 0.85635 0.1674 0.6593 0.0
N433 N 0.80682 0.2016 0.63939 0.0
N434 N 0.96517 0.15466 0.65443 0.0
C435 C 0.96532 0.17844 0.63584 0.0
C436 C 0.87932 0.20535 0.62773 0.0
C437 C 0.08858 0.90985 0.87506 0.0
C438 C 0.11162 0.91851 0.85595 0.0
C439 C 0.0634 0.82522 0.88245 0.0
C440 C 0.05954 0.7459 0.87104 0.0
H441 H 0.08439 0.96944 0.88411 0.0
H442 H 0.04269 0.82296 0.89709 0.0
S443 S 0.12634 0.73263 0.82047 0.0
N444 N 0.14077 0.84051 0.82634 0.0
N445 N 0.08915 0.68232 0.83969 0.0
C446 C 0.08845 0.75319 0.85214 0.0
C447 C 0.11532 0.83931 0.84475 0.0
C448 C 0.62653 0.27904 1.0291 0.0
C449 C 0.54371 0.29145 1.019 0.0
C450 C 0.70893 0.31319 1.02243 0.0
C451 C 0.7124 0.36109 1.00524 0.0
H452 H 0.62727 0.24616 1.04282 0.0
H453 H 0.76881 0.30624 1.0315 0.0
S454 S 0.51637 0.40247 0.9721 0.0
N455 N 0.47109 0.34932 0.99019 0.0
N456 N 0.62666 0.41003 0.97716 0.0
C457 C 0.63097 0.36816 0.99429 0.0
C458 C 0.54656 0.33407 1.00123 0.0
C459 C 0.96071 0.16985 0.28459 0.0
C460 C 0.95434 0.0886 0.27396 0.0
C461 C 0.93127 0.25302 0.27711 0.0
C462 C 0.89378 0.25885 0.25859 0.0
H463 H 0.98615 0.16885 0.29913 0.0
H464 H 0.93419 0.31174 0.2864 0.0
S465 S 0.86797 0.06687 0.22422 0.0
N466 N 0.91075 0.01968 0.2436 0.0
N467 N 0.85891 0.17632 0.22923 0.0
C468 C 0.89139 0.1787 0.24744 0.0
C469 C 0.92083 0.09365 0.25514 0.0
C470 C 1.02113 0.80399 0.52576 0.0
C471 C 0.0259 0.83636 0.50705 0.0
C472 C 0.93844 0.77459 0.53323 0.0
C473 C 0.85646 0.77671 0.52246 0.0
H474 H 0.0804 0.80523 0.53517 0.0
H475 H 0.9384 0.75269 0.54787 0.0
S476 S 0.83167 0.85194 0.47243 0.0
N477 N 0.94158 0.86367 0.47751 0.0
N478 N 0.78555 0.8127 0.4919 0.0
C479 C 0.86032 0.80624 0.50354 0.0
C480 C 0.94501 0.83522 0.49582 0.0
C481 C 0.63681 0.82556 0.74516 0.0
C482 C 0.64971 0.74722 0.75632 0.0
C483 C 0.61245 0.90914 0.75323 0.0
C484 C 0.59978 0.91794 0.77287 0.0
H485 H 0.64966 0.82345 0.7301 0.0
H486 H 0.6093 0.96801 0.74409 0.0
S487 S 0.6166 0.73281 0.80837 0.0
N488 N 0.64165 0.68356 0.78811 0.0
N489 N 0.59377 0.83958 0.80308 0.0
C490 C 0.60651 0.83902 0.78403 0.0
C491 C 0.63171 0.75391 0.77584 0.0
C492 C 0.99204 0.33365 0.12917 0.0
C493 C 0.94728 0.39426 0.11671 0.0
C494 C 0.99001 0.23904 0.12609 0.0
C495 C 0.94254 0.19966 0.11046 0.0
H496 H 0.02998 0.35935 0.14143 0.0
H497 H 0.02657 0.19651 0.13615 0.0
S498 S 0.81209 0.32772 0.07363 0.0
N499 N 0.85323 0.40761 0.08805 0.0
N500 N 0.84836 0.22996 0.08238 0.0
C501 C 0.89684 0.25936 0.09789 0.0
C502 C 0.89956 0.35627 0.10097 0.0
C503 C 0.97014 0.75988 0.36782 0.0
C504 C 0.91047 0.68527 0.36497 0.0
C505 C 0.06539 0.75006 0.36668 0.0
C506 C 0.10522 0.66474 0.36304 0.0
H507 H 0.94316 0.82628 0.37132 0.0
H508 H 0.10822 0.8093 0.36936 0.0
S509 S 0.97941 0.44843 0.35345 0.0
N510 N 0.89858 0.52374 0.3573 0.0
N511 N 0.07672 0.50515 0.35547 0.0
C512 C 0.0462 0.59018 0.35952 0.0
C513 C 0.94922 0.60046 0.36038 0.0
C514 C 0.55365 0.67847 0.61284 0.0
C515 C 0.46687 0.63731 0.61076 0.0
C516 C 0.56413 0.77384 0.61349 0.0
C517 C 0.48851 0.83235 0.61175 0.0
H518 H 0.61389 0.63673 0.61467 0.0
H519 H 0.63205 0.80181 0.61578 0.0
S520 S 0.24723 0.75919 0.60385 0.0
N521 N 0.30454 0.66298 0.60546 0.0
N522 N 0.32408 0.8412 0.60634 0.0
C523 C 0.40186 0.79199 0.60857 0.0
C524 C 0.3911 0.69493 0.60818 0.0
C525 C 0.6369 0.22826 0.86282 0.0
C526 C 0.69686 0.30285 0.86094 0.0
C527 C 0.5416 0.23945 0.86197 0.0
C528 C 0.50212 0.32595 0.8595 0.0
H529 H 0.6636 0.16071 0.86539 0.0
H530 H 0.49863 0.18018 0.86397 0.0
S531 S 0.62773 0.54222 0.85164 0.0
N532 N 0.7086 0.46556 0.85468 0.0
N533 N 0.53037 0.48631 0.8535 0.0
C534 C 0.561 0.40046 0.85674 0.0
C535 C 0.65797 0.389 0.85733 0.0
C536 C 0.20975 0.85228 1.03125 0.0
C537 C 0.1909 0.88666 1.01297 0.0
C538 C 0.21072 0.75782 1.03477 0.0
C539 C 0.19142 0.69357 1.0203 0.0
H540 H 0.22428 0.89864 1.04294 0.0
H541 H 0.22498 0.73493 1.04907 0.0
S542 S 0.13979 0.74748 0.96981 0.0
N543 N 0.15411 0.84789 0.9801 0.0
N544 N 0.15581 0.67188 0.98674 0.0
C545 C 0.17366 0.72711 1.00192 0.0
C546 C 0.17335 0.82302 0.99828 0.0
C547 C 0.42134 0.6203 0.27457 0.0
C548 C 0.3623 0.69445 0.27155 0.0
C549 C 0.51665 0.63109 0.27433 0.0
C550 C 0.55733 0.71633 0.27074 0.0
H551 H 0.39378 0.55275 0.27687 0.0
H552 H 0.55854 0.57112 0.27622 0.0
S553 S 0.43405 0.93457 0.26436 0.0
N554 N 0.35218 0.85811 0.26681 0.0
N555 N 0.53091 0.87789 0.26593 0.0
C556 C 0.49931 0.7919 0.26866 0.0
C557 C 0.4021 0.78115 0.2692 0.0
C558 C 0.53767 0.32649 0.51658 0.0
C559 C 0.45189 0.36584 0.51987 0.0
C560 C 0.54853 0.23135 0.51557 0.0
C561 C 0.47461 0.17146 0.51825 0.0
H562 H 0.59636 0.36949 0.51404 0.0
H563 H 0.61511 0.20456 0.51228 0.0
S564 S 0.23713 0.23933 0.52892 0.0
N565 N 0.29271 0.33678 0.52694 0.0
N566 N 0.31338 0.15896 0.52547 0.0
C567 C 0.3895 0.20989 0.52256 0.0
C568 C 0.37808 0.30667 0.52324 0.0
C569 C 0.0554 0.38731 0.77002 0.0
C570 C 1.01397 0.30053 0.76854 0.0
C571 C 0.15081 0.39818 0.77028 0.0
C572 C 0.20968 0.32286 0.76918 0.0
H573 H 1.01383 0.44801 0.77059 0.0
H574 H 0.17848 0.46668 0.77111 0.0
S575 S 0.13715 0.08012 0.76664 0.0
N576 N 0.04044 0.1372 0.767 0.0
N577 N 0.21912 0.15762 0.76777 0.0
C578 C 0.16946 0.23539 0.76857 0.0
C579 C 0.07205 0.22427 0.76817 0.0
loop_
_geom_bond_atom_site_label_1
_geom_bond_atom_site_label_2
_geom_bond_distance
_geom_bond_site_symmetry_2
_ccdc_geom_bond_type
Zn0 N4 2.020 . S
Zn0 O8 2.019 . S
Zn0 N10 2.119 . S
Zn0 O18 1.975 . S
C1 N2 1.334 1_655 S
C1 N5 1.336 . S
N2 C1 1.334 1_455 S
N2 C3 1.334 . S
C3 N2 1.334 . S
C3 N4 1.336 . S
N4 Zn0 2.020 . S
N4 C3 1.336 . S
N4 N5 1.354 1_455 S
N5 C1 1.336 . S
N5 N4 1.354 1_655 S
N5 Zn9 2.020 . S
C6 O7 1.244 1_655 S
C6 O30 1.257 . S
O7 C6 1.244 1_455 S
O8 Zn0 2.019 . S
O8 C28 1.257 1_565 S
Zn9 N5 2.020 . S
Zn9 O16 1.975 . S
Zn9 N25 2.119 . S
Zn9 O30 2.019 . S
N10 Zn0 2.119 . S
N10 C12 1.334 . S
N10 C13 1.328 . S
C11 C12 1.391 . S
C11 N14 1.329 . S
C11 H32 0.930 . S
C12 N10 1.334 . S
C12 C11 1.391 . S
C12 H19 0.930 . S
C13 N10 1.328 . S
C13 C15 1.392 . S
C13 H20 0.930 . S
N14 C11 1.329 . S
N14 C15 1.331 . S
C15 C13 1.392 . S
C15 N14 1.331 . S
O16 Zn9 1.975 . S
O16 C17 1.252 1_655 S
C17 O16 1.252 1_455 S
C17 O18 1.252 . S
O18 Zn0 1.975 . S
O18 C17 1.252 . S
H19 C12 0.930 . S
H20 C13 0.930 . S
C21 C22 1.392 . S
C21 N25 1.328 . S
C21 H27 0.930 . S
C22 C21 1.392 . S
C22 N26 1.331 . S
C23 C24 1.391 . S
C23 N26 1.329 . S
C23 H33 0.930 . S
C24 C23 1.391 . S
C24 N25 1.334 . S
C24 H31 0.930 . S
N25 Zn9 2.119 . S
N25 C21 1.328 . S
N25 C24 1.334 . S
N26 C22 1.331 . S
N26 C23 1.329 . S
H27 C21 0.930 . S
C28 O8 1.257 1_545 S
C28 O29 1.244 1_445 S
O29 C28 1.244 1_665 S
O30 C6 1.257 . S
O30 Zn9 2.019 . S
H31 C24 0.930 . S
H32 C11 0.930 . S
H33 C23 0.930 . S
Zn34 N38 2.020 . S
Zn34 O42 2.019 . S
Zn34 N44 2.119 . S
Zn34 O52 1.975 . S
C35 N36 1.334 . S
C35 N39 1.336 . S
N36 C35 1.334 . S
N36 C37 1.334 . S
C37 N36 1.334 . S
C37 N38 1.336 . S
N38 Zn34 2.020 . S
N38 C37 1.336 . S
N38 N39 1.354 . S
N39 C35 1.336 . S
N39 N38 1.354 . S
N39 Zn43 2.020 . S
C40 O41 1.244 . S
C40 O64 1.257 . S
O41 C40 1.244 . S
O42 Zn34 2.019 . S
O42 C62 1.257 . S
Zn43 N39 2.020 . S
Zn43 O50 1.975 . S
Zn43 N59 2.119 . S
Zn43 O64 2.019 . S
N44 Zn34 2.119 . S
N44 C46 1.334 . S
N44 C47 1.328 1_565 S
C45 C46 1.391 1_545 S
C45 N48 1.329 . S
C45 H66 0.930 . S
C46 N44 1.334 . S
C46 C45 1.391 1_565 S
C46 H53 0.930 . S
C47 N44 1.328 1_545 S
C47 C49 1.392 . S
C47 H54 0.930 . S
N48 C45 1.329 . S
N48 C49 1.331 . S
C49 C47 1.392 . S
C49 N48 1.331 . S
O50 Zn43 1.975 . S
O50 C51 1.252 . S
C51 O50 1.252 . S
C51 O52 1.252 . S
O52 Zn34 1.975 . S
O52 C51 1.252 . S
H53 C46 0.930 . S
H54 C47 0.930 . S
C55 C56 1.392 . S
C55 N59 1.328 . S
C55 H61 0.930 . S
C56 C55 1.392 . S
C56 N60 1.331 . S
C57 C58 1.391 . S
C57 N60 1.329 . S
C57 H67 0.930 . S
C58 C57 1.391 . S
C58 N59 1.334 . S
C58 H65 0.930 . S
N59 Zn43 2.119 . S
N59 C55 1.328 . S
N59 C58 1.334 . S
N60 C56 1.331 . S
N60 C57 1.329 . S
H61 C55 0.930 . S
C62 O42 1.257 . S
C62 O63 1.244 . S
O63 C62 1.244 . S
O64 C40 1.257 . S
O64 Zn43 2.019 . S
H65 C58 0.930 . S
H66 C45 0.930 . S
H67 C57 0.930 . S
Zn68 N72 2.020 . S
Zn68 O76 2.019 . S
Zn68 N78 2.119 . S
Zn68 O86 1.975 . S
C69 N70 1.334 . S
C69 N73 1.336 . S
N70 C69 1.334 . S
N70 C71 1.334 . S
C71 N70 1.334 . S
C71 N72 1.336 . S
N72 Zn68 2.020 . S
N72 C71 1.336 . S
N72 N73 1.354 . S
N73 C69 1.336 . S
N73 N72 1.354 . S
N73 Zn77 2.020 . S
C74 O75 1.244 1_565 S
C74 O98 1.257 1_565 S
O75 C74 1.244 1_545 S
O76 Zn68 2.019 . S
O76 C96 1.257 . S
Zn77 N73 2.020 . S
Zn77 O84 1.975 . S
Zn77 N93 2.119 . S
Zn77 O98 2.019 . S
N78 Zn68 2.119 . S
N78 C80 1.334 . S
N78 C81 1.328 . S
C79 C80 1.391 . S
C79 N82 1.329 . S
C79 H100 0.930 . S
C80 N78 1.334 . S
C80 C79 1.391 . S
C80 H87 0.930 . S
C81 N78 1.328 . S
C81 C83 1.392 . S
C81 H88 0.930 . S
N82 C79 1.329 . S
N82 C83 1.331 . S
C83 C81 1.392 . S
C83 N82 1.331 . S
O84 Zn77 1.975 . S
O84 C85 1.252 . S
C85 O84 1.252 . S
C85 O86 1.252 . S
O86 Zn68 1.975 . S
O86 C85 1.252 . S
H87 C80 0.930 . S
H88 C81 0.930 . S
C89 C90 1.392 . S
C89 N93 1.328 . S
C89 H95 0.930 . S
C90 C89 1.392 . S
C90 N94 1.331 . S
C91 C92 1.391 . S
C91 N94 1.329 . S
C91 H101 0.930 . S
C92 C91 1.391 . S
C92 N93 1.334 . S
C92 H99 0.930 . S
N93 Zn77 2.119 . S
N93 C89 1.328 . S
N93 C92 1.334 . S
N94 C90 1.331 . S
N94 C91 1.329 . S
H95 C89 0.930 . S
C96 O76 1.257 . S
C96 O97 1.244 . S
O97 C96 1.244 . S
O98 C74 1.257 1_545 S
O98 Zn77 2.019 . S
H99 C92 0.930 . S
H100 C79 0.930 . S
H101 C91 0.930 . S
Zn102 N106 2.020 . S
Zn102 O110 2.019 . S
Zn102 N112 2.119 . S
Zn102 O120 1.975 . S
C103 N104 1.334 . S
C103 N107 1.336 . S
N104 C103 1.334 . S
N104 C105 1.334 1_455 S
C105 N104 1.334 1_655 S
C105 N106 1.336 . S
N106 Zn102 2.020 . S
N106 C105 1.336 . S
N106 N107 1.354 1_655 S
N107 C103 1.336 . S
N107 N106 1.354 1_455 S
N107 Zn111 2.020 . S
C108 O109 1.244 . S
C108 O132 1.257 . S
O109 C108 1.244 . S
O110 Zn102 2.019 . S
O110 C130 1.257 . S
Zn111 N107 2.020 . S
Zn111 O118 1.975 . S
Zn111 N127 2.119 . S
Zn111 O132 2.019 . S
N112 Zn102 2.119 . S
N112 C114 1.334 1_655 S
N112 C115 1.328 . S
C113 C114 1.391 . S
C113 N116 1.329 1_455 S
C113 H134 0.930 . S
C114 N112 1.334 1_455 S
C114 C113 1.391 . S
C114 H121 0.930 . S
C115 N112 1.328 . S
C115 C117 1.392 . S
C115 H122 0.930 . S
N116 C113 1.329 1_655 S
N116 C117 1.331 . S
C117 C115 1.392 . S
C117 N116 1.331 . S
O118 Zn111 1.975 . S
O118 C119 1.252 . S
C119 O118 1.252 . S
C119 O120 1.252 1_455 S
O120 Zn102 1.975 . S
O120 C119 1.252 1_655 S
H121 C114 0.930 . S
H122 C115 0.930 . S
C123 C124 1.392 . S
C123 N127 1.328 1_565 S
C123 H129 0.930 . S
C124 C123 1.392 . S
C124 N128 1.331 . S
C125 C126 1.391 1_565 S
C125 N128 1.329 1_655 S
C125 H135 0.930 . S
C126 C125 1.391 1_545 S
C126 N127 1.334 1_655 S
C126 H133 0.930 . S
N127 Zn111 2.119 . S
N127 C123 1.328 1_545 S
N127 C126 1.334 1_455 S
N128 C124 1.331 . S
N128 C125 1.329 1_455 S
H129 C123 0.930 . S
C130 O110 1.257 . S
C130 O131 1.244 . S
O131 C130 1.244 . S
O132 C108 1.257 . S
O132 Zn111 2.019 . S
H133 C126 0.930 . S
H134 C113 0.930 . S
H135 C125 0.930 . S
Zn136 N140 2.020 . S
Zn136 O144 2.019 . S
Zn136 N146 2.119 . S
Zn136 O154 1.975 . S
C137 N138 1.334 . S
C137 N141 1.336 . S
N138 C137 1.334 . S
N138 C139 1.334 1_455 S
C139 N138 1.334 1_655 S
C139 N140 1.336 . S
N140 Zn136 2.020 . S
N140 C139 1.336 . S
N140 N141 1.354 1_655 S
N141 C137 1.336 . S
N141 N140 1.354 1_455 S
N141 Zn145 2.020 . S
C142 O143 1.244 1_465 S
C142 O166 1.257 1_565 S
O143 C142 1.244 1_645 S
O144 Zn136 2.019 . S
O144 C164 1.257 . S
Zn145 N141 2.020 . S
Zn145 O152 1.975 . S
Zn145 N161 2.119 . S
Zn145 O166 2.019 . S
N146 Zn136 2.119 . S
N146 C148 1.334 . S
N146 C149 1.328 . S
C147 C148 1.391 . S
C147 N150 1.329 . S
C147 H168 0.930 . S
C148 N146 1.334 . S
C148 C147 1.391 . S
C148 H155 0.930 . S
C149 N146 1.328 . S
C149 C151 1.392 . S
C149 H156 0.930 . S
N150 C147 1.329 . S
N150 C151 1.331 . S
C151 C149 1.392 . S
C151 N150 1.331 . S
O152 Zn145 1.975 . S
O152 C153 1.252 . S
C153 O152 1.252 . S
C153 O154 1.252 1_455 S
O154 Zn136 1.975 . S
O154 C153 1.252 1_655 S
H155 C148 0.930 . S
H156 C149 0.930 . S
C157 C158 1.392 . S
C157 N161 1.328 . S
C157 H163 0.930 . S
C158 C157 1.392 . S
C158 N162 1.331 . S
C159 C160 1.391 . S
C159 N162 1.329 . S
C159 H169 0.930 . S
C160 C159 1.391 . S
C160 N161 1.334 . S
C160 H167 0.930 . S
N161 Zn145 2.119 . S
N161 C157 1.328 . S
N161 C160 1.334 . S
N162 C158 1.331 . S
N162 C159 1.329 . S
H163 C157 0.930 . S
C164 O144 1.257 . S
C164 O165 1.244 1_655 S
O165 C164 1.244 1_455 S
O166 C142 1.257 1_545 S
O166 Zn145 2.019 . S
H167 C160 0.930 . S
H168 C147 0.930 . S
H169 C159 0.930 . S
Zn170 N174 2.020 . S
Zn170 O178 2.019 . S
Zn170 N180 2.119 . S
Zn170 O188 1.975 . S
C171 N172 1.334 . S
C171 N175 1.336 . S
N172 C171 1.334 . S
N172 C173 1.334 1_455 S
C173 N172 1.334 1_655 S
C173 N174 1.336 . S
N174 Zn170 2.020 . S
N174 C173 1.336 . S
N174 N175 1.354 1_655 S
N175 C171 1.336 . S
N175 N174 1.354 1_455 S
N175 Zn179 2.020 . S
C176 O177 1.244 . S
C176 O200 1.257 . S
O177 C176 1.244 . S
O178 Zn170 2.019 . S
O178 C198 1.257 . S
Zn179 N175 2.020 . S
Zn179 O186 1.975 . S
Zn179 N195 2.119 . S
Zn179 O200 2.019 . S
N180 Zn170 2.119 . S
N180 C182 1.334 1_655 S
N180 C183 1.328 . S
C181 C182 1.391 . S
C181 N184 1.329 1_455 S
C181 H202 0.930 . S
C182 N180 1.334 1_455 S
C182 C181 1.391 . S
C182 H189 0.930 . S
C183 N180 1.328 . S
C183 C185 1.392 . S
C183 H190 0.930 . S
N184 C181 1.329 1_655 S
N184 C185 1.331 . S
C185 C183 1.392 . S
C185 N184 1.331 . S
O186 Zn179 1.975 . S
O186 C187 1.252 . S
C187 O186 1.252 . S
C187 O188 1.252 1_455 S
O188 Zn170 1.975 . S
O188 C187 1.252 1_655 S
H189 C182 0.930 . S
H190 C183 0.930 . S
C191 C192 1.392 . S
C191 N195 1.328 1_545 S
C191 H197 0.930 . S
C192 C191 1.392 . S
C192 N196 1.331 . S
C193 C194 1.391 1_545 S
C193 N196 1.329 1_655 S
C193 H203 0.930 . S
C194 C193 1.391 1_565 S
C194 N195 1.334 1_655 S
C194 H201 0.930 . S
N195 Zn179 2.119 . S
N195 C191 1.328 1_565 S
N195 C194 1.334 1_455 S
N196 C192 1.331 . S
N196 C193 1.329 1_455 S
H197 C191 0.930 . S
C198 O178 1.257 . S
C198 O199 1.244 . S
O199 C198 1.244 . S
O200 C176 1.257 . S
O200 Zn179 2.019 . S
H201 C194 0.930 . S
H202 C181 0.930 . S
H203 C193 0.930 . S
Zn204 N208 2.020 . S
Zn204 O212 2.019 . S
Zn204 N214 2.119 . S
Zn204 O222 1.975 . S
C205 N206 1.334 . S
C205 N209 1.336 . S
N206 C205 1.334 . S
N206 C207 1.334 . S
C207 N206 1.334 . S
C207 N208 1.336 . S
N208 Zn204 2.020 . S
N208 C207 1.336 . S
N208 N209 1.354 . S
N209 C205 1.336 . S
N209 N208 1.354 . S
N209 Zn213 2.020 . S
C210 O211 1.244 . S
C210 O234 1.257 . S
O211 C210 1.244 . S
O212 Zn204 2.019 . S
O212 C232 1.257 1_565 S
Zn213 N209 2.020 . S
Zn213 O220 1.975 . S
Zn213 N229 2.119 . S
Zn213 O234 2.019 . S
N214 Zn204 2.119 . S
N214 C216 1.334 . S
N214 C217 1.328 . S
C215 C216 1.391 . S
C215 N218 1.329 . S
C215 H236 0.930 . S
C216 N214 1.334 . S
C216 C215 1.391 . S
C216 H223 0.930 . S
C217 N214 1.328 . S
C217 C219 1.392 . S
C217 H224 0.930 . S
N218 C215 1.329 . S
N218 C219 1.331 . S
C219 C217 1.392 . S
C219 N218 1.331 . S
O220 Zn213 1.975 . S
O220 C221 1.252 . S
C221 O220 1.252 . S
C221 O222 1.252 . S
O222 Zn204 1.975 . S
O222 C221 1.252 . S
H223 C216 0.930 . S
H224 C217 0.930 . S
C225 C226 1.392 . S
C225 N229 1.328 . S
C225 H231 0.930 . S
C226 C225 1.392 . S
C226 N230 1.331 . S
C227 C228 1.391 . S
C227 N230 1.329 . S
C227 H237 0.930 . S
C228 C227 1.391 . S
C228 N229 1.334 . S
C228 H235 0.930 . S
N229 Zn213 2.119 . S
N229 C225 1.328 . S
N229 C228 1.334 . S
N230 C226 1.331 . S
N230 C227 1.329 . S
H231 C225 0.930 . S
C232 O212 1.257 1_545 S
C232 O233 1.244 1_545 S
O233 C232 1.244 1_565 S
O234 C210 1.257 . S
O234 Zn213 2.019 . S
H235 C228 0.930 . S
H236 C215 0.930 . S
H237 C227 0.930 . S
Zn238 N242 2.020 . S
Zn238 O246 2.019 . S
Zn238 N248 2.119 . S
Zn238 O256 1.975 . S
C239 N240 1.334 . S
C239 N243 1.336 . S
N240 C239 1.334 . S
N240 C241 1.334 . S
C241 N240 1.334 . S
C241 N242 1.336 . S
N242 Zn238 2.020 . S
N242 C241 1.336 . S
N242 N243 1.354 . S
N243 C239 1.336 . S
N243 N242 1.354 . S
N243 Zn247 2.020 . S
C244 O245 1.244 . S
C244 O268 1.257 . S
O245 C244 1.244 . S
O246 Zn238 2.019 . S
O246 C266 1.257 . S
Zn247 N243 2.020 . S
Zn247 O254 1.975 . S
Zn247 N263 2.119 . S
Zn247 O268 2.019 . S
N248 Zn238 2.119 . S
N248 C250 1.334 . S
N248 C251 1.328 1_545 S
C249 C250 1.391 1_565 S
C249 N252 1.329 . S
C249 H270 0.930 . S
C250 N248 1.334 . S
C250 C249 1.391 1_545 S
C250 H257 0.930 . S
C251 N248 1.328 1_565 S
C251 C253 1.392 . S
C251 H258 0.930 . S
N252 C249 1.329 . S
N252 C253 1.331 . S
C253 C251 1.392 . S
C253 N252 1.331 . S
O254 Zn247 1.975 . S
O254 C255 1.252 . S
C255 O254 1.252 . S
C255 O256 1.252 . S
O256 Zn238 1.975 . S
O256 C255 1.252 . S
H257 C250 0.930 . S
H258 C251 0.930 . S
C259 C260 1.392 . S
C259 N263 1.328 . S
C259 H265 0.930 . S
C260 C259 1.392 . S
C260 N264 1.331 . S
C261 C262 1.391 . S
C261 N264 1.329 . S
C261 H271 0.930 . S
C262 C261 1.391 . S
C262 N263 1.334 . S
C262 H269 0.930 . S
N263 Zn247 2.119 . S
N263 C259 1.328 . S
N263 C262 1.334 . S
N264 C260 1.331 . S
N264 C261 1.329 . S
H265 C259 0.930 . S
C266 O246 1.257 . S
C266 O267 1.244 . S
O267 C266 1.244 . S
O268 C244 1.257 . S
O268 Zn247 2.019 . S
H269 C262 0.930 . S
H270 C249 0.930 . S
H271 C261 0.930 . S
C272 C273 1.359 1_455 S
C272 C274 1.419 . S
C272 H276 0.930 . S
C273 C272 1.359 1_655 S
C273 C282 1.439 . S
C274 C272 1.419 . S
C274 C275 1.355 1_455 S
C274 H277 0.929 . S
C275 C274 1.355 1_655 S
C275 C281 1.436 . S
H276 C272 0.930 . S
H277 C274 0.929 . S
S278 N279 1.613 . S
S278 N280 1.610 . S
N279 S278 1.613 . S
N279 C282 1.350 . S
N280 S278 1.610 . S
N280 C281 1.351 . S
C281 C275 1.436 . S
C281 N280 1.351 . S
C281 C282 1.434 . S
C282 C273 1.439 . S
C282 N279 1.350 . S
C282 C281 1.434 . S
C283 C284 1.369 . S
C283 C285 1.419 . S
C283 H287 0.930 . S
C284 C283 1.369 . S
C284 C293 1.429 . S
C285 C283 1.419 . S
C285 C286 1.363 . S
C285 H288 0.929 . S
C286 C285 1.363 . S
C286 C292 1.428 . S
H287 C283 0.930 . S
H288 C285 0.929 . S
S289 N290 1.613 . S
S289 N291 1.610 . S
N290 S289 1.613 . S
N290 C293 1.350 . S
N291 S289 1.610 . S
N291 C292 1.351 . S
C292 C286 1.428 . S
C292 N291 1.351 . S
C292 C293 1.434 . S
C293 C284 1.429 . S
C293 N290 1.350 . S
C293 C292 1.434 . S
C294 C295 1.369 . S
C294 C296 1.419 . S
C294 H298 0.930 . S
C295 C294 1.369 . S
C295 C304 1.429 . S
C296 C294 1.419 . S
C296 C297 1.363 . S
C296 H299 0.929 . S
C297 C296 1.363 . S
C297 C303 1.428 . S
H298 C294 0.930 . S
H299 C296 0.929 . S
S300 N301 1.613 . S
S300 N302 1.610 . S
N301 S300 1.613 . S
N301 C304 1.350 . S
N302 S300 1.610 . S
N302 C303 1.351 . S
C303 C297 1.428 . S
C303 N302 1.351 . S
C303 C304 1.434 . S
C304 C295 1.429 . S
C304 N301 1.350 . S
C304 C303 1.434 . S
C305 C306 1.369 . S
C305 C307 1.419 . S
C305 H309 0.930 . S
C306 C305 1.369 . S
C306 C315 1.429 1_655 S
C307 C305 1.419 . S
C307 C308 1.363 1_655 S
C307 H310 0.929 . S
C308 C307 1.363 1_455 S
C308 C314 1.428 . S
H309 C305 0.930 . S
H310 C307 0.929 . S
S311 N312 1.613 . S
S311 N313 1.610 . S
N312 S311 1.613 . S
N312 C315 1.350 . S
N313 S311 1.610 . S
N313 C314 1.351 . S
C314 C308 1.428 . S
C314 N313 1.351 . S
C314 C315 1.434 . S
C315 C306 1.429 1_455 S
C315 N312 1.350 . S
C315 C314 1.434 . S
C316 C317 1.369 . S
C316 C318 1.418 . S
C316 H320 0.930 . S
C317 C316 1.369 . S
C317 C326 1.386 1_656 S
C318 C316 1.418 . S
C318 C319 1.363 1_556 S
C318 H321 0.928 . S
C319 C318 1.363 1_554 S
C319 C325 1.428 1_655 S
H320 C316 0.930 . S
H321 C318 0.928 . S
S322 N323 1.613 . S
S322 N324 1.610 . S
N323 S322 1.613 . S
N323 C326 1.362 . S
N324 S322 1.610 . S
N324 C325 1.351 . S
C325 C319 1.428 1_455 S
C325 N324 1.351 . S
C325 C326 1.475 . S
C326 C317 1.386 1_454 S
C326 N323 1.362 . S
C326 C325 1.475 . S
C327 C328 1.369 . S
C327 C329 1.419 . S
C327 H331 0.930 . S
C328 C327 1.369 . S
C328 C337 1.429 . S
C329 C327 1.419 . S
C329 C330 1.363 . S
C329 H332 0.929 . S
C330 C329 1.363 . S
C330 C336 1.428 . S
H331 C327 0.930 . S
H332 C329 0.929 . S
S333 N334 1.613 . S
S333 N335 1.610 . S
N334 S333 1.613 . S
N334 C337 1.350 . S
N335 S333 1.610 . S
N335 C336 1.351 . S
C336 C330 1.428 . S
C336 N335 1.351 . S
C336 C337 1.434 . S
C337 C328 1.429 . S
C337 N334 1.350 . S
C337 C336 1.434 . S
C338 C339 1.369 . S
C338 C340 1.419 . S
C338 H342 0.930 . S
C339 C338 1.369 . S
C339 C348 1.429 . S
C340 C338 1.419 . S
C340 C341 1.363 . S
C340 H343 0.929 . S
C341 C340 1.363 . S
C341 C347 1.428 . S
H342 C338 0.930 . S
H343 C340 0.929 . S
S344 N345 1.613 . S
S344 N346 1.610 . S
N345 S344 1.613 . S
N345 C348 1.350 . S
N346 S344 1.610 . S
N346 C347 1.351 . S
C347 C341 1.428 . S
C347 N346 1.351 . S
C347 C348 1.434 . S
C348 C339 1.429 . S
C348 N345 1.350 . S
C348 C347 1.434 . S
C349 C350 1.369 . S
C349 C351 1.419 . S
C349 H353 0.930 . S
C350 C349 1.369 . S
C350 C359 1.429 . S
C351 C349 1.419 . S
C351 C352 1.363 . S
C351 H354 0.929 . S
C352 C351 1.363 . S
C352 C358 1.428 . S
H353 C349 0.930 . S
H354 C351 0.929 . S
S355 N356 1.613 . S
S355 N357 1.610 . S
N356 S355 1.613 . S
N356 C359 1.350 . S
N357 S355 1.610 . S
N357 C358 1.351 . S
C358 C352 1.428 . S
C358 N357 1.351 . S
C358 C359 1.434 . S
C359 C350 1.429 . S
C359 N356 1.350 . S
C359 C358 1.434 . S
C360 C361 1.369 . S
C360 C362 1.419 . S
C360 H364 0.930 . S
C361 C360 1.369 . S
C361 C370 1.429 . S
C362 C360 1.419 . S
C362 C363 1.363 . S
C362 H365 0.929 . S
C363 C362 1.363 . S
C363 C369 1.428 . S
H364 C360 0.930 . S
H365 C362 0.929 . S
S366 N367 1.613 . S
S366 N368 1.610 . S
N367 S366 1.613 . S
N367 C370 1.350 . S
N368 S366 1.610 . S
N368 C369 1.351 . S
C369 C363 1.428 . S
C369 N368 1.351 . S
C369 C370 1.434 . S
C370 C361 1.429 . S
C370 N367 1.350 . S
C370 C369 1.434 . S
C371 C372 1.369 . S
C371 C373 1.419 . S
C371 H375 0.930 . S
C372 C371 1.369 . S
C372 C381 1.429 . S
C373 C371 1.419 . S
C373 C374 1.363 . S
C373 H376 0.929 . S
C374 C373 1.363 . S
C374 C380 1.428 . S
H375 C371 0.930 . S
H376 C373 0.929 . S
S377 N378 1.613 . S
S377 N379 1.610 . S
N378 S377 1.613 . S
N378 C381 1.350 . S
N379 S377 1.610 . S
N379 C380 1.351 . S
C380 C374 1.428 . S
C380 N379 1.351 . S
C380 C381 1.434 . S
C381 C372 1.429 . S
C381 N378 1.350 . S
C381 C380 1.434 . S
C382 C383 1.369 . S
C382 C384 1.419 1_545 S
C382 H386 0.930 . S
C383 C382 1.369 . S
C383 C392 1.429 . S
C384 C382 1.419 1_565 S
C384 C385 1.363 . S
C384 H387 0.929 . S
C385 C384 1.363 . S
C385 C391 1.428 . S
H386 C382 0.930 . S
H387 C384 0.929 . S
S388 N389 1.613 . S
S388 N390 1.610 1_545 S
N389 S388 1.613 . S
N389 C392 1.350 . S
N390 S388 1.610 1_565 S
N390 C391 1.351 . S
C391 C385 1.428 . S
C391 N390 1.351 . S
C391 C392 1.434 1_565 S
C392 C383 1.429 . S
C392 N389 1.350 . S
C392 C391 1.434 1_545 S
C393 C394 1.369 . S
C393 C395 1.419 1_565 S
C393 H397 0.930 . S
C394 C393 1.369 . S
C394 C403 1.429 1_454 S
C395 C393 1.419 1_545 S
C395 C396 1.363 1_554 S
C395 H398 0.929 . S
C396 C395 1.363 1_556 S
C396 C402 1.428 1_455 S
H397 C393 0.930 . S
H398 C395 0.929 . S
S399 N400 1.613 . S
S399 N401 1.621 . S
N400 S399 1.613 . S
N400 C403 1.350 . S
N401 S399 1.621 . S
N401 C402 1.350 1_565 S
C402 C396 1.428 1_655 S
C402 N401 1.350 1_545 S
C402 C403 1.434 1_545 S
C403 C394 1.429 1_656 S
C403 N400 1.350 . S
C403 C402 1.434 1_565 S
C404 C405 1.369 . S
C404 C406 1.419 . S
C404 H408 0.930 . S
C405 C404 1.369 . S
C405 C414 1.429 . S
C406 C404 1.419 . S
C406 C407 1.363 . S
C406 H409 0.929 . S
C407 C406 1.363 . S
C407 C413 1.428 . S
H408 C404 0.930 . S
H409 C406 0.929 . S
S410 N411 1.613 . S
S410 N412 1.610 . S
N411 S410 1.613 . S
N411 C414 1.350 . S
N412 S410 1.610 . S
N412 C413 1.351 . S
C413 C407 1.428 . S
C413 N412 1.351 . S
C413 C414 1.434 . S
C414 C405 1.429 . S
C414 N411 1.350 . S
C414 C413 1.434 . S
C415 C416 1.369 . S
C415 C417 1.419 . S
C415 H419 0.930 . S
C416 C415 1.369 . S
C416 C425 1.429 . S
C417 C415 1.419 . S
C417 C418 1.363 . S
C417 H420 0.929 . S
C418 C417 1.363 . S
C418 C424 1.428 . S
H419 C415 0.930 . S
H420 C417 0.929 . S
S421 N422 1.613 . S
S421 N423 1.610 . S
N422 S421 1.613 . S
N422 C425 1.350 . S
N423 S421 1.610 . S
N423 C424 1.351 . S
C424 C418 1.428 . S
C424 N423 1.351 . S
C424 C425 1.434 . S
C425 C416 1.429 . S
C425 N422 1.350 . S
C425 C424 1.434 . S
C426 C427 1.369 1_455 S
C426 C428 1.419 . S
C426 H430 0.930 . S
C427 C426 1.369 1_655 S
C427 C436 1.429 . S
C428 C426 1.419 . S
C428 C429 1.363 . S
C428 H431 0.929 . S
C429 C428 1.363 . S
C429 C435 1.428 1_455 S
H430 C426 0.930 . S
H431 C428 0.929 . S
S432 N433 1.613 . S
S432 N434 1.610 . S
N433 S432 1.613 . S
N433 C436 1.350 . S
N434 S432 1.610 . S
N434 C435 1.351 . S
C435 C429 1.428 1_655 S
C435 N434 1.351 . S
C435 C436 1.434 . S
C436 C427 1.429 . S
C436 N433 1.350 . S
C436 C435 1.434 . S
C437 C438 1.369 . S
C437 C439 1.419 . S
C437 H441 0.930 . S
C438 C437 1.369 . S
C438 C447 1.429 1_455 S
C439 C437 1.419 . S
C439 C440 1.363 1_455 S
C439 H442 0.929 . S
C440 C439 1.363 1_655 S
C440 C446 1.428 . S
H441 C437 0.930 . S
H442 C439 0.929 . S
S443 N444 1.613 . S
S443 N445 1.610 . S
N444 S443 1.613 . S
N444 C447 1.350 . S
N445 S443 1.610 . S
N445 C446 1.351 . S
C446 C440 1.428 . S
C446 N445 1.351 . S
C446 C447 1.434 . S
C447 C438 1.429 1_655 S
C447 N444 1.350 . S
C447 C446 1.434 . S
C448 C449 1.369 . S
C448 C450 1.419 . S
C448 H452 0.930 . S
C449 C448 1.369 . S
C449 C458 1.429 . S
C450 C448 1.419 . S
C450 C451 1.363 . S
C450 H453 0.929 . S
C451 C450 1.363 . S
C451 C457 1.428 . S
H452 C448 0.930 . S
H453 C450 0.929 . S
S454 N455 1.613 . S
S454 N456 1.610 . S
N455 S454 1.613 . S
N455 C458 1.350 . S
N456 S454 1.610 . S
N456 C457 1.351 . S
C457 C451 1.428 . S
C457 N456 1.351 . S
C457 C458 1.434 . S
C458 C449 1.429 . S
C458 N455 1.350 . S
C458 C457 1.434 . S
C459 C460 1.369 . S
C459 C461 1.419 1_455 S
C459 H463 0.930 . S
C460 C459 1.369 . S
C460 C469 1.437 . S
C461 C459 1.419 1_655 S
C461 C462 1.363 . S
C461 H464 0.929 . S
C462 C461 1.363 . S
C462 C468 1.428 . S
H463 C459 0.930 . S
H464 C461 0.929 . S
S465 N466 1.613 . S
S465 N467 1.610 . S
N466 S465 1.613 . S
N466 C469 1.349 1_655 S
N467 S465 1.610 . S
N467 C468 1.351 . S
C468 C462 1.428 . S
C468 N467 1.351 . S
C468 C469 1.425 1_655 S
C469 C460 1.437 . S
C469 N466 1.349 1_455 S
C469 C468 1.425 1_455 S
C470 C471 1.369 . S
C470 C472 1.419 1_455 S
C470 H474 0.930 . S
C471 C470 1.369 . S
C471 C480 1.429 1_455 S
C472 C470 1.419 1_655 S
C472 C473 1.363 . S
C472 H475 0.929 . S
C473 C472 1.363 . S
C473 C479 1.428 . S
H474 C470 0.930 . S
H475 C472 0.929 . S
S476 N477 1.613 . S
S476 N478 1.610 . S
N477 S476 1.613 . S
N477 C480 1.350 . S
N478 S476 1.610 . S
N478 C479 1.351 . S
C479 C473 1.428 . S
C479 N478 1.351 . S
C479 C480 1.434 . S
C480 C471 1.429 1_655 S
C480 N477 1.350 . S
C480 C479 1.434 . S
C481 C482 1.369 . S
C481 C483 1.419 . S
C481 H485 0.930 . S
C482 C481 1.369 . S
C482 C491 1.429 . S
C483 C481 1.419 . S
C483 C484 1.363 . S
C483 H486 0.929 . S
C484 C483 1.363 . S
C484 C490 1.428 . S
H485 C481 0.930 . S
H486 C483 0.929 . S
S487 N488 1.613 . S
S487 N489 1.610 . S
N488 S487 1.613 . S
N488 C491 1.350 . S
N489 S487 1.610 . S
N489 C490 1.351 . S
C490 C484 1.428 . S
C490 N489 1.351 . S
C490 C491 1.434 . S
C491 C482 1.429 . S
C491 N488 1.350 . S
C491 C490 1.434 . S
C492 C493 1.369 1_455 S
C492 C494 1.419 . S
C492 H496 0.930 . S
C493 C492 1.369 1_655 S
C493 C502 1.429 . S
C494 C492 1.419 . S
C494 C495 1.363 . S
C494 H497 0.929 . S
C495 C494 1.363 . S
C495 C501 1.428 1_455 S
H496 C492 0.930 . S
H497 C494 0.929 . S
S498 N499 1.613 . S
S498 N500 1.610 . S
N499 S498 1.613 . S
N499 C502 1.350 . S
N500 S498 1.610 . S
N500 C501 1.351 . S
C501 C495 1.428 1_655 S
C501 N500 1.351 . S
C501 C502 1.434 . S
C502 C493 1.429 . S
C502 N499 1.350 . S
C502 C501 1.434 . S
C503 C504 1.369 . S
C503 C505 1.419 1_655 S
C503 H507 0.930 . S
C504 C503 1.369 . S
C504 C513 1.429 . S
C505 C503 1.419 1_455 S
C505 C506 1.363 . S
C505 H508 0.929 . S
C506 C505 1.363 . S
C506 C512 1.428 . S
H507 C503 0.930 . S
H508 C505 0.929 . S
S509 N510 1.613 1_455 S
S509 N511 1.610 . S
N510 S509 1.613 1_655 S
N510 C513 1.350 . S
N511 S509 1.610 . S
N511 C512 1.351 . S
C512 C506 1.428 . S
C512 N511 1.351 . S
C512 C513 1.434 1_455 S
C513 C504 1.429 . S
C513 N510 1.350 . S
C513 C512 1.434 1_655 S
C514 C515 1.369 . S
C514 C516 1.419 . S
C514 H518 0.930 . S
C515 C514 1.369 . S
C515 C524 1.429 . S
C516 C514 1.419 . S
C516 C517 1.363 . S
C516 H519 0.929 . S
C517 C516 1.363 . S
C517 C523 1.428 . S
H518 C514 0.930 . S
H519 C516 0.929 . S
S520 N521 1.613 . S
S520 N522 1.610 . S
N521 S520 1.613 . S
N521 C524 1.350 . S
N522 S520 1.610 . S
N522 C523 1.351 . S
C523 C517 1.428 . S
C523 N522 1.351 . S
C523 C524 1.434 . S
C524 C515 1.429 . S
C524 N521 1.350 . S
C524 C523 1.434 . S
C525 C526 1.369 . S
C525 C527 1.419 . S
C525 H529 0.930 . S
C526 C525 1.369 . S
C526 C535 1.429 . S
C527 C525 1.419 . S
C527 C528 1.363 . S
C527 H530 0.929 . S
C528 C527 1.363 . S
C528 C534 1.428 . S
H529 C525 0.930 . S
H530 C527 0.929 . S
S531 N532 1.613 . S
S531 N533 1.610 . S
N532 S531 1.613 . S
N532 C535 1.350 . S
N533 S531 1.610 . S
N533 C534 1.351 . S
C534 C528 1.428 . S
C534 N533 1.351 . S
C534 C535 1.434 . S
C535 C526 1.429 . S
C535 N532 1.350 . S
C535 C534 1.434 . S
C536 C537 1.369 . S
C536 C538 1.419 . S
C536 H540 0.930 . S
C537 C536 1.369 . S
C537 C546 1.429 1_455 S
C538 C536 1.419 . S
C538 C539 1.363 1_455 S
C538 H541 0.929 . S
C539 C538 1.363 1_655 S
C539 C545 1.428 . S
H540 C536 0.930 . S
H541 C538 0.929 . S
S542 N543 1.613 . S
S542 N544 1.610 . S
N543 S542 1.613 . S
N543 C546 1.350 . S
N544 S542 1.610 . S
N544 C545 1.351 . S
C545 C539 1.428 . S
C545 N544 1.351 . S
C545 C546 1.434 . S
C546 C537 1.429 1_655 S
C546 N543 1.350 . S
C546 C545 1.434 . S
C547 C548 1.369 . S
C547 C549 1.419 . S
C547 H551 0.930 . S
C548 C547 1.369 . S
C548 C557 1.429 . S
C549 C547 1.419 . S
C549 C550 1.363 . S
C549 H552 0.929 . S
C550 C549 1.363 . S
C550 C556 1.428 . S
H551 C547 0.930 . S
H552 C549 0.929 . S
S553 N554 1.613 . S
S553 N555 1.610 . S
N554 S553 1.613 . S
N554 C557 1.350 . S
N555 S553 1.610 . S
N555 C556 1.351 . S
C556 C550 1.428 . S
C556 N555 1.351 . S
C556 C557 1.434 . S
C557 C548 1.429 . S
C557 N554 1.350 . S
C557 C556 1.434 . S
C558 C559 1.369 . S
C558 C560 1.419 . S
C558 H562 0.930 . S
C559 C558 1.369 . S
C559 C568 1.429 . S
C560 C558 1.419 . S
C560 C561 1.363 . S
C560 H563 0.929 . S
C561 C560 1.363 . S
C561 C567 1.428 . S
H562 C558 0.930 . S
H563 C560 0.929 . S
S564 N565 1.613 . S
S564 N566 1.610 . S
N565 S564 1.613 . S
N565 C568 1.350 . S
N566 S564 1.610 . S
N566 C567 1.351 . S
C567 C561 1.428 . S
C567 N566 1.351 . S
C567 C568 1.434 . S
C568 C559 1.429 . S
C568 N565 1.350 . S
C568 C567 1.434 . S
C569 C570 1.369 . S
C569 C571 1.419 1_655 S
C569 H573 0.930 . S
C570 C569 1.369 . S
C570 C579 1.429 . S
C571 C569 1.419 1_455 S
C571 C572 1.363 . S
C571 H574 0.929 . S
C572 C571 1.363 . S
C572 C578 1.428 . S
H573 C569 0.930 . S
H574 C571 0.929 . S
S575 N576 1.613 . S
S575 N577 1.610 1_655 S
N576 S575 1.613 . S
N576 C579 1.350 . S
N577 S575 1.610 1_455 S
N577 C578 1.351 . S
C578 C572 1.428 . S
C578 N577 1.351 . S
C578 C579 1.434 1_455 S
C579 C570 1.429 . S
C579 N576 1.350 . S
C579 C578 1.434 1_655 S
C273 C187 1.555 1_655 S
C275 C17 1.555 1_655 S
C284 C51 1.555 . S
C286 C221 1.555 . S
C295 C85 1.555 . S
C297 C255 1.555 . S
C306 C153 1.555 1_655 S
C308 C119 1.555 . S
C317 C139 2.030 . S
C319 C1 2.033 . S
C328 C35 2.033 . S
C330 C173 2.032 . S
C339 C71 2.031 . S
C341 C205 2.034 . S
C350 C105 2.035 . S
C352 C239 2.037 . S
C361 C103 2.033 . S
C363 C241 2.034 . S
C372 C37 2.031 . S
C374 C171 2.033 . S
C383 C69 2.030 . S
C385 C207 2.033 . S
C394 C3 2.030 . S
C396 C137 2.033 . S
C405 C15 1.285 . S
C407 C22 1.299 . S
C416 C49 1.299 . S
C418 C56 1.287 . S
C427 C83 1.286 . S
C429 C90 1.299 . S
C438 C124 1.283 . S
C440 C117 1.301 . S
C449 C158 1.286 . S
C451 C151 1.298 . S
C460 C192 1.291 . S
C462 C185 1.296 . S
C471 C219 1.302 . S
C473 C226 1.287 . S
C482 C260 1.298 . S
C484 C253 1.288 . S
C493 C6 1.945 . S
C495 C28 1.944 . S
C504 C40 1.945 . S
C506 C62 1.944 . S
C515 C96 1.944 . S
C517 C74 1.943 . S
C526 C130 1.944 . S
C528 C108 1.943 . S
C537 C142 1.943 . S
C539 C164 1.943 . S
C548 C176 1.944 . S
C550 C198 1.943 . S
C559 C210 1.942 . S
C561 C232 1.945 . S
C570 C244 1.943 . S
C572 C266 1.944 . S
