# Generated by pormake.
# Topology smc, (6)-cn, num edge types: 1
# Building blocks:
#     Node 0, Type 0, BuildingBlock: MIFKUJ_clean_sbu_0, # of connection points: 6
#     Node 1, Type 0, BuildingBlock: MIFKUJ_clean_sbu_0, # of connection points: 6
#     Node 2, Type 0, BuildingBlock: MIFKUJ_clean_sbu_0, # of connection points: 6
#     Node 3, Type 0, BuildingBlock: MIFKUJ_clean_sbu_0, # of connection points: 6
#     Node 4, Type 0, BuildingBlock: MIFKUJ_clean_sbu_0, # of connection points: 6
#     Node 5, Type 0, BuildingBlock: MIFKUJ_clean_sbu_0, # of connection points: 6
#     Node 6, Type 0, BuildingBlock: MIFKUJ_clean_sbu_0, # of connection points: 6
#     Node 7, Type 0, BuildingBlock: MIFKUJ_clean_sbu_0, # of connection points: 6
#     Node 8, Type 0, BuildingBlock: MIFKUJ_clean_sbu_0, # of connection points: 6
#     Edge 9, Type (0, 0), BuildingBlock: XIVTED_clean_linker_0, # of connection points: 2
#     Edge 10, Type (0, 0), BuildingBlock: XIVTED_clean_linker_0, # of connection points: 2
#     Edge 11, Type (0, 0), BuildingBlock: XIVTED_clean_linker_0, # of connection points: 2
#     Edge 12, Type (0, 0), BuildingBlock: XIVTED_clean_linker_0, # of connection points: 2
#     Edge 13, Type (0, 0), BuildingBlock: XIVTED_clean_linker_0, # of connection points: 2
#     Edge 14, Type (0, 0), BuildingBlock: XIVTED_clean_linker_0, # of connection points: 2
#     Edge 15, Type (0, 0), BuildingBlock: XIVTED_clean_linker_0, # of connection points: 2
#     Edge 16, Type (0, 0), BuildingBlock: XIVTED_clean_linker_0, # of connection points: 2
#     Edge 17, Type (0, 0), BuildingBlock: XIVTED_clean_linker_0, # of connection points: 2
#     Edge 18, Type (0, 0), BuildingBlock: XIVTED_clean_linker_0, # of connection points: 2
#     Edge 19, Type (0, 0), BuildingBlock: XIVTED_clean_linker_0, # of connection points: 2
#     Edge 20, Type (0, 0), BuildingBlock: XIVTED_clean_linker_0, # of connection points: 2
#     Edge 21, Type (0, 0), BuildingBlock: XIVTED_clean_linker_0, # of connection points: 2
#     Edge 22, Type (0, 0), BuildingBlock: XIVTED_clean_linker_0, # of connection points: 2
#     Edge 23, Type (0, 0), BuildingBlock: XIVTED_clean_linker_0, # of connection points: 2
#     Edge 24, Type (0, 0), BuildingBlock: XIVTED_clean_linker_0, # of connection points: 2
#     Edge 25, Type (0, 0), BuildingBlock: XIVTED_clean_linker_0, # of connection points: 2
#     Edge 26, Type (0, 0), BuildingBlock: XIVTED_clean_linker_0, # of connection points: 2
#     Edge 27, Type (0, 0), BuildingBlock: XIVTED_clean_linker_0, # of connection points: 2
#     Edge 28, Type (0, 0), BuildingBlock: XIVTED_clean_linker_0, # of connection points: 2
#     Edge 29, Type (0, 0), BuildingBlock: XIVTED_clean_linker_0, # of connection points: 2
#     Edge 30, Type (0, 0), BuildingBlock: XIVTED_clean_linker_0, # of connection points: 2
#     Edge 31, Type (0, 0), BuildingBlock: XIVTED_clean_linker_0, # of connection points: 2
#     Edge 32, Type (0, 0), BuildingBlock: XIVTED_clean_linker_0, # of connection points: 2
#     Edge 33, Type (0, 0), BuildingBlock: XIVTED_clean_linker_0, # of connection points: 2
#     Edge 34, Type (0, 0), BuildingBlock: XIVTED_clean_linker_0, # of connection points: 2
#     Edge 35, Type (0, 0), BuildingBlock: XIVTED_clean_linker_0, # of connection points: 2
# Relax obj value: 0.181
# Max RMSD: 0.297
# Mean RMSD: 0.290
data_MOF--net-smc--node1-MIFKUJ_clean_sbu_0--edge1-XIVTED_clean_linker_0
_symmetry_space_group_name_H-M    P1
_symmetry_Int_Tables_number       1
_symmetry_cell_setting            triclinic
loop_
_symmetry_equiv_pos_as_xyz
'x, y, z'
_cell_length_a     34.800911
_cell_length_b     33.889311
_cell_length_c     39.731492
_cell_angle_alpha  91.034986
_cell_angle_beta   91.276864
_cell_angle_gamma 120.58884
loop_
_atom_site_label
_atom_site_type_symbol
_atom_site_fract_x
_atom_site_fract_y
_atom_site_fract_z
_atom_type_partial_charge
Zn0 Zn 0.09485 0.43638 0.96429 0.0
Zn1 Zn 0.99675 0.43783 0.96668 0.0
C2 C 0.14411 0.53066 0.95212 0.0
O3 O 0.15007 0.51306 0.92438 0.0
C4 C 0.91944 0.36257 -0.00123 0.0
O5 O 0.936 0.3884 0.02639 0.0
O6 O 0.14881 0.42981 0.96959 0.0
O7 O 0.0518 0.39634 -0.00203 0.0
O8 O 0.03477 0.44901 0.0091 0.0
C9 C 0.16393 0.43116 -0.00072 0.0
O10 O 0.14262 0.4346 0.025 0.0
O11 O 0.11843 0.50366 0.97392 0.0
C12 C 0.96256 0.49501 0.94248 0.0
O13 O 0.96152 0.47675 0.91279 0.0
O14 O 0.97772 0.48454 0.96801 0.0
O15 O 0.01554 0.43265 0.91958 0.0
O16 O 0.07169 0.4196 0.91746 0.0
O17 O 0.93982 0.37667 0.97145 0.0
C18 C 0.0421 0.41802 0.01906 0.0
C19 C 0.04105 0.42352 0.90295 0.0
Zn20 Zn 0.66031 0.56528 0.02083 0.0
Zn21 Zn 0.57437 0.61621 0.01522 0.0
C22 C 0.62117 0.48082 0.05411 0.0
O23 O 0.65039 0.5076 0.07773 0.0
C24 C 0.61567 0.715 0.01817 0.0
O25 O 0.64428 0.71285 -0.00169 0.0
O26 O 0.71959 0.57183 0.0112 0.0
O27 O 0.63877 0.58837 0.98104 0.0
O28 O 0.59644 0.61848 0.96867 0.0
C29 C 0.74174 0.58943 0.98512 0.0
O30 O 0.72635 0.60595 0.96232 0.0
O31 O 0.61774 0.49837 0.02704 0.0
C32 C 0.48533 0.544 0.03608 0.0
O33 O 0.50394 0.54656 0.06578 0.0
O34 O 0.50895 0.56945 0.01285 0.0
O35 O 0.60997 0.59643 0.04049 0.0
O36 O 0.6681 0.60092 0.06417 0.0
O37 O 0.5842 0.67815 0.0296 0.0
C38 C 0.62223 0.60395 0.95969 0.0
C39 C 0.63917 0.61289 0.06419 0.0
Zn40 Zn 0.44562 0.94871 -0.00036 0.0
Zn41 Zn 0.51859 0.07155 0.01259 0.0
C42 C 0.52737 0.9455 -0.00323 0.0
O43 O 0.52689 0.95634 0.96524 0.0
C44 C 0.53605 0.15395 0.04746 0.0
O45 O 0.54491 0.13507 0.07277 0.0
O46 O 0.39618 0.88331 0.99014 0.0
O47 O 0.42268 0.97245 0.03566 0.0
O48 O 0.48077 0.04008 0.05202 0.0
C49 C 0.37005 0.85824 0.01255 0.0
O50 O 0.37565 0.8748 0.04357 0.0
O51 O 0.49832 0.9443 0.01618 0.0
C52 C 0.60549 0.10082 0.98933 0.0
O53 O 0.58433 0.097 0.96057 0.0
O54 O 0.583 0.08688 0.01581 0.0
O55 O 0.49074 0.05333 0.96574 0.0
O56 O 0.45186 0.97815 0.95561 0.0
O57 O 0.52482 0.13324 0.01879 0.0
C58 C 0.44186 0.00634 0.05648 0.0
C59 C 0.46805 0.01886 0.94589 0.0
Zn60 Zn 0.72435 0.81615 0.3379 0.0
Zn61 Zn 0.60305 0.76431 0.3395 0.0
C62 C 0.72002 0.89901 0.33083 0.0
O63 O 0.70716 0.88327 0.29968 0.0
C64 C 0.51601 0.67861 0.34467 0.0
O65 O 0.53841 0.6621 0.35997 0.0
O66 O 0.78868 0.83275 0.33166 0.0
O67 O 0.69952 0.76937 0.37378 0.0
O68 O 0.62644 0.74181 0.37696 0.0
C69 C 0.81063 0.82003 0.35 0.0
O70 O 0.79192 0.79535 0.37632 0.0
O71 O 0.72643 0.87476 0.35171 0.0
C72 C 0.59675 0.84224 0.32641 0.0
O73 O 0.59502 0.82658 0.29558 0.0
O74 O 0.60602 0.8241 0.35062 0.0
O75 O 0.62283 0.76075 0.293 0.0
O76 O 0.69632 0.79241 0.29219 0.0
O77 O 0.53663 0.7197 0.33499 0.0
C78 C 0.66236 0.74401 0.38733 0.0
C79 C 0.65816 0.77226 0.27727 0.0
Zn80 Zn 0.21635 0.984 0.31428 0.0
Zn81 Zn 0.29144 0.93578 0.32793 0.0
C82 C 0.12686 0.92623 0.29279 0.0
O83 O 0.14272 0.95387 0.26746 0.0
C84 C 0.36805 0.93021 0.35551 0.0
O85 O 0.35692 0.93811 0.38518 0.0
O86 O 0.20336 0.03489 0.3097 0.0
O87 O 0.24952 0.99916 0.35977 0.0
O88 O 0.29711 0.97439 0.36753 0.0
C89 C 0.18531 0.04415 0.33361 0.0
O90 O 0.17694 0.02117 0.36142 0.0
O91 O 0.15417 0.92845 0.31565 0.0
C92 C 0.22007 0.84828 0.30267 0.0
O93 O 0.23845 0.86421 0.27373 0.0
O94 O 0.23601 0.87387 0.32909 0.0
O95 O 0.29737 0.96549 0.28479 0.0
O96 O 0.25 0.98902 0.2719 0.0
O97 O 0.34457 0.92694 0.32946 0.0
C98 C 0.27868 0.99625 0.37769 0.0
C99 C 0.28218 0.98318 0.26465 0.0
Zn100 Zn 0.01128 0.29415 0.31856 0.0
Zn101 Zn 0.09251 0.43884 0.32618 0.0
C102 C 0.05478 0.24461 0.30163 0.0
O103 O 0.03938 0.24558 0.27136 0.0
C104 C 0.08768 0.51937 0.3404 0.0
O105 O 0.09003 0.50824 0.37156 0.0
O106 O 0.9468 0.24869 0.32699 0.0
O107 O 0.03756 0.35217 0.34402 0.0
O108 O 0.06794 0.41569 0.37282 0.0
C109 C 0.93826 0.22303 0.35203 0.0
O110 O 0.97122 0.23015 0.37286 0.0
O111 O 0.04742 0.26401 0.32625 0.0
C112 C 0.18327 0.49104 0.30702 0.0
O113 O 0.16437 0.50267 0.28328 0.0
O114 O 0.15872 0.46205 0.32828 0.0
O115 O 0.06167 0.39001 0.28714 0.0
O116 O 0.0189 0.31631 0.27183 0.0
O117 O 0.08639 0.49346 0.31635 0.0
C118 C 0.04252 0.37265 0.37182 0.0
C119 C 0.0419 0.35838 0.26423 0.0
Zn120 Zn 0.38896 0.04978 0.68302 0.0
Zn121 Zn 0.26172 0.02549 0.68388 0.0
C122 C 0.40703 0.14315 0.69162 0.0
O123 O 0.36936 0.12721 0.67403 0.0
C124 C 0.17381 0.96084 0.69677 0.0
O125 O 0.18314 0.99461 0.71839 0.0
O126 O 0.4327 0.02713 0.68659 0.0
O127 O 0.33006 0.01192 0.70229 0.0
O128 O 0.29027 0.03212 0.73066 0.0
C129 C 0.46363 0.04523 0.7094 0.0
O130 O 0.46289 0.07375 0.73185 0.0
O131 O 0.42013 0.11576 0.70002 0.0
C132 C 0.21664 0.06367 0.65247 0.0
O133 O 0.21431 0.03382 0.62979 0.0
O134 O 0.23915 0.0698 0.67972 0.0
O135 O 0.30309 0.03585 0.64386 0.0
O136 O 0.37194 0.04977 0.63522 0.0
O137 O 0.20489 0.96341 0.67896 0.0
C138 C 0.32219 0.02437 0.73009 0.0
C139 C 0.33439 0.04309 0.624 0.0
Zn140 Zn 0.91602 0.17163 0.64395 0.0
Zn141 Zn 0.84189 0.21514 0.63386 0.0
C142 C 0.85099 0.09966 0.68196 0.0
O143 O 0.87719 0.12716 0.70667 0.0
C144 C 0.83842 0.29322 0.60879 0.0
O145 O 0.87055 0.2974 0.58974 0.0
O146 O 0.96488 0.15645 0.64856 0.0
O147 O 0.91971 0.19401 0.59742 0.0
O148 O 0.86975 0.21561 0.59001 0.0
C149 C 0.9765 0.14125 0.62372 0.0
O150 O 0.95518 0.13378 0.59446 0.0
O151 O 0.85866 0.1135 0.652 0.0
C152 C 0.77478 0.14549 0.67401 0.0
O153 O 0.80113 0.17306 0.69863 0.0
O154 O 0.78742 0.15447 0.64391 0.0
O155 O 0.88554 0.24564 0.67288 0.0
O156 O 0.93287 0.22063 0.67906 0.0
O157 O 0.81997 0.25968 0.62836 0.0
C158 C 0.89993 0.20883 0.57889 0.0
C159 C 0.91867 0.24689 0.68799 0.0
Zn160 Zn 0.69729 0.56065 0.65614 0.0
Zn161 Zn 0.76015 0.69619 0.66663 0.0
C162 C 0.75056 0.53114 0.62347 0.0
O163 O 0.72719 0.53148 0.59716 0.0
C164 C 0.76552 0.77754 0.69684 0.0
O165 O 0.77771 0.76474 0.72411 0.0
O166 O 0.6426 0.49784 0.65838 0.0
O167 O 0.69905 0.58875 0.70184 0.0
O168 O 0.73423 0.6645 0.7089 0.0
C169 C 0.64338 0.47312 0.68179 0.0
O170 O 0.67894 0.48977 0.70207 0.0
O171 O 0.74681 0.54698 0.65166 0.0
C172 C 0.84807 0.75117 0.64567 0.0
O173 O 0.82646 0.76599 0.62725 0.0
O174 O 0.82586 0.71729 0.66432 0.0
O175 O 0.72509 0.66458 0.62444 0.0
O176 O 0.68852 0.58914 0.61446 0.0
O177 O 0.75655 0.75358 0.66971 0.0
C178 C 0.71177 0.62459 0.72028 0.0
C179 C 0.70071 0.62956 0.60552 0.0
H180 H 0.43892 0.51929 0.97576 0.0
H181 H 0.20517 0.43344 0.05932 0.0
H182 H 0.42055 0.50362 0.0828 0.0
H183 H 0.22275 0.43766 0.95195 0.0
H184 H 0.28173 0.45017 0.06833 0.0
H185 H 0.35823 0.48069 0.96642 0.0
C186 C 0.41784 0.50732 -0.00268 0.0
C187 C 0.4365 0.5153 0.03017 0.0
C188 C 0.26867 0.44686 0.04279 0.0
C189 C 0.34392 0.47135 0.01964 0.0
C190 C 0.22495 0.43734 0.0376 0.0
C191 C 0.20776 0.43485 0.00483 0.0
C192 C 0.29551 0.45428 0.015 0.0
C193 C 0.23475 0.43974 0.97766 0.0
C194 C 0.37171 0.48517 0.99195 0.0
C195 C 0.40756 0.49847 0.05708 0.0
N196 N 0.27747 0.4498 0.98338 0.0
N197 N 0.36267 0.47785 0.05126 0.0
H198 H 0.52243 0.90193 0.05537 0.0
H199 H 0.66392 0.79472 0.98466 0.0
H200 H 0.59196 0.94012 0.96212 0.0
H201 H 0.56633 0.73386 0.06136 0.0
H202 H 0.65347 0.86083 0.98551 0.0
H203 H 0.55444 0.85383 0.06693 0.0
C204 C 0.54515 0.901 0.03761 0.0
C205 C 0.55386 0.92449 0.00737 0.0
C206 C 0.63482 0.83328 0.00247 0.0
C207 C 0.59043 0.86923 0.02049 0.0
C208 C 0.64086 0.79557 0.00211 0.0
C209 C 0.61536 0.75831 0.02256 0.0
C210 C 0.60328 0.83387 0.02358 0.0
C211 C 0.58618 0.76149 0.04479 0.0
C212 C 0.56323 0.87331 0.0442 0.0
C213 C 0.5838 0.92211 0.9855 0.0
N214 N 0.5806 0.79838 0.04446 0.0
N215 N 0.60058 0.89448 -0.00771 0.0
H216 H 0.30749 0.79536 0.05379 0.0
H217 H 0.19818 0.59723 0.90957 0.0
H218 H 0.34927 0.81336 0.95092 0.0
H219 H 0.15353 0.57788 0.01166 0.0
H220 H 0.2502 0.67799 0.92366 0.0
H221 H 0.24826 0.71701 0.03848 0.0
C222 C 0.3042 0.7829 0.02797 0.0
C223 C 0.3336 0.81095 0.00364 0.0
C224 C 0.22884 0.65624 0.94297 0.0
C225 C 0.26576 0.72131 0.98594 0.0
C226 C 0.19901 0.61005 0.93491 0.0
C227 C 0.17165 0.58062 0.95954 0.0
C228 C 0.23165 0.67325 0.97598 0.0
C229 C 0.17407 0.5993 0.9919 0.0
C230 C 0.2703 0.73817 0.01924 0.0
C231 C 0.32756 0.79298 0.97057 0.0
N232 N 0.20385 0.64437 -0.00074 0.0
N233 N 0.29447 0.74932 0.96275 0.0
H234 H 0.56662 0.21152 0.10343 0.0
H235 H 0.5629 0.41516 0.0081 0.0
H236 H 0.51474 0.19963 0.00166 0.0
H237 H 0.62647 0.43168 0.10611 0.0
H238 H 0.53373 0.33277 0.00944 0.0
H239 H 0.57821 0.28887 0.10857 0.0
C240 C 0.55741 0.22505 0.08224 0.0
C241 C 0.54037 0.19939 0.05188 0.0
C242 C 0.55369 0.35435 0.03081 0.0
C243 C 0.55338 0.28771 0.05763 0.0
C244 C 0.57028 0.40142 0.0301 0.0
C245 C 0.59779 0.43047 0.0568 0.0
C246 C 0.56481 0.33621 0.05835 0.0
C247 C 0.60586 0.41065 0.08478 0.0
C248 C 0.56399 0.26918 0.08521 0.0
C249 C 0.52858 0.21845 0.02538 0.0
N250 N 0.58987 0.36479 0.08466 0.0
N251 N 0.53562 0.26157 0.02879 0.0
H252 H 0.6634 0.13002 0.93779 0.0
H253 H 0.86713 0.3212 0.0526 0.0
H254 H 0.66 0.13961 0.04602 0.0
H255 H 0.87287 0.30377 0.94529 0.0
H256 H 0.79356 0.25133 0.05151 0.0
H257 H 0.7424 0.18904 0.94086 0.0
C258 C 0.67944 0.14401 0.96229 0.0
C259 C 0.65487 0.13001 0.99167 0.0
C260 C 0.81107 0.26259 0.02825 0.0
C261 C 0.74543 0.19839 -0.00465 0.0
C262 C 0.85309 0.30257 0.02884 0.0
C263 C 0.87615 0.31868 -0.00105 0.0
C264 C 0.79177 0.23857 -0.00248 0.0
C265 C 0.8563 0.29288 0.96894 0.0
C266 C 0.7246 0.17789 0.96402 0.0
C267 C 0.67756 0.14932 0.02271 0.0
N268 N 0.8152 0.25439 0.96897 0.0
N269 N 0.7214 0.18294 0.02369 0.0
H270 H 0.92138 0.51984 0.89462 0.0
H271 H 0.79206 0.5753 0.03145 0.0
H272 H 0.95183 0.5303 0.00152 0.0
H273 H 0.78347 0.59805 0.9257 0.0
H274 H 0.85398 0.56311 0.02073 0.0
H275 H 0.87461 0.5533 0.90478 0.0
C276 C 0.91878 0.52976 0.92015 0.0
C277 C 0.94 0.52158 0.94731 0.0
C278 C 0.83899 0.57132 -0.00012 0.0
C279 C 0.88631 0.55941 0.95911 0.0
C280 C 0.80352 0.57814 0.00599 0.0
C281 C 0.78235 0.58724 0.97936 0.0
C282 C 0.85299 0.57285 0.96681 0.0
C283 C 0.79881 0.59095 0.94693 0.0
C284 C 0.89209 0.54887 0.92593 0.0
C285 C 0.93568 0.53543 0.97983 0.0
N286 N 0.8328 0.58306 0.94145 0.0
N287 N 0.90885 0.55305 0.98485 0.0
H288 H 0.86908 0.80283 0.38522 0.0
H289 H 0.0606 0.91957 0.25059 0.0
H290 H 0.85646 0.86367 0.29422 0.0
H291 H 0.08198 0.87757 0.34777 0.0
H292 H 0.98263 0.89008 0.26343 0.0
H293 H 0.94431 0.82236 0.36969 0.0
C294 C 0.88206 0.82026 0.36197 0.0
C295 C 0.85638 0.8318 0.34109 0.0
C296 C 0.00422 0.88693 0.28187 0.0
C297 C 0.94243 0.85393 0.32304 0.0
C298 C 0.0488 0.90354 0.27448 0.0
C299 C 0.07812 0.90138 0.29823 0.0
C300 C 0.98858 0.8679 0.31328 0.0
C301 C 0.06068 0.88009 0.32872 0.0
C302 C 0.92502 0.83135 0.35311 0.0
C303 C 0.87501 0.85427 0.31122 0.0
N304 N 0.01715 0.8645 0.33548 0.0
N305 N 0.91681 0.86457 0.30313 0.0
H306 H 0.07941 0.22413 0.36176 0.0
H307 H 0.18514 0.0873 0.27613 0.0
H308 H 0.08383 0.20733 0.25418 0.0
H309 H 0.15276 0.07795 0.38107 0.0
H310 H 0.1572 0.13978 0.26869 0.0
H311 H 0.11528 0.17884 0.37021 0.0
C312 C 0.08817 0.21117 0.33992 0.0
C313 C 0.07843 0.21932 0.3072 0.0
C314 C 0.15637 0.12637 0.29336 0.0
C315 C 0.11946 0.16759 0.31672 0.0
C316 C 0.17245 0.09653 0.29768 0.0
C317 C 0.17107 0.07805 0.32925 0.0
C318 C 0.13903 0.13804 0.32086 0.0
C319 C 0.15422 0.09119 0.35625 0.0
C320 C 0.10851 0.18522 0.34477 0.0
C321 C 0.09049 0.20167 0.27984 0.0
N322 N 0.13878 0.12035 0.35142 0.0
N323 N 0.11034 0.17658 0.28522 0.0
H324 H 0.86787 0.1869 0.30583 0.0
H325 H 0.75443 0.94468 0.39161 0.0
H326 H 0.90795 0.16289 0.4033 0.0
H327 H 0.72373 0.965 0.2898 0.0
H328 H 0.79658 0.02764 0.40169 0.0
H329 H 0.80193 0.10992 0.30524 0.0
C330 C 0.86239 0.16581 0.32742 0.0
C331 C 0.89403 0.18095 0.35432 0.0
C332 C 0.78003 0.01397 0.3773 0.0
C333 C 0.8188 0.09272 0.35367 0.0
C334 C 0.75582 0.96652 0.37153 0.0
C335 C 0.73647 0.94785 0.33952 0.0
C336 C 0.78514 0.04299 0.35082 0.0
C337 C 0.73882 0.97788 0.31468 0.0
C338 C 0.82476 0.12178 0.32701 0.0
C339 C 0.88491 0.15229 0.38172 0.0
N340 N 0.76347 0.02401 0.32066 0.0
N341 N 0.84851 0.10931 0.38046 0.0
H342 H 0.186 0.78088 0.25286 0.0
H343 H 0.09085 0.58274 0.38571 0.0
H344 H 0.17886 0.80325 0.3593 0.0
H345 H 0.09772 0.55945 0.27938 0.0
H346 H 0.11119 0.66153 0.37488 0.0
H347 H 0.1418 0.69822 0.26037 0.0
C348 C 0.17455 0.76847 0.27772 0.0
C349 C 0.18688 0.79903 0.30561 0.0
C350 C 0.10769 0.63905 0.35383 0.0
C351 C 0.13662 0.70447 0.31442 0.0
C352 C 0.09606 0.594 0.36001 0.0
C353 C 0.09323 0.56465 0.33348 0.0
C354 C 0.11692 0.65503 0.32092 0.0
C355 C 0.09993 0.58102 0.30065 0.0
C356 C 0.14938 0.72123 0.28201 0.0
C357 C 0.17073 0.78096 0.33716 0.0
N358 N 0.11207 0.62532 0.29536 0.0
N359 N 0.14697 0.73487 0.34078 0.0
H360 H 0.23428 0.47324 0.35101 0.0
H361 H 0.46217 0.69807 0.30601 0.0
H362 H 0.24474 0.56347 0.27185 0.0
H363 H 0.45852 0.59299 0.36804 0.0
H364 H 0.38178 0.65025 0.29527 0.0
H365 H 0.31574 0.51713 0.35924 0.0
C366 C 0.25368 0.50206 0.33522 0.0
C367 C 0.23259 0.51478 0.31078 0.0
C368 C 0.39852 0.63752 0.31115 0.0
C369 C 0.32567 0.56535 0.32031 0.0
C370 C 0.44447 0.66492 0.31742 0.0
C371 C 0.46718 0.64958 0.33804 0.0
C372 C 0.37482 0.59453 0.32582 0.0
C373 C 0.44239 0.60619 0.35199 0.0
C374 C 0.30016 0.52708 0.33994 0.0
C375 C 0.25945 0.55239 0.29102 0.0
N376 N 0.39748 0.58026 0.34576 0.0
N377 N 0.30448 0.5765 0.29639 0.0
H378 H 0.40749 0.92761 0.2975 0.0
H379 H 0.57463 0.8638 0.3873 0.0
H380 H 0.42001 0.92324 0.40551 0.0
H381 H 0.57018 0.88344 0.28055 0.0
H382 H 0.5246 0.89378 0.39564 0.0
H383 H 0.47171 0.91785 0.29171 0.0
C384 C 0.42378 0.92464 0.32005 0.0
C385 C 0.40798 0.92574 0.35204 0.0
C386 C 0.53516 0.89221 0.37047 0.0
C387 C 0.48188 0.91454 0.34557 0.0
C388 C 0.56398 0.87535 0.3657 0.0
C389 C 0.57602 0.87031 0.33307 0.0
C390 C 0.51818 0.90392 0.3424 0.0
C391 C 0.56128 0.88603 0.30609 0.0
C392 C 0.46069 0.91931 0.31673 0.0
C393 C 0.43087 0.92228 0.38035 0.0
N394 N 0.53264 0.90144 0.3113 0.0
N395 N 0.46641 0.91638 0.37644 0.0
H396 H 0.7076 0.09035 0.62803 0.0
H397 H 0.48475 0.00253 0.65968 0.0
H398 H 0.73341 0.12518 0.73436 0.0
H399 H 0.53529 0.07999 0.75381 0.0
H400 H 0.55739 0.00989 0.65165 0.0
H401 H 0.62794 0.05064 0.63716 0.0
C402 C 0.6965 0.08857 0.6535 0.0
C403 C 0.72735 0.11199 0.68035 0.0
C404 C 0.55286 0.02548 0.67402 0.0
C405 C 0.63548 0.06601 0.69128 0.0
C406 C 0.51102 0.02074 0.67883 0.0
C407 C 0.5042 0.04165 0.70706 0.0
C408 C 0.58824 0.05176 0.6975 0.0
C409 C 0.53924 0.06411 0.73129 0.0
C410 C 0.65065 0.06558 0.65881 0.0
C411 C 0.71091 0.10824 0.71279 0.0
N412 N 0.5798 0.06907 0.72572 0.0
N413 N 0.66618 0.08655 0.71722 0.0
H414 H 0.85544 0.35784 0.56194 0.0
H415 H 0.77342 0.49507 0.67592 0.0
H416 H 0.79625 0.31208 0.65833 0.0
H417 H 0.77549 0.50247 0.56756 0.0
H418 H 0.79726 0.43865 0.67221 0.0
H419 H 0.83946 0.42039 0.56567 0.0
C420 C 0.83901 0.3609 0.58383 0.0
C421 C 0.82693 0.3296 0.60979 0.0
C422 C 0.79288 0.45299 0.6493 0.0
C423 C 0.80953 0.40143 0.61448 0.0
C424 C 0.77973 0.48554 0.65139 0.0
C425 C 0.77226 0.50335 0.62196 0.0
C426 C 0.79922 0.43862 0.61762 0.0
C427 C 0.78064 0.48941 0.59085 0.0
C428 C 0.82996 0.39655 0.58592 0.0
C429 C 0.80578 0.33519 0.63761 0.0
N430 N 0.79361 0.45775 0.58946 0.0
N431 N 0.79802 0.3706 0.63933 0.0
H432 H 0.562 0.42932 0.64767 0.0
H433 H 0.48535 0.188 0.72929 0.0
H434 H 0.63848 0.40976 0.72571 0.0
H435 H 0.39912 0.21231 0.66409 0.0
H436 H 0.54059 0.26989 0.73005 0.0
H437 H 0.50105 0.35047 0.65426 0.0
C438 C 0.56593 0.40851 0.66624 0.0
C439 C 0.60552 0.42609 0.68601 0.0
C440 C 0.50939 0.25741 0.71586 0.0
C441 C 0.53597 0.33587 0.69368 0.0
C442 C 0.47778 0.21064 0.71546 0.0
C443 C 0.43769 0.19319 0.69636 0.0
C444 C 0.5011 0.28695 0.69674 0.0
C445 C 0.42963 0.22419 0.67907 0.0
C446 C 0.53107 0.36356 0.67009 0.0
C447 C 0.60866 0.39764 0.70982 0.0
N448 N 0.46129 0.26949 0.67934 0.0
N449 N 0.57451 0.35389 0.71282 0.0
H450 H 0.74202 0.81384 0.64482 0.0
H451 H 0.8369 0.05529 0.74136 0.0
H452 H 0.78813 0.84032 0.74908 0.0
H453 H 0.79884 0.03096 0.6355 0.0
H454 H 0.80404 0.97288 0.74757 0.0
H455 H 0.74883 0.8891 0.64383 0.0
C456 C 0.75322 0.83531 0.66762 0.0
C457 C 0.76524 0.82104 0.69694 0.0
C458 C 0.80223 0.98549 0.72309 0.0
C459 C 0.77315 0.90738 0.69593 0.0
C460 C 0.82081 0.03259 0.71954 0.0
C461 C 0.82162 0.05018 0.68767 0.0
C462 C 0.78446 0.95583 0.69456 0.0
C463 C 0.79974 0.01902 0.66043 0.0
C464 C 0.75701 0.87829 0.66704 0.0
C465 C 0.77902 0.85012 0.7258 0.0
N466 N 0.78275 0.97342 0.66437 0.0
N467 N 0.78309 0.89213 0.72446 0.0
H468 H 0.90196 0.83944 0.628 0.0
H469 H 0.13814 0.87142 0.67317 0.0
H470 H 0.90651 0.72578 0.67112 0.0
H471 H 0.10244 0.97182 0.70157 0.0
H472 H 0.05859 0.81632 0.65844 0.0
H473 H 0.98226 0.88787 0.6392 0.0
C474 C 0.91991 0.82439 0.63933 0.0
C475 C 0.89741 0.77853 0.64886 0.0
C476 C 0.06852 0.85042 0.66807 0.0
C477 C 0.98943 0.83387 0.66139 0.0
C478 C 0.11362 0.88173 0.67637 0.0
C479 C 0.12665 0.92598 0.68886 0.0
C480 C 0.03701 0.86434 0.67124 0.0
C481 C 0.09376 0.93787 0.69244 0.0
C482 C 0.96567 0.85217 0.64586 0.0
C483 C 0.92259 0.76107 0.66361 0.0
N484 N 0.0506 0.90745 0.6833 0.0
N485 N 0.96748 0.78883 0.66944 0.0
H486 H 0.19331 0.10709 0.70003 0.0
H487 H 0.01178 0.11199 0.57524 0.0
H488 H 0.17307 0.06432 0.59498 0.0
H489 H 0.02782 0.15251 0.68064 0.0
H490 H 0.07424 0.09898 0.58168 0.0
H491 H 0.13709 0.12982 0.69294 0.0
C492 C 0.17758 0.10314 0.67539 0.0
C493 C 0.18771 0.08356 0.64809 0.0
C494 C 0.06422 0.1108 0.60343 0.0
C495 C 0.12316 0.10893 0.6399 0.0
C496 C 0.02841 0.11815 0.59977 0.0
C497 C 0.01435 0.13317 0.62747 0.0
C498 C 0.08623 0.11843 0.63504 0.0
C499 C 0.03741 0.14077 0.65861 0.0
C500 C 0.1453 0.11584 0.6714 0.0
C501 C 0.1661 0.07896 0.61679 0.0
N502 N 0.07214 0.1332 0.66158 0.0
N503 N 0.13473 0.09127 0.61361 0.0
H504 H 0.06896 0.4422 0.23712 0.0
H505 H 0.0448 0.34717 0.04796 0.0
H506 H 0.02291 0.30063 0.20996 0.0
H507 H 0.04366 0.47127 0.07242 0.0
H508 H 0.04807 0.33469 0.10792 0.0
H509 H 0.0712 0.4586 0.17701 0.0
C510 C 0.05954 0.4147 0.21855 0.0
C511 C 0.0454 0.36994 0.22846 0.0
C512 C 0.04707 0.36463 0.10016 0.0
C513 C 0.04819 0.38845 0.16019 0.0
C514 C 0.04526 0.37182 0.06597 0.0
C515 C 0.04377 0.4102 0.05525 0.0
C516 C 0.04776 0.39624 0.12383 0.0
C517 C 0.0445 0.44106 0.07967 0.0
C518 C 0.06065 0.42403 0.18437 0.0
C519 C 0.0336 0.33554 0.20345 0.0
N520 N 0.04656 0.43347 0.11294 0.0
N521 N 0.03533 0.34555 0.17048 0.0
H522 H 0.58244 0.72369 0.23667 0.0
H523 H 0.71482 0.67933 0.0964 0.0
H524 H 0.72639 0.79248 0.23518 0.0
H525 H 0.57296 0.62607 0.08752 0.0
H526 H 0.72012 0.72911 0.14338 0.0
H527 H 0.57816 0.69535 0.17888 0.0
C528 C 0.61315 0.7333 0.2241 0.0
C529 C 0.65483 0.75968 0.24108 0.0
C530 C 0.68783 0.70708 0.13094 0.0
C531 C 0.6501 0.72735 0.17507 0.0
C532 C 0.68481 0.67859 0.10414 0.0
C533 C 0.64326 0.64814 0.08849 0.0
C534 C 0.64882 0.70435 0.1427 0.0
C535 C 0.60553 0.64889 0.09916 0.0
C536 C 0.61066 0.71719 0.19107 0.0
C537 C 0.69349 0.77154 0.22338 0.0
N538 N 0.60902 0.67598 0.12611 0.0
N539 N 0.69013 0.75478 0.19153 0.0
H540 H 0.47673 0.062 0.11288 0.0
H541 H 0.24273 0.96632 0.20133 0.0
H542 H 0.35207 0.95508 0.06718 0.0
H543 H 0.37049 0.02978 0.25481 0.0
H544 H 0.28118 0.97727 0.14789 0.0
H545 H 0.43652 0.06476 0.16149 0.0
C546 C 0.44088 0.03916 0.11302 0.0
C547 C 0.41779 0.00787 0.08611 0.0
C548 C 0.30066 0.98939 0.17137 0.0
C549 C 0.37156 0.01131 0.14151 0.0
C550 C 0.27886 0.98356 0.20165 0.0
C551 C 0.30369 0.99703 0.23222 0.0
C552 C 0.34737 0.0094 0.17203 0.0
C553 C 0.3503 0.01872 0.23162 0.0
C554 C 0.41797 0.04083 0.14075 0.0
C555 C 0.37126 0.97925 0.08762 0.0
N556 N 0.37065 0.02409 0.20202 0.0
N557 N 0.3496 0.98161 0.11495 0.0
H558 H 0.44704 0.96207 0.89047 0.0
H559 H 0.33778 0.07934 0.78667 0.0
H560 H 0.46146 0.09109 0.92352 0.0
H561 H 0.37057 0.98376 0.74182 0.0
H562 H 0.38154 0.08417 0.83767 0.0
H563 H 0.41807 0.96924 0.83582 0.0
C564 C 0.44454 0.99215 0.88604 0.0
C565 C 0.4564 0.0259 0.91152 0.0
C566 C 0.3796 0.06268 0.81642 0.0
C567 C 0.42249 0.03393 0.84939 0.0
C568 C 0.35453 0.05978 0.78748 0.0
C569 C 0.3508 0.03125 0.76008 0.0
C570 C 0.40005 0.03607 0.81802 0.0
C571 C 0.37295 0.00647 0.76233 0.0
C572 C 0.42808 0.99629 0.85486 0.0
C573 C 0.45274 0.06434 0.90446 0.0
N574 N 0.39626 0.0091 0.79089 0.0
N575 N 0.43538 0.06699 0.87417 0.0
H576 H 0.97402 0.42106 0.86364 0.0
H577 H 0.9969 0.2678 0.72092 0.0
H578 H 0.08371 0.39584 0.85987 0.0
H579 H 0.89332 0.3024 0.71922 0.0
H580 H 0.03321 0.32103 0.76886 0.0
H581 H 0.94897 0.38586 0.80735 0.0
C582 C 0.99328 0.40881 0.8508 0.0
C583 C 0.03052 0.41056 0.86681 0.0
C584 C 0.00271 0.31726 0.75787 0.0
C585 C 0.00168 0.36976 0.80256 0.0
C586 C 0.98179 0.28664 0.73059 0.0
C587 C 0.94167 0.28016 0.71632 0.0
C588 C 0.98319 0.34131 0.77121 0.0
C589 C 0.924 0.306 0.72963 0.0
C590 C 0.97887 0.3886 0.81866 0.0
C591 C 0.0544 0.39457 0.84876 0.0
N592 N 0.94468 0.33515 0.75657 0.0
N593 N 0.03917 0.37421 0.8178 0.0
H594 H 0.68202 0.54937 0.75962 0.0
H595 H 0.62471 0.66313 0.91303 0.0
H596 H 0.71088 0.68936 0.76143 0.0
H597 H 0.64571 0.54915 0.92553 0.0
H598 H 0.64601 0.66726 0.85437 0.0
H599 H 0.65906 0.54308 0.81812 0.0
C600 C 0.68355 0.57873 0.77229 0.0
C601 C 0.69854 0.62001 0.75568 0.0
C602 C 0.64602 0.64141 0.86999 0.0
C603 C 0.67192 0.61282 0.82215 0.0
C604 C 0.63367 0.6389 0.90335 0.0
C605 C 0.63391 0.60605 0.92412 0.0
C606 C 0.65796 0.61037 0.85723 0.0
C607 C 0.64575 0.57542 0.91039 0.0
C608 C 0.67058 0.57514 0.80563 0.0
C609 C 0.69989 0.657 0.77331 0.0
N610 N 0.65723 0.57823 0.8777 0.0
N611 N 0.6865 0.65243 0.80551 0.0
H612 H 0.71729 0.71067 0.40276 0.0
H613 H 0.66648 0.68382 0.5927 0.0
H614 H 0.60565 0.7188 0.43947 0.0
H615 H 0.70298 0.59356 0.54385 0.0
H616 H 0.6499 0.70364 0.53744 0.0
H617 H 0.7192 0.67363 0.45478 0.0
C618 C 0.69303 0.70436 0.42166 0.0
C619 C 0.66146 0.71807 0.417 0.0
C620 C 0.66088 0.67898 0.53884 0.0
C621 C 0.66393 0.67653 0.47635 0.0
C622 C 0.67045 0.66781 0.57023 0.0
C623 C 0.68592 0.63701 0.57257 0.0
C624 C 0.6683 0.66036 0.50963 0.0
C625 C 0.69076 0.61722 0.54289 0.0
C626 C 0.69395 0.68299 0.45112 0.0
C627 C 0.63052 0.70877 0.44211 0.0
N628 N 0.68279 0.62995 0.51242 0.0
N629 N 0.63306 0.68933 0.47105 0.0
H630 H 0.22547 0.00986 0.42044 0.0
H631 H 0.39818 0.07644 0.57676 0.0
H632 H 0.35625 0.02579 0.41382 0.0
H633 H 0.25592 0.01368 0.58762 0.0
H634 H 0.38692 0.07578 0.51595 0.0
H635 H 0.24051 0.03003 0.48089 0.0
C636 C 0.25764 0.01853 0.43157 0.0
C637 C 0.28951 0.01567 0.41235 0.0
C638 C 0.35821 0.06259 0.53171 0.0
C639 C 0.30677 0.03859 0.48092 0.0
C640 C 0.36455 0.06278 0.56642 0.0
C641 C 0.32784 0.04496 0.58736 0.0
C642 C 0.31488 0.04447 0.51776 0.0
C643 C 0.28514 0.02824 0.57251 0.0
C644 C 0.26604 0.02968 0.466 0.0
C645 C 0.33057 0.02702 0.42791 0.0
N646 N 0.27975 0.02813 0.53852 0.0
N647 N 0.33793 0.03775 0.46134 0.0
H648 H 0.85887 0.22756 0.52715 0.0
H649 H 0.08226 0.3721 0.43109 0.0
H650 H 0.97956 0.22699 0.55402 0.0
H651 H 0.95394 0.31599 0.37954 0.0
H652 H 0.04524 0.32584 0.47982 0.0
H653 H 0.89259 0.26484 0.47477 0.0
C654 C 0.89217 0.23471 0.52184 0.0
C655 C 0.91658 0.22447 0.54506 0.0
C656 C 0.02523 0.32357 0.45778 0.0
C657 C 0.95542 0.26784 0.48586 0.0
C658 C 0.04624 0.35016 0.43029 0.0
C659 C 0.02082 0.34736 0.40166 0.0
C660 C 0.97854 0.29501 0.45667 0.0
C661 C 0.97438 0.31856 0.40138 0.0
C662 C 0.91133 0.25595 0.49201 0.0
C663 C 0.95956 0.23434 0.53688 0.0
N664 N 0.9545 0.29358 0.42868 0.0
N665 N 0.97791 0.25617 0.50816 0.0
loop_
_geom_bond_atom_site_label_1
_geom_bond_atom_site_label_2
_geom_bond_distance
_geom_bond_site_symmetry_2
_ccdc_geom_bond_type
Zn0 O6 1.969 . S
Zn0 O7 1.965 1_556 S
Zn0 O11 2.024 1_556 S
Zn0 O16 1.969 . S
Zn1 O8 1.969 . S
Zn1 O14 1.969 . S
Zn1 O15 1.965 1_554 S
Zn1 O17 2.024 1_554 S
C2 O3 1.229 . S
C2 O11 1.058 1_556 S
O3 C2 1.229 . S
C4 O5 1.229 . S
C4 O17 1.058 1_554 S
O5 C4 1.229 . S
O6 Zn0 1.969 . S
O6 C9 1.267 1_556 S
O7 Zn0 1.965 1_554 S
O7 C18 1.260 . S
O8 Zn1 1.969 . S
O8 C18 1.258 1_655 S
C9 O6 1.267 1_554 S
C9 O10 1.228 . S
O10 C9 1.228 . S
O11 Zn0 2.024 1_554 S
O11 C2 1.058 1_554 S
C12 O13 1.228 1_554 S
C12 O14 1.267 . S
O13 C12 1.228 1_556 S
O14 Zn1 1.969 . S
O14 C12 1.267 . S
O15 Zn1 1.965 1_556 S
O15 C19 1.260 . S
O16 Zn0 1.969 . S
O16 C19 1.258 1_455 S
O17 Zn1 2.024 1_556 S
O17 C4 1.058 1_556 S
C18 O7 1.260 . S
C18 O8 1.258 1_455 S
C19 O15 1.260 . S
C19 O16 1.258 1_655 S
Zn20 O26 1.969 . S
Zn20 O27 1.965 1_554 S
Zn20 O31 2.024 1_554 S
Zn20 O36 1.969 . S
Zn21 O28 1.969 . S
Zn21 O34 1.969 . S
Zn21 O35 1.965 1_556 S
Zn21 O37 2.024 1_556 S
C22 O23 1.229 . S
C22 O31 1.058 1_554 S
O23 C22 1.229 . S
C24 O25 1.229 . S
C24 O37 1.058 1_556 S
O25 C24 1.229 . S
O26 Zn20 1.969 . S
O26 C29 1.264 1_554 S
O27 Zn20 1.965 1_556 S
O27 C38 1.260 . S
O28 Zn21 1.969 . S
O28 C38 1.258 . S
C29 O26 1.264 1_556 S
C29 O30 1.232 . S
O30 C29 1.232 . S
O31 Zn20 2.024 1_556 S
O31 C22 1.058 1_556 S
C32 O33 1.228 . S
C32 O34 1.267 1_554 S
O33 C32 1.228 . S
O34 Zn21 1.969 . S
O34 C32 1.267 1_556 S
O35 Zn21 1.965 1_554 S
O35 C39 1.260 . S
O36 Zn20 1.969 . S
O36 C39 1.258 . S
O37 Zn21 2.024 1_554 S
O37 C24 1.058 1_554 S
C38 O27 1.260 . S
C38 O28 1.258 . S
C39 O35 1.260 . S
C39 O36 1.258 . S
Zn40 O46 1.969 . S
Zn40 O47 1.965 1_556 S
Zn40 O51 2.024 1_556 S
Zn40 O56 1.969 . S
Zn41 O48 1.969 . S
Zn41 O54 1.969 . S
Zn41 O55 1.965 1_554 S
Zn41 O57 2.022 1_554 S
C42 O43 1.229 . S
C42 O51 1.058 1_556 S
O43 C42 1.229 . S
C44 O45 1.229 . S
C44 O57 1.054 1_554 S
O45 C44 1.229 . S
O46 Zn40 1.969 . S
O46 C49 1.267 1_556 S
O47 Zn40 1.965 1_554 S
O47 C58 1.260 . S
O48 Zn41 1.969 . S
O48 C58 1.258 1_545 S
C49 O46 1.267 1_554 S
C49 O50 1.228 . S
O50 C49 1.228 . S
O51 Zn40 2.024 1_554 S
O51 C42 1.058 1_554 S
C52 O53 1.228 1_554 S
C52 O54 1.267 . S
O53 C52 1.228 1_556 S
O54 Zn41 1.969 . S
O54 C52 1.267 . S
O55 Zn41 1.965 1_556 S
O55 C59 1.260 . S
O56 Zn40 1.969 . S
O56 C59 1.258 1_565 S
O57 Zn41 2.022 1_556 S
O57 C44 1.054 1_556 S
C58 O47 1.260 . S
C58 O48 1.258 1_565 S
C59 O55 1.260 . S
C59 O56 1.258 1_545 S
Zn60 O66 1.969 . S
Zn60 O67 1.965 . S
Zn60 O71 2.024 . S
Zn60 O76 1.969 . S
Zn61 O68 1.969 . S
Zn61 O74 1.969 . S
Zn61 O75 1.965 . S
Zn61 O77 2.024 . S
C62 O63 1.229 . S
C62 O71 1.058 . S
O63 C62 1.229 . S
C64 O65 1.229 . S
C64 O77 1.058 . S
O65 C64 1.229 . S
O66 Zn60 1.969 . S
O66 C69 1.267 . S
O67 Zn60 1.965 . S
O67 C78 1.260 . S
O68 Zn61 1.969 . S
O68 C78 1.258 . S
C69 O66 1.267 . S
C69 O70 1.228 . S
O70 C69 1.228 . S
O71 Zn60 2.024 . S
O71 C62 1.058 . S
C72 O73 1.228 . S
C72 O74 1.267 . S
O73 C72 1.228 . S
O74 Zn61 1.969 . S
O74 C72 1.267 . S
O75 Zn61 1.965 . S
O75 C79 1.260 . S
O76 Zn60 1.969 . S
O76 C79 1.258 . S
O77 Zn61 2.024 . S
O77 C64 1.058 . S
C78 O67 1.260 . S
C78 O68 1.258 . S
C79 O75 1.260 . S
C79 O76 1.258 . S
Zn80 O86 1.969 . S
Zn80 O87 1.965 . S
Zn80 O91 2.024 . S
Zn80 O96 1.969 . S
Zn81 O88 1.969 . S
Zn81 O94 1.969 . S
Zn81 O95 1.965 . S
Zn81 O97 2.024 . S
C82 O83 1.229 . S
C82 O91 1.058 . S
O83 C82 1.229 . S
C84 O85 1.229 . S
C84 O97 1.058 . S
O85 C84 1.229 . S
O86 Zn80 1.969 . S
O86 C89 1.267 1_565 S
O87 Zn80 1.965 . S
O87 C98 1.260 . S
O88 Zn81 1.969 . S
O88 C98 1.258 . S
C89 O86 1.267 1_545 S
C89 O90 1.228 . S
O90 C89 1.228 . S
O91 Zn80 2.024 . S
O91 C82 1.058 . S
C92 O93 1.228 . S
C92 O94 1.267 . S
O93 C92 1.228 . S
O94 Zn81 1.969 . S
O94 C92 1.267 . S
O95 Zn81 1.965 . S
O95 C99 1.260 . S
O96 Zn80 1.969 . S
O96 C99 1.258 . S
O97 Zn81 2.024 . S
O97 C84 1.058 . S
C98 O87 1.260 . S
C98 O88 1.258 . S
C99 O95 1.260 . S
C99 O96 1.258 . S
Zn100 O106 1.969 . S
Zn100 O107 1.965 . S
Zn100 O111 2.024 . S
Zn100 O116 1.969 . S
Zn101 O108 1.969 . S
Zn101 O114 1.969 . S
Zn101 O115 1.965 . S
Zn101 O117 2.024 . S
C102 O103 1.229 . S
C102 O111 1.058 . S
O103 C102 1.229 . S
C104 O105 1.229 . S
C104 O117 1.058 . S
O105 C104 1.229 . S
O106 Zn100 1.969 . S
O106 C109 1.267 1_455 S
O107 Zn100 1.965 . S
O107 C118 1.260 . S
O108 Zn101 1.969 . S
O108 C118 1.258 . S
C109 O106 1.267 1_655 S
C109 O110 1.228 1_655 S
O110 C109 1.228 1_455 S
O111 Zn100 2.024 . S
O111 C102 1.058 . S
C112 O113 1.228 . S
C112 O114 1.267 . S
O113 C112 1.228 . S
O114 Zn101 1.969 . S
O114 C112 1.267 . S
O115 Zn101 1.965 . S
O115 C119 1.260 . S
O116 Zn100 1.969 . S
O116 C119 1.258 . S
O117 Zn101 2.024 . S
O117 C104 1.058 . S
C118 O107 1.260 . S
C118 O108 1.258 . S
C119 O115 1.260 . S
C119 O116 1.258 . S
Zn120 O126 1.969 . S
Zn120 O127 1.965 . S
Zn120 O131 2.024 . S
Zn120 O136 1.969 . S
Zn121 O128 1.969 . S
Zn121 O134 1.969 . S
Zn121 O135 1.965 . S
Zn121 O137 2.024 . S
C122 O123 1.229 . S
C122 O131 1.058 . S
O123 C122 1.229 . S
C124 O125 1.229 . S
C124 O137 1.058 . S
O125 C124 1.229 . S
O126 Zn120 1.969 . S
O126 C129 1.267 . S
O127 Zn120 1.965 . S
O127 C138 1.260 . S
O128 Zn121 1.969 . S
O128 C138 1.258 . S
C129 O126 1.267 . S
C129 O130 1.228 . S
O130 C129 1.228 . S
O131 Zn120 2.024 . S
O131 C122 1.058 . S
C132 O133 1.228 . S
C132 O134 1.267 . S
O133 C132 1.228 . S
O134 Zn121 1.969 . S
O134 C132 1.267 . S
O135 Zn121 1.965 . S
O135 C139 1.260 . S
O136 Zn120 1.969 . S
O136 C139 1.258 . S
O137 Zn121 2.024 . S
O137 C124 1.058 . S
C138 O127 1.260 . S
C138 O128 1.258 . S
C139 O135 1.260 . S
C139 O136 1.258 . S
Zn140 O146 1.969 . S
Zn140 O147 1.965 . S
Zn140 O151 2.024 . S
Zn140 O156 1.969 . S
Zn141 O148 1.969 . S
Zn141 O154 1.969 . S
Zn141 O155 1.965 . S
Zn141 O157 2.024 . S
C142 O143 1.229 . S
C142 O151 1.058 . S
O143 C142 1.229 . S
C144 O145 1.229 . S
C144 O157 1.058 . S
O145 C144 1.229 . S
O146 Zn140 1.969 . S
O146 C149 1.267 1_655 S
O147 Zn140 1.965 . S
O147 C158 1.260 . S
O148 Zn141 1.969 . S
O148 C158 1.258 . S
C149 O146 1.267 1_455 S
C149 O150 1.228 1_455 S
O150 C149 1.228 1_655 S
O151 Zn140 2.024 . S
O151 C142 1.058 . S
C152 O153 1.228 . S
C152 O154 1.267 . S
O153 C152 1.228 . S
O154 Zn141 1.969 . S
O154 C152 1.267 . S
O155 Zn141 1.965 . S
O155 C159 1.260 . S
O156 Zn140 1.969 . S
O156 C159 1.258 . S
O157 Zn141 2.024 . S
O157 C144 1.058 . S
C158 O147 1.260 . S
C158 O148 1.258 . S
C159 O155 1.260 . S
C159 O156 1.258 . S
Zn160 O166 1.969 . S
Zn160 O167 1.965 . S
Zn160 O171 2.024 . S
Zn160 O176 1.969 . S
Zn161 O168 1.969 . S
Zn161 O174 1.969 . S
Zn161 O175 1.965 . S
Zn161 O177 2.024 . S
C162 O163 1.229 . S
C162 O171 1.058 . S
O163 C162 1.229 . S
C164 O165 1.229 . S
C164 O177 1.058 . S
O165 C164 1.229 . S
O166 Zn160 1.969 . S
O166 C169 1.267 . S
O167 Zn160 1.965 . S
O167 C178 1.260 . S
O168 Zn161 1.969 . S
O168 C178 1.258 . S
C169 O166 1.267 . S
C169 O170 1.228 . S
O170 C169 1.228 . S
O171 Zn160 2.024 . S
O171 C162 1.058 . S
C172 O173 1.228 . S
C172 O174 1.267 . S
O173 C172 1.228 . S
O174 Zn161 1.969 . S
O174 C172 1.267 . S
O175 Zn161 1.965 . S
O175 C179 1.260 . S
O176 Zn160 1.969 . S
O176 C179 1.258 . S
O177 Zn161 2.024 . S
O177 C164 1.058 . S
C178 O167 1.260 . S
C178 O168 1.258 . S
C179 O175 1.260 . S
C179 O176 1.258 . S
H180 C186 0.930 . S
H181 C190 0.930 . S
H182 C195 0.929 . S
H183 C193 0.929 . S
H184 C188 0.929 . S
H185 C194 0.929 . S
C186 H180 0.930 . S
C186 C187 1.368 1_556 S
C186 C194 1.378 . S
C187 C186 1.368 1_554 S
C187 C195 1.432 . S
C188 H184 0.929 . S
C188 C190 1.378 . S
C188 C192 1.350 . S
C189 C192 1.463 . S
C189 C194 1.350 1_554 S
C189 N197 1.427 . S
C190 H181 0.930 . S
C190 C188 1.378 . S
C190 C191 1.367 . S
C191 C190 1.367 . S
C191 C193 1.433 1_554 S
C192 C188 1.350 . S
C192 C189 1.463 . S
C192 N196 1.427 1_554 S
C193 H183 0.929 . S
C193 C191 1.433 1_556 S
C193 N196 1.384 . S
C194 H185 0.929 . S
C194 C186 1.378 . S
C194 C189 1.350 1_556 S
C195 H182 0.929 . S
C195 C187 1.432 . S
C195 N197 1.384 . S
N196 C192 1.427 1_556 S
N196 C193 1.384 . S
N197 C189 1.427 . S
N197 C195 1.384 . S
H198 C204 0.930 . S
H199 C208 0.930 . S
H200 C213 0.929 . S
H201 C211 0.929 . S
H202 C206 0.929 . S
H203 C212 0.929 . S
C204 H198 0.930 . S
C204 C205 1.367 1_554 S
C204 C212 1.378 . S
C205 C204 1.367 1_556 S
C205 C213 1.433 . S
C206 H202 0.929 . S
C206 C208 1.378 . S
C206 C210 1.350 . S
C207 C210 1.463 . S
C207 C212 1.350 1_556 S
C207 N215 1.427 . S
C208 H199 0.930 . S
C208 C206 1.378 . S
C208 C209 1.367 . S
C209 C208 1.367 . S
C209 C211 1.433 1_556 S
C210 C206 1.350 . S
C210 C207 1.463 . S
C210 N214 1.427 1_556 S
C211 H201 0.929 . S
C211 C209 1.433 1_554 S
C211 N214 1.384 . S
C212 H203 0.929 . S
C212 C204 1.378 . S
C212 C207 1.350 1_554 S
C213 H200 0.929 . S
C213 C205 1.433 . S
C213 N215 1.384 . S
N214 C210 1.427 1_554 S
N214 C211 1.384 . S
N215 C207 1.427 . S
N215 C213 1.384 . S
H216 C222 0.930 . S
H217 C226 0.930 . S
H218 C231 0.929 . S
H219 C229 0.929 . S
H220 C224 0.929 . S
H221 C230 0.929 . S
C222 H216 0.930 . S
C222 C223 1.367 . S
C222 C230 1.378 . S
C223 C222 1.367 . S
C223 C231 1.433 1_554 S
C224 H220 0.929 . S
C224 C226 1.378 . S
C224 C228 1.350 . S
C225 C228 1.463 . S
C225 C230 1.347 1_556 S
C225 N233 1.430 . S
C226 H217 0.930 . S
C226 C224 1.378 . S
C226 C227 1.367 . S
C227 C226 1.367 . S
C227 C229 1.433 1_556 S
C228 C224 1.350 . S
C228 C225 1.463 . S
C228 N232 1.427 1_556 S
C229 H219 0.929 . S
C229 C227 1.433 1_554 S
C229 N232 1.384 . S
C230 H221 0.929 . S
C230 C222 1.378 . S
C230 C225 1.347 1_554 S
C231 H218 0.929 . S
C231 C223 1.433 1_556 S
C231 N233 1.384 . S
N232 C228 1.427 1_554 S
N232 C229 1.384 . S
N233 C225 1.430 . S
N233 C231 1.384 . S
H234 C240 0.930 . S
H235 C244 0.930 . S
H236 C249 0.929 . S
H237 C247 0.929 . S
H238 C242 0.929 . S
H239 C248 0.929 . S
C240 H234 0.930 . S
C240 C241 1.367 . S
C240 C248 1.378 . S
C241 C240 1.367 . S
C241 C249 1.433 1_554 S
C242 H238 0.929 . S
C242 C244 1.378 . S
C242 C246 1.350 1_556 S
C243 C246 1.463 . S
C243 C248 1.350 . S
C243 N251 1.427 1_554 S
C244 H235 0.930 . S
C244 C242 1.378 . S
C244 C245 1.367 1_556 S
C245 C244 1.367 1_554 S
C245 C247 1.433 . S
C246 C242 1.350 1_554 S
C246 C243 1.463 . S
C246 N250 1.427 . S
C247 H237 0.929 . S
C247 C245 1.433 . S
C247 N250 1.384 . S
C248 H239 0.929 . S
C248 C240 1.378 . S
C248 C243 1.350 . S
C249 H236 0.929 . S
C249 C241 1.433 1_556 S
C249 N251 1.384 . S
N250 C246 1.427 . S
N250 C247 1.384 . S
N251 C243 1.427 1_556 S
N251 C249 1.384 . S
H252 C258 0.930 . S
H253 C262 0.930 . S
H254 C267 0.929 . S
H255 C265 0.929 . S
H256 C260 0.929 . S
H257 C266 0.929 . S
C258 H252 0.930 . S
C258 C259 1.367 1_556 S
C258 C266 1.378 . S
C259 C258 1.367 1_554 S
C259 C267 1.433 . S
C260 H256 0.929 . S
C260 C262 1.378 . S
C260 C264 1.350 . S
C261 C264 1.463 . S
C261 C266 1.350 1_554 S
C261 N269 1.427 . S
C262 H253 0.930 . S
C262 C260 1.378 . S
C262 C263 1.367 . S
C263 C262 1.367 . S
C263 C265 1.433 1_554 S
C264 C260 1.350 . S
C264 C261 1.463 . S
C264 N268 1.427 1_554 S
C265 H255 0.929 . S
C265 C263 1.433 1_556 S
C265 N268 1.384 . S
C266 H257 0.929 . S
C266 C258 1.378 . S
C266 C261 1.350 1_556 S
C267 H254 0.929 . S
C267 C259 1.433 . S
C267 N269 1.384 . S
N268 C264 1.427 1_556 S
N268 C265 1.384 . S
N269 C261 1.427 . S
N269 C267 1.384 . S
H270 C276 0.930 . S
H271 C280 0.930 . S
H272 C285 0.929 . S
H273 C283 0.929 . S
H274 C278 0.929 . S
H275 C284 0.929 . S
C276 H270 0.930 . S
C276 C277 1.367 1_556 S
C276 C284 1.378 . S
C277 C276 1.367 1_554 S
C277 C285 1.433 . S
C278 H274 0.929 . S
C278 C280 1.378 . S
C278 C282 1.350 . S
C279 C282 1.463 . S
C279 C284 1.350 1_554 S
C279 N287 1.427 . S
C280 H271 0.930 . S
C280 C278 1.378 . S
C280 C281 1.367 . S
C281 C280 1.367 . S
C281 C283 1.433 1_554 S
C282 C278 1.350 . S
C282 C279 1.463 . S
C282 N286 1.427 1_554 S
C283 H273 0.929 . S
C283 C281 1.433 1_556 S
C283 N286 1.384 . S
C284 H275 0.929 . S
C284 C276 1.378 . S
C284 C279 1.350 1_556 S
C285 H272 0.929 . S
C285 C277 1.433 . S
C285 N287 1.384 . S
N286 C282 1.427 1_556 S
N286 C283 1.384 . S
N287 C279 1.427 . S
N287 C285 1.384 . S
H288 C294 0.930 . S
H289 C298 0.930 . S
H290 C303 0.929 . S
H291 C301 0.929 . S
H292 C296 0.929 . S
H293 C302 0.929 . S
C294 H288 0.930 . S
C294 C295 1.367 . S
C294 C302 1.378 . S
C295 C294 1.367 . S
C295 C303 1.433 . S
C296 H292 0.929 . S
C296 C298 1.378 1_655 S
C296 C300 1.350 . S
C297 C300 1.463 . S
C297 C302 1.350 . S
C297 N305 1.427 . S
C298 H289 0.930 . S
C298 C296 1.378 1_455 S
C298 C299 1.367 . S
C299 C298 1.367 . S
C299 C301 1.433 . S
C300 C296 1.350 . S
C300 C297 1.463 . S
C300 N304 1.427 1_655 S
C301 H291 0.929 . S
C301 C299 1.433 . S
C301 N304 1.384 . S
C302 H293 0.929 . S
C302 C294 1.378 . S
C302 C297 1.350 . S
C303 H290 0.929 . S
C303 C295 1.433 . S
C303 N305 1.384 . S
N304 C300 1.427 1_455 S
N304 C301 1.384 . S
N305 C297 1.427 . S
N305 C303 1.384 . S
H306 C312 0.930 . S
H307 C316 0.930 . S
H308 C321 0.929 . S
H309 C319 0.929 . S
H310 C314 0.929 . S
H311 C320 0.929 . S
C312 H306 0.930 . S
C312 C313 1.367 . S
C312 C320 1.378 . S
C313 C312 1.367 . S
C313 C321 1.433 . S
C314 H310 0.929 . S
C314 C316 1.378 . S
C314 C318 1.350 . S
C315 C318 1.463 . S
C315 C320 1.350 . S
C315 N323 1.427 . S
C316 H307 0.930 . S
C316 C314 1.378 . S
C316 C317 1.367 . S
C317 C316 1.367 . S
C317 C319 1.433 . S
C318 C314 1.350 . S
C318 C315 1.463 . S
C318 N322 1.427 . S
C319 H309 0.929 . S
C319 C317 1.433 . S
C319 N322 1.384 . S
C320 H311 0.929 . S
C320 C312 1.378 . S
C320 C315 1.350 . S
C321 H308 0.929 . S
C321 C313 1.433 . S
C321 N323 1.384 . S
N322 C318 1.427 . S
N322 C319 1.384 . S
N323 C315 1.427 . S
N323 C321 1.384 . S
H324 C330 0.930 . S
H325 C334 0.930 . S
H326 C339 0.929 . S
H327 C337 0.929 . S
H328 C332 0.929 . S
H329 C338 0.929 . S
C330 H324 0.930 . S
C330 C331 1.367 . S
C330 C338 1.378 . S
C331 C330 1.367 . S
C331 C339 1.433 . S
C332 H328 0.929 . S
C332 C334 1.378 1_545 S
C332 C336 1.350 . S
C333 C336 1.463 . S
C333 C338 1.350 . S
C333 N341 1.427 . S
C334 H325 0.930 . S
C334 C332 1.378 1_565 S
C334 C335 1.367 . S
C335 C334 1.367 . S
C335 C337 1.433 . S
C336 C332 1.350 . S
C336 C333 1.463 . S
C336 N340 1.427 . S
C337 H327 0.929 . S
C337 C335 1.433 . S
C337 N340 1.384 1_565 S
C338 H329 0.929 . S
C338 C330 1.378 . S
C338 C333 1.350 . S
C339 H326 0.929 . S
C339 C331 1.433 . S
C339 N341 1.384 . S
N340 C336 1.427 . S
N340 C337 1.384 1_545 S
N341 C333 1.427 . S
N341 C339 1.384 . S
H342 C348 0.930 . S
H343 C352 0.930 . S
H344 C357 0.929 . S
H345 C355 0.929 . S
H346 C350 0.929 . S
H347 C356 0.929 . S
C348 H342 0.930 . S
C348 C349 1.367 . S
C348 C356 1.378 . S
C349 C348 1.367 . S
C349 C357 1.433 . S
C350 H346 0.929 . S
C350 C352 1.378 . S
C350 C354 1.350 . S
C351 C354 1.463 . S
C351 C356 1.350 . S
C351 N359 1.427 . S
C352 H343 0.930 . S
C352 C350 1.378 . S
C352 C353 1.367 . S
C353 C352 1.367 . S
C353 C355 1.433 . S
C354 C350 1.350 . S
C354 C351 1.463 . S
C354 N358 1.427 . S
C355 H345 0.929 . S
C355 C353 1.433 . S
C355 N358 1.384 . S
C356 H347 0.929 . S
C356 C348 1.378 . S
C356 C351 1.350 . S
C357 H344 0.929 . S
C357 C349 1.433 . S
C357 N359 1.384 . S
N358 C354 1.427 . S
N358 C355 1.384 . S
N359 C351 1.427 . S
N359 C357 1.384 . S
H360 C366 0.930 . S
H361 C370 0.930 . S
H362 C375 0.929 . S
H363 C373 0.929 . S
H364 C368 0.929 . S
H365 C374 0.929 . S
C366 H360 0.930 . S
C366 C367 1.367 . S
C366 C374 1.378 . S
C367 C366 1.367 . S
C367 C375 1.433 . S
C368 H364 0.929 . S
C368 C370 1.378 . S
C368 C372 1.350 . S
C369 C372 1.463 . S
C369 C374 1.350 . S
C369 N377 1.427 . S
C370 H361 0.930 . S
C370 C368 1.378 . S
C370 C371 1.367 . S
C371 C370 1.367 . S
C371 C373 1.433 . S
C372 C368 1.350 . S
C372 C369 1.463 . S
C372 N376 1.427 . S
C373 H363 0.929 . S
C373 C371 1.433 . S
C373 N376 1.384 . S
C374 H365 0.929 . S
C374 C366 1.378 . S
C374 C369 1.350 . S
C375 H362 0.929 . S
C375 C367 1.433 . S
C375 N377 1.384 . S
N376 C372 1.427 . S
N376 C373 1.384 . S
N377 C369 1.427 . S
N377 C375 1.384 . S
H378 C384 0.930 . S
H379 C388 0.930 . S
H380 C393 0.929 . S
H381 C391 0.929 . S
H382 C386 0.929 . S
H383 C392 0.929 . S
C384 H378 0.930 . S
C384 C385 1.367 . S
C384 C392 1.378 . S
C385 C384 1.367 . S
C385 C393 1.433 . S
C386 H382 0.929 . S
C386 C388 1.378 . S
C386 C390 1.350 . S
C387 C390 1.463 . S
C387 C392 1.350 . S
C387 N395 1.427 . S
C388 H379 0.930 . S
C388 C386 1.378 . S
C388 C389 1.367 . S
C389 C388 1.367 . S
C389 C391 1.433 . S
C390 C386 1.350 . S
C390 C387 1.463 . S
C390 N394 1.427 . S
C391 H381 0.929 . S
C391 C389 1.433 . S
C391 N394 1.384 . S
C392 H383 0.929 . S
C392 C384 1.378 . S
C392 C387 1.350 . S
C393 H380 0.929 . S
C393 C385 1.433 . S
C393 N395 1.384 . S
N394 C390 1.427 . S
N394 C391 1.384 . S
N395 C387 1.427 . S
N395 C393 1.384 . S
H396 C402 0.930 . S
H397 C406 0.930 . S
H398 C411 0.929 . S
H399 C409 0.929 . S
H400 C404 0.929 . S
H401 C410 0.929 . S
C402 H396 0.930 . S
C402 C403 1.367 . S
C402 C410 1.378 . S
C403 C402 1.367 . S
C403 C411 1.433 . S
C404 H400 0.929 . S
C404 C406 1.378 . S
C404 C408 1.350 . S
C405 C408 1.463 . S
C405 C410 1.350 . S
C405 N413 1.427 . S
C406 H397 0.930 . S
C406 C404 1.378 . S
C406 C407 1.367 . S
C407 C406 1.367 . S
C407 C409 1.433 . S
C408 C404 1.350 . S
C408 C405 1.463 . S
C408 N412 1.427 . S
C409 H399 0.929 . S
C409 C407 1.433 . S
C409 N412 1.384 . S
C410 H401 0.929 . S
C410 C402 1.378 . S
C410 C405 1.350 . S
C411 H398 0.929 . S
C411 C403 1.433 . S
C411 N413 1.384 . S
N412 C408 1.427 . S
N412 C409 1.384 . S
N413 C405 1.427 . S
N413 C411 1.384 . S
H414 C420 0.930 . S
H415 C424 0.930 . S
H416 C429 0.929 . S
H417 C427 0.929 . S
H418 C422 0.929 . S
H419 C428 0.929 . S
C420 H414 0.930 . S
C420 C421 1.367 . S
C420 C428 1.378 . S
C421 C420 1.367 . S
C421 C429 1.433 . S
C422 H418 0.929 . S
C422 C424 1.378 . S
C422 C426 1.350 . S
C423 C426 1.463 . S
C423 C428 1.350 . S
C423 N431 1.427 . S
C424 H415 0.930 . S
C424 C422 1.378 . S
C424 C425 1.367 . S
C425 C424 1.367 . S
C425 C427 1.433 . S
C426 C422 1.350 . S
C426 C423 1.463 . S
C426 N430 1.427 . S
C427 H417 0.929 . S
C427 C425 1.433 . S
C427 N430 1.384 . S
C428 H419 0.929 . S
C428 C420 1.378 . S
C428 C423 1.350 . S
C429 H416 0.929 . S
C429 C421 1.433 . S
C429 N431 1.384 . S
N430 C426 1.427 . S
N430 C427 1.384 . S
N431 C423 1.427 . S
N431 C429 1.384 . S
H432 C438 0.930 . S
H433 C442 0.930 . S
H434 C447 0.929 . S
H435 C445 0.929 . S
H436 C440 0.929 . S
H437 C446 0.929 . S
C438 H432 0.930 . S
C438 C439 1.367 . S
C438 C446 1.378 . S
C439 C438 1.367 . S
C439 C447 1.433 . S
C440 H436 0.929 . S
C440 C442 1.378 . S
C440 C444 1.350 . S
C441 C444 1.463 . S
C441 C446 1.350 . S
C441 N449 1.427 . S
C442 H433 0.930 . S
C442 C440 1.378 . S
C442 C443 1.367 . S
C443 C442 1.367 . S
C443 C445 1.433 . S
C444 C440 1.350 . S
C444 C441 1.463 . S
C444 N448 1.427 . S
C445 H435 0.929 . S
C445 C443 1.433 . S
C445 N448 1.384 . S
C446 H437 0.929 . S
C446 C438 1.378 . S
C446 C441 1.350 . S
C447 H434 0.929 . S
C447 C439 1.433 . S
C447 N449 1.384 . S
N448 C444 1.427 . S
N448 C445 1.384 . S
N449 C441 1.427 . S
N449 C447 1.384 . S
H450 C456 0.930 . S
H451 C460 0.930 . S
H452 C465 0.929 . S
H453 C463 0.929 . S
H454 C458 0.929 . S
H455 C464 0.929 . S
C456 H450 0.930 . S
C456 C457 1.367 . S
C456 C464 1.378 . S
C457 C456 1.367 . S
C457 C465 1.433 . S
C458 H454 0.929 . S
C458 C460 1.378 1_565 S
C458 C462 1.350 . S
C459 C462 1.463 . S
C459 C464 1.350 . S
C459 N467 1.427 . S
C460 H451 0.930 . S
C460 C458 1.378 1_545 S
C460 C461 1.367 . S
C461 C460 1.367 . S
C461 C463 1.433 . S
C462 C458 1.350 . S
C462 C459 1.463 . S
C462 N466 1.429 . S
C463 H453 0.929 . S
C463 C461 1.433 . S
C463 N466 1.375 1_545 S
C464 H455 0.929 . S
C464 C456 1.378 . S
C464 C459 1.350 . S
C465 H452 0.929 . S
C465 C457 1.433 . S
C465 N467 1.384 . S
N466 C462 1.429 . S
N466 C463 1.375 1_565 S
N467 C459 1.427 . S
N467 C465 1.384 . S
H468 C474 0.930 . S
H469 C478 0.930 . S
H470 C483 0.929 . S
H471 C481 0.929 1_545 S
H472 C476 0.929 . S
H473 C482 0.929 . S
C474 H468 0.930 . S
C474 C475 1.367 . S
C474 C482 1.378 1_655 S
C475 C474 1.367 . S
C475 C483 1.433 . S
C476 H472 0.929 . S
C476 C478 1.378 . S
C476 C480 1.350 . S
C477 C480 1.463 . S
C477 C482 1.350 . S
C477 N485 1.427 . S
C478 H469 0.930 . S
C478 C476 1.378 . S
C478 C479 1.367 . S
C479 C478 1.367 . S
C479 C481 1.433 . S
C480 C476 1.350 . S
C480 C477 1.463 . S
C480 N484 1.427 . S
C481 H471 0.929 1_565 S
C481 C479 1.433 . S
C481 N484 1.384 . S
C482 H473 0.929 . S
C482 C474 1.378 1_455 S
C482 C477 1.350 . S
C483 H470 0.929 . S
C483 C475 1.433 . S
C483 N485 1.384 1_655 S
N484 C480 1.427 . S
N484 C481 1.384 . S
N485 C477 1.427 . S
N485 C483 1.384 1_455 S
H486 C492 0.930 . S
H487 C496 0.930 . S
H488 C501 0.929 . S
H489 C499 0.929 . S
H490 C494 0.929 . S
H491 C500 0.929 . S
C492 H486 0.930 . S
C492 C493 1.367 . S
C492 C500 1.378 . S
C493 C492 1.367 . S
C493 C501 1.433 . S
C494 H490 0.929 . S
C494 C496 1.378 . S
C494 C498 1.350 . S
C495 C498 1.463 . S
C495 C500 1.350 . S
C495 N503 1.427 . S
C496 H487 0.930 . S
C496 C494 1.378 . S
C496 C497 1.367 . S
C497 C496 1.367 . S
C497 C499 1.433 . S
C498 C494 1.350 . S
C498 C495 1.463 . S
C498 N502 1.427 . S
C499 H489 0.929 . S
C499 C497 1.433 . S
C499 N502 1.384 . S
C500 H491 0.929 . S
C500 C492 1.378 . S
C500 C495 1.350 . S
C501 H488 0.929 . S
C501 C493 1.433 . S
C501 N503 1.384 . S
N502 C498 1.427 . S
N502 C499 1.384 . S
N503 C495 1.427 . S
N503 C501 1.384 . S
H504 C510 0.930 . S
H505 C514 0.930 . S
H506 C519 0.929 . S
H507 C517 0.929 . S
H508 C512 0.929 . S
H509 C518 0.929 . S
C510 H504 0.930 . S
C510 C511 1.367 . S
C510 C518 1.378 . S
C511 C510 1.367 . S
C511 C519 1.433 . S
C512 H508 0.929 . S
C512 C514 1.378 . S
C512 C516 1.350 . S
C513 C516 1.463 . S
C513 C518 1.350 . S
C513 N521 1.427 . S
C514 H505 0.930 . S
C514 C512 1.378 . S
C514 C515 1.367 . S
C515 C514 1.367 . S
C515 C517 1.433 . S
C516 C512 1.350 . S
C516 C513 1.463 . S
C516 N520 1.427 . S
C517 H507 0.929 . S
C517 C515 1.433 . S
C517 N520 1.384 . S
C518 H509 0.929 . S
C518 C510 1.378 . S
C518 C513 1.350 . S
C519 H506 0.929 . S
C519 C511 1.433 . S
C519 N521 1.384 . S
N520 C516 1.427 . S
N520 C517 1.384 . S
N521 C513 1.427 . S
N521 C519 1.384 . S
H522 C528 0.930 . S
H523 C532 0.930 . S
H524 C537 0.929 . S
H525 C535 0.929 . S
H526 C530 0.929 . S
H527 C536 0.929 . S
C528 H522 0.930 . S
C528 C529 1.367 . S
C528 C536 1.378 . S
C529 C528 1.367 . S
C529 C537 1.433 . S
C530 H526 0.929 . S
C530 C532 1.378 . S
C530 C534 1.350 . S
C531 C534 1.463 . S
C531 C536 1.350 . S
C531 N539 1.427 . S
C532 H523 0.930 . S
C532 C530 1.378 . S
C532 C533 1.367 . S
C533 C532 1.367 . S
C533 C535 1.433 . S
C534 C530 1.350 . S
C534 C531 1.463 . S
C534 N538 1.427 . S
C535 H525 0.929 . S
C535 C533 1.433 . S
C535 N538 1.384 . S
C536 H527 0.929 . S
C536 C528 1.378 . S
C536 C531 1.350 . S
C537 H524 0.929 . S
C537 C529 1.433 . S
C537 N539 1.384 . S
N538 C534 1.427 . S
N538 C535 1.384 . S
N539 C531 1.427 . S
N539 C537 1.384 . S
H540 C546 0.930 . S
H541 C550 0.930 . S
H542 C555 0.929 1_545 S
H543 C553 0.929 . S
H544 C548 0.929 . S
H545 C554 0.929 . S
C546 H540 0.930 . S
C546 C547 1.367 . S
C546 C554 1.378 . S
C547 C546 1.367 . S
C547 C555 1.433 . S
C548 H544 0.929 . S
C548 C550 1.378 . S
C548 C552 1.350 . S
C549 C552 1.463 . S
C549 C554 1.350 . S
C549 N557 1.427 . S
C550 H541 0.930 . S
C550 C548 1.378 . S
C550 C551 1.367 . S
C551 C550 1.367 . S
C551 C553 1.433 . S
C552 C548 1.350 . S
C552 C549 1.463 . S
C552 N556 1.427 . S
C553 H543 0.929 . S
C553 C551 1.433 . S
C553 N556 1.384 . S
C554 H545 0.929 . S
C554 C546 1.378 . S
C554 C549 1.350 . S
C555 H542 0.929 1_565 S
C555 C547 1.433 . S
C555 N557 1.384 . S
N556 C552 1.427 . S
N556 C553 1.384 . S
N557 C549 1.427 . S
N557 C555 1.384 . S
H558 C564 0.930 1_565 S
H559 C568 0.930 . S
H560 C573 0.929 . S
H561 C571 0.929 . S
H562 C566 0.929 . S
H563 C572 0.929 . S
C564 H558 0.930 1_545 S
C564 C565 1.367 . S
C564 C572 1.378 . S
C565 C564 1.367 . S
C565 C573 1.433 . S
C566 H562 0.929 . S
C566 C568 1.378 . S
C566 C570 1.350 . S
C567 C570 1.463 . S
C567 C572 1.350 . S
C567 N575 1.427 . S
C568 H559 0.930 . S
C568 C566 1.378 . S
C568 C569 1.367 . S
C569 C568 1.367 . S
C569 C571 1.433 . S
C570 C566 1.350 . S
C570 C567 1.463 . S
C570 N574 1.427 . S
C571 H561 0.929 . S
C571 C569 1.433 . S
C571 N574 1.384 . S
C572 H563 0.929 . S
C572 C564 1.378 . S
C572 C567 1.350 . S
C573 H560 0.929 . S
C573 C565 1.433 . S
C573 N575 1.384 . S
N574 C570 1.427 . S
N574 C571 1.384 . S
N575 C567 1.427 . S
N575 C573 1.384 . S
H576 C582 0.930 . S
H577 C586 0.930 . S
H578 C591 0.928 1_455 S
H579 C589 0.929 . S
H580 C584 0.929 . S
H581 C590 0.929 . S
C582 H576 0.930 . S
C582 C583 1.367 . S
C582 C590 1.378 . S
C583 C582 1.367 . S
C583 C591 1.434 . S
C584 H580 0.929 . S
C584 C586 1.378 . S
C584 C588 1.350 . S
C585 C588 1.463 . S
C585 C590 1.350 . S
C585 N593 1.427 . S
C586 H577 0.930 . S
C586 C584 1.378 . S
C586 C587 1.367 . S
C587 C586 1.367 . S
C587 C589 1.433 . S
C588 C584 1.350 . S
C588 C585 1.463 . S
C588 N592 1.427 . S
C589 H579 0.929 . S
C589 C587 1.433 . S
C589 N592 1.384 . S
C590 H581 0.929 . S
C590 C582 1.378 . S
C590 C585 1.350 . S
C591 H578 0.928 1_655 S
C591 C583 1.434 . S
C591 N593 1.384 . S
N592 C588 1.427 . S
N592 C589 1.384 . S
N593 C585 1.427 . S
N593 C591 1.384 . S
H594 C600 0.930 . S
H595 C604 0.930 . S
H596 C609 0.929 . S
H597 C607 0.929 . S
H598 C602 0.929 . S
H599 C608 0.929 . S
C600 H594 0.930 . S
C600 C601 1.367 . S
C600 C608 1.378 . S
C601 C600 1.367 . S
C601 C609 1.433 . S
C602 H598 0.929 . S
C602 C604 1.378 . S
C602 C606 1.350 . S
C603 C606 1.463 . S
C603 C608 1.350 . S
C603 N611 1.427 . S
C604 H595 0.930 . S
C604 C602 1.378 . S
C604 C605 1.367 . S
C605 C604 1.367 . S
C605 C607 1.433 . S
C606 C602 1.350 . S
C606 C603 1.463 . S
C606 N610 1.427 . S
C607 H597 0.929 . S
C607 C605 1.433 . S
C607 N610 1.384 . S
C608 H599 0.929 . S
C608 C600 1.378 . S
C608 C603 1.350 . S
C609 H596 0.929 . S
C609 C601 1.433 . S
C609 N611 1.384 . S
N610 C606 1.427 . S
N610 C607 1.384 . S
N611 C603 1.427 . S
N611 C609 1.384 . S
H612 C618 0.930 . S
H613 C622 0.930 . S
H614 C627 0.929 . S
H615 C625 0.929 . S
H616 C620 0.929 . S
H617 C626 0.929 . S
C618 H612 0.930 . S
C618 C619 1.367 . S
C618 C626 1.378 . S
C619 C618 1.367 . S
C619 C627 1.433 . S
C620 H616 0.929 . S
C620 C622 1.378 . S
C620 C624 1.350 . S
C621 C624 1.463 . S
C621 C626 1.350 . S
C621 N629 1.427 . S
C622 H613 0.930 . S
C622 C620 1.378 . S
C622 C623 1.367 . S
C623 C622 1.367 . S
C623 C625 1.433 . S
C624 C620 1.350 . S
C624 C621 1.463 . S
C624 N628 1.427 . S
C625 H615 0.929 . S
C625 C623 1.433 . S
C625 N628 1.384 . S
C626 H617 0.929 . S
C626 C618 1.378 . S
C626 C621 1.350 . S
C627 H614 0.929 . S
C627 C619 1.433 . S
C627 N629 1.384 . S
N628 C624 1.427 . S
N628 C625 1.384 . S
N629 C621 1.427 . S
N629 C627 1.384 . S
H630 C636 0.930 . S
H631 C640 0.930 . S
H632 C645 0.929 . S
H633 C643 0.929 . S
H634 C638 0.929 . S
H635 C644 0.929 1_545 S
C636 H630 0.930 . S
C636 C637 1.367 . S
C636 C644 1.378 . S
C637 C636 1.367 . S
C637 C645 1.433 . S
C638 H634 0.929 . S
C638 C640 1.378 . S
C638 C642 1.350 . S
C639 C642 1.463 1_565 S
C639 C644 1.350 . S
C639 N647 1.427 . S
C640 H631 0.930 . S
C640 C638 1.378 . S
C640 C641 1.367 . S
C641 C640 1.367 . S
C641 C643 1.433 . S
C642 C638 1.350 . S
C642 C639 1.463 1_545 S
C642 N646 1.427 . S
C643 H633 0.929 . S
C643 C641 1.433 . S
C643 N646 1.384 . S
C644 H635 0.929 1_565 S
C644 C636 1.378 . S
C644 C639 1.350 . S
C645 H632 0.929 . S
C645 C637 1.433 . S
C645 N647 1.384 . S
N646 C642 1.427 . S
N646 C643 1.384 . S
N647 C639 1.427 . S
N647 C645 1.384 . S
H648 C654 0.930 . S
H649 C658 0.930 . S
H650 C663 0.929 . S
H651 C661 0.929 . S
H652 C656 0.929 . S
H653 C662 0.929 . S
C654 H648 0.930 . S
C654 C655 1.367 . S
C654 C662 1.378 . S
C655 C654 1.367 . S
C655 C663 1.433 . S
C656 H652 0.929 . S
C656 C658 1.378 . S
C656 C660 1.350 . S
C657 C660 1.463 1_655 S
C657 C662 1.350 . S
C657 N665 1.427 . S
C658 H649 0.930 . S
C658 C656 1.378 . S
C658 C659 1.367 . S
C659 C658 1.367 . S
C659 C661 1.433 . S
C660 C656 1.350 . S
C660 C657 1.463 1_455 S
C660 N664 1.427 . S
C661 H651 0.929 . S
C661 C659 1.433 . S
C661 N664 1.384 . S
C662 H653 0.929 . S
C662 C654 1.378 . S
C662 C657 1.350 . S
C663 H650 0.929 . S
C663 C655 1.433 . S
C663 N665 1.384 . S
N664 C660 1.427 . S
N664 C661 1.384 . S
N665 C657 1.427 . S
N665 C663 1.384 . S
C187 C32 1.182 . S
C191 C9 1.060 . S
C205 C42 1.386 . S
C209 C24 1.216 . S
C223 C49 1.145 . S
C227 C2 1.219 . S
C241 C44 1.269 . S
C245 C22 1.460 . S
C259 C52 1.369 . S
C263 C4 1.169 . S
C277 C12 1.191 . S
C281 C29 1.087 1_554 S
C295 C69 1.294 . S
C299 C82 1.420 . S
C313 C102 1.140 . S
C317 C89 1.057 . S
C331 C109 1.149 . S
C335 C62 1.248 . S
C349 C92 1.206 . S
C353 C104 1.065 . S
C367 C112 1.345 . S
C371 C64 1.125 . S
C385 C84 1.260 . S
C389 C72 1.459 . S
C403 C152 1.129 . S
C407 C129 1.016 . S
C421 C144 1.203 . S
C425 C162 1.389 . S
C439 C169 1.145 . S
C443 C122 1.211 . S
C457 C164 1.232 . S
C461 C142 1.414 . S
C475 C172 1.362 . S
C479 C124 1.175 1_565 S
C493 C132 1.196 . S
C497 C149 1.078 . S
C511 C119 2.215 . S
C515 C18 2.142 . S
C529 C79 2.190 . S
C533 C39 2.183 . S
C547 C58 2.256 . S
C551 C99 2.323 . S
C565 C59 2.222 . S
C569 C138 2.148 . S
C583 C19 2.130 . S
C587 C159 2.125 . S
C601 C178 2.232 . S
C605 C38 2.222 . S
C619 C78 2.152 . S
C623 C179 2.224 . S
C637 C98 2.044 . S
C641 C139 2.105 . S
C655 C158 2.171 . S
C659 C118 2.174 . S
