# Generated by pormake.
# Topology unj, (4)-cn, num edge types: 1
# Building blocks:
#     Node 0, Type 0, BuildingBlock: UXUYUI_clean_sbu_0, # of connection points: 4
#     Node 1, Type 0, BuildingBlock: UXUYUI_clean_sbu_0, # of connection points: 4
#     Node 2, Type 0, BuildingBlock: UXUYUI_clean_sbu_0, # of connection points: 4
#     Node 3, Type 0, BuildingBlock: UXUYUI_clean_sbu_0, # of connection points: 4
#     Node 4, Type 0, BuildingBlock: UXUYUI_clean_sbu_0, # of connection points: 4
#     Node 5, Type 0, BuildingBlock: UXUYUI_clean_sbu_0, # of connection points: 4
#     Edge 6, Type (0, 0), BuildingBlock: AJUNOK_clean_linker_0, # of connection points: 2
#     Edge 7, Type (0, 0), BuildingBlock: AJUNOK_clean_linker_0, # of connection points: 2
#     Edge 8, Type (0, 0), BuildingBlock: AJUNOK_clean_linker_0, # of connection points: 2
#     Edge 9, Type (0, 0), BuildingBlock: AJUNOK_clean_linker_0, # of connection points: 2
#     Edge 10, Type (0, 0), BuildingBlock: AJUNOK_clean_linker_0, # of connection points: 2
#     Edge 11, Type (0, 0), BuildingBlock: AJUNOK_clean_linker_0, # of connection points: 2
#     Edge 12, Type (0, 0), BuildingBlock: AJUNOK_clean_linker_0, # of connection points: 2
#     Edge 13, Type (0, 0), BuildingBlock: AJUNOK_clean_linker_0, # of connection points: 2
#     Edge 14, Type (0, 0), BuildingBlock: AJUNOK_clean_linker_0, # of connection points: 2
#     Edge 15, Type (0, 0), BuildingBlock: AJUNOK_clean_linker_0, # of connection points: 2
#     Edge 16, Type (0, 0), BuildingBlock: AJUNOK_clean_linker_0, # of connection points: 2
#     Edge 17, Type (0, 0), BuildingBlock: AJUNOK_clean_linker_0, # of connection points: 2
# Relax obj value: 0.030
# Max RMSD: 0.052
# Mean RMSD: 0.052
data_MOF--net-unj--node1-UXUYUI_clean_sbu_0--edge1-AJUNOK_clean_linker_0
_symmetry_space_group_name_H-M    P1
_symmetry_Int_Tables_number       1
_symmetry_cell_setting            triclinic
loop_
_symmetry_equiv_pos_as_xyz
'x, y, z'
_cell_length_a     41.574519
_cell_length_b     41.544516
_cell_length_c     40.223313
_cell_angle_alpha  89.893942
_cell_angle_beta   90.046401
_cell_angle_gamma 120.00135
loop_
_atom_site_label
_atom_site_type_symbol
_atom_site_fract_x
_atom_site_fract_y
_atom_site_fract_z
_atom_type_partial_charge
Li0 Li 0.46257 0.20563 0.58188 0.0
Li1 Li 0.51009 0.24397 0.62377 0.0
Li2 Li 0.4616 0.25913 0.60669 0.0
Li3 Li 0.51182 0.2704 0.56882 0.0
C4 C 0.41913 0.19077 0.63945 0.0
N5 N 0.34637 0.14482 0.65887 0.0
C6 C 0.41129 0.17199 0.66983 0.0
C7 C 0.39001 0.18625 0.61896 0.0
C8 C 0.3743 0.14885 0.6792 0.0
C9 C 0.3534 0.1629 0.62921 0.0
C10 C 0.55319 0.235 0.57383 0.0
C11 C 0.61913 0.27485 0.58159 0.0
N12 N 0.62546 0.25242 0.56132 0.0
C13 C 0.56031 0.21236 0.55307 0.0
C14 C 0.58279 0.26652 0.5882 0.0
C15 C 0.59706 0.22163 0.54706 0.0
C16 C 0.42651 0.15122 0.53195 0.0
N17 N 0.43414 0.15642 0.56501 0.0
C18 C 0.40323 0.09078 0.5742 0.0
C19 C 0.42315 0.12717 0.58613 0.0
C20 C 0.39469 0.08448 0.54019 0.0
C21 C 0.40668 0.11527 0.51894 0.0
H22 H 0.43611 0.17502 0.51566 0.0
H23 H 0.43029 0.13211 0.6122 0.0
C24 C 0.55136 0.26837 0.68365 0.0
N25 N 0.53922 0.24215 0.65938 0.0
C26 C 0.57452 0.26843 0.70889 0.0
C27 C 0.57147 0.21401 0.68405 0.0
C28 C 0.54836 0.21498 0.65934 0.0
C29 C 0.58525 0.24129 0.70899 0.0
H30 H 0.54338 0.28947 0.68316 0.0
H31 H 0.53801 0.1943 0.63984 0.0
C32 C 0.43865 0.2544 0.53729 0.0
N33 N 0.39917 0.27297 0.49353 0.0
C34 C 0.4539 0.29089 0.52565 0.0
C35 C 0.40347 0.22727 0.52633 0.0
C36 C 0.43347 0.29973 0.50363 0.0
C37 C 0.38391 0.23724 0.50432 0.0
C38 C 0.53219 0.33077 0.61366 0.0
C39 C 0.51447 0.34836 0.59918 0.0
C40 C 0.56681 0.35215 0.62882 0.0
C41 C 0.53193 0.38711 0.59966 0.0
C42 C 0.5834 0.39085 0.62875 0.0
N43 N 0.56577 0.40739 0.61428 0.0
C44 C 0.43835 0.29042 0.65579 0.0
C45 C 0.40518 0.28069 0.60544 0.0
C46 C 0.41922 0.30653 0.67026 0.0
N47 N 0.43126 0.27812 0.62387 0.0
C48 C 0.38566 0.29694 0.61881 0.0
C49 C 0.39257 0.31015 0.65166 0.0
H50 H 0.45925 0.28806 0.66989 0.0
H51 H 0.39971 0.2707 0.58024 0.0
C52 C 0.53277 0.29234 0.50214 0.0
N53 N 0.54395 0.30162 0.53421 0.0
C54 C 0.5548 0.31479 0.47605 0.0
C55 C 0.60015 0.35512 0.51636 0.0
C56 C 0.57722 0.33199 0.54163 0.0
C57 C 0.58876 0.34694 0.48308 0.0
H58 H 0.50651 0.26765 0.49686 0.0
H59 H 0.5862 0.33821 0.56713 0.0
O60 O 0.45521 0.21337 0.6299 0.0
O61 O 0.51735 0.22635 0.57978 0.0
O62 O 0.45817 0.24503 0.55882 0.0
O63 O 0.51565 0.29284 0.61352 0.0
H64 H 0.43359 0.17522 0.68595 0.0
H65 H 0.39561 0.20065 0.59546 0.0
H66 H 0.36781 0.13408 0.70264 0.0
H67 H 0.33059 0.15916 0.61359 0.0
H68 H 0.6423 0.29917 0.59253 0.0
H69 H 0.53766 0.18789 0.54171 0.0
H70 H 0.57779 0.28443 0.60422 0.0
H71 H 0.603 0.20436 0.53104 0.0
H72 H 0.39531 0.06783 0.59127 0.0
H73 H 0.40075 0.11157 0.49255 0.0
H74 H 0.5845 0.28986 0.72776 0.0
H75 H 0.57842 0.19213 0.6837 0.0
H76 H 0.48131 0.31214 0.53329 0.0
H77 H 0.39129 0.19883 0.53484 0.0
H78 H 0.44493 0.32787 0.49449 0.0
H79 H 0.3566 0.21656 0.49578 0.0
H80 H 0.48743 0.33233 0.58789 0.0
H81 H 0.58094 0.339 0.64018 0.0
H82 H 0.51853 0.40107 0.58848 0.0
H83 H 0.61029 0.40773 0.64019 0.0
H84 H 0.42531 0.31616 0.69573 0.0
H85 H 0.36603 0.29991 0.60326 0.0
H86 H 0.54515 0.30739 0.45069 0.0
H87 H 0.62668 0.37898 0.52278 0.0
Li88 Li 0.28095 0.5056 0.79049 0.0
Li89 Li 0.27041 0.45784 0.75085 0.0
Li90 Li 0.25416 0.50496 0.73686 0.0
Li91 Li 0.21804 0.45723 0.77723 0.0
C92 C 0.34035 0.52022 0.7479 0.0
N93 N 0.41314 0.53585 0.75155 0.0
C94 C 0.35208 0.50715 0.77467 0.0
C95 C 0.36565 0.54129 0.72302 0.0
C96 C 0.38898 0.51533 0.77606 0.0
C97 C 0.40233 0.54889 0.7253 0.0
C98 C 0.24347 0.4151 0.80842 0.0
C99 C 0.20792 0.34958 0.79614 0.0
N100 N 0.21435 0.34179 0.82747 0.0
C101 C 0.24977 0.40645 0.84047 0.0
C102 C 0.22241 0.38646 0.78602 0.0
C103 C 0.2348 0.36921 0.84964 0.0
C104 C 0.30287 0.52432 0.85721 0.0
N105 N 0.31214 0.53669 0.82542 0.0
C106 C 0.36487 0.59289 0.84428 0.0
C107 C 0.34252 0.5702 0.81854 0.0
C108 C 0.35583 0.58101 0.8774 0.0
C109 C 0.32452 0.54609 0.88372 0.0
H110 H 0.27862 0.49751 0.86192 0.0
H111 H 0.34938 0.57941 0.79306 0.0
C112 C 0.28497 0.419 0.70079 0.0
N113 N 0.29014 0.42839 0.73351 0.0
C114 C 0.29995 0.39843 0.68707 0.0
C115 C 0.32546 0.39782 0.74093 0.0
C116 C 0.30966 0.418 0.75368 0.0
C117 C 0.32064 0.38779 0.70724 0.0
H118 H 0.26952 0.42782 0.68529 0.0
H119 H 0.31323 0.42561 0.77966 0.0
C120 C 0.24649 0.54751 0.7869 0.0
N121 N 0.26537 0.62045 0.79842 0.0
C122 C 0.22384 0.55554 0.80677 0.0
C123 C 0.27872 0.5766 0.77284 0.0
C124 C 0.23387 0.59259 0.81231 0.0
C125 C 0.28779 0.61327 0.77897 0.0
C126 C 0.19308 0.44282 0.71143 0.0
C127 C 0.17124 0.45805 0.72117 0.0
C128 C 0.18299 0.41989 0.68346 0.0
C129 C 0.13967 0.45012 0.7027 0.0
C130 C 0.15119 0.41261 0.66564 0.0
N131 N 0.13038 0.42776 0.67554 0.0
C132 C 0.27467 0.54211 0.67498 0.0
C133 C 0.22844 0.5486 0.70363 0.0
C134 C 0.27435 0.56422 0.64888 0.0
N135 N 0.25199 0.53484 0.70165 0.0
C136 C 0.2273 0.5709 0.67818 0.0
C137 C 0.25032 0.57881 0.65025 0.0
H138 H 0.29302 0.5307 0.67401 0.0
H139 H 0.21069 0.54252 0.72509 0.0
C140 C 0.16056 0.4407 0.82253 0.0
N141 N 0.16946 0.4271 0.79555 0.0
C142 C 0.12496 0.42126 0.83624 0.0
C143 C 0.10848 0.37371 0.79454 0.0
C144 C 0.14442 0.39411 0.7816 0.0
C145 C 0.09834 0.38737 0.82213 0.0
H146 H 0.18108 0.46692 0.83318 0.0
H147 H 0.15209 0.38393 0.76005 0.0
O148 O 0.30433 0.5125 0.74583 0.0
O149 O 0.25796 0.4515 0.79925 0.0
O150 O 0.23698 0.51131 0.78142 0.0
O151 O 0.22428 0.45024 0.72893 0.0
H152 H 0.33294 0.49084 0.79419 0.0
H153 H 0.35702 0.55166 0.70215 0.0
H154 H 0.39841 0.50535 0.79662 0.0
H155 H 0.42221 0.56515 0.7062 0.0
H156 H 0.19156 0.32715 0.77906 0.0
H157 H 0.26607 0.42831 0.85809 0.0
H158 H 0.21732 0.39252 0.76107 0.0
H159 H 0.23945 0.36212 0.87439 0.0
H160 H 0.38873 0.61966 0.83838 0.0
H161 H 0.31704 0.53555 0.90884 0.0
H162 H 0.29606 0.39158 0.66086 0.0
H163 H 0.34116 0.38998 0.75725 0.0
H164 H 0.19875 0.53336 0.81778 0.0
H165 H 0.29653 0.57099 0.75728 0.0
H166 H 0.2166 0.5992 0.82766 0.0
H167 H 0.31265 0.63602 0.76824 0.0
H168 H 0.17846 0.47572 0.7428 0.0
H169 H 0.19958 0.40784 0.67561 0.0
H170 H 0.12254 0.46174 0.70997 0.0
H171 H 0.14307 0.39492 0.64393 0.0
H172 H 0.29246 0.56961 0.62772 0.0
H173 H 0.20896 0.58225 0.68058 0.0
H174 H 0.11828 0.43263 0.85762 0.0
H175 H 0.08858 0.34803 0.78258 0.0
Li176 Li 0.8253 0.26005 0.91492 0.0
Li177 Li 0.78743 0.27213 0.95453 0.0
Li178 Li 0.7723 0.20719 0.93952 0.0
Li179 Li 0.76002 0.24436 0.89962 0.0
C180 C 0.85104 0.25762 0.97514 0.0
N181 N 0.92189 0.28094 0.99833 0.0
C182 C 0.86944 0.28973 0.9945 0.0
C183 C 0.86848 0.23714 0.96789 0.0
C184 C 0.9053 0.30111 1.00593 0.0
C185 C 0.90438 0.24947 0.97973 0.0
C186 C 0.80859 0.32752 0.90134 0.0
C187 C 0.78236 0.36642 0.88851 0.0
N188 N 0.81716 0.39603 0.8848 0.0
C189 C 0.84409 0.35828 0.89701 0.0
C190 C 0.77746 0.33157 0.89675 0.0
C191 C 0.84785 0.39269 0.88881 0.0
C192 C 0.88264 0.26343 0.87345 0.0
N193 N 0.87501 0.2803 0.89871 0.0
C194 C 0.93852 0.32879 0.90083 0.0
C195 C 0.90207 0.31236 0.91246 0.0
C196 C 0.94728 0.31217 0.87468 0.0
C197 C 0.9188 0.27899 0.86096 0.0
H198 H 0.86054 0.23821 0.86265 0.0
H199 H 0.89525 0.32541 0.93231 0.0
C200 C 0.76982 0.28599 0.01828 0.0
N201 N 0.78807 0.30317 0.98985 0.0
C202 C 0.76884 0.30687 0.04507 0.0
C203 C 0.80537 0.36271 0.01281 0.0
C204 C 0.80599 0.34082 0.9868 0.0
C205 C 0.78672 0.34572 0.04239 0.0
H206 H 0.75586 0.25601 0.02003 0.0
H207 H 0.82092 0.354 0.96434 0.0
C208 C 0.77569 0.18058 0.8811 0.0
N209 N 0.75378 0.10871 0.8619 0.0
C210 C 0.74275 0.15988 0.86325 0.0
C211 C 0.7977 0.16492 0.88886 0.0
C212 C 0.73211 0.12354 0.85383 0.0
C213 C 0.78607 0.12848 0.87904 0.0
C214 C 0.70557 0.2265 0.95162 0.0
C215 C 0.67322 0.19248 0.95724 0.0
C216 C 0.70438 0.25944 0.95405 0.0
C217 C 0.64008 0.19197 0.96438 0.0
C218 C 0.67074 0.2578 0.9613 0.0
N219 N 0.63953 0.22436 0.96621 0.0
C220 C 0.76981 0.1487 0.97927 0.0
C221 C 0.71771 0.13185 0.94452 0.0
C222 C 0.7532 0.11264 0.99232 0.0
N223 N 0.75174 0.15759 0.95602 0.0
C224 C 0.70006 0.09563 0.95696 0.0
C225 C 0.71759 0.08583 0.98154 0.0
H226 H 0.79676 0.16973 0.98814 0.0
H227 H 0.70405 0.13962 0.92592 0.0
C228 C 0.74385 0.26578 0.83801 0.0
N229 N 0.72829 0.24279 0.86454 0.0
C230 C 0.72159 0.26594 0.81205 0.0
C231 C 0.66775 0.21809 0.84075 0.0
C232 C 0.69105 0.21889 0.86617 0.0
C233 C 0.68299 0.24182 0.81323 0.0
H234 H 0.77359 0.28427 0.83719 0.0
H235 H 0.67942 0.20019 0.88704 0.0
O236 O 0.81611 0.24629 0.96341 0.0
O237 O 0.8045 0.29359 0.90938 0.0
O238 O 0.78621 0.21594 0.89107 0.0
O239 O 0.73829 0.22743 0.9447 0.0
H240 H 0.85632 0.30586 1.00041 0.0
H241 H 0.85458 0.21217 0.95303 0.0
H242 H 0.91996 0.32602 0.02079 0.0
H243 H 0.91832 0.23405 0.9741 0.0
H244 H 0.75847 0.36988 0.88492 0.0
H245 H 0.86853 0.35574 0.90004 0.0
H246 H 0.74976 0.30803 0.89899 0.0
H247 H 0.87517 0.41674 0.88558 0.0
H248 H 0.95966 0.35432 0.91214 0.0
H249 H 0.92422 0.26569 0.84031 0.0
H250 H 0.75388 0.29281 0.06744 0.0
H251 H 0.8197 0.39266 1.01001 0.0
H252 H 0.72544 0.17162 0.85698 0.0
H253 H 0.82333 0.18064 0.90255 0.0
H254 H 0.70658 0.1071 0.84018 0.0
H255 H 0.8027 0.11591 0.88508 0.0
H256 H 0.67358 0.16669 0.95602 0.0
H257 H 0.7292 0.28607 0.95087 0.0
H258 H 0.61483 0.16581 0.96855 0.0
H259 H 0.66949 0.28312 0.96318 0.0
H260 H 0.76753 0.10606 1.01129 0.0
H261 H 0.67284 0.07555 0.94763 0.0
H262 H 0.73437 0.28506 0.7915 0.0
H263 H 0.63817 0.19884 0.84241 0.0
Li264 Li 0.57338 0.81662 0.08484 0.0
Li265 Li 0.52507 0.77962 0.12341 0.0
Li266 Li 0.57541 0.76394 0.1099 0.0
Li267 Li 0.52531 0.75499 0.06928 0.0
C268 C 0.60883 0.84059 0.1441 0.0
N269 N 0.66825 0.90583 0.16741 0.0
C270 C 0.60536 0.87206 0.14866 0.0
C271 C 0.64252 0.84228 0.15144 0.0
C272 C 0.63573 0.9048 0.16042 0.0
C273 C 0.67223 0.87552 0.16321 0.0
C274 C 0.49499 0.80935 0.08804 0.0
C275 C 0.43241 0.79482 0.10072 0.0
N276 N 0.44505 0.83131 0.10734 0.0
C277 C 0.50735 0.84671 0.09501 0.0
C278 C 0.45719 0.78319 0.09087 0.0
C279 C 0.48167 0.85726 0.10467 0.0
C280 C 0.58617 0.87586 0.04309 0.0
N281 N 0.60358 0.86568 0.06591 0.0
C282 C 0.65948 0.92439 0.05983 0.0
C283 C 0.64001 0.8887 0.07357 0.0
C284 C 0.64146 0.93627 0.03758 0.0
C285 C 0.6046 0.9111 0.0286 0.0
H286 H 0.55772 0.85658 0.03625 0.0
H287 H 0.65406 0.87958 0.0904 0.0
C288 C 0.46688 0.74539 0.17075 0.0
N289 N 0.49394 0.7788 0.15907 0.0
C290 C 0.44304 0.7437 0.19603 0.0
C291 C 0.47568 0.81081 0.19726 0.0
C292 C 0.49898 0.81118 0.1721 0.0
C293 C 0.44706 0.77674 0.20937 0.0
H294 H 0.46383 0.72 0.16054 0.0
H295 H 0.52076 0.83739 0.16271 0.0
C296 C 0.6073 0.79796 0.04067 0.0
N297 N 0.66346 0.84325 0.9974 0.0
C298 C 0.59869 0.80516 1.00894 0.0
C299 C 0.64441 0.81361 0.0504 0.0
C300 C 0.62751 0.82821 0.98743 0.0
C301 C 0.67242 0.83645 0.02814 0.0
C302 C 0.49705 0.69392 0.10575 0.0
C303 C 0.51126 0.66984 0.10285 0.0
C304 C 0.4593 0.68056 0.09994 0.0
C305 C 0.48748 0.63285 0.09386 0.0
C306 C 0.43645 0.64341 0.09091 0.0
N307 N 0.4509 0.62052 0.08808 0.0
C308 C 0.60439 0.7386 0.16018 0.0
C309 C 0.62231 0.73263 0.10563 0.0
C310 C 0.62381 0.72224 0.17359 0.0
N311 N 0.60408 0.7435 0.12679 0.0
C312 C 0.64212 0.71616 0.11797 0.0
C313 C 0.64303 0.71081 0.15239 0.0
H314 H 0.58933 0.74725 0.17635 0.0
H315 H 0.62093 0.73617 0.07912 0.0
C316 C 0.46904 0.73025 0.02014 0.0
N317 N 0.49563 0.72427 0.03353 0.0
C318 C 0.44591 0.70716 0.99497 0.0
C319 C 0.47872 0.67286 0.99701 0.0
C320 C 0.50132 0.69672 0.02209 0.0
C321 C 0.45024 0.67765 0.98347 0.0
H322 H 0.4658 0.753 0.02894 0.0
H323 H 0.52313 0.69301 0.03277 0.0
O324 O 0.57933 0.80811 0.13299 0.0
O325 O 0.51978 0.79834 0.07902 0.0
O326 O 0.57949 0.77637 0.06239 0.0
O327 O 0.52005 0.73043 0.11387 0.0
H328 H 0.57981 0.87153 0.14251 0.0
H329 H 0.64581 0.81829 0.14794 0.0
H330 H 0.63351 0.92943 0.16384 0.0
H331 H 0.69847 0.87725 0.16893 0.0
H332 H 0.40314 0.77482 0.1032 0.0
H333 H 0.53651 0.86731 0.09357 0.0
H334 H 0.44712 0.75412 0.08594 0.0
H335 H 0.49089 0.88604 0.11028 0.0
H336 H 0.68809 0.94273 0.06702 0.0
H337 H 0.5901 0.91858 1.01054 0.0
H338 H 0.42199 0.71684 0.2053 0.0
H339 H 0.47975 0.83692 0.20689 0.0
H340 H 0.57004 0.79336 1.00117 0.0
H341 H 0.65147 0.80865 0.07506 0.0
H342 H 0.62131 0.83422 0.96284 0.0
H343 H 0.70127 0.84896 0.03539 0.0
H344 H 0.54036 0.67963 0.10725 0.0
H345 H 0.44784 0.69879 0.10195 0.0
H346 H 0.49814 0.61396 0.09139 0.0
H347 H 0.40726 0.63281 0.08607 0.0
H348 H 0.62383 0.71857 0.20026 0.0
H349 H 0.65585 0.70695 0.10074 0.0
H350 H 0.42506 0.71252 0.98445 0.0
H351 H 0.48309 0.65057 0.98865 0.0
Li352 Li 0.76836 0.56487 0.24951 0.0
Li353 Li 0.75898 0.51541 0.28858 0.0
Li354 Li 0.82377 0.56515 0.27315 0.0
Li355 Li 0.78401 0.51517 0.23444 0.0
C356 C 0.78924 0.60144 0.31225 0.0
N357 N 0.79974 0.66524 0.3434 0.0
C358 C 0.76522 0.59919 0.33761 0.0
C359 C 0.81892 0.63609 0.30312 0.0
C360 C 0.77088 0.63177 0.35294 0.0
C361 C 0.8237 0.66802 0.31907 0.0
C362 C 0.69845 0.48552 0.25104 0.0
C363 C 0.6491 0.42292 0.26168 0.0
N364 N 0.62505 0.43579 0.26599 0.0
C365 C 0.67319 0.49809 0.25528 0.0
C366 C 0.68628 0.4476 0.25397 0.0
C367 C 0.63622 0.47252 0.26292 0.0
C368 C 0.7507 0.60133 0.19972 0.0
N369 N 0.74836 0.59441 0.23295 0.0
C370 C 0.71488 0.62675 0.24102 0.0
C371 C 0.73071 0.60646 0.25359 0.0
C372 C 0.71707 0.63454 0.20684 0.0
C373 C 0.73522 0.62149 0.18607 0.0
H374 H 0.76421 0.59074 0.18375 0.0
H375 H 0.72815 0.59968 0.27972 0.0
C376 C 0.7345 0.45921 0.3381 0.0
N377 N 0.72806 0.48527 0.32409 0.0
C378 C 0.71193 0.43675 0.36392 0.0
C379 C 0.67662 0.46845 0.36053 0.0
C380 C 0.69992 0.49035 0.33486 0.0
C381 C 0.68266 0.44138 0.37555 0.0
H382 H 0.75728 0.45598 0.32938 0.0
H383 H 0.69546 0.51133 0.32335 0.0
C384 C 0.83965 0.59891 0.20838 0.0
N385 N 0.8939 0.65809 0.17265 0.0
C386 C 0.86198 0.59333 0.18585 0.0
C387 C 0.84444 0.63448 0.21221 0.0
C388 C 0.88941 0.62363 0.16819 0.0
C389 C 0.87212 0.66406 0.19406 0.0
C390 C 0.81493 0.48568 0.27348 0.0
C391 C 0.85287 0.49753 0.27306 0.0
C392 C 0.78908 0.44816 0.26826 0.0
C393 C 0.86433 0.47172 0.26684 0.0
C394 C 0.80165 0.42322 0.26205 0.0
N395 N 0.8387 0.43542 0.26145 0.0
C396 C 0.87845 0.60535 0.32176 0.0
C397 C 0.90288 0.60426 0.26885 0.0
C398 C 0.91423 0.6259 0.33493 0.0
N399 N 0.87345 0.59519 0.2892 0.0
C400 C 0.93913 0.62468 0.28099 0.0
C401 C 0.94515 0.6358 0.31443 0.0
H402 H 0.85458 0.59698 0.33765 0.0
H403 H 0.89828 0.59484 0.2434 0.0
C404 C 0.75255 0.46233 0.18257 0.0
N405 N 0.78461 0.48478 0.19914 0.0
C406 C 0.75201 0.43914 0.15718 0.0
C407 C 0.81752 0.46273 0.1663 0.0
C408 C 0.81689 0.48577 0.19119 0.0
C409 C 0.78473 0.43891 0.14912 0.0
H410 H 0.72735 0.46238 0.18909 0.0
H411 H 0.84215 0.50433 0.20433 0.0
O412 O 0.78401 0.56975 0.29699 0.0
O413 O 0.7349 0.51022 0.24412 0.0
O414 O 0.81247 0.56943 0.22568 0.0
O415 O 0.80321 0.51068 0.27904 0.0
H416 H 0.74234 0.57259 0.34528 0.0
H417 H 0.83842 0.63829 0.2843 0.0
H418 H 0.75236 0.63045 0.37245 0.0
H419 H 0.84655 0.69501 0.3122 0.0
H420 H 0.63936 0.39354 0.26424 0.0
H421 H 0.68208 0.52729 0.25298 0.0
H422 H 0.70535 0.43736 0.25047 0.0
H423 H 0.61643 0.48189 0.26649 0.0
H424 H 0.70095 0.63613 0.25785 0.0
H425 H 0.73669 0.62603 0.15946 0.0
H426 H 0.7176 0.41631 0.37499 0.0
H427 H 0.65391 0.47242 0.36832 0.0
H428 H 0.85838 0.56596 0.18219 0.0
H429 H 0.82671 0.63921 0.22866 0.0
H430 H 0.90708 0.61974 0.15089 0.0
H431 H 0.87617 0.69174 0.19687 0.0
H432 H 0.87326 0.52636 0.27733 0.0
H433 H 0.75964 0.43847 0.26868 0.0
H434 H 0.89361 0.48055 0.26626 0.0
H435 H 0.78194 0.39418 0.25767 0.0
H436 H 0.91765 0.6331 0.36106 0.0
H437 H 0.96224 0.63152 0.26445 0.0
H438 H 0.72625 0.42122 0.14429 0.0
H439 H 0.84342 0.46377 0.16031 0.0
Li440 Li 0.21389 0.75889 0.41562 0.0
Li441 Li 0.25361 0.75079 0.4565 0.0
Li442 Li 0.26736 0.81309 0.44288 0.0
Li443 Li 0.27736 0.77614 0.4034 0.0
C444 C 0.20111 0.75271 0.49043 0.0
N445 N 0.16276 0.70985 0.54476 0.0
C446 C 0.17499 0.71504 0.48641 0.0
C447 C 0.20754 0.76862 0.52206 0.0
C448 C 0.15594 0.69384 0.51418 0.0
C449 C 0.1879 0.74648 0.54922 0.0
C450 C 0.2452 0.70442 0.39546 0.0
C451 C 0.28303 0.6759 0.38859 0.0
N452 N 0.26845 0.66431 0.35772 0.0
C453 C 0.23044 0.69206 0.36375 0.0
C454 C 0.27165 0.69621 0.40805 0.0
C455 C 0.24262 0.6719 0.34503 0.0
C456 C 0.16056 0.73214 0.36452 0.0
N457 N 0.16524 0.74001 0.39754 0.0
C458 C 0.10067 0.71983 0.40373 0.0
C459 C 0.13636 0.73488 0.41708 0.0
C460 C 0.0948 0.71052 0.36984 0.0
C461 C 0.12538 0.71711 0.35011 0.0
H462 H 0.18421 0.73755 0.34937 0.0
H463 H 0.14091 0.74223 0.44309 0.0
C464 C 0.27337 0.73542 0.51963 0.0
N465 N 0.25333 0.7197 0.49162 0.0
C466 C 0.27279 0.71301 0.54587 0.0
C467 C 0.23119 0.65878 0.51378 0.0
C468 C 0.2325 0.68218 0.48824 0.0
C469 C 0.25128 0.67415 0.54318 0.0
H470 H 0.28956 0.76537 0.52164 0.0
H471 H 0.21673 0.67044 0.46572 0.0
C472 C 0.23734 0.82635 0.38507 0.0
N473 N 0.20555 0.86807 0.3658 0.0
C474 C 0.24519 0.84331 0.3538 0.0
C475 C 0.21323 0.83053 0.40653 0.0
C476 C 0.22888 0.86432 0.34453 0.0
C477 C 0.19746 0.85175 0.39632 0.0
C478 C 0.33779 0.82339 0.44281 0.0
C479 C 0.34594 0.84877 0.41685 0.0
C480 C 0.36584 0.8282 0.46484 0.0
C481 C 0.3821 0.87857 0.41339 0.0
C482 C 0.40167 0.85836 0.46054 0.0
N483 N 0.40899 0.88271 0.43512 0.0
C484 C 0.29344 0.8674 0.49344 0.0
C485 C 0.29737 0.89211 0.43952 0.0
C486 C 0.30954 0.90295 0.50732 0.0
N487 N 0.28722 0.86255 0.46015 0.0
C488 C 0.31353 0.9281 0.45232 0.0
C489 C 0.31966 0.93387 0.48667 0.0
H490 H 0.28674 0.84372 0.50911 0.0
H491 H 0.29372 0.888 0.413 0.0
C492 C 0.29973 0.78084 0.33641 0.0
N493 N 0.30865 0.77717 0.36816 0.0
C494 C 0.32129 0.78052 0.30993 0.0
C495 C 0.36084 0.77279 0.34937 0.0
C496 C 0.33858 0.77333 0.37507 0.0
C497 C 0.35214 0.77616 0.31627 0.0
H498 H 0.2757 0.78376 0.3317 0.0
H499 H 0.34486 0.77016 0.40055 0.0
O500 O 0.22087 0.77357 0.46363 0.0
O501 O 0.23453 0.72521 0.4138 0.0
O502 O 0.25297 0.80545 0.39419 0.0
O503 O 0.30256 0.79406 0.44703 0.0
H504 H 0.17 0.70216 0.46216 0.0
H505 H 0.22743 0.79771 0.52566 0.0
H506 H 0.1359 0.6646 0.51146 0.0
H507 H 0.19268 0.75841 0.57385 0.0
H508 H 0.30367 0.66958 0.39792 0.0
H509 H 0.21001 0.69815 0.35359 0.0
H510 H 0.28382 0.70606 0.43232 0.0
H511 H 0.23159 0.66234 0.32037 0.0
H512 H 0.07781 0.71481 0.41991 0.0
H513 H 0.1221 0.71075 0.3238 0.0
H514 H 0.28861 0.72591 0.56818 0.0
H515 H 0.21488 0.62897 0.51043 0.0
H516 H 0.26375 0.84029 0.33688 0.0
H517 H 0.20676 0.81768 0.43082 0.0
H518 H 0.23475 0.87764 0.32041 0.0
H519 H 0.17879 0.85524 0.41268 0.0
H520 H 0.32467 0.8456 0.39953 0.0
H521 H 0.35994 0.80882 0.4851 0.0
H522 H 0.38879 0.89842 0.39344 0.0
H523 H 0.42366 0.86242 0.47742 0.0
H524 H 0.31489 0.9063 0.53381 0.0
H525 H 0.32128 0.95124 0.43551 0.0
H526 H 0.31409 0.78397 0.28481 0.0
H527 H 0.3843 0.76924 0.35526 0.0
C528 C 0.3884 0.03681 0.49859 0.0
C529 C 0.37455 0.04603 0.52671 0.0
C530 C 0.37041 1.00057 0.48579 0.0
C531 C 0.33786 0.97213 0.50058 0.0
H532 H 0.41372 0.05763 0.48671 0.0
H533 H 0.38245 0.99465 0.46443 0.0
S534 S 0.28851 0.98252 0.57292 0.0
N535 N 0.32517 0.02425 0.56782 0.0
N536 N 0.29137 0.95615 0.54374 0.0
C537 C 0.32338 0.9811 0.52838 0.0
C538 C 0.34171 0.01801 0.54143 0.0
C539 C 0.3936 0.36226 0.68399 0.0
C540 C 0.37322 0.3289 0.66611 0.0
C541 C 0.37633 0.38095 0.69736 0.0
C542 C 0.33807 0.3672 0.69313 0.0
H543 H 0.42329 0.3744 0.68728 0.0
H544 H 0.39317 0.40671 0.71066 0.0
S545 S 0.27154 0.27968 0.65073 0.0
N546 N 0.31209 0.28179 0.64674 0.0
N547 N 0.27992 0.31747 0.67127 0.0
C548 C 0.31724 0.33376 0.67566 0.0
C549 C 0.33473 0.3145 0.66229 0.0
C550 C 1.00444 0.36865 0.85388 0.0
C551 C 0.9857 0.33036 0.86111 0.0
C552 C 0.04075 0.38673 0.84133 0.0
C553 C 0.05982 0.36727 0.83547 0.0
H554 H 0.99076 0.38474 0.85761 0.0
H555 H 0.05386 0.41616 0.8358 0.0
S556 S 0.02417 0.26722 0.85227 0.0
N557 N 0.98954 0.27388 0.8628 0.0
N558 N 0.05784 0.3079 0.83912 0.0
C559 C 0.04155 0.32903 0.84276 0.0
C560 C 1.00451 0.31058 0.85559 0.0
C561 C 0.69715 0.99037 1.01121 0.0
C562 C 0.66083 0.97476 0.02397 0.0
C563 C 0.71555 0.02645 0.99778 0.0
C564 C 0.69821 0.0481 0.99651 0.0
H565 H 0.71123 0.97438 1.0111 0.0
H566 H 0.74327 0.03724 0.98781 0.0
S567 S 0.60506 0.02179 0.02978 0.0
N568 N 0.60948 0.98502 0.03677 0.0
N569 N 0.64384 0.05243 1.01118 0.0
C570 C 0.6623 0.03316 1.00982 0.0
C571 C 0.64367 0.99661 0.02362 0.0
C572 C 0.66253 0.64446 0.20201 0.0
C573 C 0.69914 0.65488 0.19286 0.0
C574 C 0.64474 0.6628 0.18893 0.0
C575 C 0.66282 0.69225 0.16614 0.0
H576 H 0.64726 0.62155 0.21906 0.0
H577 H 0.61636 0.65345 0.19635 0.0
S578 S 0.75974 0.73222 0.13611 0.0
N579 N 0.75355 0.69788 0.16095 0.0
N580 N 0.72003 0.73226 0.13627 0.0
C581 C 0.69958 0.70328 0.15709 0.0
C582 C 0.71774 0.68464 0.17045 0.0
C583 C 0.04406 0.66073 0.33554 0.0
C584 C 0.05685 0.69276 0.35531 0.0
C585 C 1.00809 0.64275 0.32222 0.0
C586 C 0.98344 0.65606 0.32816 0.0
H587 H 0.06178 0.64902 0.33083 0.0
H588 H 0.99925 0.6178 0.30766 0.0
S589 S 1.00435 0.74071 0.37579 0.0
N590 N 0.04275 0.73832 0.37847 0.0
N591 N 0.97504 0.70441 0.35352 0.0
C592 C 0.99605 0.68842 0.34738 0.0
C593 C 0.03274 0.70678 0.36092 0.0
C594 C 0.62047 0.35633 0.428 0.0
C595 C 0.61238 0.37156 0.4558 0.0
C596 C 0.64326 0.37909 0.40223 0.0
C597 C 0.65855 0.41791 0.40315 0.0
H598 H 0.6095 0.32662 0.42634 0.0
H599 H 0.64873 0.36617 0.38129 0.0
S600 S 0.64545 0.47152 0.4702 0.0
N601 N 0.62086 0.42779 0.4824 0.0
N602 N 0.66421 0.4706 0.43431 0.0
C603 C 0.65052 0.43347 0.43073 0.0
C604 C 0.62739 0.41031 0.45698 0.0
C605 C 0.28351 0.6555 0.58522 0.0
C606 C 0.25023 0.64975 0.57073 0.0
C607 C 0.28329 0.6323 0.61072 0.0
C608 C 0.24977 0.60267 0.62291 0.0
H609 H 0.30999 0.67782 0.57649 0.0
H610 H 0.30958 0.63785 0.62122 0.0
S611 S 0.155 0.5761 0.59366 0.0
N612 N 0.18281 0.61268 0.57087 0.0
N613 N 0.18242 0.56866 0.61829 0.0
C614 C 0.21628 0.59671 0.60871 0.0
C615 C 0.21652 0.62029 0.58273 0.0
C616 C 0.62675 0.2439 0.7939 0.0
C617 C 0.65855 0.2416 0.78616 0.0
C618 C 0.60335 0.24403 0.76882 0.0
C619 C 0.61065 0.24145 0.73507 0.0
H620 H 0.62011 0.24602 0.81955 0.0
H621 H 0.57913 0.24575 0.77592 0.0
S622 S 0.69023 0.23473 0.70162 0.0
N623 N 0.69591 0.23633 0.74235 0.0
N624 N 0.65222 0.23707 0.6952 0.0
C625 C 0.64233 0.23911 0.72699 0.0
C626 C 0.66624 0.23914 0.75251 0.0
C627 C 0.41809 0.62133 0.90364 0.0
C628 C 0.37919 0.60501 0.90507 0.0
C629 C 0.44081 0.64441 0.92924 0.0
C630 C 0.42551 0.65231 0.95711 0.0
H631 H 0.43109 0.61605 0.88264 0.0
H632 H 0.47062 0.65661 0.92695 0.0
S633 S 0.32531 0.61633 0.97299 0.0
N634 N 0.3264 0.59851 0.93662 0.0
N635 N 0.36902 0.64127 0.98501 0.0
C636 C 0.38666 0.636 0.95895 0.0
C637 C 0.36353 0.61246 0.93292 0.0
C638 C 0.77296 0.39373 0.06466 0.0
C639 C 0.78581 0.36862 0.07018 0.0
C640 C 0.77215 0.41597 0.09046 0.0
C641 C 0.78477 0.41432 0.12252 0.0
H642 H 0.76326 0.39601 0.04023 0.0
H643 H 0.76215 0.43504 0.08518 0.0
S644 S 0.82106 0.35321 0.14983 0.0
N645 N 0.81124 0.34327 0.11006 0.0
N646 N 0.81003 0.38534 0.15852 0.0
C647 C 0.79767 0.38934 0.12837 0.0
C648 C 0.79805 0.36637 0.10222 0.0
C649 C 0.41447 0.79799 0.29039 0.0
C650 C 0.37559 0.77565 0.28865 0.0
C651 C 0.43728 0.79822 0.26464 0.0
C652 C 0.42213 0.77591 0.23623 0.0
H653 H 0.42739 0.81576 0.31171 0.0
H654 H 0.46709 0.81576 0.26716 0.0
S655 S 0.32197 0.71218 0.21963 0.0
N656 N 0.3229 0.73015 0.25644 0.0
N657 N 0.36573 0.73117 0.2077 0.0
C658 C 0.38328 0.75338 0.23418 0.0
C659 C 0.36004 0.75317 0.26041 0.0
loop_
_geom_bond_atom_site_label_1
_geom_bond_atom_site_label_2
_geom_bond_distance
_geom_bond_site_symmetry_2
_ccdc_geom_bond_type
Li0 N17 1.990 . S
Li0 O60 1.956 . S
Li0 O61 1.970 . S
Li0 O62 1.961 . S
Li1 N25 1.990 . S
Li1 O60 1.970 . S
Li1 O61 1.956 . S
Li1 O63 1.961 . S
Li2 N47 1.990 . S
Li2 O60 1.961 . S
Li2 O62 1.956 . S
Li2 O63 1.970 . S
Li3 N53 1.990 . S
Li3 O61 1.961 . S
Li3 O62 1.970 . S
Li3 O63 1.956 . S
C4 C6 1.348 . S
C4 C7 1.356 . S
C4 O60 1.325 . S
N5 C8 1.314 . S
N5 C9 1.279 . S
C6 C4 1.348 . S
C6 C8 1.353 . S
C6 H64 0.929 . S
C7 C4 1.356 . S
C7 C9 1.358 . S
C7 H65 0.930 . S
C8 N5 1.314 . S
C8 C6 1.353 . S
C8 H66 0.930 . S
C9 N5 1.279 . S
C9 C7 1.358 . S
C9 H67 0.930 . S
C10 C13 1.348 . S
C10 C14 1.356 . S
C10 O61 1.325 . S
C11 N12 1.279 . S
C11 C14 1.358 . S
C11 H68 0.930 . S
N12 C11 1.279 . S
N12 C15 1.314 . S
C13 C10 1.348 . S
C13 C15 1.353 . S
C13 H69 0.929 . S
C14 C10 1.356 . S
C14 C11 1.358 . S
C14 H70 0.930 . S
C15 N12 1.314 . S
C15 C13 1.353 . S
C15 H71 0.930 . S
C16 N17 1.314 . S
C16 C21 1.353 . S
C16 H22 0.930 . S
N17 Li0 1.990 . S
N17 C16 1.314 . S
N17 C19 1.279 . S
C18 C19 1.358 . S
C18 C20 1.356 . S
C18 H72 0.930 . S
C19 N17 1.279 . S
C19 C18 1.358 . S
C19 H23 0.930 . S
C20 C18 1.356 . S
C20 C21 1.348 . S
C21 C16 1.353 . S
C21 C20 1.348 . S
C21 H73 0.929 . S
H22 C16 0.930 . S
H23 C19 0.930 . S
C24 N25 1.314 . S
C24 C26 1.353 . S
C24 H30 0.930 . S
N25 Li1 1.990 . S
N25 C24 1.314 . S
N25 C28 1.279 . S
C26 C24 1.353 . S
C26 C29 1.348 . S
C26 H74 0.929 . S
C27 C28 1.358 . S
C27 C29 1.356 . S
C27 H75 0.930 . S
C28 N25 1.279 . S
C28 C27 1.358 . S
C28 H31 0.930 . S
C29 C26 1.348 . S
C29 C27 1.356 . S
H30 C24 0.930 . S
H31 C28 0.930 . S
C32 C34 1.348 . S
C32 C35 1.356 . S
C32 O62 1.325 . S
N33 C36 1.314 . S
N33 C37 1.279 . S
C34 C32 1.348 . S
C34 C36 1.353 . S
C34 H76 0.929 . S
C35 C32 1.356 . S
C35 C37 1.358 . S
C35 H77 0.930 . S
C36 N33 1.314 . S
C36 C34 1.353 . S
C36 H78 0.930 . S
C37 N33 1.279 . S
C37 C35 1.358 . S
C37 H79 0.930 . S
C38 C39 1.348 . S
C38 C40 1.356 . S
C38 O63 1.325 . S
C39 C38 1.348 . S
C39 C41 1.353 . S
C39 H80 0.929 . S
C40 C38 1.356 . S
C40 C42 1.358 . S
C40 H81 0.930 . S
C41 C39 1.353 . S
C41 N43 1.314 . S
C41 H82 0.930 . S
C42 C40 1.358 . S
C42 N43 1.279 . S
C42 H83 0.930 . S
N43 C41 1.314 . S
N43 C42 1.279 . S
C44 C46 1.353 . S
C44 N47 1.314 . S
C44 H50 0.930 . S
C45 N47 1.279 . S
C45 C48 1.358 . S
C45 H51 0.930 . S
C46 C44 1.353 . S
C46 C49 1.348 . S
C46 H84 0.929 . S
N47 Li2 1.990 . S
N47 C44 1.314 . S
N47 C45 1.279 . S
C48 C45 1.358 . S
C48 C49 1.356 . S
C48 H85 0.930 . S
C49 C46 1.348 . S
C49 C48 1.356 . S
H50 C44 0.930 . S
H51 C45 0.930 . S
C52 N53 1.314 . S
C52 C54 1.353 . S
C52 H58 0.930 . S
N53 Li3 1.990 . S
N53 C52 1.314 . S
N53 C56 1.279 . S
C54 C52 1.353 . S
C54 C57 1.348 . S
C54 H86 0.929 . S
C55 C56 1.358 . S
C55 C57 1.356 . S
C55 H87 0.930 . S
C56 N53 1.279 . S
C56 C55 1.358 . S
C56 H59 0.930 . S
C57 C54 1.348 . S
C57 C55 1.356 . S
H58 C52 0.930 . S
H59 C56 0.930 . S
O60 Li0 1.956 . S
O60 Li1 1.970 . S
O60 Li2 1.961 . S
O60 C4 1.325 . S
O61 Li0 1.970 . S
O61 Li1 1.956 . S
O61 Li3 1.961 . S
O61 C10 1.325 . S
O62 Li0 1.961 . S
O62 Li2 1.956 . S
O62 Li3 1.970 . S
O62 C32 1.325 . S
O63 Li1 1.961 . S
O63 Li2 1.970 . S
O63 Li3 1.956 . S
O63 C38 1.325 . S
H64 C6 0.929 . S
H65 C7 0.930 . S
H66 C8 0.930 . S
H67 C9 0.930 . S
H68 C11 0.930 . S
H69 C13 0.929 . S
H70 C14 0.930 . S
H71 C15 0.930 . S
H72 C18 0.930 . S
H73 C21 0.929 . S
H74 C26 0.929 . S
H75 C27 0.930 . S
H76 C34 0.929 . S
H77 C35 0.930 . S
H78 C36 0.930 . S
H79 C37 0.930 . S
H80 C39 0.929 . S
H81 C40 0.930 . S
H82 C41 0.930 . S
H83 C42 0.930 . S
H84 C46 0.929 . S
H85 C48 0.930 . S
H86 C54 0.929 . S
H87 C55 0.930 . S
Li88 N105 1.990 . S
Li88 O148 1.956 . S
Li88 O149 1.970 . S
Li88 O150 1.961 . S
Li89 N113 1.990 . S
Li89 O148 1.970 . S
Li89 O149 1.956 . S
Li89 O151 1.961 . S
Li90 N135 1.990 . S
Li90 O148 1.961 . S
Li90 O150 1.956 . S
Li90 O151 1.970 . S
Li91 N141 1.990 . S
Li91 O149 1.961 . S
Li91 O150 1.970 . S
Li91 O151 1.956 . S
C92 C94 1.348 . S
C92 C95 1.356 . S
C92 O148 1.325 . S
N93 C96 1.314 . S
N93 C97 1.279 . S
C94 C92 1.348 . S
C94 C96 1.353 . S
C94 H152 0.929 . S
C95 C92 1.356 . S
C95 C97 1.358 . S
C95 H153 0.930 . S
C96 N93 1.314 . S
C96 C94 1.353 . S
C96 H154 0.930 . S
C97 N93 1.279 . S
C97 C95 1.358 . S
C97 H155 0.930 . S
C98 C101 1.348 . S
C98 C102 1.356 . S
C98 O149 1.325 . S
C99 N100 1.279 . S
C99 C102 1.358 . S
C99 H156 0.930 . S
N100 C99 1.279 . S
N100 C103 1.314 . S
C101 C98 1.348 . S
C101 C103 1.353 . S
C101 H157 0.929 . S
C102 C98 1.356 . S
C102 C99 1.358 . S
C102 H158 0.930 . S
C103 N100 1.314 . S
C103 C101 1.353 . S
C103 H159 0.930 . S
C104 N105 1.314 . S
C104 C109 1.353 . S
C104 H110 0.930 . S
N105 Li88 1.990 . S
N105 C104 1.314 . S
N105 C107 1.279 . S
C106 C107 1.358 . S
C106 C108 1.356 . S
C106 H160 0.930 . S
C107 N105 1.279 . S
C107 C106 1.358 . S
C107 H111 0.930 . S
C108 C106 1.356 . S
C108 C109 1.348 . S
C109 C104 1.353 . S
C109 C108 1.348 . S
C109 H161 0.929 . S
H110 C104 0.930 . S
H111 C107 0.930 . S
C112 N113 1.314 . S
C112 C114 1.353 . S
C112 H118 0.930 . S
N113 Li89 1.990 . S
N113 C112 1.314 . S
N113 C116 1.279 . S
C114 C112 1.353 . S
C114 C117 1.348 . S
C114 H162 0.929 . S
C115 C116 1.358 . S
C115 C117 1.356 . S
C115 H163 0.930 . S
C116 N113 1.279 . S
C116 C115 1.358 . S
C116 H119 0.930 . S
C117 C114 1.348 . S
C117 C115 1.356 . S
H118 C112 0.930 . S
H119 C116 0.930 . S
C120 C122 1.348 . S
C120 C123 1.356 . S
C120 O150 1.325 . S
N121 C124 1.314 . S
N121 C125 1.279 . S
C122 C120 1.348 . S
C122 C124 1.353 . S
C122 H164 0.929 . S
C123 C120 1.356 . S
C123 C125 1.358 . S
C123 H165 0.930 . S
C124 N121 1.314 . S
C124 C122 1.353 . S
C124 H166 0.930 . S
C125 N121 1.279 . S
C125 C123 1.358 . S
C125 H167 0.930 . S
C126 C127 1.348 . S
C126 C128 1.356 . S
C126 O151 1.325 . S
C127 C126 1.348 . S
C127 C129 1.353 . S
C127 H168 0.929 . S
C128 C126 1.356 . S
C128 C130 1.358 . S
C128 H169 0.930 . S
C129 C127 1.353 . S
C129 N131 1.314 . S
C129 H170 0.930 . S
C130 C128 1.358 . S
C130 N131 1.279 . S
C130 H171 0.930 . S
N131 C129 1.314 . S
N131 C130 1.279 . S
C132 C134 1.353 . S
C132 N135 1.314 . S
C132 H138 0.930 . S
C133 N135 1.279 . S
C133 C136 1.358 . S
C133 H139 0.930 . S
C134 C132 1.353 . S
C134 C137 1.348 . S
C134 H172 0.929 . S
N135 Li90 1.990 . S
N135 C132 1.314 . S
N135 C133 1.279 . S
C136 C133 1.358 . S
C136 C137 1.356 . S
C136 H173 0.930 . S
C137 C134 1.348 . S
C137 C136 1.356 . S
H138 C132 0.930 . S
H139 C133 0.930 . S
C140 N141 1.314 . S
C140 C142 1.353 . S
C140 H146 0.930 . S
N141 Li91 1.990 . S
N141 C140 1.314 . S
N141 C144 1.279 . S
C142 C140 1.353 . S
C142 C145 1.348 . S
C142 H174 0.929 . S
C143 C144 1.358 . S
C143 C145 1.356 . S
C143 H175 0.930 . S
C144 N141 1.279 . S
C144 C143 1.358 . S
C144 H147 0.930 . S
C145 C142 1.348 . S
C145 C143 1.356 . S
H146 C140 0.930 . S
H147 C144 0.930 . S
O148 Li88 1.956 . S
O148 Li89 1.970 . S
O148 Li90 1.961 . S
O148 C92 1.325 . S
O149 Li88 1.970 . S
O149 Li89 1.956 . S
O149 Li91 1.961 . S
O149 C98 1.325 . S
O150 Li88 1.961 . S
O150 Li90 1.956 . S
O150 Li91 1.970 . S
O150 C120 1.325 . S
O151 Li89 1.961 . S
O151 Li90 1.970 . S
O151 Li91 1.956 . S
O151 C126 1.325 . S
H152 C94 0.929 . S
H153 C95 0.930 . S
H154 C96 0.930 . S
H155 C97 0.930 . S
H156 C99 0.930 . S
H157 C101 0.929 . S
H158 C102 0.930 . S
H159 C103 0.930 . S
H160 C106 0.930 . S
H161 C109 0.929 . S
H162 C114 0.929 . S
H163 C115 0.930 . S
H164 C122 0.929 . S
H165 C123 0.930 . S
H166 C124 0.930 . S
H167 C125 0.930 . S
H168 C127 0.929 . S
H169 C128 0.930 . S
H170 C129 0.930 . S
H171 C130 0.930 . S
H172 C134 0.929 . S
H173 C136 0.930 . S
H174 C142 0.929 . S
H175 C143 0.930 . S
Li176 N193 1.990 . S
Li176 O236 1.956 . S
Li176 O237 1.970 . S
Li176 O238 1.961 . S
Li177 N201 1.990 . S
Li177 O236 1.970 . S
Li177 O237 1.956 . S
Li177 O239 1.961 . S
Li178 N223 1.990 . S
Li178 O236 1.961 . S
Li178 O238 1.956 . S
Li178 O239 1.970 . S
Li179 N229 1.990 . S
Li179 O237 1.961 . S
Li179 O238 1.970 . S
Li179 O239 1.956 . S
C180 C182 1.348 . S
C180 C183 1.356 . S
C180 O236 1.325 . S
N181 C184 1.314 . S
N181 C185 1.279 1_554 S
C182 C180 1.348 . S
C182 C184 1.353 1_556 S
C182 H240 0.929 . S
C183 C180 1.356 . S
C183 C185 1.358 . S
C183 H241 0.930 . S
C184 N181 1.314 . S
C184 C182 1.353 1_554 S
C184 H242 0.930 . S
C185 N181 1.279 1_556 S
C185 C183 1.358 . S
C185 H243 0.930 . S
C186 C189 1.348 . S
C186 C190 1.356 . S
C186 O237 1.325 . S
C187 N188 1.279 . S
C187 C190 1.358 . S
C187 H244 0.930 . S
N188 C187 1.279 . S
N188 C191 1.314 . S
C189 C186 1.348 . S
C189 C191 1.353 . S
C189 H245 0.929 . S
C190 C186 1.356 . S
C190 C187 1.358 . S
C190 H246 0.930 . S
C191 N188 1.314 . S
C191 C189 1.353 . S
C191 H247 0.930 . S
C192 N193 1.314 . S
C192 C197 1.353 . S
C192 H198 0.930 . S
N193 Li176 1.990 . S
N193 C192 1.314 . S
N193 C195 1.279 . S
C194 C195 1.358 . S
C194 C196 1.356 . S
C194 H248 0.930 . S
C195 N193 1.279 . S
C195 C194 1.358 . S
C195 H199 0.930 . S
C196 C194 1.356 . S
C196 C197 1.348 . S
C197 C192 1.353 . S
C197 C196 1.348 . S
C197 H249 0.929 . S
H198 C192 0.930 . S
H199 C195 0.930 . S
C200 N201 1.314 1_554 S
C200 C202 1.353 . S
C200 H206 0.930 . S
N201 Li177 1.990 . S
N201 C200 1.314 1_556 S
N201 C204 1.279 . S
C202 C200 1.353 . S
C202 C205 1.348 . S
C202 H250 0.929 . S
C203 C204 1.358 1_554 S
C203 C205 1.356 . S
C203 H251 0.933 . S
C204 N201 1.279 . S
C204 C203 1.358 1_556 S
C204 H207 0.930 . S
C205 C202 1.348 . S
C205 C203 1.356 . S
H206 C200 0.930 . S
H207 C204 0.930 . S
C208 C210 1.348 . S
C208 C211 1.356 . S
C208 O238 1.325 . S
N209 C212 1.314 . S
N209 C213 1.279 . S
C210 C208 1.348 . S
C210 C212 1.353 . S
C210 H252 0.929 . S
C211 C208 1.356 . S
C211 C213 1.358 . S
C211 H253 0.930 . S
C212 N209 1.314 . S
C212 C210 1.353 . S
C212 H254 0.930 . S
C213 N209 1.279 . S
C213 C211 1.358 . S
C213 H255 0.930 . S
C214 C215 1.348 . S
C214 C216 1.356 . S
C214 O239 1.325 . S
C215 C214 1.348 . S
C215 C217 1.353 . S
C215 H256 0.929 . S
C216 C214 1.356 . S
C216 C218 1.358 . S
C216 H257 0.930 . S
C217 C215 1.353 . S
C217 N219 1.314 . S
C217 H258 0.930 . S
C218 C216 1.358 . S
C218 N219 1.279 . S
C218 H259 0.930 . S
N219 C217 1.314 . S
N219 C218 1.279 . S
C220 C222 1.353 . S
C220 N223 1.314 . S
C220 H226 0.930 . S
C221 N223 1.279 . S
C221 C224 1.358 . S
C221 H227 0.930 . S
C222 C220 1.353 . S
C222 C225 1.348 . S
C222 H260 0.929 1_556 S
N223 Li178 1.990 . S
N223 C220 1.314 . S
N223 C221 1.279 . S
C224 C221 1.358 . S
C224 C225 1.356 . S
C224 H261 0.930 . S
C225 C222 1.348 . S
C225 C224 1.356 . S
H226 C220 0.930 . S
H227 C221 0.930 . S
C228 N229 1.314 . S
C228 C230 1.353 . S
C228 H234 0.930 . S
N229 Li179 1.990 . S
N229 C228 1.314 . S
N229 C232 1.279 . S
C230 C228 1.353 . S
C230 C233 1.348 . S
C230 H262 0.929 . S
C231 C232 1.358 . S
C231 C233 1.356 . S
C231 H263 0.930 . S
C232 N229 1.279 . S
C232 C231 1.358 . S
C232 H235 0.930 . S
C233 C230 1.348 . S
C233 C231 1.356 . S
H234 C228 0.930 . S
H235 C232 0.930 . S
O236 Li176 1.956 . S
O236 Li177 1.970 . S
O236 Li178 1.961 . S
O236 C180 1.325 . S
O237 Li176 1.970 . S
O237 Li177 1.956 . S
O237 Li179 1.961 . S
O237 C186 1.325 . S
O238 Li176 1.961 . S
O238 Li178 1.956 . S
O238 Li179 1.970 . S
O238 C208 1.325 . S
O239 Li177 1.961 . S
O239 Li178 1.970 . S
O239 Li179 1.956 . S
O239 C214 1.325 . S
H240 C182 0.929 . S
H241 C183 0.930 . S
H242 C184 0.930 . S
H243 C185 0.930 . S
H244 C187 0.930 . S
H245 C189 0.929 . S
H246 C190 0.930 . S
H247 C191 0.930 . S
H248 C194 0.930 . S
H249 C197 0.929 . S
H250 C202 0.929 . S
H251 C203 0.933 . S
H252 C210 0.929 . S
H253 C211 0.930 . S
H254 C212 0.930 . S
H255 C213 0.930 . S
H256 C215 0.929 . S
H257 C216 0.930 . S
H258 C217 0.930 . S
H259 C218 0.930 . S
H260 C222 0.929 1_554 S
H261 C224 0.930 . S
H262 C230 0.929 . S
H263 C231 0.930 . S
Li264 N281 1.990 . S
Li264 O324 1.956 . S
Li264 O325 1.970 . S
Li264 O326 1.961 . S
Li265 N289 1.990 . S
Li265 O324 1.970 . S
Li265 O325 1.956 . S
Li265 O327 1.961 . S
Li266 N311 1.990 . S
Li266 O324 1.961 . S
Li266 O326 1.956 . S
Li266 O327 1.970 . S
Li267 N317 1.990 . S
Li267 O325 1.961 . S
Li267 O326 1.970 . S
Li267 O327 1.956 . S
C268 C270 1.348 . S
C268 C271 1.356 . S
C268 O324 1.325 . S
N269 C272 1.314 . S
N269 C273 1.279 . S
C270 C268 1.348 . S
C270 C272 1.353 . S
C270 H328 0.929 . S
C271 C268 1.356 . S
C271 C273 1.358 . S
C271 H329 0.930 . S
C272 N269 1.314 . S
C272 C270 1.353 . S
C272 H330 0.930 . S
C273 N269 1.279 . S
C273 C271 1.358 . S
C273 H331 0.930 . S
C274 C277 1.348 . S
C274 C278 1.356 . S
C274 O325 1.325 . S
C275 N276 1.279 . S
C275 C278 1.358 . S
C275 H332 0.930 . S
N276 C275 1.279 . S
N276 C279 1.314 . S
C277 C274 1.348 . S
C277 C279 1.353 . S
C277 H333 0.929 . S
C278 C274 1.356 . S
C278 C275 1.358 . S
C278 H334 0.930 . S
C279 N276 1.314 . S
C279 C277 1.353 . S
C279 H335 0.930 . S
C280 N281 1.314 . S
C280 C285 1.353 . S
C280 H286 0.930 . S
N281 Li264 1.990 . S
N281 C280 1.314 . S
N281 C283 1.279 . S
C282 C283 1.358 . S
C282 C284 1.356 . S
C282 H336 0.930 . S
C283 N281 1.279 . S
C283 C282 1.358 . S
C283 H287 0.930 . S
C284 C282 1.356 . S
C284 C285 1.348 . S
C285 C280 1.353 . S
C285 C284 1.348 . S
C285 H337 0.929 1_554 S
H286 C280 0.930 . S
H287 C283 0.930 . S
C288 N289 1.314 . S
C288 C290 1.353 . S
C288 H294 0.930 . S
N289 Li265 1.990 . S
N289 C288 1.314 . S
N289 C292 1.279 . S
C290 C288 1.353 . S
C290 C293 1.348 . S
C290 H338 0.929 . S
C291 C292 1.358 . S
C291 C293 1.356 . S
C291 H339 0.930 . S
C292 N289 1.279 . S
C292 C291 1.358 . S
C292 H295 0.930 . S
C293 C290 1.348 . S
C293 C291 1.356 . S
H294 C288 0.930 . S
H295 C292 0.930 . S
C296 C298 1.348 . S
C296 C299 1.356 . S
C296 O326 1.325 . S
N297 C300 1.314 . S
N297 C301 1.279 1_556 S
C298 C296 1.348 . S
C298 C300 1.353 1_554 S
C298 H340 0.929 . S
C299 C296 1.356 . S
C299 C301 1.358 . S
C299 H341 0.930 . S
C300 N297 1.314 . S
C300 C298 1.353 1_556 S
C300 H342 0.930 . S
C301 N297 1.279 1_554 S
C301 C299 1.358 . S
C301 H343 0.930 . S
C302 C303 1.348 . S
C302 C304 1.356 . S
C302 O327 1.325 . S
C303 C302 1.348 . S
C303 C305 1.353 . S
C303 H344 0.929 . S
C304 C302 1.356 . S
C304 C306 1.358 . S
C304 H345 0.930 . S
C305 C303 1.353 . S
C305 N307 1.314 . S
C305 H346 0.930 . S
C306 C304 1.358 . S
C306 N307 1.279 . S
C306 H347 0.930 . S
N307 C305 1.314 . S
N307 C306 1.279 . S
C308 C310 1.353 . S
C308 N311 1.314 . S
C308 H314 0.930 . S
C309 N311 1.279 . S
C309 C312 1.358 . S
C309 H315 0.930 . S
C310 C308 1.353 . S
C310 C313 1.348 . S
C310 H348 0.929 . S
N311 Li266 1.990 . S
N311 C308 1.314 . S
N311 C309 1.279 . S
C312 C309 1.358 . S
C312 C313 1.356 . S
C312 H349 0.930 . S
C313 C310 1.348 . S
C313 C312 1.356 . S
H314 C308 0.930 . S
H315 C309 0.930 . S
C316 N317 1.314 1_556 S
C316 C318 1.353 . S
C316 H322 0.930 . S
N317 Li267 1.990 . S
N317 C316 1.314 1_554 S
N317 C320 1.279 . S
C318 C316 1.353 . S
C318 C321 1.348 . S
C318 H350 0.929 . S
C319 C320 1.358 1_556 S
C319 C321 1.356 . S
C319 H351 0.933 . S
C320 N317 1.279 . S
C320 C319 1.358 1_554 S
C320 H323 0.930 . S
C321 C318 1.348 . S
C321 C319 1.356 . S
H322 C316 0.930 . S
H323 C320 0.930 . S
O324 Li264 1.956 . S
O324 Li265 1.970 . S
O324 Li266 1.961 . S
O324 C268 1.325 . S
O325 Li264 1.970 . S
O325 Li265 1.956 . S
O325 Li267 1.961 . S
O325 C274 1.325 . S
O326 Li264 1.961 . S
O326 Li266 1.956 . S
O326 Li267 1.970 . S
O326 C296 1.325 . S
O327 Li265 1.961 . S
O327 Li266 1.970 . S
O327 Li267 1.956 . S
O327 C302 1.325 . S
H328 C270 0.929 . S
H329 C271 0.930 . S
H330 C272 0.930 . S
H331 C273 0.930 . S
H332 C275 0.930 . S
H333 C277 0.929 . S
H334 C278 0.930 . S
H335 C279 0.930 . S
H336 C282 0.930 . S
H337 C285 0.929 1_556 S
H338 C290 0.929 . S
H339 C291 0.930 . S
H340 C298 0.929 . S
H341 C299 0.930 . S
H342 C300 0.930 . S
H343 C301 0.930 . S
H344 C303 0.929 . S
H345 C304 0.930 . S
H346 C305 0.930 . S
H347 C306 0.930 . S
H348 C310 0.929 . S
H349 C312 0.930 . S
H350 C318 0.929 . S
H351 C319 0.933 . S
Li352 N369 1.990 . S
Li352 O412 1.956 . S
Li352 O413 1.970 . S
Li352 O414 1.961 . S
Li353 N377 1.990 . S
Li353 O412 1.970 . S
Li353 O413 1.956 . S
Li353 O415 1.961 . S
Li354 N399 1.990 . S
Li354 O412 1.961 . S
Li354 O414 1.956 . S
Li354 O415 1.970 . S
Li355 N405 1.990 . S
Li355 O413 1.961 . S
Li355 O414 1.970 . S
Li355 O415 1.956 . S
C356 C358 1.348 . S
C356 C359 1.356 . S
C356 O412 1.325 . S
N357 C360 1.314 . S
N357 C361 1.279 . S
C358 C356 1.348 . S
C358 C360 1.353 . S
C358 H416 0.929 . S
C359 C356 1.356 . S
C359 C361 1.358 . S
C359 H417 0.930 . S
C360 N357 1.314 . S
C360 C358 1.353 . S
C360 H418 0.930 . S
C361 N357 1.279 . S
C361 C359 1.358 . S
C361 H419 0.930 . S
C362 C365 1.348 . S
C362 C366 1.356 . S
C362 O413 1.325 . S
C363 N364 1.279 . S
C363 C366 1.358 . S
C363 H420 0.930 . S
N364 C363 1.279 . S
N364 C367 1.314 . S
C365 C362 1.348 . S
C365 C367 1.353 . S
C365 H421 0.929 . S
C366 C362 1.356 . S
C366 C363 1.358 . S
C366 H422 0.930 . S
C367 N364 1.314 . S
C367 C365 1.353 . S
C367 H423 0.930 . S
C368 N369 1.314 . S
C368 C373 1.353 . S
C368 H374 0.930 . S
N369 Li352 1.990 . S
N369 C368 1.314 . S
N369 C371 1.279 . S
C370 C371 1.358 . S
C370 C372 1.356 . S
C370 H424 0.930 . S
C371 N369 1.279 . S
C371 C370 1.358 . S
C371 H375 0.930 . S
C372 C370 1.356 . S
C372 C373 1.348 . S
C373 C368 1.353 . S
C373 C372 1.348 . S
C373 H425 0.929 . S
H374 C368 0.930 . S
H375 C371 0.930 . S
C376 N377 1.314 . S
C376 C378 1.353 . S
C376 H382 0.930 . S
N377 Li353 1.990 . S
N377 C376 1.314 . S
N377 C380 1.279 . S
C378 C376 1.353 . S
C378 C381 1.348 . S
C378 H426 0.929 . S
C379 C380 1.358 . S
C379 C381 1.356 . S
C379 H427 0.930 . S
C380 N377 1.279 . S
C380 C379 1.358 . S
C380 H383 0.930 . S
C381 C378 1.348 . S
C381 C379 1.356 . S
H382 C376 0.930 . S
H383 C380 0.930 . S
C384 C386 1.348 . S
C384 C387 1.356 . S
C384 O414 1.325 . S
N385 C388 1.314 . S
N385 C389 1.279 . S
C386 C384 1.348 . S
C386 C388 1.353 . S
C386 H428 0.929 . S
C387 C384 1.356 . S
C387 C389 1.358 . S
C387 H429 0.930 . S
C388 N385 1.314 . S
C388 C386 1.353 . S
C388 H430 0.930 . S
C389 N385 1.279 . S
C389 C387 1.358 . S
C389 H431 0.930 . S
C390 C391 1.348 . S
C390 C392 1.356 . S
C390 O415 1.325 . S
C391 C390 1.348 . S
C391 C393 1.353 . S
C391 H432 0.929 . S
C392 C390 1.356 . S
C392 C394 1.358 . S
C392 H433 0.930 . S
C393 C391 1.353 . S
C393 N395 1.314 . S
C393 H434 0.930 . S
C394 C392 1.358 . S
C394 N395 1.279 . S
C394 H435 0.930 . S
N395 C393 1.314 . S
N395 C394 1.279 . S
C396 C398 1.353 . S
C396 N399 1.314 . S
C396 H402 0.930 . S
C397 N399 1.279 . S
C397 C400 1.358 . S
C397 H403 0.930 . S
C398 C396 1.353 . S
C398 C401 1.348 . S
C398 H436 0.929 . S
N399 Li354 1.990 . S
N399 C396 1.314 . S
N399 C397 1.279 . S
C400 C397 1.358 . S
C400 C401 1.356 . S
C400 H437 0.930 . S
C401 C398 1.348 . S
C401 C400 1.356 . S
H402 C396 0.930 . S
H403 C397 0.930 . S
C404 N405 1.314 . S
C404 C406 1.353 . S
C404 H410 0.930 . S
N405 Li355 1.990 . S
N405 C404 1.314 . S
N405 C408 1.279 . S
C406 C404 1.353 . S
C406 C409 1.348 . S
C406 H438 0.929 . S
C407 C408 1.358 . S
C407 C409 1.356 . S
C407 H439 0.930 . S
C408 N405 1.279 . S
C408 C407 1.358 . S
C408 H411 0.930 . S
C409 C406 1.348 . S
C409 C407 1.356 . S
H410 C404 0.930 . S
H411 C408 0.930 . S
O412 Li352 1.956 . S
O412 Li353 1.970 . S
O412 Li354 1.961 . S
O412 C356 1.325 . S
O413 Li352 1.970 . S
O413 Li353 1.956 . S
O413 Li355 1.961 . S
O413 C362 1.325 . S
O414 Li352 1.961 . S
O414 Li354 1.956 . S
O414 Li355 1.970 . S
O414 C384 1.325 . S
O415 Li353 1.961 . S
O415 Li354 1.970 . S
O415 Li355 1.956 . S
O415 C390 1.325 . S
H416 C358 0.929 . S
H417 C359 0.930 . S
H418 C360 0.930 . S
H419 C361 0.930 . S
H420 C363 0.930 . S
H421 C365 0.929 . S
H422 C366 0.930 . S
H423 C367 0.930 . S
H424 C370 0.930 . S
H425 C373 0.929 . S
H426 C378 0.929 . S
H427 C379 0.930 . S
H428 C386 0.929 . S
H429 C387 0.930 . S
H430 C388 0.930 . S
H431 C389 0.930 . S
H432 C391 0.929 . S
H433 C392 0.930 . S
H434 C393 0.930 . S
H435 C394 0.930 . S
H436 C398 0.929 . S
H437 C400 0.930 . S
H438 C406 0.929 . S
H439 C407 0.930 . S
Li440 N457 1.990 . S
Li440 O500 1.956 . S
Li440 O501 1.970 . S
Li440 O502 1.961 . S
Li441 N465 1.990 . S
Li441 O500 1.970 . S
Li441 O501 1.956 . S
Li441 O503 1.961 . S
Li442 N487 1.990 . S
Li442 O500 1.961 . S
Li442 O502 1.956 . S
Li442 O503 1.970 . S
Li443 N493 1.990 . S
Li443 O501 1.961 . S
Li443 O502 1.970 . S
Li443 O503 1.956 . S
C444 C446 1.348 . S
C444 C447 1.356 . S
C444 O500 1.325 . S
N445 C448 1.314 . S
N445 C449 1.279 . S
C446 C444 1.348 . S
C446 C448 1.353 . S
C446 H504 0.929 . S
C447 C444 1.356 . S
C447 C449 1.358 . S
C447 H505 0.930 . S
C448 N445 1.314 . S
C448 C446 1.353 . S
C448 H506 0.930 . S
C449 N445 1.279 . S
C449 C447 1.358 . S
C449 H507 0.930 . S
C450 C453 1.348 . S
C450 C454 1.356 . S
C450 O501 1.325 . S
C451 N452 1.279 . S
C451 C454 1.358 . S
C451 H508 0.930 . S
N452 C451 1.279 . S
N452 C455 1.314 . S
C453 C450 1.348 . S
C453 C455 1.353 . S
C453 H509 0.929 . S
C454 C450 1.356 . S
C454 C451 1.358 . S
C454 H510 0.930 . S
C455 N452 1.314 . S
C455 C453 1.353 . S
C455 H511 0.930 . S
C456 N457 1.314 . S
C456 C461 1.353 . S
C456 H462 0.930 . S
N457 Li440 1.990 . S
N457 C456 1.314 . S
N457 C459 1.279 . S
C458 C459 1.358 . S
C458 C460 1.356 . S
C458 H512 0.930 . S
C459 N457 1.279 . S
C459 C458 1.358 . S
C459 H463 0.930 . S
C460 C458 1.356 . S
C460 C461 1.348 . S
C461 C456 1.353 . S
C461 C460 1.348 . S
C461 H513 0.929 . S
H462 C456 0.930 . S
H463 C459 0.930 . S
C464 N465 1.314 . S
C464 C466 1.353 . S
C464 H470 0.930 . S
N465 Li441 1.990 . S
N465 C464 1.314 . S
N465 C468 1.279 . S
C466 C464 1.353 . S
C466 C469 1.348 . S
C466 H514 0.929 . S
C467 C468 1.358 . S
C467 C469 1.356 . S
C467 H515 0.930 . S
C468 N465 1.279 . S
C468 C467 1.358 . S
C468 H471 0.930 . S
C469 C466 1.348 . S
C469 C467 1.356 . S
H470 C464 0.930 . S
H471 C468 0.930 . S
C472 C474 1.348 . S
C472 C475 1.356 . S
C472 O502 1.325 . S
N473 C476 1.314 . S
N473 C477 1.279 . S
C474 C472 1.348 . S
C474 C476 1.353 . S
C474 H516 0.929 . S
C475 C472 1.356 . S
C475 C477 1.358 . S
C475 H517 0.930 . S
C476 N473 1.314 . S
C476 C474 1.353 . S
C476 H518 0.930 . S
C477 N473 1.279 . S
C477 C475 1.358 . S
C477 H519 0.930 . S
C478 C479 1.348 . S
C478 C480 1.356 . S
C478 O503 1.325 . S
C479 C478 1.348 . S
C479 C481 1.353 . S
C479 H520 0.929 . S
C480 C478 1.356 . S
C480 C482 1.358 . S
C480 H521 0.930 . S
C481 C479 1.353 . S
C481 N483 1.314 . S
C481 H522 0.930 . S
C482 C480 1.358 . S
C482 N483 1.279 . S
C482 H523 0.930 . S
N483 C481 1.314 . S
N483 C482 1.279 . S
C484 C486 1.353 . S
C484 N487 1.314 . S
C484 H490 0.930 . S
C485 N487 1.279 . S
C485 C488 1.358 . S
C485 H491 0.930 . S
C486 C484 1.353 . S
C486 C489 1.348 . S
C486 H524 0.929 . S
N487 Li442 1.990 . S
N487 C484 1.314 . S
N487 C485 1.279 . S
C488 C485 1.358 . S
C488 C489 1.356 . S
C488 H525 0.930 . S
C489 C486 1.348 . S
C489 C488 1.356 . S
H490 C484 0.930 . S
H491 C485 0.930 . S
C492 N493 1.314 . S
C492 C494 1.353 . S
C492 H498 0.930 . S
N493 Li443 1.990 . S
N493 C492 1.314 . S
N493 C496 1.279 . S
C494 C492 1.353 . S
C494 C497 1.348 . S
C494 H526 0.929 . S
C495 C496 1.358 . S
C495 C497 1.356 . S
C495 H527 0.930 . S
C496 N493 1.279 . S
C496 C495 1.358 . S
C496 H499 0.930 . S
C497 C494 1.348 . S
C497 C495 1.356 . S
H498 C492 0.930 . S
H499 C496 0.930 . S
O500 Li440 1.956 . S
O500 Li441 1.970 . S
O500 Li442 1.961 . S
O500 C444 1.325 . S
O501 Li440 1.970 . S
O501 Li441 1.956 . S
O501 Li443 1.961 . S
O501 C450 1.325 . S
O502 Li440 1.961 . S
O502 Li442 1.956 . S
O502 Li443 1.970 . S
O502 C472 1.325 . S
O503 Li441 1.961 . S
O503 Li442 1.970 . S
O503 Li443 1.956 . S
O503 C478 1.325 . S
H504 C446 0.929 . S
H505 C447 0.930 . S
H506 C448 0.930 . S
H507 C449 0.930 . S
H508 C451 0.930 . S
H509 C453 0.929 . S
H510 C454 0.930 . S
H511 C455 0.930 . S
H512 C458 0.930 . S
H513 C461 0.929 . S
H514 C466 0.929 . S
H515 C467 0.930 . S
H516 C474 0.929 . S
H517 C475 0.930 . S
H518 C476 0.930 . S
H519 C477 0.930 . S
H520 C479 0.929 . S
H521 C480 0.930 . S
H522 C481 0.930 . S
H523 C482 0.930 . S
H524 C486 0.929 . S
H525 C488 0.930 . S
H526 C494 0.929 . S
H527 C495 0.930 . S
C528 C529 1.369 . S
C528 C530 1.419 1_545 S
C528 H532 0.930 . S
C529 C528 1.369 . S
C529 C538 1.429 . S
C530 C528 1.419 1_565 S
C530 C531 1.363 . S
C530 H533 0.929 . S
C531 C530 1.363 . S
C531 C537 1.428 . S
H532 C528 0.930 . S
H533 C530 0.929 . S
S534 N535 1.613 1_565 S
S534 N536 1.610 . S
N535 S534 1.613 1_545 S
N535 C538 1.350 . S
N536 S534 1.610 . S
N536 C537 1.351 . S
C537 C531 1.428 . S
C537 N536 1.351 . S
C537 C538 1.434 1_565 S
C538 C529 1.429 . S
C538 N535 1.350 . S
C538 C537 1.434 1_545 S
C539 C540 1.369 . S
C539 C541 1.419 . S
C539 H543 0.930 . S
C540 C539 1.369 . S
C540 C549 1.429 . S
C541 C539 1.419 . S
C541 C542 1.363 . S
C541 H544 0.929 . S
C542 C541 1.363 . S
C542 C548 1.428 . S
H543 C539 0.930 . S
H544 C541 0.929 . S
S545 N546 1.613 . S
S545 N547 1.610 . S
N546 S545 1.613 . S
N546 C549 1.350 . S
N547 S545 1.610 . S
N547 C548 1.351 . S
C548 C542 1.428 . S
C548 N547 1.351 . S
C548 C549 1.434 . S
C549 C540 1.429 . S
C549 N546 1.350 . S
C549 C548 1.434 . S
C550 C551 1.369 . S
C550 C552 1.419 1_655 S
C550 H554 0.930 . S
C551 C550 1.369 . S
C551 C560 1.429 . S
C552 C550 1.419 1_455 S
C552 C553 1.363 . S
C552 H555 0.929 . S
C553 C552 1.363 . S
C553 C559 1.428 . S
H554 C550 0.930 . S
H555 C552 0.929 . S
S556 N557 1.631 . S
S556 N558 1.605 1_655 S
N557 S556 1.631 . S
N557 C560 1.350 . S
N558 S556 1.605 1_455 S
N558 C559 1.351 . S
C559 C553 1.428 . S
C559 N558 1.351 . S
C559 C560 1.434 1_455 S
C560 C551 1.429 . S
C560 N557 1.350 . S
C560 C559 1.434 1_655 S
C561 C562 1.369 . S
C561 C563 1.415 1_564 S
C561 H565 0.930 . S
C562 C561 1.369 . S
C562 C571 1.429 1_554 S
C563 C561 1.415 1_546 S
C563 C564 1.367 . S
C563 H566 0.929 1_556 S
C564 C563 1.367 . S
C564 C570 1.428 . S
H565 C561 0.930 . S
H566 C563 0.929 1_554 S
S567 N568 1.613 . S
S567 N569 1.610 1_565 S
N568 S567 1.613 . S
N568 C571 1.350 . S
N569 S567 1.610 1_545 S
N569 C570 1.351 . S
C570 C564 1.428 . S
C570 N569 1.351 . S
C570 C571 1.434 1_545 S
C571 C562 1.429 1_556 S
C571 N568 1.350 . S
C571 C570 1.434 1_565 S
C572 C573 1.369 . S
C572 C574 1.419 . S
C572 H576 0.930 . S
C573 C572 1.369 . S
C573 C582 1.429 . S
C574 C572 1.419 . S
C574 C575 1.363 . S
C574 H577 0.929 . S
C575 C574 1.363 . S
C575 C581 1.428 . S
H576 C572 0.930 . S
H577 C574 0.929 . S
S578 N579 1.613 . S
S578 N580 1.610 . S
N579 S578 1.613 . S
N579 C582 1.350 . S
N580 S578 1.610 . S
N580 C581 1.351 . S
C581 C575 1.428 . S
C581 N580 1.351 . S
C581 C582 1.434 . S
C582 C573 1.429 . S
C582 N579 1.350 . S
C582 C581 1.434 . S
C583 C584 1.369 . S
C583 C585 1.419 1_455 S
C583 H587 0.930 . S
C584 C583 1.369 . S
C584 C593 1.429 . S
C585 C583 1.419 1_655 S
C585 C586 1.363 . S
C585 H588 0.929 . S
C586 C585 1.363 . S
C586 C592 1.428 . S
H587 C583 0.930 . S
H588 C585 0.929 . S
S589 N590 1.613 1_655 S
S589 N591 1.610 . S
N590 S589 1.613 1_455 S
N590 C593 1.350 . S
N591 S589 1.610 . S
N591 C592 1.351 . S
C592 C586 1.428 . S
C592 N591 1.351 . S
C592 C593 1.434 1_655 S
C593 C584 1.429 . S
C593 N590 1.350 . S
C593 C592 1.434 1_455 S
C594 C595 1.369 . S
C594 C596 1.419 . S
C594 H598 0.930 . S
C595 C594 1.369 . S
C595 C604 1.429 . S
C596 C594 1.419 . S
C596 C597 1.363 . S
C596 H599 0.929 . S
C597 C596 1.363 . S
C597 C603 1.428 . S
H598 C594 0.930 . S
H599 C596 0.929 . S
S600 N601 1.613 . S
S600 N602 1.610 . S
N601 S600 1.613 . S
N601 C604 1.350 . S
N602 S600 1.610 . S
N602 C603 1.351 . S
C603 C597 1.428 . S
C603 N602 1.351 . S
C603 C604 1.434 . S
C604 C595 1.429 . S
C604 N601 1.350 . S
C604 C603 1.434 . S
C605 C606 1.369 . S
C605 C607 1.419 . S
C605 H609 0.930 . S
C606 C605 1.369 . S
C606 C615 1.429 . S
C607 C605 1.419 . S
C607 C608 1.363 . S
C607 H610 0.929 . S
C608 C607 1.363 . S
C608 C614 1.428 . S
H609 C605 0.930 . S
H610 C607 0.929 . S
S611 N612 1.613 . S
S611 N613 1.610 . S
N612 S611 1.613 . S
N612 C615 1.350 . S
N613 S611 1.610 . S
N613 C614 1.351 . S
C614 C608 1.428 . S
C614 N613 1.351 . S
C614 C615 1.434 . S
C615 C606 1.429 . S
C615 N612 1.350 . S
C615 C614 1.434 . S
C616 C617 1.369 . S
C616 C618 1.419 . S
C616 H620 0.930 . S
C617 C616 1.369 . S
C617 C626 1.429 . S
C618 C616 1.419 . S
C618 C619 1.363 . S
C618 H621 0.929 . S
C619 C618 1.363 . S
C619 C625 1.428 . S
H620 C616 0.930 . S
H621 C618 0.929 . S
S622 N623 1.613 . S
S622 N624 1.610 . S
N623 S622 1.613 . S
N623 C626 1.350 . S
N624 S622 1.610 . S
N624 C625 1.351 . S
C625 C619 1.428 . S
C625 N624 1.351 . S
C625 C626 1.434 . S
C626 C617 1.429 . S
C626 N623 1.350 . S
C626 C625 1.434 . S
C627 C628 1.369 . S
C627 C629 1.419 . S
C627 H631 0.930 . S
C628 C627 1.369 . S
C628 C637 1.429 . S
C629 C627 1.419 . S
C629 C630 1.363 . S
C629 H632 0.929 . S
C630 C629 1.363 . S
C630 C636 1.428 . S
H631 C627 0.930 . S
H632 C629 0.929 . S
S633 N634 1.613 . S
S633 N635 1.610 . S
N634 S633 1.613 . S
N634 C637 1.350 . S
N635 S633 1.610 . S
N635 C636 1.351 . S
C636 C630 1.428 . S
C636 N635 1.351 . S
C636 C637 1.434 . S
C637 C628 1.429 . S
C637 N634 1.350 . S
C637 C636 1.434 . S
C638 C639 1.369 . S
C638 C640 1.419 . S
C638 H642 0.930 . S
C639 C638 1.369 . S
C639 C648 1.429 . S
C640 C638 1.419 . S
C640 C641 1.363 . S
C640 H643 0.929 . S
C641 C640 1.363 . S
C641 C647 1.428 . S
H642 C638 0.930 . S
H643 C640 0.929 . S
S644 N645 1.613 . S
S644 N646 1.610 . S
N645 S644 1.613 . S
N645 C648 1.350 . S
N646 S644 1.610 . S
N646 C647 1.351 . S
C647 C641 1.428 . S
C647 N646 1.351 . S
C647 C648 1.434 . S
C648 C639 1.429 . S
C648 N645 1.350 . S
C648 C647 1.434 . S
C649 C650 1.369 . S
C649 C651 1.419 . S
C649 H653 0.930 . S
C650 C649 1.369 . S
C650 C659 1.429 . S
C651 C649 1.419 . S
C651 C652 1.363 . S
C651 H654 0.929 . S
C652 C651 1.363 . S
C652 C658 1.428 . S
H653 C649 0.930 . S
H654 C651 0.929 . S
S655 N656 1.613 . S
S655 N657 1.610 . S
N656 S655 1.613 . S
N656 C659 1.350 . S
N657 S655 1.610 . S
N657 C658 1.351 . S
C658 C652 1.428 . S
C658 N657 1.351 . S
C658 C659 1.434 . S
C659 C650 1.429 . S
C659 N656 1.350 . S
C659 C658 1.434 . S
C529 C20 1.392 . S
C531 C489 1.391 . S
C540 C49 1.393 . S
C542 C117 1.392 . S
C551 C196 1.393 . S
C553 C145 1.392 . S
C562 C284 1.390 . S
C564 C225 1.391 . S
C573 C372 1.392 . S
C575 C313 1.392 . S
C584 C460 1.393 . S
C586 C401 1.391 . S
C595 C57 1.576 . S
C597 C381 1.577 . S
C606 C469 1.577 . S
C608 C137 1.576 . S
C617 C233 1.577 . S
C619 C29 1.576 . S
C628 C108 1.576 . S
C630 C321 1.577 . S
C639 C205 1.577 . S
C641 C409 1.575 . S
C650 C497 1.577 . S
C652 C293 1.576 . S
