# Generated by pormake.
# Topology uov, (4)-cn, num edge types: 1
# Building blocks:
#     Node 0, Type 0, BuildingBlock: KUFVIS_clean_sbu_0, # of connection points: 4
#     Node 1, Type 0, BuildingBlock: KUFVIS_clean_sbu_0, # of connection points: 4
#     Node 2, Type 0, BuildingBlock: KUFVIS_clean_sbu_0, # of connection points: 4
#     Node 3, Type 0, BuildingBlock: KUFVIS_clean_sbu_0, # of connection points: 4
#     Node 4, Type 0, BuildingBlock: KUFVIS_clean_sbu_0, # of connection points: 4
#     Node 5, Type 0, BuildingBlock: KUFVIS_clean_sbu_0, # of connection points: 4
#     Node 6, Type 0, BuildingBlock: KUFVIS_clean_sbu_0, # of connection points: 4
#     Node 7, Type 0, BuildingBlock: KUFVIS_clean_sbu_0, # of connection points: 4
#     Edge 8, Type (0, 0), BuildingBlock: UVAHIK_clean_linker_0, # of connection points: 2
#     Edge 9, Type (0, 0), BuildingBlock: UVAHIK_clean_linker_0, # of connection points: 2
#     Edge 10, Type (0, 0), BuildingBlock: UVAHIK_clean_linker_0, # of connection points: 2
#     Edge 11, Type (0, 0), BuildingBlock: UVAHIK_clean_linker_0, # of connection points: 2
#     Edge 12, Type (0, 0), BuildingBlock: UVAHIK_clean_linker_0, # of connection points: 2
#     Edge 13, Type (0, 0), BuildingBlock: UVAHIK_clean_linker_0, # of connection points: 2
#     Edge 14, Type (0, 0), BuildingBlock: UVAHIK_clean_linker_0, # of connection points: 2
#     Edge 15, Type (0, 0), BuildingBlock: UVAHIK_clean_linker_0, # of connection points: 2
#     Edge 16, Type (0, 0), BuildingBlock: UVAHIK_clean_linker_0, # of connection points: 2
#     Edge 17, Type (0, 0), BuildingBlock: UVAHIK_clean_linker_0, # of connection points: 2
#     Edge 18, Type (0, 0), BuildingBlock: UVAHIK_clean_linker_0, # of connection points: 2
#     Edge 19, Type (0, 0), BuildingBlock: UVAHIK_clean_linker_0, # of connection points: 2
#     Edge 20, Type (0, 0), BuildingBlock: UVAHIK_clean_linker_0, # of connection points: 2
#     Edge 21, Type (0, 0), BuildingBlock: UVAHIK_clean_linker_0, # of connection points: 2
#     Edge 22, Type (0, 0), BuildingBlock: UVAHIK_clean_linker_0, # of connection points: 2
#     Edge 23, Type (0, 0), BuildingBlock: UVAHIK_clean_linker_0, # of connection points: 2
# Relax obj value: 0.168
# Max RMSD: 0.184
# Mean RMSD: 0.180
data_MOF--net-uov--node1-KUFVIS_clean_sbu_0--edge1-UVAHIK_clean_linker_0
_symmetry_space_group_name_H-M    P1
_symmetry_Int_Tables_number       1
_symmetry_cell_setting            triclinic
loop_
_symmetry_equiv_pos_as_xyz
'x, y, z'
_cell_length_a     37.696959
_cell_length_b     38.74895
_cell_length_c     55.01297
_cell_angle_alpha  90.01042
_cell_angle_beta   89.962742
_cell_angle_gamma 91.494897
loop_
_atom_site_label
_atom_site_type_symbol
_atom_site_fract_x
_atom_site_fract_y
_atom_site_fract_z
_atom_type_partial_charge
Mn0 Mn 0.05673 0.2584 0.59322 0.0
Mn1 Mn 0.99491 0.26087 0.63763 0.0
C2 C -0.00233 0.25764 0.58305 0.0
C3 C 0.09498 0.22543 0.57023 0.0
C4 C 0.036 0.32407 0.61962 0.0
O5 O 0.08463 0.24851 0.62378 0.0
O6 O 0.04067 0.24574 0.65148 0.0
C7 C 0.98907 0.18586 0.64751 0.0
N8 N 0.97355 0.21587 0.64111 0.0
C9 C 0.91659 0.18706 0.63673 0.0
C10 C 0.9319 0.15589 0.64347 0.0
C11 C 0.96831 0.15529 0.64884 0.0
C12 C 0.93857 0.21672 0.63581 0.0
H13 H 0.0171 0.18524 0.65148 0.0
C14 C 0.07321 0.24295 0.64525 0.0
O15 O 0.10097 0.25837 0.57311 0.0
O16 O 0.06711 0.21193 0.58066 0.0
N17 N 0.9491 0.27485 0.62707 0.0
C18 C 0.9385 0.30695 0.62065 0.0
C19 C 0.90284 0.31192 0.61449 0.0
C20 C 0.8784 0.28395 0.61524 0.0
C21 C 0.88976 0.25134 0.62246 0.0
C22 C 0.92554 0.24803 0.62864 0.0
H23 H 0.95714 0.32857 0.62002 0.0
O24 O 0.02166 0.2652 0.56687 0.0
O25 O 0.00905 0.24888 0.60446 0.0
O26 O 0.05323 0.30934 0.60268 0.0
O27 O 0.01502 0.30813 0.63433 0.0
C28 C 0.86707 0.2219 0.62348 0.0
C29 C 0.88049 0.18977 0.63055 0.0
H30 H 0.91602 0.13223 0.64441 0.0
H31 H 0.98037 0.1313 0.65392 0.0
H32 H 0.89426 0.33721 0.60906 0.0
H33 H 0.85101 0.2878 0.61023 0.0
H34 H 0.83931 0.22362 0.61866 0.0
H35 H 0.86286 0.16726 0.63105 0.0
Mn36 Mn 0.25329 0.92235 0.39414 0.0
Mn37 Mn 0.29422 0.84654 0.38708 0.0
C38 C 0.22858 0.87308 0.41071 0.0
C39 C 0.247 0.97363 0.41561 0.0
C40 C 0.24928 0.8787 0.34788 0.0
O41 O 0.30205 0.93683 0.38235 0.0
O42 O 0.32847 0.88549 0.38026 0.0
C43 C 0.344 0.85328 0.42851 0.0
N44 N 0.31726 0.83559 0.41694 0.0
C45 C 0.31458 0.79263 0.44852 0.0
C46 C 0.34227 0.81025 0.46068 0.0
C47 C 0.35701 0.84072 0.45064 0.0
C48 C 0.30286 0.80627 0.42646 0.0
H49 H 0.35523 0.87685 0.42095 0.0
C50 C 0.3289 0.91846 0.37822 0.0
O51 O 0.23744 0.9711 0.39297 0.0
O52 O 0.26103 0.94678 0.42539 0.0
N53 N 0.26459 0.80664 0.39329 0.0
C54 C 0.23775 0.79298 0.37944 0.0
C55 C 0.21986 0.76266 0.38712 0.0
C56 C 0.22995 0.74655 0.40882 0.0
C57 C 0.25812 0.76069 0.42251 0.0
C58 C 0.27518 0.79078 0.41383 0.0
H59 H 0.2298 0.80531 0.36278 0.0
O60 O 0.20957 0.90008 0.40733 0.0
O61 O 0.26212 0.87615 0.40517 0.0
O62 O 0.24026 0.9051 0.36009 0.0
O63 O 0.27003 0.85573 0.35595 0.0
C64 C 0.26967 0.74635 0.44457 0.0
C65 C 0.29785 0.76233 0.45758 0.0
H66 H 0.35225 0.80075 0.47781 0.0
H67 H 0.37826 0.85456 0.45997 0.0
H68 H 0.19823 0.75184 0.37641 0.0
H69 H 0.21586 0.72335 0.41481 0.0
H70 H 0.25689 0.72318 0.45179 0.0
H71 H 0.30632 0.75121 0.47462 0.0
Mn72 Mn 0.92227 0.74242 0.59001 0.0
Mn73 Mn 0.99475 0.74397 0.62601 0.0
C74 C 0.97778 0.74285 0.57275 0.0
C75 C 0.87827 0.77323 0.57068 0.0
C76 C 0.95019 0.67929 0.61607 0.0
O77 O 0.90284 0.75535 0.62302 0.0
O78 O 0.9533 0.76028 0.64484 0.0
C79 C 0.00262 0.81962 0.63241 0.0
N80 N 0.01635 0.78912 0.62516 0.0
C81 C 0.07096 0.8174 0.61268 0.0
C82 C 0.05752 0.84908 0.62021 0.0
C83 C 0.02319 0.85018 0.63008 0.0
C84 C 0.04933 0.78776 0.61561 0.0
H85 H 0.97614 0.82062 0.63983 0.0
C86 C 0.91964 0.76275 0.6425 0.0
O87 O 0.87341 0.74068 0.57577 0.0
O88 O 0.90837 0.78752 0.57687 0.0
N89 N 0.03693 0.72912 0.61015 0.0
C90 C 0.04548 0.6967 0.603 0.0
C91 C 0.07868 0.69127 0.59227 0.0
C92 C 0.10283 0.71915 0.58916 0.0
C93 C 0.09367 0.75217 0.59703 0.0
C94 C 0.06034 0.75595 0.60783 0.0
H95 H 0.02701 0.67518 0.60526 0.0
O96 O 0.9502 0.73324 0.56013 0.0
O97 O 0.97182 0.75324 0.59484 0.0
O98 O 0.92861 0.69249 0.60101 0.0
O99 O 0.97463 0.69651 0.62715 0.0
C100 C 0.11606 0.78157 0.5942 0.0
C101 C 0.1047 0.81417 0.60199 0.0
H102 H 0.07321 0.87274 0.6183 0.0
H103 H 0.01255 0.87456 0.63579 0.0
H104 H 0.08557 0.6657 0.58628 0.0
H105 H 0.12825 0.71494 0.58062 0.0
H106 H 0.14191 0.77947 0.5858 0.0
H107 H 0.12199 0.83665 0.59947 0.0
Mn108 Mn 0.73354 0.07745 0.4059 0.0
Mn109 Mn 0.6996 0.15647 0.39816 0.0
C110 C 0.75501 0.12288 0.42878 0.0
C111 C 0.73029 0.02317 0.42401 0.0
C112 C 0.7524 0.12505 0.36344 0.0
O113 O 0.68847 0.06783 0.38693 0.0
O114 O 0.66498 0.12066 0.38622 0.0
C115 C 0.64008 0.15073 0.43317 0.0
N116 N 0.67034 0.16722 0.42537 0.0
C117 C 0.66743 0.20869 0.45783 0.0
C118 C 0.63611 0.19229 0.46611 0.0
C119 C 0.62241 0.16315 0.45374 0.0
C120 C 0.68378 0.19524 0.43715 0.0
H121 H 0.62957 0.12821 0.4238 0.0
C122 C 0.66352 0.08816 0.38182 0.0
O123 O 0.74691 0.02819 0.40357 0.0
O124 O 0.71502 0.04953 0.43361 0.0
N125 N 0.73002 0.19361 0.40916 0.0
C126 C 0.76096 0.20592 0.3992 0.0
C127 C 0.77844 0.23469 0.4097 0.0
C128 C 0.7638 0.2507 0.43015 0.0
C129 C 0.73159 0.23798 0.43979 0.0
C130 C 0.71522 0.2094 0.42844 0.0
H131 H 0.77238 0.19373 0.38349 0.0
O132 O 0.7733 0.09519 0.42638 0.0
O133 O 0.72405 0.12277 0.41833 0.0
O134 O 0.75757 0.0976 0.37558 0.0
O135 O 0.73025 0.14787 0.36969 0.0
C136 C 0.71538 0.25221 0.46045 0.0
C137 C 0.68336 0.23754 0.46948 0.0
H138 H 0.62249 0.2017 0.48204 0.0
H139 H 0.59834 0.15025 0.4601 0.0
H140 H 0.80324 0.24441 0.40211 0.0
H141 H 0.77756 0.27265 0.43835 0.0
H142 H 0.72751 0.27421 0.46968 0.0
H143 H 0.67134 0.24849 0.48552 0.0
Mn144 Mn 0.97279 0.24636 0.10693 0.0
Mn145 Mn 0.04586 0.24434 0.14214 0.0
C146 C 0.02782 0.24584 0.089 0.0
C147 C 0.92689 0.21624 0.08758 0.0
C148 C 0.00419 0.3092 0.13327 0.0
O149 O 0.95332 0.23367 0.14006 0.0
O150 O 0.0038 0.22768 0.16138 0.0
C151 C 0.04991 0.16865 0.14824 0.0
N152 N 0.06508 0.19921 0.14095 0.0
C153 C 0.11796 0.17107 0.12788 0.0
C154 C 0.10303 0.13933 0.13546 0.0
C155 C 0.06884 0.13813 0.14565 0.0
C156 C 0.09797 0.20068 0.13113 0.0
H157 H 0.0235 0.16756 0.15587 0.0
C158 C 0.96988 0.22589 0.15938 0.0
O159 O 0.92397 0.2487 0.09299 0.0
O160 O 0.95599 0.20147 0.09371 0.0
N161 N 0.08843 0.25929 0.12582 0.0
C162 C 0.09824 0.29165 0.11826 0.0
C163 C 0.13134 0.2971 0.10698 0.0
C164 C 0.15406 0.26932 0.1037 0.0
C165 C 0.14357 0.23635 0.1119 0.0
C166 C 0.11043 0.23253 0.12325 0.0
H167 H 0.08083 0.31308 0.12059 0.0
O168 O 0.00047 0.25581 0.07685 0.0
O169 O 0.02187 0.23524 0.11113 0.0
O170 O 0.98178 0.2959 0.11836 0.0
O171 O 0.02833 0.29198 0.14374 0.0
C172 C 0.16436 0.20698 0.10877 0.0
C173 C 0.15156 0.17436 0.11674 0.0
H174 H 0.11742 0.11569 0.13331 0.0
H175 H 0.05703 0.11371 0.15138 0.0
H176 H 0.13923 0.32262 0.10069 0.0
H177 H 0.17939 0.27355 0.09473 0.0
H178 H 0.19002 0.2091 0.09996 0.0
H179 H 0.16758 0.1519 0.11394 0.0
Mn180 Mn 0.25559 0.0525 0.88897 0.0
Mn181 Mn 0.24384 0.98516 0.8506 0.0
C182 C 0.24511 -0.00214 0.90418 0.0
C183 C 0.23363 0.09818 0.91122 0.0
C184 C 0.31581 0.01715 0.86218 0.0
O185 O 0.24538 0.07591 0.85692 0.0
O186 O 0.23686 0.02928 0.83282 0.0
C187 C 0.16705 0.99218 0.84125 0.0
N188 N 0.19447 0.97287 0.84907 0.0
C189 C 0.155 0.92471 0.85799 0.0
C190 C 0.12637 0.944 0.84986 0.0
C191 C 0.13243 0.9779 0.84148 0.0
C192 C 0.18896 0.94019 0.85711 0.0
H193 H 0.17156 0.01832 0.83494 0.0
C194 C 0.23825 0.062 0.83643 0.0
O195 O 0.26686 0.09745 0.90506 0.0
O196 O 0.21308 0.07289 0.90388 0.0
N197 N 0.24947 0.94101 0.86548 0.0
C198 C 0.2796 0.92674 0.87417 0.0
C199 C 0.27789 0.89334 0.88407 0.0
C200 C 0.24532 0.87492 0.88482 0.0
C201 C 0.21475 0.89001 0.87556 0.0
C202 C 0.21812 0.92326 0.86572 0.0
H203 H 0.30466 0.94088 0.87376 0.0
O204 O 0.26045 0.02151 0.91749 0.0
O205 O 0.23604 0.00699 0.88231 0.0
O206 O 0.30473 0.03985 0.87691 0.0
O207 O 0.29536 0.99537 0.85132 0.0
C208 C 0.18092 0.8737 0.87623 0.0
C209 C 0.15107 0.89104 0.86746 0.0
H210 H 0.09959 0.93318 0.8502 0.0
H211 H 0.11044 0.99302 0.83531 0.0
H212 H 0.30159 0.8819 0.89123 0.0
H213 H 0.24404 0.84931 0.89273 0.0
H214 H 0.17748 0.84802 0.8838 0.0
H215 H 0.12512 0.87842 0.86839 0.0
Mn216 Mn 0.03079 0.73809 0.09408 0.0
Mn217 Mn 0.96344 0.74072 0.13432 0.0
C218 C 0.97319 0.73477 0.08041 0.0
C219 C 0.07196 0.7682 0.07022 0.0
C220 C 0.0068 0.67694 0.12532 0.0
O221 O 0.05468 0.75485 0.12496 0.0
O222 O 0.00735 0.76093 0.14949 0.0
C223 C 0.95645 0.8165 0.13745 0.0
N224 N 0.94181 0.78472 0.13265 0.0
C225 C 0.88569 0.80922 0.12258 0.0
C226 C 0.90007 0.84218 0.12764 0.0
C227 C 0.93561 0.84582 0.13508 0.0
C228 C 0.90762 0.78091 0.12552 0.0
H229 H 0.98385 0.81945 0.14296 0.0
C230 C 0.04068 0.76394 0.14496 0.0
O231 O 0.07735 0.7365 0.07672 0.0
O232 O 0.04311 0.78216 0.07777 0.0
N233 N 0.91938 0.72246 0.1219 0.0
C234 C 0.91021 0.68914 0.11634 0.0
C235 C 0.87585 0.68122 0.10781 0.0
C236 C 0.85126 0.70758 0.10519 0.0
C237 C 0.86119 0.74162 0.11127 0.0
C238 C 0.89569 0.74791 0.11993 0.0
H239 H 0.92904 0.66879 0.11818 0.0
O240 O -0.00107 0.72462 0.06673 0.0
O241 O 0.98214 0.74767 0.10145 0.0
O242 O 0.02611 0.68949 0.10825 0.0
O243 O 0.98356 0.69421 0.1367 0.0
C244 C 0.83848 0.76967 0.10855 0.0
C245 C 0.85072 0.80344 0.1142 0.0
H246 H 0.88418 0.8649 0.12562 0.0
H247 H 0.94698 0.8712 0.13885 0.0
H248 H 0.86839 0.6549 0.10313 0.0
H249 H 0.82491 0.70143 0.09834 0.0
H250 H 0.81171 0.76561 0.1018 0.0
H251 H 0.83317 0.82484 0.11171 0.0
Mn252 Mn 0.746 0.94014 0.89765 0.0
Mn253 Mn 0.76412 0.01228 0.86505 0.0
C254 C 0.75584 0.99195 0.91723 0.0
C255 C 0.76421 0.89066 0.91724 0.0
C256 C 0.69023 0.98092 0.87037 0.0
O257 O 0.7595 0.92124 0.86473 0.0
O258 O 0.77265 0.97074 0.84466 0.0
C259 C 0.84166 0.00454 0.85985 0.0
N260 N 0.81369 0.02339 0.86734 0.0
C261 C 0.85271 0.06883 0.88213 0.0
C262 C 0.88192 0.05002 0.87439 0.0
C263 C 0.87636 0.01772 0.86323 0.0
C264 C 0.81873 0.05453 0.87806 0.0
H265 H 0.83752 0.97959 0.85142 0.0
C266 C 0.76992 0.93771 0.84587 0.0
O267 O 0.73178 0.89335 0.90968 0.0
O268 O 0.78609 0.91636 0.913 0.0
N269 N 0.75735 0.05422 0.88264 0.0
C270 C 0.72647 0.06806 0.8904 0.0
C271 C 0.72747 0.09983 0.9027 0.0
C272 C 0.76015 0.11709 0.90679 0.0
C273 C 0.79154 0.10251 0.89841 0.0
C274 C 0.78887 0.07094 0.88607 0.0
H275 H 0.70129 0.05481 0.88743 0.0
O276 O 0.7385 0.96693 0.92797 0.0
O277 O 0.76727 0.98574 0.89536 0.0
O278 O 0.6989 0.95603 0.88409 0.0
O279 O 0.71249 0.00338 0.86208 0.0
C280 C 0.82544 0.11767 0.90233 0.0
C281 C 0.856 0.10084 0.8942 0.0
H282 H 0.90874 0.05997 0.87715 0.0
H283 H 0.89878 0.00295 0.85735 0.0
H284 H 0.70314 0.11089 0.90915 0.0
H285 H 0.76085 0.14139 0.91654 0.0
H286 H 0.82834 0.14201 0.9119 0.0
H287 H 0.88194 0.11251 0.89763 0.0
C288 C 0.96273 0.62668 0.64029 0.0
C289 C 0.95051 0.6415 0.61865 0.0
C290 C 0.97011 0.59161 0.64122 0.0
C291 C 0.00482 0.52587 0.60333 0.0
H292 H 0.96989 0.46014 0.65132 0.0
C293 C 0.03586 0.38103 0.59878 0.0
C294 C 0.03604 0.36202 0.62047 0.0
C295 C 0.0275 0.41593 0.59906 0.0
C296 C 0.98055 0.4783 0.63808 0.0
H297 H 0.9351 0.6312 0.58132 0.0
H298 H 0.94882 0.56982 0.58286 0.0
H299 H 0.94745 0.51858 0.65107 0.0
H300 H 0.03055 0.36488 0.6596 0.0
H301 H 0.01818 0.42625 0.66033 0.0
H302 H 0.039 0.48649 0.59085 0.0
C303 C 0.95225 0.58539 0.59909 0.0
C304 C 0.9673 0.5116 0.63782 0.0
C305 C 0.94411 0.62033 0.59831 0.0
C306 C 0.03037 0.37901 0.6426 0.0
C307 C 0.02279 0.41405 0.64295 0.0
C308 C 0.01862 0.49281 0.60388 0.0
C309 C 0.9661 0.57103 0.62037 0.0
C310 C 0.97915 0.5355 0.62032 0.0
C311 C 0.01983 0.43265 0.6211 0.0
C312 C 0.00655 0.46849 0.62119 0.0
H313 H 0.96795 0.64252 0.65619 0.0
H314 H 0.98085 0.581 0.6578 0.0
H315 H 0.01474 0.54421 0.58992 0.0
H316 H 0.03963 0.3684 0.58143 0.0
H317 H 0.02516 0.42916 0.58183 0.0
C318 C 0.60111 0.09377 0.36686 0.0
C319 C 0.63007 0.07287 0.37207 0.0
C320 C 0.56817 0.07887 0.36079 0.0
C321 C 0.5219 0.99607 0.34427 0.0
H322 H 0.44518 0.0339 0.38199 0.0
C323 C 0.39453 0.91887 0.37043 0.0
C324 C 0.36244 0.93652 0.37125 0.0
C325 C 0.4264 0.93667 0.3654 0.0
C326 C 0.46609 0.02335 0.37095 0.0
H327 H 0.6476 0.01992 0.37344 0.0
H328 H 0.59016 0.9941 0.36339 0.0
H329 H 0.50257 0.06369 0.38134 0.0
H330 H 0.3385 0.98643 0.36618 0.0
H331 H 0.39396 0.01722 0.35728 0.0
H332 H 0.48542 0.95496 0.33468 0.0
C333 C 0.59292 0.02199 0.36371 0.0
C334 C 0.49902 0.04049 0.37052 0.0
C335 C 0.62586 0.03685 0.36967 0.0
C336 C 0.36277 0.97206 0.36602 0.0
C337 C 0.39455 0.98977 0.36094 0.0
C338 C 0.48888 0.97883 0.34476 0.0
C339 C 0.56347 0.04278 0.35989 0.0
C340 C 0.5275 0.02675 0.35755 0.0
C341 C 0.42678 0.97242 0.36104 0.0
C342 C 0.46083 0.99202 0.35845 0.0
H343 H 0.60347 0.12161 0.36827 0.0
H344 H 0.5461 0.0956 0.35752 0.0
H345 H 0.54323 0.98507 0.33386 0.0
H346 H 0.39523 0.8915 0.37436 0.0
H347 H 0.45089 0.92267 0.36585 0.0
C348 C 0.97769 0.36706 0.12646 0.0
C349 C 0.00327 0.34683 0.13784 0.0
C350 C 0.97834 0.40284 0.12938 0.0
C351 C 0.03968 0.47509 0.1434 0.0
H352 H 0.95304 0.52661 0.14706 0.0
C353 C 0.98882 0.62483 0.14987 0.0
C354 C 0.01005 0.63995 0.1315 0.0
C355 C 0.98972 0.58941 0.15436 0.0
C356 C 0.97753 0.51265 0.1464 0.0
H357 H 0.049 0.34846 0.16188 0.0
H358 H 0.04984 0.41089 0.1671 0.0
H359 H 0.94999 0.46381 0.14893 0.0
H360 H 0.0498 0.62968 0.10402 0.0
H361 H 0.05095 0.56792 0.11165 0.0
H362 H 0.06721 0.52396 0.14083 0.0
C363 C 0.02958 0.39901 0.15566 0.0
C364 C 0.97573 0.47665 0.14719 0.0
C365 C 0.02894 0.3632 0.15276 0.0
C366 C 0.03307 0.61897 0.1183 0.0
C367 C 0.03391 0.58354 0.12278 0.0
C368 C 0.04148 0.51111 0.14263 0.0
C369 C 0.00456 0.41925 0.14376 0.0
C370 C 0.00672 0.45746 0.14526 0.0
C371 C 0.01182 0.56829 0.14058 0.0
C372 C 0.01038 0.53026 0.14371 0.0
H373 H 0.95752 0.3554 0.11484 0.0
H374 H 0.95895 0.41774 0.11971 0.0
H375 H 0.06402 0.46105 0.14169 0.0
H376 H 0.97092 0.64019 0.16052 0.0
H377 H 0.97277 0.57849 0.16844 0.0
C378 C 0.36799 0.99288 0.84035 0.0
C379 C 0.35445 0.01554 0.85782 0.0
C380 C 0.40455 0.99053 0.83692 0.0
C381 C 0.48111 0.97316 0.84668 0.0
H382 H 0.5446 0.05288 0.85385 0.0
C383 C 0.62675 0.96116 0.87402 0.0
C384 C 0.65229 0.98429 0.86421 0.0
C385 C 0.59083 0.96499 0.86908 0.0
C386 C 0.52728 0.03041 0.85141 0.0
H387 H 0.36884 0.05394 0.8851 0.0
H388 H 0.43239 0.04923 0.87951 0.0
H389 H 0.4808 0.06088 0.85192 0.0
H390 H 0.66002 0.02914 0.84094 0.0
H391 H 0.59717 0.03553 0.8321 0.0
H392 H 0.52757 0.94269 0.8461 0.0
C393 C 0.41479 0.03376 0.8681 0.0
C394 C 0.4907 0.03496 0.85061 0.0
C395 C 0.37828 0.03625 0.87145 0.0
C396 C 0.64106 0.01095 0.8489 0.0
C397 C 0.60504 0.01471 0.8439 0.0
C398 C 0.51768 0.96863 0.84736 0.0
C399 C 0.42835 0.01067 0.85096 0.0
C400 C 0.46719 0.00631 0.84884 0.0
C401 C 0.57953 0.99194 0.85411 0.0
C402 C 0.54111 0.99711 0.85034 0.0
H403 H 0.3504 0.97673 0.8294 0.0
H404 H 0.41418 0.9728 0.82336 0.0
H405 H 0.46375 0.95052 0.84546 0.0
H406 H 0.63437 0.94035 0.88592 0.0
H407 H 0.57182 0.94736 0.87758 0.0
C408 C 0.24215 0.00256 0.45588 0.0
C409 C 0.23952 0.00442 0.43043 0.0
C410 C 0.23095 0.02972 0.47037 0.0
C411 C 0.2151 0.11971 0.47645 0.0
H412 H 0.13347 0.09205 0.51542 0.0
C413 C 0.13466 0.21655 0.5343 0.0
C414 C 0.11812 0.20373 0.55543 0.0
C415 C 0.15262 0.19423 0.51877 0.0
C416 C 0.15667 0.10022 0.5051 0.0
H417 H 0.22505 0.03699 0.40015 0.0
H418 H 0.20609 0.08512 0.42578 0.0
H419 H 0.16063 0.05034 0.48876 0.0
H420 H 0.10945 0.1585 0.57795 0.0
H421 H 0.14236 0.12016 0.55191 0.0
H422 H 0.21208 0.16932 0.49345 0.0
C423 C 0.21659 0.06235 0.43429 0.0
C424 C 0.17194 0.07631 0.48964 0.0
C425 C 0.22727 0.03483 0.41972 0.0
C426 C 0.12154 0.16887 0.56154 0.0
C427 C 0.14013 0.14684 0.54643 0.0
C428 C 0.20021 0.14363 0.49236 0.0
C429 C 0.21753 0.05953 0.45972 0.0
C430 C 0.20131 0.08578 0.47531 0.0
C431 C 0.15488 0.15886 0.52439 0.0
C432 C 0.17092 0.13407 0.50707 0.0
H433 H 0.25146 0.97952 0.46471 0.0
H434 H 0.23187 0.0271 0.48997 0.0
H435 H 0.23786 0.12742 0.46551 0.0
H436 H 0.13222 0.24338 0.52919 0.0
H437 H 0.16344 0.20447 0.50194 0.0
C438 C 0.22578 0.83574 0.44737 0.0
C439 C 0.21284 0.844 0.42423 0.0
C440 C 0.2052 0.81516 0.46313 0.0
C441 C 0.1125 0.80706 0.47594 0.0
H442 H 0.13556 0.73581 0.52245 0.0
C443 C 0.02672 0.7224 0.54659 0.0
C444 C 0.01164 0.74884 0.56025 0.0
C445 C 0.05618 0.7295 0.5318 0.0
C446 C 0.12898 0.75569 0.50948 0.0
H447 H 0.16964 0.83641 0.39881 0.0
H448 H 0.13376 0.8002 0.42619 0.0
H449 H 0.17885 0.75262 0.49062 0.0
H450 H 0.01416 0.80333 0.56885 0.0
H451 H 0.06548 0.81595 0.54277 0.0
H452 H 0.06328 0.81096 0.49484 0.0
C453 C 0.15975 0.80931 0.43213 0.0
C454 C 0.15356 0.76522 0.49139 0.0
C455 C 0.1802 0.82989 0.41649 0.0
C456 C 0.02616 0.78242 0.55899 0.0
C457 C 0.05527 0.78961 0.54403 0.0
C458 C 0.08839 0.79799 0.4941 0.0
C459 C 0.17124 0.80329 0.45601 0.0
C460 C 0.14534 0.79093 0.47442 0.0
C461 C 0.07003 0.76336 0.52996 0.0
C462 C 0.09642 0.77241 0.51108 0.0
H463 H 0.2505 0.84723 0.45387 0.0
H464 H 0.21448 0.81113 0.48151 0.0
H465 H 0.10573 0.82741 0.46339 0.0
H466 H 0.01523 0.69648 0.54699 0.0
H467 H 0.06686 0.70902 0.52081 0.0
C468 C 0.75443 0.96415 0.42943 0.0
C469 C 0.73117 0.98979 0.43693 0.0
C470 C 0.7593 0.93488 0.44377 0.0
C471 C 0.75445 0.91066 0.50805 0.0
H472 H 0.78495 0.82238 0.48357 0.0
C473 C 0.82336 0.77763 0.545 0.0
C474 C 0.8514 0.7936 0.55797 0.0
C475 C 0.80002 0.79759 0.53142 0.0
C476 C 0.77585 0.84662 0.49076 0.0
H477 H 0.69255 0.00359 0.46425 0.0
H478 H 0.70048 0.95222 0.48903 0.0
H479 H 0.75771 0.86328 0.45588 0.0
H480 H 0.87619 0.84283 0.56769 0.0
H481 H 0.83573 0.87733 0.54429 0.0
H482 H 0.77331 0.89441 0.54275 0.0
C483 C 0.71569 0.95509 0.47241 0.0
C484 C 0.76062 0.87021 0.47486 0.0
C485 C 0.71104 0.98447 0.45816 0.0
C486 C 0.85492 0.82975 0.55783 0.0
C487 C 0.83151 0.84957 0.54456 0.0
C488 C 0.76959 0.88713 0.52389 0.0
C489 C 0.74081 0.93055 0.46584 0.0
C490 C 0.75086 0.90299 0.48316 0.0
C491 C 0.80408 0.83377 0.53096 0.0
C492 C 0.78167 0.85541 0.51525 0.0
H493 H 0.77027 0.96749 0.41312 0.0
H494 H 0.77912 0.91673 0.43824 0.0
H495 H 0.74755 0.93569 0.51512 0.0
H496 H 0.82009 0.74978 0.54479 0.0
H497 H 0.77903 0.78476 0.52113 0.0
C498 C 0.74794 0.15811 0.46619 0.0
C499 C 0.7677 0.14986 0.44547 0.0
C500 C 0.76249 0.18023 0.48387 0.0
C501 C 0.83855 0.24102 0.49563 0.0
H502 H 0.83646 0.20196 0.56052 0.0
C503 C 0.9431 0.22215 0.57594 0.0
C504 C 0.96057 0.25445 0.57543 0.0
C505 C 0.91016 0.21755 0.56468 0.0
C506 C 0.83714 0.21337 0.54254 0.0
H507 H 0.81796 0.1569 0.42699 0.0
H508 H 0.84355 0.19541 0.45765 0.0
H509 H 0.79544 0.17957 0.52974 0.0
H510 H 0.95802 0.30731 0.56314 0.0
H511 H 0.89976 0.29978 0.54407 0.0
H512 H 0.88224 0.27257 0.50756 0.0
C513 C 0.81648 0.18597 0.46007 0.0
C514 C 0.81331 0.20085 0.52499 0.0
C515 C 0.80205 0.16376 0.44259 0.0
C516 C 0.94452 0.28231 0.564 0.0
C517 C 0.91135 0.27789 0.55302 0.0
C518 C 0.86254 0.2533 0.51307 0.0
C519 C 0.79712 0.19404 0.48109 0.0
C520 C 0.81509 0.21335 0.50102 0.0
C521 C 0.8943 0.24517 0.5525 0.0
C522 C 0.86329 0.2384 0.53638 0.0
H523 H 0.72175 0.14664 0.46904 0.0
H524 H 0.74704 0.18587 0.49992 0.0
H525 H 0.83999 0.25162 0.47742 0.0
H526 H 0.95569 0.20011 0.58403 0.0
H527 H 0.89829 0.19181 0.56425 0.0
C528 C 0.80598 0.02816 0.9327 0.0
C529 C 0.76941 0.02102 0.9319 0.0
C530 C 0.81982 0.05292 0.9487 0.0
C531 C 0.84431 0.08408 0.99572 0.0
H532 H 0.79707 0.16754 0.01489 0.0
C533 C 0.89657 0.161 0.07641 0.0
C534 C 0.89975 0.19689 0.07357 0.0
C535 C 0.87582 0.14128 0.06042 0.0
C536 C 0.81066 0.14442 0.00962 0.0
H537 H 0.71854 0.03271 0.94765 0.0
H538 H 0.74273 0.07561 0.9763 0.0
H539 H 0.77199 0.13152 0.98227 0.0
H540 H 0.88231 0.24074 0.05278 0.0
H541 H 0.84687 0.20606 0.02406 0.0
H542 H 0.88356 0.09718 0.02218 0.0
C543 C 0.76065 0.0632 0.96386 0.0
C544 C 0.79614 0.12365 0.99109 0.0
C545 C 0.7468 0.03856 0.94762 0.0
C546 C 0.88012 0.21305 0.05535 0.0
C547 C 0.85981 0.19317 0.03895 0.0
C548 C 0.85886 0.10483 0.01399 0.0
C549 C 0.79744 0.07021 0.96487 0.0
C550 C 0.81285 0.0932 0.98396 0.0
C551 C 0.85852 0.15691 0.04081 0.0
C552 C 0.84214 0.13511 0.02137 0.0
H553 H 0.82401 0.01396 0.92135 0.0
H554 H 0.8482 0.05798 0.94873 0.0
H555 H 0.85761 0.06054 0.99106 0.0
H556 H 0.91109 0.148 0.09056 0.0
H557 H 0.87446 0.11355 0.0629 0.0
C558 C 0.24319 0.14345 0.94314 0.0
C559 C 0.22009 0.12499 0.92753 0.0
C560 C 0.22965 0.16522 0.96099 0.0
C561 C 0.15049 0.21214 0.97951 0.0
H562 H 0.17564 0.18726 0.0455 0.0
C563 C 0.07479 0.20705 0.07471 0.0
C564 C 0.06097 0.24022 0.07582 0.0
C565 C 0.10242 0.2 0.0587 0.0
C566 C 0.16874 0.19479 0.02717 0.0
H567 H 0.16507 0.11626 0.91731 0.0
H568 H 0.14152 0.15482 0.94805 0.0
H569 H 0.20841 0.16322 0.01126 0.0
H570 H 0.06427 0.29194 0.06106 0.0
H571 H 0.11258 0.27963 0.03276 0.0
H572 H 0.10979 0.24239 0.99525 0.0
C573 C 0.17001 0.15232 0.94665 0.0
C574 C 0.18759 0.18127 0.00762 0.0
C575 C 0.18346 0.13012 0.92915 0.0
C576 C 0.0752 0.26636 0.06081 0.0
C577 C 0.10266 0.2593 0.04465 0.0
C578 C 0.13195 0.22597 -0.00097 0.0
C579 C 0.19289 0.16941 0.96311 0.0
C580 C 0.17778 0.18889 0.98361 0.0
C581 C 0.11595 0.22583 0.04304 0.0
C582 C 0.1401 0.2165 0.023 0.0
H583 H 0.27157 0.13985 0.94232 0.0
H584 H 0.24779 0.17821 0.97345 0.0
H585 H 0.14257 0.21852 0.96116 0.0
H586 H 0.06312 0.18619 0.0854 0.0
H587 H 0.11162 0.17381 0.05751 0.0
C588 C 0.11723 0.7709 0.03678 0.0
C589 C 0.09636 0.78769 0.05407 0.0
C590 C 0.13609 0.79012 0.01922 0.0
C591 C 0.13334 0.87579 0.98972 0.0
H592 H 0.22558 0.85327 0.96393 0.0
C593 C 0.25163 0.94819 0.93236 0.0
C594 C 0.23072 0.96659 0.91606 0.0
C595 C 0.23642 0.92179 0.94657 0.0
C596 C 0.19986 0.85998 0.97103 0.0
H597 H 0.08095 0.83747 0.0679 0.0
H598 H 0.11481 0.87088 0.03817 0.0
H599 H 0.19865 0.8172 0.99579 0.0
H600 H 0.17759 0.97295 0.90225 0.0
H601 H 0.15134 0.92555 0.9257 0.0
H602 H 0.13495 0.91937 0.9662 0.0
C603 C 0.11558 0.84298 0.03733 0.0
C604 C 0.18429 0.8391 0.98912 0.0
C605 C 0.09639 0.82386 0.05451 0.0
C606 C 0.1945 0.95815 0.91401 0.0
C607 C 0.17939 0.93145 0.92785 0.0
C608 C 0.14896 0.89674 0.97194 0.0
C609 C 0.13462 0.82639 0.01892 0.0
C610 C 0.15105 0.84714 -0.00106 0.0
C611 C 0.1999 0.91361 0.94487 0.0
C612 C 0.18255 0.88935 0.96246 0.0
H613 H 0.11752 0.74297 0.03607 0.0
H614 H 0.15047 0.77652 0.00529 0.0
H615 H 0.10733 0.88234 0.99639 0.0
H616 H 0.2795 0.95495 0.93462 0.0
H617 H 0.25295 0.9091 0.95974 0.0
C618 C 0.81156 0.85305 0.93274 0.0
C619 C 0.77548 0.86081 0.93156 0.0
C620 C 0.8232 0.82781 0.94869 0.0
C621 C 0.83872 0.76398 0.97856 0.0
H622 H 0.81855 0.78864 0.04543 0.0
C623 C 0.92228 0.71173 0.05621 0.0
C624 C 0.93812 0.73891 0.06948 0.0
C625 C 0.89241 0.71747 0.04189 0.0
C626 C 0.82389 0.78099 0.02686 0.0
H627 H 0.72298 0.84754 0.94534 0.0
H628 H 0.74368 0.80389 0.974 0.0
H629 H 0.78458 0.81425 0.01242 0.0
H630 H 0.93624 0.79335 0.07788 0.0
H631 H 0.88364 0.80339 0.05337 0.0
H632 H 0.87951 0.73248 0.99278 0.0
C633 C 0.76274 0.81707 0.96227 0.0
C634 C 0.80435 0.79544 0.00802 0.0
C635 C 0.75096 0.84189 0.94587 0.0
C636 C 0.92345 0.77171 0.06862 0.0
C637 C 0.89344 0.77741 0.05454 0.0
C638 C 0.85796 0.74925 0.99738 0.0
C639 C 0.79905 0.81028 0.96407 0.0
C640 C 0.81279 0.78828 0.98369 0.0
C641 C 0.87825 0.75059 0.04047 0.0
C642 C 0.85183 0.75889 0.02162 0.0
H643 H 0.83096 0.8672 0.92184 0.0
H644 H 0.8514 0.82336 0.94993 0.0
H645 H 0.84556 0.75798 0.95993 0.0
H646 H 0.93379 0.68639 0.05625 0.0
H647 H 0.88131 0.69643 0.03111 0.0
C648 C 0.12834 0.21234 0.6567 0.0
C649 C 0.09838 0.23079 0.6637 0.0
C650 C 0.15006 0.19767 0.67426 0.0
C651 C 0.17719 0.20068 0.73787 0.0
H652 H 0.18173 0.10106 0.73329 0.0
C653 C 0.21415 0.11664 0.81986 0.0
C654 C 0.2299 0.08472 0.81582 0.0
C655 C 0.20361 0.13688 0.80028 0.0
C656 C 0.18165 0.12892 0.73468 0.0
H657 H 0.06872 0.24992 0.69447 0.0
H658 H 0.10727 0.2249 0.72514 0.0
H659 H 0.15474 0.13333 0.7006 0.0
H660 H 0.24888 0.04978 0.78825 0.0
H661 H 0.23218 0.08577 0.75407 0.0
H662 H 0.20442 0.19657 0.77176 0.0
C663 C 0.11366 0.2216 0.70609 0.0
C664 C 0.16597 0.14735 0.71593 0.0
C665 C 0.09153 0.23568 0.68856 0.0
C666 C 0.23632 0.07408 0.79186 0.0
C667 C 0.22651 0.09466 0.77228 0.0
C668 C 0.19356 0.18233 0.75644 0.0
C669 C 0.14262 0.20185 0.69907 0.0
C670 C 0.16298 0.18325 0.71761 0.0
C671 C 0.20926 0.12598 0.77619 0.0
C672 C 0.19529 0.14608 0.75536 0.0
H673 H 0.13419 0.20804 0.63767 0.0
H674 H 0.17231 0.18253 0.66848 0.0
H675 H 0.17534 0.22844 0.73942 0.0
H676 H 0.20869 0.12536 0.83817 0.0
H677 H 0.18989 0.16045 0.80413 0.0
C678 C 0.10093 0.77268 0.16335 0.0
C679 C 0.06431 0.7787 0.16395 0.0
C680 C 0.12326 0.78601 0.18148 0.0
C681 C 0.1324 0.85395 0.2271 0.0
H682 H 0.1926 0.7901 0.26091 0.0
C683 C 0.20033 0.88796 0.31813 0.0
C684 C 0.23271 0.87278 0.32384 0.0
C685 C 0.18236 0.87909 0.29675 0.0
C686 C 0.17661 0.80854 0.25137 0.0
H687 H 0.02256 0.80413 0.18372 0.0
H688 H 0.06186 0.82787 0.21524 0.0
H689 H 0.15627 0.76971 0.22703 0.0
H690 H 0.27269 0.83793 0.31096 0.0
H691 H 0.24211 0.8235 0.27319 0.0
H692 H 0.15297 0.89297 0.25111 0.0
C693 C 0.07308 0.81266 0.20075 0.0
C694 C 0.15563 0.79672 0.23205 0.0
C695 C 0.05061 0.79887 0.18283 0.0
C696 C 0.24759 0.84981 0.30717 0.0
C697 C 0.22989 0.84134 0.2856 0.0
C698 C 0.15381 0.86594 0.24621 0.0
C699 C 0.10954 0.80608 0.20034 0.0
C700 C 0.13302 0.81921 0.21996 0.0
C701 C 0.1966 0.85519 0.2804 0.0
C702 C 0.17585 0.84327 0.25882 0.0
H703 H 0.11232 0.7572 0.14908 0.0
H704 H 0.15133 0.78073 0.18072 0.0
H705 H 0.11544 0.87186 0.21784 0.0
H706 H 0.188 0.90555 0.33068 0.0
H707 H 0.15659 0.88994 0.2936 0.0
C708 C 0.91147 0.77225 0.68709 0.0
C709 C 0.8995 0.77665 0.66313 0.0
C710 C 0.8935 0.78718 0.70649 0.0
C711 C 0.84646 0.86179 0.72243 0.0
H712 H 0.80561 0.80984 0.77627 0.0
C713 C 0.77692 0.93116 0.80095 0.0
C714 C 0.78053 0.91758 0.82443 0.0
C715 C 0.78796 0.91249 0.78071 0.0
C716 C 0.81734 0.82485 0.7616 0.0
H717 H 0.85935 0.79992 0.64064 0.0
H718 H 0.8287 0.82707 0.67464 0.0
H719 H 0.83216 0.7793 0.74224 0.0
H720 H 0.79863 0.874 0.84528 0.0
H721 H 0.81967 0.84223 0.81024 0.0
H722 H 0.8339 0.90735 0.74201 0.0
C723 C 0.85157 0.81153 0.67829 0.0
C724 C 0.83223 0.80726 0.74206 0.0
C725 C 0.86901 0.79592 0.65894 0.0
C726 C 0.79523 0.88494 0.82733 0.0
C727 C 0.80707 0.86662 0.80716 0.0
C728 C 0.83236 0.87942 0.74218 0.0
C729 C 0.86381 0.80738 0.70215 0.0
C730 C 0.84688 0.82565 0.72239 0.0
C731 C 0.80372 0.88017 0.78354 0.0
C732 C 0.81764 0.86123 0.7621 0.0
H733 H 0.93483 0.75744 0.69081 0.0
H734 H 0.90341 0.78388 0.7248 0.0
H735 H 0.85802 0.87641 0.70748 0.0
H736 H 0.7653 0.95614 0.7982 0.0
H737 H 0.78407 0.9235 0.76286 0.0
C738 C 0.80668 0.11515 0.3383 0.0
C739 C 0.77422 0.13167 0.34149 0.0
C740 C 0.82834 0.12309 0.31834 0.0
C741 C 0.82713 0.15727 0.25652 0.0
H742 H 0.92548 0.18419 0.26811 0.0
C743 C 0.91235 0.22149 0.18188 0.0
C744 C 0.94855 0.21395 0.18049 0.0
C745 C 0.89178 0.20991 0.20147 0.0
C746 C 0.89828 0.17616 0.26445 0.0
H747 H 0.73868 0.16886 0.3259 0.0
H748 H 0.77624 0.18213 0.29079 0.0
H749 H 0.88799 0.1655 0.30207 0.0
H750 H 0.99154 0.18814 0.19856 0.0
H751 H 0.95536 0.16696 0.23247 0.0
H752 H 0.83723 0.1672 0.21894 0.0
C753 C 0.78493 0.16321 0.30385 0.0
C754 C 0.87681 0.16558 0.28394 0.0
C755 C 0.76353 0.15571 0.32399 0.0
C756 C 0.96376 0.19458 0.1992 0.0
C757 C 0.94302 0.18257 0.21869 0.0
C758 C 0.84867 0.16736 0.23699 0.0
C759 C 0.81768 0.14725 0.30098 0.0
C760 C 0.84094 0.15648 0.28017 0.0
C761 C 0.90672 0.19004 0.22004 0.0
C762 C 0.8844 0.17745 0.24073 0.0
H763 H 0.81578 0.09666 0.35153 0.0
H764 H 0.85341 0.11031 0.31644 0.0
H765 H 0.79965 0.14993 0.25312 0.0
H766 H 0.89987 0.23668 0.16791 0.0
H767 H 0.86419 0.21694 0.20214 0.0
loop_
_geom_bond_atom_site_label_1
_geom_bond_atom_site_label_2
_geom_bond_distance
_geom_bond_site_symmetry_2
_ccdc_geom_bond_type
Mn0 O5 2.095 . S
Mn0 O15 2.162 . S
Mn0 O16 2.297 . S
Mn0 O24 2.385 . S
Mn0 O25 2.209 . S
Mn0 O26 2.094 . S
Mn1 O6 2.121 . S
Mn1 N8 2.257 1_455 S
Mn1 N17 2.282 1_455 S
Mn1 O25 2.215 . S
Mn1 O27 2.117 . S
C2 O24 1.234 . S
C2 O25 1.283 . S
C3 O15 1.281 . S
C3 O16 1.236 . S
C4 O26 1.240 . S
C4 O27 1.264 . S
O5 Mn0 2.095 . S
O5 C14 1.250 . S
O6 Mn1 2.121 . S
O6 C14 1.258 . S
C7 N8 1.326 . S
C7 C11 1.460 . S
C7 H13 0.929 1_655 S
N8 Mn1 2.257 1_655 S
N8 C7 1.326 . S
N8 C12 1.362 . S
C9 C10 1.258 . S
C9 C12 1.431 . S
C9 C29 1.449 . S
C10 C9 1.258 . S
C10 C11 1.477 . S
C10 H30 0.931 . S
C11 C7 1.460 . S
C11 C10 1.477 . S
C11 H31 0.930 . S
C12 N8 1.362 . S
C12 C9 1.431 . S
C12 C22 1.476 . S
H13 C7 0.929 1_455 S
C14 O5 1.250 . S
C14 O6 1.258 . S
O15 Mn0 2.162 . S
O15 C3 1.281 . S
O16 Mn0 2.297 . S
O16 C3 1.236 . S
N17 Mn1 2.282 1_655 S
N17 C18 1.328 . S
N17 C22 1.318 . S
C18 N17 1.328 . S
C18 C19 1.457 . S
C18 H23 0.929 . S
C19 C18 1.457 . S
C19 C20 1.291 . S
C19 H32 0.931 . S
C20 C19 1.291 . S
C20 C21 1.373 . S
C20 H33 0.929 . S
C21 C20 1.373 . S
C21 C22 1.396 . S
C21 C28 1.403 . S
C22 C12 1.476 . S
C22 N17 1.318 . S
C22 C21 1.396 . S
H23 C18 0.929 . S
O24 Mn0 2.385 . S
O24 C2 1.234 . S
O25 Mn0 2.209 . S
O25 Mn1 2.215 . S
O25 C2 1.283 . S
O26 Mn0 2.094 . S
O26 C4 1.240 . S
O27 Mn1 2.117 . S
O27 C4 1.264 . S
C28 C21 1.403 . S
C28 C29 1.399 . S
C28 H34 0.929 . S
C29 C9 1.449 . S
C29 C28 1.399 . S
C29 H35 0.930 . S
H30 C10 0.931 . S
H31 C11 0.930 . S
H32 C19 0.931 . S
H33 C20 0.929 . S
H34 C28 0.929 . S
H35 C29 0.930 . S
Mn36 O41 2.095 . S
Mn36 O51 2.162 . S
Mn36 O52 2.297 . S
Mn36 O60 2.385 . S
Mn36 O61 2.209 . S
Mn36 O62 2.094 . S
Mn37 O42 2.121 . S
Mn37 N44 2.257 . S
Mn37 N53 2.282 . S
Mn37 O61 2.215 . S
Mn37 O63 2.117 . S
C38 O60 1.234 . S
C38 O61 1.283 . S
C39 O51 1.281 . S
C39 O52 1.236 . S
C40 O62 1.240 . S
C40 O63 1.264 . S
O41 Mn36 2.095 . S
O41 C50 1.250 . S
O42 Mn37 2.121 . S
O42 C50 1.258 . S
C43 N44 1.326 . S
C43 C47 1.460 . S
C43 H49 0.929 . S
N44 Mn37 2.257 . S
N44 C43 1.326 . S
N44 C48 1.362 . S
C45 C46 1.258 . S
C45 C48 1.431 . S
C45 C65 1.449 . S
C46 C45 1.258 . S
C46 C47 1.477 . S
C46 H66 0.931 . S
C47 C43 1.460 . S
C47 C46 1.477 . S
C47 H67 0.930 . S
C48 N44 1.362 . S
C48 C45 1.431 . S
C48 C58 1.476 . S
H49 C43 0.929 . S
C50 O41 1.250 . S
C50 O42 1.258 . S
O51 Mn36 2.162 . S
O51 C39 1.281 . S
O52 Mn36 2.297 . S
O52 C39 1.236 . S
N53 Mn37 2.282 . S
N53 C54 1.328 . S
N53 C58 1.318 . S
C54 N53 1.328 . S
C54 C55 1.457 . S
C54 H59 0.929 . S
C55 C54 1.457 . S
C55 C56 1.291 . S
C55 H68 0.931 . S
C56 C55 1.291 . S
C56 C57 1.373 . S
C56 H69 0.929 . S
C57 C56 1.373 . S
C57 C58 1.396 . S
C57 C64 1.403 . S
C58 C48 1.476 . S
C58 N53 1.318 . S
C58 C57 1.396 . S
H59 C54 0.929 . S
O60 Mn36 2.385 . S
O60 C38 1.234 . S
O61 Mn36 2.209 . S
O61 Mn37 2.215 . S
O61 C38 1.283 . S
O62 Mn36 2.094 . S
O62 C40 1.240 . S
O63 Mn37 2.117 . S
O63 C40 1.264 . S
C64 C57 1.403 . S
C64 C65 1.399 . S
C64 H70 0.929 . S
C65 C45 1.449 . S
C65 C64 1.399 . S
C65 H71 0.930 . S
H66 C46 0.931 . S
H67 C47 0.930 . S
H68 C55 0.931 . S
H69 C56 0.929 . S
H70 C64 0.929 . S
H71 C65 0.930 . S
Mn72 O77 2.095 . S
Mn72 O87 2.162 . S
Mn72 O88 2.297 . S
Mn72 O96 2.385 . S
Mn72 O97 2.209 . S
Mn72 O98 2.094 . S
Mn73 O78 2.121 . S
Mn73 N80 2.257 1_655 S
Mn73 N89 2.282 1_655 S
Mn73 O97 2.215 . S
Mn73 O99 2.117 . S
C74 O96 1.234 . S
C74 O97 1.283 . S
C75 O87 1.281 . S
C75 O88 1.236 . S
C76 O98 1.240 . S
C76 O99 1.264 . S
O77 Mn72 2.095 . S
O77 C86 1.250 . S
O78 Mn73 2.121 . S
O78 C86 1.258 . S
C79 N80 1.326 . S
C79 C83 1.460 . S
C79 H85 0.929 1_455 S
N80 Mn73 2.257 1_455 S
N80 C79 1.326 . S
N80 C84 1.362 . S
C81 C82 1.258 . S
C81 C84 1.431 . S
C81 C101 1.449 . S
C82 C81 1.258 . S
C82 C83 1.477 . S
C82 H102 0.931 . S
C83 C79 1.460 . S
C83 C82 1.477 . S
C83 H103 0.930 . S
C84 N80 1.362 . S
C84 C81 1.431 . S
C84 C94 1.476 . S
H85 C79 0.929 1_655 S
C86 O77 1.250 . S
C86 O78 1.258 . S
O87 Mn72 2.162 . S
O87 C75 1.281 . S
O88 Mn72 2.297 . S
O88 C75 1.236 . S
N89 Mn73 2.282 1_455 S
N89 C90 1.328 . S
N89 C94 1.318 . S
C90 N89 1.328 . S
C90 C91 1.457 . S
C90 H95 0.929 . S
C91 C90 1.457 . S
C91 C92 1.291 . S
C91 H104 0.931 . S
C92 C91 1.291 . S
C92 C93 1.373 . S
C92 H105 0.929 . S
C93 C92 1.373 . S
C93 C94 1.396 . S
C93 C100 1.403 . S
C94 C84 1.476 . S
C94 N89 1.318 . S
C94 C93 1.396 . S
H95 C90 0.929 . S
O96 Mn72 2.385 . S
O96 C74 1.234 . S
O97 Mn72 2.209 . S
O97 Mn73 2.215 . S
O97 C74 1.283 . S
O98 Mn72 2.094 . S
O98 C76 1.240 . S
O99 Mn73 2.117 . S
O99 C76 1.264 . S
C100 C93 1.403 . S
C100 C101 1.399 . S
C100 H106 0.929 . S
C101 C81 1.449 . S
C101 C100 1.399 . S
C101 H107 0.930 . S
H102 C82 0.931 . S
H103 C83 0.930 . S
H104 C91 0.931 . S
H105 C92 0.929 . S
H106 C100 0.929 . S
H107 C101 0.930 . S
Mn108 O113 2.095 . S
Mn108 O123 2.162 . S
Mn108 O124 2.297 . S
Mn108 O132 2.385 . S
Mn108 O133 2.209 . S
Mn108 O134 2.094 . S
Mn109 O114 2.121 . S
Mn109 N116 2.257 . S
Mn109 N125 2.282 . S
Mn109 O133 2.215 . S
Mn109 O135 2.117 . S
C110 O132 1.234 . S
C110 O133 1.283 . S
C111 O123 1.281 . S
C111 O124 1.236 . S
C112 O134 1.240 . S
C112 O135 1.264 . S
O113 Mn108 2.095 . S
O113 C122 1.250 . S
O114 Mn109 2.121 . S
O114 C122 1.258 . S
C115 N116 1.326 . S
C115 C119 1.460 . S
C115 H121 0.929 . S
N116 Mn109 2.257 . S
N116 C115 1.326 . S
N116 C120 1.362 . S
C117 C118 1.258 . S
C117 C120 1.431 . S
C117 C137 1.449 . S
C118 C117 1.258 . S
C118 C119 1.477 . S
C118 H138 0.931 . S
C119 C115 1.460 . S
C119 C118 1.477 . S
C119 H139 0.930 . S
C120 N116 1.362 . S
C120 C117 1.431 . S
C120 C130 1.476 . S
H121 C115 0.929 . S
C122 O113 1.250 . S
C122 O114 1.258 . S
O123 Mn108 2.162 . S
O123 C111 1.281 . S
O124 Mn108 2.297 . S
O124 C111 1.236 . S
N125 Mn109 2.282 . S
N125 C126 1.328 . S
N125 C130 1.318 . S
C126 N125 1.328 . S
C126 C127 1.457 . S
C126 H131 0.929 . S
C127 C126 1.457 . S
C127 C128 1.291 . S
C127 H140 0.931 . S
C128 C127 1.291 . S
C128 C129 1.373 . S
C128 H141 0.929 . S
C129 C128 1.373 . S
C129 C130 1.396 . S
C129 C136 1.403 . S
C130 C120 1.476 . S
C130 N125 1.318 . S
C130 C129 1.396 . S
H131 C126 0.929 . S
O132 Mn108 2.385 . S
O132 C110 1.234 . S
O133 Mn108 2.209 . S
O133 Mn109 2.215 . S
O133 C110 1.283 . S
O134 Mn108 2.094 . S
O134 C112 1.240 . S
O135 Mn109 2.117 . S
O135 C112 1.264 . S
C136 C129 1.403 . S
C136 C137 1.399 . S
C136 H142 0.929 . S
C137 C117 1.449 . S
C137 C136 1.399 . S
C137 H143 0.930 . S
H138 C118 0.931 . S
H139 C119 0.930 . S
H140 C127 0.931 . S
H141 C128 0.929 . S
H142 C136 0.929 . S
H143 C137 0.930 . S
Mn144 O149 2.095 . S
Mn144 O159 2.162 . S
Mn144 O160 2.297 . S
Mn144 O168 2.385 . S
Mn144 O169 2.209 . S
Mn144 O170 2.094 . S
Mn145 O150 2.121 . S
Mn145 N152 2.257 1_655 S
Mn145 N161 2.282 1_655 S
Mn145 O169 2.215 . S
Mn145 O171 2.117 . S
C146 O168 1.234 . S
C146 O169 1.283 . S
C147 O159 1.281 . S
C147 O160 1.236 . S
C148 O170 1.240 . S
C148 O171 1.264 . S
O149 Mn144 2.095 . S
O149 C158 1.250 . S
O150 Mn145 2.121 . S
O150 C158 1.258 . S
C151 N152 1.326 . S
C151 C155 1.460 . S
C151 H157 0.929 1_455 S
N152 Mn145 2.257 1_455 S
N152 C151 1.326 . S
N152 C156 1.362 . S
C153 C154 1.258 . S
C153 C156 1.431 . S
C153 C173 1.449 . S
C154 C153 1.258 . S
C154 C155 1.477 . S
C154 H174 0.931 . S
C155 C151 1.460 . S
C155 C154 1.477 . S
C155 H175 0.930 . S
C156 N152 1.362 . S
C156 C153 1.431 . S
C156 C166 1.476 . S
H157 C151 0.929 1_655 S
C158 O149 1.250 . S
C158 O150 1.258 . S
O159 Mn144 2.162 . S
O159 C147 1.281 . S
O160 Mn144 2.297 . S
O160 C147 1.236 . S
N161 Mn145 2.282 1_455 S
N161 C162 1.328 . S
N161 C166 1.318 . S
C162 N161 1.328 . S
C162 C163 1.457 . S
C162 H167 0.939 . S
C163 C162 1.457 . S
C163 C164 1.291 . S
C163 H176 0.931 . S
C164 C163 1.291 . S
C164 C165 1.373 . S
C164 H177 0.929 . S
C165 C164 1.373 . S
C165 C166 1.396 . S
C165 C172 1.403 . S
C166 C156 1.476 . S
C166 N161 1.318 . S
C166 C165 1.396 . S
H167 C162 0.939 . S
O168 Mn144 2.385 . S
O168 C146 1.234 . S
O169 Mn144 2.209 . S
O169 Mn145 2.215 . S
O169 C146 1.283 . S
O170 Mn144 2.094 . S
O170 C148 1.240 . S
O171 Mn145 2.117 . S
O171 C148 1.264 . S
C172 C165 1.403 . S
C172 C173 1.399 . S
C172 H178 0.929 . S
C173 C153 1.449 . S
C173 C172 1.399 . S
C173 H179 0.930 . S
H174 C154 0.931 . S
H175 C155 0.930 . S
H176 C163 0.931 . S
H177 C164 0.929 . S
H178 C172 0.929 . S
H179 C173 0.930 . S
Mn180 O185 2.095 . S
Mn180 O195 2.162 . S
Mn180 O196 2.297 . S
Mn180 O204 2.385 . S
Mn180 O205 2.209 . S
Mn180 O206 2.094 . S
Mn181 O186 2.121 . S
Mn181 N188 2.237 1_545 S
Mn181 N197 2.282 1_545 S
Mn181 O205 2.215 . S
Mn181 O207 2.117 . S
C182 O204 1.234 . S
C182 O205 1.283 . S
C183 O195 1.281 . S
C183 O196 1.236 . S
C184 O206 1.240 . S
C184 O207 1.264 . S
O185 Mn180 2.095 . S
O185 C194 1.250 . S
O186 Mn181 2.121 . S
O186 C194 1.258 . S
C187 N188 1.321 1_545 S
C187 C191 1.460 1_545 S
C187 H193 0.929 . S
N188 Mn181 2.237 1_565 S
N188 C187 1.321 1_565 S
N188 C192 1.390 . S
C189 C190 1.258 . S
C189 C192 1.431 . S
C189 C209 1.449 . S
C190 C189 1.258 . S
C190 C191 1.477 . S
C190 H210 0.931 . S
C191 C187 1.460 1_565 S
C191 C190 1.477 . S
C191 H211 0.930 . S
C192 N188 1.390 . S
C192 C189 1.431 . S
C192 C202 1.476 . S
H193 C187 0.929 . S
C194 O185 1.250 . S
C194 O186 1.258 . S
O195 Mn180 2.162 . S
O195 C183 1.281 . S
O196 Mn180 2.297 . S
O196 C183 1.236 . S
N197 Mn181 2.282 1_565 S
N197 C198 1.328 . S
N197 C202 1.318 . S
C198 N197 1.328 . S
C198 C199 1.457 . S
C198 H203 0.929 1_565 S
C199 C198 1.457 . S
C199 C200 1.291 . S
C199 H212 0.931 . S
C200 C199 1.291 . S
C200 C201 1.373 . S
C200 H213 0.929 . S
C201 C200 1.373 . S
C201 C202 1.396 . S
C201 C208 1.403 . S
C202 C192 1.476 . S
C202 N197 1.318 . S
C202 C201 1.396 . S
H203 C198 0.929 1_545 S
O204 Mn180 2.385 . S
O204 C182 1.234 . S
O205 Mn180 2.209 . S
O205 Mn181 2.215 . S
O205 C182 1.283 . S
O206 Mn180 2.094 . S
O206 C184 1.240 . S
O207 Mn181 2.117 . S
O207 C184 1.264 . S
C208 C201 1.403 . S
C208 C209 1.399 . S
C208 H214 0.929 . S
C209 C189 1.449 . S
C209 C208 1.399 . S
C209 H215 0.930 . S
H210 C190 0.931 . S
H211 C191 0.930 . S
H212 C199 0.931 . S
H213 C200 0.929 . S
H214 C208 0.929 . S
H215 C209 0.930 . S
Mn216 O221 2.095 . S
Mn216 O231 2.162 . S
Mn216 O232 2.297 . S
Mn216 O240 2.385 . S
Mn216 O241 2.209 . S
Mn216 O242 2.094 . S
Mn217 O222 2.121 . S
Mn217 N224 2.257 1_455 S
Mn217 N233 2.282 1_455 S
Mn217 O241 2.215 . S
Mn217 O243 2.117 . S
C218 O240 1.234 . S
C218 O241 1.283 . S
C219 O231 1.281 . S
C219 O232 1.236 . S
C220 O242 1.240 . S
C220 O243 1.264 . S
O221 Mn216 2.095 . S
O221 C230 1.250 . S
O222 Mn217 2.121 . S
O222 C230 1.258 . S
C223 N224 1.326 . S
C223 C227 1.460 . S
C223 H229 0.929 1_655 S
N224 Mn217 2.257 1_655 S
N224 C223 1.326 . S
N224 C228 1.362 . S
C225 C226 1.258 . S
C225 C228 1.431 . S
C225 C245 1.449 . S
C226 C225 1.258 . S
C226 C227 1.477 . S
C226 H246 0.931 . S
C227 C223 1.460 . S
C227 C226 1.477 . S
C227 H247 0.930 . S
C228 N224 1.362 . S
C228 C225 1.431 . S
C228 C238 1.476 . S
H229 C223 0.929 1_455 S
C230 O221 1.250 . S
C230 O222 1.258 . S
O231 Mn216 2.162 . S
O231 C219 1.281 . S
O232 Mn216 2.297 . S
O232 C219 1.236 . S
N233 Mn217 2.282 1_655 S
N233 C234 1.328 . S
N233 C238 1.318 . S
C234 N233 1.328 . S
C234 C235 1.457 . S
C234 H239 0.939 . S
C235 C234 1.457 . S
C235 C236 1.291 . S
C235 H248 0.931 . S
C236 C235 1.291 . S
C236 C237 1.373 . S
C236 H249 0.929 . S
C237 C236 1.373 . S
C237 C238 1.396 . S
C237 C244 1.403 . S
C238 C228 1.476 . S
C238 N233 1.318 . S
C238 C237 1.396 . S
H239 C234 0.939 . S
O240 Mn216 2.385 . S
O240 C218 1.234 . S
O241 Mn216 2.209 . S
O241 Mn217 2.215 . S
O241 C218 1.283 . S
O242 Mn216 2.094 . S
O242 C220 1.240 . S
O243 Mn217 2.117 . S
O243 C220 1.264 . S
C244 C237 1.403 . S
C244 C245 1.399 . S
C244 H250 0.929 . S
C245 C225 1.449 . S
C245 C244 1.399 . S
C245 H251 0.930 . S
H246 C226 0.931 . S
H247 C227 0.930 . S
H248 C235 0.931 . S
H249 C236 0.929 . S
H250 C244 0.929 . S
H251 C245 0.930 . S
Mn252 O257 2.095 . S
Mn252 O267 2.162 . S
Mn252 O268 2.297 . S
Mn252 O276 2.385 . S
Mn252 O277 2.209 . S
Mn252 O278 2.094 . S
Mn253 O258 2.121 . S
Mn253 N260 2.237 1_565 S
Mn253 N269 2.282 1_565 S
Mn253 O277 2.215 . S
Mn253 O279 2.117 . S
C254 O276 1.234 . S
C254 O277 1.283 . S
C255 O267 1.281 . S
C255 O268 1.236 . S
C256 O278 1.240 . S
C256 O279 1.264 . S
O257 Mn252 2.095 . S
O257 C266 1.250 . S
O258 Mn253 2.121 . S
O258 C266 1.258 . S
C259 N260 1.321 1_565 S
C259 C263 1.460 1_565 S
C259 H265 0.929 . S
N260 Mn253 2.237 1_545 S
N260 C259 1.321 1_545 S
N260 C264 1.390 . S
C261 C262 1.258 . S
C261 C264 1.431 . S
C261 C281 1.449 . S
C262 C261 1.258 . S
C262 C263 1.477 . S
C262 H282 0.931 . S
C263 C259 1.460 1_545 S
C263 C262 1.477 . S
C263 H283 0.930 . S
C264 N260 1.390 . S
C264 C261 1.431 . S
C264 C274 1.476 . S
H265 C259 0.929 . S
C266 O257 1.250 . S
C266 O258 1.258 . S
O267 Mn252 2.162 . S
O267 C255 1.281 . S
O268 Mn252 2.297 . S
O268 C255 1.236 . S
N269 Mn253 2.282 1_545 S
N269 C270 1.328 . S
N269 C274 1.318 . S
C270 N269 1.328 . S
C270 C271 1.457 . S
C270 H275 0.929 1_545 S
C271 C270 1.457 . S
C271 C272 1.291 . S
C271 H284 0.931 . S
C272 C271 1.291 . S
C272 C273 1.373 . S
C272 H285 0.929 . S
C273 C272 1.373 . S
C273 C274 1.396 . S
C273 C280 1.403 . S
C274 C264 1.476 . S
C274 N269 1.318 . S
C274 C273 1.396 . S
H275 C270 0.929 1_565 S
O276 Mn252 2.385 . S
O276 C254 1.234 . S
O277 Mn252 2.209 . S
O277 Mn253 2.215 . S
O277 C254 1.283 . S
O278 Mn252 2.094 . S
O278 C256 1.240 . S
O279 Mn253 2.117 . S
O279 C256 1.264 . S
C280 C273 1.403 . S
C280 C281 1.399 . S
C280 H286 0.929 . S
C281 C261 1.449 . S
C281 C280 1.399 . S
C281 H287 0.930 . S
H282 C262 0.931 . S
H283 C263 0.930 . S
H284 C271 0.931 . S
H285 C272 0.929 . S
H286 C280 0.929 . S
H287 C281 0.930 . S
C288 C289 1.349 . S
C288 C290 1.327 . S
C288 H313 0.950 . S
C289 C288 1.349 . S
C289 C305 1.349 . S
C290 C288 1.327 . S
C290 C309 1.429 . S
C290 H314 0.950 . S
C291 C308 1.574 . S
C291 C310 1.368 1_455 S
C291 H315 0.949 . S
H292 C296 0.949 . S
C293 C294 1.349 . S
C293 C295 1.327 . S
C293 H316 0.950 . S
C294 C293 1.349 . S
C294 C306 1.349 . S
C295 C293 1.327 . S
C295 C311 1.429 . S
C295 H317 0.950 . S
C296 H292 0.949 . S
C296 C304 1.574 . S
C296 C312 1.368 1_655 S
H297 C305 0.950 . S
H298 C303 0.950 . S
H299 C304 0.949 . S
H300 C306 0.950 . S
H301 C307 0.950 . S
H302 C308 0.949 . S
C303 H298 0.950 . S
C303 C305 1.327 . S
C303 C309 1.429 . S
C304 C296 1.574 . S
C304 H299 0.949 . S
C304 C310 1.368 . S
C305 C289 1.349 . S
C305 H297 0.950 . S
C305 C303 1.327 . S
C306 C294 1.349 . S
C306 H300 0.950 . S
C306 C307 1.327 . S
C307 H301 0.950 . S
C307 C306 1.327 . S
C307 C311 1.429 . S
C308 C291 1.574 . S
C308 H302 0.949 . S
C308 C312 1.368 . S
C309 C290 1.429 . S
C309 C303 1.429 . S
C309 C310 1.523 . S
C310 C291 1.368 1_655 S
C310 C304 1.368 . S
C310 C309 1.523 . S
C311 C295 1.429 . S
C311 C307 1.429 . S
C311 C312 1.523 . S
C312 C296 1.368 1_455 S
C312 C308 1.368 . S
C312 C311 1.523 . S
H313 C288 0.950 . S
H314 C290 0.950 . S
H315 C291 0.949 . S
H316 C293 0.950 . S
H317 C295 0.950 . S
C318 C319 1.349 . S
C318 C320 1.327 . S
C318 H343 0.950 . S
C319 C318 1.349 . S
C319 C335 1.349 . S
C320 C318 1.327 . S
C320 C339 1.429 . S
C320 H344 0.950 . S
C321 C338 1.574 . S
C321 C340 1.368 1_565 S
C321 H345 0.949 . S
H322 C326 0.949 . S
C323 C324 1.349 . S
C323 C325 1.327 . S
C323 H346 0.950 . S
C324 C323 1.349 . S
C324 C336 1.349 . S
C325 C323 1.327 . S
C325 C341 1.429 . S
C325 H347 0.950 . S
C326 H322 0.949 . S
C326 C334 1.574 . S
C326 C342 1.368 1_545 S
H327 C335 0.950 . S
H328 C333 0.950 . S
H329 C334 0.949 . S
H330 C336 0.950 . S
H331 C337 0.950 . S
H332 C338 0.949 . S
C333 H328 0.950 . S
C333 C335 1.327 . S
C333 C339 1.429 . S
C334 C326 1.574 . S
C334 H329 0.949 . S
C334 C340 1.368 . S
C335 C319 1.349 . S
C335 H327 0.950 . S
C335 C333 1.327 . S
C336 C324 1.349 . S
C336 H330 0.950 . S
C336 C337 1.327 . S
C337 H331 0.950 . S
C337 C336 1.327 . S
C337 C341 1.429 . S
C338 C321 1.574 . S
C338 H332 0.949 . S
C338 C342 1.368 . S
C339 C320 1.429 . S
C339 C333 1.429 . S
C339 C340 1.523 . S
C340 C321 1.368 1_545 S
C340 C334 1.368 . S
C340 C339 1.523 . S
C341 C325 1.429 . S
C341 C337 1.429 . S
C341 C342 1.523 . S
C342 C326 1.368 1_565 S
C342 C338 1.368 . S
C342 C341 1.523 . S
H343 C318 0.950 . S
H344 C320 0.950 . S
H345 C321 0.949 . S
H346 C323 0.950 . S
H347 C325 0.950 . S
C348 C349 1.349 . S
C348 C350 1.327 . S
C348 H373 0.950 . S
C349 C348 1.349 . S
C349 C365 1.349 . S
C350 C348 1.327 . S
C350 C369 1.429 . S
C350 H374 0.950 . S
C351 C368 1.574 . S
C351 C370 1.368 1_455 S
C351 H375 0.949 . S
H352 C356 0.949 . S
C353 C354 1.349 . S
C353 C355 1.327 . S
C353 H376 0.950 . S
C354 C353 1.349 . S
C354 C366 1.349 . S
C355 C353 1.327 . S
C355 C371 1.429 . S
C355 H377 0.950 . S
C356 H352 0.949 . S
C356 C364 1.574 . S
C356 C372 1.368 1_655 S
H357 C365 0.950 . S
H358 C363 0.950 . S
H359 C364 0.949 . S
H360 C366 0.950 . S
H361 C367 0.950 . S
H362 C368 0.949 . S
C363 H358 0.950 . S
C363 C365 1.327 . S
C363 C369 1.429 . S
C364 C356 1.574 . S
C364 H359 0.949 . S
C364 C370 1.368 . S
C365 C349 1.349 . S
C365 H357 0.950 . S
C365 C363 1.327 . S
C366 C354 1.349 . S
C366 H360 0.950 . S
C366 C367 1.327 . S
C367 H361 0.950 . S
C367 C366 1.327 . S
C367 C371 1.429 . S
C368 C351 1.574 . S
C368 H362 0.949 . S
C368 C372 1.368 . S
C369 C350 1.429 . S
C369 C363 1.429 . S
C369 C370 1.523 . S
C370 C351 1.368 1_655 S
C370 C364 1.368 . S
C370 C369 1.523 . S
C371 C355 1.429 . S
C371 C367 1.429 . S
C371 C372 1.523 . S
C372 C356 1.368 1_455 S
C372 C368 1.368 . S
C372 C371 1.523 . S
H373 C348 0.950 . S
H374 C350 0.950 . S
H375 C351 0.949 . S
H376 C353 0.950 . S
H377 C355 0.950 . S
C378 C379 1.349 . S
C378 C380 1.327 . S
C378 H403 0.950 . S
C379 C378 1.349 . S
C379 C395 1.349 . S
C380 C378 1.327 . S
C380 C399 1.429 . S
C380 H404 0.950 . S
C381 C398 1.574 . S
C381 C400 1.368 1_565 S
C381 H405 0.949 . S
H382 C386 0.949 . S
C383 C384 1.349 . S
C383 C385 1.327 . S
C383 H406 0.950 . S
C384 C383 1.349 . S
C384 C396 1.349 . S
C385 C383 1.327 . S
C385 C401 1.429 . S
C385 H407 0.950 . S
C386 H382 0.949 . S
C386 C394 1.574 . S
C386 C402 1.368 1_545 S
H387 C395 0.950 . S
H388 C393 0.950 . S
H389 C394 0.949 . S
H390 C396 0.950 . S
H391 C397 0.950 . S
H392 C398 0.949 . S
C393 H388 0.950 . S
C393 C395 1.327 . S
C393 C399 1.429 . S
C394 C386 1.574 . S
C394 H389 0.949 . S
C394 C400 1.368 . S
C395 C379 1.349 . S
C395 H387 0.950 . S
C395 C393 1.327 . S
C396 C384 1.349 . S
C396 H390 0.950 . S
C396 C397 1.327 . S
C397 H391 0.950 . S
C397 C396 1.327 . S
C397 C401 1.429 . S
C398 C381 1.574 . S
C398 H392 0.949 . S
C398 C402 1.368 . S
C399 C380 1.429 . S
C399 C393 1.429 . S
C399 C400 1.523 . S
C400 C381 1.368 1_545 S
C400 C394 1.368 . S
C400 C399 1.523 . S
C401 C385 1.429 . S
C401 C397 1.429 . S
C401 C402 1.523 . S
C402 C386 1.368 1_565 S
C402 C398 1.368 . S
C402 C401 1.523 . S
H403 C378 0.950 . S
H404 C380 0.950 . S
H405 C381 0.949 . S
H406 C383 0.950 . S
H407 C385 0.950 . S
C408 C409 1.349 . S
C408 C410 1.327 1_565 S
C408 H433 0.950 . S
C409 C408 1.349 . S
C409 C425 1.349 1_565 S
C410 C408 1.327 1_545 S
C410 C429 1.429 . S
C410 H434 0.950 . S
C411 C428 1.574 . S
C411 C430 1.368 . S
C411 H435 0.949 . S
H412 C416 0.949 . S
C413 C414 1.349 . S
C413 C415 1.327 . S
C413 H436 0.950 . S
C414 C413 1.349 . S
C414 C426 1.349 . S
C415 C413 1.327 . S
C415 C431 1.429 . S
C415 H437 0.950 . S
C416 H412 0.949 . S
C416 C424 1.574 . S
C416 C432 1.368 . S
H417 C425 0.950 . S
H418 C423 0.950 . S
H419 C424 0.949 . S
H420 C426 0.950 . S
H421 C427 0.950 . S
H422 C428 0.949 . S
C423 H418 0.950 . S
C423 C425 1.327 . S
C423 C429 1.429 . S
C424 C416 1.574 . S
C424 H419 0.949 . S
C424 C430 1.368 . S
C425 C409 1.349 1_545 S
C425 H417 0.950 . S
C425 C423 1.327 . S
C426 C414 1.349 . S
C426 H420 0.950 . S
C426 C427 1.327 . S
C427 H421 0.950 . S
C427 C426 1.327 . S
C427 C431 1.429 . S
C428 C411 1.574 . S
C428 H422 0.949 . S
C428 C432 1.368 . S
C429 C410 1.429 . S
C429 C423 1.429 . S
C429 C430 1.523 . S
C430 C411 1.368 . S
C430 C424 1.368 . S
C430 C429 1.523 . S
C431 C415 1.429 . S
C431 C427 1.429 . S
C431 C432 1.523 . S
C432 C416 1.368 . S
C432 C428 1.368 . S
C432 C431 1.523 . S
H433 C408 0.950 . S
H434 C410 0.950 . S
H435 C411 0.949 . S
H436 C413 0.950 . S
H437 C415 0.950 . S
C438 C439 1.349 . S
C438 C440 1.327 . S
C438 H463 0.950 . S
C439 C438 1.349 . S
C439 C455 1.349 . S
C440 C438 1.327 . S
C440 C459 1.429 . S
C440 H464 0.950 . S
C441 C458 1.574 . S
C441 C460 1.368 . S
C441 H465 0.949 . S
H442 C446 0.949 . S
C443 C444 1.349 . S
C443 C445 1.327 1_655 S
C443 H466 0.950 . S
C444 C443 1.349 . S
C444 C456 1.349 1_655 S
C445 C443 1.327 1_455 S
C445 C461 1.429 . S
C445 H467 0.950 . S
C446 H442 0.949 . S
C446 C454 1.574 . S
C446 C462 1.368 . S
H447 C455 0.950 . S
H448 C453 0.950 . S
H449 C454 0.949 . S
H450 C456 0.950 . S
H451 C457 0.950 . S
H452 C458 0.949 . S
C453 H448 0.950 . S
C453 C455 1.327 . S
C453 C459 1.429 . S
C454 C446 1.574 . S
C454 H449 0.949 . S
C454 C460 1.368 . S
C455 C439 1.349 . S
C455 H447 0.950 . S
C455 C453 1.327 . S
C456 C444 1.349 1_455 S
C456 H450 0.950 . S
C456 C457 1.327 . S
C457 H451 0.950 . S
C457 C456 1.327 . S
C457 C461 1.429 . S
C458 C441 1.574 . S
C458 H452 0.949 . S
C458 C462 1.368 . S
C459 C440 1.429 . S
C459 C453 1.429 . S
C459 C460 1.523 . S
C460 C441 1.368 . S
C460 C454 1.368 . S
C460 C459 1.523 . S
C461 C445 1.429 . S
C461 C457 1.429 . S
C461 C462 1.523 . S
C462 C446 1.368 . S
C462 C458 1.368 . S
C462 C461 1.523 . S
H463 C438 0.950 . S
H464 C440 0.950 . S
H465 C441 0.949 . S
H466 C443 0.950 . S
H467 C445 0.950 . S
C468 C469 1.349 1_565 S
C468 C470 1.327 . S
C468 H493 0.950 . S
C469 C468 1.349 1_545 S
C469 C485 1.349 . S
C470 C468 1.327 . S
C470 C489 1.429 . S
C470 H494 0.950 . S
C471 C488 1.574 . S
C471 C490 1.368 . S
C471 H495 0.949 . S
H472 C476 0.949 . S
C473 C474 1.349 . S
C473 C475 1.327 . S
C473 H496 0.950 . S
C474 C473 1.349 . S
C474 C486 1.349 . S
C475 C473 1.327 . S
C475 C491 1.429 . S
C475 H497 0.950 . S
C476 H472 0.949 . S
C476 C484 1.574 . S
C476 C492 1.368 . S
H477 C485 0.950 . S
H478 C483 0.950 . S
H479 C484 0.949 . S
H480 C486 0.950 . S
H481 C487 0.950 . S
H482 C488 0.949 . S
C483 H478 0.950 . S
C483 C485 1.327 1_565 S
C483 C489 1.429 . S
C484 C476 1.574 . S
C484 H479 0.949 . S
C484 C490 1.368 . S
C485 C469 1.349 . S
C485 H477 0.950 . S
C485 C483 1.327 1_545 S
C486 C474 1.349 . S
C486 H480 0.950 . S
C486 C487 1.327 . S
C487 H481 0.950 . S
C487 C486 1.327 . S
C487 C491 1.429 . S
C488 C471 1.574 . S
C488 H482 0.949 . S
C488 C492 1.368 . S
C489 C470 1.429 . S
C489 C483 1.429 . S
C489 C490 1.523 . S
C490 C471 1.368 . S
C490 C484 1.368 . S
C490 C489 1.523 . S
C491 C475 1.429 . S
C491 C487 1.429 . S
C491 C492 1.523 . S
C492 C476 1.368 . S
C492 C488 1.368 . S
C492 C491 1.523 . S
H493 C468 0.950 . S
H494 C470 0.950 . S
H495 C471 0.949 . S
H496 C473 0.950 . S
H497 C475 0.950 . S
C498 C499 1.349 . S
C498 C500 1.327 . S
C498 H523 0.950 . S
C499 C498 1.349 . S
C499 C515 1.349 . S
C500 C498 1.327 . S
C500 C519 1.429 . S
C500 H524 0.950 . S
C501 C518 1.574 . S
C501 C520 1.368 . S
C501 H525 0.949 . S
H502 C506 0.949 . S
C503 C504 1.349 . S
C503 C505 1.327 1_455 S
C503 H526 0.950 . S
C504 C503 1.349 . S
C504 C516 1.349 1_455 S
C505 C503 1.327 1_655 S
C505 C521 1.429 . S
C505 H527 0.950 . S
C506 H502 0.949 . S
C506 C514 1.574 . S
C506 C522 1.368 . S
H507 C515 0.950 . S
H508 C513 0.950 . S
H509 C514 0.949 . S
H510 C516 0.950 . S
H511 C517 0.950 . S
H512 C518 0.949 . S
C513 H508 0.950 . S
C513 C515 1.327 . S
C513 C519 1.429 . S
C514 C506 1.574 . S
C514 H509 0.949 . S
C514 C520 1.368 . S
C515 C499 1.349 . S
C515 H507 0.950 . S
C515 C513 1.327 . S
C516 C504 1.349 1_655 S
C516 H510 0.950 . S
C516 C517 1.327 . S
C517 H511 0.950 . S
C517 C516 1.327 . S
C517 C521 1.429 . S
C518 C501 1.574 . S
C518 H512 0.949 . S
C518 C522 1.368 . S
C519 C500 1.429 . S
C519 C513 1.429 . S
C519 C520 1.523 . S
C520 C501 1.368 . S
C520 C514 1.368 . S
C520 C519 1.523 . S
C521 C505 1.429 . S
C521 C517 1.429 . S
C521 C522 1.523 . S
C522 C506 1.368 . S
C522 C518 1.368 . S
C522 C521 1.523 . S
H523 C498 0.950 . S
H524 C500 0.950 . S
H525 C501 0.949 . S
H526 C503 0.950 . S
H527 C505 0.950 . S
C528 C529 1.349 1_545 S
C528 C530 1.327 . S
C528 H553 0.950 . S
C529 C528 1.349 1_565 S
C529 C545 1.349 . S
C530 C528 1.327 . S
C530 C549 1.429 . S
C530 H554 0.950 . S
C531 C548 1.574 1_556 S
C531 C550 1.368 . S
C531 H555 0.952 . S
H532 C536 0.949 . S
C533 C534 1.349 . S
C533 C535 1.327 . S
C533 H556 0.950 . S
C534 C533 1.349 . S
C534 C546 1.349 . S
C535 C533 1.327 . S
C535 C551 1.429 . S
C535 H557 0.950 . S
C536 H532 0.949 . S
C536 C544 1.574 . S
C536 C552 1.368 1_556 S
H537 C545 0.950 . S
H538 C543 0.950 . S
H539 C544 0.949 . S
H540 C546 0.950 . S
H541 C547 0.950 . S
H542 C548 0.949 . S
C543 H538 0.950 . S
C543 C545 1.327 . S
C543 C549 1.429 1_565 S
C544 C536 1.574 . S
C544 H539 0.949 . S
C544 C550 1.368 . S
C545 C529 1.349 . S
C545 H537 0.950 . S
C545 C543 1.327 . S
C546 C534 1.349 . S
C546 H540 0.950 . S
C546 C547 1.327 . S
C547 H541 0.950 . S
C547 C546 1.327 . S
C547 C551 1.429 . S
C548 C531 1.574 1_554 S
C548 H542 0.949 . S
C548 C552 1.368 . S
C549 C530 1.429 . S
C549 C543 1.429 1_545 S
C549 C550 1.523 . S
C550 C531 1.368 . S
C550 C544 1.368 . S
C550 C549 1.523 . S
C551 C535 1.429 . S
C551 C547 1.429 . S
C551 C552 1.523 . S
C552 C536 1.368 1_554 S
C552 C548 1.368 . S
C552 C551 1.523 . S
H553 C528 0.950 . S
H554 C530 0.950 . S
H555 C531 0.952 . S
H556 C533 0.950 . S
H557 C535 0.950 . S
C558 C559 1.349 . S
C558 C560 1.327 . S
C558 H583 0.950 . S
C559 C558 1.349 . S
C559 C575 1.349 . S
C560 C558 1.327 . S
C560 C579 1.429 . S
C560 H584 0.950 . S
C561 C578 1.574 . S
C561 C580 1.368 1_554 S
C561 H585 0.949 1_554 S
H562 C566 0.949 . S
C563 C564 1.349 . S
C563 C565 1.327 1_655 S
C563 H586 0.950 . S
C564 C563 1.349 . S
C564 C576 1.361 . S
C565 C563 1.327 1_455 S
C565 C581 1.429 . S
C565 H587 0.950 . S
C566 H562 0.949 . S
C566 C574 1.574 1_554 S
C566 C582 1.368 . S
H567 C575 0.950 . S
H568 C573 0.950 . S
H569 C574 0.949 . S
H570 C576 0.956 . S
H571 C577 0.950 . S
H572 C578 0.949 . S
C573 H568 0.950 . S
C573 C575 1.327 . S
C573 C579 1.429 . S
C574 C566 1.574 1_556 S
C574 H569 0.949 . S
C574 C580 1.368 . S
C575 C559 1.349 . S
C575 H567 0.950 . S
C575 C573 1.327 . S
C576 C564 1.361 . S
C576 H570 0.956 . S
C576 C577 1.310 1_655 S
C577 H571 0.950 . S
C577 C576 1.310 1_455 S
C577 C581 1.429 . S
C578 C561 1.574 . S
C578 H572 0.949 . S
C578 C582 1.368 . S
C579 C560 1.429 . S
C579 C573 1.429 . S
C579 C580 1.523 . S
C580 C561 1.368 1_556 S
C580 C574 1.368 . S
C580 C579 1.523 . S
C581 C565 1.429 . S
C581 C577 1.429 . S
C581 C582 1.523 . S
C582 C566 1.368 . S
C582 C578 1.368 . S
C582 C581 1.523 . S
H583 C558 0.950 . S
H584 C560 0.950 . S
H585 C561 0.949 1_556 S
H586 C563 0.950 . S
H587 C565 0.950 . S
C588 C589 1.349 . S
C588 C590 1.327 . S
C588 H613 0.950 . S
C589 C588 1.349 . S
C589 C605 1.349 . S
C590 C588 1.327 . S
C590 C609 1.429 . S
C590 H614 0.950 . S
C591 C608 1.574 1_554 S
C591 C610 1.368 . S
C591 H615 0.949 . S
H592 C596 0.949 . S
C593 C594 1.349 . S
C593 C595 1.327 . S
C593 H616 0.950 . S
C594 C593 1.349 . S
C594 C606 1.349 1_545 S
C595 C593 1.327 . S
C595 C611 1.429 1_545 S
C595 H617 0.950 . S
C596 H592 0.949 . S
C596 C604 1.574 . S
C596 C612 1.368 . S
H597 C605 0.950 . S
H598 C603 0.950 . S
H599 C604 0.949 . S
H600 C606 0.950 . S
H601 C607 0.950 . S
H602 C608 0.940 1_554 S
C603 H598 0.950 . S
C603 C605 1.327 . S
C603 C609 1.429 . S
C604 C596 1.574 . S
C604 H599 0.949 . S
C604 C610 1.368 1_556 S
C605 C589 1.349 . S
C605 H597 0.950 . S
C605 C603 1.327 . S
C606 C594 1.349 1_565 S
C606 H600 0.950 . S
C606 C607 1.327 . S
C607 H601 0.950 . S
C607 C606 1.327 . S
C607 C611 1.429 . S
C608 C591 1.574 1_556 S
C608 H602 0.940 1_556 S
C608 C612 1.368 . S
C609 C590 1.429 . S
C609 C603 1.429 . S
C609 C610 1.523 . S
C610 C591 1.368 . S
C610 C604 1.368 1_554 S
C610 C609 1.523 . S
C611 C595 1.429 1_565 S
C611 C607 1.429 . S
C611 C612 1.523 . S
C612 C596 1.368 . S
C612 C608 1.368 . S
C612 C611 1.523 . S
H613 C588 0.950 . S
H614 C590 0.950 . S
H615 C591 0.949 . S
H616 C593 0.950 . S
H617 C595 0.950 . S
C618 C619 1.349 . S
C618 C620 1.327 . S
C618 H643 0.950 . S
C619 C618 1.349 . S
C619 C635 1.349 . S
C620 C618 1.327 . S
C620 C639 1.429 . S
C620 H644 0.994 . S
C621 C638 1.574 . S
C621 C640 1.368 . S
C621 H645 0.949 . S
H622 C626 0.949 . S
C623 C624 1.349 . S
C623 C625 1.327 1_455 S
C623 H646 0.950 . S
C624 C623 1.349 . S
C624 C636 1.349 1_455 S
C625 C623 1.327 1_655 S
C625 C641 1.429 . S
C625 H647 0.950 . S
C626 H622 0.949 . S
C626 C634 1.574 . S
C626 C642 1.368 . S
H627 C635 0.950 . S
H628 C633 0.950 . S
H629 C634 0.949 . S
H630 C636 0.950 1_455 S
H631 C637 0.950 . S
H632 C638 0.949 . S
C633 H628 0.950 . S
C633 C635 1.327 . S
C633 C639 1.429 . S
C634 C626 1.574 . S
C634 H629 0.949 . S
C634 C640 1.368 1_554 S
C635 C619 1.349 . S
C635 H627 0.950 . S
C635 C633 1.327 . S
C636 C624 1.349 1_655 S
C636 H630 0.950 1_655 S
C636 C637 1.327 . S
C637 H631 0.950 . S
C637 C636 1.327 . S
C637 C641 1.429 . S
C638 C621 1.574 . S
C638 H632 0.949 . S
C638 C642 1.368 1_556 S
C639 C620 1.429 . S
C639 C633 1.429 . S
C639 C640 1.523 . S
C640 C621 1.368 . S
C640 C634 1.368 1_556 S
C640 C639 1.523 . S
C641 C625 1.429 . S
C641 C637 1.429 . S
C641 C642 1.523 . S
C642 C626 1.368 . S
C642 C638 1.368 1_554 S
C642 C641 1.523 . S
H643 C618 0.950 . S
H644 C620 0.994 . S
H645 C621 0.949 . S
H646 C623 0.950 . S
H647 C625 0.950 . S
C648 C649 1.349 . S
C648 C650 1.327 . S
C648 H673 0.950 . S
C649 C648 1.349 . S
C649 C665 1.349 . S
C650 C648 1.327 . S
C650 C669 1.429 . S
C650 H674 0.950 . S
C651 C668 1.574 . S
C651 C670 1.368 . S
C651 H675 0.949 . S
H652 C656 0.949 . S
C653 C654 1.349 . S
C653 C655 1.327 . S
C653 H676 0.950 . S
C654 C653 1.349 . S
C654 C666 1.349 . S
C655 C653 1.327 . S
C655 C671 1.429 . S
C655 H677 0.950 . S
C656 H652 0.949 . S
C656 C664 1.574 . S
C656 C672 1.368 . S
H657 C665 0.950 . S
H658 C663 0.950 . S
H659 C664 0.949 . S
H660 C666 0.950 . S
H661 C667 0.950 . S
H662 C668 0.949 . S
C663 H658 0.950 . S
C663 C665 1.327 . S
C663 C669 1.429 . S
C664 C656 1.574 . S
C664 H659 0.949 . S
C664 C670 1.368 . S
C665 C649 1.349 . S
C665 H657 0.950 . S
C665 C663 1.327 . S
C666 C654 1.349 . S
C666 H660 0.950 . S
C666 C667 1.327 . S
C667 H661 0.950 . S
C667 C666 1.327 . S
C667 C671 1.429 . S
C668 C651 1.574 . S
C668 H662 0.949 . S
C668 C672 1.368 . S
C669 C650 1.429 . S
C669 C663 1.429 . S
C669 C670 1.523 . S
C670 C651 1.368 . S
C670 C664 1.368 . S
C670 C669 1.523 . S
C671 C655 1.429 . S
C671 C667 1.429 . S
C671 C672 1.523 . S
C672 C656 1.368 . S
C672 C668 1.368 . S
C672 C671 1.523 . S
H673 C648 0.950 . S
H674 C650 0.950 . S
H675 C651 0.949 . S
H676 C653 0.950 . S
H677 C655 0.950 . S
C678 C679 1.349 . S
C678 C680 1.327 . S
C678 H703 0.950 . S
C679 C678 1.349 . S
C679 C695 1.349 . S
C680 C678 1.327 . S
C680 C699 1.429 . S
C680 H704 0.950 . S
C681 C698 1.574 . S
C681 C700 1.368 . S
C681 H705 0.949 . S
H682 C686 0.949 . S
C683 C684 1.349 . S
C683 C685 1.327 . S
C683 H706 0.950 . S
C684 C683 1.349 . S
C684 C696 1.349 . S
C685 C683 1.327 . S
C685 C701 1.429 . S
C685 H707 0.950 . S
C686 H682 0.949 . S
C686 C694 1.574 . S
C686 C702 1.368 . S
H687 C695 0.950 . S
H688 C693 0.950 . S
H689 C694 0.949 . S
H690 C696 0.950 . S
H691 C697 0.950 . S
H692 C698 0.949 . S
C693 H688 0.950 . S
C693 C695 1.327 . S
C693 C699 1.429 . S
C694 C686 1.574 . S
C694 H689 0.949 . S
C694 C700 1.368 . S
C695 C679 1.349 . S
C695 H687 0.950 . S
C695 C693 1.327 . S
C696 C684 1.349 . S
C696 H690 0.950 . S
C696 C697 1.327 . S
C697 H691 0.950 . S
C697 C696 1.327 . S
C697 C701 1.429 . S
C698 C681 1.574 . S
C698 H692 0.949 . S
C698 C702 1.368 . S
C699 C680 1.429 . S
C699 C693 1.429 . S
C699 C700 1.523 . S
C700 C681 1.368 . S
C700 C694 1.368 . S
C700 C699 1.523 . S
C701 C685 1.429 . S
C701 C697 1.429 . S
C701 C702 1.523 . S
C702 C686 1.368 . S
C702 C698 1.368 . S
C702 C701 1.523 . S
H703 C678 0.950 . S
H704 C680 0.950 . S
H705 C681 0.949 . S
H706 C683 0.950 . S
H707 C685 0.950 . S
C708 C709 1.349 . S
C708 C710 1.327 . S
C708 H733 0.950 . S
C709 C708 1.349 . S
C709 C725 1.349 . S
C710 C708 1.327 . S
C710 C729 1.429 . S
C710 H734 0.950 . S
C711 C728 1.574 . S
C711 C730 1.368 . S
C711 H735 0.949 . S
H712 C716 0.949 . S
C713 C714 1.349 . S
C713 C715 1.327 . S
C713 H736 0.950 . S
C714 C713 1.349 . S
C714 C726 1.349 . S
C715 C713 1.327 . S
C715 C731 1.429 . S
C715 H737 0.950 . S
C716 H712 0.949 . S
C716 C724 1.574 . S
C716 C732 1.368 . S
H717 C725 0.950 . S
H718 C723 0.950 . S
H719 C724 0.949 . S
H720 C726 0.950 . S
H721 C727 0.950 . S
H722 C728 0.949 . S
C723 H718 0.950 . S
C723 C725 1.327 . S
C723 C729 1.429 . S
C724 C716 1.574 . S
C724 H719 0.949 . S
C724 C730 1.368 . S
C725 C709 1.349 . S
C725 H717 0.950 . S
C725 C723 1.327 . S
C726 C714 1.349 . S
C726 H720 0.950 . S
C726 C727 1.327 . S
C727 H721 0.950 . S
C727 C726 1.327 . S
C727 C731 1.429 . S
C728 C711 1.574 . S
C728 H722 0.949 . S
C728 C732 1.368 . S
C729 C710 1.429 . S
C729 C723 1.429 . S
C729 C730 1.523 . S
C730 C711 1.368 . S
C730 C724 1.368 . S
C730 C729 1.523 . S
C731 C715 1.429 . S
C731 C727 1.429 . S
C731 C732 1.523 . S
C732 C716 1.368 . S
C732 C728 1.368 . S
C732 C731 1.523 . S
H733 C708 0.950 . S
H734 C710 0.950 . S
H735 C711 0.949 . S
H736 C713 0.950 . S
H737 C715 0.950 . S
C738 C739 1.349 . S
C738 C740 1.327 . S
C738 H763 0.950 . S
C739 C738 1.349 . S
C739 C755 1.349 . S
C740 C738 1.327 . S
C740 C759 1.429 . S
C740 H764 0.950 . S
C741 C758 1.574 . S
C741 C760 1.368 . S
C741 H765 0.949 . S
H742 C746 0.949 . S
C743 C744 1.349 . S
C743 C745 1.327 . S
C743 H766 0.950 . S
C744 C743 1.349 . S
C744 C756 1.349 . S
C745 C743 1.327 . S
C745 C761 1.429 . S
C745 H767 0.950 . S
C746 H742 0.949 . S
C746 C754 1.574 . S
C746 C762 1.368 . S
H747 C755 0.950 . S
H748 C753 0.950 . S
H749 C754 0.949 . S
H750 C756 0.950 . S
H751 C757 0.950 . S
H752 C758 0.949 . S
C753 H748 0.950 . S
C753 C755 1.327 . S
C753 C759 1.429 . S
C754 C746 1.574 . S
C754 H749 0.949 . S
C754 C760 1.368 . S
C755 C739 1.349 . S
C755 H747 0.950 . S
C755 C753 1.327 . S
C756 C744 1.349 . S
C756 H750 0.950 . S
C756 C757 1.327 . S
C757 H751 0.950 . S
C757 C756 1.327 . S
C757 C761 1.429 . S
C758 C741 1.574 . S
C758 H752 0.949 . S
C758 C762 1.368 . S
C759 C740 1.429 . S
C759 C753 1.429 . S
C759 C760 1.523 . S
C760 C741 1.368 . S
C760 C754 1.368 . S
C760 C759 1.523 . S
C761 C745 1.429 . S
C761 C757 1.429 . S
C761 C762 1.523 . S
C762 C746 1.368 . S
C762 C758 1.368 . S
C762 C761 1.523 . S
H763 C738 0.950 . S
H764 C740 0.950 . S
H765 C741 0.949 . S
H766 C743 0.950 . S
H767 C745 0.950 . S
C289 C76 1.334 . S
C294 C4 1.334 . S
C319 C122 1.416 . S
C324 C50 1.416 . S
C349 C148 1.330 . S
C354 C220 1.330 . S
C379 C184 1.348 . S
C384 C256 1.348 . S
C409 C39 0.804 . S
C414 C3 0.801 . S
C439 C38 0.948 . S
C444 C74 0.969 . S
C469 C111 0.804 . S
C474 C75 0.801 . S
C499 C110 0.948 . S
C504 C2 0.969 . S
C529 C254 0.912 . S
C534 C147 0.914 . S
C559 C183 0.859 . S
C564 C146 0.858 . S
C589 C219 0.914 . S
C594 C182 0.912 . S
C619 C255 0.859 . S
C624 C218 0.858 . S
C649 C14 1.702 . S
C654 C194 1.700 . S
C679 C230 1.695 . S
C684 C40 1.703 . S
C709 C86 1.702 . S
C714 C266 1.700 . S
C739 C112 1.703 . S
C744 C158 1.695 . S
