# Generated by pormake.
# Topology uot, (4)-cn, num edge types: 1
# Building blocks:
#     Node 0, Type 0, BuildingBlock: CEKHIL_clean_sbu_0, # of connection points: 4
#     Node 1, Type 0, BuildingBlock: CEKHIL_clean_sbu_0, # of connection points: 4
#     Node 2, Type 0, BuildingBlock: CEKHIL_clean_sbu_0, # of connection points: 4
#     Node 3, Type 0, BuildingBlock: CEKHIL_clean_sbu_0, # of connection points: 4
#     Node 4, Type 0, BuildingBlock: CEKHIL_clean_sbu_0, # of connection points: 4
#     Node 5, Type 0, BuildingBlock: CEKHIL_clean_sbu_0, # of connection points: 4
#     Node 6, Type 0, BuildingBlock: CEKHIL_clean_sbu_0, # of connection points: 4
#     Node 7, Type 0, BuildingBlock: CEKHIL_clean_sbu_0, # of connection points: 4
#     Node 8, Type 0, BuildingBlock: CEKHIL_clean_sbu_0, # of connection points: 4
#     Node 9, Type 0, BuildingBlock: CEKHIL_clean_sbu_0, # of connection points: 4
#     Node 10, Type 0, BuildingBlock: CEKHIL_clean_sbu_0, # of connection points: 4
#     Node 11, Type 0, BuildingBlock: CEKHIL_clean_sbu_0, # of connection points: 4
#     Node 12, Type 0, BuildingBlock: CEKHIL_clean_sbu_0, # of connection points: 4
#     Node 13, Type 0, BuildingBlock: CEKHIL_clean_sbu_0, # of connection points: 4
#     Node 14, Type 0, BuildingBlock: CEKHIL_clean_sbu_0, # of connection points: 4
#     Node 15, Type 0, BuildingBlock: CEKHIL_clean_sbu_0, # of connection points: 4
#     Edge 16, Type (0, 0), BuildingBlock: TEMPAE_clean_linker_10, # of connection points: 2
#     Edge 17, Type (0, 0), BuildingBlock: TEMPAE_clean_linker_10, # of connection points: 2
#     Edge 18, Type (0, 0), BuildingBlock: TEMPAE_clean_linker_10, # of connection points: 2
#     Edge 19, Type (0, 0), BuildingBlock: TEMPAE_clean_linker_10, # of connection points: 2
#     Edge 20, Type (0, 0), BuildingBlock: TEMPAE_clean_linker_10, # of connection points: 2
#     Edge 21, Type (0, 0), BuildingBlock: TEMPAE_clean_linker_10, # of connection points: 2
#     Edge 22, Type (0, 0), BuildingBlock: TEMPAE_clean_linker_10, # of connection points: 2
#     Edge 23, Type (0, 0), BuildingBlock: TEMPAE_clean_linker_10, # of connection points: 2
#     Edge 24, Type (0, 0), BuildingBlock: TEMPAE_clean_linker_10, # of connection points: 2
#     Edge 25, Type (0, 0), BuildingBlock: TEMPAE_clean_linker_10, # of connection points: 2
#     Edge 26, Type (0, 0), BuildingBlock: TEMPAE_clean_linker_10, # of connection points: 2
#     Edge 27, Type (0, 0), BuildingBlock: TEMPAE_clean_linker_10, # of connection points: 2
#     Edge 28, Type (0, 0), BuildingBlock: TEMPAE_clean_linker_10, # of connection points: 2
#     Edge 29, Type (0, 0), BuildingBlock: TEMPAE_clean_linker_10, # of connection points: 2
#     Edge 30, Type (0, 0), BuildingBlock: TEMPAE_clean_linker_10, # of connection points: 2
#     Edge 31, Type (0, 0), BuildingBlock: TEMPAE_clean_linker_10, # of connection points: 2
#     Edge 32, Type (0, 0), BuildingBlock: TEMPAE_clean_linker_10, # of connection points: 2
#     Edge 33, Type (0, 0), BuildingBlock: TEMPAE_clean_linker_10, # of connection points: 2
#     Edge 34, Type (0, 0), BuildingBlock: TEMPAE_clean_linker_10, # of connection points: 2
#     Edge 35, Type (0, 0), BuildingBlock: TEMPAE_clean_linker_10, # of connection points: 2
#     Edge 36, Type (0, 0), BuildingBlock: TEMPAE_clean_linker_10, # of connection points: 2
#     Edge 37, Type (0, 0), BuildingBlock: TEMPAE_clean_linker_10, # of connection points: 2
#     Edge 38, Type (0, 0), BuildingBlock: TEMPAE_clean_linker_10, # of connection points: 2
#     Edge 39, Type (0, 0), BuildingBlock: TEMPAE_clean_linker_10, # of connection points: 2
#     Edge 40, Type (0, 0), BuildingBlock: TEMPAE_clean_linker_10, # of connection points: 2
#     Edge 41, Type (0, 0), BuildingBlock: TEMPAE_clean_linker_10, # of connection points: 2
#     Edge 42, Type (0, 0), BuildingBlock: TEMPAE_clean_linker_10, # of connection points: 2
#     Edge 43, Type (0, 0), BuildingBlock: TEMPAE_clean_linker_10, # of connection points: 2
#     Edge 44, Type (0, 0), BuildingBlock: TEMPAE_clean_linker_10, # of connection points: 2
#     Edge 45, Type (0, 0), BuildingBlock: TEMPAE_clean_linker_10, # of connection points: 2
#     Edge 46, Type (0, 0), BuildingBlock: TEMPAE_clean_linker_10, # of connection points: 2
#     Edge 47, Type (0, 0), BuildingBlock: TEMPAE_clean_linker_10, # of connection points: 2
# Relax obj value: 0.066
# Max RMSD: 0.082
# Mean RMSD: 0.082
data_MOF--net-uot--node1-CEKHIL_clean_sbu_0--edge1-TEMPAE_clean_linker_10
_symmetry_space_group_name_H-M    P1
_symmetry_Int_Tables_number       1
_symmetry_cell_setting            triclinic
loop_
_symmetry_equiv_pos_as_xyz
'x, y, z'
_cell_length_a     44.564261
_cell_length_b     44.553919
_cell_length_c     40.676536
_cell_angle_alpha  90.012572
_cell_angle_beta   90.011747
_cell_angle_gamma 89.996646
loop_
_atom_site_label
_atom_site_type_symbol
_atom_site_fract_x
_atom_site_fract_y
_atom_site_fract_z
_atom_type_partial_charge
Co0 Co 0.20326 0.42505 0.3277 0.0
O1 O 0.22754 0.39041 0.33593 0.0
O2 O 0.24461 0.43339 0.31564 0.0
C3 C 0.16549 0.40019 0.30264 0.0
O4 O 0.18409 0.46482 0.31436 0.0
Co5 Co 0.13998 0.42988 0.35991 0.0
O6 O 0.1353 0.46375 0.32864 0.0
C7 C 0.19417 0.44098 0.39975 0.0
C8 C 0.24987 0.40583 0.32453 0.0
C9 C 0.15742 0.47607 0.31402 0.0
O10 O 0.21063 0.44051 0.37374 0.0
O11 O 0.16621 0.43432 0.39964 0.0
O12 O 0.18946 0.40743 0.28626 0.0
O13 O 0.16658 0.40549 0.33378 0.0
Co14 Co 0.41936 0.80133 0.66491 0.0
O15 O 0.38621 0.77777 0.64978 0.0
O16 O 0.42637 0.75919 0.67455 0.0
C17 C 0.39207 0.83729 0.69012 0.0
O18 O 0.45734 0.81962 0.68461 0.0
Co19 Co 0.42653 0.86661 0.63828 0.0
O20 O 0.45664 0.86927 0.67409 0.0
C21 C 0.44263 0.81518 0.59621 0.0
C22 C 0.40025 0.75449 0.66113 0.0
C23 C 0.46792 0.84637 0.68831 0.0
O24 O 0.43962 0.79718 0.62073 0.0
O25 O 0.4357 0.84306 0.59749 0.0
O26 O 0.39747 0.81204 0.70493 0.0
O27 O 0.40026 0.8384 0.65972 0.0
Co28 Co 0.79838 0.57578 0.32949 0.0
O29 O 0.77254 0.60785 0.34325 0.0
O30 O 0.75734 0.56685 0.31706 0.0
C31 C 0.83445 0.60471 0.3067 0.0
O32 O 0.81878 0.53851 0.31087 0.0
Co33 Co 0.86285 0.57029 0.35867 0.0
O34 O 0.86786 0.53944 0.32391 0.0
C35 C 0.81013 0.55378 0.39885 0.0
C36 C 0.75075 0.59256 0.33037 0.0
C37 C 0.84562 0.52792 0.3087 0.0
O38 O 0.79295 0.5555 0.37348 0.0
O39 O 0.8378 0.56159 0.39849 0.0
O40 O 0.8103 0.59826 0.29025 0.0
O41 O 0.83442 0.59622 0.33701 0.0
Co42 Co 0.57761 0.20441 0.6717 0.0
O43 O 0.60911 0.22948 0.65503 0.0
O44 O 0.57028 0.24578 0.68409 0.0
C45 C 0.60734 0.16817 0.69283 0.0
O46 O 0.54128 0.18484 0.6936 0.0
Co47 Co 0.56893 0.13943 0.64471 0.0
O48 O 0.54289 0.13516 0.68381 0.0
C49 C 0.54622 0.19142 0.60683 0.0
C50 C 0.59518 0.25178 0.66873 0.0
C51 C 0.53181 0.15785 0.69851 0.0
O52 O 0.55449 0.20982 0.62943 0.0
O53 O 0.55102 0.16311 0.60777 0.0
O54 O 0.60238 0.1927 0.70921 0.0
O55 O 0.59694 0.16781 0.66321 0.0
Co56 Co 0.20069 0.57835 0.67089 0.0
O57 O 0.22521 0.61246 0.66072 0.0
O58 O 0.24198 0.57022 0.68309 0.0
C59 C 0.16314 0.60455 0.69481 0.0
O60 O 0.18166 0.53922 0.68637 0.0
Co61 Co 0.13705 0.57175 0.64003 0.0
O62 O 0.13262 0.5394 0.67321 0.0
C63 C 0.19087 0.55885 0.60004 0.0
C64 C 0.24748 0.59726 0.6727 0.0
C65 C 0.15512 0.52781 0.68786 0.0
O66 O 0.20771 0.5609 0.62567 0.0
O67 O 0.16281 0.56511 0.60028 0.0
O68 O 0.18718 0.59794 0.71139 0.0
O69 O 0.16393 0.59768 0.66402 0.0
Co70 Co 0.58577 0.80403 0.32816 0.0
O71 O 0.62083 0.78131 0.33892 0.0
O72 O 0.5793 0.76191 0.31784 0.0
C73 C 0.60998 0.84154 0.30198 0.0
O74 O 0.54587 0.8215 0.31267 0.0
Co75 Co 0.5786 0.8682 0.35783 0.0
O76 O 0.54528 0.87067 0.32557 0.0
C77 C 0.56728 0.81515 0.39922 0.0
C78 C 0.60674 0.7579 0.32798 0.0
C79 C 0.53389 0.84785 0.31131 0.0
O80 O 0.5691 0.79795 0.37387 0.0
O81 O 0.57331 0.84325 0.39841 0.0
O82 O 0.60413 0.81662 0.2867 0.0
O83 O 0.60402 0.84154 0.33301 0.0
Co84 Co 0.80174 0.42199 0.67227 0.0
O85 O 0.77884 0.38644 0.66407 0.0
O86 O 0.76005 0.42873 0.68418 0.0
C87 C 0.84037 0.39858 0.69734 0.0
O88 O 0.81938 0.46252 0.68548 0.0
Co89 Co 0.86468 0.42911 0.63979 0.0
O90 O 0.86804 0.46345 0.67064 0.0
C91 C 0.81002 0.4375 0.60007 0.0
C92 C 0.75585 0.40095 0.6754 0.0
C93 C 0.84554 0.47491 0.68543 0.0
O94 O 0.79377 0.437 0.62621 0.0
O95 O 0.83817 0.43172 0.60008 0.0
O96 O 0.81615 0.4049 0.71371 0.0
O97 O 0.83913 0.40388 0.66621 0.0
Co98 Co 0.42034 0.19987 0.32689 0.0
O99 O 0.3878 0.2234 0.34387 0.0
O100 O 0.42652 0.2419 0.31642 0.0
C101 C 0.39182 0.16349 0.3041 0.0
O102 O 0.45757 0.1822 0.3048 0.0
Co103 Co 0.43074 0.13426 0.35114 0.0
O104 O 0.45731 0.13216 0.31224 0.0
C105 C 0.45131 0.18557 0.39169 0.0
C106 C 0.40114 0.24664 0.33138 0.0
C107 C 0.4679 0.15571 0.29878 0.0
O108 O 0.44276 0.20452 0.36974 0.0
O109 O 0.44723 0.1572 0.38941 0.0
O110 O 0.39634 0.18856 0.28856 0.0
O111 O 0.40208 0.16253 0.33374 0.0
Co112 Co 0.69915 0.9236 0.8267 0.0
O113 O 0.72282 0.88884 0.83629 0.0
O114 O 0.74064 0.93076 0.81428 0.0
C115 C 0.66107 0.89824 0.80277 0.0
O116 O 0.68078 0.96323 0.81168 0.0
Co117 Co 0.63586 0.93096 0.85808 0.0
O118 O 0.63181 0.96355 0.82513 0.0
C119 C 0.69011 0.9431 0.89774 0.0
C120 C 0.74541 0.90337 0.82408 0.0
C121 C 0.65436 0.97496 0.8104 0.0
O122 O 0.70681 0.94054 0.87205 0.0
O123 O 0.66192 0.93746 0.89763 0.0
O124 O 0.68505 0.90476 0.78607 0.0
O125 O 0.66213 0.90479 0.83363 0.0
Co126 Co 0.92453 0.29876 0.1694 0.0
O127 O 0.89248 0.27267 0.15655 0.0
O128 O 0.93415 0.25778 0.18161 0.0
C129 C 0.89596 0.33472 0.19277 0.0
O130 O 0.96196 0.31977 0.18677 0.0
Co131 Co 0.92831 0.36293 0.13899 0.0
O132 O 0.95997 0.36862 0.17274 0.0
C133 C 0.94439 0.30994 0.09919 0.0
C134 C 0.9083 0.25093 0.16876 0.0
C135 C 0.97215 0.34683 0.18809 0.0
O136 O 0.9438 0.29324 0.12497 0.0
O137 O 0.93604 0.33746 0.09922 0.0
O138 O 0.90293 0.3107 0.20921 0.0
O139 O 0.90356 0.33448 0.16219 0.0
Co140 Co 0.29968 0.07711 0.83168 0.0
O141 O 0.27556 0.11172 0.84037 0.0
O142 O 0.25863 0.06962 0.81787 0.0
C143 C 0.3382 0.10264 0.80899 0.0
O144 O 0.31865 0.03761 0.81736 0.0
Co145 Co 0.36224 0.07017 0.86499 0.0
O146 O 0.36721 0.03731 0.83247 0.0
C147 C 0.307 0.05872 0.90313 0.0
C148 C 0.25344 0.09703 0.82736 0.0
C149 C 0.34509 0.02589 0.81698 0.0
O150 O 0.29098 0.06029 0.87683 0.0
O151 O 0.33507 0.06488 0.90384 0.0
O152 O 0.31475 0.09592 0.79148 0.0
O153 O 0.33635 0.09613 0.8398 0.0
Co154 Co 0.07606 0.70303 0.17086 0.0
O155 O 0.10858 0.72819 0.1571 0.0
O156 O 0.06739 0.74447 0.18206 0.0
C157 C 0.10419 0.66713 0.19507 0.0
O158 O 0.03827 0.6832 0.1891 0.0
Co159 Co 0.07079 0.63834 0.14218 0.0
O160 O 0.03888 0.63413 0.17587 0.0
C161 C 0.0558 0.69071 0.10099 0.0
C162 C 0.09334 0.7505 0.16896 0.0
C163 C 0.02732 0.65645 0.19089 0.0
O164 O 0.05664 0.70793 0.12637 0.0
O165 O 0.06367 0.66306 0.10173 0.0
O166 O 0.09774 0.69167 0.21083 0.0
O167 O 0.09629 0.66671 0.16457 0.0
Co168 Co 0.70224 0.08354 0.16541 0.0
O169 O 0.72661 0.11806 0.15716 0.0
O170 O 0.74322 0.07568 0.17925 0.0
C171 C 0.66373 0.10895 0.18832 0.0
O172 O 0.68299 0.04405 0.17918 0.0
Co173 Co 0.63982 0.07736 0.1316 0.0
O174 O 0.6345 0.04428 0.16379 0.0
C175 C 0.69512 0.06556 0.09373 0.0
C176 C 0.74864 0.10312 0.17004 0.0
C177 C 0.65646 0.03255 0.17927 0.0
O178 O 0.71101 0.06698 0.12013 0.0
O179 O 0.6671 0.07193 0.09285 0.0
O180 O 0.68715 0.10203 0.20579 0.0
O181 O 0.66568 0.10284 0.15741 0.0
Co182 Co 0.08207 0.29761 0.82885 0.0
O183 O 0.1144 0.27158 0.84092 0.0
O184 O 0.07218 0.25656 0.81711 0.0
C185 C 0.10991 0.33359 0.80452 0.0
O186 O 0.04428 0.3186 0.81246 0.0
Co187 Co 0.07914 0.36165 0.85972 0.0
O188 O 0.04612 0.36721 0.82756 0.0
C189 C 0.0639 0.30868 0.8997 0.0
C190 C 0.09829 0.24976 0.82935 0.0
C191 C 0.03376 0.34557 0.8121 0.0
O192 O 0.06377 0.29214 0.87378 0.0
O193 O 0.07247 0.33612 0.89964 0.0
O194 O 0.10271 0.30945 0.7884 0.0
O195 O 0.10315 0.33336 0.83534 0.0
Co196 Co 0.30139 0.91828 0.17065 0.0
O197 O 0.27811 0.88324 0.16117 0.0
O198 O 0.2598 0.92512 0.18277 0.0
C199 C 0.33972 0.89369 0.19504 0.0
O200 O 0.31935 0.95821 0.18532 0.0
Co201 Co 0.36456 0.92589 0.13893 0.0
O202 O 0.36816 0.95911 0.17118 0.0
C203 C 0.31018 0.93708 0.09934 0.0
C204 C 0.25529 0.89765 0.17308 0.0
C205 C 0.3456 0.97036 0.18603 0.0
O206 O 0.29366 0.93484 0.12518 0.0
O207 O 0.33838 0.93149 0.09932 0.0
O208 O 0.3155 0.89984 0.21149 0.0
O209 O 0.33867 0.89991 0.16409 0.0
Co210 Co 0.92059 0.70411 0.82796 0.0
O211 O 0.88776 0.72913 0.8411 0.0
O212 O 0.92914 0.74561 0.81677 0.0
C213 C 0.89299 0.66789 0.80353 0.0
O214 O 0.95869 0.68426 0.81047 0.0
Co215 Co 0.92547 0.6397 0.85756 0.0
O216 O 0.95817 0.63544 0.82481 0.0
C217 C 0.93973 0.69243 0.89835 0.0
C218 C 0.90301 0.75154 0.82951 0.0
C219 C 0.96985 0.65754 0.80953 0.0
O220 O 0.93945 0.70934 0.87272 0.0
O221 O 0.93167 0.66484 0.89786 0.0
O222 O 0.89946 0.69238 0.78771 0.0
O223 O 0.90044 0.66776 0.83416 0.0
C224 C 0.28022 0.36568 0.29974 0.0
C225 C 0.27901 0.39113 0.31977 0.0
C226 C 0.30539 0.3469 0.29986 0.0
C227 C 0.32962 0.35339 0.32125 0.0
C228 C 0.32941 0.38037 0.33978 0.0
C229 C 0.30397 0.3991 0.33873 0.0
C230 C 0.30481 0.31871 0.27923 0.0
C231 C 0.35481 0.38815 0.36275 0.0
C232 C 0.36215 0.28098 0.35356 0.0
C233 C 0.38662 0.27648 0.3325 0.0
C234 C 0.34481 0.30713 0.35176 0.0
C235 C 0.35197 0.32936 0.32815 0.0
C236 C 0.37795 0.32597 0.30842 0.0
C237 C 0.39506 0.29949 0.31086 0.0
C238 C 0.3175 0.30989 0.37357 0.0
C239 C 0.38652 0.34927 0.28322 0.0
H240 H 0.26077 0.35967 0.2851 0.0
H241 H 0.30277 0.41875 0.35442 0.0
H242 H 0.32643 0.31572 0.26614 0.0
H243 H 0.30158 0.29893 0.29542 0.0
H244 H 0.2864 0.31905 0.26081 0.0
H245 H 0.35424 0.41217 0.37006 0.0
H246 H 0.35301 0.37427 0.38531 0.0
H247 H 0.37683 0.38318 0.35125 0.0
H248 H 0.35577 0.26348 0.3707 0.0
H249 H 0.41407 0.29619 0.29463 0.0
H250 H 0.29688 0.30782 0.35842 0.0
H251 H 0.31695 0.33222 0.38561 0.0
H252 H 0.31689 0.29231 0.39292 0.0
H253 H 0.3715 0.34724 0.26158 0.0
H254 H 0.41005 0.34642 0.27476 0.0
H255 H 0.38376 0.37226 0.29328 0.0
C256 C 0.39463 0.70148 0.68151 0.0
C257 C 0.38561 0.72469 0.66042 0.0
C258 C 0.37729 0.67519 0.68457 0.0
C259 C 0.35047 0.67227 0.6661 0.0
C260 C 0.34265 0.69472 0.64301 0.0
C261 C 0.36029 0.72059 0.6405 0.0
C262 C 0.38659 0.65157 0.70909 0.0
C263 C 0.31441 0.69251 0.62256 0.0
C264 C 0.30103 0.60355 0.65629 0.0
C265 C 0.27689 0.61162 0.67642 0.0
C266 C 0.32678 0.6218 0.65464 0.0
C267 C 0.32813 0.64842 0.67372 0.0
C268 C 0.30476 0.65496 0.69622 0.0
C269 C 0.27924 0.63665 0.69695 0.0
C270 C 0.35124 0.61397 0.63051 0.0
C271 C 0.30541 0.68278 0.71742 0.0
H272 H 0.41429 0.70448 0.69686 0.0
H273 H 0.35344 0.73826 0.62377 0.0
H274 H 0.37263 0.65372 0.73155 0.0
H275 H 0.38298 0.62871 0.69903 0.0
H276 H 0.41053 0.65398 0.71627 0.0
H277 H 0.31313 0.71037 0.60356 0.0
H278 H 0.31314 0.67037 0.61018 0.0
H279 H 0.29448 0.69454 0.63878 0.0
H280 H 0.29895 0.58421 0.64027 0.0
H281 H 0.26041 0.64272 0.71249 0.0
H282 H 0.37372 0.61832 0.64122 0.0
H283 H 0.34896 0.62828 0.60833 0.0
H284 H 0.34997 0.5901 0.62272 0.0
H285 H 0.32756 0.68523 0.72956 0.0
H286 H 0.28771 0.68238 0.73666 0.0
H287 H 0.30185 0.70289 0.70179 0.0
C288 C 0.60679 0.70143 0.32413 0.0
C289 C 0.6224 0.72871 0.32598 0.0
C290 C 0.6224 0.6739 0.32363 0.0
C291 C 0.65421 0.67393 0.32438 0.0
C292 C 0.6699 0.70156 0.32515 0.0
C293 C 0.65383 0.72846 0.32626 0.0
C294 C 0.60495 0.6449 0.3233 0.0
C295 C 0.70382 0.70279 0.32542 0.0
C296 C 0.70734 0.6162 0.35802 0.0
C297 C 0.72049 0.60553 0.3291 0.0
C298 C 0.68261 0.63563 0.35686 0.0
C299 C 0.6718 0.64557 0.32598 0.0
C300 C 0.6834 0.63269 0.29675 0.0
C301 C 0.70753 0.61244 0.29871 0.0
C302 C 0.67029 0.64799 0.38866 0.0
C303 C 0.67289 0.64291 0.26331 0.0
H304 H 0.58246 0.70158 0.32392 0.0
H305 H 0.66604 0.74949 0.32724 0.0
H306 H 0.61326 0.62991 0.30352 0.0
H307 H 0.60833 0.63297 0.34695 0.0
H308 H 0.58052 0.64866 0.31971 0.0
H309 H 0.71249 0.72613 0.32379 0.0
H310 H 0.71248 0.69258 0.34841 0.0
H311 H 0.71305 0.68972 0.30452 0.0
H312 H 0.71745 0.61068 0.38152 0.0
H313 H 0.718 0.6043 0.27635 0.0
H314 H 0.6455 0.65002 0.3875 0.0
H315 H 0.67961 0.67077 0.39291 0.0
H316 H 0.6764 0.63364 0.40997 0.0
H317 H 0.64819 0.64593 0.26283 0.0
H318 H 0.67938 0.62677 0.24374 0.0
H319 H 0.68325 0.66494 0.25758 0.0
C320 C 0.62617 0.29075 0.64168 0.0
C321 C 0.6088 0.2819 0.66863 0.0
C322 C 0.64483 0.31599 0.64352 0.0
C323 C 0.64682 0.33216 0.67342 0.0
C324 C 0.62729 0.32487 0.69973 0.0
C325 C 0.60819 0.29986 0.6969 0.0
C326 C 0.66459 0.32347 0.61451 0.0
C327 C 0.62869 0.34149 0.73201 0.0
C328 C 0.72714 0.3551 0.68822 0.0
C329 C 0.72691 0.38539 0.67921 0.0
C330 C 0.70071 0.33822 0.68869 0.0
C331 C 0.67336 0.35179 0.67901 0.0
C332 C 0.6727 0.38283 0.67134 0.0
C333 C 0.69961 0.39945 0.67187 0.0
C334 C 0.70244 0.30539 0.69786 0.0
C335 C 0.64408 0.39803 0.66064 0.0
H336 H 0.62629 0.27705 0.61964 0.0
H337 H 0.59471 0.29297 0.71776 0.0
H338 H 0.66532 0.34807 0.61039 0.0
H339 H 0.68784 0.31583 0.61958 0.0
H340 H 0.65672 0.31238 0.59161 0.0
H341 H 0.60827 0.33758 0.74708 0.0
H342 H 0.64845 0.33355 0.74617 0.0
H343 H 0.63142 0.36596 0.72802 0.0
H344 H 0.74826 0.34437 0.69436 0.0
H345 H 0.69952 0.42293 0.66487 0.0
H346 H 0.6983 0.29139 0.67576 0.0
H347 H 0.68492 0.29978 0.71623 0.0
H348 H 0.72469 0.29921 0.70816 0.0
H349 H 0.63899 0.39155 0.6349 0.0
H350 H 0.64597 0.42287 0.66179 0.0
H351 H 0.62488 0.39078 0.67606 0.0
C352 C 0.77403 0.85835 0.80818 0.0
C353 C 0.77431 0.88794 0.81962 0.0
C354 C 0.80027 0.8412 0.80735 0.0
C355 C 0.82743 0.85367 0.81922 0.0
C356 C 0.82821 0.88418 0.82919 0.0
C357 C 0.80152 0.90117 0.82895 0.0
C358 C 0.79843 0.80903 0.7957 0.0
C359 C 0.8566 0.89824 0.8422 0.0
C360 C 0.8713 0.79006 0.85614 0.0
C361 C 0.88992 0.7819 0.82993 0.0
C362 C 0.85323 0.81571 0.8544 0.0
C363 C 0.8532 0.83315 0.8253 0.0
C364 C 0.87396 0.8265 0.79992 0.0
C365 C 0.89237 0.80093 0.80266 0.0
C366 C 0.83205 0.82236 0.88245 0.0
C367 C 0.87471 0.84455 0.76857 0.0
H368 H 0.75296 0.84834 0.80054 0.0
H369 H 0.80162 0.92411 0.83783 0.0
H370 H 0.81675 0.80413 0.77803 0.0
H371 H 0.80116 0.79367 0.81695 0.0
H372 H 0.77663 0.80398 0.78366 0.0
H373 H 0.85521 0.92313 0.8424 0.0
H374 H 0.86045 0.89046 0.86778 0.0
H375 H 0.87632 0.89133 0.82738 0.0
H376 H 0.86976 0.77551 0.87745 0.0
H377 H 0.90683 0.79459 0.78238 0.0
H378 H 0.80893 0.8157 0.87537 0.0
H379 H 0.83175 0.84673 0.88801 0.0
H380 H 0.83826 0.80994 0.90513 0.0
H381 H 0.85574 0.83759 0.75262 0.0
H382 H 0.89593 0.84095 0.75479 0.0
H383 H 0.87209 0.86886 0.7737 0.0
C384 C 0.77769 0.1484 0.18411 0.0
C385 C 0.7777 0.11801 0.1755 0.0
C386 C 0.80443 0.16466 0.18608 0.0
C387 C 0.83193 0.15036 0.17835 0.0
C388 C 0.83229 0.11917 0.17139 0.0
C389 C 0.80502 0.10318 0.17034 0.0
C390 C 0.80293 0.19768 0.19448 0.0
C391 C 0.86108 0.10313 0.16295 0.0
C392 C 0.88023 0.21027 0.14128 0.0
C393 C 0.89611 0.22027 0.16883 0.0
C394 C 0.86202 0.18474 0.14296 0.0
C395 C 0.85891 0.16947 0.1733 0.0
C396 C 0.87727 0.17774 0.2003 0.0
C397 C 0.89597 0.20308 0.19764 0.0
C398 C 0.84358 0.1762 0.11325 0.0
C399 C 0.87481 0.16196 0.23298 0.0
H400 H 0.75654 0.15969 0.18869 0.0
H401 H 0.80494 0.0796 0.16377 0.0
H402 H 0.81968 0.20332 0.21369 0.0
H403 H 0.80833 0.2112 0.17234 0.0
H404 H 0.78037 0.20447 0.2034 0.0
H405 H 0.8588 0.07842 0.16573 0.0
H406 H 0.86706 0.10799 0.13702 0.0
H407 H 0.87987 0.11103 0.1786 0.0
H408 H 0.88072 0.22346 0.11886 0.0
H409 H 0.90833 0.21089 0.21896 0.0
H410 H 0.8201 0.18386 0.1168 0.0
H411 H 0.84314 0.15148 0.11003 0.0
H412 H 0.85239 0.1866 0.09039 0.0
H413 H 0.85483 0.17053 0.24628 0.0
H414 H 0.89489 0.16603 0.24854 0.0
H415 H 0.87186 0.13743 0.22964 0.0
C416 C 0.10809 0.20052 0.8019 0.0
C417 C 0.11027 0.219 0.82965 0.0
C418 C 0.12589 0.17453 0.79924 0.0
C419 C 0.14576 0.16695 0.82517 0.0
C420 C 0.1452 0.18378 0.8547 0.0
C421 C 0.12777 0.20985 0.85637 0.0
C422 C 0.12563 0.15708 0.76747 0.0
C423 C 0.16539 0.17612 0.88332 0.0
C424 C 0.19718 0.09889 0.82949 0.0
C425 C 0.22467 0.11232 0.82166 0.0
C426 C 0.17046 0.11579 0.82873 0.0
C427 C 0.17155 0.14643 0.81934 0.0
C428 C 0.19905 0.15909 0.80876 0.0
C429 C 0.22528 0.14199 0.81051 0.0
C430 C 0.14164 0.10149 0.8402 0.0
C431 C 0.20126 0.19141 0.79774 0.0
H432 H 0.09444 0.20764 0.78125 0.0
H433 H 0.12905 0.22399 0.87804 0.0
H434 H 0.14486 0.16432 0.75207 0.0
H435 H 0.12809 0.13267 0.77206 0.0
H436 H 0.10464 0.16104 0.75337 0.0
H437 H 0.15868 0.18815 0.9061 0.0
H438 H 0.16509 0.15164 0.88822 0.0
H439 H 0.18882 0.18253 0.87728 0.0
H440 H 0.19682 0.07585 0.83806 0.0
H441 H 0.24658 0.15214 0.80394 0.0
H442 H 0.12233 0.10911 0.82514 0.0
H443 H 0.13724 0.10826 0.866 0.0
H444 H 0.14289 0.0766 0.83925 0.0
H445 H 0.18351 0.19659 0.77948 0.0
H446 H 0.22343 0.19662 0.78662 0.0
H447 H 0.19788 0.20648 0.81915 0.0
C448 C 0.22629 0.85157 0.18413 0.0
C449 C 0.22625 0.88223 0.1768 0.0
C450 C 0.19959 0.83514 0.18512 0.0
C451 C 0.1721 0.84958 0.17768 0.0
C452 C 0.17171 0.88091 0.17155 0.0
C453 C 0.19893 0.89703 0.17154 0.0
C454 C 0.20109 0.80194 0.19261 0.0
C455 C 0.14296 0.89703 0.16315 0.0
C456 C 0.12236 0.79035 0.14114 0.0
C457 C 0.10641 0.7808 0.16882 0.0
C458 C 0.14118 0.81548 0.14264 0.0
C459 C 0.1449 0.83068 0.17294 0.0
C460 C 0.12669 0.82276 0.20017 0.0
C461 C 0.10731 0.79793 0.19766 0.0
C462 C 0.15943 0.82372 0.11271 0.0
C463 C 0.12998 0.83831 0.23291 0.0
H464 H 0.24743 0.84024 0.18872 0.0
H465 H 0.19897 0.92081 0.16585 0.0
H466 H 0.18442 0.79592 0.21176 0.0
H467 H 0.19555 0.78891 0.17017 0.0
H468 H 0.22369 0.79492 0.20122 0.0
H469 H 0.14538 0.92176 0.1654 0.0
H470 H 0.13661 0.8917 0.13743 0.0
H471 H 0.12432 0.88949 0.17921 0.0
H472 H 0.12134 0.77719 0.11873 0.0
H473 H 0.09497 0.7904 0.2191 0.0
H474 H 0.18276 0.81545 0.11583 0.0
H475 H 0.16044 0.84843 0.10964 0.0
H476 H 0.15006 0.81364 0.08992 0.0
H477 H 0.1503 0.82965 0.24552 0.0
H478 H 0.1103 0.83418 0.24905 0.0
H479 H 0.13288 0.86286 0.22968 0.0
C480 C 0.12268 0.51637 0.29427 0.0
C481 C 0.15192 0.50473 0.29633 0.0
C482 C 0.11678 0.54334 0.27777 0.0
C483 C 0.14068 0.55924 0.26293 0.0
C484 C 0.17027 0.5478 0.26494 0.0
C485 C 0.17555 0.52064 0.28157 0.0
C486 C 0.08486 0.55472 0.27605 0.0
C487 C 0.1963 0.56422 0.24944 0.0
C488 C 0.1178 0.61279 0.19491 0.0
C489 C 0.11603 0.64016 0.21182 0.0
C490 C 0.1267 0.58642 0.21103 0.0
C491 C 0.13432 0.58752 0.24479 0.0
C492 C 0.13369 0.61532 0.26168 0.0
C493 C 0.1244 0.64131 0.24501 0.0
C494 C 0.12683 0.55719 0.19222 0.0
C495 C 0.14191 0.61742 0.29761 0.0
H496 H 0.10418 0.50434 0.30547 0.0
H497 H 0.19821 0.51192 0.28303 0.0
H498 H 0.08342 0.57745 0.28706 0.0
H499 H 0.07772 0.55668 0.25 0.0
H500 H 0.06885 0.53976 0.28906 0.0
H501 H 0.21804 0.55267 0.25374 0.0
H502 H 0.19268 0.56624 0.22254 0.0
H503 H 0.19776 0.58733 0.25946 0.0
H504 H 0.11149 0.61175 0.16921 0.0
H505 H 0.12324 0.66246 0.25814 0.0
H506 H 0.10961 0.54187 0.20255 0.0
H507 H 0.14888 0.54588 0.19482 0.0
H508 H 0.12209 0.56044 0.16564 0.0
H509 H 0.12521 0.60496 0.31253 0.0
H510 H 0.14269 0.64101 0.30642 0.0
H511 H 0.1641 0.60687 0.30202 0.0
C512 C 0.50344 0.88037 0.71775 0.0
C513 C 0.49525 0.85114 0.70847 0.0
C514 C 0.53042 0.88601 0.73427 0.0
C515 C 0.54983 0.86184 0.74178 0.0
C516 C 0.54138 0.83215 0.73344 0.0
C517 C 0.51411 0.82712 0.71692 0.0
C518 C 0.53848 0.91799 0.74299 0.0
C519 C 0.56151 0.80584 0.74121 0.0
C520 C 0.63144 0.88403 0.75293 0.0
C521 C 0.63343 0.8867 0.78718 0.0
C522 C 0.60462 0.87486 0.73785 0.0
C523 C 0.5793 0.86808 0.75755 0.0
C524 C 0.58153 0.86972 0.7922 0.0
C525 C 0.60856 0.8791 0.8066 0.0
C526 C 0.60307 0.8735 0.7008 0.0
C527 C 0.55509 0.86255 0.81403 0.0
H528 H 0.4889 0.89907 0.71169 0.0
H529 H 0.508 0.80448 0.70982 0.0
H530 H 0.54298 0.91989 0.76974 0.0
H531 H 0.55931 0.92464 0.72996 0.0
H532 H 0.52044 0.93411 0.73641 0.0
H533 H 0.55095 0.78402 0.73479 0.0
H534 H 0.58285 0.80798 0.72736 0.0
H535 H 0.56727 0.8057 0.76774 0.0
H536 H 0.65063 0.8898 0.73783 0.0
H537 H 0.61004 0.88092 0.83313 0.0
H538 H 0.58715 0.89074 0.69167 0.0
H539 H 0.59448 0.85131 0.69275 0.0
H540 H 0.62527 0.87741 0.68914 0.0
H541 H 0.53715 0.87946 0.8102 0.0
H542 H 0.56124 0.86242 0.8405 0.0
H543 H 0.54556 0.84032 0.80752 0.0
C544 C 0.88088 0.36337 0.24302 0.0
C545 C 0.88456 0.36221 0.20883 0.0
C546 C 0.87252 0.39019 0.25868 0.0
C547 C 0.86775 0.41639 0.23965 0.0
C548 C 0.87049 0.41506 0.20503 0.0
C549 C 0.87885 0.38797 0.19004 0.0
C550 C 0.86977 0.39074 0.29568 0.0
C551 C 0.86558 0.44249 0.1839 0.0
C552 C 0.8269 0.48219 0.279 0.0
C553 C 0.85095 0.50028 0.28922 0.0
C554 C 0.83197 0.45488 0.26261 0.0
C555 C 0.86176 0.44559 0.25611 0.0
C556 C 0.88608 0.46407 0.26564 0.0
C557 C 0.88039 0.49112 0.28211 0.0
C558 C 0.8055 0.43571 0.25282 0.0
C559 C 0.91818 0.45507 0.25885 0.0
H560 H 0.88523 0.34352 0.25766 0.0
H561 H 0.88153 0.38718 0.16357 0.0
H562 H 0.88727 0.40564 0.30618 0.0
H563 H 0.84766 0.40003 0.30299 0.0
H564 H 0.87229 0.36806 0.30669 0.0
H565 H 0.8667 0.43725 0.15723 0.0
H566 H 0.84341 0.45267 0.18933 0.0
H567 H 0.8829 0.4596 0.18962 0.0
H568 H 0.80409 0.489 0.28446 0.0
H569 H 0.89914 0.505 0.28965 0.0
H570 H 0.80666 0.41378 0.26566 0.0
H571 H 0.80618 0.43103 0.22604 0.0
H572 H 0.78371 0.44652 0.2588 0.0
H573 H 0.92336 0.43367 0.27159 0.0
H574 H 0.9345 0.47234 0.26711 0.0
H575 H 0.92142 0.45119 0.23214 0.0
C576 C 0.49824 0.12343 0.72991 0.0
C577 C 0.50524 0.15269 0.71965 0.0
C578 C 0.47127 0.11714 0.74616 0.0
C579 C 0.45073 0.14067 0.75238 0.0
C580 C 0.45818 0.17048 0.74346 0.0
C581 C 0.48543 0.17617 0.72722 0.0
C582 C 0.46428 0.08508 0.75555 0.0
C583 C 0.43686 0.19614 0.74992 0.0
C584 C 0.36947 0.11624 0.76024 0.0
C585 C 0.36617 0.11437 0.79441 0.0
C586 C 0.39666 0.12568 0.74621 0.0
C587 C 0.42097 0.1336 0.76692 0.0
C588 C 0.4174 0.13269 0.80146 0.0
C589 C 0.39006 0.12296 0.8148 0.0
C590 C 0.39968 0.12621 0.70924 0.0
C591 C 0.44274 0.14114 0.82432 0.0
H592 H 0.51357 0.10519 0.72452 0.0
H593 H 0.49063 0.19881 0.71934 0.0
H594 H 0.4586 0.08367 0.78205 0.0
H595 H 0.44443 0.07712 0.74157 0.0
H596 H 0.48334 0.06966 0.75052 0.0
H597 H 0.44696 0.21825 0.74387 0.0
H598 H 0.41627 0.19319 0.73491 0.0
H599 H 0.42988 0.19626 0.77609 0.0
H600 H 0.35105 0.10965 0.7444 0.0
H601 H 0.38755 0.12174 0.84127 0.0
H602 H 0.41671 0.1095 0.70142 0.0
H603 H 0.40759 0.14857 0.70096 0.0
H604 H 0.37818 0.12103 0.69663 0.0
H605 H 0.46141 0.12485 0.82162 0.0
H606 H 0.4356 0.14144 0.85049 0.0
H607 H 0.45168 0.1636 0.81781 0.0
C608 C 0.12124 0.48943 0.71313 0.0
C609 C 0.15045 0.49947 0.70633 0.0
C610 C 0.11622 0.46219 0.72949 0.0
C611 C 0.141 0.44439 0.73915 0.0
C612 C 0.17055 0.45443 0.73265 0.0
C613 C 0.17494 0.48193 0.71643 0.0
C614 C 0.08436 0.4524 0.73627 0.0
C615 C 0.19749 0.43596 0.74253 0.0
C616 C 0.12566 0.3873 0.80626 0.0
C617 C 0.12052 0.36114 0.78794 0.0
C618 C 0.1332 0.41439 0.79076 0.0
C619 C 0.13576 0.41528 0.7561 0.0
C620 C 0.13158 0.3887 0.73754 0.0
C621 C 0.12397 0.36192 0.7537 0.0
C622 C 0.13741 0.44225 0.8114 0.0
C623 C 0.13422 0.38878 0.70054 0.0
H624 H 0.10215 0.50288 0.70566 0.0
H625 H 0.19758 0.48941 0.71119 0.0
H626 H 0.07984 0.43064 0.72396 0.0
H627 H 0.08112 0.44891 0.76304 0.0
H628 H 0.06759 0.46906 0.72758 0.0
H629 H 0.219 0.44705 0.73598 0.0
H630 H 0.19719 0.43187 0.76943 0.0
H631 H 0.19661 0.41373 0.73028 0.0
H632 H 0.12314 0.38683 0.83276 0.0
H633 H 0.12007 0.34175 0.73943 0.0
H634 H 0.1197 0.45887 0.80533 0.0
H635 H 0.15934 0.45286 0.80583 0.0
H636 H 0.13636 0.43741 0.83816 0.0
H637 H 0.1163 0.40305 0.68984 0.0
H638 H 0.13228 0.36588 0.68993 0.0
H639 H 0.15605 0.39855 0.69298 0.0
C640 C 0.3945 0.88212 0.19341 0.0
C641 C 0.36751 0.8831 0.2111 0.0
C642 C 0.42149 0.87402 0.20878 0.0
C643 C 0.42141 0.86638 0.24255 0.0
C644 C 0.39402 0.8662 0.26022 0.0
C645 C 0.3674 0.87474 0.24431 0.0
C646 C 0.45026 0.87478 0.18918 0.0
C647 C 0.39301 0.85792 0.29619 0.0
C648 C 0.49021 0.82787 0.27865 0.0
C649 C 0.50528 0.85217 0.29315 0.0
C650 C 0.46281 0.83205 0.26211 0.0
C651 C 0.45027 0.8612 0.26001 0.0
C652 C 0.46542 0.88578 0.27443 0.0
C653 C 0.49266 0.88099 0.29077 0.0
C654 C 0.44721 0.80533 0.24699 0.0
C655 C 0.45284 0.91725 0.27263 0.0
H656 H 0.39473 0.88845 0.16769 0.0
H657 H 0.34654 0.87523 0.25801 0.0
H658 H 0.46515 0.89265 0.19892 0.0
H659 H 0.46243 0.85319 0.19167 0.0
H660 H 0.44622 0.87917 0.16266 0.0
H661 H 0.36966 0.85631 0.30561 0.0
H662 H 0.40443 0.83612 0.30032 0.0
H663 H 0.40518 0.87508 0.3108 0.0
H664 H 0.49971 0.80553 0.28034 0.0
H665 H 0.50403 0.9 0.30177 0.0
H666 H 0.44432 0.80889 0.22018 0.0
H667 H 0.42447 0.8028 0.25772 0.0
H668 H 0.45984 0.78412 0.25086 0.0
H669 H 0.45 0.92405 0.24657 0.0
H670 H 0.46749 0.93396 0.28503 0.0
H671 H 0.43035 0.91798 0.28429 0.0
C672 C 0.82584 0.51915 0.71736 0.0
C673 C 0.85002 0.50389 0.70285 0.0
C674 C 0.83018 0.54662 0.73372 0.0
C675 C 0.85939 0.55902 0.73573 0.0
C676 C 0.88382 0.5438 0.7211 0.0
C677 C 0.87885 0.51652 0.70484 0.0
C678 C 0.80359 0.56233 0.74897 0.0
C679 C 0.91536 0.55619 0.72285 0.0
C680 C 0.87347 0.64154 0.75355 0.0
C681 C 0.88175 0.64066 0.78678 0.0
C682 C 0.86482 0.61529 0.73691 0.0
C683 C 0.86483 0.58752 0.75385 0.0
C684 C 0.87234 0.58668 0.78765 0.0
C685 C 0.88051 0.61329 0.80375 0.0
C686 C 0.85665 0.61713 0.70095 0.0
C687 C 0.87294 0.55748 0.80651 0.0
H688 H 0.80347 0.50968 0.71592 0.0
H689 H 0.89776 0.50501 0.69381 0.0
H690 H 0.80696 0.56449 0.77589 0.0
H691 H 0.80154 0.58538 0.73889 0.0
H692 H 0.78222 0.55015 0.74451 0.0
H693 H 0.93187 0.54171 0.70992 0.0
H694 H 0.9161 0.57892 0.71176 0.0
H695 H 0.92238 0.55846 0.7489 0.0
H696 H 0.8742 0.66268 0.74038 0.0
H697 H 0.88675 0.61244 0.82948 0.0
H698 H 0.83483 0.60586 0.69645 0.0
H699 H 0.87379 0.60522 0.68609 0.0
H700 H 0.85514 0.64068 0.69215 0.0
H701 H 0.85122 0.54557 0.80383 0.0
H702 H 0.87749 0.5609 0.8331 0.0
H703 H 0.89061 0.54263 0.79628 0.0
C704 C 0.6118 0.12923 0.18287 0.0
C705 C 0.63553 0.11994 0.20311 0.0
C706 C 0.58416 0.13797 0.19632 0.0
C707 C 0.58011 0.1371 0.2308 0.0
C708 C 0.60427 0.1285 0.2514 0.0
C709 C 0.63177 0.12014 0.23729 0.0
C710 C 0.55903 0.14722 0.17358 0.0
C711 C 0.60074 0.1271 0.28829 0.0
C712 C 0.51429 0.17634 0.27203 0.0
C713 C 0.49485 0.15214 0.27781 0.0
C714 C 0.54187 0.17201 0.25591 0.0
C715 C 0.55001 0.14286 0.24524 0.0
C716 C 0.52984 0.11867 0.24966 0.0
C717 C 0.50256 0.1236 0.26587 0.0
C718 C 0.56277 0.19835 0.25145 0.0
C719 C 0.53755 0.08729 0.23836 0.0
H720 H 0.61468 0.1293 0.15641 0.0
H721 H 0.65005 0.11297 0.25302 0.0
H722 H 0.54066 0.13045 0.17479 0.0
H723 H 0.54953 0.1691 0.18142 0.0
H724 H 0.56657 0.14913 0.14763 0.0
H725 H 0.62216 0.1217 0.30094 0.0
H726 H 0.59225 0.14883 0.2978 0.0
H727 H 0.58396 0.10968 0.29478 0.0
H728 H 0.50855 0.19844 0.28123 0.0
H729 H 0.48753 0.10483 0.26987 0.0
H730 H 0.57017 0.19993 0.22547 0.0
H731 H 0.58317 0.19503 0.26668 0.0
H732 H 0.55214 0.21993 0.25863 0.0
H733 H 0.54359 0.08739 0.2119 0.0
H734 H 0.51874 0.07129 0.2421 0.0
H735 H 0.55738 0.07897 0.25211 0.0
C736 C 0.67419 0.01903 0.77842 0.0
C737 C 0.64978 0.00332 0.79185 0.0
C738 C 0.66993 0.04628 0.76164 0.0
C739 C 0.64058 0.05802 0.7581 0.0
C740 C 0.61585 0.04216 0.77129 0.0
C741 C 0.62075 0.01508 0.78799 0.0
C742 C 0.69681 0.06262 0.74787 0.0
C743 C 0.58417 0.05386 0.7679 0.0
C744 C 0.62633 0.1408 0.74232 0.0
C745 C 0.619 0.14072 0.70881 0.0
C746 C 0.63457 0.11418 0.75845 0.0
C747 C 0.63543 0.08689 0.74061 0.0
C748 C 0.62915 0.08691 0.7065 0.0
C749 C 0.62106 0.11385 0.691 0.0
C750 C 0.6412 0.11507 0.79484 0.0
C751 C 0.62978 0.05828 0.68664 0.0
H752 H 0.69671 0.01021 0.78127 0.0
H753 H 0.60167 0.00315 0.79808 0.0
H754 H 0.69412 0.06579 0.72098 0.0
H755 H 0.69847 0.08528 0.75905 0.0
H756 H 0.71813 0.0504 0.75246 0.0
H757 H 0.56737 0.03868 0.77933 0.0
H758 H 0.58231 0.07627 0.77962 0.0
H759 H 0.57843 0.05667 0.74153 0.0
H760 H 0.62487 0.16151 0.7562 0.0
H761 H 0.61557 0.11366 0.66504 0.0
H762 H 0.66299 0.10401 0.80006 0.0
H763 H 0.62364 0.10246 0.80837 0.0
H764 H 0.64193 0.13837 0.80455 0.0
H765 H 0.65142 0.04643 0.69026 0.0
H766 H 0.62658 0.06245 0.65994 0.0
H767 H 0.61173 0.04303 0.69523 0.0
C768 C 0.11186 0.38435 0.30522 0.0
C769 C 0.13774 0.3896 0.28648 0.0
C770 C 0.08484 0.37578 0.29023 0.0
C771 C 0.08373 0.37227 0.25568 0.0
C772 C 0.10998 0.37683 0.2367 0.0
C773 C 0.1367 0.3855 0.25234 0.0
C774 C 0.05731 0.37123 0.31129 0.0
C775 C 0.10966 0.37321 0.19979 0.0
C776 C 0.01846 0.32949 0.21777 0.0
C777 C 0.99999 0.35301 0.20692 0.0
C778 C 0.04578 0.33537 0.23378 0.0
C779 C 0.05471 0.36546 0.23925 0.0
C780 C 0.03592 0.38926 0.22895 0.0
C781 C 0.00886 0.38276 0.21289 0.0
C782 C 0.0653 0.30943 0.24441 0.0
C783 C 0.04454 0.42166 0.2346 0.0
H784 H 0.11254 0.38738 0.33164 0.0
H785 H 0.15667 0.38946 0.23776 0.0
H786 H 0.03993 0.38799 0.30459 0.0
H787 H 0.04759 0.34868 0.30679 0.0
H788 H 0.06227 0.37348 0.33794 0.0
H789 H 0.13232 0.37595 0.18881 0.0
H790 H 0.10088 0.35073 0.19306 0.0
H791 H 0.09443 0.39012 0.18871 0.0
H792 H 0.01188 0.30644 0.21318 0.0
H793 H 0.99471 0.40113 0.20484 0.0
H794 H 0.0697 0.31074 0.27122 0.0
H795 H 0.08734 0.3107 0.2318 0.0
H796 H 0.05492 0.28734 0.23884 0.0
H797 H 0.04823 0.42575 0.2612 0.0
H798 H 0.02713 0.43753 0.22565 0.0
H799 H 0.06594 0.42668 0.22181 0.0
C800 C 0.37921 0.98576 0.79547 0.0
C801 C 0.35017 0.99776 0.79819 0.0
C802 C 0.38456 0.95925 0.77784 0.0
C803 C 0.3603 0.94423 0.76258 0.0
C804 C 0.33092 0.95605 0.76528 0.0
C805 C 0.3262 0.98272 0.78299 0.0
C806 C 0.41626 0.9474 0.77541 0.0
C807 C 0.30451 0.94056 0.74939 0.0
C808 C 0.38068 0.89213 0.69225 0.0
C809 C 0.38157 0.86418 0.70805 0.0
C810 C 0.3731 0.91829 0.70955 0.0
C811 C 0.36596 0.91639 0.74339 0.0
C812 C 0.36583 0.88809 0.75922 0.0
C813 C 0.37377 0.8623 0.74137 0.0
C814 C 0.37368 0.94808 0.69185 0.0
C815 C 0.35813 0.88516 0.79522 0.0
H816 H 0.39794 0.99715 0.80701 0.0
H817 H 0.30367 0.99171 0.78497 0.0
H818 H 0.4174 0.92434 0.7856 0.0
H819 H 0.42318 0.94608 0.74925 0.0
H820 H 0.43263 0.9617 0.78881 0.0
H821 H 0.28301 0.95237 0.75422 0.0
H822 H 0.30794 0.93922 0.72241 0.0
H823 H 0.30267 0.91721 0.75864 0.0
H824 H 0.3866 0.89373 0.66647 0.0
H825 H 0.37431 0.84073 0.75368 0.0
H826 H 0.39126 0.96266 0.70273 0.0
H827 H 0.3519 0.95981 0.69492 0.0
H828 H 0.37831 0.94555 0.66516 0.0
H829 H 0.37523 0.89699 0.81025 0.0
H830 H 0.35713 0.86136 0.80331 0.0
H831 H 0.33617 0.89591 0.80035 0.0
C832 C 0.88815 0.62047 0.30916 0.0
C833 C 0.86178 0.61671 0.29079 0.0
C834 C 0.91503 0.62932 0.29405 0.0
C835 C 0.9155 0.63468 0.25977 0.0
C836 C 0.88867 0.63207 0.2413 0.0
C837 C 0.8621 0.62305 0.25704 0.0
C838 C 0.94316 0.63177 0.31458 0.0
C839 C 0.88826 0.63771 0.20471 0.0
C840 C 0.98245 0.67529 0.22227 0.0
C841 C 0.99935 0.65121 0.20991 0.0
C842 C 0.9551 0.67032 0.23865 0.0
C843 C 0.94451 0.6406 0.24285 0.0
C844 C 0.96168 0.61622 0.23091 0.0
C845 C 0.98881 0.62181 0.21462 0.0
C846 C 0.93736 0.69686 0.25111 0.0
C847 C 0.95125 0.58417 0.23506 0.0
H848 H 0.88803 0.61577 0.33529 0.0
H849 H 0.84176 0.6203 0.24275 0.0
H850 H 0.95941 0.61424 0.30691 0.0
H851 H 0.95407 0.65385 0.3106 0.0
H852 H 0.93858 0.62904 0.34125 0.0
H853 H 0.86518 0.63714 0.19442 0.0
H854 H 0.89843 0.65985 0.19909 0.0
H855 H 0.90194 0.62041 0.19204 0.0
H856 H 0.99031 0.69808 0.21871 0.0
H857 H 0.00169 0.60298 0.20536 0.0
H858 H 0.9335 0.69466 0.27794 0.0
H859 H 0.91502 0.69738 0.2391 0.0
H860 H 0.9489 0.71853 0.24634 0.0
H861 H 0.948 0.57906 0.26152 0.0
H862 H 0.96742 0.56772 0.22468 0.0
H863 H 0.92926 0.58102 0.22273 0.0
C864 C 0.62191 0.99266 0.20042 0.0
C865 C 0.6511 0.00426 0.19763 0.0
C866 C 0.61632 0.9659 0.21747 0.0
C867 C 0.6405 0.95022 0.23206 0.0
C868 C 0.67003 0.96168 0.22936 0.0
C869 C 0.67498 0.98861 0.21225 0.0
C870 C 0.58448 0.95447 0.21997 0.0
C871 C 0.69636 0.94547 0.24455 0.0
C872 C 0.62068 0.89652 0.30108 0.0
C873 C 0.61954 0.86897 0.28447 0.0
C874 C 0.62801 0.92308 0.28443 0.0
C875 C 0.63467 0.92198 0.25043 0.0
C876 C 0.63436 0.8941 0.23372 0.0
C877 C 0.62665 0.86791 0.25093 0.0
C878 C 0.62787 0.95242 0.30304 0.0
C879 C 0.64157 0.89203 0.19752 0.0
H880 H 0.60325 0.00455 0.18936 0.0
H881 H 0.69762 0.99729 0.2102 0.0
H882 H 0.58289 0.9317 0.20906 0.0
H883 H 0.57785 0.95255 0.24618 0.0
H884 H 0.56819 0.96936 0.20727 0.0
H885 H 0.71797 0.95716 0.23994 0.0
H886 H 0.69308 0.94345 0.2715 0.0
H887 H 0.69788 0.92236 0.23453 0.0
H888 H 0.61526 0.89747 0.32703 0.0
H889 H 0.62592 0.84663 0.23803 0.0
H890 H 0.61047 0.96752 0.29267 0.0
H891 H 0.6498 0.96392 0.30026 0.0
H892 H 0.62327 0.94928 0.32966 0.0
H893 H 0.62458 0.90465 0.18315 0.0
H894 H 0.64198 0.86846 0.18861 0.0
H895 H 0.66371 0.90245 0.19248 0.0
C896 C 0.86798 0.37892 0.7463 0.0
C897 C 0.86826 0.38837 0.71346 0.0
C898 C 0.89457 0.36996 0.76203 0.0
C899 C 0.92205 0.37097 0.74459 0.0
C900 C 0.92236 0.38013 0.71129 0.0
C901 C 0.8954 0.38849 0.69605 0.0
C902 C 0.89333 0.35998 0.79747 0.0
C903 C 0.95127 0.3819 0.692 0.0
C904 C 0.99358 0.38107 0.79376 0.0
C905 C 0.0055 0.35187 0.79402 0.0
C906 C 0.96645 0.38748 0.77783 0.0
C907 C 0.95074 0.36417 0.76167 0.0
C908 C 0.96262 0.3347 0.76158 0.0
C909 C 0.98988 0.32888 0.77775 0.0
C910 C 0.95456 0.41924 0.77838 0.0
C911 C 0.94644 0.30931 0.74452 0.0
H912 H 0.84699 0.37859 0.75976 0.0
H913 H 0.89576 0.39574 0.67063 0.0
H914 H 0.90406 0.33765 0.80021 0.0
H915 H 0.90609 0.37595 0.81305 0.0
H916 H 0.86997 0.35862 0.80687 0.0
H917 H 0.9475 0.38835 0.66595 0.0
H918 H 0.96644 0.39866 0.70344 0.0
H919 H 0.96301 0.35995 0.6926 0.0
H920 H 0.00537 0.39906 0.80619 0.0
H921 H 0.99882 0.30626 0.7778 0.0
H922 H 0.9321 0.41973 0.79011 0.0
H923 H 0.95184 0.42767 0.75289 0.0
H924 H 0.96958 0.43483 0.79195 0.0
H925 H 0.92362 0.30666 0.75503 0.0
H926 H 0.95857 0.28763 0.74683 0.0
H927 H 0.94369 0.31456 0.71803 0.0
C928 C 0.37823 0.1092 0.30489 0.0
C929 C 0.38038 0.13628 0.28749 0.0
C930 C 0.37016 0.08246 0.289 0.0
C931 C 0.36396 0.08284 0.25488 0.0
C932 C 0.36492 0.11033 0.23742 0.0
C933 C 0.37317 0.13676 0.25395 0.0
C934 C 0.36946 0.05361 0.30847 0.0
C935 C 0.35836 0.11163 0.20104 0.0
C936 C 0.37892 0.01103 0.20766 0.0
C937 C 0.34996 0.99902 0.20406 0.0
C938 C 0.38367 0.03831 0.224 0.0
C939 C 0.35888 0.05414 0.23708 0.0
C940 C 0.32958 0.04224 0.23363 0.0
C941 C 0.32546 0.01478 0.21722 0.0
C942 C 0.41531 0.05016 0.22734 0.0
C943 C 0.30262 0.05856 0.24726 0.0
H944 H 0.38361 0.10869 0.33087 0.0
H945 H 0.37471 0.15765 0.2404 0.0
H946 H 0.34777 0.04188 0.30475 0.0
H947 H 0.38745 0.03839 0.29965 0.0
H948 H 0.37272 0.05747 0.33522 0.0
H949 H 0.35757 0.13503 0.19167 0.0
H950 H 0.37598 0.09923 0.18736 0.0
H951 H 0.33661 0.10056 0.19561 0.0
H952 H 0.39807 0.99908 0.19774 0.0
H953 H 0.303 0.00578 0.21451 0.0
H954 H 0.42115 0.05272 0.25371 0.0
H955 H 0.417 0.0727 0.2159 0.0
H956 H 0.43214 0.03518 0.21564 0.0
H957 H 0.30505 0.0614 0.27423 0.0
H958 H 0.2813 0.04648 0.24224 0.0
H959 H 0.30117 0.08136 0.2364 0.0
C960 C 0.10864 0.61733 0.69279 0.0
C961 C 0.13556 0.61609 0.7106 0.0
C962 C 0.08178 0.62632 0.70783 0.0
C963 C 0.08191 0.63464 0.7414 0.0
C964 C 0.10925 0.63456 0.75919 0.0
C965 C 0.13575 0.62508 0.74361 0.0
C966 C 0.05307 0.62579 0.6881 0.0
C967 C 0.11034 0.64359 0.79495 0.0
C968 C 0.01383 0.6756 0.776 0.0
C969 C 0.99811 0.65201 0.79109 0.0
C970 C 0.04121 0.67038 0.75975 0.0
C971 C 0.05309 0.64091 0.75854 0.0
C972 C 0.03723 0.61703 0.77345 0.0
C973 C 0.01002 0.62284 0.78947 0.0
C974 C 0.05752 0.69638 0.74406 0.0
C975 C 0.04907 0.58524 0.77261 0.0
H976 H 0.10833 0.61054 0.66721 0.0
H977 H 0.15655 0.62439 0.75741 0.0
H978 H 0.03771 0.60853 0.69827 0.0
H979 H 0.04143 0.64773 0.68992 0.0
H980 H 0.05708 0.62067 0.66173 0.0
H981 H 0.13369 0.64485 0.80444 0.0
H982 H 0.09942 0.66573 0.79845 0.0
H983 H 0.09772 0.62705 0.80992 0.0
H984 H 0.00491 0.69821 0.77712 0.0
H985 H 0.99817 0.60437 0.80093 0.0
H986 H 0.06057 0.69211 0.7174 0.0
H987 H 0.08022 0.69866 0.75499 0.0
H988 H 0.04533 0.71794 0.74719 0.0
H989 H 0.05196 0.5778 0.74677 0.0
H990 H 0.03394 0.56917 0.7853 0.0
H991 H 0.07145 0.58425 0.78451 0.0
C992 C 0.22729 0.52544 0.57038 0.0
C993 C 0.2032 0.54572 0.56944 0.0
C994 C 0.23452 0.50787 0.54273 0.0
C995 C 0.2172 0.51077 0.51371 0.0
C996 C 0.19484 0.5333 0.51178 0.0
C997 C 0.18812 0.55044 0.53965 0.0
C998 C 0.25899 0.48463 0.54557 0.0
C999 C 0.17612 0.53758 0.48116 0.0
C1000 C 0.22905 0.47529 0.43018 0.0
C1001 C 0.20658 0.45323 0.43072 0.0
C1002 C 0.23518 0.49262 0.45831 0.0
C1003 C 0.21844 0.48761 0.48739 0.0
C1004 C 0.19825 0.46311 0.48896 0.0
C1005 C 0.19253 0.44628 0.46058 0.0
C1006 C 0.25748 0.51799 0.4559 0.0
C1007 C 0.18035 0.45651 0.51965 0.0
H1008 H 0.2392 0.52179 0.59328 0.0
H1009 H 0.16988 0.56651 0.53856 0.0
H1010 H 0.24879 0.46251 0.55125 0.0
H1011 H 0.27155 0.48235 0.52215 0.0
H1012 H 0.27501 0.49024 0.56557 0.0
H1013 H 0.16188 0.55801 0.4825 0.0
H1014 H 0.1907 0.53928 0.45915 0.0
H1015 H 0.16125 0.51783 0.47771 0.0
H1016 H 0.24019 0.48064 0.40722 0.0
H1017 H 0.1756 0.42882 0.4613 0.0
H1018 H 0.27025 0.52056 0.47914 0.0
H1019 H 0.24529 0.53931 0.45137 0.0
H1020 H 0.27353 0.51445 0.43536 0.0
H1021 H 0.19512 0.45642 0.54158 0.0
H1022 H 0.16859 0.43456 0.51818 0.0
H1023 H 0.16329 0.47437 0.52327 0.0
C1024 C 0.53227 0.78058 0.42892 0.0
C1025 C 0.55405 0.80332 0.42993 0.0
C1026 C 0.51413 0.77462 0.45644 0.0
C1027 C 0.51814 0.79169 0.48548 0.0
C1028 C 0.54224 0.81231 0.48761 0.0
C1029 C 0.5598 0.81797 0.45975 0.0
C1030 C 0.48903 0.75208 0.45337 0.0
C1031 C 0.54777 0.83053 0.51834 0.0
C1032 C 0.45347 0.82009 0.53644 0.0
C1033 C 0.4575 0.80435 0.56592 0.0
C1034 C 0.4716 0.81431 0.50906 0.0
C1035 C 0.49452 0.79238 0.51128 0.0
C1036 C 0.49705 0.77463 0.54002 0.0
C1037 C 0.47839 0.78079 0.56708 0.0
C1038 C 0.46769 0.83339 0.47865 0.0
C1039 C 0.52089 0.75077 0.5432 0.0
H1040 H 0.52778 0.76906 0.40595 0.0
H1041 H 0.57698 0.83518 0.46081 0.0
H1042 H 0.48625 0.73912 0.47645 0.0
H1043 H 0.46766 0.7641 0.44861 0.0
H1044 H 0.493 0.73619 0.43276 0.0
H1045 H 0.5696 0.84255 0.5175 0.0
H1046 H 0.52962 0.84739 0.52122 0.0
H1047 H 0.54744 0.81591 0.54039 0.0
H1048 H 0.43698 0.83795 0.5352 0.0
H1049 H 0.48155 0.76844 0.58978 0.0
H1050 H 0.46698 0.81909 0.45635 0.0
H1051 H 0.48713 0.84879 0.47613 0.0
H1052 H 0.44688 0.84709 0.47956 0.0
H1053 H 0.52358 0.73815 0.51988 0.0
H1054 H 0.51564 0.7347 0.56327 0.0
H1055 H 0.54272 0.76158 0.54886 0.0
C1056 C 0.77468 0.51941 0.42867 0.0
C1057 C 0.79867 0.53983 0.42939 0.0
C1058 C 0.7678 0.5018 0.45638 0.0
C1059 C 0.78537 0.50477 0.4852 0.0
C1060 C 0.80776 0.52728 0.48687 0.0
C1061 C 0.8141 0.54449 0.45898 0.0
C1062 C 0.74328 0.47857 0.45385 0.0
C1063 C 0.82679 0.53161 0.51727 0.0
C1064 C 0.77438 0.4707 0.56938 0.0
C1065 C 0.79703 0.44882 0.56901 0.0
C1066 C 0.76778 0.4874 0.54095 0.0
C1067 C 0.78418 0.48188 0.51176 0.0
C1068 C 0.80441 0.4574 0.51042 0.0
C1069 C 0.81066 0.44125 0.53911 0.0
C1070 C 0.74546 0.51277 0.54313 0.0
C1071 C 0.82192 0.45025 0.4796 0.0
H1072 H 0.76247 0.51584 0.40596 0.0
H1073 H 0.83223 0.5607 0.45993 0.0
H1074 H 0.75339 0.45648 0.44784 0.0
H1075 H 0.73106 0.47619 0.47747 0.0
H1076 H 0.72697 0.48428 0.43416 0.0
H1077 H 0.84123 0.55188 0.51562 0.0
H1078 H 0.81239 0.53365 0.53939 0.0
H1079 H 0.84147 0.51174 0.52078 0.0
H1080 H 0.76356 0.4765 0.59239 0.0
H1081 H 0.82772 0.42389 0.53858 0.0
H1082 H 0.73238 0.51486 0.52003 0.0
H1083 H 0.75766 0.5342 0.54695 0.0
H1084 H 0.7297 0.50962 0.564 0.0
H1085 H 0.80691 0.45 0.45786 0.0
H1086 H 0.8335 0.42822 0.48126 0.0
H1087 H 0.83909 0.46791 0.4755 0.0
C1088 C 0.45822 0.22218 0.4379 0.0
C1089 C 0.46746 0.1964 0.42096 0.0
C1090 C 0.47092 0.2295 0.46857 0.0
C1091 C 0.49353 0.21077 0.48197 0.0
C1092 C 0.50457 0.18624 0.46343 0.0
C1093 C 0.49117 0.1792 0.43335 0.0
C1094 C 0.45861 0.25586 0.48752 0.0
C1095 C 0.52912 0.16603 0.47637 0.0
C1096 C 0.54225 0.22353 0.55681 0.0
C1097 C 0.5294 0.20277 0.57843 0.0
C1098 C 0.5292 0.22888 0.52587 0.0
C1099 C 0.50267 0.2133 0.51698 0.0
C1100 C 0.48807 0.19486 0.54039 0.0
C1101 C 0.50189 0.18948 0.57068 0.0
C1102 C 0.54534 0.24883 0.5017 0.0
C1103 C 0.45937 0.1784 0.5323 0.0
H1104 H 0.43994 0.23556 0.42817 0.0
H1105 H 0.4987 0.15959 0.41986 0.0
H1106 H 0.44258 0.24761 0.50632 0.0
H1107 H 0.47676 0.26805 0.50057 0.0
H1108 H 0.44656 0.27181 0.4712 0.0
H1109 H 0.53751 0.15024 0.45733 0.0
H1110 H 0.54829 0.17955 0.48551 0.0
H1111 H 0.52043 0.15268 0.49734 0.0
H1112 H 0.56359 0.23378 0.56301 0.0
H1113 H 0.49191 0.17366 0.58775 0.0
H1114 H 0.52921 0.26224 0.48701 0.0
H1115 H 0.55837 0.23467 0.48438 0.0
H1116 H 0.56117 0.26429 0.51429 0.0
H1117 H 0.44322 0.19356 0.51986 0.0
H1118 H 0.44853 0.16897 0.55462 0.0
H1119 H 0.46438 0.15963 0.51522 0.0
C1120 C 0.72951 0.02925 0.06562 0.0
C1121 C 0.7082 0.05237 0.0636 0.0
C1122 C 0.73555 0.01091 0.03825 0.0
C1123 C 0.71994 0.016 0.00843 0.0
C1124 C 0.70122 0.04153 0.00537 0.0
C1125 C 0.69551 0.05933 0.03304 0.0
C1126 C 0.75636 0.98446 0.04225 0.0
C1127 C 0.68462 0.04829 0.97385 0.0
C1128 C 0.72807 0.9751 0.9271 0.0
C1129 C 0.70279 0.95631 0.92818 0.0
C1130 C 0.73588 0.99302 0.9543 0.0
C1131 C 0.71789 0.99208 0.98298 0.0
C1132 C 0.69421 0.97097 0.98519 0.0
C1133 C 0.68701 0.95335 0.95782 0.0
C1134 C 0.76181 0.01458 0.95125 0.0
C1135 C 0.67467 0.9688 0.01546 0.0
H1136 H 0.73957 0.02387 0.08917 0.0
H1137 H 0.67948 0.07758 0.03124 0.0
H1138 H 0.74292 0.96399 0.04721 0.0
H1139 H 0.76949 0.98045 0.0195 0.0
H1140 H 0.7721 0.98778 0.06312 0.0
H1141 H 0.67417 0.07093 0.97418 0.0
H1142 H 0.69999 0.04689 0.95247 0.0
H1143 H 0.66664 0.03138 0.97019 0.0
H1144 H 0.74058 0.97736 0.90438 0.0
H1145 H 0.66785 0.93841 0.95909 0.0
H1146 H 0.77381 0.01714 0.975 0.0
H1147 H 0.75319 0.03699 0.94401 0.0
H1148 H 0.77803 0.0071 0.9322 0.0
H1149 H 0.68869 0.96684 0.03788 0.0
H1150 H 0.65918 0.94929 0.01447 0.0
H1151 H 0.66104 0.98954 0.01785 0.0
C1152 C 0.02912 0.27395 0.92965 0.0
C1153 C 0.05067 0.29692 0.93043 0.0
C1154 C 0.01167 0.26748 0.95754 0.0
C1155 C 0.01601 0.28441 0.98661 0.0
C1156 C 0.03989 0.3053 0.98842 0.0
C1157 C 0.05689 0.31133 0.96028 0.0
C1158 C 0.98696 0.24446 0.95492 0.0
C1159 C 0.04573 0.32345 0.01915 0.0
C1160 C 0.95257 0.31297 0.03881 0.0
C1161 C 0.95795 0.29817 0.06862 0.0
C1162 C 0.96969 0.30659 0.01087 0.0
C1163 C 0.99281 0.28487 0.01279 0.0
C1164 C 0.99636 0.26771 0.04181 0.0
C1165 C 0.97882 0.27458 0.06953 0.0
C1166 C 0.96473 0.32506 0.98019 0.0
C1167 C 0.02024 0.24384 0.04455 0.0
H1168 H 0.0244 0.26246 0.90673 0.0
H1169 H 0.07401 0.32859 0.96123 0.0
H1170 H 0.9844 0.23179 0.97823 0.0
H1171 H 0.96539 0.25602 0.9499 0.0
H1172 H 0.99123 0.22836 0.93459 0.0
H1173 H 0.0672 0.33605 0.01779 0.0
H1174 H 0.02722 0.33979 0.02276 0.0
H1175 H 0.04636 0.30866 0.04105 0.0
H1176 H 0.93597 0.33073 0.03774 0.0
H1177 H 0.98289 0.26279 0.09242 0.0
H1178 H 0.96349 0.31037 0.95823 0.0
H1179 H 0.98395 0.34058 0.97667 0.0
H1180 H 0.94383 0.33861 0.98152 0.0
H1181 H 0.02265 0.23125 0.02117 0.0
H1182 H 0.01519 0.22775 0.06467 0.0
H1183 H 0.04213 0.25462 0.04999 0.0
C1184 C 0.30739 0.05197 0.96375 0.0
C1185 C 0.29394 0.04574 0.93338 0.0
C1186 C 0.30136 0.03428 0.99139 0.0
C1187 C 0.28143 0.00966 0.98855 0.0
C1188 C 0.26515 0.00542 0.959 0.0
C1189 C 0.27161 0.02358 0.93161 0.0
C1190 C 0.31877 0.04011 0.02262 0.0
C1191 C 0.24304 0.98002 0.95528 0.0
C1192 C 0.31237 0.94603 0.03901 0.0
C1193 C 0.29731 0.95005 0.06893 0.0
C1194 C 0.30532 0.96354 0.01151 0.0
C1195 C 0.28263 0.98569 0.01397 0.0
C1196 C 0.26521 0.98769 0.043 0.0
C1197 C 0.27278 0.96979 0.07026 0.0
C1198 C 0.32416 0.96019 0.98084 0.0
C1199 C 0.24031 0.01041 0.04633 0.0
H1200 H 0.3242 0.06951 0.9654 0.0
H1201 H 0.26092 0.0188 0.90825 0.0
H1202 H 0.30366 0.03954 0.04427 0.0
H1203 H 0.33586 0.02224 0.02598 0.0
H1204 H 0.33044 0.06214 0.02213 0.0
H1205 H 0.22699 0.98433 0.93491 0.0
H1206 H 0.25537 0.95901 0.94964 0.0
H1207 H 0.23025 0.97636 0.97834 0.0
H1208 H 0.33093 0.93035 0.0376 0.0
H1209 H 0.26083 0.97287 0.09323 0.0
H1210 H 0.33885 0.98015 0.97806 0.0
H1211 H 0.30966 0.9589 0.95874 0.0
H1212 H 0.33859 0.93987 0.98163 0.0
H1213 H 0.25004 0.03248 0.0531 0.0
H1214 H 0.22413 0.00385 0.06583 0.0
H1215 H 0.22801 0.01326 0.02282 0.0
C1216 C 0.97467 0.72651 0.92901 0.0
C1217 C 0.95266 0.70398 0.92934 0.0
C1218 C 0.99172 0.73269 0.95731 0.0
C1219 C 0.98645 0.71597 0.98633 0.0
C1220 C 0.96217 0.69552 0.98759 0.0
C1221 C 0.94564 0.68973 0.95905 0.0
C1222 C 0.01694 0.75519 0.95521 0.0
C1223 C 0.95535 0.67761 0.01822 0.0
C1224 C 0.0483 0.68683 0.04054 0.0
C1225 C 0.04269 0.70212 0.07 0.0
C1226 C 0.03181 0.69315 0.01212 0.0
C1227 C 0.00903 0.71528 0.01319 0.0
C1228 C 0.00519 0.73279 0.04193 0.0
C1229 C 0.02213 0.726 0.07013 0.0
C1230 C 0.03707 0.67427 0.98179 0.0
C1231 C 0.98162 0.75703 0.04382 0.0
H1232 H 0.98003 0.73783 0.90617 0.0
H1233 H 0.92818 0.67278 0.9596 0.0
H1234 H 0.01915 0.76803 0.97846 0.0
H1235 H 0.0384 0.74315 0.95102 0.0
H1236 H 0.01354 0.77118 0.93459 0.0
H1237 H 0.93366 0.66543 0.01637 0.0
H1238 H 0.97344 0.6609 0.02235 0.0
H1239 H 0.95458 0.69248 0.04006 0.0
H1240 H 0.06466 0.66881 0.04007 0.0
H1241 H 0.01788 0.73814 0.09275 0.0
H1242 H 0.03899 0.68872 0.95969 0.0
H1243 H 0.01766 0.65904 0.97797 0.0
H1244 H 0.0577 0.66039 0.98379 0.0
H1245 H 0.98003 0.76956 0.02031 0.0
H1246 H 0.98636 0.77313 0.06402 0.0
H1247 H 0.95943 0.7466 0.04856 0.0
loop_
_geom_bond_atom_site_label_1
_geom_bond_atom_site_label_2
_geom_bond_distance
_geom_bond_site_symmetry_2
_ccdc_geom_bond_type
Co0 O1 2.216 . S
Co0 O2 2.091 . S
Co0 O4 2.004 . S
Co0 O10 2.021 . S
Co0 O12 2.137 . S
Co0 O13 2.244 . S
O1 Co0 2.216 . S
O1 C8 1.247 . S
O2 Co0 2.091 . S
O2 C8 1.261 . S
C3 O12 1.247 . S
C3 O13 1.272 . S
O4 Co0 2.004 . S
O4 C9 1.259 . S
Co5 O6 2.061 . S
Co5 O11 2.052 . S
Co5 O13 2.135 . S
O6 Co5 2.061 . S
O6 C9 1.235 . S
C7 O10 1.238 . S
C7 O11 1.241 . S
C8 O1 1.247 . S
C8 O2 1.261 . S
C9 O4 1.259 . S
C9 O6 1.235 . S
O10 Co0 2.021 . S
O10 C7 1.238 . S
O11 Co5 2.052 . S
O11 C7 1.241 . S
O12 Co0 2.137 . S
O12 C3 1.247 . S
O13 Co0 2.244 . S
O13 C3 1.272 . S
O13 Co5 2.135 . S
Co14 O15 2.216 . S
Co14 O16 2.091 . S
Co14 O18 2.004 . S
Co14 O24 2.021 . S
Co14 O26 2.137 . S
Co14 O27 2.244 . S
O15 Co14 2.216 . S
O15 C22 1.247 . S
O16 Co14 2.091 . S
O16 C22 1.261 . S
C17 O26 1.247 . S
C17 O27 1.272 . S
O18 Co14 2.004 . S
O18 C23 1.259 . S
Co19 O20 2.061 . S
Co19 O25 2.052 . S
Co19 O27 2.135 . S
O20 Co19 2.061 . S
O20 C23 1.235 . S
C21 O24 1.238 . S
C21 O25 1.241 . S
C22 O15 1.247 . S
C22 O16 1.261 . S
C23 O18 1.259 . S
C23 O20 1.235 . S
O24 Co14 2.021 . S
O24 C21 1.238 . S
O25 Co19 2.052 . S
O25 C21 1.241 . S
O26 Co14 2.137 . S
O26 C17 1.247 . S
O27 Co14 2.244 . S
O27 C17 1.272 . S
O27 Co19 2.135 . S
Co28 O29 2.216 . S
Co28 O30 2.091 . S
Co28 O32 2.004 . S
Co28 O38 2.021 . S
Co28 O40 2.137 . S
Co28 O41 2.244 . S
O29 Co28 2.216 . S
O29 C36 1.247 . S
O30 Co28 2.091 . S
O30 C36 1.261 . S
C31 O40 1.247 . S
C31 O41 1.272 . S
O32 Co28 2.004 . S
O32 C37 1.259 . S
Co33 O34 2.061 . S
Co33 O39 2.052 . S
Co33 O41 2.135 . S
O34 Co33 2.061 . S
O34 C37 1.235 . S
C35 O38 1.238 . S
C35 O39 1.241 . S
C36 O29 1.247 . S
C36 O30 1.261 . S
C37 O32 1.259 . S
C37 O34 1.235 . S
O38 Co28 2.021 . S
O38 C35 1.238 . S
O39 Co33 2.052 . S
O39 C35 1.241 . S
O40 Co28 2.137 . S
O40 C31 1.247 . S
O41 Co28 2.244 . S
O41 C31 1.272 . S
O41 Co33 2.135 . S
Co42 O43 2.216 . S
Co42 O44 2.091 . S
Co42 O46 2.004 . S
Co42 O52 2.021 . S
Co42 O54 2.137 . S
Co42 O55 2.244 . S
O43 Co42 2.216 . S
O43 C50 1.247 . S
O44 Co42 2.091 . S
O44 C50 1.261 . S
C45 O54 1.247 . S
C45 O55 1.272 . S
O46 Co42 2.004 . S
O46 C51 1.259 . S
Co47 O48 2.061 . S
Co47 O53 2.052 . S
Co47 O55 2.135 . S
O48 Co47 2.061 . S
O48 C51 1.235 . S
C49 O52 1.238 . S
C49 O53 1.241 . S
C50 O43 1.247 . S
C50 O44 1.261 . S
C51 O46 1.259 . S
C51 O48 1.235 . S
O52 Co42 2.021 . S
O52 C49 1.238 . S
O53 Co47 2.052 . S
O53 C49 1.241 . S
O54 Co42 2.137 . S
O54 C45 1.247 . S
O55 Co42 2.244 . S
O55 C45 1.272 . S
O55 Co47 2.135 . S
Co56 O57 2.216 . S
Co56 O58 2.091 . S
Co56 O60 2.004 . S
Co56 O66 2.021 . S
Co56 O68 2.137 . S
Co56 O69 2.244 . S
O57 Co56 2.216 . S
O57 C64 1.247 . S
O58 Co56 2.091 . S
O58 C64 1.261 . S
C59 O68 1.247 . S
C59 O69 1.272 . S
O60 Co56 2.004 . S
O60 C65 1.259 . S
Co61 O62 2.061 . S
Co61 O67 2.052 . S
Co61 O69 2.135 . S
O62 Co61 2.061 . S
O62 C65 1.235 . S
C63 O66 1.238 . S
C63 O67 1.241 . S
C64 O57 1.247 . S
C64 O58 1.261 . S
C65 O60 1.259 . S
C65 O62 1.235 . S
O66 Co56 2.021 . S
O66 C63 1.238 . S
O67 Co61 2.052 . S
O67 C63 1.241 . S
O68 Co56 2.137 . S
O68 C59 1.247 . S
O69 Co56 2.244 . S
O69 C59 1.272 . S
O69 Co61 2.135 . S
Co70 O71 2.216 . S
Co70 O72 2.091 . S
Co70 O74 2.004 . S
Co70 O80 2.021 . S
Co70 O82 2.137 . S
Co70 O83 2.244 . S
O71 Co70 2.216 . S
O71 C78 1.247 . S
O72 Co70 2.091 . S
O72 C78 1.261 . S
C73 O82 1.247 . S
C73 O83 1.272 . S
O74 Co70 2.004 . S
O74 C79 1.259 . S
Co75 O76 2.061 . S
Co75 O81 2.052 . S
Co75 O83 2.135 . S
O76 Co75 2.061 . S
O76 C79 1.235 . S
C77 O80 1.238 . S
C77 O81 1.241 . S
C78 O71 1.247 . S
C78 O72 1.261 . S
C79 O74 1.259 . S
C79 O76 1.235 . S
O80 Co70 2.021 . S
O80 C77 1.238 . S
O81 Co75 2.052 . S
O81 C77 1.241 . S
O82 Co70 2.137 . S
O82 C73 1.247 . S
O83 Co70 2.244 . S
O83 C73 1.272 . S
O83 Co75 2.135 . S
Co84 O85 2.216 . S
Co84 O86 2.091 . S
Co84 O88 2.004 . S
Co84 O94 2.021 . S
Co84 O96 2.137 . S
Co84 O97 2.244 . S
O85 Co84 2.216 . S
O85 C92 1.247 . S
O86 Co84 2.091 . S
O86 C92 1.261 . S
C87 O96 1.247 . S
C87 O97 1.272 . S
O88 Co84 2.004 . S
O88 C93 1.259 . S
Co89 O90 2.061 . S
Co89 O95 2.052 . S
Co89 O97 2.135 . S
O90 Co89 2.061 . S
O90 C93 1.235 . S
C91 O94 1.238 . S
C91 O95 1.241 . S
C92 O85 1.247 . S
C92 O86 1.261 . S
C93 O88 1.259 . S
C93 O90 1.235 . S
O94 Co84 2.021 . S
O94 C91 1.238 . S
O95 Co89 2.052 . S
O95 C91 1.241 . S
O96 Co84 2.137 . S
O96 C87 1.247 . S
O97 Co84 2.244 . S
O97 C87 1.272 . S
O97 Co89 2.135 . S
Co98 O99 2.216 . S
Co98 O100 2.091 . S
Co98 O102 2.004 . S
Co98 O108 2.021 . S
Co98 O110 2.137 . S
Co98 O111 2.244 . S
O99 Co98 2.216 . S
O99 C106 1.247 . S
O100 Co98 2.091 . S
O100 C106 1.261 . S
C101 O110 1.247 . S
C101 O111 1.272 . S
O102 Co98 2.004 . S
O102 C107 1.259 . S
Co103 O104 2.061 . S
Co103 O109 2.052 . S
Co103 O111 2.135 . S
O104 Co103 2.061 . S
O104 C107 1.235 . S
C105 O108 1.238 . S
C105 O109 1.241 . S
C106 O99 1.247 . S
C106 O100 1.261 . S
C107 O102 1.259 . S
C107 O104 1.235 . S
O108 Co98 2.021 . S
O108 C105 1.238 . S
O109 Co103 2.052 . S
O109 C105 1.241 . S
O110 Co98 2.137 . S
O110 C101 1.247 . S
O111 Co98 2.244 . S
O111 C101 1.272 . S
O111 Co103 2.135 . S
Co112 O113 2.216 . S
Co112 O114 2.091 . S
Co112 O116 2.004 . S
Co112 O122 2.021 . S
Co112 O124 2.137 . S
Co112 O125 2.244 . S
O113 Co112 2.216 . S
O113 C120 1.247 . S
O114 Co112 2.091 . S
O114 C120 1.261 . S
C115 O124 1.247 . S
C115 O125 1.272 . S
O116 Co112 2.004 . S
O116 C121 1.259 1_565 S
Co117 O118 2.042 1_565 S
Co117 O123 2.052 . S
Co117 O125 2.135 . S
O118 Co117 2.042 1_545 S
O118 C121 1.239 . S
C119 O122 1.238 . S
C119 O123 1.241 . S
C120 O113 1.247 . S
C120 O114 1.261 . S
C121 O116 1.259 1_545 S
C121 O118 1.239 . S
O122 Co112 2.021 . S
O122 C119 1.238 . S
O123 Co117 2.052 . S
O123 C119 1.241 . S
O124 Co112 2.137 . S
O124 C115 1.247 . S
O125 Co112 2.244 . S
O125 C115 1.272 . S
O125 Co117 2.135 . S
Co126 O127 2.216 . S
Co126 O128 2.091 . S
Co126 O130 2.004 . S
Co126 O136 2.021 . S
Co126 O138 2.137 . S
Co126 O139 2.244 . S
O127 Co126 2.216 . S
O127 C134 1.247 . S
O128 Co126 2.091 . S
O128 C134 1.261 . S
C129 O138 1.247 . S
C129 O139 1.272 . S
O130 Co126 2.004 . S
O130 C135 1.259 1_655 S
Co131 O132 2.042 1_655 S
Co131 O137 2.052 . S
Co131 O139 2.135 . S
O132 Co131 2.042 1_455 S
O132 C135 1.239 . S
C133 O136 1.238 . S
C133 O137 1.241 . S
C134 O127 1.247 . S
C134 O128 1.261 . S
C135 O130 1.259 1_455 S
C135 O132 1.239 . S
O136 Co126 2.021 . S
O136 C133 1.238 . S
O137 Co131 2.052 . S
O137 C133 1.241 . S
O138 Co126 2.137 . S
O138 C129 1.247 . S
O139 Co126 2.244 . S
O139 C129 1.272 . S
O139 Co131 2.135 . S
Co140 O141 2.216 . S
Co140 O142 2.091 . S
Co140 O144 2.004 . S
Co140 O150 2.021 . S
Co140 O152 2.137 . S
Co140 O153 2.244 . S
O141 Co140 2.216 . S
O141 C148 1.247 . S
O142 Co140 2.091 . S
O142 C148 1.261 . S
C143 O152 1.247 . S
C143 O153 1.272 . S
O144 Co140 2.004 . S
O144 C149 1.259 1_545 S
Co145 O146 2.042 1_545 S
Co145 O151 2.052 . S
Co145 O153 2.135 . S
O146 Co145 2.042 1_565 S
O146 C149 1.239 . S
C147 O150 1.238 . S
C147 O151 1.241 . S
C148 O141 1.247 . S
C148 O142 1.261 . S
C149 O144 1.259 1_565 S
C149 O146 1.239 . S
O150 Co140 2.021 . S
O150 C147 1.238 . S
O151 Co145 2.052 . S
O151 C147 1.241 . S
O152 Co140 2.137 . S
O152 C143 1.247 . S
O153 Co140 2.244 . S
O153 C143 1.272 . S
O153 Co145 2.135 . S
Co154 O155 2.216 . S
Co154 O156 2.091 . S
Co154 O158 2.004 . S
Co154 O164 2.021 . S
Co154 O166 2.137 . S
Co154 O167 2.244 . S
O155 Co154 2.216 . S
O155 C162 1.247 . S
O156 Co154 2.091 . S
O156 C162 1.261 . S
C157 O166 1.247 . S
C157 O167 1.272 . S
O158 Co154 2.004 . S
O158 C163 1.259 1_455 S
Co159 O160 2.042 1_455 S
Co159 O165 2.052 . S
Co159 O167 2.135 . S
O160 Co159 2.042 1_655 S
O160 C163 1.239 . S
C161 O164 1.238 . S
C161 O165 1.241 . S
C162 O155 1.247 . S
C162 O156 1.261 . S
C163 O158 1.259 1_655 S
C163 O160 1.239 . S
O164 Co154 2.021 . S
O164 C161 1.238 . S
O165 Co159 2.052 . S
O165 C161 1.241 . S
O166 Co154 2.137 . S
O166 C157 1.247 . S
O167 Co154 2.244 . S
O167 C157 1.272 . S
O167 Co159 2.135 . S
Co168 O169 2.216 . S
Co168 O170 2.091 . S
Co168 O172 2.004 . S
Co168 O178 2.021 . S
Co168 O180 2.137 . S
Co168 O181 2.244 . S
O169 Co168 2.216 . S
O169 C176 1.247 . S
O170 Co168 2.091 . S
O170 C176 1.261 . S
C171 O180 1.247 . S
C171 O181 1.272 . S
O172 Co168 2.004 . S
O172 C177 1.259 1_545 S
Co173 O174 2.042 1_545 S
Co173 O179 2.052 . S
Co173 O181 2.135 . S
O174 Co173 2.042 1_565 S
O174 C177 1.239 . S
C175 O178 1.238 . S
C175 O179 1.241 . S
C176 O169 1.247 . S
C176 O170 1.261 . S
C177 O172 1.259 1_565 S
C177 O174 1.239 . S
O178 Co168 2.021 . S
O178 C175 1.238 . S
O179 Co173 2.052 . S
O179 C175 1.241 . S
O180 Co168 2.137 . S
O180 C171 1.247 . S
O181 Co168 2.244 . S
O181 C171 1.272 . S
O181 Co173 2.135 . S
Co182 O183 2.216 . S
Co182 O184 2.091 . S
Co182 O186 2.004 . S
Co182 O192 2.021 . S
Co182 O194 2.137 . S
Co182 O195 2.244 . S
O183 Co182 2.216 . S
O183 C190 1.247 . S
O184 Co182 2.091 . S
O184 C190 1.261 . S
C185 O194 1.247 . S
C185 O195 1.272 . S
O186 Co182 2.004 . S
O186 C191 1.259 1_455 S
Co187 O188 2.042 1_455 S
Co187 O193 2.052 . S
Co187 O195 2.135 . S
O188 Co187 2.042 1_655 S
O188 C191 1.239 . S
C189 O192 1.238 . S
C189 O193 1.241 . S
C190 O183 1.247 . S
C190 O184 1.261 . S
C191 O186 1.259 1_655 S
C191 O188 1.239 . S
O192 Co182 2.021 . S
O192 C189 1.238 . S
O193 Co187 2.052 . S
O193 C189 1.241 . S
O194 Co182 2.137 . S
O194 C185 1.247 . S
O195 Co182 2.244 . S
O195 C185 1.272 . S
O195 Co187 2.135 . S
Co196 O197 2.216 . S
Co196 O198 2.091 . S
Co196 O200 2.004 . S
Co196 O206 2.021 . S
Co196 O208 2.137 . S
Co196 O209 2.244 . S
O197 Co196 2.216 . S
O197 C204 1.247 . S
O198 Co196 2.091 . S
O198 C204 1.261 . S
C199 O208 1.247 . S
C199 O209 1.272 . S
O200 Co196 2.004 . S
O200 C205 1.259 1_565 S
Co201 O202 2.042 1_565 S
Co201 O207 2.052 . S
Co201 O209 2.135 . S
O202 Co201 2.042 1_545 S
O202 C205 1.239 . S
C203 O206 1.238 . S
C203 O207 1.241 . S
C204 O197 1.247 . S
C204 O198 1.261 . S
C205 O200 1.259 1_545 S
C205 O202 1.239 . S
O206 Co196 2.021 . S
O206 C203 1.238 . S
O207 Co201 2.052 . S
O207 C203 1.241 . S
O208 Co196 2.137 . S
O208 C199 1.247 . S
O209 Co196 2.244 . S
O209 C199 1.272 . S
O209 Co201 2.135 . S
Co210 O211 2.216 . S
Co210 O212 2.091 . S
Co210 O214 2.004 . S
Co210 O220 2.021 . S
Co210 O222 2.137 . S
Co210 O223 2.244 . S
O211 Co210 2.216 . S
O211 C218 1.247 . S
O212 Co210 2.091 . S
O212 C218 1.261 . S
C213 O222 1.247 . S
C213 O223 1.272 . S
O214 Co210 2.004 . S
O214 C219 1.259 1_655 S
Co215 O216 2.042 1_655 S
Co215 O221 2.052 . S
Co215 O223 2.135 . S
O216 Co215 2.042 1_455 S
O216 C219 1.239 . S
C217 O220 1.238 . S
C217 O221 1.241 . S
C218 O211 1.247 . S
C218 O212 1.261 . S
C219 O214 1.259 1_455 S
C219 O216 1.239 . S
O220 Co210 2.021 . S
O220 C217 1.238 . S
O221 Co215 2.052 . S
O221 C217 1.241 . S
O222 Co210 2.137 . S
O222 C213 1.247 . S
O223 Co210 2.244 . S
O223 C213 1.272 . S
O223 Co215 2.135 . S
C224 C225 1.391 . S
C224 C226 1.394 . S
C224 H240 0.931 . S
C225 C224 1.391 . S
C225 C229 1.376 . S
C226 C224 1.394 . S
C226 C227 1.369 . S
C226 C230 1.531 . S
C227 C226 1.369 . S
C227 C228 1.410 . S
C227 C235 1.503 . S
C228 C227 1.410 . S
C228 C229 1.392 . S
C228 C231 1.511 . S
C229 C225 1.376 . S
C229 C228 1.392 . S
C229 H241 0.929 . S
C230 C226 1.531 . S
C230 H242 0.960 . S
C230 H243 0.962 . S
C230 H244 0.960 . S
C231 C228 1.511 . S
C231 H245 0.961 . S
C231 H246 0.961 . S
C231 H247 0.961 . S
C232 C233 1.370 . S
C232 C234 1.363 . S
C232 H248 0.931 . S
C233 C232 1.370 . S
C233 C237 1.408 . S
C234 C232 1.363 . S
C234 C235 1.370 . S
C234 C238 1.524 . S
C235 C227 1.503 . S
C235 C234 1.370 . S
C235 C236 1.403 . S
C236 C235 1.403 . S
C236 C237 1.404 . S
C236 C239 1.539 . S
C237 C233 1.408 . S
C237 C236 1.404 . S
C237 H249 0.930 . S
C238 C234 1.524 . S
C238 H250 0.956 . S
C238 H251 0.961 . S
C238 H252 0.961 . S
C239 C236 1.539 . S
C239 H253 0.958 . S
C239 H254 0.961 . S
C239 H255 0.960 . S
H240 C224 0.931 . S
H241 C229 0.929 . S
H242 C230 0.960 . S
H243 C230 0.962 . S
H244 C230 0.960 . S
H245 C231 0.961 . S
H246 C231 0.961 . S
H247 C231 0.961 . S
H248 C232 0.931 . S
H249 C237 0.930 . S
H250 C238 0.956 . S
H251 C238 0.961 . S
H252 C238 0.961 . S
H253 C239 0.958 . S
H254 C239 0.961 . S
H255 C239 0.960 . S
C256 C257 1.391 . S
C256 C258 1.394 . S
C256 H272 0.931 . S
C257 C256 1.391 . S
C257 C261 1.376 . S
C258 C256 1.394 . S
C258 C259 1.369 . S
C258 C262 1.531 . S
C259 C258 1.369 . S
C259 C260 1.410 . S
C259 C267 1.503 . S
C260 C259 1.410 . S
C260 C261 1.392 . S
C260 C263 1.511 . S
C261 C257 1.376 . S
C261 C260 1.392 . S
C261 H273 0.929 . S
C262 C258 1.531 . S
C262 H274 0.960 . S
C262 H275 0.962 . S
C262 H276 0.960 . S
C263 C260 1.511 . S
C263 H277 0.961 . S
C263 H278 0.961 . S
C263 H279 0.961 . S
C264 C265 1.370 . S
C264 C266 1.363 . S
C264 H280 0.931 . S
C265 C264 1.370 . S
C265 C269 1.408 . S
C266 C264 1.363 . S
C266 C267 1.370 . S
C266 C270 1.524 . S
C267 C259 1.503 . S
C267 C266 1.370 . S
C267 C268 1.403 . S
C268 C267 1.403 . S
C268 C269 1.404 . S
C268 C271 1.539 . S
C269 C265 1.408 . S
C269 C268 1.404 . S
C269 H281 0.930 . S
C270 C266 1.524 . S
C270 H282 0.956 . S
C270 H283 0.961 . S
C270 H284 0.961 . S
C271 C268 1.539 . S
C271 H285 0.958 . S
C271 H286 0.961 . S
C271 H287 0.960 . S
H272 C256 0.931 . S
H273 C261 0.929 . S
H274 C262 0.960 . S
H275 C262 0.962 . S
H276 C262 0.960 . S
H277 C263 0.961 . S
H278 C263 0.961 . S
H279 C263 0.961 . S
H280 C264 0.931 . S
H281 C269 0.930 . S
H282 C270 0.956 . S
H283 C270 0.961 . S
H284 C270 0.961 . S
H285 C271 0.958 . S
H286 C271 0.961 . S
H287 C271 0.960 . S
C288 C289 1.391 . S
C288 C290 1.394 . S
C288 H304 0.931 . S
C289 C288 1.391 . S
C289 C293 1.376 . S
C290 C288 1.394 . S
C290 C291 1.369 . S
C290 C294 1.531 . S
C291 C290 1.369 . S
C291 C292 1.410 . S
C291 C299 1.503 . S
C292 C291 1.410 . S
C292 C293 1.392 . S
C292 C295 1.511 . S
C293 C289 1.376 . S
C293 C292 1.392 . S
C293 H305 0.929 . S
C294 C290 1.531 . S
C294 H306 0.960 . S
C294 H307 0.962 . S
C294 H308 0.960 . S
C295 C292 1.511 . S
C295 H309 0.961 . S
C295 H310 0.961 . S
C295 H311 0.961 . S
C296 C297 1.370 . S
C296 C298 1.363 . S
C296 H312 0.931 . S
C297 C296 1.370 . S
C297 C301 1.408 . S
C298 C296 1.363 . S
C298 C299 1.370 . S
C298 C302 1.524 . S
C299 C291 1.503 . S
C299 C298 1.370 . S
C299 C300 1.403 . S
C300 C299 1.403 . S
C300 C301 1.404 . S
C300 C303 1.539 . S
C301 C297 1.408 . S
C301 C300 1.404 . S
C301 H313 0.930 . S
C302 C298 1.524 . S
C302 H314 0.956 . S
C302 H315 0.961 . S
C302 H316 0.961 . S
C303 C300 1.539 . S
C303 H317 0.958 . S
C303 H318 0.961 . S
C303 H319 0.960 . S
H304 C288 0.931 . S
H305 C293 0.929 . S
H306 C294 0.960 . S
H307 C294 0.962 . S
H308 C294 0.960 . S
H309 C295 0.961 . S
H310 C295 0.961 . S
H311 C295 0.961 . S
H312 C296 0.931 . S
H313 C301 0.930 . S
H314 C302 0.956 . S
H315 C302 0.961 . S
H316 C302 0.961 . S
H317 C303 0.958 . S
H318 C303 0.961 . S
H319 C303 0.960 . S
C320 C321 1.391 . S
C320 C322 1.394 . S
C320 H336 0.931 . S
C321 C320 1.391 . S
C321 C325 1.376 . S
C322 C320 1.394 . S
C322 C323 1.369 . S
C322 C326 1.531 . S
C323 C322 1.369 . S
C323 C324 1.410 . S
C323 C331 1.503 . S
C324 C323 1.410 . S
C324 C325 1.392 . S
C324 C327 1.511 . S
C325 C321 1.376 . S
C325 C324 1.392 . S
C325 H337 0.929 . S
C326 C322 1.531 . S
C326 H338 0.960 . S
C326 H339 0.962 . S
C326 H340 0.960 . S
C327 C324 1.511 . S
C327 H341 0.961 . S
C327 H342 0.961 . S
C327 H343 0.961 . S
C328 C329 1.370 . S
C328 C330 1.363 . S
C328 H344 0.931 . S
C329 C328 1.370 . S
C329 C333 1.408 . S
C330 C328 1.363 . S
C330 C331 1.370 . S
C330 C334 1.524 . S
C331 C323 1.503 . S
C331 C330 1.370 . S
C331 C332 1.403 . S
C332 C331 1.403 . S
C332 C333 1.404 . S
C332 C335 1.539 . S
C333 C329 1.408 . S
C333 C332 1.404 . S
C333 H345 0.930 . S
C334 C330 1.524 . S
C334 H346 0.956 . S
C334 H347 0.961 . S
C334 H348 0.961 . S
C335 C332 1.539 . S
C335 H349 0.958 . S
C335 H350 0.961 . S
C335 H351 0.960 . S
H336 C320 0.931 . S
H337 C325 0.929 . S
H338 C326 0.960 . S
H339 C326 0.962 . S
H340 C326 0.960 . S
H341 C327 0.961 . S
H342 C327 0.961 . S
H343 C327 0.961 . S
H344 C328 0.931 . S
H345 C333 0.930 . S
H346 C334 0.956 . S
H347 C334 0.961 . S
H348 C334 0.961 . S
H349 C335 0.958 . S
H350 C335 0.961 . S
H351 C335 0.960 . S
C352 C353 1.391 . S
C352 C354 1.394 . S
C352 H368 0.931 . S
C353 C352 1.391 . S
C353 C357 1.376 . S
C354 C352 1.394 . S
C354 C355 1.369 . S
C354 C358 1.531 . S
C355 C354 1.369 . S
C355 C356 1.410 . S
C355 C363 1.503 . S
C356 C355 1.410 . S
C356 C357 1.392 . S
C356 C359 1.511 . S
C357 C353 1.376 . S
C357 C356 1.392 . S
C357 H369 0.929 . S
C358 C354 1.531 . S
C358 H370 0.960 . S
C358 H371 0.962 . S
C358 H372 0.960 . S
C359 C356 1.511 . S
C359 H373 0.961 . S
C359 H374 0.961 . S
C359 H375 0.961 . S
C360 C361 1.370 . S
C360 C362 1.363 . S
C360 H376 0.931 . S
C361 C360 1.370 . S
C361 C365 1.408 . S
C362 C360 1.363 . S
C362 C363 1.370 . S
C362 C366 1.524 . S
C363 C355 1.503 . S
C363 C362 1.370 . S
C363 C364 1.403 . S
C364 C363 1.403 . S
C364 C365 1.404 . S
C364 C367 1.539 . S
C365 C361 1.408 . S
C365 C364 1.404 . S
C365 H377 0.930 . S
C366 C362 1.524 . S
C366 H378 0.956 . S
C366 H379 0.961 . S
C366 H380 0.961 . S
C367 C364 1.539 . S
C367 H381 0.958 . S
C367 H382 0.961 . S
C367 H383 0.960 . S
H368 C352 0.931 . S
H369 C357 0.929 . S
H370 C358 0.960 . S
H371 C358 0.962 . S
H372 C358 0.960 . S
H373 C359 0.961 . S
H374 C359 0.961 . S
H375 C359 0.961 . S
H376 C360 0.931 . S
H377 C365 0.930 . S
H378 C366 0.956 . S
H379 C366 0.961 . S
H380 C366 0.961 . S
H381 C367 0.958 . S
H382 C367 0.961 . S
H383 C367 0.960 . S
C384 C385 1.391 . S
C384 C386 1.394 . S
C384 H400 0.931 . S
C385 C384 1.391 . S
C385 C389 1.376 . S
C386 C384 1.394 . S
C386 C387 1.369 . S
C386 C390 1.531 . S
C387 C386 1.369 . S
C387 C388 1.410 . S
C387 C395 1.503 . S
C388 C387 1.410 . S
C388 C389 1.392 . S
C388 C391 1.511 . S
C389 C385 1.376 . S
C389 C388 1.392 . S
C389 H401 0.929 . S
C390 C386 1.531 . S
C390 H402 0.960 . S
C390 H403 0.962 . S
C390 H404 0.960 . S
C391 C388 1.511 . S
C391 H405 0.961 . S
C391 H406 0.961 . S
C391 H407 0.961 . S
C392 C393 1.370 . S
C392 C394 1.363 . S
C392 H408 0.931 . S
C393 C392 1.370 . S
C393 C397 1.408 . S
C394 C392 1.363 . S
C394 C395 1.370 . S
C394 C398 1.524 . S
C395 C387 1.503 . S
C395 C394 1.370 . S
C395 C396 1.403 . S
C396 C395 1.403 . S
C396 C397 1.404 . S
C396 C399 1.539 . S
C397 C393 1.408 . S
C397 C396 1.404 . S
C397 H409 0.930 . S
C398 C394 1.524 . S
C398 H410 0.956 . S
C398 H411 0.961 . S
C398 H412 0.961 . S
C399 C396 1.539 . S
C399 H413 0.958 . S
C399 H414 0.961 . S
C399 H415 0.960 . S
H400 C384 0.931 . S
H401 C389 0.929 . S
H402 C390 0.960 . S
H403 C390 0.962 . S
H404 C390 0.960 . S
H405 C391 0.961 . S
H406 C391 0.961 . S
H407 C391 0.961 . S
H408 C392 0.931 . S
H409 C397 0.930 . S
H410 C398 0.956 . S
H411 C398 0.961 . S
H412 C398 0.961 . S
H413 C399 0.958 . S
H414 C399 0.961 . S
H415 C399 0.960 . S
C416 C417 1.391 . S
C416 C418 1.394 . S
C416 H432 0.931 . S
C417 C416 1.391 . S
C417 C421 1.376 . S
C418 C416 1.394 . S
C418 C419 1.369 . S
C418 C422 1.531 . S
C419 C418 1.369 . S
C419 C420 1.410 . S
C419 C427 1.503 . S
C420 C419 1.410 . S
C420 C421 1.392 . S
C420 C423 1.511 . S
C421 C417 1.376 . S
C421 C420 1.392 . S
C421 H433 0.929 . S
C422 C418 1.531 . S
C422 H434 0.960 . S
C422 H435 0.962 . S
C422 H436 0.960 . S
C423 C420 1.511 . S
C423 H437 0.961 . S
C423 H438 0.961 . S
C423 H439 0.961 . S
C424 C425 1.370 . S
C424 C426 1.363 . S
C424 H440 0.931 . S
C425 C424 1.370 . S
C425 C429 1.408 . S
C426 C424 1.363 . S
C426 C427 1.370 . S
C426 C430 1.524 . S
C427 C419 1.503 . S
C427 C426 1.370 . S
C427 C428 1.403 . S
C428 C427 1.403 . S
C428 C429 1.404 . S
C428 C431 1.539 . S
C429 C425 1.408 . S
C429 C428 1.404 . S
C429 H441 0.930 . S
C430 C426 1.524 . S
C430 H442 0.956 . S
C430 H443 0.961 . S
C430 H444 0.961 . S
C431 C428 1.539 . S
C431 H445 0.958 . S
C431 H446 0.961 . S
C431 H447 0.960 . S
H432 C416 0.931 . S
H433 C421 0.929 . S
H434 C422 0.960 . S
H435 C422 0.962 . S
H436 C422 0.960 . S
H437 C423 0.961 . S
H438 C423 0.961 . S
H439 C423 0.961 . S
H440 C424 0.931 . S
H441 C429 0.930 . S
H442 C430 0.956 . S
H443 C430 0.961 . S
H444 C430 0.961 . S
H445 C431 0.958 . S
H446 C431 0.961 . S
H447 C431 0.960 . S
C448 C449 1.391 . S
C448 C450 1.394 . S
C448 H464 0.931 . S
C449 C448 1.391 . S
C449 C453 1.376 . S
C450 C448 1.394 . S
C450 C451 1.369 . S
C450 C454 1.531 . S
C451 C450 1.369 . S
C451 C452 1.410 . S
C451 C459 1.503 . S
C452 C451 1.410 . S
C452 C453 1.392 . S
C452 C455 1.511 . S
C453 C449 1.376 . S
C453 C452 1.392 . S
C453 H465 0.929 . S
C454 C450 1.531 . S
C454 H466 0.960 . S
C454 H467 0.962 . S
C454 H468 0.960 . S
C455 C452 1.511 . S
C455 H469 0.961 . S
C455 H470 0.961 . S
C455 H471 0.961 . S
C456 C457 1.370 . S
C456 C458 1.363 . S
C456 H472 0.931 . S
C457 C456 1.370 . S
C457 C461 1.408 . S
C458 C456 1.363 . S
C458 C459 1.370 . S
C458 C462 1.524 . S
C459 C451 1.503 . S
C459 C458 1.370 . S
C459 C460 1.403 . S
C460 C459 1.403 . S
C460 C461 1.404 . S
C460 C463 1.539 . S
C461 C457 1.408 . S
C461 C460 1.404 . S
C461 H473 0.930 . S
C462 C458 1.524 . S
C462 H474 0.956 . S
C462 H475 0.961 . S
C462 H476 0.961 . S
C463 C460 1.539 . S
C463 H477 0.958 . S
C463 H478 0.961 . S
C463 H479 0.960 . S
H464 C448 0.931 . S
H465 C453 0.929 . S
H466 C454 0.960 . S
H467 C454 0.962 . S
H468 C454 0.960 . S
H469 C455 0.961 . S
H470 C455 0.961 . S
H471 C455 0.961 . S
H472 C456 0.931 . S
H473 C461 0.930 . S
H474 C462 0.956 . S
H475 C462 0.961 . S
H476 C462 0.961 . S
H477 C463 0.958 . S
H478 C463 0.961 . S
H479 C463 0.960 . S
C480 C481 1.391 . S
C480 C482 1.394 . S
C480 H496 0.931 . S
C481 C480 1.391 . S
C481 C485 1.376 . S
C482 C480 1.394 . S
C482 C483 1.369 . S
C482 C486 1.531 . S
C483 C482 1.369 . S
C483 C484 1.410 . S
C483 C491 1.503 . S
C484 C483 1.410 . S
C484 C485 1.392 . S
C484 C487 1.511 . S
C485 C481 1.376 . S
C485 C484 1.392 . S
C485 H497 0.929 . S
C486 C482 1.531 . S
C486 H498 0.960 . S
C486 H499 0.962 . S
C486 H500 0.960 . S
C487 C484 1.511 . S
C487 H501 0.961 . S
C487 H502 0.961 . S
C487 H503 0.961 . S
C488 C489 1.370 . S
C488 C490 1.363 . S
C488 H504 0.931 . S
C489 C488 1.370 . S
C489 C493 1.408 . S
C490 C488 1.363 . S
C490 C491 1.370 . S
C490 C494 1.524 . S
C491 C483 1.503 . S
C491 C490 1.370 . S
C491 C492 1.403 . S
C492 C491 1.403 . S
C492 C493 1.404 . S
C492 C495 1.539 . S
C493 C489 1.408 . S
C493 C492 1.404 . S
C493 H505 0.930 . S
C494 C490 1.524 . S
C494 H506 0.956 . S
C494 H507 0.961 . S
C494 H508 0.961 . S
C495 C492 1.539 . S
C495 H509 0.958 . S
C495 H510 0.961 . S
C495 H511 0.960 . S
H496 C480 0.931 . S
H497 C485 0.929 . S
H498 C486 0.960 . S
H499 C486 0.962 . S
H500 C486 0.960 . S
H501 C487 0.961 . S
H502 C487 0.961 . S
H503 C487 0.961 . S
H504 C488 0.931 . S
H505 C493 0.930 . S
H506 C494 0.956 . S
H507 C494 0.961 . S
H508 C494 0.961 . S
H509 C495 0.958 . S
H510 C495 0.961 . S
H511 C495 0.960 . S
C512 C513 1.391 . S
C512 C514 1.394 . S
C512 H528 0.931 . S
C513 C512 1.391 . S
C513 C517 1.376 . S
C514 C512 1.394 . S
C514 C515 1.369 . S
C514 C518 1.531 . S
C515 C514 1.369 . S
C515 C516 1.410 . S
C515 C523 1.503 . S
C516 C515 1.410 . S
C516 C517 1.392 . S
C516 C519 1.511 . S
C517 C513 1.376 . S
C517 C516 1.392 . S
C517 H529 0.929 . S
C518 C514 1.531 . S
C518 H530 0.960 . S
C518 H531 0.962 . S
C518 H532 0.960 . S
C519 C516 1.511 . S
C519 H533 0.961 . S
C519 H534 0.961 . S
C519 H535 0.961 . S
C520 C521 1.370 . S
C520 C522 1.363 . S
C520 H536 0.931 . S
C521 C520 1.370 . S
C521 C525 1.408 . S
C522 C520 1.363 . S
C522 C523 1.370 . S
C522 C526 1.524 . S
C523 C515 1.503 . S
C523 C522 1.370 . S
C523 C524 1.403 . S
C524 C523 1.403 . S
C524 C525 1.404 . S
C524 C527 1.539 . S
C525 C521 1.408 . S
C525 C524 1.404 . S
C525 H537 0.930 . S
C526 C522 1.524 . S
C526 H538 0.956 . S
C526 H539 0.961 . S
C526 H540 0.961 . S
C527 C524 1.539 . S
C527 H541 0.958 . S
C527 H542 0.961 . S
C527 H543 0.960 . S
H528 C512 0.931 . S
H529 C517 0.929 . S
H530 C518 0.960 . S
H531 C518 0.962 . S
H532 C518 0.960 . S
H533 C519 0.961 . S
H534 C519 0.961 . S
H535 C519 0.961 . S
H536 C520 0.931 . S
H537 C525 0.930 . S
H538 C526 0.956 . S
H539 C526 0.961 . S
H540 C526 0.961 . S
H541 C527 0.958 . S
H542 C527 0.961 . S
H543 C527 0.960 . S
C544 C545 1.391 . S
C544 C546 1.394 . S
C544 H560 0.931 . S
C545 C544 1.391 . S
C545 C549 1.376 . S
C546 C544 1.394 . S
C546 C547 1.369 . S
C546 C550 1.531 . S
C547 C546 1.369 . S
C547 C548 1.410 . S
C547 C555 1.503 . S
C548 C547 1.410 . S
C548 C549 1.392 . S
C548 C551 1.511 . S
C549 C545 1.376 . S
C549 C548 1.392 . S
C549 H561 0.929 . S
C550 C546 1.531 . S
C550 H562 0.960 . S
C550 H563 0.962 . S
C550 H564 0.960 . S
C551 C548 1.511 . S
C551 H565 0.961 . S
C551 H566 0.961 . S
C551 H567 0.961 . S
C552 C553 1.370 . S
C552 C554 1.363 . S
C552 H568 0.931 . S
C553 C552 1.370 . S
C553 C557 1.408 . S
C554 C552 1.363 . S
C554 C555 1.370 . S
C554 C558 1.524 . S
C555 C547 1.503 . S
C555 C554 1.370 . S
C555 C556 1.403 . S
C556 C555 1.403 . S
C556 C557 1.404 . S
C556 C559 1.539 . S
C557 C553 1.408 . S
C557 C556 1.404 . S
C557 H569 0.930 . S
C558 C554 1.524 . S
C558 H570 0.956 . S
C558 H571 0.961 . S
C558 H572 0.961 . S
C559 C556 1.539 . S
C559 H573 0.958 . S
C559 H574 0.961 . S
C559 H575 0.960 . S
H560 C544 0.931 . S
H561 C549 0.929 . S
H562 C550 0.960 . S
H563 C550 0.962 . S
H564 C550 0.960 . S
H565 C551 0.961 . S
H566 C551 0.961 . S
H567 C551 0.961 . S
H568 C552 0.931 . S
H569 C557 0.930 . S
H570 C558 0.956 . S
H571 C558 0.961 . S
H572 C558 0.961 . S
H573 C559 0.958 . S
H574 C559 0.961 . S
H575 C559 0.960 . S
C576 C577 1.391 . S
C576 C578 1.394 . S
C576 H592 0.931 . S
C577 C576 1.391 . S
C577 C581 1.376 . S
C578 C576 1.394 . S
C578 C579 1.369 . S
C578 C582 1.531 . S
C579 C578 1.369 . S
C579 C580 1.410 . S
C579 C587 1.503 . S
C580 C579 1.410 . S
C580 C581 1.392 . S
C580 C583 1.511 . S
C581 C577 1.376 . S
C581 C580 1.392 . S
C581 H593 0.929 . S
C582 C578 1.531 . S
C582 H594 0.960 . S
C582 H595 0.962 . S
C582 H596 0.960 . S
C583 C580 1.511 . S
C583 H597 0.961 . S
C583 H598 0.961 . S
C583 H599 0.961 . S
C584 C585 1.370 . S
C584 C586 1.363 . S
C584 H600 0.931 . S
C585 C584 1.370 . S
C585 C589 1.408 . S
C586 C584 1.363 . S
C586 C587 1.370 . S
C586 C590 1.524 . S
C587 C579 1.503 . S
C587 C586 1.370 . S
C587 C588 1.403 . S
C588 C587 1.403 . S
C588 C589 1.404 . S
C588 C591 1.539 . S
C589 C585 1.408 . S
C589 C588 1.404 . S
C589 H601 0.930 . S
C590 C586 1.524 . S
C590 H602 0.956 . S
C590 H603 0.961 . S
C590 H604 0.961 . S
C591 C588 1.539 . S
C591 H605 0.958 . S
C591 H606 0.961 . S
C591 H607 0.960 . S
H592 C576 0.931 . S
H593 C581 0.929 . S
H594 C582 0.960 . S
H595 C582 0.962 . S
H596 C582 0.960 . S
H597 C583 0.961 . S
H598 C583 0.961 . S
H599 C583 0.961 . S
H600 C584 0.931 . S
H601 C589 0.930 . S
H602 C590 0.956 . S
H603 C590 0.961 . S
H604 C590 0.961 . S
H605 C591 0.958 . S
H606 C591 0.961 . S
H607 C591 0.960 . S
C608 C609 1.391 . S
C608 C610 1.394 . S
C608 H624 0.931 . S
C609 C608 1.391 . S
C609 C613 1.376 . S
C610 C608 1.394 . S
C610 C611 1.369 . S
C610 C614 1.531 . S
C611 C610 1.369 . S
C611 C612 1.410 . S
C611 C619 1.503 . S
C612 C611 1.410 . S
C612 C613 1.392 . S
C612 C615 1.511 . S
C613 C609 1.376 . S
C613 C612 1.392 . S
C613 H625 0.929 . S
C614 C610 1.531 . S
C614 H626 0.960 . S
C614 H627 0.962 . S
C614 H628 0.960 . S
C615 C612 1.511 . S
C615 H629 0.961 . S
C615 H630 0.961 . S
C615 H631 0.961 . S
C616 C617 1.370 . S
C616 C618 1.363 . S
C616 H632 0.931 . S
C617 C616 1.370 . S
C617 C621 1.408 . S
C618 C616 1.363 . S
C618 C619 1.370 . S
C618 C622 1.524 . S
C619 C611 1.503 . S
C619 C618 1.370 . S
C619 C620 1.403 . S
C620 C619 1.403 . S
C620 C621 1.404 . S
C620 C623 1.539 . S
C621 C617 1.408 . S
C621 C620 1.404 . S
C621 H633 0.930 . S
C622 C618 1.524 . S
C622 H634 0.956 . S
C622 H635 0.961 . S
C622 H636 0.961 . S
C623 C620 1.539 . S
C623 H637 0.958 . S
C623 H638 0.961 . S
C623 H639 0.960 . S
H624 C608 0.931 . S
H625 C613 0.929 . S
H626 C614 0.960 . S
H627 C614 0.962 . S
H628 C614 0.960 . S
H629 C615 0.961 . S
H630 C615 0.961 . S
H631 C615 0.961 . S
H632 C616 0.931 . S
H633 C621 0.930 . S
H634 C622 0.956 . S
H635 C622 0.961 . S
H636 C622 0.961 . S
H637 C623 0.958 . S
H638 C623 0.961 . S
H639 C623 0.960 . S
C640 C641 1.391 . S
C640 C642 1.394 . S
C640 H656 0.931 . S
C641 C640 1.391 . S
C641 C645 1.376 . S
C642 C640 1.394 . S
C642 C643 1.369 . S
C642 C646 1.531 . S
C643 C642 1.369 . S
C643 C644 1.410 . S
C643 C651 1.503 . S
C644 C643 1.410 . S
C644 C645 1.392 . S
C644 C647 1.511 . S
C645 C641 1.376 . S
C645 C644 1.392 . S
C645 H657 0.929 . S
C646 C642 1.531 . S
C646 H658 0.960 . S
C646 H659 0.962 . S
C646 H660 0.960 . S
C647 C644 1.511 . S
C647 H661 0.961 . S
C647 H662 0.961 . S
C647 H663 0.961 . S
C648 C649 1.370 . S
C648 C650 1.363 . S
C648 H664 0.931 . S
C649 C648 1.370 . S
C649 C653 1.408 . S
C650 C648 1.363 . S
C650 C651 1.370 . S
C650 C654 1.524 . S
C651 C643 1.503 . S
C651 C650 1.370 . S
C651 C652 1.403 . S
C652 C651 1.403 . S
C652 C653 1.404 . S
C652 C655 1.539 . S
C653 C649 1.408 . S
C653 C652 1.404 . S
C653 H665 0.930 . S
C654 C650 1.524 . S
C654 H666 0.956 . S
C654 H667 0.961 . S
C654 H668 0.961 . S
C655 C652 1.539 . S
C655 H669 0.958 . S
C655 H670 0.961 . S
C655 H671 0.960 . S
H656 C640 0.931 . S
H657 C645 0.929 . S
H658 C646 0.960 . S
H659 C646 0.962 . S
H660 C646 0.960 . S
H661 C647 0.961 . S
H662 C647 0.961 . S
H663 C647 0.961 . S
H664 C648 0.931 . S
H665 C653 0.930 . S
H666 C654 0.956 . S
H667 C654 0.961 . S
H668 C654 0.961 . S
H669 C655 0.958 . S
H670 C655 0.961 . S
H671 C655 0.960 . S
C672 C673 1.391 . S
C672 C674 1.394 . S
C672 H688 0.931 . S
C673 C672 1.391 . S
C673 C677 1.376 . S
C674 C672 1.394 . S
C674 C675 1.369 . S
C674 C678 1.531 . S
C675 C674 1.369 . S
C675 C676 1.410 . S
C675 C683 1.503 . S
C676 C675 1.410 . S
C676 C677 1.392 . S
C676 C679 1.511 . S
C677 C673 1.376 . S
C677 C676 1.392 . S
C677 H689 0.929 . S
C678 C674 1.531 . S
C678 H690 0.960 . S
C678 H691 0.962 . S
C678 H692 0.960 . S
C679 C676 1.511 . S
C679 H693 0.961 . S
C679 H694 0.961 . S
C679 H695 0.961 . S
C680 C681 1.370 . S
C680 C682 1.363 . S
C680 H696 0.931 . S
C681 C680 1.370 . S
C681 C685 1.408 . S
C682 C680 1.363 . S
C682 C683 1.370 . S
C682 C686 1.524 . S
C683 C675 1.503 . S
C683 C682 1.370 . S
C683 C684 1.403 . S
C684 C683 1.403 . S
C684 C685 1.404 . S
C684 C687 1.539 . S
C685 C681 1.408 . S
C685 C684 1.404 . S
C685 H697 0.930 . S
C686 C682 1.524 . S
C686 H698 0.956 . S
C686 H699 0.961 . S
C686 H700 0.961 . S
C687 C684 1.539 . S
C687 H701 0.958 . S
C687 H702 0.961 . S
C687 H703 0.960 . S
H688 C672 0.931 . S
H689 C677 0.929 . S
H690 C678 0.960 . S
H691 C678 0.962 . S
H692 C678 0.960 . S
H693 C679 0.961 . S
H694 C679 0.961 . S
H695 C679 0.961 . S
H696 C680 0.931 . S
H697 C685 0.930 . S
H698 C686 0.956 . S
H699 C686 0.961 . S
H700 C686 0.961 . S
H701 C687 0.958 . S
H702 C687 0.961 . S
H703 C687 0.960 . S
C704 C705 1.391 . S
C704 C706 1.394 . S
C704 H720 0.931 . S
C705 C704 1.391 . S
C705 C709 1.376 . S
C706 C704 1.394 . S
C706 C707 1.369 . S
C706 C710 1.531 . S
C707 C706 1.369 . S
C707 C708 1.410 . S
C707 C715 1.503 . S
C708 C707 1.410 . S
C708 C709 1.392 . S
C708 C711 1.511 . S
C709 C705 1.376 . S
C709 C708 1.392 . S
C709 H721 0.929 . S
C710 C706 1.531 . S
C710 H722 0.960 . S
C710 H723 0.962 . S
C710 H724 0.960 . S
C711 C708 1.511 . S
C711 H725 0.961 . S
C711 H726 0.961 . S
C711 H727 0.961 . S
C712 C713 1.370 . S
C712 C714 1.363 . S
C712 H728 0.931 . S
C713 C712 1.370 . S
C713 C717 1.408 . S
C714 C712 1.363 . S
C714 C715 1.370 . S
C714 C718 1.524 . S
C715 C707 1.503 . S
C715 C714 1.370 . S
C715 C716 1.403 . S
C716 C715 1.403 . S
C716 C717 1.404 . S
C716 C719 1.539 . S
C717 C713 1.408 . S
C717 C716 1.404 . S
C717 H729 0.930 . S
C718 C714 1.524 . S
C718 H730 0.956 . S
C718 H731 0.961 . S
C718 H732 0.961 . S
C719 C716 1.539 . S
C719 H733 0.958 . S
C719 H734 0.961 . S
C719 H735 0.960 . S
H720 C704 0.931 . S
H721 C709 0.929 . S
H722 C710 0.960 . S
H723 C710 0.962 . S
H724 C710 0.960 . S
H725 C711 0.961 . S
H726 C711 0.961 . S
H727 C711 0.961 . S
H728 C712 0.931 . S
H729 C717 0.930 . S
H730 C718 0.956 . S
H731 C718 0.961 . S
H732 C718 0.961 . S
H733 C719 0.958 . S
H734 C719 0.961 . S
H735 C719 0.960 . S
C736 C737 1.391 . S
C736 C738 1.394 . S
C736 H752 0.931 . S
C737 C736 1.391 . S
C737 C741 1.376 . S
C738 C736 1.394 . S
C738 C739 1.369 . S
C738 C742 1.531 . S
C739 C738 1.369 . S
C739 C740 1.410 . S
C739 C747 1.503 . S
C740 C739 1.410 . S
C740 C741 1.392 . S
C740 C743 1.511 . S
C741 C737 1.376 . S
C741 C740 1.392 . S
C741 H753 0.929 . S
C742 C738 1.531 . S
C742 H754 0.960 . S
C742 H755 0.962 . S
C742 H756 0.960 . S
C743 C740 1.511 . S
C743 H757 0.961 . S
C743 H758 0.961 . S
C743 H759 0.961 . S
C744 C745 1.370 . S
C744 C746 1.363 . S
C744 H760 0.931 . S
C745 C744 1.370 . S
C745 C749 1.408 . S
C746 C744 1.363 . S
C746 C747 1.370 . S
C746 C750 1.524 . S
C747 C739 1.503 . S
C747 C746 1.370 . S
C747 C748 1.403 . S
C748 C747 1.403 . S
C748 C749 1.404 . S
C748 C751 1.539 . S
C749 C745 1.408 . S
C749 C748 1.404 . S
C749 H761 0.930 . S
C750 C746 1.524 . S
C750 H762 0.956 . S
C750 H763 0.961 . S
C750 H764 0.961 . S
C751 C748 1.539 . S
C751 H765 0.958 . S
C751 H766 0.961 . S
C751 H767 0.960 . S
H752 C736 0.931 . S
H753 C741 0.929 . S
H754 C742 0.960 . S
H755 C742 0.962 . S
H756 C742 0.960 . S
H757 C743 0.961 . S
H758 C743 0.961 . S
H759 C743 0.961 . S
H760 C744 0.931 . S
H761 C749 0.930 . S
H762 C750 0.956 . S
H763 C750 0.961 . S
H764 C750 0.961 . S
H765 C751 0.958 . S
H766 C751 0.961 . S
H767 C751 0.960 . S
C768 C769 1.391 . S
C768 C770 1.394 . S
C768 H784 0.931 . S
C769 C768 1.391 . S
C769 C773 1.376 . S
C770 C768 1.394 . S
C770 C771 1.369 . S
C770 C774 1.531 . S
C771 C770 1.369 . S
C771 C772 1.410 . S
C771 C779 1.503 . S
C772 C771 1.410 . S
C772 C773 1.392 . S
C772 C775 1.511 . S
C773 C769 1.376 . S
C773 C772 1.392 . S
C773 H785 0.929 . S
C774 C770 1.531 . S
C774 H786 0.960 . S
C774 H787 0.962 . S
C774 H788 0.960 . S
C775 C772 1.511 . S
C775 H789 0.961 . S
C775 H790 0.961 . S
C775 H791 0.961 . S
C776 C777 1.370 . S
C776 C778 1.363 . S
C776 H792 0.931 . S
C777 C776 1.370 . S
C777 C781 1.408 . S
C778 C776 1.363 . S
C778 C779 1.370 . S
C778 C782 1.524 . S
C779 C771 1.503 . S
C779 C778 1.370 . S
C779 C780 1.403 . S
C780 C779 1.403 . S
C780 C781 1.404 . S
C780 C783 1.539 . S
C781 C777 1.408 . S
C781 C780 1.404 . S
C781 H793 0.930 . S
C782 C778 1.524 . S
C782 H794 0.956 . S
C782 H795 0.961 . S
C782 H796 0.961 . S
C783 C780 1.539 . S
C783 H797 0.958 . S
C783 H798 0.961 . S
C783 H799 0.960 . S
H784 C768 0.931 . S
H785 C773 0.929 . S
H786 C774 0.960 . S
H787 C774 0.962 . S
H788 C774 0.960 . S
H789 C775 0.961 . S
H790 C775 0.961 . S
H791 C775 0.961 . S
H792 C776 0.931 . S
H793 C781 0.930 . S
H794 C782 0.956 . S
H795 C782 0.961 . S
H796 C782 0.961 . S
H797 C783 0.958 . S
H798 C783 0.961 . S
H799 C783 0.960 . S
C800 C801 1.391 . S
C800 C802 1.394 . S
C800 H816 0.931 . S
C801 C800 1.391 . S
C801 C805 1.376 . S
C802 C800 1.394 . S
C802 C803 1.369 . S
C802 C806 1.531 . S
C803 C802 1.369 . S
C803 C804 1.410 . S
C803 C811 1.503 . S
C804 C803 1.410 . S
C804 C805 1.392 . S
C804 C807 1.511 . S
C805 C801 1.376 . S
C805 C804 1.392 . S
C805 H817 0.929 . S
C806 C802 1.531 . S
C806 H818 0.960 . S
C806 H819 0.962 . S
C806 H820 0.960 . S
C807 C804 1.511 . S
C807 H821 0.961 . S
C807 H822 0.961 . S
C807 H823 0.961 . S
C808 C809 1.370 . S
C808 C810 1.363 . S
C808 H824 0.931 . S
C809 C808 1.370 . S
C809 C813 1.408 . S
C810 C808 1.363 . S
C810 C811 1.370 . S
C810 C814 1.524 . S
C811 C803 1.503 . S
C811 C810 1.370 . S
C811 C812 1.403 . S
C812 C811 1.403 . S
C812 C813 1.404 . S
C812 C815 1.539 . S
C813 C809 1.408 . S
C813 C812 1.404 . S
C813 H825 0.930 . S
C814 C810 1.524 . S
C814 H826 0.956 . S
C814 H827 0.961 . S
C814 H828 0.961 . S
C815 C812 1.539 . S
C815 H829 0.958 . S
C815 H830 0.961 . S
C815 H831 0.960 . S
H816 C800 0.931 . S
H817 C805 0.929 . S
H818 C806 0.960 . S
H819 C806 0.962 . S
H820 C806 0.960 . S
H821 C807 0.961 . S
H822 C807 0.961 . S
H823 C807 0.961 . S
H824 C808 0.931 . S
H825 C813 0.930 . S
H826 C814 0.956 . S
H827 C814 0.961 . S
H828 C814 0.961 . S
H829 C815 0.958 . S
H830 C815 0.961 . S
H831 C815 0.960 . S
C832 C833 1.391 . S
C832 C834 1.394 . S
C832 H848 0.931 . S
C833 C832 1.391 . S
C833 C837 1.376 . S
C834 C832 1.394 . S
C834 C835 1.369 . S
C834 C838 1.531 . S
C835 C834 1.369 . S
C835 C836 1.410 . S
C835 C843 1.503 . S
C836 C835 1.410 . S
C836 C837 1.392 . S
C836 C839 1.511 . S
C837 C833 1.376 . S
C837 C836 1.392 . S
C837 H849 0.929 . S
C838 C834 1.531 . S
C838 H850 0.960 . S
C838 H851 0.962 . S
C838 H852 0.960 . S
C839 C836 1.511 . S
C839 H853 0.961 . S
C839 H854 0.961 . S
C839 H855 0.961 . S
C840 C841 1.370 . S
C840 C842 1.363 . S
C840 H856 0.931 . S
C841 C840 1.370 . S
C841 C845 1.408 . S
C842 C840 1.363 . S
C842 C843 1.370 . S
C842 C846 1.524 . S
C843 C835 1.503 . S
C843 C842 1.370 . S
C843 C844 1.403 . S
C844 C843 1.403 . S
C844 C845 1.404 . S
C844 C847 1.539 . S
C845 C841 1.408 . S
C845 C844 1.404 . S
C845 H857 0.930 . S
C846 C842 1.524 . S
C846 H858 0.956 . S
C846 H859 0.961 . S
C846 H860 0.961 . S
C847 C844 1.539 . S
C847 H861 0.958 . S
C847 H862 0.961 . S
C847 H863 0.960 . S
H848 C832 0.931 . S
H849 C837 0.929 . S
H850 C838 0.960 . S
H851 C838 0.962 . S
H852 C838 0.960 . S
H853 C839 0.961 . S
H854 C839 0.961 . S
H855 C839 0.961 . S
H856 C840 0.931 . S
H857 C845 0.930 . S
H858 C846 0.956 . S
H859 C846 0.961 . S
H860 C846 0.961 . S
H861 C847 0.958 . S
H862 C847 0.961 . S
H863 C847 0.960 . S
C864 C865 1.391 . S
C864 C866 1.394 . S
C864 H880 0.931 . S
C865 C864 1.391 . S
C865 C869 1.376 . S
C866 C864 1.394 . S
C866 C867 1.369 . S
C866 C870 1.531 . S
C867 C866 1.369 . S
C867 C868 1.410 . S
C867 C875 1.503 . S
C868 C867 1.410 . S
C868 C869 1.392 . S
C868 C871 1.511 . S
C869 C865 1.376 . S
C869 C868 1.392 . S
C869 H881 0.929 . S
C870 C866 1.531 . S
C870 H882 0.960 . S
C870 H883 0.962 . S
C870 H884 0.960 . S
C871 C868 1.511 . S
C871 H885 0.961 . S
C871 H886 0.961 . S
C871 H887 0.961 . S
C872 C873 1.370 . S
C872 C874 1.363 . S
C872 H888 0.931 . S
C873 C872 1.370 . S
C873 C877 1.408 . S
C874 C872 1.363 . S
C874 C875 1.370 . S
C874 C878 1.524 . S
C875 C867 1.503 . S
C875 C874 1.370 . S
C875 C876 1.403 . S
C876 C875 1.403 . S
C876 C877 1.404 . S
C876 C879 1.539 . S
C877 C873 1.408 . S
C877 C876 1.404 . S
C877 H889 0.930 . S
C878 C874 1.524 . S
C878 H890 0.956 . S
C878 H891 0.961 . S
C878 H892 0.961 . S
C879 C876 1.539 . S
C879 H893 0.958 . S
C879 H894 0.961 . S
C879 H895 0.960 . S
H880 C864 0.931 . S
H881 C869 0.929 . S
H882 C870 0.960 . S
H883 C870 0.962 . S
H884 C870 0.960 . S
H885 C871 0.961 . S
H886 C871 0.961 . S
H887 C871 0.961 . S
H888 C872 0.931 . S
H889 C877 0.930 . S
H890 C878 0.956 . S
H891 C878 0.961 . S
H892 C878 0.961 . S
H893 C879 0.958 . S
H894 C879 0.961 . S
H895 C879 0.960 . S
C896 C897 1.391 . S
C896 C898 1.394 . S
C896 H912 0.931 . S
C897 C896 1.391 . S
C897 C901 1.376 . S
C898 C896 1.394 . S
C898 C899 1.369 . S
C898 C902 1.531 . S
C899 C898 1.369 . S
C899 C900 1.410 . S
C899 C907 1.503 . S
C900 C899 1.410 . S
C900 C901 1.392 . S
C900 C903 1.511 . S
C901 C897 1.376 . S
C901 C900 1.392 . S
C901 H913 0.929 . S
C902 C898 1.531 . S
C902 H914 0.960 . S
C902 H915 0.962 . S
C902 H916 0.960 . S
C903 C900 1.511 . S
C903 H917 0.961 . S
C903 H918 0.961 . S
C903 H919 0.961 . S
C904 C905 1.370 . S
C904 C906 1.363 . S
C904 H920 0.931 . S
C905 C904 1.370 . S
C905 C909 1.408 . S
C906 C904 1.363 . S
C906 C907 1.370 . S
C906 C910 1.524 . S
C907 C899 1.503 . S
C907 C906 1.370 . S
C907 C908 1.403 . S
C908 C907 1.403 . S
C908 C909 1.404 . S
C908 C911 1.539 . S
C909 C905 1.408 . S
C909 C908 1.404 . S
C909 H921 0.930 . S
C910 C906 1.524 . S
C910 H922 0.956 . S
C910 H923 0.961 . S
C910 H924 0.961 . S
C911 C908 1.539 . S
C911 H925 0.958 . S
C911 H926 0.961 . S
C911 H927 0.960 . S
H912 C896 0.931 . S
H913 C901 0.929 . S
H914 C902 0.960 . S
H915 C902 0.962 . S
H916 C902 0.960 . S
H917 C903 0.961 . S
H918 C903 0.961 . S
H919 C903 0.961 . S
H920 C904 0.931 . S
H921 C909 0.930 . S
H922 C910 0.956 . S
H923 C910 0.961 . S
H924 C910 0.961 . S
H925 C911 0.958 . S
H926 C911 0.961 . S
H927 C911 0.960 . S
C928 C929 1.391 . S
C928 C930 1.394 . S
C928 H944 0.931 . S
C929 C928 1.391 . S
C929 C933 1.376 . S
C930 C928 1.394 . S
C930 C931 1.369 . S
C930 C934 1.531 . S
C931 C930 1.369 . S
C931 C932 1.410 . S
C931 C939 1.503 . S
C932 C931 1.410 . S
C932 C933 1.392 . S
C932 C935 1.511 . S
C933 C929 1.376 . S
C933 C932 1.392 . S
C933 H945 0.929 . S
C934 C930 1.531 . S
C934 H946 0.960 . S
C934 H947 0.962 . S
C934 H948 0.960 . S
C935 C932 1.511 . S
C935 H949 0.961 . S
C935 H950 0.961 . S
C935 H951 0.961 . S
C936 C937 1.370 . S
C936 C938 1.363 . S
C936 H952 0.931 . S
C937 C936 1.370 . S
C937 C941 1.408 . S
C938 C936 1.363 . S
C938 C939 1.370 . S
C938 C942 1.524 . S
C939 C931 1.503 . S
C939 C938 1.370 . S
C939 C940 1.403 . S
C940 C939 1.403 . S
C940 C941 1.404 . S
C940 C943 1.539 . S
C941 C937 1.408 . S
C941 C940 1.404 . S
C941 H953 0.930 . S
C942 C938 1.524 . S
C942 H954 0.956 . S
C942 H955 0.961 . S
C942 H956 0.961 . S
C943 C940 1.539 . S
C943 H957 0.958 . S
C943 H958 0.961 . S
C943 H959 0.960 . S
H944 C928 0.931 . S
H945 C933 0.929 . S
H946 C934 0.960 . S
H947 C934 0.962 . S
H948 C934 0.960 . S
H949 C935 0.961 . S
H950 C935 0.961 . S
H951 C935 0.961 . S
H952 C936 0.931 . S
H953 C941 0.930 . S
H954 C942 0.956 . S
H955 C942 0.961 . S
H956 C942 0.961 . S
H957 C943 0.958 . S
H958 C943 0.961 . S
H959 C943 0.960 . S
C960 C961 1.391 . S
C960 C962 1.394 . S
C960 H976 0.931 . S
C961 C960 1.391 . S
C961 C965 1.376 . S
C962 C960 1.394 . S
C962 C963 1.369 . S
C962 C966 1.531 . S
C963 C962 1.369 . S
C963 C964 1.410 . S
C963 C971 1.503 . S
C964 C963 1.410 . S
C964 C965 1.392 . S
C964 C967 1.511 . S
C965 C961 1.376 . S
C965 C964 1.392 . S
C965 H977 0.929 . S
C966 C962 1.531 . S
C966 H978 0.960 . S
C966 H979 0.962 . S
C966 H980 0.960 . S
C967 C964 1.511 . S
C967 H981 0.961 . S
C967 H982 0.961 . S
C967 H983 0.961 . S
C968 C969 1.370 . S
C968 C970 1.363 . S
C968 H984 0.931 . S
C969 C968 1.370 . S
C969 C973 1.408 . S
C970 C968 1.363 . S
C970 C971 1.370 . S
C970 C974 1.524 . S
C971 C963 1.503 . S
C971 C970 1.370 . S
C971 C972 1.403 . S
C972 C971 1.403 . S
C972 C973 1.404 . S
C972 C975 1.539 . S
C973 C969 1.408 . S
C973 C972 1.404 . S
C973 H985 0.930 . S
C974 C970 1.524 . S
C974 H986 0.956 . S
C974 H987 0.961 . S
C974 H988 0.961 . S
C975 C972 1.539 . S
C975 H989 0.958 . S
C975 H990 0.961 . S
C975 H991 0.960 . S
H976 C960 0.931 . S
H977 C965 0.929 . S
H978 C966 0.960 . S
H979 C966 0.962 . S
H980 C966 0.960 . S
H981 C967 0.961 . S
H982 C967 0.961 . S
H983 C967 0.961 . S
H984 C968 0.931 . S
H985 C973 0.930 . S
H986 C974 0.956 . S
H987 C974 0.961 . S
H988 C974 0.961 . S
H989 C975 0.958 . S
H990 C975 0.961 . S
H991 C975 0.960 . S
C992 C993 1.391 . S
C992 C994 1.394 . S
C992 H1008 0.931 . S
C993 C992 1.391 . S
C993 C997 1.376 . S
C994 C992 1.394 . S
C994 C995 1.369 . S
C994 C998 1.531 . S
C995 C994 1.369 . S
C995 C996 1.410 . S
C995 C1003 1.503 . S
C996 C995 1.410 . S
C996 C997 1.392 . S
C996 C999 1.511 . S
C997 C993 1.376 . S
C997 C996 1.392 . S
C997 H1009 0.929 . S
C998 C994 1.531 . S
C998 H1010 0.960 . S
C998 H1011 0.962 . S
C998 H1012 0.960 . S
C999 C996 1.511 . S
C999 H1013 0.961 . S
C999 H1014 0.961 . S
C999 H1015 0.961 . S
C1000 C1001 1.370 . S
C1000 C1002 1.363 . S
C1000 H1016 0.931 . S
C1001 C1000 1.370 . S
C1001 C1005 1.408 . S
C1002 C1000 1.363 . S
C1002 C1003 1.370 . S
C1002 C1006 1.524 . S
C1003 C995 1.503 . S
C1003 C1002 1.370 . S
C1003 C1004 1.403 . S
C1004 C1003 1.403 . S
C1004 C1005 1.404 . S
C1004 C1007 1.539 . S
C1005 C1001 1.408 . S
C1005 C1004 1.404 . S
C1005 H1017 0.930 . S
C1006 C1002 1.524 . S
C1006 H1018 0.956 . S
C1006 H1019 0.961 . S
C1006 H1020 0.961 . S
C1007 C1004 1.539 . S
C1007 H1021 0.958 . S
C1007 H1022 0.961 . S
C1007 H1023 0.960 . S
H1008 C992 0.931 . S
H1009 C997 0.929 . S
H1010 C998 0.960 . S
H1011 C998 0.962 . S
H1012 C998 0.960 . S
H1013 C999 0.961 . S
H1014 C999 0.961 . S
H1015 C999 0.961 . S
H1016 C1000 0.931 . S
H1017 C1005 0.930 . S
H1018 C1006 0.956 . S
H1019 C1006 0.961 . S
H1020 C1006 0.961 . S
H1021 C1007 0.958 . S
H1022 C1007 0.961 . S
H1023 C1007 0.960 . S
C1024 C1025 1.391 . S
C1024 C1026 1.394 . S
C1024 H1040 0.931 . S
C1025 C1024 1.391 . S
C1025 C1029 1.376 . S
C1026 C1024 1.394 . S
C1026 C1027 1.369 . S
C1026 C1030 1.531 . S
C1027 C1026 1.369 . S
C1027 C1028 1.410 . S
C1027 C1035 1.503 . S
C1028 C1027 1.410 . S
C1028 C1029 1.392 . S
C1028 C1031 1.511 . S
C1029 C1025 1.376 . S
C1029 C1028 1.392 . S
C1029 H1041 0.929 . S
C1030 C1026 1.531 . S
C1030 H1042 0.960 . S
C1030 H1043 0.962 . S
C1030 H1044 0.960 . S
C1031 C1028 1.511 . S
C1031 H1045 0.961 . S
C1031 H1046 0.961 . S
C1031 H1047 0.961 . S
C1032 C1033 1.370 . S
C1032 C1034 1.363 . S
C1032 H1048 0.931 . S
C1033 C1032 1.370 . S
C1033 C1037 1.408 . S
C1034 C1032 1.363 . S
C1034 C1035 1.370 . S
C1034 C1038 1.524 . S
C1035 C1027 1.503 . S
C1035 C1034 1.370 . S
C1035 C1036 1.403 . S
C1036 C1035 1.403 . S
C1036 C1037 1.404 . S
C1036 C1039 1.539 . S
C1037 C1033 1.408 . S
C1037 C1036 1.404 . S
C1037 H1049 0.930 . S
C1038 C1034 1.524 . S
C1038 H1050 0.956 . S
C1038 H1051 0.961 . S
C1038 H1052 0.961 . S
C1039 C1036 1.539 . S
C1039 H1053 0.958 . S
C1039 H1054 0.961 . S
C1039 H1055 0.960 . S
H1040 C1024 0.931 . S
H1041 C1029 0.929 . S
H1042 C1030 0.960 . S
H1043 C1030 0.962 . S
H1044 C1030 0.960 . S
H1045 C1031 0.961 . S
H1046 C1031 0.961 . S
H1047 C1031 0.961 . S
H1048 C1032 0.931 . S
H1049 C1037 0.930 . S
H1050 C1038 0.956 . S
H1051 C1038 0.961 . S
H1052 C1038 0.961 . S
H1053 C1039 0.958 . S
H1054 C1039 0.961 . S
H1055 C1039 0.960 . S
C1056 C1057 1.391 . S
C1056 C1058 1.394 . S
C1056 H1072 0.931 . S
C1057 C1056 1.391 . S
C1057 C1061 1.376 . S
C1058 C1056 1.394 . S
C1058 C1059 1.369 . S
C1058 C1062 1.531 . S
C1059 C1058 1.369 . S
C1059 C1060 1.410 . S
C1059 C1067 1.503 . S
C1060 C1059 1.410 . S
C1060 C1061 1.392 . S
C1060 C1063 1.511 . S
C1061 C1057 1.376 . S
C1061 C1060 1.392 . S
C1061 H1073 0.929 . S
C1062 C1058 1.531 . S
C1062 H1074 0.960 . S
C1062 H1075 0.962 . S
C1062 H1076 0.960 . S
C1063 C1060 1.511 . S
C1063 H1077 0.961 . S
C1063 H1078 0.961 . S
C1063 H1079 0.961 . S
C1064 C1065 1.370 . S
C1064 C1066 1.363 . S
C1064 H1080 0.931 . S
C1065 C1064 1.370 . S
C1065 C1069 1.408 . S
C1066 C1064 1.363 . S
C1066 C1067 1.370 . S
C1066 C1070 1.524 . S
C1067 C1059 1.503 . S
C1067 C1066 1.370 . S
C1067 C1068 1.403 . S
C1068 C1067 1.403 . S
C1068 C1069 1.404 . S
C1068 C1071 1.539 . S
C1069 C1065 1.408 . S
C1069 C1068 1.404 . S
C1069 H1081 0.930 . S
C1070 C1066 1.524 . S
C1070 H1082 0.956 . S
C1070 H1083 0.961 . S
C1070 H1084 0.961 . S
C1071 C1068 1.539 . S
C1071 H1085 0.958 . S
C1071 H1086 0.961 . S
C1071 H1087 0.960 . S
H1072 C1056 0.931 . S
H1073 C1061 0.929 . S
H1074 C1062 0.960 . S
H1075 C1062 0.962 . S
H1076 C1062 0.960 . S
H1077 C1063 0.961 . S
H1078 C1063 0.961 . S
H1079 C1063 0.961 . S
H1080 C1064 0.931 . S
H1081 C1069 0.930 . S
H1082 C1070 0.956 . S
H1083 C1070 0.961 . S
H1084 C1070 0.961 . S
H1085 C1071 0.958 . S
H1086 C1071 0.961 . S
H1087 C1071 0.960 . S
C1088 C1089 1.391 . S
C1088 C1090 1.394 . S
C1088 H1104 0.931 . S
C1089 C1088 1.391 . S
C1089 C1093 1.376 . S
C1090 C1088 1.394 . S
C1090 C1091 1.369 . S
C1090 C1094 1.531 . S
C1091 C1090 1.369 . S
C1091 C1092 1.410 . S
C1091 C1099 1.503 . S
C1092 C1091 1.410 . S
C1092 C1093 1.392 . S
C1092 C1095 1.511 . S
C1093 C1089 1.376 . S
C1093 C1092 1.392 . S
C1093 H1105 0.929 . S
C1094 C1090 1.531 . S
C1094 H1106 0.960 . S
C1094 H1107 0.962 . S
C1094 H1108 0.960 . S
C1095 C1092 1.511 . S
C1095 H1109 0.961 . S
C1095 H1110 0.961 . S
C1095 H1111 0.961 . S
C1096 C1097 1.370 . S
C1096 C1098 1.363 . S
C1096 H1112 0.931 . S
C1097 C1096 1.370 . S
C1097 C1101 1.408 . S
C1098 C1096 1.363 . S
C1098 C1099 1.370 . S
C1098 C1102 1.524 . S
C1099 C1091 1.503 . S
C1099 C1098 1.370 . S
C1099 C1100 1.403 . S
C1100 C1099 1.403 . S
C1100 C1101 1.404 . S
C1100 C1103 1.539 . S
C1101 C1097 1.408 . S
C1101 C1100 1.404 . S
C1101 H1113 0.930 . S
C1102 C1098 1.524 . S
C1102 H1114 0.956 . S
C1102 H1115 0.961 . S
C1102 H1116 0.961 . S
C1103 C1100 1.539 . S
C1103 H1117 0.958 . S
C1103 H1118 0.961 . S
C1103 H1119 0.960 . S
H1104 C1088 0.931 . S
H1105 C1093 0.929 . S
H1106 C1094 0.960 . S
H1107 C1094 0.962 . S
H1108 C1094 0.960 . S
H1109 C1095 0.961 . S
H1110 C1095 0.961 . S
H1111 C1095 0.961 . S
H1112 C1096 0.931 . S
H1113 C1101 0.930 . S
H1114 C1102 0.956 . S
H1115 C1102 0.961 . S
H1116 C1102 0.961 . S
H1117 C1103 0.958 . S
H1118 C1103 0.961 . S
H1119 C1103 0.960 . S
C1120 C1121 1.391 1_565 S
C1120 C1122 1.394 . S
C1120 H1136 0.931 . S
C1121 C1120 1.391 1_545 S
C1121 C1125 1.376 . S
C1122 C1120 1.394 . S
C1122 C1123 1.369 1_565 S
C1122 C1126 1.531 . S
C1123 C1122 1.369 1_545 S
C1123 C1124 1.410 . S
C1123 C1131 1.503 1_544 S
C1124 C1123 1.410 . S
C1124 C1125 1.392 . S
C1124 C1127 1.503 1_554 S
C1125 C1121 1.376 . S
C1125 C1124 1.392 . S
C1125 H1137 0.929 . S
C1126 C1122 1.531 . S
C1126 H1138 0.960 . S
C1126 H1139 0.962 . S
C1126 H1140 0.960 . S
C1127 C1124 1.503 1_556 S
C1127 H1141 0.957 1_556 S
C1127 H1142 0.971 . S
C1127 H1143 0.963 . S
C1128 C1129 1.370 . S
C1128 C1130 1.363 . S
C1128 H1144 0.931 . S
C1129 C1128 1.370 . S
C1129 C1133 1.408 . S
C1130 C1128 1.363 . S
C1130 C1131 1.370 . S
C1130 C1134 1.524 . S
C1131 C1123 1.503 1_566 S
C1131 C1130 1.370 . S
C1131 C1132 1.403 . S
C1132 C1131 1.403 . S
C1132 C1133 1.404 . S
C1132 C1135 1.539 . S
C1133 C1129 1.408 . S
C1133 C1132 1.404 . S
C1133 H1145 0.930 . S
C1134 C1130 1.524 . S
C1134 H1146 0.956 1_556 S
C1134 H1147 0.961 1_565 S
C1134 H1148 0.961 . S
C1135 C1132 1.539 . S
C1135 H1149 0.958 . S
C1135 H1150 0.961 1_565 S
C1135 H1151 0.960 1_565 S
H1136 C1120 0.931 . S
H1137 C1125 0.929 . S
H1138 C1126 0.960 . S
H1139 C1126 0.962 . S
H1140 C1126 0.960 . S
H1141 C1127 0.957 1_554 S
H1142 C1127 0.971 . S
H1143 C1127 0.963 . S
H1144 C1128 0.931 . S
H1145 C1133 0.930 . S
H1146 C1134 0.956 1_554 S
H1147 C1134 0.961 1_545 S
H1148 C1134 0.961 . S
H1149 C1135 0.958 . S
H1150 C1135 0.961 1_545 S
H1151 C1135 0.960 1_545 S
C1152 C1153 1.391 1_655 S
C1152 C1154 1.394 . S
C1152 H1168 0.931 . S
C1153 C1152 1.391 1_455 S
C1153 C1157 1.376 . S
C1154 C1152 1.394 . S
C1154 C1155 1.369 1_655 S
C1154 C1158 1.531 . S
C1155 C1154 1.369 1_455 S
C1155 C1156 1.410 . S
C1155 C1163 1.503 1_456 S
C1156 C1155 1.410 . S
C1156 C1157 1.392 . S
C1156 C1159 1.530 . S
C1157 C1153 1.376 . S
C1157 C1156 1.392 . S
C1157 H1169 0.929 . S
C1158 C1154 1.531 . S
C1158 H1170 0.960 . S
C1158 H1171 0.962 . S
C1158 H1172 0.960 . S
C1159 C1156 1.530 . S
C1159 H1173 0.973 . S
C1159 H1174 0.939 1_556 S
C1159 H1175 0.952 1_556 S
C1160 C1161 1.370 . S
C1160 C1162 1.363 . S
C1160 H1176 0.931 . S
C1161 C1160 1.370 . S
C1161 C1165 1.408 . S
C1162 C1160 1.363 . S
C1162 C1163 1.370 . S
C1162 C1166 1.524 . S
C1163 C1155 1.503 1_654 S
C1163 C1162 1.370 . S
C1163 C1164 1.403 1_655 S
C1164 C1163 1.403 1_455 S
C1164 C1165 1.404 1_455 S
C1164 C1167 1.539 . S
C1165 C1161 1.408 . S
C1165 C1164 1.404 1_655 S
C1165 H1177 0.930 1_655 S
C1166 C1162 1.524 . S
C1166 H1178 0.956 1_554 S
C1166 H1179 0.961 1_554 S
C1166 H1180 0.961 . S
C1167 C1164 1.539 . S
C1167 H1181 0.958 . S
C1167 H1182 0.961 . S
C1167 H1183 0.960 . S
H1168 C1152 0.931 . S
H1169 C1157 0.929 . S
H1170 C1158 0.960 . S
H1171 C1158 0.962 . S
H1172 C1158 0.960 . S
H1173 C1159 0.973 . S
H1174 C1159 0.939 1_554 S
H1175 C1159 0.952 1_554 S
H1176 C1160 0.931 . S
H1177 C1165 0.930 1_455 S
H1178 C1166 0.956 1_556 S
H1179 C1166 0.961 1_556 S
H1180 C1166 0.961 . S
H1181 C1167 0.958 . S
H1182 C1167 0.961 . S
H1183 C1167 0.960 . S
C1184 C1185 1.391 . S
C1184 C1186 1.394 . S
C1184 H1200 0.931 . S
C1185 C1184 1.391 . S
C1185 C1189 1.376 . S
C1186 C1184 1.394 . S
C1186 C1187 1.369 . S
C1186 C1190 1.531 . S
C1187 C1186 1.369 . S
C1187 C1188 1.397 1_545 S
C1187 C1195 1.497 1_546 S
C1188 C1187 1.397 1_565 S
C1188 C1189 1.384 1_565 S
C1188 C1191 1.533 . S
C1189 C1185 1.376 . S
C1189 C1188 1.384 1_545 S
C1189 H1201 0.929 1_545 S
C1190 C1186 1.531 . S
C1190 H1202 0.960 1_556 S
C1190 H1203 0.962 . S
C1190 H1204 0.960 . S
C1191 C1188 1.533 . S
C1191 H1205 0.961 . S
C1191 H1206 0.961 . S
C1191 H1207 0.961 . S
C1192 C1193 1.370 . S
C1192 C1194 1.363 . S
C1192 H1208 0.931 . S
C1193 C1192 1.370 . S
C1193 C1197 1.408 1_565 S
C1194 C1192 1.363 . S
C1194 C1195 1.386 . S
C1194 C1198 1.525 . S
C1195 C1187 1.497 1_564 S
C1195 C1194 1.386 . S
C1195 C1196 1.393 1_565 S
C1196 C1195 1.393 1_545 S
C1196 C1197 1.404 . S
C1196 C1199 1.539 . S
C1197 C1193 1.408 1_545 S
C1197 C1196 1.404 . S
C1197 H1209 0.930 . S
C1198 C1194 1.525 . S
C1198 H1210 0.956 1_554 S
C1198 H1211 0.960 1_554 S
C1198 H1212 0.961 . S
C1199 C1196 1.539 . S
C1199 H1213 0.958 . S
C1199 H1214 0.961 . S
C1199 H1215 0.960 . S
H1200 C1184 0.931 . S
H1201 C1189 0.929 1_565 S
H1202 C1190 0.960 1_554 S
H1203 C1190 0.962 . S
H1204 C1190 0.960 . S
H1205 C1191 0.961 . S
H1206 C1191 0.961 . S
H1207 C1191 0.961 . S
H1208 C1192 0.931 . S
H1209 C1197 0.930 . S
H1210 C1198 0.956 1_556 S
H1211 C1198 0.960 1_556 S
H1212 C1198 0.961 . S
H1213 C1199 0.958 . S
H1214 C1199 0.961 . S
H1215 C1199 0.960 . S
C1216 C1217 1.391 1_455 S
C1216 C1218 1.394 . S
C1216 H1232 0.931 . S
C1217 C1216 1.391 1_655 S
C1217 C1221 1.376 . S
C1218 C1216 1.394 . S
C1218 C1219 1.369 1_455 S
C1218 C1222 1.531 . S
C1219 C1218 1.369 1_655 S
C1219 C1220 1.410 . S
C1219 C1227 1.503 1_656 S
C1220 C1219 1.410 . S
C1220 C1221 1.392 . S
C1220 C1223 1.519 . S
C1221 C1217 1.376 . S
C1221 C1220 1.392 . S
C1221 H1233 0.929 . S
C1222 C1218 1.531 . S
C1222 H1234 0.960 . S
C1222 H1235 0.962 . S
C1222 H1236 0.960 . S
C1223 C1220 1.519 . S
C1223 H1237 0.965 . S
C1223 H1238 0.952 1_556 S
C1223 H1239 0.957 1_556 S
C1224 C1225 1.370 . S
C1224 C1226 1.363 . S
C1224 H1240 0.931 . S
C1225 C1224 1.370 . S
C1225 C1229 1.408 . S
C1226 C1224 1.363 . S
C1226 C1227 1.370 . S
C1226 C1230 1.524 . S
C1227 C1219 1.503 1_454 S
C1227 C1226 1.370 . S
C1227 C1228 1.403 1_455 S
C1228 C1227 1.403 1_655 S
C1228 C1229 1.404 1_655 S
C1228 C1231 1.539 . S
C1229 C1225 1.408 . S
C1229 C1228 1.404 1_455 S
C1229 H1241 0.935 . S
C1230 C1226 1.524 . S
C1230 H1242 0.956 1_554 S
C1230 H1243 0.961 1_554 S
C1230 H1244 0.961 . S
C1231 C1228 1.539 . S
C1231 H1245 0.958 . S
C1231 H1246 0.961 . S
C1231 H1247 0.960 . S
H1232 C1216 0.931 . S
H1233 C1221 0.929 . S
H1234 C1222 0.960 . S
H1235 C1222 0.962 . S
H1236 C1222 0.960 . S
H1237 C1223 0.965 . S
H1238 C1223 0.952 1_554 S
H1239 C1223 0.957 1_554 S
H1240 C1224 0.931 . S
H1241 C1229 0.935 . S
H1242 C1230 0.956 1_556 S
H1243 C1230 0.961 1_556 S
H1244 C1230 0.961 . S
H1245 C1231 0.958 . S
H1246 C1231 0.961 . S
H1247 C1231 0.960 . S
C225 C8 1.264 . S
C233 C106 1.262 . S
C257 C22 1.249 . S
C265 C64 1.255 . S
C289 C78 1.249 . S
C297 C36 1.255 . S
C321 C50 1.265 . S
C329 C92 1.262 . S
C353 C120 1.259 . S
C361 C218 1.260 . S
C385 C176 1.255 . S
C393 C134 1.259 . S
C417 C190 1.245 . S
C425 C148 1.253 . S
C449 C204 1.255 . S
C457 C162 1.259 . S
C481 C9 1.375 . S
C489 C157 1.411 . S
C513 C23 1.366 . S
C521 C115 1.412 . S
C545 C129 1.408 . S
C553 C37 1.336 . S
C577 C51 1.377 . S
C585 C143 1.412 . S
C609 C65 1.322 . S
C617 C185 1.409 . S
C641 C199 1.404 . S
C649 C79 1.341 . S
C673 C93 1.318 . S
C681 C213 1.411 . S
C705 C171 1.410 . S
C713 C107 1.344 . S
C737 C121 1.335 . S
C745 C45 1.412 . S
C769 C3 1.406 . S
C777 C135 1.333 . S
C801 C149 1.369 . S
C809 C17 1.410 . S
C833 C31 1.405 . S
C841 C163 1.335 . S
C865 C177 1.364 . S
C873 C73 1.410 . S
C897 C87 1.410 . S
C905 C191 1.351 . S
C929 C101 1.409 . S
C937 C205 1.364 . S
C961 C59 1.404 . S
C969 C219 1.344 . S
C993 C63 1.563 . S
C1001 C7 1.581 . S
C1025 C77 1.606 . S
C1033 C21 1.593 . S
C1057 C35 1.574 . S
C1065 C91 1.586 . S
C1089 C105 1.576 . S
C1097 C49 1.579 . S
C1121 C175 1.558 . S
C1129 C119 1.576 . S
C1153 C189 1.607 . S
C1161 C133 1.594 . S
C1185 C147 1.602 . S
C1193 C203 1.593 . S
C1217 C217 1.608 . S
C1225 C161 1.594 . S
