# Generated by pormake.
# Topology wga, (5)-cn, num edge types: 1
# Building blocks:
#     Node 0, Type 0, BuildingBlock: XOMCOT_clean_sbu_0, # of connection points: 5
#     Node 1, Type 0, BuildingBlock: XOMCOT_clean_sbu_0, # of connection points: 5
#     Node 2, Type 0, BuildingBlock: XOMCOT_clean_sbu_0, # of connection points: 5
#     Node 3, Type 0, BuildingBlock: XOMCOT_clean_sbu_0, # of connection points: 5
#     Node 4, Type 0, BuildingBlock: XOMCOT_clean_sbu_0, # of connection points: 5
#     Node 5, Type 0, BuildingBlock: XOMCOT_clean_sbu_0, # of connection points: 5
#     Node 6, Type 0, BuildingBlock: XOMCOT_clean_sbu_0, # of connection points: 5
#     Node 7, Type 0, BuildingBlock: XOMCOT_clean_sbu_0, # of connection points: 5
#     Node 8, Type 0, BuildingBlock: XOMCOT_clean_sbu_0, # of connection points: 5
#     Node 9, Type 0, BuildingBlock: XOMCOT_clean_sbu_0, # of connection points: 5
#     Node 10, Type 0, BuildingBlock: XOMCOT_clean_sbu_0, # of connection points: 5
#     Node 11, Type 0, BuildingBlock: XOMCOT_clean_sbu_0, # of connection points: 5
#     Node 12, Type 0, BuildingBlock: XOMCOT_clean_sbu_0, # of connection points: 5
#     Node 13, Type 0, BuildingBlock: XOMCOT_clean_sbu_0, # of connection points: 5
#     Node 14, Type 0, BuildingBlock: XOMCOT_clean_sbu_0, # of connection points: 5
#     Node 15, Type 0, BuildingBlock: XOMCOT_clean_sbu_0, # of connection points: 5
#     Node 16, Type 0, BuildingBlock: XOMCOT_clean_sbu_0, # of connection points: 5
#     Node 17, Type 0, BuildingBlock: XOMCOT_clean_sbu_0, # of connection points: 5
#     Node 18, Type 0, BuildingBlock: XOMCOT_clean_sbu_0, # of connection points: 5
#     Node 19, Type 0, BuildingBlock: XOMCOT_clean_sbu_0, # of connection points: 5
#     Node 20, Type 0, BuildingBlock: XOMCOT_clean_sbu_0, # of connection points: 5
#     Node 21, Type 0, BuildingBlock: XOMCOT_clean_sbu_0, # of connection points: 5
#     Node 22, Type 0, BuildingBlock: XOMCOT_clean_sbu_0, # of connection points: 5
#     Node 23, Type 0, BuildingBlock: XOMCOT_clean_sbu_0, # of connection points: 5
#     Node 24, Type 0, BuildingBlock: XOMCOT_clean_sbu_0, # of connection points: 5
#     Node 25, Type 0, BuildingBlock: XOMCOT_clean_sbu_0, # of connection points: 5
#     Node 26, Type 0, BuildingBlock: XOMCOT_clean_sbu_0, # of connection points: 5
#     Node 27, Type 0, BuildingBlock: XOMCOT_clean_sbu_0, # of connection points: 5
#     Node 28, Type 0, BuildingBlock: XOMCOT_clean_sbu_0, # of connection points: 5
#     Node 29, Type 0, BuildingBlock: XOMCOT_clean_sbu_0, # of connection points: 5
#     Node 30, Type 0, BuildingBlock: XOMCOT_clean_sbu_0, # of connection points: 5
#     Node 31, Type 0, BuildingBlock: XOMCOT_clean_sbu_0, # of connection points: 5
#     Edge 32, Type (0, 0), BuildingBlock: KIFKEQ_clean_linker_1, # of connection points: 2
#     Edge 33, Type (0, 0), BuildingBlock: KIFKEQ_clean_linker_1, # of connection points: 2
#     Edge 34, Type (0, 0), BuildingBlock: KIFKEQ_clean_linker_1, # of connection points: 2
#     Edge 35, Type (0, 0), BuildingBlock: KIFKEQ_clean_linker_1, # of connection points: 2
#     Edge 36, Type (0, 0), BuildingBlock: KIFKEQ_clean_linker_1, # of connection points: 2
#     Edge 37, Type (0, 0), BuildingBlock: KIFKEQ_clean_linker_1, # of connection points: 2
#     Edge 38, Type (0, 0), BuildingBlock: KIFKEQ_clean_linker_1, # of connection points: 2
#     Edge 39, Type (0, 0), BuildingBlock: KIFKEQ_clean_linker_1, # of connection points: 2
#     Edge 40, Type (0, 0), BuildingBlock: KIFKEQ_clean_linker_1, # of connection points: 2
#     Edge 41, Type (0, 0), BuildingBlock: KIFKEQ_clean_linker_1, # of connection points: 2
#     Edge 42, Type (0, 0), BuildingBlock: KIFKEQ_clean_linker_1, # of connection points: 2
#     Edge 43, Type (0, 0), BuildingBlock: KIFKEQ_clean_linker_1, # of connection points: 2
#     Edge 44, Type (0, 0), BuildingBlock: KIFKEQ_clean_linker_1, # of connection points: 2
#     Edge 45, Type (0, 0), BuildingBlock: KIFKEQ_clean_linker_1, # of connection points: 2
#     Edge 46, Type (0, 0), BuildingBlock: KIFKEQ_clean_linker_1, # of connection points: 2
#     Edge 47, Type (0, 0), BuildingBlock: KIFKEQ_clean_linker_1, # of connection points: 2
#     Edge 48, Type (0, 0), BuildingBlock: KIFKEQ_clean_linker_1, # of connection points: 2
#     Edge 49, Type (0, 0), BuildingBlock: KIFKEQ_clean_linker_1, # of connection points: 2
#     Edge 50, Type (0, 0), BuildingBlock: KIFKEQ_clean_linker_1, # of connection points: 2
#     Edge 51, Type (0, 0), BuildingBlock: KIFKEQ_clean_linker_1, # of connection points: 2
#     Edge 52, Type (0, 0), BuildingBlock: KIFKEQ_clean_linker_1, # of connection points: 2
#     Edge 53, Type (0, 0), BuildingBlock: KIFKEQ_clean_linker_1, # of connection points: 2
#     Edge 54, Type (0, 0), BuildingBlock: KIFKEQ_clean_linker_1, # of connection points: 2
#     Edge 55, Type (0, 0), BuildingBlock: KIFKEQ_clean_linker_1, # of connection points: 2
#     Edge 56, Type (0, 0), BuildingBlock: KIFKEQ_clean_linker_1, # of connection points: 2
#     Edge 57, Type (0, 0), BuildingBlock: KIFKEQ_clean_linker_1, # of connection points: 2
#     Edge 58, Type (0, 0), BuildingBlock: KIFKEQ_clean_linker_1, # of connection points: 2
#     Edge 59, Type (0, 0), BuildingBlock: KIFKEQ_clean_linker_1, # of connection points: 2
#     Edge 60, Type (0, 0), BuildingBlock: KIFKEQ_clean_linker_1, # of connection points: 2
#     Edge 61, Type (0, 0), BuildingBlock: KIFKEQ_clean_linker_1, # of connection points: 2
#     Edge 62, Type (0, 0), BuildingBlock: KIFKEQ_clean_linker_1, # of connection points: 2
#     Edge 63, Type (0, 0), BuildingBlock: KIFKEQ_clean_linker_1, # of connection points: 2
#     Edge 64, Type (0, 0), BuildingBlock: KIFKEQ_clean_linker_1, # of connection points: 2
#     Edge 65, Type (0, 0), BuildingBlock: KIFKEQ_clean_linker_1, # of connection points: 2
#     Edge 66, Type (0, 0), BuildingBlock: KIFKEQ_clean_linker_1, # of connection points: 2
#     Edge 67, Type (0, 0), BuildingBlock: KIFKEQ_clean_linker_1, # of connection points: 2
#     Edge 68, Type (0, 0), BuildingBlock: KIFKEQ_clean_linker_1, # of connection points: 2
#     Edge 69, Type (0, 0), BuildingBlock: KIFKEQ_clean_linker_1, # of connection points: 2
#     Edge 70, Type (0, 0), BuildingBlock: KIFKEQ_clean_linker_1, # of connection points: 2
#     Edge 71, Type (0, 0), BuildingBlock: KIFKEQ_clean_linker_1, # of connection points: 2
#     Edge 72, Type (0, 0), BuildingBlock: KIFKEQ_clean_linker_1, # of connection points: 2
#     Edge 73, Type (0, 0), BuildingBlock: KIFKEQ_clean_linker_1, # of connection points: 2
#     Edge 74, Type (0, 0), BuildingBlock: KIFKEQ_clean_linker_1, # of connection points: 2
#     Edge 75, Type (0, 0), BuildingBlock: KIFKEQ_clean_linker_1, # of connection points: 2
#     Edge 76, Type (0, 0), BuildingBlock: KIFKEQ_clean_linker_1, # of connection points: 2
#     Edge 77, Type (0, 0), BuildingBlock: KIFKEQ_clean_linker_1, # of connection points: 2
#     Edge 78, Type (0, 0), BuildingBlock: KIFKEQ_clean_linker_1, # of connection points: 2
#     Edge 79, Type (0, 0), BuildingBlock: KIFKEQ_clean_linker_1, # of connection points: 2
#     Edge 80, Type (0, 0), BuildingBlock: KIFKEQ_clean_linker_1, # of connection points: 2
#     Edge 81, Type (0, 0), BuildingBlock: KIFKEQ_clean_linker_1, # of connection points: 2
#     Edge 82, Type (0, 0), BuildingBlock: KIFKEQ_clean_linker_1, # of connection points: 2
#     Edge 83, Type (0, 0), BuildingBlock: KIFKEQ_clean_linker_1, # of connection points: 2
#     Edge 84, Type (0, 0), BuildingBlock: KIFKEQ_clean_linker_1, # of connection points: 2
#     Edge 85, Type (0, 0), BuildingBlock: KIFKEQ_clean_linker_1, # of connection points: 2
#     Edge 86, Type (0, 0), BuildingBlock: KIFKEQ_clean_linker_1, # of connection points: 2
#     Edge 87, Type (0, 0), BuildingBlock: KIFKEQ_clean_linker_1, # of connection points: 2
#     Edge 88, Type (0, 0), BuildingBlock: KIFKEQ_clean_linker_1, # of connection points: 2
#     Edge 89, Type (0, 0), BuildingBlock: KIFKEQ_clean_linker_1, # of connection points: 2
#     Edge 90, Type (0, 0), BuildingBlock: KIFKEQ_clean_linker_1, # of connection points: 2
#     Edge 91, Type (0, 0), BuildingBlock: KIFKEQ_clean_linker_1, # of connection points: 2
#     Edge 92, Type (0, 0), BuildingBlock: KIFKEQ_clean_linker_1, # of connection points: 2
#     Edge 93, Type (0, 0), BuildingBlock: KIFKEQ_clean_linker_1, # of connection points: 2
#     Edge 94, Type (0, 0), BuildingBlock: KIFKEQ_clean_linker_1, # of connection points: 2
#     Edge 95, Type (0, 0), BuildingBlock: KIFKEQ_clean_linker_1, # of connection points: 2
#     Edge 96, Type (0, 0), BuildingBlock: KIFKEQ_clean_linker_1, # of connection points: 2
#     Edge 97, Type (0, 0), BuildingBlock: KIFKEQ_clean_linker_1, # of connection points: 2
#     Edge 98, Type (0, 0), BuildingBlock: KIFKEQ_clean_linker_1, # of connection points: 2
#     Edge 99, Type (0, 0), BuildingBlock: KIFKEQ_clean_linker_1, # of connection points: 2
#     Edge 100, Type (0, 0), BuildingBlock: KIFKEQ_clean_linker_1, # of connection points: 2
#     Edge 101, Type (0, 0), BuildingBlock: KIFKEQ_clean_linker_1, # of connection points: 2
#     Edge 102, Type (0, 0), BuildingBlock: KIFKEQ_clean_linker_1, # of connection points: 2
#     Edge 103, Type (0, 0), BuildingBlock: KIFKEQ_clean_linker_1, # of connection points: 2
#     Edge 104, Type (0, 0), BuildingBlock: KIFKEQ_clean_linker_1, # of connection points: 2
#     Edge 105, Type (0, 0), BuildingBlock: KIFKEQ_clean_linker_1, # of connection points: 2
#     Edge 106, Type (0, 0), BuildingBlock: KIFKEQ_clean_linker_1, # of connection points: 2
#     Edge 107, Type (0, 0), BuildingBlock: KIFKEQ_clean_linker_1, # of connection points: 2
#     Edge 108, Type (0, 0), BuildingBlock: KIFKEQ_clean_linker_1, # of connection points: 2
#     Edge 109, Type (0, 0), BuildingBlock: KIFKEQ_clean_linker_1, # of connection points: 2
#     Edge 110, Type (0, 0), BuildingBlock: KIFKEQ_clean_linker_1, # of connection points: 2
#     Edge 111, Type (0, 0), BuildingBlock: KIFKEQ_clean_linker_1, # of connection points: 2
# Relax obj value: 0.124
# Max RMSD: 0.132
# Mean RMSD: 0.132
data_MOF--net-wga--node1-XOMCOT_clean_sbu_0--edge1-KIFKEQ_clean_linker_1
_symmetry_space_group_name_H-M    P1
_symmetry_Int_Tables_number       1
_symmetry_cell_setting            triclinic
loop_
_symmetry_equiv_pos_as_xyz
'x, y, z'
_cell_length_a     110.30276
_cell_length_b     110.28336
_cell_length_c     17.944629
_cell_angle_alpha  90.053275
_cell_angle_beta   90.115076
_cell_angle_gamma 90.025955
loop_
_atom_site_label
_atom_site_type_symbol
_atom_site_fract_x
_atom_site_fract_y
_atom_site_fract_z
_atom_type_partial_charge
Co0 Co 0.08594 0.56564 0.13303 0.0
C1 C 0.08624 0.56439 0.30169 0.0
C2 C 0.09959 0.55319 0.24914 0.0
C3 C 0.10073 0.55192 0.32499 0.0
N4 N 0.0904 0.56088 0.23408 0.0
N5 N 0.09233 0.55895 0.35811 0.0
H6 H 0.07895 0.57069 0.31043 0.0
H7 H 0.10513 0.54881 0.2074 0.0
C8 C 0.08055 0.53941 0.14293 0.0
O9 O 0.0751 0.54206 0.20595 0.0
N10 N 0.08197 0.5704 0.0323 0.0
C11 C 0.07522 0.58009 1.01354 0.0
C12 C 0.07429 0.58059 0.93728 0.0
C13 C 0.08518 0.56514 0.96724 0.0
N14 N 0.08052 0.57119 0.90803 0.0
C15 C 0.06387 0.57471 0.19964 0.0
C16 C 0.04835 0.55904 0.12617 0.0
C17 C 0.04345 0.56746 0.17613 0.0
C18 C 0.05137 0.57553 0.21218 0.0
C19 C 0.06084 0.55863 0.11478 0.0
N20 N 0.06856 0.56587 0.15478 0.0
H21 H 0.06973 0.58143 0.22441 0.0
H22 H 0.06424 0.55269 0.07187 0.0
H23 H 0.07126 0.58639 0.05277 0.0
H24 H 0.09068 0.55705 0.96345 0.0
O25 O 0.08982 0.58235 0.15568 0.0
O26 O 0.10295 0.56874 0.11377 0.0
O27 O 0.0854 0.54785 0.10403 0.0
C28 C 0.10085 0.57981 0.13539 0.0
H29 H 0.10741 0.54642 0.35345 0.0
H30 H 0.06956 0.58749 0.90577 0.0
H31 H 0.04254 0.55309 0.09396 0.0
H32 H 0.04794 0.58247 0.2493 0.0
Co33 Co 0.67975 0.83494 0.38567 0.0
C34 C 0.68125 0.83499 0.55275 0.0
C35 C 0.69299 0.84807 0.50234 0.0
C36 C 0.69404 0.84905 0.57839 0.0
N37 N 0.68505 0.8392 0.48586 0.0
N38 N 0.68668 0.8408 0.61063 0.0
H39 H 0.67453 0.82801 0.55913 0.0
H40 H 0.69749 0.85376 0.46205 0.0
C41 C 0.70361 0.84297 0.32755 0.0
O42 O 0.69873 0.85366 0.31565 0.0
N43 N 0.67447 0.83081 0.28577 0.0
C44 C 0.66456 0.8242 0.2688 0.0
C45 C 0.66341 0.82359 0.19252 0.0
C46 C 0.67923 0.83414 0.21952 0.0
N47 N 0.67263 0.82984 0.16154 0.0
C48 C 0.67058 0.81273 0.44821 0.0
C49 C 0.68852 0.79773 0.3934 0.0
C50 C 0.67904 0.79258 0.43444 0.0
C51 C 0.66997 0.80027 0.46197 0.0
C52 C 0.68877 0.8102 0.38081 0.0
N53 N 0.68003 0.81765 0.4095 0.0
H54 H 0.66328 0.8184 0.46792 0.0
H55 H 0.6958 0.81362 0.34512 0.0
H56 H 0.65851 0.82019 0.3092 0.0
H57 H 0.68714 0.83983 0.21352 0.0
O58 O 0.66314 0.83873 0.41204 0.0
O59 O 0.67629 0.85187 0.36635 0.0
O60 O 0.69721 0.83438 0.35418 0.0
C61 C 0.6654 0.84974 0.39042 0.0
H62 H 0.69961 0.85564 0.6071 0.0
H63 H 0.65637 0.81885 0.16219 0.0
H64 H 0.69548 0.79211 0.36855 0.0
H65 H 0.66241 0.79669 0.49347 0.0
Co66 Co 0.41141 0.42887 0.61173 0.0
C67 C 0.41101 0.43002 0.77739 0.0
C68 C 0.40061 0.44429 0.72691 0.0
C69 C 0.4 0.44555 0.80311 0.0
N70 N 0.40758 0.43463 0.71086 0.0
N71 N 0.40655 0.4366 0.83493 0.0
H72 H 0.41679 0.42215 0.78334 0.0
H73 H 0.39621 0.44999 0.68601 0.0
C74 C 0.42048 0.45178 0.54104 0.0
O75 O 0.42994 0.44572 0.51668 0.0
N76 N 0.41473 0.42297 0.51051 0.0
C77 C 0.41745 0.41144 0.49103 0.0
C78 C 0.4179 0.41051 0.41486 0.0
C79 C 0.41282 0.42867 0.4445 0.0
N80 N 0.41504 0.42136 0.38537 0.0
C81 C 0.43544 0.41878 0.62832 0.0
C82 C 0.44611 0.43924 0.68816 0.0
C83 C 0.45348 0.42918 0.67217 0.0
C84 C 0.44786 0.41878 0.64298 0.0
C85 C 0.43373 0.43891 0.67125 0.0
N86 N 0.42863 0.42897 0.63803 0.0
H87 H 0.43135 0.41048 0.6099 0.0
H88 H 0.42825 0.44675 0.68423 0.0
H89 H 0.41835 0.40389 0.52883 0.0
H90 H 0.40957 0.43787 0.43942 0.0
O91 O 0.40741 0.41256 0.64197 0.0
O92 O 0.39435 0.42584 0.59483 0.0
O93 O 0.41214 0.4463 0.57721 0.0
C94 C 0.39638 0.41502 0.62102 0.0
H95 H 0.39493 0.45243 0.83275 0.0
H96 H 0.41961 0.4023 0.38355 0.0
H97 H 0.44983 0.44733 0.7137 0.0
H98 H 0.45299 0.41068 0.63025 0.0
Co99 Co 0.81507 0.15974 0.87352 0.0
C100 C 0.81386 0.15914 0.03894 0.0
C101 C 0.79966 0.14867 0.98804 0.0
C102 C 0.79846 0.14794 0.0643 0.0
N103 N 0.80926 0.15573 0.97223 0.0
N104 N 0.80738 0.15453 0.09648 0.0
H105 H 0.82169 0.16498 0.04501 0.0
H106 H 0.79397 0.14427 0.94694 0.0
C107 C 0.79249 0.16878 0.79794 0.0
O108 O 0.79867 0.17816 0.77364 0.0
N109 N 0.82098 0.16343 0.7731 0.0
C110 C 0.83199 0.16783 0.75454 0.0
C111 C 0.833 0.16821 0.67829 0.0
C112 C 0.81571 0.16062 0.70684 0.0
N113 N 0.82274 0.16375 0.64797 0.0
C114 C 0.82603 0.18287 0.90562 0.0
C115 C 0.80493 0.19518 0.93874 0.0
C116 C 0.8158 0.2018 0.9335 0.0
C117 C 0.82652 0.19529 0.92021 0.0
C118 C 0.80494 0.18267 0.92551 0.0
N119 N 0.81523 0.17687 0.9023 0.0
H120 H 0.83442 0.17807 0.89813 0.0
H121 H 0.79657 0.17772 0.93223 0.0
H122 H 0.83919 0.17 0.79288 0.0
H123 H 0.80698 0.15625 0.70172 0.0
O124 O 0.83131 0.15541 0.90385 0.0
O125 O 0.81801 0.14271 0.85403 0.0
O126 O 0.79766 0.16063 0.83748 0.0
C127 C 0.82883 0.14449 0.88113 0.0
H128 H 0.79166 0.14275 0.09367 0.0
H129 H 0.84093 0.1711 0.64766 0.0
H130 H 0.79641 0.19959 0.95106 0.0
H131 H 0.83528 0.19972 0.92106 0.0
Co132 Co 0.08548 0.42844 0.92181 0.0
C133 C 0.08625 0.42958 0.75639 0.0
C134 C 0.09687 0.44366 0.80736 0.0
C135 C 0.0977 0.44479 0.73108 0.0
N136 N 0.08965 0.43418 0.82314 0.0
N137 N 0.09102 0.43595 0.69885 0.0
H138 H 0.08031 0.42183 0.75033 0.0
H139 H 0.10131 0.44931 0.84848 0.0
C140 C 0.07715 0.45079 1.00134 0.0
O141 O 0.06808 0.44443 0.02827 0.0
N142 N 0.0817 0.42252 0.02225 0.0
C143 C 0.07669 0.41177 0.04063 0.0
C144 C 0.07645 0.41064 0.11684 0.0
C145 C 0.08509 0.42743 0.08856 0.0
N146 N 0.08164 0.42053 0.14736 0.0
C147 C 0.06198 0.41816 0.88871 0.0
C148 C 0.05066 0.43976 0.85401 0.0
C149 C 0.04364 0.42918 0.85814 0.0
C150 C 0.04955 0.4182 0.87318 0.0
C151 C 0.06306 0.43928 0.86974 0.0
N152 N 0.06839 0.42873 0.89273 0.0
H153 H 0.06642 0.40958 0.89651 0.0
H154 H 0.06834 0.44746 0.86381 0.0
H155 H 0.07398 0.40477 1.00222 0.0
H156 H 0.09001 0.43587 0.09368 0.0
O157 O 0.08956 0.4121 0.89185 0.0
O158 O 0.10239 0.42529 0.94194 0.0
O159 O 0.08485 0.44584 0.95774 0.0
C160 C 0.10049 0.41447 0.91529 0.0
H161 H 0.10304 0.45149 0.70179 0.0
H162 H 0.07313 0.40285 0.14723 0.0
H163 H 0.04662 0.44835 0.83867 0.0
H164 H 0.04461 0.40971 0.87452 0.0
Co165 Co 0.81598 0.8358 0.1562 0.0
C166 C 0.81485 0.83654 0.99067 0.0
C167 C 0.80169 0.84827 0.04131 0.0
C168 C 0.80064 0.8492 0.96503 0.0
N169 N 0.81054 0.8403 0.05731 0.0
N170 N 0.80891 0.84182 0.93297 0.0
H171 H 0.82211 0.83003 0.98479 0.0
H172 H 0.79645 0.85318 0.08231 0.0
C173 C 0.79291 0.82913 0.2356 0.0
O174 O 0.79842 0.81974 0.26546 0.0
N175 N 0.82156 0.83161 0.25663 0.0
C176 C 0.83162 0.82532 0.27512 0.0
C177 C 0.83272 0.82498 0.35135 0.0
C178 C 0.81705 0.83551 0.32278 0.0
N179 N 0.82351 0.83129 0.38172 0.0
C180 C 0.82528 0.81212 0.11859 0.0
C181 C 0.80307 0.80117 0.09508 0.0
C182 C 0.81354 0.79399 0.09505 0.0
C183 C 0.8248 0.79968 0.10383 0.0
C184 C 0.80402 0.81361 0.10852 0.0
N185 N 0.81491 0.81875 0.12683 0.0
H186 H 0.83403 0.81641 0.12309 0.0
H187 H 0.79592 0.81905 0.10456 0.0
H188 H 0.83813 0.82165 0.23673 0.0
H189 H 0.80916 0.84127 0.32762 0.0
O190 O 0.83253 0.83922 0.12739 0.0
O191 O 0.81979 0.85252 0.17688 0.0
O192 O 0.79859 0.83614 0.19102 0.0
C193 C 0.83053 0.85024 0.1505 0.0
H194 H 0.79442 0.85509 0.93564 0.0
H195 H 0.84003 0.8207 0.38186 0.0
H196 H 0.79425 0.79719 0.08472 0.0
H197 H 0.83314 0.79452 0.10138 0.0
Co198 Co 0.4104 0.56586 0.42425 0.0
C199 C 0.40982 0.56473 0.25863 0.0
C200 C 0.39906 0.55075 0.30917 0.0
C201 C 0.39833 0.54953 0.23295 0.0
N202 N 0.40631 0.56022 0.3252 0.0
N203 N 0.40511 0.5583 0.20102 0.0
H204 H 0.41581 0.57244 0.25273 0.0
H205 H 0.39456 0.54516 0.35015 0.0
C206 C 0.41952 0.54314 0.49753 0.0
O207 O 0.42868 0.5494 0.52432 0.0
N208 N 0.41413 0.57159 0.52519 0.0
C209 C 0.41831 0.58267 0.54449 0.0
C210 C 0.41874 0.5836 0.62073 0.0
C211 C 0.41143 0.56621 0.59113 0.0
N212 N 0.41449 0.57323 0.65035 0.0
C213 C 0.43359 0.57687 0.39454 0.0
C214 C 0.44557 0.55589 0.3544 0.0
C215 C 0.45226 0.56666 0.36165 0.0
C216 C 0.44598 0.57732 0.37928 0.0
C217 C 0.43314 0.55588 0.36975 0.0
N218 N 0.4275 0.5661 0.39549 0.0
H219 H 0.4289 0.58525 0.40424 0.0
H220 H 0.42811 0.54758 0.36187 0.0
H221 H 0.42023 0.59001 0.50676 0.0
H222 H 0.40718 0.55741 0.5958 0.0
O223 O 0.40605 0.58217 0.39617 0.0
O224 O 0.39337 0.56862 0.44381 0.0
O225 O 0.41142 0.54838 0.45793 0.0
C226 C 0.39516 0.57954 0.41857 0.0
H227 H 0.39303 0.5428 0.20342 0.0
H228 H 0.42147 0.59156 0.6519 0.0
H229 H 0.44991 0.54746 0.33881 0.0
H230 H 0.45058 0.586 0.38094 0.0
Co231 Co 0.67862 0.15798 0.67031 0.0
C232 C 0.67984 0.15761 0.50481 0.0
C233 C 0.69431 0.14749 0.55532 0.0
C234 C 0.69558 0.14691 0.47908 0.0
N235 N 0.68451 0.15426 0.57136 0.0
N236 N 0.68649 0.15328 0.4472 0.0
H237 H 0.67186 0.16323 0.49891 0.0
H238 H 0.70011 0.14321 0.59624 0.0
C239 C 0.70112 0.16759 0.7437 0.0
O240 O 0.6948 0.17694 0.76708 0.0
N241 N 0.67262 0.16131 0.77114 0.0
C242 C 0.66122 0.16453 0.79007 0.0
C243 C 0.66025 0.16496 0.86628 0.0
C244 C 0.6782 0.15917 0.83733 0.0
N245 N 0.67095 0.16165 0.89626 0.0
C246 C 0.66753 0.18132 0.64643 0.0
C247 C 0.68826 0.19334 0.60201 0.0
C248 C 0.6776 0.20006 0.61316 0.0
C249 C 0.66704 0.19376 0.63276 0.0
C250 C 0.68828 0.18084 0.6155 0.0
N251 N 0.67824 0.17516 0.64336 0.0
H252 H 0.65922 0.17665 0.65839 0.0
H253 H 0.69652 0.1758 0.60553 0.0
H254 H 0.65375 0.16577 0.75199 0.0
H255 H 0.6873 0.15563 0.84254 0.0
O256 O 0.66243 0.15357 0.63972 0.0
O257 O 0.67594 0.14083 0.6875 0.0
O258 O 0.69603 0.15913 0.70621 0.0
C259 C 0.66507 0.14262 0.66107 0.0
H260 H 0.70254 0.14197 0.44947 0.0
H261 H 0.65209 0.16701 0.8972 0.0
H262 H 0.69661 0.19768 0.58508 0.0
H263 H 0.65841 0.19838 0.63744 0.0
Co264 Co 0.90991 0.43203 0.90673 0.0
C265 C 0.90932 0.43329 0.738 0.0
C266 C 0.89419 0.44192 0.79072 0.0
C267 C 0.89278 0.4429 0.71483 0.0
N268 N 0.90456 0.4359 0.80571 0.0
N269 N 0.90231 0.43751 0.68177 0.0
H270 H 0.91758 0.42834 0.72887 0.0
H271 H 0.88806 0.44543 0.83246 0.0
C272 C 0.91347 0.4585 0.88876 0.0
O273 O 0.91804 0.45585 0.8232 0.0
N274 N 0.91477 0.42805 1.00729 0.0
C275 C 0.92189 0.41863 0.02614 0.0
C276 C 0.9229 0.41824 0.10234 0.0
C277 C 0.91147 0.43327 0.0723 0.0
N278 N 0.91638 0.42745 0.13174 0.0
C279 C 0.93187 0.42322 0.83806 0.0
C280 C 0.94717 0.44014 0.90204 0.0
C281 C 0.95214 0.43127 0.85545 0.0
C282 C 0.94434 0.42262 0.82394 0.0
C283 C 0.93472 0.44035 0.91512 0.0
N284 N 0.92709 0.43236 0.88025 0.0
H285 H 0.92607 0.41618 0.81606 0.0
H286 H 0.93134 0.44667 0.95598 0.0
H287 H 0.92588 0.41233 0.98708 0.0
H288 H 0.90558 0.44108 0.07573 0.0
O289 O 0.90652 0.41504 0.88887 0.0
O290 O 0.89321 0.42841 0.93158 0.0
O291 O 0.90991 0.44997 0.93191 0.0
C292 C 0.89556 0.41731 0.91157 0.0
H293 H 0.8854 0.44741 0.68622 0.0
H294 H 0.92779 0.41142 0.13347 0.0
H295 H 0.95291 0.44662 0.93073 0.0
H296 H 0.94783 0.41539 0.78915 0.0
Co297 Co 0.3158 0.16091 0.66525 0.0
C298 C 0.31465 0.16028 0.49969 0.0
C299 C 0.30039 0.14987 0.55004 0.0
C300 C 0.29917 0.14919 0.47377 0.0
N301 N 0.31003 0.15689 0.56621 0.0
N302 N 0.30812 0.15574 0.44201 0.0
H303 H 0.3225 0.1661 0.49385 0.0
H304 H 0.29468 0.1455 0.59089 0.0
C305 C 0.29298 0.16983 0.73716 0.0
O306 O 0.29904 0.17934 0.76112 0.0
N307 N 0.32172 0.16444 0.76628 0.0
C308 C 0.33318 0.16747 0.78559 0.0
C309 C 0.33416 0.16786 0.86182 0.0
C310 C 0.31613 0.1623 0.83236 0.0
N311 N 0.32342 0.16467 0.89148 0.0
C312 C 0.32559 0.18507 0.6471 0.0
C313 C 0.30481 0.1954 0.58939 0.0
C314 C 0.31476 0.20295 0.605 0.0
C315 C 0.32534 0.19751 0.63283 0.0
C316 C 0.3054 0.18302 0.60573 0.0
N317 N 0.31549 0.17809 0.63818 0.0
H318 H 0.33399 0.18111 0.66476 0.0
H319 H 0.29762 0.1774 0.59323 0.0
H320 H 0.34067 0.16856 0.74763 0.0
H321 H 0.30703 0.15877 0.83743 0.0
O322 O 0.33209 0.15694 0.63453 0.0
O323 O 0.31898 0.14394 0.68337 0.0
O324 O 0.2984 0.16153 0.7003 0.0
C325 C 0.32976 0.14593 0.65646 0.0
H326 H 0.29232 0.14407 0.44406 0.0
H327 H 0.34235 0.16976 0.89299 0.0
H328 H 0.29659 0.19899 0.56476 0.0
H329 H 0.33338 0.20279 0.64498 0.0
Co330 Co 0.58603 0.56312 0.40222 0.0
C331 C 0.58648 0.5617 0.23357 0.0
C332 C 0.60145 0.55279 0.28644 0.0
C333 C 0.60283 0.55177 0.21056 0.0
N334 N 0.5912 0.55899 0.30132 0.0
N335 N 0.5934 0.55735 0.1774 0.0
H336 H 0.57834 0.56686 0.22437 0.0
H337 H 0.60754 0.5492 0.32825 0.0
C338 C 0.58248 0.53661 0.38659 0.0
O339 O 0.57775 0.53905 0.32105 0.0
N340 N 0.58133 0.56733 0.50265 0.0
C341 C 0.57438 0.57688 0.52121 0.0
C342 C 0.57338 0.57734 0.5974 0.0
C343 C 0.58453 0.5621 0.56781 0.0
N344 N 0.57974 0.56805 0.62707 0.0
C345 C 0.56403 0.57188 0.33379 0.0
C346 C 0.54871 0.55521 0.3994 0.0
C347 C 0.54372 0.56409 0.35281 0.0
C348 C 0.55155 0.57258 0.32026 0.0
C349 C 0.56119 0.5549 0.41173 0.0
N350 N 0.56881 0.56279 0.37627 0.0
H351 H 0.56984 0.57886 0.31131 0.0
H352 H 0.56459 0.5486 0.45265 0.0
H353 H 0.57046 0.58321 0.48195 0.0
H354 H 0.59027 0.55417 0.57147 0.0
O355 O 0.58945 0.58003 0.38295 0.0
O356 O 0.60276 0.56669 0.42623 0.0
O357 O 0.58604 0.54527 0.42884 0.0
C358 C 0.60044 0.57774 0.40539 0.0
H359 H 0.61013 0.54715 0.18203 0.0
H360 H 0.56859 0.58426 0.62831 0.0
H361 H 0.54296 0.54886 0.42883 0.0
H362 H 0.54807 0.57979 0.28532 0.0
Co363 Co 0.17823 0.8361 0.15647 0.0
C364 C 0.1799 0.83586 0.99094 0.0
C365 C 0.19368 0.84686 0.04196 0.0
C366 C 0.19488 0.84761 0.96585 0.0
N367 N 0.18433 0.83947 0.05765 0.0
N368 N 0.18623 0.84069 0.93334 0.0
H369 H 0.17218 0.82988 0.98516 0.0
H370 H 0.19907 0.8516 0.08309 0.0
C371 C 0.20037 0.82762 0.23812 0.0
O372 O 0.19386 0.81872 0.26585 0.0
N373 N 0.17197 0.8332 0.25721 0.0
C374 C 0.16064 0.82967 0.27578 0.0
C375 C 0.15937 0.83003 0.35194 0.0
C376 C 0.17718 0.83627 0.32319 0.0
N377 N 0.1698 0.83409 0.38184 0.0
C378 C 0.16757 0.81244 0.13362 0.0
C379 C 0.18884 0.80065 0.09737 0.0
C380 C 0.17822 0.7938 0.1056 0.0
C381 C 0.1674 0.79992 0.12153 0.0
C382 C 0.18856 0.81317 0.10933 0.0
N383 N 0.17819 0.81879 0.13263 0.0
H384 H 0.1591 0.817 0.14294 0.0
H385 H 0.19677 0.81832 0.10072 0.0
H386 H 0.15342 0.82762 0.23725 0.0
H387 H 0.18601 0.84043 0.3284 0.0
O388 O 0.16205 0.84023 0.12387 0.0
O389 O 0.17541 0.85324 0.17086 0.0
O390 O 0.19554 0.83533 0.19395 0.0
C391 C 0.16462 0.85128 0.14393 0.0
H392 H 0.20144 0.85318 0.93709 0.0
H393 H 0.15131 0.82759 0.38285 0.0
H394 H 0.19731 0.79637 0.08177 0.0
H395 H 0.1589 0.79507 0.12627 0.0
Co396 Co 0.90976 0.56875 0.12235 0.0
C397 C 0.90963 0.56724 0.28776 0.0
C398 C 0.89881 0.55331 0.2367 0.0
C399 C 0.89786 0.55224 0.31291 0.0
N400 N 0.90618 0.56269 0.22103 0.0
N401 N 0.90465 0.561 0.34506 0.0
H402 H 0.91538 0.57513 0.29408 0.0
H403 H 0.89427 0.54776 0.1955 0.0
C404 C 0.9189 0.54646 0.04468 0.0
O405 O 0.92808 0.5529 0.01995 0.0
N406 N 0.91292 0.57497 0.02174 0.0
C407 C 0.91609 0.58642 1.00372 0.0
C408 C 0.91621 0.58763 0.92763 0.0
C409 C 0.91052 0.56961 0.95518 0.0
N410 N 0.91282 0.57702 0.89653 0.0
C411 C 0.93308 0.57986 0.14693 0.0
C412 C 0.94526 0.55898 0.18708 0.0
C413 C 0.95192 0.56974 0.17804 0.0
C414 C 0.94554 0.58036 0.16037 0.0
C415 C 0.93276 0.55894 0.17375 0.0
N416 N 0.92698 0.5691 0.14836 0.0
H417 H 0.92836 0.5882 0.13647 0.0
H418 H 0.92777 0.55063 0.18233 0.0
H419 H 0.91749 0.59376 0.04247 0.0
H420 H 0.90687 0.56057 0.94983 0.0
O421 O 0.90532 0.58488 0.15397 0.0
O422 O 0.89262 0.57135 0.10581 0.0
O423 O 0.91081 0.55142 0.0855 0.0
C424 C 0.89437 0.58218 0.1327 0.0
H425 H 0.89258 0.54551 0.34235 0.0
H426 H 0.91815 0.59594 0.89804 0.0
H427 H 0.94967 0.55058 0.2024 0.0
H428 H 0.95011 0.58903 0.15716 0.0
Co429 Co 0.17937 0.15952 0.86851 0.0
C430 C 0.18054 0.15881 0.03398 0.0
C431 C 0.19463 0.14821 0.98333 0.0
C432 C 0.19579 0.14742 0.05962 0.0
N433 N 0.18512 0.1554 0.96734 0.0
N434 N 0.18694 0.15409 0.09164 0.0
H435 H 0.17278 0.16473 0.03989 0.0
H436 H 0.20027 0.14378 0.94233 0.0
C437 C 0.2019 0.16822 0.79239 0.0
O438 O 0.19557 0.17739 0.76627 0.0
N439 N 0.17347 0.16326 0.76789 0.0
C440 C 0.1625 0.16775 0.7491 0.0
C441 C 0.16143 0.16805 0.67284 0.0
C442 C 0.17861 0.16025 0.70172 0.0
N443 N 0.1716 0.16341 0.64272 0.0
C444 C 0.1691 0.18309 0.89829 0.0
C445 C 0.19065 0.19446 0.93422 0.0
C446 C 0.18013 0.20148 0.92659 0.0
C447 C 0.16916 0.19557 0.91159 0.0
C448 C 0.19011 0.18197 0.92156 0.0
N449 N 0.17964 0.17662 0.89715 0.0
H450 H 0.16053 0.17867 0.88933 0.0
H451 H 0.19823 0.17666 0.92968 0.0
H452 H 0.15532 0.17 0.78727 0.0
H453 H 0.18727 0.15572 0.69678 0.0
O454 O 0.16307 0.15554 0.89856 0.0
O455 O 0.17614 0.14258 0.84895 0.0
O456 O 0.19676 0.16019 0.83293 0.0
C457 C 0.16535 0.14458 0.87566 0.0
H458 H 0.20252 0.14213 0.0891 0.0
H459 H 0.15351 0.17099 0.64209 0.0
H460 H 0.19922 0.1986 0.94924 0.0
H461 H 0.16074 0.20058 0.90783 0.0
Co462 Co 0.58725 0.42704 0.63187 0.0
C463 C 0.58736 0.42869 0.7973 0.0
C464 C 0.59862 0.44222 0.74647 0.0
C465 C 0.59948 0.44337 0.82268 0.0
N466 N 0.591 0.43306 0.73063 0.0
N467 N 0.59238 0.43487 0.85509 0.0
H468 H 0.58119 0.42112 0.80288 0.0
H469 H 0.60342 0.44754 0.70539 0.0
C470 C 0.57875 0.44913 0.55121 0.0
O471 O 0.56958 0.4426 0.52681 0.0
N472 N 0.58395 0.42085 0.53125 0.0
C473 C 0.58001 0.40965 0.51255 0.0
C474 C 0.58025 0.40837 0.43631 0.0
C475 C 0.58711 0.42596 0.46528 0.0
N476 N 0.58464 0.41866 0.40647 0.0
C477 C 0.56335 0.41702 0.657 0.0
C478 C 0.55234 0.43871 0.69396 0.0
C479 C 0.54517 0.42832 0.68622 0.0
C480 C 0.55086 0.41727 0.67035 0.0
C481 C 0.56482 0.43798 0.68178 0.0
N482 N 0.57003 0.42744 0.65749 0.0
H483 H 0.56761 0.40841 0.64708 0.0
H484 H 0.57026 0.44602 0.69022 0.0
H485 H 0.57775 0.4025 0.55103 0.0
H486 H 0.59156 0.43466 0.46025 0.0
O487 O 0.5911 0.41077 0.66405 0.0
O488 O 0.60427 0.42383 0.61604 0.0
O489 O 0.58673 0.44433 0.59379 0.0
C490 C 0.60215 0.41309 0.64319 0.0
H491 H 0.6052 0.44982 0.85154 0.0
H492 H 0.57752 0.40039 0.40531 0.0
H493 H 0.54833 0.44733 0.70918 0.0
H494 H 0.54567 0.40895 0.66645 0.0
Co495 Co 0.31507 0.83598 0.37549 0.0
C496 C 0.31369 0.83593 0.54403 0.0
C497 C 0.30207 0.84897 0.49184 0.0
C498 C 0.30076 0.84999 0.56768 0.0
N499 N 0.31004 0.84003 0.47655 0.0
N500 N 0.30806 0.84178 0.60058 0.0
H501 H 0.3203 0.8289 0.55255 0.0
H502 H 0.29756 0.85446 0.45026 0.0
C503 C 0.2889 0.8303 0.3823 0.0
O504 O 0.29152 0.82457 0.44448 0.0
N505 N 0.32012 0.83243 0.2748 0.0
C506 C 0.33008 0.82604 0.25639 0.0
C507 C 0.33066 0.82513 0.18017 0.0
C508 C 0.3148 0.83543 0.20956 0.0
N509 N 0.32105 0.831 0.15061 0.0
C510 C 0.32396 0.81357 0.44016 0.0
C511 C 0.30884 0.79847 0.35951 0.0
C512 C 0.31709 0.79323 0.40942 0.0
C513 C 0.3248 0.80098 0.44975 0.0
C514 C 0.30837 0.81101 0.35142 0.0
N515 N 0.31535 0.81851 0.39454 0.0
H516 H 0.33057 0.8193 0.46717 0.0
H517 H 0.30254 0.81465 0.30854 0.0
H518 H 0.33646 0.82226 0.29587 0.0
H519 H 0.30647 0.84057 0.20545 0.0
O520 O 0.3317 0.83992 0.40034 0.0
O521 O 0.31806 0.85307 0.35884 0.0
O522 O 0.29735 0.83542 0.34484 0.0
C523 C 0.3291 0.85099 0.38115 0.0
H524 H 0.29509 0.85649 0.59631 0.0
H525 H 0.33774 0.82064 0.14893 0.0
H526 H 0.30281 0.79293 0.32608 0.0
H527 H 0.33172 0.79735 0.48635 0.0
Co528 Co 0.58596 0.06294 0.63701 0.0
C529 C 0.58648 0.0618 0.8057 0.0
C530 C 0.60051 0.05147 0.75308 0.0
C531 C 0.60175 0.05029 0.82894 0.0
N532 N 0.59086 0.05857 0.73805 0.0
N533 N 0.59292 0.05677 0.8621 0.0
H534 H 0.57875 0.06755 0.8145 0.0
H535 H 0.60627 0.04739 0.71132 0.0
C536 C 0.58148 0.03653 0.65067 0.0
O537 O 0.57669 0.03909 0.71579 0.0
N538 N 0.58156 0.06736 0.53635 0.0
C539 C 0.57438 0.07674 0.51743 0.0
C540 C 0.5734 0.07714 0.44115 0.0
C541 C 0.58498 0.06222 0.47136 0.0
N542 N 0.58005 0.06801 0.41205 0.0
C543 C 0.56402 0.07204 0.70468 0.0
C544 C 0.54845 0.05584 0.63627 0.0
C545 C 0.54358 0.06461 0.68413 0.0
C546 C 0.55154 0.07289 0.71793 0.0
C547 C 0.56093 0.05538 0.62434 0.0
N548 N 0.56867 0.06298 0.66138 0.0
H549 H 0.56991 0.07891 0.72783 0.0
H550 H 0.56425 0.04916 0.58268 0.0
H551 H 0.57021 0.08292 0.55652 0.0
H552 H 0.59087 0.0544 0.46769 0.0
O553 O 0.58973 0.07975 0.65742 0.0
O554 O 0.60284 0.06617 0.61499 0.0
O555 O 0.58552 0.0451 0.60945 0.0
C556 C 0.60071 0.07726 0.63609 0.0
H557 H 0.60875 0.0452 0.85739 0.0
H558 H 0.5684 0.08382 0.40951 0.0
H559 H 0.54261 0.04968 0.60577 0.0
H560 H 0.54817 0.08003 0.75375 0.0
Co561 Co 0.17974 0.33562 0.87488 0.0
C562 C 0.18067 0.34015 0.04029 0.0
C563 C 0.19726 0.33286 0.9974 0.0
C564 C 0.19833 0.33392 0.07336 0.0
N565 N 0.18626 0.33691 0.97595 0.0
N566 N 0.18791 0.33847 0.10064 0.0
H567 H 0.17141 0.34331 0.04345 0.0
H568 H 0.2039 0.32875 0.96111 0.0
C569 C 0.20412 0.34421 0.83592 0.0
O570 O 0.20064 0.35471 0.86294 0.0
N571 N 0.17331 0.334 0.77464 0.0
C572 C 0.16278 0.32852 0.7572 0.0
C573 C 0.16136 0.32861 0.6811 0.0
C574 C 0.1782 0.33738 0.7087 0.0
N575 N 0.17108 0.33411 0.65023 0.0
C576 C 0.17326 0.31286 0.93962 0.0
C577 C 0.18639 0.29857 0.84207 0.0
C578 C 0.17972 0.2929 0.89887 0.0
C579 C 0.17305 0.30026 0.94789 0.0
C580 C 0.18622 0.31117 0.83523 0.0
N581 N 0.17984 0.31814 0.88425 0.0
H582 H 0.16809 0.31843 0.97762 0.0
H583 H 0.19117 0.31529 0.78999 0.0
H584 H 0.1566 0.32459 0.7972 0.0
H585 H 0.18689 0.34184 0.70357 0.0
O586 O 0.16352 0.33904 0.91038 0.0
O587 O 0.17662 0.35285 0.87151 0.0
O588 O 0.19671 0.33534 0.83462 0.0
C589 C 0.16583 0.35038 0.89628 0.0
H590 H 0.20598 0.3309 0.10637 0.0
H591 H 0.1537 0.32489 0.65103 0.0
H592 H 0.1918 0.29336 0.80329 0.0
H593 H 0.16757 0.29634 0.99169 0.0
Co594 Co 0.9107 0.92844 0.12752 0.0
C595 C 0.91037 0.92995 0.29286 0.0
C596 C 0.89923 0.9436 0.24179 0.0
C597 C 0.89824 0.94464 0.31805 0.0
N598 N 0.90683 0.93441 0.22611 0.0
N599 N 0.90523 0.93606 0.35022 0.0
H600 H 0.91633 0.92222 0.29914 0.0
H601 H 0.89458 0.94904 0.20059 0.0
C602 C 0.91947 0.95086 0.04989 0.0
O603 O 0.92878 0.94458 0.02546 0.0
N604 N 0.91418 0.92231 0.02704 0.0
C605 C 0.91788 0.91103 1.00891 0.0
C606 C 0.91803 0.90982 0.93278 0.0
C607 C 0.91152 0.92755 0.96054 0.0
N608 N 0.91413 0.92025 0.90174 0.0
C609 C 0.93398 0.91767 0.15556 0.0
C610 C 0.94602 0.93876 0.19318 0.0
C611 C 0.95272 0.928 0.18568 0.0
C612 C 0.94641 0.91728 0.16955 0.0
C613 C 0.93353 0.93869 0.17934 0.0
N614 N 0.92785 0.9284 0.15492 0.0
H615 H 0.9293 0.90925 0.14624 0.0
H616 H 0.92849 0.94699 0.18677 0.0
H617 H 0.91962 0.90377 0.04757 0.0
H618 H 0.90747 0.93642 0.95541 0.0
O619 O 0.90652 0.91226 0.159 0.0
O620 O 0.89368 0.92544 0.10913 0.0
O621 O 0.91147 0.94578 0.09083 0.0
C622 C 0.89557 0.91466 0.13644 0.0
H623 H 0.8928 0.95125 0.34749 0.0
H624 H 0.92035 0.9016 0.90318 0.0
H625 H 0.9504 0.94724 0.20756 0.0
H626 H 0.95102 0.90862 0.16774 0.0
Co627 Co 0.31663 0.6594 0.38581 0.0
C628 C 0.31531 0.65922 0.55126 0.0
C629 C 0.30076 0.64917 0.50082 0.0
C630 C 0.29959 0.6485 0.57708 0.0
N631 N 0.31056 0.65594 0.4847 0.0
N632 N 0.30874 0.6548 0.60898 0.0
H633 H 0.32337 0.66474 0.55707 0.0
H634 H 0.29497 0.64486 0.45995 0.0
C635 C 0.29453 0.66773 0.30302 0.0
O636 O 0.30105 0.67662 0.27526 0.0
N637 N 0.32287 0.66247 0.28519 0.0
C638 C 0.33391 0.66688 0.26723 0.0
C639 C 0.33516 0.66697 0.19112 0.0
C640 C 0.31789 0.65926 0.21874 0.0
N641 N 0.32504 0.66231 0.16025 0.0
C642 C 0.32732 0.68289 0.41339 0.0
C643 C 0.30593 0.69494 0.44299 0.0
C644 C 0.31667 0.70168 0.43734 0.0
C645 C 0.32754 0.69541 0.42517 0.0
C646 C 0.30616 0.6824 0.43146 0.0
N647 N 0.31662 0.67668 0.41065 0.0
H648 H 0.33581 0.67822 0.40715 0.0
H649 H 0.29786 0.67735 0.43831 0.0
H650 H 0.34097 0.66928 0.306 0.0
H651 H 0.30922 0.65479 0.21321 0.0
O652 O 0.33283 0.65531 0.41796 0.0
O653 O 0.31953 0.64227 0.37069 0.0
O654 O 0.29931 0.66012 0.34806 0.0
C655 C 0.33033 0.64427 0.39744 0.0
H656 H 0.29269 0.64346 0.60663 0.0
H657 H 0.34313 0.66989 0.16104 0.0
H658 H 0.29741 0.69933 0.45597 0.0
H659 H 0.33613 0.70016 0.42279 0.0
Co660 Co 0.58443 0.92707 0.40392 0.0
C661 C 0.58475 0.92839 0.23854 0.0
C662 C 0.59457 0.94308 0.28914 0.0
C663 C 0.59521 0.94429 0.21286 0.0
N664 N 0.58796 0.93316 0.30515 0.0
N665 N 0.58904 0.93506 0.18088 0.0
H666 H 0.57932 0.92028 0.23263 0.0
H667 H 0.59876 0.94894 0.33007 0.0
C668 C 0.57528 0.94921 0.48304 0.0
O669 O 0.56615 0.94269 0.5078 0.0
N670 N 0.58127 0.92084 0.50452 0.0
C671 C 0.57756 0.90956 0.52285 0.0
C672 C 0.57735 0.90842 0.59905 0.0
C673 C 0.58396 0.92612 0.57094 0.0
N674 N 0.58128 0.91887 0.62961 0.0
C675 C 0.56127 0.91581 0.37752 0.0
C676 C 0.54874 0.93671 0.34231 0.0
C677 C 0.54224 0.92587 0.3514 0.0
C678 C 0.54877 0.91524 0.3661 0.0
C679 C 0.56129 0.93684 0.35403 0.0
N680 N 0.56723 0.92665 0.37765 0.0
H681 H 0.56613 0.90748 0.38563 0.0
H682 H 0.56617 0.94523 0.34604 0.0
H683 H 0.57579 0.90227 0.48434 0.0
H684 H 0.58793 0.93504 0.57638 0.0
O685 O 0.58893 0.91099 0.37189 0.0
O686 O 0.60154 0.92448 0.42109 0.0
O687 O 0.58331 0.94435 0.44132 0.0
C688 C 0.59986 0.91366 0.39384 0.0
H689 H 0.60011 0.9513 0.18332 0.0
H690 H 0.57495 0.9003 0.62947 0.0
H691 H 0.54416 0.94511 0.32877 0.0
H692 H 0.54426 0.90653 0.36909 0.0
Co693 Co 0.3163 0.33659 0.65766 0.0
C694 C 0.31511 0.33707 0.49208 0.0
C695 C 0.30186 0.34872 0.54247 0.0
C696 C 0.30074 0.34954 0.46622 0.0
N697 N 0.31081 0.34087 0.55861 0.0
N698 N 0.30906 0.34222 0.43435 0.0
H699 H 0.32245 0.33063 0.48629 0.0
H700 H 0.2966 0.35364 0.58335 0.0
C701 C 0.29308 0.32986 0.73564 0.0
O702 O 0.29847 0.32031 0.76426 0.0
N703 N 0.32193 0.33263 0.75833 0.0
C704 C 0.33234 0.32696 0.77692 0.0
C705 C 0.3334 0.32657 0.85313 0.0
C706 C 0.31713 0.33615 0.82448 0.0
N707 N 0.32378 0.33226 0.88339 0.0
C708 C 0.32564 0.3128 0.62382 0.0
C709 C 0.30355 0.30186 0.59642 0.0
C710 C 0.31401 0.29468 0.59804 0.0
C711 C 0.32522 0.30036 0.60905 0.0
C712 C 0.30444 0.31432 0.60989 0.0
N713 N 0.31526 0.31946 0.62986 0.0
H714 H 0.33438 0.31705 0.62958 0.0
H715 H 0.29637 0.31977 0.60463 0.0
H716 H 0.33914 0.3238 0.73859 0.0
H717 H 0.30894 0.34147 0.82944 0.0
O718 O 0.33287 0.33987 0.6286 0.0
O719 O 0.32016 0.35341 0.67615 0.0
O720 O 0.2989 0.33702 0.69263 0.0
C721 C 0.33089 0.35096 0.65015 0.0
H722 H 0.29444 0.35533 0.43666 0.0
H723 H 0.34094 0.32274 0.88376 0.0
H724 H 0.29477 0.29789 0.58449 0.0
H725 H 0.33357 0.2952 0.608 0.0
Co726 Co 0.90773 0.06453 0.89652 0.0
C727 C 0.90743 0.06325 0.72799 0.0
C728 C 0.89332 0.05296 0.78006 0.0
C729 C 0.89216 0.05174 0.70415 0.0
N730 N 0.90297 0.06004 0.79544 0.0
N731 N 0.90104 0.05821 0.67134 0.0
H732 H 0.91516 0.06901 0.71957 0.0
H733 H 0.88748 0.04892 0.8216 0.0
C734 C 0.912 0.0381 0.88402 0.0
O735 O 0.91696 0.04063 0.81935 0.0
N736 N 0.912 0.06909 0.99721 0.0
C737 C 0.91911 0.07854 1.01609 0.0
C738 C 0.92011 0.07896 0.09237 0.0
C739 C 0.90865 0.06393 0.06221 0.0
N740 N 0.91356 0.06978 0.12149 0.0
C741 C 0.93005 0.07325 0.83063 0.0
C742 C 0.9451 0.05724 0.90465 0.0
C743 C 0.95035 0.06601 0.8584 0.0
C744 C 0.94264 0.07409 0.82091 0.0
C745 C 0.93256 0.05677 0.913 0.0
N746 N 0.92508 0.06433 0.87372 0.0
H747 H 0.92435 0.08011 0.80588 0.0
H748 H 0.92898 0.05062 0.95411 0.0
H749 H 0.92325 0.08473 0.97696 0.0
H750 H 0.90286 0.05604 0.06592 0.0
O751 O 0.90416 0.08133 0.87435 0.0
O752 O 0.89088 0.06802 0.91763 0.0
O753 O 0.90792 0.04671 0.92492 0.0
C754 C 0.89312 0.07904 0.89556 0.0
H755 H 0.88517 0.04667 0.67541 0.0
H756 H 0.9251 0.08568 0.12398 0.0
H757 H 0.95064 0.0509 0.93568 0.0
H758 H 0.94629 0.08132 0.7869 0.0
Co759 Co 0.18 0.6596 0.15861 0.0
C760 C 0.18168 0.65968 0.99024 0.0
C761 C 0.19246 0.64599 0.04283 0.0
C762 C 0.19368 0.64482 0.96705 0.0
N763 N 0.18502 0.65536 0.05782 0.0
N764 N 0.18691 0.65345 0.93366 0.0
H765 H 0.17554 0.66711 0.98191 0.0
H766 H 0.19661 0.64026 0.08457 0.0
C767 C 0.20627 0.66486 0.15185 0.0
O768 O 0.20381 0.67041 0.08882 0.0
N769 N 0.17496 0.66333 0.25901 0.0
C770 C 0.16489 0.66953 0.27736 0.0
C771 C 0.1639 0.66981 0.35364 0.0
C772 C 0.18003 0.65993 0.32425 0.0
N773 N 0.1734 0.66378 0.38309 0.0
C774 C 0.17119 0.68191 0.09307 0.0
C775 C 0.18693 0.69711 0.16838 0.0
C776 C 0.17875 0.70218 0.11753 0.0
C777 C 0.1706 0.69444 0.08081 0.0
C778 C 0.1871 0.6846 0.17958 0.0
N779 N 0.17988 0.67704 0.1384 0.0
H780 H 0.16446 0.67616 0.06731 0.0
H781 H 0.19289 0.68107 0.22293 0.0
H782 H 0.15862 0.67348 0.23782 0.0
H783 H 0.18819 0.65452 0.32852 0.0
O784 O 0.16334 0.65581 0.13367 0.0
O785 O 0.1768 0.64256 0.17616 0.0
O786 O 0.19771 0.66001 0.18964 0.0
C787 C 0.1658 0.64473 0.15346 0.0
H788 H 0.19891 0.63789 0.93907 0.0
H789 H 0.15677 0.67418 0.3851 0.0
H790 H 0.19294 0.7028 0.20105 0.0
H791 H 0.16382 0.69803 0.04307 0.0
Co792 Co 0.40801 0.93099 0.40432 0.0
C793 C 0.40819 0.93274 0.23586 0.0
C794 C 0.39468 0.94372 0.2884 0.0
C795 C 0.39354 0.94499 0.21262 0.0
N796 N 0.40393 0.93613 0.30343 0.0
N797 N 0.40205 0.9381 0.17927 0.0
H798 H 0.4155 0.92647 0.22746 0.0
H799 H 0.389 0.94794 0.33011 0.0
C800 C 0.41363 0.95716 0.39841 0.0
O801 O 0.41928 0.95459 0.33597 0.0
N802 N 0.41154 0.92585 0.50487 0.0
C803 C 0.41758 0.91567 0.52341 0.0
C804 C 0.41782 0.91469 0.5997 0.0
C805 C 0.40821 0.93098 0.57 0.0
N806 N 0.41193 0.92429 0.62895 0.0
C807 C 0.43038 0.92226 0.33952 0.0
C808 C 0.44553 0.9371 0.4218 0.0
C809 C 0.4507 0.92893 0.37129 0.0
C810 C 0.44295 0.92139 0.32998 0.0
C811 C 0.43297 0.93769 0.4293 0.0
N812 N 0.42547 0.93081 0.38556 0.0
H813 H 0.42465 0.9157 0.31208 0.0
H814 H 0.42933 0.94345 0.47239 0.0
H815 H 0.42145 0.90935 0.484 0.0
H816 H 0.40296 0.93924 0.57413 0.0
O817 O 0.40424 0.91437 0.37876 0.0
O818 O 0.39093 0.9278 0.42066 0.0
O819 O 0.40849 0.94869 0.43565 0.0
C820 C 0.39315 0.9168 0.39812 0.0
H821 H 0.38669 0.95034 0.18462 0.0
H822 H 0.42207 0.90749 0.63131 0.0
H823 H 0.45114 0.94291 0.45623 0.0
H824 H 0.44658 0.91454 0.29295 0.0
Co825 Co 0.81405 0.66025 0.16684 0.0
C826 C 0.81288 0.65993 1.00119 0.0
C827 C 0.79892 0.6491 0.0513 0.0
C828 C 0.79769 0.64845 0.97509 0.0
N829 N 0.80837 0.65636 0.06759 0.0
N830 N 0.80645 0.65526 0.94348 0.0
H831 H 0.8206 0.66592 0.99545 0.0
H832 H 0.79336 0.64451 0.09206 0.0
C833 C 0.79113 0.6686 0.2407 0.0
O834 O 0.79711 0.67783 0.26909 0.0
N835 N 0.81991 0.66366 0.26812 0.0
C836 C 0.83126 0.6671 0.2874 0.0
C837 C 0.83226 0.66745 0.36357 0.0
C838 C 0.81445 0.66121 0.33416 0.0
N839 N 0.82166 0.66383 0.39323 0.0
C840 C 0.82388 0.68432 0.1474 0.0
C841 C 0.80289 0.69488 0.09433 0.0
C842 C 0.81303 0.70231 0.10723 0.0
C843 C 0.8237 0.69675 0.1329 0.0
C844 C 0.80342 0.6825 0.1109 0.0
N845 N 0.81364 0.67747 0.14103 0.0
H846 H 0.83235 0.68026 0.16272 0.0
H847 H 0.79555 0.67696 0.09955 0.0
H848 H 0.8387 0.6685 0.24952 0.0
H849 H 0.80547 0.65738 0.33919 0.0
O850 O 0.83043 0.65654 0.13689 0.0
O851 O 0.81735 0.64324 0.18345 0.0
O852 O 0.7966 0.6607 0.2009 0.0
C853 C 0.82816 0.64547 0.1577 0.0
H854 H 0.79099 0.64315 0.94529 0.0
H855 H 0.84038 0.66965 0.39468 0.0
H856 H 0.79459 0.69855 0.07127 0.0
H857 H 0.83188 0.70193 0.14291 0.0
Co858 Co 0.08414 0.06742 0.89686 0.0
C859 C 0.08455 0.0661 0.73147 0.0
C860 C 0.0945 0.05152 0.78195 0.0
C861 C 0.09523 0.05036 0.70564 0.0
N862 N 0.08776 0.06134 0.79806 0.0
N863 N 0.08898 0.05953 0.67371 0.0
H864 H 0.07904 0.07416 0.72567 0.0
H865 H 0.09874 0.04569 0.82284 0.0
C866 C 0.07563 0.04543 0.9793 0.0
O867 O 0.06669 0.05196 1.00634 0.0
N868 N 0.08091 0.07368 0.99738 0.0
C869 C 0.07641 0.08467 1.01553 0.0
C870 C 0.07631 0.08591 0.09171 0.0
C871 C 0.08417 0.06873 0.06377 0.0
N872 N 0.08107 0.07583 0.12244 0.0
C873 C 0.06067 0.07808 0.86771 0.0
C874 C 0.0488 0.05663 0.83614 0.0
C875 C 0.04199 0.06732 0.84178 0.0
C876 C 0.04816 0.07823 0.85496 0.0
C877 C 0.0613 0.05694 0.84889 0.0
N878 N 0.06693 0.06742 0.87055 0.0
H879 H 0.06529 0.08659 0.87462 0.0
H880 H 0.06641 0.04866 0.84227 0.0
H881 H 0.07395 0.09171 0.97687 0.0
H882 H 0.08872 0.0601 0.0691 0.0
O883 O 0.08844 0.08357 0.86477 0.0
O884 O 0.10119 0.07023 0.91395 0.0
O885 O 0.08329 0.05015 0.93453 0.0
C886 C 0.09942 0.08101 0.88651 0.0
H887 H 0.10025 0.04344 0.6761 0.0
H888 H 0.07332 0.09386 0.12193 0.0
H889 H 0.04451 0.04808 0.8223 0.0
H890 H 0.04336 0.08678 0.85737 0.0
Co891 Co 0.68172 0.33399 0.66327 0.0
C892 C 0.6833 0.3342 0.49468 0.0
C893 C 0.6935 0.34832 0.5478 0.0
C894 C 0.69463 0.34963 0.47197 0.0
N895 N 0.68643 0.33862 0.56249 0.0
N896 N 0.68824 0.34074 0.43865 0.0
H897 H 0.67735 0.32662 0.4853 0.0
H898 H 0.69754 0.3541 0.58976 0.0
C899 C 0.70803 0.32907 0.65316 0.0
O900 O 0.70552 0.32369 0.5896 0.0
N901 N 0.677 0.32983 0.7637 0.0
C902 C 0.66703 0.32347 0.78188 0.0
C903 C 0.66641 0.32259 0.85807 0.0
C904 C 0.68233 0.33278 0.82906 0.0
N905 N 0.67604 0.32841 0.88813 0.0
C906 C 0.67276 0.31196 0.59563 0.0
C907 C 0.68862 0.29645 0.66715 0.0
C908 C 0.68011 0.29156 0.61754 0.0
C909 C 0.67196 0.29947 0.58241 0.0
C910 C 0.68901 0.30894 0.67925 0.0
N911 N 0.68164 0.31665 0.64029 0.0
H912 H 0.666 0.31783 0.57127 0.0
H913 H 0.69502 0.31232 0.72196 0.0
H914 H 0.66057 0.31983 0.74232 0.0
H915 H 0.69061 0.338 0.833 0.0
O916 O 0.66499 0.33773 0.6407 0.0
O917 O 0.67848 0.35092 0.68384 0.0
O918 O 0.69949 0.33364 0.69239 0.0
C919 C 0.66744 0.34874 0.66195 0.0
H920 H 0.69984 0.35654 0.44356 0.0
H921 H 0.65919 0.31821 0.88866 0.0
H922 H 0.69466 0.29063 0.6986 0.0
H923 H 0.66498 0.29605 0.54547 0.0
Co924 Co 0.40988 0.06761 0.62974 0.0
C925 C 0.40952 0.06631 0.79516 0.0
C926 C 0.3993 0.0519 0.74455 0.0
C927 C 0.39858 0.05074 0.82083 0.0
N928 N 0.4062 0.06161 0.72853 0.0
N929 N 0.405 0.0598 0.85284 0.0
H930 H 0.41516 0.07428 0.80104 0.0
H931 H 0.39495 0.04615 0.70361 0.0
C932 C 0.41817 0.04542 0.54775 0.0
O933 O 0.42712 0.05184 0.51994 0.0
N934 N 0.41318 0.07379 0.52925 0.0
C935 C 0.4179 0.08469 0.51115 0.0
C936 C 0.41804 0.0859 0.43498 0.0
C937 C 0.40988 0.06886 0.46285 0.0
N938 N 0.41311 0.07589 0.40423 0.0
C939 C 0.43319 0.07834 0.66035 0.0
C940 C 0.44536 0.05701 0.69016 0.0
C941 C 0.45202 0.06784 0.68615 0.0
C942 C 0.44566 0.07866 0.67369 0.0
C943 C 0.43286 0.05715 0.67675 0.0
N944 N 0.42709 0.0676 0.65611 0.0
H945 H 0.42845 0.08681 0.65468 0.0
H946 H 0.42787 0.04877 0.68223 0.0
H947 H 0.4205 0.09169 0.54979 0.0
H948 H 0.40521 0.06028 0.45749 0.0
O949 O 0.4057 0.08382 0.66159 0.0
O950 O 0.39282 0.07058 0.61258 0.0
O951 O 0.41059 0.05029 0.59253 0.0
C952 C 0.39471 0.08137 0.63986 0.0
H953 H 0.39345 0.0439 0.8503 0.0
H954 H 0.42118 0.09379 0.4048 0.0
H955 H 0.44977 0.04845 0.7018 0.0
H956 H 0.45027 0.08733 0.67463 0.0
Co957 Co 0.67778 0.65884 0.37847 0.0
C958 C 0.67939 0.65909 0.54413 0.0
C959 C 0.69294 0.64782 0.49348 0.0
C960 C 0.69418 0.6471 0.56958 0.0
N961 N 0.68372 0.65535 0.47757 0.0
N962 N 0.68569 0.6542 0.60182 0.0
H963 H 0.6718 0.66522 0.5498 0.0
H964 H 0.69824 0.64297 0.45248 0.0
C965 C 0.70035 0.66741 0.30069 0.0
O966 O 0.69408 0.67623 0.27003 0.0
N967 N 0.67172 0.66187 0.2774 0.0
C968 C 0.66037 0.66529 0.2582 0.0
C969 C 0.65917 0.66498 0.18203 0.0
C970 C 0.67704 0.65896 0.21167 0.0
N971 N 0.66968 0.66107 0.15268 0.0
C972 C 0.66686 0.68223 0.40185 0.0
C973 C 0.68787 0.69439 0.44015 0.0
C974 C 0.67712 0.70104 0.43145 0.0
C975 C 0.66644 0.69471 0.41445 0.0
C976 C 0.68784 0.68188 0.42717 0.0
N977 N 0.67759 0.6761 0.40304 0.0
H978 H 0.65847 0.67752 0.39237 0.0
H979 H 0.69614 0.67688 0.43589 0.0
H980 H 0.65307 0.66719 0.29627 0.0
H981 H 0.68593 0.6549 0.20692 0.0
O982 O 0.66156 0.65463 0.40929 0.0
O983 O 0.67501 0.64169 0.363 0.0
O984 O 0.69518 0.65974 0.34351 0.0
C985 C 0.66417 0.64361 0.38903 0.0
H986 H 0.70067 0.64145 0.59857 0.0
H987 H 0.65111 0.66732 0.15071 0.0
H988 H 0.69629 0.69881 0.45515 0.0
H989 H 0.6578 0.69934 0.41131 0.0
Co990 Co 0.08643 0.93168 0.13011 0.0
C991 C 0.08678 0.93321 0.29883 0.0
C992 C 0.101 0.94322 0.24588 0.0
C993 C 0.10234 0.94437 0.32175 0.0
N994 N 0.09122 0.93626 0.23105 0.0
N995 N 0.09338 0.93809 0.35495 0.0
H996 H 0.07911 0.92739 0.30818 0.0
H997 H 0.1068 0.94721 0.20399 0.0
C998 C 0.08144 0.95794 0.14195 0.0
O999 O 0.07631 0.95535 0.20602 0.0
N1000 N 0.08212 0.92707 0.02952 0.0
C1001 C 0.07564 0.91719 1.01091 0.0
C1002 C 0.07475 0.9166 0.93468 0.0
C1003 C 0.08515 0.93238 0.96436 0.0
N1004 N 0.08069 0.92616 0.90502 0.0
C1005 C 0.06452 0.92268 0.19841 0.0
C1006 C 0.04892 0.93863 0.1284 0.0
C1007 C 0.04412 0.93016 0.17836 0.0
C1008 C 0.05207 0.92196 0.21268 0.0
C1009 C 0.06137 0.93896 0.11541 0.0
N1010 N 0.06914 0.93157 0.15376 0.0
H1011 H 0.07042 0.9159 0.22219 0.0
H1012 H 0.06467 0.94496 0.07258 0.0
H1013 H 0.07194 0.91074 0.05021 0.0
H1014 H 0.09048 0.94059 0.96078 0.0
O1015 O 0.09017 0.91492 0.15148 0.0
O1016 O 0.10333 0.92844 0.10861 0.0
O1017 O 0.08599 0.94946 0.10203 0.0
C1018 C 0.10114 0.91737 0.12982 0.0
H1019 H 0.10931 0.94951 0.35026 0.0
H1020 H 0.0703 0.90944 0.90379 0.0
H1021 H 0.04305 0.94469 0.09743 0.0
H1022 H 0.04872 0.915 0.24983 0.0
Co1023 Co 0.81837 0.33596 0.88478 0.0
C1024 C 0.81672 0.33574 0.05032 0.0
C1025 C 0.80281 0.34656 0.99948 0.0
C1026 C 0.80159 0.34729 0.07561 0.0
N1027 N 0.81224 0.33929 0.98368 0.0
N1028 N 0.81032 0.34047 0.10795 0.0
H1029 H 0.8245 0.32984 0.05607 0.0
H1030 H 0.79736 0.35124 0.95843 0.0
C1031 C 0.79626 0.32721 0.80487 0.0
O1032 O 0.8028 0.31819 0.77891 0.0
N1033 N 0.82468 0.3332 0.78382 0.0
C1034 C 0.83626 0.33056 0.76527 0.0
C1035 C 0.83752 0.33093 0.68915 0.0
C1036 C 0.81928 0.33582 0.71769 0.0
N1037 N 0.82681 0.33416 0.65913 0.0
C1038 C 0.82838 0.31178 0.89839 0.0
C1039 C 0.80751 0.30092 0.95078 0.0
C1040 C 0.8176 0.29357 0.93548 0.0
C1041 C 0.82821 0.29926 0.91019 0.0
C1042 C 0.80803 0.31339 0.93702 0.0
N1043 N 0.81819 0.31861 0.90751 0.0
H1044 H 0.83679 0.31592 0.88251 0.0
H1045 H 0.80015 0.31885 0.94938 0.0
H1046 H 0.84363 0.32916 0.80396 0.0
H1047 H 0.81022 0.33943 0.71223 0.0
O1048 O 0.83456 0.33994 0.91821 0.0
O1049 O 0.82134 0.3531 0.87157 0.0
O1050 O 0.80108 0.33523 0.84708 0.0
C1051 C 0.8321 0.35104 0.89878 0.0
H1052 H 0.79496 0.35275 0.10456 0.0
H1053 H 0.84575 0.32913 0.65839 0.0
H1054 H 0.79925 0.29712 0.97338 0.0
H1055 H 0.83634 0.29413 0.89825 0.0
H1056 H 0.09936 0.55967 0.8409 0.0
H1057 H 0.06482 0.57663 0.79693 0.0
H1058 H 0.10218 0.55642 0.70727 0.0
H1059 H 0.06757 0.57337 0.66407 0.0
H1060 H 0.08284 0.57847 0.42969 0.0
H1061 H 0.0799 0.58093 0.56333 0.0
H1062 H 0.09455 0.54512 0.60063 0.0
H1063 H 0.0975 0.54268 0.46697 0.0
C1064 C 0.09231 0.56258 0.80289 0.0
C1065 C 0.08193 0.56852 0.82969 0.0
C1066 C 0.09392 0.56072 0.72625 0.0
C1067 C 0.08515 0.56475 0.67471 0.0
C1068 C 0.07464 0.5704 0.70187 0.0
C1069 C 0.07305 0.57227 0.77822 0.0
C1070 C 0.08532 0.57107 0.4662 0.0
C1071 C 0.09041 0.56038 0.4373 0.0
C1072 C 0.08364 0.57248 0.54299 0.0
C1073 C 0.08698 0.56322 0.59293 0.0
C1074 C 0.09205 0.55251 0.56401 0.0
C1075 C 0.09374 0.55111 0.48723 0.0
H1076 H 0.66932 0.8269 0.67867 0.0
H1077 H 0.69986 0.85034 0.72592 0.0
H1078 H 0.66632 0.82396 0.81109 0.0
H1079 H 0.69636 0.84794 0.85781 0.0
H1080 H 0.69434 0.83231 0.09249 0.0
H1081 H 0.69795 0.8345 0.95901 0.0
H1082 H 0.65928 0.83382 0.91914 0.0
H1083 H 0.65579 0.83128 0.05206 0.0
C1084 C 0.67541 0.83149 0.71657 0.0
C1085 C 0.68483 0.83894 0.68999 0.0
C1086 C 0.67358 0.82989 0.7932 0.0
C1087 C 0.68104 0.83576 0.84579 0.0
C1088 C 0.6905 0.84313 0.81939 0.0
C1089 C 0.6924 0.84465 0.74291 0.0
C1090 C 0.68663 0.8327 0.05511 0.0
C1091 C 0.67479 0.83157 0.08289 0.0
C1092 C 0.68868 0.83397 0.97845 0.0
C1093 C 0.67892 0.8343 0.92766 0.0
C1094 C 0.66706 0.83333 0.95593 0.0
C1095 C 0.66504 0.83193 0.03237 0.0
H1096 H 0.4107 0.41516 0.90474 0.0
H1097 H 0.4062 0.45349 0.94482 0.0
H1098 H 0.41281 0.41174 0.0384 0.0
H1099 H 0.40846 0.45014 0.07819 0.0
H1100 H 0.40035 0.4379 0.31805 0.0
H1101 H 0.39842 0.44171 0.18441 0.0
H1102 H 0.42617 0.41499 0.14101 0.0
H1103 H 0.42794 0.41113 0.27392 0.0
C1104 C 0.4103 0.42288 0.94196 0.0
C1105 C 0.40823 0.43459 0.91388 0.0
C1106 C 0.41152 0.42093 0.01876 0.0
C1107 C 0.41079 0.43067 0.06952 0.0
C1108 C 0.40885 0.44239 0.04119 0.0
C1109 C 0.40757 0.44432 0.9645 0.0
C1110 C 0.4061 0.43293 0.27997 0.0
C1111 C 0.41422 0.42413 0.30679 0.0
C1112 C 0.405 0.4351 0.20322 0.0
C1113 C 0.41207 0.42859 0.15148 0.0
C1114 C 0.42037 0.41999 0.17873 0.0
C1115 C 0.42141 0.41778 0.25516 0.0
H1116 H 0.82873 0.15968 0.16586 0.0
H1117 H 0.79079 0.15296 0.20783 0.0
H1118 H 0.83228 0.16181 0.2994 0.0
H1119 H 0.7943 0.15516 0.3411 0.0
H1120 H 0.80739 0.14772 0.58047 0.0
H1121 H 0.80363 0.14549 0.44695 0.0
H1122 H 0.82833 0.175 0.40264 0.0
H1123 H 0.83211 0.17716 0.53536 0.0
C1124 C 0.82111 0.15877 0.20337 0.0
C1125 C 0.80948 0.15611 0.17565 0.0
C1126 C 0.82314 0.15999 0.28019 0.0
C1127 C 0.81358 0.15863 0.33152 0.0
C1128 C 0.80193 0.15605 0.30366 0.0
C1129 C 0.79992 0.1548 0.22693 0.0
C1130 C 0.81195 0.15378 0.54233 0.0
C1131 C 0.82014 0.16255 0.56908 0.0
C1132 C 0.80979 0.15251 0.46556 0.0
C1133 C 0.81573 0.16001 0.41353 0.0
C1134 C 0.82378 0.16887 0.44057 0.0
C1135 C 0.82595 0.17012 0.51704 0.0
H1136 H 0.08539 0.41466 0.63006 0.0
H1137 H 0.09324 0.45235 0.58668 0.0
H1138 H 0.08332 0.41103 0.49659 0.0
H1139 H 0.09113 0.44875 0.45348 0.0
H1140 H 0.09831 0.43521 0.21488 0.0
H1141 H 0.10065 0.43895 0.34834 0.0
H1142 H 0.07026 0.41536 0.39283 0.0
H1143 H 0.06796 0.41162 0.26026 0.0
C1144 C 0.08657 0.42221 0.59228 0.0
C1145 C 0.08952 0.4338 0.61964 0.0
C1146 C 0.08538 0.42013 0.51548 0.0
C1147 C 0.08708 0.42959 0.46379 0.0
C1148 C 0.08998 0.44119 0.49124 0.0
C1149 C 0.09117 0.44326 0.56795 0.0
C1150 C 0.09209 0.43088 0.25302 0.0
C1151 C 0.08302 0.42301 0.2263 0.0
C1152 C 0.09342 0.43303 0.32976 0.0
C1153 C 0.0857 0.4274 0.38183 0.0
C1154 C 0.07656 0.41966 0.35487 0.0
C1155 C 0.07524 0.41751 0.27844 0.0
H1156 H 0.79284 0.84566 0.82024 0.0
H1157 H 0.8296 0.83426 0.86466 0.0
H1158 H 0.79629 0.84334 0.68714 0.0
H1159 H 0.83306 0.83193 0.73126 0.0
H1160 H 0.8309 0.81669 0.49478 0.0
H1161 H 0.8274 0.81932 0.62724 0.0
H1162 H 0.80712 0.85201 0.58256 0.0
H1163 H 0.81065 0.84937 0.44914 0.0
C1164 C 0.80171 0.84276 0.8018 0.0
C1165 C 0.81094 0.84018 0.85378 0.0
C1166 C 0.80369 0.84144 0.72513 0.0
C1167 C 0.81497 0.83747 0.69801 0.0
C1168 C 0.8242 0.83485 0.74995 0.0
C1169 C 0.82221 0.83617 0.82671 0.0
C1170 C 0.82581 0.82454 0.51284 0.0
C1171 C 0.82117 0.83288 0.46064 0.0
C1172 C 0.8238 0.82605 0.58924 0.0
C1173 C 0.81704 0.83592 0.6161 0.0
C1174 C 0.81226 0.84422 0.56401 0.0
C1175 C 0.81429 0.84271 0.4873 0.0
H1176 H 0.39837 0.558 0.71731 0.0
H1177 H 0.42815 0.58234 0.7627 0.0
H1178 H 0.39614 0.5543 0.85086 0.0
H1179 H 0.42601 0.57861 0.89542 0.0
H1180 H 0.41057 0.57951 0.13152 0.0
H1181 H 0.4128 0.58288 0.99797 0.0
H1182 H 0.40574 0.54493 0.95693 0.0
H1183 H 0.40344 0.5416 0.09018 0.0
C1184 C 0.40451 0.56248 0.75557 0.0
C1185 C 0.41336 0.57057 0.72902 0.0
C1186 C 0.40325 0.56036 0.83228 0.0
C1187 C 0.41084 0.56623 0.88433 0.0
C1188 C 0.41981 0.57414 0.85743 0.0
C1189 C 0.42105 0.57627 0.78104 0.0
C1190 C 0.40959 0.57186 0.09413 0.0
C1191 C 0.40678 0.56029 0.12196 0.0
C1192 C 0.41088 0.57379 1.01735 0.0
C1193 C 0.40943 0.56418 0.96625 0.0
C1194 C 0.4067 0.55259 0.99423 0.0
C1195 C 0.40539 0.55068 0.07091 0.0
H1196 H 0.68736 0.14679 0.96377 0.0
H1197 H 0.66078 0.17457 1.00819 0.0
H1198 H 0.69121 0.14487 0.09736 0.0
H1199 H 0.66467 0.17278 0.14105 0.0
H1200 H 0.66499 0.15738 0.37749 0.0
H1201 H 0.66146 0.15943 0.24389 0.0
H1202 H 0.6998 0.15502 0.20349 0.0
H1203 H 0.70327 0.15285 0.33681 0.0
C1204 C 0.68242 0.15257 1.00185 0.0
C1205 C 0.67368 0.16076 0.97501 0.0
C1206 C 0.68463 0.15149 0.07861 0.0
C1207 C 0.67819 0.15861 0.13045 0.0
C1208 C 0.66961 0.16694 0.10325 0.0
C1209 C 0.66739 0.16799 0.02679 0.0
C1210 C 0.67267 0.15695 0.3402 0.0
C1211 C 0.6844 0.1549 0.36818 0.0
C1212 C 0.67066 0.15813 0.26339 0.0
C1213 C 0.68034 0.15736 0.21245 0.0
C1214 C 0.69209 0.15543 0.24063 0.0
C1215 C 0.69408 0.15421 0.31733 0.0
H1216 H 0.89842 0.44072 0.19718 0.0
H1217 H 0.93069 0.41998 0.24643 0.0
H1218 H 0.89534 0.44407 0.32998 0.0
H1219 H 0.92718 0.42264 0.3783 0.0
H1220 H 0.92404 0.43755 0.61191 0.0
H1221 H 0.92772 0.43628 0.47818 0.0
H1222 H 0.88911 0.43376 0.4389 0.0
H1223 H 0.88552 0.43542 0.57241 0.0
C1224 C 0.90488 0.43688 0.23594 0.0
C1225 C 0.91475 0.42997 0.21033 0.0
C1226 C 0.90302 0.43867 0.31245 0.0
C1227 C 0.91095 0.43355 0.36543 0.0
C1228 C 0.92093 0.42685 0.33962 0.0
C1229 C 0.92284 0.42516 0.2634 0.0
C1230 C 0.91636 0.43667 0.57459 0.0
C1231 C 0.9045 0.43656 0.60273 0.0
C1232 C 0.91845 0.43593 0.4978 0.0
C1233 C 0.90872 0.43489 0.44718 0.0
C1234 C 0.89684 0.43479 0.47566 0.0
C1235 C 0.89476 0.43567 0.55236 0.0
H1236 H 0.30711 0.14964 0.95815 0.0
H1237 H 0.33357 0.17752 1.00393 0.0
H1238 H 0.30334 0.14754 0.09162 0.0
H1239 H 0.32973 0.17557 0.13671 0.0
H1240 H 0.32956 0.16014 0.37274 0.0
H1241 H 0.33304 0.16229 0.23924 0.0
H1242 H 0.29474 0.15735 0.19812 0.0
H1243 H 0.29133 0.15506 0.33134 0.0
C1244 C 0.31203 0.15541 0.99654 0.0
C1245 C 0.32072 0.16368 0.97013 0.0
C1246 C 0.30987 0.15422 0.07323 0.0
C1247 C 0.31629 0.16133 0.12545 0.0
C1248 C 0.32481 0.16974 0.09865 0.0
C1249 C 0.327 0.17088 0.02225 0.0
C1250 C 0.32187 0.15961 0.33529 0.0
C1251 C 0.31018 0.15738 0.36303 0.0
C1252 C 0.32385 0.16085 0.25853 0.0
C1253 C 0.31417 0.15998 0.2074 0.0
C1254 C 0.30246 0.15785 0.23536 0.0
C1255 C 0.3005 0.15656 0.31201 0.0
H1256 H 0.59736 0.55434 0.69298 0.0
H1257 H 0.56562 0.5759 0.74148 0.0
H1258 H 0.6003 0.55088 0.82578 0.0
H1259 H 0.56901 0.57312 0.87343 0.0
H1260 H 0.57169 0.55793 0.10675 0.0
H1261 H 0.56809 0.55942 0.97294 0.0
H1262 H 0.60676 0.561 0.93516 0.0
H1263 H 0.61027 0.55913 0.0687 0.0
C1264 C 0.59099 0.55834 0.73156 0.0
C1265 C 0.58131 0.56551 0.70572 0.0
C1266 C 0.59277 0.55648 0.80809 0.0
C1267 C 0.58496 0.56179 0.8609 0.0
C1268 C 0.57516 0.56876 0.83487 0.0
C1269 C 0.57332 0.57052 0.75861 0.0
C1270 C 0.5794 0.55864 0.06975 0.0
C1271 C 0.59126 0.55843 0.09832 0.0
C1272 C 0.57735 0.55952 0.99291 0.0
C1273 C 0.58713 0.56035 0.94269 0.0
C1274 C 0.59899 0.56013 0.9716 0.0
C1275 C 0.60103 0.55912 0.04833 0.0
H1276 H 0.20166 0.8462 0.8196 0.0
H1277 H 0.1659 0.83192 0.86448 0.0
H1278 H 0.1977 0.84508 0.68719 0.0
H1279 H 0.16225 0.83008 0.7314 0.0
H1280 H 0.15405 0.84023 0.49106 0.0
H1281 H 0.15814 0.84165 0.62414 0.0
H1282 H 0.19559 0.83213 0.58426 0.0
H1283 H 0.19148 0.8311 0.45067 0.0
C1284 C 0.19294 0.84279 0.80171 0.0
C1285 C 0.18407 0.8393 0.85394 0.0
C1286 C 0.19073 0.84198 0.72506 0.0
C1287 C 0.17962 0.83753 0.69783 0.0
C1288 C 0.17084 0.83378 0.74989 0.0
C1289 C 0.17301 0.83469 0.82672 0.0
C1290 C 0.16315 0.83845 0.51079 0.0
C1291 C 0.17244 0.83555 0.46025 0.0
C1292 C 0.1655 0.83919 0.58733 0.0
C1293 C 0.17719 0.83691 0.61573 0.0
C1294 C 0.18651 0.83412 0.56483 0.0
C1295 C 0.18418 0.83352 0.48808 0.0
H1296 H 0.92204 0.5902 0.78121 0.0
H1297 H 0.90141 0.5578 0.82947 0.0
H1298 H 0.91991 0.58637 0.64935 0.0
H1299 H 0.89992 0.5536 0.69679 0.0
H1300 H 0.8881 0.55655 0.45306 0.0
H1301 H 0.89021 0.56016 0.58622 0.0
H1302 H 0.92641 0.57399 0.55039 0.0
H1303 H 0.92411 0.57061 0.41665 0.0
C1304 C 0.91702 0.58225 0.76427 0.0
C1305 C 0.91177 0.57443 0.81735 0.0
C1306 C 0.91596 0.57994 0.68789 0.0
C1307 C 0.90975 0.56965 0.66169 0.0
C1308 C 0.90462 0.56172 0.71452 0.0
C1309 C 0.9056 0.56408 0.79116 0.0
C1310 C 0.89654 0.5603 0.47363 0.0
C1311 C 0.90594 0.56328 0.42405 0.0
C1312 C 0.89778 0.56233 0.55027 0.0
C1313 C 0.9085 0.56734 0.57975 0.0
C1314 C 0.91793 0.5703 0.52999 0.0
C1315 C 0.91664 0.56836 0.45315 0.0
H1316 H 0.18669 0.14713 0.5757 0.0
H1317 H 0.16239 0.1769 0.52977 0.0
H1318 H 0.19044 0.14484 0.44228 0.0
H1319 H 0.16616 0.17467 0.39718 0.0
H1320 H 0.16564 0.15945 0.16031 0.0
H1321 H 0.16206 0.16155 0.29374 0.0
H1322 H 0.19993 0.1544 0.3368 0.0
H1323 H 0.20346 0.15223 0.20363 0.0
C1324 C 0.18222 0.15325 0.5374 0.0
C1325 C 0.17415 0.16213 0.56389 0.0
C1326 C 0.18437 0.15194 0.46069 0.0
C1327 C 0.17854 0.15952 0.40847 0.0
C1328 C 0.17061 0.16849 0.43525 0.0
C1329 C 0.16845 0.16977 0.51165 0.0
C1330 C 0.17322 0.15843 0.19809 0.0
C1331 C 0.18483 0.15564 0.17077 0.0
C1332 C 0.17118 0.15963 0.27486 0.0
C1333 C 0.1807 0.15813 0.32653 0.0
C1334 C 0.19232 0.15541 0.29909 0.0
C1335 C 0.19435 0.15418 0.22241 0.0
H1336 H 0.59867 0.44995 0.96969 0.0
H1337 H 0.5827 0.41493 0.92331 0.0
H1338 H 0.59727 0.44602 0.10196 0.0
H1339 H 0.58062 0.41134 0.05613 0.0
H1340 H 0.59004 0.40262 0.29698 0.0
H1341 H 0.5918 0.40665 0.16411 0.0
H1342 H 0.58414 0.44454 0.20431 0.0
H1343 H 0.58275 0.44047 0.33774 0.0
C1344 C 0.59483 0.4414 0.98715 0.0
C1345 C 0.59093 0.43273 0.93449 0.0
C1346 C 0.59387 0.43921 0.06376 0.0
C1347 C 0.58885 0.42833 0.09055 0.0
C1348 C 0.58474 0.41974 0.03806 0.0
C1349 C 0.5858 0.42189 0.9613 0.0
C1350 C 0.58872 0.41181 0.27741 0.0
C1351 C 0.58624 0.42122 0.32806 0.0
C1352 C 0.58966 0.41413 0.20094 0.0
C1353 C 0.58803 0.42592 0.17264 0.0
C1354 C 0.58564 0.43536 0.22364 0.0
C1355 C 0.58483 0.43305 0.30033 0.0
H1356 H 0.32708 0.81538 0.04031 0.0
H1357 H 0.30882 0.84931 0.08262 0.0
H1358 H 0.32364 0.81784 0.90734 0.0
H1359 H 0.3054 0.85182 0.94889 0.0
H1360 H 0.29165 0.84631 0.70948 0.0
H1361 H 0.29431 0.84357 0.84318 0.0
H1362 H 0.33064 0.83034 0.80569 0.0
H1363 H 0.32797 0.83306 0.67195 0.0
C1364 C 0.32239 0.82342 0.02121 0.0
C1365 C 0.31833 0.83221 0.07222 0.0
C1366 C 0.32043 0.82484 0.9448 0.0
C1367 C 0.31435 0.83509 0.91717 0.0
C1368 C 0.31002 0.84376 0.96826 0.0
C1369 C 0.31197 0.84233 0.04495 0.0
C1370 C 0.30025 0.8429 0.72971 0.0
C1371 C 0.3096 0.83992 0.67972 0.0
C1372 C 0.30177 0.84134 0.8065 0.0
C1373 C 0.31269 0.83674 0.83536 0.0
C1374 C 0.32204 0.83372 0.78537 0.0
C1375 C 0.32051 0.83527 0.70854 0.0
H1376 H 0.59902 0.04079 0.9708 0.0
H1377 H 0.58223 0.07564 0.93381 0.0
H1378 H 0.59581 0.04296 0.10443 0.0
H1379 H 0.57906 0.07784 0.06742 0.0
H1380 H 0.56415 0.07265 0.30062 0.0
H1381 H 0.56717 0.06961 0.16776 0.0
H1382 H 0.60261 0.05452 0.21169 0.0
H1383 H 0.59951 0.05752 0.34529 0.0
C1384 C 0.59473 0.04897 0.99113 0.0
C1385 C 0.59088 0.05804 0.94129 0.0
C1386 C 0.5929 0.05021 0.0679 0.0
C1387 C 0.58717 0.06057 0.09692 0.0
C1388 C 0.58332 0.06964 0.04705 0.0
C1389 C 0.58513 0.06838 0.97027 0.0
C1390 C 0.57262 0.06873 0.28205 0.0
C1391 C 0.58163 0.06544 0.33372 0.0
C1392 C 0.57436 0.067 0.2057 0.0
C1393 C 0.58518 0.06194 0.17872 0.0
C1394 C 0.59411 0.05835 0.23047 0.0
C1395 C 0.59234 0.06006 0.30712 0.0
H1396 H 0.16572 0.33649 0.16575 0.0
H1397 H 0.20346 0.34333 0.2137 0.0
H1398 H 0.1613 0.33666 0.29915 0.0
H1399 H 0.19915 0.34311 0.34672 0.0
H1400 H 0.18574 0.35079 0.58343 0.0
H1401 H 0.18932 0.35331 0.44992 0.0
H1402 H 0.16518 0.32338 0.40388 0.0
H1403 H 0.16166 0.32084 0.53622 0.0
C1404 C 0.17305 0.33818 0.20459 0.0
C1405 C 0.18497 0.33979 0.17882 0.0
C1406 C 0.17055 0.33814 0.28123 0.0
C1407 C 0.17989 0.33977 0.33405 0.0
C1408 C 0.19171 0.34188 0.30799 0.0
C1409 C 0.19421 0.34189 0.23154 0.0
C1410 C 0.18124 0.34472 0.54491 0.0
C1411 C 0.17335 0.33566 0.57122 0.0
C1412 C 0.18327 0.34618 0.46819 0.0
C1413 C 0.17746 0.33862 0.41576 0.0
C1414 C 0.1696 0.32957 0.44221 0.0
C1415 C 0.16759 0.3281 0.51859 0.0
H1416 H 0.92488 0.92679 0.42146 0.0
H1417 H 0.88869 0.94028 0.45876 0.0
H1418 H 0.92731 0.92345 0.55507 0.0
H1419 H 0.89094 0.93671 0.59186 0.0
H1420 H 0.9023 0.93925 0.83506 0.0
H1421 H 0.90059 0.94339 0.70249 0.0
H1422 H 0.92108 0.91097 0.65407 0.0
H1423 H 0.9234 0.90719 0.78574 0.0
C1424 C 0.9174 0.92893 0.4581 0.0
C1425 C 0.90661 0.93383 0.42923 0.0
C1426 C 0.91876 0.927 0.53491 0.0
C1427 C 0.90932 0.92981 0.58494 0.0
C1428 C 0.89851 0.93466 0.55572 0.0
C1429 C 0.8972 0.93667 0.47909 0.0
C1430 C 0.90654 0.93302 0.79659 0.0
C1431 C 0.91293 0.92279 0.82254 0.0
C1432 C 0.90545 0.93535 0.71998 0.0
C1433 C 0.91065 0.92751 0.66688 0.0
C1434 C 0.91706 0.91734 0.6928 0.0
C1435 C 0.91824 0.91505 0.76915 0.0
H1436 H 0.29232 0.65351 0.72133 0.0
H1437 H 0.33037 0.65911 0.6772 0.0
H1438 H 0.29616 0.65516 0.85455 0.0
H1439 H 0.33424 0.66071 0.81069 0.0
H1440 H 0.33473 0.67562 0.0481 0.0
H1441 H 0.33079 0.67381 0.9155 0.0
H1442 H 0.30548 0.64476 0.95836 0.0
H1443 H 0.30944 0.6466 0.09189 0.0
C1444 C 0.30153 0.65499 0.73993 0.0
C1445 C 0.31103 0.65614 0.68808 0.0
C1446 C 0.30374 0.65592 0.81661 0.0
C1447 C 0.31552 0.65803 0.84381 0.0
C1448 C 0.32502 0.65925 0.79195 0.0
C1449 C 0.3228 0.65834 0.71517 0.0
C1450 C 0.32843 0.66873 0.02956 0.0
C1451 C 0.3225 0.66118 0.08125 0.0
C1452 C 0.32616 0.66769 0.95311 0.0
C1453 C 0.31787 0.65909 0.92573 0.0
C1454 C 0.31184 0.65159 0.97733 0.0
C1455 C 0.31411 0.65263 0.05409 0.0
H1456 H 0.58977 0.95162 0.06898 0.0
H1457 H 0.58516 0.91339 0.11227 0.0
H1458 H 0.58794 0.94787 0.93574 0.0
H1459 H 0.58342 0.9096 0.97878 0.0
H1460 H 0.5684 0.90871 0.74192 0.0
H1461 H 0.5702 0.91267 0.8746 0.0
H1462 H 0.59828 0.93903 0.83094 0.0
H1463 H 0.59641 0.93508 0.69745 0.0
C1464 C 0.58847 0.94238 0.05016 0.0
C1465 C 0.58764 0.93281 0.10178 0.0
C1466 C 0.58744 0.94023 0.97347 0.0
C1467 C 0.58557 0.92842 0.946 0.0
C1468 C 0.58468 0.91885 0.99767 0.0
C1469 C 0.58568 0.92101 0.07446 0.0
C1470 C 0.57506 0.91527 0.76038 0.0
C1471 C 0.58233 0.92149 0.70853 0.0
C1472 C 0.5761 0.91754 0.83684 0.0
C1473 C 0.58444 0.92612 0.86403 0.0
C1474 C 0.59164 0.93245 0.81219 0.0
C1475 C 0.59059 0.93018 0.73544 0.0
H1476 H 0.29277 0.34541 0.32231 0.0
H1477 H 0.3299 0.3352 0.3658 0.0
H1478 H 0.29618 0.34312 0.18912 0.0
H1479 H 0.33334 0.33294 0.23231 0.0
H1480 H 0.33166 0.31781 0.99573 0.0
H1481 H 0.32806 0.3202 0.12834 0.0
H1482 H 0.30663 0.35218 0.08461 0.0
H1483 H 0.31023 0.34976 0.9511 0.0
C1484 C 0.30171 0.34278 0.30358 0.0
C1485 C 0.31107 0.34053 0.35525 0.0
C1486 C 0.30367 0.34148 0.22691 0.0
C1487 C 0.31505 0.33788 0.19955 0.0
C1488 C 0.3244 0.33557 0.25122 0.0
C1489 C 0.32244 0.33686 0.32799 0.0
C1490 C 0.32628 0.32545 1.01411 0.0
C1491 C 0.32134 0.33366 0.96224 0.0
C1492 C 0.32422 0.32682 0.09053 0.0
C1493 C 0.31713 0.33643 0.11765 0.0
C1494 C 0.31204 0.34458 0.06583 0.0
C1495 C 0.3141 0.34321 0.9891 0.0
H1496 H 0.91171 0.07712 0.60011 0.0
H1497 H 0.89506 0.0422 0.56235 0.0
H1498 H 0.91483 0.0794 0.46651 0.0
H1499 H 0.89823 0.04444 0.42876 0.0
H1500 H 0.89425 0.05908 0.18858 0.0
H1501 H 0.89129 0.05598 0.32217 0.0
H1502 H 0.92665 0.07136 0.3654 0.0
H1503 H 0.92952 0.07451 0.23253 0.0
C1504 C 0.90883 0.06987 0.56348 0.0
C1505 C 0.90312 0.05949 0.59222 0.0
C1506 C 0.91062 0.07117 0.48671 0.0
C1507 C 0.90678 0.0621 0.43663 0.0
C1508 C 0.90112 0.05169 0.46544 0.0
C1509 C 0.89931 0.05041 0.54219 0.0
C1510 C 0.90143 0.06167 0.22659 0.0
C1511 C 0.91206 0.06716 0.1998 0.0
C1512 C 0.89975 0.0599 0.30324 0.0
C1513 C 0.90869 0.06353 0.35481 0.0
C1514 C 0.91945 0.06871 0.32762 0.0
C1515 C 0.9211 0.07051 0.25126 0.0
H1516 H 0.19521 0.66256 0.45258 0.0
H1517 H 0.15667 0.66051 0.49064 0.0
H1518 H 0.19885 0.66046 0.58643 0.0
H1519 H 0.1602 0.65804 0.62352 0.0
H1520 H 0.16902 0.66616 0.86319 0.0
H1521 H 0.16631 0.66887 0.73023 0.0
H1522 H 0.19806 0.64697 0.68873 0.0
H1523 H 0.20126 0.64491 0.82174 0.0
C1524 C 0.18754 0.6615 0.48955 0.0
C1525 C 0.17566 0.66179 0.46128 0.0
C1526 C 0.1896 0.66028 0.56627 0.0
C1527 C 0.17982 0.65919 0.61629 0.0
C1528 C 0.16796 0.65919 0.58731 0.0
C1529 C 0.16592 0.66054 0.51096 0.0
C1530 C 0.17556 0.66205 0.8262 0.0
C1531 C 0.18534 0.65525 0.85423 0.0
C1532 C 0.1739 0.66347 0.7494 0.0
C1533 C 0.18189 0.65805 0.69824 0.0
C1534 C 0.19176 0.65138 0.72616 0.0
C1535 C 0.19349 0.65005 0.80295 0.0
H1536 H 0.41441 0.91996 0.10891 0.0
H1537 H 0.39377 0.95261 0.0673 0.0
H1538 H 0.41702 0.9172 0.97599 0.0
H1539 H 0.39572 0.94936 0.93429 0.0
H1540 H 0.41117 0.94614 0.69805 0.0
H1541 H 0.40919 0.94986 0.83186 0.0
H1542 H 0.40601 0.91127 0.86957 0.0
H1543 H 0.40836 0.90765 0.73672 0.0
C1544 C 0.41041 0.92658 0.07189 0.0
C1545 C 0.4038 0.9365 0.09986 0.0
C1546 C 0.41178 0.92488 0.99512 0.0
C1547 C 0.40648 0.93298 0.94392 0.0
C1548 C 0.40002 0.94297 0.97176 0.0
C1549 C 0.39875 0.94474 0.04854 0.0
C1550 C 0.40996 0.9385 0.73515 0.0
C1551 C 0.41001 0.92661 0.70708 0.0
C1552 C 0.40881 0.9406 0.81184 0.0
C1553 C 0.40754 0.93086 0.86201 0.0
C1554 C 0.40729 0.91899 0.83322 0.0
C1555 C 0.40858 0.9169 0.75691 0.0
H1556 H 0.8278 0.66009 0.87435 0.0
H1557 H 0.78969 0.65417 0.83291 0.0
H1558 H 0.83126 0.66214 0.74076 0.0
H1559 H 0.79308 0.65635 0.6996 0.0
H1560 H 0.80581 0.6484 0.4605 0.0
H1561 H 0.80204 0.64641 0.59409 0.0
H1562 H 0.82754 0.67532 0.63772 0.0
H1563 H 0.83137 0.67717 0.50494 0.0
C1564 C 0.82013 0.65936 0.83686 0.0
C1565 C 0.80848 0.65692 0.86456 0.0
C1566 C 0.8221 0.66054 0.76009 0.0
C1567 C 0.81245 0.65938 0.70899 0.0
C1568 C 0.80078 0.65707 0.73691 0.0
C1569 C 0.79882 0.65584 0.81356 0.0
C1570 C 0.81053 0.65437 0.4986 0.0
C1571 C 0.81898 0.66286 0.47186 0.0
C1572 C 0.80837 0.65325 0.57532 0.0
C1573 C 0.81455 0.66065 0.62709 0.0
C1574 C 0.82282 0.66927 0.59995 0.0
C1575 C 0.825 0.67035 0.52356 0.0
H1576 H 0.08459 0.08116 0.60585 0.0
H1577 H 0.09039 0.04314 0.56082 0.0
H1578 H 0.08291 0.08504 0.47248 0.0
H1579 H 0.08866 0.04699 0.4277 0.0
H1580 H 0.09688 0.06028 0.19023 0.0
H1581 H 0.09885 0.05634 0.32361 0.0
H1582 H 0.06981 0.08157 0.36775 0.0
H1583 H 0.06787 0.08551 0.23526 0.0
C1584 C 0.08539 0.0736 0.56772 0.0
C1585 C 0.08766 0.06183 0.59458 0.0
C1586 C 0.08443 0.07582 0.49098 0.0
C1587 C 0.08567 0.06633 0.43885 0.0
C1588 C 0.08787 0.05456 0.46581 0.0
C1589 C 0.08885 0.05235 0.54246 0.0
C1590 C 0.09087 0.06495 0.22826 0.0
C1591 C 0.08229 0.07331 0.20143 0.0
C1592 C 0.09199 0.06267 0.30497 0.0
C1593 C 0.08454 0.06869 0.35693 0.0
C1594 C 0.07589 0.07696 0.32989 0.0
C1595 C 0.07478 0.07923 0.25348 0.0
H1596 H 0.66703 0.31497 1.00253 0.0
H1597 H 0.69106 0.34493 0.95435 0.0
H1598 H 0.67014 0.31807 0.13443 0.0
H1599 H 0.6948 0.34751 0.08714 0.0
H1600 H 0.68775 0.35783 0.33062 0.0
H1601 H 0.68542 0.35464 0.19703 0.0
H1602 H 0.6838 0.31592 0.23347 0.0
H1603 H 0.68575 0.31924 0.36735 0.0
C1604 C 0.67302 0.32222 0.01968 0.0
C1605 C 0.67864 0.32979 0.96686 0.0
C1606 C 0.67496 0.32388 0.09595 0.0
C1607 C 0.68272 0.33306 0.12208 0.0
C1608 C 0.6886 0.34046 0.06938 0.0
C1609 C 0.68657 0.33888 0.99283 0.0
C1610 C 0.68695 0.34864 0.30993 0.0
C1611 C 0.68689 0.33878 0.35955 0.0
C1612 C 0.68568 0.34679 0.23318 0.0
C1613 C 0.68443 0.33501 0.20389 0.0
C1614 C 0.6845 0.32514 0.25375 0.0
C1615 C 0.68564 0.32702 0.33061 0.0
H1616 H 0.39705 0.06062 0.33613 0.0
H1617 H 0.42657 0.0853 0.29174 0.0
H1618 H 0.39504 0.05671 0.20265 0.0
H1619 H 0.42459 0.08141 0.15919 0.0
H1620 H 0.40976 0.08134 0.9211 0.0
H1621 H 0.41151 0.08515 0.05456 0.0
H1622 H 0.40515 0.04718 0.09853 0.0
H1623 H 0.40336 0.0434 0.96534 0.0
C1624 C 0.40316 0.06517 0.29822 0.0
C1625 C 0.41189 0.07338 0.32523 0.0
C1626 C 0.40202 0.06292 0.22148 0.0
C1627 C 0.40961 0.0688 0.1697 0.0
C1628 C 0.4184 0.0769 0.19692 0.0
C1629 C 0.41953 0.07915 0.27336 0.0
C1630 C 0.40884 0.07378 0.95908 0.0
C1631 C 0.40638 0.06206 0.93199 0.0
C1632 C 0.40984 0.07596 0.03585 0.0
C1633 C 0.40844 0.06648 0.08776 0.0
C1634 C 0.40606 0.05476 0.06058 0.0
C1635 C 0.40505 0.05258 0.98389 0.0
H1636 H 0.69128 0.66437 0.08405 0.0
H1637 H 0.654 0.65451 0.04371 0.0
H1638 H 0.69534 0.66333 0.9504 0.0
H1639 H 0.65804 0.65309 0.91071 0.0
H1640 H 0.6654 0.6629 0.67052 0.0
H1641 H 0.66188 0.66484 0.80365 0.0
H1642 H 0.69753 0.65025 0.84772 0.0
H1643 H 0.70133 0.64903 0.71517 0.0
C1644 C 0.68401 0.66179 0.04664 0.0
C1645 C 0.67232 0.65957 0.07442 0.0
C1646 C 0.68631 0.66119 0.96991 0.0
C1647 C 0.677 0.6582 0.91911 0.0
C1648 C 0.66538 0.65572 0.94749 0.0
C1649 C 0.66306 0.65645 0.02396 0.0
C1650 C 0.67257 0.66025 0.70829 0.0
C1651 C 0.68363 0.65571 0.68111 0.0
C1652 C 0.67049 0.66122 0.78511 0.0
C1653 C 0.67937 0.6576 0.83707 0.0
C1654 C 0.69049 0.65324 0.80985 0.0
C1655 C 0.69261 0.65237 0.73321 0.0
H1656 H 0.11043 0.93748 0.46353 0.0
H1657 H 0.07184 0.93594 0.42565 0.0
H1658 H 0.10717 0.93523 0.59704 0.0
H1659 H 0.06845 0.93408 0.55939 0.0
H1660 H 0.06719 0.91735 0.78999 0.0
H1661 H 0.07038 0.92041 0.65826 0.0
H1662 H 0.10012 0.94469 0.70697 0.0
H1663 H 0.09743 0.94098 0.83961 0.0
C1664 C 0.10123 0.9368 0.48395 0.0
C1665 C 0.09139 0.93684 0.43403 0.0
C1666 C 0.09933 0.93557 0.56065 0.0
C1667 C 0.08753 0.93447 0.58958 0.0
C1668 C 0.07769 0.93466 0.53941 0.0
C1669 C 0.0796 0.93575 0.46261 0.0
C1670 C 0.07452 0.92324 0.77319 0.0
C1671 C 0.08214 0.92876 0.82637 0.0
C1672 C 0.07623 0.92515 0.69702 0.0
C1673 C 0.08553 0.9328 0.67132 0.0
C1674 C 0.09299 0.93858 0.72438 0.0
C1675 C 0.09134 0.93656 0.80084 0.0
H1676 H 0.80536 0.32998 0.58983 0.0
H1677 H 0.84222 0.34131 0.55033 0.0
H1678 H 0.80123 0.33092 0.45622 0.0
H1679 H 0.8381 0.3426 0.4173 0.0
H1680 H 0.83097 0.33255 0.17663 0.0
H1681 H 0.83463 0.33074 0.30976 0.0
H1682 H 0.79851 0.34401 0.35395 0.0
H1683 H 0.79459 0.34512 0.22134 0.0
C1684 C 0.81253 0.33284 0.55265 0.0
C1685 C 0.82413 0.33552 0.58072 0.0
C1686 C 0.81018 0.3334 0.47591 0.0
C1687 C 0.81935 0.33677 0.42531 0.0
C1688 C 0.83088 0.33968 0.45393 0.0
C1689 C 0.83324 0.33901 0.53044 0.0
C1690 C 0.82373 0.33493 0.21443 0.0
C1691 C 0.81249 0.33907 0.18726 0.0
C1692 C 0.82589 0.33404 0.29124 0.0
C1693 C 0.81691 0.33733 0.34325 0.0
C1694 C 0.80563 0.34129 0.31604 0.0
C1695 C 0.80344 0.34209 0.23938 0.0
H1696 H 0.14166 0.64718 0.17838 0.0
H1697 H 0.16894 0.62072 0.12311 0.0
H1698 H 0.12621 0.63148 0.17689 0.0
H1699 H 0.15343 0.60505 0.1148 0.0
H1700 H 0.12488 0.57668 0.16524 0.0
H1701 H 0.14056 0.5922 0.17259 0.0
H1702 H 0.11414 0.61934 0.10875 0.0
H1703 H 0.09843 0.6039 0.10822 0.0
C1704 C 0.14429 0.63798 0.16472 0.0
C1705 C 0.15646 0.63514 0.15095 0.0
C1706 C 0.1354 0.62893 0.16305 0.0
C1707 C 0.13839 0.61684 0.14505 0.0
C1708 C 0.15066 0.6141 0.13051 0.0
C1709 C 0.1596 0.62311 0.13459 0.0
C1710 C 0.1225 0.586 0.15308 0.0
C1711 C 0.11047 0.58913 0.1366 0.0
C1712 C 0.13151 0.59494 0.15662 0.0
C1713 C 0.12877 0.6072 0.14145 0.0
C1714 C 0.11668 0.61017 0.12311 0.0
C1715 C 0.10763 0.60128 0.12197 0.0
H1716 H 0.59846 0.89031 0.34462 0.0
H1717 H 0.62355 0.91648 0.43634 0.0
H1718 H 0.61444 0.87507 0.34338 0.0
H1719 H 0.63953 0.90114 0.4361 0.0
H1720 H 0.64175 0.84751 0.43263 0.0
H1721 H 0.62614 0.86316 0.4329 0.0
H1722 H 0.65212 0.88918 0.35032 0.0
H1723 H 0.66779 0.87355 0.35109 0.0
C1724 C 0.6074 0.89282 0.36445 0.0
C1725 C 0.60974 0.9046 0.39065 0.0
C1726 C 0.61654 0.88405 0.36422 0.0
C1727 C 0.62825 0.88686 0.39006 0.0
C1728 C 0.63064 0.89871 0.41524 0.0
C1729 C 0.62147 0.90748 0.41566 0.0
C1730 C 0.64414 0.85658 0.41471 0.0
C1731 C 0.656 0.85929 0.39178 0.0
C1732 C 0.63517 0.86553 0.41441 0.0
C1733 C 0.63786 0.87741 0.39132 0.0
C1734 C 0.64977 0.88015 0.36908 0.0
C1735 C 0.65874 0.87118 0.36918 0.0
H1736 H 0.35507 0.3481 0.67233 0.0
H1737 H 0.32802 0.37488 0.61824 0.0
H1738 H 0.37075 0.3636 0.66889 0.0
H1739 H 0.3437 0.3903 0.60771 0.0
H1740 H 0.37253 0.41842 0.65393 0.0
H1741 H 0.35678 0.40304 0.6643 0.0
H1742 H 0.38279 0.37554 0.59979 0.0
H1743 H 0.3986 0.39087 0.59653 0.0
C1744 C 0.35255 0.35732 0.65843 0.0
C1745 C 0.34039 0.36033 0.64569 0.0
C1746 C 0.36155 0.36625 0.65568 0.0
C1747 C 0.35866 0.37836 0.63751 0.0
C1748 C 0.34639 0.38124 0.62369 0.0
C1749 C 0.33736 0.37237 0.62896 0.0
C1750 C 0.37481 0.40905 0.64242 0.0
C1751 C 0.38674 0.40578 0.62491 0.0
C1752 C 0.36576 0.40018 0.64762 0.0
C1753 C 0.36835 0.38788 0.63291 0.0
C1754 C 0.38036 0.38476 0.61376 0.0
C1755 C 0.38946 0.39358 0.61109 0.0
H1756 H 0.86914 0.07668 0.93209 0.0
H1757 H 0.89549 0.10279 0.85535 0.0
H1758 H 0.85347 0.09234 0.92978 0.0
H1759 H 0.87983 0.11837 0.85193 0.0
H1760 H 0.8521 0.14612 0.93184 0.0
H1761 H 0.86741 0.13023 0.93652 0.0
H1762 H 0.8418 0.1048 0.84239 0.0
H1763 H 0.82638 0.12071 0.8388 0.0
C1764 C 0.87159 0.08575 0.91458 0.0
C1765 C 0.88357 0.0885 0.89408 0.0
C1766 C 0.86259 0.09471 0.91282 0.0
C1767 C 0.86538 0.10663 0.89078 0.0
C1768 C 0.87738 0.10934 0.87019 0.0
C1769 C 0.88636 0.10038 0.87176 0.0
C1770 C 0.84971 0.13714 0.91228 0.0
C1771 C 0.83801 0.13469 0.88485 0.0
C1772 C 0.85852 0.12803 0.91453 0.0
C1773 C 0.85587 0.11623 0.88952 0.0
C1774 C 0.84412 0.11375 0.86277 0.0
C1775 C 0.8353 0.12289 0.86034 0.0
H1776 H 0.16815 0.3746 0.8683 0.0
H1777 H 0.14237 0.3477 0.94208 0.0
H1778 H 0.15243 0.39011 0.87392 0.0
H1779 H 0.12668 0.36326 0.94898 0.0
H1780 H 0.09887 0.39111 0.86574 0.0
H1781 H 0.11476 0.37574 0.86415 0.0
H1782 H 0.13986 0.40142 0.96097 0.0
H1783 H 0.12401 0.41685 0.96133 0.0
C1784 C 0.15915 0.37202 0.88646 0.0
C1785 C 0.1565 0.35992 0.90461 0.0
C1786 C 0.15015 0.38093 0.88998 0.0
C1787 C 0.13827 0.37793 0.91162 0.0
C1788 C 0.13568 0.36585 0.931 0.0
C1789 C 0.1447 0.35694 0.92759 0.0
C1790 C 0.10778 0.39348 0.88655 0.0
C1791 C 0.11019 0.4052 0.91352 0.0
C1792 C 0.11687 0.38464 0.88616 0.0
C1793 C 0.12858 0.38733 0.91267 0.0
C1794 C 0.13098 0.39908 0.93942 0.0
C1795 C 0.12188 0.40792 0.93991 0.0
H1796 H 0.89752 0.89127 0.18386 0.0
H1797 H 0.87177 0.91708 0.09569 0.0
H1798 H 0.88175 0.87579 0.18687 0.0
H1799 H 0.856 0.90151 0.09776 0.0
H1800 H 0.854 0.84792 0.10402 0.0
H1801 H 0.8696 0.86362 0.10005 0.0
H1802 H 0.84405 0.88967 0.18726 0.0
H1803 H 0.82842 0.87403 0.19028 0.0
C1804 C 0.88848 0.89364 0.1651 0.0
C1805 C 0.88588 0.9054 0.1396 0.0
C1806 C 0.87947 0.88474 0.16634 0.0
C1807 C 0.86763 0.8874 0.1423 0.0
C1808 C 0.86501 0.8992 0.11732 0.0
C1809 C 0.87405 0.90811 0.11585 0.0
C1810 C 0.85171 0.857 0.12221 0.0
C1811 C 0.83999 0.85973 0.14749 0.0
C1812 C 0.86067 0.86598 0.12033 0.0
C1813 C 0.85807 0.87789 0.14346 0.0
C1814 C 0.84631 0.88062 0.16828 0.0
C1815 C 0.83737 0.87164 0.1704 0.0
H1816 H 0.35445 0.64661 0.37459 0.0
H1817 H 0.32694 0.62029 0.42836 0.0
H1818 H 0.36981 0.63087 0.37711 0.0
H1819 H 0.34239 0.60455 0.43788 0.0
H1820 H 0.37115 0.57618 0.38814 0.0
H1821 H 0.35539 0.59164 0.38083 0.0
H1822 H 0.38164 0.61886 0.44695 0.0
H1823 H 0.39741 0.60351 0.4472 0.0
C1824 C 0.35176 0.63743 0.38835 0.0
C1825 C 0.33956 0.63463 0.40143 0.0
C1826 C 0.36059 0.62836 0.39059 0.0
C1827 C 0.35752 0.61629 0.4086 0.0
C1828 C 0.34521 0.61359 0.42237 0.0
C1829 C 0.33632 0.62263 0.41764 0.0
C1830 C 0.37346 0.58551 0.40069 0.0
C1831 C 0.38546 0.58872 0.41751 0.0
C1832 C 0.36442 0.59441 0.39721 0.0
C1833 C 0.3671 0.60667 0.41285 0.0
C1834 C 0.37915 0.60969 0.43199 0.0
C1835 C 0.38823 0.60086 0.43296 0.0
H1836 H 0.59832 0.10128 0.60673 0.0
H1837 H 0.62469 0.07419 0.66736 0.0
H1838 H 0.61399 0.11676 0.60828 0.0
H1839 H 0.6403 0.08975 0.67584 0.0
H1840 H 0.6687 0.11859 0.6315 0.0
H1841 H 0.65336 0.10275 0.62054 0.0
H1842 H 0.62564 0.12888 0.67895 0.0
H1843 H 0.6409 0.14472 0.68299 0.0
C1844 C 0.6075 0.0987 0.62139 0.0
C1845 C 0.61032 0.08657 0.63687 0.0
C1846 C 0.61652 0.1076 0.62317 0.0
C1847 C 0.62856 0.10469 0.64315 0.0
C1848 C 0.63129 0.09245 0.65877 0.0
C1849 C 0.62232 0.08349 0.65454 0.0
C1850 C 0.65929 0.12087 0.64158 0.0
C1851 C 0.65594 0.13285 0.65753 0.0
C1852 C 0.65045 0.11177 0.63594 0.0
C1853 C 0.63809 0.11438 0.64848 0.0
C1854 C 0.63491 0.12643 0.6664 0.0
C1855 C 0.64369 0.13555 0.66958 0.0
H1856 H 0.82846 0.37495 0.92983 0.0
H1857 H 0.85638 0.34891 0.87929 0.0
H1858 H 0.84365 0.39091 0.93911 0.0
H1859 H 0.87153 0.36489 0.8816 0.0
H1860 H 0.89865 0.39346 0.94413 0.0
H1861 H 0.88332 0.37763 0.9475 0.0
H1862 H 0.85618 0.40378 0.87934 0.0
H1863 H 0.87146 0.41969 0.88295 0.0
C1864 C 0.83788 0.3727 0.91987 0.0
C1865 C 0.84128 0.36073 0.90429 0.0
C1866 C 0.84663 0.38188 0.92439 0.0
C1867 C 0.85899 0.37936 0.91092 0.0
C1868 C 0.86226 0.36729 0.89445 0.0
C1869 C 0.85355 0.35807 0.89239 0.0
C1870 C 0.88936 0.39577 0.93044 0.0
C1871 C 0.88621 0.40776 0.91343 0.0
C1872 C 0.88053 0.38666 0.93155 0.0
C1873 C 0.86836 0.38924 0.91307 0.0
C1874 C 0.8653 0.40134 0.89563 0.0
C1875 C 0.87409 0.4105 0.89699 0.0
H1876 H 0.37084 0.07882 0.60054 0.0
H1877 H 0.39655 0.10474 0.68839 0.0
H1878 H 0.35499 0.09428 0.60373 0.0
H1879 H 0.3807 0.12011 0.69252 0.0
H1880 H 0.32734 0.12206 0.69512 0.0
H1881 H 0.34288 0.10628 0.69215 0.0
H1882 H 0.36865 0.13218 0.60565 0.0
H1883 H 0.35318 0.14795 0.60957 0.0
C1884 C 0.37309 0.08779 0.6209 0.0
C1885 C 0.38496 0.09056 0.64406 0.0
C1886 C 0.364 0.09664 0.62305 0.0
C1887 C 0.36658 0.10845 0.64809 0.0
C1888 C 0.37844 0.11116 0.67187 0.0
C1889 C 0.38751 0.10232 0.66996 0.0
C1890 C 0.33632 0.12437 0.67534 0.0
C1891 C 0.33904 0.13626 0.65271 0.0
C1892 C 0.34521 0.11532 0.6733 0.0
C1893 C 0.35702 0.11798 0.64891 0.0
C1894 C 0.35969 0.12986 0.62576 0.0
C1895 C 0.3508 0.13889 0.62756 0.0
H1896 H 0.62444 0.57507 0.37582 0.0
H1897 H 0.59758 0.60168 0.436 0.0
H1898 H 0.63985 0.59084 0.37021 0.0
H1899 H 0.61306 0.61739 0.43731 0.0
H1900 H 0.63999 0.64569 0.36627 0.0
H1901 H 0.62479 0.62977 0.36871 0.0
H1902 H 0.65255 0.60378 0.42936 0.0
H1903 H 0.66781 0.61969 0.42002 0.0
C1904 C 0.62192 0.58432 0.38917 0.0
C1905 C 0.60986 0.58721 0.40595 0.0
C1906 C 0.63078 0.5934 0.38663 0.0
C1907 C 0.62785 0.60556 0.40315 0.0
C1908 C 0.61573 0.60829 0.42198 0.0
C1909 C 0.60683 0.59926 0.42207 0.0
C1910 C 0.64278 0.63654 0.37994 0.0
C1911 C 0.65503 0.63388 0.39292 0.0
C1912 C 0.63405 0.62737 0.38213 0.0
C1913 C 0.63728 0.61534 0.39986 0.0
C1914 C 0.64962 0.61279 0.41385 0.0
C1915 C 0.65841 0.62192 0.40921 0.0
H1916 H 0.16839 0.87522 0.11427 0.0
H1917 H 0.14037 0.84922 0.16396 0.0
H1918 H 0.15323 0.89122 0.10541 0.0
H1919 H 0.12527 0.86523 0.16199 0.0
H1920 H 0.09829 0.89357 0.09651 0.0
H1921 H 0.11369 0.87784 0.09406 0.0
H1922 H 0.14056 0.90411 0.16509 0.0
H1923 H 0.1252 0.91995 0.16059 0.0
C1924 C 0.15896 0.873 0.12415 0.0
C1925 C 0.1555 0.86102 0.13924 0.0
C1926 C 0.15023 0.88219 0.11984 0.0
C1927 C 0.13787 0.87967 0.13294 0.0
C1928 C 0.13455 0.86761 0.14928 0.0
C1929 C 0.14323 0.85838 0.15115 0.0
C1930 C 0.10753 0.89593 0.11113 0.0
C1931 C 0.11059 0.90793 0.12876 0.0
C1932 C 0.11639 0.88688 0.11055 0.0
C1933 C 0.1285 0.88952 0.1302 0.0
C1934 C 0.13148 0.90163 0.14809 0.0
C1935 C 0.12265 0.91075 0.14622 0.0
H1936 H 0.87049 0.57828 0.16357 0.0
H1937 H 0.89618 0.60635 0.10926 0.0
H1938 H 0.85443 0.59338 0.17314 0.0
H1939 H 0.88011 0.62137 0.11178 0.0
H1940 H 0.85216 0.64832 0.18384 0.0
H1941 H 0.86789 0.63294 0.18185 0.0
H1942 H 0.84121 0.60609 0.1165 0.0
H1943 H 0.82538 0.62145 0.12554 0.0
C1944 C 0.87262 0.5877 0.15267 0.0
C1945 C 0.88454 0.5912 0.13634 0.0
C1946 C 0.8634 0.5964 0.15742 0.0
C1947 C 0.86582 0.60876 0.14353 0.0
C1948 C 0.8778 0.6121 0.12532 0.0
C1949 C 0.88706 0.60346 0.12308 0.0
C1950 C 0.84971 0.63909 0.1693 0.0
C1951 C 0.83761 0.63604 0.15471 0.0
C1952 C 0.85876 0.63024 0.16736 0.0
C1953 C 0.856 0.61814 0.14811 0.0
C1954 C 0.84379 0.61517 0.13301 0.0
C1955 C 0.83468 0.62399 0.13747 0.0
H1956 H 0.16747 0.12077 0.83415 0.0
H1957 H 0.14195 0.14678 0.92228 0.0
H1958 H 0.15166 0.10522 0.83484 0.0
H1959 H 0.12625 0.13124 0.92387 0.0
H1960 H 0.12323 0.07804 0.92513 0.0
H1961 H 0.13934 0.09324 0.92253 0.0
H1962 H 0.11407 0.11957 0.8351 0.0
H1963 H 0.09794 0.10444 0.83862 0.0
C1964 C 0.15851 0.12315 0.85399 0.0
C1965 C 0.15595 0.135 0.87804 0.0
C1966 C 0.14947 0.11423 0.85468 0.0
C1967 C 0.13768 0.117 0.8791 0.0
C1968 C 0.13519 0.12885 0.90365 0.0
C1969 C 0.14421 0.13773 0.90321 0.0
C1970 C 0.12113 0.08707 0.90514 0.0
C1971 C 0.1093 0.09005 0.88227 0.0
C1972 C 0.13037 0.09575 0.90331 0.0
C1973 C 0.12798 0.10763 0.87889 0.0
C1974 C 0.11617 0.11055 0.85524 0.0
C1975 C 0.10695 0.10186 0.85682 0.0
H1976 H 0.62613 0.4165 0.67307 0.0
H1977 H 0.59972 0.38884 0.62318 0.0
H1978 H 0.64189 0.40111 0.68257 0.0
H1979 H 0.6155 0.37349 0.6257 0.0
H1980 H 0.64352 0.34614 0.69274 0.0
H1981 H 0.62795 0.36172 0.69347 0.0
H1982 H 0.65462 0.38823 0.62405 0.0
H1983 H 0.67028 0.37271 0.63031 0.0
C1984 C 0.62377 0.40709 0.6632 0.0
C1985 C 0.61174 0.40381 0.64789 0.0
C1986 C 0.63282 0.39823 0.66788 0.0
C1987 C 0.63013 0.38589 0.65488 0.0
C1988 C 0.61802 0.38275 0.63829 0.0
C1989 C 0.60893 0.39157 0.6361 0.0
C1990 C 0.646 0.35534 0.67809 0.0
C1991 C 0.65806 0.35826 0.66154 0.0
C1992 C 0.63704 0.36431 0.67769 0.0
C1993 C 0.63985 0.37638 0.65812 0.0
C1994 C 0.65201 0.3792 0.64106 0.0
C1995 C 0.66103 0.37028 0.64393 0.0
H1996 H 0.36907 0.9196 0.36754 0.0
H1997 H 0.39589 0.89277 0.42494 0.0
H1998 H 0.35361 0.90385 0.36034 0.0
H1999 H 0.38042 0.8771 0.42453 0.0
H2000 H 0.35327 0.84884 0.35604 0.0
H2001 H 0.3685 0.86476 0.35675 0.0
H2002 H 0.34095 0.89085 0.41892 0.0
H2003 H 0.32566 0.87496 0.41143 0.0
C2004 C 0.37159 0.91031 0.37969 0.0
C2005 C 0.38366 0.90736 0.39626 0.0
C2006 C 0.36271 0.90124 0.37628 0.0
C2007 C 0.36561 0.88903 0.39169 0.0
C2008 C 0.37774 0.88624 0.41 0.0
C2009 C 0.38666 0.89525 0.41102 0.0
C2010 C 0.35052 0.85802 0.3696 0.0
C2011 C 0.33832 0.8607 0.38363 0.0
C2012 C 0.35928 0.86719 0.37079 0.0
C2013 C 0.35613 0.87926 0.38853 0.0
C2014 C 0.34383 0.88183 0.40337 0.0
C2015 C 0.33502 0.87269 0.3998 0.0
H2016 H 0.069 0.46203 0.12615 0.0
H2017 H 0.08776 0.46882 0.91957 0.0
H2018 H 0.07036 0.48339 0.15792 0.0
H2019 H 0.08851 0.49044 0.9488 0.0
H2020 H 0.06283 0.52299 0.16793 0.0
H2021 H 0.06208 0.50192 0.12976 0.0
H2022 H 0.09688 0.50594 0.02148 0.0
H2023 H 0.09714 0.52741 0.0563 0.0
C2024 C 0.0733 0.46816 0.08711 0.0
C2025 C 0.07822 0.46378 0.02032 0.0
C2026 C 0.07401 0.48046 0.10493 0.0
C2027 C 0.07938 0.4888 0.05551 0.0
C2028 C 0.08442 0.48435 0.98878 0.0
C2029 C 0.08394 0.47196 0.97172 0.0
C2030 C 0.07029 0.51938 0.13566 0.0
C2031 C 0.08009 0.52679 0.11557 0.0
C2032 C 0.06994 0.50723 0.11423 0.0
C2033 C 0.07954 0.50204 0.07368 0.0
C2034 C 0.08926 0.50957 0.05215 0.0
C2035 C 0.08947 0.52187 0.07229 0.0
H2036 H 0.72069 0.85983 0.2893 0.0
H2037 H 0.71611 0.82156 0.33258 0.0
H2038 H 0.74228 0.85661 0.26912 0.0
H2039 H 0.73757 0.81828 0.30983 0.0
H2040 H 0.77854 0.81836 0.34059 0.0
H2041 H 0.75705 0.82189 0.36333 0.0
H2042 H 0.75625 0.84792 0.18343 0.0
H2043 H 0.77778 0.84469 0.16244 0.0
C2044 C 0.72426 0.85071 0.29381 0.0
C2045 C 0.71665 0.84096 0.31256 0.0
C2046 C 0.73664 0.84885 0.28189 0.0
C2047 C 0.7417 0.83718 0.2879 0.0
C2048 C 0.73405 0.82742 0.30599 0.0
C2049 C 0.72169 0.82929 0.31845 0.0
C2050 C 0.77377 0.82485 0.30602 0.0
C2051 C 0.77988 0.83125 0.24981 0.0
C2052 C 0.76143 0.82682 0.31874 0.0
C2053 C 0.75488 0.83518 0.27513 0.0
C2054 C 0.76102 0.84157 0.2189 0.0
C2055 C 0.77337 0.83966 0.2066 0.0
H2056 H 0.40127 0.52749 0.4586 0.0
H2057 H 0.43707 0.52851 0.55685 0.0
H2058 H 0.40126 0.5054 0.46763 0.0
H2059 H 0.437 0.50645 0.566 0.0
H2060 H 0.43814 0.46684 0.48777 0.0
H2061 H 0.43759 0.4889 0.47833 0.0
H2062 H 0.40104 0.48902 0.56401 0.0
H2063 H 0.40154 0.46694 0.57329 0.0
C2064 C 0.4091 0.52302 0.48254 0.0
C2065 C 0.41918 0.52978 0.50694 0.0
C2066 C 0.40907 0.51036 0.48791 0.0
C2067 C 0.41915 0.50418 0.51713 0.0
C2068 C 0.42916 0.51095 0.54231 0.0
C2069 C 0.42915 0.5236 0.53756 0.0
C2070 C 0.42995 0.47155 0.50416 0.0
C2071 C 0.41988 0.46511 0.53131 0.0
C2072 C 0.42968 0.4842 0.49928 0.0
C2073 C 0.4193 0.49071 0.52084 0.0
C2074 C 0.40914 0.48426 0.54655 0.0
C2075 C 0.40945 0.47161 0.55206 0.0
H2076 H 0.77833 0.14933 0.76272 0.0
H2077 H 0.77684 0.18751 0.81286 0.0
H2078 H 0.75638 0.14893 0.74669 0.0
H2079 H 0.75489 0.18707 0.80428 0.0
H2080 H 0.71635 0.18657 0.72476 0.0
H2081 H 0.7383 0.18669 0.73291 0.0
H2082 H 0.73771 0.14882 0.79714 0.0
H2083 H 0.71575 0.14862 0.78155 0.0
C2084 C 0.77322 0.15761 0.771 0.0
C2085 C 0.77922 0.16847 0.78806 0.0
C2086 C 0.76059 0.1574 0.76273 0.0
C2087 C 0.75361 0.16797 0.77401 0.0
C2088 C 0.75977 0.17878 0.79264 0.0
C2089 C 0.77241 0.17906 0.79825 0.0
C2090 C 0.72098 0.17829 0.74068 0.0
C2091 C 0.71441 0.16761 0.75291 0.0
C2092 C 0.73362 0.17834 0.74607 0.0
C2093 C 0.74004 0.16778 0.7665 0.0
C2094 C 0.73331 0.1571 0.7797 0.0
C2095 C 0.72067 0.15698 0.77167 0.0
H2096 H 0.91917 0.47838 0.80642 0.0
H2097 H 0.90782 0.4677 0.02722 0.0
H2098 H 0.92015 0.49937 0.84626 0.0
H2099 H 0.90901 0.48889 0.06769 0.0
H2100 H 0.93443 0.53311 0.95942 0.0
H2101 H 0.93282 0.51182 0.92537 0.0
H2102 H 0.8995 0.50894 0.05019 0.0
H2103 H 0.90123 0.53027 0.08567 0.0
C2104 C 0.9169 0.4805 0.86366 0.0
C2105 C 0.91348 0.47132 0.91374 0.0
C2106 C 0.91754 0.49256 0.88662 0.0
C2107 C 0.9148 0.49582 0.96039 0.0
C2108 C 0.91112 0.48669 1.01033 0.0
C2109 C 0.91048 0.47455 0.98724 0.0
C2110 C 0.92676 0.52796 0.97979 0.0
C2111 C 0.91793 0.53344 0.02494 0.0
C2112 C 0.9258 0.51575 0.95993 0.0
C2113 C 0.91598 0.50869 0.98456 0.0
C2114 C 0.90723 0.5141 0.03073 0.0
C2115 C 0.90818 0.52635 0.05064 0.0
H2116 H 0.21772 0.15008 0.83026 0.0
H2117 H 0.21622 0.1857 0.7304 0.0
H2118 H 0.2398 0.15017 0.81845 0.0
H2119 H 0.23823 0.18574 0.71857 0.0
H2120 H 0.27797 0.18736 0.7925 0.0
H2121 H 0.25598 0.18658 0.80505 0.0
H2122 H 0.25586 0.14998 0.71933 0.0
H2123 H 0.2779 0.15071 0.70687 0.0
C2124 C 0.22208 0.15789 0.80538 0.0
C2125 C 0.2152 0.16789 0.78134 0.0
C2126 C 0.23472 0.15792 0.79844 0.0
C2127 C 0.24075 0.16799 0.76803 0.0
C2128 C 0.23385 0.17791 0.74317 0.0
C2129 C 0.22123 0.17784 0.74947 0.0
C2130 C 0.27329 0.17911 0.77674 0.0
C2131 C 0.2797 0.1691 0.74859 0.0
C2132 C 0.26067 0.1787 0.78344 0.0
C2133 C 0.25419 0.16825 0.76276 0.0
C2134 C 0.26062 0.15814 0.73613 0.0
C2135 C 0.27324 0.15858 0.72877 0.0
H2136 H 0.5963 0.46563 0.59064 0.0
H2137 H 0.56318 0.46195 0.46353 0.0
H2138 H 0.59777 0.48687 0.55251 0.0
H2139 H 0.56451 0.4831 0.42703 0.0
H2140 H 0.5773 0.51641 0.30558 0.0
H2141 H 0.57696 0.49549 0.34701 0.0
H2142 H 0.58785 0.5068 0.56777 0.0
H2143 H 0.58842 0.52791 0.52566 0.0
C2144 C 0.58932 0.46935 0.55483 0.0
C2145 C 0.57967 0.46206 0.52973 0.0
C2146 C 0.59012 0.48154 0.5334 0.0
C2147 C 0.5813 0.48666 0.4863 0.0
C2148 C 0.57158 0.47939 0.4622 0.0
C2149 C 0.57078 0.46726 0.48351 0.0
C2150 C 0.57965 0.51449 0.36299 0.0
C2151 C 0.5828 0.52386 0.41245 0.0
C2152 C 0.57939 0.50246 0.38686 0.0
C2153 C 0.58223 0.49947 0.46094 0.0
C2154 C 0.58567 0.5088 0.51021 0.0
C2155 C 0.58595 0.52089 0.48619 0.0
H2156 H 0.27234 0.81265 0.40614 0.0
H2157 H 0.27705 0.84708 0.29597 0.0
H2158 H 0.25128 0.81212 0.36764 0.0
H2159 H 0.2556 0.847 0.26064 0.0
H2160 H 0.21853 0.83806 0.15685 0.0
H2161 H 0.24013 0.83867 0.18686 0.0
H2162 H 0.2328 0.82064 0.39605 0.0
H2163 H 0.21145 0.81944 0.36366 0.0
C2164 C 0.2688 0.82018 0.37407 0.0
C2165 C 0.27629 0.82996 0.35453 0.0
C2166 C 0.25666 0.81995 0.35246 0.0
C2167 C 0.25156 0.82963 0.31216 0.0
C2168 C 0.25917 0.83932 0.29112 0.0
C2169 C 0.27146 0.83942 0.31154 0.0
C2170 C 0.2216 0.83424 0.2092 0.0
C2171 C 0.21335 0.8286 0.25763 0.0
C2172 C 0.23398 0.83464 0.22669 0.0
C2173 C 0.23834 0.82959 0.29366 0.0
C2174 C 0.22993 0.8243 0.34292 0.0
C2175 C 0.21763 0.82368 0.32472 0.0
H2176 H 0.55959 0.96247 0.56778 0.0
H2177 H 0.5932 0.96534 0.44559 0.0
H2178 H 0.56133 0.98363 0.60455 0.0
H2179 H 0.59505 0.98652 0.4839 0.0
H2180 H 0.58744 0.02773 0.51185 0.0
H2181 H 0.58599 0.00672 0.4683 0.0
H2182 H 0.5738 0.99567 0.68657 0.0
H2183 H 0.57501 0.0165 0.72939 0.0
C2184 C 0.56738 0.9676 0.54888 0.0
C2185 C 0.57629 0.96217 0.50407 0.0
C2186 C 0.5684 0.97973 0.57031 0.0
C2187 C 0.57839 0.98676 0.54772 0.0
C2188 C 0.58721 0.9814 0.50181 0.0
C2189 C 0.58617 0.96924 0.48026 0.0
C2190 C 0.58449 0.02079 0.55047 0.0
C2191 C 0.58126 0.02381 0.62394 0.0
C2192 C 0.5837 0.00875 0.52562 0.0
C2193 C 0.57966 -0.00048 0.57375 0.0
C2194 C 0.57669 0.00257 0.64752 0.0
C2195 C 0.57746 0.01454 0.67222 0.0
H2196 H 0.21502 0.32297 0.79422 0.0
H2197 H 0.22238 0.36098 0.83223 0.0
H2198 H 0.23644 0.31953 0.7684 0.0
H2199 H 0.24381 0.35748 0.80744 0.0
H2200 H 0.27922 0.34877 0.68606 0.0
H2201 H 0.25767 0.35217 0.70631 0.0
H2202 H 0.25575 0.31938 0.83719 0.0
H2203 H 0.27731 0.31585 0.8161 0.0
C2204 C 0.22119 0.33061 0.79671 0.0
C2205 C 0.21697 0.34225 0.81536 0.0
C2206 C 0.23348 0.32861 0.78249 0.0
C2207 C 0.24185 0.33821 0.78626 0.0
C2208 C 0.23759 0.3499 0.80341 0.0
C2209 C 0.2253 0.3519 0.8179 0.0
C2210 C 0.27423 0.34227 0.71923 0.0
C2211 C 0.28001 0.33203 0.74949 0.0
C2212 C 0.26187 0.34426 0.73108 0.0
C2213 C 0.25498 0.33604 0.77329 0.0
C2214 C 0.26076 0.3258 0.80359 0.0
C2215 C 0.27315 0.32382 0.79193 0.0
H2216 H 0.93483 0.96447 0.96513 0.0
H2217 H 0.90131 0.96665 0.08866 0.0
H2218 H 0.93268 0.9856 0.92905 0.0
H2219 H 0.89904 0.98783 0.05111 0.0
H2220 H 0.90621 0.02928 0.02318 0.0
H2221 H 0.90789 0.00828 0.06658 0.0
H2222 H 0.91975 0.99728 0.84743 0.0
H2223 H 0.91829 0.01808 0.80474 0.0
C2224 C 0.92698 0.96944 0.9845 0.0
C2225 C 0.91821 0.96382 0.02941 0.0
C2226 C 0.92571 0.98156 0.96347 0.0
C2227 C 0.91563 0.98839 0.98662 0.0
C2228 C 0.90696 0.98285 0.03274 0.0
C2229 C 0.90822 0.97069 0.05384 0.0
C2230 C 0.90912 0.02235 0.98434 0.0
C2231 C 0.91221 0.02538 0.91069 0.0
C2232 C 0.91005 0.01032 1.00911 0.0
C2233 C 0.9141 0.00112 0.96069 0.0
C2234 C 0.91687 0.00417 0.88669 0.0
C2235 C 0.91596 0.01612 0.86209 0.0
H2236 H 0.27618 0.65743 0.38369 0.0
H2237 H 0.28369 0.67567 0.17623 0.0
H2238 H 0.25464 0.65678 0.35208 0.0
H2239 H 0.26242 0.67443 0.14226 0.0
H2240 H 0.22294 0.68239 0.12769 0.0
H2241 H 0.24391 0.68298 0.16812 0.0
H2242 H 0.23925 0.64839 0.27806 0.0
H2243 H 0.21789 0.64827 0.2408 0.0
C2244 C 0.27323 0.66116 0.33087 0.0
C2245 C 0.28158 0.66671 0.2827 0.0
C2246 C 0.26088 0.66074 0.31246 0.0
C2247 C 0.25665 0.66567 0.24482 0.0
C2248 C 0.26517 0.67087 0.19587 0.0
C2249 C 0.27743 0.67151 0.21498 0.0
C2250 C 0.22639 0.67493 0.16079 0.0
C2251 C 0.21883 0.66523 0.18058 0.0
C2252 C 0.23848 0.6752 0.18353 0.0
C2253 C 0.24347 0.66561 0.22522 0.0
C2254 C 0.23578 0.65599 0.2465 0.0
C2255 C 0.22354 0.65587 0.22496 0.0
H2256 H 0.40734 0.02733 0.62809 0.0
H2257 H 0.42631 0.03428 0.4224 0.0
H2258 H 0.40629 0.00579 0.5971 0.0
H2259 H 0.42468 0.01301 0.38904 0.0
H2260 H 0.39708 0.96923 0.48534 0.0
H2261 H 0.39767 0.99061 0.5223 0.0
H2262 H 0.4327 0.99429 0.41657 0.0
H2263 H 0.43167 0.97333 0.37644 0.0
C2264 C 0.41116 0.02426 0.5758 0.0
C2265 C 0.41701 0.03245 0.52794 0.0
C2266 C 0.4105 0.01191 0.55774 0.0
C2267 C 0.41551 0.00752 0.49077 0.0
C2268 C 0.42104 0.01589 0.44216 0.0
C2269 C 0.42191 0.02814 0.46092 0.0
C2270 C 0.40488 0.97467 0.47038 0.0
C2271 C 0.41424 0.9697 0.42721 0.0
C2272 C 0.40527 0.98691 0.49175 0.0
C2273 C 0.41515 0.99433 0.47151 0.0
C2274 C 0.42473 0.98908 0.43112 0.0
C2275 C 0.42421 0.97699 0.40856 0.0
H2276 H 0.71714 0.65807 0.39629 0.0
H2277 H 0.71352 0.67573 0.18265 0.0
H2278 H 0.73922 0.65808 0.38241 0.0
H2279 H 0.73563 0.67543 0.16814 0.0
H2280 H 0.77469 0.65793 0.14786 0.0
H2281 H 0.75261 0.65735 0.16143 0.0
H2282 H 0.75554 0.67666 0.36989 0.0
H2283 H 0.77762 0.67754 0.35558 0.0
C2284 C 0.72106 0.66183 0.34605 0.0
C2285 C 0.71363 0.6669 0.29048 0.0
C2286 C 0.73367 0.66189 0.3384 0.0
C2287 C 0.73907 0.66676 0.27429 0.0
C2288 C 0.73165 0.67159 0.21796 0.0
C2289 C 0.71904 0.6718 0.22639 0.0
C2290 C 0.77063 0.66199 0.19677 0.0
C2291 C 0.77786 0.66777 0.25078 0.0
C2292 C 0.75801 0.66172 0.20422 0.0
C2293 C 0.75243 0.66696 0.26665 0.0
C2294 C 0.75966 0.67252 0.32141 0.0
C2295 C 0.77226 0.67305 0.31309 0.0
H2296 H 0.06386 0.97436 0.17099 0.0
H2297 H 0.09717 0.96971 0.04862 0.0
H2298 H 0.06243 0.99514 0.12814 0.0
H2299 H 0.09625 0.99092 1.00908 0.0
H2300 H 0.0857 0.02688 0.89965 0.0
H2301 H 0.08701 0.00555 0.93502 0.0
H2302 H 0.07038 0.01408 0.14694 0.0
H2303 H 0.0684 0.03511 0.10908 0.0
C2304 C 0.07098 0.97788 0.13551 0.0
C2305 C 0.08068 0.97048 0.11358 0.0
C2306 C 0.07023 0.98986 0.11131 0.0
C2307 C 0.07933 0.9949 0.066 0.0
C2308 C 0.08899 0.98739 0.04323 0.0
C2309 C 0.08958 0.97525 0.06616 0.0
C2310 C 0.08231 0.02412 0.95367 0.0
C2311 C 0.07685 0.0326 1.00138 0.0
C2312 C 0.08313 0.0119 0.97429 0.0
C2313 C 0.07872 0.00795 0.04379 0.0
C2314 C 0.07355 0.0166 0.09207 0.0
C2315 C 0.07249 0.02873 0.07071 0.0
H2316 H 0.725 0.31194 0.62591 0.0
H2317 H 0.71945 0.34567 0.74287 0.0
H2318 H 0.74599 0.3116 0.66602 0.0
H2319 H 0.74082 0.34585 0.77959 0.0
H2320 H 0.78569 0.31927 0.67721 0.0
H2321 H 0.76444 0.32032 0.64229 0.0
H2322 H 0.75625 0.33766 0.85272 0.0
H2323 H 0.77777 0.33727 0.88504 0.0
C2324 C 0.72835 0.31938 0.65972 0.0
C2325 C 0.72064 0.32888 0.68086 0.0
C2326 C 0.74046 0.31926 0.68228 0.0
C2327 C 0.7453 0.32882 0.72505 0.0
C2328 C 0.73747 0.33826 0.74731 0.0
C2329 C 0.72522 0.33822 0.72605 0.0
C2330 C 0.77933 0.32333 0.71583 0.0
C2331 C 0.78334 0.32813 0.78391 0.0
C2332 C 0.76709 0.32386 0.69619 0.0
C2333 C 0.75846 0.3289 0.74506 0.0
C2334 C 0.76256 0.33383 0.8131 0.0
C2335 C 0.77489 0.33355 0.83194 0.0
H2336 H 0.02916 0.58776 0.1796 0.0
H2337 H 0.02758 0.54873 0.19562 0.0
H2338 H 0.00706 0.58872 0.18763 0.0
H2339 H 0.00549 0.54967 0.20236 0.0
H2340 H 0.96634 0.55694 0.27593 0.0
H2341 H 0.98846 0.5567 0.2826 0.0
H2342 H 0.99014 0.58277 0.10363 0.0
H2343 H 0.96814 0.58285 0.09561 0.0
C2344 C 0.0241 0.5794 0.1858 0.0
C2345 C 0.03011 0.56817 0.18674 0.0
C2346 C 0.01145 0.57994 0.18969 0.0
C2347 C 0.00452 0.56927 0.19528 0.0
C2348 C 0.01056 0.55806 0.19865 0.0
C2349 C 0.0232 0.55752 0.19412 0.0
C2350 C 0.97141 0.56257 0.23767 0.0
C2351 C 0.9654 0.56991 0.18522 0.0
C2352 C 0.98409 0.56246 0.24172 0.0
C2353 C 0.99105 0.56975 0.19382 0.0
C2354 C 0.98505 0.57721 0.14221 0.0
C2355 C 0.9724 0.57726 0.13776 0.0
H2356 H 0.66474 0.71725 0.3454 0.0
H2357 H 0.68929 0.71529 0.53288 0.0
H2358 H 0.6648 0.73926 0.35371 0.0
H2359 H 0.68937 0.73741 0.5411 0.0
H2360 H 0.69757 0.77686 0.46589 0.0
H2361 H 0.69678 0.75477 0.47017 0.0
H2362 H 0.65812 0.75596 0.43172 0.0
H2363 H 0.65898 0.77801 0.42461 0.0
C2364 C 0.67002 0.72151 0.38915 0.0
C2365 C 0.67699 0.71448 0.43859 0.0
C2366 C 0.67004 0.73414 0.39393 0.0
C2367 C 0.67705 0.74011 0.44825 0.0
C2368 C 0.68398 0.7331 0.49808 0.0
C2369 C 0.68395 0.72043 0.49331 0.0
C2370 C 0.6889 0.7724 0.45835 0.0
C2371 C 0.67835 0.77921 0.44439 0.0
C2372 C 0.68842 0.75974 0.46161 0.0
C2373 C 0.67739 0.75359 0.45089 0.0
C2374 C 0.66679 0.76041 0.43923 0.0
C2375 C 0.66726 0.77307 0.43605 0.0
H2376 H 0.46885 0.44874 0.65974 0.0
H2377 H 0.46874 0.41048 0.71234 0.0
H2378 H 0.4907 0.44915 0.67348 0.0
H2379 H 0.49064 0.41062 0.71826 0.0
H2380 H 0.53015 0.41493 0.77493 0.0
H2381 H 0.50806 0.41585 0.78109 0.0
H2382 H 0.50812 0.4438 0.61182 0.0
H2383 H 0.53016 0.44331 0.60989 0.0
C2384 C 0.47343 0.4404 0.67449 0.0
C2385 C 0.46689 0.42955 0.68429 0.0
C2386 C 0.48607 0.44059 0.68098 0.0
C2387 C 0.4926 0.42989 0.69596 0.0
C2388 C 0.48604 0.4191 0.7074 0.0
C2389 C 0.47339 0.41897 0.70248 0.0
C2390 C 0.52537 0.42133 0.73972 0.0
C2391 C 0.53181 0.42908 0.69214 0.0
C2392 C 0.5127 0.42181 0.74268 0.0
C2393 C 0.50616 0.42987 0.69673 0.0
C2394 C 0.51273 0.43766 0.64939 0.0
C2395 C 0.52539 0.43734 0.64774 0.0
H2396 H 0.79805 0.27843 0.91321 0.0
H2397 H 0.83586 0.27793 0.97803 0.0
H2398 H 0.79747 0.25636 0.92093 0.0
H2399 H 0.83532 0.25585 0.9813 0.0
H2400 H 0.83101 0.21784 0.86324 0.0
H2401 H 0.83142 0.2398 0.87269 0.0
H2402 H 0.80106 0.23885 0.02342 0.0
H2403 H 0.80099 0.21671 1.01813 0.0
C2404 C 0.8062 0.2737 0.93002 0.0
C2405 C 0.81703 0.28009 0.94445 0.0
C2406 C 0.80585 0.26103 0.93403 0.0
C2407 C 0.81636 0.25443 0.95126 0.0
C2408 C 0.82712 0.26074 0.96708 0.0
C2409 C 0.82742 0.27341 0.96453 0.0
C2410 C 0.82458 0.22218 0.90006 0.0
C2411 C 0.81602 0.21533 0.94036 0.0
C2412 C 0.82479 0.23482 0.90491 0.0
C2413 C 0.8163 0.24099 0.94887 0.0
C2414 C 0.80767 0.23428 0.98878 0.0
C2415 C 0.8076 0.22158 0.98521 0.0
H2416 H 0.96694 0.41131 0.8587 0.0
H2417 H 0.96749 0.4501 0.82692 0.0
H2418 H 0.98904 0.41085 0.85217 0.0
H2419 H 0.98954 0.44966 0.81931 0.0
H2420 H 0.02808 0.4462 0.91283 0.0
H2421 H 0.00609 0.44661 0.90411 0.0
H2422 H 0.00673 0.41361 0.77418 0.0
H2423 H 0.02882 0.41317 0.78337 0.0
C2424 C 0.97177 0.4197 0.84887 0.0
C2425 C 0.96548 0.43075 0.8439 0.0
C2426 C 0.98445 0.41945 0.84508 0.0
C2427 C 0.9911 0.43024 0.83592 0.0
C2428 C 0.98474 0.44122 0.82804 0.0
C2429 C 0.9721 0.44147 0.83218 0.0
C2430 C 0.02356 0.43913 0.88138 0.0
C2431 C 0.03024 0.42966 0.84875 0.0
C2432 C 0.01093 0.43936 0.87632 0.0
C2433 C 0.00461 0.43016 0.83828 0.0
C2434 C 0.01128 0.42076 0.80475 0.0
C2435 C 0.02395 0.42051 0.80997 0.0
H2436 H 0.8258 0.77903 0.99966 0.0
H2437 H 0.79945 0.77888 0.17681 0.0
H2438 H 0.82488 0.75694 0.9933 0.0
H2439 H 0.79896 0.75684 0.17413 0.0
H2440 H 0.79358 0.71757 0.12683 0.0
H2441 H 0.79294 0.73942 0.11351 0.0
H2442 H 0.83093 0.73956 0.05451 0.0
H2443 H 0.83125 0.71765 0.06046 0.0
C2444 C 0.81984 0.77423 0.0374 0.0
C2445 C 0.81267 0.78063 0.08854 0.0
C2446 C 0.81936 0.76155 0.03428 0.0
C2447 C 0.81187 0.75497 0.0834 0.0
C2448 C 0.80464 0.76149 0.13417 0.0
C2449 C 0.80495 0.77415 0.13616 0.0
C2450 C 0.80173 0.72219 0.1091 0.0
C2451 C 0.81249 0.71571 0.09535 0.0
C2452 C 0.80143 0.73483 0.10279 0.0
C2453 C 0.81192 0.74141 0.08393 0.0
C2454 C 0.8226 0.7349 0.06848 0.0
C2455 C 0.82285 0.72226 0.07336 0.0
H2456 H 0.46617 0.55394 0.26095 0.0
H2457 H 0.46883 0.5796 0.44247 0.0
H2458 H 0.48825 0.5537 0.25081 0.0
H2459 H 0.49079 0.57945 0.43161 0.0
H2460 H 0.52946 0.58441 0.35465 0.0
H2461 H 0.50737 0.58547 0.34844 0.0
H2462 H 0.50565 0.54652 0.32524 0.0
H2463 H 0.52774 0.5455 0.3294 0.0
C2464 C 0.47144 0.55951 0.29874 0.0
C2465 C 0.46569 0.5668 0.35251 0.0
C2466 C 0.48409 0.55939 0.29279 0.0
C2467 C 0.49128 0.56658 0.34024 0.0
C2468 C 0.48553 0.57397 0.39326 0.0
C2469 C 0.47291 0.57406 0.39943 0.0
C2470 C 0.52438 0.5761 0.34679 0.0
C2471 C 0.53035 0.56487 0.34278 0.0
C2472 C 0.51172 0.57669 0.34404 0.0
C2473 C 0.50475 0.56607 0.33686 0.0
C2474 C 0.51074 0.55488 0.33027 0.0
C2475 C 0.52339 0.55428 0.33338 0.0
H2476 H 0.69007 0.21446 0.51364 0.0
H2477 H 0.66498 0.21633 0.69812 0.0
H2478 H 0.69039 0.23659 0.50752 0.0
H2479 H 0.66511 0.23832 0.69053 0.0
H2480 H 0.65981 0.27728 0.61548 0.0
H2481 H 0.65881 0.25518 0.60675 0.0
H2482 H 0.6978 0.25362 0.588 0.0
H2483 H 0.69879 0.27572 0.59556 0.0
C2484 C 0.68463 0.21954 0.5529 0.0
C2485 C 0.67749 0.21354 0.60633 0.0
C2486 C 0.68479 0.23222 0.54916 0.0
C2487 C 0.67773 0.23919 0.59832 0.0
C2488 C 0.67048 0.23321 0.65098 0.0
C2489 C 0.6704 0.22057 0.65516 0.0
C2490 C 0.66814 0.27223 0.60825 0.0
C2491 C 0.67938 0.27823 0.60645 0.0
C2492 C 0.66758 0.25958 0.60394 0.0
C2493 C 0.67823 0.25266 0.59705 0.0
C2494 C 0.68943 0.25869 0.59275 0.0
C2495 C 0.69 0.27133 0.59773 0.0
H2496 H 0.32684 0.28 0.50407 0.0
H2497 H 0.29955 0.27929 0.67569 0.0
H2498 H 0.32625 0.25791 0.49656 0.0
H2499 H 0.29937 0.25723 0.67188 0.0
H2500 H 0.29495 0.21787 0.62162 0.0
H2501 H 0.29401 0.23973 0.60956 0.0
H2502 H 0.3323 0.24061 0.55864 0.0
H2503 H 0.33297 0.21869 0.56344 0.0
C2504 C 0.32074 0.27507 0.54033 0.0
C2505 C 0.31323 0.28132 0.59033 0.0
C2506 C 0.32045 0.26239 0.53657 0.0
C2507 C 0.31282 0.25565 0.58392 0.0
C2508 C 0.3052 0.26201 0.63334 0.0
C2509 C 0.30533 0.27468 0.63597 0.0
C2510 C 0.30312 0.22265 0.60593 0.0
C2511 C 0.31406 0.21638 0.59401 0.0
C2512 C 0.30263 0.2353 0.60035 0.0
C2513 C 0.3131 0.24209 0.58402 0.0
C2514 C 0.32398 0.23579 0.57056 0.0
C2515 C 0.32442 0.22313 0.57475 0.0
H2516 H 0.198 0.71719 0.09491 0.0
H2517 H 0.15901 0.71725 0.11457 0.0
H2518 H 0.19796 0.73921 0.0845 0.0
H2519 H 0.15893 0.73936 0.10631 0.0
H2520 H 0.16204 0.77884 0.03394 0.0
H2521 H 0.16216 0.75671 0.02935 0.0
H2522 H 0.19493 0.7563 0.16188 0.0
H2523 H 0.19491 0.77834 0.1649 0.0
C2524 C 0.18941 0.72195 0.09713 0.0
C2525 C 0.17852 0.71551 0.10593 0.0
C2526 C 0.18938 0.73458 0.09151 0.0
C2527 C 0.17845 0.74113 0.09537 0.0
C2528 C 0.16751 0.73464 0.10222 0.0
C2529 C 0.16754 0.72197 0.10712 0.0
C2530 C 0.16927 0.774 0.06193 0.0
C2531 C 0.17848 0.78035 0.09961 0.0
C2532 C 0.16932 0.7613 0.05952 0.0
C2533 C 0.17855 0.75466 0.09519 0.0
C2534 C 0.1878 0.76107 0.13242 0.0
C2535 C 0.18779 0.77373 0.13432 0.0
H2536 H 0.18033 0.27586 0.78727 0.0
H2537 H 0.17899 0.27926 0.02732 0.0
H2538 H 0.18105 0.2539 0.79929 0.0
H2539 H 0.17917 0.25719 0.03855 0.0
H2540 H 0.16514 0.2169 1.00307 0.0
H2541 H 0.16517 0.23912 0.99976 0.0
H2542 H 0.19624 0.23846 0.85394 0.0
H2543 H 0.19624 0.21631 0.85736 0.0
C2544 C 0.18027 0.27198 0.84265 0.0
C2545 C 0.1797 0.27942 0.90633 0.0
C2546 C 0.18063 0.25937 0.84939 0.0
C2547 C 0.18023 0.25387 0.91984 0.0
C2548 C 0.17942 0.26122 0.98354 0.0
C2549 C 0.17925 0.27386 0.97693 0.0
C2550 C 0.17202 0.22153 0.97083 0.0
C2551 C 0.18069 0.2149 0.93047 0.0
C2552 C 0.17207 0.23422 0.96925 0.0
C2553 C 0.18067 0.24048 0.92624 0.0
C2554 C 0.18946 0.23385 0.88704 0.0
C2555 C 0.18952 0.22119 0.88955 0.0
H2556 H 0.30056 0.71696 0.37093 0.0
H2557 H 0.33248 0.71686 0.51076 0.0
H2558 H 0.30097 0.73906 0.36815 0.0
H2559 H 0.33298 0.73906 0.507 0.0
H2560 H 0.32086 0.7797 0.53616 0.0
H2561 H 0.32086 0.75757 0.54767 0.0
H2562 H 0.31492 0.75429 0.31069 0.0
H2563 H 0.3152 0.77624 0.29867 0.0
C2564 C 0.30758 0.72166 0.40186 0.0
C2565 C 0.3165 0.71515 0.44095 0.0
C2566 C 0.30789 0.73432 0.3996 0.0
C2567 C 0.31707 0.74079 0.43681 0.0
C2568 C 0.32578 0.73432 0.47795 0.0
C2569 C 0.32554 0.72162 0.47963 0.0
C2570 C 0.31972 0.77425 0.4864 0.0
C2571 C 0.31785 0.77979 0.41666 0.0
C2572 C 0.31968 0.76158 0.49307 0.0
C2573 C 0.31771 0.75421 0.43024 0.0
C2574 C 0.31618 0.75974 0.3604 0.0
C2575 C 0.31631 0.77234 0.35362 0.0
H2576 H 0.52945 0.08506 0.68732 0.0
H2577 H 0.52747 0.04604 0.70387 0.0
H2578 H 0.5074 0.08625 0.69577 0.0
H2579 H 0.50542 0.0472 0.70998 0.0
H2580 H 0.46631 0.05427 0.78047 0.0
H2581 H 0.48842 0.05385 0.7874 0.0
H2582 H 0.49031 0.08108 0.615 0.0
H2583 H 0.4683 0.08145 0.60761 0.0
C2584 C 0.52432 0.07674 0.69363 0.0
C2585 C 0.53022 0.06545 0.69468 0.0
C2586 C 0.51167 0.07742 0.69763 0.0
C2587 C 0.50463 0.06682 0.7031 0.0
C2588 C 0.51056 0.05555 0.70641 0.0
C2589 C 0.5232 0.05487 0.70213 0.0
C2590 C 0.47144 0.06013 0.74385 0.0
C2591 C 0.46549 0.06789 0.69345 0.0
C2592 C 0.48412 0.05991 0.74793 0.0
C2593 C 0.49114 0.06745 0.70184 0.0
C2594 C 0.48519 0.07531 0.65226 0.0
C2595 C 0.47254 0.07552 0.64805 0.0
H2596 H 0.02842 0.94898 0.19999 0.0
H2597 H 0.02976 0.90993 0.18353 0.0
H2598 H 0.00634 0.94813 0.20859 0.0
H2599 H 0.0077 0.90906 0.19382 0.0
H2600 H 0.96885 0.91488 0.10323 0.0
H2601 H 0.99084 0.91497 0.11062 0.0
H2602 H 0.9893 0.94127 0.28876 0.0
H2603 H 0.96716 0.94104 0.28245 0.0
C2604 C 0.02399 0.94021 0.19886 0.0
C2605 C 0.03082 0.92953 0.19062 0.0
C2606 C 0.01137 0.93971 0.20451 0.0
C2607 C 0.00528 0.92853 0.20156 0.0
C2608 C 0.01213 0.91782 0.1955 0.0
C2609 C 0.02477 0.91831 0.19033 0.0
C2610 C 0.97314 0.92052 0.14505 0.0
C2611 C 0.96618 0.92792 0.19246 0.0
C2612 C 0.98578 0.92058 0.14918 0.0
C2613 C 0.99181 0.92809 0.20045 0.0
C2614 C 0.9849 0.93546 0.24821 0.0
C2615 C 0.97222 0.93535 0.2444 0.0
H2616 H 0.52699 0.91326 0.44208 0.0
H2617 H 0.52694 0.93805 0.25579 0.0
H2618 H 0.50496 0.91328 0.44254 0.0
H2619 H 0.50476 0.93838 0.25793 0.0
H2620 H 0.46444 0.9267 0.2447 0.0
H2621 H 0.48657 0.92542 0.23587 0.0
H2622 H 0.48923 0.92781 0.47563 0.0
H2623 H 0.46725 0.92875 0.48448 0.0
C2624 C 0.52228 0.91864 0.40069 0.0
C2625 C 0.52876 0.92564 0.34881 0.0
C2626 C 0.50963 0.91876 0.40156 0.0
C2627 C 0.5031 0.92589 0.35062 0.0
C2628 C 0.50953 0.93272 0.29762 0.0
C2629 C 0.52224 0.93264 0.2969 0.0
C2630 C 0.46977 0.92684 0.29543 0.0
C2631 C 0.4641 0.92788 0.36524 0.0
C2632 C 0.48243 0.92622 0.29035 0.0
C2633 C 0.48965 0.92651 0.35504 0.0
C2634 C 0.48394 0.92744 0.42475 0.0
C2635 C 0.47134 0.92812 0.42978 0.0
H2636 H 0.02675 0.08324 0.76975 0.0
H2637 H 0.02674 0.05076 0.90416 0.0
H2638 H 0.00454 0.08335 0.77099 0.0
H2639 H 0.00467 0.05075 0.90399 0.0
H2640 H 0.96699 0.06353 0.97045 0.0
H2641 H 0.98897 0.0638 0.96149 0.0
H2642 H 0.98637 0.07139 0.72603 0.0
H2643 H 0.96421 0.07091 0.73456 0.0
C2644 C 0.02202 0.0761 0.79919 0.0
C2645 C 0.02852 0.06701 0.83703 0.0
C2646 C 0.00931 0.07612 0.79937 0.0
C2647 C 0.00286 0.06711 0.83805 0.0
C2648 C 0.00937 0.0579 0.87447 0.0
C2649 C 0.02203 0.05783 0.87384 0.0
C2650 C 0.97106 0.06512 0.91645 0.0
C2651 C 0.9638 0.06699 0.85293 0.0
C2652 C 0.98368 0.0653 0.91142 0.0
C2653 C 0.98941 0.06745 0.84288 0.0
C2654 C 0.9822 0.06973 0.77967 0.0
C2655 C 0.96952 0.06948 0.78461 0.0
loop_
_geom_bond_atom_site_label_1
_geom_bond_atom_site_label_2
_geom_bond_distance
_geom_bond_site_symmetry_2
_ccdc_geom_bond_type
Co0 N4 2.148 . S
Co0 N10 2.128 1_554 S
Co0 N20 2.194 . S
Co0 O25 2.351 . S
Co0 O26 2.155 . S
Co0 O27 2.096 . S
C1 N4 1.301 . S
C1 N5 1.328 . S
C1 H6 0.930 . S
C2 C3 1.333 . S
C2 N4 1.317 . S
C2 H7 0.930 . S
C3 C2 1.333 . S
C3 N5 1.350 . S
C3 H29 0.931 . S
N4 Co0 2.148 . S
N4 C1 1.301 . S
N4 C2 1.317 . S
N5 C1 1.328 . S
N5 C3 1.350 . S
H6 C1 0.930 . S
H7 C2 0.930 . S
C8 O9 1.224 . S
C8 O27 1.247 . S
O9 C8 1.224 . S
N10 Co0 2.128 1_556 S
N10 C11 1.355 . S
N10 C13 1.311 . S
C11 N10 1.355 . S
C11 C12 1.363 . S
C11 H23 0.929 . S
C12 C11 1.363 . S
C12 N14 1.375 . S
C12 H30 0.931 . S
C13 N10 1.311 . S
C13 N14 1.347 . S
C13 H24 0.929 . S
N14 C12 1.375 . S
N14 C13 1.347 . S
C15 C18 1.365 . S
C15 N20 1.328 . S
C15 H21 0.929 . S
C16 C17 1.362 . S
C16 C19 1.378 . S
C16 H31 0.929 . S
C17 C16 1.362 . S
C17 C18 1.366 . S
C18 C15 1.365 . S
C18 C17 1.366 . S
C18 H32 0.930 . S
C19 C16 1.378 . S
C19 N20 1.315 . S
C19 H22 0.930 . S
N20 Co0 2.194 . S
N20 C15 1.328 . S
N20 C19 1.315 . S
H21 C15 0.929 . S
H22 C19 0.930 . S
H23 C11 0.929 . S
H24 C13 0.929 . S
O25 Co0 2.351 . S
O25 C28 1.244 . S
O26 Co0 2.155 . S
O26 C28 1.240 . S
O27 Co0 2.096 . S
O27 C8 1.247 . S
C28 O25 1.244 . S
C28 O26 1.240 . S
H29 C3 0.931 . S
H30 C12 0.931 . S
H31 C16 0.929 . S
H32 C18 0.930 . S
Co33 N37 2.148 . S
Co33 N43 2.128 . S
Co33 N53 2.194 . S
Co33 O58 2.351 . S
Co33 O59 2.155 . S
Co33 O60 2.096 . S
C34 N37 1.301 . S
C34 N38 1.328 . S
C34 H39 0.930 . S
C35 C36 1.333 . S
C35 N37 1.317 . S
C35 H40 0.930 . S
C36 C35 1.333 . S
C36 N38 1.350 . S
C36 H62 0.931 . S
N37 Co33 2.148 . S
N37 C34 1.301 . S
N37 C35 1.317 . S
N38 C34 1.328 . S
N38 C36 1.350 . S
H39 C34 0.930 . S
H40 C35 0.930 . S
C41 O42 1.224 . S
C41 O60 1.247 . S
O42 C41 1.224 . S
N43 Co33 2.128 . S
N43 C44 1.355 . S
N43 C46 1.311 . S
C44 N43 1.355 . S
C44 C45 1.363 . S
C44 H56 0.929 . S
C45 C44 1.363 . S
C45 N47 1.375 . S
C45 H63 0.931 . S
C46 N43 1.311 . S
C46 N47 1.347 . S
C46 H57 0.929 . S
N47 C45 1.375 . S
N47 C46 1.347 . S
C48 C51 1.365 . S
C48 N53 1.328 . S
C48 H54 0.929 . S
C49 C50 1.362 . S
C49 C52 1.378 . S
C49 H64 0.929 . S
C50 C49 1.362 . S
C50 C51 1.366 . S
C51 C48 1.365 . S
C51 C50 1.366 . S
C51 H65 0.930 . S
C52 C49 1.378 . S
C52 N53 1.315 . S
C52 H55 0.930 . S
N53 Co33 2.194 . S
N53 C48 1.328 . S
N53 C52 1.315 . S
H54 C48 0.929 . S
H55 C52 0.930 . S
H56 C44 0.929 . S
H57 C46 0.929 . S
O58 Co33 2.351 . S
O58 C61 1.244 . S
O59 Co33 2.155 . S
O59 C61 1.240 . S
O60 Co33 2.096 . S
O60 C41 1.247 . S
C61 O58 1.244 . S
C61 O59 1.240 . S
H62 C36 0.931 . S
H63 C45 0.931 . S
H64 C49 0.929 . S
H65 C51 0.930 . S
Co66 N70 2.148 . S
Co66 N76 2.128 . S
Co66 N86 2.194 . S
Co66 O91 2.351 . S
Co66 O92 2.155 . S
Co66 O93 2.096 . S
C67 N70 1.301 . S
C67 N71 1.328 . S
C67 H72 0.930 . S
C68 C69 1.333 . S
C68 N70 1.317 . S
C68 H73 0.930 . S
C69 C68 1.333 . S
C69 N71 1.350 . S
C69 H95 0.931 . S
N70 Co66 2.148 . S
N70 C67 1.301 . S
N70 C68 1.317 . S
N71 C67 1.328 . S
N71 C69 1.350 . S
H72 C67 0.930 . S
H73 C68 0.930 . S
C74 O75 1.224 . S
C74 O93 1.247 . S
O75 C74 1.224 . S
N76 Co66 2.128 . S
N76 C77 1.355 . S
N76 C79 1.311 . S
C77 N76 1.355 . S
C77 C78 1.363 . S
C77 H89 0.929 . S
C78 C77 1.363 . S
C78 N80 1.375 . S
C78 H96 0.931 . S
C79 N76 1.311 . S
C79 N80 1.347 . S
C79 H90 0.929 . S
N80 C78 1.375 . S
N80 C79 1.347 . S
C81 C84 1.365 . S
C81 N86 1.328 . S
C81 H87 0.929 . S
C82 C83 1.362 . S
C82 C85 1.378 . S
C82 H97 0.929 . S
C83 C82 1.362 . S
C83 C84 1.366 . S
C84 C81 1.365 . S
C84 C83 1.366 . S
C84 H98 0.930 . S
C85 C82 1.378 . S
C85 N86 1.315 . S
C85 H88 0.930 . S
N86 Co66 2.194 . S
N86 C81 1.328 . S
N86 C85 1.315 . S
H87 C81 0.929 . S
H88 C85 0.930 . S
H89 C77 0.929 . S
H90 C79 0.929 . S
O91 Co66 2.351 . S
O91 C94 1.244 . S
O92 Co66 2.155 . S
O92 C94 1.240 . S
O93 Co66 2.096 . S
O93 C74 1.247 . S
C94 O91 1.244 . S
C94 O92 1.240 . S
H95 C69 0.931 . S
H96 C78 0.931 . S
H97 C82 0.929 . S
H98 C84 0.930 . S
Co99 N103 2.148 . S
Co99 N109 2.128 . S
Co99 N119 2.194 . S
Co99 O124 2.351 . S
Co99 O125 2.155 . S
Co99 O126 2.096 . S
C100 N103 1.301 . S
C100 N104 1.328 1_556 S
C100 H105 0.930 . S
C101 C102 1.333 1_556 S
C101 N103 1.317 . S
C101 H106 0.930 . S
C102 C101 1.333 1_554 S
C102 N104 1.350 . S
C102 H128 0.931 . S
N103 Co99 2.148 . S
N103 C100 1.301 . S
N103 C101 1.317 . S
N104 C100 1.328 1_554 S
N104 C102 1.350 . S
H105 C100 0.930 . S
H106 C101 0.930 . S
C107 O108 1.224 . S
C107 O126 1.247 . S
O108 C107 1.224 . S
N109 Co99 2.128 . S
N109 C110 1.355 . S
N109 C112 1.311 . S
C110 N109 1.355 . S
C110 C111 1.363 . S
C110 H122 0.929 . S
C111 C110 1.363 . S
C111 N113 1.375 . S
C111 H129 0.931 . S
C112 N109 1.311 . S
C112 N113 1.347 . S
C112 H123 0.929 . S
N113 C111 1.375 . S
N113 C112 1.347 . S
C114 C117 1.365 . S
C114 N119 1.328 . S
C114 H120 0.929 . S
C115 C116 1.362 . S
C115 C118 1.378 . S
C115 H130 0.929 . S
C116 C115 1.362 . S
C116 C117 1.366 . S
C117 C114 1.365 . S
C117 C116 1.366 . S
C117 H131 0.930 . S
C118 C115 1.378 . S
C118 N119 1.315 . S
C118 H121 0.930 . S
N119 Co99 2.194 . S
N119 C114 1.328 . S
N119 C118 1.315 . S
H120 C114 0.929 . S
H121 C118 0.930 . S
H122 C110 0.929 . S
H123 C112 0.929 . S
O124 Co99 2.351 . S
O124 C127 1.244 . S
O125 Co99 2.155 . S
O125 C127 1.240 . S
O126 Co99 2.096 . S
O126 C107 1.247 . S
C127 O124 1.244 . S
C127 O125 1.240 . S
H128 C102 0.931 . S
H129 C111 0.931 . S
H130 C115 0.929 . S
H131 C117 0.930 . S
Co132 N136 2.148 . S
Co132 N142 2.128 1_556 S
Co132 N152 2.194 . S
Co132 O157 2.351 . S
Co132 O158 2.155 . S
Co132 O159 2.096 . S
C133 N136 1.301 . S
C133 N137 1.328 . S
C133 H138 0.930 . S
C134 C135 1.333 . S
C134 N136 1.317 . S
C134 H139 0.930 . S
C135 C134 1.333 . S
C135 N137 1.350 . S
C135 H161 0.931 . S
N136 Co132 2.148 . S
N136 C133 1.301 . S
N136 C134 1.317 . S
N137 C133 1.328 . S
N137 C135 1.350 . S
H138 C133 0.930 . S
H139 C134 0.930 . S
C140 O141 1.224 . S
C140 O159 1.247 . S
O141 C140 1.224 . S
N142 Co132 2.128 1_554 S
N142 C143 1.355 . S
N142 C145 1.311 . S
C143 N142 1.355 . S
C143 C144 1.363 . S
C143 H155 0.929 . S
C144 C143 1.363 . S
C144 N146 1.375 . S
C144 H162 0.931 . S
C145 N142 1.311 . S
C145 N146 1.347 . S
C145 H156 0.929 . S
N146 C144 1.375 . S
N146 C145 1.347 . S
C147 C150 1.365 . S
C147 N152 1.328 . S
C147 H153 0.929 . S
C148 C149 1.362 . S
C148 C151 1.378 . S
C148 H163 0.929 . S
C149 C148 1.362 . S
C149 C150 1.366 . S
C150 C147 1.365 . S
C150 C149 1.366 . S
C150 H164 0.930 . S
C151 C148 1.378 . S
C151 N152 1.315 . S
C151 H154 0.930 . S
N152 Co132 2.194 . S
N152 C147 1.328 . S
N152 C151 1.315 . S
H153 C147 0.929 . S
H154 C151 0.930 . S
H155 C143 0.929 . S
H156 C145 0.929 . S
O157 Co132 2.351 . S
O157 C160 1.244 . S
O158 Co132 2.155 . S
O158 C160 1.240 . S
O159 Co132 2.096 . S
O159 C140 1.247 . S
C160 O157 1.244 . S
C160 O158 1.240 . S
H161 C135 0.931 . S
H162 C144 0.931 . S
H163 C148 0.929 . S
H164 C150 0.930 . S
Co165 N169 2.148 . S
Co165 N175 2.128 . S
Co165 N185 2.194 . S
Co165 O190 2.351 . S
Co165 O191 2.155 . S
Co165 O192 2.096 . S
C166 N169 1.301 . S
C166 N170 1.328 1_554 S
C166 H171 0.930 . S
C167 C168 1.333 1_554 S
C167 N169 1.317 . S
C167 H172 0.930 . S
C168 C167 1.333 1_556 S
C168 N170 1.350 . S
C168 H194 0.931 . S
N169 Co165 2.148 . S
N169 C166 1.301 . S
N169 C167 1.317 . S
N170 C166 1.328 1_556 S
N170 C168 1.350 . S
H171 C166 0.930 . S
H172 C167 0.930 . S
C173 O174 1.224 . S
C173 O192 1.247 . S
O174 C173 1.224 . S
N175 Co165 2.128 . S
N175 C176 1.355 . S
N175 C178 1.311 . S
C176 N175 1.355 . S
C176 C177 1.363 . S
C176 H188 0.929 . S
C177 C176 1.363 . S
C177 N179 1.375 . S
C177 H195 0.931 . S
C178 N175 1.311 . S
C178 N179 1.347 . S
C178 H189 0.929 . S
N179 C177 1.375 . S
N179 C178 1.347 . S
C180 C183 1.365 . S
C180 N185 1.328 . S
C180 H186 0.929 . S
C181 C182 1.362 . S
C181 C184 1.378 . S
C181 H196 0.929 . S
C182 C181 1.362 . S
C182 C183 1.366 . S
C183 C180 1.365 . S
C183 C182 1.366 . S
C183 H197 0.930 . S
C184 C181 1.378 . S
C184 N185 1.315 . S
C184 H187 0.930 . S
N185 Co165 2.194 . S
N185 C180 1.328 . S
N185 C184 1.315 . S
H186 C180 0.929 . S
H187 C184 0.930 . S
H188 C176 0.929 . S
H189 C178 0.929 . S
O190 Co165 2.351 . S
O190 C193 1.244 . S
O191 Co165 2.155 . S
O191 C193 1.240 . S
O192 Co165 2.096 . S
O192 C173 1.247 . S
C193 O190 1.244 . S
C193 O191 1.240 . S
H194 C168 0.931 . S
H195 C177 0.931 . S
H196 C181 0.929 . S
H197 C183 0.930 . S
Co198 N202 2.148 . S
Co198 N208 2.128 . S
Co198 N218 2.194 . S
Co198 O223 2.351 . S
Co198 O224 2.155 . S
Co198 O225 2.096 . S
C199 N202 1.301 . S
C199 N203 1.328 . S
C199 H204 0.930 . S
C200 C201 1.333 . S
C200 N202 1.317 . S
C200 H205 0.930 . S
C201 C200 1.333 . S
C201 N203 1.350 . S
C201 H227 0.931 . S
N202 Co198 2.148 . S
N202 C199 1.301 . S
N202 C200 1.317 . S
N203 C199 1.328 . S
N203 C201 1.350 . S
H204 C199 0.930 . S
H205 C200 0.930 . S
C206 O207 1.224 . S
C206 O225 1.247 . S
O207 C206 1.224 . S
N208 Co198 2.128 . S
N208 C209 1.355 . S
N208 C211 1.311 . S
C209 N208 1.355 . S
C209 C210 1.363 . S
C209 H221 0.929 . S
C210 C209 1.363 . S
C210 N212 1.375 . S
C210 H228 0.931 . S
C211 N208 1.311 . S
C211 N212 1.347 . S
C211 H222 0.929 . S
N212 C210 1.375 . S
N212 C211 1.347 . S
C213 C216 1.365 . S
C213 N218 1.328 . S
C213 H219 0.929 . S
C214 C215 1.362 . S
C214 C217 1.378 . S
C214 H229 0.929 . S
C215 C214 1.362 . S
C215 C216 1.366 . S
C216 C213 1.365 . S
C216 C215 1.366 . S
C216 H230 0.930 . S
C217 C214 1.378 . S
C217 N218 1.315 . S
C217 H220 0.930 . S
N218 Co198 2.194 . S
N218 C213 1.328 . S
N218 C217 1.315 . S
H219 C213 0.929 . S
H220 C217 0.930 . S
H221 C209 0.929 . S
H222 C211 0.929 . S
O223 Co198 2.351 . S
O223 C226 1.244 . S
O224 Co198 2.155 . S
O224 C226 1.240 . S
O225 Co198 2.096 . S
O225 C206 1.247 . S
C226 O223 1.244 . S
C226 O224 1.240 . S
H227 C201 0.931 . S
H228 C210 0.931 . S
H229 C214 0.929 . S
H230 C216 0.930 . S
Co231 N235 2.148 . S
Co231 N241 2.128 . S
Co231 N251 2.194 . S
Co231 O256 2.351 . S
Co231 O257 2.155 . S
Co231 O258 2.096 . S
C232 N235 1.301 . S
C232 N236 1.328 . S
C232 H237 0.930 . S
C233 C234 1.333 . S
C233 N235 1.317 . S
C233 H238 0.930 . S
C234 C233 1.333 . S
C234 N236 1.350 . S
C234 H260 0.931 . S
N235 Co231 2.148 . S
N235 C232 1.301 . S
N235 C233 1.317 . S
N236 C232 1.328 . S
N236 C234 1.350 . S
H237 C232 0.930 . S
H238 C233 0.930 . S
C239 O240 1.224 . S
C239 O258 1.247 . S
O240 C239 1.224 . S
N241 Co231 2.128 . S
N241 C242 1.355 . S
N241 C244 1.311 . S
C242 N241 1.355 . S
C242 C243 1.363 . S
C242 H254 0.929 . S
C243 C242 1.363 . S
C243 N245 1.375 . S
C243 H261 0.931 . S
C244 N241 1.311 . S
C244 N245 1.347 . S
C244 H255 0.929 . S
N245 C243 1.375 . S
N245 C244 1.347 . S
C246 C249 1.365 . S
C246 N251 1.328 . S
C246 H252 0.929 . S
C247 C248 1.362 . S
C247 C250 1.378 . S
C247 H262 0.929 . S
C248 C247 1.362 . S
C248 C249 1.366 . S
C249 C246 1.365 . S
C249 C248 1.366 . S
C249 H263 0.930 . S
C250 C247 1.378 . S
C250 N251 1.315 . S
C250 H253 0.930 . S
N251 Co231 2.194 . S
N251 C246 1.328 . S
N251 C250 1.315 . S
H252 C246 0.929 . S
H253 C250 0.930 . S
H254 C242 0.929 . S
H255 C244 0.929 . S
O256 Co231 2.351 . S
O256 C259 1.244 . S
O257 Co231 2.155 . S
O257 C259 1.240 . S
O258 Co231 2.096 . S
O258 C239 1.247 . S
C259 O256 1.244 . S
C259 O257 1.240 . S
H260 C234 0.931 . S
H261 C243 0.931 . S
H262 C247 0.929 . S
H263 C249 0.930 . S
Co264 N268 2.148 . S
Co264 N274 2.128 1_556 S
Co264 N284 2.194 . S
Co264 O289 2.351 . S
Co264 O290 2.155 . S
Co264 O291 2.096 . S
C265 N268 1.301 . S
C265 N269 1.328 . S
C265 H270 0.930 . S
C266 C267 1.333 . S
C266 N268 1.317 . S
C266 H271 0.930 . S
C267 C266 1.333 . S
C267 N269 1.350 . S
C267 H293 0.931 . S
N268 Co264 2.148 . S
N268 C265 1.301 . S
N268 C266 1.317 . S
N269 C265 1.328 . S
N269 C267 1.350 . S
H270 C265 0.930 . S
H271 C266 0.930 . S
C272 O273 1.224 . S
C272 O291 1.247 . S
O273 C272 1.224 . S
N274 Co264 2.128 1_554 S
N274 C275 1.355 . S
N274 C277 1.311 . S
C275 N274 1.355 . S
C275 C276 1.363 . S
C275 H287 0.929 . S
C276 C275 1.363 . S
C276 N278 1.375 . S
C276 H294 0.931 . S
C277 N274 1.311 . S
C277 N278 1.347 . S
C277 H288 0.929 . S
N278 C276 1.375 . S
N278 C277 1.347 . S
C279 C282 1.365 . S
C279 N284 1.328 . S
C279 H285 0.929 . S
C280 C281 1.362 . S
C280 C283 1.378 . S
C280 H295 0.929 . S
C281 C280 1.362 . S
C281 C282 1.366 . S
C282 C279 1.365 . S
C282 C281 1.366 . S
C282 H296 0.930 . S
C283 C280 1.378 . S
C283 N284 1.315 . S
C283 H286 0.930 . S
N284 Co264 2.194 . S
N284 C279 1.328 . S
N284 C283 1.315 . S
H285 C279 0.929 . S
H286 C283 0.930 . S
H287 C275 0.929 . S
H288 C277 0.929 . S
O289 Co264 2.351 . S
O289 C292 1.244 . S
O290 Co264 2.155 . S
O290 C292 1.240 . S
O291 Co264 2.096 . S
O291 C272 1.247 . S
C292 O289 1.244 . S
C292 O290 1.240 . S
H293 C267 0.931 . S
H294 C276 0.931 . S
H295 C280 0.929 . S
H296 C282 0.930 . S
Co297 N301 2.148 . S
Co297 N307 2.128 . S
Co297 N317 2.194 . S
Co297 O322 2.351 . S
Co297 O323 2.155 . S
Co297 O324 2.096 . S
C298 N301 1.301 . S
C298 N302 1.328 . S
C298 H303 0.930 . S
C299 C300 1.333 . S
C299 N301 1.317 . S
C299 H304 0.930 . S
C300 C299 1.333 . S
C300 N302 1.350 . S
C300 H326 0.931 . S
N301 Co297 2.148 . S
N301 C298 1.301 . S
N301 C299 1.317 . S
N302 C298 1.328 . S
N302 C300 1.350 . S
H303 C298 0.930 . S
H304 C299 0.930 . S
C305 O306 1.224 . S
C305 O324 1.247 . S
O306 C305 1.224 . S
N307 Co297 2.128 . S
N307 C308 1.355 . S
N307 C310 1.311 . S
C308 N307 1.355 . S
C308 C309 1.363 . S
C308 H320 0.929 . S
C309 C308 1.363 . S
C309 N311 1.375 . S
C309 H327 0.931 . S
C310 N307 1.311 . S
C310 N311 1.347 . S
C310 H321 0.929 . S
N311 C309 1.375 . S
N311 C310 1.347 . S
C312 C315 1.365 . S
C312 N317 1.328 . S
C312 H318 0.929 . S
C313 C314 1.362 . S
C313 C316 1.378 . S
C313 H328 0.929 . S
C314 C313 1.362 . S
C314 C315 1.366 . S
C315 C312 1.365 . S
C315 C314 1.366 . S
C315 H329 0.930 . S
C316 C313 1.378 . S
C316 N317 1.315 . S
C316 H319 0.930 . S
N317 Co297 2.194 . S
N317 C312 1.328 . S
N317 C316 1.315 . S
H318 C312 0.929 . S
H319 C316 0.930 . S
H320 C308 0.929 . S
H321 C310 0.929 . S
O322 Co297 2.351 . S
O322 C325 1.244 . S
O323 Co297 2.155 . S
O323 C325 1.240 . S
O324 Co297 2.096 . S
O324 C305 1.247 . S
C325 O322 1.244 . S
C325 O323 1.240 . S
H326 C300 0.931 . S
H327 C309 0.931 . S
H328 C313 0.929 . S
H329 C315 0.930 . S
Co330 N334 2.148 . S
Co330 N340 2.128 . S
Co330 N350 2.194 . S
Co330 O355 2.351 . S
Co330 O356 2.155 . S
Co330 O357 2.096 . S
C331 N334 1.301 . S
C331 N335 1.328 . S
C331 H336 0.930 . S
C332 C333 1.333 . S
C332 N334 1.317 . S
C332 H337 0.930 . S
C333 C332 1.333 . S
C333 N335 1.350 . S
C333 H359 0.931 . S
N334 Co330 2.148 . S
N334 C331 1.301 . S
N334 C332 1.317 . S
N335 C331 1.328 . S
N335 C333 1.350 . S
H336 C331 0.930 . S
H337 C332 0.930 . S
C338 O339 1.224 . S
C338 O357 1.247 . S
O339 C338 1.224 . S
N340 Co330 2.128 . S
N340 C341 1.355 . S
N340 C343 1.311 . S
C341 N340 1.355 . S
C341 C342 1.363 . S
C341 H353 0.929 . S
C342 C341 1.363 . S
C342 N344 1.375 . S
C342 H360 0.931 . S
C343 N340 1.311 . S
C343 N344 1.347 . S
C343 H354 0.929 . S
N344 C342 1.375 . S
N344 C343 1.347 . S
C345 C348 1.365 . S
C345 N350 1.328 . S
C345 H351 0.929 . S
C346 C347 1.362 . S
C346 C349 1.378 . S
C346 H361 0.929 . S
C347 C346 1.362 . S
C347 C348 1.366 . S
C348 C345 1.365 . S
C348 C347 1.366 . S
C348 H362 0.930 . S
C349 C346 1.378 . S
C349 N350 1.315 . S
C349 H352 0.930 . S
N350 Co330 2.194 . S
N350 C345 1.328 . S
N350 C349 1.315 . S
H351 C345 0.929 . S
H352 C349 0.930 . S
H353 C341 0.929 . S
H354 C343 0.929 . S
O355 Co330 2.351 . S
O355 C358 1.244 . S
O356 Co330 2.155 . S
O356 C358 1.240 . S
O357 Co330 2.096 . S
O357 C338 1.247 . S
C358 O355 1.244 . S
C358 O356 1.240 . S
H359 C333 0.931 . S
H360 C342 0.931 . S
H361 C346 0.929 . S
H362 C348 0.930 . S
Co363 N367 2.148 . S
Co363 N373 2.128 . S
Co363 N383 2.194 . S
Co363 O388 2.351 . S
Co363 O389 2.155 . S
Co363 O390 2.096 . S
C364 N367 1.301 . S
C364 N368 1.328 1_554 S
C364 H369 0.930 . S
C365 C366 1.333 1_554 S
C365 N367 1.317 . S
C365 H370 0.930 . S
C366 C365 1.333 1_556 S
C366 N368 1.350 . S
C366 H392 0.931 . S
N367 Co363 2.148 . S
N367 C364 1.301 . S
N367 C365 1.317 . S
N368 C364 1.328 1_556 S
N368 C366 1.350 . S
H369 C364 0.930 . S
H370 C365 0.930 . S
C371 O372 1.224 . S
C371 O390 1.247 . S
O372 C371 1.224 . S
N373 Co363 2.128 . S
N373 C374 1.355 . S
N373 C376 1.311 . S
C374 N373 1.355 . S
C374 C375 1.363 . S
C374 H386 0.929 . S
C375 C374 1.363 . S
C375 N377 1.375 . S
C375 H393 0.931 . S
C376 N373 1.311 . S
C376 N377 1.347 . S
C376 H387 0.929 . S
N377 C375 1.375 . S
N377 C376 1.347 . S
C378 C381 1.365 . S
C378 N383 1.328 . S
C378 H384 0.929 . S
C379 C380 1.362 . S
C379 C382 1.378 . S
C379 H394 0.929 . S
C380 C379 1.362 . S
C380 C381 1.366 . S
C381 C378 1.365 . S
C381 C380 1.366 . S
C381 H395 0.930 . S
C382 C379 1.378 . S
C382 N383 1.315 . S
C382 H385 0.930 . S
N383 Co363 2.194 . S
N383 C378 1.328 . S
N383 C382 1.315 . S
H384 C378 0.929 . S
H385 C382 0.930 . S
H386 C374 0.929 . S
H387 C376 0.929 . S
O388 Co363 2.351 . S
O388 C391 1.244 . S
O389 Co363 2.155 . S
O389 C391 1.240 . S
O390 Co363 2.096 . S
O390 C371 1.247 . S
C391 O388 1.244 . S
C391 O389 1.240 . S
H392 C366 0.931 . S
H393 C375 0.931 . S
H394 C379 0.929 . S
H395 C381 0.930 . S
Co396 N400 2.148 . S
Co396 N406 2.128 1_554 S
Co396 N416 2.194 . S
Co396 O421 2.351 . S
Co396 O422 2.155 . S
Co396 O423 2.096 . S
C397 N400 1.301 . S
C397 N401 1.328 . S
C397 H402 0.930 . S
C398 C399 1.333 . S
C398 N400 1.317 . S
C398 H403 0.930 . S
C399 C398 1.333 . S
C399 N401 1.350 . S
C399 H425 0.931 . S
N400 Co396 2.148 . S
N400 C397 1.301 . S
N400 C398 1.317 . S
N401 C397 1.328 . S
N401 C399 1.350 . S
H402 C397 0.930 . S
H403 C398 0.930 . S
C404 O405 1.224 . S
C404 O423 1.247 . S
O405 C404 1.224 . S
N406 Co396 2.128 1_556 S
N406 C407 1.355 . S
N406 C409 1.311 . S
C407 N406 1.355 . S
C407 C408 1.363 . S
C407 H419 0.929 . S
C408 C407 1.363 . S
C408 N410 1.375 . S
C408 H426 0.931 . S
C409 N406 1.311 . S
C409 N410 1.347 . S
C409 H420 0.929 . S
N410 C408 1.375 . S
N410 C409 1.347 . S
C411 C414 1.365 . S
C411 N416 1.328 . S
C411 H417 0.929 . S
C412 C413 1.362 . S
C412 C415 1.378 . S
C412 H427 0.929 . S
C413 C412 1.362 . S
C413 C414 1.366 . S
C414 C411 1.365 . S
C414 C413 1.366 . S
C414 H428 0.930 . S
C415 C412 1.378 . S
C415 N416 1.315 . S
C415 H418 0.930 . S
N416 Co396 2.194 . S
N416 C411 1.328 . S
N416 C415 1.315 . S
H417 C411 0.929 . S
H418 C415 0.930 . S
H419 C407 0.929 . S
H420 C409 0.929 . S
O421 Co396 2.351 . S
O421 C424 1.244 . S
O422 Co396 2.155 . S
O422 C424 1.240 . S
O423 Co396 2.096 . S
O423 C404 1.247 . S
C424 O421 1.244 . S
C424 O422 1.240 . S
H425 C399 0.931 . S
H426 C408 0.931 . S
H427 C412 0.929 . S
H428 C414 0.930 . S
Co429 N433 2.148 . S
Co429 N439 2.128 . S
Co429 N449 2.194 . S
Co429 O454 2.351 . S
Co429 O455 2.155 . S
Co429 O456 2.096 . S
C430 N433 1.301 . S
C430 N434 1.328 1_556 S
C430 H435 0.930 . S
C431 C432 1.333 1_556 S
C431 N433 1.317 . S
C431 H436 0.930 . S
C432 C431 1.333 1_554 S
C432 N434 1.350 . S
C432 H458 0.931 . S
N433 Co429 2.148 . S
N433 C430 1.301 . S
N433 C431 1.317 . S
N434 C430 1.328 1_554 S
N434 C432 1.350 . S
H435 C430 0.930 . S
H436 C431 0.930 . S
C437 O438 1.224 . S
C437 O456 1.247 . S
O438 C437 1.224 . S
N439 Co429 2.128 . S
N439 C440 1.355 . S
N439 C442 1.311 . S
C440 N439 1.355 . S
C440 C441 1.363 . S
C440 H452 0.929 . S
C441 C440 1.363 . S
C441 N443 1.375 . S
C441 H459 0.931 . S
C442 N439 1.311 . S
C442 N443 1.347 . S
C442 H453 0.929 . S
N443 C441 1.375 . S
N443 C442 1.347 . S
C444 C447 1.365 . S
C444 N449 1.328 . S
C444 H450 0.929 . S
C445 C446 1.362 . S
C445 C448 1.378 . S
C445 H460 0.929 . S
C446 C445 1.362 . S
C446 C447 1.366 . S
C447 C444 1.365 . S
C447 C446 1.366 . S
C447 H461 0.930 . S
C448 C445 1.378 . S
C448 N449 1.315 . S
C448 H451 0.930 . S
N449 Co429 2.194 . S
N449 C444 1.328 . S
N449 C448 1.315 . S
H450 C444 0.929 . S
H451 C448 0.930 . S
H452 C440 0.929 . S
H453 C442 0.929 . S
O454 Co429 2.351 . S
O454 C457 1.244 . S
O455 Co429 2.155 . S
O455 C457 1.240 . S
O456 Co429 2.096 . S
O456 C437 1.247 . S
C457 O454 1.244 . S
C457 O455 1.240 . S
H458 C432 0.931 . S
H459 C441 0.931 . S
H460 C445 0.929 . S
H461 C447 0.930 . S
Co462 N466 2.148 . S
Co462 N472 2.128 . S
Co462 N482 2.194 . S
Co462 O487 2.351 . S
Co462 O488 2.155 . S
Co462 O489 2.096 . S
C463 N466 1.301 . S
C463 N467 1.328 . S
C463 H468 0.930 . S
C464 C465 1.333 . S
C464 N466 1.317 . S
C464 H469 0.930 . S
C465 C464 1.333 . S
C465 N467 1.350 . S
C465 H491 0.931 . S
N466 Co462 2.148 . S
N466 C463 1.301 . S
N466 C464 1.317 . S
N467 C463 1.328 . S
N467 C465 1.350 . S
H468 C463 0.930 . S
H469 C464 0.930 . S
C470 O471 1.224 . S
C470 O489 1.247 . S
O471 C470 1.224 . S
N472 Co462 2.128 . S
N472 C473 1.355 . S
N472 C475 1.311 . S
C473 N472 1.355 . S
C473 C474 1.363 . S
C473 H485 0.929 . S
C474 C473 1.363 . S
C474 N476 1.375 . S
C474 H492 0.931 . S
C475 N472 1.311 . S
C475 N476 1.347 . S
C475 H486 0.929 . S
N476 C474 1.375 . S
N476 C475 1.347 . S
C477 C480 1.365 . S
C477 N482 1.328 . S
C477 H483 0.929 . S
C478 C479 1.362 . S
C478 C481 1.378 . S
C478 H493 0.929 . S
C479 C478 1.362 . S
C479 C480 1.366 . S
C480 C477 1.365 . S
C480 C479 1.366 . S
C480 H494 0.930 . S
C481 C478 1.378 . S
C481 N482 1.315 . S
C481 H484 0.930 . S
N482 Co462 2.194 . S
N482 C477 1.328 . S
N482 C481 1.315 . S
H483 C477 0.929 . S
H484 C481 0.930 . S
H485 C473 0.929 . S
H486 C475 0.929 . S
O487 Co462 2.351 . S
O487 C490 1.244 . S
O488 Co462 2.155 . S
O488 C490 1.240 . S
O489 Co462 2.096 . S
O489 C470 1.247 . S
C490 O487 1.244 . S
C490 O488 1.240 . S
H491 C465 0.931 . S
H492 C474 0.931 . S
H493 C478 0.929 . S
H494 C480 0.930 . S
Co495 N499 2.148 . S
Co495 N505 2.128 . S
Co495 N515 2.194 . S
Co495 O520 2.351 . S
Co495 O521 2.155 . S
Co495 O522 2.096 . S
C496 N499 1.301 . S
C496 N500 1.328 . S
C496 H501 0.930 . S
C497 C498 1.333 . S
C497 N499 1.317 . S
C497 H502 0.930 . S
C498 C497 1.333 . S
C498 N500 1.350 . S
C498 H524 0.931 . S
N499 Co495 2.148 . S
N499 C496 1.301 . S
N499 C497 1.317 . S
N500 C496 1.328 . S
N500 C498 1.350 . S
H501 C496 0.930 . S
H502 C497 0.930 . S
C503 O504 1.224 . S
C503 O522 1.247 . S
O504 C503 1.224 . S
N505 Co495 2.128 . S
N505 C506 1.355 . S
N505 C508 1.311 . S
C506 N505 1.355 . S
C506 C507 1.363 . S
C506 H518 0.929 . S
C507 C506 1.363 . S
C507 N509 1.375 . S
C507 H525 0.931 . S
C508 N505 1.311 . S
C508 N509 1.347 . S
C508 H519 0.929 . S
N509 C507 1.375 . S
N509 C508 1.347 . S
C510 C513 1.365 . S
C510 N515 1.328 . S
C510 H516 0.929 . S
C511 C512 1.362 . S
C511 C514 1.378 . S
C511 H526 0.929 . S
C512 C511 1.362 . S
C512 C513 1.366 . S
C513 C510 1.365 . S
C513 C512 1.366 . S
C513 H527 0.930 . S
C514 C511 1.378 . S
C514 N515 1.315 . S
C514 H517 0.930 . S
N515 Co495 2.194 . S
N515 C510 1.328 . S
N515 C514 1.315 . S
H516 C510 0.929 . S
H517 C514 0.930 . S
H518 C506 0.929 . S
H519 C508 0.929 . S
O520 Co495 2.351 . S
O520 C523 1.244 . S
O521 Co495 2.155 . S
O521 C523 1.240 . S
O522 Co495 2.096 . S
O522 C503 1.247 . S
C523 O520 1.244 . S
C523 O521 1.240 . S
H524 C498 0.931 . S
H525 C507 0.931 . S
H526 C511 0.929 . S
H527 C513 0.930 . S
Co528 N532 2.148 . S
Co528 N538 2.128 . S
Co528 N548 2.194 . S
Co528 O553 2.351 . S
Co528 O554 2.155 . S
Co528 O555 2.096 . S
C529 N532 1.301 . S
C529 N533 1.328 . S
C529 H534 0.930 . S
C530 C531 1.333 . S
C530 N532 1.317 . S
C530 H535 0.930 . S
C531 C530 1.333 . S
C531 N533 1.350 . S
C531 H557 0.931 . S
N532 Co528 2.148 . S
N532 C529 1.301 . S
N532 C530 1.317 . S
N533 C529 1.328 . S
N533 C531 1.350 . S
H534 C529 0.930 . S
H535 C530 0.930 . S
C536 O537 1.224 . S
C536 O555 1.247 . S
O537 C536 1.224 . S
N538 Co528 2.128 . S
N538 C539 1.355 . S
N538 C541 1.311 . S
C539 N538 1.355 . S
C539 C540 1.363 . S
C539 H551 0.929 . S
C540 C539 1.363 . S
C540 N542 1.375 . S
C540 H558 0.931 . S
C541 N538 1.311 . S
C541 N542 1.347 . S
C541 H552 0.929 . S
N542 C540 1.375 . S
N542 C541 1.347 . S
C543 C546 1.365 . S
C543 N548 1.328 . S
C543 H549 0.929 . S
C544 C545 1.362 . S
C544 C547 1.378 . S
C544 H559 0.929 . S
C545 C544 1.362 . S
C545 C546 1.366 . S
C546 C543 1.365 . S
C546 C545 1.366 . S
C546 H560 0.930 . S
C547 C544 1.378 . S
C547 N548 1.315 . S
C547 H550 0.930 . S
N548 Co528 2.194 . S
N548 C543 1.328 . S
N548 C547 1.315 . S
H549 C543 0.929 . S
H550 C547 0.930 . S
H551 C539 0.929 . S
H552 C541 0.929 . S
O553 Co528 2.351 . S
O553 C556 1.244 . S
O554 Co528 2.155 . S
O554 C556 1.240 . S
O555 Co528 2.096 . S
O555 C536 1.247 . S
C556 O553 1.244 . S
C556 O554 1.240 . S
H557 C531 0.931 . S
H558 C540 0.931 . S
H559 C544 0.929 . S
H560 C546 0.930 . S
Co561 N565 2.148 . S
Co561 N571 2.128 . S
Co561 N581 2.194 . S
Co561 O586 2.351 . S
Co561 O587 2.155 . S
Co561 O588 2.096 . S
C562 N565 1.301 . S
C562 N566 1.328 1_556 S
C562 H567 0.930 . S
C563 C564 1.333 1_556 S
C563 N565 1.317 . S
C563 H568 0.930 . S
C564 C563 1.333 1_554 S
C564 N566 1.350 . S
C564 H590 0.931 . S
N565 Co561 2.148 . S
N565 C562 1.301 . S
N565 C563 1.317 . S
N566 C562 1.328 1_554 S
N566 C564 1.350 . S
H567 C562 0.930 . S
H568 C563 0.930 . S
C569 O570 1.224 . S
C569 O588 1.247 . S
O570 C569 1.224 . S
N571 Co561 2.128 . S
N571 C572 1.355 . S
N571 C574 1.311 . S
C572 N571 1.355 . S
C572 C573 1.363 . S
C572 H584 0.929 . S
C573 C572 1.363 . S
C573 N575 1.375 . S
C573 H591 0.931 . S
C574 N571 1.311 . S
C574 N575 1.347 . S
C574 H585 0.929 . S
N575 C573 1.375 . S
N575 C574 1.347 . S
C576 C579 1.365 . S
C576 N581 1.328 . S
C576 H582 0.929 . S
C577 C578 1.362 . S
C577 C580 1.378 . S
C577 H592 0.929 . S
C578 C577 1.362 . S
C578 C579 1.366 . S
C579 C576 1.365 . S
C579 C578 1.366 . S
C579 H593 0.930 . S
C580 C577 1.378 . S
C580 N581 1.315 . S
C580 H583 0.930 . S
N581 Co561 2.194 . S
N581 C576 1.328 . S
N581 C580 1.315 . S
H582 C576 0.929 . S
H583 C580 0.930 . S
H584 C572 0.929 . S
H585 C574 0.929 . S
O586 Co561 2.351 . S
O586 C589 1.244 . S
O587 Co561 2.155 . S
O587 C589 1.240 . S
O588 Co561 2.096 . S
O588 C569 1.247 . S
C589 O586 1.244 . S
C589 O587 1.240 . S
H590 C564 0.931 . S
H591 C573 0.931 . S
H592 C577 0.929 . S
H593 C579 0.930 . S
Co594 N598 2.148 . S
Co594 N604 2.128 1_554 S
Co594 N614 2.194 . S
Co594 O619 2.351 . S
Co594 O620 2.155 . S
Co594 O621 2.096 . S
C595 N598 1.301 . S
C595 N599 1.328 . S
C595 H600 0.930 . S
C596 C597 1.333 . S
C596 N598 1.317 . S
C596 H601 0.930 . S
C597 C596 1.333 . S
C597 N599 1.350 . S
C597 H623 0.931 . S
N598 Co594 2.148 . S
N598 C595 1.301 . S
N598 C596 1.317 . S
N599 C595 1.328 . S
N599 C597 1.350 . S
H600 C595 0.930 . S
H601 C596 0.930 . S
C602 O603 1.224 . S
C602 O621 1.247 . S
O603 C602 1.224 . S
N604 Co594 2.128 1_556 S
N604 C605 1.355 . S
N604 C607 1.311 . S
C605 N604 1.355 . S
C605 C606 1.363 . S
C605 H617 0.929 . S
C606 C605 1.363 . S
C606 N608 1.375 . S
C606 H624 0.931 . S
C607 N604 1.311 . S
C607 N608 1.347 . S
C607 H618 0.929 . S
N608 C606 1.375 . S
N608 C607 1.347 . S
C609 C612 1.365 . S
C609 N614 1.328 . S
C609 H615 0.929 . S
C610 C611 1.362 . S
C610 C613 1.378 . S
C610 H625 0.929 . S
C611 C610 1.362 . S
C611 C612 1.366 . S
C612 C609 1.365 . S
C612 C611 1.366 . S
C612 H626 0.930 . S
C613 C610 1.378 . S
C613 N614 1.315 . S
C613 H616 0.930 . S
N614 Co594 2.194 . S
N614 C609 1.328 . S
N614 C613 1.315 . S
H615 C609 0.929 . S
H616 C613 0.930 . S
H617 C605 0.929 . S
H618 C607 0.929 . S
O619 Co594 2.351 . S
O619 C622 1.244 . S
O620 Co594 2.155 . S
O620 C622 1.240 . S
O621 Co594 2.096 . S
O621 C602 1.247 . S
C622 O619 1.244 . S
C622 O620 1.240 . S
H623 C597 0.931 . S
H624 C606 0.931 . S
H625 C610 0.929 . S
H626 C612 0.930 . S
Co627 N631 2.148 . S
Co627 N637 2.128 . S
Co627 N647 2.194 . S
Co627 O652 2.351 . S
Co627 O653 2.155 . S
Co627 O654 2.096 . S
C628 N631 1.301 . S
C628 N632 1.328 . S
C628 H633 0.930 . S
C629 C630 1.333 . S
C629 N631 1.317 . S
C629 H634 0.930 . S
C630 C629 1.333 . S
C630 N632 1.350 . S
C630 H656 0.931 . S
N631 Co627 2.148 . S
N631 C628 1.301 . S
N631 C629 1.317 . S
N632 C628 1.328 . S
N632 C630 1.350 . S
H633 C628 0.930 . S
H634 C629 0.930 . S
C635 O636 1.224 . S
C635 O654 1.247 . S
O636 C635 1.224 . S
N637 Co627 2.128 . S
N637 C638 1.355 . S
N637 C640 1.311 . S
C638 N637 1.355 . S
C638 C639 1.363 . S
C638 H650 0.929 . S
C639 C638 1.363 . S
C639 N641 1.375 . S
C639 H657 0.931 . S
C640 N637 1.311 . S
C640 N641 1.347 . S
C640 H651 0.929 . S
N641 C639 1.375 . S
N641 C640 1.347 . S
C642 C645 1.365 . S
C642 N647 1.328 . S
C642 H648 0.929 . S
C643 C644 1.362 . S
C643 C646 1.378 . S
C643 H658 0.929 . S
C644 C643 1.362 . S
C644 C645 1.366 . S
C645 C642 1.365 . S
C645 C644 1.366 . S
C645 H659 0.930 . S
C646 C643 1.378 . S
C646 N647 1.315 . S
C646 H649 0.930 . S
N647 Co627 2.194 . S
N647 C642 1.328 . S
N647 C646 1.315 . S
H648 C642 0.929 . S
H649 C646 0.930 . S
H650 C638 0.929 . S
H651 C640 0.929 . S
O652 Co627 2.351 . S
O652 C655 1.244 . S
O653 Co627 2.155 . S
O653 C655 1.240 . S
O654 Co627 2.096 . S
O654 C635 1.247 . S
C655 O652 1.244 . S
C655 O653 1.240 . S
H656 C630 0.931 . S
H657 C639 0.931 . S
H658 C643 0.929 . S
H659 C645 0.930 . S
Co660 N664 2.148 . S
Co660 N670 2.128 . S
Co660 N680 2.194 . S
Co660 O685 2.351 . S
Co660 O686 2.155 . S
Co660 O687 2.096 . S
C661 N664 1.301 . S
C661 N665 1.328 . S
C661 H666 0.930 . S
C662 C663 1.333 . S
C662 N664 1.317 . S
C662 H667 0.930 . S
C663 C662 1.333 . S
C663 N665 1.350 . S
C663 H689 0.931 . S
N664 Co660 2.148 . S
N664 C661 1.301 . S
N664 C662 1.317 . S
N665 C661 1.328 . S
N665 C663 1.350 . S
H666 C661 0.930 . S
H667 C662 0.930 . S
C668 O669 1.224 . S
C668 O687 1.247 . S
O669 C668 1.224 . S
N670 Co660 2.128 . S
N670 C671 1.355 . S
N670 C673 1.311 . S
C671 N670 1.355 . S
C671 C672 1.363 . S
C671 H683 0.929 . S
C672 C671 1.363 . S
C672 N674 1.375 . S
C672 H690 0.931 . S
C673 N670 1.311 . S
C673 N674 1.347 . S
C673 H684 0.929 . S
N674 C672 1.375 . S
N674 C673 1.347 . S
C675 C678 1.365 . S
C675 N680 1.328 . S
C675 H681 0.929 . S
C676 C677 1.362 . S
C676 C679 1.378 . S
C676 H691 0.929 . S
C677 C676 1.362 . S
C677 C678 1.366 . S
C678 C675 1.365 . S
C678 C677 1.366 . S
C678 H692 0.930 . S
C679 C676 1.378 . S
C679 N680 1.315 . S
C679 H682 0.930 . S
N680 Co660 2.194 . S
N680 C675 1.328 . S
N680 C679 1.315 . S
H681 C675 0.929 . S
H682 C679 0.930 . S
H683 C671 0.929 . S
H684 C673 0.929 . S
O685 Co660 2.351 . S
O685 C688 1.244 . S
O686 Co660 2.155 . S
O686 C688 1.240 . S
O687 Co660 2.096 . S
O687 C668 1.247 . S
C688 O685 1.244 . S
C688 O686 1.240 . S
H689 C663 0.931 . S
H690 C672 0.931 . S
H691 C676 0.929 . S
H692 C678 0.930 . S
Co693 N697 2.148 . S
Co693 N703 2.128 . S
Co693 N713 2.194 . S
Co693 O718 2.351 . S
Co693 O719 2.155 . S
Co693 O720 2.096 . S
C694 N697 1.301 . S
C694 N698 1.328 . S
C694 H699 0.930 . S
C695 C696 1.333 . S
C695 N697 1.317 . S
C695 H700 0.930 . S
C696 C695 1.333 . S
C696 N698 1.350 . S
C696 H722 0.931 . S
N697 Co693 2.148 . S
N697 C694 1.301 . S
N697 C695 1.317 . S
N698 C694 1.328 . S
N698 C696 1.350 . S
H699 C694 0.930 . S
H700 C695 0.930 . S
C701 O702 1.224 . S
C701 O720 1.247 . S
O702 C701 1.224 . S
N703 Co693 2.128 . S
N703 C704 1.355 . S
N703 C706 1.311 . S
C704 N703 1.355 . S
C704 C705 1.363 . S
C704 H716 0.929 . S
C705 C704 1.363 . S
C705 N707 1.375 . S
C705 H723 0.931 . S
C706 N703 1.311 . S
C706 N707 1.347 . S
C706 H717 0.929 . S
N707 C705 1.375 . S
N707 C706 1.347 . S
C708 C711 1.365 . S
C708 N713 1.328 . S
C708 H714 0.929 . S
C709 C710 1.362 . S
C709 C712 1.378 . S
C709 H724 0.929 . S
C710 C709 1.362 . S
C710 C711 1.366 . S
C711 C708 1.365 . S
C711 C710 1.366 . S
C711 H725 0.930 . S
C712 C709 1.378 . S
C712 N713 1.315 . S
C712 H715 0.930 . S
N713 Co693 2.194 . S
N713 C708 1.328 . S
N713 C712 1.315 . S
H714 C708 0.929 . S
H715 C712 0.930 . S
H716 C704 0.929 . S
H717 C706 0.929 . S
O718 Co693 2.351 . S
O718 C721 1.244 . S
O719 Co693 2.155 . S
O719 C721 1.240 . S
O720 Co693 2.096 . S
O720 C701 1.247 . S
C721 O718 1.244 . S
C721 O719 1.240 . S
H722 C696 0.931 . S
H723 C705 0.931 . S
H724 C709 0.929 . S
H725 C711 0.930 . S
Co726 N730 2.148 . S
Co726 N736 2.128 1_556 S
Co726 N746 2.194 . S
Co726 O751 2.351 . S
Co726 O752 2.155 . S
Co726 O753 2.096 . S
C727 N730 1.301 . S
C727 N731 1.328 . S
C727 H732 0.930 . S
C728 C729 1.333 . S
C728 N730 1.317 . S
C728 H733 0.930 . S
C729 C728 1.333 . S
C729 N731 1.350 . S
C729 H755 0.931 . S
N730 Co726 2.148 . S
N730 C727 1.301 . S
N730 C728 1.317 . S
N731 C727 1.328 . S
N731 C729 1.350 . S
H732 C727 0.930 . S
H733 C728 0.930 . S
C734 O735 1.224 . S
C734 O753 1.247 . S
O735 C734 1.224 . S
N736 Co726 2.128 1_554 S
N736 C737 1.355 . S
N736 C739 1.311 . S
C737 N736 1.355 . S
C737 C738 1.363 . S
C737 H749 0.929 . S
C738 C737 1.363 . S
C738 N740 1.375 . S
C738 H756 0.931 . S
C739 N736 1.311 . S
C739 N740 1.347 . S
C739 H750 0.929 . S
N740 C738 1.375 . S
N740 C739 1.347 . S
C741 C744 1.365 . S
C741 N746 1.328 . S
C741 H747 0.929 . S
C742 C743 1.362 . S
C742 C745 1.378 . S
C742 H757 0.929 . S
C743 C742 1.362 . S
C743 C744 1.366 . S
C744 C741 1.365 . S
C744 C743 1.366 . S
C744 H758 0.930 . S
C745 C742 1.378 . S
C745 N746 1.315 . S
C745 H748 0.930 . S
N746 Co726 2.194 . S
N746 C741 1.328 . S
N746 C745 1.315 . S
H747 C741 0.929 . S
H748 C745 0.930 . S
H749 C737 0.929 . S
H750 C739 0.929 . S
O751 Co726 2.351 . S
O751 C754 1.244 . S
O752 Co726 2.155 . S
O752 C754 1.240 . S
O753 Co726 2.096 . S
O753 C734 1.247 . S
C754 O751 1.244 . S
C754 O752 1.240 . S
H755 C729 0.931 . S
H756 C738 0.931 . S
H757 C742 0.929 . S
H758 C744 0.930 . S
Co759 N763 2.148 . S
Co759 N769 2.128 . S
Co759 N779 2.194 . S
Co759 O784 2.351 . S
Co759 O785 2.155 . S
Co759 O786 2.096 . S
C760 N763 1.301 . S
C760 N764 1.328 1_554 S
C760 H765 0.930 . S
C761 C762 1.333 1_554 S
C761 N763 1.317 . S
C761 H766 0.930 . S
C762 C761 1.333 1_556 S
C762 N764 1.350 . S
C762 H788 0.931 . S
N763 Co759 2.148 . S
N763 C760 1.301 . S
N763 C761 1.317 . S
N764 C760 1.328 1_556 S
N764 C762 1.350 . S
H765 C760 0.930 . S
H766 C761 0.930 . S
C767 O768 1.224 . S
C767 O786 1.247 . S
O768 C767 1.224 . S
N769 Co759 2.128 . S
N769 C770 1.355 . S
N769 C772 1.311 . S
C770 N769 1.355 . S
C770 C771 1.363 . S
C770 H782 0.929 . S
C771 C770 1.363 . S
C771 N773 1.375 . S
C771 H789 0.931 . S
C772 N769 1.311 . S
C772 N773 1.347 . S
C772 H783 0.929 . S
N773 C771 1.375 . S
N773 C772 1.347 . S
C774 C777 1.365 . S
C774 N779 1.328 . S
C774 H780 0.929 . S
C775 C776 1.362 . S
C775 C778 1.378 . S
C775 H790 0.929 . S
C776 C775 1.362 . S
C776 C777 1.366 . S
C777 C774 1.365 . S
C777 C776 1.366 . S
C777 H791 0.930 . S
C778 C775 1.378 . S
C778 N779 1.315 . S
C778 H781 0.930 . S
N779 Co759 2.194 . S
N779 C774 1.328 . S
N779 C778 1.315 . S
H780 C774 0.929 . S
H781 C778 0.930 . S
H782 C770 0.929 . S
H783 C772 0.929 . S
O784 Co759 2.351 . S
O784 C787 1.244 . S
O785 Co759 2.155 . S
O785 C787 1.240 . S
O786 Co759 2.096 . S
O786 C767 1.247 . S
C787 O784 1.244 . S
C787 O785 1.240 . S
H788 C762 0.931 . S
H789 C771 0.931 . S
H790 C775 0.929 . S
H791 C777 0.930 . S
Co792 N796 2.148 . S
Co792 N802 2.128 . S
Co792 N812 2.194 . S
Co792 O817 2.351 . S
Co792 O818 2.155 . S
Co792 O819 2.096 . S
C793 N796 1.301 . S
C793 N797 1.328 . S
C793 H798 0.930 . S
C794 C795 1.333 . S
C794 N796 1.317 . S
C794 H799 0.930 . S
C795 C794 1.333 . S
C795 N797 1.350 . S
C795 H821 0.931 . S
N796 Co792 2.148 . S
N796 C793 1.301 . S
N796 C794 1.317 . S
N797 C793 1.328 . S
N797 C795 1.350 . S
H798 C793 0.930 . S
H799 C794 0.930 . S
C800 O801 1.224 . S
C800 O819 1.247 . S
O801 C800 1.224 . S
N802 Co792 2.128 . S
N802 C803 1.355 . S
N802 C805 1.311 . S
C803 N802 1.355 . S
C803 C804 1.363 . S
C803 H815 0.929 . S
C804 C803 1.363 . S
C804 N806 1.375 . S
C804 H822 0.931 . S
C805 N802 1.311 . S
C805 N806 1.347 . S
C805 H816 0.929 . S
N806 C804 1.375 . S
N806 C805 1.347 . S
C807 C810 1.365 . S
C807 N812 1.328 . S
C807 H813 0.929 . S
C808 C809 1.362 . S
C808 C811 1.378 . S
C808 H823 0.929 . S
C809 C808 1.362 . S
C809 C810 1.366 . S
C810 C807 1.365 . S
C810 C809 1.366 . S
C810 H824 0.930 . S
C811 C808 1.378 . S
C811 N812 1.315 . S
C811 H814 0.930 . S
N812 Co792 2.194 . S
N812 C807 1.328 . S
N812 C811 1.315 . S
H813 C807 0.929 . S
H814 C811 0.930 . S
H815 C803 0.929 . S
H816 C805 0.929 . S
O817 Co792 2.351 . S
O817 C820 1.244 . S
O818 Co792 2.155 . S
O818 C820 1.240 . S
O819 Co792 2.096 . S
O819 C800 1.247 . S
C820 O817 1.244 . S
C820 O818 1.240 . S
H821 C795 0.931 . S
H822 C804 0.931 . S
H823 C808 0.929 . S
H824 C810 0.930 . S
Co825 N829 2.148 . S
Co825 N835 2.128 . S
Co825 N845 2.194 . S
Co825 O850 2.351 . S
Co825 O851 2.155 . S
Co825 O852 2.096 . S
C826 N829 1.301 . S
C826 N830 1.328 1_554 S
C826 H831 0.930 . S
C827 C828 1.333 1_554 S
C827 N829 1.317 . S
C827 H832 0.930 . S
C828 C827 1.333 1_556 S
C828 N830 1.350 . S
C828 H854 0.931 . S
N829 Co825 2.148 . S
N829 C826 1.301 . S
N829 C827 1.317 . S
N830 C826 1.328 1_556 S
N830 C828 1.350 . S
H831 C826 0.930 . S
H832 C827 0.930 . S
C833 O834 1.224 . S
C833 O852 1.247 . S
O834 C833 1.224 . S
N835 Co825 2.128 . S
N835 C836 1.355 . S
N835 C838 1.311 . S
C836 N835 1.355 . S
C836 C837 1.363 . S
C836 H848 0.929 . S
C837 C836 1.363 . S
C837 N839 1.375 . S
C837 H855 0.931 . S
C838 N835 1.311 . S
C838 N839 1.347 . S
C838 H849 0.929 . S
N839 C837 1.375 . S
N839 C838 1.347 . S
C840 C843 1.365 . S
C840 N845 1.328 . S
C840 H846 0.929 . S
C841 C842 1.362 . S
C841 C844 1.378 . S
C841 H856 0.929 . S
C842 C841 1.362 . S
C842 C843 1.366 . S
C843 C840 1.365 . S
C843 C842 1.366 . S
C843 H857 0.930 . S
C844 C841 1.378 . S
C844 N845 1.315 . S
C844 H847 0.930 . S
N845 Co825 2.194 . S
N845 C840 1.328 . S
N845 C844 1.315 . S
H846 C840 0.929 . S
H847 C844 0.930 . S
H848 C836 0.929 . S
H849 C838 0.929 . S
O850 Co825 2.351 . S
O850 C853 1.244 . S
O851 Co825 2.155 . S
O851 C853 1.240 . S
O852 Co825 2.096 . S
O852 C833 1.247 . S
C853 O850 1.244 . S
C853 O851 1.240 . S
H854 C828 0.931 . S
H855 C837 0.931 . S
H856 C841 0.929 . S
H857 C843 0.930 . S
Co858 N862 2.148 . S
Co858 N868 2.128 1_556 S
Co858 N878 2.194 . S
Co858 O883 2.351 . S
Co858 O884 2.155 . S
Co858 O885 2.096 . S
C859 N862 1.301 . S
C859 N863 1.328 . S
C859 H864 0.930 . S
C860 C861 1.333 . S
C860 N862 1.317 . S
C860 H865 0.930 . S
C861 C860 1.333 . S
C861 N863 1.350 . S
C861 H887 0.931 . S
N862 Co858 2.148 . S
N862 C859 1.301 . S
N862 C860 1.317 . S
N863 C859 1.328 . S
N863 C861 1.350 . S
H864 C859 0.930 . S
H865 C860 0.930 . S
C866 O867 1.224 . S
C866 O885 1.247 . S
O867 C866 1.224 . S
N868 Co858 2.128 1_554 S
N868 C869 1.355 . S
N868 C871 1.311 . S
C869 N868 1.355 . S
C869 C870 1.363 . S
C869 H881 0.929 . S
C870 C869 1.363 . S
C870 N872 1.375 . S
C870 H888 0.931 . S
C871 N868 1.311 . S
C871 N872 1.347 . S
C871 H882 0.929 . S
N872 C870 1.375 . S
N872 C871 1.347 . S
C873 C876 1.365 . S
C873 N878 1.328 . S
C873 H879 0.929 . S
C874 C875 1.362 . S
C874 C877 1.378 . S
C874 H889 0.929 . S
C875 C874 1.362 . S
C875 C876 1.366 . S
C876 C873 1.365 . S
C876 C875 1.366 . S
C876 H890 0.930 . S
C877 C874 1.378 . S
C877 N878 1.315 . S
C877 H880 0.930 . S
N878 Co858 2.194 . S
N878 C873 1.328 . S
N878 C877 1.315 . S
H879 C873 0.929 . S
H880 C877 0.930 . S
H881 C869 0.929 . S
H882 C871 0.929 . S
O883 Co858 2.351 . S
O883 C886 1.244 . S
O884 Co858 2.155 . S
O884 C886 1.240 . S
O885 Co858 2.096 . S
O885 C866 1.247 . S
C886 O883 1.244 . S
C886 O884 1.240 . S
H887 C861 0.931 . S
H888 C870 0.931 . S
H889 C874 0.929 . S
H890 C876 0.930 . S
Co891 N895 2.148 . S
Co891 N901 2.128 . S
Co891 N911 2.194 . S
Co891 O916 2.351 . S
Co891 O917 2.155 . S
Co891 O918 2.096 . S
C892 N895 1.301 . S
C892 N896 1.328 . S
C892 H897 0.930 . S
C893 C894 1.333 . S
C893 N895 1.317 . S
C893 H898 0.930 . S
C894 C893 1.333 . S
C894 N896 1.350 . S
C894 H920 0.931 . S
N895 Co891 2.148 . S
N895 C892 1.301 . S
N895 C893 1.317 . S
N896 C892 1.328 . S
N896 C894 1.350 . S
H897 C892 0.930 . S
H898 C893 0.930 . S
C899 O900 1.224 . S
C899 O918 1.247 . S
O900 C899 1.224 . S
N901 Co891 2.128 . S
N901 C902 1.355 . S
N901 C904 1.311 . S
C902 N901 1.355 . S
C902 C903 1.363 . S
C902 H914 0.929 . S
C903 C902 1.363 . S
C903 N905 1.375 . S
C903 H921 0.931 . S
C904 N901 1.311 . S
C904 N905 1.347 . S
C904 H915 0.929 . S
N905 C903 1.375 . S
N905 C904 1.347 . S
C906 C909 1.365 . S
C906 N911 1.328 . S
C906 H912 0.929 . S
C907 C908 1.362 . S
C907 C910 1.378 . S
C907 H922 0.929 . S
C908 C907 1.362 . S
C908 C909 1.366 . S
C909 C906 1.365 . S
C909 C908 1.366 . S
C909 H923 0.930 . S
C910 C907 1.378 . S
C910 N911 1.315 . S
C910 H913 0.930 . S
N911 Co891 2.194 . S
N911 C906 1.328 . S
N911 C910 1.315 . S
H912 C906 0.929 . S
H913 C910 0.930 . S
H914 C902 0.929 . S
H915 C904 0.929 . S
O916 Co891 2.351 . S
O916 C919 1.244 . S
O917 Co891 2.155 . S
O917 C919 1.240 . S
O918 Co891 2.096 . S
O918 C899 1.247 . S
C919 O916 1.244 . S
C919 O917 1.240 . S
H920 C894 0.931 . S
H921 C903 0.931 . S
H922 C907 0.929 . S
H923 C909 0.930 . S
Co924 N928 2.148 . S
Co924 N934 2.128 . S
Co924 N944 2.194 . S
Co924 O949 2.351 . S
Co924 O950 2.155 . S
Co924 O951 2.096 . S
C925 N928 1.301 . S
C925 N929 1.328 . S
C925 H930 0.930 . S
C926 C927 1.333 . S
C926 N928 1.317 . S
C926 H931 0.930 . S
C927 C926 1.333 . S
C927 N929 1.350 . S
C927 H953 0.931 . S
N928 Co924 2.148 . S
N928 C925 1.301 . S
N928 C926 1.317 . S
N929 C925 1.328 . S
N929 C927 1.350 . S
H930 C925 0.930 . S
H931 C926 0.930 . S
C932 O933 1.224 . S
C932 O951 1.247 . S
O933 C932 1.224 . S
N934 Co924 2.128 . S
N934 C935 1.355 . S
N934 C937 1.311 . S
C935 N934 1.355 . S
C935 C936 1.363 . S
C935 H947 0.929 . S
C936 C935 1.363 . S
C936 N938 1.375 . S
C936 H954 0.931 . S
C937 N934 1.311 . S
C937 N938 1.347 . S
C937 H948 0.929 . S
N938 C936 1.375 . S
N938 C937 1.347 . S
C939 C942 1.365 . S
C939 N944 1.328 . S
C939 H945 0.929 . S
C940 C941 1.362 . S
C940 C943 1.378 . S
C940 H955 0.929 . S
C941 C940 1.362 . S
C941 C942 1.366 . S
C942 C939 1.365 . S
C942 C941 1.366 . S
C942 H956 0.930 . S
C943 C940 1.378 . S
C943 N944 1.315 . S
C943 H946 0.930 . S
N944 Co924 2.194 . S
N944 C939 1.328 . S
N944 C943 1.315 . S
H945 C939 0.929 . S
H946 C943 0.930 . S
H947 C935 0.929 . S
H948 C937 0.929 . S
O949 Co924 2.351 . S
O949 C952 1.244 . S
O950 Co924 2.155 . S
O950 C952 1.240 . S
O951 Co924 2.096 . S
O951 C932 1.247 . S
C952 O949 1.244 . S
C952 O950 1.240 . S
H953 C927 0.931 . S
H954 C936 0.931 . S
H955 C940 0.929 . S
H956 C942 0.930 . S
Co957 N961 2.148 . S
Co957 N967 2.128 . S
Co957 N977 2.194 . S
Co957 O982 2.351 . S
Co957 O983 2.155 . S
Co957 O984 2.096 . S
C958 N961 1.301 . S
C958 N962 1.328 . S
C958 H963 0.930 . S
C959 C960 1.333 . S
C959 N961 1.317 . S
C959 H964 0.930 . S
C960 C959 1.333 . S
C960 N962 1.350 . S
C960 H986 0.931 . S
N961 Co957 2.148 . S
N961 C958 1.301 . S
N961 C959 1.317 . S
N962 C958 1.328 . S
N962 C960 1.350 . S
H963 C958 0.930 . S
H964 C959 0.930 . S
C965 O966 1.224 . S
C965 O984 1.247 . S
O966 C965 1.224 . S
N967 Co957 2.128 . S
N967 C968 1.355 . S
N967 C970 1.311 . S
C968 N967 1.355 . S
C968 C969 1.363 . S
C968 H980 0.929 . S
C969 C968 1.363 . S
C969 N971 1.375 . S
C969 H987 0.931 . S
C970 N967 1.311 . S
C970 N971 1.347 . S
C970 H981 0.929 . S
N971 C969 1.375 . S
N971 C970 1.347 . S
C972 C975 1.365 . S
C972 N977 1.328 . S
C972 H978 0.929 . S
C973 C974 1.362 . S
C973 C976 1.378 . S
C973 H988 0.929 . S
C974 C973 1.362 . S
C974 C975 1.366 . S
C975 C972 1.365 . S
C975 C974 1.366 . S
C975 H989 0.930 . S
C976 C973 1.378 . S
C976 N977 1.315 . S
C976 H979 0.930 . S
N977 Co957 2.194 . S
N977 C972 1.328 . S
N977 C976 1.315 . S
H978 C972 0.929 . S
H979 C976 0.930 . S
H980 C968 0.929 . S
H981 C970 0.929 . S
O982 Co957 2.351 . S
O982 C985 1.244 . S
O983 Co957 2.155 . S
O983 C985 1.240 . S
O984 Co957 2.096 . S
O984 C965 1.247 . S
C985 O982 1.244 . S
C985 O983 1.240 . S
H986 C960 0.931 . S
H987 C969 0.931 . S
H988 C973 0.929 . S
H989 C975 0.930 . S
Co990 N994 2.148 . S
Co990 N1000 2.128 1_554 S
Co990 N1010 2.194 . S
Co990 O1015 2.351 . S
Co990 O1016 2.155 . S
Co990 O1017 2.096 . S
C991 N994 1.301 . S
C991 N995 1.328 . S
C991 H996 0.930 . S
C992 C993 1.333 . S
C992 N994 1.317 . S
C992 H997 0.930 . S
C993 C992 1.333 . S
C993 N995 1.350 . S
C993 H1019 0.931 . S
N994 Co990 2.148 . S
N994 C991 1.301 . S
N994 C992 1.317 . S
N995 C991 1.328 . S
N995 C993 1.350 . S
H996 C991 0.930 . S
H997 C992 0.930 . S
C998 O999 1.224 . S
C998 O1017 1.247 . S
O999 C998 1.224 . S
N1000 Co990 2.128 1_556 S
N1000 C1001 1.355 . S
N1000 C1003 1.311 . S
C1001 N1000 1.355 . S
C1001 C1002 1.363 . S
C1001 H1013 0.929 . S
C1002 C1001 1.363 . S
C1002 N1004 1.375 . S
C1002 H1020 0.931 . S
C1003 N1000 1.311 . S
C1003 N1004 1.347 . S
C1003 H1014 0.929 . S
N1004 C1002 1.375 . S
N1004 C1003 1.347 . S
C1005 C1008 1.365 . S
C1005 N1010 1.328 . S
C1005 H1011 0.929 . S
C1006 C1007 1.362 . S
C1006 C1009 1.378 . S
C1006 H1021 0.929 . S
C1007 C1006 1.362 . S
C1007 C1008 1.366 . S
C1008 C1005 1.365 . S
C1008 C1007 1.366 . S
C1008 H1022 0.930 . S
C1009 C1006 1.378 . S
C1009 N1010 1.315 . S
C1009 H1012 0.930 . S
N1010 Co990 2.194 . S
N1010 C1005 1.328 . S
N1010 C1009 1.315 . S
H1011 C1005 0.929 . S
H1012 C1009 0.930 . S
H1013 C1001 0.929 . S
H1014 C1003 0.929 . S
O1015 Co990 2.351 . S
O1015 C1018 1.244 . S
O1016 Co990 2.155 . S
O1016 C1018 1.240 . S
O1017 Co990 2.096 . S
O1017 C998 1.247 . S
C1018 O1015 1.244 . S
C1018 O1016 1.240 . S
H1019 C993 0.931 . S
H1020 C1002 0.931 . S
H1021 C1006 0.929 . S
H1022 C1008 0.930 . S
Co1023 N1027 2.148 . S
Co1023 N1033 2.128 . S
Co1023 N1043 2.194 . S
Co1023 O1048 2.351 . S
Co1023 O1049 2.155 . S
Co1023 O1050 2.096 . S
C1024 N1027 1.301 . S
C1024 N1028 1.328 1_556 S
C1024 H1029 0.930 . S
C1025 C1026 1.333 1_556 S
C1025 N1027 1.317 . S
C1025 H1030 0.930 . S
C1026 C1025 1.333 1_554 S
C1026 N1028 1.350 . S
C1026 H1052 0.931 . S
N1027 Co1023 2.148 . S
N1027 C1024 1.301 . S
N1027 C1025 1.317 . S
N1028 C1024 1.328 1_554 S
N1028 C1026 1.350 . S
H1029 C1024 0.930 . S
H1030 C1025 0.930 . S
C1031 O1032 1.224 . S
C1031 O1050 1.247 . S
O1032 C1031 1.224 . S
N1033 Co1023 2.128 . S
N1033 C1034 1.355 . S
N1033 C1036 1.311 . S
C1034 N1033 1.355 . S
C1034 C1035 1.363 . S
C1034 H1046 0.929 . S
C1035 C1034 1.363 . S
C1035 N1037 1.375 . S
C1035 H1053 0.931 . S
C1036 N1033 1.311 . S
C1036 N1037 1.347 . S
C1036 H1047 0.929 . S
N1037 C1035 1.375 . S
N1037 C1036 1.347 . S
C1038 C1041 1.365 . S
C1038 N1043 1.328 . S
C1038 H1044 0.929 . S
C1039 C1040 1.362 . S
C1039 C1042 1.378 . S
C1039 H1054 0.929 . S
C1040 C1039 1.362 . S
C1040 C1041 1.366 . S
C1041 C1038 1.365 . S
C1041 C1040 1.366 . S
C1041 H1055 0.930 . S
C1042 C1039 1.378 . S
C1042 N1043 1.315 . S
C1042 H1045 0.930 . S
N1043 Co1023 2.194 . S
N1043 C1038 1.328 . S
N1043 C1042 1.315 . S
H1044 C1038 0.929 . S
H1045 C1042 0.930 . S
H1046 C1034 0.929 . S
H1047 C1036 0.929 . S
O1048 Co1023 2.351 . S
O1048 C1051 1.244 . S
O1049 Co1023 2.155 . S
O1049 C1051 1.240 . S
O1050 Co1023 2.096 . S
O1050 C1031 1.247 . S
C1051 O1048 1.244 . S
C1051 O1049 1.240 . S
H1052 C1026 0.931 . S
H1053 C1035 0.931 . S
H1054 C1039 0.929 . S
H1055 C1041 0.930 . S
H1056 C1064 0.950 . S
H1057 C1069 0.950 . S
H1058 C1066 0.950 . S
H1059 C1068 0.950 . S
H1060 C1070 0.950 . S
H1061 C1072 0.950 . S
H1062 C1074 0.950 . S
H1063 C1075 0.950 . S
C1064 H1056 0.950 . S
C1064 C1065 1.386 . S
C1064 C1066 1.391 . S
C1065 C1064 1.386 . S
C1065 C1069 1.393 . S
C1066 H1058 0.950 . S
C1066 C1064 1.391 . S
C1066 C1067 1.400 . S
C1067 C1066 1.400 . S
C1067 C1068 1.398 . S
C1067 C1073 1.491 . S
C1068 H1059 0.950 . S
C1068 C1067 1.398 . S
C1068 C1069 1.391 . S
C1069 H1057 0.950 . S
C1069 C1065 1.393 . S
C1069 C1068 1.391 . S
C1070 H1060 0.950 . S
C1070 C1071 1.386 . S
C1070 C1072 1.391 . S
C1071 C1070 1.386 . S
C1071 C1075 1.393 . S
C1072 H1061 0.950 . S
C1072 C1070 1.391 . S
C1072 C1073 1.400 . S
C1073 C1067 1.491 . S
C1073 C1072 1.400 . S
C1073 C1074 1.398 . S
C1074 H1062 0.950 . S
C1074 C1073 1.398 . S
C1074 C1075 1.391 . S
C1075 H1063 0.950 . S
C1075 C1071 1.393 . S
C1075 C1074 1.391 . S
H1076 C1084 0.950 . S
H1077 C1089 0.950 . S
H1078 C1086 0.950 . S
H1079 C1088 0.950 . S
H1080 C1090 0.942 1_554 S
H1081 C1092 0.950 . S
H1082 C1094 0.950 . S
H1083 C1095 0.950 1_554 S
C1084 H1076 0.950 . S
C1084 C1085 1.386 . S
C1084 C1086 1.391 . S
C1085 C1084 1.386 . S
C1085 C1089 1.393 . S
C1086 H1078 0.950 . S
C1086 C1084 1.391 . S
C1086 C1087 1.400 . S
C1087 C1086 1.400 . S
C1087 C1088 1.398 . S
C1087 C1093 1.491 . S
C1088 H1079 0.950 . S
C1088 C1087 1.398 . S
C1088 C1089 1.391 . S
C1089 H1077 0.950 . S
C1089 C1085 1.393 . S
C1089 C1088 1.391 . S
C1090 H1080 0.942 1_556 S
C1090 C1091 1.386 1_556 S
C1090 C1092 1.391 . S
C1091 C1090 1.386 1_554 S
C1091 C1095 1.393 1_554 S
C1092 H1081 0.950 . S
C1092 C1090 1.391 . S
C1092 C1093 1.400 . S
C1093 C1087 1.491 . S
C1093 C1092 1.400 . S
C1093 C1094 1.398 . S
C1094 H1082 0.950 . S
C1094 C1093 1.398 . S
C1094 C1095 1.391 . S
C1095 H1083 0.950 1_556 S
C1095 C1091 1.393 1_556 S
C1095 C1094 1.391 . S
H1096 C1104 0.950 . S
H1097 C1109 0.950 . S
H1098 C1106 0.950 1_554 S
H1099 C1108 0.950 1_554 S
H1100 C1110 0.950 . S
H1101 C1112 0.950 . S
H1102 C1114 0.950 . S
H1103 C1115 0.950 . S
C1104 H1096 0.950 . S
C1104 C1105 1.386 . S
C1104 C1106 1.391 . S
C1105 C1104 1.386 . S
C1105 C1109 1.393 . S
C1106 H1098 0.950 1_556 S
C1106 C1104 1.391 . S
C1106 C1107 1.400 1_556 S
C1107 C1106 1.400 1_554 S
C1107 C1108 1.398 1_554 S
C1107 C1113 1.491 . S
C1108 H1099 0.950 1_556 S
C1108 C1107 1.398 1_556 S
C1108 C1109 1.391 . S
C1109 H1097 0.950 . S
C1109 C1105 1.393 . S
C1109 C1108 1.391 . S
C1110 H1100 0.950 . S
C1110 C1111 1.386 . S
C1110 C1112 1.391 . S
C1111 C1110 1.386 . S
C1111 C1115 1.393 . S
C1112 H1101 0.950 . S
C1112 C1110 1.391 . S
C1112 C1113 1.400 . S
C1113 C1107 1.491 . S
C1113 C1112 1.400 . S
C1113 C1114 1.398 . S
C1114 H1102 0.950 . S
C1114 C1113 1.398 . S
C1114 C1115 1.391 . S
C1115 H1103 0.950 . S
C1115 C1111 1.393 . S
C1115 C1114 1.391 . S
H1116 C1124 0.950 . S
H1117 C1129 0.950 . S
H1118 C1126 0.950 . S
H1119 C1128 0.950 . S
H1120 C1130 0.950 . S
H1121 C1132 0.950 . S
H1122 C1134 0.950 . S
H1123 C1135 0.950 . S
C1124 H1116 0.950 . S
C1124 C1125 1.386 . S
C1124 C1126 1.391 . S
C1125 C1124 1.386 . S
C1125 C1129 1.393 . S
C1126 H1118 0.950 . S
C1126 C1124 1.391 . S
C1126 C1127 1.400 . S
C1127 C1126 1.400 . S
C1127 C1128 1.398 . S
C1127 C1133 1.491 . S
C1128 H1119 0.950 . S
C1128 C1127 1.398 . S
C1128 C1129 1.391 . S
C1129 H1117 0.950 . S
C1129 C1125 1.393 . S
C1129 C1128 1.391 . S
C1130 H1120 0.950 . S
C1130 C1131 1.386 . S
C1130 C1132 1.391 . S
C1131 C1130 1.386 . S
C1131 C1135 1.393 . S
C1132 H1121 0.950 . S
C1132 C1130 1.391 . S
C1132 C1133 1.400 . S
C1133 C1127 1.491 . S
C1133 C1132 1.400 . S
C1133 C1134 1.398 . S
C1134 H1122 0.950 . S
C1134 C1133 1.398 . S
C1134 C1135 1.391 . S
C1135 H1123 0.950 . S
C1135 C1131 1.393 . S
C1135 C1134 1.391 . S
H1136 C1144 0.950 . S
H1137 C1149 0.950 . S
H1138 C1146 0.950 . S
H1139 C1148 0.950 . S
H1140 C1150 0.950 . S
H1141 C1152 0.950 . S
H1142 C1154 0.950 . S
H1143 C1155 0.950 . S
C1144 H1136 0.950 . S
C1144 C1145 1.386 . S
C1144 C1146 1.391 . S
C1145 C1144 1.386 . S
C1145 C1149 1.393 . S
C1146 H1138 0.950 . S
C1146 C1144 1.391 . S
C1146 C1147 1.400 . S
C1147 C1146 1.400 . S
C1147 C1148 1.398 . S
C1147 C1153 1.491 . S
C1148 H1139 0.950 . S
C1148 C1147 1.398 . S
C1148 C1149 1.391 . S
C1149 H1137 0.950 . S
C1149 C1145 1.393 . S
C1149 C1148 1.391 . S
C1150 H1140 0.950 . S
C1150 C1151 1.386 . S
C1150 C1152 1.391 . S
C1151 C1150 1.386 . S
C1151 C1155 1.393 . S
C1152 H1141 0.950 . S
C1152 C1150 1.391 . S
C1152 C1153 1.400 . S
C1153 C1147 1.491 . S
C1153 C1152 1.400 . S
C1153 C1154 1.398 . S
C1154 H1142 0.950 . S
C1154 C1153 1.398 . S
C1154 C1155 1.391 . S
C1155 H1143 0.950 . S
C1155 C1151 1.393 . S
C1155 C1154 1.391 . S
H1156 C1164 0.950 . S
H1157 C1169 0.950 . S
H1158 C1166 0.950 . S
H1159 C1168 0.950 . S
H1160 C1170 0.950 . S
H1161 C1172 0.950 . S
H1162 C1174 0.950 . S
H1163 C1175 0.950 . S
C1164 H1156 0.950 . S
C1164 C1165 1.386 . S
C1164 C1166 1.391 . S
C1165 C1164 1.386 . S
C1165 C1169 1.393 . S
C1166 H1158 0.950 . S
C1166 C1164 1.391 . S
C1166 C1167 1.400 . S
C1167 C1166 1.400 . S
C1167 C1168 1.398 . S
C1167 C1173 1.491 . S
C1168 H1159 0.950 . S
C1168 C1167 1.398 . S
C1168 C1169 1.391 . S
C1169 H1157 0.950 . S
C1169 C1165 1.393 . S
C1169 C1168 1.391 . S
C1170 H1160 0.950 . S
C1170 C1171 1.386 . S
C1170 C1172 1.391 . S
C1171 C1170 1.386 . S
C1171 C1175 1.393 . S
C1172 H1161 0.950 . S
C1172 C1170 1.391 . S
C1172 C1173 1.400 . S
C1173 C1167 1.491 . S
C1173 C1172 1.400 . S
C1173 C1174 1.398 . S
C1174 H1162 0.950 . S
C1174 C1173 1.398 . S
C1174 C1175 1.391 . S
C1175 H1163 0.950 . S
C1175 C1171 1.393 . S
C1175 C1174 1.391 . S
H1176 C1184 0.950 . S
H1177 C1189 0.950 . S
H1178 C1186 0.950 . S
H1179 C1188 0.950 . S
H1180 C1190 0.950 . S
H1181 C1192 0.950 1_556 S
H1182 C1194 0.950 1_556 S
H1183 C1195 0.950 . S
C1184 H1176 0.950 . S
C1184 C1185 1.386 . S
C1184 C1186 1.391 . S
C1185 C1184 1.386 . S
C1185 C1189 1.393 . S
C1186 H1178 0.950 . S
C1186 C1184 1.391 . S
C1186 C1187 1.400 . S
C1187 C1186 1.400 . S
C1187 C1188 1.398 . S
C1187 C1193 1.491 . S
C1188 H1179 0.950 . S
C1188 C1187 1.398 . S
C1188 C1189 1.391 . S
C1189 H1177 0.950 . S
C1189 C1185 1.393 . S
C1189 C1188 1.391 . S
C1190 H1180 0.950 . S
C1190 C1191 1.386 . S
C1190 C1192 1.391 . S
C1191 C1190 1.386 . S
C1191 C1195 1.393 . S
C1192 H1181 0.950 1_554 S
C1192 C1190 1.391 . S
C1192 C1193 1.400 1_554 S
C1193 C1187 1.491 . S
C1193 C1192 1.400 1_556 S
C1193 C1194 1.398 1_556 S
C1194 H1182 0.950 1_554 S
C1194 C1193 1.398 1_554 S
C1194 C1195 1.391 . S
C1195 H1183 0.950 . S
C1195 C1191 1.393 . S
C1195 C1194 1.391 . S
H1196 C1204 0.950 1_556 S
H1197 C1209 0.950 1_556 S
H1198 C1206 0.950 . S
H1199 C1208 0.950 . S
H1200 C1210 0.950 . S
H1201 C1212 0.950 . S
H1202 C1214 0.950 . S
H1203 C1215 0.950 . S
C1204 H1196 0.950 1_554 S
C1204 C1205 1.386 1_554 S
C1204 C1206 1.391 . S
C1205 C1204 1.386 1_556 S
C1205 C1209 1.393 1_556 S
C1206 H1198 0.950 . S
C1206 C1204 1.391 . S
C1206 C1207 1.400 . S
C1207 C1206 1.400 . S
C1207 C1208 1.398 . S
C1207 C1213 1.491 . S
C1208 H1199 0.950 . S
C1208 C1207 1.398 . S
C1208 C1209 1.391 . S
C1209 H1197 0.950 1_554 S
C1209 C1205 1.393 1_554 S
C1209 C1208 1.391 . S
C1210 H1200 0.950 . S
C1210 C1211 1.386 . S
C1210 C1212 1.391 . S
C1211 C1210 1.386 . S
C1211 C1215 1.393 . S
C1212 H1201 0.950 . S
C1212 C1210 1.391 . S
C1212 C1213 1.400 . S
C1213 C1207 1.491 . S
C1213 C1212 1.400 . S
C1213 C1214 1.398 . S
C1214 H1202 0.950 . S
C1214 C1213 1.398 . S
C1214 C1215 1.391 . S
C1215 H1203 0.950 . S
C1215 C1211 1.393 . S
C1215 C1214 1.391 . S
H1216 C1224 0.950 . S
H1217 C1229 0.950 . S
H1218 C1226 0.950 . S
H1219 C1228 0.950 . S
H1220 C1230 0.950 . S
H1221 C1232 0.950 . S
H1222 C1234 0.950 . S
H1223 C1235 0.950 . S
C1224 H1216 0.950 . S
C1224 C1225 1.386 . S
C1224 C1226 1.391 . S
C1225 C1224 1.386 . S
C1225 C1229 1.393 . S
C1226 H1218 0.950 . S
C1226 C1224 1.391 . S
C1226 C1227 1.400 . S
C1227 C1226 1.400 . S
C1227 C1228 1.398 . S
C1227 C1233 1.491 . S
C1228 H1219 0.950 . S
C1228 C1227 1.398 . S
C1228 C1229 1.391 . S
C1229 H1217 0.950 . S
C1229 C1225 1.393 . S
C1229 C1228 1.391 . S
C1230 H1220 0.950 . S
C1230 C1231 1.386 . S
C1230 C1232 1.391 . S
C1231 C1230 1.386 . S
C1231 C1235 1.393 . S
C1232 H1221 0.950 . S
C1232 C1230 1.391 . S
C1232 C1233 1.400 . S
C1233 C1227 1.491 . S
C1233 C1232 1.400 . S
C1233 C1234 1.398 . S
C1234 H1222 0.950 . S
C1234 C1233 1.398 . S
C1234 C1235 1.391 . S
C1235 H1223 0.950 . S
C1235 C1231 1.393 . S
C1235 C1234 1.391 . S
H1236 C1244 0.950 1_556 S
H1237 C1249 0.950 1_556 S
H1238 C1246 0.950 . S
H1239 C1248 0.950 . S
H1240 C1250 0.950 . S
H1241 C1252 0.950 . S
H1242 C1254 0.950 . S
H1243 C1255 0.950 . S
C1244 H1236 0.950 1_554 S
C1244 C1245 1.386 1_554 S
C1244 C1246 1.391 . S
C1245 C1244 1.386 1_556 S
C1245 C1249 1.393 1_556 S
C1246 H1238 0.950 . S
C1246 C1244 1.391 . S
C1246 C1247 1.400 . S
C1247 C1246 1.400 . S
C1247 C1248 1.398 . S
C1247 C1253 1.491 . S
C1248 H1239 0.950 . S
C1248 C1247 1.398 . S
C1248 C1249 1.391 . S
C1249 H1237 0.950 1_554 S
C1249 C1245 1.393 1_554 S
C1249 C1248 1.391 . S
C1250 H1240 0.950 . S
C1250 C1251 1.386 . S
C1250 C1252 1.391 . S
C1251 C1250 1.386 . S
C1251 C1255 1.393 . S
C1252 H1241 0.950 . S
C1252 C1250 1.391 . S
C1252 C1253 1.400 . S
C1253 C1247 1.491 . S
C1253 C1252 1.400 . S
C1253 C1254 1.398 . S
C1254 H1242 0.950 . S
C1254 C1253 1.398 . S
C1254 C1255 1.391 . S
C1255 H1243 0.950 . S
C1255 C1251 1.393 . S
C1255 C1254 1.391 . S
H1256 C1264 0.950 . S
H1257 C1269 0.950 . S
H1258 C1266 0.950 . S
H1259 C1268 0.950 . S
H1260 C1270 0.950 . S
H1261 C1272 0.950 1_556 S
H1262 C1274 0.950 1_556 S
H1263 C1275 0.950 . S
C1264 H1256 0.950 . S
C1264 C1265 1.386 . S
C1264 C1266 1.391 . S
C1265 C1264 1.386 . S
C1265 C1269 1.393 . S
C1266 H1258 0.950 . S
C1266 C1264 1.391 . S
C1266 C1267 1.400 . S
C1267 C1266 1.400 . S
C1267 C1268 1.398 . S
C1267 C1273 1.491 . S
C1268 H1259 0.950 . S
C1268 C1267 1.398 . S
C1268 C1269 1.391 . S
C1269 H1257 0.950 . S
C1269 C1265 1.393 . S
C1269 C1268 1.391 . S
C1270 H1260 0.950 . S
C1270 C1271 1.386 . S
C1270 C1272 1.391 . S
C1271 C1270 1.386 . S
C1271 C1275 1.393 . S
C1272 H1261 0.950 1_554 S
C1272 C1270 1.391 . S
C1272 C1273 1.400 1_554 S
C1273 C1267 1.491 . S
C1273 C1272 1.400 1_556 S
C1273 C1274 1.398 1_556 S
C1274 H1262 0.950 1_554 S
C1274 C1273 1.398 1_554 S
C1274 C1275 1.391 . S
C1275 H1263 0.950 . S
C1275 C1271 1.393 . S
C1275 C1274 1.391 . S
H1276 C1284 0.950 . S
H1277 C1289 0.950 . S
H1278 C1286 0.950 . S
H1279 C1288 0.950 . S
H1280 C1290 0.950 . S
H1281 C1292 0.950 . S
H1282 C1294 0.950 . S
H1283 C1295 0.950 . S
C1284 H1276 0.950 . S
C1284 C1285 1.386 . S
C1284 C1286 1.391 . S
C1285 C1284 1.386 . S
C1285 C1289 1.393 . S
C1286 H1278 0.950 . S
C1286 C1284 1.391 . S
C1286 C1287 1.400 . S
C1287 C1286 1.400 . S
C1287 C1288 1.398 . S
C1287 C1293 1.491 . S
C1288 H1279 0.950 . S
C1288 C1287 1.398 . S
C1288 C1289 1.391 . S
C1289 H1277 0.950 . S
C1289 C1285 1.393 . S
C1289 C1288 1.391 . S
C1290 H1280 0.950 . S
C1290 C1291 1.386 . S
C1290 C1292 1.391 . S
C1291 C1290 1.386 . S
C1291 C1295 1.393 . S
C1292 H1281 0.950 . S
C1292 C1290 1.391 . S
C1292 C1293 1.400 . S
C1293 C1287 1.491 . S
C1293 C1292 1.400 . S
C1293 C1294 1.398 . S
C1294 H1282 0.950 . S
C1294 C1293 1.398 . S
C1294 C1295 1.391 . S
C1295 H1283 0.950 . S
C1295 C1291 1.393 . S
C1295 C1294 1.391 . S
H1296 C1304 0.950 . S
H1297 C1309 0.950 . S
H1298 C1306 0.950 . S
H1299 C1308 0.950 . S
H1300 C1310 0.950 . S
H1301 C1312 0.950 . S
H1302 C1314 0.950 . S
H1303 C1315 0.950 . S
C1304 H1296 0.950 . S
C1304 C1305 1.386 . S
C1304 C1306 1.391 . S
C1305 C1304 1.386 . S
C1305 C1309 1.393 . S
C1306 H1298 0.950 . S
C1306 C1304 1.391 . S
C1306 C1307 1.400 . S
C1307 C1306 1.400 . S
C1307 C1308 1.398 . S
C1307 C1313 1.491 . S
C1308 H1299 0.950 . S
C1308 C1307 1.398 . S
C1308 C1309 1.391 . S
C1309 H1297 0.950 . S
C1309 C1305 1.393 . S
C1309 C1308 1.391 . S
C1310 H1300 0.950 . S
C1310 C1311 1.386 . S
C1310 C1312 1.391 . S
C1311 C1310 1.386 . S
C1311 C1315 1.393 . S
C1312 H1301 0.950 . S
C1312 C1310 1.391 . S
C1312 C1313 1.400 . S
C1313 C1307 1.491 . S
C1313 C1312 1.400 . S
C1313 C1314 1.398 . S
C1314 H1302 0.950 . S
C1314 C1313 1.398 . S
C1314 C1315 1.391 . S
C1315 H1303 0.950 . S
C1315 C1311 1.393 . S
C1315 C1314 1.391 . S
H1316 C1324 0.950 . S
H1317 C1329 0.950 . S
H1318 C1326 0.950 . S
H1319 C1328 0.950 . S
H1320 C1330 0.950 . S
H1321 C1332 0.950 . S
H1322 C1334 0.950 . S
H1323 C1335 0.950 . S
C1324 H1316 0.950 . S
C1324 C1325 1.386 . S
C1324 C1326 1.391 . S
C1325 C1324 1.386 . S
C1325 C1329 1.393 . S
C1326 H1318 0.950 . S
C1326 C1324 1.391 . S
C1326 C1327 1.400 . S
C1327 C1326 1.400 . S
C1327 C1328 1.398 . S
C1327 C1333 1.491 . S
C1328 H1319 0.950 . S
C1328 C1327 1.398 . S
C1328 C1329 1.391 . S
C1329 H1317 0.950 . S
C1329 C1325 1.393 . S
C1329 C1328 1.391 . S
C1330 H1320 0.950 . S
C1330 C1331 1.386 . S
C1330 C1332 1.391 . S
C1331 C1330 1.386 . S
C1331 C1335 1.393 . S
C1332 H1321 0.950 . S
C1332 C1330 1.391 . S
C1332 C1333 1.400 . S
C1333 C1327 1.491 . S
C1333 C1332 1.400 . S
C1333 C1334 1.398 . S
C1334 H1322 0.950 . S
C1334 C1333 1.398 . S
C1334 C1335 1.391 . S
C1335 H1323 0.950 . S
C1335 C1331 1.393 . S
C1335 C1334 1.391 . S
H1336 C1344 0.950 . S
H1337 C1349 0.950 . S
H1338 C1346 0.950 1_554 S
H1339 C1348 0.950 1_554 S
H1340 C1350 0.950 . S
H1341 C1352 0.950 . S
H1342 C1354 0.950 . S
H1343 C1355 0.950 . S
C1344 H1336 0.950 . S
C1344 C1345 1.386 . S
C1344 C1346 1.391 . S
C1345 C1344 1.386 . S
C1345 C1349 1.393 . S
C1346 H1338 0.950 1_556 S
C1346 C1344 1.391 . S
C1346 C1347 1.400 1_556 S
C1347 C1346 1.400 1_554 S
C1347 C1348 1.398 1_554 S
C1347 C1353 1.491 . S
C1348 H1339 0.950 1_556 S
C1348 C1347 1.398 1_556 S
C1348 C1349 1.391 . S
C1349 H1337 0.950 . S
C1349 C1345 1.393 . S
C1349 C1348 1.391 . S
C1350 H1340 0.950 . S
C1350 C1351 1.386 . S
C1350 C1352 1.391 . S
C1351 C1350 1.386 . S
C1351 C1355 1.393 . S
C1352 H1341 0.950 . S
C1352 C1350 1.391 . S
C1352 C1353 1.400 . S
C1353 C1347 1.491 . S
C1353 C1352 1.400 . S
C1353 C1354 1.398 . S
C1354 H1342 0.950 . S
C1354 C1353 1.398 . S
C1354 C1355 1.391 . S
C1355 H1343 0.950 . S
C1355 C1351 1.393 . S
C1355 C1354 1.391 . S
H1356 C1364 0.950 1_554 S
H1357 C1369 0.950 1_554 S
H1358 C1366 0.950 . S
H1359 C1368 0.950 . S
H1360 C1370 0.950 . S
H1361 C1372 0.950 . S
H1362 C1374 0.950 . S
H1363 C1375 0.950 . S
C1364 H1356 0.950 1_556 S
C1364 C1365 1.386 1_556 S
C1364 C1366 1.391 . S
C1365 C1364 1.386 1_554 S
C1365 C1369 1.393 1_554 S
C1366 H1358 0.950 . S
C1366 C1364 1.391 . S
C1366 C1367 1.400 . S
C1367 C1366 1.400 . S
C1367 C1368 1.398 . S
C1367 C1373 1.491 . S
C1368 H1359 0.950 . S
C1368 C1367 1.398 . S
C1368 C1369 1.391 . S
C1369 H1357 0.950 1_556 S
C1369 C1365 1.393 1_556 S
C1369 C1368 1.391 . S
C1370 H1360 0.950 . S
C1370 C1371 1.386 . S
C1370 C1372 1.391 . S
C1371 C1370 1.386 . S
C1371 C1375 1.393 . S
C1372 H1361 0.950 . S
C1372 C1370 1.391 . S
C1372 C1373 1.400 . S
C1373 C1367 1.491 . S
C1373 C1372 1.400 . S
C1373 C1374 1.398 . S
C1374 H1362 0.950 . S
C1374 C1373 1.398 . S
C1374 C1375 1.391 . S
C1375 H1363 0.950 . S
C1375 C1371 1.393 . S
C1375 C1374 1.391 . S
H1376 C1384 0.950 . S
H1377 C1389 0.950 . S
H1378 C1386 0.950 1_554 S
H1379 C1388 0.950 1_554 S
H1380 C1390 0.950 . S
H1381 C1392 0.950 . S
H1382 C1394 0.950 . S
H1383 C1395 0.950 . S
C1384 H1376 0.950 . S
C1384 C1385 1.386 . S
C1384 C1386 1.391 . S
C1385 C1384 1.386 . S
C1385 C1389 1.393 . S
C1386 H1378 0.950 1_556 S
C1386 C1384 1.391 . S
C1386 C1387 1.400 1_556 S
C1387 C1386 1.400 1_554 S
C1387 C1388 1.398 1_554 S
C1387 C1393 1.491 . S
C1388 H1379 0.950 1_556 S
C1388 C1387 1.398 1_556 S
C1388 C1389 1.391 . S
C1389 H1377 0.950 . S
C1389 C1385 1.393 . S
C1389 C1388 1.391 . S
C1390 H1380 0.950 . S
C1390 C1391 1.386 . S
C1390 C1392 1.391 . S
C1391 C1390 1.386 . S
C1391 C1395 1.393 . S
C1392 H1381 0.950 . S
C1392 C1390 1.391 . S
C1392 C1393 1.400 . S
C1393 C1387 1.491 . S
C1393 C1392 1.400 . S
C1393 C1394 1.398 . S
C1394 H1382 0.950 . S
C1394 C1393 1.398 . S
C1394 C1395 1.391 . S
C1395 H1383 0.950 . S
C1395 C1391 1.393 . S
C1395 C1394 1.391 . S
H1396 C1404 0.950 . S
H1397 C1409 0.950 . S
H1398 C1406 0.950 . S
H1399 C1408 0.950 . S
H1400 C1410 0.950 . S
H1401 C1412 0.950 . S
H1402 C1414 0.950 . S
H1403 C1415 0.950 . S
C1404 H1396 0.950 . S
C1404 C1405 1.386 . S
C1404 C1406 1.391 . S
C1405 C1404 1.386 . S
C1405 C1409 1.393 . S
C1406 H1398 0.950 . S
C1406 C1404 1.391 . S
C1406 C1407 1.400 . S
C1407 C1406 1.400 . S
C1407 C1408 1.398 . S
C1407 C1413 1.491 . S
C1408 H1399 0.950 . S
C1408 C1407 1.398 . S
C1408 C1409 1.391 . S
C1409 H1397 0.950 . S
C1409 C1405 1.393 . S
C1409 C1408 1.391 . S
C1410 H1400 0.950 . S
C1410 C1411 1.386 . S
C1410 C1412 1.391 . S
C1411 C1410 1.386 . S
C1411 C1415 1.393 . S
C1412 H1401 0.950 . S
C1412 C1410 1.391 . S
C1412 C1413 1.400 . S
C1413 C1407 1.491 . S
C1413 C1412 1.400 . S
C1413 C1414 1.398 . S
C1414 H1402 0.950 . S
C1414 C1413 1.398 . S
C1414 C1415 1.391 . S
C1415 H1403 0.950 . S
C1415 C1411 1.393 . S
C1415 C1414 1.391 . S
H1416 C1424 0.950 . S
H1417 C1429 0.950 . S
H1418 C1426 0.950 . S
H1419 C1428 0.950 . S
H1420 C1430 0.950 . S
H1421 C1432 0.950 . S
H1422 C1434 0.950 . S
H1423 C1435 0.950 . S
C1424 H1416 0.950 . S
C1424 C1425 1.386 . S
C1424 C1426 1.391 . S
C1425 C1424 1.386 . S
C1425 C1429 1.393 . S
C1426 H1418 0.950 . S
C1426 C1424 1.391 . S
C1426 C1427 1.400 . S
C1427 C1426 1.400 . S
C1427 C1428 1.398 . S
C1427 C1433 1.491 . S
C1428 H1419 0.950 . S
C1428 C1427 1.398 . S
C1428 C1429 1.391 . S
C1429 H1417 0.950 . S
C1429 C1425 1.393 . S
C1429 C1428 1.391 . S
C1430 H1420 0.950 . S
C1430 C1431 1.386 . S
C1430 C1432 1.391 . S
C1431 C1430 1.386 . S
C1431 C1435 1.393 . S
C1432 H1421 0.950 . S
C1432 C1430 1.391 . S
C1432 C1433 1.400 . S
C1433 C1427 1.491 . S
C1433 C1432 1.400 . S
C1433 C1434 1.398 . S
C1434 H1422 0.950 . S
C1434 C1433 1.398 . S
C1434 C1435 1.391 . S
C1435 H1423 0.950 . S
C1435 C1431 1.393 . S
C1435 C1434 1.391 . S
H1436 C1444 0.950 . S
H1437 C1449 0.950 . S
H1438 C1446 0.950 . S
H1439 C1448 0.950 . S
H1440 C1450 0.950 1_554 S
H1441 C1452 0.950 . S
H1442 C1454 0.950 . S
H1443 C1455 0.950 1_554 S
C1444 H1436 0.950 . S
C1444 C1445 1.386 . S
C1444 C1446 1.391 . S
C1445 C1444 1.386 . S
C1445 C1449 1.393 . S
C1446 H1438 0.950 . S
C1446 C1444 1.391 . S
C1446 C1447 1.400 . S
C1447 C1446 1.400 . S
C1447 C1448 1.398 . S
C1447 C1453 1.491 . S
C1448 H1439 0.950 . S
C1448 C1447 1.398 . S
C1448 C1449 1.391 . S
C1449 H1437 0.950 . S
C1449 C1445 1.393 . S
C1449 C1448 1.391 . S
C1450 H1440 0.950 1_556 S
C1450 C1451 1.386 1_556 S
C1450 C1452 1.391 . S
C1451 C1450 1.386 1_554 S
C1451 C1455 1.393 1_554 S
C1452 H1441 0.950 . S
C1452 C1450 1.391 . S
C1452 C1453 1.400 . S
C1453 C1447 1.491 . S
C1453 C1452 1.400 . S
C1453 C1454 1.398 . S
C1454 H1442 0.950 . S
C1454 C1453 1.398 . S
C1454 C1455 1.391 . S
C1455 H1443 0.950 1_556 S
C1455 C1451 1.393 1_556 S
C1455 C1454 1.391 . S
H1456 C1464 0.950 . S
H1457 C1469 0.950 . S
H1458 C1466 0.950 1_556 S
H1459 C1468 0.950 1_556 S
H1460 C1470 0.950 . S
H1461 C1472 0.950 . S
H1462 C1474 0.950 . S
H1463 C1475 0.950 . S
C1464 H1456 0.950 . S
C1464 C1465 1.386 . S
C1464 C1466 1.391 . S
C1465 C1464 1.386 . S
C1465 C1469 1.393 . S
C1466 H1458 0.950 1_554 S
C1466 C1464 1.391 . S
C1466 C1467 1.400 1_554 S
C1467 C1466 1.400 1_556 S
C1467 C1468 1.398 1_556 S
C1467 C1473 1.491 . S
C1468 H1459 0.950 1_554 S
C1468 C1467 1.398 1_554 S
C1468 C1469 1.391 . S
C1469 H1457 0.950 . S
C1469 C1465 1.393 . S
C1469 C1468 1.391 . S
C1470 H1460 0.950 . S
C1470 C1471 1.386 . S
C1470 C1472 1.391 . S
C1471 C1470 1.386 . S
C1471 C1475 1.393 . S
C1472 H1461 0.950 . S
C1472 C1470 1.391 . S
C1472 C1473 1.400 . S
C1473 C1467 1.491 . S
C1473 C1472 1.400 . S
C1473 C1474 1.398 . S
C1474 H1462 0.950 . S
C1474 C1473 1.398 . S
C1474 C1475 1.391 . S
C1475 H1463 0.950 . S
C1475 C1471 1.393 . S
C1475 C1474 1.391 . S
H1476 C1484 0.950 . S
H1477 C1489 0.950 . S
H1478 C1486 0.950 . S
H1479 C1488 0.950 . S
H1480 C1490 0.950 1_556 S
H1481 C1492 0.950 . S
H1482 C1494 0.950 . S
H1483 C1495 0.950 1_556 S
C1484 H1476 0.950 . S
C1484 C1485 1.386 . S
C1484 C1486 1.391 . S
C1485 C1484 1.386 . S
C1485 C1489 1.393 . S
C1486 H1478 0.950 . S
C1486 C1484 1.391 . S
C1486 C1487 1.400 . S
C1487 C1486 1.400 . S
C1487 C1488 1.398 . S
C1487 C1493 1.491 . S
C1488 H1479 0.950 . S
C1488 C1487 1.398 . S
C1488 C1489 1.391 . S
C1489 H1477 0.950 . S
C1489 C1485 1.393 . S
C1489 C1488 1.391 . S
C1490 H1480 0.950 1_554 S
C1490 C1491 1.386 1_554 S
C1490 C1492 1.391 . S
C1491 C1490 1.386 1_556 S
C1491 C1495 1.393 1_556 S
C1492 H1481 0.950 . S
C1492 C1490 1.391 . S
C1492 C1493 1.400 . S
C1493 C1487 1.491 . S
C1493 C1492 1.400 . S
C1493 C1494 1.398 . S
C1494 H1482 0.950 . S
C1494 C1493 1.398 . S
C1494 C1495 1.391 . S
C1495 H1483 0.950 1_554 S
C1495 C1491 1.393 1_554 S
C1495 C1494 1.391 . S
H1496 C1504 0.950 . S
H1497 C1509 0.950 . S
H1498 C1506 0.950 . S
H1499 C1508 0.950 . S
H1500 C1510 0.950 . S
H1501 C1512 0.950 . S
H1502 C1514 0.950 . S
H1503 C1515 0.950 . S
C1504 H1496 0.950 . S
C1504 C1505 1.386 . S
C1504 C1506 1.391 . S
C1505 C1504 1.386 . S
C1505 C1509 1.393 . S
C1506 H1498 0.950 . S
C1506 C1504 1.391 . S
C1506 C1507 1.400 . S
C1507 C1506 1.400 . S
C1507 C1508 1.398 . S
C1507 C1513 1.491 . S
C1508 H1499 0.950 . S
C1508 C1507 1.398 . S
C1508 C1509 1.391 . S
C1509 H1497 0.950 . S
C1509 C1505 1.393 . S
C1509 C1508 1.391 . S
C1510 H1500 0.950 . S
C1510 C1511 1.386 . S
C1510 C1512 1.391 . S
C1511 C1510 1.386 . S
C1511 C1515 1.393 . S
C1512 H1501 0.950 . S
C1512 C1510 1.391 . S
C1512 C1513 1.400 . S
C1513 C1507 1.491 . S
C1513 C1512 1.400 . S
C1513 C1514 1.398 . S
C1514 H1502 0.950 . S
C1514 C1513 1.398 . S
C1514 C1515 1.391 . S
C1515 H1503 0.950 . S
C1515 C1511 1.393 . S
C1515 C1514 1.391 . S
H1516 C1524 0.950 . S
H1517 C1529 0.950 . S
H1518 C1526 0.950 . S
H1519 C1528 0.950 . S
H1520 C1530 0.950 . S
H1521 C1532 0.950 . S
H1522 C1534 0.950 . S
H1523 C1535 0.950 . S
C1524 H1516 0.950 . S
C1524 C1525 1.386 . S
C1524 C1526 1.391 . S
C1525 C1524 1.386 . S
C1525 C1529 1.393 . S
C1526 H1518 0.950 . S
C1526 C1524 1.391 . S
C1526 C1527 1.400 . S
C1527 C1526 1.400 . S
C1527 C1528 1.398 . S
C1527 C1533 1.491 . S
C1528 H1519 0.950 . S
C1528 C1527 1.398 . S
C1528 C1529 1.391 . S
C1529 H1517 0.950 . S
C1529 C1525 1.393 . S
C1529 C1528 1.391 . S
C1530 H1520 0.950 . S
C1530 C1531 1.386 . S
C1530 C1532 1.391 . S
C1531 C1530 1.386 . S
C1531 C1535 1.393 . S
C1532 H1521 0.950 . S
C1532 C1530 1.391 . S
C1532 C1533 1.400 . S
C1533 C1527 1.491 . S
C1533 C1532 1.400 . S
C1533 C1534 1.398 . S
C1534 H1522 0.950 . S
C1534 C1533 1.398 . S
C1534 C1535 1.391 . S
C1535 H1523 0.950 . S
C1535 C1531 1.393 . S
C1535 C1534 1.391 . S
H1536 C1544 0.950 . S
H1537 C1549 0.950 . S
H1538 C1546 0.950 1_556 S
H1539 C1548 0.950 1_556 S
H1540 C1550 0.950 . S
H1541 C1552 0.950 . S
H1542 C1554 0.950 . S
H1543 C1555 0.950 . S
C1544 H1536 0.950 . S
C1544 C1545 1.386 . S
C1544 C1546 1.391 . S
C1545 C1544 1.386 . S
C1545 C1549 1.393 . S
C1546 H1538 0.950 1_554 S
C1546 C1544 1.391 . S
C1546 C1547 1.400 1_554 S
C1547 C1546 1.400 1_556 S
C1547 C1548 1.398 1_556 S
C1547 C1553 1.491 . S
C1548 H1539 0.950 1_554 S
C1548 C1547 1.398 1_554 S
C1548 C1549 1.391 . S
C1549 H1537 0.950 . S
C1549 C1545 1.393 . S
C1549 C1548 1.391 . S
C1550 H1540 0.950 . S
C1550 C1551 1.386 . S
C1550 C1552 1.391 . S
C1551 C1550 1.386 . S
C1551 C1555 1.393 . S
C1552 H1541 0.950 . S
C1552 C1550 1.391 . S
C1552 C1553 1.400 . S
C1553 C1547 1.491 . S
C1553 C1552 1.400 . S
C1553 C1554 1.398 . S
C1554 H1542 0.950 . S
C1554 C1553 1.398 . S
C1554 C1555 1.391 . S
C1555 H1543 0.950 . S
C1555 C1551 1.393 . S
C1555 C1554 1.391 . S
H1556 C1564 0.950 . S
H1557 C1569 0.950 . S
H1558 C1566 0.950 . S
H1559 C1568 0.950 . S
H1560 C1570 0.950 . S
H1561 C1572 0.950 . S
H1562 C1574 0.950 . S
H1563 C1575 0.950 . S
C1564 H1556 0.950 . S
C1564 C1565 1.386 . S
C1564 C1566 1.391 . S
C1565 C1564 1.386 . S
C1565 C1569 1.393 . S
C1566 H1558 0.950 . S
C1566 C1564 1.391 . S
C1566 C1567 1.400 . S
C1567 C1566 1.400 . S
C1567 C1568 1.398 . S
C1567 C1573 1.491 . S
C1568 H1559 0.950 . S
C1568 C1567 1.398 . S
C1568 C1569 1.391 . S
C1569 H1557 0.950 . S
C1569 C1565 1.393 . S
C1569 C1568 1.391 . S
C1570 H1560 0.950 . S
C1570 C1571 1.386 . S
C1570 C1572 1.391 . S
C1571 C1570 1.386 . S
C1571 C1575 1.393 . S
C1572 H1561 0.950 . S
C1572 C1570 1.391 . S
C1572 C1573 1.400 . S
C1573 C1567 1.491 . S
C1573 C1572 1.400 . S
C1573 C1574 1.398 . S
C1574 H1562 0.950 . S
C1574 C1573 1.398 . S
C1574 C1575 1.391 . S
C1575 H1563 0.950 . S
C1575 C1571 1.393 . S
C1575 C1574 1.391 . S
H1576 C1584 0.950 . S
H1577 C1589 0.950 . S
H1578 C1586 0.950 . S
H1579 C1588 0.950 . S
H1580 C1590 0.950 . S
H1581 C1592 0.950 . S
H1582 C1594 0.950 . S
H1583 C1595 0.950 . S
C1584 H1576 0.950 . S
C1584 C1585 1.386 . S
C1584 C1586 1.391 . S
C1585 C1584 1.386 . S
C1585 C1589 1.393 . S
C1586 H1578 0.950 . S
C1586 C1584 1.391 . S
C1586 C1587 1.400 . S
C1587 C1586 1.400 . S
C1587 C1588 1.398 . S
C1587 C1593 1.491 . S
C1588 H1579 0.950 . S
C1588 C1587 1.398 . S
C1588 C1589 1.391 . S
C1589 H1577 0.950 . S
C1589 C1585 1.393 . S
C1589 C1588 1.391 . S
C1590 H1580 0.950 . S
C1590 C1591 1.386 . S
C1590 C1592 1.391 . S
C1591 C1590 1.386 . S
C1591 C1595 1.393 . S
C1592 H1581 0.950 . S
C1592 C1590 1.391 . S
C1592 C1593 1.400 . S
C1593 C1587 1.491 . S
C1593 C1592 1.400 . S
C1593 C1594 1.398 . S
C1594 H1582 0.950 . S
C1594 C1593 1.398 . S
C1594 C1595 1.391 . S
C1595 H1583 0.950 . S
C1595 C1591 1.393 . S
C1595 C1594 1.391 . S
H1596 C1604 0.950 1_556 S
H1597 C1609 0.950 1_556 S
H1598 C1606 0.950 . S
H1599 C1608 0.950 . S
H1600 C1610 0.950 . S
H1601 C1612 0.950 . S
H1602 C1614 0.950 . S
H1603 C1615 0.950 . S
C1604 H1596 0.950 1_554 S
C1604 C1605 1.386 1_554 S
C1604 C1606 1.391 . S
C1605 C1604 1.386 1_556 S
C1605 C1609 1.393 1_556 S
C1606 H1598 0.950 . S
C1606 C1604 1.391 . S
C1606 C1607 1.400 . S
C1607 C1606 1.400 . S
C1607 C1608 1.398 . S
C1607 C1613 1.491 . S
C1608 H1599 0.950 . S
C1608 C1607 1.398 . S
C1608 C1609 1.391 . S
C1609 H1597 0.950 1_554 S
C1609 C1605 1.393 1_554 S
C1609 C1608 1.391 . S
C1610 H1600 0.950 . S
C1610 C1611 1.386 . S
C1610 C1612 1.391 . S
C1611 C1610 1.386 . S
C1611 C1615 1.393 . S
C1612 H1601 0.950 . S
C1612 C1610 1.391 . S
C1612 C1613 1.400 . S
C1613 C1607 1.491 . S
C1613 C1612 1.400 . S
C1613 C1614 1.398 . S
C1614 H1602 0.950 . S
C1614 C1613 1.398 . S
C1614 C1615 1.391 . S
C1615 H1603 0.950 . S
C1615 C1611 1.393 . S
C1615 C1614 1.391 . S
H1616 C1624 0.950 . S
H1617 C1629 0.950 . S
H1618 C1626 0.950 . S
H1619 C1628 0.950 . S
H1620 C1630 0.950 . S
H1621 C1632 0.950 1_554 S
H1622 C1634 0.950 1_554 S
H1623 C1635 0.950 . S
C1624 H1616 0.950 . S
C1624 C1625 1.386 . S
C1624 C1626 1.391 . S
C1625 C1624 1.386 . S
C1625 C1629 1.393 . S
C1626 H1618 0.950 . S
C1626 C1624 1.391 . S
C1626 C1627 1.400 . S
C1627 C1626 1.400 . S
C1627 C1628 1.398 . S
C1627 C1633 1.491 . S
C1628 H1619 0.950 . S
C1628 C1627 1.398 . S
C1628 C1629 1.391 . S
C1629 H1617 0.950 . S
C1629 C1625 1.393 . S
C1629 C1628 1.391 . S
C1630 H1620 0.950 . S
C1630 C1631 1.386 . S
C1630 C1632 1.391 . S
C1631 C1630 1.386 . S
C1631 C1635 1.393 . S
C1632 H1621 0.950 1_556 S
C1632 C1630 1.391 . S
C1632 C1633 1.400 1_556 S
C1633 C1627 1.491 . S
C1633 C1632 1.400 1_554 S
C1633 C1634 1.398 1_554 S
C1634 H1622 0.950 1_556 S
C1634 C1633 1.398 1_556 S
C1634 C1635 1.391 . S
C1635 H1623 0.950 . S
C1635 C1631 1.393 . S
C1635 C1634 1.391 . S
H1636 C1644 0.950 1_554 S
H1637 C1649 0.950 1_554 S
H1638 C1646 0.950 . S
H1639 C1648 0.950 . S
H1640 C1650 0.950 . S
H1641 C1652 0.950 . S
H1642 C1654 0.950 . S
H1643 C1655 0.950 . S
C1644 H1636 0.950 1_556 S
C1644 C1645 1.386 1_556 S
C1644 C1646 1.391 . S
C1645 C1644 1.386 1_554 S
C1645 C1649 1.393 1_554 S
C1646 H1638 0.950 . S
C1646 C1644 1.391 . S
C1646 C1647 1.400 . S
C1647 C1646 1.400 . S
C1647 C1648 1.398 . S
C1647 C1653 1.491 . S
C1648 H1639 0.950 . S
C1648 C1647 1.398 . S
C1648 C1649 1.391 . S
C1649 H1637 0.950 1_556 S
C1649 C1645 1.393 1_556 S
C1649 C1648 1.391 . S
C1650 H1640 0.950 . S
C1650 C1651 1.386 . S
C1650 C1652 1.391 . S
C1651 C1650 1.386 . S
C1651 C1655 1.393 . S
C1652 H1641 0.950 . S
C1652 C1650 1.391 . S
C1652 C1653 1.400 . S
C1653 C1647 1.491 . S
C1653 C1652 1.400 . S
C1653 C1654 1.398 . S
C1654 H1642 0.950 . S
C1654 C1653 1.398 . S
C1654 C1655 1.391 . S
C1655 H1643 0.950 . S
C1655 C1651 1.393 . S
C1655 C1654 1.391 . S
H1656 C1664 0.950 . S
H1657 C1669 0.950 . S
H1658 C1666 0.950 . S
H1659 C1668 0.950 . S
H1660 C1670 0.950 . S
H1661 C1672 0.950 . S
H1662 C1674 0.950 . S
H1663 C1675 0.950 . S
C1664 H1656 0.950 . S
C1664 C1665 1.386 . S
C1664 C1666 1.391 . S
C1665 C1664 1.386 . S
C1665 C1669 1.393 . S
C1666 H1658 0.950 . S
C1666 C1664 1.391 . S
C1666 C1667 1.400 . S
C1667 C1666 1.400 . S
C1667 C1668 1.398 . S
C1667 C1673 1.491 . S
C1668 H1659 0.950 . S
C1668 C1667 1.398 . S
C1668 C1669 1.391 . S
C1669 H1657 0.950 . S
C1669 C1665 1.393 . S
C1669 C1668 1.391 . S
C1670 H1660 0.950 . S
C1670 C1671 1.386 . S
C1670 C1672 1.391 . S
C1671 C1670 1.386 . S
C1671 C1675 1.393 . S
C1672 H1661 0.950 . S
C1672 C1670 1.391 . S
C1672 C1673 1.400 . S
C1673 C1667 1.491 . S
C1673 C1672 1.400 . S
C1673 C1674 1.398 . S
C1674 H1662 0.950 . S
C1674 C1673 1.398 . S
C1674 C1675 1.391 . S
C1675 H1663 0.950 . S
C1675 C1671 1.393 . S
C1675 C1674 1.391 . S
H1676 C1684 0.950 . S
H1677 C1689 0.950 . S
H1678 C1686 0.950 . S
H1679 C1688 0.950 . S
H1680 C1690 0.950 . S
H1681 C1692 0.950 . S
H1682 C1694 0.950 . S
H1683 C1695 0.950 . S
C1684 H1676 0.950 . S
C1684 C1685 1.386 . S
C1684 C1686 1.391 . S
C1685 C1684 1.386 . S
C1685 C1689 1.393 . S
C1686 H1678 0.950 . S
C1686 C1684 1.391 . S
C1686 C1687 1.400 . S
C1687 C1686 1.400 . S
C1687 C1688 1.398 . S
C1687 C1693 1.491 . S
C1688 H1679 0.950 . S
C1688 C1687 1.398 . S
C1688 C1689 1.391 . S
C1689 H1677 0.950 . S
C1689 C1685 1.393 . S
C1689 C1688 1.391 . S
C1690 H1680 0.950 . S
C1690 C1691 1.386 . S
C1690 C1692 1.391 . S
C1691 C1690 1.386 . S
C1691 C1695 1.393 . S
C1692 H1681 0.950 . S
C1692 C1690 1.391 . S
C1692 C1693 1.400 . S
C1693 C1687 1.491 . S
C1693 C1692 1.400 . S
C1693 C1694 1.398 . S
C1694 H1682 0.950 . S
C1694 C1693 1.398 . S
C1694 C1695 1.391 . S
C1695 H1683 0.950 . S
C1695 C1691 1.393 . S
C1695 C1694 1.391 . S
H1696 C1704 0.950 . S
H1697 C1709 0.950 . S
H1698 C1706 0.950 . S
H1699 C1708 0.950 . S
H1700 C1710 0.950 . S
H1701 C1712 0.950 . S
H1702 C1714 0.950 . S
H1703 C1715 0.950 . S
C1704 H1696 0.950 . S
C1704 C1705 1.386 . S
C1704 C1706 1.391 . S
C1705 C1704 1.386 . S
C1705 C1709 1.393 . S
C1706 H1698 0.950 . S
C1706 C1704 1.391 . S
C1706 C1707 1.400 . S
C1707 C1706 1.400 . S
C1707 C1708 1.398 . S
C1707 C1713 1.491 . S
C1708 H1699 0.950 . S
C1708 C1707 1.398 . S
C1708 C1709 1.391 . S
C1709 H1697 0.950 . S
C1709 C1705 1.393 . S
C1709 C1708 1.391 . S
C1710 H1700 0.950 . S
C1710 C1711 1.386 . S
C1710 C1712 1.391 . S
C1711 C1710 1.386 . S
C1711 C1715 1.393 . S
C1712 H1701 0.950 . S
C1712 C1710 1.391 . S
C1712 C1713 1.400 . S
C1713 C1707 1.491 . S
C1713 C1712 1.400 . S
C1713 C1714 1.398 . S
C1714 H1702 0.950 . S
C1714 C1713 1.398 . S
C1714 C1715 1.391 . S
C1715 H1703 0.950 . S
C1715 C1711 1.393 . S
C1715 C1714 1.391 . S
H1716 C1724 0.950 . S
H1717 C1729 0.950 . S
H1718 C1726 0.950 . S
H1719 C1728 0.950 . S
H1720 C1730 0.950 . S
H1721 C1732 0.950 . S
H1722 C1734 0.950 . S
H1723 C1735 0.950 . S
C1724 H1716 0.950 . S
C1724 C1725 1.386 . S
C1724 C1726 1.391 . S
C1725 C1724 1.386 . S
C1725 C1729 1.393 . S
C1726 H1718 0.950 . S
C1726 C1724 1.391 . S
C1726 C1727 1.400 . S
C1727 C1726 1.400 . S
C1727 C1728 1.398 . S
C1727 C1733 1.491 . S
C1728 H1719 0.950 . S
C1728 C1727 1.398 . S
C1728 C1729 1.391 . S
C1729 H1717 0.950 . S
C1729 C1725 1.393 . S
C1729 C1728 1.391 . S
C1730 H1720 0.950 . S
C1730 C1731 1.386 . S
C1730 C1732 1.391 . S
C1731 C1730 1.386 . S
C1731 C1735 1.393 . S
C1732 H1721 0.950 . S
C1732 C1730 1.391 . S
C1732 C1733 1.400 . S
C1733 C1727 1.491 . S
C1733 C1732 1.400 . S
C1733 C1734 1.398 . S
C1734 H1722 0.950 . S
C1734 C1733 1.398 . S
C1734 C1735 1.391 . S
C1735 H1723 0.950 . S
C1735 C1731 1.393 . S
C1735 C1734 1.391 . S
H1736 C1744 0.950 . S
H1737 C1749 0.950 . S
H1738 C1746 0.950 . S
H1739 C1748 0.950 . S
H1740 C1750 0.950 . S
H1741 C1752 0.950 . S
H1742 C1754 0.950 . S
H1743 C1755 0.950 . S
C1744 H1736 0.950 . S
C1744 C1745 1.386 . S
C1744 C1746 1.391 . S
C1745 C1744 1.386 . S
C1745 C1749 1.393 . S
C1746 H1738 0.950 . S
C1746 C1744 1.391 . S
C1746 C1747 1.400 . S
C1747 C1746 1.400 . S
C1747 C1748 1.398 . S
C1747 C1753 1.491 . S
C1748 H1739 0.950 . S
C1748 C1747 1.398 . S
C1748 C1749 1.391 . S
C1749 H1737 0.950 . S
C1749 C1745 1.393 . S
C1749 C1748 1.391 . S
C1750 H1740 0.950 . S
C1750 C1751 1.386 . S
C1750 C1752 1.391 . S
C1751 C1750 1.386 . S
C1751 C1755 1.393 . S
C1752 H1741 0.950 . S
C1752 C1750 1.391 . S
C1752 C1753 1.400 . S
C1753 C1747 1.491 . S
C1753 C1752 1.400 . S
C1753 C1754 1.398 . S
C1754 H1742 0.950 . S
C1754 C1753 1.398 . S
C1754 C1755 1.391 . S
C1755 H1743 0.950 . S
C1755 C1751 1.393 . S
C1755 C1754 1.391 . S
H1756 C1764 0.950 . S
H1757 C1769 0.950 . S
H1758 C1766 0.950 . S
H1759 C1768 0.950 . S
H1760 C1770 0.950 . S
H1761 C1772 0.950 . S
H1762 C1774 0.950 . S
H1763 C1775 0.950 . S
C1764 H1756 0.950 . S
C1764 C1765 1.386 . S
C1764 C1766 1.391 . S
C1765 C1764 1.386 . S
C1765 C1769 1.393 . S
C1766 H1758 0.950 . S
C1766 C1764 1.391 . S
C1766 C1767 1.400 . S
C1767 C1766 1.400 . S
C1767 C1768 1.398 . S
C1767 C1773 1.491 . S
C1768 H1759 0.950 . S
C1768 C1767 1.398 . S
C1768 C1769 1.391 . S
C1769 H1757 0.950 . S
C1769 C1765 1.393 . S
C1769 C1768 1.391 . S
C1770 H1760 0.950 . S
C1770 C1771 1.386 . S
C1770 C1772 1.391 . S
C1771 C1770 1.386 . S
C1771 C1775 1.393 . S
C1772 H1761 0.950 . S
C1772 C1770 1.391 . S
C1772 C1773 1.400 . S
C1773 C1767 1.491 . S
C1773 C1772 1.400 . S
C1773 C1774 1.398 . S
C1774 H1762 0.950 . S
C1774 C1773 1.398 . S
C1774 C1775 1.391 . S
C1775 H1763 0.950 . S
C1775 C1771 1.393 . S
C1775 C1774 1.391 . S
H1776 C1784 0.950 . S
H1777 C1789 0.950 . S
H1778 C1786 0.950 . S
H1779 C1788 0.950 . S
H1780 C1790 0.950 . S
H1781 C1792 0.950 . S
H1782 C1794 0.950 . S
H1783 C1795 0.950 . S
C1784 H1776 0.950 . S
C1784 C1785 1.386 . S
C1784 C1786 1.391 . S
C1785 C1784 1.386 . S
C1785 C1789 1.393 . S
C1786 H1778 0.950 . S
C1786 C1784 1.391 . S
C1786 C1787 1.400 . S
C1787 C1786 1.400 . S
C1787 C1788 1.398 . S
C1787 C1793 1.491 . S
C1788 H1779 0.950 . S
C1788 C1787 1.398 . S
C1788 C1789 1.391 . S
C1789 H1777 0.950 . S
C1789 C1785 1.393 . S
C1789 C1788 1.391 . S
C1790 H1780 0.950 . S
C1790 C1791 1.386 . S
C1790 C1792 1.391 . S
C1791 C1790 1.386 . S
C1791 C1795 1.393 . S
C1792 H1781 0.950 . S
C1792 C1790 1.391 . S
C1792 C1793 1.400 . S
C1793 C1787 1.491 . S
C1793 C1792 1.400 . S
C1793 C1794 1.398 . S
C1794 H1782 0.950 . S
C1794 C1793 1.398 . S
C1794 C1795 1.391 . S
C1795 H1783 0.950 . S
C1795 C1791 1.393 . S
C1795 C1794 1.391 . S
H1796 C1804 0.950 . S
H1797 C1809 0.950 1_556 S
H1798 C1806 0.950 . S
H1799 C1808 0.950 . S
H1800 C1810 0.950 . S
H1801 C1812 0.950 . S
H1802 C1814 0.950 . S
H1803 C1815 0.950 . S
C1804 H1796 0.950 . S
C1804 C1805 1.386 . S
C1804 C1806 1.391 . S
C1805 C1804 1.386 . S
C1805 C1809 1.393 . S
C1806 H1798 0.950 . S
C1806 C1804 1.391 . S
C1806 C1807 1.400 . S
C1807 C1806 1.400 . S
C1807 C1808 1.398 . S
C1807 C1813 1.491 . S
C1808 H1799 0.950 . S
C1808 C1807 1.398 . S
C1808 C1809 1.391 . S
C1809 H1797 0.950 1_554 S
C1809 C1805 1.393 . S
C1809 C1808 1.391 . S
C1810 H1800 0.950 . S
C1810 C1811 1.386 . S
C1810 C1812 1.391 . S
C1811 C1810 1.386 . S
C1811 C1815 1.393 . S
C1812 H1801 0.950 . S
C1812 C1810 1.391 . S
C1812 C1813 1.400 . S
C1813 C1807 1.491 . S
C1813 C1812 1.400 . S
C1813 C1814 1.398 . S
C1814 H1802 0.950 . S
C1814 C1813 1.398 . S
C1814 C1815 1.391 . S
C1815 H1803 0.950 . S
C1815 C1811 1.393 . S
C1815 C1814 1.391 . S
H1816 C1824 0.950 . S
H1817 C1829 0.950 . S
H1818 C1826 0.950 . S
H1819 C1828 0.950 . S
H1820 C1830 0.950 . S
H1821 C1832 0.950 . S
H1822 C1834 0.950 . S
H1823 C1835 0.950 . S
C1824 H1816 0.950 . S
C1824 C1825 1.386 . S
C1824 C1826 1.391 . S
C1825 C1824 1.386 . S
C1825 C1829 1.393 . S
C1826 H1818 0.950 . S
C1826 C1824 1.391 . S
C1826 C1827 1.400 . S
C1827 C1826 1.400 . S
C1827 C1828 1.398 . S
C1827 C1833 1.491 . S
C1828 H1819 0.950 . S
C1828 C1827 1.398 . S
C1828 C1829 1.391 . S
C1829 H1817 0.950 . S
C1829 C1825 1.393 . S
C1829 C1828 1.391 . S
C1830 H1820 0.950 . S
C1830 C1831 1.386 . S
C1830 C1832 1.391 . S
C1831 C1830 1.386 . S
C1831 C1835 1.393 . S
C1832 H1821 0.950 . S
C1832 C1830 1.391 . S
C1832 C1833 1.400 . S
C1833 C1827 1.491 . S
C1833 C1832 1.400 . S
C1833 C1834 1.398 . S
C1834 H1822 0.950 . S
C1834 C1833 1.398 . S
C1834 C1835 1.391 . S
C1835 H1823 0.950 . S
C1835 C1831 1.393 . S
C1835 C1834 1.391 . S
H1836 C1844 0.950 . S
H1837 C1849 0.950 . S
H1838 C1846 0.950 . S
H1839 C1848 0.950 . S
H1840 C1850 0.950 . S
H1841 C1852 0.950 . S
H1842 C1854 0.950 . S
H1843 C1855 0.950 . S
C1844 H1836 0.950 . S
C1844 C1845 1.386 . S
C1844 C1846 1.391 . S
C1845 C1844 1.386 . S
C1845 C1849 1.393 . S
C1846 H1838 0.950 . S
C1846 C1844 1.391 . S
C1846 C1847 1.400 . S
C1847 C1846 1.400 . S
C1847 C1848 1.398 . S
C1847 C1853 1.491 . S
C1848 H1839 0.950 . S
C1848 C1847 1.398 . S
C1848 C1849 1.391 . S
C1849 H1837 0.950 . S
C1849 C1845 1.393 . S
C1849 C1848 1.391 . S
C1850 H1840 0.950 . S
C1850 C1851 1.386 . S
C1850 C1852 1.391 . S
C1851 C1850 1.386 . S
C1851 C1855 1.393 . S
C1852 H1841 0.950 . S
C1852 C1850 1.391 . S
C1852 C1853 1.400 . S
C1853 C1847 1.491 . S
C1853 C1852 1.400 . S
C1853 C1854 1.398 . S
C1854 H1842 0.950 . S
C1854 C1853 1.398 . S
C1854 C1855 1.391 . S
C1855 H1843 0.950 . S
C1855 C1851 1.393 . S
C1855 C1854 1.391 . S
H1856 C1864 0.950 . S
H1857 C1869 0.950 . S
H1858 C1866 0.950 . S
H1859 C1868 0.950 . S
H1860 C1870 0.950 . S
H1861 C1872 0.950 . S
H1862 C1874 0.950 . S
H1863 C1875 0.950 . S
C1864 H1856 0.950 . S
C1864 C1865 1.386 . S
C1864 C1866 1.391 . S
C1865 C1864 1.386 . S
C1865 C1869 1.393 . S
C1866 H1858 0.950 . S
C1866 C1864 1.391 . S
C1866 C1867 1.400 . S
C1867 C1866 1.400 . S
C1867 C1868 1.398 . S
C1867 C1873 1.491 . S
C1868 H1859 0.950 . S
C1868 C1867 1.398 . S
C1868 C1869 1.391 . S
C1869 H1857 0.950 . S
C1869 C1865 1.393 . S
C1869 C1868 1.391 . S
C1870 H1860 0.950 . S
C1870 C1871 1.386 . S
C1870 C1872 1.391 . S
C1871 C1870 1.386 . S
C1871 C1875 1.393 . S
C1872 H1861 0.950 . S
C1872 C1870 1.391 . S
C1872 C1873 1.400 . S
C1873 C1867 1.491 . S
C1873 C1872 1.400 . S
C1873 C1874 1.398 . S
C1874 H1862 0.950 . S
C1874 C1873 1.398 . S
C1874 C1875 1.391 . S
C1875 H1863 0.950 . S
C1875 C1871 1.393 . S
C1875 C1874 1.391 . S
H1876 C1884 0.950 . S
H1877 C1889 0.950 . S
H1878 C1886 0.950 . S
H1879 C1888 0.950 . S
H1880 C1890 0.950 . S
H1881 C1892 0.950 . S
H1882 C1894 0.950 . S
H1883 C1895 0.950 . S
C1884 H1876 0.950 . S
C1884 C1885 1.386 . S
C1884 C1886 1.391 . S
C1885 C1884 1.386 . S
C1885 C1889 1.393 . S
C1886 H1878 0.950 . S
C1886 C1884 1.391 . S
C1886 C1887 1.400 . S
C1887 C1886 1.400 . S
C1887 C1888 1.398 . S
C1887 C1893 1.491 . S
C1888 H1879 0.950 . S
C1888 C1887 1.398 . S
C1888 C1889 1.391 . S
C1889 H1877 0.950 . S
C1889 C1885 1.393 . S
C1889 C1888 1.391 . S
C1890 H1880 0.950 . S
C1890 C1891 1.386 . S
C1890 C1892 1.391 . S
C1891 C1890 1.386 . S
C1891 C1895 1.393 . S
C1892 H1881 0.950 . S
C1892 C1890 1.391 . S
C1892 C1893 1.400 . S
C1893 C1887 1.491 . S
C1893 C1892 1.400 . S
C1893 C1894 1.398 . S
C1894 H1882 0.950 . S
C1894 C1893 1.398 . S
C1894 C1895 1.391 . S
C1895 H1883 0.950 . S
C1895 C1891 1.393 . S
C1895 C1894 1.391 . S
H1896 C1904 0.950 . S
H1897 C1909 0.950 . S
H1898 C1906 0.950 . S
H1899 C1908 0.950 . S
H1900 C1910 0.950 . S
H1901 C1912 0.950 . S
H1902 C1914 0.950 . S
H1903 C1915 0.950 . S
C1904 H1896 0.950 . S
C1904 C1905 1.386 . S
C1904 C1906 1.391 . S
C1905 C1904 1.386 . S
C1905 C1909 1.393 . S
C1906 H1898 0.950 . S
C1906 C1904 1.391 . S
C1906 C1907 1.400 . S
C1907 C1906 1.400 . S
C1907 C1908 1.398 . S
C1907 C1913 1.491 . S
C1908 H1899 0.950 . S
C1908 C1907 1.398 . S
C1908 C1909 1.391 . S
C1909 H1897 0.950 . S
C1909 C1905 1.393 . S
C1909 C1908 1.391 . S
C1910 H1900 0.950 . S
C1910 C1911 1.386 . S
C1910 C1912 1.391 . S
C1911 C1910 1.386 . S
C1911 C1915 1.393 . S
C1912 H1901 0.950 . S
C1912 C1910 1.391 . S
C1912 C1913 1.400 . S
C1913 C1907 1.491 . S
C1913 C1912 1.400 . S
C1913 C1914 1.398 . S
C1914 H1902 0.950 . S
C1914 C1913 1.398 . S
C1914 C1915 1.391 . S
C1915 H1903 0.950 . S
C1915 C1911 1.393 . S
C1915 C1914 1.391 . S
H1916 C1924 0.950 . S
H1917 C1929 0.950 . S
H1918 C1926 0.950 . S
H1919 C1928 0.950 . S
H1920 C1930 0.950 . S
H1921 C1932 0.950 . S
H1922 C1934 0.950 . S
H1923 C1935 0.950 . S
C1924 H1916 0.950 . S
C1924 C1925 1.386 . S
C1924 C1926 1.391 . S
C1925 C1924 1.386 . S
C1925 C1929 1.393 . S
C1926 H1918 0.950 . S
C1926 C1924 1.391 . S
C1926 C1927 1.400 . S
C1927 C1926 1.400 . S
C1927 C1928 1.398 . S
C1927 C1933 1.491 . S
C1928 H1919 0.950 . S
C1928 C1927 1.398 . S
C1928 C1929 1.391 . S
C1929 H1917 0.950 . S
C1929 C1925 1.393 . S
C1929 C1928 1.391 . S
C1930 H1920 0.950 . S
C1930 C1931 1.386 . S
C1930 C1932 1.391 . S
C1931 C1930 1.386 . S
C1931 C1935 1.393 . S
C1932 H1921 0.950 . S
C1932 C1930 1.391 . S
C1932 C1933 1.400 . S
C1933 C1927 1.491 . S
C1933 C1932 1.400 . S
C1933 C1934 1.398 . S
C1934 H1922 0.950 . S
C1934 C1933 1.398 . S
C1934 C1935 1.391 . S
C1935 H1923 0.950 . S
C1935 C1931 1.393 . S
C1935 C1934 1.391 . S
H1936 C1944 0.950 . S
H1937 C1949 0.950 . S
H1938 C1946 0.950 . S
H1939 C1948 0.950 . S
H1940 C1950 0.950 . S
H1941 C1952 0.950 . S
H1942 C1954 0.950 . S
H1943 C1955 0.950 . S
C1944 H1936 0.950 . S
C1944 C1945 1.386 . S
C1944 C1946 1.391 . S
C1945 C1944 1.386 . S
C1945 C1949 1.393 . S
C1946 H1938 0.950 . S
C1946 C1944 1.391 . S
C1946 C1947 1.400 . S
C1947 C1946 1.400 . S
C1947 C1948 1.398 . S
C1947 C1953 1.491 . S
C1948 H1939 0.950 . S
C1948 C1947 1.398 . S
C1948 C1949 1.391 . S
C1949 H1937 0.950 . S
C1949 C1945 1.393 . S
C1949 C1948 1.391 . S
C1950 H1940 0.950 . S
C1950 C1951 1.386 . S
C1950 C1952 1.391 . S
C1951 C1950 1.386 . S
C1951 C1955 1.393 . S
C1952 H1941 0.950 . S
C1952 C1950 1.391 . S
C1952 C1953 1.400 . S
C1953 C1947 1.491 . S
C1953 C1952 1.400 . S
C1953 C1954 1.398 . S
C1954 H1942 0.950 . S
C1954 C1953 1.398 . S
C1954 C1955 1.391 . S
C1955 H1943 0.950 . S
C1955 C1951 1.393 . S
C1955 C1954 1.391 . S
H1956 C1964 0.950 . S
H1957 C1969 0.950 . S
H1958 C1966 0.950 . S
H1959 C1968 0.950 . S
H1960 C1970 0.950 . S
H1961 C1972 0.950 . S
H1962 C1974 0.950 . S
H1963 C1975 0.950 . S
C1964 H1956 0.950 . S
C1964 C1965 1.386 . S
C1964 C1966 1.391 . S
C1965 C1964 1.386 . S
C1965 C1969 1.393 . S
C1966 H1958 0.950 . S
C1966 C1964 1.391 . S
C1966 C1967 1.400 . S
C1967 C1966 1.400 . S
C1967 C1968 1.398 . S
C1967 C1973 1.491 . S
C1968 H1959 0.950 . S
C1968 C1967 1.398 . S
C1968 C1969 1.391 . S
C1969 H1957 0.950 . S
C1969 C1965 1.393 . S
C1969 C1968 1.391 . S
C1970 H1960 0.950 . S
C1970 C1971 1.386 . S
C1970 C1972 1.391 . S
C1971 C1970 1.386 . S
C1971 C1975 1.393 . S
C1972 H1961 0.950 . S
C1972 C1970 1.391 . S
C1972 C1973 1.400 . S
C1973 C1967 1.491 . S
C1973 C1972 1.400 . S
C1973 C1974 1.398 . S
C1974 H1962 0.950 . S
C1974 C1973 1.398 . S
C1974 C1975 1.391 . S
C1975 H1963 0.950 . S
C1975 C1971 1.393 . S
C1975 C1974 1.391 . S
H1976 C1984 0.950 . S
H1977 C1989 0.950 . S
H1978 C1986 0.950 . S
H1979 C1988 0.950 . S
H1980 C1990 0.950 . S
H1981 C1992 0.950 . S
H1982 C1994 0.950 . S
H1983 C1995 0.950 . S
C1984 H1976 0.950 . S
C1984 C1985 1.386 . S
C1984 C1986 1.391 . S
C1985 C1984 1.386 . S
C1985 C1989 1.393 . S
C1986 H1978 0.950 . S
C1986 C1984 1.391 . S
C1986 C1987 1.400 . S
C1987 C1986 1.400 . S
C1987 C1988 1.398 . S
C1987 C1993 1.491 . S
C1988 H1979 0.950 . S
C1988 C1987 1.398 . S
C1988 C1989 1.391 . S
C1989 H1977 0.950 . S
C1989 C1985 1.393 . S
C1989 C1988 1.391 . S
C1990 H1980 0.950 . S
C1990 C1991 1.386 . S
C1990 C1992 1.391 . S
C1991 C1990 1.386 . S
C1991 C1995 1.393 . S
C1992 H1981 0.950 . S
C1992 C1990 1.391 . S
C1992 C1993 1.400 . S
C1993 C1987 1.491 . S
C1993 C1992 1.400 . S
C1993 C1994 1.398 . S
C1994 H1982 0.950 . S
C1994 C1993 1.398 . S
C1994 C1995 1.391 . S
C1995 H1983 0.950 . S
C1995 C1991 1.393 . S
C1995 C1994 1.391 . S
H1996 C2004 0.950 . S
H1997 C2009 0.950 . S
H1998 C2006 0.950 . S
H1999 C2008 0.950 . S
H2000 C2010 0.950 . S
H2001 C2012 0.950 . S
H2002 C2014 0.950 . S
H2003 C2015 0.950 . S
C2004 H1996 0.950 . S
C2004 C2005 1.386 . S
C2004 C2006 1.391 . S
C2005 C2004 1.386 . S
C2005 C2009 1.393 . S
C2006 H1998 0.950 . S
C2006 C2004 1.391 . S
C2006 C2007 1.400 . S
C2007 C2006 1.400 . S
C2007 C2008 1.398 . S
C2007 C2013 1.491 . S
C2008 H1999 0.950 . S
C2008 C2007 1.398 . S
C2008 C2009 1.391 . S
C2009 H1997 0.950 . S
C2009 C2005 1.393 . S
C2009 C2008 1.391 . S
C2010 H2000 0.950 . S
C2010 C2011 1.386 . S
C2010 C2012 1.391 . S
C2011 C2010 1.386 . S
C2011 C2015 1.393 . S
C2012 H2001 0.950 . S
C2012 C2010 1.391 . S
C2012 C2013 1.400 . S
C2013 C2007 1.491 . S
C2013 C2012 1.400 . S
C2013 C2014 1.398 . S
C2014 H2002 0.950 . S
C2014 C2013 1.398 . S
C2014 C2015 1.391 . S
C2015 H2003 0.950 . S
C2015 C2011 1.393 . S
C2015 C2014 1.391 . S
H2016 C2024 0.950 . S
H2017 C2029 0.950 . S
H2018 C2026 0.950 . S
H2019 C2028 0.950 . S
H2020 C2030 0.950 . S
H2021 C2032 0.950 . S
H2022 C2034 0.950 . S
H2023 C2035 0.950 . S
C2024 H2016 0.950 . S
C2024 C2025 1.386 1_554 S
C2024 C2026 1.391 . S
C2025 C2024 1.386 1_556 S
C2025 C2029 1.393 . S
C2026 H2018 0.950 . S
C2026 C2024 1.391 . S
C2026 C2027 1.400 1_554 S
C2027 C2026 1.400 1_556 S
C2027 C2028 1.398 . S
C2027 C2033 1.491 1_556 S
C2028 H2019 0.950 . S
C2028 C2027 1.398 . S
C2028 C2029 1.391 . S
C2029 H2017 0.950 . S
C2029 C2025 1.393 . S
C2029 C2028 1.391 . S
C2030 H2020 0.950 . S
C2030 C2031 1.386 1_556 S
C2030 C2032 1.391 . S
C2031 C2030 1.386 1_554 S
C2031 C2035 1.393 . S
C2032 H2021 0.950 . S
C2032 C2030 1.391 . S
C2032 C2033 1.400 1_556 S
C2033 C2027 1.491 1_554 S
C2033 C2032 1.400 1_554 S
C2033 C2034 1.398 . S
C2034 H2022 0.950 . S
C2034 C2033 1.398 . S
C2034 C2035 1.391 . S
C2035 H2023 0.950 . S
C2035 C2031 1.393 . S
C2035 C2034 1.391 . S
H2036 C2044 0.950 . S
H2037 C2049 0.950 . S
H2038 C2046 0.950 . S
H2039 C2048 0.950 . S
H2040 C2050 0.950 . S
H2041 C2052 0.950 . S
H2042 C2054 0.950 . S
H2043 C2055 0.950 . S
C2044 H2036 0.950 . S
C2044 C2045 1.386 . S
C2044 C2046 1.391 . S
C2045 C2044 1.386 . S
C2045 C2049 1.393 . S
C2046 H2038 0.950 . S
C2046 C2044 1.391 . S
C2046 C2047 1.400 . S
C2047 C2046 1.400 . S
C2047 C2048 1.398 . S
C2047 C2053 1.491 . S
C2048 H2039 0.950 . S
C2048 C2047 1.398 . S
C2048 C2049 1.391 . S
C2049 H2037 0.950 . S
C2049 C2045 1.393 . S
C2049 C2048 1.391 . S
C2050 H2040 0.950 . S
C2050 C2051 1.386 . S
C2050 C2052 1.391 . S
C2051 C2050 1.386 . S
C2051 C2055 1.393 . S
C2052 H2041 0.950 . S
C2052 C2050 1.391 . S
C2052 C2053 1.400 . S
C2053 C2047 1.491 . S
C2053 C2052 1.400 . S
C2053 C2054 1.398 . S
C2054 H2042 0.950 . S
C2054 C2053 1.398 . S
C2054 C2055 1.391 . S
C2055 H2043 0.950 . S
C2055 C2051 1.393 . S
C2055 C2054 1.391 . S
H2056 C2064 0.950 . S
H2057 C2069 0.950 . S
H2058 C2066 0.950 . S
H2059 C2068 0.950 . S
H2060 C2070 0.950 . S
H2061 C2072 0.950 . S
H2062 C2074 0.950 . S
H2063 C2075 0.950 . S
C2064 H2056 0.950 . S
C2064 C2065 1.386 . S
C2064 C2066 1.391 . S
C2065 C2064 1.386 . S
C2065 C2069 1.393 . S
C2066 H2058 0.950 . S
C2066 C2064 1.391 . S
C2066 C2067 1.400 . S
C2067 C2066 1.400 . S
C2067 C2068 1.398 . S
C2067 C2073 1.491 . S
C2068 H2059 0.950 . S
C2068 C2067 1.398 . S
C2068 C2069 1.391 . S
C2069 H2057 0.950 . S
C2069 C2065 1.393 . S
C2069 C2068 1.391 . S
C2070 H2060 0.950 . S
C2070 C2071 1.386 . S
C2070 C2072 1.391 . S
C2071 C2070 1.386 . S
C2071 C2075 1.393 . S
C2072 H2061 0.950 . S
C2072 C2070 1.391 . S
C2072 C2073 1.400 . S
C2073 C2067 1.491 . S
C2073 C2072 1.400 . S
C2073 C2074 1.398 . S
C2074 H2062 0.950 . S
C2074 C2073 1.398 . S
C2074 C2075 1.391 . S
C2075 H2063 0.950 . S
C2075 C2071 1.393 . S
C2075 C2074 1.391 . S
H2076 C2084 0.950 . S
H2077 C2089 0.950 . S
H2078 C2086 0.950 . S
H2079 C2088 0.950 . S
H2080 C2090 0.950 . S
H2081 C2092 0.950 . S
H2082 C2094 0.950 . S
H2083 C2095 0.950 . S
C2084 H2076 0.950 . S
C2084 C2085 1.386 . S
C2084 C2086 1.391 . S
C2085 C2084 1.386 . S
C2085 C2089 1.393 . S
C2086 H2078 0.950 . S
C2086 C2084 1.391 . S
C2086 C2087 1.400 . S
C2087 C2086 1.400 . S
C2087 C2088 1.398 . S
C2087 C2093 1.491 . S
C2088 H2079 0.950 . S
C2088 C2087 1.398 . S
C2088 C2089 1.391 . S
C2089 H2077 0.950 . S
C2089 C2085 1.393 . S
C2089 C2088 1.391 . S
C2090 H2080 0.950 . S
C2090 C2091 1.386 . S
C2090 C2092 1.391 . S
C2091 C2090 1.386 . S
C2091 C2095 1.393 . S
C2092 H2081 0.950 . S
C2092 C2090 1.391 . S
C2092 C2093 1.400 . S
C2093 C2087 1.491 . S
C2093 C2092 1.400 . S
C2093 C2094 1.398 . S
C2094 H2082 0.950 . S
C2094 C2093 1.398 . S
C2094 C2095 1.391 . S
C2095 H2083 0.950 . S
C2095 C2091 1.393 . S
C2095 C2094 1.391 . S
H2096 C2104 0.950 . S
H2097 C2109 0.950 . S
H2098 C2106 0.950 . S
H2099 C2108 0.950 . S
H2100 C2110 0.950 . S
H2101 C2112 0.950 . S
H2102 C2114 0.950 . S
H2103 C2115 0.950 . S
C2104 H2096 0.950 . S
C2104 C2105 1.386 . S
C2104 C2106 1.391 . S
C2105 C2104 1.386 . S
C2105 C2109 1.393 1_556 S
C2106 H2098 0.950 . S
C2106 C2104 1.391 . S
C2106 C2107 1.400 . S
C2107 C2106 1.400 . S
C2107 C2108 1.398 1_556 S
C2107 C2113 1.491 1_556 S
C2108 H2099 0.950 . S
C2108 C2107 1.398 1_554 S
C2108 C2109 1.391 . S
C2109 H2097 0.950 . S
C2109 C2105 1.393 1_554 S
C2109 C2108 1.391 . S
C2110 H2100 0.950 . S
C2110 C2111 1.386 . S
C2110 C2112 1.391 . S
C2111 C2110 1.386 . S
C2111 C2115 1.393 1_554 S
C2112 H2101 0.950 . S
C2112 C2110 1.391 . S
C2112 C2113 1.400 . S
C2113 C2107 1.491 1_554 S
C2113 C2112 1.400 . S
C2113 C2114 1.398 1_554 S
C2114 H2102 0.950 . S
C2114 C2113 1.398 1_556 S
C2114 C2115 1.391 . S
C2115 H2103 0.950 . S
C2115 C2111 1.393 1_556 S
C2115 C2114 1.391 . S
H2116 C2124 0.950 . S
H2117 C2129 0.950 . S
H2118 C2126 0.950 . S
H2119 C2128 0.950 . S
H2120 C2130 0.950 . S
H2121 C2132 0.950 . S
H2122 C2134 0.950 . S
H2123 C2135 0.950 . S
C2124 H2116 0.950 . S
C2124 C2125 1.386 . S
C2124 C2126 1.391 . S
C2125 C2124 1.386 . S
C2125 C2129 1.393 . S
C2126 H2118 0.950 . S
C2126 C2124 1.391 . S
C2126 C2127 1.400 . S
C2127 C2126 1.400 . S
C2127 C2128 1.398 . S
C2127 C2133 1.491 . S
C2128 H2119 0.950 . S
C2128 C2127 1.398 . S
C2128 C2129 1.391 . S
C2129 H2117 0.950 . S
C2129 C2125 1.393 . S
C2129 C2128 1.391 . S
C2130 H2120 0.950 . S
C2130 C2131 1.386 . S
C2130 C2132 1.391 . S
C2131 C2130 1.386 . S
C2131 C2135 1.393 . S
C2132 H2121 0.950 . S
C2132 C2130 1.391 . S
C2132 C2133 1.400 . S
C2133 C2127 1.491 . S
C2133 C2132 1.400 . S
C2133 C2134 1.398 . S
C2134 H2122 0.950 . S
C2134 C2133 1.398 . S
C2134 C2135 1.391 . S
C2135 H2123 0.950 . S
C2135 C2131 1.393 . S
C2135 C2134 1.391 . S
H2136 C2144 0.950 . S
H2137 C2149 0.950 . S
H2138 C2146 0.950 . S
H2139 C2148 0.950 . S
H2140 C2150 0.950 . S
H2141 C2152 0.950 . S
H2142 C2154 0.950 . S
H2143 C2155 0.950 . S
C2144 H2136 0.950 . S
C2144 C2145 1.386 . S
C2144 C2146 1.391 . S
C2145 C2144 1.386 . S
C2145 C2149 1.393 . S
C2146 H2138 0.950 . S
C2146 C2144 1.391 . S
C2146 C2147 1.400 . S
C2147 C2146 1.400 . S
C2147 C2148 1.398 . S
C2147 C2153 1.491 . S
C2148 H2139 0.950 . S
C2148 C2147 1.398 . S
C2148 C2149 1.391 . S
C2149 H2137 0.950 . S
C2149 C2145 1.393 . S
C2149 C2148 1.391 . S
C2150 H2140 0.950 . S
C2150 C2151 1.386 . S
C2150 C2152 1.391 . S
C2151 C2150 1.386 . S
C2151 C2155 1.393 . S
C2152 H2141 0.950 . S
C2152 C2150 1.391 . S
C2152 C2153 1.400 . S
C2153 C2147 1.491 . S
C2153 C2152 1.400 . S
C2153 C2154 1.398 . S
C2154 H2142 0.950 . S
C2154 C2153 1.398 . S
C2154 C2155 1.391 . S
C2155 H2143 0.950 . S
C2155 C2151 1.393 . S
C2155 C2154 1.391 . S
H2156 C2164 0.950 . S
H2157 C2169 0.950 . S
H2158 C2166 0.950 . S
H2159 C2168 0.950 . S
H2160 C2170 0.950 . S
H2161 C2172 0.950 . S
H2162 C2174 0.950 . S
H2163 C2175 0.950 . S
C2164 H2156 0.950 . S
C2164 C2165 1.386 . S
C2164 C2166 1.391 . S
C2165 C2164 1.386 . S
C2165 C2169 1.393 . S
C2166 H2158 0.950 . S
C2166 C2164 1.391 . S
C2166 C2167 1.400 . S
C2167 C2166 1.400 . S
C2167 C2168 1.398 . S
C2167 C2173 1.491 . S
C2168 H2159 0.950 . S
C2168 C2167 1.398 . S
C2168 C2169 1.391 . S
C2169 H2157 0.950 . S
C2169 C2165 1.393 . S
C2169 C2168 1.391 . S
C2170 H2160 0.950 . S
C2170 C2171 1.386 . S
C2170 C2172 1.391 . S
C2171 C2170 1.386 . S
C2171 C2175 1.393 . S
C2172 H2161 0.950 . S
C2172 C2170 1.391 . S
C2172 C2173 1.400 . S
C2173 C2167 1.491 . S
C2173 C2172 1.400 . S
C2173 C2174 1.398 . S
C2174 H2162 0.950 . S
C2174 C2173 1.398 . S
C2174 C2175 1.391 . S
C2175 H2163 0.950 . S
C2175 C2171 1.393 . S
C2175 C2174 1.391 . S
H2176 C2184 0.950 . S
H2177 C2189 0.950 . S
H2178 C2186 0.950 . S
H2179 C2188 0.950 . S
H2180 C2190 0.950 . S
H2181 C2192 0.950 . S
H2182 C2194 0.950 . S
H2183 C2195 0.950 . S
C2184 H2176 0.950 . S
C2184 C2185 1.386 . S
C2184 C2186 1.391 . S
C2185 C2184 1.386 . S
C2185 C2189 1.393 . S
C2186 H2178 0.950 . S
C2186 C2184 1.391 . S
C2186 C2187 1.400 . S
C2187 C2186 1.400 . S
C2187 C2188 1.398 . S
C2187 C2193 1.491 1_565 S
C2188 H2179 0.950 . S
C2188 C2187 1.398 . S
C2188 C2189 1.391 . S
C2189 H2177 0.950 . S
C2189 C2185 1.393 . S
C2189 C2188 1.391 . S
C2190 H2180 0.950 . S
C2190 C2191 1.386 . S
C2190 C2192 1.391 . S
C2191 C2190 1.386 . S
C2191 C2195 1.393 . S
C2192 H2181 0.950 . S
C2192 C2190 1.391 . S
C2192 C2193 1.400 . S
C2193 C2187 1.491 1_545 S
C2193 C2192 1.400 . S
C2193 C2194 1.398 . S
C2194 H2182 0.950 . S
C2194 C2193 1.398 . S
C2194 C2195 1.391 . S
C2195 H2183 0.950 . S
C2195 C2191 1.393 . S
C2195 C2194 1.391 . S
H2196 C2204 0.950 . S
H2197 C2209 0.950 . S
H2198 C2206 0.950 . S
H2199 C2208 0.950 . S
H2200 C2210 0.950 . S
H2201 C2212 0.950 . S
H2202 C2214 0.950 . S
H2203 C2215 0.950 . S
C2204 H2196 0.950 . S
C2204 C2205 1.386 . S
C2204 C2206 1.391 . S
C2205 C2204 1.386 . S
C2205 C2209 1.393 . S
C2206 H2198 0.950 . S
C2206 C2204 1.391 . S
C2206 C2207 1.400 . S
C2207 C2206 1.400 . S
C2207 C2208 1.398 . S
C2207 C2213 1.491 . S
C2208 H2199 0.950 . S
C2208 C2207 1.398 . S
C2208 C2209 1.391 . S
C2209 H2197 0.950 . S
C2209 C2205 1.393 . S
C2209 C2208 1.391 . S
C2210 H2200 0.950 . S
C2210 C2211 1.386 . S
C2210 C2212 1.391 . S
C2211 C2210 1.386 . S
C2211 C2215 1.393 . S
C2212 H2201 0.950 . S
C2212 C2210 1.391 . S
C2212 C2213 1.400 . S
C2213 C2207 1.491 . S
C2213 C2212 1.400 . S
C2213 C2214 1.398 . S
C2214 H2202 0.950 . S
C2214 C2213 1.398 . S
C2214 C2215 1.391 . S
C2215 H2203 0.950 . S
C2215 C2211 1.393 . S
C2215 C2214 1.391 . S
H2216 C2224 0.950 . S
H2217 C2229 0.950 . S
H2218 C2226 0.950 . S
H2219 C2228 0.950 . S
H2220 C2230 0.950 . S
H2221 C2232 0.950 . S
H2222 C2234 0.950 . S
H2223 C2235 0.950 . S
C2224 H2216 0.950 . S
C2224 C2225 1.386 1_556 S
C2224 C2226 1.391 . S
C2225 C2224 1.386 1_554 S
C2225 C2229 1.393 . S
C2226 H2218 0.950 . S
C2226 C2224 1.391 . S
C2226 C2227 1.400 1_556 S
C2227 C2226 1.400 1_554 S
C2227 C2228 1.398 . S
C2227 C2233 1.491 1_564 S
C2228 H2219 0.950 . S
C2228 C2227 1.398 . S
C2228 C2229 1.391 . S
C2229 H2217 0.950 . S
C2229 C2225 1.393 . S
C2229 C2228 1.391 . S
C2230 H2220 0.950 . S
C2230 C2231 1.386 1_554 S
C2230 C2232 1.391 . S
C2231 C2230 1.386 1_556 S
C2231 C2235 1.393 . S
C2232 H2221 0.950 . S
C2232 C2230 1.391 . S
C2232 C2233 1.400 1_554 S
C2233 C2227 1.491 1_546 S
C2233 C2232 1.400 1_556 S
C2233 C2234 1.398 . S
C2234 H2222 0.950 . S
C2234 C2233 1.398 . S
C2234 C2235 1.391 . S
C2235 H2223 0.950 . S
C2235 C2231 1.393 . S
C2235 C2234 1.391 . S
H2236 C2244 0.950 . S
H2237 C2249 0.950 . S
H2238 C2246 0.950 . S
H2239 C2248 0.950 . S
H2240 C2250 0.950 . S
H2241 C2252 0.950 . S
H2242 C2254 0.950 . S
H2243 C2255 0.950 . S
C2244 H2236 0.950 . S
C2244 C2245 1.386 . S
C2244 C2246 1.391 . S
C2245 C2244 1.386 . S
C2245 C2249 1.393 . S
C2246 H2238 0.950 . S
C2246 C2244 1.391 . S
C2246 C2247 1.400 . S
C2247 C2246 1.400 . S
C2247 C2248 1.398 . S
C2247 C2253 1.491 . S
C2248 H2239 0.950 . S
C2248 C2247 1.398 . S
C2248 C2249 1.391 . S
C2249 H2237 0.950 . S
C2249 C2245 1.393 . S
C2249 C2248 1.391 . S
C2250 H2240 0.950 . S
C2250 C2251 1.386 . S
C2250 C2252 1.391 . S
C2251 C2250 1.386 . S
C2251 C2255 1.393 . S
C2252 H2241 0.950 . S
C2252 C2250 1.391 . S
C2252 C2253 1.400 . S
C2253 C2247 1.491 . S
C2253 C2252 1.400 . S
C2253 C2254 1.398 . S
C2254 H2242 0.950 . S
C2254 C2253 1.398 . S
C2254 C2255 1.391 . S
C2255 H2243 0.950 . S
C2255 C2251 1.393 . S
C2255 C2254 1.391 . S
H2256 C2264 0.950 . S
H2257 C2269 0.950 . S
H2258 C2266 0.950 . S
H2259 C2268 0.950 . S
H2260 C2270 0.950 . S
H2261 C2272 0.950 . S
H2262 C2274 0.950 . S
H2263 C2275 0.950 . S
C2264 H2256 0.950 . S
C2264 C2265 1.386 . S
C2264 C2266 1.391 . S
C2265 C2264 1.386 . S
C2265 C2269 1.393 . S
C2266 H2258 0.950 . S
C2266 C2264 1.391 . S
C2266 C2267 1.400 . S
C2267 C2266 1.400 . S
C2267 C2268 1.398 . S
C2267 C2273 1.491 1_545 S
C2268 H2259 0.950 . S
C2268 C2267 1.398 . S
C2268 C2269 1.391 . S
C2269 H2257 0.950 . S
C2269 C2265 1.393 . S
C2269 C2268 1.391 . S
C2270 H2260 0.950 . S
C2270 C2271 1.386 . S
C2270 C2272 1.391 . S
C2271 C2270 1.386 . S
C2271 C2275 1.393 . S
C2272 H2261 0.950 . S
C2272 C2270 1.391 . S
C2272 C2273 1.400 . S
C2273 C2267 1.491 1_565 S
C2273 C2272 1.400 . S
C2273 C2274 1.398 . S
C2274 H2262 0.950 . S
C2274 C2273 1.398 . S
C2274 C2275 1.391 . S
C2275 H2263 0.950 . S
C2275 C2271 1.393 . S
C2275 C2274 1.391 . S
H2276 C2284 0.950 . S
H2277 C2289 0.950 . S
H2278 C2286 0.950 . S
H2279 C2288 0.950 . S
H2280 C2290 0.950 . S
H2281 C2292 0.950 . S
H2282 C2294 0.950 . S
H2283 C2295 0.950 . S
C2284 H2276 0.950 . S
C2284 C2285 1.386 . S
C2284 C2286 1.391 . S
C2285 C2284 1.386 . S
C2285 C2289 1.393 . S
C2286 H2278 0.950 . S
C2286 C2284 1.391 . S
C2286 C2287 1.400 . S
C2287 C2286 1.400 . S
C2287 C2288 1.398 . S
C2287 C2293 1.491 . S
C2288 H2279 0.950 . S
C2288 C2287 1.398 . S
C2288 C2289 1.391 . S
C2289 H2277 0.950 . S
C2289 C2285 1.393 . S
C2289 C2288 1.391 . S
C2290 H2280 0.950 . S
C2290 C2291 1.386 . S
C2290 C2292 1.391 . S
C2291 C2290 1.386 . S
C2291 C2295 1.393 . S
C2292 H2281 0.950 . S
C2292 C2290 1.391 . S
C2292 C2293 1.400 . S
C2293 C2287 1.491 . S
C2293 C2292 1.400 . S
C2293 C2294 1.398 . S
C2294 H2282 0.950 . S
C2294 C2293 1.398 . S
C2294 C2295 1.391 . S
C2295 H2283 0.950 . S
C2295 C2291 1.393 . S
C2295 C2294 1.391 . S
H2296 C2304 0.950 . S
H2297 C2309 0.950 . S
H2298 C2306 0.950 . S
H2299 C2308 0.950 . S
H2300 C2310 0.950 . S
H2301 C2312 0.950 . S
H2302 C2314 0.950 . S
H2303 C2315 0.950 . S
C2304 H2296 0.950 . S
C2304 C2305 1.386 . S
C2304 C2306 1.391 . S
C2305 C2304 1.386 . S
C2305 C2309 1.393 1_554 S
C2306 H2298 0.950 . S
C2306 C2304 1.391 . S
C2306 C2307 1.400 . S
C2307 C2306 1.400 . S
C2307 C2308 1.398 1_554 S
C2307 C2313 1.491 1_564 S
C2308 H2299 0.950 . S
C2308 C2307 1.398 1_556 S
C2308 C2309 1.391 . S
C2309 H2297 0.950 . S
C2309 C2305 1.393 1_556 S
C2309 C2308 1.391 . S
C2310 H2300 0.950 . S
C2310 C2311 1.386 . S
C2310 C2312 1.391 . S
C2311 C2310 1.386 . S
C2311 C2315 1.393 1_556 S
C2312 H2301 0.950 . S
C2312 C2310 1.391 . S
C2312 C2313 1.400 . S
C2313 C2307 1.491 1_546 S
C2313 C2312 1.400 . S
C2313 C2314 1.398 1_556 S
C2314 H2302 0.950 . S
C2314 C2313 1.398 1_554 S
C2314 C2315 1.391 . S
C2315 H2303 0.950 . S
C2315 C2311 1.393 1_554 S
C2315 C2314 1.391 . S
H2316 C2324 0.950 . S
H2317 C2329 0.950 . S
H2318 C2326 0.950 . S
H2319 C2328 0.950 . S
H2320 C2330 0.950 . S
H2321 C2332 0.950 . S
H2322 C2334 0.950 . S
H2323 C2335 0.950 . S
C2324 H2316 0.950 . S
C2324 C2325 1.386 . S
C2324 C2326 1.391 . S
C2325 C2324 1.386 . S
C2325 C2329 1.393 . S
C2326 H2318 0.950 . S
C2326 C2324 1.391 . S
C2326 C2327 1.400 . S
C2327 C2326 1.400 . S
C2327 C2328 1.398 . S
C2327 C2333 1.491 . S
C2328 H2319 0.950 . S
C2328 C2327 1.398 . S
C2328 C2329 1.391 . S
C2329 H2317 0.950 . S
C2329 C2325 1.393 . S
C2329 C2328 1.391 . S
C2330 H2320 0.950 . S
C2330 C2331 1.386 . S
C2330 C2332 1.391 . S
C2331 C2330 1.386 . S
C2331 C2335 1.393 . S
C2332 H2321 0.950 . S
C2332 C2330 1.391 . S
C2332 C2333 1.400 . S
C2333 C2327 1.491 . S
C2333 C2332 1.400 . S
C2333 C2334 1.398 . S
C2334 H2322 0.950 . S
C2334 C2333 1.398 . S
C2334 C2335 1.391 . S
C2335 H2323 0.950 . S
C2335 C2331 1.393 . S
C2335 C2334 1.391 . S
H2336 C2344 0.950 . S
H2337 C2349 0.950 . S
H2338 C2346 0.950 . S
H2339 C2348 0.950 . S
H2340 C2350 0.950 . S
H2341 C2352 0.950 . S
H2342 C2354 0.950 . S
H2343 C2355 0.950 . S
C2344 H2336 0.950 . S
C2344 C2345 1.386 . S
C2344 C2346 1.391 . S
C2345 C2344 1.386 . S
C2345 C2349 1.393 . S
C2346 H2338 0.950 . S
C2346 C2344 1.391 . S
C2346 C2347 1.400 . S
C2347 C2346 1.400 . S
C2347 C2348 1.398 . S
C2347 C2353 1.491 1_455 S
C2348 H2339 0.950 . S
C2348 C2347 1.398 . S
C2348 C2349 1.391 . S
C2349 H2337 0.950 . S
C2349 C2345 1.393 . S
C2349 C2348 1.391 . S
C2350 H2340 0.950 . S
C2350 C2351 1.386 . S
C2350 C2352 1.391 . S
C2351 C2350 1.386 . S
C2351 C2355 1.393 . S
C2352 H2341 0.950 . S
C2352 C2350 1.391 . S
C2352 C2353 1.400 . S
C2353 C2347 1.491 1_655 S
C2353 C2352 1.400 . S
C2353 C2354 1.398 . S
C2354 H2342 0.950 . S
C2354 C2353 1.398 . S
C2354 C2355 1.391 . S
C2355 H2343 0.950 . S
C2355 C2351 1.393 . S
C2355 C2354 1.391 . S
H2356 C2364 0.950 . S
H2357 C2369 0.950 . S
H2358 C2366 0.950 . S
H2359 C2368 0.950 . S
H2360 C2370 0.950 . S
H2361 C2372 0.950 . S
H2362 C2374 0.950 . S
H2363 C2375 0.950 . S
C2364 H2356 0.950 . S
C2364 C2365 1.386 . S
C2364 C2366 1.391 . S
C2365 C2364 1.386 . S
C2365 C2369 1.393 . S
C2366 H2358 0.950 . S
C2366 C2364 1.391 . S
C2366 C2367 1.400 . S
C2367 C2366 1.400 . S
C2367 C2368 1.398 . S
C2367 C2373 1.491 . S
C2368 H2359 0.950 . S
C2368 C2367 1.398 . S
C2368 C2369 1.391 . S
C2369 H2357 0.950 . S
C2369 C2365 1.393 . S
C2369 C2368 1.391 . S
C2370 H2360 0.950 . S
C2370 C2371 1.386 . S
C2370 C2372 1.391 . S
C2371 C2370 1.386 . S
C2371 C2375 1.393 . S
C2372 H2361 0.950 . S
C2372 C2370 1.391 . S
C2372 C2373 1.400 . S
C2373 C2367 1.491 . S
C2373 C2372 1.400 . S
C2373 C2374 1.398 . S
C2374 H2362 0.950 . S
C2374 C2373 1.398 . S
C2374 C2375 1.391 . S
C2375 H2363 0.950 . S
C2375 C2371 1.393 . S
C2375 C2374 1.391 . S
H2376 C2384 0.950 . S
H2377 C2389 0.950 . S
H2378 C2386 0.950 . S
H2379 C2388 0.950 . S
H2380 C2390 0.950 . S
H2381 C2392 0.950 . S
H2382 C2394 0.950 . S
H2383 C2395 0.950 . S
C2384 H2376 0.950 . S
C2384 C2385 1.386 . S
C2384 C2386 1.391 . S
C2385 C2384 1.386 . S
C2385 C2389 1.393 . S
C2386 H2378 0.950 . S
C2386 C2384 1.391 . S
C2386 C2387 1.400 . S
C2387 C2386 1.400 . S
C2387 C2388 1.398 . S
C2387 C2393 1.491 . S
C2388 H2379 0.950 . S
C2388 C2387 1.398 . S
C2388 C2389 1.391 . S
C2389 H2377 0.950 . S
C2389 C2385 1.393 . S
C2389 C2388 1.391 . S
C2390 H2380 0.950 . S
C2390 C2391 1.386 . S
C2390 C2392 1.391 . S
C2391 C2390 1.386 . S
C2391 C2395 1.393 . S
C2392 H2381 0.950 . S
C2392 C2390 1.391 . S
C2392 C2393 1.400 . S
C2393 C2387 1.491 . S
C2393 C2392 1.400 . S
C2393 C2394 1.398 . S
C2394 H2382 0.950 . S
C2394 C2393 1.398 . S
C2394 C2395 1.391 . S
C2395 H2383 0.950 . S
C2395 C2391 1.393 . S
C2395 C2394 1.391 . S
H2396 C2404 0.950 . S
H2397 C2409 0.950 . S
H2398 C2406 0.950 . S
H2399 C2408 0.950 . S
H2400 C2410 0.950 . S
H2401 C2412 0.950 . S
H2402 C2414 0.950 . S
H2403 C2415 0.950 . S
C2404 H2396 0.950 . S
C2404 C2405 1.386 . S
C2404 C2406 1.391 . S
C2405 C2404 1.386 . S
C2405 C2409 1.393 . S
C2406 H2398 0.950 . S
C2406 C2404 1.391 . S
C2406 C2407 1.400 . S
C2407 C2406 1.400 . S
C2407 C2408 1.398 . S
C2407 C2413 1.491 . S
C2408 H2399 0.950 . S
C2408 C2407 1.398 . S
C2408 C2409 1.391 . S
C2409 H2397 0.950 . S
C2409 C2405 1.393 . S
C2409 C2408 1.391 . S
C2410 H2400 0.950 . S
C2410 C2411 1.386 . S
C2410 C2412 1.391 . S
C2411 C2410 1.386 . S
C2411 C2415 1.393 . S
C2412 H2401 0.950 . S
C2412 C2410 1.391 . S
C2412 C2413 1.400 . S
C2413 C2407 1.491 . S
C2413 C2412 1.400 . S
C2413 C2414 1.398 . S
C2414 H2402 0.950 . S
C2414 C2413 1.398 . S
C2414 C2415 1.391 . S
C2415 H2403 0.950 . S
C2415 C2411 1.393 . S
C2415 C2414 1.391 . S
H2416 C2424 0.950 . S
H2417 C2429 0.950 . S
H2418 C2426 0.950 . S
H2419 C2428 0.950 . S
H2420 C2430 0.950 . S
H2421 C2432 0.950 . S
H2422 C2434 0.950 . S
H2423 C2435 0.950 . S
C2424 H2416 0.950 . S
C2424 C2425 1.386 . S
C2424 C2426 1.391 . S
C2425 C2424 1.386 . S
C2425 C2429 1.393 . S
C2426 H2418 0.950 . S
C2426 C2424 1.391 . S
C2426 C2427 1.400 . S
C2427 C2426 1.400 . S
C2427 C2428 1.398 . S
C2427 C2433 1.491 1_655 S
C2428 H2419 0.950 . S
C2428 C2427 1.398 . S
C2428 C2429 1.391 . S
C2429 H2417 0.950 . S
C2429 C2425 1.393 . S
C2429 C2428 1.391 . S
C2430 H2420 0.950 . S
C2430 C2431 1.386 . S
C2430 C2432 1.391 . S
C2431 C2430 1.386 . S
C2431 C2435 1.393 . S
C2432 H2421 0.950 . S
C2432 C2430 1.391 . S
C2432 C2433 1.400 . S
C2433 C2427 1.491 1_455 S
C2433 C2432 1.400 . S
C2433 C2434 1.398 . S
C2434 H2422 0.950 . S
C2434 C2433 1.398 . S
C2434 C2435 1.391 . S
C2435 H2423 0.950 . S
C2435 C2431 1.393 . S
C2435 C2434 1.391 . S
H2436 C2444 0.950 . S
H2437 C2449 0.950 . S
H2438 C2446 0.950 . S
H2439 C2448 0.950 . S
H2440 C2450 0.950 . S
H2441 C2452 0.950 . S
H2442 C2454 0.950 . S
H2443 C2455 0.950 . S
C2444 H2436 0.950 . S
C2444 C2445 1.386 . S
C2444 C2446 1.391 . S
C2445 C2444 1.386 . S
C2445 C2449 1.393 . S
C2446 H2438 0.950 . S
C2446 C2444 1.391 . S
C2446 C2447 1.400 . S
C2447 C2446 1.400 . S
C2447 C2448 1.398 . S
C2447 C2453 1.491 . S
C2448 H2439 0.950 . S
C2448 C2447 1.398 . S
C2448 C2449 1.391 . S
C2449 H2437 0.950 . S
C2449 C2445 1.393 . S
C2449 C2448 1.391 . S
C2450 H2440 0.950 . S
C2450 C2451 1.386 . S
C2450 C2452 1.391 . S
C2451 C2450 1.386 . S
C2451 C2455 1.393 . S
C2452 H2441 0.950 . S
C2452 C2450 1.391 . S
C2452 C2453 1.400 . S
C2453 C2447 1.491 . S
C2453 C2452 1.400 . S
C2453 C2454 1.398 . S
C2454 H2442 0.950 . S
C2454 C2453 1.398 . S
C2454 C2455 1.391 . S
C2455 H2443 0.950 . S
C2455 C2451 1.393 . S
C2455 C2454 1.391 . S
H2456 C2464 0.950 . S
H2457 C2469 0.950 . S
H2458 C2466 0.950 . S
H2459 C2468 0.950 . S
H2460 C2470 0.950 . S
H2461 C2472 0.950 . S
H2462 C2474 0.950 . S
H2463 C2475 0.950 . S
C2464 H2456 0.950 . S
C2464 C2465 1.386 . S
C2464 C2466 1.391 . S
C2465 C2464 1.386 . S
C2465 C2469 1.393 . S
C2466 H2458 0.950 . S
C2466 C2464 1.391 . S
C2466 C2467 1.400 . S
C2467 C2466 1.400 . S
C2467 C2468 1.398 . S
C2467 C2473 1.491 . S
C2468 H2459 0.950 . S
C2468 C2467 1.398 . S
C2468 C2469 1.391 . S
C2469 H2457 0.950 . S
C2469 C2465 1.393 . S
C2469 C2468 1.391 . S
C2470 H2460 0.950 . S
C2470 C2471 1.386 . S
C2470 C2472 1.391 . S
C2471 C2470 1.386 . S
C2471 C2475 1.393 . S
C2472 H2461 0.950 . S
C2472 C2470 1.391 . S
C2472 C2473 1.400 . S
C2473 C2467 1.491 . S
C2473 C2472 1.400 . S
C2473 C2474 1.398 . S
C2474 H2462 0.950 . S
C2474 C2473 1.398 . S
C2474 C2475 1.391 . S
C2475 H2463 0.950 . S
C2475 C2471 1.393 . S
C2475 C2474 1.391 . S
H2476 C2484 0.950 . S
H2477 C2489 0.950 . S
H2478 C2486 0.950 . S
H2479 C2488 0.950 . S
H2480 C2490 0.950 . S
H2481 C2492 0.950 . S
H2482 C2494 0.950 . S
H2483 C2495 0.950 . S
C2484 H2476 0.950 . S
C2484 C2485 1.386 . S
C2484 C2486 1.391 . S
C2485 C2484 1.386 . S
C2485 C2489 1.393 . S
C2486 H2478 0.950 . S
C2486 C2484 1.391 . S
C2486 C2487 1.400 . S
C2487 C2486 1.400 . S
C2487 C2488 1.398 . S
C2487 C2493 1.491 . S
C2488 H2479 0.950 . S
C2488 C2487 1.398 . S
C2488 C2489 1.391 . S
C2489 H2477 0.950 . S
C2489 C2485 1.393 . S
C2489 C2488 1.391 . S
C2490 H2480 0.950 . S
C2490 C2491 1.386 . S
C2490 C2492 1.391 . S
C2491 C2490 1.386 . S
C2491 C2495 1.393 . S
C2492 H2481 0.950 . S
C2492 C2490 1.391 . S
C2492 C2493 1.400 . S
C2493 C2487 1.491 . S
C2493 C2492 1.400 . S
C2493 C2494 1.398 . S
C2494 H2482 0.950 . S
C2494 C2493 1.398 . S
C2494 C2495 1.391 . S
C2495 H2483 0.950 . S
C2495 C2491 1.393 . S
C2495 C2494 1.391 . S
H2496 C2504 0.950 . S
H2497 C2509 0.950 . S
H2498 C2506 0.950 . S
H2499 C2508 0.950 . S
H2500 C2510 0.950 . S
H2501 C2512 0.950 . S
H2502 C2514 0.950 . S
H2503 C2515 0.950 . S
C2504 H2496 0.950 . S
C2504 C2505 1.386 . S
C2504 C2506 1.391 . S
C2505 C2504 1.386 . S
C2505 C2509 1.393 . S
C2506 H2498 0.950 . S
C2506 C2504 1.391 . S
C2506 C2507 1.400 . S
C2507 C2506 1.400 . S
C2507 C2508 1.398 . S
C2507 C2513 1.491 . S
C2508 H2499 0.950 . S
C2508 C2507 1.398 . S
C2508 C2509 1.391 . S
C2509 H2497 0.950 . S
C2509 C2505 1.393 . S
C2509 C2508 1.391 . S
C2510 H2500 0.950 . S
C2510 C2511 1.386 . S
C2510 C2512 1.391 . S
C2511 C2510 1.386 . S
C2511 C2515 1.393 . S
C2512 H2501 0.950 . S
C2512 C2510 1.391 . S
C2512 C2513 1.400 . S
C2513 C2507 1.491 . S
C2513 C2512 1.400 . S
C2513 C2514 1.398 . S
C2514 H2502 0.950 . S
C2514 C2513 1.398 . S
C2514 C2515 1.391 . S
C2515 H2503 0.950 . S
C2515 C2511 1.393 . S
C2515 C2514 1.391 . S
H2516 C2524 0.950 . S
H2517 C2529 0.950 . S
H2518 C2526 0.950 . S
H2519 C2528 0.950 . S
H2520 C2530 0.950 . S
H2521 C2532 0.950 . S
H2522 C2534 0.950 . S
H2523 C2535 0.950 . S
C2524 H2516 0.950 . S
C2524 C2525 1.386 . S
C2524 C2526 1.391 . S
C2525 C2524 1.386 . S
C2525 C2529 1.393 . S
C2526 H2518 0.950 . S
C2526 C2524 1.391 . S
C2526 C2527 1.400 . S
C2527 C2526 1.400 . S
C2527 C2528 1.398 . S
C2527 C2533 1.491 . S
C2528 H2519 0.950 . S
C2528 C2527 1.398 . S
C2528 C2529 1.391 . S
C2529 H2517 0.950 . S
C2529 C2525 1.393 . S
C2529 C2528 1.391 . S
C2530 H2520 0.950 . S
C2530 C2531 1.386 . S
C2530 C2532 1.391 . S
C2531 C2530 1.386 . S
C2531 C2535 1.393 . S
C2532 H2521 0.950 . S
C2532 C2530 1.391 . S
C2532 C2533 1.400 . S
C2533 C2527 1.491 . S
C2533 C2532 1.400 . S
C2533 C2534 1.398 . S
C2534 H2522 0.950 . S
C2534 C2533 1.398 . S
C2534 C2535 1.391 . S
C2535 H2523 0.950 . S
C2535 C2531 1.393 . S
C2535 C2534 1.391 . S
H2536 C2544 0.950 . S
H2537 C2549 0.950 . S
H2538 C2546 0.950 . S
H2539 C2548 0.950 . S
H2540 C2550 0.950 . S
H2541 C2552 0.950 . S
H2542 C2554 0.950 . S
H2543 C2555 0.950 . S
C2544 H2536 0.950 . S
C2544 C2545 1.386 . S
C2544 C2546 1.391 . S
C2545 C2544 1.386 . S
C2545 C2549 1.393 . S
C2546 H2538 0.950 . S
C2546 C2544 1.391 . S
C2546 C2547 1.400 . S
C2547 C2546 1.400 . S
C2547 C2548 1.398 . S
C2547 C2553 1.491 . S
C2548 H2539 0.950 . S
C2548 C2547 1.398 . S
C2548 C2549 1.391 . S
C2549 H2537 0.950 . S
C2549 C2545 1.393 . S
C2549 C2548 1.391 . S
C2550 H2540 0.950 . S
C2550 C2551 1.386 . S
C2550 C2552 1.391 . S
C2551 C2550 1.386 . S
C2551 C2555 1.393 . S
C2552 H2541 0.950 . S
C2552 C2550 1.391 . S
C2552 C2553 1.400 . S
C2553 C2547 1.491 . S
C2553 C2552 1.400 . S
C2553 C2554 1.398 . S
C2554 H2542 0.950 . S
C2554 C2553 1.398 . S
C2554 C2555 1.391 . S
C2555 H2543 0.950 . S
C2555 C2551 1.393 . S
C2555 C2554 1.391 . S
H2556 C2564 0.950 . S
H2557 C2569 0.950 . S
H2558 C2566 0.950 . S
H2559 C2568 0.950 . S
H2560 C2570 0.950 . S
H2561 C2572 0.950 . S
H2562 C2574 0.950 . S
H2563 C2575 0.950 . S
C2564 H2556 0.950 . S
C2564 C2565 1.386 . S
C2564 C2566 1.391 . S
C2565 C2564 1.386 . S
C2565 C2569 1.393 . S
C2566 H2558 0.950 . S
C2566 C2564 1.391 . S
C2566 C2567 1.400 . S
C2567 C2566 1.400 . S
C2567 C2568 1.398 . S
C2567 C2573 1.491 . S
C2568 H2559 0.950 . S
C2568 C2567 1.398 . S
C2568 C2569 1.391 . S
C2569 H2557 0.950 . S
C2569 C2565 1.393 . S
C2569 C2568 1.391 . S
C2570 H2560 0.950 . S
C2570 C2571 1.386 . S
C2570 C2572 1.391 . S
C2571 C2570 1.386 . S
C2571 C2575 1.393 . S
C2572 H2561 0.950 . S
C2572 C2570 1.391 . S
C2572 C2573 1.400 . S
C2573 C2567 1.491 . S
C2573 C2572 1.400 . S
C2573 C2574 1.398 . S
C2574 H2562 0.950 . S
C2574 C2573 1.398 . S
C2574 C2575 1.391 . S
C2575 H2563 0.950 . S
C2575 C2571 1.393 . S
C2575 C2574 1.391 . S
H2576 C2584 0.950 . S
H2577 C2589 0.950 . S
H2578 C2586 0.950 . S
H2579 C2588 0.950 . S
H2580 C2590 0.950 . S
H2581 C2592 0.950 . S
H2582 C2594 0.950 . S
H2583 C2595 0.950 . S
C2584 H2576 0.950 . S
C2584 C2585 1.386 . S
C2584 C2586 1.391 . S
C2585 C2584 1.386 . S
C2585 C2589 1.393 . S
C2586 H2578 0.950 . S
C2586 C2584 1.391 . S
C2586 C2587 1.400 . S
C2587 C2586 1.400 . S
C2587 C2588 1.398 . S
C2587 C2593 1.491 . S
C2588 H2579 0.950 . S
C2588 C2587 1.398 . S
C2588 C2589 1.391 . S
C2589 H2577 0.950 . S
C2589 C2585 1.393 . S
C2589 C2588 1.391 . S
C2590 H2580 0.950 . S
C2590 C2591 1.386 . S
C2590 C2592 1.391 . S
C2591 C2590 1.386 . S
C2591 C2595 1.393 . S
C2592 H2581 0.950 . S
C2592 C2590 1.391 . S
C2592 C2593 1.400 . S
C2593 C2587 1.491 . S
C2593 C2592 1.400 . S
C2593 C2594 1.398 . S
C2594 H2582 0.950 . S
C2594 C2593 1.398 . S
C2594 C2595 1.391 . S
C2595 H2583 0.950 . S
C2595 C2591 1.393 . S
C2595 C2594 1.391 . S
H2596 C2604 0.950 . S
H2597 C2609 0.950 . S
H2598 C2606 0.950 . S
H2599 C2608 0.950 . S
H2600 C2610 0.950 . S
H2601 C2612 0.950 . S
H2602 C2614 0.950 . S
H2603 C2615 0.950 . S
C2604 H2596 0.950 . S
C2604 C2605 1.386 . S
C2604 C2606 1.391 . S
C2605 C2604 1.386 . S
C2605 C2609 1.393 . S
C2606 H2598 0.950 . S
C2606 C2604 1.391 . S
C2606 C2607 1.400 . S
C2607 C2606 1.400 . S
C2607 C2608 1.398 . S
C2607 C2613 1.491 1_455 S
C2608 H2599 0.950 . S
C2608 C2607 1.398 . S
C2608 C2609 1.391 . S
C2609 H2597 0.950 . S
C2609 C2605 1.393 . S
C2609 C2608 1.391 . S
C2610 H2600 0.950 . S
C2610 C2611 1.386 . S
C2610 C2612 1.391 . S
C2611 C2610 1.386 . S
C2611 C2615 1.393 . S
C2612 H2601 0.950 . S
C2612 C2610 1.391 . S
C2612 C2613 1.400 . S
C2613 C2607 1.491 1_655 S
C2613 C2612 1.400 . S
C2613 C2614 1.398 . S
C2614 H2602 0.950 . S
C2614 C2613 1.398 . S
C2614 C2615 1.391 . S
C2615 H2603 0.950 . S
C2615 C2611 1.393 . S
C2615 C2614 1.391 . S
H2616 C2624 0.950 . S
H2617 C2629 0.950 . S
H2618 C2626 0.950 . S
H2619 C2628 0.950 . S
H2620 C2630 0.950 . S
H2621 C2632 0.950 . S
H2622 C2634 0.950 . S
H2623 C2635 0.950 . S
C2624 H2616 0.950 . S
C2624 C2625 1.386 . S
C2624 C2626 1.391 . S
C2625 C2624 1.386 . S
C2625 C2629 1.393 . S
C2626 H2618 0.950 . S
C2626 C2624 1.391 . S
C2626 C2627 1.400 . S
C2627 C2626 1.400 . S
C2627 C2628 1.398 . S
C2627 C2633 1.491 . S
C2628 H2619 0.950 . S
C2628 C2627 1.398 . S
C2628 C2629 1.391 . S
C2629 H2617 0.950 . S
C2629 C2625 1.393 . S
C2629 C2628 1.391 . S
C2630 H2620 0.950 . S
C2630 C2631 1.386 . S
C2630 C2632 1.391 . S
C2631 C2630 1.386 . S
C2631 C2635 1.393 . S
C2632 H2621 0.950 . S
C2632 C2630 1.391 . S
C2632 C2633 1.400 . S
C2633 C2627 1.491 . S
C2633 C2632 1.400 . S
C2633 C2634 1.398 . S
C2634 H2622 0.950 . S
C2634 C2633 1.398 . S
C2634 C2635 1.391 . S
C2635 H2623 0.950 . S
C2635 C2631 1.393 . S
C2635 C2634 1.391 . S
H2636 C2644 0.950 . S
H2637 C2649 0.950 1_554 S
H2638 C2646 0.950 . S
H2639 C2648 0.950 1_554 S
H2640 C2650 0.950 1_554 S
H2641 C2652 0.950 1_554 S
H2642 C2654 0.950 . S
H2643 C2655 0.950 . S
C2644 H2636 0.950 . S
C2644 C2645 1.386 . S
C2644 C2646 1.391 . S
C2645 C2644 1.386 . S
C2645 C2649 1.393 . S
C2646 H2638 0.950 . S
C2646 C2644 1.391 . S
C2646 C2647 1.400 . S
C2647 C2646 1.400 . S
C2647 C2648 1.398 . S
C2647 C2653 1.491 1_455 S
C2648 H2639 0.950 1_556 S
C2648 C2647 1.398 . S
C2648 C2649 1.391 . S
C2649 H2637 0.950 1_556 S
C2649 C2645 1.393 . S
C2649 C2648 1.391 . S
C2650 H2640 0.950 1_556 S
C2650 C2651 1.386 . S
C2650 C2652 1.391 . S
C2651 C2650 1.386 . S
C2651 C2655 1.393 . S
C2652 H2641 0.950 1_556 S
C2652 C2650 1.391 . S
C2652 C2653 1.400 . S
C2653 C2647 1.491 1_655 S
C2653 C2652 1.400 . S
C2653 C2654 1.398 . S
C2654 H2642 0.950 . S
C2654 C2653 1.398 . S
C2654 C2655 1.391 . S
C2655 H2643 0.950 . S
C2655 C2651 1.393 . S
C2655 C2654 1.391 . S
C1065 N14 1.492 . S
C1071 N5 1.498 . S
C1085 N38 1.498 . S
C1091 N47 1.494 . S
C1105 N71 1.497 . S
C1111 N80 1.492 . S
C1125 N104 1.490 . S
C1131 N113 1.485 . S
C1145 N137 1.482 . S
C1151 N146 1.476 . S
C1165 N170 1.497 . S
C1171 N179 1.491 . S
C1185 N212 1.496 . S
C1191 N203 1.501 . S
C1205 N245 1.491 . S
C1211 N236 1.497 . S
C1225 N278 1.475 . S
C1231 N269 1.482 . S
C1245 N311 1.475 . S
C1251 N302 1.481 . S
C1265 N344 1.475 . S
C1271 N335 1.482 . S
C1285 N368 1.501 . S
C1291 N377 1.496 . S
C1305 N410 1.490 . S
C1311 N401 1.496 . S
C1325 N443 1.492 . S
C1331 N434 1.496 . S
C1345 N467 1.500 . S
C1351 N476 1.496 . S
C1365 N509 1.495 . S
C1371 N500 1.501 . S
C1385 N533 1.502 . S
C1391 N542 1.496 . S
C1405 N566 1.481 . S
C1411 N575 1.475 . S
C1425 N599 1.485 . S
C1431 N608 1.480 . S
C1445 N632 1.501 . S
C1451 N641 1.496 . S
C1465 N665 1.486 . S
C1471 N674 1.478 . S
C1485 N698 1.500 . S
C1491 N707 1.494 . S
C1505 N731 1.483 . S
C1511 N740 1.477 . S
C1525 N773 1.481 . S
C1531 N764 1.488 . S
C1545 N797 1.494 . S
C1551 N806 1.487 . S
C1565 N830 1.498 . S
C1571 N839 1.492 . S
C1585 N863 1.485 . S
C1591 N872 1.478 . S
C1605 N905 1.497 . S
C1611 N896 1.501 . S
C1625 N938 1.491 . S
C1631 N929 1.496 . S
C1645 N971 1.494 . S
C1651 N962 1.499 . S
C1665 N995 1.488 . S
C1671 N1004 1.483 . S
C1685 N1037 1.493 . S
C1691 N1028 1.498 . S
C1705 C787 0.977 . S
C1711 C28 0.982 . S
C1725 C688 0.976 . S
C1731 C61 0.981 . S
C1745 C721 0.982 . S
C1751 C94 0.982 . S
C1765 C754 0.978 . S
C1771 C127 0.974 . S
C1785 C589 0.974 . S
C1791 C160 0.976 . S
C1805 C622 0.976 . S
C1811 C193 0.981 . S
C1825 C655 0.980 . S
C1831 C226 0.983 . S
C1845 C556 0.980 . S
C1851 C259 0.983 . S
C1865 C1051 0.983 . S
C1871 C292 0.979 . S
C1885 C952 0.976 . S
C1891 C325 0.981 . S
C1905 C358 0.982 . S
C1911 C985 0.982 . S
C1925 C391 0.979 . S
C1931 C1018 0.983 . S
C1945 C424 0.982 . S
C1951 C853 0.982 . S
C1965 C457 0.975 . S
C1971 C886 0.980 . S
C1985 C490 0.981 . S
C1991 C919 0.983 . S
C2005 C820 0.981 . S
C2011 C523 0.983 . S
C2025 C140 1.376 . S
C2031 C8 1.370 . S
C2045 C41 1.381 . S
C2051 C173 1.365 . S
C2065 C206 1.380 . S
C2071 C74 1.366 . S
C2085 C107 1.371 . S
C2091 C239 1.375 . S
C2105 C272 1.379 . S
C2111 C404 1.369 . S
C2125 C437 1.381 . S
C2131 C305 1.366 . S
C2145 C470 1.380 . S
C2151 C338 1.367 . S
C2165 C503 1.381 . S
C2171 C371 1.367 . S
C2185 C668 1.377 . S
C2191 C536 1.369 . S
C2205 C569 1.367 . S
C2211 C701 1.381 . S
C2225 C602 1.379 . S
C2231 C734 1.367 . S
C2245 C635 1.369 . S
C2251 C767 1.379 . S
C2265 C932 1.377 . S
C2271 C800 1.369 . S
C2285 C965 1.375 . S
C2291 C833 1.371 . S
C2305 C998 1.380 . S
C2311 C866 1.368 . S
C2325 C899 1.371 . S
C2331 C1031 1.375 . S
C2345 C17 1.499 . S
C2351 C413 1.502 . S
C2365 C974 1.500 . S
C2371 C50 1.502 . S
C2385 C83 1.498 . S
C2391 C479 1.503 . S
C2405 C1040 1.504 . S
C2411 C116 1.497 . S
C2425 C281 1.497 . S
C2431 C149 1.504 . S
C2445 C182 1.506 . S
C2451 C842 1.495 . S
C2465 C215 1.501 . S
C2471 C347 1.501 . S
C2485 C248 1.502 . S
C2491 C908 1.500 . S
C2505 C710 1.504 . S
C2511 C314 1.497 . S
C2525 C776 1.498 . S
C2531 C380 1.503 . S
C2545 C578 1.495 . S
C2551 C446 1.506 . S
C2565 C644 1.495 . S
C2571 C512 1.506 . S
C2585 C545 1.499 . S
C2591 C941 1.503 . S
C2605 C1007 1.499 . S
C2611 C611 1.502 . S
C2625 C677 1.498 . S
C2631 C809 1.504 . S
C2645 C875 1.495 . S
C2651 C743 1.506 . S
