# Generated by pormake.
# Topology uoy, (4)-cn, num edge types: 1
# Building blocks:
#     Node 0, Type 0, BuildingBlock: KUFVIS_clean_sbu_0, # of connection points: 4
#     Node 1, Type 0, BuildingBlock: KUFVIS_clean_sbu_0, # of connection points: 4
#     Node 2, Type 0, BuildingBlock: KUFVIS_clean_sbu_0, # of connection points: 4
#     Node 3, Type 0, BuildingBlock: KUFVIS_clean_sbu_0, # of connection points: 4
#     Node 4, Type 0, BuildingBlock: KUFVIS_clean_sbu_0, # of connection points: 4
#     Node 5, Type 0, BuildingBlock: KUFVIS_clean_sbu_0, # of connection points: 4
#     Node 6, Type 0, BuildingBlock: KUFVIS_clean_sbu_0, # of connection points: 4
#     Node 7, Type 0, BuildingBlock: KUFVIS_clean_sbu_0, # of connection points: 4
#     Node 8, Type 0, BuildingBlock: KUFVIS_clean_sbu_0, # of connection points: 4
#     Node 9, Type 0, BuildingBlock: KUFVIS_clean_sbu_0, # of connection points: 4
#     Node 10, Type 0, BuildingBlock: KUFVIS_clean_sbu_0, # of connection points: 4
#     Node 11, Type 0, BuildingBlock: KUFVIS_clean_sbu_0, # of connection points: 4
#     Node 12, Type 0, BuildingBlock: KUFVIS_clean_sbu_0, # of connection points: 4
#     Node 13, Type 0, BuildingBlock: KUFVIS_clean_sbu_0, # of connection points: 4
#     Node 14, Type 0, BuildingBlock: KUFVIS_clean_sbu_0, # of connection points: 4
#     Node 15, Type 0, BuildingBlock: KUFVIS_clean_sbu_0, # of connection points: 4
#     Edge 16, Type (0, 0), BuildingBlock: MIFKUJ_clean_linker_0, # of connection points: 2
#     Edge 17, Type (0, 0), BuildingBlock: MIFKUJ_clean_linker_0, # of connection points: 2
#     Edge 18, Type (0, 0), BuildingBlock: MIFKUJ_clean_linker_0, # of connection points: 2
#     Edge 19, Type (0, 0), BuildingBlock: MIFKUJ_clean_linker_0, # of connection points: 2
#     Edge 20, Type (0, 0), BuildingBlock: MIFKUJ_clean_linker_0, # of connection points: 2
#     Edge 21, Type (0, 0), BuildingBlock: MIFKUJ_clean_linker_0, # of connection points: 2
#     Edge 22, Type (0, 0), BuildingBlock: MIFKUJ_clean_linker_0, # of connection points: 2
#     Edge 23, Type (0, 0), BuildingBlock: MIFKUJ_clean_linker_0, # of connection points: 2
#     Edge 24, Type (0, 0), BuildingBlock: MIFKUJ_clean_linker_0, # of connection points: 2
#     Edge 25, Type (0, 0), BuildingBlock: MIFKUJ_clean_linker_0, # of connection points: 2
#     Edge 26, Type (0, 0), BuildingBlock: MIFKUJ_clean_linker_0, # of connection points: 2
#     Edge 27, Type (0, 0), BuildingBlock: MIFKUJ_clean_linker_0, # of connection points: 2
#     Edge 28, Type (0, 0), BuildingBlock: MIFKUJ_clean_linker_0, # of connection points: 2
#     Edge 29, Type (0, 0), BuildingBlock: MIFKUJ_clean_linker_0, # of connection points: 2
#     Edge 30, Type (0, 0), BuildingBlock: MIFKUJ_clean_linker_0, # of connection points: 2
#     Edge 31, Type (0, 0), BuildingBlock: MIFKUJ_clean_linker_0, # of connection points: 2
#     Edge 32, Type (0, 0), BuildingBlock: MIFKUJ_clean_linker_0, # of connection points: 2
#     Edge 33, Type (0, 0), BuildingBlock: MIFKUJ_clean_linker_0, # of connection points: 2
#     Edge 34, Type (0, 0), BuildingBlock: MIFKUJ_clean_linker_0, # of connection points: 2
#     Edge 35, Type (0, 0), BuildingBlock: MIFKUJ_clean_linker_0, # of connection points: 2
#     Edge 36, Type (0, 0), BuildingBlock: MIFKUJ_clean_linker_0, # of connection points: 2
#     Edge 37, Type (0, 0), BuildingBlock: MIFKUJ_clean_linker_0, # of connection points: 2
#     Edge 38, Type (0, 0), BuildingBlock: MIFKUJ_clean_linker_0, # of connection points: 2
#     Edge 39, Type (0, 0), BuildingBlock: MIFKUJ_clean_linker_0, # of connection points: 2
#     Edge 40, Type (0, 0), BuildingBlock: MIFKUJ_clean_linker_0, # of connection points: 2
#     Edge 41, Type (0, 0), BuildingBlock: MIFKUJ_clean_linker_0, # of connection points: 2
#     Edge 42, Type (0, 0), BuildingBlock: MIFKUJ_clean_linker_0, # of connection points: 2
#     Edge 43, Type (0, 0), BuildingBlock: MIFKUJ_clean_linker_0, # of connection points: 2
#     Edge 44, Type (0, 0), BuildingBlock: MIFKUJ_clean_linker_0, # of connection points: 2
#     Edge 45, Type (0, 0), BuildingBlock: MIFKUJ_clean_linker_0, # of connection points: 2
#     Edge 46, Type (0, 0), BuildingBlock: MIFKUJ_clean_linker_0, # of connection points: 2
#     Edge 47, Type (0, 0), BuildingBlock: MIFKUJ_clean_linker_0, # of connection points: 2
# Relax obj value: 0.051
# Max RMSD: 0.081
# Mean RMSD: 0.081
data_MOF--net-uoy--node1-KUFVIS_clean_sbu_0--edge1-MIFKUJ_clean_linker_0
_symmetry_space_group_name_H-M    P1
_symmetry_Int_Tables_number       1
_symmetry_cell_setting            triclinic
loop_
_symmetry_equiv_pos_as_xyz
'x, y, z'
_cell_length_a     35.827773
_cell_length_b     35.851694
_cell_length_c     136.40278
_cell_angle_alpha  89.952453
_cell_angle_beta   90.013197
_cell_angle_gamma 90.006445
loop_
_atom_site_label
_atom_site_type_symbol
_atom_site_fract_x
_atom_site_fract_y
_atom_site_fract_z
_atom_type_partial_charge
Mn0 Mn 0.26855 0.10396 0.18588 0.0
Mn1 Mn 0.21214 0.17307 0.19385 0.0
C2 C 0.26665 0.11824 0.20244 0.0
C3 C 0.32681 0.08334 0.18028 0.0
C4 C 0.18365 0.0969 0.1875 0.0
O5 O 0.25764 0.1335 0.1734 0.0
O6 O 0.22397 0.18092 0.17975 0.0
C7 C 0.26209 0.23851 0.19209 0.0
N8 N 0.23957 0.21641 0.19765 0.0
C9 C 0.24869 0.25543 0.2118 0.0
C10 C 0.27186 0.27871 0.20621 0.0
C11 C 0.27861 0.27018 0.19631 0.0
C12 C 0.23255 0.22456 0.20716 0.0
H13 H 0.26746 0.23196 0.18449 0.0
C14 C 0.24042 0.16462 0.17257 0.0
O15 O 0.29658 0.06434 0.17862 0.0
O16 O 0.32285 0.115 0.18474 0.0
N17 N 0.19934 0.16877 0.20743 0.0
C18 C 0.17998 0.14117 0.21205 0.0
C19 C 0.17282 0.14411 0.22214 0.0
C20 C 0.1856 0.17537 0.22736 0.0
C21 C 0.20547 0.20341 0.22244 0.0
C22 C 0.21145 0.19914 0.21236 0.0
H23 H 0.17026 0.11701 0.20807 0.0
O24 O 0.27708 0.08549 0.19948 0.0
O25 O 0.25666 0.14157 0.19559 0.0
O26 O 0.21534 0.08197 0.18581 0.0
O27 O 0.18003 0.1306 0.19032 0.0
C28 C 0.22054 0.23487 0.2272 0.0
C29 C 0.2421 0.26088 0.22188 0.0
H30 H 0.28505 0.30288 0.20947 0.0
H31 H 0.29663 0.28789 0.19197 0.0
H32 H 0.1576 0.12228 0.22589 0.0
H33 H 0.18036 0.17734 0.23516 0.0
H34 H 0.21639 0.23891 0.23499 0.0
H35 H 0.25423 0.28449 0.22567 0.0
Mn36 Mn 0.8954 0.76767 0.43759 0.0
Mn37 Mn 0.82157 0.71496 0.44418 0.0
C38 C 0.87845 0.76311 0.4539 0.0
C39 C 0.91857 0.82555 0.43253 0.0
C40 C 0.89705 0.68229 0.43869 0.0
O41 O 0.86794 0.75994 0.42469 0.0
O42 O 0.81767 0.72809 0.43004 0.0
C43 C 0.76241 0.77191 0.44182 0.0
N44 N 0.78082 0.74684 0.44757 0.0
C45 C 0.74137 0.76077 0.46136 0.0
C46 C 0.72185 0.78658 0.45558 0.0
C47 C 0.7325 0.79225 0.44578 0.0
C48 C 0.771 0.74139 0.45703 0.0
H49 H 0.77053 0.77638 0.43429 0.0
C50 C 0.83643 0.74422 0.42325 0.0
O51 O 0.93703 0.79497 0.43087 0.0
O52 O 0.8866 0.82218 0.43687 0.0
N53 N 0.82147 0.70061 0.4577 0.0
C54 C 0.84407 0.67577 0.46239 0.0
C55 C 0.83745 0.66727 0.47229 0.0
C56 C 0.8075 0.68411 0.47724 0.0
C57 C 0.78447 0.70942 0.47225 0.0
C58 C 0.79232 0.71666 0.46237 0.0
H59 H 0.86697 0.66253 0.4586 0.0
O60 O 0.91199 0.77333 0.45154 0.0
O61 O 0.85606 0.75605 0.44665 0.0
O62 O 0.91389 0.71332 0.43731 0.0
O63 O 0.86258 0.68002 0.44106 0.0
C64 C 0.75417 0.7279 0.4767 0.0
C65 C 0.73283 0.75378 0.47128 0.0
H66 H 0.69878 0.80235 0.45861 0.0
H67 H 0.71767 0.81224 0.44128 0.0
H68 H 0.85536 0.64773 0.4761 0.0
H69 H 0.80251 0.67748 0.48488 0.0
H70 H 0.74719 0.72267 0.4843 0.0
H71 H 0.70997 0.76823 0.47482 0.0
Mn72 Mn 0.25125 0.39833 0.68492 0.0
Mn73 Mn 0.30087 0.3234 0.69227 0.0
C74 C 0.25098 0.38024 0.7012 0.0
C75 C 0.19543 0.4237 0.67908 0.0
C76 C 0.33633 0.39829 0.68761 0.0
O77 O 0.26101 0.37105 0.67212 0.0
O78 O 0.29213 0.32084 0.67786 0.0
C79 C 0.24494 0.26449 0.68827 0.0
N80 N 0.26762 0.2827 0.6947 0.0
C81 C 0.24839 0.24273 0.70795 0.0
C82 C 0.22492 0.22349 0.70147 0.0
C83 C 0.22317 0.23445 0.69159 0.0
C84 C 0.26951 0.27239 0.70422 0.0
H85 H 0.24347 0.27281 0.68067 0.0
C86 C 0.27726 0.3397 0.67088 0.0
O87 O 0.22694 0.44122 0.67802 0.0
O88 O 0.19665 0.3913 0.68327 0.0
N89 N 0.31048 0.32227 0.70608 0.0
C90 C 0.33315 0.34481 0.71148 0.0
C91 C 0.33736 0.33809 0.72157 0.0
C92 C 0.31837 0.30819 0.72598 0.0
C93 C 0.29536 0.28525 0.72026 0.0
C94 C 0.29234 0.29322 0.71024 0.0
H95 H 0.34766 0.36794 0.70814 0.0
O96 O 0.24278 0.41429 0.69882 0.0
O97 O 0.25945 0.35814 0.69401 0.0
O98 O 0.30611 0.41542 0.68546 0.0
O99 O 0.33731 0.36403 0.6902 0.0
C100 C 0.27494 0.25507 0.72413 0.0
C101 C 0.25137 0.2339 0.71799 0.0
H102 H 0.208 0.20037 0.704 0.0
H103 H 0.20509 0.21977 0.68654 0.0
H104 H 0.35508 0.356 0.72594 0.0
H105 H 0.32148 0.30325 0.73377 0.0
H106 H 0.27676 0.24821 0.73186 0.0
H107 H 0.23541 0.2111 0.7211 0.0
Mn108 Mn 0.60168 0.73797 0.93552 0.0
Mn109 Mn 0.6759 0.78851 0.94286 0.0
C110 C 0.61989 0.73773 0.95183 0.0
C111 C 0.57752 0.68147 0.92972 0.0
C112 C 0.60048 0.82281 0.93782 0.0
O113 O 0.6289 0.74917 0.92267 0.0
O114 O 0.68045 0.77745 0.92864 0.0
C115 C 0.73552 0.73227 0.94011 0.0
N116 N 0.71656 0.75619 0.94605 0.0
C117 C 0.75562 0.74053 0.95981 0.0
C118 C 0.77578 0.716 0.95381 0.0
C119 C 0.76556 0.71173 0.94393 0.0
C120 C 0.72587 0.76017 0.9556 0.0
H121 H 0.72771 0.72884 0.93252 0.0
C122 C 0.66131 0.76362 0.92157 0.0
O123 O 0.55925 0.71254 0.92864 0.0
O124 O 0.61013 0.68364 0.93377 0.0
N125 N 0.67493 0.80026 0.95655 0.0
C126 C 0.65135 0.82343 0.96147 0.0
C127 C 0.65683 0.8296 0.97154 0.0
C128 C 0.68666 0.81216 0.97641 0.0
C129 C 0.71074 0.78868 0.97117 0.0
C130 C 0.70389 0.78358 0.96115 0.0
H131 H 0.62846 0.83703 0.95776 0.0
O132 O 0.58609 0.7285 0.94945 0.0
O133 O 0.64154 0.74695 0.94461 0.0
O134 O 0.58319 0.7922 0.93626 0.0
O135 O 0.6352 0.82428 0.93998 0.0
C136 C 0.74107 0.76988 0.97551 0.0
C137 C 0.76355 0.74588 0.96982 0.0
H138 H 0.79894 0.70007 0.95673 0.0
H139 H 0.78083 0.69267 0.93927 0.0
H140 H 0.63812 0.84775 0.97553 0.0
H141 H 0.69071 0.81687 0.98418 0.0
H142 H 0.74709 0.77332 0.98324 0.0
H143 H 0.78651 0.73123 0.97327 0.0
Mn144 Mn 0.27169 0.40675 0.06421 0.0
Mn145 Mn 0.22 0.33232 0.05754 0.0
C146 C 0.27035 0.38741 0.048 0.0
C147 C 0.32867 0.4313 0.06961 0.0
C148 C 0.18647 0.40829 0.06212 0.0
O149 O 0.26171 0.3806 0.07726 0.0
O150 O 0.23093 0.32975 0.07181 0.0
C151 C 0.27576 0.27273 0.0609 0.0
N152 N 0.25207 0.29107 0.05476 0.0
C153 C 0.26786 0.25036 0.04136 0.0
C154 C 0.2923 0.23092 0.04756 0.0
C155 C 0.29634 0.24224 0.05737 0.0
C156 C 0.24817 0.28058 0.04529 0.0
H157 H 0.27894 0.28132 0.06844 0.0
C158 C 0.24587 0.34907 0.07869 0.0
O159 O 0.29765 0.44961 0.07073 0.0
O160 O 0.32627 0.3985 0.0657 0.0
N161 N 0.20803 0.33132 0.04386 0.0
C162 C 0.18457 0.35402 0.03873 0.0
C163 C 0.1782 0.34708 0.02874 0.0
C164 C 0.19573 0.31672 0.02415 0.0
C165 C 0.21945 0.29352 0.0296 0.0
C166 C 0.2247 0.30177 0.03954 0.0
H167 H 0.17092 0.37732 0.04223 0.0
O168 O 0.27986 0.42133 0.05016 0.0
O169 O 0.26181 0.36618 0.05537 0.0
O170 O 0.21728 0.42527 0.0637 0.0
O171 O 0.18465 0.37361 0.06 0.0
C172 C 0.23834 0.26273 0.02554 0.0
C173 C 0.26259 0.24121 0.03141 0.0
H174 H 0.30825 0.20742 0.04486 0.0
H175 H 0.31526 0.22746 0.06219 0.0
H176 H 0.15984 0.36511 0.02458 0.0
H177 H 0.19089 0.31156 0.01643 0.0
H178 H 0.23482 0.25565 0.01788 0.0
H179 H 0.27738 0.21793 0.02817 0.0
Mn180 Mn 0.60216 0.7652 0.31428 0.0
Mn181 Mn 0.67637 0.71512 0.3067 0.0
C182 C 0.61725 0.76292 0.29782 0.0
C183 C 0.57825 0.82234 0.31968 0.0
C184 C 0.60257 0.67994 0.31275 0.0
O185 O 0.63157 0.757 0.32688 0.0
O186 O 0.68218 0.72753 0.32083 0.0
C187 C 0.73486 0.77299 0.30863 0.0
N188 N 0.71592 0.74802 0.30299 0.0
C189 C 0.75263 0.76379 0.28881 0.0
C190 C 0.77267 0.78953 0.29448 0.0
C191 C 0.76367 0.7942 0.30443 0.0
C192 C 0.72426 0.74339 0.2934 0.0
H193 H 0.72797 0.77674 0.31628 0.0
C194 C 0.66387 0.74238 0.3279 0.0
O195 O 0.56077 0.79127 0.32147 0.0
O196 O 0.60988 0.81981 0.31515 0.0
N197 N 0.67441 0.70179 0.29312 0.0
C198 C 0.6511 0.67731 0.28854 0.0
C199 C 0.65585 0.67004 0.27851 0.0
C200 C 0.6846 0.68781 0.27329 0.0
C201 C 0.7083 0.71282 0.27816 0.0
C202 C 0.70241 0.71875 0.28818 0.0
H203 H 0.62902 0.66347 0.29252 0.0
O204 O 0.58369 0.77173 0.30052 0.0
O205 O 0.6406 0.75553 0.30483 0.0
O206 O 0.58494 0.71032 0.31443 0.0
O207 O 0.63679 0.679 0.3101 0.0
C208 C 0.73724 0.73244 0.27343 0.0
C209 C 0.75928 0.75803 0.27874 0.0
H210 H 0.79481 0.80605 0.29125 0.0
H211 H 0.7789 0.81414 0.30884 0.0
H212 H 0.63739 0.65077 0.2748 0.0
H213 H 0.68811 0.68218 0.26554 0.0
H214 H 0.7425 0.72839 0.26568 0.0
H215 H 0.78105 0.77338 0.27498 0.0
Mn216 Mn 0.23719 0.10937 0.56115 0.0
Mn217 Mn 0.293 0.18503 0.55986 0.0
C218 C 0.24547 0.14029 0.54636 0.0
C219 C 0.17843 0.08295 0.56404 0.0
C220 C 0.32281 0.10593 0.56096 0.0
O221 O 0.2424 0.12467 0.57546 0.0
O222 O 0.2776 0.17653 0.57366 0.0
C223 C 0.23913 0.24372 0.56557 0.0
N224 N 0.26336 0.22914 0.5589 0.0
C225 C 0.25547 0.28189 0.54821 0.0
C226 C 0.23039 0.29748 0.55495 0.0
C227 C 0.22207 0.27822 0.56365 0.0
C228 C 0.27126 0.24724 0.55046 0.0
H229 H 0.23306 0.22927 0.57233 0.0
C230 C 0.2593 0.15314 0.57888 0.0
O231 O 0.20879 0.06336 0.56479 0.0
O232 O 0.1823 0.11784 0.56174 0.0
N233 N 0.30948 0.19657 0.54688 0.0
C234 C 0.33373 0.17739 0.54107 0.0
C235 C 0.34423 0.19244 0.53197 0.0
C236 C 0.33028 0.22732 0.52905 0.0
C237 C 0.30572 0.24668 0.53522 0.0
C238 C 0.29577 0.23005 0.54412 0.0
H239 H 0.34489 0.15078 0.54335 0.0
O240 O 0.23441 0.10582 0.54654 0.0
O241 O 0.25112 0.1557 0.55485 0.0
O242 O 0.29117 0.08946 0.56105 0.0
O243 O 0.32621 0.14134 0.56065 0.0
C244 C 0.29109 0.28206 0.53294 0.0
C245 C 0.26584 0.29959 0.5394 0.0
H246 H 0.21744 0.32425 0.55353 0.0
H247 H 0.20285 0.29011 0.56891 0.0
H248 H 0.36325 0.17732 0.52727 0.0
H249 H 0.33865 0.23899 0.52206 0.0
H250 H 0.29957 0.29614 0.5263 0.0
H251 H 0.25486 0.32687 0.5376 0.0
Mn252 Mn 0.89922 0.75495 0.81257 0.0
Mn253 Mn 0.82681 0.81017 0.80669 0.0
C254 C 0.87907 0.75958 0.79638 0.0
C255 C 0.92235 0.69665 0.8174 0.0
C256 C 0.90347 0.83977 0.81231 0.0
O257 O 0.87316 0.7639 0.82574 0.0
O258 O 0.82092 0.79309 0.82045 0.0
C259 C 0.76372 0.7569 0.8075 0.0
N260 N 0.78494 0.78161 0.80236 0.0
C261 C 0.74488 0.77655 0.78827 0.0
C262 C 0.72234 0.75133 0.79344 0.0
C263 C 0.73203 0.74116 0.80306 0.0
C264 C 0.77645 0.79077 0.79301 0.0
H265 H 0.77082 0.74944 0.81494 0.0
C266 C 0.84047 0.77738 0.82718 0.0
O267 O 0.94135 0.72705 0.81879 0.0
O268 O 0.88947 0.70031 0.81354 0.0
N269 N 0.82981 0.82766 0.79345 0.0
C270 C 0.85504 0.85152 0.78937 0.0
C271 C 0.85039 0.863 0.7796 0.0
C272 C 0.81959 0.8503 0.77418 0.0
C273 C 0.79384 0.82605 0.77857 0.0
C274 C 0.8002 0.81513 0.78829 0.0
H275 H 0.87852 0.86179 0.79351 0.0
O276 O 0.9127 0.74838 0.79834 0.0
O277 O 0.85891 0.76781 0.80393 0.0
O278 O 0.92008 0.80832 0.81261 0.0
O279 O 0.86845 0.84289 0.81078 0.0
C280 C 0.76181 0.81272 0.77374 0.0
C281 C 0.73707 0.78853 0.77865 0.0
H282 H 0.69761 0.73953 0.79009 0.0
H283 H 0.71488 0.72157 0.80709 0.0
H284 H 0.87035 0.88181 0.77628 0.0
H285 H 0.81592 0.85944 0.76667 0.0
H286 H 0.7557 0.82123 0.76629 0.0
H287 H 0.71185 0.77977 0.775 0.0
Mn288 Mn 0.77286 0.60226 0.68591 0.0
Mn289 Mn 0.7188 0.67223 0.69446 0.0
C290 C 0.77247 0.61642 0.70241 0.0
C291 C 0.82998 0.58105 0.67978 0.0
C292 C 0.68792 0.59642 0.68894 0.0
O293 O 0.76194 0.63205 0.6736 0.0
O294 O 0.72547 0.67733 0.67998 0.0
C295 C 0.7703 0.73515 0.69057 0.0
N296 N 0.74933 0.71492 0.69699 0.0
C297 C 0.76681 0.75491 0.71039 0.0
C298 C 0.78843 0.77627 0.70391 0.0
C299 C 0.79021 0.76632 0.69397 0.0
C300 C 0.74733 0.72433 0.70657 0.0
H301 H 0.77188 0.72757 0.68292 0.0
C302 C 0.7423 0.66158 0.67279 0.0
O303 O 0.79937 0.56233 0.67837 0.0
O304 O 0.82707 0.61234 0.68446 0.0
N305 N 0.71073 0.67113 0.70835 0.0
C306 C 0.69107 0.64598 0.71377 0.0
C307 C 0.68747 0.65128 0.72393 0.0
C308 C 0.70417 0.68234 0.72841 0.0
C309 C 0.72443 0.70776 0.72269 0.0
C310 C 0.7267 0.70126 0.71258 0.0
H311 H 0.67874 0.62175 0.7104 0.0
O312 O 0.78207 0.58338 0.69947 0.0
O313 O 0.76267 0.63992 0.69561 0.0
O314 O 0.71879 0.58221 0.68607 0.0
O315 O 0.68506 0.62948 0.69234 0.0
C316 C 0.74327 0.73876 0.72667 0.0
C317 C 0.76446 0.7623 0.72052 0.0
H318 H 0.80405 0.80018 0.70651 0.0
H319 H 0.80695 0.78259 0.68893 0.0
H320 H 0.67212 0.63132 0.72831 0.0
H321 H 0.70163 0.68615 0.73626 0.0
H322 H 0.74218 0.74436 0.73446 0.0
H323 H 0.77928 0.78572 0.72368 0.0
Mn324 Mn 0.39557 0.25667 0.93734 0.0
Mn325 Mn 0.3223 0.20198 0.94316 0.0
C326 C 0.37768 0.25011 0.95361 0.0
C327 C 0.41903 0.31489 0.93258 0.0
C328 C 0.39848 0.17151 0.93743 0.0
O329 O 0.36869 0.24977 0.92425 0.0
O330 O 0.31746 0.21885 0.92936 0.0
C331 C 0.26109 0.25727 0.94196 0.0
N332 N 0.28061 0.23142 0.94718 0.0
C333 C 0.24033 0.23902 0.96114 0.0
C334 C 0.21964 0.26558 0.9559 0.0
C335 C 0.23016 0.27483 0.94627 0.0
C336 C 0.27087 0.22246 0.95646 0.0
H337 H 0.26908 0.26444 0.93456 0.0
C338 C 0.33646 0.23558 0.92272 0.0
O339 O 0.43752 0.28434 0.93098 0.0
O340 O 0.3867 0.31152 0.93676 0.0
N341 N 0.32343 0.18431 0.95638 0.0
C342 C 0.34777 0.15998 0.96063 0.0
C343 C 0.34176 0.14845 0.97033 0.0
C344 C 0.31072 0.16188 0.97552 0.0
C345 C 0.2862 0.18711 0.97102 0.0
C346 C 0.29349 0.19741 0.96132 0.0
H347 H 0.37147 0.14928 0.95664 0.0
O348 O 0.41113 0.26116 0.95139 0.0
O349 O 0.35572 0.24356 0.94623 0.0
O350 O 0.41525 0.20284 0.93682 0.0
O351 O 0.3637 0.16858 0.93933 0.0
C352 C 0.25492 0.20255 0.97578 0.0
C353 C 0.23216 0.22869 0.97088 0.0
H354 H 0.19581 0.27924 0.95921 0.0
H355 H 0.21443 0.29542 0.94219 0.0
H356 H 0.36082 0.12903 0.97378 0.0
H357 H 0.30595 0.1525 0.98293 0.0
H358 H 0.24817 0.19469 0.98323 0.0
H359 H 0.20856 0.24082 0.97467 0.0
Mn360 Mn 0.75035 0.89305 0.18831 0.0
Mn361 Mn 0.80331 0.81661 0.1918 0.0
C362 C 0.75631 0.86713 0.20389 0.0
C363 C 0.69264 0.92001 0.18436 0.0
C364 C 0.83559 0.89396 0.1883 0.0
O365 O 0.75685 0.87223 0.17444 0.0
O366 O 0.78592 0.81803 0.17803 0.0
C367 C 0.74682 0.75732 0.18898 0.0
N368 N 0.7732 0.77408 0.19466 0.0
C369 C 0.76801 0.72638 0.20696 0.0
C370 C 0.74114 0.70826 0.2012 0.0
C371 C 0.73021 0.72403 0.19222 0.0
C372 C 0.78311 0.75975 0.20344 0.0
H373 H 0.73859 0.76924 0.18205 0.0
C374 C 0.7699 0.84033 0.17201 0.0
O375 O 0.72369 0.93829 0.18334 0.0
O376 O 0.6952 0.88593 0.18748 0.0
N377 N 0.8213 0.8119 0.20494 0.0
C378 C 0.84576 0.8341 0.20989 0.0
C379 C 0.85774 0.82353 0.21929 0.0
C380 C 0.84503 0.78993 0.22342 0.0
C381 C 0.82006 0.76748 0.21814 0.0
C382 C 0.80855 0.77979 0.20889 0.0
H383 H 0.85607 0.85965 0.20669 0.0
O384 O 0.74607 0.90163 0.20282 0.0
O385 O 0.76246 0.84904 0.19583 0.0
O386 O 0.80467 0.91164 0.18834 0.0
O387 O 0.83759 0.85855 0.18911 0.0
C388 C 0.80648 0.73314 0.22164 0.0
C389 C 0.7806 0.71254 0.21603 0.0
H390 H 0.72853 0.6824 0.20364 0.0
H391 H 0.70928 0.7104 0.18776 0.0
H392 H 0.87701 0.84103 0.22331 0.0
H393 H 0.8546 0.78166 0.23063 0.0
H394 H 0.81606 0.72227 0.22861 0.0
H395 H 0.77074 0.68591 0.21868 0.0
Mn396 Mn 0.09968 0.24856 0.43594 0.0
Mn397 Mn 0.17224 0.30125 0.44334 0.0
C398 C 0.11466 0.25179 0.4524 0.0
C399 C 0.07798 0.19074 0.43044 0.0
C400 C 0.0974 0.33351 0.43699 0.0
O401 O 0.12855 0.25815 0.42332 0.0
O402 O 0.17953 0.28717 0.42936 0.0
C403 C 0.23261 0.24503 0.44227 0.0
N404 N 0.21248 0.27013 0.44757 0.0
C405 C 0.24821 0.25708 0.46212 0.0
C406 C 0.26952 0.23131 0.45679 0.0
C407 C 0.26162 0.2252 0.44683 0.0
C408 C 0.21976 0.27614 0.45717 0.0
H409 H 0.22648 0.2401 0.43463 0.0
C410 C 0.16101 0.27242 0.4223 0.0
O411 O 0.05929 0.22117 0.42875 0.0
O412 O 0.1095 0.19429 0.43498 0.0
N413 N 0.16866 0.31618 0.45679 0.0
C414 C 0.1441 0.34034 0.46102 0.0
C415 C 0.14746 0.34866 0.47104 0.0
C416 C 0.1761 0.33222 0.4766 0.0
C417 C 0.20119 0.30765 0.47208 0.0
C418 C 0.19665 0.30064 0.46204 0.0
H419 H 0.12205 0.3531 0.45679 0.0
O420 O 0.08156 0.24129 0.44971 0.0
O421 O 0.13769 0.25989 0.44537 0.0
O422 O 0.08034 0.30251 0.43582 0.0
O423 O 0.13185 0.33576 0.43938 0.0
C424 C 0.23017 0.28939 0.47716 0.0
C425 C 0.25357 0.26404 0.47219 0.0
H426 H 0.29177 0.21578 0.4603 0.0
H427 H 0.27779 0.20518 0.44269 0.0
H428 H 0.12798 0.36764 0.47448 0.0
H429 H 0.17842 0.33848 0.48434 0.0
H430 H 0.23439 0.29428 0.48491 0.0
H431 H 0.27535 0.24971 0.47622 0.0
Mn432 Mn 0.75247 0.8926 0.56282 0.0
Mn433 Mn 0.69691 0.81692 0.56113 0.0
C434 C 0.74313 0.86398 0.54778 0.0
C435 C 0.81114 0.91951 0.56555 0.0
C436 C 0.66649 0.89542 0.56243 0.0
O437 O 0.74869 0.87564 0.57703 0.0
O438 O 0.71054 0.8263 0.57501 0.0
C439 C 0.75293 0.76081 0.56725 0.0
N440 N 0.72765 0.77348 0.56057 0.0
C441 C 0.73749 0.72006 0.55026 0.0
C442 C 0.76351 0.7063 0.55703 0.0
C443 C 0.77145 0.72692 0.56553 0.0
C444 C 0.7203 0.75423 0.55229 0.0
H445 H 0.7589 0.77641 0.57383 0.0
C446 C 0.72987 0.84827 0.58038 0.0
O447 O 0.78056 0.93849 0.5667 0.0
O448 O 0.80753 0.88486 0.563 0.0
N449 N 0.68145 0.80389 0.54818 0.0
C450 C 0.65696 0.8219 0.54217 0.0
C451 C 0.64672 0.80543 0.53323 0.0
C452 C 0.66116 0.77035 0.53067 0.0
C453 C 0.68609 0.75226 0.53702 0.0
C454 C 0.69557 0.77018 0.54577 0.0
H455 H 0.64534 0.84861 0.5442 0.0
O456 O 0.75392 0.89847 0.5483 0.0
O457 O 0.7385 0.84692 0.55612 0.0
O458 O 0.69811 0.91179 0.56314 0.0
O459 O 0.6631 0.86015 0.5615 0.0
C460 C 0.70175 0.71704 0.53505 0.0
C461 C 0.72785 0.70118 0.54157 0.0
H462 H 0.77766 0.68004 0.55577 0.0
H463 H 0.79167 0.71662 0.57077 0.0
H464 H 0.62745 0.81956 0.52838 0.0
H465 H 0.65286 0.75758 0.52382 0.0
H466 H 0.69366 0.70175 0.52861 0.0
H467 H 0.74012 0.67434 0.53987 0.0
Mn468 Mn 0.10893 0.27143 0.81224 0.0
Mn469 Mn 0.18399 0.21764 0.80761 0.0
C470 C 0.12866 0.2627 0.79618 0.0
C471 C 0.08414 0.32996 0.81622 0.0
C472 C 0.10784 0.18648 0.81323 0.0
O473 O 0.13428 0.26655 0.82562 0.0
O474 O 0.18753 0.23756 0.82115 0.0
C475 C 0.24359 0.27483 0.80815 0.0
N476 N 0.22532 0.24707 0.80332 0.0
C477 C 0.26684 0.25196 0.78952 0.0
C478 C 0.28639 0.28033 0.79439 0.0
C479 C 0.27458 0.29193 0.80373 0.0
C480 C 0.23618 0.23597 0.7943 0.0
H481 H 0.23447 0.28392 0.8153 0.0
C482 C 0.16696 0.25409 0.82748 0.0
O483 O 0.06587 0.2994 0.818 0.0
O484 O 0.11695 0.32641 0.81232 0.0
N485 N 0.1842 0.19705 0.79469 0.0
C486 C 0.16067 0.17132 0.79071 0.0
C487 C 0.16786 0.1575 0.78128 0.0
C488 C 0.19926 0.1701 0.77609 0.0
C489 C 0.22291 0.19681 0.78029 0.0
C490 C 0.21446 0.20938 0.78974 0.0
H491 H 0.13673 0.16121 0.79471 0.0
O492 O 0.09488 0.27369 0.79803 0.0
O493 O 0.1499 0.25771 0.80378 0.0
O494 O 0.09019 0.21741 0.81316 0.0
O495 O 0.14299 0.18415 0.81176 0.0
C496 C 0.25444 0.21156 0.77549 0.0
C497 C 0.27621 0.23933 0.78006 0.0
H498 H 0.31025 0.29365 0.791 0.0
H499 H 0.28933 0.31401 0.8075 0.0
H500 H 0.14946 0.13694 0.77806 0.0
H501 H 0.20497 0.15893 0.7689 0.0
H502 H 0.26211 0.20194 0.76825 0.0
H503 H 0.29997 0.25095 0.77621 0.0
Mn504 Mn 0.75319 0.61432 0.0624 0.0
Mn505 Mn 0.80772 0.68659 0.05569 0.0
C506 C 0.75908 0.62979 0.04594 0.0
C507 C 0.69499 0.59162 0.06746 0.0
C508 C 0.83841 0.61131 0.06211 0.0
O509 O 0.7607 0.64303 0.07518 0.0
O510 O 0.79152 0.69341 0.06947 0.0
C511 C 0.75241 0.74788 0.05644 0.0
N512 N 0.7781 0.72769 0.05134 0.0
C513 C 0.77005 0.76613 0.03704 0.0
C514 C 0.7437 0.78752 0.04215 0.0
C515 C 0.73474 0.77825 0.05188 0.0
C516 C 0.78675 0.73621 0.04196 0.0
H517 H 0.74544 0.74082 0.06391 0.0
C518 C 0.77507 0.67539 0.07634 0.0
O519 O 0.72559 0.57337 0.06923 0.0
O520 O 0.69835 0.62335 0.06298 0.0
N521 N 0.82472 0.68357 0.04244 0.0
C522 C 0.84859 0.65845 0.03833 0.0
C523 C 0.85961 0.66306 0.02854 0.0
C524 C 0.8462 0.69352 0.02311 0.0
C525 C 0.82139 0.7188 0.02746 0.0
C526 C 0.81153 0.71289 0.03726 0.0
H527 H 0.85925 0.63518 0.0425 0.0
O528 O 0.74812 0.59672 0.04853 0.0
O529 O 0.76597 0.6528 0.05308 0.0
O530 O 0.80706 0.5947 0.06298 0.0
O531 O 0.84134 0.64575 0.05984 0.0
C532 C 0.80588 0.74951 0.02245 0.0
C533 C 0.78002 0.77299 0.02721 0.0
H534 H 0.72994 0.81091 0.03865 0.0
H535 H 0.71428 0.79449 0.05585 0.0
H536 H 0.87863 0.64335 0.0252 0.0
H537 H 0.85523 0.69723 0.01563 0.0
H538 H 0.81345 0.75524 0.01492 0.0
H539 H 0.7678 0.79611 0.02322 0.0
Mn540 Mn 0.39978 0.24425 0.31471 0.0
Mn541 Mn 0.33022 0.29872 0.3062 0.0
C542 C 0.38594 0.24375 0.29815 0.0
C543 C 0.41899 0.18699 0.32122 0.0
C544 C 0.40613 0.32862 0.31249 0.0
O545 O 0.3706 0.25774 0.32699 0.0
O546 O 0.32133 0.28785 0.32035 0.0
C547 C 0.26554 0.24774 0.30785 0.0
N548 N 0.2877 0.27023 0.30229 0.0
C549 C 0.25034 0.2589 0.28793 0.0
C550 C 0.22694 0.23584 0.29352 0.0
C551 C 0.23462 0.2302 0.30351 0.0
C552 C 0.28041 0.27611 0.29268 0.0
H553 H 0.2715 0.24313 0.31551 0.0
C554 C 0.33877 0.27359 0.32768 0.0
O555 O 0.43872 0.21706 0.32247 0.0
O556 O 0.38779 0.19063 0.31652 0.0
N557 N 0.33553 0.31047 0.29259 0.0
C558 C 0.3633 0.32978 0.28802 0.0
C559 C 0.36134 0.33573 0.27786 0.0
C560 C 0.33087 0.32183 0.27251 0.0
C561 C 0.30264 0.30201 0.27737 0.0
C562 C 0.30594 0.29721 0.28752 0.0
H563 H 0.3869 0.34032 0.29209 0.0
O564 O 0.41849 0.2332 0.30127 0.0
O565 O 0.36249 0.2547 0.30486 0.0
O566 O 0.42179 0.29723 0.31413 0.0
O567 O 0.3721 0.33168 0.30984 0.0
C568 C 0.27199 0.28583 0.27249 0.0
C569 C 0.24583 0.26434 0.27777 0.0
H570 H 0.20336 0.22184 0.29018 0.0
H571 H 0.21685 0.2122 0.30786 0.0
H572 H 0.38335 0.35086 0.27415 0.0
H573 H 0.32967 0.32613 0.26465 0.0
H574 H 0.26872 0.28906 0.26464 0.0
H575 H 0.22285 0.25135 0.2739 0.0
H576 H 0.20981 0.28604 0.08479 0.0
H577 H 0.20974 0.25815 0.10105 0.0
H578 H 0.28018 0.34677 0.11173 0.0
H579 H 0.28074 0.37507 0.09535 0.0
H580 H 0.30375 0.27788 0.11809 0.0
H581 H 0.1901 0.34731 0.11753 0.0
H582 H 0.12986 0.36857 0.11081 0.0
H583 H 0.08754 0.25662 0.11209 0.0
H584 H 0.14774 0.23458 0.1187 0.0
H585 H 0.20891 0.23202 0.16809 0.0
H586 H 0.21098 0.26555 0.15259 0.0
H587 H 0.27338 0.17541 0.13958 0.0
H588 H 0.27202 0.14165 0.15518 0.0
H589 H 0.18431 0.25058 0.13506 0.0
H590 H 0.33376 0.21165 0.12256 0.0
H591 H 0.39442 0.19483 0.12991 0.0
H592 H 0.36584 0.25476 0.15609 0.0
H593 H 0.30527 0.27236 0.14886 0.0
C594 C 0.22527 0.29985 0.09057 0.0
C595 C 0.24518 0.33301 0.08873 0.0
C596 C 0.2251 0.28381 0.09988 0.0
C597 C 0.24467 0.30053 0.10762 0.0
C598 C 0.26484 0.33345 0.10585 0.0
C599 C 0.26495 0.34968 0.0965 0.0
C600 C 0.24393 0.28329 0.11752 0.0
C601 C 0.27766 0.27198 0.12182 0.0
C602 C 0.20992 0.27608 0.12245 0.0
C603 C 0.17355 0.28925 0.11854 0.0
C604 C 0.16805 0.32717 0.11632 0.0
C605 C 0.13389 0.33938 0.11254 0.0
C606 C 0.10492 0.31395 0.111 0.0
C607 C 0.11002 0.27628 0.11328 0.0
C608 C 0.14414 0.26392 0.11705 0.0
C609 C 0.22304 0.2191 0.16195 0.0
C610 C 0.24037 0.18402 0.16293 0.0
C611 C 0.22413 0.23839 0.15307 0.0
C612 C 0.24263 0.22323 0.14494 0.0
C613 C 0.25942 0.18795 0.1458 0.0
C614 C 0.25843 0.16857 0.15472 0.0
C615 C 0.2441 0.24446 0.13558 0.0
C616 C 0.21044 0.25649 0.13136 0.0
C617 C 0.27823 0.25293 0.13083 0.0
C618 C 0.31483 0.24299 0.1352 0.0
C619 C 0.3405 0.22136 0.12987 0.0
C620 C 0.37485 0.21167 0.13402 0.0
C621 C 0.38393 0.22361 0.14347 0.0
C622 C 0.35872 0.2454 0.14879 0.0
C623 C 0.32436 0.25521 0.14467 0.0
H624 H 0.41052 0.21605 0.14667 0.0
H625 H 0.07849 0.32345 0.10808 0.0
H626 H 0.77444 0.7072 0.41676 0.0
H627 H 0.74703 0.70845 0.40041 0.0
H628 H 0.83315 0.78388 0.39068 0.0
H629 H 0.86097 0.783 0.40709 0.0
H630 H 0.76216 0.80502 0.38442 0.0
H631 H 0.83939 0.69559 0.38444 0.0
H632 H 0.86293 0.63569 0.39085 0.0
H633 H 0.75366 0.5877 0.388 0.0
H634 H 0.72933 0.64749 0.38172 0.0
H635 H 0.73345 0.71715 0.33283 0.0
H636 H 0.76376 0.71918 0.34879 0.0
H637 H 0.66586 0.77054 0.36128 0.0
H638 H 0.63527 0.76917 0.34524 0.0
H639 H 0.74654 0.68725 0.36577 0.0
H640 H 0.69345 0.82986 0.37952 0.0
H641 H 0.67209 0.88999 0.37272 0.0
H642 H 0.73938 0.87263 0.34708 0.0
H643 H 0.76148 0.81265 0.35378 0.0
C644 C 0.7877 0.72411 0.41117 0.0
C645 C 0.8201 0.74487 0.41325 0.0
C646 C 0.77195 0.72471 0.40181 0.0
C647 C 0.78821 0.74604 0.39433 0.0
C648 C 0.82021 0.76723 0.39637 0.0
C649 C 0.83617 0.7665 0.40574 0.0
C650 C 0.77188 0.74573 0.38435 0.0
C651 C 0.75877 0.77931 0.38033 0.0
C652 C 0.76782 0.71222 0.37898 0.0
C653 C 0.78247 0.67613 0.38269 0.0
C654 C 0.82032 0.67235 0.38525 0.0
C655 C 0.83381 0.6384 0.38885 0.0
C656 C 0.80978 0.60794 0.38985 0.0
C657 C 0.77223 0.61133 0.38723 0.0
C658 C 0.75858 0.64523 0.38364 0.0
C659 C 0.71819 0.72889 0.33894 0.0
C660 C 0.68182 0.74305 0.33771 0.0
C661 C 0.73563 0.72994 0.34808 0.0
C662 C 0.71724 0.74526 0.35621 0.0
C663 C 0.68079 0.75906 0.35507 0.0
C664 C 0.66329 0.75811 0.3459 0.0
C665 C 0.73633 0.74648 0.36586 0.0
C666 C 0.74991 0.71301 0.36984 0.0
C667 C 0.7412 0.78016 0.37112 0.0
C668 C 0.72882 0.81661 0.36712 0.0
C669 C 0.70382 0.83898 0.37246 0.0
C670 C 0.69156 0.87301 0.36861 0.0
C671 C 0.70428 0.88507 0.35946 0.0
C672 C 0.72944 0.8632 0.35415 0.0
C673 C 0.74181 0.82917 0.35797 0.0
H674 H 0.69468 0.91138 0.35649 0.0
H675 H 0.82026 0.58169 0.39263 0.0
H676 H 0.20096 0.18703 0.58757 0.0
H677 H 0.20052 0.21565 0.60392 0.0
H678 H 0.30966 0.16983 0.60969 0.0
H679 H 0.31044 0.14191 0.59322 0.0
H680 H 0.25373 0.17019 0.62647 0.0
H681 H 0.31194 0.24874 0.60153 0.0
H682 H 0.31106 0.27936 0.58534 0.0
H683 H 0.21317 0.34091 0.59356 0.0
H684 H 0.213 0.30999 0.60974 0.0
H685 H 0.32172 0.28365 0.66403 0.0
H686 H 0.31625 0.25045 0.64851 0.0
H687 H 0.22531 0.32235 0.63997 0.0
H688 H 0.23133 0.35654 0.65541 0.0
H689 H 0.2675 0.30788 0.6246 0.0
H690 H 0.20928 0.23551 0.64945 0.0
H691 H 0.2043 0.20384 0.66545 0.0
H692 H 0.29387 0.13027 0.6575 0.0
H693 H 0.29992 0.16202 0.64153 0.0
C694 C 0.22422 0.18211 0.59248 0.0
C695 C 0.25553 0.16205 0.58929 0.0
C696 C 0.22403 0.19852 0.60176 0.0
C697 C 0.25509 0.19483 0.60796 0.0
C698 C 0.28537 0.17268 0.60501 0.0
C699 C 0.2858 0.15677 0.59566 0.0
C700 C 0.25798 0.21777 0.61693 0.0
C701 C 0.25712 0.20023 0.6261 0.0
C702 C 0.26123 0.25704 0.61637 0.0
C703 C 0.26224 0.27678 0.60681 0.0
C704 C 0.29009 0.26863 0.59987 0.0
C705 C 0.28978 0.28603 0.59069 0.0
C706 C 0.26202 0.312 0.58841 0.0
C707 C 0.23462 0.32074 0.59533 0.0
C708 C 0.23472 0.3033 0.60451 0.0
C709 C 0.3008 0.29271 0.65882 0.0
C710 C 0.27673 0.32255 0.66101 0.0
C711 C 0.29759 0.27357 0.64996 0.0
C712 C 0.26976 0.2833 0.64317 0.0
C713 C 0.24684 0.31419 0.64512 0.0
C714 C 0.25034 0.33372 0.65395 0.0
C715 C 0.26384 0.26034 0.63425 0.0
C716 C 0.26404 0.27787 0.62504 0.0
C717 C 0.25927 0.22108 0.63479 0.0
C718 C 0.25528 0.20139 0.64432 0.0
C719 C 0.22809 0.21273 0.65114 0.0
C720 C 0.22506 0.19477 0.6602 0.0
C721 C 0.2488 0.16511 0.6625 0.0
C722 C 0.27553 0.15328 0.65572 0.0
C723 C 0.27877 0.17125 0.64665 0.0
H724 H 0.24643 0.15125 0.66952 0.0
H725 H 0.26179 0.32539 0.5813 0.0
H726 H 0.76654 0.78157 0.8316 0.0
H727 H 0.73704 0.77715 0.84758 0.0
H728 H 0.8448 0.76228 0.86116 0.0
H729 H 0.87471 0.76518 0.84499 0.0
H730 H 0.79643 0.71787 0.86953 0.0
H731 H 0.79714 0.84742 0.86188 0.0
H732 H 0.78683 0.90384 0.85189 0.0
H733 H 0.66891 0.88244 0.85164 0.0
H734 H 0.67856 0.82557 0.86152 0.0
H735 H 0.73523 0.77103 0.91727 0.0
H736 H 0.76489 0.77076 0.9012 0.0
H737 H 0.65759 0.75642 0.88741 0.0
H738 H 0.62737 0.75597 0.90358 0.0
H739 H 0.706 0.81571 0.87944 0.0
H740 H 0.70865 0.68499 0.88785 0.0
H741 H 0.72225 0.63152 0.89866 0.0
H742 H 0.83873 0.65971 0.89846 0.0
H743 H 0.82574 0.71372 0.88776 0.0
C744 C 0.78415 0.77737 0.83796 0.0
C745 C 0.82312 0.77411 0.83701 0.0
C746 C 0.76715 0.77502 0.84713 0.0
C747 C 0.78869 0.7703 0.85563 0.0
C748 C 0.82758 0.76618 0.85471 0.0
C749 C 0.84467 0.76793 0.84548 0.0
C750 C 0.7703 0.76972 0.8654 0.0
C751 C 0.77707 0.73956 0.87174 0.0
C752 C 0.7446 0.79776 0.86828 0.0
C753 C 0.73862 0.83204 0.86237 0.0
C754 C 0.76903 0.85459 0.85964 0.0
C755 C 0.7633 0.88668 0.854 0.0
C756 C 0.72724 0.89667 0.85111 0.0
C757 C 0.69683 0.87464 0.85388 0.0
C758 C 0.70241 0.8425 0.8595 0.0
C759 C 0.71777 0.76778 0.91085 0.0
C760 C 0.67882 0.76354 0.91173 0.0
C761 C 0.73488 0.7675 0.90167 0.0
C762 C 0.71345 0.76339 0.89315 0.0
C763 C 0.67456 0.75954 0.89393 0.0
C764 C 0.65738 0.7592 0.90316 0.0
C765 C 0.73193 0.76379 0.88344 0.0
C766 C 0.72529 0.79404 0.87718 0.0
C767 C 0.75825 0.73628 0.88073 0.0
C768 C 0.76616 0.70361 0.88708 0.0
C769 C 0.73712 0.67998 0.89018 0.0
C770 C 0.74473 0.64953 0.89627 0.0
C771 C 0.78132 0.64228 0.89926 0.0
C772 C 0.81039 0.66539 0.89614 0.0
C773 C 0.80293 0.6959 0.89006 0.0
H774 H 0.78715 0.6187 0.90398 0.0
H775 H 0.72286 0.92151 0.84675 0.0
H776 H 0.79115 0.8492 0.59227 0.0
H777 H 0.79571 0.82256 0.60886 0.0
H778 H 0.67747 0.8002 0.60865 0.0
H779 H 0.67298 0.82556 0.59201 0.0
H780 H 0.71312 0.83099 0.6276 0.0
H781 H 0.72142 0.73332 0.60239 0.0
H782 H 0.74972 0.70621 0.58754 0.0
H783 H 0.85701 0.70522 0.60159 0.0
H784 H 0.82935 0.7329 0.61648 0.0
H785 H 0.68333 0.6975 0.66442 0.0
H786 H 0.68288 0.73268 0.64905 0.0
H787 H 0.79931 0.70625 0.64467 0.0
H788 H 0.7989 0.66882 0.65966 0.0
H789 H 0.7695 0.70455 0.62823 0.0
H790 H 0.76487 0.79478 0.65379 0.0
H791 H 0.74155 0.8247 0.66886 0.0
H792 H 0.63594 0.84515 0.65497 0.0
H793 H 0.65842 0.81482 0.63986 0.0
C794 C 0.76605 0.83945 0.59589 0.0
C795 C 0.73172 0.83932 0.59091 0.0
C796 C 0.7687 0.82418 0.60531 0.0
C797 C 0.7369 0.80943 0.60992 0.0
C798 C 0.70222 0.8116 0.60521 0.0
C799 C 0.69973 0.82597 0.59572 0.0
C800 C 0.74014 0.78818 0.61917 0.0
C801 C 0.72527 0.80328 0.62779 0.0
C802 C 0.75698 0.75258 0.61939 0.0
C803 C 0.77342 0.73554 0.61049 0.0
C804 C 0.7511 0.72764 0.60228 0.0
C805 C 0.76701 0.71212 0.59386 0.0
C806 C 0.80517 0.70409 0.59361 0.0
C807 C 0.82747 0.71151 0.60179 0.0
C808 C 0.81169 0.72709 0.61022 0.0
C809 C 0.70864 0.69893 0.66009 0.0
C810 C 0.74112 0.68051 0.6632 0.0
C811 C 0.70855 0.71939 0.65137 0.0
C812 C 0.74138 0.72318 0.6458 0.0
C813 C 0.77363 0.70398 0.64881 0.0
C814 C 0.77339 0.68255 0.65738 0.0
C815 C 0.74212 0.74701 0.63684 0.0
C816 C 0.75769 0.7324 0.6282 0.0
C817 C 0.72674 0.78352 0.63668 0.0
C818 C 0.71326 0.80226 0.64571 0.0
C819 C 0.73661 0.80549 0.65396 0.0
C820 C 0.72354 0.82252 0.66251 0.0
C821 C 0.68727 0.83676 0.66288 0.0
C822 C 0.66402 0.83409 0.65468 0.0
C823 C 0.67692 0.817 0.64612 0.0
H824 H 0.67719 0.84993 0.66951 0.0
H825 H 0.81745 0.692 0.5871 0.0
H826 H 0.3686 0.26006 0.90554 0.0
H827 H 0.3385 0.26702 0.88953 0.0
H828 H 0.23444 0.22844 0.90182 0.0
H829 H 0.26431 0.22045 0.91768 0.0
H830 H 0.24412 0.1968 0.88507 0.0
H831 H 0.25032 0.32181 0.89663 0.0
H832 H 0.28 0.3781 0.90347 0.0
H833 H 0.35131 0.38579 0.87826 0.0
H834 H 0.32233 0.32918 0.87131 0.0
H835 H 0.12934 0.25719 0.84498 0.0
H836 H 0.15677 0.25862 0.86151 0.0
H837 H 0.26703 0.26329 0.84892 0.0
H838 H 0.24012 0.26081 0.83249 0.0
H839 H 0.25176 0.31427 0.8659 0.0
H840 H 0.24378 0.18485 0.85517 0.0
H841 H 0.20982 0.13009 0.84885 0.0
H842 H 0.13567 0.13393 0.87355 0.0
H843 H 0.16888 0.18915 0.87994 0.0
C844 C 0.33934 0.253 0.90483 0.0
C845 C 0.31898 0.23961 0.91291 0.0
C846 C 0.32208 0.2572 0.89568 0.0
C847 C 0.28404 0.24865 0.89448 0.0
C848 C 0.2638 0.23515 0.90253 0.0
C849 C 0.28103 0.23062 0.91163 0.0
C850 C 0.26524 0.25315 0.88484 0.0
C851 C 0.24543 0.22271 0.88097 0.0
C852 C 0.26704 0.28683 0.87941 0.0
C853 C 0.2844 0.32104 0.8835 0.0
C854 C 0.27251 0.33534 0.89257 0.0
C855 C 0.28917 0.36732 0.89646 0.0
C856 C 0.31757 0.38544 0.89131 0.0
C857 C 0.32932 0.37168 0.88224 0.0
C858 C 0.31276 0.33966 0.87832 0.0
C859 C 0.15937 0.25899 0.84575 0.0
C860 C 0.18258 0.25865 0.83745 0.0
C861 C 0.17496 0.25979 0.85517 0.0
C862 C 0.21388 0.26105 0.85639 0.0
C863 C 0.23695 0.26247 0.84811 0.0
C864 C 0.22149 0.26084 0.83874 0.0
C865 C 0.23089 0.25799 0.86624 0.0
C866 C 0.2504 0.28857 0.87009 0.0
C867 C 0.22826 0.22472 0.87175 0.0
C868 C 0.20851 0.19138 0.86796 0.0
C869 C 0.22001 0.17424 0.8592 0.0
C870 C 0.20094 0.14308 0.85562 0.0
C871 C 0.17052 0.12861 0.86078 0.0
C872 C 0.15918 0.14521 0.86955 0.0
C873 C 0.17812 0.17643 0.87316 0.0
H874 H 0.1558 0.10447 0.85799 0.0
H875 H 0.33036 0.4102 0.89435 0.0
H876 H 0.75738 0.6443 0.09418 0.0
H877 H 0.7526 0.67618 0.10999 0.0
H878 H 0.77913 0.78091 0.09601 0.0
H879 H 0.78527 0.74922 0.08033 0.0
H880 H 0.81583 0.77694 0.11208 0.0
H881 H 0.68838 0.75742 0.10349 0.0
H882 H 0.63281 0.72195 0.09832 0.0
H883 H 0.64038 0.65415 0.1242 0.0
H884 H 0.69635 0.68887 0.12947 0.0
H885 H 0.76216 0.88193 0.15514 0.0
H886 H 0.75848 0.85822 0.13823 0.0
H887 H 0.76339 0.74534 0.14908 0.0
H888 H 0.76804 0.76844 0.16579 0.0
H889 H 0.70697 0.75954 0.13409 0.0
H890 H 0.83888 0.77799 0.14144 0.0
H891 H 0.89267 0.8164 0.14649 0.0
H892 H 0.87311 0.89078 0.12234 0.0
H893 H 0.81879 0.85309 0.11724 0.0
C894 C 0.76216 0.67411 0.09448 0.0
C895 C 0.77176 0.69413 0.08598 0.0
C896 C 0.75921 0.69238 0.10351 0.0
C897 C 0.76499 0.73111 0.10418 0.0
C898 C 0.77458 0.75105 0.0957 0.0
C899 C 0.77804 0.7328 0.08672 0.0
C900 C 0.76189 0.75083 0.11373 0.0
C901 C 0.79167 0.77358 0.11679 0.0
C902 C 0.73052 0.74644 0.11995 0.0
C903 C 0.69677 0.72555 0.11683 0.0
C904 C 0.67836 0.73477 0.10805 0.0
C905 C 0.64677 0.71482 0.1051 0.0
C906 C 0.63313 0.68576 0.11092 0.0
C907 C 0.65101 0.67665 0.1197 0.0
C908 C 0.68265 0.69648 0.12268 0.0
C909 C 0.7622 0.8521 0.1539 0.0
C910 C 0.76559 0.8271 0.1618 0.0
C911 C 0.76011 0.83863 0.14427 0.0
C912 C 0.76064 0.80005 0.14246 0.0
C913 C 0.76278 0.77518 0.15034 0.0
C914 C 0.76564 0.78852 0.15989 0.0
C915 C 0.76092 0.78506 0.13237 0.0
C916 C 0.73074 0.76318 0.12925 0.0
C917 C 0.79161 0.79066 0.12604 0.0
C918 C 0.82451 0.81301 0.12903 0.0
C919 C 0.84584 0.80273 0.13726 0.0
C920 C 0.87646 0.82432 0.14012 0.0
C921 C 0.88622 0.85609 0.13476 0.0
C922 C 0.86546 0.86622 0.1265 0.0
C923 C 0.83477 0.84475 0.12362 0.0
H924 H 0.90991 0.87278 0.13699 0.0
H925 H 0.60866 0.67035 0.10862 0.0
H926 H 0.23507 0.27889 0.41795 0.0
H927 H 0.26429 0.27889 0.40183 0.0
H928 H 0.15629 0.26588 0.38823 0.0
H929 H 0.12691 0.26435 0.40443 0.0
H930 H 0.20384 0.22395 0.37918 0.0
H931 H 0.20389 0.35178 0.3889 0.0
H932 H 0.21548 0.40559 0.39973 0.0
H933 H 0.33327 0.38383 0.3988 0.0
H934 H 0.32235 0.32955 0.38807 0.0
H935 H 0.26461 0.28334 0.33166 0.0
H936 H 0.23413 0.28291 0.3477 0.0
H937 H 0.34065 0.26635 0.36175 0.0
H938 H 0.37144 0.26609 0.34572 0.0
H939 H 0.29293 0.32433 0.37019 0.0
H940 H 0.28995 0.19508 0.36019 0.0
H941 H 0.27587 0.1437 0.34877 0.0
H942 H 0.1595 0.1722 0.34954 0.0
H943 H 0.17299 0.22415 0.36086 0.0
C944 C 0.21746 0.27605 0.41154 0.0
C945 C 0.17859 0.2719 0.41247 0.0
C946 C 0.23423 0.27624 0.4023 0.0
C947 C 0.21246 0.27321 0.39378 0.0
C948 C 0.17369 0.26842 0.39469 0.0
C949 C 0.15691 0.26761 0.40395 0.0
C950 C 0.23026 0.27487 0.38394 0.0
C951 C 0.22287 0.24624 0.37718 0.0
C952 C 0.25554 0.30366 0.38133 0.0
C953 C 0.26226 0.33639 0.38775 0.0
C954 C 0.23224 0.35831 0.39106 0.0
C955 C 0.2387 0.38892 0.39717 0.0
C956 C 0.27508 0.39807 0.39997 0.0
C957 C 0.3051 0.37668 0.39664 0.0
C958 C 0.2988 0.34601 0.39053 0.0
C959 C 0.28163 0.27974 0.33815 0.0
C960 C 0.32048 0.27466 0.33741 0.0
C961 C 0.26412 0.27939 0.3473 0.0
C962 C 0.28517 0.27444 0.35588 0.0
C963 C 0.32399 0.27017 0.3552 0.0
C964 C 0.34147 0.2699 0.34604 0.0
C965 C 0.26656 0.27342 0.36555 0.0
C966 C 0.2738 0.30219 0.37223 0.0
C967 C 0.24072 0.24515 0.36803 0.0
C968 C 0.23254 0.21375 0.36129 0.0
C969 C 0.2614 0.19061 0.35786 0.0
C970 C 0.25352 0.16134 0.35142 0.0
C971 C 0.21683 0.15475 0.34841 0.0
C972 C 0.18792 0.17737 0.35186 0.0
C973 C 0.19566 0.20671 0.3583 0.0
H974 H 0.21078 0.13208 0.34342 0.0
H975 H 0.28002 0.42178 0.4047 0.0
H976 H 0.29438 0.18543 0.20786 0.0
H977 H 0.30928 0.20695 0.22418 0.0
H978 H 0.29537 0.0941 0.23492 0.0
H979 H 0.26935 0.07626 0.2191 0.0
H980 H 0.28522 0.12562 0.24885 0.0
H981 H 0.38827 0.14979 0.22857 0.0
H982 H 0.42413 0.17284 0.21436 0.0
H983 H 0.39692 0.28572 0.22202 0.0
H984 H 0.36044 0.26338 0.23619 0.0
H985 H 0.428 0.24383 0.28154 0.0
H986 H 0.4116 0.21743 0.26565 0.0
H987 H 0.29987 0.19599 0.27634 0.0
H988 H 0.31996 0.21326 0.29268 0.0
H989 H 0.37812 0.22719 0.25179 0.0
H990 H 0.24879 0.13837 0.26473 0.0
H991 H 0.23155 0.09878 0.27882 0.0
H992 H 0.34738 0.08273 0.28573 0.0
H993 H 0.36535 0.12187 0.27162 0.0
C994 C 0.29132 0.16629 0.21392 0.0
C995 C 0.27721 0.1304 0.2124 0.0
C996 C 0.30232 0.17788 0.22322 0.0
C997 C 0.30514 0.15221 0.231 0.0
C998 C 0.29308 0.11527 0.22929 0.0
C999 C 0.27849 0.10477 0.22017 0.0
C1000 C 0.3205 0.16382 0.24081 0.0
C1001 C 0.30615 0.14731 0.24938 0.0
C1002 C 0.34903 0.19116 0.24184 0.0
C1003 C 0.37146 0.20487 0.23342 0.0
C1004 C 0.38988 0.17952 0.22721 0.0
C1005 C 0.41029 0.19246 0.21916 0.0
C1006 C 0.41279 0.23069 0.21729 0.0
C1007 C 0.39497 0.25611 0.22348 0.0
C1008 C 0.37447 0.24334 0.23153 0.0
C1009 C 0.40003 0.23313 0.28044 0.0
C1010 C 0.37428 0.23289 0.28818 0.0
C1011 C 0.39039 0.21827 0.27129 0.0
C1012 C 0.35427 0.204 0.26958 0.0
C1013 C 0.3284 0.20502 0.27734 0.0
C1014 C 0.33913 0.21696 0.28664 0.0
C1015 C 0.34368 0.18819 0.25977 0.0
C1016 C 0.35836 0.20442 0.25121 0.0
C1017 C 0.31907 0.15736 0.25874 0.0
C1018 C 0.30837 0.13328 0.26715 0.0
C1019 C 0.27057 0.12619 0.26922 0.0
C1020 C 0.26069 0.1039 0.27722 0.0
C1021 C 0.28835 0.08833 0.28318 0.0
C1022 C 0.32599 0.0949 0.28112 0.0
C1023 C 0.33604 0.11716 0.27313 0.0
H1024 H 0.28063 0.07112 0.28938 0.0
H1025 H 0.42857 0.24064 0.21105 0.0
H1026 H 0.82244 0.80943 0.45884 0.0
H1027 H 0.79939 0.82379 0.47531 0.0
H1028 H 0.881 0.74899 0.48775 0.0
H1029 H 0.90467 0.7351 0.47118 0.0
H1030 H 0.80348 0.73885 0.49395 0.0
H1031 H 0.89657 0.83383 0.49137 0.0
H1032 H 0.9297 0.88587 0.48337 0.0
H1033 H 0.82935 0.95133 0.48372 0.0
H1034 H 0.79543 0.89943 0.49158 0.0
H1035 H 0.7781 0.79829 0.54377 0.0
H1036 H 0.79407 0.77388 0.52753 0.0
H1037 H 0.73317 0.86418 0.51406 0.0
H1038 H 0.71645 0.88798 0.5303 0.0
H1039 H 0.80415 0.86502 0.5087 0.0
H1040 H 0.70734 0.77521 0.50581 0.0
H1041 H 0.66468 0.72147 0.50723 0.0
H1042 H 0.75747 0.64948 0.51349 0.0
H1043 H 0.80074 0.70271 0.51187 0.0
C1044 C 0.83534 0.79604 0.4651 0.0
C1045 C 0.86454 0.77046 0.46382 0.0
C1046 C 0.82245 0.80451 0.47448 0.0
C1047 C 0.83869 0.7876 0.48272 0.0
C1048 C 0.86827 0.76236 0.48146 0.0
C1049 C 0.88163 0.75438 0.47205 0.0
C1050 C 0.82316 0.79506 0.49255 0.0
C1051 C 0.80405 0.76624 0.49729 0.0
C1052 C 0.82297 0.8312 0.49665 0.0
C1053 C 0.84338 0.86259 0.492 0.0
C1054 C 0.88147 0.85919 0.48967 0.0
C1055 C 0.90041 0.8887 0.48517 0.0
C1056 C 0.88162 0.92186 0.48302 0.0
C1057 C 0.84387 0.92561 0.48539 0.0
C1058 C 0.82478 0.89617 0.48987 0.0
C1059 C 0.76657 0.81176 0.53734 0.0
C1060 C 0.74538 0.84453 0.53827 0.0
C1061 C 0.77583 0.79789 0.52805 0.0
C1062 C 0.76482 0.81716 0.51955 0.0
C1063 C 0.74188 0.84875 0.5205 0.0
C1064 C 0.73237 0.86237 0.52977 0.0
C1065 C 0.78295 0.80885 0.51 0.0
C1066 C 0.80326 0.83753 0.50539 0.0
C1067 C 0.78295 0.77286 0.50577 0.0
C1068 C 0.75713 0.74302 0.50891 0.0
C1069 C 0.71852 0.7481 0.50774 0.0
C1070 C 0.69432 0.7176 0.50838 0.0
C1071 C 0.7084 0.68201 0.51034 0.0
C1072 C 0.74662 0.677 0.5119 0.0
C1073 C 0.77099 0.70731 0.51112 0.0
H1074 H 0.68963 0.65843 0.51081 0.0
H1075 H 0.89634 0.94466 0.47954 0.0
H1076 H 0.20181 0.32479 0.70442 0.0
H1077 H 0.17825 0.30221 0.72015 0.0
H1078 H 0.24967 0.38055 0.73522 0.0
H1079 H 0.27167 0.40446 0.71937 0.0
H1080 H 0.20657 0.26825 0.7342 0.0
H1081 H 0.21485 0.40499 0.75718 0.0
H1082 H 0.20798 0.47281 0.75469 0.0
H1083 H 0.13958 0.45317 0.72936 0.0
H1084 H 0.14558 0.38527 0.73178 0.0
H1085 H 0.19109 0.29902 0.79038 0.0
H1086 H 0.21221 0.31085 0.77363 0.0
H1087 H 0.11608 0.25221 0.7625 0.0
H1088 H 0.09682 0.23749 0.7793 0.0
H1089 H 0.16576 0.352 0.76098 0.0
H1090 H 0.12926 0.22148 0.74803 0.0
H1091 H 0.13394 0.15288 0.74766 0.0
H1092 H 0.25327 0.16044 0.74984 0.0
H1093 H 0.24897 0.2291 0.75067 0.0
C1094 C 0.21248 0.33703 0.71112 0.0
C1095 C 0.23906 0.3657 0.71077 0.0
C1096 C 0.19898 0.3242 0.7201 0.0
C1097 C 0.21182 0.33984 0.72892 0.0
C1098 C 0.23861 0.36855 0.72854 0.0
C1099 C 0.2515 0.38196 0.71952 0.0
C1100 C 0.19771 0.32539 0.73846 0.0
C1101 C 0.19755 0.28671 0.74001 0.0
C1102 C 0.18518 0.34919 0.74605 0.0
C1103 C 0.181 0.39002 0.74461 0.0
C1104 C 0.19821 0.41515 0.75111 0.0
C1105 C 0.19449 0.4536 0.7497 0.0
C1106 C 0.17346 0.46729 0.74186 0.0
C1107 C 0.15598 0.44254 0.73542 0.0
C1108 C 0.15956 0.40406 0.7368 0.0
C1109 C 0.17571 0.28681 0.78435 0.0
C1110 C 0.14342 0.26574 0.78611 0.0
C1111 C 0.18752 0.29394 0.77477 0.0
C1112 C 0.16655 0.28124 0.76674 0.0
C1113 C 0.13394 0.26051 0.7685 0.0
C1114 C 0.12258 0.25264 0.77811 0.0
C1115 C 0.17585 0.29499 0.75676 0.0
C1116 C 0.17503 0.33371 0.75513 0.0
C1117 C 0.18661 0.2712 0.749 0.0
C1118 C 0.18863 0.23023 0.74994 0.0
C1119 C 0.15632 0.20844 0.74887 0.0
C1120 C 0.15894 0.16956 0.74845 0.0
C1121 C 0.19387 0.15227 0.74879 0.0
C1122 C 0.22621 0.17382 0.74964 0.0
C1123 C 0.22364 0.21267 0.75022 0.0
H1124 H 0.19588 0.12219 0.74837 0.0
H1125 H 0.17065 0.49707 0.74078 0.0
H1126 H 0.77863 0.59346 0.0292 0.0
H1127 H 0.75908 0.60892 0.01246 0.0
H1128 H 0.7056 0.70872 0.02309 0.0
H1129 H 0.72229 0.69152 0.03987 0.0
H1130 H 0.65995 0.65958 0.01204 0.0
H1131 H 0.78068 0.7388 0.9982 0.0
H1132 H 0.84898 0.7419 0.99594 0.0
H1133 H 0.85461 0.62226 0.99548 0.0
H1134 H 0.78623 0.6187 0.99729 0.0
H1135 H 0.59821 0.7593 0.97017 0.0
H1136 H 0.62474 0.73828 0.98583 0.0
H1137 H 0.69958 0.6649 0.97018 0.0
H1138 H 0.67473 0.68781 0.95465 0.0
H1139 H 0.73668 0.69366 0.98322 0.0
H1140 H 0.61897 0.63419 0.98376 0.0
H1141 H 0.55056 0.62813 0.98268 0.0
H1142 H 0.53781 0.70095 0.00743 0.0
H1143 H 0.60619 0.70787 0.00858 0.0
C1144 C 0.76359 0.6192 0.02788 0.0
C1145 C 0.75336 0.64222 0.03575 0.0
C1146 C 0.75292 0.62833 0.01829 0.0
C1147 C 0.73221 0.66085 0.01643 0.0
C1148 C 0.7224 0.68401 0.02431 0.0
C1149 C 0.73234 0.67445 0.03388 0.0
C1150 C 0.71578 0.66809 0.00662 0.0
C1151 C 0.67669 0.66742 0.00574 0.0
C1152 C 0.73751 0.67687 0.99829 0.0
C1153 C 0.77868 0.67847 0.99842 0.0
C1154 C 0.79667 0.7132 0.99781 0.0
C1155 C 0.83528 0.71505 0.99643 0.0
C1156 C 0.85619 0.68228 0.99565 0.0
C1157 C 0.83847 0.64762 0.99621 0.0
C1158 C 0.79977 0.64568 0.99744 0.0
C1159 C 0.62045 0.73885 0.97016 0.0
C1160 C 0.63519 0.72575 0.9613 0.0
C1161 C 0.63532 0.72647 0.97908 0.0
C1162 C 0.66393 0.69951 0.97924 0.0
C1163 C 0.67775 0.68579 0.97031 0.0
C1164 C 0.6636 0.69888 0.96143 0.0
C1165 C 0.68068 0.68668 0.98865 0.0
C1166 C 0.71971 0.68617 0.98948 0.0
C1167 C 0.65886 0.67593 0.99684 0.0
C1168 C 0.61771 0.6718 0.9962 0.0
C1169 C 0.60158 0.64912 0.98893 0.0
C1170 C 0.5628 0.6455 0.98831 0.0
C1171 C 0.53985 0.66421 0.99497 0.0
C1172 C 0.55563 0.6865 0.00227 0.0
C1173 C 0.5944 0.69025 0.00292 0.0
H1174 H 0.50983 0.66137 0.99448 0.0
H1175 H 0.8861 0.68375 0.9946 0.0
H1176 H 0.31907 0.33174 0.04477 0.0
H1177 H 0.33963 0.30665 0.02903 0.0
H1178 H 0.26506 0.38235 0.01403 0.0
H1179 H 0.24648 0.4091 0.02986 0.0
H1180 H 0.30913 0.27009 0.01608 0.0
H1181 H 0.29273 0.40051 0.991 0.0
H1182 H 0.29891 0.46892 0.99211 0.0
H1183 H 0.37412 0.45702 0.01642 0.0
H1184 H 0.36878 0.38856 0.01538 0.0
H1185 H 0.31533 0.28698 0.95919 0.0
H1186 H 0.29592 0.30294 0.97585 0.0
H1187 H 0.39355 0.2477 0.98728 0.0
H1188 H 0.41128 0.22906 0.97065 0.0
H1189 H 0.34247 0.34761 0.98733 0.0
H1190 H 0.38299 0.22036 0.00256 0.0
H1191 H 0.37837 0.15195 0.00407 0.0
H1192 H 0.25895 0.15897 0.00209 0.0
H1193 H 0.26318 0.22733 0.00016 0.0
C1194 C 0.30721 0.34298 0.03808 0.0
C1195 C 0.28076 0.37174 0.03845 0.0
C1196 C 0.31894 0.32869 0.02909 0.0
C1197 C 0.30428 0.34274 0.02027 0.0
C1198 C 0.27763 0.37159 0.02068 0.0
C1199 C 0.26664 0.3866 0.0297 0.0
C1200 C 0.31612 0.32623 0.01074 0.0
C1201 C 0.31649 0.28724 0.00984 0.0
C1202 C 0.32634 0.34827 0.00255 0.0
C1203 C 0.33004 0.38942 0.00317 0.0
C1204 C 0.3107 0.4125 0.99656 0.0
C1205 C 0.31403 0.45128 0.99718 0.0
C1206 C 0.3368 0.46731 0.00435 0.0
C1207 C 0.35639 0.44458 0.0109 0.0
C1208 C 0.35318 0.40579 0.0103 0.0
C1209 C 0.33145 0.27645 0.96531 0.0
C1210 C 0.36378 0.25527 0.96369 0.0
C1211 C 0.32061 0.28594 0.97482 0.0
C1212 C 0.34254 0.27546 0.9829 0.0
C1213 C 0.37506 0.25444 0.98128 0.0
C1214 C 0.38551 0.24429 0.97175 0.0
C1215 C 0.33432 0.29164 0.99268 0.0
C1216 C 0.33474 0.33069 0.99361 0.0
C1217 C 0.32555 0.26972 0.00098 0.0
C1218 C 0.32353 0.22862 0.00073 0.0
C1219 C 0.3559 0.20713 0.00204 0.0
C1220 C 0.35333 0.16842 0.00309 0.0
C1221 C 0.3184 0.15106 0.00312 0.0
C1222 C 0.28601 0.17238 0.00201 0.0
C1223 C 0.28852 0.21103 0.00081 0.0
H1224 H 0.31642 0.12114 0.00402 0.0
H1225 H 0.33932 0.49734 0.00482 0.0
H1226 H 0.67301 0.80996 0.2931 0.0
H1227 H 0.69547 0.82626 0.27672 0.0
H1228 H 0.61067 0.75601 0.26389 0.0
H1229 H 0.58852 0.73924 0.2804 0.0
H1230 H 0.67789 0.74219 0.25629 0.0
H1231 H 0.60506 0.85083 0.26219 0.0
H1232 H 0.58292 0.90547 0.27148 0.0
H1233 H 0.69297 0.95279 0.27068 0.0
H1234 H 0.71593 0.89816 0.2615 0.0
H1235 H 0.71355 0.80623 0.2073 0.0
H1236 H 0.69258 0.78282 0.22316 0.0
H1237 H 0.76399 0.8624 0.23773 0.0
H1238 H 0.78347 0.88703 0.22177 0.0
H1239 H 0.6987 0.87069 0.24414 0.0
H1240 H 0.76973 0.74563 0.24764 0.0
H1241 H 0.78892 0.6813 0.24362 0.0
H1242 H 0.68545 0.6637 0.22842 0.0
H1243 H 0.66518 0.72745 0.23271 0.0
C1244 C 0.65934 0.79793 0.28676 0.0
C1245 C 0.62997 0.77245 0.28791 0.0
C1246 C 0.67178 0.80768 0.27742 0.0
C1247 C 0.65455 0.7926 0.26908 0.0
C1248 C 0.62432 0.76797 0.27024 0.0
C1249 C 0.61176 0.75834 0.27962 0.0
C1250 C 0.66999 0.80048 0.25922 0.0
C1251 C 0.68206 0.77031 0.25357 0.0
C1252 C 0.67606 0.83716 0.25577 0.0
C1253 C 0.66227 0.87024 0.26121 0.0
C1254 C 0.62461 0.87276 0.26405 0.0
C1255 C 0.6119 0.90375 0.26929 0.0
C1256 C 0.63653 0.93255 0.27168 0.0
C1257 C 0.67392 0.93046 0.26882 0.0
C1258 C 0.68678 0.8995 0.26359 0.0
C1259 C 0.72568 0.8178 0.21391 0.0
C1260 C 0.7504 0.84813 0.21335 0.0
C1261 C 0.71391 0.80415 0.22301 0.0
C1262 C 0.72688 0.82039 0.23174 0.0
C1263 C 0.75345 0.84929 0.23113 0.0
C1264 C 0.76465 0.8634 0.22203 0.0
C1265 C 0.70825 0.81218 0.24128 0.0
C1266 C 0.69497 0.8425 0.24686 0.0
C1267 C 0.70142 0.77557 0.24475 0.0
C1268 C 0.71662 0.74166 0.24015 0.0
C1269 C 0.75158 0.72834 0.2432 0.0
C1270 C 0.76225 0.69171 0.24108 0.0
C1271 C 0.73836 0.66838 0.2358 0.0
C1272 C 0.70394 0.68179 0.23251 0.0
C1273 C 0.69284 0.71814 0.23479 0.0
H1274 H 0.74667 0.64004 0.23417 0.0
H1275 H 0.62664 0.95652 0.27574 0.0
H1276 H 0.17162 0.20682 0.45748 0.0
H1277 H 0.19353 0.19174 0.47399 0.0
H1278 H 0.10688 0.26105 0.48629 0.0
H1279 H 0.08518 0.27651 0.46964 0.0
H1280 H 0.17429 0.27446 0.49464 0.0
H1281 H 0.09994 0.16739 0.48765 0.0
H1282 H 0.07807 0.11402 0.47784 0.0
H1283 H 0.18728 0.06503 0.47913 0.0
H1284 H 0.21 0.11839 0.48886 0.0
H1285 H 0.20341 0.2023 0.54367 0.0
H1286 H 0.18331 0.22842 0.52801 0.0
H1287 H 0.25706 0.15287 0.51281 0.0
H1288 H 0.27521 0.12512 0.52851 0.0
H1289 H 0.19082 0.1446 0.50632 0.0
H1290 H 0.26272 0.27195 0.50368 0.0
H1291 H 0.2824 0.33399 0.50959 0.0
H1292 H 0.17967 0.34503 0.52554 0.0
H1293 H 0.15877 0.28385 0.51931 0.0
C1294 C 0.1575 0.21901 0.46373 0.0
C1295 C 0.12757 0.24368 0.46238 0.0
C1296 C 0.16968 0.21003 0.47314 0.0
C1297 C 0.15166 0.22507 0.48137 0.0
C1298 C 0.12117 0.2492 0.48002 0.0
C1299 C 0.10884 0.25803 0.47057 0.0
C1300 C 0.16572 0.21649 0.49134 0.0
C1301 C 0.17753 0.24606 0.49726 0.0
C1302 C 0.1704 0.17946 0.49467 0.0
C1303 C 0.15673 0.14705 0.48893 0.0
C1304 C 0.11937 0.14536 0.4858 0.0
C1305 C 0.1068 0.11508 0.48025 0.0
C1306 C 0.13127 0.08618 0.47784 0.0
C1307 C 0.16835 0.08744 0.481 0.0
C1308 C 0.18108 0.11768 0.48654 0.0
C1309 C 0.21627 0.19227 0.53698 0.0
C1310 C 0.24114 0.16202 0.53725 0.0
C1311 C 0.20503 0.20752 0.528 0.0
C1312 C 0.21894 0.19316 0.51913 0.0
C1313 C 0.24585 0.16457 0.51951 0.0
C1314 C 0.25633 0.14872 0.52847 0.0
C1315 C 0.20095 0.20267 0.50959 0.0
C1316 C 0.18789 0.17307 0.50373 0.0
C1317 C 0.19528 0.2397 0.50628 0.0
C1318 C 0.20995 0.27276 0.51139 0.0
C1319 C 0.24477 0.28731 0.50863 0.0
C1320 C 0.25575 0.32265 0.51185 0.0
C1321 C 0.2324 0.34334 0.51799 0.0
C1322 C 0.19786 0.32885 0.52085 0.0
C1323 C 0.18637 0.29393 0.51744 0.0
H1324 H 0.24106 0.3706 0.52053 0.0
H1325 H 0.12148 0.06279 0.47353 0.0
H1326 H 0.81284 0.67736 0.70714 0.0
H1327 H 0.82952 0.69936 0.7235 0.0
H1328 H 0.77656 0.60245 0.7362 0.0
H1329 H 0.75808 0.58158 0.71975 0.0
H1330 H 0.75709 0.65945 0.74601 0.0
H1331 H 0.87481 0.6147 0.73521 0.0
H1332 H 0.92826 0.60748 0.72398 0.0
H1333 H 0.95171 0.72463 0.72618 0.0
H1334 H 0.89808 0.73266 0.73731 0.0
H1335 H 0.82979 0.70416 0.79389 0.0
H1336 H 0.80952 0.67665 0.77856 0.0
H1337 H 0.86616 0.76389 0.76255 0.0
H1338 H 0.89108 0.78806 0.77803 0.0
H1339 H 0.88326 0.70494 0.75479 0.0
H1340 H 0.73633 0.73799 0.75769 0.0
H1341 H 0.67584 0.73387 0.76635 0.0
H1342 H 0.70902 0.62998 0.77932 0.0
H1343 H 0.76837 0.63217 0.77016 0.0
C1344 C 0.80435 0.66112 0.71346 0.0
C1345 C 0.78286 0.62874 0.7123 0.0
C1346 C 0.81452 0.67327 0.72279 0.0
C1347 C 0.80458 0.65246 0.73112 0.0
C1348 C 0.78436 0.61914 0.7299 0.0
C1349 C 0.77384 0.60719 0.72054 0.0
C1350 C 0.81365 0.6665 0.74108 0.0
C1351 C 0.78479 0.6692 0.74796 0.0
C1352 C 0.84973 0.67909 0.74367 0.0
C1353 C 0.88226 0.67431 0.73705 0.0
C1354 C 0.89124 0.63896 0.73325 0.0
C1355 C 0.92158 0.63472 0.72691 0.0
C1356 C 0.94333 0.66558 0.72435 0.0
C1357 C 0.93483 0.70075 0.72816 0.0
C1358 C 0.90449 0.70515 0.7345 0.0
C1359 C 0.83727 0.71778 0.78707 0.0
C1360 C 0.86155 0.74844 0.78708 0.0
C1361 C 0.82483 0.70245 0.77824 0.0
C1362 C 0.83485 0.71859 0.76922 0.0
C1363 C 0.85777 0.75064 0.76934 0.0
C1364 C 0.87187 0.76475 0.77817 0.0
C1365 C 0.82615 0.69974 0.7597 0.0
C1366 C 0.85537 0.69575 0.75286 0.0
C1367 C 0.79049 0.68517 0.75722 0.0
C1368 C 0.75764 0.68639 0.76374 0.0
C1369 C 0.73101 0.71474 0.76258 0.0
C1370 C 0.69665 0.71236 0.76742 0.0
C1371 C 0.68901 0.68221 0.77359 0.0
C1372 C 0.71524 0.65372 0.7747 0.0
C1373 C 0.74904 0.65532 0.76961 0.0
H1374 H 0.66256 0.68068 0.7774 0.0
H1375 H 0.9668 0.66224 0.71944 0.0
H1376 H 0.11224 0.12293 0.18665 0.0
H1377 H 0.05453 0.08741 0.18593 0.0
H1378 H 0.11727 0.98481 0.18527 0.0
H1379 H 0.17582 0.02049 0.1858 0.0
H1380 H 0.05735 0.98203 0.17288 0.0
H1381 H 0.07805 0.01512 0.20643 0.0
H1382 H 0.09196 0.05805 0.22007 0.0
H1383 H 0.99224 0.12006 0.21379 0.0
H1384 H 0.97808 0.0779 0.2 0.0
H1385 H 0.90645 0.86565 0.18727 0.0
H1386 H 0.96521 0.8996 0.18637 0.0
H1387 H 0.90542 0.00395 0.18662 0.0
H1388 H 0.84608 0.97011 0.18761 0.0
H1389 H 0.96446 0.00472 0.19921 0.0
H1390 H 0.9439 0.97124 0.1656 0.0
H1391 H 0.93032 0.92811 0.15198 0.0
H1392 H 0.02972 0.86601 0.15853 0.0
H1393 H 0.04361 0.90843 0.1723 0.0
C1394 C 0.11402 0.0928 0.18632 0.0
C1395 C 0.14885 0.07459 0.1864 0.0
C1396 C 0.08083 0.07249 0.18592 0.0
C1397 C 0.08143 0.03338 0.18575 0.0
C1398 C 0.11609 0.01499 0.18545 0.0
C1399 C 0.14954 0.03541 0.18577 0.0
C1400 C 0.04574 0.01208 0.1862 0.0
C1401 C 0.03728 0.98657 0.17871 0.0
C1402 C 0.01913 0.01853 0.1937 0.0
C1403 C 0.02717 0.04351 0.20212 0.0
C1404 C 0.0592 0.03804 0.20792 0.0
C1405 C 0.06713 0.06224 0.21568 0.0
C1406 C 0.04304 0.0918 0.21778 0.0
C1407 C 0.0109 0.09716 0.21215 0.0
C1408 C 1.00289 0.07311 0.20436 0.0
C1409 C 0.90556 0.89583 0.18709 0.0
C1410 C 0.87128 0.91507 0.18749 0.0
C1411 C 0.93934 0.91522 0.18654 0.0
C1412 C 0.9398 0.95434 0.18632 0.0
C1413 C 0.90575 0.97374 0.18676 0.0
C1414 C 0.87182 0.95433 0.18729 0.0
C1415 C 0.97592 0.97485 0.18586 0.0
C1416 C 0.98451 1.00016 0.19337 0.0
C1417 C 1.00263 0.96809 0.1784 0.0
C1418 C 0.99462 0.94283 0.17004 0.0
C1419 C 0.96274 0.94823 0.16418 0.0
C1420 C 0.955 0.92393 0.15643 0.0
C1421 C 0.97909 0.89428 0.15441 0.0
C1422 C 0.01105 0.88896 0.16012 0.0
C1423 C 0.01889 0.91315 0.16789 0.0
H1424 H 0.97303 0.87548 0.14841 0.0
H1425 H 0.04924 0.11053 0.22378 0.0
H1426 H 0.12588 0.40382 0.43503 0.0
H1427 H 0.09196 0.46263 0.4343 0.0
H1428 H 0.98747 0.4032 0.43596 0.0
H1429 H 0.02132 0.34383 0.43643 0.0
H1430 H 0.98203 0.45985 0.42335 0.0
H1431 H 0.02631 0.44497 0.45621 0.0
H1432 H 0.07358 0.43314 0.46898 0.0
H1433 H 0.13384 0.53097 0.46005 0.0
H1434 H 0.08728 0.543 0.4471 0.0
H1435 H 0.8698 0.611 0.43948 0.0
H1436 H 0.90434 0.55267 0.43825 0.0
H1437 H 0.0069 0.61393 0.43448 0.0
H1438 H 0.97252 0.67282 0.43575 0.0
H1439 H 0.01368 0.55688 0.44791 0.0
H1440 H 0.96666 0.57193 0.41517 0.0
H1441 H 0.91833 0.58237 0.40258 0.0
H1442 H 0.86109 0.48321 0.41185 0.0
H1443 H 0.90874 0.47249 0.4246 0.0
C1444 C 0.09566 0.4031 0.43519 0.0
C1445 C 0.07636 0.36899 0.43588 0.0
C1446 C 0.07629 0.43687 0.4348 0.0
C1447 C 0.03715 0.43748 0.43528 0.0
C1448 C 0.01768 0.40347 0.43563 0.0
C1449 C 0.03708 0.36953 0.43591 0.0
C1450 C 0.01678 0.47366 0.4357 0.0
C1451 C 0.98864 0.48087 0.42879 0.0
C1452 C 0.02581 0.50144 0.44271 0.0
C1453 C 0.05347 0.4947 0.45062 0.0
C1454 C 0.04976 0.46384 0.45693 0.0
C1455 C 0.07642 0.45709 0.4642 0.0
C1456 C 0.10673 0.48125 0.46531 0.0
C1457 C 0.11037 0.51226 0.45917 0.0
C1458 C 0.08384 0.51906 0.45187 0.0
C1459 C 0.8997 0.61228 0.43835 0.0
C1460 C 0.9183 0.64682 0.43769 0.0
C1461 C 0.91939 0.57877 0.43761 0.0
C1462 C 0.95816 0.57888 0.43618 0.0
C1463 C 0.97696 0.61319 0.43556 0.0
C1464 C 0.95722 0.64684 0.43625 0.0
C1465 C 0.97903 0.54309 0.43554 0.0
C1466 C 0.00719 0.53591 0.44244 0.0
C1467 C 0.96976 0.51524 0.42859 0.0
C1468 C 0.94113 0.52158 0.4209 0.0
C1469 C 0.94361 0.55251 0.41457 0.0
C1470 C 0.91636 0.55846 0.4074 0.0
C1471 C 0.88664 0.5335 0.40643 0.0
C1472 C 0.88412 0.50253 0.41262 0.0
C1473 C 0.91125 0.49649 0.41981 0.0
H1474 H 0.86563 0.53807 0.40086 0.0
H1475 H 0.12736 0.47597 0.47094 0.0
H1476 H 0.4018 0.38021 0.69671 0.0
H1477 H 0.46089 0.41366 0.69625 0.0
H1478 H 0.41279 0.49499 0.67661 0.0
H1479 H 0.35276 0.46253 0.67747 0.0
H1480 H 0.50933 0.4275 0.68347 0.0
H1481 H 0.45436 0.57873 0.67903 0.0
H1482 H 0.39944 0.61647 0.68359 0.0
H1483 H 0.37765 0.54335 0.70788 0.0
H1484 H 0.43267 0.50549 0.70353 0.0
H1485 H 0.66869 0.54334 0.67533 0.0
H1486 H 0.6092 0.50991 0.674 0.0
H1487 H 0.57043 0.56403 0.70037 0.0
H1488 H 0.62813 0.59939 0.70121 0.0
H1489 H 0.51697 0.56372 0.68929 0.0
H1490 H 0.60251 0.46627 0.69838 0.0
H1491 H 0.65842 0.42654 0.69685 0.0
H1492 H 0.62088 0.38854 0.66867 0.0
H1493 H 0.56494 0.42839 0.66999 0.0
C1494 C 0.40362 0.40536 0.69233 0.0
C1495 C 0.37233 0.41886 0.6872 0.0
C1496 C 0.43763 0.4244 0.69203 0.0
C1497 C 0.4415 0.45718 0.68648 0.0
C1498 C 0.41049 0.47029 0.68115 0.0
C1499 C 0.37614 0.45162 0.68161 0.0
C1500 C 0.47791 0.47753 0.68639 0.0
C1501 C 0.51095 0.45732 0.68474 0.0
C1502 C 0.48042 0.51636 0.68819 0.0
C1503 C 0.44735 0.53904 0.69088 0.0
C1504 C 0.43788 0.57077 0.68535 0.0
C1505 C 0.40673 0.59217 0.6879 0.0
C1506 C 0.38498 0.58223 0.69599 0.0
C1507 C 0.39441 0.55094 0.70158 0.0
C1508 C 0.42555 0.52947 0.69908 0.0
C1509 C 0.64745 0.54786 0.68085 0.0
C1510 C 0.65326 0.57384 0.68841 0.0
C1511 C 0.61345 0.52859 0.68012 0.0
C1512 C 0.58513 0.53386 0.68716 0.0
C1513 C 0.59141 0.55944 0.69479 0.0
C1514 C 0.62473 0.5795 0.69532 0.0
C1515 C 0.54866 0.51359 0.68661 0.0
C1516 C 0.51548 0.5339 0.68802 0.0
C1517 C 0.5462 0.47456 0.68504 0.0
C1518 C 0.57978 0.4506 0.68424 0.0
C1519 C 0.60632 0.44962 0.69183 0.0
C1520 C 0.63799 0.42706 0.691 0.0
C1521 C 0.64325 0.40511 0.68265 0.0
C1522 C 0.6168 0.4056 0.67513 0.0
C1523 C 0.5851 0.42815 0.67591 0.0
H1524 H 0.66778 0.38766 0.68203 0.0
H1525 H 0.36088 0.59882 0.69795 0.0
H1526 H 0.37143 0.10083 0.93496 0.0
H1527 H 0.40632 0.0426 0.93432 0.0
H1528 H 0.50963 0.1035 0.937 0.0
H1529 H 0.47482 0.16233 0.93741 0.0
H1530 H 0.51731 0.0476 0.92421 0.0
H1531 H 0.46972 0.05973 0.95677 0.0
H1532 H 0.42115 0.0703 0.96926 0.0
H1533 H 0.36277 0.97242 0.95958 0.0
H1534 H 0.41063 0.96166 0.94689 0.0
H1535 H 0.62825 0.89375 0.9395 0.0
H1536 H 0.59422 0.95256 0.93882 0.0
H1537 H 0.49126 0.8928 0.93425 0.0
H1538 H 0.5251 0.83349 0.93497 0.0
H1539 H 0.48397 0.94826 0.94801 0.0
H1540 H 0.53311 0.93692 0.91535 0.0
H1541 H 0.58239 0.92766 0.90297 0.0
H1542 H 0.63972 0.02501 0.91342 0.0
H1543 H 0.59103 0.03456 0.92596 0.0
C1544 C 0.40159 0.10203 0.93536 0.0
C1545 C 0.42024 0.13641 0.93632 0.0
C1546 C 0.42154 0.06857 0.93503 0.0
C1547 C 0.46061 0.06849 0.93582 0.0
C1548 C 0.47948 0.10279 0.93643 0.0
C1549 C 0.45952 0.13643 0.93667 0.0
C1550 C 0.48147 0.03255 0.93625 0.0
C1551 C 0.51034 0.0261 0.9295 0.0
C1552 C 0.47205 0.00413 0.94305 0.0
C1553 C 0.44361 0.01007 0.95082 0.0
C1554 C 0.44641 0.04058 0.95726 0.0
C1555 C 0.419 0.04661 0.96438 0.0
C1556 C 0.38885 0.02209 0.9652 0.0
C1557 C 0.38612 0.99141 0.95893 0.0
C1558 C 0.41339 0.98533 0.95177 0.0
C1559 C 0.59838 0.89292 0.93832 0.0
C1560 C 0.57952 0.85865 0.93725 0.0
C1561 C 0.57896 0.92671 0.9379 0.0
C1562 C 0.54022 0.92719 0.93638 0.0
C1563 C 0.52118 0.89313 0.9354 0.0
C1564 C 0.54062 0.85922 0.93578 0.0
C1565 C 0.51963 0.96325 0.93594 0.0
C1566 C 0.49089 0.96976 0.94271 0.0
C1567 C 0.5294 0.99181 0.92922 0.0
C1568 C 0.55859 0.98625 0.92165 0.0
C1569 C 0.55637 0.95619 0.91506 0.0
C1570 C 0.58417 0.95092 0.908 0.0
C1571 C 0.61422 0.97568 0.90742 0.0
C1572 C 0.61646 0.00583 0.91388 0.0
C1573 C 0.58875 0.01121 0.92096 0.0
H1574 H 0.63571 0.97155 0.90196 0.0
H1575 H 0.36765 0.02682 0.97071 0.0
H1576 H 0.17581 0.4827 0.06641 0.0
H1577 H 0.11667 0.5168 0.06707 0.0
H1578 H 0.057 0.41606 0.05981 0.0
H1579 H 0.1157 0.38199 0.05897 0.0
H1580 H 0.03051 0.47221 0.04943 0.0
H1581 H 0.05821 0.45111 0.08332 0.0
H1582 H 0.0963 0.45269 0.09838 0.0
H1583 H 0.09985 0.57231 0.09706 0.0
H1584 H 0.0622 0.57141 0.08191 0.0
H1585 H 0.84782 0.53522 0.0617 0.0
H1586 H 0.90669 0.50049 0.06245 0.0
H1587 H 0.96723 0.60348 0.06607 0.0
H1588 H 0.90876 0.6384 0.06526 0.0
H1589 H 0.99273 0.5462 0.07851 0.0
H1590 H 0.96477 0.56619 0.04441 0.0
H1591 H 0.92523 0.56362 0.02963 0.0
H1592 H 0.92113 0.44415 0.03165 0.0
H1593 H 0.96012 0.44607 0.04656 0.0
C1594 C 0.15013 0.46775 0.06496 0.0
C1595 C 0.15073 0.42947 0.06266 0.0
C1596 C 0.11626 0.48728 0.06539 0.0
C1597 C 0.08223 0.46895 0.06358 0.0
C1598 C 0.0828 0.43087 0.06123 0.0
C1599 C 0.11654 0.41137 0.06079 0.0
C1600 C 0.04599 0.48936 0.06402 0.0
C1601 C 0.0221 0.48795 0.05585 0.0
C1602 C 0.03511 0.51051 0.07231 0.0
C1603 C 0.05772 0.51117 0.08142 0.0
C1604 C 0.06738 0.47774 0.0862 0.0
C1605 C 0.08884 0.47851 0.09476 0.0
C1606 C 0.10057 0.51257 0.09866 0.0
C1607 C 0.09079 0.54594 0.09402 0.0
C1608 C 0.06936 0.54532 0.08545 0.0
C1609 C 0.8736 0.55047 0.06276 0.0
C1610 C 0.8735 0.58965 0.06337 0.0
C1611 C 0.90724 0.53058 0.06315 0.0
C1612 C 0.94139 0.54943 0.06424 0.0
C1613 C 0.94125 0.58836 0.06522 0.0
C1614 C 0.90774 0.60828 0.06471 0.0
C1615 C 0.97741 0.52883 0.06395 0.0
C1616 C 1.00122 0.53032 0.07212 0.0
C1617 C 0.98815 0.50756 0.05568 0.0
C1618 C 0.96503 0.50631 0.04666 0.0
C1619 C 0.95518 0.53939 0.04175 0.0
C1620 C 0.9329 0.53805 0.03334 0.0
C1621 C 0.9206 0.50375 0.02972 0.0
C1622 C 0.93063 0.47071 0.03448 0.0
C1623 C 0.95283 0.47191 0.04291 0.0
H1624 H 0.90336 0.50276 0.0232 0.0
H1625 H 0.11718 0.51312 0.10528 0.0
H1626 H 0.52794 0.66723 0.31645 0.0
H1627 H 0.49578 0.60703 0.31722 0.0
H1628 H 0.59997 0.55021 0.31196 0.0
H1629 H 0.63209 0.6099 0.31099 0.0
H1630 H 0.54783 0.52097 0.30093 0.0
H1631 H 0.55848 0.55235 0.33494 0.0
H1632 H 0.5514 0.5916 0.34966 0.0
H1633 H 0.43235 0.59093 0.34603 0.0
H1634 H 0.43875 0.55207 0.3312 0.0
H1635 H 0.48251 0.33771 0.31284 0.0
H1636 H 0.51728 0.39665 0.31375 0.0
H1637 H 0.41372 0.4575 0.31553 0.0
H1638 H 0.37892 0.39918 0.31458 0.0
H1639 H 0.46679 0.48349 0.32872 0.0
H1640 H 0.45708 0.4533 0.29442 0.0
H1641 H 0.46463 0.41323 0.27987 0.0
H1642 H 0.58326 0.41107 0.28434 0.0
H1643 H 0.57634 0.45066 0.29902 0.0
C1644 C 0.54407 0.64194 0.31551 0.0
C1645 C 0.58268 0.64362 0.31367 0.0
C1646 C 0.52564 0.60747 0.31599 0.0
C1647 C 0.54548 0.57394 0.31473 0.0
C1648 C 0.58399 0.57559 0.31294 0.0
C1649 C 0.60235 0.60991 0.31242 0.0
C1650 C 0.52619 0.5371 0.31505 0.0
C1651 C 0.53058 0.51262 0.30708 0.0
C1652 C 0.50308 0.52628 0.32298 0.0
C1653 C 0.49913 0.54961 0.3319 0.0
C1654 C 0.53081 0.56082 0.33723 0.0
C1655 C 0.52691 0.58295 0.3456 0.0
C1656 C 0.49145 0.59384 0.34876 0.0
C1657 C 0.4598 0.58252 0.34356 0.0
C1658 C 0.46354 0.56042 0.33518 0.0
C1659 C 0.46718 0.36362 0.3135 0.0
C1660 C 0.42791 0.36366 0.31357 0.0
C1661 C 0.48707 0.39727 0.31399 0.0
C1662 C 0.46805 0.4315 0.31465 0.0
C1663 C 0.42897 0.43147 0.31503 0.0
C1664 C 0.40913 0.39803 0.31442 0.0
C1665 C 0.48857 0.46756 0.31463 0.0
C1666 C 0.48429 0.49187 0.32262 0.0
C1667 C 0.51191 0.47818 0.30674 0.0
C1668 C 0.51615 0.45457 0.29789 0.0
C1669 C 0.48475 0.44401 0.29235 0.0
C1670 C 0.48891 0.42143 0.28407 0.0
C1671 C 0.52439 0.40952 0.2812 0.0
C1672 C 0.55579 0.42026 0.28659 0.0
C1673 C 0.55176 0.44277 0.29489 0.0
H1674 H 0.52756 0.39206 0.27479 0.0
H1675 H 0.4885 0.61096 0.35524 0.0
H1676 H 0.59462 0.86982 0.56238 0.0
H1677 H 0.53715 0.90583 0.56231 0.0
H1678 H 0.60065 0.00801 0.56256 0.0
H1679 H 0.65884 0.97199 0.56282 0.0
H1680 H 0.54214 0.01193 0.57498 0.0
H1681 H 0.55987 0.97632 0.54149 0.0
H1682 H 0.57171 0.93256 0.52791 0.0
H1683 H 0.47136 0.8728 0.53495 0.0
H1684 H 0.45921 0.91588 0.54868 0.0
H1685 H 0.39473 0.13151 0.56091 0.0
H1686 H 0.4522 0.09547 0.56136 0.0
H1687 H 0.38864 0.99338 0.56202 0.0
H1688 H 0.33045 0.02936 0.56148 0.0
H1689 H 0.44713 0.98952 0.54916 0.0
H1690 H 0.42957 0.02562 0.58267 0.0
H1691 H 0.41815 0.0695 0.59625 0.0
H1692 H 0.51854 0.12891 0.58903 0.0
H1693 H 0.53028 0.08568 0.57531 0.0
C1694 C 0.59662 0.89996 0.56243 0.0
C1695 C 0.6316 0.91794 0.56256 0.0
C1696 C 0.56356 0.92055 0.56234 0.0
C1697 C 0.56449 0.95965 0.56226 0.0
C1698 C 0.59924 0.97783 0.56258 0.0
C1699 C 0.6325 0.95719 0.56271 0.0
C1700 C 0.52908 0.98131 0.56185 0.0
C1701 C 0.52162 0.00743 0.56925 0.0
C1702 C 0.50183 0.97482 0.5545 0.0
C1703 C 0.50881 0.94915 0.54617 0.0
C1704 C 0.54046 0.9537 0.54018 0.0
C1705 C 0.54721 0.92904 0.53245 0.0
C1706 C 0.52235 0.89987 0.53058 0.0
C1707 C 0.49062 0.89539 0.53642 0.0
C1708 C 0.48376 0.91994 0.54417 0.0
C1709 C 0.39271 0.10138 0.56117 0.0
C1710 C 0.35772 0.08342 0.56121 0.0
C1711 C 0.42577 0.0808 0.56147 0.0
C1712 C 0.4248 0.04173 0.56186 0.0
C1713 C 0.39005 0.02354 0.56176 0.0
C1714 C 0.3568 0.04417 0.56148 0.0
C1715 C 0.4602 0.02009 0.56229 0.0
C1716 C 0.46766 0.994 0.55489 0.0
C1717 C 0.48748 0.02669 0.56961 0.0
C1718 C 0.48061 0.0526 0.5779 0.0
C1719 C 0.44906 0.04821 0.58393 0.0
C1720 C 0.44256 0.07293 0.59166 0.0
C1721 C 0.46756 0.10202 0.59349 0.0
C1722 C 0.49917 0.10638 0.5876 0.0
C1723 C 0.50578 0.08176 0.57985 0.0
H1724 H 0.46247 0.12114 0.59948 0.0
H1725 H 0.52764 0.88079 0.52459 0.0
H1726 H 0.13615 0.11624 0.81582 0.0
H1727 H 0.10211 0.05752 0.81678 0.0
H1728 H 0.9978 0.11687 0.81445 0.0
H1729 H 0.03169 0.17613 0.81365 0.0
H1730 H 0.99273 0.06079 0.82763 0.0
H1731 H 0.0366 0.07438 0.79462 0.0
H1732 H 0.08417 0.08556 0.78189 0.0
H1733 H 0.14373 0.9877 0.79111 0.0
H1734 H 0.09687 0.97633 0.80403 0.0
H1735 H 0.87758 0.9116 0.81224 0.0
H1736 H 0.91333 0.96914 0.81341 0.0
H1737 H 0.01514 0.90579 0.81601 0.0
H1738 H 0.97949 0.84762 0.81473 0.0
H1739 H 0.02277 0.96304 0.80313 0.0
H1740 H 0.97727 0.94882 0.83595 0.0
H1741 H 0.9296 0.93861 0.84871 0.0
H1742 H 0.87229 0.038 0.83964 0.0
H1743 H 0.91935 0.04853 0.82673 0.0
C1744 C 0.10594 0.11701 0.81557 0.0
C1745 C 0.08673 0.15108 0.81457 0.0
C1746 C 0.0865 0.08327 0.81609 0.0
C1747 C 0.04739 0.08264 0.81551 0.0
C1748 C 0.02799 0.11662 0.81488 0.0
C1749 C 0.04744 0.15051 0.81441 0.0
C1750 C 0.02695 0.04647 0.81522 0.0
C1751 C 0.999 0.03959 0.8222 0.0
C1752 C 0.03563 0.01842 0.80827 0.0
C1753 C 0.0634 0.0247 0.80036 0.0
C1754 C 0.05996 0.05536 0.79397 0.0
C1755 C 0.0868 0.06174 0.78672 0.0
C1756 C 0.117 0.0374 0.78571 0.0
C1757 C 0.12034 0.00656 0.79192 0.0
C1758 C 0.09365 1.00013 0.7992 0.0
C1759 C 0.90755 0.90966 0.81312 0.0
C1760 C 0.92555 0.87473 0.81343 0.0
C1761 C 0.92798 0.94275 0.81382 0.0
C1762 C 0.96692 0.94189 0.81492 0.0
C1763 C 0.9851 0.90716 0.8152 0.0
C1764 C 0.96463 0.87391 0.81451 0.0
C1765 C 0.9885 0.97734 0.81553 0.0
C1766 C 0.01662 0.98413 0.80859 0.0
C1767 C 0.97985 0.00536 0.8225 0.0
C1768 C 0.95168 0.99929 0.83031 0.0
C1769 C 0.95436 0.96836 0.83663 0.0
C1770 C 0.92747 0.96253 0.8439 0.0
C1771 C 0.89789 0.98759 0.84497 0.0
C1772 C 0.8952 0.01859 0.83879 0.0
C1773 C 0.922 0.02453 0.83151 0.0
H1774 H 0.87708 0.98302 0.85059 0.0
H1775 H 0.13777 0.04241 0.7801 0.0
H1776 H 0.6248 0.88559 0.18286 0.0
H1777 H 0.56362 0.91475 0.18054 0.0
H1778 H 0.61567 0.0231 0.17944 0.0
H1779 H 0.67709 0.99408 0.18165 0.0
H1780 H 0.55393 0.0187 0.19238 0.0
H1781 H 0.58413 0.98767 0.15897 0.0
H1782 H 0.60326 0.94567 0.14558 0.0
H1783 H 0.50753 0.8765 0.15091 0.0
H1784 H 0.4881 0.91782 0.16444 0.0
H1785 H 0.39316 0.12071 0.18035 0.0
H1786 H 0.45586 0.09422 0.17937 0.0
H1787 H 0.4087 0.98459 0.17528 0.0
H1788 H 0.34581 0.01123 0.17592 0.0
H1789 H 0.46906 0.99034 0.16461 0.0
H1790 H 0.43956 0.01584 0.19808 0.0
H1791 H 0.41937 0.05362 0.21222 0.0
H1792 H 0.51193 0.12785 0.20784 0.0
H1793 H 0.53242 0.09077 0.19358 0.0
C1794 C 0.62328 0.9156 0.18205 0.0
C1795 C 0.65583 0.93752 0.18243 0.0
C1796 C 0.58829 0.93221 0.1807 0.0
C1797 C 0.58508 0.97109 0.17978 0.0
C1798 C 0.61752 0.99305 0.18012 0.0
C1799 C 0.6526 0.9764 0.18134 0.0
C1800 C 0.54773 0.98887 0.1788 0.0
C1801 C 0.5356 0.01303 0.18622 0.0
C1802 C 0.52333 0.98042 0.17094 0.0
C1803 C 0.53485 0.95566 0.16278 0.0
C1804 C 0.56732 0.96334 0.15734 0.0
C1805 C 0.57819 0.93969 0.14972 0.0
C1806 C 0.55667 0.90839 0.14741 0.0
C1807 C 0.52419 0.90074 0.15271 0.0
C1808 C 0.51321 0.92428 0.16035 0.0
C1809 C 0.39613 0.09104 0.17908 0.0
C1810 C 0.36449 0.06803 0.17828 0.0
C1811 C 0.43203 0.07586 0.17859 0.0
C1812 C 0.43714 0.03721 0.1775 0.0
C1813 C 0.40559 0.01444 0.17618 0.0
C1814 C 0.3696 0.02971 0.17654 0.0
C1815 C 0.47518 0.02043 0.17819 0.0
C1816 C 0.48742 0.9963 0.17074 0.0
C1817 C 0.4995 0.02835 0.18613 0.0
C1818 C 0.48731 0.05073 0.19471 0.0
C1819 C 0.45546 0.04038 0.20009 0.0
C1820 C 0.44398 0.06164 0.20813 0.0
C1821 C 0.46432 0.09314 0.21092 0.0
C1822 C 0.49619 0.10345 0.20567 0.0
C1823 C 0.50777 0.08231 0.19761 0.0
H1824 H 0.45546 0.10947 0.21717 0.0
H1825 H 0.56513 0.89011 0.1415 0.0
H1826 H 0.88689 0.89263 0.43664 0.0
H1827 H 0.91332 0.95457 0.43421 0.0
H1828 H 0.011 0.90593 0.4209 0.0
H1829 H 0.98464 0.84332 0.42334 0.0
H1830 H 0.97805 0.9804 0.44235 0.0
H1831 H 0.04318 0.9727 0.40372 0.0
H1832 H 0.0331 0.94014 0.38801 0.0
H1833 H 0.91636 0.92932 0.39453 0.0
H1834 H 0.92564 0.96227 0.41021 0.0
H1835 H 0.1087 0.12383 0.43524 0.0
H1836 H 0.08103 0.06207 0.43348 0.0
H1837 H 0.98597 0.11011 0.41878 0.0
H1838 H 0.01335 0.17261 0.42063 0.0
H1839 H 0.01547 0.03748 0.41067 0.0
H1840 H 0.97109 0.09532 0.44053 0.0
H1841 H 0.97906 0.1289 0.45617 0.0
H1842 H 0.04907 0.0408 0.46699 0.0
H1843 H 0.04181 0.00686 0.45135 0.0
C1844 C 0.91385 0.89497 0.4331 0.0
C1845 C 0.93374 0.86298 0.43021 0.0
C1846 C 0.92895 0.93046 0.43174 0.0
C1847 C 0.9641 0.93489 0.42738 0.0
C1848 C 0.98369 0.90314 0.42422 0.0
C1849 C 0.96865 0.86741 0.42564 0.0
C1850 C 0.98079 0.97271 0.42669 0.0
C1851 C 0.98622 0.99277 0.43541 0.0
C1852 C 0.99126 0.98903 0.41764 0.0
C1853 C 0.98522 0.96959 0.40819 0.0
C1854 C 0.01535 0.96347 0.40179 0.0
C1855 C 0.00977 0.94494 0.39289 0.0
C1856 C 0.97414 0.93255 0.39029 0.0
C1857 C 0.94397 0.93879 0.39657 0.0
C1858 C 0.94939 0.95734 0.40547 0.0
C1859 C 0.08216 0.12137 0.43149 0.0
C1860 C 0.06306 0.15322 0.42814 0.0
C1861 C 0.06644 0.08598 0.43048 0.0
C1862 C 0.03146 0.0816 0.42604 0.0
C1863 C 0.01311 0.11299 0.4222 0.0
C1864 C 0.02869 0.14864 0.4233 0.0
C1865 C 0.01278 0.04475 0.42631 0.0
C1866 C 0.00724 0.02491 0.41757 0.0
C1867 C 1.0019 0.02857 0.43533 0.0
C1868 C 0.00615 0.04873 0.44475 0.0
C1869 C 0.98841 0.08326 0.44622 0.0
C1870 C 0.99274 0.10231 0.45508 0.0
C1871 C 0.01458 0.087 0.46256 0.0
C1872 C 0.03215 0.0526 0.46119 0.0
C1873 C 0.02789 0.03342 0.45233 0.0
H1874 H 0.01773 0.10175 0.46943 0.0
H1875 H 0.96988 0.91819 0.38341 0.0
H1876 H 0.1803 0.49714 0.6752 0.0
H1877 H 0.11862 0.52569 0.67299 0.0
H1878 H 0.06715 0.41717 0.6748 0.0
H1879 H 0.12848 0.38855 0.6771 0.0
H1880 H 0.03495 0.46391 0.66028 0.0
H1881 H 0.06914 0.46649 0.6945 0.0
H1882 H 0.10993 0.48127 0.70854 0.0
H1883 H 0.10347 0.59788 0.70152 0.0
H1884 H 0.06304 0.58371 0.68735 0.0
H1885 H 0.8488 0.50951 0.67474 0.0
H1886 H 0.9117 0.48446 0.67233 0.0
H1887 H 0.95782 0.5948 0.67598 0.0
H1888 H 0.89526 0.61963 0.67872 0.0
H1889 H 0.99437 0.549 0.68688 0.0
H1890 H 0.95621 0.54727 0.65325 0.0
H1891 H 0.91545 0.53244 0.63921 0.0
H1892 H 0.92912 0.41537 0.64483 0.0
H1893 H 0.96958 0.42951 0.65898 0.0
C1894 C 0.1559 0.47933 0.67496 0.0
C1895 C 0.15919 0.44065 0.67639 0.0
C1896 C 0.1207 0.49567 0.67372 0.0
C1897 C 0.08832 0.47354 0.67381 0.0
C1898 C 0.09177 0.43473 0.6747 0.0
C1899 C 0.12683 0.41846 0.67606 0.0
C1900 C 0.05072 0.4909 0.67374 0.0
C1901 C 0.02588 0.48238 0.6661 0.0
C1902 C 0.03922 0.51543 0.68127 0.0
C1903 C 0.06345 0.524 0.6898 0.0
C1904 C 0.0767 0.49525 0.6959 0.0
C1905 C 0.0997 0.50351 0.70389 0.0
C1906 C 0.10938 0.54048 0.7059 0.0
C1907 C 0.096 0.56925 0.69994 0.0
C1908 C 0.07304 0.56112 0.69193 0.0
C1909 C 0.87232 0.52848 0.67486 0.0
C1910 C 0.8671 0.5665 0.67695 0.0
C1911 C 0.90831 0.51417 0.67345 0.0
C1912 C 0.93966 0.53775 0.67392 0.0
C1913 C 0.9342 0.57598 0.67563 0.0
C1914 C 0.89837 0.59017 0.67716 0.0
C1915 C 0.97825 0.52237 0.67335 0.0
C1916 C 1.00334 0.53101 0.68094 0.0
C1917 C 0.98991 0.49808 0.66575 0.0
C1918 C 0.96567 0.48947 0.65723 0.0
C1919 C 0.9503 0.51837 0.65153 0.0
C1920 C 0.92729 0.51009 0.64355 0.0
C1921 C 0.91963 0.47299 0.64114 0.0
C1922 C 0.93505 0.44409 0.6467 0.0
C1923 C 0.95806 0.45223 0.6547 0.0
H1924 H 0.90181 0.46663 0.63496 0.0
H1925 H 0.12717 0.54683 0.71209 0.0
H1926 H 0.38184 0.38123 0.93127 0.0
H1927 H 0.40856 0.44343 0.92873 0.0
H1928 H 0.51843 0.39516 0.92649 0.0
H1929 H 0.49183 0.33277 0.92884 0.0
H1930 H 0.51167 0.45507 0.94029 0.0
H1931 H 0.48251 0.42713 0.90673 0.0
H1932 H 0.4425 0.4087 0.89285 0.0
H1933 H 0.37057 0.50215 0.89833 0.0
H1934 H 0.40986 0.52085 0.91235 0.0
H1935 H 0.61353 0.61481 0.92851 0.0
H1936 H 0.58584 0.55289 0.9271 0.0
H1937 H 0.4764 0.60219 0.92468 0.0
H1938 H 0.5042 0.66461 0.92585 0.0
H1939 H 0.48182 0.54176 0.91301 0.0
H1940 H 0.50743 0.56924 0.94659 0.0
H1941 H 0.54557 0.58913 0.9607 0.0
H1942 H 0.62049 0.4975 0.95588 0.0
H1943 H 0.58308 0.47735 0.94164 0.0
C1944 C 0.41164 0.38382 0.93012 0.0
C1945 C 0.43475 0.3521 0.93026 0.0
C1946 C 0.42683 0.41936 0.92864 0.0
C1947 C 0.46546 0.42389 0.92741 0.0
C1948 C 0.48854 0.39224 0.92742 0.0
C1949 C 0.47329 0.35662 0.92872 0.0
C1950 C 0.48197 0.4618 0.92669 0.0
C1951 C 0.50563 0.47382 0.93425 0.0
C1952 C 0.47296 0.48669 0.91899 0.0
C1953 C 0.44895 0.47519 0.91066 0.0
C1954 C 0.45793 0.44352 0.90505 0.0
C1955 C 0.43544 0.43308 0.89714 0.0
C1956 C 0.40402 0.45424 0.89471 0.0
C1957 C 0.39493 0.4858 0.90022 0.0
C1958 C 0.41731 0.49634 0.90815 0.0
C1959 C 0.58361 0.61257 0.92753 0.0
C1960 C 0.56101 0.64462 0.92738 0.0
C1961 C 0.56778 0.57709 0.92677 0.0
C1962 C 0.52893 0.57278 0.92602 0.0
C1963 C 0.50643 0.60479 0.92531 0.0
C1964 C 0.52235 0.64045 0.92598 0.0
C1965 C 0.51192 0.53492 0.92657 0.0
C1966 C 0.48798 0.52298 0.91904 0.0
C1967 C 0.52021 0.51016 0.93438 0.0
C1968 C 0.54264 0.522 0.94299 0.0
C1969 C 0.53219 0.55348 0.94849 0.0
C1970 C 0.55366 0.56478 0.95652 0.0
C1971 C 0.58549 0.54465 0.95917 0.0
C1972 C 0.59585 0.5131 0.95381 0.0
C1973 C 0.57451 0.5017 0.94577 0.0
H1974 H 0.60208 0.55345 0.96538 0.0
H1975 H 0.38681 0.44626 0.88854 0.0
H1976 H 0.6775 0.51988 0.07256 0.0
H1977 H 0.6151 0.4931 0.07476 0.0
H1978 H 0.56585 0.60128 0.06992 0.0
H1979 H 0.62808 0.62817 0.06758 0.0
H1980 H 0.53198 0.55941 0.08558 0.0
H1981 H 0.56717 0.54569 0.05163 0.0
H1982 H 0.60839 0.52632 0.03809 0.0
H1983 H 0.6012 0.41239 0.04764 0.0
H1984 H 0.56036 0.4312 0.06134 0.0
H1985 H 0.34582 0.50477 0.07296 0.0
H1986 H 0.40812 0.53229 0.07446 0.0
H1987 H 0.45723 0.42252 0.07295 0.0
H1988 H 0.39525 0.39515 0.07112 0.0
H1989 H 0.49213 0.46543 0.06104 0.0
H1990 H 0.45528 0.47725 0.0946 0.0
H1991 H 0.41492 0.49562 0.10841 0.0
H1992 H 0.42571 0.61077 0.10021 0.0
H1993 H 0.46575 0.59305 0.08625 0.0
C1994 C 0.65342 0.53806 0.07209 0.0
C1995 C 0.65771 0.5761 0.06984 0.0
C1996 C 0.6178 0.52271 0.07333 0.0
C1997 C 0.58584 0.54517 0.07244 0.0
C1998 C 0.59013 0.58347 0.07064 0.0
C1999 C 0.62571 0.59874 0.06927 0.0
C2000 C 0.54795 0.52832 0.07276 0.0
C2001 C 0.52303 0.53908 0.08018 0.0
C2002 C 0.53664 0.50128 0.06583 0.0
C2003 C 0.56108 0.48991 0.05758 0.0
C2004 C 0.57466 0.51656 0.0509 0.0
C2005 C 0.5979 0.50568 0.04318 0.0
C2006 C 0.6075 0.46817 0.04202 0.0
C2007 C 0.5938 0.44145 0.04856 0.0
C2008 C 0.57059 0.4522 0.0563 0.0
C2009 C 0.36988 0.4865 0.07311 0.0
C2010 C 0.36561 0.4478 0.0719 0.0
C2011 C 0.40555 0.50225 0.074 0.0
C2012 C 0.43759 0.47953 0.07387 0.0
C2013 C 0.4331 0.44074 0.07302 0.0
C2014 C 0.39758 0.42508 0.07201 0.0
C2015 C 0.47582 0.4961 0.07394 0.0
C2016 C 0.5009 0.48547 0.06653 0.0
C2017 C 0.48728 0.52301 0.08094 0.0
C2018 C 0.46322 0.53378 0.08932 0.0
C2019 C 0.44881 0.50647 0.09569 0.0
C2020 C 0.42603 0.51677 0.10355 0.0
C2021 C 0.41768 0.55433 0.10517 0.0
C2022 C 0.43217 0.58168 0.09894 0.0
C2023 C 0.45493 0.57153 0.09105 0.0
H2024 H 0.40004 0.56225 0.11126 0.0
H2025 H 0.62548 0.45979 0.03604 0.0
H2026 H 0.48753 0.16798 0.32874 0.0
H2027 H 0.51275 0.10482 0.33079 0.0
H2028 H 0.4068 0.05836 0.3221 0.0
H2029 H 0.38154 0.12105 0.31998 0.0
H2030 H 0.49338 0.03876 0.34132 0.0
H2031 H 0.42502 0.99056 0.30548 0.0
H2032 H 0.39938 0.01784 0.29027 0.0
H2033 H 0.47556 0.10986 0.29262 0.0
H2034 H 0.50192 0.0829 0.30776 0.0
H2035 H 0.51741 0.83935 0.33121 0.0
H2036 H 0.48917 0.90131 0.33365 0.0
H2037 H 0.57354 0.95034 0.31516 0.0
H2038 H 0.60219 0.88932 0.31288 0.0
H2039 H 0.49705 0.9681 0.31005 0.0
H2040 H 0.58281 0.96626 0.33737 0.0
H2041 H 0.6098 0.94015 0.35253 0.0
H2042 H 0.50362 0.9498 0.3669 0.0
H2043 H 0.47585 0.97544 0.35177 0.0
C2044 C 0.4694 0.1443 0.32747 0.0
C2045 C 0.43269 0.14953 0.32408 0.0
C2046 C 0.48381 0.10824 0.32867 0.0
C2047 C 0.46177 0.07693 0.32648 0.0
C2048 C 0.42439 0.08214 0.32373 0.0
C2049 C 0.41002 0.11804 0.32252 0.0
C2050 C 0.47877 0.0392 0.326 0.0
C2051 C 0.49403 0.02321 0.3345 0.0
C2052 C 0.47989 0.01903 0.31708 0.0
C2053 C 0.46518 0.03486 0.30779 0.0
C2054 C 0.43643 0.01649 0.30271 0.0
C2055 C 0.42174 0.03192 0.29412 0.0
C2056 C 0.43576 0.06561 0.2905 0.0
C2057 C 0.46464 0.08383 0.29544 0.0
C2058 C 0.47945 0.0685 0.30404 0.0
C2059 C 0.5301 0.86344 0.32777 0.0
C2060 C 0.56202 0.85943 0.32186 0.0
C2061 C 0.51399 0.89874 0.32916 0.0
C2062 C 0.52927 0.9303 0.32455 0.0
C2063 C 0.5613 0.92632 0.31876 0.0
C2064 C 0.57771 0.89137 0.3175 0.0
C2065 C 0.51141 0.96746 0.32538 0.0
C2066 C 0.49601 0.98341 0.3169 0.0
C2067 C 0.51045 0.98755 0.33429 0.0
C2068 C 0.52714 0.97234 0.3434 0.0
C2069 C 0.56512 0.96246 0.34373 0.0
C2070 C 0.58058 0.94783 0.35233 0.0
C2071 C 0.55841 0.94321 0.36066 0.0
C2072 C 0.52074 0.95333 0.36043 0.0
C2073 C 0.50513 0.96793 0.35185 0.0
H2074 H 0.57043 0.93188 0.36731 0.0
H2075 H 0.42428 0.07757 0.28386 0.0
H2076 H 0.87891 0.88467 0.56519 0.0
H2077 H 0.94076 0.91322 0.56613 0.0
H2078 H 0.89023 0.0217 0.5693 0.0
H2079 H 0.82808 0.99328 0.56836 0.0
H2080 H 0.94572 0.02101 0.55539 0.0
H2081 H 0.93075 0.98052 0.58871 0.0
H2082 H 0.91741 0.93525 0.60187 0.0
H2083 H 0.00938 0.86743 0.59243 0.0
H2084 H 0.02296 0.91204 0.57912 0.0
H2085 H 0.11176 0.11931 0.56551 0.0
H2086 H 0.04953 0.09209 0.56693 0.0
H2087 H 0.09755 0.98173 0.56677 0.0
H2088 H 0.16015 0.00896 0.56566 0.0
H2089 H 0.04259 0.98405 0.57952 0.0
H2090 H 0.05655 0.02115 0.54597 0.0
H2091 H 0.07021 0.06429 0.53234 0.0
H2092 H 0.98062 0.1357 0.54153 0.0
H2093 H 0.96675 0.09321 0.5553 0.0
C2094 C 0.8809 0.91458 0.56617 0.0
C2095 C 0.84854 0.93671 0.56671 0.0
C2096 C 0.91632 0.93085 0.56673 0.0
C2097 C 0.92018 0.96959 0.56785 0.0
C2098 C 0.88792 0.99175 0.56846 0.0
C2099 C 0.85243 0.97545 0.56795 0.0
C2100 C 0.95787 0.98703 0.56801 0.0
C2101 C 0.96671 0.0134 0.56077 0.0
C2102 C 0.98564 0.97624 0.57483 0.0
C2103 C 0.97766 0.94947 0.58286 0.0
C2104 C 0.94795 0.9558 0.58939 0.0
C2105 C 0.94038 0.93029 0.59689 0.0
C2106 C 0.96247 0.89844 0.59797 0.0
C2107 C 0.99226 0.89209 0.59158 0.0
C2108 C 0.99993 0.91751 0.58406 0.0
C2109 C 0.10913 0.08924 0.56583 0.0
C2110 C 0.1409 0.06628 0.5654 0.0
C2111 C 0.07346 0.07368 0.56659 0.0
C2112 C 0.06866 0.03478 0.56676 0.0
C2113 C 0.10045 0.0118 0.56661 0.0
C2114 C 0.13623 0.02739 0.56596 0.0
C2115 C 0.0305 0.01814 0.56689 0.0
C2116 C 0.02158 0.99183 0.57416 0.0
C2117 C 1.00271 0.02869 0.56003 0.0
C2118 C 0.01086 0.05419 0.55172 0.0
C2119 C 0.03993 0.04619 0.54512 0.0
C2120 C 0.04769 0.0705 0.53737 0.0
C2121 C 0.02636 0.10276 0.53609 0.0
C2122 C 0.99715 0.11072 0.54255 0.0
C2123 C 0.98931 0.08652 0.55032 0.0
H2124 H 0.03241 0.12155 0.53008 0.0
H2125 H 0.95656 0.87872 0.60378 0.0
H2126 H 0.99517 0.67902 0.82129 0.0
H2127 H 0.02265 0.61664 0.82261 0.0
H2128 H 0.91368 0.56733 0.8192 0.0
H2129 H 0.88601 0.62959 0.81775 0.0
H2130 H 0.9592 0.5322 0.83389 0.0
H2131 H 0.96543 0.57113 0.80004 0.0
H2132 H 0.98189 0.61392 0.78655 0.0
H2133 H 0.09775 0.60586 0.79434 0.0
H2134 H 0.08188 0.56344 0.80798 0.0
H2135 H 0.0112 0.34757 0.82008 0.0
H2136 H 0.98394 0.4098 0.82176 0.0
H2137 H 0.09318 0.45897 0.81844 0.0
H2138 H 0.12024 0.39695 0.81637 0.0
H2139 H 0.04766 0.49523 0.80767 0.0
H2140 H 0.04362 0.45535 0.84112 0.0
H2141 H 0.02864 0.41373 0.85497 0.0
H2142 H 0.91169 0.42446 0.84868 0.0
H2143 H 0.92601 0.46577 0.8347 0.0
C2144 C 0.97697 0.65494 0.82096 0.0
C2145 C 0.93843 0.65926 0.81937 0.0
C2146 C 0.99274 0.61931 0.82168 0.0
C2147 C 0.97023 0.58735 0.82093 0.0
C2148 C 0.93154 0.59161 0.8198 0.0
C2149 C 0.91581 0.62721 0.81895 0.0
C2150 C 0.98729 0.54956 0.82072 0.0
C2151 C 0.9783 0.52388 0.82812 0.0
C2152 C 0.01283 0.53908 0.81331 0.0
C2153 C 0.02242 0.56445 0.80509 0.0
C2154 C 0.99437 0.57875 0.79893 0.0
C2155 C 1.0036 0.60289 0.79125 0.0
C2156 C 0.04083 0.61269 0.78961 0.0
C2157 C 0.06892 0.5983 0.79563 0.0
C2158 C 0.05982 0.57419 0.80334 0.0
C2159 C 0.02944 0.37165 0.81981 0.0
C2160 C 0.06788 0.36732 0.81809 0.0
C2161 C 0.01384 0.40728 0.82082 0.0
C2162 C 0.03648 0.43931 0.82034 0.0
C2163 C 0.07502 0.43485 0.81882 0.0
C2164 C 0.09051 0.39932 0.81767 0.0
C2165 C 0.01993 0.47749 0.82091 0.0
C2166 C 0.02885 0.50335 0.81352 0.0
C2167 C 0.99464 0.48818 0.8284 0.0
C2168 C 0.98592 0.46338 0.8368 0.0
C2169 C 0.01473 0.44861 0.84264 0.0
C2170 C 0.00635 0.42511 0.85052 0.0
C2171 C 0.96924 0.41638 0.85269 0.0
C2172 C 0.94043 0.43121 0.84698 0.0
C2173 C 0.94865 0.4547 0.83909 0.0
H2174 H 0.96281 0.39819 0.85879 0.0
H2175 H 0.04792 0.63137 0.78366 0.0
loop_
_geom_bond_atom_site_label_1
_geom_bond_atom_site_label_2
_geom_bond_distance
_geom_bond_site_symmetry_2
_ccdc_geom_bond_type
Mn0 O5 2.095 . S
Mn0 O15 2.162 . S
Mn0 O16 2.297 . S
Mn0 O24 2.385 . S
Mn0 O25 2.209 . S
Mn0 O26 2.094 . S
Mn1 O6 2.121 . S
Mn1 N8 2.257 . S
Mn1 N17 2.282 . S
Mn1 O25 2.215 . S
Mn1 O27 2.117 . S
C2 O24 1.234 . S
C2 O25 1.283 . S
C3 O15 1.281 . S
C3 O16 1.236 . S
C4 O26 1.240 . S
C4 O27 1.264 . S
O5 Mn0 2.095 . S
O5 C14 1.250 . S
O6 Mn1 2.121 . S
O6 C14 1.258 . S
C7 N8 1.326 . S
C7 C11 1.460 . S
C7 H13 0.929 . S
N8 Mn1 2.257 . S
N8 C7 1.326 . S
N8 C12 1.362 . S
C9 C10 1.258 . S
C9 C12 1.431 . S
C9 C29 1.449 . S
C10 C9 1.258 . S
C10 C11 1.477 . S
C10 H30 0.931 . S
C11 C7 1.460 . S
C11 C10 1.477 . S
C11 H31 0.930 . S
C12 N8 1.362 . S
C12 C9 1.431 . S
C12 C22 1.476 . S
H13 C7 0.929 . S
C14 O5 1.250 . S
C14 O6 1.258 . S
O15 Mn0 2.162 . S
O15 C3 1.281 . S
O16 Mn0 2.297 . S
O16 C3 1.236 . S
N17 Mn1 2.282 . S
N17 C18 1.328 . S
N17 C22 1.318 . S
C18 N17 1.328 . S
C18 C19 1.457 . S
C18 H23 0.929 . S
C19 C18 1.457 . S
C19 C20 1.291 . S
C19 H32 0.931 . S
C20 C19 1.291 . S
C20 C21 1.373 . S
C20 H33 0.929 . S
C21 C20 1.373 . S
C21 C22 1.396 . S
C21 C28 1.403 . S
C22 C12 1.476 . S
C22 N17 1.318 . S
C22 C21 1.396 . S
H23 C18 0.929 . S
O24 Mn0 2.385 . S
O24 C2 1.234 . S
O25 Mn0 2.209 . S
O25 Mn1 2.215 . S
O25 C2 1.283 . S
O26 Mn0 2.094 . S
O26 C4 1.240 . S
O27 Mn1 2.117 . S
O27 C4 1.264 . S
C28 C21 1.403 . S
C28 C29 1.399 . S
C28 H34 0.929 . S
C29 C9 1.449 . S
C29 C28 1.399 . S
C29 H35 0.930 . S
H30 C10 0.931 . S
H31 C11 0.930 . S
H32 C19 0.931 . S
H33 C20 0.929 . S
H34 C28 0.929 . S
H35 C29 0.930 . S
Mn36 O41 2.095 . S
Mn36 O51 2.162 . S
Mn36 O52 2.297 . S
Mn36 O60 2.385 . S
Mn36 O61 2.209 . S
Mn36 O62 2.094 . S
Mn37 O42 2.121 . S
Mn37 N44 2.257 . S
Mn37 N53 2.282 . S
Mn37 O61 2.215 . S
Mn37 O63 2.117 . S
C38 O60 1.234 . S
C38 O61 1.283 . S
C39 O51 1.281 . S
C39 O52 1.236 . S
C40 O62 1.240 . S
C40 O63 1.264 . S
O41 Mn36 2.095 . S
O41 C50 1.250 . S
O42 Mn37 2.121 . S
O42 C50 1.258 . S
C43 N44 1.326 . S
C43 C47 1.460 . S
C43 H49 0.929 . S
N44 Mn37 2.257 . S
N44 C43 1.326 . S
N44 C48 1.362 . S
C45 C46 1.258 . S
C45 C48 1.431 . S
C45 C65 1.449 . S
C46 C45 1.258 . S
C46 C47 1.477 . S
C46 H66 0.931 . S
C47 C43 1.460 . S
C47 C46 1.477 . S
C47 H67 0.930 . S
C48 N44 1.362 . S
C48 C45 1.431 . S
C48 C58 1.476 . S
H49 C43 0.929 . S
C50 O41 1.250 . S
C50 O42 1.258 . S
O51 Mn36 2.162 . S
O51 C39 1.281 . S
O52 Mn36 2.297 . S
O52 C39 1.236 . S
N53 Mn37 2.282 . S
N53 C54 1.328 . S
N53 C58 1.318 . S
C54 N53 1.328 . S
C54 C55 1.457 . S
C54 H59 0.929 . S
C55 C54 1.457 . S
C55 C56 1.291 . S
C55 H68 0.931 . S
C56 C55 1.291 . S
C56 C57 1.373 . S
C56 H69 0.929 . S
C57 C56 1.373 . S
C57 C58 1.396 . S
C57 C64 1.403 . S
C58 C48 1.476 . S
C58 N53 1.318 . S
C58 C57 1.396 . S
H59 C54 0.929 . S
O60 Mn36 2.385 . S
O60 C38 1.234 . S
O61 Mn36 2.209 . S
O61 Mn37 2.215 . S
O61 C38 1.283 . S
O62 Mn36 2.094 . S
O62 C40 1.240 . S
O63 Mn37 2.117 . S
O63 C40 1.264 . S
C64 C57 1.403 . S
C64 C65 1.399 . S
C64 H70 0.929 . S
C65 C45 1.449 . S
C65 C64 1.399 . S
C65 H71 0.930 . S
H66 C46 0.931 . S
H67 C47 0.930 . S
H68 C55 0.931 . S
H69 C56 0.929 . S
H70 C64 0.929 . S
H71 C65 0.930 . S
Mn72 O77 2.095 . S
Mn72 O87 2.162 . S
Mn72 O88 2.297 . S
Mn72 O96 2.385 . S
Mn72 O97 2.209 . S
Mn72 O98 2.094 . S
Mn73 O78 2.121 . S
Mn73 N80 2.257 . S
Mn73 N89 2.282 . S
Mn73 O97 2.215 . S
Mn73 O99 2.117 . S
C74 O96 1.234 . S
C74 O97 1.283 . S
C75 O87 1.281 . S
C75 O88 1.236 . S
C76 O98 1.240 . S
C76 O99 1.264 . S
O77 Mn72 2.095 . S
O77 C86 1.250 . S
O78 Mn73 2.121 . S
O78 C86 1.258 . S
C79 N80 1.326 . S
C79 C83 1.460 . S
C79 H85 0.929 . S
N80 Mn73 2.257 . S
N80 C79 1.326 . S
N80 C84 1.362 . S
C81 C82 1.258 . S
C81 C84 1.431 . S
C81 C101 1.449 . S
C82 C81 1.258 . S
C82 C83 1.477 . S
C82 H102 0.931 . S
C83 C79 1.460 . S
C83 C82 1.477 . S
C83 H103 0.930 . S
C84 N80 1.362 . S
C84 C81 1.431 . S
C84 C94 1.476 . S
H85 C79 0.929 . S
C86 O77 1.250 . S
C86 O78 1.258 . S
O87 Mn72 2.162 . S
O87 C75 1.281 . S
O88 Mn72 2.297 . S
O88 C75 1.236 . S
N89 Mn73 2.282 . S
N89 C90 1.328 . S
N89 C94 1.318 . S
C90 N89 1.328 . S
C90 C91 1.457 . S
C90 H95 0.929 . S
C91 C90 1.457 . S
C91 C92 1.291 . S
C91 H104 0.931 . S
C92 C91 1.291 . S
C92 C93 1.373 . S
C92 H105 0.929 . S
C93 C92 1.373 . S
C93 C94 1.396 . S
C93 C100 1.403 . S
C94 C84 1.476 . S
C94 N89 1.318 . S
C94 C93 1.396 . S
H95 C90 0.929 . S
O96 Mn72 2.385 . S
O96 C74 1.234 . S
O97 Mn72 2.209 . S
O97 Mn73 2.215 . S
O97 C74 1.283 . S
O98 Mn72 2.094 . S
O98 C76 1.240 . S
O99 Mn73 2.117 . S
O99 C76 1.264 . S
C100 C93 1.403 . S
C100 C101 1.399 . S
C100 H106 0.929 . S
C101 C81 1.449 . S
C101 C100 1.399 . S
C101 H107 0.930 . S
H102 C82 0.931 . S
H103 C83 0.930 . S
H104 C91 0.931 . S
H105 C92 0.929 . S
H106 C100 0.929 . S
H107 C101 0.930 . S
Mn108 O113 2.095 . S
Mn108 O123 2.162 . S
Mn108 O124 2.297 . S
Mn108 O132 2.385 . S
Mn108 O133 2.209 . S
Mn108 O134 2.094 . S
Mn109 O114 2.121 . S
Mn109 N116 2.257 . S
Mn109 N125 2.282 . S
Mn109 O133 2.215 . S
Mn109 O135 2.117 . S
C110 O132 1.234 . S
C110 O133 1.283 . S
C111 O123 1.281 . S
C111 O124 1.236 . S
C112 O134 1.240 . S
C112 O135 1.264 . S
O113 Mn108 2.095 . S
O113 C122 1.250 . S
O114 Mn109 2.121 . S
O114 C122 1.258 . S
C115 N116 1.326 . S
C115 C119 1.460 . S
C115 H121 0.929 . S
N116 Mn109 2.257 . S
N116 C115 1.326 . S
N116 C120 1.362 . S
C117 C118 1.258 . S
C117 C120 1.431 . S
C117 C137 1.449 . S
C118 C117 1.258 . S
C118 C119 1.477 . S
C118 H138 0.931 . S
C119 C115 1.460 . S
C119 C118 1.477 . S
C119 H139 0.930 . S
C120 N116 1.362 . S
C120 C117 1.431 . S
C120 C130 1.476 . S
H121 C115 0.929 . S
C122 O113 1.250 . S
C122 O114 1.258 . S
O123 Mn108 2.162 . S
O123 C111 1.281 . S
O124 Mn108 2.297 . S
O124 C111 1.236 . S
N125 Mn109 2.282 . S
N125 C126 1.328 . S
N125 C130 1.318 . S
C126 N125 1.328 . S
C126 C127 1.457 . S
C126 H131 0.929 . S
C127 C126 1.457 . S
C127 C128 1.291 . S
C127 H140 0.931 . S
C128 C127 1.291 . S
C128 C129 1.373 . S
C128 H141 0.929 . S
C129 C128 1.373 . S
C129 C130 1.396 . S
C129 C136 1.403 . S
C130 C120 1.476 . S
C130 N125 1.318 . S
C130 C129 1.396 . S
H131 C126 0.929 . S
O132 Mn108 2.385 . S
O132 C110 1.234 . S
O133 Mn108 2.209 . S
O133 Mn109 2.215 . S
O133 C110 1.283 . S
O134 Mn108 2.094 . S
O134 C112 1.240 . S
O135 Mn109 2.117 . S
O135 C112 1.264 . S
C136 C129 1.403 . S
C136 C137 1.399 . S
C136 H142 0.929 . S
C137 C117 1.449 . S
C137 C136 1.399 . S
C137 H143 0.930 . S
H138 C118 0.931 . S
H139 C119 0.930 . S
H140 C127 0.931 . S
H141 C128 0.929 . S
H142 C136 0.929 . S
H143 C137 0.930 . S
Mn144 O149 2.095 . S
Mn144 O159 2.162 . S
Mn144 O160 2.297 . S
Mn144 O168 2.385 . S
Mn144 O169 2.209 . S
Mn144 O170 2.094 . S
Mn145 O150 2.121 . S
Mn145 N152 2.257 . S
Mn145 N161 2.282 . S
Mn145 O169 2.215 . S
Mn145 O171 2.117 . S
C146 O168 1.234 . S
C146 O169 1.283 . S
C147 O159 1.281 . S
C147 O160 1.236 . S
C148 O170 1.240 . S
C148 O171 1.264 . S
O149 Mn144 2.095 . S
O149 C158 1.250 . S
O150 Mn145 2.121 . S
O150 C158 1.258 . S
C151 N152 1.326 . S
C151 C155 1.460 . S
C151 H157 0.929 . S
N152 Mn145 2.257 . S
N152 C151 1.326 . S
N152 C156 1.362 . S
C153 C154 1.258 . S
C153 C156 1.431 . S
C153 C173 1.449 . S
C154 C153 1.258 . S
C154 C155 1.477 . S
C154 H174 0.931 . S
C155 C151 1.460 . S
C155 C154 1.477 . S
C155 H175 0.930 . S
C156 N152 1.362 . S
C156 C153 1.431 . S
C156 C166 1.476 . S
H157 C151 0.929 . S
C158 O149 1.250 . S
C158 O150 1.258 . S
O159 Mn144 2.162 . S
O159 C147 1.281 . S
O160 Mn144 2.297 . S
O160 C147 1.236 . S
N161 Mn145 2.282 . S
N161 C162 1.328 . S
N161 C166 1.318 . S
C162 N161 1.328 . S
C162 C163 1.457 . S
C162 H167 0.929 . S
C163 C162 1.457 . S
C163 C164 1.291 . S
C163 H176 0.931 . S
C164 C163 1.291 . S
C164 C165 1.373 . S
C164 H177 0.929 . S
C165 C164 1.373 . S
C165 C166 1.396 . S
C165 C172 1.403 . S
C166 C156 1.476 . S
C166 N161 1.318 . S
C166 C165 1.396 . S
H167 C162 0.929 . S
O168 Mn144 2.385 . S
O168 C146 1.234 . S
O169 Mn144 2.209 . S
O169 Mn145 2.215 . S
O169 C146 1.283 . S
O170 Mn144 2.094 . S
O170 C148 1.240 . S
O171 Mn145 2.117 . S
O171 C148 1.264 . S
C172 C165 1.403 . S
C172 C173 1.399 . S
C172 H178 0.929 . S
C173 C153 1.449 . S
C173 C172 1.399 . S
C173 H179 0.930 . S
H174 C154 0.931 . S
H175 C155 0.930 . S
H176 C163 0.931 . S
H177 C164 0.929 . S
H178 C172 0.929 . S
H179 C173 0.930 . S
Mn180 O185 2.095 . S
Mn180 O195 2.162 . S
Mn180 O196 2.297 . S
Mn180 O204 2.385 . S
Mn180 O205 2.209 . S
Mn180 O206 2.094 . S
Mn181 O186 2.121 . S
Mn181 N188 2.257 . S
Mn181 N197 2.282 . S
Mn181 O205 2.215 . S
Mn181 O207 2.117 . S
C182 O204 1.234 . S
C182 O205 1.283 . S
C183 O195 1.281 . S
C183 O196 1.236 . S
C184 O206 1.240 . S
C184 O207 1.264 . S
O185 Mn180 2.095 . S
O185 C194 1.250 . S
O186 Mn181 2.121 . S
O186 C194 1.258 . S
C187 N188 1.326 . S
C187 C191 1.460 . S
C187 H193 0.929 . S
N188 Mn181 2.257 . S
N188 C187 1.326 . S
N188 C192 1.362 . S
C189 C190 1.258 . S
C189 C192 1.431 . S
C189 C209 1.449 . S
C190 C189 1.258 . S
C190 C191 1.477 . S
C190 H210 0.931 . S
C191 C187 1.460 . S
C191 C190 1.477 . S
C191 H211 0.930 . S
C192 N188 1.362 . S
C192 C189 1.431 . S
C192 C202 1.476 . S
H193 C187 0.929 . S
C194 O185 1.250 . S
C194 O186 1.258 . S
O195 Mn180 2.162 . S
O195 C183 1.281 . S
O196 Mn180 2.297 . S
O196 C183 1.236 . S
N197 Mn181 2.282 . S
N197 C198 1.328 . S
N197 C202 1.318 . S
C198 N197 1.328 . S
C198 C199 1.457 . S
C198 H203 0.929 . S
C199 C198 1.457 . S
C199 C200 1.291 . S
C199 H212 0.931 . S
C200 C199 1.291 . S
C200 C201 1.373 . S
C200 H213 0.929 . S
C201 C200 1.373 . S
C201 C202 1.396 . S
C201 C208 1.403 . S
C202 C192 1.476 . S
C202 N197 1.318 . S
C202 C201 1.396 . S
H203 C198 0.929 . S
O204 Mn180 2.385 . S
O204 C182 1.234 . S
O205 Mn180 2.209 . S
O205 Mn181 2.215 . S
O205 C182 1.283 . S
O206 Mn180 2.094 . S
O206 C184 1.240 . S
O207 Mn181 2.117 . S
O207 C184 1.264 . S
C208 C201 1.403 . S
C208 C209 1.399 . S
C208 H214 0.929 . S
C209 C189 1.449 . S
C209 C208 1.399 . S
C209 H215 0.930 . S
H210 C190 0.931 . S
H211 C191 0.930 . S
H212 C199 0.931 . S
H213 C200 0.929 . S
H214 C208 0.929 . S
H215 C209 0.930 . S
Mn216 O221 2.095 . S
Mn216 O231 2.162 . S
Mn216 O232 2.297 . S
Mn216 O240 2.385 . S
Mn216 O241 2.209 . S
Mn216 O242 2.094 . S
Mn217 O222 2.121 . S
Mn217 N224 2.257 . S
Mn217 N233 2.282 . S
Mn217 O241 2.215 . S
Mn217 O243 2.117 . S
C218 O240 1.234 . S
C218 O241 1.283 . S
C219 O231 1.281 . S
C219 O232 1.236 . S
C220 O242 1.240 . S
C220 O243 1.264 . S
O221 Mn216 2.095 . S
O221 C230 1.250 . S
O222 Mn217 2.121 . S
O222 C230 1.258 . S
C223 N224 1.326 . S
C223 C227 1.460 . S
C223 H229 0.929 . S
N224 Mn217 2.257 . S
N224 C223 1.326 . S
N224 C228 1.362 . S
C225 C226 1.258 . S
C225 C228 1.431 . S
C225 C245 1.449 . S
C226 C225 1.258 . S
C226 C227 1.477 . S
C226 H246 0.931 . S
C227 C223 1.460 . S
C227 C226 1.477 . S
C227 H247 0.930 . S
C228 N224 1.362 . S
C228 C225 1.431 . S
C228 C238 1.476 . S
H229 C223 0.929 . S
C230 O221 1.250 . S
C230 O222 1.258 . S
O231 Mn216 2.162 . S
O231 C219 1.281 . S
O232 Mn216 2.297 . S
O232 C219 1.236 . S
N233 Mn217 2.282 . S
N233 C234 1.328 . S
N233 C238 1.318 . S
C234 N233 1.328 . S
C234 C235 1.457 . S
C234 H239 0.929 . S
C235 C234 1.457 . S
C235 C236 1.291 . S
C235 H248 0.931 . S
C236 C235 1.291 . S
C236 C237 1.373 . S
C236 H249 0.929 . S
C237 C236 1.373 . S
C237 C238 1.396 . S
C237 C244 1.403 . S
C238 C228 1.476 . S
C238 N233 1.318 . S
C238 C237 1.396 . S
H239 C234 0.929 . S
O240 Mn216 2.385 . S
O240 C218 1.234 . S
O241 Mn216 2.209 . S
O241 Mn217 2.215 . S
O241 C218 1.283 . S
O242 Mn216 2.094 . S
O242 C220 1.240 . S
O243 Mn217 2.117 . S
O243 C220 1.264 . S
C244 C237 1.403 . S
C244 C245 1.399 . S
C244 H250 0.929 . S
C245 C225 1.449 . S
C245 C244 1.399 . S
C245 H251 0.930 . S
H246 C226 0.931 . S
H247 C227 0.930 . S
H248 C235 0.931 . S
H249 C236 0.929 . S
H250 C244 0.929 . S
H251 C245 0.930 . S
Mn252 O257 2.095 . S
Mn252 O267 2.162 . S
Mn252 O268 2.297 . S
Mn252 O276 2.385 . S
Mn252 O277 2.209 . S
Mn252 O278 2.094 . S
Mn253 O258 2.121 . S
Mn253 N260 2.257 . S
Mn253 N269 2.282 . S
Mn253 O277 2.215 . S
Mn253 O279 2.117 . S
C254 O276 1.234 . S
C254 O277 1.283 . S
C255 O267 1.281 . S
C255 O268 1.236 . S
C256 O278 1.240 . S
C256 O279 1.264 . S
O257 Mn252 2.095 . S
O257 C266 1.250 . S
O258 Mn253 2.121 . S
O258 C266 1.258 . S
C259 N260 1.326 . S
C259 C263 1.460 . S
C259 H265 0.929 . S
N260 Mn253 2.257 . S
N260 C259 1.326 . S
N260 C264 1.362 . S
C261 C262 1.258 . S
C261 C264 1.431 . S
C261 C281 1.449 . S
C262 C261 1.258 . S
C262 C263 1.477 . S
C262 H282 0.931 . S
C263 C259 1.460 . S
C263 C262 1.477 . S
C263 H283 0.930 . S
C264 N260 1.362 . S
C264 C261 1.431 . S
C264 C274 1.476 . S
H265 C259 0.929 . S
C266 O257 1.250 . S
C266 O258 1.258 . S
O267 Mn252 2.162 . S
O267 C255 1.281 . S
O268 Mn252 2.297 . S
O268 C255 1.236 . S
N269 Mn253 2.282 . S
N269 C270 1.328 . S
N269 C274 1.318 . S
C270 N269 1.328 . S
C270 C271 1.457 . S
C270 H275 0.929 . S
C271 C270 1.457 . S
C271 C272 1.291 . S
C271 H284 0.931 . S
C272 C271 1.291 . S
C272 C273 1.373 . S
C272 H285 0.929 . S
C273 C272 1.373 . S
C273 C274 1.396 . S
C273 C280 1.403 . S
C274 C264 1.476 . S
C274 N269 1.318 . S
C274 C273 1.396 . S
H275 C270 0.929 . S
O276 Mn252 2.385 . S
O276 C254 1.234 . S
O277 Mn252 2.209 . S
O277 Mn253 2.215 . S
O277 C254 1.283 . S
O278 Mn252 2.094 . S
O278 C256 1.240 . S
O279 Mn253 2.117 . S
O279 C256 1.264 . S
C280 C273 1.403 . S
C280 C281 1.399 . S
C280 H286 0.929 . S
C281 C261 1.449 . S
C281 C280 1.399 . S
C281 H287 0.930 . S
H282 C262 0.931 . S
H283 C263 0.930 . S
H284 C271 0.931 . S
H285 C272 0.929 . S
H286 C280 0.929 . S
H287 C281 0.930 . S
Mn288 O293 2.095 . S
Mn288 O303 2.162 . S
Mn288 O304 2.297 . S
Mn288 O312 2.385 . S
Mn288 O313 2.209 . S
Mn288 O314 2.094 . S
Mn289 O294 2.121 . S
Mn289 N296 2.257 . S
Mn289 N305 2.282 . S
Mn289 O313 2.215 . S
Mn289 O315 2.117 . S
C290 O312 1.234 . S
C290 O313 1.283 . S
C291 O303 1.281 . S
C291 O304 1.236 . S
C292 O314 1.240 . S
C292 O315 1.264 . S
O293 Mn288 2.095 . S
O293 C302 1.250 . S
O294 Mn289 2.121 . S
O294 C302 1.258 . S
C295 N296 1.326 . S
C295 C299 1.460 . S
C295 H301 0.929 . S
N296 Mn289 2.257 . S
N296 C295 1.326 . S
N296 C300 1.362 . S
C297 C298 1.258 . S
C297 C300 1.431 . S
C297 C317 1.449 . S
C298 C297 1.258 . S
C298 C299 1.477 . S
C298 H318 0.931 . S
C299 C295 1.460 . S
C299 C298 1.477 . S
C299 H319 0.930 . S
C300 N296 1.362 . S
C300 C297 1.431 . S
C300 C310 1.476 . S
H301 C295 0.929 . S
C302 O293 1.250 . S
C302 O294 1.258 . S
O303 Mn288 2.162 . S
O303 C291 1.281 . S
O304 Mn288 2.297 . S
O304 C291 1.236 . S
N305 Mn289 2.282 . S
N305 C306 1.328 . S
N305 C310 1.318 . S
C306 N305 1.328 . S
C306 C307 1.457 . S
C306 H311 0.929 . S
C307 C306 1.457 . S
C307 C308 1.291 . S
C307 H320 0.931 . S
C308 C307 1.291 . S
C308 C309 1.373 . S
C308 H321 0.929 . S
C309 C308 1.373 . S
C309 C310 1.396 . S
C309 C316 1.403 . S
C310 C300 1.476 . S
C310 N305 1.318 . S
C310 C309 1.396 . S
H311 C306 0.929 . S
O312 Mn288 2.385 . S
O312 C290 1.234 . S
O313 Mn288 2.209 . S
O313 Mn289 2.215 . S
O313 C290 1.283 . S
O314 Mn288 2.094 . S
O314 C292 1.240 . S
O315 Mn289 2.117 . S
O315 C292 1.264 . S
C316 C309 1.403 . S
C316 C317 1.399 . S
C316 H322 0.929 . S
C317 C297 1.449 . S
C317 C316 1.399 . S
C317 H323 0.930 . S
H318 C298 0.931 . S
H319 C299 0.930 . S
H320 C307 0.931 . S
H321 C308 0.929 . S
H322 C316 0.929 . S
H323 C317 0.930 . S
Mn324 O329 2.095 . S
Mn324 O339 2.162 . S
Mn324 O340 2.297 . S
Mn324 O348 2.385 . S
Mn324 O349 2.209 . S
Mn324 O350 2.094 . S
Mn325 O330 2.121 . S
Mn325 N332 2.257 . S
Mn325 N341 2.282 . S
Mn325 O349 2.215 . S
Mn325 O351 2.117 . S
C326 O348 1.234 . S
C326 O349 1.283 . S
C327 O339 1.281 . S
C327 O340 1.236 . S
C328 O350 1.240 . S
C328 O351 1.264 . S
O329 Mn324 2.095 . S
O329 C338 1.250 . S
O330 Mn325 2.121 . S
O330 C338 1.258 . S
C331 N332 1.326 . S
C331 C335 1.460 . S
C331 H337 0.929 . S
N332 Mn325 2.257 . S
N332 C331 1.326 . S
N332 C336 1.362 . S
C333 C334 1.258 . S
C333 C336 1.431 . S
C333 C353 1.449 . S
C334 C333 1.258 . S
C334 C335 1.477 . S
C334 H354 0.931 . S
C335 C331 1.460 . S
C335 C334 1.477 . S
C335 H355 0.930 . S
C336 N332 1.362 . S
C336 C333 1.431 . S
C336 C346 1.476 . S
H337 C331 0.929 . S
C338 O329 1.250 . S
C338 O330 1.258 . S
O339 Mn324 2.162 . S
O339 C327 1.281 . S
O340 Mn324 2.297 . S
O340 C327 1.236 . S
N341 Mn325 2.282 . S
N341 C342 1.328 . S
N341 C346 1.318 . S
C342 N341 1.328 . S
C342 C343 1.457 . S
C342 H347 0.929 . S
C343 C342 1.457 . S
C343 C344 1.291 . S
C343 H356 0.931 . S
C344 C343 1.291 . S
C344 C345 1.373 . S
C344 H357 0.929 . S
C345 C344 1.373 . S
C345 C346 1.396 . S
C345 C352 1.403 . S
C346 C336 1.476 . S
C346 N341 1.318 . S
C346 C345 1.396 . S
H347 C342 0.929 . S
O348 Mn324 2.385 . S
O348 C326 1.234 . S
O349 Mn324 2.209 . S
O349 Mn325 2.215 . S
O349 C326 1.283 . S
O350 Mn324 2.094 . S
O350 C328 1.240 . S
O351 Mn325 2.117 . S
O351 C328 1.264 . S
C352 C345 1.403 . S
C352 C353 1.399 . S
C352 H358 0.929 . S
C353 C333 1.449 . S
C353 C352 1.399 . S
C353 H359 0.930 . S
H354 C334 0.931 . S
H355 C335 0.930 . S
H356 C343 0.931 . S
H357 C344 0.929 . S
H358 C352 0.929 . S
H359 C353 0.930 . S
Mn360 O365 2.095 . S
Mn360 O375 2.162 . S
Mn360 O376 2.297 . S
Mn360 O384 2.385 . S
Mn360 O385 2.209 . S
Mn360 O386 2.094 . S
Mn361 O366 2.121 . S
Mn361 N368 2.257 . S
Mn361 N377 2.282 . S
Mn361 O385 2.215 . S
Mn361 O387 2.117 . S
C362 O384 1.234 . S
C362 O385 1.283 . S
C363 O375 1.281 . S
C363 O376 1.236 . S
C364 O386 1.240 . S
C364 O387 1.264 . S
O365 Mn360 2.095 . S
O365 C374 1.250 . S
O366 Mn361 2.121 . S
O366 C374 1.258 . S
C367 N368 1.326 . S
C367 C371 1.460 . S
C367 H373 0.929 . S
N368 Mn361 2.257 . S
N368 C367 1.326 . S
N368 C372 1.362 . S
C369 C370 1.258 . S
C369 C372 1.431 . S
C369 C389 1.449 . S
C370 C369 1.258 . S
C370 C371 1.477 . S
C370 H390 0.931 . S
C371 C367 1.460 . S
C371 C370 1.477 . S
C371 H391 0.930 . S
C372 N368 1.362 . S
C372 C369 1.431 . S
C372 C382 1.476 . S
H373 C367 0.929 . S
C374 O365 1.250 . S
C374 O366 1.258 . S
O375 Mn360 2.162 . S
O375 C363 1.281 . S
O376 Mn360 2.297 . S
O376 C363 1.236 . S
N377 Mn361 2.282 . S
N377 C378 1.328 . S
N377 C382 1.318 . S
C378 N377 1.328 . S
C378 C379 1.457 . S
C378 H383 0.929 . S
C379 C378 1.457 . S
C379 C380 1.291 . S
C379 H392 0.931 . S
C380 C379 1.291 . S
C380 C381 1.373 . S
C380 H393 0.929 . S
C381 C380 1.373 . S
C381 C382 1.396 . S
C381 C388 1.403 . S
C382 C372 1.476 . S
C382 N377 1.318 . S
C382 C381 1.396 . S
H383 C378 0.929 . S
O384 Mn360 2.385 . S
O384 C362 1.234 . S
O385 Mn360 2.209 . S
O385 Mn361 2.215 . S
O385 C362 1.283 . S
O386 Mn360 2.094 . S
O386 C364 1.240 . S
O387 Mn361 2.117 . S
O387 C364 1.264 . S
C388 C381 1.403 . S
C388 C389 1.399 . S
C388 H394 0.929 . S
C389 C369 1.449 . S
C389 C388 1.399 . S
C389 H395 0.930 . S
H390 C370 0.931 . S
H391 C371 0.930 . S
H392 C379 0.931 . S
H393 C380 0.929 . S
H394 C388 0.929 . S
H395 C389 0.930 . S
Mn396 O401 2.095 . S
Mn396 O411 2.162 . S
Mn396 O412 2.297 . S
Mn396 O420 2.385 . S
Mn396 O421 2.209 . S
Mn396 O422 2.094 . S
Mn397 O402 2.121 . S
Mn397 N404 2.257 . S
Mn397 N413 2.282 . S
Mn397 O421 2.215 . S
Mn397 O423 2.117 . S
C398 O420 1.234 . S
C398 O421 1.283 . S
C399 O411 1.281 . S
C399 O412 1.236 . S
C400 O422 1.240 . S
C400 O423 1.264 . S
O401 Mn396 2.095 . S
O401 C410 1.250 . S
O402 Mn397 2.121 . S
O402 C410 1.258 . S
C403 N404 1.326 . S
C403 C407 1.460 . S
C403 H409 0.929 . S
N404 Mn397 2.257 . S
N404 C403 1.326 . S
N404 C408 1.362 . S
C405 C406 1.258 . S
C405 C408 1.431 . S
C405 C425 1.449 . S
C406 C405 1.258 . S
C406 C407 1.477 . S
C406 H426 0.931 . S
C407 C403 1.460 . S
C407 C406 1.477 . S
C407 H427 0.930 . S
C408 N404 1.362 . S
C408 C405 1.431 . S
C408 C418 1.476 . S
H409 C403 0.929 . S
C410 O401 1.250 . S
C410 O402 1.258 . S
O411 Mn396 2.162 . S
O411 C399 1.281 . S
O412 Mn396 2.297 . S
O412 C399 1.236 . S
N413 Mn397 2.282 . S
N413 C414 1.328 . S
N413 C418 1.318 . S
C414 N413 1.328 . S
C414 C415 1.457 . S
C414 H419 0.929 . S
C415 C414 1.457 . S
C415 C416 1.291 . S
C415 H428 0.931 . S
C416 C415 1.291 . S
C416 C417 1.373 . S
C416 H429 0.929 . S
C417 C416 1.373 . S
C417 C418 1.396 . S
C417 C424 1.403 . S
C418 C408 1.476 . S
C418 N413 1.318 . S
C418 C417 1.396 . S
H419 C414 0.929 . S
O420 Mn396 2.385 . S
O420 C398 1.234 . S
O421 Mn396 2.209 . S
O421 Mn397 2.215 . S
O421 C398 1.283 . S
O422 Mn396 2.094 . S
O422 C400 1.240 . S
O423 Mn397 2.117 . S
O423 C400 1.264 . S
C424 C417 1.403 . S
C424 C425 1.399 . S
C424 H430 0.929 . S
C425 C405 1.449 . S
C425 C424 1.399 . S
C425 H431 0.930 . S
H426 C406 0.931 . S
H427 C407 0.930 . S
H428 C415 0.931 . S
H429 C416 0.929 . S
H430 C424 0.929 . S
H431 C425 0.930 . S
Mn432 O437 2.095 . S
Mn432 O447 2.162 . S
Mn432 O448 2.297 . S
Mn432 O456 2.385 . S
Mn432 O457 2.209 . S
Mn432 O458 2.094 . S
Mn433 O438 2.121 . S
Mn433 N440 2.257 . S
Mn433 N449 2.282 . S
Mn433 O457 2.215 . S
Mn433 O459 2.117 . S
C434 O456 1.234 . S
C434 O457 1.283 . S
C435 O447 1.281 . S
C435 O448 1.236 . S
C436 O458 1.240 . S
C436 O459 1.264 . S
O437 Mn432 2.095 . S
O437 C446 1.250 . S
O438 Mn433 2.121 . S
O438 C446 1.258 . S
C439 N440 1.326 . S
C439 C443 1.460 . S
C439 H445 0.929 . S
N440 Mn433 2.257 . S
N440 C439 1.326 . S
N440 C444 1.362 . S
C441 C442 1.258 . S
C441 C444 1.431 . S
C441 C461 1.449 . S
C442 C441 1.258 . S
C442 C443 1.477 . S
C442 H462 0.931 . S
C443 C439 1.460 . S
C443 C442 1.477 . S
C443 H463 0.930 . S
C444 N440 1.362 . S
C444 C441 1.431 . S
C444 C454 1.476 . S
H445 C439 0.929 . S
C446 O437 1.250 . S
C446 O438 1.258 . S
O447 Mn432 2.162 . S
O447 C435 1.281 . S
O448 Mn432 2.297 . S
O448 C435 1.236 . S
N449 Mn433 2.282 . S
N449 C450 1.328 . S
N449 C454 1.318 . S
C450 N449 1.328 . S
C450 C451 1.457 . S
C450 H455 0.929 . S
C451 C450 1.457 . S
C451 C452 1.291 . S
C451 H464 0.931 . S
C452 C451 1.291 . S
C452 C453 1.373 . S
C452 H465 0.929 . S
C453 C452 1.373 . S
C453 C454 1.396 . S
C453 C460 1.403 . S
C454 C444 1.476 . S
C454 N449 1.318 . S
C454 C453 1.396 . S
H455 C450 0.929 . S
O456 Mn432 2.385 . S
O456 C434 1.234 . S
O457 Mn432 2.209 . S
O457 Mn433 2.215 . S
O457 C434 1.283 . S
O458 Mn432 2.094 . S
O458 C436 1.240 . S
O459 Mn433 2.117 . S
O459 C436 1.264 . S
C460 C453 1.403 . S
C460 C461 1.399 . S
C460 H466 0.929 . S
C461 C441 1.449 . S
C461 C460 1.399 . S
C461 H467 0.930 . S
H462 C442 0.931 . S
H463 C443 0.930 . S
H464 C451 0.931 . S
H465 C452 0.929 . S
H466 C460 0.929 . S
H467 C461 0.930 . S
Mn468 O473 2.095 . S
Mn468 O483 2.162 . S
Mn468 O484 2.297 . S
Mn468 O492 2.385 . S
Mn468 O493 2.209 . S
Mn468 O494 2.094 . S
Mn469 O474 2.121 . S
Mn469 N476 2.257 . S
Mn469 N485 2.282 . S
Mn469 O493 2.215 . S
Mn469 O495 2.117 . S
C470 O492 1.234 . S
C470 O493 1.283 . S
C471 O483 1.281 . S
C471 O484 1.236 . S
C472 O494 1.240 . S
C472 O495 1.264 . S
O473 Mn468 2.095 . S
O473 C482 1.250 . S
O474 Mn469 2.121 . S
O474 C482 1.258 . S
C475 N476 1.326 . S
C475 C479 1.460 . S
C475 H481 0.929 . S
N476 Mn469 2.257 . S
N476 C475 1.326 . S
N476 C480 1.362 . S
C477 C478 1.258 . S
C477 C480 1.431 . S
C477 C497 1.449 . S
C478 C477 1.258 . S
C478 C479 1.477 . S
C478 H498 0.931 . S
C479 C475 1.460 . S
C479 C478 1.477 . S
C479 H499 0.930 . S
C480 N476 1.362 . S
C480 C477 1.431 . S
C480 C490 1.476 . S
H481 C475 0.929 . S
C482 O473 1.250 . S
C482 O474 1.258 . S
O483 Mn468 2.162 . S
O483 C471 1.281 . S
O484 Mn468 2.297 . S
O484 C471 1.236 . S
N485 Mn469 2.282 . S
N485 C486 1.328 . S
N485 C490 1.318 . S
C486 N485 1.328 . S
C486 C487 1.457 . S
C486 H491 0.929 . S
C487 C486 1.457 . S
C487 C488 1.291 . S
C487 H500 0.931 . S
C488 C487 1.291 . S
C488 C489 1.373 . S
C488 H501 0.929 . S
C489 C488 1.373 . S
C489 C490 1.396 . S
C489 C496 1.403 . S
C490 C480 1.476 . S
C490 N485 1.318 . S
C490 C489 1.396 . S
H491 C486 0.929 . S
O492 Mn468 2.385 . S
O492 C470 1.234 . S
O493 Mn468 2.209 . S
O493 Mn469 2.215 . S
O493 C470 1.283 . S
O494 Mn468 2.094 . S
O494 C472 1.240 . S
O495 Mn469 2.117 . S
O495 C472 1.264 . S
C496 C489 1.403 . S
C496 C497 1.399 . S
C496 H502 0.929 . S
C497 C477 1.449 . S
C497 C496 1.399 . S
C497 H503 0.930 . S
H498 C478 0.931 . S
H499 C479 0.930 . S
H500 C487 0.931 . S
H501 C488 0.929 . S
H502 C496 0.929 . S
H503 C497 0.930 . S
Mn504 O509 2.095 . S
Mn504 O519 2.162 . S
Mn504 O520 2.297 . S
Mn504 O528 2.385 . S
Mn504 O529 2.209 . S
Mn504 O530 2.094 . S
Mn505 O510 2.121 . S
Mn505 N512 2.257 . S
Mn505 N521 2.282 . S
Mn505 O529 2.215 . S
Mn505 O531 2.117 . S
C506 O528 1.234 . S
C506 O529 1.283 . S
C507 O519 1.281 . S
C507 O520 1.236 . S
C508 O530 1.240 . S
C508 O531 1.264 . S
O509 Mn504 2.095 . S
O509 C518 1.250 . S
O510 Mn505 2.121 . S
O510 C518 1.258 . S
C511 N512 1.326 . S
C511 C515 1.460 . S
C511 H517 0.929 . S
N512 Mn505 2.257 . S
N512 C511 1.326 . S
N512 C516 1.362 . S
C513 C514 1.258 . S
C513 C516 1.431 . S
C513 C533 1.449 . S
C514 C513 1.258 . S
C514 C515 1.477 . S
C514 H534 0.931 . S
C515 C511 1.460 . S
C515 C514 1.477 . S
C515 H535 0.930 . S
C516 N512 1.362 . S
C516 C513 1.431 . S
C516 C526 1.476 . S
H517 C511 0.929 . S
C518 O509 1.250 . S
C518 O510 1.258 . S
O519 Mn504 2.162 . S
O519 C507 1.281 . S
O520 Mn504 2.297 . S
O520 C507 1.236 . S
N521 Mn505 2.282 . S
N521 C522 1.328 . S
N521 C526 1.318 . S
C522 N521 1.328 . S
C522 C523 1.457 . S
C522 H527 0.929 . S
C523 C522 1.457 . S
C523 C524 1.291 . S
C523 H536 0.931 . S
C524 C523 1.291 . S
C524 C525 1.373 . S
C524 H537 0.929 . S
C525 C524 1.373 . S
C525 C526 1.396 . S
C525 C532 1.403 . S
C526 C516 1.476 . S
C526 N521 1.318 . S
C526 C525 1.396 . S
H527 C522 0.929 . S
O528 Mn504 2.385 . S
O528 C506 1.234 . S
O529 Mn504 2.209 . S
O529 Mn505 2.215 . S
O529 C506 1.283 . S
O530 Mn504 2.094 . S
O530 C508 1.240 . S
O531 Mn505 2.117 . S
O531 C508 1.264 . S
C532 C525 1.403 . S
C532 C533 1.399 . S
C532 H538 0.929 . S
C533 C513 1.449 . S
C533 C532 1.399 . S
C533 H539 0.930 . S
H534 C514 0.931 . S
H535 C515 0.930 . S
H536 C523 0.931 . S
H537 C524 0.929 . S
H538 C532 0.929 . S
H539 C533 0.930 . S
Mn540 O545 2.095 . S
Mn540 O555 2.162 . S
Mn540 O556 2.297 . S
Mn540 O564 2.385 . S
Mn540 O565 2.209 . S
Mn540 O566 2.094 . S
Mn541 O546 2.121 . S
Mn541 N548 2.257 . S
Mn541 N557 2.282 . S
Mn541 O565 2.215 . S
Mn541 O567 2.117 . S
C542 O564 1.234 . S
C542 O565 1.283 . S
C543 O555 1.281 . S
C543 O556 1.236 . S
C544 O566 1.240 . S
C544 O567 1.264 . S
O545 Mn540 2.095 . S
O545 C554 1.250 . S
O546 Mn541 2.121 . S
O546 C554 1.258 . S
C547 N548 1.326 . S
C547 C551 1.460 . S
C547 H553 0.929 . S
N548 Mn541 2.257 . S
N548 C547 1.326 . S
N548 C552 1.362 . S
C549 C550 1.258 . S
C549 C552 1.431 . S
C549 C569 1.449 . S
C550 C549 1.258 . S
C550 C551 1.477 . S
C550 H570 0.931 . S
C551 C547 1.460 . S
C551 C550 1.477 . S
C551 H571 0.930 . S
C552 N548 1.362 . S
C552 C549 1.431 . S
C552 C562 1.476 . S
H553 C547 0.929 . S
C554 O545 1.250 . S
C554 O546 1.258 . S
O555 Mn540 2.162 . S
O555 C543 1.281 . S
O556 Mn540 2.297 . S
O556 C543 1.236 . S
N557 Mn541 2.282 . S
N557 C558 1.328 . S
N557 C562 1.318 . S
C558 N557 1.328 . S
C558 C559 1.457 . S
C558 H563 0.929 . S
C559 C558 1.457 . S
C559 C560 1.291 . S
C559 H572 0.931 . S
C560 C559 1.291 . S
C560 C561 1.373 . S
C560 H573 0.929 . S
C561 C560 1.373 . S
C561 C562 1.396 . S
C561 C568 1.403 . S
C562 C552 1.476 . S
C562 N557 1.318 . S
C562 C561 1.396 . S
H563 C558 0.929 . S
O564 Mn540 2.385 . S
O564 C542 1.234 . S
O565 Mn540 2.209 . S
O565 Mn541 2.215 . S
O565 C542 1.283 . S
O566 Mn540 2.094 . S
O566 C544 1.240 . S
O567 Mn541 2.117 . S
O567 C544 1.264 . S
C568 C561 1.403 . S
C568 C569 1.399 . S
C568 H574 0.929 . S
C569 C549 1.449 . S
C569 C568 1.399 . S
C569 H575 0.930 . S
H570 C550 0.931 . S
H571 C551 0.930 . S
H572 C559 0.931 . S
H573 C560 0.929 . S
H574 C568 0.929 . S
H575 C569 0.930 . S
H576 C594 0.951 . S
H577 C596 0.951 . S
H578 C598 0.950 . S
H579 C599 0.950 . S
H580 C601 0.950 . S
H581 C604 0.950 . S
H582 C605 0.950 . S
H583 C607 0.950 . S
H584 C608 0.950 . S
H585 C609 0.951 . S
H586 C611 0.951 . S
H587 C613 0.950 . S
H588 C614 0.950 . S
H589 C616 0.950 . S
H590 C619 0.950 . S
H591 C620 0.950 . S
H592 C622 0.950 . S
H593 C623 0.950 . S
C594 H576 0.951 . S
C594 C595 1.366 . S
C594 C596 1.388 . S
C595 C594 1.366 . S
C595 C599 1.385 . S
C596 H577 0.951 . S
C596 C594 1.388 . S
C596 C597 1.366 . S
C597 C596 1.366 . S
C597 C598 1.414 . S
C597 C600 1.499 . S
C598 H578 0.950 . S
C598 C597 1.414 . S
C598 C599 1.374 . S
C599 H579 0.950 . S
C599 C595 1.385 . S
C599 C598 1.374 . S
C600 C597 1.499 . S
C600 C601 1.373 . S
C600 C602 1.389 . S
C601 H580 0.950 . S
C601 C600 1.373 . S
C601 C617 1.377 . S
C602 C600 1.389 . S
C602 C603 1.524 . S
C602 C616 1.377 . S
C603 C602 1.524 . S
C603 C604 1.397 . S
C603 C608 1.363 . S
C604 H581 0.950 . S
C604 C603 1.397 . S
C604 C605 1.334 . S
C605 H582 0.950 . S
C605 C604 1.334 . S
C605 C606 1.287 . S
C606 C605 1.287 . S
C606 C607 1.524 . S
C606 H625 0.913 . S
C607 H583 0.950 . S
C607 C606 1.524 . S
C607 C608 1.415 . S
C608 H584 0.950 . S
C608 C603 1.363 . S
C608 C607 1.415 . S
C609 H585 0.951 . S
C609 C610 1.366 . S
C609 C611 1.388 . S
C610 C609 1.366 . S
C610 C614 1.385 . S
C611 H586 0.951 . S
C611 C609 1.388 . S
C611 C612 1.366 . S
C612 C611 1.366 . S
C612 C613 1.414 . S
C612 C615 1.499 . S
C613 H587 0.950 . S
C613 C612 1.414 . S
C613 C614 1.374 . S
C614 H588 0.950 . S
C614 C610 1.385 . S
C614 C613 1.374 . S
C615 C612 1.499 . S
C615 C616 1.373 . S
C615 C617 1.389 . S
C616 H589 0.950 . S
C616 C602 1.377 . S
C616 C615 1.373 . S
C617 C601 1.377 . S
C617 C615 1.389 . S
C617 C618 1.524 . S
C618 C617 1.524 . S
C618 C619 1.397 . S
C618 C623 1.363 . S
C619 H590 0.950 . S
C619 C618 1.397 . S
C619 C620 1.334 . S
C620 H591 0.950 . S
C620 C619 1.334 . S
C620 C621 1.287 . S
C621 C620 1.287 . S
C621 C622 1.524 . S
C621 H624 0.999 . S
C622 H592 0.950 . S
C622 C621 1.524 . S
C622 C623 1.415 . S
C623 H593 0.950 . S
C623 C618 1.363 . S
C623 C622 1.415 . S
H624 C621 0.999 . S
H625 C606 0.913 . S
H626 C644 0.951 . S
H627 C646 0.951 . S
H628 C648 0.950 . S
H629 C649 0.950 . S
H630 C651 0.950 . S
H631 C654 0.950 . S
H632 C655 0.950 . S
H633 C657 0.950 . S
H634 C658 0.950 . S
H635 C659 0.951 . S
H636 C661 0.951 . S
H637 C663 0.950 . S
H638 C664 0.950 . S
H639 C666 0.950 . S
H640 C669 0.950 . S
H641 C670 0.950 . S
H642 C672 0.950 . S
H643 C673 0.950 . S
C644 H626 0.951 . S
C644 C645 1.366 . S
C644 C646 1.388 . S
C645 C644 1.366 . S
C645 C649 1.385 . S
C646 H627 0.951 . S
C646 C644 1.388 . S
C646 C647 1.366 . S
C647 C646 1.366 . S
C647 C648 1.414 . S
C647 C650 1.499 . S
C648 H628 0.950 . S
C648 C647 1.414 . S
C648 C649 1.374 . S
C649 H629 0.950 . S
C649 C645 1.385 . S
C649 C648 1.374 . S
C650 C647 1.499 . S
C650 C651 1.373 . S
C650 C652 1.389 . S
C651 H630 0.950 . S
C651 C650 1.373 . S
C651 C667 1.377 . S
C652 C650 1.389 . S
C652 C653 1.524 . S
C652 C666 1.377 . S
C653 C652 1.524 . S
C653 C654 1.397 . S
C653 C658 1.363 . S
C654 H631 0.950 . S
C654 C653 1.397 . S
C654 C655 1.334 . S
C655 H632 0.950 . S
C655 C654 1.334 . S
C655 C656 1.287 . S
C656 C655 1.287 . S
C656 C657 1.524 . S
C656 H675 0.913 . S
C657 H633 0.950 . S
C657 C656 1.524 . S
C657 C658 1.415 . S
C658 H634 0.950 . S
C658 C653 1.363 . S
C658 C657 1.415 . S
C659 H635 0.951 . S
C659 C660 1.366 . S
C659 C661 1.388 . S
C660 C659 1.366 . S
C660 C664 1.385 . S
C661 H636 0.951 . S
C661 C659 1.388 . S
C661 C662 1.366 . S
C662 C661 1.366 . S
C662 C663 1.414 . S
C662 C665 1.499 . S
C663 H637 0.950 . S
C663 C662 1.414 . S
C663 C664 1.374 . S
C664 H638 0.950 . S
C664 C660 1.385 . S
C664 C663 1.374 . S
C665 C662 1.499 . S
C665 C666 1.373 . S
C665 C667 1.389 . S
C666 H639 0.950 . S
C666 C652 1.377 . S
C666 C665 1.373 . S
C667 C651 1.377 . S
C667 C665 1.389 . S
C667 C668 1.524 . S
C668 C667 1.524 . S
C668 C669 1.397 . S
C668 C673 1.363 . S
C669 H640 0.950 . S
C669 C668 1.397 . S
C669 C670 1.334 . S
C670 H641 0.950 . S
C670 C669 1.334 . S
C670 C671 1.287 . S
C671 C670 1.287 . S
C671 C672 1.524 . S
C671 H674 0.999 . S
C672 H642 0.950 . S
C672 C671 1.524 . S
C672 C673 1.415 . S
C673 H643 0.950 . S
C673 C668 1.363 . S
C673 C672 1.415 . S
H674 C671 0.999 . S
H675 C656 0.913 . S
H676 C694 0.951 . S
H677 C696 0.951 . S
H678 C698 0.950 . S
H679 C699 0.950 . S
H680 C701 0.950 . S
H681 C704 0.950 . S
H682 C705 0.950 . S
H683 C707 0.950 . S
H684 C708 0.950 . S
H685 C709 0.951 . S
H686 C711 0.951 . S
H687 C713 0.950 . S
H688 C714 0.950 . S
H689 C716 0.950 . S
H690 C719 0.950 . S
H691 C720 0.950 . S
H692 C722 0.950 . S
H693 C723 0.950 . S
C694 H676 0.951 . S
C694 C695 1.366 . S
C694 C696 1.388 . S
C695 C694 1.366 . S
C695 C699 1.385 . S
C696 H677 0.951 . S
C696 C694 1.388 . S
C696 C697 1.366 . S
C697 C696 1.366 . S
C697 C698 1.414 . S
C697 C700 1.499 . S
C698 H678 0.950 . S
C698 C697 1.414 . S
C698 C699 1.374 . S
C699 H679 0.950 . S
C699 C695 1.385 . S
C699 C698 1.374 . S
C700 C697 1.499 . S
C700 C701 1.373 . S
C700 C702 1.389 . S
C701 H680 0.950 . S
C701 C700 1.373 . S
C701 C717 1.377 . S
C702 C700 1.389 . S
C702 C703 1.524 . S
C702 C716 1.377 . S
C703 C702 1.524 . S
C703 C704 1.397 . S
C703 C708 1.363 . S
C704 H681 0.950 . S
C704 C703 1.397 . S
C704 C705 1.334 . S
C705 H682 0.950 . S
C705 C704 1.334 . S
C705 C706 1.287 . S
C706 C705 1.287 . S
C706 C707 1.524 . S
C706 H725 0.913 . S
C707 H683 0.950 . S
C707 C706 1.524 . S
C707 C708 1.415 . S
C708 H684 0.950 . S
C708 C703 1.363 . S
C708 C707 1.415 . S
C709 H685 0.951 . S
C709 C710 1.366 . S
C709 C711 1.388 . S
C710 C709 1.366 . S
C710 C714 1.385 . S
C711 H686 0.951 . S
C711 C709 1.388 . S
C711 C712 1.366 . S
C712 C711 1.366 . S
C712 C713 1.414 . S
C712 C715 1.499 . S
C713 H687 0.950 . S
C713 C712 1.414 . S
C713 C714 1.374 . S
C714 H688 0.950 . S
C714 C710 1.385 . S
C714 C713 1.374 . S
C715 C712 1.499 . S
C715 C716 1.373 . S
C715 C717 1.389 . S
C716 H689 0.950 . S
C716 C702 1.377 . S
C716 C715 1.373 . S
C717 C701 1.377 . S
C717 C715 1.389 . S
C717 C718 1.524 . S
C718 C717 1.524 . S
C718 C719 1.397 . S
C718 C723 1.363 . S
C719 H690 0.950 . S
C719 C718 1.397 . S
C719 C720 1.334 . S
C720 H691 0.950 . S
C720 C719 1.334 . S
C720 C721 1.287 . S
C721 C720 1.287 . S
C721 C722 1.524 . S
C721 H724 0.999 . S
C722 H692 0.950 . S
C722 C721 1.524 . S
C722 C723 1.415 . S
C723 H693 0.950 . S
C723 C718 1.363 . S
C723 C722 1.415 . S
H724 C721 0.999 . S
H725 C706 0.913 . S
H726 C744 0.951 . S
H727 C746 0.951 . S
H728 C748 0.950 . S
H729 C749 0.950 . S
H730 C751 0.950 . S
H731 C754 0.950 . S
H732 C755 0.950 . S
H733 C757 0.950 . S
H734 C758 0.950 . S
H735 C759 0.951 . S
H736 C761 0.951 . S
H737 C763 0.950 . S
H738 C764 0.950 . S
H739 C766 0.950 . S
H740 C769 0.950 . S
H741 C770 0.950 . S
H742 C772 0.950 . S
H743 C773 0.950 . S
C744 H726 0.951 . S
C744 C745 1.366 . S
C744 C746 1.388 . S
C745 C744 1.366 . S
C745 C749 1.385 . S
C746 H727 0.951 . S
C746 C744 1.388 . S
C746 C747 1.366 . S
C747 C746 1.366 . S
C747 C748 1.414 . S
C747 C750 1.499 . S
C748 H728 0.950 . S
C748 C747 1.414 . S
C748 C749 1.374 . S
C749 H729 0.950 . S
C749 C745 1.385 . S
C749 C748 1.374 . S
C750 C747 1.499 . S
C750 C751 1.373 . S
C750 C752 1.389 . S
C751 H730 0.950 . S
C751 C750 1.373 . S
C751 C767 1.377 . S
C752 C750 1.389 . S
C752 C753 1.524 . S
C752 C766 1.377 . S
C753 C752 1.524 . S
C753 C754 1.397 . S
C753 C758 1.363 . S
C754 H731 0.950 . S
C754 C753 1.397 . S
C754 C755 1.334 . S
C755 H732 0.950 . S
C755 C754 1.334 . S
C755 C756 1.287 . S
C756 C755 1.287 . S
C756 C757 1.524 . S
C756 H775 0.913 . S
C757 H733 0.950 . S
C757 C756 1.524 . S
C757 C758 1.415 . S
C758 H734 0.950 . S
C758 C753 1.363 . S
C758 C757 1.415 . S
C759 H735 0.951 . S
C759 C760 1.366 . S
C759 C761 1.388 . S
C760 C759 1.366 . S
C760 C764 1.385 . S
C761 H736 0.951 . S
C761 C759 1.388 . S
C761 C762 1.366 . S
C762 C761 1.366 . S
C762 C763 1.414 . S
C762 C765 1.499 . S
C763 H737 0.950 . S
C763 C762 1.414 . S
C763 C764 1.374 . S
C764 H738 0.950 . S
C764 C760 1.385 . S
C764 C763 1.374 . S
C765 C762 1.499 . S
C765 C766 1.373 . S
C765 C767 1.389 . S
C766 H739 0.950 . S
C766 C752 1.377 . S
C766 C765 1.373 . S
C767 C751 1.377 . S
C767 C765 1.389 . S
C767 C768 1.524 . S
C768 C767 1.524 . S
C768 C769 1.397 . S
C768 C773 1.363 . S
C769 H740 0.950 . S
C769 C768 1.397 . S
C769 C770 1.334 . S
C770 H741 0.950 . S
C770 C769 1.334 . S
C770 C771 1.287 . S
C771 C770 1.287 . S
C771 C772 1.524 . S
C771 H774 0.999 . S
C772 H742 0.950 . S
C772 C771 1.524 . S
C772 C773 1.415 . S
C773 H743 0.950 . S
C773 C768 1.363 . S
C773 C772 1.415 . S
H774 C771 0.999 . S
H775 C756 0.913 . S
H776 C794 0.951 . S
H777 C796 0.951 . S
H778 C798 0.950 . S
H779 C799 0.950 . S
H780 C801 0.950 . S
H781 C804 0.950 . S
H782 C805 0.950 . S
H783 C807 0.950 . S
H784 C808 0.950 . S
H785 C809 0.951 . S
H786 C811 0.951 . S
H787 C813 0.950 . S
H788 C814 0.950 . S
H789 C816 0.950 . S
H790 C819 0.950 . S
H791 C820 0.950 . S
H792 C822 0.950 . S
H793 C823 0.950 . S
C794 H776 0.951 . S
C794 C795 1.366 . S
C794 C796 1.388 . S
C795 C794 1.366 . S
C795 C799 1.385 . S
C796 H777 0.951 . S
C796 C794 1.388 . S
C796 C797 1.366 . S
C797 C796 1.366 . S
C797 C798 1.414 . S
C797 C800 1.499 . S
C798 H778 0.950 . S
C798 C797 1.414 . S
C798 C799 1.374 . S
C799 H779 0.950 . S
C799 C795 1.385 . S
C799 C798 1.374 . S
C800 C797 1.499 . S
C800 C801 1.373 . S
C800 C802 1.389 . S
C801 H780 0.950 . S
C801 C800 1.373 . S
C801 C817 1.377 . S
C802 C800 1.389 . S
C802 C803 1.524 . S
C802 C816 1.377 . S
C803 C802 1.524 . S
C803 C804 1.397 . S
C803 C808 1.363 . S
C804 H781 0.950 . S
C804 C803 1.397 . S
C804 C805 1.334 . S
C805 H782 0.950 . S
C805 C804 1.334 . S
C805 C806 1.287 . S
C806 C805 1.287 . S
C806 C807 1.524 . S
C806 H825 0.913 . S
C807 H783 0.950 . S
C807 C806 1.524 . S
C807 C808 1.415 . S
C808 H784 0.950 . S
C808 C803 1.363 . S
C808 C807 1.415 . S
C809 H785 0.951 . S
C809 C810 1.366 . S
C809 C811 1.388 . S
C810 C809 1.366 . S
C810 C814 1.385 . S
C811 H786 0.951 . S
C811 C809 1.388 . S
C811 C812 1.366 . S
C812 C811 1.366 . S
C812 C813 1.414 . S
C812 C815 1.499 . S
C813 H787 0.950 . S
C813 C812 1.414 . S
C813 C814 1.374 . S
C814 H788 0.950 . S
C814 C810 1.385 . S
C814 C813 1.374 . S
C815 C812 1.499 . S
C815 C816 1.373 . S
C815 C817 1.389 . S
C816 H789 0.950 . S
C816 C802 1.377 . S
C816 C815 1.373 . S
C817 C801 1.377 . S
C817 C815 1.389 . S
C817 C818 1.524 . S
C818 C817 1.524 . S
C818 C819 1.397 . S
C818 C823 1.363 . S
C819 H790 0.950 . S
C819 C818 1.397 . S
C819 C820 1.334 . S
C820 H791 0.950 . S
C820 C819 1.334 . S
C820 C821 1.287 . S
C821 C820 1.287 . S
C821 C822 1.524 . S
C821 H824 0.999 . S
C822 H792 0.950 . S
C822 C821 1.524 . S
C822 C823 1.415 . S
C823 H793 0.950 . S
C823 C818 1.363 . S
C823 C822 1.415 . S
H824 C821 0.999 . S
H825 C806 0.913 . S
H826 C844 0.951 . S
H827 C846 0.951 . S
H828 C848 0.950 . S
H829 C849 0.950 . S
H830 C851 0.950 . S
H831 C854 0.950 . S
H832 C855 0.950 . S
H833 C857 0.950 . S
H834 C858 0.950 . S
H835 C859 0.951 . S
H836 C861 0.951 . S
H837 C863 0.950 . S
H838 C864 0.950 . S
H839 C866 0.950 . S
H840 C869 0.950 . S
H841 C870 0.950 . S
H842 C872 0.950 . S
H843 C873 0.950 . S
C844 H826 0.951 . S
C844 C845 1.366 . S
C844 C846 1.388 . S
C845 C844 1.366 . S
C845 C849 1.385 . S
C846 H827 0.951 . S
C846 C844 1.388 . S
C846 C847 1.366 . S
C847 C846 1.366 . S
C847 C848 1.414 . S
C847 C850 1.499 . S
C848 H828 0.950 . S
C848 C847 1.414 . S
C848 C849 1.374 . S
C849 H829 0.950 . S
C849 C845 1.385 . S
C849 C848 1.374 . S
C850 C847 1.499 . S
C850 C851 1.373 . S
C850 C852 1.389 . S
C851 H830 0.950 . S
C851 C850 1.373 . S
C851 C867 1.377 . S
C852 C850 1.389 . S
C852 C853 1.524 . S
C852 C866 1.377 . S
C853 C852 1.524 . S
C853 C854 1.397 . S
C853 C858 1.363 . S
C854 H831 0.950 . S
C854 C853 1.397 . S
C854 C855 1.334 . S
C855 H832 0.950 . S
C855 C854 1.334 . S
C855 C856 1.287 . S
C856 C855 1.287 . S
C856 C857 1.524 . S
C856 H875 0.913 . S
C857 H833 0.950 . S
C857 C856 1.524 . S
C857 C858 1.415 . S
C858 H834 0.950 . S
C858 C853 1.363 . S
C858 C857 1.415 . S
C859 H835 0.951 . S
C859 C860 1.366 . S
C859 C861 1.388 . S
C860 C859 1.366 . S
C860 C864 1.385 . S
C861 H836 0.951 . S
C861 C859 1.388 . S
C861 C862 1.366 . S
C862 C861 1.366 . S
C862 C863 1.414 . S
C862 C865 1.499 . S
C863 H837 0.950 . S
C863 C862 1.414 . S
C863 C864 1.374 . S
C864 H838 0.950 . S
C864 C860 1.385 . S
C864 C863 1.374 . S
C865 C862 1.499 . S
C865 C866 1.373 . S
C865 C867 1.389 . S
C866 H839 0.950 . S
C866 C852 1.377 . S
C866 C865 1.373 . S
C867 C851 1.377 . S
C867 C865 1.389 . S
C867 C868 1.524 . S
C868 C867 1.524 . S
C868 C869 1.397 . S
C868 C873 1.363 . S
C869 H840 0.950 . S
C869 C868 1.397 . S
C869 C870 1.334 . S
C870 H841 0.950 . S
C870 C869 1.334 . S
C870 C871 1.287 . S
C871 C870 1.287 . S
C871 C872 1.524 . S
C871 H874 0.999 . S
C872 H842 0.950 . S
C872 C871 1.524 . S
C872 C873 1.415 . S
C873 H843 0.950 . S
C873 C868 1.363 . S
C873 C872 1.415 . S
H874 C871 0.999 . S
H875 C856 0.913 . S
H876 C894 0.951 . S
H877 C896 0.951 . S
H878 C898 0.950 . S
H879 C899 0.950 . S
H880 C901 0.950 . S
H881 C904 0.950 . S
H882 C905 0.950 . S
H883 C907 0.950 . S
H884 C908 0.950 . S
H885 C909 0.951 . S
H886 C911 0.951 . S
H887 C913 0.950 . S
H888 C914 0.950 . S
H889 C916 0.950 . S
H890 C919 0.950 . S
H891 C920 0.950 . S
H892 C922 0.950 . S
H893 C923 0.950 . S
C894 H876 0.951 . S
C894 C895 1.366 . S
C894 C896 1.388 . S
C895 C894 1.366 . S
C895 C899 1.385 . S
C896 H877 0.951 . S
C896 C894 1.388 . S
C896 C897 1.366 . S
C897 C896 1.366 . S
C897 C898 1.414 . S
C897 C900 1.499 . S
C898 H878 0.950 . S
C898 C897 1.414 . S
C898 C899 1.374 . S
C899 H879 0.950 . S
C899 C895 1.385 . S
C899 C898 1.374 . S
C900 C897 1.499 . S
C900 C901 1.373 . S
C900 C902 1.389 . S
C901 H880 0.950 . S
C901 C900 1.373 . S
C901 C917 1.377 . S
C902 C900 1.389 . S
C902 C903 1.524 . S
C902 C916 1.377 . S
C903 C902 1.524 . S
C903 C904 1.397 . S
C903 C908 1.363 . S
C904 H881 0.950 . S
C904 C903 1.397 . S
C904 C905 1.334 . S
C905 H882 0.950 . S
C905 C904 1.334 . S
C905 C906 1.287 . S
C906 C905 1.287 . S
C906 C907 1.524 . S
C906 H925 0.913 . S
C907 H883 0.950 . S
C907 C906 1.524 . S
C907 C908 1.415 . S
C908 H884 0.950 . S
C908 C903 1.363 . S
C908 C907 1.415 . S
C909 H885 0.951 . S
C909 C910 1.366 . S
C909 C911 1.388 . S
C910 C909 1.366 . S
C910 C914 1.385 . S
C911 H886 0.951 . S
C911 C909 1.388 . S
C911 C912 1.366 . S
C912 C911 1.366 . S
C912 C913 1.414 . S
C912 C915 1.499 . S
C913 H887 0.950 . S
C913 C912 1.414 . S
C913 C914 1.374 . S
C914 H888 0.950 . S
C914 C910 1.385 . S
C914 C913 1.374 . S
C915 C912 1.499 . S
C915 C916 1.373 . S
C915 C917 1.389 . S
C916 H889 0.950 . S
C916 C902 1.377 . S
C916 C915 1.373 . S
C917 C901 1.377 . S
C917 C915 1.389 . S
C917 C918 1.524 . S
C918 C917 1.524 . S
C918 C919 1.397 . S
C918 C923 1.363 . S
C919 H890 0.950 . S
C919 C918 1.397 . S
C919 C920 1.334 . S
C920 H891 0.950 . S
C920 C919 1.334 . S
C920 C921 1.287 . S
C921 C920 1.287 . S
C921 C922 1.524 . S
C921 H924 0.999 . S
C922 H892 0.950 . S
C922 C921 1.524 . S
C922 C923 1.415 . S
C923 H893 0.950 . S
C923 C918 1.363 . S
C923 C922 1.415 . S
H924 C921 0.999 . S
H925 C906 0.913 . S
H926 C944 0.951 . S
H927 C946 0.951 . S
H928 C948 0.950 . S
H929 C949 0.950 . S
H930 C951 0.950 . S
H931 C954 0.950 . S
H932 C955 0.950 . S
H933 C957 0.950 . S
H934 C958 0.950 . S
H935 C959 0.951 . S
H936 C961 0.951 . S
H937 C963 0.950 . S
H938 C964 0.950 . S
H939 C966 0.950 . S
H940 C969 0.950 . S
H941 C970 0.950 . S
H942 C972 0.950 . S
H943 C973 0.950 . S
C944 H926 0.951 . S
C944 C945 1.366 . S
C944 C946 1.388 . S
C945 C944 1.366 . S
C945 C949 1.385 . S
C946 H927 0.951 . S
C946 C944 1.388 . S
C946 C947 1.366 . S
C947 C946 1.366 . S
C947 C948 1.414 . S
C947 C950 1.499 . S
C948 H928 0.950 . S
C948 C947 1.414 . S
C948 C949 1.374 . S
C949 H929 0.950 . S
C949 C945 1.385 . S
C949 C948 1.374 . S
C950 C947 1.499 . S
C950 C951 1.373 . S
C950 C952 1.389 . S
C951 H930 0.950 . S
C951 C950 1.373 . S
C951 C967 1.377 . S
C952 C950 1.389 . S
C952 C953 1.524 . S
C952 C966 1.377 . S
C953 C952 1.524 . S
C953 C954 1.397 . S
C953 C958 1.363 . S
C954 H931 0.950 . S
C954 C953 1.397 . S
C954 C955 1.334 . S
C955 H932 0.950 . S
C955 C954 1.334 . S
C955 C956 1.287 . S
C956 C955 1.287 . S
C956 C957 1.524 . S
C956 H975 0.913 . S
C957 H933 0.950 . S
C957 C956 1.524 . S
C957 C958 1.415 . S
C958 H934 0.950 . S
C958 C953 1.363 . S
C958 C957 1.415 . S
C959 H935 0.951 . S
C959 C960 1.366 . S
C959 C961 1.388 . S
C960 C959 1.366 . S
C960 C964 1.385 . S
C961 H936 0.951 . S
C961 C959 1.388 . S
C961 C962 1.366 . S
C962 C961 1.366 . S
C962 C963 1.414 . S
C962 C965 1.499 . S
C963 H937 0.950 . S
C963 C962 1.414 . S
C963 C964 1.374 . S
C964 H938 0.950 . S
C964 C960 1.385 . S
C964 C963 1.374 . S
C965 C962 1.499 . S
C965 C966 1.373 . S
C965 C967 1.389 . S
C966 H939 0.950 . S
C966 C952 1.377 . S
C966 C965 1.373 . S
C967 C951 1.377 . S
C967 C965 1.389 . S
C967 C968 1.524 . S
C968 C967 1.524 . S
C968 C969 1.397 . S
C968 C973 1.363 . S
C969 H940 0.950 . S
C969 C968 1.397 . S
C969 C970 1.334 . S
C970 H941 0.950 . S
C970 C969 1.334 . S
C970 C971 1.287 . S
C971 C970 1.287 . S
C971 C972 1.524 . S
C971 H974 0.999 . S
C972 H942 0.950 . S
C972 C971 1.524 . S
C972 C973 1.415 . S
C973 H943 0.950 . S
C973 C968 1.363 . S
C973 C972 1.415 . S
H974 C971 0.999 . S
H975 C956 0.913 . S
H976 C994 0.951 . S
H977 C996 0.951 . S
H978 C998 0.950 . S
H979 C999 0.950 . S
H980 C1001 0.950 . S
H981 C1004 0.950 . S
H982 C1005 0.950 . S
H983 C1007 0.950 . S
H984 C1008 0.950 . S
H985 C1009 0.951 . S
H986 C1011 0.951 . S
H987 C1013 0.950 . S
H988 C1014 0.950 . S
H989 C1016 0.950 . S
H990 C1019 0.950 . S
H991 C1020 0.950 . S
H992 C1022 0.950 . S
H993 C1023 0.950 . S
C994 H976 0.951 . S
C994 C995 1.366 . S
C994 C996 1.388 . S
C995 C994 1.366 . S
C995 C999 1.385 . S
C996 H977 0.951 . S
C996 C994 1.388 . S
C996 C997 1.366 . S
C997 C996 1.366 . S
C997 C998 1.414 . S
C997 C1000 1.499 . S
C998 H978 0.950 . S
C998 C997 1.414 . S
C998 C999 1.374 . S
C999 H979 0.950 . S
C999 C995 1.385 . S
C999 C998 1.374 . S
C1000 C997 1.499 . S
C1000 C1001 1.373 . S
C1000 C1002 1.389 . S
C1001 H980 0.950 . S
C1001 C1000 1.373 . S
C1001 C1017 1.377 . S
C1002 C1000 1.389 . S
C1002 C1003 1.524 . S
C1002 C1016 1.377 . S
C1003 C1002 1.524 . S
C1003 C1004 1.397 . S
C1003 C1008 1.363 . S
C1004 H981 0.950 . S
C1004 C1003 1.397 . S
C1004 C1005 1.334 . S
C1005 H982 0.950 . S
C1005 C1004 1.334 . S
C1005 C1006 1.287 . S
C1006 C1005 1.287 . S
C1006 C1007 1.524 . S
C1006 H1025 0.913 . S
C1007 H983 0.950 . S
C1007 C1006 1.524 . S
C1007 C1008 1.415 . S
C1008 H984 0.950 . S
C1008 C1003 1.363 . S
C1008 C1007 1.415 . S
C1009 H985 0.951 . S
C1009 C1010 1.366 . S
C1009 C1011 1.388 . S
C1010 C1009 1.366 . S
C1010 C1014 1.385 . S
C1011 H986 0.951 . S
C1011 C1009 1.388 . S
C1011 C1012 1.366 . S
C1012 C1011 1.366 . S
C1012 C1013 1.414 . S
C1012 C1015 1.499 . S
C1013 H987 0.950 . S
C1013 C1012 1.414 . S
C1013 C1014 1.374 . S
C1014 H988 0.950 . S
C1014 C1010 1.385 . S
C1014 C1013 1.374 . S
C1015 C1012 1.499 . S
C1015 C1016 1.373 . S
C1015 C1017 1.389 . S
C1016 H989 0.950 . S
C1016 C1002 1.377 . S
C1016 C1015 1.373 . S
C1017 C1001 1.377 . S
C1017 C1015 1.389 . S
C1017 C1018 1.524 . S
C1018 C1017 1.524 . S
C1018 C1019 1.397 . S
C1018 C1023 1.363 . S
C1019 H990 0.950 . S
C1019 C1018 1.397 . S
C1019 C1020 1.334 . S
C1020 H991 0.950 . S
C1020 C1019 1.334 . S
C1020 C1021 1.287 . S
C1021 C1020 1.287 . S
C1021 C1022 1.524 . S
C1021 H1024 0.999 . S
C1022 H992 0.950 . S
C1022 C1021 1.524 . S
C1022 C1023 1.415 . S
C1023 H993 0.950 . S
C1023 C1018 1.363 . S
C1023 C1022 1.415 . S
H1024 C1021 0.999 . S
H1025 C1006 0.913 . S
H1026 C1044 0.951 . S
H1027 C1046 0.951 . S
H1028 C1048 0.950 . S
H1029 C1049 0.950 . S
H1030 C1051 0.950 . S
H1031 C1054 0.950 . S
H1032 C1055 0.950 . S
H1033 C1057 0.950 . S
H1034 C1058 0.950 . S
H1035 C1059 0.951 . S
H1036 C1061 0.951 . S
H1037 C1063 0.950 . S
H1038 C1064 0.950 . S
H1039 C1066 0.950 . S
H1040 C1069 0.950 . S
H1041 C1070 0.950 . S
H1042 C1072 0.950 . S
H1043 C1073 0.950 . S
C1044 H1026 0.951 . S
C1044 C1045 1.366 . S
C1044 C1046 1.388 . S
C1045 C1044 1.366 . S
C1045 C1049 1.385 . S
C1046 H1027 0.951 . S
C1046 C1044 1.388 . S
C1046 C1047 1.366 . S
C1047 C1046 1.366 . S
C1047 C1048 1.414 . S
C1047 C1050 1.499 . S
C1048 H1028 0.950 . S
C1048 C1047 1.414 . S
C1048 C1049 1.374 . S
C1049 H1029 0.950 . S
C1049 C1045 1.385 . S
C1049 C1048 1.374 . S
C1050 C1047 1.499 . S
C1050 C1051 1.373 . S
C1050 C1052 1.389 . S
C1051 H1030 0.950 . S
C1051 C1050 1.373 . S
C1051 C1067 1.377 . S
C1052 C1050 1.389 . S
C1052 C1053 1.524 . S
C1052 C1066 1.377 . S
C1053 C1052 1.524 . S
C1053 C1054 1.397 . S
C1053 C1058 1.363 . S
C1054 H1031 0.950 . S
C1054 C1053 1.397 . S
C1054 C1055 1.334 . S
C1055 H1032 0.950 . S
C1055 C1054 1.334 . S
C1055 C1056 1.287 . S
C1056 C1055 1.287 . S
C1056 C1057 1.524 . S
C1056 H1075 0.913 . S
C1057 H1033 0.950 . S
C1057 C1056 1.524 . S
C1057 C1058 1.415 . S
C1058 H1034 0.950 . S
C1058 C1053 1.363 . S
C1058 C1057 1.415 . S
C1059 H1035 0.951 . S
C1059 C1060 1.366 . S
C1059 C1061 1.388 . S
C1060 C1059 1.366 . S
C1060 C1064 1.385 . S
C1061 H1036 0.951 . S
C1061 C1059 1.388 . S
C1061 C1062 1.366 . S
C1062 C1061 1.366 . S
C1062 C1063 1.414 . S
C1062 C1065 1.499 . S
C1063 H1037 0.950 . S
C1063 C1062 1.414 . S
C1063 C1064 1.374 . S
C1064 H1038 0.950 . S
C1064 C1060 1.385 . S
C1064 C1063 1.374 . S
C1065 C1062 1.499 . S
C1065 C1066 1.373 . S
C1065 C1067 1.389 . S
C1066 H1039 0.950 . S
C1066 C1052 1.377 . S
C1066 C1065 1.373 . S
C1067 C1051 1.377 . S
C1067 C1065 1.389 . S
C1067 C1068 1.524 . S
C1068 C1067 1.524 . S
C1068 C1069 1.397 . S
C1068 C1073 1.363 . S
C1069 H1040 0.950 . S
C1069 C1068 1.397 . S
C1069 C1070 1.334 . S
C1070 H1041 0.950 . S
C1070 C1069 1.334 . S
C1070 C1071 1.287 . S
C1071 C1070 1.287 . S
C1071 C1072 1.524 . S
C1071 H1074 0.999 . S
C1072 H1042 0.950 . S
C1072 C1071 1.524 . S
C1072 C1073 1.415 . S
C1073 H1043 0.950 . S
C1073 C1068 1.363 . S
C1073 C1072 1.415 . S
H1074 C1071 0.999 . S
H1075 C1056 0.913 . S
H1076 C1094 0.951 . S
H1077 C1096 0.951 . S
H1078 C1098 0.950 . S
H1079 C1099 0.950 . S
H1080 C1101 0.950 . S
H1081 C1104 0.950 . S
H1082 C1105 0.950 . S
H1083 C1107 0.950 . S
H1084 C1108 0.950 . S
H1085 C1109 0.951 . S
H1086 C1111 0.951 . S
H1087 C1113 0.950 . S
H1088 C1114 0.950 . S
H1089 C1116 0.950 . S
H1090 C1119 0.950 . S
H1091 C1120 0.950 . S
H1092 C1122 0.950 . S
H1093 C1123 0.950 . S
C1094 H1076 0.951 . S
C1094 C1095 1.366 . S
C1094 C1096 1.388 . S
C1095 C1094 1.366 . S
C1095 C1099 1.385 . S
C1096 H1077 0.951 . S
C1096 C1094 1.388 . S
C1096 C1097 1.366 . S
C1097 C1096 1.366 . S
C1097 C1098 1.414 . S
C1097 C1100 1.499 . S
C1098 H1078 0.950 . S
C1098 C1097 1.414 . S
C1098 C1099 1.374 . S
C1099 H1079 0.950 . S
C1099 C1095 1.385 . S
C1099 C1098 1.374 . S
C1100 C1097 1.499 . S
C1100 C1101 1.373 . S
C1100 C1102 1.389 . S
C1101 H1080 0.950 . S
C1101 C1100 1.373 . S
C1101 C1117 1.377 . S
C1102 C1100 1.389 . S
C1102 C1103 1.524 . S
C1102 C1116 1.377 . S
C1103 C1102 1.524 . S
C1103 C1104 1.397 . S
C1103 C1108 1.363 . S
C1104 H1081 0.950 . S
C1104 C1103 1.397 . S
C1104 C1105 1.334 . S
C1105 H1082 0.950 . S
C1105 C1104 1.334 . S
C1105 C1106 1.287 . S
C1106 C1105 1.287 . S
C1106 C1107 1.524 . S
C1106 H1125 0.913 . S
C1107 H1083 0.950 . S
C1107 C1106 1.524 . S
C1107 C1108 1.415 . S
C1108 H1084 0.950 . S
C1108 C1103 1.363 . S
C1108 C1107 1.415 . S
C1109 H1085 0.951 . S
C1109 C1110 1.366 . S
C1109 C1111 1.388 . S
C1110 C1109 1.366 . S
C1110 C1114 1.385 . S
C1111 H1086 0.951 . S
C1111 C1109 1.388 . S
C1111 C1112 1.366 . S
C1112 C1111 1.366 . S
C1112 C1113 1.414 . S
C1112 C1115 1.499 . S
C1113 H1087 0.950 . S
C1113 C1112 1.414 . S
C1113 C1114 1.374 . S
C1114 H1088 0.950 . S
C1114 C1110 1.385 . S
C1114 C1113 1.374 . S
C1115 C1112 1.499 . S
C1115 C1116 1.373 . S
C1115 C1117 1.389 . S
C1116 H1089 0.950 . S
C1116 C1102 1.377 . S
C1116 C1115 1.373 . S
C1117 C1101 1.377 . S
C1117 C1115 1.389 . S
C1117 C1118 1.524 . S
C1118 C1117 1.524 . S
C1118 C1119 1.397 . S
C1118 C1123 1.363 . S
C1119 H1090 0.950 . S
C1119 C1118 1.397 . S
C1119 C1120 1.334 . S
C1120 H1091 0.950 . S
C1120 C1119 1.334 . S
C1120 C1121 1.287 . S
C1121 C1120 1.287 . S
C1121 C1122 1.524 . S
C1121 H1124 0.999 . S
C1122 H1092 0.950 . S
C1122 C1121 1.524 . S
C1122 C1123 1.415 . S
C1123 H1093 0.950 . S
C1123 C1118 1.363 . S
C1123 C1122 1.415 . S
H1124 C1121 0.999 . S
H1125 C1106 0.913 . S
H1126 C1144 0.951 . S
H1127 C1146 0.951 . S
H1128 C1148 0.950 . S
H1129 C1149 0.950 . S
H1130 C1151 0.950 . S
H1131 C1154 0.950 . S
H1132 C1155 0.950 . S
H1133 C1157 0.950 . S
H1134 C1158 0.950 . S
H1135 C1159 0.951 . S
H1136 C1161 0.951 . S
H1137 C1163 0.950 . S
H1138 C1164 0.950 . S
H1139 C1166 0.950 . S
H1140 C1169 0.950 . S
H1141 C1170 0.950 . S
H1142 C1172 0.950 . S
H1143 C1173 0.950 . S
C1144 H1126 0.951 . S
C1144 C1145 1.366 . S
C1144 C1146 1.388 . S
C1145 C1144 1.366 . S
C1145 C1149 1.385 . S
C1146 H1127 0.951 . S
C1146 C1144 1.388 . S
C1146 C1147 1.366 . S
C1147 C1146 1.366 . S
C1147 C1148 1.414 . S
C1147 C1150 1.499 . S
C1148 H1128 0.950 . S
C1148 C1147 1.414 . S
C1148 C1149 1.374 . S
C1149 H1129 0.950 . S
C1149 C1145 1.385 . S
C1149 C1148 1.374 . S
C1150 C1147 1.499 . S
C1150 C1151 1.373 . S
C1150 C1152 1.389 . S
C1151 H1130 0.950 . S
C1151 C1150 1.373 . S
C1151 C1167 1.377 1_554 S
C1152 C1150 1.389 . S
C1152 C1153 1.524 . S
C1152 C1166 1.377 1_554 S
C1153 C1152 1.524 . S
C1153 C1154 1.397 . S
C1153 C1158 1.363 1_554 S
C1154 H1131 0.950 . S
C1154 C1153 1.397 . S
C1154 C1155 1.334 . S
C1155 H1132 0.950 . S
C1155 C1154 1.334 . S
C1155 C1156 1.287 . S
C1156 C1155 1.287 . S
C1156 C1157 1.524 1_554 S
C1156 H1175 0.913 . S
C1157 H1133 0.950 . S
C1157 C1156 1.524 1_556 S
C1157 C1158 1.415 . S
C1158 H1134 0.950 . S
C1158 C1153 1.363 1_556 S
C1158 C1157 1.415 . S
C1159 H1135 0.951 . S
C1159 C1160 1.366 . S
C1159 C1161 1.388 . S
C1160 C1159 1.366 . S
C1160 C1164 1.385 . S
C1161 H1136 0.951 . S
C1161 C1159 1.388 . S
C1161 C1162 1.366 . S
C1162 C1161 1.366 . S
C1162 C1163 1.414 . S
C1162 C1165 1.499 . S
C1163 H1137 0.950 . S
C1163 C1162 1.414 . S
C1163 C1164 1.374 . S
C1164 H1138 0.950 . S
C1164 C1160 1.385 . S
C1164 C1163 1.374 . S
C1165 C1162 1.499 . S
C1165 C1166 1.373 . S
C1165 C1167 1.389 . S
C1166 H1139 0.950 . S
C1166 C1152 1.377 1_556 S
C1166 C1165 1.373 . S
C1167 C1151 1.377 1_556 S
C1167 C1165 1.389 . S
C1167 C1168 1.524 . S
C1168 C1167 1.524 . S
C1168 C1169 1.397 . S
C1168 C1173 1.363 1_556 S
C1169 H1140 0.950 . S
C1169 C1168 1.397 . S
C1169 C1170 1.334 . S
C1170 H1141 0.950 . S
C1170 C1169 1.334 . S
C1170 C1171 1.287 . S
C1171 C1170 1.287 . S
C1171 C1172 1.524 1_556 S
C1171 H1174 0.999 . S
C1172 H1142 0.950 . S
C1172 C1171 1.524 1_554 S
C1172 C1173 1.415 . S
C1173 H1143 0.950 . S
C1173 C1168 1.363 1_554 S
C1173 C1172 1.415 . S
H1174 C1171 0.999 . S
H1175 C1156 0.913 . S
H1176 C1194 0.951 . S
H1177 C1196 0.951 . S
H1178 C1198 0.950 . S
H1179 C1199 0.950 . S
H1180 C1201 0.950 . S
H1181 C1204 0.950 . S
H1182 C1205 0.950 . S
H1183 C1207 0.950 . S
H1184 C1208 0.991 . S
H1185 C1209 0.951 . S
H1186 C1211 0.951 . S
H1187 C1213 0.950 . S
H1188 C1214 0.950 . S
H1189 C1216 0.950 . S
H1190 C1219 0.950 . S
H1191 C1220 0.950 . S
H1192 C1222 0.950 . S
H1193 C1223 0.991 . S
C1194 H1176 0.951 . S
C1194 C1195 1.366 . S
C1194 C1196 1.388 . S
C1195 C1194 1.366 . S
C1195 C1199 1.385 . S
C1196 H1177 0.951 . S
C1196 C1194 1.388 . S
C1196 C1197 1.366 . S
C1197 C1196 1.366 . S
C1197 C1198 1.414 . S
C1197 C1200 1.499 . S
C1198 H1178 0.950 . S
C1198 C1197 1.414 . S
C1198 C1199 1.374 . S
C1199 H1179 0.950 . S
C1199 C1195 1.385 . S
C1199 C1198 1.374 . S
C1200 C1197 1.499 . S
C1200 C1201 1.373 . S
C1200 C1202 1.389 . S
C1201 H1180 0.950 . S
C1201 C1200 1.373 . S
C1201 C1217 1.377 1_554 S
C1202 C1200 1.389 . S
C1202 C1203 1.524 . S
C1202 C1216 1.377 1_554 S
C1203 C1202 1.524 . S
C1203 C1204 1.397 . S
C1203 C1208 1.363 . S
C1204 H1181 0.950 . S
C1204 C1203 1.397 . S
C1204 C1205 1.334 . S
C1205 H1182 0.950 . S
C1205 C1204 1.334 . S
C1205 C1206 1.287 . S
C1206 C1205 1.287 . S
C1206 C1207 1.524 . S
C1206 H1225 0.913 . S
C1207 H1183 0.950 . S
C1207 C1206 1.524 . S
C1207 C1208 1.415 . S
C1208 H1184 0.991 . S
C1208 C1203 1.363 . S
C1208 C1207 1.415 . S
C1209 H1185 0.951 . S
C1209 C1210 1.366 . S
C1209 C1211 1.388 . S
C1210 C1209 1.366 . S
C1210 C1214 1.385 . S
C1211 H1186 0.951 . S
C1211 C1209 1.388 . S
C1211 C1212 1.366 . S
C1212 C1211 1.366 . S
C1212 C1213 1.414 . S
C1212 C1215 1.499 . S
C1213 H1187 0.950 . S
C1213 C1212 1.414 . S
C1213 C1214 1.374 . S
C1214 H1188 0.950 . S
C1214 C1210 1.385 . S
C1214 C1213 1.374 . S
C1215 C1212 1.499 . S
C1215 C1216 1.373 . S
C1215 C1217 1.389 . S
C1216 H1189 0.950 . S
C1216 C1202 1.377 1_556 S
C1216 C1215 1.373 . S
C1217 C1201 1.377 1_556 S
C1217 C1215 1.389 . S
C1217 C1218 1.524 . S
C1218 C1217 1.524 . S
C1218 C1219 1.397 . S
C1218 C1223 1.363 . S
C1219 H1190 0.950 . S
C1219 C1218 1.397 . S
C1219 C1220 1.334 . S
C1220 H1191 0.950 . S
C1220 C1219 1.334 . S
C1220 C1221 1.287 . S
C1221 C1220 1.287 . S
C1221 C1222 1.524 . S
C1221 H1224 0.999 . S
C1222 H1192 0.950 . S
C1222 C1221 1.524 . S
C1222 C1223 1.415 . S
C1223 H1193 0.991 . S
C1223 C1218 1.363 . S
C1223 C1222 1.415 . S
H1224 C1221 0.999 . S
H1225 C1206 0.913 . S
H1226 C1244 0.951 . S
H1227 C1246 0.951 . S
H1228 C1248 0.950 . S
H1229 C1249 0.950 . S
H1230 C1251 0.950 . S
H1231 C1254 0.950 . S
H1232 C1255 0.950 . S
H1233 C1257 0.950 . S
H1234 C1258 0.950 . S
H1235 C1259 0.951 . S
H1236 C1261 0.951 . S
H1237 C1263 0.950 . S
H1238 C1264 0.950 . S
H1239 C1266 0.950 . S
H1240 C1269 0.950 . S
H1241 C1270 0.950 . S
H1242 C1272 0.950 . S
H1243 C1273 0.950 . S
C1244 H1226 0.951 . S
C1244 C1245 1.366 . S
C1244 C1246 1.388 . S
C1245 C1244 1.366 . S
C1245 C1249 1.385 . S
C1246 H1227 0.951 . S
C1246 C1244 1.388 . S
C1246 C1247 1.366 . S
C1247 C1246 1.366 . S
C1247 C1248 1.414 . S
C1247 C1250 1.499 . S
C1248 H1228 0.950 . S
C1248 C1247 1.414 . S
C1248 C1249 1.374 . S
C1249 H1229 0.950 . S
C1249 C1245 1.385 . S
C1249 C1248 1.374 . S
C1250 C1247 1.499 . S
C1250 C1251 1.373 . S
C1250 C1252 1.389 . S
C1251 H1230 0.950 . S
C1251 C1250 1.373 . S
C1251 C1267 1.377 . S
C1252 C1250 1.389 . S
C1252 C1253 1.524 . S
C1252 C1266 1.377 . S
C1253 C1252 1.524 . S
C1253 C1254 1.397 . S
C1253 C1258 1.363 . S
C1254 H1231 0.950 . S
C1254 C1253 1.397 . S
C1254 C1255 1.334 . S
C1255 H1232 0.950 . S
C1255 C1254 1.334 . S
C1255 C1256 1.287 . S
C1256 C1255 1.287 . S
C1256 C1257 1.524 . S
C1256 H1275 0.913 . S
C1257 H1233 0.950 . S
C1257 C1256 1.524 . S
C1257 C1258 1.415 . S
C1258 H1234 0.950 . S
C1258 C1253 1.363 . S
C1258 C1257 1.415 . S
C1259 H1235 0.951 . S
C1259 C1260 1.366 . S
C1259 C1261 1.388 . S
C1260 C1259 1.366 . S
C1260 C1264 1.385 . S
C1261 H1236 0.951 . S
C1261 C1259 1.388 . S
C1261 C1262 1.366 . S
C1262 C1261 1.366 . S
C1262 C1263 1.414 . S
C1262 C1265 1.499 . S
C1263 H1237 0.950 . S
C1263 C1262 1.414 . S
C1263 C1264 1.374 . S
C1264 H1238 0.950 . S
C1264 C1260 1.385 . S
C1264 C1263 1.374 . S
C1265 C1262 1.499 . S
C1265 C1266 1.373 . S
C1265 C1267 1.389 . S
C1266 H1239 0.950 . S
C1266 C1252 1.377 . S
C1266 C1265 1.373 . S
C1267 C1251 1.377 . S
C1267 C1265 1.389 . S
C1267 C1268 1.524 . S
C1268 C1267 1.524 . S
C1268 C1269 1.397 . S
C1268 C1273 1.363 . S
C1269 H1240 0.950 . S
C1269 C1268 1.397 . S
C1269 C1270 1.334 . S
C1270 H1241 0.950 . S
C1270 C1269 1.334 . S
C1270 C1271 1.287 . S
C1271 C1270 1.287 . S
C1271 C1272 1.524 . S
C1271 H1274 0.999 . S
C1272 H1242 0.950 . S
C1272 C1271 1.524 . S
C1272 C1273 1.415 . S
C1273 H1243 0.950 . S
C1273 C1268 1.363 . S
C1273 C1272 1.415 . S
H1274 C1271 0.999 . S
H1275 C1256 0.913 . S
H1276 C1294 0.951 . S
H1277 C1296 0.951 . S
H1278 C1298 0.950 . S
H1279 C1299 0.950 . S
H1280 C1301 0.950 . S
H1281 C1304 0.950 . S
H1282 C1305 0.950 . S
H1283 C1307 0.950 . S
H1284 C1308 0.950 . S
H1285 C1309 0.951 . S
H1286 C1311 0.951 . S
H1287 C1313 0.950 . S
H1288 C1314 0.950 . S
H1289 C1316 0.950 . S
H1290 C1319 0.950 . S
H1291 C1320 0.950 . S
H1292 C1322 0.950 . S
H1293 C1323 0.950 . S
C1294 H1276 0.951 . S
C1294 C1295 1.366 . S
C1294 C1296 1.388 . S
C1295 C1294 1.366 . S
C1295 C1299 1.385 . S
C1296 H1277 0.951 . S
C1296 C1294 1.388 . S
C1296 C1297 1.366 . S
C1297 C1296 1.366 . S
C1297 C1298 1.414 . S
C1297 C1300 1.499 . S
C1298 H1278 0.950 . S
C1298 C1297 1.414 . S
C1298 C1299 1.374 . S
C1299 H1279 0.950 . S
C1299 C1295 1.385 . S
C1299 C1298 1.374 . S
C1300 C1297 1.499 . S
C1300 C1301 1.373 . S
C1300 C1302 1.389 . S
C1301 H1280 0.950 . S
C1301 C1300 1.373 . S
C1301 C1317 1.377 . S
C1302 C1300 1.389 . S
C1302 C1303 1.524 . S
C1302 C1316 1.377 . S
C1303 C1302 1.524 . S
C1303 C1304 1.397 . S
C1303 C1308 1.363 . S
C1304 H1281 0.950 . S
C1304 C1303 1.397 . S
C1304 C1305 1.334 . S
C1305 H1282 0.950 . S
C1305 C1304 1.334 . S
C1305 C1306 1.287 . S
C1306 C1305 1.287 . S
C1306 C1307 1.524 . S
C1306 H1325 0.913 . S
C1307 H1283 0.950 . S
C1307 C1306 1.524 . S
C1307 C1308 1.415 . S
C1308 H1284 0.950 . S
C1308 C1303 1.363 . S
C1308 C1307 1.415 . S
C1309 H1285 0.951 . S
C1309 C1310 1.366 . S
C1309 C1311 1.388 . S
C1310 C1309 1.366 . S
C1310 C1314 1.385 . S
C1311 H1286 0.951 . S
C1311 C1309 1.388 . S
C1311 C1312 1.366 . S
C1312 C1311 1.366 . S
C1312 C1313 1.414 . S
C1312 C1315 1.499 . S
C1313 H1287 0.950 . S
C1313 C1312 1.414 . S
C1313 C1314 1.374 . S
C1314 H1288 0.950 . S
C1314 C1310 1.385 . S
C1314 C1313 1.374 . S
C1315 C1312 1.499 . S
C1315 C1316 1.373 . S
C1315 C1317 1.389 . S
C1316 H1289 0.950 . S
C1316 C1302 1.377 . S
C1316 C1315 1.373 . S
C1317 C1301 1.377 . S
C1317 C1315 1.389 . S
C1317 C1318 1.524 . S
C1318 C1317 1.524 . S
C1318 C1319 1.397 . S
C1318 C1323 1.363 . S
C1319 H1290 0.950 . S
C1319 C1318 1.397 . S
C1319 C1320 1.334 . S
C1320 H1291 0.950 . S
C1320 C1319 1.334 . S
C1320 C1321 1.287 . S
C1321 C1320 1.287 . S
C1321 C1322 1.524 . S
C1321 H1324 0.999 . S
C1322 H1292 0.950 . S
C1322 C1321 1.524 . S
C1322 C1323 1.415 . S
C1323 H1293 0.950 . S
C1323 C1318 1.363 . S
C1323 C1322 1.415 . S
H1324 C1321 0.999 . S
H1325 C1306 0.913 . S
H1326 C1344 0.951 . S
H1327 C1346 0.951 . S
H1328 C1348 0.950 . S
H1329 C1349 0.950 . S
H1330 C1351 0.950 . S
H1331 C1354 0.950 . S
H1332 C1355 0.950 . S
H1333 C1357 0.950 . S
H1334 C1358 0.950 . S
H1335 C1359 0.951 . S
H1336 C1361 0.951 . S
H1337 C1363 0.950 . S
H1338 C1364 0.950 . S
H1339 C1366 0.950 . S
H1340 C1369 0.950 . S
H1341 C1370 0.950 . S
H1342 C1372 0.950 . S
H1343 C1373 0.950 . S
C1344 H1326 0.951 . S
C1344 C1345 1.366 . S
C1344 C1346 1.388 . S
C1345 C1344 1.366 . S
C1345 C1349 1.385 . S
C1346 H1327 0.951 . S
C1346 C1344 1.388 . S
C1346 C1347 1.366 . S
C1347 C1346 1.366 . S
C1347 C1348 1.414 . S
C1347 C1350 1.499 . S
C1348 H1328 0.950 . S
C1348 C1347 1.414 . S
C1348 C1349 1.374 . S
C1349 H1329 0.950 . S
C1349 C1345 1.385 . S
C1349 C1348 1.374 . S
C1350 C1347 1.499 . S
C1350 C1351 1.373 . S
C1350 C1352 1.389 . S
C1351 H1330 0.950 . S
C1351 C1350 1.373 . S
C1351 C1367 1.377 . S
C1352 C1350 1.389 . S
C1352 C1353 1.524 . S
C1352 C1366 1.377 . S
C1353 C1352 1.524 . S
C1353 C1354 1.397 . S
C1353 C1358 1.363 . S
C1354 H1331 0.950 . S
C1354 C1353 1.397 . S
C1354 C1355 1.334 . S
C1355 H1332 0.950 . S
C1355 C1354 1.334 . S
C1355 C1356 1.287 . S
C1356 C1355 1.287 . S
C1356 C1357 1.524 . S
C1356 H1375 0.913 . S
C1357 H1333 0.950 . S
C1357 C1356 1.524 . S
C1357 C1358 1.415 . S
C1358 H1334 0.950 . S
C1358 C1353 1.363 . S
C1358 C1357 1.415 . S
C1359 H1335 0.951 . S
C1359 C1360 1.366 . S
C1359 C1361 1.388 . S
C1360 C1359 1.366 . S
C1360 C1364 1.385 . S
C1361 H1336 0.951 . S
C1361 C1359 1.388 . S
C1361 C1362 1.366 . S
C1362 C1361 1.366 . S
C1362 C1363 1.414 . S
C1362 C1365 1.499 . S
C1363 H1337 0.950 . S
C1363 C1362 1.414 . S
C1363 C1364 1.374 . S
C1364 H1338 0.950 . S
C1364 C1360 1.385 . S
C1364 C1363 1.374 . S
C1365 C1362 1.499 . S
C1365 C1366 1.373 . S
C1365 C1367 1.389 . S
C1366 H1339 0.950 . S
C1366 C1352 1.377 . S
C1366 C1365 1.373 . S
C1367 C1351 1.377 . S
C1367 C1365 1.389 . S
C1367 C1368 1.524 . S
C1368 C1367 1.524 . S
C1368 C1369 1.397 . S
C1368 C1373 1.363 . S
C1369 H1340 0.950 . S
C1369 C1368 1.397 . S
C1369 C1370 1.334 . S
C1370 H1341 0.950 . S
C1370 C1369 1.334 . S
C1370 C1371 1.287 . S
C1371 C1370 1.287 . S
C1371 C1372 1.524 . S
C1371 H1374 0.999 . S
C1372 H1342 0.950 . S
C1372 C1371 1.524 . S
C1372 C1373 1.415 . S
C1373 H1343 0.950 . S
C1373 C1368 1.363 . S
C1373 C1372 1.415 . S
H1374 C1371 0.999 . S
H1375 C1356 0.913 . S
H1376 C1394 0.951 . S
H1377 C1396 0.951 . S
H1378 C1398 0.950 1_565 S
H1379 C1399 0.950 . S
H1380 C1401 0.950 . S
H1381 C1404 0.950 . S
H1382 C1405 0.950 . S
H1383 C1407 0.950 . S
H1384 C1408 0.950 . S
H1385 C1409 0.951 . S
H1386 C1411 0.951 . S
H1387 C1413 0.950 1_545 S
H1388 C1414 0.950 . S
H1389 C1416 0.950 . S
H1390 C1419 0.950 . S
H1391 C1420 0.950 . S
H1392 C1422 0.950 . S
H1393 C1423 0.950 . S
C1394 H1376 0.951 . S
C1394 C1395 1.366 . S
C1394 C1396 1.388 . S
C1395 C1394 1.366 . S
C1395 C1399 1.385 . S
C1396 H1377 0.951 . S
C1396 C1394 1.388 . S
C1396 C1397 1.366 . S
C1397 C1396 1.366 . S
C1397 C1398 1.414 . S
C1397 C1400 1.499 . S
C1398 H1378 0.950 1_545 S
C1398 C1397 1.414 . S
C1398 C1399 1.374 . S
C1399 H1379 0.950 . S
C1399 C1395 1.385 . S
C1399 C1398 1.374 . S
C1400 C1397 1.499 . S
C1400 C1401 1.373 1_545 S
C1400 C1402 1.389 . S
C1401 H1380 0.950 . S
C1401 C1400 1.373 1_565 S
C1401 C1417 1.377 1_455 S
C1402 C1400 1.389 . S
C1402 C1403 1.524 . S
C1402 C1416 1.377 1_455 S
C1403 C1402 1.524 . S
C1403 C1404 1.397 . S
C1403 C1408 1.363 1_455 S
C1404 H1381 0.950 . S
C1404 C1403 1.397 . S
C1404 C1405 1.334 . S
C1405 H1382 0.950 . S
C1405 C1404 1.334 . S
C1405 C1406 1.287 . S
C1406 C1405 1.287 . S
C1406 C1407 1.524 1_455 S
C1406 H1425 0.913 . S
C1407 H1383 0.950 . S
C1407 C1406 1.524 1_655 S
C1407 C1408 1.415 . S
C1408 H1384 0.950 . S
C1408 C1403 1.363 1_655 S
C1408 C1407 1.415 . S
C1409 H1385 0.951 . S
C1409 C1410 1.366 . S
C1409 C1411 1.388 . S
C1410 C1409 1.366 . S
C1410 C1414 1.385 . S
C1411 H1386 0.951 . S
C1411 C1409 1.388 . S
C1411 C1412 1.366 . S
C1412 C1411 1.366 . S
C1412 C1413 1.414 . S
C1412 C1415 1.499 . S
C1413 H1387 0.950 1_565 S
C1413 C1412 1.414 . S
C1413 C1414 1.374 . S
C1414 H1388 0.950 . S
C1414 C1410 1.385 . S
C1414 C1413 1.374 . S
C1415 C1412 1.499 . S
C1415 C1416 1.373 1_565 S
C1415 C1417 1.389 . S
C1416 H1389 0.950 . S
C1416 C1402 1.377 1_655 S
C1416 C1415 1.373 1_545 S
C1417 C1401 1.377 1_655 S
C1417 C1415 1.389 . S
C1417 C1418 1.524 . S
C1418 C1417 1.524 . S
C1418 C1419 1.397 . S
C1418 C1423 1.363 1_655 S
C1419 H1390 0.950 . S
C1419 C1418 1.397 . S
C1419 C1420 1.334 . S
C1420 H1391 0.950 . S
C1420 C1419 1.334 . S
C1420 C1421 1.287 . S
C1421 C1420 1.287 . S
C1421 C1422 1.524 1_655 S
C1421 H1424 0.999 . S
C1422 H1392 0.950 . S
C1422 C1421 1.524 1_455 S
C1422 C1423 1.415 . S
C1423 H1393 0.950 . S
C1423 C1418 1.363 1_455 S
C1423 C1422 1.415 . S
H1424 C1421 0.999 . S
H1425 C1406 0.913 . S
H1426 C1444 0.951 . S
H1427 C1446 0.951 . S
H1428 C1448 0.950 . S
H1429 C1449 0.950 . S
H1430 C1451 0.950 . S
H1431 C1454 0.950 . S
H1432 C1455 0.950 . S
H1433 C1457 0.950 . S
H1434 C1458 0.950 . S
H1435 C1459 0.951 . S
H1436 C1461 0.951 . S
H1437 C1463 0.950 . S
H1438 C1464 0.950 . S
H1439 C1466 0.950 . S
H1440 C1469 0.950 . S
H1441 C1470 0.950 . S
H1442 C1472 0.950 . S
H1443 C1473 0.950 . S
C1444 H1426 0.951 . S
C1444 C1445 1.366 . S
C1444 C1446 1.388 . S
C1445 C1444 1.366 . S
C1445 C1449 1.385 . S
C1446 H1427 0.951 . S
C1446 C1444 1.388 . S
C1446 C1447 1.366 . S
C1447 C1446 1.366 . S
C1447 C1448 1.414 . S
C1447 C1450 1.499 . S
C1448 H1428 0.950 . S
C1448 C1447 1.414 . S
C1448 C1449 1.374 . S
C1449 H1429 0.950 . S
C1449 C1445 1.385 . S
C1449 C1448 1.374 . S
C1450 C1447 1.499 . S
C1450 C1451 1.373 1_455 S
C1450 C1452 1.389 . S
C1451 H1430 0.950 . S
C1451 C1450 1.373 1_655 S
C1451 C1467 1.377 . S
C1452 C1450 1.389 . S
C1452 C1453 1.524 . S
C1452 C1466 1.377 . S
C1453 C1452 1.524 . S
C1453 C1454 1.397 . S
C1453 C1458 1.363 . S
C1454 H1431 0.950 . S
C1454 C1453 1.397 . S
C1454 C1455 1.334 . S
C1455 H1432 0.950 . S
C1455 C1454 1.334 . S
C1455 C1456 1.287 . S
C1456 C1455 1.287 . S
C1456 C1457 1.524 . S
C1456 H1475 0.913 . S
C1457 H1433 0.950 . S
C1457 C1456 1.524 . S
C1457 C1458 1.415 . S
C1458 H1434 0.950 . S
C1458 C1453 1.363 . S
C1458 C1457 1.415 . S
C1459 H1435 0.951 . S
C1459 C1460 1.366 . S
C1459 C1461 1.388 . S
C1460 C1459 1.366 . S
C1460 C1464 1.385 . S
C1461 H1436 0.951 . S
C1461 C1459 1.388 . S
C1461 C1462 1.366 . S
C1462 C1461 1.366 . S
C1462 C1463 1.414 . S
C1462 C1465 1.499 . S
C1463 H1437 0.950 . S
C1463 C1462 1.414 . S
C1463 C1464 1.374 . S
C1464 H1438 0.950 . S
C1464 C1460 1.385 . S
C1464 C1463 1.374 . S
C1465 C1462 1.499 . S
C1465 C1466 1.373 1_655 S
C1465 C1467 1.389 . S
C1466 H1439 0.950 . S
C1466 C1452 1.377 . S
C1466 C1465 1.373 1_455 S
C1467 C1451 1.377 . S
C1467 C1465 1.389 . S
C1467 C1468 1.524 . S
C1468 C1467 1.524 . S
C1468 C1469 1.397 . S
C1468 C1473 1.363 . S
C1469 H1440 0.950 . S
C1469 C1468 1.397 . S
C1469 C1470 1.334 . S
C1470 H1441 0.950 . S
C1470 C1469 1.334 . S
C1470 C1471 1.287 . S
C1471 C1470 1.287 . S
C1471 C1472 1.524 . S
C1471 H1474 0.999 . S
C1472 H1442 0.950 . S
C1472 C1471 1.524 . S
C1472 C1473 1.415 . S
C1473 H1443 0.950 . S
C1473 C1468 1.363 . S
C1473 C1472 1.415 . S
H1474 C1471 0.999 . S
H1475 C1456 0.913 . S
H1476 C1494 0.951 . S
H1477 C1496 0.951 . S
H1478 C1498 0.950 . S
H1479 C1499 0.950 . S
H1480 C1501 0.950 . S
H1481 C1504 0.950 . S
H1482 C1505 0.950 . S
H1483 C1507 0.950 . S
H1484 C1508 0.950 . S
H1485 C1509 0.951 . S
H1486 C1511 0.951 . S
H1487 C1513 0.950 . S
H1488 C1514 0.950 . S
H1489 C1516 0.950 . S
H1490 C1519 0.950 . S
H1491 C1520 0.950 . S
H1492 C1522 0.950 . S
H1493 C1523 0.950 . S
C1494 H1476 0.951 . S
C1494 C1495 1.366 . S
C1494 C1496 1.388 . S
C1495 C1494 1.366 . S
C1495 C1499 1.385 . S
C1496 H1477 0.951 . S
C1496 C1494 1.388 . S
C1496 C1497 1.366 . S
C1497 C1496 1.366 . S
C1497 C1498 1.414 . S
C1497 C1500 1.499 . S
C1498 H1478 0.950 . S
C1498 C1497 1.414 . S
C1498 C1499 1.374 . S
C1499 H1479 0.950 . S
C1499 C1495 1.385 . S
C1499 C1498 1.374 . S
C1500 C1497 1.499 . S
C1500 C1501 1.373 . S
C1500 C1502 1.389 . S
C1501 H1480 0.950 . S
C1501 C1500 1.373 . S
C1501 C1517 1.377 . S
C1502 C1500 1.389 . S
C1502 C1503 1.524 . S
C1502 C1516 1.377 . S
C1503 C1502 1.524 . S
C1503 C1504 1.397 . S
C1503 C1508 1.363 . S
C1504 H1481 0.950 . S
C1504 C1503 1.397 . S
C1504 C1505 1.334 . S
C1505 H1482 0.950 . S
C1505 C1504 1.334 . S
C1505 C1506 1.287 . S
C1506 C1505 1.287 . S
C1506 C1507 1.524 . S
C1506 H1525 0.913 . S
C1507 H1483 0.950 . S
C1507 C1506 1.524 . S
C1507 C1508 1.415 . S
C1508 H1484 0.950 . S
C1508 C1503 1.363 . S
C1508 C1507 1.415 . S
C1509 H1485 0.951 . S
C1509 C1510 1.366 . S
C1509 C1511 1.388 . S
C1510 C1509 1.366 . S
C1510 C1514 1.385 . S
C1511 H1486 0.951 . S
C1511 C1509 1.388 . S
C1511 C1512 1.366 . S
C1512 C1511 1.366 . S
C1512 C1513 1.414 . S
C1512 C1515 1.499 . S
C1513 H1487 0.950 . S
C1513 C1512 1.414 . S
C1513 C1514 1.374 . S
C1514 H1488 0.950 . S
C1514 C1510 1.385 . S
C1514 C1513 1.374 . S
C1515 C1512 1.499 . S
C1515 C1516 1.373 . S
C1515 C1517 1.389 . S
C1516 H1489 0.950 . S
C1516 C1502 1.377 . S
C1516 C1515 1.373 . S
C1517 C1501 1.377 . S
C1517 C1515 1.389 . S
C1517 C1518 1.524 . S
C1518 C1517 1.524 . S
C1518 C1519 1.397 . S
C1518 C1523 1.363 . S
C1519 H1490 0.950 . S
C1519 C1518 1.397 . S
C1519 C1520 1.334 . S
C1520 H1491 0.950 . S
C1520 C1519 1.334 . S
C1520 C1521 1.287 . S
C1521 C1520 1.287 . S
C1521 C1522 1.524 . S
C1521 H1524 0.999 . S
C1522 H1492 0.950 . S
C1522 C1521 1.524 . S
C1522 C1523 1.415 . S
C1523 H1493 0.950 . S
C1523 C1518 1.363 . S
C1523 C1522 1.415 . S
H1524 C1521 0.999 . S
H1525 C1506 0.913 . S
H1526 C1544 0.951 . S
H1527 C1546 0.951 . S
H1528 C1548 0.950 . S
H1529 C1549 0.950 . S
H1530 C1551 0.950 . S
H1531 C1554 0.950 . S
H1532 C1555 0.950 . S
H1533 C1557 0.950 . S
H1534 C1558 0.950 . S
H1535 C1559 0.951 . S
H1536 C1561 0.951 . S
H1537 C1563 0.950 . S
H1538 C1564 0.950 . S
H1539 C1566 0.950 . S
H1540 C1569 0.950 . S
H1541 C1570 0.950 . S
H1542 C1572 0.950 . S
H1543 C1573 0.950 . S
C1544 H1526 0.951 . S
C1544 C1545 1.366 . S
C1544 C1546 1.388 . S
C1545 C1544 1.366 . S
C1545 C1549 1.385 . S
C1546 H1527 0.951 . S
C1546 C1544 1.388 . S
C1546 C1547 1.366 . S
C1547 C1546 1.366 . S
C1547 C1548 1.414 . S
C1547 C1550 1.499 . S
C1548 H1528 0.950 . S
C1548 C1547 1.414 . S
C1548 C1549 1.374 . S
C1549 H1529 0.950 . S
C1549 C1545 1.385 . S
C1549 C1548 1.374 . S
C1550 C1547 1.499 . S
C1550 C1551 1.373 . S
C1550 C1552 1.410 . S
C1551 H1530 0.950 . S
C1551 C1550 1.373 . S
C1551 C1567 1.355 1_545 S
C1552 C1550 1.410 . S
C1552 C1553 1.524 1_545 S
C1552 C1566 1.355 1_545 S
C1553 C1552 1.524 1_565 S
C1553 C1554 1.397 1_565 S
C1553 C1558 1.363 . S
C1554 H1531 0.950 . S
C1554 C1553 1.397 1_545 S
C1554 C1555 1.334 . S
C1555 H1532 0.950 . S
C1555 C1554 1.334 . S
C1555 C1556 1.287 1_545 S
C1556 C1555 1.287 1_565 S
C1556 C1557 1.524 . S
C1556 H1575 0.913 . S
C1557 H1533 0.950 . S
C1557 C1556 1.524 . S
C1557 C1558 1.415 . S
C1558 H1534 0.950 . S
C1558 C1553 1.363 . S
C1558 C1557 1.415 . S
C1559 H1535 0.951 . S
C1559 C1560 1.366 . S
C1559 C1561 1.388 . S
C1560 C1559 1.366 . S
C1560 C1564 1.385 . S
C1561 H1536 0.951 . S
C1561 C1559 1.388 . S
C1561 C1562 1.366 . S
C1562 C1561 1.366 . S
C1562 C1563 1.414 . S
C1562 C1565 1.499 . S
C1563 H1537 0.950 . S
C1563 C1562 1.414 . S
C1563 C1564 1.374 . S
C1564 H1538 0.950 . S
C1564 C1560 1.385 . S
C1564 C1563 1.374 . S
C1565 C1562 1.499 . S
C1565 C1566 1.373 . S
C1565 C1567 1.410 . S
C1566 H1539 0.950 . S
C1566 C1552 1.355 1_565 S
C1566 C1565 1.373 . S
C1567 C1551 1.355 1_565 S
C1567 C1565 1.410 . S
C1567 C1568 1.524 1_565 S
C1568 C1567 1.524 1_545 S
C1568 C1569 1.397 1_545 S
C1568 C1573 1.363 . S
C1569 H1540 0.950 . S
C1569 C1568 1.397 1_565 S
C1569 C1570 1.334 . S
C1570 H1541 0.950 . S
C1570 C1569 1.334 . S
C1570 C1571 1.287 1_565 S
C1571 C1570 1.287 1_545 S
C1571 C1572 1.524 . S
C1571 H1574 0.999 . S
C1572 H1542 0.950 . S
C1572 C1571 1.524 . S
C1572 C1573 1.415 . S
C1573 H1543 0.950 . S
C1573 C1568 1.363 . S
C1573 C1572 1.415 . S
H1574 C1571 0.999 . S
H1575 C1556 0.913 . S
H1576 C1594 0.951 . S
H1577 C1596 0.951 . S
H1578 C1598 0.950 . S
H1579 C1599 0.950 . S
H1580 C1601 0.950 . S
H1581 C1604 0.950 . S
H1582 C1605 0.950 . S
H1583 C1607 0.950 . S
H1584 C1608 0.950 . S
H1585 C1609 0.951 . S
H1586 C1611 0.951 . S
H1587 C1613 0.950 . S
H1588 C1614 0.950 . S
H1589 C1616 0.950 . S
H1590 C1619 0.950 . S
H1591 C1620 0.950 . S
H1592 C1622 0.950 . S
H1593 C1623 0.950 . S
C1594 H1576 0.951 . S
C1594 C1595 1.366 . S
C1594 C1596 1.388 . S
C1595 C1594 1.366 . S
C1595 C1599 1.385 . S
C1596 H1577 0.951 . S
C1596 C1594 1.388 . S
C1596 C1597 1.366 . S
C1597 C1596 1.366 . S
C1597 C1598 1.414 . S
C1597 C1600 1.499 . S
C1598 H1578 0.950 . S
C1598 C1597 1.414 . S
C1598 C1599 1.374 . S
C1599 H1579 0.950 . S
C1599 C1595 1.385 . S
C1599 C1598 1.374 . S
C1600 C1597 1.499 . S
C1600 C1601 1.373 . S
C1600 C1602 1.389 . S
C1601 H1580 0.950 . S
C1601 C1600 1.373 . S
C1601 C1617 1.377 1_455 S
C1602 C1600 1.389 . S
C1602 C1603 1.524 . S
C1602 C1616 1.377 1_455 S
C1603 C1602 1.524 . S
C1603 C1604 1.397 . S
C1603 C1608 1.363 . S
C1604 H1581 0.950 . S
C1604 C1603 1.397 . S
C1604 C1605 1.334 . S
C1605 H1582 0.950 . S
C1605 C1604 1.334 . S
C1605 C1606 1.287 . S
C1606 C1605 1.287 . S
C1606 C1607 1.524 . S
C1606 H1625 0.913 . S
C1607 H1583 0.950 . S
C1607 C1606 1.524 . S
C1607 C1608 1.415 . S
C1608 H1584 0.950 . S
C1608 C1603 1.363 . S
C1608 C1607 1.415 . S
C1609 H1585 0.951 . S
C1609 C1610 1.366 . S
C1609 C1611 1.388 . S
C1610 C1609 1.366 . S
C1610 C1614 1.385 . S
C1611 H1586 0.951 . S
C1611 C1609 1.388 . S
C1611 C1612 1.366 . S
C1612 C1611 1.366 . S
C1612 C1613 1.414 . S
C1612 C1615 1.499 . S
C1613 H1587 0.950 . S
C1613 C1612 1.414 . S
C1613 C1614 1.374 . S
C1614 H1588 0.950 . S
C1614 C1610 1.385 . S
C1614 C1613 1.374 . S
C1615 C1612 1.499 . S
C1615 C1616 1.373 . S
C1615 C1617 1.389 . S
C1616 H1589 0.950 . S
C1616 C1602 1.377 1_655 S
C1616 C1615 1.373 . S
C1617 C1601 1.377 1_655 S
C1617 C1615 1.389 . S
C1617 C1618 1.524 . S
C1618 C1617 1.524 . S
C1618 C1619 1.397 . S
C1618 C1623 1.363 . S
C1619 H1590 0.950 . S
C1619 C1618 1.397 . S
C1619 C1620 1.334 . S
C1620 H1591 0.950 . S
C1620 C1619 1.334 . S
C1620 C1621 1.287 . S
C1621 C1620 1.287 . S
C1621 C1622 1.524 . S
C1621 H1624 0.999 . S
C1622 H1592 0.950 . S
C1622 C1621 1.524 . S
C1622 C1623 1.415 . S
C1623 H1593 0.950 . S
C1623 C1618 1.363 . S
C1623 C1622 1.415 . S
H1624 C1621 0.999 . S
H1625 C1606 0.913 . S
H1626 C1644 0.951 . S
H1627 C1646 0.951 . S
H1628 C1648 0.950 . S
H1629 C1649 0.950 . S
H1630 C1651 0.950 . S
H1631 C1654 0.950 . S
H1632 C1655 0.950 . S
H1633 C1657 0.950 . S
H1634 C1658 0.950 . S
H1635 C1659 0.951 . S
H1636 C1661 0.951 . S
H1637 C1663 0.950 . S
H1638 C1664 0.950 . S
H1639 C1666 0.950 . S
H1640 C1669 0.950 . S
H1641 C1670 0.950 . S
H1642 C1672 0.950 . S
H1643 C1673 0.950 . S
C1644 H1626 0.951 . S
C1644 C1645 1.366 . S
C1644 C1646 1.388 . S
C1645 C1644 1.366 . S
C1645 C1649 1.385 . S
C1646 H1627 0.951 . S
C1646 C1644 1.388 . S
C1646 C1647 1.366 . S
C1647 C1646 1.366 . S
C1647 C1648 1.414 . S
C1647 C1650 1.499 . S
C1648 H1628 0.950 . S
C1648 C1647 1.414 . S
C1648 C1649 1.374 . S
C1649 H1629 0.950 . S
C1649 C1645 1.385 . S
C1649 C1648 1.374 . S
C1650 C1647 1.499 . S
C1650 C1651 1.373 . S
C1650 C1652 1.389 . S
C1651 H1630 0.950 . S
C1651 C1650 1.373 . S
C1651 C1667 1.377 . S
C1652 C1650 1.389 . S
C1652 C1653 1.524 . S
C1652 C1666 1.377 . S
C1653 C1652 1.524 . S
C1653 C1654 1.397 . S
C1653 C1658 1.363 . S
C1654 H1631 0.950 . S
C1654 C1653 1.397 . S
C1654 C1655 1.334 . S
C1655 H1632 0.950 . S
C1655 C1654 1.334 . S
C1655 C1656 1.287 . S
C1656 C1655 1.287 . S
C1656 C1657 1.524 . S
C1656 H1675 0.913 . S
C1657 H1633 0.950 . S
C1657 C1656 1.524 . S
C1657 C1658 1.415 . S
C1658 H1634 0.950 . S
C1658 C1653 1.363 . S
C1658 C1657 1.415 . S
C1659 H1635 0.951 . S
C1659 C1660 1.366 . S
C1659 C1661 1.388 . S
C1660 C1659 1.366 . S
C1660 C1664 1.385 . S
C1661 H1636 0.951 . S
C1661 C1659 1.388 . S
C1661 C1662 1.366 . S
C1662 C1661 1.366 . S
C1662 C1663 1.414 . S
C1662 C1665 1.499 . S
C1663 H1637 0.950 . S
C1663 C1662 1.414 . S
C1663 C1664 1.374 . S
C1664 H1638 0.950 . S
C1664 C1660 1.385 . S
C1664 C1663 1.374 . S
C1665 C1662 1.499 . S
C1665 C1666 1.373 . S
C1665 C1667 1.389 . S
C1666 H1639 0.950 . S
C1666 C1652 1.377 . S
C1666 C1665 1.373 . S
C1667 C1651 1.377 . S
C1667 C1665 1.389 . S
C1667 C1668 1.524 . S
C1668 C1667 1.524 . S
C1668 C1669 1.397 . S
C1668 C1673 1.363 . S
C1669 H1640 0.950 . S
C1669 C1668 1.397 . S
C1669 C1670 1.334 . S
C1670 H1641 0.950 . S
C1670 C1669 1.334 . S
C1670 C1671 1.287 . S
C1671 C1670 1.287 . S
C1671 C1672 1.524 . S
C1671 H1674 0.999 . S
C1672 H1642 0.950 . S
C1672 C1671 1.524 . S
C1672 C1673 1.415 . S
C1673 H1643 0.950 . S
C1673 C1668 1.363 . S
C1673 C1672 1.415 . S
H1674 C1671 0.999 . S
H1675 C1656 0.913 . S
H1676 C1694 0.951 . S
H1677 C1696 0.951 . S
H1678 C1698 0.950 1_545 S
H1679 C1699 0.950 . S
H1680 C1701 0.950 . S
H1681 C1704 0.950 . S
H1682 C1705 0.950 . S
H1683 C1707 0.950 . S
H1684 C1708 0.950 . S
H1685 C1709 0.951 . S
H1686 C1711 0.951 . S
H1687 C1713 0.950 1_565 S
H1688 C1714 0.950 . S
H1689 C1716 0.950 . S
H1690 C1719 0.950 . S
H1691 C1720 0.950 . S
H1692 C1722 0.950 . S
H1693 C1723 0.950 . S
C1694 H1676 0.951 . S
C1694 C1695 1.366 . S
C1694 C1696 1.388 . S
C1695 C1694 1.366 . S
C1695 C1699 1.385 . S
C1696 H1677 0.951 . S
C1696 C1694 1.388 . S
C1696 C1697 1.366 . S
C1697 C1696 1.366 . S
C1697 C1698 1.414 . S
C1697 C1700 1.499 . S
C1698 H1678 0.950 1_565 S
C1698 C1697 1.414 . S
C1698 C1699 1.374 . S
C1699 H1679 0.950 . S
C1699 C1695 1.385 . S
C1699 C1698 1.374 . S
C1700 C1697 1.499 . S
C1700 C1701 1.373 1_565 S
C1700 C1702 1.389 . S
C1701 H1680 0.950 . S
C1701 C1700 1.373 1_545 S
C1701 C1717 1.377 . S
C1702 C1700 1.389 . S
C1702 C1703 1.524 . S
C1702 C1716 1.377 . S
C1703 C1702 1.524 . S
C1703 C1704 1.397 . S
C1703 C1708 1.363 . S
C1704 H1681 0.950 . S
C1704 C1703 1.397 . S
C1704 C1705 1.334 . S
C1705 H1682 0.950 . S
C1705 C1704 1.334 . S
C1705 C1706 1.287 . S
C1706 C1705 1.287 . S
C1706 C1707 1.524 . S
C1706 H1725 0.913 . S
C1707 H1683 0.950 . S
C1707 C1706 1.524 . S
C1707 C1708 1.415 . S
C1708 H1684 0.950 . S
C1708 C1703 1.363 . S
C1708 C1707 1.415 . S
C1709 H1685 0.951 . S
C1709 C1710 1.366 . S
C1709 C1711 1.388 . S
C1710 C1709 1.366 . S
C1710 C1714 1.385 . S
C1711 H1686 0.951 . S
C1711 C1709 1.388 . S
C1711 C1712 1.366 . S
C1712 C1711 1.366 . S
C1712 C1713 1.414 . S
C1712 C1715 1.499 . S
C1713 H1687 0.950 1_545 S
C1713 C1712 1.414 . S
C1713 C1714 1.374 . S
C1714 H1688 0.950 . S
C1714 C1710 1.385 . S
C1714 C1713 1.374 . S
C1715 C1712 1.499 . S
C1715 C1716 1.373 1_545 S
C1715 C1717 1.389 . S
C1716 H1689 0.950 . S
C1716 C1702 1.377 . S
C1716 C1715 1.373 1_565 S
C1717 C1701 1.377 . S
C1717 C1715 1.389 . S
C1717 C1718 1.524 . S
C1718 C1717 1.524 . S
C1718 C1719 1.397 . S
C1718 C1723 1.363 . S
C1719 H1690 0.950 . S
C1719 C1718 1.397 . S
C1719 C1720 1.334 . S
C1720 H1691 0.950 . S
C1720 C1719 1.334 . S
C1720 C1721 1.287 . S
C1721 C1720 1.287 . S
C1721 C1722 1.524 . S
C1721 H1724 0.999 . S
C1722 H1692 0.950 . S
C1722 C1721 1.524 . S
C1722 C1723 1.415 . S
C1723 H1693 0.950 . S
C1723 C1718 1.363 . S
C1723 C1722 1.415 . S
H1724 C1721 0.999 . S
H1725 C1706 0.913 . S
H1726 C1744 0.951 . S
H1727 C1746 0.951 . S
H1728 C1748 0.977 . S
H1729 C1749 0.950 . S
H1730 C1751 0.950 . S
H1731 C1754 0.950 . S
H1732 C1755 0.950 . S
H1733 C1757 0.950 . S
H1734 C1758 0.950 . S
H1735 C1759 0.951 . S
H1736 C1761 0.951 . S
H1737 C1763 0.977 . S
H1738 C1764 0.950 . S
H1739 C1766 0.950 . S
H1740 C1769 0.950 . S
H1741 C1770 0.950 . S
H1742 C1772 0.950 . S
H1743 C1773 0.950 . S
C1744 H1726 0.951 . S
C1744 C1745 1.366 . S
C1744 C1746 1.388 . S
C1745 C1744 1.366 . S
C1745 C1749 1.385 . S
C1746 H1727 0.951 . S
C1746 C1744 1.388 . S
C1746 C1747 1.366 . S
C1747 C1746 1.366 . S
C1747 C1748 1.414 . S
C1747 C1750 1.499 . S
C1748 H1728 0.977 . S
C1748 C1747 1.414 . S
C1748 C1749 1.374 . S
C1749 H1729 0.950 . S
C1749 C1745 1.385 . S
C1749 C1748 1.374 . S
C1750 C1747 1.499 . S
C1750 C1751 1.373 1_455 S
C1750 C1752 1.412 . S
C1751 H1730 0.950 . S
C1751 C1750 1.373 1_655 S
C1751 C1767 1.354 1_545 S
C1752 C1750 1.412 . S
C1752 C1753 1.523 1_545 S
C1752 C1766 1.354 1_545 S
C1753 C1752 1.523 1_565 S
C1753 C1754 1.382 1_565 S
C1753 C1758 1.381 . S
C1754 H1731 0.950 . S
C1754 C1753 1.382 1_545 S
C1754 C1755 1.334 . S
C1755 H1732 0.950 . S
C1755 C1754 1.334 . S
C1755 C1756 1.287 1_545 S
C1756 C1755 1.287 1_565 S
C1756 C1757 1.524 . S
C1756 H1775 0.913 . S
C1757 H1733 0.950 . S
C1757 C1756 1.524 . S
C1757 C1758 1.415 . S
C1758 H1734 0.950 . S
C1758 C1753 1.381 . S
C1758 C1757 1.415 . S
C1759 H1735 0.951 . S
C1759 C1760 1.366 . S
C1759 C1761 1.388 . S
C1760 C1759 1.366 . S
C1760 C1764 1.385 . S
C1761 H1736 0.951 . S
C1761 C1759 1.388 . S
C1761 C1762 1.366 . S
C1762 C1761 1.366 . S
C1762 C1763 1.414 . S
C1762 C1765 1.499 . S
C1763 H1737 0.977 . S
C1763 C1762 1.414 . S
C1763 C1764 1.374 . S
C1764 H1738 0.950 . S
C1764 C1760 1.385 . S
C1764 C1763 1.374 . S
C1765 C1762 1.499 . S
C1765 C1766 1.373 1_655 S
C1765 C1767 1.412 . S
C1766 H1739 0.950 . S
C1766 C1752 1.354 1_565 S
C1766 C1765 1.373 1_455 S
C1767 C1751 1.354 1_565 S
C1767 C1765 1.412 . S
C1767 C1768 1.523 1_565 S
C1768 C1767 1.523 1_545 S
C1768 C1769 1.382 1_545 S
C1768 C1773 1.381 . S
C1769 H1740 0.950 . S
C1769 C1768 1.382 1_565 S
C1769 C1770 1.334 . S
C1770 H1741 0.950 . S
C1770 C1769 1.334 . S
C1770 C1771 1.287 1_565 S
C1771 C1770 1.287 1_545 S
C1771 C1772 1.524 . S
C1771 H1774 0.999 . S
C1772 H1742 0.950 . S
C1772 C1771 1.524 . S
C1772 C1773 1.415 . S
C1773 H1743 0.950 . S
C1773 C1768 1.381 . S
C1773 C1772 1.415 . S
H1774 C1771 0.999 . S
H1775 C1756 0.913 . S
H1776 C1794 0.951 . S
H1777 C1796 0.951 . S
H1778 C1798 0.950 1_545 S
H1779 C1799 0.950 . S
H1780 C1801 0.951 . S
H1781 C1804 0.950 1_545 S
H1782 C1805 0.950 . S
H1783 C1807 0.950 . S
H1784 C1808 0.950 . S
H1785 C1809 0.951 . S
H1786 C1811 0.951 . S
H1787 C1813 0.950 1_565 S
H1788 C1814 0.950 . S
H1789 C1816 0.951 . S
H1790 C1819 0.950 1_565 S
H1791 C1820 0.950 . S
H1792 C1822 0.950 . S
H1793 C1823 0.950 . S
C1794 H1776 0.951 . S
C1794 C1795 1.366 . S
C1794 C1796 1.388 . S
C1795 C1794 1.366 . S
C1795 C1799 1.385 . S
C1796 H1777 0.951 . S
C1796 C1794 1.388 . S
C1796 C1797 1.366 . S
C1797 C1796 1.366 . S
C1797 C1798 1.414 . S
C1797 C1800 1.499 . S
C1798 H1778 0.950 1_565 S
C1798 C1797 1.414 . S
C1798 C1799 1.374 . S
C1799 H1779 0.950 . S
C1799 C1795 1.385 . S
C1799 C1798 1.374 . S
C1800 C1797 1.499 . S
C1800 C1801 1.367 1_565 S
C1800 C1802 1.389 . S
C1801 H1780 0.951 . S
C1801 C1800 1.367 1_545 S
C1801 C1817 1.382 . S
C1802 C1800 1.389 . S
C1802 C1803 1.524 . S
C1802 C1816 1.382 . S
C1803 C1802 1.524 . S
C1803 C1804 1.397 . S
C1803 C1808 1.363 . S
C1804 H1781 0.950 1_565 S
C1804 C1803 1.397 . S
C1804 C1805 1.334 . S
C1805 H1782 0.950 . S
C1805 C1804 1.334 . S
C1805 C1806 1.287 . S
C1806 C1805 1.287 . S
C1806 C1807 1.524 . S
C1806 H1825 0.913 . S
C1807 H1783 0.950 . S
C1807 C1806 1.524 . S
C1807 C1808 1.415 . S
C1808 H1784 0.950 . S
C1808 C1803 1.363 . S
C1808 C1807 1.415 . S
C1809 H1785 0.951 . S
C1809 C1810 1.366 . S
C1809 C1811 1.388 . S
C1810 C1809 1.366 . S
C1810 C1814 1.385 . S
C1811 H1786 0.951 . S
C1811 C1809 1.388 . S
C1811 C1812 1.366 . S
C1812 C1811 1.366 . S
C1812 C1813 1.414 . S
C1812 C1815 1.499 . S
C1813 H1787 0.950 1_545 S
C1813 C1812 1.414 . S
C1813 C1814 1.374 . S
C1814 H1788 0.950 . S
C1814 C1810 1.385 . S
C1814 C1813 1.374 . S
C1815 C1812 1.499 . S
C1815 C1816 1.367 1_545 S
C1815 C1817 1.389 . S
C1816 H1789 0.951 . S
C1816 C1802 1.382 . S
C1816 C1815 1.367 1_565 S
C1817 C1801 1.382 . S
C1817 C1815 1.389 . S
C1817 C1818 1.524 . S
C1818 C1817 1.524 . S
C1818 C1819 1.397 . S
C1818 C1823 1.363 . S
C1819 H1790 0.950 1_545 S
C1819 C1818 1.397 . S
C1819 C1820 1.334 . S
C1820 H1791 0.950 . S
C1820 C1819 1.334 . S
C1820 C1821 1.287 . S
C1821 C1820 1.287 . S
C1821 C1822 1.524 . S
C1821 H1824 0.999 . S
C1822 H1792 0.950 . S
C1822 C1821 1.524 . S
C1822 C1823 1.415 . S
C1823 H1793 0.950 . S
C1823 C1818 1.363 . S
C1823 C1822 1.415 . S
H1824 C1821 0.999 . S
H1825 C1806 0.913 . S
H1826 C1844 0.951 . S
H1827 C1846 0.951 . S
H1828 C1848 0.950 . S
H1829 C1849 0.950 . S
H1830 C1851 0.950 . S
H1831 C1854 0.950 . S
H1832 C1855 0.950 . S
H1833 C1857 0.950 . S
H1834 C1858 0.947 1_655 S
H1835 C1859 0.951 . S
H1836 C1861 0.951 . S
H1837 C1863 0.950 . S
H1838 C1864 0.950 . S
H1839 C1866 0.950 . S
H1840 C1869 0.950 . S
H1841 C1870 0.950 . S
H1842 C1872 0.950 . S
H1843 C1873 0.947 1_455 S
C1844 H1826 0.951 . S
C1844 C1845 1.366 . S
C1844 C1846 1.388 . S
C1845 C1844 1.366 . S
C1845 C1849 1.385 . S
C1846 H1827 0.951 . S
C1846 C1844 1.388 . S
C1846 C1847 1.366 . S
C1847 C1846 1.366 . S
C1847 C1848 1.414 . S
C1847 C1850 1.499 . S
C1848 H1828 0.950 . S
C1848 C1847 1.414 . S
C1848 C1849 1.374 . S
C1849 H1829 0.950 . S
C1849 C1845 1.385 . S
C1849 C1848 1.374 . S
C1850 C1847 1.499 . S
C1850 C1851 1.373 . S
C1850 C1852 1.389 1_655 S
C1851 H1830 0.950 . S
C1851 C1850 1.373 . S
C1851 C1867 1.377 1_565 S
C1852 C1850 1.389 1_455 S
C1852 C1853 1.524 . S
C1852 C1866 1.377 1_565 S
C1853 C1852 1.524 . S
C1853 C1854 1.397 . S
C1853 C1858 1.365 . S
C1854 H1831 0.950 . S
C1854 C1853 1.397 . S
C1854 C1855 1.334 . S
C1855 H1832 0.950 . S
C1855 C1854 1.334 . S
C1855 C1856 1.287 . S
C1856 C1855 1.287 . S
C1856 C1857 1.524 . S
C1856 H1875 0.913 . S
C1857 H1833 0.950 . S
C1857 C1856 1.524 . S
C1857 C1858 1.416 . S
C1858 H1834 0.947 1_455 S
C1858 C1853 1.365 . S
C1858 C1857 1.416 . S
C1859 H1835 0.951 . S
C1859 C1860 1.366 . S
C1859 C1861 1.388 . S
C1860 C1859 1.366 . S
C1860 C1864 1.385 . S
C1861 H1836 0.951 . S
C1861 C1859 1.388 . S
C1861 C1862 1.366 . S
C1862 C1861 1.366 . S
C1862 C1863 1.414 . S
C1862 C1865 1.499 . S
C1863 H1837 0.950 . S
C1863 C1862 1.414 . S
C1863 C1864 1.374 . S
C1864 H1838 0.950 . S
C1864 C1860 1.385 . S
C1864 C1863 1.374 . S
C1865 C1862 1.499 . S
C1865 C1866 1.373 . S
C1865 C1867 1.389 1_455 S
C1866 H1839 0.950 . S
C1866 C1852 1.377 1_545 S
C1866 C1865 1.373 . S
C1867 C1851 1.377 1_545 S
C1867 C1865 1.389 1_655 S
C1867 C1868 1.524 . S
C1868 C1867 1.524 . S
C1868 C1869 1.397 . S
C1868 C1873 1.364 . S
C1869 H1840 0.950 . S
C1869 C1868 1.397 . S
C1869 C1870 1.334 . S
C1870 H1841 0.950 . S
C1870 C1869 1.334 . S
C1870 C1871 1.287 . S
C1871 C1870 1.287 . S
C1871 C1872 1.524 . S
C1871 H1874 0.999 . S
C1872 H1842 0.950 . S
C1872 C1871 1.524 . S
C1872 C1873 1.416 . S
C1873 H1843 0.947 1_655 S
C1873 C1868 1.364 . S
C1873 C1872 1.416 . S
H1874 C1871 0.999 . S
H1875 C1856 0.913 . S
H1876 C1894 0.951 . S
H1877 C1896 0.951 . S
H1878 C1898 0.950 . S
H1879 C1899 0.950 . S
H1880 C1901 0.950 . S
H1881 C1904 0.950 . S
H1882 C1905 0.950 . S
H1883 C1907 0.950 . S
H1884 C1908 0.950 . S
H1885 C1909 0.951 . S
H1886 C1911 0.951 . S
H1887 C1913 0.950 . S
H1888 C1914 0.950 . S
H1889 C1916 0.950 . S
H1890 C1919 0.950 . S
H1891 C1920 0.950 . S
H1892 C1922 0.950 . S
H1893 C1923 0.950 . S
C1894 H1876 0.951 . S
C1894 C1895 1.366 . S
C1894 C1896 1.388 . S
C1895 C1894 1.366 . S
C1895 C1899 1.385 . S
C1896 H1877 0.951 . S
C1896 C1894 1.388 . S
C1896 C1897 1.366 . S
C1897 C1896 1.366 . S
C1897 C1898 1.414 . S
C1897 C1900 1.499 . S
C1898 H1878 0.950 . S
C1898 C1897 1.414 . S
C1898 C1899 1.374 . S
C1899 H1879 0.950 . S
C1899 C1895 1.385 . S
C1899 C1898 1.374 . S
C1900 C1897 1.499 . S
C1900 C1901 1.373 . S
C1900 C1902 1.389 . S
C1901 H1880 0.950 . S
C1901 C1900 1.373 . S
C1901 C1917 1.377 1_455 S
C1902 C1900 1.389 . S
C1902 C1903 1.524 . S
C1902 C1916 1.377 1_455 S
C1903 C1902 1.524 . S
C1903 C1904 1.397 . S
C1903 C1908 1.363 . S
C1904 H1881 0.950 . S
C1904 C1903 1.397 . S
C1904 C1905 1.334 . S
C1905 H1882 0.950 . S
C1905 C1904 1.334 . S
C1905 C1906 1.287 . S
C1906 C1905 1.287 . S
C1906 C1907 1.524 . S
C1906 H1925 0.913 . S
C1907 H1883 0.950 . S
C1907 C1906 1.524 . S
C1907 C1908 1.415 . S
C1908 H1884 0.950 . S
C1908 C1903 1.363 . S
C1908 C1907 1.415 . S
C1909 H1885 0.951 . S
C1909 C1910 1.366 . S
C1909 C1911 1.388 . S
C1910 C1909 1.366 . S
C1910 C1914 1.385 . S
C1911 H1886 0.951 . S
C1911 C1909 1.388 . S
C1911 C1912 1.366 . S
C1912 C1911 1.366 . S
C1912 C1913 1.414 . S
C1912 C1915 1.499 . S
C1913 H1887 0.950 . S
C1913 C1912 1.414 . S
C1913 C1914 1.374 . S
C1914 H1888 0.950 . S
C1914 C1910 1.385 . S
C1914 C1913 1.374 . S
C1915 C1912 1.499 . S
C1915 C1916 1.373 . S
C1915 C1917 1.389 . S
C1916 H1889 0.950 . S
C1916 C1902 1.377 1_655 S
C1916 C1915 1.373 . S
C1917 C1901 1.377 1_655 S
C1917 C1915 1.389 . S
C1917 C1918 1.524 . S
C1918 C1917 1.524 . S
C1918 C1919 1.397 . S
C1918 C1923 1.363 . S
C1919 H1890 0.950 . S
C1919 C1918 1.397 . S
C1919 C1920 1.334 . S
C1920 H1891 0.950 . S
C1920 C1919 1.334 . S
C1920 C1921 1.287 . S
C1921 C1920 1.287 . S
C1921 C1922 1.524 . S
C1921 H1924 0.999 . S
C1922 H1892 0.950 . S
C1922 C1921 1.524 . S
C1922 C1923 1.415 . S
C1923 H1893 0.950 . S
C1923 C1918 1.363 . S
C1923 C1922 1.415 . S
H1924 C1921 0.999 . S
H1925 C1906 0.913 . S
H1926 C1944 0.951 . S
H1927 C1946 0.951 . S
H1928 C1948 0.950 . S
H1929 C1949 0.950 . S
H1930 C1951 0.950 . S
H1931 C1954 0.950 . S
H1932 C1955 0.950 . S
H1933 C1957 0.950 . S
H1934 C1958 0.950 . S
H1935 C1959 0.951 . S
H1936 C1961 0.951 . S
H1937 C1963 0.950 . S
H1938 C1964 0.950 . S
H1939 C1966 0.950 . S
H1940 C1969 0.950 . S
H1941 C1970 0.950 . S
H1942 C1972 0.950 . S
H1943 C1973 0.950 . S
C1944 H1926 0.951 . S
C1944 C1945 1.366 . S
C1944 C1946 1.388 . S
C1945 C1944 1.366 . S
C1945 C1949 1.385 . S
C1946 H1927 0.951 . S
C1946 C1944 1.388 . S
C1946 C1947 1.366 . S
C1947 C1946 1.366 . S
C1947 C1948 1.414 . S
C1947 C1950 1.499 . S
C1948 H1928 0.950 . S
C1948 C1947 1.414 . S
C1948 C1949 1.374 . S
C1949 H1929 0.950 . S
C1949 C1945 1.385 . S
C1949 C1948 1.374 . S
C1950 C1947 1.499 . S
C1950 C1951 1.373 . S
C1950 C1952 1.389 . S
C1951 H1930 0.950 . S
C1951 C1950 1.373 . S
C1951 C1967 1.377 . S
C1952 C1950 1.389 . S
C1952 C1953 1.524 . S
C1952 C1966 1.377 . S
C1953 C1952 1.524 . S
C1953 C1954 1.397 . S
C1953 C1958 1.363 . S
C1954 H1931 0.950 . S
C1954 C1953 1.397 . S
C1954 C1955 1.334 . S
C1955 H1932 0.950 . S
C1955 C1954 1.334 . S
C1955 C1956 1.287 . S
C1956 C1955 1.287 . S
C1956 C1957 1.524 . S
C1956 H1975 0.913 . S
C1957 H1933 0.950 . S
C1957 C1956 1.524 . S
C1957 C1958 1.415 . S
C1958 H1934 0.950 . S
C1958 C1953 1.363 . S
C1958 C1957 1.415 . S
C1959 H1935 0.951 . S
C1959 C1960 1.366 . S
C1959 C1961 1.388 . S
C1960 C1959 1.366 . S
C1960 C1964 1.385 . S
C1961 H1936 0.951 . S
C1961 C1959 1.388 . S
C1961 C1962 1.366 . S
C1962 C1961 1.366 . S
C1962 C1963 1.414 . S
C1962 C1965 1.499 . S
C1963 H1937 0.950 . S
C1963 C1962 1.414 . S
C1963 C1964 1.374 . S
C1964 H1938 0.950 . S
C1964 C1960 1.385 . S
C1964 C1963 1.374 . S
C1965 C1962 1.499 . S
C1965 C1966 1.373 . S
C1965 C1967 1.389 . S
C1966 H1939 0.950 . S
C1966 C1952 1.377 . S
C1966 C1965 1.373 . S
C1967 C1951 1.377 . S
C1967 C1965 1.389 . S
C1967 C1968 1.524 . S
C1968 C1967 1.524 . S
C1968 C1969 1.397 . S
C1968 C1973 1.363 . S
C1969 H1940 0.950 . S
C1969 C1968 1.397 . S
C1969 C1970 1.334 . S
C1970 H1941 0.950 . S
C1970 C1969 1.334 . S
C1970 C1971 1.287 . S
C1971 C1970 1.287 . S
C1971 C1972 1.524 . S
C1971 H1974 0.999 . S
C1972 H1942 0.950 . S
C1972 C1971 1.524 . S
C1972 C1973 1.415 . S
C1973 H1943 0.950 . S
C1973 C1968 1.363 . S
C1973 C1972 1.415 . S
H1974 C1971 0.999 . S
H1975 C1956 0.913 . S
H1976 C1994 0.951 . S
H1977 C1996 0.951 . S
H1978 C1998 0.950 . S
H1979 C1999 0.950 . S
H1980 C2001 0.950 . S
H1981 C2004 0.950 . S
H1982 C2005 0.950 . S
H1983 C2007 0.950 . S
H1984 C2008 0.950 . S
H1985 C2009 0.951 . S
H1986 C2011 0.951 . S
H1987 C2013 0.950 . S
H1988 C2014 0.950 . S
H1989 C2016 0.950 . S
H1990 C2019 0.950 . S
H1991 C2020 0.950 . S
H1992 C2022 0.950 . S
H1993 C2023 0.950 . S
C1994 H1976 0.951 . S
C1994 C1995 1.366 . S
C1994 C1996 1.388 . S
C1995 C1994 1.366 . S
C1995 C1999 1.385 . S
C1996 H1977 0.951 . S
C1996 C1994 1.388 . S
C1996 C1997 1.366 . S
C1997 C1996 1.366 . S
C1997 C1998 1.414 . S
C1997 C2000 1.499 . S
C1998 H1978 0.950 . S
C1998 C1997 1.414 . S
C1998 C1999 1.374 . S
C1999 H1979 0.950 . S
C1999 C1995 1.385 . S
C1999 C1998 1.374 . S
C2000 C1997 1.499 . S
C2000 C2001 1.373 . S
C2000 C2002 1.389 . S
C2001 H1980 0.950 . S
C2001 C2000 1.373 . S
C2001 C2017 1.377 . S
C2002 C2000 1.389 . S
C2002 C2003 1.524 . S
C2002 C2016 1.377 . S
C2003 C2002 1.524 . S
C2003 C2004 1.397 . S
C2003 C2008 1.363 . S
C2004 H1981 0.950 . S
C2004 C2003 1.397 . S
C2004 C2005 1.334 . S
C2005 H1982 0.950 . S
C2005 C2004 1.334 . S
C2005 C2006 1.287 . S
C2006 C2005 1.287 . S
C2006 C2007 1.524 . S
C2006 H2025 0.913 . S
C2007 H1983 0.950 . S
C2007 C2006 1.524 . S
C2007 C2008 1.415 . S
C2008 H1984 0.950 . S
C2008 C2003 1.363 . S
C2008 C2007 1.415 . S
C2009 H1985 0.951 . S
C2009 C2010 1.366 . S
C2009 C2011 1.388 . S
C2010 C2009 1.366 . S
C2010 C2014 1.385 . S
C2011 H1986 0.951 . S
C2011 C2009 1.388 . S
C2011 C2012 1.366 . S
C2012 C2011 1.366 . S
C2012 C2013 1.414 . S
C2012 C2015 1.499 . S
C2013 H1987 0.950 . S
C2013 C2012 1.414 . S
C2013 C2014 1.374 . S
C2014 H1988 0.950 . S
C2014 C2010 1.385 . S
C2014 C2013 1.374 . S
C2015 C2012 1.499 . S
C2015 C2016 1.373 . S
C2015 C2017 1.389 . S
C2016 H1989 0.950 . S
C2016 C2002 1.377 . S
C2016 C2015 1.373 . S
C2017 C2001 1.377 . S
C2017 C2015 1.389 . S
C2017 C2018 1.524 . S
C2018 C2017 1.524 . S
C2018 C2019 1.397 . S
C2018 C2023 1.363 . S
C2019 H1990 0.950 . S
C2019 C2018 1.397 . S
C2019 C2020 1.334 . S
C2020 H1991 0.950 . S
C2020 C2019 1.334 . S
C2020 C2021 1.287 . S
C2021 C2020 1.287 . S
C2021 C2022 1.524 . S
C2021 H2024 0.999 . S
C2022 H1992 0.950 . S
C2022 C2021 1.524 . S
C2022 C2023 1.415 . S
C2023 H1993 0.950 . S
C2023 C2018 1.363 . S
C2023 C2022 1.415 . S
H2024 C2021 0.999 . S
H2025 C2006 0.913 . S
H2026 C2044 0.951 . S
H2027 C2046 0.951 . S
H2028 C2048 0.950 . S
H2029 C2049 0.950 . S
H2030 C2051 0.950 . S
H2031 C2054 0.950 . S
H2032 C2055 0.950 . S
H2033 C2057 0.950 . S
H2034 C2058 0.950 . S
H2035 C2059 0.951 . S
H2036 C2061 0.951 . S
H2037 C2063 0.950 . S
H2038 C2064 0.950 . S
H2039 C2066 0.950 . S
H2040 C2069 0.950 . S
H2041 C2070 0.950 . S
H2042 C2072 0.950 . S
H2043 C2073 0.950 . S
C2044 H2026 0.951 . S
C2044 C2045 1.366 . S
C2044 C2046 1.388 . S
C2045 C2044 1.366 . S
C2045 C2049 1.385 . S
C2046 H2027 0.951 . S
C2046 C2044 1.388 . S
C2046 C2047 1.366 . S
C2047 C2046 1.366 . S
C2047 C2048 1.414 . S
C2047 C2050 1.499 . S
C2048 H2028 0.950 . S
C2048 C2047 1.414 . S
C2048 C2049 1.374 . S
C2049 H2029 0.950 . S
C2049 C2045 1.385 . S
C2049 C2048 1.374 . S
C2050 C2047 1.499 . S
C2050 C2051 1.373 . S
C2050 C2052 1.389 . S
C2051 H2030 0.950 . S
C2051 C2050 1.373 . S
C2051 C2067 1.377 1_545 S
C2052 C2050 1.389 . S
C2052 C2053 1.524 . S
C2052 C2066 1.377 1_545 S
C2053 C2052 1.524 . S
C2053 C2054 1.397 . S
C2053 C2058 1.363 . S
C2054 H2031 0.950 . S
C2054 C2053 1.397 . S
C2054 C2055 1.334 . S
C2055 H2032 0.950 . S
C2055 C2054 1.334 . S
C2055 C2056 1.287 . S
C2056 C2055 1.287 . S
C2056 C2057 1.524 . S
C2056 H2075 0.913 . S
C2057 H2033 0.950 . S
C2057 C2056 1.524 . S
C2057 C2058 1.415 . S
C2058 H2034 0.950 . S
C2058 C2053 1.363 . S
C2058 C2057 1.415 . S
C2059 H2035 0.951 . S
C2059 C2060 1.366 . S
C2059 C2061 1.388 . S
C2060 C2059 1.366 . S
C2060 C2064 1.385 . S
C2061 H2036 0.951 . S
C2061 C2059 1.388 . S
C2061 C2062 1.366 . S
C2062 C2061 1.366 . S
C2062 C2063 1.414 . S
C2062 C2065 1.499 . S
C2063 H2037 0.950 . S
C2063 C2062 1.414 . S
C2063 C2064 1.374 . S
C2064 H2038 0.950 . S
C2064 C2060 1.385 . S
C2064 C2063 1.374 . S
C2065 C2062 1.499 . S
C2065 C2066 1.373 . S
C2065 C2067 1.389 . S
C2066 H2039 0.950 . S
C2066 C2052 1.377 1_565 S
C2066 C2065 1.373 . S
C2067 C2051 1.377 1_565 S
C2067 C2065 1.389 . S
C2067 C2068 1.524 . S
C2068 C2067 1.524 . S
C2068 C2069 1.397 . S
C2068 C2073 1.363 . S
C2069 H2040 0.950 . S
C2069 C2068 1.397 . S
C2069 C2070 1.334 . S
C2070 H2041 0.950 . S
C2070 C2069 1.334 . S
C2070 C2071 1.287 . S
C2071 C2070 1.287 . S
C2071 C2072 1.524 . S
C2071 H2074 0.999 . S
C2072 H2042 0.950 . S
C2072 C2071 1.524 . S
C2072 C2073 1.415 . S
C2073 H2043 0.950 . S
C2073 C2068 1.363 . S
C2073 C2072 1.415 . S
H2074 C2071 0.999 . S
H2075 C2056 0.913 . S
H2076 C2094 0.951 . S
H2077 C2096 0.951 . S
H2078 C2098 0.950 1_545 S
H2079 C2099 0.950 . S
H2080 C2101 0.950 . S
H2081 C2104 0.950 . S
H2082 C2105 0.950 . S
H2083 C2107 0.950 . S
H2084 C2108 0.950 . S
H2085 C2109 0.951 . S
H2086 C2111 0.951 . S
H2087 C2113 0.950 1_565 S
H2088 C2114 0.950 . S
H2089 C2116 0.950 . S
H2090 C2119 0.950 . S
H2091 C2120 0.950 . S
H2092 C2122 0.950 . S
H2093 C2123 0.950 . S
C2094 H2076 0.951 . S
C2094 C2095 1.366 . S
C2094 C2096 1.388 . S
C2095 C2094 1.366 . S
C2095 C2099 1.385 . S
C2096 H2077 0.951 . S
C2096 C2094 1.388 . S
C2096 C2097 1.366 . S
C2097 C2096 1.366 . S
C2097 C2098 1.414 . S
C2097 C2100 1.499 . S
C2098 H2078 0.950 1_565 S
C2098 C2097 1.414 . S
C2098 C2099 1.374 . S
C2099 H2079 0.950 . S
C2099 C2095 1.385 . S
C2099 C2098 1.374 . S
C2100 C2097 1.499 . S
C2100 C2101 1.373 1_565 S
C2100 C2102 1.389 . S
C2101 H2080 0.950 . S
C2101 C2100 1.373 1_545 S
C2101 C2117 1.377 1_655 S
C2102 C2100 1.389 . S
C2102 C2103 1.524 . S
C2102 C2116 1.377 1_655 S
C2103 C2102 1.524 . S
C2103 C2104 1.397 . S
C2103 C2108 1.363 1_655 S
C2104 H2081 0.950 . S
C2104 C2103 1.397 . S
C2104 C2105 1.334 . S
C2105 H2082 0.950 . S
C2105 C2104 1.334 . S
C2105 C2106 1.287 . S
C2106 C2105 1.287 . S
C2106 C2107 1.524 1_655 S
C2106 H2125 0.913 . S
C2107 H2083 0.950 . S
C2107 C2106 1.524 1_455 S
C2107 C2108 1.415 . S
C2108 H2084 0.950 . S
C2108 C2103 1.363 1_455 S
C2108 C2107 1.415 . S
C2109 H2085 0.951 . S
C2109 C2110 1.366 . S
C2109 C2111 1.388 . S
C2110 C2109 1.366 . S
C2110 C2114 1.385 . S
C2111 H2086 0.951 . S
C2111 C2109 1.388 . S
C2111 C2112 1.366 . S
C2112 C2111 1.366 . S
C2112 C2113 1.414 . S
C2112 C2115 1.499 . S
C2113 H2087 0.950 1_545 S
C2113 C2112 1.414 . S
C2113 C2114 1.374 . S
C2114 H2088 0.950 . S
C2114 C2110 1.385 . S
C2114 C2113 1.374 . S
C2115 C2112 1.499 . S
C2115 C2116 1.373 1_545 S
C2115 C2117 1.389 . S
C2116 H2089 0.950 . S
C2116 C2102 1.377 1_455 S
C2116 C2115 1.373 1_565 S
C2117 C2101 1.377 1_455 S
C2117 C2115 1.389 . S
C2117 C2118 1.524 . S
C2118 C2117 1.524 . S
C2118 C2119 1.397 . S
C2118 C2123 1.363 1_455 S
C2119 H2090 0.950 . S
C2119 C2118 1.397 . S
C2119 C2120 1.334 . S
C2120 H2091 0.950 . S
C2120 C2119 1.334 . S
C2120 C2121 1.287 . S
C2121 C2120 1.287 . S
C2121 C2122 1.524 1_455 S
C2121 H2124 0.999 . S
C2122 H2092 0.950 . S
C2122 C2121 1.524 1_655 S
C2122 C2123 1.415 . S
C2123 H2093 0.950 . S
C2123 C2118 1.363 1_655 S
C2123 C2122 1.415 . S
H2124 C2121 0.999 . S
H2125 C2106 0.913 . S
H2126 C2144 0.951 . S
H2127 C2146 0.951 1_455 S
H2128 C2148 0.950 . S
H2129 C2149 0.950 . S
H2130 C2151 0.950 . S
H2131 C2154 0.950 . S
H2132 C2155 0.950 1_655 S
H2133 C2157 0.950 . S
H2134 C2158 0.950 . S
H2135 C2159 0.951 . S
H2136 C2161 0.951 1_655 S
H2137 C2163 0.950 . S
H2138 C2164 0.950 . S
H2139 C2166 0.950 . S
H2140 C2169 0.950 . S
H2141 C2170 0.950 1_455 S
H2142 C2172 0.950 . S
H2143 C2173 0.950 . S
C2144 H2126 0.951 . S
C2144 C2145 1.366 . S
C2144 C2146 1.388 . S
C2145 C2144 1.366 . S
C2145 C2149 1.385 . S
C2146 H2127 0.951 1_655 S
C2146 C2144 1.388 . S
C2146 C2147 1.366 . S
C2147 C2146 1.366 . S
C2147 C2148 1.414 . S
C2147 C2150 1.499 . S
C2148 H2128 0.950 . S
C2148 C2147 1.414 . S
C2148 C2149 1.374 . S
C2149 H2129 0.950 . S
C2149 C2145 1.385 . S
C2149 C2148 1.374 . S
C2150 C2147 1.499 . S
C2150 C2151 1.373 . S
C2150 C2152 1.389 1_655 S
C2151 H2130 0.950 . S
C2151 C2150 1.373 . S
C2151 C2167 1.377 . S
C2152 C2150 1.389 1_455 S
C2152 C2153 1.524 . S
C2152 C2166 1.377 . S
C2153 C2152 1.524 . S
C2153 C2154 1.397 1_455 S
C2153 C2158 1.363 . S
C2154 H2131 0.950 . S
C2154 C2153 1.397 1_655 S
C2154 C2155 1.334 1_655 S
C2155 H2132 0.950 1_455 S
C2155 C2154 1.334 1_455 S
C2155 C2156 1.287 . S
C2156 C2155 1.287 . S
C2156 C2157 1.524 . S
C2156 H2175 0.913 . S
C2157 H2133 0.950 . S
C2157 C2156 1.524 . S
C2157 C2158 1.415 . S
C2158 H2134 0.950 . S
C2158 C2153 1.363 . S
C2158 C2157 1.415 . S
C2159 H2135 0.951 . S
C2159 C2160 1.366 . S
C2159 C2161 1.388 . S
C2160 C2159 1.366 . S
C2160 C2164 1.385 . S
C2161 H2136 0.951 1_455 S
C2161 C2159 1.388 . S
C2161 C2162 1.366 . S
C2162 C2161 1.366 . S
C2162 C2163 1.414 . S
C2162 C2165 1.499 . S
C2163 H2137 0.950 . S
C2163 C2162 1.414 . S
C2163 C2164 1.374 . S
C2164 H2138 0.950 . S
C2164 C2160 1.385 . S
C2164 C2163 1.374 . S
C2165 C2162 1.499 . S
C2165 C2166 1.373 . S
C2165 C2167 1.389 1_455 S
C2166 H2139 0.950 . S
C2166 C2152 1.377 . S
C2166 C2165 1.373 . S
C2167 C2151 1.377 . S
C2167 C2165 1.389 1_655 S
C2167 C2168 1.524 . S
C2168 C2167 1.524 . S
C2168 C2169 1.397 1_655 S
C2168 C2173 1.363 . S
C2169 H2140 0.950 . S
C2169 C2168 1.397 1_455 S
C2169 C2170 1.334 1_455 S
C2170 H2141 0.950 1_655 S
C2170 C2169 1.334 1_655 S
C2170 C2171 1.287 . S
C2171 C2170 1.287 . S
C2171 C2172 1.524 . S
C2171 H2174 0.999 . S
C2172 H2142 0.950 . S
C2172 C2171 1.524 . S
C2172 C2173 1.415 . S
C2173 H2143 0.950 . S
C2173 C2168 1.363 . S
C2173 C2172 1.415 . S
H2174 C2171 0.999 . S
H2175 C2156 0.913 . S
C595 C158 1.195 . S
C610 C14 1.194 . S
C645 C50 1.195 . S
C660 C194 1.194 . S
C695 C230 1.195 . S
C710 C86 1.194 . S
C745 C266 1.195 . S
C760 C122 1.194 . S
C795 C446 1.194 . S
C810 C302 1.195 . S
C845 C338 1.194 . S
C860 C482 1.195 . S
C895 C518 1.194 . S
C910 C374 1.195 . S
C945 C410 1.195 . S
C960 C554 1.194 . S
C995 C2 1.260 . S
C1010 C542 1.260 . S
C1045 C38 1.260 . S
C1060 C434 1.260 . S
C1095 C74 1.260 . S
C1110 C470 1.260 . S
C1145 C506 1.260 . S
C1160 C110 1.260 . S
C1195 C146 1.260 . S
C1210 C326 1.260 . S
C1245 C182 1.260 . S
C1260 C362 1.260 . S
C1295 C398 1.260 . S
C1310 C218 1.259 . S
C1345 C290 1.260 . S
C1360 C254 1.260 . S
C1395 C4 1.650 . S
C1410 C364 1.650 . S
C1445 C400 1.651 . S
C1460 C40 1.651 . S
C1495 C76 1.650 . S
C1510 C292 1.650 . S
C1545 C328 1.651 . S
C1560 C112 1.651 . S
C1595 C148 1.651 . S
C1610 C508 1.651 . S
C1645 C184 1.650 . S
C1660 C544 1.650 . S
C1695 C436 1.651 . S
C1710 C220 1.651 . S
C1745 C472 1.650 . S
C1760 C256 1.650 . S
C1795 C363 1.358 . S
C1810 C3 1.358 . S
C1845 C39 1.358 . S
C1860 C399 1.358 . S
C1895 C75 1.358 . S
C1910 C291 1.358 . S
C1945 C327 1.358 . S
C1960 C111 1.358 . S
C1995 C507 1.358 . S
C2010 C147 1.358 . S
C2045 C543 1.358 . S
C2060 C183 1.358 . S
C2095 C435 1.358 . S
C2110 C219 1.358 . S
C2145 C255 1.358 . S
C2160 C471 1.358 . S
